# Generated by pormake.
# Topology ubt, (5)-cn, num edge types: 1
# Building blocks:
#     Node 0, Type 0, BuildingBlock: BEQFEK_clean_sbu_0, # of connection points: 5
#     Node 1, Type 0, BuildingBlock: BEQFEK_clean_sbu_0, # of connection points: 5
#     Node 2, Type 0, BuildingBlock: BEQFEK_clean_sbu_0, # of connection points: 5
#     Node 3, Type 0, BuildingBlock: BEQFEK_clean_sbu_0, # of connection points: 5
#     Node 4, Type 0, BuildingBlock: BEQFEK_clean_sbu_0, # of connection points: 5
#     Node 5, Type 0, BuildingBlock: BEQFEK_clean_sbu_0, # of connection points: 5
#     Node 6, Type 0, BuildingBlock: BEQFEK_clean_sbu_0, # of connection points: 5
#     Node 7, Type 0, BuildingBlock: BEQFEK_clean_sbu_0, # of connection points: 5
#     Node 8, Type 0, BuildingBlock: BEQFEK_clean_sbu_0, # of connection points: 5
#     Node 9, Type 0, BuildingBlock: BEQFEK_clean_sbu_0, # of connection points: 5
#     Node 10, Type 0, BuildingBlock: BEQFEK_clean_sbu_0, # of connection points: 5
#     Node 11, Type 0, BuildingBlock: BEQFEK_clean_sbu_0, # of connection points: 5
#     Node 12, Type 0, BuildingBlock: BEQFEK_clean_sbu_0, # of connection points: 5
#     Node 13, Type 0, BuildingBlock: BEQFEK_clean_sbu_0, # of connection points: 5
#     Node 14, Type 0, BuildingBlock: BEQFEK_clean_sbu_0, # of connection points: 5
#     Node 15, Type 0, BuildingBlock: BEQFEK_clean_sbu_0, # of connection points: 5
#     Node 16, Type 0, BuildingBlock: BEQFEK_clean_sbu_0, # of connection points: 5
#     Node 17, Type 0, BuildingBlock: BEQFEK_clean_sbu_0, # of connection points: 5
#     Node 18, Type 0, BuildingBlock: BEQFEK_clean_sbu_0, # of connection points: 5
#     Node 19, Type 0, BuildingBlock: BEQFEK_clean_sbu_0, # of connection points: 5
#     Node 20, Type 0, BuildingBlock: BEQFEK_clean_sbu_0, # of connection points: 5
#     Node 21, Type 0, BuildingBlock: BEQFEK_clean_sbu_0, # of connection points: 5
#     Node 22, Type 0, BuildingBlock: BEQFEK_clean_sbu_0, # of connection points: 5
#     Node 23, Type 0, BuildingBlock: BEQFEK_clean_sbu_0, # of connection points: 5
#     Node 24, Type 0, BuildingBlock: BEQFEK_clean_sbu_0, # of connection points: 5
#     Node 25, Type 0, BuildingBlock: BEQFEK_clean_sbu_0, # of connection points: 5
#     Node 26, Type 0, BuildingBlock: BEQFEK_clean_sbu_0, # of connection points: 5
#     Node 27, Type 0, BuildingBlock: BEQFEK_clean_sbu_0, # of connection points: 5
#     Node 28, Type 0, BuildingBlock: BEQFEK_clean_sbu_0, # of connection points: 5
#     Node 29, Type 0, BuildingBlock: BEQFEK_clean_sbu_0, # of connection points: 5
#     Node 30, Type 0, BuildingBlock: BEQFEK_clean_sbu_0, # of connection points: 5
#     Node 31, Type 0, BuildingBlock: BEQFEK_clean_sbu_0, # of connection points: 5
#     Node 32, Type 0, BuildingBlock: BEQFEK_clean_sbu_0, # of connection points: 5
#     Node 33, Type 0, BuildingBlock: BEQFEK_clean_sbu_0, # of connection points: 5
#     Node 34, Type 0, BuildingBlock: BEQFEK_clean_sbu_0, # of connection points: 5
#     Node 35, Type 0, BuildingBlock: BEQFEK_clean_sbu_0, # of connection points: 5
#     Node 36, Type 0, BuildingBlock: BEQFEK_clean_sbu_0, # of connection points: 5
#     Node 37, Type 0, BuildingBlock: BEQFEK_clean_sbu_0, # of connection points: 5
#     Node 38, Type 0, BuildingBlock: BEQFEK_clean_sbu_0, # of connection points: 5
#     Node 39, Type 0, BuildingBlock: BEQFEK_clean_sbu_0, # of connection points: 5
#     Node 40, Type 0, BuildingBlock: BEQFEK_clean_sbu_0, # of connection points: 5
#     Node 41, Type 0, BuildingBlock: BEQFEK_clean_sbu_0, # of connection points: 5
#     Node 42, Type 0, BuildingBlock: BEQFEK_clean_sbu_0, # of connection points: 5
#     Node 43, Type 0, BuildingBlock: BEQFEK_clean_sbu_0, # of connection points: 5
#     Node 44, Type 0, BuildingBlock: BEQFEK_clean_sbu_0, # of connection points: 5
#     Node 45, Type 0, BuildingBlock: BEQFEK_clean_sbu_0, # of connection points: 5
#     Node 46, Type 0, BuildingBlock: BEQFEK_clean_sbu_0, # of connection points: 5
#     Node 47, Type 0, BuildingBlock: BEQFEK_clean_sbu_0, # of connection points: 5
#     Edge 48, Type (0, 0), BuildingBlock: OJICUG_clean_linker_0, # of connection points: 2
#     Edge 49, Type (0, 0), BuildingBlock: OJICUG_clean_linker_0, # of connection points: 2
#     Edge 50, Type (0, 0), BuildingBlock: OJICUG_clean_linker_0, # of connection points: 2
#     Edge 51, Type (0, 0), BuildingBlock: OJICUG_clean_linker_0, # of connection points: 2
#     Edge 52, Type (0, 0), BuildingBlock: OJICUG_clean_linker_0, # of connection points: 2
#     Edge 53, Type (0, 0), BuildingBlock: OJICUG_clean_linker_0, # of connection points: 2
#     Edge 54, Type (0, 0), BuildingBlock: OJICUG_clean_linker_0, # of connection points: 2
#     Edge 55, Type (0, 0), BuildingBlock: OJICUG_clean_linker_0, # of connection points: 2
#     Edge 56, Type (0, 0), BuildingBlock: OJICUG_clean_linker_0, # of connection points: 2
#     Edge 57, Type (0, 0), BuildingBlock: OJICUG_clean_linker_0, # of connection points: 2
#     Edge 58, Type (0, 0), BuildingBlock: OJICUG_clean_linker_0, # of connection points: 2
#     Edge 59, Type (0, 0), BuildingBlock: OJICUG_clean_linker_0, # of connection points: 2
#     Edge 60, Type (0, 0), BuildingBlock: OJICUG_clean_linker_0, # of connection points: 2
#     Edge 61, Type (0, 0), BuildingBlock: OJICUG_clean_linker_0, # of connection points: 2
#     Edge 62, Type (0, 0), BuildingBlock: OJICUG_clean_linker_0, # of connection points: 2
#     Edge 63, Type (0, 0), BuildingBlock: OJICUG_clean_linker_0, # of connection points: 2
#     Edge 64, Type (0, 0), BuildingBlock: OJICUG_clean_linker_0, # of connection points: 2
#     Edge 65, Type (0, 0), BuildingBlock: OJICUG_clean_linker_0, # of connection points: 2
#     Edge 66, Type (0, 0), BuildingBlock: OJICUG_clean_linker_0, # of connection points: 2
#     Edge 67, Type (0, 0), BuildingBlock: OJICUG_clean_linker_0, # of connection points: 2
#     Edge 68, Type (0, 0), BuildingBlock: OJICUG_clean_linker_0, # of connection points: 2
#     Edge 69, Type (0, 0), BuildingBlock: OJICUG_clean_linker_0, # of connection points: 2
#     Edge 70, Type (0, 0), BuildingBlock: OJICUG_clean_linker_0, # of connection points: 2
#     Edge 71, Type (0, 0), BuildingBlock: OJICUG_clean_linker_0, # of connection points: 2
#     Edge 72, Type (0, 0), BuildingBlock: OJICUG_clean_linker_0, # of connection points: 2
#     Edge 73, Type (0, 0), BuildingBlock: OJICUG_clean_linker_0, # of connection points: 2
#     Edge 74, Type (0, 0), BuildingBlock: OJICUG_clean_linker_0, # of connection points: 2
#     Edge 75, Type (0, 0), BuildingBlock: OJICUG_clean_linker_0, # of connection points: 2
#     Edge 76, Type (0, 0), BuildingBlock: OJICUG_clean_linker_0, # of connection points: 2
#     Edge 77, Type (0, 0), BuildingBlock: OJICUG_clean_linker_0, # of connection points: 2
#     Edge 78, Type (0, 0), BuildingBlock: OJICUG_clean_linker_0, # of connection points: 2
#     Edge 79, Type (0, 0), BuildingBlock: OJICUG_clean_linker_0, # of connection points: 2
#     Edge 80, Type (0, 0), BuildingBlock: OJICUG_clean_linker_0, # of connection points: 2
#     Edge 81, Type (0, 0), BuildingBlock: OJICUG_clean_linker_0, # of connection points: 2
#     Edge 82, Type (0, 0), BuildingBlock: OJICUG_clean_linker_0, # of connection points: 2
#     Edge 83, Type (0, 0), BuildingBlock: OJICUG_clean_linker_0, # of connection points: 2
#     Edge 84, Type (0, 0), BuildingBlock: OJICUG_clean_linker_0, # of connection points: 2
#     Edge 85, Type (0, 0), BuildingBlock: OJICUG_clean_linker_0, # of connection points: 2
#     Edge 86, Type (0, 0), BuildingBlock: OJICUG_clean_linker_0, # of connection points: 2
#     Edge 87, Type (0, 0), BuildingBlock: OJICUG_clean_linker_0, # of connection points: 2
#     Edge 88, Type (0, 0), BuildingBlock: OJICUG_clean_linker_0, # of connection points: 2
#     Edge 89, Type (0, 0), BuildingBlock: OJICUG_clean_linker_0, # of connection points: 2
#     Edge 90, Type (0, 0), BuildingBlock: OJICUG_clean_linker_0, # of connection points: 2
#     Edge 91, Type (0, 0), BuildingBlock: OJICUG_clean_linker_0, # of connection points: 2
#     Edge 92, Type (0, 0), BuildingBlock: OJICUG_clean_linker_0, # of connection points: 2
#     Edge 93, Type (0, 0), BuildingBlock: OJICUG_clean_linker_0, # of connection points: 2
#     Edge 94, Type (0, 0), BuildingBlock: OJICUG_clean_linker_0, # of connection points: 2
#     Edge 95, Type (0, 0), BuildingBlock: OJICUG_clean_linker_0, # of connection points: 2
#     Edge 96, Type (0, 0), BuildingBlock: OJICUG_clean_linker_0, # of connection points: 2
#     Edge 97, Type (0, 0), BuildingBlock: OJICUG_clean_linker_0, # of connection points: 2
#     Edge 98, Type (0, 0), BuildingBlock: OJICUG_clean_linker_0, # of connection points: 2
#     Edge 99, Type (0, 0), BuildingBlock: OJICUG_clean_linker_0, # of connection points: 2
#     Edge 100, Type (0, 0), BuildingBlock: OJICUG_clean_linker_0, # of connection points: 2
#     Edge 101, Type (0, 0), BuildingBlock: OJICUG_clean_linker_0, # of connection points: 2
#     Edge 102, Type (0, 0), BuildingBlock: OJICUG_clean_linker_0, # of connection points: 2
#     Edge 103, Type (0, 0), BuildingBlock: OJICUG_clean_linker_0, # of connection points: 2
#     Edge 104, Type (0, 0), BuildingBlock: OJICUG_clean_linker_0, # of connection points: 2
#     Edge 105, Type (0, 0), BuildingBlock: OJICUG_clean_linker_0, # of connection points: 2
#     Edge 106, Type (0, 0), BuildingBlock: OJICUG_clean_linker_0, # of connection points: 2
#     Edge 107, Type (0, 0), BuildingBlock: OJICUG_clean_linker_0, # of connection points: 2
#     Edge 108, Type (0, 0), BuildingBlock: OJICUG_clean_linker_0, # of connection points: 2
#     Edge 109, Type (0, 0), BuildingBlock: OJICUG_clean_linker_0, # of connection points: 2
#     Edge 110, Type (0, 0), BuildingBlock: OJICUG_clean_linker_0, # of connection points: 2
#     Edge 111, Type (0, 0), BuildingBlock: OJICUG_clean_linker_0, # of connection points: 2
#     Edge 112, Type (0, 0), BuildingBlock: OJICUG_clean_linker_0, # of connection points: 2
#     Edge 113, Type (0, 0), BuildingBlock: OJICUG_clean_linker_0, # of connection points: 2
#     Edge 114, Type (0, 0), BuildingBlock: OJICUG_clean_linker_0, # of connection points: 2
#     Edge 115, Type (0, 0), BuildingBlock: OJICUG_clean_linker_0, # of connection points: 2
#     Edge 116, Type (0, 0), BuildingBlock: OJICUG_clean_linker_0, # of connection points: 2
#     Edge 117, Type (0, 0), BuildingBlock: OJICUG_clean_linker_0, # of connection points: 2
#     Edge 118, Type (0, 0), BuildingBlock: OJICUG_clean_linker_0, # of connection points: 2
#     Edge 119, Type (0, 0), BuildingBlock: OJICUG_clean_linker_0, # of connection points: 2
#     Edge 120, Type (0, 0), BuildingBlock: OJICUG_clean_linker_0, # of connection points: 2
#     Edge 121, Type (0, 0), BuildingBlock: OJICUG_clean_linker_0, # of connection points: 2
#     Edge 122, Type (0, 0), BuildingBlock: OJICUG_clean_linker_0, # of connection points: 2
#     Edge 123, Type (0, 0), BuildingBlock: OJICUG_clean_linker_0, # of connection points: 2
#     Edge 124, Type (0, 0), BuildingBlock: OJICUG_clean_linker_0, # of connection points: 2
#     Edge 125, Type (0, 0), BuildingBlock: OJICUG_clean_linker_0, # of connection points: 2
#     Edge 126, Type (0, 0), BuildingBlock: OJICUG_clean_linker_0, # of connection points: 2
#     Edge 127, Type (0, 0), BuildingBlock: OJICUG_clean_linker_0, # of connection points: 2
#     Edge 128, Type (0, 0), BuildingBlock: OJICUG_clean_linker_0, # of connection points: 2
#     Edge 129, Type (0, 0), BuildingBlock: OJICUG_clean_linker_0, # of connection points: 2
#     Edge 130, Type (0, 0), BuildingBlock: OJICUG_clean_linker_0, # of connection points: 2
#     Edge 131, Type (0, 0), BuildingBlock: OJICUG_clean_linker_0, # of connection points: 2
#     Edge 132, Type (0, 0), BuildingBlock: OJICUG_clean_linker_0, # of connection points: 2
#     Edge 133, Type (0, 0), BuildingBlock: OJICUG_clean_linker_0, # of connection points: 2
#     Edge 134, Type (0, 0), BuildingBlock: OJICUG_clean_linker_0, # of connection points: 2
#     Edge 135, Type (0, 0), BuildingBlock: OJICUG_clean_linker_0, # of connection points: 2
#     Edge 136, Type (0, 0), BuildingBlock: OJICUG_clean_linker_0, # of connection points: 2
#     Edge 137, Type (0, 0), BuildingBlock: OJICUG_clean_linker_0, # of connection points: 2
#     Edge 138, Type (0, 0), BuildingBlock: OJICUG_clean_linker_0, # of connection points: 2
#     Edge 139, Type (0, 0), BuildingBlock: OJICUG_clean_linker_0, # of connection points: 2
#     Edge 140, Type (0, 0), BuildingBlock: OJICUG_clean_linker_0, # of connection points: 2
#     Edge 141, Type (0, 0), BuildingBlock: OJICUG_clean_linker_0, # of connection points: 2
#     Edge 142, Type (0, 0), BuildingBlock: OJICUG_clean_linker_0, # of connection points: 2
#     Edge 143, Type (0, 0), BuildingBlock: OJICUG_clean_linker_0, # of connection points: 2
#     Edge 144, Type (0, 0), BuildingBlock: OJICUG_clean_linker_0, # of connection points: 2
#     Edge 145, Type (0, 0), BuildingBlock: OJICUG_clean_linker_0, # of connection points: 2
#     Edge 146, Type (0, 0), BuildingBlock: OJICUG_clean_linker_0, # of connection points: 2
#     Edge 147, Type (0, 0), BuildingBlock: OJICUG_clean_linker_0, # of connection points: 2
#     Edge 148, Type (0, 0), BuildingBlock: OJICUG_clean_linker_0, # of connection points: 2
#     Edge 149, Type (0, 0), BuildingBlock: OJICUG_clean_linker_0, # of connection points: 2
#     Edge 150, Type (0, 0), BuildingBlock: OJICUG_clean_linker_0, # of connection points: 2
#     Edge 151, Type (0, 0), BuildingBlock: OJICUG_clean_linker_0, # of connection points: 2
#     Edge 152, Type (0, 0), BuildingBlock: OJICUG_clean_linker_0, # of connection points: 2
#     Edge 153, Type (0, 0), BuildingBlock: OJICUG_clean_linker_0, # of connection points: 2
#     Edge 154, Type (0, 0), BuildingBlock: OJICUG_clean_linker_0, # of connection points: 2
#     Edge 155, Type (0, 0), BuildingBlock: OJICUG_clean_linker_0, # of connection points: 2
#     Edge 156, Type (0, 0), BuildingBlock: OJICUG_clean_linker_0, # of connection points: 2
#     Edge 157, Type (0, 0), BuildingBlock: OJICUG_clean_linker_0, # of connection points: 2
#     Edge 158, Type (0, 0), BuildingBlock: OJICUG_clean_linker_0, # of connection points: 2
#     Edge 159, Type (0, 0), BuildingBlock: OJICUG_clean_linker_0, # of connection points: 2
#     Edge 160, Type (0, 0), BuildingBlock: OJICUG_clean_linker_0, # of connection points: 2
#     Edge 161, Type (0, 0), BuildingBlock: OJICUG_clean_linker_0, # of connection points: 2
#     Edge 162, Type (0, 0), BuildingBlock: OJICUG_clean_linker_0, # of connection points: 2
#     Edge 163, Type (0, 0), BuildingBlock: OJICUG_clean_linker_0, # of connection points: 2
#     Edge 164, Type (0, 0), BuildingBlock: OJICUG_clean_linker_0, # of connection points: 2
#     Edge 165, Type (0, 0), BuildingBlock: OJICUG_clean_linker_0, # of connection points: 2
#     Edge 166, Type (0, 0), BuildingBlock: OJICUG_clean_linker_0, # of connection points: 2
#     Edge 167, Type (0, 0), BuildingBlock: OJICUG_clean_linker_0, # of connection points: 2
# Relax obj value: 0.499
# Max RMSD: 0.207
# Mean RMSD: 0.184
data_MOF--net-ubt--node1-BEQFEK_clean_sbu_0--edge1-OJICUG_clean_linker_0
_symmetry_space_group_name_H-M    P1
_symmetry_Int_Tables_number       1
_symmetry_cell_setting            triclinic
loop_
_symmetry_equiv_pos_as_xyz
'x, y, z'
_cell_length_a     51.92189
_cell_length_b     52.142742
_cell_length_c     52.154998
_cell_angle_alpha  94.70761
_cell_angle_beta   91.372217
_cell_angle_gamma 91.484793
loop_
_atom_site_label
_atom_site_type_symbol
_atom_site_fract_x
_atom_site_fract_y
_atom_site_fract_z
_atom_type_partial_charge
Co0 Co 0.00987 0.191 0.23598 0.0
Co1 Co 0.04944 0.22842 0.2138 0.0
C2 C -0.00315 0.21963 0.1906 0.0
O3 O 0.99055 0.20406 0.20701 0.0
O4 O 0.01941 0.22951 0.19052 0.0
C5 C 0.96526 0.1677 0.25173 0.0
O6 O 0.95705 0.19118 0.25025 0.0
C7 C 0.08662 0.23497 0.17593 0.0
C8 C 0.11144 0.2679 0.1916 0.0
C9 C 0.10891 0.24872 0.17159 0.0
N10 N 0.07673 0.2449 0.19789 0.0
N11 N 0.0913 0.26489 0.20708 0.0
C12 C 0.07508 0.21216 0.15989 0.0
H13 H 0.0539 0.21125 0.16174 0.0
H14 H 0.08282 0.19422 0.16669 0.0
H15 H 0.07986 0.21302 0.13934 0.0
C16 C 0.05394 0.15691 0.23341 0.0
N17 N 0.04233 0.17851 0.22747 0.0
N18 N 0.05971 0.19507 0.22043 0.0
C19 C 0.0832 0.18503 0.22281 0.0
C20 C 0.08028 0.16037 0.23065 0.0
C21 C 0.04013 0.13418 0.243 0.0
H22 H 0.03509 0.1388 0.26339 0.0
H23 H 0.02198 0.12994 0.2316 0.0
H24 H 0.05218 0.11689 0.24158 0.0
O25 O 0.01378 0.21921 0.26322 0.0
O26 O 0.04036 0.24703 0.24584 0.0
H27 H 0.10488 0.22078 0.22961 0.0
H28 H 0.12274 0.19279 0.23586 0.0
C29 C 0.10801 0.20041 0.22295 0.0
H30 H 0.11564 0.1994 0.20327 0.0
H31 H 0.08815 0.2757 0.2244 0.0
O32 O 0.98878 0.16333 0.24792 0.0
C33 C 0.02592 0.24078 0.26382 0.0
Co34 Co 0.84751 0.06534 0.20005 0.0
Co35 Co 0.87973 0.02717 0.23242 0.0
C36 C 0.89645 0.08089 0.23096 0.0
O37 O 0.87657 0.08488 0.21737 0.0
O38 O 0.90157 0.05855 0.23732 0.0
C39 C 0.8508 0.09288 0.15653 0.0
O40 O 0.87277 0.08092 0.15641 0.0
C41 C 0.9215 0.99148 0.24211 0.0
C42 C 0.90156 0.96332 0.26462 0.0
C43 C 0.92455 0.968 0.25257 0.0
N44 N 0.89764 -0.00018 0.24724 0.0
N45 N 0.88615 0.98324 0.26137 0.0
C46 C 0.93954 0.00412 0.22475 0.0
H47 H 0.92925 0.01816 0.21364 0.0
H48 H 0.94853 0.98949 0.21139 0.0
H49 H 0.95516 0.01449 0.23661 0.0
C50 C 0.84909 0.02113 0.16159 0.0
N51 N 0.85733 0.0335 0.1841 0.0
N52 N 0.87078 0.01767 0.19729 0.0
C53 C 0.8715 -0.00525 0.1834 0.0
C54 C 0.85792 -0.00359 0.16057 0.0
C55 C 0.83039 0.0315 0.14305 0.0
H56 H 0.81678 0.04437 0.15349 0.0
H57 H 0.84115 0.04268 0.12939 0.0
H58 H 0.81942 0.01565 0.13176 0.0
O59 O 0.82272 0.05802 0.22673 0.0
O60 O 0.84708 0.03382 0.25075 0.0
H61 H 0.87479 0.96724 0.21155 0.0
H62 H 0.87825 0.95367 0.17903 0.0
C63 C 0.88263 0.97082 0.19259 0.0
H64 H 0.90383 0.97325 0.19437 0.0
H65 H 0.86718 0.98468 0.26738 0.0
O66 O 0.83481 0.08872 0.17398 0.0
C67 C 0.82619 0.0454 0.24646 0.0
Co68 Co 0.00655 0.83558 0.20409 0.0
Co69 Co 0.0506 0.86589 0.23582 0.0
C70 C -0.00019 0.88959 0.22931 0.0
O71 O -0.00807 0.86896 0.21656 0.0
O72 O 0.02295 0.89202 0.23788 0.0
C73 C 0.97905 0.83688 0.15938 0.0
O74 O -0.00539 0.85718 0.1597 0.0
C75 C 0.09004 0.90554 0.24787 0.0
C76 C 0.11915 0.88543 0.26975 0.0
C77 C 0.11449 0.90842 0.2591 0.0
N78 N 0.08077 0.88191 0.25155 0.0
N79 N 0.09794 0.87016 0.26519 0.0
C80 C 0.07711 0.92336 0.23081 0.0
H81 H 0.06679 0.93804 0.24294 0.0
H82 H 0.06295 0.91261 0.21746 0.0
H83 H 0.09146 0.93345 0.2195 0.0
C84 C 0.04871 0.82944 0.16581 0.0
N85 N 0.0394 0.8391 0.18849 0.0
N86 N 0.05778 0.85285 0.2014 0.0
C87 C 0.07927 0.85246 0.18718 0.0
C88 C 0.07414 0.83772 0.16412 0.0
C89 C 0.03441 0.81098 0.14672 0.0
H90 H 0.01971 0.79968 0.1564 0.0
H91 H 0.02482 0.82188 0.13199 0.0
H92 H 0.04793 0.79767 0.13667 0.0
O93 O 0.00941 0.81407 0.23375 0.0
O94 O 0.04113 0.83629 0.25587 0.0
H95 H 0.11084 0.85991 0.21411 0.0
H96 H 0.11946 0.86213 0.18107 0.0
C97 C 0.10424 0.86606 0.19528 0.0
H98 H 0.10135 0.88707 0.19732 0.0
H99 H 0.0958 0.85122 0.27006 0.0
O100 O 0.98056 0.82222 0.17765 0.0
C101 C 0.02487 0.81742 0.25323 0.0
Co102 Co 0.2321 -0.00642 0.19509 0.0
Co103 Co 0.20746 0.03782 0.22938 0.0
C104 C 0.18727 0.98462 0.22938 0.0
O105 O 0.20463 0.97701 0.21406 0.0
O106 O 0.18522 0.0083 0.23649 0.0
C107 C 0.21788 0.96283 0.1538 0.0
O108 O 0.19682 0.97416 0.16163 0.0
C109 C 0.1678 0.0729 0.24416 0.0
C110 C 0.18886 0.10584 0.26496 0.0
C111 C 0.1646 0.0973 0.2558 0.0
N112 N 0.1927 0.06713 0.24634 0.0
N113 N 0.2052 0.0866 0.2594 0.0
C114 C 0.14812 0.05637 0.2286 0.0
H115 H 0.13836 0.04346 0.24145 0.0
H116 H 0.15752 0.04424 0.21325 0.0
H117 H 0.13326 0.06819 0.21997 0.0
C118 C 0.23108 0.03312 0.15866 0.0
N119 N 0.2225 0.02385 0.18034 0.0
N120 N 0.2106 0.04201 0.19398 0.0
C121 C 0.21075 0.06337 0.18107 0.0
C122 C 0.224 0.05851 0.15847 0.0
C123 C 0.25003 0.01963 0.14142 0.0
H124 H 0.2633 0.00844 0.15287 0.0
H125 H 0.23941 0.00607 0.12717 0.0
H126 H 0.26152 0.03336 0.13086 0.0
O127 O 0.26119 0.0022 0.21915 0.0
O128 O 0.24274 0.03386 0.24322 0.0
H129 H 0.2124 0.09639 0.20834 0.0
H130 H 0.20091 0.10294 0.17657 0.0
C131 C 0.20067 0.08871 0.19124 0.0
H132 H 0.18052 0.08585 0.19697 0.0
H133 H 0.22504 0.08737 0.26312 0.0
O134 O 0.23896 0.96814 0.16625 0.0
C135 C 0.26191 0.01979 0.23768 0.0
Co136 Co -0.0067 0.87781 0.84114 0.0
Co137 Co 0.0319 0.8358 0.85511 0.0
C138 C -0.00554 0.85668 0.89255 0.0
O139 O 0.98533 0.8714 0.87667 0.0
O140 O 0.01325 0.84259 0.88681 0.0
C141 C 0.97886 0.92685 0.85264 0.0
O142 O -0.00308 0.92384 0.87014 0.0
C143 C 0.07675 0.82661 0.88392 0.0
C144 C 0.08615 0.78594 0.87431 0.0
C145 C 0.0939 0.80795 0.88962 0.0
N146 N 0.05995 0.81648 0.86576 0.0
N147 N 0.06554 0.79213 0.85994 0.0
C148 C 0.07471 0.85312 0.89726 0.0
H149 H 0.07613 0.85224 0.91844 0.0
H150 H 0.05654 0.86215 0.89197 0.0
H151 H 0.09065 0.8658 0.89157 0.0
C152 C 0.04147 0.90175 0.82313 0.0
N153 N 0.02866 0.88339 0.83493 0.0
N154 N 0.04461 0.86513 0.83981 0.0
C155 C 0.06795 0.871 0.83077 0.0
C156 C 0.06685 0.89449 0.82028 0.0
C157 C 0.02966 0.92593 0.81531 0.0
H158 H 0.01048 0.92139 0.80602 0.0
H159 H 0.02717 0.93925 0.83269 0.0
H160 H 0.04179 0.93601 0.80195 0.0
O161 O 0.98016 0.84705 0.8197 0.0
O162 O 0.007 0.81688 0.83149 0.0
H163 H 0.08329 0.83299 0.8264 0.0
H164 H 0.10296 0.8576 0.81336 0.0
C165 C 0.09025 0.85331 0.82938 0.0
H166 H 0.10189 0.85601 0.84752 0.0
H167 H 0.05497 0.77963 0.84675 0.0
O168 O 0.97383 0.9086 0.83544 0.0
C169 C 0.98714 0.82371 0.8191 0.0
Co170 Co 0.21747 0.06717 0.86815 0.0
Co171 Co 0.19048 0.02631 0.82927 0.0
C172 C 0.16572 0.0756 0.84267 0.0
O173 O 0.18547 0.08265 0.85649 0.0
O174 O 0.16374 0.05304 0.8315 0.0
C175 C 0.21287 0.09364 0.91475 0.0
O176 O 0.19199 0.07876 0.91339 0.0
C177 C 0.1525 0.98663 0.8149 0.0
C178 C 0.16954 0.96307 0.78285 0.0
C179 C 0.14841 0.9646 0.79857 0.0
N180 N 0.17502 -0.00235 0.80934 0.0
N181 N 0.18502 0.9838 0.78984 0.0
C182 C 0.13565 -0.00301 0.83604 0.0
H183 H 0.12324 0.01183 0.82853 0.0
H184 H 0.1476 0.0064 0.85224 0.0
H185 H 0.12297 0.98176 0.84303 0.0
C186 C 0.22242 0.02201 0.89907 0.0
N187 N 0.2131 0.03341 0.87857 0.0
N188 N 0.20191 0.01586 0.86211 0.0
C189 C 0.20377 0.99268 0.87176 0.0
C190 C 0.21655 -0.00419 0.89555 0.0
C191 C 0.23711 0.03599 0.92129 0.0
H192 H 0.2502 0.05088 0.91429 0.0
H193 H 0.2233 0.04561 0.93453 0.0
H194 H 0.24842 0.02285 0.93246 0.0
O195 O 0.24184 0.06656 0.8401 0.0
O196 O 0.22057 0.0397 0.81093 0.0
H197 H 0.2055 0.95116 0.86581 0.0
H198 H 0.17498 0.96474 0.85851 0.0
C199 C 0.1961 0.96753 0.85743 0.0
H200 H 0.20143 0.96759 0.83701 0.0
H201 H 0.20286 0.98788 0.78206 0.0
O202 O 0.22905 0.09142 0.89691 0.0
C203 C 0.2396 0.05497 0.81767 0.0
Co204 Co 0.00291 0.23352 0.89547 0.0
Co205 Co 0.03635 0.20023 0.8562 0.0
C206 C 0.98705 0.17997 0.87298 0.0
O207 O 0.98442 0.20072 0.88697 0.0
O208 O 0.00671 0.1764 0.85933 0.0
C209 C 0.98256 0.23553 0.94486 0.0
O210 O -0.00102 0.21699 0.94666 0.0
C211 C 0.06893 0.15745 0.83968 0.0
C212 C 0.09564 0.17529 0.81361 0.0
C213 C 0.09087 0.15289 0.82554 0.0
N214 N 0.06137 0.18151 0.83654 0.0
N215 N 0.07697 0.19181 0.82033 0.0
C216 C 0.05774 0.14086 0.85898 0.0
H217 H 0.04788 0.15278 0.87416 0.0
H218 H 0.07292 0.12968 0.86797 0.0
H219 H 0.04341 0.12708 0.84905 0.0
C220 C 0.05319 0.24059 0.92298 0.0
N221 N 0.0377 0.22869 0.90435 0.0
N222 N 0.05149 0.21374 0.88873 0.0
C223 C 0.07621 0.21516 0.89751 0.0
C224 C 0.07815 0.2325 0.91923 0.0
C225 C 0.04482 0.26167 0.94192 0.0
H226 H 0.02804 0.27148 0.93405 0.0
H227 H 0.03911 0.25327 0.95987 0.0
H228 H 0.0608 0.27593 0.94676 0.0
O229 O 0.00208 0.25418 0.86543 0.0
O230 O 0.02479 0.22986 0.83733 0.0
H231 H 0.10211 0.20718 0.86672 0.0
H232 H 0.11523 0.201 0.89795 0.0
C233 C 0.09756 0.19997 0.88555 0.0
H234 H 0.09139 0.1795 0.88253 0.0
H235 H 0.07589 0.21069 0.81521 0.0
O236 O 0.98234 0.2479 0.92478 0.0
C237 C 0.01178 0.24986 0.84327 0.0
Co238 Co 0.86558 0.07058 0.86357 0.0
Co239 Co 0.83555 0.028 0.89019 0.0
C240 C 0.83552 0.08208 0.91149 0.0
O241 O 0.84788 0.08883 0.89237 0.0
O242 O 0.83028 0.05858 0.91417 0.0
C243 C 0.9046 0.10462 0.87399 0.0
O244 O 0.89934 0.09576 0.8962 0.0
C245 C 0.82888 0.99278 0.92912 0.0
C246 C 0.80385 0.96179 0.90973 0.0
C247 C 0.81825 0.96853 0.93218 0.0
N248 N 0.82155 -0.00042 0.90588 0.0
N249 N 0.80606 0.98136 0.89457 0.0
C250 C 0.84843 0.00801 0.94614 0.0
H251 H 0.85829 0.02282 0.9355 0.0
H252 H 0.86301 -0.00475 0.95381 0.0
H253 H 0.83854 0.01795 0.9626 0.0
C254 C 0.9066 0.03282 0.86575 0.0
N255 N 0.88333 0.04133 0.87285 0.0
N256 N 0.87074 0.02303 0.88369 0.0
C257 C 0.88551 0.00212 0.88348 0.0
C258 C 0.90872 0.00791 0.87251 0.0
C259 C 0.92468 0.04657 0.84923 0.0
H260 H 0.9354 0.06198 0.86131 0.0
H261 H 0.93887 0.03332 0.84018 0.0
H262 H 0.91367 0.05552 0.83399 0.0
O263 O 0.83999 0.05967 0.8363 0.0
O264 O 0.81816 0.03017 0.85657 0.0
H265 H 0.88951 0.96069 0.88294 0.0
H266 H 0.87589 0.97572 0.91126 0.0
C267 C 0.87644 0.976 0.8901 0.0
H268 H 0.85687 0.97154 0.88176 0.0
H269 H 0.79826 0.98162 0.87597 0.0
O270 O 0.89168 0.09595 0.85398 0.0
C271 C 0.82196 0.04267 0.83694 0.0
Co272 Co 0.20165 0.22524 0.01682 0.0
Co273 Co 0.23636 0.19145 0.04953 0.0
C274 C 0.21905 0.17366 -0.00351 0.0
O275 O 0.20811 0.19467 0.99317 0.0
O276 O 0.22995 0.16965 0.01771 0.0
C277 C 0.17349 0.24644 0.97637 0.0
O278 O 0.19448 0.24183 0.96338 0.0
C279 C 0.24275 0.14735 0.07779 0.0
C280 C 0.27815 0.15629 0.10151 0.0
C281 C 0.25845 0.13791 0.09647 0.0
N282 N 0.25266 0.1701 0.0721 0.0
N283 N 0.27407 0.17525 0.08595 0.0
C284 C 0.21713 0.13665 0.0675 0.0
H285 H 0.20606 0.15154 0.05841 0.0
H286 H 0.20574 0.12911 0.08312 0.0
H287 H 0.22023 0.12061 0.05267 0.0
C288 C 0.17103 0.22615 0.06332 0.0
N289 N 0.19038 0.21658 0.04914 0.0
N290 N 0.20565 0.20383 0.06369 0.0
C291 C 0.19683 0.20535 0.08783 0.0
C292 C 0.17464 0.21956 0.0883 0.0
C293 C 0.14988 0.2417 0.05309 0.0
H294 H 0.14156 0.23138 0.03527 0.0
H295 H 0.13428 0.24483 0.06705 0.0
H296 H 0.15794 0.26056 0.04823 0.0
O297 O 0.23319 0.24697 0.023 0.0
O298 O 0.25855 0.22115 0.0439 0.0
H299 H 0.20499 0.20681 0.12888 0.0
H300 H 0.20794 0.17576 0.11154 0.0
C301 C 0.21132 0.19675 0.11063 0.0
H302 H 0.23225 0.20058 0.10876 0.0
H303 H 0.28531 0.19208 0.08547 0.0
O304 O 0.17353 0.24298 0.00016 0.0
C305 C 0.25459 0.24226 0.03398 0.0
Co306 Co 0.18853 0.83493 0.05186 0.0
Co307 Co 0.22478 0.86519 0.0156 0.0
C308 C 0.21028 0.88773 0.06713 0.0
O309 O 0.19624 0.86817 0.07043 0.0
O310 O 0.22301 0.8892 0.04686 0.0
C311 C 0.14322 0.83662 0.07916 0.0
O312 O 0.14229 0.85749 0.06668 0.0
C313 C 0.22636 0.90553 0.98075 0.0
C314 C 0.26297 0.90047 0.96059 0.0
C315 C 0.24102 0.91515 0.96156 0.0
N316 N 0.23869 0.88582 0.99014 0.0
N317 N 0.26073 0.88299 0.97819 0.0
C318 C 0.20114 0.91497 0.99057 0.0
H319 H 0.18518 0.90557 0.97843 0.0
H320 H 0.2001 0.93614 0.98987 0.0
H321 H 0.19839 0.90985 0.01054 0.0
C322 C 0.15761 0.82689 0.00247 0.0
N323 N 0.17683 0.83854 0.01745 0.0
N324 N 0.19293 0.85009 0.00267 0.0
C325 C 0.18537 0.84492 0.9779 0.0
C326 C 0.16239 0.83072 0.97688 0.0
C327 C 0.13615 0.8109 0.01213 0.0
H328 H 0.142 0.79055 0.01154 0.0
H329 H 0.13174 0.81735 0.03214 0.0
H330 H 0.11843 0.81199 -1e-05 0.0
O331 O 0.22141 0.81513 0.05016 0.0
O332 O 0.24613 0.83627 0.0235 0.0
H333 H 0.223 0.84557 0.96155 0.0
H334 H 0.19774 0.83366 0.93931 0.0
C335 C 0.20264 0.84809 0.95565 0.0
H336 H 0.20054 0.86754 0.94889 0.0
H337 H 0.27399 0.86895 0.98175 0.0
O338 O 0.16144 0.82107 0.07448 0.0
C339 C 0.24225 0.81787 0.03781 0.0
Co340 Co 0.84363 0.20944 0.01934 0.0
Co341 Co 0.87305 0.24174 0.06402 0.0
C342 C 0.89757 0.23028 0.0134 0.0
O343 O 0.87745 0.21793 0.00453 0.0
O344 O 0.89886 0.2402 0.03645 0.0
C345 C 0.84163 0.16328 0.99091 0.0
O346 O 0.86259 0.1619 0.00531 0.0
C347 C 0.91427 0.24941 0.1012 0.0
C348 C 0.89769 0.27367 0.13304 0.0
C349 C 0.91922 0.25979 0.12607 0.0
N350 N 0.89086 0.2566 0.09376 0.0
N351 N 0.88123 0.27171 0.11254 0.0
C352 C 0.9295 0.22943 0.08635 0.0
H353 H 0.94328 0.23922 0.07419 0.0
H354 H 0.91657 0.2164 0.07369 0.0
H355 H 0.94062 0.21778 0.09938 0.0
C356 C 0.83702 0.17328 0.06128 0.0
N357 N 0.84631 0.1952 0.05218 0.0
N358 N 0.85935 0.20867 0.07087 0.0
C359 C 0.85887 0.19562 0.09225 0.0
C360 C 0.84489 0.17276 0.08679 0.0
C361 C 0.81936 0.1538 0.04677 0.0
H362 H 0.80761 0.16294 0.03222 0.0
H363 H 0.83095 0.13845 0.03714 0.0
H364 H 0.80638 0.14459 0.06016 0.0
O365 O 0.82377 0.2415 0.02212 0.0
O366 O 0.84457 0.2642 0.05475 0.0
H367 H 0.8662 0.22443 0.1234 0.0
H368 H 0.86631 0.19206 0.13292 0.0
C369 C 0.87172 0.20449 0.11755 0.0
H370 H 0.89288 0.20396 0.11565 0.0
H371 H 0.86276 0.27912 0.11203 0.0
O372 O 0.82827 0.18336 -0.00652 0.0
C373 C 0.82671 0.26181 0.03743 0.0
Co374 Co 0.8511 0.86014 0.06801 0.0
Co375 Co 0.88322 0.83188 0.02591 0.0
C376 C 0.90167 0.83556 0.07955 0.0
O377 O 0.88096 0.84625 0.08634 0.0
O378 O 0.90614 0.8298 0.05603 0.0
C379 C 0.8569 0.90435 0.09536 0.0
O380 O 0.87887 0.89986 0.08406 0.0
C381 C 0.92475 0.82495 0.99125 0.0
C382 C 0.90572 0.8036 0.95738 0.0
C383 C 0.92845 0.81646 0.96588 0.0
N384 N 0.90079 0.81795 -0.00273 0.0
N385 N 0.88976 0.80435 0.97733 0.0
C386 C 0.94185 0.84318 0.00813 0.0
H387 H 0.95439 0.83183 0.02019 0.0
H388 H 0.93015 0.85583 0.02112 0.0
H389 H 0.95437 0.85512 -0.00341 0.0
C390 C 0.84716 0.89685 0.02886 0.0
N391 N 0.85874 0.87663 0.03815 0.0
N392 N 0.87385 0.86601 0.02072 0.0
C393 C 0.87311 0.87987 -6e-05 0.0
C394 C 0.85607 0.89978 0.00447 0.0
C395 C 0.82428 0.90959 0.04079 0.0
H396 H 0.81376 0.89619 0.05254 0.0
H397 H 0.83092 0.92684 0.0533 0.0
H398 H 0.81077 0.91588 0.02589 0.0
O399 O 0.82621 0.83288 0.057 0.0
O400 O 0.85079 0.81151 0.02831 0.0
H401 H 0.87927 0.85496 0.96612 0.0
H402 H 0.88558 0.88866 0.96214 0.0
C403 C 0.88713 0.87339 0.97564 0.0
H404 H 0.9078 0.87132 0.98025 0.0
H405 H 0.87064 0.79759 0.97663 0.0
O406 O 0.83885 0.88733 0.09262 0.0
C407 C 0.82967 0.81429 0.04011 0.0
Co408 Co -0.00415 0.69585 0.71896 0.0
Co409 Co 0.03288 0.74313 0.71433 0.0
C410 C 0.00044 0.72023 0.66982 0.0
O411 O 0.99105 0.70287 0.6828 0.0
O412 O 0.01713 0.73653 0.67967 0.0
C413 C 0.97325 0.6471 0.70508 0.0
O414 O 0.98367 0.6509 0.68296 0.0
C415 C 0.08094 0.75713 0.69608 0.0
C416 C 0.0874 0.79867 0.70687 0.0
C417 C 0.09823 0.77732 0.69417 0.0
N418 N 0.06111 0.76563 0.70985 0.0
N419 N 0.0649 0.79051 0.71644 0.0
C420 C 0.08198 0.73051 0.68284 0.0
H421 H 0.08824 0.73141 0.66272 0.0
H422 H 0.06302 0.7203 0.68279 0.0
H423 H 0.09621 0.71922 0.69304 0.0
C424 C 0.04242 0.6754 0.74225 0.0
N425 N 0.03051 0.69318 0.7293 0.0
N426 N 0.04517 0.71411 0.73007 0.0
C427 C 0.06636 0.71091 0.74479 0.0
C428 C 0.06548 0.68614 0.7529 0.0
C429 C 0.03183 0.64862 0.74392 0.0
H430 H 0.01735 0.64875 0.75924 0.0
H431 H 0.0222 0.64159 0.72541 0.0
H432 H 0.04725 0.63515 0.74815 0.0
O433 O 0.9802 0.72448 0.74039 0.0
O434 O 0.00619 0.75841 0.73508 0.0
H435 H 0.07501 0.75105 0.75522 0.0
H436 H 0.0929 0.72929 0.77359 0.0
C437 C 0.08483 0.73238 0.75422 0.0
H438 H 0.10099 0.73324 0.74076 0.0
H439 H 0.05191 0.80199 0.72678 0.0
O440 O 0.97655 0.6639 0.72398 0.0
C441 C 0.98592 0.74847 0.74391 0.0
Co442 Co 0.83457 0.56907 0.69952 0.0
Co443 Co 0.86265 0.53166 0.73507 0.0
C444 C 0.89084 0.57473 0.71496 0.0
O445 O 0.87042 0.58127 0.70382 0.0
O446 O 0.8911 0.55562 0.72843 0.0
C447 C 0.83726 0.58703 0.65167 0.0
O448 O 0.85541 0.56993 0.65171 0.0
C449 C 0.89964 0.49289 0.74475 0.0
C450 C 0.88691 0.47754 0.78072 0.0
C451 C 0.90549 0.47514 0.76211 0.0
N452 N 0.87848 0.50523 0.75251 0.0
N453 N 0.871 0.49614 0.77415 0.0
C454 C 0.91455 0.49889 0.72165 0.0
H455 H 0.93117 0.51187 0.728 0.0
H456 H 0.90229 0.50872 0.70798 0.0
H457 H 0.92223 0.48115 0.7118 0.0
C458 C 0.82108 0.51968 0.66971 0.0
N459 N 0.83286 0.53342 0.68981 0.0
N460 N 0.84476 0.51764 0.70433 0.0
C461 C 0.84073 0.49333 0.69376 0.0
C462 C 0.82587 0.49392 0.67136 0.0
C463 C 0.80534 0.53074 0.64911 0.0
H464 H 0.79555 0.54817 0.65705 0.0
H465 H 0.81809 0.53597 0.63348 0.0
H466 H 0.79075 0.51632 0.64066 0.0
O467 O 0.81596 0.57491 0.73223 0.0
O468 O 0.83736 0.54941 0.75732 0.0
H469 H 0.85028 0.471 0.72526 0.0
H470 H 0.842 0.45202 0.69577 0.0
C471 C 0.85193 0.46995 0.70408 0.0
H472 H 0.87253 0.46894 0.69915 0.0
H473 H 0.85499 0.5025 0.78433 0.0
O474 O 0.82277 0.58977 0.67105 0.0
C475 C 0.81977 0.56551 0.75385 0.0
Co476 Co -0.00146 0.34869 0.7222 0.0
Co477 Co 0.03541 0.37985 0.76195 0.0
C478 C 0.9841 0.39927 0.75054 0.0
O479 O 0.97941 0.37913 0.73568 0.0
O480 O 0.00582 0.40297 0.76203 0.0
C481 C 0.97353 0.35545 0.67792 0.0
O482 O 0.98486 0.37784 0.68488 0.0
C483 C 0.06855 0.4229 0.77921 0.0
C484 C 0.09633 0.40701 0.80596 0.0
C485 C 0.09052 0.42911 0.79413 0.0
N486 N 0.06157 0.3984 0.78211 0.0
N487 N 0.07784 0.38909 0.79862 0.0
C488 C 0.0566 0.43862 0.75951 0.0
H489 H 0.04626 0.426 0.74424 0.0
H490 H 0.07141 0.45053 0.75063 0.0
H491 H 0.04258 0.45171 0.76906 0.0
C492 C 0.04515 0.34851 0.69102 0.0
N493 N 0.0322 0.35688 0.71203 0.0
N494 N 0.04795 0.37052 0.72827 0.0
C495 C 0.0715 0.37155 0.71778 0.0
C496 C 0.0704 0.35769 0.69383 0.0
C497 C 0.03388 0.33076 0.66938 0.0
H498 H 0.02137 0.3158 0.67711 0.0
H499 H 0.02186 0.34198 0.65672 0.0
H500 H 0.04904 0.32142 0.65757 0.0
O501 O 0.00057 0.32413 0.7491 0.0
O502 O 0.025 0.34812 0.77826 0.0
H503 H 0.11287 0.37839 0.72044 0.0
H504 H 0.09375 0.40415 0.73411 0.0
C505 C 0.09531 0.38296 0.73144 0.0
H506 H 0.09721 0.37547 0.75065 0.0
H507 H 0.07721 0.37013 0.80365 0.0
O508 O 0.97759 0.33652 0.69127 0.0
C509 C 0.01179 0.32763 0.77122 0.0
Co510 Co 0.19551 0.52582 0.72978 0.0
Co511 Co 0.1778 0.56609 0.7733 0.0
C512 C 0.1553 0.5123 0.76619 0.0
O513 O 0.16944 0.5066 0.74718 0.0
O514 O 0.15591 0.53478 0.77772 0.0
C515 C 0.18669 0.49505 0.68422 0.0
O516 O 0.16279 0.49931 0.69074 0.0
C517 C 0.14033 0.60283 0.78989 0.0
C518 C 0.16236 0.63128 0.81592 0.0
C519 C 0.13868 0.62672 0.80328 0.0
N520 N 0.16378 0.5937 0.79421 0.0
N521 N 0.17665 0.61036 0.81055 0.0
C522 C 0.12194 0.59144 0.76921 0.0
H523 H 0.12849 0.57253 0.76093 0.0
H524 H 0.12033 0.60472 0.7537 0.0
H525 H 0.10251 0.58913 0.77728 0.0
C526 C 0.19161 0.56997 0.69953 0.0
N527 N 0.18505 0.55816 0.72053 0.0
N528 N 0.17936 0.57564 0.73902 0.0
C529 C 0.18309 0.5992 0.73058 0.0
C530 C 0.19103 0.59629 0.70539 0.0
C531 C 0.20143 0.55652 0.67537 0.0
H532 H 0.21963 0.54687 0.6797 0.0
H533 H 0.18693 0.54186 0.6675 0.0
H534 H 0.20486 0.57 0.66035 0.0
O535 O 0.22571 0.5311 0.75295 0.0
O536 O 0.21353 0.5601 0.78399 0.0
H537 H 0.19635 0.62026 0.76558 0.0
H538 H 0.1946 0.63953 0.73855 0.0
C539 C 0.18514 0.62356 0.74788 0.0
H540 H 0.16552 0.62939 0.75316 0.0
H541 H 0.1959 0.60854 0.81613 0.0
O542 O 0.20497 0.50454 0.69888 0.0
C543 C 0.23032 0.54546 0.77357 0.0
Co544 Co 0.02811 0.37039 0.36908 0.0
Co545 Co 0.06893 0.33399 0.39031 0.0
C546 C 0.02468 0.35137 0.42123 0.0
O547 O 0.01655 0.36526 0.40404 0.0
O548 O 0.04476 0.33837 0.41812 0.0
C549 C 0.00687 0.41853 0.37122 0.0
O550 O 0.02225 0.42114 0.3917 0.0
C551 C 0.10658 0.32274 0.42768 0.0
C552 C 0.13028 0.29265 0.40852 0.0
C553 C 0.12756 0.30773 0.43139 0.0
N554 N 0.09685 0.31665 0.40395 0.0
N555 N 0.11075 0.29833 0.39256 0.0
C556 C 0.09784 0.34491 0.44517 0.0
H557 H 0.08334 0.33774 0.45835 0.0
H558 H 0.08884 0.35956 0.43382 0.0
H559 H 0.11417 0.35406 0.45697 0.0
C560 C 0.07534 0.39806 0.35522 0.0
N561 N 0.06318 0.37973 0.3675 0.0
N562 N 0.08041 0.3651 0.37749 0.0
C563 C 0.10414 0.37419 0.37253 0.0
C564 C 0.10158 0.39507 0.35802 0.0
C565 C 0.06217 0.41771 0.34056 0.0
H566 H 0.04489 0.40893 0.33007 0.0
H567 H 0.05611 0.43368 0.35425 0.0
H568 H 0.07518 0.42593 0.32661 0.0
O569 O 0.02212 0.33835 0.34735 0.0
O570 O 0.05139 0.31247 0.36268 0.0
H571 H 0.12874 0.34193 0.37188 0.0
H572 H 0.14582 0.3726 0.37304 0.0
C573 C 0.12879 0.36223 0.38006 0.0
H574 H 0.13032 0.36246 0.40131 0.0
H575 H 0.1075 0.29045 0.37368 0.0
O576 O 0.00639 0.39745 0.35716 0.0
C577 C 0.03288 0.31666 0.34727 0.0
Co578 Co 0.23789 0.57645 0.4024 0.0
Co579 Co 0.21477 0.53558 0.36066 0.0
C580 C 0.18933 0.58497 0.37087 0.0
O581 O 0.20792 0.59228 0.38612 0.0
O582 O 0.18793 0.56207 0.3606 0.0
C583 C 0.22046 0.59977 0.44552 0.0
O584 O 0.20144 0.58472 0.43564 0.0
C585 C 0.17745 0.49622 0.3453 0.0
C586 C 0.19765 0.46888 0.31878 0.0
C587 C 0.17523 0.47192 0.33253 0.0
N588 N 0.20042 0.50667 0.34025 0.0
N589 N 0.21219 0.49065 0.32373 0.0
C590 C 0.15879 0.50896 0.36344 0.0
H591 H 0.15344 0.52766 0.3565 0.0
H592 H 0.16809 0.51284 0.3828 0.0
H593 H 0.14077 0.49732 0.36471 0.0
C594 C 0.23776 0.53057 0.43347 0.0
N595 N 0.23224 0.54221 0.41179 0.0
N596 N 0.22396 0.52473 0.3937 0.0
C597 C 0.22499 0.50136 0.40302 0.0
C598 C 0.23299 0.50425 0.42866 0.0
C599 C 0.24736 0.54438 0.45828 0.0
H600 H 0.26156 0.55976 0.45444 0.0
H601 H 0.23091 0.55339 0.46838 0.0
H602 H 0.25637 0.53108 0.47113 0.0
O603 O 0.26552 0.57704 0.37613 0.0
O604 O 0.24559 0.5504 0.34549 0.0
H605 H 0.23201 0.47793 0.36837 0.0
H606 H 0.23146 0.46054 0.39687 0.0
C607 C 0.22254 0.47629 0.38699 0.0
H608 H 0.20202 0.47127 0.38337 0.0
H609 H 0.23087 0.4937 0.31741 0.0
O610 O 0.24216 0.59932 0.43453 0.0
C611 C 0.2641 0.56594 0.35326 0.0
Co612 Co 0.00095 0.72529 0.37805 0.0
Co613 Co 0.05047 0.70038 0.35301 0.0
C614 C 0.00051 0.67201 0.35094 0.0
O615 O 0.98981 0.69163 0.36134 0.0
O616 O 0.02461 0.67177 0.34755 0.0
C617 C 0.96239 0.71582 0.41219 0.0
O618 O 0.97304 0.69331 0.4084 0.0
C619 C 0.09115 0.66292 0.34951 0.0
C620 C 0.12287 0.68365 0.33188 0.0
C621 C 0.11667 0.66084 0.34257 0.0
N622 N 0.08272 0.6859 0.34339 0.0
N623 N 0.10162 0.698 0.33236 0.0
C624 C 0.07601 0.64494 0.36476 0.0
H625 H 0.06162 0.65563 0.37649 0.0
H626 H 0.08887 0.63474 0.37758 0.0
H627 H 0.06561 0.63041 0.35131 0.0
C628 C 0.03723 0.73175 0.42326 0.0
N629 N 0.03158 0.72338 0.39854 0.0
N630 N 0.05236 0.71363 0.38801 0.0
C631 C 0.07196 0.71601 0.40556 0.0
C632 C 0.06297 0.72748 0.42837 0.0
C633 C 0.0186 0.74426 0.44144 0.0
H634 H 0.00716 0.75835 0.43153 0.0
H635 H 0.00518 0.72933 0.44786 0.0
H636 H 0.02873 0.75414 0.45862 0.0
O637 O 0.00709 0.74783 0.34965 0.0
O638 O 0.0414 0.72916 0.33164 0.0
H639 H 0.10582 0.71442 0.38289 0.0
H640 H 0.11235 0.71372 0.41687 0.0
C641 C 0.09876 0.7071 0.40085 0.0
H642 H 0.0986 0.6858 0.39884 0.0
H643 H 0.10041 0.71654 0.32634 0.0
O644 O 0.9716 0.73487 0.40115 0.0
C645 C 0.02419 0.74633 0.33236 0.0
Co646 Co 0.88653 0.55593 0.35066 0.0
Co647 Co 0.85448 0.51232 0.37435 0.0
C648 C 0.85491 0.56631 0.39766 0.0
O649 O 0.86982 0.57371 0.38059 0.0
O650 O 0.84788 0.54284 0.39801 0.0
C651 C 0.93003 0.58766 0.35534 0.0
O652 O 0.93124 0.57691 0.37724 0.0
C653 C 0.84342 0.47867 0.41397 0.0
C654 C 0.82418 0.44464 0.39304 0.0
C655 C 0.83411 0.45402 0.417 0.0
N656 N 0.83988 0.48343 0.38929 0.0
N657 N 0.8278 0.46329 0.37692 0.0
C658 C 0.85585 0.4976 0.43396 0.0
H659 H 0.84272 0.51384 0.43757 0.0
H660 H 0.87406 0.50552 0.42666 0.0
H661 H 0.8595 0.4892 0.45249 0.0
C662 C 0.92722 0.51675 0.35329 0.0
N663 N 0.90347 0.52551 0.35843 0.0
N664 N 0.89013 0.5076 0.36916 0.0
C665 C 0.90507 0.48711 0.37141 0.0
C666 C 0.92893 0.49242 0.36166 0.0
C667 C 0.94686 0.52966 0.33779 0.0
H668 H 0.93736 0.54156 0.32387 0.0
H669 H 0.95997 0.54204 0.3509 0.0
H670 H 0.95879 0.51519 0.32715 0.0
O671 O 0.85987 0.54729 0.32396 0.0
O672 O 0.83744 0.51589 0.34072 0.0
H673 H 0.87896 0.45467 0.3714 0.0
H674 H 0.91163 0.44779 0.38043 0.0
C675 C 0.89659 0.4625 0.38192 0.0
H676 H 0.89233 0.46646 0.40248 0.0
H677 H 0.82325 0.46175 0.35724 0.0
O678 O 0.9116 0.58139 0.33943 0.0
C679 C 0.84153 0.53051 0.32273 0.0
Co680 Co 0.17939 0.72708 0.53982 0.0
Co681 Co 0.21921 0.70436 0.57728 0.0
C682 C 0.20068 0.67491 0.52883 0.0
O683 O 0.18553 0.69246 0.52331 0.0
O684 O 0.21446 0.67707 0.54928 0.0
C685 C 0.1318 0.72481 0.51471 0.0
O686 O 0.13138 0.70316 0.52596 0.0
C687 C 0.2206 0.67221 0.61775 0.0
C688 C 0.25817 0.67979 0.63805 0.0
C689 C 0.23467 0.6667 0.63923 0.0
N690 N 0.23453 0.68848 0.60479 0.0
N691 N 0.25718 0.69283 0.6167 0.0
C692 C 0.19388 0.66268 0.60975 0.0
H693 H 0.19053 0.66366 0.5888 0.0
H694 H 0.17962 0.67499 0.61994 0.0
H695 H 0.19065 0.64259 0.61479 0.0
C696 C 0.15413 0.74148 0.58895 0.0
N697 N 0.17119 0.72764 0.57487 0.0
N698 N 0.1897 0.72076 0.59024 0.0
C699 C 0.18603 0.73133 0.61423 0.0
C700 C 0.16316 0.74443 0.61443 0.0
C701 C 0.13016 0.75214 0.57794 0.0
H702 H 0.13528 0.76946 0.56792 0.0
H703 H 0.12082 0.73767 0.56382 0.0
H704 H 0.11601 0.75718 0.59297 0.0
O705 O 0.21188 0.74827 0.53805 0.0
O706 O 0.24032 0.73051 0.56396 0.0
H707 H 0.22587 0.7345 0.62662 0.0
H708 H 0.20429 0.75121 0.64824 0.0
C709 C 0.20654 0.73361 0.6351 0.0
H710 H 0.2052 0.71667 0.64657 0.0
H711 H 0.27148 0.70534 0.61086 0.0
O712 O 0.15109 0.74024 0.51888 0.0
C713 C 0.23443 0.747 0.54826 0.0
Co714 Co 0.23328 0.38592 0.53239 0.0
Co715 Co 0.2059 0.35122 0.57225 0.0
C716 C 0.19137 0.34689 0.51644 0.0
O717 O 0.20795 0.36405 0.51169 0.0
O718 O 0.18787 0.34075 0.53919 0.0
C719 C 0.22514 0.42298 0.49801 0.0
O720 O 0.20181 0.41472 0.50298 0.0
C721 C 0.16157 0.34326 0.60402 0.0
C722 C 0.17676 0.3203 0.6344 0.0
C723 C 0.15527 0.3335 0.62712 0.0
N724 N 0.1859 0.33697 0.59844 0.0
N725 N 0.1947 0.32274 0.61639 0.0
C726 C 0.14495 0.3587 0.58754 0.0
H727 H 0.14897 0.35403 0.56694 0.0
H728 H 0.14933 0.37952 0.59208 0.0
H729 H 0.12421 0.35487 0.59086 0.0
C730 C 0.21851 0.42672 0.57249 0.0
N731 N 0.21874 0.40192 0.56262 0.0
N732 N 0.20888 0.38719 0.57947 0.0
C733 C 0.20319 0.40196 0.60084 0.0
C734 C 0.20813 0.42732 0.5967 0.0
C735 C 0.22889 0.44922 0.55957 0.0
H736 H 0.24766 0.44448 0.55092 0.0
H737 H 0.21521 0.45363 0.54399 0.0
H738 H 0.23136 0.46656 0.57332 0.0
O739 O 0.26046 0.36114 0.54157 0.0
O740 O 0.24079 0.33753 0.5699 0.0
H741 H 0.20688 0.37351 0.62833 0.0
H742 H 0.20558 0.40602 0.64238 0.0
C743 C 0.19782 0.39226 0.62652 0.0
H744 H 0.17678 0.39046 0.62898 0.0
H745 H 0.21336 0.31582 0.61706 0.0
O746 O 0.24424 0.41321 0.50916 0.0
C747 C 0.2603 0.3429 0.55665 0.0
Co748 Co 0.83417 0.68954 0.50452 0.0
Co749 Co 0.86994 0.72404 0.54257 0.0
C750 C 0.88384 0.71411 0.48805 0.0
O751 O 0.86341 0.70046 0.4837 0.0
O752 O 0.88912 0.72451 0.51039 0.0
C753 C 0.83604 0.6435 0.47786 0.0
O754 O 0.85752 0.64576 0.49176 0.0
C755 C 0.91744 0.7311 0.57122 0.0
C756 C 0.90998 0.7616 0.60179 0.0
C757 C 0.92842 0.74448 0.59288 0.0
N758 N 0.8935 0.73948 0.56773 0.0
N759 N 0.88924 0.75813 0.5857 0.0
C760 C 0.92921 0.71044 0.55393 0.0
H761 H 0.93207 0.71771 0.53478 0.0
H762 H 0.91587 0.69342 0.55116 0.0
H763 H 0.94823 0.70478 0.56137 0.0
C764 C 0.83571 0.65577 0.54759 0.0
N765 N 0.84446 0.67633 0.53592 0.0
N766 N 0.85976 0.69066 0.55204 0.0
C767 C 0.86103 0.67967 0.57462 0.0
C768 C 0.84605 0.65711 0.57238 0.0
C769 C 0.8152 0.63704 0.53661 0.0
H770 H 0.80202 0.64647 0.52349 0.0
H771 H 0.82439 0.62077 0.52562 0.0
H772 H 0.80393 0.62912 0.55213 0.0
O773 O 0.81132 0.71908 0.51373 0.0
O774 O 0.83823 0.7439 0.53996 0.0
H775 H 0.86931 0.71159 0.60236 0.0
H776 H 0.87088 0.68059 0.61541 0.0
C777 C 0.87491 0.69131 0.59841 0.0
H778 H 0.89588 0.69099 0.59529 0.0
H779 H 0.87189 0.76769 0.5876 0.0
O780 O 0.8195 0.66108 0.48054 0.0
C781 C 0.81631 0.73956 0.52852 0.0
Co782 Co 0.85058 0.36588 0.57213 0.0
Co783 Co 0.8888 0.33518 0.53742 0.0
C784 C 0.90165 0.35126 0.5923 0.0
O785 O 0.88084 0.36321 0.5949 0.0
O786 O 0.9069 0.33907 0.57118 0.0
C787 C 0.84277 0.4117 0.59621 0.0
O788 O 0.86578 0.41332 0.58638 0.0
C789 C 0.93524 0.33682 0.5098 0.0
C790 C 0.93501 0.2998 0.48594 0.0
C791 C 0.94879 0.32282 0.49137 0.0
N792 N 0.91414 0.32301 0.51485 0.0
N793 N 0.91417 0.3007 0.50088 0.0
C794 C 0.94236 0.36287 0.52275 0.0
H795 H 0.93326 0.36571 0.54172 0.0
H796 H 0.93547 0.37806 0.51083 0.0
H797 H 0.96361 0.36523 0.52512 0.0
C798 C 0.84723 0.39607 0.52641 0.0
N799 N 0.85858 0.37841 0.54013 0.0
N800 N 0.87495 0.36551 0.52553 0.0
C801 C 0.87427 0.37433 0.50191 0.0
C802 C 0.85709 0.39417 0.50195 0.0
C803 C 0.82615 0.41317 0.53595 0.0
H804 H 0.81271 0.40244 0.54765 0.0
H805 H 0.83475 0.42978 0.54812 0.0
H806 H 0.81518 0.42095 0.52 0.0
O807 O 0.83342 0.33173 0.5652 0.0
O808 O 0.86018 0.31056 0.53838 0.0
H809 H 0.88468 0.33983 0.47951 0.0
H810 H 0.8748 0.36546 0.46066 0.0
C811 C 0.88546 0.36095 0.47837 0.0
H812 H 0.90574 0.36747 0.4767 0.0
H813 H 0.89972 0.28643 0.50109 0.0
O814 O 0.82963 0.39084 0.59205 0.0
C815 C 0.83936 0.3119 0.55076 0.0
Co816 Co 0.50331 0.19654 0.72268 0.0
Co817 Co 0.54232 0.23398 0.69922 0.0
C818 C 0.49536 0.21343 0.67035 0.0
O819 O 0.48957 0.1994 0.68813 0.0
O820 O 0.51495 0.22851 0.6723 0.0
C821 C 0.48031 0.14879 0.72135 0.0
O822 O 0.49622 0.14531 0.70224 0.0
C823 C 0.57985 0.2412 0.66133 0.0
C824 C 0.60705 0.27084 0.67963 0.0
C825 C 0.60356 0.25316 0.65839 0.0
N826 N 0.57022 0.25051 0.6837 0.0
N827 N 0.58615 0.26878 0.69431 0.0
C828 C 0.56659 0.2205 0.64372 0.0
H829 H 0.54738 0.22711 0.6379 0.0
H830 H 0.56368 0.20295 0.6541 0.0
H831 H 0.5773 0.2159 0.62589 0.0
C832 C 0.55053 0.16985 0.735 0.0
N833 N 0.53788 0.18797 0.7232 0.0
N834 N 0.55451 0.20308 0.71257 0.0
C835 C 0.57843 0.19455 0.71696 0.0
C836 C 0.57652 0.17336 0.73119 0.0
C837 C 0.53812 0.15025 0.75053 0.0
H838 H 0.5215 0.1586 0.76086 0.0
H839 H 0.53121 0.1335 0.73748 0.0
H840 H 0.55191 0.14317 0.7647 0.0
O841 O 0.49963 0.22882 0.74343 0.0
O842 O 0.52803 0.25592 0.72762 0.0
H843 H 0.60266 0.22833 0.71709 0.0
H844 H 0.62005 0.19904 0.71876 0.0
C845 C 0.60294 0.20771 0.71012 0.0
H846 H 0.60466 0.20604 0.68897 0.0
H847 H 0.58362 0.27855 0.71231 0.0
O848 O 0.48114 0.16998 0.73517 0.0
C849 C 0.51061 0.25092 0.74348 0.0
Co850 Co 0.33735 0.0768 0.6934 0.0
Co851 Co 0.36415 0.03353 0.72369 0.0
C852 C 0.39164 0.08172 0.71497 0.0
O853 O 0.37183 0.09049 0.7044 0.0
O854 O 0.39183 0.05925 0.72245 0.0
C855 C 0.33822 0.10241 0.64795 0.0
O856 O 0.35725 0.08656 0.64407 0.0
C857 C 0.40141 0.99294 0.72784 0.0
C858 C 0.38911 0.97374 0.76185 0.0
C859 C 0.40746 0.97322 0.74298 0.0
N860 N 0.38032 0.00454 0.73712 0.0
N861 N 0.37313 0.99306 0.75758 0.0
C862 C 0.41623 0.00151 0.70567 0.0
H863 H 0.43435 0.01152 0.71311 0.0
H864 H 0.40484 0.0149 0.69476 0.0
H865 H 0.42156 0.98469 0.69266 0.0
C866 C 0.32616 0.03141 0.65649 0.0
N867 N 0.33792 0.04267 0.67801 0.0
N868 N 0.34853 0.02472 0.69088 0.0
C869 C 0.34358 0.00162 0.67806 0.0
C870 C 0.3294 0.00523 0.65597 0.0
C871 C 0.31021 0.04484 0.63773 0.0
H872 H 0.30031 0.06122 0.64774 0.0
H873 H 0.32284 0.0521 0.62292 0.0
H874 H 0.29562 0.03133 0.62777 0.0
O875 O 0.31583 0.07549 0.72403 0.0
O876 O 0.3367 0.04709 0.74639 0.0
H877 H 0.34884 0.97587 0.70771 0.0
H878 H 0.34124 0.95988 0.67651 0.0
C879 C 0.35195 0.9764 0.68683 0.0
H880 H 0.37269 0.9741 0.68305 0.0
H881 H 0.35734 -0.00161 0.76862 0.0
O882 O 0.32533 0.1016 0.66838 0.0
C883 C 0.31853 0.06284 0.74386 0.0
Co884 Co 0.49422 0.84214 0.70108 0.0
Co885 Co 0.5338 0.87214 0.73911 0.0
C886 C 0.48394 0.89505 0.72805 0.0
O887 O 0.47768 0.87474 0.71395 0.0
O888 O 0.50601 0.89757 0.73909 0.0
C889 C 0.46723 0.84936 0.65736 0.0
O890 O 0.48068 0.8709 0.66268 0.0
C891 C 0.57157 0.91226 0.75395 0.0
C892 C 0.59798 0.89398 0.78034 0.0
C893 C 0.5947 0.91607 0.76763 0.0
N894 N 0.56176 0.88897 0.75816 0.0
N895 N 0.57722 0.87836 0.77451 0.0
C896 C 0.56083 0.92861 0.73415 0.0
H897 H 0.54795 0.91696 0.72017 0.0
H898 H 0.57651 0.93772 0.72367 0.0
H899 H 0.54951 0.94412 0.74393 0.0
C900 C 0.54008 0.83963 0.66754 0.0
N901 N 0.52827 0.84768 0.68947 0.0
N902 N 0.54507 0.86049 0.70529 0.0
C903 C 0.56814 0.86099 0.69374 0.0
C904 C 0.56572 0.84795 0.66945 0.0
C905 C 0.52695 0.82456 0.64508 0.0
H906 H 0.51295 0.81039 0.65193 0.0
H907 H 0.51627 0.83794 0.63352 0.0
H908 H 0.54103 0.81444 0.63251 0.0
O909 O 0.4953 0.81844 0.72963 0.0
O910 O 0.52155 0.84223 0.75721 0.0
H911 H 0.59454 0.86638 0.72609 0.0
H912 H 0.60976 0.86501 0.69539 0.0
C913 C 0.59275 0.87197 0.70613 0.0
H914 H 0.59279 0.89323 0.70645 0.0
H915 H 0.57448 0.85982 0.7803 0.0
O916 O 0.47088 0.83064 0.67117 0.0
C917 C 0.50703 0.82236 0.75154 0.0
Co918 Co 0.72158 -0.00527 0.7112 0.0
Co919 Co 0.69478 0.04118 0.74028 0.0
C920 C 0.67174 0.98901 0.73929 0.0
O921 O 0.69042 0.9803 0.72626 0.0
O922 O 0.67016 0.01291 0.7457 0.0
C923 C 0.71622 0.96523 0.66576 0.0
O924 O 0.69663 0.98062 0.66497 0.0
C925 C 0.65672 0.07973 0.74972 0.0
C926 C 0.67878 0.11193 0.77085 0.0
C927 C 0.65493 0.10506 0.75952 0.0
N928 N 0.68068 0.07213 0.75441 0.0
N929 N 0.69367 0.09118 0.76764 0.0
C930 C 0.63648 0.06302 0.73516 0.0
H931 H 0.63082 0.04719 0.74701 0.0
H932 H 0.64451 0.05404 0.71716 0.0
H933 H 0.61901 0.0738 0.73075 0.0
C934 C 0.72821 0.03354 0.67387 0.0
N935 N 0.71627 0.02507 0.69437 0.0
N936 N 0.7029 0.0438 0.70543 0.0
C937 C 0.70533 0.06456 0.6918 0.0
C938 C 0.72159 0.05878 0.67157 0.0
C939 C 0.7493 0.01962 0.65997 0.0
H940 H 0.75864 0.00621 0.67251 0.0
H941 H 0.74098 0.00847 0.64257 0.0
H942 H 0.76409 0.03335 0.65369 0.0
O943 O 0.74744 0.00308 0.7389 0.0
O944 O 0.72764 0.03655 0.75856 0.0
H945 H 0.70401 0.09915 0.71678 0.0
H946 H 0.69587 0.10334 0.68353 0.0
C947 C 0.69411 0.09018 0.69909 0.0
H948 H 0.67344 0.08743 0.70278 0.0
H949 H 0.71306 0.09049 0.77322 0.0
O950 O 0.73156 0.9673 0.68523 0.0
C951 C 0.7466 0.02157 0.75643 0.0
Co952 Co 0.49398 0.86382 0.34604 0.0
Co953 Co 0.53366 0.82437 0.3647 0.0
C954 C 0.48949 0.84049 0.39596 0.0
O955 O 0.48184 0.85594 0.38006 0.0
O956 O 0.50928 0.82738 0.39198 0.0
C957 C 0.47937 0.91262 0.35637 0.0
O958 O 0.49566 0.90869 0.37523 0.0
C959 C 0.57129 0.81515 0.40236 0.0
C960 C 0.5958 0.78467 0.38523 0.0
C961 C 0.59326 0.80173 0.40682 0.0
N962 N 0.56134 0.80688 0.37915 0.0
N963 N 0.5757 0.78825 0.36905 0.0
C964 C 0.55996 0.8362 0.41959 0.0
H965 H 0.54263 0.82835 0.42856 0.0
H966 H 0.55393 0.85212 0.40811 0.0
H967 H 0.57328 0.84382 0.43544 0.0
C968 C 0.54228 0.89062 0.33367 0.0
N969 N 0.52947 0.87193 0.34495 0.0
N970 N 0.54614 0.85598 0.3537 0.0
C971 C 0.57014 0.86437 0.34873 0.0
C972 C 0.56836 0.88646 0.33591 0.0
C973 C 0.52986 0.9114 0.31995 0.0
H974 H 0.51187 0.90388 0.30984 0.0
H975 H 0.52518 0.92746 0.3342 0.0
H976 H 0.5429 0.91922 0.3058 0.0
O977 O 0.48666 0.83325 0.32191 0.0
O978 O 0.51499 0.80537 0.33593 0.0
H979 H 0.59182 0.83 0.34543 0.0
H980 H 0.61119 0.85917 0.34493 0.0
C981 C 0.59422 0.85023 0.35362 0.0
H982 H 0.5978 0.85035 0.37463 0.0
H983 H 0.57253 0.7789 0.35073 0.0
O984 O 0.47472 0.89452 0.33885 0.0
C985 C 0.49653 0.811 0.32092 0.0
Co986 Co 0.72586 0.05825 0.37036 0.0
Co987 Co 0.6956 0.0166 0.33476 0.0
C988 C 0.67452 0.06847 0.3448 0.0
O989 O 0.69461 0.07524 0.35828 0.0
O990 O 0.67128 0.04546 0.33506 0.0
C991 C 0.72455 0.08369 0.41782 0.0
O992 O 0.70378 0.06871 0.41734 0.0
C993 C 0.65402 0.98005 0.32204 0.0
C994 C 0.67178 0.94939 0.29723 0.0
C995 C 0.64941 0.95567 0.31 0.0
N996 N 0.67817 0.9876 0.31725 0.0
N997 N 0.68855 0.96953 0.30184 0.0
C998 C 0.63642 -0.00441 0.33914 0.0
H999 H 0.63119 0.01307 0.32966 0.0
H1000 H 0.64661 0.00205 0.35759 0.0
H1001 H 0.61837 0.98484 0.34284 0.0
C1002 C 0.7301 0.01493 0.40344 0.0
N1003 N 0.72005 0.0256 0.38284 0.0
N1004 N 0.70661 0.00799 0.36836 0.0
C1005 C 0.70731 0.98559 0.37972 0.0
C1006 C 0.72206 0.98933 0.40238 0.0
C1007 C 0.75024 0.02767 0.4216 0.0
H1008 H 0.76156 0.04225 0.41199 0.0
H1009 H 0.74076 0.03721 0.43852 0.0
H1010 H 0.76354 0.0133 0.42863 0.0
O1011 O 0.7495 0.05405 0.34177 0.0
O1012 O 0.72653 0.02597 0.31512 0.0
H1013 H 0.70312 0.95461 0.3503 0.0
H1014 H 0.69591 0.94549 0.38217 0.0
C1015 C 0.69448 0.96096 0.36891 0.0
H1016 H 0.67391 0.96445 0.36555 0.0
H1017 H 0.70755 0.97026 0.29578 0.0
O1018 O 0.73913 0.08254 0.39856 0.0
C1019 C 0.74645 0.04051 0.32038 0.0
Co1020 Co 0.51267 0.22831 0.38382 0.0
Co1021 Co 0.54777 0.19605 0.34529 0.0
C1022 C 0.49714 0.17561 0.3593 0.0
O1023 O 0.49399 0.19632 0.37309 0.0
O1024 O 0.51756 0.17201 0.34677 0.0
C1025 C 0.48923 0.22459 0.42946 0.0
O1026 O 0.50337 0.20404 0.42692 0.0
C1027 C 0.58075 0.15289 0.33303 0.0
C1028 C 0.60901 0.16838 0.30698 0.0
C1029 C 0.60338 0.14716 0.32048 0.0
N1030 N 0.57354 0.17647 0.32751 0.0
N1031 N 0.59013 0.18536 0.31134 0.0
C1032 C 0.56831 0.13802 0.35302 0.0
H1033 H 0.55813 0.15112 0.36696 0.0
H1034 H 0.58277 0.12721 0.36348 0.0
H1035 H 0.55401 0.12399 0.34341 0.0
C1036 C 0.56013 0.23023 0.41615 0.0
N1037 N 0.54652 0.22199 0.39462 0.0
N1038 N 0.56145 0.20855 0.37877 0.0
C1039 C 0.58519 0.20809 0.3899 0.0
C1040 C 0.58494 0.22167 0.41385 0.0
C1041 C 0.55015 0.24721 0.43801 0.0
H1042 H 0.53548 0.26017 0.4309 0.0
H1043 H 0.54119 0.23507 0.45206 0.0
H1044 H 0.56609 0.25886 0.44812 0.0
O1045 O 0.5144 0.25032 0.35487 0.0
O1046 O 0.53768 0.2266 0.32664 0.0
H1047 H 0.62601 0.20015 0.38918 0.0
H1048 H 0.60482 0.17388 0.37772 0.0
C1049 C 0.60788 0.19499 0.3781 0.0
H1050 H 0.61011 0.20047 0.35821 0.0
H1051 H 0.58955 0.20369 0.30471 0.0
O1052 O 0.49114 0.24119 0.41293 0.0
C1053 C 0.52498 0.24676 0.33304 0.0
Co1054 Co 0.37718 0.06381 0.34973 0.0
Co1055 Co 0.34286 0.02141 0.37279 0.0
C1056 C 0.33973 0.07588 0.39262 0.0
O1057 O 0.35588 0.08203 0.37607 0.0
O1058 O 0.33313 0.05247 0.3946 0.0
C1059 C 0.41575 0.09906 0.36195 0.0
O1060 O 0.40828 0.09256 0.38448 0.0
C1061 C 0.32735 0.98433 0.40873 0.0
C1062 C 0.30944 0.9528 0.38295 0.0
C1063 C 0.31709 0.95951 0.40826 0.0
N1064 N 0.32609 0.9919 0.38479 0.0
N1065 N 0.3147 0.97325 0.36955 0.0
C1066 C 0.34006 -0.00012 0.43117 0.0
H1067 H 0.35308 0.01503 0.42447 0.0
H1068 H 0.35098 0.98741 0.44355 0.0
H1069 H 0.32495 0.00931 0.443 0.0
C1070 C 0.4168 0.02567 0.35722 0.0
N1071 N 0.39305 0.03469 0.3615 0.0
N1072 N 0.37905 0.01724 0.37214 0.0
C1073 C 0.39367 -0.0033 0.37521 0.0
C1074 C 0.41792 0.00146 0.36603 0.0
C1075 C 0.43664 0.03827 0.3417 0.0
H1076 H 0.42725 0.04623 0.32486 0.0
H1077 H 0.44626 0.05439 0.35379 0.0
H1078 H 0.45153 0.02454 0.33502 0.0
O1079 O 0.35514 0.05316 0.3196 0.0
O1080 O 0.33085 0.02349 0.33689 0.0
H1081 H 0.3669 0.9646 0.37209 0.0
H1082 H 0.39888 0.95671 0.38247 0.0
C1083 C 0.38406 0.97167 0.38385 0.0
H1084 H 0.37883 0.97487 0.40424 0.0
H1085 H 0.31207 0.97381 0.3497 0.0
O1086 O 0.40451 0.08858 0.34172 0.0
C1087 C 0.33714 0.03603 0.31793 0.0
Co1088 Co 0.71192 0.21517 0.51416 0.0
Co1089 Co 0.74045 0.18359 0.55401 0.0
C1090 C 0.73032 0.16187 0.50088 0.0
O1091 O 0.72066 0.18276 0.49517 0.0
O1092 O 0.73789 0.15865 0.52362 0.0
C1093 C 0.66724 0.21392 0.48734 0.0
O1094 O 0.66684 0.19278 0.49945 0.0
C1095 C 0.74472 0.14256 0.58694 0.0
C1096 C 0.77716 0.15503 0.61363 0.0
C1097 C 0.75884 0.13539 0.60793 0.0
N1098 N 0.75424 0.16521 0.58056 0.0
N1099 N 0.7739 0.17248 0.59625 0.0
C1100 C 0.72083 0.12976 0.5746 0.0
H1101 H 0.70988 0.14348 0.56372 0.0
H1102 H 0.70833 0.1221 0.58933 0.0
H1103 H 0.72634 0.11351 0.56094 0.0
C1104 C 0.67752 0.22416 0.55818 0.0
N1105 N 0.69688 0.21143 0.54655 0.0
N1106 N 0.70861 0.19786 0.56329 0.0
C1107 C 0.69708 0.20148 0.58613 0.0
C1108 C 0.67702 0.2182 0.58358 0.0
C1109 C 0.66043 0.24226 0.54531 0.0
H1110 H 0.64573 0.23089 0.53314 0.0
H1111 H 0.65 0.25504 0.55923 0.0
H1112 H 0.67197 0.25414 0.53288 0.0
O1113 O 0.7437 0.23592 0.52018 0.0
O1114 O 0.76379 0.21259 0.54837 0.0
H1115 H 0.69817 0.20203 0.62779 0.0
H1116 H 0.70357 0.17128 0.61068 0.0
C1117 C 0.70732 0.19231 0.61076 0.0
H1118 H 0.7284 0.19613 0.6125 0.0
H1119 H 0.78456 0.18965 0.59556 0.0
O1120 O 0.68651 0.22945 0.4909 0.0
C1121 C 0.76284 0.23191 0.53496 0.0
Co1122 Co 0.68935 0.83613 0.56579 0.0
Co1123 Co 0.72425 0.86698 0.52909 0.0
C1124 C 0.71582 0.88751 0.58197 0.0
O1125 O 0.70415 0.86675 0.58639 0.0
O1126 O 0.72316 0.89149 0.55962 0.0
C1127 C 0.64622 0.84516 0.59399 0.0
O1128 O 0.65145 0.86666 0.58344 0.0
C1129 C 0.7314 0.90725 0.49453 0.0
C1130 C 0.76399 0.89424 0.47086 0.0
C1131 C 0.74594 0.9134 0.47373 0.0
N1132 N 0.74028 0.88552 0.50327 0.0
N1133 N 0.76008 0.87804 0.48935 0.0
C1134 C 0.70757 0.91991 0.50429 0.0
H1135 H 0.69629 0.90687 0.51581 0.0
H1136 H 0.6954 0.92564 0.48804 0.0
H1137 H 0.71316 0.93744 0.5169 0.0
C1138 C 0.65589 0.83189 0.51918 0.0
N1139 N 0.67612 0.8431 0.53287 0.0
N1140 N 0.69135 0.85449 0.51719 0.0
C1141 C 0.68178 0.85021 0.49296 0.0
C1142 C 0.65891 0.83599 0.49343 0.0
C1143 C 0.63517 0.81618 0.53051 0.0
H1144 H 0.6438 0.79923 0.53859 0.0
H1145 H 0.6263 0.82787 0.54645 0.0
H1146 H 0.61974 0.80975 0.5162 0.0
O1147 O 0.71811 0.81163 0.55924 0.0
O1148 O 0.74381 0.8364 0.53682 0.0
H1149 H 0.71725 0.8503 0.47267 0.0
H1150 H 0.68945 0.84247 0.45231 0.0
C1151 C 0.69676 0.85475 0.46944 0.0
H1152 H 0.69535 0.87519 0.4653 0.0
H1153 H 0.77021 0.86134 0.49177 0.0
O1154 O 0.66008 0.82574 0.58811 0.0
C1155 C 0.73916 0.81567 0.54762 0.0
Co1156 Co 0.37135 0.22873 0.57023 0.0
Co1157 Co 0.33483 0.20356 0.52664 0.0
C1158 C 0.33895 0.18125 0.57743 0.0
O1159 O 0.35382 0.19987 0.58577 0.0
O1160 O 0.33058 0.17923 0.55424 0.0
C1161 C 0.41347 0.21627 0.59573 0.0
O1162 O 0.40565 0.19508 0.58208 0.0
C1163 C 0.32045 0.16274 0.48798 0.0
C1164 C 0.29808 0.18215 0.4591 0.0
C1165 C 0.3086 0.15874 0.46384 0.0
N1166 N 0.31721 0.18729 0.49699 0.0
N1167 N 0.30327 0.19869 0.47995 0.0
C1168 C 0.33799 0.14487 0.50059 0.0
H1169 H 0.35161 0.15578 0.51439 0.0
H1170 H 0.34908 0.13336 0.48605 0.0
H1171 H 0.32621 0.13141 0.51122 0.0
C1172 C 0.40802 0.22643 0.52764 0.0
N1173 N 0.38499 0.22028 0.53725 0.0
N1174 N 0.36996 0.20933 0.51862 0.0
C1175 C 0.38308 0.20819 0.49646 0.0
C1176 C 0.40762 0.21883 0.50162 0.0
C1177 C 0.42895 0.24218 0.54219 0.0
H1178 H 0.42053 0.25663 0.55611 0.0
H1179 H 0.44121 0.22931 0.55283 0.0
H1180 H 0.44139 0.25225 0.52897 0.0
O1181 O 0.34701 0.25669 0.56774 0.0
O1182 O 0.32051 0.23841 0.53658 0.0
H1183 H 0.35372 0.20771 0.46686 0.0
H1184 H 0.38552 0.20147 0.45496 0.0
C1185 C 0.3721 0.19819 0.47065 0.0
H1186 H 0.36822 0.17721 0.47052 0.0
H1187 H 0.29872 0.21811 0.48183 0.0
O1188 O 0.4009 0.2367 0.594 0.0
C1189 C 0.32735 0.2574 0.55268 0.0
Co1190 Co 0.33783 0.87238 0.56155 0.0
Co1191 Co 0.36761 0.83437 0.52581 0.0
C1192 C 0.38733 0.85067 0.5789 0.0
O1193 O 0.36852 0.86539 0.58276 0.0
O1194 O 0.38932 0.83734 0.55767 0.0
C1195 C 0.33759 0.91923 0.58513 0.0
O1196 O 0.36077 0.91703 0.57574 0.0
C1197 C 0.40968 0.82959 0.49287 0.0
C1198 C 0.4029 0.79247 0.46983 0.0
C1199 C 0.41904 0.81419 0.47273 0.0
N1200 N 0.38861 0.81797 0.50125 0.0
N1201 N 0.38477 0.79553 0.48783 0.0
C1202 C 0.42013 0.85542 0.50369 0.0
H1203 H 0.41563 0.85882 0.52431 0.0
H1204 H 0.41106 0.87076 0.49339 0.0
H1205 H 0.4413 0.85688 0.5013 0.0
C1206 C 0.33594 0.90136 0.51509 0.0
N1207 N 0.34553 0.88267 0.52871 0.0
N1208 N 0.35679 0.86567 0.51302 0.0
C1209 C 0.35388 0.87251 0.48874 0.0
C1210 C 0.341 0.89548 0.48935 0.0
C1211 C 0.32124 0.9238 0.52634 0.0
H1212 H 0.33454 0.9369 0.53842 0.0
H1213 H 0.31282 0.93534 0.51156 0.0
H1214 H 0.30564 0.91693 0.53843 0.0
O1215 O 0.31453 0.8419 0.55616 0.0
O1216 O 0.3367 0.81406 0.53102 0.0
H1217 H 0.34539 0.85965 0.44888 0.0
H1218 H 0.37841 0.85763 0.45907 0.0
C1219 C 0.35829 0.85507 0.46506 0.0
H1220 H 0.35479 0.83471 0.46891 0.0
H1221 H 0.36929 0.78286 0.49027 0.0
O1222 O 0.32153 0.9005 0.58131 0.0
C1223 C 0.31659 0.82016 0.54335 0.0
Co1224 Co 0.52152 0.68958 0.21147 0.0
Co1225 Co 0.55732 0.73741 0.20582 0.0
C1226 C 0.52019 0.71582 0.16383 0.0
O1227 O 0.51387 0.69653 0.17587 0.0
O1228 O 0.53676 0.73248 0.17332 0.0
C1229 C 0.47791 0.66155 0.21303 0.0
O1230 O 0.47085 0.68343 0.20456 0.0
C1231 C 0.60297 0.75229 0.18315 0.0
C1232 C 0.6115 0.79288 0.19693 0.0
C1233 C 0.62053 0.77229 0.18151 0.0
N1234 N 0.5847 0.76011 0.19928 0.0
N1235 N 0.58968 0.78442 0.20761 0.0
C1236 C 0.60252 0.72637 0.16828 0.0
H1237 H 0.60777 0.72833 0.14801 0.0
H1238 H 0.58329 0.71674 0.16874 0.0
H1239 H 0.61683 0.71398 0.17693 0.0
C1240 C 0.56937 0.66831 0.23008 0.0
N1241 N 0.55657 0.68655 0.2187 0.0
N1242 N 0.57123 0.70742 0.21876 0.0
C1243 C 0.59363 0.70358 0.23132 0.0
C1244 C 0.59329 0.67858 0.23886 0.0
C1245 C 0.55845 0.64181 0.23258 0.0
H1246 H 0.54682 0.64197 0.25017 0.0
H1247 H 0.54562 0.63573 0.21574 0.0
H1248 H 0.57398 0.62771 0.23386 0.0
O1249 O 0.50785 0.71817 0.23428 0.0
O1250 O 0.53363 0.75246 0.23012 0.0
H1251 H 0.60349 0.7434 0.24209 0.0
H1252 H 0.62295 0.72088 0.25787 0.0
C1253 C 0.61302 0.72462 0.23952 0.0
H1254 H 0.62769 0.7257 0.22451 0.0
H1255 H 0.57814 0.79527 0.22025 0.0
O1256 O 0.50155 0.65858 0.21824 0.0
C1257 C 0.51389 0.74191 0.23928 0.0
Co1258 Co 0.3422 0.57461 0.21455 0.0
Co1259 Co 0.37671 0.53825 0.24594 0.0
C1260 C 0.39898 0.58479 0.22702 0.0
O1261 O 0.37666 0.58961 0.21883 0.0
O1262 O 0.4031 0.56432 0.23783 0.0
C1263 C 0.3431 0.59354 0.1672 0.0
O1264 O 0.36178 0.577 0.16696 0.0
C1265 C 0.41641 0.5008 0.25242 0.0
C1266 C 0.40549 0.483 0.28769 0.0
C1267 C 0.42345 0.48217 0.26845 0.0
N1268 N 0.39521 0.51216 0.26161 0.0
N1269 N 0.38892 0.50166 0.28291 0.0
C1270 C 0.42984 0.50805 0.22887 0.0
H1271 H 0.44632 0.52137 0.23485 0.0
H1272 H 0.41656 0.518 0.21624 0.0
H1273 H 0.4376 0.49087 0.21806 0.0
C1274 C 0.33106 0.52554 0.18331 0.0
N1275 N 0.3431 0.53927 0.20329 0.0
N1276 N 0.35749 0.52388 0.21604 0.0
C1277 C 0.35475 0.49979 0.20445 0.0
C1278 C 0.33815 0.5002 0.18327 0.0
C1279 C 0.31291 0.53624 0.16447 0.0
H1280 H 0.30281 0.55289 0.17373 0.0
H1281 H 0.3239 0.54258 0.14803 0.0
H1282 H 0.29855 0.52122 0.15679 0.0
O1283 O 0.3257 0.5782 0.24856 0.0
O1284 O 0.35187 0.55416 0.27074 0.0
H1285 H 0.35917 0.45859 0.20405 0.0
H1286 H 0.38858 0.47751 0.20646 0.0
C1287 C 0.36837 0.47678 0.21274 0.0
H1288 H 0.36819 0.47666 0.23395 0.0
H1289 H 0.37302 0.50683 0.29386 0.0
O1290 O 0.32873 0.59564 0.18676 0.0
C1291 C 0.33265 0.5689 0.26955 0.0
Co1292 Co 0.50517 0.35083 0.21787 0.0
Co1293 Co 0.54777 0.37931 0.25334 0.0
C1294 C 0.49666 0.40203 0.24817 0.0
O1295 O 0.48932 0.38229 0.23376 0.0
O1296 O 0.51957 0.40424 0.25724 0.0
C1297 C 0.47496 0.35863 0.17686 0.0
O1298 O 0.48684 0.38096 0.18277 0.0
C1299 C 0.58542 0.42004 0.26617 0.0
C1300 C 0.61477 0.40195 0.28953 0.0
C1301 C 0.60935 0.42442 0.27818 0.0
N1302 N 0.57707 0.39617 0.27018 0.0
N1303 N 0.59438 0.38559 0.28469 0.0
C1304 C 0.57239 0.43668 0.24799 0.0
H1305 H 0.5589 0.42503 0.23463 0.0
H1306 H 0.58678 0.44677 0.23671 0.0
H1307 H 0.56133 0.45143 0.25925 0.0
C1308 C 0.54729 0.34858 0.18106 0.0
N1309 N 0.53745 0.3574 0.20367 0.0
N1310 N 0.55566 0.36973 0.21814 0.0
C1311 C 0.57774 0.36936 0.20485 0.0
C1312 C 0.57302 0.35606 0.18095 0.0
C1313 C 0.53276 0.3317 0.16073 0.0
H1314 H 0.5209 0.3171 0.16979 0.0
H1315 H 0.51968 0.34368 0.14994 0.0
H1316 H 0.54588 0.32189 0.14686 0.0
O1317 O 0.50956 0.32566 0.24387 0.0
O1318 O 0.53823 0.34761 0.27044 0.0
H1319 H 0.60697 0.37108 0.23465 0.0
H1320 H 0.61931 0.37269 0.20273 0.0
C1321 C 0.60355 0.37873 0.21571 0.0
H1322 H 0.60393 0.40003 0.21841 0.0
H1323 H 0.59297 0.36674 0.28996 0.0
O1324 O 0.48049 0.33959 0.18953 0.0
C1325 C 0.52353 0.32787 0.26446 0.0
Co1326 Co 0.72072 0.51308 0.21042 0.0
Co1327 Co 0.70397 0.55517 0.25261 0.0
C1328 C 0.67901 0.5029 0.24728 0.0
O1329 O 0.69372 0.49601 0.22907 0.0
O1330 O 0.67998 0.52575 0.25784 0.0
C1331 C 0.705 0.48509 0.16641 0.0
O1332 O 0.68341 0.49414 0.17562 0.0
C1333 C 0.66894 0.59362 0.27091 0.0
C1334 C 0.69352 0.62192 0.29462 0.0
C1335 C 0.66892 0.61781 0.28391 0.0
N1336 N 0.69237 0.58388 0.27361 0.0
N1337 N 0.70682 0.60046 0.2886 0.0
C1338 C 0.64863 0.58218 0.25217 0.0
H1339 H 0.65551 0.56469 0.2412 0.0
H1340 H 0.64301 0.59647 0.23855 0.0
H1341 H 0.6312 0.57715 0.26282 0.0
C1342 C 0.71835 0.55696 0.17876 0.0
N1343 N 0.71227 0.54596 0.20041 0.0
N1344 N 0.70581 0.56395 0.21808 0.0
C1345 C 0.70811 0.58708 0.20831 0.0
C1346 C 0.71609 0.58333 0.18316 0.0
C1347 C 0.72812 0.54268 0.15499 0.0
H1348 H 0.74478 0.53102 0.16005 0.0
H1349 H 0.71258 0.52965 0.14624 0.0
H1350 H 0.73379 0.55566 0.1402 0.0
O1351 O 0.75166 0.5167 0.23304 0.0
O1352 O 0.73918 0.54677 0.26299 0.0
H1353 H 0.71953 0.61123 0.24204 0.0
H1354 H 0.71611 0.62834 0.21375 0.0
C1355 C 0.70798 0.61238 0.22409 0.0
H1356 H 0.68788 0.61686 0.22895 0.0
H1357 H 0.72633 0.59812 0.29277 0.0
O1358 O 0.72591 0.49041 0.1791 0.0
C1359 C 0.75589 0.53146 0.25351 0.0
Co1360 Co 0.5074 0.37334 0.85876 0.0
Co1361 Co 0.54815 0.334 0.87397 0.0
C1362 C 0.50498 0.34844 0.90807 0.0
O1363 O 0.49646 0.3642 0.89284 0.0
O1364 O 0.52479 0.33553 0.90292 0.0
C1365 C 0.48769 0.42189 0.86681 0.0
O1366 O 0.50302 0.42174 0.88722 0.0
C1367 C 0.58742 0.3197 0.90822 0.0
C1368 C 0.61044 0.29137 0.88561 0.0
C1369 C 0.60885 0.30478 0.90959 0.0
N1370 N 0.57644 0.31516 0.88477 0.0
N1371 N 0.58994 0.29786 0.87133 0.0
C1372 C 0.57955 0.34077 0.92751 0.0
H1373 H 0.56947 0.35593 0.91779 0.0
H1374 H 0.5965 0.3496 0.93859 0.0
H1375 H 0.56623 0.33255 0.94122 0.0
C1376 C 0.55412 0.40227 0.84675 0.0
N1377 N 0.54243 0.38281 0.85775 0.0
N1378 N 0.55985 0.36651 0.86436 0.0
C1379 C 0.5833 0.3753 0.85793 0.0
C1380 C 0.58024 0.39814 0.8466 0.0
C1381 C 0.54047 0.42251 0.83329 0.0
H1382 H 0.52302 0.41405 0.82287 0.0
H1383 H 0.53471 0.43797 0.84771 0.0
H1384 H 0.55309 0.43129 0.81932 0.0
O1385 O 0.50093 0.34444 0.83284 0.0
O1386 O 0.52973 0.31608 0.84447 0.0
H1387 H 0.60623 0.34228 0.85005 0.0
H1388 H 0.6246 0.37233 0.85416 0.0
C1389 C 0.60787 0.3614 0.86105 0.0
H1390 H 0.61124 0.35839 0.88163 0.0
H1391 H 0.58585 0.29141 0.85216 0.0
O1392 O 0.4863 0.40222 0.85077 0.0
C1393 C 0.51142 0.32264 0.8299 0.0
Co1394 Co 0.71842 0.57061 0.87879 0.0
Co1395 Co 0.69279 0.53125 0.83727 0.0
C1396 C 0.66904 0.58112 0.84887 0.0
O1397 O 0.68816 0.58756 0.86387 0.0
O1398 O 0.66678 0.5585 0.83793 0.0
C1399 C 0.70558 0.5949 0.92362 0.0
O1400 O 0.68428 0.58253 0.91519 0.0
C1401 C 0.65497 0.49497 0.81385 0.0
C1402 C 0.67851 0.46161 0.80247 0.0
C1403 C 0.65336 0.46861 0.8073 0.0
N1404 N 0.67986 0.50257 0.81514 0.0
N1405 N 0.6938 0.48288 0.80688 0.0
C1406 C 0.63332 0.5126 0.82035 0.0
H1407 H 0.6353 0.52989 0.80943 0.0
H1408 H 0.63433 0.51899 0.84118 0.0
H1409 H 0.61429 0.50313 0.81522 0.0
C1410 C 0.71846 0.52481 0.90911 0.0
N1411 N 0.71216 0.53656 0.88775 0.0
N1412 N 0.70043 0.51985 0.87084 0.0
C1413 C 0.69835 0.49703 0.8814 0.0
C1414 C 0.70973 0.49941 0.90586 0.0
C1415 C 0.73253 0.53767 0.93225 0.0
H1416 H 0.74712 0.55176 0.92628 0.0
H1417 H 0.71856 0.54807 0.94475 0.0
H1418 H 0.74212 0.52343 0.94364 0.0
O1419 O 0.74557 0.57105 0.8532 0.0
O1420 O 0.72449 0.54574 0.82252 0.0
H1421 H 0.70001 0.46588 0.85256 0.0
H1422 H 0.68482 0.45728 0.88121 0.0
C1423 C 0.68707 0.47278 0.86805 0.0
H1424 H 0.66804 0.47678 0.85975 0.0
H1425 H 0.71392 0.48317 0.80723 0.0
O1426 O 0.72592 0.59236 0.91063 0.0
C1427 C 0.74361 0.56052 0.83027 0.0
Co1428 Co 0.49525 0.73393 0.88178 0.0
Co1429 Co 0.53604 0.70379 0.8473 0.0
C1430 C 0.4867 0.67906 0.85847 0.0
O1431 O 0.4805 0.69973 0.87094 0.0
O1432 O 0.50834 0.67697 0.84788 0.0
C1433 C 0.4681 0.72731 0.92509 0.0
O1434 O 0.48285 0.70724 0.92251 0.0
C1435 C 0.57301 0.66334 0.83733 0.0
C1436 C 0.60214 0.68146 0.81396 0.0
C1437 C 0.59676 0.65941 0.82628 0.0
N1438 N 0.56483 0.68665 0.83199 0.0
N1439 N 0.58206 0.69716 0.8175 0.0
C1440 C 0.55998 0.64687 0.85566 0.0
H1441 H 0.54892 0.65892 0.86979 0.0
H1442 H 0.57418 0.63573 0.86606 0.0
H1443 H 0.54635 0.63313 0.84464 0.0
C1444 C 0.5401 0.74022 0.91797 0.0
N1445 N 0.52902 0.73117 0.89527 0.0
N1446 N 0.54616 0.71863 0.88122 0.0
C1447 C 0.5688 0.71962 0.89469 0.0
C1448 C 0.56558 0.73321 0.91834 0.0
C1449 C 0.52679 0.7558 0.93879 0.0
H1450 H 0.5123 0.76812 0.93034 0.0
H1451 H 0.51686 0.74263 0.95125 0.0
H1452 H 0.54091 0.76802 0.95096 0.0
O1453 O 0.49637 0.7546 0.85109 0.0
O1454 O 0.52356 0.73168 0.82623 0.0
H1455 H 0.59737 0.71275 0.86621 0.0
H1456 H 0.60966 0.71248 0.89873 0.0
C1457 C 0.59293 0.70708 0.88564 0.0
H1458 H 0.59011 0.68591 0.88477 0.0
H1459 H 0.58083 0.71562 0.81129 0.0
O1460 O 0.47089 0.74507 0.90983 0.0
C1461 C 0.50838 0.75051 0.83002 0.0
Co1462 Co 0.37121 0.56401 0.85654 0.0
Co1463 Co 0.34083 0.51908 0.8803 0.0
C1464 C 0.34387 0.57161 0.90653 0.0
O1465 O 0.35653 0.58005 0.88834 0.0
O1466 O 0.33727 0.54803 0.90652 0.0
C1467 C 0.41163 0.59739 0.86475 0.0
O1468 O 0.40882 0.58746 0.8869 0.0
C1469 C 0.33408 0.48357 0.91875 0.0
C1470 C 0.31106 0.45115 0.89924 0.0
C1471 C 0.32431 0.45918 0.92199 0.0
N1472 N 0.32752 0.48955 0.89502 0.0
N1473 N 0.31329 0.47036 0.88352 0.0
C1474 C 0.34964 0.50119 0.93768 0.0
H1475 H 0.33728 0.51708 0.9449 0.0
H1476 H 0.36615 0.50983 0.92798 0.0
H1477 H 0.3566 0.49142 0.95448 0.0
C1478 C 0.41208 0.52508 0.85555 0.0
N1479 N 0.38832 0.53311 0.86167 0.0
N1480 N 0.37548 0.51426 0.87145 0.0
C1481 C 0.39054 0.49365 0.87154 0.0
C1482 C 0.4141 0.50001 0.86181 0.0
C1483 C 0.43191 0.54026 0.84241 0.0
H1484 H 0.42256 0.55144 0.82777 0.0
H1485 H 0.44224 0.5538 0.85688 0.0
H1486 H 0.44628 0.52744 0.83301 0.0
O1487 O 0.34234 0.55737 0.83176 0.0
O1488 O 0.32092 0.52561 0.84921 0.0
H1489 H 0.36334 0.46201 0.87135 0.0
H1490 H 0.39644 0.4529 0.87439 0.0
C1491 C 0.38248 0.46796 0.87997 0.0
H1492 H 0.38133 0.46949 0.90116 0.0
H1493 H 0.30613 0.46989 0.86461 0.0
O1494 O 0.39657 0.58968 0.84598 0.0
C1495 C 0.32354 0.54115 0.83176 0.0
Co1496 Co 0.6905 0.72642 0.0208 0.0
Co1497 Co 0.73013 0.69861 0.0546 0.0
C1498 C 0.70513 0.67202 0.00794 0.0
O1499 O 0.69224 0.69159 0.0037 0.0
O1500 O 0.72053 0.67213 0.0271 0.0
C1501 C 0.64194 0.72751 -0.00147 0.0
O1502 O 0.64069 0.70628 0.01047 0.0
C1503 C 0.73262 0.66455 0.09396 0.0
C1504 C 0.7724 0.66825 0.11002 0.0
C1505 C 0.74847 0.65659 0.11326 0.0
N1506 N 0.74613 0.68073 0.08046 0.0
N1507 N 0.77002 0.68281 0.08988 0.0
C1508 C 0.7049 0.65701 0.0881 0.0
H1509 H 0.69978 0.65938 0.06773 0.0
H1510 H 0.69243 0.66974 0.10018 0.0
H1511 H 0.70093 0.63677 0.09225 0.0
C1512 C 0.66971 0.74139 0.07221 0.0
N1513 N 0.6846 0.72669 0.0564 0.0
N1514 N 0.70315 0.71736 0.07015 0.0
C1515 C 0.70176 0.7271 0.09474 0.0
C1516 C 0.68027 0.74223 0.09709 0.0
C1517 C 0.64644 0.75495 0.06342 0.0
H1518 H 0.65253 0.77371 0.05657 0.0
H1519 H 0.63634 0.74334 0.04744 0.0
H1520 H 0.63263 0.75826 0.07915 0.0
O1521 O 0.72427 0.74508 0.01765 0.0
O1522 O 0.75248 0.72334 0.04019 0.0
H1523 H 0.7422 0.72648 0.10451 0.0
H1524 H 0.72331 0.74357 0.12845 0.0
C1525 C 0.72344 0.72654 0.11421 0.0
H1526 H 0.72148 0.70896 0.12467 0.0
H1527 H 0.78444 0.69453 0.083 0.0
O1528 O 0.66221 0.7418 0.00145 0.0
C1529 C 0.74715 0.74131 0.02597 0.0
Co1530 Co 0.72105 0.37929 0.00607 0.0
Co1531 Co 0.69505 0.34491 0.04671 0.0
C1532 C 0.67831 0.34038 0.99164 0.0
O1533 O 0.69497 0.35727 0.98637 0.0
O1534 O 0.6755 0.33437 0.01453 0.0
C1535 C 0.70955 0.41777 0.97494 0.0
O1536 O 0.68719 0.41009 0.9833 0.0
C1537 C 0.65314 0.33732 0.08142 0.0
C1538 C 0.67023 0.31386 0.11042 0.0
C1539 C 0.64853 0.32762 0.10495 0.0
N1540 N 0.67677 0.33049 0.0739 0.0
N1541 N 0.68666 0.31591 0.09099 0.0
C1542 C 0.63572 0.35335 0.06638 0.0
H1543 H 0.63808 0.34866 0.04546 0.0
H1544 H 0.64095 0.37403 0.07068 0.0
H1545 H 0.61528 0.35011 0.0713 0.0
C1546 C 0.71142 0.41972 0.04796 0.0
N1547 N 0.70829 0.39537 0.0371 0.0
N1548 N 0.69827 0.38088 0.05407 0.0
C1549 C 0.69553 0.39536 0.07638 0.0
C1550 C 0.70282 0.4204 0.07288 0.0
C1551 C 0.72471 0.44124 0.03575 0.0
H1552 H 0.74185 0.43402 0.02545 0.0
H1553 H 0.71127 0.44894 0.02163 0.0
H1554 H 0.73069 0.45718 0.05025 0.0
O1555 O 0.74934 0.35559 0.01468 0.0
O1556 O 0.73025 0.332 0.0434 0.0
H1557 H 0.70119 0.39791 0.11785 0.0
H1558 H 0.6713 0.38335 0.10609 0.0
C1559 C 0.69206 0.38494 0.10209 0.0
H1560 H 0.70092 0.36591 0.10248 0.0
H1561 H 0.70518 0.30862 0.09018 0.0
O1562 O 0.72977 0.40683 0.98246 0.0
C1563 C 0.74965 0.3377 0.03015 0.0
Co1564 Co 0.3415 0.69309 0.01728 0.0
Co1565 Co 0.37441 0.72941 0.05579 0.0
C1566 C 0.39019 0.71753 0.00113 0.0
O1567 O 0.3719 0.70107 -0.0031 0.0
O1568 O 0.39262 0.73045 0.02272 0.0
C1569 C 0.33875 0.64604 0.9918 0.0
O1570 O 0.36031 0.64596 0.00549 0.0
C1571 C 0.42353 0.73448 0.08059 0.0
C1572 C 0.41995 0.76387 0.11309 0.0
C1573 C 0.43689 0.74652 0.10159 0.0
N1574 N 0.39974 0.74385 0.07982 0.0
N1575 N 0.39773 0.76182 0.09899 0.0
C1576 C 0.43299 0.71413 0.06133 0.0
H1577 H 0.43699 0.723 0.04318 0.0
H1578 H 0.41788 0.69883 0.05706 0.0
H1579 H 0.45111 0.70559 0.0677 0.0
C1580 C 0.34088 0.66084 0.062 0.0
N1581 N 0.34976 0.681 0.04974 0.0
N1582 N 0.36448 0.69603 0.06579 0.0
C1583 C 0.36549 0.68577 0.08878 0.0
C1584 C 0.35068 0.66307 0.08705 0.0
C1585 C 0.32067 0.64164 0.05127 0.0
H1586 H 0.30773 0.65042 0.03744 0.0
H1587 H 0.33013 0.62499 0.04121 0.0
H1588 H 0.30905 0.63437 0.06687 0.0
O1589 O 0.32051 0.72429 0.02317 0.0
O1590 O 0.34257 0.7494 0.05353 0.0
H1591 H 0.37317 0.71809 0.11616 0.0
H1592 H 0.37626 0.68729 0.12941 0.0
C1593 C 0.37948 0.69803 0.11225 0.0
H1594 H 0.40041 0.69853 0.10873 0.0
H1595 H 0.38099 0.77186 0.10304 0.0
O1596 O 0.32452 0.6655 -0.00559 0.0
C1597 C 0.32281 0.74463 0.03861 0.0
Co1598 Co 0.34842 0.37391 0.07654 0.0
Co1599 Co 0.38384 0.34034 0.04061 0.0
C1600 C 0.39941 0.35544 0.09459 0.0
O1601 O 0.37876 0.36751 0.09805 0.0
O1602 O 0.4042 0.34395 0.07298 0.0
C1603 C 0.34599 0.4201 0.10293 0.0
O1604 O 0.36853 0.42036 0.092 0.0
C1605 C 0.42757 0.33772 0.00822 0.0
C1606 C 0.42162 0.30089 0.9845 0.0
C1607 C 0.43754 0.32273 0.98796 0.0
N1608 N 0.4064 0.32568 0.01602 0.0
N1609 N 0.40312 0.30341 0.00216 0.0
C1610 C 0.43782 0.36324 0.02005 0.0
H1611 H 0.43401 0.36526 0.04092 0.0
H1612 H 0.42794 0.379 0.01115 0.0
H1613 H 0.45884 0.36538 0.01703 0.0
C1614 C 0.34599 0.40425 0.0314 0.0
N1615 N 0.35698 0.38609 0.04467 0.0
N1616 N 0.37113 0.37147 0.02912 0.0
C1617 C 0.36904 0.37954 0.00524 0.0
C1618 C 0.35347 0.40073 0.00609 0.0
C1619 C 0.3271 0.42318 0.04232 0.0
H1620 H 0.31276 0.41325 0.05375 0.0
H1621 H 0.33756 0.43811 0.05522 0.0
H1622 H 0.31698 0.43312 0.02724 0.0
O1623 O 0.32744 0.34193 0.06859 0.0
O1624 O 0.35393 0.31767 0.04426 0.0
H1625 H 0.37446 0.34338 0.98335 0.0
H1626 H 0.36476 0.36889 0.96431 0.0
C1627 C 0.3767 0.36425 0.98116 0.0
H1628 H 0.39704 0.3689 0.97714 0.0
H1629 H 0.38778 0.29045 0.0041 0.0
O1630 O 0.33094 0.40059 0.09822 0.0
C1631 C 0.33252 0.32105 0.05533 0.0
C1632 C 0.02064 0.30387 0.30206 0.0
C1633 C 0.02596 0.29678 0.32692 0.0
H1634 H 0.01697 0.2911 0.26212 0.0
C1635 C 0.02805 0.27072 0.33134 0.0
H1636 H 0.0191 0.32392 0.2983 0.0
C1637 C 0.02626 0.25197 0.31076 0.0
C1638 C 0.02316 0.25939 0.28572 0.0
H1639 H 0.03207 0.265 0.35051 0.0
H1640 H 0.02897 0.23199 0.3142 0.0
C1641 C 0.01962 0.28524 0.28146 0.0
C1642 C 0.81201 0.0448 0.29153 0.0
C1643 C 0.80565 0.04427 0.26519 0.0
H1644 H 0.79798 0.04455 0.32976 0.0
C1645 C 0.77968 0.04238 0.25699 0.0
H1646 H 0.83194 0.04632 0.29825 0.0
C1647 C 0.76031 0.04063 0.27495 0.0
C1648 C 0.76669 0.0416 0.30132 0.0
H1649 H 0.77441 0.0418 0.23672 0.0
H1650 H 0.74036 0.03899 0.26828 0.0
C1651 C 0.79265 0.04387 0.30949 0.0
C1652 C 0.04751 0.7746 0.30378 0.0
C1653 C 0.02412 0.76477 0.31237 0.0
H1654 H 0.06594 0.79948 0.27863 0.0
C1655 C 0.00084 0.77217 0.30122 0.0
H1656 H 0.0657 0.76918 0.31208 0.0
C1657 C 0.00101 0.78883 0.28147 0.0
C1658 C 0.02442 0.799 0.27322 0.0
H1659 H 0.98257 0.76467 0.30743 0.0
H1660 H 0.98286 0.79416 0.273 0.0
C1661 C 0.04764 0.79191 0.2847 0.0
C1662 C 0.31343 0.00635 0.28556 0.0
C1663 C 0.32183 0.03148 0.29409 0.0
H1664 H 0.28806 0.98289 0.25986 0.0
C1665 C 0.31298 0.0524 0.2815 0.0
H1666 H 0.32017 0.99 0.29512 0.0
C1667 C 0.29421 0.0484 0.26196 0.0
C1668 C 0.28485 0.02339 0.25434 0.0
H1669 H 0.31919 0.07191 0.28796 0.0
H1670 H 0.28625 0.06487 0.25351 0.0
C1671 C 0.29527 0.00229 0.26545 0.0
C1672 C 0.96854 0.81005 0.77607 0.0
C1673 C 0.97414 0.80424 0.80131 0.0
H1674 H 0.96725 0.79526 0.73662 0.0
C1675 C 0.97348 0.77851 0.80742 0.0
H1676 H 0.96867 0.82982 0.77107 0.0
C1677 C 0.97197 0.75875 0.78778 0.0
C1678 C 0.9718 0.76492 0.76218 0.0
H1679 H 0.97728 0.77376 0.82697 0.0
H1680 H 0.97516 0.73921 0.79253 0.0
C1681 C 0.96756 0.79031 0.75641 0.0
C1682 C 0.30504 0.06271 0.78928 0.0
C1683 C 0.29849 0.06404 0.76319 0.0
H1684 H 0.29117 0.05939 0.82727 0.0
C1685 C 0.27245 0.06365 0.75528 0.0
H1686 H 0.32505 0.06285 0.7957 0.0
C1687 C 0.25319 0.06076 0.77309 0.0
C1688 C 0.25975 0.05906 0.79912 0.0
H1689 H 0.26701 0.06432 0.73516 0.0
H1690 H 0.23321 0.05972 0.76652 0.0
C1691 C 0.28575 0.0607 0.80723 0.0
C1692 C 0.00924 0.31447 0.81589 0.0
C1693 C 0.00976 0.30751 0.78934 0.0
H1694 H 0.00877 0.30153 0.85376 0.0
C1695 C 0.00945 0.28135 0.78047 0.0
H1696 H 0.00933 0.33455 0.82317 0.0
C1697 C 0.00973 0.26245 0.798 0.0
C1698 C 0.00954 0.26946 0.82459 0.0
H1699 H 0.00994 0.27555 0.76006 0.0
H1700 H 0.0103 0.24239 0.79079 0.0
C1701 C 0.00876 0.2956 0.83335 0.0
C1702 C 0.79646 0.0115 0.80748 0.0
C1703 C 0.80484 0.037 0.81449 0.0
H1704 H 0.77165 0.98649 0.78262 0.0
C1705 C 0.79559 0.05704 0.80086 0.0
H1706 H 0.8036 -0.00421 0.81776 0.0
C1707 C 0.77697 0.05179 0.78137 0.0
C1708 C 0.76809 0.02639 0.77483 0.0
H1709 H 0.80184 0.07681 0.80608 0.0
H1710 H 0.76915 0.0676 0.77169 0.0
C1711 C 0.77842 0.00616 0.78742 0.0
C1712 C 0.30051 0.25605 0.03997 0.0
C1713 C 0.27456 0.26257 0.03786 0.0
H1714 H 0.33937 0.26973 0.04726 0.0
C1715 C 0.26766 0.28839 0.04204 0.0
H1716 H 0.30619 0.2362 0.03697 0.0
C1717 C 0.28651 0.30743 0.0487 0.0
C1718 C 0.31248 0.30089 0.05066 0.0
H1719 H 0.24767 0.29375 0.04088 0.0
H1720 H 0.28084 0.32727 0.05181 0.0
C1721 C 0.31939 0.27513 0.04602 0.0
C1722 C 0.27057 0.78645 0.01539 0.0
C1723 C 0.26206 0.79845 0.03859 0.0
H1724 H 0.29628 0.75948 -0.00261 0.0
C1725 C 0.27346 0.79264 0.06198 0.0
H1726 H 0.26199 0.79079 -0.00285 0.0
C1727 C 0.29368 0.77541 0.06207 0.0
C1728 C 0.30202 0.76322 0.03882 0.0
H1729 H 0.2672 0.80192 0.08003 0.0
H1730 H 0.30255 0.77133 0.08025 0.0
C1731 C 0.2901 0.76863 0.01553 0.0
C1732 C 0.7992 0.28887 0.01111 0.0
C1733 C 0.80879 0.283 0.0353 0.0
H1734 H 0.77347 0.31193 0.99051 0.0
C1735 C 0.80067 0.29717 0.05756 0.0
H1736 H 0.80537 0.27831 -0.00633 0.0
C1737 C 0.78212 0.31589 0.05576 0.0
C1738 C 0.77216 0.32139 0.03164 0.0
H1739 H 0.8078 0.29297 0.07642 0.0
H1740 H 0.77508 0.32567 0.07325 0.0
C1741 C 0.78126 0.30823 0.00927 0.0
C1742 C 0.79296 0.75265 0.02039 0.0
C1743 C 0.76749 0.76053 0.02323 0.0
H1744 H 0.83289 0.76385 0.02347 0.0
C1745 C 0.76247 0.78656 0.02929 0.0
H1746 H 0.7971 0.73253 0.01594 0.0
C1747 C 0.78284 0.80422 0.03452 0.0
C1748 C 0.80835 0.79606 0.03312 0.0
H1749 H 0.74292 0.79288 0.03194 0.0
H1750 H 0.77866 0.8241 0.04024 0.0
C1751 C 0.81331 0.77042 0.02497 0.0
C1752 C 0.78966 0.56638 0.81886 0.0
C1753 C 0.76344 0.56583 0.81171 0.0
H1754 H 0.82846 0.56667 0.80572 0.0
C1755 C 0.75612 0.56896 0.7861 0.0
H1756 H 0.79567 0.56409 0.83856 0.0
C1757 C 0.77473 0.57129 0.76757 0.0
C1758 C 0.80094 0.56978 0.77426 0.0
H1759 H 0.73594 0.5689 0.78028 0.0
H1760 H 0.76853 0.57244 0.74772 0.0
C1761 C 0.80832 0.56795 0.80015 0.0
C1762 C 0.26732 0.52091 0.788 0.0
C1763 C 0.25567 0.54464 0.78598 0.0
H1764 H 0.29844 0.50123 0.8047 0.0
C1765 C 0.26801 0.56742 0.79659 0.0
H1766 H 0.25799 0.50316 0.77985 0.0
C1767 C 0.29149 0.56639 0.80986 0.0
C1768 C 0.30231 0.54251 0.81326 0.0
H1769 H 0.25929 0.5859 0.79496 0.0
H1770 H 0.30035 0.58405 0.81878 0.0
C1771 C 0.29035 0.5198 0.80201 0.0
C1772 C 0.29086 0.58012 0.2897 0.0
C1773 C 0.31658 0.57296 0.2925 0.0
H1774 H 0.25408 0.58336 0.30715 0.0
C1775 C 0.32584 0.56703 0.3169 0.0
H1776 H 0.28311 0.58479 0.27124 0.0
C1777 C 0.30922 0.56673 0.33766 0.0
C1778 C 0.28311 0.57194 0.3341 0.0
H1779 H 0.34563 0.56158 0.31969 0.0
H1780 H 0.31634 0.56079 0.35588 0.0
C1781 C 0.27423 0.57931 0.31023 0.0
C1782 C 0.80996 0.50677 0.29237 0.0
C1783 C 0.8227 0.52994 0.30141 0.0
H1784 H 0.77879 0.48912 0.26898 0.0
C1785 C 0.81517 0.55317 0.29211 0.0
H1786 H 0.81557 0.48867 0.29936 0.0
C1787 C 0.79386 0.55348 0.27548 0.0
C1788 C 0.78046 0.53048 0.26736 0.0
H1789 H 0.82465 0.57127 0.299 0.0
H1790 H 0.78731 0.57174 0.26964 0.0
C1791 C 0.78912 0.507 0.27504 0.0
C1792 C 0.27962 0.75735 0.53954 0.0
C1793 C 0.25442 0.76568 0.54302 0.0
H1794 H 0.31924 0.76836 0.53676 0.0
C1795 C 0.24936 0.79199 0.54508 0.0
H1796 H 0.28374 0.73701 0.53801 0.0
C1797 C 0.2697 0.80993 0.5451 0.0
C1798 C 0.29507 0.80157 0.54247 0.0
H1799 H 0.22997 0.79863 0.54807 0.0
H1800 H 0.26566 0.83026 0.54745 0.0
C1801 C 0.29982 0.7752 0.53896 0.0
C1802 C 0.30315 0.29052 0.53091 0.0
C1803 C 0.3123 0.28097 0.55371 0.0
H1804 H 0.28035 0.31881 0.51411 0.0
C1805 C 0.30672 0.29395 0.5775 0.0
H1806 H 0.30745 0.28093 0.51235 0.0
C1807 C 0.29082 0.31522 0.57852 0.0
C1808 C 0.2812 0.32442 0.55573 0.0
H1809 H 0.31364 0.28691 0.59532 0.0
H1810 H 0.28541 0.32402 0.59709 0.0
C1811 C 0.28803 0.31235 0.53191 0.0
C1812 C 0.78478 0.80292 0.54508 0.0
C1813 C 0.75857 0.79561 0.54493 0.0
H1814 H 0.82349 0.79088 0.54008 0.0
C1815 C 0.75127 0.76958 0.53936 0.0
H1816 H 0.79087 0.8229 0.54917 0.0
C1817 C 0.76996 0.75127 0.53337 0.0
C1818 C 0.79619 0.75869 0.53348 0.0
H1819 H 0.73112 0.76358 0.53876 0.0
H1820 H 0.76394 0.73132 0.52892 0.0
C1821 C 0.80341 0.78463 0.53974 0.0
C1822 C 0.81336 0.28127 0.52163 0.0
C1823 C 0.82079 0.29059 0.54678 0.0
H1824 H 0.78821 0.25533 0.49814 0.0
C1825 C 0.80976 0.28007 0.56789 0.0
H1826 H 0.82171 0.28945 0.50518 0.0
C1827 C 0.79141 0.26018 0.56387 0.0
C1828 C 0.78338 0.25138 0.53874 0.0
H1829 H 0.8154 0.28718 0.58738 0.0
H1830 H 0.7829 0.25221 0.58036 0.0
C1831 C 0.79432 0.26199 0.51761 0.0
C1832 C 0.50867 0.29642 0.76147 0.0
C1833 C 0.50522 0.27009 0.76448 0.0
H1834 H 0.51227 0.33432 0.78061 0.0
C1835 C 0.49937 0.26184 0.78869 0.0
H1836 H 0.51302 0.30309 0.74288 0.0
C1837 C 0.49952 0.27948 0.81012 0.0
C1838 C 0.50463 0.30554 0.80733 0.0
H1839 H 0.49668 0.24158 0.79143 0.0
H1840 H 0.49704 0.27266 0.82901 0.0
C1841 C 0.50802 0.31418 0.78287 0.0
C1842 C 0.50592 0.77702 0.76434 0.0
C1843 C 0.50442 0.80354 0.77109 0.0
H1844 H 0.50893 0.73939 0.77789 0.0
C1845 C 0.50263 0.8123 0.7972 0.0
H1846 H 0.50753 0.76982 0.74438 0.0
C1847 C 0.50274 0.79493 0.81627 0.0
C1848 C 0.50551 0.76852 0.80967 0.0
H1849 H 0.50146 0.83268 0.80289 0.0
H1850 H 0.50175 0.80229 0.83625 0.0
C1851 C 0.50688 0.75968 0.78351 0.0
C1852 C 0.48963 0.80056 0.2745 0.0
C1853 C 0.4898 0.79233 0.29938 0.0
H1854 H 0.49768 0.79014 0.23507 0.0
C1855 C 0.4907 0.76598 0.30295 0.0
H1856 H 0.48893 0.82084 0.27143 0.0
C1857 C 0.49519 0.7484 0.28212 0.0
C1858 C 0.49933 0.75737 0.25796 0.0
H1859 H 0.49067 0.75939 0.32213 0.0
H1860 H 0.49855 0.72852 0.28553 0.0
C1861 C 0.49479 0.7831 0.2538 0.0
C1862 C 0.52202 0.26139 0.28855 0.0
C1863 C 0.52365 0.26731 0.31531 0.0
H1864 H 0.51996 0.27617 0.25136 0.0
C1865 C 0.5247 0.29321 0.32518 0.0
H1866 H 0.52116 0.24154 0.28052 0.0
C1867 C 0.52475 0.31288 0.30858 0.0
C1868 C 0.52294 0.30701 0.28185 0.0
H1869 H 0.52614 0.29825 0.34574 0.0
H1870 H 0.52603 0.33271 0.31665 0.0
C1871 C 0.52123 0.28113 0.27194 0.0
C1872 C 0.1229 0.11734 0.26731 0.0
C1873 C 0.14322 0.11391 0.2503 0.0
H1874 H 0.08676 0.13528 0.2745 0.0
C1875 C 0.1425 0.1252 0.22684 0.0
H1876 H 0.12322 0.10858 0.28544 0.0
C1877 C 0.12159 0.13968 0.2203 0.0
C1878 C 0.10124 0.14339 0.23726 0.0
H1879 H 0.15805 0.12268 0.2135 0.0
H1880 H 0.12136 0.14813 0.20199 0.0
C1881 C 0.10201 0.1322 0.26088 0.0
C1882 C 0.9043 0.12807 0.23931 0.0
C1883 C 0.91351 0.10299 0.2396 0.0
H1884 H 0.91338 0.16836 0.24373 0.0
C1885 C 0.93911 0.09945 0.24744 0.0
H1886 H 0.88447 0.13136 0.23384 0.0
C1887 C 0.95572 0.12073 0.25309 0.0
C1888 C 0.94685 0.14579 0.25124 0.0
H1889 H 0.9466 0.08031 0.24808 0.0
H1890 H 0.97575 0.11751 0.25782 0.0
C1891 C 0.92078 0.14929 0.24525 0.0
C1892 C 0.9709 0.95487 0.24811 0.0
C1893 C 0.94439 0.94851 0.24674 0.0
H1894 H 0.00946 0.94113 0.24404 0.0
C1895 C 0.93647 0.92294 0.23953 0.0
H1896 H 0.97753 0.97441 0.25379 0.0
C1897 C 0.95452 0.90414 0.23356 0.0
C1898 C 0.98109 0.91024 0.23515 0.0
H1899 H 0.91618 0.91748 0.23812 0.0
H1900 H 0.94757 0.88466 0.22801 0.0
C1901 C 0.98913 0.93582 0.24263 0.0
C1902 C 0.17535 0.9393 0.23701 0.0
C1903 C 0.16927 0.96548 0.23894 0.0
H1904 H 0.16278 0.90077 0.24247 0.0
C1905 C 0.14574 0.973 0.24958 0.0
H1906 H 0.19344 0.93294 0.22912 0.0
C1907 C 0.12815 0.95449 0.25711 0.0
C1908 C 0.13401 0.92831 0.25441 0.0
H1909 H 0.14059 0.99305 0.25139 0.0
H1910 H 0.10979 0.96057 0.26456 0.0
C1911 C 0.15795 0.92091 0.24488 0.0
C1912 C 0.10994 0.91471 0.82995 0.0
C1913 C 0.08896 0.91014 0.81265 0.0
H1914 H 0.14558 0.93522 0.83851 0.0
C1915 C 0.08906 0.92134 0.78905 0.0
H1916 H 0.11036 0.90615 0.8482 0.0
C1917 C 0.10914 0.93837 0.78367 0.0
C1918 C 0.12927 0.94402 0.8018 0.0
H1919 H 0.07338 0.91739 0.77509 0.0
H1920 H 0.10848 0.9478 0.76593 0.0
C1921 C 0.12998 0.93142 0.8245 0.0
C1922 C 0.13521 0.13981 0.83617 0.0
C1923 C 0.10972 0.13262 0.82887 0.0
H1924 H 0.17257 0.12748 0.84673 0.0
C1925 C 0.10244 0.10637 0.82608 0.0
H1926 H 0.14121 0.15994 0.83873 0.0
C1927 C 0.12058 0.08758 0.83034 0.0
C1928 C 0.14604 0.09487 0.8381 0.0
H1929 H 0.0828 0.10045 0.82053 0.0
H1930 H 0.11464 0.06744 0.82793 0.0
C1931 C 0.15308 0.1212 0.841 0.0
C1932 C 0.96114 0.14291 0.85107 0.0
C1933 C 0.96654 0.16002 0.87288 0.0
H1934 H 0.93649 0.11207 0.83402 0.0
C1935 C 0.95135 0.15883 0.89466 0.0
H1936 H 0.97253 0.14362 0.83399 0.0
C1937 C 0.93121 0.14078 0.89477 0.0
C1938 C 0.92549 0.12393 0.87293 0.0
H1939 H 0.95514 0.17178 0.91175 0.0
H1940 H 0.91992 0.1402 0.91194 0.0
C1941 C 0.94046 0.12513 0.85097 0.0
C1942 C 0.92346 0.9709 0.84429 0.0
C1943 C 0.92855 0.98966 0.8647 0.0
H1944 H 0.93576 0.93614 0.8242 0.0
C1945 C 0.95156 0.9895 0.87912 0.0
H1946 H 0.9057 0.97098 0.83297 0.0
C1947 C 0.96872 0.96967 0.87424 0.0
C1948 C 0.96297 0.94983 0.85486 0.0
H1949 H 0.95568 0.00401 0.89487 0.0
H1950 H 0.98593 0.96934 0.88635 0.0
C1951 C 0.94062 0.95108 0.83934 0.0
C1952 C 0.23167 0.0743 0.1154 0.0
C1953 C 0.23468 0.07776 0.14222 0.0
H1954 H 0.23801 0.09028 0.07955 0.0
C1955 C 0.24822 0.09959 0.15358 0.0
H1956 H 0.22184 0.05723 0.10628 0.0
C1957 C 0.25708 0.11862 0.13845 0.0
C1958 C 0.25263 0.11601 0.11172 0.0
H1959 H 0.25153 0.10217 0.17422 0.0
H1960 H 0.26644 0.13583 0.14779 0.0
C1961 C 0.24074 0.09325 0.10021 0.0
C1962 C 0.9652 0.25285 0.13698 0.0
C1963 C 0.93921 0.25126 0.14349 0.0
H1964 H 0.00396 0.24372 0.14672 0.0
C1965 C 0.93211 0.2386 0.16504 0.0
H1966 H 0.9709 0.26225 0.12014 0.0
C1967 C 0.95081 0.2274 0.17982 0.0
C1968 C 0.97692 0.22907 0.17346 0.0
H1969 H 0.91204 0.23674 0.17 0.0
H1970 H 0.94484 0.21785 0.19646 0.0
C1971 C 0.98396 0.24202 0.15197 0.0
C1972 C 0.83569 0.93233 0.12931 0.0
C1973 C 0.85346 0.92938 0.10954 0.0
H1974 H 0.82317 0.95684 0.16143 0.0
C1975 C 0.86948 0.95033 0.10422 0.0
H1976 H 0.82308 0.91645 0.1336 0.0
C1977 C 0.86917 0.97329 0.1197 0.0
C1978 C 0.85295 0.97547 0.14066 0.0
H1979 H 0.88301 0.94865 0.08871 0.0
H1980 H 0.88277 0.98871 0.11634 0.0
C1981 C 0.8356 0.95532 0.14501 0.0
C1982 C 0.10003 0.84424 0.09784 0.0
C1983 C 0.12429 0.83301 0.09948 0.0
H1984 H 0.06507 0.85406 0.11698 0.0
C1985 C 0.13113 0.82133 0.12193 0.0
H1986 H 0.0942 0.85336 0.08078 0.0
C1987 C 0.11458 0.82221 0.14288 0.0
C1988 C 0.0908 0.83437 0.14146 0.0
H1989 H 0.14978 0.81274 0.12382 0.0
H1990 H 0.12059 0.81399 0.16039 0.0
C1991 C 0.08335 0.84466 0.11852 0.0
C1992 C 0.25442 0.95192 0.93623 0.0
C1993 C 0.23474 0.93586 0.94467 0.0
H1994 H 0.26416 0.98335 0.9138 0.0
C1995 C 0.20925 0.93928 0.93612 0.0
H1996 H 0.27431 0.94946 0.94207 0.0
C1997 C 0.20344 0.95892 0.92041 0.0
C1998 C 0.223 0.97538 0.91261 0.0
H1999 H 0.19375 0.9265 0.94104 0.0
H2000 H 0.18362 0.96121 0.91424 0.0
C2001 C 0.24861 0.97148 0.92032 0.0
C2002 C 0.12528 0.24514 0.97521 0.0
C2003 C 0.14856 0.24881 0.96254 0.0
H2004 H 0.08476 0.23649 0.97124 0.0
C2005 C 0.14776 0.25097 0.93587 0.0
H2006 H 0.12508 0.24372 -0.00424 0.0
C2007 C 0.12446 0.24738 0.92193 0.0
C2008 C 0.10172 0.24103 0.93433 0.0
H2009 H 0.16528 0.25418 0.92558 0.0
H2010 H 0.12443 0.24833 0.90126 0.0
C2011 C 0.10209 0.24108 0.9612 0.0
C2012 C 0.82551 0.12702 0.92712 0.0
C2013 C 0.83103 0.10176 0.93254 0.0
H2014 H 0.82375 0.16653 0.94194 0.0
C2015 C 0.83655 0.09648 0.95799 0.0
H2016 H 0.8213 0.13148 0.90755 0.0
C2017 C 0.83879 0.11656 0.97737 0.0
C2018 C 0.83465 0.142 0.97168 0.0
H2019 H 0.84114 0.07719 0.96256 0.0
H2020 H 0.84478 0.11233 -0.00343 0.0
C2021 C 0.82689 0.147 0.9467 0.0
C2022 C 0.95306 0.85689 0.91516 0.0
C2023 C 0.97929 0.85099 0.91494 0.0
H2024 H 0.91631 0.8495 0.93098 0.0
C2025 C 0.9892 0.83519 0.93325 0.0
H2026 H 0.94479 0.86892 0.90131 0.0
C2027 C 0.97276 0.82419 0.95038 0.0
C2028 C 0.94631 0.82854 0.94897 0.0
H2029 H 0.00937 0.83036 0.93352 0.0
H2030 H 0.98048 0.81159 0.96401 0.0
C2031 C 0.93667 0.84548 0.93183 0.0
C2032 C 0.13798 0.26082 0.13698 0.0
C2033 C 0.1278 0.24201 0.15186 0.0
H2034 H 0.16115 0.26827 0.10477 0.0
C2035 C 0.13486 0.21627 0.14705 0.0
H2036 H 0.13299 0.28081 0.14063 0.0
C2037 C 0.15051 0.20912 0.12659 0.0
C2038 C 0.15954 0.22763 0.11083 0.0
H2039 H 0.12797 0.20154 0.15884 0.0
H2040 H 0.15505 0.18902 0.1227 0.0
C2041 C 0.15377 0.25363 0.11646 0.0
C2042 C 0.11723 0.79301 0.92804 0.0
C2043 C 0.11453 0.81095 0.90958 0.0
H2044 H 0.13531 0.78471 0.96371 0.0
C2045 C 0.1296 0.83372 0.91209 0.0
H2046 H 0.10601 0.77512 0.92628 0.0
C2047 C 0.14484 0.83992 0.93404 0.0
C2048 C 0.14669 0.82277 0.95334 0.0
H2049 H 0.12889 0.84729 0.8975 0.0
H2050 H 0.15464 0.85858 0.93614 0.0
C2051 C 0.13348 0.79879 0.94972 0.0
C2052 C 0.21334 0.12762 0.98101 0.0
C2053 C 0.21851 0.15314 0.97562 0.0
H2054 H 0.20698 0.08857 0.96543 0.0
C2055 C 0.22297 0.15883 0.95027 0.0
H2056 H 0.20979 0.12293 0.0005 0.0
C2057 C 0.22232 0.13911 0.93048 0.0
C2058 C 0.21631 0.11375 0.93579 0.0
H2059 H 0.2271 0.17843 0.94584 0.0
H2060 H 0.2256 0.14379 0.91093 0.0
C2061 C 0.21176 0.10808 0.9611 0.0
C2062 C 0.93589 0.24014 0.95398 0.0
C2063 C 0.9613 0.23773 0.96314 0.0
H2064 H 0.89573 0.23888 0.96268 0.0
C2065 C 0.96571 0.23395 0.98922 0.0
H2066 H 0.93194 0.24261 0.93386 0.0
C2067 C 0.94503 0.23238 0.00584 0.0
C2068 C 0.91956 0.23359 -0.0036 0.0
H2069 H 0.98512 0.23177 -0.00335 0.0
H2070 H 0.94889 0.2292 0.02581 0.0
C2071 C 0.91519 0.23769 0.97038 0.0
C2072 C 0.83739 0.90771 0.96131 0.0
C2073 C 0.84568 0.91723 0.98614 0.0
H2074 H 0.8223 0.91662 0.92472 0.0
C2075 C 0.84269 0.94333 -0.00601 0.0
H2076 H 0.83847 0.88743 0.95516 0.0
C2077 C 0.83243 0.95987 0.97695 0.0
C2078 C 0.82568 0.95073 0.95153 0.0
H2079 H 0.84842 0.95096 0.01329 0.0
H2080 H 0.83002 0.9798 0.98369 0.0
C2081 C 0.82765 0.92435 0.94408 0.0
C2082 C 0.93404 0.82646 0.14365 0.0
C2083 C 0.9598 0.83221 0.13838 0.0
H2084 H 0.89504 0.82353 0.12892 0.0
C2085 C 0.96659 0.8366 0.1132 0.0
H2086 H 0.92843 0.82327 0.16303 0.0
C2087 C 0.94775 0.83606 0.09365 0.0
C2088 C 0.92173 0.832 0.09921 0.0
H2089 H 0.98639 0.84117 0.1088 0.0
H2090 H 0.95337 0.84027 0.07453 0.0
C2091 C 0.91502 0.82677 0.12424 0.0
C2092 C 0.19096 0.91302 0.1036 0.0
C2093 C 0.2122 0.90842 0.08794 0.0
H2094 H 0.17624 0.934 0.13663 0.0
C2095 C 0.2355 0.92222 0.09371 0.0
H2096 H 0.17279 0.90259 0.09952 0.0
C2097 C 0.23768 0.93983 0.11543 0.0
C2098 C 0.21638 0.94421 0.13113 0.0
H2099 H 0.25218 0.91876 0.08196 0.0
H2100 H 0.25585 0.9501 0.11985 0.0
C2101 C 0.19295 0.93094 0.12482 0.0
C2102 C 0.83055 0.13314 0.14291 0.0
C2103 C 0.84594 0.1117 0.13728 0.0
H2104 H 0.81834 0.16966 0.13121 0.0
C2105 C 0.85878 0.10951 0.11379 0.0
H2106 H 0.82054 0.13539 0.1609 0.0
C2107 C 0.85715 0.12879 0.09676 0.0
C2108 C 0.84304 0.15086 0.10308 0.0
H2109 H 0.87066 0.09315 0.10885 0.0
H2110 H 0.8679 0.12702 0.07918 0.0
C2111 C 0.82932 0.15272 0.12602 0.0
C2112 C 0.12899 0.66468 0.77961 0.0
C2113 C 0.12071 0.64635 0.79607 0.0
H2114 H 0.11788 0.69062 0.75197 0.0
C2115 C 0.0944 0.64344 0.80076 0.0
H2116 H 0.14925 0.6671 0.77563 0.0
C2117 C 0.07645 0.65774 0.78804 0.0
C2118 C 0.08451 0.67423 0.76957 0.0
H2119 H 0.08768 0.62928 0.81333 0.0
H2120 H 0.05622 0.65506 0.7919 0.0
C2121 C 0.11102 0.67819 0.76612 0.0
C2122 C 0.95062 0.61565 0.73084 0.0
C2123 C 0.95496 0.62553 0.707 0.0
H2124 H 0.92693 0.59085 0.7519 0.0
C2125 C 0.93985 0.6164 0.68537 0.0
H2126 H 0.9622 0.62241 0.74772 0.0
C2127 C 0.91947 0.59903 0.68791 0.0
C2128 C 0.91442 0.58999 0.71193 0.0
H2129 H 0.94279 0.62381 0.66682 0.0
H2130 H 0.90718 0.59319 0.67124 0.0
C2131 C 0.93063 0.59763 0.73321 0.0
C2132 C 0.94319 0.41847 0.7361 0.0
C2133 C 0.96394 0.41871 0.75396 0.0
H2134 H 0.90848 0.43639 0.72481 0.0
C2135 C 0.96507 0.43754 0.77492 0.0
H2136 H 0.94176 0.40427 0.71972 0.0
C2137 C 0.94574 0.45571 0.77794 0.0
C2138 C 0.92539 0.4556 0.75977 0.0
H2139 H 0.98075 0.43813 0.78904 0.0
H2140 H 0.94689 0.47009 0.79418 0.0
C2141 C 0.92419 0.43684 0.73892 0.0
C2142 C 0.14799 0.4663 0.77351 0.0
C2143 C 0.13931 0.49166 0.77586 0.0
H2144 H 0.13944 0.42666 0.77838 0.0
C2145 C 0.11539 0.4967 0.78691 0.0
H2146 H 0.16653 0.46195 0.76535 0.0
C2147 C 0.09975 0.47637 0.7941 0.0
C2148 C 0.10825 0.45097 0.79099 0.0
H2149 H 0.10836 0.51613 0.78896 0.0
H2150 H 0.08077 0.48033 0.80137 0.0
C2151 C 0.13271 0.44616 0.78127 0.0
C2152 C 0.13474 0.4284 0.37049 0.0
C2153 C 0.12193 0.41286 0.35094 0.0
H2154 H 0.16115 0.45947 0.38002 0.0
C2155 C 0.12743 0.4157 0.32509 0.0
H2156 H 0.13062 0.4264 0.39052 0.0
C2157 C 0.14533 0.4346 0.3189 0.0
C2158 C 0.15729 0.45105 0.33853 0.0
H2159 H 0.11759 0.40363 0.30981 0.0
H2160 H 0.14923 0.4369 0.29889 0.0
C2161 C 0.15218 0.44738 0.36436 0.0
C2162 C 0.14625 0.5963 0.3522 0.0
C2163 C 0.17021 0.60404 0.36388 0.0
H2164 H 0.11035 0.6083 0.33633 0.0
C2165 C 0.17633 0.63053 0.36814 0.0
H2166 H 0.141 0.57607 0.34857 0.0
C2167 C 0.15907 0.64881 0.36072 0.0
C2168 C 0.13505 0.64111 0.34938 0.0
H2169 H 0.19468 0.6372 0.37691 0.0
H2170 H 0.16436 0.66905 0.36427 0.0
C2171 C 0.12872 0.6147 0.34522 0.0
C2172 C -0.0074 0.62592 0.35712 0.0
C2173 C 0.98472 0.64834 0.34643 0.0
H2174 H 0.9809 0.58903 0.36882 0.0
C2175 C 0.95967 0.64939 0.33592 0.0
H2176 H 0.01175 0.62492 0.36565 0.0
C2177 C 0.94226 0.62874 0.33722 0.0
C2178 C 0.94948 0.60721 0.34985 0.0
H2179 H 0.95323 0.66668 0.32782 0.0
H2180 H 0.9227 0.63036 0.32993 0.0
C2181 C 0.97493 0.6056 0.35917 0.0
C2182 C 0.9912 0.46317 0.37993 0.0
C2183 C 0.98908 0.43904 0.36578 0.0
H2184 H 0.97359 0.49942 0.38917 0.0
C2185 C 0.96863 0.43406 0.34775 0.0
H2186 H 0.00691 0.46762 0.39375 0.0
C2187 C 0.94967 0.45221 0.34528 0.0
C2188 C 0.95108 0.47558 0.36058 0.0
H2189 H 0.96657 0.4157 0.33648 0.0
H2190 H 0.93329 0.44755 0.33231 0.0
C2191 C 0.97233 0.48139 0.37724 0.0
C2192 C 0.20077 0.6552 0.66943 0.0
C2193 C 0.22551 0.65132 0.65968 0.0
H2194 H 0.17024 0.64024 0.69134 0.0
C2195 C 0.24004 0.631 0.66752 0.0
H2196 H 0.1896 0.67137 0.66436 0.0
C2197 C 0.22909 0.6135 0.68325 0.0
C2198 C 0.20351 0.61614 0.69109 0.0
H2199 H 0.25924 0.62789 0.66042 0.0
H2200 H 0.24028 0.59743 0.6886 0.0
C2201 C 0.18975 0.63759 0.6849 0.0
C2202 C 0.95362 0.71173 0.61389 0.0
C2203 C 0.95103 0.73735 0.60798 0.0
H2204 H 0.97204 0.68598 0.63788 0.0
C2205 C 0.96801 0.75645 0.6195 0.0
H2206 H 0.94049 0.69667 0.60562 0.0
C2207 C 0.9864 0.75024 0.6378 0.0
C2208 C 0.98747 0.72496 0.64533 0.0
H2209 H 0.96623 0.77633 0.61527 0.0
H2210 H -0.00181 0.76566 0.64758 0.0
C2211 C 0.97168 0.70558 0.63241 0.0
C2212 C 0.81298 0.45001 0.65163 0.0
C2213 C 0.82512 0.47408 0.64972 0.0
H2214 H 0.80881 0.41087 0.6355 0.0
C2215 C 0.83977 0.47834 0.62821 0.0
H2216 H 0.80149 0.44655 0.66813 0.0
C2217 C 0.84405 0.45819 0.60984 0.0
C2218 C 0.8336 0.43354 0.61264 0.0
H2219 H 0.84934 0.49681 0.62647 0.0
H2220 H 0.8566 0.46163 0.5941 0.0
C2221 C 0.81709 0.42976 0.63302 0.0
C2222 C 0.12344 0.36458 0.64632 0.0
C2223 C 0.13282 0.33944 0.64342 0.0
H2224 H 0.09644 0.39003 0.66492 0.0
C2225 C 0.12173 0.32045 0.65763 0.0
H2226 H 0.13204 0.37988 0.63633 0.0
C2227 C 0.10127 0.32633 0.67393 0.0
C2228 C 0.09195 0.35141 0.67665 0.0
H2229 H 0.1288 0.30104 0.65604 0.0
H2230 H 0.09285 0.31137 0.68459 0.0
C2231 C 0.10326 0.37052 0.66288 0.0
C2232 C 0.20672 0.45043 0.46551 0.0
C2233 C 0.22818 0.44376 0.4803 0.0
H2234 H 0.19166 0.47466 0.43789 0.0
C2235 C 0.25167 0.45746 0.47818 0.0
H2236 H 0.18834 0.44031 0.4665 0.0
C2237 C 0.25345 0.4775 0.46171 0.0
C2238 C 0.23183 0.484 0.44708 0.0
H2239 H 0.26854 0.45282 0.48931 0.0
H2240 H 0.27175 0.4876 0.46012 0.0
C2241 C 0.20857 0.47015 0.44908 0.0
C2242 C 0.0719 0.71472 0.47238 0.0
C2243 C 0.07728 0.7311 0.45313 0.0
H2244 H 0.08508 0.69998 0.50729 0.0
C2245 C 0.09875 0.74807 0.45604 0.0
H2246 H 0.05542 0.70146 0.47034 0.0
C2247 C 0.11572 0.74735 0.47715 0.0
C2248 C 0.11154 0.72941 0.49542 0.0
H2249 H 0.10314 0.7608 0.44123 0.0
H2250 H 0.1329 0.75967 0.47826 0.0
C2251 C 0.08896 0.7138 0.49336 0.0
C2252 C 0.83753 0.5975 0.46253 0.0
C2253 C 0.83413 0.62306 0.45692 0.0
H2254 H 0.84642 0.55931 0.44792 0.0
C2255 C 0.83536 0.62946 0.4314 0.0
H2256 H 0.83727 0.59239 0.48225 0.0
C2257 C 0.8415 0.61078 0.4119 0.0
C2258 C 0.84592 0.58537 0.41765 0.0
H2259 H 0.83349 0.64925 0.42684 0.0
H2260 H 0.84353 0.61634 0.39247 0.0
C2261 C 0.84295 0.57868 0.44296 0.0
C2262 C -0.00854 0.31635 0.47179 0.0
C2263 C 0.97041 0.33204 0.47677 0.0
H2264 H 0.02599 0.31081 0.4509 0.0
C2265 C 0.96899 0.35569 0.46584 0.0
H2266 H -0.00719 0.29803 0.48008 0.0
C2267 C 0.9877 0.36295 0.44897 0.0
C2268 C 0.00819 0.3467 0.44296 0.0
H2269 H 0.95266 0.3679 0.46905 0.0
H2270 H 0.98547 0.38065 0.43972 0.0
C2271 C 0.01045 0.3238 0.45526 0.0
C2272 C 0.13791 0.78048 0.63597 0.0
C2273 C 0.1512 0.75744 0.63726 0.0
H2274 H 0.11015 0.80548 0.65395 0.0
C2275 C 0.15186 0.74563 0.66048 0.0
H2276 H 0.13814 0.79072 0.61874 0.0
C2277 C 0.1375 0.75515 0.68109 0.0
C2278 C 0.12118 0.77577 0.67835 0.0
H2279 H 0.16191 0.72791 0.66221 0.0
H2280 H 0.13689 0.74457 0.69812 0.0
C2281 C 0.12257 0.78942 0.65635 0.0
C2282 C 0.17042 0.32265 0.44886 0.0
C2283 C 0.14605 0.31193 0.453 0.0
H2284 H 0.20381 0.34263 0.46593 0.0
C2285 C 0.13752 0.31058 0.47818 0.0
H2286 H 0.17705 0.32424 0.42949 0.0
C2287 C 0.1527 0.32109 0.49904 0.0
C2288 C 0.17636 0.3335 0.49485 0.0
H2289 H 0.11852 0.30267 0.48157 0.0
H2290 H 0.14535 0.32066 0.51827 0.0
C2291 C 0.18543 0.33354 0.46966 0.0
C2292 C 0.18539 0.64492 0.49171 0.0
C2293 C 0.2051 0.65356 0.50937 0.0
H2294 H 0.17494 0.62079 0.4578 0.0
C2295 C 0.22994 0.64369 0.50651 0.0
H2296 H 0.16616 0.65236 0.49344 0.0
C2297 C 0.2352 0.62618 0.48567 0.0
C2298 C 0.21551 0.61782 0.46787 0.0
H2299 H 0.24556 0.65034 0.51974 0.0
H2300 H 0.25457 0.61923 0.48345 0.0
C2301 C 0.19047 0.62694 0.47134 0.0
C2302 C 0.90247 0.69766 0.44637 0.0
C2303 C 0.90239 0.71655 0.46718 0.0
H2304 H 0.92178 0.68277 0.41277 0.0
C2305 C 0.92095 0.73684 0.46836 0.0
H2306 H 0.88852 0.68175 0.44491 0.0
C2307 C 0.93965 0.73777 0.44944 0.0
C2308 C 0.94039 0.71808 0.42947 0.0
H2309 H 0.9213 0.75171 0.48415 0.0
H2310 H 0.95427 0.75306 0.45116 0.0
C2311 C 0.92148 0.69824 0.42795 0.0
C2312 C 0.87031 0.42331 0.46935 0.0
C2313 C 0.85065 0.40928 0.48021 0.0
H2314 H 0.88041 0.44834 0.44066 0.0
C2315 C 0.82548 0.40918 0.46972 0.0
H2316 H 0.88993 0.42317 0.47691 0.0
C2317 C 0.81995 0.42369 0.44895 0.0
C2318 C 0.83952 0.43852 0.43872 0.0
H2319 H 0.81023 0.39778 0.47744 0.0
H2320 H 0.80045 0.42358 0.44109 0.0
C2321 C 0.8648 0.43779 0.44877 0.0
C2322 C 0.92181 0.37362 0.63185 0.0
C2323 C 0.92004 0.35186 0.61418 0.0
H2324 H 0.94058 0.39176 0.66573 0.0
C2325 C 0.93575 0.33081 0.61777 0.0
H2326 H 0.90994 0.39009 0.62945 0.0
C2327 C 0.95285 0.33149 0.63898 0.0
C2328 C 0.95491 0.35354 0.65626 0.0
H2329 H 0.93456 0.31376 0.6044 0.0
H2330 H 0.96482 0.31514 0.64154 0.0
C2331 C 0.93936 0.37459 0.65251 0.0
C2332 C 0.172 0.46834 0.64455 0.0
C2333 C 0.19222 0.48054 0.65964 0.0
H2334 H 0.16156 0.4421 0.61206 0.0
C2335 C 0.21771 0.47813 0.65133 0.0
H2336 H 0.15217 0.46997 0.65033 0.0
C2337 C 0.22297 0.46249 0.62912 0.0
C2338 C 0.20279 0.44918 0.61507 0.0
H2339 H 0.23366 0.48756 0.66245 0.0
H2340 H 0.2428 0.4595 0.62388 0.0
C2341 C 0.17729 0.45267 0.62252 0.0
C2342 C 0.82972 0.64651 0.61532 0.0
C2343 C 0.8414 0.63877 0.59203 0.0
H2344 H 0.81867 0.6359 0.65253 0.0
C2345 C 0.84916 0.61331 0.58756 0.0
H2346 H 0.82324 0.66603 0.61892 0.0
C2347 C 0.84671 0.59621 0.60666 0.0
C2348 C 0.836 0.60412 0.63044 0.0
H2349 H 0.85796 0.60691 0.5696 0.0
H2350 H 0.85378 0.57691 0.60303 0.0
C2351 C 0.82689 0.62925 0.63437 0.0
C2352 C 0.60404 0.15539 0.7649 0.0
C2353 C 0.59735 0.15698 0.73886 0.0
H2354 H 0.62806 0.13741 0.79196 0.0
C2355 C 0.61017 0.14225 0.7198 0.0
H2356 H 0.5944 0.16696 0.77977 0.0
C2357 C 0.62895 0.12541 0.72669 0.0
C2358 C 0.63524 0.12316 0.75272 0.0
H2359 H 0.60529 0.14346 0.69962 0.0
H2360 H 0.63849 0.11407 0.71162 0.0
C2361 C 0.62313 0.13865 0.77181 0.0
C2362 C 0.43917 0.08816 0.71423 0.0
C2363 C 0.41476 0.0982 0.71888 0.0
H2364 H 0.47953 0.0968 0.7111 0.0
C2365 C 0.41241 0.12438 0.72662 0.0
H2366 H 0.44126 0.06793 0.70827 0.0
C2367 C 0.43419 0.14055 0.72909 0.0
C2368 C 0.45847 0.13086 0.72307 0.0
H2369 H 0.3937 0.13236 0.7305 0.0
H2370 H 0.43184 0.16087 0.7344 0.0
C2371 C 0.46093 0.10454 0.71589 0.0
C2372 C 0.44523 0.91795 0.71309 0.0
C2373 C 0.46503 0.91581 0.73161 0.0
H2374 H 0.41172 0.93813 0.70211 0.0
C2375 C 0.46606 0.9332 0.75374 0.0
H2376 H 0.44391 0.90488 0.69583 0.0
C2377 C 0.44729 0.95191 0.75752 0.0
C2378 C 0.42767 0.95401 0.73889 0.0
H2379 H 0.48099 0.93195 0.76842 0.0
H2380 H 0.44814 0.9648 0.77491 0.0
C2381 C 0.42688 0.93701 0.71658 0.0
C2382 C 0.60947 0.96152 0.7635 0.0
C2383 C 0.61499 0.93529 0.76314 0.0
H2384 H 0.62324 -0.00071 0.75628 0.0
C2385 C 0.63942 0.92701 0.75586 0.0
H2386 H 0.59069 0.96825 0.76906 0.0
C2387 C 0.65779 0.94454 0.74811 0.0
C2388 C 0.65221 0.97076 0.74789 0.0
H2389 H 0.64398 0.90681 0.75518 0.0
H2390 H 0.67634 0.93748 0.74215 0.0
C2391 C 0.62803 0.97919 0.75612 0.0
C2392 C 0.60511 0.91607 0.34806 0.0
C2393 C 0.58961 0.90316 0.32862 0.0
H2394 H 0.63608 0.94294 0.35728 0.0
C2395 C 0.59426 0.90669 0.30272 0.0
H2396 H 0.60183 0.91336 0.36812 0.0
C2397 C 0.61409 0.92357 0.29641 0.0
C2398 C 0.62898 0.93726 0.31602 0.0
H2399 H 0.58254 0.89651 0.2875 0.0
H2400 H 0.61745 0.92634 0.27639 0.0
C2401 C 0.62459 0.93302 0.34181 0.0
C2402 C 0.6303 0.08162 0.33077 0.0
C2403 C 0.65583 0.08832 0.3388 0.0
H2404 H 0.59346 0.09516 0.31885 0.0
C2405 C 0.66389 0.11437 0.34016 0.0
H2406 H 0.62354 0.06173 0.32948 0.0
C2407 C 0.64696 0.13326 0.33349 0.0
C2408 C 0.6214 0.12663 0.32585 0.0
H2409 H 0.68348 0.12019 0.34604 0.0
H2410 H 0.65371 0.15317 0.33484 0.0
C2411 C 0.61314 0.10068 0.32465 0.0
C2412 C 0.47249 0.13698 0.33845 0.0
C2413 C 0.47695 0.1553 0.35945 0.0
H2414 H 0.4489 0.10481 0.32249 0.0
C2415 C 0.46136 0.15473 0.38106 0.0
H2416 H 0.48425 0.13709 0.32158 0.0
C2417 C 0.44166 0.13629 0.38173 0.0
C2418 C 0.43676 0.11829 0.36063 0.0
H2419 H 0.46447 0.1685 0.39763 0.0
H2420 H 0.43002 0.13639 0.3987 0.0
C2421 C 0.45224 0.11872 0.33891 0.0
C2422 C 0.47159 0.95675 0.3763 0.0
C2423 C 0.46631 0.93735 0.35633 0.0
H2424 H 0.46026 0.99286 0.39473 0.0
C2425 C 0.4474 0.94128 0.33747 0.0
H2426 H 0.48622 0.95437 0.39101 0.0
C2427 C 0.43286 0.96345 0.33955 0.0
C2428 C 0.43717 0.98191 0.36041 0.0
H2429 H 0.44302 0.92676 0.3218 0.0
H2430 H 0.41729 0.96552 0.32573 0.0
C2431 C 0.45701 0.97886 0.37837 0.0
C2432 C 0.74527 0.10011 0.66639 0.0
C2433 C 0.7338 0.07707 0.65523 0.0
H2434 H 0.76224 0.13674 0.65995 0.0
C2435 C 0.73365 0.07182 0.62846 0.0
H2436 H 0.74637 0.10412 0.68711 0.0
C2437 C 0.74318 0.09025 0.61293 0.0
C2438 C 0.75274 0.11421 0.62401 0.0
H2439 H 0.72542 0.05385 0.61957 0.0
H2440 H 0.74251 0.08596 0.59227 0.0
C2441 C 0.75463 0.11858 0.65089 0.0
C2442 C 0.47133 0.23713 0.6383 0.0
C2443 C 0.47725 0.2138 0.64846 0.0
H2444 H 0.44573 0.25637 0.61378 0.0
C2445 C 0.46324 0.19127 0.63994 0.0
H2446 H 0.4818 0.25479 0.64486 0.0
C2447 C 0.443 0.19212 0.62214 0.0
C2448 C 0.43607 0.21563 0.61302 0.0
H2449 H 0.46749 0.17309 0.6476 0.0
H2450 H 0.43214 0.17449 0.61631 0.0
C2451 C 0.4506 0.2381 0.62086 0.0
C2452 C 0.34512 0.96578 0.59649 0.0
C2453 C 0.33076 0.94314 0.59962 0.0
H2454 H 0.35506 0.00404 0.61211 0.0
C2455 C 0.31186 0.94309 0.6184 0.0
H2456 H 0.35946 0.96637 0.58178 0.0
C2457 C 0.3094 0.96468 0.6357 0.0
C2458 C 0.32559 0.98633 0.63397 0.0
H2459 H 0.30045 0.92584 0.62096 0.0
H2460 H 0.29638 0.96376 0.65155 0.0
C2461 C 0.34242 0.98737 0.61355 0.0
C2462 C 0.61509 0.86838 0.62264 0.0
C2463 C 0.62517 0.84482 0.61288 0.0
H2464 H 0.58862 0.88758 0.64807 0.0
C2465 C 0.61503 0.82188 0.62156 0.0
H2466 H 0.62244 0.88649 0.61659 0.0
C2467 C 0.59522 0.82262 0.63957 0.0
C2468 C 0.58553 0.84631 0.64935 0.0
H2469 H 0.62236 0.80345 0.61445 0.0
H2470 H 0.58783 0.80479 0.64621 0.0
C2471 C 0.59569 0.8691 0.64072 0.0
C2472 C 0.74528 0.9283 0.42929 0.0
C2473 C 0.74123 0.93352 0.45575 0.0
H2474 H 0.74256 0.94195 0.39164 0.0
C2475 C 0.73217 0.95776 0.46456 0.0
H2476 H 0.75251 0.90991 0.42192 0.0
C2477 C 0.72611 0.97588 0.44718 0.0
C2478 C 0.72917 0.97022 0.42068 0.0
H2479 H 0.7298 0.96284 0.48486 0.0
H2480 H 0.71869 -0.00577 0.45444 0.0
C2481 C 0.73932 0.94648 0.41193 0.0
C2482 C 0.64884 0.23399 0.44923 0.0
C2483 C 0.64548 0.21896 0.47011 0.0
H2484 H 0.63188 0.24645 0.41453 0.0
C2485 C 0.6214 0.20699 0.47348 0.0
H2486 H 0.66726 0.24338 0.44626 0.0
C2487 C 0.60131 0.20904 0.45568 0.0
C2488 C 0.60514 0.22275 0.43408 0.0
H2489 H 0.61824 0.19552 0.48959 0.0
H2490 H 0.58312 0.199 0.4582 0.0
C2491 C 0.62877 0.2357 0.43115 0.0
C2492 C 0.322 0.14218 0.42028 0.0
C2493 C 0.31293 0.1371 0.4445 0.0
H2494 H 0.33784 0.1268 0.38502 0.0
C2495 C 0.31073 0.11148 0.45087 0.0
H2496 H 0.32402 0.16178 0.41498 0.0
C2497 C 0.31852 0.09132 0.43364 0.0
C2498 C 0.32897 0.09657 0.40994 0.0
H2499 H 0.30363 0.10713 0.46942 0.0
H2500 H 0.3173 0.0718 0.43927 0.0
C2501 C 0.33014 0.12215 0.40325 0.0
C2502 C 0.45768 0.80465 0.44692 0.0
C2503 C 0.43842 0.82163 0.45464 0.0
H2504 H 0.48975 0.7978 0.42268 0.0
C2505 C 0.43705 0.84557 0.44422 0.0
H2506 H 0.45895 0.78611 0.45478 0.0
C2507 C 0.45434 0.85222 0.42579 0.0
C2508 C 0.4734 0.8351 0.41769 0.0
H2509 H 0.42209 0.85885 0.44958 0.0
H2510 H 0.45241 0.87047 0.41748 0.0
C2511 C 0.47532 0.81148 0.42877 0.0
C2512 C 0.64546 0.20983 0.61686 0.0
C2513 C 0.65944 0.22765 0.60371 0.0
H2514 H 0.61749 0.20401 0.64513 0.0
C2515 C 0.65649 0.25412 0.60995 0.0
H2516 H 0.64787 0.18934 0.6127 0.0
C2517 C 0.63854 0.26262 0.62811 0.0
C2518 C 0.62354 0.24467 0.64024 0.0
H2519 H 0.6679 0.26818 0.60065 0.0
H2520 H 0.636 0.28308 0.63227 0.0
C2521 C 0.62789 0.21827 0.63518 0.0
C2522 C 0.62225 0.8343 0.43038 0.0
C2523 C 0.61268 0.80881 0.42727 0.0
H2524 H 0.64309 0.86305 0.45459 0.0
C2525 C 0.61961 0.7915 0.44525 0.0
H2526 H 0.61739 0.84789 0.41653 0.0
C2527 C 0.63493 0.8001 0.46688 0.0
C2528 C 0.64301 0.82611 0.47078 0.0
H2529 H 0.61252 0.7717 0.443 0.0
H2530 H 0.64029 0.78652 0.48058 0.0
C2531 C 0.63685 0.84299 0.45215 0.0
C2532 C 0.72484 0.11576 0.48504 0.0
C2533 C 0.73217 0.14102 0.48055 0.0
H2534 H 0.71627 0.07755 0.4681 0.0
C2535 C 0.73939 0.1467 0.45584 0.0
H2536 H 0.71913 0.11108 0.504 0.0
C2537 C 0.73851 0.1275 0.4356 0.0
C2538 C 0.72959 0.10263 0.43973 0.0
H2539 H 0.74521 0.16613 0.45209 0.0
H2540 H 0.74342 0.13243 0.41651 0.0
C2541 C 0.72314 0.09672 0.46461 0.0
C2542 C 0.44642 0.23908 0.44565 0.0
C2543 C 0.46942 0.22607 0.44931 0.0
H2544 H 0.40838 0.24661 0.45936 0.0
C2545 C 0.47224 0.21179 0.47087 0.0
H2546 H 0.44367 0.25006 0.42909 0.0
C2547 C 0.45221 0.2099 0.48803 0.0
C2548 C 0.42885 0.22187 0.48372 0.0
H2549 H 0.48978 0.20161 0.47421 0.0
H2550 H 0.45472 0.19851 0.50434 0.0
C2551 C 0.42618 0.23687 0.4627 0.0
C2552 C 0.30837 0.91754 0.46312 0.0
C2553 C 0.33382 0.90989 0.46722 0.0
H2554 H 0.2831 0.93991 0.44109 0.0
C2555 C 0.35293 0.91661 0.45031 0.0
H2556 H 0.29313 0.91169 0.47539 0.0
C2557 C 0.34706 0.93202 0.43053 0.0
C2558 C 0.3221 0.94118 0.42754 0.0
H2559 H 0.37256 0.91052 0.45284 0.0
H2560 H 0.36218 0.93716 0.41789 0.0
C2561 C 0.30258 0.93337 0.44349 0.0
C2562 C 0.42131 0.82712 0.6019 0.0
C2563 C 0.40747 0.84965 0.59919 0.0
H2564 H 0.45086 0.80903 0.62314 0.0
C2565 C 0.41313 0.87154 0.61602 0.0
H2566 H 0.41719 0.80994 0.58918 0.0
C2567 C 0.43262 0.87117 0.6348 0.0
C2568 C 0.44639 0.8487 0.63766 0.0
H2569 H 0.40285 0.88917 0.61432 0.0
H2570 H 0.43681 0.88852 0.64726 0.0
C2571 C 0.4404 0.82652 0.62131 0.0
C2572 C 0.71559 0.9336 0.5984 0.0
C2573 C 0.71931 0.90783 0.60303 0.0
H2574 H 0.71127 0.9721 0.61513 0.0
C2575 C 0.7244 0.90142 0.62827 0.0
H2576 H 0.71152 0.93892 0.57909 0.0
C2577 C 0.72506 0.92048 0.64873 0.0
C2578 C 0.71977 0.94595 0.64421 0.0
H2579 H 0.72738 0.88161 0.6322 0.0
H2580 H 0.7283 0.9151 0.66815 0.0
C2581 C 0.71538 0.95248 0.61893 0.0
C2582 C 0.33586 0.13469 0.58561 0.0
C2583 C 0.33372 0.16064 0.59463 0.0
H2584 H 0.33938 0.09583 0.59573 0.0
C2585 C 0.33005 0.16688 0.62103 0.0
H2586 H 0.33899 0.1294 0.56542 0.0
C2587 C 0.3295 0.14762 0.63824 0.0
C2588 C 0.33352 0.12191 0.62946 0.0
H2589 H 0.32847 0.18678 0.62846 0.0
H2590 H 0.32763 0.15305 0.65859 0.0
C2591 C 0.33621 0.11554 0.60295 0.0
C2592 C 0.63944 0.66954 0.24842 0.0
C2593 C 0.61329 0.6662 0.25395 0.0
H2594 H 0.67799 0.65748 0.25492 0.0
C2595 C 0.60639 0.64993 0.27303 0.0
H2596 H 0.64535 0.68179 0.23372 0.0
C2597 C 0.62498 0.6354 0.28452 0.0
C2598 C 0.65084 0.63775 0.27786 0.0
H2599 H 0.58652 0.64769 0.27842 0.0
H2600 H 0.61902 0.62148 0.29768 0.0
C2601 C 0.65812 0.65568 0.26056 0.0
C2602 C 0.44533 0.60024 0.23197 0.0
C2603 C 0.41991 0.60368 0.22336 0.0
H2604 H 0.48398 0.61603 0.2354 0.0
C2605 C 0.41414 0.62585 0.21094 0.0
H2606 H 0.45034 0.58329 0.2415 0.0
C2607 C 0.43312 0.64435 0.20754 0.0
C2608 C 0.45843 0.64121 0.21636 0.0
H2609 H 0.39481 0.62913 0.20385 0.0
H2610 H 0.42782 0.6612 0.19798 0.0
C2611 C 0.46453 0.6189 0.22845 0.0
C2612 C 0.48203 0.44118 0.27484 0.0
C2613 C 0.47821 0.42285 0.25364 0.0
H2614 H 0.4672 0.47429 0.29643 0.0
C2615 C 0.45633 0.42445 0.23747 0.0
H2616 H 0.49866 0.44038 0.28767 0.0
C2617 C 0.43877 0.44396 0.24226 0.0
C2618 C 0.44252 0.46207 0.26347 0.0
H2619 H 0.45284 0.41072 0.22093 0.0
H2620 H 0.42207 0.44477 0.22951 0.0
C2621 C 0.46411 0.46048 0.27989 0.0
C2622 C 0.6383 0.49012 0.26855 0.0
C2623 C 0.66159 0.48334 0.25699 0.0
H2624 H 0.60314 0.47643 0.28432 0.0
C2625 C 0.6683 0.45732 0.25445 0.0
H2626 H 0.63274 0.51005 0.27078 0.0
C2627 C 0.65181 0.43836 0.26274 0.0
C2628 C 0.62807 0.44499 0.27322 0.0
H2629 H 0.68628 0.45157 0.24589 0.0
H2630 H 0.65714 0.41839 0.25991 0.0
C2631 C 0.62147 0.471 0.27632 0.0
C2632 C 0.60321 0.4399 0.84861 0.0
C2633 C 0.59983 0.41511 0.83667 0.0
H2634 H 0.62302 0.47571 0.84953 0.0
C2635 C 0.61345 0.40778 0.81446 0.0
H2636 H 0.59286 0.44575 0.86583 0.0
C2637 C 0.63031 0.42547 0.80421 0.0
C2638 C 0.63353 0.4506 0.81606 0.0
H2639 H 0.61076 0.38861 0.80493 0.0
H2640 H 0.6409 0.41954 0.78719 0.0
C2641 C 0.62007 0.45732 0.83867 0.0
C2642 C 0.65755 0.62711 0.84615 0.0
C2643 C 0.65018 0.60086 0.84305 0.0
H2644 H 0.64653 0.66603 0.84269 0.0
C2645 C 0.62508 0.59391 0.83382 0.0
H2646 H 0.6768 0.63312 0.85302 0.0
C2647 C 0.60761 0.61289 0.82824 0.0
C2648 C 0.61515 0.63907 0.83125 0.0
H2649 H 0.61884 0.57387 0.83123 0.0
H2650 H 0.58828 0.60714 0.82145 0.0
C2651 C 0.64032 0.64596 0.84003 0.0
C2652 C 0.46043 0.64208 0.83687 0.0
C2653 C 0.46924 0.65666 0.85931 0.0
H2654 H 0.43445 0.61182 0.82088 0.0
C2655 C 0.45979 0.65102 0.8832 0.0
H2656 H 0.46749 0.6463 0.81826 0.0
C2657 C 0.44141 0.63145 0.88477 0.0
C2658 C 0.43175 0.61736 0.86239 0.0
H2659 H 0.46653 0.6619 0.90075 0.0
H2660 H 0.43433 0.6278 0.90354 0.0
C2661 C 0.44148 0.62264 0.83837 0.0
C2662 C 0.43606 0.4628 0.84073 0.0
C2663 C 0.43631 0.48343 0.85967 0.0
H2664 H 0.45246 0.42696 0.82807 0.0
C2665 C 0.45524 0.48534 0.87932 0.0
H2666 H 0.42129 0.46105 0.82561 0.0
C2667 C 0.47287 0.4658 0.88101 0.0
C2668 C 0.47163 0.44416 0.86305 0.0
H2669 H 0.45537 0.50113 0.8942 0.0
H2670 H 0.48664 0.46711 0.89702 0.0
C2671 C 0.45371 0.44329 0.84233 0.0
C2672 C 0.70894 0.623 0.16093 0.0
C2673 C 0.72525 0.60326 0.16684 0.0
H2674 H 0.70414 0.65641 0.14054 0.0
C2675 C 0.75034 0.60281 0.15733 0.0
H2676 H 0.68979 0.62409 0.16869 0.0
C2677 C 0.7583 0.62077 0.1405 0.0
C2678 C 0.74135 0.63955 0.13328 0.0
H2679 H 0.76358 0.58825 0.1625 0.0
H2680 H 0.77733 0.61944 0.13249 0.0
C2681 C 0.71706 0.64121 0.14455 0.0
C2682 C 0.50159 0.74805 0.13624 0.0
C2683 C 0.50317 0.7223 0.14237 0.0
H2684 H 0.47881 0.77604 0.11875 0.0
C2685 C 0.48435 0.70422 0.13219 0.0
H2686 H 0.51564 0.76254 0.14399 0.0
C2687 C 0.46332 0.71207 0.11806 0.0
C2688 C 0.46089 0.73804 0.11341 0.0
H2689 H 0.48486 0.68431 0.13669 0.0
H2690 H 0.44822 0.69799 0.11205 0.0
C2691 C 0.48041 0.7559 0.12209 0.0
C2692 C 0.34902 0.48548 0.13878 0.0
C2693 C 0.33609 0.48078 0.16124 0.0
H2694 H 0.36212 0.46967 0.10247 0.0
C2695 C 0.32359 0.45688 0.1632 0.0
H2696 H 0.3588 0.50384 0.13702 0.0
C2697 C 0.32517 0.43736 0.14325 0.0
C2698 C 0.33966 0.44156 0.12151 0.0
H2699 H 0.31351 0.45305 0.18048 0.0
H2700 H 0.31643 0.41862 0.14553 0.0
C2701 C 0.35096 0.46596 0.11913 0.0
C2702 C 0.60182 0.367 0.14572 0.0
C2703 C 0.5919 0.3486 0.16119 0.0
H2704 H 0.62731 0.37485 0.1157 0.0
C2705 C 0.60011 0.32315 0.15779 0.0
H2706 H 0.59581 0.38677 0.14824 0.0
C2707 C 0.61824 0.31623 0.13919 0.0
C2708 C 0.62803 0.33455 0.12339 0.0
H2709 H 0.5927 0.30873 0.16972 0.0
H2710 H 0.62462 0.29656 0.13715 0.0
C2711 C 0.61963 0.36003 0.1269 0.0
C2712 C 0.73379 0.4493 0.94921 0.0
C2713 C 0.71043 0.43923 0.95783 0.0
H2714 H 0.75191 0.47654 0.92593 0.0
C2715 C 0.6872 0.44992 0.94992 0.0
H2716 H 0.752 0.44159 0.955 0.0
C2717 C 0.68723 0.46979 0.93354 0.0
C2718 C 0.71043 0.47956 0.92465 0.0
H2719 H 0.66881 0.44279 0.95617 0.0
H2720 H 0.66901 0.47736 0.92753 0.0
C2721 C 0.73377 0.46936 0.93275 0.0
C2722 C 0.62599 0.74761 0.95936 0.0
C2723 C 0.62111 0.73281 0.98014 0.0
H2724 H 0.61193 0.75919 0.92308 0.0
C2725 C 0.5968 0.72061 0.98167 0.0
H2726 H 0.64458 0.75715 0.95766 0.0
C2727 C 0.57821 0.72202 0.96212 0.0
C2728 C 0.58375 0.73534 0.94058 0.0
H2729 H 0.59245 0.7092 -0.00245 0.0
H2730 H 0.55997 0.71162 0.9632 0.0
C2731 C 0.60745 0.74871 0.93958 0.0
C2732 C 0.34164 0.58218 0.95372 0.0
C2733 C 0.33796 0.58948 0.92864 0.0
H2734 H 0.34483 0.59492 -0.00619 0.0
C2735 C 0.3308 0.6147 0.92487 0.0
H2736 H 0.34737 0.56288 0.95701 0.0
C2737 C 0.32853 0.63276 0.94592 0.0
C2738 C 0.3342 0.62593 0.97084 0.0
H2739 H 0.3278 0.62064 0.90562 0.0
H2740 H 0.32428 0.65246 0.94256 0.0
C2741 C 0.34017 0.60042 0.97469 0.0
C2742 C 0.47245 0.36102 0.94074 0.0
C2743 C 0.49015 0.34318 0.93082 0.0
H2744 H 0.44201 0.36851 0.96676 0.0
C2745 C 0.49186 0.31927 0.94134 0.0
H2746 H 0.47072 0.37956 0.93297 0.0
C2747 C 0.47515 0.31281 0.96052 0.0
C2748 C 0.45705 0.33043 0.96992 0.0
H2749 H 0.50526 0.30507 0.93392 0.0
H2750 H 0.47604 0.29391 0.96767 0.0
C2751 C 0.45614 0.35474 0.96023 0.0
C2752 C 0.64369 0.78632 0.14375 0.0
C2753 C 0.64273 0.77118 0.16471 0.0
H2754 H 0.65769 0.78961 0.10579 0.0
C2755 C 0.65849 0.74986 0.16535 0.0
H2756 H 0.63172 0.80298 0.14302 0.0
C2757 C 0.67157 0.74117 0.14358 0.0
C2758 C 0.67033 0.75453 0.12131 0.0
H2759 H 0.65823 0.73815 0.18158 0.0
H2760 H 0.68089 0.72285 0.14367 0.0
C2761 C 0.65787 0.77821 0.12222 0.0
C2762 C 0.63854 0.31535 0.97585 0.0
C2763 C 0.662 0.32762 0.97061 0.0
H2764 H 0.60315 0.29798 0.96005 0.0
C2765 C 0.66939 0.32844 0.9449 0.0
H2766 H 0.63243 0.31431 -0.00453 0.0
C2767 C 0.65292 0.31855 0.92477 0.0
C2768 C 0.62874 0.30804 0.93008 0.0
H2769 H 0.68754 0.33746 0.9403 0.0
H2770 H 0.65829 0.32078 0.90511 0.0
C2771 C 0.62193 0.30581 0.95569 0.0
C2772 C 0.72734 0.61818 0.96211 0.0
C2773 C 0.70506 0.61279 0.94673 0.0
H2774 H 0.74451 0.64087 -0.00559 0.0
C2775 C 0.68218 0.62536 0.95299 0.0
H2776 H 0.74511 0.6085 0.95768 0.0
C2777 C 0.68193 0.64411 0.97357 0.0
C2778 C 0.70437 0.65 0.98858 0.0
H2779 H 0.66474 0.62148 0.94133 0.0
H2780 H 0.66437 0.65437 0.97743 0.0
C2781 C 0.72691 0.63645 0.98317 0.0
C2782 C 0.41273 0.70137 0.96146 0.0
C2783 C 0.4092 0.72117 0.98085 0.0
H2784 H 0.43429 0.68802 0.9288 0.0
C2785 C 0.42425 0.74408 0.98081 0.0
H2786 H 0.40153 0.68351 0.96093 0.0
C2787 C 0.44266 0.74692 0.96185 0.0
C2788 C 0.44668 0.72664 0.94312 0.0
H2789 H 0.42187 0.75972 -0.00453 0.0
H2790 H 0.4544 0.76445 0.96243 0.0
C2791 C 0.43148 0.70396 0.94304 0.0
C2792 C 0.31227 0.43076 0.95636 0.0
C2793 C 0.33129 0.44298 0.9427 0.0
H2794 H 0.30448 0.40747 0.98755 0.0
C2795 C 0.35739 0.43994 0.94907 0.0
H2796 H 0.29205 0.43252 0.95139 0.0
C2797 C 0.36442 0.42604 0.96965 0.0
C2798 C 0.34546 0.41488 0.98413 0.0
H2799 H 0.37242 0.44858 0.93833 0.0
H2800 H 0.38467 0.42431 0.97452 0.0
C2801 C 0.31934 0.41675 0.97706 0.0
C2802 C 0.45256 0.33501 0.13873 0.0
C2803 C 0.45493 0.35666 0.15652 0.0
H2804 H 0.43325 0.31793 0.10442 0.0
C2805 C 0.43871 0.37747 0.15416 0.0
H2806 H 0.46509 0.31887 0.1402 0.0
C2807 C 0.42032 0.37674 0.13427 0.0
C2808 C 0.41834 0.35548 0.11597 0.0
H2809 H 0.44023 0.39434 0.16778 0.0
H2810 H 0.40806 0.39311 0.13285 0.0
C2811 C 0.43458 0.33459 0.11828 0.0
C2812 C 0.72764 0.44937 0.1053 0.0
C2813 C 0.704 0.44145 0.0933 0.0
H2814 H 0.74656 0.46939 0.13831 0.0
C2815 C 0.68095 0.44922 0.1045 0.0
H2816 H 0.74559 0.4429 0.09716 0.0
C2817 C 0.68139 0.46397 0.12798 0.0
C2818 C 0.70494 0.47091 0.1408 0.0
H2819 H 0.66255 0.44273 0.09569 0.0
H2820 H 0.66321 0.46909 0.1365 0.0
C2821 C 0.72813 0.46407 0.12897 0.0
C2822 C 0.35087 0.60231 0.12177 0.0
C2823 C 0.34116 0.61058 0.14592 0.0
H2824 H 0.36124 0.61251 0.0843 0.0
C2825 C 0.33285 0.63599 0.15007 0.0
H2826 H 0.35736 0.58282 0.11797 0.0
C2827 C 0.3355 0.65312 0.13081 0.0
C2828 C 0.34623 0.64499 0.1071 0.0
H2829 H 0.32547 0.64294 0.16853 0.0
H2830 H 0.32961 0.67282 0.13457 0.0
C2831 C 0.35316 0.61926 0.10251 0.0
loop_
_geom_bond_atom_site_label_1
_geom_bond_atom_site_label_2
_geom_bond_distance
_geom_bond_site_symmetry_2
_ccdc_geom_bond_type
Co0 O3 1.970 1_455 S
Co0 N17 1.989 . S
Co0 O25 1.967 . S
Co0 O32 1.920 1_455 S
Co1 O4 1.966 . S
Co1 N10 2.022 . S
Co1 N18 1.993 . S
Co1 O26 1.941 . S
C2 O3 1.258 . S
C2 O4 1.263 1_655 S
O3 Co0 1.970 1_655 S
O3 C2 1.258 . S
O4 Co1 1.966 . S
O4 C2 1.263 1_455 S
C5 O6 1.235 . S
C5 O32 1.289 . S
O6 C5 1.235 . S
C7 C9 1.400 . S
C7 N10 1.351 . S
C7 C12 1.501 . S
C8 C9 1.387 . S
C8 N11 1.341 . S
C9 C7 1.400 . S
C9 C8 1.387 . S
N10 Co1 2.022 . S
N10 C7 1.351 . S
N10 N11 1.365 . S
N11 C8 1.341 . S
N11 N10 1.365 . S
N11 H31 0.862 . S
C12 C7 1.501 . S
C12 H13 0.961 . S
C12 H14 0.961 . S
C12 H15 0.960 . S
H13 C12 0.961 . S
H14 C12 0.961 . S
H15 C12 0.960 . S
C16 N17 1.342 . S
C16 C20 1.401 . S
C16 C21 1.499 . S
N17 Co0 1.989 . S
N17 C16 1.342 . S
N17 N18 1.388 . S
N18 Co1 1.993 . S
N18 N17 1.388 . S
N18 C19 1.346 . S
C19 N18 1.346 . S
C19 C20 1.396 . S
C19 C29 1.510 . S
C20 C16 1.401 . S
C20 C19 1.396 . S
C21 C16 1.499 . S
C21 H22 0.959 . S
C21 H23 0.960 . S
C21 H24 0.961 . S
H22 C21 0.959 . S
H23 C21 0.960 . S
H24 C21 0.961 . S
O25 Co0 1.967 . S
O25 C33 1.258 . S
O26 Co1 1.941 . S
O26 C33 1.266 . S
H27 C29 0.959 . S
H28 C29 0.961 . S
C29 C19 1.510 . S
C29 H27 0.959 . S
C29 H28 0.961 . S
C29 H30 0.960 . S
H30 C29 0.960 . S
H31 N11 0.862 . S
O32 Co0 1.920 1_655 S
O32 C5 1.289 . S
C33 O25 1.258 . S
C33 O26 1.266 . S
Co34 O37 1.970 . S
Co34 N51 1.989 . S
Co34 O59 1.967 . S
Co34 O66 1.920 . S
Co35 O38 1.966 . S
Co35 N44 2.022 1_545 S
Co35 N52 1.993 . S
Co35 O60 1.941 . S
C36 O37 1.258 . S
C36 O38 1.263 . S
O37 Co34 1.970 . S
O37 C36 1.258 . S
O38 Co35 1.966 . S
O38 C36 1.263 . S
C39 O40 1.235 . S
C39 O66 1.289 . S
O40 C39 1.235 . S
C41 C43 1.400 . S
C41 N44 1.351 . S
C41 C46 1.501 1_565 S
C42 C43 1.387 . S
C42 N45 1.341 . S
C43 C41 1.400 . S
C43 C42 1.387 . S
N44 Co35 2.022 1_565 S
N44 C41 1.351 . S
N44 N45 1.365 . S
N45 C42 1.341 . S
N45 N44 1.365 . S
N45 H65 0.862 . S
C46 C41 1.501 1_545 S
C46 H47 0.961 . S
C46 H48 0.961 . S
C46 H49 0.960 . S
H47 C46 0.961 . S
H48 C46 0.961 . S
H49 C46 0.960 . S
C50 N51 1.342 . S
C50 C54 1.401 1_545 S
C50 C55 1.499 . S
N51 Co34 1.989 . S
N51 C50 1.342 . S
N51 N52 1.388 . S
N52 Co35 1.993 . S
N52 N51 1.388 . S
N52 C53 1.346 1_545 S
C53 N52 1.346 1_565 S
C53 C54 1.396 . S
C53 C63 1.510 . S
C54 C50 1.401 1_565 S
C54 C53 1.396 . S
C55 C50 1.499 . S
C55 H56 0.959 . S
C55 H57 0.960 . S
C55 H58 0.961 . S
H56 C55 0.959 . S
H57 C55 0.960 . S
H58 C55 0.961 . S
O59 Co34 1.967 . S
O59 C67 1.258 . S
O60 Co35 1.941 . S
O60 C67 1.266 . S
H61 C63 0.959 . S
H62 C63 0.961 . S
C63 C53 1.510 . S
C63 H61 0.959 . S
C63 H62 0.961 . S
C63 H64 0.960 . S
H64 C63 0.960 . S
H65 N45 0.862 . S
O66 Co34 1.920 . S
O66 C39 1.289 . S
C67 O59 1.258 . S
C67 O60 1.266 . S
Co68 O71 1.981 . S
Co68 N85 1.989 . S
Co68 O93 1.967 . S
Co68 O100 1.920 1_455 S
Co69 O72 1.966 . S
Co69 N78 2.022 . S
Co69 N86 1.993 . S
Co69 O94 1.941 . S
C70 O71 1.265 . S
C70 O72 1.263 . S
O71 Co68 1.981 . S
O71 C70 1.265 . S
O72 Co69 1.966 . S
O72 C70 1.263 . S
C73 O74 1.235 . S
C73 O100 1.289 . S
O74 C73 1.235 . S
C75 C77 1.400 . S
C75 N78 1.351 . S
C75 C80 1.501 . S
C76 C77 1.387 . S
C76 N79 1.341 . S
C77 C75 1.400 . S
C77 C76 1.387 . S
N78 Co69 2.022 . S
N78 C75 1.351 . S
N78 N79 1.365 . S
N79 C76 1.341 . S
N79 N78 1.365 . S
N79 H99 0.862 . S
C80 C75 1.501 . S
C80 H81 0.961 . S
C80 H82 0.961 . S
C80 H83 0.960 . S
H81 C80 0.961 . S
H82 C80 0.961 . S
H83 C80 0.960 . S
C84 N85 1.342 . S
C84 C88 1.401 . S
C84 C89 1.499 . S
N85 Co68 1.989 . S
N85 C84 1.342 . S
N85 N86 1.388 . S
N86 Co69 1.993 . S
N86 N85 1.388 . S
N86 C87 1.346 . S
C87 N86 1.346 . S
C87 C88 1.396 . S
C87 C97 1.510 . S
C88 C84 1.401 . S
C88 C87 1.396 . S
C89 C84 1.499 . S
C89 H90 0.959 . S
C89 H91 0.960 . S
C89 H92 0.961 . S
H90 C89 0.959 . S
H91 C89 0.960 . S
H92 C89 0.961 . S
O93 Co68 1.967 . S
O93 C101 1.258 . S
O94 Co69 1.941 . S
O94 C101 1.266 . S
H95 C97 0.959 . S
H96 C97 0.961 . S
C97 C87 1.510 . S
C97 H95 0.959 . S
C97 H96 0.961 . S
C97 H98 0.960 . S
H98 C97 0.960 . S
H99 N79 0.862 . S
O100 Co68 1.920 1_655 S
O100 C73 1.289 . S
C101 O93 1.258 . S
C101 O94 1.266 . S
Co102 O105 1.970 1_545 S
Co102 N119 1.989 . S
Co102 O127 1.967 . S
Co102 O134 1.920 1_545 S
Co103 O106 1.966 . S
Co103 N112 2.022 . S
Co103 N120 1.993 . S
Co103 O128 1.941 . S
C104 O105 1.258 1_545 S
C104 O106 1.263 . S
O105 Co102 1.970 1_565 S
O105 C104 1.258 1_565 S
O106 Co103 1.966 . S
O106 C104 1.263 . S
C107 O108 1.235 . S
C107 O134 1.289 . S
O108 C107 1.235 . S
C109 C111 1.400 . S
C109 N112 1.351 . S
C109 C114 1.501 . S
C110 C111 1.387 . S
C110 N113 1.341 . S
C111 C109 1.400 . S
C111 C110 1.387 . S
N112 Co103 2.022 . S
N112 C109 1.351 . S
N112 N113 1.365 . S
N113 C110 1.341 . S
N113 N112 1.365 . S
N113 H133 0.862 . S
C114 C109 1.501 . S
C114 H115 0.961 . S
C114 H116 0.961 . S
C114 H117 0.960 . S
H115 C114 0.961 . S
H116 C114 0.961 . S
H117 C114 0.960 . S
C118 N119 1.342 . S
C118 C122 1.401 . S
C118 C123 1.499 . S
N119 Co102 1.989 . S
N119 C118 1.342 . S
N119 N120 1.388 . S
N120 Co103 1.993 . S
N120 N119 1.388 . S
N120 C121 1.346 . S
C121 N120 1.346 . S
C121 C122 1.396 . S
C121 C131 1.510 . S
C122 C118 1.401 . S
C122 C121 1.396 . S
C123 C118 1.499 . S
C123 H124 0.959 . S
C123 H125 0.960 . S
C123 H126 0.961 . S
H124 C123 0.959 . S
H125 C123 0.960 . S
H126 C123 0.961 . S
O127 Co102 1.967 . S
O127 C135 1.258 . S
O128 Co103 1.941 . S
O128 C135 1.266 . S
H129 C131 0.959 . S
H130 C131 0.961 . S
C131 C121 1.510 . S
C131 H129 0.959 . S
C131 H130 0.961 . S
C131 H132 0.960 . S
H132 C131 0.960 . S
H133 N113 0.862 . S
O134 Co102 1.920 1_565 S
O134 C107 1.289 . S
C135 O127 1.258 . S
C135 O128 1.266 . S
Co136 O139 1.970 1_455 S
Co136 N153 1.989 . S
Co136 O161 1.967 . S
Co136 O168 1.920 1_455 S
Co137 O140 1.966 . S
Co137 N146 2.022 . S
Co137 N154 1.993 . S
Co137 O162 1.941 . S
C138 O139 1.272 . S
C138 O140 1.230 1_655 S
O139 Co136 1.970 1_655 S
O139 C138 1.272 . S
O140 Co137 1.966 . S
O140 C138 1.230 1_455 S
C141 O142 1.235 . S
C141 O168 1.289 . S
O142 C141 1.235 . S
C143 C145 1.400 . S
C143 N146 1.351 . S
C143 C148 1.501 . S
C144 C145 1.387 . S
C144 N147 1.341 . S
C145 C143 1.400 . S
C145 C144 1.387 . S
N146 Co137 2.022 . S
N146 C143 1.351 . S
N146 N147 1.365 . S
N147 C144 1.341 . S
N147 N146 1.365 . S
N147 H167 0.862 . S
C148 C143 1.501 . S
C148 H149 0.961 . S
C148 H150 0.961 . S
C148 H151 0.960 . S
H149 C148 0.961 . S
H150 C148 0.961 . S
H151 C148 0.960 . S
C152 N153 1.342 . S
C152 C156 1.401 . S
C152 C157 1.499 . S
N153 Co136 1.989 . S
N153 C152 1.342 . S
N153 N154 1.388 . S
N154 Co137 1.993 . S
N154 N153 1.388 . S
N154 C155 1.346 . S
C155 N154 1.346 . S
C155 C156 1.396 . S
C155 C165 1.510 . S
C156 C152 1.401 . S
C156 C155 1.396 . S
C157 C152 1.499 . S
C157 H158 0.959 . S
C157 H159 0.960 . S
C157 H160 0.961 . S
H158 C157 0.959 . S
H159 C157 0.960 . S
H160 C157 0.961 . S
O161 Co136 1.967 . S
O161 C169 1.258 . S
O162 Co137 1.941 . S
O162 C169 1.266 . S
H163 C165 0.959 . S
H164 C165 0.961 . S
C165 C155 1.510 . S
C165 H163 0.959 . S
C165 H164 0.961 . S
C165 H166 0.960 . S
H166 C165 0.960 . S
H167 N147 0.862 . S
O168 Co136 1.920 1_655 S
O168 C141 1.289 . S
C169 O161 1.258 . S
C169 O162 1.266 . S
Co170 O173 1.970 . S
Co170 N187 1.989 . S
Co170 O195 1.967 . S
Co170 O202 1.920 . S
Co171 O174 1.966 . S
Co171 N180 2.022 . S
Co171 N188 1.993 . S
Co171 O196 1.941 . S
C172 O173 1.258 . S
C172 O174 1.263 . S
O173 Co170 1.970 . S
O173 C172 1.258 . S
O174 Co171 1.966 . S
O174 C172 1.263 . S
C175 O176 1.235 . S
C175 O202 1.289 . S
O176 C175 1.235 . S
C177 C179 1.400 1_545 S
C177 N180 1.351 . S
C177 C182 1.501 . S
C178 C179 1.387 . S
C178 N181 1.341 . S
C179 C177 1.400 1_565 S
C179 C178 1.387 . S
N180 Co171 2.022 . S
N180 C177 1.351 . S
N180 N181 1.365 1_545 S
N181 C178 1.341 . S
N181 N180 1.365 1_565 S
N181 H201 0.862 . S
C182 C177 1.501 . S
C182 H183 0.961 . S
C182 H184 0.961 . S
C182 H185 0.960 . S
H183 C182 0.961 . S
H184 C182 0.961 . S
H185 C182 0.960 . S
C186 N187 1.342 . S
C186 C190 1.401 . S
C186 C191 1.499 . S
N187 Co170 1.989 . S
N187 C186 1.342 . S
N187 N188 1.388 . S
N188 Co171 1.993 . S
N188 N187 1.388 . S
N188 C189 1.346 . S
C189 N188 1.346 . S
C189 C190 1.396 . S
C189 C199 1.510 1_545 S
C190 C186 1.401 . S
C190 C189 1.396 . S
C191 C186 1.499 . S
C191 H192 0.959 . S
C191 H193 0.960 . S
C191 H194 0.961 . S
H192 C191 0.959 . S
H193 C191 0.960 . S
H194 C191 0.961 . S
O195 Co170 1.967 . S
O195 C203 1.258 . S
O196 Co171 1.941 . S
O196 C203 1.266 . S
H197 C199 0.959 . S
H198 C199 0.961 . S
C199 C189 1.510 1_565 S
C199 H197 0.959 . S
C199 H198 0.961 . S
C199 H200 0.960 . S
H200 C199 0.960 . S
H201 N181 0.862 . S
O202 Co170 1.920 . S
O202 C175 1.289 . S
C203 O195 1.258 . S
C203 O196 1.266 . S
Co204 O207 1.970 1_455 S
Co204 N221 1.989 . S
Co204 O229 1.967 . S
Co204 O236 1.920 1_455 S
Co205 O208 1.966 . S
Co205 N214 2.022 . S
Co205 N222 1.993 . S
Co205 O230 1.941 . S
C206 O207 1.258 . S
C206 O208 1.263 1_655 S
O207 Co204 1.970 1_655 S
O207 C206 1.258 . S
O208 Co205 1.966 . S
O208 C206 1.263 1_455 S
C209 O210 1.235 . S
C209 O236 1.289 . S
O210 C209 1.235 . S
C211 C213 1.400 . S
C211 N214 1.351 . S
C211 C216 1.501 . S
C212 C213 1.387 . S
C212 N215 1.341 . S
C213 C211 1.400 . S
C213 C212 1.387 . S
N214 Co205 2.022 . S
N214 C211 1.351 . S
N214 N215 1.365 . S
N215 C212 1.341 . S
N215 N214 1.365 . S
N215 H235 0.862 . S
C216 C211 1.501 . S
C216 H217 0.961 . S
C216 H218 0.961 . S
C216 H219 0.960 . S
H217 C216 0.961 . S
H218 C216 0.961 . S
H219 C216 0.960 . S
C220 N221 1.342 . S
C220 C224 1.401 . S
C220 C225 1.499 . S
N221 Co204 1.989 . S
N221 C220 1.342 . S
N221 N222 1.388 . S
N222 Co205 1.993 . S
N222 N221 1.388 . S
N222 C223 1.346 . S
C223 N222 1.346 . S
C223 C224 1.396 . S
C223 C233 1.510 . S
C224 C220 1.401 . S
C224 C223 1.396 . S
C225 C220 1.499 . S
C225 H226 0.959 . S
C225 H227 0.960 . S
C225 H228 0.961 . S
H226 C225 0.959 . S
H227 C225 0.960 . S
H228 C225 0.961 . S
O229 Co204 1.967 . S
O229 C237 1.258 . S
O230 Co205 1.941 . S
O230 C237 1.266 . S
H231 C233 0.959 . S
H232 C233 0.961 . S
C233 C223 1.510 . S
C233 H231 0.959 . S
C233 H232 0.961 . S
C233 H234 0.960 . S
H234 C233 0.960 . S
H235 N215 0.862 . S
O236 Co204 1.920 1_655 S
O236 C209 1.289 . S
C237 O229 1.258 . S
C237 O230 1.266 . S
Co238 O241 1.970 . S
Co238 N255 1.989 . S
Co238 O263 1.967 . S
Co238 O270 1.920 . S
Co239 O242 1.966 . S
Co239 N248 2.022 1_545 S
Co239 N256 1.993 . S
Co239 O264 1.941 . S
C240 O241 1.258 . S
C240 O242 1.263 . S
O241 Co238 1.970 . S
O241 C240 1.258 . S
O242 Co239 1.966 . S
O242 C240 1.263 . S
C243 O244 1.235 . S
C243 O270 1.289 . S
O244 C243 1.235 . S
C245 C247 1.400 . S
C245 N248 1.351 . S
C245 C250 1.501 1_565 S
C246 C247 1.387 . S
C246 N249 1.341 . S
C247 C245 1.400 . S
C247 C246 1.387 . S
N248 Co239 2.022 1_565 S
N248 C245 1.351 . S
N248 N249 1.365 . S
N249 C246 1.341 . S
N249 N248 1.365 . S
N249 H269 0.862 . S
C250 C245 1.501 1_545 S
C250 H251 0.961 . S
C250 H252 0.961 . S
C250 H253 0.960 . S
H251 C250 0.961 . S
H252 C250 0.961 . S
H253 C250 0.960 . S
C254 N255 1.342 . S
C254 C258 1.401 1_545 S
C254 C259 1.499 . S
N255 Co238 1.989 . S
N255 C254 1.342 . S
N255 N256 1.388 . S
N256 Co239 1.993 . S
N256 N255 1.388 . S
N256 C257 1.346 1_545 S
C257 N256 1.346 1_565 S
C257 C258 1.396 . S
C257 C267 1.510 . S
C258 C254 1.401 1_565 S
C258 C257 1.396 . S
C259 C254 1.499 . S
C259 H260 0.959 . S
C259 H261 0.960 . S
C259 H262 0.961 . S
H260 C259 0.959 . S
H261 C259 0.960 . S
H262 C259 0.961 . S
O263 Co238 1.967 . S
O263 C271 1.258 . S
O264 Co239 1.941 . S
O264 C271 1.266 . S
H265 C267 0.959 . S
H266 C267 0.961 . S
C267 C257 1.510 . S
C267 H265 0.959 . S
C267 H266 0.961 . S
C267 H268 0.960 . S
H268 C267 0.960 . S
H269 N249 0.862 . S
O270 Co238 1.920 . S
O270 C243 1.289 . S
C271 O263 1.258 . S
C271 O264 1.266 . S
Co272 O275 1.970 . S
Co272 N289 1.989 . S
Co272 O297 1.967 . S
Co272 O304 1.920 . S
Co273 O276 1.966 . S
Co273 N282 2.022 . S
Co273 N290 1.993 . S
Co273 O298 1.941 . S
C274 O275 1.258 . S
C274 O276 1.263 . S
O275 Co272 1.970 . S
O275 C274 1.258 . S
O276 Co273 1.966 . S
O276 C274 1.263 . S
C277 O278 1.235 1_556 S
C277 O304 1.289 1_556 S
O278 C277 1.235 1_554 S
C279 C281 1.400 . S
C279 N282 1.351 . S
C279 C284 1.501 . S
C280 C281 1.387 . S
C280 N283 1.341 . S
C281 C279 1.400 . S
C281 C280 1.387 . S
N282 Co273 2.022 . S
N282 C279 1.351 . S
N282 N283 1.365 . S
N283 C280 1.341 . S
N283 N282 1.365 . S
N283 H303 0.862 . S
C284 C279 1.501 . S
C284 H285 0.961 . S
C284 H286 0.961 . S
C284 H287 0.960 . S
H285 C284 0.961 . S
H286 C284 0.961 . S
H287 C284 0.960 . S
C288 N289 1.342 . S
C288 C292 1.401 . S
C288 C293 1.499 . S
N289 Co272 1.989 . S
N289 C288 1.342 . S
N289 N290 1.388 . S
N290 Co273 1.993 . S
N290 N289 1.388 . S
N290 C291 1.346 . S
C291 N290 1.346 . S
C291 C292 1.396 . S
C291 C301 1.510 . S
C292 C288 1.401 . S
C292 C291 1.396 . S
C293 C288 1.499 . S
C293 H294 0.959 . S
C293 H295 0.960 . S
C293 H296 0.961 . S
H294 C293 0.959 . S
H295 C293 0.960 . S
H296 C293 0.961 . S
O297 Co272 1.967 . S
O297 C305 1.258 . S
O298 Co273 1.941 . S
O298 C305 1.266 . S
H299 C301 0.959 . S
H300 C301 0.961 . S
C301 C291 1.510 . S
C301 H299 0.959 . S
C301 H300 0.961 . S
C301 H302 0.960 . S
H302 C301 0.960 . S
H303 N283 0.862 . S
O304 Co272 1.920 . S
O304 C277 1.289 1_554 S
C305 O297 1.258 . S
C305 O298 1.266 . S
Co306 O309 1.970 . S
Co306 N323 1.989 . S
Co306 O331 1.967 . S
Co306 O338 1.920 . S
Co307 O310 1.966 . S
Co307 N316 2.022 1_554 S
Co307 N324 1.993 . S
Co307 O332 1.941 . S
C308 O309 1.258 . S
C308 O310 1.263 . S
O309 Co306 1.970 . S
O309 C308 1.258 . S
O310 Co307 1.966 . S
O310 C308 1.263 . S
C311 O312 1.235 . S
C311 O338 1.289 . S
O312 C311 1.235 . S
C313 C315 1.400 . S
C313 N316 1.351 . S
C313 C318 1.501 1_556 S
C314 C315 1.387 . S
C314 N317 1.341 . S
C315 C313 1.400 . S
C315 C314 1.387 . S
N316 Co307 2.022 1_556 S
N316 C313 1.351 . S
N316 N317 1.365 . S
N317 C314 1.341 . S
N317 N316 1.365 . S
N317 H337 0.862 . S
C318 C313 1.501 1_554 S
C318 H319 0.961 . S
C318 H320 0.961 . S
C318 H321 0.960 . S
H319 C318 0.961 . S
H320 C318 0.961 . S
H321 C318 0.960 . S
C322 N323 1.342 . S
C322 C326 1.401 1_554 S
C322 C327 1.499 . S
N323 Co306 1.989 . S
N323 C322 1.342 . S
N323 N324 1.388 . S
N324 Co307 1.993 . S
N324 N323 1.388 . S
N324 C325 1.346 1_554 S
C325 N324 1.346 1_556 S
C325 C326 1.396 . S
C325 C335 1.510 . S
C326 C322 1.401 1_556 S
C326 C325 1.396 . S
C327 C322 1.499 . S
C327 H328 0.959 . S
C327 H329 0.960 . S
C327 H330 0.961 . S
H328 C327 0.959 . S
H329 C327 0.960 . S
H330 C327 0.961 . S
O331 Co306 1.967 . S
O331 C339 1.258 . S
O332 Co307 1.941 . S
O332 C339 1.266 . S
H333 C335 0.959 . S
H334 C335 0.961 . S
C335 C325 1.510 . S
C335 H333 0.959 . S
C335 H334 0.961 . S
C335 H336 0.960 . S
H336 C335 0.960 . S
H337 N317 0.862 . S
O338 Co306 1.920 . S
O338 C311 1.289 . S
C339 O331 1.258 . S
C339 O332 1.266 . S
Co340 O343 1.970 . S
Co340 N357 1.989 . S
Co340 O365 1.967 . S
Co340 O372 1.920 1_554 S
Co341 O344 1.966 . S
Co341 N350 2.022 . S
Co341 N358 1.993 . S
Co341 O366 1.941 . S
C342 O343 1.258 . S
C342 O344 1.263 . S
O343 Co340 1.970 . S
O343 C342 1.258 . S
O344 Co341 1.966 . S
O344 C342 1.263 . S
C345 O346 1.235 . S
C345 O372 1.289 . S
O346 C345 1.235 . S
C347 C349 1.400 . S
C347 N350 1.351 . S
C347 C352 1.501 . S
C348 C349 1.387 . S
C348 N351 1.341 . S
C349 C347 1.400 . S
C349 C348 1.387 . S
N350 Co341 2.022 . S
N350 C347 1.351 . S
N350 N351 1.365 . S
N351 C348 1.341 . S
N351 N350 1.365 . S
N351 H371 0.862 . S
C352 C347 1.501 . S
C352 H353 0.961 . S
C352 H354 0.961 . S
C352 H355 0.960 . S
H353 C352 0.961 . S
H354 C352 0.961 . S
H355 C352 0.960 . S
C356 N357 1.342 . S
C356 C360 1.401 . S
C356 C361 1.499 . S
N357 Co340 1.989 . S
N357 C356 1.342 . S
N357 N358 1.388 . S
N358 Co341 1.993 . S
N358 N357 1.388 . S
N358 C359 1.346 . S
C359 N358 1.346 . S
C359 C360 1.396 . S
C359 C369 1.510 . S
C360 C356 1.401 . S
C360 C359 1.396 . S
C361 C356 1.499 . S
C361 H362 0.959 . S
C361 H363 0.960 . S
C361 H364 0.961 . S
H362 C361 0.959 . S
H363 C361 0.960 . S
H364 C361 0.961 . S
O365 Co340 1.967 . S
O365 C373 1.258 . S
O366 Co341 1.941 . S
O366 C373 1.266 . S
H367 C369 0.959 . S
H368 C369 0.961 . S
C369 C359 1.510 . S
C369 H367 0.959 . S
C369 H368 0.961 . S
C369 H370 0.960 . S
H370 C369 0.960 . S
H371 N351 0.862 . S
O372 Co340 1.920 1_556 S
O372 C345 1.289 . S
C373 O365 1.258 . S
C373 O366 1.266 . S
Co374 O377 1.970 . S
Co374 N391 1.989 . S
Co374 O399 1.967 . S
Co374 O406 1.920 . S
Co375 O378 1.966 . S
Co375 N384 2.022 1_554 S
Co375 N392 1.993 . S
Co375 O400 1.941 . S
C376 O377 1.258 . S
C376 O378 1.263 . S
O377 Co374 1.970 . S
O377 C376 1.258 . S
O378 Co375 1.966 . S
O378 C376 1.263 . S
C379 O380 1.235 . S
C379 O406 1.289 . S
O380 C379 1.235 . S
C381 C383 1.400 . S
C381 N384 1.351 . S
C381 C386 1.501 . S
C382 C383 1.387 . S
C382 N385 1.341 . S
C383 C381 1.400 . S
C383 C382 1.387 . S
N384 Co375 2.022 1_556 S
N384 C381 1.351 . S
N384 N385 1.365 . S
N385 C382 1.341 . S
N385 N384 1.365 . S
N385 H405 0.862 . S
C386 C381 1.501 . S
C386 H387 0.961 1_556 S
C386 H388 0.961 . S
C386 H389 0.960 . S
H387 C386 0.961 1_554 S
H388 C386 0.961 . S
H389 C386 0.960 . S
C390 N391 1.342 . S
C390 C394 1.401 1_554 S
C390 C395 1.499 . S
N391 Co374 1.989 . S
N391 C390 1.342 . S
N391 N392 1.388 . S
N392 Co375 1.993 . S
N392 N391 1.388 . S
N392 C393 1.346 1_554 S
C393 N392 1.346 1_556 S
C393 C394 1.396 . S
C393 C403 1.510 . S
C394 C390 1.401 1_556 S
C394 C393 1.396 . S
C395 C390 1.499 . S
C395 H396 0.959 . S
C395 H397 0.960 . S
C395 H398 0.961 . S
H396 C395 0.959 . S
H397 C395 0.960 . S
H398 C395 0.961 . S
O399 Co374 1.967 . S
O399 C407 1.258 . S
O400 Co375 1.941 . S
O400 C407 1.266 . S
H401 C403 0.959 . S
H402 C403 0.961 . S
C403 C393 1.510 . S
C403 H401 0.959 . S
C403 H402 0.961 . S
C403 H404 0.960 . S
H404 C403 0.960 . S
H405 N385 0.862 . S
O406 Co374 1.920 . S
O406 C379 1.289 . S
C407 O399 1.258 . S
C407 O400 1.266 . S
Co408 O411 1.970 . S
Co408 N425 1.989 1_655 S
Co408 O433 1.967 . S
Co408 O440 1.920 . S
Co409 O412 1.966 . S
Co409 N418 2.022 . S
Co409 N426 1.993 . S
Co409 O434 1.941 . S
C410 O411 1.258 . S
C410 O412 1.263 1_655 S
O411 Co408 1.970 . S
O411 C410 1.258 . S
O412 Co409 1.966 . S
O412 C410 1.263 1_455 S
C413 O414 1.235 . S
C413 O440 1.289 . S
O414 C413 1.235 . S
C415 C417 1.400 . S
C415 N418 1.351 . S
C415 C420 1.501 . S
C416 C417 1.387 . S
C416 N419 1.341 . S
C417 C415 1.400 . S
C417 C416 1.387 . S
N418 Co409 2.022 . S
N418 C415 1.351 . S
N418 N419 1.365 . S
N419 C416 1.341 . S
N419 N418 1.365 . S
N419 H439 0.862 . S
C420 C415 1.501 . S
C420 H421 0.961 . S
C420 H422 0.961 . S
C420 H423 0.960 . S
H421 C420 0.961 . S
H422 C420 0.961 . S
H423 C420 0.960 . S
C424 N425 1.342 . S
C424 C428 1.401 . S
C424 C429 1.499 . S
N425 Co408 1.989 1_455 S
N425 C424 1.342 . S
N425 N426 1.388 . S
N426 Co409 1.993 . S
N426 N425 1.388 . S
N426 C427 1.346 . S
C427 N426 1.346 . S
C427 C428 1.396 . S
C427 C437 1.510 . S
C428 C424 1.401 . S
C428 C427 1.396 . S
C429 C424 1.499 . S
C429 H430 0.959 . S
C429 H431 0.960 . S
C429 H432 0.961 . S
H430 C429 0.959 . S
H431 C429 0.960 . S
H432 C429 0.961 . S
O433 Co408 1.967 . S
O433 C441 1.258 1_655 S
O434 Co409 1.941 . S
O434 C441 1.266 . S
H435 C437 0.959 . S
H436 C437 0.961 . S
C437 C427 1.510 . S
C437 H435 0.959 . S
C437 H436 0.961 . S
C437 H438 0.960 . S
H438 C437 0.960 . S
H439 N419 0.862 . S
O440 Co408 1.920 . S
O440 C413 1.289 . S
C441 O433 1.258 1_455 S
C441 O434 1.266 . S
Co442 O445 1.970 . S
Co442 N459 1.989 . S
Co442 O467 1.967 . S
Co442 O474 1.920 . S
Co443 O446 1.966 . S
Co443 N452 2.022 . S
Co443 N460 1.993 . S
Co443 O468 1.941 . S
C444 O445 1.258 . S
C444 O446 1.263 . S
O445 Co442 1.970 . S
O445 C444 1.258 . S
O446 Co443 1.966 . S
O446 C444 1.263 . S
C447 O448 1.235 . S
C447 O474 1.289 . S
O448 C447 1.235 . S
C449 C451 1.400 . S
C449 N452 1.351 . S
C449 C454 1.501 . S
C450 C451 1.387 . S
C450 N453 1.341 . S
C451 C449 1.400 . S
C451 C450 1.387 . S
N452 Co443 2.022 . S
N452 C449 1.351 . S
N452 N453 1.365 . S
N453 C450 1.341 . S
N453 N452 1.365 . S
N453 H473 0.862 . S
C454 C449 1.501 . S
C454 H455 0.961 . S
C454 H456 0.961 . S
C454 H457 0.960 . S
H455 C454 0.961 . S
H456 C454 0.961 . S
H457 C454 0.960 . S
C458 N459 1.342 . S
C458 C462 1.401 . S
C458 C463 1.499 . S
N459 Co442 1.989 . S
N459 C458 1.342 . S
N459 N460 1.388 . S
N460 Co443 1.993 . S
N460 N459 1.388 . S
N460 C461 1.346 . S
C461 N460 1.346 . S
C461 C462 1.396 . S
C461 C471 1.510 . S
C462 C458 1.401 . S
C462 C461 1.396 . S
C463 C458 1.499 . S
C463 H464 0.959 . S
C463 H465 0.960 . S
C463 H466 0.961 . S
H464 C463 0.959 . S
H465 C463 0.960 . S
H466 C463 0.961 . S
O467 Co442 1.967 . S
O467 C475 1.258 . S
O468 Co443 1.941 . S
O468 C475 1.266 . S
H469 C471 0.959 . S
H470 C471 0.961 . S
C471 C461 1.510 . S
C471 H469 0.959 . S
C471 H470 0.961 . S
C471 H472 0.960 . S
H472 C471 0.960 . S
H473 N453 0.862 . S
O474 Co442 1.920 . S
O474 C447 1.289 . S
C475 O467 1.258 . S
C475 O468 1.266 . S
Co476 O479 1.970 1_455 S
Co476 N493 1.989 . S
Co476 O501 1.967 . S
Co476 O508 1.920 1_455 S
Co477 O480 1.966 . S
Co477 N486 2.022 . S
Co477 N494 1.993 . S
Co477 O502 1.941 . S
C478 O479 1.258 . S
C478 O480 1.263 1_655 S
O479 Co476 1.970 1_655 S
O479 C478 1.258 . S
O480 Co477 1.966 . S
O480 C478 1.263 1_455 S
C481 O482 1.235 . S
C481 O508 1.289 . S
O482 C481 1.235 . S
C483 C485 1.400 . S
C483 N486 1.351 . S
C483 C488 1.501 . S
C484 C485 1.387 . S
C484 N487 1.341 . S
C485 C483 1.400 . S
C485 C484 1.387 . S
N486 Co477 2.022 . S
N486 C483 1.351 . S
N486 N487 1.365 . S
N487 C484 1.341 . S
N487 N486 1.365 . S
N487 H507 0.862 . S
C488 C483 1.501 . S
C488 H489 0.961 . S
C488 H490 0.961 . S
C488 H491 0.960 . S
H489 C488 0.961 . S
H490 C488 0.961 . S
H491 C488 0.960 . S
C492 N493 1.342 . S
C492 C496 1.401 . S
C492 C497 1.499 . S
N493 Co476 1.989 . S
N493 C492 1.342 . S
N493 N494 1.388 . S
N494 Co477 1.993 . S
N494 N493 1.388 . S
N494 C495 1.346 . S
C495 N494 1.346 . S
C495 C496 1.396 . S
C495 C505 1.510 . S
C496 C492 1.401 . S
C496 C495 1.396 . S
C497 C492 1.499 . S
C497 H498 0.959 . S
C497 H499 0.960 . S
C497 H500 0.961 . S
H498 C497 0.959 . S
H499 C497 0.960 . S
H500 C497 0.961 . S
O501 Co476 1.967 . S
O501 C509 1.258 . S
O502 Co477 1.941 . S
O502 C509 1.266 . S
H503 C505 0.959 . S
H504 C505 0.961 . S
C505 C495 1.510 . S
C505 H503 0.959 . S
C505 H504 0.961 . S
C505 H506 0.960 . S
H506 C505 0.960 . S
H507 N487 0.862 . S
O508 Co476 1.920 1_655 S
O508 C481 1.289 . S
C509 O501 1.258 . S
C509 O502 1.266 . S
Co510 O513 1.970 . S
Co510 N527 1.989 . S
Co510 O535 1.967 . S
Co510 O542 1.920 . S
Co511 O514 1.966 . S
Co511 N520 2.022 . S
Co511 N528 1.993 . S
Co511 O536 1.941 . S
C512 O513 1.258 . S
C512 O514 1.263 . S
O513 Co510 1.970 . S
O513 C512 1.258 . S
O514 Co511 1.966 . S
O514 C512 1.263 . S
C515 O516 1.235 . S
C515 O542 1.289 . S
O516 C515 1.235 . S
C517 C519 1.400 . S
C517 N520 1.351 . S
C517 C522 1.501 . S
C518 C519 1.387 . S
C518 N521 1.341 . S
C519 C517 1.400 . S
C519 C518 1.387 . S
N520 Co511 2.022 . S
N520 C517 1.351 . S
N520 N521 1.365 . S
N521 C518 1.341 . S
N521 N520 1.365 . S
N521 H541 0.862 . S
C522 C517 1.501 . S
C522 H523 0.961 . S
C522 H524 0.961 . S
C522 H525 0.960 . S
H523 C522 0.961 . S
H524 C522 0.961 . S
H525 C522 0.960 . S
C526 N527 1.342 . S
C526 C530 1.401 . S
C526 C531 1.499 . S
N527 Co510 1.989 . S
N527 C526 1.342 . S
N527 N528 1.388 . S
N528 Co511 1.993 . S
N528 N527 1.388 . S
N528 C529 1.346 . S
C529 N528 1.346 . S
C529 C530 1.396 . S
C529 C539 1.510 . S
C530 C526 1.401 . S
C530 C529 1.396 . S
C531 C526 1.499 . S
C531 H532 0.959 . S
C531 H533 0.960 . S
C531 H534 0.961 . S
H532 C531 0.959 . S
H533 C531 0.960 . S
H534 C531 0.961 . S
O535 Co510 1.967 . S
O535 C543 1.258 . S
O536 Co511 1.941 . S
O536 C543 1.266 . S
H537 C539 0.959 . S
H538 C539 0.961 . S
C539 C529 1.510 . S
C539 H537 0.959 . S
C539 H538 0.961 . S
C539 H540 0.960 . S
H540 C539 0.960 . S
H541 N521 0.862 . S
O542 Co510 1.920 . S
O542 C515 1.289 . S
C543 O535 1.258 . S
C543 O536 1.266 . S
Co544 O547 1.970 . S
Co544 N561 1.989 . S
Co544 O569 1.967 . S
Co544 O576 1.920 . S
Co545 O548 1.966 . S
Co545 N554 2.022 . S
Co545 N562 1.993 . S
Co545 O570 1.941 . S
C546 O547 1.258 . S
C546 O548 1.263 . S
O547 Co544 1.970 . S
O547 C546 1.258 . S
O548 Co545 1.966 . S
O548 C546 1.263 . S
C549 O550 1.235 . S
C549 O576 1.289 1_655 S
O550 C549 1.235 . S
C551 C553 1.400 . S
C551 N554 1.351 . S
C551 C556 1.501 . S
C552 C553 1.387 . S
C552 N555 1.341 . S
C553 C551 1.400 . S
C553 C552 1.387 . S
N554 Co545 2.022 . S
N554 C551 1.351 . S
N554 N555 1.365 . S
N555 C552 1.341 . S
N555 N554 1.365 . S
N555 H575 0.862 . S
C556 C551 1.501 . S
C556 H557 0.961 . S
C556 H558 0.961 . S
C556 H559 0.960 . S
H557 C556 0.961 . S
H558 C556 0.961 . S
H559 C556 0.960 . S
C560 N561 1.342 . S
C560 C564 1.401 . S
C560 C565 1.499 . S
N561 Co544 1.989 . S
N561 C560 1.342 . S
N561 N562 1.388 . S
N562 Co545 1.993 . S
N562 N561 1.388 . S
N562 C563 1.346 . S
C563 N562 1.346 . S
C563 C564 1.396 . S
C563 C573 1.510 . S
C564 C560 1.401 . S
C564 C563 1.396 . S
C565 C560 1.499 . S
C565 H566 0.959 . S
C565 H567 0.960 . S
C565 H568 0.961 . S
H566 C565 0.959 . S
H567 C565 0.960 . S
H568 C565 0.961 . S
O569 Co544 1.967 . S
O569 C577 1.258 . S
O570 Co545 1.941 . S
O570 C577 1.266 . S
H571 C573 0.959 . S
H572 C573 0.961 . S
C573 C563 1.510 . S
C573 H571 0.959 . S
C573 H572 0.961 . S
C573 H574 0.960 . S
H574 C573 0.960 . S
H575 N555 0.862 . S
O576 Co544 1.920 . S
O576 C549 1.289 1_455 S
C577 O569 1.258 . S
C577 O570 1.266 . S
Co578 O581 1.970 . S
Co578 N595 1.989 . S
Co578 O603 1.967 . S
Co578 O610 1.920 . S
Co579 O582 1.966 . S
Co579 N588 2.022 . S
Co579 N596 1.993 . S
Co579 O604 1.941 . S
C580 O581 1.258 . S
C580 O582 1.263 . S
O581 Co578 1.970 . S
O581 C580 1.258 . S
O582 Co579 1.966 . S
O582 C580 1.263 . S
C583 O584 1.235 . S
C583 O610 1.289 . S
O584 C583 1.235 . S
C585 C587 1.400 . S
C585 N588 1.351 . S
C585 C590 1.501 . S
C586 C587 1.387 . S
C586 N589 1.341 . S
C587 C585 1.400 . S
C587 C586 1.387 . S
N588 Co579 2.022 . S
N588 C585 1.351 . S
N588 N589 1.365 . S
N589 C586 1.341 . S
N589 N588 1.365 . S
N589 H609 0.862 . S
C590 C585 1.501 . S
C590 H591 0.961 . S
C590 H592 0.961 . S
C590 H593 0.960 . S
H591 C590 0.961 . S
H592 C590 0.961 . S
H593 C590 0.960 . S
C594 N595 1.342 . S
C594 C598 1.401 . S
C594 C599 1.499 . S
N595 Co578 1.989 . S
N595 C594 1.342 . S
N595 N596 1.388 . S
N596 Co579 1.993 . S
N596 N595 1.388 . S
N596 C597 1.346 . S
C597 N596 1.346 . S
C597 C598 1.396 . S
C597 C607 1.510 . S
C598 C594 1.401 . S
C598 C597 1.396 . S
C599 C594 1.499 . S
C599 H600 0.959 . S
C599 H601 0.960 . S
C599 H602 0.961 . S
H600 C599 0.959 . S
H601 C599 0.960 . S
H602 C599 0.961 . S
O603 Co578 1.967 . S
O603 C611 1.258 . S
O604 Co579 1.941 . S
O604 C611 1.266 . S
H605 C607 0.959 . S
H606 C607 0.961 . S
C607 C597 1.510 . S
C607 H605 0.959 . S
C607 H606 0.961 . S
C607 H608 0.960 . S
H608 C607 0.960 . S
H609 N589 0.862 . S
O610 Co578 1.920 . S
O610 C583 1.289 . S
C611 O603 1.258 . S
C611 O604 1.266 . S
Co612 O615 1.970 1_455 S
Co612 N629 1.989 . S
Co612 O637 1.967 . S
Co612 O644 1.920 1_455 S
Co613 O616 1.966 . S
Co613 N622 2.022 . S
Co613 N630 1.993 . S
Co613 O638 1.941 . S
C614 O615 1.258 1_455 S
C614 O616 1.263 . S
O615 Co612 1.970 1_655 S
O615 C614 1.258 1_655 S
O616 Co613 1.966 . S
O616 C614 1.263 . S
C617 O618 1.235 . S
C617 O644 1.289 . S
O618 C617 1.235 . S
C619 C621 1.400 . S
C619 N622 1.351 . S
C619 C624 1.501 . S
C620 C621 1.387 . S
C620 N623 1.341 . S
C621 C619 1.400 . S
C621 C620 1.387 . S
N622 Co613 2.022 . S
N622 C619 1.351 . S
N622 N623 1.365 . S
N623 C620 1.341 . S
N623 N622 1.365 . S
N623 H643 0.862 . S
C624 C619 1.501 . S
C624 H625 0.961 . S
C624 H626 0.961 . S
C624 H627 0.960 . S
H625 C624 0.961 . S
H626 C624 0.961 . S
H627 C624 0.960 . S
C628 N629 1.342 . S
C628 C632 1.401 . S
C628 C633 1.499 . S
N629 Co612 1.989 . S
N629 C628 1.342 . S
N629 N630 1.388 . S
N630 Co613 1.993 . S
N630 N629 1.388 . S
N630 C631 1.346 . S
C631 N630 1.346 . S
C631 C632 1.396 . S
C631 C641 1.510 . S
C632 C628 1.401 . S
C632 C631 1.396 . S
C633 C628 1.499 . S
C633 H634 0.959 . S
C633 H635 0.960 . S
C633 H636 0.961 . S
H634 C633 0.959 . S
H635 C633 0.960 . S
H636 C633 0.961 . S
O637 Co612 1.967 . S
O637 C645 1.258 . S
O638 Co613 1.941 . S
O638 C645 1.266 . S
H639 C641 0.959 . S
H640 C641 0.961 . S
C641 C631 1.510 . S
C641 H639 0.959 . S
C641 H640 0.961 . S
C641 H642 0.960 . S
H642 C641 0.960 . S
H643 N623 0.862 . S
O644 Co612 1.920 1_655 S
O644 C617 1.289 . S
C645 O637 1.258 . S
C645 O638 1.266 . S
Co646 O649 1.970 . S
Co646 N663 1.989 . S
Co646 O671 1.967 . S
Co646 O678 1.920 . S
Co647 O650 1.966 . S
Co647 N656 2.022 . S
Co647 N664 1.993 . S
Co647 O672 1.941 . S
C648 O649 1.258 . S
C648 O650 1.263 . S
O649 Co646 1.970 . S
O649 C648 1.258 . S
O650 Co647 1.966 . S
O650 C648 1.263 . S
C651 O652 1.235 . S
C651 O678 1.289 . S
O652 C651 1.235 . S
C653 C655 1.400 . S
C653 N656 1.351 . S
C653 C658 1.501 . S
C654 C655 1.387 . S
C654 N657 1.341 . S
C655 C653 1.400 . S
C655 C654 1.387 . S
N656 Co647 2.022 . S
N656 C653 1.351 . S
N656 N657 1.365 . S
N657 C654 1.341 . S
N657 N656 1.365 . S
N657 H677 0.862 . S
C658 C653 1.501 . S
C658 H659 0.961 . S
C658 H660 0.961 . S
C658 H661 0.960 . S
H659 C658 0.961 . S
H660 C658 0.961 . S
H661 C658 0.960 . S
C662 N663 1.342 . S
C662 C666 1.401 . S
C662 C667 1.499 . S
N663 Co646 1.989 . S
N663 C662 1.342 . S
N663 N664 1.388 . S
N664 Co647 1.993 . S
N664 N663 1.388 . S
N664 C665 1.346 . S
C665 N664 1.346 . S
C665 C666 1.396 . S
C665 C675 1.510 . S
C666 C662 1.401 . S
C666 C665 1.396 . S
C667 C662 1.499 . S
C667 H668 0.959 . S
C667 H669 0.960 . S
C667 H670 0.961 . S
H668 C667 0.959 . S
H669 C667 0.960 . S
H670 C667 0.961 . S
O671 Co646 1.967 . S
O671 C679 1.258 . S
O672 Co647 1.941 . S
O672 C679 1.266 . S
H673 C675 0.959 . S
H674 C675 0.961 . S
C675 C665 1.510 . S
C675 H673 0.959 . S
C675 H674 0.961 . S
C675 H676 0.960 . S
H676 C675 0.960 . S
H677 N657 0.862 . S
O678 Co646 1.920 . S
O678 C651 1.289 . S
C679 O671 1.258 . S
C679 O672 1.266 . S
Co680 O683 1.970 . S
Co680 N697 1.989 . S
Co680 O705 1.967 . S
Co680 O712 1.920 . S
Co681 O684 1.966 . S
Co681 N690 2.022 . S
Co681 N698 1.993 . S
Co681 O706 1.941 . S
C682 O683 1.258 . S
C682 O684 1.263 . S
O683 Co680 1.970 . S
O683 C682 1.258 . S
O684 Co681 1.966 . S
O684 C682 1.263 . S
C685 O686 1.235 . S
C685 O712 1.289 . S
O686 C685 1.235 . S
C687 C689 1.400 . S
C687 N690 1.351 . S
C687 C692 1.501 . S
C688 C689 1.387 . S
C688 N691 1.341 . S
C689 C687 1.400 . S
C689 C688 1.387 . S
N690 Co681 2.022 . S
N690 C687 1.351 . S
N690 N691 1.365 . S
N691 C688 1.341 . S
N691 N690 1.365 . S
N691 H711 0.862 . S
C692 C687 1.501 . S
C692 H693 0.961 . S
C692 H694 0.961 . S
C692 H695 0.960 . S
H693 C692 0.961 . S
H694 C692 0.961 . S
H695 C692 0.960 . S
C696 N697 1.342 . S
C696 C700 1.401 . S
C696 C701 1.499 . S
N697 Co680 1.989 . S
N697 C696 1.342 . S
N697 N698 1.388 . S
N698 Co681 1.993 . S
N698 N697 1.388 . S
N698 C699 1.346 . S
C699 N698 1.346 . S
C699 C700 1.396 . S
C699 C709 1.510 . S
C700 C696 1.401 . S
C700 C699 1.396 . S
C701 C696 1.499 . S
C701 H702 0.959 . S
C701 H703 0.960 . S
C701 H704 0.961 . S
H702 C701 0.959 . S
H703 C701 0.960 . S
H704 C701 0.961 . S
O705 Co680 1.967 . S
O705 C713 1.258 . S
O706 Co681 1.941 . S
O706 C713 1.266 . S
H707 C709 0.959 . S
H708 C709 0.961 . S
C709 C699 1.510 . S
C709 H707 0.959 . S
C709 H708 0.961 . S
C709 H710 0.960 . S
H710 C709 0.960 . S
H711 N691 0.862 . S
O712 Co680 1.920 . S
O712 C685 1.289 . S
C713 O705 1.258 . S
C713 O706 1.266 . S
Co714 O717 1.970 . S
Co714 N731 1.989 . S
Co714 O739 1.967 . S
Co714 O746 1.920 . S
Co715 O718 1.966 . S
Co715 N724 2.022 . S
Co715 N732 1.993 . S
Co715 O740 1.941 . S
C716 O717 1.258 . S
C716 O718 1.263 . S
O717 Co714 1.970 . S
O717 C716 1.258 . S
O718 Co715 1.966 . S
O718 C716 1.263 . S
C719 O720 1.235 . S
C719 O746 1.289 . S
O720 C719 1.235 . S
C721 C723 1.400 . S
C721 N724 1.351 . S
C721 C726 1.501 . S
C722 C723 1.387 . S
C722 N725 1.341 . S
C723 C721 1.400 . S
C723 C722 1.387 . S
N724 Co715 2.022 . S
N724 C721 1.351 . S
N724 N725 1.365 . S
N725 C722 1.341 . S
N725 N724 1.365 . S
N725 H745 0.862 . S
C726 C721 1.501 . S
C726 H727 0.961 . S
C726 H728 0.961 . S
C726 H729 0.960 . S
H727 C726 0.961 . S
H728 C726 0.961 . S
H729 C726 0.960 . S
C730 N731 1.342 . S
C730 C734 1.401 . S
C730 C735 1.499 . S
N731 Co714 1.989 . S
N731 C730 1.342 . S
N731 N732 1.388 . S
N732 Co715 1.993 . S
N732 N731 1.388 . S
N732 C733 1.346 . S
C733 N732 1.346 . S
C733 C734 1.396 . S
C733 C743 1.510 . S
C734 C730 1.401 . S
C734 C733 1.396 . S
C735 C730 1.499 . S
C735 H736 0.959 . S
C735 H737 0.960 . S
C735 H738 0.961 . S
H736 C735 0.959 . S
H737 C735 0.960 . S
H738 C735 0.961 . S
O739 Co714 1.967 . S
O739 C747 1.258 . S
O740 Co715 1.941 . S
O740 C747 1.266 . S
H741 C743 0.959 . S
H742 C743 0.961 . S
C743 C733 1.510 . S
C743 H741 0.959 . S
C743 H742 0.961 . S
C743 H744 0.960 . S
H744 C743 0.960 . S
H745 N725 0.862 . S
O746 Co714 1.920 . S
O746 C719 1.289 . S
C747 O739 1.258 . S
C747 O740 1.266 . S
Co748 O751 1.970 . S
Co748 N765 1.989 . S
Co748 O773 1.967 . S
Co748 O780 1.920 . S
Co749 O752 1.966 . S
Co749 N758 2.022 . S
Co749 N766 1.993 . S
Co749 O774 1.941 . S
C750 O751 1.258 . S
C750 O752 1.263 . S
O751 Co748 1.970 . S
O751 C750 1.258 . S
O752 Co749 1.966 . S
O752 C750 1.263 . S
C753 O754 1.235 . S
C753 O780 1.289 . S
O754 C753 1.235 . S
C755 C757 1.400 . S
C755 N758 1.351 . S
C755 C760 1.501 . S
C756 C757 1.387 . S
C756 N759 1.341 . S
C757 C755 1.400 . S
C757 C756 1.387 . S
N758 Co749 2.022 . S
N758 C755 1.351 . S
N758 N759 1.365 . S
N759 C756 1.341 . S
N759 N758 1.365 . S
N759 H779 0.862 . S
C760 C755 1.501 . S
C760 H761 0.961 . S
C760 H762 0.961 . S
C760 H763 0.960 . S
H761 C760 0.961 . S
H762 C760 0.961 . S
H763 C760 0.960 . S
C764 N765 1.342 . S
C764 C768 1.401 . S
C764 C769 1.499 . S
N765 Co748 1.989 . S
N765 C764 1.342 . S
N765 N766 1.388 . S
N766 Co749 1.993 . S
N766 N765 1.388 . S
N766 C767 1.346 . S
C767 N766 1.346 . S
C767 C768 1.396 . S
C767 C777 1.510 . S
C768 C764 1.401 . S
C768 C767 1.396 . S
C769 C764 1.499 . S
C769 H770 0.959 . S
C769 H771 0.960 . S
C769 H772 0.961 . S
H770 C769 0.959 . S
H771 C769 0.960 . S
H772 C769 0.961 . S
O773 Co748 1.967 . S
O773 C781 1.258 . S
O774 Co749 1.941 . S
O774 C781 1.266 . S
H775 C777 0.959 . S
H776 C777 0.961 . S
C777 C767 1.510 . S
C777 H775 0.959 . S
C777 H776 0.961 . S
C777 H778 0.960 . S
H778 C777 0.960 . S
H779 N759 0.862 . S
O780 Co748 1.920 . S
O780 C753 1.289 . S
C781 O773 1.258 . S
C781 O774 1.266 . S
Co782 O785 1.970 . S
Co782 N799 1.989 . S
Co782 O807 1.967 . S
Co782 O814 1.920 . S
Co783 O786 1.966 . S
Co783 N792 2.022 . S
Co783 N800 1.993 . S
Co783 O808 1.941 . S
C784 O785 1.258 . S
C784 O786 1.263 . S
O785 Co782 1.970 . S
O785 C784 1.258 . S
O786 Co783 1.966 . S
O786 C784 1.263 . S
C787 O788 1.235 . S
C787 O814 1.289 . S
O788 C787 1.235 . S
C789 C791 1.400 . S
C789 N792 1.351 . S
C789 C794 1.501 . S
C790 C791 1.387 . S
C790 N793 1.341 . S
C791 C789 1.400 . S
C791 C790 1.387 . S
N792 Co783 2.022 . S
N792 C789 1.351 . S
N792 N793 1.365 . S
N793 C790 1.341 . S
N793 N792 1.365 . S
N793 H813 0.862 . S
C794 C789 1.501 . S
C794 H795 0.961 . S
C794 H796 0.961 . S
C794 H797 0.960 . S
H795 C794 0.961 . S
H796 C794 0.961 . S
H797 C794 0.960 . S
C798 N799 1.342 . S
C798 C802 1.401 . S
C798 C803 1.499 . S
N799 Co782 1.989 . S
N799 C798 1.342 . S
N799 N800 1.388 . S
N800 Co783 1.993 . S
N800 N799 1.388 . S
N800 C801 1.346 . S
C801 N800 1.346 . S
C801 C802 1.396 . S
C801 C811 1.510 . S
C802 C798 1.401 . S
C802 C801 1.396 . S
C803 C798 1.499 . S
C803 H804 0.959 . S
C803 H805 0.960 . S
C803 H806 0.961 . S
H804 C803 0.959 . S
H805 C803 0.960 . S
H806 C803 0.961 . S
O807 Co782 1.967 . S
O807 C815 1.258 . S
O808 Co783 1.941 . S
O808 C815 1.266 . S
H809 C811 0.959 . S
H810 C811 0.961 . S
C811 C801 1.510 . S
C811 H809 0.959 . S
C811 H810 0.961 . S
C811 H812 0.960 . S
H812 C811 0.960 . S
H813 N793 0.862 . S
O814 Co782 1.920 . S
O814 C787 1.289 . S
C815 O807 1.258 . S
C815 O808 1.266 . S
Co816 O819 1.970 . S
Co816 N833 1.989 . S
Co816 O841 1.967 . S
Co816 O848 1.920 . S
Co817 O820 1.966 . S
Co817 N826 2.022 . S
Co817 N834 1.993 . S
Co817 O842 1.941 . S
C818 O819 1.258 . S
C818 O820 1.263 . S
O819 Co816 1.970 . S
O819 C818 1.258 . S
O820 Co817 1.966 . S
O820 C818 1.263 . S
C821 O822 1.235 . S
C821 O848 1.289 . S
O822 C821 1.235 . S
C823 C825 1.400 . S
C823 N826 1.351 . S
C823 C828 1.501 . S
C824 C825 1.387 . S
C824 N827 1.341 . S
C825 C823 1.400 . S
C825 C824 1.387 . S
N826 Co817 2.022 . S
N826 C823 1.351 . S
N826 N827 1.365 . S
N827 C824 1.341 . S
N827 N826 1.365 . S
N827 H847 0.862 . S
C828 C823 1.501 . S
C828 H829 0.961 . S
C828 H830 0.961 . S
C828 H831 0.960 . S
H829 C828 0.961 . S
H830 C828 0.961 . S
H831 C828 0.960 . S
C832 N833 1.342 . S
C832 C836 1.401 . S
C832 C837 1.499 . S
N833 Co816 1.989 . S
N833 C832 1.342 . S
N833 N834 1.388 . S
N834 Co817 1.993 . S
N834 N833 1.388 . S
N834 C835 1.346 . S
C835 N834 1.346 . S
C835 C836 1.396 . S
C835 C845 1.510 . S
C836 C832 1.401 . S
C836 C835 1.396 . S
C837 C832 1.499 . S
C837 H838 0.959 . S
C837 H839 0.960 . S
C837 H840 0.961 . S
H838 C837 0.959 . S
H839 C837 0.960 . S
H840 C837 0.961 . S
O841 Co816 1.967 . S
O841 C849 1.258 . S
O842 Co817 1.941 . S
O842 C849 1.266 . S
H843 C845 0.959 . S
H844 C845 0.961 . S
C845 C835 1.510 . S
C845 H843 0.959 . S
C845 H844 0.961 . S
C845 H846 0.960 . S
H846 C845 0.960 . S
H847 N827 0.862 . S
O848 Co816 1.920 . S
O848 C821 1.289 . S
C849 O841 1.258 . S
C849 O842 1.266 . S
Co850 O853 1.970 . S
Co850 N867 1.989 . S
Co850 O875 1.967 . S
Co850 O882 1.920 . S
Co851 O854 1.966 . S
Co851 N860 2.022 . S
Co851 N868 1.993 . S
Co851 O876 1.941 . S
C852 O853 1.258 . S
C852 O854 1.263 . S
O853 Co850 1.970 . S
O853 C852 1.258 . S
O854 Co851 1.966 . S
O854 C852 1.263 . S
C855 O856 1.235 . S
C855 O882 1.289 . S
O856 C855 1.235 . S
C857 C859 1.400 1_545 S
C857 N860 1.351 . S
C857 C862 1.501 . S
C858 C859 1.387 . S
C858 N861 1.341 . S
C859 C857 1.400 1_565 S
C859 C858 1.387 . S
N860 Co851 2.022 . S
N860 C857 1.351 . S
N860 N861 1.365 1_545 S
N861 C858 1.341 . S
N861 N860 1.365 1_565 S
N861 H881 0.862 . S
C862 C857 1.501 . S
C862 H863 0.961 . S
C862 H864 0.961 . S
C862 H865 0.960 . S
H863 C862 0.961 . S
H864 C862 0.961 . S
H865 C862 0.960 . S
C866 N867 1.342 . S
C866 C870 1.397 . S
C866 C871 1.499 . S
N867 Co850 1.989 . S
N867 C866 1.342 . S
N867 N868 1.388 . S
N868 Co851 1.993 . S
N868 N867 1.388 . S
N868 C869 1.346 1_545 S
C869 N868 1.346 1_565 S
C869 C870 1.397 1_565 S
C869 C879 1.510 . S
C870 C866 1.397 . S
C870 C869 1.397 1_545 S
C871 C866 1.499 . S
C871 H872 0.959 . S
C871 H873 0.960 . S
C871 H874 0.961 . S
H872 C871 0.959 . S
H873 C871 0.960 . S
H874 C871 0.961 . S
O875 Co850 1.967 . S
O875 C883 1.258 . S
O876 Co851 1.941 . S
O876 C883 1.266 . S
H877 C879 0.959 . S
H878 C879 0.961 . S
C879 C869 1.510 . S
C879 H877 0.959 . S
C879 H878 0.961 . S
C879 H880 0.960 . S
H880 C879 0.960 . S
H881 N861 0.862 . S
O882 Co850 1.920 . S
O882 C855 1.289 . S
C883 O875 1.258 . S
C883 O876 1.266 . S
Co884 O887 1.970 . S
Co884 N901 1.989 . S
Co884 O909 1.967 . S
Co884 O916 1.920 . S
Co885 O888 1.966 . S
Co885 N894 2.022 . S
Co885 N902 1.993 . S
Co885 O910 1.941 . S
C886 O887 1.258 . S
C886 O888 1.263 . S
O887 Co884 1.970 . S
O887 C886 1.258 . S
O888 Co885 1.966 . S
O888 C886 1.263 . S
C889 O890 1.235 . S
C889 O916 1.289 . S
O890 C889 1.235 . S
C891 C893 1.400 . S
C891 N894 1.351 . S
C891 C896 1.501 . S
C892 C893 1.387 . S
C892 N895 1.341 . S
C893 C891 1.400 . S
C893 C892 1.387 . S
N894 Co885 2.022 . S
N894 C891 1.351 . S
N894 N895 1.365 . S
N895 C892 1.341 . S
N895 N894 1.365 . S
N895 H915 0.862 . S
C896 C891 1.501 . S
C896 H897 0.961 . S
C896 H898 0.961 . S
C896 H899 0.960 . S
H897 C896 0.961 . S
H898 C896 0.961 . S
H899 C896 0.960 . S
C900 N901 1.342 . S
C900 C904 1.401 . S
C900 C905 1.499 . S
N901 Co884 1.989 . S
N901 C900 1.342 . S
N901 N902 1.388 . S
N902 Co885 1.993 . S
N902 N901 1.388 . S
N902 C903 1.346 . S
C903 N902 1.346 . S
C903 C904 1.396 . S
C903 C913 1.510 . S
C904 C900 1.401 . S
C904 C903 1.396 . S
C905 C900 1.499 . S
C905 H906 0.959 . S
C905 H907 0.960 . S
C905 H908 0.961 . S
H906 C905 0.959 . S
H907 C905 0.960 . S
H908 C905 0.961 . S
O909 Co884 1.967 . S
O909 C917 1.258 . S
O910 Co885 1.941 . S
O910 C917 1.266 . S
H911 C913 0.959 . S
H912 C913 0.961 . S
C913 C903 1.510 . S
C913 H911 0.959 . S
C913 H912 0.961 . S
C913 H914 0.960 . S
H914 C913 0.960 . S
H915 N895 0.862 . S
O916 Co884 1.920 . S
O916 C889 1.289 . S
C917 O909 1.258 . S
C917 O910 1.266 . S
Co918 O921 1.970 . S
Co918 N935 1.989 . S
Co918 O943 1.967 . S
Co918 O950 1.920 1_545 S
Co919 O922 1.966 . S
Co919 N928 2.022 . S
Co919 N936 1.993 . S
Co919 O944 1.941 . S
C920 O921 1.258 . S
C920 O922 1.263 . S
O921 Co918 1.970 . S
O921 C920 1.258 . S
O922 Co919 1.966 . S
O922 C920 1.263 . S
C923 O924 1.235 . S
C923 O950 1.289 . S
O924 C923 1.235 . S
C925 C927 1.400 . S
C925 N928 1.351 . S
C925 C930 1.501 . S
C926 C927 1.387 . S
C926 N929 1.341 . S
C927 C925 1.400 . S
C927 C926 1.387 . S
N928 Co919 2.022 . S
N928 C925 1.351 . S
N928 N929 1.365 . S
N929 C926 1.341 . S
N929 N928 1.365 . S
N929 H949 0.862 . S
C930 C925 1.501 . S
C930 H931 0.961 . S
C930 H932 0.961 . S
C930 H933 0.960 . S
H931 C930 0.961 . S
H932 C930 0.961 . S
H933 C930 0.960 . S
C934 N935 1.342 . S
C934 C938 1.401 . S
C934 C939 1.499 . S
N935 Co918 1.989 . S
N935 C934 1.342 . S
N935 N936 1.388 . S
N936 Co919 1.993 . S
N936 N935 1.388 . S
N936 C937 1.346 . S
C937 N936 1.346 . S
C937 C938 1.396 . S
C937 C947 1.510 . S
C938 C934 1.401 . S
C938 C937 1.396 . S
C939 C934 1.499 . S
C939 H940 0.959 . S
C939 H941 0.960 . S
C939 H942 0.961 . S
H940 C939 0.959 . S
H941 C939 0.960 . S
H942 C939 0.961 . S
O943 Co918 1.967 . S
O943 C951 1.258 . S
O944 Co919 1.941 . S
O944 C951 1.266 . S
H945 C947 0.959 . S
H946 C947 0.961 . S
C947 C937 1.510 . S
C947 H945 0.959 . S
C947 H946 0.961 . S
C947 H948 0.960 . S
H948 C947 0.960 . S
H949 N929 0.862 . S
O950 Co918 1.920 1_565 S
O950 C923 1.289 . S
C951 O943 1.258 . S
C951 O944 1.266 . S
Co952 O955 1.970 . S
Co952 N969 1.989 . S
Co952 O977 1.967 . S
Co952 O984 1.920 . S
Co953 O956 1.966 . S
Co953 N962 2.022 . S
Co953 N970 1.993 . S
Co953 O978 1.941 . S
C954 O955 1.258 . S
C954 O956 1.263 . S
O955 Co952 1.970 . S
O955 C954 1.258 . S
O956 Co953 1.966 . S
O956 C954 1.263 . S
C957 O958 1.235 . S
C957 O984 1.289 . S
O958 C957 1.235 . S
C959 C961 1.400 . S
C959 N962 1.351 . S
C959 C964 1.501 . S
C960 C961 1.387 . S
C960 N963 1.341 . S
C961 C959 1.400 . S
C961 C960 1.387 . S
N962 Co953 2.022 . S
N962 C959 1.351 . S
N962 N963 1.365 . S
N963 C960 1.341 . S
N963 N962 1.365 . S
N963 H983 0.862 . S
C964 C959 1.501 . S
C964 H965 0.961 . S
C964 H966 0.961 . S
C964 H967 0.960 . S
H965 C964 0.961 . S
H966 C964 0.961 . S
H967 C964 0.960 . S
C968 N969 1.342 . S
C968 C972 1.401 . S
C968 C973 1.499 . S
N969 Co952 1.989 . S
N969 C968 1.342 . S
N969 N970 1.388 . S
N970 Co953 1.993 . S
N970 N969 1.388 . S
N970 C971 1.346 . S
C971 N970 1.346 . S
C971 C972 1.396 . S
C971 C981 1.510 . S
C972 C968 1.401 . S
C972 C971 1.396 . S
C973 C968 1.499 . S
C973 H974 0.959 . S
C973 H975 0.960 . S
C973 H976 0.961 . S
H974 C973 0.959 . S
H975 C973 0.960 . S
H976 C973 0.961 . S
O977 Co952 1.967 . S
O977 C985 1.258 . S
O978 Co953 1.941 . S
O978 C985 1.266 . S
H979 C981 0.959 . S
H980 C981 0.961 . S
C981 C971 1.510 . S
C981 H979 0.959 . S
C981 H980 0.961 . S
C981 H982 0.960 . S
H982 C981 0.960 . S
H983 N963 0.862 . S
O984 Co952 1.920 . S
O984 C957 1.289 . S
C985 O977 1.258 . S
C985 O978 1.266 . S
Co986 O989 1.970 . S
Co986 N1003 1.989 . S
Co986 O1011 1.967 . S
Co986 O1018 1.920 . S
Co987 O990 1.966 . S
Co987 N996 2.022 . S
Co987 N1004 1.993 . S
Co987 O1012 1.941 . S
C988 O989 1.258 . S
C988 O990 1.263 . S
O989 Co986 1.970 . S
O989 C988 1.258 . S
O990 Co987 1.966 . S
O990 C988 1.263 . S
C991 O992 1.235 . S
C991 O1018 1.289 . S
O992 C991 1.235 . S
C993 C995 1.400 . S
C993 N996 1.351 1_565 S
C993 C998 1.501 1_565 S
C994 C995 1.387 . S
C994 N997 1.341 . S
C995 C993 1.400 . S
C995 C994 1.387 . S
N996 Co987 2.022 . S
N996 C993 1.351 1_545 S
N996 N997 1.365 1_545 S
N997 C994 1.341 . S
N997 N996 1.365 1_565 S
N997 H1017 0.862 . S
C998 C993 1.501 1_545 S
C998 H999 0.961 . S
C998 H1000 0.961 . S
C998 H1001 0.960 . S
H999 C998 0.961 . S
H1000 C998 0.961 . S
H1001 C998 0.960 . S
C1002 N1003 1.342 . S
C1002 C1006 1.401 . S
C1002 C1007 1.499 . S
N1003 Co986 1.989 . S
N1003 C1002 1.342 . S
N1003 N1004 1.388 . S
N1004 Co987 1.993 . S
N1004 N1003 1.388 . S
N1004 C1005 1.346 . S
C1005 N1004 1.346 . S
C1005 C1006 1.396 . S
C1005 C1015 1.510 1_545 S
C1006 C1002 1.401 . S
C1006 C1005 1.396 . S
C1007 C1002 1.499 . S
C1007 H1008 0.959 . S
C1007 H1009 0.960 . S
C1007 H1010 0.961 . S
H1008 C1007 0.959 . S
H1009 C1007 0.960 . S
H1010 C1007 0.961 . S
O1011 Co986 1.967 . S
O1011 C1019 1.258 . S
O1012 Co987 1.941 . S
O1012 C1019 1.266 . S
H1013 C1015 0.959 . S
H1014 C1015 0.961 . S
C1015 C1005 1.510 1_565 S
C1015 H1013 0.959 . S
C1015 H1014 0.961 . S
C1015 H1016 0.960 . S
H1016 C1015 0.960 . S
H1017 N997 0.862 . S
O1018 Co986 1.920 . S
O1018 C991 1.289 . S
C1019 O1011 1.258 . S
C1019 O1012 1.266 . S
Co1020 O1023 1.970 . S
Co1020 N1037 1.989 . S
Co1020 O1045 1.967 . S
Co1020 O1052 1.920 . S
Co1021 O1024 1.966 . S
Co1021 N1030 2.022 . S
Co1021 N1038 1.993 . S
Co1021 O1046 1.941 . S
C1022 O1023 1.258 . S
C1022 O1024 1.263 . S
O1023 Co1020 1.970 . S
O1023 C1022 1.258 . S
O1024 Co1021 1.966 . S
O1024 C1022 1.263 . S
C1025 O1026 1.235 . S
C1025 O1052 1.289 . S
O1026 C1025 1.235 . S
C1027 C1029 1.400 . S
C1027 N1030 1.351 . S
C1027 C1032 1.501 . S
C1028 C1029 1.387 . S
C1028 N1031 1.341 . S
C1029 C1027 1.400 . S
C1029 C1028 1.387 . S
N1030 Co1021 2.022 . S
N1030 C1027 1.351 . S
N1030 N1031 1.365 . S
N1031 C1028 1.341 . S
N1031 N1030 1.365 . S
N1031 H1051 0.862 . S
C1032 C1027 1.501 . S
C1032 H1033 0.961 . S
C1032 H1034 0.961 . S
C1032 H1035 0.960 . S
H1033 C1032 0.961 . S
H1034 C1032 0.961 . S
H1035 C1032 0.960 . S
C1036 N1037 1.342 . S
C1036 C1040 1.401 . S
C1036 C1041 1.499 . S
N1037 Co1020 1.989 . S
N1037 C1036 1.342 . S
N1037 N1038 1.388 . S
N1038 Co1021 1.993 . S
N1038 N1037 1.388 . S
N1038 C1039 1.346 . S
C1039 N1038 1.346 . S
C1039 C1040 1.396 . S
C1039 C1049 1.510 . S
C1040 C1036 1.401 . S
C1040 C1039 1.396 . S
C1041 C1036 1.499 . S
C1041 H1042 0.959 . S
C1041 H1043 0.960 . S
C1041 H1044 0.961 . S
H1042 C1041 0.959 . S
H1043 C1041 0.960 . S
H1044 C1041 0.961 . S
O1045 Co1020 1.967 . S
O1045 C1053 1.258 . S
O1046 Co1021 1.941 . S
O1046 C1053 1.266 . S
H1047 C1049 0.959 . S
H1048 C1049 0.961 . S
C1049 C1039 1.510 . S
C1049 H1047 0.959 . S
C1049 H1048 0.961 . S
C1049 H1050 0.960 . S
H1050 C1049 0.960 . S
H1051 N1031 0.862 . S
O1052 Co1020 1.920 . S
O1052 C1025 1.289 . S
C1053 O1045 1.258 . S
C1053 O1046 1.266 . S
Co1054 O1057 1.970 . S
Co1054 N1071 1.989 . S
Co1054 O1079 1.967 . S
Co1054 O1086 1.920 . S
Co1055 O1058 1.966 . S
Co1055 N1064 2.022 1_545 S
Co1055 N1072 1.993 . S
Co1055 O1080 1.941 . S
C1056 O1057 1.258 . S
C1056 O1058 1.263 . S
O1057 Co1054 1.970 . S
O1057 C1056 1.258 . S
O1058 Co1055 1.966 . S
O1058 C1056 1.263 . S
C1059 O1060 1.235 . S
C1059 O1086 1.289 . S
O1060 C1059 1.235 . S
C1061 C1063 1.400 . S
C1061 N1064 1.351 . S
C1061 C1066 1.472 1_565 S
C1062 C1063 1.387 . S
C1062 N1065 1.341 . S
C1063 C1061 1.400 . S
C1063 C1062 1.387 . S
N1064 Co1055 2.022 1_565 S
N1064 C1061 1.351 . S
N1064 N1065 1.365 . S
N1065 C1062 1.341 . S
N1065 N1064 1.365 . S
N1065 H1085 0.862 . S
C1066 C1061 1.472 1_545 S
C1066 H1067 0.997 . S
C1066 H1068 0.952 1_545 S
C1066 H1069 0.964 . S
H1067 C1066 0.997 . S
H1068 C1066 0.952 1_565 S
H1069 C1066 0.964 . S
C1070 N1071 1.342 . S
C1070 C1074 1.401 1_545 S
C1070 C1075 1.499 . S
N1071 Co1054 1.989 . S
N1071 C1070 1.342 . S
N1071 N1072 1.388 . S
N1072 Co1055 1.993 . S
N1072 N1071 1.388 . S
N1072 C1073 1.346 1_545 S
C1073 N1072 1.346 1_565 S
C1073 C1074 1.396 . S
C1073 C1083 1.510 . S
C1074 C1070 1.401 1_565 S
C1074 C1073 1.396 . S
C1075 C1070 1.499 . S
C1075 H1076 0.959 . S
C1075 H1077 0.960 . S
C1075 H1078 0.961 . S
H1076 C1075 0.959 . S
H1077 C1075 0.960 . S
H1078 C1075 0.961 . S
O1079 Co1054 1.967 . S
O1079 C1087 1.258 . S
O1080 Co1055 1.941 . S
O1080 C1087 1.266 . S
H1081 C1083 0.959 . S
H1082 C1083 0.961 . S
C1083 C1073 1.510 . S
C1083 H1081 0.959 . S
C1083 H1082 0.961 . S
C1083 H1084 0.960 . S
H1084 C1083 0.960 . S
H1085 N1065 0.862 . S
O1086 Co1054 1.920 . S
O1086 C1059 1.289 . S
C1087 O1079 1.258 . S
C1087 O1080 1.266 . S
Co1088 O1091 1.970 . S
Co1088 N1105 1.989 . S
Co1088 O1113 1.967 . S
Co1088 O1120 1.920 . S
Co1089 O1092 1.966 . S
Co1089 N1098 2.022 . S
Co1089 N1106 1.993 . S
Co1089 O1114 1.941 . S
C1090 O1091 1.258 . S
C1090 O1092 1.263 . S
O1091 Co1088 1.970 . S
O1091 C1090 1.258 . S
O1092 Co1089 1.966 . S
O1092 C1090 1.263 . S
C1093 O1094 1.235 . S
C1093 O1120 1.289 . S
O1094 C1093 1.235 . S
C1095 C1097 1.400 . S
C1095 N1098 1.351 . S
C1095 C1100 1.501 . S
C1096 C1097 1.387 . S
C1096 N1099 1.341 . S
C1097 C1095 1.400 . S
C1097 C1096 1.387 . S
N1098 Co1089 2.022 . S
N1098 C1095 1.351 . S
N1098 N1099 1.365 . S
N1099 C1096 1.341 . S
N1099 N1098 1.365 . S
N1099 H1119 0.862 . S
C1100 C1095 1.501 . S
C1100 H1101 0.961 . S
C1100 H1102 0.961 . S
C1100 H1103 0.960 . S
H1101 C1100 0.961 . S
H1102 C1100 0.961 . S
H1103 C1100 0.960 . S
C1104 N1105 1.342 . S
C1104 C1108 1.401 . S
C1104 C1109 1.499 . S
N1105 Co1088 1.989 . S
N1105 C1104 1.342 . S
N1105 N1106 1.388 . S
N1106 Co1089 1.993 . S
N1106 N1105 1.388 . S
N1106 C1107 1.346 . S
C1107 N1106 1.346 . S
C1107 C1108 1.396 . S
C1107 C1117 1.510 . S
C1108 C1104 1.401 . S
C1108 C1107 1.396 . S
C1109 C1104 1.499 . S
C1109 H1110 0.959 . S
C1109 H1111 0.960 . S
C1109 H1112 0.961 . S
H1110 C1109 0.959 . S
H1111 C1109 0.960 . S
H1112 C1109 0.961 . S
O1113 Co1088 1.967 . S
O1113 C1121 1.258 . S
O1114 Co1089 1.941 . S
O1114 C1121 1.266 . S
H1115 C1117 0.959 . S
H1116 C1117 0.961 . S
C1117 C1107 1.510 . S
C1117 H1115 0.959 . S
C1117 H1116 0.961 . S
C1117 H1118 0.960 . S
H1118 C1117 0.960 . S
H1119 N1099 0.862 . S
O1120 Co1088 1.920 . S
O1120 C1093 1.289 . S
C1121 O1113 1.258 . S
C1121 O1114 1.266 . S
Co1122 O1125 1.970 . S
Co1122 N1139 1.989 . S
Co1122 O1147 1.967 . S
Co1122 O1154 1.920 . S
Co1123 O1126 1.966 . S
Co1123 N1132 2.022 . S
Co1123 N1140 1.993 . S
Co1123 O1148 1.941 . S
C1124 O1125 1.258 . S
C1124 O1126 1.263 . S
O1125 Co1122 1.970 . S
O1125 C1124 1.258 . S
O1126 Co1123 1.966 . S
O1126 C1124 1.263 . S
C1127 O1128 1.235 . S
C1127 O1154 1.289 . S
O1128 C1127 1.235 . S
C1129 C1131 1.400 . S
C1129 N1132 1.351 . S
C1129 C1134 1.501 . S
C1130 C1131 1.387 . S
C1130 N1133 1.341 . S
C1131 C1129 1.400 . S
C1131 C1130 1.387 . S
N1132 Co1123 2.022 . S
N1132 C1129 1.351 . S
N1132 N1133 1.365 . S
N1133 C1130 1.341 . S
N1133 N1132 1.365 . S
N1133 H1153 0.862 . S
C1134 C1129 1.501 . S
C1134 H1135 0.961 . S
C1134 H1136 0.961 . S
C1134 H1137 0.960 . S
H1135 C1134 0.961 . S
H1136 C1134 0.961 . S
H1137 C1134 0.960 . S
C1138 N1139 1.342 . S
C1138 C1142 1.401 . S
C1138 C1143 1.499 . S
N1139 Co1122 1.989 . S
N1139 C1138 1.342 . S
N1139 N1140 1.388 . S
N1140 Co1123 1.993 . S
N1140 N1139 1.388 . S
N1140 C1141 1.346 . S
C1141 N1140 1.346 . S
C1141 C1142 1.396 . S
C1141 C1151 1.510 . S
C1142 C1138 1.401 . S
C1142 C1141 1.396 . S
C1143 C1138 1.499 . S
C1143 H1144 0.959 . S
C1143 H1145 0.960 . S
C1143 H1146 0.961 . S
H1144 C1143 0.959 . S
H1145 C1143 0.960 . S
H1146 C1143 0.961 . S
O1147 Co1122 1.967 . S
O1147 C1155 1.258 . S
O1148 Co1123 1.941 . S
O1148 C1155 1.266 . S
H1149 C1151 0.959 . S
H1150 C1151 0.961 . S
C1151 C1141 1.510 . S
C1151 H1149 0.959 . S
C1151 H1150 0.961 . S
C1151 H1152 0.960 . S
H1152 C1151 0.960 . S
H1153 N1133 0.862 . S
O1154 Co1122 1.920 . S
O1154 C1127 1.289 . S
C1155 O1147 1.258 . S
C1155 O1148 1.266 . S
Co1156 O1159 1.970 . S
Co1156 N1173 1.989 . S
Co1156 O1181 1.967 . S
Co1156 O1188 1.920 . S
Co1157 O1160 1.966 . S
Co1157 N1166 2.022 . S
Co1157 N1174 1.993 . S
Co1157 O1182 1.941 . S
C1158 O1159 1.258 . S
C1158 O1160 1.263 . S
O1159 Co1156 1.970 . S
O1159 C1158 1.258 . S
O1160 Co1157 1.966 . S
O1160 C1158 1.263 . S
C1161 O1162 1.235 . S
C1161 O1188 1.289 . S
O1162 C1161 1.235 . S
C1163 C1165 1.400 . S
C1163 N1166 1.351 . S
C1163 C1168 1.501 . S
C1164 C1165 1.387 . S
C1164 N1167 1.341 . S
C1165 C1163 1.400 . S
C1165 C1164 1.387 . S
N1166 Co1157 2.022 . S
N1166 C1163 1.351 . S
N1166 N1167 1.365 . S
N1167 C1164 1.341 . S
N1167 N1166 1.365 . S
N1167 H1187 0.862 . S
C1168 C1163 1.501 . S
C1168 H1169 0.961 . S
C1168 H1170 0.961 . S
C1168 H1171 0.960 . S
H1169 C1168 0.961 . S
H1170 C1168 0.961 . S
H1171 C1168 0.960 . S
C1172 N1173 1.342 . S
C1172 C1176 1.401 . S
C1172 C1177 1.499 . S
N1173 Co1156 1.989 . S
N1173 C1172 1.342 . S
N1173 N1174 1.388 . S
N1174 Co1157 1.993 . S
N1174 N1173 1.388 . S
N1174 C1175 1.346 . S
C1175 N1174 1.346 . S
C1175 C1176 1.396 . S
C1175 C1185 1.510 . S
C1176 C1172 1.401 . S
C1176 C1175 1.396 . S
C1177 C1172 1.499 . S
C1177 H1178 0.959 . S
C1177 H1179 0.960 . S
C1177 H1180 0.961 . S
H1178 C1177 0.959 . S
H1179 C1177 0.960 . S
H1180 C1177 0.961 . S
O1181 Co1156 1.967 . S
O1181 C1189 1.258 . S
O1182 Co1157 1.941 . S
O1182 C1189 1.266 . S
H1183 C1185 0.959 . S
H1184 C1185 0.961 . S
C1185 C1175 1.510 . S
C1185 H1183 0.959 . S
C1185 H1184 0.961 . S
C1185 H1186 0.960 . S
H1186 C1185 0.960 . S
H1187 N1167 0.862 . S
O1188 Co1156 1.920 . S
O1188 C1161 1.289 . S
C1189 O1181 1.258 . S
C1189 O1182 1.266 . S
Co1190 O1193 1.970 . S
Co1190 N1207 1.989 . S
Co1190 O1215 1.967 . S
Co1190 O1222 1.920 . S
Co1191 O1194 1.966 . S
Co1191 N1200 2.022 . S
Co1191 N1208 1.993 . S
Co1191 O1216 1.941 . S
C1192 O1193 1.258 . S
C1192 O1194 1.263 . S
O1193 Co1190 1.970 . S
O1193 C1192 1.258 . S
O1194 Co1191 1.966 . S
O1194 C1192 1.263 . S
C1195 O1196 1.235 . S
C1195 O1222 1.289 . S
O1196 C1195 1.235 . S
C1197 C1199 1.400 . S
C1197 N1200 1.351 . S
C1197 C1202 1.501 . S
C1198 C1199 1.387 . S
C1198 N1201 1.341 . S
C1199 C1197 1.400 . S
C1199 C1198 1.387 . S
N1200 Co1191 2.022 . S
N1200 C1197 1.351 . S
N1200 N1201 1.365 . S
N1201 C1198 1.341 . S
N1201 N1200 1.365 . S
N1201 H1221 0.862 . S
C1202 C1197 1.501 . S
C1202 H1203 0.961 . S
C1202 H1204 0.961 . S
C1202 H1205 0.960 . S
H1203 C1202 0.961 . S
H1204 C1202 0.961 . S
H1205 C1202 0.960 . S
C1206 N1207 1.342 . S
C1206 C1210 1.401 . S
C1206 C1211 1.499 . S
N1207 Co1190 1.989 . S
N1207 C1206 1.342 . S
N1207 N1208 1.388 . S
N1208 Co1191 1.993 . S
N1208 N1207 1.388 . S
N1208 C1209 1.346 . S
C1209 N1208 1.346 . S
C1209 C1210 1.396 . S
C1209 C1219 1.510 . S
C1210 C1206 1.401 . S
C1210 C1209 1.396 . S
C1211 C1206 1.499 . S
C1211 H1212 0.959 . S
C1211 H1213 0.960 . S
C1211 H1214 0.961 . S
H1212 C1211 0.959 . S
H1213 C1211 0.960 . S
H1214 C1211 0.961 . S
O1215 Co1190 1.967 . S
O1215 C1223 1.258 . S
O1216 Co1191 1.941 . S
O1216 C1223 1.266 . S
H1217 C1219 0.959 . S
H1218 C1219 0.961 . S
C1219 C1209 1.510 . S
C1219 H1217 0.959 . S
C1219 H1218 0.961 . S
C1219 H1220 0.960 . S
H1220 C1219 0.960 . S
H1221 N1201 0.862 . S
O1222 Co1190 1.920 . S
O1222 C1195 1.289 . S
C1223 O1215 1.258 . S
C1223 O1216 1.266 . S
Co1224 O1227 1.970 . S
Co1224 N1241 1.989 . S
Co1224 O1249 1.967 . S
Co1224 O1256 1.920 . S
Co1225 O1228 1.966 . S
Co1225 N1234 2.022 . S
Co1225 N1242 1.993 . S
Co1225 O1250 1.941 . S
C1226 O1227 1.258 . S
C1226 O1228 1.263 . S
O1227 Co1224 1.970 . S
O1227 C1226 1.258 . S
O1228 Co1225 1.966 . S
O1228 C1226 1.263 . S
C1229 O1230 1.235 . S
C1229 O1256 1.289 . S
O1230 C1229 1.235 . S
C1231 C1233 1.400 . S
C1231 N1234 1.351 . S
C1231 C1236 1.501 . S
C1232 C1233 1.387 . S
C1232 N1235 1.341 . S
C1233 C1231 1.400 . S
C1233 C1232 1.387 . S
N1234 Co1225 2.022 . S
N1234 C1231 1.351 . S
N1234 N1235 1.365 . S
N1235 C1232 1.341 . S
N1235 N1234 1.365 . S
N1235 H1255 0.862 . S
C1236 C1231 1.501 . S
C1236 H1237 0.961 . S
C1236 H1238 0.961 . S
C1236 H1239 0.960 . S
H1237 C1236 0.961 . S
H1238 C1236 0.961 . S
H1239 C1236 0.960 . S
C1240 N1241 1.342 . S
C1240 C1244 1.401 . S
C1240 C1245 1.499 . S
N1241 Co1224 1.989 . S
N1241 C1240 1.342 . S
N1241 N1242 1.388 . S
N1242 Co1225 1.993 . S
N1242 N1241 1.388 . S
N1242 C1243 1.346 . S
C1243 N1242 1.346 . S
C1243 C1244 1.396 . S
C1243 C1253 1.510 . S
C1244 C1240 1.401 . S
C1244 C1243 1.396 . S
C1245 C1240 1.499 . S
C1245 H1246 0.959 . S
C1245 H1247 0.960 . S
C1245 H1248 0.961 . S
H1246 C1245 0.959 . S
H1247 C1245 0.960 . S
H1248 C1245 0.961 . S
O1249 Co1224 1.967 . S
O1249 C1257 1.258 . S
O1250 Co1225 1.941 . S
O1250 C1257 1.266 . S
H1251 C1253 0.959 . S
H1252 C1253 0.961 . S
C1253 C1243 1.510 . S
C1253 H1251 0.959 . S
C1253 H1252 0.961 . S
C1253 H1254 0.960 . S
H1254 C1253 0.960 . S
H1255 N1235 0.862 . S
O1256 Co1224 1.920 . S
O1256 C1229 1.289 . S
C1257 O1249 1.258 . S
C1257 O1250 1.266 . S
Co1258 O1261 1.970 . S
Co1258 N1275 1.989 . S
Co1258 O1283 1.967 . S
Co1258 O1290 1.920 . S
Co1259 O1262 1.966 . S
Co1259 N1268 2.022 . S
Co1259 N1276 1.993 . S
Co1259 O1284 1.941 . S
C1260 O1261 1.258 . S
C1260 O1262 1.263 . S
O1261 Co1258 1.970 . S
O1261 C1260 1.258 . S
O1262 Co1259 1.966 . S
O1262 C1260 1.263 . S
C1263 O1264 1.235 . S
C1263 O1290 1.289 . S
O1264 C1263 1.235 . S
C1265 C1267 1.400 . S
C1265 N1268 1.351 . S
C1265 C1270 1.501 . S
C1266 C1267 1.387 . S
C1266 N1269 1.341 . S
C1267 C1265 1.400 . S
C1267 C1266 1.387 . S
N1268 Co1259 2.022 . S
N1268 C1265 1.351 . S
N1268 N1269 1.365 . S
N1269 C1266 1.341 . S
N1269 N1268 1.365 . S
N1269 H1289 0.862 . S
C1270 C1265 1.501 . S
C1270 H1271 0.961 . S
C1270 H1272 0.961 . S
C1270 H1273 0.960 . S
H1271 C1270 0.961 . S
H1272 C1270 0.961 . S
H1273 C1270 0.960 . S
C1274 N1275 1.342 . S
C1274 C1278 1.401 . S
C1274 C1279 1.499 . S
N1275 Co1258 1.989 . S
N1275 C1274 1.342 . S
N1275 N1276 1.388 . S
N1276 Co1259 1.993 . S
N1276 N1275 1.388 . S
N1276 C1277 1.346 . S
C1277 N1276 1.346 . S
C1277 C1278 1.396 . S
C1277 C1287 1.510 . S
C1278 C1274 1.401 . S
C1278 C1277 1.396 . S
C1279 C1274 1.499 . S
C1279 H1280 0.959 . S
C1279 H1281 0.960 . S
C1279 H1282 0.961 . S
H1280 C1279 0.959 . S
H1281 C1279 0.960 . S
H1282 C1279 0.961 . S
O1283 Co1258 1.967 . S
O1283 C1291 1.258 . S
O1284 Co1259 1.941 . S
O1284 C1291 1.266 . S
H1285 C1287 0.959 . S
H1286 C1287 0.961 . S
C1287 C1277 1.510 . S
C1287 H1285 0.959 . S
C1287 H1286 0.961 . S
C1287 H1288 0.960 . S
H1288 C1287 0.960 . S
H1289 N1269 0.862 . S
O1290 Co1258 1.920 . S
O1290 C1263 1.289 . S
C1291 O1283 1.258 . S
C1291 O1284 1.266 . S
Co1292 O1295 1.970 . S
Co1292 N1309 1.989 . S
Co1292 O1317 1.967 . S
Co1292 O1324 1.920 . S
Co1293 O1296 1.966 . S
Co1293 N1302 2.022 . S
Co1293 N1310 1.993 . S
Co1293 O1318 1.941 . S
C1294 O1295 1.258 . S
C1294 O1296 1.263 . S
O1295 Co1292 1.970 . S
O1295 C1294 1.258 . S
O1296 Co1293 1.966 . S
O1296 C1294 1.263 . S
C1297 O1298 1.235 . S
C1297 O1324 1.289 . S
O1298 C1297 1.235 . S
C1299 C1301 1.400 . S
C1299 N1302 1.351 . S
C1299 C1304 1.501 . S
C1300 C1301 1.387 . S
C1300 N1303 1.341 . S
C1301 C1299 1.400 . S
C1301 C1300 1.387 . S
N1302 Co1293 2.022 . S
N1302 C1299 1.351 . S
N1302 N1303 1.365 . S
N1303 C1300 1.341 . S
N1303 N1302 1.365 . S
N1303 H1323 0.862 . S
C1304 C1299 1.501 . S
C1304 H1305 0.961 . S
C1304 H1306 0.961 . S
C1304 H1307 0.960 . S
H1305 C1304 0.961 . S
H1306 C1304 0.961 . S
H1307 C1304 0.960 . S
C1308 N1309 1.342 . S
C1308 C1312 1.401 . S
C1308 C1313 1.499 . S
N1309 Co1292 1.989 . S
N1309 C1308 1.342 . S
N1309 N1310 1.388 . S
N1310 Co1293 1.993 . S
N1310 N1309 1.388 . S
N1310 C1311 1.346 . S
C1311 N1310 1.346 . S
C1311 C1312 1.396 . S
C1311 C1321 1.510 . S
C1312 C1308 1.401 . S
C1312 C1311 1.396 . S
C1313 C1308 1.499 . S
C1313 H1314 0.959 . S
C1313 H1315 0.960 . S
C1313 H1316 0.961 . S
H1314 C1313 0.959 . S
H1315 C1313 0.960 . S
H1316 C1313 0.961 . S
O1317 Co1292 1.967 . S
O1317 C1325 1.258 . S
O1318 Co1293 1.941 . S
O1318 C1325 1.266 . S
H1319 C1321 0.959 . S
H1320 C1321 0.961 . S
C1321 C1311 1.510 . S
C1321 H1319 0.959 . S
C1321 H1320 0.961 . S
C1321 H1322 0.960 . S
H1322 C1321 0.960 . S
H1323 N1303 0.862 . S
O1324 Co1292 1.920 . S
O1324 C1297 1.289 . S
C1325 O1317 1.258 . S
C1325 O1318 1.266 . S
Co1326 O1329 1.970 . S
Co1326 N1343 1.989 . S
Co1326 O1351 1.967 . S
Co1326 O1358 1.920 . S
Co1327 O1330 1.966 . S
Co1327 N1336 2.022 . S
Co1327 N1344 1.993 . S
Co1327 O1352 1.941 . S
C1328 O1329 1.258 . S
C1328 O1330 1.263 . S
O1329 Co1326 1.970 . S
O1329 C1328 1.258 . S
O1330 Co1327 1.966 . S
O1330 C1328 1.263 . S
C1331 O1332 1.235 . S
C1331 O1358 1.289 . S
O1332 C1331 1.235 . S
C1333 C1335 1.400 . S
C1333 N1336 1.351 . S
C1333 C1338 1.501 . S
C1334 C1335 1.387 . S
C1334 N1337 1.341 . S
C1335 C1333 1.400 . S
C1335 C1334 1.387 . S
N1336 Co1327 2.022 . S
N1336 C1333 1.351 . S
N1336 N1337 1.365 . S
N1337 C1334 1.341 . S
N1337 N1336 1.365 . S
N1337 H1357 0.862 . S
C1338 C1333 1.501 . S
C1338 H1339 0.961 . S
C1338 H1340 0.961 . S
C1338 H1341 0.960 . S
H1339 C1338 0.961 . S
H1340 C1338 0.961 . S
H1341 C1338 0.960 . S
C1342 N1343 1.342 . S
C1342 C1346 1.401 . S
C1342 C1347 1.499 . S
N1343 Co1326 1.989 . S
N1343 C1342 1.342 . S
N1343 N1344 1.388 . S
N1344 Co1327 1.993 . S
N1344 N1343 1.388 . S
N1344 C1345 1.346 . S
C1345 N1344 1.346 . S
C1345 C1346 1.396 . S
C1345 C1355 1.510 . S
C1346 C1342 1.401 . S
C1346 C1345 1.396 . S
C1347 C1342 1.499 . S
C1347 H1348 0.959 . S
C1347 H1349 0.960 . S
C1347 H1350 0.961 . S
H1348 C1347 0.959 . S
H1349 C1347 0.960 . S
H1350 C1347 0.961 . S
O1351 Co1326 1.967 . S
O1351 C1359 1.258 . S
O1352 Co1327 1.941 . S
O1352 C1359 1.266 . S
H1353 C1355 0.959 . S
H1354 C1355 0.961 . S
C1355 C1345 1.510 . S
C1355 H1353 0.959 . S
C1355 H1354 0.961 . S
C1355 H1356 0.960 . S
H1356 C1355 0.960 . S
H1357 N1337 0.862 . S
O1358 Co1326 1.920 . S
O1358 C1331 1.289 . S
C1359 O1351 1.258 . S
C1359 O1352 1.266 . S
Co1360 O1363 1.970 . S
Co1360 N1377 1.989 . S
Co1360 O1385 1.967 . S
Co1360 O1392 1.920 . S
Co1361 O1364 1.966 . S
Co1361 N1370 2.022 . S
Co1361 N1378 1.993 . S
Co1361 O1386 1.941 . S
C1362 O1363 1.258 . S
C1362 O1364 1.263 . S
O1363 Co1360 1.970 . S
O1363 C1362 1.258 . S
O1364 Co1361 1.966 . S
O1364 C1362 1.263 . S
C1365 O1366 1.235 . S
C1365 O1392 1.289 . S
O1366 C1365 1.235 . S
C1367 C1369 1.400 . S
C1367 N1370 1.351 . S
C1367 C1372 1.501 . S
C1368 C1369 1.387 . S
C1368 N1371 1.341 . S
C1369 C1367 1.400 . S
C1369 C1368 1.387 . S
N1370 Co1361 2.022 . S
N1370 C1367 1.351 . S
N1370 N1371 1.365 . S
N1371 C1368 1.341 . S
N1371 N1370 1.365 . S
N1371 H1391 0.862 . S
C1372 C1367 1.501 . S
C1372 H1373 0.961 . S
C1372 H1374 0.961 . S
C1372 H1375 0.960 . S
H1373 C1372 0.961 . S
H1374 C1372 0.961 . S
H1375 C1372 0.960 . S
C1376 N1377 1.342 . S
C1376 C1380 1.401 . S
C1376 C1381 1.499 . S
N1377 Co1360 1.989 . S
N1377 C1376 1.342 . S
N1377 N1378 1.388 . S
N1378 Co1361 1.993 . S
N1378 N1377 1.388 . S
N1378 C1379 1.346 . S
C1379 N1378 1.346 . S
C1379 C1380 1.396 . S
C1379 C1389 1.510 . S
C1380 C1376 1.401 . S
C1380 C1379 1.396 . S
C1381 C1376 1.499 . S
C1381 H1382 0.959 . S
C1381 H1383 0.960 . S
C1381 H1384 0.961 . S
H1382 C1381 0.959 . S
H1383 C1381 0.960 . S
H1384 C1381 0.961 . S
O1385 Co1360 1.967 . S
O1385 C1393 1.258 . S
O1386 Co1361 1.941 . S
O1386 C1393 1.266 . S
H1387 C1389 0.959 . S
H1388 C1389 0.961 . S
C1389 C1379 1.510 . S
C1389 H1387 0.959 . S
C1389 H1388 0.961 . S
C1389 H1390 0.960 . S
H1390 C1389 0.960 . S
H1391 N1371 0.862 . S
O1392 Co1360 1.920 . S
O1392 C1365 1.289 . S
C1393 O1385 1.258 . S
C1393 O1386 1.266 . S
Co1394 O1397 1.970 . S
Co1394 N1411 1.989 . S
Co1394 O1419 1.967 . S
Co1394 O1426 1.920 . S
Co1395 O1398 1.966 . S
Co1395 N1404 2.022 . S
Co1395 N1412 1.993 . S
Co1395 O1420 1.941 . S
C1396 O1397 1.258 . S
C1396 O1398 1.263 . S
O1397 Co1394 1.970 . S
O1397 C1396 1.258 . S
O1398 Co1395 1.966 . S
O1398 C1396 1.263 . S
C1399 O1400 1.235 . S
C1399 O1426 1.289 . S
O1400 C1399 1.235 . S
C1401 C1403 1.400 . S
C1401 N1404 1.351 . S
C1401 C1406 1.501 . S
C1402 C1403 1.387 . S
C1402 N1405 1.341 . S
C1403 C1401 1.400 . S
C1403 C1402 1.387 . S
N1404 Co1395 2.022 . S
N1404 C1401 1.351 . S
N1404 N1405 1.365 . S
N1405 C1402 1.341 . S
N1405 N1404 1.365 . S
N1405 H1425 0.862 . S
C1406 C1401 1.501 . S
C1406 H1407 0.961 . S
C1406 H1408 0.961 . S
C1406 H1409 0.960 . S
H1407 C1406 0.961 . S
H1408 C1406 0.961 . S
H1409 C1406 0.960 . S
C1410 N1411 1.342 . S
C1410 C1414 1.401 . S
C1410 C1415 1.499 . S
N1411 Co1394 1.989 . S
N1411 C1410 1.342 . S
N1411 N1412 1.388 . S
N1412 Co1395 1.993 . S
N1412 N1411 1.388 . S
N1412 C1413 1.346 . S
C1413 N1412 1.346 . S
C1413 C1414 1.396 . S
C1413 C1423 1.510 . S
C1414 C1410 1.401 . S
C1414 C1413 1.396 . S
C1415 C1410 1.499 . S
C1415 H1416 0.959 . S
C1415 H1417 0.960 . S
C1415 H1418 0.961 . S
H1416 C1415 0.959 . S
H1417 C1415 0.960 . S
H1418 C1415 0.961 . S
O1419 Co1394 1.967 . S
O1419 C1427 1.258 . S
O1420 Co1395 1.941 . S
O1420 C1427 1.266 . S
H1421 C1423 0.959 . S
H1422 C1423 0.961 . S
C1423 C1413 1.510 . S
C1423 H1421 0.959 . S
C1423 H1422 0.961 . S
C1423 H1424 0.960 . S
H1424 C1423 0.960 . S
H1425 N1405 0.862 . S
O1426 Co1394 1.920 . S
O1426 C1399 1.289 . S
C1427 O1419 1.258 . S
C1427 O1420 1.266 . S
Co1428 O1431 1.970 . S
Co1428 N1445 1.989 . S
Co1428 O1453 1.967 . S
Co1428 O1460 1.920 . S
Co1429 O1432 1.966 . S
Co1429 N1438 2.022 . S
Co1429 N1446 1.993 . S
Co1429 O1454 1.941 . S
C1430 O1431 1.258 . S
C1430 O1432 1.263 . S
O1431 Co1428 1.970 . S
O1431 C1430 1.258 . S
O1432 Co1429 1.966 . S
O1432 C1430 1.263 . S
C1433 O1434 1.235 . S
C1433 O1460 1.289 . S
O1434 C1433 1.235 . S
C1435 C1437 1.400 . S
C1435 N1438 1.351 . S
C1435 C1440 1.501 . S
C1436 C1437 1.387 . S
C1436 N1439 1.341 . S
C1437 C1435 1.400 . S
C1437 C1436 1.387 . S
N1438 Co1429 2.022 . S
N1438 C1435 1.351 . S
N1438 N1439 1.365 . S
N1439 C1436 1.341 . S
N1439 N1438 1.365 . S
N1439 H1459 0.862 . S
C1440 C1435 1.501 . S
C1440 H1441 0.961 . S
C1440 H1442 0.961 . S
C1440 H1443 0.960 . S
H1441 C1440 0.961 . S
H1442 C1440 0.961 . S
H1443 C1440 0.960 . S
C1444 N1445 1.342 . S
C1444 C1448 1.401 . S
C1444 C1449 1.499 . S
N1445 Co1428 1.989 . S
N1445 C1444 1.342 . S
N1445 N1446 1.388 . S
N1446 Co1429 1.993 . S
N1446 N1445 1.388 . S
N1446 C1447 1.346 . S
C1447 N1446 1.346 . S
C1447 C1448 1.396 . S
C1447 C1457 1.510 . S
C1448 C1444 1.401 . S
C1448 C1447 1.396 . S
C1449 C1444 1.499 . S
C1449 H1450 0.959 . S
C1449 H1451 0.960 . S
C1449 H1452 0.961 . S
H1450 C1449 0.959 . S
H1451 C1449 0.960 . S
H1452 C1449 0.961 . S
O1453 Co1428 1.967 . S
O1453 C1461 1.258 . S
O1454 Co1429 1.941 . S
O1454 C1461 1.266 . S
H1455 C1457 0.959 . S
H1456 C1457 0.961 . S
C1457 C1447 1.510 . S
C1457 H1455 0.959 . S
C1457 H1456 0.961 . S
C1457 H1458 0.960 . S
H1458 C1457 0.960 . S
H1459 N1439 0.862 . S
O1460 Co1428 1.920 . S
O1460 C1433 1.289 . S
C1461 O1453 1.258 . S
C1461 O1454 1.266 . S
Co1462 O1465 1.970 . S
Co1462 N1479 1.989 . S
Co1462 O1487 1.967 . S
Co1462 O1494 1.920 . S
Co1463 O1466 1.966 . S
Co1463 N1472 2.022 . S
Co1463 N1480 1.993 . S
Co1463 O1488 1.941 . S
C1464 O1465 1.258 . S
C1464 O1466 1.263 . S
O1465 Co1462 1.970 . S
O1465 C1464 1.258 . S
O1466 Co1463 1.966 . S
O1466 C1464 1.263 . S
C1467 O1468 1.235 . S
C1467 O1494 1.289 . S
O1468 C1467 1.235 . S
C1469 C1471 1.400 . S
C1469 N1472 1.351 . S
C1469 C1474 1.501 . S
C1470 C1471 1.387 . S
C1470 N1473 1.341 . S
C1471 C1469 1.400 . S
C1471 C1470 1.387 . S
N1472 Co1463 2.022 . S
N1472 C1469 1.351 . S
N1472 N1473 1.365 . S
N1473 C1470 1.341 . S
N1473 N1472 1.365 . S
N1473 H1493 0.862 . S
C1474 C1469 1.501 . S
C1474 H1475 0.961 . S
C1474 H1476 0.961 . S
C1474 H1477 0.960 . S
H1475 C1474 0.961 . S
H1476 C1474 0.961 . S
H1477 C1474 0.960 . S
C1478 N1479 1.342 . S
C1478 C1482 1.401 . S
C1478 C1483 1.499 . S
N1479 Co1462 1.989 . S
N1479 C1478 1.342 . S
N1479 N1480 1.388 . S
N1480 Co1463 1.993 . S
N1480 N1479 1.388 . S
N1480 C1481 1.346 . S
C1481 N1480 1.346 . S
C1481 C1482 1.396 . S
C1481 C1491 1.510 . S
C1482 C1478 1.401 . S
C1482 C1481 1.396 . S
C1483 C1478 1.499 . S
C1483 H1484 0.959 . S
C1483 H1485 0.960 . S
C1483 H1486 0.961 . S
H1484 C1483 0.959 . S
H1485 C1483 0.960 . S
H1486 C1483 0.961 . S
O1487 Co1462 1.967 . S
O1487 C1495 1.258 . S
O1488 Co1463 1.941 . S
O1488 C1495 1.266 . S
H1489 C1491 0.959 . S
H1490 C1491 0.961 . S
C1491 C1481 1.510 . S
C1491 H1489 0.959 . S
C1491 H1490 0.961 . S
C1491 H1492 0.960 . S
H1492 C1491 0.960 . S
H1493 N1473 0.862 . S
O1494 Co1462 1.920 . S
O1494 C1467 1.289 . S
C1495 O1487 1.258 . S
C1495 O1488 1.266 . S
Co1496 O1499 1.970 . S
Co1496 N1513 1.989 . S
Co1496 O1521 1.967 . S
Co1496 O1528 1.920 . S
Co1497 O1500 1.966 . S
Co1497 N1506 2.022 . S
Co1497 N1514 1.993 . S
Co1497 O1522 1.941 . S
C1498 O1499 1.258 . S
C1498 O1500 1.263 . S
O1499 Co1496 1.970 . S
O1499 C1498 1.258 . S
O1500 Co1497 1.966 . S
O1500 C1498 1.263 . S
C1501 O1502 1.235 . S
C1501 O1528 1.289 . S
O1502 C1501 1.235 . S
C1503 C1505 1.400 . S
C1503 N1506 1.351 . S
C1503 C1508 1.501 . S
C1504 C1505 1.387 . S
C1504 N1507 1.341 . S
C1505 C1503 1.400 . S
C1505 C1504 1.387 . S
N1506 Co1497 2.022 . S
N1506 C1503 1.351 . S
N1506 N1507 1.365 . S
N1507 C1504 1.341 . S
N1507 N1506 1.365 . S
N1507 H1527 0.862 . S
C1508 C1503 1.501 . S
C1508 H1509 0.961 . S
C1508 H1510 0.961 . S
C1508 H1511 0.960 . S
H1509 C1508 0.961 . S
H1510 C1508 0.961 . S
H1511 C1508 0.960 . S
C1512 N1513 1.342 . S
C1512 C1516 1.401 . S
C1512 C1517 1.499 . S
N1513 Co1496 1.989 . S
N1513 C1512 1.342 . S
N1513 N1514 1.388 . S
N1514 Co1497 1.993 . S
N1514 N1513 1.388 . S
N1514 C1515 1.346 . S
C1515 N1514 1.346 . S
C1515 C1516 1.396 . S
C1515 C1525 1.510 . S
C1516 C1512 1.401 . S
C1516 C1515 1.396 . S
C1517 C1512 1.499 . S
C1517 H1518 0.959 . S
C1517 H1519 0.960 . S
C1517 H1520 0.961 . S
H1518 C1517 0.959 . S
H1519 C1517 0.960 . S
H1520 C1517 0.961 . S
O1521 Co1496 1.967 . S
O1521 C1529 1.258 . S
O1522 Co1497 1.941 . S
O1522 C1529 1.266 . S
H1523 C1525 0.959 . S
H1524 C1525 0.961 . S
C1525 C1515 1.510 . S
C1525 H1523 0.959 . S
C1525 H1524 0.961 . S
C1525 H1526 0.960 . S
H1526 C1525 0.960 . S
H1527 N1507 0.862 . S
O1528 Co1496 1.920 . S
O1528 C1501 1.289 . S
C1529 O1521 1.258 . S
C1529 O1522 1.266 . S
Co1530 O1533 1.970 . S
Co1530 N1547 1.989 . S
Co1530 O1555 1.967 . S
Co1530 O1562 1.920 . S
Co1531 O1534 1.966 . S
Co1531 N1540 2.022 . S
Co1531 N1548 1.993 . S
Co1531 O1556 1.941 . S
C1532 O1533 1.258 . S
C1532 O1534 1.263 . S
O1533 Co1530 1.970 . S
O1533 C1532 1.258 . S
O1534 Co1531 1.966 . S
O1534 C1532 1.263 . S
C1535 O1536 1.235 . S
C1535 O1562 1.289 1_556 S
O1536 C1535 1.235 . S
C1537 C1539 1.400 . S
C1537 N1540 1.351 . S
C1537 C1542 1.501 . S
C1538 C1539 1.387 . S
C1538 N1541 1.341 . S
C1539 C1537 1.400 . S
C1539 C1538 1.387 . S
N1540 Co1531 2.022 . S
N1540 C1537 1.351 . S
N1540 N1541 1.365 . S
N1541 C1538 1.341 . S
N1541 N1540 1.365 . S
N1541 H1561 0.862 . S
C1542 C1537 1.501 . S
C1542 H1543 0.961 . S
C1542 H1544 0.961 . S
C1542 H1545 0.960 . S
H1543 C1542 0.961 . S
H1544 C1542 0.961 . S
H1545 C1542 0.960 . S
C1546 N1547 1.342 . S
C1546 C1550 1.401 . S
C1546 C1551 1.499 . S
N1547 Co1530 1.989 . S
N1547 C1546 1.342 . S
N1547 N1548 1.388 . S
N1548 Co1531 1.993 . S
N1548 N1547 1.388 . S
N1548 C1549 1.346 . S
C1549 N1548 1.346 . S
C1549 C1550 1.396 . S
C1549 C1559 1.510 . S
C1550 C1546 1.401 . S
C1550 C1549 1.396 . S
C1551 C1546 1.499 . S
C1551 H1552 0.959 . S
C1551 H1553 0.960 . S
C1551 H1554 0.961 . S
H1552 C1551 0.959 . S
H1553 C1551 0.960 . S
H1554 C1551 0.961 . S
O1555 Co1530 1.967 . S
O1555 C1563 1.258 . S
O1556 Co1531 1.941 . S
O1556 C1563 1.266 . S
H1557 C1559 0.959 . S
H1558 C1559 0.961 . S
C1559 C1549 1.510 . S
C1559 H1557 0.959 . S
C1559 H1558 0.961 . S
C1559 H1560 0.960 . S
H1560 C1559 0.960 . S
H1561 N1541 0.862 . S
O1562 Co1530 1.920 . S
O1562 C1535 1.289 1_554 S
C1563 O1555 1.258 . S
C1563 O1556 1.266 . S
Co1564 O1567 1.970 . S
Co1564 N1581 1.989 . S
Co1564 O1589 1.967 . S
Co1564 O1596 1.920 . S
Co1565 O1568 1.966 . S
Co1565 N1574 2.022 . S
Co1565 N1582 1.993 . S
Co1565 O1590 1.941 . S
C1566 O1567 1.258 . S
C1566 O1568 1.263 . S
O1567 Co1564 1.970 . S
O1567 C1566 1.258 . S
O1568 Co1565 1.966 . S
O1568 C1566 1.263 . S
C1569 O1570 1.235 . S
C1569 O1596 1.289 1_556 S
O1570 C1569 1.235 . S
C1571 C1573 1.400 . S
C1571 N1574 1.351 . S
C1571 C1576 1.501 . S
C1572 C1573 1.387 . S
C1572 N1575 1.341 . S
C1573 C1571 1.400 . S
C1573 C1572 1.387 . S
N1574 Co1565 2.022 . S
N1574 C1571 1.351 . S
N1574 N1575 1.365 . S
N1575 C1572 1.341 . S
N1575 N1574 1.365 . S
N1575 H1595 0.862 . S
C1576 C1571 1.501 . S
C1576 H1577 0.961 . S
C1576 H1578 0.961 . S
C1576 H1579 0.960 . S
H1577 C1576 0.961 . S
H1578 C1576 0.961 . S
H1579 C1576 0.960 . S
C1580 N1581 1.342 . S
C1580 C1584 1.401 . S
C1580 C1585 1.499 . S
N1581 Co1564 1.989 . S
N1581 C1580 1.342 . S
N1581 N1582 1.388 . S
N1582 Co1565 1.993 . S
N1582 N1581 1.388 . S
N1582 C1583 1.346 . S
C1583 N1582 1.346 . S
C1583 C1584 1.396 . S
C1583 C1593 1.510 . S
C1584 C1580 1.401 . S
C1584 C1583 1.396 . S
C1585 C1580 1.499 . S
C1585 H1586 0.959 . S
C1585 H1587 0.960 . S
C1585 H1588 0.961 . S
H1586 C1585 0.959 . S
H1587 C1585 0.960 . S
H1588 C1585 0.961 . S
O1589 Co1564 1.967 . S
O1589 C1597 1.258 . S
O1590 Co1565 1.941 . S
O1590 C1597 1.266 . S
H1591 C1593 0.959 . S
H1592 C1593 0.961 . S
C1593 C1583 1.510 . S
C1593 H1591 0.959 . S
C1593 H1592 0.961 . S
C1593 H1594 0.960 . S
H1594 C1593 0.960 . S
H1595 N1575 0.862 . S
O1596 Co1564 1.920 . S
O1596 C1569 1.289 1_554 S
C1597 O1589 1.258 . S
C1597 O1590 1.266 . S
Co1598 O1601 1.970 . S
Co1598 N1615 1.989 . S
Co1598 O1623 1.967 . S
Co1598 O1630 1.920 . S
Co1599 O1602 1.966 . S
Co1599 N1608 2.022 1_554 S
Co1599 N1616 1.993 . S
Co1599 O1624 1.941 . S
C1600 O1601 1.258 . S
C1600 O1602 1.263 . S
O1601 Co1598 1.970 . S
O1601 C1600 1.258 . S
O1602 Co1599 1.966 . S
O1602 C1600 1.263 . S
C1603 O1604 1.235 . S
C1603 O1630 1.289 . S
O1604 C1603 1.235 . S
C1605 C1607 1.400 . S
C1605 N1608 1.351 . S
C1605 C1610 1.501 1_556 S
C1606 C1607 1.387 . S
C1606 N1609 1.341 . S
C1607 C1605 1.400 . S
C1607 C1606 1.387 . S
N1608 Co1599 2.022 1_556 S
N1608 C1605 1.351 . S
N1608 N1609 1.365 . S
N1609 C1606 1.341 . S
N1609 N1608 1.365 . S
N1609 H1629 0.862 . S
C1610 C1605 1.501 1_554 S
C1610 H1611 0.961 . S
C1610 H1612 0.961 . S
C1610 H1613 0.960 . S
H1611 C1610 0.961 . S
H1612 C1610 0.961 . S
H1613 C1610 0.960 . S
C1614 N1615 1.342 . S
C1614 C1618 1.401 1_554 S
C1614 C1619 1.499 . S
N1615 Co1598 1.989 . S
N1615 C1614 1.342 . S
N1615 N1616 1.388 . S
N1616 Co1599 1.993 . S
N1616 N1615 1.388 . S
N1616 C1617 1.346 1_554 S
C1617 N1616 1.346 1_556 S
C1617 C1618 1.396 . S
C1617 C1627 1.510 . S
C1618 C1614 1.401 1_556 S
C1618 C1617 1.396 . S
C1619 C1614 1.499 . S
C1619 H1620 0.959 . S
C1619 H1621 0.960 . S
C1619 H1622 0.961 . S
H1620 C1619 0.959 . S
H1621 C1619 0.960 . S
H1622 C1619 0.961 . S
O1623 Co1598 1.967 . S
O1623 C1631 1.258 . S
O1624 Co1599 1.941 . S
O1624 C1631 1.266 . S
H1625 C1627 0.959 . S
H1626 C1627 0.961 . S
C1627 C1617 1.510 . S
C1627 H1625 0.959 . S
C1627 H1626 0.961 . S
C1627 H1628 0.960 . S
H1628 C1627 0.960 . S
H1629 N1609 0.862 . S
O1630 Co1598 1.920 . S
O1630 C1603 1.289 . S
C1631 O1623 1.258 . S
C1631 O1624 1.266 . S
C1632 C1633 1.387 . S
C1632 H1636 0.950 . S
C1632 C1641 1.390 . S
C1633 C1632 1.387 . S
C1633 C1635 1.387 . S
H1634 C1641 0.950 1_655 S
C1635 C1633 1.387 . S
C1635 C1637 1.390 . S
C1635 H1639 0.950 . S
H1636 C1632 0.950 . S
C1637 C1635 1.390 . S
C1637 C1638 1.387 . S
C1637 H1640 0.950 . S
C1638 C1637 1.387 . S
C1638 C1641 1.387 . S
H1639 C1635 0.950 . S
H1640 C1637 0.950 . S
C1641 C1632 1.390 . S
C1641 H1634 0.950 1_455 S
C1641 C1638 1.387 . S
C1642 C1643 1.387 . S
C1642 H1646 0.950 . S
C1642 C1651 1.390 . S
C1643 C1642 1.387 . S
C1643 C1645 1.387 . S
H1644 C1651 0.950 . S
C1645 C1643 1.387 . S
C1645 C1647 1.390 . S
C1645 H1649 0.950 . S
H1646 C1642 0.950 . S
C1647 C1645 1.390 . S
C1647 C1648 1.387 . S
C1647 H1650 0.950 . S
C1648 C1647 1.387 . S
C1648 C1651 1.387 . S
H1649 C1645 0.950 . S
H1650 C1647 0.950 . S
C1651 C1642 1.390 . S
C1651 H1644 0.950 . S
C1651 C1648 1.387 . S
C1652 C1653 1.387 . S
C1652 H1656 0.950 . S
C1652 C1661 1.390 . S
C1653 C1652 1.387 . S
C1653 C1655 1.387 . S
H1654 C1661 0.950 . S
C1655 C1653 1.387 . S
C1655 C1657 1.390 . S
C1655 H1659 0.950 1_455 S
H1656 C1652 0.950 . S
C1657 C1655 1.390 . S
C1657 C1658 1.387 . S
C1657 H1660 0.950 1_455 S
C1658 C1657 1.387 . S
C1658 C1661 1.387 . S
H1659 C1655 0.950 1_655 S
H1660 C1657 0.950 1_655 S
C1661 C1652 1.390 . S
C1661 H1654 0.950 . S
C1661 C1658 1.387 . S
C1662 C1663 1.387 . S
C1662 H1666 0.950 . S
C1662 C1671 1.390 . S
C1663 C1662 1.387 . S
C1663 C1665 1.387 . S
H1664 C1671 0.950 1_565 S
C1665 C1663 1.387 . S
C1665 C1667 1.390 . S
C1665 H1669 0.950 . S
H1666 C1662 0.950 . S
C1667 C1665 1.390 . S
C1667 C1668 1.387 . S
C1667 H1670 0.950 . S
C1668 C1667 1.387 . S
C1668 C1671 1.387 . S
H1669 C1665 0.950 . S
H1670 C1667 0.950 . S
C1671 C1662 1.390 . S
C1671 H1664 0.950 1_545 S
C1671 C1668 1.387 . S
C1672 C1673 1.387 . S
C1672 H1676 0.950 . S
C1672 C1681 1.391 1_455 S
C1673 C1672 1.387 . S
C1673 C1675 1.387 . S
H1674 C1681 0.948 . S
C1675 C1673 1.387 . S
C1675 C1677 1.390 . S
C1675 H1679 0.950 . S
H1676 C1672 0.950 . S
C1677 C1675 1.390 . S
C1677 C1678 1.387 . S
C1677 H1680 0.950 . S
C1678 C1677 1.387 . S
C1678 C1681 1.388 1_455 S
H1679 C1675 0.950 . S
H1680 C1677 0.950 . S
C1681 C1672 1.391 1_655 S
C1681 H1674 0.948 . S
C1681 C1678 1.388 1_655 S
C1682 C1683 1.387 . S
C1682 H1686 0.950 . S
C1682 C1691 1.390 . S
C1683 C1682 1.387 . S
C1683 C1685 1.387 . S
H1684 C1691 0.950 . S
C1685 C1683 1.387 . S
C1685 C1687 1.390 . S
C1685 H1689 0.950 . S
H1686 C1682 0.950 . S
C1687 C1685 1.390 . S
C1687 C1688 1.387 . S
C1687 H1690 0.950 . S
C1688 C1687 1.387 . S
C1688 C1691 1.387 . S
H1689 C1685 0.950 . S
H1690 C1687 0.950 . S
C1691 C1682 1.390 . S
C1691 H1684 0.950 . S
C1691 C1688 1.387 . S
C1692 C1693 1.387 1_655 S
C1692 H1696 0.950 . S
C1692 C1701 1.390 . S
C1693 C1692 1.387 1_455 S
C1693 C1695 1.387 . S
H1694 C1701 0.950 . S
C1695 C1693 1.387 . S
C1695 C1697 1.390 . S
C1695 H1699 0.950 . S
H1696 C1692 0.950 . S
C1697 C1695 1.390 . S
C1697 C1698 1.387 . S
C1697 H1700 0.950 . S
C1698 C1697 1.387 . S
C1698 C1701 1.387 1_455 S
H1699 C1695 0.950 . S
H1700 C1697 0.950 . S
C1701 C1692 1.390 . S
C1701 H1694 0.950 . S
C1701 C1698 1.387 1_655 S
C1702 C1703 1.387 . S
C1702 H1706 0.950 . S
C1702 C1711 1.390 . S
C1703 C1702 1.387 . S
C1703 C1705 1.387 . S
H1704 C1711 0.950 . S
C1705 C1703 1.387 . S
C1705 C1707 1.390 . S
C1705 H1709 0.950 . S
H1706 C1702 0.950 . S
C1707 C1705 1.390 . S
C1707 C1708 1.387 . S
C1707 H1710 0.950 . S
C1708 C1707 1.387 . S
C1708 C1711 1.387 . S
H1709 C1705 0.950 . S
H1710 C1707 0.950 . S
C1711 C1702 1.390 . S
C1711 H1704 0.950 . S
C1711 C1708 1.387 . S
C1712 C1713 1.387 . S
C1712 H1716 0.950 . S
C1712 C1721 1.390 . S
C1713 C1712 1.387 . S
C1713 C1715 1.387 . S
H1714 C1721 0.950 . S
C1715 C1713 1.387 . S
C1715 C1717 1.390 . S
C1715 H1719 0.950 . S
H1716 C1712 0.950 . S
C1717 C1715 1.390 . S
C1717 C1718 1.387 . S
C1717 H1720 0.950 . S
C1718 C1717 1.387 . S
C1718 C1721 1.387 . S
H1719 C1715 0.950 . S
H1720 C1717 0.950 . S
C1721 C1712 1.390 . S
C1721 H1714 0.950 . S
C1721 C1718 1.387 . S
C1722 C1723 1.387 . S
C1722 H1726 0.950 . S
C1722 C1731 1.390 . S
C1723 C1722 1.387 . S
C1723 C1725 1.387 . S
H1724 C1731 0.950 . S
C1725 C1723 1.387 . S
C1725 C1727 1.390 . S
C1725 H1729 0.950 . S
H1726 C1722 0.950 . S
C1727 C1725 1.390 . S
C1727 C1728 1.387 . S
C1727 H1730 0.950 . S
C1728 C1727 1.387 . S
C1728 C1731 1.387 . S
H1729 C1725 0.950 . S
H1730 C1727 0.950 . S
C1731 C1722 1.390 . S
C1731 H1724 0.950 . S
C1731 C1728 1.387 . S
C1732 C1733 1.387 . S
C1732 H1736 0.967 . S
C1732 C1741 1.390 . S
C1733 C1732 1.387 . S
C1733 C1735 1.387 . S
H1734 C1741 0.950 1_556 S
C1735 C1733 1.387 . S
C1735 C1737 1.390 . S
C1735 H1739 0.950 . S
H1736 C1732 0.967 . S
C1737 C1735 1.390 . S
C1737 C1738 1.387 . S
C1737 H1740 0.950 . S
C1738 C1737 1.387 . S
C1738 C1741 1.387 . S
H1739 C1735 0.950 . S
H1740 C1737 0.950 . S
C1741 C1732 1.390 . S
C1741 H1734 0.950 1_554 S
C1741 C1738 1.387 . S
C1742 C1743 1.387 . S
C1742 H1746 0.950 . S
C1742 C1751 1.390 . S
C1743 C1742 1.387 . S
C1743 C1745 1.387 . S
H1744 C1751 0.950 . S
C1745 C1743 1.387 . S
C1745 C1747 1.390 . S
C1745 H1749 0.950 . S
H1746 C1742 0.950 . S
C1747 C1745 1.390 . S
C1747 C1748 1.387 . S
C1747 H1750 0.950 . S
C1748 C1747 1.387 . S
C1748 C1751 1.387 . S
H1749 C1745 0.950 . S
H1750 C1747 0.950 . S
C1751 C1742 1.390 . S
C1751 H1744 0.950 . S
C1751 C1748 1.387 . S
C1752 C1753 1.387 . S
C1752 H1756 0.950 . S
C1752 C1761 1.390 . S
C1753 C1752 1.387 . S
C1753 C1755 1.387 . S
H1754 C1761 0.950 . S
C1755 C1753 1.387 . S
C1755 C1757 1.390 . S
C1755 H1759 0.950 . S
H1756 C1752 0.950 . S
C1757 C1755 1.390 . S
C1757 C1758 1.387 . S
C1757 H1760 0.950 . S
C1758 C1757 1.387 . S
C1758 C1761 1.387 . S
H1759 C1755 0.950 . S
H1760 C1757 0.950 . S
C1761 C1752 1.390 . S
C1761 H1754 0.950 . S
C1761 C1758 1.387 . S
C1762 C1763 1.387 . S
C1762 H1766 0.950 . S
C1762 C1771 1.390 . S
C1763 C1762 1.387 . S
C1763 C1765 1.387 . S
H1764 C1771 0.950 . S
C1765 C1763 1.387 . S
C1765 C1767 1.390 . S
C1765 H1769 0.950 . S
H1766 C1762 0.950 . S
C1767 C1765 1.390 . S
C1767 C1768 1.387 . S
C1767 H1770 0.950 . S
C1768 C1767 1.387 . S
C1768 C1771 1.387 . S
H1769 C1765 0.950 . S
H1770 C1767 0.950 . S
C1771 C1762 1.390 . S
C1771 H1764 0.950 . S
C1771 C1768 1.387 . S
C1772 C1773 1.387 . S
C1772 H1776 0.950 . S
C1772 C1781 1.390 . S
C1773 C1772 1.387 . S
C1773 C1775 1.387 . S
H1774 C1781 0.950 . S
C1775 C1773 1.387 . S
C1775 C1777 1.390 . S
C1775 H1779 0.950 . S
H1776 C1772 0.950 . S
C1777 C1775 1.390 . S
C1777 C1778 1.387 . S
C1777 H1780 0.950 . S
C1778 C1777 1.387 . S
C1778 C1781 1.387 . S
H1779 C1775 0.950 . S
H1780 C1777 0.950 . S
C1781 C1772 1.390 . S
C1781 H1774 0.950 . S
C1781 C1778 1.387 . S
C1782 C1783 1.387 . S
C1782 H1786 0.950 . S
C1782 C1791 1.390 . S
C1783 C1782 1.387 . S
C1783 C1785 1.387 . S
H1784 C1791 0.950 . S
C1785 C1783 1.387 . S
C1785 C1787 1.390 . S
C1785 H1789 0.950 . S
H1786 C1782 0.950 . S
C1787 C1785 1.390 . S
C1787 C1788 1.387 . S
C1787 H1790 0.950 . S
C1788 C1787 1.387 . S
C1788 C1791 1.387 . S
H1789 C1785 0.950 . S
H1790 C1787 0.950 . S
C1791 C1782 1.390 . S
C1791 H1784 0.950 . S
C1791 C1788 1.387 . S
C1792 C1793 1.387 . S
C1792 H1796 0.950 . S
C1792 C1801 1.390 . S
C1793 C1792 1.387 . S
C1793 C1795 1.387 . S
H1794 C1801 0.950 . S
C1795 C1793 1.387 . S
C1795 C1797 1.390 . S
C1795 H1799 0.950 . S
H1796 C1792 0.950 . S
C1797 C1795 1.390 . S
C1797 C1798 1.387 . S
C1797 H1800 0.950 . S
C1798 C1797 1.387 . S
C1798 C1801 1.387 . S
H1799 C1795 0.950 . S
H1800 C1797 0.950 . S
C1801 C1792 1.390 . S
C1801 H1794 0.950 . S
C1801 C1798 1.387 . S
C1802 C1803 1.387 . S
C1802 H1806 0.950 . S
C1802 C1811 1.390 . S
C1803 C1802 1.387 . S
C1803 C1805 1.387 . S
H1804 C1811 0.950 . S
C1805 C1803 1.387 . S
C1805 C1807 1.390 . S
C1805 H1809 0.950 . S
H1806 C1802 0.950 . S
C1807 C1805 1.390 . S
C1807 C1808 1.387 . S
C1807 H1810 0.950 . S
C1808 C1807 1.387 . S
C1808 C1811 1.387 . S
H1809 C1805 0.950 . S
H1810 C1807 0.950 . S
C1811 C1802 1.390 . S
C1811 H1804 0.950 . S
C1811 C1808 1.387 . S
C1812 C1813 1.387 . S
C1812 H1816 0.950 . S
C1812 C1821 1.390 . S
C1813 C1812 1.387 . S
C1813 C1815 1.387 . S
H1814 C1821 0.950 . S
C1815 C1813 1.387 . S
C1815 C1817 1.390 . S
C1815 H1819 0.950 . S
H1816 C1812 0.950 . S
C1817 C1815 1.390 . S
C1817 C1818 1.387 . S
C1817 H1820 0.950 . S
C1818 C1817 1.387 . S
C1818 C1821 1.387 . S
H1819 C1815 0.950 . S
H1820 C1817 0.950 . S
C1821 C1812 1.390 . S
C1821 H1814 0.950 . S
C1821 C1818 1.387 . S
C1822 C1823 1.387 . S
C1822 H1826 0.950 . S
C1822 C1831 1.390 . S
C1823 C1822 1.387 . S
C1823 C1825 1.387 . S
H1824 C1831 0.950 . S
C1825 C1823 1.387 . S
C1825 C1827 1.390 . S
C1825 H1829 0.950 . S
H1826 C1822 0.950 . S
C1827 C1825 1.390 . S
C1827 C1828 1.387 . S
C1827 H1830 0.950 . S
C1828 C1827 1.387 . S
C1828 C1831 1.387 . S
H1829 C1825 0.950 . S
H1830 C1827 0.950 . S
C1831 C1822 1.390 . S
C1831 H1824 0.950 . S
C1831 C1828 1.387 . S
C1832 C1833 1.387 . S
C1832 H1836 0.950 . S
C1832 C1841 1.390 . S
C1833 C1832 1.387 . S
C1833 C1835 1.387 . S
H1834 C1841 0.950 . S
C1835 C1833 1.387 . S
C1835 C1837 1.390 . S
C1835 H1839 0.950 . S
H1836 C1832 0.950 . S
C1837 C1835 1.390 . S
C1837 C1838 1.387 . S
C1837 H1840 0.950 . S
C1838 C1837 1.387 . S
C1838 C1841 1.387 . S
H1839 C1835 0.950 . S
H1840 C1837 0.950 . S
C1841 C1832 1.390 . S
C1841 H1834 0.950 . S
C1841 C1838 1.387 . S
C1842 C1843 1.387 . S
C1842 H1846 0.950 . S
C1842 C1851 1.390 . S
C1843 C1842 1.387 . S
C1843 C1845 1.387 . S
H1844 C1851 0.950 . S
C1845 C1843 1.387 . S
C1845 C1847 1.390 . S
C1845 H1849 0.950 . S
H1846 C1842 0.950 . S
C1847 C1845 1.390 . S
C1847 C1848 1.387 . S
C1847 H1850 0.950 . S
C1848 C1847 1.387 . S
C1848 C1851 1.387 . S
H1849 C1845 0.950 . S
H1850 C1847 0.950 . S
C1851 C1842 1.390 . S
C1851 H1844 0.950 . S
C1851 C1848 1.387 . S
C1852 C1853 1.387 . S
C1852 H1856 0.950 . S
C1852 C1861 1.390 . S
C1853 C1852 1.387 . S
C1853 C1855 1.387 . S
H1854 C1861 0.950 . S
C1855 C1853 1.387 . S
C1855 C1857 1.390 . S
C1855 H1859 0.950 . S
H1856 C1852 0.950 . S
C1857 C1855 1.390 . S
C1857 C1858 1.387 . S
C1857 H1860 0.950 . S
C1858 C1857 1.387 . S
C1858 C1861 1.387 . S
H1859 C1855 0.950 . S
H1860 C1857 0.950 . S
C1861 C1852 1.390 . S
C1861 H1854 0.950 . S
C1861 C1858 1.387 . S
C1862 C1863 1.387 . S
C1862 H1866 0.950 . S
C1862 C1871 1.390 . S
C1863 C1862 1.387 . S
C1863 C1865 1.387 . S
H1864 C1871 0.950 . S
C1865 C1863 1.387 . S
C1865 C1867 1.390 . S
C1865 H1869 0.950 . S
H1866 C1862 0.950 . S
C1867 C1865 1.390 . S
C1867 C1868 1.387 . S
C1867 H1870 0.950 . S
C1868 C1867 1.387 . S
C1868 C1871 1.387 . S
H1869 C1865 0.950 . S
H1870 C1867 0.950 . S
C1871 C1862 1.390 . S
C1871 H1864 0.950 . S
C1871 C1868 1.387 . S
C1872 C1873 1.387 . S
C1872 H1876 0.950 . S
C1872 C1881 1.390 . S
C1873 C1872 1.387 . S
C1873 C1875 1.387 . S
H1874 C1881 0.950 . S
C1875 C1873 1.387 . S
C1875 C1877 1.390 . S
C1875 H1879 0.950 . S
H1876 C1872 0.950 . S
C1877 C1875 1.390 . S
C1877 C1878 1.387 . S
C1877 H1880 0.950 . S
C1878 C1877 1.387 . S
C1878 C1881 1.387 . S
H1879 C1875 0.950 . S
H1880 C1877 0.950 . S
C1881 C1872 1.390 . S
C1881 H1874 0.950 . S
C1881 C1878 1.387 . S
C1882 C1883 1.387 . S
C1882 H1886 0.950 . S
C1882 C1891 1.390 . S
C1883 C1882 1.387 . S
C1883 C1885 1.387 . S
H1884 C1891 0.950 . S
C1885 C1883 1.387 . S
C1885 C1887 1.390 . S
C1885 H1889 0.950 . S
H1886 C1882 0.950 . S
C1887 C1885 1.390 . S
C1887 C1888 1.387 . S
C1887 H1890 0.950 . S
C1888 C1887 1.387 . S
C1888 C1891 1.387 . S
H1889 C1885 0.950 . S
H1890 C1887 0.950 . S
C1891 C1882 1.390 . S
C1891 H1884 0.950 . S
C1891 C1888 1.387 . S
C1892 C1893 1.387 . S
C1892 H1896 0.950 . S
C1892 C1901 1.390 . S
C1893 C1892 1.387 . S
C1893 C1895 1.387 . S
H1894 C1901 0.950 1_455 S
C1895 C1893 1.387 . S
C1895 C1897 1.390 . S
C1895 H1899 0.950 . S
H1896 C1892 0.950 . S
C1897 C1895 1.390 . S
C1897 C1898 1.387 . S
C1897 H1900 0.950 . S
C1898 C1897 1.387 . S
C1898 C1901 1.387 . S
H1899 C1895 0.950 . S
H1900 C1897 0.950 . S
C1901 C1892 1.390 . S
C1901 H1894 0.950 1_655 S
C1901 C1898 1.387 . S
C1902 C1903 1.387 . S
C1902 H1906 0.950 . S
C1902 C1911 1.390 . S
C1903 C1902 1.387 . S
C1903 C1905 1.387 . S
H1904 C1911 0.950 . S
C1905 C1903 1.387 . S
C1905 C1907 1.390 . S
C1905 H1909 0.950 . S
H1906 C1902 0.950 . S
C1907 C1905 1.390 . S
C1907 C1908 1.387 . S
C1907 H1910 0.950 . S
C1908 C1907 1.387 . S
C1908 C1911 1.387 . S
H1909 C1905 0.950 . S
H1910 C1907 0.950 . S
C1911 C1902 1.390 . S
C1911 H1904 0.950 . S
C1911 C1908 1.387 . S
C1912 C1913 1.387 . S
C1912 H1916 0.950 . S
C1912 C1921 1.390 . S
C1913 C1912 1.387 . S
C1913 C1915 1.387 . S
H1914 C1921 0.950 . S
C1915 C1913 1.387 . S
C1915 C1917 1.390 . S
C1915 H1919 0.950 . S
H1916 C1912 0.950 . S
C1917 C1915 1.390 . S
C1917 C1918 1.387 . S
C1917 H1920 0.950 . S
C1918 C1917 1.387 . S
C1918 C1921 1.387 . S
H1919 C1915 0.950 . S
H1920 C1917 0.950 . S
C1921 C1912 1.390 . S
C1921 H1914 0.950 . S
C1921 C1918 1.387 . S
C1922 C1923 1.387 . S
C1922 H1926 0.950 . S
C1922 C1931 1.390 . S
C1923 C1922 1.387 . S
C1923 C1925 1.387 . S
H1924 C1931 0.950 . S
C1925 C1923 1.387 . S
C1925 C1927 1.390 . S
C1925 H1929 0.950 . S
H1926 C1922 0.950 . S
C1927 C1925 1.390 . S
C1927 C1928 1.387 . S
C1927 H1930 0.950 . S
C1928 C1927 1.387 . S
C1928 C1931 1.387 . S
H1929 C1925 0.950 . S
H1930 C1927 0.950 . S
C1931 C1922 1.390 . S
C1931 H1924 0.950 . S
C1931 C1928 1.387 . S
C1932 C1933 1.387 . S
C1932 H1936 0.950 . S
C1932 C1941 1.390 . S
C1933 C1932 1.387 . S
C1933 C1935 1.387 . S
H1934 C1941 0.950 . S
C1935 C1933 1.387 . S
C1935 C1937 1.390 . S
C1935 H1939 0.950 . S
H1936 C1932 0.950 . S
C1937 C1935 1.390 . S
C1937 C1938 1.387 . S
C1937 H1940 0.950 . S
C1938 C1937 1.387 . S
C1938 C1941 1.387 . S
H1939 C1935 0.950 . S
H1940 C1937 0.950 . S
C1941 C1932 1.390 . S
C1941 H1934 0.950 . S
C1941 C1938 1.387 . S
C1942 C1943 1.387 . S
C1942 H1946 0.950 . S
C1942 C1951 1.390 . S
C1943 C1942 1.387 . S
C1943 C1945 1.387 . S
H1944 C1951 0.950 . S
C1945 C1943 1.387 . S
C1945 C1947 1.390 . S
C1945 H1949 0.950 . S
H1946 C1942 0.950 . S
C1947 C1945 1.390 . S
C1947 C1948 1.387 . S
C1947 H1950 0.950 . S
C1948 C1947 1.387 . S
C1948 C1951 1.387 . S
H1949 C1945 0.950 . S
H1950 C1947 0.950 . S
C1951 C1942 1.390 . S
C1951 H1944 0.950 . S
C1951 C1948 1.387 . S
C1952 C1953 1.387 . S
C1952 H1956 0.950 . S
C1952 C1961 1.390 . S
C1953 C1952 1.387 . S
C1953 C1955 1.387 . S
H1954 C1961 0.950 . S
C1955 C1953 1.387 . S
C1955 C1957 1.390 . S
C1955 H1959 0.950 . S
H1956 C1952 0.950 . S
C1957 C1955 1.390 . S
C1957 C1958 1.387 . S
C1957 H1960 0.950 . S
C1958 C1957 1.387 . S
C1958 C1961 1.387 . S
H1959 C1955 0.950 . S
H1960 C1957 0.950 . S
C1961 C1952 1.390 . S
C1961 H1954 0.950 . S
C1961 C1958 1.387 . S
C1962 C1963 1.387 . S
C1962 H1966 0.950 . S
C1962 C1971 1.390 . S
C1963 C1962 1.387 . S
C1963 C1965 1.387 . S
H1964 C1971 0.950 . S
C1965 C1963 1.387 . S
C1965 C1967 1.390 . S
C1965 H1969 0.950 . S
H1966 C1962 0.950 . S
C1967 C1965 1.390 . S
C1967 C1968 1.387 . S
C1967 H1970 0.950 . S
C1968 C1967 1.387 . S
C1968 C1971 1.387 . S
H1969 C1965 0.950 . S
H1970 C1967 0.950 . S
C1971 C1962 1.390 . S
C1971 H1964 0.950 . S
C1971 C1968 1.387 . S
C1972 C1973 1.387 . S
C1972 H1976 0.950 . S
C1972 C1981 1.390 . S
C1973 C1972 1.387 . S
C1973 C1975 1.387 . S
H1974 C1981 0.950 . S
C1975 C1973 1.387 . S
C1975 C1977 1.390 . S
C1975 H1979 0.950 . S
H1976 C1972 0.950 . S
C1977 C1975 1.390 . S
C1977 C1978 1.387 . S
C1977 H1980 0.950 . S
C1978 C1977 1.387 . S
C1978 C1981 1.387 . S
H1979 C1975 0.950 . S
H1980 C1977 0.950 . S
C1981 C1972 1.390 . S
C1981 H1974 0.950 . S
C1981 C1978 1.387 . S
C1982 C1983 1.387 . S
C1982 H1986 0.950 . S
C1982 C1991 1.390 . S
C1983 C1982 1.387 . S
C1983 C1985 1.387 . S
H1984 C1991 0.950 . S
C1985 C1983 1.387 . S
C1985 C1987 1.390 . S
C1985 H1989 0.950 . S
H1986 C1982 0.950 . S
C1987 C1985 1.390 . S
C1987 C1988 1.387 . S
C1987 H1990 0.950 . S
C1988 C1987 1.387 . S
C1988 C1991 1.387 . S
H1989 C1985 0.950 . S
H1990 C1987 0.950 . S
C1991 C1982 1.390 . S
C1991 H1984 0.950 . S
C1991 C1988 1.387 . S
C1992 C1993 1.387 . S
C1992 H1996 0.950 . S
C1992 C2001 1.390 . S
C1993 C1992 1.387 . S
C1993 C1995 1.387 . S
H1994 C2001 0.950 1_545 S
C1995 C1993 1.387 . S
C1995 C1997 1.390 . S
C1995 H1999 0.950 . S
H1996 C1992 0.950 . S
C1997 C1995 1.390 . S
C1997 C1998 1.387 . S
C1997 H2000 0.950 . S
C1998 C1997 1.387 . S
C1998 C2001 1.387 . S
H1999 C1995 0.950 . S
H2000 C1997 0.950 . S
C2001 C1992 1.390 . S
C2001 H1994 0.950 1_565 S
C2001 C1998 1.387 . S
C2002 C2003 1.387 . S
C2002 H2006 0.950 1_556 S
C2002 C2011 1.390 . S
C2003 C2002 1.387 . S
C2003 C2005 1.387 . S
H2004 C2011 0.950 . S
C2005 C2003 1.387 . S
C2005 C2007 1.390 . S
C2005 H2009 0.950 . S
H2006 C2002 0.950 1_554 S
C2007 C2005 1.390 . S
C2007 C2008 1.387 . S
C2007 H2010 0.950 . S
C2008 C2007 1.387 . S
C2008 C2011 1.387 . S
H2009 C2005 0.950 . S
H2010 C2007 0.950 . S
C2011 C2002 1.390 . S
C2011 H2004 0.950 . S
C2011 C2008 1.387 . S
C2012 C2013 1.387 . S
C2012 H2016 0.950 . S
C2012 C2021 1.390 . S
C2013 C2012 1.387 . S
C2013 C2015 1.387 . S
H2014 C2021 0.950 . S
C2015 C2013 1.387 . S
C2015 C2017 1.390 . S
C2015 H2019 0.950 . S
H2016 C2012 0.950 . S
C2017 C2015 1.390 . S
C2017 C2018 1.387 . S
C2017 H2020 0.950 . S
C2018 C2017 1.387 . S
C2018 C2021 1.387 . S
H2019 C2015 0.950 . S
H2020 C2017 0.950 . S
C2021 C2012 1.390 . S
C2021 H2014 0.950 . S
C2021 C2018 1.387 . S
C2022 C2023 1.387 . S
C2022 H2026 0.950 . S
C2022 C2031 1.390 . S
C2023 C2022 1.387 . S
C2023 C2025 1.387 . S
H2024 C2031 0.950 . S
C2025 C2023 1.387 . S
C2025 C2027 1.390 . S
C2025 H2029 0.950 . S
H2026 C2022 0.950 . S
C2027 C2025 1.390 . S
C2027 C2028 1.387 . S
C2027 H2030 0.950 . S
C2028 C2027 1.387 . S
C2028 C2031 1.387 . S
H2029 C2025 0.950 . S
H2030 C2027 0.950 . S
C2031 C2022 1.390 . S
C2031 H2024 0.950 . S
C2031 C2028 1.387 . S
C2032 C2033 1.387 . S
C2032 H2036 0.950 . S
C2032 C2041 1.390 . S
C2033 C2032 1.387 . S
C2033 C2035 1.387 . S
H2034 C2041 0.950 . S
C2035 C2033 1.387 . S
C2035 C2037 1.390 . S
C2035 H2039 0.950 . S
H2036 C2032 0.950 . S
C2037 C2035 1.390 . S
C2037 C2038 1.387 . S
C2037 H2040 0.950 . S
C2038 C2037 1.387 . S
C2038 C2041 1.387 . S
H2039 C2035 0.950 . S
H2040 C2037 0.950 . S
C2041 C2032 1.390 . S
C2041 H2034 0.950 . S
C2041 C2038 1.387 . S
C2042 C2043 1.387 . S
C2042 H2046 0.950 . S
C2042 C2051 1.390 . S
C2043 C2042 1.387 . S
C2043 C2045 1.387 . S
H2044 C2051 0.950 . S
C2045 C2043 1.387 . S
C2045 C2047 1.390 . S
C2045 H2049 0.950 . S
H2046 C2042 0.950 . S
C2047 C2045 1.390 . S
C2047 C2048 1.387 . S
C2047 H2050 0.950 . S
C2048 C2047 1.387 . S
C2048 C2051 1.387 . S
H2049 C2045 0.950 . S
H2050 C2047 0.950 . S
C2051 C2042 1.390 . S
C2051 H2044 0.950 . S
C2051 C2048 1.387 . S
C2052 C2053 1.387 . S
C2052 H2056 0.950 1_556 S
C2052 C2061 1.390 . S
C2053 C2052 1.387 . S
C2053 C2055 1.387 . S
H2054 C2061 0.950 . S
C2055 C2053 1.387 . S
C2055 C2057 1.390 . S
C2055 H2059 0.950 . S
H2056 C2052 0.950 1_554 S
C2057 C2055 1.390 . S
C2057 C2058 1.387 . S
C2057 H2060 0.950 . S
C2058 C2057 1.387 . S
C2058 C2061 1.387 . S
H2059 C2055 0.950 . S
H2060 C2057 0.950 . S
C2061 C2052 1.390 . S
C2061 H2054 0.950 . S
C2061 C2058 1.387 . S
C2062 C2063 1.387 . S
C2062 H2066 0.950 . S
C2062 C2071 1.390 . S
C2063 C2062 1.387 . S
C2063 C2065 1.387 . S
H2064 C2071 0.950 . S
C2065 C2063 1.387 . S
C2065 C2067 1.390 . S
C2065 H2069 0.950 . S
H2066 C2062 0.950 . S
C2067 C2065 1.390 . S
C2067 C2068 1.387 . S
C2067 H2070 0.950 1_556 S
C2068 C2067 1.387 . S
C2068 C2071 1.387 . S
H2069 C2065 0.950 . S
H2070 C2067 0.950 1_554 S
C2071 C2062 1.390 . S
C2071 H2064 0.950 . S
C2071 C2068 1.387 . S
C2072 C2073 1.387 . S
C2072 H2076 0.950 . S
C2072 C2081 1.390 . S
C2073 C2072 1.387 . S
C2073 C2075 1.387 . S
H2074 C2081 0.950 . S
C2075 C2073 1.387 . S
C2075 C2077 1.390 . S
C2075 H2079 0.950 . S
H2076 C2072 0.950 . S
C2077 C2075 1.390 . S
C2077 C2078 1.387 . S
C2077 H2080 0.950 . S
C2078 C2077 1.387 . S
C2078 C2081 1.387 . S
H2079 C2075 0.950 . S
H2080 C2077 0.950 . S
C2081 C2072 1.390 . S
C2081 H2074 0.950 . S
C2081 C2078 1.387 . S
C2082 C2083 1.387 . S
C2082 H2086 0.950 . S
C2082 C2091 1.390 . S
C2083 C2082 1.387 . S
C2083 C2085 1.387 . S
H2084 C2091 0.950 . S
C2085 C2083 1.387 . S
C2085 C2087 1.390 . S
C2085 H2089 0.950 . S
H2086 C2082 0.950 . S
C2087 C2085 1.390 . S
C2087 C2088 1.387 . S
C2087 H2090 0.950 . S
C2088 C2087 1.387 . S
C2088 C2091 1.387 . S
H2089 C2085 0.950 . S
H2090 C2087 0.950 . S
C2091 C2082 1.390 . S
C2091 H2084 0.950 . S
C2091 C2088 1.387 . S
C2092 C2093 1.387 . S
C2092 H2096 0.950 . S
C2092 C2101 1.390 . S
C2093 C2092 1.387 . S
C2093 C2095 1.387 . S
H2094 C2101 0.950 . S
C2095 C2093 1.387 . S
C2095 C2097 1.390 . S
C2095 H2099 0.950 . S
H2096 C2092 0.950 . S
C2097 C2095 1.390 . S
C2097 C2098 1.387 . S
C2097 H2100 0.950 . S
C2098 C2097 1.387 . S
C2098 C2101 1.387 . S
H2099 C2095 0.950 . S
H2100 C2097 0.950 . S
C2101 C2092 1.390 . S
C2101 H2094 0.950 . S
C2101 C2098 1.387 . S
C2102 C2103 1.387 . S
C2102 H2106 0.950 . S
C2102 C2111 1.390 . S
C2103 C2102 1.387 . S
C2103 C2105 1.387 . S
H2104 C2111 0.950 . S
C2105 C2103 1.387 . S
C2105 C2107 1.390 . S
C2105 H2109 0.950 . S
H2106 C2102 0.950 . S
C2107 C2105 1.390 . S
C2107 C2108 1.387 . S
C2107 H2110 0.950 . S
C2108 C2107 1.387 . S
C2108 C2111 1.387 . S
H2109 C2105 0.950 . S
H2110 C2107 0.950 . S
C2111 C2102 1.390 . S
C2111 H2104 0.950 . S
C2111 C2108 1.387 . S
C2112 C2113 1.387 . S
C2112 H2116 0.950 . S
C2112 C2121 1.390 . S
C2113 C2112 1.387 . S
C2113 C2115 1.387 . S
H2114 C2121 0.950 . S
C2115 C2113 1.387 . S
C2115 C2117 1.390 . S
C2115 H2119 0.950 . S
H2116 C2112 0.950 . S
C2117 C2115 1.390 . S
C2117 C2118 1.387 . S
C2117 H2120 0.950 . S
C2118 C2117 1.387 . S
C2118 C2121 1.387 . S
H2119 C2115 0.950 . S
H2120 C2117 0.950 . S
C2121 C2112 1.390 . S
C2121 H2114 0.950 . S
C2121 C2118 1.387 . S
C2122 C2123 1.387 . S
C2122 H2126 0.950 . S
C2122 C2131 1.390 . S
C2123 C2122 1.387 . S
C2123 C2125 1.387 . S
H2124 C2131 0.950 . S
C2125 C2123 1.387 . S
C2125 C2127 1.390 . S
C2125 H2129 0.950 . S
H2126 C2122 0.950 . S
C2127 C2125 1.390 . S
C2127 C2128 1.387 . S
C2127 H2130 0.950 . S
C2128 C2127 1.387 . S
C2128 C2131 1.387 . S
H2129 C2125 0.950 . S
H2130 C2127 0.950 . S
C2131 C2122 1.390 . S
C2131 H2124 0.950 . S
C2131 C2128 1.387 . S
C2132 C2133 1.387 . S
C2132 H2136 0.950 . S
C2132 C2141 1.390 . S
C2133 C2132 1.387 . S
C2133 C2135 1.387 . S
H2134 C2141 0.950 . S
C2135 C2133 1.387 . S
C2135 C2137 1.390 . S
C2135 H2139 0.950 . S
H2136 C2132 0.950 . S
C2137 C2135 1.390 . S
C2137 C2138 1.387 . S
C2137 H2140 0.950 . S
C2138 C2137 1.387 . S
C2138 C2141 1.387 . S
H2139 C2135 0.950 . S
H2140 C2137 0.950 . S
C2141 C2132 1.390 . S
C2141 H2134 0.950 . S
C2141 C2138 1.387 . S
C2142 C2143 1.387 . S
C2142 H2146 0.950 . S
C2142 C2151 1.390 . S
C2143 C2142 1.387 . S
C2143 C2145 1.387 . S
H2144 C2151 0.950 . S
C2145 C2143 1.387 . S
C2145 C2147 1.390 . S
C2145 H2149 0.950 . S
H2146 C2142 0.950 . S
C2147 C2145 1.390 . S
C2147 C2148 1.387 . S
C2147 H2150 0.950 . S
C2148 C2147 1.387 . S
C2148 C2151 1.387 . S
H2149 C2145 0.950 . S
H2150 C2147 0.950 . S
C2151 C2142 1.390 . S
C2151 H2144 0.950 . S
C2151 C2148 1.387 . S
C2152 C2153 1.387 . S
C2152 H2156 0.950 . S
C2152 C2161 1.390 . S
C2153 C2152 1.387 . S
C2153 C2155 1.387 . S
H2154 C2161 0.950 . S
C2155 C2153 1.387 . S
C2155 C2157 1.390 . S
C2155 H2159 0.950 . S
H2156 C2152 0.950 . S
C2157 C2155 1.390 . S
C2157 C2158 1.387 . S
C2157 H2160 0.950 . S
C2158 C2157 1.387 . S
C2158 C2161 1.387 . S
H2159 C2155 0.950 . S
H2160 C2157 0.950 . S
C2161 C2152 1.390 . S
C2161 H2154 0.950 . S
C2161 C2158 1.387 . S
C2162 C2163 1.387 . S
C2162 H2166 0.950 . S
C2162 C2171 1.390 . S
C2163 C2162 1.387 . S
C2163 C2165 1.387 . S
H2164 C2171 0.950 . S
C2165 C2163 1.387 . S
C2165 C2167 1.390 . S
C2165 H2169 0.950 . S
H2166 C2162 0.950 . S
C2167 C2165 1.390 . S
C2167 C2168 1.387 . S
C2167 H2170 0.950 . S
C2168 C2167 1.387 . S
C2168 C2171 1.387 . S
H2169 C2165 0.950 . S
H2170 C2167 0.950 . S
C2171 C2162 1.390 . S
C2171 H2164 0.950 . S
C2171 C2168 1.387 . S
C2172 C2173 1.387 . S
C2172 H2176 0.950 . S
C2172 C2181 1.390 . S
C2173 C2172 1.387 . S
C2173 C2175 1.387 . S
H2174 C2181 0.950 . S
C2175 C2173 1.387 . S
C2175 C2177 1.390 . S
C2175 H2179 0.950 . S
H2176 C2172 0.950 . S
C2177 C2175 1.390 . S
C2177 C2178 1.387 . S
C2177 H2180 0.950 . S
C2178 C2177 1.387 . S
C2178 C2181 1.387 . S
H2179 C2175 0.950 . S
H2180 C2177 0.950 . S
C2181 C2172 1.390 . S
C2181 H2174 0.950 . S
C2181 C2178 1.387 . S
C2182 C2183 1.387 . S
C2182 H2186 0.950 . S
C2182 C2191 1.390 . S
C2183 C2182 1.387 . S
C2183 C2185 1.387 . S
H2184 C2191 0.950 . S
C2185 C2183 1.387 . S
C2185 C2187 1.390 . S
C2185 H2189 0.950 . S
H2186 C2182 0.950 . S
C2187 C2185 1.390 . S
C2187 C2188 1.387 . S
C2187 H2190 0.950 . S
C2188 C2187 1.387 . S
C2188 C2191 1.387 . S
H2189 C2185 0.950 . S
H2190 C2187 0.950 . S
C2191 C2182 1.390 . S
C2191 H2184 0.950 . S
C2191 C2188 1.387 . S
C2192 C2193 1.387 . S
C2192 H2196 0.950 . S
C2192 C2201 1.390 . S
C2193 C2192 1.387 . S
C2193 C2195 1.387 . S
H2194 C2201 0.950 . S
C2195 C2193 1.387 . S
C2195 C2197 1.390 . S
C2195 H2199 0.950 . S
H2196 C2192 0.950 . S
C2197 C2195 1.390 . S
C2197 C2198 1.387 . S
C2197 H2200 0.950 . S
C2198 C2197 1.387 . S
C2198 C2201 1.387 . S
H2199 C2195 0.950 . S
H2200 C2197 0.950 . S
C2201 C2192 1.390 . S
C2201 H2194 0.950 . S
C2201 C2198 1.387 . S
C2202 C2203 1.387 . S
C2202 H2206 0.950 . S
C2202 C2211 1.390 . S
C2203 C2202 1.387 . S
C2203 C2205 1.387 . S
H2204 C2211 0.950 . S
C2205 C2203 1.387 . S
C2205 C2207 1.390 . S
C2205 H2209 0.950 . S
H2206 C2202 0.950 . S
C2207 C2205 1.390 . S
C2207 C2208 1.387 . S
C2207 H2210 0.950 . S
C2208 C2207 1.387 . S
C2208 C2211 1.387 . S
H2209 C2205 0.950 . S
H2210 C2207 0.950 . S
C2211 C2202 1.390 . S
C2211 H2204 0.950 . S
C2211 C2208 1.387 . S
C2212 C2213 1.387 . S
C2212 H2216 0.950 . S
C2212 C2221 1.390 . S
C2213 C2212 1.387 . S
C2213 C2215 1.387 . S
H2214 C2221 0.950 . S
C2215 C2213 1.387 . S
C2215 C2217 1.390 . S
C2215 H2219 0.950 . S
H2216 C2212 0.950 . S
C2217 C2215 1.390 . S
C2217 C2218 1.387 . S
C2217 H2220 0.950 . S
C2218 C2217 1.387 . S
C2218 C2221 1.387 . S
H2219 C2215 0.950 . S
H2220 C2217 0.950 . S
C2221 C2212 1.390 . S
C2221 H2214 0.950 . S
C2221 C2218 1.387 . S
C2222 C2223 1.387 . S
C2222 H2226 0.950 . S
C2222 C2231 1.390 . S
C2223 C2222 1.387 . S
C2223 C2225 1.387 . S
H2224 C2231 0.950 . S
C2225 C2223 1.387 . S
C2225 C2227 1.390 . S
C2225 H2229 0.950 . S
H2226 C2222 0.950 . S
C2227 C2225 1.390 . S
C2227 C2228 1.387 . S
C2227 H2230 0.950 . S
C2228 C2227 1.387 . S
C2228 C2231 1.387 . S
H2229 C2225 0.950 . S
H2230 C2227 0.950 . S
C2231 C2222 1.390 . S
C2231 H2224 0.950 . S
C2231 C2228 1.387 . S
C2232 C2233 1.387 . S
C2232 H2236 0.950 . S
C2232 C2241 1.390 . S
C2233 C2232 1.387 . S
C2233 C2235 1.387 . S
H2234 C2241 0.950 . S
C2235 C2233 1.387 . S
C2235 C2237 1.390 . S
C2235 H2239 0.950 . S
H2236 C2232 0.950 . S
C2237 C2235 1.390 . S
C2237 C2238 1.387 . S
C2237 H2240 0.950 . S
C2238 C2237 1.387 . S
C2238 C2241 1.387 . S
H2239 C2235 0.950 . S
H2240 C2237 0.950 . S
C2241 C2232 1.390 . S
C2241 H2234 0.950 . S
C2241 C2238 1.387 . S
C2242 C2243 1.387 . S
C2242 H2246 0.950 . S
C2242 C2251 1.390 . S
C2243 C2242 1.387 . S
C2243 C2245 1.387 . S
H2244 C2251 0.950 . S
C2245 C2243 1.387 . S
C2245 C2247 1.390 . S
C2245 H2249 0.950 . S
H2246 C2242 0.950 . S
C2247 C2245 1.390 . S
C2247 C2248 1.387 . S
C2247 H2250 0.950 . S
C2248 C2247 1.387 . S
C2248 C2251 1.387 . S
H2249 C2245 0.950 . S
H2250 C2247 0.950 . S
C2251 C2242 1.390 . S
C2251 H2244 0.950 . S
C2251 C2248 1.387 . S
C2252 C2253 1.387 . S
C2252 H2256 0.950 . S
C2252 C2261 1.390 . S
C2253 C2252 1.387 . S
C2253 C2255 1.387 . S
H2254 C2261 0.950 . S
C2255 C2253 1.387 . S
C2255 C2257 1.390 . S
C2255 H2259 0.950 . S
H2256 C2252 0.950 . S
C2257 C2255 1.390 . S
C2257 C2258 1.387 . S
C2257 H2260 0.950 . S
C2258 C2257 1.387 . S
C2258 C2261 1.387 . S
H2259 C2255 0.950 . S
H2260 C2257 0.950 . S
C2261 C2252 1.390 . S
C2261 H2254 0.950 . S
C2261 C2258 1.387 . S
C2262 C2263 1.387 . S
C2262 H2266 0.950 . S
C2262 C2271 1.390 . S
C2263 C2262 1.387 . S
C2263 C2265 1.387 . S
H2264 C2271 0.950 . S
C2265 C2263 1.387 . S
C2265 C2267 1.390 . S
C2265 H2269 0.950 . S
H2266 C2262 0.950 . S
C2267 C2265 1.390 . S
C2267 C2268 1.387 . S
C2267 H2270 0.950 . S
C2268 C2267 1.387 . S
C2268 C2271 1.387 . S
H2269 C2265 0.950 . S
H2270 C2267 0.950 . S
C2271 C2262 1.390 . S
C2271 H2264 0.950 . S
C2271 C2268 1.387 . S
C2272 C2273 1.387 . S
C2272 H2276 0.950 . S
C2272 C2281 1.390 . S
C2273 C2272 1.387 . S
C2273 C2275 1.387 . S
H2274 C2281 0.950 . S
C2275 C2273 1.387 . S
C2275 C2277 1.390 . S
C2275 H2279 0.950 . S
H2276 C2272 0.950 . S
C2277 C2275 1.390 . S
C2277 C2278 1.387 . S
C2277 H2280 0.950 . S
C2278 C2277 1.387 . S
C2278 C2281 1.387 . S
H2279 C2275 0.950 . S
H2280 C2277 0.950 . S
C2281 C2272 1.390 . S
C2281 H2274 0.950 . S
C2281 C2278 1.387 . S
C2282 C2283 1.387 . S
C2282 H2286 0.950 . S
C2282 C2291 1.390 . S
C2283 C2282 1.387 . S
C2283 C2285 1.387 . S
H2284 C2291 0.950 . S
C2285 C2283 1.387 . S
C2285 C2287 1.390 . S
C2285 H2289 0.950 . S
H2286 C2282 0.950 . S
C2287 C2285 1.390 . S
C2287 C2288 1.387 . S
C2287 H2290 0.950 . S
C2288 C2287 1.387 . S
C2288 C2291 1.387 . S
H2289 C2285 0.950 . S
H2290 C2287 0.950 . S
C2291 C2282 1.390 . S
C2291 H2284 0.950 . S
C2291 C2288 1.387 . S
C2292 C2293 1.387 . S
C2292 H2296 0.950 . S
C2292 C2301 1.390 . S
C2293 C2292 1.387 . S
C2293 C2295 1.387 . S
H2294 C2301 0.950 . S
C2295 C2293 1.387 . S
C2295 C2297 1.390 . S
C2295 H2299 0.950 . S
H2296 C2292 0.950 . S
C2297 C2295 1.390 . S
C2297 C2298 1.387 . S
C2297 H2300 0.950 . S
C2298 C2297 1.387 . S
C2298 C2301 1.387 . S
H2299 C2295 0.950 . S
H2300 C2297 0.950 . S
C2301 C2292 1.390 . S
C2301 H2294 0.950 . S
C2301 C2298 1.387 . S
C2302 C2303 1.387 . S
C2302 H2306 0.950 . S
C2302 C2311 1.390 . S
C2303 C2302 1.387 . S
C2303 C2305 1.387 . S
H2304 C2311 0.950 . S
C2305 C2303 1.387 . S
C2305 C2307 1.390 . S
C2305 H2309 0.950 . S
H2306 C2302 0.950 . S
C2307 C2305 1.390 . S
C2307 C2308 1.387 . S
C2307 H2310 0.950 . S
C2308 C2307 1.387 . S
C2308 C2311 1.387 . S
H2309 C2305 0.950 . S
H2310 C2307 0.950 . S
C2311 C2302 1.390 . S
C2311 H2304 0.950 . S
C2311 C2308 1.387 . S
C2312 C2313 1.387 . S
C2312 H2316 0.950 . S
C2312 C2321 1.390 . S
C2313 C2312 1.387 . S
C2313 C2315 1.387 . S
H2314 C2321 0.950 . S
C2315 C2313 1.387 . S
C2315 C2317 1.390 . S
C2315 H2319 0.950 . S
H2316 C2312 0.950 . S
C2317 C2315 1.390 . S
C2317 C2318 1.387 . S
C2317 H2320 0.950 . S
C2318 C2317 1.387 . S
C2318 C2321 1.387 . S
H2319 C2315 0.950 . S
H2320 C2317 0.950 . S
C2321 C2312 1.390 . S
C2321 H2314 0.950 . S
C2321 C2318 1.387 . S
C2322 C2323 1.387 . S
C2322 H2326 0.950 . S
C2322 C2331 1.390 . S
C2323 C2322 1.387 . S
C2323 C2325 1.387 . S
H2324 C2331 0.950 . S
C2325 C2323 1.387 . S
C2325 C2327 1.390 . S
C2325 H2329 0.950 . S
H2326 C2322 0.950 . S
C2327 C2325 1.390 . S
C2327 C2328 1.387 . S
C2327 H2330 0.950 . S
C2328 C2327 1.387 . S
C2328 C2331 1.387 . S
H2329 C2325 0.950 . S
H2330 C2327 0.950 . S
C2331 C2322 1.390 . S
C2331 H2324 0.950 . S
C2331 C2328 1.387 . S
C2332 C2333 1.387 . S
C2332 H2336 0.950 . S
C2332 C2341 1.390 . S
C2333 C2332 1.387 . S
C2333 C2335 1.387 . S
H2334 C2341 0.950 . S
C2335 C2333 1.387 . S
C2335 C2337 1.390 . S
C2335 H2339 0.950 . S
H2336 C2332 0.950 . S
C2337 C2335 1.390 . S
C2337 C2338 1.387 . S
C2337 H2340 0.950 . S
C2338 C2337 1.387 . S
C2338 C2341 1.387 . S
H2339 C2335 0.950 . S
H2340 C2337 0.950 . S
C2341 C2332 1.390 . S
C2341 H2334 0.950 . S
C2341 C2338 1.387 . S
C2342 C2343 1.387 . S
C2342 H2346 0.950 . S
C2342 C2351 1.390 . S
C2343 C2342 1.387 . S
C2343 C2345 1.387 . S
H2344 C2351 0.950 . S
C2345 C2343 1.387 . S
C2345 C2347 1.390 . S
C2345 H2349 0.950 . S
H2346 C2342 0.950 . S
C2347 C2345 1.390 . S
C2347 C2348 1.387 . S
C2347 H2350 0.950 . S
C2348 C2347 1.387 . S
C2348 C2351 1.387 . S
H2349 C2345 0.950 . S
H2350 C2347 0.950 . S
C2351 C2342 1.390 . S
C2351 H2344 0.950 . S
C2351 C2348 1.387 . S
C2352 C2353 1.387 . S
C2352 H2356 0.950 . S
C2352 C2361 1.390 . S
C2353 C2352 1.387 . S
C2353 C2355 1.387 . S
H2354 C2361 0.950 . S
C2355 C2353 1.387 . S
C2355 C2357 1.390 . S
C2355 H2359 0.950 . S
H2356 C2352 0.950 . S
C2357 C2355 1.390 . S
C2357 C2358 1.387 . S
C2357 H2360 0.950 . S
C2358 C2357 1.387 . S
C2358 C2361 1.387 . S
H2359 C2355 0.950 . S
H2360 C2357 0.950 . S
C2361 C2352 1.390 . S
C2361 H2354 0.950 . S
C2361 C2358 1.387 . S
C2362 C2363 1.387 . S
C2362 H2366 0.950 . S
C2362 C2371 1.390 . S
C2363 C2362 1.387 . S
C2363 C2365 1.387 . S
H2364 C2371 0.950 . S
C2365 C2363 1.387 . S
C2365 C2367 1.390 . S
C2365 H2369 0.950 . S
H2366 C2362 0.950 . S
C2367 C2365 1.390 . S
C2367 C2368 1.387 . S
C2367 H2370 0.950 . S
C2368 C2367 1.387 . S
C2368 C2371 1.387 . S
H2369 C2365 0.950 . S
H2370 C2367 0.950 . S
C2371 C2362 1.390 . S
C2371 H2364 0.950 . S
C2371 C2368 1.387 . S
C2372 C2373 1.387 . S
C2372 H2376 0.950 . S
C2372 C2381 1.390 . S
C2373 C2372 1.387 . S
C2373 C2375 1.387 . S
H2374 C2381 0.950 . S
C2375 C2373 1.387 . S
C2375 C2377 1.390 . S
C2375 H2379 0.950 . S
H2376 C2372 0.950 . S
C2377 C2375 1.390 . S
C2377 C2378 1.387 . S
C2377 H2380 0.950 . S
C2378 C2377 1.387 . S
C2378 C2381 1.387 . S
H2379 C2375 0.950 . S
H2380 C2377 0.950 . S
C2381 C2372 1.390 . S
C2381 H2374 0.950 . S
C2381 C2378 1.387 . S
C2382 C2383 1.387 . S
C2382 H2386 0.950 . S
C2382 C2391 1.390 . S
C2383 C2382 1.387 . S
C2383 C2385 1.387 . S
H2384 C2391 0.923 1_545 S
C2385 C2383 1.387 . S
C2385 C2387 1.390 . S
C2385 H2389 0.950 . S
H2386 C2382 0.950 . S
C2387 C2385 1.390 . S
C2387 C2388 1.387 . S
C2387 H2390 0.950 . S
C2388 C2387 1.387 . S
C2388 C2391 1.387 . S
H2389 C2385 0.950 . S
H2390 C2387 0.950 . S
C2391 C2382 1.390 . S
C2391 H2384 0.923 1_565 S
C2391 C2388 1.387 . S
C2392 C2393 1.387 . S
C2392 H2396 0.950 . S
C2392 C2401 1.390 . S
C2393 C2392 1.387 . S
C2393 C2395 1.387 . S
H2394 C2401 0.950 . S
C2395 C2393 1.387 . S
C2395 C2397 1.390 . S
C2395 H2399 0.950 . S
H2396 C2392 0.950 . S
C2397 C2395 1.390 . S
C2397 C2398 1.387 . S
C2397 H2400 0.950 . S
C2398 C2397 1.387 . S
C2398 C2401 1.387 . S
H2399 C2395 0.950 . S
H2400 C2397 0.950 . S
C2401 C2392 1.390 . S
C2401 H2394 0.950 . S
C2401 C2398 1.387 . S
C2402 C2403 1.387 . S
C2402 H2406 0.950 . S
C2402 C2411 1.390 . S
C2403 C2402 1.387 . S
C2403 C2405 1.387 . S
H2404 C2411 0.950 . S
C2405 C2403 1.387 . S
C2405 C2407 1.390 . S
C2405 H2409 0.950 . S
H2406 C2402 0.950 . S
C2407 C2405 1.390 . S
C2407 C2408 1.387 . S
C2407 H2410 0.950 . S
C2408 C2407 1.387 . S
C2408 C2411 1.387 . S
H2409 C2405 0.950 . S
H2410 C2407 0.950 . S
C2411 C2402 1.390 . S
C2411 H2404 0.950 . S
C2411 C2408 1.387 . S
C2412 C2413 1.387 . S
C2412 H2416 0.950 . S
C2412 C2421 1.390 . S
C2413 C2412 1.387 . S
C2413 C2415 1.387 . S
H2414 C2421 0.950 . S
C2415 C2413 1.387 . S
C2415 C2417 1.390 . S
C2415 H2419 0.950 . S
H2416 C2412 0.950 . S
C2417 C2415 1.390 . S
C2417 C2418 1.387 . S
C2417 H2420 0.950 . S
C2418 C2417 1.387 . S
C2418 C2421 1.387 . S
H2419 C2415 0.950 . S
H2420 C2417 0.950 . S
C2421 C2412 1.390 . S
C2421 H2414 0.950 . S
C2421 C2418 1.387 . S
C2422 C2423 1.387 . S
C2422 H2426 0.950 . S
C2422 C2431 1.390 . S
C2423 C2422 1.387 . S
C2423 C2425 1.387 . S
H2424 C2431 0.950 . S
C2425 C2423 1.387 . S
C2425 C2427 1.390 . S
C2425 H2429 0.950 . S
H2426 C2422 0.950 . S
C2427 C2425 1.390 . S
C2427 C2428 1.387 . S
C2427 H2430 0.950 . S
C2428 C2427 1.387 . S
C2428 C2431 1.387 . S
H2429 C2425 0.950 . S
H2430 C2427 0.950 . S
C2431 C2422 1.390 . S
C2431 H2424 0.950 . S
C2431 C2428 1.387 . S
C2432 C2433 1.387 . S
C2432 H2436 0.950 . S
C2432 C2441 1.390 . S
C2433 C2432 1.387 . S
C2433 C2435 1.387 . S
H2434 C2441 0.950 . S
C2435 C2433 1.387 . S
C2435 C2437 1.390 . S
C2435 H2439 0.950 . S
H2436 C2432 0.950 . S
C2437 C2435 1.390 . S
C2437 C2438 1.387 . S
C2437 H2440 0.950 . S
C2438 C2437 1.387 . S
C2438 C2441 1.387 . S
H2439 C2435 0.950 . S
H2440 C2437 0.950 . S
C2441 C2432 1.390 . S
C2441 H2434 0.950 . S
C2441 C2438 1.387 . S
C2442 C2443 1.387 . S
C2442 H2446 0.950 . S
C2442 C2451 1.390 . S
C2443 C2442 1.387 . S
C2443 C2445 1.387 . S
H2444 C2451 0.950 . S
C2445 C2443 1.387 . S
C2445 C2447 1.390 . S
C2445 H2449 0.950 . S
H2446 C2442 0.950 . S
C2447 C2445 1.390 . S
C2447 C2448 1.387 . S
C2447 H2450 0.950 . S
C2448 C2447 1.387 . S
C2448 C2451 1.387 . S
H2449 C2445 0.950 . S
H2450 C2447 0.950 . S
C2451 C2442 1.390 . S
C2451 H2444 0.950 . S
C2451 C2448 1.387 . S
C2452 C2453 1.387 . S
C2452 H2456 0.950 . S
C2452 C2461 1.390 . S
C2453 C2452 1.387 . S
C2453 C2455 1.387 . S
H2454 C2461 0.950 . S
C2455 C2453 1.387 . S
C2455 C2457 1.390 . S
C2455 H2459 0.950 . S
H2456 C2452 0.950 . S
C2457 C2455 1.390 . S
C2457 C2458 1.387 . S
C2457 H2460 0.950 . S
C2458 C2457 1.387 . S
C2458 C2461 1.387 . S
H2459 C2455 0.950 . S
H2460 C2457 0.950 . S
C2461 C2452 1.390 . S
C2461 H2454 0.950 . S
C2461 C2458 1.387 . S
C2462 C2463 1.387 . S
C2462 H2466 0.950 . S
C2462 C2471 1.390 . S
C2463 C2462 1.387 . S
C2463 C2465 1.387 . S
H2464 C2471 0.950 . S
C2465 C2463 1.387 . S
C2465 C2467 1.390 . S
C2465 H2469 0.950 . S
H2466 C2462 0.950 . S
C2467 C2465 1.390 . S
C2467 C2468 1.387 . S
C2467 H2470 0.950 . S
C2468 C2467 1.387 . S
C2468 C2471 1.387 . S
H2469 C2465 0.950 . S
H2470 C2467 0.950 . S
C2471 C2462 1.390 . S
C2471 H2464 0.950 . S
C2471 C2468 1.387 . S
C2472 C2473 1.387 . S
C2472 H2476 0.950 . S
C2472 C2481 1.390 . S
C2473 C2472 1.387 . S
C2473 C2475 1.387 . S
H2474 C2481 0.950 . S
C2475 C2473 1.387 . S
C2475 C2477 1.390 . S
C2475 H2479 0.950 . S
H2476 C2472 0.950 . S
C2477 C2475 1.390 . S
C2477 C2478 1.387 . S
C2477 H2480 0.950 1_565 S
C2478 C2477 1.387 . S
C2478 C2481 1.387 . S
H2479 C2475 0.950 . S
H2480 C2477 0.950 1_545 S
C2481 C2472 1.390 . S
C2481 H2474 0.950 . S
C2481 C2478 1.387 . S
C2482 C2483 1.387 . S
C2482 H2486 0.950 . S
C2482 C2491 1.390 . S
C2483 C2482 1.387 . S
C2483 C2485 1.387 . S
H2484 C2491 0.950 . S
C2485 C2483 1.387 . S
C2485 C2487 1.390 . S
C2485 H2489 0.950 . S
H2486 C2482 0.950 . S
C2487 C2485 1.390 . S
C2487 C2488 1.387 . S
C2487 H2490 0.950 . S
C2488 C2487 1.387 . S
C2488 C2491 1.387 . S
H2489 C2485 0.950 . S
H2490 C2487 0.950 . S
C2491 C2482 1.390 . S
C2491 H2484 0.950 . S
C2491 C2488 1.387 . S
C2492 C2493 1.387 . S
C2492 H2496 0.950 . S
C2492 C2501 1.390 . S
C2493 C2492 1.387 . S
C2493 C2495 1.387 . S
H2494 C2501 0.950 . S
C2495 C2493 1.387 . S
C2495 C2497 1.390 . S
C2495 H2499 0.950 . S
H2496 C2492 0.950 . S
C2497 C2495 1.390 . S
C2497 C2498 1.387 . S
C2497 H2500 0.950 . S
C2498 C2497 1.387 . S
C2498 C2501 1.387 . S
H2499 C2495 0.950 . S
H2500 C2497 0.950 . S
C2501 C2492 1.390 . S
C2501 H2494 0.950 . S
C2501 C2498 1.387 . S
C2502 C2503 1.387 . S
C2502 H2506 0.950 . S
C2502 C2511 1.390 . S
C2503 C2502 1.387 . S
C2503 C2505 1.387 . S
H2504 C2511 0.950 . S
C2505 C2503 1.387 . S
C2505 C2507 1.390 . S
C2505 H2509 0.950 . S
H2506 C2502 0.950 . S
C2507 C2505 1.390 . S
C2507 C2508 1.387 . S
C2507 H2510 0.950 . S
C2508 C2507 1.387 . S
C2508 C2511 1.387 . S
H2509 C2505 0.950 . S
H2510 C2507 0.950 . S
C2511 C2502 1.390 . S
C2511 H2504 0.950 . S
C2511 C2508 1.387 . S
C2512 C2513 1.387 . S
C2512 H2516 0.950 . S
C2512 C2521 1.390 . S
C2513 C2512 1.387 . S
C2513 C2515 1.387 . S
H2514 C2521 0.950 . S
C2515 C2513 1.387 . S
C2515 C2517 1.390 . S
C2515 H2519 0.950 . S
H2516 C2512 0.950 . S
C2517 C2515 1.390 . S
C2517 C2518 1.387 . S
C2517 H2520 0.950 . S
C2518 C2517 1.387 . S
C2518 C2521 1.387 . S
H2519 C2515 0.950 . S
H2520 C2517 0.950 . S
C2521 C2512 1.390 . S
C2521 H2514 0.950 . S
C2521 C2518 1.387 . S
C2522 C2523 1.387 . S
C2522 H2526 0.950 . S
C2522 C2531 1.390 . S
C2523 C2522 1.387 . S
C2523 C2525 1.387 . S
H2524 C2531 0.950 . S
C2525 C2523 1.387 . S
C2525 C2527 1.390 . S
C2525 H2529 0.950 . S
H2526 C2522 0.950 . S
C2527 C2525 1.390 . S
C2527 C2528 1.387 . S
C2527 H2530 0.950 . S
C2528 C2527 1.387 . S
C2528 C2531 1.387 . S
H2529 C2525 0.950 . S
H2530 C2527 0.950 . S
C2531 C2522 1.390 . S
C2531 H2524 0.950 . S
C2531 C2528 1.387 . S
C2532 C2533 1.387 . S
C2532 H2536 0.950 . S
C2532 C2541 1.390 . S
C2533 C2532 1.387 . S
C2533 C2535 1.387 . S
H2534 C2541 0.950 . S
C2535 C2533 1.387 . S
C2535 C2537 1.390 . S
C2535 H2539 0.950 . S
H2536 C2532 0.950 . S
C2537 C2535 1.390 . S
C2537 C2538 1.387 . S
C2537 H2540 0.950 . S
C2538 C2537 1.387 . S
C2538 C2541 1.387 . S
H2539 C2535 0.950 . S
H2540 C2537 0.950 . S
C2541 C2532 1.390 . S
C2541 H2534 0.950 . S
C2541 C2538 1.387 . S
C2542 C2543 1.387 . S
C2542 H2546 0.950 . S
C2542 C2551 1.390 . S
C2543 C2542 1.387 . S
C2543 C2545 1.387 . S
H2544 C2551 0.950 . S
C2545 C2543 1.387 . S
C2545 C2547 1.390 . S
C2545 H2549 0.950 . S
H2546 C2542 0.950 . S
C2547 C2545 1.390 . S
C2547 C2548 1.387 . S
C2547 H2550 0.950 . S
C2548 C2547 1.387 . S
C2548 C2551 1.387 . S
H2549 C2545 0.950 . S
H2550 C2547 0.950 . S
C2551 C2542 1.390 . S
C2551 H2544 0.950 . S
C2551 C2548 1.387 . S
C2552 C2553 1.387 . S
C2552 H2556 0.950 . S
C2552 C2561 1.390 . S
C2553 C2552 1.387 . S
C2553 C2555 1.387 . S
H2554 C2561 0.950 . S
C2555 C2553 1.387 . S
C2555 C2557 1.390 . S
C2555 H2559 0.950 . S
H2556 C2552 0.950 . S
C2557 C2555 1.390 . S
C2557 C2558 1.387 . S
C2557 H2560 0.950 . S
C2558 C2557 1.387 . S
C2558 C2561 1.387 . S
H2559 C2555 0.950 . S
H2560 C2557 0.950 . S
C2561 C2552 1.390 . S
C2561 H2554 0.950 . S
C2561 C2558 1.387 . S
C2562 C2563 1.387 . S
C2562 H2566 0.950 . S
C2562 C2571 1.390 . S
C2563 C2562 1.387 . S
C2563 C2565 1.387 . S
H2564 C2571 0.950 . S
C2565 C2563 1.387 . S
C2565 C2567 1.390 . S
C2565 H2569 0.950 . S
H2566 C2562 0.950 . S
C2567 C2565 1.390 . S
C2567 C2568 1.387 . S
C2567 H2570 0.950 . S
C2568 C2567 1.387 . S
C2568 C2571 1.387 . S
H2569 C2565 0.950 . S
H2570 C2567 0.950 . S
C2571 C2562 1.390 . S
C2571 H2564 0.950 . S
C2571 C2568 1.387 . S
C2572 C2573 1.387 . S
C2572 H2576 0.950 . S
C2572 C2581 1.390 . S
C2573 C2572 1.387 . S
C2573 C2575 1.387 . S
H2574 C2581 0.950 . S
C2575 C2573 1.387 . S
C2575 C2577 1.390 . S
C2575 H2579 0.950 . S
H2576 C2572 0.950 . S
C2577 C2575 1.390 . S
C2577 C2578 1.387 . S
C2577 H2580 0.950 . S
C2578 C2577 1.387 . S
C2578 C2581 1.387 . S
H2579 C2575 0.950 . S
H2580 C2577 0.950 . S
C2581 C2572 1.390 . S
C2581 H2574 0.950 . S
C2581 C2578 1.387 . S
C2582 C2583 1.387 . S
C2582 H2586 0.950 . S
C2582 C2591 1.390 . S
C2583 C2582 1.387 . S
C2583 C2585 1.387 . S
H2584 C2591 0.950 . S
C2585 C2583 1.387 . S
C2585 C2587 1.390 . S
C2585 H2589 0.950 . S
H2586 C2582 0.950 . S
C2587 C2585 1.390 . S
C2587 C2588 1.387 . S
C2587 H2590 0.950 . S
C2588 C2587 1.387 . S
C2588 C2591 1.387 . S
H2589 C2585 0.950 . S
H2590 C2587 0.950 . S
C2591 C2582 1.390 . S
C2591 H2584 0.950 . S
C2591 C2588 1.387 . S
C2592 C2593 1.387 . S
C2592 H2596 0.950 . S
C2592 C2601 1.390 . S
C2593 C2592 1.387 . S
C2593 C2595 1.387 . S
H2594 C2601 0.950 . S
C2595 C2593 1.387 . S
C2595 C2597 1.390 . S
C2595 H2599 0.950 . S
H2596 C2592 0.950 . S
C2597 C2595 1.390 . S
C2597 C2598 1.387 . S
C2597 H2600 0.950 . S
C2598 C2597 1.387 . S
C2598 C2601 1.387 . S
H2599 C2595 0.950 . S
H2600 C2597 0.950 . S
C2601 C2592 1.390 . S
C2601 H2594 0.950 . S
C2601 C2598 1.387 . S
C2602 C2603 1.387 . S
C2602 H2606 0.950 . S
C2602 C2611 1.390 . S
C2603 C2602 1.387 . S
C2603 C2605 1.387 . S
H2604 C2611 0.950 . S
C2605 C2603 1.387 . S
C2605 C2607 1.390 . S
C2605 H2609 0.950 . S
H2606 C2602 0.950 . S
C2607 C2605 1.390 . S
C2607 C2608 1.387 . S
C2607 H2610 0.950 . S
C2608 C2607 1.387 . S
C2608 C2611 1.387 . S
H2609 C2605 0.950 . S
H2610 C2607 0.950 . S
C2611 C2602 1.390 . S
C2611 H2604 0.950 . S
C2611 C2608 1.387 . S
C2612 C2613 1.387 . S
C2612 H2616 0.950 . S
C2612 C2621 1.390 . S
C2613 C2612 1.387 . S
C2613 C2615 1.387 . S
H2614 C2621 0.950 . S
C2615 C2613 1.387 . S
C2615 C2617 1.390 . S
C2615 H2619 0.950 . S
H2616 C2612 0.950 . S
C2617 C2615 1.390 . S
C2617 C2618 1.387 . S
C2617 H2620 0.950 . S
C2618 C2617 1.387 . S
C2618 C2621 1.387 . S
H2619 C2615 0.950 . S
H2620 C2617 0.950 . S
C2621 C2612 1.390 . S
C2621 H2614 0.950 . S
C2621 C2618 1.387 . S
C2622 C2623 1.387 . S
C2622 H2626 0.950 . S
C2622 C2631 1.390 . S
C2623 C2622 1.387 . S
C2623 C2625 1.387 . S
H2624 C2631 0.950 . S
C2625 C2623 1.387 . S
C2625 C2627 1.390 . S
C2625 H2629 0.950 . S
H2626 C2622 0.950 . S
C2627 C2625 1.390 . S
C2627 C2628 1.387 . S
C2627 H2630 0.950 . S
C2628 C2627 1.387 . S
C2628 C2631 1.387 . S
H2629 C2625 0.950 . S
H2630 C2627 0.950 . S
C2631 C2622 1.390 . S
C2631 H2624 0.950 . S
C2631 C2628 1.387 . S
C2632 C2633 1.387 . S
C2632 H2636 0.950 . S
C2632 C2641 1.390 . S
C2633 C2632 1.387 . S
C2633 C2635 1.387 . S
H2634 C2641 0.950 . S
C2635 C2633 1.387 . S
C2635 C2637 1.390 . S
C2635 H2639 0.950 . S
H2636 C2632 0.950 . S
C2637 C2635 1.390 . S
C2637 C2638 1.387 . S
C2637 H2640 0.950 . S
C2638 C2637 1.387 . S
C2638 C2641 1.387 . S
H2639 C2635 0.950 . S
H2640 C2637 0.950 . S
C2641 C2632 1.390 . S
C2641 H2634 0.950 . S
C2641 C2638 1.387 . S
C2642 C2643 1.387 . S
C2642 H2646 0.950 . S
C2642 C2651 1.390 . S
C2643 C2642 1.387 . S
C2643 C2645 1.387 . S
H2644 C2651 0.950 . S
C2645 C2643 1.387 . S
C2645 C2647 1.390 . S
C2645 H2649 0.950 . S
H2646 C2642 0.950 . S
C2647 C2645 1.390 . S
C2647 C2648 1.387 . S
C2647 H2650 0.950 . S
C2648 C2647 1.387 . S
C2648 C2651 1.387 . S
H2649 C2645 0.950 . S
H2650 C2647 0.950 . S
C2651 C2642 1.390 . S
C2651 H2644 0.950 . S
C2651 C2648 1.387 . S
C2652 C2653 1.387 . S
C2652 H2656 0.950 . S
C2652 C2661 1.390 . S
C2653 C2652 1.387 . S
C2653 C2655 1.387 . S
H2654 C2661 0.950 . S
C2655 C2653 1.387 . S
C2655 C2657 1.390 . S
C2655 H2659 0.950 . S
H2656 C2652 0.950 . S
C2657 C2655 1.390 . S
C2657 C2658 1.387 . S
C2657 H2660 0.950 . S
C2658 C2657 1.387 . S
C2658 C2661 1.387 . S
H2659 C2655 0.950 . S
H2660 C2657 0.950 . S
C2661 C2652 1.390 . S
C2661 H2654 0.950 . S
C2661 C2658 1.387 . S
C2662 C2663 1.387 . S
C2662 H2666 0.950 . S
C2662 C2671 1.390 . S
C2663 C2662 1.387 . S
C2663 C2665 1.387 . S
H2664 C2671 0.950 . S
C2665 C2663 1.387 . S
C2665 C2667 1.390 . S
C2665 H2669 0.950 . S
H2666 C2662 0.950 . S
C2667 C2665 1.390 . S
C2667 C2668 1.387 . S
C2667 H2670 0.950 . S
C2668 C2667 1.387 . S
C2668 C2671 1.387 . S
H2669 C2665 0.950 . S
H2670 C2667 0.950 . S
C2671 C2662 1.390 . S
C2671 H2664 0.950 . S
C2671 C2668 1.387 . S
C2672 C2673 1.387 . S
C2672 H2676 0.950 . S
C2672 C2681 1.390 . S
C2673 C2672 1.387 . S
C2673 C2675 1.387 . S
H2674 C2681 0.950 . S
C2675 C2673 1.387 . S
C2675 C2677 1.390 . S
C2675 H2679 0.950 . S
H2676 C2672 0.950 . S
C2677 C2675 1.390 . S
C2677 C2678 1.387 . S
C2677 H2680 0.950 . S
C2678 C2677 1.387 . S
C2678 C2681 1.387 . S
H2679 C2675 0.950 . S
H2680 C2677 0.950 . S
C2681 C2672 1.390 . S
C2681 H2674 0.950 . S
C2681 C2678 1.387 . S
C2682 C2683 1.387 . S
C2682 H2686 0.950 . S
C2682 C2691 1.390 . S
C2683 C2682 1.387 . S
C2683 C2685 1.387 . S
H2684 C2691 0.950 . S
C2685 C2683 1.387 . S
C2685 C2687 1.390 . S
C2685 H2689 0.950 . S
H2686 C2682 0.950 . S
C2687 C2685 1.390 . S
C2687 C2688 1.387 . S
C2687 H2690 0.950 . S
C2688 C2687 1.387 . S
C2688 C2691 1.387 . S
H2689 C2685 0.950 . S
H2690 C2687 0.950 . S
C2691 C2682 1.390 . S
C2691 H2684 0.950 . S
C2691 C2688 1.387 . S
C2692 C2693 1.387 . S
C2692 H2696 0.950 . S
C2692 C2701 1.390 . S
C2693 C2692 1.387 . S
C2693 C2695 1.387 . S
H2694 C2701 0.950 . S
C2695 C2693 1.387 . S
C2695 C2697 1.390 . S
C2695 H2699 0.950 . S
H2696 C2692 0.950 . S
C2697 C2695 1.390 . S
C2697 C2698 1.387 . S
C2697 H2700 0.950 . S
C2698 C2697 1.387 . S
C2698 C2701 1.387 . S
H2699 C2695 0.950 . S
H2700 C2697 0.950 . S
C2701 C2692 1.390 . S
C2701 H2694 0.950 . S
C2701 C2698 1.387 . S
C2702 C2703 1.387 . S
C2702 H2706 0.950 . S
C2702 C2711 1.390 . S
C2703 C2702 1.387 . S
C2703 C2705 1.387 . S
H2704 C2711 0.950 . S
C2705 C2703 1.387 . S
C2705 C2707 1.390 . S
C2705 H2709 0.950 . S
H2706 C2702 0.950 . S
C2707 C2705 1.390 . S
C2707 C2708 1.387 . S
C2707 H2710 0.950 . S
C2708 C2707 1.387 . S
C2708 C2711 1.387 . S
H2709 C2705 0.950 . S
H2710 C2707 0.950 . S
C2711 C2702 1.390 . S
C2711 H2704 0.950 . S
C2711 C2708 1.387 . S
C2712 C2713 1.387 . S
C2712 H2716 0.950 . S
C2712 C2721 1.390 . S
C2713 C2712 1.387 . S
C2713 C2715 1.387 . S
H2714 C2721 0.950 . S
C2715 C2713 1.387 . S
C2715 C2717 1.390 . S
C2715 H2719 0.950 . S
H2716 C2712 0.950 . S
C2717 C2715 1.390 . S
C2717 C2718 1.387 . S
C2717 H2720 0.950 . S
C2718 C2717 1.387 . S
C2718 C2721 1.387 . S
H2719 C2715 0.950 . S
H2720 C2717 0.950 . S
C2721 C2712 1.390 . S
C2721 H2714 0.950 . S
C2721 C2718 1.387 . S
C2722 C2723 1.387 . S
C2722 H2726 0.950 . S
C2722 C2731 1.390 . S
C2723 C2722 1.387 . S
C2723 C2725 1.387 . S
H2724 C2731 0.950 . S
C2725 C2723 1.387 . S
C2725 C2727 1.390 . S
C2725 H2729 0.950 . S
H2726 C2722 0.950 . S
C2727 C2725 1.390 . S
C2727 C2728 1.387 . S
C2727 H2730 0.950 . S
C2728 C2727 1.387 . S
C2728 C2731 1.387 . S
H2729 C2725 0.950 . S
H2730 C2727 0.950 . S
C2731 C2722 1.390 . S
C2731 H2724 0.950 . S
C2731 C2728 1.387 . S
C2732 C2733 1.387 . S
C2732 H2736 0.950 . S
C2732 C2741 1.390 . S
C2733 C2732 1.387 . S
C2733 C2735 1.387 . S
H2734 C2741 0.950 . S
C2735 C2733 1.387 . S
C2735 C2737 1.390 . S
C2735 H2739 0.950 . S
H2736 C2732 0.950 . S
C2737 C2735 1.390 . S
C2737 C2738 1.387 . S
C2737 H2740 0.950 . S
C2738 C2737 1.387 . S
C2738 C2741 1.387 . S
H2739 C2735 0.950 . S
H2740 C2737 0.950 . S
C2741 C2732 1.390 . S
C2741 H2734 0.950 . S
C2741 C2738 1.387 . S
C2742 C2743 1.387 . S
C2742 H2746 0.950 . S
C2742 C2751 1.390 . S
C2743 C2742 1.387 . S
C2743 C2745 1.387 . S
H2744 C2751 0.950 . S
C2745 C2743 1.387 . S
C2745 C2747 1.390 . S
C2745 H2749 0.950 . S
H2746 C2742 0.950 . S
C2747 C2745 1.390 . S
C2747 C2748 1.387 . S
C2747 H2750 0.950 . S
C2748 C2747 1.387 . S
C2748 C2751 1.387 . S
H2749 C2745 0.950 . S
H2750 C2747 0.950 . S
C2751 C2742 1.390 . S
C2751 H2744 0.950 . S
C2751 C2748 1.387 . S
C2752 C2753 1.387 . S
C2752 H2756 0.950 . S
C2752 C2761 1.390 . S
C2753 C2752 1.387 . S
C2753 C2755 1.387 . S
H2754 C2761 0.950 . S
C2755 C2753 1.387 . S
C2755 C2757 1.390 . S
C2755 H2759 0.950 . S
H2756 C2752 0.950 . S
C2757 C2755 1.390 . S
C2757 C2758 1.387 . S
C2757 H2760 0.950 . S
C2758 C2757 1.387 . S
C2758 C2761 1.387 . S
H2759 C2755 0.950 . S
H2760 C2757 0.950 . S
C2761 C2752 1.390 . S
C2761 H2754 0.950 . S
C2761 C2758 1.387 . S
C2762 C2763 1.387 . S
C2762 H2766 0.950 . S
C2762 C2771 1.390 . S
C2763 C2762 1.387 . S
C2763 C2765 1.387 . S
H2764 C2771 0.950 . S
C2765 C2763 1.387 . S
C2765 C2767 1.390 . S
C2765 H2769 0.950 . S
H2766 C2762 0.950 . S
C2767 C2765 1.390 . S
C2767 C2768 1.387 . S
C2767 H2770 0.950 . S
C2768 C2767 1.387 . S
C2768 C2771 1.387 . S
H2769 C2765 0.950 . S
H2770 C2767 0.950 . S
C2771 C2762 1.390 . S
C2771 H2764 0.950 . S
C2771 C2768 1.387 . S
C2772 C2773 1.387 . S
C2772 H2776 0.950 . S
C2772 C2781 1.390 1_556 S
C2773 C2772 1.387 . S
C2773 C2775 1.387 . S
H2774 C2781 0.950 . S
C2775 C2773 1.387 . S
C2775 C2777 1.390 . S
C2775 H2779 0.950 . S
H2776 C2772 0.950 . S
C2777 C2775 1.390 . S
C2777 C2778 1.387 1_556 S
C2777 H2780 0.950 . S
C2778 C2777 1.387 1_554 S
C2778 C2781 1.387 . S
H2779 C2775 0.950 . S
H2780 C2777 0.950 . S
C2781 C2772 1.390 1_554 S
C2781 H2774 0.950 . S
C2781 C2778 1.387 . S
C2782 C2783 1.387 . S
C2782 H2786 0.950 . S
C2782 C2791 1.390 . S
C2783 C2782 1.387 . S
C2783 C2785 1.387 . S
H2784 C2791 0.950 . S
C2785 C2783 1.387 . S
C2785 C2787 1.390 . S
C2785 H2789 0.950 1_556 S
H2786 C2782 0.950 . S
C2787 C2785 1.390 . S
C2787 C2788 1.387 . S
C2787 H2790 0.950 . S
C2788 C2787 1.387 . S
C2788 C2791 1.387 . S
H2789 C2785 0.950 1_554 S
H2790 C2787 0.950 . S
C2791 C2782 1.390 . S
C2791 H2784 0.950 . S
C2791 C2788 1.387 . S
C2792 C2793 1.387 . S
C2792 H2796 0.950 . S
C2792 C2801 1.390 . S
C2793 C2792 1.387 . S
C2793 C2795 1.387 . S
H2794 C2801 0.950 . S
C2795 C2793 1.387 . S
C2795 C2797 1.390 . S
C2795 H2799 0.950 . S
H2796 C2792 0.950 . S
C2797 C2795 1.390 . S
C2797 C2798 1.387 . S
C2797 H2800 0.950 . S
C2798 C2797 1.387 . S
C2798 C2801 1.387 . S
H2799 C2795 0.950 . S
H2800 C2797 0.950 . S
C2801 C2792 1.390 . S
C2801 H2794 0.950 . S
C2801 C2798 1.387 . S
C2802 C2803 1.387 . S
C2802 H2806 0.950 . S
C2802 C2811 1.390 . S
C2803 C2802 1.387 . S
C2803 C2805 1.387 . S
H2804 C2811 0.950 . S
C2805 C2803 1.387 . S
C2805 C2807 1.390 . S
C2805 H2809 0.950 . S
H2806 C2802 0.950 . S
C2807 C2805 1.390 . S
C2807 C2808 1.387 . S
C2807 H2810 0.950 . S
C2808 C2807 1.387 . S
C2808 C2811 1.387 . S
H2809 C2805 0.950 . S
H2810 C2807 0.950 . S
C2811 C2802 1.390 . S
C2811 H2804 0.950 . S
C2811 C2808 1.387 . S
C2812 C2813 1.387 . S
C2812 H2816 0.950 . S
C2812 C2821 1.390 . S
C2813 C2812 1.387 . S
C2813 C2815 1.387 . S
H2814 C2821 0.950 . S
C2815 C2813 1.387 . S
C2815 C2817 1.390 . S
C2815 H2819 0.950 . S
H2816 C2812 0.950 . S
C2817 C2815 1.390 . S
C2817 C2818 1.387 . S
C2817 H2820 0.950 . S
C2818 C2817 1.387 . S
C2818 C2821 1.387 . S
H2819 C2815 0.950 . S
H2820 C2817 0.950 . S
C2821 C2812 1.390 . S
C2821 H2814 0.950 . S
C2821 C2818 1.387 . S
C2822 C2823 1.387 . S
C2822 H2826 0.950 . S
C2822 C2831 1.390 . S
C2823 C2822 1.387 . S
C2823 C2825 1.387 . S
H2824 C2831 0.950 . S
C2825 C2823 1.387 . S
C2825 C2827 1.390 . S
C2825 H2829 0.950 . S
H2826 C2822 0.950 . S
C2827 C2825 1.390 . S
C2827 C2828 1.387 . S
C2827 H2830 0.950 . S
C2828 C2827 1.387 . S
C2828 C2831 1.387 . S
H2829 C2825 0.950 . S
H2830 C2827 0.950 . S
C2831 C2822 1.390 . S
C2831 H2824 0.950 . S
C2831 C2828 1.387 . S
C1633 C577 0.377 . S
C1638 C33 0.478 . S
C1643 C67 0.606 . S
C1648 C1019 0.625 . S
C1653 C645 1.221 . S
C1658 C101 1.221 . S
C1663 C1087 0.390 . S
C1668 C135 0.362 . S
C1673 C169 0.822 . S
C1678 C441 0.906 . S
C1683 C883 0.758 . S
C1688 C203 0.758 . S
C1693 C509 0.727 . S
C1698 C237 0.727 . S
C1703 C271 0.389 . S
C1708 C951 0.379 . S
C1713 C305 0.440 . S
C1718 C1631 0.415 . S
C1723 C339 0.689 . S
C1728 C1597 0.691 . S
C1733 C373 0.763 . S
C1738 C1563 0.762 . S
C1743 C1529 0.523 . S
C1748 C407 0.499 . S
C1753 C1427 0.694 . S
C1758 C475 0.687 . S
C1763 C543 0.509 . S
C1768 C1495 0.520 . S
C1773 C1291 0.857 . S
C1778 C611 0.850 . S
C1783 C679 0.494 . S
C1788 C1359 0.476 . S
C1793 C713 0.515 . S
C1798 C1223 0.492 . S
C1803 C1189 0.762 . S
C1808 C747 0.762 . S
C1813 C1155 0.753 . S
C1818 C781 0.753 . S
C1823 C815 0.343 . S
C1828 C1121 0.370 . S
C1833 C849 0.520 . S
C1838 C1393 0.405 . S
C1843 C917 1.221 . S
C1848 C1461 1.220 . S
C1853 C985 0.849 . S
C1858 C1257 1.019 . S
C1863 C1053 0.808 . S
C1868 C1325 0.808 . S
C1873 C111 1.639 . S
C1878 C20 1.661 . S
C1883 C36 1.932 . S
C1888 C5 1.720 . S
C1893 C43 1.884 . S
C1898 C70 1.936 1_655 S
C1903 C104 1.794 1_565 S
C1908 C77 1.754 . S
C1913 C156 1.555 . S
C1918 C179 1.535 . S
C1923 C213 1.802 . S
C1928 C172 1.863 . S
C1933 C206 2.054 . S
C1938 C243 1.879 . S
C1943 C258 1.731 . S
C1948 C141 1.516 . S
C1953 C122 1.571 . S
C1958 C281 1.545 . S
C1963 C349 1.744 . S
C1968 C2 1.800 . S
C1973 C379 1.497 . S
C1978 C54 1.634 . S
C1983 C311 1.672 . S
C1988 C88 1.810 . S
C1993 C315 1.749 . S
C1998 C190 1.779 1_565 S
C2003 C277 1.656 . S
C2008 C224 1.839 . S
C2013 C240 1.983 . S
C2018 C345 1.759 . S
C2023 C138 1.902 . S
C2028 C383 1.805 . S
C2033 C9 1.471 . S
C2038 C292 1.495 . S
C2043 C145 1.442 . S
C2048 C326 1.460 . S
C2053 C274 1.994 1_556 S
C2058 C175 1.734 . S
C2063 C209 1.877 . S
C2068 C342 2.102 1_556 S
C2073 C394 1.638 . S
C2078 C247 1.600 . S
C2083 C73 1.951 . S
C2088 C376 2.200 . S
C2093 C308 1.946 . S
C2098 C107 1.777 . S
C2103 C39 1.763 . S
C2108 C360 1.942 . S
C2113 C519 1.593 . S
C2118 C428 1.620 . S
C2123 C413 1.827 . S
C2128 C444 2.069 . S
C2133 C478 1.772 . S
C2138 C451 1.732 . S
C2143 C512 1.947 . S
C2148 C485 1.901 . S
C2153 C564 1.392 . S
C2158 C587 1.373 . S
C2163 C580 1.977 . S
C2168 C621 1.923 . S
C2173 C614 1.966 1_655 S
C2178 C651 1.785 . S
C2183 C549 1.660 . S
C2188 C666 1.830 . S
C2193 C689 1.596 . S
C2198 C530 1.632 . S
C2203 C757 1.580 . S
C2208 C410 1.633 . S
C2213 C462 1.749 . S
C2218 C787 1.606 . S
C2223 C723 1.503 . S
C2228 C496 1.514 . S
C2233 C719 1.806 . S
C2238 C598 2.007 . S
C2243 C632 1.722 . S
C2248 C685 1.573 . S
C2253 C753 1.899 . S
C2258 C648 2.133 . S
C2263 C791 1.712 . S
C2268 C546 1.765 1_655 S
C2273 C700 1.562 . S
C2278 C417 1.547 . S
C2283 C553 1.846 . S
C2288 C716 1.884 . S
C2293 C682 2.037 . S
C2298 C583 1.760 . S
C2303 C750 2.278 . S
C2308 C617 2.040 . S
C2313 C802 1.525 . S
C2318 C655 1.493 . S
C2323 C784 2.160 . S
C2328 C481 1.942 . S
C2333 C515 1.471 . S
C2338 C734 1.599 . S
C2343 C768 1.877 . S
C2348 C447 1.662 . S
C2353 C836 1.727 . S
C2358 C927 1.706 . S
C2363 C852 1.844 . S
C2368 C821 1.640 . S
C2373 C886 2.012 . S
C2378 C859 1.960 . S
C2383 C893 1.706 . S
C2388 C920 1.748 1_565 S
C2393 C972 1.610 . S
C2398 C995 1.588 . S
C2403 C988 1.819 . S
C2408 C1029 1.757 . S
C2413 C1022 2.135 . S
C2418 C1059 1.954 . S
C2423 C957 1.443 . S
C2428 C1074 1.625 . S
C2433 C938 1.525 . S
C2438 C1097 1.501 . S
C2443 C818 1.970 . S
C2448 C1161 1.797 . S
C2453 C1195 1.588 . S
C2458 C870 1.722 1_565 S
C2463 C1127 1.708 . S
C2468 C904 1.874 . S
C2473 C1131 1.649 . S
C2478 C1006 1.674 1_565 S
C2483 C1093 1.587 . S
C2488 C1040 1.778 . S
C2493 C1165 1.807 . S
C2498 C1056 1.860 . S
C2503 C1199 1.835 . S
C2508 C954 1.905 . S
C2513 C1108 1.545 . S
C2518 C825 1.510 . S
C2523 C961 1.428 . S
C2528 C1142 1.452 . S
C2533 C1090 2.037 . S
C2538 C991 1.775 . S
C2543 C1025 1.631 . S
C2548 C1176 1.833 . S
C2553 C1210 1.585 . S
C2558 C1063 1.557 . S
C2563 C1192 2.129 . S
C2568 C889 1.890 . S
C2573 C1124 1.984 . S
C2578 C923 1.820 . S
C2583 C1158 2.232 . S
C2588 C855 2.025 . S
C2593 C1244 1.605 . S
C2598 C1335 1.582 . S
C2603 C1260 2.045 . S
C2608 C1229 1.810 . S
C2613 C1294 1.805 . S
C2618 C1267 1.767 . S
C2623 C1328 1.918 . S
C2628 C1301 1.871 . S
C2633 C1380 1.423 . S
C2638 C1403 1.402 . S
C2643 C1396 1.955 . S
C2648 C1437 1.899 . S
C2653 C1430 1.987 . S
C2658 C1467 1.803 . S
C2663 C1482 1.799 . S
C2668 C1365 1.632 . S
C2673 C1346 1.564 . S
C2678 C1505 1.532 . S
C2683 C1226 1.685 . S
C2688 C1573 1.633 . S
C2693 C1278 1.727 . S
C2698 C1603 1.596 . S
C2703 C1312 1.517 . S
C2708 C1539 1.502 . S
C2713 C1535 1.730 . S
C2718 C1414 1.966 . S
C2723 C1501 1.595 1_556 S
C2728 C1448 1.754 . S
C2733 C1464 2.085 . S
C2738 C1569 1.859 . S
C2743 C1362 1.819 . S
C2748 C1607 1.761 . S
C2753 C1233 1.541 . S
C2758 C1516 1.558 . S
C2763 C1532 1.860 1_556 S
C2768 C1369 1.815 . S
C2773 C1399 1.765 . S
C2778 C1498 2.038 . S
C2783 C1566 2.252 1_556 S
C2788 C1433 2.012 . S
C2793 C1471 1.496 . S
C2798 C1618 1.525 . S
C2803 C1297 1.916 . S
C2808 C1600 2.131 . S
C2813 C1550 1.684 . S
C2818 C1331 1.533 . S
C2823 C1263 1.711 . S
C2828 C1584 1.928 . S
