# Generated by pormake.
# Topology sml, (6)-cn, num edge types: 1
# Building blocks:
#     Node 0, Type 0, BuildingBlock: BETGAK_clean_sbu_0, # of connection points: 6
#     Node 1, Type 0, BuildingBlock: BETGAK_clean_sbu_0, # of connection points: 6
#     Node 2, Type 0, BuildingBlock: BETGAK_clean_sbu_0, # of connection points: 6
#     Node 3, Type 0, BuildingBlock: BETGAK_clean_sbu_0, # of connection points: 6
#     Node 4, Type 0, BuildingBlock: BETGAK_clean_sbu_0, # of connection points: 6
#     Node 5, Type 0, BuildingBlock: BETGAK_clean_sbu_0, # of connection points: 6
#     Edge 6, Type (0, 0), BuildingBlock: TEMPAE_clean_linker_10, # of connection points: 2
#     Edge 7, Type (0, 0), BuildingBlock: TEMPAE_clean_linker_10, # of connection points: 2
#     Edge 8, Type (0, 0), BuildingBlock: TEMPAE_clean_linker_10, # of connection points: 2
#     Edge 9, Type (0, 0), BuildingBlock: TEMPAE_clean_linker_10, # of connection points: 2
#     Edge 10, Type (0, 0), BuildingBlock: TEMPAE_clean_linker_10, # of connection points: 2
#     Edge 11, Type (0, 0), BuildingBlock: TEMPAE_clean_linker_10, # of connection points: 2
#     Edge 12, Type (0, 0), BuildingBlock: TEMPAE_clean_linker_10, # of connection points: 2
#     Edge 13, Type (0, 0), BuildingBlock: TEMPAE_clean_linker_10, # of connection points: 2
#     Edge 14, Type (0, 0), BuildingBlock: TEMPAE_clean_linker_10, # of connection points: 2
#     Edge 15, Type (0, 0), BuildingBlock: TEMPAE_clean_linker_10, # of connection points: 2
#     Edge 16, Type (0, 0), BuildingBlock: TEMPAE_clean_linker_10, # of connection points: 2
#     Edge 17, Type (0, 0), BuildingBlock: TEMPAE_clean_linker_10, # of connection points: 2
#     Edge 18, Type (0, 0), BuildingBlock: TEMPAE_clean_linker_10, # of connection points: 2
#     Edge 19, Type (0, 0), BuildingBlock: TEMPAE_clean_linker_10, # of connection points: 2
#     Edge 20, Type (0, 0), BuildingBlock: TEMPAE_clean_linker_10, # of connection points: 2
#     Edge 21, Type (0, 0), BuildingBlock: TEMPAE_clean_linker_10, # of connection points: 2
#     Edge 22, Type (0, 0), BuildingBlock: TEMPAE_clean_linker_10, # of connection points: 2
#     Edge 23, Type (0, 0), BuildingBlock: TEMPAE_clean_linker_10, # of connection points: 2
# Relax obj value: 0.190
# Max RMSD: 0.222
# Mean RMSD: 0.222
data_MOF--net-sml--node1-BETGAK_clean_sbu_0--edge1-TEMPAE_clean_linker_10
_symmetry_space_group_name_H-M    P1
_symmetry_Int_Tables_number       1
_symmetry_cell_setting            triclinic
loop_
_symmetry_equiv_pos_as_xyz
'x, y, z'
_cell_length_a     32.544254
_cell_length_b     32.512537
_cell_length_c     25.287653
_cell_angle_alpha  90.260396
_cell_angle_beta   89.968437
_cell_angle_gamma 120.0584
loop_
_atom_site_label
_atom_site_type_symbol
_atom_site_fract_x
_atom_site_fract_y
_atom_site_fract_z
_atom_type_partial_charge
La0 La 0.18643 0.45539 0.09035 0.0
La1 La 0.20806 0.41186 0.18611 0.0
C2 C 0.18605 0.48939 1.00077 0.0
C3 C 0.19232 0.48036 0.94478 0.0
C4 C 0.17491 0.43398 0.92532 0.0
C5 C 0.17727 0.42597 0.87119 0.0
C6 C 0.19736 0.46417 0.83543 0.0
C7 C 0.21652 0.51069 0.8555 0.0
C8 C 0.21391 0.51863 0.90958 0.0
C9 C 0.11259 0.39581 0.14692 0.0
C10 C 0.20636 0.36813 0.07726 0.0
C11 C 0.20907 0.37925 0.27625 0.0
C12 C 0.19991 0.38731 0.33154 0.0
C13 C 0.21081 0.43261 0.34974 0.0
C14 C 0.20653 0.44042 0.40352 0.0
C15 C 0.19117 0.40307 0.4402 0.0
C16 C 0.17808 0.35732 0.42116 0.0
C17 C 0.18252 0.34961 0.36747 0.0
C18 C 0.28147 0.47201 0.12933 0.0
C19 C 0.19171 0.5007 0.1995 0.0
O20 O 0.14797 0.45659 0.02449 0.0
O21 O 0.22355 0.50626 0.03126 0.0
O22 O 0.1161 0.4326 0.12293 0.0
O23 O 0.14842 0.39207 0.13615 0.0
O24 O 0.20606 0.40532 0.05621 0.0
O25 O 0.20008 0.35881 0.12849 0.0
O26 O 0.24642 0.41411 0.25364 0.0
O27 O 0.17249 0.35957 0.24429 0.0
O28 O 0.27871 0.43536 0.15286 0.0
O29 O 0.24548 0.47506 0.14075 0.0
O30 O 0.18836 0.46176 0.22012 0.0
O31 O 0.19844 0.51007 0.14828 0.0
H32 H 0.15861 0.40383 0.95175 0.0
H33 H 0.16302 0.38979 0.85726 0.0
H34 H 0.23208 0.54091 0.82916 0.0
H35 H 0.22774 0.55471 0.92376 0.0
H36 H 0.22402 0.46229 0.32272 0.0
H37 H 0.21705 0.47613 0.41657 0.0
H38 H 0.16498 0.32747 0.44791 0.0
H39 H 0.17339 0.31429 0.35421 0.0
La40 La 0.83688 0.25448 0.53477 0.0
La41 La 0.79133 0.19068 0.43807 0.0
C42 C 0.85392 0.29114 0.62589 0.0
C43 C 0.84283 0.27556 0.68131 0.0
C44 C 0.84446 0.2358 0.7001 0.0
C45 C 0.83635 0.22358 0.75363 0.0
C46 C 0.82616 0.25069 0.78921 0.0
C47 C 0.82323 0.28962 0.76981 0.0
C48 C 0.83157 0.30193 0.71642 0.0
C49 C 0.89739 0.26464 0.46023 0.0
C50 C 0.80259 0.14321 0.53824 0.0
C51 C 0.76925 0.15231 0.34792 0.0
C52 C 0.78003 0.16599 0.29196 0.0
C53 C 0.78307 0.20781 0.27239 0.0
C54 C 0.79025 0.21823 0.21838 0.0
C55 C 0.7946 0.18708 0.18296 0.0
C56 C 0.79294 0.14601 0.20317 0.0
C57 C 0.78556 0.13554 0.25705 0.0
C58 C 0.73258 0.18559 0.51313 0.0
C59 C 0.82238 0.30036 0.43415 0.0
O60 O 0.88228 0.28019 0.60049 0.0
O61 O 0.81824 0.28533 0.59663 0.0
O62 O 0.90373 0.29758 0.49369 0.0
O63 O 0.8606 0.22604 0.47258 0.0
O64 O 0.81323 0.18264 0.56465 0.0
O65 O 0.79816 0.13992 0.48631 0.0
O66 O 0.74491 0.16823 0.37337 0.0
O67 O 0.80368 0.15425 0.37666 0.0
O68 O 0.72508 0.15011 0.48316 0.0
O69 O 0.7694 0.22197 0.49773 0.0
O70 O 0.81569 0.26215 0.40785 0.0
O71 O 0.82591 0.30332 0.48636 0.0
H72 H 0.85256 0.21453 0.67364 0.0
H73 H 0.83815 0.19297 0.76723 0.0
H74 H 0.81584 0.31144 0.7962 0.0
H75 H 0.83 0.33263 0.70266 0.0
H76 H 0.77895 0.23193 0.29858 0.0
H77 H 0.79101 0.24999 0.20423 0.0
H78 H 0.79716 0.12175 0.17728 0.0
H79 H 0.78363 0.10326 0.27141 0.0
La80 La 0.57575 0.73724 0.76274 0.0
La81 La 0.59581 0.80128 0.8594 0.0
C82 C 0.5538 0.69913 0.67226 0.0
C83 C 0.55973 0.71255 0.616 0.0
C84 C 0.56481 0.68306 0.57922 0.0
C85 C 0.56971 0.69396 0.52541 0.0
C86 C 0.56966 0.73473 0.50711 0.0
C87 C 0.56451 0.76435 0.54418 0.0
C88 C 0.55971 0.75342 0.59823 0.0
C89 C 0.63064 0.7302 0.83385 0.0
C90 C 0.65338 0.8486 0.7586 0.0
C91 C 0.60996 0.84 0.94943 0.0
C92 C 0.60699 0.82735 1.00563 0.0
C93 C 0.60867 0.85958 0.04366 0.0
C94 C 0.60513 0.84862 0.09739 0.0
C95 C 0.59994 0.80509 0.11432 0.0
C96 C 0.59804 0.77264 0.07588 0.0
C97 C 0.60154 0.78368 0.02192 0.0
C98 C 0.54058 0.80544 0.78599 0.0
C99 C 0.52123 0.69082 0.86646 0.0
O100 O 0.59223 0.70754 0.6978 0.0
O101 O 0.5264 0.70938 0.70061 0.0
O102 O 0.60219 0.69606 0.80256 0.0
O103 O 0.63058 0.76793 0.82188 0.0
O104 O 0.62424 0.80905 0.73243 0.0
O105 O 0.65286 0.85219 0.8106 0.0
O106 O 0.56959 0.82196 0.92391 0.0
O107 O 0.6431 0.8387 0.92136 0.0
O108 O 0.56975 0.84133 0.8146 0.0
O109 O 0.54086 0.76898 0.80147 0.0
O110 O 0.55356 0.72967 0.89101 0.0
O111 O 0.51856 0.68759 0.81417 0.0
H112 H 0.56468 0.65126 0.59214 0.0
H113 H 0.57282 0.66997 0.498 0.0
H114 H 0.56474 0.79623 0.5315 0.0
H115 H 0.55593 0.7768 0.626 0.0
H116 H 0.61244 0.89328 0.03174 0.0
H117 H 0.60578 0.87406 0.12566 0.0
H118 H 0.59441 0.739 0.08757 0.0
H119 H 0.60011 0.75831 0.99305 0.0
La120 La 0.73049 0.56558 0.22468 0.0
La121 La 0.79641 0.59415 0.12903 0.0
C122 C 0.69314 0.53797 0.31463 0.0
C123 C 0.70694 0.54595 0.37109 0.0
C124 C 0.67917 0.55495 0.4065 0.0
C125 C 0.69029 0.5617 0.46037 0.0
C126 C 0.72949 0.55946 0.48024 0.0
C127 C 0.75741 0.55042 0.44464 0.0
C128 C 0.74633 0.54384 0.39053 0.0
C129 C 0.72334 0.62467 0.16002 0.0
C130 C 0.84046 0.64668 0.23415 0.0
C131 C 0.83591 0.61387 0.0394 0.0
C132 C 0.82324 0.61004 0.98294 0.0
C133 C 0.85414 0.60821 0.94567 0.0
C134 C 0.84307 0.60349 0.89182 0.0
C135 C 0.80078 0.60063 0.87388 0.0
C136 C 0.76966 0.60229 0.91154 0.0
C137 C 0.78077 0.6069 0.96566 0.0
C138 C 0.80203 0.53578 0.19637 0.0
C139 C 0.68665 0.517 0.11736 0.0
O140 O 0.69469 0.57381 0.28949 0.0
O141 O 0.70897 0.51536 0.28567 0.0
O142 O 0.68872 0.59316 0.18833 0.0
O143 O 0.76123 0.62469 0.17131 0.0
O144 O 0.80068 0.61531 0.25795 0.0
O145 O 0.84545 0.6491 0.18216 0.0
O146 O 0.82218 0.57371 0.06388 0.0
O147 O 0.83005 0.64401 0.06838 0.0
O148 O 0.83782 0.56815 0.17049 0.0
O149 O 0.76479 0.53514 0.1818 0.0
O150 O 0.72547 0.55152 0.09528 0.0
O151 O 0.68264 0.5109 0.16927 0.0
H152 H 0.64849 0.55646 0.39247 0.0
H153 H 0.6676 0.56786 0.48665 0.0
H154 H 0.78809 0.54888 0.45852 0.0
H155 H 0.76848 0.53704 0.36406 0.0
H156 H 0.88686 0.61009 0.95831 0.0
H157 H 0.86743 0.60135 0.86428 0.0
H158 H 0.73701 0.60053 0.89911 0.0
H159 H 0.75633 0.60801 0.99392 0.0
La160 La 0.23811 0.82234 0.45996 0.0
La161 La 0.1846 0.77049 0.55912 0.0
C162 C 0.28136 0.84158 0.37259 0.0
C163 C 0.26903 0.83366 0.31556 0.0
C164 C 0.28983 0.87231 0.28076 0.0
C165 C 0.27972 0.86577 0.22654 0.0
C166 C 0.24862 0.82028 0.20573 0.0
C167 C 0.22772 0.78155 0.24074 0.0
C168 C 0.23775 0.78817 0.29502 0.0
C169 C 0.23273 0.87744 0.53411 0.0
C170 C 0.12853 0.78501 0.46351 0.0
C171 C 0.14095 0.74676 0.6461 0.0
C172 C 0.15385 0.75595 0.70273 0.0
C173 C 0.12829 0.71997 0.73959 0.0
C174 C 0.13947 0.72765 0.79349 0.0
C175 C 0.17639 0.77174 0.81193 0.0
C176 C 0.20226 0.80773 0.77465 0.0
C177 C 0.19125 0.79984 0.72061 0.0
C178 C 0.19221 0.71772 0.48449 0.0
C179 C 0.29335 0.80827 0.5567 0.0
O180 O 0.27121 0.87068 0.39767 0.0
O181 O 0.27178 0.80422 0.40103 0.0
O182 O 0.23829 0.88733 0.48409 0.0
O183 O 0.23697 0.84151 0.54089 0.0
O184 O 0.16649 0.80019 0.43313 0.0
O185 O 0.12834 0.77336 0.51379 0.0
O186 O 0.15518 0.72089 0.62087 0.0
O187 O 0.14653 0.78289 0.61787 0.0
O188 O 0.19161 0.70916 0.53455 0.0
O189 O 0.18519 0.75189 0.47842 0.0
O190 O 0.25656 0.7986 0.58704 0.0
O191 O 0.29256 0.81509 0.50501 0.0
H192 H 0.31427 0.90767 0.29551 0.0
H193 H 0.29696 0.89631 0.20076 0.0
H194 H 0.20321 0.74612 0.22628 0.0
H195 H 0.22111 0.75765 0.32079 0.0
H196 H 0.0996 0.68572 0.72664 0.0
H197 H 0.11938 0.69875 0.82065 0.0
H198 H 0.23061 0.84227 0.78723 0.0
H199 H 0.21184 0.82809 0.69289 0.0
La200 La 0.44429 0.19157 0.86816 0.0
La201 La 0.41799 0.22784 0.76809 0.0
C202 C 0.48196 0.18521 0.95268 0.0
C203 C 0.472 0.18472 1.01002 0.0
C204 C 0.47368 0.15099 0.04302 0.0
C205 C 0.46675 0.1516 0.0977 0.0
C206 C 0.45831 0.18622 0.12067 0.0
C207 C 0.45617 0.21969 0.08738 0.0
C208 C 0.46278 0.21889 0.03274 0.0
C209 C 0.36853 0.12804 0.81476 0.0
C210 C 0.36542 0.22047 0.87372 0.0
C211 C 0.39506 0.23987 0.67668 0.0
C212 C 0.39953 0.2286 0.62112 0.0
C213 C 0.39488 0.25561 0.58106 0.0
C214 C 0.39997 0.24693 0.52796 0.0
C215 C 0.40998 0.211 0.51358 0.0
C216 C 0.41472 0.18387 0.55396 0.0
C217 C 0.40936 0.19249 0.60732 0.0
C218 C 0.4726 0.29284 0.83775 0.0
C219 C 0.49741 0.1971 0.76132 0.0
O220 O 0.4523 0.14818 0.92447 0.0
O221 O 0.49466 0.22509 0.92807 0.0
O222 O 0.37451 0.12613 0.86525 0.0
O223 O 0.40613 0.16163 0.79638 0.0
O224 O 0.4003 0.21907 0.89908 0.0
O225 O 0.36001 0.21486 0.82167 0.0
O226 O 0.43462 0.27037 0.70044 0.0
O227 O 0.36706 0.20426 0.7074 0.0
O228 O 0.44123 0.29588 0.8091 0.0
O229 O 0.47358 0.256 0.82481 0.0
O230 O 0.47135 0.21225 0.73706 0.0
O231 O 0.49342 0.18712 0.81256 0.0
H232 H 0.48097 0.12448 0.02656 0.0
H233 H 0.46906 0.12557 0.12216 0.0
H234 H 0.4491 0.24645 0.10353 0.0
H235 H 0.46108 0.24536 1.00843 0.0
H236 H 0.38759 0.28381 0.5909 0.0
H237 H 0.39687 0.26903 0.49813 0.0
H238 H 0.42208 0.1557 0.5443 0.0
H239 H 0.41296 0.17111 0.6377 0.0
C240 C 0.35438 0.26223 0.95045 0.0
C241 C 0.33615 0.23556 0.90383 0.0
C242 C 0.32986 0.28113 0.97734 0.0
C243 C 0.28528 0.27214 0.958 0.0
C244 C 0.26591 0.24399 0.91186 0.0
C245 C 0.2919 0.22651 0.88488 0.0
C246 C 0.35251 0.31207 0.02548 0.0
C247 C 0.21818 0.23309 0.89054 0.0
C248 C 0.21148 0.29507 0.05789 0.0
C249 C 0.22113 0.34059 0.04334 0.0
C250 C 0.2302 0.27126 0.0288 0.0
C251 C 0.26022 0.29408 0.98506 0.0
C252 C 0.26918 0.33964 0.96957 0.0
C253 C 0.24904 0.36203 0.99847 0.0
C254 C 0.21923 0.2224 0.046 0.0
C255 C 0.30199 0.36586 0.92414 0.0
H256 H 0.38888 0.26997 0.96501 0.0
H257 H 0.27767 0.20592 0.8489 0.0
H258 H 0.35832 0.34826 0.01834 0.0
H259 H 0.32855 0.2974 0.06004 0.0
H260 H 0.38718 0.31519 0.03565 0.0
H261 H 0.20663 0.20805 0.85646 0.0
H262 H 0.19093 0.2175 0.92207 0.0
H263 H 0.21978 0.26642 0.87764 0.0
H264 H 0.18989 0.27834 0.09247 0.0
H265 H 0.25721 0.39751 0.98733 0.0
H266 H 0.25193 0.22411 0.06154 0.0
H267 H 0.20701 0.19761 1.01173 0.0
H268 H 0.19159 0.20761 0.07725 0.0
H269 H 0.33838 0.37316 0.93345 0.0
H270 H 0.30368 0.4002 0.91579 0.0
H271 H 0.29023 0.34365 0.8878 0.0
C272 C 0.05262 0.3901 0.21204 0.0
C273 C 0.07852 0.37053 0.18988 0.0
C274 C 0.02229 0.36849 0.25514 0.0
C275 C 0.01792 0.32636 0.27671 0.0
C276 C 0.0431 0.30579 0.25358 0.0
C277 C 0.07281 0.32794 0.21002 0.0
C278 C 0.99552 0.3912 0.27815 0.0
C279 C 0.03906 0.26076 0.27531 0.0
C280 C 0.97738 0.30562 0.41956 0.0
C281 C 0.92861 0.27365 0.4142 0.0
C282 C 0.00739 0.32102 0.37532 0.0
C283 C 0.98785 0.3048 0.3243 0.0
C284 C 0.93884 0.2712 0.31888 0.0
C285 C 0.90981 0.25612 0.36401 0.0
C286 C 0.05957 0.35641 0.38298 0.0
C287 C 0.91604 0.25341 0.26539 0.0
H288 H 0.05682 0.42298 0.19639 0.0
H289 H 0.09197 0.31221 0.19201 0.0
H290 H 0.95686 0.36522 0.27826 0.0
H291 H 0.00657 0.40184 0.31981 0.0
H292 H 0.00173 0.42313 0.25575 0.0
H293 H 0.0602 0.24876 0.25218 0.0
H294 H 0.05152 0.26657 0.31696 0.0
H295 H 0.00133 0.23199 0.2752 0.0
H296 H 0.99191 0.31956 0.45842 0.0
H297 H 0.87203 0.23318 0.3594 0.0
H298 H 0.06787 0.39131 0.36646 0.0
H299 H 0.08158 0.34463 0.36137 0.0
H300 H 0.07008 0.36148 0.42535 0.0
H301 H 0.90483 0.27806 0.24952 0.0
H302 H 0.88404 0.21764 0.26846 0.0
H303 H 0.94077 0.2515 0.23662 0.0
C304 C 0.81169 0.0995 0.61431 0.0
C305 C 0.78772 0.09928 0.56828 0.0
C306 C 0.7949 0.05827 0.64511 0.0
C307 C 0.75199 0.0168 0.63069 0.0
C308 C 0.72784 0.01658 0.58404 0.0
C309 C 0.74655 0.05757 0.55287 0.0
C310 C 0.82243 0.0594 0.69363 0.0
C311 C 0.6809 0.97394 0.56848 0.0
C312 C 0.7114 0.89401 0.68705 0.0
C313 C 0.68203 0.89238 0.72836 0.0
C314 C 0.73659 0.93537 0.65657 0.0
C315 C 0.73019 0.9748 0.66621 0.0
C316 C 0.70023 0.97294 0.70791 0.0
C317 C 0.6773 0.93205 0.73915 0.0
C318 C 0.76942 0.93663 0.61364 0.0
C319 C 0.69065 0.01321 0.71805 0.0
H320 H 0.84349 0.13189 0.62618 0.0
H321 H 0.72752 0.05776 0.51775 0.0
H322 H 0.80232 0.05785 0.7297 0.0
H323 H 0.82726 0.02794 0.69407 0.0
H324 H 0.85787 0.0921 0.6956 0.0
H325 H 0.66703 0.97936 0.5306 0.0
H326 H 0.68458 0.94197 0.56454 0.0
H327 H 0.65425 0.96651 0.59989 0.0
H328 H 0.71484 0.86311 0.67885 0.0
H329 H 0.65382 0.93025 0.77065 0.0
H330 H 0.80456 0.96947 0.61724 0.0
H331 H 0.75472 0.93731 0.57431 0.0
H332 H 0.77454 0.90535 0.61513 0.0
H333 H 0.72435 0.04665 0.72597 0.0
H334 H 0.66641 0.00607 0.75208 0.0
H335 H 0.67443 0.01911 0.68238 0.0
C336 C 0.64846 0.67759 0.88785 0.0
C337 C 0.65343 0.72253 0.88027 0.0
C338 C 0.66536 0.66714 0.93377 0.0
C339 C 0.68644 0.70208 0.97396 0.0
C340 C 0.69259 0.74794 0.96603 0.0
C341 C 0.67729 0.75801 0.91836 0.0
C342 C 0.65824 0.61779 0.94003 0.0
C343 C 0.7128 0.7854 1.00891 0.0
C344 C 0.67119 0.64448 0.1075 0.0
C345 C 0.71643 0.65064 0.11641 0.0
C346 C 0.66191 0.66416 0.06311 0.0
C347 C 0.69832 0.68894 0.02557 0.0
C348 C 0.74455 0.69674 0.03536 0.0
C349 C 0.75338 0.67893 0.08185 0.0
C350 C 0.61229 0.65581 0.05526 0.0
C351 C 0.78374 0.72096 0.99519 0.0
H352 H 0.63048 0.65004 0.85821 0.0
H353 H 0.68279 0.79312 0.91159 0.0
H354 H 0.68811 0.61846 0.96183 0.0
H355 H 0.6253 0.59567 0.96286 0.0
H356 H 0.65446 0.60026 0.90109 0.0
H357 H 0.7128 0.81837 0.9975 0.0
H358 H 0.69169 0.77137 0.04566 0.0
H359 H 0.7497 0.79457 0.01823 0.0
H360 H 0.64254 0.62334 0.13468 0.0
H361 H 0.78877 0.68587 0.09029 0.0
H362 H 0.59141 0.62312 0.03128 0.0
H363 H 0.61245 0.68572 0.03414 0.0
H364 H 0.59379 0.6507 0.09368 0.0
H365 H 0.77287 0.7007 0.95741 0.0
H366 H 0.81753 0.72367 1.0086 0.0
H367 H 0.7902 0.75715 0.98683 0.0
C368 C 0.08029 0.80175 0.40011 0.0
C369 C 0.08312 0.77163 0.43747 0.0
C370 C 0.03915 0.78644 0.36943 0.0
C371 C 0.00108 0.73921 0.37468 0.0
C372 C 0.00346 0.70909 0.41339 0.0
C373 C 0.04421 0.72605 0.44505 0.0
C374 C 0.03723 0.82013 0.32997 0.0
C375 C 0.96445 0.65795 0.41894 0.0
C376 C 0.87859 0.69483 0.31531 0.0
C377 C 0.88254 0.67546 0.2673 0.0
C378 C 0.9177 0.718 0.34962 0.0
C379 C 0.96086 0.71973 0.3365 0.0
C380 C 0.96492 0.70037 0.28778 0.0
C381 C 0.92592 0.67927 0.25331 0.0
C382 C 0.91252 0.73965 0.40032 0.0
C383 C 0.00969 0.69984 0.27314 0.0
H384 H 0.11058 0.83699 0.39431 0.0
H385 H 0.04689 0.70254 0.47336 0.0
H386 H 0.0402 0.80901 0.28929 0.0
H387 H 0.00273 0.81918 0.33268 0.0
H388 H 0.06638 0.85729 0.3362 0.0
H389 H 0.97081 0.63992 0.45252 0.0
H390 H 0.92969 0.65585 0.42482 0.0
H391 H 0.96183 0.63816 0.38202 0.0
H392 H 0.84486 0.69165 0.32608 0.0
H393 H 0.92858 0.66338 0.21661 0.0
H394 H 0.94261 0.7765 0.405 0.0
H395 H 0.91339 0.71893 0.43458 0.0
H396 H 0.87873 0.74032 0.40161 0.0
H397 H 0.04042 0.73655 0.27271 0.0
H398 H 0.00699 0.68334 0.23378 0.0
H399 H 0.01724 0.67974 0.30323 0.0
C400 C 0.3084 0.08966 0.74365 0.0
C401 C 0.33749 0.08638 0.78205 0.0
C402 C 0.28589 0.05407 0.70498 0.0
C403 C 0.29368 0.01492 0.70423 0.0
C404 C 0.32152 0.01056 0.74452 0.0
C405 C 0.34289 0.04631 0.78324 0.0
C406 C 0.25565 0.05955 0.66352 0.0
C407 C 0.33133 0.96981 0.74475 0.0
C408 C 0.2178 0.90469 0.62055 0.0
C409 C 0.24591 0.91406 0.5754 0.0
C410 C 0.23218 0.93768 0.66236 0.0
C411 C 0.27614 0.98071 0.65905 0.0
C412 C 0.3043 0.99061 0.61291 0.0
C413 C 0.28858 0.95727 0.57141 0.0
C414 C 0.20069 0.92619 0.71029 0.0
C415 C 0.35177 0.03571 0.60809 0.0
H416 H 0.30422 0.12068 0.74309 0.0
H417 H 0.36614 0.04436 0.81257 0.0
H418 H 0.2743 0.06814 0.62494 0.0
H419 H 0.22156 0.02579 0.65843 0.0
H420 H 0.24797 0.0883 0.67372 0.0
H421 H 0.35083 0.9698 0.7808 0.0
H422 H 0.29769 0.93532 0.74217 0.0
H423 H 0.35286 0.97228 0.70957 0.0
H424 H 0.18451 0.87162 0.62314 0.0
H425 H 0.31048 0.96423 0.53655 0.0
H426 H 0.19381 0.95573 0.71872 0.0
H427 H 0.2188 0.92228 0.74544 0.0
H428 H 0.16617 0.89282 0.70507 0.0
H429 H 0.34729 0.06722 0.61226 0.0
H430 H 0.36929 0.03803 0.56962 0.0
H431 H 0.37569 0.03754 0.64042 0.0
C432 C 0.15585 0.4188 0.75298 0.0
C433 C 0.1967 0.45546 0.77728 0.0
C434 C 0.15411 0.41065 0.69815 0.0
C435 C 0.19426 0.43972 0.66656 0.0
C436 C 0.23562 0.47681 0.69079 0.0
C437 C 0.23631 0.48427 0.74575 0.0
C438 C 0.10925 0.37086 0.67399 0.0
C439 C 0.27929 0.50845 0.65869 0.0
C440 C 0.20635 0.38992 0.53447 0.0
C441 C 0.19104 0.41212 0.49825 0.0
C442 C 0.20753 0.39858 0.58911 0.0
C443 C 0.19331 0.43049 0.60841 0.0
C444 C 0.1779 0.45315 0.57219 0.0
C445 C 0.17688 0.44366 0.51765 0.0
C446 C 0.22427 0.37369 0.62622 0.0
C447 C 0.16241 0.48739 0.59106 0.0
H448 H 0.12479 0.39684 0.77681 0.0
H449 H 0.26817 0.51238 0.76418 0.0
H450 H 0.0957 0.38516 0.64306 0.0
H451 H 0.11692 0.34482 0.65448 0.0
H452 H 0.08088 0.35191 0.70381 0.0
H453 H 0.30829 0.53623 0.68327 0.0
H454 H 0.29259 0.48675 0.63919 0.0
H455 H 0.27029 0.52608 0.62696 0.0
H456 H 0.21829 0.36624 0.52002 0.0
H457 H 0.16455 0.46067 0.49021 0.0
H458 H 0.19601 0.35235 0.65526 0.0
H459 H 0.25562 0.40031 0.64891 0.0
H460 H 0.23399 0.3498 0.60499 0.0
H461 H 0.13178 0.46902 0.61828 0.0
H462 H 0.15206 0.50263 0.55787 0.0
H463 H 0.19156 0.51693 0.61362 0.0
C464 C 0.77488 0.15891 0.08888 0.0
C465 C 0.79932 0.19642 0.12499 0.0
C466 C 0.77867 0.1669 0.03414 0.0
C467 C 0.80729 0.21363 1.01484 0.0
C468 C 0.83187 0.25173 0.05096 0.0
C469 C 0.82772 0.24266 0.10557 0.0
C470 C 0.75194 0.1253 0.99694 0.0
C471 C 0.86267 0.30208 0.03191 0.0
C472 C 0.85172 0.22908 0.87313 0.0
C473 C 0.82023 0.23961 0.84668 0.0
C474 C 0.84791 0.22057 0.92781 0.0
C475 C 0.81167 0.22252 0.95679 0.0
C476 C 0.77948 0.23266 0.93024 0.0
C477 C 0.78416 0.24111 0.87554 0.0
C478 C 0.88293 0.20988 0.95465 0.0
C479 C 0.74017 0.23476 0.95967 0.0
H480 H 0.75214 0.12319 0.10344 0.0
H481 H 0.84717 0.27178 0.13307 0.0
H482 H 0.727 0.13094 0.97232 0.0
H483 H 0.77712 0.12246 0.96965 0.0
H484 H 0.73147 0.09111 0.01828 0.0
H485 H 0.87892 0.32781 0.06509 0.0
H486 H 0.89146 0.30434 1.00639 0.0
H487 H 0.84129 0.3128 1.00752 0.0
H488 H 0.88006 0.22851 0.85123 0.0
H489 H 0.75938 0.24868 0.85523 0.0
H490 H 0.86378 0.17492 0.97463 0.0
H491 H 0.90279 0.23701 0.98559 0.0
H492 H 0.90881 0.20931 0.92642 0.0
H493 H 0.71693 0.20029 0.97933 0.0
H494 H 0.71801 0.24296 0.9332 0.0
H495 H 0.75547 0.26233 0.99113 0.0
C496 C 0.54656 0.76166 0.42488 0.0
C497 C 0.57472 0.74582 0.44952 0.0
C498 C 0.55013 0.77081 0.37027 0.0
C499 C 0.58267 0.76402 0.33948 0.0
C500 C 0.61135 0.74828 0.36415 0.0
C501 C 0.60709 0.73947 0.41877 0.0
C502 C 0.51892 0.78755 0.34546 0.0
C503 C 0.64665 0.74082 0.33284 0.0
C504 C 0.56398 0.74822 0.19033 0.0
C505 C 0.59632 0.7939 0.17188 0.0
C506 C 0.55922 0.73793 0.24471 0.0
C507 C 0.58738 0.77417 0.28161 0.0
C508 C 0.62036 0.82018 0.26322 0.0
C509 C 0.62454 0.82941 0.20871 0.0
C510 C 0.52376 0.68836 0.26271 0.0
C511 C 0.6512 0.85978 0.30118 0.0
H512 H 0.52106 0.7661 0.44815 0.0
H513 H 0.6295 0.72793 0.43756 0.0
H514 H 0.54121 0.8225 0.3263 0.0
H515 H 0.49648 0.76221 0.31416 0.0
H516 H 0.49544 0.79107 0.37482 0.0
H517 H 0.66584 0.72783 0.35781 0.0
H518 H 0.62817 0.71471 0.30057 0.0
H519 H 0.67306 0.77465 0.31409 0.0
H520 H 0.54164 0.72067 0.16232 0.0
H521 H 0.65024 0.86458 0.19487 0.0
H522 H 0.49702 0.68953 0.28894 0.0
H523 H 0.54198 0.67337 0.28608 0.0
H524 H 0.50501 0.66403 0.22903 0.0
H525 H 0.62862 0.86593 0.3293 0.0
H526 H 0.67493 0.89364 0.28054 0.0
H527 H 0.67337 0.84958 0.32484 0.0
C528 C 0.8255 0.62066 0.77889 0.0
C529 C 0.78946 0.59565 0.81613 0.0
C530 C 0.81606 0.615 0.72432 0.0
C531 C 0.7693 0.58383 0.70621 0.0
C532 C 0.73256 0.55899 0.74349 0.0
C533 C 0.74306 0.56513 0.79793 0.0
C534 C 0.85626 0.6423 0.686 0.0
C535 C 0.68219 0.52554 0.72585 0.0
C536 C 0.73722 0.60148 0.56657 0.0
C537 C 0.74064 0.56619 0.53797 0.0
C538 C 0.74618 0.60743 0.62125 0.0
C539 C 0.75898 0.57741 0.64823 0.0
C540 C 0.76273 0.54185 0.61961 0.0
C541 C 0.7536 0.53671 0.56488 0.0
C542 C 0.74207 0.64596 0.65013 0.0
C543 C 0.77622 0.50907 0.64686 0.0
H544 H 0.86128 0.645 0.79242 0.0
H545 H 0.71503 0.54522 0.82622 0.0
H546 H 0.86021 0.61723 0.65947 0.0
H547 H 0.84821 0.66516 0.66069 0.0
H548 H 0.89064 0.66505 0.70643 0.0
H549 H 0.65755 0.50945 0.75974 0.0
H550 H 0.66932 0.54478 0.70091 0.0
H551 H 0.68095 0.4966 0.70125 0.0
H552 H 0.7279 0.62487 0.54604 0.0
H553 H 0.75576 0.50898 0.54331 0.0
H554 H 0.77662 0.6714 0.66853 0.0
H555 H 0.71572 0.63023 0.68251 0.0
H556 H 0.73116 0.66593 0.62355 0.0
H557 H 0.81154 0.53013 0.6659 0.0
H558 H 0.77747 0.48315 0.61907 0.0
H559 H 0.75032 0.48917 0.67859 0.0
C560 C 0.15099 0.76091 0.90743 0.0
C561 C 0.1876 0.77988 0.86976 0.0
C562 C 0.16082 0.76729 0.96194 0.0
C563 C 0.20847 0.79368 0.97961 0.0
C564 C 0.24562 0.81335 0.94193 0.0
C565 C 0.23478 0.80613 0.88759 0.0
C566 C 0.12011 0.74573 1.00068 0.0
C567 C 0.2969 0.84186 0.95904 0.0
C568 C 0.23119 0.84613 0.11891 0.0
C569 C 0.23829 0.81338 0.14776 0.0
C570 C 0.22176 0.84031 0.06427 0.0
C571 C 0.21932 0.80076 0.03754 0.0
C572 C 0.2265 0.76759 0.06636 0.0
C573 C 0.23584 0.77426 0.121 0.0
C574 C 0.21413 0.87641 0.03518 0.0
C575 C 0.22433 0.72499 0.03944 0.0
H576 H 0.11437 0.74133 0.89431 0.0
H577 H 0.26344 0.82045 0.85907 0.0
H578 H 0.1242 0.72111 0.02753 0.0
H579 H 0.12042 0.77404 0.02562 0.0
H580 H 0.08508 0.72585 0.98063 0.0
H581 H 0.32162 0.85532 0.9249 0.0
H582 H 0.30242 0.87258 0.98361 0.0
H583 H 0.30618 0.81962 0.98387 0.0
H584 H 0.23235 0.87611 0.13924 0.0
H585 H 0.2419 0.7491 0.1427 0.0
H586 H 0.17812 0.85879 0.01732 0.0
H587 H 0.24003 0.89207 1.00237 0.0
H588 H 0.21793 0.90558 0.06148 0.0
H589 H 0.18893 0.70278 0.02097 0.0
H590 H 0.23095 0.70262 0.06732 0.0
H591 H 0.25103 0.73683 1.0073 0.0
C592 C 0.45312 0.19571 0.44002 0.0
C593 C 0.41586 0.20269 0.4566 0.0
C594 C 0.46075 0.19118 0.38597 0.0
C595 C 0.43029 0.19346 0.34747 0.0
C596 C 0.39193 0.19927 0.36411 0.0
C597 C 0.38522 0.20381 0.41827 0.0
C598 C 0.50211 0.18513 0.37 0.0
C599 C 0.35835 0.20151 0.32457 0.0
C600 C 0.4738 0.23138 0.20635 0.0
C601 C 0.45217 0.18778 0.17909 0.0
C602 C 0.46775 0.23361 0.26117 0.0
C603 C 0.43916 0.19123 0.28971 0.0
C604 C 0.41765 0.14705 0.26258 0.0
C605 C 0.42449 0.14585 0.20773 0.0
C606 C 0.49161 0.28145 0.28847 0.0
C607 C 0.38668 0.10107 0.29133 0.0
H608 H 0.47722 0.1952 0.46924 0.0
H609 H 0.35588 0.2084 0.43068 0.0
H610 H 0.4896 0.15297 0.34486 0.0
H611 H 0.52751 0.21602 0.34609 0.0
H612 H 0.52125 0.18197 0.40471 0.0
H613 H 0.32932 0.20453 0.34396 0.0
H614 H 0.37818 0.23257 0.29827 0.0
H615 H 0.34236 0.16925 0.29917 0.0
H616 H 0.49585 0.26391 0.18479 0.0
H617 H 0.40726 0.11204 0.18701 0.0
H618 H 0.51426 0.28163 0.32134 0.0
H619 H 0.46439 0.2884 0.30598 0.0
H620 H 0.51394 0.31089 0.26104 0.0
H621 H 0.40654 0.09727 0.32479 0.0
H622 H 0.37395 0.06955 0.265 0.0
H623 H 0.35539 0.10143 0.30825 0.0
C624 C 0.15572 0.51638 0.27796 0.0
C625 C 0.1882 0.53417 0.23612 0.0
C626 C 0.15449 0.54684 0.31655 0.0
C627 C 0.18783 0.59611 0.31435 0.0
C628 C 0.22034 0.61436 0.27165 0.0
C629 C 0.21958 0.58314 0.23243 0.0
C630 C 0.11809 0.52602 0.36019 0.0
C631 C 0.25723 0.66646 0.26865 0.0
C632 C 0.16637 0.68271 0.39465 0.0
C633 C 0.1915 0.6869 0.44122 0.0
C634 C 0.16454 0.65304 0.35313 0.0
C635 C 0.18971 0.62814 0.35777 0.0
C636 C 0.21588 0.63299 0.40452 0.0
C637 C 0.21576 0.66174 0.44614 0.0
C638 C 0.13485 0.64756 0.30489 0.0
C639 C 0.2442 0.60804 0.41047 0.0
H640 H 0.13131 0.47842 0.28061 0.0
H641 H 0.24505 0.5967 0.20036 0.0
H642 H 0.13599 0.52802 0.3982 0.0
H643 H 0.09963 0.54671 0.365 0.0
H644 H 0.09113 0.48824 0.35244 0.0
H645 H 0.27945 0.67508 0.23253 0.0
H646 H 0.23996 0.68845 0.26907 0.0
H647 H 0.28073 0.67677 0.30387 0.0
H648 H 0.14728 0.70198 0.3911 0.0
H649 H 0.2354 0.66531 0.48214 0.0
H650 H 0.10661 0.60982 0.30043 0.0
H651 H 0.15699 0.65732 0.26873 0.0
H652 H 0.11792 0.6699 0.30722 0.0
H653 H 0.22003 0.569 0.41038 0.0
H654 H 0.26529 0.61821 0.44764 0.0
H655 H 0.26872 0.61658 0.37648 0.0
C656 C 0.70581 0.22742 0.57464 0.0
C657 C 0.70046 0.18475 0.55476 0.0
C658 C 0.67427 0.22744 0.6124 0.0
C659 C 0.6361 0.18366 0.6302 0.0
C660 C 0.63131 0.14037 0.61128 0.0
C661 C 0.66362 0.14146 0.57364 0.0
C662 C 0.68075 0.27437 0.63165 0.0
C663 C 0.59116 0.093 0.62935 0.0
C664 C 0.56922 0.18769 0.75194 0.0
C665 C 0.53163 0.19062 0.72873 0.0
C666 C 0.60315 0.1844 0.72047 0.0
C667 C 0.59894 0.18349 0.66464 0.0
C668 C 0.56021 0.18493 0.64118 0.0
C669 C 0.52725 0.18868 0.67344 0.0
C670 C 0.64418 0.18324 0.74681 0.0
C671 C 0.55411 0.18366 0.58183 0.0
H672 H 0.73383 0.26092 0.55946 0.0
H673 H 0.65965 0.10842 0.55842 0.0
H674 H 0.65086 0.27864 0.6174 0.0
H675 H 0.68033 0.27529 0.6755 0.0
H676 H 0.71453 0.30505 0.61756 0.0
H677 H 0.59498 0.0628 0.61476 0.0
H678 H 0.58933 0.09169 0.67316 0.0
H679 H 0.55692 0.0883 0.6147 0.0
H680 H 0.57287 0.18923 0.79462 0.0
H681 H 0.49808 0.19038 0.65508 0.0
H682 H 0.678 0.21553 0.7361 0.0
H683 H 0.64647 0.15213 0.73257 0.0
H684 H 0.64096 0.18154 0.79059 0.0
H685 H 0.58448 0.21552 0.56401 0.0
H686 H 0.52076 0.1827 0.57 0.0
H687 H 0.55389 0.15202 0.56487 0.0
C688 C 0.32268 0.54422 0.07351 0.0
C689 C 0.31599 0.49978 0.08781 0.0
C690 C 0.3548 0.57101 0.03359 0.0
C691 C 0.38114 0.55299 1.00761 0.0
C692 C 0.37398 0.50768 0.02145 0.0
C693 C 0.34157 0.48166 0.06168 0.0
C694 C 0.36138 0.61916 0.02013 0.0
C695 C 0.40095 0.48699 0.99434 0.0
C696 C 0.44209 0.61718 0.88069 0.0
C697 C 0.48705 0.65095 0.89981 0.0
C698 C 0.40761 0.58341 0.91485 0.0
C699 C 0.41865 0.5835 0.96911 0.0
C700 C 0.46481 0.61599 0.98782 0.0
C701 C 0.4984 0.6491 0.95294 0.0
C702 C 0.3587 0.54932 0.89353 0.0
C703 C 0.47823 0.61716 0.04524 0.0
H704 H 0.30302 0.55827 0.09399 0.0
H705 H 0.33599 0.44698 0.07243 0.0
H706 H 0.39821 0.64725 0.02977 0.0
H707 H 0.35607 0.62129 0.97712 0.0
H708 H 0.33638 0.62687 0.04204 0.0
H709 H 0.38884 0.44998 1.00708 0.0
H710 H 0.39673 0.48715 0.95082 0.0
H711 H 0.43939 0.50922 1.00321 0.0
H712 H 0.43313 0.61844 0.83968 0.0
H713 H 0.5334 0.67449 0.9678 0.0
H714 H 0.33271 0.55855 0.91 0.0
H715 H 0.34728 0.51246 0.90598 0.0
H716 H 0.35724 0.55028 0.84968 0.0
H717 H 0.45402 0.62312 0.07092 0.0
H718 H 0.51523 0.64559 0.05365 0.0
H719 H 0.4744 0.58245 0.05638 0.0
C720 C 0.83028 0.34124 0.34852 0.0
C721 C 0.82401 0.3398 0.40349 0.0
C722 C 0.82769 0.37553 0.31768 0.0
C723 C 0.81885 0.40948 0.3424 0.0
C724 C 0.81402 0.40929 0.39808 0.0
C725 C 0.81672 0.37439 0.42806 0.0
C726 C 0.83338 0.37468 0.25843 0.0
C727 C 0.80491 0.44522 0.42575 0.0
C728 C 0.84952 0.5177 0.25903 0.0
C729 C 0.80529 0.50526 0.23698 0.0
C730 C 0.85416 0.48782 0.29536 0.0
C731 C 0.81362 0.4443 0.30941 0.0
C732 C 0.76857 0.43237 0.28849 0.0
C733 C 0.76495 0.46312 0.25245 0.0
C734 C 0.9027 0.50207 0.31723 0.0
C735 C 0.72452 0.38627 0.30253 0.0
H736 H 0.83674 0.31515 0.3293 0.0
H737 H 0.81181 0.37346 0.47053 0.0
H738 H 0.80046 0.36866 0.23843 0.0
H739 H 0.86271 0.40948 0.24485 0.0
H740 H 0.84097 0.34643 0.24558 0.0
H741 H 0.80407 0.4416 0.46946 0.0
H742 H 0.83278 0.48181 0.4152 0.0
H743 H 0.77045 0.44085 0.41244 0.0
H744 H 0.88069 0.55062 0.24738 0.0
H745 H 0.7308 0.45345 0.23511 0.0
H746 H 0.91447 0.47768 0.3017 0.0
H747 H 0.90135 0.49901 0.36095 0.0
H748 H 0.92964 0.53904 0.30645 0.0
H749 H 0.72763 0.35595 0.28706 0.0
H750 H 0.6918 0.38393 0.28595 0.0
H751 H 0.72077 0.38236 0.34609 0.0
C752 C 0.34089 0.81978 0.63789 0.0
C753 C 0.33652 0.81378 0.58281 0.0
C754 C 0.37867 0.82066 0.66513 0.0
C755 C 0.41324 0.81542 0.63672 0.0
C756 C 0.41023 0.81114 0.58085 0.0
C757 C 0.37179 0.81045 0.55441 0.0
C758 C 0.38063 0.82566 0.7247 0.0
C759 C 0.4467 0.80579 0.54934 0.0
C760 C 0.52241 0.851 0.72045 0.0
C761 C 0.5115 0.80725 0.74251 0.0
C762 C 0.49262 0.85387 0.68235 0.0
C763 C 0.45071 0.81201 0.66669 0.0
C764 C 0.44112 0.76743 0.6867 0.0
C765 C 0.4717 0.76561 0.72448 0.0
C766 C 0.50452 0.902 0.66144 0.0
C767 C 0.39683 0.72196 0.67109 0.0
H768 H 0.31418 0.82306 0.66016 0.0
H769 H 0.36856 0.80579 0.51185 0.0
H770 H 0.37754 0.79327 0.74299 0.0
H771 H 0.41523 0.85618 0.73716 0.0
H772 H 0.35181 0.83106 0.74056 0.0
H773 H 0.44181 0.80721 0.50604 0.0
H774 H 0.48306 0.83413 0.56025 0.0
H775 H 0.44413 0.77127 0.55874 0.0
H776 H 0.55367 0.88317 0.73392 0.0
H777 H 0.46321 0.73179 0.74171 0.0
H778 H 0.4807 0.91316 0.67994 0.0
H779 H 0.49878 0.90046 0.61807 0.0
H780 H 0.54184 0.92951 0.67024 0.0
H781 H 0.36536 0.72147 0.68877 0.0
H782 H 0.3977 0.68996 0.6847 0.0
H783 H 0.39209 0.71983 0.62754 0.0
C784 C 0.61185 0.43968 0.09811 0.0
C785 C 0.64757 0.48465 0.08153 0.0
C786 C 0.57824 0.40725 0.06188 0.0
C787 C 0.58062 0.4203 1.00806 0.0
C788 C 0.61519 0.4665 0.99184 0.0
C789 C 0.64798 0.49807 0.02875 0.0
C790 C 0.54173 0.3583 0.08062 0.0
C791 C 0.61897 0.48199 0.93492 0.0
C792 C 0.54156 0.32776 0.89909 0.0
C793 C 0.49897 0.32428 0.88242 0.0
C794 C 0.56747 0.35753 0.94135 0.0
C795 C 0.55039 0.38467 0.9674 0.0
C796 C 0.50677 0.38056 0.95132 0.0
C797 C 0.4817 0.35059 0.9086 0.0
C798 C 0.61392 0.36104 0.95697 0.0
C799 C 0.48705 0.40837 0.97852 0.0
H800 H 0.61122 0.42913 0.13884 0.0
H801 H 0.67484 0.5331 1.01573 0.0
H802 H 0.50587 0.34878 0.06605 0.0
H803 H 0.55012 0.33163 0.06428 0.0
H804 H 0.54071 0.35562 0.12444 0.0
H805 H 0.64824 0.51903 0.92877 0.0
H806 H 0.62529 0.45815 0.9089 0.0
H807 H 0.58515 0.4794 0.92214 0.0
H808 H 0.55508 0.30772 0.87838 0.0
H809 H 0.44847 0.34755 0.89586 0.0
H810 H 0.61406 0.35423 0.99989 0.0
H811 H 0.64359 0.39754 0.94937 0.0
H812 H 0.62075 0.33549 0.93481 0.0
H813 H 0.48579 0.40295 0.02191 0.0
H814 H 0.45078 0.398 0.96437 0.0
H815 H 0.5107 0.44689 0.97126 0.0
loop_
_geom_bond_atom_site_label_1
_geom_bond_atom_site_label_2
_geom_bond_distance
_geom_bond_site_symmetry_2
_ccdc_geom_bond_type
La0 C2 2.928 . S
La0 O20 2.521 . S
La0 O21 2.628 . S
La0 O22 2.554 . S
La0 O23 2.757 . S
La0 O24 2.470 . S
La0 O29 2.482 . S
La0 O31 2.503 . S
La1 C11 2.928 . S
La1 O23 2.482 . S
La1 O25 2.503 . S
La1 O26 2.521 . S
La1 O27 2.628 . S
La1 O28 2.554 . S
La1 O29 2.757 . S
La1 O30 2.470 . S
C2 La0 2.928 . S
C2 C3 1.503 1_554 S
C2 O20 1.261 . S
C2 O21 1.243 . S
C3 C2 1.503 1_556 S
C3 C4 1.394 . S
C3 C8 1.373 . S
C4 C3 1.394 . S
C4 C5 1.380 . S
C4 H32 0.930 . S
C5 C4 1.380 . S
C5 C6 1.376 . S
C5 H33 0.930 . S
C6 C5 1.376 . S
C6 C7 1.370 . S
C7 C6 1.370 . S
C7 C8 1.396 . S
C7 H34 0.929 . S
C8 C3 1.373 . S
C8 C7 1.396 . S
C8 H35 0.929 . S
C9 O22 1.240 . S
C9 O23 1.289 . S
C10 O24 1.258 . S
C10 O25 1.256 . S
C11 La1 2.928 . S
C11 C12 1.503 . S
C11 O26 1.261 . S
C11 O27 1.243 . S
C12 C11 1.503 . S
C12 C13 1.394 . S
C12 C17 1.373 . S
C13 C12 1.394 . S
C13 C14 1.380 . S
C13 H36 0.930 . S
C14 C13 1.380 . S
C14 C15 1.376 . S
C14 H37 0.930 . S
C15 C14 1.376 . S
C15 C16 1.370 . S
C16 C15 1.370 . S
C16 C17 1.396 . S
C16 H38 0.929 . S
C17 C12 1.373 . S
C17 C16 1.396 . S
C17 H39 0.929 . S
C18 O28 1.240 . S
C18 O29 1.289 . S
C19 O30 1.258 . S
C19 O31 1.256 . S
O20 La0 2.521 . S
O20 C2 1.261 . S
O21 La0 2.628 . S
O21 C2 1.243 . S
O22 La0 2.554 . S
O22 C9 1.240 . S
O23 La0 2.757 . S
O23 La1 2.482 . S
O23 C9 1.289 . S
O24 La0 2.470 . S
O24 C10 1.258 . S
O25 La1 2.503 . S
O25 C10 1.256 . S
O26 La1 2.521 . S
O26 C11 1.261 . S
O27 La1 2.628 . S
O27 C11 1.243 . S
O28 La1 2.554 . S
O28 C18 1.240 . S
O29 La0 2.482 . S
O29 La1 2.757 . S
O29 C18 1.289 . S
O30 La1 2.470 . S
O30 C19 1.258 . S
O31 La0 2.503 . S
O31 C19 1.256 . S
H32 C4 0.930 . S
H33 C5 0.930 . S
H34 C7 0.929 . S
H35 C8 0.929 . S
H36 C13 0.930 . S
H37 C14 0.930 . S
H38 C16 0.929 . S
H39 C17 0.929 . S
La40 C42 2.928 . S
La40 O60 2.521 . S
La40 O61 2.628 . S
La40 O62 2.554 . S
La40 O63 2.757 . S
La40 O64 2.470 . S
La40 O69 2.482 . S
La40 O71 2.503 . S
La41 C51 2.928 . S
La41 O63 2.482 . S
La41 O65 2.503 . S
La41 O66 2.521 . S
La41 O67 2.628 . S
La41 O68 2.554 . S
La41 O69 2.757 . S
La41 O70 2.470 . S
C42 La40 2.928 . S
C42 C43 1.503 . S
C42 O60 1.261 . S
C42 O61 1.243 . S
C43 C42 1.503 . S
C43 C44 1.394 . S
C43 C48 1.373 . S
C44 C43 1.394 . S
C44 C45 1.380 . S
C44 H72 0.930 . S
C45 C44 1.380 . S
C45 C46 1.376 . S
C45 H73 0.930 . S
C46 C45 1.376 . S
C46 C47 1.370 . S
C47 C46 1.370 . S
C47 C48 1.396 . S
C47 H74 0.929 . S
C48 C43 1.373 . S
C48 C47 1.396 . S
C48 H75 0.929 . S
C49 O62 1.240 . S
C49 O63 1.289 . S
C50 O64 1.258 . S
C50 O65 1.256 . S
C51 La41 2.928 . S
C51 C52 1.503 . S
C51 O66 1.261 . S
C51 O67 1.243 . S
C52 C51 1.503 . S
C52 C53 1.394 . S
C52 C57 1.373 . S
C53 C52 1.394 . S
C53 C54 1.380 . S
C53 H76 0.930 . S
C54 C53 1.380 . S
C54 C55 1.376 . S
C54 H77 0.930 . S
C55 C54 1.376 . S
C55 C56 1.370 . S
C56 C55 1.370 . S
C56 C57 1.396 . S
C56 H78 0.929 . S
C57 C52 1.373 . S
C57 C56 1.396 . S
C57 H79 0.929 . S
C58 O68 1.240 . S
C58 O69 1.289 . S
C59 O70 1.258 . S
C59 O71 1.256 . S
O60 La40 2.521 . S
O60 C42 1.261 . S
O61 La40 2.628 . S
O61 C42 1.243 . S
O62 La40 2.554 . S
O62 C49 1.240 . S
O63 La40 2.757 . S
O63 La41 2.482 . S
O63 C49 1.289 . S
O64 La40 2.470 . S
O64 C50 1.258 . S
O65 La41 2.503 . S
O65 C50 1.256 . S
O66 La41 2.521 . S
O66 C51 1.261 . S
O67 La41 2.628 . S
O67 C51 1.243 . S
O68 La41 2.554 . S
O68 C58 1.240 . S
O69 La40 2.482 . S
O69 La41 2.757 . S
O69 C58 1.289 . S
O70 La41 2.470 . S
O70 C59 1.258 . S
O71 La40 2.503 . S
O71 C59 1.256 . S
H72 C44 0.930 . S
H73 C45 0.930 . S
H74 C47 0.929 . S
H75 C48 0.929 . S
H76 C53 0.930 . S
H77 C54 0.930 . S
H78 C56 0.929 . S
H79 C57 0.929 . S
La80 C82 2.928 . S
La80 O100 2.521 . S
La80 O101 2.628 . S
La80 O102 2.554 . S
La80 O103 2.757 . S
La80 O104 2.470 . S
La80 O109 2.482 . S
La80 O111 2.503 . S
La81 C91 2.928 1_556 S
La81 O103 2.482 . S
La81 O105 2.503 . S
La81 O106 2.521 1_556 S
La81 O107 2.628 1_556 S
La81 O108 2.554 . S
La81 O109 2.757 . S
La81 O110 2.470 . S
C82 La80 2.928 . S
C82 C83 1.503 . S
C82 O100 1.261 . S
C82 O101 1.243 . S
C83 C82 1.503 . S
C83 C84 1.394 . S
C83 C88 1.373 . S
C84 C83 1.394 . S
C84 C85 1.380 . S
C84 H112 0.930 . S
C85 C84 1.380 . S
C85 C86 1.376 . S
C85 H113 0.930 . S
C86 C85 1.376 . S
C86 C87 1.370 . S
C87 C86 1.370 . S
C87 C88 1.396 . S
C87 H114 0.929 . S
C88 C83 1.373 . S
C88 C87 1.396 . S
C88 H115 0.929 . S
C89 O102 1.240 . S
C89 O103 1.289 . S
C90 O104 1.258 . S
C90 O105 1.256 . S
C91 La81 2.928 1_554 S
C91 C92 1.503 . S
C91 O106 1.261 . S
C91 O107 1.243 . S
C92 C91 1.503 . S
C92 C93 1.394 . S
C92 C97 1.373 . S
C93 C92 1.394 . S
C93 C94 1.380 . S
C93 H116 0.930 . S
C94 C93 1.380 . S
C94 C95 1.376 . S
C94 H117 0.930 . S
C95 C94 1.376 . S
C95 C96 1.370 . S
C96 C95 1.370 . S
C96 C97 1.396 . S
C96 H118 0.929 . S
C97 C92 1.373 . S
C97 C96 1.396 . S
C97 H119 0.929 . S
C98 O108 1.240 . S
C98 O109 1.289 . S
C99 O110 1.258 . S
C99 O111 1.256 . S
O100 La80 2.521 . S
O100 C82 1.261 . S
O101 La80 2.628 . S
O101 C82 1.243 . S
O102 La80 2.554 . S
O102 C89 1.240 . S
O103 La80 2.757 . S
O103 La81 2.482 . S
O103 C89 1.289 . S
O104 La80 2.470 . S
O104 C90 1.258 . S
O105 La81 2.503 . S
O105 C90 1.256 . S
O106 La81 2.521 1_554 S
O106 C91 1.261 . S
O107 La81 2.628 1_554 S
O107 C91 1.243 . S
O108 La81 2.554 . S
O108 C98 1.240 . S
O109 La80 2.482 . S
O109 La81 2.757 . S
O109 C98 1.289 . S
O110 La81 2.470 . S
O110 C99 1.258 . S
O111 La80 2.503 . S
O111 C99 1.256 . S
H112 C84 0.930 . S
H113 C85 0.930 . S
H114 C87 0.929 . S
H115 C88 0.929 . S
H116 C93 0.930 . S
H117 C94 0.930 . S
H118 C96 0.929 . S
H119 C97 0.929 . S
La120 C122 2.928 . S
La120 O140 2.521 . S
La120 O141 2.628 . S
La120 O142 2.554 . S
La120 O143 2.757 . S
La120 O144 2.470 . S
La120 O149 2.482 . S
La120 O151 2.503 . S
La121 C131 2.928 1_554 S
La121 O143 2.482 . S
La121 O145 2.503 . S
La121 O146 2.521 1_554 S
La121 O147 2.628 1_554 S
La121 O148 2.554 . S
La121 O149 2.757 . S
La121 O150 2.470 1_554 S
C122 La120 2.928 . S
C122 C123 1.503 . S
C122 O140 1.261 . S
C122 O141 1.243 . S
C123 C122 1.503 . S
C123 C124 1.394 . S
C123 C128 1.373 . S
C124 C123 1.394 . S
C124 C125 1.380 . S
C124 H152 0.930 . S
C125 C124 1.380 . S
C125 C126 1.376 . S
C125 H153 0.930 . S
C126 C125 1.376 . S
C126 C127 1.370 . S
C127 C126 1.370 . S
C127 C128 1.396 . S
C127 H154 0.929 . S
C128 C123 1.373 . S
C128 C127 1.396 . S
C128 H155 0.929 . S
C129 O142 1.240 . S
C129 O143 1.289 . S
C130 O144 1.258 . S
C130 O145 1.256 . S
C131 La121 2.928 1_556 S
C131 C132 1.503 . S
C131 O146 1.261 . S
C131 O147 1.243 . S
C132 C131 1.503 . S
C132 C133 1.394 . S
C132 C137 1.373 . S
C133 C132 1.394 . S
C133 C134 1.380 . S
C133 H156 0.930 . S
C134 C133 1.380 . S
C134 C135 1.376 . S
C134 H157 0.930 . S
C135 C134 1.376 . S
C135 C136 1.370 . S
C136 C135 1.370 . S
C136 C137 1.396 . S
C136 H158 0.929 . S
C137 C132 1.373 . S
C137 C136 1.396 . S
C137 H159 0.929 . S
C138 O148 1.240 . S
C138 O149 1.289 . S
C139 O150 1.258 . S
C139 O151 1.256 1_556 S
O140 La120 2.521 . S
O140 C122 1.261 . S
O141 La120 2.628 . S
O141 C122 1.243 . S
O142 La120 2.554 . S
O142 C129 1.240 . S
O143 La120 2.757 . S
O143 La121 2.482 . S
O143 C129 1.289 . S
O144 La120 2.470 . S
O144 C130 1.258 . S
O145 La121 2.503 . S
O145 C130 1.256 . S
O146 La121 2.521 1_556 S
O146 C131 1.261 . S
O147 La121 2.628 1_556 S
O147 C131 1.243 . S
O148 La121 2.554 . S
O148 C138 1.240 . S
O149 La120 2.482 . S
O149 La121 2.757 . S
O149 C138 1.289 . S
O150 La121 2.470 1_556 S
O150 C139 1.258 . S
O151 La120 2.503 . S
O151 C139 1.256 1_554 S
H152 C124 0.930 . S
H153 C125 0.930 . S
H154 C127 0.929 . S
H155 C128 0.929 . S
H156 C133 0.930 . S
H157 C134 0.930 . S
H158 C136 0.929 . S
H159 C137 0.929 . S
La160 C162 2.928 . S
La160 O180 2.521 . S
La160 O181 2.628 . S
La160 O182 2.554 . S
La160 O183 2.757 . S
La160 O184 2.470 . S
La160 O189 2.482 . S
La160 O191 2.503 . S
La161 C171 2.928 . S
La161 O183 2.482 . S
La161 O185 2.503 . S
La161 O186 2.521 . S
La161 O187 2.628 . S
La161 O188 2.554 . S
La161 O189 2.757 . S
La161 O190 2.470 . S
C162 La160 2.928 . S
C162 C163 1.503 . S
C162 O180 1.261 . S
C162 O181 1.243 . S
C163 C162 1.503 . S
C163 C164 1.394 . S
C163 C168 1.373 . S
C164 C163 1.394 . S
C164 C165 1.380 . S
C164 H192 0.930 . S
C165 C164 1.380 . S
C165 C166 1.376 . S
C165 H193 0.930 . S
C166 C165 1.376 . S
C166 C167 1.370 . S
C167 C166 1.370 . S
C167 C168 1.396 . S
C167 H194 0.929 . S
C168 C163 1.373 . S
C168 C167 1.396 . S
C168 H195 0.929 . S
C169 O182 1.240 . S
C169 O183 1.289 . S
C170 O184 1.258 . S
C170 O185 1.256 . S
C171 La161 2.928 . S
C171 C172 1.503 . S
C171 O186 1.261 . S
C171 O187 1.243 . S
C172 C171 1.503 . S
C172 C173 1.394 . S
C172 C177 1.373 . S
C173 C172 1.394 . S
C173 C174 1.380 . S
C173 H196 0.930 . S
C174 C173 1.380 . S
C174 C175 1.376 . S
C174 H197 0.930 . S
C175 C174 1.376 . S
C175 C176 1.370 . S
C176 C175 1.370 . S
C176 C177 1.396 . S
C176 H198 0.929 . S
C177 C172 1.373 . S
C177 C176 1.396 . S
C177 H199 0.929 . S
C178 O188 1.240 . S
C178 O189 1.289 . S
C179 O190 1.258 . S
C179 O191 1.256 . S
O180 La160 2.521 . S
O180 C162 1.261 . S
O181 La160 2.628 . S
O181 C162 1.243 . S
O182 La160 2.554 . S
O182 C169 1.240 . S
O183 La160 2.757 . S
O183 La161 2.482 . S
O183 C169 1.289 . S
O184 La160 2.470 . S
O184 C170 1.258 . S
O185 La161 2.503 . S
O185 C170 1.256 . S
O186 La161 2.521 . S
O186 C171 1.261 . S
O187 La161 2.628 . S
O187 C171 1.243 . S
O188 La161 2.554 . S
O188 C178 1.240 . S
O189 La160 2.482 . S
O189 La161 2.757 . S
O189 C178 1.289 . S
O190 La161 2.470 . S
O190 C179 1.258 . S
O191 La160 2.503 . S
O191 C179 1.256 . S
H192 C164 0.930 . S
H193 C165 0.930 . S
H194 C167 0.929 . S
H195 C168 0.929 . S
H196 C173 0.930 . S
H197 C174 0.930 . S
H198 C176 0.929 . S
H199 C177 0.929 . S
La200 C202 2.928 . S
La200 O220 2.521 . S
La200 O221 2.628 . S
La200 O222 2.554 . S
La200 O223 2.757 . S
La200 O224 2.470 . S
La200 O229 2.482 . S
La200 O231 2.503 . S
La201 C211 2.928 . S
La201 O223 2.482 . S
La201 O225 2.503 . S
La201 O226 2.521 . S
La201 O227 2.628 . S
La201 O228 2.554 . S
La201 O229 2.757 . S
La201 O230 2.470 . S
C202 La200 2.928 . S
C202 C203 1.503 . S
C202 O220 1.261 . S
C202 O221 1.243 . S
C203 C202 1.503 . S
C203 C204 1.394 . S
C203 C208 1.373 . S
C204 C203 1.394 . S
C204 C205 1.380 1_556 S
C204 H232 0.930 . S
C205 C204 1.380 1_554 S
C205 C206 1.376 . S
C205 H233 0.930 . S
C206 C205 1.376 . S
C206 C207 1.370 . S
C207 C206 1.370 . S
C207 C208 1.396 1_554 S
C207 H234 0.929 . S
C208 C203 1.373 . S
C208 C207 1.396 1_556 S
C208 H235 0.929 . S
C209 O222 1.240 . S
C209 O223 1.289 . S
C210 O224 1.258 . S
C210 O225 1.256 . S
C211 La201 2.928 . S
C211 C212 1.503 . S
C211 O226 1.261 . S
C211 O227 1.243 . S
C212 C211 1.503 . S
C212 C213 1.394 . S
C212 C217 1.373 . S
C213 C212 1.394 . S
C213 C214 1.380 . S
C213 H236 0.930 . S
C214 C213 1.380 . S
C214 C215 1.376 . S
C214 H237 0.930 . S
C215 C214 1.376 . S
C215 C216 1.370 . S
C216 C215 1.370 . S
C216 C217 1.396 . S
C216 H238 0.929 . S
C217 C212 1.373 . S
C217 C216 1.396 . S
C217 H239 0.929 . S
C218 O228 1.240 . S
C218 O229 1.289 . S
C219 O230 1.258 . S
C219 O231 1.256 . S
O220 La200 2.521 . S
O220 C202 1.261 . S
O221 La200 2.628 . S
O221 C202 1.243 . S
O222 La200 2.554 . S
O222 C209 1.240 . S
O223 La200 2.757 . S
O223 La201 2.482 . S
O223 C209 1.289 . S
O224 La200 2.470 . S
O224 C210 1.258 . S
O225 La201 2.503 . S
O225 C210 1.256 . S
O226 La201 2.521 . S
O226 C211 1.261 . S
O227 La201 2.628 . S
O227 C211 1.243 . S
O228 La201 2.554 . S
O228 C218 1.240 . S
O229 La200 2.482 . S
O229 La201 2.757 . S
O229 C218 1.289 . S
O230 La201 2.470 . S
O230 C219 1.258 . S
O231 La200 2.503 . S
O231 C219 1.256 . S
H232 C204 0.930 . S
H233 C205 0.930 . S
H234 C207 0.929 . S
H235 C208 0.929 . S
H236 C213 0.930 . S
H237 C214 0.930 . S
H238 C216 0.929 . S
H239 C217 0.929 . S
C240 C241 1.391 . S
C240 C242 1.394 . S
C240 H256 0.931 . S
C241 C240 1.391 . S
C241 C245 1.376 . S
C242 C240 1.394 . S
C242 C243 1.369 . S
C242 C246 1.531 . S
C243 C242 1.369 . S
C243 C244 1.410 . S
C243 C251 1.503 . S
C244 C243 1.410 . S
C244 C245 1.392 . S
C244 C247 1.511 . S
C245 C241 1.376 . S
C245 C244 1.392 . S
C245 H257 0.929 . S
C246 C242 1.531 . S
C246 H258 0.960 . S
C246 H259 0.962 . S
C246 H260 0.960 . S
C247 C244 1.511 . S
C247 H261 0.961 . S
C247 H262 0.961 . S
C247 H263 0.961 . S
C248 C249 1.370 . S
C248 C250 1.363 . S
C248 H264 0.931 . S
C249 C248 1.370 . S
C249 C253 1.408 . S
C250 C248 1.363 . S
C250 C251 1.370 1_554 S
C250 C254 1.524 . S
C251 C243 1.503 . S
C251 C250 1.370 1_556 S
C251 C252 1.403 1_556 S
C252 C251 1.403 1_554 S
C252 C253 1.404 . S
C252 C255 1.539 1_554 S
C253 C249 1.408 . S
C253 C252 1.404 . S
C253 H265 0.930 . S
C254 C250 1.524 . S
C254 H266 0.956 . S
C254 H267 0.961 1_554 S
C254 H268 0.961 . S
C255 C252 1.539 1_556 S
C255 H269 0.958 . S
C255 H270 0.961 . S
C255 H271 0.960 . S
H256 C240 0.931 . S
H257 C245 0.929 . S
H258 C246 0.960 . S
H259 C246 0.962 . S
H260 C246 0.960 . S
H261 C247 0.961 . S
H262 C247 0.961 . S
H263 C247 0.961 . S
H264 C248 0.931 . S
H265 C253 0.930 . S
H266 C254 0.956 . S
H267 C254 0.961 1_556 S
H268 C254 0.961 . S
H269 C255 0.958 . S
H270 C255 0.961 . S
H271 C255 0.960 . S
C272 C273 1.391 . S
C272 C274 1.394 . S
C272 H288 0.931 . S
C273 C272 1.391 . S
C273 C277 1.376 . S
C274 C272 1.394 . S
C274 C275 1.369 . S
C274 C278 1.531 . S
C275 C274 1.369 . S
C275 C276 1.410 . S
C275 C283 1.503 1_455 S
C276 C275 1.410 . S
C276 C277 1.392 . S
C276 C279 1.511 . S
C277 C273 1.376 . S
C277 C276 1.392 . S
C277 H289 0.929 . S
C278 C274 1.531 . S
C278 H290 0.960 . S
C278 H291 0.962 . S
C278 H292 0.960 . S
C279 C276 1.511 . S
C279 H293 0.961 . S
C279 H294 0.961 1_455 S
C279 H295 0.961 1_455 S
C280 C281 1.370 . S
C280 C282 1.363 . S
C280 H296 0.931 . S
C281 C280 1.370 . S
C281 C285 1.408 . S
C282 C280 1.363 . S
C282 C283 1.370 . S
C282 C286 1.524 1_655 S
C283 C275 1.503 1_655 S
C283 C282 1.370 . S
C283 C284 1.403 . S
C284 C283 1.403 . S
C284 C285 1.404 . S
C284 C287 1.539 . S
C285 C281 1.408 . S
C285 C284 1.404 . S
C285 H297 0.930 . S
C286 C282 1.524 1_455 S
C286 H298 0.956 . S
C286 H299 0.961 . S
C286 H300 0.961 1_455 S
C287 C284 1.539 . S
C287 H301 0.958 . S
C287 H302 0.961 . S
C287 H303 0.960 . S
H288 C272 0.931 . S
H289 C277 0.929 . S
H290 C278 0.960 . S
H291 C278 0.962 . S
H292 C278 0.960 . S
H293 C279 0.961 . S
H294 C279 0.961 1_655 S
H295 C279 0.961 1_655 S
H296 C280 0.931 . S
H297 C285 0.930 . S
H298 C286 0.956 . S
H299 C286 0.961 . S
H300 C286 0.961 1_655 S
H301 C287 0.958 . S
H302 C287 0.961 . S
H303 C287 0.960 . S
C304 C305 1.391 . S
C304 C306 1.394 . S
C304 H320 0.931 . S
C305 C304 1.391 . S
C305 C309 1.376 . S
C306 C304 1.394 . S
C306 C307 1.369 . S
C306 C310 1.531 . S
C307 C306 1.369 . S
C307 C308 1.410 . S
C307 C315 1.503 1_545 S
C308 C307 1.410 . S
C308 C309 1.392 . S
C308 C311 1.511 1_545 S
C309 C305 1.376 . S
C309 C308 1.392 . S
C309 H321 0.929 . S
C310 C306 1.531 . S
C310 H322 0.960 . S
C310 H323 0.962 . S
C310 H324 0.960 . S
C311 C308 1.511 1_565 S
C311 H325 0.961 . S
C311 H326 0.961 . S
C311 H327 0.961 1_565 S
C312 C313 1.370 . S
C312 C314 1.363 . S
C312 H328 0.931 . S
C313 C312 1.370 . S
C313 C317 1.408 . S
C314 C312 1.363 . S
C314 C315 1.370 . S
C314 C318 1.524 . S
C315 C307 1.503 1_565 S
C315 C314 1.370 . S
C315 C316 1.403 1_565 S
C316 C315 1.403 1_545 S
C316 C317 1.404 1_545 S
C316 C319 1.539 . S
C317 C313 1.408 . S
C317 C316 1.404 1_565 S
C317 H329 0.930 1_565 S
C318 C314 1.524 . S
C318 H330 0.956 . S
C318 H331 0.961 . S
C318 H332 0.961 . S
C319 C316 1.539 . S
C319 H333 0.958 . S
C319 H334 0.961 . S
C319 H335 0.960 . S
H320 C304 0.931 . S
H321 C309 0.929 . S
H322 C310 0.960 . S
H323 C310 0.962 . S
H324 C310 0.960 . S
H325 C311 0.961 . S
H326 C311 0.961 . S
H327 C311 0.961 1_545 S
H328 C312 0.931 . S
H329 C317 0.930 1_545 S
H330 C318 0.956 . S
H331 C318 0.961 . S
H332 C318 0.961 . S
H333 C319 0.958 . S
H334 C319 0.961 . S
H335 C319 0.960 . S
C336 C337 1.391 . S
C336 C338 1.394 . S
C336 H352 0.931 . S
C337 C336 1.391 . S
C337 C341 1.376 . S
C338 C336 1.394 . S
C338 C339 1.369 . S
C338 C342 1.531 . S
C339 C338 1.369 . S
C339 C340 1.410 . S
C339 C347 1.503 . S
C340 C339 1.410 . S
C340 C341 1.392 . S
C340 C343 1.511 1_556 S
C341 C337 1.376 . S
C341 C340 1.392 . S
C341 H353 0.929 . S
C342 C338 1.531 . S
C342 H354 0.960 . S
C342 H355 0.962 . S
C342 H356 0.960 . S
C343 C340 1.511 1_554 S
C343 H357 0.961 . S
C343 H358 0.961 . S
C343 H359 0.961 . S
C344 C345 1.370 . S
C344 C346 1.363 . S
C344 H360 0.931 . S
C345 C344 1.370 . S
C345 C349 1.408 1_554 S
C346 C344 1.363 . S
C346 C347 1.370 1_554 S
C346 C350 1.524 . S
C347 C339 1.503 . S
C347 C346 1.370 1_556 S
C347 C348 1.403 . S
C348 C347 1.403 . S
C348 C349 1.404 . S
C348 C351 1.539 . S
C349 C345 1.408 1_556 S
C349 C348 1.404 . S
C349 H361 0.930 . S
C350 C346 1.524 . S
C350 H362 0.956 1_554 S
C350 H363 0.961 . S
C350 H364 0.961 . S
C351 C348 1.539 . S
C351 H365 0.958 . S
C351 H366 0.961 . S
C351 H367 0.960 . S
H352 C336 0.931 . S
H353 C341 0.929 . S
H354 C342 0.960 . S
H355 C342 0.962 . S
H356 C342 0.960 . S
H357 C343 0.961 . S
H358 C343 0.961 . S
H359 C343 0.961 . S
H360 C344 0.931 . S
H361 C349 0.930 . S
H362 C350 0.956 1_556 S
H363 C350 0.961 . S
H364 C350 0.961 . S
H365 C351 0.958 . S
H366 C351 0.961 . S
H367 C351 0.960 . S
C368 C369 1.391 . S
C368 C370 1.394 . S
C368 H384 0.931 . S
C369 C368 1.391 . S
C369 C373 1.376 . S
C370 C368 1.394 . S
C370 C371 1.369 . S
C370 C374 1.531 . S
C371 C370 1.369 . S
C371 C372 1.410 1_455 S
C371 C379 1.503 1_455 S
C372 C371 1.410 1_655 S
C372 C373 1.392 1_655 S
C372 C375 1.511 . S
C373 C369 1.376 . S
C373 C372 1.392 1_455 S
C373 H385 0.929 1_455 S
C374 C370 1.531 . S
C374 H386 0.960 . S
C374 H387 0.962 . S
C374 H388 0.960 . S
C375 C372 1.511 . S
C375 H389 0.961 . S
C375 H390 0.961 . S
C375 H391 0.961 . S
C376 C377 1.370 . S
C376 C378 1.363 . S
C376 H392 0.931 . S
C377 C376 1.370 . S
C377 C381 1.408 . S
C378 C376 1.363 . S
C378 C379 1.370 . S
C378 C382 1.524 . S
C379 C371 1.503 1_655 S
C379 C378 1.370 . S
C379 C380 1.403 1_655 S
C380 C379 1.403 1_455 S
C380 C381 1.404 1_455 S
C380 C383 1.539 . S
C381 C377 1.408 . S
C381 C380 1.404 1_655 S
C381 H393 0.930 . S
C382 C378 1.524 . S
C382 H394 0.956 . S
C382 H395 0.961 . S
C382 H396 0.961 . S
C383 C380 1.539 . S
C383 H397 0.958 . S
C383 H398 0.961 . S
C383 H399 0.960 . S
H384 C368 0.931 . S
H385 C373 0.929 1_655 S
H386 C374 0.960 . S
H387 C374 0.962 . S
H388 C374 0.960 . S
H389 C375 0.961 . S
H390 C375 0.961 . S
H391 C375 0.961 . S
H392 C376 0.931 . S
H393 C381 0.930 . S
H394 C382 0.956 . S
H395 C382 0.961 . S
H396 C382 0.961 . S
H397 C383 0.958 . S
H398 C383 0.961 . S
H399 C383 0.960 . S
C400 C401 1.391 . S
C400 C402 1.394 . S
C400 H416 0.931 . S
C401 C400 1.391 . S
C401 C405 1.376 . S
C402 C400 1.394 . S
C402 C403 1.369 . S
C402 C406 1.531 . S
C403 C402 1.369 . S
C403 C404 1.410 . S
C403 C411 1.503 1_545 S
C404 C403 1.410 . S
C404 C405 1.392 . S
C404 C407 1.511 . S
C405 C401 1.376 . S
C405 C404 1.392 . S
C405 H417 0.929 . S
C406 C402 1.531 . S
C406 H418 0.960 . S
C406 H419 0.962 . S
C406 H420 0.960 . S
C407 C404 1.511 . S
C407 H421 0.961 . S
C407 H422 0.961 1_545 S
C407 H423 0.961 . S
C408 C409 1.370 . S
C408 C410 1.363 . S
C408 H424 0.931 . S
C409 C408 1.370 . S
C409 C413 1.408 . S
C410 C408 1.363 . S
C410 C411 1.370 . S
C410 C414 1.524 . S
C411 C403 1.503 1_565 S
C411 C410 1.370 . S
C411 C412 1.403 . S
C412 C411 1.403 . S
C412 C413 1.404 . S
C412 C415 1.539 . S
C413 C409 1.408 . S
C413 C412 1.404 . S
C413 H425 0.930 . S
C414 C410 1.524 . S
C414 H426 0.956 . S
C414 H427 0.961 . S
C414 H428 0.961 . S
C415 C412 1.539 . S
C415 H429 0.958 1_565 S
C415 H430 0.961 . S
C415 H431 0.960 1_565 S
H416 C400 0.931 . S
H417 C405 0.929 . S
H418 C406 0.960 . S
H419 C406 0.962 . S
H420 C406 0.960 . S
H421 C407 0.961 . S
H422 C407 0.961 1_565 S
H423 C407 0.961 . S
H424 C408 0.931 . S
H425 C413 0.930 . S
H426 C414 0.956 . S
H427 C414 0.961 . S
H428 C414 0.961 . S
H429 C415 0.958 1_545 S
H430 C415 0.961 . S
H431 C415 0.960 1_545 S
C432 C433 1.391 . S
C432 C434 1.394 . S
C432 H448 0.931 . S
C433 C432 1.391 . S
C433 C437 1.376 . S
C434 C432 1.394 . S
C434 C435 1.369 . S
C434 C438 1.531 . S
C435 C434 1.369 . S
C435 C436 1.410 . S
C435 C443 1.503 . S
C436 C435 1.410 . S
C436 C437 1.392 . S
C436 C439 1.511 . S
C437 C433 1.376 . S
C437 C436 1.392 . S
C437 H449 0.929 . S
C438 C434 1.531 . S
C438 H450 0.960 . S
C438 H451 0.962 . S
C438 H452 0.960 . S
C439 C436 1.511 . S
C439 H453 0.961 . S
C439 H454 0.961 . S
C439 H455 0.961 . S
C440 C441 1.370 . S
C440 C442 1.363 . S
C440 H456 0.931 . S
C441 C440 1.370 . S
C441 C445 1.408 . S
C442 C440 1.363 . S
C442 C443 1.370 . S
C442 C446 1.524 . S
C443 C435 1.503 . S
C443 C442 1.370 . S
C443 C444 1.403 . S
C444 C443 1.403 . S
C444 C445 1.404 . S
C444 C447 1.539 . S
C445 C441 1.408 . S
C445 C444 1.404 . S
C445 H457 0.930 . S
C446 C442 1.524 . S
C446 H458 0.956 . S
C446 H459 0.961 . S
C446 H460 0.961 . S
C447 C444 1.539 . S
C447 H461 0.958 . S
C447 H462 0.961 . S
C447 H463 0.960 . S
H448 C432 0.931 . S
H449 C437 0.929 . S
H450 C438 0.960 . S
H451 C438 0.962 . S
H452 C438 0.960 . S
H453 C439 0.961 . S
H454 C439 0.961 . S
H455 C439 0.961 . S
H456 C440 0.931 . S
H457 C445 0.930 . S
H458 C446 0.956 . S
H459 C446 0.961 . S
H460 C446 0.961 . S
H461 C447 0.958 . S
H462 C447 0.961 . S
H463 C447 0.960 . S
C464 C465 1.391 1_556 S
C464 C466 1.394 . S
C464 H480 0.931 1_556 S
C465 C464 1.391 1_554 S
C465 C469 1.376 1_554 S
C466 C464 1.394 . S
C466 C467 1.369 . S
C466 C470 1.531 . S
C467 C466 1.369 . S
C467 C468 1.410 . S
C467 C475 1.503 . S
C468 C467 1.410 . S
C468 C469 1.392 . S
C468 C471 1.511 . S
C469 C465 1.376 1_556 S
C469 C468 1.392 . S
C469 H481 0.929 . S
C470 C466 1.531 . S
C470 H482 0.960 . S
C470 H483 0.962 . S
C470 H484 0.960 . S
C471 C468 1.511 . S
C471 H485 0.961 . S
C471 H486 0.961 . S
C471 H487 0.961 . S
C472 C473 1.370 . S
C472 C474 1.363 . S
C472 H488 0.931 . S
C473 C472 1.370 . S
C473 C477 1.408 . S
C474 C472 1.363 . S
C474 C475 1.370 . S
C474 C478 1.524 . S
C475 C467 1.503 . S
C475 C474 1.370 . S
C475 C476 1.403 . S
C476 C475 1.403 . S
C476 C477 1.404 . S
C476 C479 1.539 . S
C477 C473 1.408 . S
C477 C476 1.404 . S
C477 H489 0.930 . S
C478 C474 1.524 . S
C478 H490 0.956 . S
C478 H491 0.961 . S
C478 H492 0.961 . S
C479 C476 1.539 . S
C479 H493 0.958 . S
C479 H494 0.961 . S
C479 H495 0.960 . S
H480 C464 0.931 1_554 S
H481 C469 0.929 . S
H482 C470 0.960 . S
H483 C470 0.962 . S
H484 C470 0.960 . S
H485 C471 0.961 . S
H486 C471 0.961 . S
H487 C471 0.961 . S
H488 C472 0.931 . S
H489 C477 0.930 . S
H490 C478 0.956 . S
H491 C478 0.961 . S
H492 C478 0.961 . S
H493 C479 0.958 . S
H494 C479 0.961 . S
H495 C479 0.960 . S
C496 C497 1.391 . S
C496 C498 1.394 . S
C496 H512 0.931 . S
C497 C496 1.391 . S
C497 C501 1.376 . S
C498 C496 1.394 . S
C498 C499 1.369 . S
C498 C502 1.531 . S
C499 C498 1.369 . S
C499 C500 1.410 . S
C499 C507 1.503 . S
C500 C499 1.410 . S
C500 C501 1.392 . S
C500 C503 1.511 . S
C501 C497 1.376 . S
C501 C500 1.392 . S
C501 H513 0.929 . S
C502 C498 1.531 . S
C502 H514 0.960 . S
C502 H515 0.962 . S
C502 H516 0.960 . S
C503 C500 1.511 . S
C503 H517 0.961 . S
C503 H518 0.961 . S
C503 H519 0.961 . S
C504 C505 1.370 . S
C504 C506 1.363 . S
C504 H520 0.931 . S
C505 C504 1.370 . S
C505 C509 1.408 . S
C506 C504 1.363 . S
C506 C507 1.370 . S
C506 C510 1.524 . S
C507 C499 1.503 . S
C507 C506 1.370 . S
C507 C508 1.403 . S
C508 C507 1.403 . S
C508 C509 1.404 . S
C508 C511 1.539 . S
C509 C505 1.408 . S
C509 C508 1.404 . S
C509 H521 0.930 . S
C510 C506 1.524 . S
C510 H522 0.956 . S
C510 H523 0.961 . S
C510 H524 0.961 . S
C511 C508 1.539 . S
C511 H525 0.958 . S
C511 H526 0.961 . S
C511 H527 0.960 . S
H512 C496 0.931 . S
H513 C501 0.929 . S
H514 C502 0.960 . S
H515 C502 0.962 . S
H516 C502 0.960 . S
H517 C503 0.961 . S
H518 C503 0.961 . S
H519 C503 0.961 . S
H520 C504 0.931 . S
H521 C509 0.930 . S
H522 C510 0.956 . S
H523 C510 0.961 . S
H524 C510 0.961 . S
H525 C511 0.958 . S
H526 C511 0.961 . S
H527 C511 0.960 . S
C528 C529 1.391 . S
C528 C530 1.394 . S
C528 H544 0.931 . S
C529 C528 1.391 . S
C529 C533 1.376 . S
C530 C528 1.394 . S
C530 C531 1.369 . S
C530 C534 1.531 . S
C531 C530 1.369 . S
C531 C532 1.410 . S
C531 C539 1.503 . S
C532 C531 1.410 . S
C532 C533 1.392 . S
C532 C535 1.511 . S
C533 C529 1.376 . S
C533 C532 1.392 . S
C533 H545 0.929 . S
C534 C530 1.531 . S
C534 H546 0.960 . S
C534 H547 0.962 . S
C534 H548 0.960 . S
C535 C532 1.511 . S
C535 H549 0.961 . S
C535 H550 0.961 . S
C535 H551 0.961 . S
C536 C537 1.370 . S
C536 C538 1.363 . S
C536 H552 0.931 . S
C537 C536 1.370 . S
C537 C541 1.408 . S
C538 C536 1.363 . S
C538 C539 1.370 . S
C538 C542 1.524 . S
C539 C531 1.503 . S
C539 C538 1.370 . S
C539 C540 1.403 . S
C540 C539 1.403 . S
C540 C541 1.404 . S
C540 C543 1.539 . S
C541 C537 1.408 . S
C541 C540 1.404 . S
C541 H553 0.930 . S
C542 C538 1.524 . S
C542 H554 0.956 . S
C542 H555 0.961 . S
C542 H556 0.961 . S
C543 C540 1.539 . S
C543 H557 0.958 . S
C543 H558 0.961 . S
C543 H559 0.960 . S
H544 C528 0.931 . S
H545 C533 0.929 . S
H546 C534 0.960 . S
H547 C534 0.962 . S
H548 C534 0.960 . S
H549 C535 0.961 . S
H550 C535 0.961 . S
H551 C535 0.961 . S
H552 C536 0.931 . S
H553 C541 0.930 . S
H554 C542 0.956 . S
H555 C542 0.961 . S
H556 C542 0.961 . S
H557 C543 0.958 . S
H558 C543 0.961 . S
H559 C543 0.960 . S
C560 C561 1.391 . S
C560 C562 1.394 1_556 S
C560 H576 0.931 . S
C561 C560 1.391 . S
C561 C565 1.376 . S
C562 C560 1.394 1_554 S
C562 C563 1.369 . S
C562 C566 1.531 . S
C563 C562 1.369 . S
C563 C564 1.410 1_554 S
C563 C571 1.503 . S
C564 C563 1.410 1_556 S
C564 C565 1.392 . S
C564 C567 1.511 . S
C565 C561 1.376 . S
C565 C564 1.392 . S
C565 H577 0.929 . S
C566 C562 1.531 . S
C566 H578 0.960 . S
C566 H579 0.962 . S
C566 H580 0.960 . S
C567 C564 1.511 . S
C567 H581 0.961 . S
C567 H582 0.961 1_556 S
C567 H583 0.961 . S
C568 C569 1.370 . S
C568 C570 1.363 . S
C568 H584 0.931 . S
C569 C568 1.370 . S
C569 C573 1.408 . S
C570 C568 1.363 . S
C570 C571 1.370 . S
C570 C574 1.524 . S
C571 C563 1.503 . S
C571 C570 1.370 . S
C571 C572 1.403 . S
C572 C571 1.403 . S
C572 C573 1.404 . S
C572 C575 1.539 . S
C573 C569 1.408 . S
C573 C572 1.404 . S
C573 H585 0.930 . S
C574 C570 1.524 . S
C574 H586 0.956 . S
C574 H587 0.961 . S
C574 H588 0.961 . S
C575 C572 1.539 . S
C575 H589 0.958 . S
C575 H590 0.961 . S
C575 H591 0.960 . S
H576 C560 0.931 . S
H577 C565 0.929 . S
H578 C566 0.960 . S
H579 C566 0.962 . S
H580 C566 0.960 . S
H581 C567 0.961 . S
H582 C567 0.961 1_554 S
H583 C567 0.961 . S
H584 C568 0.931 . S
H585 C573 0.930 . S
H586 C574 0.956 . S
H587 C574 0.961 . S
H588 C574 0.961 . S
H589 C575 0.958 . S
H590 C575 0.961 . S
H591 C575 0.960 . S
C592 C593 1.391 . S
C592 C594 1.394 . S
C592 H608 0.931 . S
C593 C592 1.391 . S
C593 C597 1.376 . S
C594 C592 1.394 . S
C594 C595 1.369 . S
C594 C598 1.531 . S
C595 C594 1.369 . S
C595 C596 1.410 . S
C595 C603 1.503 . S
C596 C595 1.410 . S
C596 C597 1.392 . S
C596 C599 1.511 . S
C597 C593 1.376 . S
C597 C596 1.392 . S
C597 H609 0.929 . S
C598 C594 1.531 . S
C598 H610 0.960 . S
C598 H611 0.962 . S
C598 H612 0.960 . S
C599 C596 1.511 . S
C599 H613 0.961 . S
C599 H614 0.961 . S
C599 H615 0.961 . S
C600 C601 1.370 . S
C600 C602 1.363 . S
C600 H616 0.931 . S
C601 C600 1.370 . S
C601 C605 1.408 . S
C602 C600 1.363 . S
C602 C603 1.370 . S
C602 C606 1.524 . S
C603 C595 1.503 . S
C603 C602 1.370 . S
C603 C604 1.403 . S
C604 C603 1.403 . S
C604 C605 1.404 . S
C604 C607 1.539 . S
C605 C601 1.408 . S
C605 C604 1.404 . S
C605 H617 0.930 . S
C606 C602 1.524 . S
C606 H618 0.956 . S
C606 H619 0.961 . S
C606 H620 0.961 . S
C607 C604 1.539 . S
C607 H621 0.958 . S
C607 H622 0.961 . S
C607 H623 0.960 . S
H608 C592 0.931 . S
H609 C597 0.929 . S
H610 C598 0.960 . S
H611 C598 0.962 . S
H612 C598 0.960 . S
H613 C599 0.961 . S
H614 C599 0.961 . S
H615 C599 0.961 . S
H616 C600 0.931 . S
H617 C605 0.930 . S
H618 C606 0.956 . S
H619 C606 0.961 . S
H620 C606 0.961 . S
H621 C607 0.958 . S
H622 C607 0.961 . S
H623 C607 0.960 . S
C624 C625 1.391 . S
C624 C626 1.394 . S
C624 H640 0.931 . S
C625 C624 1.391 . S
C625 C629 1.376 . S
C626 C624 1.394 . S
C626 C627 1.369 . S
C626 C630 1.531 . S
C627 C626 1.369 . S
C627 C628 1.410 . S
C627 C635 1.503 . S
C628 C627 1.410 . S
C628 C629 1.392 . S
C628 C631 1.511 . S
C629 C625 1.376 . S
C629 C628 1.392 . S
C629 H641 0.929 . S
C630 C626 1.531 . S
C630 H642 0.960 . S
C630 H643 0.962 . S
C630 H644 0.960 . S
C631 C628 1.511 . S
C631 H645 0.961 . S
C631 H646 0.961 . S
C631 H647 0.961 . S
C632 C633 1.370 . S
C632 C634 1.363 . S
C632 H648 0.931 . S
C633 C632 1.370 . S
C633 C637 1.408 . S
C634 C632 1.363 . S
C634 C635 1.370 . S
C634 C638 1.524 . S
C635 C627 1.503 . S
C635 C634 1.370 . S
C635 C636 1.403 . S
C636 C635 1.403 . S
C636 C637 1.404 . S
C636 C639 1.539 . S
C637 C633 1.408 . S
C637 C636 1.404 . S
C637 H649 0.930 . S
C638 C634 1.524 . S
C638 H650 0.956 . S
C638 H651 0.961 . S
C638 H652 0.961 . S
C639 C636 1.539 . S
C639 H653 0.958 . S
C639 H654 0.961 . S
C639 H655 0.960 . S
H640 C624 0.931 . S
H641 C629 0.929 . S
H642 C630 0.960 . S
H643 C630 0.962 . S
H644 C630 0.960 . S
H645 C631 0.961 . S
H646 C631 0.961 . S
H647 C631 0.961 . S
H648 C632 0.931 . S
H649 C637 0.930 . S
H650 C638 0.956 . S
H651 C638 0.961 . S
H652 C638 0.961 . S
H653 C639 0.958 . S
H654 C639 0.961 . S
H655 C639 0.960 . S
C656 C657 1.391 . S
C656 C658 1.394 . S
C656 H672 0.931 . S
C657 C656 1.391 . S
C657 C661 1.376 . S
C658 C656 1.394 . S
C658 C659 1.369 . S
C658 C662 1.531 . S
C659 C658 1.369 . S
C659 C660 1.410 . S
C659 C667 1.503 . S
C660 C659 1.410 . S
C660 C661 1.392 . S
C660 C663 1.511 . S
C661 C657 1.376 . S
C661 C660 1.392 . S
C661 H673 0.929 . S
C662 C658 1.531 . S
C662 H674 0.960 . S
C662 H675 0.962 . S
C662 H676 0.960 . S
C663 C660 1.511 . S
C663 H677 0.961 . S
C663 H678 0.961 . S
C663 H679 0.961 . S
C664 C665 1.370 . S
C664 C666 1.363 . S
C664 H680 0.931 . S
C665 C664 1.370 . S
C665 C669 1.408 . S
C666 C664 1.363 . S
C666 C667 1.370 . S
C666 C670 1.524 . S
C667 C659 1.503 . S
C667 C666 1.370 . S
C667 C668 1.403 . S
C668 C667 1.403 . S
C668 C669 1.404 . S
C668 C671 1.539 . S
C669 C665 1.408 . S
C669 C668 1.404 . S
C669 H681 0.930 . S
C670 C666 1.524 . S
C670 H682 0.956 . S
C670 H683 0.961 . S
C670 H684 0.961 . S
C671 C668 1.539 . S
C671 H685 0.958 . S
C671 H686 0.961 . S
C671 H687 0.960 . S
H672 C656 0.931 . S
H673 C661 0.929 . S
H674 C662 0.960 . S
H675 C662 0.962 . S
H676 C662 0.960 . S
H677 C663 0.961 . S
H678 C663 0.961 . S
H679 C663 0.961 . S
H680 C664 0.931 . S
H681 C669 0.930 . S
H682 C670 0.956 . S
H683 C670 0.961 . S
H684 C670 0.961 . S
H685 C671 0.958 . S
H686 C671 0.961 . S
H687 C671 0.960 . S
C688 C689 1.391 . S
C688 C690 1.394 . S
C688 H704 0.931 . S
C689 C688 1.391 . S
C689 C693 1.376 . S
C690 C688 1.394 . S
C690 C691 1.369 . S
C690 C694 1.531 . S
C691 C690 1.369 . S
C691 C692 1.410 . S
C691 C699 1.503 . S
C692 C691 1.410 . S
C692 C693 1.392 . S
C692 C695 1.511 . S
C693 C689 1.376 . S
C693 C692 1.392 . S
C693 H705 0.929 . S
C694 C690 1.531 . S
C694 H706 0.960 . S
C694 H707 0.962 . S
C694 H708 0.960 . S
C695 C692 1.511 . S
C695 H709 0.961 . S
C695 H710 0.961 . S
C695 H711 0.961 . S
C696 C697 1.370 . S
C696 C698 1.363 1_556 S
C696 H712 0.931 . S
C697 C696 1.370 . S
C697 C701 1.408 1_556 S
C698 C696 1.363 1_554 S
C698 C699 1.370 . S
C698 C702 1.530 . S
C699 C691 1.503 . S
C699 C698 1.370 . S
C699 C700 1.403 . S
C700 C699 1.403 . S
C700 C701 1.404 . S
C700 C703 1.539 . S
C701 C697 1.408 1_554 S
C701 C700 1.404 . S
C701 H713 0.930 . S
C702 C698 1.530 . S
C702 H714 0.965 . S
C702 H715 0.965 . S
C702 H716 0.941 1_554 S
C703 C700 1.539 . S
C703 H717 0.958 . S
C703 H718 0.961 . S
C703 H719 0.960 . S
H704 C688 0.931 . S
H705 C693 0.929 . S
H706 C694 0.960 . S
H707 C694 0.962 . S
H708 C694 0.960 . S
H709 C695 0.961 . S
H710 C695 0.961 . S
H711 C695 0.961 . S
H712 C696 0.931 . S
H713 C701 0.930 . S
H714 C702 0.965 . S
H715 C702 0.965 . S
H716 C702 0.941 1_556 S
H717 C703 0.958 . S
H718 C703 0.961 . S
H719 C703 0.960 . S
C720 C721 1.391 . S
C720 C722 1.394 . S
C720 H736 0.931 . S
C721 C720 1.391 . S
C721 C725 1.376 . S
C722 C720 1.394 . S
C722 C723 1.369 . S
C722 C726 1.531 . S
C723 C722 1.369 . S
C723 C724 1.410 . S
C723 C731 1.503 . S
C724 C723 1.410 . S
C724 C725 1.392 . S
C724 C727 1.511 . S
C725 C721 1.376 . S
C725 C724 1.392 . S
C725 H737 0.929 . S
C726 C722 1.531 . S
C726 H738 0.960 . S
C726 H739 0.962 . S
C726 H740 0.960 . S
C727 C724 1.511 . S
C727 H741 0.961 . S
C727 H742 0.961 . S
C727 H743 0.961 . S
C728 C729 1.370 . S
C728 C730 1.363 . S
C728 H744 0.931 . S
C729 C728 1.370 . S
C729 C733 1.408 . S
C730 C728 1.363 . S
C730 C731 1.370 . S
C730 C734 1.524 . S
C731 C723 1.503 . S
C731 C730 1.370 . S
C731 C732 1.403 . S
C732 C731 1.403 . S
C732 C733 1.404 . S
C732 C735 1.539 . S
C733 C729 1.408 . S
C733 C732 1.404 . S
C733 H745 0.930 . S
C734 C730 1.524 . S
C734 H746 0.956 . S
C734 H747 0.961 . S
C734 H748 0.961 . S
C735 C732 1.539 . S
C735 H749 0.958 . S
C735 H750 0.961 . S
C735 H751 0.960 . S
H736 C720 0.931 . S
H737 C725 0.929 . S
H738 C726 0.960 . S
H739 C726 0.962 . S
H740 C726 0.960 . S
H741 C727 0.961 . S
H742 C727 0.961 . S
H743 C727 0.961 . S
H744 C728 0.931 . S
H745 C733 0.930 . S
H746 C734 0.956 . S
H747 C734 0.961 . S
H748 C734 0.961 . S
H749 C735 0.958 . S
H750 C735 0.961 . S
H751 C735 0.960 . S
C752 C753 1.391 . S
C752 C754 1.394 . S
C752 H768 0.931 . S
C753 C752 1.391 . S
C753 C757 1.376 . S
C754 C752 1.394 . S
C754 C755 1.369 . S
C754 C758 1.531 . S
C755 C754 1.369 . S
C755 C756 1.410 . S
C755 C763 1.503 . S
C756 C755 1.410 . S
C756 C757 1.392 . S
C756 C759 1.511 . S
C757 C753 1.376 . S
C757 C756 1.392 . S
C757 H769 0.929 . S
C758 C754 1.531 . S
C758 H770 0.960 . S
C758 H771 0.962 . S
C758 H772 0.960 . S
C759 C756 1.511 . S
C759 H773 0.961 . S
C759 H774 0.961 . S
C759 H775 0.961 . S
C760 C761 1.370 . S
C760 C762 1.363 . S
C760 H776 0.931 . S
C761 C760 1.370 . S
C761 C765 1.408 . S
C762 C760 1.363 . S
C762 C763 1.370 . S
C762 C766 1.524 . S
C763 C755 1.503 . S
C763 C762 1.370 . S
C763 C764 1.403 . S
C764 C763 1.403 . S
C764 C765 1.404 . S
C764 C767 1.539 . S
C765 C761 1.408 . S
C765 C764 1.404 . S
C765 H777 0.930 . S
C766 C762 1.524 . S
C766 H778 0.956 . S
C766 H779 0.961 . S
C766 H780 0.961 . S
C767 C764 1.539 . S
C767 H781 0.958 . S
C767 H782 0.961 . S
C767 H783 0.960 . S
H768 C752 0.931 . S
H769 C757 0.929 . S
H770 C758 0.960 . S
H771 C758 0.962 . S
H772 C758 0.960 . S
H773 C759 0.961 . S
H774 C759 0.961 . S
H775 C759 0.961 . S
H776 C760 0.931 . S
H777 C765 0.930 . S
H778 C766 0.956 . S
H779 C766 0.961 . S
H780 C766 0.961 . S
H781 C767 0.958 . S
H782 C767 0.961 . S
H783 C767 0.960 . S
C784 C785 1.391 . S
C784 C786 1.394 . S
C784 H800 0.931 1_556 S
C785 C784 1.391 . S
C785 C789 1.376 . S
C786 C784 1.394 . S
C786 C787 1.369 . S
C786 C790 1.531 . S
C787 C786 1.369 . S
C787 C788 1.410 . S
C787 C795 1.503 . S
C788 C787 1.410 . S
C788 C789 1.392 . S
C788 C791 1.511 . S
C789 C785 1.376 . S
C789 C788 1.392 . S
C789 H801 0.929 . S
C790 C786 1.531 . S
C790 H802 0.960 . S
C790 H803 0.962 . S
C790 H804 0.960 . S
C791 C788 1.511 . S
C791 H805 0.961 . S
C791 H806 0.961 . S
C791 H807 0.961 . S
C792 C793 1.370 . S
C792 C794 1.363 . S
C792 H808 0.931 . S
C793 C792 1.370 . S
C793 C797 1.408 . S
C794 C792 1.363 . S
C794 C795 1.370 . S
C794 C798 1.524 . S
C795 C787 1.503 . S
C795 C794 1.370 . S
C795 C796 1.403 . S
C796 C795 1.403 . S
C796 C797 1.404 . S
C796 C799 1.539 . S
C797 C793 1.408 . S
C797 C796 1.404 . S
C797 H809 0.930 . S
C798 C794 1.524 . S
C798 H810 0.956 . S
C798 H811 0.961 . S
C798 H812 0.961 . S
C799 C796 1.539 . S
C799 H813 0.958 . S
C799 H814 0.961 . S
C799 H815 0.960 . S
H800 C784 0.931 1_554 S
H801 C789 0.929 . S
H802 C790 0.960 . S
H803 C790 0.962 . S
H804 C790 0.960 . S
H805 C791 0.961 . S
H806 C791 0.961 . S
H807 C791 0.961 . S
H808 C792 0.931 . S
H809 C797 0.930 . S
H810 C798 0.956 . S
H811 C798 0.961 . S
H812 C798 0.961 . S
H813 C799 0.958 . S
H814 C799 0.961 . S
H815 C799 0.960 . S
C241 C210 1.776 . S
C249 C10 1.760 . S
C273 C9 1.346 . S
C281 C49 1.393 . S
C305 C50 1.747 . S
C313 C90 1.772 . S
C337 C89 1.415 . S
C345 C129 1.409 . S
C369 C170 1.754 . S
C377 C130 1.769 . S
C401 C209 1.379 . S
C409 C169 1.374 . S
C433 C6 1.272 . S
C441 C15 1.286 . S
C465 C55 1.315 . S
C473 C46 1.264 . S
C497 C86 1.247 . S
C505 C95 1.291 . S
C529 C135 1.297 . S
C537 C126 1.275 . S
C561 C175 1.288 . S
C569 C166 1.279 . S
C593 C215 1.237 . S
C601 C206 1.296 . S
C625 C19 1.833 . S
C633 C178 1.850 . S
C657 C58 1.845 . S
C665 C219 1.833 . S
C689 C18 1.846 . S
C697 C99 1.838 . S
C721 C59 1.827 . S
C729 C138 1.850 . S
C753 C179 1.819 . S
C761 C98 1.850 . S
C785 C139 1.831 . S
C793 C218 1.850 . S
