# Generated by pormake.
# Topology tfs, (6)-cn, num edge types: 1
# Building blocks:
#     Node 0, Type 0, BuildingBlock: MIFKUJ_clean_sbu_0, # of connection points: 6
#     Node 1, Type 0, BuildingBlock: MIFKUJ_clean_sbu_0, # of connection points: 6
#     Node 2, Type 0, BuildingBlock: MIFKUJ_clean_sbu_0, # of connection points: 6
#     Node 3, Type 0, BuildingBlock: MIFKUJ_clean_sbu_0, # of connection points: 6
#     Node 4, Type 0, BuildingBlock: MIFKUJ_clean_sbu_0, # of connection points: 6
#     Node 5, Type 0, BuildingBlock: MIFKUJ_clean_sbu_0, # of connection points: 6
#     Edge 6, Type (0, 0), BuildingBlock: CIFDUS_clean_linker_0, # of connection points: 2
#     Edge 7, Type (0, 0), BuildingBlock: CIFDUS_clean_linker_0, # of connection points: 2
#     Edge 8, Type (0, 0), BuildingBlock: CIFDUS_clean_linker_0, # of connection points: 2
#     Edge 9, Type (0, 0), BuildingBlock: CIFDUS_clean_linker_0, # of connection points: 2
#     Edge 10, Type (0, 0), BuildingBlock: CIFDUS_clean_linker_0, # of connection points: 2
#     Edge 11, Type (0, 0), BuildingBlock: CIFDUS_clean_linker_0, # of connection points: 2
#     Edge 12, Type (0, 0), BuildingBlock: CIFDUS_clean_linker_0, # of connection points: 2
#     Edge 13, Type (0, 0), BuildingBlock: CIFDUS_clean_linker_0, # of connection points: 2
#     Edge 14, Type (0, 0), BuildingBlock: CIFDUS_clean_linker_0, # of connection points: 2
#     Edge 15, Type (0, 0), BuildingBlock: CIFDUS_clean_linker_0, # of connection points: 2
#     Edge 16, Type (0, 0), BuildingBlock: CIFDUS_clean_linker_0, # of connection points: 2
#     Edge 17, Type (0, 0), BuildingBlock: CIFDUS_clean_linker_0, # of connection points: 2
#     Edge 18, Type (0, 0), BuildingBlock: CIFDUS_clean_linker_0, # of connection points: 2
#     Edge 19, Type (0, 0), BuildingBlock: CIFDUS_clean_linker_0, # of connection points: 2
#     Edge 20, Type (0, 0), BuildingBlock: CIFDUS_clean_linker_0, # of connection points: 2
#     Edge 21, Type (0, 0), BuildingBlock: CIFDUS_clean_linker_0, # of connection points: 2
#     Edge 22, Type (0, 0), BuildingBlock: CIFDUS_clean_linker_0, # of connection points: 2
#     Edge 23, Type (0, 0), BuildingBlock: CIFDUS_clean_linker_0, # of connection points: 2
# Relax obj value: 0.427
# Max RMSD: 0.246
# Mean RMSD: 0.246
data_MOF--net-tfs--node1-MIFKUJ_clean_sbu_0--edge1-CIFDUS_clean_linker_0
_symmetry_space_group_name_H-M    P1
_symmetry_Int_Tables_number       1
_symmetry_cell_setting            triclinic
loop_
_symmetry_equiv_pos_as_xyz
'x, y, z'
_cell_length_a     42.484347
_cell_length_b     42.662417
_cell_length_c     12.305154
_cell_angle_alpha  90.069249
_cell_angle_beta   90.174909
_cell_angle_gamma 120.43326
loop_
_atom_site_label
_atom_site_type_symbol
_atom_site_fract_x
_atom_site_fract_y
_atom_site_fract_z
_atom_type_partial_charge
Zn0 Zn 0.19793 0.44852 0.94477 0.0
Zn1 Zn 0.20663 0.37822 -0.00311 0.0
C2 C 0.27341 0.5 -0.00513 0.0
O3 O 0.25905 0.50533 0.08232 0.0
C4 C 0.13562 0.3227 0.93343 0.0
O5 O 0.15545 0.31798 0.86069 0.0
O6 O 0.18316 0.48591 0.91861 0.0
O7 O 0.17626 0.40997 0.83287 0.0
O8 O 0.22056 0.39763 0.84849 0.0
C9 C 0.19726 0.50823 0.84053 0.0
O10 O 0.21878 0.50429 0.77243 0.0
O11 O 0.25269 0.47574 0.92701 0.0
C12 C 0.20904 0.31415 0.0667 0.0
O13 O 0.1761 0.30326 0.10336 0.0
O14 O 0.22706 0.34509 0.0215 0.0
O15 O 0.22554 0.41553 0.11291 0.0
O16 O 0.1837 0.43115 0.0948 0.0
O17 O 0.15159 0.34795 0.00345 0.0
C18 C 0.19836 0.40187 0.79014 0.0
C19 C 0.20406 0.42466 0.15435 0.0
Zn20 Zn 0.78817 0.24609 0.02272 0.0
Zn21 Zn 0.84551 0.1867 0.0469 0.0
C22 C 0.82278 0.32307 0.07522 0.0
O23 O 0.82592 0.31216 0.17229 0.0
C24 C 0.80072 0.10982 0.00466 0.0
O25 O 0.79733 0.12194 0.90988 0.0
O26 O 0.73444 0.22274 0.98871 0.0
O27 O 0.81197 0.22401 0.9311 0.0
O28 O 0.84044 0.19535 0.88606 0.0
C29 C 0.72432 0.23522 0.91084 0.0
O30 O 0.74928 0.26127 0.8505 0.0
O31 O 0.80991 0.30008 -0.00222 0.0
C32 C 0.91934 0.20801 0.01139 0.0
O33 O 0.90366 0.18563 0.92922 0.0
O34 O 0.89935 0.21216 0.07968 0.0
O35 O 0.82182 0.20949 0.13285 0.0
O36 O 0.79344 0.23752 0.18277 0.0
O37 O 0.82046 0.13257 0.07763 0.0
C38 C 0.82465 0.21262 0.85718 0.0
C39 C 0.81001 0.22083 0.20913 0.0
Zn40 Zn 0.53471 0.74128 0.9782 0.0
Zn41 Zn 0.61468 0.81999 0.97817 0.0
C42 C 0.48844 0.77365 -0.00735 0.0
O43 O 0.49131 0.77059 0.09793 0.0
C44 C 0.66418 0.79265 0.9478 0.0
O45 O 0.67491 0.81484 0.86434 0.0
O46 O 0.49586 0.68939 0.00501 0.0
O47 O 0.56734 0.74432 0.85865 0.0
O48 O 0.58612 0.80261 0.84265 0.0
C49 C 0.47457 0.6683 0.93156 0.0
O50 O 0.47997 0.67932 0.8301 0.0
O51 O 0.50625 0.76503 0.92846 0.0
C52 C 0.67277 0.89373 0.02839 0.0
O53 O 0.66967 0.88105 0.12745 0.0
O54 O 0.65286 0.8724 0.95304 0.0
O55 O 0.58624 0.81867 0.10627 0.0
O56 O 0.55841 0.75899 0.12123 0.0
O57 O 0.63895 0.79051 0.00838 0.0
C58 C 0.57854 0.77245 0.80029 0.0
C59 C 0.57262 0.79029 0.16406 0.0
Zn60 Zn 0.79538 0.55317 -0.00476 0.0
Zn61 Zn 0.81716 0.65223 0.9554 0.0
C62 C 0.71892 0.50804 0.04269 0.0
O63 O 0.73125 0.51791 0.14232 0.0
C64 C 0.89242 0.70111 0.00638 0.0
O65 O 0.87691 0.70539 0.09291 0.0
O66 O 0.81148 0.51652 0.01797 0.0
O67 O 0.82192 0.58098 0.86465 0.0
O68 O 0.79259 0.61081 0.85084 0.0
C69 C 0.80631 0.49635 0.93564 0.0
O70 O 0.79269 0.50196 0.84668 0.0
O71 O 0.74114 0.52178 0.96397 0.0
C72 C 0.77001 0.68213 0.98425 0.0
O73 O 0.75502 0.65601 0.05658 0.0
O74 O 0.79731 0.68602 0.93047 0.0
O75 O 0.80984 0.63731 0.11064 0.0
O76 O 0.80375 0.58245 0.13023 0.0
O77 O 0.87214 0.67978 0.93129 0.0
C78 C 0.81282 0.60013 0.80933 0.0
C79 C 0.8073 0.6117 0.16943 0.0
Zn80 Zn 0.23591 0.76633 0.95684 0.0
Zn81 Zn 0.18169 0.82982 0.97627 0.0
C82 C 0.19042 0.68744 0.96579 0.0
O83 O 0.1754 0.69418 0.04893 0.0
C84 C 0.20239 0.90459 0.05223 0.0
O85 O 0.16879 0.89067 0.08749 0.0
O86 O 0.29094 0.79021 0.95411 0.0
O87 O 0.21575 0.79168 0.86482 0.0
O88 O 0.19006 0.82285 0.81733 0.0
C89 C 0.30809 0.78134 0.88803 0.0
O90 O 0.29008 0.75899 0.80767 0.0
O91 O 0.21528 0.7139 0.91265 0.0
C92 C 0.10975 0.80489 0.08093 0.0
O93 O 0.1283 0.8158 0.17225 0.0
O94 O 0.1267 0.80862 -0.00754 0.0
O95 O 0.20038 0.80261 0.06675 0.0
O96 O 0.22415 0.76974 0.11482 0.0
O97 O 0.21209 0.884 0.00694 0.0
C98 C 0.20513 0.80476 0.78992 0.0
C99 C 0.20999 0.78868 0.14199 0.0
Zn100 Zn 0.49265 0.24827 -0.00604 0.0
Zn101 Zn 0.37507 0.18908 0.01819 0.0
C102 C 0.52709 0.20417 0.00892 0.0
O103 O 0.50531 0.18907 0.09224 0.0
C104 C 0.31753 0.2073 0.02693 0.0
O105 O 0.29681 0.17469 0.9855 0.0
O106 O 0.52348 0.30306 0.97552 0.0
O107 O 0.44596 0.2244 0.90344 0.0
O108 O 0.3884 0.19507 0.85691 0.0
C109 C 0.5458 0.31673 0.89697 0.0
O110 O 0.54597 0.29497 0.82167 0.0
O111 O 0.52487 0.22823 0.95427 0.0
C112 C 0.31661 0.12113 0.11754 0.0
O113 O 0.3104 0.14248 0.17958 0.0
O114 O 0.3423 0.13514 0.04835 0.0
O115 O 0.42224 0.2108 0.10415 0.0
O116 O 0.47918 0.23834 0.15452 0.0
O117 O 0.35078 0.21824 0.04872 0.0
C118 C 0.42182 0.21171 0.82873 0.0
C119 C 0.44562 0.22137 0.18064 0.0
H120 H 0.24667 0.18891 0.05087 0.0
H121 H 0.3561 0.28125 0.03669 0.0
H122 H 0.33229 0.32256 0.04978 0.0
H123 H 0.28019 0.33249 0.05798 0.0
H124 H 0.17096 0.24029 0.08183 0.0
H125 H 0.19484 0.19892 0.07296 0.0
C126 C 0.26526 0.21808 0.05099 0.0
C127 C 0.30302 0.232 0.04184 0.0
C128 C 0.25143 0.2417 0.06019 0.0
C129 C 0.32689 0.26984 0.04367 0.0
C130 C 0.3133 0.2935 0.05082 0.0
C131 C 0.26167 0.30334 0.0617 0.0
C132 C 0.22388 0.28945 0.06964 0.0
C133 C 0.27561 0.27973 0.058 0.0
C134 C 0.20019 0.25166 0.07586 0.0
C135 C 0.2138 0.22797 0.07036 0.0
H136 H 0.08719 0.32079 0.0824 0.0
H137 H 0.09398 0.2691 0.78855 0.0
H138 H 0.02808 0.22822 0.78983 0.0
H139 H 0.96845 0.20784 0.87152 0.0
H140 H 0.96087 0.25926 0.16468 0.0
H141 H 0.02717 0.29928 0.16689 0.0
C142 C 0.07424 0.3006 0.01862 0.0
C143 C 0.09554 0.29815 0.9353 0.0
C144 C 0.03621 0.27701 0.01984 0.0
C145 C 0.07832 0.27168 0.85361 0.0
C146 C 0.04059 0.24822 0.85424 0.0
C147 C 0.98124 0.22763 0.9364 0.0
C148 C 0.95966 0.23054 0.01766 0.0
C149 C 0.01927 0.25071 0.93669 0.0
C150 C 0.9768 0.25639 0.10105 0.0
C151 C 0.01472 0.27938 0.10222 0.0
H152 H 0.75992 0.05556 0.86207 0.0
H153 H 0.79649 0.07496 0.196 0.0
H154 H 0.7612 0.00964 0.23204 0.0
H155 H 0.71819 0.94716 0.16986 0.0
H156 H 0.68204 0.92862 0.83527 0.0
H157 H 0.71907 0.99347 0.79864 0.0
C158 C 0.76032 0.04558 0.9428 0.0
C159 C 0.7807 0.0702 0.0263 0.0
C160 C 0.73997 0.00809 0.96295 0.0
C161 C 0.781 0.05666 0.1302 0.0
C162 C 0.76078 0.01929 0.15092 0.0
C163 C 0.71856 0.95727 0.08878 0.0
C164 C 0.69718 0.93296 0.00567 0.0
C165 C 0.73991 0.99477 0.06809 0.0
C166 C 0.69812 0.9466 0.90098 0.0
C167 C 0.71927 0.98375 0.87985 0.0
H168 H 0.71561 0.68375 0.09549 0.0
H169 H 0.79021 0.73475 0.8289 0.0
H170 H 0.76427 0.77351 0.79469 0.0
H171 H 0.71991 0.79246 0.83904 0.0
H172 H 0.64568 0.74159 0.10666 0.0
H173 H 0.67206 0.70335 0.14172 0.0
C174 C 0.72626 0.70334 0.02987 0.0
C175 C 0.75479 0.70621 0.96473 0.0
C176 C 0.71126 0.7256 0.01073 0.0
C177 C 0.76829 0.73192 0.8804 0.0
C178 C 0.75344 0.75409 0.86066 0.0
C179 C 0.7095 0.77304 0.90514 0.0
C180 C 0.68076 0.76992 0.96989 0.0
C181 C 0.72484 0.7511 0.92509 0.0
C182 C 0.66774 0.74463 0.05539 0.0
C183 C 0.6828 0.72269 0.07554 0.0
H184 H 0.06137 0.7682 0.91615 0.0
H185 H 0.06734 0.80409 0.24775 0.0
H186 H 1.00113 0.7762 0.25221 0.0
H187 H 0.94146 0.74079 0.16412 0.0
H188 H 0.93444 0.70293 0.83463 0.0
H189 H 1.00105 0.73244 0.82731 0.0
C190 C 0.04819 0.77004 -0.01075 0.0
C191 C 0.06943 0.78828 0.08151 0.0
C192 C 0.00988 0.75353 -0.00821 0.0
C193 C 0.0518 0.79017 0.17568 0.0
C194 C 0.01387 0.77424 0.17833 0.0
C195 C 0.95441 0.73906 0.09035 0.0
C196 C 0.93287 0.71968 -4e-05 0.0
C197 C 0.99263 0.75573 0.08715 0.0
C198 C 0.95028 0.71764 0.90543 0.0
C199 C 0.9884 0.73452 0.90122 0.0
H200 H 0.19325 0.95585 0.15744 0.0
H201 H 0.27062 0.94273 0.96475 0.0
H202 H 0.31293 0.00815 0.97036 0.0
H203 H 0.32742 0.06939 0.02489 0.0
H204 H 0.25084 0.0828 0.22028 0.0
H205 H 0.20899 0.0171 0.21893 0.0
C206 C 0.2194 0.96726 0.1169 0.0
C207 C 0.22854 0.94429 0.06023 0.0
C208 C 0.24381 0.00504 0.12075 0.0
C209 C 0.26272 0.95965 0.00886 0.0
C210 C 0.287 0.99713 0.01186 0.0
C211 C 0.30164 0.05796 0.06755 0.0
C212 C 0.29227 0.08108 0.12215 0.0
C213 C 0.27773 0.02012 0.06679 0.0
C214 C 0.25883 0.0657 0.17769 0.0
C215 C 0.23479 0.02809 0.1767 0.0
H216 H 0.21781 0.66467 0.80393 0.0
H217 H 0.14508 0.62572 0.07904 0.0
H218 H 0.13811 0.56563 0.05818 0.0
H219 H 0.15719 0.52588 0.97288 0.0
H220 H 0.23067 0.56518 0.69954 0.0
H221 H 0.23245 0.62318 0.70824 0.0
C222 C 0.20007 0.64295 0.8586 0.0
C223 C 0.18235 0.64989 0.94375 0.0
C224 C 0.19647 0.60851 0.84696 0.0
C225 C 0.15924 0.62128 0.01317 0.0
C226 C 0.1553 0.58688 0.00153 0.0
C227 C 0.17323 0.54694 0.91426 0.0
C228 C 0.19408 0.54125 0.83648 0.0
C229 C 0.17449 0.58044 0.92041 0.0
C230 C 0.2145 0.56881 0.76071 0.0
C231 C 0.21564 0.60209 0.76578 0.0
H232 H 0.57573 0.23048 0.84338 0.0
H233 H 0.54869 0.16527 0.13376 0.0
H234 H 0.60608 0.16532 0.12119 0.0
H235 H 0.66718 0.1906 0.0413 0.0
H236 H 0.69453 0.25747 0.75427 0.0
H237 H 0.63363 0.24969 0.75162 0.0
C238 C 0.58209 0.21579 0.90311 0.0
C239 C 0.55822 0.19844 -0.00958 0.0
C240 C 0.61539 0.21652 0.89664 0.0
C241 C 0.56668 0.17912 0.06617 0.0
C242 C 0.5996 0.17927 0.05934 0.0
C243 C 0.65963 0.20297 0.97709 0.0
C244 C 0.68562 0.2251 0.89923 0.0
C245 C 0.6247 0.19892 0.97703 0.0
C246 C 0.67525 0.24066 0.81606 0.0
C247 C 0.64042 0.23629 0.81451 0.0
H248 H 0.42591 0.61396 0.79864 0.0
H249 H 0.44715 0.64679 0.13555 0.0
H250 H 0.3877 0.59592 0.18594 0.0
H251 H 0.32746 0.54545 0.13263 0.0
H252 H 0.30627 0.51166 0.79675 0.0
H253 H 0.36793 0.55923 0.74814 0.0
C254 C 0.41771 0.60972 0.88323 0.0
C255 C 0.44082 0.63446 0.96283 0.0
C256 C 0.38336 0.58033 0.91194 0.0
C257 C 0.42992 0.6283 0.07233 0.0
C258 C 0.39581 0.59926 0.10136 0.0
C259 C 0.33648 0.54825 0.049 0.0
C260 C 0.31218 0.52535 0.96835 0.0
C261 C 0.37197 0.57564 0.02156 0.0
C262 C 0.32441 0.52898 0.86051 0.0
C263 C 0.35964 0.5563 0.83248 0.0
H264 H 0.8318 0.4749 0.10744 0.0
H265 H 0.79495 0.44778 0.77489 0.0
H266 H 0.80005 0.39355 0.78562 0.0
H267 H 0.81045 0.35135 0.89286 0.0
H268 H 0.84641 0.37751 0.22631 0.0
H269 H 0.84669 0.43469 0.21097 0.0
C270 C 0.82521 0.45731 0.03704 0.0
C271 C 0.81267 0.46529 0.94094 0.0
C272 C 0.82799 0.42588 0.04378 0.0
C273 C 0.80444 0.44226 0.85026 0.0
C274 C 0.80734 0.41116 0.85619 0.0
C275 C 0.81885 0.36975 0.96183 0.0
C276 C 0.82809 0.35993 0.06081 0.0
C277 C 0.81844 0.40235 0.95307 0.0
C278 C 0.83899 0.38424 0.14917 0.0
C279 C 0.83903 0.41693 0.14068 0.0
H280 H 0.35436 0.77035 0.76185 0.0
H281 H 0.34654 0.81145 0.07526 0.0
H282 H 0.40361 0.81576 0.13224 0.0
H283 H 0.45211 0.80146 0.10054 0.0
H284 H 0.46055 0.76124 0.78644 0.0
H285 H 0.40728 0.76342 0.72234 0.0
C286 C 0.36542 0.78079 0.84201 0.0
C287 C 0.34581 0.79004 0.91452 0.0
C288 C 0.39829 0.78309 0.87471 0.0
C289 C 0.36084 0.80393 0.01771 0.0
C290 C 0.39347 0.80626 0.05075 0.0
C291 C 0.44261 0.79366 0.01758 0.0
C292 C 0.46004 0.78074 0.94906 0.0
C293 C 0.41185 0.7949 0.9811 0.0
C294 C 0.44763 0.77118 0.84126 0.0
C295 C 0.41701 0.77225 0.80455 0.0
H296 H 0.69038 0.46856 0.85674 0.0
H297 H 0.66333 0.47702 0.18917 0.0
H298 H 0.60514 0.42035 0.16951 0.0
H299 H 0.56498 0.36512 0.0645 0.0
H300 H 0.59343 0.35533 0.73484 0.0
H301 H 0.6476 0.4158 0.74659 0.0
C302 C 0.67148 0.45838 0.92432 0.0
C303 C 0.68142 0.47695 0.02456 0.0
C304 C 0.63834 0.42527 0.9133 0.0
C305 C 0.65657 0.46321 0.11129 0.0
C306 C 0.62325 0.43071 0.10024 0.0
C307 C 0.58266 0.37644 -0.00547 0.0
C308 C 0.57524 0.3555 0.89925 0.0
C309 C 0.6143 0.41099 0.0026 0.0
C310 C 0.59857 0.37067 0.80952 0.0
C311 C 0.62965 0.40528 0.81619 0.0
H312 H 0.17018 0.42856 0.64633 0.0
H313 H 0.23388 0.3757 0.67151 0.0
H314 H 0.24219 0.37932 0.47504 0.0
H315 H 0.23172 0.39781 0.29873 0.0
H316 H 0.16805 0.45067 0.27264 0.0
H317 H 0.15958 0.44698 0.46927 0.0
C318 C 0.18562 0.41755 0.60871 0.0
C319 C 0.2014 0.40189 0.67236 0.0
C320 C 0.19055 0.42003 0.49673 0.0
C321 C 0.2216 0.38799 0.62337 0.0
C322 C 0.22641 0.3901 0.51152 0.0
C323 C 0.21621 0.40878 0.33602 0.0
C324 C 0.20057 0.42451 0.27212 0.0
C325 C 0.2112 0.40628 0.44787 0.0
C326 C 0.18029 0.43837 0.32093 0.0
C327 C 0.17538 0.43622 0.43287 0.0
H328 H 0.84017 0.18329 0.68231 0.0
H329 H 0.80083 0.25542 0.76809 0.0
H330 H 0.79208 0.26357 0.57613 0.0
H331 H 0.79563 0.25028 0.38416 0.0
H332 H 0.837 0.17989 0.29627 0.0
H333 H 0.84527 0.17123 0.4888 0.0
C334 C 0.82972 0.20085 0.65908 0.0
C335 C 0.8205 0.21826 0.73998 0.0
C336 C 0.82526 0.20578 0.54809 0.0
C337 C 0.80726 0.24106 0.70797 0.0
C338 C 0.80253 0.24592 0.59804 0.0
C339 C 0.80641 0.23296 0.40685 0.0
C340 C 0.81551 0.21561 0.3256 0.0
C341 C 0.8113 0.22831 0.51747 0.0
C342 C 0.82973 0.19354 0.3569 0.0
C343 C 0.83444 0.18857 0.46706 0.0
H344 H 0.60206 0.82744 0.65854 0.0
H345 H 0.55196 0.7106 0.67767 0.0
H346 H 0.54551 0.70621 0.48011 0.0
H347 H 0.55221 0.73537 0.30546 0.0
H348 H 0.60172 0.85219 0.28683 0.0
H349 H 0.60971 0.85668 0.48378 0.0
C350 C 0.58976 0.80098 0.6197 0.0
C351 C 0.57718 0.76936 0.68204 0.0
C352 C 0.58567 0.79863 0.5074 0.0
C353 C 0.56176 0.73531 0.63084 0.0
C354 C 0.5579 0.73275 0.51835 0.0
C355 C 0.56465 0.76184 0.34423 0.0
C356 C 0.57622 0.79339 0.28221 0.0
C357 C 0.56936 0.76424 0.45638 0.0
C358 C 0.59246 0.82751 0.33337 0.0
C359 C 0.59716 0.83012 0.44554 0.0
H360 H 0.79987 0.64041 0.66631 0.0
H361 H 0.83806 0.56401 0.68803 0.0
H362 H 0.84053 0.56183 0.49091 0.0
H363 H 0.82826 0.5785 0.31346 0.0
H364 H 0.79099 0.65545 0.28917 0.0
H365 H 0.79175 0.66054 0.48727 0.0
C366 C 0.80892 0.62346 0.6278 0.0
C367 C 0.81817 0.60199 0.69131 0.0
C368 C 0.81018 0.6222 0.51451 0.0
C369 C 0.8305 0.58061 0.64079 0.0
C370 C 0.83182 0.57922 0.52813 0.0
C371 C 0.82025 0.59635 0.35157 0.0
C372 C 0.80905 0.61612 0.28768 0.0
C373 C 0.82102 0.59932 0.46448 0.0
C374 C 0.79953 0.6398 0.33739 0.0
C375 C 0.79993 0.6427 0.4503 0.0
H376 H 0.22072 0.75607 0.31682 0.0
H377 H 0.19436 0.83809 0.2302 0.0
H378 H 0.1897 0.84963 0.42246 0.0
H379 H 0.19389 0.83693 0.61515 0.0
H380 H 0.22411 0.75763 0.70198 0.0
H381 H 0.22722 0.74504 0.50956 0.0
C382 C 0.21381 0.7764 0.33985 0.0
C383 C 0.20677 0.79544 0.2588 0.0
C384 C 0.21231 0.78365 0.45068 0.0
C385 C 0.19848 0.82207 0.29053 0.0
C386 C 0.19632 0.82901 0.40059 0.0
C387 C 0.20119 0.81689 0.59215 0.0
C388 C 0.20862 0.79815 0.67318 0.0
C389 C 0.20316 0.80996 0.48135 0.0
C390 C 0.21832 0.7725 0.64157 0.0
C391 C 0.21999 0.7652 0.53146 0.0
H392 H 0.37674 0.19322 0.65178 0.0
H393 H 0.4896 0.23717 0.74232 0.0
H394 H 0.50679 0.24388 0.55085 0.0
H395 H 0.4899 0.23762 0.35762 0.0
H396 H 0.37699 0.19286 0.2659 0.0
H397 H 0.35962 0.18565 0.45766 0.0
C398 C 0.40512 0.20426 0.62974 0.0
C399 C 0.43197 0.21521 0.71183 0.0
C400 C 0.41474 0.20769 0.51907 0.0
C401 C 0.46852 0.22923 0.68127 0.0
C402 C 0.47832 0.23284 0.5716 0.0
C403 C 0.46144 0.22621 0.37935 0.0
C404 C 0.43477 0.21578 0.29705 0.0
C405 C 0.4517 0.22228 0.48981 0.0
C406 C 0.39805 0.20096 0.32723 0.0
C407 C 0.38813 0.19695 0.43702 0.0
loop_
_geom_bond_atom_site_label_1
_geom_bond_atom_site_label_2
_geom_bond_distance
_geom_bond_site_symmetry_2
_ccdc_geom_bond_type
Zn0 O6 1.969 . S
Zn0 O7 1.965 1_554 S
Zn0 O11 2.024 1_554 S
Zn0 O16 1.969 . S
Zn1 O8 1.969 . S
Zn1 O14 1.969 . S
Zn1 O15 1.965 1_556 S
Zn1 O17 2.024 1_556 S
C2 O3 1.229 . S
C2 O11 1.058 1_554 S
O3 C2 1.229 . S
C4 O5 1.229 . S
C4 O17 1.058 1_556 S
O5 C4 1.229 . S
O6 Zn0 1.969 . S
O6 C9 1.267 1_554 S
O7 Zn0 1.965 1_556 S
O7 C18 1.260 . S
O8 Zn1 1.969 . S
O8 C18 1.258 . S
C9 O6 1.267 1_556 S
C9 O10 1.228 . S
O10 C9 1.228 . S
O11 Zn0 2.024 1_556 S
O11 C2 1.058 1_556 S
C12 O13 1.228 . S
C12 O14 1.267 1_554 S
O13 C12 1.228 . S
O14 Zn1 1.969 . S
O14 C12 1.267 1_556 S
O15 Zn1 1.965 1_554 S
O15 C19 1.260 . S
O16 Zn0 1.969 . S
O16 C19 1.258 . S
O17 Zn1 2.024 1_554 S
O17 C4 1.058 1_554 S
C18 O7 1.260 . S
C18 O8 1.258 . S
C19 O15 1.260 . S
C19 O16 1.258 . S
Zn20 O26 1.969 . S
Zn20 O27 1.965 1_554 S
Zn20 O31 2.024 1_554 S
Zn20 O36 1.969 . S
Zn21 O28 1.969 . S
Zn21 O34 1.969 . S
Zn21 O35 1.965 1_556 S
Zn21 O37 2.024 1_556 S
C22 O23 1.229 . S
C22 O31 1.058 1_554 S
O23 C22 1.229 . S
C24 O25 1.229 . S
C24 O37 1.058 1_556 S
O25 C24 1.229 . S
O26 Zn20 1.969 . S
O26 C29 1.267 1_554 S
O27 Zn20 1.965 1_556 S
O27 C38 1.260 . S
O28 Zn21 1.969 . S
O28 C38 1.258 . S
C29 O26 1.267 1_556 S
C29 O30 1.228 . S
O30 C29 1.228 . S
O31 Zn20 2.024 1_556 S
O31 C22 1.058 1_556 S
C32 O33 1.228 . S
C32 O34 1.267 1_554 S
O33 C32 1.228 . S
O34 Zn21 1.969 . S
O34 C32 1.267 1_556 S
O35 Zn21 1.965 1_554 S
O35 C39 1.260 . S
O36 Zn20 1.969 . S
O36 C39 1.258 . S
O37 Zn21 2.024 1_554 S
O37 C24 1.058 1_554 S
C38 O27 1.260 . S
C38 O28 1.258 . S
C39 O35 1.260 . S
C39 O36 1.258 . S
Zn40 O46 1.969 . S
Zn40 O47 1.965 1_554 S
Zn40 O51 2.024 1_554 S
Zn40 O56 1.969 . S
Zn41 O48 1.969 . S
Zn41 O54 1.969 . S
Zn41 O55 1.965 1_556 S
Zn41 O57 2.024 1_556 S
C42 O43 1.229 . S
C42 O51 1.058 1_554 S
O43 C42 1.229 . S
C44 O45 1.229 . S
C44 O57 1.058 1_556 S
O45 C44 1.229 . S
O46 Zn40 1.969 . S
O46 C49 1.267 1_554 S
O47 Zn40 1.965 1_556 S
O47 C58 1.260 . S
O48 Zn41 1.969 . S
O48 C58 1.258 . S
C49 O46 1.267 1_556 S
C49 O50 1.228 . S
O50 C49 1.228 . S
O51 Zn40 2.024 1_556 S
O51 C42 1.058 1_556 S
C52 O53 1.228 . S
C52 O54 1.267 1_554 S
O53 C52 1.228 . S
O54 Zn41 1.969 . S
O54 C52 1.267 1_556 S
O55 Zn41 1.965 1_554 S
O55 C59 1.260 . S
O56 Zn40 1.969 . S
O56 C59 1.258 . S
O57 Zn41 2.024 1_554 S
O57 C44 1.058 1_554 S
C58 O47 1.260 . S
C58 O48 1.258 . S
C59 O55 1.260 . S
C59 O56 1.258 . S
Zn60 O66 1.969 . S
Zn60 O67 1.965 1_554 S
Zn60 O71 2.024 1_554 S
Zn60 O76 1.969 . S
Zn61 O68 1.969 . S
Zn61 O74 1.969 . S
Zn61 O75 1.965 1_556 S
Zn61 O77 2.024 1_556 S
C62 O63 1.229 . S
C62 O71 1.058 1_554 S
O63 C62 1.229 . S
C64 O65 1.229 . S
C64 O77 1.058 1_556 S
O65 C64 1.229 . S
O66 Zn60 1.969 . S
O66 C69 1.267 1_554 S
O67 Zn60 1.965 1_556 S
O67 C78 1.260 . S
O68 Zn61 1.969 . S
O68 C78 1.258 . S
C69 O66 1.267 1_556 S
C69 O70 1.228 . S
O70 C69 1.228 . S
O71 Zn60 2.024 1_556 S
O71 C62 1.058 1_556 S
C72 O73 1.228 . S
C72 O74 1.267 1_554 S
O73 C72 1.228 . S
O74 Zn61 1.969 . S
O74 C72 1.267 1_556 S
O75 Zn61 1.965 1_554 S
O75 C79 1.260 . S
O76 Zn60 1.969 . S
O76 C79 1.258 . S
O77 Zn61 2.024 1_554 S
O77 C64 1.058 1_554 S
C78 O67 1.260 . S
C78 O68 1.258 . S
C79 O75 1.260 . S
C79 O76 1.258 . S
Zn80 O86 1.969 . S
Zn80 O87 1.965 1_554 S
Zn80 O91 2.024 1_554 S
Zn80 O96 1.969 . S
Zn81 O88 1.969 . S
Zn81 O94 1.969 . S
Zn81 O95 1.965 1_556 S
Zn81 O97 2.024 1_556 S
C82 O83 1.229 . S
C82 O91 1.058 1_554 S
O83 C82 1.229 . S
C84 O85 1.229 . S
C84 O97 1.058 1_556 S
O85 C84 1.229 . S
O86 Zn80 1.969 . S
O86 C89 1.267 1_554 S
O87 Zn80 1.965 1_556 S
O87 C98 1.260 . S
O88 Zn81 1.969 . S
O88 C98 1.258 . S
C89 O86 1.267 1_556 S
C89 O90 1.228 . S
O90 C89 1.228 . S
O91 Zn80 2.024 1_556 S
O91 C82 1.058 1_556 S
C92 O93 1.228 . S
C92 O94 1.267 1_554 S
O93 C92 1.228 . S
O94 Zn81 1.969 . S
O94 C92 1.267 1_556 S
O95 Zn81 1.965 1_554 S
O95 C99 1.260 . S
O96 Zn80 1.969 . S
O96 C99 1.258 . S
O97 Zn81 2.024 1_554 S
O97 C84 1.058 1_554 S
C98 O87 1.260 . S
C98 O88 1.258 . S
C99 O95 1.260 . S
C99 O96 1.258 . S
Zn100 O106 1.969 . S
Zn100 O107 1.965 1_554 S
Zn100 O111 2.024 1_554 S
Zn100 O116 1.969 . S
Zn101 O108 1.969 . S
Zn101 O114 1.969 . S
Zn101 O115 1.965 1_556 S
Zn101 O117 2.024 1_556 S
C102 O103 1.229 . S
C102 O111 1.058 1_554 S
O103 C102 1.229 . S
C104 O105 1.229 . S
C104 O117 1.058 1_556 S
O105 C104 1.229 . S
O106 Zn100 1.969 . S
O106 C109 1.267 1_554 S
O107 Zn100 1.965 1_556 S
O107 C118 1.260 . S
O108 Zn101 1.969 . S
O108 C118 1.258 . S
C109 O106 1.267 1_556 S
C109 O110 1.228 . S
O110 C109 1.228 . S
O111 Zn100 2.024 1_556 S
O111 C102 1.058 1_556 S
C112 O113 1.228 . S
C112 O114 1.267 1_554 S
O113 C112 1.228 . S
O114 Zn101 1.969 . S
O114 C112 1.267 1_556 S
O115 Zn101 1.965 1_554 S
O115 C119 1.260 . S
O116 Zn100 1.969 . S
O116 C119 1.258 . S
O117 Zn101 2.024 1_554 S
O117 C104 1.058 1_554 S
C118 O107 1.260 . S
C118 O108 1.258 . S
C119 O115 1.260 . S
C119 O116 1.258 . S
H120 C126 0.930 . S
H121 C129 0.930 . S
H122 C130 0.930 . S
H123 C131 0.930 . S
H124 C134 0.930 . S
H125 C135 0.930 . S
C126 H120 0.930 . S
C126 C127 1.355 1_554 S
C126 C128 1.415 . S
C127 C126 1.355 1_556 S
C127 C129 1.419 . S
C128 C126 1.415 . S
C128 C133 1.425 1_554 S
C128 C135 1.409 . S
C129 H121 0.930 . S
C129 C127 1.419 . S
C129 C130 1.362 . S
C130 H122 0.930 . S
C130 C129 1.362 . S
C130 C133 1.409 . S
C131 H123 0.930 . S
C131 C132 1.355 1_556 S
C131 C133 1.415 . S
C132 C131 1.355 1_554 S
C132 C134 1.419 . S
C133 C128 1.425 1_556 S
C133 C130 1.409 . S
C133 C131 1.415 . S
C134 H124 0.930 . S
C134 C132 1.419 . S
C134 C135 1.362 . S
C135 H125 0.930 . S
C135 C128 1.409 . S
C135 C134 1.362 . S
H136 C142 0.930 . S
H137 C145 0.930 . S
H138 C146 0.930 . S
H139 C147 0.930 . S
H140 C150 0.930 . S
H141 C151 0.930 . S
C142 H136 0.930 . S
C142 C143 1.355 1_556 S
C142 C144 1.414 1_556 S
C143 C142 1.355 1_554 S
C143 C145 1.419 . S
C144 C142 1.414 1_554 S
C144 C149 1.422 . S
C144 C151 1.408 1_454 S
C145 H137 0.930 . S
C145 C143 1.419 . S
C145 C146 1.362 . S
C146 H138 0.930 . S
C146 C145 1.362 . S
C146 C149 1.435 . S
C147 H139 0.930 . S
C147 C148 1.355 . S
C147 C149 1.394 1_655 S
C148 C147 1.355 . S
C148 C150 1.419 1_554 S
C149 C144 1.422 . S
C149 C146 1.435 . S
C149 C147 1.394 1_455 S
C150 H140 0.930 . S
C150 C148 1.419 1_556 S
C150 C151 1.362 . S
C151 H141 0.930 . S
C151 C144 1.408 1_656 S
C151 C150 1.362 . S
H152 C158 0.930 . S
H153 C161 0.930 . S
H154 C162 0.930 . S
H155 C163 0.930 . S
H156 C166 0.930 . S
H157 C167 0.930 . S
C158 H152 0.930 . S
C158 C159 1.355 1_556 S
C158 C160 1.415 . S
C159 C158 1.355 1_554 S
C159 C161 1.419 . S
C160 C158 1.415 . S
C160 C165 1.450 1_556 S
C160 C167 1.409 1_545 S
C161 H153 0.930 . S
C161 C159 1.419 . S
C161 C162 1.362 . S
C162 H154 0.930 . S
C162 C161 1.362 . S
C162 C165 1.421 . S
C163 H155 0.930 . S
C163 C164 1.355 . S
C163 C165 1.380 1_565 S
C164 C163 1.355 . S
C164 C166 1.419 1_554 S
C165 C160 1.450 1_554 S
C165 C162 1.421 . S
C165 C163 1.380 1_545 S
C166 H156 0.930 . S
C166 C164 1.419 1_556 S
C166 C167 1.362 . S
C167 H157 0.930 . S
C167 C160 1.409 1_565 S
C167 C166 1.362 . S
H168 C174 0.930 . S
H169 C177 0.930 . S
H170 C178 0.930 . S
H171 C179 0.930 . S
H172 C182 0.930 . S
H173 C183 0.930 . S
C174 H168 0.930 . S
C174 C175 1.355 . S
C174 C176 1.415 . S
C175 C174 1.355 . S
C175 C177 1.419 1_554 S
C176 C174 1.415 . S
C176 C181 1.425 1_554 S
C176 C183 1.409 . S
C177 H169 0.930 . S
C177 C175 1.419 1_556 S
C177 C178 1.362 . S
C178 H170 0.930 . S
C178 C177 1.362 . S
C178 C181 1.409 . S
C179 H171 0.930 . S
C179 C180 1.355 1_556 S
C179 C181 1.415 . S
C180 C179 1.355 1_554 S
C180 C182 1.419 . S
C181 C176 1.425 1_556 S
C181 C178 1.409 . S
C181 C179 1.415 . S
C182 H172 0.930 . S
C182 C180 1.419 . S
C182 C183 1.362 . S
C183 H173 0.930 . S
C183 C176 1.409 . S
C183 C182 1.362 . S
H184 C190 0.930 . S
H185 C193 0.930 . S
H186 C194 0.930 1_556 S
H187 C195 0.930 1_556 S
H188 C198 0.930 . S
H189 C199 0.930 . S
C190 H184 0.930 . S
C190 C191 1.355 . S
C190 C192 1.442 . S
C191 C190 1.355 . S
C191 C193 1.419 . S
C192 C190 1.442 . S
C192 C197 1.402 1_455 S
C192 C199 1.404 1_455 S
C193 H185 0.930 . S
C193 C191 1.419 . S
C193 C194 1.362 . S
C194 H186 0.930 1_554 S
C194 C193 1.362 . S
C194 C197 1.409 1_455 S
C195 H187 0.930 1_554 S
C195 C196 1.355 . S
C195 C197 1.415 . S
C196 C195 1.355 . S
C196 C198 1.419 . S
C197 C192 1.402 1_655 S
C197 C194 1.409 1_655 S
C197 C195 1.415 . S
C198 H188 0.930 . S
C198 C196 1.419 . S
C198 C199 1.362 . S
C199 H189 0.930 . S
C199 C192 1.404 1_655 S
C199 C198 1.362 . S
H200 C206 0.930 . S
H201 C209 0.930 . S
H202 C210 0.930 . S
H203 C211 0.930 . S
H204 C214 0.930 . S
H205 C215 0.930 . S
C206 H200 0.930 . S
C206 C207 1.355 1_554 S
C206 C208 1.415 . S
C207 C206 1.355 1_556 S
C207 C209 1.419 . S
C208 C206 1.415 . S
C208 C213 1.425 1_565 S
C208 C215 1.409 1_565 S
C209 H201 0.930 . S
C209 C207 1.419 . S
C209 C210 1.362 . S
C210 H202 0.930 . S
C210 C209 1.362 . S
C210 C213 1.409 1_566 S
C211 H203 0.930 . S
C211 C212 1.355 . S
C211 C213 1.415 . S
C212 C211 1.355 . S
C212 C214 1.419 . S
C213 C208 1.425 1_545 S
C213 C210 1.409 1_544 S
C213 C211 1.415 . S
C214 H204 0.930 . S
C214 C212 1.419 . S
C214 C215 1.362 . S
C215 H205 0.930 . S
C215 C208 1.409 1_545 S
C215 C214 1.362 . S
H216 C222 0.930 . S
H217 C225 0.930 . S
H218 C226 0.930 . S
H219 C227 0.930 . S
H220 C230 0.930 . S
H221 C231 0.930 . S
C222 H216 0.930 . S
C222 C223 1.355 1_556 S
C222 C224 1.415 . S
C223 C222 1.355 1_554 S
C223 C225 1.419 . S
C224 C222 1.415 . S
C224 C229 1.425 1_556 S
C224 C231 1.409 . S
C225 H217 0.930 . S
C225 C223 1.419 . S
C225 C226 1.362 . S
C226 H218 0.930 . S
C226 C225 1.362 . S
C226 C229 1.409 . S
C227 H219 0.930 . S
C227 C228 1.355 1_554 S
C227 C229 1.415 . S
C228 C227 1.355 1_556 S
C228 C230 1.419 . S
C229 C224 1.425 1_554 S
C229 C226 1.409 . S
C229 C227 1.415 . S
C230 H220 0.930 . S
C230 C228 1.419 . S
C230 C231 1.362 . S
C231 H221 0.930 . S
C231 C224 1.409 . S
C231 C230 1.362 . S
H232 C238 0.930 . S
H233 C241 0.930 . S
H234 C242 0.930 . S
H235 C243 0.930 . S
H236 C246 0.930 . S
H237 C247 0.930 . S
C238 H232 0.930 . S
C238 C239 1.355 1_556 S
C238 C240 1.415 . S
C239 C238 1.355 1_554 S
C239 C241 1.419 . S
C240 C238 1.415 . S
C240 C245 1.425 1_556 S
C240 C247 1.409 . S
C241 H233 0.930 . S
C241 C239 1.419 . S
C241 C242 1.362 . S
C242 H234 0.930 . S
C242 C241 1.362 . S
C242 C245 1.409 . S
C243 H235 0.930 . S
C243 C244 1.355 1_554 S
C243 C245 1.415 . S
C244 C243 1.355 1_556 S
C244 C246 1.419 . S
C245 C240 1.425 1_554 S
C245 C242 1.409 . S
C245 C243 1.415 . S
C246 H236 0.930 . S
C246 C244 1.419 . S
C246 C247 1.362 . S
C247 H237 0.930 . S
C247 C240 1.409 . S
C247 C246 1.362 . S
H248 C254 0.930 . S
H249 C257 0.930 . S
H250 C258 0.930 . S
H251 C259 0.930 . S
H252 C262 0.930 . S
H253 C263 0.930 . S
C254 H248 0.930 . S
C254 C255 1.355 . S
C254 C256 1.415 . S
C255 C254 1.355 . S
C255 C257 1.419 1_556 S
C256 C254 1.415 . S
C256 C261 1.425 1_556 S
C256 C263 1.409 . S
C257 H249 0.930 . S
C257 C255 1.419 1_554 S
C257 C258 1.362 . S
C258 H250 0.930 . S
C258 C257 1.362 . S
C258 C261 1.409 . S
C259 H251 0.930 . S
C259 C260 1.355 1_554 S
C259 C261 1.415 . S
C260 C259 1.355 1_556 S
C260 C262 1.419 . S
C261 C256 1.425 1_554 S
C261 C258 1.409 . S
C261 C259 1.415 . S
C262 H252 0.930 . S
C262 C260 1.419 . S
C262 C263 1.362 . S
C263 H253 0.930 . S
C263 C256 1.409 . S
C263 C262 1.362 . S
H264 C270 0.930 . S
H265 C273 0.930 . S
H266 C274 0.930 . S
H267 C275 0.930 . S
H268 C278 0.930 . S
H269 C279 0.930 . S
C270 H264 0.930 . S
C270 C271 1.355 1_554 S
C270 C272 1.415 . S
C271 C270 1.355 1_556 S
C271 C273 1.419 . S
C272 C270 1.415 . S
C272 C277 1.425 1_554 S
C272 C279 1.409 . S
C273 H265 0.930 . S
C273 C271 1.419 . S
C273 C274 1.362 . S
C274 H266 0.930 . S
C274 C273 1.362 . S
C274 C277 1.409 . S
C275 H267 0.930 . S
C275 C276 1.355 1_556 S
C275 C277 1.415 . S
C276 C275 1.355 1_554 S
C276 C278 1.419 . S
C277 C272 1.425 1_556 S
C277 C274 1.409 . S
C277 C275 1.415 . S
C278 H268 0.930 . S
C278 C276 1.419 . S
C278 C279 1.362 . S
C279 H269 0.930 . S
C279 C272 1.409 . S
C279 C278 1.362 . S
H280 C286 0.930 . S
H281 C289 0.930 . S
H282 C290 0.930 . S
H283 C291 0.930 . S
H284 C294 0.930 . S
H285 C295 0.930 . S
C286 H280 0.930 . S
C286 C287 1.355 . S
C286 C288 1.415 . S
C287 C286 1.355 . S
C287 C289 1.419 1_556 S
C288 C286 1.415 . S
C288 C293 1.425 1_556 S
C288 C295 1.409 . S
C289 H281 0.930 . S
C289 C287 1.419 1_554 S
C289 C290 1.362 . S
C290 H282 0.930 . S
C290 C289 1.362 . S
C290 C293 1.409 . S
C291 H283 0.930 . S
C291 C292 1.355 1_554 S
C291 C293 1.415 . S
C292 C291 1.355 1_556 S
C292 C294 1.419 . S
C293 C288 1.425 1_554 S
C293 C290 1.409 . S
C293 C291 1.415 . S
C294 H284 0.930 . S
C294 C292 1.419 . S
C294 C295 1.362 . S
C295 H285 0.930 . S
C295 C288 1.409 . S
C295 C294 1.362 . S
H296 C302 0.930 . S
H297 C305 0.930 . S
H298 C306 0.930 . S
H299 C307 0.930 . S
H300 C310 0.930 . S
H301 C311 0.930 . S
C302 H296 0.930 . S
C302 C303 1.355 1_556 S
C302 C304 1.415 . S
C303 C302 1.355 1_554 S
C303 C305 1.419 . S
C304 C302 1.415 . S
C304 C309 1.425 1_556 S
C304 C311 1.409 . S
C305 H297 0.930 . S
C305 C303 1.419 . S
C305 C306 1.362 . S
C306 H298 0.930 . S
C306 C305 1.362 . S
C306 C309 1.409 . S
C307 H299 0.930 . S
C307 C308 1.355 1_554 S
C307 C309 1.415 . S
C308 C307 1.355 1_556 S
C308 C310 1.419 . S
C309 C304 1.425 1_554 S
C309 C306 1.409 . S
C309 C307 1.415 . S
C310 H300 0.930 . S
C310 C308 1.419 . S
C310 C311 1.362 . S
C311 H301 0.930 . S
C311 C304 1.409 . S
C311 C310 1.362 . S
H312 C318 0.930 . S
H313 C321 0.930 . S
H314 C322 0.930 . S
H315 C323 0.930 . S
H316 C326 0.930 . S
H317 C327 0.930 . S
C318 H312 0.930 . S
C318 C319 1.355 . S
C318 C320 1.415 . S
C319 C318 1.355 . S
C319 C321 1.419 . S
C320 C318 1.415 . S
C320 C325 1.425 . S
C320 C327 1.409 . S
C321 H313 0.930 . S
C321 C319 1.419 . S
C321 C322 1.362 . S
C322 H314 0.930 . S
C322 C321 1.362 . S
C322 C325 1.409 . S
C323 H315 0.930 . S
C323 C324 1.355 . S
C323 C325 1.415 . S
C324 C323 1.355 . S
C324 C326 1.419 . S
C325 C320 1.425 . S
C325 C322 1.409 . S
C325 C323 1.415 . S
C326 H316 0.930 . S
C326 C324 1.419 . S
C326 C327 1.362 . S
C327 H317 0.930 . S
C327 C320 1.409 . S
C327 C326 1.362 . S
H328 C334 0.930 . S
H329 C337 0.930 . S
H330 C338 0.930 . S
H331 C339 0.930 . S
H332 C342 0.930 . S
H333 C343 0.930 . S
C334 H328 0.930 . S
C334 C335 1.355 . S
C334 C336 1.415 . S
C335 C334 1.355 . S
C335 C337 1.419 . S
C336 C334 1.415 . S
C336 C341 1.425 . S
C336 C343 1.409 . S
C337 H329 0.930 . S
C337 C335 1.419 . S
C337 C338 1.362 . S
C338 H330 0.930 . S
C338 C337 1.362 . S
C338 C341 1.409 . S
C339 H331 0.930 . S
C339 C340 1.355 . S
C339 C341 1.415 . S
C340 C339 1.355 . S
C340 C342 1.419 . S
C341 C336 1.425 . S
C341 C338 1.409 . S
C341 C339 1.415 . S
C342 H332 0.930 . S
C342 C340 1.419 . S
C342 C343 1.362 . S
C343 H333 0.930 . S
C343 C336 1.409 . S
C343 C342 1.362 . S
H344 C350 0.930 . S
H345 C353 0.930 . S
H346 C354 0.930 . S
H347 C355 0.930 . S
H348 C358 0.930 . S
H349 C359 0.930 . S
C350 H344 0.930 . S
C350 C351 1.355 . S
C350 C352 1.415 . S
C351 C350 1.355 . S
C351 C353 1.419 . S
C352 C350 1.415 . S
C352 C357 1.425 . S
C352 C359 1.409 . S
C353 H345 0.930 . S
C353 C351 1.419 . S
C353 C354 1.362 . S
C354 H346 0.930 . S
C354 C353 1.362 . S
C354 C357 1.409 . S
C355 H347 0.930 . S
C355 C356 1.355 . S
C355 C357 1.415 . S
C356 C355 1.355 . S
C356 C358 1.419 . S
C357 C352 1.425 . S
C357 C354 1.409 . S
C357 C355 1.415 . S
C358 H348 0.930 . S
C358 C356 1.419 . S
C358 C359 1.362 . S
C359 H349 0.930 . S
C359 C352 1.409 . S
C359 C358 1.362 . S
H360 C366 0.930 . S
H361 C369 0.930 . S
H362 C370 0.930 . S
H363 C371 0.930 . S
H364 C374 0.930 . S
H365 C375 0.930 . S
C366 H360 0.930 . S
C366 C367 1.355 . S
C366 C368 1.415 . S
C367 C366 1.355 . S
C367 C369 1.419 . S
C368 C366 1.415 . S
C368 C373 1.425 . S
C368 C375 1.409 . S
C369 H361 0.930 . S
C369 C367 1.419 . S
C369 C370 1.362 . S
C370 H362 0.930 . S
C370 C369 1.362 . S
C370 C373 1.409 . S
C371 H363 0.930 . S
C371 C372 1.355 . S
C371 C373 1.415 . S
C372 C371 1.355 . S
C372 C374 1.419 . S
C373 C368 1.425 . S
C373 C370 1.409 . S
C373 C371 1.415 . S
C374 H364 0.930 . S
C374 C372 1.419 . S
C374 C375 1.362 . S
C375 H365 0.930 . S
C375 C368 1.409 . S
C375 C374 1.362 . S
H376 C382 0.930 . S
H377 C385 0.930 . S
H378 C386 0.930 . S
H379 C387 0.930 . S
H380 C390 0.930 . S
H381 C391 0.930 . S
C382 H376 0.930 . S
C382 C383 1.355 . S
C382 C384 1.415 . S
C383 C382 1.355 . S
C383 C385 1.419 . S
C384 C382 1.415 . S
C384 C389 1.425 . S
C384 C391 1.409 . S
C385 H377 0.930 . S
C385 C383 1.419 . S
C385 C386 1.362 . S
C386 H378 0.930 . S
C386 C385 1.362 . S
C386 C389 1.409 . S
C387 H379 0.930 . S
C387 C388 1.355 . S
C387 C389 1.415 . S
C388 C387 1.355 . S
C388 C390 1.419 . S
C389 C384 1.425 . S
C389 C386 1.409 . S
C389 C387 1.415 . S
C390 H380 0.930 . S
C390 C388 1.419 . S
C390 C391 1.362 . S
C391 H381 0.930 . S
C391 C384 1.409 . S
C391 C390 1.362 . S
H392 C398 0.930 . S
H393 C401 0.930 . S
H394 C402 0.930 . S
H395 C403 0.930 . S
H396 C406 0.930 . S
H397 C407 0.930 . S
C398 H392 0.930 . S
C398 C399 1.355 . S
C398 C400 1.415 . S
C399 C398 1.355 . S
C399 C401 1.419 . S
C400 C398 1.415 . S
C400 C405 1.425 . S
C400 C407 1.409 . S
C401 H393 0.930 . S
C401 C399 1.419 . S
C401 C402 1.362 . S
C402 H394 0.930 . S
C402 C401 1.362 . S
C402 C405 1.409 . S
C403 H395 0.930 . S
C403 C404 1.355 . S
C403 C405 1.415 . S
C404 C403 1.355 . S
C404 C406 1.419 . S
C405 C400 1.425 . S
C405 C402 1.409 . S
C405 C403 1.415 . S
C406 H396 0.930 . S
C406 C404 1.419 . S
C406 C407 1.362 . S
C407 H397 0.930 . S
C407 C400 1.409 . S
C407 C406 1.362 . S
C127 C104 1.516 . S
C132 C12 1.520 . S
C143 C4 1.497 1_554 S
C148 C32 1.513 . S
C159 C24 1.499 1_554 S
C164 C52 1.513 . S
C175 C72 1.518 . S
C180 C44 1.513 1_554 S
C191 C92 1.521 . S
C196 C64 1.523 1_554 S
C207 C84 1.520 . S
C212 C112 1.521 . S
C223 C82 1.625 . S
C228 C9 1.622 . S
C239 C102 1.602 . S
C244 C29 1.637 . S
C255 C49 1.625 . S
C260 C2 1.627 1_556 S
C271 C69 1.639 . S
C276 C22 1.599 . S
C287 C89 1.633 . S
C292 C42 1.616 1_556 S
C303 C62 1.560 . S
C308 C109 1.667 . S
C319 C18 1.494 . S
C324 C19 1.494 . S
C335 C38 1.511 . S
C340 C39 1.511 . S
C351 C58 1.509 . S
C356 C59 1.509 . S
C367 C78 1.480 . S
C372 C79 1.480 . S
C383 C99 1.503 . S
C388 C98 1.503 . S
C399 C118 1.513 . S
C404 C119 1.513 . S
