# Generated by pormake.
# Topology vcc, (6)-cn, num edge types: 1
# Building blocks:
#     Node 0, Type 0, BuildingBlock: JUFBIX_clean_sbu_0, # of connection points: 6
#     Node 1, Type 0, BuildingBlock: JUFBIX_clean_sbu_0, # of connection points: 6
#     Node 2, Type 0, BuildingBlock: JUFBIX_clean_sbu_0, # of connection points: 6
#     Node 3, Type 0, BuildingBlock: JUFBIX_clean_sbu_0, # of connection points: 6
#     Node 4, Type 0, BuildingBlock: JUFBIX_clean_sbu_0, # of connection points: 6
#     Node 5, Type 0, BuildingBlock: JUFBIX_clean_sbu_0, # of connection points: 6
#     Node 6, Type 0, BuildingBlock: JUFBIX_clean_sbu_0, # of connection points: 6
#     Node 7, Type 0, BuildingBlock: JUFBIX_clean_sbu_0, # of connection points: 6
#     Node 8, Type 0, BuildingBlock: JUFBIX_clean_sbu_0, # of connection points: 6
#     Node 9, Type 0, BuildingBlock: JUFBIX_clean_sbu_0, # of connection points: 6
#     Node 10, Type 0, BuildingBlock: JUFBIX_clean_sbu_0, # of connection points: 6
#     Node 11, Type 0, BuildingBlock: JUFBIX_clean_sbu_0, # of connection points: 6
#     Node 12, Type 0, BuildingBlock: JUFBIX_clean_sbu_0, # of connection points: 6
#     Node 13, Type 0, BuildingBlock: JUFBIX_clean_sbu_0, # of connection points: 6
#     Node 14, Type 0, BuildingBlock: JUFBIX_clean_sbu_0, # of connection points: 6
#     Node 15, Type 0, BuildingBlock: JUFBIX_clean_sbu_0, # of connection points: 6
#     Node 16, Type 0, BuildingBlock: JUFBIX_clean_sbu_0, # of connection points: 6
#     Node 17, Type 0, BuildingBlock: JUFBIX_clean_sbu_0, # of connection points: 6
#     Node 18, Type 0, BuildingBlock: JUFBIX_clean_sbu_0, # of connection points: 6
#     Node 19, Type 0, BuildingBlock: JUFBIX_clean_sbu_0, # of connection points: 6
#     Node 20, Type 0, BuildingBlock: JUFBIX_clean_sbu_0, # of connection points: 6
#     Node 21, Type 0, BuildingBlock: JUFBIX_clean_sbu_0, # of connection points: 6
#     Node 22, Type 0, BuildingBlock: JUFBIX_clean_sbu_0, # of connection points: 6
#     Node 23, Type 0, BuildingBlock: JUFBIX_clean_sbu_0, # of connection points: 6
#     Node 24, Type 0, BuildingBlock: JUFBIX_clean_sbu_0, # of connection points: 6
#     Node 25, Type 0, BuildingBlock: JUFBIX_clean_sbu_0, # of connection points: 6
#     Node 26, Type 0, BuildingBlock: JUFBIX_clean_sbu_0, # of connection points: 6
#     Node 27, Type 0, BuildingBlock: JUFBIX_clean_sbu_0, # of connection points: 6
#     Node 28, Type 0, BuildingBlock: JUFBIX_clean_sbu_0, # of connection points: 6
#     Node 29, Type 0, BuildingBlock: JUFBIX_clean_sbu_0, # of connection points: 6
#     Node 30, Type 0, BuildingBlock: JUFBIX_clean_sbu_0, # of connection points: 6
#     Node 31, Type 0, BuildingBlock: JUFBIX_clean_sbu_0, # of connection points: 6
#     Edge 32, Type (0, 0), BuildingBlock: AJUNOK_clean_linker_0, # of connection points: 2
#     Edge 33, Type (0, 0), BuildingBlock: AJUNOK_clean_linker_0, # of connection points: 2
#     Edge 34, Type (0, 0), BuildingBlock: AJUNOK_clean_linker_0, # of connection points: 2
#     Edge 35, Type (0, 0), BuildingBlock: AJUNOK_clean_linker_0, # of connection points: 2
#     Edge 36, Type (0, 0), BuildingBlock: AJUNOK_clean_linker_0, # of connection points: 2
#     Edge 37, Type (0, 0), BuildingBlock: AJUNOK_clean_linker_0, # of connection points: 2
#     Edge 38, Type (0, 0), BuildingBlock: AJUNOK_clean_linker_0, # of connection points: 2
#     Edge 39, Type (0, 0), BuildingBlock: AJUNOK_clean_linker_0, # of connection points: 2
#     Edge 40, Type (0, 0), BuildingBlock: AJUNOK_clean_linker_0, # of connection points: 2
#     Edge 41, Type (0, 0), BuildingBlock: AJUNOK_clean_linker_0, # of connection points: 2
#     Edge 42, Type (0, 0), BuildingBlock: AJUNOK_clean_linker_0, # of connection points: 2
#     Edge 43, Type (0, 0), BuildingBlock: AJUNOK_clean_linker_0, # of connection points: 2
#     Edge 44, Type (0, 0), BuildingBlock: AJUNOK_clean_linker_0, # of connection points: 2
#     Edge 45, Type (0, 0), BuildingBlock: AJUNOK_clean_linker_0, # of connection points: 2
#     Edge 46, Type (0, 0), BuildingBlock: AJUNOK_clean_linker_0, # of connection points: 2
#     Edge 47, Type (0, 0), BuildingBlock: AJUNOK_clean_linker_0, # of connection points: 2
#     Edge 48, Type (0, 0), BuildingBlock: AJUNOK_clean_linker_0, # of connection points: 2
#     Edge 49, Type (0, 0), BuildingBlock: AJUNOK_clean_linker_0, # of connection points: 2
#     Edge 50, Type (0, 0), BuildingBlock: AJUNOK_clean_linker_0, # of connection points: 2
#     Edge 51, Type (0, 0), BuildingBlock: AJUNOK_clean_linker_0, # of connection points: 2
#     Edge 52, Type (0, 0), BuildingBlock: AJUNOK_clean_linker_0, # of connection points: 2
#     Edge 53, Type (0, 0), BuildingBlock: AJUNOK_clean_linker_0, # of connection points: 2
#     Edge 54, Type (0, 0), BuildingBlock: AJUNOK_clean_linker_0, # of connection points: 2
#     Edge 55, Type (0, 0), BuildingBlock: AJUNOK_clean_linker_0, # of connection points: 2
#     Edge 56, Type (0, 0), BuildingBlock: AJUNOK_clean_linker_0, # of connection points: 2
#     Edge 57, Type (0, 0), BuildingBlock: AJUNOK_clean_linker_0, # of connection points: 2
#     Edge 58, Type (0, 0), BuildingBlock: AJUNOK_clean_linker_0, # of connection points: 2
#     Edge 59, Type (0, 0), BuildingBlock: AJUNOK_clean_linker_0, # of connection points: 2
#     Edge 60, Type (0, 0), BuildingBlock: AJUNOK_clean_linker_0, # of connection points: 2
#     Edge 61, Type (0, 0), BuildingBlock: AJUNOK_clean_linker_0, # of connection points: 2
#     Edge 62, Type (0, 0), BuildingBlock: AJUNOK_clean_linker_0, # of connection points: 2
#     Edge 63, Type (0, 0), BuildingBlock: AJUNOK_clean_linker_0, # of connection points: 2
#     Edge 64, Type (0, 0), BuildingBlock: AJUNOK_clean_linker_0, # of connection points: 2
#     Edge 65, Type (0, 0), BuildingBlock: AJUNOK_clean_linker_0, # of connection points: 2
#     Edge 66, Type (0, 0), BuildingBlock: AJUNOK_clean_linker_0, # of connection points: 2
#     Edge 67, Type (0, 0), BuildingBlock: AJUNOK_clean_linker_0, # of connection points: 2
#     Edge 68, Type (0, 0), BuildingBlock: AJUNOK_clean_linker_0, # of connection points: 2
#     Edge 69, Type (0, 0), BuildingBlock: AJUNOK_clean_linker_0, # of connection points: 2
#     Edge 70, Type (0, 0), BuildingBlock: AJUNOK_clean_linker_0, # of connection points: 2
#     Edge 71, Type (0, 0), BuildingBlock: AJUNOK_clean_linker_0, # of connection points: 2
#     Edge 72, Type (0, 0), BuildingBlock: AJUNOK_clean_linker_0, # of connection points: 2
#     Edge 73, Type (0, 0), BuildingBlock: AJUNOK_clean_linker_0, # of connection points: 2
#     Edge 74, Type (0, 0), BuildingBlock: AJUNOK_clean_linker_0, # of connection points: 2
#     Edge 75, Type (0, 0), BuildingBlock: AJUNOK_clean_linker_0, # of connection points: 2
#     Edge 76, Type (0, 0), BuildingBlock: AJUNOK_clean_linker_0, # of connection points: 2
#     Edge 77, Type (0, 0), BuildingBlock: AJUNOK_clean_linker_0, # of connection points: 2
#     Edge 78, Type (0, 0), BuildingBlock: AJUNOK_clean_linker_0, # of connection points: 2
#     Edge 79, Type (0, 0), BuildingBlock: AJUNOK_clean_linker_0, # of connection points: 2
#     Edge 80, Type (0, 0), BuildingBlock: AJUNOK_clean_linker_0, # of connection points: 2
#     Edge 81, Type (0, 0), BuildingBlock: AJUNOK_clean_linker_0, # of connection points: 2
#     Edge 82, Type (0, 0), BuildingBlock: AJUNOK_clean_linker_0, # of connection points: 2
#     Edge 83, Type (0, 0), BuildingBlock: AJUNOK_clean_linker_0, # of connection points: 2
#     Edge 84, Type (0, 0), BuildingBlock: AJUNOK_clean_linker_0, # of connection points: 2
#     Edge 85, Type (0, 0), BuildingBlock: AJUNOK_clean_linker_0, # of connection points: 2
#     Edge 86, Type (0, 0), BuildingBlock: AJUNOK_clean_linker_0, # of connection points: 2
#     Edge 87, Type (0, 0), BuildingBlock: AJUNOK_clean_linker_0, # of connection points: 2
#     Edge 88, Type (0, 0), BuildingBlock: AJUNOK_clean_linker_0, # of connection points: 2
#     Edge 89, Type (0, 0), BuildingBlock: AJUNOK_clean_linker_0, # of connection points: 2
#     Edge 90, Type (0, 0), BuildingBlock: AJUNOK_clean_linker_0, # of connection points: 2
#     Edge 91, Type (0, 0), BuildingBlock: AJUNOK_clean_linker_0, # of connection points: 2
#     Edge 92, Type (0, 0), BuildingBlock: AJUNOK_clean_linker_0, # of connection points: 2
#     Edge 93, Type (0, 0), BuildingBlock: AJUNOK_clean_linker_0, # of connection points: 2
#     Edge 94, Type (0, 0), BuildingBlock: AJUNOK_clean_linker_0, # of connection points: 2
#     Edge 95, Type (0, 0), BuildingBlock: AJUNOK_clean_linker_0, # of connection points: 2
#     Edge 96, Type (0, 0), BuildingBlock: AJUNOK_clean_linker_0, # of connection points: 2
#     Edge 97, Type (0, 0), BuildingBlock: AJUNOK_clean_linker_0, # of connection points: 2
#     Edge 98, Type (0, 0), BuildingBlock: AJUNOK_clean_linker_0, # of connection points: 2
#     Edge 99, Type (0, 0), BuildingBlock: AJUNOK_clean_linker_0, # of connection points: 2
#     Edge 100, Type (0, 0), BuildingBlock: AJUNOK_clean_linker_0, # of connection points: 2
#     Edge 101, Type (0, 0), BuildingBlock: AJUNOK_clean_linker_0, # of connection points: 2
#     Edge 102, Type (0, 0), BuildingBlock: AJUNOK_clean_linker_0, # of connection points: 2
#     Edge 103, Type (0, 0), BuildingBlock: AJUNOK_clean_linker_0, # of connection points: 2
#     Edge 104, Type (0, 0), BuildingBlock: AJUNOK_clean_linker_0, # of connection points: 2
#     Edge 105, Type (0, 0), BuildingBlock: AJUNOK_clean_linker_0, # of connection points: 2
#     Edge 106, Type (0, 0), BuildingBlock: AJUNOK_clean_linker_0, # of connection points: 2
#     Edge 107, Type (0, 0), BuildingBlock: AJUNOK_clean_linker_0, # of connection points: 2
#     Edge 108, Type (0, 0), BuildingBlock: AJUNOK_clean_linker_0, # of connection points: 2
#     Edge 109, Type (0, 0), BuildingBlock: AJUNOK_clean_linker_0, # of connection points: 2
#     Edge 110, Type (0, 0), BuildingBlock: AJUNOK_clean_linker_0, # of connection points: 2
#     Edge 111, Type (0, 0), BuildingBlock: AJUNOK_clean_linker_0, # of connection points: 2
#     Edge 112, Type (0, 0), BuildingBlock: AJUNOK_clean_linker_0, # of connection points: 2
#     Edge 113, Type (0, 0), BuildingBlock: AJUNOK_clean_linker_0, # of connection points: 2
#     Edge 114, Type (0, 0), BuildingBlock: AJUNOK_clean_linker_0, # of connection points: 2
#     Edge 115, Type (0, 0), BuildingBlock: AJUNOK_clean_linker_0, # of connection points: 2
#     Edge 116, Type (0, 0), BuildingBlock: AJUNOK_clean_linker_0, # of connection points: 2
#     Edge 117, Type (0, 0), BuildingBlock: AJUNOK_clean_linker_0, # of connection points: 2
#     Edge 118, Type (0, 0), BuildingBlock: AJUNOK_clean_linker_0, # of connection points: 2
#     Edge 119, Type (0, 0), BuildingBlock: AJUNOK_clean_linker_0, # of connection points: 2
#     Edge 120, Type (0, 0), BuildingBlock: AJUNOK_clean_linker_0, # of connection points: 2
#     Edge 121, Type (0, 0), BuildingBlock: AJUNOK_clean_linker_0, # of connection points: 2
#     Edge 122, Type (0, 0), BuildingBlock: AJUNOK_clean_linker_0, # of connection points: 2
#     Edge 123, Type (0, 0), BuildingBlock: AJUNOK_clean_linker_0, # of connection points: 2
#     Edge 124, Type (0, 0), BuildingBlock: AJUNOK_clean_linker_0, # of connection points: 2
#     Edge 125, Type (0, 0), BuildingBlock: AJUNOK_clean_linker_0, # of connection points: 2
#     Edge 126, Type (0, 0), BuildingBlock: AJUNOK_clean_linker_0, # of connection points: 2
#     Edge 127, Type (0, 0), BuildingBlock: AJUNOK_clean_linker_0, # of connection points: 2
# Relax obj value: 0.447
# Max RMSD: 0.199
# Mean RMSD: 0.199
data_MOF--net-vcc--node1-JUFBIX_clean_sbu_0--edge1-AJUNOK_clean_linker_0
_symmetry_space_group_name_H-M    P1
_symmetry_Int_Tables_number       1
_symmetry_cell_setting            triclinic
loop_
_symmetry_equiv_pos_as_xyz
'x, y, z'
_cell_length_a     50.897848
_cell_length_b     40.282051
_cell_length_c     25.490966
_cell_angle_alpha  89.809038
_cell_angle_beta   90.119924
_cell_angle_gamma 89.995575
loop_
_atom_site_label
_atom_site_type_symbol
_atom_site_fract_x
_atom_site_fract_y
_atom_site_fract_z
_atom_type_partial_charge
Co0 Co 0.35541 0.0351 0.18944 0.0
C1 C 0.35546 0.9665 0.16661 0.0
Co2 Co 0.32109 1.02264 0.14591 0.0
C3 C 0.40067 0.07072 0.22495 0.0
C4 C 0.38827 0.03244 0.27799 0.0
N5 N 0.38343 0.04562 0.23035 0.0
N6 N 0.41585 0.07409 0.26792 0.0
C7 C 0.40831 0.04975 0.30105 0.0
H8 H 0.40196 0.0863 0.19036 0.0
H9 H 0.37777 1.0117 0.29496 0.0
C10 C 0.32527 0.09116 0.17641 0.0
N11 N 0.29155 1.01341 0.10837 0.0
C12 C 0.28775 0.99473 1.06515 0.0
C13 C 0.26779 1.02612 0.12026 0.0
N14 N 0.26244 0.99563 1.05012 0.0
C15 C 0.24985 1.01516 1.08453 0.0
C16 C 0.30758 1.02316 0.25532 0.0
O17 O 0.34762 0.08014 0.1881 0.0
O18 O 0.30946 0.07108 0.15345 0.0
O19 O 0.30024 1.01346 0.21021 0.0
O20 O 0.33189 0.03221 0.25764 0.0
O21 O 0.33414 0.97416 0.14178 0.0
H22 H 0.26377 0.04253 0.15276 0.0
H23 H 0.3031 0.98128 1.04498 0.0
O24 O 0.36602 0.98935 0.19331 0.0
O25 O 0.37692 0.03924 0.11931 0.0
O26 O 0.34002 0.032 1.07819 0.0
C27 C 0.36475 0.03702 1.07465 0.0
H28 H 0.41753 0.04373 0.33819 0.0
H29 H 0.22912 1.02121 1.08335 0.0
Co30 Co 0.92726 0.27015 0.18787 0.0
C31 C 0.92415 0.33893 0.16728 0.0
Co32 Co 0.96064 0.28613 0.14349 0.0
C33 C 0.88325 0.23266 0.22239 0.0
C34 C 0.89624 0.26779 0.27982 0.0
N35 N 0.90102 0.25673 0.23102 0.0
N36 N 0.86713 0.22852 0.2637 0.0
C37 C 0.87537 0.25054 0.29998 0.0
H38 H 0.88201 0.21881 0.18618 0.0
H39 H 0.90685 0.28765 0.29893 0.0
C40 C 0.96024 0.21701 0.16962 0.0
N41 N 0.98686 0.29837 0.09915 0.0
C42 C 1.00171 0.32604 0.09831 0.0
C43 C 0.99373 0.28123 1.0561 0.0
N44 N 0.0174 0.327 1.05575 0.0
C45 C 1.0124 0.29871 1.02937 0.0
C46 C 0.97612 0.28552 0.25007 0.0
O47 O 0.93784 0.22562 0.18523 0.0
O48 O 0.97452 0.23905 0.14704 0.0
O49 O 0.98351 0.29549 0.20491 0.0
O50 O 0.95209 0.27528 0.25258 0.0
O51 O 0.9457 0.33311 0.14264 0.0
H52 H 0.98595 0.2572 1.04538 0.0
H53 H 1.0016 0.34456 0.12899 0.0
O54 O 0.91433 0.31494 0.19289 0.0
O55 O 0.90398 0.26429 0.12115 0.0
O56 O 0.93955 0.27655 1.07946 0.0
C57 C 0.9154 0.26869 1.07653 0.0
H58 H 0.86581 0.25544 0.33707 0.0
H59 H 0.02302 0.28995 0.99534 0.0
Co60 Co 0.35791 0.2764 0.24262 0.0
C61 C 0.36099 0.34617 0.2563 0.0
Co62 Co 0.32373 0.29441 0.28139 0.0
C63 C 0.39317 0.23564 0.17955 0.0
C64 C 0.41159 0.27596 0.22051 0.0
N65 N 0.38803 0.26195 0.21075 0.0
N66 N 0.41908 0.23323 0.16977 0.0
C67 C 0.43059 0.25865 0.19499 0.0
H68 H 0.37856 0.21799 0.16634 0.0
H69 H 0.41496 0.29661 0.2466 0.0
C70 C 0.32406 0.22459 0.26212 0.0
N71 N 0.29475 0.31061 0.31333 0.0
C72 C 0.26961 0.30478 0.30013 0.0
C73 C 0.29402 0.33559 0.34837 0.0
N74 N 0.25329 0.32585 0.32435 0.0
C75 C 0.26839 0.345 0.35536 0.0
C76 C 0.31287 0.28813 0.17094 0.0
O77 O 0.34738 0.23206 0.25034 0.0
O78 O 0.30908 0.24776 0.27944 0.0
O79 O 0.30547 0.30148 0.21361 0.0
O80 O 0.3367 0.27676 0.17155 0.0
O81 O 0.33941 0.34098 0.28079 0.0
H82 H 0.31106 0.34678 0.36654 0.0
H83 H 0.26343 0.2861 0.27226 0.0
O84 O 0.37055 0.32149 0.2325 0.0
O85 O 0.37693 0.27474 0.31555 0.0
O86 O 0.3399 0.28685 0.35221 0.0
C87 C 0.3641 0.27958 0.35854 0.0
H88 H 0.45154 0.2633 0.19669 0.0
H89 H 0.2613 0.36386 0.38197 0.0
Co90 Co 0.92676 1.02894 0.2438 0.0
C91 C 0.92502 0.96082 0.26825 0.0
Co92 Co 0.96027 1.01537 0.28867 0.0
C93 C 0.89645 0.05254 0.15598 0.0
C94 C 0.87373 1.028 0.21561 0.0
N95 N 0.89825 0.03817 0.20369 0.0
N96 N 0.87174 0.051 0.13779 0.0
C97 C 0.85737 0.03593 0.1751 0.0
H98 H 0.91279 0.06323 0.13476 0.0
H99 H 0.86822 1.01478 0.25089 0.0
C100 C 0.95746 0.08395 0.25649 0.0
N101 N 0.98776 1.00512 0.33125 0.0
C102 C 1.00223 0.97715 0.33292 0.0
C103 C 0.99596 1.02351 0.37209 0.0
N104 N 0.01918 0.97731 0.3736 0.0
C105 C 1.01521 1.00648 0.39821 0.0
C106 C 0.97505 1.01554 0.18114 0.0
O107 O 0.93476 0.07393 0.2446 0.0
O108 O 0.97288 0.06324 0.27975 0.0
O109 O 0.98221 1.00511 0.22629 0.0
O110 O 0.95087 1.02531 0.17799 0.0
O111 O 0.94593 0.96755 0.29467 0.0
H112 H 0.98842 0.04778 0.38207 0.0
H113 H 1.00052 0.95732 0.30459 0.0
O114 O 0.91629 0.98381 0.2395 0.0
O115 O 0.90451 0.03368 0.31162 0.0
O116 O 0.94081 1.02607 0.35343 0.0
C117 C 0.91636 0.03171 0.35615 0.0
H118 H 0.83644 0.03118 0.17297 0.0
H119 H 0.02661 1.01577 0.43094 0.0
Co120 Co 0.71014 0.04242 1.03007 0.0
C121 C 0.71114 0.97294 1.00754 0.0
Co122 Co 0.67575 1.02394 0.991 0.0
C123 C 0.76419 0.05712 1.04026 0.0
C124 C 0.74144 0.08299 0.09748 0.0
N125 N 0.73975 0.05992 1.05954 0.0
N126 N 0.7812 0.07799 1.06359 0.0
C127 C 0.767 0.09388 0.10053 0.0
H128 H 0.76926 0.04031 1.00894 0.0
H129 H 0.72507 0.09181 0.12055 0.0
C130 C 0.67115 0.09307 1.00805 0.0
N131 N 0.64542 1.00783 0.96166 0.0
C132 C 0.64111 0.98765 0.92025 0.0
C133 C 0.62161 1.01254 0.98348 0.0
N134 N 0.61561 0.97879 0.91712 0.0
C135 C 0.60337 0.99464 0.95646 0.0
C136 C 0.67143 1.02556 0.1081 0.0
O137 O 0.69338 0.08819 1.03071 0.0
O138 O 0.66128 0.0684 0.98429 0.0
O139 O 0.65883 1.02017 1.06504 0.0
O140 O 0.69536 0.03422 0.10219 0.0
O141 O 0.68779 0.98013 0.99552 0.0
H142 H 0.61758 1.02842 1.01659 0.0
H143 H 0.65618 0.97972 0.89313 0.0
O144 O 0.72572 0.99609 1.02661 0.0
O145 O 0.72679 0.05026 0.961 0.0
O146 O 0.69521 1.02648 0.91854 0.0
C147 C 0.71899 0.03794 0.91788 0.0
H148 H 0.77453 0.11126 0.12908 0.0
H149 H 0.58236 0.99463 0.9633 0.0
Co150 Co 0.06707 0.77024 1.03517 0.0
C151 C 0.06253 0.83933 1.01457 0.0
Co152 Co 0.10102 0.79167 0.99982 0.0
C153 C 0.02171 0.72784 1.05003 0.0
C154 C 0.03179 0.75481 0.1194 0.0
N155 N 0.03909 0.75019 1.06916 0.0
N156 N 1.00405 0.71841 0.08641 0.0
C157 C 1.01047 0.73528 0.1301 0.0
H158 H 0.02109 0.71968 1.00968 0.0
H159 H 0.04036 0.77249 0.14609 0.0
C160 C 0.10944 0.72335 1.0118 0.0
N161 N 0.12799 0.81382 0.96855 0.0
C162 C 0.13762 0.81155 0.91967 0.0
C163 C 0.14091 0.83943 0.99063 0.0
N164 N 0.15646 0.83449 0.91053 0.0
C165 C 0.15845 0.852 0.95538 0.0
C166 C 0.10706 0.78878 0.11317 0.0
O167 O 0.087 0.72609 1.03485 0.0
O168 O 0.1181 0.74919 0.98872 0.0
O169 O 0.12006 0.79446 1.07094 0.0
O170 O 0.08318 0.78028 0.10601 0.0
O171 O 0.0866 0.83365 1.00926 0.0
H172 H 0.13793 0.84827 1.03019 0.0
H173 H 0.13155 0.7927 0.89203 0.0
O174 O 0.04823 0.81502 1.0306 0.0
O175 O 0.04987 0.76077 0.96799 0.0
O176 O 0.07997 0.78934 0.92867 0.0
C177 C 0.05713 0.77527 0.92617 0.0
H178 H 0.99897 0.73586 0.16579 0.0
H179 H 0.17306 0.87072 0.964 0.0
Co180 Co 0.71153 0.77177 0.88835 0.0
C181 C 0.70823 0.84032 0.91964 0.0
Co182 Co 0.6776 0.78464 0.93301 0.0
C183 C 0.75252 0.73313 0.8416 0.0
C184 C 0.7483 0.78179 0.80819 0.0
N185 N 0.7394 0.76197 0.84685 0.0
N186 N 0.76919 0.73413 0.8006 0.0
C187 C 0.76662 0.76481 0.77981 0.0
H188 H 0.74962 0.7118 0.86683 0.0
H189 H 0.74147 0.80676 0.80048 0.0
C190 C 0.67698 0.71633 0.90936 0.0
N191 N 0.64835 0.79449 0.9714 0.0
C192 C 0.64493 0.81402 1.01383 0.0
C193 C 0.62422 0.78297 0.95928 0.0
N194 N 0.61956 0.81464 1.02836 0.0
C195 C 0.60651 0.79527 0.9943 0.0
C196 C 0.66774 0.78631 0.81851 0.0
O197 O 0.69807 0.72367 0.88405 0.0
O198 O 0.66714 0.73914 0.93685 0.0
O199 O 0.65591 0.78908 0.86305 0.0
O200 O 0.69227 0.78112 0.82194 0.0
O201 O 0.68574 0.82991 0.93227 0.0
H202 H 0.61971 0.76702 0.92648 0.0
H203 H 0.66047 0.82768 1.0331 0.0
O204 O 0.72355 0.81989 0.89599 0.0
O205 O 0.73311 0.76258 0.95181 0.0
O206 O 0.70143 0.78085 1.00077 0.0
C207 C 0.72586 0.77177 0.99748 0.0
H208 H 0.77799 0.77476 0.74751 0.0
H209 H 0.58549 0.79101 0.99433 0.0
Co210 Co 0.06686 0.0385 0.89451 0.0
C211 C 0.06384 0.96822 0.91564 0.0
Co212 Co 0.10078 1.01741 0.9323 0.0
C213 C 0.03218 0.07754 0.82556 0.0
C214 C 1.01282 0.04736 0.88322 0.0
N215 N 0.03677 0.0555 0.8647 0.0
N216 N 1.00626 0.08403 0.82082 0.0
C217 C 0.99418 0.06493 0.85678 0.0
H218 H 0.0473 0.0882 0.80092 0.0
H219 H 1.00904 0.02938 0.91386 0.0
C220 C 0.10723 0.08733 0.91771 0.0
N221 N 0.12969 0.99841 0.96319 0.0
C222 C 0.15403 0.99609 0.9429 0.0
C223 C 0.13022 0.97962 1.00695 0.0
N224 N 0.16998 0.97684 0.97241 0.0
C225 C 0.15494 0.96655 1.0129 0.0
C226 C 0.1059 1.02126 0.81642 0.0
O227 O 0.08473 0.08396 0.89486 0.0
O228 O 0.11653 0.06155 0.94021 0.0
O229 O 0.11832 1.01432 0.85918 0.0
O230 O 0.08202 0.03044 0.82257 0.0
O231 O 0.08757 0.97388 0.92629 0.0
H232 H 0.11362 0.97513 1.0324 0.0
H233 H 0.15968 1.0078 0.90655 0.0
O234 O 0.05017 0.99253 0.89782 0.0
O235 O 0.05033 0.04677 0.96326 0.0
O236 O 0.08075 1.01998 1.00444 0.0
C237 C 0.05763 0.03325 1.00594 0.0
H238 H 0.97311 0.06269 0.86167 0.0
H239 H 0.16151 0.9515 1.04565 0.0
Co240 Co 0.35223 0.54315 0.67472 0.0
C241 C 0.35968 0.47448 0.66366 0.0
Co242 Co 0.31882 0.52265 0.63488 0.0
C243 C 0.38926 0.56015 0.75626 0.0
C244 C 0.39152 0.59119 0.68819 0.0
N245 N 0.37893 0.56461 0.70821 0.0
N246 N 0.40824 0.58268 0.76681 0.0
C247 C 0.40952 0.60223 0.72382 0.0
H248 H 0.38377 0.53988 0.78197 0.0
H249 H 0.38818 0.60153 0.64953 0.0
C250 C 0.31496 0.59141 0.65209 0.0
N251 N 0.2916 0.50342 0.5987 0.0
C252 C 0.2749 0.4793 0.61443 0.0
C253 C 0.2844 0.51065 0.54907 0.0
N254 N 0.258 0.47086 0.57607 0.0
C255 C 0.26392 0.49059 0.53502 0.0
C256 C 0.3063 0.52807 0.74461 0.0
O257 O 0.33807 0.58509 0.66568 0.0
O258 O 0.30117 0.56762 0.63318 0.0
O259 O 0.29929 0.51519 0.70118 0.0
O260 O 0.32989 0.54032 0.74472 0.0
O261 O 0.33748 0.47787 0.63977 0.0
H262 H 0.29264 0.53026 0.5253 0.0
H263 H 0.27448 0.46888 0.65359 0.0
O264 O 0.36889 0.50022 0.686 0.0
O265 O 0.37256 0.54687 0.60373 0.0
O266 O 0.33701 0.53072 0.56547 0.0
C267 C 0.36075 0.54027 0.5602 0.0
H268 H 0.42407 0.62123 0.71631 0.0
H269 H 0.25271 0.49232 0.49895 0.0
Co270 Co 0.92569 0.77069 0.68861 0.0
C271 C 0.92133 0.8386 0.66634 0.0
Co272 Co 0.95886 0.78558 0.64342 0.0
C273 C 0.88291 0.73101 0.72415 0.0
C274 C 0.89589 0.7659 0.7819 0.0
N275 N 0.89974 0.75629 0.73202 0.0
N276 N 0.86866 0.72424 0.76737 0.0
C277 C 0.87671 0.7464 0.80363 0.0
H278 H 0.88091 0.71808 0.68719 0.0
H279 H 0.90619 0.78599 0.80105 0.0
C280 C 0.95931 0.71716 0.67384 0.0
N281 N 0.98489 0.79874 0.59924 0.0
C282 C 0.99878 0.82718 0.60016 0.0
C283 C 0.99193 0.78336 0.55465 0.0
N284 N 1.0141 0.83039 0.5574 0.0
C285 C 1.00986 0.80272 0.52889 0.0
C286 C 0.97466 0.78705 0.74974 0.0
O287 O 0.9366 0.72659 0.68611 0.0
O288 O 0.97395 0.73838 0.64986 0.0
O289 O 0.98129 0.79678 0.7041 0.0
O290 O 0.95083 0.77619 0.75351 0.0
O291 O 0.94259 0.83238 0.64075 0.0
H292 H 0.98461 0.7595 0.54191 0.0
H293 H 0.99818 0.84477 0.63215 0.0
O294 O 0.9121 0.81514 0.6939 0.0
O295 O 0.90252 0.76453 0.62162 0.0
O296 O 0.93843 0.7744 0.57945 0.0
C297 C 0.91409 0.76769 0.5768 0.0
H298 H 0.86808 0.74989 0.842 0.0
H299 H 0.02047 0.79577 0.49381 0.0
Co300 Co 0.35624 0.77452 0.72997 0.0
C301 C 0.3588 0.84283 0.75378 0.0
Co302 Co 0.3231 0.78862 0.77632 0.0
C303 C 0.39835 0.73576 0.68849 0.0
C304 C 0.38683 0.77582 0.63797 0.0
N305 N 0.3824 0.76237 0.6855 0.0
N306 N 0.41252 0.73184 0.64433 0.0
C307 C 0.40547 0.75732 0.61276 0.0
H308 H 0.39955 0.71961 0.72245 0.0
H309 H 0.37709 0.79768 0.62268 0.0
C310 C 0.32355 0.72048 0.74485 0.0
N311 N 0.29593 0.79897 0.81978 0.0
C312 C 0.27464 0.81777 0.80941 0.0
C313 C 0.29067 0.78358 0.86568 0.0
N314 N 0.25628 0.81408 0.84658 0.0
C315 C 0.26626 0.79288 0.88224 0.0
C316 C 0.30694 0.78899 0.66976 0.0
O317 O 0.34617 0.72972 0.73123 0.0
O318 O 0.30952 0.74141 0.77025 0.0
O319 O 0.30028 0.79823 0.71541 0.0
O320 O 0.33112 0.77982 0.66537 0.0
O321 O 0.3375 0.83607 0.77901 0.0
H322 H 0.30269 0.76457 0.88371 0.0
H323 H 0.27155 0.83146 0.77332 0.0
O324 O 0.36848 0.81969 0.7263 0.0
O325 O 0.37988 0.76848 0.79635 0.0
O326 O 0.34444 0.77866 0.84009 0.0
C327 C 0.36889 0.77214 0.84166 0.0
H328 H 0.41425 0.76341 0.57532 0.0
H329 H 0.25565 0.78266 0.91536 0.0
Co330 Co 0.93019 0.53082 0.74104 0.0
C331 C 0.92626 0.46166 0.75917 0.0
Co332 Co 0.96397 0.51323 0.78342 0.0
C333 C 0.8991 0.56348 0.66145 0.0
C334 C 0.8765 0.5436 0.72526 0.0
N335 N 0.90118 0.5459 0.70643 0.0
N336 N 0.87414 0.57297 0.65286 0.0
C337 C 0.85991 0.56033 0.69256 0.0
H338 H 0.91534 0.56894 0.63547 0.0
H339 H 0.8707 0.53014 0.76009 0.0
C340 C 0.96422 0.58307 0.75948 0.0
N341 N 0.99233 0.49756 0.82016 0.0
C342 C 1.00968 0.47441 0.80431 0.0
C343 C 1.00078 0.50717 0.86782 0.0
N344 N 0.02897 0.46966 0.83961 0.0
C345 C 0.02326 0.49001 0.87989 0.0
C346 C 0.9761 0.51628 0.67314 0.0
O347 O 0.94146 0.57497 0.74488 0.0
O348 O 0.97862 0.56046 0.78097 0.0
O349 O 0.98355 0.50549 0.71769 0.0
O350 O 0.95219 0.5273 0.67152 0.0
O351 O 0.94822 0.46666 0.78292 0.0
H352 H 0.99217 0.52682 0.89085 0.0
H353 H 1.00938 0.46291 0.76604 0.0
O354 O 0.91644 0.48625 0.7349 0.0
O355 O 0.91045 0.53536 0.81195 0.0
O356 O 0.94609 0.52129 0.85194 0.0
C357 C 0.92213 0.52989 0.85588 0.0
H358 H 0.83871 0.56157 0.69583 0.0
H359 H 0.03608 0.49487 0.91296 0.0
Co360 Co 0.7143 0.53907 0.53216 0.0
C361 C 0.71931 0.46987 0.51591 0.0
Co362 Co 0.68119 0.51701 0.49512 0.0
C363 C 0.76709 0.55903 0.54742 0.0
C364 C 0.74109 0.58376 0.60024 0.0
N365 N 0.74196 0.56005 0.56331 0.0
N366 N 0.78218 0.5817 0.57204 0.0
C367 C 0.76578 0.59699 0.60593 0.0
H368 H 0.77361 0.5425 0.51707 0.0
H369 H 0.72352 0.59153 0.6206 0.0
C370 C 0.67209 0.58552 0.50575 0.0
N371 N 0.65417 0.49497 0.46466 0.0
C372 C 0.64492 0.49746 0.41549 0.0
C373 C 0.64041 0.47021 0.4871 0.0
N374 N 0.62509 0.47592 0.40659 0.0
C375 C 0.62253 0.45855 0.4517 0.0
C376 C 0.67504 0.52113 0.61007 0.0
O377 O 0.6944 0.58299 0.5292 0.0
O378 O 0.66369 0.5595 0.48302 0.0
O379 O 0.66252 0.51446 0.56738 0.0
O380 O 0.6988 0.53053 0.60361 0.0
O381 O 0.69569 0.47526 0.50505 0.0
H382 H 0.64303 0.4614 0.5269 0.0
H383 H 0.65255 0.51506 0.38734 0.0
O384 O 0.73314 0.49452 0.53196 0.0
O385 O 0.73154 0.54755 0.46387 0.0
O386 O 0.70209 0.51876 0.4236 0.0
C387 C 0.72492 0.53286 0.42182 0.0
H388 H 0.77119 0.61607 0.63369 0.0
H389 H 0.60744 0.44037 0.46015 0.0
Co390 Co 0.06681 0.26838 0.5409 0.0
C391 C 0.0649 0.33768 0.51956 0.0
Co392 Co 0.10076 0.28719 0.50216 0.0
C393 C 0.03592 0.22888 0.61271 0.0
C394 C 1.01296 0.25801 0.55877 0.0
N395 N 0.03786 0.2513 0.57337 0.0
N396 N 1.0107 0.22078 0.62175 0.0
C397 C 0.99625 0.23919 0.58828 0.0
H398 H 0.0525 0.21888 0.63423 0.0
H399 H 1.00734 0.27564 0.52872 0.0
C400 C 0.10661 0.21881 0.51685 0.0
N401 N 0.1287 0.30593 0.47008 0.0
C402 C 0.1378 0.30142 0.42115 0.0
C403 C 0.14229 0.33186 0.48947 0.0
N404 N 0.15618 0.32413 0.40896 0.0
C405 C 0.15925 0.34299 0.452 0.0
C406 C 0.10714 0.28473 0.61733 0.0
O407 O 0.08445 0.22276 0.54041 0.0
O408 O 0.116 0.24393 0.49331 0.0
O409 O 0.11967 0.29011 0.57421 0.0
O410 O 0.08298 0.27691 0.61165 0.0
O411 O 0.08816 0.33035 0.50866 0.0
H412 H 0.13965 0.34239 0.52807 0.0
H413 H 0.13116 0.28196 0.3951 0.0
O414 O 0.05027 0.31445 0.53781 0.0
O415 O 0.04911 0.25981 0.47342 0.0
O416 O 0.07999 0.28484 0.43097 0.0
C417 C 0.0566 0.27234 0.43015 0.0
H418 H 0.97498 0.23979 0.58683 0.0
H419 H 0.1737 0.36232 0.45685 0.0
Co420 Co 0.712 0.27073 0.39433 0.0
C421 C 0.71201 0.33898 0.42734 0.0
Co422 Co 0.67944 0.2847 0.44199 0.0
C423 C 0.7506 0.23263 0.3386 0.0
C424 C 0.74412 0.28139 0.30723 0.0
N425 N 0.73724 0.26098 0.34675 0.0
N426 N 0.76541 0.23448 0.29488 0.0
C427 C 0.76143 0.26528 0.27546 0.0
H428 H 0.74991 0.2114 0.36471 0.0
H429 H 0.737 0.30649 0.30197 0.0
C430 C 0.6762 0.21668 0.4165 0.0
N431 N 0.65417 0.29595 0.48931 0.0
C432 C 0.6377 0.32211 0.48926 0.0
C433 C 0.65048 0.2808 0.53582 0.0
N434 N 0.62377 0.32396 0.53417 0.0
C435 C 0.63168 0.29771 0.56323 0.0
C436 C 0.66553 0.28888 0.33182 0.0
O437 O 0.69708 0.22356 0.39015 0.0
O438 O 0.66706 0.23954 0.44511 0.0
O439 O 0.65456 0.2917 0.37732 0.0
O440 O 0.68993 0.28242 0.33317 0.0
O441 O 0.68949 0.32967 0.4416 0.0
H442 H 0.66064 0.25864 0.5487 0.0
H443 H 0.63579 0.33923 0.45665 0.0
O444 O 0.72598 0.31795 0.40196 0.0
O445 O 0.73605 0.25899 0.45221 0.0
O446 O 0.70608 0.27823 0.50413 0.0
C447 C 0.73 0.268 0.49849 0.0
H448 H 0.77173 0.27635 0.24266 0.0
H449 H 0.62331 0.28985 0.60022 0.0
Co450 Co 0.07053 0.53636 0.39146 0.0
C451 C 0.07246 0.46679 0.41997 0.0
Co452 Co 0.10527 0.52042 0.43138 0.0
C453 C 0.03532 0.57125 0.32153 0.0
C454 C 0.01616 0.53849 0.3761 0.0
N455 N 0.04 0.54881 0.35986 0.0
N456 N 1.00938 0.57564 0.31454 0.0
C457 C 0.9973 0.55497 0.34829 0.0
H458 H 0.05045 0.58425 0.29987 0.0
H459 H 1.01269 0.52061 0.40707 0.0
C460 C 0.10663 0.58984 0.41136 0.0
N461 N 0.13606 0.50795 0.4634 0.0
C462 C 0.14134 0.48542 0.50141 0.0
C463 C 0.15974 0.51819 0.446 0.0
N464 N 0.1674 0.48096 0.50696 0.0
C465 C 0.17899 0.50168 0.47269 0.0
C466 C 0.11091 0.52162 0.31533 0.0
O467 O 0.0849 0.58364 0.38746 0.0
O468 O 0.11696 0.56605 0.43663 0.0
O469 O 0.12355 0.51759 0.35878 0.0
O470 O 0.0864 0.52762 0.32049 0.0
O471 O 0.0959 0.47539 0.42868 0.0
H472 H 0.16285 0.53587 0.41473 0.0
H473 H 0.12661 0.47199 0.52333 0.0
O474 O 0.05722 0.4887 0.39938 0.0
O475 O 0.05294 0.54536 0.45881 0.0
O476 O 0.08456 0.52219 0.50243 0.0
C477 C 0.06066 0.53331 0.50227 0.0
H478 H 0.97624 0.55181 0.35184 0.0
H479 H 0.19998 0.50441 0.46731 0.0
Co480 Co 0.85226 0.03308 0.68346 0.0
C481 C 0.8565 0.96412 0.66606 0.0
Co482 Co 0.81908 1.01604 0.63864 0.0
C483 C 0.89966 0.06813 0.70673 0.0
C484 C 0.8821 0.04801 0.77626 0.0
N485 N 0.87944 0.04921 0.72368 0.0
N486 N 0.91469 0.07887 0.74658 0.0
C487 C 0.90383 0.0662 0.79043 0.0
H488 H 0.90335 0.07431 0.6661 0.0
H489 H 0.86917 0.0348 0.80266 0.0
C490 C 0.81881 0.08535 0.66149 0.0
N491 N 0.79269 1.00235 0.59507 0.0
C492 C 0.77872 0.97389 0.59378 0.0
C493 C 0.78527 1.01943 0.55209 0.0
N494 N 0.7629 0.97255 0.55114 0.0
C495 C 0.76714 1.00128 0.52511 0.0
C496 C 0.80301 1.01903 0.74526 0.0
O497 O 0.84139 0.07722 0.67702 0.0
O498 O 0.80451 0.06283 0.6403 0.0
O499 O 0.79666 1.00744 0.70045 0.0
O500 O 0.82703 0.02966 0.74894 0.0
O501 O 0.83509 0.96945 0.64018 0.0
H502 H 0.79264 0.04365 0.54105 0.0
H503 H 0.78011 0.95476 0.62353 0.0
O504 O 0.86565 0.98841 0.69208 0.0
O505 O 0.87481 0.03705 0.6164 0.0
O506 O 0.83946 1.02498 0.57389 0.0
C507 C 0.86364 0.03245 0.57172 0.0
H508 H 0.9117 0.06884 0.8297 0.0
H509 H 0.75665 1.00961 0.49049 0.0
Co510 Co 0.42658 0.27951 0.6916 0.0
C511 C 0.42426 0.34856 0.66946 0.0
Co512 Co 0.45998 0.29465 0.64594 0.0
C513 C 0.38379 0.24111 0.73319 0.0
C514 C 0.39481 0.28214 0.78176 0.0
N515 N 0.40005 0.26744 0.73567 0.0
N516 N 0.36834 0.23886 0.77607 0.0
C517 C 0.37532 0.26479 0.80651 0.0
H518 H 0.38371 0.22383 0.70085 0.0
H519 H 0.40456 0.30412 0.79635 0.0
C520 C 0.45881 0.22541 0.67342 0.0
N521 N 0.48667 0.30614 0.60188 0.0
C522 C 0.50392 0.33142 0.60486 0.0
C523 C 0.49259 0.29006 0.55724 0.0
N524 N 0.52056 0.33162 0.56369 0.0
C525 C 0.51328 0.30568 0.53367 0.0
C526 C 0.47588 0.29339 0.75334 0.0
O527 O 0.43678 0.23463 0.69043 0.0
O528 O 0.47285 0.24698 0.64901 0.0
O529 O 0.48328 0.30269 0.70779 0.0
O530 O 0.45149 0.28462 0.7565 0.0
O531 O 0.44594 0.34239 0.6454 0.0
H532 H 0.48295 0.26779 0.54347 0.0
H533 H 0.50463 0.34871 0.63723 0.0
O534 O 0.41416 0.32476 0.69505 0.0
O535 O 0.40325 0.27358 0.62453 0.0
O536 O 0.43854 0.28617 0.5818 0.0
C537 C 0.41433 0.27848 0.57951 0.0
H538 H 0.36612 0.27177 0.84311 0.0
H539 H 0.5235 0.29703 0.49909 0.0
Co540 Co 0.85886 0.26603 0.74228 0.0
C541 C 0.8632 0.33495 0.75911 0.0
Co542 Co 0.82442 0.28411 0.78046 0.0
C543 C 0.90725 0.2304 0.73111 0.0
C544 C 0.89151 0.24575 0.65688 0.0
N545 N 0.88777 0.24854 0.70902 0.0
N546 N 0.92255 0.21595 0.69484 0.0
C547 C 0.91291 0.22587 0.64811 0.0
H548 H 0.91019 0.2274 0.77286 0.0
H549 H 0.87948 0.25718 0.62688 0.0
C550 C 0.82356 0.21506 0.75539 0.0
N551 N 0.79453 0.29908 0.81244 0.0
C552 C 0.79088 0.31513 0.85829 0.0
C553 C 0.77023 0.295 0.79216 0.0
N554 N 0.76529 0.3219 0.86598 0.0
C555 C 0.75233 0.30925 0.82466 0.0
C556 C 0.81447 0.28117 0.6704 0.0
O557 O 0.84733 0.22227 0.74812 0.0
O558 O 0.80867 0.23799 0.77356 0.0
O559 O 0.80729 0.29438 0.71306 0.0
O560 O 0.83768 0.26826 0.6715 0.0
O561 O 0.84128 0.32991 0.78317 0.0
H562 H 0.76561 0.28139 0.75685 0.0
H563 H 0.80638 0.32075 0.88599 0.0
O564 O 0.8729 0.31045 0.73438 0.0
O565 O 0.8774 0.26324 0.81413 0.0
O566 O 0.84016 0.27402 0.85136 0.0
C567 C 0.86454 0.2673 0.85713 0.0
H568 H 0.92153 0.22037 0.61031 0.0
H569 H 0.73116 0.30848 0.82029 0.0
Co570 Co 0.42536 0.03824 0.73825 0.0
C571 C 0.42224 0.9692 0.75747 0.0
Co572 Co 0.45919 1.02172 0.78138 0.0
C573 C 0.38084 0.07716 0.70334 0.0
C574 C 0.39326 0.04013 0.64859 0.0
N575 N 0.398 0.05199 0.69698 0.0
N576 N 0.36574 0.08173 0.66027 0.0
C577 C 0.37343 0.05816 0.62611 0.0
H578 H 0.37933 0.09167 0.73888 0.0
H579 H 0.40346 1.01945 0.63093 0.0
C580 C 0.4584 0.09117 0.75568 0.0
N581 N 0.48756 1.00784 0.81993 0.0
C582 C 0.50555 0.98477 0.80639 0.0
C583 C 0.49584 1.01997 0.86628 0.0
N584 N 0.52458 0.98204 0.84259 0.0
C585 C 0.51867 1.0041 0.8803 0.0
C586 C 0.47329 1.0243 0.6726 0.0
O587 O 0.43573 0.08243 0.74168 0.0
O588 O 0.47304 0.06919 0.77798 0.0
O589 O 0.4802 1.01361 0.71746 0.0
O590 O 0.44928 0.03472 0.67029 0.0
O591 O 0.44407 0.97461 0.78161 0.0
H592 H 0.48667 0.0402 0.88712 0.0
H593 H 0.50538 0.97122 0.76981 0.0
O594 O 0.41243 0.99345 0.73244 0.0
O595 O 0.40359 0.04273 0.80841 0.0
O596 O 0.43982 0.03017 0.84861 0.0
C597 C 0.41555 0.03775 0.8528 0.0
H598 H 0.36428 0.0529 0.58868 0.0
H599 H 0.53104 1.00994 0.91364 0.0
Co600 Co 0.20719 0.04055 0.53793 0.0
C601 C 0.207 0.97206 0.5118 0.0
Co602 Co 0.17457 1.02541 0.48988 0.0
C603 C 0.24797 0.08007 0.58625 0.0
C604 C 0.2389 0.03529 0.62798 0.0
N605 N 0.23278 0.05269 0.58451 0.0
N606 N 0.26359 0.08031 0.62924 0.0
C607 C 0.25771 0.0521 0.65543 0.0
H608 H 0.24766 0.09914 0.5563 0.0
H609 H 0.23043 1.01158 0.63866 0.0
C610 C 0.17114 0.09374 0.51126 0.0
N611 N 0.14924 1.01191 0.44413 0.0
C612 C 0.13354 0.9851 0.44778 0.0
C613 C 0.14507 1.02433 0.39579 0.0
N614 N 0.11973 0.98006 0.40333 0.0
C615 C 0.1268 1.00502 0.37079 0.0
C616 C 0.16032 1.02353 0.60047 0.0
O617 O 0.19236 0.08758 0.53713 0.0
O618 O 0.16171 0.0702 0.4842 0.0
O619 O 0.15008 1.01929 0.55456 0.0
O620 O 0.18461 0.03114 0.60043 0.0
O621 O 0.1852 0.9811 0.49347 0.0
H622 H 0.15467 0.04609 0.37987 0.0
H623 H 0.1322 0.96968 0.48253 0.0
O624 O 0.22083 0.9936 0.53637 0.0
O625 O 0.23152 0.04935 0.47739 0.0
O626 O 0.20053 0.03064 0.42708 0.0
C627 C 0.22477 0.03983 0.43146 0.0
H628 H 0.26759 0.04305 0.69032 0.0
H629 H 0.11821 1.01029 0.33279 0.0
Co630 Co 0.57212 0.76638 0.52889 0.0
C631 C 0.57513 0.83511 0.50034 0.0
Co632 Co 0.60634 0.78011 0.48653 0.0
C633 C 0.53042 0.72815 0.574 0.0
C634 C 0.5379 0.77374 0.61455 0.0
N635 N 0.54539 0.7557 0.57287 0.0
N636 N 0.51374 0.72831 0.61502 0.0
C637 C 0.51853 0.75697 0.64057 0.0
H638 H 0.53145 0.70876 0.5448 0.0
H639 H 0.54582 0.79777 0.62488 0.0
C640 C 0.60754 0.71143 0.50656 0.0
N641 N 0.63283 0.79244 0.44258 0.0
C642 C 0.64904 0.8188 0.44601 0.0
C643 C 0.63716 0.77945 0.39487 0.0
N644 N 0.66346 0.82284 0.40208 0.0
C645 C 0.65599 0.79791 0.37003 0.0
C646 C 0.61751 0.78227 0.59763 0.0
O647 O 0.58639 0.71847 0.532 0.0
O648 O 0.61775 0.7348 0.48031 0.0
O649 O 0.62978 0.78441 0.55341 0.0
O650 O 0.59298 0.77663 0.59353 0.0
O651 O 0.59781 0.82463 0.49069 0.0
H652 H 0.62703 0.7581 0.379 0.0
H653 H 0.64958 0.83508 0.47961 0.0
O654 O 0.55909 0.81446 0.52167 0.0
O655 O 0.5492 0.75643 0.46777 0.0
O656 O 0.58068 0.77712 0.42113 0.0
C657 C 0.55647 0.76719 0.42308 0.0
H658 H 0.5075 0.76626 0.67371 0.0
H659 H 0.66437 0.7924 0.33205 0.0
Co660 Co 0.20382 0.77212 0.39556 0.0
C661 C 0.2022 0.83981 0.42713 0.0
Co662 Co 0.171 0.78483 0.44364 0.0
C663 C 0.25286 0.74469 0.3624 0.0
C664 C 0.23608 0.77816 0.30594 0.0
N665 N 0.23107 0.76247 0.35173 0.0
N666 N 0.27136 0.74958 0.3259 0.0
C667 C 0.26087 0.77016 0.28991 0.0
H668 H 0.25614 0.73096 0.39835 0.0
H669 H 0.22365 0.79671 0.28785 0.0
C670 C 0.16907 0.71684 0.41858 0.0
N671 N 0.14464 0.79637 0.48803 0.0
C672 C 0.12904 0.8233 0.48526 0.0
C673 C 0.13939 0.78216 0.53463 0.0
N674 N 0.11403 0.82657 0.52844 0.0
C675 C 0.1205 0.80053 0.55942 0.0
C676 C 0.15801 0.78799 0.33192 0.0
O677 O 0.18989 0.72439 0.3923 0.0
O678 O 0.15962 0.73941 0.44753 0.0
O679 O 0.14708 0.79051 0.37747 0.0
O680 O 0.18249 0.78204 0.33278 0.0
O681 O 0.18016 0.82945 0.44207 0.0
H682 H 0.14885 0.76004 0.54968 0.0
H683 H 0.12924 0.84044 0.45255 0.0
O684 O 0.21669 0.81959 0.40144 0.0
O685 O 0.2268 0.76274 0.45614 0.0
O686 O 0.19646 0.78039 0.50801 0.0
C687 C 0.22071 0.77179 0.50222 0.0
H688 H 0.27137 0.78107 0.25719 0.0
H689 H 0.11139 0.79426 0.59648 0.0
Co690 Co 0.57465 0.03894 0.39268 0.0
C691 C 0.57447 0.96998 0.41851 0.0
Co692 Co 0.60754 1.02279 0.43867 0.0
C693 C 0.53395 0.07793 0.34233 0.0
C694 C 0.54259 0.03169 0.30484 0.0
N695 N 0.54906 0.05061 0.34632 0.0
N696 N 0.51811 0.07659 0.29978 0.0
C697 C 0.52378 0.04756 0.27618 0.0
H698 H 0.53423 0.09788 0.37062 0.0
H699 H 0.5507 1.00746 0.29657 0.0
C700 C 0.61138 0.09153 0.41817 0.0
N701 N 0.63321 1.00826 0.48337 0.0
C702 C 0.64924 0.98198 0.47684 0.0
C703 C 0.6372 1.01832 0.53302 0.0
N704 N 0.66305 0.97494 0.52069 0.0
C705 C 0.65566 0.99808 0.55593 0.0
C706 C 0.62062 1.02198 0.32769 0.0
O707 O 0.59003 0.08583 0.39236 0.0
O708 O 0.62057 0.0676 0.44512 0.0
O709 O 0.63174 1.01749 0.37277 0.0
O710 O 0.59638 0.02932 0.32989 0.0
O711 O 0.59685 0.97838 0.43449 0.0
H712 H 0.62727 0.03898 0.55135 0.0
H713 H 0.6507 0.96822 0.44056 0.0
O714 O 0.56046 0.99209 0.39558 0.0
O715 O 0.55091 0.04845 0.45291 0.0
O716 O 0.58151 1.0275 0.50226 0.0
C717 C 0.55749 0.03788 0.49838 0.0
H718 H 0.51354 0.03722 0.24272 0.0
H719 H 0.66405 1.00139 0.59461 0.0
Co720 Co 0.8561 0.53341 0.18229 0.0
C721 C 0.8607 0.46487 0.16562 0.0
Co722 Co 0.82299 0.51598 0.13822 0.0
C723 C 0.9023 0.56997 0.20513 0.0
C724 C 0.886 0.54834 0.27476 0.0
N725 N 0.88277 0.55013 0.22237 0.0
N726 N 0.91767 0.58049 0.24449 0.0
C727 C 0.90758 0.56692 0.28845 0.0
H728 H 0.9055 0.57652 0.16448 0.0
H729 H 0.87375 0.53417 0.30122 0.0
C730 C 0.82186 0.58513 0.16058 0.0
N731 N 0.79697 0.50189 0.0946 0.0
C732 C 0.78268 0.47374 0.09455 0.0
C733 C 0.79015 0.51809 1.05038 0.0
N734 N 0.76739 0.47159 1.05136 0.0
C735 C 0.77209 0.49964 1.02383 0.0
C736 C 0.80751 0.51822 0.24533 0.0
O737 O 0.84462 0.57745 0.17562 0.0
O738 O 0.80781 0.56235 0.13954 0.0
O739 O 0.80057 0.50687 0.20066 0.0
O740 O 0.83133 0.52952 0.24764 0.0
O741 O 0.83921 0.46983 0.14001 0.0
H742 H 0.79767 0.54207 1.03849 0.0
H743 H 0.78293 0.4557 0.12613 0.0
O744 O 0.86993 0.48924 0.19121 0.0
O745 O 0.87883 0.53738 0.11553 0.0
O746 O 0.84363 0.52513 1.07288 0.0
C747 C 0.86788 0.53248 1.07079 0.0
H748 H 0.91613 0.56878 0.32726 0.0
H749 H 0.76162 0.50761 0.98897 0.0
Co750 Co 0.42869 0.77162 0.17463 0.0
C751 C 0.42021 0.84052 0.16393 0.0
Co752 Co 0.46199 0.79378 0.13642 0.0
C753 C 0.39176 0.75399 0.25483 0.0
C754 C 0.38862 0.72415 0.18579 0.0
N755 N 0.40182 0.74991 0.20663 0.0
N756 N 0.37209 0.73231 0.26453 0.0
C757 C 0.37038 0.71335 0.2211 0.0
H758 H 0.39861 0.77284 0.28163 0.0
H759 H 0.39181 0.71417 0.14698 0.0
C760 C 0.46655 0.7246 0.15281 0.0
N761 N 0.4898 0.81434 0.10195 0.0
C762 C 0.50912 0.83311 0.12298 0.0
C763 C 0.49624 0.81177 1.05082 0.0
N764 N 0.52761 0.8414 0.08764 0.0
C765 C 0.51931 0.82837 1.04199 0.0
C766 C 0.47352 0.78639 0.24684 0.0
O767 O 0.44311 0.72999 0.16496 0.0
O768 O 0.4802 0.7491 0.13549 0.0
O769 O 0.48044 0.80082 0.20448 0.0
O770 O 0.45028 0.77332 0.24538 0.0
O771 O 0.44258 0.83812 0.14058 0.0
H772 H 0.48612 0.79676 1.02227 0.0
H773 H 0.51078 0.83893 0.16404 0.0
O774 O 0.41166 0.81433 0.18623 0.0
O775 O 0.40905 0.76866 0.10329 0.0
O776 O 0.4447 0.78561 1.06612 0.0
C777 C 0.4211 0.77556 1.06024 0.0
H778 H 0.35563 0.69457 0.21359 0.0
H779 H 0.53073 0.8275 1.0062 0.0
Co780 Co 0.85619 0.77095 0.2419 0.0
C781 C 0.85767 0.83847 0.26741 0.0
Co782 Co 0.82155 0.78393 0.2846 0.0
C783 C 0.88892 0.73907 0.16361 0.0
C784 C 0.90988 0.77104 0.21633 0.0
N785 N 0.88557 0.76013 0.20421 0.0
N786 N 0.91441 0.73643 0.15076 0.0
C787 C 0.92764 0.75653 0.18348 0.0
H788 H 0.87331 0.7255 0.14473 0.0
H789 H 0.91449 0.78787 0.24798 0.0
C790 C 0.82396 0.71616 0.25195 0.0
N791 N 0.79354 0.7947 0.32547 0.0
C792 C 0.7794 0.82297 0.32627 0.0
C793 C 0.78542 0.77706 0.36735 0.0
N794 N 0.76318 0.82396 0.36794 0.0
C795 C 0.76681 0.79497 0.39353 0.0
C796 C 0.80863 0.78522 0.17548 0.0
O797 O 0.84691 0.72607 0.24176 0.0
O798 O 0.80849 0.73658 0.27523 0.0
O799 O 0.80075 0.79445 0.22068 0.0
O800 O 0.83306 0.77587 0.17351 0.0
O801 O 0.83606 0.83125 0.29097 0.0
H802 H 0.79277 0.75281 0.37833 0.0
H803 H 0.78079 0.84229 0.29677 0.0
O804 O 0.86772 0.81607 0.23943 0.0
O805 O 0.87715 0.76526 0.31223 0.0
O806 O 0.84016 0.77307 0.35107 0.0
C807 C 0.86457 0.76745 0.35597 0.0
H808 H 0.94876 0.75973 0.18419 0.0
H809 H 0.75563 0.78649 0.42711 0.0
Co810 Co 0.42631 0.54076 0.22947 0.0
C811 C 0.42382 0.47272 0.25363 0.0
Co812 Co 0.45937 0.52694 0.27648 0.0
C813 C 0.38319 0.57869 0.1895 0.0
C814 C 0.39593 0.54053 0.13704 0.0
N815 N 0.40005 0.55312 0.18517 0.0
N816 N 0.36867 0.58273 0.14566 0.0
C817 C 0.37657 0.5585 0.11281 0.0
H818 H 0.38139 0.59377 0.22439 0.0
H819 H 0.4062 0.51942 0.12085 0.0
C820 C 0.45906 0.59494 0.24474 0.0
N821 N 0.48645 0.51585 0.31954 0.0
C822 C 0.50684 0.49577 0.30877 0.0
C823 C 0.49246 0.53049 0.36554 0.0
N824 N 0.52549 0.49795 0.34565 0.0
C825 C 0.51657 0.51947 0.3817 0.0
C826 C 0.47537 0.52614 0.16922 0.0
O827 O 0.43657 0.58556 0.23034 0.0
O828 O 0.47303 0.57407 0.27072 0.0
O829 O 0.48211 0.51747 0.21525 0.0
O830 O 0.45119 0.53531 0.16463 0.0
O831 O 0.44502 0.47961 0.27905 0.0
H832 H 0.48116 0.54996 0.38391 0.0
H833 H 0.50916 0.48211 0.27259 0.0
O834 O 0.41391 0.49576 0.22601 0.0
O835 O 0.40284 0.54675 0.29627 0.0
O836 O 0.43823 0.53673 0.34065 0.0
C837 C 0.41375 0.54314 0.34185 0.0
H838 H 0.36774 0.55262 1.07531 0.0
H839 H 0.52783 0.52886 0.41456 0.0
Co840 Co 0.20816 0.54144 1.02982 0.0
C841 C 0.20491 0.4727 0.9988 0.0
Co842 Co 0.1744 0.52889 0.98409 0.0
C843 C 0.25007 0.57854 1.07553 0.0
C844 C 0.24307 0.5321 0.11439 0.0
N845 N 0.23532 0.55087 1.07344 0.0
N846 N 0.26688 0.57779 0.11641 0.0
C847 C 0.26246 0.54857 0.14087 0.0
H848 H 0.24857 0.59865 1.04743 0.0
H849 H 0.23514 0.50795 0.12419 0.0
C850 C 0.17409 0.59756 1.00873 0.0
N851 N 0.14638 0.51951 0.94207 0.0
C852 C 0.14414 0.49627 0.90428 0.0
C853 C 0.12288 0.53488 0.94366 0.0
N854 N 0.1203 0.49718 0.88189 0.0
C855 C 0.10684 0.52127 0.90653 0.0
C856 C 0.16292 0.52568 0.09664 0.0
O857 O 0.19518 0.58982 1.03387 0.0
O858 O 0.16392 0.57485 0.98137 0.0
O859 O 0.15138 0.52325 1.05164 0.0
O860 O 0.18741 0.53175 0.09419 0.0
O861 O 0.18279 0.48337 0.98416 0.0
H862 H 0.11744 0.55405 0.97113 0.0
H863 H 0.15926 0.47854 0.89435 0.0
O864 O 0.21997 0.49312 1.02326 0.0
O865 O 0.23102 0.55076 0.96779 0.0
O866 O 0.19907 0.5335 0.91844 0.0
C867 C 0.22356 0.54212 0.92195 0.0
H868 H 0.27355 0.53891 0.17386 0.0
H869 H 0.08632 0.52717 0.9 0.0
Co870 Co 0.57015 0.27068 1.04111 0.0
C871 C 0.56976 0.33987 1.01991 0.0
Co872 Co 0.60424 0.28857 0.99978 0.0
C873 C 0.52618 0.22915 1.06991 0.0
C874 C 0.53483 0.26721 0.12605 0.0
N875 N 0.54227 0.25515 1.07916 0.0
N876 N 0.50953 0.22407 0.11016 0.0
C877 C 0.5148 0.24816 0.14519 0.0
H878 H 0.52641 0.21457 1.03432 0.0
H879 H 0.54323 0.28877 0.1449 0.0
C880 C 0.60815 0.21955 1.01483 0.0
N881 N 0.63239 0.30558 0.96412 0.0
C882 C 0.65754 0.3067 0.98066 0.0
C883 C 0.63157 0.32485 0.92087 0.0
N884 N 0.67248 0.32616 0.94972 0.0
C885 C 0.6562 0.33741 0.9118 0.0
C886 C 0.61286 0.28689 0.11392 0.0
O887 O 0.58607 0.22424 1.03829 0.0
O888 O 0.61842 0.24448 0.9922 0.0
O889 O 0.62448 0.29284 1.0701 0.0
O890 O 0.58895 0.27804 0.10965 0.0
O891 O 0.59248 0.33205 1.00536 0.0
H892 H 0.61403 0.33049 0.89855 0.0
H893 H 0.66453 0.29441 1.01573 0.0
O894 O 0.55535 0.3172 1.04058 0.0
O895 O 0.5498 0.26387 0.97593 0.0
O896 O 0.58161 0.2852 0.9305 0.0
C897 C 0.55742 0.2751 0.93167 0.0
H898 H 0.50387 0.25275 0.18085 0.0
H899 H 0.66176 0.35333 0.87937 0.0
Co900 Co 0.20837 0.26734 0.89483 0.0
C901 C 0.20762 0.33645 0.92195 0.0
Co902 Co 0.17638 0.28168 0.94458 0.0
C903 C 0.25085 0.22978 0.84998 0.0
C904 C 0.23833 0.27039 0.80161 0.0
N905 N 0.23384 0.25539 0.84801 0.0
N906 N 0.26576 0.2281 0.80633 0.0
C907 C 0.25784 0.25372 0.77598 0.0
H908 H 0.25297 0.2135 0.8836 0.0
H909 H 0.22854 0.29263 0.78791 0.0
C910 C 0.17301 0.21291 0.92226 0.0
N911 N 0.15103 0.29424 0.99045 0.0
C912 C 0.13467 0.32032 0.98608 0.0
C913 C 0.14621 0.28092 1.03787 0.0
N914 N 0.11933 0.32369 1.02877 0.0
C915 C 0.12665 0.29885 1.06143 0.0
C916 C 0.1613 0.28354 0.83373 0.0
O917 O 0.19392 0.21953 0.89568 0.0
O918 O 0.16389 0.23631 0.94999 0.0
O919 O 0.15134 0.2876 0.87988 0.0
O920 O 0.18557 0.27625 0.8333 0.0
O921 O 0.1864 0.3265 0.94162 0.0
H922 H 0.15607 0.25936 1.05389 0.0
H923 H 0.13426 0.33648 0.95216 0.0
O924 O 0.22138 0.31526 0.89622 0.0
O925 O 0.23316 0.25895 0.95429 0.0
O926 O 0.20304 0.27682 1.00705 0.0
C927 C 0.22731 0.26815 1.00072 0.0
H928 H 0.26706 0.26165 0.73979 0.0
H929 H 0.11746 0.2928 0.09851 0.0
Co930 Co 0.5773 0.53665 0.89202 0.0
C931 C 0.57765 0.46928 0.9258 0.0
Co932 Co 0.61012 0.52353 0.94021 0.0
C933 C 0.5285 0.56507 0.85846 0.0
C934 C 0.54434 0.53014 0.80365 0.0
N935 N 0.54998 0.54666 0.84825 0.0
N936 N 0.50957 0.55976 0.82283 0.0
C937 C 0.51947 0.53819 0.78793 0.0
H938 H 0.52574 0.57952 0.89371 0.0
H939 H 0.55639 0.51099 0.78638 0.0
C940 C 0.61313 0.59089 0.91323 0.0
N941 N 0.63651 0.51133 0.9843 0.0
C942 C 0.65177 0.48418 0.98051 0.0
C943 C 0.64255 0.52505 1.0308 0.0
N944 N 0.66737 0.48036 1.02281 0.0
C945 C 0.66164 0.50616 1.05447 0.0
C946 C 0.62287 0.51989 0.82811 0.0
O947 O 0.592 0.58385 0.88752 0.0
O948 O 0.62238 0.56843 0.94288 0.0
O949 O 0.63372 0.51721 0.87385 0.0
O950 O 0.59835 0.52588 0.82876 0.0
O951 O 0.60004 0.47902 0.93984 0.0
H952 H 0.63358 0.54725 1.04644 0.0
H953 H 0.65101 0.46735 0.9476 0.0
O954 O 0.56352 0.4897 0.89944 0.0
O955 O 0.55474 0.54707 0.95282 0.0
O956 O 0.58507 0.52909 1.0049 0.0
C957 C 0.56094 0.53836 0.99919 0.0
H958 H 0.50859 0.52689 0.75609 0.0
H959 H 0.67142 0.51189 0.09109 0.0
C960 C 0.41399 0.90428 0.1548 0.0
C961 C 0.40314 0.87236 0.16304 0.0
C962 C 0.39832 0.93373 0.15512 0.0
C963 C 0.37057 0.93343 0.16181 0.0
H964 H 0.43498 0.90673 0.14916 0.0
H965 H 0.40823 0.95732 0.15004 0.0
S966 S 0.33157 0.85672 0.18346 0.0
N967 N 0.36201 0.8429 0.17793 0.0
N968 N 0.33315 0.89747 0.1764 0.0
C969 C 0.35932 0.9017 0.16879 0.0
C970 C 0.37534 0.87167 0.16993 0.0
C971 C 0.86536 0.40101 0.16879 0.0
C972 C 0.87676 0.43271 0.16284 0.0
C973 C 0.88085 0.37151 0.17018 0.0
C974 C 0.90866 0.37163 0.16413 0.0
H975 H 0.8443 0.39896 0.17394 0.0
H976 H 0.87076 0.34811 0.17592 0.0
S977 S 0.94833 0.44794 0.14377 0.0
N978 N 0.91798 0.46202 0.14931 0.0
N979 N 0.94643 0.40713 0.14963 0.0
C980 C 0.92017 0.40312 0.15638 0.0
C981 C 0.90449 0.43326 0.15641 0.0
C982 C 0.41936 0.40896 0.24639 0.0
C983 C 0.40846 0.44014 0.25891 0.0
C984 C 0.40386 0.37943 0.24533 0.0
C985 C 0.37659 0.37894 0.25782 0.0
H986 H 0.4399 0.40744 0.23564 0.0
H987 H 0.41356 0.35658 0.23447 0.0
S988 S 0.33851 0.45378 0.29568 0.0
N989 N 0.36837 0.46834 0.28481 0.0
N990 N 0.34001 0.41339 0.28493 0.0
C991 C 0.36569 0.4099 0.27175 0.0
C992 C 0.38131 0.44009 0.27163 0.0
C993 C 0.86526 0.90093 0.25342 0.0
C994 C 0.87344 0.87044 0.27504 0.0
C995 C 0.8821 0.92916 0.25199 0.0
C996 C 0.90825 0.92904 0.27234 0.0
H997 H 0.84599 0.90275 0.23558 0.0
H998 H 0.87435 0.95147 0.23397 0.0
S999 S 0.93918 0.85547 0.33522 0.0
N1000 N 0.90968 0.84205 0.31825 0.0
N1001 N 0.94064 0.8948 0.3167 0.0
C1002 C 0.9164 0.89883 0.29535 0.0
C1003 C 0.89932 0.86986 0.29617 0.0
C1004 C 0.62832 0.1267 0.99782 0.0
C1005 C 0.65548 0.12574 1.01132 0.0
C1006 C 0.61284 0.15621 1.00087 0.0
C1007 C 0.62365 0.18689 1.0166 0.0
H1008 H 0.61871 0.10419 0.98481 0.0
H1009 H 0.59237 0.1551 0.98937 0.0
S1010 S 0.69302 0.1988 1.05912 0.0
N1011 N 0.69171 0.159 1.04392 0.0
N1012 N 0.66337 0.21389 1.0477 0.0
C1013 C 0.65064 0.18631 1.03064 0.0
C1014 C 0.66625 0.15614 1.02862 0.0
C1015 C 0.11537 0.65953 1.01904 0.0
C1016 C 0.12642 0.69153 1.01345 0.0
C1017 C 0.13102 0.63009 1.01839 0.0
C1018 C 0.15888 0.63049 1.01382 0.0
H1019 H 0.09427 0.65704 1.02269 0.0
H1020 H 0.121 0.60647 1.0216 0.0
S1021 S 0.19838 0.70751 1.00077 0.0
N1022 N 0.16784 0.72126 1.00425 0.0
N1023 N 0.19663 0.66662 1.00505 0.0
C1024 C 0.1703 0.66229 1.00988 0.0
C1025 C 0.15434 0.69234 1.00913 0.0
C1026 C 0.63356 0.68411 0.90947 0.0
C1027 C 0.66146 0.68369 0.90495 0.0
C1028 C 0.61788 0.65476 0.9095 0.0
C1029 C 0.62916 0.62288 0.90641 0.0
H1030 H 0.62351 0.70762 0.91343 0.0
H1031 H 0.59681 0.65711 0.91401 0.0
S1032 S 0.70091 0.60672 0.89163 0.0
N1033 N 0.69918 0.64765 0.89455 0.0
N1034 N 0.67041 0.59302 0.89662 0.0
C1035 C 0.65698 0.62202 0.90094 0.0
C1036 C 0.67286 0.65201 0.89958 0.0
C1037 C 0.1675 0.14841 0.92438 0.0
C1038 C 0.15679 0.18055 0.91747 0.0
C1039 C 0.15147 0.11911 0.92465 0.0
C1040 C 0.12371 0.11975 0.91671 0.0
H1041 H 0.18841 0.14583 0.93117 0.0
H1042 H 0.16112 0.09547 0.93103 0.0
S1043 S 0.08571 0.19729 0.89363 0.0
N1044 N 0.11618 0.2106 0.90123 0.0
N1045 N 0.0869 0.15646 0.89965 0.0
C1046 C 0.11297 0.15169 0.90823 0.0
C1047 C 0.12915 0.18154 0.90924 0.0
C1048 C 0.41931 0.41289 0.67293 0.0
C1049 C 0.40844 0.38106 0.66439 0.0
C1050 C 0.40351 0.44232 0.67309 0.0
C1051 C 0.37591 0.44202 0.66348 0.0
H1052 H 0.44013 0.41508 0.68107 0.0
H1053 H 0.4132 0.46575 0.68066 0.0
S1054 S 0.33765 0.3654 0.63606 0.0
N1055 N 0.36791 0.35164 0.64497 0.0
N1056 N 0.33904 0.4061 0.64334 0.0
C1057 C 0.36502 0.4104 0.65352 0.0
C1058 C 0.38094 0.38043 0.65456 0.0
C1059 C 0.90018 0.93189 0.67305 0.0
C1060 C 0.87257 0.93163 0.66354 0.0
C1061 C 0.91608 0.90261 0.67157 0.0
C1062 C 0.90531 0.87092 0.6617 0.0
H1063 H 0.90982 0.95521 0.6817 0.0
H1064 H 0.93687 0.90478 0.6799 0.0
S1065 S 0.83457 0.85535 0.63291 0.0
N1066 N 0.83581 0.89594 0.64179 0.0
N1067 N 0.86488 0.84157 0.6412 0.0
C1068 C 0.87781 0.87028 0.65184 0.0
C1069 C 0.86177 0.90019 0.65205 0.0
C1070 C 0.41774 0.90505 0.7549 0.0
C1071 C 0.40633 0.93675 0.76081 0.0
C1072 C 0.40222 0.87551 0.75295 0.0
C1073 C 0.37435 0.87552 0.75831 0.0
H1074 H 0.43881 0.90303 0.75 0.0
H1075 H 0.41234 0.85216 0.74714 0.0
S1076 S 0.33454 0.95167 0.77798 0.0
N1077 N 0.36493 0.96581 0.77344 0.0
N1078 N 0.33652 0.91091 0.77201 0.0
C1079 C 0.36284 0.90695 0.76609 0.0
C1080 C 0.37853 0.93713 0.76665 0.0
C1081 C 0.90662 0.3678 0.75545 0.0
C1082 C 0.8788 0.36768 0.76148 0.0
C1083 C 0.92198 0.39749 0.75658 0.0
C1084 C 0.91044 0.42917 0.76225 0.0
H1085 H 0.91681 0.34447 0.74999 0.0
H1086 H 0.94304 0.39561 0.75146 0.0
S1087 S 0.83873 0.4437 0.78082 0.0
N1088 N 0.84088 0.40293 0.77538 0.0
N1089 N 0.86902 0.45802 0.77533 0.0
C1090 C 0.8827 0.4294 0.76856 0.0
C1091 C 0.86718 0.39912 0.76881 0.0
C1092 C 0.66602 0.64906 0.51601 0.0
C1093 C 0.65506 0.6173 0.50713 0.0
C1094 C 0.65043 0.67854 0.51648 0.0
C1095 C 0.62267 0.67836 0.51005 0.0
H1096 H 0.68704 0.65136 0.5216 0.0
H1097 H 0.6604 0.70203 0.52207 0.0
S1098 S 0.58343 0.6021 0.48679 0.0
N1099 N 0.61386 0.58811 0.49175 0.0
N1100 N 0.58511 0.64274 0.49486 0.0
C1101 C 0.61132 0.64678 0.50236 0.0
C1102 C 0.62726 0.61674 0.50036 0.0
C1103 C 0.1275 0.1257 0.51025 0.0
C1104 C 0.15536 0.12615 0.51529 0.0
C1105 C 0.11176 0.15497 0.51274 0.0
C1106 C 0.12295 0.18679 0.51883 0.0
H1107 H 0.11756 0.10221 0.50452 0.0
H1108 H 0.09068 0.15268 0.50828 0.0
S1109 S 0.19465 0.20271 0.53522 0.0
N1110 N 0.19299 0.16195 0.52886 0.0
N1111 N 0.16412 0.21646 0.53116 0.0
C1112 C 0.15076 0.18761 0.52421 0.0
C1113 C 0.16668 0.15768 0.52315 0.0
C1114 C 0.67092 0.15286 0.42329 0.0
C1115 C 0.66031 0.1844 0.41155 0.0
C1116 C 0.65497 0.12369 0.42529 0.0
C1117 C 0.62746 0.12392 0.41463 0.0
H1118 H 0.6916 0.15077 0.4328 0.0
H1119 H 0.66447 0.10048 0.43543 0.0
S1120 S 0.58993 0.19987 0.3793 0.0
N1121 N 0.62019 0.21365 0.38821 0.0
N1122 N 0.59098 0.15939 0.38986 0.0
C1123 C 0.61683 0.1552 0.40129 0.0
C1124 C 0.63294 0.18503 0.40046 0.0
C1125 C 0.12684 0.68245 0.42976 0.0
C1126 C 0.15363 0.68401 0.41366 0.0
C1127 C 0.11136 0.65296 0.42658 0.0
C1128 C 0.12173 0.6228 0.40778 0.0
H1129 H 0.1175 0.70447 0.4453 0.0
H1130 H 0.0913 0.65362 0.44062 0.0
S1131 S 0.1901 0.61229 0.35858 0.0
N1132 N 0.18908 0.65176 0.37602 0.0
N1133 N 0.1607 0.59689 0.37133 0.0
C1134 C 0.14832 0.62397 0.39098 0.0
C1135 C 0.16396 0.65418 0.39339 0.0
C1136 C 0.29248 0.04003 0.35171 0.0
C1137 C 0.28677 1.02656 0.30129 0.0
C1138 C 0.27283 0.04462 0.39213 0.0
C1139 C 0.24561 0.03657 0.38566 0.0
H1140 H 0.31249 0.04733 0.3603 0.0
H1141 H 0.27924 0.05465 0.42937 0.0
S1142 S 0.21893 1.00081 0.26186 0.0
N1143 N 0.2505 1.0053 0.24892 0.0
N1144 N 0.2148 1.01421 0.32241 0.0
C1145 C 0.23966 1.02332 0.33541 0.0
C1146 C 0.25961 1.01835 0.29451 0.0
C1147 C 0.04216 0.29029 0.33405 0.0
C1148 C 0.03652 0.27478 0.38299 0.0
C1149 C 0.0229 0.29403 0.29267 0.0
C1150 C 0.99625 0.28306 0.29692 0.0
H1151 H 0.06173 0.29993 0.32746 0.0
H1152 H 0.02913 0.30582 0.25657 0.0
S1153 S 0.97016 0.24063 0.41585 0.0
N1154 N 1.00114 0.24788 0.43123 0.0
N1155 N 0.96601 0.25567 0.3561 0.0
C1156 C 0.99037 0.26772 0.34562 0.0
C1157 C 1.00997 0.26345 0.38736 0.0
C1158 C 0.24474 0.28683 0.09384 0.0
C1159 C 0.24935 0.27172 1.04435 0.0
C1160 C 0.2651 0.2924 0.13233 0.0
C1161 C 0.29205 0.28331 0.12532 0.0
H1162 H 0.22502 0.29496 0.10307 0.0
H1163 H 0.25935 0.304 0.1688 0.0
S1164 S 0.31589 0.24197 1.00387 0.0
N1165 N 0.28426 0.24744 0.99185 0.0
N1166 N 0.32135 0.25724 1.06298 0.0
C1167 C 0.29697 0.26791 1.07621 0.0
C1168 C 0.27623 0.26239 1.03669 0.0
C1169 C 0.02212 1.00724 0.13972 0.0
C1170 C 0.99581 1.01953 0.13566 0.0
C1171 C 0.04195 1.01216 0.0998 0.0
C1172 C 0.0373 0.03029 1.05263 0.0
H1173 H 0.02761 0.99323 0.17438 0.0
H1174 H 0.0611 1.00106 0.10587 0.0
S1175 S 0.97277 0.07089 1.02293 0.0
N1176 N 0.96739 0.05249 1.07984 0.0
N1177 N 1.00352 0.06238 1.00754 0.0
C1178 C 1.01125 0.04353 1.04904 0.0
C1179 C 0.99107 0.03809 0.08924 0.0
C1180 C 0.76681 0.04107 0.87938 0.0
C1181 C 0.7395 0.03395 0.87176 0.0
C1182 C 0.78683 0.03577 0.84023 0.0
C1183 C 0.78143 1.02289 0.78951 0.0
H1184 H 0.77314 0.05093 0.91672 0.0
H1185 H 0.80689 0.04224 0.85 0.0
S1186 S 0.71332 1.00134 0.74581 0.0
N1187 N 0.7088 1.01376 0.80677 0.0
N1188 N 0.74517 1.00434 0.73439 0.0
C1189 C 0.7541 1.01603 0.78102 0.0
C1190 C 0.73375 1.02135 0.82115 0.0
C1191 C 1.01126 0.76441 0.88293 0.0
C1192 C 0.0371 0.77816 0.87919 0.0
C1193 C 0.99143 0.76791 0.84285 0.0
C1194 C 0.99564 0.78554 0.79525 0.0
H1195 H 1.006 0.75062 0.91788 0.0
H1196 H 0.97256 0.75619 0.84928 0.0
S1197 S 0.05926 0.82743 0.76363 0.0
N1198 N 0.06491 0.81102 0.82206 0.0
N1199 N 0.02877 0.81729 0.74804 0.0
C1200 C 0.02139 0.79953 0.7909 0.0
C1201 C 0.04155 0.79603 0.83196 0.0
C1202 C 0.74144 0.7878 0.09388 0.0
C1203 C 0.74689 0.7743 1.04349 0.0
C1204 C 0.76114 0.79162 0.13452 0.0
C1205 C 0.7882 0.7826 0.12859 0.0
H1206 H 0.72159 0.79579 0.1023 0.0
H1207 H 0.75482 0.80184 0.17164 0.0
S1208 S 0.81427 0.74633 1.00509 0.0
N1209 N 0.78286 0.75209 0.99144 0.0
N1210 N 0.81859 0.75915 1.06593 0.0
C1211 C 0.79394 0.76917 1.07846 0.0
C1212 C 0.77392 0.76518 1.03706 0.0
C1213 C 0.27034 0.5524 0.87915 0.0
C1214 C 0.24419 0.53941 0.87559 0.0
C1215 C 0.29006 0.54857 0.83862 0.0
C1216 C 0.2856 0.53088 0.79106 0.0
H1217 H 0.27582 0.56596 0.91411 0.0
H1218 H 0.30911 0.55987 0.84482 0.0
S1219 S 0.22126 0.49 0.76113 0.0
N1220 N 0.21598 0.50698 0.81898 0.0
N1221 N 0.25178 0.49951 0.7452 0.0
C1222 C 0.25957 0.51748 0.78743 0.0
C1223 C 0.23951 0.52169 0.82843 0.0
C1224 C 0.2377 0.78529 0.59782 0.0
C1225 C 0.24274 0.77539 0.54534 0.0
C1226 C 0.2582 0.79003 0.63624 0.0
C1227 C 0.28554 0.7856 0.62551 0.0
H1228 H 0.21757 0.78951 0.60967 0.0
H1229 H 0.25233 0.79712 0.67543 0.0
S1230 S 0.31069 0.76195 0.49379 0.0
N1231 N 0.27852 0.76274 0.48533 0.0
N1232 N 0.31586 0.7717 0.55584 0.0
C1233 C 0.29089 0.7762 0.57306 0.0
C1234 C 0.27007 0.77121 0.53397 0.0
C1235 C 1.01565 0.54706 0.54745 0.0
C1236 C 0.04004 0.52939 0.54797 0.0
C1237 C 0.99502 0.54212 0.58551 0.0
C1238 C 0.99683 0.51881 0.62734 0.0
H1239 H 1.01229 0.56529 0.51686 0.0
H1240 H 0.97758 0.55739 0.5825 0.0
S1241 S 0.05387 0.46109 0.6427 0.0
N1242 N 0.06274 0.48474 0.59279 0.0
N1243 N 0.02482 0.47486 0.66163 0.0
C1244 C 0.02067 0.50001 0.62702 0.0
C1245 C 0.04177 0.50535 0.58862 0.0
C1246 C 0.7609 0.50769 0.28806 0.0
C1247 C 0.78696 0.52093 0.29153 0.0
C1248 C 0.74117 0.51165 0.32845 0.0
C1249 C 0.74553 0.52991 0.37545 0.0
H1250 H 0.7555 0.49386 0.25333 0.0
H1251 H 0.72219 0.50012 0.32253 0.0
S1252 S 0.80986 0.57095 0.40533 0.0
N1253 N 0.81528 0.55326 0.34807 0.0
N1254 N 0.77914 0.56209 0.42057 0.0
C1255 C 0.77148 0.54356 0.37889 0.0
C1256 C 0.79165 0.53881 0.33845 0.0
C1257 C 0.74761 0.28661 0.59084 0.0
C1258 C 0.75162 0.26978 0.54267 0.0
C1259 C 0.76789 0.29069 0.62971 0.0
C1260 C 0.79399 0.27808 0.62433 0.0
H1261 H 0.72848 0.29718 0.59874 0.0
H1262 H 0.76275 0.30398 0.66506 0.0
S1263 S 0.81579 0.23089 0.50686 0.0
N1264 N 0.78488 0.23997 0.49304 0.0
N1265 N 0.82183 0.2469 0.56526 0.0
C1266 C 0.79826 0.26087 0.5766 0.0
C1267 C 0.77765 0.25698 0.53659 0.0
C1268 C 0.54327 0.29041 0.83394 0.0
C1269 C 0.53685 0.27905 0.88533 0.0
C1270 C 0.52389 0.2954 0.793 0.0
C1271 C 0.49633 0.28983 0.79983 0.0
H1272 H 0.56363 0.2957 0.82498 0.0
H1273 H 0.53082 0.30369 0.75503 0.0
S1274 S 0.46773 0.26124 0.92654 0.0
N1275 N 0.4995 0.26318 0.93939 0.0
N1276 N 0.46433 0.27269 0.86465 0.0
C1277 C 0.48965 0.27887 0.85108 0.0
C1278 C 0.5093 0.27353 0.8926 0.0
C1279 C 0.48993 0.04309 0.57801 0.0
C1280 C 0.49437 1.02683 0.62698 0.0
C1281 C 0.51 0.04688 0.53817 0.0
C1282 C 0.53641 0.0351 0.54382 0.0
H1283 H 0.47065 0.05334 0.57018 0.0
H1284 H 0.50455 0.05936 0.50208 0.0
S1285 S 0.55953 0.99017 0.66326 0.0
N1286 N 0.52853 0.99853 0.67693 0.0
N1287 N 0.56494 1.00565 0.60422 0.0
C1288 C 0.54107 1.0188 0.59245 0.0
C1289 C 0.5207 1.01479 0.63285 0.0
C1290 C 0.49059 0.76084 0.33742 0.0
C1291 C 0.49404 0.78246 0.29354 0.0
C1292 C 0.51046 0.75576 0.37755 0.0
C1293 C 0.53582 0.77117 0.37687 0.0
H1294 H 0.47229 0.74734 0.3409 0.0
H1295 H 0.50575 0.73921 0.40974 0.0
S1296 S 0.5555 0.83178 0.27372 0.0
N1297 N 0.52559 0.82089 0.25563 0.0
N1298 N 0.56202 0.81025 0.32734 0.0
C1299 C 0.53945 0.79277 0.33341 0.0
C1300 C 0.51911 0.79854 0.29331 0.0
C1301 C 0.52388 0.52268 0.13463 0.0
C1302 C 0.4966 0.52842 0.12445 0.0
C1303 C 0.54422 0.52619 0.09561 0.0
C1304 C 0.53912 0.5361 1.04297 0.0
H1305 H 0.52982 0.51545 0.17384 0.0
H1306 H 0.56429 0.52098 0.10712 0.0
S1307 S 0.47127 0.55314 0.99285 0.0
N1308 N 0.46626 0.54376 1.05515 0.0
N1309 N 0.50331 0.55057 0.98365 0.0
C1310 C 0.51186 0.5417 1.03221 0.0
C1311 C 0.49118 0.53792 1.07189 0.0
C1312 C 0.36333 0.03904 0.97073 0.0
C1313 C 0.37826 0.03889 1.01851 0.0
C1314 C 0.37484 0.03948 0.91871 0.0
C1315 C 0.40245 0.03941 0.90945 0.0
H1316 H 0.34211 0.03861 0.97332 0.0
H1317 H 0.36172 0.03926 0.88522 0.0
S1318 S 0.45144 0.03934 1.01922 0.0
N1319 N 0.42307 0.03915 1.05052 0.0
N1320 N 0.44424 0.03949 0.95601 0.0
C1321 C 0.41758 0.03939 0.95698 0.0
C1322 C 0.40583 0.03928 1.00983 0.0
C1323 C 0.87434 0.26756 1.01231 0.0
C1324 C 0.90195 0.26606 1.02095 0.0
C1325 C 0.86266 0.26763 0.96056 0.0
C1326 C 0.87755 0.26575 0.91315 0.0
H1327 H 0.86146 0.26944 1.04593 0.0
H1328 H 0.84147 0.26944 0.95783 0.0
S1329 S 0.95057 0.26006 0.91161 0.0
N1330 N 0.94359 0.26188 0.97475 0.0
N1331 N 0.9221 0.26155 0.88056 0.0
C1332 C 0.90507 0.26359 0.92137 0.0
C1333 C 0.91696 0.26388 0.97377 0.0
C1334 C 0.40406 0.2765 0.42478 0.0
C1335 C 0.37653 0.27772 0.41542 0.0
C1336 C 0.41548 0.2763 0.47666 0.0
C1337 C 0.40049 0.27674 0.52407 0.0
H1338 H 0.4172 0.27625 0.39145 0.0
H1339 H 0.43671 0.27592 0.47945 0.0
S1340 S 0.32737 0.27946 0.52427 0.0
N1341 N 0.33458 0.27924 0.46109 0.0
N1342 N 0.3557 0.27822 0.55596 0.0
C1343 C 0.37293 0.27746 0.51541 0.0
C1344 C 0.36123 0.27812 0.46251 0.0
C1345 C 0.87531 0.03116 0.41841 0.0
C1346 C 0.90283 0.03423 0.41111 0.0
C1347 C 0.86326 0.03104 0.46939 0.0
C1348 C 0.87765 0.03431 0.51725 0.0
H1349 H 0.86283 1.02808 0.38433 0.0
H1350 H 0.84214 1.02803 0.47113 0.0
S1351 S 0.95025 0.04459 0.52207 0.0
N1352 N 0.94397 0.04153 0.45866 0.0
N1353 N 0.92159 0.0417 0.55202 0.0
C1354 C 0.9051 0.03808 0.5105 0.0
C1355 C 0.91744 0.03791 0.45867 0.0
C1356 C 0.67334 1.0261 0.21181 0.0
C1357 C 0.65859 1.02285 0.16425 0.0
C1358 C 0.66176 1.02469 0.26361 0.0
C1359 C 0.63434 1.02031 0.27223 0.0
H1360 H 0.69433 0.03006 0.20918 0.0
H1361 H 0.67449 1.02792 0.29727 0.0
S1362 S 0.58617 1.00961 0.16261 0.0
N1363 N 0.6144 1.01413 0.13164 0.0
N1364 N 0.59309 1.01198 0.22577 0.0
C1365 C 0.6195 1.01673 0.22491 0.0
C1366 C 0.63131 1.01783 0.17248 0.0
C1367 C 0.14693 0.79099 0.1783 0.0
C1368 C 0.11937 0.79052 0.16971 0.0
C1369 C 0.15858 0.79069 0.22972 0.0
C1370 C 0.14379 0.79034 0.27728 0.0
H1371 H 0.1599 0.79093 0.14469 0.0
H1372 H 0.17982 0.79048 0.23197 0.0
S1373 S 0.07068 0.79058 0.27926 0.0
N1374 N 0.07759 0.79061 0.21594 0.0
N1375 N 0.09919 0.79049 0.31039 0.0
C1376 C 0.11619 0.79058 0.26944 0.0
C1377 C 0.10424 0.79053 0.2169 0.0
C1378 C 0.66932 0.78663 0.71532 0.0
C1379 C 0.65425 0.78727 0.76269 0.0
C1380 C 0.65794 0.78576 0.66334 0.0
C1381 C 0.63038 0.78511 0.65401 0.0
H1382 H 0.69054 0.78656 0.71824 0.0
H1383 H 0.67108 0.78506 0.63002 0.0
S1384 S 0.58113 0.7866 0.76284 0.0
N1385 N 0.60947 0.78751 0.79447 0.0
N1386 N 0.58842 0.78559 0.69976 0.0
C1387 C 0.61509 0.78596 0.70113 0.0
C1388 C 0.62672 0.7871 0.75395 0.0
C1389 C 0.14673 1.01775 0.75355 0.0
C1390 C 0.11908 1.02013 0.76048 0.0
C1391 C 0.15924 1.01845 0.70289 0.0
C1392 C 0.14528 1.02094 0.65437 0.0
H1393 H 0.15915 1.01595 0.78799 0.0
H1394 H 0.18048 1.0171 0.70198 0.0
S1395 S 0.07233 1.02747 0.64782 0.0
N1396 N 0.07819 1.02515 0.71153 0.0
N1397 N 0.10124 1.02558 0.61859 0.0
C1398 C 0.11757 1.0228 0.66054 0.0
C1399 C 0.10479 1.02264 0.7123 0.0
C1400 C 0.40141 0.5462 0.49613 0.0
C1401 C 0.37388 0.54265 0.50397 0.0
C1402 C 0.41352 0.54681 0.44489 0.0
C1403 C 0.39924 0.54457 0.39661 0.0
H1404 H 0.41406 0.54795 0.53021 0.0
H1405 H 0.4347 0.54896 0.44332 0.0
S1406 S 0.32648 0.53534 0.39224 0.0
N1407 N 0.33282 0.53692 0.45577 0.0
N1408 N 0.35509 0.53876 0.36223 0.0
C1409 C 0.37168 0.54153 0.40374 0.0
C1410 C 0.35933 0.5404 0.45595 0.0
C1411 C 0.91587 0.76608 0.47406 0.0
C1412 C 0.90066 0.76542 0.52122 0.0
C1413 C 0.90465 0.7659 0.42204 0.0
C1414 C 0.87715 0.76533 0.4125 0.0
H1415 H 0.93707 0.76707 0.47716 0.0
H1416 H 0.91786 0.76687 0.38884 0.0
S1417 S 0.82757 0.76359 0.52071 0.0
N1418 N 0.85582 0.76403 0.55269 0.0
N1419 N 0.83503 0.76398 0.45767 0.0
C1420 C 0.86169 0.76451 0.45938 0.0
C1421 C 0.87317 0.76446 0.51232 0.0
C1422 C 0.36868 0.77097 0.94449 0.0
C1423 C 0.38322 0.77078 0.89655 0.0
C1424 C 0.38062 0.77169 0.99583 0.0
C1425 C 0.40824 0.77287 1.00399 0.0
H1426 H 0.34743 0.77078 0.94258 0.0
H1427 H 0.36782 0.77201 1.0297 0.0
S1428 S 0.45633 0.77192 0.89335 0.0
N1429 N 0.42768 0.77097 0.86281 0.0
N1430 N 0.44972 0.77278 0.95677 0.0
C1431 C 0.42307 0.77237 0.95639 0.0
C1432 C 0.41086 0.77121 0.90404 0.0
C1433 C 0.88081 0.53347 0.91747 0.0
C1434 C 0.90853 0.53228 0.91102 0.0
C1435 C 0.8683 0.53388 0.9681 0.0
C1436 C 0.88239 0.53372 1.01659 0.0
H1437 H 0.86844 0.53343 0.88287 0.0
H1438 H 0.84703 0.5342 0.96906 0.0
S1439 S 0.9554 0.53122 1.02401 0.0
N1440 N 0.94951 0.53111 0.96026 0.0
N1441 N 0.92641 0.53253 1.05292 0.0
C1442 C 0.91009 0.53304 1.01074 0.0
C1443 C 0.92286 0.53215 0.95924 0.0
C1444 C 0.623 0.51506 0.72574 0.0
C1445 C 0.6374 0.51796 0.77368 0.0
C1446 C 0.63494 0.51534 0.67453 0.0
C1447 C 0.6624 0.51914 0.66646 0.0
H1448 H 0.60183 0.51267 0.72754 0.0
H1449 H 0.62222 0.51313 0.64063 0.0
S1450 S 0.7101 0.52801 0.77725 0.0
N1451 N 0.68159 0.52457 0.80766 0.0
N1452 N 0.70363 0.52579 0.71378 0.0
C1453 C 0.67713 0.522 0.71408 0.0
C1454 C 0.66493 0.52124 0.76637 0.0
C1455 C 0.16028 0.28786 0.73145 0.0
C1456 C 0.14622 0.28596 0.77983 0.0
C1457 C 0.1479 0.28821 0.68061 0.0
C1458 C 0.12027 0.28616 0.67336 0.0
H1459 H 0.18153 0.28896 0.73259 0.0
H1460 H 0.16039 0.28953 0.64633 0.0
S1461 S 0.07327 0.28039 0.78556 0.0
N1462 N 0.10215 0.28216 0.81516 0.0
N1463 N 0.07924 0.28211 0.72189 0.0
C1464 C 0.10586 0.28428 0.72142 0.0
C1465 C 0.11854 0.28439 0.77337 0.0
C1466 C 0.61195 0.28636 0.21734 0.0
C1467 C 0.62638 0.28923 0.16941 0.0
C1468 C 0.62394 0.28736 0.2688 0.0
C1469 C 0.65147 0.291 0.27667 0.0
H1470 H 0.59087 0.28303 0.21526 0.0
H1471 H 0.61142 0.28443 0.30277 0.0
S1472 S 0.699 0.29972 0.16563 0.0
N1473 N 0.67042 0.29625 0.13544 0.0
N1474 N 0.69255 0.29781 0.22902 0.0
C1475 C 0.66603 0.29409 0.22891 0.0
C1476 C 0.65379 0.29333 0.17679 0.0
C1477 C 0.12159 0.5241 0.16019 0.0
C1478 C 0.14924 0.52274 0.1521 0.0
C1479 C 0.10965 0.52342 0.21168 0.0
C1480 C 0.12428 0.52094 0.25953 0.0
H1481 H 0.10884 0.52637 0.12632 0.0
H1482 H 0.08846 0.5251 0.21384 0.0
S1483 S 0.19734 0.51579 0.26277 0.0
N1484 N 0.19067 0.5183 0.19947 0.0
N1485 N 0.16872 0.5167 0.29309 0.0
C1486 C 0.15186 0.5191 0.2519 0.0
C1487 C 0.16402 0.52008 0.19973 0.0
C1488 C 0.32795 0.16318 0.27374 0.0
C1489 C 0.3154 0.18988 0.2485 0.0
C1490 C 0.32899 0.13128 0.25119 0.0
C1491 C 0.31796 0.12405 0.20138 0.0
H1492 H 0.33874 0.16749 0.30978 0.0
H1493 H 0.33992 0.11233 0.27218 0.0
S1494 S 0.28118 0.1846 0.11969 0.0
N1495 N 0.29018 0.20636 0.17163 0.0
N1496 N 0.29227 0.14646 0.12929 0.0
C1497 C 0.30386 0.14992 0.17693 0.0
C1498 C 0.30269 0.1827 0.20028 0.0
C1499 C 0.95664 0.12343 0.17999 0.0
C1500 C 0.96573 0.11654 0.23153 0.0
C1501 C 0.95798 0.1554 0.15726 0.0
C1502 C 0.96893 0.18244 0.18425 0.0
H1503 H 0.9469 0.10416 0.15774 0.0
H1504 H 0.94857 0.15946 0.1196 0.0
S1505 S 0.99793 0.17804 0.31817 0.0
N1506 N 0.98797 0.1396 0.30724 0.0
N1507 N 0.99063 0.19958 0.26475 0.0
C1508 C 0.97976 0.17557 0.23444 0.0
C1509 C 0.97828 0.14277 0.25785 0.0
C1510 C 0.70894 0.87925 0.99665 0.0
C1511 C 0.71662 0.87298 0.94418 0.0
C1512 C 0.71045 0.91111 1.01958 0.0
C1513 C 0.72025 0.93869 0.99189 0.0
H1514 H 0.70023 0.85951 1.01969 0.0
H1515 H 0.70205 0.91462 1.05819 0.0
S1516 S 0.74517 0.93603 0.85483 0.0
N1517 N 0.73615 0.89727 0.86642 0.0
N1518 N 0.73924 0.95692 0.90928 0.0
C1519 C 0.72968 0.93243 0.94052 0.0
C1520 C 0.72797 0.89977 0.91689 0.0
C1521 C 0.06341 0.87469 0.9334 0.0
C1522 C 0.05304 0.86977 0.9845 0.0
C1523 C 0.06379 0.90602 0.90827 0.0
C1524 C 0.05323 0.93455 0.93191 0.0
H1525 H 0.07354 0.85452 0.91409 0.0
H1526 H 0.07438 0.90839 0.87162 0.0
S1527 S 0.02022 0.93531 1.06201 0.0
N1528 N 0.02967 0.89629 1.05556 0.0
N1529 N 0.0295 0.95487 1.00797 0.0
C1530 C 0.04068 0.92959 0.98101 0.0
C1531 C 0.0407 0.89747 1.00721 0.0
C1532 C 0.30214 0.66233 0.74563 0.0
C1533 C 0.31306 0.68948 0.71825 0.0
C1534 C 0.29861 0.63092 0.72094 0.0
C1535 C 0.30541 0.62527 0.66764 0.0
H1536 H 0.29832 0.6645 0.78725 0.0
H1537 H 0.29288 0.61002 0.74522 0.0
S1538 S 0.33243 0.68877 0.57741 0.0
N1539 N 0.32853 0.70881 0.63323 0.0
N1540 N 0.32201 0.6506 0.5884 0.0
C1541 C 0.3144 0.65291 0.63933 0.0
C1542 C 0.31817 0.6846 0.66414 0.0
C1543 C 0.95751 0.6765 0.74907 0.0
C1544 C 0.96804 0.68453 0.69906 0.0
C1545 C 0.95946 0.64449 0.77166 0.0
C1546 C 0.97251 0.61827 0.74637 0.0
H1547 H 0.94615 0.69486 0.77019 0.0
H1548 H 0.94889 0.63962 0.80773 0.0
S1549 S 1.00627 0.62591 0.61749 0.0
N1550 N 0.99413 0.66347 0.62706 0.0
N1551 N 0.99793 0.60345 0.66931 0.0
C1552 C 0.9848 0.62636 0.698 0.0
C1553 C 0.9827 0.65928 0.67464 0.0
C1554 C 0.73177 0.39806 0.42312 0.0
C1555 C 0.72235 0.3707 0.4522 0.0
C1556 C 0.73489 0.42998 0.44654 0.0
C1557 C 0.72914 0.43602 0.50022 0.0
H1558 H 0.73471 0.39557 0.38126 0.0
H1559 H 0.73949 0.4508 0.42116 0.0
S1560 S 0.7061 0.37224 0.59453 0.0
N1561 N 0.7093 0.35174 0.53894 0.0
N1562 N 0.71505 0.41079 0.58156 0.0
C1563 C 0.72155 0.40828 0.53005 0.0
C1564 C 0.71822 0.37607 0.5065 0.0
C1565 C 0.06986 0.39907 0.52593 0.0
C1566 C 0.05647 0.37215 0.50319 0.0
C1567 C 0.07308 0.42961 0.4994 0.0
C1568 C 0.0632 0.43554 0.44827 0.0
H1569 H 0.08 0.3956 0.56297 0.0
H1570 H 0.08486 0.44836 0.5184 0.0
S1571 S 0.02487 0.37427 0.37144 0.0
N1572 N 0.03192 0.35425 0.42645 0.0
N1573 N 0.03756 0.41188 0.37737 0.0
C1574 C 0.04816 0.40975 0.42614 0.0
C1575 C 0.04498 0.37819 0.45327 0.0
C1576 C 0.82179 0.14705 0.65153 0.0
C1577 C 0.80988 0.11971 0.67635 0.0
C1578 C 0.82363 0.17832 0.67614 0.0
C1579 C 0.81407 0.18415 0.7275 0.0
H1580 H 0.83174 0.14357 0.61441 0.0
H1581 H 0.83439 0.19769 0.65587 0.0
S1582 S 0.77933 0.12174 0.80874 0.0
N1583 N 0.78666 0.1014 0.75445 0.0
N1584 N 0.79038 0.16 0.80058 0.0
C1585 C 0.8005 0.15779 0.75151 0.0
C1586 C 0.79846 0.12575 0.72611 0.0
C1587 C 0.46358 0.16347 0.65882 0.0
C1588 C 0.46808 0.19139 0.69058 0.0
C1589 C 0.46342 0.13087 0.68 0.0
C1590 C 0.46755 0.12427 0.73415 0.0
H1591 H 0.45815 0.16694 0.61806 0.0
H1592 H 0.45811 0.11065 0.65412 0.0
S1593 S 0.48152 0.1884 0.83407 0.0
N1594 N 0.47808 0.20983 0.77906 0.0
N1595 N 0.4776 0.14896 0.81823 0.0
C1596 C 0.47355 0.15174 0.76575 0.0
C1597 C 0.47376 0.18502 0.74419 0.0
C1598 C 0.20333 0.87885 0.50347 0.0
C1599 C 0.21117 0.87212 0.4512 0.0
C1600 C 0.20537 0.91071 0.52591 0.0
C1601 C 0.21572 0.93765 0.49769 0.0
H1602 H 0.19395 0.85958 0.52657 0.0
H1603 H 0.19679 0.91481 0.56422 0.0
S1604 S 0.24165 0.93342 0.36157 0.0
N1605 N 0.23181 0.89503 0.37356 0.0
N1606 N 0.23566 0.95487 0.41543 0.0
C1607 C 0.22541 0.93085 0.44675 0.0
C1608 C 0.22328 0.89819 0.4237 0.0
C1609 C 0.55407 0.89382 0.49931 0.0
C1610 C 0.56814 0.86808 0.47449 0.0
C1611 C 0.55336 0.9266 0.47772 0.0
C1612 C 0.56613 0.93487 0.42993 0.0
H1613 H 0.54526 0.88934 0.53731 0.0
H1614 H 0.5444 0.94616 0.50061 0.0
S1615 S 0.60473 0.87688 0.34838 0.0
N1616 N 0.59412 0.85376 0.39748 0.0
N1617 N 0.59256 0.91422 0.3587 0.0
C1618 C 0.57887 0.90901 0.40375 0.0
C1619 C 0.57983 0.87608 0.4254 0.0
C1620 C 0.82435 0.64678 0.14997 0.0
C1621 C 0.81256 0.61945 0.17486 0.0
C1622 C 0.82539 0.67829 0.17386 0.0
C1623 C 0.81559 0.68431 0.22494 0.0
H1624 H 0.83454 0.64327 0.11311 0.0
H1625 H 0.83526 0.69794 0.15279 0.0
S1626 S 0.77886 0.62271 0.30409 0.0
N1627 N 0.78764 0.60174 0.25125 0.0
N1628 N 0.79031 0.66081 0.2964 0.0
C1629 C 0.80173 0.65806 0.24859 0.0
C1630 C 0.80026 0.62577 0.22371 0.0
C1631 C 0.4796 0.65354 0.24679 0.0
C1632 C 0.46951 0.62624 0.21875 0.0
C1633 C 0.48287 0.68518 0.22236 0.0
C1634 C 0.47659 0.69093 0.16874 0.0
H1635 H 0.48292 0.65128 0.28862 0.0
H1636 H 0.48795 0.70609 0.247 0.0
S1637 S 0.45195 0.62711 1.07684 0.0
N1638 N 0.4555 0.60689 0.13283 0.0
N1639 N 0.46148 0.66553 0.08849 0.0
C1640 C 0.46848 0.66318 0.13985 0.0
C1641 C 0.465 0.63124 0.16437 0.0
C1642 C 0.20775 0.43126 0.92466 0.0
C1643 C 0.21309 0.4389 0.97797 0.0
C1644 C 0.20902 0.39846 0.90462 0.0
C1645 C 0.21601 0.3713 0.93661 0.0
H1646 H 0.20118 0.45076 0.89843 0.0
H1647 H 0.20267 0.3941 0.86465 0.0
S1648 S 0.23333 0.37715 1.07822 0.0
N1649 N 0.22698 0.41602 1.06149 0.0
N1650 N 0.22935 0.35483 1.02448 0.0
C1651 C 0.22277 0.37882 0.9893 0.0
C1652 C 0.22147 0.41232 1.00971 0.0
C1653 C 0.57237 0.40128 1.03009 0.0
C1654 C 0.56096 0.3741 1.00422 0.0
C1655 C 0.57551 0.43232 1.00509 0.0
C1656 C 0.56777 0.43804 0.95236 0.0
H1657 H 0.58106 0.39777 1.06855 0.0
H1658 H 0.58568 0.45163 1.02658 0.0
S1659 S 0.53469 0.37611 0.86794 0.0
N1660 N 0.54003 0.35589 0.92352 0.0
N1661 N 0.54598 0.41417 0.87679 0.0
C1662 C 0.55453 0.41195 0.92713 0.0
C1663 C 0.55123 0.38012 0.95287 0.0
C1664 C 0.23605 0.95116 1.01594 0.0
C1665 C 0.24982 0.98065 1.00636 0.0
C1666 C 0.21042 0.9473 0.99708 0.0
C1667 C 0.1981 0.97308 0.96876 0.0
H1668 H 0.24323 0.93389 1.04531 0.0
H1669 H 0.19917 0.92614 1.01055 0.0
S1670 S 0.2314 0.04795 0.9151 0.0
N1671 N 0.25365 0.02983 0.95267 0.0
N1672 N 0.2053 1.02368 0.91752 0.0
C1673 C 0.21412 0.99884 0.9491 0.0
C1674 C 0.24036 1.00212 0.96759 0.0
C1675 C 0.0852 0.34783 1.08434 0.0
C1676 C 0.09559 0.34279 1.03386 0.0
C1677 C 0.05806 0.3492 0.09198 0.0
C1678 C 0.04093 0.346 1.04906 0.0
H1679 H 0.09779 0.34579 0.11851 0.0
H1680 H 0.0507 0.34731 0.13169 0.0
S1681 S 0.05849 0.34949 0.90862 0.0
N1682 N 0.08688 0.34695 0.93979 0.0
N1683 N 0.03586 0.35085 0.95486 0.0
C1684 C 0.05124 0.34986 0.9985 0.0
C1685 C 0.07879 0.34777 0.99052 0.0
C1686 C 0.213 0.294 0.33577 0.0
C1687 C 0.22535 0.32442 0.32505 0.0
C1688 C 0.18765 0.29341 0.35644 0.0
C1689 C 0.17439 0.32324 0.36665 0.0
H1690 H 0.22407 0.27106 0.33435 0.0
H1691 H 0.17998 0.27006 0.37096 0.0
S1692 S 0.19499 0.40778 0.32741 0.0
N1693 N 0.2203 0.38385 0.31275 0.0
N1694 N 0.17226 0.3827 0.35144 0.0
C1695 C 0.18478 0.35304 0.34725 0.0
C1696 C 0.21057 0.35368 0.32663 0.0
C1697 C 0.05245 0.95467 0.43214 0.0
C1698 C 0.04215 0.95725 0.3811 0.0
C1699 C 0.07955 0.95627 0.44038 0.0
C1700 C 0.09665 0.95988 0.39747 0.0
H1701 H 0.03957 0.95734 0.46563 0.0
H1702 H 0.08645 0.96004 0.48009 0.0
S1703 S 0.07965 0.94818 0.25761 0.0
N1704 N 0.05109 0.94969 0.28815 0.0
N1705 N 0.10227 0.95116 0.30393 0.0
C1706 C 0.08681 0.95298 0.34721 0.0
C1707 C 0.05923 0.95189 0.33879 0.0
C1708 C 0.84781 0.04207 1.05835 0.0
C1709 C 0.86078 0.06457 0.09117 0.0
C1710 C 0.82205 0.04834 1.04246 0.0
C1711 C 0.80932 0.07782 1.05776 0.0
H1712 H 0.85539 1.01707 1.05435 0.0
H1713 H 0.81131 1.02804 1.02498 0.0
S1714 S 0.84163 0.15123 0.1164 0.0
N1715 N 0.86401 0.12161 0.1194 0.0
N1716 N 0.81579 0.13478 0.08699 0.0
C1717 C 0.82491 0.10369 1.07772 0.0
C1718 C 0.85104 0.09689 0.09423 0.0
C1719 C 0.96776 0.68443 0.11641 0.0
C1720 C 0.97823 0.70545 1.07764 0.0
C1721 C 0.94205 0.68921 0.13415 0.0
C1722 C 0.92678 0.71524 0.11359 0.0
H1723 H 0.98081 0.66899 0.13961 0.0
H1724 H 0.93624 0.6774 0.17058 0.0
S1725 S 0.94111 0.76496 0.99533 0.0
N1726 N 0.96828 0.74357 1.00633 0.0
N1727 N 0.92003 0.7529 1.04077 0.0
C1728 C 0.9346 0.72958 1.06612 0.0
C1729 C 0.96064 0.72457 1.04769 0.0
C1730 C 0.82668 0.70978 0.72698 0.0
C1731 C 0.84421 0.7066 0.76937 0.0
C1732 C 0.79973 0.71204 0.73623 0.0
C1733 C 0.79009 0.71171 0.78788 0.0
H1734 H 0.83375 0.71608 0.68819 0.0
H1735 H 0.78708 0.71978 0.70422 0.0
S1736 S 0.82698 0.68451 0.90581 0.0
N1737 N 0.84945 0.68823 0.85952 0.0
N1738 N 0.79865 0.69387 0.87768 0.0
C1739 C 0.80665 0.69961 0.82769 0.0
C1740 C 0.83403 0.69673 0.81804 0.0
C1741 C 0.94657 0.11893 0.78002 0.0
C1742 C 0.94008 0.09413 0.74372 0.0
C1743 C 0.97258 0.12287 0.79675 0.0
C1744 C 0.99203 0.10052 0.78002 0.0
H1745 H 0.93114 0.13209 0.80048 0.0
H1746 H 0.97619 0.13813 0.83092 0.0
S1747 S 0.98676 0.04208 0.66931 0.0
N1748 N 0.95645 0.05557 0.67841 0.0
N1749 N 1.00522 0.0622 0.71208 0.0
C1750 C 0.9869 0.08199 0.73475 0.0
C1751 C 0.96055 0.07825 0.71686 0.0
C1752 C 0.21378 0.47127 0.61073 0.0
C1753 C 0.23311 0.45483 0.5813 0.0
C1754 C 0.18807 0.47388 0.5914 0.0
C1755 C 0.18165 0.46026 0.54244 0.0
H1756 H 0.2196 0.48743 0.64251 0.0
H1757 H 0.17502 0.49183 0.60918 0.0
S1758 S 0.22269 0.404 0.46324 0.0
N1759 N 0.24203 0.41582 0.51177 0.0
N1760 N 0.19388 0.4215 0.47448 0.0
C1761 C 0.19896 0.43715 0.52048 0.0
C1762 C 0.22493 0.43423 0.54038 0.0
C1763 C 0.08141 0.85115 0.58686 0.0
C1764 C 0.09142 0.84748 0.53578 0.0
C1765 C 0.05433 0.85253 0.59515 0.0
C1766 C 0.03703 0.8507 0.55229 0.0
H1767 H 0.09411 0.84754 0.62054 0.0
H1768 H 0.04717 0.84913 0.63477 0.0
S1769 S 0.05402 0.86132 0.41243 0.0
N1770 N 0.08252 0.85683 0.44268 0.0
N1771 N 0.03153 0.86025 0.45902 0.0
C1772 C 0.04708 0.85692 0.50211 0.0
C1773 C 0.07459 0.85498 0.49344 0.0
C1774 C 0.21105 0.79556 0.84079 0.0
C1775 C 0.22915 0.82172 0.84163 0.0
C1776 C 0.18508 0.80085 0.85536 0.0
C1777 C 0.17683 0.83245 0.87191 0.0
H1778 H 0.21773 0.77037 0.83435 0.0
H1779 H 0.17271 0.77925 0.86046 0.0
S1780 S 0.21494 0.91062 0.86174 0.0
N1781 N 0.23612 0.88112 0.84629 0.0
N1782 N 0.18665 0.89165 0.87248 0.0
C1783 C 0.19361 0.85967 0.863 0.0
C1784 C 0.22017 0.85413 0.84849 0.0
C1785 C 0.09546 0.44691 0.87512 0.0
C1786 C 0.10813 0.47316 0.84907 0.0
C1787 C 0.06884 0.44079 0.86543 0.0
C1788 C 0.05524 0.45976 0.82796 0.0
H1789 H 0.10411 0.43661 0.91047 0.0
H1790 H 0.05798 0.42561 0.89301 0.0
S1791 S 0.084 0.52038 0.73506 0.0
N1792 N 0.10868 0.50912 0.77329 0.0
N1793 N 0.05859 0.49812 0.75461 0.0
C1794 C 0.06984 0.47938 0.79291 0.0
C1795 C 0.09683 0.4854 0.80299 0.0
C1796 C 0.82165 0.61479 0.59153 0.0
C1797 C 0.81027 0.5864 0.56865 0.0
C1798 C 0.8475 0.61398 0.61001 0.0
C1799 C 0.86235 0.58485 0.60581 0.0
H1800 H 0.80976 0.63619 0.60107 0.0
H1801 H 0.85402 0.6336 0.63592 0.0
S1802 S 0.84692 0.51122 0.52611 0.0
N1803 N 0.81965 0.53338 0.52583 0.0
N1804 N 0.86845 0.53323 0.55971 0.0
C1805 C 0.85387 0.5606 0.57064 0.0
C1806 C 0.82736 0.56065 0.55295 0.0
C1807 C 0.99317 0.22081 0.70889 0.0
C1808 C 0.99948 0.20235 0.664 0.0
C1809 C 0.96731 0.22092 0.72761 0.0
C1810 C 0.94804 0.2017 0.70241 0.0
H1811 H 1.00623 0.24046 0.72158 0.0
H1812 H 0.96158 0.24021 0.75478 0.0
S1813 S 0.95952 0.13591 0.60466 0.0
N1814 N 0.98825 0.15463 0.61108 0.0
N1815 N 0.93955 0.15433 0.6465 0.0
C1816 C 0.95635 0.1764 0.66876 0.0
C1817 C 0.98258 0.17641 0.65 0.0
C1818 C 0.80443 0.20366 0.32169 0.0
C1819 C 0.78743 0.2141 0.28142 0.0
C1820 C 0.83151 0.20274 0.31313 0.0
C1821 C 0.84196 0.21256 0.26449 0.0
H1822 H 0.79746 0.20146 0.36165 0.0
H1823 H 0.8444 0.19916 0.34654 0.0
S1824 S 0.80409 0.22774 0.14212 0.0
N1825 N 0.78163 0.22198 0.18785 0.0
N1826 N 0.83266 0.2232 0.17206 0.0
C1827 C 0.82471 0.21575 0.22156 0.0
C1828 C 0.79717 0.21548 0.23009 0.0
C1829 C 0.95166 0.61737 0.27788 0.0
C1830 C 0.9435 0.59419 0.24029 0.0
C1831 C 0.9778 0.61796 0.29466 0.0
C1832 C 0.99566 0.59432 0.27572 0.0
H1833 H 0.93717 0.63133 0.2997 0.0
H1834 H 0.98251 0.63168 0.32992 0.0
S1835 S 0.98625 0.53873 0.16264 0.0
N1836 N 0.95705 0.55541 0.17264 0.0
N1837 N 1.00611 0.55611 0.2059 0.0
C1838 C 0.98927 0.57749 0.22954 0.0
C1839 C 0.96277 0.57699 0.21188 0.0
C1840 C 0.73046 0.95058 0.49008 0.0
C1841 C 0.74063 0.95145 0.54147 0.0
C1842 C 0.70339 0.95289 0.48163 0.0
C1843 C 0.68617 0.95458 0.52457 0.0
H1844 H 0.74342 0.95452 0.45698 0.0
H1845 H 0.69662 0.95849 0.44233 0.0
S1846 S 0.70262 0.93337 0.66198 0.0
N1847 N 0.73136 0.93754 0.63263 0.0
N1848 N 0.68016 0.93984 0.6162 0.0
C1849 C 0.69583 0.94497 0.5739 0.0
C1850 C 0.72341 0.94353 0.58263 0.0
C1851 C 0.55622 0.35205 0.50875 0.0
C1852 C 0.54559 0.34775 0.55917 0.0
C1853 C 0.58325 0.34929 0.50059 0.0
C1854 C 0.60022 0.34279 0.54298 0.0
H1855 H 0.54337 0.35249 0.47483 0.0
H1856 H 0.59014 0.34763 0.46057 0.0
S1857 S 0.58316 0.3465 0.68397 0.0
N1858 N 0.55466 0.34842 0.65302 0.0
N1859 N 0.60575 0.34518 0.63761 0.0
C1860 C 0.59037 0.34669 0.59403 0.0
C1861 C 0.5628 0.34881 0.60231 0.0
C1862 C 0.73673 0.3602 0.90965 0.0
C1863 C 0.75216 0.33148 0.91274 0.0
C1864 C 0.71107 0.36015 0.92897 0.0
C1865 C 0.70043 0.33132 0.95185 0.0
H1866 H 0.74277 0.3803 0.88412 0.0
H1867 H 0.69854 0.38113 0.92003 0.0
S1868 S 0.73742 0.255 0.9869 0.0
N1869 N 0.75864 0.27815 0.95433 0.0
N1870 N 0.71015 0.2771 0.99013 0.0
C1871 C 0.71772 0.30531 0.96506 0.0
C1872 C 0.74399 0.30588 0.9461 0.0
C1873 C 0.56975 0.98706 0.81357 0.0
C1874 C 0.54992 0.96752 0.83624 0.0
C1875 C 0.59561 0.98492 0.83216 0.0
C1876 C 0.60156 0.964 0.87473 0.0
H1877 H 0.56449 1.00757 0.78805 0.0
H1878 H 0.6093 1.00426 0.82099 0.0
S1879 S 0.5589 0.89872 0.93027 0.0
N1880 N 0.53959 0.91966 0.88986 0.0
N1881 N 0.58833 0.91574 0.92501 0.0
C1882 C 0.58346 0.93907 0.88768 0.0
C1883 C 0.55721 0.94125 0.869 0.0
C1884 C 0.2971 0.10033 0.69033 0.0
C1885 C 0.2869 0.09959 0.63891 0.0
C1886 C 0.32423 0.10005 0.69895 0.0
C1887 C 0.34159 0.1 0.65622 0.0
H1888 H 0.28427 0.09579 0.72344 0.0
H1889 H 0.33129 0.09488 0.73821 0.0
S1890 S 0.32463 0.11688 0.5175 0.0
N1891 N 0.29605 0.11191 0.54707 0.0
N1892 N 0.34711 0.11329 0.56398 0.0
C1893 C 0.33156 0.10832 0.60656 0.0
C1894 C 0.30398 0.10776 0.59756 0.0
C1895 C 0.45284 0.70808 0.68099 0.0
C1896 C 0.43571 0.71201 0.63807 0.0
C1897 C 0.47992 0.70639 0.67286 0.0
C1898 C 0.49024 0.70919 0.62192 0.0
H1899 H 0.44593 0.71153 0.72071 0.0
H1900 H 0.49282 0.70862 0.70652 0.0
S1901 S 0.45254 0.70206 0.49792 0.0
N1902 N 0.43 0.70455 0.54425 0.0
N1903 N 0.48113 0.70298 0.52864 0.0
C1904 C 0.47308 0.70459 0.57933 0.0
C1905 C 0.44551 0.70573 0.58766 0.0
C1906 C 0.33502 0.70731 0.3112 0.0
C1907 C 0.3515 0.73499 0.30274 0.0
C1908 C 0.30866 0.71165 0.32475 0.0
C1909 C 0.29871 0.74361 0.33197 0.0
H1910 H 0.34159 0.68264 0.30075 0.0
H1911 H 0.29551 0.69053 0.32411 0.0
S1912 S 0.33555 0.82253 0.33557 0.0
N1913 N 0.3573 0.79448 0.31734 0.0
N1914 N 0.30796 0.80191 0.34508 0.0
C1915 C 0.31598 0.77052 0.33405 0.0
C1916 C 0.3426 0.76637 0.31928 0.0
C1917 C 0.48423 0.09422 0.23823 0.0
C1918 C 0.49437 0.09467 0.28965 0.0
C1919 C 0.45719 0.09279 0.22959 0.0
C1920 C 0.43982 0.09245 0.27227 0.0
H1921 H 0.49723 0.08997 0.20534 0.0
H1922 H 0.45028 0.08718 0.19041 0.0
S1923 S 0.45611 0.1097 0.41093 0.0
N1924 N 0.48483 0.10638 0.3814 0.0
N1925 N 0.43379 0.10502 0.36445 0.0
C1926 C 0.44951 0.10102 0.32192 0.0
C1927 C 0.47704 0.10194 0.33093 0.0
C1928 C 0.69978 0.45289 1.07905 0.0
C1929 C 0.68988 0.45909 1.02839 0.0
C1930 C 0.72679 0.44936 0.0872 0.0
C1931 C 0.74414 0.45199 1.04464 0.0
H1932 H 0.6872 0.45584 0.11293 0.0
H1933 H 0.73408 0.45067 0.12707 0.0
S1934 S 0.72696 0.45121 0.90389 0.0
N1935 N 0.69864 0.45543 0.93454 0.0
N1936 N 0.74928 0.44715 0.95055 0.0
C1937 C 0.73383 0.44858 0.99391 0.0
C1938 C 0.70647 0.45301 0.98538 0.0
C1939 C 0.59464 0.86297 1.05241 0.0
C1940 C 0.60689 0.83336 1.06829 0.0
C1941 C 0.56866 0.86952 1.06714 0.0
C1942 C 0.55486 0.8468 0.09855 0.0
H1943 H 0.60317 0.87753 1.02099 0.0
H1944 H 0.55811 0.88937 1.04762 0.0
S1945 S 0.58245 0.77282 0.16525 0.0
N1946 N 0.6068 0.78729 0.12911 0.0
N1947 N 0.5578 0.79887 0.1563 0.0
C1948 C 0.56912 0.82154 0.1239 0.0
C1949 C 0.59554 0.81522 0.10921 0.0
C1950 C 0.69587 0.84745 0.34285 0.0
C1951 C 0.6864 0.84319 0.39432 0.0
C1952 C 0.72288 0.84782 0.33316 0.0
C1953 C 0.74065 0.84469 0.375 0.0
H1954 H 0.68266 0.84505 0.30972 0.0
H1955 H 0.72952 0.84482 0.29312 0.0
S1956 S 0.72571 0.85336 0.51602 0.0
N1957 N 0.69671 0.85056 0.48715 0.0
N1958 N 0.74756 0.8521 0.46826 0.0
C1959 C 0.73139 0.85018 0.42591 0.0
C1960 C 0.70395 0.84922 0.43597 0.0
C1961 C 0.56083 0.45726 0.34939 0.0
C1962 C 0.55233 0.48955 0.33891 0.0
C1963 C 0.58712 0.45147 0.36221 0.0
C1964 C 0.60487 0.47819 0.36729 0.0
H1965 H 0.54671 0.43728 0.35306 0.0
H1966 H 0.59265 0.42683 0.37527 0.0
S1967 S 0.59267 0.56508 0.32394 0.0
N1968 N 0.56402 0.54628 0.31831 0.0
N1969 N 0.61333 0.53626 0.34454 0.0
C1970 C 0.59731 0.50934 0.34687 0.0
C1971 C 0.57076 0.51489 0.33274 0.0
C1972 C 0.32714 0.6008 0.18407 0.0
C1973 C 0.34432 0.60043 0.141 0.0
C1974 C 0.30003 0.59972 0.17598 0.0
C1975 C 0.28974 0.59787 0.12487 0.0
H1976 H 0.33441 0.59665 0.22348 0.0
H1977 H 0.28743 0.59501 0.20939 0.0
S1978 S 0.32647 0.61316 1.0017 0.0
N1979 N 0.34923 0.61161 1.04792 0.0
N1980 N 0.29814 0.6081 1.03216 0.0
C1981 C 0.30641 0.60567 1.08272 0.0
C1982 C 0.33398 0.60733 0.0911 0.0
C1983 C 0.43997 0.21347 0.09135 0.0
C1984 C 0.43366 0.20776 0.14421 0.0
C1985 C 0.46622 0.21193 1.07495 0.0
C1986 C 0.48612 0.20444 0.11141 0.0
H1987 H 0.42587 0.22582 1.06608 0.0
H1988 H 0.4713 0.22273 1.03737 0.0
S1989 S 0.47737 0.1755 0.24749 0.0
N1990 N 0.44734 0.18372 0.22664 0.0
N1991 N 0.49677 0.18136 0.19649 0.0
C1992 C 0.47884 0.19012 0.15938 0.0
C1993 C 0.45216 0.19121 0.17554 0.0
C1994 C 0.33524 0.21561 0.83535 0.0
C1995 C 0.34526 0.2188 0.78412 0.0
C1996 C 0.30825 0.21264 0.84379 0.0
C1997 C 0.29081 0.21216 0.80105 0.0
H1998 H 0.34781 0.22005 0.86892 0.0
H1999 H 0.301 0.21573 0.88335 0.0
S2000 S 0.30834 0.2015 0.66139 0.0
N2001 N 0.33659 0.20845 0.69136 0.0
N2002 N 0.28584 0.20152 0.70798 0.0
C2003 C 0.30117 0.20669 0.75089 0.0
C2004 C 0.3286 0.21038 0.74204 0.0
C2005 C 0.46435 0.54061 0.82751 0.0
C2006 C 0.48237 0.56689 0.82872 0.0
C2007 C 0.43809 0.54643 0.81546 0.0
C2008 C 0.4294 0.57873 0.80353 0.0
H2009 H 0.47118 0.51521 0.83078 0.0
H2010 H 0.42568 0.52508 0.80868 0.0
S2011 S 0.4674 0.65646 0.82072 0.0
N2012 N 0.48897 0.62645 0.83109 0.0
N2013 N 0.439 0.63784 0.80954 0.0
C2014 C 0.44627 0.60553 0.81457 0.0
C2015 C 0.47312 0.59949 0.82656 0.0
loop_
_geom_bond_atom_site_label_1
_geom_bond_atom_site_label_2
_geom_bond_distance
_geom_bond_site_symmetry_2
_ccdc_geom_bond_type
Co0 N5 2.055 1_545 S
Co0 O17 2.021 . S
Co0 O20 2.062 . S
Co0 O24 2.117 1_545 S
Co0 O25 2.020 . S
C1 O21 1.259 . S
C1 O24 1.258 . S
Co2 N11 2.057 1_565 S
Co2 O18 2.117 1_565 S
Co2 O19 2.020 . S
Co2 O21 2.021 . S
Co2 O26 2.062 1_564 S
C3 N5 1.308 1_545 S
C3 N6 1.347 . S
C3 H8 0.931 . S
C4 N5 1.386 . S
C4 C7 1.350 . S
C4 H9 0.930 . S
N5 Co0 2.055 1_565 S
N5 C3 1.308 1_565 S
N5 C4 1.386 . S
N6 C3 1.347 . S
N6 C7 1.373 1_545 S
C7 C4 1.350 . S
C7 N6 1.373 1_565 S
C7 H28 0.931 . S
H8 C3 0.931 . S
H9 C4 0.930 . S
C10 O17 1.259 . S
C10 O18 1.258 . S
N11 Co2 2.057 1_545 S
N11 C12 1.316 1_544 S
N11 C13 1.375 . S
C12 N11 1.316 1_566 S
C12 N14 1.362 . S
C12 H23 0.931 . S
C13 N11 1.375 . S
C13 C15 1.350 1_554 S
C13 H22 0.930 . S
N14 C12 1.362 . S
N14 C15 1.340 1_565 S
C15 C13 1.350 1_556 S
C15 N14 1.340 1_545 S
C15 H29 0.931 . S
C16 O19 1.256 . S
C16 O20 1.255 1_565 S
O17 Co0 2.021 . S
O17 C10 1.259 . S
O18 Co2 2.117 1_545 S
O18 C10 1.258 . S
O19 Co2 2.020 . S
O19 C16 1.256 . S
O20 Co0 2.062 . S
O20 C16 1.255 1_545 S
O21 C1 1.259 . S
O21 Co2 2.021 . S
H22 C13 0.930 . S
H23 C12 0.931 . S
O24 Co0 2.117 1_565 S
O24 C1 1.258 . S
O25 Co0 2.020 . S
O25 C27 1.256 1_554 S
O26 Co2 2.062 1_546 S
O26 C27 1.255 . S
C27 O25 1.256 1_556 S
C27 O26 1.255 . S
H28 C7 0.931 . S
H29 C15 0.931 . S
Co30 N35 2.057 . S
Co30 O47 2.021 . S
Co30 O50 2.062 . S
Co30 O54 2.117 . S
Co30 O55 2.020 . S
C31 O51 1.259 . S
C31 O54 1.258 . S
Co32 N41 2.057 . S
Co32 O48 2.117 . S
Co32 O49 2.020 . S
Co32 O51 2.021 . S
Co32 O56 2.063 1_554 S
C33 N35 1.316 . S
C33 N36 1.347 . S
C33 H38 0.931 . S
C34 N35 1.375 . S
C34 C37 1.350 . S
C34 H39 0.930 . S
N35 Co30 2.057 . S
N35 C33 1.316 . S
N35 C34 1.375 . S
N36 C33 1.347 . S
N36 C37 1.373 . S
C37 C34 1.350 . S
C37 N36 1.373 . S
C37 H58 0.931 . S
H38 C33 0.931 . S
H39 C34 0.930 . S
C40 O47 1.259 . S
C40 O48 1.258 . S
N41 Co32 2.057 . S
N41 C42 1.316 1_554 S
N41 C43 1.375 . S
C42 N41 1.316 1_556 S
C42 N44 1.347 1_655 S
C42 H53 0.931 . S
C43 N41 1.375 . S
C43 C45 1.350 1_654 S
C43 H52 0.930 . S
N44 C42 1.347 1_455 S
N44 C45 1.373 . S
C45 C43 1.350 1_456 S
C45 N44 1.373 . S
C45 H59 0.931 . S
C46 O49 1.256 . S
C46 O50 1.255 . S
O47 Co30 2.021 . S
O47 C40 1.259 . S
O48 Co32 2.117 . S
O48 C40 1.258 . S
O49 Co32 2.020 . S
O49 C46 1.256 . S
O50 Co30 2.062 . S
O50 C46 1.255 . S
O51 C31 1.259 . S
O51 Co32 2.021 . S
H52 C43 0.930 . S
H53 C42 0.931 . S
O54 Co30 2.117 . S
O54 C31 1.258 . S
O55 Co30 2.020 . S
O55 C57 1.256 1_554 S
O56 Co32 2.063 1_556 S
O56 C57 1.255 . S
C57 O55 1.256 1_556 S
C57 O56 1.255 . S
H58 C37 0.931 . S
H59 C45 0.931 . S
Co60 N65 2.057 . S
Co60 O77 2.021 . S
Co60 O80 2.062 . S
Co60 O84 2.117 . S
Co60 O85 2.020 . S
C61 O81 1.259 . S
C61 O84 1.258 . S
Co62 N71 2.057 . S
Co62 O78 2.117 . S
Co62 O79 2.020 . S
Co62 O81 2.021 . S
Co62 O86 2.062 . S
C63 N65 1.316 . S
C63 N66 1.347 . S
C63 H68 0.931 . S
C64 N65 1.375 . S
C64 C67 1.350 . S
C64 H69 0.930 . S
N65 Co60 2.057 . S
N65 C63 1.316 . S
N65 C64 1.375 . S
N66 C63 1.347 . S
N66 C67 1.373 . S
C67 C64 1.350 . S
C67 N66 1.373 . S
C67 H88 0.931 . S
H68 C63 0.931 . S
H69 C64 0.930 . S
C70 O77 1.259 . S
C70 O78 1.258 . S
N71 Co62 2.057 . S
N71 C72 1.316 . S
N71 C73 1.375 . S
C72 N71 1.316 . S
C72 N74 1.347 . S
C72 H83 0.931 . S
C73 N71 1.375 . S
C73 C75 1.350 . S
C73 H82 0.930 . S
N74 C72 1.347 . S
N74 C75 1.373 . S
C75 C73 1.350 . S
C75 N74 1.373 . S
C75 H89 0.931 . S
C76 O79 1.256 . S
C76 O80 1.255 . S
O77 Co60 2.021 . S
O77 C70 1.259 . S
O78 Co62 2.117 . S
O78 C70 1.258 . S
O79 Co62 2.020 . S
O79 C76 1.256 . S
O80 Co60 2.062 . S
O80 C76 1.255 . S
O81 C61 1.259 . S
O81 Co62 2.021 . S
H82 C73 0.930 . S
H83 C72 0.931 . S
O84 Co60 2.117 . S
O84 C61 1.258 . S
O85 Co60 2.020 . S
O85 C87 1.256 . S
O86 Co62 2.062 . S
O86 C87 1.255 . S
C87 O85 1.256 . S
C87 O86 1.255 . S
H88 C67 0.931 . S
H89 C75 0.931 . S
Co90 N95 2.055 1_545 S
Co90 O107 2.021 . S
Co90 O110 2.062 . S
Co90 O114 2.117 1_545 S
Co90 O115 2.020 . S
C91 O111 1.259 . S
C91 O114 1.258 . S
Co92 N101 2.057 1_565 S
Co92 O108 2.117 1_565 S
Co92 O109 2.020 . S
Co92 O111 2.021 . S
Co92 O116 2.062 1_565 S
C93 N95 1.308 1_545 S
C93 N96 1.347 . S
C93 H98 0.931 . S
C94 N95 1.386 . S
C94 C97 1.350 . S
C94 H99 0.930 . S
N95 Co90 2.055 1_565 S
N95 C93 1.308 1_565 S
N95 C94 1.386 . S
N96 C93 1.347 . S
N96 C97 1.373 1_545 S
C97 C94 1.350 . S
C97 N96 1.373 1_565 S
C97 H118 0.931 . S
H98 C93 0.931 . S
H99 C94 0.930 . S
C100 O107 1.259 . S
C100 O108 1.258 . S
N101 Co92 2.057 1_545 S
N101 C102 1.316 1_545 S
N101 C103 1.375 . S
C102 N101 1.316 1_565 S
C102 N104 1.362 1_655 S
C102 H113 0.931 . S
C103 N101 1.375 . S
C103 C105 1.350 1_655 S
C103 H112 0.930 . S
N104 C102 1.362 1_455 S
N104 C105 1.341 1_565 S
C105 C103 1.350 1_455 S
C105 N104 1.341 1_545 S
C105 H119 0.931 . S
C106 O109 1.256 . S
C106 O110 1.255 1_565 S
O107 Co90 2.021 . S
O107 C100 1.259 . S
O108 Co92 2.117 1_545 S
O108 C100 1.258 . S
O109 Co92 2.020 . S
O109 C106 1.256 . S
O110 Co90 2.062 . S
O110 C106 1.255 1_545 S
O111 C91 1.259 . S
O111 Co92 2.021 . S
H112 C103 0.930 . S
H113 C102 0.931 . S
O114 Co90 2.117 1_565 S
O114 C91 1.258 . S
O115 Co90 2.020 . S
O115 C117 1.256 . S
O116 Co92 2.062 1_545 S
O116 C117 1.255 . S
C117 O115 1.256 . S
C117 O116 1.255 . S
H118 C97 0.931 . S
H119 C105 0.931 . S
Co120 N125 2.057 1_545 S
Co120 O137 2.021 . S
Co120 O140 2.062 1_546 S
Co120 O144 2.117 1_545 S
Co120 O145 2.020 . S
C121 O141 1.259 . S
C121 O144 1.258 . S
Co122 N131 2.055 1_565 S
Co122 O138 2.117 1_565 S
Co122 O139 2.020 . S
Co122 O141 2.021 . S
Co122 O146 2.062 . S
C123 N125 1.316 1_544 S
C123 N126 1.362 . S
C123 H128 0.931 . S
C124 N125 1.375 . S
C124 C127 1.350 1_556 S
C124 H129 0.930 . S
N125 Co120 2.057 1_565 S
N125 C123 1.316 1_566 S
N125 C124 1.375 . S
N126 C123 1.362 . S
N126 C127 1.340 1_545 S
C127 C124 1.350 1_554 S
C127 N126 1.340 1_565 S
C127 H148 0.931 . S
H128 C123 0.931 . S
H129 C124 0.930 . S
C130 O137 1.259 . S
C130 O138 1.258 . S
N131 Co122 2.055 1_545 S
N131 C132 1.308 1_545 S
N131 C133 1.386 . S
C132 N131 1.308 1_565 S
C132 N134 1.347 . S
C132 H143 0.931 . S
C133 N131 1.386 . S
C133 C135 1.350 . S
C133 H142 0.930 . S
N134 C132 1.347 . S
N134 C135 1.373 1_565 S
C135 C133 1.350 . S
C135 N134 1.373 1_545 S
C135 H149 0.931 . S
C136 O139 1.256 1_554 S
C136 O140 1.255 . S
O137 Co120 2.021 . S
O137 C130 1.259 . S
O138 Co122 2.117 1_545 S
O138 C130 1.258 . S
O139 Co122 2.020 . S
O139 C136 1.256 1_556 S
O140 Co120 2.062 1_564 S
O140 C136 1.255 . S
O141 C121 1.259 . S
O141 Co122 2.021 . S
H142 C133 0.930 . S
H143 C132 0.931 . S
O144 Co120 2.117 1_565 S
O144 C121 1.258 . S
O145 Co120 2.020 . S
O145 C147 1.256 . S
O146 Co122 2.062 . S
O146 C147 1.255 1_565 S
C147 O145 1.256 . S
C147 O146 1.255 1_545 S
H148 C127 0.931 . S
H149 C135 0.931 . S
Co150 N155 2.057 . S
Co150 O167 2.021 . S
Co150 O170 2.063 1_556 S
Co150 O174 2.117 . S
Co150 O175 2.020 . S
C151 O171 1.259 . S
C151 O174 1.258 . S
Co152 N161 2.057 . S
Co152 O168 2.117 . S
Co152 O169 2.020 . S
Co152 O171 2.021 . S
Co152 O176 2.062 . S
C153 N155 1.316 1_554 S
C153 N156 1.347 1_455 S
C153 H158 0.931 . S
C154 N155 1.375 . S
C154 C157 1.350 1_456 S
C154 H159 0.930 . S
N155 Co150 2.057 . S
N155 C153 1.316 1_556 S
N155 C154 1.375 . S
N156 C153 1.347 1_655 S
N156 C157 1.373 . S
C157 C154 1.350 1_654 S
C157 N156 1.373 . S
C157 H178 0.931 . S
H158 C153 0.931 . S
H159 C154 0.930 . S
C160 O167 1.259 . S
C160 O168 1.258 . S
N161 Co152 2.057 . S
N161 C162 1.316 . S
N161 C163 1.375 . S
C162 N161 1.316 . S
C162 N164 1.347 . S
C162 H173 0.931 . S
C163 N161 1.375 . S
C163 C165 1.350 . S
C163 H172 0.930 . S
N164 C162 1.347 . S
N164 C165 1.373 . S
C165 C163 1.350 . S
C165 N164 1.373 . S
C165 H179 0.931 . S
C166 O169 1.256 1_554 S
C166 O170 1.255 . S
O167 Co150 2.021 . S
O167 C160 1.259 . S
O168 Co152 2.117 . S
O168 C160 1.258 . S
O169 Co152 2.020 . S
O169 C166 1.256 1_556 S
O170 Co150 2.063 1_554 S
O170 C166 1.255 . S
O171 C151 1.259 . S
O171 Co152 2.021 . S
H172 C163 0.930 . S
H173 C162 0.931 . S
O174 Co150 2.117 . S
O174 C151 1.258 . S
O175 Co150 2.020 . S
O175 C177 1.256 . S
O176 Co152 2.062 . S
O176 C177 1.255 . S
C177 O175 1.256 . S
C177 O176 1.255 . S
H178 C157 0.931 . S
H179 C165 0.931 . S
Co180 N185 2.057 . S
Co180 O197 2.021 . S
Co180 O200 2.062 . S
Co180 O204 2.117 . S
Co180 O205 2.020 . S
C181 O201 1.259 . S
C181 O204 1.258 . S
Co182 N191 2.057 . S
Co182 O198 2.117 . S
Co182 O199 2.020 . S
Co182 O201 2.021 . S
Co182 O206 2.062 . S
C183 N185 1.316 . S
C183 N186 1.347 . S
C183 H188 0.931 . S
C184 N185 1.375 . S
C184 C187 1.350 . S
C184 H189 0.930 . S
N185 Co180 2.057 . S
N185 C183 1.316 . S
N185 C184 1.375 . S
N186 C183 1.347 . S
N186 C187 1.373 . S
C187 C184 1.350 . S
C187 N186 1.373 . S
C187 H208 0.931 . S
H188 C183 0.931 . S
H189 C184 0.930 . S
C190 O197 1.259 . S
C190 O198 1.258 . S
N191 Co182 2.057 . S
N191 C192 1.316 . S
N191 C193 1.375 . S
C192 N191 1.316 . S
C192 N194 1.347 . S
C192 H203 0.931 . S
C193 N191 1.375 . S
C193 C195 1.350 . S
C193 H202 0.930 . S
N194 C192 1.347 . S
N194 C195 1.373 . S
C195 C193 1.350 . S
C195 N194 1.373 . S
C195 H209 0.931 . S
C196 O199 1.256 . S
C196 O200 1.255 . S
O197 Co180 2.021 . S
O197 C190 1.259 . S
O198 Co182 2.117 . S
O198 C190 1.258 . S
O199 Co182 2.020 . S
O199 C196 1.256 . S
O200 Co180 2.062 . S
O200 C196 1.255 . S
O201 C181 1.259 . S
O201 Co182 2.021 . S
H202 C193 0.930 . S
H203 C192 0.931 . S
O204 Co180 2.117 . S
O204 C181 1.258 . S
O205 Co180 2.020 . S
O205 C207 1.256 . S
O206 Co182 2.062 . S
O206 C207 1.255 . S
C207 O205 1.256 . S
C207 O206 1.255 . S
H208 C187 0.931 . S
H209 C195 0.931 . S
Co210 N215 2.057 1_545 S
Co210 O227 2.021 . S
Co210 O230 2.062 1_545 S
Co210 O234 2.117 1_545 S
Co210 O235 2.020 . S
C211 O231 1.259 . S
C211 O234 1.258 . S
Co212 N221 2.055 1_565 S
Co212 O228 2.117 1_565 S
Co212 O229 2.020 . S
Co212 O231 2.021 . S
Co212 O236 2.062 . S
C213 N215 1.316 1_545 S
C213 N216 1.362 1_455 S
C213 H218 0.931 . S
C214 N215 1.375 . S
C214 C217 1.350 1_455 S
C214 H219 0.930 . S
N215 Co210 2.057 1_565 S
N215 C213 1.316 1_565 S
N215 C214 1.375 . S
N216 C213 1.362 1_655 S
N216 C217 1.341 1_545 S
C217 C214 1.350 1_655 S
C217 N216 1.341 1_565 S
C217 H238 0.931 . S
H218 C213 0.931 . S
H219 C214 0.930 . S
C220 O227 1.259 . S
C220 O228 1.258 . S
N221 Co212 2.055 1_545 S
N221 C222 1.308 1_545 S
N221 C223 1.386 . S
C222 N221 1.308 1_565 S
C222 N224 1.347 . S
C222 H233 0.931 . S
C223 N221 1.386 . S
C223 C225 1.350 . S
C223 H232 0.930 . S
N224 C222 1.347 . S
N224 C225 1.373 1_565 S
C225 C223 1.350 . S
C225 N224 1.373 1_545 S
C225 H239 0.931 . S
C226 O229 1.256 . S
C226 O230 1.255 . S
O227 Co210 2.021 . S
O227 C220 1.259 . S
O228 Co212 2.117 1_545 S
O228 C220 1.258 . S
O229 Co212 2.020 . S
O229 C226 1.256 . S
O230 Co210 2.062 1_565 S
O230 C226 1.255 . S
O231 C211 1.259 . S
O231 Co212 2.021 . S
H232 C223 0.930 . S
H233 C222 0.931 . S
O234 Co210 2.117 1_565 S
O234 C211 1.258 . S
O235 Co210 2.020 . S
O235 C237 1.256 . S
O236 Co212 2.062 . S
O236 C237 1.255 1_565 S
C237 O235 1.256 . S
C237 O236 1.255 1_545 S
H238 C217 0.931 . S
H239 C225 0.931 . S
Co240 N245 2.057 . S
Co240 O257 2.021 . S
Co240 O260 2.062 . S
Co240 O264 2.117 . S
Co240 O265 2.020 . S
C241 O261 1.259 . S
C241 O264 1.258 . S
Co242 N251 2.057 . S
Co242 O258 2.117 . S
Co242 O259 2.020 . S
Co242 O261 2.021 . S
Co242 O266 2.062 . S
C243 N245 1.316 . S
C243 N246 1.347 . S
C243 H248 0.931 . S
C244 N245 1.375 . S
C244 C247 1.350 . S
C244 H249 0.930 . S
N245 Co240 2.057 . S
N245 C243 1.316 . S
N245 C244 1.375 . S
N246 C243 1.347 . S
N246 C247 1.373 . S
C247 C244 1.350 . S
C247 N246 1.373 . S
C247 H268 0.931 . S
H248 C243 0.931 . S
H249 C244 0.930 . S
C250 O257 1.259 . S
C250 O258 1.258 . S
N251 Co242 2.057 . S
N251 C252 1.316 . S
N251 C253 1.375 . S
C252 N251 1.316 . S
C252 N254 1.347 . S
C252 H263 0.931 . S
C253 N251 1.375 . S
C253 C255 1.350 . S
C253 H262 0.930 . S
N254 C252 1.347 . S
N254 C255 1.373 . S
C255 C253 1.350 . S
C255 N254 1.373 . S
C255 H269 0.931 . S
C256 O259 1.256 . S
C256 O260 1.255 . S
O257 Co240 2.021 . S
O257 C250 1.259 . S
O258 Co242 2.117 . S
O258 C250 1.258 . S
O259 Co242 2.020 . S
O259 C256 1.256 . S
O260 Co240 2.062 . S
O260 C256 1.255 . S
O261 C241 1.259 . S
O261 Co242 2.021 . S
H262 C253 0.930 . S
H263 C252 0.931 . S
O264 Co240 2.117 . S
O264 C241 1.258 . S
O265 Co240 2.020 . S
O265 C267 1.256 . S
O266 Co242 2.062 . S
O266 C267 1.255 . S
C267 O265 1.256 . S
C267 O266 1.255 . S
H268 C247 0.931 . S
H269 C255 0.931 . S
Co270 N275 2.057 . S
Co270 O287 2.021 . S
Co270 O290 2.062 . S
Co270 O294 2.117 . S
Co270 O295 2.020 . S
C271 O291 1.259 . S
C271 O294 1.258 . S
Co272 N281 2.057 . S
Co272 O288 2.117 . S
Co272 O289 2.020 . S
Co272 O291 2.021 . S
Co272 O296 2.062 . S
C273 N275 1.316 . S
C273 N276 1.347 . S
C273 H278 0.931 . S
C274 N275 1.375 . S
C274 C277 1.350 . S
C274 H279 0.930 . S
N275 Co270 2.057 . S
N275 C273 1.316 . S
N275 C274 1.375 . S
N276 C273 1.347 . S
N276 C277 1.373 . S
C277 C274 1.350 . S
C277 N276 1.373 . S
C277 H298 0.931 . S
H278 C273 0.931 . S
H279 C274 0.930 . S
C280 O287 1.259 . S
C280 O288 1.258 . S
N281 Co272 2.057 . S
N281 C282 1.316 . S
N281 C283 1.375 . S
C282 N281 1.316 . S
C282 N284 1.347 1_655 S
C282 H293 0.931 . S
C283 N281 1.375 . S
C283 C285 1.350 1_655 S
C283 H292 0.930 . S
N284 C282 1.347 1_455 S
N284 C285 1.373 . S
C285 C283 1.350 1_455 S
C285 N284 1.373 . S
C285 H299 0.931 . S
C286 O289 1.256 . S
C286 O290 1.255 . S
O287 Co270 2.021 . S
O287 C280 1.259 . S
O288 Co272 2.117 . S
O288 C280 1.258 . S
O289 Co272 2.020 . S
O289 C286 1.256 . S
O290 Co270 2.062 . S
O290 C286 1.255 . S
O291 C271 1.259 . S
O291 Co272 2.021 . S
H292 C283 0.930 . S
H293 C282 0.931 . S
O294 Co270 2.117 . S
O294 C271 1.258 . S
O295 Co270 2.020 . S
O295 C297 1.256 . S
O296 Co272 2.062 . S
O296 C297 1.255 . S
C297 O295 1.256 . S
C297 O296 1.255 . S
H298 C277 0.931 . S
H299 C285 0.931 . S
Co300 N305 2.057 . S
Co300 O317 2.021 . S
Co300 O320 2.062 . S
Co300 O324 2.117 . S
Co300 O325 2.020 . S
C301 O321 1.259 . S
C301 O324 1.258 . S
Co302 N311 2.057 . S
Co302 O318 2.117 . S
Co302 O319 2.020 . S
Co302 O321 2.021 . S
Co302 O326 2.062 . S
C303 N305 1.316 . S
C303 N306 1.347 . S
C303 H308 0.931 . S
C304 N305 1.375 . S
C304 C307 1.350 . S
C304 H309 0.930 . S
N305 Co300 2.057 . S
N305 C303 1.316 . S
N305 C304 1.375 . S
N306 C303 1.347 . S
N306 C307 1.373 . S
C307 C304 1.350 . S
C307 N306 1.373 . S
C307 H328 0.931 . S
H308 C303 0.931 . S
H309 C304 0.930 . S
C310 O317 1.259 . S
C310 O318 1.258 . S
N311 Co302 2.057 . S
N311 C312 1.316 . S
N311 C313 1.375 . S
C312 N311 1.316 . S
C312 N314 1.347 . S
C312 H323 0.931 . S
C313 N311 1.375 . S
C313 C315 1.350 . S
C313 H322 0.930 . S
N314 C312 1.347 . S
N314 C315 1.373 . S
C315 C313 1.350 . S
C315 N314 1.373 . S
C315 H329 0.931 . S
C316 O319 1.256 . S
C316 O320 1.255 . S
O317 Co300 2.021 . S
O317 C310 1.259 . S
O318 Co302 2.117 . S
O318 C310 1.258 . S
O319 Co302 2.020 . S
O319 C316 1.256 . S
O320 Co300 2.062 . S
O320 C316 1.255 . S
O321 C301 1.259 . S
O321 Co302 2.021 . S
H322 C313 0.930 . S
H323 C312 0.931 . S
O324 Co300 2.117 . S
O324 C301 1.258 . S
O325 Co300 2.020 . S
O325 C327 1.256 . S
O326 Co302 2.062 . S
O326 C327 1.255 . S
C327 O325 1.256 . S
C327 O326 1.255 . S
H328 C307 0.931 . S
H329 C315 0.931 . S
Co330 N335 2.057 . S
Co330 O347 2.021 . S
Co330 O350 2.062 . S
Co330 O354 2.117 . S
Co330 O355 2.020 . S
C331 O351 1.259 . S
C331 O354 1.258 . S
Co332 N341 2.057 . S
Co332 O348 2.117 . S
Co332 O349 2.020 . S
Co332 O351 2.021 . S
Co332 O356 2.062 . S
C333 N335 1.316 . S
C333 N336 1.347 . S
C333 H338 0.931 . S
C334 N335 1.375 . S
C334 C337 1.350 . S
C334 H339 0.930 . S
N335 Co330 2.057 . S
N335 C333 1.316 . S
N335 C334 1.375 . S
N336 C333 1.347 . S
N336 C337 1.373 . S
C337 C334 1.350 . S
C337 N336 1.373 . S
C337 H358 0.931 . S
H338 C333 0.931 . S
H339 C334 0.930 . S
C340 O347 1.259 . S
C340 O348 1.258 . S
N341 Co332 2.057 . S
N341 C342 1.316 . S
N341 C343 1.375 . S
C342 N341 1.316 . S
C342 N344 1.347 1_655 S
C342 H353 0.931 . S
C343 N341 1.375 . S
C343 C345 1.350 1_655 S
C343 H352 0.930 . S
N344 C342 1.347 1_455 S
N344 C345 1.373 . S
C345 C343 1.350 1_455 S
C345 N344 1.373 . S
C345 H359 0.931 . S
C346 O349 1.256 . S
C346 O350 1.255 . S
O347 Co330 2.021 . S
O347 C340 1.259 . S
O348 Co332 2.117 . S
O348 C340 1.258 . S
O349 Co332 2.020 . S
O349 C346 1.256 . S
O350 Co330 2.062 . S
O350 C346 1.255 . S
O351 C331 1.259 . S
O351 Co332 2.021 . S
H352 C343 0.930 . S
H353 C342 0.931 . S
O354 Co330 2.117 . S
O354 C331 1.258 . S
O355 Co330 2.020 . S
O355 C357 1.256 . S
O356 Co332 2.062 . S
O356 C357 1.255 . S
C357 O355 1.256 . S
C357 O356 1.255 . S
H358 C337 0.931 . S
H359 C345 0.931 . S
Co360 N365 2.057 . S
Co360 O377 2.021 . S
Co360 O380 2.062 . S
Co360 O384 2.117 . S
Co360 O385 2.020 . S
C361 O381 1.259 . S
C361 O384 1.258 . S
Co362 N371 2.057 . S
Co362 O378 2.117 . S
Co362 O379 2.020 . S
Co362 O381 2.021 . S
Co362 O386 2.062 . S
C363 N365 1.316 . S
C363 N366 1.347 . S
C363 H368 0.931 . S
C364 N365 1.375 . S
C364 C367 1.350 . S
C364 H369 0.930 . S
N365 Co360 2.057 . S
N365 C363 1.316 . S
N365 C364 1.375 . S
N366 C363 1.347 . S
N366 C367 1.373 . S
C367 C364 1.350 . S
C367 N366 1.373 . S
C367 H388 0.931 . S
H368 C363 0.931 . S
H369 C364 0.930 . S
C370 O377 1.259 . S
C370 O378 1.258 . S
N371 Co362 2.057 . S
N371 C372 1.316 . S
N371 C373 1.375 . S
C372 N371 1.316 . S
C372 N374 1.347 . S
C372 H383 0.931 . S
C373 N371 1.375 . S
C373 C375 1.350 . S
C373 H382 0.930 . S
N374 C372 1.347 . S
N374 C375 1.373 . S
C375 C373 1.350 . S
C375 N374 1.373 . S
C375 H389 0.931 . S
C376 O379 1.256 . S
C376 O380 1.255 . S
O377 Co360 2.021 . S
O377 C370 1.259 . S
O378 Co362 2.117 . S
O378 C370 1.258 . S
O379 Co362 2.020 . S
O379 C376 1.256 . S
O380 Co360 2.062 . S
O380 C376 1.255 . S
O381 C361 1.259 . S
O381 Co362 2.021 . S
H382 C373 0.930 . S
H383 C372 0.931 . S
O384 Co360 2.117 . S
O384 C361 1.258 . S
O385 Co360 2.020 . S
O385 C387 1.256 . S
O386 Co362 2.062 . S
O386 C387 1.255 . S
C387 O385 1.256 . S
C387 O386 1.255 . S
H388 C367 0.931 . S
H389 C375 0.931 . S
Co390 N395 2.057 . S
Co390 O407 2.021 . S
Co390 O410 2.062 . S
Co390 O414 2.117 . S
Co390 O415 2.020 . S
C391 O411 1.259 . S
C391 O414 1.258 . S
Co392 N401 2.057 . S
Co392 O408 2.117 . S
Co392 O409 2.020 . S
Co392 O411 2.021 . S
Co392 O416 2.062 . S
C393 N395 1.316 . S
C393 N396 1.347 1_455 S
C393 H398 0.931 . S
C394 N395 1.375 . S
C394 C397 1.350 1_455 S
C394 H399 0.930 . S
N395 Co390 2.057 . S
N395 C393 1.316 . S
N395 C394 1.375 . S
N396 C393 1.347 1_655 S
N396 C397 1.373 . S
C397 C394 1.350 1_655 S
C397 N396 1.373 . S
C397 H418 0.931 . S
H398 C393 0.931 . S
H399 C394 0.930 . S
C400 O407 1.259 . S
C400 O408 1.258 . S
N401 Co392 2.057 . S
N401 C402 1.316 . S
N401 C403 1.375 . S
C402 N401 1.316 . S
C402 N404 1.347 . S
C402 H413 0.931 . S
C403 N401 1.375 . S
C403 C405 1.350 . S
C403 H412 0.930 . S
N404 C402 1.347 . S
N404 C405 1.373 . S
C405 C403 1.350 . S
C405 N404 1.373 . S
C405 H419 0.931 . S
C406 O409 1.256 . S
C406 O410 1.255 . S
O407 Co390 2.021 . S
O407 C400 1.259 . S
O408 Co392 2.117 . S
O408 C400 1.258 . S
O409 Co392 2.020 . S
O409 C406 1.256 . S
O410 Co390 2.062 . S
O410 C406 1.255 . S
O411 C391 1.259 . S
O411 Co392 2.021 . S
H412 C403 0.930 . S
H413 C402 0.931 . S
O414 Co390 2.117 . S
O414 C391 1.258 . S
O415 Co390 2.020 . S
O415 C417 1.256 . S
O416 Co392 2.062 . S
O416 C417 1.255 . S
C417 O415 1.256 . S
C417 O416 1.255 . S
H418 C397 0.931 . S
H419 C405 0.931 . S
Co420 N425 2.057 . S
Co420 O437 2.021 . S
Co420 O440 2.062 . S
Co420 O444 2.117 . S
Co420 O445 2.020 . S
C421 O441 1.259 . S
C421 O444 1.258 . S
Co422 N431 2.057 . S
Co422 O438 2.117 . S
Co422 O439 2.020 . S
Co422 O441 2.021 . S
Co422 O446 2.062 . S
C423 N425 1.316 . S
C423 N426 1.347 . S
C423 H428 0.931 . S
C424 N425 1.375 . S
C424 C427 1.350 . S
C424 H429 0.930 . S
N425 Co420 2.057 . S
N425 C423 1.316 . S
N425 C424 1.375 . S
N426 C423 1.347 . S
N426 C427 1.373 . S
C427 C424 1.350 . S
C427 N426 1.373 . S
C427 H448 0.931 . S
H428 C423 0.931 . S
H429 C424 0.930 . S
C430 O437 1.259 . S
C430 O438 1.258 . S
N431 Co422 2.057 . S
N431 C432 1.316 . S
N431 C433 1.375 . S
C432 N431 1.316 . S
C432 N434 1.347 . S
C432 H443 0.931 . S
C433 N431 1.375 . S
C433 C435 1.350 . S
C433 H442 0.930 . S
N434 C432 1.347 . S
N434 C435 1.373 . S
C435 C433 1.350 . S
C435 N434 1.373 . S
C435 H449 0.931 . S
C436 O439 1.256 . S
C436 O440 1.255 . S
O437 Co420 2.021 . S
O437 C430 1.259 . S
O438 Co422 2.117 . S
O438 C430 1.258 . S
O439 Co422 2.020 . S
O439 C436 1.256 . S
O440 Co420 2.062 . S
O440 C436 1.255 . S
O441 C421 1.259 . S
O441 Co422 2.021 . S
H442 C433 0.930 . S
H443 C432 0.931 . S
O444 Co420 2.117 . S
O444 C421 1.258 . S
O445 Co420 2.020 . S
O445 C447 1.256 . S
O446 Co422 2.062 . S
O446 C447 1.255 . S
C447 O445 1.256 . S
C447 O446 1.255 . S
H448 C427 0.931 . S
H449 C435 0.931 . S
Co450 N455 2.057 . S
Co450 O467 2.021 . S
Co450 O470 2.062 . S
Co450 O474 2.117 . S
Co450 O475 2.020 . S
C451 O471 1.259 . S
C451 O474 1.258 . S
Co452 N461 2.057 . S
Co452 O468 2.117 . S
Co452 O469 2.020 . S
Co452 O471 2.021 . S
Co452 O476 2.062 . S
C453 N455 1.316 . S
C453 N456 1.347 1_455 S
C453 H458 0.931 . S
C454 N455 1.375 . S
C454 C457 1.350 1_455 S
C454 H459 0.930 . S
N455 Co450 2.057 . S
N455 C453 1.316 . S
N455 C454 1.375 . S
N456 C453 1.347 1_655 S
N456 C457 1.373 . S
C457 C454 1.350 1_655 S
C457 N456 1.373 . S
C457 H478 0.931 . S
H458 C453 0.931 . S
H459 C454 0.930 . S
C460 O467 1.259 . S
C460 O468 1.258 . S
N461 Co452 2.057 . S
N461 C462 1.316 . S
N461 C463 1.375 . S
C462 N461 1.316 . S
C462 N464 1.347 . S
C462 H473 0.931 . S
C463 N461 1.375 . S
C463 C465 1.350 . S
C463 H472 0.930 . S
N464 C462 1.347 . S
N464 C465 1.373 . S
C465 C463 1.350 . S
C465 N464 1.373 . S
C465 H479 0.931 . S
C466 O469 1.256 . S
C466 O470 1.255 . S
O467 Co450 2.021 . S
O467 C460 1.259 . S
O468 Co452 2.117 . S
O468 C460 1.258 . S
O469 Co452 2.020 . S
O469 C466 1.256 . S
O470 Co450 2.062 . S
O470 C466 1.255 . S
O471 C451 1.259 . S
O471 Co452 2.021 . S
H472 C463 0.930 . S
H473 C462 0.931 . S
O474 Co450 2.117 . S
O474 C451 1.258 . S
O475 Co450 2.020 . S
O475 C477 1.256 . S
O476 Co452 2.062 . S
O476 C477 1.255 . S
C477 O475 1.256 . S
C477 O476 1.255 . S
H478 C457 0.931 . S
H479 C465 0.931 . S
Co480 N485 2.055 1_545 S
Co480 O497 2.021 . S
Co480 O500 2.062 . S
Co480 O504 2.117 1_545 S
Co480 O505 2.020 . S
C481 O501 1.259 . S
C481 O504 1.258 . S
Co482 N491 2.057 1_565 S
Co482 O498 2.117 1_565 S
Co482 O499 2.020 . S
Co482 O501 2.021 . S
Co482 O506 2.062 1_565 S
C483 N485 1.308 1_545 S
C483 N486 1.347 . S
C483 H488 0.931 . S
C484 N485 1.385 . S
C484 C487 1.350 . S
C484 H489 0.930 . S
N485 Co480 2.055 1_565 S
N485 C483 1.308 1_565 S
N485 C484 1.385 . S
N486 C483 1.347 . S
N486 C487 1.373 1_545 S
C487 C484 1.350 . S
C487 N486 1.373 1_565 S
C487 H508 0.931 . S
H488 C483 0.931 . S
H489 C484 0.930 . S
C490 O497 1.259 . S
C490 O498 1.258 . S
N491 Co482 2.057 1_545 S
N491 C492 1.316 1_545 S
N491 C493 1.375 . S
C492 N491 1.316 1_565 S
C492 N494 1.362 . S
C492 H503 0.931 . S
C493 N491 1.375 . S
C493 C495 1.350 . S
C493 H502 0.930 . S
N494 C492 1.362 . S
N494 C495 1.341 1_565 S
C495 C493 1.350 . S
C495 N494 1.341 1_545 S
C495 H509 0.931 . S
C496 O499 1.256 . S
C496 O500 1.255 1_565 S
O497 Co480 2.021 . S
O497 C490 1.259 . S
O498 Co482 2.117 1_545 S
O498 C490 1.258 . S
O499 Co482 2.020 . S
O499 C496 1.256 . S
O500 Co480 2.062 . S
O500 C496 1.255 1_545 S
O501 C481 1.259 . S
O501 Co482 2.021 . S
H502 C493 0.930 . S
H503 C492 0.931 . S
O504 Co480 2.117 1_565 S
O504 C481 1.258 . S
O505 Co480 2.020 . S
O505 C507 1.256 . S
O506 Co482 2.062 1_545 S
O506 C507 1.255 . S
C507 O505 1.256 . S
C507 O506 1.255 . S
H508 C487 0.931 . S
H509 C495 0.931 . S
Co510 N515 2.057 . S
Co510 O527 2.021 . S
Co510 O530 2.062 . S
Co510 O534 2.117 . S
Co510 O535 2.020 . S
C511 O531 1.259 . S
C511 O534 1.258 . S
Co512 N521 2.057 . S
Co512 O528 2.117 . S
Co512 O529 2.020 . S
Co512 O531 2.021 . S
Co512 O536 2.062 . S
C513 N515 1.316 . S
C513 N516 1.347 . S
C513 H518 0.931 . S
C514 N515 1.375 . S
C514 C517 1.350 . S
C514 H519 0.930 . S
N515 Co510 2.057 . S
N515 C513 1.316 . S
N515 C514 1.375 . S
N516 C513 1.347 . S
N516 C517 1.373 . S
C517 C514 1.350 . S
C517 N516 1.373 . S
C517 H538 0.931 . S
H518 C513 0.931 . S
H519 C514 0.930 . S
C520 O527 1.259 . S
C520 O528 1.258 . S
N521 Co512 2.057 . S
N521 C522 1.316 . S
N521 C523 1.375 . S
C522 N521 1.316 . S
C522 N524 1.347 . S
C522 H533 0.931 . S
C523 N521 1.375 . S
C523 C525 1.350 . S
C523 H532 0.930 . S
N524 C522 1.347 . S
N524 C525 1.373 . S
C525 C523 1.350 . S
C525 N524 1.373 . S
C525 H539 0.931 . S
C526 O529 1.256 . S
C526 O530 1.255 . S
O527 Co510 2.021 . S
O527 C520 1.259 . S
O528 Co512 2.117 . S
O528 C520 1.258 . S
O529 Co512 2.020 . S
O529 C526 1.256 . S
O530 Co510 2.062 . S
O530 C526 1.255 . S
O531 C511 1.259 . S
O531 Co512 2.021 . S
H532 C523 0.930 . S
H533 C522 0.931 . S
O534 Co510 2.117 . S
O534 C511 1.258 . S
O535 Co510 2.020 . S
O535 C537 1.256 . S
O536 Co512 2.062 . S
O536 C537 1.255 . S
C537 O535 1.256 . S
C537 O536 1.255 . S
H538 C517 0.931 . S
H539 C525 0.931 . S
Co540 N545 2.057 . S
Co540 O557 2.021 . S
Co540 O560 2.062 . S
Co540 O564 2.117 . S
Co540 O565 2.020 . S
C541 O561 1.259 . S
C541 O564 1.258 . S
Co542 N551 2.057 . S
Co542 O558 2.117 . S
Co542 O559 2.020 . S
Co542 O561 2.021 . S
Co542 O566 2.062 . S
C543 N545 1.316 . S
C543 N546 1.347 . S
C543 H548 0.931 . S
C544 N545 1.375 . S
C544 C547 1.350 . S
C544 H549 0.930 . S
N545 Co540 2.057 . S
N545 C543 1.316 . S
N545 C544 1.375 . S
N546 C543 1.347 . S
N546 C547 1.373 . S
C547 C544 1.350 . S
C547 N546 1.373 . S
C547 H568 0.931 . S
H548 C543 0.931 . S
H549 C544 0.930 . S
C550 O557 1.259 . S
C550 O558 1.258 . S
N551 Co542 2.057 . S
N551 C552 1.316 . S
N551 C553 1.375 . S
C552 N551 1.316 . S
C552 N554 1.347 . S
C552 H563 0.931 . S
C553 N551 1.375 . S
C553 C555 1.350 . S
C553 H562 0.930 . S
N554 C552 1.347 . S
N554 C555 1.373 . S
C555 C553 1.350 . S
C555 N554 1.373 . S
C555 H569 0.931 . S
C556 O559 1.256 . S
C556 O560 1.255 . S
O557 Co540 2.021 . S
O557 C550 1.259 . S
O558 Co542 2.117 . S
O558 C550 1.258 . S
O559 Co542 2.020 . S
O559 C556 1.256 . S
O560 Co540 2.062 . S
O560 C556 1.255 . S
O561 C541 1.259 . S
O561 Co542 2.021 . S
H562 C553 0.930 . S
H563 C552 0.931 . S
O564 Co540 2.117 . S
O564 C541 1.258 . S
O565 Co540 2.020 . S
O565 C567 1.256 . S
O566 Co542 2.062 . S
O566 C567 1.255 . S
C567 O565 1.256 . S
C567 O566 1.255 . S
H568 C547 0.931 . S
H569 C555 0.931 . S
Co570 N575 2.055 1_545 S
Co570 O587 2.021 . S
Co570 O590 2.062 . S
Co570 O594 2.117 1_545 S
Co570 O595 2.020 . S
C571 O591 1.259 . S
C571 O594 1.258 . S
Co572 N581 2.057 1_565 S
Co572 O588 2.117 1_565 S
Co572 O589 2.020 . S
Co572 O591 2.021 . S
Co572 O596 2.062 1_565 S
C573 N575 1.308 1_545 S
C573 N576 1.347 . S
C573 H578 0.931 . S
C574 N575 1.386 . S
C574 C577 1.350 . S
C574 H579 0.930 . S
N575 Co570 2.055 1_565 S
N575 C573 1.308 1_565 S
N575 C574 1.386 . S
N576 C573 1.347 . S
N576 C577 1.373 1_545 S
C577 C574 1.350 . S
C577 N576 1.373 1_565 S
C577 H598 0.931 . S
H578 C573 0.931 . S
H579 C574 0.930 . S
C580 O587 1.259 . S
C580 O588 1.258 . S
N581 Co572 2.057 1_545 S
N581 C582 1.316 1_545 S
N581 C583 1.375 . S
C582 N581 1.316 1_565 S
C582 N584 1.362 . S
C582 H593 0.931 . S
C583 N581 1.375 . S
C583 C585 1.350 . S
C583 H592 0.930 . S
N584 C582 1.362 . S
N584 C585 1.341 1_565 S
C585 C583 1.350 . S
C585 N584 1.341 1_545 S
C585 H599 0.931 . S
C586 O589 1.256 . S
C586 O590 1.255 1_565 S
O587 Co570 2.021 . S
O587 C580 1.259 . S
O588 Co572 2.117 1_545 S
O588 C580 1.258 . S
O589 Co572 2.020 . S
O589 C586 1.256 . S
O590 Co570 2.062 . S
O590 C586 1.255 1_545 S
O591 C571 1.259 . S
O591 Co572 2.021 . S
H592 C583 0.930 . S
H593 C582 0.931 . S
O594 Co570 2.117 1_565 S
O594 C571 1.258 . S
O595 Co570 2.020 . S
O595 C597 1.256 . S
O596 Co572 2.062 1_545 S
O596 C597 1.255 . S
C597 O595 1.256 . S
C597 O596 1.255 . S
H598 C577 0.931 . S
H599 C585 0.931 . S
Co600 N605 2.057 1_545 S
Co600 O617 2.021 . S
Co600 O620 2.062 1_545 S
Co600 O624 2.117 1_545 S
Co600 O625 2.020 . S
C601 O621 1.259 . S
C601 O624 1.258 . S
Co602 N611 2.055 1_565 S
Co602 O618 2.117 1_565 S
Co602 O619 2.020 . S
Co602 O621 2.021 . S
Co602 O626 2.062 . S
C603 N605 1.316 1_545 S
C603 N606 1.362 . S
C603 H608 0.931 . S
C604 N605 1.375 . S
C604 C607 1.350 . S
C604 H609 0.930 . S
N605 Co600 2.057 1_565 S
N605 C603 1.316 1_565 S
N605 C604 1.375 . S
N606 C603 1.362 . S
N606 C607 1.341 1_545 S
C607 C604 1.350 . S
C607 N606 1.341 1_565 S
C607 H628 0.931 . S
H608 C603 0.931 . S
H609 C604 0.930 . S
C610 O617 1.259 . S
C610 O618 1.258 . S
N611 Co602 2.055 1_545 S
N611 C612 1.308 1_545 S
N611 C613 1.385 . S
C612 N611 1.308 1_565 S
C612 N614 1.347 . S
C612 H623 0.931 . S
C613 N611 1.385 . S
C613 C615 1.350 . S
C613 H622 0.930 . S
N614 C612 1.347 . S
N614 C615 1.373 1_565 S
C615 C613 1.350 . S
C615 N614 1.373 1_545 S
C615 H629 0.931 . S
C616 O619 1.256 . S
C616 O620 1.255 . S
O617 Co600 2.021 . S
O617 C610 1.259 . S
O618 Co602 2.117 1_545 S
O618 C610 1.258 . S
O619 Co602 2.020 . S
O619 C616 1.256 . S
O620 Co600 2.062 1_565 S
O620 C616 1.255 . S
O621 C601 1.259 . S
O621 Co602 2.021 . S
H622 C613 0.930 . S
H623 C612 0.931 . S
O624 Co600 2.117 1_565 S
O624 C601 1.258 . S
O625 Co600 2.020 . S
O625 C627 1.256 . S
O626 Co602 2.062 . S
O626 C627 1.255 1_565 S
C627 O625 1.256 . S
C627 O626 1.255 1_545 S
H628 C607 0.931 . S
H629 C615 0.931 . S
Co630 N635 2.057 . S
Co630 O647 2.021 . S
Co630 O650 2.062 . S
Co630 O654 2.117 . S
Co630 O655 2.020 . S
C631 O651 1.259 . S
C631 O654 1.258 . S
Co632 N641 2.057 . S
Co632 O648 2.117 . S
Co632 O649 2.020 . S
Co632 O651 2.021 . S
Co632 O656 2.062 . S
C633 N635 1.316 . S
C633 N636 1.347 . S
C633 H638 0.931 . S
C634 N635 1.375 . S
C634 C637 1.350 . S
C634 H639 0.930 . S
N635 Co630 2.057 . S
N635 C633 1.316 . S
N635 C634 1.375 . S
N636 C633 1.347 . S
N636 C637 1.373 . S
C637 C634 1.350 . S
C637 N636 1.373 . S
C637 H658 0.931 . S
H638 C633 0.931 . S
H639 C634 0.930 . S
C640 O647 1.259 . S
C640 O648 1.258 . S
N641 Co632 2.057 . S
N641 C642 1.316 . S
N641 C643 1.375 . S
C642 N641 1.316 . S
C642 N644 1.347 . S
C642 H653 0.931 . S
C643 N641 1.375 . S
C643 C645 1.350 . S
C643 H652 0.930 . S
N644 C642 1.347 . S
N644 C645 1.373 . S
C645 C643 1.350 . S
C645 N644 1.373 . S
C645 H659 0.931 . S
C646 O649 1.256 . S
C646 O650 1.255 . S
O647 Co630 2.021 . S
O647 C640 1.259 . S
O648 Co632 2.117 . S
O648 C640 1.258 . S
O649 Co632 2.020 . S
O649 C646 1.256 . S
O650 Co630 2.062 . S
O650 C646 1.255 . S
O651 C631 1.259 . S
O651 Co632 2.021 . S
H652 C643 0.930 . S
H653 C642 0.931 . S
O654 Co630 2.117 . S
O654 C631 1.258 . S
O655 Co630 2.020 . S
O655 C657 1.256 . S
O656 Co632 2.062 . S
O656 C657 1.255 . S
C657 O655 1.256 . S
C657 O656 1.255 . S
H658 C637 0.931 . S
H659 C645 0.931 . S
Co660 N665 2.057 . S
Co660 O677 2.021 . S
Co660 O680 2.062 . S
Co660 O684 2.117 . S
Co660 O685 2.020 . S
C661 O681 1.259 . S
C661 O684 1.258 . S
Co662 N671 2.057 . S
Co662 O678 2.117 . S
Co662 O679 2.020 . S
Co662 O681 2.021 . S
Co662 O686 2.062 . S
C663 N665 1.316 . S
C663 N666 1.347 . S
C663 H668 0.931 . S
C664 N665 1.375 . S
C664 C667 1.350 . S
C664 H669 0.930 . S
N665 Co660 2.057 . S
N665 C663 1.316 . S
N665 C664 1.375 . S
N666 C663 1.347 . S
N666 C667 1.373 . S
C667 C664 1.350 . S
C667 N666 1.373 . S
C667 H688 0.931 . S
H668 C663 0.931 . S
H669 C664 0.930 . S
C670 O677 1.259 . S
C670 O678 1.258 . S
N671 Co662 2.057 . S
N671 C672 1.316 . S
N671 C673 1.375 . S
C672 N671 1.316 . S
C672 N674 1.347 . S
C672 H683 0.931 . S
C673 N671 1.375 . S
C673 C675 1.350 . S
C673 H682 0.930 . S
N674 C672 1.347 . S
N674 C675 1.373 . S
C675 C673 1.350 . S
C675 N674 1.373 . S
C675 H689 0.931 . S
C676 O679 1.256 . S
C676 O680 1.255 . S
O677 Co660 2.021 . S
O677 C670 1.259 . S
O678 Co662 2.117 . S
O678 C670 1.258 . S
O679 Co662 2.020 . S
O679 C676 1.256 . S
O680 Co660 2.062 . S
O680 C676 1.255 . S
O681 C661 1.259 . S
O681 Co662 2.021 . S
H682 C673 0.930 . S
H683 C672 0.931 . S
O684 Co660 2.117 . S
O684 C661 1.258 . S
O685 Co660 2.020 . S
O685 C687 1.256 . S
O686 Co662 2.062 . S
O686 C687 1.255 . S
C687 O685 1.256 . S
C687 O686 1.255 . S
H688 C667 0.931 . S
H689 C675 0.931 . S
Co690 N695 2.057 1_545 S
Co690 O707 2.021 . S
Co690 O710 2.062 1_545 S
Co690 O714 2.117 1_545 S
Co690 O715 2.020 . S
C691 O711 1.259 . S
C691 O714 1.258 . S
Co692 N701 2.055 1_565 S
Co692 O708 2.117 1_565 S
Co692 O709 2.020 . S
Co692 O711 2.021 . S
Co692 O716 2.062 . S
C693 N695 1.316 1_545 S
C693 N696 1.362 . S
C693 H698 0.931 . S
C694 N695 1.375 . S
C694 C697 1.350 . S
C694 H699 0.930 . S
N695 Co690 2.057 1_565 S
N695 C693 1.316 1_565 S
N695 C694 1.375 . S
N696 C693 1.362 . S
N696 C697 1.341 1_545 S
C697 C694 1.350 . S
C697 N696 1.341 1_565 S
C697 H718 0.931 . S
H698 C693 0.931 . S
H699 C694 0.930 . S
C700 O707 1.259 . S
C700 O708 1.258 . S
N701 Co692 2.055 1_545 S
N701 C702 1.308 1_545 S
N701 C703 1.386 . S
C702 N701 1.308 1_565 S
C702 N704 1.347 . S
C702 H713 0.931 . S
C703 N701 1.386 . S
C703 C705 1.350 . S
C703 H712 0.930 . S
N704 C702 1.347 . S
N704 C705 1.373 1_565 S
C705 C703 1.350 . S
C705 N704 1.373 1_545 S
C705 H719 0.931 . S
C706 O709 1.256 . S
C706 O710 1.255 . S
O707 Co690 2.021 . S
O707 C700 1.259 . S
O708 Co692 2.117 1_545 S
O708 C700 1.258 . S
O709 Co692 2.020 . S
O709 C706 1.256 . S
O710 Co690 2.062 1_565 S
O710 C706 1.255 . S
O711 C691 1.259 . S
O711 Co692 2.021 . S
H712 C703 0.930 . S
H713 C702 0.931 . S
O714 Co690 2.117 1_565 S
O714 C691 1.258 . S
O715 Co690 2.020 . S
O715 C717 1.256 . S
O716 Co692 2.062 . S
O716 C717 1.255 1_565 S
C717 O715 1.256 . S
C717 O716 1.255 1_545 S
H718 C697 0.931 . S
H719 C705 0.931 . S
Co720 N725 2.057 . S
Co720 O737 2.021 . S
Co720 O740 2.062 . S
Co720 O744 2.117 . S
Co720 O745 2.020 . S
C721 O741 1.259 . S
C721 O744 1.258 . S
Co722 N731 2.057 . S
Co722 O738 2.117 . S
Co722 O739 2.020 . S
Co722 O741 2.021 . S
Co722 O746 2.063 1_554 S
C723 N725 1.316 . S
C723 N726 1.347 . S
C723 H728 0.931 . S
C724 N725 1.375 . S
C724 C727 1.350 . S
C724 H729 0.930 . S
N725 Co720 2.057 . S
N725 C723 1.316 . S
N725 C724 1.375 . S
N726 C723 1.347 . S
N726 C727 1.373 . S
C727 C724 1.350 . S
C727 N726 1.373 . S
C727 H748 0.931 . S
H728 C723 0.931 . S
H729 C724 0.930 . S
C730 O737 1.259 . S
C730 O738 1.258 . S
N731 Co722 2.057 . S
N731 C732 1.316 1_554 S
N731 C733 1.375 . S
C732 N731 1.316 1_556 S
C732 N734 1.347 . S
C732 H743 0.931 . S
C733 N731 1.375 . S
C733 C735 1.350 1_554 S
C733 H742 0.930 . S
N734 C732 1.347 . S
N734 C735 1.373 . S
C735 C733 1.350 1_556 S
C735 N734 1.373 . S
C735 H749 0.931 . S
C736 O739 1.256 . S
C736 O740 1.255 . S
O737 Co720 2.021 . S
O737 C730 1.259 . S
O738 Co722 2.117 . S
O738 C730 1.258 . S
O739 Co722 2.020 . S
O739 C736 1.256 . S
O740 Co720 2.062 . S
O740 C736 1.255 . S
O741 C721 1.259 . S
O741 Co722 2.021 . S
H742 C733 0.930 . S
H743 C732 0.931 . S
O744 Co720 2.117 . S
O744 C721 1.258 . S
O745 Co720 2.020 . S
O745 C747 1.256 1_554 S
O746 Co722 2.063 1_556 S
O746 C747 1.255 . S
C747 O745 1.256 1_556 S
C747 O746 1.255 . S
H748 C727 0.931 . S
H749 C735 0.931 . S
Co750 N755 2.057 . S
Co750 O767 2.021 . S
Co750 O770 2.062 . S
Co750 O774 2.117 . S
Co750 O775 2.020 . S
C751 O771 1.259 . S
C751 O774 1.258 . S
Co752 N761 2.057 . S
Co752 O768 2.117 . S
Co752 O769 2.020 . S
Co752 O771 2.021 . S
Co752 O776 2.062 1_554 S
C753 N755 1.316 . S
C753 N756 1.347 . S
C753 H758 0.931 . S
C754 N755 1.375 . S
C754 C757 1.350 . S
C754 H759 0.930 . S
N755 Co750 2.057 . S
N755 C753 1.316 . S
N755 C754 1.375 . S
N756 C753 1.347 . S
N756 C757 1.373 . S
C757 C754 1.350 . S
C757 N756 1.373 . S
C757 H778 0.931 . S
H758 C753 0.931 . S
H759 C754 0.930 . S
C760 O767 1.259 . S
C760 O768 1.258 . S
N761 Co752 2.057 . S
N761 C762 1.316 1_554 S
N761 C763 1.375 . S
C762 N761 1.316 1_556 S
C762 N764 1.347 . S
C762 H773 0.931 . S
C763 N761 1.375 . S
C763 C765 1.350 1_554 S
C763 H772 0.930 . S
N764 C762 1.347 . S
N764 C765 1.373 . S
C765 C763 1.350 1_556 S
C765 N764 1.373 . S
C765 H779 0.931 . S
C766 O769 1.256 . S
C766 O770 1.255 . S
O767 Co750 2.021 . S
O767 C760 1.259 . S
O768 Co752 2.117 . S
O768 C760 1.258 . S
O769 Co752 2.020 . S
O769 C766 1.256 . S
O770 Co750 2.062 . S
O770 C766 1.255 . S
O771 C751 1.259 . S
O771 Co752 2.021 . S
H772 C763 0.930 . S
H773 C762 0.931 . S
O774 Co750 2.117 . S
O774 C751 1.258 . S
O775 Co750 2.020 . S
O775 C777 1.256 1_554 S
O776 Co752 2.062 1_556 S
O776 C777 1.255 . S
C777 O775 1.256 1_556 S
C777 O776 1.255 . S
H778 C757 0.931 . S
H779 C765 0.931 . S
Co780 N785 2.057 . S
Co780 O797 2.021 . S
Co780 O800 2.062 . S
Co780 O804 2.117 . S
Co780 O805 2.020 . S
C781 O801 1.259 . S
C781 O804 1.258 . S
Co782 N791 2.057 . S
Co782 O798 2.117 . S
Co782 O799 2.020 . S
Co782 O801 2.021 . S
Co782 O806 2.062 . S
C783 N785 1.316 . S
C783 N786 1.347 . S
C783 H788 0.931 . S
C784 N785 1.375 . S
C784 C787 1.350 . S
C784 H789 0.930 . S
N785 Co780 2.057 . S
N785 C783 1.316 . S
N785 C784 1.375 . S
N786 C783 1.347 . S
N786 C787 1.373 . S
C787 C784 1.350 . S
C787 N786 1.373 . S
C787 H808 0.931 . S
H788 C783 0.931 . S
H789 C784 0.930 . S
C790 O797 1.259 . S
C790 O798 1.258 . S
N791 Co782 2.057 . S
N791 C792 1.316 . S
N791 C793 1.375 . S
C792 N791 1.316 . S
C792 N794 1.347 . S
C792 H803 0.931 . S
C793 N791 1.375 . S
C793 C795 1.350 . S
C793 H802 0.930 . S
N794 C792 1.347 . S
N794 C795 1.373 . S
C795 C793 1.350 . S
C795 N794 1.373 . S
C795 H809 0.931 . S
C796 O799 1.256 . S
C796 O800 1.255 . S
O797 Co780 2.021 . S
O797 C790 1.259 . S
O798 Co782 2.117 . S
O798 C790 1.258 . S
O799 Co782 2.020 . S
O799 C796 1.256 . S
O800 Co780 2.062 . S
O800 C796 1.255 . S
O801 C781 1.259 . S
O801 Co782 2.021 . S
H802 C793 0.930 . S
H803 C792 0.931 . S
O804 Co780 2.117 . S
O804 C781 1.258 . S
O805 Co780 2.020 . S
O805 C807 1.256 . S
O806 Co782 2.062 . S
O806 C807 1.255 . S
C807 O805 1.256 . S
C807 O806 1.255 . S
H808 C787 0.931 . S
H809 C795 0.931 . S
Co810 N815 2.057 . S
Co810 O827 2.021 . S
Co810 O830 2.062 . S
Co810 O834 2.117 . S
Co810 O835 2.020 . S
C811 O831 1.259 . S
C811 O834 1.258 . S
Co812 N821 2.057 . S
Co812 O828 2.117 . S
Co812 O829 2.020 . S
Co812 O831 2.021 . S
Co812 O836 2.062 . S
C813 N815 1.316 . S
C813 N816 1.347 . S
C813 H818 0.931 . S
C814 N815 1.375 . S
C814 C817 1.350 . S
C814 H819 0.930 . S
N815 Co810 2.057 . S
N815 C813 1.316 . S
N815 C814 1.375 . S
N816 C813 1.347 . S
N816 C817 1.373 . S
C817 C814 1.350 . S
C817 N816 1.373 . S
C817 H838 0.931 . S
H818 C813 0.931 . S
H819 C814 0.930 . S
C820 O827 1.259 . S
C820 O828 1.258 . S
N821 Co812 2.057 . S
N821 C822 1.316 . S
N821 C823 1.375 . S
C822 N821 1.316 . S
C822 N824 1.347 . S
C822 H833 0.931 . S
C823 N821 1.375 . S
C823 C825 1.350 . S
C823 H832 0.930 . S
N824 C822 1.347 . S
N824 C825 1.373 . S
C825 C823 1.350 . S
C825 N824 1.373 . S
C825 H839 0.931 . S
C826 O829 1.256 . S
C826 O830 1.255 . S
O827 Co810 2.021 . S
O827 C820 1.259 . S
O828 Co812 2.117 . S
O828 C820 1.258 . S
O829 Co812 2.020 . S
O829 C826 1.256 . S
O830 Co810 2.062 . S
O830 C826 1.255 . S
O831 C811 1.259 . S
O831 Co812 2.021 . S
H832 C823 0.930 . S
H833 C822 0.931 . S
O834 Co810 2.117 . S
O834 C811 1.258 . S
O835 Co810 2.020 . S
O835 C837 1.256 . S
O836 Co812 2.062 . S
O836 C837 1.255 . S
C837 O835 1.256 . S
C837 O836 1.255 . S
H838 C817 0.931 . S
H839 C825 0.931 . S
Co840 N845 2.057 . S
Co840 O857 2.021 . S
Co840 O860 2.063 1_556 S
Co840 O864 2.117 . S
Co840 O865 2.020 . S
C841 O861 1.259 . S
C841 O864 1.258 . S
Co842 N851 2.057 . S
Co842 O858 2.117 . S
Co842 O859 2.020 . S
Co842 O861 2.021 . S
Co842 O866 2.062 . S
C843 N845 1.316 1_554 S
C843 N846 1.347 . S
C843 H848 0.931 . S
C844 N845 1.375 . S
C844 C847 1.350 1_556 S
C844 H849 0.930 . S
N845 Co840 2.057 . S
N845 C843 1.316 1_556 S
N845 C844 1.375 . S
N846 C843 1.347 . S
N846 C847 1.373 . S
C847 C844 1.350 1_554 S
C847 N846 1.373 . S
C847 H868 0.931 . S
H848 C843 0.931 . S
H849 C844 0.930 . S
C850 O857 1.259 . S
C850 O858 1.258 . S
N851 Co842 2.057 . S
N851 C852 1.316 . S
N851 C853 1.375 . S
C852 N851 1.316 . S
C852 N854 1.347 . S
C852 H863 0.931 . S
C853 N851 1.375 . S
C853 C855 1.350 . S
C853 H862 0.930 . S
N854 C852 1.347 . S
N854 C855 1.373 . S
C855 C853 1.350 . S
C855 N854 1.373 . S
C855 H869 0.931 . S
C856 O859 1.256 1_554 S
C856 O860 1.255 . S
O857 Co840 2.021 . S
O857 C850 1.259 . S
O858 Co842 2.117 . S
O858 C850 1.258 . S
O859 Co842 2.020 . S
O859 C856 1.256 1_556 S
O860 Co840 2.063 1_554 S
O860 C856 1.255 . S
O861 C841 1.259 . S
O861 Co842 2.021 . S
H862 C853 0.930 . S
H863 C852 0.931 . S
O864 Co840 2.117 . S
O864 C841 1.258 . S
O865 Co840 2.020 . S
O865 C867 1.256 . S
O866 Co842 2.062 . S
O866 C867 1.255 . S
C867 O865 1.256 . S
C867 O866 1.255 . S
H868 C847 0.931 . S
H869 C855 0.931 . S
Co870 N875 2.057 . S
Co870 O887 2.021 . S
Co870 O890 2.062 1_556 S
Co870 O894 2.117 . S
Co870 O895 2.020 . S
C871 O891 1.259 . S
C871 O894 1.258 . S
Co872 N881 2.057 . S
Co872 O888 2.117 . S
Co872 O889 2.020 . S
Co872 O891 2.021 . S
Co872 O896 2.062 . S
C873 N875 1.316 1_554 S
C873 N876 1.347 . S
C873 H878 0.931 . S
C874 N875 1.375 . S
C874 C877 1.350 1_556 S
C874 H879 0.930 . S
N875 Co870 2.057 . S
N875 C873 1.316 1_556 S
N875 C874 1.375 . S
N876 C873 1.347 . S
N876 C877 1.373 . S
C877 C874 1.350 1_554 S
C877 N876 1.373 . S
C877 H898 0.931 . S
H878 C873 0.931 . S
H879 C874 0.930 . S
C880 O887 1.259 . S
C880 O888 1.258 . S
N881 Co872 2.057 . S
N881 C882 1.316 . S
N881 C883 1.375 . S
C882 N881 1.316 . S
C882 N884 1.347 . S
C882 H893 0.931 . S
C883 N881 1.375 . S
C883 C885 1.350 . S
C883 H892 0.930 . S
N884 C882 1.347 . S
N884 C885 1.373 . S
C885 C883 1.350 . S
C885 N884 1.373 . S
C885 H899 0.931 . S
C886 O889 1.256 1_554 S
C886 O890 1.255 . S
O887 Co870 2.021 . S
O887 C880 1.259 . S
O888 Co872 2.117 . S
O888 C880 1.258 . S
O889 Co872 2.020 . S
O889 C886 1.256 1_556 S
O890 Co870 2.062 1_554 S
O890 C886 1.255 . S
O891 C871 1.259 . S
O891 Co872 2.021 . S
H892 C883 0.930 . S
H893 C882 0.931 . S
O894 Co870 2.117 . S
O894 C871 1.258 . S
O895 Co870 2.020 . S
O895 C897 1.256 . S
O896 Co872 2.062 . S
O896 C897 1.255 . S
C897 O895 1.256 . S
C897 O896 1.255 . S
H898 C877 0.931 . S
H899 C885 0.931 . S
Co900 N905 2.057 . S
Co900 O917 2.021 . S
Co900 O920 2.062 . S
Co900 O924 2.117 . S
Co900 O925 2.020 . S
C901 O921 1.259 . S
C901 O924 1.258 . S
Co902 N911 2.057 . S
Co902 O918 2.117 . S
Co902 O919 2.020 . S
Co902 O921 2.021 . S
Co902 O926 2.062 . S
C903 N905 1.316 . S
C903 N906 1.347 . S
C903 H908 0.931 . S
C904 N905 1.375 . S
C904 C907 1.350 . S
C904 H909 0.930 . S
N905 Co900 2.057 . S
N905 C903 1.316 . S
N905 C904 1.375 . S
N906 C903 1.347 . S
N906 C907 1.373 . S
C907 C904 1.350 . S
C907 N906 1.373 . S
C907 H928 0.931 . S
H908 C903 0.931 . S
H909 C904 0.930 . S
C910 O917 1.259 . S
C910 O918 1.258 . S
N911 Co902 2.057 . S
N911 C912 1.316 . S
N911 C913 1.375 . S
C912 N911 1.316 . S
C912 N914 1.347 . S
C912 H923 0.931 . S
C913 N911 1.375 . S
C913 C915 1.350 . S
C913 H922 0.930 . S
N914 C912 1.347 . S
N914 C915 1.373 . S
C915 C913 1.350 . S
C915 N914 1.373 . S
C915 H929 0.931 . S
C916 O919 1.256 . S
C916 O920 1.255 . S
O917 Co900 2.021 . S
O917 C910 1.259 . S
O918 Co902 2.117 . S
O918 C910 1.258 . S
O919 Co902 2.020 . S
O919 C916 1.256 . S
O920 Co900 2.062 . S
O920 C916 1.255 . S
O921 C901 1.259 . S
O921 Co902 2.021 . S
H922 C913 0.930 . S
H923 C912 0.931 . S
O924 Co900 2.117 . S
O924 C901 1.258 . S
O925 Co900 2.020 . S
O925 C927 1.256 . S
O926 Co902 2.062 . S
O926 C927 1.255 . S
C927 O925 1.256 . S
C927 O926 1.255 . S
H928 C907 0.931 . S
H929 C915 0.931 . S
Co930 N935 2.057 . S
Co930 O947 2.021 . S
Co930 O950 2.062 . S
Co930 O954 2.117 . S
Co930 O955 2.020 . S
C931 O951 1.259 . S
C931 O954 1.258 . S
Co932 N941 2.057 . S
Co932 O948 2.117 . S
Co932 O949 2.020 . S
Co932 O951 2.021 . S
Co932 O956 2.062 . S
C933 N935 1.316 . S
C933 N936 1.347 . S
C933 H938 0.931 . S
C934 N935 1.375 . S
C934 C937 1.350 . S
C934 H939 0.930 . S
N935 Co930 2.057 . S
N935 C933 1.316 . S
N935 C934 1.375 . S
N936 C933 1.347 . S
N936 C937 1.373 . S
C937 C934 1.350 . S
C937 N936 1.373 . S
C937 H958 0.931 . S
H938 C933 0.931 . S
H939 C934 0.930 . S
C940 O947 1.259 . S
C940 O948 1.258 . S
N941 Co932 2.057 . S
N941 C942 1.316 . S
N941 C943 1.375 . S
C942 N941 1.316 . S
C942 N944 1.347 . S
C942 H953 0.931 . S
C943 N941 1.375 . S
C943 C945 1.350 . S
C943 H952 0.930 . S
N944 C942 1.347 . S
N944 C945 1.373 . S
C945 C943 1.350 . S
C945 N944 1.373 . S
C945 H959 0.931 . S
C946 O949 1.256 . S
C946 O950 1.255 . S
O947 Co930 2.021 . S
O947 C940 1.259 . S
O948 Co932 2.117 . S
O948 C940 1.258 . S
O949 Co932 2.020 . S
O949 C946 1.256 . S
O950 Co930 2.062 . S
O950 C946 1.255 . S
O951 C931 1.259 . S
O951 Co932 2.021 . S
H952 C943 0.930 . S
H953 C942 0.931 . S
O954 Co930 2.117 . S
O954 C931 1.258 . S
O955 Co930 2.020 . S
O955 C957 1.256 . S
O956 Co932 2.062 . S
O956 C957 1.255 . S
C957 O955 1.256 . S
C957 O956 1.255 . S
H958 C937 0.931 . S
H959 C945 0.931 . S
C960 C961 1.369 . S
C960 C962 1.419 . S
C960 H964 0.930 . S
C961 C960 1.369 . S
C961 C970 1.429 . S
C962 C960 1.419 . S
C962 C963 1.363 . S
C962 H965 0.929 . S
C963 C962 1.363 . S
C963 C969 1.428 . S
H964 C960 0.930 . S
H965 C962 0.929 . S
S966 N967 1.613 . S
S966 N968 1.610 . S
N967 S966 1.613 . S
N967 C970 1.350 . S
N968 S966 1.610 . S
N968 C969 1.351 . S
C969 C963 1.428 . S
C969 N968 1.351 . S
C969 C970 1.434 . S
C970 C961 1.429 . S
C970 N967 1.350 . S
C970 C969 1.434 . S
C971 C972 1.369 . S
C971 C973 1.419 . S
C971 H975 0.930 . S
C972 C971 1.369 . S
C972 C981 1.429 . S
C973 C971 1.419 . S
C973 C974 1.363 . S
C973 H976 0.929 . S
C974 C973 1.363 . S
C974 C980 1.428 . S
H975 C971 0.930 . S
H976 C973 0.929 . S
S977 N978 1.613 . S
S977 N979 1.610 . S
N978 S977 1.613 . S
N978 C981 1.350 . S
N979 S977 1.610 . S
N979 C980 1.351 . S
C980 C974 1.428 . S
C980 N979 1.351 . S
C980 C981 1.434 . S
C981 C972 1.429 . S
C981 N978 1.350 . S
C981 C980 1.434 . S
C982 C983 1.369 . S
C982 C984 1.419 . S
C982 H986 0.930 . S
C983 C982 1.369 . S
C983 C992 1.429 . S
C984 C982 1.419 . S
C984 C985 1.363 . S
C984 H987 0.929 . S
C985 C984 1.363 . S
C985 C991 1.428 . S
H986 C982 0.930 . S
H987 C984 0.929 . S
S988 N989 1.613 . S
S988 N990 1.610 . S
N989 S988 1.613 . S
N989 C992 1.350 . S
N990 S988 1.610 . S
N990 C991 1.351 . S
C991 C985 1.428 . S
C991 N990 1.351 . S
C991 C992 1.434 . S
C992 C983 1.429 . S
C992 N989 1.350 . S
C992 C991 1.434 . S
C993 C994 1.369 . S
C993 C995 1.419 . S
C993 H997 0.930 . S
C994 C993 1.369 . S
C994 C1003 1.429 . S
C995 C993 1.419 . S
C995 C996 1.363 . S
C995 H998 0.929 . S
C996 C995 1.363 . S
C996 C1002 1.428 . S
H997 C993 0.930 . S
H998 C995 0.929 . S
S999 N1000 1.613 . S
S999 N1001 1.610 . S
N1000 S999 1.613 . S
N1000 C1003 1.350 . S
N1001 S999 1.610 . S
N1001 C1002 1.351 . S
C1002 C996 1.428 . S
C1002 N1001 1.351 . S
C1002 C1003 1.434 . S
C1003 C994 1.429 . S
C1003 N1000 1.350 . S
C1003 C1002 1.434 . S
C1004 C1005 1.369 . S
C1004 C1006 1.419 . S
C1004 H1008 0.930 . S
C1005 C1004 1.369 . S
C1005 C1014 1.429 . S
C1006 C1004 1.419 . S
C1006 C1007 1.363 . S
C1006 H1009 0.929 . S
C1007 C1006 1.363 . S
C1007 C1013 1.428 . S
H1008 C1004 0.930 . S
H1009 C1006 0.929 . S
S1010 N1011 1.613 1_554 S
S1010 N1012 1.610 1_554 S
N1011 S1010 1.613 1_556 S
N1011 C1014 1.350 . S
N1012 S1010 1.610 1_556 S
N1012 C1013 1.351 . S
C1013 C1007 1.428 . S
C1013 N1012 1.351 . S
C1013 C1014 1.434 . S
C1014 C1005 1.429 . S
C1014 N1011 1.350 . S
C1014 C1013 1.434 . S
C1015 C1016 1.369 . S
C1015 C1017 1.419 . S
C1015 H1019 0.930 . S
C1016 C1015 1.369 . S
C1016 C1025 1.429 . S
C1017 C1015 1.419 . S
C1017 C1018 1.363 . S
C1017 H1020 0.929 . S
C1018 C1017 1.363 . S
C1018 C1024 1.428 . S
H1019 C1015 0.930 . S
H1020 C1017 0.929 . S
S1021 N1022 1.613 . S
S1021 N1023 1.610 . S
N1022 S1021 1.613 . S
N1022 C1025 1.350 1_554 S
N1023 S1021 1.610 . S
N1023 C1024 1.351 1_554 S
C1024 C1018 1.428 . S
C1024 N1023 1.351 1_556 S
C1024 C1025 1.434 . S
C1025 C1016 1.429 . S
C1025 N1022 1.350 1_556 S
C1025 C1024 1.434 . S
C1026 C1027 1.369 . S
C1026 C1028 1.419 . S
C1026 H1030 0.930 . S
C1027 C1026 1.369 . S
C1027 C1036 1.429 . S
C1028 C1026 1.419 . S
C1028 C1029 1.363 . S
C1028 H1031 0.929 . S
C1029 C1028 1.363 . S
C1029 C1035 1.428 . S
H1030 C1026 0.930 . S
H1031 C1028 0.929 . S
S1032 N1033 1.613 . S
S1032 N1034 1.610 . S
N1033 S1032 1.613 . S
N1033 C1036 1.350 . S
N1034 S1032 1.610 . S
N1034 C1035 1.351 . S
C1035 C1029 1.428 . S
C1035 N1034 1.351 . S
C1035 C1036 1.434 . S
C1036 C1027 1.429 . S
C1036 N1033 1.350 . S
C1036 C1035 1.434 . S
C1037 C1038 1.369 . S
C1037 C1039 1.419 . S
C1037 H1041 0.930 . S
C1038 C1037 1.369 . S
C1038 C1047 1.429 . S
C1039 C1037 1.419 . S
C1039 C1040 1.363 . S
C1039 H1042 0.929 . S
C1040 C1039 1.363 . S
C1040 C1046 1.428 . S
H1041 C1037 0.930 . S
H1042 C1039 0.929 . S
S1043 N1044 1.613 . S
S1043 N1045 1.610 . S
N1044 S1043 1.613 . S
N1044 C1047 1.350 . S
N1045 S1043 1.610 . S
N1045 C1046 1.351 . S
C1046 C1040 1.428 . S
C1046 N1045 1.351 . S
C1046 C1047 1.434 . S
C1047 C1038 1.429 . S
C1047 N1044 1.350 . S
C1047 C1046 1.434 . S
C1048 C1049 1.369 . S
C1048 C1050 1.419 . S
C1048 H1052 0.930 . S
C1049 C1048 1.369 . S
C1049 C1058 1.429 . S
C1050 C1048 1.419 . S
C1050 C1051 1.363 . S
C1050 H1053 0.929 . S
C1051 C1050 1.363 . S
C1051 C1057 1.428 . S
H1052 C1048 0.930 . S
H1053 C1050 0.929 . S
S1054 N1055 1.613 . S
S1054 N1056 1.610 . S
N1055 S1054 1.613 . S
N1055 C1058 1.350 . S
N1056 S1054 1.610 . S
N1056 C1057 1.351 . S
C1057 C1051 1.428 . S
C1057 N1056 1.351 . S
C1057 C1058 1.434 . S
C1058 C1049 1.429 . S
C1058 N1055 1.350 . S
C1058 C1057 1.434 . S
C1059 C1060 1.369 . S
C1059 C1061 1.419 . S
C1059 H1063 0.930 . S
C1060 C1059 1.369 . S
C1060 C1069 1.429 . S
C1061 C1059 1.419 . S
C1061 C1062 1.363 . S
C1061 H1064 0.929 . S
C1062 C1061 1.363 . S
C1062 C1068 1.428 . S
H1063 C1059 0.930 . S
H1064 C1061 0.929 . S
S1065 N1066 1.613 . S
S1065 N1067 1.610 . S
N1066 S1065 1.613 . S
N1066 C1069 1.350 . S
N1067 S1065 1.610 . S
N1067 C1068 1.351 . S
C1068 C1062 1.428 . S
C1068 N1067 1.351 . S
C1068 C1069 1.434 . S
C1069 C1060 1.429 . S
C1069 N1066 1.350 . S
C1069 C1068 1.434 . S
C1070 C1071 1.369 . S
C1070 C1072 1.419 . S
C1070 H1074 0.930 . S
C1071 C1070 1.369 . S
C1071 C1080 1.429 . S
C1072 C1070 1.419 . S
C1072 C1073 1.363 . S
C1072 H1075 0.929 . S
C1073 C1072 1.363 . S
C1073 C1079 1.428 . S
H1074 C1070 0.930 . S
H1075 C1072 0.929 . S
S1076 N1077 1.613 . S
S1076 N1078 1.610 . S
N1077 S1076 1.613 . S
N1077 C1080 1.350 . S
N1078 S1076 1.610 . S
N1078 C1079 1.351 . S
C1079 C1073 1.428 . S
C1079 N1078 1.351 . S
C1079 C1080 1.434 . S
C1080 C1071 1.429 . S
C1080 N1077 1.350 . S
C1080 C1079 1.434 . S
C1081 C1082 1.369 . S
C1081 C1083 1.419 . S
C1081 H1085 0.930 . S
C1082 C1081 1.369 . S
C1082 C1091 1.429 . S
C1083 C1081 1.419 . S
C1083 C1084 1.363 . S
C1083 H1086 0.929 . S
C1084 C1083 1.363 . S
C1084 C1090 1.428 . S
H1085 C1081 0.930 . S
H1086 C1083 0.929 . S
S1087 N1088 1.613 . S
S1087 N1089 1.610 . S
N1088 S1087 1.613 . S
N1088 C1091 1.350 . S
N1089 S1087 1.610 . S
N1089 C1090 1.351 . S
C1090 C1084 1.428 . S
C1090 N1089 1.351 . S
C1090 C1091 1.434 . S
C1091 C1082 1.429 . S
C1091 N1088 1.350 . S
C1091 C1090 1.434 . S
C1092 C1093 1.369 . S
C1092 C1094 1.419 . S
C1092 H1096 0.930 . S
C1093 C1092 1.369 . S
C1093 C1102 1.429 . S
C1094 C1092 1.419 . S
C1094 C1095 1.363 . S
C1094 H1097 0.929 . S
C1095 C1094 1.363 . S
C1095 C1101 1.428 . S
H1096 C1092 0.930 . S
H1097 C1094 0.929 . S
S1098 N1099 1.613 . S
S1098 N1100 1.610 . S
N1099 S1098 1.613 . S
N1099 C1102 1.350 . S
N1100 S1098 1.610 . S
N1100 C1101 1.351 . S
C1101 C1095 1.428 . S
C1101 N1100 1.351 . S
C1101 C1102 1.434 . S
C1102 C1093 1.429 . S
C1102 N1099 1.350 . S
C1102 C1101 1.434 . S
C1103 C1104 1.369 . S
C1103 C1105 1.419 . S
C1103 H1107 0.930 . S
C1104 C1103 1.369 . S
C1104 C1113 1.429 . S
C1105 C1103 1.419 . S
C1105 C1106 1.363 . S
C1105 H1108 0.929 . S
C1106 C1105 1.363 . S
C1106 C1112 1.428 . S
H1107 C1103 0.930 . S
H1108 C1105 0.929 . S
S1109 N1110 1.613 . S
S1109 N1111 1.610 . S
N1110 S1109 1.613 . S
N1110 C1113 1.350 . S
N1111 S1109 1.610 . S
N1111 C1112 1.351 . S
C1112 C1106 1.428 . S
C1112 N1111 1.351 . S
C1112 C1113 1.434 . S
C1113 C1104 1.429 . S
C1113 N1110 1.350 . S
C1113 C1112 1.434 . S
C1114 C1115 1.369 . S
C1114 C1116 1.419 . S
C1114 H1118 0.930 . S
C1115 C1114 1.369 . S
C1115 C1124 1.429 . S
C1116 C1114 1.419 . S
C1116 C1117 1.363 . S
C1116 H1119 0.929 . S
C1117 C1116 1.363 . S
C1117 C1123 1.428 . S
H1118 C1114 0.930 . S
H1119 C1116 0.929 . S
S1120 N1121 1.613 . S
S1120 N1122 1.610 . S
N1121 S1120 1.613 . S
N1121 C1124 1.350 . S
N1122 S1120 1.610 . S
N1122 C1123 1.351 . S
C1123 C1117 1.428 . S
C1123 N1122 1.351 . S
C1123 C1124 1.434 . S
C1124 C1115 1.429 . S
C1124 N1121 1.350 . S
C1124 C1123 1.434 . S
C1125 C1126 1.369 . S
C1125 C1127 1.419 . S
C1125 H1129 0.930 . S
C1126 C1125 1.369 . S
C1126 C1135 1.429 . S
C1127 C1125 1.419 . S
C1127 C1128 1.363 . S
C1127 H1130 0.929 . S
C1128 C1127 1.363 . S
C1128 C1134 1.428 . S
H1129 C1125 0.930 . S
H1130 C1127 0.929 . S
S1131 N1132 1.613 . S
S1131 N1133 1.610 . S
N1132 S1131 1.613 . S
N1132 C1135 1.350 . S
N1133 S1131 1.610 . S
N1133 C1134 1.351 . S
C1134 C1128 1.428 . S
C1134 N1133 1.351 . S
C1134 C1135 1.434 . S
C1135 C1126 1.429 . S
C1135 N1132 1.350 . S
C1135 C1134 1.434 . S
C1136 C1137 1.369 1_545 S
C1136 C1138 1.419 . S
C1136 H1140 0.930 . S
C1137 C1136 1.369 1_565 S
C1137 C1146 1.429 . S
C1138 C1136 1.419 . S
C1138 C1139 1.363 . S
C1138 H1141 0.929 . S
C1139 C1138 1.363 . S
C1139 C1145 1.428 1_545 S
H1140 C1136 0.930 . S
H1141 C1138 0.929 . S
S1142 N1143 1.613 . S
S1142 N1144 1.610 . S
N1143 S1142 1.613 . S
N1143 C1146 1.350 . S
N1144 S1142 1.610 . S
N1144 C1145 1.351 . S
C1145 C1139 1.428 1_565 S
C1145 N1144 1.351 . S
C1145 C1146 1.434 . S
C1146 C1137 1.429 . S
C1146 N1143 1.350 . S
C1146 C1145 1.434 . S
C1147 C1148 1.369 . S
C1147 C1149 1.419 . S
C1147 H1151 0.930 . S
C1148 C1147 1.369 . S
C1148 C1157 1.429 1_455 S
C1149 C1147 1.419 . S
C1149 C1150 1.363 1_455 S
C1149 H1152 0.929 . S
C1150 C1149 1.363 1_655 S
C1150 C1156 1.428 . S
H1151 C1147 0.930 . S
H1152 C1149 0.929 . S
S1153 N1154 1.613 . S
S1153 N1155 1.610 . S
N1154 S1153 1.613 . S
N1154 C1157 1.350 . S
N1155 S1153 1.610 . S
N1155 C1156 1.351 . S
C1156 C1150 1.428 . S
C1156 N1155 1.351 . S
C1156 C1157 1.434 . S
C1157 C1148 1.429 1_655 S
C1157 N1154 1.350 . S
C1157 C1156 1.434 . S
C1158 C1159 1.369 1_554 S
C1158 C1160 1.419 . S
C1158 H1162 0.930 . S
C1159 C1158 1.369 1_556 S
C1159 C1168 1.429 . S
C1160 C1158 1.419 . S
C1160 C1161 1.363 . S
C1160 H1163 0.929 . S
C1161 C1160 1.363 . S
C1161 C1167 1.428 1_554 S
H1162 C1158 0.930 . S
H1163 C1160 0.929 . S
S1164 N1165 1.613 . S
S1164 N1166 1.610 . S
N1165 S1164 1.613 . S
N1165 C1168 1.350 . S
N1166 S1164 1.610 . S
N1166 C1167 1.351 . S
C1167 C1161 1.428 1_556 S
C1167 N1166 1.351 . S
C1167 C1168 1.434 . S
C1168 C1159 1.429 . S
C1168 N1165 1.350 . S
C1168 C1167 1.434 . S
C1169 C1170 1.369 1_455 S
C1169 C1171 1.419 . S
C1169 H1173 0.930 . S
C1170 C1169 1.369 1_655 S
C1170 C1179 1.429 1_564 S
C1171 C1169 1.419 . S
C1171 C1172 1.363 1_564 S
C1171 H1174 0.929 . S
C1172 C1171 1.363 1_546 S
C1172 C1178 1.428 1_455 S
H1173 C1169 0.930 . S
H1174 C1171 0.929 . S
S1175 N1176 1.613 . S
S1175 N1177 1.610 . S
N1176 S1175 1.613 . S
N1176 C1179 1.350 . S
N1177 S1175 1.610 . S
N1177 C1178 1.351 . S
C1178 C1172 1.428 1_655 S
C1178 N1177 1.351 . S
C1178 C1179 1.434 . S
C1179 C1170 1.429 1_546 S
C1179 N1176 1.350 . S
C1179 C1178 1.434 . S
C1180 C1181 1.369 1_565 S
C1180 C1182 1.419 . S
C1180 H1184 0.930 . S
C1181 C1180 1.369 1_545 S
C1181 C1190 1.429 . S
C1182 C1180 1.419 . S
C1182 C1183 1.363 . S
C1182 H1185 0.929 . S
C1183 C1182 1.363 . S
C1183 C1189 1.426 1_565 S
H1184 C1180 0.930 . S
H1185 C1182 0.929 . S
S1186 N1187 1.613 . S
S1186 N1188 1.612 . S
N1187 S1186 1.613 . S
N1187 C1190 1.350 . S
N1188 S1186 1.612 . S
N1188 C1189 1.351 . S
C1189 C1183 1.426 1_545 S
C1189 N1188 1.351 . S
C1189 C1190 1.436 . S
C1190 C1181 1.429 . S
C1190 N1187 1.350 . S
C1190 C1189 1.436 . S
C1191 C1192 1.369 . S
C1191 C1193 1.419 1_455 S
C1191 H1195 0.930 . S
C1192 C1191 1.369 . S
C1192 C1201 1.429 . S
C1193 C1191 1.419 1_655 S
C1193 C1194 1.363 . S
C1193 H1196 0.929 . S
C1194 C1193 1.363 . S
C1194 C1200 1.428 . S
H1195 C1191 0.930 . S
H1196 C1193 0.929 . S
S1197 N1198 1.613 . S
S1197 N1199 1.610 1_455 S
N1198 S1197 1.613 . S
N1198 C1201 1.350 . S
N1199 S1197 1.610 1_655 S
N1199 C1200 1.351 . S
C1200 C1194 1.428 . S
C1200 N1199 1.351 . S
C1200 C1201 1.434 1_655 S
C1201 C1192 1.429 . S
C1201 N1198 1.350 . S
C1201 C1200 1.434 1_455 S
C1202 C1203 1.359 1_554 S
C1202 C1204 1.428 . S
C1202 H1206 0.931 . S
C1203 C1202 1.359 1_556 S
C1203 C1212 1.429 . S
C1204 C1202 1.428 . S
C1204 C1205 1.363 . S
C1204 H1207 0.929 . S
C1205 C1204 1.363 . S
C1205 C1211 1.428 1_554 S
H1206 C1202 0.931 . S
H1207 C1204 0.929 . S
S1208 N1209 1.613 . S
S1208 N1210 1.610 . S
N1209 S1208 1.613 . S
N1209 C1212 1.350 . S
N1210 S1208 1.610 . S
N1210 C1211 1.351 . S
C1211 C1205 1.428 1_556 S
C1211 N1210 1.351 . S
C1211 C1212 1.434 . S
C1212 C1203 1.429 . S
C1212 N1209 1.350 . S
C1212 C1211 1.434 . S
C1213 C1214 1.369 . S
C1213 C1215 1.419 . S
C1213 H1217 0.930 . S
C1214 C1213 1.369 . S
C1214 C1223 1.429 . S
C1215 C1213 1.419 . S
C1215 C1216 1.363 . S
C1215 H1218 0.929 . S
C1216 C1215 1.363 . S
C1216 C1222 1.428 . S
H1217 C1213 0.930 . S
H1218 C1215 0.929 . S
S1219 N1220 1.613 . S
S1219 N1221 1.610 . S
N1220 S1219 1.613 . S
N1220 C1223 1.350 . S
N1221 S1219 1.610 . S
N1221 C1222 1.351 . S
C1222 C1216 1.428 . S
C1222 N1221 1.351 . S
C1222 C1223 1.434 . S
C1223 C1214 1.429 . S
C1223 N1220 1.350 . S
C1223 C1222 1.434 . S
C1224 C1225 1.369 . S
C1224 C1226 1.419 . S
C1224 H1228 0.930 . S
C1225 C1224 1.369 . S
C1225 C1234 1.429 . S
C1226 C1224 1.419 . S
C1226 C1227 1.363 . S
C1226 H1229 0.929 . S
C1227 C1226 1.363 . S
C1227 C1233 1.428 . S
H1228 C1224 0.930 . S
H1229 C1226 0.929 . S
S1230 N1231 1.613 . S
S1230 N1232 1.610 . S
N1231 S1230 1.613 . S
N1231 C1234 1.350 . S
N1232 S1230 1.610 . S
N1232 C1233 1.351 . S
C1233 C1227 1.428 . S
C1233 N1232 1.351 . S
C1233 C1234 1.434 . S
C1234 C1225 1.429 . S
C1234 N1231 1.350 . S
C1234 C1233 1.434 . S
C1235 C1236 1.369 1_655 S
C1235 C1237 1.419 . S
C1235 H1239 0.930 . S
C1236 C1235 1.369 1_455 S
C1236 C1245 1.429 . S
C1237 C1235 1.419 . S
C1237 C1238 1.363 . S
C1237 H1240 0.929 . S
C1238 C1237 1.363 . S
C1238 C1244 1.428 1_655 S
H1239 C1235 0.930 . S
H1240 C1237 0.929 . S
S1241 N1242 1.613 . S
S1241 N1243 1.610 . S
N1242 S1241 1.613 . S
N1242 C1245 1.350 . S
N1243 S1241 1.610 . S
N1243 C1244 1.351 . S
C1244 C1238 1.428 1_455 S
C1244 N1243 1.351 . S
C1244 C1245 1.434 . S
C1245 C1236 1.429 . S
C1245 N1242 1.350 . S
C1245 C1244 1.434 . S
C1246 C1247 1.369 . S
C1246 C1248 1.419 . S
C1246 H1250 0.930 . S
C1247 C1246 1.369 . S
C1247 C1256 1.429 . S
C1248 C1246 1.419 . S
C1248 C1249 1.363 . S
C1248 H1251 0.929 . S
C1249 C1248 1.363 . S
C1249 C1255 1.428 . S
H1250 C1246 0.930 . S
H1251 C1248 0.929 . S
S1252 N1253 1.613 . S
S1252 N1254 1.610 . S
N1253 S1252 1.613 . S
N1253 C1256 1.350 . S
N1254 S1252 1.610 . S
N1254 C1255 1.351 . S
C1255 C1249 1.428 . S
C1255 N1254 1.351 . S
C1255 C1256 1.434 . S
C1256 C1247 1.429 . S
C1256 N1253 1.350 . S
C1256 C1255 1.434 . S
C1257 C1258 1.369 . S
C1257 C1259 1.419 . S
C1257 H1261 0.930 . S
C1258 C1257 1.369 . S
C1258 C1267 1.429 . S
C1259 C1257 1.419 . S
C1259 C1260 1.363 . S
C1259 H1262 0.929 . S
C1260 C1259 1.363 . S
C1260 C1266 1.428 . S
H1261 C1257 0.930 . S
H1262 C1259 0.929 . S
S1263 N1264 1.613 . S
S1263 N1265 1.610 . S
N1264 S1263 1.613 . S
N1264 C1267 1.350 . S
N1265 S1263 1.610 . S
N1265 C1266 1.351 . S
C1266 C1260 1.428 . S
C1266 N1265 1.351 . S
C1266 C1267 1.434 . S
C1267 C1258 1.429 . S
C1267 N1264 1.350 . S
C1267 C1266 1.434 . S
C1268 C1269 1.369 . S
C1268 C1270 1.419 . S
C1268 H1272 0.930 . S
C1269 C1268 1.369 . S
C1269 C1278 1.429 . S
C1270 C1268 1.419 . S
C1270 C1271 1.363 . S
C1270 H1273 0.929 . S
C1271 C1270 1.363 . S
C1271 C1277 1.428 . S
H1272 C1268 0.930 . S
H1273 C1270 0.929 . S
S1274 N1275 1.613 . S
S1274 N1276 1.610 . S
N1275 S1274 1.613 . S
N1275 C1278 1.350 . S
N1276 S1274 1.610 . S
N1276 C1277 1.351 . S
C1277 C1271 1.428 . S
C1277 N1276 1.351 . S
C1277 C1278 1.434 . S
C1278 C1269 1.429 . S
C1278 N1275 1.350 . S
C1278 C1277 1.434 . S
C1279 C1280 1.369 1_545 S
C1279 C1281 1.419 . S
C1279 H1283 0.930 . S
C1280 C1279 1.369 1_565 S
C1280 C1289 1.429 . S
C1281 C1279 1.419 . S
C1281 C1282 1.363 . S
C1281 H1284 0.929 . S
C1282 C1281 1.363 . S
C1282 C1288 1.426 1_545 S
H1283 C1279 0.930 . S
H1284 C1281 0.929 . S
S1285 N1286 1.613 . S
S1285 N1287 1.611 . S
N1286 S1285 1.613 . S
N1286 C1289 1.350 . S
N1287 S1285 1.611 . S
N1287 C1288 1.351 . S
C1288 C1282 1.426 1_565 S
C1288 N1287 1.351 . S
C1288 C1289 1.436 . S
C1289 C1280 1.429 . S
C1289 N1286 1.350 . S
C1289 C1288 1.436 . S
C1290 C1291 1.369 . S
C1290 C1292 1.419 . S
C1290 H1294 0.930 . S
C1291 C1290 1.369 . S
C1291 C1300 1.429 . S
C1292 C1290 1.419 . S
C1292 C1293 1.363 . S
C1292 H1295 0.929 . S
C1293 C1292 1.363 . S
C1293 C1299 1.428 . S
H1294 C1290 0.930 . S
H1295 C1292 0.929 . S
S1296 N1297 1.613 . S
S1296 N1298 1.610 . S
N1297 S1296 1.613 . S
N1297 C1300 1.350 . S
N1298 S1296 1.610 . S
N1298 C1299 1.351 . S
C1299 C1293 1.428 . S
C1299 N1298 1.351 . S
C1299 C1300 1.434 . S
C1300 C1291 1.429 . S
C1300 N1297 1.350 . S
C1300 C1299 1.434 . S
C1301 C1302 1.369 . S
C1301 C1303 1.419 1_554 S
C1301 H1305 0.930 . S
C1302 C1301 1.369 . S
C1302 C1311 1.429 . S
C1303 C1301 1.419 1_556 S
C1303 C1304 1.363 . S
C1303 H1306 0.929 . S
C1304 C1303 1.363 . S
C1304 C1310 1.428 . S
H1305 C1301 0.930 . S
H1306 C1303 0.929 . S
S1307 N1308 1.613 . S
S1307 N1309 1.610 1_554 S
N1308 S1307 1.613 . S
N1308 C1311 1.350 . S
N1309 S1307 1.610 1_556 S
N1309 C1310 1.351 . S
C1310 C1304 1.428 . S
C1310 N1309 1.351 . S
C1310 C1311 1.434 1_556 S
C1311 C1302 1.429 . S
C1311 N1308 1.350 . S
C1311 C1310 1.434 1_554 S
C1312 C1313 1.369 . S
C1312 C1314 1.419 . S
C1312 H1316 0.930 . S
C1313 C1312 1.369 . S
C1313 C1322 1.429 1_545 S
C1314 C1312 1.419 . S
C1314 C1315 1.363 . S
C1314 H1317 0.929 . S
C1315 C1314 1.363 . S
C1315 C1321 1.428 1_545 S
H1316 C1312 0.930 . S
H1317 C1314 0.929 . S
S1318 N1319 1.613 . S
S1318 N1320 1.610 . S
N1319 S1318 1.613 . S
N1319 C1322 1.350 . S
N1320 S1318 1.610 . S
N1320 C1321 1.351 . S
C1321 C1315 1.428 1_565 S
C1321 N1320 1.351 . S
C1321 C1322 1.434 . S
C1322 C1313 1.429 1_565 S
C1322 N1319 1.350 . S
C1322 C1321 1.434 . S
C1323 C1324 1.369 . S
C1323 C1325 1.419 . S
C1323 H1327 0.930 . S
C1324 C1323 1.369 . S
C1324 C1333 1.429 . S
C1325 C1323 1.419 . S
C1325 C1326 1.363 . S
C1325 H1328 0.929 . S
C1326 C1325 1.363 . S
C1326 C1332 1.428 . S
H1327 C1323 0.930 . S
H1328 C1325 0.929 . S
S1329 N1330 1.613 . S
S1329 N1331 1.610 . S
N1330 S1329 1.613 . S
N1330 C1333 1.350 . S
N1331 S1329 1.610 . S
N1331 C1332 1.351 . S
C1332 C1326 1.428 . S
C1332 N1331 1.351 . S
C1332 C1333 1.434 . S
C1333 C1324 1.429 . S
C1333 N1330 1.350 . S
C1333 C1332 1.434 . S
C1334 C1335 1.369 . S
C1334 C1336 1.419 . S
C1334 H1338 0.930 . S
C1335 C1334 1.369 . S
C1335 C1344 1.429 . S
C1336 C1334 1.419 . S
C1336 C1337 1.363 . S
C1336 H1339 0.929 . S
C1337 C1336 1.363 . S
C1337 C1343 1.428 . S
H1338 C1334 0.930 . S
H1339 C1336 0.929 . S
S1340 N1341 1.613 . S
S1340 N1342 1.610 . S
N1341 S1340 1.613 . S
N1341 C1344 1.350 . S
N1342 S1340 1.610 . S
N1342 C1343 1.351 . S
C1343 C1337 1.428 . S
C1343 N1342 1.351 . S
C1343 C1344 1.434 . S
C1344 C1335 1.429 . S
C1344 N1341 1.350 . S
C1344 C1343 1.434 . S
C1345 C1346 1.369 . S
C1345 C1347 1.419 . S
C1345 H1349 0.930 . S
C1346 C1345 1.369 . S
C1346 C1355 1.429 1_545 S
C1347 C1345 1.419 . S
C1347 C1348 1.363 . S
C1347 H1350 0.929 . S
C1348 C1347 1.363 . S
C1348 C1354 1.428 1_545 S
H1349 C1345 0.930 . S
H1350 C1347 0.929 . S
S1351 N1352 1.613 . S
S1351 N1353 1.610 . S
N1352 S1351 1.613 . S
N1352 C1355 1.350 . S
N1353 S1351 1.610 . S
N1353 C1354 1.351 . S
C1354 C1348 1.428 1_565 S
C1354 N1353 1.351 . S
C1354 C1355 1.434 . S
C1355 C1346 1.429 1_565 S
C1355 N1352 1.350 . S
C1355 C1354 1.434 . S
C1356 C1357 1.369 . S
C1356 C1358 1.419 . S
C1356 H1360 0.930 . S
C1357 C1356 1.369 . S
C1357 C1366 1.429 1_565 S
C1358 C1356 1.419 . S
C1358 C1359 1.363 . S
C1358 H1361 0.929 . S
C1359 C1358 1.363 . S
C1359 C1365 1.428 1_565 S
H1360 C1356 0.930 . S
H1361 C1358 0.929 . S
S1362 N1363 1.613 . S
S1362 N1364 1.610 . S
N1363 S1362 1.613 . S
N1363 C1366 1.350 . S
N1364 S1362 1.610 . S
N1364 C1365 1.351 . S
C1365 C1359 1.428 1_545 S
C1365 N1364 1.351 . S
C1365 C1366 1.434 . S
C1366 C1357 1.429 1_545 S
C1366 N1363 1.350 . S
C1366 C1365 1.434 . S
C1367 C1368 1.369 . S
C1367 C1369 1.419 . S
C1367 H1371 0.930 . S
C1368 C1367 1.369 . S
C1368 C1377 1.429 . S
C1369 C1367 1.419 . S
C1369 C1370 1.363 . S
C1369 H1372 0.929 . S
C1370 C1369 1.363 . S
C1370 C1376 1.428 . S
H1371 C1367 0.930 . S
H1372 C1369 0.929 . S
S1373 N1374 1.613 . S
S1373 N1375 1.610 . S
N1374 S1373 1.613 . S
N1374 C1377 1.350 . S
N1375 S1373 1.610 . S
N1375 C1376 1.351 . S
C1376 C1370 1.428 . S
C1376 N1375 1.351 . S
C1376 C1377 1.434 . S
C1377 C1368 1.429 . S
C1377 N1374 1.350 . S
C1377 C1376 1.434 . S
C1378 C1379 1.369 . S
C1378 C1380 1.419 . S
C1378 H1382 0.930 . S
C1379 C1378 1.369 . S
C1379 C1388 1.429 . S
C1380 C1378 1.419 . S
C1380 C1381 1.363 . S
C1380 H1383 0.929 . S
C1381 C1380 1.363 . S
C1381 C1387 1.428 . S
H1382 C1378 0.930 . S
H1383 C1380 0.929 . S
S1384 N1385 1.613 . S
S1384 N1386 1.610 . S
N1385 S1384 1.613 . S
N1385 C1388 1.350 . S
N1386 S1384 1.610 . S
N1386 C1387 1.351 . S
C1387 C1381 1.428 . S
C1387 N1386 1.351 . S
C1387 C1388 1.434 . S
C1388 C1379 1.429 . S
C1388 N1385 1.350 . S
C1388 C1387 1.434 . S
C1389 C1390 1.369 1_545 S
C1389 C1391 1.419 . S
C1389 H1393 0.930 . S
C1390 C1389 1.369 1_565 S
C1390 C1399 1.429 . S
C1391 C1389 1.419 . S
C1391 C1392 1.363 1_545 S
C1391 H1394 0.929 . S
C1392 C1391 1.363 1_565 S
C1392 C1398 1.428 . S
H1393 C1389 0.930 . S
H1394 C1391 0.929 . S
S1395 N1396 1.613 . S
S1395 N1397 1.610 . S
N1396 S1395 1.613 . S
N1396 C1399 1.350 . S
N1397 S1395 1.610 . S
N1397 C1398 1.351 . S
C1398 C1392 1.428 . S
C1398 N1397 1.351 . S
C1398 C1399 1.434 . S
C1399 C1390 1.429 . S
C1399 N1396 1.350 . S
C1399 C1398 1.434 . S
C1400 C1401 1.369 . S
C1400 C1402 1.419 . S
C1400 H1404 0.930 . S
C1401 C1400 1.369 . S
C1401 C1410 1.429 . S
C1402 C1400 1.419 . S
C1402 C1403 1.363 . S
C1402 H1405 0.929 . S
C1403 C1402 1.363 . S
C1403 C1409 1.428 . S
H1404 C1400 0.930 . S
H1405 C1402 0.929 . S
S1406 N1407 1.613 . S
S1406 N1408 1.610 . S
N1407 S1406 1.613 . S
N1407 C1410 1.350 . S
N1408 S1406 1.610 . S
N1408 C1409 1.351 . S
C1409 C1403 1.428 . S
C1409 N1408 1.351 . S
C1409 C1410 1.434 . S
C1410 C1401 1.429 . S
C1410 N1407 1.350 . S
C1410 C1409 1.434 . S
C1411 C1412 1.369 . S
C1411 C1413 1.419 . S
C1411 H1415 0.930 . S
C1412 C1411 1.369 . S
C1412 C1421 1.429 . S
C1413 C1411 1.419 . S
C1413 C1414 1.363 . S
C1413 H1416 0.929 . S
C1414 C1413 1.363 . S
C1414 C1420 1.428 . S
H1415 C1411 0.930 . S
H1416 C1413 0.929 . S
S1417 N1418 1.613 . S
S1417 N1419 1.610 . S
N1418 S1417 1.613 . S
N1418 C1421 1.350 . S
N1419 S1417 1.610 . S
N1419 C1420 1.351 . S
C1420 C1414 1.428 . S
C1420 N1419 1.351 . S
C1420 C1421 1.434 . S
C1421 C1412 1.429 . S
C1421 N1418 1.350 . S
C1421 C1420 1.434 . S
C1422 C1423 1.369 . S
C1422 C1424 1.419 . S
C1422 H1426 0.930 . S
C1423 C1422 1.369 . S
C1423 C1432 1.429 . S
C1424 C1422 1.419 . S
C1424 C1425 1.363 . S
C1424 H1427 0.929 . S
C1425 C1424 1.363 . S
C1425 C1431 1.428 . S
H1426 C1422 0.930 . S
H1427 C1424 0.929 . S
S1428 N1429 1.613 . S
S1428 N1430 1.610 . S
N1429 S1428 1.613 . S
N1429 C1432 1.350 . S
N1430 S1428 1.610 . S
N1430 C1431 1.351 . S
C1431 C1425 1.428 . S
C1431 N1430 1.351 . S
C1431 C1432 1.434 . S
C1432 C1423 1.429 . S
C1432 N1429 1.350 . S
C1432 C1431 1.434 . S
C1433 C1434 1.369 . S
C1433 C1435 1.419 . S
C1433 H1437 0.930 . S
C1434 C1433 1.369 . S
C1434 C1443 1.429 . S
C1435 C1433 1.419 . S
C1435 C1436 1.363 . S
C1435 H1438 0.929 . S
C1436 C1435 1.363 . S
C1436 C1442 1.428 . S
H1437 C1433 0.930 . S
H1438 C1435 0.929 . S
S1439 N1440 1.613 . S
S1439 N1441 1.610 . S
N1440 S1439 1.613 . S
N1440 C1443 1.350 . S
N1441 S1439 1.610 . S
N1441 C1442 1.351 . S
C1442 C1436 1.428 . S
C1442 N1441 1.351 . S
C1442 C1443 1.434 . S
C1443 C1434 1.429 . S
C1443 N1440 1.350 . S
C1443 C1442 1.434 . S
C1444 C1445 1.369 . S
C1444 C1446 1.419 . S
C1444 H1448 0.930 . S
C1445 C1444 1.369 . S
C1445 C1454 1.429 . S
C1446 C1444 1.419 . S
C1446 C1447 1.363 . S
C1446 H1449 0.929 . S
C1447 C1446 1.363 . S
C1447 C1453 1.428 . S
H1448 C1444 0.930 . S
H1449 C1446 0.929 . S
S1450 N1451 1.613 . S
S1450 N1452 1.610 . S
N1451 S1450 1.613 . S
N1451 C1454 1.350 . S
N1452 S1450 1.610 . S
N1452 C1453 1.351 . S
C1453 C1447 1.428 . S
C1453 N1452 1.351 . S
C1453 C1454 1.434 . S
C1454 C1445 1.429 . S
C1454 N1451 1.350 . S
C1454 C1453 1.434 . S
C1455 C1456 1.369 . S
C1455 C1457 1.419 . S
C1455 H1459 0.930 . S
C1456 C1455 1.369 . S
C1456 C1465 1.429 . S
C1457 C1455 1.419 . S
C1457 C1458 1.363 . S
C1457 H1460 0.929 . S
C1458 C1457 1.363 . S
C1458 C1464 1.428 . S
H1459 C1455 0.930 . S
H1460 C1457 0.929 . S
S1461 N1462 1.613 . S
S1461 N1463 1.610 . S
N1462 S1461 1.613 . S
N1462 C1465 1.350 . S
N1463 S1461 1.610 . S
N1463 C1464 1.351 . S
C1464 C1458 1.428 . S
C1464 N1463 1.351 . S
C1464 C1465 1.434 . S
C1465 C1456 1.429 . S
C1465 N1462 1.350 . S
C1465 C1464 1.434 . S
C1466 C1467 1.369 . S
C1466 C1468 1.419 . S
C1466 H1470 0.930 . S
C1467 C1466 1.369 . S
C1467 C1476 1.429 . S
C1468 C1466 1.419 . S
C1468 C1469 1.363 . S
C1468 H1471 0.929 . S
C1469 C1468 1.363 . S
C1469 C1475 1.428 . S
H1470 C1466 0.930 . S
H1471 C1468 0.929 . S
S1472 N1473 1.613 . S
S1472 N1474 1.610 . S
N1473 S1472 1.613 . S
N1473 C1476 1.350 . S
N1474 S1472 1.610 . S
N1474 C1475 1.351 . S
C1475 C1469 1.428 . S
C1475 N1474 1.351 . S
C1475 C1476 1.434 . S
C1476 C1467 1.429 . S
C1476 N1473 1.350 . S
C1476 C1475 1.434 . S
C1477 C1478 1.369 . S
C1477 C1479 1.419 . S
C1477 H1481 0.930 . S
C1478 C1477 1.369 . S
C1478 C1487 1.429 . S
C1479 C1477 1.419 . S
C1479 C1480 1.363 . S
C1479 H1482 0.929 . S
C1480 C1479 1.363 . S
C1480 C1486 1.428 . S
H1481 C1477 0.930 . S
H1482 C1479 0.929 . S
S1483 N1484 1.613 . S
S1483 N1485 1.610 . S
N1484 S1483 1.613 . S
N1484 C1487 1.350 . S
N1485 S1483 1.610 . S
N1485 C1486 1.351 . S
C1486 C1480 1.428 . S
C1486 N1485 1.351 . S
C1486 C1487 1.434 . S
C1487 C1478 1.429 . S
C1487 N1484 1.350 . S
C1487 C1486 1.434 . S
C1488 C1489 1.369 . S
C1488 C1490 1.419 . S
C1488 H1492 0.930 . S
C1489 C1488 1.369 . S
C1489 C1498 1.429 . S
C1490 C1488 1.419 . S
C1490 C1491 1.363 . S
C1490 H1493 0.929 . S
C1491 C1490 1.363 . S
C1491 C1497 1.428 . S
H1492 C1488 0.930 . S
H1493 C1490 0.929 . S
S1494 N1495 1.613 . S
S1494 N1496 1.610 . S
N1495 S1494 1.613 . S
N1495 C1498 1.350 . S
N1496 S1494 1.610 . S
N1496 C1497 1.351 . S
C1497 C1491 1.428 . S
C1497 N1496 1.351 . S
C1497 C1498 1.434 . S
C1498 C1489 1.429 . S
C1498 N1495 1.350 . S
C1498 C1497 1.434 . S
C1499 C1500 1.369 . S
C1499 C1501 1.419 . S
C1499 H1503 0.930 . S
C1500 C1499 1.369 . S
C1500 C1509 1.429 . S
C1501 C1499 1.419 . S
C1501 C1502 1.363 . S
C1501 H1504 0.929 . S
C1502 C1501 1.363 . S
C1502 C1508 1.428 . S
H1503 C1499 0.930 . S
H1504 C1501 0.929 . S
S1505 N1506 1.613 . S
S1505 N1507 1.610 . S
N1506 S1505 1.613 . S
N1506 C1509 1.350 . S
N1507 S1505 1.610 . S
N1507 C1508 1.351 . S
C1508 C1502 1.428 . S
C1508 N1507 1.351 . S
C1508 C1509 1.434 . S
C1509 C1500 1.429 . S
C1509 N1506 1.350 . S
C1509 C1508 1.434 . S
C1510 C1511 1.369 . S
C1510 C1512 1.419 . S
C1510 H1514 0.930 . S
C1511 C1510 1.369 . S
C1511 C1520 1.429 . S
C1512 C1510 1.419 . S
C1512 C1513 1.363 . S
C1512 H1515 0.929 . S
C1513 C1512 1.363 . S
C1513 C1519 1.428 . S
H1514 C1510 0.930 . S
H1515 C1512 0.929 . S
S1516 N1517 1.613 . S
S1516 N1518 1.610 . S
N1517 S1516 1.613 . S
N1517 C1520 1.350 . S
N1518 S1516 1.610 . S
N1518 C1519 1.351 . S
C1519 C1513 1.428 . S
C1519 N1518 1.351 . S
C1519 C1520 1.434 . S
C1520 C1511 1.429 . S
C1520 N1517 1.350 . S
C1520 C1519 1.434 . S
C1521 C1522 1.369 . S
C1521 C1523 1.419 . S
C1521 H1525 0.930 . S
C1522 C1521 1.369 . S
C1522 C1531 1.429 . S
C1523 C1521 1.419 . S
C1523 C1524 1.363 . S
C1523 H1526 0.929 . S
C1524 C1523 1.363 . S
C1524 C1530 1.428 . S
H1525 C1521 0.930 . S
H1526 C1523 0.929 . S
S1527 N1528 1.613 . S
S1527 N1529 1.610 . S
N1528 S1527 1.613 . S
N1528 C1531 1.350 . S
N1529 S1527 1.610 . S
N1529 C1530 1.351 . S
C1530 C1524 1.428 . S
C1530 N1529 1.351 . S
C1530 C1531 1.434 . S
C1531 C1522 1.429 . S
C1531 N1528 1.350 . S
C1531 C1530 1.434 . S
C1532 C1533 1.369 . S
C1532 C1534 1.419 . S
C1532 H1536 0.930 . S
C1533 C1532 1.369 . S
C1533 C1542 1.429 . S
C1534 C1532 1.419 . S
C1534 C1535 1.363 . S
C1534 H1537 0.929 . S
C1535 C1534 1.363 . S
C1535 C1541 1.428 . S
H1536 C1532 0.930 . S
H1537 C1534 0.929 . S
S1538 N1539 1.613 . S
S1538 N1540 1.610 . S
N1539 S1538 1.613 . S
N1539 C1542 1.350 . S
N1540 S1538 1.610 . S
N1540 C1541 1.351 . S
C1541 C1535 1.428 . S
C1541 N1540 1.351 . S
C1541 C1542 1.434 . S
C1542 C1533 1.429 . S
C1542 N1539 1.350 . S
C1542 C1541 1.434 . S
C1543 C1544 1.369 . S
C1543 C1545 1.419 . S
C1543 H1547 0.930 . S
C1544 C1543 1.369 . S
C1544 C1553 1.429 . S
C1545 C1543 1.419 . S
C1545 C1546 1.363 . S
C1545 H1548 0.929 . S
C1546 C1545 1.363 . S
C1546 C1552 1.428 . S
H1547 C1543 0.930 . S
H1548 C1545 0.929 . S
S1549 N1550 1.613 . S
S1549 N1551 1.610 . S
N1550 S1549 1.613 . S
N1550 C1553 1.350 . S
N1551 S1549 1.610 . S
N1551 C1552 1.351 . S
C1552 C1546 1.428 . S
C1552 N1551 1.351 . S
C1552 C1553 1.434 . S
C1553 C1544 1.429 . S
C1553 N1550 1.350 . S
C1553 C1552 1.434 . S
C1554 C1555 1.369 . S
C1554 C1556 1.419 . S
C1554 H1558 0.930 . S
C1555 C1554 1.369 . S
C1555 C1564 1.429 . S
C1556 C1554 1.419 . S
C1556 C1557 1.363 . S
C1556 H1559 0.929 . S
C1557 C1556 1.363 . S
C1557 C1563 1.428 . S
H1558 C1554 0.930 . S
H1559 C1556 0.929 . S
S1560 N1561 1.613 . S
S1560 N1562 1.610 . S
N1561 S1560 1.613 . S
N1561 C1564 1.350 . S
N1562 S1560 1.610 . S
N1562 C1563 1.351 . S
C1563 C1557 1.428 . S
C1563 N1562 1.351 . S
C1563 C1564 1.434 . S
C1564 C1555 1.429 . S
C1564 N1561 1.350 . S
C1564 C1563 1.434 . S
C1565 C1566 1.369 . S
C1565 C1567 1.419 . S
C1565 H1569 0.930 . S
C1566 C1565 1.369 . S
C1566 C1575 1.429 . S
C1567 C1565 1.419 . S
C1567 C1568 1.363 . S
C1567 H1570 0.929 . S
C1568 C1567 1.363 . S
C1568 C1574 1.428 . S
H1569 C1565 0.930 . S
H1570 C1567 0.929 . S
S1571 N1572 1.613 . S
S1571 N1573 1.610 . S
N1572 S1571 1.613 . S
N1572 C1575 1.350 . S
N1573 S1571 1.610 . S
N1573 C1574 1.351 . S
C1574 C1568 1.428 . S
C1574 N1573 1.351 . S
C1574 C1575 1.434 . S
C1575 C1566 1.429 . S
C1575 N1572 1.350 . S
C1575 C1574 1.434 . S
C1576 C1577 1.369 . S
C1576 C1578 1.419 . S
C1576 H1580 0.930 . S
C1577 C1576 1.369 . S
C1577 C1586 1.429 . S
C1578 C1576 1.419 . S
C1578 C1579 1.363 . S
C1578 H1581 0.929 . S
C1579 C1578 1.363 . S
C1579 C1585 1.428 . S
H1580 C1576 0.930 . S
H1581 C1578 0.929 . S
S1582 N1583 1.613 . S
S1582 N1584 1.610 . S
N1583 S1582 1.613 . S
N1583 C1586 1.350 . S
N1584 S1582 1.610 . S
N1584 C1585 1.351 . S
C1585 C1579 1.428 . S
C1585 N1584 1.351 . S
C1585 C1586 1.434 . S
C1586 C1577 1.429 . S
C1586 N1583 1.350 . S
C1586 C1585 1.434 . S
C1587 C1588 1.369 . S
C1587 C1589 1.419 . S
C1587 H1591 0.930 . S
C1588 C1587 1.369 . S
C1588 C1597 1.429 . S
C1589 C1587 1.419 . S
C1589 C1590 1.363 . S
C1589 H1592 0.929 . S
C1590 C1589 1.363 . S
C1590 C1596 1.428 . S
H1591 C1587 0.930 . S
H1592 C1589 0.929 . S
S1593 N1594 1.613 . S
S1593 N1595 1.610 . S
N1594 S1593 1.613 . S
N1594 C1597 1.350 . S
N1595 S1593 1.610 . S
N1595 C1596 1.351 . S
C1596 C1590 1.428 . S
C1596 N1595 1.351 . S
C1596 C1597 1.434 . S
C1597 C1588 1.429 . S
C1597 N1594 1.350 . S
C1597 C1596 1.434 . S
C1598 C1599 1.369 . S
C1598 C1600 1.419 . S
C1598 H1602 0.930 . S
C1599 C1598 1.369 . S
C1599 C1608 1.429 . S
C1600 C1598 1.419 . S
C1600 C1601 1.363 . S
C1600 H1603 0.929 . S
C1601 C1600 1.363 . S
C1601 C1607 1.428 . S
H1602 C1598 0.930 . S
H1603 C1600 0.929 . S
S1604 N1605 1.613 . S
S1604 N1606 1.610 . S
N1605 S1604 1.613 . S
N1605 C1608 1.350 . S
N1606 S1604 1.610 . S
N1606 C1607 1.351 . S
C1607 C1601 1.428 . S
C1607 N1606 1.351 . S
C1607 C1608 1.434 . S
C1608 C1599 1.429 . S
C1608 N1605 1.350 . S
C1608 C1607 1.434 . S
C1609 C1610 1.369 . S
C1609 C1611 1.419 . S
C1609 H1613 0.930 . S
C1610 C1609 1.369 . S
C1610 C1619 1.429 . S
C1611 C1609 1.419 . S
C1611 C1612 1.363 . S
C1611 H1614 0.929 . S
C1612 C1611 1.363 . S
C1612 C1618 1.428 . S
H1613 C1609 0.930 . S
H1614 C1611 0.929 . S
S1615 N1616 1.613 . S
S1615 N1617 1.610 . S
N1616 S1615 1.613 . S
N1616 C1619 1.350 . S
N1617 S1615 1.610 . S
N1617 C1618 1.351 . S
C1618 C1612 1.428 . S
C1618 N1617 1.351 . S
C1618 C1619 1.434 . S
C1619 C1610 1.429 . S
C1619 N1616 1.350 . S
C1619 C1618 1.434 . S
C1620 C1621 1.369 . S
C1620 C1622 1.419 . S
C1620 H1624 0.930 . S
C1621 C1620 1.369 . S
C1621 C1630 1.429 . S
C1622 C1620 1.419 . S
C1622 C1623 1.363 . S
C1622 H1625 0.929 . S
C1623 C1622 1.363 . S
C1623 C1629 1.428 . S
H1624 C1620 0.930 . S
H1625 C1622 0.929 . S
S1626 N1627 1.613 . S
S1626 N1628 1.610 . S
N1627 S1626 1.613 . S
N1627 C1630 1.350 . S
N1628 S1626 1.610 . S
N1628 C1629 1.351 . S
C1629 C1623 1.428 . S
C1629 N1628 1.351 . S
C1629 C1630 1.434 . S
C1630 C1621 1.429 . S
C1630 N1627 1.350 . S
C1630 C1629 1.434 . S
C1631 C1632 1.369 . S
C1631 C1633 1.419 . S
C1631 H1635 0.930 . S
C1632 C1631 1.369 . S
C1632 C1641 1.429 . S
C1633 C1631 1.419 . S
C1633 C1634 1.363 . S
C1633 H1636 0.929 . S
C1634 C1633 1.363 . S
C1634 C1640 1.428 . S
H1635 C1631 0.930 . S
H1636 C1633 0.929 . S
S1637 N1638 1.613 . S
S1637 N1639 1.610 . S
N1638 S1637 1.613 . S
N1638 C1641 1.350 . S
N1639 S1637 1.610 . S
N1639 C1640 1.351 . S
C1640 C1634 1.428 . S
C1640 N1639 1.351 . S
C1640 C1641 1.434 . S
C1641 C1632 1.429 . S
C1641 N1638 1.350 . S
C1641 C1640 1.434 . S
C1642 C1643 1.369 . S
C1642 C1644 1.419 . S
C1642 H1646 0.930 . S
C1643 C1642 1.369 . S
C1643 C1652 1.429 . S
C1644 C1642 1.419 . S
C1644 C1645 1.363 . S
C1644 H1647 0.929 . S
C1645 C1644 1.363 . S
C1645 C1651 1.428 . S
H1646 C1642 0.930 . S
H1647 C1644 0.929 . S
S1648 N1649 1.613 . S
S1648 N1650 1.610 . S
N1649 S1648 1.613 . S
N1649 C1652 1.350 . S
N1650 S1648 1.610 . S
N1650 C1651 1.351 . S
C1651 C1645 1.428 . S
C1651 N1650 1.351 . S
C1651 C1652 1.434 . S
C1652 C1643 1.429 . S
C1652 N1649 1.350 . S
C1652 C1651 1.434 . S
C1653 C1654 1.369 . S
C1653 C1655 1.419 . S
C1653 H1657 0.930 . S
C1654 C1653 1.369 . S
C1654 C1663 1.429 . S
C1655 C1653 1.419 . S
C1655 C1656 1.363 . S
C1655 H1658 0.929 . S
C1656 C1655 1.363 . S
C1656 C1662 1.428 . S
H1657 C1653 0.930 . S
H1658 C1655 0.929 . S
S1659 N1660 1.613 . S
S1659 N1661 1.610 . S
N1660 S1659 1.613 . S
N1660 C1663 1.350 . S
N1661 S1659 1.610 . S
N1661 C1662 1.351 . S
C1662 C1656 1.428 . S
C1662 N1661 1.351 . S
C1662 C1663 1.434 . S
C1663 C1654 1.429 . S
C1663 N1660 1.350 . S
C1663 C1662 1.434 . S
C1664 C1665 1.369 . S
C1664 C1666 1.419 . S
C1664 H1668 0.930 . S
C1665 C1664 1.369 . S
C1665 C1674 1.429 1_565 S
C1666 C1664 1.419 . S
C1666 C1667 1.363 . S
C1666 H1669 0.929 . S
C1667 C1666 1.363 . S
C1667 C1673 1.428 1_565 S
H1668 C1664 0.930 . S
H1669 C1666 0.929 . S
S1670 N1671 1.613 . S
S1670 N1672 1.610 . S
N1671 S1670 1.613 . S
N1671 C1674 1.350 . S
N1672 S1670 1.610 . S
N1672 C1673 1.351 . S
C1673 C1667 1.428 1_545 S
C1673 N1672 1.351 . S
C1673 C1674 1.434 . S
C1674 C1665 1.429 1_545 S
C1674 N1671 1.350 . S
C1674 C1673 1.434 . S
C1675 C1676 1.369 . S
C1675 C1677 1.419 . S
C1675 H1679 0.930 . S
C1676 C1675 1.369 . S
C1676 C1685 1.429 . S
C1677 C1675 1.419 . S
C1677 C1678 1.363 . S
C1677 H1680 0.929 1_556 S
C1678 C1677 1.363 . S
C1678 C1684 1.428 . S
H1679 C1675 0.930 . S
H1680 C1677 0.929 1_554 S
S1681 N1682 1.613 . S
S1681 N1683 1.610 . S
N1682 S1681 1.613 . S
N1682 C1685 1.350 . S
N1683 S1681 1.610 . S
N1683 C1684 1.351 . S
C1684 C1678 1.428 . S
C1684 N1683 1.351 . S
C1684 C1685 1.434 . S
C1685 C1676 1.429 . S
C1685 N1682 1.350 . S
C1685 C1684 1.434 . S
C1686 C1687 1.369 . S
C1686 C1688 1.419 . S
C1686 H1690 0.930 . S
C1687 C1686 1.369 . S
C1687 C1696 1.429 . S
C1688 C1686 1.419 . S
C1688 C1689 1.363 . S
C1688 H1691 0.929 . S
C1689 C1688 1.363 . S
C1689 C1695 1.428 . S
H1690 C1686 0.930 . S
H1691 C1688 0.929 . S
S1692 N1693 1.613 . S
S1692 N1694 1.610 . S
N1693 S1692 1.613 . S
N1693 C1696 1.350 . S
N1694 S1692 1.610 . S
N1694 C1695 1.351 . S
C1695 C1689 1.428 . S
C1695 N1694 1.351 . S
C1695 C1696 1.434 . S
C1696 C1687 1.429 . S
C1696 N1693 1.350 . S
C1696 C1695 1.434 . S
C1697 C1698 1.369 . S
C1697 C1699 1.419 . S
C1697 H1701 0.930 . S
C1698 C1697 1.369 . S
C1698 C1707 1.429 . S
C1699 C1697 1.419 . S
C1699 C1700 1.363 . S
C1699 H1702 0.929 . S
C1700 C1699 1.363 . S
C1700 C1706 1.428 . S
H1701 C1697 0.930 . S
H1702 C1699 0.929 . S
S1703 N1704 1.613 . S
S1703 N1705 1.610 . S
N1704 S1703 1.613 . S
N1704 C1707 1.350 . S
N1705 S1703 1.610 . S
N1705 C1706 1.351 . S
C1706 C1700 1.428 . S
C1706 N1705 1.351 . S
C1706 C1707 1.434 . S
C1707 C1698 1.429 . S
C1707 N1704 1.350 . S
C1707 C1706 1.434 . S
C1708 C1709 1.369 1_565 S
C1708 C1710 1.419 . S
C1708 H1712 0.930 . S
C1709 C1708 1.369 1_545 S
C1709 C1718 1.429 . S
C1710 C1708 1.419 . S
C1710 C1711 1.363 1_565 S
C1710 H1713 0.929 1_554 S
C1711 C1710 1.363 1_545 S
C1711 C1717 1.428 . S
H1712 C1708 0.930 . S
H1713 C1710 0.929 1_556 S
S1714 N1715 1.613 . S
S1714 N1716 1.610 . S
N1715 S1714 1.613 . S
N1715 C1718 1.350 . S
N1716 S1714 1.610 . S
N1716 C1717 1.351 . S
C1717 C1711 1.428 . S
C1717 N1716 1.351 . S
C1717 C1718 1.434 . S
C1718 C1709 1.429 . S
C1718 N1715 1.350 . S
C1718 C1717 1.434 . S
C1719 C1720 1.369 . S
C1719 C1721 1.419 . S
C1719 H1723 0.930 . S
C1720 C1719 1.369 . S
C1720 C1729 1.429 . S
C1721 C1719 1.419 . S
C1721 C1722 1.363 . S
C1721 H1724 0.929 . S
C1722 C1721 1.363 . S
C1722 C1728 1.428 . S
H1723 C1719 0.930 . S
H1724 C1721 0.929 . S
S1725 N1726 1.613 . S
S1725 N1727 1.610 . S
N1726 S1725 1.613 . S
N1726 C1729 1.350 1_556 S
N1727 S1725 1.610 . S
N1727 C1728 1.351 1_556 S
C1728 C1722 1.428 . S
C1728 N1727 1.351 1_554 S
C1728 C1729 1.434 . S
C1729 C1720 1.429 . S
C1729 N1726 1.350 1_554 S
C1729 C1728 1.434 . S
C1730 C1731 1.369 . S
C1730 C1732 1.419 . S
C1730 H1734 0.930 . S
C1731 C1730 1.369 . S
C1731 C1740 1.429 . S
C1732 C1730 1.419 . S
C1732 C1733 1.363 . S
C1732 H1735 0.929 . S
C1733 C1732 1.363 . S
C1733 C1739 1.428 . S
H1734 C1730 0.930 . S
H1735 C1732 0.929 . S
S1736 N1737 1.613 . S
S1736 N1738 1.610 . S
N1737 S1736 1.613 . S
N1737 C1740 1.350 . S
N1738 S1736 1.610 . S
N1738 C1739 1.351 . S
C1739 C1733 1.428 . S
C1739 N1738 1.351 . S
C1739 C1740 1.434 . S
C1740 C1731 1.429 . S
C1740 N1737 1.350 . S
C1740 C1739 1.434 . S
C1741 C1742 1.369 . S
C1741 C1743 1.419 . S
C1741 H1745 0.930 . S
C1742 C1741 1.369 . S
C1742 C1751 1.429 1_545 S
C1743 C1741 1.419 . S
C1743 C1744 1.363 . S
C1743 H1746 0.929 . S
C1744 C1743 1.363 . S
C1744 C1750 1.428 1_545 S
H1745 C1741 0.930 . S
H1746 C1743 0.929 . S
S1747 N1748 1.613 . S
S1747 N1749 1.610 . S
N1748 S1747 1.613 . S
N1748 C1751 1.350 . S
N1749 S1747 1.610 . S
N1749 C1750 1.351 . S
C1750 C1744 1.428 1_565 S
C1750 N1749 1.351 . S
C1750 C1751 1.434 . S
C1751 C1742 1.429 1_565 S
C1751 N1748 1.350 . S
C1751 C1750 1.434 . S
C1752 C1753 1.369 . S
C1752 C1754 1.419 . S
C1752 H1756 0.930 . S
C1753 C1752 1.369 . S
C1753 C1762 1.429 . S
C1754 C1752 1.419 . S
C1754 C1755 1.363 . S
C1754 H1757 0.929 . S
C1755 C1754 1.363 . S
C1755 C1761 1.428 . S
H1756 C1752 0.930 . S
H1757 C1754 0.929 . S
S1758 N1759 1.613 . S
S1758 N1760 1.610 . S
N1759 S1758 1.613 . S
N1759 C1762 1.350 . S
N1760 S1758 1.610 . S
N1760 C1761 1.351 . S
C1761 C1755 1.428 . S
C1761 N1760 1.351 . S
C1761 C1762 1.434 . S
C1762 C1753 1.429 . S
C1762 N1759 1.350 . S
C1762 C1761 1.434 . S
C1763 C1764 1.369 . S
C1763 C1765 1.419 . S
C1763 H1767 0.930 . S
C1764 C1763 1.369 . S
C1764 C1773 1.429 . S
C1765 C1763 1.419 . S
C1765 C1766 1.363 . S
C1765 H1768 0.929 . S
C1766 C1765 1.363 . S
C1766 C1772 1.428 . S
H1767 C1763 0.930 . S
H1768 C1765 0.929 . S
S1769 N1770 1.613 . S
S1769 N1771 1.610 . S
N1770 S1769 1.613 . S
N1770 C1773 1.350 . S
N1771 S1769 1.610 . S
N1771 C1772 1.351 . S
C1772 C1766 1.428 . S
C1772 N1771 1.351 . S
C1772 C1773 1.434 . S
C1773 C1764 1.429 . S
C1773 N1770 1.350 . S
C1773 C1772 1.434 . S
C1774 C1775 1.369 . S
C1774 C1776 1.419 . S
C1774 H1778 0.930 . S
C1775 C1774 1.369 . S
C1775 C1784 1.429 . S
C1776 C1774 1.419 . S
C1776 C1777 1.363 . S
C1776 H1779 0.929 . S
C1777 C1776 1.363 . S
C1777 C1783 1.428 . S
H1778 C1774 0.930 . S
H1779 C1776 0.929 . S
S1780 N1781 1.613 . S
S1780 N1782 1.610 . S
N1781 S1780 1.613 . S
N1781 C1784 1.350 . S
N1782 S1780 1.610 . S
N1782 C1783 1.351 . S
C1783 C1777 1.428 . S
C1783 N1782 1.351 . S
C1783 C1784 1.434 . S
C1784 C1775 1.429 . S
C1784 N1781 1.350 . S
C1784 C1783 1.434 . S
C1785 C1786 1.369 . S
C1785 C1787 1.419 . S
C1785 H1789 0.930 . S
C1786 C1785 1.369 . S
C1786 C1795 1.429 . S
C1787 C1785 1.419 . S
C1787 C1788 1.363 . S
C1787 H1790 0.929 . S
C1788 C1787 1.363 . S
C1788 C1794 1.428 . S
H1789 C1785 0.930 . S
H1790 C1787 0.929 . S
S1791 N1792 1.613 . S
S1791 N1793 1.610 . S
N1792 S1791 1.613 . S
N1792 C1795 1.350 . S
N1793 S1791 1.610 . S
N1793 C1794 1.351 . S
C1794 C1788 1.428 . S
C1794 N1793 1.351 . S
C1794 C1795 1.434 . S
C1795 C1786 1.429 . S
C1795 N1792 1.350 . S
C1795 C1794 1.434 . S
C1796 C1797 1.369 . S
C1796 C1798 1.419 . S
C1796 H1800 0.930 . S
C1797 C1796 1.369 . S
C1797 C1806 1.429 . S
C1798 C1796 1.419 . S
C1798 C1799 1.363 . S
C1798 H1801 0.929 . S
C1799 C1798 1.363 . S
C1799 C1805 1.428 . S
H1800 C1796 0.930 . S
H1801 C1798 0.929 . S
S1802 N1803 1.613 . S
S1802 N1804 1.610 . S
N1803 S1802 1.613 . S
N1803 C1806 1.350 . S
N1804 S1802 1.610 . S
N1804 C1805 1.351 . S
C1805 C1799 1.428 . S
C1805 N1804 1.351 . S
C1805 C1806 1.434 . S
C1806 C1797 1.429 . S
C1806 N1803 1.350 . S
C1806 C1805 1.434 . S
C1807 C1808 1.369 . S
C1807 C1809 1.419 . S
C1807 H1811 0.930 . S
C1808 C1807 1.369 . S
C1808 C1817 1.429 . S
C1809 C1807 1.419 . S
C1809 C1810 1.363 . S
C1809 H1812 0.929 . S
C1810 C1809 1.363 . S
C1810 C1816 1.428 . S
H1811 C1807 0.930 . S
H1812 C1809 0.929 . S
S1813 N1814 1.613 . S
S1813 N1815 1.610 . S
N1814 S1813 1.613 . S
N1814 C1817 1.350 . S
N1815 S1813 1.610 . S
N1815 C1816 1.351 . S
C1816 C1810 1.428 . S
C1816 N1815 1.351 . S
C1816 C1817 1.434 . S
C1817 C1808 1.429 . S
C1817 N1814 1.350 . S
C1817 C1816 1.434 . S
C1818 C1819 1.369 . S
C1818 C1820 1.419 . S
C1818 H1822 0.930 . S
C1819 C1818 1.369 . S
C1819 C1828 1.429 . S
C1820 C1818 1.419 . S
C1820 C1821 1.363 . S
C1820 H1823 0.929 . S
C1821 C1820 1.363 . S
C1821 C1827 1.428 . S
H1822 C1818 0.930 . S
H1823 C1820 0.929 . S
S1824 N1825 1.613 . S
S1824 N1826 1.610 . S
N1825 S1824 1.613 . S
N1825 C1828 1.350 . S
N1826 S1824 1.610 . S
N1826 C1827 1.351 . S
C1827 C1821 1.428 . S
C1827 N1826 1.351 . S
C1827 C1828 1.434 . S
C1828 C1819 1.429 . S
C1828 N1825 1.350 . S
C1828 C1827 1.434 . S
C1829 C1830 1.369 . S
C1829 C1831 1.419 . S
C1829 H1833 0.930 . S
C1830 C1829 1.369 . S
C1830 C1839 1.429 . S
C1831 C1829 1.419 . S
C1831 C1832 1.363 . S
C1831 H1834 0.929 . S
C1832 C1831 1.363 . S
C1832 C1838 1.428 . S
H1833 C1829 0.930 . S
H1834 C1831 0.929 . S
S1835 N1836 1.613 . S
S1835 N1837 1.610 . S
N1836 S1835 1.613 . S
N1836 C1839 1.350 . S
N1837 S1835 1.610 . S
N1837 C1838 1.351 . S
C1838 C1832 1.428 . S
C1838 N1837 1.351 . S
C1838 C1839 1.434 . S
C1839 C1830 1.429 . S
C1839 N1836 1.350 . S
C1839 C1838 1.434 . S
C1840 C1841 1.369 . S
C1840 C1842 1.419 . S
C1840 H1844 0.930 . S
C1841 C1840 1.369 . S
C1841 C1850 1.429 . S
C1842 C1840 1.419 . S
C1842 C1843 1.363 . S
C1842 H1845 0.929 . S
C1843 C1842 1.363 . S
C1843 C1849 1.428 . S
H1844 C1840 0.930 . S
H1845 C1842 0.929 . S
S1846 N1847 1.613 . S
S1846 N1848 1.610 . S
N1847 S1846 1.613 . S
N1847 C1850 1.350 1_545 S
N1848 S1846 1.610 . S
N1848 C1849 1.351 1_545 S
C1849 C1843 1.428 . S
C1849 N1848 1.351 1_565 S
C1849 C1850 1.434 . S
C1850 C1841 1.429 . S
C1850 N1847 1.350 1_565 S
C1850 C1849 1.434 . S
C1851 C1852 1.369 . S
C1851 C1853 1.419 . S
C1851 H1855 0.930 . S
C1852 C1851 1.369 . S
C1852 C1861 1.429 . S
C1853 C1851 1.419 . S
C1853 C1854 1.363 . S
C1853 H1856 0.929 . S
C1854 C1853 1.363 . S
C1854 C1860 1.428 . S
H1855 C1851 0.930 . S
H1856 C1853 0.929 . S
S1857 N1858 1.613 . S
S1857 N1859 1.610 . S
N1858 S1857 1.613 . S
N1858 C1861 1.350 . S
N1859 S1857 1.610 . S
N1859 C1860 1.351 . S
C1860 C1854 1.428 . S
C1860 N1859 1.351 . S
C1860 C1861 1.434 . S
C1861 C1852 1.429 . S
C1861 N1858 1.350 . S
C1861 C1860 1.434 . S
C1862 C1863 1.369 . S
C1862 C1864 1.419 . S
C1862 H1866 0.930 . S
C1863 C1862 1.369 . S
C1863 C1872 1.429 . S
C1864 C1862 1.419 . S
C1864 C1865 1.363 . S
C1864 H1867 0.929 . S
C1865 C1864 1.363 . S
C1865 C1871 1.428 . S
H1866 C1862 0.930 . S
H1867 C1864 0.929 . S
S1868 N1869 1.613 . S
S1868 N1870 1.610 . S
N1869 S1868 1.613 . S
N1869 C1872 1.350 . S
N1870 S1868 1.610 . S
N1870 C1871 1.351 . S
C1871 C1865 1.428 . S
C1871 N1870 1.351 . S
C1871 C1872 1.434 . S
C1872 C1863 1.429 . S
C1872 N1869 1.350 . S
C1872 C1871 1.434 . S
C1873 C1874 1.369 . S
C1873 C1875 1.419 . S
C1873 H1877 0.930 . S
C1874 C1873 1.369 . S
C1874 C1883 1.429 1_565 S
C1875 C1873 1.419 . S
C1875 C1876 1.363 . S
C1875 H1878 0.929 . S
C1876 C1875 1.363 . S
C1876 C1882 1.428 1_565 S
H1877 C1873 0.930 . S
H1878 C1875 0.929 . S
S1879 N1880 1.613 . S
S1879 N1881 1.610 . S
N1880 S1879 1.613 . S
N1880 C1883 1.350 . S
N1881 S1879 1.610 . S
N1881 C1882 1.351 . S
C1882 C1876 1.428 1_545 S
C1882 N1881 1.351 . S
C1882 C1883 1.434 . S
C1883 C1874 1.429 1_545 S
C1883 N1880 1.350 . S
C1883 C1882 1.434 . S
C1884 C1885 1.369 . S
C1884 C1886 1.419 . S
C1884 H1888 0.930 . S
C1885 C1884 1.369 . S
C1885 C1894 1.429 . S
C1886 C1884 1.419 . S
C1886 C1887 1.363 . S
C1886 H1889 0.929 . S
C1887 C1886 1.363 . S
C1887 C1893 1.428 . S
H1888 C1884 0.930 . S
H1889 C1886 0.929 . S
S1890 N1891 1.613 . S
S1890 N1892 1.610 . S
N1891 S1890 1.613 . S
N1891 C1894 1.350 . S
N1892 S1890 1.610 . S
N1892 C1893 1.351 . S
C1893 C1887 1.428 . S
C1893 N1892 1.351 . S
C1893 C1894 1.434 . S
C1894 C1885 1.429 . S
C1894 N1891 1.350 . S
C1894 C1893 1.434 . S
C1895 C1896 1.369 . S
C1895 C1897 1.419 . S
C1895 H1899 0.930 . S
C1896 C1895 1.369 . S
C1896 C1905 1.429 . S
C1897 C1895 1.419 . S
C1897 C1898 1.363 . S
C1897 H1900 0.929 . S
C1898 C1897 1.363 . S
C1898 C1904 1.428 . S
H1899 C1895 0.930 . S
H1900 C1897 0.929 . S
S1901 N1902 1.613 . S
S1901 N1903 1.610 . S
N1902 S1901 1.613 . S
N1902 C1905 1.350 . S
N1903 S1901 1.610 . S
N1903 C1904 1.351 . S
C1904 C1898 1.428 . S
C1904 N1903 1.351 . S
C1904 C1905 1.434 . S
C1905 C1896 1.429 . S
C1905 N1902 1.350 . S
C1905 C1904 1.434 . S
C1906 C1907 1.369 . S
C1906 C1908 1.419 . S
C1906 H1910 0.930 . S
C1907 C1906 1.369 . S
C1907 C1916 1.429 . S
C1908 C1906 1.419 . S
C1908 C1909 1.363 . S
C1908 H1911 0.929 . S
C1909 C1908 1.363 . S
C1909 C1915 1.428 . S
H1910 C1906 0.930 . S
H1911 C1908 0.929 . S
S1912 N1913 1.613 . S
S1912 N1914 1.610 . S
N1913 S1912 1.613 . S
N1913 C1916 1.350 . S
N1914 S1912 1.610 . S
N1914 C1915 1.351 . S
C1915 C1909 1.428 . S
C1915 N1914 1.351 . S
C1915 C1916 1.434 . S
C1916 C1907 1.429 . S
C1916 N1913 1.350 . S
C1916 C1915 1.434 . S
C1917 C1918 1.369 . S
C1917 C1919 1.419 . S
C1917 H1921 0.930 . S
C1918 C1917 1.369 . S
C1918 C1927 1.429 1_545 S
C1919 C1917 1.419 . S
C1919 C1920 1.363 . S
C1919 H1922 0.929 . S
C1920 C1919 1.363 . S
C1920 C1926 1.428 1_545 S
H1921 C1917 0.930 . S
H1922 C1919 0.929 . S
S1923 N1924 1.613 . S
S1923 N1925 1.610 . S
N1924 S1923 1.613 . S
N1924 C1927 1.350 . S
N1925 S1923 1.610 . S
N1925 C1926 1.351 . S
C1926 C1920 1.428 1_565 S
C1926 N1925 1.351 . S
C1926 C1927 1.434 . S
C1927 C1918 1.429 1_565 S
C1927 N1924 1.350 . S
C1927 C1926 1.434 . S
C1928 C1929 1.369 . S
C1928 C1930 1.419 . S
C1928 H1932 0.930 1_556 S
C1929 C1928 1.369 . S
C1929 C1938 1.429 . S
C1930 C1928 1.419 . S
C1930 C1931 1.363 . S
C1930 H1933 0.929 1_556 S
C1931 C1930 1.363 . S
C1931 C1937 1.428 . S
H1932 C1928 0.930 1_554 S
H1933 C1930 0.929 1_554 S
S1934 N1935 1.613 . S
S1934 N1936 1.610 . S
N1935 S1934 1.613 . S
N1935 C1938 1.350 . S
N1936 S1934 1.610 . S
N1936 C1937 1.351 . S
C1937 C1931 1.428 . S
C1937 N1936 1.351 . S
C1937 C1938 1.434 . S
C1938 C1929 1.429 . S
C1938 N1935 1.350 . S
C1938 C1937 1.434 . S
C1939 C1940 1.369 . S
C1939 C1941 1.419 . S
C1939 H1943 0.930 . S
C1940 C1939 1.369 . S
C1940 C1949 1.429 . S
C1941 C1939 1.419 . S
C1941 C1942 1.363 . S
C1941 H1944 0.929 . S
C1942 C1941 1.363 . S
C1942 C1948 1.428 . S
H1943 C1939 0.930 . S
H1944 C1941 0.929 . S
S1945 N1946 1.613 . S
S1945 N1947 1.610 . S
N1946 S1945 1.613 . S
N1946 C1949 1.350 1_554 S
N1947 S1945 1.610 . S
N1947 C1948 1.351 1_554 S
C1948 C1942 1.428 . S
C1948 N1947 1.351 1_556 S
C1948 C1949 1.434 . S
C1949 C1940 1.429 . S
C1949 N1946 1.350 1_556 S
C1949 C1948 1.434 . S
C1950 C1951 1.369 . S
C1950 C1952 1.419 . S
C1950 H1954 0.930 . S
C1951 C1950 1.369 . S
C1951 C1960 1.429 . S
C1952 C1950 1.419 . S
C1952 C1953 1.363 . S
C1952 H1955 0.929 . S
C1953 C1952 1.363 . S
C1953 C1959 1.428 . S
H1954 C1950 0.930 . S
H1955 C1952 0.929 . S
S1956 N1957 1.613 . S
S1956 N1958 1.610 . S
N1957 S1956 1.613 . S
N1957 C1960 1.350 . S
N1958 S1956 1.610 . S
N1958 C1959 1.351 . S
C1959 C1953 1.428 . S
C1959 N1958 1.351 . S
C1959 C1960 1.434 . S
C1960 C1951 1.429 . S
C1960 N1957 1.350 . S
C1960 C1959 1.434 . S
C1961 C1962 1.369 . S
C1961 C1963 1.419 . S
C1961 H1965 0.930 . S
C1962 C1961 1.369 . S
C1962 C1971 1.429 . S
C1963 C1961 1.419 . S
C1963 C1964 1.363 . S
C1963 H1966 0.929 . S
C1964 C1963 1.363 . S
C1964 C1970 1.428 . S
H1965 C1961 0.930 . S
H1966 C1963 0.929 . S
S1967 N1968 1.613 . S
S1967 N1969 1.610 . S
N1968 S1967 1.613 . S
N1968 C1971 1.350 . S
N1969 S1967 1.610 . S
N1969 C1970 1.351 . S
C1970 C1964 1.428 . S
C1970 N1969 1.351 . S
C1970 C1971 1.434 . S
C1971 C1962 1.429 . S
C1971 N1968 1.350 . S
C1971 C1970 1.434 . S
C1972 C1973 1.369 . S
C1972 C1974 1.419 . S
C1972 H1976 0.930 . S
C1973 C1972 1.369 . S
C1973 C1982 1.429 . S
C1974 C1972 1.419 . S
C1974 C1975 1.363 . S
C1974 H1977 0.929 . S
C1975 C1974 1.363 . S
C1975 C1981 1.428 . S
H1976 C1972 0.930 . S
H1977 C1974 0.929 . S
S1978 N1979 1.613 1_556 S
S1978 N1980 1.610 1_556 S
N1979 S1978 1.613 1_554 S
N1979 C1982 1.350 . S
N1980 S1978 1.610 1_554 S
N1980 C1981 1.351 . S
C1981 C1975 1.428 . S
C1981 N1980 1.351 . S
C1981 C1982 1.434 . S
C1982 C1973 1.429 . S
C1982 N1979 1.350 . S
C1982 C1981 1.434 . S
C1983 C1984 1.369 . S
C1983 C1985 1.419 . S
C1983 H1987 0.930 . S
C1984 C1983 1.369 . S
C1984 C1993 1.429 . S
C1985 C1983 1.419 . S
C1985 C1986 1.363 . S
C1985 H1988 0.929 . S
C1986 C1985 1.363 . S
C1986 C1992 1.428 . S
H1987 C1983 0.930 . S
H1988 C1985 0.929 . S
S1989 N1990 1.613 . S
S1989 N1991 1.610 . S
N1990 S1989 1.613 . S
N1990 C1993 1.350 . S
N1991 S1989 1.610 . S
N1991 C1992 1.351 . S
C1992 C1986 1.428 . S
C1992 N1991 1.351 . S
C1992 C1993 1.434 . S
C1993 C1984 1.429 . S
C1993 N1990 1.350 . S
C1993 C1992 1.434 . S
C1994 C1995 1.369 . S
C1994 C1996 1.419 . S
C1994 H1998 0.930 . S
C1995 C1994 1.369 . S
C1995 C2004 1.429 . S
C1996 C1994 1.419 . S
C1996 C1997 1.363 . S
C1996 H1999 0.929 . S
C1997 C1996 1.363 . S
C1997 C2003 1.428 . S
H1998 C1994 0.930 . S
H1999 C1996 0.929 . S
S2000 N2001 1.613 . S
S2000 N2002 1.610 . S
N2001 S2000 1.613 . S
N2001 C2004 1.350 . S
N2002 S2000 1.610 . S
N2002 C2003 1.351 . S
C2003 C1997 1.428 . S
C2003 N2002 1.351 . S
C2003 C2004 1.434 . S
C2004 C1995 1.429 . S
C2004 N2001 1.350 . S
C2004 C2003 1.434 . S
C2005 C2006 1.369 . S
C2005 C2007 1.419 . S
C2005 H2009 0.930 . S
C2006 C2005 1.369 . S
C2006 C2015 1.429 . S
C2007 C2005 1.419 . S
C2007 C2008 1.363 . S
C2007 H2010 0.929 . S
C2008 C2007 1.363 . S
C2008 C2014 1.428 . S
H2009 C2005 0.930 . S
H2010 C2007 0.929 . S
S2011 N2012 1.613 . S
S2011 N2013 1.610 . S
N2012 S2011 1.613 . S
N2012 C2015 1.350 . S
N2013 S2011 1.610 . S
N2013 C2014 1.351 . S
C2014 C2008 1.428 . S
C2014 N2013 1.351 . S
C2014 C2015 1.434 . S
C2015 C2006 1.429 . S
C2015 N2012 1.350 . S
C2015 C2014 1.434 . S
C961 C751 2.106 . S
C963 C1 2.110 . S
C972 C721 2.106 . S
C974 C31 2.111 . S
C983 C811 2.109 . S
C985 C61 2.110 . S
C994 C781 2.107 . S
C996 C91 2.111 . S
C1005 C130 2.111 . S
C1007 C880 2.108 . S
C1016 C160 2.107 . S
C1018 C850 2.111 . S
C1027 C190 2.111 . S
C1029 C940 2.108 . S
C1038 C910 2.106 . S
C1040 C220 2.111 . S
C1049 C511 2.108 . S
C1051 C241 2.111 . S
C1060 C481 2.111 . S
C1062 C271 2.107 . S
C1071 C571 2.106 . S
C1073 C301 2.111 . S
C1082 C541 2.110 . S
C1084 C331 2.107 . S
C1093 C370 2.106 . S
C1095 C640 2.110 . S
C1104 C610 2.111 . S
C1106 C400 2.108 . S
C1115 C430 2.106 . S
C1117 C700 2.111 . S
C1126 C670 2.111 . S
C1128 C460 2.107 . S
C1137 C16 2.835 . S
C1139 C627 2.838 . S
C1148 C417 2.834 . S
C1150 C46 2.838 . S
C1159 C927 2.834 . S
C1161 C76 2.838 . S
C1170 C106 2.839 . S
C1172 C237 2.835 . S
C1181 C147 2.838 . S
C1183 C496 2.835 . S
C1192 C177 2.839 . S
C1194 C286 2.835 . S
C1203 C207 2.837 . S
C1205 C796 2.836 . S
C1214 C867 2.837 . S
C1216 C256 2.836 . S
C1225 C687 2.836 . S
C1227 C316 2.837 . S
C1236 C477 2.838 . S
C1238 C346 2.835 . S
C1247 C736 2.839 . S
C1249 C387 2.835 . S
C1258 C447 2.837 . S
C1260 C556 2.836 . S
C1269 C897 2.834 . S
C1271 C526 2.838 . S
C1280 C586 2.834 . S
C1282 C717 2.838 . S
C1291 C766 2.836 . S
C1293 C657 2.837 . S
C1302 C826 2.836 . S
C1304 C957 2.837 . S
C1313 C27 2.407 . S
C1315 C597 2.406 . S
C1324 C57 2.405 . S
C1326 C567 2.406 . S
C1335 C87 2.405 . S
C1337 C537 2.406 . S
C1346 C117 2.405 . S
C1348 C507 2.407 . S
C1357 C136 2.406 . S
C1359 C706 2.406 . S
C1368 C166 2.406 . S
C1370 C676 2.407 . S
C1379 C196 2.406 . S
C1381 C646 2.406 . S
C1390 C226 2.407 . S
C1392 C616 2.407 . S
C1401 C267 2.406 . S
C1403 C837 2.406 . S
C1412 C297 2.407 . S
C1414 C807 2.406 . S
C1423 C327 2.407 . S
C1425 C777 2.407 . S
C1434 C357 2.405 . S
C1436 C747 2.407 . S
C1445 C946 2.407 . S
C1447 C376 2.406 . S
C1456 C916 2.406 . S
C1458 C406 2.406 . S
C1467 C886 2.406 . S
C1469 C436 2.406 . S
C1478 C856 2.407 . S
C1480 C466 2.407 . S
C1489 C70 1.460 . S
C1491 C10 1.454 . S
C1500 C100 1.457 . S
C1502 C40 1.452 . S
C1511 C181 1.452 . S
C1513 C121 1.459 . S
C1522 C151 1.459 . S
C1524 C211 1.455 . S
C1533 C310 1.452 . S
C1535 C250 1.455 . S
C1544 C280 1.458 . S
C1546 C340 1.452 . S
C1555 C421 1.451 . S
C1557 C361 1.457 . S
C1566 C391 1.452 . S
C1568 C451 1.459 . S
C1577 C490 1.453 . S
C1579 C550 1.459 . S
C1588 C520 1.451 . S
C1590 C580 1.457 . S
C1599 C661 1.460 . S
C1601 C601 1.454 . S
C1610 C631 1.453 . S
C1612 C691 1.455 . S
C1621 C730 1.451 . S
C1623 C790 1.457 . S
C1632 C820 1.452 . S
C1634 C760 1.459 . S
C1643 C841 1.459 . S
C1645 C901 1.452 . S
C1654 C871 1.451 . S
C1656 C931 1.458 . S
C1665 N14 0.736 . S
C1667 N224 0.727 . S
C1676 N914 0.735 . S
C1678 N44 0.738 . S
C1687 N74 0.742 . S
C1689 N404 0.724 . S
C1698 N104 0.736 . S
C1700 N614 0.742 . S
C1709 N96 0.724 . S
C1711 N126 0.755 . S
C1720 N156 0.719 . S
C1722 N786 0.732 . S
C1731 N276 0.745 . S
C1733 N186 0.729 . S
C1742 N486 0.724 . S
C1744 N216 0.740 . S
C1753 N254 0.743 . S
C1755 N464 0.726 . S
C1764 N674 0.734 . S
C1766 N284 0.739 . S
C1775 N314 0.742 . S
C1777 N164 0.733 . S
C1786 N854 0.741 . S
C1788 N344 0.721 . S
C1797 N366 0.718 . S
C1799 N336 0.734 . S
C1808 N396 0.720 . S
C1810 N546 0.742 . S
C1819 N426 0.735 . S
C1821 N36 0.721 . S
C1830 N726 0.730 . S
C1832 N456 0.723 . S
C1841 N494 0.734 . S
C1843 N704 0.741 . S
C1852 N524 0.721 . S
C1854 N434 0.742 . S
C1863 N554 0.725 . S
C1865 N884 0.724 . S
C1874 N584 0.733 . S
C1876 N134 0.730 . S
C1885 N606 0.732 . S
C1887 N576 0.739 . S
C1896 N306 0.738 . S
C1898 N636 0.736 . S
C1907 N756 0.743 . S
C1909 N666 0.721 . S
C1918 N696 0.737 . S
C1920 N6 0.727 . S
C1929 N944 0.722 . S
C1931 N734 0.739 . S
C1940 N194 0.743 . S
C1942 N764 0.721 . S
C1951 N644 0.737 . S
C1953 N794 0.738 . S
C1962 N824 0.730 . S
C1964 N374 0.742 . S
C1973 N816 0.736 . S
C1975 N846 0.720 . S
C1984 N66 0.736 . S
C1986 N876 0.737 . S
C1995 N516 0.720 . S
C1997 N906 0.739 . S
C2006 N936 0.743 . S
C2008 N246 0.726 . S
