# Generated by pormake.
# Topology snl, (6)-cn, num edge types: 1
# Building blocks:
#     Node 0, Type 0, BuildingBlock: NUHQIS_clean_sbu_0, # of connection points: 6
#     Node 1, Type 0, BuildingBlock: NUHQIS_clean_sbu_0, # of connection points: 6
#     Node 2, Type 0, BuildingBlock: NUHQIS_clean_sbu_0, # of connection points: 6
#     Node 3, Type 0, BuildingBlock: NUHQIS_clean_sbu_0, # of connection points: 6
#     Node 4, Type 0, BuildingBlock: NUHQIS_clean_sbu_0, # of connection points: 6
#     Node 5, Type 0, BuildingBlock: NUHQIS_clean_sbu_0, # of connection points: 6
#     Node 6, Type 0, BuildingBlock: NUHQIS_clean_sbu_0, # of connection points: 6
#     Node 7, Type 0, BuildingBlock: NUHQIS_clean_sbu_0, # of connection points: 6
#     Node 8, Type 0, BuildingBlock: NUHQIS_clean_sbu_0, # of connection points: 6
#     Node 9, Type 0, BuildingBlock: NUHQIS_clean_sbu_0, # of connection points: 6
#     Node 10, Type 0, BuildingBlock: NUHQIS_clean_sbu_0, # of connection points: 6
#     Node 11, Type 0, BuildingBlock: NUHQIS_clean_sbu_0, # of connection points: 6
#     Node 12, Type 0, BuildingBlock: NUHQIS_clean_sbu_0, # of connection points: 6
#     Node 13, Type 0, BuildingBlock: NUHQIS_clean_sbu_0, # of connection points: 6
#     Node 14, Type 0, BuildingBlock: NUHQIS_clean_sbu_0, # of connection points: 6
#     Node 15, Type 0, BuildingBlock: NUHQIS_clean_sbu_0, # of connection points: 6
#     Edge 16, Type (0, 0), BuildingBlock: UVAHIK_clean_linker_0, # of connection points: 2
#     Edge 17, Type (0, 0), BuildingBlock: UVAHIK_clean_linker_0, # of connection points: 2
#     Edge 18, Type (0, 0), BuildingBlock: UVAHIK_clean_linker_0, # of connection points: 2
#     Edge 19, Type (0, 0), BuildingBlock: UVAHIK_clean_linker_0, # of connection points: 2
#     Edge 20, Type (0, 0), BuildingBlock: UVAHIK_clean_linker_0, # of connection points: 2
#     Edge 21, Type (0, 0), BuildingBlock: UVAHIK_clean_linker_0, # of connection points: 2
#     Edge 22, Type (0, 0), BuildingBlock: UVAHIK_clean_linker_0, # of connection points: 2
#     Edge 23, Type (0, 0), BuildingBlock: UVAHIK_clean_linker_0, # of connection points: 2
#     Edge 24, Type (0, 0), BuildingBlock: UVAHIK_clean_linker_0, # of connection points: 2
#     Edge 25, Type (0, 0), BuildingBlock: UVAHIK_clean_linker_0, # of connection points: 2
#     Edge 26, Type (0, 0), BuildingBlock: UVAHIK_clean_linker_0, # of connection points: 2
#     Edge 27, Type (0, 0), BuildingBlock: UVAHIK_clean_linker_0, # of connection points: 2
#     Edge 28, Type (0, 0), BuildingBlock: UVAHIK_clean_linker_0, # of connection points: 2
#     Edge 29, Type (0, 0), BuildingBlock: UVAHIK_clean_linker_0, # of connection points: 2
#     Edge 30, Type (0, 0), BuildingBlock: UVAHIK_clean_linker_0, # of connection points: 2
#     Edge 31, Type (0, 0), BuildingBlock: UVAHIK_clean_linker_0, # of connection points: 2
#     Edge 32, Type (0, 0), BuildingBlock: UVAHIK_clean_linker_0, # of connection points: 2
#     Edge 33, Type (0, 0), BuildingBlock: UVAHIK_clean_linker_0, # of connection points: 2
#     Edge 34, Type (0, 0), BuildingBlock: UVAHIK_clean_linker_0, # of connection points: 2
#     Edge 35, Type (0, 0), BuildingBlock: UVAHIK_clean_linker_0, # of connection points: 2
#     Edge 36, Type (0, 0), BuildingBlock: UVAHIK_clean_linker_0, # of connection points: 2
#     Edge 37, Type (0, 0), BuildingBlock: UVAHIK_clean_linker_0, # of connection points: 2
#     Edge 38, Type (0, 0), BuildingBlock: UVAHIK_clean_linker_0, # of connection points: 2
#     Edge 39, Type (0, 0), BuildingBlock: UVAHIK_clean_linker_0, # of connection points: 2
#     Edge 40, Type (0, 0), BuildingBlock: UVAHIK_clean_linker_0, # of connection points: 2
#     Edge 41, Type (0, 0), BuildingBlock: UVAHIK_clean_linker_0, # of connection points: 2
#     Edge 42, Type (0, 0), BuildingBlock: UVAHIK_clean_linker_0, # of connection points: 2
#     Edge 43, Type (0, 0), BuildingBlock: UVAHIK_clean_linker_0, # of connection points: 2
#     Edge 44, Type (0, 0), BuildingBlock: UVAHIK_clean_linker_0, # of connection points: 2
#     Edge 45, Type (0, 0), BuildingBlock: UVAHIK_clean_linker_0, # of connection points: 2
#     Edge 46, Type (0, 0), BuildingBlock: UVAHIK_clean_linker_0, # of connection points: 2
#     Edge 47, Type (0, 0), BuildingBlock: UVAHIK_clean_linker_0, # of connection points: 2
#     Edge 48, Type (0, 0), BuildingBlock: UVAHIK_clean_linker_0, # of connection points: 2
#     Edge 49, Type (0, 0), BuildingBlock: UVAHIK_clean_linker_0, # of connection points: 2
#     Edge 50, Type (0, 0), BuildingBlock: UVAHIK_clean_linker_0, # of connection points: 2
#     Edge 51, Type (0, 0), BuildingBlock: UVAHIK_clean_linker_0, # of connection points: 2
#     Edge 52, Type (0, 0), BuildingBlock: UVAHIK_clean_linker_0, # of connection points: 2
#     Edge 53, Type (0, 0), BuildingBlock: UVAHIK_clean_linker_0, # of connection points: 2
#     Edge 54, Type (0, 0), BuildingBlock: UVAHIK_clean_linker_0, # of connection points: 2
#     Edge 55, Type (0, 0), BuildingBlock: UVAHIK_clean_linker_0, # of connection points: 2
#     Edge 56, Type (0, 0), BuildingBlock: UVAHIK_clean_linker_0, # of connection points: 2
#     Edge 57, Type (0, 0), BuildingBlock: UVAHIK_clean_linker_0, # of connection points: 2
#     Edge 58, Type (0, 0), BuildingBlock: UVAHIK_clean_linker_0, # of connection points: 2
#     Edge 59, Type (0, 0), BuildingBlock: UVAHIK_clean_linker_0, # of connection points: 2
#     Edge 60, Type (0, 0), BuildingBlock: UVAHIK_clean_linker_0, # of connection points: 2
#     Edge 61, Type (0, 0), BuildingBlock: UVAHIK_clean_linker_0, # of connection points: 2
#     Edge 62, Type (0, 0), BuildingBlock: UVAHIK_clean_linker_0, # of connection points: 2
#     Edge 63, Type (0, 0), BuildingBlock: UVAHIK_clean_linker_0, # of connection points: 2
# Relax obj value: 0.180
# Max RMSD: 0.246
# Mean RMSD: 0.216
data_MOF--net-snl--node1-NUHQIS_clean_sbu_0--edge1-UVAHIK_clean_linker_0
_symmetry_space_group_name_H-M    P1
_symmetry_Int_Tables_number       1
_symmetry_cell_setting            triclinic
loop_
_symmetry_equiv_pos_as_xyz
'x, y, z'
_cell_length_a     75.599618
_cell_length_b     74.42937
_cell_length_c     30.483106
_cell_angle_alpha  84.169937
_cell_angle_beta   95.822983
_cell_angle_gamma 90.281867
loop_
_atom_site_label
_atom_site_type_symbol
_atom_site_fract_x
_atom_site_fract_y
_atom_site_fract_z
_atom_type_partial_charge
Tb0 Tb 0.13441 0.61479 0.18386 0.0
Eu1 Eu 0.13884 0.63365 0.08082 0.0
C2 C 0.10111 0.62593 0.11729 0.0
C3 C 0.13579 0.59053 0.10399 0.0
C4 C 0.12914 0.60522 0.30689 0.0
C5 C 0.12191 0.59466 0.38111 0.0
C6 C 0.12343 0.59152 0.33717 0.0
C7 C 0.13273 0.62241 0.32088 0.0
C8 C 0.13121 0.62559 0.36496 0.0
C9 C 0.12613 0.61163 0.39592 0.0
C10 C 0.1329 0.60066 0.26266 0.0
O11 O 0.16121 0.61067 0.16679 0.0
O12 O 0.16428 0.63719 0.12464 0.0
O13 O 0.13382 0.65673 0.11993 0.0
O14 O 0.13876 0.64336 0.19215 0.0
C15 C 0.17117 0.62415 0.15328 0.0
O16 O 0.15471 0.6375 0.02472 0.0
O17 O 0.12908 0.65086 0.02084 0.0
O18 O 0.11042 0.62447 0.08365 0.0
O19 O 0.1089 0.62688 0.15758 0.0
O20 O 0.1296 0.59268 0.14208 0.0
O21 O 0.14264 0.60386 0.07967 0.0
C22 C 0.13634 0.65769 0.16297 0.0
O23 O 0.11965 0.60076 0.23168 0.0
O24 O 0.14716 0.60769 0.24746 0.0
C25 C 0.13928 0.64404 0.95316 0.0
C26 C 0.13394 0.63782 0.8626 0.0
C27 C 0.13912 0.65492 0.87514 0.0
C28 C 0.14174 0.65797 0.91986 0.0
C29 C 0.13401 0.62695 0.94113 0.0
C30 C 0.13138 0.62386 0.89624 0.0
C31 C 0.1428 0.64765 0.99996 0.0
H32 H 0.11762 0.5837 0.40368 0.0
H33 H 0.1206 0.57816 0.32712 0.0
H34 H 0.13722 0.6332 0.29812 0.0
H35 H 0.13467 0.63878 0.37515 0.0
H36 H 0.14152 0.66592 0.8504 0.0
H37 H 0.1459 0.67123 0.92847 0.0
H38 H 0.13203 0.61601 0.9664 0.0
H39 H 0.12722 0.61058 0.88791 0.0
Tb40 Tb 0.63133 0.89247 0.3452 0.0
Eu41 Eu 0.64311 0.87629 0.45075 0.0
C42 C 0.6026 0.88383 0.41328 0.0
C43 C 0.6364 0.9184 0.42167 0.0
C44 C 0.62602 0.90154 0.21945 0.0
C45 C 0.6172 0.90673 0.14019 0.0
C46 C 0.61459 0.90948 0.18378 0.0
C47 C 0.64031 0.89086 0.2109 0.0
C48 C 0.64299 0.88813 0.16707 0.0
C49 C 0.63135 0.89591 0.13113 0.0
C50 C 0.62227 0.90426 0.26494 0.0
O51 O 0.66001 0.89496 0.35655 0.0
O52 O 0.66639 0.87194 0.41171 0.0
O53 O 0.63357 0.85303 0.4133 0.0
O54 O 0.63886 0.86429 0.34275 0.0
C55 C 0.67114 0.88297 0.37849 0.0
O56 O 0.66238 0.87484 0.50973 0.0
O57 O 0.63812 0.85928 0.51086 0.0
O58 O 0.61444 0.88519 0.44745 0.0
O59 O 0.60728 0.88285 0.37323 0.0
O60 O 0.62697 0.91473 0.38487 0.0
O61 O 0.64663 0.90627 0.44604 0.0
C62 C 0.63567 0.85069 0.37198 0.0
O63 O 0.61445 0.89103 0.28648 0.0
O64 O 0.63473 0.91137 0.29036 0.0
C65 C 0.65106 0.86834 0.57956 0.0
C66 C 0.6483 0.87469 0.66882 0.0
C67 C 0.66233 0.86423 0.65764 0.0
C68 C 0.66367 0.8611 0.61358 0.0
C69 C 0.63712 0.87897 0.59022 0.0
C70 C 0.63573 0.88209 0.63444 0.0
C71 C 0.65257 0.86415 0.53369 0.0
H72 H 0.60815 0.9132 0.11349 0.0
H73 H 0.6035 0.91778 0.18966 0.0
H74 H 0.64925 0.88453 0.23804 0.0
H75 H 0.65394 0.87962 0.1614 0.0
H76 H 0.67211 0.85808 0.6831 0.0
H77 H 0.6745 0.85281 0.60612 0.0
H78 H 0.62726 0.88476 0.56445 0.0
H79 H 0.62487 0.89038 0.64164 0.0
Tb80 Tb 0.3658 0.37687 0.62908 0.0
Eu81 Eu 0.38312 0.38142 0.73235 0.0
C82 C 0.37671 0.34337 0.69457 0.0
C83 C 0.3412 0.37934 0.70655 0.0
C84 C 0.35685 0.37025 0.50675 0.0
C85 C 0.34709 0.36071 0.43425 0.0
C86 C 0.34399 0.36254 0.47805 0.0
C87 C 0.37321 0.3755 0.49146 0.0
C88 C 0.37633 0.37369 0.44753 0.0
C89 C 0.36314 0.36662 0.41807 0.0
C90 C 0.35213 0.37425 0.5506 0.0
O91 O 0.3616 0.40431 0.64386 0.0
O92 O 0.38668 0.40772 0.69023 0.0
O93 O 0.40629 0.37701 0.69431 0.0
O94 O 0.39393 0.38221 0.62154 0.0
C95 C 0.37441 0.41451 0.65956 0.0
O96 O 0.38656 0.3971 0.78934 0.0
O97 O 0.39955 0.37103 0.79268 0.0
O98 O 0.37406 0.3525 0.72811 0.0
O99 O 0.37902 0.35182 0.65569 0.0
O100 O 0.34404 0.37137 0.67117 0.0
O101 O 0.35399 0.38715 0.72987 0.0
C102 C 0.40781 0.37996 0.65159 0.0
O103 O 0.35265 0.36101 0.5822 0.0
O104 O 0.35843 0.38913 0.565 0.0
C105 C 0.39304 0.38125 0.8606 0.0
C106 C 0.38727 0.3753 0.95119 0.0
C107 C 0.40333 0.38273 0.93829 0.0
C108 C 0.40617 0.38564 0.89355 0.0
C109 C 0.37696 0.37382 0.87294 0.0
C110 C 0.37409 0.37088 0.9179 0.0
C111 C 0.39649 0.38489 0.81384 0.0
H112 H 0.33678 0.35487 0.41286 0.0
H113 H 0.33129 0.3584 0.48915 0.0
H114 H 0.38335 0.38153 0.513 0.0
H115 H 0.3888 0.37849 0.43622 0.0
H116 H 0.41365 0.38661 0.96278 0.0
H117 H 0.41862 0.3915 0.88462 0.0
H118 H 0.36666 0.37035 0.84789 0.0
H119 H 0.36162 0.365 0.92659 0.0
Tb120 Tb 0.88127 0.11756 0.84523 0.0
Eu121 Eu 0.87711 0.13448 0.93972 0.0
C122 C 0.91463 0.12719 0.90683 0.0
C123 C 0.87984 0.09179 0.93427 0.0
C124 C 0.88665 0.1099 0.72602 0.0
C125 C 0.8966 0.1011 0.65783 0.0
C126 C 0.89502 0.09748 0.70318 0.0
C127 C 0.88046 0.12637 0.70314 0.0
C128 C 0.88197 0.12997 0.65767 0.0
C129 C 0.88974 0.11722 0.63428 0.0
C130 C 0.88301 0.10455 0.77219 0.0
O131 O 0.85471 0.11272 0.86466 0.0
O132 O 0.85177 0.13918 0.89371 0.0
O133 O 0.88493 0.15755 0.8927 0.0
O134 O 0.87597 0.14644 0.82616 0.0
C135 C 0.84468 0.1261 0.8722 0.0
O136 O 0.86057 0.13915 0.99221 0.0
O137 O 0.8872 0.15018 0.99356 0.0
O138 O 0.90543 0.12457 0.94128 0.0
O139 O 0.90666 0.12931 0.86628 0.0
O140 O 0.88687 0.09488 0.8964 0.0
O141 O 0.87251 0.10468 0.95277 0.0
C142 C 0.8809 0.15989 0.84963 0.0
O143 O 0.8963 0.10445 0.80302 0.0
O144 O 0.86856 0.11102 0.78472 0.0
C145 C 0.87513 0.14415 0.06233 0.0
C146 C 0.87868 0.13733 0.15567 0.0
C147 C 0.86997 0.15299 0.13447 0.0
C148 C 0.86821 0.15634 0.08833 0.0
C149 C 0.88396 0.12852 0.08303 0.0
C150 C 0.88576 0.12515 0.12941 0.0
C151 C 0.87282 0.14815 0.01385 0.0
H152 H 0.9025 0.0909 0.64085 0.0
H153 H 0.89979 0.08465 0.72015 0.0
H154 H 0.874 0.13622 0.72008 0.0
H155 H 0.87678 0.14263 0.64066 0.0
H156 H 0.86463 0.16281 0.15357 0.0
H157 H 0.86142 0.16851 0.07288 0.0
H158 H 0.88935 0.11893 0.06337 0.0
H159 H 0.89242 0.11289 0.14465 0.0
Tb160 Tb 0.1373 0.39129 0.85645 0.0
Eu161 Eu 0.14492 0.37344 0.96226 0.0
C162 C 0.10577 0.38026 0.91299 0.0
C163 C 0.13987 0.41627 0.93554 0.0
C164 C 0.13056 0.3998 0.73051 0.0
C165 C 0.12145 0.40931 0.65278 0.0
C166 C 0.12259 0.41252 0.69743 0.0
C167 C 0.13677 0.38342 0.71837 0.0
C168 C 0.13566 0.3802 0.67361 0.0
C169 C 0.12835 0.39329 0.64011 0.0
C170 C 0.13403 0.40486 0.77627 0.0
O171 O 0.16459 0.39578 0.88298 0.0
O172 O 0.16919 0.36944 0.92679 0.0
O173 O 0.1389 0.35005 0.92271 0.0
O174 O 0.1417 0.36257 0.85101 0.0
C175 C 0.17511 0.38236 0.89977 0.0
O176 O 0.16209 0.3709 0.02472 0.0
O177 O 0.13739 0.35595 0.01924 0.0
O178 O 0.11611 0.38192 0.94973 0.0
O179 O 0.11235 0.37949 0.87485 0.0
O180 O 0.13266 0.41362 0.89547 0.0
O181 O 0.14805 0.40338 0.96259 0.0
C182 C 0.14024 0.34856 0.88058 0.0
O183 O 0.12099 0.40374 0.80132 0.0
O184 O 0.14898 0.39922 0.79822 0.0
C185 C 0.14821 0.36362 0.09068 0.0
C186 C 0.14257 0.3693 0.17869 0.0
C187 C 0.15099 0.35348 0.16946 0.0
C188 C 0.15375 0.35069 0.12598 0.0
C189 C 0.13986 0.3795 0.09941 0.0
C190 C 0.1371 0.38233 0.14307 0.0
C191 C 0.15127 0.36009 0.04531 0.0
H192 H 0.11541 0.41955 0.62809 0.0
H193 H 0.11774 0.42526 0.706 0.0
H194 H 0.14304 0.3734 0.7433 0.0
H195 H 0.1412 0.36776 0.66519 0.0
H196 H 0.15569 0.34329 0.19594 0.0
H197 H 0.16028 0.33838 0.11992 0.0
H198 H 0.13546 0.38965 0.07252 0.0
H199 H 0.13044 0.3946 0.14884 0.0
Tb200 Tb 0.86552 0.87616 0.12533 0.0
Eu201 Eu 0.88409 0.87805 0.2285 0.0
C202 C 0.87538 0.84088 0.18775 0.0
C203 C 0.84165 0.87679 0.20537 0.0
C204 C 0.85626 0.87257 1.0016 0.0
C205 C 0.84607 0.86379 0.92853 0.0
C206 C 0.84304 0.86564 0.97239 0.0
C207 C 0.87285 0.87709 0.9866 0.0
C208 C 0.87589 0.87528 0.94261 0.0
C209 C 0.86241 0.86892 0.91272 0.0
C210 C 0.85181 0.87642 0.04588 0.0
O211 O 0.86212 0.90291 0.14591 0.0
O212 O 0.88883 0.9041 0.18636 0.0
O213 O 0.9061 0.87059 0.18987 0.0
O214 O 0.894 0.87969 0.11852 0.0
C215 C 0.87585 0.91224 0.16018 0.0
O216 O 0.88964 0.8939 0.28475 0.0
O217 O 0.89984 0.86656 0.28889 0.0
O218 O 0.87404 0.84962 0.22272 0.0
O219 O 0.87646 0.84956 0.14834 0.0
O220 O 0.84364 0.87085 0.16681 0.0
O221 O 0.855 0.88313 0.2301 0.0
C222 C 0.90764 0.87443 0.14741 0.0
O223 O 0.85074 0.86278 0.0759 0.0
O224 O 0.85963 0.89022 0.06249 0.0
C225 C 0.89461 0.87806 0.35639 0.0
C226 C 0.88831 0.87361 0.44685 0.0
C227 C 0.90469 0.88022 0.43397 0.0
C228 C 0.90778 0.88239 0.3893 0.0
C229 C 0.8782 0.87149 0.36871 0.0
C230 C 0.87507 0.86929 0.41358 0.0
C231 C 0.89833 0.88089 0.30964 0.0
H232 H 0.8355 0.85851 0.90684 0.0
H233 H 0.83015 0.86207 0.98321 0.0
H234 H 0.88329 0.8825 1.00847 0.0
H235 H 0.8886 0.87947 0.93164 0.0
H236 H 0.91507 0.88402 0.45838 0.0
H237 H 0.92049 0.88761 0.38041 0.0
H238 H 0.86785 0.8681 0.34369 0.0
H239 H 0.86236 0.86403 0.42222 0.0
Tb240 Tb 0.38279 0.62038 0.34874 0.0
Eu241 Eu 0.38108 0.63792 0.44406 0.0
C242 C 0.41758 0.62905 0.40764 0.0
C243 C 0.38319 0.59477 0.43983 0.0
C244 C 0.38702 0.61264 0.22897 0.0
C245 C 0.39437 0.60284 0.15929 0.0
C246 C 0.39218 0.59903 0.20426 0.0
C247 C 0.38458 0.63033 0.20835 0.0
C248 C 0.38674 0.63416 0.16322 0.0
C249 C 0.3914 0.62039 0.13796 0.0
C250 C 0.38291 0.60764 0.27488 0.0
O251 O 0.35698 0.6152 0.37222 0.0
O252 O 0.35478 0.64178 0.40128 0.0
O253 O 0.38903 0.66028 0.39536 0.0
O254 O 0.37725 0.64928 0.33092 0.0
C255 C 0.3472 0.62847 0.38147 0.0
O256 O 0.36561 0.64296 0.49815 0.0
O257 O 0.39192 0.65454 0.49554 0.0
O258 O 0.40898 0.62738 0.44323 0.0
O259 O 0.40904 0.63093 0.36763 0.0
O260 O 0.38714 0.59709 0.39846 0.0
O261 O 0.37856 0.60811 0.46146 0.0
C262 C 0.38352 0.66265 0.35301 0.0
O263 O 0.39621 0.60601 0.30582 0.0
O264 O 0.3693 0.61568 0.28754 0.0
C265 C 0.38118 0.64919 0.56624 0.0
C266 C 0.38498 0.64361 0.6598 0.0
C267 C 0.381 0.66086 0.63774 0.0
C268 C 0.37912 0.66359 0.59149 0.0
C269 C 0.38549 0.63197 0.58782 0.0
C270 C 0.38743 0.62921 0.6343 0.0
C271 C 0.37803 0.65248 0.51766 0.0
H272 H 0.39774 0.59186 0.14088 0.0
H273 H 0.39401 0.58528 0.2195 0.0
H274 H 0.38063 0.64107 0.22684 0.0
H275 H 0.38459 0.64787 0.14802 0.0
H276 H 0.37934 0.67231 0.65624 0.0
H277 H 0.37583 0.67698 0.57538 0.0
H278 H 0.3871 0.62067 0.56878 0.0
H279 H 0.39039 0.61573 0.65023 0.0
Tb280 Tb 0.63266 0.11453 0.68212 0.0
Eu281 Eu 0.63416 0.13392 0.57874 0.0
C282 C 0.59777 0.12288 0.61862 0.0
C283 C 0.63332 0.09052 0.60104 0.0
C284 C 0.62947 0.10497 0.80622 0.0
C285 C 0.62285 0.09405 0.88076 0.0
C286 C 0.62455 0.09097 0.83684 0.0
C287 C 0.63213 0.12234 0.8199 0.0
C288 C 0.63043 0.12546 0.86396 0.0
C289 C 0.62609 0.11125 0.89521 0.0
C290 C 0.63322 0.10065 0.76175 0.0
O291 O 0.65885 0.11121 0.66086 0.0
O292 O 0.65998 0.1384 0.62057 0.0
O293 O 0.62584 0.15561 0.61822 0.0
O294 O 0.6362 0.14346 0.68869 0.0
C295 C 0.66802 0.12518 0.64664 0.0
O296 O 0.64956 0.13981 0.52226 0.0
O297 O 0.62277 0.15043 0.51913 0.0
O298 O 0.60663 0.12258 0.5837 0.0
O299 O 0.60597 0.12425 0.65833 0.0
O300 O 0.6287 0.09198 0.64117 0.0
O301 O 0.63843 0.10439 0.57522 0.0
C302 C 0.63026 0.15722 0.66043 0.0
O303 O 0.61975 0.09941 0.7319 0.0
O304 O 0.64661 0.10889 0.74499 0.0
C305 C 0.63359 0.14499 0.45108 0.0
C306 C 0.62921 0.13839 0.36068 0.0
C307 C 0.63328 0.15579 0.37297 0.0
C308 C 0.63543 0.15902 0.41762 0.0
C309 C 0.6294 0.1276 0.4393 0.0
C310 C 0.62724 0.12433 0.3945 0.0
C311 C 0.63671 0.14878 0.49783 0.0
H312 H 0.61915 0.08287 0.90354 0.0
H313 H 0.62243 0.07747 0.82705 0.0
H314 H 0.636 0.13338 0.7969 0.0
H315 H 0.63314 0.13884 0.87387 0.0
H316 H 0.63521 0.1669 0.34812 0.0
H317 H 0.63878 0.17251 0.42605 0.0
H318 H 0.62792 0.11657 0.4647 0.0
H319 H 0.62393 0.11081 0.38636 0.0
Tb320 Tb 0.87737 0.37119 0.93012 0.0
Eu321 Eu 0.88043 0.39044 0.82704 0.0
C322 C 0.84401 0.38168 0.8638 0.0
C323 C 0.87776 0.34691 0.85003 0.0
C324 C 0.87698 0.36115 0.05484 0.0
C325 C 0.87407 0.35153 0.13239 0.0
C326 C 0.87236 0.34805 0.08796 0.0
C327 C 0.8837 0.37778 0.06683 0.0
C328 C 0.88546 0.3813 0.1115 0.0
C329 C 0.88045 0.36828 0.14481 0.0
C330 C 0.87385 0.35728 1.00818 0.0
O331 O 0.90514 0.37916 0.92615 0.0
O332 O 0.90653 0.37709 0.85206 0.0
O333 O 0.88646 0.41261 0.87184 0.0
O334 O 0.87459 0.39996 0.93467 0.0
C335 C 0.91437 0.37738 0.89241 0.0
O336 O 0.89504 0.40473 0.77545 0.0
O337 O 0.86715 0.39835 0.76127 0.0
O338 O 0.85329 0.39513 0.84736 0.0
O339 O 0.852 0.36842 0.88994 0.0
O340 O 0.88136 0.3485 0.89265 0.0
O341 O 0.87496 0.36091 0.82001 0.0
C342 C 0.88123 0.41377 0.91142 0.0
O343 O 0.86171 0.36703 0.98326 0.0
O344 O 0.88774 0.35483 0.98734 0.0
C345 C 0.88465 0.40037 0.70064 0.0
C346 C 0.88738 0.39368 0.61168 0.0
C347 C 0.89259 0.41038 0.62667 0.0
C348 C 0.8912 0.41367 0.67062 0.0
C349 C 0.87998 0.38346 0.68635 0.0
C350 C 0.88131 0.38016 0.64231 0.0
C351 C 0.88146 0.40496 0.74527 0.0
H352 H 0.8704 0.34105 0.15708 0.0
H353 H 0.86718 0.33512 0.07939 0.0
H354 H 0.88733 0.38808 0.04167 0.0
H355 H 0.89032 0.39438 0.11978 0.0
H356 H 0.89714 0.42117 0.60404 0.0
H357 H 0.89478 0.42685 0.68085 0.0
H358 H 0.87493 0.37294 0.70895 0.0
H359 H 0.87743 0.36706 0.63215 0.0
Tb360 Tb 0.36803 0.12683 0.58537 0.0
Eu361 Eu 0.37899 0.11046 0.69105 0.0
C362 C 0.33901 0.11893 0.65217 0.0
C363 C 0.37355 0.15273 0.66178 0.0
C364 C 0.36092 0.13464 0.45983 0.0
C365 C 0.35014 0.13882 0.38149 0.0
C366 C 0.3487 0.14219 0.42531 0.0
C367 C 0.3746 0.12347 0.44993 0.0
C368 C 0.37609 0.12012 0.40592 0.0
C369 C 0.36388 0.1278 0.37107 0.0
C370 C 0.3592 0.13901 0.50541 0.0
O371 O 0.39577 0.11816 0.58831 0.0
O372 O 0.40376 0.12045 0.66221 0.0
O373 O 0.38362 0.08775 0.64945 0.0
O374 O 0.36509 0.09775 0.58711 0.0
C375 C 0.40798 0.11937 0.62187 0.0
O376 O 0.39629 0.11099 0.75281 0.0
O377 O 0.37494 0.09159 0.74904 0.0
O378 O 0.34971 0.10697 0.67552 0.0
O379 O 0.34474 0.13044 0.62109 0.0
O380 O 0.37653 0.14966 0.6214 0.0
O381 O 0.37068 0.1395 0.69223 0.0
C382 C 0.37484 0.08506 0.61111 0.0
O383 O 0.3493 0.12834 0.52904 0.0
O384 O 0.37364 0.14356 0.52873 0.0
C385 C 0.38448 0.10098 0.82002 0.0
C386 C 0.37974 0.10641 0.90874 0.0
C387 C 0.39375 0.09558 0.89901 0.0
C388 C 0.39608 0.09292 0.8552 0.0
C389 C 0.37035 0.1117 0.82925 0.0
C390 C 0.36796 0.11435 0.87328 0.0
C391 C 0.3878 0.09823 0.77427 0.0
H392 H 0.34066 0.14519 0.35563 0.0
H393 H 0.33809 0.15089 0.43222 0.0
H394 H 0.38414 0.11743 0.47613 0.0
H395 H 0.38672 0.11142 0.39923 0.0
H396 H 0.40289 0.08899 0.92534 0.0
H397 H 0.40704 0.08457 0.84877 0.0
H398 H 0.36129 0.11812 0.80248 0.0
H399 H 0.35712 0.12289 0.87948 0.0
Tb400 Tb 0.629 0.6247 0.29469 0.0
Eu401 Eu 0.64714 0.62552 0.39865 0.0
C402 C 0.63709 0.58988 0.35871 0.0
C403 C 0.60456 0.62717 0.37253 0.0
C404 C 0.61885 0.62523 0.16985 0.0
C405 C 0.60917 0.62268 0.09228 0.0
C406 C 0.60605 0.62024 0.13687 0.0
C407 C 0.63493 0.63275 0.15771 0.0
C408 C 0.6381 0.63521 0.11288 0.0
C409 C 0.62522 0.63022 0.07956 0.0
C410 C 0.61508 0.622 0.21646 0.0
O411 O 0.63849 0.65227 0.30033 0.0
O412 O 0.63604 0.65303 0.37453 0.0
O413 O 0.66986 0.6305 0.35636 0.0
O414 O 0.65725 0.62105 0.29036 0.0
C415 C 0.63686 0.66133 0.33467 0.0
O416 O 0.66233 0.63865 0.45161 0.0
O417 O 0.65274 0.61126 0.46449 0.0
O418 O 0.65091 0.59829 0.37573 0.0
O419 O 0.62437 0.59914 0.33404 0.0
O420 O 0.60718 0.63173 0.33087 0.0
O421 O 0.61759 0.62159 0.4028 0.0
C422 C 0.67105 0.6261 0.31598 0.0
O423 O 0.62419 0.60919 0.24094 0.0
O424 O 0.61337 0.63613 0.23772 0.0
C425 C 0.65644 0.62884 0.52571 0.0
C426 C 0.65055 0.63307 0.61441 0.0
C427 C 0.66657 0.63875 0.59765 0.0
C428 C 0.66947 0.63662 0.55386 0.0
C429 C 0.64017 0.6237 0.54171 0.0
C430 C 0.63726 0.62579 0.58561 0.0
C431 C 0.66072 0.62497 0.48132 0.0
H432 H 0.59909 0.61834 0.06781 0.0
H433 H 0.59361 0.61429 0.14566 0.0
H434 H 0.64499 0.63665 0.18281 0.0
H435 H 0.65054 0.64117 0.10431 0.0
H436 H 0.67697 0.64472 0.61851 0.0
H437 H 0.68211 0.64069 0.54224 0.0
H438 H 0.62988 0.61765 0.52067 0.0
H439 H 0.62482 0.62114 0.59737 0.0
Tb440 Tb 0.13113 0.86909 0.09429 0.0
Eu441 Eu 0.12576 0.88598 0.18835 0.0
C442 C 0.16309 0.87902 0.15904 0.0
C443 C 0.12823 0.8433 0.18219 0.0
C444 C 0.13314 0.85956 0.97474 0.0
C445 C 0.13733 0.85039 0.90227 0.0
C446 C 0.14018 0.84757 0.94843 0.0
C447 C 0.12326 0.87459 0.95429 0.0
C448 C 0.12039 0.87746 0.90787 0.0
C449 C 0.12731 0.8653 0.88129 0.0
C450 C 0.13623 0.85581 0.02325 0.0
O451 O 0.10343 0.87808 0.09002 0.0
O452 O 0.10021 0.8731 0.16414 0.0
O453 O 0.11981 0.90889 0.1343 0.0
O454 O 0.13453 0.89803 0.07974 0.0
C455 C 0.0933 0.87488 0.12263 0.0
O456 O 0.10955 0.89851 0.2329 0.0
O457 O 0.13773 0.89372 0.25153 0.0
O458 O 0.15306 0.89203 0.16861 0.0
O459 O 0.15581 0.86567 0.13871 0.0
O460 O 0.12404 0.84628 0.13921 0.0
O461 O 0.13261 0.8564 0.20706 0.0
C462 C 0.12685 0.91125 0.09638 0.0
O463 O 0.14758 0.8661 0.04383 0.0
O464 O 0.12228 0.8526 0.04456 0.0
C465 C 0.11943 0.89441 0.31023 0.0
C466 C 0.11631 0.88817 0.40228 0.0
C467 C 0.10832 0.9034 0.37694 0.0
C468 C 0.1099 0.90649 0.33147 0.0
C469 C 0.12685 0.8788 0.33493 0.0
C470 C 0.1253 0.87571 0.38051 0.0
C471 C 0.1228 0.89929 0.26363 0.0
H472 H 0.14315 0.84095 0.88297 0.0
H473 H 0.14791 0.83594 0.96366 0.0
H474 H 0.11772 0.884 0.97417 0.0
H475 H 0.11253 0.88901 0.89284 0.0
H476 H 0.10101 0.91311 0.39235 0.0
H477 H 0.10407 0.91861 0.31306 0.0
H478 H 0.1343 0.86927 0.31932 0.0
H479 H 0.13173 0.86391 0.39895 0.0
Tb480 Tb 0.87135 0.62351 0.08288 0.0
Eu481 Eu 0.88384 0.60779 0.18861 0.0
C482 C 0.84328 0.61643 0.1533 0.0
C483 C 0.87736 0.64996 0.15849 0.0
C484 C 0.86383 0.63026 0.95726 0.0
C485 C 0.85278 0.63328 0.87902 0.0
C486 C 0.85107 0.63668 0.9227 0.0
C487 C 0.87831 0.62013 0.94754 0.0
C488 C 0.88008 0.61675 0.90367 0.0
C489 C 0.86735 0.62335 0.86876 0.0
C490 C 0.86189 0.63484 1.0026 0.0
O491 O 0.89942 0.616 0.08496 0.0
O492 O 0.90775 0.61922 0.15822 0.0
O493 O 0.88857 0.58512 0.14668 0.0
O494 O 0.8688 0.59441 0.0863 0.0
C495 C 0.91173 0.61843 0.11757 0.0
O496 O 0.90145 0.60926 0.24959 0.0
O497 O 0.88131 0.58854 0.24686 0.0
O498 O 0.85432 0.60502 0.17752 0.0
O499 O 0.84824 0.62701 0.1194 0.0
O500 O 0.87934 0.64687 0.1175 0.0
O501 O 0.87531 0.63678 0.18975 0.0
C502 C 0.87934 0.5821 0.10916 0.0
O503 O 0.85249 0.62388 0.0269 0.0
O504 O 0.87609 0.64021 0.02546 0.0
C505 C 0.89049 0.59851 0.31745 0.0
C506 C 0.88553 0.60349 0.40638 0.0
C507 C 0.90039 0.59396 0.39627 0.0
C508 C 0.90282 0.59153 0.35238 0.0
C509 C 0.87555 0.60796 0.32707 0.0
C510 C 0.87307 0.61038 0.37117 0.0
C511 C 0.89383 0.59597 0.27156 0.0
H512 H 0.84286 0.6388 0.85311 0.0
H513 H 0.83983 0.64458 0.92944 0.0
H514 H 0.8883 0.61497 0.97375 0.0
H515 H 0.89136 0.60889 0.89714 0.0
H516 H 0.91011 0.58819 0.42238 0.0
H517 H 0.91442 0.58417 0.34568 0.0
H518 H 0.86591 0.61354 0.30052 0.0
H519 H 0.86156 0.61792 0.37761 0.0
Tb520 Tb 0.12557 0.12236 0.7961 0.0
Eu521 Eu 0.14357 0.12537 0.89907 0.0
C522 C 0.13393 0.08862 0.86324 0.0
C523 C 0.10102 0.12526 0.87393 0.0
C524 C 0.11612 0.12142 0.67142 0.0
C525 C 0.10624 0.11924 0.5938 0.0
C526 C 0.10284 0.11765 0.63822 0.0
C527 C 0.1329 0.12706 0.6596 0.0
C528 C 0.13633 0.12872 0.61492 0.0
C529 C 0.12305 0.12464 0.5815 0.0
C530 C 0.11211 0.11874 0.71792 0.0
O531 O 0.13479 0.15015 0.79965 0.0
O532 O 0.13077 0.15192 0.87259 0.0
O533 O 0.16556 0.13152 0.85496 0.0
O534 O 0.15385 0.11783 0.79418 0.0
C535 C 0.132 0.15967 0.83241 0.0
O536 O 0.15761 0.14021 0.95064 0.0
O537 O 0.15095 0.11199 0.96514 0.0
O538 O 0.14756 0.09754 0.87953 0.0
O539 O 0.12116 0.09725 0.83725 0.0
O540 O 0.1034 0.12897 0.83177 0.0
O541 O 0.11425 0.12073 0.90455 0.0
C542 C 0.16725 0.12511 0.81691 0.0
O543 O 0.12112 0.10618 0.74354 0.0
O544 O 0.11021 0.13316 0.73802 0.0
C545 C 0.15312 0.12993 0.02539 0.0
C546 C 0.1464 0.13302 0.11402 0.0
C547 C 0.16312 0.13753 0.09962 0.0
C548 C 0.16643 0.13597 0.05581 0.0
C549 C 0.13622 0.12597 0.03907 0.0
C550 C 0.1329 0.12748 0.08297 0.0
C551 C 0.15764 0.12649 0.98096 0.0
H552 H 0.09561 0.1163 0.56901 0.0
H553 H 0.0898 0.11331 0.6467 0.0
H554 H 0.14336 0.12997 0.68488 0.0
H555 H 0.14945 0.13281 0.60664 0.0
H556 H 0.17389 0.14165 0.1226 0.0
H557 H 0.17959 0.13899 0.046 0.0
H558 H 0.12571 0.12132 0.0161 0.0
H559 H 0.11979 0.12416 0.0927 0.0
Tb560 Tb 0.63127 0.37133 0.59349 0.0
Eu561 Eu 0.62789 0.38819 0.68823 0.0
C562 C 0.66424 0.37997 0.65643 0.0
C563 C 0.62722 0.34551 0.68041 0.0
C564 C 0.63308 0.36154 0.47402 0.0
C565 C 0.63648 0.3516 0.40193 0.0
C566 C 0.63818 0.34837 0.44807 0.0
C567 C 0.62606 0.37804 0.45327 0.0
C568 C 0.6243 0.3813 0.40685 0.0
C569 C 0.62963 0.36813 0.38066 0.0
C570 C 0.63551 0.35762 0.5225 0.0
O571 O 0.60396 0.3816 0.59004 0.0
O572 O 0.6012 0.37765 0.6646 0.0
O573 O 0.6226 0.41156 0.63497 0.0
O574 O 0.63556 0.40008 0.57834 0.0
C575 C 0.59402 0.37995 0.62336 0.0
O576 O 0.61317 0.40193 0.73366 0.0
O577 O 0.64092 0.39464 0.75157 0.0
O578 O 0.65492 0.39343 0.66623 0.0
O579 O 0.65609 0.36677 0.63725 0.0
O580 O 0.62274 0.34913 0.63773 0.0
O581 O 0.63288 0.3581 0.70575 0.0
C582 C 0.62892 0.41361 0.59607 0.0
O583 O 0.6476 0.36689 0.54379 0.0
O584 O 0.6212 0.35571 0.54293 0.0
C585 C 0.62309 0.39652 0.81058 0.0
C586 C 0.61976 0.38928 0.9022 0.0
C587 C 0.61444 0.40606 0.87934 0.0
C588 C 0.61612 0.40963 0.83402 0.0
C589 C 0.62783 0.3795 0.83279 0.0
C590 C 0.6262 0.37592 0.87821 0.0
C591 C 0.62662 0.40146 0.76421 0.0
H592 H 0.6404 0.34104 0.38288 0.0
H593 H 0.64356 0.33553 0.46356 0.0
H594 H 0.62208 0.38838 0.4729 0.0
H595 H 0.61909 0.39421 0.39152 0.0
H596 H 0.60961 0.41672 0.89678 0.0
H597 H 0.61248 0.42288 0.81753 0.0
H598 H 0.63319 0.36913 0.8153 0.0
H599 H 0.63018 0.36277 0.89466 0.0
Tb600 Tb 0.37526 0.87326 0.43727 0.0
Eu601 Eu 0.37881 0.89257 0.33415 0.0
C602 C 0.34216 0.88339 0.36989 0.0
C603 C 0.37653 0.84908 0.35711 0.0
C604 C 0.37542 0.86306 0.562 0.0
C605 C 0.37502 0.85263 0.64015 0.0
C606 C 0.37242 0.84941 0.59554 0.0
C607 C 0.38123 0.88003 0.57371 0.0
C608 C 0.38381 0.88331 0.6185 0.0
C609 C 0.38069 0.86963 0.65236 0.0
C610 C 0.37175 0.8593 0.51532 0.0
O611 O 0.40283 0.882 0.43461 0.0
O612 O 0.40504 0.87979 0.3609 0.0
O613 O 0.38396 0.91489 0.37881 0.0
O614 O 0.37194 0.90199 0.44125 0.0
C615 C 0.41246 0.88028 0.40161 0.0
O616 O 0.39357 0.90696 0.28298 0.0
O617 O 0.36581 0.90028 0.26797 0.0
O618 O 0.35142 0.89688 0.3535 0.0
O619 O 0.35011 0.87023 0.3965 0.0
O620 O 0.37984 0.85068 0.3998 0.0
O621 O 0.3737 0.86304 0.32705 0.0
C622 C 0.37842 0.91593 0.41809 0.0
O623 O 0.35976 0.86941 0.49082 0.0
O624 O 0.3854 0.85645 0.49395 0.0
C625 C 0.38353 0.90283 0.20773 0.0
C626 C 0.38647 0.89666 0.11846 0.0
C627 C 0.39069 0.91359 0.13353 0.0
C628 C 0.3892 0.91662 0.1776 0.0
C629 C 0.37986 0.88571 0.19341 0.0
C630 C 0.38134 0.88266 0.14923 0.0
C631 C 0.38011 0.90712 0.25247 0.0
H632 H 0.37219 0.84185 0.66506 0.0
H633 H 0.36783 0.83625 0.58719 0.0
H634 H 0.38365 0.89074 0.54827 0.0
H635 H 0.38835 0.89651 0.6266 0.0
H636 H 0.395 0.9246 0.11114 0.0
H637 H 0.3921 0.92992 0.18791 0.0
H638 H 0.3754 0.87486 0.21605 0.0
H639 H 0.37786 0.86949 0.13886 0.0
C640 C 0.13735 0.61843 0.8005 0.0
C641 C 0.13157 0.63464 0.81467 0.0
C642 C 0.1359 0.61586 0.75534 0.0
C643 C 0.13151 0.64135 0.64358 0.0
H644 H 0.11844 0.59482 0.60378 0.0
C645 C 0.11972 0.63067 0.45674 0.0
C646 C 0.12594 0.61442 0.44378 0.0
C647 C 0.11976 0.63319 0.50175 0.0
C648 C 0.1223 0.60787 0.6143 0.0
H649 H 0.11909 0.66057 0.79201 0.0
H650 H 0.11662 0.65611 0.71355 0.0
H651 H 0.11963 0.59891 0.68237 0.0
H652 H 0.1375 0.58826 0.46849 0.0
H653 H 0.13761 0.59264 0.54649 0.0
H654 H 0.13433 0.65028 0.57561 0.0
C655 C 0.12259 0.6455 0.7373 0.0
C656 C 0.12298 0.61021 0.65947 0.0
C657 C 0.12401 0.64805 0.78241 0.0
C658 C 0.13226 0.60081 0.47708 0.0
C659 C 0.13232 0.60333 0.52198 0.0
C660 C 0.13087 0.639 0.59841 0.0
C661 C 0.12865 0.62943 0.72307 0.0
C662 C 0.12764 0.62697 0.67478 0.0
C663 C 0.12606 0.61954 0.53503 0.0
C664 C 0.12632 0.6222 0.58311 0.0
H665 H 0.14346 0.60789 0.82422 0.0
H666 H 0.14091 0.6034 0.74565 0.0
H667 H 0.13542 0.65438 0.65415 0.0
H668 H 0.11459 0.64137 0.43209 0.0
H669 H 0.11462 0.64576 0.51044 0.0
C670 C 0.61879 0.88997 0.05416 0.0
C671 C 0.63368 0.89276 0.08433 0.0
C672 C 0.62075 0.88769 1.00988 0.0
C673 C 0.65177 0.89673 0.92346 0.0
H674 H 0.62214 0.86255 0.86226 0.0
C675 C 0.66192 0.88026 0.7454 0.0
C676 C 0.64671 0.87752 0.71621 0.0
C677 C 0.66054 0.88218 0.79019 0.0
C678 C 0.63038 0.87233 0.87861 0.0
H679 H 0.66239 0.89517 0.09118 0.0
H680 H 0.66584 0.89094 0.01398 0.0
H681 H 0.61964 0.86525 0.94038 0.0
H682 H 0.61803 0.87475 0.7118 0.0
H683 H 0.61558 0.87844 0.78955 0.0
H684 H 0.66248 0.90384 0.8616 0.0
C685 C 0.65259 0.89072 0.02458 0.0
C686 C 0.62896 0.87386 0.92356 0.0
C687 C 0.65063 0.89294 0.06903 0.0
C688 C 0.63003 0.87699 0.73306 0.0
C689 C 0.62865 0.87888 0.7779 0.0
C690 C 0.65319 0.8952 0.87846 0.0
C691 C 0.63766 0.88813 0.99431 0.0
C692 C 0.63958 0.88613 0.94663 0.0
C693 C 0.6439 0.8814 0.80721 0.0
C694 C 0.64246 0.88302 0.85531 0.0
H695 H 0.60554 0.8895 0.06479 0.0
H696 H 0.60891 0.8859 0.98762 0.0
H697 H 0.65999 0.90652 0.93984 0.0
H698 H 0.67498 0.88096 0.73362 0.0
H699 H 0.6726 0.88394 0.81168 0.0
C700 C 0.35159 0.37073 0.33725 0.0
C701 C 0.3657 0.36617 0.37023 0.0
C702 C 0.35393 0.3707 0.29231 0.0
C703 C 0.38876 0.37306 0.21466 0.0
H704 H 0.35096 0.35632 0.13318 0.0
C705 C 0.39834 0.36646 0.03122 0.0
C706 C 0.38435 0.37248 0.99914 0.0
C707 C 0.396 0.36479 0.0764 0.0
C708 C 0.36158 0.3612 0.1554 0.0
H709 H 0.39335 0.35776 0.38143 0.0
H710 H 0.39743 0.35766 0.303 0.0
H711 H 0.3472 0.35498 0.21198 0.0
H712 H 0.35679 0.38126 0.98985 0.0
H713 H 0.35268 0.37825 0.06864 0.0
H714 H 0.40312 0.37933 0.15807 0.0
C715 C 0.38458 0.3615 0.31195 0.0
C716 C 0.35943 0.36044 0.20065 0.0
C717 C 0.38224 0.36155 0.35698 0.0
C718 C 0.36781 0.37638 1.01349 0.0
C719 C 0.36545 0.37467 0.05875 0.0
C720 C 0.39092 0.37379 0.16944 0.0
C721 C 0.37046 0.36612 0.27898 0.0
C722 C 0.37296 0.36644 0.2309 0.0
C723 C 0.37958 0.36904 0.09083 0.0
C724 C 0.37734 0.36793 0.13915 0.0
H725 H 0.33877 0.37473 0.34607 0.0
H726 H 0.34284 0.37466 0.26796 0.0
H727 H 0.39934 0.37807 0.23676 0.0
H728 H 0.41116 0.36298 0.02143 0.0
H729 H 0.40707 0.36007 0.10006 0.0
C730 C 0.87448 0.12702 0.55858 0.0
C731 C 0.8897 0.12011 0.58517 0.0
C732 C 0.87387 0.12855 0.51235 0.0
C733 C 0.90192 0.13051 0.41937 0.0
H734 H 0.85858 0.11584 0.35349 0.0
C735 C 0.89613 0.12721 0.22895 0.0
C736 C 0.88023 0.13385 0.20494 0.0
C737 C 0.8977 0.12478 0.27539 0.0
C738 C 0.87072 0.12017 0.37128 0.0
H739 H 0.91644 0.10991 0.5838 0.0
H740 H 0.91533 0.1125 0.503 0.0
H741 H 0.86066 0.11373 0.43409 0.0
H742 H 0.85333 0.14257 0.21107 0.0
H743 H 0.85616 0.13868 0.29163 0.0
H744 H 0.91192 0.13711 0.35644 0.0
C745 C 0.90387 0.11677 0.518 0.0
C746 C 0.87191 0.11896 0.41756 0.0
C747 C 0.90446 0.11515 0.56431 0.0
C748 C 0.86586 0.13766 0.22846 0.0
C749 C 0.86741 0.13522 0.27475 0.0
C750 C 0.90071 0.13177 0.37299 0.0
C751 C 0.88848 0.12328 0.49145 0.0
C752 C 0.88747 0.12425 0.44219 0.0
C753 C 0.88338 0.12884 0.29889 0.0
C754 C 0.88504 0.12675 0.34833 0.0
H755 H 0.86281 0.13079 0.57347 0.0
H756 H 0.86189 0.13385 0.49293 0.0
H757 H 0.91403 0.13484 0.4373 0.0
H758 H 0.9075 0.12425 0.21191 0.0
H759 H 0.91013 0.11966 0.29288 0.0
C760 C 0.14218 0.38909 0.24125 0.0
C761 C 0.13966 0.37207 0.22535 0.0
C762 C 0.14016 0.39141 0.28557 0.0
C763 C 0.14026 0.3656 0.39653 0.0
H764 H 0.11849 0.40896 0.42774 0.0
C765 C 0.12541 0.37371 0.57661 0.0
C766 C 0.12865 0.39071 0.59215 0.0
C767 C 0.12612 0.37136 0.53175 0.0
C768 C 0.12478 0.39684 0.4197 0.0
H769 H 0.13236 0.34429 0.24361 0.0
H770 H 0.12887 0.34831 0.32054 0.0
H771 H 0.12087 0.40519 0.35001 0.0
H772 H 0.13554 0.41848 0.57231 0.0
H773 H 0.13675 0.41439 0.49451 0.0
H774 H 0.14427 0.35729 0.46619 0.0
C775 C 0.13276 0.35982 0.29904 0.0
C776 C 0.12614 0.39468 0.37503 0.0
C777 C 0.13477 0.35751 0.2548 0.0
C778 C 0.1326 0.40527 0.56154 0.0
C779 C 0.13331 0.40292 0.51677 0.0
C780 C 0.13891 0.36777 0.44119 0.0
C781 C 0.13557 0.37676 0.31518 0.0
C782 C 0.13393 0.37904 0.3628 0.0
C783 C 0.13011 0.38593 0.5012 0.0
C784 C 0.13119 0.38344 0.45345 0.0
H785 H 0.14616 0.40056 0.21976 0.0
H786 H 0.14264 0.4046 0.29688 0.0
H787 H 0.14661 0.35351 0.38852 0.0
H788 H 0.12213 0.36223 0.59904 0.0
H789 H 0.12334 0.35813 0.52092 0.0
C790 C 0.88146 0.863 0.85207 0.0
C791 C 0.86506 0.86828 0.86493 0.0
C792 C 0.88391 0.86275 0.80715 0.0
C793 C 0.85902 0.86218 0.69538 0.0
H794 H 0.90353 0.87913 0.65377 0.0
C795 C 0.86865 0.87611 0.5083 0.0
C796 C 0.88515 0.87151 0.49475 0.0
C797 C 0.86606 0.87496 0.55341 0.0
C798 C 0.89109 0.87413 0.66485 0.0
H799 H 0.83848 0.87778 0.84004 0.0
H800 H 0.84273 0.87731 0.76211 0.0
H801 H 0.89944 0.8785 0.73218 0.0
H802 H 0.91162 0.86137 0.51844 0.0
H803 H 0.90713 0.85943 0.59674 0.0
H804 H 0.85064 0.85793 0.62793 0.0
C805 C 0.85363 0.87303 0.78674 0.0
C806 C 0.88874 0.87376 0.70993 0.0
C807 C 0.85119 0.87328 0.83158 0.0
C808 C 0.89885 0.86539 0.52754 0.0
C809 C 0.89628 0.86427 0.57256 0.0
C810 C 0.86136 0.86257 0.65027 0.0
C811 C 0.87003 0.86779 0.77383 0.0
C812 C 0.87266 0.86782 0.72585 0.0
C813 C 0.87991 0.86919 0.58618 0.0
C814 C 0.87742 0.86858 0.63435 0.0
H815 H 0.89238 0.85884 0.87676 0.0
H816 H 0.89665 0.85839 0.79856 0.0
H817 H 0.84655 0.85725 0.70644 0.0
H818 H 0.85785 0.88109 0.48411 0.0
H819 H 0.85333 0.87906 0.56261 0.0
C820 C 0.39966 0.62986 0.73356 0.0
C821 C 0.38621 0.64076 0.70915 0.0
C822 C 0.40103 0.62778 0.78001 0.0
C823 C 0.38735 0.64959 0.87568 0.0
H824 H 0.39867 0.60299 0.94119 0.0
C825 C 0.37956 0.63507 0.06273 0.0
C826 C 0.39234 0.62401 0.08921 0.0
C827 C 0.3797 0.63752 0.01663 0.0
C828 C 0.39573 0.61616 0.92346 0.0
H829 H 0.36325 0.65746 0.71457 0.0
H830 H 0.36558 0.65379 0.79517 0.0
H831 H 0.39712 0.60613 0.86045 0.0
H832 H 0.4157 0.60735 0.08781 0.0
H833 H 0.41597 0.61165 1.00745 0.0
H834 H 0.38583 0.6596 0.93861 0.0
C835 C 0.37536 0.64718 0.77859 0.0
C836 C 0.39483 0.61796 0.87711 0.0
C837 C 0.374 0.64926 0.73229 0.0
C838 C 0.40549 0.61574 0.06841 0.0
C839 C 0.40563 0.61818 0.0223 0.0
C840 C 0.38823 0.64779 0.92198 0.0
C841 C 0.38897 0.63653 0.80313 0.0
C842 C 0.3905 0.63467 0.85258 0.0
C843 C 0.39264 0.62898 0.99576 0.0
C844 C 0.39232 0.63103 0.94649 0.0
H845 H 0.40938 0.62325 0.71681 0.0
H846 H 0.41178 0.61962 0.79782 0.0
H847 H 0.38432 0.66275 0.85798 0.0
H848 H 0.36906 0.64141 0.07746 0.0
H849 H 0.36934 0.64572 0.99724 0.0
C850 C 0.61836 0.13 0.95543 0.0
C851 C 0.62555 0.1141 0.94295 0.0
C852 C 0.618 0.13256 1.00031 0.0
C853 C 0.62125 0.10751 0.11325 0.0
H854 H 0.63136 0.15477 0.15234 0.0
C855 C 0.63422 0.11914 0.29929 0.0
C856 C 0.6274 0.13502 0.31285 0.0
C857 C 0.63328 0.11644 0.25425 0.0
C858 C 0.62829 0.14152 0.14198 0.0
H859 H 0.63842 0.08864 0.96841 0.0
H860 H 0.63785 0.0931 0.0462 0.0
H861 H 0.63109 0.15053 0.07404 0.0
H862 H 0.61361 0.16019 0.2892 0.0
H863 H 0.61203 0.1555 0.21096 0.0
H864 H 0.6186 0.09848 0.18129 0.0
C865 C 0.63211 0.10346 0.02139 0.0
C866 C 0.62812 0.13908 0.09694 0.0
C867 C 0.63244 0.10089 0.97661 0.0
C868 C 0.61933 0.14795 0.2801 0.0
C869 C 0.61842 0.14527 0.23511 0.0
C870 C 0.62146 0.10994 0.15829 0.0
C871 C 0.62487 0.11932 0.03396 0.0
C872 C 0.62466 0.12203 0.08191 0.0
C873 C 0.6255 0.12954 0.22148 0.0
C874 C 0.62502 0.12697 0.17333 0.0
H875 H 0.61275 0.14038 0.9305 0.0
H876 H 0.6121 0.14484 1.0086 0.0
H877 H 0.61823 0.09424 0.10293 0.0
H878 H 0.64075 0.10898 0.3234 0.0
H879 H 0.63907 0.10426 0.24505 0.0
C880 C 0.89602 0.38123 0.21196 0.0
C881 C 0.88144 0.37207 0.19224 0.0
C882 C 0.89705 0.38419 0.2569 0.0
C883 C 0.86925 0.3854 0.35073 0.0
H884 H 0.9142 0.37868 0.42396 0.0
C885 C 0.87342 0.38177 0.54178 0.0
C886 C 0.88756 0.39073 0.56392 0.0
C887 C 0.87307 0.37979 0.49651 0.0
C888 C 0.90157 0.38081 0.40392 0.0
H889 H 0.85628 0.35936 0.20437 0.0
H890 H 0.85821 0.3642 0.28239 0.0
H891 H 0.9128 0.37523 0.34488 0.0
H892 H 0.91266 0.40423 0.55557 0.0
H893 H 0.91196 0.40094 0.47653 0.0
H894 H 0.858 0.39088 0.40969 0.0
C895 C 0.86883 0.36922 0.26323 0.0
C896 C 0.90077 0.37885 0.35848 0.0
C897 C 0.86783 0.36623 0.21848 0.0
C898 C 0.90148 0.39741 0.53959 0.0
C899 C 0.90116 0.39536 0.4943 0.0
C900 C 0.87005 0.38733 0.3961 0.0
C901 C 0.88348 0.37817 0.28319 0.0
C902 C 0.88457 0.38099 0.3313 0.0
C903 C 0.88687 0.38666 0.47202 0.0
C904 C 0.88619 0.38494 0.42343 0.0
H905 H 0.9068 0.38583 0.19287 0.0
H906 H 0.90844 0.3913 0.27097 0.0
H907 H 0.8566 0.3875 0.33079 0.0
H908 H 0.86237 0.37663 0.55922 0.0
H909 H 0.86197 0.3728 0.48068 0.0
C910 C 0.38221 0.12477 0.30737 0.0
C911 C 0.3655 0.12466 0.32394 0.0
C912 C 0.38361 0.12273 0.26262 0.0
C913 C 0.35888 0.10668 0.16211 0.0
H914 H 0.39253 0.13641 0.09997 0.0
C915 C 0.36078 0.10929 0.97146 0.0
C916 C 0.37766 0.10942 0.95573 0.0
C917 C 0.35904 0.11141 0.01605 0.0
C918 C 0.38319 0.12786 0.11686 0.0
H919 H 0.33718 0.12175 0.30631 0.0
H920 H 0.33958 0.11846 0.22842 0.0
H921 H 0.39024 0.13905 0.17823 0.0
H922 H 0.40587 0.11244 0.97463 0.0
H923 H 0.40287 0.11583 0.05209 0.0
H924 H 0.35184 0.09548 0.1007 0.0
C925 C 0.35166 0.12004 0.25001 0.0
C926 C 0.38189 0.12936 0.16187 0.0
C927 C 0.35026 0.12213 0.29469 0.0
C928 C 0.39268 0.11202 0.98561 0.0
C929 C 0.39094 0.11419 0.03004 0.0
C930 C 0.36018 0.10518 0.11707 0.0
C931 C 0.36833 0.12045 0.23322 0.0
C932 C 0.36975 0.11876 0.1852 0.0
C933 C 0.37411 0.11381 0.04602 0.0
C934 C 0.37239 0.11571 0.09381 0.0
H935 H 0.39423 0.12684 0.32876 0.0
H936 H 0.3967 0.12289 0.25108 0.0
H937 H 0.34955 0.09813 0.17903 0.0
H938 H 0.34893 0.1072 0.94953 0.0
H939 H 0.34584 0.11126 0.02698 0.0
C940 C 0.61448 0.63798 0.99892 0.0
C941 C 0.62841 0.63253 0.03174 0.0
C942 C 0.61705 0.63906 0.95392 0.0
C943 C 0.65178 0.64188 0.87578 0.0
H944 H 0.61451 0.62338 0.79574 0.0
C945 C 0.66219 0.63006 0.69528 0.0
C946 C 0.64803 0.63413 0.66209 0.0
C947 C 0.65984 0.63064 0.74007 0.0
C948 C 0.62496 0.62883 0.81745 0.0
H949 H 0.6561 0.62425 0.04256 0.0
H950 H 0.6606 0.62623 0.96402 0.0
H951 H 0.61052 0.62314 0.87409 0.0
H952 H 0.62033 0.64232 0.65037 0.0
H953 H 0.61622 0.64331 0.72847 0.0
H954 H 0.66624 0.64751 0.8191 0.0
C955 C 0.6477 0.62979 0.97319 0.0
C956 C 0.62267 0.62869 0.86248 0.0
C957 C 0.64512 0.62867 0.01829 0.0
C958 C 0.63146 0.63886 0.67498 0.0
C959 C 0.62911 0.63943 0.71983 0.0
C960 C 0.65406 0.64204 0.8307 0.0
C961 C 0.63362 0.63479 0.94039 0.0
C962 C 0.63606 0.63518 0.8923 0.0
C963 C 0.64325 0.63527 0.75301 0.0
C964 C 0.64069 0.63548 0.80092 0.0
H965 H 0.60153 0.64142 1.00798 0.0
H966 H 0.60601 0.64332 0.92968 0.0
H967 H 0.66226 0.64722 0.89762 0.0
H968 H 0.67505 0.62602 0.68678 0.0
H969 H 0.67095 0.62705 0.76465 0.0
C970 C 0.11811 0.90068 0.4763 0.0
C971 C 0.11592 0.88575 0.4514 0.0
C972 C 0.11829 0.89846 0.52247 0.0
C973 C 0.12606 0.86408 0.61904 0.0
H974 H 0.10345 0.89941 0.6805 0.0
C975 C 0.12078 0.85312 0.80737 0.0
C976 C 0.12424 0.86799 0.83193 0.0
C977 C 0.11887 0.85535 0.76103 0.0
C978 C 0.10998 0.88951 0.6639 0.0
H979 H 0.11188 0.85679 0.45589 0.0
H980 H 0.11219 0.85292 0.53645 0.0
H981 H 0.10169 0.90299 0.5997 0.0
H982 H 0.12811 0.89698 0.82665 0.0
H983 H 0.12474 0.90091 0.74569 0.0
H984 H 0.13443 0.85064 0.68315 0.0
C985 C 0.11401 0.86634 0.52022 0.0
C986 C 0.10897 0.89156 0.61752 0.0
C987 C 0.11382 0.86855 0.47398 0.0
C988 C 0.12528 0.88525 0.80885 0.0
C989 C 0.12336 0.8875 0.76239 0.0
C990 C 0.12706 0.86202 0.66537 0.0
C991 C 0.11632 0.88126 0.5451 0.0
C992 C 0.11703 0.87889 0.59447 0.0
C993 C 0.12033 0.87254 0.73788 0.0
C994 C 0.11906 0.87472 0.68844 0.0
H995 H 0.12011 0.91408 0.46022 0.0
H996 H 0.12041 0.91022 0.54052 0.0
H997 H 0.13269 0.85422 0.60252 0.0
H998 H 0.11951 0.83967 0.82399 0.0
H999 H 0.11617 0.84358 0.74332 0.0
C1000 C 0.8544 0.61658 0.79257 0.0
C1001 C 0.86933 0.6203 0.82171 0.0
C1002 C 0.85607 0.61458 0.74796 0.0
C1003 C 0.8858 0.62612 0.65954 0.0
H1004 H 0.85839 0.59013 0.59913 0.0
C1005 C 0.89801 0.60993 0.4831 0.0
C1006 C 0.88324 0.6062 0.45348 0.0
C1007 C 0.89609 0.61186 0.5276 0.0
C1008 C 0.86598 0.60042 0.61527 0.0
H1009 H 0.89781 0.62467 0.82632 0.0
H1010 H 0.90077 0.62087 0.74881 0.0
H1011 H 0.85573 0.59259 0.67737 0.0
H1012 H 0.85478 0.60169 0.44791 0.0
H1013 H 0.85138 0.60536 0.52536 0.0
H1014 H 0.89605 0.63396 0.59749 0.0
C1015 C 0.88769 0.61972 0.76037 0.0
C1016 C 0.86447 0.60182 0.66027 0.0
C1017 C 0.88603 0.62167 0.80505 0.0
C1018 C 0.86644 0.60469 0.46959 0.0
C1019 C 0.86452 0.60658 0.51421 0.0
C1020 C 0.88731 0.62473 0.61455 0.0
C1021 C 0.87271 0.61626 0.73109 0.0
C1022 C 0.87439 0.61467 0.6831 0.0
C1023 C 0.87935 0.61012 0.54392 0.0
C1024 C 0.87745 0.61183 0.59175 0.0
H1025 H 0.84135 0.61522 0.80423 0.0
H1026 H 0.8442 0.61208 0.72647 0.0
H1027 H 0.8934 0.6364 0.67567 0.0
H1028 H 0.91112 0.61143 0.47188 0.0
H1029 H 0.90785 0.61441 0.54942 0.0
C1030 C 0.13613 0.14023 0.51468 0.0
C1031 C 0.12656 0.12576 0.53397 0.0
C1032 C 0.13851 0.14162 0.4694 0.0
C1033 C 0.11907 0.12566 0.36348 0.0
H1034 H 0.1637 0.14136 0.3204 0.0
C1035 C 0.1338 0.11944 0.18323 0.0
C1036 C 0.14337 0.13334 0.16162 0.0
C1037 C 0.13164 0.1192 0.22835 0.0
C1038 C 0.15106 0.13717 0.33177 0.0
H1039 H 0.11275 0.10094 0.52099 0.0
H1040 H 0.11693 0.1033 0.44254 0.0
H1041 H 0.16054 0.13955 0.39964 0.0
H1042 H 0.15782 0.15815 0.17067 0.0
H1043 H 0.15398 0.15779 0.24931 0.0
H1044 H 0.10957 0.12323 0.29579 0.0
C1045 C 0.12223 0.11386 0.462 0.0
C1046 C 0.14926 0.13613 0.37728 0.0
C1047 C 0.11985 0.11249 0.5071 0.0
C1048 C 0.15056 0.14711 0.18632 0.0
C1049 C 0.14839 0.14688 0.23148 0.0
C1050 C 0.12086 0.12671 0.31805 0.0
C1051 C 0.1314 0.12854 0.44236 0.0
C1052 C 0.13328 0.13021 0.39379 0.0
C1053 C 0.13896 0.13287 0.25318 0.0
C1054 C 0.13692 0.13235 0.30155 0.0
H1055 H 0.14136 0.15077 0.5343 0.0
H1056 H 0.14553 0.15318 0.45537 0.0
H1057 H 0.10644 0.1214 0.3748 0.0
H1058 H 0.12835 0.10843 0.16556 0.0
H1059 H 0.12455 0.10803 0.24401 0.0
C1060 C 0.64185 0.36563 0.30791 0.0
C1061 C 0.62821 0.37143 0.33138 0.0
C1062 C 0.64022 0.36767 0.26162 0.0
C1063 C 0.61599 0.39277 0.16289 0.0
H1064 H 0.63151 0.3529 0.10331 0.0
C1065 C 0.60526 0.39253 0.97194 0.0
C1066 C 0.61944 0.38612 0.9512 0.0
C1067 C 0.60551 0.39042 0.01817 0.0
C1068 C 0.62727 0.36424 0.11936 0.0
H1069 H 0.60226 0.38428 0.32431 0.0
H1070 H 0.59942 0.38791 0.24324 0.0
H1071 H 0.63365 0.35034 0.18394 0.0
H1072 H 0.64504 0.37253 0.96308 0.0
H1073 H 0.64548 0.36886 0.04344 0.0
H1074 H 0.60975 0.40672 0.09821 0.0
C1075 C 0.61144 0.38185 0.26083 0.0
C1076 C 0.6285 0.36277 0.16565 0.0
C1077 C 0.61308 0.37979 0.3073 0.0
C1078 C 0.63375 0.37734 0.97783 0.0
C1079 C 0.63401 0.37525 0.024 0.0
C1080 C 0.61479 0.39425 0.1165 0.0
C1081 C 0.62491 0.3756 0.23743 0.0
C1082 C 0.62302 0.37707 0.18805 0.0
C1083 C 0.61994 0.38186 0.04483 0.0
C1084 C 0.62055 0.38005 0.09414 0.0
H1085 H 0.65386 0.35949 0.32537 0.0
H1086 H 0.65103 0.36308 0.24473 0.0
H1087 H 0.61182 0.4041 0.17906 0.0
H1088 H 0.59393 0.39915 0.9524 0.0
H1089 H 0.59432 0.39541 0.033 0.0
C1090 C 0.3808 0.90758 0.03716 0.0
C1091 C 0.38685 0.89391 0.07059 0.0
C1092 C 0.38092 0.90506 0.99228 0.0
C1093 C 0.38233 0.8693 0.91602 0.0
H1094 H 0.3945 0.90908 0.83233 0.0
C1095 C 0.39005 0.85955 0.73291 0.0
C1096 C 0.38294 0.87302 0.70017 0.0
C1097 C 0.39127 0.86226 0.77792 0.0
C1098 C 0.39089 0.89787 0.85514 0.0
H1099 H 0.39797 0.86685 0.08248 0.0
H1100 H 0.39822 0.86245 1.00425 0.0
H1101 H 0.39526 0.91332 0.91079 0.0
H1102 H 0.3717 0.90005 0.68963 0.0
H1103 H 0.37386 0.9048 0.76803 0.0
H1104 H 0.3779 0.85386 0.86038 0.0
C1105 C 0.39314 0.87508 1.0128 0.0
C1106 C 0.39132 0.9003 0.90024 0.0
C1107 C 0.39301 0.87761 0.05776 0.0
C1108 C 0.37745 0.88945 0.71375 0.0
C1109 C 0.37868 0.89217 0.75883 0.0
C1110 C 0.38191 0.86687 0.87094 0.0
C1111 C 0.38708 0.88878 0.97939 0.0
C1112 C 0.38699 0.88607 0.93135 0.0
C1113 C 0.38544 0.87854 0.7916 0.0
C1114 C 0.38614 0.88112 0.8398 0.0
H1115 H 0.37562 0.92018 0.04561 0.0
H1116 H 0.37583 0.91579 0.96765 0.0
H1117 H 0.37862 0.85811 0.93874 0.0
H1118 H 0.39475 0.84686 0.72377 0.0
H1119 H 0.39689 0.8516 0.80203 0.0
C1120 C 0.13288 0.67865 0.22146 0.0
C1121 C 0.13707 0.67589 0.17872 0.0
C1122 C 0.13307 0.6961 0.23509 0.0
C1123 C 0.15165 0.74143 0.21263 0.0
H1124 H 0.10771 0.75998 0.24648 0.0
C1125 C 0.11492 0.81272 0.186 0.0
C1126 C 0.12824 0.82435 0.20171 0.0
C1127 C 0.11629 0.79412 0.19751 0.0
C1128 C 0.12017 0.75491 0.23779 0.0
H1129 H 0.14534 0.68912 0.11744 0.0
H1130 H 0.14601 0.71935 0.14153 0.0
H1131 H 0.11058 0.7277 0.23869 0.0
H1132 H 0.1531 0.82586 0.24314 0.0
H1133 H 0.15581 0.79301 0.26248 0.0
H1134 H 0.161 0.76869 0.2099 0.0
C1135 C 0.14245 0.7081 0.16435 0.0
C1136 C 0.12182 0.73645 0.23351 0.0
C1137 C 0.14191 0.6908 0.15044 0.0
C1138 C 0.14258 0.81715 0.23099 0.0
C1139 C 0.14417 0.7984 0.24178 0.0
C1140 C 0.1501 0.75981 0.21756 0.0
C1141 C 0.13789 0.71098 0.20661 0.0
C1142 C 0.13735 0.72967 0.21933 0.0
C1143 C 0.13122 0.78669 0.22425 0.0
C1144 C 0.13411 0.76684 0.22866 0.0
H1145 H 0.1291 0.6674 0.24395 0.0
H1146 H 0.12947 0.69799 0.26782 0.0
H1147 H 0.1638 0.73651 0.20188 0.0
H1148 H 0.10374 0.81798 0.16332 0.0
H1149 H 0.10621 0.78547 0.1831 0.0
C1150 C 0.5711 0.87909 0.38336 0.0
C1151 C 0.58335 0.88264 0.41931 0.0
C1152 C 0.55299 0.87765 0.38808 0.0
C1153 C 0.51796 0.8908 0.45338 0.0
H1154 H 0.49172 0.85339 0.39538 0.0
C1155 C 0.44106 0.88203 0.45141 0.0
C1156 C 0.43215 0.87928 0.40981 0.0
C1157 C 0.45969 0.88139 0.45823 0.0
C1158 C 0.49882 0.86396 0.41162 0.0
H1159 H 0.58599 0.88765 0.48853 0.0
H1160 H 0.55406 0.8852 0.4967 0.0
H1161 H 0.52399 0.85419 0.39766 0.0
H1162 H 0.43593 0.87362 0.3429 0.0
H1163 H 0.46815 0.87255 0.35475 0.0
H1164 H 0.49262 0.90078 0.46641 0.0
C1165 C 0.55866 0.88354 0.46484 0.0
C1166 C 0.51733 0.86441 0.41296 0.0
C1167 C 0.57693 0.88487 0.46019 0.0
C1168 C 0.44228 0.87577 0.37541 0.0
C1169 C 0.46081 0.87503 0.38228 0.0
C1170 C 0.49936 0.89035 0.45202 0.0
C1171 C 0.54652 0.87975 0.42884 0.0
C1172 C 0.5271 0.8781 0.43279 0.0
C1173 C 0.46977 0.87781 0.42373 0.0
C1174 C 0.48956 0.87719 0.43006 0.0
H1175 H 0.57546 0.87734 0.35129 0.0
H1176 H 0.544 0.87507 0.35945 0.0
H1177 H 0.52511 0.90155 0.46876 0.0
H1178 H 0.43366 0.88479 0.47863 0.0
H1179 H 0.4662 0.88351 0.4906 0.0
C1180 C 0.37322 0.31316 0.73895 0.0
C1181 C 0.37642 0.32332 0.69903 0.0
C1182 C 0.37195 0.29425 0.74118 0.0
C1183 C 0.36126 0.25838 0.66827 0.0
H1184 H 0.3873 0.22566 0.75905 0.0
C1185 C 0.37535 0.18581 0.63861 0.0
C1186 C 0.37324 0.17178 0.6722 0.0
C1187 C 0.37457 0.20382 0.64705 0.0
C1188 C 0.37973 0.23463 0.73388 0.0
H1189 H 0.38133 0.32141 0.63061 0.0
H1190 H 0.37911 0.28886 0.63463 0.0
H1191 H 0.38812 0.25832 0.76509 0.0
H1192 H 0.369 0.16584 0.74151 0.0
H1193 H 0.3677 0.19761 0.7563 0.0
H1194 H 0.35313 0.23497 0.63649 0.0
C1195 C 0.37734 0.29541 0.66405 0.0
C1196 C 0.3802 0.2533 0.73735 0.0
C1197 C 0.37871 0.31414 0.66188 0.0
C1198 C 0.37063 0.1763 0.71484 0.0
C1199 C 0.36994 0.19447 0.72338 0.0
C1200 C 0.36077 0.23985 0.66486 0.0
C1201 C 0.37367 0.28525 0.70341 0.0
C1202 C 0.3714 0.26538 0.70379 0.0
C1203 C 0.37168 0.20841 0.68933 0.0
C1204 C 0.37043 0.22778 0.69684 0.0
H1205 H 0.37142 0.31981 0.76819 0.0
H1206 H 0.36914 0.28673 0.772 0.0
H1207 H 0.354 0.26732 0.64242 0.0
H1208 H 0.37748 0.18294 0.60542 0.0
H1209 H 0.37632 0.21421 0.6203 0.0
C1210 C 0.94405 0.12237 0.95356 0.0
C1211 C 0.93428 0.12838 0.91299 0.0
C1212 C 0.96269 0.12311 0.95799 0.0
C1213 C 1.00016 0.14607 0.90716 0.0
H1214 H 0.0277 0.10303 0.95156 0.0
C1215 C 0.06917 0.13432 0.85544 0.0
C1216 C 0.08268 0.12663 0.88667 0.0
C1217 C 0.05179 0.13559 0.86632 0.0
C1218 C 0.02024 0.11527 0.93986 0.0
H1219 H 0.93645 0.14016 0.84561 0.0
H1220 H 0.96866 0.14152 0.85345 0.0
H1221 H 0.99562 0.10347 0.95733 0.0
H1222 H 0.08845 0.11423 0.95414 0.0
H1223 H 0.05779 0.11636 0.97314 0.0
H1224 H 0.02454 0.15773 0.88851 0.0
C1225 C 0.96201 0.13629 0.8819 0.0
C1226 C 1.00188 0.11552 0.94316 0.0
C1227 C 0.94351 0.13537 0.87733 0.0
C1228 C 0.07835 0.12025 0.92931 0.0
C1229 C 0.06081 0.1214 0.94015 0.0
C1230 C 0.01843 0.14583 0.90394 0.0
C1231 C 0.97184 0.13014 0.92216 0.0
C1232 C 0.99158 0.13073 0.92549 0.0
C1233 C 0.04736 0.12916 0.90873 0.0
C1234 C 0.02859 0.13024 0.91888 0.0
H1235 H 0.93732 0.11687 0.98161 0.0
H1236 H 0.96994 0.11829 0.98943 0.0
H1237 H 0.99263 0.15812 0.89407 0.0
H1238 H 0.07195 0.13941 0.82228 0.0
H1239 H 0.04171 0.14134 0.84107 0.0
C1240 C 0.13363 0.32601 0.82476 0.0
C1241 C 0.14062 0.33004 0.86712 0.0
C1242 C 0.1325 0.30799 0.81478 0.0
C1243 C 0.13129 0.26198 0.87371 0.0
H1244 H 0.13771 0.24543 0.75983 0.0
C1245 C 0.1183 0.18828 0.8477 0.0
C1246 C 0.13038 0.1795 0.82507 0.0
C1247 C 0.11801 0.20707 0.84591 0.0
C1248 C 0.13598 0.24983 0.79192 0.0
H1249 H 0.15323 0.31865 0.93085 0.0
H1250 H 0.15191 0.28765 0.91316 0.0
H1251 H 0.14157 0.27747 0.77035 0.0
H1252 H 0.15116 0.18334 0.7812 0.0
H1253 H 0.15134 0.21635 0.77965 0.0
H1254 H 0.12656 0.23457 0.89632 0.0
C1255 C 0.14654 0.29811 0.88814 0.0
C1256 C 0.138 0.26823 0.79779 0.0
C1257 C 0.14738 0.31594 0.89825 0.0
C1258 C 0.14169 0.18987 0.79886 0.0
C1259 C 0.14172 0.20876 0.7979 0.0
C1260 C 0.12946 0.24371 0.86804 0.0
C1261 C 0.13855 0.29379 0.84687 0.0
C1262 C 0.13585 0.27447 0.839 0.0
C1263 C 0.13021 0.21757 0.82252 0.0
C1264 C 0.13175 0.23731 0.82713 0.0
H1265 H 0.12837 0.33666 0.80008 0.0
H1266 H 0.12628 0.30516 0.78265 0.0
H1267 H 0.12914 0.26627 0.90566 0.0
H1268 H 0.10923 0.18057 0.86754 0.0
H1269 H 0.10851 0.21332 0.86399 0.0
C1270 C 0.06471 0.8806 0.07295 0.0
C1271 C 0.07378 0.87323 0.11329 0.0
C1272 C 0.0461 0.87966 0.06595 0.0
C1273 C 0.00779 0.85428 0.10589 0.0
H1274 H 0.98066 0.89858 0.07374 0.0
C1275 C 0.93895 0.86325 0.16083 0.0
C1276 C 0.9256 0.87282 0.13254 0.0
C1277 C 0.95618 0.86219 0.14881 0.0
C1278 C 0.98799 0.88601 0.08181 0.0
H1279 H 0.07051 0.85864 0.17727 0.0
H1280 H 0.03835 0.85681 0.16488 0.0
H1281 H 0.01287 0.89867 0.0697 0.0
H1282 H 0.91988 0.88859 0.06887 0.0
H1283 H 0.95033 0.88684 0.04787 0.0
H1284 H 0.98316 0.8417 0.11937 0.0
C1285 C 0.0455 0.86335 0.13867 0.0
C1286 C 0.00643 0.88608 0.07953 0.0
C1287 C 0.06395 0.86453 0.14589 0.0
C1288 C 0.92987 0.8811 0.09139 0.0
C1289 C 0.94729 0.88017 0.07946 0.0
C1290 C 0.98944 0.8542 0.108 0.0
C1291 C 0.03632 0.87099 0.09881 0.0
C1292 C 0.01658 0.87034 0.09314 0.0
C1293 C 0.96063 0.87071 0.10818 0.0
C1294 C 0.97941 0.8702 0.09763 0.0
H1295 H 0.07194 0.88743 0.04726 0.0
H1296 H 0.03935 0.88565 0.0349 0.0
H1297 H 0.01522 0.84187 0.11577 0.0
H1298 H 0.93618 0.85663 0.1927 0.0
H1299 H 0.96616 0.85505 0.17208 0.0
C1300 C 0.3685 0.68825 0.30357 0.0
C1301 C 0.38332 0.68134 0.33157 0.0
C1302 C 0.36684 0.7069 0.29127 0.0
C1303 C 0.36169 0.74594 0.3128 0.0
H1304 H 0.40069 0.77769 0.28436 0.0
C1305 C 0.37127 0.81606 0.37313 0.0
C1306 C 0.37554 0.83061 0.34303 0.0
C1307 C 0.37047 0.79851 0.36079 0.0
C1308 C 0.38958 0.76902 0.29159 0.0
H1309 H 0.40859 0.68809 0.36589 0.0
H1310 H 0.40598 0.72042 0.34352 0.0
H1311 H 0.40325 0.74519 0.27883 0.0
H1312 H 0.38227 0.83817 0.27619 0.0
H1313 H 0.38145 0.80715 0.25501 0.0
H1314 H 0.34847 0.76958 0.32819 0.0
C1315 C 0.39556 0.71161 0.33128 0.0
C1316 C 0.39107 0.75045 0.28861 0.0
C1317 C 0.39703 0.69311 0.34428 0.0
C1318 C 0.37892 0.82722 0.30007 0.0
C1319 C 0.37849 0.80951 0.28798 0.0
C1320 C 0.36032 0.76445 0.31642 0.0
C1321 C 0.38019 0.7188 0.30598 0.0
C1322 C 0.37733 0.73866 0.30036 0.0
C1323 C 0.37421 0.79501 0.31827 0.0
C1324 C 0.37444 0.77608 0.30706 0.0
H1325 H 0.35768 0.67944 0.29368 0.0
H1326 H 0.35486 0.7121 0.27169 0.0
H1327 H 0.35096 0.73719 0.32249 0.0
H1328 H 0.36846 0.81822 0.40636 0.0
H1329 H 0.36735 0.78756 0.38497 0.0
C1330 C 0.56866 0.12078 0.6512 0.0
C1331 C 0.57807 0.12177 0.61356 0.0
C1332 C 0.55016 0.1194 0.64712 0.0
C1333 C 0.50991 0.12816 0.56948 0.0
H1334 H 0.48856 0.09585 0.657 0.0
C1335 C 0.43306 0.1187 0.57307 0.0
C1336 C 0.42717 0.11896 0.61534 0.0
C1337 C 0.45132 0.11804 0.56819 0.0
C1338 C 0.4943 0.10498 0.63237 0.0
H1339 H 0.57528 0.12226 0.54189 0.0
H1340 H 0.54282 0.11986 0.53483 0.0
H1341 H 0.52075 0.09659 0.65712 0.0
H1342 H 0.43598 0.11886 0.68552 0.0
H1343 H 0.46739 0.11777 0.67692 0.0
H1344 H 0.4833 0.13677 0.54536 0.0
C1345 C 0.54986 0.12021 0.56749 0.0
C1346 C 0.51276 0.10542 0.63248 0.0
C1347 C 0.56846 0.12151 0.57158 0.0
C1348 C 0.43992 0.11862 0.6524 0.0
C1349 C 0.45801 0.11786 0.64756 0.0
C1350 C 0.49135 0.12772 0.56938 0.0
C1351 C 0.54053 0.11899 0.6053 0.0
C1352 C 0.52082 0.11733 0.60178 0.0
C1353 C 0.46397 0.11743 0.60554 0.0
C1354 C 0.48339 0.11645 0.60159 0.0
H1355 H 0.57556 0.12099 0.68406 0.0
H1356 H 0.54337 0.11881 0.67686 0.0
H1357 H 0.51572 0.13752 0.54547 0.0
H1358 H 0.4236 0.11897 0.54383 0.0
H1359 H 0.45553 0.1177 0.53536 0.0
C1360 C 0.86696 0.18578 0.79904 0.0
C1361 C 0.88128 0.17858 0.82842 0.0
C1362 C 0.86579 0.20446 0.78669 0.0
C1363 C 0.86106 0.24379 0.80732 0.0
H1364 H 0.90114 0.27444 0.78144 0.0
C1365 C 0.87153 0.31411 0.86626 0.0
C1366 C 0.87636 0.32841 0.83615 0.0
C1367 C 0.87046 0.29649 0.85436 0.0
C1368 C 0.88974 0.26608 0.78794 0.0
H1369 H 0.90613 0.18485 0.86542 0.0
H1370 H 0.90439 0.21722 0.84287 0.0
H1371 H 0.90316 0.2418 0.7772 0.0
H1372 H 0.88376 0.33548 0.76975 0.0
H1373 H 0.8825 0.3043 0.74938 0.0
H1374 H 0.84807 0.26788 0.82082 0.0
C1375 C 0.89401 0.20862 0.82959 0.0
C1376 C 0.89091 0.24743 0.7857 0.0
C1377 C 0.89497 0.1901 0.84266 0.0
C1378 C 0.87999 0.32472 0.7936 0.0
C1379 C 0.8793 0.30693 0.78199 0.0
C1380 C 0.85999 0.26238 0.81026 0.0
C1381 C 0.87913 0.2161 0.80272 0.0
C1382 C 0.87675 0.23603 0.7965 0.0
C1383 C 0.8745 0.29267 0.81232 0.0
C1384 C 0.8745 0.27363 0.80176 0.0
H1385 H 0.85616 0.17717 0.78801 0.0
H1386 H 0.85418 0.20989 0.76592 0.0
H1387 H 0.85 0.23535 0.81626 0.0
H1388 H 0.86852 0.31652 0.89917 0.0
H1389 H 0.86692 0.28574 0.87856 0.0
C1390 C 0.63958 0.82785 0.3178 0.0
C1391 C 0.63458 0.83202 0.35884 0.0
C1392 C 0.6387 0.81002 0.30655 0.0
C1393 C 0.61705 0.7663 0.33566 0.0
H1394 H 0.65764 0.74433 0.29331 0.0
C1395 C 0.62987 0.69043 0.36335 0.0
C1396 C 0.63554 0.68132 0.32902 0.0
C1397 C 0.6286 0.7092 0.35915 0.0
C1398 C 0.64608 0.75036 0.30435 0.0
H1399 H 0.62457 0.82068 0.41997 0.0
H1400 H 0.62306 0.78992 0.40048 0.0
H1401 H 0.65747 0.77688 0.29993 0.0
H1402 H 0.64438 0.68491 0.26322 0.0
H1403 H 0.64234 0.71804 0.25611 0.0
H1404 H 0.60589 0.73982 0.34154 0.0
C1405 C 0.62754 0.80036 0.37675 0.0
C1406 C 0.64597 0.76898 0.30814 0.0
C1407 C 0.62855 0.81803 0.38808 0.0
C1408 C 0.63993 0.69152 0.29022 0.0
C1409 C 0.63884 0.71046 0.28621 0.0
C1410 C 0.61717 0.74778 0.33195 0.0
C1411 C 0.63257 0.7961 0.33591 0.0
C1412 C 0.63169 0.77703 0.32521 0.0
C1413 C 0.63305 0.71946 0.32062 0.0
C1414 C 0.63191 0.73949 0.31762 0.0
H1415 H 0.64432 0.83831 0.29454 0.0
H1416 H 0.64264 0.80714 0.27479 0.0
H1417 H 0.60566 0.77216 0.34794 0.0
H1418 H 0.62634 0.68306 0.3937 0.0
H1419 H 0.62438 0.71573 0.38655 0.0
C1420 C 0.88219 0.68278 0.13687 0.0
C1421 C 0.87789 0.66902 0.16911 0.0
C1422 C 0.88291 0.70076 0.14599 0.0
C1423 C 0.86671 0.73287 0.2166 0.0
H1424 H 0.9044 0.76256 0.17112 0.0
C1425 C 0.87314 0.81049 0.23195 0.0
C1426 C 0.87638 0.82084 0.19234 0.0
C1427 C 0.87411 0.79155 0.23531 0.0
C1428 C 0.89376 0.75447 0.18396 0.0
H1429 H 0.87081 0.66352 0.23635 0.0
H1430 H 0.87201 0.6952 0.25227 0.0
H1431 H 0.90474 0.73012 0.16628 0.0
H1432 H 0.88321 0.81933 0.12529 0.0
H1433 H 0.88492 0.78665 0.13125 0.0
H1434 H 0.85557 0.75746 0.23341 0.0
C1435 C 0.87482 0.69191 0.21986 0.0
C1436 C 0.89395 0.73588 0.18118 0.0
C1437 C 0.8742 0.67377 0.2108 0.0
C1438 C 0.88065 0.81186 0.15637 0.0
C1439 C 0.88176 0.79307 0.15985 0.0
C1440 C 0.86653 0.75157 0.21945 0.0
C1441 C 0.87932 0.70558 0.18758 0.0
C1442 C 0.88017 0.72491 0.19626 0.0
C1443 C 0.87857 0.78266 0.19932 0.0
C1444 C 0.8798 0.76262 0.20197 0.0
H1445 H 0.88507 0.67973 0.10434 0.0
H1446 H 0.88608 0.71097 0.12007 0.0
H1447 H 0.85587 0.72479 0.22842 0.0
H1448 H 0.86977 0.81698 0.26025 0.0
H1449 H 0.87162 0.78389 0.26619 0.0
C1450 C 0.63963 0.18054 0.7128 0.0
C1451 C 0.62913 0.1755 0.67524 0.0
C1452 C 0.63988 0.19859 0.72273 0.0
C1453 C 0.63124 0.2441 0.66451 0.0
H1454 H 0.63061 0.26082 0.78083 0.0
C1455 C 0.61242 0.31585 0.67943 0.0
C1456 C 0.62601 0.3264 0.69837 0.0
C1457 C 0.6132 0.29709 0.6865 0.0
C1458 C 0.63099 0.25625 0.74832 0.0
H1459 H 0.60963 0.18511 0.62086 0.0
H1460 H 0.60976 0.21611 0.63855 0.0
H1461 H 0.6312 0.22814 0.77338 0.0
H1462 H 0.65038 0.32571 0.7425 0.0
H1463 H 0.65176 0.29244 0.75504 0.0
H1464 H 0.6305 0.27195 0.63917 0.0
C1465 C 0.61829 0.20641 0.65954 0.0
C1466 C 0.63134 0.23762 0.74401 0.0
C1467 C 0.61816 0.18857 0.64949 0.0
C1468 C 0.63967 0.31786 0.7278 0.0
C1469 C 0.64049 0.29888 0.73485 0.0
C1470 C 0.63077 0.26252 0.66878 0.0
C1471 C 0.62956 0.21181 0.69535 0.0
C1472 C 0.63098 0.23137 0.7018 0.0
C1473 C 0.62763 0.2884 0.7126 0.0
C1474 C 0.63021 0.2688 0.71047 0.0
H1475 H 0.6482 0.17074 0.73334 0.0
H1476 H 0.64866 0.20231 0.75064 0.0
H1477 H 0.63152 0.23981 0.63168 0.0
H1478 H 0.60166 0.32209 0.65691 0.0
H1479 H 0.60304 0.2893 0.66937 0.0
C1480 C 0.9435 0.37808 0.94064 0.0
C1481 C 0.93409 0.37625 0.8991 0.0
C1482 C 0.96215 0.37749 0.9459 0.0
C1483 C 1.00084 0.36239 0.8927 0.0
H1484 H 0.02718 0.39744 0.95874 0.0
C1485 C 0.07497 0.37635 0.87608 0.0
C1486 C 0.08621 0.37903 0.9145 0.0
C1487 C 0.05656 0.37519 0.87725 0.0
C1488 C 0.02004 0.3874 0.94067 0.0
H1489 H 0.93703 0.37221 0.83062 0.0
H1490 H 0.96926 0.37132 0.83973 0.0
H1491 H 0.99477 0.39663 0.95598 0.0
H1492 H 0.08677 0.38265 0.98438 0.0
H1493 H 0.05461 0.38057 0.98638 0.0
H1494 H 0.02602 0.35329 0.87687 0.0
C1495 C 0.96231 0.373 0.86844 0.0
C1496 C 1.00145 0.38693 0.93913 0.0
C1497 C 0.94376 0.37364 0.86317 0.0
C1498 C 0.07854 0.38058 0.95414 0.0
C1499 C 0.06008 0.37948 0.95526 0.0
C1500 C 0.01937 0.36287 0.89419 0.0
C1501 C 0.97178 0.37494 0.9098 0.0
C1502 C 0.99161 0.37459 0.91454 0.0
C1503 C 0.04886 0.37672 0.91683 0.0
C1504 C 0.02921 0.37556 0.91764 0.0
H1505 H 0.93649 0.38011 0.96902 0.0
H1506 H 0.96903 0.37889 0.9783 0.0
H1507 H 0.99372 0.35245 0.87421 0.0
H1508 H 0.08037 0.37515 0.84491 0.0
H1509 H 0.04832 0.37334 0.84687 0.0
C1510 C 0.44621 0.63589 0.37521 0.0
C1511 C 0.43728 0.62974 0.41209 0.0
C1512 C 0.46473 0.63663 0.37862 0.0
C1513 C 0.50507 0.61681 0.44002 0.0
H1514 H 0.52725 0.6588 0.38302 0.0
C1515 C 0.58157 0.62196 0.42717 0.0
C1516 C 0.58613 0.6285 0.38486 0.0
C1517 C 0.56392 0.62297 0.4374 0.0
C1518 C 0.52128 0.64694 0.399 0.0
H1519 H 0.4409 0.61939 0.48155 0.0
H1520 H 0.47351 0.62046 0.4873 0.0
H1521 H 0.49531 0.65886 0.38814 0.0
H1522 H 0.57564 0.6414 0.32036 0.0
H1523 H 0.54526 0.643 0.33797 0.0
H1524 H 0.53103 0.60465 0.4494 0.0
C1525 C 0.46602 0.62478 0.45583 0.0
C1526 C 0.50299 0.647 0.40198 0.0
C1527 C 0.44738 0.62425 0.45256 0.0
C1528 C 0.57272 0.63622 0.35333 0.0
C1529 C 0.55523 0.63729 0.36355 0.0
C1530 C 0.52344 0.61671 0.43683 0.0
C1531 C 0.47486 0.63109 0.41889 0.0
C1532 C 0.49459 0.63176 0.42139 0.0
C1533 C 0.55056 0.6307 0.40563 0.0
C1534 C 0.53166 0.6316 0.41509 0.0
H1535 H 0.43889 0.64024 0.34352 0.0
H1536 H 0.47115 0.64131 0.3494 0.0
H1537 H 0.49894 0.60485 0.45507 0.0
H1538 H 0.59157 0.61591 0.45223 0.0
H1539 H 0.56076 0.61782 0.47018 0.0
C1540 C 0.42963 0.38081 0.59356 0.0
C1541 C 0.42611 0.38143 0.63788 0.0
C1542 C 0.44715 0.3823 0.58193 0.0
C1543 C 0.49083 0.4001 0.62116 0.0
H1544 H 0.51205 0.36342 0.56105 0.0
C1545 C 0.56453 0.38381 0.65125 0.0
C1546 C 0.57435 0.38145 0.61546 0.0
C1547 C 0.54609 0.38551 0.64506 0.0
C1548 C 0.50623 0.37397 0.57706 0.0
H1549 H 0.43834 0.38426 0.70448 0.0
H1550 H 0.46842 0.38697 0.68423 0.0
H1551 H 0.47979 0.36343 0.56585 0.0
H1552 H 0.57233 0.37881 0.54493 0.0
H1553 H 0.53969 0.38153 0.53423 0.0
H1554 H 0.51715 0.41025 0.63403 0.0
C1555 C 0.45775 0.38537 0.6584 0.0
C1556 C 0.48779 0.37398 0.5798 0.0
C1557 C 0.44044 0.38366 0.67004 0.0
C1558 C 0.56516 0.38067 0.57315 0.0
C1559 C 0.54651 0.38216 0.56704 0.0
C1560 C 0.50913 0.4001 0.61844 0.0
C1561 C 0.46135 0.38479 0.6143 0.0
C1562 C 0.48004 0.38665 0.6034 0.0
C1563 C 0.53683 0.38479 0.60297 0.0
C1564 C 0.51714 0.38663 0.59789 0.0
H1565 H 0.41889 0.37906 0.56801 0.0
H1566 H 0.44957 0.38177 0.54767 0.0
H1567 H 0.48518 0.41025 0.63881 0.0
H1568 H 0.57108 0.38451 0.68432 0.0
H1569 H 0.53902 0.38721 0.67356 0.0
C1570 C 0.07227 0.62314 0.0692 0.0
C1571 C 0.0814 0.62664 0.11002 0.0
C1572 C 0.05362 0.62347 0.06316 0.0
C1573 C 0.0146 0.64132 0.10908 0.0
H1574 H 0.98865 0.60203 0.05828 0.0
C1575 C 0.94316 0.62537 0.14352 0.0
C1576 C 0.93071 0.62046 0.10937 0.0
C1577 C 0.96108 0.62732 0.13715 0.0
C1578 C 0.99568 0.61327 0.07181 0.0
H1579 H 0.078 0.63332 0.17635 0.0
H1580 H 0.04572 0.63392 0.16579 0.0
H1581 H 0.02107 0.60329 0.05907 0.0
H1582 H 0.92749 0.61369 0.04149 0.0
H1583 H 0.95913 0.61704 0.03037 0.0
H1584 H 0.9894 0.65113 0.1227 0.0
C1585 C 0.05291 0.63106 0.1383 0.0
C1586 C 0.01425 0.61398 0.07231 0.0
C1587 C 0.07147 0.63059 0.14444 0.0
C1588 C 0.93672 0.61751 0.06846 0.0
C1589 C 0.95483 0.61936 0.06215 0.0
C1590 C 0.99613 0.64063 0.10851 0.0
C1591 C 0.04374 0.6275 0.09765 0.0
C1592 C 0.02395 0.62776 0.09208 0.0
C1593 C 0.96718 0.62439 0.09646 0.0
C1594 C 0.98648 0.62633 0.09104 0.0
H1595 H 0.0795 0.62 0.04201 0.0
H1596 H 0.04695 0.62075 0.0314 0.0
H1597 H 0.02163 0.65235 0.12362 0.0
H1598 H 0.93912 0.62776 0.17553 0.0
H1599 H 0.97025 0.63086 0.16456 0.0
C1600 C 0.13603 0.57101 0.04182 0.0
C1601 C 0.13492 0.57251 0.08712 0.0
C1602 C 0.13553 0.55412 0.0255 0.0
C1603 C 0.14573 0.50656 0.05837 0.0
H1604 H 0.11553 0.498 0.95197 0.0
C1605 C 0.14043 0.43576 0.99778 0.0
C1606 C 0.13844 0.43425 0.95194 0.0
C1607 C 0.13927 0.45255 0.014 0.0
C1608 C 0.12426 0.50019 0.98132 0.0
H1609 H 0.13235 0.55738 0.15074 0.0
H1610 H 0.13186 0.52773 0.12224 0.0
H1611 H 0.11478 0.52733 0.98099 0.0
H1612 H 0.13362 0.44925 0.88714 0.0
H1613 H 0.13224 0.47875 0.91531 0.0
H1614 H 0.15574 0.4798 0.05819 0.0
C1615 C 0.13302 0.53973 0.09945 0.0
C1616 C 0.12373 0.517 0.99808 0.0
C1617 C 0.13322 0.55669 0.11571 0.0
C1618 C 0.13516 0.44997 0.92264 0.0
C1619 C 0.13426 0.46687 0.9389 0.0
C1620 C 0.14647 0.48987 0.0413 0.0
C1621 C 0.13418 0.53828 0.05416 0.0
C1622 C 0.13442 0.52033 0.03686 0.0
C1623 C 0.13637 0.46841 0.98487 0.0
C1624 C 0.13569 0.48638 1.00261 0.0
H1625 H 0.13725 0.58293 0.01879 0.0
H1626 H 0.13659 0.55342 0.99054 0.0
H1627 H 0.15433 0.50885 0.08791 0.0
H1628 H 0.1427 0.4239 0.02137 0.0
H1629 H 0.14049 0.45302 0.04956 0.0
C1630 C 0.69417 0.89366 0.32843 0.0
C1631 C 0.68909 0.88148 0.36325 0.0
C1632 C 0.71053 0.89183 0.31175 0.0
C1633 C 0.74072 0.87901 0.26465 0.0
H1634 H 0.7834 0.86711 0.34366 0.0
C1635 C 0.80909 0.86865 0.19923 0.0
C1636 C 0.8239 0.87612 0.22249 0.0
C1637 C 0.79253 0.86792 0.21633 0.0
C1638 C 0.77162 0.87052 0.3211 0.0
H1639 H 0.69744 0.85788 0.4081 0.0
H1640 H 0.72607 0.85463 0.37876 0.0
H1641 H 0.75492 0.86884 0.37409 0.0
H1642 H 0.83277 0.88874 0.28209 0.0
H1643 H 0.80406 0.88772 0.31115 0.0
H1644 H 0.75747 0.88129 0.21183 0.0
C1645 C 0.71738 0.86571 0.36464 0.0
C1646 C 0.75524 0.8713 0.33855 0.0
C1647 C 0.70095 0.86755 0.38143 0.0
C1648 C 0.82172 0.88283 0.26316 0.0
C1649 C 0.80523 0.88211 0.28014 0.0
C1650 C 0.75709 0.87825 0.24722 0.0
C1651 C 0.7223 0.87774 0.32927 0.0
C1652 C 0.73961 0.87581 0.31061 0.0
C1653 C 0.79041 0.87462 0.25707 0.0
C1654 C 0.7728 0.87423 0.27526 0.0
H1655 H 0.68545 0.90461 0.31362 0.0
H1656 H 0.71399 0.90158 0.28518 0.0
H1657 H 0.72891 0.88222 0.24204 0.0
H1658 H 0.81029 0.86329 0.16794 0.0
H1659 H 0.78144 0.8619 0.19784 0.0
C1660 C 0.38523 0.4465 0.66208 0.0
C1661 C 0.37539 0.43348 0.63993 0.0
C1662 C 0.38626 0.46427 0.64221 0.0
C1663 C 0.36482 0.4957 0.54773 0.0
H1664 H 0.40779 0.52354 0.56859 0.0
C1665 C 0.38061 0.56118 0.4395 0.0
C1666 C 0.38371 0.57632 0.46318 0.0
C1667 C 0.38004 0.54386 0.462 0.0
C1668 C 0.39571 0.51588 0.56262 0.0
H1669 H 0.35936 0.42875 0.57909 0.0
H1670 H 0.36181 0.45914 0.54389 0.0
H1671 H 0.4058 0.49314 0.60641 0.0
H1672 H 0.38929 0.58514 0.52883 0.0
H1673 H 0.38885 0.55477 0.56794 0.0
H1674 H 0.35513 0.51828 0.50251 0.0
C1675 C 0.36813 0.45609 0.57729 0.0
C1676 C 0.39447 0.49851 0.58454 0.0
C1677 C 0.3668 0.43852 0.59744 0.0
C1678 C 0.38677 0.57374 0.50969 0.0
C1679 C 0.38661 0.55638 0.53208 0.0
C1680 C 0.36624 0.51287 0.52517 0.0
C1681 C 0.37777 0.46931 0.59937 0.0
C1682 C 0.37901 0.48811 0.57729 0.0
C1683 C 0.38299 0.54133 0.50847 0.0
C1684 C 0.38169 0.5231 0.53235 0.0
H1685 H 0.39198 0.443 0.69489 0.0
H1686 H 0.3936 0.47406 0.66067 0.0
H1687 H 0.35249 0.48845 0.54203 0.0
H1688 H 0.37814 0.56276 0.40368 0.0
H1689 H 0.37728 0.53242 0.4431 0.0
C1690 C 0.81683 0.14356 0.8431 0.0
C1691 C 0.82596 0.127 0.85234 0.0
C1692 C 0.79988 0.14446 0.8195 0.0
C1693 C 0.77043 0.11815 0.74399 0.0
H1694 H 0.73367 0.15081 0.76827 0.0
C1695 C 0.69647 0.1108 0.68171 0.0
C1696 C 0.68697 0.12648 0.66376 0.0
C1697 C 0.71386 0.11194 0.70161 0.0
C1698 C 0.74389 0.14177 0.7608 0.0
H1699 H 0.82416 0.09828 0.84611 0.0
H1700 H 0.79452 0.09968 0.80683 0.0
H1701 H 0.76277 0.15054 0.81139 0.0
H1702 H 0.68831 0.15565 0.6523 0.0
H1703 H 0.71877 0.15765 0.68787 0.0
H1704 H 0.75133 0.10899 0.69443 0.0
C1705 C 0.80057 0.11213 0.81615 0.0
C1706 C 0.76059 0.14162 0.78547 0.0
C1707 C 0.81754 0.11128 0.83913 0.0
C1708 C 0.69535 0.14333 0.66554 0.0
C1709 C 0.7127 0.14449 0.6862 0.0
C1710 C 0.75371 0.11816 0.71979 0.0
C1711 C 0.79164 0.12877 0.80505 0.0
C1712 C 0.77403 0.12963 0.77778 0.0
C1713 C 0.72208 0.1288 0.70466 0.0
C1714 C 0.74021 0.12983 0.72821 0.0
H1715 H 0.82305 0.15593 0.85253 0.0
H1716 H 0.79351 0.15754 0.81136 0.0
H1717 H 0.78054 0.10908 0.73611 0.0
H1718 H 0.69037 0.09762 0.68091 0.0
H1719 H 0.7207 0.09963 0.71584 0.0
C1720 C 0.87757 0.56413 0.04414 0.0
C1721 C 0.88105 0.56468 0.09017 0.0
C1722 C 0.87872 0.54794 0.02517 0.0
C1723 C 0.89564 0.5004 0.04803 0.0
H1724 H 0.86283 0.49361 0.94471 0.0
C1725 C 0.8828 0.43145 0.97737 0.0
C1726 C 0.88266 0.43122 0.93121 0.0
C1727 C 0.88374 0.44775 0.99657 0.0
C1728 C 0.8722 0.49538 0.97327 0.0
H1729 H 0.88869 0.54863 0.1524 0.0
H1730 H 0.89001 0.52003 0.11955 0.0
H1731 H 0.86179 0.52147 0.97975 0.0
H1732 H 0.88348 0.44802 0.86908 0.0
H1733 H 0.88466 0.47664 0.90269 0.0
H1734 H 0.90547 0.47383 0.04217 0.0
C1735 C 0.88679 0.53225 0.09785 0.0
C1736 C 0.87168 0.51142 0.9934 0.0
C1737 C 0.88594 0.54862 0.11683 0.0
C1738 C 0.88358 0.44772 0.9047 0.0
C1739 C 0.88419 0.4641 0.9239 0.0
C1740 C 0.89594 0.48422 0.02826 0.0
C1741 C 0.88307 0.53166 0.05168 0.0
C1742 C 0.88347 0.51426 0.03095 0.0
C1743 C 0.88425 0.46426 0.97006 0.0
C1744 C 0.88428 0.48158 0.99054 0.0
H1745 H 0.8741 0.57632 0.02247 0.0
H1746 H 0.8763 0.54828 0.98948 0.0
H1747 H 0.90513 0.5021 0.07636 0.0
H1748 H 0.8822 0.41899 0.99884 0.0
H1749 H 0.88363 0.44745 0.03215 0.0
C1750 C 0.1992 0.13499 0.81934 0.0
C1751 C 0.18475 0.126 0.79865 0.0
C1752 C 0.21561 0.13582 0.8017 0.0
C1753 C 0.23692 0.13006 0.69909 0.0
H1754 H 0.27961 0.12218 0.78056 0.0
C1755 C 0.31503 0.10835 0.69928 0.0
C1756 C 0.3206 0.12027 0.66456 0.0
C1757 C 0.2983 0.11017 0.71383 0.0
C1758 C 0.26781 0.12435 0.75733 0.0
H1759 H 0.1763 0.11092 0.74288 0.0
H1760 H 0.2049 0.11209 0.71282 0.0
H1761 H 0.25084 0.12333 0.80953 0.0
H1762 H 0.31258 0.1432 0.6171 0.0
H1763 H 0.28313 0.14634 0.6426 0.0
H1764 H 0.25398 0.13055 0.64686 0.0
C1765 C 0.2035 0.11878 0.74222 0.0
C1766 C 0.25132 0.12522 0.77397 0.0
C1767 C 0.1871 0.11798 0.75976 0.0
C1768 C 0.30873 0.13379 0.64391 0.0
C1769 C 0.29186 0.13557 0.65845 0.0
C1770 C 0.25347 0.12922 0.68242 0.0
C1771 C 0.21799 0.12766 0.763 0.0
C1772 C 0.23563 0.12786 0.7451 0.0
C1773 C 0.28658 0.12394 0.69409 0.0
C1774 C 0.26907 0.12608 0.71137 0.0
H1775 H 0.19784 0.14145 0.8491 0.0
H1776 H 0.22642 0.14298 0.81825 0.0
H1777 H 0.22513 0.13234 0.67591 0.0
H1778 H 0.32371 0.09769 0.7159 0.0
H1779 H 0.29452 0.10075 0.74071 0.0
C1780 C 0.61756 0.56421 0.38273 0.0
C1781 C 0.63455 0.57073 0.37481 0.0
C1782 C 0.61555 0.54682 0.40388 0.0
C1783 C 0.63455 0.50199 0.42484 0.0
H1784 H 0.61696 0.49886 0.5405 0.0
C1785 C 0.64158 0.43606 0.54136 0.0
C1786 C 0.62879 0.43172 0.571 0.0
C1787 C 0.64135 0.45289 0.51644 0.0
C1788 C 0.62155 0.49932 0.50791 0.0
H1789 H 0.6626 0.56404 0.38103 0.0
H1790 H 0.65896 0.53333 0.41615 0.0
H1791 H 0.61741 0.528 0.49607 0.0
H1792 H 0.60559 0.44154 0.59753 0.0
H1793 H 0.60457 0.47064 0.55253 0.0
H1794 H 0.63821 0.47342 0.43536 0.0
C1795 C 0.6473 0.54178 0.40667 0.0
C1796 C 0.62188 0.51609 0.48261 0.0
C1797 C 0.64936 0.55931 0.38663 0.0
C1798 C 0.61572 0.44459 0.57522 0.0
C1799 C 0.61522 0.46133 0.54947 0.0
C1800 C 0.63385 0.48517 0.4496 0.0
C1801 C 0.63043 0.53553 0.41631 0.0
C1802 C 0.62863 0.51759 0.4412 0.0
C1803 C 0.62803 0.46574 0.51958 0.0
C1804 C 0.62767 0.48359 0.49196 0.0
H1805 H 0.60595 0.57282 0.37443 0.0
H1806 H 0.60242 0.54224 0.411 0.0
H1807 H 0.63971 0.50283 0.39281 0.0
H1808 H 0.65195 0.42649 0.53775 0.0
H1809 H 0.65179 0.45582 0.49501 0.0
C1810 C 0.31451 0.86531 0.35421 0.0
C1811 C 0.32311 0.88211 0.35361 0.0
C1812 C 0.29702 0.86401 0.33454 0.0
C1813 C 0.2561 0.89028 0.30026 0.0
H1814 H 0.24579 0.85586 0.21388 0.0
C1815 C 0.19058 0.89464 0.18702 0.0
C1816 C 0.18209 0.87858 0.1766 0.0
C1817 C 0.20788 0.89432 0.20809 0.0
C1818 C 0.24832 0.86537 0.23837 0.0
H1819 H 0.31995 0.91078 0.3332 0.0
H1820 H 0.28936 0.90856 0.29997 0.0
H1821 H 0.27534 0.85633 0.25457 0.0
H1822 H 0.18518 0.84956 0.17927 0.0
H1823 H 0.2153 0.84887 0.21726 0.0
H1824 H 0.22917 0.89917 0.28511 0.0
C1825 C 0.29616 0.89638 0.3153 0.0
C1826 C 0.26528 0.86564 0.26162 0.0
C1827 C 0.31369 0.89764 0.33423 0.0
C1828 C 0.19146 0.86218 0.18657 0.0
C1829 C 0.20874 0.86182 0.20834 0.0
C1830 C 0.23912 0.88987 0.27752 0.0
C1831 C 0.28771 0.87953 0.31467 0.0
C1832 C 0.2694 0.87828 0.29234 0.0
C1833 C 0.21707 0.87788 0.2201 0.0
C1834 C 0.23504 0.87762 0.24566 0.0
H1835 H 0.32146 0.85308 0.3686 0.0
H1836 H 0.29079 0.85087 0.33477 0.0
H1837 H 0.25883 0.9 0.3242 0.0
H1838 H 0.18377 0.90752 0.17933 0.0
H1839 H 0.21397 0.90703 0.21526 0.0
C1840 C 0.62882 0.95164 0.41013 0.0
C1841 C 0.63483 0.93631 0.43838 0.0
C1842 C 0.6277 0.96845 0.42677 0.0
C1843 C 0.62329 0.9895 0.5292 0.0
H1844 H 0.646 0.031 0.47184 0.0
C1845 C 0.63298 0.05647 0.61085 0.0
C1846 C 0.63239 0.07273 0.58296 0.0
C1847 C 0.6326 0.03982 0.59292 0.0
C1848 C 0.63928 0.01969 0.48797 0.0
H1849 H 0.64391 0.92656 0.5065 0.0
H1850 H 0.64166 0.95569 0.53532 0.0
H1851 H 0.64572 0.00232 0.43981 0.0
H1852 H 0.63021 0.08423 0.51428 0.0
H1853 H 0.62885 0.0555 0.48323 0.0
H1854 H 0.6165 0.00681 0.5769 0.0
C1855 C 0.63795 0.95477 0.50034 0.0
C1856 C 0.63919 0.00321 0.46955 0.0
C1857 C 0.63937 0.93811 0.48366 0.0
C1858 C 0.63099 0.07197 0.53683 0.0
C1859 C 0.63032 0.05541 0.51895 0.0
C1860 C 0.62313 0.00605 0.5473 0.0
C1861 C 0.6322 0.97015 0.47212 0.0
C1862 C 0.63133 0.98791 0.49016 0.0
C1863 C 0.63133 0.03905 0.54664 0.0
C1864 C 0.63123 0.02138 0.52713 0.0
H1865 H 0.62522 0.95068 0.37513 0.0
H1866 H 0.62316 0.9801 0.4043 0.0
H1867 H 0.617 0.97794 0.54562 0.0
H1868 H 0.63412 0.05661 0.64652 0.0
H1869 H 0.63366 0.02758 0.61547 0.0
C1870 C 0.2018 0.39696 0.86944 0.0
C1871 C 0.19304 0.3812 0.88469 0.0
C1872 C 0.21806 0.39588 0.85168 0.0
C1873 C 0.24339 0.36843 0.78983 0.0
H1874 H 0.28471 0.39399 0.83673 0.0
C1875 C 0.31203 0.36436 0.71974 0.0
C1876 C 0.32329 0.37936 0.72211 0.0
C1877 C 0.29601 0.36388 0.73947 0.0
C1878 C 0.27327 0.38704 0.82246 0.0
H1879 H 0.19436 0.35195 0.89305 0.0
H1880 H 0.22266 0.35009 0.86065 0.0
H1881 H 0.25728 0.39461 0.87192 0.0
H1882 H 0.32622 0.406 0.74453 0.0
H1883 H 0.29806 0.40572 0.77623 0.0
H1884 H 0.25895 0.36153 0.73905 0.0
C1885 C 0.217 0.36324 0.86319 0.0
C1886 C 0.25759 0.38727 0.84308 0.0
C1887 C 0.20093 0.36432 0.88203 0.0
C1888 C 0.3179 0.39415 0.7427 0.0
C1889 C 0.30178 0.39387 0.7614 0.0
C1890 C 0.25898 0.36852 0.76851 0.0
C1891 C 0.22568 0.37902 0.84776 0.0
C1892 C 0.2425 0.37803 0.82691 0.0
C1893 C 0.29076 0.37855 0.7612 0.0
C1894 C 0.27415 0.37794 0.78431 0.0
H1895 H 0.196 0.41014 0.87094 0.0
H1896 H 0.22448 0.40823 0.83987 0.0
H1897 H 0.23185 0.36131 0.77655 0.0
H1898 H 0.31596 0.35271 0.70436 0.0
H1899 H 0.28807 0.35176 0.73882 0.0
C1900 C 0.86167 0.94175 0.13021 0.0
C1901 C 0.87716 0.93143 0.14277 0.0
C1902 C 0.86259 0.95931 0.1095 0.0
C1903 C 0.89447 0.99662 0.08099 0.0
H1904 H 0.8549 0.01285 0.99526 0.0
C1905 C 0.89362 0.0609 0.95224 0.0
C1906 C 0.88012 0.07325 0.95717 0.0
C1907 C 0.89401 0.04358 0.97525 0.0
C1908 C 0.86603 0.00846 0.01913 0.0
H1909 H 0.90583 0.93138 0.14386 0.0
H1910 H 0.90751 0.9617 0.10582 0.0
H1911 H 0.85432 0.98279 0.03475 0.0
H1912 H 0.85629 0.07704 0.98931 0.0
H1913 H 0.85663 0.04658 0.02799 0.0
H1914 H 0.90636 0.02229 0.06328 0.0
C1915 C 0.8946 0.95659 0.11321 0.0
C1916 C 0.86566 0.99128 0.04227 0.0
C1917 C 0.89368 0.93913 0.13498 0.0
C1918 C 0.8669 0.06785 0.98497 0.0
C1919 C 0.86705 0.05044 1.00701 0.0
C1920 C 0.89498 0.01368 0.057 0.0
C1921 C 0.87903 0.96688 0.09956 0.0
C1922 C 0.87976 0.98514 0.07409 0.0
C1923 C 0.88065 0.03819 1.00259 0.0
C1924 C 0.88067 0.0198 0.02626 0.0
H1925 H 0.84875 0.93618 0.13614 0.0
H1926 H 0.85032 0.96687 0.10103 0.0
H1927 H 0.90548 0.99263 0.1055 0.0
H1928 H 0.90403 0.06472 0.93124 0.0
H1929 H 0.9046 0.0343 0.97126 0.0
C1930 C 0.19822 0.60978 0.19663 0.0
C1931 C 0.18974 0.62522 0.17375 0.0
C1932 C 0.21506 0.61096 0.21971 0.0
C1933 C 0.25447 0.64109 0.23405 0.0
H1934 H 0.26423 0.60981 0.34355 0.0
C1935 C 0.31908 0.64566 0.35371 0.0
C1936 C 0.32813 0.6291 0.36463 0.0
C1937 C 0.30169 0.64616 0.3326 0.0
C1938 C 0.2617 0.61861 0.31302 0.0
H1939 H 0.19238 0.65402 0.15669 0.0
H1940 H 0.22157 0.65623 0.19795 0.0
H1941 H 0.2352 0.60888 0.30125 0.0
H1942 H 0.32588 0.6001 0.3636 0.0
H1943 H 0.29546 0.60095 0.328 0.0
H1944 H 0.28103 0.65097 0.24667 0.0
C1945 C 0.21542 0.64308 0.19732 0.0
C1946 C 0.24509 0.618 0.28848 0.0
C1947 C 0.19864 0.64183 0.17366 0.0
C1948 C 0.31924 0.61306 0.35562 0.0
C1949 C 0.3018 0.61354 0.33534 0.0
C1950 C 0.27103 0.64186 0.259 0.0
C1951 C 0.22378 0.62769 0.22121 0.0
C1952 C 0.24131 0.62901 0.24822 0.0
C1953 C 0.29294 0.63009 0.3229 0.0
C1954 C 0.27489 0.63044 0.29841 0.0
H1955 H 0.19177 0.59674 0.19708 0.0
H1956 H 0.2212 0.59871 0.23656 0.0
H1957 H 0.2522 0.64963 0.20307 0.0
H1958 H 0.32566 0.65825 0.35991 0.0
H1959 H 0.29512 0.6591 0.32357 0.0
C1960 C 0.37936 0.93357 0.48381 0.0
C1961 C 0.37934 0.93339 0.43775 0.0
C1962 C 0.37986 0.94985 0.50301 0.0
C1963 C 0.38896 0.99915 0.48004 0.0
H1964 H 0.3633 0.00225 0.58299 0.0
C1965 C 0.37267 0.0665 0.54692 0.0
C1966 C 0.37625 0.06746 0.59284 0.0
C1967 C 0.374 0.05011 0.52886 0.0
C1968 C 0.37067 1.00152 0.55454 0.0
H1969 H 0.37987 0.95023 0.37564 0.0
H1970 H 0.38004 0.97876 0.40882 0.0
H1971 H 0.36327 0.97407 0.54877 0.0
H1972 H 0.38402 0.0519 0.65579 0.0
H1973 H 0.38589 0.023 0.62413 0.0
H1974 H 0.39568 0.02695 0.48512 0.0
C1975 C 0.38016 0.96628 0.43043 0.0
C1976 C 0.37074 0.98533 0.53489 0.0
C1977 C 0.37996 0.94992 0.41127 0.0
C1978 C 0.38118 0.05159 0.62033 0.0
C1979 C 0.38219 0.03507 0.60225 0.0
C1980 C 0.38864 0.01542 0.49931 0.0
C1981 C 0.38004 0.96649 0.47664 0.0
C1982 C 0.37993 0.98386 0.49738 0.0
C1983 C 0.37866 0.0342 0.55629 0.0
C1984 C 0.37951 0.01676 0.53678 0.0
H1985 H 0.37913 0.92108 0.5053 0.0
H1986 H 0.38024 0.9493 0.53871 0.0
H1987 H 0.39646 0.99855 0.45181 0.0
H1988 H 0.36898 0.07849 0.5247 0.0
H1989 H 0.37107 0.04983 0.4934 0.0
C1990 C 0.82244 0.61288 0.21192 0.0
C1991 C 0.82525 0.61821 0.16762 0.0
C1992 C 0.80568 0.61443 0.22657 0.0
C1993 C 0.76109 0.6362 0.19653 0.0
H1994 H 0.74786 0.60035 0.2888 0.0
C1995 C 0.68982 0.62783 0.25245 0.0
C1996 C 0.68867 0.62647 0.29847 0.0
C1997 C 0.70636 0.62768 0.23563 0.0
C1998 C 0.75143 0.61053 0.26326 0.0
H1999 H 0.81263 0.62948 0.10391 0.0
H2000 H 0.78301 0.63153 0.12898 0.0
H2001 H 0.77641 0.59786 0.25955 0.0
H2002 H 0.70401 0.62396 0.36286 0.0
H2003 H 0.73293 0.62322 0.33339 0.0
H2004 H 0.7356 0.64838 0.19952 0.0
C2005 C 0.79391 0.62653 0.15278 0.0
C2006 C 0.76786 0.60919 0.24652 0.0
C2007 C 0.81086 0.62526 0.13825 0.0
C2008 C 0.70445 0.62507 0.32728 0.0
C2009 C 0.72098 0.62456 0.31044 0.0
C2010 C 0.74448 0.63734 0.21279 0.0
C2011 C 0.79107 0.62105 0.19721 0.0
C2012 C 0.77308 0.62213 0.21331 0.0
C2013 C 0.72209 0.62582 0.26446 0.0
C2014 C 0.73958 0.62462 0.24666 0.0
H2015 H 0.8333 0.60772 0.23573 0.0
H2016 H 0.80429 0.61059 0.26126 0.0
H2017 H 0.76463 0.64657 0.17144 0.0
H2018 H 0.67792 0.62904 0.22932 0.0
H2019 H 0.70683 0.62857 0.20007 0.0
C2020 C 0.11489 0.06238 0.88612 0.0
C2021 C 0.13184 0.06949 0.88013 0.0
C2022 C 0.11311 0.04492 0.90708 0.0
C2023 C 0.13325 1.00075 0.92918 0.0
H2024 H 0.11336 0.99627 0.04211 0.0
C2025 C 0.13984 0.93427 0.04365 0.0
C2026 C 0.12654 0.9294 0.07151 0.0
C2027 C 0.1396 0.95123 0.01933 0.0
C2028 C 0.11861 0.99711 1.01024 0.0
H2029 H 0.16012 0.06377 0.88977 0.0
H2030 H 0.15692 0.03294 0.92463 0.0
H2031 H 0.11387 0.02571 0.99901 0.0
H2032 H 0.10242 0.93839 0.09543 0.0
H2033 H 0.10143 0.96771 0.05136 0.0
H2034 H 0.13751 0.97225 0.93899 0.0
C2035 C 0.14509 0.041 0.91378 0.0
C2036 C 0.11897 0.01404 0.98572 0.0
C2037 C 0.14691 0.0586 0.89392 0.0
C2038 C 0.11293 0.94185 0.07448 0.0
C2039 C 0.11245 0.95872 0.0493 0.0
C2040 C 0.13253 0.98376 0.9531 0.0
C2041 C 0.12821 0.03414 0.92126 0.0
C2042 C 0.12654 0.01603 0.94535 0.0
C2043 C 0.1258 0.96367 0.02129 0.0
C2044 C 0.1255 0.98169 0.99446 0.0
H2045 H 0.10307 0.07055 0.87624 0.0
H2046 H 0.09996 0.03986 0.91251 0.0
H2047 H 0.13903 0.00197 0.89791 0.0
H2048 H 0.15064 0.92504 0.04107 0.0
H2049 H 0.15043 0.95458 0.99937 0.0
C2050 C 0.69213 0.3622 0.68401 0.0
C2051 C 0.68335 0.37889 0.673 0.0
C2052 C 0.7095 0.36142 0.70541 0.0
C2053 C 0.74091 0.38925 0.77237 0.0
H2054 H 0.77622 0.35442 0.75121 0.0
C2055 C 0.81559 0.39606 0.82807 0.0
C2056 C 0.82489 0.38052 0.8478 0.0
C2057 C 0.79801 0.39491 0.80941 0.0
C2058 C 0.76642 0.36409 0.75779 0.0
H2059 H 0.6862 0.40786 0.67323 0.0
H2060 H 0.71649 0.40661 0.70856 0.0
H2061 H 0.74653 0.35426 0.711 0.0
H2062 H 0.82297 0.35155 0.86365 0.0
H2063 H 0.79219 0.34952 0.8304 0.0
H2064 H 0.76094 0.3994 0.81816 0.0
C2065 C 0.70989 0.39403 0.70251 0.0
C2066 C 0.74938 0.364 0.73479 0.0
C2067 C 0.69254 0.39477 0.68178 0.0
C2068 C 0.81611 0.3638 0.84899 0.0
C2069 C 0.79857 0.3626 0.82963 0.0
C2070 C 0.75794 0.38946 0.7949 0.0
C2071 C 0.71847 0.37734 0.71578 0.0
C2072 C 0.73645 0.37675 0.74135 0.0
C2073 C 0.78937 0.37814 0.80944 0.0
C2074 C 0.77094 0.37702 0.78757 0.0
H2075 H 0.68532 0.34972 0.67792 0.0
H2076 H 0.71561 0.34832 0.71524 0.0
H2077 H 0.73121 0.39895 0.77941 0.0
H2078 H 0.82198 0.40914 0.82655 0.0
H2079 H 0.79132 0.4071 0.79381 0.0
loop_
_geom_bond_atom_site_label_1
_geom_bond_atom_site_label_2
_geom_bond_distance
_geom_bond_site_symmetry_2
_ccdc_geom_bond_type
Tb0 C10 2.825 . S
Tb0 O11 2.347 . S
Tb0 O14 2.366 . S
Tb0 O19 2.418 . S
Tb0 O20 2.384 . S
Tb0 O23 2.479 . S
Tb0 O24 2.471 . S
Eu1 O12 2.418 . S
Eu1 O13 2.384 . S
Eu1 O16 2.479 . S
Eu1 O17 2.471 . S
Eu1 O18 2.347 . S
Eu1 O21 2.366 . S
Eu1 C31 2.825 . S
C2 O18 1.259 . S
C2 O19 1.265 . S
C3 O20 1.255 . S
C3 O21 1.265 . S
C4 C6 1.380 . S
C4 C7 1.374 . S
C4 C10 1.507 . S
C5 C6 1.384 . S
C5 C9 1.387 . S
C5 H32 0.930 . S
C6 C4 1.380 . S
C6 C5 1.384 . S
C6 H33 0.931 . S
C7 C4 1.374 . S
C7 C8 1.390 . S
C7 H34 0.930 . S
C8 C7 1.390 . S
C8 C9 1.391 . S
C8 H35 0.930 . S
C9 C5 1.387 . S
C9 C8 1.391 . S
C10 Tb0 2.825 . S
C10 C4 1.507 . S
C10 O23 1.238 . S
C10 O24 1.247 . S
O11 Tb0 2.347 . S
O11 C15 1.259 . S
O12 Eu1 2.418 . S
O12 C15 1.265 . S
O13 Eu1 2.384 . S
O13 C22 1.255 . S
O14 Tb0 2.366 . S
O14 C22 1.265 . S
C15 O11 1.259 . S
C15 O12 1.265 . S
O16 Eu1 2.479 . S
O16 C31 1.238 . S
O17 Eu1 2.471 . S
O17 C31 1.247 . S
O18 Eu1 2.347 . S
O18 C2 1.259 . S
O19 Tb0 2.418 . S
O19 C2 1.265 . S
O20 Tb0 2.384 . S
O20 C3 1.255 . S
O21 Eu1 2.366 . S
O21 C3 1.265 . S
C22 O13 1.255 . S
C22 O14 1.265 . S
O23 Tb0 2.479 . S
O23 C10 1.238 . S
O24 Tb0 2.471 . S
O24 C10 1.247 . S
C25 C28 1.380 1_554 S
C25 C29 1.374 1_554 S
C25 C31 1.507 . S
C26 C27 1.387 . S
C26 C30 1.391 . S
C27 C26 1.387 . S
C27 C28 1.384 . S
C27 H36 0.930 . S
C28 C25 1.380 1_556 S
C28 C27 1.384 . S
C28 H37 0.931 . S
C29 C25 1.374 1_556 S
C29 C30 1.390 . S
C29 H38 0.930 1_556 S
C30 C26 1.391 . S
C30 C29 1.390 . S
C30 H39 0.930 . S
C31 Eu1 2.825 . S
C31 O16 1.238 . S
C31 O17 1.247 . S
C31 C25 1.507 . S
H32 C5 0.930 . S
H33 C6 0.931 . S
H34 C7 0.930 . S
H35 C8 0.930 . S
H36 C27 0.930 . S
H37 C28 0.931 . S
H38 C29 0.930 1_554 S
H39 C30 0.930 . S
Tb40 C50 2.825 . S
Tb40 O51 2.347 . S
Tb40 O54 2.366 . S
Tb40 O59 2.418 . S
Tb40 O60 2.384 . S
Tb40 O63 2.479 . S
Tb40 O64 2.471 . S
Eu41 O52 2.418 . S
Eu41 O53 2.384 . S
Eu41 O56 2.479 . S
Eu41 O57 2.471 . S
Eu41 O58 2.347 . S
Eu41 O61 2.366 . S
Eu41 C71 2.825 . S
C42 O58 1.259 . S
C42 O59 1.265 . S
C43 O60 1.255 . S
C43 O61 1.265 . S
C44 C46 1.380 . S
C44 C47 1.374 . S
C44 C50 1.507 . S
C45 C46 1.384 . S
C45 C49 1.387 . S
C45 H72 0.930 . S
C46 C44 1.380 . S
C46 C45 1.384 . S
C46 H73 0.931 . S
C47 C44 1.374 . S
C47 C48 1.390 . S
C47 H74 0.930 . S
C48 C47 1.390 . S
C48 C49 1.391 . S
C48 H75 0.930 . S
C49 C45 1.387 . S
C49 C48 1.391 . S
C50 Tb40 2.825 . S
C50 C44 1.507 . S
C50 O63 1.238 . S
C50 O64 1.247 . S
O51 Tb40 2.347 . S
O51 C55 1.259 . S
O52 Eu41 2.418 . S
O52 C55 1.265 . S
O53 Eu41 2.384 . S
O53 C62 1.255 . S
O54 Tb40 2.366 . S
O54 C62 1.265 . S
C55 O51 1.259 . S
C55 O52 1.265 . S
O56 Eu41 2.479 . S
O56 C71 1.238 . S
O57 Eu41 2.471 . S
O57 C71 1.247 . S
O58 Eu41 2.347 . S
O58 C42 1.259 . S
O59 Tb40 2.418 . S
O59 C42 1.265 . S
O60 Tb40 2.384 . S
O60 C43 1.255 . S
O61 Eu41 2.366 . S
O61 C43 1.265 . S
C62 O53 1.255 . S
C62 O54 1.265 . S
O63 Tb40 2.479 . S
O63 C50 1.238 . S
O64 Tb40 2.471 . S
O64 C50 1.247 . S
C65 C68 1.380 . S
C65 C69 1.374 . S
C65 C71 1.507 . S
C66 C67 1.387 . S
C66 C70 1.391 . S
C67 C66 1.387 . S
C67 C68 1.384 . S
C67 H76 0.930 . S
C68 C65 1.380 . S
C68 C67 1.384 . S
C68 H77 0.931 . S
C69 C65 1.374 . S
C69 C70 1.390 . S
C69 H78 0.930 . S
C70 C66 1.391 . S
C70 C69 1.390 . S
C70 H79 0.930 . S
C71 Eu41 2.825 . S
C71 O56 1.238 . S
C71 O57 1.247 . S
C71 C65 1.507 . S
H72 C45 0.930 . S
H73 C46 0.931 . S
H74 C47 0.930 . S
H75 C48 0.930 . S
H76 C67 0.930 . S
H77 C68 0.931 . S
H78 C69 0.930 . S
H79 C70 0.930 . S
Tb80 C90 2.825 . S
Tb80 O91 2.347 . S
Tb80 O94 2.366 . S
Tb80 O99 2.418 . S
Tb80 O100 2.384 . S
Tb80 O103 2.479 . S
Tb80 O104 2.471 . S
Eu81 O92 2.418 . S
Eu81 O93 2.384 . S
Eu81 O96 2.479 . S
Eu81 O97 2.471 . S
Eu81 O98 2.347 . S
Eu81 O101 2.366 . S
Eu81 C111 2.825 . S
C82 O98 1.259 . S
C82 O99 1.265 . S
C83 O100 1.255 . S
C83 O101 1.265 . S
C84 C86 1.380 . S
C84 C87 1.374 . S
C84 C90 1.507 . S
C85 C86 1.384 . S
C85 C89 1.387 . S
C85 H112 0.930 . S
C86 C84 1.380 . S
C86 C85 1.384 . S
C86 H113 0.931 . S
C87 C84 1.374 . S
C87 C88 1.390 . S
C87 H114 0.930 . S
C88 C87 1.390 . S
C88 C89 1.391 . S
C88 H115 0.930 . S
C89 C85 1.387 . S
C89 C88 1.391 . S
C90 Tb80 2.825 . S
C90 C84 1.507 . S
C90 O103 1.238 . S
C90 O104 1.247 . S
O91 Tb80 2.347 . S
O91 C95 1.259 . S
O92 Eu81 2.418 . S
O92 C95 1.265 . S
O93 Eu81 2.384 . S
O93 C102 1.255 . S
O94 Tb80 2.366 . S
O94 C102 1.265 . S
C95 O91 1.259 . S
C95 O92 1.265 . S
O96 Eu81 2.479 . S
O96 C111 1.238 . S
O97 Eu81 2.471 . S
O97 C111 1.247 . S
O98 Eu81 2.347 . S
O98 C82 1.259 . S
O99 Tb80 2.418 . S
O99 C82 1.265 . S
O100 Tb80 2.384 . S
O100 C83 1.255 . S
O101 Eu81 2.366 . S
O101 C83 1.265 . S
C102 O93 1.255 . S
C102 O94 1.265 . S
O103 Tb80 2.479 . S
O103 C90 1.238 . S
O104 Tb80 2.471 . S
O104 C90 1.247 . S
C105 C108 1.380 . S
C105 C109 1.374 . S
C105 C111 1.507 . S
C106 C107 1.387 . S
C106 C110 1.391 . S
C107 C106 1.387 . S
C107 C108 1.384 . S
C107 H116 0.930 . S
C108 C105 1.380 . S
C108 C107 1.384 . S
C108 H117 0.931 . S
C109 C105 1.374 . S
C109 C110 1.390 . S
C109 H118 0.930 . S
C110 C106 1.391 . S
C110 C109 1.390 . S
C110 H119 0.930 . S
C111 Eu81 2.825 . S
C111 O96 1.238 . S
C111 O97 1.247 . S
C111 C105 1.507 . S
H112 C85 0.930 . S
H113 C86 0.931 . S
H114 C87 0.930 . S
H115 C88 0.930 . S
H116 C107 0.930 . S
H117 C108 0.931 . S
H118 C109 0.930 . S
H119 C110 0.930 . S
Tb120 C130 2.825 . S
Tb120 O131 2.347 . S
Tb120 O134 2.366 . S
Tb120 O139 2.418 . S
Tb120 O140 2.384 . S
Tb120 O143 2.479 . S
Tb120 O144 2.471 . S
Eu121 O132 2.418 . S
Eu121 O133 2.384 . S
Eu121 O136 2.468 1_556 S
Eu121 O137 2.471 . S
Eu121 O138 2.347 . S
Eu121 O141 2.366 . S
Eu121 C151 2.825 1_556 S
C122 O138 1.259 . S
C122 O139 1.265 . S
C123 O140 1.255 . S
C123 O141 1.265 . S
C124 C126 1.380 . S
C124 C127 1.374 . S
C124 C130 1.507 . S
C125 C126 1.384 . S
C125 C129 1.387 . S
C125 H152 0.930 . S
C126 C124 1.380 . S
C126 C125 1.384 . S
C126 H153 0.931 . S
C127 C124 1.374 . S
C127 C128 1.390 . S
C127 H154 0.930 . S
C128 C127 1.390 . S
C128 C129 1.391 . S
C128 H155 0.930 . S
C129 C125 1.387 . S
C129 C128 1.391 . S
C130 Tb120 2.825 . S
C130 C124 1.507 . S
C130 O143 1.238 . S
C130 O144 1.247 . S
O131 Tb120 2.347 . S
O131 C135 1.259 . S
O132 Eu121 2.418 . S
O132 C135 1.265 . S
O133 Eu121 2.384 . S
O133 C142 1.255 . S
O134 Tb120 2.366 . S
O134 C142 1.265 . S
C135 O131 1.259 . S
C135 O132 1.265 . S
O136 Eu121 2.468 1_554 S
O136 C151 1.241 . S
O137 Eu121 2.471 . S
O137 C151 1.247 1_556 S
O138 Eu121 2.347 . S
O138 C122 1.259 . S
O139 Tb120 2.418 . S
O139 C122 1.265 . S
O140 Tb120 2.384 . S
O140 C123 1.255 . S
O141 Eu121 2.366 . S
O141 C123 1.265 . S
C142 O133 1.255 . S
C142 O134 1.265 . S
O143 Tb120 2.479 . S
O143 C130 1.238 . S
O144 Tb120 2.471 . S
O144 C130 1.247 . S
C145 C148 1.380 . S
C145 C149 1.374 . S
C145 C151 1.507 . S
C146 C147 1.387 . S
C146 C150 1.391 . S
C147 C146 1.387 . S
C147 C148 1.384 . S
C147 H156 0.930 . S
C148 C145 1.380 . S
C148 C147 1.384 . S
C148 H157 0.931 . S
C149 C145 1.374 . S
C149 C150 1.390 . S
C149 H158 0.930 . S
C150 C146 1.391 . S
C150 C149 1.390 . S
C150 H159 0.930 . S
C151 Eu121 2.825 1_554 S
C151 O136 1.241 . S
C151 O137 1.247 1_554 S
C151 C145 1.507 . S
H152 C125 0.930 . S
H153 C126 0.931 . S
H154 C127 0.930 . S
H155 C128 0.930 . S
H156 C147 0.930 . S
H157 C148 0.931 . S
H158 C149 0.930 . S
H159 C150 0.930 . S
Tb160 C170 2.825 . S
Tb160 O171 2.347 . S
Tb160 O174 2.366 . S
Tb160 O179 2.418 . S
Tb160 O180 2.384 . S
Tb160 O183 2.479 . S
Tb160 O184 2.471 . S
Eu161 O172 2.418 . S
Eu161 O173 2.384 . S
Eu161 O176 2.479 1_556 S
Eu161 O177 2.471 . S
Eu161 O178 2.347 . S
Eu161 O181 2.366 . S
Eu161 C191 2.825 1_556 S
C162 O178 1.259 . S
C162 O179 1.265 . S
C163 O180 1.255 . S
C163 O181 1.265 . S
C164 C166 1.380 . S
C164 C167 1.374 . S
C164 C170 1.507 . S
C165 C166 1.384 . S
C165 C169 1.387 . S
C165 H192 0.930 . S
C166 C164 1.380 . S
C166 C165 1.384 . S
C166 H193 0.931 . S
C167 C164 1.374 . S
C167 C168 1.390 . S
C167 H194 0.930 . S
C168 C167 1.390 . S
C168 C169 1.391 . S
C168 H195 0.930 . S
C169 C165 1.387 . S
C169 C168 1.391 . S
C170 Tb160 2.825 . S
C170 C164 1.507 . S
C170 O183 1.238 . S
C170 O184 1.247 . S
O171 Tb160 2.347 . S
O171 C175 1.259 . S
O172 Eu161 2.418 . S
O172 C175 1.265 . S
O173 Eu161 2.384 . S
O173 C182 1.255 . S
O174 Tb160 2.366 . S
O174 C182 1.265 . S
C175 O171 1.259 . S
C175 O172 1.265 . S
O176 Eu161 2.479 1_554 S
O176 C191 1.238 . S
O177 Eu161 2.471 . S
O177 C191 1.247 1_556 S
O178 Eu161 2.347 . S
O178 C162 1.259 . S
O179 Tb160 2.418 . S
O179 C162 1.265 . S
O180 Tb160 2.384 . S
O180 C163 1.255 . S
O181 Eu161 2.366 . S
O181 C163 1.265 . S
C182 O173 1.255 . S
C182 O174 1.265 . S
O183 Tb160 2.479 . S
O183 C170 1.238 . S
O184 Tb160 2.471 . S
O184 C170 1.247 . S
C185 C188 1.380 . S
C185 C189 1.374 . S
C185 C191 1.507 . S
C186 C187 1.387 . S
C186 C190 1.391 . S
C187 C186 1.387 . S
C187 C188 1.384 . S
C187 H196 0.930 . S
C188 C185 1.380 . S
C188 C187 1.384 . S
C188 H197 0.931 . S
C189 C185 1.374 . S
C189 C190 1.390 . S
C189 H198 0.930 . S
C190 C186 1.391 . S
C190 C189 1.390 . S
C190 H199 0.930 . S
C191 Eu161 2.825 1_554 S
C191 O176 1.238 . S
C191 O177 1.247 1_554 S
C191 C185 1.507 . S
H192 C165 0.930 . S
H193 C166 0.931 . S
H194 C167 0.930 . S
H195 C168 0.930 . S
H196 C187 0.930 . S
H197 C188 0.931 . S
H198 C189 0.930 . S
H199 C190 0.930 . S
Tb200 C210 2.825 . S
Tb200 O211 2.347 . S
Tb200 O214 2.366 . S
Tb200 O219 2.418 . S
Tb200 O220 2.384 . S
Tb200 O223 2.479 . S
Tb200 O224 2.471 . S
Eu201 O212 2.418 . S
Eu201 O213 2.384 . S
Eu201 O216 2.479 . S
Eu201 O217 2.471 . S
Eu201 O218 2.347 . S
Eu201 O221 2.366 . S
Eu201 C231 2.825 . S
C202 O218 1.259 . S
C202 O219 1.265 . S
C203 O220 1.255 . S
C203 O221 1.265 . S
C204 C206 1.380 1_554 S
C204 C207 1.374 1_554 S
C204 C210 1.507 . S
C205 C206 1.384 . S
C205 C209 1.387 . S
C205 H232 0.930 . S
C206 C204 1.380 1_556 S
C206 C205 1.384 . S
C206 H233 0.931 . S
C207 C204 1.374 1_556 S
C207 C208 1.390 . S
C207 H234 0.930 1_556 S
C208 C207 1.390 . S
C208 C209 1.391 . S
C208 H235 0.930 . S
C209 C205 1.387 . S
C209 C208 1.391 . S
C210 Tb200 2.825 . S
C210 C204 1.507 . S
C210 O223 1.238 . S
C210 O224 1.247 . S
O211 Tb200 2.347 . S
O211 C215 1.259 . S
O212 Eu201 2.418 . S
O212 C215 1.265 . S
O213 Eu201 2.384 . S
O213 C222 1.255 . S
O214 Tb200 2.366 . S
O214 C222 1.265 . S
C215 O211 1.259 . S
C215 O212 1.265 . S
O216 Eu201 2.479 . S
O216 C231 1.238 . S
O217 Eu201 2.471 . S
O217 C231 1.247 . S
O218 Eu201 2.347 . S
O218 C202 1.259 . S
O219 Tb200 2.418 . S
O219 C202 1.265 . S
O220 Tb200 2.384 . S
O220 C203 1.255 . S
O221 Eu201 2.366 . S
O221 C203 1.265 . S
C222 O213 1.255 . S
C222 O214 1.265 . S
O223 Tb200 2.479 . S
O223 C210 1.238 . S
O224 Tb200 2.471 . S
O224 C210 1.247 . S
C225 C228 1.380 . S
C225 C229 1.374 . S
C225 C231 1.507 . S
C226 C227 1.387 . S
C226 C230 1.391 . S
C227 C226 1.387 . S
C227 C228 1.384 . S
C227 H236 0.930 . S
C228 C225 1.380 . S
C228 C227 1.384 . S
C228 H237 0.931 . S
C229 C225 1.374 . S
C229 C230 1.390 . S
C229 H238 0.930 . S
C230 C226 1.391 . S
C230 C229 1.390 . S
C230 H239 0.930 . S
C231 Eu201 2.825 . S
C231 O216 1.238 . S
C231 O217 1.247 . S
C231 C225 1.507 . S
H232 C205 0.930 . S
H233 C206 0.931 . S
H234 C207 0.930 1_554 S
H235 C208 0.930 . S
H236 C227 0.930 . S
H237 C228 0.931 . S
H238 C229 0.930 . S
H239 C230 0.930 . S
Tb240 C250 2.825 . S
Tb240 O251 2.347 . S
Tb240 O254 2.366 . S
Tb240 O259 2.418 . S
Tb240 O260 2.384 . S
Tb240 O263 2.479 . S
Tb240 O264 2.471 . S
Eu241 O252 2.418 . S
Eu241 O253 2.384 . S
Eu241 O256 2.479 . S
Eu241 O257 2.471 . S
Eu241 O258 2.347 . S
Eu241 O261 2.366 . S
Eu241 C271 2.825 . S
C242 O258 1.259 . S
C242 O259 1.265 . S
C243 O260 1.255 . S
C243 O261 1.265 . S
C244 C246 1.380 . S
C244 C247 1.374 . S
C244 C250 1.507 . S
C245 C246 1.384 . S
C245 C249 1.387 . S
C245 H272 0.930 . S
C246 C244 1.380 . S
C246 C245 1.384 . S
C246 H273 0.931 . S
C247 C244 1.374 . S
C247 C248 1.390 . S
C247 H274 0.930 . S
C248 C247 1.390 . S
C248 C249 1.391 . S
C248 H275 0.930 . S
C249 C245 1.387 . S
C249 C248 1.391 . S
C250 Tb240 2.825 . S
C250 C244 1.507 . S
C250 O263 1.238 . S
C250 O264 1.247 . S
O251 Tb240 2.347 . S
O251 C255 1.259 . S
O252 Eu241 2.418 . S
O252 C255 1.265 . S
O253 Eu241 2.384 . S
O253 C262 1.255 . S
O254 Tb240 2.366 . S
O254 C262 1.265 . S
C255 O251 1.259 . S
C255 O252 1.265 . S
O256 Eu241 2.479 . S
O256 C271 1.238 . S
O257 Eu241 2.471 . S
O257 C271 1.247 . S
O258 Eu241 2.347 . S
O258 C242 1.259 . S
O259 Tb240 2.418 . S
O259 C242 1.265 . S
O260 Tb240 2.384 . S
O260 C243 1.255 . S
O261 Eu241 2.366 . S
O261 C243 1.265 . S
C262 O253 1.255 . S
C262 O254 1.265 . S
O263 Tb240 2.479 . S
O263 C250 1.238 . S
O264 Tb240 2.471 . S
O264 C250 1.247 . S
C265 C268 1.380 . S
C265 C269 1.374 . S
C265 C271 1.507 . S
C266 C267 1.387 . S
C266 C270 1.391 . S
C267 C266 1.387 . S
C267 C268 1.384 . S
C267 H276 0.930 . S
C268 C265 1.380 . S
C268 C267 1.384 . S
C268 H277 0.931 . S
C269 C265 1.374 . S
C269 C270 1.390 . S
C269 H278 0.930 . S
C270 C266 1.391 . S
C270 C269 1.390 . S
C270 H279 0.930 . S
C271 Eu241 2.825 . S
C271 O256 1.238 . S
C271 O257 1.247 . S
C271 C265 1.507 . S
H272 C245 0.930 . S
H273 C246 0.931 . S
H274 C247 0.930 . S
H275 C248 0.930 . S
H276 C267 0.930 . S
H277 C268 0.931 . S
H278 C269 0.930 . S
H279 C270 0.930 . S
Tb280 C290 2.825 . S
Tb280 O291 2.347 . S
Tb280 O294 2.366 . S
Tb280 O299 2.418 . S
Tb280 O300 2.384 . S
Tb280 O303 2.479 . S
Tb280 O304 2.471 . S
Eu281 O292 2.418 . S
Eu281 O293 2.384 . S
Eu281 O296 2.479 . S
Eu281 O297 2.471 . S
Eu281 O298 2.347 . S
Eu281 O301 2.366 . S
Eu281 C311 2.825 . S
C282 O298 1.259 . S
C282 O299 1.265 . S
C283 O300 1.255 . S
C283 O301 1.265 . S
C284 C286 1.380 . S
C284 C287 1.374 . S
C284 C290 1.507 . S
C285 C286 1.384 . S
C285 C289 1.387 . S
C285 H312 0.930 . S
C286 C284 1.380 . S
C286 C285 1.384 . S
C286 H313 0.931 . S
C287 C284 1.374 . S
C287 C288 1.390 . S
C287 H314 0.930 . S
C288 C287 1.390 . S
C288 C289 1.391 . S
C288 H315 0.930 . S
C289 C285 1.387 . S
C289 C288 1.391 . S
C290 Tb280 2.825 . S
C290 C284 1.507 . S
C290 O303 1.238 . S
C290 O304 1.247 . S
O291 Tb280 2.347 . S
O291 C295 1.259 . S
O292 Eu281 2.418 . S
O292 C295 1.265 . S
O293 Eu281 2.384 . S
O293 C302 1.255 . S
O294 Tb280 2.366 . S
O294 C302 1.265 . S
C295 O291 1.259 . S
C295 O292 1.265 . S
O296 Eu281 2.479 . S
O296 C311 1.238 . S
O297 Eu281 2.471 . S
O297 C311 1.247 . S
O298 Eu281 2.347 . S
O298 C282 1.259 . S
O299 Tb280 2.418 . S
O299 C282 1.265 . S
O300 Tb280 2.384 . S
O300 C283 1.255 . S
O301 Eu281 2.366 . S
O301 C283 1.265 . S
C302 O293 1.255 . S
C302 O294 1.265 . S
O303 Tb280 2.479 . S
O303 C290 1.238 . S
O304 Tb280 2.471 . S
O304 C290 1.247 . S
C305 C308 1.380 . S
C305 C309 1.374 . S
C305 C311 1.507 . S
C306 C307 1.387 . S
C306 C310 1.391 . S
C307 C306 1.387 . S
C307 C308 1.384 . S
C307 H316 0.930 . S
C308 C305 1.380 . S
C308 C307 1.384 . S
C308 H317 0.931 . S
C309 C305 1.374 . S
C309 C310 1.390 . S
C309 H318 0.930 . S
C310 C306 1.391 . S
C310 C309 1.390 . S
C310 H319 0.930 . S
C311 Eu281 2.825 . S
C311 O296 1.238 . S
C311 O297 1.247 . S
C311 C305 1.507 . S
H312 C285 0.930 . S
H313 C286 0.931 . S
H314 C287 0.930 . S
H315 C288 0.930 . S
H316 C307 0.930 . S
H317 C308 0.931 . S
H318 C309 0.930 . S
H319 C310 0.930 . S
Tb320 C330 2.825 . S
Tb320 O331 2.347 . S
Tb320 O334 2.366 . S
Tb320 O339 2.418 . S
Tb320 O340 2.384 . S
Tb320 O343 2.479 . S
Tb320 O344 2.471 . S
Eu321 O332 2.418 . S
Eu321 O333 2.384 . S
Eu321 O336 2.479 . S
Eu321 O337 2.471 . S
Eu321 O338 2.347 . S
Eu321 O341 2.366 . S
Eu321 C351 2.825 . S
C322 O338 1.259 . S
C322 O339 1.265 . S
C323 O340 1.255 . S
C323 O341 1.265 . S
C324 C326 1.380 1_556 S
C324 C327 1.374 1_556 S
C324 C330 1.507 . S
C325 C326 1.384 . S
C325 C329 1.387 . S
C325 H352 0.930 . S
C326 C324 1.380 1_554 S
C326 C325 1.384 . S
C326 H353 0.931 . S
C327 C324 1.374 1_554 S
C327 C328 1.390 . S
C327 H354 0.930 1_554 S
C328 C327 1.390 . S
C328 C329 1.391 . S
C328 H355 0.930 . S
C329 C325 1.387 . S
C329 C328 1.391 . S
C330 Tb320 2.825 . S
C330 C324 1.507 . S
C330 O343 1.238 . S
C330 O344 1.247 . S
O331 Tb320 2.347 . S
O331 C335 1.259 . S
O332 Eu321 2.418 . S
O332 C335 1.265 . S
O333 Eu321 2.384 . S
O333 C342 1.255 . S
O334 Tb320 2.366 . S
O334 C342 1.265 . S
C335 O331 1.259 . S
C335 O332 1.265 . S
O336 Eu321 2.479 . S
O336 C351 1.238 . S
O337 Eu321 2.471 . S
O337 C351 1.247 . S
O338 Eu321 2.347 . S
O338 C322 1.259 . S
O339 Tb320 2.418 . S
O339 C322 1.265 . S
O340 Tb320 2.384 . S
O340 C323 1.255 . S
O341 Eu321 2.366 . S
O341 C323 1.265 . S
C342 O333 1.255 . S
C342 O334 1.265 . S
O343 Tb320 2.479 . S
O343 C330 1.238 . S
O344 Tb320 2.471 . S
O344 C330 1.247 . S
C345 C348 1.380 . S
C345 C349 1.374 . S
C345 C351 1.507 . S
C346 C347 1.387 . S
C346 C350 1.391 . S
C347 C346 1.387 . S
C347 C348 1.384 . S
C347 H356 0.930 . S
C348 C345 1.380 . S
C348 C347 1.384 . S
C348 H357 0.931 . S
C349 C345 1.374 . S
C349 C350 1.390 . S
C349 H358 0.930 . S
C350 C346 1.391 . S
C350 C349 1.390 . S
C350 H359 0.930 . S
C351 Eu321 2.825 . S
C351 O336 1.238 . S
C351 O337 1.247 . S
C351 C345 1.507 . S
H352 C325 0.930 . S
H353 C326 0.931 . S
H354 C327 0.930 1_556 S
H355 C328 0.930 . S
H356 C347 0.930 . S
H357 C348 0.931 . S
H358 C349 0.930 . S
H359 C350 0.930 . S
Tb360 C370 2.825 . S
Tb360 O371 2.347 . S
Tb360 O374 2.366 . S
Tb360 O379 2.418 . S
Tb360 O380 2.384 . S
Tb360 O383 2.479 . S
Tb360 O384 2.471 . S
Eu361 O372 2.418 . S
Eu361 O373 2.384 . S
Eu361 O376 2.479 . S
Eu361 O377 2.471 . S
Eu361 O378 2.347 . S
Eu361 O381 2.366 . S
Eu361 C391 2.825 . S
C362 O378 1.259 . S
C362 O379 1.265 . S
C363 O380 1.255 . S
C363 O381 1.265 . S
C364 C366 1.380 . S
C364 C367 1.374 . S
C364 C370 1.507 . S
C365 C366 1.384 . S
C365 C369 1.387 . S
C365 H392 0.930 . S
C366 C364 1.380 . S
C366 C365 1.384 . S
C366 H393 0.931 . S
C367 C364 1.374 . S
C367 C368 1.390 . S
C367 H394 0.930 . S
C368 C367 1.390 . S
C368 C369 1.391 . S
C368 H395 0.930 . S
C369 C365 1.387 . S
C369 C368 1.391 . S
C370 Tb360 2.825 . S
C370 C364 1.507 . S
C370 O383 1.238 . S
C370 O384 1.247 . S
O371 Tb360 2.347 . S
O371 C375 1.259 . S
O372 Eu361 2.418 . S
O372 C375 1.265 . S
O373 Eu361 2.384 . S
O373 C382 1.255 . S
O374 Tb360 2.366 . S
O374 C382 1.265 . S
C375 O371 1.259 . S
C375 O372 1.265 . S
O376 Eu361 2.479 . S
O376 C391 1.238 . S
O377 Eu361 2.471 . S
O377 C391 1.247 . S
O378 Eu361 2.347 . S
O378 C362 1.259 . S
O379 Tb360 2.418 . S
O379 C362 1.265 . S
O380 Tb360 2.384 . S
O380 C363 1.255 . S
O381 Eu361 2.366 . S
O381 C363 1.265 . S
C382 O373 1.255 . S
C382 O374 1.265 . S
O383 Tb360 2.479 . S
O383 C370 1.238 . S
O384 Tb360 2.471 . S
O384 C370 1.247 . S
C385 C388 1.380 . S
C385 C389 1.374 . S
C385 C391 1.507 . S
C386 C387 1.387 . S
C386 C390 1.391 . S
C387 C386 1.387 . S
C387 C388 1.384 . S
C387 H396 0.930 . S
C388 C385 1.380 . S
C388 C387 1.384 . S
C388 H397 0.931 . S
C389 C385 1.374 . S
C389 C390 1.390 . S
C389 H398 0.930 . S
C390 C386 1.391 . S
C390 C389 1.390 . S
C390 H399 0.930 . S
C391 Eu361 2.825 . S
C391 O376 1.238 . S
C391 O377 1.247 . S
C391 C385 1.507 . S
H392 C365 0.930 . S
H393 C366 0.931 . S
H394 C367 0.930 . S
H395 C368 0.930 . S
H396 C387 0.930 . S
H397 C388 0.931 . S
H398 C389 0.930 . S
H399 C390 0.930 . S
Tb400 C410 2.825 . S
Tb400 O411 2.347 . S
Tb400 O414 2.366 . S
Tb400 O419 2.418 . S
Tb400 O420 2.384 . S
Tb400 O423 2.479 . S
Tb400 O424 2.471 . S
Eu401 O412 2.418 . S
Eu401 O413 2.384 . S
Eu401 O416 2.479 . S
Eu401 O417 2.471 . S
Eu401 O418 2.347 . S
Eu401 O421 2.366 . S
Eu401 C431 2.825 . S
C402 O418 1.259 . S
C402 O419 1.265 . S
C403 O420 1.255 . S
C403 O421 1.265 . S
C404 C406 1.380 . S
C404 C407 1.374 . S
C404 C410 1.507 . S
C405 C406 1.384 . S
C405 C409 1.387 . S
C405 H432 0.930 . S
C406 C404 1.380 . S
C406 C405 1.384 . S
C406 H433 0.931 . S
C407 C404 1.374 . S
C407 C408 1.390 . S
C407 H434 0.930 . S
C408 C407 1.390 . S
C408 C409 1.391 . S
C408 H435 0.930 . S
C409 C405 1.387 . S
C409 C408 1.391 . S
C410 Tb400 2.825 . S
C410 C404 1.507 . S
C410 O423 1.238 . S
C410 O424 1.247 . S
O411 Tb400 2.347 . S
O411 C415 1.259 . S
O412 Eu401 2.418 . S
O412 C415 1.265 . S
O413 Eu401 2.384 . S
O413 C422 1.255 . S
O414 Tb400 2.366 . S
O414 C422 1.265 . S
C415 O411 1.259 . S
C415 O412 1.265 . S
O416 Eu401 2.479 . S
O416 C431 1.238 . S
O417 Eu401 2.471 . S
O417 C431 1.247 . S
O418 Eu401 2.347 . S
O418 C402 1.259 . S
O419 Tb400 2.418 . S
O419 C402 1.265 . S
O420 Tb400 2.384 . S
O420 C403 1.255 . S
O421 Eu401 2.366 . S
O421 C403 1.265 . S
C422 O413 1.255 . S
C422 O414 1.265 . S
O423 Tb400 2.479 . S
O423 C410 1.238 . S
O424 Tb400 2.471 . S
O424 C410 1.247 . S
C425 C428 1.380 . S
C425 C429 1.374 . S
C425 C431 1.507 . S
C426 C427 1.387 . S
C426 C430 1.391 . S
C427 C426 1.387 . S
C427 C428 1.384 . S
C427 H436 0.930 . S
C428 C425 1.380 . S
C428 C427 1.384 . S
C428 H437 0.931 . S
C429 C425 1.374 . S
C429 C430 1.390 . S
C429 H438 0.930 . S
C430 C426 1.391 . S
C430 C429 1.390 . S
C430 H439 0.930 . S
C431 Eu401 2.825 . S
C431 O416 1.238 . S
C431 O417 1.247 . S
C431 C425 1.507 . S
H432 C405 0.930 . S
H433 C406 0.931 . S
H434 C407 0.930 . S
H435 C408 0.930 . S
H436 C427 0.930 . S
H437 C428 0.931 . S
H438 C429 0.930 . S
H439 C430 0.930 . S
Tb440 C450 2.825 1_554 S
Tb440 O451 2.347 . S
Tb440 O454 2.366 . S
Tb440 O459 2.418 . S
Tb440 O460 2.384 . S
Tb440 O463 2.468 1_554 S
Tb440 O464 2.471 . S
Eu441 O452 2.418 . S
Eu441 O453 2.384 . S
Eu441 O456 2.479 . S
Eu441 O457 2.471 . S
Eu441 O458 2.347 . S
Eu441 O461 2.366 . S
Eu441 C471 2.825 . S
C442 O458 1.259 . S
C442 O459 1.265 . S
C443 O460 1.255 . S
C443 O461 1.265 . S
C444 C446 1.380 . S
C444 C447 1.374 . S
C444 C450 1.507 . S
C445 C446 1.384 . S
C445 C449 1.387 . S
C445 H472 0.930 . S
C446 C444 1.380 . S
C446 C445 1.384 . S
C446 H473 0.931 . S
C447 C444 1.374 . S
C447 C448 1.390 . S
C447 H474 0.930 . S
C448 C447 1.390 . S
C448 C449 1.391 . S
C448 H475 0.930 . S
C449 C445 1.387 . S
C449 C448 1.391 . S
C450 Tb440 2.825 1_556 S
C450 C444 1.507 . S
C450 O463 1.241 . S
C450 O464 1.247 1_556 S
O451 Tb440 2.347 . S
O451 C455 1.259 . S
O452 Eu441 2.418 . S
O452 C455 1.265 . S
O453 Eu441 2.384 . S
O453 C462 1.255 . S
O454 Tb440 2.366 . S
O454 C462 1.265 . S
C455 O451 1.259 . S
C455 O452 1.265 . S
O456 Eu441 2.479 . S
O456 C471 1.238 . S
O457 Eu441 2.471 . S
O457 C471 1.247 . S
O458 Eu441 2.347 . S
O458 C442 1.259 . S
O459 Tb440 2.418 . S
O459 C442 1.265 . S
O460 Tb440 2.384 . S
O460 C443 1.255 . S
O461 Eu441 2.366 . S
O461 C443 1.265 . S
C462 O453 1.255 . S
C462 O454 1.265 . S
O463 Tb440 2.468 1_556 S
O463 C450 1.241 . S
O464 Tb440 2.471 . S
O464 C450 1.247 1_554 S
C465 C468 1.380 . S
C465 C469 1.374 . S
C465 C471 1.507 . S
C466 C467 1.387 . S
C466 C470 1.391 . S
C467 C466 1.387 . S
C467 C468 1.384 . S
C467 H476 0.930 . S
C468 C465 1.380 . S
C468 C467 1.384 . S
C468 H477 0.931 . S
C469 C465 1.374 . S
C469 C470 1.390 . S
C469 H478 0.930 . S
C470 C466 1.391 . S
C470 C469 1.390 . S
C470 H479 0.930 . S
C471 Eu441 2.825 . S
C471 O456 1.238 . S
C471 O457 1.247 . S
C471 C465 1.507 . S
H472 C445 0.930 . S
H473 C446 0.931 . S
H474 C447 0.930 . S
H475 C448 0.930 . S
H476 C467 0.930 . S
H477 C468 0.931 . S
H478 C469 0.930 . S
H479 C470 0.930 . S
Tb480 C490 2.825 1_554 S
Tb480 O491 2.347 . S
Tb480 O494 2.366 . S
Tb480 O499 2.418 . S
Tb480 O500 2.384 . S
Tb480 O503 2.479 1_554 S
Tb480 O504 2.471 . S
Eu481 O492 2.418 . S
Eu481 O493 2.384 . S
Eu481 O496 2.479 . S
Eu481 O497 2.471 . S
Eu481 O498 2.347 . S
Eu481 O501 2.366 . S
Eu481 C511 2.825 . S
C482 O498 1.259 . S
C482 O499 1.265 . S
C483 O500 1.255 . S
C483 O501 1.265 . S
C484 C486 1.380 . S
C484 C487 1.374 . S
C484 C490 1.507 . S
C485 C486 1.384 . S
C485 C489 1.387 . S
C485 H512 0.930 . S
C486 C484 1.380 . S
C486 C485 1.384 . S
C486 H513 0.931 . S
C487 C484 1.374 . S
C487 C488 1.390 . S
C487 H514 0.930 . S
C488 C487 1.390 . S
C488 C489 1.391 . S
C488 H515 0.930 . S
C489 C485 1.387 . S
C489 C488 1.391 . S
C490 Tb480 2.825 1_556 S
C490 C484 1.507 . S
C490 O503 1.238 . S
C490 O504 1.247 1_556 S
O491 Tb480 2.347 . S
O491 C495 1.259 . S
O492 Eu481 2.418 . S
O492 C495 1.265 . S
O493 Eu481 2.384 . S
O493 C502 1.255 . S
O494 Tb480 2.366 . S
O494 C502 1.265 . S
C495 O491 1.259 . S
C495 O492 1.265 . S
O496 Eu481 2.479 . S
O496 C511 1.238 . S
O497 Eu481 2.471 . S
O497 C511 1.247 . S
O498 Eu481 2.347 . S
O498 C482 1.259 . S
O499 Tb480 2.418 . S
O499 C482 1.265 . S
O500 Tb480 2.384 . S
O500 C483 1.255 . S
O501 Eu481 2.366 . S
O501 C483 1.265 . S
C502 O493 1.255 . S
C502 O494 1.265 . S
O503 Tb480 2.479 1_556 S
O503 C490 1.238 . S
O504 Tb480 2.471 . S
O504 C490 1.247 1_554 S
C505 C508 1.380 . S
C505 C509 1.374 . S
C505 C511 1.507 . S
C506 C507 1.387 . S
C506 C510 1.391 . S
C507 C506 1.387 . S
C507 C508 1.384 . S
C507 H516 0.930 . S
C508 C505 1.380 . S
C508 C507 1.384 . S
C508 H517 0.931 . S
C509 C505 1.374 . S
C509 C510 1.390 . S
C509 H518 0.930 . S
C510 C506 1.391 . S
C510 C509 1.390 . S
C510 H519 0.930 . S
C511 Eu481 2.825 . S
C511 O496 1.238 . S
C511 O497 1.247 . S
C511 C505 1.507 . S
H512 C485 0.930 . S
H513 C486 0.931 . S
H514 C487 0.930 . S
H515 C488 0.930 . S
H516 C507 0.930 . S
H517 C508 0.931 . S
H518 C509 0.930 . S
H519 C510 0.930 . S
Tb520 C530 2.825 . S
Tb520 O531 2.347 . S
Tb520 O534 2.366 . S
Tb520 O539 2.418 . S
Tb520 O540 2.384 . S
Tb520 O543 2.479 . S
Tb520 O544 2.471 . S
Eu521 O532 2.418 . S
Eu521 O533 2.384 . S
Eu521 O536 2.479 . S
Eu521 O537 2.471 . S
Eu521 O538 2.347 . S
Eu521 O541 2.366 . S
Eu521 C551 2.825 . S
C522 O538 1.259 . S
C522 O539 1.265 . S
C523 O540 1.255 . S
C523 O541 1.265 . S
C524 C526 1.380 . S
C524 C527 1.374 . S
C524 C530 1.507 . S
C525 C526 1.384 . S
C525 C529 1.387 . S
C525 H552 0.930 . S
C526 C524 1.380 . S
C526 C525 1.384 . S
C526 H553 0.931 . S
C527 C524 1.374 . S
C527 C528 1.390 . S
C527 H554 0.930 . S
C528 C527 1.390 . S
C528 C529 1.391 . S
C528 H555 0.930 . S
C529 C525 1.387 . S
C529 C528 1.391 . S
C530 Tb520 2.825 . S
C530 C524 1.507 . S
C530 O543 1.238 . S
C530 O544 1.247 . S
O531 Tb520 2.347 . S
O531 C535 1.259 . S
O532 Eu521 2.418 . S
O532 C535 1.265 . S
O533 Eu521 2.384 . S
O533 C542 1.255 . S
O534 Tb520 2.366 . S
O534 C542 1.265 . S
C535 O531 1.259 . S
C535 O532 1.265 . S
O536 Eu521 2.479 . S
O536 C551 1.238 . S
O537 Eu521 2.471 . S
O537 C551 1.247 . S
O538 Eu521 2.347 . S
O538 C522 1.259 . S
O539 Tb520 2.418 . S
O539 C522 1.265 . S
O540 Tb520 2.384 . S
O540 C523 1.255 . S
O541 Eu521 2.366 . S
O541 C523 1.265 . S
C542 O533 1.255 . S
C542 O534 1.265 . S
O543 Tb520 2.479 . S
O543 C530 1.238 . S
O544 Tb520 2.471 . S
O544 C530 1.247 . S
C545 C548 1.380 1_556 S
C545 C549 1.374 1_556 S
C545 C551 1.507 . S
C546 C547 1.387 . S
C546 C550 1.391 . S
C547 C546 1.387 . S
C547 C548 1.384 . S
C547 H556 0.930 . S
C548 C545 1.380 1_554 S
C548 C547 1.384 . S
C548 H557 0.931 . S
C549 C545 1.374 1_554 S
C549 C550 1.390 . S
C549 H558 0.930 1_554 S
C550 C546 1.391 . S
C550 C549 1.390 . S
C550 H559 0.930 . S
C551 Eu521 2.825 . S
C551 O536 1.238 . S
C551 O537 1.247 . S
C551 C545 1.507 . S
H552 C525 0.930 . S
H553 C526 0.931 . S
H554 C527 0.930 . S
H555 C528 0.930 . S
H556 C547 0.930 . S
H557 C548 0.931 . S
H558 C549 0.930 1_556 S
H559 C550 0.930 . S
Tb560 C570 2.825 . S
Tb560 O571 2.347 . S
Tb560 O574 2.366 . S
Tb560 O579 2.418 . S
Tb560 O580 2.384 . S
Tb560 O583 2.479 . S
Tb560 O584 2.471 . S
Eu561 O572 2.418 . S
Eu561 O573 2.384 . S
Eu561 O576 2.479 . S
Eu561 O577 2.471 . S
Eu561 O578 2.347 . S
Eu561 O581 2.366 . S
Eu561 C591 2.825 . S
C562 O578 1.259 . S
C562 O579 1.265 . S
C563 O580 1.255 . S
C563 O581 1.265 . S
C564 C566 1.380 . S
C564 C567 1.374 . S
C564 C570 1.507 . S
C565 C566 1.384 . S
C565 C569 1.387 . S
C565 H592 0.930 . S
C566 C564 1.380 . S
C566 C565 1.384 . S
C566 H593 0.931 . S
C567 C564 1.374 . S
C567 C568 1.390 . S
C567 H594 0.930 . S
C568 C567 1.390 . S
C568 C569 1.391 . S
C568 H595 0.930 . S
C569 C565 1.387 . S
C569 C568 1.391 . S
C570 Tb560 2.825 . S
C570 C564 1.507 . S
C570 O583 1.238 . S
C570 O584 1.247 . S
O571 Tb560 2.347 . S
O571 C575 1.259 . S
O572 Eu561 2.418 . S
O572 C575 1.265 . S
O573 Eu561 2.384 . S
O573 C582 1.255 . S
O574 Tb560 2.366 . S
O574 C582 1.265 . S
C575 O571 1.259 . S
C575 O572 1.265 . S
O576 Eu561 2.479 . S
O576 C591 1.238 . S
O577 Eu561 2.471 . S
O577 C591 1.247 . S
O578 Eu561 2.347 . S
O578 C562 1.259 . S
O579 Tb560 2.418 . S
O579 C562 1.265 . S
O580 Tb560 2.384 . S
O580 C563 1.255 . S
O581 Eu561 2.366 . S
O581 C563 1.265 . S
C582 O573 1.255 . S
C582 O574 1.265 . S
O583 Tb560 2.479 . S
O583 C570 1.238 . S
O584 Tb560 2.471 . S
O584 C570 1.247 . S
C585 C588 1.380 . S
C585 C589 1.374 . S
C585 C591 1.507 . S
C586 C587 1.387 . S
C586 C590 1.391 . S
C587 C586 1.387 . S
C587 C588 1.384 . S
C587 H596 0.930 . S
C588 C585 1.380 . S
C588 C587 1.384 . S
C588 H597 0.931 . S
C589 C585 1.374 . S
C589 C590 1.390 . S
C589 H598 0.930 . S
C590 C586 1.391 . S
C590 C589 1.390 . S
C590 H599 0.930 . S
C591 Eu561 2.825 . S
C591 O576 1.238 . S
C591 O577 1.247 . S
C591 C585 1.507 . S
H592 C565 0.930 . S
H593 C566 0.931 . S
H594 C567 0.930 . S
H595 C568 0.930 . S
H596 C587 0.930 . S
H597 C588 0.931 . S
H598 C589 0.930 . S
H599 C590 0.930 . S
Tb600 C610 2.825 . S
Tb600 O611 2.347 . S
Tb600 O614 2.366 . S
Tb600 O619 2.418 . S
Tb600 O620 2.384 . S
Tb600 O623 2.479 . S
Tb600 O624 2.471 . S
Eu601 O612 2.418 . S
Eu601 O613 2.384 . S
Eu601 O616 2.479 . S
Eu601 O617 2.471 . S
Eu601 O618 2.347 . S
Eu601 O621 2.366 . S
Eu601 C631 2.825 . S
C602 O618 1.259 . S
C602 O619 1.265 . S
C603 O620 1.255 . S
C603 O621 1.265 . S
C604 C606 1.380 . S
C604 C607 1.374 . S
C604 C610 1.507 . S
C605 C606 1.384 . S
C605 C609 1.387 . S
C605 H632 0.930 . S
C606 C604 1.380 . S
C606 C605 1.384 . S
C606 H633 0.931 . S
C607 C604 1.374 . S
C607 C608 1.390 . S
C607 H634 0.930 . S
C608 C607 1.390 . S
C608 C609 1.391 . S
C608 H635 0.930 . S
C609 C605 1.387 . S
C609 C608 1.391 . S
C610 Tb600 2.825 . S
C610 C604 1.507 . S
C610 O623 1.238 . S
C610 O624 1.247 . S
O611 Tb600 2.347 . S
O611 C615 1.259 . S
O612 Eu601 2.418 . S
O612 C615 1.265 . S
O613 Eu601 2.384 . S
O613 C622 1.255 . S
O614 Tb600 2.366 . S
O614 C622 1.265 . S
C615 O611 1.259 . S
C615 O612 1.265 . S
O616 Eu601 2.479 . S
O616 C631 1.238 . S
O617 Eu601 2.471 . S
O617 C631 1.247 . S
O618 Eu601 2.347 . S
O618 C602 1.259 . S
O619 Tb600 2.418 . S
O619 C602 1.265 . S
O620 Tb600 2.384 . S
O620 C603 1.255 . S
O621 Eu601 2.366 . S
O621 C603 1.265 . S
C622 O613 1.255 . S
C622 O614 1.265 . S
O623 Tb600 2.479 . S
O623 C610 1.238 . S
O624 Tb600 2.471 . S
O624 C610 1.247 . S
C625 C628 1.380 . S
C625 C629 1.374 . S
C625 C631 1.507 . S
C626 C627 1.387 . S
C626 C630 1.391 . S
C627 C626 1.387 . S
C627 C628 1.384 . S
C627 H636 0.930 . S
C628 C625 1.380 . S
C628 C627 1.384 . S
C628 H637 0.931 . S
C629 C625 1.374 . S
C629 C630 1.390 . S
C629 H638 0.930 . S
C630 C626 1.391 . S
C630 C629 1.390 . S
C630 H639 0.930 . S
C631 Eu601 2.825 . S
C631 O616 1.238 . S
C631 O617 1.247 . S
C631 C625 1.507 . S
H632 C605 0.930 . S
H633 C606 0.931 . S
H634 C607 0.930 . S
H635 C608 0.930 . S
H636 C627 0.930 . S
H637 C628 0.931 . S
H638 C629 0.930 . S
H639 C630 0.930 . S
C640 C641 1.349 . S
C640 C642 1.327 . S
C640 H665 0.950 . S
C641 C640 1.349 . S
C641 C657 1.349 . S
C642 C640 1.327 . S
C642 C661 1.429 . S
C642 H666 0.950 . S
C643 C660 1.574 . S
C643 C662 1.368 . S
C643 H667 0.949 . S
H644 C648 0.949 . S
C645 C646 1.349 . S
C645 C647 1.327 . S
C645 H668 0.950 . S
C646 C645 1.349 . S
C646 C658 1.349 . S
C647 C645 1.327 . S
C647 C663 1.429 . S
C647 H669 0.950 . S
C648 H644 0.949 . S
C648 C656 1.574 . S
C648 C664 1.368 . S
H649 C657 0.950 . S
H650 C655 0.950 . S
H651 C656 0.949 . S
H652 C658 0.950 . S
H653 C659 0.950 . S
H654 C660 0.949 . S
C655 H650 0.950 . S
C655 C657 1.327 . S
C655 C661 1.429 . S
C656 C648 1.574 . S
C656 H651 0.949 . S
C656 C662 1.368 . S
C657 C641 1.349 . S
C657 H649 0.950 . S
C657 C655 1.327 . S
C658 C646 1.349 . S
C658 H652 0.950 . S
C658 C659 1.327 . S
C659 H653 0.950 . S
C659 C658 1.327 . S
C659 C663 1.429 . S
C660 C643 1.574 . S
C660 H654 0.949 . S
C660 C664 1.368 . S
C661 C642 1.429 . S
C661 C655 1.429 . S
C661 C662 1.523 . S
C662 C643 1.368 . S
C662 C656 1.368 . S
C662 C661 1.523 . S
C663 C647 1.429 . S
C663 C659 1.429 . S
C663 C664 1.523 . S
C664 C648 1.368 . S
C664 C660 1.368 . S
C664 C663 1.523 . S
H665 C640 0.950 . S
H666 C642 0.950 . S
H667 C643 0.949 . S
H668 C645 0.950 . S
H669 C647 0.950 . S
C670 C671 1.349 . S
C670 C672 1.327 1_554 S
C670 H695 0.950 . S
C671 C670 1.349 . S
C671 C687 1.349 . S
C672 C670 1.327 1_556 S
C672 C691 1.429 . S
C672 H696 0.950 . S
C673 C690 1.574 . S
C673 C692 1.368 . S
C673 H697 0.949 . S
H674 C678 0.949 . S
C675 C676 1.349 . S
C675 C677 1.327 . S
C675 H698 0.950 . S
C676 C675 1.349 . S
C676 C688 1.349 . S
C677 C675 1.327 . S
C677 C693 1.429 . S
C677 H699 0.950 . S
C678 H674 0.949 . S
C678 C686 1.574 . S
C678 C694 1.368 . S
H679 C687 0.950 . S
H680 C685 0.950 . S
H681 C686 0.949 . S
H682 C688 0.950 . S
H683 C689 0.950 . S
H684 C690 0.949 . S
C685 H680 0.950 . S
C685 C687 1.327 1_556 S
C685 C691 1.429 . S
C686 C678 1.574 . S
C686 H681 0.949 . S
C686 C692 1.368 . S
C687 C671 1.349 . S
C687 H679 0.950 . S
C687 C685 1.327 1_554 S
C688 C676 1.349 . S
C688 H682 0.950 . S
C688 C689 1.327 . S
C689 H683 0.950 . S
C689 C688 1.327 . S
C689 C693 1.429 . S
C690 C673 1.574 . S
C690 H684 0.949 . S
C690 C694 1.368 . S
C691 C672 1.429 . S
C691 C685 1.429 . S
C691 C692 1.523 . S
C692 C673 1.368 . S
C692 C686 1.368 . S
C692 C691 1.523 . S
C693 C677 1.429 . S
C693 C689 1.429 . S
C693 C694 1.523 . S
C694 C678 1.368 . S
C694 C690 1.368 . S
C694 C693 1.523 . S
H695 C670 0.950 . S
H696 C672 0.950 . S
H697 C673 0.949 . S
H698 C675 0.950 . S
H699 C677 0.950 . S
C700 C701 1.349 . S
C700 C702 1.327 . S
C700 H725 0.950 . S
C701 C700 1.349 . S
C701 C717 1.349 . S
C702 C700 1.327 . S
C702 C721 1.429 . S
C702 H726 0.950 . S
C703 C720 1.574 . S
C703 C722 1.368 . S
C703 H727 0.949 . S
H704 C708 0.949 . S
C705 C706 1.349 . S
C705 C707 1.327 . S
C705 H728 0.950 . S
C706 C705 1.349 . S
C706 C718 1.349 . S
C707 C705 1.327 . S
C707 C723 1.429 . S
C707 H729 0.950 . S
C708 H704 0.949 . S
C708 C716 1.574 . S
C708 C724 1.368 . S
H709 C717 0.950 . S
H710 C715 0.950 . S
H711 C716 0.949 . S
H712 C718 0.950 . S
H713 C719 0.950 . S
H714 C720 0.949 . S
C715 H710 0.950 . S
C715 C717 1.327 . S
C715 C721 1.429 . S
C716 C708 1.574 . S
C716 H711 0.949 . S
C716 C722 1.368 . S
C717 C701 1.349 . S
C717 H709 0.950 . S
C717 C715 1.327 . S
C718 C706 1.349 . S
C718 H712 0.950 . S
C718 C719 1.327 . S
C719 H713 0.950 . S
C719 C718 1.327 . S
C719 C723 1.429 . S
C720 C703 1.574 . S
C720 H714 0.949 . S
C720 C724 1.368 . S
C721 C702 1.429 . S
C721 C715 1.429 . S
C721 C722 1.523 . S
C722 C703 1.368 . S
C722 C716 1.368 . S
C722 C721 1.523 . S
C723 C707 1.429 . S
C723 C719 1.429 . S
C723 C724 1.523 . S
C724 C708 1.368 . S
C724 C720 1.368 . S
C724 C723 1.523 . S
H725 C700 0.950 . S
H726 C702 0.950 . S
H727 C703 0.949 . S
H728 C705 0.950 . S
H729 C707 0.950 . S
C730 C731 1.349 . S
C730 C732 1.327 . S
C730 H755 0.950 . S
C731 C730 1.349 . S
C731 C747 1.349 . S
C732 C730 1.327 . S
C732 C751 1.429 . S
C732 H756 0.950 . S
C733 C750 1.574 . S
C733 C752 1.368 . S
C733 H757 0.949 . S
H734 C738 0.949 . S
C735 C736 1.349 . S
C735 C737 1.327 . S
C735 H758 0.950 . S
C736 C735 1.349 . S
C736 C748 1.349 . S
C737 C735 1.327 . S
C737 C753 1.429 . S
C737 H759 0.950 . S
C738 H734 0.949 . S
C738 C746 1.574 . S
C738 C754 1.368 . S
H739 C747 0.950 . S
H740 C745 0.950 . S
H741 C746 0.949 . S
H742 C748 0.950 . S
H743 C749 0.950 . S
H744 C750 0.949 . S
C745 H740 0.950 . S
C745 C747 1.327 . S
C745 C751 1.429 . S
C746 C738 1.574 . S
C746 H741 0.949 . S
C746 C752 1.368 . S
C747 C731 1.349 . S
C747 H739 0.950 . S
C747 C745 1.327 . S
C748 C736 1.349 . S
C748 H742 0.950 . S
C748 C749 1.327 . S
C749 H743 0.950 . S
C749 C748 1.327 . S
C749 C753 1.429 . S
C750 C733 1.574 . S
C750 H744 0.949 . S
C750 C754 1.368 . S
C751 C732 1.429 . S
C751 C745 1.429 . S
C751 C752 1.523 . S
C752 C733 1.368 . S
C752 C746 1.368 . S
C752 C751 1.523 . S
C753 C737 1.429 . S
C753 C749 1.429 . S
C753 C754 1.523 . S
C754 C738 1.368 . S
C754 C750 1.368 . S
C754 C753 1.523 . S
H755 C730 0.950 . S
H756 C732 0.950 . S
H757 C733 0.949 . S
H758 C735 0.950 . S
H759 C737 0.950 . S
C760 C761 1.349 . S
C760 C762 1.327 . S
C760 H785 0.950 . S
C761 C760 1.349 . S
C761 C777 1.349 . S
C762 C760 1.327 . S
C762 C781 1.429 . S
C762 H786 0.950 . S
C763 C780 1.574 . S
C763 C782 1.368 . S
C763 H787 0.949 . S
H764 C768 0.949 . S
C765 C766 1.349 . S
C765 C767 1.327 . S
C765 H788 0.950 . S
C766 C765 1.349 . S
C766 C778 1.349 . S
C767 C765 1.327 . S
C767 C783 1.429 . S
C767 H789 0.950 . S
C768 H764 0.949 . S
C768 C776 1.574 . S
C768 C784 1.368 . S
H769 C777 0.950 . S
H770 C775 0.950 . S
H771 C776 0.949 . S
H772 C778 0.950 . S
H773 C779 0.950 . S
H774 C780 0.949 . S
C775 H770 0.950 . S
C775 C777 1.327 . S
C775 C781 1.429 . S
C776 C768 1.574 . S
C776 H771 0.949 . S
C776 C782 1.368 . S
C777 C761 1.349 . S
C777 H769 0.950 . S
C777 C775 1.327 . S
C778 C766 1.349 . S
C778 H772 0.950 . S
C778 C779 1.327 . S
C779 H773 0.950 . S
C779 C778 1.327 . S
C779 C783 1.429 . S
C780 C763 1.574 . S
C780 H774 0.949 . S
C780 C784 1.368 . S
C781 C762 1.429 . S
C781 C775 1.429 . S
C781 C782 1.523 . S
C782 C763 1.368 . S
C782 C776 1.368 . S
C782 C781 1.523 . S
C783 C767 1.429 . S
C783 C779 1.429 . S
C783 C784 1.523 . S
C784 C768 1.368 . S
C784 C780 1.368 . S
C784 C783 1.523 . S
H785 C760 0.950 . S
H786 C762 0.950 . S
H787 C763 0.949 . S
H788 C765 0.950 . S
H789 C767 0.950 . S
C790 C791 1.349 . S
C790 C792 1.327 . S
C790 H815 0.950 . S
C791 C790 1.349 . S
C791 C807 1.349 . S
C792 C790 1.327 . S
C792 C811 1.429 . S
C792 H816 0.950 . S
C793 C810 1.574 . S
C793 C812 1.368 . S
C793 H817 0.949 . S
H794 C798 0.949 . S
C795 C796 1.349 . S
C795 C797 1.327 . S
C795 H818 0.950 . S
C796 C795 1.349 . S
C796 C808 1.349 . S
C797 C795 1.327 . S
C797 C813 1.429 . S
C797 H819 0.950 . S
C798 H794 0.949 . S
C798 C806 1.574 . S
C798 C814 1.368 . S
H799 C807 0.950 . S
H800 C805 0.950 . S
H801 C806 0.949 . S
H802 C808 0.950 . S
H803 C809 0.950 . S
H804 C810 0.949 . S
C805 H800 0.950 . S
C805 C807 1.327 . S
C805 C811 1.429 . S
C806 C798 1.574 . S
C806 H801 0.949 . S
C806 C812 1.368 . S
C807 C791 1.349 . S
C807 H799 0.950 . S
C807 C805 1.327 . S
C808 C796 1.349 . S
C808 H802 0.950 . S
C808 C809 1.327 . S
C809 H803 0.950 . S
C809 C808 1.327 . S
C809 C813 1.429 . S
C810 C793 1.574 . S
C810 H804 0.949 . S
C810 C814 1.368 . S
C811 C792 1.429 . S
C811 C805 1.429 . S
C811 C812 1.523 . S
C812 C793 1.368 . S
C812 C806 1.368 . S
C812 C811 1.523 . S
C813 C797 1.429 . S
C813 C809 1.429 . S
C813 C814 1.523 . S
C814 C798 1.368 . S
C814 C810 1.368 . S
C814 C813 1.523 . S
H815 C790 0.950 . S
H816 C792 0.950 . S
H817 C793 0.949 . S
H818 C795 0.950 . S
H819 C797 0.950 . S
C820 C821 1.349 . S
C820 C822 1.327 . S
C820 H845 0.950 . S
C821 C820 1.349 . S
C821 C837 1.349 . S
C822 C820 1.327 . S
C822 C841 1.429 . S
C822 H846 0.950 . S
C823 C840 1.574 . S
C823 C842 1.368 . S
C823 H847 0.949 . S
H824 C828 0.949 . S
C825 C826 1.349 . S
C825 C827 1.327 1_554 S
C825 H848 0.950 . S
C826 C825 1.349 . S
C826 C838 1.349 . S
C827 C825 1.327 1_556 S
C827 C843 1.429 . S
C827 H849 0.950 . S
C828 H824 0.949 . S
C828 C836 1.574 . S
C828 C844 1.368 . S
H829 C837 0.950 . S
H830 C835 0.950 . S
H831 C836 0.949 . S
H832 C838 0.950 . S
H833 C839 0.950 . S
H834 C840 0.949 . S
C835 H830 0.950 . S
C835 C837 1.327 . S
C835 C841 1.429 . S
C836 C828 1.574 . S
C836 H831 0.949 . S
C836 C842 1.368 . S
C837 C821 1.349 . S
C837 H829 0.950 . S
C837 C835 1.327 . S
C838 C826 1.349 . S
C838 H832 0.950 . S
C838 C839 1.327 1_554 S
C839 H833 0.950 . S
C839 C838 1.327 1_556 S
C839 C843 1.429 . S
C840 C823 1.574 . S
C840 H834 0.949 . S
C840 C844 1.368 . S
C841 C822 1.429 . S
C841 C835 1.429 . S
C841 C842 1.523 . S
C842 C823 1.368 . S
C842 C836 1.368 . S
C842 C841 1.523 . S
C843 C827 1.429 . S
C843 C839 1.429 . S
C843 C844 1.523 . S
C844 C828 1.368 . S
C844 C840 1.368 . S
C844 C843 1.523 . S
H845 C820 0.950 . S
H846 C822 0.950 . S
H847 C823 0.949 . S
H848 C825 0.950 . S
H849 C827 0.950 . S
C850 C851 1.349 . S
C850 C852 1.327 . S
C850 H875 0.950 . S
C851 C850 1.349 . S
C851 C867 1.349 . S
C852 C850 1.327 . S
C852 C871 1.429 . S
C852 H876 0.950 . S
C853 C870 1.574 . S
C853 C872 1.368 . S
C853 H877 0.949 . S
H854 C858 0.949 . S
C855 C856 1.349 . S
C855 C857 1.327 . S
C855 H878 0.950 . S
C856 C855 1.349 . S
C856 C868 1.349 . S
C857 C855 1.327 . S
C857 C873 1.429 . S
C857 H879 0.950 . S
C858 H854 0.949 . S
C858 C866 1.574 . S
C858 C874 1.368 . S
H859 C867 0.950 . S
H860 C865 0.950 . S
H861 C866 0.949 . S
H862 C868 0.950 . S
H863 C869 0.950 . S
H864 C870 0.949 . S
C865 H860 0.950 . S
C865 C867 1.327 . S
C865 C871 1.429 . S
C866 C858 1.574 . S
C866 H861 0.949 . S
C866 C872 1.368 . S
C867 C851 1.349 . S
C867 H859 0.950 . S
C867 C865 1.327 . S
C868 C856 1.349 . S
C868 H862 0.950 . S
C868 C869 1.327 . S
C869 H863 0.950 . S
C869 C868 1.327 . S
C869 C873 1.429 . S
C870 C853 1.574 . S
C870 H864 0.949 . S
C870 C874 1.368 . S
C871 C852 1.429 . S
C871 C865 1.429 . S
C871 C872 1.523 . S
C872 C853 1.368 . S
C872 C866 1.368 . S
C872 C871 1.523 . S
C873 C857 1.429 . S
C873 C869 1.429 . S
C873 C874 1.523 . S
C874 C858 1.368 . S
C874 C870 1.368 . S
C874 C873 1.523 . S
H875 C850 0.950 . S
H876 C852 0.950 . S
H877 C853 0.949 . S
H878 C855 0.950 . S
H879 C857 0.950 . S
C880 C881 1.349 . S
C880 C882 1.327 . S
C880 H905 0.950 . S
C881 C880 1.349 . S
C881 C897 1.349 . S
C882 C880 1.327 . S
C882 C901 1.429 . S
C882 H906 0.950 . S
C883 C900 1.574 . S
C883 C902 1.368 . S
C883 H907 0.949 . S
H884 C888 0.949 . S
C885 C886 1.349 . S
C885 C887 1.327 . S
C885 H908 0.950 . S
C886 C885 1.349 . S
C886 C898 1.349 . S
C887 C885 1.327 . S
C887 C903 1.429 . S
C887 H909 0.950 . S
C888 H884 0.949 . S
C888 C896 1.574 . S
C888 C904 1.368 . S
H889 C897 0.950 . S
H890 C895 0.950 . S
H891 C896 0.949 . S
H892 C898 0.950 . S
H893 C899 0.950 . S
H894 C900 0.949 . S
C895 H890 0.950 . S
C895 C897 1.327 . S
C895 C901 1.429 . S
C896 C888 1.574 . S
C896 H891 0.949 . S
C896 C902 1.368 . S
C897 C881 1.349 . S
C897 H889 0.950 . S
C897 C895 1.327 . S
C898 C886 1.349 . S
C898 H892 0.950 . S
C898 C899 1.327 . S
C899 H893 0.950 . S
C899 C898 1.327 . S
C899 C903 1.429 . S
C900 C883 1.574 . S
C900 H894 0.949 . S
C900 C904 1.368 . S
C901 C882 1.429 . S
C901 C895 1.429 . S
C901 C902 1.523 . S
C902 C883 1.368 . S
C902 C896 1.368 . S
C902 C901 1.523 . S
C903 C887 1.429 . S
C903 C899 1.429 . S
C903 C904 1.523 . S
C904 C888 1.368 . S
C904 C900 1.368 . S
C904 C903 1.523 . S
H905 C880 0.950 . S
H906 C882 0.950 . S
H907 C883 0.949 . S
H908 C885 0.950 . S
H909 C887 0.950 . S
C910 C911 1.349 . S
C910 C912 1.327 . S
C910 H935 0.950 . S
C911 C910 1.349 . S
C911 C927 1.349 . S
C912 C910 1.327 . S
C912 C931 1.429 . S
C912 H936 0.950 . S
C913 C930 1.574 . S
C913 C932 1.368 . S
C913 H937 0.949 . S
H914 C918 0.949 . S
C915 C916 1.349 . S
C915 C917 1.327 1_556 S
C915 H938 0.950 . S
C916 C915 1.349 . S
C916 C928 1.349 . S
C917 C915 1.327 1_554 S
C917 C933 1.429 . S
C917 H939 0.950 . S
C918 H914 0.949 . S
C918 C926 1.574 . S
C918 C934 1.368 . S
H919 C927 0.950 . S
H920 C925 0.950 . S
H921 C926 0.949 . S
H922 C928 0.950 . S
H923 C929 0.950 . S
H924 C930 0.949 . S
C925 H920 0.950 . S
C925 C927 1.327 . S
C925 C931 1.429 . S
C926 C918 1.574 . S
C926 H921 0.949 . S
C926 C932 1.368 . S
C927 C911 1.349 . S
C927 H919 0.950 . S
C927 C925 1.327 . S
C928 C916 1.349 . S
C928 H922 0.950 . S
C928 C929 1.327 1_556 S
C929 H923 0.950 . S
C929 C928 1.327 1_554 S
C929 C933 1.429 . S
C930 C913 1.574 . S
C930 H924 0.949 . S
C930 C934 1.368 . S
C931 C912 1.429 . S
C931 C925 1.429 . S
C931 C932 1.523 . S
C932 C913 1.368 . S
C932 C926 1.368 . S
C932 C931 1.523 . S
C933 C917 1.429 . S
C933 C929 1.429 . S
C933 C934 1.523 . S
C934 C918 1.368 . S
C934 C930 1.368 . S
C934 C933 1.523 . S
H935 C910 0.950 . S
H936 C912 0.950 . S
H937 C913 0.949 . S
H938 C915 0.950 . S
H939 C917 0.950 . S
C940 C941 1.349 . S
C940 C942 1.327 . S
C940 H965 0.950 . S
C941 C940 1.349 . S
C941 C957 1.349 . S
C942 C940 1.327 . S
C942 C961 1.429 . S
C942 H966 0.950 . S
C943 C960 1.574 . S
C943 C962 1.368 . S
C943 H967 0.949 . S
H944 C948 0.949 . S
C945 C946 1.349 . S
C945 C947 1.327 . S
C945 H968 0.950 . S
C946 C945 1.349 . S
C946 C958 1.349 . S
C947 C945 1.327 . S
C947 C963 1.429 . S
C947 H969 0.950 . S
C948 H944 0.949 . S
C948 C956 1.574 . S
C948 C964 1.368 . S
H949 C957 0.950 . S
H950 C955 0.950 . S
H951 C956 0.949 . S
H952 C958 0.950 . S
H953 C959 0.950 . S
H954 C960 0.949 . S
C955 H950 0.950 . S
C955 C957 1.327 . S
C955 C961 1.429 . S
C956 C948 1.574 . S
C956 H951 0.949 . S
C956 C962 1.368 . S
C957 C941 1.349 . S
C957 H949 0.950 . S
C957 C955 1.327 . S
C958 C946 1.349 . S
C958 H952 0.950 . S
C958 C959 1.327 . S
C959 H953 0.950 . S
C959 C958 1.327 . S
C959 C963 1.429 . S
C960 C943 1.574 . S
C960 H954 0.949 . S
C960 C964 1.368 . S
C961 C942 1.429 . S
C961 C955 1.429 . S
C961 C962 1.523 . S
C962 C943 1.368 . S
C962 C956 1.368 . S
C962 C961 1.523 . S
C963 C947 1.429 . S
C963 C959 1.429 . S
C963 C964 1.523 . S
C964 C948 1.368 . S
C964 C960 1.368 . S
C964 C963 1.523 . S
H965 C940 0.950 . S
H966 C942 0.950 . S
H967 C943 0.949 . S
H968 C945 0.950 . S
H969 C947 0.950 . S
C970 C971 1.349 . S
C970 C972 1.327 . S
C970 H995 0.950 . S
C971 C970 1.349 . S
C971 C987 1.349 . S
C972 C970 1.327 . S
C972 C991 1.429 . S
C972 H996 0.950 . S
C973 C990 1.574 . S
C973 C992 1.368 . S
C973 H997 0.949 . S
H974 C978 0.949 . S
C975 C976 1.349 . S
C975 C977 1.327 . S
C975 H998 0.950 . S
C976 C975 1.349 . S
C976 C988 1.349 . S
C977 C975 1.327 . S
C977 C993 1.429 . S
C977 H999 0.950 . S
C978 H974 0.949 . S
C978 C986 1.574 . S
C978 C994 1.368 . S
H979 C987 0.950 . S
H980 C985 0.950 . S
H981 C986 0.949 . S
H982 C988 0.950 . S
H983 C989 0.950 . S
H984 C990 0.949 . S
C985 H980 0.950 . S
C985 C987 1.327 . S
C985 C991 1.429 . S
C986 C978 1.574 . S
C986 H981 0.949 . S
C986 C992 1.368 . S
C987 C971 1.349 . S
C987 H979 0.950 . S
C987 C985 1.327 . S
C988 C976 1.349 . S
C988 H982 0.950 . S
C988 C989 1.327 . S
C989 H983 0.950 . S
C989 C988 1.327 . S
C989 C993 1.429 . S
C990 C973 1.574 . S
C990 H984 0.949 . S
C990 C994 1.368 . S
C991 C972 1.429 . S
C991 C985 1.429 . S
C991 C992 1.523 . S
C992 C973 1.368 . S
C992 C986 1.368 . S
C992 C991 1.523 . S
C993 C977 1.429 . S
C993 C989 1.429 . S
C993 C994 1.523 . S
C994 C978 1.368 . S
C994 C990 1.368 . S
C994 C993 1.523 . S
H995 C970 0.950 . S
H996 C972 0.950 . S
H997 C973 0.949 . S
H998 C975 0.950 . S
H999 C977 0.950 . S
C1000 C1001 1.349 . S
C1000 C1002 1.327 . S
C1000 H1025 0.950 . S
C1001 C1000 1.349 . S
C1001 C1017 1.349 . S
C1002 C1000 1.327 . S
C1002 C1021 1.429 . S
C1002 H1026 0.950 . S
C1003 C1020 1.574 . S
C1003 C1022 1.368 . S
C1003 H1027 0.949 . S
H1004 C1008 0.949 . S
C1005 C1006 1.349 . S
C1005 C1007 1.327 . S
C1005 H1028 0.950 . S
C1006 C1005 1.349 . S
C1006 C1018 1.349 . S
C1007 C1005 1.327 . S
C1007 C1023 1.429 . S
C1007 H1029 0.950 . S
C1008 H1004 0.949 . S
C1008 C1016 1.574 . S
C1008 C1024 1.368 . S
H1009 C1017 0.950 . S
H1010 C1015 0.950 . S
H1011 C1016 0.949 . S
H1012 C1018 0.950 . S
H1013 C1019 0.950 . S
H1014 C1020 0.949 . S
C1015 H1010 0.950 . S
C1015 C1017 1.327 . S
C1015 C1021 1.429 . S
C1016 C1008 1.574 . S
C1016 H1011 0.949 . S
C1016 C1022 1.368 . S
C1017 C1001 1.349 . S
C1017 H1009 0.950 . S
C1017 C1015 1.327 . S
C1018 C1006 1.349 . S
C1018 H1012 0.950 . S
C1018 C1019 1.327 . S
C1019 H1013 0.950 . S
C1019 C1018 1.327 . S
C1019 C1023 1.429 . S
C1020 C1003 1.574 . S
C1020 H1014 0.949 . S
C1020 C1024 1.368 . S
C1021 C1002 1.429 . S
C1021 C1015 1.429 . S
C1021 C1022 1.523 . S
C1022 C1003 1.368 . S
C1022 C1016 1.368 . S
C1022 C1021 1.523 . S
C1023 C1007 1.429 . S
C1023 C1019 1.429 . S
C1023 C1024 1.523 . S
C1024 C1008 1.368 . S
C1024 C1020 1.368 . S
C1024 C1023 1.523 . S
H1025 C1000 0.950 . S
H1026 C1002 0.950 . S
H1027 C1003 0.949 . S
H1028 C1005 0.950 . S
H1029 C1007 0.950 . S
C1030 C1031 1.349 . S
C1030 C1032 1.327 . S
C1030 H1055 0.950 . S
C1031 C1030 1.349 . S
C1031 C1047 1.349 . S
C1032 C1030 1.327 . S
C1032 C1051 1.429 . S
C1032 H1056 0.950 . S
C1033 C1050 1.574 . S
C1033 C1052 1.368 . S
C1033 H1057 0.949 . S
H1034 C1038 0.949 . S
C1035 C1036 1.349 . S
C1035 C1037 1.327 . S
C1035 H1058 0.950 . S
C1036 C1035 1.349 . S
C1036 C1048 1.349 . S
C1037 C1035 1.327 . S
C1037 C1053 1.429 . S
C1037 H1059 0.950 . S
C1038 H1034 0.949 . S
C1038 C1046 1.574 . S
C1038 C1054 1.368 . S
H1039 C1047 0.950 . S
H1040 C1045 0.950 . S
H1041 C1046 0.949 . S
H1042 C1048 0.950 . S
H1043 C1049 0.950 . S
H1044 C1050 0.949 . S
C1045 H1040 0.950 . S
C1045 C1047 1.327 . S
C1045 C1051 1.429 . S
C1046 C1038 1.574 . S
C1046 H1041 0.949 . S
C1046 C1052 1.368 . S
C1047 C1031 1.349 . S
C1047 H1039 0.950 . S
C1047 C1045 1.327 . S
C1048 C1036 1.349 . S
C1048 H1042 0.950 . S
C1048 C1049 1.327 . S
C1049 H1043 0.950 . S
C1049 C1048 1.327 . S
C1049 C1053 1.429 . S
C1050 C1033 1.574 . S
C1050 H1044 0.949 . S
C1050 C1054 1.368 . S
C1051 C1032 1.429 . S
C1051 C1045 1.429 . S
C1051 C1052 1.523 . S
C1052 C1033 1.368 . S
C1052 C1046 1.368 . S
C1052 C1051 1.523 . S
C1053 C1037 1.429 . S
C1053 C1049 1.429 . S
C1053 C1054 1.523 . S
C1054 C1038 1.368 . S
C1054 C1050 1.368 . S
C1054 C1053 1.523 . S
H1055 C1030 0.950 . S
H1056 C1032 0.950 . S
H1057 C1033 0.949 . S
H1058 C1035 0.950 . S
H1059 C1037 0.950 . S
C1060 C1061 1.349 . S
C1060 C1062 1.327 . S
C1060 H1085 0.950 . S
C1061 C1060 1.349 . S
C1061 C1077 1.349 . S
C1062 C1060 1.327 . S
C1062 C1081 1.429 . S
C1062 H1086 0.950 . S
C1063 C1080 1.574 . S
C1063 C1082 1.368 . S
C1063 H1087 0.949 . S
H1064 C1068 0.949 . S
C1065 C1066 1.349 . S
C1065 C1067 1.327 1_556 S
C1065 H1088 0.950 . S
C1066 C1065 1.349 . S
C1066 C1078 1.349 . S
C1067 C1065 1.327 1_554 S
C1067 C1083 1.429 . S
C1067 H1089 0.950 . S
C1068 H1064 0.949 . S
C1068 C1076 1.574 . S
C1068 C1084 1.368 . S
H1069 C1077 0.950 . S
H1070 C1075 0.950 . S
H1071 C1076 0.949 . S
H1072 C1078 0.950 . S
H1073 C1079 0.950 . S
H1074 C1080 0.949 . S
C1075 H1070 0.950 . S
C1075 C1077 1.327 . S
C1075 C1081 1.429 . S
C1076 C1068 1.574 . S
C1076 H1071 0.949 . S
C1076 C1082 1.368 . S
C1077 C1061 1.349 . S
C1077 H1069 0.950 . S
C1077 C1075 1.327 . S
C1078 C1066 1.349 . S
C1078 H1072 0.950 . S
C1078 C1079 1.327 1_556 S
C1079 H1073 0.950 . S
C1079 C1078 1.327 1_554 S
C1079 C1083 1.429 . S
C1080 C1063 1.574 . S
C1080 H1074 0.949 . S
C1080 C1084 1.368 . S
C1081 C1062 1.429 . S
C1081 C1075 1.429 . S
C1081 C1082 1.523 . S
C1082 C1063 1.368 . S
C1082 C1076 1.368 . S
C1082 C1081 1.523 . S
C1083 C1067 1.429 . S
C1083 C1079 1.429 . S
C1083 C1084 1.523 . S
C1084 C1068 1.368 . S
C1084 C1080 1.368 . S
C1084 C1083 1.523 . S
H1085 C1060 0.950 . S
H1086 C1062 0.950 . S
H1087 C1063 0.949 . S
H1088 C1065 0.950 . S
H1089 C1067 0.950 . S
C1090 C1091 1.349 . S
C1090 C1092 1.327 . S
C1090 H1115 0.950 . S
C1091 C1090 1.349 . S
C1091 C1107 1.349 . S
C1092 C1090 1.327 . S
C1092 C1111 1.429 . S
C1092 H1116 0.950 . S
C1093 C1110 1.574 . S
C1093 C1112 1.368 . S
C1093 H1117 0.949 . S
H1094 C1098 0.949 . S
C1095 C1096 1.349 . S
C1095 C1097 1.327 . S
C1095 H1118 0.950 . S
C1096 C1095 1.349 . S
C1096 C1108 1.349 . S
C1097 C1095 1.327 . S
C1097 C1113 1.429 . S
C1097 H1119 0.950 . S
C1098 H1094 0.949 . S
C1098 C1106 1.574 . S
C1098 C1114 1.368 . S
H1099 C1107 0.950 . S
H1100 C1105 0.950 . S
H1101 C1106 0.949 . S
H1102 C1108 0.950 . S
H1103 C1109 0.950 . S
H1104 C1110 0.949 . S
C1105 H1100 0.950 . S
C1105 C1107 1.327 . S
C1105 C1111 1.429 . S
C1106 C1098 1.574 . S
C1106 H1101 0.949 . S
C1106 C1112 1.368 . S
C1107 C1091 1.349 . S
C1107 H1099 0.950 . S
C1107 C1105 1.327 . S
C1108 C1096 1.349 . S
C1108 H1102 0.950 . S
C1108 C1109 1.327 . S
C1109 H1103 0.950 . S
C1109 C1108 1.327 . S
C1109 C1113 1.429 . S
C1110 C1093 1.574 . S
C1110 H1104 0.949 . S
C1110 C1114 1.368 . S
C1111 C1092 1.429 . S
C1111 C1105 1.429 . S
C1111 C1112 1.523 . S
C1112 C1093 1.368 . S
C1112 C1106 1.368 . S
C1112 C1111 1.523 . S
C1113 C1097 1.429 . S
C1113 C1109 1.429 . S
C1113 C1114 1.523 . S
C1114 C1098 1.368 . S
C1114 C1110 1.368 . S
C1114 C1113 1.523 . S
H1115 C1090 0.950 . S
H1116 C1092 0.950 . S
H1117 C1093 0.949 . S
H1118 C1095 0.950 . S
H1119 C1097 0.950 . S
C1120 C1121 1.349 . S
C1120 C1122 1.327 . S
C1120 H1145 0.950 . S
C1121 C1120 1.349 . S
C1121 C1137 1.349 . S
C1122 C1120 1.327 . S
C1122 C1141 1.429 . S
C1122 H1146 0.950 . S
C1123 C1140 1.574 . S
C1123 C1142 1.368 . S
C1123 H1147 0.949 . S
H1124 C1128 0.949 . S
C1125 C1126 1.349 . S
C1125 C1127 1.327 . S
C1125 H1148 0.950 . S
C1126 C1125 1.349 . S
C1126 C1138 1.349 . S
C1127 C1125 1.327 . S
C1127 C1143 1.429 . S
C1127 H1149 0.950 . S
C1128 H1124 0.949 . S
C1128 C1136 1.574 . S
C1128 C1144 1.368 . S
H1129 C1137 0.950 . S
H1130 C1135 0.950 . S
H1131 C1136 0.949 . S
H1132 C1138 0.950 . S
H1133 C1139 0.950 . S
H1134 C1140 0.949 . S
C1135 H1130 0.950 . S
C1135 C1137 1.327 . S
C1135 C1141 1.429 . S
C1136 C1128 1.574 . S
C1136 H1131 0.949 . S
C1136 C1142 1.368 . S
C1137 C1121 1.349 . S
C1137 H1129 0.950 . S
C1137 C1135 1.327 . S
C1138 C1126 1.349 . S
C1138 H1132 0.950 . S
C1138 C1139 1.327 . S
C1139 H1133 0.950 . S
C1139 C1138 1.327 . S
C1139 C1143 1.429 . S
C1140 C1123 1.574 . S
C1140 H1134 0.949 . S
C1140 C1144 1.368 . S
C1141 C1122 1.429 . S
C1141 C1135 1.429 . S
C1141 C1142 1.523 . S
C1142 C1123 1.368 . S
C1142 C1136 1.368 . S
C1142 C1141 1.523 . S
C1143 C1127 1.429 . S
C1143 C1139 1.429 . S
C1143 C1144 1.523 . S
C1144 C1128 1.368 . S
C1144 C1140 1.368 . S
C1144 C1143 1.523 . S
H1145 C1120 0.950 . S
H1146 C1122 0.950 . S
H1147 C1123 0.949 . S
H1148 C1125 0.950 . S
H1149 C1127 0.950 . S
C1150 C1151 1.349 . S
C1150 C1152 1.327 . S
C1150 H1175 0.950 . S
C1151 C1150 1.349 . S
C1151 C1167 1.349 . S
C1152 C1150 1.327 . S
C1152 C1171 1.429 . S
C1152 H1176 0.950 . S
C1153 C1170 1.574 . S
C1153 C1172 1.368 . S
C1153 H1177 0.949 . S
H1154 C1158 0.949 . S
C1155 C1156 1.349 . S
C1155 C1157 1.327 . S
C1155 H1178 0.950 . S
C1156 C1155 1.349 . S
C1156 C1168 1.349 . S
C1157 C1155 1.327 . S
C1157 C1173 1.429 . S
C1157 H1179 0.950 . S
C1158 H1154 0.949 . S
C1158 C1166 1.574 . S
C1158 C1174 1.368 . S
H1159 C1167 0.950 . S
H1160 C1165 0.950 . S
H1161 C1166 0.949 . S
H1162 C1168 0.950 . S
H1163 C1169 0.950 . S
H1164 C1170 0.949 . S
C1165 H1160 0.950 . S
C1165 C1167 1.327 . S
C1165 C1171 1.429 . S
C1166 C1158 1.574 . S
C1166 H1161 0.949 . S
C1166 C1172 1.368 . S
C1167 C1151 1.349 . S
C1167 H1159 0.950 . S
C1167 C1165 1.327 . S
C1168 C1156 1.349 . S
C1168 H1162 0.950 . S
C1168 C1169 1.327 . S
C1169 H1163 0.950 . S
C1169 C1168 1.327 . S
C1169 C1173 1.429 . S
C1170 C1153 1.574 . S
C1170 H1164 0.949 . S
C1170 C1174 1.368 . S
C1171 C1152 1.429 . S
C1171 C1165 1.429 . S
C1171 C1172 1.523 . S
C1172 C1153 1.368 . S
C1172 C1166 1.368 . S
C1172 C1171 1.523 . S
C1173 C1157 1.429 . S
C1173 C1169 1.429 . S
C1173 C1174 1.523 . S
C1174 C1158 1.368 . S
C1174 C1170 1.368 . S
C1174 C1173 1.523 . S
H1175 C1150 0.950 . S
H1176 C1152 0.950 . S
H1177 C1153 0.949 . S
H1178 C1155 0.950 . S
H1179 C1157 0.950 . S
C1180 C1181 1.349 . S
C1180 C1182 1.327 . S
C1180 H1205 0.950 . S
C1181 C1180 1.349 . S
C1181 C1197 1.349 . S
C1182 C1180 1.327 . S
C1182 C1201 1.429 . S
C1182 H1206 0.950 . S
C1183 C1200 1.574 . S
C1183 C1202 1.368 . S
C1183 H1207 0.949 . S
H1184 C1188 0.949 . S
C1185 C1186 1.349 . S
C1185 C1187 1.327 . S
C1185 H1208 0.950 . S
C1186 C1185 1.349 . S
C1186 C1198 1.349 . S
C1187 C1185 1.327 . S
C1187 C1203 1.429 . S
C1187 H1209 0.950 . S
C1188 H1184 0.949 . S
C1188 C1196 1.574 . S
C1188 C1204 1.368 . S
H1189 C1197 0.950 . S
H1190 C1195 0.950 . S
H1191 C1196 0.949 . S
H1192 C1198 0.950 . S
H1193 C1199 0.950 . S
H1194 C1200 0.949 . S
C1195 H1190 0.950 . S
C1195 C1197 1.327 . S
C1195 C1201 1.429 . S
C1196 C1188 1.574 . S
C1196 H1191 0.949 . S
C1196 C1202 1.368 . S
C1197 C1181 1.349 . S
C1197 H1189 0.950 . S
C1197 C1195 1.327 . S
C1198 C1186 1.349 . S
C1198 H1192 0.950 . S
C1198 C1199 1.327 . S
C1199 H1193 0.950 . S
C1199 C1198 1.327 . S
C1199 C1203 1.429 . S
C1200 C1183 1.574 . S
C1200 H1194 0.949 . S
C1200 C1204 1.368 . S
C1201 C1182 1.429 . S
C1201 C1195 1.429 . S
C1201 C1202 1.523 . S
C1202 C1183 1.368 . S
C1202 C1196 1.368 . S
C1202 C1201 1.523 . S
C1203 C1187 1.429 . S
C1203 C1199 1.429 . S
C1203 C1204 1.523 . S
C1204 C1188 1.368 . S
C1204 C1200 1.368 . S
C1204 C1203 1.523 . S
H1205 C1180 0.950 . S
H1206 C1182 0.950 . S
H1207 C1183 0.949 . S
H1208 C1185 0.950 . S
H1209 C1187 0.950 . S
C1210 C1211 1.349 . S
C1210 C1212 1.327 . S
C1210 H1235 0.950 . S
C1211 C1210 1.349 . S
C1211 C1227 1.349 . S
C1212 C1210 1.327 . S
C1212 C1231 1.429 . S
C1212 H1236 0.950 . S
C1213 C1230 1.574 1_655 S
C1213 C1232 1.368 . S
C1213 H1237 0.949 . S
H1214 C1218 0.949 . S
C1215 C1216 1.349 . S
C1215 C1217 1.327 . S
C1215 H1238 0.950 . S
C1216 C1215 1.349 . S
C1216 C1228 1.349 . S
C1217 C1215 1.327 . S
C1217 C1233 1.429 . S
C1217 H1239 0.950 . S
C1218 H1214 0.949 . S
C1218 C1226 1.574 1_455 S
C1218 C1234 1.368 . S
H1219 C1227 0.950 . S
H1220 C1225 0.950 . S
H1221 C1226 0.949 . S
H1222 C1228 0.950 . S
H1223 C1229 0.950 . S
H1224 C1230 0.949 . S
C1225 H1220 0.950 . S
C1225 C1227 1.327 . S
C1225 C1231 1.429 . S
C1226 C1218 1.574 1_655 S
C1226 H1221 0.949 . S
C1226 C1232 1.368 . S
C1227 C1211 1.349 . S
C1227 H1219 0.950 . S
C1227 C1225 1.327 . S
C1228 C1216 1.349 . S
C1228 H1222 0.950 . S
C1228 C1229 1.327 . S
C1229 H1223 0.950 . S
C1229 C1228 1.327 . S
C1229 C1233 1.429 . S
C1230 C1213 1.574 1_455 S
C1230 H1224 0.949 . S
C1230 C1234 1.368 . S
C1231 C1212 1.429 . S
C1231 C1225 1.429 . S
C1231 C1232 1.523 . S
C1232 C1213 1.368 . S
C1232 C1226 1.368 . S
C1232 C1231 1.523 . S
C1233 C1217 1.429 . S
C1233 C1229 1.429 . S
C1233 C1234 1.523 . S
C1234 C1218 1.368 . S
C1234 C1230 1.368 . S
C1234 C1233 1.523 . S
H1235 C1210 0.950 . S
H1236 C1212 0.950 . S
H1237 C1213 0.949 . S
H1238 C1215 0.950 . S
H1239 C1217 0.950 . S
C1240 C1241 1.349 . S
C1240 C1242 1.327 . S
C1240 H1265 0.950 . S
C1241 C1240 1.349 . S
C1241 C1257 1.349 . S
C1242 C1240 1.327 . S
C1242 C1261 1.429 . S
C1242 H1266 0.950 . S
C1243 C1260 1.574 . S
C1243 C1262 1.368 . S
C1243 H1267 0.949 . S
H1244 C1248 0.949 . S
C1245 C1246 1.349 . S
C1245 C1247 1.327 . S
C1245 H1268 0.950 . S
C1246 C1245 1.349 . S
C1246 C1258 1.349 . S
C1247 C1245 1.327 . S
C1247 C1263 1.429 . S
C1247 H1269 0.950 . S
C1248 H1244 0.949 . S
C1248 C1256 1.574 . S
C1248 C1264 1.368 . S
H1249 C1257 0.950 . S
H1250 C1255 0.950 . S
H1251 C1256 0.949 . S
H1252 C1258 0.950 . S
H1253 C1259 0.950 . S
H1254 C1260 0.949 . S
C1255 H1250 0.950 . S
C1255 C1257 1.327 . S
C1255 C1261 1.429 . S
C1256 C1248 1.574 . S
C1256 H1251 0.949 . S
C1256 C1262 1.368 . S
C1257 C1241 1.349 . S
C1257 H1249 0.950 . S
C1257 C1255 1.327 . S
C1258 C1246 1.349 . S
C1258 H1252 0.950 . S
C1258 C1259 1.327 . S
C1259 H1253 0.950 . S
C1259 C1258 1.327 . S
C1259 C1263 1.429 . S
C1260 C1243 1.574 . S
C1260 H1254 0.949 . S
C1260 C1264 1.368 . S
C1261 C1242 1.429 . S
C1261 C1255 1.429 . S
C1261 C1262 1.523 . S
C1262 C1243 1.368 . S
C1262 C1256 1.368 . S
C1262 C1261 1.523 . S
C1263 C1247 1.429 . S
C1263 C1259 1.429 . S
C1263 C1264 1.523 . S
C1264 C1248 1.368 . S
C1264 C1260 1.368 . S
C1264 C1263 1.523 . S
H1265 C1240 0.950 . S
H1266 C1242 0.950 . S
H1267 C1243 0.949 . S
H1268 C1245 0.950 . S
H1269 C1247 0.950 . S
C1270 C1271 1.349 . S
C1270 C1272 1.327 . S
C1270 H1295 0.950 . S
C1271 C1270 1.349 . S
C1271 C1287 1.349 . S
C1272 C1270 1.327 . S
C1272 C1291 1.429 . S
C1272 H1296 0.950 . S
C1273 C1290 1.574 1_455 S
C1273 C1292 1.368 . S
C1273 H1297 0.949 . S
H1274 C1278 0.949 . S
C1275 C1276 1.349 . S
C1275 C1277 1.327 . S
C1275 H1298 0.950 . S
C1276 C1275 1.349 . S
C1276 C1288 1.349 . S
C1277 C1275 1.327 . S
C1277 C1293 1.429 . S
C1277 H1299 0.950 . S
C1278 H1274 0.949 . S
C1278 C1286 1.574 1_655 S
C1278 C1294 1.368 . S
H1279 C1287 0.950 . S
H1280 C1285 0.950 . S
H1281 C1286 0.949 . S
H1282 C1288 0.950 . S
H1283 C1289 0.950 . S
H1284 C1290 0.949 . S
C1285 H1280 0.950 . S
C1285 C1287 1.327 . S
C1285 C1291 1.429 . S
C1286 C1278 1.574 1_455 S
C1286 H1281 0.949 . S
C1286 C1292 1.368 . S
C1287 C1271 1.349 . S
C1287 H1279 0.950 . S
C1287 C1285 1.327 . S
C1288 C1276 1.349 . S
C1288 H1282 0.950 . S
C1288 C1289 1.327 . S
C1289 H1283 0.950 . S
C1289 C1288 1.327 . S
C1289 C1293 1.429 . S
C1290 C1273 1.574 1_655 S
C1290 H1284 0.949 . S
C1290 C1294 1.368 . S
C1291 C1272 1.429 . S
C1291 C1285 1.429 . S
C1291 C1292 1.523 . S
C1292 C1273 1.368 . S
C1292 C1286 1.368 . S
C1292 C1291 1.523 . S
C1293 C1277 1.429 . S
C1293 C1289 1.429 . S
C1293 C1294 1.523 . S
C1294 C1278 1.368 . S
C1294 C1290 1.368 . S
C1294 C1293 1.523 . S
H1295 C1270 0.950 . S
H1296 C1272 0.950 . S
H1297 C1273 0.949 . S
H1298 C1275 0.950 . S
H1299 C1277 0.950 . S
C1300 C1301 1.349 . S
C1300 C1302 1.327 . S
C1300 H1325 0.950 . S
C1301 C1300 1.349 . S
C1301 C1317 1.349 . S
C1302 C1300 1.327 . S
C1302 C1321 1.429 . S
C1302 H1326 0.950 . S
C1303 C1320 1.574 . S
C1303 C1322 1.368 . S
C1303 H1327 0.949 . S
H1304 C1308 0.949 . S
C1305 C1306 1.349 . S
C1305 C1307 1.327 . S
C1305 H1328 0.950 . S
C1306 C1305 1.349 . S
C1306 C1318 1.349 . S
C1307 C1305 1.327 . S
C1307 C1323 1.429 . S
C1307 H1329 0.950 . S
C1308 H1304 0.949 . S
C1308 C1316 1.574 . S
C1308 C1324 1.368 . S
H1309 C1317 0.950 . S
H1310 C1315 0.950 . S
H1311 C1316 0.949 . S
H1312 C1318 0.950 . S
H1313 C1319 0.950 . S
H1314 C1320 0.949 . S
C1315 H1310 0.950 . S
C1315 C1317 1.327 . S
C1315 C1321 1.429 . S
C1316 C1308 1.574 . S
C1316 H1311 0.949 . S
C1316 C1322 1.368 . S
C1317 C1301 1.349 . S
C1317 H1309 0.950 . S
C1317 C1315 1.327 . S
C1318 C1306 1.349 . S
C1318 H1312 0.950 . S
C1318 C1319 1.327 . S
C1319 H1313 0.950 . S
C1319 C1318 1.327 . S
C1319 C1323 1.429 . S
C1320 C1303 1.574 . S
C1320 H1314 0.949 . S
C1320 C1324 1.368 . S
C1321 C1302 1.429 . S
C1321 C1315 1.429 . S
C1321 C1322 1.523 . S
C1322 C1303 1.368 . S
C1322 C1316 1.368 . S
C1322 C1321 1.523 . S
C1323 C1307 1.429 . S
C1323 C1319 1.429 . S
C1323 C1324 1.523 . S
C1324 C1308 1.368 . S
C1324 C1320 1.368 . S
C1324 C1323 1.523 . S
H1325 C1300 0.950 . S
H1326 C1302 0.950 . S
H1327 C1303 0.949 . S
H1328 C1305 0.950 . S
H1329 C1307 0.950 . S
C1330 C1331 1.349 . S
C1330 C1332 1.327 . S
C1330 H1355 0.950 . S
C1331 C1330 1.349 . S
C1331 C1347 1.349 . S
C1332 C1330 1.327 . S
C1332 C1351 1.429 . S
C1332 H1356 0.950 . S
C1333 C1350 1.574 . S
C1333 C1352 1.368 . S
C1333 H1357 0.949 . S
H1334 C1338 0.949 . S
C1335 C1336 1.349 . S
C1335 C1337 1.327 . S
C1335 H1358 0.950 . S
C1336 C1335 1.349 . S
C1336 C1348 1.349 . S
C1337 C1335 1.327 . S
C1337 C1353 1.429 . S
C1337 H1359 0.950 . S
C1338 H1334 0.949 . S
C1338 C1346 1.574 . S
C1338 C1354 1.368 . S
H1339 C1347 0.950 . S
H1340 C1345 0.950 . S
H1341 C1346 0.949 . S
H1342 C1348 0.950 . S
H1343 C1349 0.950 . S
H1344 C1350 0.949 . S
C1345 H1340 0.950 . S
C1345 C1347 1.327 . S
C1345 C1351 1.429 . S
C1346 C1338 1.574 . S
C1346 H1341 0.949 . S
C1346 C1352 1.368 . S
C1347 C1331 1.349 . S
C1347 H1339 0.950 . S
C1347 C1345 1.327 . S
C1348 C1336 1.349 . S
C1348 H1342 0.950 . S
C1348 C1349 1.327 . S
C1349 H1343 0.950 . S
C1349 C1348 1.327 . S
C1349 C1353 1.429 . S
C1350 C1333 1.574 . S
C1350 H1344 0.949 . S
C1350 C1354 1.368 . S
C1351 C1332 1.429 . S
C1351 C1345 1.429 . S
C1351 C1352 1.523 . S
C1352 C1333 1.368 . S
C1352 C1346 1.368 . S
C1352 C1351 1.523 . S
C1353 C1337 1.429 . S
C1353 C1349 1.429 . S
C1353 C1354 1.523 . S
C1354 C1338 1.368 . S
C1354 C1350 1.368 . S
C1354 C1353 1.523 . S
H1355 C1330 0.950 . S
H1356 C1332 0.950 . S
H1357 C1333 0.949 . S
H1358 C1335 0.950 . S
H1359 C1337 0.950 . S
C1360 C1361 1.349 . S
C1360 C1362 1.327 . S
C1360 H1385 0.950 . S
C1361 C1360 1.349 . S
C1361 C1377 1.349 . S
C1362 C1360 1.327 . S
C1362 C1381 1.429 . S
C1362 H1386 0.950 . S
C1363 C1380 1.574 . S
C1363 C1382 1.368 . S
C1363 H1387 0.949 . S
H1364 C1368 0.949 . S
C1365 C1366 1.349 . S
C1365 C1367 1.327 . S
C1365 H1388 0.950 . S
C1366 C1365 1.349 . S
C1366 C1378 1.349 . S
C1367 C1365 1.327 . S
C1367 C1383 1.429 . S
C1367 H1389 0.950 . S
C1368 H1364 0.949 . S
C1368 C1376 1.574 . S
C1368 C1384 1.368 . S
H1369 C1377 0.950 . S
H1370 C1375 0.950 . S
H1371 C1376 0.949 . S
H1372 C1378 0.950 . S
H1373 C1379 0.950 . S
H1374 C1380 0.949 . S
C1375 H1370 0.950 . S
C1375 C1377 1.327 . S
C1375 C1381 1.429 . S
C1376 C1368 1.574 . S
C1376 H1371 0.949 . S
C1376 C1382 1.368 . S
C1377 C1361 1.349 . S
C1377 H1369 0.950 . S
C1377 C1375 1.327 . S
C1378 C1366 1.349 . S
C1378 H1372 0.950 . S
C1378 C1379 1.327 . S
C1379 H1373 0.950 . S
C1379 C1378 1.327 . S
C1379 C1383 1.429 . S
C1380 C1363 1.574 . S
C1380 H1374 0.949 . S
C1380 C1384 1.368 . S
C1381 C1362 1.429 . S
C1381 C1375 1.429 . S
C1381 C1382 1.523 . S
C1382 C1363 1.368 . S
C1382 C1376 1.368 . S
C1382 C1381 1.523 . S
C1383 C1367 1.429 . S
C1383 C1379 1.429 . S
C1383 C1384 1.523 . S
C1384 C1368 1.368 . S
C1384 C1380 1.368 . S
C1384 C1383 1.523 . S
H1385 C1360 0.950 . S
H1386 C1362 0.950 . S
H1387 C1363 0.949 . S
H1388 C1365 0.950 . S
H1389 C1367 0.950 . S
C1390 C1391 1.349 . S
C1390 C1392 1.327 . S
C1390 H1415 0.950 . S
C1391 C1390 1.349 . S
C1391 C1407 1.349 . S
C1392 C1390 1.327 . S
C1392 C1411 1.429 . S
C1392 H1416 0.950 . S
C1393 C1410 1.574 . S
C1393 C1412 1.368 . S
C1393 H1417 0.949 . S
H1394 C1398 0.949 . S
C1395 C1396 1.349 . S
C1395 C1397 1.327 . S
C1395 H1418 0.950 . S
C1396 C1395 1.349 . S
C1396 C1408 1.349 . S
C1397 C1395 1.327 . S
C1397 C1413 1.429 . S
C1397 H1419 0.950 . S
C1398 H1394 0.949 . S
C1398 C1406 1.574 . S
C1398 C1414 1.368 . S
H1399 C1407 0.950 . S
H1400 C1405 0.950 . S
H1401 C1406 0.949 . S
H1402 C1408 0.950 . S
H1403 C1409 0.950 . S
H1404 C1410 0.949 . S
C1405 H1400 0.950 . S
C1405 C1407 1.327 . S
C1405 C1411 1.429 . S
C1406 C1398 1.574 . S
C1406 H1401 0.949 . S
C1406 C1412 1.368 . S
C1407 C1391 1.349 . S
C1407 H1399 0.950 . S
C1407 C1405 1.327 . S
C1408 C1396 1.349 . S
C1408 H1402 0.950 . S
C1408 C1409 1.327 . S
C1409 H1403 0.950 . S
C1409 C1408 1.327 . S
C1409 C1413 1.429 . S
C1410 C1393 1.574 . S
C1410 H1404 0.949 . S
C1410 C1414 1.368 . S
C1411 C1392 1.429 . S
C1411 C1405 1.429 . S
C1411 C1412 1.523 . S
C1412 C1393 1.368 . S
C1412 C1406 1.368 . S
C1412 C1411 1.523 . S
C1413 C1397 1.429 . S
C1413 C1409 1.429 . S
C1413 C1414 1.523 . S
C1414 C1398 1.368 . S
C1414 C1410 1.368 . S
C1414 C1413 1.523 . S
H1415 C1390 0.950 . S
H1416 C1392 0.950 . S
H1417 C1393 0.949 . S
H1418 C1395 0.950 . S
H1419 C1397 0.950 . S
C1420 C1421 1.349 . S
C1420 C1422 1.327 . S
C1420 H1445 0.950 . S
C1421 C1420 1.349 . S
C1421 C1437 1.349 . S
C1422 C1420 1.327 . S
C1422 C1441 1.429 . S
C1422 H1446 0.950 . S
C1423 C1440 1.574 . S
C1423 C1442 1.368 . S
C1423 H1447 0.949 . S
H1424 C1428 0.949 . S
C1425 C1426 1.349 . S
C1425 C1427 1.327 . S
C1425 H1448 0.950 . S
C1426 C1425 1.349 . S
C1426 C1438 1.349 . S
C1427 C1425 1.327 . S
C1427 C1443 1.429 . S
C1427 H1449 0.950 . S
C1428 H1424 0.949 . S
C1428 C1436 1.574 . S
C1428 C1444 1.368 . S
H1429 C1437 0.950 . S
H1430 C1435 0.950 . S
H1431 C1436 0.949 . S
H1432 C1438 0.950 . S
H1433 C1439 0.950 . S
H1434 C1440 0.949 . S
C1435 H1430 0.950 . S
C1435 C1437 1.327 . S
C1435 C1441 1.429 . S
C1436 C1428 1.574 . S
C1436 H1431 0.949 . S
C1436 C1442 1.368 . S
C1437 C1421 1.349 . S
C1437 H1429 0.950 . S
C1437 C1435 1.327 . S
C1438 C1426 1.349 . S
C1438 H1432 0.950 . S
C1438 C1439 1.327 . S
C1439 H1433 0.950 . S
C1439 C1438 1.327 . S
C1439 C1443 1.429 . S
C1440 C1423 1.574 . S
C1440 H1434 0.949 . S
C1440 C1444 1.368 . S
C1441 C1422 1.429 . S
C1441 C1435 1.429 . S
C1441 C1442 1.523 . S
C1442 C1423 1.368 . S
C1442 C1436 1.368 . S
C1442 C1441 1.523 . S
C1443 C1427 1.429 . S
C1443 C1439 1.429 . S
C1443 C1444 1.523 . S
C1444 C1428 1.368 . S
C1444 C1440 1.368 . S
C1444 C1443 1.523 . S
H1445 C1420 0.950 . S
H1446 C1422 0.950 . S
H1447 C1423 0.949 . S
H1448 C1425 0.950 . S
H1449 C1427 0.950 . S
C1450 C1451 1.349 . S
C1450 C1452 1.327 . S
C1450 H1475 0.950 . S
C1451 C1450 1.349 . S
C1451 C1467 1.349 . S
C1452 C1450 1.327 . S
C1452 C1471 1.429 . S
C1452 H1476 0.950 . S
C1453 C1470 1.574 . S
C1453 C1472 1.368 . S
C1453 H1477 0.949 . S
H1454 C1458 0.949 . S
C1455 C1456 1.349 . S
C1455 C1457 1.327 . S
C1455 H1478 0.950 . S
C1456 C1455 1.349 . S
C1456 C1468 1.349 . S
C1457 C1455 1.327 . S
C1457 C1473 1.429 . S
C1457 H1479 0.950 . S
C1458 H1454 0.949 . S
C1458 C1466 1.574 . S
C1458 C1474 1.368 . S
H1459 C1467 0.950 . S
H1460 C1465 0.950 . S
H1461 C1466 0.949 . S
H1462 C1468 0.950 . S
H1463 C1469 0.950 . S
H1464 C1470 0.949 . S
C1465 H1460 0.950 . S
C1465 C1467 1.327 . S
C1465 C1471 1.429 . S
C1466 C1458 1.574 . S
C1466 H1461 0.949 . S
C1466 C1472 1.368 . S
C1467 C1451 1.349 . S
C1467 H1459 0.950 . S
C1467 C1465 1.327 . S
C1468 C1456 1.349 . S
C1468 H1462 0.950 . S
C1468 C1469 1.327 . S
C1469 H1463 0.950 . S
C1469 C1468 1.327 . S
C1469 C1473 1.429 . S
C1470 C1453 1.574 . S
C1470 H1464 0.949 . S
C1470 C1474 1.368 . S
C1471 C1452 1.429 . S
C1471 C1465 1.429 . S
C1471 C1472 1.523 . S
C1472 C1453 1.368 . S
C1472 C1466 1.368 . S
C1472 C1471 1.523 . S
C1473 C1457 1.429 . S
C1473 C1469 1.429 . S
C1473 C1474 1.523 . S
C1474 C1458 1.368 . S
C1474 C1470 1.368 . S
C1474 C1473 1.523 . S
H1475 C1450 0.950 . S
H1476 C1452 0.950 . S
H1477 C1453 0.949 . S
H1478 C1455 0.950 . S
H1479 C1457 0.950 . S
C1480 C1481 1.349 . S
C1480 C1482 1.327 . S
C1480 H1505 0.950 . S
C1481 C1480 1.349 . S
C1481 C1497 1.349 . S
C1482 C1480 1.327 . S
C1482 C1501 1.429 . S
C1482 H1506 0.950 . S
C1483 C1500 1.574 1_655 S
C1483 C1502 1.368 . S
C1483 H1507 0.949 . S
H1484 C1488 0.949 . S
C1485 C1486 1.349 . S
C1485 C1487 1.327 . S
C1485 H1508 0.950 . S
C1486 C1485 1.349 . S
C1486 C1498 1.349 . S
C1487 C1485 1.327 . S
C1487 C1503 1.429 . S
C1487 H1509 0.950 . S
C1488 H1484 0.949 . S
C1488 C1496 1.574 1_455 S
C1488 C1504 1.368 . S
H1489 C1497 0.950 . S
H1490 C1495 0.950 . S
H1491 C1496 0.949 . S
H1492 C1498 0.950 . S
H1493 C1499 0.950 . S
H1494 C1500 0.949 . S
C1495 H1490 0.950 . S
C1495 C1497 1.327 . S
C1495 C1501 1.429 . S
C1496 C1488 1.574 1_655 S
C1496 H1491 0.949 . S
C1496 C1502 1.368 . S
C1497 C1481 1.349 . S
C1497 H1489 0.950 . S
C1497 C1495 1.327 . S
C1498 C1486 1.349 . S
C1498 H1492 0.950 . S
C1498 C1499 1.327 . S
C1499 H1493 0.950 . S
C1499 C1498 1.327 . S
C1499 C1503 1.429 . S
C1500 C1483 1.574 1_455 S
C1500 H1494 0.949 . S
C1500 C1504 1.368 . S
C1501 C1482 1.429 . S
C1501 C1495 1.429 . S
C1501 C1502 1.523 . S
C1502 C1483 1.368 . S
C1502 C1496 1.368 . S
C1502 C1501 1.523 . S
C1503 C1487 1.429 . S
C1503 C1499 1.429 . S
C1503 C1504 1.523 . S
C1504 C1488 1.368 . S
C1504 C1500 1.368 . S
C1504 C1503 1.523 . S
H1505 C1480 0.950 . S
H1506 C1482 0.950 . S
H1507 C1483 0.949 . S
H1508 C1485 0.950 . S
H1509 C1487 0.950 . S
C1510 C1511 1.349 . S
C1510 C1512 1.327 . S
C1510 H1535 0.950 . S
C1511 C1510 1.349 . S
C1511 C1527 1.349 . S
C1512 C1510 1.327 . S
C1512 C1531 1.429 . S
C1512 H1536 0.950 . S
C1513 C1530 1.574 . S
C1513 C1532 1.368 . S
C1513 H1537 0.949 . S
H1514 C1518 0.949 . S
C1515 C1516 1.349 . S
C1515 C1517 1.327 . S
C1515 H1538 0.950 . S
C1516 C1515 1.349 . S
C1516 C1528 1.349 . S
C1517 C1515 1.327 . S
C1517 C1533 1.429 . S
C1517 H1539 0.950 . S
C1518 H1514 0.949 . S
C1518 C1526 1.574 . S
C1518 C1534 1.368 . S
H1519 C1527 0.950 . S
H1520 C1525 0.950 . S
H1521 C1526 0.949 . S
H1522 C1528 0.950 . S
H1523 C1529 0.950 . S
H1524 C1530 0.949 . S
C1525 H1520 0.950 . S
C1525 C1527 1.327 . S
C1525 C1531 1.429 . S
C1526 C1518 1.574 . S
C1526 H1521 0.949 . S
C1526 C1532 1.368 . S
C1527 C1511 1.349 . S
C1527 H1519 0.950 . S
C1527 C1525 1.327 . S
C1528 C1516 1.349 . S
C1528 H1522 0.950 . S
C1528 C1529 1.327 . S
C1529 H1523 0.950 . S
C1529 C1528 1.327 . S
C1529 C1533 1.429 . S
C1530 C1513 1.574 . S
C1530 H1524 0.949 . S
C1530 C1534 1.368 . S
C1531 C1512 1.429 . S
C1531 C1525 1.429 . S
C1531 C1532 1.523 . S
C1532 C1513 1.368 . S
C1532 C1526 1.368 . S
C1532 C1531 1.523 . S
C1533 C1517 1.429 . S
C1533 C1529 1.429 . S
C1533 C1534 1.523 . S
C1534 C1518 1.368 . S
C1534 C1530 1.368 . S
C1534 C1533 1.523 . S
H1535 C1510 0.950 . S
H1536 C1512 0.950 . S
H1537 C1513 0.949 . S
H1538 C1515 0.950 . S
H1539 C1517 0.950 . S
C1540 C1541 1.349 . S
C1540 C1542 1.327 . S
C1540 H1565 0.950 . S
C1541 C1540 1.349 . S
C1541 C1557 1.349 . S
C1542 C1540 1.327 . S
C1542 C1561 1.429 . S
C1542 H1566 0.950 . S
C1543 C1560 1.574 . S
C1543 C1562 1.368 . S
C1543 H1567 0.949 . S
H1544 C1548 0.949 . S
C1545 C1546 1.349 . S
C1545 C1547 1.327 . S
C1545 H1568 0.950 . S
C1546 C1545 1.349 . S
C1546 C1558 1.349 . S
C1547 C1545 1.327 . S
C1547 C1563 1.429 . S
C1547 H1569 0.950 . S
C1548 H1544 0.949 . S
C1548 C1556 1.574 . S
C1548 C1564 1.368 . S
H1549 C1557 0.950 . S
H1550 C1555 0.950 . S
H1551 C1556 0.949 . S
H1552 C1558 0.950 . S
H1553 C1559 0.950 . S
H1554 C1560 0.949 . S
C1555 H1550 0.950 . S
C1555 C1557 1.327 . S
C1555 C1561 1.429 . S
C1556 C1548 1.574 . S
C1556 H1551 0.949 . S
C1556 C1562 1.368 . S
C1557 C1541 1.349 . S
C1557 H1549 0.950 . S
C1557 C1555 1.327 . S
C1558 C1546 1.349 . S
C1558 H1552 0.950 . S
C1558 C1559 1.327 . S
C1559 H1553 0.950 . S
C1559 C1558 1.327 . S
C1559 C1563 1.429 . S
C1560 C1543 1.574 . S
C1560 H1554 0.949 . S
C1560 C1564 1.368 . S
C1561 C1542 1.429 . S
C1561 C1555 1.429 . S
C1561 C1562 1.523 . S
C1562 C1543 1.368 . S
C1562 C1556 1.368 . S
C1562 C1561 1.523 . S
C1563 C1547 1.429 . S
C1563 C1559 1.429 . S
C1563 C1564 1.523 . S
C1564 C1548 1.368 . S
C1564 C1560 1.368 . S
C1564 C1563 1.523 . S
H1565 C1540 0.950 . S
H1566 C1542 0.950 . S
H1567 C1543 0.949 . S
H1568 C1545 0.950 . S
H1569 C1547 0.950 . S
C1570 C1571 1.349 . S
C1570 C1572 1.327 . S
C1570 H1595 0.950 . S
C1571 C1570 1.349 . S
C1571 C1587 1.349 . S
C1572 C1570 1.327 . S
C1572 C1591 1.429 . S
C1572 H1596 0.950 . S
C1573 C1590 1.574 1_455 S
C1573 C1592 1.368 . S
C1573 H1597 0.949 . S
H1574 C1578 0.949 . S
C1575 C1576 1.349 . S
C1575 C1577 1.327 . S
C1575 H1598 0.950 . S
C1576 C1575 1.349 . S
C1576 C1588 1.349 . S
C1577 C1575 1.327 . S
C1577 C1593 1.429 . S
C1577 H1599 0.950 . S
C1578 H1574 0.949 . S
C1578 C1586 1.574 1_655 S
C1578 C1594 1.368 . S
H1579 C1587 0.950 . S
H1580 C1585 0.950 . S
H1581 C1586 0.949 . S
H1582 C1588 0.950 . S
H1583 C1589 0.950 . S
H1584 C1590 0.949 . S
C1585 H1580 0.950 . S
C1585 C1587 1.327 . S
C1585 C1591 1.429 . S
C1586 C1578 1.574 1_455 S
C1586 H1581 0.949 . S
C1586 C1592 1.368 . S
C1587 C1571 1.349 . S
C1587 H1579 0.950 . S
C1587 C1585 1.327 . S
C1588 C1576 1.349 . S
C1588 H1582 0.950 . S
C1588 C1589 1.327 . S
C1589 H1583 0.950 . S
C1589 C1588 1.327 . S
C1589 C1593 1.429 . S
C1590 C1573 1.574 1_655 S
C1590 H1584 0.949 . S
C1590 C1594 1.368 . S
C1591 C1572 1.429 . S
C1591 C1585 1.429 . S
C1591 C1592 1.523 . S
C1592 C1573 1.368 . S
C1592 C1586 1.368 . S
C1592 C1591 1.523 . S
C1593 C1577 1.429 . S
C1593 C1589 1.429 . S
C1593 C1594 1.523 . S
C1594 C1578 1.368 . S
C1594 C1590 1.368 . S
C1594 C1593 1.523 . S
H1595 C1570 0.950 . S
H1596 C1572 0.950 . S
H1597 C1573 0.949 . S
H1598 C1575 0.950 . S
H1599 C1577 0.950 . S
C1600 C1601 1.349 . S
C1600 C1602 1.327 . S
C1600 H1625 0.950 . S
C1601 C1600 1.349 . S
C1601 C1617 1.349 . S
C1602 C1600 1.327 . S
C1602 C1621 1.429 . S
C1602 H1626 0.950 . S
C1603 C1620 1.574 . S
C1603 C1622 1.368 . S
C1603 H1627 0.949 . S
H1604 C1608 0.949 . S
C1605 C1606 1.349 . S
C1605 C1607 1.346 . S
C1605 H1628 0.950 . S
C1606 C1605 1.349 . S
C1606 C1618 1.349 . S
C1607 C1605 1.346 . S
C1607 C1623 1.434 . S
C1607 H1629 0.925 1_556 S
C1608 H1604 0.949 . S
C1608 C1616 1.574 1_556 S
C1608 C1624 1.368 1_556 S
H1609 C1617 0.950 . S
H1610 C1615 0.950 . S
H1611 C1616 0.949 . S
H1612 C1618 0.950 . S
H1613 C1619 0.950 . S
H1614 C1620 0.949 . S
C1615 H1610 0.950 . S
C1615 C1617 1.327 . S
C1615 C1621 1.429 . S
C1616 C1608 1.574 1_554 S
C1616 H1611 0.949 . S
C1616 C1622 1.368 . S
C1617 C1601 1.349 . S
C1617 H1609 0.950 . S
C1617 C1615 1.327 . S
C1618 C1606 1.349 . S
C1618 H1612 0.950 . S
C1618 C1619 1.327 . S
C1619 H1613 0.950 . S
C1619 C1618 1.327 . S
C1619 C1623 1.429 . S
C1620 C1603 1.574 . S
C1620 H1614 0.949 . S
C1620 C1624 1.368 . S
C1621 C1602 1.429 . S
C1621 C1615 1.429 . S
C1621 C1622 1.523 . S
C1622 C1603 1.368 . S
C1622 C1616 1.368 . S
C1622 C1621 1.523 . S
C1623 C1607 1.434 . S
C1623 C1619 1.429 . S
C1623 C1624 1.523 1_556 S
C1624 C1608 1.368 1_554 S
C1624 C1620 1.368 . S
C1624 C1623 1.523 1_554 S
H1625 C1600 0.950 . S
H1626 C1602 0.950 . S
H1627 C1603 0.949 . S
H1628 C1605 0.950 . S
H1629 C1607 0.925 1_554 S
C1630 C1631 1.349 . S
C1630 C1632 1.327 . S
C1630 H1655 0.950 . S
C1631 C1630 1.349 . S
C1631 C1647 1.349 . S
C1632 C1630 1.327 . S
C1632 C1651 1.429 . S
C1632 H1656 0.950 . S
C1633 C1650 1.574 . S
C1633 C1652 1.368 . S
C1633 H1657 0.949 . S
H1634 C1638 0.949 . S
C1635 C1636 1.349 . S
C1635 C1637 1.327 . S
C1635 H1658 0.950 . S
C1636 C1635 1.349 . S
C1636 C1648 1.349 . S
C1637 C1635 1.327 . S
C1637 C1653 1.429 . S
C1637 H1659 0.950 . S
C1638 H1634 0.949 . S
C1638 C1646 1.574 . S
C1638 C1654 1.368 . S
H1639 C1647 0.950 . S
H1640 C1645 0.950 . S
H1641 C1646 0.949 . S
H1642 C1648 0.950 . S
H1643 C1649 0.950 . S
H1644 C1650 0.949 . S
C1645 H1640 0.950 . S
C1645 C1647 1.327 . S
C1645 C1651 1.429 . S
C1646 C1638 1.574 . S
C1646 H1641 0.949 . S
C1646 C1652 1.368 . S
C1647 C1631 1.349 . S
C1647 H1639 0.950 . S
C1647 C1645 1.327 . S
C1648 C1636 1.349 . S
C1648 H1642 0.950 . S
C1648 C1649 1.327 . S
C1649 H1643 0.950 . S
C1649 C1648 1.327 . S
C1649 C1653 1.429 . S
C1650 C1633 1.574 . S
C1650 H1644 0.949 . S
C1650 C1654 1.368 . S
C1651 C1632 1.429 . S
C1651 C1645 1.429 . S
C1651 C1652 1.523 . S
C1652 C1633 1.368 . S
C1652 C1646 1.368 . S
C1652 C1651 1.523 . S
C1653 C1637 1.429 . S
C1653 C1649 1.429 . S
C1653 C1654 1.523 . S
C1654 C1638 1.368 . S
C1654 C1650 1.368 . S
C1654 C1653 1.523 . S
H1655 C1630 0.950 . S
H1656 C1632 0.950 . S
H1657 C1633 0.949 . S
H1658 C1635 0.950 . S
H1659 C1637 0.950 . S
C1660 C1661 1.349 . S
C1660 C1662 1.327 . S
C1660 H1685 0.950 . S
C1661 C1660 1.349 . S
C1661 C1677 1.349 . S
C1662 C1660 1.327 . S
C1662 C1681 1.429 . S
C1662 H1686 0.950 . S
C1663 C1680 1.574 . S
C1663 C1682 1.368 . S
C1663 H1687 0.949 . S
H1664 C1668 0.949 . S
C1665 C1666 1.349 . S
C1665 C1667 1.327 . S
C1665 H1688 0.950 . S
C1666 C1665 1.349 . S
C1666 C1678 1.349 . S
C1667 C1665 1.327 . S
C1667 C1683 1.429 . S
C1667 H1689 0.950 . S
C1668 H1664 0.949 . S
C1668 C1676 1.574 . S
C1668 C1684 1.368 . S
H1669 C1677 0.950 . S
H1670 C1675 0.950 . S
H1671 C1676 0.949 . S
H1672 C1678 0.950 . S
H1673 C1679 0.950 . S
H1674 C1680 0.949 . S
C1675 H1670 0.950 . S
C1675 C1677 1.327 . S
C1675 C1681 1.429 . S
C1676 C1668 1.574 . S
C1676 H1671 0.949 . S
C1676 C1682 1.368 . S
C1677 C1661 1.349 . S
C1677 H1669 0.950 . S
C1677 C1675 1.327 . S
C1678 C1666 1.349 . S
C1678 H1672 0.950 . S
C1678 C1679 1.327 . S
C1679 H1673 0.950 . S
C1679 C1678 1.327 . S
C1679 C1683 1.429 . S
C1680 C1663 1.574 . S
C1680 H1674 0.949 . S
C1680 C1684 1.368 . S
C1681 C1662 1.429 . S
C1681 C1675 1.429 . S
C1681 C1682 1.523 . S
C1682 C1663 1.368 . S
C1682 C1676 1.368 . S
C1682 C1681 1.523 . S
C1683 C1667 1.429 . S
C1683 C1679 1.429 . S
C1683 C1684 1.523 . S
C1684 C1668 1.368 . S
C1684 C1680 1.368 . S
C1684 C1683 1.523 . S
H1685 C1660 0.950 . S
H1686 C1662 0.950 . S
H1687 C1663 0.949 . S
H1688 C1665 0.950 . S
H1689 C1667 0.950 . S
C1690 C1691 1.349 . S
C1690 C1692 1.327 . S
C1690 H1715 0.950 . S
C1691 C1690 1.349 . S
C1691 C1707 1.349 . S
C1692 C1690 1.327 . S
C1692 C1711 1.429 . S
C1692 H1716 0.950 . S
C1693 C1710 1.574 . S
C1693 C1712 1.368 . S
C1693 H1717 0.949 . S
H1694 C1698 0.949 . S
C1695 C1696 1.349 . S
C1695 C1697 1.327 . S
C1695 H1718 0.950 . S
C1696 C1695 1.349 . S
C1696 C1708 1.349 . S
C1697 C1695 1.327 . S
C1697 C1713 1.429 . S
C1697 H1719 0.950 . S
C1698 H1694 0.949 . S
C1698 C1706 1.574 . S
C1698 C1714 1.368 . S
H1699 C1707 0.950 . S
H1700 C1705 0.950 . S
H1701 C1706 0.949 . S
H1702 C1708 0.950 . S
H1703 C1709 0.950 . S
H1704 C1710 0.949 . S
C1705 H1700 0.950 . S
C1705 C1707 1.327 . S
C1705 C1711 1.429 . S
C1706 C1698 1.574 . S
C1706 H1701 0.949 . S
C1706 C1712 1.368 . S
C1707 C1691 1.349 . S
C1707 H1699 0.950 . S
C1707 C1705 1.327 . S
C1708 C1696 1.349 . S
C1708 H1702 0.950 . S
C1708 C1709 1.327 . S
C1709 H1703 0.950 . S
C1709 C1708 1.327 . S
C1709 C1713 1.429 . S
C1710 C1693 1.574 . S
C1710 H1704 0.949 . S
C1710 C1714 1.368 . S
C1711 C1692 1.429 . S
C1711 C1705 1.429 . S
C1711 C1712 1.523 . S
C1712 C1693 1.368 . S
C1712 C1706 1.368 . S
C1712 C1711 1.523 . S
C1713 C1697 1.429 . S
C1713 C1709 1.429 . S
C1713 C1714 1.523 . S
C1714 C1698 1.368 . S
C1714 C1710 1.368 . S
C1714 C1713 1.523 . S
H1715 C1690 0.950 . S
H1716 C1692 0.950 . S
H1717 C1693 0.949 . S
H1718 C1695 0.950 . S
H1719 C1697 0.950 . S
C1720 C1721 1.349 . S
C1720 C1722 1.327 . S
C1720 H1745 0.950 . S
C1721 C1720 1.349 . S
C1721 C1737 1.349 . S
C1722 C1720 1.327 . S
C1722 C1741 1.429 . S
C1722 H1746 0.950 1_554 S
C1723 C1740 1.591 . S
C1723 C1742 1.376 . S
C1723 H1747 0.927 1_556 S
H1724 C1728 0.949 . S
C1725 C1726 1.349 . S
C1725 C1727 1.327 . S
C1725 H1748 0.950 . S
C1726 C1725 1.349 . S
C1726 C1738 1.349 . S
C1727 C1725 1.327 . S
C1727 C1743 1.429 . S
C1727 H1749 0.950 . S
C1728 H1724 0.949 . S
C1728 C1736 1.574 . S
C1728 C1744 1.368 . S
H1729 C1737 0.950 . S
H1730 C1735 0.950 . S
H1731 C1736 0.949 . S
H1732 C1738 0.950 . S
H1733 C1739 0.950 . S
H1734 C1740 0.949 . S
C1735 H1730 0.950 . S
C1735 C1737 1.327 . S
C1735 C1741 1.429 . S
C1736 C1728 1.574 . S
C1736 H1731 0.949 . S
C1736 C1742 1.368 . S
C1737 C1721 1.349 . S
C1737 H1729 0.950 . S
C1737 C1735 1.327 . S
C1738 C1726 1.349 . S
C1738 H1732 0.950 . S
C1738 C1739 1.327 . S
C1739 H1733 0.950 . S
C1739 C1738 1.327 . S
C1739 C1743 1.429 . S
C1740 C1723 1.591 . S
C1740 H1734 0.949 . S
C1740 C1744 1.368 . S
C1741 C1722 1.429 . S
C1741 C1735 1.429 . S
C1741 C1742 1.523 1_554 S
C1742 C1723 1.376 . S
C1742 C1736 1.368 . S
C1742 C1741 1.523 1_556 S
C1743 C1727 1.429 . S
C1743 C1739 1.429 . S
C1743 C1744 1.523 . S
C1744 C1728 1.368 . S
C1744 C1740 1.368 . S
C1744 C1743 1.523 . S
H1745 C1720 0.950 . S
H1746 C1722 0.950 1_556 S
H1747 C1723 0.927 1_554 S
H1748 C1725 0.950 . S
H1749 C1727 0.950 . S
C1750 C1751 1.349 . S
C1750 C1752 1.327 . S
C1750 H1775 0.950 . S
C1751 C1750 1.349 . S
C1751 C1767 1.349 . S
C1752 C1750 1.327 . S
C1752 C1771 1.429 . S
C1752 H1776 0.950 . S
C1753 C1770 1.574 . S
C1753 C1772 1.368 . S
C1753 H1777 0.949 . S
H1754 C1758 0.949 . S
C1755 C1756 1.349 . S
C1755 C1757 1.327 . S
C1755 H1778 0.950 . S
C1756 C1755 1.349 . S
C1756 C1768 1.349 . S
C1757 C1755 1.327 . S
C1757 C1773 1.429 . S
C1757 H1779 0.950 . S
C1758 H1754 0.949 . S
C1758 C1766 1.574 . S
C1758 C1774 1.368 . S
H1759 C1767 0.950 . S
H1760 C1765 0.950 . S
H1761 C1766 0.949 . S
H1762 C1768 0.950 . S
H1763 C1769 0.950 . S
H1764 C1770 0.949 . S
C1765 H1760 0.950 . S
C1765 C1767 1.327 . S
C1765 C1771 1.429 . S
C1766 C1758 1.574 . S
C1766 H1761 0.949 . S
C1766 C1772 1.368 . S
C1767 C1751 1.349 . S
C1767 H1759 0.950 . S
C1767 C1765 1.327 . S
C1768 C1756 1.349 . S
C1768 H1762 0.950 . S
C1768 C1769 1.327 . S
C1769 H1763 0.950 . S
C1769 C1768 1.327 . S
C1769 C1773 1.429 . S
C1770 C1753 1.574 . S
C1770 H1764 0.949 . S
C1770 C1774 1.368 . S
C1771 C1752 1.429 . S
C1771 C1765 1.429 . S
C1771 C1772 1.523 . S
C1772 C1753 1.368 . S
C1772 C1766 1.368 . S
C1772 C1771 1.523 . S
C1773 C1757 1.429 . S
C1773 C1769 1.429 . S
C1773 C1774 1.523 . S
C1774 C1758 1.368 . S
C1774 C1770 1.368 . S
C1774 C1773 1.523 . S
H1775 C1750 0.950 . S
H1776 C1752 0.950 . S
H1777 C1753 0.949 . S
H1778 C1755 0.950 . S
H1779 C1757 0.950 . S
C1780 C1781 1.349 . S
C1780 C1782 1.327 . S
C1780 H1805 0.950 . S
C1781 C1780 1.349 . S
C1781 C1797 1.349 . S
C1782 C1780 1.327 . S
C1782 C1801 1.429 . S
C1782 H1806 0.950 . S
C1783 C1800 1.574 . S
C1783 C1802 1.368 . S
C1783 H1807 0.949 . S
H1784 C1788 0.949 . S
C1785 C1786 1.349 . S
C1785 C1787 1.327 . S
C1785 H1808 0.950 . S
C1786 C1785 1.349 . S
C1786 C1798 1.349 . S
C1787 C1785 1.327 . S
C1787 C1803 1.429 . S
C1787 H1809 0.950 . S
C1788 H1784 0.949 . S
C1788 C1796 1.574 . S
C1788 C1804 1.368 . S
H1789 C1797 0.950 . S
H1790 C1795 0.950 . S
H1791 C1796 0.949 . S
H1792 C1798 0.950 . S
H1793 C1799 0.950 . S
H1794 C1800 0.949 . S
C1795 H1790 0.950 . S
C1795 C1797 1.327 . S
C1795 C1801 1.429 . S
C1796 C1788 1.574 . S
C1796 H1791 0.949 . S
C1796 C1802 1.368 . S
C1797 C1781 1.349 . S
C1797 H1789 0.950 . S
C1797 C1795 1.327 . S
C1798 C1786 1.349 . S
C1798 H1792 0.950 . S
C1798 C1799 1.327 . S
C1799 H1793 0.950 . S
C1799 C1798 1.327 . S
C1799 C1803 1.429 . S
C1800 C1783 1.574 . S
C1800 H1794 0.949 . S
C1800 C1804 1.368 . S
C1801 C1782 1.429 . S
C1801 C1795 1.429 . S
C1801 C1802 1.523 . S
C1802 C1783 1.368 . S
C1802 C1796 1.368 . S
C1802 C1801 1.523 . S
C1803 C1787 1.429 . S
C1803 C1799 1.429 . S
C1803 C1804 1.523 . S
C1804 C1788 1.368 . S
C1804 C1800 1.368 . S
C1804 C1803 1.523 . S
H1805 C1780 0.950 . S
H1806 C1782 0.950 . S
H1807 C1783 0.949 . S
H1808 C1785 0.950 . S
H1809 C1787 0.950 . S
C1810 C1811 1.349 . S
C1810 C1812 1.327 . S
C1810 H1835 0.950 . S
C1811 C1810 1.349 . S
C1811 C1827 1.349 . S
C1812 C1810 1.327 . S
C1812 C1831 1.429 . S
C1812 H1836 0.950 . S
C1813 C1830 1.574 . S
C1813 C1832 1.368 . S
C1813 H1837 0.949 . S
H1814 C1818 0.949 . S
C1815 C1816 1.349 . S
C1815 C1817 1.327 . S
C1815 H1838 0.950 . S
C1816 C1815 1.349 . S
C1816 C1828 1.349 . S
C1817 C1815 1.327 . S
C1817 C1833 1.429 . S
C1817 H1839 0.950 . S
C1818 H1814 0.949 . S
C1818 C1826 1.574 . S
C1818 C1834 1.368 . S
H1819 C1827 0.950 . S
H1820 C1825 0.950 . S
H1821 C1826 0.949 . S
H1822 C1828 0.950 . S
H1823 C1829 0.950 . S
H1824 C1830 0.949 . S
C1825 H1820 0.950 . S
C1825 C1827 1.327 . S
C1825 C1831 1.429 . S
C1826 C1818 1.574 . S
C1826 H1821 0.949 . S
C1826 C1832 1.368 . S
C1827 C1811 1.349 . S
C1827 H1819 0.950 . S
C1827 C1825 1.327 . S
C1828 C1816 1.349 . S
C1828 H1822 0.950 . S
C1828 C1829 1.327 . S
C1829 H1823 0.950 . S
C1829 C1828 1.327 . S
C1829 C1833 1.429 . S
C1830 C1813 1.574 . S
C1830 H1824 0.949 . S
C1830 C1834 1.368 . S
C1831 C1812 1.429 . S
C1831 C1825 1.429 . S
C1831 C1832 1.523 . S
C1832 C1813 1.368 . S
C1832 C1826 1.368 . S
C1832 C1831 1.523 . S
C1833 C1817 1.429 . S
C1833 C1829 1.429 . S
C1833 C1834 1.523 . S
C1834 C1818 1.368 . S
C1834 C1830 1.368 . S
C1834 C1833 1.523 . S
H1835 C1810 0.950 . S
H1836 C1812 0.950 . S
H1837 C1813 0.949 . S
H1838 C1815 0.950 . S
H1839 C1817 0.950 . S
C1840 C1841 1.349 . S
C1840 C1842 1.327 . S
C1840 H1865 0.950 . S
C1841 C1840 1.349 . S
C1841 C1857 1.349 . S
C1842 C1840 1.327 . S
C1842 C1861 1.429 . S
C1842 H1866 0.950 . S
C1843 C1860 1.574 . S
C1843 C1862 1.368 . S
C1843 H1867 0.949 . S
H1844 C1848 0.949 . S
C1845 C1846 1.349 . S
C1845 C1847 1.327 . S
C1845 H1868 0.950 . S
C1846 C1845 1.349 . S
C1846 C1858 1.349 . S
C1847 C1845 1.327 . S
C1847 C1863 1.429 . S
C1847 H1869 0.950 . S
C1848 H1844 0.949 . S
C1848 C1856 1.574 1_545 S
C1848 C1864 1.368 . S
H1849 C1857 0.950 . S
H1850 C1855 0.950 . S
H1851 C1856 0.950 . S
H1852 C1858 0.950 . S
H1853 C1859 0.950 . S
H1854 C1860 0.949 . S
C1855 H1850 0.950 . S
C1855 C1857 1.327 . S
C1855 C1861 1.429 . S
C1856 C1848 1.574 1_565 S
C1856 H1851 0.950 . S
C1856 C1862 1.368 . S
C1857 C1841 1.349 . S
C1857 H1849 0.950 . S
C1857 C1855 1.327 . S
C1858 C1846 1.349 . S
C1858 H1852 0.950 . S
C1858 C1859 1.327 . S
C1859 H1853 0.950 . S
C1859 C1858 1.327 . S
C1859 C1863 1.429 . S
C1860 C1843 1.574 . S
C1860 H1854 0.949 . S
C1860 C1864 1.368 1_565 S
C1861 C1842 1.429 . S
C1861 C1855 1.429 . S
C1861 C1862 1.523 . S
C1862 C1843 1.368 . S
C1862 C1856 1.368 . S
C1862 C1861 1.523 . S
C1863 C1847 1.429 . S
C1863 C1859 1.429 . S
C1863 C1864 1.523 . S
C1864 C1848 1.368 . S
C1864 C1860 1.368 1_545 S
C1864 C1863 1.523 . S
H1865 C1840 0.950 . S
H1866 C1842 0.950 . S
H1867 C1843 0.949 . S
H1868 C1845 0.950 . S
H1869 C1847 0.950 . S
C1870 C1871 1.349 . S
C1870 C1872 1.327 . S
C1870 H1895 0.950 . S
C1871 C1870 1.349 . S
C1871 C1887 1.349 . S
C1872 C1870 1.327 . S
C1872 C1891 1.429 . S
C1872 H1896 0.950 . S
C1873 C1890 1.574 . S
C1873 C1892 1.368 . S
C1873 H1897 0.949 . S
H1874 C1878 0.949 . S
C1875 C1876 1.349 . S
C1875 C1877 1.327 . S
C1875 H1898 0.950 . S
C1876 C1875 1.349 . S
C1876 C1888 1.349 . S
C1877 C1875 1.327 . S
C1877 C1893 1.429 . S
C1877 H1899 0.950 . S
C1878 H1874 0.949 . S
C1878 C1886 1.574 . S
C1878 C1894 1.368 . S
H1879 C1887 0.950 . S
H1880 C1885 0.950 . S
H1881 C1886 0.949 . S
H1882 C1888 0.950 . S
H1883 C1889 0.950 . S
H1884 C1890 0.949 . S
C1885 H1880 0.950 . S
C1885 C1887 1.327 . S
C1885 C1891 1.429 . S
C1886 C1878 1.574 . S
C1886 H1881 0.949 . S
C1886 C1892 1.368 . S
C1887 C1871 1.349 . S
C1887 H1879 0.950 . S
C1887 C1885 1.327 . S
C1888 C1876 1.349 . S
C1888 H1882 0.950 . S
C1888 C1889 1.327 . S
C1889 H1883 0.950 . S
C1889 C1888 1.327 . S
C1889 C1893 1.429 . S
C1890 C1873 1.574 . S
C1890 H1884 0.949 . S
C1890 C1894 1.368 . S
C1891 C1872 1.429 . S
C1891 C1885 1.429 . S
C1891 C1892 1.523 . S
C1892 C1873 1.368 . S
C1892 C1886 1.368 . S
C1892 C1891 1.523 . S
C1893 C1877 1.429 . S
C1893 C1889 1.429 . S
C1893 C1894 1.523 . S
C1894 C1878 1.368 . S
C1894 C1890 1.368 . S
C1894 C1893 1.523 . S
H1895 C1870 0.950 . S
H1896 C1872 0.950 . S
H1897 C1873 0.949 . S
H1898 C1875 0.950 . S
H1899 C1877 0.950 . S
C1900 C1901 1.349 . S
C1900 C1902 1.327 . S
C1900 H1925 0.950 . S
C1901 C1900 1.349 . S
C1901 C1917 1.349 . S
C1902 C1900 1.327 . S
C1902 C1921 1.429 . S
C1902 H1926 0.950 . S
C1903 C1920 1.574 1_565 S
C1903 C1922 1.368 . S
C1903 H1927 0.949 . S
H1904 C1908 0.938 1_556 S
C1905 C1906 1.349 . S
C1905 C1907 1.327 . S
C1905 H1928 0.950 . S
C1906 C1905 1.349 . S
C1906 C1918 1.349 . S
C1907 C1905 1.327 . S
C1907 C1923 1.429 . S
C1907 H1929 0.950 1_556 S
C1908 H1904 0.938 1_554 S
C1908 C1916 1.574 1_545 S
C1908 C1924 1.368 . S
H1909 C1917 0.950 . S
H1910 C1915 0.950 . S
H1911 C1916 0.949 . S
H1912 C1918 0.950 . S
H1913 C1919 0.950 . S
H1914 C1920 0.949 . S
C1915 H1910 0.950 . S
C1915 C1917 1.327 . S
C1915 C1921 1.429 . S
C1916 C1908 1.574 1_565 S
C1916 H1911 0.949 . S
C1916 C1922 1.368 . S
C1917 C1901 1.349 . S
C1917 H1909 0.950 . S
C1917 C1915 1.327 . S
C1918 C1906 1.349 . S
C1918 H1912 0.950 . S
C1918 C1919 1.327 . S
C1919 H1913 0.950 . S
C1919 C1918 1.327 . S
C1919 C1923 1.429 . S
C1920 C1903 1.574 1_545 S
C1920 H1914 0.949 . S
C1920 C1924 1.368 . S
C1921 C1902 1.429 . S
C1921 C1915 1.429 . S
C1921 C1922 1.523 . S
C1922 C1903 1.368 . S
C1922 C1916 1.368 . S
C1922 C1921 1.523 . S
C1923 C1907 1.429 . S
C1923 C1919 1.429 . S
C1923 C1924 1.523 1_556 S
C1924 C1908 1.368 . S
C1924 C1920 1.368 . S
C1924 C1923 1.523 1_554 S
H1925 C1900 0.950 . S
H1926 C1902 0.950 . S
H1927 C1903 0.949 . S
H1928 C1905 0.950 . S
H1929 C1907 0.950 1_554 S
C1930 C1931 1.349 . S
C1930 C1932 1.327 . S
C1930 H1955 0.950 . S
C1931 C1930 1.349 . S
C1931 C1947 1.349 . S
C1932 C1930 1.327 . S
C1932 C1951 1.429 . S
C1932 H1956 0.950 . S
C1933 C1950 1.574 . S
C1933 C1952 1.368 . S
C1933 H1957 0.949 . S
H1934 C1938 0.949 . S
C1935 C1936 1.349 . S
C1935 C1937 1.327 . S
C1935 H1958 0.950 . S
C1936 C1935 1.349 . S
C1936 C1948 1.349 . S
C1937 C1935 1.327 . S
C1937 C1953 1.429 . S
C1937 H1959 0.950 . S
C1938 H1934 0.949 . S
C1938 C1946 1.574 . S
C1938 C1954 1.368 . S
H1939 C1947 0.950 . S
H1940 C1945 0.950 . S
H1941 C1946 0.949 . S
H1942 C1948 0.950 . S
H1943 C1949 0.950 . S
H1944 C1950 0.949 . S
C1945 H1940 0.950 . S
C1945 C1947 1.327 . S
C1945 C1951 1.429 . S
C1946 C1938 1.574 . S
C1946 H1941 0.949 . S
C1946 C1952 1.368 . S
C1947 C1931 1.349 . S
C1947 H1939 0.950 . S
C1947 C1945 1.327 . S
C1948 C1936 1.349 . S
C1948 H1942 0.950 . S
C1948 C1949 1.327 . S
C1949 H1943 0.950 . S
C1949 C1948 1.327 . S
C1949 C1953 1.429 . S
C1950 C1933 1.574 . S
C1950 H1944 0.949 . S
C1950 C1954 1.368 . S
C1951 C1932 1.429 . S
C1951 C1945 1.429 . S
C1951 C1952 1.523 . S
C1952 C1933 1.368 . S
C1952 C1946 1.368 . S
C1952 C1951 1.523 . S
C1953 C1937 1.429 . S
C1953 C1949 1.429 . S
C1953 C1954 1.523 . S
C1954 C1938 1.368 . S
C1954 C1950 1.368 . S
C1954 C1953 1.523 . S
H1955 C1930 0.950 . S
H1956 C1932 0.950 . S
H1957 C1933 0.949 . S
H1958 C1935 0.950 . S
H1959 C1937 0.950 . S
C1960 C1961 1.349 . S
C1960 C1962 1.327 . S
C1960 H1985 0.950 . S
C1961 C1960 1.349 . S
C1961 C1977 1.349 . S
C1962 C1960 1.327 . S
C1962 C1981 1.429 . S
C1962 H1986 0.950 . S
C1963 C1980 1.574 . S
C1963 C1982 1.368 1_545 S
C1963 H1987 0.949 . S
H1964 C1968 0.949 . S
C1965 C1966 1.349 . S
C1965 C1967 1.327 . S
C1965 H1988 0.950 . S
C1966 C1965 1.349 . S
C1966 C1978 1.349 . S
C1967 C1965 1.327 . S
C1967 C1983 1.429 . S
C1967 H1989 0.950 . S
C1968 H1964 0.949 . S
C1968 C1976 1.574 1_545 S
C1968 C1984 1.368 . S
H1969 C1977 0.950 . S
H1970 C1975 0.950 . S
H1971 C1976 0.949 . S
H1972 C1978 0.950 . S
H1973 C1979 0.950 . S
H1974 C1980 0.949 . S
C1975 H1970 0.950 . S
C1975 C1977 1.327 . S
C1975 C1981 1.429 . S
C1976 C1968 1.574 1_565 S
C1976 H1971 0.949 . S
C1976 C1982 1.368 . S
C1977 C1961 1.349 . S
C1977 H1969 0.950 . S
C1977 C1975 1.327 . S
C1978 C1966 1.349 . S
C1978 H1972 0.950 . S
C1978 C1979 1.327 . S
C1979 H1973 0.950 . S
C1979 C1978 1.327 . S
C1979 C1983 1.429 . S
C1980 C1963 1.574 . S
C1980 H1974 0.949 . S
C1980 C1984 1.368 . S
C1981 C1962 1.429 . S
C1981 C1975 1.429 . S
C1981 C1982 1.523 . S
C1982 C1963 1.368 1_565 S
C1982 C1976 1.368 . S
C1982 C1981 1.523 . S
C1983 C1967 1.429 . S
C1983 C1979 1.429 . S
C1983 C1984 1.523 . S
C1984 C1968 1.368 . S
C1984 C1980 1.368 . S
C1984 C1983 1.523 . S
H1985 C1960 0.950 . S
H1986 C1962 0.950 . S
H1987 C1963 0.949 . S
H1988 C1965 0.950 . S
H1989 C1967 0.950 . S
C1990 C1991 1.349 . S
C1990 C1992 1.327 . S
C1990 H2015 0.950 . S
C1991 C1990 1.349 . S
C1991 C2007 1.349 . S
C1992 C1990 1.327 . S
C1992 C2011 1.429 . S
C1992 H2016 0.950 . S
C1993 C2010 1.574 . S
C1993 C2012 1.368 . S
C1993 H2017 0.949 . S
H1994 C1998 0.949 . S
C1995 C1996 1.349 . S
C1995 C1997 1.327 . S
C1995 H2018 0.950 . S
C1996 C1995 1.349 . S
C1996 C2008 1.349 . S
C1997 C1995 1.327 . S
C1997 C2013 1.429 . S
C1997 H2019 0.950 . S
C1998 H1994 0.949 . S
C1998 C2006 1.574 . S
C1998 C2014 1.368 . S
H1999 C2007 0.950 . S
H2000 C2005 0.950 . S
H2001 C2006 0.949 . S
H2002 C2008 0.950 . S
H2003 C2009 0.950 . S
H2004 C2010 0.949 . S
C2005 H2000 0.950 . S
C2005 C2007 1.327 . S
C2005 C2011 1.429 . S
C2006 C1998 1.574 . S
C2006 H2001 0.949 . S
C2006 C2012 1.368 . S
C2007 C1991 1.349 . S
C2007 H1999 0.950 . S
C2007 C2005 1.327 . S
C2008 C1996 1.349 . S
C2008 H2002 0.950 . S
C2008 C2009 1.327 . S
C2009 H2003 0.950 . S
C2009 C2008 1.327 . S
C2009 C2013 1.429 . S
C2010 C1993 1.574 . S
C2010 H2004 0.949 . S
C2010 C2014 1.368 . S
C2011 C1992 1.429 . S
C2011 C2005 1.429 . S
C2011 C2012 1.523 . S
C2012 C1993 1.368 . S
C2012 C2006 1.368 . S
C2012 C2011 1.523 . S
C2013 C1997 1.429 . S
C2013 C2009 1.429 . S
C2013 C2014 1.523 . S
C2014 C1998 1.368 . S
C2014 C2010 1.368 . S
C2014 C2013 1.523 . S
H2015 C1990 0.950 . S
H2016 C1992 0.950 . S
H2017 C1993 0.949 . S
H2018 C1995 0.950 . S
H2019 C1997 0.950 . S
C2020 C2021 1.349 . S
C2020 C2022 1.327 . S
C2020 H2045 0.950 . S
C2021 C2020 1.349 . S
C2021 C2037 1.349 . S
C2022 C2020 1.327 . S
C2022 C2041 1.429 . S
C2022 H2046 0.950 . S
C2023 C2040 1.574 1_545 S
C2023 C2042 1.368 . S
C2023 H2047 0.949 . S
H2024 C2028 0.949 1_554 S
C2025 C2026 1.349 . S
C2025 C2027 1.331 . S
C2025 H2048 0.950 . S
C2026 C2025 1.349 . S
C2026 C2038 1.349 . S
C2027 C2025 1.331 . S
C2027 C2043 1.430 . S
C2027 H2049 0.943 1_554 S
C2028 H2024 0.949 1_556 S
C2028 C2036 1.574 1_565 S
C2028 C2044 1.368 . S
H2029 C2037 0.950 . S
H2030 C2035 0.950 . S
H2031 C2036 0.949 . S
H2032 C2038 0.950 . S
H2033 C2039 0.950 . S
H2034 C2040 0.949 . S
C2035 H2030 0.950 . S
C2035 C2037 1.327 . S
C2035 C2041 1.429 . S
C2036 C2028 1.574 1_545 S
C2036 H2031 0.949 . S
C2036 C2042 1.368 . S
C2037 C2021 1.349 . S
C2037 H2029 0.950 . S
C2037 C2035 1.327 . S
C2038 C2026 1.349 . S
C2038 H2032 0.950 . S
C2038 C2039 1.327 . S
C2039 H2033 0.950 . S
C2039 C2038 1.327 . S
C2039 C2043 1.429 . S
C2040 C2023 1.574 1_565 S
C2040 H2034 0.949 . S
C2040 C2044 1.368 . S
C2041 C2022 1.429 . S
C2041 C2035 1.429 . S
C2041 C2042 1.523 . S
C2042 C2023 1.368 . S
C2042 C2036 1.368 . S
C2042 C2041 1.523 . S
C2043 C2027 1.430 . S
C2043 C2039 1.429 . S
C2043 C2044 1.523 1_554 S
C2044 C2028 1.368 . S
C2044 C2040 1.368 . S
C2044 C2043 1.523 1_556 S
H2045 C2020 0.950 . S
H2046 C2022 0.950 . S
H2047 C2023 0.949 . S
H2048 C2025 0.950 . S
H2049 C2027 0.943 1_556 S
C2050 C2051 1.349 . S
C2050 C2052 1.327 . S
C2050 H2075 0.950 . S
C2051 C2050 1.349 . S
C2051 C2067 1.349 . S
C2052 C2050 1.327 . S
C2052 C2071 1.429 . S
C2052 H2076 0.950 . S
C2053 C2070 1.574 . S
C2053 C2072 1.368 . S
C2053 H2077 0.949 . S
H2054 C2058 0.949 . S
C2055 C2056 1.349 . S
C2055 C2057 1.327 . S
C2055 H2078 0.950 . S
C2056 C2055 1.349 . S
C2056 C2068 1.349 . S
C2057 C2055 1.327 . S
C2057 C2073 1.429 . S
C2057 H2079 0.950 . S
C2058 H2054 0.949 . S
C2058 C2066 1.574 . S
C2058 C2074 1.368 . S
H2059 C2067 0.950 . S
H2060 C2065 0.950 . S
H2061 C2066 0.949 . S
H2062 C2068 0.950 . S
H2063 C2069 0.950 . S
H2064 C2070 0.949 . S
C2065 H2060 0.950 . S
C2065 C2067 1.327 . S
C2065 C2071 1.429 . S
C2066 C2058 1.574 . S
C2066 H2061 0.949 . S
C2066 C2072 1.368 . S
C2067 C2051 1.349 . S
C2067 H2059 0.950 . S
C2067 C2065 1.327 . S
C2068 C2056 1.349 . S
C2068 H2062 0.950 . S
C2068 C2069 1.327 . S
C2069 H2063 0.950 . S
C2069 C2068 1.327 . S
C2069 C2073 1.429 . S
C2070 C2053 1.574 . S
C2070 H2064 0.949 . S
C2070 C2074 1.368 . S
C2071 C2052 1.429 . S
C2071 C2065 1.429 . S
C2071 C2072 1.523 . S
C2072 C2053 1.368 . S
C2072 C2066 1.368 . S
C2072 C2071 1.523 . S
C2073 C2057 1.429 . S
C2073 C2069 1.429 . S
C2073 C2074 1.523 . S
C2074 C2058 1.368 . S
C2074 C2070 1.368 . S
C2074 C2073 1.523 . S
H2075 C2050 0.950 . S
H2076 C2052 0.950 . S
H2077 C2053 0.949 . S
H2078 C2055 0.950 . S
H2079 C2057 0.950 . S
C641 C26 1.643 . S
C646 C9 1.643 . S
C671 C49 1.519 . S
C676 C66 1.519 . S
C701 C89 1.657 . S
C706 C106 1.657 1_554 S
C731 C129 1.838 . S
C736 C146 1.838 . S
C761 C186 1.519 . S
C766 C169 1.519 . S
C791 C209 1.657 . S
C796 C226 1.657 . S
C821 C266 1.838 . S
C826 C249 1.838 . S
C851 C289 1.643 1_554 S
C856 C306 1.643 . S
C881 C329 1.643 . S
C886 C346 1.643 . S
C911 C369 1.519 . S
C916 C386 1.519 . S
C941 C409 1.657 1_556 S
C946 C426 1.657 . S
C971 C466 1.838 . S
C976 C449 1.838 . S
C1001 C489 1.519 . S
C1006 C506 1.519 . S
C1031 C529 1.657 . S
C1036 C546 1.657 . S
C1061 C569 1.838 . S
C1066 C586 1.838 . S
C1091 C626 1.643 1_556 S
C1096 C609 1.643 . S
C1121 C22 1.890 . S
C1126 C443 1.905 . S
C1151 C42 1.632 . S
C1156 C615 1.652 . S
C1181 C82 1.837 . S
C1186 C363 1.933 . S
C1211 C122 1.511 . S
C1216 C523 1.590 . S
C1241 C182 1.934 . S
C1246 C535 1.837 . S
C1271 C455 1.511 . S
C1276 C222 1.590 . S
C1301 C262 1.905 . S
C1306 C603 1.890 . S
C1331 C282 1.652 . S
C1336 C375 1.632 . S
C1361 C142 1.905 . S
C1366 C323 1.890 . S
C1391 C62 1.934 . S
C1396 C415 1.837 . S
C1421 C483 1.933 . S
C1426 C202 1.837 . S
C1451 C302 1.890 . S
C1456 C563 1.905 . S
C1481 C335 1.652 . S
C1486 C162 1.632 . S
C1511 C242 1.511 . S
C1516 C403 1.590 . S
C1541 C102 1.590 . S
C1546 C575 1.511 . S
C1571 C2 1.652 . S
C1576 C495 1.632 . S
C1601 C3 2.017 . S
C1606 C163 2.019 . S
C1631 C55 1.830 . S
C1636 C203 1.840 . S
C1661 C95 1.645 . S
C1666 C243 1.649 . S
C1691 C135 1.407 . S
C1696 C295 1.394 . S
C1721 C502 2.019 . S
C1726 C342 2.017 . S
C1751 C542 1.840 . S
C1756 C362 1.830 . S
C1781 C402 1.645 . S
C1786 C582 1.649 . S
C1811 C602 1.394 . S
C1816 C442 1.407 . S
C1841 C43 2.019 . S
C1846 C283 2.017 . S
C1871 C175 1.830 . S
C1876 C83 1.840 . S
C1901 C215 1.645 . S
C1906 C123 1.649 . S
C1931 C15 1.394 . S
C1936 C255 1.407 . S
C1961 C622 2.017 . S
C1966 C382 2.019 . S
C1991 C482 1.830 . S
C1996 C422 1.840 . S
C2021 C522 1.645 . S
C2026 C462 1.649 . S
C2051 C562 1.407 . S
C2056 C322 1.394 . S
