# Generated by pormake.
# Topology rob, (6)-cn, num edge types: 1
# Building blocks:
#     Node 0, Type 0, BuildingBlock: FUNLAD_clean_sbu_0, # of connection points: 6
#     Node 1, Type 0, BuildingBlock: FUNLAD_clean_sbu_0, # of connection points: 6
#     Node 2, Type 0, BuildingBlock: FUNLAD_clean_sbu_0, # of connection points: 6
#     Node 3, Type 0, BuildingBlock: FUNLAD_clean_sbu_0, # of connection points: 6
#     Edge 4, Type (0, 0), BuildingBlock: CIFDUS_clean_linker_0, # of connection points: 2
#     Edge 5, Type (0, 0), BuildingBlock: CIFDUS_clean_linker_0, # of connection points: 2
#     Edge 6, Type (0, 0), BuildingBlock: CIFDUS_clean_linker_0, # of connection points: 2
#     Edge 7, Type (0, 0), BuildingBlock: CIFDUS_clean_linker_0, # of connection points: 2
#     Edge 8, Type (0, 0), BuildingBlock: CIFDUS_clean_linker_0, # of connection points: 2
#     Edge 9, Type (0, 0), BuildingBlock: CIFDUS_clean_linker_0, # of connection points: 2
#     Edge 10, Type (0, 0), BuildingBlock: CIFDUS_clean_linker_0, # of connection points: 2
#     Edge 11, Type (0, 0), BuildingBlock: CIFDUS_clean_linker_0, # of connection points: 2
#     Edge 12, Type (0, 0), BuildingBlock: CIFDUS_clean_linker_0, # of connection points: 2
#     Edge 13, Type (0, 0), BuildingBlock: CIFDUS_clean_linker_0, # of connection points: 2
#     Edge 14, Type (0, 0), BuildingBlock: CIFDUS_clean_linker_0, # of connection points: 2
#     Edge 15, Type (0, 0), BuildingBlock: CIFDUS_clean_linker_0, # of connection points: 2
# Relax obj value: 0.123
# Max RMSD: 0.153
# Mean RMSD: 0.153
data_MOF--net-rob--node1-FUNLAD_clean_sbu_0--edge1-CIFDUS_clean_linker_0
_symmetry_space_group_name_H-M    P1
_symmetry_Int_Tables_number       1
_symmetry_cell_setting            triclinic
loop_
_symmetry_equiv_pos_as_xyz
'x, y, z'
_cell_length_a     14.116283
_cell_length_b     36.981375
_cell_length_c     20.570637
_cell_angle_alpha  93.037713
_cell_angle_beta   90.166679
_cell_angle_gamma 90.355583
loop_
_atom_site_label
_atom_site_type_symbol
_atom_site_fract_x
_atom_site_fract_y
_atom_site_fract_z
_atom_type_partial_charge
C0 C 0.28924 0.25641 0.86284 0.0
N1 N 0.29984 0.34852 0.98434 0.0
C2 C 0.38817 0.35488 0.96106 0.0
C3 C 0.42291 0.39018 0.95923 0.0
C4 C 0.36641 0.41931 0.98177 0.0
C5 C 0.2751 0.41198 0.00499 0.0
C6 C 0.24304 0.37621 0.0058 0.0
Zn7 Zn 0.25497 0.29616 -0.01154 0.0
C8 C 0.06013 0.2833 0.94412 0.0
N9 N 0.17193 0.1852 -0.00427 0.0
C10 C 0.22668 0.15842 0.96823 0.0
C11 C 0.08726 0.17757 0.02354 0.0
C12 C 0.05429 0.14186 0.02387 0.0
C13 C 0.10899 0.11366 -0.00461 0.0
C14 C 0.19651 0.12235 0.96757 0.0
Zn15 Zn 0.21604 0.23797 -0.00775 0.0
O16 O 0.30022 0.28617 0.89517 0.0
C17 C 0.40943 0.24897 0.03871 0.0
O18 O 0.25769 0.22893 0.89096 0.0
H19 H 0.04476 0.19926 0.0451 0.0
H20 H 0.43208 0.33248 0.94409 0.0
H21 H 0.29351 0.16508 0.94609 0.0
O22 O 0.38833 0.28149 0.02744 0.0
O23 O 0.34999 0.22391 0.02484 0.0
H24 H 0.17315 0.37052 0.02425 0.0
O25 O 0.17373 0.24978 0.09224 0.0
O26 O 0.2066 0.30728 0.0807 0.0
O27 O 0.08218 0.25188 0.96053 0.0
O28 O 0.1208 0.30884 0.95035 0.0
C29 C 0.17598 0.28252 0.11521 0.0
H30 H 0.4931 0.3946 0.93996 0.0
H31 H 0.22954 0.43359 0.02349 0.0
H32 H 0.98698 0.1364 0.0466 0.0
H33 H 0.24051 0.10157 0.94436 0.0
C34 C 0.80225 0.74941 0.85921 0.0
N35 N 0.79373 0.8475 0.97423 0.0
C36 C 0.87746 0.85586 0.94587 0.0
C37 C 0.90772 0.89183 0.94461 0.0
C38 C 0.85145 0.91961 0.97288 0.0
C39 C 0.76431 0.91026 0.00056 0.0
C40 C 0.73676 0.87387 0.00077 0.0
Zn41 Zn 0.75799 0.79403 0.9813 0.0
C42 C 0.56723 0.77645 0.93687 0.0
N43 N 0.6965 0.68181 -0.00423 0.0
C44 C 0.75472 0.65475 0.97346 0.0
C45 C 0.61016 0.67448 0.02134 0.0
C46 C 0.57838 0.63886 0.02394 0.0
C47 C 0.63577 0.61037 -0.00017 0.0
C48 C 0.72562 0.6186 0.97511 0.0
Zn49 Zn 0.73292 0.73486 -0.01192 0.0
O50 O 0.79948 0.78193 0.88286 0.0
C51 C 0.92425 0.75351 0.03113 0.0
O52 O 0.77949 0.72359 0.89414 0.0
H53 H 0.56502 0.69637 0.03892 0.0
H54 H 0.92179 0.83451 0.92509 0.0
H55 H 0.823 0.66122 0.9532 0.0
O56 O 0.89511 0.784 0.01411 0.0
O57 O 0.86972 0.72604 0.02484 0.0
H58 H 0.67068 0.86664 0.02334 0.0
O59 O 0.6893 0.74577 0.08264 0.0
O60 O 0.71612 0.80422 0.08068 0.0
O61 O 0.59588 0.7452 0.95057 0.0
O62 O 0.6211 0.80368 0.94804 0.0
C63 C 0.69243 0.77677 0.11183 0.0
H64 H 0.97469 0.8978 0.92183 0.0
H65 H 0.71905 0.93072 0.02346 0.0
H66 H 0.50932 0.6337 0.04444 0.0
H67 H 0.77179 0.59744 0.95561 0.0
C68 C 0.30304 0.79459 0.61061 0.0
N69 N 0.31514 0.69704 0.49662 0.0
C70 C 0.40565 0.69034 0.51531 0.0
C71 C 0.44003 0.65486 0.51274 0.0
C72 C 0.38073 0.62609 0.49048 0.0
C73 C 0.28688 0.6338 0.4735 0.0
C74 C 0.25552 0.66953 0.47686 0.0
Zn75 Zn 0.26723 0.749 0.49034 0.0
C76 C 0.07295 0.7593 0.53439 0.0
N77 N 0.1709 0.85702 0.4718 0.0
C78 C 0.21631 0.88658 0.49935 0.0
C79 C 0.08504 0.85997 0.44238 0.0
C80 C 0.04027 0.89341 0.44136 0.0
C81 C 0.08381 0.92422 0.47127 0.0
C82 C 0.1738 0.92063 0.49965 0.0
Zn83 Zn 0.22395 0.80623 0.48001 0.0
O84 O 0.3141 0.76302 0.58445 0.0
C85 C 0.41638 0.79778 0.43471 0.0
O86 O 0.26771 0.81941 0.57774 0.0
H87 H 0.0498 0.83614 0.42107 0.0
H88 H 0.45202 0.71261 0.53058 0.0
H89 H 0.28433 0.88359 0.52273 0.0
O90 O 0.39862 0.76542 0.4498 0.0
O91 O 0.35463 0.82211 0.44544 0.0
H92 H 0.18392 0.67535 0.46203 0.0
O93 O 0.18287 0.79159 0.38255 0.0
O94 O 0.21846 0.73489 0.39689 0.0
O95 O 0.09211 0.79038 0.51468 0.0
O96 O 0.13546 0.73472 0.53005 0.0
C97 C 0.18812 0.75887 0.36063 0.0
H98 H 0.51309 0.65018 0.5259 0.0
H99 H 0.23822 0.61244 0.45712 0.0
H100 H 0.9717 0.895 0.41797 0.0
H101 H 0.20959 0.9436 0.52381 0.0
C102 C 0.7945 0.28946 0.61725 0.0
N103 N 0.80846 0.19537 0.49431 0.0
C104 C 0.8932 0.19086 0.52443 0.0
C105 C 0.93698 0.15718 0.52169 0.0
C106 C 0.89337 0.12771 0.48757 0.0
C107 C 0.80446 0.13276 0.45858 0.0
C108 C 0.76311 0.16708 0.46243 0.0
Zn109 Zn 0.75748 0.24686 0.49261 0.0
C110 C 0.56563 0.25381 0.53911 0.0
N111 N 0.67104 0.3571 0.4904 0.0
C112 C 0.73164 0.38397 0.5117 0.0
C113 C 0.58072 0.36459 0.47243 0.0
C114 C 0.5478 0.40024 0.47663 0.0
C115 C 0.60836 0.42843 0.49972 0.0
C116 C 0.70169 0.41991 0.51675 0.0
Zn117 Zn 0.71683 0.3046 0.49031 0.0
O118 O 0.79508 0.25716 0.59263 0.0
C119 C 0.91135 0.29434 0.4453 0.0
O120 O 0.76824 0.31504 0.58323 0.0
H121 H 0.53361 0.34282 0.45585 0.0
H122 H 0.92835 0.21369 0.54933 0.0
H123 H 0.80314 0.37748 0.5258 0.0
O124 O 0.89051 0.26322 0.4638 0.0
O125 O 0.84965 0.31928 0.44988 0.0
H126 H 0.69602 0.17133 0.43857 0.0
O127 O 0.66791 0.29495 0.39668 0.0
O128 O 0.71854 0.23875 0.39172 0.0
O129 O 0.58473 0.28709 0.53109 0.0
O130 O 0.62557 0.22985 0.52183 0.0
C131 C 0.68258 0.26548 0.36407 0.0
H132 H 0.00477 0.15432 0.54562 0.0
H133 H 0.76873 0.11076 0.43146 0.0
H134 H 0.47502 0.40551 0.46354 0.0
H135 H 0.75123 0.4408 0.53385 0.0
H136 H 0.45992 0.58577 0.96628 0.0
H137 H 0.73291 0.54985 0.03125 0.0
H138 H 0.67383 0.48754 0.03078 0.0
H139 H 0.54359 0.44365 0.01424 0.0
H140 H 0.271 0.47979 0.94865 0.0
H141 H 0.33039 0.54192 0.94886 0.0
C142 C 0.50628 0.56437 0.98096 0.0
C143 C 0.60054 0.57247 -0.00092 0.0
C144 C 0.47176 0.52874 0.98092 0.0
C145 C 0.66028 0.5443 0.0166 0.0
C146 C 0.62641 0.50871 0.01668 0.0
C147 C 0.49743 0.46504 -0.00069 0.0
C148 C 0.40293 0.45704 0.98149 0.0
C149 C 0.53223 0.50066 -0.00097 0.0
C150 C 0.34363 0.48524 0.9634 0.0
C151 C 0.37769 0.52074 0.96311 0.0
H152 H 0.4951 0.59081 0.57334 0.0
H153 H 0.34783 0.57669 0.38951 0.0
H154 H 0.40425 0.51454 0.37639 0.0
H155 H 0.49631 0.46419 0.4165 0.0
H156 H 0.64345 0.47805 0.60038 0.0
H157 H 0.58794 0.54039 0.6133 0.0
C158 C 0.47599 0.57422 0.53019 0.0
C159 C 0.41681 0.58839 0.48274 0.0
C160 C 0.50903 0.53845 0.52273 0.0
C161 C 0.39195 0.56633 0.42739 0.0
C162 C 0.42465 0.53082 0.41959 0.0
C163 C 0.51561 0.48074 0.45966 0.0
C164 C 0.57413 0.4664 0.50727 0.0
C165 C 0.48297 0.51654 0.46703 0.0
C166 C 0.59958 0.48849 0.56247 0.0
C167 C 0.5674 0.52412 0.57013 0.0
H168 H 0.92983 0.08827 0.97084 0.0
H169 H 0.21183 0.05306 0.01733 0.0
H170 H 0.15736 0.99022 0.01367 0.0
H171 H 0.0296 0.94529 -0.00147 0.0
H172 H 0.74746 0.98024 0.95194 0.0
H173 H 0.80163 0.04321 0.95601 0.0
C174 C 0.9792 0.0669 0.98084 0.0
C175 C 0.07488 0.07546 -0.00574 0.0
C176 C 0.94732 0.03077 0.97892 0.0
C177 C 0.13812 0.04728 0.00604 0.0
C178 C 0.10693 1.01132 0.00431 0.0
C179 C 0.98008 0.96662 -0.01144 0.0
C180 C 0.88459 0.95796 0.97477 0.0
C181 C 0.01178 1.00274 -0.00936 0.0
C182 C 0.82111 0.9861 0.9633 0.0
C183 C 0.85214 0.02213 0.96529 0.0
H184 H 0.8166 0.06066 0.49935 0.0
H185 H 0.07983 0.11534 0.46078 0.0
H186 H 0.16186 0.05741 0.45217 0.0
H187 H 0.15898 0.9912 0.45537 0.0
H188 H 0.89621 0.93653 0.49556 0.0
H189 H 0.81364 0.99433 0.50213 0.0
C190 C 0.89172 0.05984 0.48849 0.0
C191 C 0.94203 0.09226 0.48104 0.0
C192 C 0.93854 0.02642 0.48353 0.0
C193 C 0.03967 0.0908 0.46771 0.0
C194 C 0.08659 0.05767 0.46242 0.0
C195 C 0.08382 0.99195 0.46606 0.0
C196 C 0.03399 0.95953 0.47473 0.0
C197 C 0.03684 0.02533 0.47051 0.0
C198 C 0.93618 0.96099 0.48763 0.0
C199 C 0.88891 0.99407 0.49186 0.0
H200 H 0.62757 0.20729 0.28489 0.0
H201 H 0.69426 0.32136 0.28598 0.0
H202 H 0.63611 0.32406 0.17506 0.0
H203 H 0.53927 0.29721 0.08739 0.0
H204 H 0.45987 0.18436 0.0879 0.0
H205 H 0.55305 0.17763 0.18657 0.0
C206 C 0.63094 0.23243 0.26011 0.0
C207 C 0.66218 0.26426 0.29389 0.0
C208 C 0.59481 0.2341 0.19655 0.0
C209 C 0.66764 0.2967 0.26135 0.0
C210 C 0.63492 0.29828 0.19783 0.0
C211 C 0.54448 0.27086 0.10792 0.0
C212 C 0.49041 0.2417 0.08157 0.0
C213 C 0.59412 0.2676 0.16624 0.0
C214 C 0.4996 0.20752 0.10795 0.0
C215 C 0.55212 0.20369 0.16485 0.0
H216 H 0.63098 0.83578 0.18537 0.0
H217 H 0.70799 0.72341 0.1955 0.0
H218 H 0.64921 0.72288 0.30626 0.0
H219 H 0.54983 0.75045 0.39097 0.0
H220 H 0.4615 0.86145 0.37955 0.0
H221 H 0.55396 0.86683 0.28049 0.0
C222 C 0.63637 0.81149 0.21245 0.0
C223 C 0.67078 0.77944 0.18181 0.0
C224 C 0.60025 0.81104 0.27601 0.0
C225 C 0.67895 0.74819 0.21752 0.0
C226 C 0.64588 0.74785 0.28102 0.0
C227 C 0.55291 0.77617 0.36795 0.0
C228 C 0.49658 0.80506 0.39136 0.0
C229 C 0.60233 0.77856 0.30951 0.0
C230 C 0.503 0.83847 0.36178 0.0
C231 C 0.55511 0.8415 0.30468 0.0
H232 H 0.51318 0.83496 0.87161 0.0
H233 H 0.4344 0.72451 0.90561 0.0
H234 H 0.33259 0.72253 0.80961 0.0
H235 H 0.29301 0.74774 0.70547 0.0
H236 H 0.37547 0.85714 0.66827 0.0
H237 H 0.44892 0.8641 0.77646 0.0
C238 C 0.47149 0.81082 0.85925 0.0
C239 C 0.48331 0.77959 0.89464 0.0
C240 C 0.41584 0.8094 0.80258 0.0
C241 C 0.42778 0.74872 0.87852 0.0
C242 C 0.37015 0.74744 0.82331 0.0
C243 C 0.3259 0.77328 0.72157 0.0
C244 C 0.33154 0.80158 0.67886 0.0
C245 C 0.36825 0.77686 0.78312 0.0
C246 C 0.37163 0.8349 0.70041 0.0
C247 C 0.41368 0.8388 0.76205 0.0
H248 H 0.42858 0.29753 0.59069 0.0
H249 H 0.52677 0.18715 0.58472 0.0
H250 H 0.43535 0.17563 0.68184 0.0
H251 H 0.35528 0.20098 0.7812 0.0
H252 H 0.26283 0.3121 0.78651 0.0
H253 H 0.32285 0.31898 0.67739 0.0
C254 C 0.42778 0.27065 0.60943 0.0
C255 C 0.48667 0.2437 0.58172 0.0
C256 C 0.37746 0.26446 0.66641 0.0
C257 C 0.48328 0.20873 0.60582 0.0
C258 C 0.43157 0.20212 0.66184 0.0
C259 C 0.34641 0.22629 0.7576 0.0
C260 C 0.30777 0.25627 0.79242 0.0
C261 C 0.38288 0.23041 0.69473 0.0
C262 C 0.29522 0.28889 0.76122 0.0
C263 C 0.32918 0.2929 0.6987 0.0
H264 H 0.97788 0.70044 0.10929 0.0
H265 H 0.06031 0.80579 0.04722 0.0
H266 H 0.15954 0.81556 0.14368 0.0
H267 H 0.19533 0.79935 0.25531 0.0
H268 H 0.11213 0.69435 0.31794 0.0
H269 H 0.04015 0.67932 0.2117 0.0
C270 C 0.02017 0.72498 0.11563 0.0
C271 C 0.00951 0.7528 0.0724 0.0
C272 C 0.07444 0.73098 0.17232 0.0
C273 C 0.06591 0.78422 0.08066 0.0
C274 C 0.12191 0.79003 0.13615 0.0
C275 C 0.16233 0.77306 0.2452 0.0
C276 C 0.15622 0.74838 0.2944 0.0
C277 C 0.12178 0.76455 0.18409 0.0
C278 C 0.11609 0.71396 0.2807 0.0
C279 C 0.07514 0.70533 0.22007 0.0
H280 H 0.94329 0.34322 0.35426 0.0
H281 H 0.06516 0.25032 0.44056 0.0
H282 H 0.16348 0.23855 0.34468 0.0
H283 H 0.19221 0.24824 0.22846 0.0
H284 H 0.07197 0.34182 0.14372 0.0
H285 H -0.00531 0.35942 0.24627 0.0
C286 C -0.00592 0.3213 0.35323 0.0
C287 C -0.00479 0.29718 0.40349 0.0
C288 C 0.04813 0.31395 0.29713 0.0
C289 C 0.06202 0.26901 0.40177 0.0
C290 C 0.11736 0.26191 0.3466 0.0
C291 C 0.14951 0.27253 0.23297 0.0
C292 C 0.13548 0.29322 0.17878 0.0
C293 C 0.10675 0.28295 0.29251 0.0
C294 C 0.08242 0.32525 0.18502 0.0
C295 C 0.03858 0.33543 0.24359 0.0
H296 H 0.78021 0.24761 0.72064 0.0
H297 H 0.88246 0.35104 0.66198 0.0
H298 H 0.95722 0.36284 0.76813 0.0
H299 H 0.01599 0.33882 0.86895 0.0
H300 H 0.9139 0.23525 0.92771 0.0
H301 H 0.8127 0.22929 0.83164 0.0
C302 C 0.818 0.27284 0.73166 0.0
C303 C 0.8286 0.29794 0.68358 0.0
C304 C 0.86001 0.27959 0.79284 0.0
C305 C 0.87497 0.33109 0.69839 0.0
C306 C 0.91749 0.33791 0.75898 0.0
C307 C 0.9691 0.31557 0.862 0.0
C308 C 0.97481 0.28698 0.90391 0.0
C309 C 0.91353 0.31171 0.80561 0.0
C310 C 0.9123 0.25731 0.89509 0.0
C311 C 0.85513 0.25365 0.83983 0.0
H312 H 0.03013 0.70343 0.60974 0.0
H313 H 0.92706 0.80667 0.55192 0.0
H314 H 0.824 0.81113 0.64662 0.0
H315 H 0.78851 0.79153 0.7562 0.0
H316 H 0.89162 0.68848 0.8142 0.0
H317 H 0.96951 0.67817 0.70914 0.0
C318 C 0.98286 0.72632 0.61666 0.0
C319 C 0.98851 0.7552 0.57523 0.0
C320 C 0.92581 0.72927 0.67222 0.0
C321 C 0.92552 0.78439 0.58405 0.0
C322 C 0.86712 0.78717 0.63852 0.0
C323 C 0.82706 0.76666 0.74528 0.0
C324 C 0.83689 0.74128 0.79298 0.0
C325 C 0.87117 0.76083 0.68482 0.0
C326 C 0.88448 0.70864 0.77817 0.0
C327 C 0.92894 0.7027 0.7182 0.0
loop_
_geom_bond_atom_site_label_1
_geom_bond_atom_site_label_2
_geom_bond_distance
_geom_bond_site_symmetry_2
_ccdc_geom_bond_type
C0 O16 1.251 . S
C0 O18 1.254 . S
N1 C2 1.333 1_554 S
N1 C6 1.307 . S
N1 Zn7 2.020 . S
C2 N1 1.333 1_556 S
C2 C3 1.379 . S
C2 H20 0.952 . S
C3 C2 1.379 . S
C3 C4 1.390 1_556 S
C3 H30 0.949 . S
C4 C3 1.390 1_554 S
C4 C5 1.357 . S
C5 C4 1.357 . S
C5 C6 1.370 . S
C5 H31 0.950 . S
C6 N1 1.307 . S
C6 C5 1.370 . S
C6 H24 0.948 . S
Zn7 N1 2.020 . S
Zn7 O16 2.039 1_554 S
Zn7 O22 2.034 . S
Zn7 O26 2.025 . S
Zn7 O28 2.024 1_554 S
C8 O27 1.246 . S
C8 O28 1.249 . S
N9 C10 1.307 . S
N9 C11 1.333 1_556 S
N9 Zn15 2.020 . S
C10 N9 1.307 . S
C10 C14 1.370 . S
C10 H21 0.948 . S
C11 N9 1.333 1_554 S
C11 C12 1.379 . S
C11 H19 0.952 . S
C12 C11 1.379 . S
C12 C13 1.390 1_554 S
C12 H32 0.949 . S
C13 C12 1.390 1_556 S
C13 C14 1.357 . S
C14 C10 1.370 . S
C14 C13 1.357 . S
C14 H33 0.950 . S
Zn15 N9 2.020 . S
Zn15 O18 2.025 . S
Zn15 O23 2.024 1_556 S
Zn15 O25 2.039 1_556 S
Zn15 O27 2.034 . S
O16 C0 1.251 . S
O16 Zn7 2.039 1_556 S
C17 O22 1.246 . S
C17 O23 1.249 . S
O18 C0 1.254 . S
O18 Zn15 2.025 . S
H19 C11 0.952 . S
H20 C2 0.952 . S
H21 C10 0.948 . S
O22 Zn7 2.034 . S
O22 C17 1.246 . S
O23 Zn15 2.024 1_554 S
O23 C17 1.249 . S
H24 C6 0.948 . S
O25 Zn15 2.039 1_554 S
O25 C29 1.251 . S
O26 Zn7 2.025 . S
O26 C29 1.254 . S
O27 C8 1.246 . S
O27 Zn15 2.034 . S
O28 Zn7 2.024 1_556 S
O28 C8 1.249 . S
C29 O25 1.251 . S
C29 O26 1.254 . S
H30 C3 0.949 . S
H31 C5 0.950 . S
H32 C12 0.949 . S
H33 C14 0.950 . S
C34 O50 1.251 . S
C34 O52 1.254 . S
N35 C36 1.333 1_554 S
N35 C40 1.307 . S
N35 Zn41 2.020 . S
C36 N35 1.333 1_556 S
C36 C37 1.379 . S
C36 H54 0.952 . S
C37 C36 1.379 . S
C37 C38 1.390 1_556 S
C37 H64 0.949 . S
C38 C37 1.390 1_554 S
C38 C39 1.357 . S
C39 C38 1.357 . S
C39 C40 1.370 . S
C39 H65 0.950 . S
C40 N35 1.307 . S
C40 C39 1.370 . S
C40 H58 0.948 . S
Zn41 N35 2.020 . S
Zn41 O50 2.039 1_554 S
Zn41 O56 2.034 . S
Zn41 O60 2.025 . S
Zn41 O62 2.024 1_554 S
C42 O61 1.246 . S
C42 O62 1.249 . S
N43 C44 1.307 . S
N43 C45 1.333 1_556 S
N43 Zn49 2.020 . S
C44 N43 1.307 . S
C44 C48 1.370 . S
C44 H55 0.948 . S
C45 N43 1.333 1_554 S
C45 C46 1.379 . S
C45 H53 0.952 . S
C46 C45 1.379 . S
C46 C47 1.390 1_554 S
C46 H66 0.949 . S
C47 C46 1.390 1_556 S
C47 C48 1.357 . S
C48 C44 1.370 . S
C48 C47 1.357 . S
C48 H67 0.950 . S
Zn49 N43 2.020 . S
Zn49 O52 2.025 . S
Zn49 O57 2.024 1_556 S
Zn49 O59 2.039 1_556 S
Zn49 O61 2.034 . S
O50 C34 1.251 . S
O50 Zn41 2.039 1_556 S
C51 O56 1.246 . S
C51 O57 1.249 . S
O52 C34 1.254 . S
O52 Zn49 2.025 . S
H53 C45 0.952 . S
H54 C36 0.952 . S
H55 C44 0.948 . S
O56 Zn41 2.034 . S
O56 C51 1.246 . S
O57 Zn49 2.024 1_554 S
O57 C51 1.249 . S
H58 C40 0.948 . S
O59 Zn49 2.039 1_554 S
O59 C63 1.251 . S
O60 Zn41 2.025 . S
O60 C63 1.254 . S
O61 C42 1.246 . S
O61 Zn49 2.034 . S
O62 Zn41 2.024 1_556 S
O62 C42 1.249 . S
C63 O59 1.251 . S
C63 O60 1.254 . S
H64 C37 0.949 . S
H65 C39 0.950 . S
H66 C46 0.949 . S
H67 C48 0.950 . S
C68 O84 1.251 . S
C68 O86 1.254 . S
N69 C70 1.333 . S
N69 C74 1.307 . S
N69 Zn75 2.020 . S
C70 N69 1.333 . S
C70 C71 1.379 . S
C70 H88 0.952 . S
C71 C70 1.379 . S
C71 C72 1.390 . S
C71 H98 0.949 . S
C72 C71 1.390 . S
C72 C73 1.357 . S
C73 C72 1.357 . S
C73 C74 1.370 . S
C73 H99 0.950 . S
C74 N69 1.307 . S
C74 C73 1.370 . S
C74 H92 0.948 . S
Zn75 N69 2.020 . S
Zn75 O84 2.039 . S
Zn75 O90 2.034 . S
Zn75 O94 2.025 . S
Zn75 O96 2.024 . S
C76 O95 1.246 . S
C76 O96 1.249 . S
N77 C78 1.307 . S
N77 C79 1.333 . S
N77 Zn83 2.020 . S
C78 N77 1.307 . S
C78 C82 1.370 . S
C78 H89 0.948 . S
C79 N77 1.333 . S
C79 C80 1.379 . S
C79 H87 0.952 . S
C80 C79 1.379 . S
C80 C81 1.390 . S
C80 H100 0.949 . S
C81 C80 1.390 . S
C81 C82 1.357 . S
C82 C78 1.370 . S
C82 C81 1.357 . S
C82 H101 0.950 . S
Zn83 N77 2.020 . S
Zn83 O86 2.025 . S
Zn83 O91 2.024 . S
Zn83 O93 2.039 . S
Zn83 O95 2.034 . S
O84 C68 1.251 . S
O84 Zn75 2.039 . S
C85 O90 1.246 . S
C85 O91 1.249 . S
O86 C68 1.254 . S
O86 Zn83 2.025 . S
H87 C79 0.952 . S
H88 C70 0.952 . S
H89 C78 0.948 . S
O90 Zn75 2.034 . S
O90 C85 1.246 . S
O91 Zn83 2.024 . S
O91 C85 1.249 . S
H92 C74 0.948 . S
O93 Zn83 2.039 . S
O93 C97 1.251 . S
O94 Zn75 2.025 . S
O94 C97 1.254 . S
O95 C76 1.246 . S
O95 Zn83 2.034 . S
O96 Zn75 2.024 . S
O96 C76 1.249 . S
C97 O93 1.251 . S
C97 O94 1.254 . S
H98 C71 0.949 . S
H99 C73 0.950 . S
H100 C80 0.949 . S
H101 C82 0.950 . S
C102 O118 1.251 . S
C102 O120 1.254 . S
N103 C104 1.333 . S
N103 C108 1.307 . S
N103 Zn109 2.020 . S
C104 N103 1.333 . S
C104 C105 1.379 . S
C104 H122 0.952 . S
C105 C104 1.379 . S
C105 C106 1.390 . S
C105 H132 0.949 . S
C106 C105 1.390 . S
C106 C107 1.357 . S
C107 C106 1.357 . S
C107 C108 1.370 . S
C107 H133 0.950 . S
C108 N103 1.307 . S
C108 C107 1.370 . S
C108 H126 0.948 . S
Zn109 N103 2.020 . S
Zn109 O118 2.039 . S
Zn109 O124 2.034 . S
Zn109 O128 2.025 . S
Zn109 O130 2.024 . S
C110 O129 1.246 . S
C110 O130 1.249 . S
N111 C112 1.307 . S
N111 C113 1.333 . S
N111 Zn117 2.020 . S
C112 N111 1.307 . S
C112 C116 1.370 . S
C112 H123 0.948 . S
C113 N111 1.333 . S
C113 C114 1.379 . S
C113 H121 0.952 . S
C114 C113 1.379 . S
C114 C115 1.390 . S
C114 H134 0.949 . S
C115 C114 1.390 . S
C115 C116 1.357 . S
C116 C112 1.370 . S
C116 C115 1.357 . S
C116 H135 0.950 . S
Zn117 N111 2.020 . S
Zn117 O120 2.025 . S
Zn117 O125 2.024 . S
Zn117 O127 2.039 . S
Zn117 O129 2.034 . S
O118 C102 1.251 . S
O118 Zn109 2.039 . S
C119 O124 1.246 . S
C119 O125 1.249 . S
O120 C102 1.254 . S
O120 Zn117 2.025 . S
H121 C113 0.952 . S
H122 C104 0.952 . S
H123 C112 0.948 . S
O124 Zn109 2.034 . S
O124 C119 1.246 . S
O125 Zn117 2.024 . S
O125 C119 1.249 . S
H126 C108 0.948 . S
O127 Zn117 2.039 . S
O127 C131 1.251 . S
O128 Zn109 2.025 . S
O128 C131 1.254 . S
O129 C110 1.246 . S
O129 Zn117 2.034 . S
O130 Zn109 2.024 . S
O130 C110 1.249 . S
C131 O127 1.251 . S
C131 O128 1.254 . S
H132 C105 0.949 . S
H133 C107 0.950 . S
H134 C114 0.949 . S
H135 C116 0.950 . S
H136 C142 0.931 . S
H137 C145 0.930 . S
H138 C146 0.930 . S
H139 C147 0.930 . S
H140 C150 0.930 . S
H141 C151 0.930 . S
C142 H136 0.931 . S
C142 C143 1.354 1_556 S
C142 C144 1.415 . S
C143 C142 1.354 1_554 S
C143 C145 1.419 . S
C144 C142 1.415 . S
C144 C149 1.425 1_556 S
C144 C151 1.409 . S
C145 H137 0.930 . S
C145 C143 1.419 . S
C145 C146 1.362 . S
C146 H138 0.930 . S
C146 C145 1.362 . S
C146 C149 1.409 . S
C147 H139 0.930 . S
C147 C148 1.355 1_554 S
C147 C149 1.415 . S
C148 C147 1.355 1_556 S
C148 C150 1.419 . S
C149 C144 1.425 1_554 S
C149 C146 1.409 . S
C149 C147 1.415 . S
C150 H140 0.930 . S
C150 C148 1.419 . S
C150 C151 1.362 . S
C151 H141 0.930 . S
C151 C144 1.409 . S
C151 C150 1.362 . S
H152 C158 0.930 . S
H153 C161 0.930 . S
H154 C162 0.930 . S
H155 C163 0.930 . S
H156 C166 0.930 . S
H157 C167 0.930 . S
C158 H152 0.930 . S
C158 C159 1.355 . S
C158 C160 1.415 . S
C159 C158 1.355 . S
C159 C161 1.419 . S
C160 C158 1.415 . S
C160 C165 1.425 . S
C160 C167 1.409 . S
C161 H153 0.930 . S
C161 C159 1.419 . S
C161 C162 1.362 . S
C162 H154 0.930 . S
C162 C161 1.362 . S
C162 C165 1.409 . S
C163 H155 0.930 . S
C163 C164 1.355 . S
C163 C165 1.415 . S
C164 C163 1.355 . S
C164 C166 1.419 . S
C165 C160 1.425 . S
C165 C162 1.409 . S
C165 C163 1.415 . S
C166 H156 0.930 . S
C166 C164 1.419 . S
C166 C167 1.362 . S
C167 H157 0.930 . S
C167 C160 1.409 . S
C167 C166 1.362 . S
H168 C174 0.930 1_655 S
H169 C177 0.930 . S
H170 C178 0.930 . S
H171 C179 0.930 1_455 S
H172 C182 0.930 . S
H173 C183 0.930 . S
C174 H168 0.930 1_455 S
C174 C175 1.355 1_556 S
C174 C176 1.415 1_455 S
C175 C174 1.355 1_554 S
C175 C177 1.419 . S
C176 C174 1.415 1_655 S
C176 C181 1.425 1_646 S
C176 C183 1.409 . S
C177 H169 0.930 . S
C177 C175 1.419 . S
C177 C178 1.362 1_545 S
C178 H170 0.930 . S
C178 C177 1.362 1_565 S
C178 C181 1.409 . S
C179 H171 0.930 1_655 S
C179 C180 1.355 1_554 S
C179 C181 1.415 1_655 S
C180 C179 1.355 1_556 S
C180 C182 1.419 . S
C181 C176 1.425 1_464 S
C181 C178 1.409 . S
C181 C179 1.415 1_455 S
C182 H172 0.930 . S
C182 C180 1.419 . S
C182 C183 1.362 1_565 S
C183 H173 0.930 . S
C183 C176 1.409 . S
C183 C182 1.362 1_545 S
H184 C190 0.930 . S
H185 C193 0.930 1_455 S
H186 C194 0.930 . S
H187 C195 0.930 . S
H188 C198 0.930 1_655 S
H189 C199 0.930 . S
C190 H184 0.930 . S
C190 C191 1.355 . S
C190 C192 1.415 1_545 S
C191 C190 1.355 . S
C191 C193 1.419 . S
C192 C190 1.415 1_565 S
C192 C197 1.425 1_665 S
C192 C199 1.409 . S
C193 H185 0.930 1_655 S
C193 C191 1.419 . S
C193 C194 1.362 1_655 S
C194 H186 0.930 . S
C194 C193 1.362 1_455 S
C194 C197 1.409 . S
C195 H187 0.930 . S
C195 C196 1.355 . S
C195 C197 1.415 1_565 S
C196 C195 1.355 . S
C196 C198 1.419 . S
C197 C192 1.425 1_445 S
C197 C194 1.409 . S
C197 C195 1.415 1_545 S
C198 H188 0.930 1_455 S
C198 C196 1.419 . S
C198 C199 1.362 1_455 S
C199 H189 0.930 . S
C199 C192 1.409 . S
C199 C198 1.362 1_655 S
H200 C206 0.930 . S
H201 C209 0.930 . S
H202 C210 0.930 . S
H203 C211 0.930 . S
H204 C214 0.930 . S
H205 C215 0.930 . S
C206 H200 0.930 . S
C206 C207 1.355 . S
C206 C208 1.415 . S
C207 C206 1.355 . S
C207 C209 1.419 . S
C208 C206 1.415 . S
C208 C213 1.425 . S
C208 C215 1.409 . S
C209 H201 0.930 . S
C209 C207 1.419 . S
C209 C210 1.362 . S
C210 H202 0.930 . S
C210 C209 1.362 . S
C210 C213 1.409 . S
C211 H203 0.930 . S
C211 C212 1.355 . S
C211 C213 1.415 . S
C212 C211 1.355 . S
C212 C214 1.419 . S
C213 C208 1.425 . S
C213 C210 1.409 . S
C213 C211 1.415 . S
C214 H204 0.930 . S
C214 C212 1.419 . S
C214 C215 1.362 . S
C215 H205 0.930 . S
C215 C208 1.409 . S
C215 C214 1.362 . S
H216 C222 0.930 . S
H217 C225 0.930 . S
H218 C226 0.930 . S
H219 C227 0.930 . S
H220 C230 0.930 . S
H221 C231 0.930 . S
C222 H216 0.930 . S
C222 C223 1.355 . S
C222 C224 1.415 . S
C223 C222 1.355 . S
C223 C225 1.419 . S
C224 C222 1.415 . S
C224 C229 1.425 . S
C224 C231 1.409 . S
C225 H217 0.930 . S
C225 C223 1.419 . S
C225 C226 1.362 . S
C226 H218 0.930 . S
C226 C225 1.362 . S
C226 C229 1.409 . S
C227 H219 0.930 . S
C227 C228 1.355 . S
C227 C229 1.415 . S
C228 C227 1.355 . S
C228 C230 1.419 . S
C229 C224 1.425 . S
C229 C226 1.409 . S
C229 C227 1.415 . S
C230 H220 0.930 . S
C230 C228 1.419 . S
C230 C231 1.362 . S
C231 H221 0.930 . S
C231 C224 1.409 . S
C231 C230 1.362 . S
H232 C238 0.930 . S
H233 C241 0.930 . S
H234 C242 0.930 . S
H235 C243 0.930 . S
H236 C246 0.930 . S
H237 C247 0.930 . S
C238 H232 0.930 . S
C238 C239 1.355 . S
C238 C240 1.415 . S
C239 C238 1.355 . S
C239 C241 1.419 . S
C240 C238 1.415 . S
C240 C245 1.425 . S
C240 C247 1.409 . S
C241 H233 0.930 . S
C241 C239 1.419 . S
C241 C242 1.362 . S
C242 H234 0.930 . S
C242 C241 1.362 . S
C242 C245 1.409 . S
C243 H235 0.930 . S
C243 C244 1.355 . S
C243 C245 1.415 . S
C244 C243 1.355 . S
C244 C246 1.419 . S
C245 C240 1.425 . S
C245 C242 1.409 . S
C245 C243 1.415 . S
C246 H236 0.930 . S
C246 C244 1.419 . S
C246 C247 1.362 . S
C247 H237 0.930 . S
C247 C240 1.409 . S
C247 C246 1.362 . S
H248 C254 0.930 . S
H249 C257 0.930 . S
H250 C258 0.930 . S
H251 C259 0.930 . S
H252 C262 0.930 . S
H253 C263 0.930 . S
C254 H248 0.930 . S
C254 C255 1.355 . S
C254 C256 1.415 . S
C255 C254 1.355 . S
C255 C257 1.419 . S
C256 C254 1.415 . S
C256 C261 1.425 . S
C256 C263 1.409 . S
C257 H249 0.930 . S
C257 C255 1.419 . S
C257 C258 1.362 . S
C258 H250 0.930 . S
C258 C257 1.362 . S
C258 C261 1.409 . S
C259 H251 0.930 . S
C259 C260 1.355 . S
C259 C261 1.415 . S
C260 C259 1.355 . S
C260 C262 1.419 . S
C261 C256 1.425 . S
C261 C258 1.409 . S
C261 C259 1.415 . S
C262 H252 0.930 . S
C262 C260 1.419 . S
C262 C263 1.362 . S
C263 H253 0.930 . S
C263 C256 1.409 . S
C263 C262 1.362 . S
H264 C270 0.930 . S
H265 C273 0.930 . S
H266 C274 0.930 . S
H267 C275 0.930 . S
H268 C278 0.930 . S
H269 C279 0.930 . S
C270 H264 0.930 . S
C270 C271 1.355 . S
C270 C272 1.415 1_655 S
C271 C270 1.355 . S
C271 C273 1.419 . S
C272 C270 1.415 1_455 S
C272 C277 1.425 1_455 S
C272 C279 1.409 . S
C273 H265 0.930 . S
C273 C271 1.419 . S
C273 C274 1.362 . S
C274 H266 0.930 . S
C274 C273 1.362 . S
C274 C277 1.409 . S
C275 H267 0.930 . S
C275 C276 1.355 . S
C275 C277 1.415 1_455 S
C276 C275 1.355 . S
C276 C278 1.419 . S
C277 C272 1.425 1_655 S
C277 C274 1.409 . S
C277 C275 1.415 1_655 S
C278 H268 0.930 . S
C278 C276 1.419 . S
C278 C279 1.362 . S
C279 H269 0.930 . S
C279 C272 1.409 . S
C279 C278 1.362 . S
H280 C286 0.930 . S
H281 C289 0.930 . S
H282 C290 0.930 . S
H283 C291 0.930 . S
H284 C294 0.930 . S
H285 C295 0.930 . S
C286 H280 0.930 . S
C286 C287 1.355 . S
C286 C288 1.415 . S
C287 C286 1.355 . S
C287 C289 1.419 . S
C288 C286 1.415 . S
C288 C293 1.425 . S
C288 C295 1.409 1_655 S
C289 H281 0.930 . S
C289 C287 1.419 . S
C289 C290 1.362 . S
C290 H282 0.930 . S
C290 C289 1.362 . S
C290 C293 1.412 . S
C291 H283 0.930 . S
C291 C292 1.355 . S
C291 C293 1.412 1_455 S
C292 C291 1.355 . S
C292 C294 1.419 . S
C293 C288 1.425 . S
C293 C290 1.412 . S
C293 C291 1.412 1_655 S
C294 H284 0.930 . S
C294 C292 1.419 . S
C294 C295 1.362 . S
C295 H285 0.930 . S
C295 C288 1.409 1_455 S
C295 C294 1.362 . S
H296 C302 0.930 . S
H297 C305 0.930 . S
H298 C306 0.930 . S
H299 C307 0.930 . S
H300 C310 0.930 . S
H301 C311 0.930 . S
C302 H296 0.930 . S
C302 C303 1.355 . S
C302 C304 1.415 . S
C303 C302 1.355 . S
C303 C305 1.419 1_655 S
C304 C302 1.415 . S
C304 C309 1.425 1_655 S
C304 C311 1.409 . S
C305 H297 0.930 . S
C305 C303 1.419 1_455 S
C305 C306 1.362 . S
C306 H298 0.930 . S
C306 C305 1.362 . S
C306 C309 1.409 . S
C307 H299 0.930 . S
C307 C308 1.355 . S
C307 C309 1.415 . S
C308 C307 1.355 . S
C308 C310 1.419 1_455 S
C309 C304 1.425 1_455 S
C309 C306 1.409 . S
C309 C307 1.415 . S
C310 H300 0.930 . S
C310 C308 1.419 1_655 S
C310 C311 1.362 . S
C311 H301 0.930 . S
C311 C304 1.409 . S
C311 C310 1.362 . S
H312 C318 0.930 . S
H313 C321 0.930 . S
H314 C322 0.930 . S
H315 C323 0.930 . S
H316 C326 0.930 . S
H317 C327 0.930 . S
C318 H312 0.930 . S
C318 C319 1.355 . S
C318 C320 1.415 . S
C319 C318 1.355 . S
C319 C321 1.419 1_455 S
C320 C318 1.415 . S
C320 C325 1.425 1_455 S
C320 C327 1.409 . S
C321 H313 0.930 . S
C321 C319 1.419 1_655 S
C321 C322 1.362 . S
C322 H314 0.930 . S
C322 C321 1.362 . S
C322 C325 1.409 . S
C323 H315 0.930 . S
C323 C324 1.355 . S
C323 C325 1.415 . S
C324 C323 1.355 . S
C324 C326 1.419 1_655 S
C325 C320 1.425 1_655 S
C325 C322 1.409 . S
C325 C323 1.415 . S
C326 H316 0.930 . S
C326 C324 1.419 1_455 S
C326 C327 1.362 . S
C327 H317 0.930 . S
C327 C320 1.409 . S
C327 C326 1.362 . S
C143 C47 1.651 1_554 S
C148 C4 1.651 1_556 S
C159 C72 1.618 . S
C164 C115 1.618 . S
C175 C13 1.651 1_554 S
C180 C38 1.651 1_556 S
C191 C106 1.612 . S
C196 C81 1.612 . S
C207 C131 1.061 . S
C212 C17 1.078 . S
C223 C63 1.061 . S
C228 C85 1.078 . S
C239 C42 1.101 . S
C244 C68 1.110 . S
C255 C110 1.075 . S
C260 C0 1.063 . S
C271 C51 1.076 . S
C276 C97 1.074 . S
C287 C119 1.079 . S
C292 C29 1.081 . S
C303 C102 1.105 . S
C308 C8 1.096 . S
C319 C76 1.106 . S
C324 C34 1.103 . S
