# Generated by pormake.
# Topology vme, (6)-cn, num edge types: 1
# Building blocks:
#     Node 0, Type 0, BuildingBlock: MIDCAF_clean_sbu_0, # of connection points: 6
#     Node 1, Type 0, BuildingBlock: MIDCAF_clean_sbu_0, # of connection points: 6
#     Node 2, Type 0, BuildingBlock: MIDCAF_clean_sbu_0, # of connection points: 6
#     Node 3, Type 0, BuildingBlock: MIDCAF_clean_sbu_0, # of connection points: 6
#     Edge 4, Type (0, 0), BuildingBlock: TEMPAE_clean_linker_10, # of connection points: 2
#     Edge 5, Type (0, 0), BuildingBlock: TEMPAE_clean_linker_10, # of connection points: 2
#     Edge 6, Type (0, 0), BuildingBlock: TEMPAE_clean_linker_10, # of connection points: 2
#     Edge 7, Type (0, 0), BuildingBlock: TEMPAE_clean_linker_10, # of connection points: 2
#     Edge 8, Type (0, 0), BuildingBlock: TEMPAE_clean_linker_10, # of connection points: 2
#     Edge 9, Type (0, 0), BuildingBlock: TEMPAE_clean_linker_10, # of connection points: 2
#     Edge 10, Type (0, 0), BuildingBlock: TEMPAE_clean_linker_10, # of connection points: 2
#     Edge 11, Type (0, 0), BuildingBlock: TEMPAE_clean_linker_10, # of connection points: 2
#     Edge 12, Type (0, 0), BuildingBlock: TEMPAE_clean_linker_10, # of connection points: 2
#     Edge 13, Type (0, 0), BuildingBlock: TEMPAE_clean_linker_10, # of connection points: 2
#     Edge 14, Type (0, 0), BuildingBlock: TEMPAE_clean_linker_10, # of connection points: 2
#     Edge 15, Type (0, 0), BuildingBlock: TEMPAE_clean_linker_10, # of connection points: 2
# Relax obj value: 0.251
# Max RMSD: 0.207
# Mean RMSD: 0.207
data_MOF--net-vme--node1-MIDCAF_clean_sbu_0--edge1-TEMPAE_clean_linker_10
_symmetry_space_group_name_H-M    P1
_symmetry_Int_Tables_number       1
_symmetry_cell_setting            triclinic
loop_
_symmetry_equiv_pos_as_xyz
'x, y, z'
_cell_length_a     23.860615
_cell_length_b     25.709707
_cell_length_c     27.134482
_cell_angle_alpha  90.729011
_cell_angle_beta   105.39028
_cell_angle_gamma 90.117752
loop_
_atom_site_label
_atom_site_type_symbol
_atom_site_fract_x
_atom_site_fract_y
_atom_site_fract_z
_atom_type_partial_charge
Zn0 Zn 0.2494 0.4507 0.28871 0.0
Zn1 Zn 0.10885 0.36685 0.34401 0.0
Zn2 Zn 0.18897 0.3927 0.32613 0.0
C3 C 0.19943 0.32583 0.4185 0.0
C4 C 0.10054 0.31517 0.26325 0.0
O5 O 0.13065 0.45216 0.29698 0.0
O6 O 0.18418 0.50364 0.26393 0.0
C7 C 0.3024 0.43789 0.39672 0.0
O8 O 0.21936 0.36856 0.40523 0.0
O9 O 0.1516 0.30831 0.39071 0.0
O10 O 0.06728 0.35033 0.27187 0.0
O11 O 0.15509 0.31854 0.2863 0.0
O12 O 0.30779 0.46071 0.35717 0.0
O13 O 0.25772 0.40921 0.39509 0.0
O14 O 0.2174 0.33648 0.27862 0.0
O15 O 0.26765 0.39179 0.2453 0.0
C16 C 0.25051 0.34576 0.24947 0.0
O17 O 0.19299 0.42388 0.40447 0.0
O18 O 0.09767 0.43154 0.38163 0.0
C19 C 0.13674 0.49405 0.27475 0.0
C20 C 0.14626 0.44409 0.41157 0.0
Zn21 Zn 0.86996 0.78637 0.05336 0.0
Zn22 Zn 0.76197 0.93544 0.21018 0.0
Zn23 Zn 0.79819 0.88814 0.13895 0.0
C24 C 0.7902 0.83267 0.24067 0.0
C25 C 0.67127 0.93314 0.11659 0.0
O26 O 0.86763 0.93329 0.1191 0.0
O27 O 0.86715 0.85612 0.08894 0.0
C28 C 0.86283 0.76349 0.15974 0.0
O29 O 0.80683 0.83214 0.19944 0.0
O30 O 0.76815 0.8731 0.25447 0.0
O31 O 0.68408 0.95039 0.1621 0.0
O32 O 0.70816 0.90641 0.10003 0.0
O33 O 0.87632 0.74914 0.11895 0.0
O34 O 0.83868 0.80789 0.16562 0.0
O35 O 0.72868 0.87183 0.0672 0.0
O36 O 0.80772 0.83294 0.06692 0.0
C37 C 0.75452 0.8388 0.04571 0.0
O38 O 0.85042 0.96042 0.15777 0.0
O39 O 0.82396 0.99121 0.2246 0.0
C40 C 0.88764 0.90168 0.09168 0.0
C41 C 0.85522 0.99473 0.19368 0.0
Zn42 Zn 0.73403 0.53432 0.73151 0.0
Zn43 Zn 0.85003 0.73133 0.55556 0.0
Zn44 Zn 0.79163 0.61468 0.63958 0.0
C45 C 0.74822 0.66421 0.54106 0.0
C46 C 0.83653 0.71988 0.66429 0.0
O47 O 0.83811 0.54372 0.66519 0.0
O48 O 0.80923 0.5022 0.72647 0.0
C49 C 0.67597 0.56656 0.61307 0.0
O50 O 0.73441 0.62265 0.56041 0.0
O51 O 0.78061 0.69573 0.57211 0.0
O52 O 0.81972 0.71251 0.61642 0.0
O53 O 0.81945 0.68508 0.69029 0.0
O54 O 0.69843 0.55415 0.65877 0.0
O55 O 0.70588 0.59493 0.59117 0.0
O56 O 0.77652 0.65681 0.70538 0.0
O57 O 0.7024 0.60738 0.70968 0.0
C58 C 0.7339 0.64714 0.72466 0.0
O59 O 0.86815 0.61481 0.6075 0.0
O60 O 0.90748 0.67135 0.56233 0.0
C61 C 0.84284 0.50664 0.69734 0.0
C62 C 0.9074 0.62785 0.58501 0.0
Zn63 Zn 0.12566 0.15976 0.87932 0.0
Zn64 Zn 0.22864 0.05852 0.77853 0.0
Zn65 Zn 0.18372 0.1167 0.83247 0.0
C66 C 0.22805 0.15944 0.74157 0.0
C67 C 0.3017 0.05831 0.87733 0.0
O68 O 0.10915 0.06986 0.84102 0.0
O69 O 0.04945 0.1254 0.86283 0.0
C70 C 0.13234 0.23269 0.81168 0.0
O71 O 0.1932 0.16653 0.77003 0.0
O72 O 0.2515 0.1157 0.74013 0.0
O73 O 0.28917 0.03237 0.8361 0.0
O74 O 0.2703 0.09753 0.88279 0.0
O75 O 0.12496 0.23109 0.85588 0.0
O76 O 0.15231 0.19231 0.79321 0.0
O77 O 0.24191 0.13379 0.90978 0.0
O78 O 0.17355 0.14781 0.94908 0.0
C79 C 0.22665 0.14347 0.95105 0.0
O80 O 0.13347 0.04311 0.80604 0.0
O81 O 0.16857 0.0063 0.74656 0.0
C82 C 0.06102 0.07948 0.85245 0.0
C83 C 0.13173 0.00676 0.7724 0.0
C84 C 0.91626 0.05507 0.15729 0.0
C85 C 0.89676 0.03874 0.19902 0.0
C86 C 0.95428 0.09776 0.16174 0.0
C87 C 0.97277 0.12505 0.20892 0.0
C88 C 0.95301 0.10885 0.25116 0.0
C89 C 0.91547 0.06583 0.24574 0.0
C90 C 0.97392 0.11424 0.1158 0.0
C91 C 0.96995 0.138 0.30168 0.0
C92 C 0.10112 0.21865 0.24715 0.0
C93 C 0.07289 0.26672 0.23779 0.0
C94 C 0.06976 0.17177 0.23414 0.0
C95 C 0.00864 0.17323 0.2133 0.0
C96 C 0.9807 0.22163 0.20109 0.0
C97 C 0.01339 0.26757 0.21236 0.0
C98 C 0.1014 0.12079 0.24567 0.0
C99 C 0.91548 0.22531 0.18021 0.0
H100 H 0.90041 0.03548 0.12067 0.0
H101 H 0.90032 0.05365 0.27811 0.0
H102 H 0.96409 0.15584 0.10752 0.0
H103 H 0.02177 0.11002 0.12406 0.0
H104 H 0.95268 0.09097 0.08111 0.0
H105 H 0.9512 0.12012 0.33085 0.0
H106 H 0.01793 0.13914 0.31668 0.0
H107 H 0.95482 0.17884 0.29618 0.0
H108 H 0.14687 0.21749 0.26728 0.0
H109 H 0.9912 0.30455 0.20468 0.0
H110 H 0.08662 0.09311 0.21304 0.0
H111 H 0.09148 0.10305 0.27947 0.0
H112 H 0.14925 0.12595 0.25386 0.0
H113 H 0.89993 0.19961 0.1462 0.0
H114 H 0.90107 0.26564 0.16946 0.0
H115 H 0.89413 0.21204 0.20957 0.0
C116 C 0.07862 0.56527 0.22445 0.0
C117 C 0.09103 0.53365 0.26738 0.0
C118 C 0.03557 0.60351 0.2181 0.0
C119 C 0.00579 0.6111 0.25652 0.0
C120 C 0.01918 0.57995 0.30047 0.0
C121 C 0.06127 0.54119 0.30506 0.0
C122 C 0.02171 0.63553 0.17011 0.0
C123 C 0.98992 0.58807 0.34295 0.0
C124 C 0.93656 0.7427 0.23821 0.0
C125 C 0.88385 0.72946 0.20323 0.0
C126 C 0.9752 0.70371 0.26146 0.0
C127 C 0.95976 0.651 0.2493 0.0
C128 C 0.9026 0.63794 0.22082 0.0
C129 C 0.86514 0.67767 0.19781 0.0
C130 C 0.03524 0.71911 0.29288 0.0
C131 C 0.88386 0.58216 0.20825 0.0
H132 H 0.10191 0.55951 0.19552 0.0
H133 H 0.07195 0.51769 0.33893 0.0
H134 H 0.975 0.63121 0.14966 0.0
H135 H 0.02993 0.67732 0.18017 0.0
H136 H 0.04801 0.62394 0.14361 0.0
H137 H 0.00321 0.62632 0.36187 0.0
H138 H 0.94197 0.58868 0.32754 0.0
H139 H 0.00157 0.55738 0.37225 0.0
H140 H 0.95086 0.78299 0.24204 0.0
H141 H 0.82418 0.66783 0.17054 0.0
H142 H 0.0661 0.71609 0.26875 0.0
H143 H 0.05063 0.69274 0.32569 0.0
H144 H 0.03638 0.75978 0.30748 0.0
H145 H 0.90289 0.56743 0.17765 0.0
H146 H 0.8358 0.57843 0.19457 0.0
H147 H 0.89963 0.55709 0.24201 0.0
C148 C 0.03002 0.97431 0.76009 0.0
C149 C 0.08889 0.96404 0.76555 0.0
C150 C 0.98887 0.93372 0.75098 0.0
C151 C 0.00715 0.88178 0.74681 0.0
C152 C 0.06707 0.87116 0.75467 0.0
C153 C 0.10714 0.91251 0.76347 0.0
C154 C 0.92553 0.94664 0.7435 0.0
C155 C 0.08861 0.81642 0.75127 0.0
C156 C 0.90138 0.76821 0.73998 0.0
C157 C 0.87936 0.76152 0.68695 0.0
C158 C 0.94223 0.80785 0.76036 0.0
C159 C 0.9632 0.83999 0.727 0.0
C160 C 0.94191 0.83263 0.67363 0.0
C161 C 0.89936 0.79469 0.65448 0.0
C162 C 0.9633 0.81498 0.81745 0.0
C163 C 0.96427 0.86473 0.63647 0.0
H164 H 0.01586 0.01424 0.761 0.0
H165 H 0.1529 0.90462 0.76827 0.0
H166 H 0.9017 0.94012 0.70282 0.0
H167 H 0.90587 0.92069 0.7668 0.0
H168 H 0.91925 0.9877 0.75405 0.0
H169 H 0.1367 0.81396 0.7652 0.0
H170 H 0.06904 0.78963 0.77387 0.0
H171 H 0.07521 0.80263 0.71091 0.0
H172 H 0.88676 0.74268 0.76555 0.0
H173 H 0.8821 0.79128 0.61368 0.0
H174 H 0.96686 0.85694 0.82777 0.0
H175 H 0.00726 0.79796 0.8313 0.0
H176 H 0.93398 0.79574 0.83743 0.0
H177 H 0.95448 0.90642 0.64087 0.0
H178 H 0.94483 0.85266 0.59606 0.0
H179 H 0.0122 0.86108 0.64478 0.0
C180 C 0.9378 0.47563 0.68468 0.0
C181 C 0.88838 0.46664 0.70192 0.0
C182 C 0.98331 0.43938 0.69374 0.0
C183 C 0.97904 0.3931 0.72033 0.0
C184 C 0.92792 0.38279 0.73568 0.0
C185 C 0.88329 0.41956 0.7262 0.0
C186 C 0.03695 0.45224 0.67709 0.0
C187 C 0.92143 0.33412 0.76445 0.0
C188 C 0.07014 0.27129 0.73176 0.0
C189 C 0.10769 0.27818 0.78079 0.0
C190 C 0.03229 0.31116 0.70873 0.0
C191 C 0.02943 0.35744 0.73682 0.0
C192 C 0.06972 0.36578 0.78495 0.0
C193 C 0.10901 0.3264 0.80587 0.0
C194 C 0.99221 0.30207 0.65611 0.0
C195 C 0.06734 0.41391 0.81683 0.0
H196 H 0.94197 0.5118 0.66582 0.0
H197 H 0.84473 0.41176 0.73894 0.0
H198 H 0.06844 0.47318 0.70858 0.0
H199 H 0.05819 0.41662 0.6675 0.0
H200 H 0.02627 0.47811 0.64357 0.0
H201 H 0.87812 0.33125 0.77225 0.0
H202 H 0.92777 0.29905 0.74237 0.0
H203 H 0.9553 0.33365 0.80148 0.0
H204 H 0.0674 0.23361 0.71284 0.0
H205 H 0.13735 0.33157 0.84414 0.0
H206 H 0.98786 0.33804 0.6332 0.0
H207 H 0.94834 0.29123 0.65942 0.0
H208 H 0.00811 0.27024 0.63532 0.0
H209 H 0.06587 0.44943 0.7938 0.0
H210 H 0.10518 0.41688 0.85099 0.0
H211 H 0.02705 0.41296 0.82993 0.0
C212 C 0.93485 0.55556 0.53624 0.0
C213 C 0.95003 0.58945 0.57833 0.0
C214 C 0.9777 0.52829 0.52005 0.0
C215 C 0.03699 0.53505 0.54701 0.0
C216 C 0.0518 0.56589 0.59221 0.0
C217 C 0.00804 0.59362 0.60694 0.0
C218 C 0.95979 0.49507 0.47208 0.0
C219 C 0.11395 0.57111 0.6237 0.0
C220 C 0.13323 0.44207 0.49772 0.0
C221 C 0.14459 0.47163 0.45852 0.0
C222 C 0.10152 0.4631 0.5299 0.0
C223 C 0.08281 0.51544 0.52361 0.0
C224 C 0.10058 0.54702 0.48793 0.0
C225 C 0.13106 0.52451 0.45551 0.0
C226 C 0.08432 0.42791 0.56747 0.0
C227 C 0.08154 0.60296 0.4798 0.0
H228 H 0.88984 0.55317 0.51391 0.0
H229 H 0.0194 0.62024 0.63943 0.0
H230 H 0.97834 0.51152 0.44222 0.0
H231 H 0.97723 0.45517 0.4799 0.0
H232 H 0.91181 0.4925 0.4567 0.0
H233 H 0.11736 0.5912 0.66089 0.0
H234 H 0.13398 0.53207 0.63108 0.0
H235 H 0.13936 0.59347 0.60227 0.0
H236 H 0.14308 0.40084 0.49927 0.0
H237 H 0.13905 0.54692 0.42444 0.0
H238 H 0.0385 0.43405 0.56794 0.0
H239 H 0.11266 0.43663 0.60623 0.0
H240 H 0.08936 0.38623 0.55847 0.0
H241 H 0.0336 0.60449 0.46432 0.0
H242 H 0.10185 0.62296 0.45276 0.0
H243 H 0.09281 0.62471 0.5167 0.0
C244 C 0.95861 0.95967 0.06497 0.0
C245 C 0.91933 0.91802 0.05494 0.0
C246 C 0.98375 0.97716 0.02683 0.0
C247 C 0.96789 0.95295 0.97783 0.0
C248 C 0.93104 0.90911 0.96883 0.0
C249 C 0.90718 0.89212 0.00745 0.0
C250 C 0.02597 0.02226 0.03835 0.0
C251 C 0.9161 0.88074 0.91812 0.0
C252 C 0.97304 0.04663 0.87386 0.0
C253 C 0.02868 0.03708 0.8682 0.0
C254 C 0.95075 0.01663 0.90694 0.0
C255 C 0.98529 0.97658 0.93478 0.0
C256 C 0.03823 0.96266 0.92421 0.0
C257 C 0.05916 0.993 0.89047 0.0
C258 C 0.89273 0.03096 0.91562 0.0
C259 C 0.07623 0.91984 0.95247 0.0
H260 H 0.96958 0.97842 0.10227 0.0
H261 H 0.87687 0.85971 -0.00055 0.0
H262 H 0.06435 0.0141 0.02377 0.0
H263 H 0.00458 0.05741 0.01866 0.0
H264 H 0.04136 0.03068 0.08 0.0
H265 H 0.88996 0.84524 0.9186 0.0
H266 H 0.89187 0.90667 0.88744 0.0
H267 H 0.95675 0.86912 0.90884 0.0
H268 H 0.94916 0.0803 0.85592 0.0
H269 H 0.10223 0.98532 0.88602 0.0
H270 H 0.89963 0.04857 0.95435 0.0
H271 H 0.86529 0.99572 0.91377 0.0
H272 H 0.86876 0.05919 0.88708 0.0
H273 H 0.10524 0.93626 0.98826 0.0
H274 H 0.10407 0.90325 0.9293 0.0
H275 H 0.05045 0.88799 0.96304 0.0
C276 C 0.29279 0.13819 0.03899 0.0
C277 C 0.26664 0.16748 -0.00402 0.0
C278 C 0.30823 0.16182 0.08791 0.0
C279 C 0.29324 0.21456 0.09341 0.0
C280 C 0.27169 0.24494 0.04929 0.0
C281 C 0.26064 0.22122 0.00109 0.0
C282 C 0.3358 0.12914 0.13357 0.0
C283 C 0.25315 0.30082 0.05275 0.0
C284 C 0.22761 0.26467 0.19646 0.0
C285 C 0.2671 0.30412 0.21824 0.0
C286 C 0.23849 0.23091 0.15908 0.0
C287 C 0.29054 0.23662 0.14367 0.0
C288 C 0.33338 0.27263 0.1698 0.0
C289 C 0.32073 0.30666 0.20621 0.0
C290 C 0.19154 0.19283 0.13256 0.0
C291 C 0.39067 0.27796 0.15658 0.0
H292 H 0.29721 0.0965 0.03495 0.0
H293 H 0.23972 0.24348 0.96752 0.0
H294 H 0.36297 0.15311 0.16536 0.0
H295 H 0.30133 0.10985 0.14738 0.0
H296 H 0.3632 0.09821 0.1231 0.0
H297 H 0.23815 0.31904 0.01462 0.0
H298 H 0.21703 0.30248 0.07143 0.0
H299 H 0.28952 0.32448 0.07638 0.0
H300 H 0.18619 0.26293 0.20548 0.0
H301 H 0.35201 0.33654 0.22392 0.0
H302 H 0.21014 0.15364 0.13066 0.0
H303 H 0.1721 0.20549 0.09273 0.0
H304 H 0.15637 0.1898 0.15227 0.0
H305 H 0.40703 0.23932 0.14829 0.0
H306 H 0.424 0.29729 0.18801 0.0
H307 H 0.3848 0.30185 0.12185 0.0
C308 C 0.7373 0.75691 0.2609 0.0
C309 C 0.78944 0.78486 0.26936 0.0
C310 C 0.72848 0.7217 0.29724 0.0
C311 C 0.77274 0.71515 0.34317 0.0
C312 C 0.82814 0.73826 0.34839 0.0
C313 C 0.83564 0.77353 0.31151 0.0
C314 C 0.66932 0.69695 0.28927 0.0
C315 C 0.87721 0.73113 0.39594 0.0
C316 C 0.72987 0.72194 0.46736 0.0
C317 C 0.74123 0.67151 0.48601 0.0
C318 C 0.73722 0.73556 0.41978 0.0
C319 C 0.75684 0.69771 0.38988 0.0
C320 C 0.76478 0.64563 0.40696 0.0
C321 C 0.75698 0.63305 0.45522 0.0
C322 C 0.72744 0.7915 0.40313 0.0
C323 C 0.78477 0.60405 0.37587 0.0
H324 H 0.70167 0.76583 0.22796 0.0
H325 H 0.87599 0.79523 0.3177 0.0
H326 H 0.67271 0.65751 0.30589 0.0
H327 H 0.64284 0.72113 0.30866 0.0
H328 H 0.64603 0.69416 0.24802 0.0
H329 H 0.9198 0.74227 0.38968 0.0
H330 H 0.86946 0.75599 0.42721 0.0
H331 H 0.87948 0.69021 0.4087 0.0
H332 H 0.71809 0.75167 0.49148 0.0
H333 H 0.76685 0.59424 0.47012 0.0
H334 H 0.69644 0.79337 0.36467 0.0
H335 H 0.76904 0.80916 0.40057 0.0
H336 H 0.71004 0.81547 0.43001 0.0
H337 H 0.76207 0.60739 0.33467 0.0
H338 H 0.77729 0.56442 0.38878 0.0
H339 H 0.83199 0.60887 0.37992 0.0
C340 C 0.75267 0.75935 -0.00576 0.0
C341 C 0.72818 0.80807 -0.00101 0.0
C342 C 0.74472 0.73482 0.94673 0.0
C343 C 0.70783 0.7578 0.90302 0.0
C344 C 0.67691 0.80371 0.90851 0.0
C345 C 0.68831 0.82913 0.95661 0.0
C346 C 0.77981 0.68667 0.943 0.0
C347 C 0.63443 0.82741 0.86319 0.0
C348 C 0.75447 0.72513 0.7833 0.0
C349 C 0.72205 0.67998 0.76601 0.0
C350 C 0.7475 0.75293 0.8261 0.0
C351 C 0.70644 0.73561 0.85178 0.0
C352 C 0.67093 0.69197 0.83249 0.0
C353 C 0.67939 0.66451 0.79009 0.0
C354 C 0.78713 0.79854 0.84614 0.0
C355 C 0.62633 0.67232 0.8583 0.0
H356 H 0.78158 0.7419 0.02753 0.0
H357 H 0.66881 0.86653 0.9603 0.0
H358 H 0.7508 0.65422 0.92463 0.0
H359 H 0.80967 0.69465 0.91879 0.0
H360 H 0.80621 0.67369 0.98097 0.0
H361 H 0.60608 0.85648 0.87516 0.0
H362 H 0.65861 0.84708 0.83895 0.0
H363 H 0.60671 0.79679 0.83938 0.0
H364 H 0.78663 0.73791 0.76447 0.0
H365 H 0.65362 0.6298 0.7769 0.0
H366 H 0.81432 0.78944 0.88494 0.0
H367 H 0.76123 0.8335 0.84957 0.0
H368 H 0.81611 0.80778 0.82141 0.0
H369 H 0.64841 0.65037 0.8929 0.0
H370 H 0.59412 0.64591 0.83278 0.0
H371 H 0.60291 0.70515 0.87066 0.0
C372 C 0.19967 0.23902 0.68906 0.0
C373 C 0.24034 0.20047 0.70839 0.0
C374 C 0.20514 0.27003 0.64853 0.0
C375 C 0.25228 0.26155 0.62694 0.0
C376 C 0.29775 0.22803 0.65119 0.0
C377 C 0.29106 0.19751 0.69157 0.0
C378 C 0.15736 0.30769 0.62536 0.0
C379 C 0.35026 0.2201 0.63096 0.0
C380 C 0.20443 0.25746 0.48296 0.0
C381 C 0.22213 0.3063 0.47066 0.0
C382 C 0.21628 0.24193 0.53381 0.0
C383 C 0.2463 0.27636 0.5733 0.0
C384 C 0.26731 0.32462 0.56097 0.0
C385 C 0.2551 0.33899 0.50954 0.0
C386 C 0.19413 0.18953 0.54529 0.0
C387 C 0.29938 0.36263 0.6016 0.0
H388 H 0.16138 0.24198 0.70257 0.0
H389 H 0.324 0.169 0.70784 0.0
H390 H 0.176 0.34427 0.61514 0.0
H391 H 0.12886 0.29036 0.58978 0.0
H392 H 0.13024 0.31711 0.65179 0.0
H393 H 0.38667 0.20205 0.65986 0.0
H394 H 0.33837 0.19404 0.5968 0.0
H395 H 0.36539 0.25759 0.61909 0.0
H396 H 0.17938 0.23206 0.45287 0.0
H397 H 0.26863 0.37709 0.50023 0.0
H398 H 0.16131 0.19496 0.56721 0.0
H399 H 0.2303 0.16648 0.56916 0.0
H400 H 0.17382 0.16666 0.51003 0.0
H401 H 0.26733 0.3881 0.61299 0.0
H402 H 0.32897 0.38795 0.5869 0.0
H403 H 0.32505 0.34264 0.63623 0.0
C404 C 0.34795 0.48618 0.47656 0.0
C405 C 0.34902 0.44421 0.44361 0.0
C406 C 0.39926 0.50325 0.51167 0.0
C407 C 0.4522 0.47784 0.51283 0.0
C408 C 0.45204 0.43226 0.48301 0.0
C409 C 0.40018 0.41612 0.44836 0.0
C410 C 0.39768 0.55126 0.54384 0.0
C411 C 0.50743 0.40347 0.48398 0.0
C412 C 0.58977 0.55916 0.53687 0.0
C413 C 0.61779 0.54608 0.58718 0.0
C414 C 0.53505 0.53788 0.51261 0.0
C415 C 0.50831 0.50266 0.53937 0.0
C416 C 0.53622 0.48981 0.59033 0.0
C417 C 0.59049 0.51183 0.61365 0.0
C418 C 0.5062 0.55244 0.45805 0.0
C419 C 0.50932 0.45226 0.61999 0.0
H420 H 0.30807 0.50795 0.47218 0.0
H421 H 0.40053 0.38389 0.42225 0.0
H422 H 0.42467 0.54604 0.58356 0.0
H423 H 0.41601 0.5847 0.52771 0.0
H424 H 0.35267 0.56106 0.54485 0.0
H425 H 0.49863 0.36482 0.46464 0.0
H426 H 0.53389 0.42676 0.46421 0.0
H427 H 0.53384 0.39789 0.52385 0.0
H428 H 0.61067 0.58564 0.51641 0.0
H429 H 0.61188 0.5015 0.65272 0.0
H430 H 0.46246 0.56872 0.45529 0.0
H431 H 0.5002 0.51721 0.43312 0.0
H432 H 0.53195 0.58146 0.44319 0.0
H433 H 0.46637 0.4668 0.62234 0.0
H434 H 0.53706 0.44637 0.65943 0.0
H435 H 0.50184 0.41398 0.59994 0.0
C436 C 0.38369 0.07449 0.95627 0.0
C437 C 0.35166 0.04062 0.91835 0.0
C438 C 0.43493 0.05744 -0.0088 0.0
C439 C 0.45365 0.00541 0.98807 0.0
C440 C 0.41966 0.9706 0.95145 0.0
C441 C 0.36934 0.98866 0.91707 0.0
C442 C 0.47019 0.09554 0.02998 0.0
C443 C 0.43718 0.91451 0.94757 0.0
C444 C 0.61239 0.96751 0.03392 0.0
C445 C 0.61501 0.94759 0.08219 0.0
C446 C 0.56048 0.9883 0.00364 0.0
C447 C 0.50977 0.98722 0.02147 0.0
C448 C 0.5119 0.96537 0.06953 0.0
C449 C 0.56493 0.94677 0.09982 0.0
C450 C 0.56002 0.01195 0.95287 0.0
C451 C 0.45817 0.96126 0.08871 0.0
H452 H 0.37005 0.11458 0.95737 0.0
H453 H 0.3441 0.96193 0.88842 0.0
H454 H 0.47957 0.07921 0.06893 0.0
H455 H 0.51257 0.10267 0.02154 0.0
H456 H 0.44763 0.13333 0.02986 0.0
H457 H 0.40347 0.8916 0.91954 0.0
H458 H 0.47816 0.91275 0.93565 0.0
H459 H 0.44544 0.89572 0.98538 0.0
H460 H 0.65153 0.9688 0.0208 0.0
H461 H 0.56729 0.93132 0.13732 0.0
H462 H 0.54348 0.05238 0.95127 0.0
H463 H 0.53026 0.98957 0.92135 0.0
H464 H 0.6039 0.01256 0.94602 0.0
H465 H 0.44062 0.00058 0.09253 0.0
H466 H 0.46694 0.94178 0.12628 0.0
H467 H 0.42383 0.939 0.06074 0.0
loop_
_geom_bond_atom_site_label_1
_geom_bond_atom_site_label_2
_geom_bond_distance
_geom_bond_site_symmetry_2
_ccdc_geom_bond_type
Zn0 O6 1.920 . S
Zn0 O12 1.898 . S
Zn0 O15 1.905 . S
Zn1 O9 1.905 . S
Zn1 O10 1.898 . S
Zn1 O18 1.920 . S
Zn2 O5 2.080 . S
Zn2 O8 2.114 . S
Zn2 O11 2.120 . S
Zn2 O13 2.120 . S
Zn2 O14 2.114 . S
Zn2 O17 2.080 . S
C3 O8 1.166 . S
C3 O9 1.182 . S
C4 O10 1.167 . S
C4 O11 1.299 . S
O5 Zn2 2.080 . S
O5 C19 1.305 . S
O6 Zn0 1.920 . S
O6 C19 1.234 . S
C7 O12 1.167 . S
C7 O13 1.299 . S
O8 Zn2 2.114 . S
O8 C3 1.166 . S
O9 Zn1 1.905 . S
O9 C3 1.182 . S
O10 Zn1 1.898 . S
O10 C4 1.167 . S
O11 Zn2 2.120 . S
O11 C4 1.299 . S
O12 Zn0 1.898 . S
O12 C7 1.167 . S
O13 Zn2 2.120 . S
O13 C7 1.299 . S
O14 Zn2 2.114 . S
O14 C16 1.166 . S
O15 Zn0 1.905 . S
O15 C16 1.182 . S
C16 O14 1.166 . S
C16 O15 1.182 . S
O17 Zn2 2.080 . S
O17 C20 1.305 . S
O18 Zn1 1.920 . S
O18 C20 1.234 . S
C19 O5 1.305 . S
C19 O6 1.234 . S
C20 O17 1.305 . S
C20 O18 1.234 . S
Zn21 O27 1.920 . S
Zn21 O33 1.898 . S
Zn21 O36 1.905 . S
Zn22 O30 1.905 . S
Zn22 O31 1.898 . S
Zn22 O39 1.920 1_565 S
Zn23 O26 2.080 . S
Zn23 O29 2.114 . S
Zn23 O32 2.120 . S
Zn23 O34 2.120 . S
Zn23 O35 2.114 . S
Zn23 O38 2.080 . S
C24 O29 1.166 . S
C24 O30 1.182 . S
C25 O31 1.167 . S
C25 O32 1.299 . S
O26 Zn23 2.080 . S
O26 C40 1.305 . S
O27 Zn21 1.920 . S
O27 C40 1.234 . S
C28 O33 1.167 . S
C28 O34 1.299 . S
O29 Zn23 2.114 . S
O29 C24 1.166 . S
O30 Zn22 1.905 . S
O30 C24 1.182 . S
O31 Zn22 1.898 . S
O31 C25 1.167 . S
O32 Zn23 2.120 . S
O32 C25 1.299 . S
O33 Zn21 1.898 . S
O33 C28 1.167 . S
O34 Zn23 2.120 . S
O34 C28 1.299 . S
O35 Zn23 2.114 . S
O35 C37 1.166 . S
O36 Zn21 1.905 . S
O36 C37 1.182 . S
C37 O35 1.166 . S
C37 O36 1.182 . S
O38 Zn23 2.080 . S
O38 C41 1.305 . S
O39 Zn22 1.920 1_545 S
O39 C41 1.234 1_545 S
C40 O26 1.305 . S
C40 O27 1.234 . S
C41 O38 1.305 . S
C41 O39 1.234 1_565 S
Zn42 O48 1.920 . S
Zn42 O54 1.898 . S
Zn42 O57 1.905 . S
Zn43 O51 1.905 . S
Zn43 O52 1.898 . S
Zn43 O60 1.920 . S
Zn44 O47 2.080 . S
Zn44 O50 2.114 . S
Zn44 O53 2.120 . S
Zn44 O55 2.120 . S
Zn44 O56 2.114 . S
Zn44 O59 2.080 . S
C45 O50 1.166 . S
C45 O51 1.182 . S
C46 O52 1.167 . S
C46 O53 1.299 . S
O47 Zn44 2.080 . S
O47 C61 1.305 . S
O48 Zn42 1.920 . S
O48 C61 1.234 . S
C49 O54 1.167 . S
C49 O55 1.299 . S
O50 Zn44 2.114 . S
O50 C45 1.166 . S
O51 Zn43 1.905 . S
O51 C45 1.182 . S
O52 Zn43 1.898 . S
O52 C46 1.167 . S
O53 Zn44 2.120 . S
O53 C46 1.299 . S
O54 Zn42 1.898 . S
O54 C49 1.167 . S
O55 Zn44 2.120 . S
O55 C49 1.299 . S
O56 Zn44 2.114 . S
O56 C58 1.166 . S
O57 Zn42 1.905 . S
O57 C58 1.182 . S
C58 O56 1.166 . S
C58 O57 1.182 . S
O59 Zn44 2.080 . S
O59 C62 1.305 . S
O60 Zn43 1.920 . S
O60 C62 1.234 . S
C61 O47 1.305 . S
C61 O48 1.234 . S
C62 O59 1.305 . S
C62 O60 1.234 . S
Zn63 O69 1.920 . S
Zn63 O75 1.898 . S
Zn63 O78 1.905 . S
Zn64 O72 1.905 . S
Zn64 O73 1.898 . S
Zn64 O81 1.920 1_545 S
Zn65 O68 2.080 . S
Zn65 O71 2.114 . S
Zn65 O74 2.120 . S
Zn65 O76 2.120 . S
Zn65 O77 2.114 . S
Zn65 O80 2.080 . S
C66 O71 1.166 . S
C66 O72 1.182 . S
C67 O73 1.167 . S
C67 O74 1.299 . S
O68 Zn65 2.080 . S
O68 C82 1.305 . S
O69 Zn63 1.920 . S
O69 C82 1.234 . S
C70 O75 1.167 . S
C70 O76 1.299 . S
O71 Zn65 2.114 . S
O71 C66 1.166 . S
O72 Zn64 1.905 . S
O72 C66 1.182 . S
O73 Zn64 1.898 . S
O73 C67 1.167 . S
O74 Zn65 2.120 . S
O74 C67 1.299 . S
O75 Zn63 1.898 . S
O75 C70 1.167 . S
O76 Zn65 2.120 . S
O76 C70 1.299 . S
O77 Zn65 2.114 . S
O77 C79 1.166 . S
O78 Zn63 1.905 . S
O78 C79 1.182 . S
C79 O77 1.166 . S
C79 O78 1.182 . S
O80 Zn65 2.080 . S
O80 C83 1.305 . S
O81 Zn64 1.920 1_565 S
O81 C83 1.234 1_565 S
C82 O68 1.305 . S
C82 O69 1.234 . S
C83 O80 1.305 . S
C83 O81 1.234 1_545 S
C84 C85 1.391 . S
C84 C86 1.394 . S
C84 H100 0.931 . S
C85 C84 1.391 . S
C85 C89 1.376 . S
C86 C84 1.394 . S
C86 C87 1.369 . S
C86 C90 1.531 . S
C87 C86 1.369 . S
C87 C88 1.410 . S
C87 C95 1.503 . S
C88 C87 1.410 . S
C88 C89 1.392 . S
C88 C91 1.511 . S
C89 C85 1.376 . S
C89 C88 1.392 . S
C89 H101 0.929 . S
C90 C86 1.531 . S
C90 H102 0.960 . S
C90 H103 0.962 1_655 S
C90 H104 0.960 . S
C91 C88 1.511 . S
C91 H105 0.961 . S
C91 H106 0.961 . S
C91 H107 0.961 . S
C92 C93 1.370 . S
C92 C94 1.363 . S
C92 H108 0.931 . S
C93 C92 1.370 . S
C93 C97 1.408 . S
C94 C92 1.363 . S
C94 C95 1.370 1_455 S
C94 C98 1.524 . S
C95 C87 1.503 . S
C95 C94 1.370 1_655 S
C95 C96 1.403 . S
C96 C95 1.403 . S
C96 C97 1.404 1_655 S
C96 C99 1.539 . S
C97 C93 1.408 . S
C97 C96 1.404 1_455 S
C97 H109 0.930 1_455 S
C98 C94 1.524 . S
C98 H110 0.956 . S
C98 H111 0.961 . S
C98 H112 0.961 . S
C99 C96 1.539 . S
C99 H113 0.958 . S
C99 H114 0.961 . S
C99 H115 0.960 . S
H100 C84 0.931 . S
H101 C89 0.929 . S
H102 C90 0.960 . S
H103 C90 0.962 1_455 S
H104 C90 0.960 . S
H105 C91 0.961 . S
H106 C91 0.961 . S
H107 C91 0.961 . S
H108 C92 0.931 . S
H109 C97 0.930 1_655 S
H110 C98 0.956 . S
H111 C98 0.961 . S
H112 C98 0.961 . S
H113 C99 0.958 . S
H114 C99 0.961 . S
H115 C99 0.960 . S
C116 C117 1.391 . S
C116 C118 1.394 . S
C116 H132 0.931 . S
C117 C116 1.391 . S
C117 C121 1.376 . S
C118 C116 1.394 . S
C118 C119 1.369 . S
C118 C122 1.531 . S
C119 C118 1.369 . S
C119 C120 1.410 . S
C119 C127 1.503 1_455 S
C120 C119 1.410 . S
C120 C121 1.392 . S
C120 C123 1.512 1_455 S
C121 C117 1.376 . S
C121 C120 1.392 . S
C121 H133 0.929 . S
C122 C118 1.531 . S
C122 H134 0.960 . S
C122 H135 0.962 . S
C122 H136 0.960 . S
C123 C120 1.512 1_655 S
C123 H137 0.961 1_655 S
C123 H138 0.961 . S
C123 H139 0.960 . S
C124 C125 1.370 . S
C124 C126 1.363 1_655 S
C124 H140 0.931 1_655 S
C125 C124 1.370 . S
C125 C129 1.408 . S
C126 C124 1.363 1_455 S
C126 C127 1.370 1_455 S
C126 C130 1.524 . S
C127 C119 1.503 1_655 S
C127 C126 1.370 1_655 S
C127 C128 1.403 . S
C128 C127 1.403 . S
C128 C129 1.404 . S
C128 C131 1.539 . S
C129 C125 1.408 . S
C129 C128 1.404 . S
C129 H141 0.930 . S
C130 C126 1.524 . S
C130 H142 0.956 . S
C130 H143 0.961 . S
C130 H144 0.961 . S
C131 C128 1.539 . S
C131 H145 0.958 . S
C131 H146 0.961 . S
C131 H147 0.960 . S
H132 C116 0.931 . S
H133 C121 0.929 . S
H134 C122 0.960 . S
H135 C122 0.962 . S
H136 C122 0.960 . S
H137 C123 0.961 1_455 S
H138 C123 0.961 . S
H139 C123 0.960 . S
H140 C124 0.931 1_455 S
H141 C129 0.930 . S
H142 C130 0.956 . S
H143 C130 0.961 . S
H144 C130 0.961 . S
H145 C131 0.958 . S
H146 C131 0.961 . S
H147 C131 0.960 . S
C148 C149 1.391 . S
C148 C150 1.394 . S
C148 H164 0.931 1_565 S
C149 C148 1.391 . S
C149 C153 1.376 . S
C150 C148 1.394 . S
C150 C151 1.369 . S
C150 C154 1.531 1_455 S
C151 C150 1.369 . S
C151 C152 1.410 . S
C151 C159 1.503 . S
C152 C151 1.410 . S
C152 C153 1.392 . S
C152 C155 1.511 . S
C153 C149 1.376 . S
C153 C152 1.392 . S
C153 H165 0.929 . S
C154 C150 1.531 1_655 S
C154 H166 0.960 . S
C154 H167 0.962 . S
C154 H168 0.960 . S
C155 C152 1.511 . S
C155 H169 0.961 . S
C155 H170 0.961 . S
C155 H171 0.961 . S
C156 C157 1.370 . S
C156 C158 1.363 . S
C156 H172 0.931 . S
C157 C156 1.370 . S
C157 C161 1.408 . S
C158 C156 1.363 . S
C158 C159 1.370 1_655 S
C158 C162 1.524 . S
C159 C151 1.503 . S
C159 C158 1.370 1_455 S
C159 C160 1.403 1_455 S
C160 C159 1.403 1_655 S
C160 C161 1.404 . S
C160 C163 1.539 1_655 S
C161 C157 1.408 . S
C161 C160 1.404 . S
C161 H173 0.930 . S
C162 C158 1.524 . S
C162 H174 0.956 . S
C162 H175 0.961 1_655 S
C162 H176 0.961 . S
C163 C160 1.539 1_455 S
C163 H177 0.958 . S
C163 H178 0.961 . S
C163 H179 0.960 . S
H164 C148 0.931 1_545 S
H165 C153 0.929 . S
H166 C154 0.960 . S
H167 C154 0.962 . S
H168 C154 0.960 . S
H169 C155 0.961 . S
H170 C155 0.961 . S
H171 C155 0.961 . S
H172 C156 0.931 . S
H173 C161 0.930 . S
H174 C162 0.956 . S
H175 C162 0.961 1_455 S
H176 C162 0.961 . S
H177 C163 0.958 . S
H178 C163 0.961 . S
H179 C163 0.960 . S
C180 C181 1.391 . S
C180 C182 1.394 . S
C180 H196 0.931 . S
C181 C180 1.391 . S
C181 C185 1.376 . S
C182 C180 1.394 . S
C182 C183 1.369 . S
C182 C186 1.531 1_655 S
C183 C182 1.369 . S
C183 C184 1.410 . S
C183 C191 1.503 . S
C184 C183 1.410 . S
C184 C185 1.392 . S
C184 C187 1.511 . S
C185 C181 1.376 . S
C185 C184 1.392 . S
C185 H197 0.929 . S
C186 C182 1.531 1_455 S
C186 H198 0.960 . S
C186 H199 0.962 . S
C186 H200 0.960 . S
C187 C184 1.511 . S
C187 H201 0.961 . S
C187 H202 0.961 . S
C187 H203 0.961 . S
C188 C189 1.370 . S
C188 C190 1.363 1_455 S
C188 H204 0.931 . S
C189 C188 1.370 . S
C189 C193 1.408 . S
C190 C188 1.363 1_655 S
C190 C191 1.370 . S
C190 C194 1.524 . S
C191 C183 1.503 . S
C191 C190 1.370 . S
C191 C192 1.403 1_655 S
C192 C191 1.403 1_455 S
C192 C193 1.404 . S
C192 C195 1.539 . S
C193 C189 1.408 . S
C193 C192 1.404 . S
C193 H205 0.930 . S
C194 C190 1.524 . S
C194 H206 0.956 . S
C194 H207 0.961 . S
C194 H208 0.961 . S
C195 C192 1.539 . S
C195 H209 0.958 . S
C195 H210 0.961 . S
C195 H211 0.960 . S
H196 C180 0.931 . S
H197 C185 0.929 . S
H198 C186 0.960 . S
H199 C186 0.962 . S
H200 C186 0.960 . S
H201 C187 0.961 . S
H202 C187 0.961 . S
H203 C187 0.961 . S
H204 C188 0.931 . S
H205 C193 0.930 . S
H206 C194 0.956 . S
H207 C194 0.961 . S
H208 C194 0.961 . S
H209 C195 0.958 . S
H210 C195 0.961 . S
H211 C195 0.960 . S
C212 C213 1.391 . S
C212 C214 1.394 . S
C212 H228 0.931 . S
C213 C212 1.391 . S
C213 C217 1.376 . S
C214 C212 1.394 . S
C214 C215 1.369 . S
C214 C218 1.531 . S
C215 C214 1.369 . S
C215 C216 1.410 . S
C215 C223 1.503 1_655 S
C216 C215 1.410 . S
C216 C217 1.392 . S
C216 C219 1.511 1_655 S
C217 C213 1.376 . S
C217 C216 1.392 . S
C217 H229 0.929 . S
C218 C214 1.531 . S
C218 H230 0.960 . S
C218 H231 0.962 . S
C218 H232 0.960 . S
C219 C216 1.511 1_455 S
C219 H233 0.961 . S
C219 H234 0.961 . S
C219 H235 0.961 . S
C220 C221 1.370 . S
C220 C222 1.363 . S
C220 H236 0.931 . S
C221 C220 1.370 . S
C221 C225 1.408 . S
C222 C220 1.363 . S
C222 C223 1.370 . S
C222 C226 1.524 . S
C223 C215 1.503 1_455 S
C223 C222 1.370 . S
C223 C224 1.403 . S
C224 C223 1.403 . S
C224 C225 1.404 . S
C224 C227 1.539 1_455 S
C225 C221 1.408 . S
C225 C224 1.404 . S
C225 H237 0.930 . S
C226 C222 1.524 . S
C226 H238 0.956 . S
C226 H239 0.961 . S
C226 H240 0.961 . S
C227 C224 1.539 1_655 S
C227 H241 0.958 . S
C227 H242 0.961 1_655 S
C227 H243 0.960 . S
H228 C212 0.931 . S
H229 C217 0.929 . S
H230 C218 0.960 . S
H231 C218 0.962 . S
H232 C218 0.960 . S
H233 C219 0.961 . S
H234 C219 0.961 . S
H235 C219 0.961 . S
H236 C220 0.931 . S
H237 C225 0.930 . S
H238 C226 0.956 . S
H239 C226 0.961 . S
H240 C226 0.961 . S
H241 C227 0.958 . S
H242 C227 0.961 1_455 S
H243 C227 0.960 . S
C244 C245 1.391 . S
C244 C246 1.394 1_565 S
C244 H260 0.931 1_565 S
C245 C244 1.391 . S
C245 C249 1.376 . S
C246 C244 1.394 1_545 S
C246 C247 1.369 1_545 S
C246 C250 1.531 1_655 S
C247 C246 1.369 1_565 S
C247 C248 1.410 . S
C247 C255 1.503 1_664 S
C248 C247 1.410 . S
C248 C249 1.392 . S
C248 C251 1.511 1_554 S
C249 C245 1.376 . S
C249 C248 1.392 . S
C249 H261 0.929 . S
C250 C246 1.531 1_455 S
C250 H262 0.960 . S
C250 H263 0.962 1_455 S
C250 H264 0.960 . S
C251 C248 1.511 1_556 S
C251 H265 0.961 . S
C251 H266 0.961 . S
C251 H267 0.969 . S
C252 C253 1.370 . S
C252 C254 1.363 . S
C252 H268 0.931 . S
C253 C252 1.370 . S
C253 C257 1.408 . S
C254 C252 1.363 . S
C254 C255 1.370 . S
C254 C258 1.524 1_455 S
C255 C247 1.503 1_446 S
C255 C254 1.370 . S
C255 C256 1.403 1_546 S
C256 C255 1.403 1_564 S
C256 C257 1.404 1_564 S
C256 C259 1.539 . S
C257 C253 1.408 . S
C257 C256 1.404 1_546 S
C257 H269 0.930 . S
C258 C254 1.524 1_655 S
C258 H270 0.956 . S
C258 H271 0.961 . S
C258 H272 0.961 . S
C259 C256 1.539 . S
C259 H273 0.958 . S
C259 H274 0.961 . S
C259 H275 0.960 . S
H260 C244 0.931 1_545 S
H261 C249 0.929 . S
H262 C250 0.960 . S
H263 C250 0.962 1_655 S
H264 C250 0.960 . S
H265 C251 0.961 . S
H266 C251 0.961 . S
H267 C251 0.969 . S
H268 C252 0.931 . S
H269 C257 0.930 . S
H270 C258 0.956 . S
H271 C258 0.961 . S
H272 C258 0.961 . S
H273 C259 0.958 . S
H274 C259 0.961 . S
H275 C259 0.960 . S
C276 C277 1.391 . S
C276 C278 1.394 . S
C276 H292 0.931 . S
C277 C276 1.391 . S
C277 C281 1.376 . S
C278 C276 1.394 . S
C278 C279 1.369 . S
C278 C282 1.531 . S
C279 C278 1.369 . S
C279 C280 1.410 . S
C279 C287 1.503 . S
C280 C279 1.410 . S
C280 C281 1.392 . S
C280 C283 1.511 . S
C281 C277 1.376 . S
C281 C280 1.392 . S
C281 H293 0.929 1_554 S
C282 C278 1.531 . S
C282 H294 0.960 . S
C282 H295 0.962 . S
C282 H296 0.960 . S
C283 C280 1.511 . S
C283 H297 0.961 . S
C283 H298 0.961 . S
C283 H299 0.961 . S
C284 C285 1.370 . S
C284 C286 1.363 . S
C284 H300 0.931 . S
C285 C284 1.370 . S
C285 C289 1.408 . S
C286 C284 1.363 . S
C286 C287 1.370 . S
C286 C290 1.524 . S
C287 C279 1.503 . S
C287 C286 1.370 . S
C287 C288 1.403 . S
C288 C287 1.403 . S
C288 C289 1.404 . S
C288 C291 1.539 . S
C289 C285 1.408 . S
C289 C288 1.404 . S
C289 H301 0.930 . S
C290 C286 1.524 . S
C290 H302 0.956 . S
C290 H303 0.961 . S
C290 H304 0.961 . S
C291 C288 1.539 . S
C291 H305 0.958 . S
C291 H306 0.961 . S
C291 H307 0.960 . S
H292 C276 0.931 . S
H293 C281 0.929 1_556 S
H294 C282 0.960 . S
H295 C282 0.962 . S
H296 C282 0.960 . S
H297 C283 0.961 . S
H298 C283 0.961 . S
H299 C283 0.961 . S
H300 C284 0.931 . S
H301 C289 0.930 . S
H302 C290 0.956 . S
H303 C290 0.961 . S
H304 C290 0.961 . S
H305 C291 0.958 . S
H306 C291 0.961 . S
H307 C291 0.960 . S
C308 C309 1.391 . S
C308 C310 1.394 . S
C308 H324 0.931 . S
C309 C308 1.391 . S
C309 C313 1.376 . S
C310 C308 1.394 . S
C310 C311 1.369 . S
C310 C314 1.531 . S
C311 C310 1.369 . S
C311 C312 1.410 . S
C311 C319 1.503 . S
C312 C311 1.410 . S
C312 C313 1.392 . S
C312 C315 1.511 . S
C313 C309 1.376 . S
C313 C312 1.392 . S
C313 H325 0.929 . S
C314 C310 1.531 . S
C314 H326 0.960 . S
C314 H327 0.962 . S
C314 H328 0.960 . S
C315 C312 1.511 . S
C315 H329 0.961 . S
C315 H330 0.961 . S
C315 H331 0.961 . S
C316 C317 1.370 . S
C316 C318 1.363 . S
C316 H332 0.931 . S
C317 C316 1.370 . S
C317 C321 1.408 . S
C318 C316 1.363 . S
C318 C319 1.370 . S
C318 C322 1.524 . S
C319 C311 1.503 . S
C319 C318 1.370 . S
C319 C320 1.403 . S
C320 C319 1.403 . S
C320 C321 1.404 . S
C320 C323 1.539 . S
C321 C317 1.408 . S
C321 C320 1.404 . S
C321 H333 0.930 . S
C322 C318 1.524 . S
C322 H334 0.956 . S
C322 H335 0.961 . S
C322 H336 0.961 . S
C323 C320 1.539 . S
C323 H337 0.958 . S
C323 H338 0.961 . S
C323 H339 0.960 . S
H324 C308 0.931 . S
H325 C313 0.929 . S
H326 C314 0.960 . S
H327 C314 0.962 . S
H328 C314 0.960 . S
H329 C315 0.961 . S
H330 C315 0.961 . S
H331 C315 0.961 . S
H332 C316 0.931 . S
H333 C321 0.930 . S
H334 C322 0.956 . S
H335 C322 0.961 . S
H336 C322 0.961 . S
H337 C323 0.958 . S
H338 C323 0.961 . S
H339 C323 0.960 . S
C340 C341 1.391 . S
C340 C342 1.394 . S
C340 H356 0.931 1_556 S
C341 C340 1.391 . S
C341 C345 1.376 . S
C342 C340 1.394 . S
C342 C343 1.369 . S
C342 C346 1.531 . S
C343 C342 1.369 . S
C343 C344 1.410 . S
C343 C351 1.503 . S
C344 C343 1.410 . S
C344 C345 1.392 . S
C344 C347 1.511 . S
C345 C341 1.376 . S
C345 C344 1.392 . S
C345 H357 0.929 . S
C346 C342 1.531 . S
C346 H358 0.960 . S
C346 H359 0.962 . S
C346 H360 0.960 . S
C347 C344 1.511 . S
C347 H361 0.961 . S
C347 H362 0.961 . S
C347 H363 0.961 . S
C348 C349 1.370 . S
C348 C350 1.363 . S
C348 H364 0.931 . S
C349 C348 1.370 . S
C349 C353 1.408 . S
C350 C348 1.363 . S
C350 C351 1.370 . S
C350 C354 1.524 . S
C351 C343 1.503 . S
C351 C350 1.370 . S
C351 C352 1.403 . S
C352 C351 1.403 . S
C352 C353 1.404 . S
C352 C355 1.539 . S
C353 C349 1.408 . S
C353 C352 1.404 . S
C353 H365 0.930 . S
C354 C350 1.524 . S
C354 H366 0.956 . S
C354 H367 0.961 . S
C354 H368 0.961 . S
C355 C352 1.539 . S
C355 H369 0.958 . S
C355 H370 0.961 . S
C355 H371 0.960 . S
H356 C340 0.931 1_554 S
H357 C345 0.929 . S
H358 C346 0.960 . S
H359 C346 0.962 . S
H360 C346 0.960 . S
H361 C347 0.961 . S
H362 C347 0.961 . S
H363 C347 0.961 . S
H364 C348 0.931 . S
H365 C353 0.930 . S
H366 C354 0.956 . S
H367 C354 0.961 . S
H368 C354 0.961 . S
H369 C355 0.958 . S
H370 C355 0.961 . S
H371 C355 0.960 . S
C372 C373 1.391 . S
C372 C374 1.394 . S
C372 H388 0.931 . S
C373 C372 1.391 . S
C373 C377 1.376 . S
C374 C372 1.394 . S
C374 C375 1.369 . S
C374 C378 1.531 . S
C375 C374 1.369 . S
C375 C376 1.410 . S
C375 C383 1.503 . S
C376 C375 1.410 . S
C376 C377 1.392 . S
C376 C379 1.511 . S
C377 C373 1.376 . S
C377 C376 1.392 . S
C377 H389 0.929 . S
C378 C374 1.531 . S
C378 H390 0.960 . S
C378 H391 0.962 . S
C378 H392 0.960 . S
C379 C376 1.511 . S
C379 H393 0.961 . S
C379 H394 0.961 . S
C379 H395 0.961 . S
C380 C381 1.370 . S
C380 C382 1.363 . S
C380 H396 0.931 . S
C381 C380 1.370 . S
C381 C385 1.408 . S
C382 C380 1.363 . S
C382 C383 1.370 . S
C382 C386 1.524 . S
C383 C375 1.503 . S
C383 C382 1.370 . S
C383 C384 1.403 . S
C384 C383 1.403 . S
C384 C385 1.404 . S
C384 C387 1.539 . S
C385 C381 1.408 . S
C385 C384 1.404 . S
C385 H397 0.930 . S
C386 C382 1.524 . S
C386 H398 0.956 . S
C386 H399 0.961 . S
C386 H400 0.961 . S
C387 C384 1.539 . S
C387 H401 0.958 . S
C387 H402 0.961 . S
C387 H403 0.960 . S
H388 C372 0.931 . S
H389 C377 0.929 . S
H390 C378 0.960 . S
H391 C378 0.962 . S
H392 C378 0.960 . S
H393 C379 0.961 . S
H394 C379 0.961 . S
H395 C379 0.961 . S
H396 C380 0.931 . S
H397 C385 0.930 . S
H398 C386 0.956 . S
H399 C386 0.961 . S
H400 C386 0.961 . S
H401 C387 0.958 . S
H402 C387 0.961 . S
H403 C387 0.960 . S
C404 C405 1.391 . S
C404 C406 1.394 . S
C404 H420 0.931 . S
C405 C404 1.391 . S
C405 C409 1.376 . S
C406 C404 1.394 . S
C406 C407 1.369 . S
C406 C410 1.531 . S
C407 C406 1.369 . S
C407 C408 1.410 . S
C407 C415 1.503 . S
C408 C407 1.410 . S
C408 C409 1.392 . S
C408 C411 1.511 . S
C409 C405 1.376 . S
C409 C408 1.392 . S
C409 H421 0.929 . S
C410 C406 1.531 . S
C410 H422 0.960 . S
C410 H423 0.962 . S
C410 H424 0.960 . S
C411 C408 1.511 . S
C411 H425 0.961 . S
C411 H426 0.961 . S
C411 H427 0.961 . S
C412 C413 1.370 . S
C412 C414 1.363 . S
C412 H428 0.931 . S
C413 C412 1.370 . S
C413 C417 1.408 . S
C414 C412 1.363 . S
C414 C415 1.370 . S
C414 C418 1.524 . S
C415 C407 1.503 . S
C415 C414 1.370 . S
C415 C416 1.403 . S
C416 C415 1.403 . S
C416 C417 1.404 . S
C416 C419 1.539 . S
C417 C413 1.408 . S
C417 C416 1.404 . S
C417 H429 0.930 . S
C418 C414 1.524 . S
C418 H430 0.956 . S
C418 H431 0.961 . S
C418 H432 0.961 . S
C419 C416 1.539 . S
C419 H433 0.958 . S
C419 H434 0.961 . S
C419 H435 0.960 . S
H420 C404 0.931 . S
H421 C409 0.929 . S
H422 C410 0.960 . S
H423 C410 0.962 . S
H424 C410 0.960 . S
H425 C411 0.961 . S
H426 C411 0.961 . S
H427 C411 0.961 . S
H428 C412 0.931 . S
H429 C417 0.930 . S
H430 C418 0.956 . S
H431 C418 0.961 . S
H432 C418 0.961 . S
H433 C419 0.958 . S
H434 C419 0.961 . S
H435 C419 0.960 . S
C436 C437 1.391 . S
C436 C438 1.394 1_556 S
C436 H452 0.931 . S
C437 C436 1.391 . S
C437 C441 1.366 1_545 S
C438 C436 1.394 1_554 S
C438 C439 1.369 1_554 S
C438 C442 1.531 . S
C439 C438 1.369 1_556 S
C439 C440 1.410 1_545 S
C439 C447 1.503 1_546 S
C440 C439 1.410 1_565 S
C440 C441 1.397 . S
C440 C443 1.511 . S
C441 C437 1.366 1_565 S
C441 C440 1.397 . S
C441 H453 0.934 . S
C442 C438 1.531 . S
C442 H454 0.960 . S
C442 H455 0.962 . S
C442 H456 0.960 . S
C443 C440 1.511 . S
C443 H457 0.961 . S
C443 H458 0.961 . S
C443 H459 0.961 . S
C444 C445 1.370 . S
C444 C446 1.363 1_554 S
C444 H460 0.931 1_554 S
C445 C444 1.370 . S
C445 C449 1.408 . S
C446 C444 1.363 1_556 S
C446 C447 1.370 1_556 S
C446 C450 1.524 1_565 S
C447 C439 1.503 1_564 S
C447 C446 1.370 1_554 S
C447 C448 1.403 . S
C448 C447 1.403 . S
C448 C449 1.404 . S
C448 C451 1.539 . S
C449 C445 1.408 . S
C449 C448 1.404 . S
C449 H461 0.930 . S
C450 C446 1.524 1_545 S
C450 H462 0.956 . S
C450 H463 0.961 . S
C450 H464 0.961 . S
C451 C448 1.539 . S
C451 H465 0.958 . S
C451 H466 0.961 . S
C451 H467 0.960 . S
H452 C436 0.931 . S
H453 C441 0.934 . S
H454 C442 0.960 . S
H455 C442 0.962 . S
H456 C442 0.960 . S
H457 C443 0.961 . S
H458 C443 0.961 . S
H459 C443 0.961 . S
H460 C444 0.931 1_556 S
H461 C449 0.930 . S
H462 C450 0.956 . S
H463 C450 0.961 . S
H464 C450 0.961 . S
H465 C451 0.958 . S
H466 C451 0.961 . S
H467 C451 0.960 . S
C85 C41 1.676 1_545 S
C93 C4 1.594 . S
C117 C19 1.706 . S
C125 C28 1.595 . S
C149 C83 1.674 1_565 S
C157 C46 1.577 . S
C181 C61 1.688 . S
C189 C70 1.578 . S
C213 C62 0.548 . S
C221 C20 0.684 . S
C245 C40 0.598 . S
C253 C82 0.670 . S
C277 C79 1.237 1_554 S
C285 C16 1.382 . S
C309 C24 1.438 . S
C317 C45 1.177 . S
C341 C37 1.214 1_556 S
C349 C58 1.382 . S
C373 C66 1.423 . S
C381 C3 1.212 . S
C405 C7 1.307 . S
C413 C49 1.238 . S
C437 C67 1.287 . S
C445 C25 1.248 . S
