# Generated by pormake.
# Topology uog, (4)-cn, num edge types: 1
# Building blocks:
#     Node 0, Type 0, BuildingBlock: QUQFOY_clean_sbu_3, # of connection points: 4
#     Node 1, Type 0, BuildingBlock: QUQFOY_clean_sbu_3, # of connection points: 4
#     Node 2, Type 0, BuildingBlock: QUQFOY_clean_sbu_3, # of connection points: 4
#     Node 3, Type 0, BuildingBlock: QUQFOY_clean_sbu_3, # of connection points: 4
#     Node 4, Type 0, BuildingBlock: QUQFOY_clean_sbu_3, # of connection points: 4
#     Node 5, Type 0, BuildingBlock: QUQFOY_clean_sbu_3, # of connection points: 4
#     Edge 6, Type (0, 0), BuildingBlock: FUNLAD_clean_linker_0, # of connection points: 2
#     Edge 7, Type (0, 0), BuildingBlock: FUNLAD_clean_linker_0, # of connection points: 2
#     Edge 8, Type (0, 0), BuildingBlock: FUNLAD_clean_linker_0, # of connection points: 2
#     Edge 9, Type (0, 0), BuildingBlock: FUNLAD_clean_linker_0, # of connection points: 2
#     Edge 10, Type (0, 0), BuildingBlock: FUNLAD_clean_linker_0, # of connection points: 2
#     Edge 11, Type (0, 0), BuildingBlock: FUNLAD_clean_linker_0, # of connection points: 2
#     Edge 12, Type (0, 0), BuildingBlock: FUNLAD_clean_linker_0, # of connection points: 2
#     Edge 13, Type (0, 0), BuildingBlock: FUNLAD_clean_linker_0, # of connection points: 2
#     Edge 14, Type (0, 0), BuildingBlock: FUNLAD_clean_linker_0, # of connection points: 2
#     Edge 15, Type (0, 0), BuildingBlock: FUNLAD_clean_linker_0, # of connection points: 2
#     Edge 16, Type (0, 0), BuildingBlock: FUNLAD_clean_linker_0, # of connection points: 2
#     Edge 17, Type (0, 0), BuildingBlock: FUNLAD_clean_linker_0, # of connection points: 2
# Relax obj value: 0.081
# Max RMSD: 0.177
# Mean RMSD: 0.177
data_MOF--net-uog--node1-QUQFOY_clean_sbu_3--edge1-FUNLAD_clean_linker_0
_symmetry_space_group_name_H-M    P1
_symmetry_Int_Tables_number       1
_symmetry_cell_setting            triclinic
loop_
_symmetry_equiv_pos_as_xyz
'x, y, z'
_cell_length_a     34.230584
_cell_length_b     34.316796
_cell_length_c     51.74182
_cell_angle_alpha  90.21878
_cell_angle_beta   89.978312
_cell_angle_gamma 119.82516
loop_
_atom_site_label
_atom_site_type_symbol
_atom_site_fract_x
_atom_site_fract_y
_atom_site_fract_z
_atom_type_partial_charge
C0 C 0.6755 0.33003 0.18316 0.0
O1 O 0.70461 0.3627 0.16997 0.0
Cd2 Cd 0.68052 0.3805 0.12987 0.0
O3 O 0.63665 0.30432 0.17379 0.0
Cd4 Cd 0.59122 0.28815 0.13465 0.0
C5 C 0.58427 0.3792 0.15184 0.0
O6 O 0.64525 0.32023 0.09885 0.0
O7 O 0.57707 0.30721 0.09251 0.0
O8 O 0.59107 0.21798 0.13372 0.0
C9 C 0.61602 0.31991 0.08344 0.0
O10 O 0.62493 0.40036 0.14405 0.0
C11 C 0.54885 0.19233 0.13557 0.0
O12 O 0.56223 0.33626 0.15196 0.0
O13 O 0.52487 0.21122 0.13685 0.0
C14 C 0.32561 0.69142 0.51324 0.0
O15 O 0.32324 0.71935 0.49823 0.0
Cd16 Cd 0.28672 0.69315 0.4567 0.0
O17 O 0.31399 0.65207 0.50527 0.0
Cd18 Cd 0.28994 0.60357 0.46699 0.0
C19 C 0.18995 0.59761 0.47753 0.0
O20 O 0.31618 0.65599 0.43045 0.0
O21 O 0.2639 0.58723 0.42311 0.0
O22 O 0.36131 0.60759 0.47326 0.0
C23 C 0.29033 0.62611 0.4143 0.0
O24 O 0.21056 0.63749 0.46869 0.0
C25 C 0.34719 0.56573 0.47386 0.0
O26 O 0.21062 0.5755 0.48069 0.0
O27 O 0.30481 0.53969 0.47137 0.0
C28 C 0.6231 0.32746 0.84772 0.0
O29 O 0.59066 0.32071 0.83302 0.0
Cd30 Cd 0.58038 0.27902 0.79331 0.0
O31 O 0.65241 0.31772 0.83996 0.0
Cd32 Cd 0.67449 0.29123 0.80174 0.0
C33 C 0.58893 0.18969 0.81687 0.0
O34 O 0.64245 0.30795 0.76329 0.0
O35 O 0.66061 0.25581 0.76043 0.0
O36 O 0.74388 0.36222 0.80116 0.0
C37 C 0.64713 0.27985 0.74929 0.0
O38 O 0.56508 0.20538 0.80767 0.0
C39 C 0.77009 0.34637 0.80407 0.0
O40 O 0.63163 0.21432 0.81866 0.0
O41 O 0.7518 0.30387 0.8061 0.0
C42 C 0.29194 0.64016 0.17902 0.0
O43 O 0.26525 0.60971 0.16357 0.0
Cd44 Cd 0.29553 0.59837 0.12372 0.0
O45 O 0.3321 0.66731 0.17217 0.0
Cd46 Cd 0.38367 0.68955 0.1355 0.0
C47 C 0.3882 0.59597 0.14879 0.0
O48 O 0.33576 0.66319 0.09658 0.0
O49 O 0.40522 0.67842 0.09347 0.0
O50 O 0.38267 0.75904 0.13804 0.0
C51 C 0.36788 0.6667 0.08243 0.0
O52 O 0.34897 0.57659 0.13879 0.0
C53 C 0.42468 0.78484 0.14101 0.0
O54 O 0.41026 0.63866 0.15162 0.0
O55 O 0.44904 0.76633 0.14166 0.0
C56 C 0.63644 0.30075 0.51476 0.0
O57 O 0.64293 0.27362 0.50118 0.0
Cd58 Cd 0.68742 0.30098 0.46217 0.0
O59 O 0.64793 0.33962 0.50621 0.0
Cd60 Cd 0.67705 0.3871 0.46796 0.0
C61 C 0.77715 0.39926 0.48626 0.0
O62 O 0.66227 0.33588 0.43126 0.0
O63 O 0.7133 0.406 0.42675 0.0
O64 O 0.60401 0.38045 0.46428 0.0
C65 C 0.691 0.36706 0.41685 0.0
O66 O 0.76002 0.35895 0.47812 0.0
C67 C 0.61622 0.42158 0.46762 0.0
O68 O 0.75432 0.41956 0.48613 0.0
O69 O 0.65821 0.44838 0.47115 0.0
C70 C 0.32349 0.64259 0.84804 0.0
O71 O 0.35681 0.64905 0.83423 0.0
Cd72 Cd 0.36995 0.68979 0.79422 0.0
O73 O 0.29492 0.65266 0.83942 0.0
Cd74 Cd 0.2745 0.67954 0.80077 0.0
C75 C 0.3616 0.78036 0.81682 0.0
O76 O 0.30702 0.65811 0.76478 0.0
O77 O 0.28909 0.7095 0.75772 0.0
O78 O 0.20465 0.60937 0.80265 0.0
C79 C 0.30321 0.68425 0.74885 0.0
O80 O 0.38534 0.76381 0.80854 0.0
C81 C 0.17884 0.62595 0.80389 0.0
O82 O 0.31872 0.75671 0.81741 0.0
O83 O 0.19751 0.66863 0.80353 0.0
C84 C 0.55802 0.12449 0.13469 0.0
C85 C 0.52942 0.1429 0.13637 0.0
C86 C 0.54066 0.07808 0.13553 0.0
C87 C 0.4941 0.04873 0.13829 0.0
C88 C 0.46544 0.06711 0.13966 0.0
C89 C 0.48288 0.1137 0.13882 0.0
C90 C 0.47409 -0.00106 0.13868 0.0
C91 C 0.49726 0.97792 0.14509 0.0
C92 C 0.47776 0.92815 0.14473 0.0
C93 C 0.50704 0.91042 0.14406 0.0
C94 C 0.49015 0.86391 0.1432 0.0
C95 C 0.44351 0.8341 0.14308 0.0
H96 H 0.40711 0.9098 0.14684 0.0
C97 C 0.41426 0.85176 0.14441 0.0
C98 C 0.43106 0.89809 0.14535 0.0
H99 H 0.37809 0.82973 0.1447 0.0
H100 H 0.59406 0.14596 0.13254 0.0
H101 H 0.56394 0.06562 0.13345 0.0
H102 H 0.42938 0.04535 0.14152 0.0
H103 H 0.45994 0.12679 0.14009 0.0
H104 H 0.43883 0.9793 0.13342 0.0
H105 H 0.53248 -0.00225 0.15048 0.0
H106 H 0.54318 0.93266 0.14384 0.0
H107 H 0.51358 0.85138 0.1423 0.0
C108 C 0.36712 0.50416 0.47211 0.0
C109 C 0.37962 0.54924 0.47677 0.0
C110 C 0.3993 0.49022 0.47343 0.0
C111 C 0.44461 0.5212 0.47952 0.0
C112 C 0.45647 0.56579 0.485 0.0
C113 C 0.42457 0.57972 0.48347 0.0
C114 C 0.48055 0.50875 0.48071 0.0
C115 C 0.47894 0.47404 0.46751 0.0
C116 C 0.51544 0.46229 0.46801 0.0
C117 C 0.50438 0.41831 0.46142 0.0
C118 C 0.5372 0.40548 0.4613 0.0
C119 C 0.58226 0.43647 0.4675 0.0
H120 H 0.57104 0.52829 0.47837 0.0
C121 C 0.59375 0.48081 0.4737 0.0
C122 C 0.5607 0.49366 0.47396 0.0
H123 H 0.6282 0.50553 0.4784 0.0
H124 H 0.3327 0.47984 0.46707 0.0
H125 H 0.38839 0.45519 0.46988 0.0
H126 H 0.49087 0.59029 0.49001 0.0
H127 H 0.43536 0.61467 0.4874 0.0
H128 H 0.51004 0.53014 0.4923 0.0
H129 H 0.44943 0.45269 0.45591 0.0
H130 H 0.47002 0.39353 0.45651 0.0
H131 H 0.52709 0.37105 0.4563 0.0
C132 C 0.83774 0.42315 0.80221 0.0
C133 C 0.81951 0.37649 0.80472 0.0
C134 C 0.88429 0.45202 0.80224 0.0
C135 C 0.91385 0.43493 0.80499 0.0
C136 C 0.89558 0.38824 0.80739 0.0
C137 C 0.84892 0.35931 0.80737 0.0
C138 C 0.9637 0.46427 0.80432 0.0
C139 C -0.01467 0.50875 0.80961 0.0
C140 C 0.03518 0.53817 0.8084 0.0
C141 C 0.0534 0.5849 0.80621 0.0
C142 C 0.10004 0.6137 0.80483 0.0
C143 C 0.12946 0.59629 0.80571 0.0
H144 H 0.05275 0.4856 0.81256 0.0
C145 C 0.11132 0.54969 0.80839 0.0
C146 C 0.06486 0.521 0.80987 0.0
H147 H 0.13308 0.53521 0.80949 0.0
H148 H 0.81602 0.43749 0.79991 0.0
H149 H 0.89665 0.48747 0.79947 0.0
H150 H 0.91751 0.37406 0.80931 0.0
H151 H 0.83594 0.32352 0.80924 0.0
H152 H -0.0171 0.44802 0.79922 0.0
H153 H 0.96604 0.52491 0.81472 0.0
H154 H 0.03143 0.59918 0.8053 0.0
H155 H 0.11299 0.64947 0.8029 0.0
C156 C 0.11436 0.53239 0.49053 0.0
C157 C 0.14126 0.57769 0.48353 0.0
C158 C 0.06786 0.51402 0.49439 0.0
C159 C 0.04748 0.54079 0.4914 0.0
C160 C 0.07467 0.58613 0.48494 0.0
C161 C 0.1208 0.60437 0.48117 0.0
C162 C -0.00209 0.52262 0.49274 0.0
C163 C 0.96878 0.48421 0.50469 0.0
C164 C 0.919 0.46435 0.50292 0.0
C165 C 0.89197 0.4176 0.50467 0.0
C166 C 0.84566 0.39686 0.50034 0.0
C167 C 0.825 0.42243 0.49448 0.0
H168 H 0.91751 0.52659 0.49808 0.0
C169 C 0.85145 0.46948 0.49445 0.0
C170 C 0.89807 0.49031 0.4986 0.0
H171 H 0.83649 0.4901 0.49022 0.0
H172 H 0.12898 0.51087 0.4924 0.0
H173 H 0.04803 0.47863 0.49876 0.0
H174 H 0.06006 0.60756 0.48241 0.0
H175 H 0.14027 0.63949 0.47593 0.0
H176 H -0.01497 0.54163 0.48269 0.0
H177 H -0.01868 0.46479 0.51457 0.0
H178 H 0.90695 0.39679 0.50834 0.0
H179 H 0.82619 0.36052 0.50089 0.0
C180 C 0.43161 0.85092 0.82931 0.0
C181 C 0.38482 0.82803 0.82508 0.0
C182 C 0.45475 0.89678 0.83497 0.0
C183 C 0.4317 0.92112 0.83616 0.0
C184 C 0.3846 0.89777 0.83321 0.0
C185 C 0.36135 0.85169 0.82773 0.0
C186 C 0.45544 0.97084 0.83938 0.0
C187 C 0.49937 -0.00199 0.83368 0.0
C188 C 0.52147 0.04785 0.8326 0.0
C189 C 0.56876 0.0734 0.83321 0.0
C190 C 0.59097 0.11987 0.82917 0.0
C191 C 0.56625 0.14164 0.82415 0.0
H192 H 0.46048 0.05181 0.82706 0.0
C193 C 0.51893 0.11628 0.82436 0.0
C194 C 0.4968 0.07002 0.82844 0.0
H195 H 0.49876 0.13193 0.82057 0.0
H196 H 0.45062 0.83348 0.82797 0.0
H197 H 0.49065 0.91273 0.8382 0.0
H198 H 0.36585 0.9155 0.83432 0.0
H199 H 0.32526 0.83498 0.82475 0.0
H200 H 0.43498 0.98546 0.84507 0.0
H201 H 0.52011 0.98364 0.8282 0.0
H202 H 0.58865 0.05719 0.83618 0.0
H203 H 0.62744 0.13837 0.82909 0.0
C204 C 0.45427 0.58609 0.16065 0.0
C205 C 0.40793 0.5676 0.15604 0.0
C206 C 0.47268 0.55801 0.16446 0.0
C207 C 0.44488 0.51083 0.16395 0.0
C208 C 0.39845 0.49273 0.16035 0.0
C209 C 0.3802 0.52061 0.15652 0.0
C210 C 0.46273 0.47913 0.16466 0.0
C211 C 0.50402 0.48981 0.17324 0.0
C212 C 0.5232 0.45946 0.17022 0.0
C213 C 0.57009 0.47891 0.16861 0.0
C214 C 0.5897 0.45253 0.16338 0.0
C215 C 0.56291 0.40579 0.15991 0.0
H216 H 0.46014 0.39579 0.17013 0.0
C217 C 0.51606 0.3858 0.16293 0.0
C218 C 0.49634 0.41235 0.16806 0.0
H219 H 0.49453 0.34986 0.16067 0.0
H220 H 0.47656 0.62212 0.16027 0.0
H221 H 0.50878 0.57354 0.16664 0.0
H222 H 0.37617 0.45666 0.15985 0.0
H223 H 0.34425 0.50507 0.15327 0.0
H224 H 0.44101 0.44586 0.1567 0.0
H225 H 0.52605 0.52309 0.18106 0.0
H226 H 0.59167 0.51493 0.17051 0.0
H227 H 0.62599 0.46909 0.16155 0.0
C228 C 0.66188 0.35044 0.89055 0.0
C229 C 0.62482 0.34188 0.87492 0.0
C230 C 0.66088 0.35648 0.91718 0.0
C231 C 0.62274 0.35437 0.92889 0.0
C232 C 0.58678 0.34837 0.91301 0.0
C233 C 0.58781 0.34232 0.88631 0.0
C234 C 0.61694 0.35353 0.95748 0.0
C235 C 0.65021 0.36397 -0.02514 0.0
C236 C 0.64214 0.35586 0.00313 0.0
C237 C 0.67387 0.35135 0.01817 0.0
C238 C 0.66605 0.34048 0.04443 0.0
C239 C 0.62625 0.33392 0.05615 0.0
H240 H 0.5788 0.35636 0.00485 0.0
C241 C 0.59535 0.34016 0.04138 0.0
C242 C 0.6033 0.35134 0.01527 0.0
H243 H 0.56475 0.33625 0.04998 0.0
H244 H 0.69107 0.35052 0.88239 0.0
H245 H 0.68926 0.36043 0.92837 0.0
H246 H 0.55696 0.34664 0.92141 0.0
H247 H 0.5587 0.33583 0.87485 0.0
H248 H 0.58276 0.34096 0.96422 0.0
H249 H 0.68443 0.37632 0.96831 0.0
H250 H 0.70433 0.3551 0.00944 0.0
H251 H 0.69066 0.33625 0.05537 0.0
C252 C 0.3055 0.68036 0.22121 0.0
C253 C 0.27849 0.64232 0.20592 0.0
C254 C 0.2978 0.68021 0.2477 0.0
C255 C 0.26318 0.64168 0.25959 0.0
C256 C 0.23412 0.60492 0.24399 0.0
C257 C 0.24169 0.60516 0.21739 0.0
C258 C 0.25774 0.63765 0.28814 0.0
C259 C 0.2921 0.6608 0.30481 0.0
C260 C 0.28907 0.6522 0.33307 0.0
C261 C 0.32024 0.68584 0.34967 0.0
C262 C 0.3205 0.67782 0.37616 0.0
C263 C 0.28986 0.63572 0.3865 0.0
H264 H 0.23471 0.58276 0.3314 0.0
C265 C 0.25862 0.60212 0.36991 0.0
C266 C 0.25825 0.61016 0.34353 0.0
H267 H 0.23467 0.56921 0.37723 0.0
H268 H 0.33359 0.70994 0.21284 0.0
H269 H 0.31964 0.71008 0.25874 0.0
H270 H 0.20674 0.57505 0.25258 0.0
H271 H 0.22014 0.57543 0.20611 0.0
H272 H 0.22516 0.61241 0.29543 0.0
H273 H 0.32469 0.68614 0.2976 0.0
H274 H 0.34471 0.71835 0.34209 0.0
H275 H 0.34502 0.70435 0.38844 0.0
C276 C 0.62377 0.30149 0.70808 0.0
C277 C 0.6377 0.27473 0.72121 0.0
C278 C 0.6167 0.297 0.68129 0.0
C279 C 0.6233 0.26546 0.66721 0.0
C280 C 0.63665 0.2385 0.68052 0.0
C281 C 0.64359 0.24291 0.70714 0.0
C282 C 0.6203 0.26175 0.63857 0.0
C283 C 0.59806 0.27647 0.62371 0.0
C284 C 0.60134 0.27759 0.59506 0.0
C285 C 0.59939 0.31213 0.58182 0.0
C286 C 0.60857 0.31821 0.5554 0.0
C287 C 0.61938 0.28947 0.54156 0.0
H288 H 0.60876 0.21859 0.59025 0.0
C289 C 0.61783 0.25272 0.55437 0.0
C290 C 0.60884 0.24677 0.58088 0.0
H291 H 0.62545 0.22965 0.5442 0.0
H292 H 0.61911 0.32639 0.7184 0.0
H293 H 0.60756 0.3193 0.67173 0.0
H294 H 0.64227 0.21417 0.67021 0.0
H295 H 0.65422 0.22163 0.71662 0.0
H296 H 0.63877 0.24733 0.62938 0.0
H297 H 0.57998 0.29153 0.63259 0.0
H298 H 0.59299 0.3359 0.59217 0.0
H299 H 0.60882 0.34652 0.54604 0.0
C300 C 0.35623 0.62804 0.88777 0.0
C301 C 0.31969 0.62767 0.87518 0.0
C302 C 0.35507 0.62131 0.91446 0.0
C303 C 0.31732 0.61416 0.92905 0.0
C304 C 0.27955 0.61028 0.91614 0.0
C305 C 0.28077 0.61722 0.88953 0.0
C306 C 0.317 0.61309 0.95775 0.0
C307 C 0.35463 0.63717 0.97185 0.0
C308 C 0.35547 0.6417 0.00044 0.0
C309 C 0.39654 0.65607 0.01321 0.0
C310 C 0.40017 0.6637 0.03979 0.0
C311 C 0.36283 0.65755 0.05432 0.0
H312 H 0.28584 0.62536 0.00579 0.0
C313 C 0.32152 0.643 0.04168 0.0
C314 C 0.31782 0.63518 0.01496 0.0
H315 H 0.29222 0.63812 0.05237 0.0
H316 H 0.38648 0.63545 0.87723 0.0
H317 H 0.38414 0.62268 0.92363 0.0
H318 H 0.2498 0.60409 0.92685 0.0
H319 H 0.25176 0.61608 0.88037 0.0
H320 H 0.28455 0.59488 0.96725 0.0
H321 H 0.38681 0.65571 0.96206 0.0
H322 H 0.42615 0.66173 0.00253 0.0
H323 H 0.43256 0.6749 0.04889 0.0
C324 C 0.67268 0.31717 0.37775 0.0
C325 C 0.69912 0.35906 0.38977 0.0
C326 C 0.67988 0.31091 0.35178 0.0
C327 C 0.71366 0.34658 0.33738 0.0
C328 C 0.74109 0.38776 0.3498 0.0
C329 C 0.73379 0.39404 0.37561 0.0
C330 C 0.72058 0.34324 0.30926 0.0
C331 C 0.68747 0.31501 0.29324 0.0
C332 C 0.69059 0.31716 0.26452 0.0
C333 C 0.65679 0.28141 0.25029 0.0
C334 C 0.65365 0.2846 0.22359 0.0
C335 C 0.68427 0.32378 0.2104 0.0
H336 H 0.74917 0.38424 0.26113 0.0
C337 C 0.71985 0.35854 0.22428 0.0
C338 C 0.72291 0.35544 0.2511 0.0
H339 H 0.74385 0.38924 0.2147 0.0
H340 H 0.64613 0.28941 0.38828 0.0
H341 H 0.65895 0.27816 0.34319 0.0
H342 H 0.76754 0.4157 0.33929 0.0
H343 H 0.75516 0.42663 0.38436 0.0
H344 H 0.75302 0.36762 0.30142 0.0
H345 H 0.65509 0.29078 0.30126 0.0
H346 H 0.6315 0.25151 0.26 0.0
H347 H 0.62599 0.25699 0.21344 0.0
C348 C 0.31256 0.71738 0.70488 0.0
C349 C 0.31478 0.68587 0.72119 0.0
C350 C 0.32182 0.71843 0.67855 0.0
C351 C 0.33377 0.68805 0.66788 0.0
C352 C 0.33627 0.65673 0.68423 0.0
C353 C 0.32714 0.65579 0.71066 0.0
C354 C 0.34001 0.68558 0.6396 0.0
C355 C 0.35128 0.72018 0.62328 0.0
C356 C 0.3507 0.71553 0.59466 0.0
C357 C 0.34418 0.7456 0.57936 0.0
C358 C 0.33821 0.7393 0.55261 0.0
C359 C 0.33873 0.70275 0.54066 0.0
H360 H 0.36154 0.65821 0.59319 0.0
C361 C 0.34824 0.67445 0.55573 0.0
C362 C 0.35446 0.6809 0.58238 0.0
H363 H 0.34982 0.64651 0.54702 0.0
H364 H 0.30294 0.74093 0.71235 0.0
H365 H 0.31795 0.74209 0.66661 0.0
H366 H 0.34489 0.63261 0.67647 0.0
H367 H 0.32906 0.63107 0.72273 0.0
H368 H 0.33321 0.65324 0.63212 0.0
H369 H 0.35827 0.75252 0.63092 0.0
H370 H 0.34178 0.77298 0.58826 0.0
H371 H 0.3312 0.76183 0.54152 0.0
loop_
_geom_bond_atom_site_label_1
_geom_bond_atom_site_label_2
_geom_bond_distance
_geom_bond_site_symmetry_2
_ccdc_geom_bond_type
C0 O1 1.306 . S
C0 O3 1.160 . S
O1 C0 1.306 . S
O1 Cd2 2.228 . S
Cd2 O1 2.228 . S
Cd2 O6 2.273 . S
Cd2 O10 2.277 . S
O3 C0 1.160 . S
O3 Cd4 2.203 . S
Cd4 O3 2.203 . S
Cd4 O6 2.411 . S
Cd4 O7 2.333 . S
Cd4 O8 2.352 . S
Cd4 O12 2.277 . S
Cd4 O13 2.356 . S
C5 O10 1.209 . S
C5 O12 1.226 . S
O6 Cd2 2.273 . S
O6 Cd4 2.411 . S
O6 C9 1.320 . S
O7 Cd4 2.333 . S
O7 C9 1.214 . S
O8 Cd4 2.352 . S
O8 C11 1.258 . S
C9 O6 1.320 . S
C9 O7 1.214 . S
O10 Cd2 2.277 . S
O10 C5 1.209 . S
C11 O8 1.258 . S
C11 O13 1.282 . S
O12 Cd4 2.277 . S
O12 C5 1.226 . S
O13 Cd4 2.356 . S
O13 C11 1.282 . S
C14 O15 1.306 . S
C14 O17 1.160 . S
O15 C14 1.306 . S
O15 Cd16 2.228 . S
Cd16 O15 2.228 . S
Cd16 O20 2.273 . S
Cd16 O24 2.277 . S
O17 C14 1.160 . S
O17 Cd18 2.203 . S
Cd18 O17 2.203 . S
Cd18 O20 2.411 . S
Cd18 O21 2.333 . S
Cd18 O22 2.352 . S
Cd18 O26 2.277 . S
Cd18 O27 2.356 . S
C19 O24 1.209 . S
C19 O26 1.226 . S
O20 Cd16 2.273 . S
O20 Cd18 2.411 . S
O20 C23 1.320 . S
O21 Cd18 2.333 . S
O21 C23 1.214 . S
O22 Cd18 2.352 . S
O22 C25 1.258 . S
C23 O20 1.320 . S
C23 O21 1.214 . S
O24 Cd16 2.277 . S
O24 C19 1.209 . S
C25 O22 1.258 . S
C25 O27 1.282 . S
O26 Cd18 2.277 . S
O26 C19 1.226 . S
O27 Cd18 2.356 . S
O27 C25 1.282 . S
C28 O29 1.306 . S
C28 O31 1.160 . S
O29 C28 1.306 . S
O29 Cd30 2.228 . S
Cd30 O29 2.228 . S
Cd30 O34 2.273 . S
Cd30 O38 2.277 . S
O31 C28 1.160 . S
O31 Cd32 2.203 . S
Cd32 O31 2.203 . S
Cd32 O34 2.411 . S
Cd32 O35 2.333 . S
Cd32 O36 2.352 . S
Cd32 O40 2.277 . S
Cd32 O41 2.356 . S
C33 O38 1.209 . S
C33 O40 1.226 . S
O34 Cd30 2.273 . S
O34 Cd32 2.411 . S
O34 C37 1.320 . S
O35 Cd32 2.333 . S
O35 C37 1.214 . S
O36 Cd32 2.352 . S
O36 C39 1.258 . S
C37 O34 1.320 . S
C37 O35 1.214 . S
O38 Cd30 2.277 . S
O38 C33 1.209 . S
C39 O36 1.258 . S
C39 O41 1.282 . S
O40 Cd32 2.277 . S
O40 C33 1.226 . S
O41 Cd32 2.356 . S
O41 C39 1.282 . S
C42 O43 1.306 . S
C42 O45 1.160 . S
O43 C42 1.306 . S
O43 Cd44 2.228 . S
Cd44 O43 2.228 . S
Cd44 O48 2.273 . S
Cd44 O52 2.277 . S
O45 C42 1.160 . S
O45 Cd46 2.203 . S
Cd46 O45 2.203 . S
Cd46 O48 2.411 . S
Cd46 O49 2.333 . S
Cd46 O50 2.352 . S
Cd46 O54 2.277 . S
Cd46 O55 2.356 . S
C47 O52 1.209 . S
C47 O54 1.226 . S
O48 Cd44 2.273 . S
O48 Cd46 2.411 . S
O48 C51 1.320 . S
O49 Cd46 2.333 . S
O49 C51 1.214 . S
O50 Cd46 2.352 . S
O50 C53 1.258 . S
C51 O48 1.320 . S
C51 O49 1.214 . S
O52 Cd44 2.277 . S
O52 C47 1.209 . S
C53 O50 1.258 . S
C53 O55 1.282 . S
O54 Cd46 2.277 . S
O54 C47 1.226 . S
O55 Cd46 2.356 . S
O55 C53 1.282 . S
C56 O57 1.306 . S
C56 O59 1.160 . S
O57 C56 1.306 . S
O57 Cd58 2.228 . S
Cd58 O57 2.228 . S
Cd58 O62 2.273 . S
Cd58 O66 2.277 . S
O59 C56 1.160 . S
O59 Cd60 2.203 . S
Cd60 O59 2.203 . S
Cd60 O62 2.411 . S
Cd60 O63 2.333 . S
Cd60 O64 2.352 . S
Cd60 O68 2.277 . S
Cd60 O69 2.356 . S
C61 O66 1.209 . S
C61 O68 1.226 . S
O62 Cd58 2.273 . S
O62 Cd60 2.411 . S
O62 C65 1.320 . S
O63 Cd60 2.333 . S
O63 C65 1.214 . S
O64 Cd60 2.352 . S
O64 C67 1.258 . S
C65 O62 1.320 . S
C65 O63 1.214 . S
O66 Cd58 2.277 . S
O66 C61 1.209 . S
C67 O64 1.258 . S
C67 O69 1.282 . S
O68 Cd60 2.277 . S
O68 C61 1.226 . S
O69 Cd60 2.356 . S
O69 C67 1.282 . S
C70 O71 1.306 . S
C70 O73 1.160 . S
O71 C70 1.306 . S
O71 Cd72 2.228 . S
Cd72 O71 2.228 . S
Cd72 O76 2.273 . S
Cd72 O80 2.277 . S
O73 C70 1.160 . S
O73 Cd74 2.203 . S
Cd74 O73 2.203 . S
Cd74 O76 2.411 . S
Cd74 O77 2.333 . S
Cd74 O78 2.352 . S
Cd74 O82 2.277 . S
Cd74 O83 2.356 . S
C75 O80 1.209 . S
C75 O82 1.226 . S
O76 Cd72 2.273 . S
O76 Cd74 2.411 . S
O76 C79 1.320 . S
O77 Cd74 2.333 . S
O77 C79 1.214 . S
O78 Cd74 2.352 . S
O78 C81 1.258 . S
C79 O76 1.320 . S
C79 O77 1.214 . S
O80 Cd72 2.277 . S
O80 C75 1.209 . S
C81 O78 1.258 . S
C81 O83 1.282 . S
O82 Cd74 2.277 . S
O82 C75 1.226 . S
O83 Cd74 2.356 . S
O83 C81 1.282 . S
C84 C85 1.386 . S
C84 C86 1.383 . S
C84 H100 0.951 . S
C85 C84 1.386 . S
C85 C89 1.383 . S
C86 C84 1.383 . S
C86 C87 1.402 . S
C86 H101 0.951 . S
C87 C86 1.402 . S
C87 C88 1.375 . S
C87 C90 1.481 . S
C88 C87 1.375 . S
C88 C89 1.367 . S
C88 H102 0.951 . S
C89 C85 1.383 . S
C89 C88 1.367 . S
C89 H103 0.950 . S
C90 C87 1.481 . S
C90 C91 1.297 1_545 S
C90 H104 0.950 . S
C91 C90 1.297 1_565 S
C91 C92 1.479 . S
C91 H105 0.950 1_565 S
C92 C91 1.479 . S
C92 C93 1.375 . S
C92 C98 1.404 . S
C93 C92 1.375 . S
C93 C94 1.369 . S
C93 H106 0.950 . S
C94 C93 1.369 . S
C94 C95 1.392 . S
C94 H107 0.951 . S
C95 C94 1.392 . S
C95 C97 1.384 . S
H96 C98 0.949 . S
C97 C95 1.384 . S
C97 C98 1.385 . S
C97 H99 0.950 . S
C98 C92 1.404 . S
C98 H96 0.949 . S
C98 C97 1.385 . S
H99 C97 0.950 . S
H100 C84 0.951 . S
H101 C86 0.951 . S
H102 C88 0.951 . S
H103 C89 0.950 . S
H104 C90 0.950 . S
H105 C91 0.950 1_545 S
H106 C93 0.950 . S
H107 C94 0.951 . S
C108 C109 1.386 . S
C108 C110 1.383 . S
C108 H124 0.951 . S
C109 C108 1.386 . S
C109 C113 1.383 . S
C110 C108 1.383 . S
C110 C111 1.402 . S
C110 H125 0.951 . S
C111 C110 1.402 . S
C111 C112 1.375 . S
C111 C114 1.481 . S
C112 C111 1.375 . S
C112 C113 1.367 . S
C112 H126 0.951 . S
C113 C109 1.383 . S
C113 C112 1.367 . S
C113 H127 0.950 . S
C114 C111 1.481 . S
C114 C115 1.297 . S
C114 H128 0.950 . S
C115 C114 1.297 . S
C115 C116 1.479 . S
C115 H129 0.950 . S
C116 C115 1.479 . S
C116 C117 1.375 . S
C116 C122 1.404 . S
C117 C116 1.375 . S
C117 C118 1.369 . S
C117 H130 0.950 . S
C118 C117 1.369 . S
C118 C119 1.392 . S
C118 H131 0.951 . S
C119 C118 1.392 . S
C119 C121 1.384 . S
H120 C122 0.949 . S
C121 C119 1.384 . S
C121 C122 1.385 . S
C121 H123 0.950 . S
C122 C116 1.404 . S
C122 H120 0.949 . S
C122 C121 1.385 . S
H123 C121 0.950 . S
H124 C108 0.951 . S
H125 C110 0.951 . S
H126 C112 0.951 . S
H127 C113 0.950 . S
H128 C114 0.950 . S
H129 C115 0.950 . S
H130 C117 0.950 . S
H131 C118 0.951 . S
C132 C133 1.386 . S
C132 C134 1.383 . S
C132 H148 0.951 . S
C133 C132 1.386 . S
C133 C137 1.383 . S
C134 C132 1.383 . S
C134 C135 1.402 . S
C134 H149 0.951 . S
C135 C134 1.402 . S
C135 C136 1.375 . S
C135 C138 1.481 . S
C136 C135 1.375 . S
C136 C137 1.367 . S
C136 H150 0.951 . S
C137 C133 1.383 . S
C137 C136 1.367 . S
C137 H151 0.950 . S
C138 C135 1.481 . S
C138 C139 1.297 1_655 S
C138 H152 0.950 . S
C139 C138 1.297 1_455 S
C139 C140 1.479 . S
C139 H153 0.950 1_455 S
C140 C139 1.479 . S
C140 C141 1.375 . S
C140 C146 1.404 . S
C141 C140 1.375 . S
C141 C142 1.369 . S
C141 H154 0.950 . S
C142 C141 1.369 . S
C142 C143 1.392 . S
C142 H155 0.951 . S
C143 C142 1.392 . S
C143 C145 1.384 . S
H144 C146 0.949 . S
C145 C143 1.384 . S
C145 C146 1.385 . S
C145 H147 0.950 . S
C146 C140 1.404 . S
C146 H144 0.949 . S
C146 C145 1.385 . S
H147 C145 0.950 . S
H148 C132 0.951 . S
H149 C134 0.951 . S
H150 C136 0.951 . S
H151 C137 0.950 . S
H152 C138 0.950 . S
H153 C139 0.950 1_655 S
H154 C141 0.950 . S
H155 C142 0.951 . S
C156 C157 1.386 . S
C156 C158 1.383 . S
C156 H172 0.951 . S
C157 C156 1.386 . S
C157 C161 1.383 . S
C158 C156 1.383 . S
C158 C159 1.402 . S
C158 H173 0.951 . S
C159 C158 1.402 . S
C159 C160 1.375 . S
C159 C162 1.481 . S
C160 C159 1.375 . S
C160 C161 1.367 . S
C160 H174 0.951 . S
C161 C157 1.383 . S
C161 C160 1.367 . S
C161 H175 0.950 . S
C162 C159 1.481 . S
C162 C163 1.297 1_455 S
C162 H176 0.950 . S
C163 C162 1.297 1_655 S
C163 C164 1.479 . S
C163 H177 0.950 . S
C164 C163 1.479 . S
C164 C165 1.375 . S
C164 C170 1.404 . S
C165 C164 1.375 . S
C165 C166 1.369 . S
C165 H178 0.950 . S
C166 C165 1.369 . S
C166 C167 1.392 . S
C166 H179 0.951 . S
C167 C166 1.392 . S
C167 C169 1.384 . S
H168 C170 0.949 . S
C169 C167 1.384 . S
C169 C170 1.385 . S
C169 H171 0.950 . S
C170 C164 1.404 . S
C170 H168 0.949 . S
C170 C169 1.385 . S
H171 C169 0.950 . S
H172 C156 0.951 . S
H173 C158 0.951 . S
H174 C160 0.951 . S
H175 C161 0.950 . S
H176 C162 0.950 . S
H177 C163 0.950 . S
H178 C165 0.950 . S
H179 C166 0.951 . S
C180 C181 1.386 . S
C180 C182 1.383 . S
C180 H196 0.951 . S
C181 C180 1.386 . S
C181 C185 1.383 . S
C182 C180 1.383 . S
C182 C183 1.402 . S
C182 H197 0.951 . S
C183 C182 1.402 . S
C183 C184 1.375 . S
C183 C186 1.481 . S
C184 C183 1.375 . S
C184 C185 1.367 . S
C184 H198 0.951 . S
C185 C181 1.383 . S
C185 C184 1.367 . S
C185 H199 0.950 . S
C186 C183 1.481 . S
C186 C187 1.297 1_565 S
C186 H200 0.952 . S
C187 C186 1.297 1_545 S
C187 C188 1.479 . S
C187 H201 0.950 . S
C188 C187 1.479 . S
C188 C189 1.375 . S
C188 C194 1.404 . S
C189 C188 1.375 . S
C189 C190 1.369 . S
C189 H202 0.950 . S
C190 C189 1.369 . S
C190 C191 1.392 . S
C190 H203 0.951 . S
C191 C190 1.392 . S
C191 C193 1.384 . S
H192 C194 0.949 . S
C193 C191 1.384 . S
C193 C194 1.385 . S
C193 H195 0.950 . S
C194 C188 1.404 . S
C194 H192 0.949 . S
C194 C193 1.385 . S
H195 C193 0.950 . S
H196 C180 0.951 . S
H197 C182 0.951 . S
H198 C184 0.951 . S
H199 C185 0.950 . S
H200 C186 0.952 . S
H201 C187 0.950 . S
H202 C189 0.950 . S
H203 C190 0.951 . S
C204 C205 1.386 . S
C204 C206 1.383 . S
C204 H220 0.951 . S
C205 C204 1.386 . S
C205 C209 1.383 . S
C206 C204 1.383 . S
C206 C207 1.402 . S
C206 H221 0.951 . S
C207 C206 1.402 . S
C207 C208 1.375 . S
C207 C210 1.481 . S
C208 C207 1.375 . S
C208 C209 1.367 . S
C208 H222 0.951 . S
C209 C205 1.383 . S
C209 C208 1.367 . S
C209 H223 0.950 . S
C210 C207 1.481 . S
C210 C211 1.297 . S
C210 H224 0.950 . S
C211 C210 1.297 . S
C211 C212 1.479 . S
C211 H225 0.950 . S
C212 C211 1.479 . S
C212 C213 1.375 . S
C212 C218 1.404 . S
C213 C212 1.375 . S
C213 C214 1.369 . S
C213 H226 0.950 . S
C214 C213 1.369 . S
C214 C215 1.392 . S
C214 H227 0.951 . S
C215 C214 1.392 . S
C215 C217 1.384 . S
H216 C218 0.949 . S
C217 C215 1.384 . S
C217 C218 1.385 . S
C217 H219 0.950 . S
C218 C212 1.404 . S
C218 H216 0.949 . S
C218 C217 1.385 . S
H219 C217 0.950 . S
H220 C204 0.951 . S
H221 C206 0.951 . S
H222 C208 0.951 . S
H223 C209 0.950 . S
H224 C210 0.950 . S
H225 C211 0.950 . S
H226 C213 0.950 . S
H227 C214 0.951 . S
C228 C229 1.386 . S
C228 C230 1.383 . S
C228 H244 0.951 . S
C229 C228 1.386 . S
C229 C233 1.383 . S
C230 C228 1.383 . S
C230 C231 1.402 . S
C230 H245 0.951 . S
C231 C230 1.402 . S
C231 C232 1.375 . S
C231 C234 1.481 . S
C232 C231 1.375 . S
C232 C233 1.367 . S
C232 H246 0.951 . S
C233 C229 1.383 . S
C233 C232 1.367 . S
C233 H247 0.950 . S
C234 C231 1.481 . S
C234 C235 1.297 1_556 S
C234 H248 0.950 . S
C235 C234 1.297 1_554 S
C235 C236 1.479 . S
C235 H249 0.950 . S
C236 C235 1.479 . S
C236 C237 1.375 . S
C236 C242 1.404 . S
C237 C236 1.375 . S
C237 C238 1.369 . S
C237 H250 0.950 . S
C238 C237 1.369 . S
C238 C239 1.392 . S
C238 H251 0.951 . S
C239 C238 1.392 . S
C239 C241 1.384 . S
H240 C242 0.949 . S
C241 C239 1.384 . S
C241 C242 1.385 . S
C241 H243 0.950 . S
C242 C236 1.404 . S
C242 H240 0.949 . S
C242 C241 1.385 . S
H243 C241 0.950 . S
H244 C228 0.951 . S
H245 C230 0.951 . S
H246 C232 0.951 . S
H247 C233 0.950 . S
H248 C234 0.950 . S
H249 C235 0.950 . S
H250 C237 0.950 . S
H251 C238 0.951 . S
C252 C253 1.386 . S
C252 C254 1.383 . S
C252 H268 0.951 . S
C253 C252 1.386 . S
C253 C257 1.383 . S
C254 C252 1.383 . S
C254 C255 1.402 . S
C254 H269 0.951 . S
C255 C254 1.402 . S
C255 C256 1.375 . S
C255 C258 1.481 . S
C256 C255 1.375 . S
C256 C257 1.367 . S
C256 H270 0.951 . S
C257 C253 1.383 . S
C257 C256 1.367 . S
C257 H271 0.950 . S
C258 C255 1.481 . S
C258 C259 1.297 . S
C258 H272 0.950 . S
C259 C258 1.297 . S
C259 C260 1.479 . S
C259 H273 0.950 . S
C260 C259 1.479 . S
C260 C261 1.375 . S
C260 C266 1.404 . S
C261 C260 1.375 . S
C261 C262 1.369 . S
C261 H274 0.950 . S
C262 C261 1.369 . S
C262 C263 1.392 . S
C262 H275 0.951 . S
C263 C262 1.392 . S
C263 C265 1.384 . S
H264 C266 0.949 . S
C265 C263 1.384 . S
C265 C266 1.385 . S
C265 H267 0.950 . S
C266 C260 1.404 . S
C266 H264 0.949 . S
C266 C265 1.385 . S
H267 C265 0.950 . S
H268 C252 0.951 . S
H269 C254 0.951 . S
H270 C256 0.951 . S
H271 C257 0.950 . S
H272 C258 0.950 . S
H273 C259 0.950 . S
H274 C261 0.950 . S
H275 C262 0.951 . S
C276 C277 1.386 . S
C276 C278 1.383 . S
C276 H292 0.951 . S
C277 C276 1.386 . S
C277 C281 1.383 . S
C278 C276 1.383 . S
C278 C279 1.402 . S
C278 H293 0.951 . S
C279 C278 1.402 . S
C279 C280 1.375 . S
C279 C282 1.481 . S
C280 C279 1.375 . S
C280 C281 1.367 . S
C280 H294 0.951 . S
C281 C277 1.383 . S
C281 C280 1.367 . S
C281 H295 0.950 . S
C282 C279 1.481 . S
C282 C283 1.297 . S
C282 H296 0.950 . S
C283 C282 1.297 . S
C283 C284 1.479 . S
C283 H297 0.950 . S
C284 C283 1.479 . S
C284 C285 1.375 . S
C284 C290 1.404 . S
C285 C284 1.375 . S
C285 C286 1.369 . S
C285 H298 0.950 . S
C286 C285 1.369 . S
C286 C287 1.392 . S
C286 H299 0.951 . S
C287 C286 1.392 . S
C287 C289 1.384 . S
H288 C290 0.949 . S
C289 C287 1.384 . S
C289 C290 1.385 . S
C289 H291 0.950 . S
C290 C284 1.404 . S
C290 H288 0.949 . S
C290 C289 1.385 . S
H291 C289 0.950 . S
H292 C276 0.951 . S
H293 C278 0.951 . S
H294 C280 0.951 . S
H295 C281 0.950 . S
H296 C282 0.950 . S
H297 C283 0.950 . S
H298 C285 0.950 . S
H299 C286 0.951 . S
C300 C301 1.386 . S
C300 C302 1.383 . S
C300 H316 0.951 . S
C301 C300 1.386 . S
C301 C305 1.383 . S
C302 C300 1.383 . S
C302 C303 1.402 . S
C302 H317 0.951 . S
C303 C302 1.402 . S
C303 C304 1.375 . S
C303 C306 1.481 . S
C304 C303 1.375 . S
C304 C305 1.367 . S
C304 H318 0.951 . S
C305 C301 1.383 . S
C305 C304 1.367 . S
C305 H319 0.950 . S
C306 C303 1.481 . S
C306 C307 1.297 1_556 S
C306 H320 0.950 . S
C307 C306 1.297 1_554 S
C307 C308 1.479 . S
C307 H321 0.950 . S
C308 C307 1.479 . S
C308 C309 1.375 . S
C308 C314 1.404 . S
C309 C308 1.375 . S
C309 C310 1.369 . S
C309 H322 0.950 . S
C310 C309 1.369 . S
C310 C311 1.392 . S
C310 H323 0.951 . S
C311 C310 1.392 . S
C311 C313 1.384 . S
H312 C314 0.949 . S
C313 C311 1.384 . S
C313 C314 1.385 . S
C313 H315 0.950 . S
C314 C308 1.404 . S
C314 H312 0.949 . S
C314 C313 1.385 . S
H315 C313 0.950 . S
H316 C300 0.951 . S
H317 C302 0.951 . S
H318 C304 0.951 . S
H319 C305 0.950 . S
H320 C306 0.950 . S
H321 C307 0.950 . S
H322 C309 0.950 . S
H323 C310 0.951 . S
C324 C325 1.386 . S
C324 C326 1.383 . S
C324 H340 0.951 . S
C325 C324 1.386 . S
C325 C329 1.383 . S
C326 C324 1.383 . S
C326 C327 1.402 . S
C326 H341 0.951 . S
C327 C326 1.402 . S
C327 C328 1.375 . S
C327 C330 1.481 . S
C328 C327 1.375 . S
C328 C329 1.367 . S
C328 H342 0.951 . S
C329 C325 1.383 . S
C329 C328 1.367 . S
C329 H343 0.950 . S
C330 C327 1.481 . S
C330 C331 1.297 . S
C330 H344 0.950 . S
C331 C330 1.297 . S
C331 C332 1.479 . S
C331 H345 0.950 . S
C332 C331 1.479 . S
C332 C333 1.375 . S
C332 C338 1.404 . S
C333 C332 1.375 . S
C333 C334 1.369 . S
C333 H346 0.950 . S
C334 C333 1.369 . S
C334 C335 1.392 . S
C334 H347 0.951 . S
C335 C334 1.392 . S
C335 C337 1.384 . S
H336 C338 0.949 . S
C337 C335 1.384 . S
C337 C338 1.385 . S
C337 H339 0.950 . S
C338 C332 1.404 . S
C338 H336 0.949 . S
C338 C337 1.385 . S
H339 C337 0.950 . S
H340 C324 0.951 . S
H341 C326 0.951 . S
H342 C328 0.951 . S
H343 C329 0.950 . S
H344 C330 0.950 . S
H345 C331 0.950 . S
H346 C333 0.950 . S
H347 C334 0.951 . S
C348 C349 1.386 . S
C348 C350 1.383 . S
C348 H364 0.951 . S
C349 C348 1.386 . S
C349 C353 1.383 . S
C350 C348 1.383 . S
C350 C351 1.402 . S
C350 H365 0.951 . S
C351 C350 1.402 . S
C351 C352 1.375 . S
C351 C354 1.481 . S
C352 C351 1.375 . S
C352 C353 1.367 . S
C352 H366 0.951 . S
C353 C349 1.383 . S
C353 C352 1.367 . S
C353 H367 0.950 . S
C354 C351 1.481 . S
C354 C355 1.297 . S
C354 H368 0.950 . S
C355 C354 1.297 . S
C355 C356 1.479 . S
C355 H369 0.950 . S
C356 C355 1.479 . S
C356 C357 1.375 . S
C356 C362 1.404 . S
C357 C356 1.375 . S
C357 C358 1.369 . S
C357 H370 0.950 . S
C358 C357 1.369 . S
C358 C359 1.392 . S
C358 H371 0.951 . S
C359 C358 1.392 . S
C359 C361 1.384 . S
H360 C362 0.949 . S
C361 C359 1.384 . S
C361 C362 1.385 . S
C361 H363 0.950 . S
C362 C356 1.404 . S
C362 H360 0.949 . S
C362 C361 1.385 . S
H363 C361 0.950 . S
H364 C348 0.951 . S
H365 C350 0.951 . S
H366 C352 0.951 . S
H367 C353 0.950 . S
H368 C354 0.950 . S
H369 C355 0.950 . S
H370 C357 0.950 . S
H371 C358 0.951 . S
C85 C11 1.339 . S
C95 C53 1.332 . S
C109 C25 1.336 . S
C119 C67 1.326 . S
C133 C39 1.338 . S
C143 C81 1.331 . S
C157 C19 1.535 . S
C167 C61 1.536 . S
C181 C75 1.545 . S
C191 C33 1.524 . S
C205 C47 1.536 . S
C215 C5 1.530 . S
C229 C28 1.206 . S
C239 C9 1.219 . S
C253 C42 1.198 . S
C263 C23 1.130 . S
C277 C37 1.148 . S
C287 C56 1.149 . S
C301 C70 1.166 . S
C311 C51 1.097 . S
C325 C65 1.120 . S
C335 C0 1.151 . S
C349 C79 1.196 . S
C359 C14 1.220 . S
