# Generated by pormake.
# Topology umq, (4)-cn, num edge types: 1
# Building blocks:
#     Node 0, Type 0, BuildingBlock: QUQFOY_clean_sbu_1, # of connection points: 4
#     Node 1, Type 0, BuildingBlock: QUQFOY_clean_sbu_1, # of connection points: 4
#     Node 2, Type 0, BuildingBlock: QUQFOY_clean_sbu_1, # of connection points: 4
#     Node 3, Type 0, BuildingBlock: QUQFOY_clean_sbu_1, # of connection points: 4
#     Node 4, Type 0, BuildingBlock: QUQFOY_clean_sbu_1, # of connection points: 4
#     Node 5, Type 0, BuildingBlock: QUQFOY_clean_sbu_1, # of connection points: 4
#     Node 6, Type 0, BuildingBlock: QUQFOY_clean_sbu_1, # of connection points: 4
#     Node 7, Type 0, BuildingBlock: QUQFOY_clean_sbu_1, # of connection points: 4
#     Node 8, Type 0, BuildingBlock: QUQFOY_clean_sbu_1, # of connection points: 4
#     Node 9, Type 0, BuildingBlock: QUQFOY_clean_sbu_1, # of connection points: 4
#     Node 10, Type 0, BuildingBlock: QUQFOY_clean_sbu_1, # of connection points: 4
#     Node 11, Type 0, BuildingBlock: QUQFOY_clean_sbu_1, # of connection points: 4
#     Node 12, Type 0, BuildingBlock: QUQFOY_clean_sbu_1, # of connection points: 4
#     Node 13, Type 0, BuildingBlock: QUQFOY_clean_sbu_1, # of connection points: 4
#     Node 14, Type 0, BuildingBlock: QUQFOY_clean_sbu_1, # of connection points: 4
#     Node 15, Type 0, BuildingBlock: QUQFOY_clean_sbu_1, # of connection points: 4
#     Node 16, Type 0, BuildingBlock: QUQFOY_clean_sbu_1, # of connection points: 4
#     Node 17, Type 0, BuildingBlock: QUQFOY_clean_sbu_1, # of connection points: 4
#     Node 18, Type 0, BuildingBlock: QUQFOY_clean_sbu_1, # of connection points: 4
#     Node 19, Type 0, BuildingBlock: QUQFOY_clean_sbu_1, # of connection points: 4
#     Node 20, Type 0, BuildingBlock: QUQFOY_clean_sbu_1, # of connection points: 4
#     Node 21, Type 0, BuildingBlock: QUQFOY_clean_sbu_1, # of connection points: 4
#     Node 22, Type 0, BuildingBlock: QUQFOY_clean_sbu_1, # of connection points: 4
#     Node 23, Type 0, BuildingBlock: QUQFOY_clean_sbu_1, # of connection points: 4
#     Node 24, Type 0, BuildingBlock: QUQFOY_clean_sbu_1, # of connection points: 4
#     Node 25, Type 0, BuildingBlock: QUQFOY_clean_sbu_1, # of connection points: 4
#     Node 26, Type 0, BuildingBlock: QUQFOY_clean_sbu_1, # of connection points: 4
#     Node 27, Type 0, BuildingBlock: QUQFOY_clean_sbu_1, # of connection points: 4
#     Node 28, Type 0, BuildingBlock: QUQFOY_clean_sbu_1, # of connection points: 4
#     Node 29, Type 0, BuildingBlock: QUQFOY_clean_sbu_1, # of connection points: 4
#     Node 30, Type 0, BuildingBlock: QUQFOY_clean_sbu_1, # of connection points: 4
#     Node 31, Type 0, BuildingBlock: QUQFOY_clean_sbu_1, # of connection points: 4
#     Edge 32, Type (0, 0), BuildingBlock: MIFKUJ_clean_linker_0, # of connection points: 2
#     Edge 33, Type (0, 0), BuildingBlock: MIFKUJ_clean_linker_0, # of connection points: 2
#     Edge 34, Type (0, 0), BuildingBlock: MIFKUJ_clean_linker_0, # of connection points: 2
#     Edge 35, Type (0, 0), BuildingBlock: MIFKUJ_clean_linker_0, # of connection points: 2
#     Edge 36, Type (0, 0), BuildingBlock: MIFKUJ_clean_linker_0, # of connection points: 2
#     Edge 37, Type (0, 0), BuildingBlock: MIFKUJ_clean_linker_0, # of connection points: 2
#     Edge 38, Type (0, 0), BuildingBlock: MIFKUJ_clean_linker_0, # of connection points: 2
#     Edge 39, Type (0, 0), BuildingBlock: MIFKUJ_clean_linker_0, # of connection points: 2
#     Edge 40, Type (0, 0), BuildingBlock: MIFKUJ_clean_linker_0, # of connection points: 2
#     Edge 41, Type (0, 0), BuildingBlock: MIFKUJ_clean_linker_0, # of connection points: 2
#     Edge 42, Type (0, 0), BuildingBlock: MIFKUJ_clean_linker_0, # of connection points: 2
#     Edge 43, Type (0, 0), BuildingBlock: MIFKUJ_clean_linker_0, # of connection points: 2
#     Edge 44, Type (0, 0), BuildingBlock: MIFKUJ_clean_linker_0, # of connection points: 2
#     Edge 45, Type (0, 0), BuildingBlock: MIFKUJ_clean_linker_0, # of connection points: 2
#     Edge 46, Type (0, 0), BuildingBlock: MIFKUJ_clean_linker_0, # of connection points: 2
#     Edge 47, Type (0, 0), BuildingBlock: MIFKUJ_clean_linker_0, # of connection points: 2
#     Edge 48, Type (0, 0), BuildingBlock: MIFKUJ_clean_linker_0, # of connection points: 2
#     Edge 49, Type (0, 0), BuildingBlock: MIFKUJ_clean_linker_0, # of connection points: 2
#     Edge 50, Type (0, 0), BuildingBlock: MIFKUJ_clean_linker_0, # of connection points: 2
#     Edge 51, Type (0, 0), BuildingBlock: MIFKUJ_clean_linker_0, # of connection points: 2
#     Edge 52, Type (0, 0), BuildingBlock: MIFKUJ_clean_linker_0, # of connection points: 2
#     Edge 53, Type (0, 0), BuildingBlock: MIFKUJ_clean_linker_0, # of connection points: 2
#     Edge 54, Type (0, 0), BuildingBlock: MIFKUJ_clean_linker_0, # of connection points: 2
#     Edge 55, Type (0, 0), BuildingBlock: MIFKUJ_clean_linker_0, # of connection points: 2
#     Edge 56, Type (0, 0), BuildingBlock: MIFKUJ_clean_linker_0, # of connection points: 2
#     Edge 57, Type (0, 0), BuildingBlock: MIFKUJ_clean_linker_0, # of connection points: 2
#     Edge 58, Type (0, 0), BuildingBlock: MIFKUJ_clean_linker_0, # of connection points: 2
#     Edge 59, Type (0, 0), BuildingBlock: MIFKUJ_clean_linker_0, # of connection points: 2
#     Edge 60, Type (0, 0), BuildingBlock: MIFKUJ_clean_linker_0, # of connection points: 2
#     Edge 61, Type (0, 0), BuildingBlock: MIFKUJ_clean_linker_0, # of connection points: 2
#     Edge 62, Type (0, 0), BuildingBlock: MIFKUJ_clean_linker_0, # of connection points: 2
#     Edge 63, Type (0, 0), BuildingBlock: MIFKUJ_clean_linker_0, # of connection points: 2
#     Edge 64, Type (0, 0), BuildingBlock: MIFKUJ_clean_linker_0, # of connection points: 2
#     Edge 65, Type (0, 0), BuildingBlock: MIFKUJ_clean_linker_0, # of connection points: 2
#     Edge 66, Type (0, 0), BuildingBlock: MIFKUJ_clean_linker_0, # of connection points: 2
#     Edge 67, Type (0, 0), BuildingBlock: MIFKUJ_clean_linker_0, # of connection points: 2
#     Edge 68, Type (0, 0), BuildingBlock: MIFKUJ_clean_linker_0, # of connection points: 2
#     Edge 69, Type (0, 0), BuildingBlock: MIFKUJ_clean_linker_0, # of connection points: 2
#     Edge 70, Type (0, 0), BuildingBlock: MIFKUJ_clean_linker_0, # of connection points: 2
#     Edge 71, Type (0, 0), BuildingBlock: MIFKUJ_clean_linker_0, # of connection points: 2
#     Edge 72, Type (0, 0), BuildingBlock: MIFKUJ_clean_linker_0, # of connection points: 2
#     Edge 73, Type (0, 0), BuildingBlock: MIFKUJ_clean_linker_0, # of connection points: 2
#     Edge 74, Type (0, 0), BuildingBlock: MIFKUJ_clean_linker_0, # of connection points: 2
#     Edge 75, Type (0, 0), BuildingBlock: MIFKUJ_clean_linker_0, # of connection points: 2
#     Edge 76, Type (0, 0), BuildingBlock: MIFKUJ_clean_linker_0, # of connection points: 2
#     Edge 77, Type (0, 0), BuildingBlock: MIFKUJ_clean_linker_0, # of connection points: 2
#     Edge 78, Type (0, 0), BuildingBlock: MIFKUJ_clean_linker_0, # of connection points: 2
#     Edge 79, Type (0, 0), BuildingBlock: MIFKUJ_clean_linker_0, # of connection points: 2
#     Edge 80, Type (0, 0), BuildingBlock: MIFKUJ_clean_linker_0, # of connection points: 2
#     Edge 81, Type (0, 0), BuildingBlock: MIFKUJ_clean_linker_0, # of connection points: 2
#     Edge 82, Type (0, 0), BuildingBlock: MIFKUJ_clean_linker_0, # of connection points: 2
#     Edge 83, Type (0, 0), BuildingBlock: MIFKUJ_clean_linker_0, # of connection points: 2
#     Edge 84, Type (0, 0), BuildingBlock: MIFKUJ_clean_linker_0, # of connection points: 2
#     Edge 85, Type (0, 0), BuildingBlock: MIFKUJ_clean_linker_0, # of connection points: 2
#     Edge 86, Type (0, 0), BuildingBlock: MIFKUJ_clean_linker_0, # of connection points: 2
#     Edge 87, Type (0, 0), BuildingBlock: MIFKUJ_clean_linker_0, # of connection points: 2
#     Edge 88, Type (0, 0), BuildingBlock: MIFKUJ_clean_linker_0, # of connection points: 2
#     Edge 89, Type (0, 0), BuildingBlock: MIFKUJ_clean_linker_0, # of connection points: 2
#     Edge 90, Type (0, 0), BuildingBlock: MIFKUJ_clean_linker_0, # of connection points: 2
#     Edge 91, Type (0, 0), BuildingBlock: MIFKUJ_clean_linker_0, # of connection points: 2
#     Edge 92, Type (0, 0), BuildingBlock: MIFKUJ_clean_linker_0, # of connection points: 2
#     Edge 93, Type (0, 0), BuildingBlock: MIFKUJ_clean_linker_0, # of connection points: 2
#     Edge 94, Type (0, 0), BuildingBlock: MIFKUJ_clean_linker_0, # of connection points: 2
#     Edge 95, Type (0, 0), BuildingBlock: MIFKUJ_clean_linker_0, # of connection points: 2
# Relax obj value: 0.037
# Max RMSD: 0.097
# Mean RMSD: 0.097
data_MOF--net-umq--node1-QUQFOY_clean_sbu_1--edge1-MIFKUJ_clean_linker_0
_symmetry_space_group_name_H-M    P1
_symmetry_Int_Tables_number       1
_symmetry_cell_setting            triclinic
loop_
_symmetry_equiv_pos_as_xyz
'x, y, z'
_cell_length_a     85.183457
_cell_length_b     85.176593
_cell_length_c     65.201027
_cell_angle_alpha  90.004357
_cell_angle_beta   89.999038
_cell_angle_gamma 89.995678
loop_
_atom_site_label
_atom_site_type_symbol
_atom_site_fract_x
_atom_site_fract_y
_atom_site_fract_z
_atom_type_partial_charge
O0 O 0.22249 0.10825 0.19411 0.0
Cd1 Cd 0.24127 0.0967 0.1811 0.0
Cd2 Cd 0.22781 0.11112 0.14541 0.0
O3 O 0.21038 0.11679 0.16631 0.0
O4 O 0.24986 0.08444 0.20459 0.0
O5 O 0.23953 0.07321 0.1772 0.0
C6 C 0.24584 0.07181 0.19512 0.0
C7 C 0.22089 0.10396 0.11181 0.0
C8 C 0.21098 0.11522 0.1857 0.0
C9 C 0.26064 0.12071 0.15861 0.0
O10 O 0.24873 0.12325 0.14734 0.0
O11 O 0.26035 0.10996 0.17212 0.0
O12 O 0.21922 0.11811 0.11842 0.0
O13 O 0.22602 0.09355 0.12457 0.0
O14 O 0.89133 0.22008 0.1938 0.0
Cd15 Cd 0.90239 0.23976 0.18249 0.0
Cd16 Cd 0.8875 0.22722 0.14565 0.0
O17 O 0.88193 0.20917 0.16564 0.0
O18 O 0.91399 0.24685 0.20735 0.0
O19 O 0.92597 0.23967 0.17884 0.0
C20 C 0.9269 0.24435 0.19764 0.0
C21 C 0.89327 0.22113 0.11132 0.0
C22 C 0.88407 0.20897 0.18495 0.0
C23 C 0.87825 0.25977 0.16117 0.0
O24 O 0.87587 0.24835 0.14902 0.0
O25 O 0.88878 0.25894 0.17495 0.0
O26 O 0.87933 0.21972 0.11871 0.0
O27 O 0.90428 0.22551 0.12368 0.0
O28 O 0.77566 0.89007 0.19487 0.0
Cd29 Cd 0.75668 0.90117 0.18173 0.0
Cd30 Cd 0.77121 0.88667 0.14649 0.0
O31 O 0.78858 0.88156 0.1677 0.0
O32 O 0.74822 0.91276 0.20584 0.0
O33 O 0.75718 0.92478 0.17825 0.0
C34 C 0.75145 0.92568 0.19655 0.0
C35 C 0.77811 0.89304 0.11262 0.0
C36 C 0.78751 0.88329 0.18703 0.0
C37 C 0.73824 0.87663 0.15918 0.0
O38 O 0.75045 0.87424 0.1484 0.0
O39 O 0.73798 0.8875 0.17253 0.0
O40 O 0.77999 0.87912 0.11991 0.0
O41 O 0.77287 0.90372 0.1249 0.0
O42 O 0.10822 0.77953 0.19357 0.0
Cd43 Cd 0.09755 0.75998 0.18125 0.0
Cd44 Cd 0.1123 0.77346 0.14546 0.0
O45 O 0.11772 0.79118 0.16599 0.0
O46 O 0.08579 0.75213 0.20559 0.0
O47 O 0.07399 0.75991 0.17722 0.0
C48 C 0.07294 0.75476 0.19581 0.0
C49 C 0.10557 0.77994 0.11159 0.0
C50 C 0.11545 0.79092 0.18526 0.0
C51 C 0.12228 0.74089 0.15963 0.0
O52 O 0.12456 0.75266 0.148 0.0
O53 O 0.11156 0.74117 0.17319 0.0
O54 O 0.11959 0.78184 0.11855 0.0
O55 O 0.09503 0.7748 0.12415 0.0
O56 O 0.22184 0.89104 0.31049 0.0
Cd57 Cd 0.24043 0.90278 0.32362 0.0
Cd58 Cd 0.22683 0.88837 0.35948 0.0
O59 O 0.2097 0.88245 0.33826 0.0
O60 O 0.24914 0.91515 0.30031 0.0
O61 O 0.23839 0.92623 0.32754 0.0
C62 C 0.24491 0.92772 0.30976 0.0
C63 C 0.21936 0.89503 0.39306 0.0
C64 C 0.21036 0.88398 0.31886 0.0
C65 C 0.25995 0.87922 0.34674 0.0
O66 O 0.24804 0.87669 0.35801 0.0
O67 O 0.25956 0.88973 0.33292 0.0
O68 O 0.21812 0.88091 0.38618 0.0
O69 O 0.22437 0.90568 0.38057 0.0
O70 O 0.10855 0.21954 0.31098 0.0
Cd71 Cd 0.09751 0.23896 0.32307 0.0
Cd72 Cd 0.11244 0.22554 0.35925 0.0
O73 O 0.11818 0.208 0.33858 0.0
O74 O 0.08614 0.24672 0.29837 0.0
O75 O 0.07387 0.23883 0.32633 0.0
C76 C 0.07313 0.24398 0.30773 0.0
C77 C 0.10636 0.21876 0.39324 0.0
C78 C 0.11594 0.20825 0.3193 0.0
C79 C 0.12176 0.25839 0.34509 0.0
O80 O 0.12415 0.24667 0.35675 0.0
O81 O 0.11118 0.25793 0.33136 0.0
O82 O 0.12034 0.21733 0.38597 0.0
O83 O 0.09549 0.22355 0.38093 0.0
O84 O 0.77952 0.10667 0.30957 0.0
Cd85 Cd 0.75987 0.09614 0.32181 0.0
Cd86 Cd 0.77359 0.11152 0.35738 0.0
O87 O 0.79147 0.11634 0.33684 0.0
O88 O 0.75209 0.08473 0.29715 0.0
O89 O 0.7594 0.07254 0.32544 0.0
C90 C 0.75444 0.07176 0.30676 0.0
C91 C 0.77949 0.10557 0.39166 0.0
C92 C 0.79106 0.11384 0.31762 0.0
C93 C 0.74099 0.12125 0.34293 0.0
O94 O 0.75288 0.12383 0.3542 0.0
O95 O 0.74109 0.11017 0.32986 0.0
O96 O 0.78156 0.11942 0.3842 0.0
O97 O 0.77467 0.09472 0.37933 0.0
O98 O 0.89146 0.77982 0.31025 0.0
Cd99 Cd 0.90248 0.76001 0.32126 0.0
Cd100 Cd 0.88807 0.77264 0.3586 0.0
O101 O 0.88214 0.79055 0.3386 0.0
O102 O 0.91374 0.75281 0.29617 0.0
O103 O 0.92611 0.75986 0.32444 0.0
C104 C 0.92678 0.75515 0.30563 0.0
C105 C 0.89356 0.77889 0.39299 0.0
C106 C 0.88415 0.79084 0.31928 0.0
C107 C 0.87843 0.74018 0.34298 0.0
O108 O 0.87645 0.75154 0.35535 0.0
O109 O 0.88869 0.74095 0.32887 0.0
O110 O 0.87967 0.78014 0.38542 0.0
O111 O 0.9047 0.7746 0.38077 0.0
O112 O 0.77851 0.89054 0.81124 0.0
Cd113 Cd 0.75951 0.90186 0.82407 0.0
Cd114 Cd 0.77345 0.88735 0.85953 0.0
O115 O 0.79115 0.88236 0.8388 0.0
O116 O 0.75129 0.91343 0.79979 0.0
O117 O 0.76015 0.92547 0.82743 0.0
C118 C 0.75451 0.92636 0.80908 0.0
C119 C 0.77982 0.89383 0.89351 0.0
C120 C 0.7903 0.8839 0.81943 0.0
C121 C 0.74068 0.87743 0.84633 0.0
O122 O 0.75281 0.87478 0.85715 0.0
O123 O 0.74061 0.88845 0.83319 0.0
O124 O 0.78194 0.87992 0.88631 0.0
O125 O 0.77463 0.90445 0.8811 0.0
O126 O 0.10887 0.77655 0.81017 0.0
Cd127 Cd 0.09795 0.75728 0.8228 0.0
Cd128 Cd 0.11181 0.77134 0.85877 0.0
O129 O 0.11703 0.78894 0.83793 0.0
O130 O 0.08605 0.74917 0.79873 0.0
O131 O 0.07443 0.75764 0.8269 0.0
C132 C 0.07327 0.7522 0.80847 0.0
C133 C 0.10537 0.77826 0.89262 0.0
C134 C 0.11548 0.78827 0.81855 0.0
C135 C 0.12231 0.73863 0.84542 0.0
O136 O 0.12429 0.75059 0.8568 0.0
O137 O 0.1118 0.73859 0.83159 0.0
O138 O 0.11931 0.7801 0.88538 0.0
O139 O 0.09472 0.77294 0.88035 0.0
O140 O 0.2218 0.10745 0.81192 0.0
Cd141 Cd 0.24033 0.09553 0.82491 0.0
Cd142 Cd 0.22726 0.11053 0.86045 0.0
O143 O 0.20984 0.11638 0.83961 0.0
O144 O 0.24838 0.08307 0.80128 0.0
O145 O 0.23836 0.07208 0.82901 0.0
C146 C 0.24435 0.07052 0.81092 0.0
C147 C 0.22037 0.10362 0.89413 0.0
C148 C 0.21042 0.11468 0.82023 0.0
C149 C 0.26032 0.11918 0.84707 0.0
O150 O 0.24849 0.12214 0.85831 0.0
O151 O 0.25974 0.10835 0.83369 0.0
O152 O 0.21894 0.11778 0.88746 0.0
O153 O 0.22524 0.09308 0.88138 0.0
O154 O 0.89153 0.22114 0.80949 0.0
Cd155 Cd 0.90252 0.24053 0.82166 0.0
Cd156 Cd 0.88757 0.22678 0.85783 0.0
O157 O 0.88197 0.2093 0.83692 0.0
O158 O 0.91405 0.24829 0.79708 0.0
O159 O 0.92613 0.24034 0.82515 0.0
C160 C 0.92699 0.24549 0.80656 0.0
C161 C 0.89323 0.22007 0.892 0.0
C162 C 0.88422 0.20974 0.81764 0.0
C163 C 0.87833 0.25981 0.84388 0.0
O164 O 0.87603 0.24801 0.85542 0.0
O165 O 0.88883 0.25947 0.83003 0.0
O166 O 0.87933 0.21873 0.88447 0.0
O167 O 0.90429 0.2246 0.8798 0.0
O168 O 0.77917 0.10806 0.69357 0.0
Cd169 Cd 0.75944 0.09678 0.68282 0.0
Cd170 Cd 0.77123 0.11223 0.64563 0.0
O171 O 0.78932 0.11824 0.66537 0.0
O172 O 0.75291 0.08533 0.70806 0.0
O173 O 0.75951 0.07316 0.67944 0.0
C174 C 0.75522 0.07236 0.69841 0.0
C175 C 0.77707 0.10671 0.61114 0.0
C176 C 0.78991 0.11581 0.68461 0.0
C177 C 0.73867 0.12061 0.66202 0.0
O178 O 0.74982 0.12321 0.64951 0.0
O179 O 0.73997 0.11015 0.67583 0.0
O180 O 0.77818 0.12067 0.61856 0.0
O181 O 0.77315 0.09556 0.62354 0.0
O182 O 0.89183 0.77884 0.69436 0.0
Cd183 Cd 0.90269 0.75904 0.68306 0.0
Cd184 Cd 0.88703 0.77163 0.64642 0.0
O185 O 0.88115 0.78938 0.66672 0.0
O186 O 0.91382 0.75182 0.70822 0.0
O187 O 0.92635 0.75877 0.68004 0.0
C188 C 0.92691 0.75411 0.69887 0.0
C189 C 0.89291 0.77808 0.61226 0.0
C190 C 0.88397 0.78972 0.68587 0.0
C191 C 0.87847 0.73888 0.66172 0.0
O192 O 0.87588 0.75025 0.64957 0.0
O193 O 0.889 0.73989 0.67549 0.0
O194 O 0.8789 0.77922 0.61951 0.0
O195 O 0.90391 0.77376 0.62468 0.0
O196 O 0.21909 0.89104 0.69258 0.0
Cd197 Cd 0.23816 0.90247 0.68017 0.0
Cd198 Cd 0.22522 0.88662 0.64439 0.0
O199 O 0.20786 0.88064 0.66523 0.0
O200 O 0.24629 0.9138 0.70471 0.0
O201 O 0.23726 0.92615 0.67743 0.0
C202 C 0.24297 0.92683 0.69575 0.0
C203 C 0.21831 0.89348 0.61072 0.0
C204 C 0.20803 0.8832 0.68445 0.0
C205 C 0.25825 0.87844 0.65831 0.0
O206 O 0.24661 0.87539 0.64679 0.0
O207 O 0.25742 0.88926 0.67168 0.0
O208 O 0.21711 0.87928 0.61733 0.0
O209 O 0.22297 0.90408 0.62353 0.0
O210 O 0.10869 0.21961 0.69466 0.0
Cd211 Cd 0.09793 0.23918 0.68249 0.0
Cd212 Cd 0.11309 0.22578 0.64646 0.0
O213 O 0.11868 0.20822 0.66717 0.0
O214 O 0.08622 0.24692 0.70693 0.0
O215 O 0.07436 0.23921 0.67858 0.0
C216 C 0.07335 0.24432 0.69718 0.0
C217 C 0.10716 0.21906 0.61239 0.0
C218 C 0.11619 0.20837 0.6864 0.0
C219 C 0.12244 0.25857 0.66085 0.0
O220 O 0.1248 0.24688 0.64913 0.0
O221 O 0.11181 0.2581 0.67453 0.0
O222 O 0.12111 0.21764 0.61976 0.0
O223 O 0.09623 0.22379 0.62466 0.0
O224 O 0.72072 0.60862 0.69391 0.0
Cd225 Cd 0.73961 0.59668 0.68184 0.0
Cd226 Cd 0.72744 0.61186 0.64531 0.0
O227 O 0.70998 0.61828 0.66576 0.0
O228 O 0.74749 0.58469 0.70599 0.0
O229 O 0.7378 0.57314 0.67845 0.0
C230 C 0.74369 0.57195 0.69663 0.0
C231 C 0.72054 0.60531 0.6115 0.0
C232 C 0.70985 0.61629 0.6851 0.0
C233 C 0.76037 0.61996 0.65979 0.0
O234 O 0.74895 0.62287 0.64783 0.0
O235 O 0.75919 0.60945 0.67354 0.0
O236 O 0.71962 0.61949 0.61823 0.0
O237 O 0.72495 0.59456 0.62422 0.0
O238 O 0.39157 0.72189 0.69518 0.0
Cd239 Cd 0.40233 0.74141 0.68297 0.0
Cd240 Cd 0.38718 0.72791 0.647 0.0
O241 O 0.38168 0.71035 0.66775 0.0
O242 O 0.41361 0.74933 0.70766 0.0
O243 O 0.42597 0.74152 0.67973 0.0
C244 C 0.42665 0.7467 0.69832 0.0
C245 C 0.39372 0.72114 0.61316 0.0
C246 C 0.38414 0.71058 0.68698 0.0
C247 C 0.37783 0.76072 0.66099 0.0
O248 O 0.37534 0.74898 0.64939 0.0
O249 O 0.3885 0.76026 0.67461 0.0
O250 O 0.37969 0.71952 0.62018 0.0
O251 O 0.40438 0.72614 0.62565 0.0
O252 O 0.27763 0.39217 0.69485 0.0
Cd253 Cd 0.25904 0.40331 0.68083 0.0
Cd254 Cd 0.27329 0.38813 0.64647 0.0
O255 O 0.29043 0.38297 0.66798 0.0
O256 O 0.2503 0.41604 0.70378 0.0
O257 O 0.26057 0.4267 0.67599 0.0
C258 C 0.25427 0.42848 0.69386 0.0
C259 C 0.28042 0.39453 0.61271 0.0
C260 C 0.28936 0.38504 0.68725 0.0
C261 C 0.24024 0.37865 0.65896 0.0
O262 O 0.25243 0.37588 0.64831 0.0
O263 O 0.24014 0.38977 0.67195 0.0
O264 O 0.28221 0.38059 0.61997 0.0
O265 O 0.27512 0.40521 0.62497 0.0
O266 O 0.6075 0.27884 0.69497 0.0
Cd267 Cd 0.5961 0.25949 0.68329 0.0
Cd268 Cd 0.61209 0.27178 0.64691 0.0
O269 O 0.61821 0.28936 0.66735 0.0
O270 O 0.5845 0.25236 0.70814 0.0
O271 O 0.57246 0.26001 0.67991 0.0
C272 C 0.57157 0.25515 0.69863 0.0
C273 C 0.6066 0.27845 0.6127 0.0
C274 C 0.61553 0.28962 0.68654 0.0
C275 C 0.61998 0.23886 0.66219 0.0
O276 O 0.62289 0.25022 0.65012 0.0
O277 O 0.60934 0.24003 0.67578 0.0
O278 O 0.62056 0.27936 0.62017 0.0
O279 O 0.59544 0.2742 0.62491 0.0
O280 O 0.72184 0.39066 0.81135 0.0
Cd281 Cd 0.7402 0.40262 0.82465 0.0
Cd282 Cd 0.7269 0.38806 0.86022 0.0
O283 O 0.70978 0.38192 0.83907 0.0
O284 O 0.74871 0.41535 0.80155 0.0
O285 O 0.73773 0.426 0.82893 0.0
C286 C 0.74424 0.42775 0.81118 0.0
C287 C 0.71956 0.39503 0.89372 0.0
C288 C 0.71044 0.38345 0.81968 0.0
C289 C 0.76004 0.3792 0.84741 0.0
O290 O 0.74818 0.3765 0.85871 0.0
O291 O 0.75951 0.38978 0.83369 0.0
O292 O 0.71832 0.38084 0.88709 0.0
O293 O 0.72447 0.40557 0.88101 0.0
O294 O 0.60792 0.72201 0.81031 0.0
Cd295 Cd 0.59679 0.74079 0.82392 0.0
Cd296 Cd 0.61153 0.7262 0.85867 0.0
O297 O 0.61682 0.70908 0.83724 0.0
O298 O 0.58513 0.74944 0.79996 0.0
O299 O 0.5732 0.74029 0.82753 0.0
C300 C 0.57224 0.74616 0.80931 0.0
C301 C 0.60438 0.71879 0.89203 0.0
C302 C 0.61492 0.71021 0.81795 0.0
C303 C 0.62131 0.75926 0.84679 0.0
O304 O 0.62397 0.74699 0.85733 0.0
O305 O 0.61036 0.75947 0.83355 0.0
O306 O 0.61844 0.71688 0.88521 0.0
O307 O 0.59403 0.72448 0.87959 0.0
O308 O 0.28003 0.6081 0.8119 0.0
Cd309 Cd 0.26106 0.59647 0.82423 0.0
Cd310 Cd 0.27476 0.61078 0.86067 0.0
O311 O 0.29214 0.61654 0.83975 0.0
O312 O 0.25265 0.58537 0.79968 0.0
O313 O 0.26198 0.57281 0.82664 0.0
C314 C 0.25606 0.57227 0.80843 0.0
C315 C 0.2818 0.6048 0.89464 0.0
C316 C 0.29153 0.61504 0.82036 0.0
C317 C 0.24175 0.62019 0.84732 0.0
O318 O 0.25364 0.62259 0.85868 0.0
O319 O 0.24206 0.60969 0.83349 0.0
O320 O 0.28316 0.61875 0.88726 0.0
O321 O 0.27699 0.59388 0.88241 0.0
O322 O 0.38924 0.27896 0.81284 0.0
Cd323 Cd 0.40081 0.25963 0.82431 0.0
Cd324 Cd 0.38583 0.27206 0.86109 0.0
O325 O 0.37944 0.2897 0.84089 0.0
O326 O 0.41239 0.25262 0.79939 0.0
O327 O 0.42442 0.26023 0.82768 0.0
C328 C 0.42531 0.25544 0.80892 0.0
C329 C 0.39242 0.2789 0.89491 0.0
C330 C 0.3816 0.28988 0.82159 0.0
C331 C 0.37739 0.23913 0.84634 0.0
O332 O 0.37481 0.25055 0.85843 0.0
O333 O 0.38772 0.24019 0.83233 0.0
O334 O 0.37822 0.27972 0.88824 0.0
O335 O 0.40317 0.27459 0.88211 0.0
O336 O 0.27761 0.39127 0.31094 0.0
Cd337 Cd 0.25876 0.40262 0.32404 0.0
Cd338 Cd 0.2725 0.38818 0.35964 0.0
O339 O 0.28997 0.38289 0.33863 0.0
O340 O 0.25041 0.41518 0.30068 0.0
O341 O 0.2602 0.42603 0.32865 0.0
C342 C 0.25418 0.42769 0.31059 0.0
C343 C 0.27946 0.39419 0.39363 0.0
C344 C 0.28926 0.38446 0.31925 0.0
C345 C 0.23964 0.37841 0.34626 0.0
O346 O 0.25161 0.37599 0.35746 0.0
O347 O 0.23975 0.38918 0.33278 0.0
O348 O 0.28107 0.38029 0.38619 0.0
O349 O 0.27441 0.40505 0.38148 0.0
O350 O 0.60864 0.27856 0.31144 0.0
Cd351 Cd 0.59764 0.25935 0.32421 0.0
Cd352 Cd 0.61335 0.27309 0.35948 0.0
O353 O 0.61858 0.29056 0.3385 0.0
O354 O 0.58616 0.25133 0.29973 0.0
O355 O 0.57399 0.25965 0.32755 0.0
C356 C 0.57318 0.2543 0.30905 0.0
C357 C 0.60711 0.2798 0.39342 0.0
C358 C 0.61608 0.29 0.31928 0.0
C359 C 0.62231 0.24011 0.34586 0.0
O360 O 0.62524 0.25206 0.35689 0.0
O361 O 0.61123 0.24038 0.33281 0.0
O362 O 0.62107 0.2815 0.38618 0.0
O363 O 0.59635 0.2748 0.38109 0.0
O364 O 0.7194 0.60814 0.31185 0.0
Cd365 Cd 0.73904 0.59736 0.32373 0.0
Cd366 Cd 0.72588 0.6126 0.35978 0.0
O367 O 0.70806 0.61808 0.33939 0.0
O368 O 0.7467 0.58603 0.29893 0.0
O369 O 0.7392 0.57371 0.32702 0.0
C370 C 0.74418 0.573 0.30833 0.0
C371 C 0.71949 0.60588 0.3937 0.0
C372 C 0.70816 0.61559 0.32016 0.0
C373 C 0.75846 0.6221 0.34495 0.0
O374 O 0.74685 0.62453 0.35679 0.0
O375 O 0.75794 0.61132 0.33148 0.0
O376 O 0.71793 0.61999 0.3869 0.0
O377 O 0.72427 0.59528 0.38097 0.0
O378 O 0.39139 0.72206 0.31127 0.0
Cd379 Cd 0.40282 0.74129 0.32324 0.0
Cd380 Cd 0.38892 0.72784 0.3601 0.0
O381 O 0.3832 0.71025 0.33947 0.0
O382 O 0.41412 0.74946 0.29871 0.0
O383 O 0.42645 0.74038 0.32602 0.0
C384 C 0.42714 0.74609 0.30769 0.0
C385 C 0.39495 0.72094 0.3941 0.0
C386 C 0.38462 0.7106 0.32005 0.0
C387 C 0.37914 0.76066 0.34633 0.0
O388 O 0.377 0.74888 0.35796 0.0
O389 O 0.38947 0.76028 0.33227 0.0
O390 O 0.38102 0.71946 0.38673 0.0
O391 O 0.40583 0.72584 0.38188 0.0
O392 O 0.27884 0.60832 0.19618 0.0
Cd393 Cd 0.25983 0.5971 0.18329 0.0
Cd394 Cd 0.27385 0.61203 0.14764 0.0
O395 O 0.29114 0.61745 0.16884 0.0
O396 O 0.25128 0.58548 0.20734 0.0
O397 O 0.26072 0.57349 0.18 0.0
C398 C 0.25473 0.57256 0.19815 0.0
C399 C 0.28095 0.60612 0.11369 0.0
C400 C 0.29041 0.61546 0.18815 0.0
C401 C 0.24081 0.62141 0.16086 0.0
O402 O 0.25281 0.62394 0.14975 0.0
O403 O 0.24094 0.61063 0.17433 0.0
O404 O 0.28235 0.62005 0.12113 0.0
O405 O 0.27608 0.59518 0.12584 0.0
O406 O 0.39181 0.27996 0.19476 0.0
Cd407 Cd 0.40274 0.26028 0.18318 0.0
Cd408 Cd 0.38784 0.27333 0.14655 0.0
O409 O 0.38176 0.2909 0.16699 0.0
O410 O 0.41421 0.25288 0.20801 0.0
O411 O 0.42635 0.26026 0.17971 0.0
C412 C 0.42717 0.2554 0.19844 0.0
C413 C 0.39406 0.28015 0.1126 0.0
C414 C 0.3842 0.291 0.18623 0.0
C415 C 0.37867 0.24052 0.16122 0.0
O416 O 0.37646 0.25204 0.14917 0.0
O417 O 0.389 0.24124 0.17527 0.0
O418 O 0.37998 0.28118 0.11961 0.0
O419 O 0.40493 0.27568 0.12513 0.0
O420 O 0.72046 0.39135 0.19333 0.0
Cd421 Cd 0.73981 0.40274 0.18164 0.0
Cd422 Cd 0.72707 0.38782 0.14508 0.0
O423 O 0.70939 0.38174 0.1654 0.0
O424 O 0.74705 0.41426 0.20652 0.0
O425 O 0.73944 0.42637 0.1783 0.0
C426 C 0.7443 0.42721 0.19703 0.0
C427 C 0.72036 0.39458 0.11127 0.0
C428 C 0.70939 0.38385 0.18471 0.0
C429 C 0.75989 0.37889 0.15974 0.0
O430 O 0.74838 0.3764 0.14775 0.0
O431 O 0.75905 0.38936 0.1736 0.0
O432 O 0.71919 0.3804 0.11793 0.0
O433 O 0.72495 0.40522 0.12406 0.0
O434 O 0.60685 0.71921 0.193 0.0
Cd435 Cd 0.59576 0.73807 0.17951 0.0
Cd436 Cd 0.61016 0.72404 0.14437 0.0
O437 O 0.6154 0.7067 0.16552 0.0
O438 O 0.58341 0.74688 0.20275 0.0
O439 O 0.57232 0.73693 0.17504 0.0
C440 C 0.57081 0.7432 0.19297 0.0
C441 C 0.60346 0.717 0.11068 0.0
C442 C 0.6137 0.7075 0.18487 0.0
C443 C 0.62023 0.75681 0.15705 0.0
O444 O 0.6227 0.74471 0.14611 0.0
O445 O 0.60936 0.75688 0.17039 0.0
O446 O 0.61742 0.71502 0.1178 0.0
O447 O 0.59294 0.72249 0.123 0.0
H448 H 0.35519 0.23539 0.13349 0.0
H449 H 0.33694 0.21337 0.13224 0.0
H450 H 0.36051 0.19182 0.18355 0.0
H451 H 0.37899 0.21384 0.18489 0.0
H452 H 0.352 0.17017 0.15336 0.0
H453 H 0.32801 0.21127 0.19245 0.0
H454 H 0.31915 0.2383 0.19947 0.0
H455 H 0.28879 0.23661 0.14694 0.0
H456 H 0.29765 0.20963 0.13943 0.0
H457 H 0.28775 0.11988 0.1813 0.0
H458 H 0.30951 0.1386 0.18038 0.0
H459 H 0.28685 0.16365 0.13109 0.0
H460 H 0.26501 0.14513 0.13201 0.0
H461 H 0.29553 0.18309 0.16144 0.0
H462 H 0.31959 0.14166 0.12253 0.0
H463 H 0.32856 0.11461 0.11588 0.0
H464 H 0.35864 0.1167 0.16865 0.0
H465 H 0.34969 0.14371 0.17578 0.0
C466 C 0.35663 0.22593 0.14443 0.0
C467 C 0.36848 0.22647 0.15944 0.0
C468 C 0.34615 0.21336 0.1437 0.0
C469 C 0.34724 0.20109 0.15798 0.0
C470 C 0.35945 0.20121 0.17243 0.0
C471 C 0.36996 0.21383 0.1732 0.0
C472 C 0.33513 0.18861 0.15837 0.0
C473 C 0.33966 0.17293 0.15539 0.0
C474 C 0.31903 0.19229 0.16074 0.0
C475 C 0.31361 0.20848 0.16527 0.0
C476 C 0.31954 0.2167 0.1823 0.0
C477 C 0.3145 0.23201 0.18638 0.0
C478 C 0.30345 0.23918 0.17363 0.0
C479 C 0.29737 0.23105 0.15679 0.0
C480 C 0.30239 0.21574 0.15262 0.0
C481 C 0.28747 0.12926 0.17009 0.0
C482 C 0.27458 0.13104 0.1568 0.0
C483 C 0.29996 0.13992 0.16954 0.0
C484 C 0.29982 0.15249 0.15562 0.0
C485 C 0.28717 0.15404 0.14198 0.0
C486 C 0.27471 0.14341 0.14251 0.0
C487 C 0.31231 0.16462 0.15608 0.0
C488 C 0.30785 0.18028 0.15937 0.0
C489 C 0.32843 0.16088 0.15407 0.0
C490 C 0.33384 0.14465 0.14981 0.0
C491 C 0.32801 0.1363 0.13282 0.0
C492 C 0.33312 0.12099 0.12894 0.0
C493 C 0.34413 0.11393 0.14187 0.0
C494 C 0.3501 0.12218 0.15867 0.0
C495 C 0.34502 0.1375 0.16263 0.0
H496 H 0.34807 0.10207 0.13884 0.0
H497 H 0.29956 0.25103 0.17682 0.0
H498 H 0.85419 0.26516 0.13432 0.0
H499 H 0.83662 0.28772 0.13317 0.0
H500 H 0.86187 0.30913 0.18323 0.0
H501 H 0.87942 0.28642 0.18476 0.0
H502 H 0.8309 0.31012 0.18963 0.0
H503 H 0.86518 0.32341 0.13414 0.0
H504 H 0.87981 0.31865 0.10211 0.0
H505 H 0.83654 0.31078 0.06994 0.0
H506 H 0.82164 0.3153 0.10185 0.0
H507 H 0.78668 0.38036 0.18299 0.0
H508 H 0.80915 0.36251 0.18202 0.0
H509 H 0.78767 0.33685 0.13238 0.0
H510 H 0.7653 0.35475 0.13297 0.0
H511 H 0.81876 0.33996 0.12623 0.0
H512 H 0.78485 0.32387 0.18154 0.0
H513 H 0.76972 0.32749 0.21345 0.0
H514 H 0.81197 0.33967 0.24567 0.0
H515 H 0.82732 0.33632 0.21387 0.0
C516 C 0.85613 0.27471 0.14501 0.0
C517 C 0.86823 0.27395 0.15966 0.0
C518 C 0.8461 0.28766 0.14424 0.0
C519 C 0.84803 0.30021 0.15796 0.0
C520 C 0.8602 0.29959 0.17246 0.0
C521 C 0.87023 0.28661 0.17328 0.0
C522 C 0.83682 0.31354 0.15782 0.0
C523 C 0.82849 0.31686 0.17588 0.0
C524 C 0.83339 0.32208 0.13974 0.0
C525 C 0.8423 0.31959 0.12044 0.0
C526 C 0.85878 0.32058 0.12027 0.0
C527 C 0.86712 0.31793 0.10213 0.0
C528 C 0.85911 0.31438 0.08401 0.0
C529 C 0.84273 0.31353 0.08399 0.0
C530 C 0.83433 0.31616 0.10209 0.0
C531 C 0.78679 0.37101 0.17172 0.0
C532 C 0.7741 0.36891 0.15818 0.0
C533 C 0.79963 0.36079 0.17124 0.0
C534 C 0.79998 0.34822 0.15732 0.0
C535 C 0.78763 0.34646 0.14326 0.0
C536 C 0.77482 0.35668 0.14369 0.0
C537 C 0.81279 0.33642 0.158 0.0
C538 C 0.82136 0.33336 0.14005 0.0
C539 C 0.8164 0.32804 0.17614 0.0
C540 C 0.8072 0.33003 0.19528 0.0
C541 C 0.79089 0.32745 0.1954 0.0
C542 C 0.78228 0.32943 0.21347 0.0
C543 C 0.78987 0.33386 0.23156 0.0
C544 C 0.8061 0.33627 0.23164 0.0
C545 C 0.81476 0.33433 0.2136 0.0
H546 H 0.78318 0.33538 0.24554 0.0
H547 H 0.86559 0.31231 0.06999 0.0
H548 H 0.61849 0.78497 0.17737 0.0
H549 H 0.63708 0.80681 0.17568 0.0
H550 H 0.66421 0.78179 0.13038 0.0
H551 H 0.64579 0.75989 0.13201 0.0
H552 H 0.68231 0.79248 0.16145 0.0
H553 H 0.6427 0.81331 0.1168 0.0
H554 H 0.61597 0.82135 0.10681 0.0
H555 H 0.6149 0.85471 0.15617 0.0
H556 H 0.64156 0.84671 0.16664 0.0
H557 H 0.73524 0.85168 0.13312 0.0
H558 H 0.71369 0.8329 0.13126 0.0
H559 H 0.68869 0.85856 0.17799 0.0
H560 H 0.71021 0.87756 0.17993 0.0
H561 H 0.6691 0.84809 0.14663 0.0
H562 H 0.70833 0.82704 0.19161 0.0
H563 H 0.73503 0.81907 0.20184 0.0
H564 H 0.73657 0.78597 0.1522 0.0
H565 H 0.70994 0.79392 0.14148 0.0
C566 C 0.62832 0.78417 0.16689 0.0
C567 C 0.63067 0.77063 0.1549 0.0
C568 C 0.6389 0.7967 0.16589 0.0
C569 C 0.65199 0.79594 0.15285 0.0
C570 C 0.65418 0.7826 0.14056 0.0
C571 C 0.64361 0.77011 0.14149 0.0
C572 C 0.66394 0.80859 0.1529 0.0
C573 C 0.67945 0.8046 0.15791 0.0
C574 C 0.66011 0.82447 0.14889 0.0
C575 C 0.64407 0.82929 0.14264 0.0
C576 C 0.63671 0.82226 0.12565 0.0
C577 C 0.62159 0.82683 0.11987 0.0
C578 C 0.61372 0.8385 0.13089 0.0
C579 C 0.62099 0.84565 0.14767 0.0
C580 C 0.63612 0.84111 0.15352 0.0
C581 C 0.72512 0.85346 0.1429 0.0
C582 C 0.72454 0.86606 0.15684 0.0
C583 C 0.71282 0.84268 0.14183 0.0
C584 C 0.69971 0.84423 0.15469 0.0
C585 C 0.69874 0.85715 0.16798 0.0
C586 C 0.71108 0.86795 0.1691 0.0
C587 C 0.68745 0.8319 0.15494 0.0
C588 C 0.67191 0.83595 0.15011 0.0
C589 C 0.69121 0.81605 0.15917 0.0
C590 C 0.7072 0.81119 0.16562 0.0
C591 C 0.71441 0.81815 0.18277 0.0
C592 C 0.72952 0.81362 0.18867 0.0
C593 C 0.73751 0.80205 0.17764 0.0
C594 C 0.73038 0.79495 0.16071 0.0
C595 C 0.71527 0.79946 0.15472 0.0
H596 H 0.7492 0.79855 0.18224 0.0
H597 H 0.60201 0.84202 0.12638 0.0
H598 H 0.23666 0.64562 0.13389 0.0
H599 H 0.21495 0.66426 0.13261 0.0
H600 H 0.19187 0.6397 0.18196 0.0
H601 H 0.21353 0.62083 0.18328 0.0
H602 H 0.17101 0.64938 0.15195 0.0
H603 H 0.21206 0.6718 0.19273 0.0
H604 H 0.23913 0.68012 0.20058 0.0
H605 H 0.23841 0.71172 0.14928 0.0
H606 H 0.2114 0.70342 0.14094 0.0
H607 H 0.12138 0.7136 0.18198 0.0
H608 H 0.13999 0.69173 0.18067 0.0
H609 H 0.16546 0.71499 0.13225 0.0
H610 H 0.14705 0.7369 0.1335 0.0
H611 H 0.18468 0.70542 0.16269 0.0
H612 H 0.14327 0.68301 0.12216 0.0
H613 H 0.11615 0.67464 0.11472 0.0
H614 H 0.11731 0.64317 0.16615 0.0
H615 H 0.14438 0.65152 0.17408 0.0
C616 C 0.22692 0.64405 0.14437 0.0
C617 C 0.22693 0.6318 0.15884 0.0
C618 C 0.21453 0.65475 0.14363 0.0
C619 C 0.20193 0.6535 0.1574 0.0
C620 C 0.20152 0.6409 0.17124 0.0
C621 C 0.21394 0.63016 0.17201 0.0
C622 C 0.18965 0.66582 0.15796 0.0
C623 C 0.17394 0.66161 0.15455 0.0
C624 C 0.19354 0.6818 0.16107 0.0
C625 C 0.20976 0.68687 0.16609 0.0
C626 C 0.21772 0.68043 0.18302 0.0
C627 C 0.23304 0.68516 0.18758 0.0
C628 C 0.2405 0.69641 0.1754 0.0
C629 C 0.23263 0.70299 0.15868 0.0
C630 C 0.21731 0.69829 0.15404 0.0
C631 C 0.13085 0.714 0.17091 0.0
C632 C 0.13275 0.72705 0.15791 0.0
C633 C 0.14144 0.70146 0.17013 0.0
C634 C 0.15408 0.70172 0.15631 0.0
C635 C 0.15581 0.71457 0.14305 0.0
C636 C 0.14524 0.72708 0.14378 0.0
C637 C 0.16602 0.68905 0.15638 0.0
C638 C 0.18171 0.69319 0.16004 0.0
C639 C 0.16206 0.67305 0.15357 0.0
C640 C 0.14579 0.66801 0.14884 0.0
C641 C 0.13769 0.67441 0.132 0.0
C642 C 0.12234 0.66965 0.12767 0.0
C643 C 0.115 0.65841 0.13999 0.0
C644 C 0.12301 0.65189 0.15664 0.0
C645 C 0.13836 0.65662 0.16105 0.0
H646 H 0.10311 0.65474 0.13661 0.0
H647 H 0.25236 0.70006 0.17896 0.0
H648 H 0.28623 0.87862 0.32246 0.0
H649 H 0.30807 0.86001 0.32413 0.0
H650 H 0.28753 0.8386 0.37773 0.0
H651 H 0.26556 0.85693 0.37601 0.0
H652 H 0.33041 0.85235 0.35226 0.0
H653 H 0.29172 0.7992 0.3746 0.0
H654 H 0.26436 0.79017 0.37068 0.0
H655 H 0.25955 0.81783 0.31598 0.0
H656 H 0.28693 0.82684 0.31942 0.0
H657 H 0.35653 0.76577 0.37532 0.0
H658 H 0.33822 0.78772 0.37745 0.0
H659 H 0.35981 0.80895 0.32443 0.0
H660 H 0.37837 0.7871 0.32231 0.0
H661 H 0.31677 0.79575 0.34961 0.0
H662 H 0.3551 0.84906 0.32711 0.0
H663 H 0.38253 0.85802 0.33028 0.0
H664 H 0.38838 0.82978 0.3843 0.0
H665 H 0.36094 0.82082 0.38161 0.0
C666 C 0.28643 0.87005 0.33473 0.0
C667 C 0.27403 0.86915 0.34895 0.0
C668 C 0.29895 0.85945 0.33569 0.0
C669 C 0.29929 0.84777 0.35084 0.0
C670 C 0.28735 0.84735 0.36567 0.0
C671 C 0.27481 0.85787 0.36469 0.0
C672 C 0.31163 0.83548 0.35054 0.0
C673 C 0.32747 0.83997 0.35146 0.0
C674 C 0.30775 0.81933 0.34978 0.0
C675 C 0.29132 0.81382 0.34741 0.0
C676 C 0.28483 0.80331 0.3617 0.0
C677 C 0.26932 0.7982 0.35957 0.0
C678 C 0.2602 0.80347 0.34313 0.0
C679 C 0.2666 0.81381 0.32875 0.0
C680 C 0.28211 0.81893 0.3308 0.0
C681 C 0.35753 0.77517 0.36422 0.0
C682 C 0.3689 0.77463 0.34858 0.0
C683 C 0.34702 0.78771 0.36546 0.0
C684 C 0.34767 0.8 0.35116 0.0
C685 C 0.35923 0.7997 0.3358 0.0
C686 C 0.36979 0.78716 0.33457 0.0
C687 C 0.3356 0.81256 0.35158 0.0
C688 C 0.31977 0.80811 0.35053 0.0
C689 C 0.33952 0.82871 0.35212 0.0
C690 C 0.356 0.83414 0.35402 0.0
C691 C 0.36223 0.8448 0.3397 0.0
C692 C 0.37778 0.84988 0.34141 0.0
C693 C 0.38721 0.84443 0.35744 0.0
C694 C 0.38109 0.83394 0.37184 0.0
C695 C 0.36554 0.82884 0.37021 0.0
H696 H 0.39925 0.84837 0.35873 0.0
H697 H 0.24819 0.79951 0.34152 0.0
H698 H 0.21233 0.37902 0.32392 0.0
H699 H 0.19067 0.3602 0.32527 0.0
H700 H 0.21396 0.33531 0.37419 0.0
H701 H 0.2357 0.35393 0.37286 0.0
H702 H 0.20496 0.31578 0.34405 0.0
H703 H 0.18134 0.3572 0.38342 0.0
H704 H 0.17243 0.38423 0.39025 0.0
H705 H 0.14166 0.38208 0.33816 0.0
H706 H 0.15056 0.35508 0.33085 0.0
H707 H 0.14557 0.2632 0.37247 0.0
H708 H 0.16387 0.28519 0.37374 0.0
H709 H 0.13973 0.30726 0.32326 0.0
H710 H 0.1212 0.28531 0.32193 0.0
H711 H 0.14858 0.32863 0.35329 0.0
H712 H 0.17222 0.2876 0.31363 0.0
H713 H 0.18102 0.26059 0.30642 0.0
H714 H 0.21188 0.26223 0.35846 0.0
H715 H 0.20307 0.28919 0.36616 0.0
C716 C 0.21277 0.36965 0.33513 0.0
C717 C 0.22581 0.36795 0.34821 0.0
C718 C 0.20035 0.35893 0.33592 0.0
C719 C 0.20069 0.34638 0.34988 0.0
C720 C 0.21348 0.34489 0.36328 0.0
C721 C 0.22589 0.35558 0.36251 0.0
C722 C 0.18821 0.33423 0.34973 0.0
C723 C 0.19266 0.31858 0.34638 0.0
C724 C 0.17212 0.33795 0.35209 0.0
C725 C 0.16674 0.35417 0.35646 0.0
C726 C 0.17278 0.36253 0.37331 0.0
C727 C 0.16771 0.37784 0.37729 0.0
C728 C 0.15652 0.38488 0.36461 0.0
C729 C 0.15035 0.37661 0.34795 0.0
C730 C 0.15539 0.3613 0.34389 0.0
C731 C 0.14402 0.27277 0.36172 0.0
C732 C 0.13199 0.27239 0.34695 0.0
C733 C 0.15453 0.28533 0.36246 0.0
C734 C 0.15329 0.29773 0.3484 0.0
C735 C 0.14091 0.29777 0.3342 0.0
C736 C 0.13037 0.28518 0.33343 0.0
C737 C 0.16541 0.31021 0.34793 0.0
C738 C 0.16089 0.32588 0.35102 0.0
C739 C 0.18148 0.30655 0.34525 0.0
C740 C 0.18687 0.29036 0.34059 0.0
C741 C 0.18079 0.28216 0.32363 0.0
C742 C 0.18579 0.26686 0.31944 0.0
C743 C 0.19697 0.25968 0.332 0.0
C744 C 0.2032 0.2678 0.34875 0.0
C745 C 0.19822 0.2831 0.35303 0.0
H746 H 0.20084 0.24784 0.32873 0.0
H747 H 0.1526 0.39674 0.36772 0.0
H748 H 0.73791 0.14759 0.36648 0.0
H749 H 0.71557 0.16538 0.3683 0.0
H750 H 0.69009 0.13622 0.32565 0.0
H751 H 0.71262 0.11847 0.32333 0.0
H752 H 0.68798 0.16628 0.31521 0.0
H753 H 0.68062 0.13715 0.37734 0.0
H754 H 0.68898 0.12549 0.41019 0.0
H755 H 0.69939 0.17136 0.43387 0.0
H756 H 0.69128 0.18329 0.40107 0.0
H757 H 0.61893 0.21178 0.32636 0.0
H758 H 0.63672 0.18928 0.32762 0.0
H759 H 0.6665 0.21411 0.37019 0.0
H760 H 0.64863 0.23648 0.36941 0.0
H761 H 0.66436 0.18402 0.38081 0.0
H762 H 0.67483 0.21278 0.31857 0.0
H763 H 0.66809 0.22505 0.28546 0.0
H764 H 0.65309 0.18038 0.26204 0.0
H765 H 0.65956 0.16788 0.29513 0.0
C766 C 0.72753 0.14486 0.35758 0.0
C767 C 0.72707 0.13158 0.34476 0.0
C768 C 0.71471 0.15502 0.35873 0.0
C769 C 0.70105 0.15202 0.34734 0.0
C770 C 0.70049 0.13873 0.33463 0.0
C771 C 0.71337 0.12859 0.33335 0.0
C772 C 0.6877 0.16321 0.348 0.0
C773 C 0.68258 0.16991 0.32952 0.0
C774 C 0.68093 0.16822 0.36673 0.0
C775 C 0.68543 0.16111 0.38668 0.0
C776 C 0.68475 0.14475 0.38952 0.0
C777 C 0.68945 0.13809 0.40814 0.0
C778 C 0.69475 0.14767 0.42409 0.0
C779 C 0.69529 0.16395 0.4215 0.0
C780 C 0.69061 0.17067 0.40291 0.0
C781 C 0.62919 0.21241 0.33613 0.0
C782 C 0.63242 0.22601 0.34763 0.0
C783 C 0.63937 0.19955 0.33678 0.0
C784 C 0.65307 0.2001 0.34875 0.0
C785 C 0.65601 0.21342 0.36082 0.0
C786 C 0.6458 0.22623 0.36028 0.0
C787 C 0.66475 0.18717 0.34803 0.0
C788 C 0.66959 0.18019 0.36649 0.0
C789 C 0.67136 0.18195 0.3293 0.0
C790 C 0.6675 0.18944 0.30939 0.0
C791 C 0.66998 0.2056 0.30641 0.0
C792 C 0.66623 0.21259 0.28764 0.0
C793 C 0.66012 0.20351 0.27168 0.0
C794 C 0.65779 0.18741 0.27443 0.0
C795 C 0.6615 0.18036 0.29318 0.0
H796 H 0.65723 0.20894 0.25715 0.0
H797 H 0.69843 0.14249 0.43847 0.0
H798 H 0.78521 0.6212 0.32152 0.0
H799 H 0.80711 0.63977 0.32199 0.0
H800 H 0.7851 0.66515 0.37149 0.0
H801 H 0.76313 0.64678 0.37105 0.0
H802 H 0.79412 0.68453 0.34109 0.0
H803 H 0.81727 0.64251 0.37994 0.0
H804 H 0.82563 0.61526 0.3865 0.0
H805 H 0.85575 0.61678 0.33372 0.0
H806 H 0.84739 0.64399 0.32668 0.0
H807 H 0.85479 0.73516 0.37051 0.0
H808 H 0.83605 0.71355 0.37114 0.0
H809 H 0.85936 0.69215 0.31951 0.0
H810 H 0.87832 0.71378 0.31876 0.0
H811 H 0.85028 0.67036 0.3494 0.0
H812 H 0.82743 0.7123 0.31071 0.0
H813 H 0.81932 0.73963 0.30413 0.0
H814 H 0.78856 0.73813 0.35627 0.0
H815 H 0.79669 0.71086 0.36336 0.0
C816 C 0.78509 0.63064 0.33265 0.0
C817 C 0.77237 0.63252 0.3462 0.0
C818 C 0.79765 0.64122 0.33293 0.0
C819 C 0.79776 0.65381 0.34682 0.0
C820 C 0.78524 0.65553 0.36061 0.0
C821 C 0.7727 0.64498 0.36037 0.0
C822 C 0.8105 0.66568 0.34637 0.0
C823 C 0.80637 0.68144 0.34318 0.0
C824 C 0.82653 0.66158 0.34845 0.0
C825 C 0.83157 0.64523 0.35265 0.0
C826 C 0.82557 0.63699 0.36962 0.0
C827 C 0.83033 0.62156 0.37345 0.0
C828 C 0.84118 0.61427 0.3605 0.0
C829 C 0.84732 0.62242 0.34372 0.0
C830 C 0.84259 0.63785 0.33981 0.0
C831 C 0.85607 0.72582 0.35937 0.0
C832 C 0.86799 0.7263 0.34444 0.0
C833 C 0.84531 0.71348 0.35975 0.0
C834 C 0.8462 0.70138 0.34519 0.0
C835 C 0.85846 0.70142 0.33083 0.0
C836 C 0.86925 0.71381 0.3304 0.0
C837 C 0.83383 0.68918 0.34446 0.0
C838 C 0.83801 0.67339 0.3473 0.0
C839 C 0.81782 0.69322 0.34201 0.0
C840 C 0.81279 0.70958 0.33768 0.0
C841 C 0.81903 0.71784 0.32087 0.0
C842 C 0.81442 0.73331 0.31703 0.0
C843 C 0.80346 0.74063 0.3298 0.0
C844 C 0.79706 0.73246 0.34641 0.0
C845 C 0.80166 0.71698 0.35033 0.0
H846 H 0.79991 0.75261 0.32681 0.0
H847 H 0.84486 0.60233 0.36349 0.0
H848 H 0.71192 0.88057 0.82791 0.0
H849 H 0.68948 0.86277 0.83039 0.0
H850 H 0.71569 0.83298 0.87153 0.0
H851 H 0.73798 0.85085 0.86956 0.0
H852 H 0.68749 0.83307 0.81888 0.0
H853 H 0.6917 0.81385 0.90383 0.0
H854 H 0.70012 0.8249 0.93704 0.0
H855 H 0.68946 0.87137 0.91567 0.0
H856 H 0.68079 0.8606 0.88244 0.0
H857 H 0.6478 0.76181 0.87029 0.0
H858 H 0.666 0.78389 0.87201 0.0
H859 H 0.63626 0.81042 0.83117 0.0
H860 H 0.61815 0.78823 0.82895 0.0
H861 H 0.66449 0.81375 0.88408 0.0
H862 H 0.65899 0.83216 0.79921 0.0
H863 H 0.65207 0.82055 0.76572 0.0
H864 H 0.66681 0.77517 0.78698 0.0
H865 H 0.674 0.78654 0.82048 0.0
C866 C 0.71285 0.87032 0.83766 0.0
C867 C 0.72676 0.86715 0.84855 0.0
C868 C 0.70002 0.86015 0.83904 0.0
C869 C 0.70082 0.84663 0.85132 0.0
C870 C 0.71465 0.8435 0.86229 0.0
C871 C 0.72744 0.85371 0.86105 0.0
C872 C 0.68756 0.83533 0.85179 0.0
C873 C 0.68223 0.8291 0.83313 0.0
C874 C 0.68099 0.82983 0.87041 0.0
C875 C 0.68571 0.83641 0.89058 0.0
C876 C 0.69105 0.82642 0.90627 0.0
C877 C 0.6959 0.83263 0.92508 0.0
C878 C 0.69537 0.84883 0.92844 0.0
C879 C 0.68991 0.85883 0.91303 0.0
C880 C 0.68505 0.85268 0.89419 0.0
C881 C 0.64505 0.77237 0.86176 0.0
C882 C 0.63159 0.77317 0.84928 0.0
C883 C 0.65545 0.78502 0.86284 0.0
C884 C 0.65262 0.79872 0.85149 0.0
C885 C 0.63883 0.79984 0.83976 0.0
C886 C 0.62847 0.78715 0.83855 0.0
C887 C 0.6645 0.81148 0.85117 0.0
C888 C 0.66959 0.81792 0.86985 0.0
C889 C 0.67096 0.81712 0.83257 0.0
C890 C 0.66684 0.81018 0.81241 0.0
C891 C 0.66079 0.81971 0.7967 0.0
C892 C 0.65682 0.81318 0.77772 0.0
C893 C 0.65894 0.79713 0.77425 0.0
C894 C 0.66511 0.78759 0.78972 0.0
C895 C 0.66911 0.79407 0.80871 0.0
H896 H 0.65585 0.79209 0.75956 0.0
H897 H 0.69918 0.85362 0.94299 0.0
H898 H 0.12283 0.71155 0.82264 0.0
H899 H 0.14164 0.68994 0.82507 0.0
H900 H 0.16446 0.713 0.87586 0.0
H901 H 0.14587 0.73472 0.87343 0.0
H902 H 0.18528 0.70394 0.84759 0.0
H903 H 0.14204 0.68024 0.88316 0.0
H904 H 0.11468 0.67147 0.88781 0.0
H905 H 0.11886 0.64123 0.8354 0.0
H906 H 0.14619 0.64998 0.83026 0.0
H907 H 0.23676 0.64329 0.87572 0.0
H908 H 0.21492 0.66179 0.87723 0.0
H909 H 0.19334 0.63907 0.82527 0.0
H910 H 0.21508 0.62033 0.82376 0.0
H911 H 0.1716 0.64754 0.85429 0.0
H912 H 0.21431 0.67171 0.81807 0.0
H913 H 0.24166 0.68039 0.81307 0.0
H914 H 0.23827 0.7099 0.86628 0.0
H915 H 0.21095 0.70121 0.87177 0.0
C916 C 0.13175 0.71196 0.83447 0.0
C917 C 0.13287 0.72491 0.84779 0.0
C918 C 0.14246 0.69956 0.83588 0.0
C919 C 0.1544 0.69982 0.85072 0.0
C920 C 0.15534 0.71257 0.86428 0.0
C921 C 0.14467 0.72497 0.86288 0.0
C922 C 0.16647 0.68727 0.8514 0.0
C923 C 0.18228 0.69163 0.84939 0.0
C924 C 0.16254 0.67118 0.85314 0.0
C925 C 0.14612 0.66589 0.85621 0.0
C926 C 0.13708 0.67182 0.87252 0.0
C927 C 0.12159 0.66683 0.87527 0.0
C928 C 0.11503 0.65583 0.86188 0.0
C929 C 0.12396 0.64977 0.84575 0.0
C930 C 0.13946 0.65472 0.84292 0.0
C931 C 0.22731 0.6421 0.86471 0.0
C932 C 0.22777 0.63042 0.84947 0.0
C933 C 0.21485 0.65272 0.86559 0.0
C934 C 0.20265 0.65196 0.85115 0.0
C935 C 0.20267 0.63989 0.83651 0.0
C936 C 0.21514 0.62922 0.83564 0.0
C937 C 0.19035 0.66427 0.85068 0.0
C938 C 0.17454 0.65987 0.8526 0.0
C939 C 0.19425 0.68035 0.8488 0.0
C940 C 0.21064 0.68569 0.84545 0.0
C941 C 0.21943 0.67996 0.82879 0.0
C942 C 0.23492 0.68489 0.82586 0.0
C943 C 0.24171 0.69566 0.83938 0.0
C944 C 0.233 0.70154 0.85584 0.0
C945 C 0.21751 0.69663 0.85886 0.0
H946 H 0.25371 0.69946 0.83708 0.0
H947 H 0.10303 0.65198 0.86404 0.0
H948 H 0.37952 0.21216 0.8235 0.0
H949 H 0.36233 0.1892 0.82496 0.0
H950 H 0.33609 0.21057 0.87418 0.0
H951 H 0.35335 0.23341 0.87311 0.0
H952 H 0.34014 0.17975 0.88109 0.0
H953 H 0.32312 0.21228 0.82465 0.0
H954 H 0.32644 0.22684 0.79223 0.0
H955 H 0.33978 0.18427 0.76155 0.0
H956 H 0.33673 0.16949 0.79387 0.0
H957 H 0.26565 0.14338 0.87377 0.0
H958 H 0.28824 0.16095 0.87481 0.0
H959 H 0.31 0.13497 0.82565 0.0
H960 H 0.28731 0.11741 0.82428 0.0
H961 H 0.31046 0.16586 0.81818 0.0
H962 H 0.32442 0.13281 0.8744 0.0
H963 H 0.32032 0.11856 0.90687 0.0
H964 H 0.31212 0.16215 0.93816 0.0
H965 H 0.31595 0.17666 0.90581 0.0
C966 C 0.37018 0.21193 0.83476 0.0
C967 C 0.36774 0.22471 0.84807 0.0
C968 C 0.36034 0.19881 0.83553 0.0
C969 C 0.34779 0.19827 0.84949 0.0
C970 C 0.34568 0.21074 0.86328 0.0
C971 C 0.35554 0.22383 0.86258 0.0
C972 C 0.33639 0.1851 0.84918 0.0
C973 C 0.33357 0.17676 0.86738 0.0
C974 C 0.32809 0.18096 0.83116 0.0
C975 C 0.32988 0.18982 0.81172 0.0
C976 C 0.32688 0.20605 0.81102 0.0
C977 C 0.32869 0.21433 0.79266 0.0
C978 C 0.33336 0.20649 0.77486 0.0
C979 C 0.33619 0.19033 0.77536 0.0
C980 C 0.33442 0.182 0.79369 0.0
C981 C 0.2753 0.14127 0.8633 0.0
C982 C 0.27463 0.129 0.84889 0.0
C983 C 0.28826 0.15129 0.864 0.0
C984 C 0.30088 0.14919 0.85043 0.0
C985 C 0.3004 0.13678 0.83629 0.0
C986 C 0.28743 0.12673 0.83557 0.0
C987 C 0.31405 0.16059 0.85015 0.0
C988 C 0.31718 0.16865 0.83184 0.0
C989 C 0.32256 0.16449 0.86809 0.0
C990 C 0.32036 0.15582 0.88762 0.0
C991 C 0.32163 0.13935 0.88817 0.0
C992 C 0.31938 0.13123 0.90657 0.0
C993 C 0.31593 0.13944 0.92456 0.0
C994 C 0.31478 0.1558 0.92421 0.0
C995 C 0.31701 0.16399 0.90585 0.0
H996 H 0.31418 0.13313 0.93879 0.0
H997 H 0.33476 0.21292 0.76066 0.0
H998 H 0.87703 0.28591 0.81923 0.0
H999 H 0.85869 0.30792 0.82173 0.0
H1000 H 0.83841 0.28752 0.87618 0.0
H1001 H 0.85647 0.26539 0.87364 0.0
H1002 H 0.81626 0.29548 0.84964 0.0
H1003 H 0.8618 0.32055 0.87828 0.0
H1004 H 0.8894 0.32926 0.87901 0.0
H1005 H 0.88185 0.35675 0.8247 0.0
H1006 H 0.85424 0.34804 0.82349 0.0
H1007 H 0.76635 0.35741 0.87709 0.0
H1008 H 0.78829 0.339 0.8783 0.0
H1009 H 0.8075 0.35952 0.82327 0.0
H1010 H 0.78574 0.37823 0.82215 0.0
H1011 H 0.83055 0.35195 0.8501 0.0
H1012 H 0.78564 0.32638 0.82062 0.0
H1013 H 0.75807 0.31762 0.81922 0.0
H1014 H 0.76466 0.29084 0.87435 0.0
H1015 H 0.79223 0.29962 0.87623 0.0
C1016 C 0.86878 0.28618 0.83186 0.0
C1017 C 0.86817 0.27383 0.84617 0.0
C1018 C 0.85835 0.29882 0.83332 0.0
C1019 C 0.84723 0.29941 0.84921 0.0
C1020 C 0.84687 0.28729 0.86377 0.0
C1021 C 0.85722 0.27465 0.86229 0.0
C1022 C 0.83532 0.31212 0.85003 0.0
C1023 C 0.81942 0.30782 0.85008 0.0
C1024 C 0.83941 0.32823 0.84995 0.0
C1025 C 0.85599 0.33352 0.85069 0.0
C1026 C 0.86606 0.32835 0.8664 0.0
C1027 C 0.8817 0.33331 0.86692 0.0
C1028 C 0.88739 0.34352 0.85188 0.0
C1029 C 0.87743 0.34883 0.83633 0.0
C1030 C 0.86178 0.34389 0.83573 0.0
C1031 C 0.77532 0.35815 0.86535 0.0
C1032 C 0.77418 0.36918 0.84938 0.0
C1033 C 0.78784 0.34758 0.86604 0.0
C1034 C 0.79936 0.3477 0.85065 0.0
C1035 C 0.7987 0.35919 0.83526 0.0
C1036 C 0.78622 0.36985 0.83462 0.0
C1037 C 0.81156 0.33527 0.84998 0.0
C1038 C 0.82745 0.3396 0.84979 0.0
C1039 C 0.8075 0.31915 0.84985 0.0
C1040 C 0.79095 0.31378 0.84868 0.0
C1041 C 0.78118 0.31871 0.83253 0.0
C1042 C 0.76556 0.31373 0.83163 0.0
C1043 C 0.7596 0.30372 0.84672 0.0
C1044 C 0.76928 0.29862 0.86269 0.0
C1045 C 0.78491 0.30358 0.86367 0.0
H1046 H 0.74751 0.29987 0.846 0.0
H1047 H 0.8995 0.34735 0.85231 0.0
H1048 H 0.64328 0.23215 0.63472 0.0
H1049 H 0.66043 0.20925 0.63418 0.0
H1050 H 0.6358 0.18985 0.68613 0.0
H1051 H 0.61864 0.21288 0.68698 0.0
H1052 H 0.66697 0.18897 0.69174 0.0
H1053 H 0.63165 0.17358 0.63869 0.0
H1054 H 0.61618 0.17661 0.60698 0.0
H1055 H 0.65855 0.18302 0.57231 0.0
H1056 H 0.67428 0.18025 0.60386 0.0
H1057 H 0.71264 0.11922 0.68676 0.0
H1058 H 0.68974 0.13654 0.68613 0.0
H1059 H 0.70928 0.16144 0.63449 0.0
H1060 H 0.73206 0.14409 0.63477 0.0
H1061 H 0.67814 0.15705 0.62978 0.0
H1062 H 0.71294 0.17568 0.68303 0.0
H1063 H 0.72869 0.17326 0.71462 0.0
H1064 H 0.68727 0.16119 0.74869 0.0
H1065 H 0.6713 0.16334 0.71722 0.0
C1066 C 0.64138 0.22296 0.64593 0.0
C1067 C 0.62959 0.22439 0.66093 0.0
C1068 C 0.65116 0.20982 0.64552 0.0
C1069 C 0.64931 0.19776 0.65999 0.0
C1070 C 0.6374 0.199 0.67479 0.0
C1071 C 0.62759 0.21216 0.67521 0.0
C1072 C 0.66046 0.18438 0.66038 0.0
C1073 C 0.66917 0.18176 0.67832 0.0
C1074 C 0.66356 0.1752 0.64274 0.0
C1075 C 0.65414 0.17682 0.62369 0.0
C1076 C 0.63767 0.17575 0.62433 0.0
C1077 C 0.62885 0.1774 0.60638 0.0
C1078 C 0.63637 0.18004 0.58765 0.0
C1079 C 0.65274 0.18099 0.58683 0.0
C1080 C 0.66161 0.17936 0.60474 0.0
C1081 C 0.71202 0.1283 0.67516 0.0
C1082 C 0.72427 0.13034 0.66092 0.0
C1083 C 0.69893 0.13821 0.67486 0.0
C1084 C 0.6979 0.1504 0.66042 0.0
C1085 C 0.70983 0.15211 0.64577 0.0
C1086 C 0.72289 0.14221 0.64603 0.0
C1087 C 0.68477 0.16183 0.66103 0.0
C1088 C 0.67574 0.1641 0.64327 0.0
C1089 C 0.68139 0.17074 0.67882 0.0
C1090 C 0.69097 0.16949 0.69774 0.0
C1091 C 0.70721 0.17238 0.69723 0.0
C1092 C 0.71617 0.17109 0.71511 0.0
C1093 C 0.70899 0.16703 0.73364 0.0
C1094 C 0.69282 0.1643 0.73432 0.0
C1095 C 0.68381 0.16557 0.71647 0.0
H1096 H 0.71595 0.16603 0.74747 0.0
H1097 H 0.62953 0.18131 0.57377 0.0
H1098 H 0.76713 0.64312 0.63209 0.0
H1099 H 0.78993 0.66043 0.63166 0.0
H1100 H 0.80925 0.63601 0.68384 0.0
H1101 H 0.78635 0.61871 0.68456 0.0
H1102 H 0.80966 0.66717 0.68952 0.0
H1103 H 0.82587 0.63206 0.63665 0.0
H1104 H 0.8233 0.61661 0.60486 0.0
H1105 H 0.81688 0.65897 0.57017 0.0
H1106 H 0.81918 0.67468 0.60181 0.0
H1107 H 0.8795 0.71265 0.68612 0.0
H1108 H 0.8621 0.68984 0.68491 0.0
H1109 H 0.83776 0.70988 0.63315 0.0
H1110 H 0.85519 0.7326 0.63403 0.0
H1111 H 0.84214 0.67866 0.62816 0.0
H1112 H 0.82297 0.71325 0.68124 0.0
H1113 H 0.82501 0.72892 0.71294 0.0
H1114 H 0.83666 0.6874 0.74706 0.0
H1115 H 0.83489 0.67152 0.71548 0.0
C1116 C 0.77629 0.64129 0.64336 0.0
C1117 C 0.77486 0.62954 0.6584 0.0
C1118 C 0.78938 0.65116 0.64301 0.0
C1119 C 0.80136 0.64944 0.65762 0.0
C1120 C 0.80014 0.63753 0.67241 0.0
C1121 C 0.78706 0.62763 0.67275 0.0
C1122 C 0.81461 0.66074 0.65821 0.0
C1123 C 0.81699 0.66944 0.67623 0.0
C1124 C 0.82393 0.66395 0.64074 0.0
C1125 C 0.82258 0.65454 0.62165 0.0
C1126 C 0.82379 0.63808 0.62227 0.0
C1127 C 0.8224 0.62927 0.60427 0.0
C1128 C 0.8199 0.6368 0.58551 0.0
C1129 C 0.81881 0.65316 0.58472 0.0
C1130 C 0.82018 0.66202 0.60268 0.0
C1131 C 0.87053 0.71216 0.67436 0.0
C1132 C 0.86867 0.72454 0.66028 0.0
C1133 C 0.86057 0.69913 0.67374 0.0
C1134 C 0.84851 0.69826 0.6591 0.0
C1135 C 0.84698 0.71032 0.64459 0.0
C1136 C 0.85692 0.72334 0.64518 0.0
C1137 C 0.83703 0.68517 0.65937 0.0
C1138 C 0.83496 0.67619 0.64152 0.0
C1139 C 0.82795 0.68171 0.67697 0.0
C1140 C 0.82898 0.69123 0.69597 0.0
C1141 C 0.82609 0.70749 0.69548 0.0
C1142 C 0.82718 0.7164 0.71342 0.0
C1143 C 0.83101 0.70917 0.73199 0.0
C1144 C 0.83372 0.69299 0.73266 0.0
C1145 C 0.83267 0.68403 0.71475 0.0
H1146 H 0.83184 0.71608 0.74588 0.0
H1147 H 0.81883 0.62996 0.57159 0.0
H1148 H 0.28481 0.88022 0.68194 0.0
H1149 H 0.30768 0.86289 0.68098 0.0
H1150 H 0.28703 0.83714 0.63079 0.0
H1151 H 0.26425 0.85448 0.63145 0.0
H1152 H 0.30834 0.83189 0.68795 0.0
H1153 H 0.31559 0.82212 0.60032 0.0
H1154 H 0.31217 0.83692 0.56811 0.0
H1155 H 0.31914 0.88029 0.60043 0.0
H1156 H 0.32283 0.86575 0.63277 0.0
H1157 H 0.35389 0.76571 0.63378 0.0
H1158 H 0.33595 0.78803 0.6324 0.0
H1159 H 0.36092 0.81008 0.68222 0.0
H1160 H 0.37882 0.78768 0.68394 0.0
H1161 H 0.33943 0.81919 0.62576 0.0
H1162 H 0.3341 0.82854 0.71305 0.0
H1163 H 0.33687 0.8135 0.7452 0.0
H1164 H 0.32523 0.77094 0.71333 0.0
H1165 H 0.3222 0.78575 0.68107 0.0
C1166 C 0.2852 0.87099 0.67052 0.0
C1167 C 0.27266 0.86873 0.65679 0.0
C1168 C 0.29828 0.86108 0.67004 0.0
C1169 C 0.29912 0.8488 0.65573 0.0
C1170 C 0.28676 0.8467 0.64176 0.0
C1171 C 0.27369 0.85659 0.64223 0.0
C1172 C 0.31243 0.83756 0.65619 0.0
C1173 C 0.31536 0.82935 0.67445 0.0
C1174 C 0.32133 0.83398 0.63846 0.0
C1175 C 0.31935 0.84283 0.61901 0.0
C1176 C 0.31647 0.83481 0.60054 0.0
C1177 C 0.31447 0.84316 0.58226 0.0
C1178 C 0.31539 0.85953 0.58224 0.0
C1179 C 0.31837 0.8676 0.60048 0.0
C1180 C 0.32039 0.85932 0.6188 0.0
C1181 C 0.35565 0.77533 0.64439 0.0
C1182 C 0.36772 0.77482 0.65912 0.0
C1183 C 0.34541 0.78812 0.6435 0.0
C1184 C 0.34698 0.80062 0.65736 0.0
C1185 C 0.35936 0.80044 0.67158 0.0
C1186 C 0.36961 0.78764 0.6725 0.0
C1187 C 0.33521 0.81347 0.65746 0.0
C1188 C 0.33255 0.82191 0.6393 0.0
C1189 C 0.3265 0.81725 0.67527 0.0
C1190 C 0.32812 0.80824 0.69462 0.0
C1191 C 0.3321 0.81598 0.71293 0.0
C1192 C 0.33372 0.80749 0.73117 0.0
C1193 C 0.33129 0.79127 0.73129 0.0
C1194 C 0.32718 0.7835 0.7132 0.0
C1195 C 0.32553 0.79193 0.69493 0.0
H1196 H 0.33256 0.78472 0.74542 0.0
H1197 H 0.31383 0.86597 0.56807 0.0
H1198 H 0.14662 0.26313 0.63398 0.0
H1199 H 0.16489 0.28513 0.63273 0.0
H1200 H 0.14013 0.30765 0.68235 0.0
H1201 H 0.12162 0.28566 0.68368 0.0
H1202 H 0.14924 0.3287 0.65179 0.0
H1203 H 0.17251 0.28842 0.69308 0.0
H1204 H 0.18135 0.26158 0.70127 0.0
H1205 H 0.21283 0.26246 0.64985 0.0
H1206 H 0.20401 0.28924 0.64117 0.0
H1207 H 0.21264 0.37976 0.68062 0.0
H1208 H 0.19098 0.36094 0.67944 0.0
H1209 H 0.21484 0.33508 0.63187 0.0
H1210 H 0.23658 0.35369 0.63305 0.0
H1211 H 0.20555 0.31617 0.66247 0.0
H1212 H 0.18228 0.35671 0.62129 0.0
H1213 H 0.17339 0.38358 0.61335 0.0
H1214 H 0.14205 0.38243 0.66491 0.0
H1215 H 0.15092 0.35561 0.67334 0.0
C1216 C 0.14493 0.2728 0.64455 0.0
C1217 C 0.13272 0.27254 0.65908 0.0
C1218 C 0.15542 0.28536 0.64382 0.0
C1219 C 0.15399 0.2979 0.65763 0.0
C1220 C 0.14146 0.29805 0.67159 0.0
C1221 C 0.13093 0.28544 0.67237 0.0
C1222 C 0.16605 0.31043 0.65805 0.0
C1223 C 0.16154 0.32603 0.65438 0.0
C1224 C 0.1821 0.30687 0.66114 0.0
C1225 C 0.18749 0.29078 0.66636 0.0
C1226 C 0.18123 0.28284 0.68342 0.0
C1227 C 0.18625 0.26765 0.68817 0.0
C1228 C 0.19761 0.2603 0.67605 0.0
C1229 C 0.20401 0.26816 0.6592 0.0
C1230 C 0.19901 0.28335 0.65437 0.0
C1231 C 0.21321 0.37018 0.66973 0.0
C1232 C 0.22641 0.3682 0.65701 0.0
C1233 C 0.20078 0.35946 0.66903 0.0
C1234 C 0.20128 0.34663 0.65553 0.0
C1235 C 0.21424 0.34487 0.64244 0.0
C1236 C 0.22665 0.35556 0.64312 0.0
C1237 C 0.18883 0.33446 0.65587 0.0
C1238 C 0.19327 0.31889 0.65983 0.0
C1239 C 0.17275 0.3381 0.6531 0.0
C1240 C 0.16739 0.35422 0.64807 0.0
C1241 C 0.1736 0.36224 0.63105 0.0
C1242 C 0.16854 0.37745 0.62644 0.0
C1243 C 0.1572 0.38472 0.63865 0.0
C1244 C 0.15086 0.37679 0.65548 0.0
C1245 C 0.15589 0.36158 0.66017 0.0
H1246 H 0.15329 0.3965 0.63505 0.0
H1247 H 0.20149 0.24854 0.67976 0.0
H1248 H 0.20772 0.12299 0.083 0.0
H1249 H 0.205 0.11815 0.04636 0.0
H1250 H 0.22456 0.07182 0.05406 0.0
H1251 H 0.22748 0.07666 0.09099 0.0
H1252 H 0.23847 0.08734 0.0228 0.0
H1253 H 0.18581 0.07625 0.04235 0.0
H1254 H 0.16047 0.08065 0.0597 0.0
H1255 H 0.15367 0.12305 0.02522 0.0
H1256 H 0.17907 0.11904 0.00785 0.0
H1257 H 0.22675 0.07635 0.91508 0.0
H1258 H 0.22424 0.0718 0.9521 0.0
H1259 H 0.20514 0.11834 0.95967 0.0
H1260 H 0.20747 0.1229 0.92289 0.0
H1261 H 0.1897 0.09748 0.98336 0.0
H1262 H 0.24379 0.11089 0.9686 0.0
H1263 H 0.26946 0.10746 0.95167 0.0
H1264 H 0.27358 0.06129 0.97756 0.0
H1265 H 0.24783 0.06439 0.99445 0.0
C1266 C 0.21127 0.11168 0.077 0.0
C1267 C 0.21782 0.10021 0.08995 0.0
C1268 C 0.20963 0.10889 0.05601 0.0
C1269 C 0.21442 0.09456 0.04743 0.0
C1270 C 0.22072 0.08295 0.06035 0.0
C1271 C 0.22233 0.08571 0.08145 0.0
C1272 C 0.21371 0.09227 0.02482 0.0
C1273 C 0.22772 0.08917 0.01421 0.0
C1274 C 0.19975 0.09494 0.01354 0.0
C1275 C 0.18441 0.09738 0.02387 0.0
C1276 C 0.17897 0.08657 0.03856 0.0
C1277 C 0.16458 0.08898 0.04838 0.0
C1278 C 0.15548 0.10213 0.04358 0.0
C1279 C 0.16073 0.11287 0.02892 0.0
C1280 C 0.17511 0.11052 0.01905 0.0
C1281 C 0.22182 0.08552 0.92461 0.0
C1282 C 0.2174 0.10002 0.91605 0.0
C1283 C 0.22045 0.08293 0.94577 0.0
C1284 C 0.21466 0.0948 0.95872 0.0
C1285 C 0.20964 0.10901 0.95003 0.0
C1286 C 0.21104 0.11161 0.92897 0.0
C1287 C 0.21451 0.09292 0.9814 0.0
C1288 C 0.20036 0.09529 0.992 0.0
C1289 C 0.22834 0.08965 0.99268 0.0
C1290 C 0.24381 0.08779 0.98256 0.0
C1291 C 0.25012 0.09996 0.97054 0.0
C1292 C 0.26469 0.09809 0.96098 0.0
C1293 C 0.27312 0.08415 0.96348 0.0
C1294 C 0.26702 0.07207 0.9756 0.0
C1295 C 0.25244 0.07387 0.98517 0.0
H1296 H 0.2844 0.08272 0.95607 0.0
H1297 H 0.14434 0.10398 0.05121 0.0
H1298 H 0.9206 0.22389 0.91393 0.0
H1299 H 0.92373 0.22277 0.95136 0.0
H1300 H 0.87499 0.21 0.95768 0.0
H1301 H 0.87177 0.21107 0.92059 0.0
H1302 H 0.88294 0.2349 0.98187 0.0
H1303 H 0.90335 0.1834 0.96598 0.0
H1304 H 0.92118 0.16463 0.94905 0.0
H1305 H 0.96084 0.18693 0.97739 0.0
H1306 H 0.94325 0.20598 0.99428 0.0
H1307 H 0.8722 0.2113 0.08271 0.0
H1308 H 0.87556 0.21017 0.04565 0.0
H1309 H 0.92382 0.22461 0.05205 0.0
H1310 H 0.92057 0.22574 0.08949 0.0
H1311 H 0.91923 0.20099 0.02165 0.0
H1312 H 0.89899 0.25145 0.03915 0.0
H1313 H 0.88135 0.27028 0.05629 0.0
H1314 H 0.84181 0.25053 0.02464 0.0
H1315 H 0.85918 0.23141 0.00753 0.0
C1316 C 0.91062 0.22061 0.9233 0.0
C1317 C 0.89592 0.21764 0.91426 0.0
C1318 C 0.91244 0.21997 0.94467 0.0
C1319 C 0.89957 0.21635 0.95732 0.0
C1320 C 0.88505 0.21289 0.94824 0.0
C1321 C 0.88325 0.21347 0.92698 0.0
C1322 C 0.90078 0.21704 0.98004 0.0
C1323 C 0.8908 0.22739 0.99055 0.0
C1324 C 0.91143 0.20766 0.99135 0.0
C1325 C 0.922 0.19624 0.98119 0.0
C1326 C 0.91589 0.1844 0.96844 0.0
C1327 C 0.92595 0.17369 0.95889 0.0
C1328 C 0.94214 0.17462 0.96209 0.0
C1329 C 0.9483 0.18624 0.97489 0.0
C1330 C 0.93829 0.197 0.98447 0.0
C1331 C 0.88361 0.21408 0.07635 0.0
C1332 C 0.89608 0.21875 0.08908 0.0
C1333 C 0.88549 0.21345 0.05511 0.0
C1334 C 0.89987 0.21753 0.04607 0.0
C1335 C 0.91262 0.22146 0.05873 0.0
C1336 C 0.91073 0.22212 0.0801 0.0
C1337 C 0.90106 0.21852 0.02338 0.0
C1338 C 0.91151 0.2086 0.01292 0.0
C1339 C 0.89089 0.22836 0.01201 0.0
C1340 C 0.88038 0.2399 0.02218 0.0
C1341 C 0.88651 0.25103 0.03596 0.0
C1342 C 0.87657 0.26178 0.04566 0.0
C1343 C 0.86046 0.26158 0.04159 0.0
C1344 C 0.85428 0.25066 0.02778 0.0
C1345 C 0.86418 0.23988 0.01807 0.0
H1346 H 0.85278 0.26991 0.04911 0.0
H1347 H 0.94991 0.16631 0.95469 0.0
H1348 H 0.79268 0.87421 0.92182 0.0
H1349 H 0.79339 0.8775 0.95892 0.0
H1350 H 0.77271 0.92349 0.95293 0.0
H1351 H 0.77206 0.92032 0.91547 0.0
H1352 H 0.79603 0.92205 0.98369 0.0
H1353 H 0.74933 0.89473 0.96493 0.0
H1354 H 0.73343 0.87464 0.9473 0.0
H1355 H 0.75845 0.8382 0.97895 0.0
H1356 H 0.77465 0.85806 0.99657 0.0
H1357 H 0.77157 0.91984 0.09063 0.0
H1358 H 0.77311 0.92321 0.05328 0.0
H1359 H 0.79206 0.87647 0.04741 0.0
H1360 H 0.79048 0.87299 0.08443 0.0
H1361 H 0.76727 0.88094 0.02236 0.0
H1362 H 0.81482 0.90892 0.03997 0.0
H1363 H 0.83025 0.9294 0.05752 0.0
H1364 H 0.80267 0.9652 0.02836 0.0
H1365 H 0.78693 0.94491 0.01083 0.0
C1366 C 0.78846 0.88513 0.9283 0.0
C1367 C 0.78216 0.89694 0.91568 0.0
C1368 C 0.78885 0.88698 0.94955 0.0
C1369 C 0.78285 0.90062 0.95871 0.0
C1370 C 0.77735 0.91284 0.94616 0.0
C1371 C 0.77697 0.911 0.92478 0.0
C1372 C 0.78146 0.90147 0.9814 0.0
C1373 C 0.78955 0.91323 0.99218 0.0
C1374 C 0.77306 0.8899 0.99246 0.0
C1375 C 0.76329 0.87789 0.98195 0.0
C1376 C 0.75153 0.88243 0.96802 0.0
C1377 C 0.74244 0.87108 0.95804 0.0
C1378 C 0.74495 0.85515 0.96197 0.0
C1379 C 0.75652 0.85054 0.97591 0.0
C1380 C 0.76565 0.86184 0.98592 0.0
C1381 C 0.7763 0.91039 0.08139 0.0
C1382 C 0.78082 0.89611 0.09051 0.0
C1383 C 0.77718 0.91234 0.06005 0.0
C1384 C 0.78266 0.90007 0.04753 0.0
C1385 C 0.78771 0.88606 0.05673 0.0
C1386 C 0.78683 0.88411 0.07795 0.0
C1387 C 0.78226 0.90123 0.02478 0.0
C1388 C 0.7737 0.88985 0.01394 0.0
C1389 C 0.79012 0.91321 0.01377 0.0
C1390 C 0.79958 0.9254 0.02428 0.0
C1391 C 0.81195 0.92116 0.03745 0.0
C1392 C 0.82078 0.93273 0.04736 0.0
C1393 C 0.81741 0.94859 0.04411 0.0
C1394 C 0.80525 0.95291 0.03089 0.0
C1395 C 0.79638 0.94138 0.02095 0.0
H1396 H 0.82426 0.95754 0.05179 0.0
H1397 H 0.7379 0.84639 0.95424 0.0
H1398 H 0.07926 0.77022 0.91513 0.0
H1399 H 0.07607 0.7721 0.95247 0.0
H1400 H 0.12127 0.79466 0.9571 0.0
H1401 H 0.12461 0.79264 0.9201 0.0
H1402 H 0.11931 0.77043 0.98264 0.0
H1403 H 0.08656 0.8147 0.96501 0.0
H1404 H 0.06451 0.82796 0.94769 0.0
H1405 H 0.03184 0.79727 0.97782 0.0
H1406 H 0.05373 0.78369 0.99513 0.0
H1407 H 0.12409 0.79487 0.08377 0.0
H1408 H 0.12065 0.79611 0.0467 0.0
H1409 H 0.07643 0.77181 0.05203 0.0
H1410 H 0.07967 0.77075 0.08946 0.0
H1411 H 0.07574 0.79491 0.02174 0.0
H1412 H 0.10808 0.75121 0.04007 0.0
H1413 H 0.12993 0.73773 0.05754 0.0
H1414 H 0.16313 0.76675 0.02562 0.0
H1415 H 0.14145 0.78056 0.00818 0.0
C1416 C 0.08838 0.77581 0.9241 0.0
C1417 C 0.10223 0.78118 0.91466 0.0
C1418 C 0.08653 0.7769 0.94543 0.0
C1419 C 0.09845 0.7835 0.95762 0.0
C1420 C 0.11196 0.78944 0.94806 0.0
C1421 C 0.11383 0.7883 0.92686 0.0
C1422 C 0.09757 0.78324 0.98041 0.0
C1423 C 0.10986 0.77596 0.99114 0.0
C1424 C 0.08494 0.7899 0.99157 0.0
C1425 C 0.07179 0.79807 0.98118 0.0
C1426 C 0.07468 0.81069 0.9678 0.0
C1427 C 0.06221 0.81829 0.95802 0.0
C1428 C 0.04678 0.81343 0.9616 0.0
C1429 C 0.04379 0.801 0.97503 0.0
C1430 C 0.05623 0.79336 0.98484 0.0
C1431 C 0.1135 0.78997 0.07714 0.0
C1432 C 0.10223 0.78254 0.08954 0.0
C1433 C 0.11157 0.79067 0.05592 0.0
C1434 C 0.09844 0.78376 0.04655 0.0
C1435 C 0.08669 0.77714 0.05894 0.0
C1436 C 0.08857 0.77653 0.08031 0.0
C1437 C 0.09773 0.78254 0.02382 0.0
C1438 C 0.08514 0.78937 0.01316 0.0
C1439 C 0.11005 0.77539 0.01262 0.0
C1440 C 0.12313 0.767 0.02294 0.0
C1441 C 0.12004 0.75479 0.03688 0.0
C1442 C 0.13239 0.74708 0.04677 0.0
C1443 C 0.14791 0.7514 0.04272 0.0
C1444 C 0.1511 0.76342 0.02875 0.0
C1445 C 0.13879 0.77118 0.01884 0.0
H1446 H 0.15746 0.74542 0.0504 0.0
H1447 H 0.03714 0.81933 0.95401 0.0
H1448 H 0.20699 0.87517 0.42152 0.0
H1449 H 0.20395 0.87955 0.45819 0.0
H1450 H 0.22128 0.92684 0.45126 0.0
H1451 H 0.22457 0.92244 0.41429 0.0
H1452 H 0.2358 0.91193 0.4823 0.0
H1453 H 0.1826 0.9202 0.46279 0.0
H1454 H 0.15757 0.9145 0.44531 0.0
H1455 H 0.15316 0.87151 0.4792 0.0
H1456 H 0.17828 0.87682 0.49668 0.0
H1457 H 0.2235 0.92119 0.59018 0.0
H1458 H 0.22083 0.92595 0.55322 0.0
H1459 H 0.20403 0.87861 0.54488 0.0
H1460 H 0.20648 0.87385 0.58159 0.0
H1461 H 0.18764 0.89874 0.52148 0.0
H1462 H 0.24242 0.88826 0.53614 0.0
H1463 H 0.26784 0.89299 0.55317 0.0
H1464 H 0.26933 0.93955 0.52798 0.0
H1465 H 0.2438 0.93514 0.511 0.0
C1466 C 0.20998 0.88659 0.42768 0.0
C1467 C 0.21603 0.89846 0.41494 0.0
C1468 C 0.20815 0.88911 0.4487 0.0
C1469 C 0.21222 0.90359 0.45751 0.0
C1470 C 0.218 0.91559 0.44479 0.0
C1471 C 0.21981 0.91308 0.42366 0.0
C1472 C 0.21136 0.90564 0.48015 0.0
C1473 C 0.22515 0.90943 0.49084 0.0
C1474 C 0.19756 0.9021 0.49137 0.0
C1475 C 0.18238 0.89888 0.48097 0.0
C1476 C 0.17635 0.90948 0.46642 0.0
C1477 C 0.16214 0.90632 0.45653 0.0
C1478 C 0.1538 0.89265 0.46112 0.0
C1479 C 0.15964 0.88211 0.47566 0.0
C1480 C 0.17385 0.8852 0.48559 0.0
C1481 C 0.21905 0.91188 0.58049 0.0
C1482 C 0.2153 0.89711 0.58882 0.0
C1483 C 0.21759 0.91459 0.55936 0.0
C1484 C 0.2124 0.90257 0.54622 0.0
C1485 C 0.20806 0.88806 0.55467 0.0
C1486 C 0.20953 0.88534 0.5757 0.0
C1487 C 0.21216 0.90465 0.52356 0.0
C1488 C 0.19817 0.9016 0.5129 0.0
C1489 C 0.22579 0.9088 0.51236 0.0
C1490 C 0.24112 0.91145 0.52253 0.0
C1491 C 0.24811 0.89955 0.53438 0.0
C1492 C 0.26255 0.90216 0.54399 0.0
C1493 C 0.27017 0.91659 0.54172 0.0
C1494 C 0.26339 0.9284 0.52977 0.0
C1495 C 0.24895 0.92585 0.52015 0.0
H1496 H 0.28135 0.91859 0.54916 0.0
H1497 H 0.1428 0.89022 0.45343 0.0
H1498 H 0.08024 0.22478 0.59026 0.0
H1499 H 0.07702 0.22313 0.5529 0.0
H1500 H 0.12437 0.2057 0.54725 0.0
H1501 H 0.12771 0.20743 0.58428 0.0
H1502 H 0.11933 0.23011 0.52218 0.0
H1503 H 0.09261 0.18194 0.53949 0.0
H1504 H 0.07261 0.1658 0.5569 0.0
H1505 H 0.03599 0.19235 0.52781 0.0
H1506 H 0.05579 0.20879 0.51044 0.0
H1507 H 0.12639 0.20594 0.4211 0.0
H1508 H 0.12323 0.20455 0.45819 0.0
H1509 H 0.07676 0.22424 0.45299 0.0
H1510 H 0.07978 0.22554 0.41554 0.0
H1511 H 0.07885 0.20064 0.48329 0.0
H1512 H 0.1054 0.24805 0.46495 0.0
H1513 H 0.1253 0.26416 0.44732 0.0
H1514 H 0.16204 0.23941 0.47875 0.0
H1515 H 0.14235 0.22297 0.49634 0.0
C1516 C 0.08987 0.22037 0.58106 0.0
C1517 C 0.10426 0.21633 0.59025 0.0
C1518 C 0.088 0.21941 0.55972 0.0
C1519 C 0.10047 0.21431 0.54725 0.0
C1520 C 0.11462 0.20975 0.55653 0.0
C1521 C 0.11649 0.21071 0.57775 0.0
C1522 C 0.09936 0.21469 0.52449 0.0
C1523 C 0.11056 0.22352 0.51371 0.0
C1524 C 0.08758 0.20657 0.51341 0.0
C1525 C 0.07568 0.19671 0.52386 0.0
C1526 C 0.08029 0.18443 0.53696 0.0
C1527 C 0.06899 0.17521 0.54678 0.0
C1528 C 0.05304 0.17808 0.54352 0.0
C1529 C 0.04835 0.19016 0.53036 0.0
C1530 C 0.05961 0.19942 0.52051 0.0
C1531 C 0.11539 0.2098 0.42775 0.0
C1532 C 0.1034 0.21602 0.41536 0.0
C1533 C 0.11362 0.20901 0.44899 0.0
C1534 C 0.09987 0.21455 0.45839 0.0
C1535 C 0.08749 0.21995 0.44604 0.0
C1536 C 0.08924 0.22071 0.42466 0.0
C1537 C 0.0991 0.21567 0.48111 0.0
C1538 C 0.08753 0.20727 0.49183 0.0
C1539 C 0.11051 0.22423 0.49224 0.0
C1540 C 0.1224 0.23419 0.48183 0.0
C1541 C 0.11773 0.24596 0.46799 0.0
C1542 C 0.12897 0.25517 0.45802 0.0
C1543 C 0.14492 0.25279 0.46188 0.0
C1544 C 0.14967 0.24123 0.47576 0.0
C1545 C 0.13848 0.23197 0.48575 0.0
H1546 H 0.15361 0.25993 0.45415 0.0
H1547 H 0.0443 0.17093 0.55113 0.0
H1548 H 0.77279 0.07939 0.58927 0.0
H1549 H 0.77403 0.07611 0.55188 0.0
H1550 H 0.78748 0.12467 0.54539 0.0
H1551 H 0.78616 0.12806 0.58244 0.0
H1552 H 0.76347 0.11733 0.52036 0.0
H1553 H 0.81381 0.09493 0.5383 0.0
H1554 H 0.83144 0.07645 0.5561 0.0
H1555 H 0.808 0.03755 0.5275 0.0
H1556 H 0.79009 0.05582 0.50973 0.0
H1557 H 0.78984 0.12635 0.42034 0.0
H1558 H 0.79001 0.12322 0.45747 0.0
H1559 H 0.77358 0.0756 0.45107 0.0
H1560 H 0.77338 0.07862 0.41358 0.0
H1561 H 0.79674 0.07943 0.48227 0.0
H1562 H 0.74758 0.10161 0.46262 0.0
H1563 H 0.72986 0.11989 0.44461 0.0
H1564 H 0.75052 0.1588 0.47661 0.0
H1565 H 0.76853 0.14077 0.4946 0.0
C1566 C 0.7762 0.0893 0.57987 0.0
C1567 C 0.77931 0.104 0.58885 0.0
C1568 C 0.77693 0.0874 0.55851 0.0
C1569 C 0.78083 0.10016 0.54581 0.0
C1570 C 0.78435 0.11469 0.55484 0.0
C1571 C 0.78364 0.11658 0.57608 0.0
C1572 C 0.78055 0.0988 0.52307 0.0
C1573 C 0.77085 0.10913 0.51206 0.0
C1574 C 0.78974 0.0877 0.51221 0.0
C1575 C 0.80049 0.07673 0.52289 0.0
C1576 C 0.81232 0.08243 0.53596 0.0
C1577 C 0.82239 0.072 0.546 0.0
C1578 C 0.82081 0.05583 0.54298 0.0
C1579 C 0.80919 0.05007 0.52985 0.0
C1580 C 0.79909 0.06046 0.51978 0.0
C1581 C 0.78643 0.11512 0.42673 0.0
C1582 C 0.78145 0.10278 0.41397 0.0
C1583 C 0.78651 0.11337 0.448 0.0
C1584 C 0.78158 0.09927 0.45704 0.0
C1585 C 0.77737 0.0866 0.44438 0.0
C1586 C 0.77725 0.08836 0.42298 0.0
C1587 C 0.78003 0.09829 0.47969 0.0
C1588 C 0.78927 0.08752 0.49063 0.0
C1589 C 0.77036 0.10893 0.49057 0.0
C1590 C 0.7595 0.11983 0.47984 0.0
C1591 C 0.74843 0.11407 0.4657 0.0
C1592 C 0.73832 0.12439 0.45551 0.0
C1593 C 0.73908 0.1405 0.45943 0.0
C1594 C 0.74994 0.14632 0.47358 0.0
C1595 C 0.7601 0.13605 0.48379 0.0
H1596 H 0.73124 0.14846 0.45153 0.0
H1597 H 0.82862 0.04777 0.55077 0.0
H1598 H 0.87211 0.78866 0.58375 0.0
H1599 H 0.87557 0.78998 0.54671 0.0
H1600 H 0.92352 0.77452 0.55308 0.0
H1601 H 0.92018 0.77323 0.59049 0.0
H1602 H 0.9195 0.79813 0.52266 0.0
H1603 H 0.89782 0.74822 0.54037 0.0
H1604 H 0.87956 0.73004 0.55759 0.0
H1605 H 0.84074 0.7509 0.52562 0.0
H1606 H 0.85875 0.76938 0.50844 0.0
H1607 H 0.9208 0.7748 0.41514 0.0
H1608 H 0.92381 0.77611 0.45258 0.0
H1609 H 0.8752 0.78953 0.45845 0.0
H1610 H 0.87209 0.78823 0.42137 0.0
H1611 H 0.88253 0.76492 0.48294 0.0
H1612 H 0.90419 0.81578 0.46669 0.0
H1613 H 0.92249 0.83407 0.44973 0.0
H1614 H 0.96154 0.8111 0.4786 0.0
H1615 H 0.94348 0.79252 0.49553 0.0
C1616 C 0.88348 0.7857 0.57738 0.0
C1617 C 0.89583 0.78067 0.59009 0.0
C1618 C 0.88542 0.78645 0.55616 0.0
C1619 C 0.89972 0.78211 0.54711 0.0
C1620 C 0.91237 0.77787 0.55976 0.0
C1621 C 0.91044 0.77711 0.58112 0.0
C1622 C 0.90089 0.78107 0.52442 0.0
C1623 C 0.91162 0.79068 0.51394 0.0
C1624 C 0.89051 0.77144 0.51306 0.0
C1625 C 0.87963 0.76027 0.52324 0.0
C1626 C 0.88538 0.74901 0.53713 0.0
C1627 C 0.87507 0.73864 0.54686 0.0
C1628 C 0.85899 0.73933 0.54273 0.0
C1629 C 0.85319 0.75038 0.52882 0.0
C1630 C 0.86345 0.7608 0.51906 0.0
C1631 C 0.91083 0.77825 0.42441 0.0
C1632 C 0.89618 0.78133 0.41526 0.0
C1633 C 0.91257 0.77901 0.44579 0.0
C1634 C 0.89971 0.78288 0.45832 0.0
C1635 C 0.88526 0.78644 0.44911 0.0
C1636 C 0.88352 0.78572 0.42786 0.0
C1637 C 0.90082 0.78232 0.48106 0.0
C1638 C 0.89053 0.77229 0.4916 0.0
C1639 C 0.91164 0.79151 0.49236 0.0
C1640 C 0.9225 0.80264 0.48217 0.0
C1641 C 0.91669 0.81453 0.46926 0.0
C1642 C 0.92702 0.82497 0.45969 0.0
C1643 C 0.94317 0.82372 0.46303 0.0
C1644 C 0.94903 0.81204 0.47599 0.0
C1645 C 0.93875 0.80156 0.48559 0.0
H1646 H 0.95115 0.83182 0.45561 0.0
H1647 H 0.85103 0.73129 0.55028 0.0
H1648 H 0.70908 0.62536 0.58262 0.0
H1649 H 0.70612 0.62079 0.54597 0.0
H1650 H 0.72206 0.57308 0.55365 0.0
H1651 H 0.72524 0.57765 0.59061 0.0
H1652 H 0.73707 0.58745 0.52235 0.0
H1653 H 0.68372 0.58051 0.54196 0.0
H1654 H 0.65884 0.58688 0.55939 0.0
H1655 H 0.65537 0.62974 0.52504 0.0
H1656 H 0.68035 0.62375 0.5076 0.0
H1657 H 0.72463 0.5782 0.41439 0.0
H1658 H 0.72203 0.57357 0.45138 0.0
H1659 H 0.7058 0.62113 0.45961 0.0
H1660 H 0.70813 0.62575 0.42287 0.0
H1661 H 0.68922 0.60149 0.48304 0.0
H1662 H 0.74428 0.61063 0.4683 0.0
H1663 H 0.76958 0.60517 0.45133 0.0
H1664 H 0.76991 0.55872 0.47694 0.0
H1665 H 0.74449 0.56386 0.49386 0.0
C1666 C 0.71179 0.61382 0.57662 0.0
C1667 C 0.71739 0.60186 0.58958 0.0
C1668 C 0.71001 0.6112 0.55562 0.0
C1669 C 0.71369 0.59654 0.54703 0.0
C1670 C 0.71908 0.58447 0.55994 0.0
C1671 C 0.72083 0.58708 0.58106 0.0
C1672 C 0.71279 0.59432 0.52442 0.0
C1673 C 0.72649 0.59014 0.51378 0.0
C1674 C 0.69907 0.59809 0.51318 0.0
C1675 C 0.68397 0.60171 0.52354 0.0
C1676 C 0.67771 0.59135 0.53821 0.0
C1677 C 0.66358 0.59488 0.54808 0.0
C1678 C 0.65554 0.60871 0.54334 0.0
C1679 C 0.66161 0.61903 0.52869 0.0
C1680 C 0.67574 0.61555 0.51878 0.0
C1681 C 0.72033 0.5876 0.42407 0.0
C1682 C 0.71668 0.60237 0.41568 0.0
C1683 C 0.71892 0.58496 0.44522 0.0
C1684 C 0.71389 0.59706 0.45834 0.0
C1685 C 0.7097 0.6116 0.44984 0.0
C1686 C 0.7111 0.61424 0.42879 0.0
C1687 C 0.71361 0.59504 0.48101 0.0
C1688 C 0.69969 0.59845 0.49165 0.0
C1689 C 0.72714 0.59063 0.49225 0.0
C1690 C 0.74241 0.58755 0.48211 0.0
C1691 C 0.74969 0.59921 0.47017 0.0
C1692 C 0.76406 0.59618 0.46059 0.0
C1693 C 0.77132 0.58159 0.463 0.0
C1694 C 0.76425 0.57001 0.47505 0.0
C1695 C 0.74987 0.57297 0.48464 0.0
H1696 H 0.78245 0.57927 0.45557 0.0
H1697 H 0.6446 0.61143 0.55101 0.0
H1698 H 0.42132 0.728 0.4167 0.0
H1699 H 0.42425 0.72637 0.4541 0.0
H1700 H 0.37801 0.70603 0.45875 0.0
H1701 H 0.37494 0.70779 0.42169 0.0
H1702 H 0.38107 0.73052 0.48388 0.0
H1703 H 0.41148 0.6844 0.46728 0.0
H1704 H 0.43285 0.66978 0.45037 0.0
H1705 H 0.46701 0.69897 0.48022 0.0
H1706 H 0.44582 0.71391 0.49711 0.0
H1707 H 0.37461 0.70701 0.58529 0.0
H1708 H 0.37813 0.70543 0.54826 0.0
H1709 H 0.42343 0.72764 0.55371 0.0
H1710 H 0.42008 0.72907 0.5911 0.0
H1711 H 0.42311 0.70416 0.52375 0.0
H1712 H 0.39303 0.74965 0.54115 0.0
H1713 H 0.37183 0.76442 0.55821 0.0
H1714 H 0.33731 0.73693 0.52639 0.0
H1715 H 0.35831 0.72183 0.50936 0.0
C1716 C 0.4119 0.72294 0.42569 0.0
C1717 C 0.39785 0.71812 0.41623 0.0
C1718 C 0.41359 0.722 0.44706 0.0
C1719 C 0.40133 0.71611 0.45926 0.0
C1720 C 0.38759 0.71071 0.44969 0.0
C1721 C 0.38588 0.71169 0.42846 0.0
C1722 C 0.40212 0.71656 0.48205 0.0
C1723 C 0.39018 0.72459 0.49256 0.0
C1724 C 0.41432 0.70935 0.49341 0.0
C1725 C 0.42706 0.70038 0.48327 0.0
C1726 C 0.42354 0.68779 0.4701 0.0
C1727 C 0.43562 0.67943 0.46054 0.0
C1728 C 0.45128 0.68348 0.46417 0.0
C1729 C 0.45488 0.69587 0.4774 0.0
C1730 C 0.44284 0.70428 0.48698 0.0
C1731 C 0.38544 0.71138 0.57871 0.0
C1732 C 0.39699 0.71834 0.59113 0.0
C1733 C 0.38742 0.71049 0.5575 0.0
C1734 C 0.4009 0.7167 0.54817 0.0
C1735 C 0.4129 0.72284 0.56059 0.0
C1736 C 0.41096 0.72367 0.58194 0.0
C1737 C 0.4018 0.7177 0.52544 0.0
C1738 C 0.41406 0.71011 0.515 0.0
C1739 C 0.38993 0.72537 0.51402 0.0
C1740 C 0.37725 0.73452 0.5241 0.0
C1741 C 0.38092 0.74668 0.53789 0.0
C1742 C 0.36894 0.75512 0.54755 0.0
C1743 C 0.35324 0.7516 0.54342 0.0
C1744 C 0.34948 0.73964 0.52958 0.0
C1745 C 0.36142 0.73115 0.51991 0.0
H1746 H 0.34398 0.75815 0.55091 0.0
H1747 H 0.46061 0.67699 0.45676 0.0
H1748 H 0.27383 0.4211 0.41587 0.0
H1749 H 0.27568 0.42429 0.45322 0.0
H1750 H 0.29313 0.37694 0.45864 0.0
H1751 H 0.29125 0.37364 0.42162 0.0
H1752 H 0.26871 0.38205 0.48389 0.0
H1753 H 0.31697 0.40844 0.4663 0.0
H1754 H 0.33319 0.42834 0.44883 0.0
H1755 H 0.30706 0.46513 0.47817 0.0
H1756 H 0.29053 0.44544 0.49562 0.0
H1757 H 0.29344 0.37472 0.58472 0.0
H1758 H 0.29476 0.37802 0.54765 0.0
H1759 H 0.2748 0.42435 0.55317 0.0
H1760 H 0.27352 0.42118 0.5906 0.0
H1761 H 0.29859 0.4223 0.52267 0.0
H1762 H 0.25106 0.39605 0.54125 0.0
H1763 H 0.23488 0.37625 0.55894 0.0
H1764 H 0.2593 0.33936 0.52735 0.0
H1765 H 0.27581 0.35895 0.50969 0.0
C1766 C 0.27829 0.41147 0.42501 0.0
C1767 C 0.2823 0.39708 0.41576 0.0
C1768 C 0.27937 0.41332 0.44635 0.0
C1769 C 0.28452 0.40084 0.45875 0.0
C1770 C 0.28905 0.3867 0.44942 0.0
C1771 C 0.28799 0.38485 0.4282 0.0
C1772 C 0.28424 0.40192 0.48152 0.0
C1773 C 0.27538 0.39077 0.49233 0.0
C1774 C 0.29248 0.41363 0.49256 0.0
C1775 C 0.30239 0.42547 0.48207 0.0
C1776 C 0.31458 0.42078 0.46888 0.0
C1777 C 0.32386 0.43202 0.45901 0.0
C1778 C 0.32112 0.44799 0.46234 0.0
C1779 C 0.30914 0.45276 0.47558 0.0
C1780 C 0.29982 0.44156 0.48547 0.0
C1781 C 0.28953 0.38573 0.57816 0.0
C1782 C 0.28321 0.39763 0.59063 0.0
C1783 C 0.29028 0.38758 0.55692 0.0
C1784 C 0.28463 0.40132 0.54762 0.0
C1785 C 0.27916 0.41363 0.56005 0.0
C1786 C 0.27842 0.41179 0.58142 0.0
C1787 C 0.28343 0.40214 0.52491 0.0
C1788 C 0.29187 0.41367 0.51415 0.0
C1789 C 0.27476 0.3908 0.51381 0.0
C1790 C 0.26476 0.37897 0.52427 0.0
C1791 C 0.25306 0.38372 0.53819 0.0
C1792 C 0.24382 0.37253 0.54819 0.0
C1793 C 0.24608 0.35656 0.54431 0.0
C1794 C 0.25757 0.35174 0.53036 0.0
C1795 C 0.26686 0.36288 0.52033 0.0
H1796 H 0.23891 0.34791 0.55207 0.0
H1797 H 0.32832 0.45667 0.45469 0.0
H1798 H 0.6273 0.29046 0.58506 0.0
H1799 H 0.62428 0.29245 0.54801 0.0
H1800 H 0.57713 0.27433 0.55267 0.0
H1801 H 0.58 0.27252 0.59005 0.0
H1802 H 0.62012 0.26863 0.52244 0.0
H1803 H 0.55595 0.2878 0.51011 0.0
H1804 H 0.53545 0.30341 0.52741 0.0
H1805 H 0.57089 0.33101 0.55731 0.0
H1806 H 0.59158 0.3157 0.53999 0.0
H1807 H 0.5807 0.2723 0.41565 0.0
H1808 H 0.57762 0.27346 0.45309 0.0
H1809 H 0.62351 0.29442 0.45843 0.0
H1810 H 0.62676 0.29315 0.42134 0.0
H1811 H 0.57886 0.29688 0.48339 0.0
H1812 H 0.64305 0.27685 0.49688 0.0
H1813 H 0.66344 0.26122 0.47939 0.0
H1814 H 0.62785 0.23521 0.44746 0.0
H1815 H 0.60725 0.2505 0.46498 0.0
C1816 C 0.61619 0.28708 0.57829 0.0
C1817 C 0.60391 0.28126 0.59053 0.0
C1818 C 0.6145 0.2882 0.55706 0.0
C1819 C 0.6005 0.28352 0.54749 0.0
C1820 C 0.58799 0.27817 0.5597 0.0
C1821 C 0.58965 0.27711 0.58106 0.0
C1822 C 0.5996 0.28332 0.5247 0.0
C1823 C 0.61118 0.27497 0.51395 0.0
C1824 C 0.58762 0.29109 0.51356 0.0
C1825 C 0.5753 0.30047 0.52394 0.0
C1826 C 0.55936 0.29722 0.52034 0.0
C1827 C 0.54771 0.30602 0.53016 0.0
C1828 C 0.55186 0.31815 0.54352 0.0
C1829 C 0.56768 0.32156 0.54704 0.0
C1830 C 0.57938 0.31281 0.53725 0.0
C1831 C 0.59002 0.27738 0.4248 0.0
C1832 C 0.60405 0.28246 0.41554 0.0
C1833 C 0.58823 0.27805 0.44618 0.0
C1834 C 0.60045 0.28377 0.45857 0.0
C1835 C 0.61404 0.28971 0.4492 0.0
C1836 C 0.61586 0.28899 0.42796 0.0
C1837 C 0.59965 0.28259 0.48129 0.0
C1838 C 0.58773 0.29052 0.49196 0.0
C1839 C 0.61131 0.2744 0.49247 0.0
C1840 C 0.62361 0.26493 0.48211 0.0
C1841 C 0.63957 0.26774 0.4862 0.0
C1842 C 0.65117 0.25895 0.47627 0.0
C1843 C 0.64694 0.24726 0.46228 0.0
C1844 C 0.63111 0.2443 0.45825 0.0
C1845 C 0.61947 0.25304 0.46816 0.0
H1846 H 0.65594 0.24048 0.45459 0.0
H1847 H 0.54283 0.32494 0.55111 0.0
H1848 H 0.70742 0.37542 0.92264 0.0
H1849 H 0.70466 0.38013 0.95928 0.0
H1850 H 0.72181 0.42739 0.95138 0.0
H1851 H 0.72482 0.42266 0.91444 0.0
H1852 H 0.73662 0.41289 0.98241 0.0
H1853 H 0.68325 0.42075 0.96373 0.0
H1854 H 0.65805 0.4149 0.94677 0.0
H1855 H 0.65409 0.37211 0.98119 0.0
H1856 H 0.67938 0.37758 0.99816 0.0
H1857 H 0.72532 0.42229 0.09059 0.0
H1858 H 0.72232 0.42701 0.05366 0.0
H1859 H 0.70579 0.37955 0.04559 0.0
H1860 H 0.70856 0.37483 0.08227 0.0
H1861 H 0.68897 0.39958 0.02255 0.0
H1862 H 0.74406 0.38959 0.03626 0.0
H1863 H 0.7696 0.39468 0.0528 0.0
H1864 H 0.77029 0.44116 0.02729 0.0
H1865 H 0.74464 0.43639 0.01081 0.0
C1866 C 0.71042 0.3869 0.92858 0.0
C1867 C 0.71635 0.39866 0.91558 0.0
C1868 C 0.70875 0.38961 0.94959 0.0
C1869 C 0.71286 0.40418 0.95812 0.0
C1870 C 0.7185 0.41608 0.94513 0.0
C1871 C 0.72016 0.41338 0.92402 0.0
C1872 C 0.7122 0.40642 0.98075 0.0
C1873 C 0.72608 0.41037 0.99116 0.0
C1874 C 0.69855 0.40287 0.99224 0.0
C1875 C 0.68327 0.39955 0.98215 0.0
C1876 C 0.67706 0.41004 0.96759 0.0
C1877 C 0.66275 0.4068 0.95799 0.0
C1878 C 0.65449 0.39313 0.96288 0.0
C1879 C 0.6605 0.3827 0.97742 0.0
C1880 C 0.67481 0.38588 0.98706 0.0
C1881 C 0.72087 0.41294 0.08097 0.0
C1882 C 0.71727 0.39816 0.08937 0.0
C1883 C 0.71922 0.41563 0.05985 0.0
C1884 C 0.71398 0.40357 0.0468 0.0
C1885 C 0.70984 0.38903 0.05532 0.0
C1886 C 0.7115 0.38634 0.07633 0.0
C1887 C 0.71348 0.40564 0.02414 0.0
C1888 C 0.69939 0.40247 0.01376 0.0
C1889 C 0.72695 0.40986 0.01267 0.0
C1890 C 0.74236 0.41271 0.02254 0.0
C1891 C 0.7496 0.40094 0.03433 0.0
C1892 C 0.76411 0.40375 0.04366 0.0
C1893 C 0.77154 0.41825 0.04116 0.0
C1894 C 0.7645 0.42995 0.02926 0.0
C1895 C 0.74999 0.42719 0.01992 0.0
H1896 H 0.78277 0.42041 0.04839 0.0
H1897 H 0.64341 0.39064 0.95542 0.0
H1898 H 0.57777 0.72615 0.08812 0.0
H1899 H 0.57464 0.72455 0.05076 0.0
H1900 H 0.61872 0.69983 0.04629 0.0
H1901 H 0.62202 0.70162 0.08333 0.0
H1902 H 0.61821 0.72418 0.02113 0.0
H1903 H 0.5829 0.68168 0.03752 0.0
H1904 H 0.56004 0.66947 0.05436 0.0
H1905 H 0.52931 0.70229 0.02458 0.0
H1906 H 0.55202 0.71484 0.00776 0.0
H1907 H 0.62199 0.70203 0.91906 0.0
H1908 H 0.61836 0.69985 0.95603 0.0
H1909 H 0.57542 0.72647 0.95179 0.0
H1910 H 0.57882 0.72845 0.91446 0.0
H1911 H 0.57347 0.70289 0.98111 0.0
H1912 H 0.60832 0.74507 0.96441 0.0
H1913 H 0.63097 0.75759 0.94745 0.0
H1914 H 0.66233 0.72599 0.97836 0.0
H1915 H 0.63984 0.71313 0.99528 0.0
C1916 C 0.58664 0.72013 0.07918 0.0
C1917 C 0.6002 0.71411 0.08867 0.0
C1918 C 0.58483 0.71919 0.05783 0.0
C1919 C 0.59647 0.71209 0.04568 0.0
C1920 C 0.60963 0.70545 0.0553 0.0
C1921 C 0.61148 0.70646 0.07652 0.0
C1922 C 0.59576 0.71261 0.02288 0.0
C1923 C 0.6085 0.71933 0.01242 0.0
C1924 C 0.58283 0.70685 0.01148 0.0
C1925 C 0.56918 0.6993 0.02156 0.0
C1926 C 0.57128 0.68638 0.0347 0.0
C1927 C 0.55835 0.67938 0.04421 0.0
C1928 C 0.54323 0.68513 0.04059 0.0
C1929 C 0.54102 0.69786 0.0274 0.0
C1930 C 0.55392 0.70492 0.01786 0.0
C1931 C 0.61163 0.70723 0.9259 0.0
C1932 C 0.60079 0.71558 0.91386 0.0
C1933 C 0.60959 0.70599 0.94707 0.0
C1934 C 0.5968 0.71328 0.95674 0.0
C1935 C 0.58541 0.72082 0.94465 0.0
C1936 C 0.58739 0.72195 0.92334 0.0
C1937 C 0.59614 0.71402 0.9795 0.0
C1938 C 0.58315 0.70772 0.9899 0.0
C1939 C 0.60881 0.72024 0.99098 0.0
C1940 C 0.62238 0.72806 0.98098 0.0
C1941 C 0.62004 0.74073 0.96749 0.0
C1942 C 0.63285 0.74789 0.95789 0.0
C1943 C 0.64807 0.74257 0.96179 0.0
C1944 C 0.65052 0.7301 0.97534 0.0
C1945 C 0.63775 0.72287 0.98495 0.0
H1946 H 0.65798 0.74813 0.95435 0.0
H1947 H 0.53324 0.67969 0.04797 0.0
H1948 H 0.27717 0.57868 0.09188 0.0
H1949 H 0.27904 0.5753 0.05454 0.0
H1950 H 0.29273 0.6238 0.04823 0.0
H1951 H 0.2909 0.62727 0.08523 0.0
H1952 H 0.26826 0.61623 0.02336 0.0
H1953 H 0.31897 0.59495 0.04087 0.0
H1954 H 0.3372 0.57695 0.05847 0.0
H1955 H 0.31478 0.53745 0.02991 0.0
H1956 H 0.29626 0.55522 0.01234 0.0
H1957 H 0.29296 0.62555 0.92281 0.0
H1958 H 0.29425 0.62235 0.95989 0.0
H1959 H 0.27801 0.57462 0.95416 0.0
H1960 H 0.2767 0.5777 0.91671 0.0
H1961 H 0.30191 0.57889 0.98487 0.0
H1962 H 0.25204 0.60022 0.96609 0.0
H1963 H 0.234 0.61824 0.9482 0.0
H1964 H 0.25462 0.65751 0.97951 0.0
H1965 H 0.27297 0.63973 0.99735 0.0
C1966 C 0.2808 0.58855 0.08255 0.0
C1967 C 0.2838 0.60327 0.09154 0.0
C1968 C 0.28189 0.58659 0.06122 0.0
C1969 C 0.28598 0.59932 0.04859 0.0
C1970 C 0.28947 0.61384 0.05765 0.0
C1971 C 0.28846 0.61578 0.07886 0.0
C1972 C 0.28568 0.598 0.02586 0.0
C1973 C 0.27573 0.60814 0.01498 0.0
C1974 C 0.29502 0.58709 0.01491 0.0
C1975 C 0.30611 0.5764 0.0255 0.0
C1976 C 0.31782 0.58242 0.0385 0.0
C1977 C 0.32823 0.57226 0.04843 0.0
C1978 C 0.32712 0.55606 0.04537 0.0
C1979 C 0.31561 0.55 0.03231 0.0
C1980 C 0.30516 0.5601 0.02235 0.0
C1981 C 0.28986 0.61427 0.92933 0.0
C1982 C 0.28456 0.60193 0.91678 0.0
C1983 C 0.29059 0.61248 0.95057 0.0
C1984 C 0.28601 0.59833 0.9598 0.0
C1985 C 0.28156 0.58565 0.94732 0.0
C1986 C 0.28079 0.58744 0.92595 0.0
C1987 C 0.28481 0.59741 0.9825 0.0
C1988 C 0.29437 0.58685 0.99333 0.0
C1989 C 0.27507 0.60791 0.9935 0.0
C1990 C 0.26397 0.61865 0.98293 0.0
C1991 C 0.25281 0.61271 0.96904 0.0
C1992 C 0.24252 0.62288 0.95893 0.0
C1993 C 0.24319 0.63901 0.96268 0.0
C1994 C 0.25413 0.64501 0.9766 0.0
C1995 C 0.26447 0.63489 0.98674 0.0
H1996 H 0.23521 0.64687 0.95484 0.0
H1997 H 0.33519 0.54822 0.05306 0.0
H1998 H 0.37202 0.28884 0.92431 0.0
H1999 H 0.37686 0.29208 0.96083 0.0
H2000 H 0.42543 0.27945 0.95204 0.0
H2001 H 0.42058 0.2759 0.9152 0.0
H2002 H 0.41294 0.26377 0.98377 0.0
H2003 H 0.41515 0.31745 0.96373 0.0
H2004 H 0.40648 0.34165 0.94635 0.0
H2005 H 0.36399 0.34168 0.98177 0.0
H2006 H 0.37229 0.31736 0.99918 0.0
H2007 H 0.42193 0.27692 0.09165 0.0
H2008 H 0.42617 0.27982 0.05461 0.0
H2009 H 0.37753 0.29263 0.04685 0.0
H2010 H 0.37331 0.29006 0.08362 0.0
H2011 H 0.39553 0.31044 0.02319 0.0
H2012 H 0.39114 0.25475 0.0382 0.0
H2013 H 0.39895 0.23005 0.05513 0.0
H2014 H 0.445 0.23373 0.02876 0.0
H2015 H 0.4375 0.25856 0.01187 0.0
C2016 C 0.3838 0.2869 0.93003 0.0
C2017 C 0.39592 0.28212 0.91679 0.0
C2018 C 0.38657 0.28885 0.95097 0.0
C2019 C 0.40157 0.28622 0.9592 0.0
C2020 C 0.41378 0.28162 0.94602 0.0
C2021 C 0.41101 0.27965 0.92497 0.0
C2022 C 0.40404 0.2874 0.98175 0.0
C2023 C 0.4095 0.27412 0.99235 0.0
C2024 C 0.39933 0.3008 0.99303 0.0
C2025 C 0.39433 0.31552 0.9827 0.0
C2026 C 0.40391 0.32256 0.96774 0.0
C2027 C 0.39907 0.33631 0.95788 0.0
C2028 C 0.38468 0.34319 0.96293 0.0
C2029 C 0.37513 0.33634 0.97788 0.0
C2030 C 0.37992 0.32259 0.98777 0.0
C2031 C 0.41221 0.28054 0.08206 0.0
C2032 C 0.39726 0.28317 0.09059 0.0
C2033 C 0.41462 0.28212 0.06088 0.0
C2034 C 0.40212 0.28626 0.04788 0.0
C2035 C 0.38737 0.28944 0.05652 0.0
C2036 C 0.38496 0.2879 0.0776 0.0
C2037 C 0.40396 0.28666 0.02518 0.0
C2038 C 0.39931 0.30023 0.01456 0.0
C2039 C 0.40934 0.27351 0.01389 0.0
C2040 C 0.41383 0.25859 0.024 0.0
C2041 C 0.40296 0.25034 0.03615 0.0
C2042 C 0.40733 0.23632 0.04571 0.0
C2043 C 0.42248 0.23035 0.04308 0.0
C2044 C 0.43328 0.23838 0.03083 0.0
C2045 C 0.42898 0.25242 0.02125 0.0
H2046 H 0.42583 0.21949 0.0505 0.0
H2047 H 0.38095 0.35383 0.95528 0.0
H2048 H 0.26607 0.06431 0.22583 0.0
H2049 H 0.26781 0.03964 0.24472 0.0
H2050 H 0.2308 0.02023 0.20723 0.0
H2051 H 0.2296 0.0447 0.18762 0.0
H2052 H 0.24875 0.02627 0.26841 0.0
H2053 H 0.23259 0.9809 0.20526 0.0
H2054 H 0.23616 0.97712 0.16803 0.0
H2055 H 0.27719 0.00639 0.16933 0.0
H2056 H 0.27398 0.01018 0.20659 0.0
H2057 H 0.22744 0.95426 0.31563 0.0
H2058 H 0.22889 0.97874 0.29607 0.0
H2059 H 0.26852 0.96056 0.26227 0.0
H2060 H 0.26648 0.93581 0.28096 0.0
H2061 H 0.25075 0.97338 0.2368 0.0
H2062 H 0.27126 0.99038 0.30124 0.0
H2063 H 0.27182 0.99424 0.33872 0.0
H2064 H 0.22974 0.02188 0.33527 0.0
H2065 H 0.22882 0.01801 0.29779 0.0
C2066 C 0.25847 0.05469 0.22141 0.0
C2067 C 0.24775 0.05639 0.2052 0.0
C2068 C 0.25941 0.04061 0.2323 0.0
C2069 C 0.24949 0.02798 0.22742 0.0
C2070 C 0.23883 0.02963 0.21107 0.0
C2071 C 0.23812 0.04364 0.19988 0.0
C2072 C 0.24993 0.01338 0.24 0.0
C2073 C 0.24925 0.01471 0.26147 0.0
C2074 C 0.25085 0.99825 0.23107 0.0
C2075 C 0.25294 0.99595 0.20868 0.0
C2076 C 0.2424 0.98648 0.19761 0.0
C2077 C 0.24436 0.98435 0.1765 0.0
C2078 C 0.25686 0.99155 0.16631 0.0
C2079 C 0.26747 0.00087 0.17722 0.0
C2080 C 0.26557 0.00303 0.19833 0.0
C2081 C 0.23657 0.9556 0.30419 0.0
C2082 C 0.24686 0.94317 0.29982 0.0
C2083 C 0.23743 0.96962 0.29304 0.0
C2084 C 0.24893 0.97164 0.27775 0.0
C2085 C 0.25948 0.95932 0.27385 0.0
C2086 C 0.25838 0.9452 0.28463 0.0
C2087 C 0.24962 0.98627 0.26524 0.0
C2088 C 0.25037 0.98494 0.24377 0.0
C2089 C 0.24939 0.00141 0.2742 0.0
C2090 C 0.2499 0.00378 0.29673 0.0
C2091 C 0.26207 0.99719 0.3085 0.0
C2092 C 0.26246 0.99939 0.32974 0.0
C2093 C 0.2508 0.00827 0.33938 0.0
C2094 C 0.23875 0.01499 0.32779 0.0
C2095 C 0.2383 0.01281 0.30654 0.0
H2096 H 0.25112 0.00996 0.35583 0.0
H2097 H 0.25835 0.98989 0.14997 0.0
H2098 H 0.95647 0.24463 0.18088 0.0
H2099 H 0.98153 0.24631 0.1992 0.0
H2100 H 0.9567 0.24882 0.25683 0.0
H2101 H 0.93176 0.24782 0.23862 0.0
H2102 H 0.97986 0.2679 0.25848 0.0
H2103 H 0.9744 0.21405 0.23819 0.0
H2104 H 0.97046 0.19201 0.2142 0.0
H2105 H 0.01205 0.20524 0.18125 0.0
H2106 H 0.01613 0.22748 0.20491 0.0
H2107 H 0.04329 0.24236 0.32361 0.0
H2108 H 0.01845 0.24413 0.30465 0.0
H2109 H 0.04403 0.25135 0.24837 0.0
H2110 H 0.06878 0.24977 0.26709 0.0
H2111 H 0.02095 0.22777 0.24591 0.0
H2112 H 0.02632 0.28139 0.26865 0.0
H2113 H 0.02989 0.30231 0.29438 0.0
H2114 H 0.9877 0.28778 0.32501 0.0
H2115 H 0.984 0.26662 0.29961 0.0
C2116 C 0.95639 0.24565 0.19744 0.0
C2117 C 0.94214 0.24604 0.2083 0.0
C2118 C 0.97071 0.24651 0.20792 0.0
C2119 C 0.97104 0.24742 0.22947 0.0
C2120 C 0.9568 0.24814 0.24023 0.0
C2121 C 0.94252 0.24753 0.22977 0.0
C2122 C 0.98615 0.24736 0.24094 0.0
C2123 C 0.98875 0.25901 0.25585 0.0
C2124 C 0.99789 0.23589 0.23743 0.0
C2125 C 0.99547 0.22253 0.22319 0.0
C2126 C 0.98264 0.21232 0.22574 0.0
C2127 C 0.98039 0.19979 0.21221 0.0
C2128 C 0.99097 0.19726 0.19617 0.0
C2129 C 0.00385 0.20723 0.19366 0.0
C2130 C 0.00614 0.2198 0.20713 0.0
C2131 C 0.0436 0.24446 0.30723 0.0
C2132 C 0.058 0.24594 0.29686 0.0
C2133 C 0.02942 0.24549 0.29644 0.0
C2134 C 0.02944 0.24788 0.27512 0.0
C2135 C 0.04377 0.24948 0.2648 0.0
C2136 C 0.0579 0.24863 0.27557 0.0
C2137 C 0.01456 0.24825 0.26336 0.0
C2138 C 0.01203 0.23665 0.24844 0.0
C2139 C 0.00279 0.25958 0.26711 0.0
C2140 C 0.00498 0.27233 0.28235 0.0
C2141 C 0.01788 0.28257 0.28097 0.0
C2142 C 0.01991 0.29449 0.29548 0.0
C2143 C 0.00905 0.29635 0.31135 0.0
C2144 C 0.99611 0.28631 0.31273 0.0
C2145 C 0.99404 0.27437 0.29827 0.0
H2146 H 0.01064 0.30558 0.32257 0.0
H2147 H 0.98921 0.18754 0.18572 0.0
H2148 H 0.75177 0.04233 0.32357 0.0
H2149 H 0.74921 0.01735 0.30522 0.0
H2150 H 0.75064 0.04207 0.24745 0.0
H2151 H 0.75238 0.06697 0.26566 0.0
H2152 H 0.7305 0.02034 0.24411 0.0
H2153 H 0.78348 0.02188 0.26918 0.0
H2154 H 0.80442 0.02423 0.29513 0.0
H2155 H 0.7864 0.98381 0.32668 0.0
H2156 H 0.76523 0.98135 0.30105 0.0
H2157 H 0.75523 0.95542 0.18098 0.0
H2158 H 0.75379 0.9803 0.1999 0.0
H2159 H 0.7422 0.95508 0.2552 0.0
H2160 H 0.74347 0.9303 0.23652 0.0
H2161 H 0.76685 0.97651 0.26005 0.0
H2162 H 0.7144 0.97494 0.23215 0.0
H2163 H 0.69483 0.97292 0.20439 0.0
H2164 H 0.71397 0.01409 0.17578 0.0
H2165 H 0.7338 0.01623 0.20323 0.0
C2166 C 0.75143 0.0424 0.30697 0.0
C2167 C 0.75231 0.05659 0.29607 0.0
C2168 C 0.75007 0.02812 0.29647 0.0
C2169 C 0.75002 0.02775 0.27488 0.0
C2170 C 0.75063 0.04198 0.26407 0.0
C2171 C 0.75166 0.05623 0.27453 0.0
C2172 C 0.74957 0.01263 0.26343 0.0
C2173 C 0.73859 0.01084 0.24749 0.0
C2174 C 0.75995 9e-05 0.26791 0.0
C2175 C 0.77268 0.00154 0.28332 0.0
C2176 C 0.78392 0.01357 0.28174 0.0
C2177 C 0.79584 0.0149 0.29637 0.0
C2178 C 0.79671 0.0042 0.31257 0.0
C2179 C 0.78569 0.99211 0.31414 0.0
C2180 C 0.77374 0.99073 0.29956 0.0
C2181 C 0.75221 0.95521 0.19711 0.0
C2182 C 0.74947 0.94089 0.20724 0.0
C2183 C 0.75137 0.96941 0.20788 0.0
C2184 C 0.74788 0.9695 0.22894 0.0
C2185 C 0.74494 0.95525 0.23898 0.0
C2186 C 0.74562 0.94111 0.22822 0.0
C2187 C 0.74787 0.98434 0.2408 0.0
C2188 C 0.75877 0.98604 0.25677 0.0
C2189 C 0.73763 0.99689 0.23609 0.0
C2190 C 0.72568 0.99565 0.21964 0.0
C2191 C 0.71452 0.98348 0.21984 0.0
C2192 C 0.70336 0.98233 0.20419 0.0
C2193 C 0.70318 0.99334 0.1883 0.0
C2194 C 0.71414 0.00555 0.18808 0.0
C2195 C 0.72532 0.00675 0.20369 0.0
H2196 H 0.69454 0.99243 0.1762 0.0
H2197 H 0.80595 0.00526 0.32389 0.0
H2198 H 0.06783 0.74969 0.23644 0.0
H2199 H 0.04282 0.7481 0.25431 0.0
H2200 H 0.01826 0.75331 0.19681 0.0
H2201 H 0.04345 0.75555 0.17882 0.0
H2202 H 0.00526 0.77118 0.2239 0.0
H2203 H 0.0203 0.71729 0.22377 0.0
H2204 H 0.03764 0.69446 0.22903 0.0
H2205 H 0.03962 0.70434 0.29356 0.0
H2206 H 0.02246 0.72737 0.28865 0.0
H2207 H 0.93109 0.75002 0.26481 0.0
H2208 H 0.95583 0.74848 0.24607 0.0
H2209 H 0.98146 0.75432 0.30258 0.0
H2210 H 0.95662 0.75605 0.32158 0.0
H2211 H 0.99326 0.73001 0.27544 0.0
H2212 H 0.97827 0.78467 0.27407 0.0
H2213 H 0.9601 0.80669 0.26776 0.0
H2214 H 0.9571 0.79387 0.20418 0.0
H2215 H 0.97508 0.77162 0.21019 0.0
C2216 C 0.05713 0.75035 0.22752 0.0
C2217 C 0.05763 0.75269 0.20618 0.0
C2218 C 0.04279 0.74935 0.23778 0.0
C2219 C 0.0286 0.7503 0.22692 0.0
C2220 C 0.02905 0.75248 0.20554 0.0
C2221 C 0.04344 0.75371 0.19526 0.0
C2222 C 0.01337 0.74979 0.23808 0.0
C2223 C 0.00256 0.762 0.23489 0.0
C2224 C 0.0099 0.73801 0.25277 0.0
C2225 C 0.0202 0.72414 0.2558 0.0
C2226 C 0.02453 0.71467 0.23906 0.0
C2227 C 0.03431 0.70168 0.24199 0.0
C2228 C 0.03976 0.69797 0.26161 0.0
C2229 C 0.0354 0.70723 0.27836 0.0
C2230 C 0.02563 0.72025 0.27552 0.0
C2231 C 0.94197 0.75087 0.27334 0.0
C2232 C 0.94189 0.75321 0.2947 0.0
C2233 C 0.95609 0.75003 0.26257 0.0
C2234 C 0.97044 0.75141 0.27293 0.0
C2235 C 0.97048 0.75325 0.29433 0.0
C2236 C 0.9563 0.75427 0.30513 0.0
C2237 C 0.98534 0.75137 0.26123 0.0
C2238 C 0.99603 0.73909 0.26435 0.0
C2239 C 0.98862 0.76295 0.24628 0.0
C2240 C 0.97789 0.77639 0.24262 0.0
C2241 C 0.97363 0.78647 0.25878 0.0
C2242 C 0.96339 0.799 0.25525 0.0
C2243 C 0.95742 0.80165 0.23559 0.0
C2244 C 0.96171 0.79179 0.21941 0.0
C2245 C 0.97194 0.77923 0.22286 0.0
H2246 H 0.94949 0.81137 0.23289 0.0
H2247 H 0.04733 0.68791 0.26384 0.0
H2248 H 0.75818 0.95611 0.82466 0.0
H2249 H 0.75662 0.98099 0.80576 0.0
H2250 H 0.7453 0.95572 0.75038 0.0
H2251 H 0.74671 0.93095 0.76905 0.0
H2252 H 0.76963 0.97739 0.74547 0.0
H2253 H 0.71729 0.97528 0.77363 0.0
H2254 H 0.6978 0.97305 0.80144 0.0
H2255 H 0.7166 0.01437 0.83007 0.0
H2256 H 0.73635 0.01673 0.80256 0.0
H2257 H 0.75295 0.04281 0.68186 0.0
H2258 H 0.75108 0.01786 0.70042 0.0
H2259 H 0.7529 0.04282 0.758 0.0
H2260 H 0.754 0.06768 0.7396 0.0
H2261 H 0.73289 0.02084 0.76167 0.0
H2262 H 0.78566 0.02299 0.73603 0.0
H2263 H 0.80642 0.02554 0.70985 0.0
H2264 H 0.78875 0.9848 0.67868 0.0
H2265 H 0.76777 0.98212 0.70454 0.0
C2266 C 0.75521 0.95588 0.80851 0.0
C2267 C 0.75257 0.94156 0.79836 0.0
C2268 C 0.7543 0.97009 0.79775 0.0
C2269 C 0.75083 0.97016 0.77668 0.0
C2270 C 0.74802 0.9559 0.76662 0.0
C2271 C 0.74878 0.94176 0.77736 0.0
C2272 C 0.75066 0.98503 0.76486 0.0
C2273 C 0.76147 0.98684 0.74881 0.0
C2274 C 0.7403 0.99746 0.76964 0.0
C2275 C 0.7284 0.99609 0.78614 0.0
C2276 C 0.71736 0.98381 0.78595 0.0
C2277 C 0.70624 0.98254 0.80164 0.0
C2278 C 0.70599 0.99353 0.81754 0.0
C2279 C 0.71682 0.00585 0.81775 0.0
C2280 C 0.72797 0.00717 0.80211 0.0
C2281 C 0.75286 0.04294 0.69847 0.0
C2282 C 0.75365 0.05719 0.70926 0.0
C2283 C 0.75189 0.02868 0.70908 0.0
C2284 C 0.75212 0.0284 0.73067 0.0
C2285 C 0.75268 0.04268 0.74139 0.0
C2286 C 0.75335 0.0569 0.73082 0.0
C2287 C 0.75194 0.01332 0.74221 0.0
C2288 C 0.74107 0.01143 0.75824 0.0
C2289 C 0.76244 0.00089 0.73764 0.0
C2290 C 0.77505 0.00246 0.72209 0.0
C2291 C 0.78614 0.01465 0.7235 0.0
C2292 C 0.79795 0.0161 0.70874 0.0
C2293 C 0.79887 0.00537 0.69258 0.0
C2294 C 0.78801 0.99312 0.69118 0.0
C2295 C 0.77616 0.99162 0.7059 0.0
H2296 H 0.80803 0.00651 0.68117 0.0
H2297 H 0.69737 0.99253 0.82967 0.0
H2298 H 0.95677 0.75343 0.68295 0.0
H2299 H 0.98153 0.75135 0.70209 0.0
H2300 H 0.95569 0.74879 0.75886 0.0
H2301 H 0.93102 0.75061 0.73997 0.0
H2302 H 0.98044 0.77124 0.75865 0.0
H2303 H 0.97107 0.71682 0.74231 0.0
H2304 H 0.96584 0.69455 0.71913 0.0
H2305 H 0.00877 0.70382 0.68682 0.0
H2306 H 0.01415 0.7263 0.70964 0.0
H2307 H 0.04381 0.75437 0.82535 0.0
H2308 H 0.01861 0.75292 0.80735 0.0
H2309 H 0.04294 0.74514 0.75018 0.0
H2310 H 0.068 0.74597 0.76812 0.0
H2311 H 0.01843 0.72751 0.75081 0.0
H2312 H 0.02789 0.78198 0.76472 0.0
H2313 H 0.03357 0.80521 0.78605 0.0
H2314 H 0.99131 0.79737 0.82045 0.0
H2315 H 0.98548 0.77396 0.79948 0.0
C2316 C 0.95638 0.7523 0.69949 0.0
C2317 C 0.94195 0.75216 0.70994 0.0
C2318 C 0.97051 0.7511 0.71038 0.0
C2319 C 0.97039 0.7499 0.73187 0.0
C2320 C 0.95601 0.74971 0.74229 0.0
C2321 C 0.94193 0.75069 0.73144 0.0
C2322 C 0.98525 0.74926 0.74365 0.0
C2323 C 0.98868 0.7616 0.75717 0.0
C2324 C 0.99613 0.73687 0.74124 0.0
C2325 C 0.99293 0.72334 0.72755 0.0
C2326 C 0.97932 0.7142 0.73015 0.0
C2327 C 0.97634 0.70152 0.7171 0.0
C2328 C 0.98694 0.6978 0.70148 0.0
C2329 C 0.00056 0.70673 0.69891 0.0
C2330 C 0.00359 0.71943 0.7119 0.0
C2331 C 0.04376 0.75221 0.80898 0.0
C2332 C 0.0579 0.75035 0.79816 0.0
C2333 C 0.02935 0.75148 0.79868 0.0
C2334 C 0.02886 0.74921 0.77731 0.0
C2335 C 0.04297 0.74692 0.76664 0.0
C2336 C 0.05732 0.74743 0.77694 0.0
C2337 C 0.01374 0.74956 0.76589 0.0
C2338 C 0.01023 0.73718 0.75239 0.0
C2339 C 0.00288 0.76206 0.76806 0.0
C2340 C 0.00634 0.77613 0.78068 0.0
C2341 C 0.01987 0.78515 0.77694 0.0
C2342 C 0.02311 0.79835 0.78894 0.0
C2343 C 0.01283 0.80274 0.80463 0.0
C2344 C 0.99927 0.79394 0.80831 0.0
C2345 C 0.99599 0.78071 0.79637 0.0
H2346 H 0.01535 0.81297 0.81391 0.0
H2347 H 0.98461 0.68798 0.69139 0.0
H2348 H 0.25766 0.93154 0.73232 0.0
H2349 H 0.2589 0.95568 0.75237 0.0
H2350 H 0.234 0.98035 0.70462 0.0
H2351 H 0.23261 0.95609 0.68441 0.0
H2352 H 0.2715 0.98431 0.74574 0.0
H2353 H 0.20886 0.00645 0.72831 0.0
H2354 H 0.183 0.9958 0.71841 0.0
H2355 H 0.19446 0.95179 0.74683 0.0
H2356 H 0.22028 0.96224 0.75713 0.0
H2357 H 0.2602 0.06368 0.77576 0.0
H2358 H 0.26112 0.0387 0.75749 0.0
H2359 H 0.23279 0.01729 0.80464 0.0
H2360 H 0.2318 0.04237 0.82312 0.0
H2361 H 0.22191 0.01078 0.76575 0.0
H2362 H 0.27061 0.0084 0.80211 0.0
H2363 H 0.29635 0.01798 0.81404 0.0
H2364 H 0.31263 0.02045 0.7518 0.0
H2365 H 0.28689 0.01109 0.73947 0.0
C2366 C 0.25254 0.94212 0.72596 0.0
C2367 C 0.24495 0.94188 0.7068 0.0
C2368 C 0.25331 0.95592 0.73744 0.0
C2369 C 0.2464 0.96976 0.73011 0.0
C2370 C 0.23925 0.96973 0.71068 0.0
C2371 C 0.23853 0.9559 0.6991 0.0
C2372 C 0.2463 0.98403 0.74317 0.0
C2373 C 0.26067 0.99014 0.75005 0.0
C2374 C 0.23214 0.99143 0.74916 0.0
C2375 C 0.21656 0.98508 0.74328 0.0
C2376 C 0.20583 0.99452 0.7325 0.0
C2377 C 0.19119 0.98852 0.72681 0.0
C2378 C 0.18711 0.97311 0.73192 0.0
C2379 C 0.19765 0.9637 0.74281 0.0
C2380 C 0.2123 0.96965 0.74855 0.0
C2381 C 0.25427 0.05364 0.78238 0.0
C2382 C 0.24592 0.055 0.80091 0.0
C2383 C 0.25485 0.03935 0.77192 0.0
C2384 C 0.24707 0.02613 0.77973 0.0
C2385 C 0.23886 0.02738 0.79835 0.0
C2386 C 0.23838 0.04167 0.80894 0.0
C2387 C 0.24713 0.0112 0.76804 0.0
C2388 C 0.23275 0.00498 0.7614 0.0
C2389 C 0.26127 0.00357 0.7625 0.0
C2390 C 0.27677 0.00918 0.76986 0.0
C2391 C 0.27963 0.01111 0.79096 0.0
C2392 C 0.29423 0.01648 0.79779 0.0
C2393 C 0.3061 0.01986 0.78369 0.0
C2394 C 0.30341 0.01784 0.76271 0.0
C2395 C 0.28883 0.01249 0.75579 0.0
H2396 H 0.3174 0.02401 0.78901 0.0
H2397 H 0.17578 0.96849 0.72749 0.0
H2398 H 0.9316 0.25063 0.76582 0.0
H2399 H 0.95647 0.25181 0.74732 0.0
H2400 H 0.9817 0.24573 0.80409 0.0
H2401 H 0.95672 0.2443 0.82284 0.0
H2402 H 0.99373 0.27014 0.77632 0.0
H2403 H 0.97873 0.21547 0.77659 0.0
H2404 H 0.96054 0.19337 0.77093 0.0
H2405 H 0.95756 0.20507 0.70699 0.0
H2406 H 0.97556 0.2274 0.71234 0.0
H2407 H 0.06831 0.24984 0.73774 0.0
H2408 H 0.04333 0.25163 0.75567 0.0
H2409 H 0.01866 0.24561 0.69839 0.0
H2410 H 0.04381 0.2432 0.68035 0.0
H2411 H 0.00575 0.22806 0.72605 0.0
H2412 H 0.02071 0.28194 0.72426 0.0
H2413 H 0.038 0.30489 0.72877 0.0
H2414 H 0.04009 0.29619 0.79358 0.0
H2415 H 0.02298 0.27304 0.78942 0.0
C2416 C 0.94242 0.24967 0.77446 0.0
C2417 C 0.94219 0.24733 0.79582 0.0
C2418 C 0.95662 0.2503 0.76382 0.0
C2419 C 0.97088 0.24875 0.77433 0.0
C2420 C 0.97077 0.24694 0.79573 0.0
C2421 C 0.95652 0.24609 0.8064 0.0
C2422 C 0.98583 0.24853 0.76275 0.0
C2423 C 0.99651 0.26086 0.76552 0.0
C2424 C 0.98911 0.23668 0.74818 0.0
C2425 C 0.97836 0.22321 0.74491 0.0
C2426 C 0.97409 0.21342 0.76136 0.0
C2427 C 0.96383 0.20083 0.7582 0.0
C2428 C 0.95786 0.19785 0.73862 0.0
C2429 C 0.96218 0.20742 0.72215 0.0
C2430 C 0.97241 0.22003 0.72524 0.0
C2431 C 0.05759 0.24903 0.72888 0.0
C2432 C 0.05805 0.24643 0.70758 0.0
C2433 C 0.04327 0.25015 0.73917 0.0
C2434 C 0.02906 0.24902 0.72838 0.0
C2435 C 0.02947 0.24656 0.70706 0.0
C2436 C 0.04384 0.24524 0.69675 0.0
C2437 C 0.01385 0.2497 0.73957 0.0
C2438 C 0.00305 0.23743 0.73676 0.0
C2439 C 0.01038 0.26174 0.75391 0.0
C2440 C 0.02066 0.27567 0.75649 0.0
C2441 C 0.02495 0.28485 0.73945 0.0
C2442 C 0.0347 0.29791 0.74195 0.0
C2443 C 0.04017 0.30197 0.76144 0.0
C2444 C 0.03586 0.29301 0.77849 0.0
C2445 C 0.02612 0.27993 0.77607 0.0
H2446 H 0.04772 0.31209 0.76335 0.0
H2447 H 0.94993 0.1881 0.73621 0.0
H2448 H 0.76316 0.56498 0.72836 0.0
H2449 H 0.76492 0.54041 0.74745 0.0
H2450 H 0.7292 0.52017 0.70861 0.0
H2451 H 0.72799 0.54456 0.68881 0.0
H2452 H 0.74567 0.52654 0.77043 0.0
H2453 H 0.73212 0.48088 0.70662 0.0
H2454 H 0.73656 0.47727 0.66952 0.0
H2455 H 0.77673 0.50764 0.67235 0.0
H2456 H 0.77265 0.51127 0.7095 0.0
H2457 H 0.72591 0.45372 0.81682 0.0
H2458 H 0.7269 0.47831 0.79745 0.0
H2459 H 0.76763 0.46151 0.76466 0.0
H2460 H 0.76605 0.43663 0.78312 0.0
H2461 H 0.74992 0.47379 0.73878 0.0
H2462 H 0.76869 0.49135 0.8039 0.0
H2463 H 0.76841 0.49516 0.8414 0.0
H2464 H 0.72551 0.52139 0.83665 0.0
H2465 H 0.72543 0.51757 0.79914 0.0
C2466 C 0.75583 0.55521 0.72371 0.0
C2467 C 0.74548 0.55665 0.70704 0.0
C2468 C 0.75679 0.54118 0.73472 0.0
C2469 C 0.74725 0.52834 0.72949 0.0
C2470 C 0.73693 0.52975 0.71273 0.0
C2471 C 0.73621 0.54371 0.70144 0.0
C2472 C 0.7478 0.51373 0.74204 0.0
C2473 C 0.74665 0.51501 0.76348 0.0
C2474 C 0.74935 0.49866 0.73311 0.0
C2475 C 0.75196 0.49647 0.7108 0.0
C2476 C 0.74192 0.48674 0.69933 0.0
C2477 C 0.74438 0.4847 0.6783 0.0
C2478 C 0.75689 0.49227 0.66857 0.0
C2479 C 0.76701 0.50184 0.67988 0.0
C2480 C 0.76462 0.50391 0.70092 0.0
C2481 C 0.73518 0.4554 0.80565 0.0
C2482 C 0.74592 0.44331 0.80147 0.0
C2483 C 0.73578 0.46948 0.79461 0.0
C2484 C 0.74744 0.47191 0.77965 0.0
C2485 C 0.75845 0.45995 0.77597 0.0
C2486 C 0.7576 0.44576 0.78663 0.0
C2487 C 0.74786 0.48658 0.7672 0.0
C2488 C 0.74904 0.48532 0.74575 0.0
C2489 C 0.74697 0.5017 0.77618 0.0
C2490 C 0.74698 0.50404 0.79873 0.0
C2491 C 0.75914 0.49783 0.81087 0.0
C2492 C 0.75905 0.50001 0.83212 0.0
C2493 C 0.74693 0.50848 0.8414 0.0
C2494 C 0.73489 0.51482 0.82944 0.0
C2495 C 0.73491 0.51266 0.80818 0.0
H2496 H 0.74689 0.51015 0.85786 0.0
H2497 H 0.75876 0.49068 0.65229 0.0
H2498 H 0.56743 0.75207 0.76882 0.0
H2499 H 0.54256 0.75384 0.75064 0.0
H2500 H 0.51756 0.74724 0.80757 0.0
H2501 H 0.54261 0.74477 0.82583 0.0
H2502 H 0.50481 0.72998 0.77988 0.0
H2503 H 0.51964 0.78388 0.7817 0.0
H2504 H 0.53689 0.80689 0.77732 0.0
H2505 H 0.53941 0.79811 0.71255 0.0
H2506 H 0.52234 0.77492 0.71658 0.0
H2507 H 0.43091 0.75219 0.73905 0.0
H2508 H 0.45562 0.75362 0.75787 0.0
H2509 H 0.48133 0.7473 0.70152 0.0
H2510 H 0.45651 0.74562 0.68244 0.0
H2511 H 0.49305 0.77192 0.72933 0.0
H2512 H 0.47814 0.71716 0.7292 0.0
H2513 H 0.45988 0.69511 0.73482 0.0
H2514 H 0.45641 0.70717 0.7986 0.0
H2515 H 0.47448 0.72945 0.79329 0.0
C2516 C 0.55665 0.75114 0.77756 0.0
C2517 C 0.55699 0.74834 0.7988 0.0
C2518 C 0.5424 0.75225 0.76712 0.0
C2519 C 0.52812 0.75096 0.77773 0.0
C2520 C 0.52841 0.74832 0.79903 0.0
C2521 C 0.54272 0.74696 0.80947 0.0
C2522 C 0.51297 0.7516 0.76638 0.0
C2523 C 0.50217 0.73932 0.76911 0.0
C2524 C 0.50956 0.76361 0.75198 0.0
C2525 C 0.51981 0.77757 0.74948 0.0
C2526 C 0.52397 0.78679 0.76654 0.0
C2527 C 0.53369 0.79987 0.76412 0.0
C2528 C 0.53927 0.80393 0.74468 0.0
C2529 C 0.53509 0.79494 0.72761 0.0
C2530 C 0.52538 0.78183 0.72995 0.0
C2531 C 0.4418 0.75122 0.73057 0.0
C2532 C 0.44175 0.74873 0.70923 0.0
C2533 C 0.4559 0.75201 0.74138 0.0
C2534 C 0.47026 0.75046 0.73109 0.0
C2535 C 0.47033 0.74851 0.7097 0.0
C2536 C 0.45617 0.74752 0.69886 0.0
C2537 C 0.48511 0.75032 0.74288 0.0
C2538 C 0.49578 0.76267 0.7402 0.0
C2539 C 0.48831 0.73853 0.75755 0.0
C2540 C 0.47754 0.72506 0.7608 0.0
C2541 C 0.47338 0.71519 0.74438 0.0
C2542 C 0.46309 0.70264 0.74752 0.0
C2543 C 0.45696 0.69977 0.76704 0.0
C2544 C 0.46115 0.70942 0.78348 0.0
C2545 C 0.47143 0.72201 0.78042 0.0
H2546 H 0.44899 0.69004 0.76944 0.0
H2547 H 0.5468 0.81407 0.74283 0.0
H2548 H 0.23817 0.43563 0.72871 0.0
H2549 H 0.23712 0.46078 0.74655 0.0
H2550 H 0.26534 0.48186 0.69903 0.0
H2551 H 0.2665 0.4566 0.68101 0.0
H2552 H 0.27638 0.48869 0.73744 0.0
H2553 H 0.22729 0.49081 0.70205 0.0
H2554 H 0.20143 0.48115 0.69065 0.0
H2555 H 0.18582 0.4789 0.75319 0.0
H2556 H 0.21166 0.48834 0.765 0.0
H2557 H 0.24096 0.5678 0.77209 0.0
H2558 H 0.23948 0.54377 0.75182 0.0
H2559 H 0.26489 0.51881 0.79884 0.0
H2560 H 0.26651 0.54294 0.81927 0.0
H2561 H 0.22696 0.51504 0.75844 0.0
H2562 H 0.2899 0.49303 0.77448 0.0
H2563 H 0.31584 0.50376 0.78385 0.0
H2564 H 0.30385 0.54779 0.75588 0.0
H2565 H 0.27793 0.53726 0.7461 0.0
C2566 C 0.24402 0.44564 0.7219 0.0
C2567 C 0.25243 0.44412 0.70343 0.0
C2568 C 0.24337 0.46003 0.73211 0.0
C2569 C 0.2511 0.4732 0.72409 0.0
C2570 C 0.2593 0.47182 0.70548 0.0
C2571 C 0.25987 0.45742 0.69515 0.0
C2572 C 0.25113 0.4882 0.73565 0.0
C2573 C 0.26557 0.49447 0.74199 0.0
C2574 C 0.23704 0.4958 0.74145 0.0
C2575 C 0.22146 0.49016 0.73441 0.0
C2576 C 0.21838 0.48813 0.71338 0.0
C2577 C 0.20372 0.48272 0.70685 0.0
C2578 C 0.192 0.47938 0.72119 0.0
C2579 C 0.19491 0.48148 0.7421 0.0
C2580 C 0.20956 0.48688 0.74872 0.0
C2581 C 0.24614 0.55718 0.77824 0.0
C2582 C 0.25394 0.55729 0.79725 0.0
C2583 C 0.24523 0.54344 0.76663 0.0
C2584 C 0.25222 0.52955 0.7737 0.0
C2585 C 0.25958 0.52947 0.79299 0.0
C2586 C 0.26043 0.54323 0.80469 0.0
C2587 C 0.25219 0.51536 0.76051 0.0
C2588 C 0.23775 0.50924 0.7539 0.0
C2589 C 0.26629 0.50801 0.75421 0.0
C2590 C 0.28192 0.5144 0.75977 0.0
C2591 C 0.29283 0.50498 0.77028 0.0
C2592 C 0.30752 0.51103 0.77566 0.0
C2593 C 0.31147 0.52646 0.77052 0.0
C2594 C 0.30075 0.53586 0.75992 0.0
C2595 C 0.28605 0.52987 0.75448 0.0
H2596 H 0.32284 0.53112 0.77472 0.0
H2597 H 0.18066 0.47519 0.7161 0.0
H2598 H 0.45494 0.25495 0.82548 0.0
H2599 H 0.47992 0.25338 0.80698 0.0
H2600 H 0.45488 0.25177 0.74945 0.0
H2601 H 0.43001 0.25262 0.76785 0.0
H2602 H 0.47778 0.23258 0.74715 0.0
H2603 H 0.47317 0.28619 0.76887 0.0
H2604 H 0.46962 0.30792 0.79345 0.0
H2605 H 0.5111 0.29357 0.82584 0.0
H2606 H 0.51479 0.27163 0.80159 0.0
H2607 H 0.54181 0.25741 0.68263 0.0
H2608 H 0.51688 0.25602 0.70145 0.0
H2609 H 0.54217 0.24815 0.75781 0.0
H2610 H 0.56699 0.24939 0.73924 0.0
H2611 H 0.51952 0.27185 0.76065 0.0
H2612 H 0.52395 0.21843 0.73662 0.0
H2613 H 0.52715 0.19784 0.71036 0.0
H2614 H 0.48526 0.21362 0.68006 0.0
H2615 H 0.48194 0.23445 0.70599 0.0
C2616 C 0.45479 0.25417 0.8089 0.0
C2617 C 0.44052 0.25395 0.79813 0.0
C2618 C 0.46908 0.25337 0.79831 0.0
C2619 C 0.46933 0.25273 0.77675 0.0
C2620 C 0.45504 0.25224 0.76606 0.0
C2621 C 0.44081 0.25276 0.77662 0.0
C2622 C 0.48441 0.25276 0.76519 0.0
C2623 C 0.48681 0.2413 0.74998 0.0
C2624 C 0.49634 0.26399 0.76896 0.0
C2625 C 0.49416 0.27717 0.78354 0.0
C2626 C 0.48147 0.2876 0.78132 0.0
C2627 C 0.47944 0.29997 0.79518 0.0
C2628 C 0.4901 0.30209 0.81123 0.0
C2629 C 0.50284 0.29189 0.81342 0.0
C2630 C 0.50491 0.2795 0.79962 0.0
C2631 C 0.54203 0.25526 0.69899 0.0
C2632 C 0.55637 0.2535 0.70943 0.0
C2633 C 0.5278 0.25445 0.70971 0.0
C2634 C 0.52771 0.25196 0.73102 0.0
C2635 C 0.54199 0.2501 0.74139 0.0
C2636 C 0.55617 0.25076 0.73071 0.0
C2637 C 0.51279 0.25174 0.7427 0.0
C2638 C 0.51045 0.26316 0.7579 0.0
C2639 C 0.50083 0.24066 0.73868 0.0
C2640 C 0.50279 0.2281 0.72313 0.0
C2641 C 0.5155 0.2176 0.72426 0.0
C2642 C 0.51732 0.20586 0.70945 0.0
C2643 C 0.50644 0.20445 0.69352 0.0
C2644 C 0.49369 0.21474 0.69239 0.0
C2645 C 0.49183 0.2265 0.70715 0.0
H2646 H 0.50787 0.19536 0.68207 0.0
H2647 H 0.48852 0.31167 0.82194 0.0
H2648 H 0.2395 0.56731 0.23422 0.0
H2649 H 0.23823 0.54293 0.25379 0.0
H2650 H 0.26402 0.51904 0.20618 0.0
H2651 H 0.26544 0.54352 0.18645 0.0
H2652 H 0.22612 0.51413 0.24643 0.0
H2653 H 0.28933 0.49319 0.22998 0.0
H2654 H 0.31513 0.50436 0.22082 0.0
H2655 H 0.30259 0.54789 0.24973 0.0
H2656 H 0.27682 0.53691 0.2593 0.0
H2657 H 0.23842 0.43463 0.27539 0.0
H2658 H 0.23719 0.4598 0.25758 0.0
H2659 H 0.26476 0.48118 0.3055 0.0
H2660 H 0.26608 0.45593 0.32351 0.0
H2661 H 0.27589 0.48827 0.26705 0.0
H2662 H 0.22672 0.48946 0.3024 0.0
H2663 H 0.201 0.47934 0.31361 0.0
H2664 H 0.18553 0.47726 0.25099 0.0
H2665 H 0.21125 0.48717 0.23938 0.0
C2666 C 0.2448 0.55685 0.22779 0.0
C2667 C 0.25266 0.55736 0.20882 0.0
C2668 C 0.24401 0.54291 0.23899 0.0
C2669 C 0.25118 0.52922 0.23157 0.0
C2670 C 0.25857 0.52953 0.2123 0.0
C2671 C 0.2593 0.54349 0.201 0.0
C2672 C 0.25134 0.51484 0.24441 0.0
C2673 C 0.23699 0.50843 0.25087 0.0
C2674 C 0.26555 0.50761 0.25058 0.0
C2675 C 0.28109 0.51427 0.24515 0.0
C2676 C 0.29211 0.50513 0.23443 0.0
C2677 C 0.30672 0.51142 0.22917 0.0
C2678 C 0.31047 0.52684 0.23463 0.0
C2679 C 0.29964 0.53597 0.24544 0.0
C2680 C 0.28503 0.52972 0.25077 0.0
C2681 C 0.2441 0.44471 0.28228 0.0
C2682 C 0.25235 0.44329 0.30088 0.0
C2683 C 0.24335 0.4591 0.27208 0.0
C2684 C 0.25083 0.47237 0.28024 0.0
C2685 C 0.25891 0.47107 0.29895 0.0
C2686 C 0.25958 0.45667 0.30927 0.0
C2687 C 0.25066 0.48742 0.26879 0.0
C2688 C 0.26501 0.49394 0.26257 0.0
C2689 C 0.23646 0.49487 0.26309 0.0
C2690 C 0.22097 0.48893 0.27001 0.0
C2691 C 0.21788 0.48673 0.29101 0.0
C2692 C 0.20329 0.48105 0.29744 0.0
C2693 C 0.19165 0.47762 0.28302 0.0
C2694 C 0.19456 0.4799 0.26214 0.0
C2695 C 0.20914 0.48557 0.25563 0.0
H2696 H 0.18036 0.47323 0.28803 0.0
H2697 H 0.32178 0.5317 0.23052 0.0
H2698 H 0.54336 0.25585 0.32501 0.0
H2699 H 0.51849 0.25432 0.30605 0.0
H2700 H 0.54401 0.24756 0.24963 0.0
H2701 H 0.56878 0.24884 0.26835 0.0
H2702 H 0.52087 0.27154 0.24803 0.0
H2703 H 0.52648 0.21745 0.26878 0.0
H2704 H 0.53013 0.19603 0.29376 0.0
H2705 H 0.48787 0.20976 0.32488 0.0
H2706 H 0.4841 0.23142 0.30023 0.0
H2707 H 0.45684 0.25557 0.18197 0.0
H2708 H 0.4818 0.25368 0.20048 0.0
H2709 H 0.45667 0.24987 0.25775 0.0
H2710 H 0.43183 0.2511 0.23934 0.0
H2711 H 0.48001 0.23091 0.25897 0.0
H2712 H 0.47419 0.28508 0.24064 0.0
H2713 H 0.47013 0.30763 0.21751 0.0
H2714 H 0.51197 0.29554 0.18433 0.0
H2715 H 0.51616 0.27279 0.20711 0.0
C2716 C 0.54365 0.25389 0.3086 0.0
C2717 C 0.55803 0.25245 0.29819 0.0
C2718 C 0.52945 0.25301 0.29781 0.0
C2719 C 0.52945 0.25083 0.27645 0.0
C2720 C 0.54378 0.24926 0.2661 0.0
C2721 C 0.55791 0.24994 0.27687 0.0
C2722 C 0.51457 0.25066 0.26469 0.0
C2723 C 0.512 0.26256 0.2502 0.0
C2724 C 0.50287 0.23919 0.26799 0.0
C2725 C 0.5051 0.22615 0.28279 0.0
C2726 C 0.51805 0.21599 0.28106 0.0
C2727 C 0.52012 0.20379 0.29514 0.0
C2728 C 0.50926 0.20156 0.31094 0.0
C2729 C 0.49629 0.21151 0.31265 0.0
C2730 C 0.49417 0.22375 0.29862 0.0
C2731 C 0.45667 0.25421 0.19849 0.0
C2732 C 0.44237 0.25353 0.20918 0.0
C2733 C 0.47094 0.25323 0.20908 0.0
C2734 C 0.47116 0.25191 0.23059 0.0
C2735 C 0.45686 0.25089 0.24119 0.0
C2736 C 0.44263 0.25163 0.23061 0.0
C2737 C 0.48621 0.25184 0.2422 0.0
C2738 C 0.48885 0.23992 0.2567 0.0
C2739 C 0.49788 0.26347 0.23917 0.0
C2740 C 0.49539 0.27714 0.22544 0.0
C2741 C 0.48246 0.28716 0.22831 0.0
C2742 C 0.48014 0.29999 0.21528 0.0
C2743 C 0.49076 0.30299 0.19942 0.0
C2744 C 0.50374 0.29318 0.1966 0.0
C2745 C 0.50609 0.28033 0.20957 0.0
H2746 H 0.48895 0.31292 0.18936 0.0
H2747 H 0.51088 0.1921 0.32182 0.0
H2748 H 0.74223 0.54312 0.32403 0.0
H2749 H 0.7439 0.51832 0.30495 0.0
H2750 H 0.75185 0.54402 0.24893 0.0
H2751 H 0.75034 0.56872 0.26776 0.0
H2752 H 0.72822 0.52134 0.24572 0.0
H2753 H 0.78156 0.52568 0.26998 0.0
H2754 H 0.80209 0.52875 0.29633 0.0
H2755 H 0.78633 0.48666 0.32615 0.0
H2756 H 0.76555 0.48346 0.30012 0.0
H2757 H 0.74493 0.45687 0.18056 0.0
H2758 H 0.74664 0.48182 0.19914 0.0
H2759 H 0.74826 0.45666 0.25657 0.0
H2760 H 0.74728 0.43183 0.2381 0.0
H2761 H 0.76745 0.47952 0.25898 0.0
H2762 H 0.71383 0.47507 0.2372 0.0
H2763 H 0.69212 0.47164 0.21258 0.0
H2764 H 0.70658 0.51318 0.18041 0.0
H2765 H 0.72851 0.51675 0.2047 0.0
C2766 C 0.74448 0.54346 0.30769 0.0
C2767 C 0.74616 0.55788 0.29742 0.0
C2768 C 0.74545 0.5293 0.29682 0.0
C2769 C 0.74802 0.52936 0.27553 0.0
C2770 C 0.74984 0.54373 0.26533 0.0
C2771 C 0.74903 0.55783 0.27617 0.0
C2772 C 0.7483 0.51452 0.26366 0.0
C2773 C 0.73691 0.51225 0.24841 0.0
C2774 C 0.75938 0.50254 0.26761 0.0
C2775 C 0.7719 0.50442 0.28321 0.0
C2776 C 0.78239 0.51715 0.28225 0.0
C2777 C 0.79409 0.5189 0.29711 0.0
C2778 C 0.79549 0.50793 0.31294 0.0
C2779 C 0.78522 0.49516 0.3139 0.0
C2780 C 0.77349 0.49337 0.29909 0.0
C2781 C 0.74575 0.4567 0.19713 0.0
C2782 C 0.74593 0.44239 0.20786 0.0
C2783 C 0.74663 0.47096 0.20777 0.0
C2784 C 0.74729 0.47117 0.22934 0.0
C2785 C 0.74776 0.45686 0.23997 0.0
C2786 C 0.74717 0.44264 0.22936 0.0
C2787 C 0.7473 0.48623 0.24096 0.0
C2788 C 0.75874 0.48857 0.2562 0.0
C2789 C 0.73609 0.49819 0.23725 0.0
C2790 C 0.72291 0.49608 0.22264 0.0
C2791 C 0.71245 0.48341 0.22478 0.0
C2792 C 0.7001 0.48145 0.2109 0.0
C2793 C 0.698 0.49216 0.1949 0.0
C2794 C 0.70823 0.50488 0.19279 0.0
C2795 C 0.72062 0.50688 0.20661 0.0
H2796 H 0.68843 0.49062 0.18417 0.0
H2797 H 0.80456 0.5093 0.32443 0.0
H2798 H 0.43198 0.76068 0.27106 0.0
H2799 H 0.45609 0.76144 0.25088 0.0
H2800 H 0.48048 0.73636 0.2987 0.0
H2801 H 0.45628 0.73546 0.31904 0.0
H2802 H 0.48512 0.77346 0.25716 0.0
H2803 H 0.50569 0.71035 0.27513 0.0
H2804 H 0.49441 0.68483 0.2853 0.0
H2805 H 0.45064 0.69727 0.25695 0.0
H2806 H 0.46173 0.72276 0.24637 0.0
H2807 H 0.56423 0.75974 0.22766 0.0
H2808 H 0.53917 0.76164 0.24562 0.0
H2809 H 0.51721 0.73346 0.19875 0.0
H2810 H 0.54237 0.73148 0.18059 0.0
H2811 H 0.5103 0.72308 0.23763 0.0
H2812 H 0.50926 0.77158 0.20078 0.0
H2813 H 0.51952 0.79698 0.18859 0.0
H2814 H 0.52226 0.81363 0.25065 0.0
H2815 H 0.51221 0.78823 0.26324 0.0
C2816 C 0.4425 0.75544 0.27741 0.0
C2817 C 0.4422 0.74792 0.29662 0.0
C2818 C 0.45629 0.75593 0.26586 0.0
C2819 C 0.47002 0.74881 0.27317 0.0
C2820 C 0.46994 0.74177 0.29267 0.0
C2821 C 0.45614 0.74133 0.30431 0.0
C2822 C 0.48421 0.74828 0.25999 0.0
C2823 C 0.49066 0.76245 0.25295 0.0
C2824 C 0.49123 0.7339 0.25412 0.0
C2825 C 0.4845 0.71852 0.26017 0.0
C2826 C 0.49368 0.70761 0.27101 0.0
C2827 C 0.48731 0.69315 0.27685 0.0
C2828 C 0.4718 0.68945 0.27184 0.0
C2829 C 0.46264 0.70018 0.2609 0.0
C2830 C 0.46895 0.71464 0.255 0.0
C2831 C 0.55405 0.75407 0.22103 0.0
C2832 C 0.55528 0.74545 0.20269 0.0
C2833 C 0.53972 0.75521 0.2313 0.0
C2834 C 0.52632 0.74774 0.22348 0.0
C2835 C 0.52743 0.7393 0.20503 0.0
C2836 C 0.54177 0.73825 0.19463 0.0
C2837 C 0.51136 0.74827 0.23509 0.0
C2838 C 0.50478 0.73409 0.24187 0.0
C2839 C 0.5041 0.76263 0.24047 0.0
C2840 C 0.51011 0.77794 0.23296 0.0
C2841 C 0.51217 0.78061 0.21184 0.0
C2842 C 0.51792 0.79502 0.20486 0.0
C2843 C 0.52157 0.8069 0.21884 0.0
C2844 C 0.51944 0.8044 0.23984 0.0
C2845 C 0.5137 0.79001 0.2469 0.0
H2846 H 0.52602 0.81805 0.2134 0.0
H2847 H 0.46689 0.67826 0.27639 0.0
H2848 H 0.20824 0.11328 0.2274 0.0
H2849 H 0.18945 0.12678 0.24939 0.0
H2850 H 0.16696 0.14667 0.19612 0.0
H2851 H 0.1859 0.13333 0.1739 0.0
H2852 H 0.17322 0.1687 0.22426 0.0
H2853 H 0.14888 0.11811 0.22453 0.0
H2854 H 0.14763 0.08935 0.22847 0.0
H2855 H 0.16133 0.09355 0.2916 0.0
H2856 H 0.16288 0.12233 0.28797 0.0
H2857 H 0.11145 0.20414 0.27819 0.0
H2858 H 0.12513 0.18602 0.25543 0.0
H2859 H 0.15008 0.16657 0.30707 0.0
H2860 H 0.13627 0.1846 0.33013 0.0
H2861 H 0.1414 0.14379 0.27909 0.0
H2862 H 0.16745 0.19382 0.27835 0.0
H2863 H 0.16913 0.22259 0.27477 0.0
H2864 H 0.15273 0.21927 0.21264 0.0
H2865 H 0.15073 0.19047 0.21596 0.0
C2866 C 0.19921 0.12038 0.22028 0.0
C2867 C 0.19863 0.12226 0.19885 0.0
C2868 C 0.1884 0.12803 0.23292 0.0
C2869 C 0.17671 0.13764 0.22441 0.0
C2870 C 0.17587 0.13928 0.20301 0.0
C2871 C 0.18669 0.13162 0.19033 0.0
C2872 C 0.16611 0.14681 0.23795 0.0
C2873 C 0.16603 0.16321 0.23598 0.0
C2874 C 0.15709 0.13969 0.25366 0.0
C2875 C 0.15613 0.12238 0.25592 0.0
C2876 C 0.15175 0.11289 0.23921 0.0
C2877 C 0.15096 0.09659 0.2414 0.0
C2878 C 0.15443 0.08962 0.26026 0.0
C2879 C 0.15866 0.09896 0.27699 0.0
C2880 C 0.15948 0.11527 0.27489 0.0
C2881 C 0.11971 0.1959 0.28481 0.0
C2882 C 0.12289 0.19596 0.30599 0.0
C2883 C 0.12754 0.18557 0.27174 0.0
C2884 C 0.13882 0.17515 0.27951 0.0
C2885 C 0.14145 0.17457 0.30076 0.0
C2886 C 0.13357 0.1849 0.3139 0.0
C2887 C 0.14851 0.16561 0.26529 0.0
C2888 C 0.14849 0.14921 0.26722 0.0
C2889 C 0.15751 0.1727 0.24956 0.0
C2890 C 0.15878 0.19001 0.24748 0.0
C2891 C 0.16408 0.19923 0.26398 0.0
C2892 C 0.16511 0.21554 0.26199 0.0
C2893 C 0.161 0.22275 0.24351 0.0
C2894 C 0.15589 0.21367 0.22696 0.0
C2895 C 0.15481 0.19735 0.22888 0.0
H2896 H 0.1618 0.23538 0.24199 0.0
H2897 H 0.15381 0.07699 0.26192 0.0
H2898 H 0.86628 0.18386 0.17226 0.0
H2899 H 0.85297 0.16451 0.19389 0.0
H2900 H 0.87275 0.1861 0.24787 0.0
H2901 H 0.8863 0.20524 0.22646 0.0
H2902 H 0.87245 0.1548 0.25189 0.0
H2903 H 0.83571 0.19503 0.23205 0.0
H2904 H 0.82108 0.21165 0.20767 0.0
H2905 H 0.80061 0.1706 0.18035 0.0
H2906 H 0.81529 0.15372 0.20441 0.0
H2907 H 0.81567 0.13318 0.32787 0.0
H2908 H 0.834 0.14613 0.30441 0.0
H2909 H 0.81277 0.12208 0.25323 0.0
H2910 H 0.79437 0.10923 0.27641 0.0
H2911 H 0.81439 0.15296 0.2465 0.0
H2912 H 0.84971 0.11281 0.26917 0.0
H2913 H 0.86408 0.09678 0.29445 0.0
H2914 H 0.88691 0.1381 0.31754 0.0
H2915 H 0.87251 0.15442 0.29258 0.0
C2916 C 0.86796 0.18437 0.18871 0.0
C2917 C 0.87723 0.19622 0.19762 0.0
C2918 C 0.86031 0.17333 0.20106 0.0
C2919 C 0.86167 0.17402 0.22252 0.0
C2920 C 0.8715 0.18536 0.23136 0.0
C2921 C 0.87918 0.19635 0.21906 0.0
C2922 C 0.85215 0.16361 0.2359 0.0
C2923 C 0.85975 0.15445 0.25081 0.0
C2924 C 0.83559 0.16299 0.2343 0.0
C2925 C 0.82673 0.17311 0.21986 0.0
C2926 C 0.82818 0.18955 0.22073 0.0
C2927 C 0.81987 0.19902 0.20699 0.0
C2928 C 0.80996 0.19219 0.19243 0.0
C2929 C 0.80831 0.17588 0.19161 0.0
C2930 C 0.81662 0.16635 0.2053 0.0
C2931 C 0.81506 0.13045 0.31166 0.0
C2932 C 0.80346 0.12025 0.30403 0.0
C2933 C 0.82558 0.13783 0.29827 0.0
C2934 C 0.82476 0.13505 0.27706 0.0
C2935 C 0.81358 0.12443 0.26952 0.0
C2936 C 0.80308 0.11708 0.28285 0.0
C2937 C 0.83466 0.1441 0.26253 0.0
C2938 C 0.82711 0.15311 0.24744 0.0
C2939 C 0.85122 0.14464 0.2641 0.0
C2940 C 0.85992 0.13486 0.27912 0.0
C2941 C 0.8577 0.1185 0.27975 0.0
C2942 C 0.86587 0.10936 0.294 0.0
C2943 C 0.87638 0.11642 0.30763 0.0
C2944 C 0.87876 0.13265 0.30699 0.0
C2945 C 0.87061 0.14185 0.29278 0.0
H2946 H 0.88269 0.10932 0.31864 0.0
H2947 H 0.80353 0.19954 0.18181 0.0
H2948 H 0.86348 0.81364 0.33172 0.0
H2949 H 0.84907 0.83209 0.30996 0.0
H2950 H 0.87371 0.81479 0.25678 0.0
H2951 H 0.88825 0.79643 0.27835 0.0
H2952 H 0.86965 0.84667 0.25511 0.0
H2953 H 0.83833 0.80073 0.2675 0.0
H2954 H 0.82515 0.78073 0.28875 0.0
H2955 H 0.79728 0.81657 0.31739 0.0
H2956 H 0.81047 0.83682 0.2965 0.0
H2957 H 0.81408 0.86675 0.17663 0.0
H2958 H 0.83252 0.85377 0.19994 0.0
H2959 H 0.80671 0.87154 0.25189 0.0
H2960 H 0.78825 0.88445 0.22886 0.0
H2961 H 0.81175 0.84034 0.25487 0.0
H2962 H 0.84237 0.88625 0.2403 0.0
H2963 H 0.85558 0.90574 0.2183 0.0
H2964 H 0.88467 0.86951 0.19274 0.0
H2965 H 0.87147 0.84975 0.21439 0.0
C2966 C 0.86603 0.81392 0.31545 0.0
C2967 C 0.8769 0.80343 0.30675 0.0
C2968 C 0.85774 0.82444 0.30303 0.0
C2969 C 0.86017 0.82464 0.28171 0.0
C2970 C 0.87163 0.8148 0.27317 0.0
C2971 C 0.87988 0.80426 0.28554 0.0
C2972 C 0.85003 0.83425 0.26814 0.0
C2973 C 0.857 0.84523 0.25492 0.0
C2974 C 0.83351 0.83246 0.26809 0.0
C2975 C 0.82551 0.82031 0.28061 0.0
C2976 C 0.82948 0.80436 0.27845 0.0
C2977 C 0.822 0.79298 0.29041 0.0
C2978 C 0.81042 0.79738 0.30445 0.0
C2979 C 0.80627 0.81318 0.30653 0.0
C2980 C 0.81374 0.82461 0.29463 0.0
C2981 C 0.81243 0.86805 0.19301 0.0
C2982 C 0.79962 0.87659 0.20084 0.0
C2983 C 0.82302 0.86067 0.20632 0.0
C2984 C 0.821 0.86172 0.22766 0.0
C2985 C 0.80846 0.87055 0.23549 0.0
C2986 C 0.79793 0.87795 0.22225 0.0
C2987 C 0.83134 0.85288 0.24188 0.0
C2988 C 0.82439 0.84193 0.25516 0.0
C2989 C 0.84786 0.85465 0.24186 0.0
C2990 C 0.85582 0.8665 0.22882 0.0
C2991 C 0.85149 0.88241 0.22986 0.0
C2992 C 0.85899 0.89351 0.21748 0.0
C2993 C 0.87093 0.88886 0.20409 0.0
C2994 C 0.8754 0.87309 0.2031 0.0
C2995 C 0.86792 0.86194 0.21543 0.0
H2996 H 0.87673 0.89747 0.19452 0.0
H2997 H 0.80463 0.78855 0.31369 0.0
H2998 H 0.20809 0.88527 0.27707 0.0
H2999 H 0.18925 0.87181 0.25512 0.0
H3000 H 0.16594 0.85309 0.30852 0.0
H3001 H 0.18495 0.86636 0.3307 0.0
H3002 H 0.17177 0.8306 0.28106 0.0
H3003 H 0.14874 0.88176 0.27909 0.0
H3004 H 0.14824 0.91048 0.27442 0.0
H3005 H 0.16246 0.90502 0.21164 0.0
H3006 H 0.16326 0.87626 0.21601 0.0
H3007 H 0.1103 0.79546 0.22617 0.0
H3008 H 0.12381 0.81365 0.24902 0.0
H3009 H 0.14972 0.83241 0.19775 0.0
H3010 H 0.13605 0.81435 0.1746 0.0
H3011 H 0.14121 0.85547 0.22499 0.0
H3012 H 0.16611 0.80482 0.22759 0.0
H3013 H 0.16704 0.77608 0.23197 0.0
H3014 H 0.14979 0.78077 0.29355 0.0
H3015 H 0.14854 0.80954 0.28943 0.0
C3016 C 0.19887 0.87843 0.28422 0.0
C3017 C 0.19808 0.87687 0.30568 0.0
C3018 C 0.18803 0.87081 0.27161 0.0
C3019 C 0.17609 0.86155 0.28016 0.0
C3020 C 0.17506 0.8602 0.30159 0.0
C3021 C 0.18591 0.86783 0.31424 0.0
C3022 C 0.16538 0.85245 0.26668 0.0
C3023 C 0.16485 0.83609 0.26907 0.0
C3024 C 0.1567 0.85956 0.25064 0.0
C3025 C 0.15618 0.87685 0.24793 0.0
C3026 C 0.15188 0.88668 0.26433 0.0
C3027 C 0.15152 0.90297 0.26173 0.0
C3028 C 0.15535 0.90957 0.24276 0.0
C3029 C 0.15951 0.89989 0.22634 0.0
C3030 C 0.1599 0.88359 0.22886 0.0
C3031 C 0.11873 0.80357 0.21965 0.0
C3032 C 0.12223 0.8033 0.19856 0.0
C3033 C 0.12646 0.81395 0.23277 0.0
C3034 C 0.13798 0.82417 0.22515 0.0
C3035 C 0.14091 0.82456 0.20396 0.0
C3036 C 0.13311 0.81421 0.19076 0.0
C3037 C 0.14763 0.83368 0.23946 0.0
C3038 C 0.14802 0.85005 0.23715 0.0
C3039 C 0.15624 0.82661 0.25557 0.0
C3040 C 0.15708 0.80932 0.25813 0.0
C3041 C 0.1624 0.79971 0.24201 0.0
C3042 C 0.163 0.78342 0.24446 0.0
C3043 C 0.15844 0.7766 0.26301 0.0
C3044 C 0.1533 0.78607 0.27918 0.0
C3045 C 0.15265 0.80237 0.2768 0.0
H3046 H 0.15891 0.76398 0.26487 0.0
H3047 H 0.15506 0.92218 0.24078 0.0
H3048 H 0.86204 0.81197 0.67541 0.0
H3049 H 0.84895 0.83059 0.69834 0.0
H3050 H 0.87765 0.81457 0.74868 0.0
H3051 H 0.89056 0.79581 0.72605 0.0
H3052 H 0.84771 0.81448 0.75908 0.0
H3053 H 0.88256 0.85133 0.72717 0.0
H3054 H 0.89522 0.86508 0.69829 0.0
H3055 H 0.8504 0.88235 0.67833 0.0
H3056 H 0.83743 0.86853 0.70694 0.0
H3057 H 0.81743 0.86878 0.83082 0.0
H3058 H 0.83624 0.85545 0.80841 0.0
H3059 H 0.80953 0.86978 0.7554 0.0
H3060 H 0.79096 0.88341 0.77754 0.0
H3061 H 0.84007 0.87151 0.74733 0.0
H3062 H 0.80508 0.83312 0.7767 0.0
H3063 H 0.7918 0.81903 0.80484 0.0
H3064 H 0.83644 0.80428 0.82862 0.0
H3065 H 0.84999 0.81846 0.80076 0.0
C3066 C 0.86573 0.81258 0.69129 0.0
C3067 C 0.87728 0.80232 0.69891 0.0
C3068 C 0.85827 0.82327 0.70437 0.0
C3069 C 0.86236 0.82402 0.72524 0.0
C3070 C 0.87427 0.81418 0.73267 0.0
C3071 C 0.88165 0.80346 0.71967 0.0
C3072 C 0.85345 0.83415 0.73968 0.0
C3073 C 0.84631 0.82701 0.7567 0.0
C3074 C 0.85124 0.85041 0.7363 0.0
C3075 C 0.85901 0.85877 0.71911 0.0
C3076 C 0.87539 0.85796 0.71654 0.0
C3077 C 0.88262 0.86578 0.70023 0.0
C3078 C 0.87361 0.87455 0.68646 0.0
C3079 C 0.85736 0.87554 0.689 0.0
C3080 C 0.85006 0.86773 0.70527 0.0
C3081 C 0.81566 0.86926 0.81438 0.0
C3082 C 0.80258 0.87704 0.80602 0.0
C3083 C 0.82639 0.86158 0.80159 0.0
C3084 C 0.82415 0.86139 0.78024 0.0
C3085 C 0.8115 0.86974 0.77182 0.0
C3086 C 0.80084 0.87748 0.78455 0.0
C3087 C 0.83438 0.85182 0.76668 0.0
C3088 C 0.84168 0.85902 0.7498 0.0
C3089 C 0.83668 0.83556 0.77008 0.0
C3090 C 0.82855 0.82699 0.78679 0.0
C3091 C 0.81206 0.82697 0.78802 0.0
C3092 C 0.80449 0.81895 0.8039 0.0
C3093 C 0.81327 0.8108 0.81854 0.0
C3094 C 0.82965 0.81062 0.8173 0.0
C3095 C 0.83728 0.81863 0.80146 0.0
H3096 H 0.80739 0.8046 0.83082 0.0
H3097 H 0.87924 0.8806 0.67385 0.0
H3098 H 0.18503 0.86198 0.67426 0.0
H3099 H 0.16685 0.84868 0.69755 0.0
H3100 H 0.1852 0.87549 0.74831 0.0
H3101 H 0.20351 0.88863 0.72529 0.0
H3102 H 0.18471 0.84518 0.75723 0.0
H3103 H 0.14813 0.88215 0.72923 0.0
H3104 H 0.13392 0.89618 0.70185 0.0
H3105 H 0.11448 0.85264 0.6805 0.0
H3106 H 0.12875 0.83831 0.70759 0.0
H3107 H 0.13153 0.81476 0.83033 0.0
H3108 H 0.14475 0.83376 0.80809 0.0
H3109 H 0.12833 0.80874 0.75471 0.0
H3110 H 0.11485 0.78995 0.77671 0.0
H3111 H 0.12714 0.83973 0.74822 0.0
H3112 H 0.1652 0.80267 0.77374 0.0
H3113 H 0.17966 0.78811 0.80043 0.0
H3114 H 0.19664 0.8315 0.82557 0.0
H3115 H 0.18209 0.84633 0.79918 0.0
C3116 C 0.18505 0.8652 0.69032 0.0
C3117 C 0.19581 0.8763 0.6979 0.0
C3118 C 0.1746 0.85763 0.70362 0.0
C3119 C 0.17462 0.86113 0.72469 0.0
C3120 C 0.185 0.87257 0.73214 0.0
C3121 C 0.19546 0.88008 0.71891 0.0
C3122 C 0.16466 0.85212 0.73922 0.0
C3123 C 0.17208 0.84425 0.75546 0.0
C3124 C 0.14824 0.85055 0.73662 0.0
C3125 C 0.13962 0.85914 0.72034 0.0
C3126 C 0.14092 0.87555 0.7186 0.0
C3127 C 0.13284 0.88356 0.70315 0.0
C3128 C 0.12334 0.8753 0.68942 0.0
C3129 C 0.12186 0.85902 0.69114 0.0
C3130 C 0.12993 0.85095 0.70655 0.0
C3131 C 0.13057 0.81341 0.81386 0.0
C3132 C 0.12226 0.80072 0.80533 0.0
C3133 C 0.13818 0.82425 0.80116 0.0
C3134 C 0.13774 0.82252 0.77973 0.0
C3135 C 0.12886 0.8103 0.77119 0.0
C3136 C 0.12121 0.79951 0.78384 0.0
C3137 C 0.14722 0.83283 0.76618 0.0
C3138 C 0.13975 0.84086 0.75009 0.0
C3139 C 0.16363 0.8345 0.76881 0.0
C3140 C 0.17242 0.82561 0.78464 0.0
C3141 C 0.17192 0.8091 0.78506 0.0
C3142 C 0.18015 0.80081 0.80012 0.0
C3143 C 0.18903 0.80888 0.81473 0.0
C3144 C 0.18973 0.82527 0.81427 0.0
C3145 C 0.18151 0.83362 0.79927 0.0
H3146 H 0.1954 0.80244 0.82637 0.0
H3147 H 0.11709 0.88152 0.67747 0.0
H3148 H 0.13757 0.18555 0.67615 0.0
H3149 H 0.15079 0.16727 0.69935 0.0
H3150 H 0.12328 0.18484 0.74995 0.0
H3151 H 0.11024 0.2033 0.727 0.0
H3152 H 0.15331 0.18457 0.75956 0.0
H3153 H 0.11744 0.14765 0.72986 0.0
H3154 H 0.10407 0.13357 0.70182 0.0
H3155 H 0.14828 0.11531 0.68102 0.0
H3156 H 0.16195 0.12946 0.70878 0.0
H3157 H 0.18395 0.13079 0.83196 0.0
H3158 H 0.16514 0.1443 0.80974 0.0
H3159 H 0.19073 0.12871 0.75639 0.0
H3160 H 0.20931 0.11492 0.77836 0.0
H3161 H 0.16003 0.12726 0.7493 0.0
H3162 H 0.196 0.16568 0.77656 0.0
H3163 H 0.2099 0.18008 0.8039 0.0
H3164 H 0.16585 0.19583 0.82844 0.0
H3165 H 0.15168 0.18135 0.80138 0.0
C3166 C 0.13416 0.18536 0.69215 0.0
C3167 C 0.12291 0.19597 0.69972 0.0
C3168 C 0.1417 0.17486 0.7054 0.0
C3169 C 0.13799 0.17463 0.72641 0.0
C3170 C 0.12637 0.18483 0.73383 0.0
C3171 C 0.11891 0.19537 0.72065 0.0
C3172 C 0.14699 0.16465 0.74093 0.0
C3173 C 0.15452 0.17198 0.75751 0.0
C3174 C 0.14893 0.1483 0.73798 0.0
C3175 C 0.14073 0.13973 0.72131 0.0
C3176 C 0.12433 0.14073 0.71922 0.0
C3177 C 0.11669 0.13272 0.70339 0.0
C3178 C 0.12532 0.12358 0.68962 0.0
C3179 C 0.14161 0.1224 0.69168 0.0
C3180 C 0.1493 0.1304 0.70748 0.0
C3181 C 0.18549 0.13011 0.81549 0.0
C3182 C 0.19823 0.12188 0.80697 0.0
C3183 C 0.17475 0.13788 0.80281 0.0
C3184 C 0.17666 0.13772 0.7814 0.0
C3185 C 0.18901 0.12902 0.77285 0.0
C3186 C 0.19968 0.12118 0.78548 0.0
C3187 C 0.16632 0.14721 0.76787 0.0
C3188 C 0.15863 0.13981 0.75144 0.0
C3189 C 0.16428 0.16354 0.77086 0.0
C3190 C 0.17278 0.17229 0.78709 0.0
C3191 C 0.18928 0.17212 0.78788 0.0
C3192 C 0.19721 0.18031 0.8033 0.0
C3193 C 0.18876 0.18883 0.81793 0.0
C3194 C 0.17237 0.1892 0.81712 0.0
C3195 C 0.16439 0.18102 0.80174 0.0
H3196 H 0.19492 0.19516 0.82986 0.0
H3197 H 0.11939 0.11738 0.67737 0.0
H3198 H 0.88818 0.20657 0.7763 0.0
H3199 H 0.87489 0.18837 0.7533 0.0
H3200 H 0.8515 0.16697 0.80485 0.0
H3201 H 0.86488 0.18516 0.82818 0.0
H3202 H 0.86123 0.14507 0.77545 0.0
H3203 H 0.83246 0.19366 0.77794 0.0
H3204 H 0.82924 0.22238 0.77567 0.0
H3205 H 0.84455 0.22144 0.71293 0.0
H3206 H 0.84808 0.19272 0.71493 0.0
H3207 H 0.79483 0.11235 0.72576 0.0
H3208 H 0.81381 0.12604 0.74716 0.0
H3209 H 0.83286 0.14896 0.69367 0.0
H3210 H 0.81363 0.13546 0.67204 0.0
H3211 H 0.82681 0.16964 0.72309 0.0
H3212 H 0.85378 0.1206 0.71976 0.0
H3213 H 0.85686 0.09188 0.72211 0.0
H3214 H 0.84491 0.09339 0.78606 0.0
H3215 H 0.84153 0.12211 0.78404 0.0
C3216 C 0.88035 0.19791 0.78286 0.0
C3217 C 0.87746 0.19746 0.80412 0.0
C3218 C 0.87275 0.18751 0.76964 0.0
C3219 C 0.86203 0.1765 0.77733 0.0
C3220 C 0.8597 0.17544 0.79861 0.0
C3221 C 0.86733 0.18586 0.81191 0.0
C3222 C 0.85257 0.16682 0.76302 0.0
C3223 C 0.85358 0.1504 0.76412 0.0
C3224 C 0.84289 0.17382 0.74793 0.0
C3225 C 0.84069 0.19107 0.74666 0.0
C3226 C 0.83526 0.1996 0.76371 0.0
C3227 C 0.83336 0.21587 0.76247 0.0
C3228 C 0.83673 0.22374 0.74418 0.0
C3229 C 0.84197 0.21533 0.72709 0.0
C3230 C 0.84391 0.19906 0.72827 0.0
C3231 C 0.80316 0.12014 0.71843 0.0
C3232 C 0.80263 0.12285 0.69714 0.0
C3233 C 0.8141 0.1279 0.73073 0.0
C3234 C 0.82486 0.13844 0.72203 0.0
C3235 C 0.82468 0.14085 0.70072 0.0
C3236 C 0.8137 0.13309 0.68836 0.0
C3237 C 0.83542 0.14781 0.73542 0.0
C3238 C 0.83457 0.16423 0.73424 0.0
C3239 C 0.84522 0.14079 0.7504 0.0
C3240 C 0.84727 0.12351 0.7517 0.0
C3241 C 0.85168 0.1148 0.73429 0.0
C3242 C 0.85351 0.09852 0.73557 0.0
C3243 C 0.85105 0.09081 0.75421 0.0
C3244 C 0.8468 0.09938 0.77163 0.0
C3245 C 0.84495 0.11566 0.77043 0.0
H3246 H 0.85247 0.0782 0.75517 0.0
H3247 H 0.83525 0.23634 0.74325 0.0
H3248 H 0.68644 0.6363 0.67267 0.0
H3249 H 0.66763 0.65028 0.69435 0.0
H3250 H 0.68646 0.62725 0.74788 0.0
H3251 H 0.70516 0.61311 0.72638 0.0
H3252 H 0.65457 0.62946 0.74982 0.0
H3253 H 0.69831 0.66358 0.73587 0.0
H3254 H 0.71712 0.67782 0.71395 0.0
H3255 H 0.67915 0.70282 0.68549 0.0
H3256 H 0.66009 0.68855 0.70706 0.0
H3257 H 0.63253 0.68429 0.82796 0.0
H3258 H 0.64586 0.66633 0.80439 0.0
H3259 H 0.62618 0.69121 0.75283 0.0
H3260 H 0.61295 0.70924 0.77616 0.0
H3261 H 0.65727 0.68764 0.74884 0.0
H3262 H 0.61353 0.6546 0.76494 0.0
H3263 H 0.59507 0.64046 0.78745 0.0
H3264 H 0.63315 0.61361 0.81257 0.0
H3265 H 0.65189 0.62775 0.79041 0.0
C3266 C 0.68647 0.63406 0.68902 0.0
C3267 C 0.69743 0.62369 0.69779 0.0
C3268 C 0.67573 0.6421 0.7014 0.0
C3269 C 0.67579 0.63996 0.72276 0.0
C3270 C 0.68623 0.6291 0.73144 0.0
C3271 C 0.69697 0.62108 0.7191 0.0
C3272 C 0.66564 0.64966 0.73622 0.0
C3273 C 0.65522 0.64218 0.74974 0.0
C3274 C 0.66633 0.66626 0.73587 0.0
C3275 C 0.67777 0.67487 0.72291 0.0
C3276 C 0.69397 0.67202 0.72481 0.0
C3277 C 0.70467 0.68011 0.71247 0.0
C3278 C 0.69933 0.69118 0.69829 0.0
C3279 C 0.68327 0.69422 0.69645 0.0
C3280 C 0.67251 0.68614 0.70874 0.0
C3281 C 0.63087 0.68581 0.81162 0.0
C3282 C 0.62173 0.69827 0.80398 0.0
C3283 C 0.63845 0.6755 0.79816 0.0
C3284 C 0.63698 0.6774 0.77684 0.0
C3285 C 0.62751 0.68954 0.76922 0.0
C3286 C 0.61993 0.69983 0.78262 0.0
C3287 C 0.64613 0.66747 0.76246 0.0
C3288 C 0.65646 0.67493 0.74881 0.0
C3289 C 0.64537 0.65087 0.76279 0.0
C3290 C 0.63414 0.64235 0.77615 0.0
C3291 C 0.61799 0.64578 0.77539 0.0
C3292 C 0.60747 0.63774 0.78806 0.0
C3293 C 0.61294 0.62617 0.80147 0.0
C3294 C 0.62893 0.62259 0.8022 0.0
C3295 C 0.63951 0.6306 0.78957 0.0
H3296 H 0.60477 0.61996 0.81126 0.0
H3297 H 0.70764 0.69744 0.68875 0.0
H3298 H 0.31748 0.63189 0.8323 0.0
H3299 H 0.33609 0.64576 0.81019 0.0
H3300 H 0.3117 0.62872 0.75665 0.0
H3301 H 0.29329 0.6146 0.77852 0.0
H3302 H 0.3427 0.62844 0.75029 0.0
H3303 H 0.30452 0.66536 0.77576 0.0
H3304 H 0.28948 0.67936 0.80242 0.0
H3305 H 0.33228 0.69755 0.82783 0.0
H3306 H 0.3476 0.68348 0.80146 0.0
H3307 H 0.3636 0.68701 0.67662 0.0
H3308 H 0.35072 0.66846 0.69981 0.0
H3309 H 0.37687 0.68745 0.75075 0.0
H3310 H 0.38959 0.70614 0.72783 0.0
H3311 H 0.34655 0.68612 0.75953 0.0
H3312 H 0.38457 0.65058 0.73154 0.0
H3313 H 0.39902 0.63682 0.70414 0.0
H3314 H 0.35605 0.61632 0.68254 0.0
H3315 H 0.3413 0.63012 0.70965 0.0
C3316 C 0.31618 0.63094 0.81582 0.0
C3317 C 0.30378 0.62225 0.80721 0.0
C3318 C 0.3268 0.63892 0.8032 0.0
C3319 C 0.32513 0.63848 0.78176 0.0
C3320 C 0.3132 0.62926 0.77314 0.0
C3321 C 0.30263 0.62124 0.78571 0.0
C3322 C 0.3352 0.64828 0.76828 0.0
C3323 C 0.34348 0.64107 0.75221 0.0
C3324 C 0.3364 0.66472 0.77098 0.0
C3325 C 0.32721 0.67323 0.78679 0.0
C3326 C 0.31073 0.67225 0.78713 0.0
C3327 C 0.30215 0.68021 0.80217 0.0
C3328 C 0.30992 0.6893 0.81684 0.0
C3329 C 0.32628 0.69048 0.81647 0.0
C3330 C 0.33492 0.68253 0.80148 0.0
C3331 C 0.36678 0.68709 0.69271 0.0
C3332 C 0.37756 0.69814 0.70037 0.0
C3333 C 0.35944 0.67644 0.70594 0.0
C3334 C 0.36287 0.67653 0.72703 0.0
C3335 C 0.374 0.6872 0.73456 0.0
C3336 C 0.38128 0.69787 0.7214 0.0
C3337 C 0.35409 0.6663 0.74148 0.0
C3338 C 0.34596 0.67347 0.75772 0.0
C3339 C 0.35297 0.64985 0.73882 0.0
C3340 C 0.36181 0.6415 0.72253 0.0
C3341 C 0.37818 0.64323 0.72085 0.0
C3342 C 0.38643 0.63541 0.70539 0.0
C3343 C 0.37845 0.62573 0.69158 0.0
C3344 C 0.36221 0.62383 0.69323 0.0
C3345 C 0.3539 0.63164 0.70866 0.0
H3346 H 0.38486 0.61968 0.67961 0.0
H3347 H 0.30326 0.69545 0.82847 0.0
H3348 H 0.36312 0.31454 0.83405 0.0
H3349 H 0.34959 0.33365 0.81229 0.0
H3350 H 0.37008 0.31243 0.75851 0.0
H3351 H 0.38383 0.29353 0.78006 0.0
H3352 H 0.36957 0.34376 0.75477 0.0
H3353 H 0.33295 0.30314 0.77371 0.0
H3354 H 0.31821 0.28635 0.79777 0.0
H3355 H 0.29711 0.32717 0.82486 0.0
H3356 H 0.3119 0.34422 0.80112 0.0
H3357 H 0.31415 0.36576 0.67765 0.0
H3358 H 0.33194 0.35255 0.70152 0.0
H3359 H 0.30937 0.37578 0.75239 0.0
H3360 H 0.29145 0.38884 0.72875 0.0
H3361 H 0.31144 0.34509 0.75901 0.0
H3362 H 0.3467 0.38565 0.73744 0.0
H3363 H 0.36123 0.40194 0.71262 0.0
H3364 H 0.38468 0.36095 0.68959 0.0
H3365 H 0.37012 0.34437 0.71409 0.0
C3366 C 0.36489 0.31405 0.81762 0.0
C3367 C 0.37445 0.30239 0.80881 0.0
C3368 C 0.3571 0.32495 0.80519 0.0
C3369 C 0.35864 0.32432 0.78374 0.0
C3370 C 0.36869 0.31313 0.77501 0.0
C3371 C 0.3765 0.30227 0.78739 0.0
C3372 C 0.34916 0.33469 0.77027 0.0
C3373 C 0.35685 0.34399 0.75559 0.0
C3374 C 0.33259 0.33519 0.77156 0.0
C3375 C 0.32366 0.32496 0.7858 0.0
C3376 C 0.32526 0.30854 0.7849 0.0
C3377 C 0.31688 0.29897 0.79846 0.0
C3378 C 0.30677 0.30569 0.81288 0.0
C3379 C 0.30498 0.32199 0.81372 0.0
C3380 C 0.31334 0.33161 0.80021 0.0
C3381 C 0.31311 0.36823 0.69389 0.0
C3382 C 0.3013 0.3783 0.70127 0.0
C3383 C 0.32334 0.36071 0.70752 0.0
C3384 C 0.32203 0.36322 0.72876 0.0
C3385 C 0.31057 0.37363 0.73608 0.0
C3386 C 0.30034 0.38111 0.72251 0.0
C3387 C 0.33182 0.35419 0.74345 0.0
C3388 C 0.32417 0.34505 0.75832 0.0
C3389 C 0.34841 0.3538 0.74222 0.0
C3390 C 0.35721 0.36375 0.72749 0.0
C3391 C 0.35486 0.38009 0.72698 0.0
C3392 C 0.36312 0.38938 0.71299 0.0
C3393 C 0.37385 0.38248 0.69951 0.0
C3394 C 0.37636 0.36628 0.70003 0.0
C3395 C 0.36812 0.35693 0.71398 0.0
H3396 H 0.38023 0.3897 0.68869 0.0
H3397 H 0.30029 0.29827 0.82336 0.0
H3398 H 0.63693 0.31229 0.67563 0.0
H3399 H 0.65085 0.33036 0.69853 0.0
H3400 H 0.62415 0.31292 0.7499 0.0
H3401 H 0.61035 0.29477 0.72731 0.0
H3402 H 0.64223 0.35403 0.72517 0.0
H3403 H 0.64866 0.30887 0.79068 0.0
H3404 H 0.64959 0.28015 0.79544 0.0
H3405 H 0.66723 0.2745 0.73419 0.0
H3406 H 0.66661 0.30319 0.72917 0.0
H3407 H 0.68499 0.36583 0.83142 0.0
H3408 H 0.66621 0.35231 0.80916 0.0
H3409 H 0.68995 0.37059 0.75583 0.0
H3410 H 0.70854 0.38432 0.77784 0.0
H3411 H 0.67209 0.3296 0.78222 0.0
H3412 H 0.66447 0.37464 0.7162 0.0
H3413 H 0.66382 0.40335 0.71133 0.0
H3414 H 0.64896 0.4095 0.77374 0.0
H3415 H 0.64931 0.38083 0.77891 0.0
C3416 C 0.63388 0.31243 0.69176 0.0
C3417 C 0.62266 0.30193 0.69966 0.0
C3418 C 0.64183 0.32279 0.70481 0.0
C3419 C 0.63872 0.32278 0.72596 0.0
C3420 C 0.62693 0.31292 0.73368 0.0
C3421 C 0.61903 0.30256 0.72071 0.0
C3422 C 0.64837 0.33237 0.74016 0.0
C3423 C 0.6489 0.34871 0.73753 0.0
C3424 C 0.65678 0.32543 0.75655 0.0
C3425 C 0.65741 0.30816 0.75949 0.0
C3426 C 0.65278 0.3015 0.77826 0.0
C3427 C 0.65325 0.28522 0.781 0.0
C3428 C 0.65841 0.2755 0.7651 0.0
C3429 C 0.66317 0.28204 0.74646 0.0
C3430 C 0.66275 0.2983 0.74365 0.0
C3431 C 0.68609 0.36714 0.81496 0.0
C3432 C 0.6983 0.37615 0.80644 0.0
C3433 C 0.67537 0.35938 0.80226 0.0
C3434 C 0.67658 0.36054 0.78083 0.0
C3435 C 0.68859 0.36974 0.77231 0.0
C3436 C 0.69928 0.37751 0.78496 0.0
C3437 C 0.66597 0.35134 0.76732 0.0
C3438 C 0.66532 0.33501 0.77001 0.0
C3439 C 0.65749 0.35831 0.75099 0.0
C3440 C 0.65707 0.37558 0.74798 0.0
C3441 C 0.661 0.38212 0.72886 0.0
C3442 C 0.66069 0.39839 0.72605 0.0
C3443 C 0.6564 0.40825 0.74223 0.0
C3444 C 0.65234 0.40185 0.76124 0.0
C3445 C 0.65262 0.38559 0.76413 0.0
H3446 H 0.65618 0.42084 0.74003 0.0
H3447 H 0.65875 0.2629 0.76725 0.0
H3448 H 0.39006 0.29669 0.22671 0.0
H3449 H 0.37653 0.31506 0.2493 0.0
H3450 H 0.34889 0.3317 0.19831 0.0
H3451 H 0.36259 0.31346 0.17542 0.0
H3452 H 0.35728 0.35569 0.22403 0.0
H3453 H 0.33407 0.30442 0.23024 0.0
H3454 H 0.33417 0.27582 0.23607 0.0
H3455 H 0.35286 0.28285 0.29654 0.0
H3456 H 0.35307 0.3115 0.29096 0.0
H3457 H 0.29084 0.385 0.27738 0.0
H3458 H 0.30967 0.3716 0.25537 0.0
H3459 H 0.33451 0.35483 0.3087 0.0
H3460 H 0.31549 0.36801 0.33096 0.0
H3461 H 0.32896 0.33157 0.28261 0.0
H3462 H 0.35022 0.38337 0.27706 0.0
H3463 H 0.34962 0.41192 0.27091 0.0
H3464 H 0.33406 0.40407 0.20912 0.0
H3465 H 0.33436 0.37546 0.21498 0.0
C3466 C 0.38123 0.30436 0.2202 0.0
C3467 C 0.37727 0.30346 0.19928 0.0
C3468 C 0.37349 0.31485 0.23317 0.0
C3469 C 0.3615 0.32453 0.22557 0.0
C3470 C 0.35807 0.32428 0.2045 0.0
C3471 C 0.36589 0.31382 0.19145 0.0
C3472 C 0.35193 0.33416 0.23983 0.0
C3473 C 0.35096 0.35043 0.23674 0.0
C3474 C 0.34395 0.32731 0.25666 0.0
C3475 C 0.34374 0.31009 0.2601 0.0
C3476 C 0.33831 0.29986 0.24472 0.0
C3477 C 0.33829 0.28364 0.24799 0.0
C3478 C 0.34356 0.27751 0.26664 0.0
C3479 C 0.34881 0.28761 0.28209 0.0
C3480 C 0.34887 0.30384 0.27889 0.0
C3481 C 0.3004 0.37862 0.2845 0.0
C3482 C 0.3016 0.37754 0.30599 0.0
C3483 C 0.31123 0.37103 0.27184 0.0
C3484 C 0.3236 0.36232 0.28036 0.0
C3485 C 0.32506 0.36151 0.3018 0.0
C3486 C 0.3142 0.36908 0.3145 0.0
C3487 C 0.33428 0.35317 0.26689 0.0
C3488 C 0.3354 0.33692 0.27006 0.0
C3489 C 0.34232 0.36006 0.25013 0.0
C3490 C 0.3422 0.37726 0.24652 0.0
C3491 C 0.34656 0.38773 0.2622 0.0
C3492 C 0.34629 0.40393 0.25876 0.0
C3493 C 0.34177 0.40981 0.23965 0.0
C3494 C 0.33755 0.3995 0.22392 0.0
C3495 C 0.33778 0.38329 0.22728 0.0
H3496 H 0.34157 0.42235 0.23701 0.0
H3497 H 0.34354 0.26495 0.26914 0.0
H3498 H 0.63606 0.3142 0.32909 0.0
H3499 H 0.64893 0.3324 0.30541 0.0
H3500 H 0.62392 0.3116 0.2547 0.0
H3501 H 0.61119 0.29329 0.27812 0.0
H3502 H 0.65445 0.31329 0.24674 0.0
H3503 H 0.61515 0.34867 0.2718 0.0
H3504 H 0.59987 0.36284 0.29805 0.0
H3505 H 0.64194 0.38496 0.31999 0.0
H3506 H 0.65751 0.37076 0.29404 0.0
H3507 H 0.68414 0.36605 0.17251 0.0
H3508 H 0.66527 0.3524 0.1945 0.0
H3509 H 0.68791 0.37153 0.24815 0.0
H3510 H 0.70653 0.38544 0.22639 0.0
H3511 H 0.65688 0.37125 0.25333 0.0
H3512 H 0.69632 0.33445 0.23097 0.0
H3513 H 0.71219 0.32003 0.20554 0.0
H3514 H 0.67029 0.3003 0.17952 0.0
H3515 H 0.65416 0.31477 0.20465 0.0
C3516 C 0.63313 0.31365 0.31294 0.0
C3517 C 0.62265 0.30221 0.30551 0.0
C3518 C 0.64046 0.3241 0.29942 0.0
C3519 C 0.63735 0.3234 0.27827 0.0
C3520 C 0.62653 0.31233 0.27094 0.0
C3521 C 0.61924 0.30188 0.28439 0.0
C3522 C 0.64615 0.33341 0.26359 0.0
C3523 C 0.65473 0.32599 0.24797 0.0
C3524 C 0.64686 0.34995 0.26549 0.0
C3525 C 0.63752 0.35854 0.28108 0.0
C3526 C 0.62117 0.35646 0.28233 0.0
C3527 C 0.61245 0.36452 0.29713 0.0
C3528 C 0.61994 0.37477 0.31071 0.0
C3529 C 0.63616 0.37701 0.30947 0.0
C3530 C 0.64493 0.36897 0.2947 0.0
C3531 C 0.68499 0.36751 0.18897 0.0
C3532 C 0.69697 0.37673 0.19766 0.0
C3533 C 0.67423 0.35965 0.20153 0.0
C3534 C 0.67534 0.36074 0.223 0.0
C3535 C 0.68683 0.37049 0.23164 0.0
C3536 C 0.69753 0.37839 0.21914 0.0
C3537 C 0.66516 0.3511 0.23655 0.0
C3538 C 0.65641 0.35857 0.25199 0.0
C3539 C 0.66435 0.33457 0.2346 0.0
C3540 C 0.67403 0.32583 0.21953 0.0
C3541 C 0.69049 0.32713 0.21972 0.0
C3542 C 0.69953 0.31893 0.20539 0.0
C3543 C 0.69225 0.30929 0.19089 0.0
C3544 C 0.67591 0.30779 0.19074 0.0
C3545 C 0.66682 0.31598 0.20503 0.0
H3546 H 0.69927 0.30295 0.1798 0.0
H3547 H 0.61316 0.38099 0.32216 0.0
H3548 H 0.7044 0.61134 0.27897 0.0
H3549 H 0.68596 0.62459 0.25625 0.0
H3550 H 0.66535 0.64839 0.30804 0.0
H3551 H 0.68378 0.63505 0.33109 0.0
H3552 H 0.64302 0.63869 0.27911 0.0
H3553 H 0.69157 0.66727 0.28068 0.0
H3554 H 0.72026 0.67055 0.27821 0.0
H3555 H 0.71916 0.65486 0.21563 0.0
H3556 H 0.69046 0.65126 0.21784 0.0
H3557 H 0.61058 0.70453 0.22643 0.0
H3558 H 0.62421 0.6862 0.249 0.0
H3559 H 0.64622 0.66453 0.19659 0.0
H3560 H 0.63272 0.68294 0.17382 0.0
H3561 H 0.66734 0.67229 0.22565 0.0
H3562 H 0.61827 0.6451 0.22363 0.0
H3563 H 0.58955 0.64215 0.22637 0.0
H3564 H 0.59143 0.65568 0.28976 0.0
H3565 H 0.62014 0.65893 0.28733 0.0
C3566 C 0.69585 0.61925 0.28565 0.0
C3567 C 0.69571 0.62227 0.30687 0.0
C3568 C 0.68532 0.62683 0.27259 0.0
C3569 C 0.67447 0.63765 0.28043 0.0
C3570 C 0.67369 0.6401 0.3017 0.0
C3571 C 0.68425 0.6325 0.31483 0.0
C3572 C 0.66471 0.6471 0.26622 0.0
C3573 C 0.6483 0.64618 0.26755 0.0
C3574 C 0.67164 0.65662 0.2509 0.0
C3575 C 0.68889 0.65884 0.2495 0.0
C3576 C 0.69746 0.66439 0.26645 0.0
C3577 C 0.71372 0.66633 0.26508 0.0
C3578 C 0.72154 0.66288 0.24679 0.0
C3579 C 0.71309 0.65751 0.2298 0.0
C3580 C 0.69683 0.65553 0.2311 0.0
C3581 C 0.61816 0.69574 0.21963 0.0
C3582 C 0.62062 0.69527 0.19829 0.0
C3583 C 0.62589 0.68521 0.23259 0.0
C3584 C 0.63617 0.67394 0.22448 0.0
C3585 C 0.63832 0.67313 0.20315 0.0
C3586 C 0.63055 0.68364 0.19016 0.0
C3587 C 0.64559 0.66385 0.23837 0.0
C3588 C 0.662 0.66472 0.23707 0.0
C3589 C 0.63862 0.65436 0.25372 0.0
C3590 C 0.62135 0.6524 0.25524 0.0
C3591 C 0.61255 0.64758 0.23811 0.0
C3592 C 0.59627 0.64583 0.23962 0.0
C3593 C 0.58867 0.64876 0.25821 0.0
C3594 C 0.59733 0.65343 0.27536 0.0
C3595 C 0.61361 0.65521 0.27393 0.0
H3596 H 0.57606 0.6474 0.25934 0.0
H3597 H 0.73413 0.66439 0.24576 0.0
H3598 H 0.31523 0.63441 0.17759 0.0
H3599 H 0.3335 0.6477 0.20079 0.0
H3600 H 0.3114 0.62528 0.25262 0.0
H3601 H 0.29303 0.61213 0.22967 0.0
H3602 H 0.31382 0.65611 0.25846 0.0
H3603 H 0.34826 0.6148 0.23715 0.0
H3604 H 0.36233 0.59798 0.21247 0.0
H3605 H 0.38617 0.63832 0.18821 0.0
H3606 H 0.37208 0.65543 0.21257 0.0
H3607 H 0.36655 0.6857 0.33261 0.0
H3608 H 0.35281 0.6667 0.31093 0.0
H3609 H 0.37263 0.68826 0.25697 0.0
H3610 H 0.38654 0.70714 0.27844 0.0
H3611 H 0.37192 0.65651 0.25329 0.0
H3612 H 0.33619 0.69784 0.27233 0.0
H3613 H 0.32198 0.71504 0.29643 0.0
H3614 H 0.30035 0.67479 0.32424 0.0
H3615 H 0.31462 0.65732 0.30047 0.0
C3616 C 0.31439 0.63214 0.1939 0.0
C3617 C 0.30259 0.62227 0.20175 0.0
C3618 C 0.32488 0.6397 0.20714 0.0
C3619 C 0.32384 0.63744 0.22845 0.0
C3620 C 0.31239 0.62723 0.23624 0.0
C3621 C 0.30191 0.6197 0.22306 0.0
C3622 C 0.33391 0.64654 0.24274 0.0
C3623 C 0.32654 0.65595 0.25756 0.0
C3624 C 0.35049 0.64667 0.24123 0.0
C3625 C 0.359 0.63641 0.22657 0.0
C3626 C 0.3564 0.6201 0.22644 0.0
C3627 C 0.36441 0.61051 0.21253 0.0
C3628 C 0.37511 0.61708 0.19874 0.0
C3629 C 0.37786 0.63325 0.19888 0.0
C3630 C 0.36988 0.6429 0.21275 0.0
C3631 C 0.36815 0.68629 0.31615 0.0
C3632 C 0.37752 0.69806 0.30727 0.0
C3633 C 0.36025 0.67544 0.30377 0.0
C3634 C 0.36153 0.67622 0.28231 0.0
C3635 C 0.37145 0.68747 0.27348 0.0
C3636 C 0.37934 0.6983 0.28581 0.0
C3637 C 0.35179 0.66599 0.26898 0.0
C3638 C 0.35921 0.65648 0.2543 0.0
C3639 C 0.33523 0.66579 0.27052 0.0
C3640 C 0.32661 0.67627 0.28479 0.0
C3641 C 0.3285 0.69265 0.2837 0.0
C3642 C 0.32042 0.70245 0.29727 0.0
C3643 C 0.3103 0.69601 0.31189 0.0
C3644 C 0.30821 0.67976 0.31293 0.0
C3645 C 0.31629 0.6699 0.29941 0.0
H3646 H 0.30405 0.70362 0.32239 0.0
H3647 H 0.3813 0.60964 0.18799 0.0
loop_
_geom_bond_atom_site_label_1
_geom_bond_atom_site_label_2
_geom_bond_distance
_geom_bond_site_symmetry_2
_ccdc_geom_bond_type
O0 Cd1 2.223 . S
O0 C8 1.315 . S
Cd1 O0 2.223 . S
Cd1 O4 2.297 . S
Cd1 O5 2.439 . S
Cd1 O11 2.240 . S
Cd2 O3 2.240 . S
Cd2 O10 2.223 . S
Cd2 O12 2.297 . S
Cd2 O13 2.439 . S
O3 Cd2 2.240 . S
O3 C8 1.279 . S
O4 Cd1 2.297 . S
O4 C6 1.247 . S
O5 Cd1 2.439 . S
O5 C6 1.208 . S
C6 O4 1.247 . S
C6 O5 1.208 . S
C7 O12 1.247 . S
C7 O13 1.208 . S
C8 O0 1.315 . S
C8 O3 1.279 . S
C9 O10 1.315 . S
C9 O11 1.279 . S
O10 Cd2 2.223 . S
O10 C9 1.315 . S
O11 Cd1 2.240 . S
O11 C9 1.279 . S
O12 Cd2 2.297 . S
O12 C7 1.247 . S
O13 Cd2 2.439 . S
O13 C7 1.208 . S
O14 Cd15 2.223 . S
O14 C22 1.315 . S
Cd15 O14 2.223 . S
Cd15 O18 2.297 . S
Cd15 O19 2.439 . S
Cd15 O25 2.240 . S
Cd16 O17 2.240 . S
Cd16 O24 2.223 . S
Cd16 O26 2.297 . S
Cd16 O27 2.439 . S
O17 Cd16 2.240 . S
O17 C22 1.279 . S
O18 Cd15 2.297 . S
O18 C20 1.247 . S
O19 Cd15 2.439 . S
O19 C20 1.208 . S
C20 O18 1.247 . S
C20 O19 1.208 . S
C21 O26 1.247 . S
C21 O27 1.208 . S
C22 O14 1.315 . S
C22 O17 1.279 . S
C23 O24 1.315 . S
C23 O25 1.279 . S
O24 Cd16 2.223 . S
O24 C23 1.315 . S
O25 Cd15 2.240 . S
O25 C23 1.279 . S
O26 Cd16 2.297 . S
O26 C21 1.247 . S
O27 Cd16 2.439 . S
O27 C21 1.208 . S
O28 Cd29 2.223 . S
O28 C36 1.315 . S
Cd29 O28 2.223 . S
Cd29 O32 2.297 . S
Cd29 O33 2.439 . S
Cd29 O39 2.240 . S
Cd30 O31 2.240 . S
Cd30 O38 2.223 . S
Cd30 O40 2.297 . S
Cd30 O41 2.439 . S
O31 Cd30 2.240 . S
O31 C36 1.279 . S
O32 Cd29 2.297 . S
O32 C34 1.247 . S
O33 Cd29 2.439 . S
O33 C34 1.208 . S
C34 O32 1.247 . S
C34 O33 1.208 . S
C35 O40 1.247 . S
C35 O41 1.208 . S
C36 O28 1.315 . S
C36 O31 1.279 . S
C37 O38 1.315 . S
C37 O39 1.279 . S
O38 Cd30 2.223 . S
O38 C37 1.315 . S
O39 Cd29 2.240 . S
O39 C37 1.279 . S
O40 Cd30 2.297 . S
O40 C35 1.247 . S
O41 Cd30 2.439 . S
O41 C35 1.208 . S
O42 Cd43 2.223 . S
O42 C50 1.315 . S
Cd43 O42 2.223 . S
Cd43 O46 2.297 . S
Cd43 O47 2.439 . S
Cd43 O53 2.240 . S
Cd44 O45 2.240 . S
Cd44 O52 2.223 . S
Cd44 O54 2.297 . S
Cd44 O55 2.439 . S
O45 Cd44 2.240 . S
O45 C50 1.279 . S
O46 Cd43 2.297 . S
O46 C48 1.247 . S
O47 Cd43 2.439 . S
O47 C48 1.208 . S
C48 O46 1.247 . S
C48 O47 1.208 . S
C49 O54 1.247 . S
C49 O55 1.208 . S
C50 O42 1.315 . S
C50 O45 1.279 . S
C51 O52 1.315 . S
C51 O53 1.279 . S
O52 Cd44 2.223 . S
O52 C51 1.315 . S
O53 Cd43 2.240 . S
O53 C51 1.279 . S
O54 Cd44 2.297 . S
O54 C49 1.247 . S
O55 Cd44 2.439 . S
O55 C49 1.208 . S
O56 Cd57 2.223 . S
O56 C64 1.315 . S
Cd57 O56 2.223 . S
Cd57 O60 2.297 . S
Cd57 O61 2.439 . S
Cd57 O67 2.240 . S
Cd58 O59 2.240 . S
Cd58 O66 2.223 . S
Cd58 O68 2.297 . S
Cd58 O69 2.439 . S
O59 Cd58 2.240 . S
O59 C64 1.279 . S
O60 Cd57 2.297 . S
O60 C62 1.247 . S
O61 Cd57 2.439 . S
O61 C62 1.208 . S
C62 O60 1.247 . S
C62 O61 1.208 . S
C63 O68 1.247 . S
C63 O69 1.208 . S
C64 O56 1.315 . S
C64 O59 1.279 . S
C65 O66 1.315 . S
C65 O67 1.279 . S
O66 Cd58 2.223 . S
O66 C65 1.315 . S
O67 Cd57 2.240 . S
O67 C65 1.279 . S
O68 Cd58 2.297 . S
O68 C63 1.247 . S
O69 Cd58 2.439 . S
O69 C63 1.208 . S
O70 Cd71 2.223 . S
O70 C78 1.315 . S
Cd71 O70 2.223 . S
Cd71 O74 2.297 . S
Cd71 O75 2.439 . S
Cd71 O81 2.240 . S
Cd72 O73 2.240 . S
Cd72 O80 2.223 . S
Cd72 O82 2.297 . S
Cd72 O83 2.439 . S
O73 Cd72 2.240 . S
O73 C78 1.279 . S
O74 Cd71 2.297 . S
O74 C76 1.247 . S
O75 Cd71 2.439 . S
O75 C76 1.208 . S
C76 O74 1.247 . S
C76 O75 1.208 . S
C77 O82 1.247 . S
C77 O83 1.208 . S
C78 O70 1.315 . S
C78 O73 1.279 . S
C79 O80 1.315 . S
C79 O81 1.279 . S
O80 Cd72 2.223 . S
O80 C79 1.315 . S
O81 Cd71 2.240 . S
O81 C79 1.279 . S
O82 Cd72 2.297 . S
O82 C77 1.247 . S
O83 Cd72 2.439 . S
O83 C77 1.208 . S
O84 Cd85 2.223 . S
O84 C92 1.315 . S
Cd85 O84 2.223 . S
Cd85 O88 2.297 . S
Cd85 O89 2.439 . S
Cd85 O95 2.240 . S
Cd86 O87 2.240 . S
Cd86 O94 2.223 . S
Cd86 O96 2.297 . S
Cd86 O97 2.439 . S
O87 Cd86 2.240 . S
O87 C92 1.279 . S
O88 Cd85 2.297 . S
O88 C90 1.247 . S
O89 Cd85 2.439 . S
O89 C90 1.208 . S
C90 O88 1.247 . S
C90 O89 1.208 . S
C91 O96 1.247 . S
C91 O97 1.208 . S
C92 O84 1.315 . S
C92 O87 1.279 . S
C93 O94 1.315 . S
C93 O95 1.279 . S
O94 Cd86 2.223 . S
O94 C93 1.315 . S
O95 Cd85 2.240 . S
O95 C93 1.279 . S
O96 Cd86 2.297 . S
O96 C91 1.247 . S
O97 Cd86 2.439 . S
O97 C91 1.208 . S
O98 Cd99 2.223 . S
O98 C106 1.315 . S
Cd99 O98 2.223 . S
Cd99 O102 2.297 . S
Cd99 O103 2.439 . S
Cd99 O109 2.240 . S
Cd100 O101 2.240 . S
Cd100 O108 2.223 . S
Cd100 O110 2.297 . S
Cd100 O111 2.439 . S
O101 Cd100 2.240 . S
O101 C106 1.279 . S
O102 Cd99 2.297 . S
O102 C104 1.247 . S
O103 Cd99 2.439 . S
O103 C104 1.208 . S
C104 O102 1.247 . S
C104 O103 1.208 . S
C105 O110 1.247 . S
C105 O111 1.208 . S
C106 O98 1.315 . S
C106 O101 1.279 . S
C107 O108 1.315 . S
C107 O109 1.279 . S
O108 Cd100 2.223 . S
O108 C107 1.315 . S
O109 Cd99 2.240 . S
O109 C107 1.279 . S
O110 Cd100 2.297 . S
O110 C105 1.247 . S
O111 Cd100 2.439 . S
O111 C105 1.208 . S
O112 Cd113 2.223 . S
O112 C120 1.315 . S
Cd113 O112 2.223 . S
Cd113 O116 2.297 . S
Cd113 O117 2.439 . S
Cd113 O123 2.240 . S
Cd114 O115 2.240 . S
Cd114 O122 2.223 . S
Cd114 O124 2.297 . S
Cd114 O125 2.439 . S
O115 Cd114 2.240 . S
O115 C120 1.279 . S
O116 Cd113 2.297 . S
O116 C118 1.247 . S
O117 Cd113 2.439 . S
O117 C118 1.208 . S
C118 O116 1.247 . S
C118 O117 1.208 . S
C119 O124 1.247 . S
C119 O125 1.208 . S
C120 O112 1.315 . S
C120 O115 1.279 . S
C121 O122 1.315 . S
C121 O123 1.279 . S
O122 Cd114 2.223 . S
O122 C121 1.315 . S
O123 Cd113 2.240 . S
O123 C121 1.279 . S
O124 Cd114 2.297 . S
O124 C119 1.247 . S
O125 Cd114 2.439 . S
O125 C119 1.208 . S
O126 Cd127 2.223 . S
O126 C134 1.315 . S
Cd127 O126 2.223 . S
Cd127 O130 2.297 . S
Cd127 O131 2.439 . S
Cd127 O137 2.240 . S
Cd128 O129 2.240 . S
Cd128 O136 2.223 . S
Cd128 O138 2.297 . S
Cd128 O139 2.439 . S
O129 Cd128 2.240 . S
O129 C134 1.279 . S
O130 Cd127 2.297 . S
O130 C132 1.247 . S
O131 Cd127 2.439 . S
O131 C132 1.208 . S
C132 O130 1.247 . S
C132 O131 1.208 . S
C133 O138 1.247 . S
C133 O139 1.208 . S
C134 O126 1.315 . S
C134 O129 1.279 . S
C135 O136 1.315 . S
C135 O137 1.279 . S
O136 Cd128 2.223 . S
O136 C135 1.315 . S
O137 Cd127 2.240 . S
O137 C135 1.279 . S
O138 Cd128 2.297 . S
O138 C133 1.247 . S
O139 Cd128 2.439 . S
O139 C133 1.208 . S
O140 Cd141 2.223 . S
O140 C148 1.315 . S
Cd141 O140 2.223 . S
Cd141 O144 2.297 . S
Cd141 O145 2.439 . S
Cd141 O151 2.240 . S
Cd142 O143 2.240 . S
Cd142 O150 2.223 . S
Cd142 O152 2.297 . S
Cd142 O153 2.439 . S
O143 Cd142 2.240 . S
O143 C148 1.279 . S
O144 Cd141 2.297 . S
O144 C146 1.247 . S
O145 Cd141 2.439 . S
O145 C146 1.208 . S
C146 O144 1.247 . S
C146 O145 1.208 . S
C147 O152 1.247 . S
C147 O153 1.208 . S
C148 O140 1.315 . S
C148 O143 1.279 . S
C149 O150 1.315 . S
C149 O151 1.279 . S
O150 Cd142 2.223 . S
O150 C149 1.315 . S
O151 Cd141 2.240 . S
O151 C149 1.279 . S
O152 Cd142 2.297 . S
O152 C147 1.247 . S
O153 Cd142 2.439 . S
O153 C147 1.208 . S
O154 Cd155 2.223 . S
O154 C162 1.315 . S
Cd155 O154 2.223 . S
Cd155 O158 2.297 . S
Cd155 O159 2.439 . S
Cd155 O165 2.240 . S
Cd156 O157 2.240 . S
Cd156 O164 2.223 . S
Cd156 O166 2.297 . S
Cd156 O167 2.439 . S
O157 Cd156 2.240 . S
O157 C162 1.279 . S
O158 Cd155 2.297 . S
O158 C160 1.247 . S
O159 Cd155 2.439 . S
O159 C160 1.208 . S
C160 O158 1.247 . S
C160 O159 1.208 . S
C161 O166 1.247 . S
C161 O167 1.208 . S
C162 O154 1.315 . S
C162 O157 1.279 . S
C163 O164 1.315 . S
C163 O165 1.279 . S
O164 Cd156 2.223 . S
O164 C163 1.315 . S
O165 Cd155 2.240 . S
O165 C163 1.279 . S
O166 Cd156 2.297 . S
O166 C161 1.247 . S
O167 Cd156 2.439 . S
O167 C161 1.208 . S
O168 Cd169 2.223 . S
O168 C176 1.315 . S
Cd169 O168 2.223 . S
Cd169 O172 2.297 . S
Cd169 O173 2.439 . S
Cd169 O179 2.240 . S
Cd170 O171 2.240 . S
Cd170 O178 2.223 . S
Cd170 O180 2.297 . S
Cd170 O181 2.439 . S
O171 Cd170 2.240 . S
O171 C176 1.279 . S
O172 Cd169 2.297 . S
O172 C174 1.247 . S
O173 Cd169 2.439 . S
O173 C174 1.208 . S
C174 O172 1.247 . S
C174 O173 1.208 . S
C175 O180 1.247 . S
C175 O181 1.208 . S
C176 O168 1.315 . S
C176 O171 1.279 . S
C177 O178 1.315 . S
C177 O179 1.279 . S
O178 Cd170 2.223 . S
O178 C177 1.315 . S
O179 Cd169 2.240 . S
O179 C177 1.279 . S
O180 Cd170 2.297 . S
O180 C175 1.247 . S
O181 Cd170 2.439 . S
O181 C175 1.208 . S
O182 Cd183 2.223 . S
O182 C190 1.315 . S
Cd183 O182 2.223 . S
Cd183 O186 2.297 . S
Cd183 O187 2.439 . S
Cd183 O193 2.240 . S
Cd184 O185 2.240 . S
Cd184 O192 2.223 . S
Cd184 O194 2.297 . S
Cd184 O195 2.439 . S
O185 Cd184 2.240 . S
O185 C190 1.279 . S
O186 Cd183 2.297 . S
O186 C188 1.247 . S
O187 Cd183 2.439 . S
O187 C188 1.208 . S
C188 O186 1.247 . S
C188 O187 1.208 . S
C189 O194 1.247 . S
C189 O195 1.208 . S
C190 O182 1.315 . S
C190 O185 1.279 . S
C191 O192 1.315 . S
C191 O193 1.279 . S
O192 Cd184 2.223 . S
O192 C191 1.315 . S
O193 Cd183 2.240 . S
O193 C191 1.279 . S
O194 Cd184 2.297 . S
O194 C189 1.247 . S
O195 Cd184 2.439 . S
O195 C189 1.208 . S
O196 Cd197 2.223 . S
O196 C204 1.315 . S
Cd197 O196 2.223 . S
Cd197 O200 2.297 . S
Cd197 O201 2.439 . S
Cd197 O207 2.240 . S
Cd198 O199 2.240 . S
Cd198 O206 2.223 . S
Cd198 O208 2.297 . S
Cd198 O209 2.439 . S
O199 Cd198 2.240 . S
O199 C204 1.279 . S
O200 Cd197 2.297 . S
O200 C202 1.247 . S
O201 Cd197 2.439 . S
O201 C202 1.208 . S
C202 O200 1.247 . S
C202 O201 1.208 . S
C203 O208 1.247 . S
C203 O209 1.208 . S
C204 O196 1.315 . S
C204 O199 1.279 . S
C205 O206 1.315 . S
C205 O207 1.279 . S
O206 Cd198 2.223 . S
O206 C205 1.315 . S
O207 Cd197 2.240 . S
O207 C205 1.279 . S
O208 Cd198 2.297 . S
O208 C203 1.247 . S
O209 Cd198 2.439 . S
O209 C203 1.208 . S
O210 Cd211 2.223 . S
O210 C218 1.315 . S
Cd211 O210 2.223 . S
Cd211 O214 2.297 . S
Cd211 O215 2.439 . S
Cd211 O221 2.240 . S
Cd212 O213 2.240 . S
Cd212 O220 2.223 . S
Cd212 O222 2.297 . S
Cd212 O223 2.439 . S
O213 Cd212 2.240 . S
O213 C218 1.279 . S
O214 Cd211 2.297 . S
O214 C216 1.247 . S
O215 Cd211 2.439 . S
O215 C216 1.208 . S
C216 O214 1.247 . S
C216 O215 1.208 . S
C217 O222 1.247 . S
C217 O223 1.208 . S
C218 O210 1.315 . S
C218 O213 1.279 . S
C219 O220 1.315 . S
C219 O221 1.279 . S
O220 Cd212 2.223 . S
O220 C219 1.315 . S
O221 Cd211 2.240 . S
O221 C219 1.279 . S
O222 Cd212 2.297 . S
O222 C217 1.247 . S
O223 Cd212 2.439 . S
O223 C217 1.208 . S
O224 Cd225 2.223 . S
O224 C232 1.315 . S
Cd225 O224 2.223 . S
Cd225 O228 2.297 . S
Cd225 O229 2.439 . S
Cd225 O235 2.240 . S
Cd226 O227 2.240 . S
Cd226 O234 2.223 . S
Cd226 O236 2.297 . S
Cd226 O237 2.439 . S
O227 Cd226 2.240 . S
O227 C232 1.279 . S
O228 Cd225 2.297 . S
O228 C230 1.247 . S
O229 Cd225 2.439 . S
O229 C230 1.208 . S
C230 O228 1.247 . S
C230 O229 1.208 . S
C231 O236 1.247 . S
C231 O237 1.208 . S
C232 O224 1.315 . S
C232 O227 1.279 . S
C233 O234 1.315 . S
C233 O235 1.279 . S
O234 Cd226 2.223 . S
O234 C233 1.315 . S
O235 Cd225 2.240 . S
O235 C233 1.279 . S
O236 Cd226 2.297 . S
O236 C231 1.247 . S
O237 Cd226 2.439 . S
O237 C231 1.208 . S
O238 Cd239 2.223 . S
O238 C246 1.315 . S
Cd239 O238 2.223 . S
Cd239 O242 2.297 . S
Cd239 O243 2.439 . S
Cd239 O249 2.240 . S
Cd240 O241 2.240 . S
Cd240 O248 2.223 . S
Cd240 O250 2.297 . S
Cd240 O251 2.439 . S
O241 Cd240 2.240 . S
O241 C246 1.279 . S
O242 Cd239 2.297 . S
O242 C244 1.247 . S
O243 Cd239 2.439 . S
O243 C244 1.208 . S
C244 O242 1.247 . S
C244 O243 1.208 . S
C245 O250 1.247 . S
C245 O251 1.208 . S
C246 O238 1.315 . S
C246 O241 1.279 . S
C247 O248 1.315 . S
C247 O249 1.279 . S
O248 Cd240 2.223 . S
O248 C247 1.315 . S
O249 Cd239 2.240 . S
O249 C247 1.279 . S
O250 Cd240 2.297 . S
O250 C245 1.247 . S
O251 Cd240 2.439 . S
O251 C245 1.208 . S
O252 Cd253 2.223 . S
O252 C260 1.315 . S
Cd253 O252 2.223 . S
Cd253 O256 2.297 . S
Cd253 O257 2.439 . S
Cd253 O263 2.240 . S
Cd254 O255 2.240 . S
Cd254 O262 2.223 . S
Cd254 O264 2.297 . S
Cd254 O265 2.439 . S
O255 Cd254 2.240 . S
O255 C260 1.279 . S
O256 Cd253 2.297 . S
O256 C258 1.247 . S
O257 Cd253 2.439 . S
O257 C258 1.208 . S
C258 O256 1.247 . S
C258 O257 1.208 . S
C259 O264 1.247 . S
C259 O265 1.208 . S
C260 O252 1.315 . S
C260 O255 1.279 . S
C261 O262 1.315 . S
C261 O263 1.279 . S
O262 Cd254 2.223 . S
O262 C261 1.315 . S
O263 Cd253 2.240 . S
O263 C261 1.279 . S
O264 Cd254 2.297 . S
O264 C259 1.247 . S
O265 Cd254 2.439 . S
O265 C259 1.208 . S
O266 Cd267 2.223 . S
O266 C274 1.315 . S
Cd267 O266 2.223 . S
Cd267 O270 2.297 . S
Cd267 O271 2.439 . S
Cd267 O277 2.240 . S
Cd268 O269 2.240 . S
Cd268 O276 2.223 . S
Cd268 O278 2.297 . S
Cd268 O279 2.439 . S
O269 Cd268 2.240 . S
O269 C274 1.279 . S
O270 Cd267 2.297 . S
O270 C272 1.247 . S
O271 Cd267 2.439 . S
O271 C272 1.208 . S
C272 O270 1.247 . S
C272 O271 1.208 . S
C273 O278 1.247 . S
C273 O279 1.208 . S
C274 O266 1.315 . S
C274 O269 1.279 . S
C275 O276 1.315 . S
C275 O277 1.279 . S
O276 Cd268 2.223 . S
O276 C275 1.315 . S
O277 Cd267 2.240 . S
O277 C275 1.279 . S
O278 Cd268 2.297 . S
O278 C273 1.247 . S
O279 Cd268 2.439 . S
O279 C273 1.208 . S
O280 Cd281 2.223 . S
O280 C288 1.315 . S
Cd281 O280 2.223 . S
Cd281 O284 2.297 . S
Cd281 O285 2.439 . S
Cd281 O291 2.240 . S
Cd282 O283 2.240 . S
Cd282 O290 2.223 . S
Cd282 O292 2.297 . S
Cd282 O293 2.439 . S
O283 Cd282 2.240 . S
O283 C288 1.279 . S
O284 Cd281 2.297 . S
O284 C286 1.247 . S
O285 Cd281 2.439 . S
O285 C286 1.208 . S
C286 O284 1.247 . S
C286 O285 1.208 . S
C287 O292 1.247 . S
C287 O293 1.208 . S
C288 O280 1.315 . S
C288 O283 1.279 . S
C289 O290 1.315 . S
C289 O291 1.279 . S
O290 Cd282 2.223 . S
O290 C289 1.315 . S
O291 Cd281 2.240 . S
O291 C289 1.279 . S
O292 Cd282 2.297 . S
O292 C287 1.247 . S
O293 Cd282 2.439 . S
O293 C287 1.208 . S
O294 Cd295 2.223 . S
O294 C302 1.315 . S
Cd295 O294 2.223 . S
Cd295 O298 2.297 . S
Cd295 O299 2.439 . S
Cd295 O305 2.240 . S
Cd296 O297 2.240 . S
Cd296 O304 2.223 . S
Cd296 O306 2.297 . S
Cd296 O307 2.439 . S
O297 Cd296 2.240 . S
O297 C302 1.279 . S
O298 Cd295 2.297 . S
O298 C300 1.247 . S
O299 Cd295 2.439 . S
O299 C300 1.208 . S
C300 O298 1.247 . S
C300 O299 1.208 . S
C301 O306 1.247 . S
C301 O307 1.208 . S
C302 O294 1.315 . S
C302 O297 1.279 . S
C303 O304 1.315 . S
C303 O305 1.279 . S
O304 Cd296 2.223 . S
O304 C303 1.315 . S
O305 Cd295 2.240 . S
O305 C303 1.279 . S
O306 Cd296 2.297 . S
O306 C301 1.247 . S
O307 Cd296 2.439 . S
O307 C301 1.208 . S
O308 Cd309 2.223 . S
O308 C316 1.315 . S
Cd309 O308 2.223 . S
Cd309 O312 2.297 . S
Cd309 O313 2.439 . S
Cd309 O319 2.240 . S
Cd310 O311 2.240 . S
Cd310 O318 2.223 . S
Cd310 O320 2.297 . S
Cd310 O321 2.439 . S
O311 Cd310 2.240 . S
O311 C316 1.279 . S
O312 Cd309 2.297 . S
O312 C314 1.247 . S
O313 Cd309 2.439 . S
O313 C314 1.208 . S
C314 O312 1.247 . S
C314 O313 1.208 . S
C315 O320 1.247 . S
C315 O321 1.208 . S
C316 O308 1.315 . S
C316 O311 1.279 . S
C317 O318 1.315 . S
C317 O319 1.279 . S
O318 Cd310 2.223 . S
O318 C317 1.315 . S
O319 Cd309 2.240 . S
O319 C317 1.279 . S
O320 Cd310 2.297 . S
O320 C315 1.247 . S
O321 Cd310 2.439 . S
O321 C315 1.208 . S
O322 Cd323 2.223 . S
O322 C330 1.315 . S
Cd323 O322 2.223 . S
Cd323 O326 2.297 . S
Cd323 O327 2.439 . S
Cd323 O333 2.240 . S
Cd324 O325 2.240 . S
Cd324 O332 2.223 . S
Cd324 O334 2.297 . S
Cd324 O335 2.439 . S
O325 Cd324 2.240 . S
O325 C330 1.279 . S
O326 Cd323 2.297 . S
O326 C328 1.247 . S
O327 Cd323 2.439 . S
O327 C328 1.208 . S
C328 O326 1.247 . S
C328 O327 1.208 . S
C329 O334 1.247 . S
C329 O335 1.208 . S
C330 O322 1.315 . S
C330 O325 1.279 . S
C331 O332 1.315 . S
C331 O333 1.279 . S
O332 Cd324 2.223 . S
O332 C331 1.315 . S
O333 Cd323 2.240 . S
O333 C331 1.279 . S
O334 Cd324 2.297 . S
O334 C329 1.247 . S
O335 Cd324 2.439 . S
O335 C329 1.208 . S
O336 Cd337 2.223 . S
O336 C344 1.315 . S
Cd337 O336 2.223 . S
Cd337 O340 2.297 . S
Cd337 O341 2.439 . S
Cd337 O347 2.240 . S
Cd338 O339 2.240 . S
Cd338 O346 2.223 . S
Cd338 O348 2.297 . S
Cd338 O349 2.439 . S
O339 Cd338 2.240 . S
O339 C344 1.279 . S
O340 Cd337 2.297 . S
O340 C342 1.247 . S
O341 Cd337 2.439 . S
O341 C342 1.208 . S
C342 O340 1.247 . S
C342 O341 1.208 . S
C343 O348 1.247 . S
C343 O349 1.208 . S
C344 O336 1.315 . S
C344 O339 1.279 . S
C345 O346 1.315 . S
C345 O347 1.279 . S
O346 Cd338 2.223 . S
O346 C345 1.315 . S
O347 Cd337 2.240 . S
O347 C345 1.279 . S
O348 Cd338 2.297 . S
O348 C343 1.247 . S
O349 Cd338 2.439 . S
O349 C343 1.208 . S
O350 Cd351 2.223 . S
O350 C358 1.315 . S
Cd351 O350 2.223 . S
Cd351 O354 2.297 . S
Cd351 O355 2.439 . S
Cd351 O361 2.240 . S
Cd352 O353 2.240 . S
Cd352 O360 2.223 . S
Cd352 O362 2.297 . S
Cd352 O363 2.439 . S
O353 Cd352 2.240 . S
O353 C358 1.279 . S
O354 Cd351 2.297 . S
O354 C356 1.247 . S
O355 Cd351 2.439 . S
O355 C356 1.208 . S
C356 O354 1.247 . S
C356 O355 1.208 . S
C357 O362 1.247 . S
C357 O363 1.208 . S
C358 O350 1.315 . S
C358 O353 1.279 . S
C359 O360 1.315 . S
C359 O361 1.279 . S
O360 Cd352 2.223 . S
O360 C359 1.315 . S
O361 Cd351 2.240 . S
O361 C359 1.279 . S
O362 Cd352 2.297 . S
O362 C357 1.247 . S
O363 Cd352 2.439 . S
O363 C357 1.208 . S
O364 Cd365 2.223 . S
O364 C372 1.315 . S
Cd365 O364 2.223 . S
Cd365 O368 2.297 . S
Cd365 O369 2.439 . S
Cd365 O375 2.240 . S
Cd366 O367 2.240 . S
Cd366 O374 2.223 . S
Cd366 O376 2.297 . S
Cd366 O377 2.439 . S
O367 Cd366 2.240 . S
O367 C372 1.279 . S
O368 Cd365 2.297 . S
O368 C370 1.247 . S
O369 Cd365 2.439 . S
O369 C370 1.208 . S
C370 O368 1.247 . S
C370 O369 1.208 . S
C371 O376 1.247 . S
C371 O377 1.208 . S
C372 O364 1.315 . S
C372 O367 1.279 . S
C373 O374 1.315 . S
C373 O375 1.279 . S
O374 Cd366 2.223 . S
O374 C373 1.315 . S
O375 Cd365 2.240 . S
O375 C373 1.279 . S
O376 Cd366 2.297 . S
O376 C371 1.247 . S
O377 Cd366 2.439 . S
O377 C371 1.208 . S
O378 Cd379 2.223 . S
O378 C386 1.315 . S
Cd379 O378 2.223 . S
Cd379 O382 2.297 . S
Cd379 O383 2.439 . S
Cd379 O389 2.240 . S
Cd380 O381 2.240 . S
Cd380 O388 2.223 . S
Cd380 O390 2.297 . S
Cd380 O391 2.439 . S
O381 Cd380 2.240 . S
O381 C386 1.279 . S
O382 Cd379 2.297 . S
O382 C384 1.247 . S
O383 Cd379 2.439 . S
O383 C384 1.208 . S
C384 O382 1.247 . S
C384 O383 1.208 . S
C385 O390 1.247 . S
C385 O391 1.208 . S
C386 O378 1.315 . S
C386 O381 1.279 . S
C387 O388 1.315 . S
C387 O389 1.279 . S
O388 Cd380 2.223 . S
O388 C387 1.315 . S
O389 Cd379 2.240 . S
O389 C387 1.279 . S
O390 Cd380 2.297 . S
O390 C385 1.247 . S
O391 Cd380 2.439 . S
O391 C385 1.208 . S
O392 Cd393 2.223 . S
O392 C400 1.315 . S
Cd393 O392 2.223 . S
Cd393 O396 2.297 . S
Cd393 O397 2.439 . S
Cd393 O403 2.240 . S
Cd394 O395 2.240 . S
Cd394 O402 2.223 . S
Cd394 O404 2.297 . S
Cd394 O405 2.439 . S
O395 Cd394 2.240 . S
O395 C400 1.279 . S
O396 Cd393 2.297 . S
O396 C398 1.247 . S
O397 Cd393 2.439 . S
O397 C398 1.208 . S
C398 O396 1.247 . S
C398 O397 1.208 . S
C399 O404 1.247 . S
C399 O405 1.208 . S
C400 O392 1.315 . S
C400 O395 1.279 . S
C401 O402 1.315 . S
C401 O403 1.279 . S
O402 Cd394 2.223 . S
O402 C401 1.315 . S
O403 Cd393 2.240 . S
O403 C401 1.279 . S
O404 Cd394 2.297 . S
O404 C399 1.247 . S
O405 Cd394 2.439 . S
O405 C399 1.208 . S
O406 Cd407 2.223 . S
O406 C414 1.315 . S
Cd407 O406 2.223 . S
Cd407 O410 2.297 . S
Cd407 O411 2.439 . S
Cd407 O417 2.240 . S
Cd408 O409 2.240 . S
Cd408 O416 2.223 . S
Cd408 O418 2.297 . S
Cd408 O419 2.439 . S
O409 Cd408 2.240 . S
O409 C414 1.279 . S
O410 Cd407 2.297 . S
O410 C412 1.247 . S
O411 Cd407 2.439 . S
O411 C412 1.208 . S
C412 O410 1.247 . S
C412 O411 1.208 . S
C413 O418 1.247 . S
C413 O419 1.208 . S
C414 O406 1.315 . S
C414 O409 1.279 . S
C415 O416 1.315 . S
C415 O417 1.279 . S
O416 Cd408 2.223 . S
O416 C415 1.315 . S
O417 Cd407 2.240 . S
O417 C415 1.279 . S
O418 Cd408 2.297 . S
O418 C413 1.247 . S
O419 Cd408 2.439 . S
O419 C413 1.208 . S
O420 Cd421 2.223 . S
O420 C428 1.315 . S
Cd421 O420 2.223 . S
Cd421 O424 2.297 . S
Cd421 O425 2.439 . S
Cd421 O431 2.240 . S
Cd422 O423 2.240 . S
Cd422 O430 2.223 . S
Cd422 O432 2.297 . S
Cd422 O433 2.439 . S
O423 Cd422 2.240 . S
O423 C428 1.279 . S
O424 Cd421 2.297 . S
O424 C426 1.247 . S
O425 Cd421 2.439 . S
O425 C426 1.208 . S
C426 O424 1.247 . S
C426 O425 1.208 . S
C427 O432 1.247 . S
C427 O433 1.208 . S
C428 O420 1.315 . S
C428 O423 1.279 . S
C429 O430 1.315 . S
C429 O431 1.279 . S
O430 Cd422 2.223 . S
O430 C429 1.315 . S
O431 Cd421 2.240 . S
O431 C429 1.279 . S
O432 Cd422 2.297 . S
O432 C427 1.247 . S
O433 Cd422 2.439 . S
O433 C427 1.208 . S
O434 Cd435 2.223 . S
O434 C442 1.315 . S
Cd435 O434 2.223 . S
Cd435 O438 2.297 . S
Cd435 O439 2.439 . S
Cd435 O445 2.240 . S
Cd436 O437 2.240 . S
Cd436 O444 2.223 . S
Cd436 O446 2.297 . S
Cd436 O447 2.439 . S
O437 Cd436 2.240 . S
O437 C442 1.279 . S
O438 Cd435 2.297 . S
O438 C440 1.247 . S
O439 Cd435 2.439 . S
O439 C440 1.208 . S
C440 O438 1.247 . S
C440 O439 1.208 . S
C441 O446 1.247 . S
C441 O447 1.208 . S
C442 O434 1.315 . S
C442 O437 1.279 . S
C443 O444 1.315 . S
C443 O445 1.279 . S
O444 Cd436 2.223 . S
O444 C443 1.315 . S
O445 Cd435 2.240 . S
O445 C443 1.279 . S
O446 Cd436 2.297 . S
O446 C441 1.247 . S
O447 Cd436 2.439 . S
O447 C441 1.208 . S
H448 C466 0.951 . S
H449 C468 0.951 . S
H450 C470 0.950 . S
H451 C471 0.950 . S
H452 C473 0.950 . S
H453 C476 0.950 . S
H454 C477 0.950 . S
H455 C479 0.950 . S
H456 C480 0.950 . S
H457 C481 0.951 . S
H458 C483 0.951 . S
H459 C485 0.950 . S
H460 C486 0.950 . S
H461 C488 0.950 . S
H462 C491 0.950 . S
H463 C492 0.950 . S
H464 C494 0.950 . S
H465 C495 0.950 . S
C466 H448 0.951 . S
C466 C467 1.366 . S
C466 C468 1.388 . S
C467 C466 1.366 . S
C467 C471 1.385 . S
C468 H449 0.951 . S
C468 C466 1.388 . S
C468 C469 1.366 . S
C469 C468 1.366 . S
C469 C470 1.414 . S
C469 C472 1.499 . S
C470 H450 0.950 . S
C470 C469 1.414 . S
C470 C471 1.374 . S
C471 H451 0.950 . S
C471 C467 1.385 . S
C471 C470 1.374 . S
C472 C469 1.499 . S
C472 C473 1.373 . S
C472 C474 1.389 . S
C473 H452 0.950 . S
C473 C472 1.373 . S
C473 C489 1.377 . S
C474 C472 1.389 . S
C474 C475 1.524 . S
C474 C488 1.377 . S
C475 C474 1.524 . S
C475 C476 1.397 . S
C475 C480 1.363 . S
C476 H453 0.950 . S
C476 C475 1.397 . S
C476 C477 1.334 . S
C477 H454 0.950 . S
C477 C476 1.334 . S
C477 C478 1.287 . S
C478 C477 1.287 . S
C478 C479 1.524 . S
C478 H497 0.913 . S
C479 H455 0.950 . S
C479 C478 1.524 . S
C479 C480 1.415 . S
C480 H456 0.950 . S
C480 C475 1.363 . S
C480 C479 1.415 . S
C481 H457 0.951 . S
C481 C482 1.366 . S
C481 C483 1.388 . S
C482 C481 1.366 . S
C482 C486 1.385 . S
C483 H458 0.951 . S
C483 C481 1.388 . S
C483 C484 1.366 . S
C484 C483 1.366 . S
C484 C485 1.414 . S
C484 C487 1.499 . S
C485 H459 0.950 . S
C485 C484 1.414 . S
C485 C486 1.374 . S
C486 H460 0.950 . S
C486 C482 1.385 . S
C486 C485 1.374 . S
C487 C484 1.499 . S
C487 C488 1.373 . S
C487 C489 1.389 . S
C488 H461 0.950 . S
C488 C474 1.377 . S
C488 C487 1.373 . S
C489 C473 1.377 . S
C489 C487 1.389 . S
C489 C490 1.524 . S
C490 C489 1.524 . S
C490 C491 1.397 . S
C490 C495 1.363 . S
C491 H462 0.950 . S
C491 C490 1.397 . S
C491 C492 1.334 . S
C492 H463 0.950 . S
C492 C491 1.334 . S
C492 C493 1.287 . S
C493 C492 1.287 . S
C493 C494 1.524 . S
C493 H496 0.999 . S
C494 H464 0.950 . S
C494 C493 1.524 . S
C494 C495 1.415 . S
C495 H465 0.950 . S
C495 C490 1.363 . S
C495 C494 1.415 . S
H496 C493 0.999 . S
H497 C478 0.913 . S
H498 C516 0.951 . S
H499 C518 0.951 . S
H500 C520 0.950 . S
H501 C521 0.950 . S
H502 C523 0.950 . S
H503 C526 0.950 . S
H504 C527 0.950 . S
H505 C529 0.950 . S
H506 C530 0.950 . S
H507 C531 0.951 . S
H508 C533 0.951 . S
H509 C535 0.950 . S
H510 C536 0.950 . S
H511 C538 0.950 . S
H512 C541 0.950 . S
H513 C542 0.950 . S
H514 C544 0.950 . S
H515 C545 0.950 . S
C516 H498 0.951 . S
C516 C517 1.366 . S
C516 C518 1.388 . S
C517 C516 1.366 . S
C517 C521 1.385 . S
C518 H499 0.951 . S
C518 C516 1.388 . S
C518 C519 1.366 . S
C519 C518 1.366 . S
C519 C520 1.414 . S
C519 C522 1.499 . S
C520 H500 0.950 . S
C520 C519 1.414 . S
C520 C521 1.374 . S
C521 H501 0.950 . S
C521 C517 1.385 . S
C521 C520 1.374 . S
C522 C519 1.499 . S
C522 C523 1.373 . S
C522 C524 1.389 . S
C523 H502 0.950 . S
C523 C522 1.373 . S
C523 C539 1.377 . S
C524 C522 1.389 . S
C524 C525 1.524 . S
C524 C538 1.377 . S
C525 C524 1.524 . S
C525 C526 1.397 . S
C525 C530 1.363 . S
C526 H503 0.950 . S
C526 C525 1.397 . S
C526 C527 1.334 . S
C527 H504 0.950 . S
C527 C526 1.334 . S
C527 C528 1.287 . S
C528 C527 1.287 . S
C528 C529 1.524 . S
C528 H547 0.913 . S
C529 H505 0.950 . S
C529 C528 1.524 . S
C529 C530 1.415 . S
C530 H506 0.950 . S
C530 C525 1.363 . S
C530 C529 1.415 . S
C531 H507 0.951 . S
C531 C532 1.366 . S
C531 C533 1.388 . S
C532 C531 1.366 . S
C532 C536 1.385 . S
C533 H508 0.951 . S
C533 C531 1.388 . S
C533 C534 1.366 . S
C534 C533 1.366 . S
C534 C535 1.414 . S
C534 C537 1.499 . S
C535 H509 0.950 . S
C535 C534 1.414 . S
C535 C536 1.374 . S
C536 H510 0.950 . S
C536 C532 1.385 . S
C536 C535 1.374 . S
C537 C534 1.499 . S
C537 C538 1.373 . S
C537 C539 1.389 . S
C538 H511 0.950 . S
C538 C524 1.377 . S
C538 C537 1.373 . S
C539 C523 1.377 . S
C539 C537 1.389 . S
C539 C540 1.524 . S
C540 C539 1.524 . S
C540 C541 1.397 . S
C540 C545 1.363 . S
C541 H512 0.950 . S
C541 C540 1.397 . S
C541 C542 1.334 . S
C542 H513 0.950 . S
C542 C541 1.334 . S
C542 C543 1.287 . S
C543 C542 1.287 . S
C543 C544 1.524 . S
C543 H546 0.999 . S
C544 H514 0.950 . S
C544 C543 1.524 . S
C544 C545 1.415 . S
C545 H515 0.950 . S
C545 C540 1.363 . S
C545 C544 1.415 . S
H546 C543 0.999 . S
H547 C528 0.913 . S
H548 C566 0.951 . S
H549 C568 0.951 . S
H550 C570 0.950 . S
H551 C571 0.950 . S
H552 C573 0.950 . S
H553 C576 0.950 . S
H554 C577 0.950 . S
H555 C579 0.950 . S
H556 C580 0.950 . S
H557 C581 0.951 . S
H558 C583 0.951 . S
H559 C585 0.950 . S
H560 C586 0.950 . S
H561 C588 0.950 . S
H562 C591 0.950 . S
H563 C592 0.950 . S
H564 C594 0.950 . S
H565 C595 0.950 . S
C566 H548 0.951 . S
C566 C567 1.366 . S
C566 C568 1.388 . S
C567 C566 1.366 . S
C567 C571 1.385 . S
C568 H549 0.951 . S
C568 C566 1.388 . S
C568 C569 1.366 . S
C569 C568 1.366 . S
C569 C570 1.414 . S
C569 C572 1.499 . S
C570 H550 0.950 . S
C570 C569 1.414 . S
C570 C571 1.374 . S
C571 H551 0.950 . S
C571 C567 1.385 . S
C571 C570 1.374 . S
C572 C569 1.499 . S
C572 C573 1.373 . S
C572 C574 1.389 . S
C573 H552 0.950 . S
C573 C572 1.373 . S
C573 C589 1.377 . S
C574 C572 1.389 . S
C574 C575 1.524 . S
C574 C588 1.377 . S
C575 C574 1.524 . S
C575 C576 1.397 . S
C575 C580 1.363 . S
C576 H553 0.950 . S
C576 C575 1.397 . S
C576 C577 1.334 . S
C577 H554 0.950 . S
C577 C576 1.334 . S
C577 C578 1.287 . S
C578 C577 1.287 . S
C578 C579 1.524 . S
C578 H597 0.913 . S
C579 H555 0.950 . S
C579 C578 1.524 . S
C579 C580 1.415 . S
C580 H556 0.950 . S
C580 C575 1.363 . S
C580 C579 1.415 . S
C581 H557 0.951 . S
C581 C582 1.366 . S
C581 C583 1.388 . S
C582 C581 1.366 . S
C582 C586 1.385 . S
C583 H558 0.951 . S
C583 C581 1.388 . S
C583 C584 1.366 . S
C584 C583 1.366 . S
C584 C585 1.414 . S
C584 C587 1.499 . S
C585 H559 0.950 . S
C585 C584 1.414 . S
C585 C586 1.374 . S
C586 H560 0.950 . S
C586 C582 1.385 . S
C586 C585 1.374 . S
C587 C584 1.499 . S
C587 C588 1.373 . S
C587 C589 1.389 . S
C588 H561 0.950 . S
C588 C574 1.377 . S
C588 C587 1.373 . S
C589 C573 1.377 . S
C589 C587 1.389 . S
C589 C590 1.524 . S
C590 C589 1.524 . S
C590 C591 1.397 . S
C590 C595 1.363 . S
C591 H562 0.950 . S
C591 C590 1.397 . S
C591 C592 1.334 . S
C592 H563 0.950 . S
C592 C591 1.334 . S
C592 C593 1.287 . S
C593 C592 1.287 . S
C593 C594 1.524 . S
C593 H596 0.999 . S
C594 H564 0.950 . S
C594 C593 1.524 . S
C594 C595 1.415 . S
C595 H565 0.950 . S
C595 C590 1.363 . S
C595 C594 1.415 . S
H596 C593 0.999 . S
H597 C578 0.913 . S
H598 C616 0.951 . S
H599 C618 0.951 . S
H600 C620 0.950 . S
H601 C621 0.950 . S
H602 C623 0.950 . S
H603 C626 0.950 . S
H604 C627 0.950 . S
H605 C629 0.950 . S
H606 C630 0.950 . S
H607 C631 0.951 . S
H608 C633 0.951 . S
H609 C635 0.950 . S
H610 C636 0.950 . S
H611 C638 0.950 . S
H612 C641 0.950 . S
H613 C642 0.950 . S
H614 C644 0.950 . S
H615 C645 0.950 . S
C616 H598 0.951 . S
C616 C617 1.366 . S
C616 C618 1.388 . S
C617 C616 1.366 . S
C617 C621 1.385 . S
C618 H599 0.951 . S
C618 C616 1.388 . S
C618 C619 1.366 . S
C619 C618 1.366 . S
C619 C620 1.414 . S
C619 C622 1.499 . S
C620 H600 0.950 . S
C620 C619 1.414 . S
C620 C621 1.374 . S
C621 H601 0.950 . S
C621 C617 1.385 . S
C621 C620 1.374 . S
C622 C619 1.499 . S
C622 C623 1.373 . S
C622 C624 1.389 . S
C623 H602 0.950 . S
C623 C622 1.373 . S
C623 C639 1.377 . S
C624 C622 1.389 . S
C624 C625 1.524 . S
C624 C638 1.377 . S
C625 C624 1.524 . S
C625 C626 1.397 . S
C625 C630 1.363 . S
C626 H603 0.950 . S
C626 C625 1.397 . S
C626 C627 1.334 . S
C627 H604 0.950 . S
C627 C626 1.334 . S
C627 C628 1.287 . S
C628 C627 1.287 . S
C628 C629 1.524 . S
C628 H647 0.913 . S
C629 H605 0.950 . S
C629 C628 1.524 . S
C629 C630 1.415 . S
C630 H606 0.950 . S
C630 C625 1.363 . S
C630 C629 1.415 . S
C631 H607 0.951 . S
C631 C632 1.366 . S
C631 C633 1.388 . S
C632 C631 1.366 . S
C632 C636 1.385 . S
C633 H608 0.951 . S
C633 C631 1.388 . S
C633 C634 1.366 . S
C634 C633 1.366 . S
C634 C635 1.414 . S
C634 C637 1.499 . S
C635 H609 0.950 . S
C635 C634 1.414 . S
C635 C636 1.374 . S
C636 H610 0.950 . S
C636 C632 1.385 . S
C636 C635 1.374 . S
C637 C634 1.499 . S
C637 C638 1.373 . S
C637 C639 1.389 . S
C638 H611 0.950 . S
C638 C624 1.377 . S
C638 C637 1.373 . S
C639 C623 1.377 . S
C639 C637 1.389 . S
C639 C640 1.524 . S
C640 C639 1.524 . S
C640 C641 1.397 . S
C640 C645 1.363 . S
C641 H612 0.950 . S
C641 C640 1.397 . S
C641 C642 1.334 . S
C642 H613 0.950 . S
C642 C641 1.334 . S
C642 C643 1.287 . S
C643 C642 1.287 . S
C643 C644 1.524 . S
C643 H646 0.999 . S
C644 H614 0.950 . S
C644 C643 1.524 . S
C644 C645 1.415 . S
C645 H615 0.950 . S
C645 C640 1.363 . S
C645 C644 1.415 . S
H646 C643 0.999 . S
H647 C628 0.913 . S
H648 C666 0.951 . S
H649 C668 0.951 . S
H650 C670 0.950 . S
H651 C671 0.950 . S
H652 C673 0.950 . S
H653 C676 0.950 . S
H654 C677 0.950 . S
H655 C679 0.950 . S
H656 C680 0.950 . S
H657 C681 0.951 . S
H658 C683 0.951 . S
H659 C685 0.950 . S
H660 C686 0.950 . S
H661 C688 0.950 . S
H662 C691 0.950 . S
H663 C692 0.950 . S
H664 C694 0.950 . S
H665 C695 0.950 . S
C666 H648 0.951 . S
C666 C667 1.366 . S
C666 C668 1.388 . S
C667 C666 1.366 . S
C667 C671 1.385 . S
C668 H649 0.951 . S
C668 C666 1.388 . S
C668 C669 1.366 . S
C669 C668 1.366 . S
C669 C670 1.414 . S
C669 C672 1.499 . S
C670 H650 0.950 . S
C670 C669 1.414 . S
C670 C671 1.374 . S
C671 H651 0.950 . S
C671 C667 1.385 . S
C671 C670 1.374 . S
C672 C669 1.499 . S
C672 C673 1.373 . S
C672 C674 1.389 . S
C673 H652 0.950 . S
C673 C672 1.373 . S
C673 C689 1.377 . S
C674 C672 1.389 . S
C674 C675 1.524 . S
C674 C688 1.377 . S
C675 C674 1.524 . S
C675 C676 1.397 . S
C675 C680 1.363 . S
C676 H653 0.950 . S
C676 C675 1.397 . S
C676 C677 1.334 . S
C677 H654 0.950 . S
C677 C676 1.334 . S
C677 C678 1.287 . S
C678 C677 1.287 . S
C678 C679 1.524 . S
C678 H697 0.913 . S
C679 H655 0.950 . S
C679 C678 1.524 . S
C679 C680 1.415 . S
C680 H656 0.950 . S
C680 C675 1.363 . S
C680 C679 1.415 . S
C681 H657 0.951 . S
C681 C682 1.366 . S
C681 C683 1.388 . S
C682 C681 1.366 . S
C682 C686 1.385 . S
C683 H658 0.951 . S
C683 C681 1.388 . S
C683 C684 1.366 . S
C684 C683 1.366 . S
C684 C685 1.414 . S
C684 C687 1.499 . S
C685 H659 0.950 . S
C685 C684 1.414 . S
C685 C686 1.374 . S
C686 H660 0.950 . S
C686 C682 1.385 . S
C686 C685 1.374 . S
C687 C684 1.499 . S
C687 C688 1.373 . S
C687 C689 1.389 . S
C688 H661 0.950 . S
C688 C674 1.377 . S
C688 C687 1.373 . S
C689 C673 1.377 . S
C689 C687 1.389 . S
C689 C690 1.524 . S
C690 C689 1.524 . S
C690 C691 1.397 . S
C690 C695 1.363 . S
C691 H662 0.950 . S
C691 C690 1.397 . S
C691 C692 1.334 . S
C692 H663 0.950 . S
C692 C691 1.334 . S
C692 C693 1.287 . S
C693 C692 1.287 . S
C693 C694 1.524 . S
C693 H696 0.999 . S
C694 H664 0.950 . S
C694 C693 1.524 . S
C694 C695 1.415 . S
C695 H665 0.950 . S
C695 C690 1.363 . S
C695 C694 1.415 . S
H696 C693 0.999 . S
H697 C678 0.913 . S
H698 C716 0.951 . S
H699 C718 0.951 . S
H700 C720 0.950 . S
H701 C721 0.950 . S
H702 C723 0.950 . S
H703 C726 0.950 . S
H704 C727 0.950 . S
H705 C729 0.950 . S
H706 C730 0.950 . S
H707 C731 0.951 . S
H708 C733 0.951 . S
H709 C735 0.950 . S
H710 C736 0.950 . S
H711 C738 0.950 . S
H712 C741 0.950 . S
H713 C742 0.950 . S
H714 C744 0.950 . S
H715 C745 0.950 . S
C716 H698 0.951 . S
C716 C717 1.366 . S
C716 C718 1.388 . S
C717 C716 1.366 . S
C717 C721 1.385 . S
C718 H699 0.951 . S
C718 C716 1.388 . S
C718 C719 1.366 . S
C719 C718 1.366 . S
C719 C720 1.414 . S
C719 C722 1.499 . S
C720 H700 0.950 . S
C720 C719 1.414 . S
C720 C721 1.374 . S
C721 H701 0.950 . S
C721 C717 1.385 . S
C721 C720 1.374 . S
C722 C719 1.499 . S
C722 C723 1.373 . S
C722 C724 1.389 . S
C723 H702 0.950 . S
C723 C722 1.373 . S
C723 C739 1.377 . S
C724 C722 1.389 . S
C724 C725 1.524 . S
C724 C738 1.377 . S
C725 C724 1.524 . S
C725 C726 1.397 . S
C725 C730 1.363 . S
C726 H703 0.950 . S
C726 C725 1.397 . S
C726 C727 1.334 . S
C727 H704 0.950 . S
C727 C726 1.334 . S
C727 C728 1.287 . S
C728 C727 1.287 . S
C728 C729 1.524 . S
C728 H747 0.913 . S
C729 H705 0.950 . S
C729 C728 1.524 . S
C729 C730 1.415 . S
C730 H706 0.950 . S
C730 C725 1.363 . S
C730 C729 1.415 . S
C731 H707 0.951 . S
C731 C732 1.366 . S
C731 C733 1.388 . S
C732 C731 1.366 . S
C732 C736 1.385 . S
C733 H708 0.951 . S
C733 C731 1.388 . S
C733 C734 1.366 . S
C734 C733 1.366 . S
C734 C735 1.414 . S
C734 C737 1.499 . S
C735 H709 0.950 . S
C735 C734 1.414 . S
C735 C736 1.374 . S
C736 H710 0.950 . S
C736 C732 1.385 . S
C736 C735 1.374 . S
C737 C734 1.499 . S
C737 C738 1.373 . S
C737 C739 1.389 . S
C738 H711 0.950 . S
C738 C724 1.377 . S
C738 C737 1.373 . S
C739 C723 1.377 . S
C739 C737 1.389 . S
C739 C740 1.524 . S
C740 C739 1.524 . S
C740 C741 1.397 . S
C740 C745 1.363 . S
C741 H712 0.950 . S
C741 C740 1.397 . S
C741 C742 1.334 . S
C742 H713 0.950 . S
C742 C741 1.334 . S
C742 C743 1.287 . S
C743 C742 1.287 . S
C743 C744 1.524 . S
C743 H746 0.999 . S
C744 H714 0.950 . S
C744 C743 1.524 . S
C744 C745 1.415 . S
C745 H715 0.950 . S
C745 C740 1.363 . S
C745 C744 1.415 . S
H746 C743 0.999 . S
H747 C728 0.913 . S
H748 C766 0.951 . S
H749 C768 0.951 . S
H750 C770 0.950 . S
H751 C771 0.950 . S
H752 C773 0.950 . S
H753 C776 0.950 . S
H754 C777 0.950 . S
H755 C779 0.950 . S
H756 C780 0.950 . S
H757 C781 0.951 . S
H758 C783 0.951 . S
H759 C785 0.950 . S
H760 C786 0.950 . S
H761 C788 0.950 . S
H762 C791 0.950 . S
H763 C792 0.950 . S
H764 C794 0.950 . S
H765 C795 0.950 . S
C766 H748 0.951 . S
C766 C767 1.366 . S
C766 C768 1.388 . S
C767 C766 1.366 . S
C767 C771 1.385 . S
C768 H749 0.951 . S
C768 C766 1.388 . S
C768 C769 1.366 . S
C769 C768 1.366 . S
C769 C770 1.414 . S
C769 C772 1.499 . S
C770 H750 0.950 . S
C770 C769 1.414 . S
C770 C771 1.374 . S
C771 H751 0.950 . S
C771 C767 1.385 . S
C771 C770 1.374 . S
C772 C769 1.499 . S
C772 C773 1.373 . S
C772 C774 1.389 . S
C773 H752 0.950 . S
C773 C772 1.373 . S
C773 C789 1.377 . S
C774 C772 1.389 . S
C774 C775 1.524 . S
C774 C788 1.377 . S
C775 C774 1.524 . S
C775 C776 1.397 . S
C775 C780 1.363 . S
C776 H753 0.950 . S
C776 C775 1.397 . S
C776 C777 1.334 . S
C777 H754 0.950 . S
C777 C776 1.334 . S
C777 C778 1.287 . S
C778 C777 1.287 . S
C778 C779 1.524 . S
C778 H797 0.913 . S
C779 H755 0.950 . S
C779 C778 1.524 . S
C779 C780 1.415 . S
C780 H756 0.950 . S
C780 C775 1.363 . S
C780 C779 1.415 . S
C781 H757 0.951 . S
C781 C782 1.366 . S
C781 C783 1.388 . S
C782 C781 1.366 . S
C782 C786 1.385 . S
C783 H758 0.951 . S
C783 C781 1.388 . S
C783 C784 1.366 . S
C784 C783 1.366 . S
C784 C785 1.414 . S
C784 C787 1.499 . S
C785 H759 0.950 . S
C785 C784 1.414 . S
C785 C786 1.374 . S
C786 H760 0.950 . S
C786 C782 1.385 . S
C786 C785 1.374 . S
C787 C784 1.499 . S
C787 C788 1.373 . S
C787 C789 1.389 . S
C788 H761 0.950 . S
C788 C774 1.377 . S
C788 C787 1.373 . S
C789 C773 1.377 . S
C789 C787 1.389 . S
C789 C790 1.524 . S
C790 C789 1.524 . S
C790 C791 1.397 . S
C790 C795 1.363 . S
C791 H762 0.950 . S
C791 C790 1.397 . S
C791 C792 1.334 . S
C792 H763 0.950 . S
C792 C791 1.334 . S
C792 C793 1.287 . S
C793 C792 1.287 . S
C793 C794 1.524 . S
C793 H796 0.999 . S
C794 H764 0.950 . S
C794 C793 1.524 . S
C794 C795 1.415 . S
C795 H765 0.950 . S
C795 C790 1.363 . S
C795 C794 1.415 . S
H796 C793 0.999 . S
H797 C778 0.913 . S
H798 C816 0.951 . S
H799 C818 0.951 . S
H800 C820 0.950 . S
H801 C821 0.950 . S
H802 C823 0.950 . S
H803 C826 0.950 . S
H804 C827 0.950 . S
H805 C829 0.950 . S
H806 C830 0.950 . S
H807 C831 0.951 . S
H808 C833 0.951 . S
H809 C835 0.950 . S
H810 C836 0.950 . S
H811 C838 0.950 . S
H812 C841 0.950 . S
H813 C842 0.950 . S
H814 C844 0.950 . S
H815 C845 0.950 . S
C816 H798 0.951 . S
C816 C817 1.366 . S
C816 C818 1.388 . S
C817 C816 1.366 . S
C817 C821 1.385 . S
C818 H799 0.951 . S
C818 C816 1.388 . S
C818 C819 1.366 . S
C819 C818 1.366 . S
C819 C820 1.414 . S
C819 C822 1.499 . S
C820 H800 0.950 . S
C820 C819 1.414 . S
C820 C821 1.374 . S
C821 H801 0.950 . S
C821 C817 1.385 . S
C821 C820 1.374 . S
C822 C819 1.499 . S
C822 C823 1.373 . S
C822 C824 1.389 . S
C823 H802 0.950 . S
C823 C822 1.373 . S
C823 C839 1.377 . S
C824 C822 1.389 . S
C824 C825 1.524 . S
C824 C838 1.377 . S
C825 C824 1.524 . S
C825 C826 1.397 . S
C825 C830 1.363 . S
C826 H803 0.950 . S
C826 C825 1.397 . S
C826 C827 1.334 . S
C827 H804 0.950 . S
C827 C826 1.334 . S
C827 C828 1.287 . S
C828 C827 1.287 . S
C828 C829 1.524 . S
C828 H847 0.913 . S
C829 H805 0.950 . S
C829 C828 1.524 . S
C829 C830 1.415 . S
C830 H806 0.950 . S
C830 C825 1.363 . S
C830 C829 1.415 . S
C831 H807 0.951 . S
C831 C832 1.366 . S
C831 C833 1.388 . S
C832 C831 1.366 . S
C832 C836 1.385 . S
C833 H808 0.951 . S
C833 C831 1.388 . S
C833 C834 1.366 . S
C834 C833 1.366 . S
C834 C835 1.414 . S
C834 C837 1.499 . S
C835 H809 0.950 . S
C835 C834 1.414 . S
C835 C836 1.374 . S
C836 H810 0.950 . S
C836 C832 1.385 . S
C836 C835 1.374 . S
C837 C834 1.499 . S
C837 C838 1.373 . S
C837 C839 1.389 . S
C838 H811 0.950 . S
C838 C824 1.377 . S
C838 C837 1.373 . S
C839 C823 1.377 . S
C839 C837 1.389 . S
C839 C840 1.524 . S
C840 C839 1.524 . S
C840 C841 1.397 . S
C840 C845 1.363 . S
C841 H812 0.950 . S
C841 C840 1.397 . S
C841 C842 1.334 . S
C842 H813 0.950 . S
C842 C841 1.334 . S
C842 C843 1.287 . S
C843 C842 1.287 . S
C843 C844 1.524 . S
C843 H846 0.999 . S
C844 H814 0.950 . S
C844 C843 1.524 . S
C844 C845 1.415 . S
C845 H815 0.950 . S
C845 C840 1.363 . S
C845 C844 1.415 . S
H846 C843 0.999 . S
H847 C828 0.913 . S
H848 C866 0.951 . S
H849 C868 0.951 . S
H850 C870 0.950 . S
H851 C871 0.950 . S
H852 C873 0.950 . S
H853 C876 0.950 . S
H854 C877 0.950 . S
H855 C879 0.950 . S
H856 C880 0.950 . S
H857 C881 0.951 . S
H858 C883 0.951 . S
H859 C885 0.950 . S
H860 C886 0.950 . S
H861 C888 0.950 . S
H862 C891 0.950 . S
H863 C892 0.950 . S
H864 C894 0.950 . S
H865 C895 0.950 . S
C866 H848 0.951 . S
C866 C867 1.366 . S
C866 C868 1.388 . S
C867 C866 1.366 . S
C867 C871 1.385 . S
C868 H849 0.951 . S
C868 C866 1.388 . S
C868 C869 1.366 . S
C869 C868 1.366 . S
C869 C870 1.414 . S
C869 C872 1.499 . S
C870 H850 0.950 . S
C870 C869 1.414 . S
C870 C871 1.374 . S
C871 H851 0.950 . S
C871 C867 1.385 . S
C871 C870 1.374 . S
C872 C869 1.499 . S
C872 C873 1.373 . S
C872 C874 1.389 . S
C873 H852 0.950 . S
C873 C872 1.373 . S
C873 C889 1.377 . S
C874 C872 1.389 . S
C874 C875 1.524 . S
C874 C888 1.377 . S
C875 C874 1.524 . S
C875 C876 1.397 . S
C875 C880 1.363 . S
C876 H853 0.950 . S
C876 C875 1.397 . S
C876 C877 1.334 . S
C877 H854 0.950 . S
C877 C876 1.334 . S
C877 C878 1.287 . S
C878 C877 1.287 . S
C878 C879 1.524 . S
C878 H897 0.913 . S
C879 H855 0.950 . S
C879 C878 1.524 . S
C879 C880 1.415 . S
C880 H856 0.950 . S
C880 C875 1.363 . S
C880 C879 1.415 . S
C881 H857 0.951 . S
C881 C882 1.366 . S
C881 C883 1.388 . S
C882 C881 1.366 . S
C882 C886 1.385 . S
C883 H858 0.951 . S
C883 C881 1.388 . S
C883 C884 1.366 . S
C884 C883 1.366 . S
C884 C885 1.414 . S
C884 C887 1.499 . S
C885 H859 0.950 . S
C885 C884 1.414 . S
C885 C886 1.374 . S
C886 H860 0.950 . S
C886 C882 1.385 . S
C886 C885 1.374 . S
C887 C884 1.499 . S
C887 C888 1.373 . S
C887 C889 1.389 . S
C888 H861 0.950 . S
C888 C874 1.377 . S
C888 C887 1.373 . S
C889 C873 1.377 . S
C889 C887 1.389 . S
C889 C890 1.524 . S
C890 C889 1.524 . S
C890 C891 1.397 . S
C890 C895 1.363 . S
C891 H862 0.950 . S
C891 C890 1.397 . S
C891 C892 1.334 . S
C892 H863 0.950 . S
C892 C891 1.334 . S
C892 C893 1.287 . S
C893 C892 1.287 . S
C893 C894 1.524 . S
C893 H896 0.999 . S
C894 H864 0.950 . S
C894 C893 1.524 . S
C894 C895 1.415 . S
C895 H865 0.950 . S
C895 C890 1.363 . S
C895 C894 1.415 . S
H896 C893 0.999 . S
H897 C878 0.913 . S
H898 C916 0.951 . S
H899 C918 0.951 . S
H900 C920 0.950 . S
H901 C921 0.950 . S
H902 C923 0.950 . S
H903 C926 0.950 . S
H904 C927 0.950 . S
H905 C929 0.950 . S
H906 C930 0.950 . S
H907 C931 0.951 . S
H908 C933 0.951 . S
H909 C935 0.950 . S
H910 C936 0.950 . S
H911 C938 0.950 . S
H912 C941 0.950 . S
H913 C942 0.950 . S
H914 C944 0.950 . S
H915 C945 0.950 . S
C916 H898 0.951 . S
C916 C917 1.366 . S
C916 C918 1.388 . S
C917 C916 1.366 . S
C917 C921 1.385 . S
C918 H899 0.951 . S
C918 C916 1.388 . S
C918 C919 1.366 . S
C919 C918 1.366 . S
C919 C920 1.414 . S
C919 C922 1.499 . S
C920 H900 0.950 . S
C920 C919 1.414 . S
C920 C921 1.374 . S
C921 H901 0.950 . S
C921 C917 1.385 . S
C921 C920 1.374 . S
C922 C919 1.499 . S
C922 C923 1.373 . S
C922 C924 1.389 . S
C923 H902 0.950 . S
C923 C922 1.373 . S
C923 C939 1.377 . S
C924 C922 1.389 . S
C924 C925 1.524 . S
C924 C938 1.377 . S
C925 C924 1.524 . S
C925 C926 1.397 . S
C925 C930 1.363 . S
C926 H903 0.950 . S
C926 C925 1.397 . S
C926 C927 1.334 . S
C927 H904 0.950 . S
C927 C926 1.334 . S
C927 C928 1.287 . S
C928 C927 1.287 . S
C928 C929 1.524 . S
C928 H947 0.913 . S
C929 H905 0.950 . S
C929 C928 1.524 . S
C929 C930 1.415 . S
C930 H906 0.950 . S
C930 C925 1.363 . S
C930 C929 1.415 . S
C931 H907 0.951 . S
C931 C932 1.366 . S
C931 C933 1.388 . S
C932 C931 1.366 . S
C932 C936 1.385 . S
C933 H908 0.951 . S
C933 C931 1.388 . S
C933 C934 1.366 . S
C934 C933 1.366 . S
C934 C935 1.414 . S
C934 C937 1.499 . S
C935 H909 0.950 . S
C935 C934 1.414 . S
C935 C936 1.374 . S
C936 H910 0.950 . S
C936 C932 1.385 . S
C936 C935 1.374 . S
C937 C934 1.499 . S
C937 C938 1.373 . S
C937 C939 1.389 . S
C938 H911 0.950 . S
C938 C924 1.377 . S
C938 C937 1.373 . S
C939 C923 1.377 . S
C939 C937 1.389 . S
C939 C940 1.524 . S
C940 C939 1.524 . S
C940 C941 1.397 . S
C940 C945 1.363 . S
C941 H912 0.950 . S
C941 C940 1.397 . S
C941 C942 1.334 . S
C942 H913 0.950 . S
C942 C941 1.334 . S
C942 C943 1.287 . S
C943 C942 1.287 . S
C943 C944 1.524 . S
C943 H946 0.999 . S
C944 H914 0.950 . S
C944 C943 1.524 . S
C944 C945 1.415 . S
C945 H915 0.950 . S
C945 C940 1.363 . S
C945 C944 1.415 . S
H946 C943 0.999 . S
H947 C928 0.913 . S
H948 C966 0.951 . S
H949 C968 0.951 . S
H950 C970 0.950 . S
H951 C971 0.950 . S
H952 C973 0.950 . S
H953 C976 0.950 . S
H954 C977 0.950 . S
H955 C979 0.950 . S
H956 C980 0.950 . S
H957 C981 0.951 . S
H958 C983 0.951 . S
H959 C985 0.950 . S
H960 C986 0.950 . S
H961 C988 0.950 . S
H962 C991 0.950 . S
H963 C992 0.950 . S
H964 C994 0.950 . S
H965 C995 0.950 . S
C966 H948 0.951 . S
C966 C967 1.366 . S
C966 C968 1.388 . S
C967 C966 1.366 . S
C967 C971 1.385 . S
C968 H949 0.951 . S
C968 C966 1.388 . S
C968 C969 1.366 . S
C969 C968 1.366 . S
C969 C970 1.414 . S
C969 C972 1.499 . S
C970 H950 0.950 . S
C970 C969 1.414 . S
C970 C971 1.374 . S
C971 H951 0.950 . S
C971 C967 1.385 . S
C971 C970 1.374 . S
C972 C969 1.499 . S
C972 C973 1.373 . S
C972 C974 1.389 . S
C973 H952 0.950 . S
C973 C972 1.373 . S
C973 C989 1.377 . S
C974 C972 1.389 . S
C974 C975 1.524 . S
C974 C988 1.377 . S
C975 C974 1.524 . S
C975 C976 1.397 . S
C975 C980 1.363 . S
C976 H953 0.950 . S
C976 C975 1.397 . S
C976 C977 1.334 . S
C977 H954 0.950 . S
C977 C976 1.334 . S
C977 C978 1.287 . S
C978 C977 1.287 . S
C978 C979 1.524 . S
C978 H997 0.913 . S
C979 H955 0.950 . S
C979 C978 1.524 . S
C979 C980 1.415 . S
C980 H956 0.950 . S
C980 C975 1.363 . S
C980 C979 1.415 . S
C981 H957 0.951 . S
C981 C982 1.366 . S
C981 C983 1.388 . S
C982 C981 1.366 . S
C982 C986 1.385 . S
C983 H958 0.951 . S
C983 C981 1.388 . S
C983 C984 1.366 . S
C984 C983 1.366 . S
C984 C985 1.414 . S
C984 C987 1.499 . S
C985 H959 0.950 . S
C985 C984 1.414 . S
C985 C986 1.374 . S
C986 H960 0.950 . S
C986 C982 1.385 . S
C986 C985 1.374 . S
C987 C984 1.499 . S
C987 C988 1.373 . S
C987 C989 1.389 . S
C988 H961 0.950 . S
C988 C974 1.377 . S
C988 C987 1.373 . S
C989 C973 1.377 . S
C989 C987 1.389 . S
C989 C990 1.524 . S
C990 C989 1.524 . S
C990 C991 1.397 . S
C990 C995 1.363 . S
C991 H962 0.950 . S
C991 C990 1.397 . S
C991 C992 1.334 . S
C992 H963 0.950 . S
C992 C991 1.334 . S
C992 C993 1.287 . S
C993 C992 1.287 . S
C993 C994 1.524 . S
C993 H996 0.999 . S
C994 H964 0.950 . S
C994 C993 1.524 . S
C994 C995 1.415 . S
C995 H965 0.950 . S
C995 C990 1.363 . S
C995 C994 1.415 . S
H996 C993 0.999 . S
H997 C978 0.913 . S
H998 C1016 0.951 . S
H999 C1018 0.951 . S
H1000 C1020 0.950 . S
H1001 C1021 0.950 . S
H1002 C1023 0.950 . S
H1003 C1026 0.950 . S
H1004 C1027 0.950 . S
H1005 C1029 0.950 . S
H1006 C1030 0.950 . S
H1007 C1031 0.951 . S
H1008 C1033 0.951 . S
H1009 C1035 0.950 . S
H1010 C1036 0.950 . S
H1011 C1038 0.950 . S
H1012 C1041 0.950 . S
H1013 C1042 0.950 . S
H1014 C1044 0.950 . S
H1015 C1045 0.950 . S
C1016 H998 0.951 . S
C1016 C1017 1.366 . S
C1016 C1018 1.388 . S
C1017 C1016 1.366 . S
C1017 C1021 1.385 . S
C1018 H999 0.951 . S
C1018 C1016 1.388 . S
C1018 C1019 1.366 . S
C1019 C1018 1.366 . S
C1019 C1020 1.414 . S
C1019 C1022 1.499 . S
C1020 H1000 0.950 . S
C1020 C1019 1.414 . S
C1020 C1021 1.374 . S
C1021 H1001 0.950 . S
C1021 C1017 1.385 . S
C1021 C1020 1.374 . S
C1022 C1019 1.499 . S
C1022 C1023 1.373 . S
C1022 C1024 1.389 . S
C1023 H1002 0.950 . S
C1023 C1022 1.373 . S
C1023 C1039 1.377 . S
C1024 C1022 1.389 . S
C1024 C1025 1.524 . S
C1024 C1038 1.377 . S
C1025 C1024 1.524 . S
C1025 C1026 1.397 . S
C1025 C1030 1.363 . S
C1026 H1003 0.950 . S
C1026 C1025 1.397 . S
C1026 C1027 1.334 . S
C1027 H1004 0.950 . S
C1027 C1026 1.334 . S
C1027 C1028 1.287 . S
C1028 C1027 1.287 . S
C1028 C1029 1.524 . S
C1028 H1047 0.913 . S
C1029 H1005 0.950 . S
C1029 C1028 1.524 . S
C1029 C1030 1.415 . S
C1030 H1006 0.950 . S
C1030 C1025 1.363 . S
C1030 C1029 1.415 . S
C1031 H1007 0.951 . S
C1031 C1032 1.366 . S
C1031 C1033 1.388 . S
C1032 C1031 1.366 . S
C1032 C1036 1.385 . S
C1033 H1008 0.951 . S
C1033 C1031 1.388 . S
C1033 C1034 1.366 . S
C1034 C1033 1.366 . S
C1034 C1035 1.414 . S
C1034 C1037 1.499 . S
C1035 H1009 0.950 . S
C1035 C1034 1.414 . S
C1035 C1036 1.374 . S
C1036 H1010 0.950 . S
C1036 C1032 1.385 . S
C1036 C1035 1.374 . S
C1037 C1034 1.499 . S
C1037 C1038 1.373 . S
C1037 C1039 1.389 . S
C1038 H1011 0.950 . S
C1038 C1024 1.377 . S
C1038 C1037 1.373 . S
C1039 C1023 1.377 . S
C1039 C1037 1.389 . S
C1039 C1040 1.524 . S
C1040 C1039 1.524 . S
C1040 C1041 1.397 . S
C1040 C1045 1.363 . S
C1041 H1012 0.950 . S
C1041 C1040 1.397 . S
C1041 C1042 1.334 . S
C1042 H1013 0.950 . S
C1042 C1041 1.334 . S
C1042 C1043 1.287 . S
C1043 C1042 1.287 . S
C1043 C1044 1.524 . S
C1043 H1046 0.999 . S
C1044 H1014 0.950 . S
C1044 C1043 1.524 . S
C1044 C1045 1.415 . S
C1045 H1015 0.950 . S
C1045 C1040 1.363 . S
C1045 C1044 1.415 . S
H1046 C1043 0.999 . S
H1047 C1028 0.913 . S
H1048 C1066 0.951 . S
H1049 C1068 0.951 . S
H1050 C1070 0.950 . S
H1051 C1071 0.950 . S
H1052 C1073 0.950 . S
H1053 C1076 0.950 . S
H1054 C1077 0.950 . S
H1055 C1079 0.950 . S
H1056 C1080 0.950 . S
H1057 C1081 0.951 . S
H1058 C1083 0.951 . S
H1059 C1085 0.950 . S
H1060 C1086 0.950 . S
H1061 C1088 0.950 . S
H1062 C1091 0.950 . S
H1063 C1092 0.950 . S
H1064 C1094 0.950 . S
H1065 C1095 0.950 . S
C1066 H1048 0.951 . S
C1066 C1067 1.366 . S
C1066 C1068 1.388 . S
C1067 C1066 1.366 . S
C1067 C1071 1.385 . S
C1068 H1049 0.951 . S
C1068 C1066 1.388 . S
C1068 C1069 1.366 . S
C1069 C1068 1.366 . S
C1069 C1070 1.414 . S
C1069 C1072 1.499 . S
C1070 H1050 0.950 . S
C1070 C1069 1.414 . S
C1070 C1071 1.374 . S
C1071 H1051 0.950 . S
C1071 C1067 1.385 . S
C1071 C1070 1.374 . S
C1072 C1069 1.499 . S
C1072 C1073 1.373 . S
C1072 C1074 1.389 . S
C1073 H1052 0.950 . S
C1073 C1072 1.373 . S
C1073 C1089 1.377 . S
C1074 C1072 1.389 . S
C1074 C1075 1.524 . S
C1074 C1088 1.377 . S
C1075 C1074 1.524 . S
C1075 C1076 1.397 . S
C1075 C1080 1.363 . S
C1076 H1053 0.950 . S
C1076 C1075 1.397 . S
C1076 C1077 1.334 . S
C1077 H1054 0.950 . S
C1077 C1076 1.334 . S
C1077 C1078 1.287 . S
C1078 C1077 1.287 . S
C1078 C1079 1.524 . S
C1078 H1097 0.913 . S
C1079 H1055 0.950 . S
C1079 C1078 1.524 . S
C1079 C1080 1.415 . S
C1080 H1056 0.950 . S
C1080 C1075 1.363 . S
C1080 C1079 1.415 . S
C1081 H1057 0.951 . S
C1081 C1082 1.366 . S
C1081 C1083 1.388 . S
C1082 C1081 1.366 . S
C1082 C1086 1.385 . S
C1083 H1058 0.951 . S
C1083 C1081 1.388 . S
C1083 C1084 1.366 . S
C1084 C1083 1.366 . S
C1084 C1085 1.414 . S
C1084 C1087 1.499 . S
C1085 H1059 0.950 . S
C1085 C1084 1.414 . S
C1085 C1086 1.374 . S
C1086 H1060 0.950 . S
C1086 C1082 1.385 . S
C1086 C1085 1.374 . S
C1087 C1084 1.499 . S
C1087 C1088 1.373 . S
C1087 C1089 1.389 . S
C1088 H1061 0.950 . S
C1088 C1074 1.377 . S
C1088 C1087 1.373 . S
C1089 C1073 1.377 . S
C1089 C1087 1.389 . S
C1089 C1090 1.524 . S
C1090 C1089 1.524 . S
C1090 C1091 1.397 . S
C1090 C1095 1.363 . S
C1091 H1062 0.950 . S
C1091 C1090 1.397 . S
C1091 C1092 1.334 . S
C1092 H1063 0.950 . S
C1092 C1091 1.334 . S
C1092 C1093 1.287 . S
C1093 C1092 1.287 . S
C1093 C1094 1.524 . S
C1093 H1096 0.999 . S
C1094 H1064 0.950 . S
C1094 C1093 1.524 . S
C1094 C1095 1.415 . S
C1095 H1065 0.950 . S
C1095 C1090 1.363 . S
C1095 C1094 1.415 . S
H1096 C1093 0.999 . S
H1097 C1078 0.913 . S
H1098 C1116 0.951 . S
H1099 C1118 0.951 . S
H1100 C1120 0.950 . S
H1101 C1121 0.950 . S
H1102 C1123 0.950 . S
H1103 C1126 0.950 . S
H1104 C1127 0.950 . S
H1105 C1129 0.950 . S
H1106 C1130 0.950 . S
H1107 C1131 0.951 . S
H1108 C1133 0.951 . S
H1109 C1135 0.950 . S
H1110 C1136 0.950 . S
H1111 C1138 0.950 . S
H1112 C1141 0.950 . S
H1113 C1142 0.950 . S
H1114 C1144 0.950 . S
H1115 C1145 0.950 . S
C1116 H1098 0.951 . S
C1116 C1117 1.366 . S
C1116 C1118 1.388 . S
C1117 C1116 1.366 . S
C1117 C1121 1.385 . S
C1118 H1099 0.951 . S
C1118 C1116 1.388 . S
C1118 C1119 1.366 . S
C1119 C1118 1.366 . S
C1119 C1120 1.414 . S
C1119 C1122 1.499 . S
C1120 H1100 0.950 . S
C1120 C1119 1.414 . S
C1120 C1121 1.374 . S
C1121 H1101 0.950 . S
C1121 C1117 1.385 . S
C1121 C1120 1.374 . S
C1122 C1119 1.499 . S
C1122 C1123 1.373 . S
C1122 C1124 1.389 . S
C1123 H1102 0.950 . S
C1123 C1122 1.373 . S
C1123 C1139 1.377 . S
C1124 C1122 1.389 . S
C1124 C1125 1.524 . S
C1124 C1138 1.377 . S
C1125 C1124 1.524 . S
C1125 C1126 1.397 . S
C1125 C1130 1.363 . S
C1126 H1103 0.950 . S
C1126 C1125 1.397 . S
C1126 C1127 1.334 . S
C1127 H1104 0.950 . S
C1127 C1126 1.334 . S
C1127 C1128 1.287 . S
C1128 C1127 1.287 . S
C1128 C1129 1.524 . S
C1128 H1147 0.913 . S
C1129 H1105 0.950 . S
C1129 C1128 1.524 . S
C1129 C1130 1.415 . S
C1130 H1106 0.950 . S
C1130 C1125 1.363 . S
C1130 C1129 1.415 . S
C1131 H1107 0.951 . S
C1131 C1132 1.366 . S
C1131 C1133 1.388 . S
C1132 C1131 1.366 . S
C1132 C1136 1.385 . S
C1133 H1108 0.951 . S
C1133 C1131 1.388 . S
C1133 C1134 1.366 . S
C1134 C1133 1.366 . S
C1134 C1135 1.414 . S
C1134 C1137 1.499 . S
C1135 H1109 0.950 . S
C1135 C1134 1.414 . S
C1135 C1136 1.374 . S
C1136 H1110 0.950 . S
C1136 C1132 1.385 . S
C1136 C1135 1.374 . S
C1137 C1134 1.499 . S
C1137 C1138 1.373 . S
C1137 C1139 1.389 . S
C1138 H1111 0.950 . S
C1138 C1124 1.377 . S
C1138 C1137 1.373 . S
C1139 C1123 1.377 . S
C1139 C1137 1.389 . S
C1139 C1140 1.524 . S
C1140 C1139 1.524 . S
C1140 C1141 1.397 . S
C1140 C1145 1.363 . S
C1141 H1112 0.950 . S
C1141 C1140 1.397 . S
C1141 C1142 1.334 . S
C1142 H1113 0.950 . S
C1142 C1141 1.334 . S
C1142 C1143 1.287 . S
C1143 C1142 1.287 . S
C1143 C1144 1.524 . S
C1143 H1146 0.999 . S
C1144 H1114 0.950 . S
C1144 C1143 1.524 . S
C1144 C1145 1.415 . S
C1145 H1115 0.950 . S
C1145 C1140 1.363 . S
C1145 C1144 1.415 . S
H1146 C1143 0.999 . S
H1147 C1128 0.913 . S
H1148 C1166 0.951 . S
H1149 C1168 0.951 . S
H1150 C1170 0.950 . S
H1151 C1171 0.950 . S
H1152 C1173 0.950 . S
H1153 C1176 0.950 . S
H1154 C1177 0.950 . S
H1155 C1179 0.950 . S
H1156 C1180 0.950 . S
H1157 C1181 0.951 . S
H1158 C1183 0.951 . S
H1159 C1185 0.950 . S
H1160 C1186 0.950 . S
H1161 C1188 0.950 . S
H1162 C1191 0.950 . S
H1163 C1192 0.950 . S
H1164 C1194 0.950 . S
H1165 C1195 0.950 . S
C1166 H1148 0.951 . S
C1166 C1167 1.366 . S
C1166 C1168 1.388 . S
C1167 C1166 1.366 . S
C1167 C1171 1.385 . S
C1168 H1149 0.951 . S
C1168 C1166 1.388 . S
C1168 C1169 1.366 . S
C1169 C1168 1.366 . S
C1169 C1170 1.414 . S
C1169 C1172 1.499 . S
C1170 H1150 0.950 . S
C1170 C1169 1.414 . S
C1170 C1171 1.374 . S
C1171 H1151 0.950 . S
C1171 C1167 1.385 . S
C1171 C1170 1.374 . S
C1172 C1169 1.499 . S
C1172 C1173 1.373 . S
C1172 C1174 1.389 . S
C1173 H1152 0.950 . S
C1173 C1172 1.373 . S
C1173 C1189 1.377 . S
C1174 C1172 1.389 . S
C1174 C1175 1.524 . S
C1174 C1188 1.377 . S
C1175 C1174 1.524 . S
C1175 C1176 1.397 . S
C1175 C1180 1.363 . S
C1176 H1153 0.950 . S
C1176 C1175 1.397 . S
C1176 C1177 1.334 . S
C1177 H1154 0.950 . S
C1177 C1176 1.334 . S
C1177 C1178 1.287 . S
C1178 C1177 1.287 . S
C1178 C1179 1.524 . S
C1178 H1197 0.913 . S
C1179 H1155 0.950 . S
C1179 C1178 1.524 . S
C1179 C1180 1.415 . S
C1180 H1156 0.950 . S
C1180 C1175 1.363 . S
C1180 C1179 1.415 . S
C1181 H1157 0.951 . S
C1181 C1182 1.366 . S
C1181 C1183 1.388 . S
C1182 C1181 1.366 . S
C1182 C1186 1.385 . S
C1183 H1158 0.951 . S
C1183 C1181 1.388 . S
C1183 C1184 1.366 . S
C1184 C1183 1.366 . S
C1184 C1185 1.414 . S
C1184 C1187 1.499 . S
C1185 H1159 0.950 . S
C1185 C1184 1.414 . S
C1185 C1186 1.374 . S
C1186 H1160 0.950 . S
C1186 C1182 1.385 . S
C1186 C1185 1.374 . S
C1187 C1184 1.499 . S
C1187 C1188 1.373 . S
C1187 C1189 1.389 . S
C1188 H1161 0.950 . S
C1188 C1174 1.377 . S
C1188 C1187 1.373 . S
C1189 C1173 1.377 . S
C1189 C1187 1.389 . S
C1189 C1190 1.524 . S
C1190 C1189 1.524 . S
C1190 C1191 1.397 . S
C1190 C1195 1.363 . S
C1191 H1162 0.950 . S
C1191 C1190 1.397 . S
C1191 C1192 1.334 . S
C1192 H1163 0.950 . S
C1192 C1191 1.334 . S
C1192 C1193 1.287 . S
C1193 C1192 1.287 . S
C1193 C1194 1.524 . S
C1193 H1196 0.999 . S
C1194 H1164 0.950 . S
C1194 C1193 1.524 . S
C1194 C1195 1.415 . S
C1195 H1165 0.950 . S
C1195 C1190 1.363 . S
C1195 C1194 1.415 . S
H1196 C1193 0.999 . S
H1197 C1178 0.913 . S
H1198 C1216 0.951 . S
H1199 C1218 0.951 . S
H1200 C1220 0.950 . S
H1201 C1221 0.950 . S
H1202 C1223 0.950 . S
H1203 C1226 0.950 . S
H1204 C1227 0.950 . S
H1205 C1229 0.950 . S
H1206 C1230 0.950 . S
H1207 C1231 0.951 . S
H1208 C1233 0.951 . S
H1209 C1235 0.950 . S
H1210 C1236 0.950 . S
H1211 C1238 0.950 . S
H1212 C1241 0.950 . S
H1213 C1242 0.950 . S
H1214 C1244 0.950 . S
H1215 C1245 0.950 . S
C1216 H1198 0.951 . S
C1216 C1217 1.366 . S
C1216 C1218 1.388 . S
C1217 C1216 1.366 . S
C1217 C1221 1.385 . S
C1218 H1199 0.951 . S
C1218 C1216 1.388 . S
C1218 C1219 1.366 . S
C1219 C1218 1.366 . S
C1219 C1220 1.414 . S
C1219 C1222 1.499 . S
C1220 H1200 0.950 . S
C1220 C1219 1.414 . S
C1220 C1221 1.374 . S
C1221 H1201 0.950 . S
C1221 C1217 1.385 . S
C1221 C1220 1.374 . S
C1222 C1219 1.499 . S
C1222 C1223 1.373 . S
C1222 C1224 1.389 . S
C1223 H1202 0.950 . S
C1223 C1222 1.373 . S
C1223 C1239 1.377 . S
C1224 C1222 1.389 . S
C1224 C1225 1.524 . S
C1224 C1238 1.377 . S
C1225 C1224 1.524 . S
C1225 C1226 1.397 . S
C1225 C1230 1.363 . S
C1226 H1203 0.950 . S
C1226 C1225 1.397 . S
C1226 C1227 1.334 . S
C1227 H1204 0.950 . S
C1227 C1226 1.334 . S
C1227 C1228 1.287 . S
C1228 C1227 1.287 . S
C1228 C1229 1.524 . S
C1228 H1247 0.913 . S
C1229 H1205 0.950 . S
C1229 C1228 1.524 . S
C1229 C1230 1.415 . S
C1230 H1206 0.950 . S
C1230 C1225 1.363 . S
C1230 C1229 1.415 . S
C1231 H1207 0.951 . S
C1231 C1232 1.366 . S
C1231 C1233 1.388 . S
C1232 C1231 1.366 . S
C1232 C1236 1.385 . S
C1233 H1208 0.951 . S
C1233 C1231 1.388 . S
C1233 C1234 1.366 . S
C1234 C1233 1.366 . S
C1234 C1235 1.414 . S
C1234 C1237 1.499 . S
C1235 H1209 0.950 . S
C1235 C1234 1.414 . S
C1235 C1236 1.374 . S
C1236 H1210 0.950 . S
C1236 C1232 1.385 . S
C1236 C1235 1.374 . S
C1237 C1234 1.499 . S
C1237 C1238 1.373 . S
C1237 C1239 1.389 . S
C1238 H1211 0.950 . S
C1238 C1224 1.377 . S
C1238 C1237 1.373 . S
C1239 C1223 1.377 . S
C1239 C1237 1.389 . S
C1239 C1240 1.524 . S
C1240 C1239 1.524 . S
C1240 C1241 1.397 . S
C1240 C1245 1.363 . S
C1241 H1212 0.950 . S
C1241 C1240 1.397 . S
C1241 C1242 1.334 . S
C1242 H1213 0.950 . S
C1242 C1241 1.334 . S
C1242 C1243 1.287 . S
C1243 C1242 1.287 . S
C1243 C1244 1.524 . S
C1243 H1246 0.999 . S
C1244 H1214 0.950 . S
C1244 C1243 1.524 . S
C1244 C1245 1.415 . S
C1245 H1215 0.950 . S
C1245 C1240 1.363 . S
C1245 C1244 1.415 . S
H1246 C1243 0.999 . S
H1247 C1228 0.913 . S
H1248 C1266 0.951 . S
H1249 C1268 0.951 . S
H1250 C1270 0.950 . S
H1251 C1271 0.950 . S
H1252 C1273 0.950 . S
H1253 C1276 0.950 . S
H1254 C1277 0.950 . S
H1255 C1279 0.950 . S
H1256 C1280 0.950 . S
H1257 C1281 0.951 . S
H1258 C1283 0.951 . S
H1259 C1285 0.950 . S
H1260 C1286 0.950 . S
H1261 C1288 0.950 . S
H1262 C1291 0.950 . S
H1263 C1292 0.950 . S
H1264 C1294 0.950 . S
H1265 C1295 0.950 . S
C1266 H1248 0.951 . S
C1266 C1267 1.366 . S
C1266 C1268 1.388 . S
C1267 C1266 1.366 . S
C1267 C1271 1.385 . S
C1268 H1249 0.951 . S
C1268 C1266 1.388 . S
C1268 C1269 1.366 . S
C1269 C1268 1.366 . S
C1269 C1270 1.414 . S
C1269 C1272 1.499 . S
C1270 H1250 0.950 . S
C1270 C1269 1.414 . S
C1270 C1271 1.374 . S
C1271 H1251 0.950 . S
C1271 C1267 1.385 . S
C1271 C1270 1.374 . S
C1272 C1269 1.499 . S
C1272 C1273 1.373 . S
C1272 C1274 1.389 . S
C1273 H1252 0.950 . S
C1273 C1272 1.373 . S
C1273 C1289 1.377 1_554 S
C1274 C1272 1.389 . S
C1274 C1275 1.524 . S
C1274 C1288 1.377 1_554 S
C1275 C1274 1.524 . S
C1275 C1276 1.397 . S
C1275 C1280 1.363 . S
C1276 H1253 0.950 . S
C1276 C1275 1.397 . S
C1276 C1277 1.334 . S
C1277 H1254 0.950 . S
C1277 C1276 1.334 . S
C1277 C1278 1.287 . S
C1278 C1277 1.287 . S
C1278 C1279 1.524 . S
C1278 H1297 0.913 . S
C1279 H1255 0.950 . S
C1279 C1278 1.524 . S
C1279 C1280 1.415 . S
C1280 H1256 0.950 . S
C1280 C1275 1.363 . S
C1280 C1279 1.415 . S
C1281 H1257 0.951 . S
C1281 C1282 1.366 . S
C1281 C1283 1.388 . S
C1282 C1281 1.366 . S
C1282 C1286 1.385 . S
C1283 H1258 0.951 . S
C1283 C1281 1.388 . S
C1283 C1284 1.366 . S
C1284 C1283 1.366 . S
C1284 C1285 1.414 . S
C1284 C1287 1.499 . S
C1285 H1259 0.950 . S
C1285 C1284 1.414 . S
C1285 C1286 1.374 . S
C1286 H1260 0.950 . S
C1286 C1282 1.385 . S
C1286 C1285 1.374 . S
C1287 C1284 1.499 . S
C1287 C1288 1.373 . S
C1287 C1289 1.389 . S
C1288 H1261 0.950 . S
C1288 C1274 1.377 1_556 S
C1288 C1287 1.373 . S
C1289 C1273 1.377 1_556 S
C1289 C1287 1.389 . S
C1289 C1290 1.524 . S
C1290 C1289 1.524 . S
C1290 C1291 1.397 . S
C1290 C1295 1.363 . S
C1291 H1262 0.950 . S
C1291 C1290 1.397 . S
C1291 C1292 1.334 . S
C1292 H1263 0.950 . S
C1292 C1291 1.334 . S
C1292 C1293 1.287 . S
C1293 C1292 1.287 . S
C1293 C1294 1.524 . S
C1293 H1296 0.999 . S
C1294 H1264 0.950 . S
C1294 C1293 1.524 . S
C1294 C1295 1.415 . S
C1295 H1265 0.950 . S
C1295 C1290 1.363 . S
C1295 C1294 1.415 . S
H1296 C1293 0.999 . S
H1297 C1278 0.913 . S
H1298 C1316 0.951 . S
H1299 C1318 0.951 . S
H1300 C1320 0.950 . S
H1301 C1321 0.950 . S
H1302 C1323 0.950 . S
H1303 C1326 0.950 . S
H1304 C1327 0.950 . S
H1305 C1329 0.950 . S
H1306 C1330 0.950 . S
H1307 C1331 0.951 . S
H1308 C1333 0.951 . S
H1309 C1335 0.950 . S
H1310 C1336 0.950 . S
H1311 C1338 0.950 . S
H1312 C1341 0.950 . S
H1313 C1342 0.950 . S
H1314 C1344 0.950 . S
H1315 C1345 0.950 . S
C1316 H1298 0.951 . S
C1316 C1317 1.366 . S
C1316 C1318 1.388 . S
C1317 C1316 1.366 . S
C1317 C1321 1.385 . S
C1318 H1299 0.951 . S
C1318 C1316 1.388 . S
C1318 C1319 1.366 . S
C1319 C1318 1.366 . S
C1319 C1320 1.414 . S
C1319 C1322 1.499 . S
C1320 H1300 0.950 . S
C1320 C1319 1.414 . S
C1320 C1321 1.374 . S
C1321 H1301 0.950 . S
C1321 C1317 1.385 . S
C1321 C1320 1.374 . S
C1322 C1319 1.499 . S
C1322 C1323 1.373 . S
C1322 C1324 1.389 . S
C1323 H1302 0.950 . S
C1323 C1322 1.373 . S
C1323 C1339 1.377 1_556 S
C1324 C1322 1.389 . S
C1324 C1325 1.524 . S
C1324 C1338 1.377 1_556 S
C1325 C1324 1.524 . S
C1325 C1326 1.397 . S
C1325 C1330 1.363 . S
C1326 H1303 0.950 . S
C1326 C1325 1.397 . S
C1326 C1327 1.334 . S
C1327 H1304 0.950 . S
C1327 C1326 1.334 . S
C1327 C1328 1.287 . S
C1328 C1327 1.287 . S
C1328 C1329 1.524 . S
C1328 H1347 0.913 . S
C1329 H1305 0.950 . S
C1329 C1328 1.524 . S
C1329 C1330 1.415 . S
C1330 H1306 0.950 . S
C1330 C1325 1.363 . S
C1330 C1329 1.415 . S
C1331 H1307 0.951 . S
C1331 C1332 1.366 . S
C1331 C1333 1.388 . S
C1332 C1331 1.366 . S
C1332 C1336 1.385 . S
C1333 H1308 0.951 . S
C1333 C1331 1.388 . S
C1333 C1334 1.366 . S
C1334 C1333 1.366 . S
C1334 C1335 1.414 . S
C1334 C1337 1.499 . S
C1335 H1309 0.950 . S
C1335 C1334 1.414 . S
C1335 C1336 1.374 . S
C1336 H1310 0.950 . S
C1336 C1332 1.385 . S
C1336 C1335 1.374 . S
C1337 C1334 1.499 . S
C1337 C1338 1.373 . S
C1337 C1339 1.389 . S
C1338 H1311 0.950 . S
C1338 C1324 1.377 1_554 S
C1338 C1337 1.373 . S
C1339 C1323 1.377 1_554 S
C1339 C1337 1.389 . S
C1339 C1340 1.524 . S
C1340 C1339 1.524 . S
C1340 C1341 1.397 . S
C1340 C1345 1.363 . S
C1341 H1312 0.950 . S
C1341 C1340 1.397 . S
C1341 C1342 1.334 . S
C1342 H1313 0.950 . S
C1342 C1341 1.334 . S
C1342 C1343 1.287 . S
C1343 C1342 1.287 . S
C1343 C1344 1.524 . S
C1343 H1346 0.999 . S
C1344 H1314 0.950 . S
C1344 C1343 1.524 . S
C1344 C1345 1.415 . S
C1345 H1315 0.950 . S
C1345 C1340 1.363 . S
C1345 C1344 1.415 . S
H1346 C1343 0.999 . S
H1347 C1328 0.913 . S
H1348 C1366 0.951 . S
H1349 C1368 0.951 . S
H1350 C1370 0.950 . S
H1351 C1371 0.950 . S
H1352 C1373 0.950 . S
H1353 C1376 0.950 . S
H1354 C1377 0.950 . S
H1355 C1379 0.950 . S
H1356 C1380 0.950 . S
H1357 C1381 0.951 . S
H1358 C1383 0.951 . S
H1359 C1385 0.950 . S
H1360 C1386 0.950 . S
H1361 C1388 0.950 . S
H1362 C1391 0.950 . S
H1363 C1392 0.950 . S
H1364 C1394 0.950 . S
H1365 C1395 0.950 . S
C1366 H1348 0.951 . S
C1366 C1367 1.366 . S
C1366 C1368 1.388 . S
C1367 C1366 1.366 . S
C1367 C1371 1.385 . S
C1368 H1349 0.951 . S
C1368 C1366 1.388 . S
C1368 C1369 1.366 . S
C1369 C1368 1.366 . S
C1369 C1370 1.414 . S
C1369 C1372 1.499 . S
C1370 H1350 0.950 . S
C1370 C1369 1.414 . S
C1370 C1371 1.374 . S
C1371 H1351 0.950 . S
C1371 C1367 1.385 . S
C1371 C1370 1.374 . S
C1372 C1369 1.499 . S
C1372 C1373 1.373 . S
C1372 C1374 1.389 . S
C1373 H1352 0.950 . S
C1373 C1372 1.373 . S
C1373 C1389 1.377 1_556 S
C1374 C1372 1.389 . S
C1374 C1375 1.524 . S
C1374 C1388 1.377 1_556 S
C1375 C1374 1.524 . S
C1375 C1376 1.397 . S
C1375 C1380 1.363 . S
C1376 H1353 0.950 . S
C1376 C1375 1.397 . S
C1376 C1377 1.334 . S
C1377 H1354 0.950 . S
C1377 C1376 1.334 . S
C1377 C1378 1.287 . S
C1378 C1377 1.287 . S
C1378 C1379 1.524 . S
C1378 H1397 0.913 . S
C1379 H1355 0.950 . S
C1379 C1378 1.524 . S
C1379 C1380 1.415 . S
C1380 H1356 0.950 . S
C1380 C1375 1.363 . S
C1380 C1379 1.415 . S
C1381 H1357 0.951 . S
C1381 C1382 1.366 . S
C1381 C1383 1.388 . S
C1382 C1381 1.366 . S
C1382 C1386 1.385 . S
C1383 H1358 0.951 . S
C1383 C1381 1.388 . S
C1383 C1384 1.366 . S
C1384 C1383 1.366 . S
C1384 C1385 1.414 . S
C1384 C1387 1.499 . S
C1385 H1359 0.950 . S
C1385 C1384 1.414 . S
C1385 C1386 1.374 . S
C1386 H1360 0.950 . S
C1386 C1382 1.385 . S
C1386 C1385 1.374 . S
C1387 C1384 1.499 . S
C1387 C1388 1.373 . S
C1387 C1389 1.389 . S
C1388 H1361 0.950 . S
C1388 C1374 1.377 1_554 S
C1388 C1387 1.373 . S
C1389 C1373 1.377 1_554 S
C1389 C1387 1.389 . S
C1389 C1390 1.524 . S
C1390 C1389 1.524 . S
C1390 C1391 1.397 . S
C1390 C1395 1.363 . S
C1391 H1362 0.950 . S
C1391 C1390 1.397 . S
C1391 C1392 1.334 . S
C1392 H1363 0.950 . S
C1392 C1391 1.334 . S
C1392 C1393 1.287 . S
C1393 C1392 1.287 . S
C1393 C1394 1.524 . S
C1393 H1396 0.999 . S
C1394 H1364 0.950 . S
C1394 C1393 1.524 . S
C1394 C1395 1.415 . S
C1395 H1365 0.950 . S
C1395 C1390 1.363 . S
C1395 C1394 1.415 . S
H1396 C1393 0.999 . S
H1397 C1378 0.913 . S
H1398 C1416 0.951 . S
H1399 C1418 0.951 . S
H1400 C1420 0.950 . S
H1401 C1421 0.950 . S
H1402 C1423 0.950 . S
H1403 C1426 0.950 . S
H1404 C1427 0.950 . S
H1405 C1429 0.950 . S
H1406 C1430 0.950 . S
H1407 C1431 0.951 . S
H1408 C1433 0.951 . S
H1409 C1435 0.950 . S
H1410 C1436 0.950 . S
H1411 C1438 0.950 . S
H1412 C1441 0.950 . S
H1413 C1442 0.950 . S
H1414 C1444 0.950 . S
H1415 C1445 0.950 . S
C1416 H1398 0.951 . S
C1416 C1417 1.366 . S
C1416 C1418 1.388 . S
C1417 C1416 1.366 . S
C1417 C1421 1.385 . S
C1418 H1399 0.951 . S
C1418 C1416 1.388 . S
C1418 C1419 1.366 . S
C1419 C1418 1.366 . S
C1419 C1420 1.414 . S
C1419 C1422 1.499 . S
C1420 H1400 0.950 . S
C1420 C1419 1.414 . S
C1420 C1421 1.374 . S
C1421 H1401 0.950 . S
C1421 C1417 1.385 . S
C1421 C1420 1.374 . S
C1422 C1419 1.499 . S
C1422 C1423 1.373 . S
C1422 C1424 1.389 . S
C1423 H1402 0.950 . S
C1423 C1422 1.373 . S
C1423 C1439 1.377 1_556 S
C1424 C1422 1.389 . S
C1424 C1425 1.524 . S
C1424 C1438 1.377 1_556 S
C1425 C1424 1.524 . S
C1425 C1426 1.397 . S
C1425 C1430 1.363 . S
C1426 H1403 0.950 . S
C1426 C1425 1.397 . S
C1426 C1427 1.334 . S
C1427 H1404 0.950 . S
C1427 C1426 1.334 . S
C1427 C1428 1.287 . S
C1428 C1427 1.287 . S
C1428 C1429 1.524 . S
C1428 H1447 0.913 . S
C1429 H1405 0.950 . S
C1429 C1428 1.524 . S
C1429 C1430 1.415 . S
C1430 H1406 0.950 . S
C1430 C1425 1.363 . S
C1430 C1429 1.415 . S
C1431 H1407 0.951 . S
C1431 C1432 1.366 . S
C1431 C1433 1.388 . S
C1432 C1431 1.366 . S
C1432 C1436 1.385 . S
C1433 H1408 0.951 . S
C1433 C1431 1.388 . S
C1433 C1434 1.366 . S
C1434 C1433 1.366 . S
C1434 C1435 1.414 . S
C1434 C1437 1.499 . S
C1435 H1409 0.950 . S
C1435 C1434 1.414 . S
C1435 C1436 1.374 . S
C1436 H1410 0.950 . S
C1436 C1432 1.385 . S
C1436 C1435 1.374 . S
C1437 C1434 1.499 . S
C1437 C1438 1.373 . S
C1437 C1439 1.389 . S
C1438 H1411 0.950 . S
C1438 C1424 1.377 1_554 S
C1438 C1437 1.373 . S
C1439 C1423 1.377 1_554 S
C1439 C1437 1.389 . S
C1439 C1440 1.524 . S
C1440 C1439 1.524 . S
C1440 C1441 1.397 . S
C1440 C1445 1.363 . S
C1441 H1412 0.950 . S
C1441 C1440 1.397 . S
C1441 C1442 1.334 . S
C1442 H1413 0.950 . S
C1442 C1441 1.334 . S
C1442 C1443 1.287 . S
C1443 C1442 1.287 . S
C1443 C1444 1.524 . S
C1443 H1446 0.999 . S
C1444 H1414 0.950 . S
C1444 C1443 1.524 . S
C1444 C1445 1.415 . S
C1445 H1415 0.950 . S
C1445 C1440 1.363 . S
C1445 C1444 1.415 . S
H1446 C1443 0.999 . S
H1447 C1428 0.913 . S
H1448 C1466 0.951 . S
H1449 C1468 0.951 . S
H1450 C1470 0.950 . S
H1451 C1471 0.950 . S
H1452 C1473 0.950 . S
H1453 C1476 0.950 . S
H1454 C1477 0.950 . S
H1455 C1479 0.950 . S
H1456 C1480 0.950 . S
H1457 C1481 0.951 . S
H1458 C1483 0.951 . S
H1459 C1485 0.950 . S
H1460 C1486 0.950 . S
H1461 C1488 0.950 . S
H1462 C1491 0.950 . S
H1463 C1492 0.950 . S
H1464 C1494 0.950 . S
H1465 C1495 0.950 . S
C1466 H1448 0.951 . S
C1466 C1467 1.366 . S
C1466 C1468 1.388 . S
C1467 C1466 1.366 . S
C1467 C1471 1.385 . S
C1468 H1449 0.951 . S
C1468 C1466 1.388 . S
C1468 C1469 1.366 . S
C1469 C1468 1.366 . S
C1469 C1470 1.414 . S
C1469 C1472 1.499 . S
C1470 H1450 0.950 . S
C1470 C1469 1.414 . S
C1470 C1471 1.374 . S
C1471 H1451 0.950 . S
C1471 C1467 1.385 . S
C1471 C1470 1.374 . S
C1472 C1469 1.499 . S
C1472 C1473 1.373 . S
C1472 C1474 1.389 . S
C1473 H1452 0.950 . S
C1473 C1472 1.373 . S
C1473 C1489 1.377 . S
C1474 C1472 1.389 . S
C1474 C1475 1.524 . S
C1474 C1488 1.377 . S
C1475 C1474 1.524 . S
C1475 C1476 1.397 . S
C1475 C1480 1.363 . S
C1476 H1453 0.950 . S
C1476 C1475 1.397 . S
C1476 C1477 1.334 . S
C1477 H1454 0.950 . S
C1477 C1476 1.334 . S
C1477 C1478 1.287 . S
C1478 C1477 1.287 . S
C1478 C1479 1.524 . S
C1478 H1497 0.913 . S
C1479 H1455 0.950 . S
C1479 C1478 1.524 . S
C1479 C1480 1.415 . S
C1480 H1456 0.950 . S
C1480 C1475 1.363 . S
C1480 C1479 1.415 . S
C1481 H1457 0.951 . S
C1481 C1482 1.366 . S
C1481 C1483 1.388 . S
C1482 C1481 1.366 . S
C1482 C1486 1.385 . S
C1483 H1458 0.951 . S
C1483 C1481 1.388 . S
C1483 C1484 1.366 . S
C1484 C1483 1.366 . S
C1484 C1485 1.414 . S
C1484 C1487 1.499 . S
C1485 H1459 0.950 . S
C1485 C1484 1.414 . S
C1485 C1486 1.374 . S
C1486 H1460 0.950 . S
C1486 C1482 1.385 . S
C1486 C1485 1.374 . S
C1487 C1484 1.499 . S
C1487 C1488 1.373 . S
C1487 C1489 1.389 . S
C1488 H1461 0.950 . S
C1488 C1474 1.377 . S
C1488 C1487 1.373 . S
C1489 C1473 1.377 . S
C1489 C1487 1.389 . S
C1489 C1490 1.524 . S
C1490 C1489 1.524 . S
C1490 C1491 1.397 . S
C1490 C1495 1.363 . S
C1491 H1462 0.950 . S
C1491 C1490 1.397 . S
C1491 C1492 1.334 . S
C1492 H1463 0.950 . S
C1492 C1491 1.334 . S
C1492 C1493 1.287 . S
C1493 C1492 1.287 . S
C1493 C1494 1.524 . S
C1493 H1496 0.999 . S
C1494 H1464 0.950 . S
C1494 C1493 1.524 . S
C1494 C1495 1.415 . S
C1495 H1465 0.950 . S
C1495 C1490 1.363 . S
C1495 C1494 1.415 . S
H1496 C1493 0.999 . S
H1497 C1478 0.913 . S
H1498 C1516 0.951 . S
H1499 C1518 0.951 . S
H1500 C1520 0.950 . S
H1501 C1521 0.950 . S
H1502 C1523 0.950 . S
H1503 C1526 0.950 . S
H1504 C1527 0.950 . S
H1505 C1529 0.950 . S
H1506 C1530 0.950 . S
H1507 C1531 0.951 . S
H1508 C1533 0.951 . S
H1509 C1535 0.950 . S
H1510 C1536 0.950 . S
H1511 C1538 0.950 . S
H1512 C1541 0.950 . S
H1513 C1542 0.950 . S
H1514 C1544 0.950 . S
H1515 C1545 0.950 . S
C1516 H1498 0.951 . S
C1516 C1517 1.366 . S
C1516 C1518 1.388 . S
C1517 C1516 1.366 . S
C1517 C1521 1.385 . S
C1518 H1499 0.951 . S
C1518 C1516 1.388 . S
C1518 C1519 1.366 . S
C1519 C1518 1.366 . S
C1519 C1520 1.414 . S
C1519 C1522 1.499 . S
C1520 H1500 0.950 . S
C1520 C1519 1.414 . S
C1520 C1521 1.374 . S
C1521 H1501 0.950 . S
C1521 C1517 1.385 . S
C1521 C1520 1.374 . S
C1522 C1519 1.499 . S
C1522 C1523 1.373 . S
C1522 C1524 1.389 . S
C1523 H1502 0.950 . S
C1523 C1522 1.373 . S
C1523 C1539 1.377 . S
C1524 C1522 1.389 . S
C1524 C1525 1.524 . S
C1524 C1538 1.377 . S
C1525 C1524 1.524 . S
C1525 C1526 1.397 . S
C1525 C1530 1.363 . S
C1526 H1503 0.950 . S
C1526 C1525 1.397 . S
C1526 C1527 1.334 . S
C1527 H1504 0.950 . S
C1527 C1526 1.334 . S
C1527 C1528 1.287 . S
C1528 C1527 1.287 . S
C1528 C1529 1.524 . S
C1528 H1547 0.913 . S
C1529 H1505 0.950 . S
C1529 C1528 1.524 . S
C1529 C1530 1.415 . S
C1530 H1506 0.950 . S
C1530 C1525 1.363 . S
C1530 C1529 1.415 . S
C1531 H1507 0.951 . S
C1531 C1532 1.366 . S
C1531 C1533 1.388 . S
C1532 C1531 1.366 . S
C1532 C1536 1.385 . S
C1533 H1508 0.951 . S
C1533 C1531 1.388 . S
C1533 C1534 1.366 . S
C1534 C1533 1.366 . S
C1534 C1535 1.414 . S
C1534 C1537 1.499 . S
C1535 H1509 0.950 . S
C1535 C1534 1.414 . S
C1535 C1536 1.374 . S
C1536 H1510 0.950 . S
C1536 C1532 1.385 . S
C1536 C1535 1.374 . S
C1537 C1534 1.499 . S
C1537 C1538 1.373 . S
C1537 C1539 1.389 . S
C1538 H1511 0.950 . S
C1538 C1524 1.377 . S
C1538 C1537 1.373 . S
C1539 C1523 1.377 . S
C1539 C1537 1.389 . S
C1539 C1540 1.524 . S
C1540 C1539 1.524 . S
C1540 C1541 1.397 . S
C1540 C1545 1.363 . S
C1541 H1512 0.950 . S
C1541 C1540 1.397 . S
C1541 C1542 1.334 . S
C1542 H1513 0.950 . S
C1542 C1541 1.334 . S
C1542 C1543 1.287 . S
C1543 C1542 1.287 . S
C1543 C1544 1.524 . S
C1543 H1546 0.999 . S
C1544 H1514 0.950 . S
C1544 C1543 1.524 . S
C1544 C1545 1.415 . S
C1545 H1515 0.950 . S
C1545 C1540 1.363 . S
C1545 C1544 1.415 . S
H1546 C1543 0.999 . S
H1547 C1528 0.913 . S
H1548 C1566 0.951 . S
H1549 C1568 0.951 . S
H1550 C1570 0.950 . S
H1551 C1571 0.950 . S
H1552 C1573 0.950 . S
H1553 C1576 0.950 . S
H1554 C1577 0.950 . S
H1555 C1579 0.950 . S
H1556 C1580 0.950 . S
H1557 C1581 0.951 . S
H1558 C1583 0.951 . S
H1559 C1585 0.950 . S
H1560 C1586 0.950 . S
H1561 C1588 0.950 . S
H1562 C1591 0.950 . S
H1563 C1592 0.950 . S
H1564 C1594 0.950 . S
H1565 C1595 0.950 . S
C1566 H1548 0.951 . S
C1566 C1567 1.366 . S
C1566 C1568 1.388 . S
C1567 C1566 1.366 . S
C1567 C1571 1.385 . S
C1568 H1549 0.951 . S
C1568 C1566 1.388 . S
C1568 C1569 1.366 . S
C1569 C1568 1.366 . S
C1569 C1570 1.414 . S
C1569 C1572 1.499 . S
C1570 H1550 0.950 . S
C1570 C1569 1.414 . S
C1570 C1571 1.374 . S
C1571 H1551 0.950 . S
C1571 C1567 1.385 . S
C1571 C1570 1.374 . S
C1572 C1569 1.499 . S
C1572 C1573 1.373 . S
C1572 C1574 1.389 . S
C1573 H1552 0.950 . S
C1573 C1572 1.373 . S
C1573 C1589 1.377 . S
C1574 C1572 1.389 . S
C1574 C1575 1.524 . S
C1574 C1588 1.377 . S
C1575 C1574 1.524 . S
C1575 C1576 1.397 . S
C1575 C1580 1.363 . S
C1576 H1553 0.950 . S
C1576 C1575 1.397 . S
C1576 C1577 1.334 . S
C1577 H1554 0.950 . S
C1577 C1576 1.334 . S
C1577 C1578 1.287 . S
C1578 C1577 1.287 . S
C1578 C1579 1.524 . S
C1578 H1597 0.913 . S
C1579 H1555 0.950 . S
C1579 C1578 1.524 . S
C1579 C1580 1.415 . S
C1580 H1556 0.950 . S
C1580 C1575 1.363 . S
C1580 C1579 1.415 . S
C1581 H1557 0.951 . S
C1581 C1582 1.366 . S
C1581 C1583 1.388 . S
C1582 C1581 1.366 . S
C1582 C1586 1.385 . S
C1583 H1558 0.951 . S
C1583 C1581 1.388 . S
C1583 C1584 1.366 . S
C1584 C1583 1.366 . S
C1584 C1585 1.414 . S
C1584 C1587 1.499 . S
C1585 H1559 0.950 . S
C1585 C1584 1.414 . S
C1585 C1586 1.374 . S
C1586 H1560 0.950 . S
C1586 C1582 1.385 . S
C1586 C1585 1.374 . S
C1587 C1584 1.499 . S
C1587 C1588 1.373 . S
C1587 C1589 1.389 . S
C1588 H1561 0.950 . S
C1588 C1574 1.377 . S
C1588 C1587 1.373 . S
C1589 C1573 1.377 . S
C1589 C1587 1.389 . S
C1589 C1590 1.524 . S
C1590 C1589 1.524 . S
C1590 C1591 1.397 . S
C1590 C1595 1.363 . S
C1591 H1562 0.950 . S
C1591 C1590 1.397 . S
C1591 C1592 1.334 . S
C1592 H1563 0.950 . S
C1592 C1591 1.334 . S
C1592 C1593 1.287 . S
C1593 C1592 1.287 . S
C1593 C1594 1.524 . S
C1593 H1596 0.999 . S
C1594 H1564 0.950 . S
C1594 C1593 1.524 . S
C1594 C1595 1.415 . S
C1595 H1565 0.950 . S
C1595 C1590 1.363 . S
C1595 C1594 1.415 . S
H1596 C1593 0.999 . S
H1597 C1578 0.913 . S
H1598 C1616 0.951 . S
H1599 C1618 0.951 . S
H1600 C1620 0.950 . S
H1601 C1621 0.950 . S
H1602 C1623 0.950 . S
H1603 C1626 0.950 . S
H1604 C1627 0.950 . S
H1605 C1629 0.950 . S
H1606 C1630 0.950 . S
H1607 C1631 0.951 . S
H1608 C1633 0.951 . S
H1609 C1635 0.950 . S
H1610 C1636 0.950 . S
H1611 C1638 0.950 . S
H1612 C1641 0.950 . S
H1613 C1642 0.950 . S
H1614 C1644 0.950 . S
H1615 C1645 0.950 . S
C1616 H1598 0.951 . S
C1616 C1617 1.366 . S
C1616 C1618 1.388 . S
C1617 C1616 1.366 . S
C1617 C1621 1.385 . S
C1618 H1599 0.951 . S
C1618 C1616 1.388 . S
C1618 C1619 1.366 . S
C1619 C1618 1.366 . S
C1619 C1620 1.414 . S
C1619 C1622 1.499 . S
C1620 H1600 0.950 . S
C1620 C1619 1.414 . S
C1620 C1621 1.374 . S
C1621 H1601 0.950 . S
C1621 C1617 1.385 . S
C1621 C1620 1.374 . S
C1622 C1619 1.499 . S
C1622 C1623 1.373 . S
C1622 C1624 1.389 . S
C1623 H1602 0.950 . S
C1623 C1622 1.373 . S
C1623 C1639 1.377 . S
C1624 C1622 1.389 . S
C1624 C1625 1.524 . S
C1624 C1638 1.377 . S
C1625 C1624 1.524 . S
C1625 C1626 1.397 . S
C1625 C1630 1.363 . S
C1626 H1603 0.950 . S
C1626 C1625 1.397 . S
C1626 C1627 1.334 . S
C1627 H1604 0.950 . S
C1627 C1626 1.334 . S
C1627 C1628 1.287 . S
C1628 C1627 1.287 . S
C1628 C1629 1.524 . S
C1628 H1647 0.913 . S
C1629 H1605 0.950 . S
C1629 C1628 1.524 . S
C1629 C1630 1.415 . S
C1630 H1606 0.950 . S
C1630 C1625 1.363 . S
C1630 C1629 1.415 . S
C1631 H1607 0.951 . S
C1631 C1632 1.366 . S
C1631 C1633 1.388 . S
C1632 C1631 1.366 . S
C1632 C1636 1.385 . S
C1633 H1608 0.951 . S
C1633 C1631 1.388 . S
C1633 C1634 1.366 . S
C1634 C1633 1.366 . S
C1634 C1635 1.414 . S
C1634 C1637 1.499 . S
C1635 H1609 0.950 . S
C1635 C1634 1.414 . S
C1635 C1636 1.374 . S
C1636 H1610 0.950 . S
C1636 C1632 1.385 . S
C1636 C1635 1.374 . S
C1637 C1634 1.499 . S
C1637 C1638 1.373 . S
C1637 C1639 1.389 . S
C1638 H1611 0.950 . S
C1638 C1624 1.377 . S
C1638 C1637 1.373 . S
C1639 C1623 1.377 . S
C1639 C1637 1.389 . S
C1639 C1640 1.524 . S
C1640 C1639 1.524 . S
C1640 C1641 1.397 . S
C1640 C1645 1.363 . S
C1641 H1612 0.950 . S
C1641 C1640 1.397 . S
C1641 C1642 1.334 . S
C1642 H1613 0.950 . S
C1642 C1641 1.334 . S
C1642 C1643 1.287 . S
C1643 C1642 1.287 . S
C1643 C1644 1.524 . S
C1643 H1646 0.999 . S
C1644 H1614 0.950 . S
C1644 C1643 1.524 . S
C1644 C1645 1.415 . S
C1645 H1615 0.950 . S
C1645 C1640 1.363 . S
C1645 C1644 1.415 . S
H1646 C1643 0.999 . S
H1647 C1628 0.913 . S
H1648 C1666 0.951 . S
H1649 C1668 0.951 . S
H1650 C1670 0.950 . S
H1651 C1671 0.950 . S
H1652 C1673 0.950 . S
H1653 C1676 0.950 . S
H1654 C1677 0.950 . S
H1655 C1679 0.950 . S
H1656 C1680 0.950 . S
H1657 C1681 0.951 . S
H1658 C1683 0.951 . S
H1659 C1685 0.950 . S
H1660 C1686 0.950 . S
H1661 C1688 0.950 . S
H1662 C1691 0.950 . S
H1663 C1692 0.950 . S
H1664 C1694 0.950 . S
H1665 C1695 0.950 . S
C1666 H1648 0.951 . S
C1666 C1667 1.366 . S
C1666 C1668 1.388 . S
C1667 C1666 1.366 . S
C1667 C1671 1.385 . S
C1668 H1649 0.951 . S
C1668 C1666 1.388 . S
C1668 C1669 1.366 . S
C1669 C1668 1.366 . S
C1669 C1670 1.414 . S
C1669 C1672 1.499 . S
C1670 H1650 0.950 . S
C1670 C1669 1.414 . S
C1670 C1671 1.374 . S
C1671 H1651 0.950 . S
C1671 C1667 1.385 . S
C1671 C1670 1.374 . S
C1672 C1669 1.499 . S
C1672 C1673 1.373 . S
C1672 C1674 1.389 . S
C1673 H1652 0.950 . S
C1673 C1672 1.373 . S
C1673 C1689 1.377 . S
C1674 C1672 1.389 . S
C1674 C1675 1.524 . S
C1674 C1688 1.377 . S
C1675 C1674 1.524 . S
C1675 C1676 1.397 . S
C1675 C1680 1.363 . S
C1676 H1653 0.950 . S
C1676 C1675 1.397 . S
C1676 C1677 1.334 . S
C1677 H1654 0.950 . S
C1677 C1676 1.334 . S
C1677 C1678 1.287 . S
C1678 C1677 1.287 . S
C1678 C1679 1.524 . S
C1678 H1697 0.913 . S
C1679 H1655 0.950 . S
C1679 C1678 1.524 . S
C1679 C1680 1.415 . S
C1680 H1656 0.950 . S
C1680 C1675 1.363 . S
C1680 C1679 1.415 . S
C1681 H1657 0.951 . S
C1681 C1682 1.366 . S
C1681 C1683 1.388 . S
C1682 C1681 1.366 . S
C1682 C1686 1.385 . S
C1683 H1658 0.951 . S
C1683 C1681 1.388 . S
C1683 C1684 1.366 . S
C1684 C1683 1.366 . S
C1684 C1685 1.414 . S
C1684 C1687 1.499 . S
C1685 H1659 0.950 . S
C1685 C1684 1.414 . S
C1685 C1686 1.374 . S
C1686 H1660 0.950 . S
C1686 C1682 1.385 . S
C1686 C1685 1.374 . S
C1687 C1684 1.499 . S
C1687 C1688 1.373 . S
C1687 C1689 1.389 . S
C1688 H1661 0.950 . S
C1688 C1674 1.377 . S
C1688 C1687 1.373 . S
C1689 C1673 1.377 . S
C1689 C1687 1.389 . S
C1689 C1690 1.524 . S
C1690 C1689 1.524 . S
C1690 C1691 1.397 . S
C1690 C1695 1.363 . S
C1691 H1662 0.950 . S
C1691 C1690 1.397 . S
C1691 C1692 1.334 . S
C1692 H1663 0.950 . S
C1692 C1691 1.334 . S
C1692 C1693 1.287 . S
C1693 C1692 1.287 . S
C1693 C1694 1.524 . S
C1693 H1696 0.999 . S
C1694 H1664 0.950 . S
C1694 C1693 1.524 . S
C1694 C1695 1.415 . S
C1695 H1665 0.950 . S
C1695 C1690 1.363 . S
C1695 C1694 1.415 . S
H1696 C1693 0.999 . S
H1697 C1678 0.913 . S
H1698 C1716 0.951 . S
H1699 C1718 0.951 . S
H1700 C1720 0.950 . S
H1701 C1721 0.950 . S
H1702 C1723 0.950 . S
H1703 C1726 0.950 . S
H1704 C1727 0.950 . S
H1705 C1729 0.950 . S
H1706 C1730 0.950 . S
H1707 C1731 0.951 . S
H1708 C1733 0.951 . S
H1709 C1735 0.950 . S
H1710 C1736 0.950 . S
H1711 C1738 0.950 . S
H1712 C1741 0.950 . S
H1713 C1742 0.950 . S
H1714 C1744 0.950 . S
H1715 C1745 0.950 . S
C1716 H1698 0.951 . S
C1716 C1717 1.366 . S
C1716 C1718 1.388 . S
C1717 C1716 1.366 . S
C1717 C1721 1.385 . S
C1718 H1699 0.951 . S
C1718 C1716 1.388 . S
C1718 C1719 1.366 . S
C1719 C1718 1.366 . S
C1719 C1720 1.414 . S
C1719 C1722 1.499 . S
C1720 H1700 0.950 . S
C1720 C1719 1.414 . S
C1720 C1721 1.374 . S
C1721 H1701 0.950 . S
C1721 C1717 1.385 . S
C1721 C1720 1.374 . S
C1722 C1719 1.499 . S
C1722 C1723 1.373 . S
C1722 C1724 1.389 . S
C1723 H1702 0.950 . S
C1723 C1722 1.373 . S
C1723 C1739 1.377 . S
C1724 C1722 1.389 . S
C1724 C1725 1.524 . S
C1724 C1738 1.377 . S
C1725 C1724 1.524 . S
C1725 C1726 1.397 . S
C1725 C1730 1.363 . S
C1726 H1703 0.950 . S
C1726 C1725 1.397 . S
C1726 C1727 1.334 . S
C1727 H1704 0.950 . S
C1727 C1726 1.334 . S
C1727 C1728 1.287 . S
C1728 C1727 1.287 . S
C1728 C1729 1.524 . S
C1728 H1747 0.913 . S
C1729 H1705 0.950 . S
C1729 C1728 1.524 . S
C1729 C1730 1.415 . S
C1730 H1706 0.950 . S
C1730 C1725 1.363 . S
C1730 C1729 1.415 . S
C1731 H1707 0.951 . S
C1731 C1732 1.366 . S
C1731 C1733 1.388 . S
C1732 C1731 1.366 . S
C1732 C1736 1.385 . S
C1733 H1708 0.951 . S
C1733 C1731 1.388 . S
C1733 C1734 1.366 . S
C1734 C1733 1.366 . S
C1734 C1735 1.414 . S
C1734 C1737 1.499 . S
C1735 H1709 0.950 . S
C1735 C1734 1.414 . S
C1735 C1736 1.374 . S
C1736 H1710 0.950 . S
C1736 C1732 1.385 . S
C1736 C1735 1.374 . S
C1737 C1734 1.499 . S
C1737 C1738 1.373 . S
C1737 C1739 1.389 . S
C1738 H1711 0.950 . S
C1738 C1724 1.377 . S
C1738 C1737 1.373 . S
C1739 C1723 1.377 . S
C1739 C1737 1.389 . S
C1739 C1740 1.524 . S
C1740 C1739 1.524 . S
C1740 C1741 1.397 . S
C1740 C1745 1.363 . S
C1741 H1712 0.950 . S
C1741 C1740 1.397 . S
C1741 C1742 1.334 . S
C1742 H1713 0.950 . S
C1742 C1741 1.334 . S
C1742 C1743 1.287 . S
C1743 C1742 1.287 . S
C1743 C1744 1.524 . S
C1743 H1746 0.999 . S
C1744 H1714 0.950 . S
C1744 C1743 1.524 . S
C1744 C1745 1.415 . S
C1745 H1715 0.950 . S
C1745 C1740 1.363 . S
C1745 C1744 1.415 . S
H1746 C1743 0.999 . S
H1747 C1728 0.913 . S
H1748 C1766 0.951 . S
H1749 C1768 0.951 . S
H1750 C1770 0.950 . S
H1751 C1771 0.950 . S
H1752 C1773 0.950 . S
H1753 C1776 0.950 . S
H1754 C1777 0.950 . S
H1755 C1779 0.950 . S
H1756 C1780 0.950 . S
H1757 C1781 0.951 . S
H1758 C1783 0.951 . S
H1759 C1785 0.950 . S
H1760 C1786 0.950 . S
H1761 C1788 0.950 . S
H1762 C1791 0.950 . S
H1763 C1792 0.950 . S
H1764 C1794 0.950 . S
H1765 C1795 0.950 . S
C1766 H1748 0.951 . S
C1766 C1767 1.366 . S
C1766 C1768 1.388 . S
C1767 C1766 1.366 . S
C1767 C1771 1.385 . S
C1768 H1749 0.951 . S
C1768 C1766 1.388 . S
C1768 C1769 1.366 . S
C1769 C1768 1.366 . S
C1769 C1770 1.414 . S
C1769 C1772 1.499 . S
C1770 H1750 0.950 . S
C1770 C1769 1.414 . S
C1770 C1771 1.374 . S
C1771 H1751 0.950 . S
C1771 C1767 1.385 . S
C1771 C1770 1.374 . S
C1772 C1769 1.499 . S
C1772 C1773 1.373 . S
C1772 C1774 1.389 . S
C1773 H1752 0.950 . S
C1773 C1772 1.373 . S
C1773 C1789 1.377 . S
C1774 C1772 1.389 . S
C1774 C1775 1.524 . S
C1774 C1788 1.377 . S
C1775 C1774 1.524 . S
C1775 C1776 1.397 . S
C1775 C1780 1.363 . S
C1776 H1753 0.950 . S
C1776 C1775 1.397 . S
C1776 C1777 1.334 . S
C1777 H1754 0.950 . S
C1777 C1776 1.334 . S
C1777 C1778 1.287 . S
C1778 C1777 1.287 . S
C1778 C1779 1.524 . S
C1778 H1797 0.913 . S
C1779 H1755 0.950 . S
C1779 C1778 1.524 . S
C1779 C1780 1.415 . S
C1780 H1756 0.950 . S
C1780 C1775 1.363 . S
C1780 C1779 1.415 . S
C1781 H1757 0.951 . S
C1781 C1782 1.366 . S
C1781 C1783 1.388 . S
C1782 C1781 1.366 . S
C1782 C1786 1.385 . S
C1783 H1758 0.951 . S
C1783 C1781 1.388 . S
C1783 C1784 1.366 . S
C1784 C1783 1.366 . S
C1784 C1785 1.414 . S
C1784 C1787 1.499 . S
C1785 H1759 0.950 . S
C1785 C1784 1.414 . S
C1785 C1786 1.374 . S
C1786 H1760 0.950 . S
C1786 C1782 1.385 . S
C1786 C1785 1.374 . S
C1787 C1784 1.499 . S
C1787 C1788 1.373 . S
C1787 C1789 1.389 . S
C1788 H1761 0.950 . S
C1788 C1774 1.377 . S
C1788 C1787 1.373 . S
C1789 C1773 1.377 . S
C1789 C1787 1.389 . S
C1789 C1790 1.524 . S
C1790 C1789 1.524 . S
C1790 C1791 1.397 . S
C1790 C1795 1.363 . S
C1791 H1762 0.950 . S
C1791 C1790 1.397 . S
C1791 C1792 1.334 . S
C1792 H1763 0.950 . S
C1792 C1791 1.334 . S
C1792 C1793 1.287 . S
C1793 C1792 1.287 . S
C1793 C1794 1.524 . S
C1793 H1796 0.999 . S
C1794 H1764 0.950 . S
C1794 C1793 1.524 . S
C1794 C1795 1.415 . S
C1795 H1765 0.950 . S
C1795 C1790 1.363 . S
C1795 C1794 1.415 . S
H1796 C1793 0.999 . S
H1797 C1778 0.913 . S
H1798 C1816 0.951 . S
H1799 C1818 0.951 . S
H1800 C1820 0.950 . S
H1801 C1821 0.950 . S
H1802 C1823 0.950 . S
H1803 C1826 0.950 . S
H1804 C1827 0.950 . S
H1805 C1829 0.950 . S
H1806 C1830 0.950 . S
H1807 C1831 0.951 . S
H1808 C1833 0.951 . S
H1809 C1835 0.950 . S
H1810 C1836 0.950 . S
H1811 C1838 0.950 . S
H1812 C1841 0.950 . S
H1813 C1842 0.950 . S
H1814 C1844 0.950 . S
H1815 C1845 0.950 . S
C1816 H1798 0.951 . S
C1816 C1817 1.366 . S
C1816 C1818 1.388 . S
C1817 C1816 1.366 . S
C1817 C1821 1.385 . S
C1818 H1799 0.951 . S
C1818 C1816 1.388 . S
C1818 C1819 1.366 . S
C1819 C1818 1.366 . S
C1819 C1820 1.414 . S
C1819 C1822 1.499 . S
C1820 H1800 0.950 . S
C1820 C1819 1.414 . S
C1820 C1821 1.374 . S
C1821 H1801 0.950 . S
C1821 C1817 1.385 . S
C1821 C1820 1.374 . S
C1822 C1819 1.499 . S
C1822 C1823 1.373 . S
C1822 C1824 1.389 . S
C1823 H1802 0.950 . S
C1823 C1822 1.373 . S
C1823 C1839 1.377 . S
C1824 C1822 1.389 . S
C1824 C1825 1.524 . S
C1824 C1838 1.377 . S
C1825 C1824 1.524 . S
C1825 C1826 1.397 . S
C1825 C1830 1.363 . S
C1826 H1803 0.950 . S
C1826 C1825 1.397 . S
C1826 C1827 1.334 . S
C1827 H1804 0.950 . S
C1827 C1826 1.334 . S
C1827 C1828 1.287 . S
C1828 C1827 1.287 . S
C1828 C1829 1.524 . S
C1828 H1847 0.913 . S
C1829 H1805 0.950 . S
C1829 C1828 1.524 . S
C1829 C1830 1.415 . S
C1830 H1806 0.950 . S
C1830 C1825 1.363 . S
C1830 C1829 1.415 . S
C1831 H1807 0.951 . S
C1831 C1832 1.366 . S
C1831 C1833 1.388 . S
C1832 C1831 1.366 . S
C1832 C1836 1.385 . S
C1833 H1808 0.951 . S
C1833 C1831 1.388 . S
C1833 C1834 1.366 . S
C1834 C1833 1.366 . S
C1834 C1835 1.414 . S
C1834 C1837 1.499 . S
C1835 H1809 0.950 . S
C1835 C1834 1.414 . S
C1835 C1836 1.374 . S
C1836 H1810 0.950 . S
C1836 C1832 1.385 . S
C1836 C1835 1.374 . S
C1837 C1834 1.499 . S
C1837 C1838 1.373 . S
C1837 C1839 1.389 . S
C1838 H1811 0.950 . S
C1838 C1824 1.377 . S
C1838 C1837 1.373 . S
C1839 C1823 1.377 . S
C1839 C1837 1.389 . S
C1839 C1840 1.524 . S
C1840 C1839 1.524 . S
C1840 C1841 1.397 . S
C1840 C1845 1.363 . S
C1841 H1812 0.950 . S
C1841 C1840 1.397 . S
C1841 C1842 1.334 . S
C1842 H1813 0.950 . S
C1842 C1841 1.334 . S
C1842 C1843 1.287 . S
C1843 C1842 1.287 . S
C1843 C1844 1.524 . S
C1843 H1846 0.999 . S
C1844 H1814 0.950 . S
C1844 C1843 1.524 . S
C1844 C1845 1.415 . S
C1845 H1815 0.950 . S
C1845 C1840 1.363 . S
C1845 C1844 1.415 . S
H1846 C1843 0.999 . S
H1847 C1828 0.913 . S
H1848 C1866 0.951 . S
H1849 C1868 0.951 . S
H1850 C1870 0.950 . S
H1851 C1871 0.950 . S
H1852 C1873 0.950 . S
H1853 C1876 0.950 . S
H1854 C1877 0.950 . S
H1855 C1879 0.950 . S
H1856 C1880 0.950 . S
H1857 C1881 0.951 . S
H1858 C1883 0.951 . S
H1859 C1885 0.950 . S
H1860 C1886 0.950 . S
H1861 C1888 0.950 . S
H1862 C1891 0.950 . S
H1863 C1892 0.950 . S
H1864 C1894 0.950 . S
H1865 C1895 0.950 . S
C1866 H1848 0.951 . S
C1866 C1867 1.366 . S
C1866 C1868 1.388 . S
C1867 C1866 1.366 . S
C1867 C1871 1.385 . S
C1868 H1849 0.951 . S
C1868 C1866 1.388 . S
C1868 C1869 1.366 . S
C1869 C1868 1.366 . S
C1869 C1870 1.414 . S
C1869 C1872 1.499 . S
C1870 H1850 0.950 . S
C1870 C1869 1.414 . S
C1870 C1871 1.374 . S
C1871 H1851 0.950 . S
C1871 C1867 1.385 . S
C1871 C1870 1.374 . S
C1872 C1869 1.499 . S
C1872 C1873 1.373 . S
C1872 C1874 1.389 . S
C1873 H1852 0.950 . S
C1873 C1872 1.373 . S
C1873 C1889 1.377 1_556 S
C1874 C1872 1.389 . S
C1874 C1875 1.524 . S
C1874 C1888 1.377 1_556 S
C1875 C1874 1.524 . S
C1875 C1876 1.397 . S
C1875 C1880 1.363 . S
C1876 H1853 0.950 . S
C1876 C1875 1.397 . S
C1876 C1877 1.334 . S
C1877 H1854 0.950 . S
C1877 C1876 1.334 . S
C1877 C1878 1.287 . S
C1878 C1877 1.287 . S
C1878 C1879 1.524 . S
C1878 H1897 0.913 . S
C1879 H1855 0.950 . S
C1879 C1878 1.524 . S
C1879 C1880 1.415 . S
C1880 H1856 0.950 . S
C1880 C1875 1.363 . S
C1880 C1879 1.415 . S
C1881 H1857 0.951 . S
C1881 C1882 1.366 . S
C1881 C1883 1.388 . S
C1882 C1881 1.366 . S
C1882 C1886 1.385 . S
C1883 H1858 0.951 . S
C1883 C1881 1.388 . S
C1883 C1884 1.366 . S
C1884 C1883 1.366 . S
C1884 C1885 1.414 . S
C1884 C1887 1.499 . S
C1885 H1859 0.950 . S
C1885 C1884 1.414 . S
C1885 C1886 1.374 . S
C1886 H1860 0.950 . S
C1886 C1882 1.385 . S
C1886 C1885 1.374 . S
C1887 C1884 1.499 . S
C1887 C1888 1.373 . S
C1887 C1889 1.389 . S
C1888 H1861 0.950 . S
C1888 C1874 1.377 1_554 S
C1888 C1887 1.373 . S
C1889 C1873 1.377 1_554 S
C1889 C1887 1.389 . S
C1889 C1890 1.524 . S
C1890 C1889 1.524 . S
C1890 C1891 1.397 . S
C1890 C1895 1.363 . S
C1891 H1862 0.950 . S
C1891 C1890 1.397 . S
C1891 C1892 1.334 . S
C1892 H1863 0.950 . S
C1892 C1891 1.334 . S
C1892 C1893 1.287 . S
C1893 C1892 1.287 . S
C1893 C1894 1.524 . S
C1893 H1896 0.999 . S
C1894 H1864 0.950 . S
C1894 C1893 1.524 . S
C1894 C1895 1.415 . S
C1895 H1865 0.950 . S
C1895 C1890 1.363 . S
C1895 C1894 1.415 . S
H1896 C1893 0.999 . S
H1897 C1878 0.913 . S
H1898 C1916 0.951 . S
H1899 C1918 0.951 . S
H1900 C1920 0.950 . S
H1901 C1921 0.950 . S
H1902 C1923 0.950 . S
H1903 C1926 0.950 . S
H1904 C1927 0.950 . S
H1905 C1929 0.950 . S
H1906 C1930 0.950 . S
H1907 C1931 0.951 . S
H1908 C1933 0.951 . S
H1909 C1935 0.950 . S
H1910 C1936 0.950 . S
H1911 C1938 0.950 . S
H1912 C1941 0.950 . S
H1913 C1942 0.950 . S
H1914 C1944 0.950 . S
H1915 C1945 0.950 . S
C1916 H1898 0.951 . S
C1916 C1917 1.366 . S
C1916 C1918 1.388 . S
C1917 C1916 1.366 . S
C1917 C1921 1.385 . S
C1918 H1899 0.951 . S
C1918 C1916 1.388 . S
C1918 C1919 1.366 . S
C1919 C1918 1.366 . S
C1919 C1920 1.414 . S
C1919 C1922 1.499 . S
C1920 H1900 0.950 . S
C1920 C1919 1.414 . S
C1920 C1921 1.374 . S
C1921 H1901 0.950 . S
C1921 C1917 1.385 . S
C1921 C1920 1.374 . S
C1922 C1919 1.499 . S
C1922 C1923 1.373 . S
C1922 C1924 1.389 . S
C1923 H1902 0.950 . S
C1923 C1922 1.373 . S
C1923 C1939 1.377 1_554 S
C1924 C1922 1.389 . S
C1924 C1925 1.524 . S
C1924 C1938 1.377 1_554 S
C1925 C1924 1.524 . S
C1925 C1926 1.397 . S
C1925 C1930 1.363 . S
C1926 H1903 0.950 . S
C1926 C1925 1.397 . S
C1926 C1927 1.334 . S
C1927 H1904 0.950 . S
C1927 C1926 1.334 . S
C1927 C1928 1.287 . S
C1928 C1927 1.287 . S
C1928 C1929 1.524 . S
C1928 H1947 0.913 . S
C1929 H1905 0.950 . S
C1929 C1928 1.524 . S
C1929 C1930 1.415 . S
C1930 H1906 0.950 . S
C1930 C1925 1.363 . S
C1930 C1929 1.415 . S
C1931 H1907 0.951 . S
C1931 C1932 1.366 . S
C1931 C1933 1.388 . S
C1932 C1931 1.366 . S
C1932 C1936 1.385 . S
C1933 H1908 0.951 . S
C1933 C1931 1.388 . S
C1933 C1934 1.366 . S
C1934 C1933 1.366 . S
C1934 C1935 1.414 . S
C1934 C1937 1.499 . S
C1935 H1909 0.950 . S
C1935 C1934 1.414 . S
C1935 C1936 1.374 . S
C1936 H1910 0.950 . S
C1936 C1932 1.385 . S
C1936 C1935 1.374 . S
C1937 C1934 1.499 . S
C1937 C1938 1.373 . S
C1937 C1939 1.389 . S
C1938 H1911 0.950 . S
C1938 C1924 1.377 1_556 S
C1938 C1937 1.373 . S
C1939 C1923 1.377 1_556 S
C1939 C1937 1.389 . S
C1939 C1940 1.524 . S
C1940 C1939 1.524 . S
C1940 C1941 1.397 . S
C1940 C1945 1.363 . S
C1941 H1912 0.950 . S
C1941 C1940 1.397 . S
C1941 C1942 1.334 . S
C1942 H1913 0.950 . S
C1942 C1941 1.334 . S
C1942 C1943 1.287 . S
C1943 C1942 1.287 . S
C1943 C1944 1.524 . S
C1943 H1946 0.999 . S
C1944 H1914 0.950 . S
C1944 C1943 1.524 . S
C1944 C1945 1.415 . S
C1945 H1915 0.950 . S
C1945 C1940 1.363 . S
C1945 C1944 1.415 . S
H1946 C1943 0.999 . S
H1947 C1928 0.913 . S
H1948 C1966 0.951 . S
H1949 C1968 0.951 . S
H1950 C1970 0.950 . S
H1951 C1971 0.950 . S
H1952 C1973 0.950 . S
H1953 C1976 0.950 . S
H1954 C1977 0.950 . S
H1955 C1979 0.950 . S
H1956 C1980 0.950 . S
H1957 C1981 0.951 . S
H1958 C1983 0.951 . S
H1959 C1985 0.950 . S
H1960 C1986 0.950 . S
H1961 C1988 0.950 . S
H1962 C1991 0.950 . S
H1963 C1992 0.950 . S
H1964 C1994 0.950 . S
H1965 C1995 0.950 . S
C1966 H1948 0.951 . S
C1966 C1967 1.366 . S
C1966 C1968 1.388 . S
C1967 C1966 1.366 . S
C1967 C1971 1.385 . S
C1968 H1949 0.951 . S
C1968 C1966 1.388 . S
C1968 C1969 1.366 . S
C1969 C1968 1.366 . S
C1969 C1970 1.414 . S
C1969 C1972 1.499 . S
C1970 H1950 0.950 . S
C1970 C1969 1.414 . S
C1970 C1971 1.374 . S
C1971 H1951 0.950 . S
C1971 C1967 1.385 . S
C1971 C1970 1.374 . S
C1972 C1969 1.499 . S
C1972 C1973 1.373 . S
C1972 C1974 1.389 . S
C1973 H1952 0.950 . S
C1973 C1972 1.373 . S
C1973 C1989 1.377 1_554 S
C1974 C1972 1.389 . S
C1974 C1975 1.524 . S
C1974 C1988 1.377 1_554 S
C1975 C1974 1.524 . S
C1975 C1976 1.397 . S
C1975 C1980 1.363 . S
C1976 H1953 0.950 . S
C1976 C1975 1.397 . S
C1976 C1977 1.334 . S
C1977 H1954 0.950 . S
C1977 C1976 1.334 . S
C1977 C1978 1.287 . S
C1978 C1977 1.287 . S
C1978 C1979 1.524 . S
C1978 H1997 0.913 . S
C1979 H1955 0.950 . S
C1979 C1978 1.524 . S
C1979 C1980 1.415 . S
C1980 H1956 0.950 . S
C1980 C1975 1.363 . S
C1980 C1979 1.415 . S
C1981 H1957 0.951 . S
C1981 C1982 1.366 . S
C1981 C1983 1.388 . S
C1982 C1981 1.366 . S
C1982 C1986 1.385 . S
C1983 H1958 0.951 . S
C1983 C1981 1.388 . S
C1983 C1984 1.366 . S
C1984 C1983 1.366 . S
C1984 C1985 1.414 . S
C1984 C1987 1.499 . S
C1985 H1959 0.950 . S
C1985 C1984 1.414 . S
C1985 C1986 1.374 . S
C1986 H1960 0.950 . S
C1986 C1982 1.385 . S
C1986 C1985 1.374 . S
C1987 C1984 1.499 . S
C1987 C1988 1.373 . S
C1987 C1989 1.389 . S
C1988 H1961 0.950 . S
C1988 C1974 1.377 1_556 S
C1988 C1987 1.373 . S
C1989 C1973 1.377 1_556 S
C1989 C1987 1.389 . S
C1989 C1990 1.524 . S
C1990 C1989 1.524 . S
C1990 C1991 1.397 . S
C1990 C1995 1.363 . S
C1991 H1962 0.950 . S
C1991 C1990 1.397 . S
C1991 C1992 1.334 . S
C1992 H1963 0.950 . S
C1992 C1991 1.334 . S
C1992 C1993 1.287 . S
C1993 C1992 1.287 . S
C1993 C1994 1.524 . S
C1993 H1996 0.999 . S
C1994 H1964 0.950 . S
C1994 C1993 1.524 . S
C1994 C1995 1.415 . S
C1995 H1965 0.950 . S
C1995 C1990 1.363 . S
C1995 C1994 1.415 . S
H1996 C1993 0.999 . S
H1997 C1978 0.913 . S
H1998 C2016 0.951 . S
H1999 C2018 0.951 . S
H2000 C2020 0.950 . S
H2001 C2021 0.950 . S
H2002 C2023 0.950 . S
H2003 C2026 0.950 . S
H2004 C2027 0.950 . S
H2005 C2029 0.950 . S
H2006 C2030 0.950 . S
H2007 C2031 0.951 . S
H2008 C2033 0.951 . S
H2009 C2035 0.950 . S
H2010 C2036 0.950 . S
H2011 C2038 0.950 . S
H2012 C2041 0.950 . S
H2013 C2042 0.950 . S
H2014 C2044 0.950 . S
H2015 C2045 0.950 . S
C2016 H1998 0.951 . S
C2016 C2017 1.366 . S
C2016 C2018 1.388 . S
C2017 C2016 1.366 . S
C2017 C2021 1.385 . S
C2018 H1999 0.951 . S
C2018 C2016 1.388 . S
C2018 C2019 1.366 . S
C2019 C2018 1.366 . S
C2019 C2020 1.414 . S
C2019 C2022 1.499 . S
C2020 H2000 0.950 . S
C2020 C2019 1.414 . S
C2020 C2021 1.374 . S
C2021 H2001 0.950 . S
C2021 C2017 1.385 . S
C2021 C2020 1.374 . S
C2022 C2019 1.499 . S
C2022 C2023 1.373 . S
C2022 C2024 1.389 . S
C2023 H2002 0.950 . S
C2023 C2022 1.373 . S
C2023 C2039 1.377 1_556 S
C2024 C2022 1.389 . S
C2024 C2025 1.524 . S
C2024 C2038 1.377 1_556 S
C2025 C2024 1.524 . S
C2025 C2026 1.397 . S
C2025 C2030 1.363 . S
C2026 H2003 0.950 . S
C2026 C2025 1.397 . S
C2026 C2027 1.334 . S
C2027 H2004 0.950 . S
C2027 C2026 1.334 . S
C2027 C2028 1.287 . S
C2028 C2027 1.287 . S
C2028 C2029 1.524 . S
C2028 H2047 0.913 . S
C2029 H2005 0.950 . S
C2029 C2028 1.524 . S
C2029 C2030 1.415 . S
C2030 H2006 0.950 . S
C2030 C2025 1.363 . S
C2030 C2029 1.415 . S
C2031 H2007 0.951 . S
C2031 C2032 1.366 . S
C2031 C2033 1.388 . S
C2032 C2031 1.366 . S
C2032 C2036 1.385 . S
C2033 H2008 0.951 . S
C2033 C2031 1.388 . S
C2033 C2034 1.366 . S
C2034 C2033 1.366 . S
C2034 C2035 1.414 . S
C2034 C2037 1.499 . S
C2035 H2009 0.950 . S
C2035 C2034 1.414 . S
C2035 C2036 1.374 . S
C2036 H2010 0.950 . S
C2036 C2032 1.385 . S
C2036 C2035 1.374 . S
C2037 C2034 1.499 . S
C2037 C2038 1.373 . S
C2037 C2039 1.389 . S
C2038 H2011 0.950 . S
C2038 C2024 1.377 1_554 S
C2038 C2037 1.373 . S
C2039 C2023 1.377 1_554 S
C2039 C2037 1.389 . S
C2039 C2040 1.524 . S
C2040 C2039 1.524 . S
C2040 C2041 1.397 . S
C2040 C2045 1.363 . S
C2041 H2012 0.950 . S
C2041 C2040 1.397 . S
C2041 C2042 1.334 . S
C2042 H2013 0.950 . S
C2042 C2041 1.334 . S
C2042 C2043 1.287 . S
C2043 C2042 1.287 . S
C2043 C2044 1.524 . S
C2043 H2046 0.999 . S
C2044 H2014 0.950 . S
C2044 C2043 1.524 . S
C2044 C2045 1.415 . S
C2045 H2015 0.950 . S
C2045 C2040 1.363 . S
C2045 C2044 1.415 . S
H2046 C2043 0.999 . S
H2047 C2028 0.913 . S
H2048 C2066 0.951 . S
H2049 C2068 0.951 . S
H2050 C2070 0.950 . S
H2051 C2071 0.950 . S
H2052 C2073 0.950 . S
H2053 C2076 0.953 . S
H2054 C2077 0.945 1_545 S
H2055 C2079 0.950 . S
H2056 C2080 0.950 . S
H2057 C2081 0.951 . S
H2058 C2083 0.951 . S
H2059 C2085 0.950 . S
H2060 C2086 0.950 . S
H2061 C2088 0.950 . S
H2062 C2091 0.953 . S
H2063 C2092 0.945 1_565 S
H2064 C2094 0.950 . S
H2065 C2095 0.950 . S
C2066 H2048 0.951 . S
C2066 C2067 1.366 . S
C2066 C2068 1.388 . S
C2067 C2066 1.366 . S
C2067 C2071 1.385 . S
C2068 H2049 0.951 . S
C2068 C2066 1.388 . S
C2068 C2069 1.366 . S
C2069 C2068 1.366 . S
C2069 C2070 1.414 . S
C2069 C2072 1.499 . S
C2070 H2050 0.950 . S
C2070 C2069 1.414 . S
C2070 C2071 1.374 . S
C2071 H2051 0.950 . S
C2071 C2067 1.385 . S
C2071 C2070 1.374 . S
C2072 C2069 1.499 . S
C2072 C2073 1.373 . S
C2072 C2074 1.399 . S
C2073 H2052 0.950 . S
C2073 C2072 1.373 . S
C2073 C2089 1.367 1_545 S
C2074 C2072 1.399 . S
C2074 C2075 1.524 1_545 S
C2074 C2088 1.367 1_545 S
C2075 C2074 1.524 1_565 S
C2075 C2076 1.395 1_565 S
C2075 C2080 1.363 . S
C2076 H2053 0.953 . S
C2076 C2075 1.395 1_545 S
C2076 C2077 1.333 1_545 S
C2077 H2054 0.945 1_565 S
C2077 C2076 1.333 1_565 S
C2077 C2078 1.287 . S
C2078 C2077 1.287 . S
C2078 C2079 1.524 . S
C2078 H2097 0.913 . S
C2079 H2055 0.950 . S
C2079 C2078 1.524 . S
C2079 C2080 1.415 . S
C2080 H2056 0.950 . S
C2080 C2075 1.363 . S
C2080 C2079 1.415 . S
C2081 H2057 0.951 . S
C2081 C2082 1.366 . S
C2081 C2083 1.388 . S
C2082 C2081 1.366 . S
C2082 C2086 1.385 . S
C2083 H2058 0.951 . S
C2083 C2081 1.388 . S
C2083 C2084 1.366 . S
C2084 C2083 1.366 . S
C2084 C2085 1.414 . S
C2084 C2087 1.499 . S
C2085 H2059 0.950 . S
C2085 C2084 1.414 . S
C2085 C2086 1.374 . S
C2086 H2060 0.950 . S
C2086 C2082 1.385 . S
C2086 C2085 1.374 . S
C2087 C2084 1.499 . S
C2087 C2088 1.373 . S
C2087 C2089 1.399 . S
C2088 H2061 0.950 . S
C2088 C2074 1.367 1_565 S
C2088 C2087 1.373 . S
C2089 C2073 1.367 1_565 S
C2089 C2087 1.399 . S
C2089 C2090 1.524 1_565 S
C2090 C2089 1.524 1_545 S
C2090 C2091 1.395 1_545 S
C2090 C2095 1.363 . S
C2091 H2062 0.953 . S
C2091 C2090 1.395 1_565 S
C2091 C2092 1.333 1_565 S
C2092 H2063 0.945 1_545 S
C2092 C2091 1.333 1_545 S
C2092 C2093 1.287 . S
C2093 C2092 1.287 . S
C2093 C2094 1.524 . S
C2093 H2096 0.999 . S
C2094 H2064 0.950 . S
C2094 C2093 1.524 . S
C2094 C2095 1.415 . S
C2095 H2065 0.950 . S
C2095 C2090 1.363 . S
C2095 C2094 1.415 . S
H2096 C2093 0.999 . S
H2097 C2078 0.913 . S
H2098 C2116 0.951 . S
H2099 C2118 0.951 . S
H2100 C2120 0.950 . S
H2101 C2121 0.950 . S
H2102 C2123 0.950 . S
H2103 C2126 0.950 . S
H2104 C2127 0.950 . S
H2105 C2129 0.950 . S
H2106 C2130 0.950 . S
H2107 C2131 0.951 . S
H2108 C2133 0.951 . S
H2109 C2135 0.950 . S
H2110 C2136 0.950 . S
H2111 C2138 0.950 . S
H2112 C2141 0.950 . S
H2113 C2142 0.950 . S
H2114 C2144 0.950 . S
H2115 C2145 0.950 . S
C2116 H2098 0.951 . S
C2116 C2117 1.366 . S
C2116 C2118 1.388 . S
C2117 C2116 1.366 . S
C2117 C2121 1.385 . S
C2118 H2099 0.951 . S
C2118 C2116 1.388 . S
C2118 C2119 1.366 . S
C2119 C2118 1.366 . S
C2119 C2120 1.414 . S
C2119 C2122 1.499 . S
C2120 H2100 0.950 . S
C2120 C2119 1.414 . S
C2120 C2121 1.374 . S
C2121 H2101 0.950 . S
C2121 C2117 1.385 . S
C2121 C2120 1.374 . S
C2122 C2119 1.499 . S
C2122 C2123 1.373 . S
C2122 C2124 1.395 1_655 S
C2123 H2102 0.950 . S
C2123 C2122 1.373 . S
C2123 C2139 1.371 . S
C2124 C2122 1.395 1_455 S
C2124 C2125 1.523 . S
C2124 C2138 1.371 . S
C2125 C2124 1.523 . S
C2125 C2126 1.358 1_455 S
C2125 C2130 1.407 . S
C2126 H2103 0.950 . S
C2126 C2125 1.358 1_655 S
C2126 C2127 1.334 . S
C2127 H2104 0.950 . S
C2127 C2126 1.334 . S
C2127 C2128 1.245 1_655 S
C2128 C2127 1.245 1_455 S
C2128 C2129 1.566 . S
C2128 H2147 0.913 . S
C2129 H2105 0.950 . S
C2129 C2128 1.566 . S
C2129 C2130 1.415 . S
C2130 H2106 0.950 . S
C2130 C2125 1.407 . S
C2130 C2129 1.415 . S
C2131 H2107 0.951 . S
C2131 C2132 1.366 . S
C2131 C2133 1.388 . S
C2132 C2131 1.366 . S
C2132 C2136 1.385 . S
C2133 H2108 0.951 . S
C2133 C2131 1.388 . S
C2133 C2134 1.366 . S
C2134 C2133 1.366 . S
C2134 C2135 1.414 . S
C2134 C2137 1.499 . S
C2135 H2109 0.950 . S
C2135 C2134 1.414 . S
C2135 C2136 1.374 . S
C2136 H2110 0.950 . S
C2136 C2132 1.385 . S
C2136 C2135 1.374 . S
C2137 C2134 1.499 . S
C2137 C2138 1.373 . S
C2137 C2139 1.395 1_455 S
C2138 H2111 0.950 . S
C2138 C2124 1.371 . S
C2138 C2137 1.373 . S
C2139 C2123 1.371 . S
C2139 C2137 1.395 1_655 S
C2139 C2140 1.523 . S
C2140 C2139 1.523 . S
C2140 C2141 1.358 1_655 S
C2140 C2145 1.407 . S
C2141 H2112 0.950 . S
C2141 C2140 1.358 1_455 S
C2141 C2142 1.334 . S
C2142 H2113 0.950 . S
C2142 C2141 1.334 . S
C2142 C2143 1.245 1_455 S
C2143 C2142 1.245 1_655 S
C2143 C2144 1.566 . S
C2143 H2146 1.003 . S
C2144 H2114 0.950 . S
C2144 C2143 1.566 . S
C2144 C2145 1.415 . S
C2145 H2115 0.950 . S
C2145 C2140 1.407 . S
C2145 C2144 1.415 . S
H2146 C2143 1.003 . S
H2147 C2128 0.913 . S
H2148 C2166 0.951 . S
H2149 C2168 0.951 . S
H2150 C2170 0.950 . S
H2151 C2171 0.950 . S
H2152 C2173 0.950 . S
H2153 C2176 0.942 1_545 S
H2154 C2177 0.926 1_545 S
H2155 C2179 0.950 . S
H2156 C2180 0.950 . S
H2157 C2181 0.951 . S
H2158 C2183 0.951 . S
H2159 C2185 0.950 . S
H2160 C2186 0.950 . S
H2161 C2188 0.950 . S
H2162 C2191 0.942 1_565 S
H2163 C2192 0.926 1_565 S
H2164 C2194 0.950 . S
H2165 C2195 0.950 . S
C2166 H2148 0.951 . S
C2166 C2167 1.366 . S
C2166 C2168 1.388 . S
C2167 C2166 1.366 . S
C2167 C2171 1.385 . S
C2168 H2149 0.951 . S
C2168 C2166 1.388 . S
C2168 C2169 1.366 . S
C2169 C2168 1.366 . S
C2169 C2170 1.414 . S
C2169 C2172 1.499 . S
C2170 H2150 0.950 . S
C2170 C2169 1.414 . S
C2170 C2171 1.374 . S
C2171 H2151 0.950 . S
C2171 C2167 1.385 . S
C2171 C2170 1.374 . S
C2172 C2169 1.499 . S
C2172 C2173 1.373 . S
C2172 C2174 1.389 1_545 S
C2173 H2152 0.950 . S
C2173 C2172 1.373 . S
C2173 C2189 1.377 . S
C2174 C2172 1.389 1_565 S
C2174 C2175 1.524 . S
C2174 C2188 1.377 . S
C2175 C2174 1.524 . S
C2175 C2176 1.401 . S
C2175 C2180 1.363 . S
C2176 H2153 0.942 1_565 S
C2176 C2175 1.401 . S
C2176 C2177 1.337 . S
C2177 H2154 0.926 1_565 S
C2177 C2176 1.337 . S
C2177 C2178 1.287 . S
C2178 C2177 1.287 . S
C2178 C2179 1.524 . S
C2178 H2197 0.913 . S
C2179 H2155 0.950 . S
C2179 C2178 1.524 . S
C2179 C2180 1.415 . S
C2180 H2156 0.950 . S
C2180 C2175 1.363 . S
C2180 C2179 1.415 . S
C2181 H2157 0.951 . S
C2181 C2182 1.366 . S
C2181 C2183 1.388 . S
C2182 C2181 1.366 . S
C2182 C2186 1.385 . S
C2183 H2158 0.951 . S
C2183 C2181 1.388 . S
C2183 C2184 1.366 . S
C2184 C2183 1.366 . S
C2184 C2185 1.414 . S
C2184 C2187 1.499 . S
C2185 H2159 0.950 . S
C2185 C2184 1.414 . S
C2185 C2186 1.374 . S
C2186 H2160 0.950 . S
C2186 C2182 1.385 . S
C2186 C2185 1.374 . S
C2187 C2184 1.499 . S
C2187 C2188 1.373 . S
C2187 C2189 1.389 1_565 S
C2188 H2161 0.950 . S
C2188 C2174 1.377 . S
C2188 C2187 1.373 . S
C2189 C2173 1.377 . S
C2189 C2187 1.389 1_545 S
C2189 C2190 1.524 . S
C2190 C2189 1.524 . S
C2190 C2191 1.401 . S
C2190 C2195 1.363 . S
C2191 H2162 0.942 1_545 S
C2191 C2190 1.401 . S
C2191 C2192 1.337 . S
C2192 H2163 0.926 1_545 S
C2192 C2191 1.337 . S
C2192 C2193 1.287 . S
C2193 C2192 1.287 . S
C2193 C2194 1.524 . S
C2193 H2196 0.999 . S
C2194 H2164 0.950 . S
C2194 C2193 1.524 . S
C2194 C2195 1.415 . S
C2195 H2165 0.950 . S
C2195 C2190 1.363 . S
C2195 C2194 1.415 . S
H2196 C2193 0.999 . S
H2197 C2178 0.913 . S
H2198 C2216 0.951 . S
H2199 C2218 0.951 . S
H2200 C2220 0.950 . S
H2201 C2221 0.950 . S
H2202 C2223 0.950 . S
H2203 C2226 0.950 . S
H2204 C2227 0.950 . S
H2205 C2229 0.950 . S
H2206 C2230 0.950 . S
H2207 C2231 0.951 . S
H2208 C2233 0.951 . S
H2209 C2235 0.950 . S
H2210 C2236 0.950 . S
H2211 C2238 0.950 . S
H2212 C2241 0.950 . S
H2213 C2242 0.950 . S
H2214 C2244 0.950 . S
H2215 C2245 0.950 . S
C2216 H2198 0.951 . S
C2216 C2217 1.366 . S
C2216 C2218 1.388 . S
C2217 C2216 1.366 . S
C2217 C2221 1.385 . S
C2218 H2199 0.951 . S
C2218 C2216 1.388 . S
C2218 C2219 1.366 . S
C2219 C2218 1.366 . S
C2219 C2220 1.414 . S
C2219 C2222 1.499 . S
C2220 H2200 0.950 . S
C2220 C2219 1.414 . S
C2220 C2221 1.374 . S
C2221 H2201 0.950 . S
C2221 C2217 1.385 . S
C2221 C2220 1.374 . S
C2222 C2219 1.499 . S
C2222 C2223 1.359 1_455 S
C2222 C2224 1.389 . S
C2223 H2202 0.950 . S
C2223 C2222 1.359 1_655 S
C2223 C2239 1.390 . S
C2224 C2222 1.389 . S
C2224 C2225 1.524 . S
C2224 C2238 1.390 . S
C2225 C2224 1.524 . S
C2225 C2226 1.397 . S
C2225 C2230 1.363 . S
C2226 H2203 0.950 . S
C2226 C2225 1.397 . S
C2226 C2227 1.334 . S
C2227 H2204 0.950 . S
C2227 C2226 1.334 . S
C2227 C2228 1.287 . S
C2228 C2227 1.287 . S
C2228 C2229 1.524 . S
C2228 H2247 0.913 . S
C2229 H2205 0.950 . S
C2229 C2228 1.524 . S
C2229 C2230 1.415 . S
C2230 H2206 0.950 . S
C2230 C2225 1.363 . S
C2230 C2229 1.415 . S
C2231 H2207 0.951 . S
C2231 C2232 1.366 . S
C2231 C2233 1.388 . S
C2232 C2231 1.366 . S
C2232 C2236 1.385 . S
C2233 H2208 0.951 . S
C2233 C2231 1.388 . S
C2233 C2234 1.366 . S
C2234 C2233 1.366 . S
C2234 C2235 1.414 . S
C2234 C2237 1.499 . S
C2235 H2209 0.950 . S
C2235 C2234 1.414 . S
C2235 C2236 1.374 . S
C2236 H2210 0.950 . S
C2236 C2232 1.385 . S
C2236 C2235 1.374 . S
C2237 C2234 1.499 . S
C2237 C2238 1.359 1_655 S
C2237 C2239 1.389 . S
C2238 H2211 0.950 . S
C2238 C2224 1.390 . S
C2238 C2237 1.359 1_455 S
C2239 C2223 1.390 . S
C2239 C2237 1.389 . S
C2239 C2240 1.524 . S
C2240 C2239 1.524 . S
C2240 C2241 1.397 . S
C2240 C2245 1.363 . S
C2241 H2212 0.950 . S
C2241 C2240 1.397 . S
C2241 C2242 1.334 . S
C2242 H2213 0.950 . S
C2242 C2241 1.334 . S
C2242 C2243 1.287 . S
C2243 C2242 1.287 . S
C2243 C2244 1.524 . S
C2243 H2246 0.999 . S
C2244 H2214 0.950 . S
C2244 C2243 1.524 . S
C2244 C2245 1.415 . S
C2245 H2215 0.950 . S
C2245 C2240 1.363 . S
C2245 C2244 1.415 . S
H2246 C2243 0.999 . S
H2247 C2228 0.913 . S
H2248 C2266 0.951 . S
H2249 C2268 0.951 . S
H2250 C2270 0.950 . S
H2251 C2271 0.950 . S
H2252 C2273 0.950 . S
H2253 C2276 0.970 . S
H2254 C2277 0.950 1_565 S
H2255 C2279 0.950 . S
H2256 C2280 0.950 . S
H2257 C2281 0.951 . S
H2258 C2283 0.951 . S
H2259 C2285 0.950 . S
H2260 C2286 0.950 . S
H2261 C2288 0.950 . S
H2262 C2291 0.969 . S
H2263 C2292 0.950 1_545 S
H2264 C2294 0.950 . S
H2265 C2295 0.950 . S
C2266 H2248 0.951 . S
C2266 C2267 1.366 . S
C2266 C2268 1.388 . S
C2267 C2266 1.366 . S
C2267 C2271 1.385 . S
C2268 H2249 0.951 . S
C2268 C2266 1.388 . S
C2268 C2269 1.366 . S
C2269 C2268 1.366 . S
C2269 C2270 1.414 . S
C2269 C2272 1.499 . S
C2270 H2250 0.950 . S
C2270 C2269 1.414 . S
C2270 C2271 1.374 . S
C2271 H2251 0.950 . S
C2271 C2267 1.385 . S
C2271 C2270 1.374 . S
C2272 C2269 1.499 . S
C2272 C2273 1.373 . S
C2272 C2274 1.389 1_565 S
C2273 H2252 0.950 . S
C2273 C2272 1.373 . S
C2273 C2289 1.377 . S
C2274 C2272 1.389 1_545 S
C2274 C2275 1.524 . S
C2274 C2288 1.377 . S
C2275 C2274 1.524 . S
C2275 C2276 1.384 1_545 S
C2275 C2280 1.363 . S
C2276 H2253 0.970 . S
C2276 C2275 1.384 1_565 S
C2276 C2277 1.328 1_565 S
C2277 H2254 0.950 1_545 S
C2277 C2276 1.328 1_545 S
C2277 C2278 1.287 . S
C2278 C2277 1.287 . S
C2278 C2279 1.524 . S
C2278 H2297 0.913 . S
C2279 H2255 0.950 . S
C2279 C2278 1.524 . S
C2279 C2280 1.415 . S
C2280 H2256 0.950 . S
C2280 C2275 1.363 . S
C2280 C2279 1.415 . S
C2281 H2257 0.951 . S
C2281 C2282 1.366 . S
C2281 C2283 1.388 . S
C2282 C2281 1.366 . S
C2282 C2286 1.385 . S
C2283 H2258 0.951 . S
C2283 C2281 1.388 . S
C2283 C2284 1.366 . S
C2284 C2283 1.366 . S
C2284 C2285 1.414 . S
C2284 C2287 1.499 . S
C2285 H2259 0.950 . S
C2285 C2284 1.414 . S
C2285 C2286 1.374 . S
C2286 H2260 0.950 . S
C2286 C2282 1.385 . S
C2286 C2285 1.374 . S
C2287 C2284 1.499 . S
C2287 C2288 1.373 . S
C2287 C2289 1.389 1_545 S
C2288 H2261 0.950 . S
C2288 C2274 1.377 . S
C2288 C2287 1.373 . S
C2289 C2273 1.377 . S
C2289 C2287 1.389 1_565 S
C2289 C2290 1.524 . S
C2290 C2289 1.524 . S
C2290 C2291 1.384 1_565 S
C2290 C2295 1.363 . S
C2291 H2262 0.969 . S
C2291 C2290 1.384 1_545 S
C2291 C2292 1.328 1_545 S
C2292 H2263 0.950 1_565 S
C2292 C2291 1.328 1_565 S
C2292 C2293 1.287 . S
C2293 C2292 1.287 . S
C2293 C2294 1.524 . S
C2293 H2296 0.999 . S
C2294 H2264 0.950 . S
C2294 C2293 1.524 . S
C2294 C2295 1.415 . S
C2295 H2265 0.950 . S
C2295 C2290 1.363 . S
C2295 C2294 1.415 . S
H2296 C2293 0.999 . S
H2297 C2278 0.913 . S
H2298 C2316 0.951 . S
H2299 C2318 0.951 . S
H2300 C2320 0.950 . S
H2301 C2321 0.950 . S
H2302 C2323 0.950 . S
H2303 C2326 0.950 . S
H2304 C2327 0.950 . S
H2305 C2329 0.950 . S
H2306 C2330 0.950 . S
H2307 C2331 0.951 . S
H2308 C2333 0.951 . S
H2309 C2335 0.950 . S
H2310 C2336 0.950 . S
H2311 C2338 0.950 . S
H2312 C2341 0.950 . S
H2313 C2342 0.950 . S
H2314 C2344 0.950 . S
H2315 C2345 0.950 . S
C2316 H2298 0.951 . S
C2316 C2317 1.366 . S
C2316 C2318 1.388 . S
C2317 C2316 1.366 . S
C2317 C2321 1.385 . S
C2318 H2299 0.951 . S
C2318 C2316 1.388 . S
C2318 C2319 1.366 . S
C2319 C2318 1.366 . S
C2319 C2320 1.414 . S
C2319 C2322 1.499 . S
C2320 H2300 0.950 . S
C2320 C2319 1.414 . S
C2320 C2321 1.374 . S
C2321 H2301 0.950 . S
C2321 C2317 1.385 . S
C2321 C2320 1.374 . S
C2322 C2319 1.499 . S
C2322 C2323 1.373 . S
C2322 C2324 1.389 . S
C2323 H2302 0.950 . S
C2323 C2322 1.373 . S
C2323 C2339 1.377 1_655 S
C2324 C2322 1.389 . S
C2324 C2325 1.524 . S
C2324 C2338 1.377 1_655 S
C2325 C2324 1.524 . S
C2325 C2326 1.397 . S
C2325 C2330 1.363 1_655 S
C2326 H2303 0.950 . S
C2326 C2325 1.397 . S
C2326 C2327 1.334 . S
C2327 H2304 0.950 . S
C2327 C2326 1.334 . S
C2327 C2328 1.287 . S
C2328 C2327 1.287 . S
C2328 C2329 1.524 1_655 S
C2328 H2347 0.913 . S
C2329 H2305 0.950 . S
C2329 C2328 1.524 1_455 S
C2329 C2330 1.415 . S
C2330 H2306 0.950 . S
C2330 C2325 1.363 1_455 S
C2330 C2329 1.415 . S
C2331 H2307 0.951 . S
C2331 C2332 1.366 . S
C2331 C2333 1.388 . S
C2332 C2331 1.366 . S
C2332 C2336 1.385 . S
C2333 H2308 0.951 . S
C2333 C2331 1.388 . S
C2333 C2334 1.366 . S
C2334 C2333 1.366 . S
C2334 C2335 1.414 . S
C2334 C2337 1.499 . S
C2335 H2309 0.950 . S
C2335 C2334 1.414 . S
C2335 C2336 1.374 . S
C2336 H2310 0.950 . S
C2336 C2332 1.385 . S
C2336 C2335 1.374 . S
C2337 C2334 1.499 . S
C2337 C2338 1.373 . S
C2337 C2339 1.389 . S
C2338 H2311 0.950 . S
C2338 C2324 1.377 1_455 S
C2338 C2337 1.373 . S
C2339 C2323 1.377 1_455 S
C2339 C2337 1.389 . S
C2339 C2340 1.524 . S
C2340 C2339 1.524 . S
C2340 C2341 1.397 . S
C2340 C2345 1.363 1_455 S
C2341 H2312 0.950 . S
C2341 C2340 1.397 . S
C2341 C2342 1.334 . S
C2342 H2313 0.950 . S
C2342 C2341 1.334 . S
C2342 C2343 1.287 . S
C2343 C2342 1.287 . S
C2343 C2344 1.524 1_455 S
C2343 H2346 0.999 . S
C2344 H2314 0.950 . S
C2344 C2343 1.524 1_655 S
C2344 C2345 1.415 . S
C2345 H2315 0.950 . S
C2345 C2340 1.363 1_655 S
C2345 C2344 1.415 . S
H2346 C2343 0.999 . S
H2347 C2328 0.913 . S
H2348 C2366 0.951 . S
H2349 C2368 0.951 . S
H2350 C2370 0.950 . S
H2351 C2371 0.950 . S
H2352 C2373 0.950 . S
H2353 C2376 0.950 . S
H2354 C2377 0.950 . S
H2355 C2379 0.950 . S
H2356 C2380 0.950 . S
H2357 C2381 0.951 . S
H2358 C2383 0.951 . S
H2359 C2385 0.950 . S
H2360 C2386 0.950 . S
H2361 C2388 0.950 . S
H2362 C2391 0.950 . S
H2363 C2392 0.950 . S
H2364 C2394 0.950 . S
H2365 C2395 0.950 . S
C2366 H2348 0.951 . S
C2366 C2367 1.366 . S
C2366 C2368 1.388 . S
C2367 C2366 1.366 . S
C2367 C2371 1.385 . S
C2368 H2349 0.951 . S
C2368 C2366 1.388 . S
C2368 C2369 1.366 . S
C2369 C2368 1.366 . S
C2369 C2370 1.414 . S
C2369 C2372 1.499 . S
C2370 H2350 0.950 . S
C2370 C2369 1.414 . S
C2370 C2371 1.374 . S
C2371 H2351 0.950 . S
C2371 C2367 1.385 . S
C2371 C2370 1.374 . S
C2372 C2369 1.499 . S
C2372 C2373 1.373 . S
C2372 C2374 1.389 . S
C2373 H2352 0.950 . S
C2373 C2372 1.373 . S
C2373 C2389 1.377 1_565 S
C2374 C2372 1.389 . S
C2374 C2375 1.524 . S
C2374 C2388 1.377 1_565 S
C2375 C2374 1.524 . S
C2375 C2376 1.397 . S
C2375 C2380 1.363 . S
C2376 H2353 0.950 . S
C2376 C2375 1.397 . S
C2376 C2377 1.334 . S
C2377 H2354 0.950 . S
C2377 C2376 1.334 . S
C2377 C2378 1.287 . S
C2378 C2377 1.287 . S
C2378 C2379 1.524 . S
C2378 H2397 0.913 . S
C2379 H2355 0.950 . S
C2379 C2378 1.524 . S
C2379 C2380 1.415 . S
C2380 H2356 0.950 . S
C2380 C2375 1.363 . S
C2380 C2379 1.415 . S
C2381 H2357 0.951 . S
C2381 C2382 1.366 . S
C2381 C2383 1.388 . S
C2382 C2381 1.366 . S
C2382 C2386 1.385 . S
C2383 H2358 0.951 . S
C2383 C2381 1.388 . S
C2383 C2384 1.366 . S
C2384 C2383 1.366 . S
C2384 C2385 1.414 . S
C2384 C2387 1.499 . S
C2385 H2359 0.950 . S
C2385 C2384 1.414 . S
C2385 C2386 1.374 . S
C2386 H2360 0.950 . S
C2386 C2382 1.385 . S
C2386 C2385 1.374 . S
C2387 C2384 1.499 . S
C2387 C2388 1.373 . S
C2387 C2389 1.389 . S
C2388 H2361 0.950 . S
C2388 C2374 1.377 1_545 S
C2388 C2387 1.373 . S
C2389 C2373 1.377 1_545 S
C2389 C2387 1.389 . S
C2389 C2390 1.524 . S
C2390 C2389 1.524 . S
C2390 C2391 1.397 . S
C2390 C2395 1.363 . S
C2391 H2362 0.950 . S
C2391 C2390 1.397 . S
C2391 C2392 1.334 . S
C2392 H2363 0.950 . S
C2392 C2391 1.334 . S
C2392 C2393 1.287 . S
C2393 C2392 1.287 . S
C2393 C2394 1.524 . S
C2393 H2396 0.999 . S
C2394 H2364 0.950 . S
C2394 C2393 1.524 . S
C2394 C2395 1.415 . S
C2395 H2365 0.950 . S
C2395 C2390 1.363 . S
C2395 C2394 1.415 . S
H2396 C2393 0.999 . S
H2397 C2378 0.913 . S
H2398 C2416 0.951 . S
H2399 C2418 0.951 . S
H2400 C2420 0.950 . S
H2401 C2421 0.950 . S
H2402 C2423 0.950 . S
H2403 C2426 0.950 . S
H2404 C2427 0.950 . S
H2405 C2429 0.950 . S
H2406 C2430 0.950 . S
H2407 C2431 0.951 . S
H2408 C2433 0.951 . S
H2409 C2435 0.950 . S
H2410 C2436 0.950 . S
H2411 C2438 0.950 . S
H2412 C2441 0.950 . S
H2413 C2442 0.950 . S
H2414 C2444 0.950 . S
H2415 C2445 0.950 . S
C2416 H2398 0.951 . S
C2416 C2417 1.366 . S
C2416 C2418 1.388 . S
C2417 C2416 1.366 . S
C2417 C2421 1.385 . S
C2418 H2399 0.951 . S
C2418 C2416 1.388 . S
C2418 C2419 1.366 . S
C2419 C2418 1.366 . S
C2419 C2420 1.414 . S
C2419 C2422 1.499 . S
C2420 H2400 0.950 . S
C2420 C2419 1.414 . S
C2420 C2421 1.374 . S
C2421 H2401 0.950 . S
C2421 C2417 1.385 . S
C2421 C2420 1.374 . S
C2422 C2419 1.499 . S
C2422 C2423 1.373 . S
C2422 C2424 1.389 . S
C2423 H2402 0.950 . S
C2423 C2422 1.373 . S
C2423 C2439 1.377 1_655 S
C2424 C2422 1.389 . S
C2424 C2425 1.524 . S
C2424 C2438 1.377 1_655 S
C2425 C2424 1.524 . S
C2425 C2426 1.397 . S
C2425 C2430 1.363 . S
C2426 H2403 0.950 . S
C2426 C2425 1.397 . S
C2426 C2427 1.334 . S
C2427 H2404 0.950 . S
C2427 C2426 1.334 . S
C2427 C2428 1.287 . S
C2428 C2427 1.287 . S
C2428 C2429 1.524 . S
C2428 H2447 0.913 . S
C2429 H2405 0.950 . S
C2429 C2428 1.524 . S
C2429 C2430 1.415 . S
C2430 H2406 0.950 . S
C2430 C2425 1.363 . S
C2430 C2429 1.415 . S
C2431 H2407 0.951 . S
C2431 C2432 1.366 . S
C2431 C2433 1.388 . S
C2432 C2431 1.366 . S
C2432 C2436 1.385 . S
C2433 H2408 0.951 . S
C2433 C2431 1.388 . S
C2433 C2434 1.366 . S
C2434 C2433 1.366 . S
C2434 C2435 1.414 . S
C2434 C2437 1.499 . S
C2435 H2409 0.950 . S
C2435 C2434 1.414 . S
C2435 C2436 1.374 . S
C2436 H2410 0.950 . S
C2436 C2432 1.385 . S
C2436 C2435 1.374 . S
C2437 C2434 1.499 . S
C2437 C2438 1.373 . S
C2437 C2439 1.389 . S
C2438 H2411 0.950 . S
C2438 C2424 1.377 1_455 S
C2438 C2437 1.373 . S
C2439 C2423 1.377 1_455 S
C2439 C2437 1.389 . S
C2439 C2440 1.524 . S
C2440 C2439 1.524 . S
C2440 C2441 1.397 . S
C2440 C2445 1.363 . S
C2441 H2412 0.950 . S
C2441 C2440 1.397 . S
C2441 C2442 1.334 . S
C2442 H2413 0.950 . S
C2442 C2441 1.334 . S
C2442 C2443 1.287 . S
C2443 C2442 1.287 . S
C2443 C2444 1.524 . S
C2443 H2446 0.999 . S
C2444 H2414 0.950 . S
C2444 C2443 1.524 . S
C2444 C2445 1.415 . S
C2445 H2415 0.950 . S
C2445 C2440 1.363 . S
C2445 C2444 1.415 . S
H2446 C2443 0.999 . S
H2447 C2428 0.913 . S
H2448 C2466 0.951 . S
H2449 C2468 0.951 . S
H2450 C2470 0.950 . S
H2451 C2471 0.950 . S
H2452 C2473 0.950 . S
H2453 C2476 0.950 . S
H2454 C2477 0.950 . S
H2455 C2479 0.950 . S
H2456 C2480 0.950 . S
H2457 C2481 0.951 . S
H2458 C2483 0.951 . S
H2459 C2485 0.950 . S
H2460 C2486 0.950 . S
H2461 C2488 0.950 . S
H2462 C2491 0.950 . S
H2463 C2492 0.950 . S
H2464 C2494 0.950 . S
H2465 C2495 0.950 . S
C2466 H2448 0.951 . S
C2466 C2467 1.366 . S
C2466 C2468 1.388 . S
C2467 C2466 1.366 . S
C2467 C2471 1.385 . S
C2468 H2449 0.951 . S
C2468 C2466 1.388 . S
C2468 C2469 1.366 . S
C2469 C2468 1.366 . S
C2469 C2470 1.414 . S
C2469 C2472 1.499 . S
C2470 H2450 0.950 . S
C2470 C2469 1.414 . S
C2470 C2471 1.374 . S
C2471 H2451 0.950 . S
C2471 C2467 1.385 . S
C2471 C2470 1.374 . S
C2472 C2469 1.499 . S
C2472 C2473 1.373 . S
C2472 C2474 1.389 . S
C2473 H2452 0.950 . S
C2473 C2472 1.373 . S
C2473 C2489 1.377 . S
C2474 C2472 1.389 . S
C2474 C2475 1.524 . S
C2474 C2488 1.377 . S
C2475 C2474 1.524 . S
C2475 C2476 1.397 . S
C2475 C2480 1.363 . S
C2476 H2453 0.950 . S
C2476 C2475 1.397 . S
C2476 C2477 1.334 . S
C2477 H2454 0.950 . S
C2477 C2476 1.334 . S
C2477 C2478 1.287 . S
C2478 C2477 1.287 . S
C2478 C2479 1.524 . S
C2478 H2497 0.913 . S
C2479 H2455 0.950 . S
C2479 C2478 1.524 . S
C2479 C2480 1.415 . S
C2480 H2456 0.950 . S
C2480 C2475 1.363 . S
C2480 C2479 1.415 . S
C2481 H2457 0.951 . S
C2481 C2482 1.366 . S
C2481 C2483 1.388 . S
C2482 C2481 1.366 . S
C2482 C2486 1.385 . S
C2483 H2458 0.951 . S
C2483 C2481 1.388 . S
C2483 C2484 1.366 . S
C2484 C2483 1.366 . S
C2484 C2485 1.414 . S
C2484 C2487 1.499 . S
C2485 H2459 0.950 . S
C2485 C2484 1.414 . S
C2485 C2486 1.374 . S
C2486 H2460 0.950 . S
C2486 C2482 1.385 . S
C2486 C2485 1.374 . S
C2487 C2484 1.499 . S
C2487 C2488 1.373 . S
C2487 C2489 1.389 . S
C2488 H2461 0.950 . S
C2488 C2474 1.377 . S
C2488 C2487 1.373 . S
C2489 C2473 1.377 . S
C2489 C2487 1.389 . S
C2489 C2490 1.524 . S
C2490 C2489 1.524 . S
C2490 C2491 1.397 . S
C2490 C2495 1.363 . S
C2491 H2462 0.950 . S
C2491 C2490 1.397 . S
C2491 C2492 1.334 . S
C2492 H2463 0.950 . S
C2492 C2491 1.334 . S
C2492 C2493 1.287 . S
C2493 C2492 1.287 . S
C2493 C2494 1.524 . S
C2493 H2496 0.999 . S
C2494 H2464 0.950 . S
C2494 C2493 1.524 . S
C2494 C2495 1.415 . S
C2495 H2465 0.950 . S
C2495 C2490 1.363 . S
C2495 C2494 1.415 . S
H2496 C2493 0.999 . S
H2497 C2478 0.913 . S
H2498 C2516 0.951 . S
H2499 C2518 0.951 . S
H2500 C2520 0.950 . S
H2501 C2521 0.950 . S
H2502 C2523 0.950 . S
H2503 C2526 0.950 . S
H2504 C2527 0.950 . S
H2505 C2529 0.950 . S
H2506 C2530 0.950 . S
H2507 C2531 0.951 . S
H2508 C2533 0.951 . S
H2509 C2535 0.950 . S
H2510 C2536 0.950 . S
H2511 C2538 0.950 . S
H2512 C2541 0.950 . S
H2513 C2542 0.950 . S
H2514 C2544 0.950 . S
H2515 C2545 0.950 . S
C2516 H2498 0.951 . S
C2516 C2517 1.366 . S
C2516 C2518 1.388 . S
C2517 C2516 1.366 . S
C2517 C2521 1.385 . S
C2518 H2499 0.951 . S
C2518 C2516 1.388 . S
C2518 C2519 1.366 . S
C2519 C2518 1.366 . S
C2519 C2520 1.414 . S
C2519 C2522 1.499 . S
C2520 H2500 0.950 . S
C2520 C2519 1.414 . S
C2520 C2521 1.374 . S
C2521 H2501 0.950 . S
C2521 C2517 1.385 . S
C2521 C2520 1.374 . S
C2522 C2519 1.499 . S
C2522 C2523 1.373 . S
C2522 C2524 1.389 . S
C2523 H2502 0.950 . S
C2523 C2522 1.373 . S
C2523 C2539 1.377 . S
C2524 C2522 1.389 . S
C2524 C2525 1.524 . S
C2524 C2538 1.377 . S
C2525 C2524 1.524 . S
C2525 C2526 1.397 . S
C2525 C2530 1.363 . S
C2526 H2503 0.950 . S
C2526 C2525 1.397 . S
C2526 C2527 1.334 . S
C2527 H2504 0.950 . S
C2527 C2526 1.334 . S
C2527 C2528 1.287 . S
C2528 C2527 1.287 . S
C2528 C2529 1.524 . S
C2528 H2547 0.913 . S
C2529 H2505 0.950 . S
C2529 C2528 1.524 . S
C2529 C2530 1.415 . S
C2530 H2506 0.950 . S
C2530 C2525 1.363 . S
C2530 C2529 1.415 . S
C2531 H2507 0.951 . S
C2531 C2532 1.366 . S
C2531 C2533 1.388 . S
C2532 C2531 1.366 . S
C2532 C2536 1.385 . S
C2533 H2508 0.951 . S
C2533 C2531 1.388 . S
C2533 C2534 1.366 . S
C2534 C2533 1.366 . S
C2534 C2535 1.414 . S
C2534 C2537 1.499 . S
C2535 H2509 0.950 . S
C2535 C2534 1.414 . S
C2535 C2536 1.374 . S
C2536 H2510 0.950 . S
C2536 C2532 1.385 . S
C2536 C2535 1.374 . S
C2537 C2534 1.499 . S
C2537 C2538 1.373 . S
C2537 C2539 1.389 . S
C2538 H2511 0.950 . S
C2538 C2524 1.377 . S
C2538 C2537 1.373 . S
C2539 C2523 1.377 . S
C2539 C2537 1.389 . S
C2539 C2540 1.524 . S
C2540 C2539 1.524 . S
C2540 C2541 1.397 . S
C2540 C2545 1.363 . S
C2541 H2512 0.950 . S
C2541 C2540 1.397 . S
C2541 C2542 1.334 . S
C2542 H2513 0.950 . S
C2542 C2541 1.334 . S
C2542 C2543 1.287 . S
C2543 C2542 1.287 . S
C2543 C2544 1.524 . S
C2543 H2546 0.999 . S
C2544 H2514 0.950 . S
C2544 C2543 1.524 . S
C2544 C2545 1.415 . S
C2545 H2515 0.950 . S
C2545 C2540 1.363 . S
C2545 C2544 1.415 . S
H2546 C2543 0.999 . S
H2547 C2528 0.913 . S
H2548 C2566 0.951 . S
H2549 C2568 0.951 . S
H2550 C2570 0.950 . S
H2551 C2571 0.950 . S
H2552 C2573 0.950 . S
H2553 C2576 0.950 . S
H2554 C2577 0.950 . S
H2555 C2579 0.950 . S
H2556 C2580 0.950 . S
H2557 C2581 0.951 . S
H2558 C2583 0.951 . S
H2559 C2585 0.950 . S
H2560 C2586 0.950 . S
H2561 C2588 0.950 . S
H2562 C2591 0.950 . S
H2563 C2592 0.950 . S
H2564 C2594 0.950 . S
H2565 C2595 0.950 . S
C2566 H2548 0.951 . S
C2566 C2567 1.366 . S
C2566 C2568 1.388 . S
C2567 C2566 1.366 . S
C2567 C2571 1.385 . S
C2568 H2549 0.951 . S
C2568 C2566 1.388 . S
C2568 C2569 1.366 . S
C2569 C2568 1.366 . S
C2569 C2570 1.414 . S
C2569 C2572 1.499 . S
C2570 H2550 0.950 . S
C2570 C2569 1.414 . S
C2570 C2571 1.374 . S
C2571 H2551 0.950 . S
C2571 C2567 1.385 . S
C2571 C2570 1.374 . S
C2572 C2569 1.499 . S
C2572 C2573 1.373 . S
C2572 C2574 1.389 . S
C2573 H2552 0.950 . S
C2573 C2572 1.373 . S
C2573 C2589 1.377 . S
C2574 C2572 1.389 . S
C2574 C2575 1.524 . S
C2574 C2588 1.377 . S
C2575 C2574 1.524 . S
C2575 C2576 1.397 . S
C2575 C2580 1.363 . S
C2576 H2553 0.950 . S
C2576 C2575 1.397 . S
C2576 C2577 1.334 . S
C2577 H2554 0.950 . S
C2577 C2576 1.334 . S
C2577 C2578 1.287 . S
C2578 C2577 1.287 . S
C2578 C2579 1.524 . S
C2578 H2597 0.913 . S
C2579 H2555 0.950 . S
C2579 C2578 1.524 . S
C2579 C2580 1.415 . S
C2580 H2556 0.950 . S
C2580 C2575 1.363 . S
C2580 C2579 1.415 . S
C2581 H2557 0.951 . S
C2581 C2582 1.366 . S
C2581 C2583 1.388 . S
C2582 C2581 1.366 . S
C2582 C2586 1.385 . S
C2583 H2558 0.951 . S
C2583 C2581 1.388 . S
C2583 C2584 1.366 . S
C2584 C2583 1.366 . S
C2584 C2585 1.414 . S
C2584 C2587 1.499 . S
C2585 H2559 0.950 . S
C2585 C2584 1.414 . S
C2585 C2586 1.374 . S
C2586 H2560 0.950 . S
C2586 C2582 1.385 . S
C2586 C2585 1.374 . S
C2587 C2584 1.499 . S
C2587 C2588 1.373 . S
C2587 C2589 1.389 . S
C2588 H2561 0.950 . S
C2588 C2574 1.377 . S
C2588 C2587 1.373 . S
C2589 C2573 1.377 . S
C2589 C2587 1.389 . S
C2589 C2590 1.524 . S
C2590 C2589 1.524 . S
C2590 C2591 1.397 . S
C2590 C2595 1.363 . S
C2591 H2562 0.950 . S
C2591 C2590 1.397 . S
C2591 C2592 1.334 . S
C2592 H2563 0.950 . S
C2592 C2591 1.334 . S
C2592 C2593 1.287 . S
C2593 C2592 1.287 . S
C2593 C2594 1.524 . S
C2593 H2596 0.999 . S
C2594 H2564 0.950 . S
C2594 C2593 1.524 . S
C2594 C2595 1.415 . S
C2595 H2565 0.950 . S
C2595 C2590 1.363 . S
C2595 C2594 1.415 . S
H2596 C2593 0.999 . S
H2597 C2578 0.913 . S
H2598 C2616 0.951 . S
H2599 C2618 0.951 . S
H2600 C2620 0.950 . S
H2601 C2621 0.950 . S
H2602 C2623 0.950 . S
H2603 C2626 0.950 . S
H2604 C2627 0.950 . S
H2605 C2629 0.950 . S
H2606 C2630 0.950 . S
H2607 C2631 0.951 . S
H2608 C2633 0.951 . S
H2609 C2635 0.950 . S
H2610 C2636 0.950 . S
H2611 C2638 0.950 . S
H2612 C2641 0.950 . S
H2613 C2642 0.950 . S
H2614 C2644 0.950 . S
H2615 C2645 0.950 . S
C2616 H2598 0.951 . S
C2616 C2617 1.366 . S
C2616 C2618 1.388 . S
C2617 C2616 1.366 . S
C2617 C2621 1.385 . S
C2618 H2599 0.951 . S
C2618 C2616 1.388 . S
C2618 C2619 1.366 . S
C2619 C2618 1.366 . S
C2619 C2620 1.414 . S
C2619 C2622 1.499 . S
C2620 H2600 0.950 . S
C2620 C2619 1.414 . S
C2620 C2621 1.374 . S
C2621 H2601 0.950 . S
C2621 C2617 1.385 . S
C2621 C2620 1.374 . S
C2622 C2619 1.499 . S
C2622 C2623 1.373 . S
C2622 C2624 1.389 . S
C2623 H2602 0.950 . S
C2623 C2622 1.373 . S
C2623 C2639 1.377 . S
C2624 C2622 1.389 . S
C2624 C2625 1.524 . S
C2624 C2638 1.377 . S
C2625 C2624 1.524 . S
C2625 C2626 1.397 . S
C2625 C2630 1.363 . S
C2626 H2603 0.950 . S
C2626 C2625 1.397 . S
C2626 C2627 1.334 . S
C2627 H2604 0.950 . S
C2627 C2626 1.334 . S
C2627 C2628 1.287 . S
C2628 C2627 1.287 . S
C2628 C2629 1.524 . S
C2628 H2647 0.913 . S
C2629 H2605 0.950 . S
C2629 C2628 1.524 . S
C2629 C2630 1.415 . S
C2630 H2606 0.950 . S
C2630 C2625 1.363 . S
C2630 C2629 1.415 . S
C2631 H2607 0.951 . S
C2631 C2632 1.366 . S
C2631 C2633 1.388 . S
C2632 C2631 1.366 . S
C2632 C2636 1.385 . S
C2633 H2608 0.951 . S
C2633 C2631 1.388 . S
C2633 C2634 1.366 . S
C2634 C2633 1.366 . S
C2634 C2635 1.414 . S
C2634 C2637 1.499 . S
C2635 H2609 0.950 . S
C2635 C2634 1.414 . S
C2635 C2636 1.374 . S
C2636 H2610 0.950 . S
C2636 C2632 1.385 . S
C2636 C2635 1.374 . S
C2637 C2634 1.499 . S
C2637 C2638 1.373 . S
C2637 C2639 1.389 . S
C2638 H2611 0.950 . S
C2638 C2624 1.377 . S
C2638 C2637 1.373 . S
C2639 C2623 1.377 . S
C2639 C2637 1.389 . S
C2639 C2640 1.524 . S
C2640 C2639 1.524 . S
C2640 C2641 1.397 . S
C2640 C2645 1.363 . S
C2641 H2612 0.950 . S
C2641 C2640 1.397 . S
C2641 C2642 1.334 . S
C2642 H2613 0.950 . S
C2642 C2641 1.334 . S
C2642 C2643 1.287 . S
C2643 C2642 1.287 . S
C2643 C2644 1.524 . S
C2643 H2646 0.999 . S
C2644 H2614 0.950 . S
C2644 C2643 1.524 . S
C2644 C2645 1.415 . S
C2645 H2615 0.950 . S
C2645 C2640 1.363 . S
C2645 C2644 1.415 . S
H2646 C2643 0.999 . S
H2647 C2628 0.913 . S
H2648 C2666 0.951 . S
H2649 C2668 0.951 . S
H2650 C2670 0.950 . S
H2651 C2671 0.950 . S
H2652 C2673 0.950 . S
H2653 C2676 0.950 . S
H2654 C2677 0.950 . S
H2655 C2679 0.950 . S
H2656 C2680 0.950 . S
H2657 C2681 0.951 . S
H2658 C2683 0.951 . S
H2659 C2685 0.950 . S
H2660 C2686 0.950 . S
H2661 C2688 0.950 . S
H2662 C2691 0.950 . S
H2663 C2692 0.950 . S
H2664 C2694 0.950 . S
H2665 C2695 0.950 . S
C2666 H2648 0.951 . S
C2666 C2667 1.366 . S
C2666 C2668 1.388 . S
C2667 C2666 1.366 . S
C2667 C2671 1.385 . S
C2668 H2649 0.951 . S
C2668 C2666 1.388 . S
C2668 C2669 1.366 . S
C2669 C2668 1.366 . S
C2669 C2670 1.414 . S
C2669 C2672 1.499 . S
C2670 H2650 0.950 . S
C2670 C2669 1.414 . S
C2670 C2671 1.374 . S
C2671 H2651 0.950 . S
C2671 C2667 1.385 . S
C2671 C2670 1.374 . S
C2672 C2669 1.499 . S
C2672 C2673 1.373 . S
C2672 C2674 1.389 . S
C2673 H2652 0.950 . S
C2673 C2672 1.373 . S
C2673 C2689 1.377 . S
C2674 C2672 1.389 . S
C2674 C2675 1.524 . S
C2674 C2688 1.377 . S
C2675 C2674 1.524 . S
C2675 C2676 1.397 . S
C2675 C2680 1.363 . S
C2676 H2653 0.950 . S
C2676 C2675 1.397 . S
C2676 C2677 1.334 . S
C2677 H2654 0.950 . S
C2677 C2676 1.334 . S
C2677 C2678 1.287 . S
C2678 C2677 1.287 . S
C2678 C2679 1.524 . S
C2678 H2697 0.913 . S
C2679 H2655 0.950 . S
C2679 C2678 1.524 . S
C2679 C2680 1.415 . S
C2680 H2656 0.950 . S
C2680 C2675 1.363 . S
C2680 C2679 1.415 . S
C2681 H2657 0.951 . S
C2681 C2682 1.366 . S
C2681 C2683 1.388 . S
C2682 C2681 1.366 . S
C2682 C2686 1.385 . S
C2683 H2658 0.951 . S
C2683 C2681 1.388 . S
C2683 C2684 1.366 . S
C2684 C2683 1.366 . S
C2684 C2685 1.414 . S
C2684 C2687 1.499 . S
C2685 H2659 0.950 . S
C2685 C2684 1.414 . S
C2685 C2686 1.374 . S
C2686 H2660 0.950 . S
C2686 C2682 1.385 . S
C2686 C2685 1.374 . S
C2687 C2684 1.499 . S
C2687 C2688 1.373 . S
C2687 C2689 1.389 . S
C2688 H2661 0.950 . S
C2688 C2674 1.377 . S
C2688 C2687 1.373 . S
C2689 C2673 1.377 . S
C2689 C2687 1.389 . S
C2689 C2690 1.524 . S
C2690 C2689 1.524 . S
C2690 C2691 1.397 . S
C2690 C2695 1.363 . S
C2691 H2662 0.950 . S
C2691 C2690 1.397 . S
C2691 C2692 1.334 . S
C2692 H2663 0.950 . S
C2692 C2691 1.334 . S
C2692 C2693 1.287 . S
C2693 C2692 1.287 . S
C2693 C2694 1.524 . S
C2693 H2696 0.999 . S
C2694 H2664 0.950 . S
C2694 C2693 1.524 . S
C2694 C2695 1.415 . S
C2695 H2665 0.950 . S
C2695 C2690 1.363 . S
C2695 C2694 1.415 . S
H2696 C2693 0.999 . S
H2697 C2678 0.913 . S
H2698 C2716 0.951 . S
H2699 C2718 0.951 . S
H2700 C2720 0.950 . S
H2701 C2721 0.950 . S
H2702 C2723 0.950 . S
H2703 C2726 0.950 . S
H2704 C2727 0.950 . S
H2705 C2729 0.950 . S
H2706 C2730 0.950 . S
H2707 C2731 0.951 . S
H2708 C2733 0.951 . S
H2709 C2735 0.950 . S
H2710 C2736 0.950 . S
H2711 C2738 0.950 . S
H2712 C2741 0.950 . S
H2713 C2742 0.950 . S
H2714 C2744 0.950 . S
H2715 C2745 0.950 . S
C2716 H2698 0.951 . S
C2716 C2717 1.366 . S
C2716 C2718 1.388 . S
C2717 C2716 1.366 . S
C2717 C2721 1.385 . S
C2718 H2699 0.951 . S
C2718 C2716 1.388 . S
C2718 C2719 1.366 . S
C2719 C2718 1.366 . S
C2719 C2720 1.414 . S
C2719 C2722 1.499 . S
C2720 H2700 0.950 . S
C2720 C2719 1.414 . S
C2720 C2721 1.374 . S
C2721 H2701 0.950 . S
C2721 C2717 1.385 . S
C2721 C2720 1.374 . S
C2722 C2719 1.499 . S
C2722 C2723 1.373 . S
C2722 C2724 1.389 . S
C2723 H2702 0.950 . S
C2723 C2722 1.373 . S
C2723 C2739 1.377 . S
C2724 C2722 1.389 . S
C2724 C2725 1.524 . S
C2724 C2738 1.377 . S
C2725 C2724 1.524 . S
C2725 C2726 1.397 . S
C2725 C2730 1.363 . S
C2726 H2703 0.950 . S
C2726 C2725 1.397 . S
C2726 C2727 1.334 . S
C2727 H2704 0.950 . S
C2727 C2726 1.334 . S
C2727 C2728 1.287 . S
C2728 C2727 1.287 . S
C2728 C2729 1.524 . S
C2728 H2747 0.913 . S
C2729 H2705 0.950 . S
C2729 C2728 1.524 . S
C2729 C2730 1.415 . S
C2730 H2706 0.950 . S
C2730 C2725 1.363 . S
C2730 C2729 1.415 . S
C2731 H2707 0.951 . S
C2731 C2732 1.366 . S
C2731 C2733 1.388 . S
C2732 C2731 1.366 . S
C2732 C2736 1.385 . S
C2733 H2708 0.951 . S
C2733 C2731 1.388 . S
C2733 C2734 1.366 . S
C2734 C2733 1.366 . S
C2734 C2735 1.414 . S
C2734 C2737 1.499 . S
C2735 H2709 0.950 . S
C2735 C2734 1.414 . S
C2735 C2736 1.374 . S
C2736 H2710 0.950 . S
C2736 C2732 1.385 . S
C2736 C2735 1.374 . S
C2737 C2734 1.499 . S
C2737 C2738 1.373 . S
C2737 C2739 1.389 . S
C2738 H2711 0.950 . S
C2738 C2724 1.377 . S
C2738 C2737 1.373 . S
C2739 C2723 1.377 . S
C2739 C2737 1.389 . S
C2739 C2740 1.524 . S
C2740 C2739 1.524 . S
C2740 C2741 1.397 . S
C2740 C2745 1.363 . S
C2741 H2712 0.950 . S
C2741 C2740 1.397 . S
C2741 C2742 1.334 . S
C2742 H2713 0.950 . S
C2742 C2741 1.334 . S
C2742 C2743 1.287 . S
C2743 C2742 1.287 . S
C2743 C2744 1.524 . S
C2743 H2746 0.999 . S
C2744 H2714 0.950 . S
C2744 C2743 1.524 . S
C2744 C2745 1.415 . S
C2745 H2715 0.950 . S
C2745 C2740 1.363 . S
C2745 C2744 1.415 . S
H2746 C2743 0.999 . S
H2747 C2728 0.913 . S
H2748 C2766 0.951 . S
H2749 C2768 0.951 . S
H2750 C2770 0.950 . S
H2751 C2771 0.950 . S
H2752 C2773 0.950 . S
H2753 C2776 0.950 . S
H2754 C2777 0.950 . S
H2755 C2779 0.950 . S
H2756 C2780 0.950 . S
H2757 C2781 0.951 . S
H2758 C2783 0.951 . S
H2759 C2785 0.950 . S
H2760 C2786 0.950 . S
H2761 C2788 0.950 . S
H2762 C2791 0.950 . S
H2763 C2792 0.950 . S
H2764 C2794 0.950 . S
H2765 C2795 0.950 . S
C2766 H2748 0.951 . S
C2766 C2767 1.366 . S
C2766 C2768 1.388 . S
C2767 C2766 1.366 . S
C2767 C2771 1.385 . S
C2768 H2749 0.951 . S
C2768 C2766 1.388 . S
C2768 C2769 1.366 . S
C2769 C2768 1.366 . S
C2769 C2770 1.414 . S
C2769 C2772 1.499 . S
C2770 H2750 0.950 . S
C2770 C2769 1.414 . S
C2770 C2771 1.374 . S
C2771 H2751 0.950 . S
C2771 C2767 1.385 . S
C2771 C2770 1.374 . S
C2772 C2769 1.499 . S
C2772 C2773 1.373 . S
C2772 C2774 1.389 . S
C2773 H2752 0.950 . S
C2773 C2772 1.373 . S
C2773 C2789 1.377 . S
C2774 C2772 1.389 . S
C2774 C2775 1.524 . S
C2774 C2788 1.377 . S
C2775 C2774 1.524 . S
C2775 C2776 1.397 . S
C2775 C2780 1.363 . S
C2776 H2753 0.950 . S
C2776 C2775 1.397 . S
C2776 C2777 1.334 . S
C2777 H2754 0.950 . S
C2777 C2776 1.334 . S
C2777 C2778 1.287 . S
C2778 C2777 1.287 . S
C2778 C2779 1.524 . S
C2778 H2797 0.913 . S
C2779 H2755 0.950 . S
C2779 C2778 1.524 . S
C2779 C2780 1.415 . S
C2780 H2756 0.950 . S
C2780 C2775 1.363 . S
C2780 C2779 1.415 . S
C2781 H2757 0.951 . S
C2781 C2782 1.366 . S
C2781 C2783 1.388 . S
C2782 C2781 1.366 . S
C2782 C2786 1.385 . S
C2783 H2758 0.951 . S
C2783 C2781 1.388 . S
C2783 C2784 1.366 . S
C2784 C2783 1.366 . S
C2784 C2785 1.414 . S
C2784 C2787 1.499 . S
C2785 H2759 0.950 . S
C2785 C2784 1.414 . S
C2785 C2786 1.374 . S
C2786 H2760 0.950 . S
C2786 C2782 1.385 . S
C2786 C2785 1.374 . S
C2787 C2784 1.499 . S
C2787 C2788 1.373 . S
C2787 C2789 1.389 . S
C2788 H2761 0.950 . S
C2788 C2774 1.377 . S
C2788 C2787 1.373 . S
C2789 C2773 1.377 . S
C2789 C2787 1.389 . S
C2789 C2790 1.524 . S
C2790 C2789 1.524 . S
C2790 C2791 1.397 . S
C2790 C2795 1.363 . S
C2791 H2762 0.950 . S
C2791 C2790 1.397 . S
C2791 C2792 1.334 . S
C2792 H2763 0.950 . S
C2792 C2791 1.334 . S
C2792 C2793 1.287 . S
C2793 C2792 1.287 . S
C2793 C2794 1.524 . S
C2793 H2796 0.999 . S
C2794 H2764 0.950 . S
C2794 C2793 1.524 . S
C2794 C2795 1.415 . S
C2795 H2765 0.950 . S
C2795 C2790 1.363 . S
C2795 C2794 1.415 . S
H2796 C2793 0.999 . S
H2797 C2778 0.913 . S
H2798 C2816 0.951 . S
H2799 C2818 0.951 . S
H2800 C2820 0.950 . S
H2801 C2821 0.950 . S
H2802 C2823 0.950 . S
H2803 C2826 0.950 . S
H2804 C2827 0.950 . S
H2805 C2829 0.950 . S
H2806 C2830 0.950 . S
H2807 C2831 0.951 . S
H2808 C2833 0.951 . S
H2809 C2835 0.950 . S
H2810 C2836 0.950 . S
H2811 C2838 0.950 . S
H2812 C2841 0.950 . S
H2813 C2842 0.950 . S
H2814 C2844 0.950 . S
H2815 C2845 0.950 . S
C2816 H2798 0.951 . S
C2816 C2817 1.366 . S
C2816 C2818 1.388 . S
C2817 C2816 1.366 . S
C2817 C2821 1.385 . S
C2818 H2799 0.951 . S
C2818 C2816 1.388 . S
C2818 C2819 1.366 . S
C2819 C2818 1.366 . S
C2819 C2820 1.414 . S
C2819 C2822 1.499 . S
C2820 H2800 0.950 . S
C2820 C2819 1.414 . S
C2820 C2821 1.374 . S
C2821 H2801 0.950 . S
C2821 C2817 1.385 . S
C2821 C2820 1.374 . S
C2822 C2819 1.499 . S
C2822 C2823 1.373 . S
C2822 C2824 1.389 . S
C2823 H2802 0.950 . S
C2823 C2822 1.373 . S
C2823 C2839 1.377 . S
C2824 C2822 1.389 . S
C2824 C2825 1.524 . S
C2824 C2838 1.377 . S
C2825 C2824 1.524 . S
C2825 C2826 1.397 . S
C2825 C2830 1.363 . S
C2826 H2803 0.950 . S
C2826 C2825 1.397 . S
C2826 C2827 1.334 . S
C2827 H2804 0.950 . S
C2827 C2826 1.334 . S
C2827 C2828 1.287 . S
C2828 C2827 1.287 . S
C2828 C2829 1.524 . S
C2828 H2847 0.913 . S
C2829 H2805 0.950 . S
C2829 C2828 1.524 . S
C2829 C2830 1.415 . S
C2830 H2806 0.950 . S
C2830 C2825 1.363 . S
C2830 C2829 1.415 . S
C2831 H2807 0.951 . S
C2831 C2832 1.366 . S
C2831 C2833 1.388 . S
C2832 C2831 1.366 . S
C2832 C2836 1.385 . S
C2833 H2808 0.951 . S
C2833 C2831 1.388 . S
C2833 C2834 1.366 . S
C2834 C2833 1.366 . S
C2834 C2835 1.414 . S
C2834 C2837 1.499 . S
C2835 H2809 0.950 . S
C2835 C2834 1.414 . S
C2835 C2836 1.374 . S
C2836 H2810 0.950 . S
C2836 C2832 1.385 . S
C2836 C2835 1.374 . S
C2837 C2834 1.499 . S
C2837 C2838 1.373 . S
C2837 C2839 1.389 . S
C2838 H2811 0.950 . S
C2838 C2824 1.377 . S
C2838 C2837 1.373 . S
C2839 C2823 1.377 . S
C2839 C2837 1.389 . S
C2839 C2840 1.524 . S
C2840 C2839 1.524 . S
C2840 C2841 1.397 . S
C2840 C2845 1.363 . S
C2841 H2812 0.950 . S
C2841 C2840 1.397 . S
C2841 C2842 1.334 . S
C2842 H2813 0.950 . S
C2842 C2841 1.334 . S
C2842 C2843 1.287 . S
C2843 C2842 1.287 . S
C2843 C2844 1.524 . S
C2843 H2846 0.999 . S
C2844 H2814 0.950 . S
C2844 C2843 1.524 . S
C2844 C2845 1.415 . S
C2845 H2815 0.950 . S
C2845 C2840 1.363 . S
C2845 C2844 1.415 . S
H2846 C2843 0.999 . S
H2847 C2828 0.913 . S
H2848 C2866 0.951 . S
H2849 C2868 0.951 . S
H2850 C2870 0.950 . S
H2851 C2871 0.950 . S
H2852 C2873 0.950 . S
H2853 C2876 0.950 . S
H2854 C2877 0.950 . S
H2855 C2879 0.950 . S
H2856 C2880 0.950 . S
H2857 C2881 0.951 . S
H2858 C2883 0.951 . S
H2859 C2885 0.950 . S
H2860 C2886 0.950 . S
H2861 C2888 0.950 . S
H2862 C2891 0.950 . S
H2863 C2892 0.950 . S
H2864 C2894 0.950 . S
H2865 C2895 0.950 . S
C2866 H2848 0.951 . S
C2866 C2867 1.366 . S
C2866 C2868 1.388 . S
C2867 C2866 1.366 . S
C2867 C2871 1.385 . S
C2868 H2849 0.951 . S
C2868 C2866 1.388 . S
C2868 C2869 1.366 . S
C2869 C2868 1.366 . S
C2869 C2870 1.414 . S
C2869 C2872 1.499 . S
C2870 H2850 0.950 . S
C2870 C2869 1.414 . S
C2870 C2871 1.374 . S
C2871 H2851 0.950 . S
C2871 C2867 1.385 . S
C2871 C2870 1.374 . S
C2872 C2869 1.499 . S
C2872 C2873 1.373 . S
C2872 C2874 1.389 . S
C2873 H2852 0.950 . S
C2873 C2872 1.373 . S
C2873 C2889 1.377 . S
C2874 C2872 1.389 . S
C2874 C2875 1.524 . S
C2874 C2888 1.377 . S
C2875 C2874 1.524 . S
C2875 C2876 1.397 . S
C2875 C2880 1.363 . S
C2876 H2853 0.950 . S
C2876 C2875 1.397 . S
C2876 C2877 1.334 . S
C2877 H2854 0.950 . S
C2877 C2876 1.334 . S
C2877 C2878 1.287 . S
C2878 C2877 1.287 . S
C2878 C2879 1.524 . S
C2878 H2897 0.913 . S
C2879 H2855 0.950 . S
C2879 C2878 1.524 . S
C2879 C2880 1.415 . S
C2880 H2856 0.950 . S
C2880 C2875 1.363 . S
C2880 C2879 1.415 . S
C2881 H2857 0.951 . S
C2881 C2882 1.366 . S
C2881 C2883 1.388 . S
C2882 C2881 1.366 . S
C2882 C2886 1.385 . S
C2883 H2858 0.951 . S
C2883 C2881 1.388 . S
C2883 C2884 1.366 . S
C2884 C2883 1.366 . S
C2884 C2885 1.414 . S
C2884 C2887 1.499 . S
C2885 H2859 0.950 . S
C2885 C2884 1.414 . S
C2885 C2886 1.374 . S
C2886 H2860 0.950 . S
C2886 C2882 1.385 . S
C2886 C2885 1.374 . S
C2887 C2884 1.499 . S
C2887 C2888 1.373 . S
C2887 C2889 1.389 . S
C2888 H2861 0.950 . S
C2888 C2874 1.377 . S
C2888 C2887 1.373 . S
C2889 C2873 1.377 . S
C2889 C2887 1.389 . S
C2889 C2890 1.524 . S
C2890 C2889 1.524 . S
C2890 C2891 1.397 . S
C2890 C2895 1.363 . S
C2891 H2862 0.950 . S
C2891 C2890 1.397 . S
C2891 C2892 1.334 . S
C2892 H2863 0.950 . S
C2892 C2891 1.334 . S
C2892 C2893 1.287 . S
C2893 C2892 1.287 . S
C2893 C2894 1.524 . S
C2893 H2896 0.999 . S
C2894 H2864 0.950 . S
C2894 C2893 1.524 . S
C2894 C2895 1.415 . S
C2895 H2865 0.950 . S
C2895 C2890 1.363 . S
C2895 C2894 1.415 . S
H2896 C2893 0.999 . S
H2897 C2878 0.913 . S
H2898 C2916 0.951 . S
H2899 C2918 0.951 . S
H2900 C2920 0.950 . S
H2901 C2921 0.950 . S
H2902 C2923 0.950 . S
H2903 C2926 0.950 . S
H2904 C2927 0.950 . S
H2905 C2929 0.950 . S
H2906 C2930 0.950 . S
H2907 C2931 0.951 . S
H2908 C2933 0.951 . S
H2909 C2935 0.950 . S
H2910 C2936 0.950 . S
H2911 C2938 0.950 . S
H2912 C2941 0.950 . S
H2913 C2942 0.950 . S
H2914 C2944 0.950 . S
H2915 C2945 0.950 . S
C2916 H2898 0.951 . S
C2916 C2917 1.366 . S
C2916 C2918 1.388 . S
C2917 C2916 1.366 . S
C2917 C2921 1.385 . S
C2918 H2899 0.951 . S
C2918 C2916 1.388 . S
C2918 C2919 1.366 . S
C2919 C2918 1.366 . S
C2919 C2920 1.414 . S
C2919 C2922 1.499 . S
C2920 H2900 0.950 . S
C2920 C2919 1.414 . S
C2920 C2921 1.374 . S
C2921 H2901 0.950 . S
C2921 C2917 1.385 . S
C2921 C2920 1.374 . S
C2922 C2919 1.499 . S
C2922 C2923 1.373 . S
C2922 C2924 1.389 . S
C2923 H2902 0.950 . S
C2923 C2922 1.373 . S
C2923 C2939 1.377 . S
C2924 C2922 1.389 . S
C2924 C2925 1.524 . S
C2924 C2938 1.377 . S
C2925 C2924 1.524 . S
C2925 C2926 1.397 . S
C2925 C2930 1.363 . S
C2926 H2903 0.950 . S
C2926 C2925 1.397 . S
C2926 C2927 1.334 . S
C2927 H2904 0.950 . S
C2927 C2926 1.334 . S
C2927 C2928 1.287 . S
C2928 C2927 1.287 . S
C2928 C2929 1.524 . S
C2928 H2947 0.913 . S
C2929 H2905 0.950 . S
C2929 C2928 1.524 . S
C2929 C2930 1.415 . S
C2930 H2906 0.950 . S
C2930 C2925 1.363 . S
C2930 C2929 1.415 . S
C2931 H2907 0.951 . S
C2931 C2932 1.366 . S
C2931 C2933 1.388 . S
C2932 C2931 1.366 . S
C2932 C2936 1.385 . S
C2933 H2908 0.951 . S
C2933 C2931 1.388 . S
C2933 C2934 1.366 . S
C2934 C2933 1.366 . S
C2934 C2935 1.414 . S
C2934 C2937 1.499 . S
C2935 H2909 0.950 . S
C2935 C2934 1.414 . S
C2935 C2936 1.374 . S
C2936 H2910 0.950 . S
C2936 C2932 1.385 . S
C2936 C2935 1.374 . S
C2937 C2934 1.499 . S
C2937 C2938 1.373 . S
C2937 C2939 1.389 . S
C2938 H2911 0.950 . S
C2938 C2924 1.377 . S
C2938 C2937 1.373 . S
C2939 C2923 1.377 . S
C2939 C2937 1.389 . S
C2939 C2940 1.524 . S
C2940 C2939 1.524 . S
C2940 C2941 1.397 . S
C2940 C2945 1.363 . S
C2941 H2912 0.950 . S
C2941 C2940 1.397 . S
C2941 C2942 1.334 . S
C2942 H2913 0.950 . S
C2942 C2941 1.334 . S
C2942 C2943 1.287 . S
C2943 C2942 1.287 . S
C2943 C2944 1.524 . S
C2943 H2946 0.999 . S
C2944 H2914 0.950 . S
C2944 C2943 1.524 . S
C2944 C2945 1.415 . S
C2945 H2915 0.950 . S
C2945 C2940 1.363 . S
C2945 C2944 1.415 . S
H2946 C2943 0.999 . S
H2947 C2928 0.913 . S
H2948 C2966 0.951 . S
H2949 C2968 0.951 . S
H2950 C2970 0.950 . S
H2951 C2971 0.950 . S
H2952 C2973 0.950 . S
H2953 C2976 0.950 . S
H2954 C2977 0.950 . S
H2955 C2979 0.950 . S
H2956 C2980 0.950 . S
H2957 C2981 0.951 . S
H2958 C2983 0.951 . S
H2959 C2985 0.950 . S
H2960 C2986 0.950 . S
H2961 C2988 0.950 . S
H2962 C2991 0.950 . S
H2963 C2992 0.950 . S
H2964 C2994 0.950 . S
H2965 C2995 0.950 . S
C2966 H2948 0.951 . S
C2966 C2967 1.366 . S
C2966 C2968 1.388 . S
C2967 C2966 1.366 . S
C2967 C2971 1.385 . S
C2968 H2949 0.951 . S
C2968 C2966 1.388 . S
C2968 C2969 1.366 . S
C2969 C2968 1.366 . S
C2969 C2970 1.414 . S
C2969 C2972 1.499 . S
C2970 H2950 0.950 . S
C2970 C2969 1.414 . S
C2970 C2971 1.374 . S
C2971 H2951 0.950 . S
C2971 C2967 1.385 . S
C2971 C2970 1.374 . S
C2972 C2969 1.499 . S
C2972 C2973 1.373 . S
C2972 C2974 1.389 . S
C2973 H2952 0.950 . S
C2973 C2972 1.373 . S
C2973 C2989 1.377 . S
C2974 C2972 1.389 . S
C2974 C2975 1.524 . S
C2974 C2988 1.377 . S
C2975 C2974 1.524 . S
C2975 C2976 1.397 . S
C2975 C2980 1.363 . S
C2976 H2953 0.950 . S
C2976 C2975 1.397 . S
C2976 C2977 1.334 . S
C2977 H2954 0.950 . S
C2977 C2976 1.334 . S
C2977 C2978 1.287 . S
C2978 C2977 1.287 . S
C2978 C2979 1.524 . S
C2978 H2997 0.913 . S
C2979 H2955 0.950 . S
C2979 C2978 1.524 . S
C2979 C2980 1.415 . S
C2980 H2956 0.950 . S
C2980 C2975 1.363 . S
C2980 C2979 1.415 . S
C2981 H2957 0.951 . S
C2981 C2982 1.366 . S
C2981 C2983 1.388 . S
C2982 C2981 1.366 . S
C2982 C2986 1.385 . S
C2983 H2958 0.951 . S
C2983 C2981 1.388 . S
C2983 C2984 1.366 . S
C2984 C2983 1.366 . S
C2984 C2985 1.414 . S
C2984 C2987 1.499 . S
C2985 H2959 0.950 . S
C2985 C2984 1.414 . S
C2985 C2986 1.374 . S
C2986 H2960 0.950 . S
C2986 C2982 1.385 . S
C2986 C2985 1.374 . S
C2987 C2984 1.499 . S
C2987 C2988 1.373 . S
C2987 C2989 1.389 . S
C2988 H2961 0.950 . S
C2988 C2974 1.377 . S
C2988 C2987 1.373 . S
C2989 C2973 1.377 . S
C2989 C2987 1.389 . S
C2989 C2990 1.524 . S
C2990 C2989 1.524 . S
C2990 C2991 1.397 . S
C2990 C2995 1.363 . S
C2991 H2962 0.950 . S
C2991 C2990 1.397 . S
C2991 C2992 1.334 . S
C2992 H2963 0.950 . S
C2992 C2991 1.334 . S
C2992 C2993 1.287 . S
C2993 C2992 1.287 . S
C2993 C2994 1.524 . S
C2993 H2996 0.999 . S
C2994 H2964 0.950 . S
C2994 C2993 1.524 . S
C2994 C2995 1.415 . S
C2995 H2965 0.950 . S
C2995 C2990 1.363 . S
C2995 C2994 1.415 . S
H2996 C2993 0.999 . S
H2997 C2978 0.913 . S
H2998 C3016 0.951 . S
H2999 C3018 0.951 . S
H3000 C3020 0.950 . S
H3001 C3021 0.950 . S
H3002 C3023 0.950 . S
H3003 C3026 0.950 . S
H3004 C3027 0.950 . S
H3005 C3029 0.950 . S
H3006 C3030 0.950 . S
H3007 C3031 0.951 . S
H3008 C3033 0.951 . S
H3009 C3035 0.950 . S
H3010 C3036 0.950 . S
H3011 C3038 0.950 . S
H3012 C3041 0.950 . S
H3013 C3042 0.950 . S
H3014 C3044 0.950 . S
H3015 C3045 0.950 . S
C3016 H2998 0.951 . S
C3016 C3017 1.366 . S
C3016 C3018 1.388 . S
C3017 C3016 1.366 . S
C3017 C3021 1.385 . S
C3018 H2999 0.951 . S
C3018 C3016 1.388 . S
C3018 C3019 1.366 . S
C3019 C3018 1.366 . S
C3019 C3020 1.414 . S
C3019 C3022 1.499 . S
C3020 H3000 0.950 . S
C3020 C3019 1.414 . S
C3020 C3021 1.374 . S
C3021 H3001 0.950 . S
C3021 C3017 1.385 . S
C3021 C3020 1.374 . S
C3022 C3019 1.499 . S
C3022 C3023 1.373 . S
C3022 C3024 1.389 . S
C3023 H3002 0.950 . S
C3023 C3022 1.373 . S
C3023 C3039 1.377 . S
C3024 C3022 1.389 . S
C3024 C3025 1.524 . S
C3024 C3038 1.377 . S
C3025 C3024 1.524 . S
C3025 C3026 1.397 . S
C3025 C3030 1.363 . S
C3026 H3003 0.950 . S
C3026 C3025 1.397 . S
C3026 C3027 1.334 . S
C3027 H3004 0.950 . S
C3027 C3026 1.334 . S
C3027 C3028 1.287 . S
C3028 C3027 1.287 . S
C3028 C3029 1.524 . S
C3028 H3047 0.913 . S
C3029 H3005 0.950 . S
C3029 C3028 1.524 . S
C3029 C3030 1.415 . S
C3030 H3006 0.950 . S
C3030 C3025 1.363 . S
C3030 C3029 1.415 . S
C3031 H3007 0.951 . S
C3031 C3032 1.366 . S
C3031 C3033 1.388 . S
C3032 C3031 1.366 . S
C3032 C3036 1.385 . S
C3033 H3008 0.951 . S
C3033 C3031 1.388 . S
C3033 C3034 1.366 . S
C3034 C3033 1.366 . S
C3034 C3035 1.414 . S
C3034 C3037 1.499 . S
C3035 H3009 0.950 . S
C3035 C3034 1.414 . S
C3035 C3036 1.374 . S
C3036 H3010 0.950 . S
C3036 C3032 1.385 . S
C3036 C3035 1.374 . S
C3037 C3034 1.499 . S
C3037 C3038 1.373 . S
C3037 C3039 1.389 . S
C3038 H3011 0.950 . S
C3038 C3024 1.377 . S
C3038 C3037 1.373 . S
C3039 C3023 1.377 . S
C3039 C3037 1.389 . S
C3039 C3040 1.524 . S
C3040 C3039 1.524 . S
C3040 C3041 1.397 . S
C3040 C3045 1.363 . S
C3041 H3012 0.950 . S
C3041 C3040 1.397 . S
C3041 C3042 1.334 . S
C3042 H3013 0.950 . S
C3042 C3041 1.334 . S
C3042 C3043 1.287 . S
C3043 C3042 1.287 . S
C3043 C3044 1.524 . S
C3043 H3046 0.999 . S
C3044 H3014 0.950 . S
C3044 C3043 1.524 . S
C3044 C3045 1.415 . S
C3045 H3015 0.950 . S
C3045 C3040 1.363 . S
C3045 C3044 1.415 . S
H3046 C3043 0.999 . S
H3047 C3028 0.913 . S
H3048 C3066 0.951 . S
H3049 C3068 0.951 . S
H3050 C3070 0.950 . S
H3051 C3071 0.950 . S
H3052 C3073 0.950 . S
H3053 C3076 0.950 . S
H3054 C3077 0.950 . S
H3055 C3079 0.950 . S
H3056 C3080 0.950 . S
H3057 C3081 0.951 . S
H3058 C3083 0.951 . S
H3059 C3085 0.950 . S
H3060 C3086 0.950 . S
H3061 C3088 0.950 . S
H3062 C3091 0.950 . S
H3063 C3092 0.950 . S
H3064 C3094 0.950 . S
H3065 C3095 0.950 . S
C3066 H3048 0.951 . S
C3066 C3067 1.366 . S
C3066 C3068 1.388 . S
C3067 C3066 1.366 . S
C3067 C3071 1.385 . S
C3068 H3049 0.951 . S
C3068 C3066 1.388 . S
C3068 C3069 1.366 . S
C3069 C3068 1.366 . S
C3069 C3070 1.414 . S
C3069 C3072 1.499 . S
C3070 H3050 0.950 . S
C3070 C3069 1.414 . S
C3070 C3071 1.374 . S
C3071 H3051 0.950 . S
C3071 C3067 1.385 . S
C3071 C3070 1.374 . S
C3072 C3069 1.499 . S
C3072 C3073 1.373 . S
C3072 C3074 1.389 . S
C3073 H3052 0.950 . S
C3073 C3072 1.373 . S
C3073 C3089 1.377 . S
C3074 C3072 1.389 . S
C3074 C3075 1.524 . S
C3074 C3088 1.377 . S
C3075 C3074 1.524 . S
C3075 C3076 1.397 . S
C3075 C3080 1.363 . S
C3076 H3053 0.950 . S
C3076 C3075 1.397 . S
C3076 C3077 1.334 . S
C3077 H3054 0.950 . S
C3077 C3076 1.334 . S
C3077 C3078 1.287 . S
C3078 C3077 1.287 . S
C3078 C3079 1.524 . S
C3078 H3097 0.913 . S
C3079 H3055 0.950 . S
C3079 C3078 1.524 . S
C3079 C3080 1.415 . S
C3080 H3056 0.950 . S
C3080 C3075 1.363 . S
C3080 C3079 1.415 . S
C3081 H3057 0.951 . S
C3081 C3082 1.366 . S
C3081 C3083 1.388 . S
C3082 C3081 1.366 . S
C3082 C3086 1.385 . S
C3083 H3058 0.951 . S
C3083 C3081 1.388 . S
C3083 C3084 1.366 . S
C3084 C3083 1.366 . S
C3084 C3085 1.414 . S
C3084 C3087 1.499 . S
C3085 H3059 0.950 . S
C3085 C3084 1.414 . S
C3085 C3086 1.374 . S
C3086 H3060 0.950 . S
C3086 C3082 1.385 . S
C3086 C3085 1.374 . S
C3087 C3084 1.499 . S
C3087 C3088 1.373 . S
C3087 C3089 1.389 . S
C3088 H3061 0.950 . S
C3088 C3074 1.377 . S
C3088 C3087 1.373 . S
C3089 C3073 1.377 . S
C3089 C3087 1.389 . S
C3089 C3090 1.524 . S
C3090 C3089 1.524 . S
C3090 C3091 1.397 . S
C3090 C3095 1.363 . S
C3091 H3062 0.950 . S
C3091 C3090 1.397 . S
C3091 C3092 1.334 . S
C3092 H3063 0.950 . S
C3092 C3091 1.334 . S
C3092 C3093 1.287 . S
C3093 C3092 1.287 . S
C3093 C3094 1.524 . S
C3093 H3096 0.999 . S
C3094 H3064 0.950 . S
C3094 C3093 1.524 . S
C3094 C3095 1.415 . S
C3095 H3065 0.950 . S
C3095 C3090 1.363 . S
C3095 C3094 1.415 . S
H3096 C3093 0.999 . S
H3097 C3078 0.913 . S
H3098 C3116 0.951 . S
H3099 C3118 0.951 . S
H3100 C3120 0.950 . S
H3101 C3121 0.950 . S
H3102 C3123 0.950 . S
H3103 C3126 0.950 . S
H3104 C3127 0.950 . S
H3105 C3129 0.950 . S
H3106 C3130 0.950 . S
H3107 C3131 0.951 . S
H3108 C3133 0.951 . S
H3109 C3135 0.950 . S
H3110 C3136 0.950 . S
H3111 C3138 0.950 . S
H3112 C3141 0.950 . S
H3113 C3142 0.950 . S
H3114 C3144 0.950 . S
H3115 C3145 0.950 . S
C3116 H3098 0.951 . S
C3116 C3117 1.366 . S
C3116 C3118 1.388 . S
C3117 C3116 1.366 . S
C3117 C3121 1.385 . S
C3118 H3099 0.951 . S
C3118 C3116 1.388 . S
C3118 C3119 1.366 . S
C3119 C3118 1.366 . S
C3119 C3120 1.414 . S
C3119 C3122 1.499 . S
C3120 H3100 0.950 . S
C3120 C3119 1.414 . S
C3120 C3121 1.374 . S
C3121 H3101 0.950 . S
C3121 C3117 1.385 . S
C3121 C3120 1.374 . S
C3122 C3119 1.499 . S
C3122 C3123 1.373 . S
C3122 C3124 1.389 . S
C3123 H3102 0.950 . S
C3123 C3122 1.373 . S
C3123 C3139 1.377 . S
C3124 C3122 1.389 . S
C3124 C3125 1.524 . S
C3124 C3138 1.377 . S
C3125 C3124 1.524 . S
C3125 C3126 1.397 . S
C3125 C3130 1.363 . S
C3126 H3103 0.950 . S
C3126 C3125 1.397 . S
C3126 C3127 1.334 . S
C3127 H3104 0.950 . S
C3127 C3126 1.334 . S
C3127 C3128 1.287 . S
C3128 C3127 1.287 . S
C3128 C3129 1.524 . S
C3128 H3147 0.913 . S
C3129 H3105 0.950 . S
C3129 C3128 1.524 . S
C3129 C3130 1.415 . S
C3130 H3106 0.950 . S
C3130 C3125 1.363 . S
C3130 C3129 1.415 . S
C3131 H3107 0.951 . S
C3131 C3132 1.366 . S
C3131 C3133 1.388 . S
C3132 C3131 1.366 . S
C3132 C3136 1.385 . S
C3133 H3108 0.951 . S
C3133 C3131 1.388 . S
C3133 C3134 1.366 . S
C3134 C3133 1.366 . S
C3134 C3135 1.414 . S
C3134 C3137 1.499 . S
C3135 H3109 0.950 . S
C3135 C3134 1.414 . S
C3135 C3136 1.374 . S
C3136 H3110 0.950 . S
C3136 C3132 1.385 . S
C3136 C3135 1.374 . S
C3137 C3134 1.499 . S
C3137 C3138 1.373 . S
C3137 C3139 1.389 . S
C3138 H3111 0.950 . S
C3138 C3124 1.377 . S
C3138 C3137 1.373 . S
C3139 C3123 1.377 . S
C3139 C3137 1.389 . S
C3139 C3140 1.524 . S
C3140 C3139 1.524 . S
C3140 C3141 1.397 . S
C3140 C3145 1.363 . S
C3141 H3112 0.950 . S
C3141 C3140 1.397 . S
C3141 C3142 1.334 . S
C3142 H3113 0.950 . S
C3142 C3141 1.334 . S
C3142 C3143 1.287 . S
C3143 C3142 1.287 . S
C3143 C3144 1.524 . S
C3143 H3146 0.999 . S
C3144 H3114 0.950 . S
C3144 C3143 1.524 . S
C3144 C3145 1.415 . S
C3145 H3115 0.950 . S
C3145 C3140 1.363 . S
C3145 C3144 1.415 . S
H3146 C3143 0.999 . S
H3147 C3128 0.913 . S
H3148 C3166 0.951 . S
H3149 C3168 0.951 . S
H3150 C3170 0.950 . S
H3151 C3171 0.950 . S
H3152 C3173 0.950 . S
H3153 C3176 0.950 . S
H3154 C3177 0.950 . S
H3155 C3179 0.950 . S
H3156 C3180 0.950 . S
H3157 C3181 0.951 . S
H3158 C3183 0.951 . S
H3159 C3185 0.950 . S
H3160 C3186 0.950 . S
H3161 C3188 0.950 . S
H3162 C3191 0.950 . S
H3163 C3192 0.950 . S
H3164 C3194 0.950 . S
H3165 C3195 0.950 . S
C3166 H3148 0.951 . S
C3166 C3167 1.366 . S
C3166 C3168 1.388 . S
C3167 C3166 1.366 . S
C3167 C3171 1.385 . S
C3168 H3149 0.951 . S
C3168 C3166 1.388 . S
C3168 C3169 1.366 . S
C3169 C3168 1.366 . S
C3169 C3170 1.414 . S
C3169 C3172 1.499 . S
C3170 H3150 0.950 . S
C3170 C3169 1.414 . S
C3170 C3171 1.374 . S
C3171 H3151 0.950 . S
C3171 C3167 1.385 . S
C3171 C3170 1.374 . S
C3172 C3169 1.499 . S
C3172 C3173 1.373 . S
C3172 C3174 1.389 . S
C3173 H3152 0.950 . S
C3173 C3172 1.373 . S
C3173 C3189 1.377 . S
C3174 C3172 1.389 . S
C3174 C3175 1.524 . S
C3174 C3188 1.377 . S
C3175 C3174 1.524 . S
C3175 C3176 1.397 . S
C3175 C3180 1.363 . S
C3176 H3153 0.950 . S
C3176 C3175 1.397 . S
C3176 C3177 1.334 . S
C3177 H3154 0.950 . S
C3177 C3176 1.334 . S
C3177 C3178 1.287 . S
C3178 C3177 1.287 . S
C3178 C3179 1.524 . S
C3178 H3197 0.913 . S
C3179 H3155 0.950 . S
C3179 C3178 1.524 . S
C3179 C3180 1.415 . S
C3180 H3156 0.950 . S
C3180 C3175 1.363 . S
C3180 C3179 1.415 . S
C3181 H3157 0.951 . S
C3181 C3182 1.366 . S
C3181 C3183 1.388 . S
C3182 C3181 1.366 . S
C3182 C3186 1.385 . S
C3183 H3158 0.951 . S
C3183 C3181 1.388 . S
C3183 C3184 1.366 . S
C3184 C3183 1.366 . S
C3184 C3185 1.414 . S
C3184 C3187 1.499 . S
C3185 H3159 0.950 . S
C3185 C3184 1.414 . S
C3185 C3186 1.374 . S
C3186 H3160 0.950 . S
C3186 C3182 1.385 . S
C3186 C3185 1.374 . S
C3187 C3184 1.499 . S
C3187 C3188 1.373 . S
C3187 C3189 1.389 . S
C3188 H3161 0.950 . S
C3188 C3174 1.377 . S
C3188 C3187 1.373 . S
C3189 C3173 1.377 . S
C3189 C3187 1.389 . S
C3189 C3190 1.524 . S
C3190 C3189 1.524 . S
C3190 C3191 1.397 . S
C3190 C3195 1.363 . S
C3191 H3162 0.950 . S
C3191 C3190 1.397 . S
C3191 C3192 1.334 . S
C3192 H3163 0.950 . S
C3192 C3191 1.334 . S
C3192 C3193 1.287 . S
C3193 C3192 1.287 . S
C3193 C3194 1.524 . S
C3193 H3196 0.999 . S
C3194 H3164 0.950 . S
C3194 C3193 1.524 . S
C3194 C3195 1.415 . S
C3195 H3165 0.950 . S
C3195 C3190 1.363 . S
C3195 C3194 1.415 . S
H3196 C3193 0.999 . S
H3197 C3178 0.913 . S
H3198 C3216 0.951 . S
H3199 C3218 0.951 . S
H3200 C3220 0.950 . S
H3201 C3221 0.950 . S
H3202 C3223 0.950 . S
H3203 C3226 0.950 . S
H3204 C3227 0.950 . S
H3205 C3229 0.950 . S
H3206 C3230 0.950 . S
H3207 C3231 0.951 . S
H3208 C3233 0.951 . S
H3209 C3235 0.950 . S
H3210 C3236 0.950 . S
H3211 C3238 0.950 . S
H3212 C3241 0.950 . S
H3213 C3242 0.950 . S
H3214 C3244 0.950 . S
H3215 C3245 0.950 . S
C3216 H3198 0.951 . S
C3216 C3217 1.366 . S
C3216 C3218 1.388 . S
C3217 C3216 1.366 . S
C3217 C3221 1.385 . S
C3218 H3199 0.951 . S
C3218 C3216 1.388 . S
C3218 C3219 1.366 . S
C3219 C3218 1.366 . S
C3219 C3220 1.414 . S
C3219 C3222 1.499 . S
C3220 H3200 0.950 . S
C3220 C3219 1.414 . S
C3220 C3221 1.374 . S
C3221 H3201 0.950 . S
C3221 C3217 1.385 . S
C3221 C3220 1.374 . S
C3222 C3219 1.499 . S
C3222 C3223 1.373 . S
C3222 C3224 1.389 . S
C3223 H3202 0.950 . S
C3223 C3222 1.373 . S
C3223 C3239 1.377 . S
C3224 C3222 1.389 . S
C3224 C3225 1.524 . S
C3224 C3238 1.377 . S
C3225 C3224 1.524 . S
C3225 C3226 1.397 . S
C3225 C3230 1.363 . S
C3226 H3203 0.950 . S
C3226 C3225 1.397 . S
C3226 C3227 1.334 . S
C3227 H3204 0.950 . S
C3227 C3226 1.334 . S
C3227 C3228 1.287 . S
C3228 C3227 1.287 . S
C3228 C3229 1.524 . S
C3228 H3247 0.913 . S
C3229 H3205 0.950 . S
C3229 C3228 1.524 . S
C3229 C3230 1.415 . S
C3230 H3206 0.950 . S
C3230 C3225 1.363 . S
C3230 C3229 1.415 . S
C3231 H3207 0.951 . S
C3231 C3232 1.366 . S
C3231 C3233 1.388 . S
C3232 C3231 1.366 . S
C3232 C3236 1.385 . S
C3233 H3208 0.951 . S
C3233 C3231 1.388 . S
C3233 C3234 1.366 . S
C3234 C3233 1.366 . S
C3234 C3235 1.414 . S
C3234 C3237 1.499 . S
C3235 H3209 0.950 . S
C3235 C3234 1.414 . S
C3235 C3236 1.374 . S
C3236 H3210 0.950 . S
C3236 C3232 1.385 . S
C3236 C3235 1.374 . S
C3237 C3234 1.499 . S
C3237 C3238 1.373 . S
C3237 C3239 1.389 . S
C3238 H3211 0.950 . S
C3238 C3224 1.377 . S
C3238 C3237 1.373 . S
C3239 C3223 1.377 . S
C3239 C3237 1.389 . S
C3239 C3240 1.524 . S
C3240 C3239 1.524 . S
C3240 C3241 1.397 . S
C3240 C3245 1.363 . S
C3241 H3212 0.950 . S
C3241 C3240 1.397 . S
C3241 C3242 1.334 . S
C3242 H3213 0.950 . S
C3242 C3241 1.334 . S
C3242 C3243 1.287 . S
C3243 C3242 1.287 . S
C3243 C3244 1.524 . S
C3243 H3246 0.999 . S
C3244 H3214 0.950 . S
C3244 C3243 1.524 . S
C3244 C3245 1.415 . S
C3245 H3215 0.950 . S
C3245 C3240 1.363 . S
C3245 C3244 1.415 . S
H3246 C3243 0.999 . S
H3247 C3228 0.913 . S
H3248 C3266 0.951 . S
H3249 C3268 0.951 . S
H3250 C3270 0.950 . S
H3251 C3271 0.950 . S
H3252 C3273 0.950 . S
H3253 C3276 0.950 . S
H3254 C3277 0.950 . S
H3255 C3279 0.950 . S
H3256 C3280 0.950 . S
H3257 C3281 0.951 . S
H3258 C3283 0.951 . S
H3259 C3285 0.950 . S
H3260 C3286 0.950 . S
H3261 C3288 0.950 . S
H3262 C3291 0.950 . S
H3263 C3292 0.950 . S
H3264 C3294 0.950 . S
H3265 C3295 0.950 . S
C3266 H3248 0.951 . S
C3266 C3267 1.366 . S
C3266 C3268 1.388 . S
C3267 C3266 1.366 . S
C3267 C3271 1.385 . S
C3268 H3249 0.951 . S
C3268 C3266 1.388 . S
C3268 C3269 1.366 . S
C3269 C3268 1.366 . S
C3269 C3270 1.414 . S
C3269 C3272 1.499 . S
C3270 H3250 0.950 . S
C3270 C3269 1.414 . S
C3270 C3271 1.374 . S
C3271 H3251 0.950 . S
C3271 C3267 1.385 . S
C3271 C3270 1.374 . S
C3272 C3269 1.499 . S
C3272 C3273 1.373 . S
C3272 C3274 1.389 . S
C3273 H3252 0.950 . S
C3273 C3272 1.373 . S
C3273 C3289 1.377 . S
C3274 C3272 1.389 . S
C3274 C3275 1.524 . S
C3274 C3288 1.377 . S
C3275 C3274 1.524 . S
C3275 C3276 1.397 . S
C3275 C3280 1.363 . S
C3276 H3253 0.950 . S
C3276 C3275 1.397 . S
C3276 C3277 1.334 . S
C3277 H3254 0.950 . S
C3277 C3276 1.334 . S
C3277 C3278 1.287 . S
C3278 C3277 1.287 . S
C3278 C3279 1.524 . S
C3278 H3297 0.913 . S
C3279 H3255 0.950 . S
C3279 C3278 1.524 . S
C3279 C3280 1.415 . S
C3280 H3256 0.950 . S
C3280 C3275 1.363 . S
C3280 C3279 1.415 . S
C3281 H3257 0.951 . S
C3281 C3282 1.366 . S
C3281 C3283 1.388 . S
C3282 C3281 1.366 . S
C3282 C3286 1.385 . S
C3283 H3258 0.951 . S
C3283 C3281 1.388 . S
C3283 C3284 1.366 . S
C3284 C3283 1.366 . S
C3284 C3285 1.414 . S
C3284 C3287 1.499 . S
C3285 H3259 0.950 . S
C3285 C3284 1.414 . S
C3285 C3286 1.374 . S
C3286 H3260 0.950 . S
C3286 C3282 1.385 . S
C3286 C3285 1.374 . S
C3287 C3284 1.499 . S
C3287 C3288 1.373 . S
C3287 C3289 1.389 . S
C3288 H3261 0.950 . S
C3288 C3274 1.377 . S
C3288 C3287 1.373 . S
C3289 C3273 1.377 . S
C3289 C3287 1.389 . S
C3289 C3290 1.524 . S
C3290 C3289 1.524 . S
C3290 C3291 1.397 . S
C3290 C3295 1.363 . S
C3291 H3262 0.950 . S
C3291 C3290 1.397 . S
C3291 C3292 1.334 . S
C3292 H3263 0.950 . S
C3292 C3291 1.334 . S
C3292 C3293 1.287 . S
C3293 C3292 1.287 . S
C3293 C3294 1.524 . S
C3293 H3296 0.999 . S
C3294 H3264 0.950 . S
C3294 C3293 1.524 . S
C3294 C3295 1.415 . S
C3295 H3265 0.950 . S
C3295 C3290 1.363 . S
C3295 C3294 1.415 . S
H3296 C3293 0.999 . S
H3297 C3278 0.913 . S
H3298 C3316 0.951 . S
H3299 C3318 0.951 . S
H3300 C3320 0.950 . S
H3301 C3321 0.950 . S
H3302 C3323 0.950 . S
H3303 C3326 0.950 . S
H3304 C3327 0.950 . S
H3305 C3329 0.950 . S
H3306 C3330 0.950 . S
H3307 C3331 0.951 . S
H3308 C3333 0.951 . S
H3309 C3335 0.950 . S
H3310 C3336 0.950 . S
H3311 C3338 0.950 . S
H3312 C3341 0.950 . S
H3313 C3342 0.950 . S
H3314 C3344 0.950 . S
H3315 C3345 0.950 . S
C3316 H3298 0.951 . S
C3316 C3317 1.366 . S
C3316 C3318 1.388 . S
C3317 C3316 1.366 . S
C3317 C3321 1.385 . S
C3318 H3299 0.951 . S
C3318 C3316 1.388 . S
C3318 C3319 1.366 . S
C3319 C3318 1.366 . S
C3319 C3320 1.414 . S
C3319 C3322 1.499 . S
C3320 H3300 0.950 . S
C3320 C3319 1.414 . S
C3320 C3321 1.374 . S
C3321 H3301 0.950 . S
C3321 C3317 1.385 . S
C3321 C3320 1.374 . S
C3322 C3319 1.499 . S
C3322 C3323 1.373 . S
C3322 C3324 1.389 . S
C3323 H3302 0.950 . S
C3323 C3322 1.373 . S
C3323 C3339 1.377 . S
C3324 C3322 1.389 . S
C3324 C3325 1.524 . S
C3324 C3338 1.377 . S
C3325 C3324 1.524 . S
C3325 C3326 1.397 . S
C3325 C3330 1.363 . S
C3326 H3303 0.950 . S
C3326 C3325 1.397 . S
C3326 C3327 1.334 . S
C3327 H3304 0.950 . S
C3327 C3326 1.334 . S
C3327 C3328 1.287 . S
C3328 C3327 1.287 . S
C3328 C3329 1.524 . S
C3328 H3347 0.913 . S
C3329 H3305 0.950 . S
C3329 C3328 1.524 . S
C3329 C3330 1.415 . S
C3330 H3306 0.950 . S
C3330 C3325 1.363 . S
C3330 C3329 1.415 . S
C3331 H3307 0.951 . S
C3331 C3332 1.366 . S
C3331 C3333 1.388 . S
C3332 C3331 1.366 . S
C3332 C3336 1.385 . S
C3333 H3308 0.951 . S
C3333 C3331 1.388 . S
C3333 C3334 1.366 . S
C3334 C3333 1.366 . S
C3334 C3335 1.414 . S
C3334 C3337 1.499 . S
C3335 H3309 0.950 . S
C3335 C3334 1.414 . S
C3335 C3336 1.374 . S
C3336 H3310 0.950 . S
C3336 C3332 1.385 . S
C3336 C3335 1.374 . S
C3337 C3334 1.499 . S
C3337 C3338 1.373 . S
C3337 C3339 1.389 . S
C3338 H3311 0.950 . S
C3338 C3324 1.377 . S
C3338 C3337 1.373 . S
C3339 C3323 1.377 . S
C3339 C3337 1.389 . S
C3339 C3340 1.524 . S
C3340 C3339 1.524 . S
C3340 C3341 1.397 . S
C3340 C3345 1.363 . S
C3341 H3312 0.950 . S
C3341 C3340 1.397 . S
C3341 C3342 1.334 . S
C3342 H3313 0.950 . S
C3342 C3341 1.334 . S
C3342 C3343 1.287 . S
C3343 C3342 1.287 . S
C3343 C3344 1.524 . S
C3343 H3346 0.999 . S
C3344 H3314 0.950 . S
C3344 C3343 1.524 . S
C3344 C3345 1.415 . S
C3345 H3315 0.950 . S
C3345 C3340 1.363 . S
C3345 C3344 1.415 . S
H3346 C3343 0.999 . S
H3347 C3328 0.913 . S
H3348 C3366 0.951 . S
H3349 C3368 0.951 . S
H3350 C3370 0.950 . S
H3351 C3371 0.950 . S
H3352 C3373 0.950 . S
H3353 C3376 0.950 . S
H3354 C3377 0.950 . S
H3355 C3379 0.950 . S
H3356 C3380 0.950 . S
H3357 C3381 0.951 . S
H3358 C3383 0.951 . S
H3359 C3385 0.950 . S
H3360 C3386 0.950 . S
H3361 C3388 0.950 . S
H3362 C3391 0.950 . S
H3363 C3392 0.950 . S
H3364 C3394 0.950 . S
H3365 C3395 0.950 . S
C3366 H3348 0.951 . S
C3366 C3367 1.366 . S
C3366 C3368 1.388 . S
C3367 C3366 1.366 . S
C3367 C3371 1.385 . S
C3368 H3349 0.951 . S
C3368 C3366 1.388 . S
C3368 C3369 1.366 . S
C3369 C3368 1.366 . S
C3369 C3370 1.414 . S
C3369 C3372 1.499 . S
C3370 H3350 0.950 . S
C3370 C3369 1.414 . S
C3370 C3371 1.374 . S
C3371 H3351 0.950 . S
C3371 C3367 1.385 . S
C3371 C3370 1.374 . S
C3372 C3369 1.499 . S
C3372 C3373 1.373 . S
C3372 C3374 1.389 . S
C3373 H3352 0.950 . S
C3373 C3372 1.373 . S
C3373 C3389 1.377 . S
C3374 C3372 1.389 . S
C3374 C3375 1.524 . S
C3374 C3388 1.377 . S
C3375 C3374 1.524 . S
C3375 C3376 1.397 . S
C3375 C3380 1.363 . S
C3376 H3353 0.950 . S
C3376 C3375 1.397 . S
C3376 C3377 1.334 . S
C3377 H3354 0.950 . S
C3377 C3376 1.334 . S
C3377 C3378 1.287 . S
C3378 C3377 1.287 . S
C3378 C3379 1.524 . S
C3378 H3397 0.913 . S
C3379 H3355 0.950 . S
C3379 C3378 1.524 . S
C3379 C3380 1.415 . S
C3380 H3356 0.950 . S
C3380 C3375 1.363 . S
C3380 C3379 1.415 . S
C3381 H3357 0.951 . S
C3381 C3382 1.366 . S
C3381 C3383 1.388 . S
C3382 C3381 1.366 . S
C3382 C3386 1.385 . S
C3383 H3358 0.951 . S
C3383 C3381 1.388 . S
C3383 C3384 1.366 . S
C3384 C3383 1.366 . S
C3384 C3385 1.414 . S
C3384 C3387 1.499 . S
C3385 H3359 0.950 . S
C3385 C3384 1.414 . S
C3385 C3386 1.374 . S
C3386 H3360 0.950 . S
C3386 C3382 1.385 . S
C3386 C3385 1.374 . S
C3387 C3384 1.499 . S
C3387 C3388 1.373 . S
C3387 C3389 1.389 . S
C3388 H3361 0.950 . S
C3388 C3374 1.377 . S
C3388 C3387 1.373 . S
C3389 C3373 1.377 . S
C3389 C3387 1.389 . S
C3389 C3390 1.524 . S
C3390 C3389 1.524 . S
C3390 C3391 1.397 . S
C3390 C3395 1.363 . S
C3391 H3362 0.950 . S
C3391 C3390 1.397 . S
C3391 C3392 1.334 . S
C3392 H3363 0.950 . S
C3392 C3391 1.334 . S
C3392 C3393 1.287 . S
C3393 C3392 1.287 . S
C3393 C3394 1.524 . S
C3393 H3396 0.999 . S
C3394 H3364 0.950 . S
C3394 C3393 1.524 . S
C3394 C3395 1.415 . S
C3395 H3365 0.950 . S
C3395 C3390 1.363 . S
C3395 C3394 1.415 . S
H3396 C3393 0.999 . S
H3397 C3378 0.913 . S
H3398 C3416 0.951 . S
H3399 C3418 0.951 . S
H3400 C3420 0.950 . S
H3401 C3421 0.950 . S
H3402 C3423 0.950 . S
H3403 C3426 0.950 . S
H3404 C3427 0.950 . S
H3405 C3429 0.950 . S
H3406 C3430 0.950 . S
H3407 C3431 0.951 . S
H3408 C3433 0.951 . S
H3409 C3435 0.950 . S
H3410 C3436 0.950 . S
H3411 C3438 0.950 . S
H3412 C3441 0.950 . S
H3413 C3442 0.950 . S
H3414 C3444 0.950 . S
H3415 C3445 0.950 . S
C3416 H3398 0.951 . S
C3416 C3417 1.366 . S
C3416 C3418 1.388 . S
C3417 C3416 1.366 . S
C3417 C3421 1.385 . S
C3418 H3399 0.951 . S
C3418 C3416 1.388 . S
C3418 C3419 1.366 . S
C3419 C3418 1.366 . S
C3419 C3420 1.414 . S
C3419 C3422 1.499 . S
C3420 H3400 0.950 . S
C3420 C3419 1.414 . S
C3420 C3421 1.374 . S
C3421 H3401 0.950 . S
C3421 C3417 1.385 . S
C3421 C3420 1.374 . S
C3422 C3419 1.499 . S
C3422 C3423 1.373 . S
C3422 C3424 1.389 . S
C3423 H3402 0.950 . S
C3423 C3422 1.373 . S
C3423 C3439 1.377 . S
C3424 C3422 1.389 . S
C3424 C3425 1.524 . S
C3424 C3438 1.377 . S
C3425 C3424 1.524 . S
C3425 C3426 1.397 . S
C3425 C3430 1.363 . S
C3426 H3403 0.950 . S
C3426 C3425 1.397 . S
C3426 C3427 1.334 . S
C3427 H3404 0.950 . S
C3427 C3426 1.334 . S
C3427 C3428 1.287 . S
C3428 C3427 1.287 . S
C3428 C3429 1.524 . S
C3428 H3447 0.913 . S
C3429 H3405 0.950 . S
C3429 C3428 1.524 . S
C3429 C3430 1.415 . S
C3430 H3406 0.950 . S
C3430 C3425 1.363 . S
C3430 C3429 1.415 . S
C3431 H3407 0.951 . S
C3431 C3432 1.366 . S
C3431 C3433 1.388 . S
C3432 C3431 1.366 . S
C3432 C3436 1.385 . S
C3433 H3408 0.951 . S
C3433 C3431 1.388 . S
C3433 C3434 1.366 . S
C3434 C3433 1.366 . S
C3434 C3435 1.414 . S
C3434 C3437 1.499 . S
C3435 H3409 0.950 . S
C3435 C3434 1.414 . S
C3435 C3436 1.374 . S
C3436 H3410 0.950 . S
C3436 C3432 1.385 . S
C3436 C3435 1.374 . S
C3437 C3434 1.499 . S
C3437 C3438 1.373 . S
C3437 C3439 1.389 . S
C3438 H3411 0.950 . S
C3438 C3424 1.377 . S
C3438 C3437 1.373 . S
C3439 C3423 1.377 . S
C3439 C3437 1.389 . S
C3439 C3440 1.524 . S
C3440 C3439 1.524 . S
C3440 C3441 1.397 . S
C3440 C3445 1.363 . S
C3441 H3412 0.950 . S
C3441 C3440 1.397 . S
C3441 C3442 1.334 . S
C3442 H3413 0.950 . S
C3442 C3441 1.334 . S
C3442 C3443 1.287 . S
C3443 C3442 1.287 . S
C3443 C3444 1.524 . S
C3443 H3446 0.999 . S
C3444 H3414 0.950 . S
C3444 C3443 1.524 . S
C3444 C3445 1.415 . S
C3445 H3415 0.950 . S
C3445 C3440 1.363 . S
C3445 C3444 1.415 . S
H3446 C3443 0.999 . S
H3447 C3428 0.913 . S
H3448 C3466 0.951 . S
H3449 C3468 0.951 . S
H3450 C3470 0.950 . S
H3451 C3471 0.950 . S
H3452 C3473 0.950 . S
H3453 C3476 0.950 . S
H3454 C3477 0.950 . S
H3455 C3479 0.950 . S
H3456 C3480 0.950 . S
H3457 C3481 0.951 . S
H3458 C3483 0.951 . S
H3459 C3485 0.950 . S
H3460 C3486 0.950 . S
H3461 C3488 0.950 . S
H3462 C3491 0.950 . S
H3463 C3492 0.950 . S
H3464 C3494 0.950 . S
H3465 C3495 0.950 . S
C3466 H3448 0.951 . S
C3466 C3467 1.366 . S
C3466 C3468 1.388 . S
C3467 C3466 1.366 . S
C3467 C3471 1.385 . S
C3468 H3449 0.951 . S
C3468 C3466 1.388 . S
C3468 C3469 1.366 . S
C3469 C3468 1.366 . S
C3469 C3470 1.414 . S
C3469 C3472 1.499 . S
C3470 H3450 0.950 . S
C3470 C3469 1.414 . S
C3470 C3471 1.374 . S
C3471 H3451 0.950 . S
C3471 C3467 1.385 . S
C3471 C3470 1.374 . S
C3472 C3469 1.499 . S
C3472 C3473 1.373 . S
C3472 C3474 1.389 . S
C3473 H3452 0.950 . S
C3473 C3472 1.373 . S
C3473 C3489 1.377 . S
C3474 C3472 1.389 . S
C3474 C3475 1.524 . S
C3474 C3488 1.377 . S
C3475 C3474 1.524 . S
C3475 C3476 1.397 . S
C3475 C3480 1.363 . S
C3476 H3453 0.950 . S
C3476 C3475 1.397 . S
C3476 C3477 1.334 . S
C3477 H3454 0.950 . S
C3477 C3476 1.334 . S
C3477 C3478 1.287 . S
C3478 C3477 1.287 . S
C3478 C3479 1.524 . S
C3478 H3497 0.913 . S
C3479 H3455 0.950 . S
C3479 C3478 1.524 . S
C3479 C3480 1.415 . S
C3480 H3456 0.950 . S
C3480 C3475 1.363 . S
C3480 C3479 1.415 . S
C3481 H3457 0.951 . S
C3481 C3482 1.366 . S
C3481 C3483 1.388 . S
C3482 C3481 1.366 . S
C3482 C3486 1.385 . S
C3483 H3458 0.951 . S
C3483 C3481 1.388 . S
C3483 C3484 1.366 . S
C3484 C3483 1.366 . S
C3484 C3485 1.414 . S
C3484 C3487 1.499 . S
C3485 H3459 0.950 . S
C3485 C3484 1.414 . S
C3485 C3486 1.374 . S
C3486 H3460 0.950 . S
C3486 C3482 1.385 . S
C3486 C3485 1.374 . S
C3487 C3484 1.499 . S
C3487 C3488 1.373 . S
C3487 C3489 1.389 . S
C3488 H3461 0.950 . S
C3488 C3474 1.377 . S
C3488 C3487 1.373 . S
C3489 C3473 1.377 . S
C3489 C3487 1.389 . S
C3489 C3490 1.524 . S
C3490 C3489 1.524 . S
C3490 C3491 1.397 . S
C3490 C3495 1.363 . S
C3491 H3462 0.950 . S
C3491 C3490 1.397 . S
C3491 C3492 1.334 . S
C3492 H3463 0.950 . S
C3492 C3491 1.334 . S
C3492 C3493 1.287 . S
C3493 C3492 1.287 . S
C3493 C3494 1.524 . S
C3493 H3496 0.999 . S
C3494 H3464 0.950 . S
C3494 C3493 1.524 . S
C3494 C3495 1.415 . S
C3495 H3465 0.950 . S
C3495 C3490 1.363 . S
C3495 C3494 1.415 . S
H3496 C3493 0.999 . S
H3497 C3478 0.913 . S
H3498 C3516 0.951 . S
H3499 C3518 0.951 . S
H3500 C3520 0.950 . S
H3501 C3521 0.950 . S
H3502 C3523 0.950 . S
H3503 C3526 0.950 . S
H3504 C3527 0.950 . S
H3505 C3529 0.950 . S
H3506 C3530 0.950 . S
H3507 C3531 0.951 . S
H3508 C3533 0.951 . S
H3509 C3535 0.950 . S
H3510 C3536 0.950 . S
H3511 C3538 0.950 . S
H3512 C3541 0.950 . S
H3513 C3542 0.950 . S
H3514 C3544 0.950 . S
H3515 C3545 0.950 . S
C3516 H3498 0.951 . S
C3516 C3517 1.366 . S
C3516 C3518 1.388 . S
C3517 C3516 1.366 . S
C3517 C3521 1.385 . S
C3518 H3499 0.951 . S
C3518 C3516 1.388 . S
C3518 C3519 1.366 . S
C3519 C3518 1.366 . S
C3519 C3520 1.414 . S
C3519 C3522 1.499 . S
C3520 H3500 0.950 . S
C3520 C3519 1.414 . S
C3520 C3521 1.374 . S
C3521 H3501 0.950 . S
C3521 C3517 1.385 . S
C3521 C3520 1.374 . S
C3522 C3519 1.499 . S
C3522 C3523 1.373 . S
C3522 C3524 1.389 . S
C3523 H3502 0.950 . S
C3523 C3522 1.373 . S
C3523 C3539 1.377 . S
C3524 C3522 1.389 . S
C3524 C3525 1.524 . S
C3524 C3538 1.377 . S
C3525 C3524 1.524 . S
C3525 C3526 1.397 . S
C3525 C3530 1.363 . S
C3526 H3503 0.950 . S
C3526 C3525 1.397 . S
C3526 C3527 1.334 . S
C3527 H3504 0.950 . S
C3527 C3526 1.334 . S
C3527 C3528 1.287 . S
C3528 C3527 1.287 . S
C3528 C3529 1.524 . S
C3528 H3547 0.913 . S
C3529 H3505 0.950 . S
C3529 C3528 1.524 . S
C3529 C3530 1.415 . S
C3530 H3506 0.950 . S
C3530 C3525 1.363 . S
C3530 C3529 1.415 . S
C3531 H3507 0.951 . S
C3531 C3532 1.366 . S
C3531 C3533 1.388 . S
C3532 C3531 1.366 . S
C3532 C3536 1.385 . S
C3533 H3508 0.951 . S
C3533 C3531 1.388 . S
C3533 C3534 1.366 . S
C3534 C3533 1.366 . S
C3534 C3535 1.414 . S
C3534 C3537 1.499 . S
C3535 H3509 0.950 . S
C3535 C3534 1.414 . S
C3535 C3536 1.374 . S
C3536 H3510 0.950 . S
C3536 C3532 1.385 . S
C3536 C3535 1.374 . S
C3537 C3534 1.499 . S
C3537 C3538 1.373 . S
C3537 C3539 1.389 . S
C3538 H3511 0.950 . S
C3538 C3524 1.377 . S
C3538 C3537 1.373 . S
C3539 C3523 1.377 . S
C3539 C3537 1.389 . S
C3539 C3540 1.524 . S
C3540 C3539 1.524 . S
C3540 C3541 1.397 . S
C3540 C3545 1.363 . S
C3541 H3512 0.950 . S
C3541 C3540 1.397 . S
C3541 C3542 1.334 . S
C3542 H3513 0.950 . S
C3542 C3541 1.334 . S
C3542 C3543 1.287 . S
C3543 C3542 1.287 . S
C3543 C3544 1.524 . S
C3543 H3546 0.999 . S
C3544 H3514 0.950 . S
C3544 C3543 1.524 . S
C3544 C3545 1.415 . S
C3545 H3515 0.950 . S
C3545 C3540 1.363 . S
C3545 C3544 1.415 . S
H3546 C3543 0.999 . S
H3547 C3528 0.913 . S
H3548 C3566 0.951 . S
H3549 C3568 0.951 . S
H3550 C3570 0.950 . S
H3551 C3571 0.950 . S
H3552 C3573 0.950 . S
H3553 C3576 0.950 . S
H3554 C3577 0.950 . S
H3555 C3579 0.950 . S
H3556 C3580 0.950 . S
H3557 C3581 0.951 . S
H3558 C3583 0.951 . S
H3559 C3585 0.950 . S
H3560 C3586 0.950 . S
H3561 C3588 0.950 . S
H3562 C3591 0.950 . S
H3563 C3592 0.950 . S
H3564 C3594 0.950 . S
H3565 C3595 0.950 . S
C3566 H3548 0.951 . S
C3566 C3567 1.366 . S
C3566 C3568 1.388 . S
C3567 C3566 1.366 . S
C3567 C3571 1.385 . S
C3568 H3549 0.951 . S
C3568 C3566 1.388 . S
C3568 C3569 1.366 . S
C3569 C3568 1.366 . S
C3569 C3570 1.414 . S
C3569 C3572 1.499 . S
C3570 H3550 0.950 . S
C3570 C3569 1.414 . S
C3570 C3571 1.374 . S
C3571 H3551 0.950 . S
C3571 C3567 1.385 . S
C3571 C3570 1.374 . S
C3572 C3569 1.499 . S
C3572 C3573 1.373 . S
C3572 C3574 1.389 . S
C3573 H3552 0.950 . S
C3573 C3572 1.373 . S
C3573 C3589 1.377 . S
C3574 C3572 1.389 . S
C3574 C3575 1.524 . S
C3574 C3588 1.377 . S
C3575 C3574 1.524 . S
C3575 C3576 1.397 . S
C3575 C3580 1.363 . S
C3576 H3553 0.950 . S
C3576 C3575 1.397 . S
C3576 C3577 1.334 . S
C3577 H3554 0.950 . S
C3577 C3576 1.334 . S
C3577 C3578 1.287 . S
C3578 C3577 1.287 . S
C3578 C3579 1.524 . S
C3578 H3597 0.913 . S
C3579 H3555 0.950 . S
C3579 C3578 1.524 . S
C3579 C3580 1.415 . S
C3580 H3556 0.950 . S
C3580 C3575 1.363 . S
C3580 C3579 1.415 . S
C3581 H3557 0.951 . S
C3581 C3582 1.366 . S
C3581 C3583 1.388 . S
C3582 C3581 1.366 . S
C3582 C3586 1.385 . S
C3583 H3558 0.951 . S
C3583 C3581 1.388 . S
C3583 C3584 1.366 . S
C3584 C3583 1.366 . S
C3584 C3585 1.414 . S
C3584 C3587 1.499 . S
C3585 H3559 0.950 . S
C3585 C3584 1.414 . S
C3585 C3586 1.374 . S
C3586 H3560 0.950 . S
C3586 C3582 1.385 . S
C3586 C3585 1.374 . S
C3587 C3584 1.499 . S
C3587 C3588 1.373 . S
C3587 C3589 1.389 . S
C3588 H3561 0.950 . S
C3588 C3574 1.377 . S
C3588 C3587 1.373 . S
C3589 C3573 1.377 . S
C3589 C3587 1.389 . S
C3589 C3590 1.524 . S
C3590 C3589 1.524 . S
C3590 C3591 1.397 . S
C3590 C3595 1.363 . S
C3591 H3562 0.950 . S
C3591 C3590 1.397 . S
C3591 C3592 1.334 . S
C3592 H3563 0.950 . S
C3592 C3591 1.334 . S
C3592 C3593 1.287 . S
C3593 C3592 1.287 . S
C3593 C3594 1.524 . S
C3593 H3596 0.999 . S
C3594 H3564 0.950 . S
C3594 C3593 1.524 . S
C3594 C3595 1.415 . S
C3595 H3565 0.950 . S
C3595 C3590 1.363 . S
C3595 C3594 1.415 . S
H3596 C3593 0.999 . S
H3597 C3578 0.913 . S
H3598 C3616 0.951 . S
H3599 C3618 0.951 . S
H3600 C3620 0.950 . S
H3601 C3621 0.950 . S
H3602 C3623 0.950 . S
H3603 C3626 0.950 . S
H3604 C3627 0.950 . S
H3605 C3629 0.950 . S
H3606 C3630 0.950 . S
H3607 C3631 0.951 . S
H3608 C3633 0.951 . S
H3609 C3635 0.950 . S
H3610 C3636 0.950 . S
H3611 C3638 0.950 . S
H3612 C3641 0.950 . S
H3613 C3642 0.950 . S
H3614 C3644 0.950 . S
H3615 C3645 0.950 . S
C3616 H3598 0.951 . S
C3616 C3617 1.366 . S
C3616 C3618 1.388 . S
C3617 C3616 1.366 . S
C3617 C3621 1.385 . S
C3618 H3599 0.951 . S
C3618 C3616 1.388 . S
C3618 C3619 1.366 . S
C3619 C3618 1.366 . S
C3619 C3620 1.414 . S
C3619 C3622 1.499 . S
C3620 H3600 0.950 . S
C3620 C3619 1.414 . S
C3620 C3621 1.374 . S
C3621 H3601 0.950 . S
C3621 C3617 1.385 . S
C3621 C3620 1.374 . S
C3622 C3619 1.499 . S
C3622 C3623 1.373 . S
C3622 C3624 1.389 . S
C3623 H3602 0.950 . S
C3623 C3622 1.373 . S
C3623 C3639 1.377 . S
C3624 C3622 1.389 . S
C3624 C3625 1.524 . S
C3624 C3638 1.377 . S
C3625 C3624 1.524 . S
C3625 C3626 1.397 . S
C3625 C3630 1.363 . S
C3626 H3603 0.950 . S
C3626 C3625 1.397 . S
C3626 C3627 1.334 . S
C3627 H3604 0.950 . S
C3627 C3626 1.334 . S
C3627 C3628 1.287 . S
C3628 C3627 1.287 . S
C3628 C3629 1.524 . S
C3628 H3647 0.913 . S
C3629 H3605 0.950 . S
C3629 C3628 1.524 . S
C3629 C3630 1.415 . S
C3630 H3606 0.950 . S
C3630 C3625 1.363 . S
C3630 C3629 1.415 . S
C3631 H3607 0.951 . S
C3631 C3632 1.366 . S
C3631 C3633 1.388 . S
C3632 C3631 1.366 . S
C3632 C3636 1.385 . S
C3633 H3608 0.951 . S
C3633 C3631 1.388 . S
C3633 C3634 1.366 . S
C3634 C3633 1.366 . S
C3634 C3635 1.414 . S
C3634 C3637 1.499 . S
C3635 H3609 0.950 . S
C3635 C3634 1.414 . S
C3635 C3636 1.374 . S
C3636 H3610 0.950 . S
C3636 C3632 1.385 . S
C3636 C3635 1.374 . S
C3637 C3634 1.499 . S
C3637 C3638 1.373 . S
C3637 C3639 1.389 . S
C3638 H3611 0.950 . S
C3638 C3624 1.377 . S
C3638 C3637 1.373 . S
C3639 C3623 1.377 . S
C3639 C3637 1.389 . S
C3639 C3640 1.524 . S
C3640 C3639 1.524 . S
C3640 C3641 1.397 . S
C3640 C3645 1.363 . S
C3641 H3612 0.950 . S
C3641 C3640 1.397 . S
C3641 C3642 1.334 . S
C3642 H3613 0.950 . S
C3642 C3641 1.334 . S
C3642 C3643 1.287 . S
C3643 C3642 1.287 . S
C3643 C3644 1.524 . S
C3643 H3646 0.999 . S
C3644 H3614 0.950 . S
C3644 C3643 1.524 . S
C3644 C3645 1.415 . S
C3645 H3615 0.950 . S
C3645 C3640 1.363 . S
C3645 C3644 1.415 . S
H3646 C3643 0.999 . S
H3647 C3628 0.913 . S
C467 C415 1.691 . S
C482 C9 1.691 . S
C517 C23 1.691 . S
C532 C429 1.691 . S
C567 C443 1.692 . S
C582 C37 1.691 . S
C617 C401 1.691 . S
C632 C51 1.692 . S
C667 C65 1.692 . S
C682 C387 1.691 . S
C717 C345 1.691 . S
C732 C79 1.691 . S
C767 C93 1.692 . S
C782 C359 1.691 . S
C817 C373 1.691 . S
C832 C107 1.691 . S
C867 C121 1.692 . S
C882 C303 1.691 . S
C917 C135 1.691 . S
C932 C317 1.691 . S
C967 C331 1.691 . S
C982 C149 1.691 . S
C1017 C163 1.691 . S
C1032 C289 1.692 . S
C1067 C275 1.691 . S
C1082 C177 1.691 . S
C1117 C233 1.691 . S
C1132 C191 1.691 . S
C1167 C205 1.692 . S
C1182 C247 1.691 . S
C1217 C219 1.691 . S
C1232 C261 1.691 . S
C1267 C7 1.412 . S
C1282 C147 1.412 . S
C1317 C161 1.412 . S
C1332 C21 1.412 . S
C1367 C119 1.412 . S
C1382 C35 1.412 . S
C1417 C133 1.411 . S
C1432 C49 1.413 . S
C1467 C63 1.412 . S
C1482 C203 1.411 . S
C1517 C217 1.412 . S
C1532 C77 1.412 . S
C1567 C175 1.412 . S
C1582 C91 1.412 . S
C1617 C189 1.412 . S
C1632 C105 1.412 . S
C1667 C231 1.412 . S
C1682 C371 1.411 . S
C1717 C385 1.411 . S
C1732 C245 1.412 . S
C1767 C343 1.412 . S
C1782 C259 1.412 . S
C1817 C273 1.411 . S
C1832 C357 1.412 . S
C1867 C287 1.412 . S
C1882 C427 1.412 . S
C1917 C441 1.411 . S
C1932 C301 1.413 . S
C1967 C399 1.412 . S
C1982 C315 1.411 . S
C2017 C329 1.413 . S
C2032 C413 1.411 . S
C2067 C6 1.617 . S
C2082 C62 1.616 . S
C2117 C20 1.617 . S
C2132 C76 1.617 . S
C2167 C90 1.617 . S
C2182 C34 1.617 . S
C2217 C48 1.617 . S
C2232 C104 1.617 . S
C2267 C118 1.617 . S
C2282 C174 1.616 . S
C2317 C188 1.617 . S
C2332 C132 1.617 . S
C2367 C202 1.616 . S
C2382 C146 1.617 . S
C2417 C160 1.617 . S
C2432 C216 1.617 . S
C2467 C230 1.617 . S
C2482 C286 1.616 . S
C2517 C300 1.618 . S
C2532 C244 1.617 . S
C2567 C258 1.617 . S
C2582 C314 1.616 . S
C2617 C328 1.616 . S
C2632 C272 1.617 . S
C2667 C398 1.616 . S
C2682 C342 1.617 . S
C2717 C356 1.617 . S
C2732 C412 1.617 . S
C2767 C370 1.617 . S
C2782 C426 1.616 . S
C2817 C384 1.616 . S
C2832 C440 1.617 . S
C2867 C8 1.376 . S
C2882 C78 1.376 . S
C2917 C22 1.376 . S
C2932 C92 1.376 . S
C2967 C106 1.376 . S
C2982 C36 1.376 . S
C3017 C64 1.376 . S
C3032 C50 1.376 . S
C3067 C190 1.376 . S
C3082 C120 1.376 . S
C3117 C204 1.376 . S
C3132 C134 1.376 . S
C3167 C218 1.376 . S
C3182 C148 1.376 . S
C3217 C162 1.376 . S
C3232 C176 1.376 . S
C3267 C232 1.376 . S
C3282 C302 1.376 . S
C3317 C316 1.376 . S
C3332 C246 1.376 . S
C3367 C330 1.376 . S
C3382 C260 1.376 . S
C3417 C274 1.377 . S
C3432 C288 1.377 . S
C3467 C414 1.377 . S
C3482 C344 1.377 . S
C3517 C358 1.376 . S
C3532 C428 1.376 . S
C3567 C372 1.376 . S
C3582 C442 1.376 . S
C3617 C400 1.376 . S
C3632 C386 1.376 . S
