# Generated by pormake.
# Topology lta, (4)-cn, num edge types: 1
# Building blocks:
#     Node 0, Type 0, BuildingBlock: AZAVOO_clean_sbu_0, # of connection points: 4
#     Node 1, Type 0, BuildingBlock: AZAVOO_clean_sbu_0, # of connection points: 4
#     Node 2, Type 0, BuildingBlock: AZAVOO_clean_sbu_0, # of connection points: 4
#     Node 3, Type 0, BuildingBlock: AZAVOO_clean_sbu_0, # of connection points: 4
#     Node 4, Type 0, BuildingBlock: AZAVOO_clean_sbu_0, # of connection points: 4
#     Node 5, Type 0, BuildingBlock: AZAVOO_clean_sbu_0, # of connection points: 4
#     Node 6, Type 0, BuildingBlock: AZAVOO_clean_sbu_0, # of connection points: 4
#     Node 7, Type 0, BuildingBlock: AZAVOO_clean_sbu_0, # of connection points: 4
#     Node 8, Type 0, BuildingBlock: AZAVOO_clean_sbu_0, # of connection points: 4
#     Node 9, Type 0, BuildingBlock: AZAVOO_clean_sbu_0, # of connection points: 4
#     Node 10, Type 0, BuildingBlock: AZAVOO_clean_sbu_0, # of connection points: 4
#     Node 11, Type 0, BuildingBlock: AZAVOO_clean_sbu_0, # of connection points: 4
#     Node 12, Type 0, BuildingBlock: AZAVOO_clean_sbu_0, # of connection points: 4
#     Node 13, Type 0, BuildingBlock: AZAVOO_clean_sbu_0, # of connection points: 4
#     Node 14, Type 0, BuildingBlock: AZAVOO_clean_sbu_0, # of connection points: 4
#     Node 15, Type 0, BuildingBlock: AZAVOO_clean_sbu_0, # of connection points: 4
#     Node 16, Type 0, BuildingBlock: AZAVOO_clean_sbu_0, # of connection points: 4
#     Node 17, Type 0, BuildingBlock: AZAVOO_clean_sbu_0, # of connection points: 4
#     Node 18, Type 0, BuildingBlock: AZAVOO_clean_sbu_0, # of connection points: 4
#     Node 19, Type 0, BuildingBlock: AZAVOO_clean_sbu_0, # of connection points: 4
#     Node 20, Type 0, BuildingBlock: AZAVOO_clean_sbu_0, # of connection points: 4
#     Node 21, Type 0, BuildingBlock: AZAVOO_clean_sbu_0, # of connection points: 4
#     Node 22, Type 0, BuildingBlock: AZAVOO_clean_sbu_0, # of connection points: 4
#     Node 23, Type 0, BuildingBlock: AZAVOO_clean_sbu_0, # of connection points: 4
#     Edge 24, Type (0, 0), BuildingBlock: OJICUG_clean_linker_0, # of connection points: 2
#     Edge 25, Type (0, 0), BuildingBlock: OJICUG_clean_linker_0, # of connection points: 2
#     Edge 26, Type (0, 0), BuildingBlock: OJICUG_clean_linker_0, # of connection points: 2
#     Edge 27, Type (0, 0), BuildingBlock: OJICUG_clean_linker_0, # of connection points: 2
#     Edge 28, Type (0, 0), BuildingBlock: OJICUG_clean_linker_0, # of connection points: 2
#     Edge 29, Type (0, 0), BuildingBlock: OJICUG_clean_linker_0, # of connection points: 2
#     Edge 30, Type (0, 0), BuildingBlock: OJICUG_clean_linker_0, # of connection points: 2
#     Edge 31, Type (0, 0), BuildingBlock: OJICUG_clean_linker_0, # of connection points: 2
#     Edge 32, Type (0, 0), BuildingBlock: OJICUG_clean_linker_0, # of connection points: 2
#     Edge 33, Type (0, 0), BuildingBlock: OJICUG_clean_linker_0, # of connection points: 2
#     Edge 34, Type (0, 0), BuildingBlock: OJICUG_clean_linker_0, # of connection points: 2
#     Edge 35, Type (0, 0), BuildingBlock: OJICUG_clean_linker_0, # of connection points: 2
#     Edge 36, Type (0, 0), BuildingBlock: OJICUG_clean_linker_0, # of connection points: 2
#     Edge 37, Type (0, 0), BuildingBlock: OJICUG_clean_linker_0, # of connection points: 2
#     Edge 38, Type (0, 0), BuildingBlock: OJICUG_clean_linker_0, # of connection points: 2
#     Edge 39, Type (0, 0), BuildingBlock: OJICUG_clean_linker_0, # of connection points: 2
#     Edge 40, Type (0, 0), BuildingBlock: OJICUG_clean_linker_0, # of connection points: 2
#     Edge 41, Type (0, 0), BuildingBlock: OJICUG_clean_linker_0, # of connection points: 2
#     Edge 42, Type (0, 0), BuildingBlock: OJICUG_clean_linker_0, # of connection points: 2
#     Edge 43, Type (0, 0), BuildingBlock: OJICUG_clean_linker_0, # of connection points: 2
#     Edge 44, Type (0, 0), BuildingBlock: OJICUG_clean_linker_0, # of connection points: 2
#     Edge 45, Type (0, 0), BuildingBlock: OJICUG_clean_linker_0, # of connection points: 2
#     Edge 46, Type (0, 0), BuildingBlock: OJICUG_clean_linker_0, # of connection points: 2
#     Edge 47, Type (0, 0), BuildingBlock: OJICUG_clean_linker_0, # of connection points: 2
#     Edge 48, Type (0, 0), BuildingBlock: OJICUG_clean_linker_0, # of connection points: 2
#     Edge 49, Type (0, 0), BuildingBlock: OJICUG_clean_linker_0, # of connection points: 2
#     Edge 50, Type (0, 0), BuildingBlock: OJICUG_clean_linker_0, # of connection points: 2
#     Edge 51, Type (0, 0), BuildingBlock: OJICUG_clean_linker_0, # of connection points: 2
#     Edge 52, Type (0, 0), BuildingBlock: OJICUG_clean_linker_0, # of connection points: 2
#     Edge 53, Type (0, 0), BuildingBlock: OJICUG_clean_linker_0, # of connection points: 2
#     Edge 54, Type (0, 0), BuildingBlock: OJICUG_clean_linker_0, # of connection points: 2
#     Edge 55, Type (0, 0), BuildingBlock: OJICUG_clean_linker_0, # of connection points: 2
#     Edge 56, Type (0, 0), BuildingBlock: OJICUG_clean_linker_0, # of connection points: 2
#     Edge 57, Type (0, 0), BuildingBlock: OJICUG_clean_linker_0, # of connection points: 2
#     Edge 58, Type (0, 0), BuildingBlock: OJICUG_clean_linker_0, # of connection points: 2
#     Edge 59, Type (0, 0), BuildingBlock: OJICUG_clean_linker_0, # of connection points: 2
#     Edge 60, Type (0, 0), BuildingBlock: OJICUG_clean_linker_0, # of connection points: 2
#     Edge 61, Type (0, 0), BuildingBlock: OJICUG_clean_linker_0, # of connection points: 2
#     Edge 62, Type (0, 0), BuildingBlock: OJICUG_clean_linker_0, # of connection points: 2
#     Edge 63, Type (0, 0), BuildingBlock: OJICUG_clean_linker_0, # of connection points: 2
#     Edge 64, Type (0, 0), BuildingBlock: OJICUG_clean_linker_0, # of connection points: 2
#     Edge 65, Type (0, 0), BuildingBlock: OJICUG_clean_linker_0, # of connection points: 2
#     Edge 66, Type (0, 0), BuildingBlock: OJICUG_clean_linker_0, # of connection points: 2
#     Edge 67, Type (0, 0), BuildingBlock: OJICUG_clean_linker_0, # of connection points: 2
#     Edge 68, Type (0, 0), BuildingBlock: OJICUG_clean_linker_0, # of connection points: 2
#     Edge 69, Type (0, 0), BuildingBlock: OJICUG_clean_linker_0, # of connection points: 2
#     Edge 70, Type (0, 0), BuildingBlock: OJICUG_clean_linker_0, # of connection points: 2
#     Edge 71, Type (0, 0), BuildingBlock: OJICUG_clean_linker_0, # of connection points: 2
# Relax obj value: 0.170
# Max RMSD: 0.071
# Mean RMSD: 0.071
data_MOF--net-lta--node1-AZAVOO_clean_sbu_0--edge1-OJICUG_clean_linker_0
_symmetry_space_group_name_H-M    P1
_symmetry_Int_Tables_number       1
_symmetry_cell_setting            triclinic
loop_
_symmetry_equiv_pos_as_xyz
'x, y, z'
_cell_length_a     40.877474
_cell_length_b     40.913947
_cell_length_c     40.905446
_cell_angle_alpha  90.020202
_cell_angle_beta   90.003225
_cell_angle_gamma 89.847485
loop_
_atom_site_label
_atom_site_type_symbol
_atom_site_fract_x
_atom_site_fract_y
_atom_site_fract_z
_atom_type_partial_charge
Mg0 Mg 0.11349 0.30369 0.54379 0.0
O1 O 0.11761 0.33244 0.49573 0.0
O2 O 0.06785 0.35141 0.48337 0.0
Mg3 Mg 0.03239 0.33857 0.52495 0.0
C4 C 0.09818 0.34782 0.47686 0.0
C5 C 0.18182 0.27441 0.55949 0.0
O6 O 0.16403 0.26291 0.58362 0.0
O7 O 0.11371 0.35241 0.57404 0.0
O8 O 0.06245 0.36732 0.56159 0.0
O9 O 0.09348 0.25958 0.51613 0.0
O10 O 0.0628 0.29733 0.53915 0.0
C11 C 0.08898 0.37163 0.57746 0.0
C12 C 0.06466 0.27098 0.52252 0.0
O13 O 0.16909 0.29557 0.54057 0.0
Mg14 Mg 0.70543 0.12049 0.54483 0.0
O15 O 0.67876 0.11396 0.49571 0.0
O16 O 0.66589 0.0613 0.4901 0.0
Mg17 Mg 0.67849 0.03483 0.53782 0.0
C18 C 0.66668 0.09052 0.47919 0.0
C19 C 0.73152 0.19193 0.54462 0.0
O20 O 0.74697 0.17999 0.57014 0.0
O21 O 0.65485 0.12173 0.57157 0.0
O22 O 0.64378 0.06858 0.56465 0.0
O23 O 0.75195 0.09992 0.52222 0.0
O24 O 0.71609 0.07047 0.54924 0.0
C25 C 0.63615 0.09681 0.57555 0.0
C26 C 0.74258 0.07167 0.53273 0.0
O27 O 0.70909 0.17488 0.53148 0.0
Mg28 Mg 0.88673 0.70369 0.54196 0.0
O29 O 0.88353 0.6791 0.49152 0.0
O30 O 0.93346 0.66103 0.4784 0.0
Mg31 Mg 0.96749 0.66848 0.5222 0.0
C32 C 0.90331 0.66552 0.47163 0.0
C33 C 0.81954 0.73578 0.55587 0.0
O34 O 0.83734 0.74633 0.58043 0.0
O35 O 0.88424 0.6524 0.56743 0.0
O36 O 0.9347 0.63639 0.55325 0.0
O37 O 0.9085 0.74927 0.51865 0.0
O38 O 0.93772 0.70905 0.53929 0.0
C39 C 0.90762 0.63128 0.56787 0.0
C40 C 0.93685 0.7366 0.52464 0.0
O41 O 0.83153 0.71385 0.53732 0.0
Mg42 Mg 0.3015 0.89407 0.54848 0.0
O43 O 0.33819 0.89862 0.50625 0.0
O44 O 0.35967 0.94863 0.50917 0.0
Mg45 Mg 0.33501 0.97755 0.55049 0.0
C46 C 0.35807 0.9203 0.49611 0.0
C47 C 0.27364 0.82328 0.54826 0.0
O48 O 0.25825 0.83562 0.57364 0.0
O49 O 0.34537 0.88932 0.58518 0.0
O50 O 0.35883 0.94244 0.58567 0.0
O51 O 0.26195 0.9173 0.51704 0.0
O52 O 0.29361 0.94452 0.55087 0.0
C53 C 0.36219 0.91338 0.59641 0.0
C54 C 0.2709 0.94494 0.52941 0.0
O55 O 0.29642 0.83986 0.53516 0.0
Mg56 Mg 0.12019 0.71009 0.46729 0.0
O57 O 0.11051 0.67698 0.5116 0.0
O58 O 0.06141 0.6542 0.50464 0.0
Mg59 Mg 0.0392 0.67206 0.45654 0.0
C60 C 0.08785 0.65777 0.52093 0.0
C61 C 0.19247 0.73686 0.47392 0.0
O62 O 0.18637 0.74712 0.4441 0.0
O63 O 0.13236 0.66288 0.43754 0.0
O64 O 0.08094 0.64423 0.43315 0.0
O65 O 0.09148 0.75104 0.49118 0.0
O66 O 0.06998 0.71524 0.45739 0.0
C67 C 0.11152 0.64169 0.42751 0.0
C68 C 0.06581 0.73941 0.47689 0.0
O69 O 0.17176 0.71839 0.48791 0.0
Mg70 Mg 0.3018 0.12817 0.47186 0.0
O71 O 0.3339 0.12084 0.51781 0.0
O72 O 0.35671 0.07126 0.51431 0.0
Mg73 Mg 0.3399 0.04615 0.46736 0.0
C74 C 0.35268 0.09855 0.52897 0.0
C75 C 0.28007 0.18349 0.51752 0.0
O76 O 0.28103 0.15723 0.53595 0.0
O77 O 0.35005 0.13801 0.44225 0.0
O78 O 0.36798 0.08607 0.44192 0.0
O79 O 0.25982 0.10073 0.49543 0.0
O80 O 0.29727 0.07764 0.4645 0.0
C81 C 0.37115 0.11606 0.43416 0.0
C82 C 0.27199 0.07451 0.48264 0.0
O83 O 0.29048 0.1813 0.48817 0.0
Mg84 Mg 0.88497 0.30578 0.46609 0.0
O85 O 0.895 0.33192 0.51487 0.0
O86 O 0.94696 0.3486 0.51508 0.0
Mg87 Mg 0.96859 0.3393 0.46438 0.0
C88 C 0.91921 0.34543 0.52903 0.0
C89 C 0.81303 0.27842 0.47088 0.0
O90 O 0.82101 0.26661 0.44208 0.0
O91 O 0.8769 0.35672 0.44164 0.0
O92 O 0.92932 0.37261 0.44365 0.0
O93 O 0.91076 0.26048 0.48523 0.0
O94 O 0.93518 0.29877 0.4566 0.0
C95 C 0.89942 0.37793 0.43639 0.0
C96 C 0.93739 0.27212 0.47284 0.0
O97 O 0.83245 0.29833 0.48477 0.0
Mg98 Mg 0.71411 0.89193 0.46765 0.0
O99 O 0.67687 0.89872 0.50959 0.0
O100 O 0.65607 0.94896 0.5046 0.0
Mg101 Mg 0.68018 0.97554 0.46162 0.0
C102 C 0.65736 0.92124 0.51893 0.0
C103 C 0.72862 0.83336 0.51224 0.0
O104 O 0.72661 0.85856 0.53206 0.0
O105 O 0.67014 0.88549 0.43106 0.0
O106 O 0.65649 0.93857 0.42834 0.0
O107 O 0.75399 0.9168 0.49749 0.0
O108 O 0.72159 0.94243 0.46318 0.0
C109 C 0.65317 0.90907 0.41886 0.0
C110 C 0.74469 0.9439 0.48418 0.0
O111 O 0.72138 0.83764 0.48219 0.0
Mg112 Mg 0.54157 0.11825 0.30201 0.0
O113 O 0.49696 0.11884 0.33607 0.0
O114 O 0.49651 0.07124 0.36266 0.0
Mg115 Mg 0.53659 0.03771 0.34179 0.0
C116 C 0.48492 0.09979 0.35749 0.0
C117 C 0.54429 0.18786 0.26953 0.0
O118 O 0.56916 0.17414 0.25445 0.0
O119 O 0.5771 0.12356 0.34709 0.0
O120 O 0.57409 0.07142 0.36387 0.0
O121 O 0.51153 0.09369 0.26204 0.0
O122 O 0.54172 0.06729 0.29786 0.0
C123 C 0.58665 0.09987 0.36551 0.0
C124 C 0.52225 0.06622 0.27345 0.0
O125 O 0.53093 0.17269 0.29314 0.0
Mg126 Mg 0.88073 0.54193 0.29742 0.0
O127 O 0.88461 0.5014 0.33643 0.0
O128 O 0.93217 0.50883 0.36221 0.0
Mg129 Mg 0.96011 0.55158 0.33938 0.0
C130 C 0.90519 0.49355 0.35853 0.0
C131 C 0.82359 0.49645 0.27931 0.0
O132 O 0.84843 0.47648 0.28366 0.0
O133 O 0.8688 0.57971 0.33878 0.0
O134 O 0.92006 0.58477 0.35786 0.0
O135 O 0.91019 0.51119 0.26157 0.0
O136 O 0.93161 0.54738 0.29495 0.0
C137 C 0.89003 0.59324 0.35757 0.0
C138 C 0.93589 0.52554 0.27302 0.0
O139 O 0.82753 0.52665 0.28593 0.0
Mg140 Mg 0.46688 0.88677 0.31116 0.0
O141 O 0.51741 0.89275 0.3352 0.0
O142 O 0.52315 0.94484 0.3503 0.0
Mg143 Mg 0.4742 0.97098 0.34241 0.0
C144 C 0.53434 0.91583 0.34736 0.0
C145 C 0.46747 0.81675 0.28088 0.0
O146 O 0.44118 0.82902 0.26701 0.0
O147 O 0.44326 0.88246 0.36306 0.0
O148 O 0.45035 0.93497 0.37695 0.0
O149 O 0.48617 0.91007 0.26456 0.0
O150 O 0.46098 0.93726 0.30353 0.0
C151 C 0.44037 0.90619 0.38349 0.0
C152 C 0.47577 0.93765 0.27602 0.0
O153 O 0.4811 0.83285 0.30375 0.0
Mg154 Mg 0.12442 0.46872 0.2996 0.0
O155 O 0.12362 0.51285 0.33458 0.0
O156 O 0.07748 0.50983 0.36365 0.0
Mg157 Mg 0.04659 0.46682 0.34554 0.0
C158 C 0.10471 0.5235 0.35696 0.0
C159 C 0.182 0.51091 0.27641 0.0
O160 O 0.15741 0.53143 0.2794 0.0
O161 O 0.13612 0.43394 0.34376 0.0
O162 O 0.08556 0.43312 0.36537 0.0
O163 O 0.0946 0.4968 0.26191 0.0
O164 O 0.07333 0.46506 0.29964 0.0
C165 C 0.11514 0.42322 0.36457 0.0
C166 C 0.06893 0.48444 0.27554 0.0
O167 O 0.17776 0.48131 0.28521 0.0
Mg168 Mg 0.54751 0.89087 0.70479 0.0
O169 O 0.49778 0.89758 0.67967 0.0
O170 O 0.49218 0.95012 0.66598 0.0
Mg171 Mg 0.54093 0.9758 0.67548 0.0
C172 C 0.48101 0.92107 0.66794 0.0
C173 C 0.54661 0.81922 0.73185 0.0
O174 O 0.57267 0.83044 0.74689 0.0
O175 O 0.57266 0.88781 0.65347 0.0
O176 O 0.56574 0.94055 0.6405 0.0
O177 O 0.52581 0.91255 0.75106 0.0
O178 O 0.55239 0.94125 0.71423 0.0
C179 C 0.57599 0.91189 0.63357 0.0
C180 C 0.53583 0.94065 0.74075 0.0
O181 O 0.53341 0.83671 0.70974 0.0
Mg182 Mg 0.11866 0.54393 0.70513 0.0
O183 O 0.10632 0.49737 0.67583 0.0
O184 O 0.05332 0.49909 0.66294 0.0
Mg185 Mg 0.0321 0.54805 0.67976 0.0
C186 C 0.08112 0.48474 0.66252 0.0
C187 C 0.19153 0.53861 0.72756 0.0
O188 O 0.18336 0.56674 0.74079 0.0
O189 O 0.12188 0.57246 0.65562 0.0
O190 O 0.06803 0.57173 0.64532 0.0
O191 O 0.09717 0.52089 0.75067 0.0
O192 O 0.06944 0.55254 0.71718 0.0
C193 C 0.09716 0.57953 0.63748 0.0
C194 C 0.06962 0.53406 0.74238 0.0
O195 O 0.17174 0.52533 0.70756 0.0
Mg196 Mg 0.47023 0.11997 0.71208 0.0
O197 O 0.51342 0.10964 0.67759 0.0
O198 O 0.50849 0.05856 0.65901 0.0
Mg199 Mg 0.46193 0.03598 0.68017 0.0
C200 C 0.52341 0.08596 0.65991 0.0
C201 C 0.47549 0.19396 0.73446 0.0
O202 O 0.44646 0.18756 0.74663 0.0
O203 O 0.43769 0.12757 0.66558 0.0
O204 O 0.43588 0.07482 0.65076 0.0
O205 O 0.49759 0.09507 0.75335 0.0
O206 O 0.46289 0.06985 0.72101 0.0
C207 C 0.42832 0.10472 0.64618 0.0
C208 C 0.48393 0.06814 0.74414 0.0
O209 O 0.48917 0.17273 0.71624 0.0
Mg210 Mg 0.89288 0.46686 0.70838 0.0
O211 O 0.89925 0.51008 0.67289 0.0
O212 O 0.95035 0.5074 0.65388 0.0
Mg213 Mg 0.97796 0.46528 0.67864 0.0
C214 C 0.922 0.52061 0.65439 0.0
C215 C 0.82106 0.46717 0.73391 0.0
O216 O 0.83264 0.44122 0.74893 0.0
O217 O 0.89018 0.43101 0.6635 0.0
O218 O 0.94387 0.43093 0.65235 0.0
O219 O 0.9144 0.49698 0.74985 0.0
O220 O 0.94295 0.46392 0.71846 0.0
C221 C 0.91502 0.42022 0.64739 0.0
C222 C 0.94242 0.48463 0.74185 0.0
O223 O 0.83844 0.4805 0.71183 0.0
Mg224 Mg 0.30761 0.54252 0.11429 0.0
O225 O 0.33235 0.49183 0.11137 0.0
O226 O 0.34958 0.48502 0.05996 0.0
Mg227 Mg 0.34208 0.53259 0.03164 0.0
C228 C 0.34566 0.47454 0.08908 0.0
C229 C 0.27812 0.55238 0.18286 0.0
O230 O 0.26981 0.57933 0.16744 0.0
O231 O 0.35898 0.56677 0.11967 0.0
O232 O 0.37508 0.55829 0.06799 0.0
O233 O 0.26184 0.52204 0.09041 0.0
O234 O 0.3017 0.54592 0.06344 0.0
C235 C 0.3803 0.56927 0.09672 0.0
C236 C 0.2742 0.53115 0.0628 0.0
O237 O 0.29775 0.53274 0.16877 0.0
Mg238 Mg 0.30247 0.46385 0.88387 0.0
O239 O 0.3368 0.50802 0.88797 0.0
O240 O 0.35912 0.50621 0.93773 0.0
Mg241 Mg 0.33678 0.46413 0.96723 0.0
C242 C 0.35639 0.51915 0.90945 0.0
C243 C 0.27386 0.46387 0.81265 0.0
O244 O 0.25864 0.43829 0.82465 0.0
O245 O 0.34807 0.42874 0.87936 0.0
O246 O 0.36167 0.42929 0.9325 0.0
O247 O 0.26153 0.49351 0.90731 0.0
O248 O 0.29504 0.46143 0.9345 0.0
C249 C 0.36535 0.41832 0.90355 0.0
C250 C 0.27126 0.48175 0.93499 0.0
O251 O 0.29651 0.47695 0.82949 0.0
Mg252 Mg 0.55036 0.307 0.88574 0.0
O253 O 0.50058 0.33286 0.89106 0.0
O254 O 0.49331 0.34519 0.9437 0.0
Mg255 Mg 0.5406 0.33333 0.97139 0.0
C256 C 0.48317 0.34438 0.91419 0.0
C257 C 0.5509 0.27944 0.8153 0.0
O258 O 0.57559 0.26361 0.82851 0.0
O259 O 0.57664 0.35785 0.88562 0.0
O260 O 0.56821 0.36827 0.93869 0.0
O261 O 0.52771 0.26022 0.90518 0.0
O262 O 0.55347 0.29604 0.9358 0.0
C263 C 0.5799 0.37626 0.91091 0.0
C264 C 0.53721 0.26949 0.93383 0.0
O265 O 0.53831 0.30316 0.83107 0.0
Mg266 Mg 0.71308 0.54511 0.89042 0.0
O267 O 0.68031 0.50051 0.90027 0.0
O268 O 0.66327 0.50332 0.95205 0.0
Mg269 Mg 0.68342 0.54985 0.97554 0.0
C270 C 0.66375 0.48925 0.92415 0.0
C271 C 0.73677 0.54131 0.81748 0.0
O272 O 0.7498 0.56939 0.82594 0.0
O273 O 0.6652 0.57631 0.88503 0.0
O274 O 0.65223 0.5758 0.93828 0.0
O275 O 0.75596 0.51862 0.91367 0.0
O276 O 0.72303 0.55174 0.94037 0.0
C277 C 0.64625 0.58417 0.90886 0.0
C278 C 0.74696 0.53155 0.94108 0.0
O279 O 0.71693 0.52761 0.83713 0.0
Mg280 Mg 0.46817 0.70486 0.88468 0.0
O281 O 0.51521 0.67522 0.89352 0.0
O282 O 0.51252 0.65484 0.94409 0.0
Mg283 Mg 0.46473 0.67093 0.96824 0.0
C284 C 0.5271 0.65805 0.91666 0.0
C285 C 0.47247 0.73272 0.8131 0.0
O286 O 0.44423 0.74535 0.82194 0.0
O287 O 0.44016 0.65538 0.87702 0.0
O288 O 0.44061 0.63992 0.92963 0.0
O289 O 0.49099 0.74838 0.91027 0.0
O290 O 0.46019 0.71195 0.93492 0.0
C291 C 0.433 0.63498 0.89982 0.0
C292 C 0.47828 0.73733 0.93699 0.0
O293 O 0.4861 0.71193 0.83184 0.0
Mg294 Mg 0.70271 0.46462 0.11555 0.0
O295 O 0.67831 0.51546 0.11474 0.0
O296 O 0.66342 0.5257 0.0632 0.0
Mg297 Mg 0.67249 0.48001 0.03216 0.0
C298 C 0.66608 0.53426 0.09309 0.0
C299 C 0.73021 0.45233 0.18453 0.0
O300 O 0.74074 0.42682 0.16803 0.0
O301 O 0.65119 0.43997 0.11654 0.0
O302 O 0.63787 0.45129 0.06464 0.0
O303 O 0.74972 0.4864 0.09552 0.0
O304 O 0.71129 0.46446 0.065 0.0
C305 C 0.63125 0.4384 0.09227 0.0
C306 C 0.73886 0.47902 0.06679 0.0
O307 O 0.70968 0.47133 0.17087 0.0
Mg308 Mg 0.54211 0.71033 0.11949 0.0
O309 O 0.50141 0.67241 0.11223 0.0
O310 O 0.50828 0.65106 0.06246 0.0
Mg311 Mg 0.55104 0.67626 0.03648 0.0
C312 C 0.49324 0.65236 0.08982 0.0
C313 C 0.53958 0.73492 0.19272 0.0
O314 O 0.56792 0.7474 0.18427 0.0
O315 O 0.57982 0.66757 0.12707 0.0
O316 O 0.58443 0.65365 0.0742 0.0
O317 O 0.51078 0.74857 0.09401 0.0
O318 O 0.54728 0.71797 0.069 0.0
C319 C 0.59316 0.65084 0.10399 0.0
C320 C 0.52484 0.73972 0.06711 0.0
O321 O 0.5253 0.7156 0.17296 0.0
Mg322 Mg 0.4688 0.29719 0.1121 0.0
O323 O 0.51008 0.33438 0.10395 0.0
O324 O 0.50365 0.3548 0.05379 0.0
Mg325 Mg 0.46022 0.32985 0.02858 0.0
C326 C 0.51868 0.3538 0.08116 0.0
C327 C 0.47208 0.27315 0.1851 0.0
O328 O 0.44361 0.26076 0.17694 0.0
O329 O 0.43185 0.34059 0.11917 0.0
O330 O 0.42729 0.35365 0.0661 0.0
O331 O 0.49914 0.25775 0.08745 0.0
O332 O 0.46332 0.28859 0.0618 0.0
C333 C 0.41866 0.35711 0.09587 0.0
C334 C 0.48527 0.26628 0.06036 0.0
O335 O 0.48608 0.29262 0.16534 0.0
C336 C 0.1034 0.3694 0.38785 0.0
C337 C 0.12292 0.39763 0.38863 0.0
H338 H 0.07975 0.33187 0.41566 0.0
C339 C 0.13904 0.40586 0.41782 0.0
H340 H 0.09012 0.36298 0.36583 0.0
C341 C 0.13323 0.38776 0.44644 0.0
C342 C 0.11076 0.36179 0.44615 0.0
H343 H 0.15334 0.42806 0.41932 0.0
H344 H 0.14397 0.39583 0.46926 0.0
C345 C 0.09704 0.3519 0.41641 0.0
C346 C 0.65274 0.07306 0.42275 0.0
C347 C 0.65164 0.09724 0.44694 0.0
H348 H 0.63416 0.05615 0.37714 0.0
C349 C 0.6334 0.12597 0.44105 0.0
H350 H 0.66696 0.05095 0.42634 0.0
C351 C 0.61407 0.12889 0.41268 0.0
C352 C 0.61323 0.10326 0.38986 0.0
H353 H 0.63223 0.14504 0.45938 0.0
H354 H 0.59804 0.14983 0.40991 0.0
C355 C 0.63406 0.07619 0.39447 0.0
C356 C 0.86763 0.62864 0.43834 0.0
C357 C 0.8912 0.65358 0.43991 0.0
H358 H 0.84776 0.5895 0.4094 0.0
C359 C 0.90703 0.66344 0.41126 0.0
H360 H 0.85525 0.62062 0.46033 0.0
C361 C 0.90186 0.64656 0.38211 0.0
C362 C 0.8815 0.61891 0.38132 0.0
H363 H 0.92518 0.68269 0.41193 0.0
H364 H 0.91675 0.65276 0.36109 0.0
C365 C 0.86296 0.61115 0.40914 0.0
C366 C 0.37345 0.88876 0.44513 0.0
C367 C 0.38101 0.91225 0.4692 0.0
H368 H 0.38675 0.86786 0.39859 0.0
C369 C 0.41084 0.92893 0.46714 0.0
H370 H 0.35073 0.87525 0.44633 0.0
C371 C 0.43159 0.92406 0.4406 0.0
C372 C 0.42291 0.90278 0.41503 0.0
H373 H 0.41783 0.9465 0.48567 0.0
H374 H 0.45372 0.93852 0.43919 0.0
C375 C 0.39421 0.88418 0.41804 0.0
C376 C 0.12066 0.62408 0.60169 0.0
C377 C 0.10036 0.59675 0.60589 0.0
H378 H 0.13242 0.66542 0.57138 0.0
C379 C 0.07803 0.58868 0.58105 0.0
H380 H 0.13783 0.63101 0.62061 0.0
C381 C 0.07437 0.60844 0.55368 0.0
C382 C 0.09321 0.63679 0.55002 0.0
H383 H 0.06224 0.56756 0.58342 0.0
H384 H 0.05633 0.60159 0.53553 0.0
C385 C 0.11719 0.64394 0.57379 0.0
C386 C 0.3615 0.12361 0.5849 0.0
C387 C 0.37307 0.1053 0.55806 0.0
H388 H 0.37036 0.13825 0.63485 0.0
C389 C 0.40484 0.09241 0.55912 0.0
H390 H 0.33715 0.1341 0.58447 0.0
C391 C 0.42387 0.09568 0.58707 0.0
C392 C 0.41153 0.11146 0.61498 0.0
H393 H 0.41475 0.07896 0.53854 0.0
H394 H 0.4477 0.08397 0.58759 0.0
C395 C 0.38058 0.1264 0.61347 0.0
C396 C 0.88428 0.39312 0.60089 0.0
C397 C 0.91212 0.39564 0.62087 0.0
H398 H 0.86458 0.37472 0.55568 0.0
C399 C 0.94029 0.37755 0.61244 0.0
H400 H 0.8623 0.40678 0.60668 0.0
C401 C 0.94183 0.36001 0.58336 0.0
C402 C 0.91502 0.35941 0.56212 0.0
H403 H 0.96205 0.37837 0.62755 0.0
H404 H 0.96453 0.34786 0.57691 0.0
C405 C 0.88568 0.37491 0.5717 0.0
C406 C 0.62049 0.88759 0.59785 0.0
C407 C 0.59364 0.90874 0.60202 0.0
H408 H 0.66213 0.875 0.56813 0.0
C409 C 0.58645 0.93142 0.57717 0.0
H410 H 0.62677 0.87003 0.61665 0.0
C411 C 0.60675 0.93471 0.55008 0.0
C412 C 0.63476 0.91514 0.54669 0.0
H413 H 0.5657 0.94783 0.57933 0.0
H414 H 0.60078 0.95321 0.53208 0.0
C415 C 0.64087 0.8907 0.57026 0.0
C416 C 0.40211 0.13292 0.38405 0.0
C417 C 0.40198 0.12372 0.41714 0.0
H418 H 0.42913 0.13267 0.33882 0.0
C419 C 0.43087 0.11124 0.43106 0.0
H420 H 0.37993 0.1418 0.37257 0.0
C421 C 0.45819 0.10478 0.41173 0.0
C422 C 0.45759 0.1114 0.37815 0.0
H423 H 0.43126 0.10359 0.45644 0.0
H424 H 0.47934 0.09322 0.42281 0.0
C425 C 0.43002 0.12715 0.3647 0.0
C426 C 0.91095 0.43682 0.43089 0.0
C427 C 0.89275 0.40966 0.42047 0.0
H428 H 0.92916 0.4843 0.41955 0.0
C429 C 0.87478 0.4119 0.39128 0.0
H430 H 0.92493 0.43583 0.4534 0.0
C431 C 0.87729 0.44 0.37159 0.0
C432 C 0.89801 0.46591 0.38083 0.0
H433 H 0.86089 0.39116 0.38251 0.0
H434 H 0.86467 0.44057 0.34832 0.0
C435 C 0.91367 0.46449 0.41131 0.0
C436 C 0.57422 0.88149 0.37952 0.0
C437 C 0.56761 0.90896 0.35976 0.0
H438 H 0.60735 0.85951 0.41422 0.0
C439 C 0.59223 0.93212 0.35486 0.0
H440 H 0.55549 0.86326 0.38361 0.0
C441 C 0.62188 0.92946 0.3714 0.0
C442 C 0.62737 0.90403 0.39397 0.0
H443 H 0.58795 0.95322 0.33941 0.0
H444 H 0.63962 0.94888 0.36847 0.0
C445 C 0.60393 0.87915 0.39679 0.0
C446 C 0.11136 0.58185 0.42763 0.0
C447 C 0.12152 0.61073 0.41216 0.0
H448 H 0.09768 0.53175 0.42202 0.0
C449 C 0.13101 0.60955 0.37919 0.0
H450 H 0.10346 0.58229 0.45293 0.0
C451 C 0.12788 0.5803 0.36139 0.0
C452 C 0.11445 0.55237 0.3763 0.0
H453 H 0.1381 0.63169 0.36656 0.0
H454 H 0.13345 0.58026 0.3355 0.0
C455 C 0.10757 0.55307 0.40985 0.0
C456 C 0.39394 0.9357 0.64258 0.0
C457 C 0.38804 0.90926 0.62136 0.0
H458 H 0.42814 0.96026 0.67349 0.0
C459 C 0.41106 0.88377 0.61976 0.0
H460 H 0.37647 0.95559 0.64457 0.0
C461 C 0.4408 0.88636 0.63688 0.0
C462 C 0.44783 0.91464 0.65525 0.0
H463 H 0.40729 0.86332 0.60339 0.0
H464 H 0.45917 0.86748 0.6338 0.0
C465 C 0.4236 0.93856 0.65899 0.0
C466 C 0.11506 0.44068 0.63485 0.0
C467 C 0.08429 0.45369 0.64384 0.0
H468 H 0.14108 0.40436 0.60665 0.0
C469 C 0.05598 0.43797 0.63274 0.0
H470 H 0.13739 0.4522 0.64304 0.0
C471 C 0.05809 0.41105 0.61209 0.0
C472 C 0.08864 0.39877 0.6017 0.0
H473 H 0.03187 0.44688 0.6394 0.0
H474 H 0.03545 0.40012 0.60389 0.0
C475 C 0.1172 0.41335 0.61398 0.0
C476 C 0.55567 0.06996 0.61086 0.0
C477 C 0.55156 0.09102 0.63759 0.0
H478 H 0.58447 0.05643 0.56975 0.0
C479 C 0.57383 0.11698 0.64177 0.0
H480 H 0.53862 0.05025 0.60629 0.0
C481 C 0.60069 0.12057 0.62053 0.0
C482 C 0.60537 0.0984 0.5947 0.0
H483 H 0.57104 0.13391 0.66195 0.0
H484 H 0.61839 0.13966 0.62516 0.0
C485 C 0.58195 0.07374 0.58967 0.0
C486 C 0.93348 0.54992 0.60241 0.0
C487 C 0.91508 0.54769 0.63122 0.0
H488 H 0.94425 0.57688 0.55934 0.0
C489 C 0.89061 0.57133 0.63717 0.0
H490 H 0.95191 0.53174 0.59658 0.0
C491 C 0.88628 0.59788 0.61563 0.0
C492 C 0.90608 0.60083 0.58767 0.0
H493 H 0.87577 0.57001 0.65906 0.0
H494 H 0.86865 0.61675 0.62166 0.0
C495 C 0.92885 0.57583 0.58087 0.0
C496 C 0.35228 0.41613 0.07473 0.0
C497 C 0.3581 0.44155 0.09685 0.0
H498 H 0.36586 0.36847 0.05854 0.0
C499 C 0.37937 0.43611 0.12341 0.0
H500 H 0.33576 0.41962 0.05429 0.0
C501 C 0.39719 0.40669 0.12568 0.0
C502 C 0.39345 0.38248 0.10161 0.0
H503 H 0.38425 0.45552 0.14074 0.0
H504 H 0.41576 0.40414 0.14441 0.0
C505 C 0.36944 0.38682 0.07732 0.0
C506 C 0.42855 0.57604 0.91071 0.0
C507 C 0.41682 0.60338 0.89345 0.0
H508 H 0.41846 0.52849 0.92961 0.0
C509 C 0.38638 0.60133 0.87765 0.0
H510 H 0.45199 0.57693 0.92308 0.0
C511 C 0.36704 0.57312 0.88128 0.0
C512 C 0.37778 0.54711 0.90122 0.0
H513 H 0.37658 0.62223 0.86464 0.0
H514 H 0.34294 0.57252 0.87029 0.0
C515 C 0.4092 0.54843 0.9148 0.0
C516 C 0.4445 0.37696 0.87865 0.0
C517 C 0.45042 0.35807 0.90689 0.0
H518 H 0.41215 0.41131 0.85494 0.0
C519 C 0.42544 0.35464 0.93002 0.0
H520 H 0.46344 0.37987 0.86038 0.0
C521 C 0.39615 0.37168 0.92644 0.0
C522 C 0.39127 0.39321 0.90003 0.0
H523 H 0.42908 0.33981 0.95168 0.0
H524 H 0.37809 0.36979 0.94575 0.0
C525 C 0.41509 0.39469 0.87533 0.0
C526 C 0.64552 0.43959 0.89181 0.0
C527 C 0.64188 0.46082 0.91878 0.0
H528 H 0.62859 0.39589 0.86771 0.0
C529 C 0.61592 0.45555 0.94051 0.0
H530 H 0.6651 0.44328 0.87437 0.0
C531 C 0.59484 0.4293 0.93624 0.0
C532 C 0.59924 0.40696 0.9104 0.0
H533 H 0.61175 0.47176 0.96106 0.0
H534 H 0.57547 0.42604 0.95401 0.0
C535 C 0.62443 0.41271 0.88774 0.0
C536 C 0.58803 0.58939 0.92292 0.0
C537 C 0.61442 0.6006 0.904 0.0
H538 H 0.54048 0.59891 0.94204 0.0
C539 C 0.61098 0.62994 0.88648 0.0
H540 H 0.58987 0.56668 0.93647 0.0
C541 C 0.58212 0.64861 0.8896 0.0
C542 C 0.55687 0.63829 0.91069 0.0
H543 H 0.63109 0.63926 0.87202 0.0
H544 H 0.58016 0.6717 0.8768 0.0
C545 C 0.55984 0.60804 0.92644 0.0
C546 C 0.66068 0.59366 0.08263 0.0
C547 C 0.65357 0.56681 0.10255 0.0
H548 H 0.64813 0.64248 0.06923 0.0
C549 C 0.63123 0.57066 0.12849 0.0
H550 H 0.67804 0.59139 0.06272 0.0
C551 C 0.61359 0.60005 0.13205 0.0
C552 C 0.61863 0.62584 0.10997 0.0
H553 H 0.62537 0.55015 0.14414 0.0
H554 H 0.59408 0.60142 0.14992 0.0
C555 C 0.64372 0.62296 0.08658 0.0
C556 C 0.43767 0.57955 0.08018 0.0
C557 C 0.41144 0.58722 0.10112 0.0
H558 H 0.48352 0.59407 0.06007 0.0
C559 C 0.41384 0.61497 0.12123 0.0
H560 H 0.43683 0.55811 0.06464 0.0
C561 C 0.44106 0.6358 0.11862 0.0
C562 C 0.46599 0.62923 0.09567 0.0
H563 H 0.39393 0.62161 0.13741 0.0
H564 H 0.44181 0.65778 0.13336 0.0
C565 C 0.46441 0.60033 0.07734 0.0
C566 C 0.59599 0.39321 0.11569 0.0
C567 C 0.60041 0.4193 0.0938 0.0
H568 H 0.56666 0.35166 0.12884 0.0
C569 C 0.57648 0.42479 0.06962 0.0
H570 H 0.61403 0.38821 0.13446 0.0
C571 C 0.55 0.40378 0.06602 0.0
C572 C 0.54626 0.37674 0.08672 0.0
H573 H 0.57874 0.44487 0.05252 0.0
H574 H 0.53265 0.40858 0.04656 0.0
C575 C 0.56904 0.37213 0.11225 0.0
C576 C 0.00806 0.25045 0.52736 0.0
C577 C 0.0346 0.25877 0.50717 0.0
H578 H 0.95589 0.24704 0.53187 0.0
C579 C 0.02904 0.26498 0.47397 0.0
H580 H 0.01182 0.24634 0.55325 0.0
C581 C 0.99702 0.26612 0.46192 0.0
C582 C 0.97021 0.26068 0.48282 0.0
H583 H 0.04902 0.27234 0.45821 0.0
H584 H 0.9931 0.27384 0.43689 0.0
C585 C 0.97607 0.25095 0.51516 0.0
C586 C 0.75562 0.03499 0.48631 0.0
C587 C 0.75567 0.04067 0.52007 0.0
H588 H 0.75199 0.99906 0.44841 0.0
C589 C 0.75883 0.01402 0.54158 0.0
H590 H 0.75245 0.05506 0.46932 0.0
C591 C 0.75898 0.98196 0.52967 0.0
C592 C 0.75511 0.97624 0.49613 0.0
H593 H 0.75834 0.01792 0.56779 0.0
H594 H 0.75881 0.96183 0.54687 0.0
C595 C 0.75501 1.00294 0.47444 0.0
C596 C 0.97368 0.74301 0.47712 0.0
C597 C 0.96736 0.74883 0.51027 0.0
H598 H 0.01037 0.73559 0.44046 0.0
C599 C 0.99339 0.75703 0.53112 0.0
H600 H 0.95408 0.73572 0.46084 0.0
C601 C 0.0256 0.75727 0.51949 0.0
C602 C 0.03223 0.74831 0.48704 0.0
H603 H 0.98906 0.76078 0.55699 0.0
H604 H 0.04539 0.76151 0.53658 0.0
C605 C 0.00591 0.74258 0.46562 0.0
C606 C 0.25512 0.03509 0.52589 0.0
C607 C 0.26215 0.04148 0.49299 0.0
H608 H 0.25245 0.99855 0.56332 0.0
C609 C 0.26564 0.01516 0.4711 0.0
H610 H 0.25271 0.05494 0.54327 0.0
C611 C 0.26463 0.98291 0.48238 0.0
C612 C 0.2609 0.97668 0.51583 0.0
H613 H 0.27121 0.01958 0.44559 0.0
H614 H 0.26983 0.96314 0.46552 0.0
C615 C 0.25498 1.00289 0.53731 0.0
C616 C 0.46463 0.99589 0.26332 0.0
C617 C 0.48675 0.96946 0.26344 0.0
H618 H 0.45869 0.04804 0.26521 0.0
C619 C 0.52027 0.97561 0.26018 0.0
H620 H 0.43866 0.99162 0.26637 0.0
C621 C 0.53169 0.00779 0.26039 0.0
C622 C 0.50972 0.0342 0.263 0.0
H623 H 0.53779 0.9557 0.26099 0.0
H624 H 0.55785 0.012 0.26096 0.0
C625 C 0.47602 0.02812 0.26266 0.0
C626 C 0.9947 0.53769 0.26361 0.0
C627 C 0.96942 0.5145 0.26581 0.0
H628 H 0.04654 0.54617 0.26379 0.0
C629 C 0.97733 0.48119 0.26659 0.0
H630 H 0.98906 0.56358 0.26325 0.0
C631 C 0.01011 0.47138 0.26782 0.0
C632 C 0.03538 0.49466 0.26728 0.0
H633 H 0.95829 0.46295 0.26878 0.0
H634 H 0.01573 0.44564 0.27068 0.0
C635 C 0.02749 0.52781 0.26382 0.0
C636 C 0.5433 0.99888 0.75589 0.0
C637 C 0.52243 0.97177 0.75296 0.0
H638 H 0.54724 0.05115 0.75661 0.0
C639 C 0.4885 0.97672 0.7533 0.0
H640 H 0.5696 0.99559 0.75508 0.0
C641 C 0.47575 0.0085 0.75327 0.0
C642 C 0.49673 0.03572 0.75364 0.0
H643 H 0.47197 0.95627 0.75027 0.0
H644 H 0.44958 0.01183 0.75067 0.0
C645 C 0.53053 0.03064 0.75673 0.0
C646 C 0.97902 0.53143 0.75496 0.0
C647 C 0.97379 0.49764 0.75373 0.0
H648 H 0.01461 0.56972 0.7526 0.0
C649 C 1.00067 0.47629 0.75662 0.0
H650 H 0.95873 0.54832 0.75238 0.0
C651 C 0.03257 0.48847 0.75743 0.0
C652 C 0.03794 0.52215 0.75459 0.0
H653 H 0.99713 0.45007 0.75557 0.0
H654 H 0.05289 0.47143 0.75664 0.0
C655 C 0.01097 0.54361 0.75505 0.0
C656 C 0.26122 0.52889 0.9722 0.0
C657 C 0.26086 0.49509 0.96677 0.0
H658 H 0.26575 0.56698 0.00791 0.0
C659 C 0.25793 0.47381 0.99362 0.0
H660 H 0.26406 0.5457 0.95194 0.0
C661 C 0.25808 0.48598 0.02558 0.0
C662 C 0.262 0.51953 0.03104 0.0
H663 H 0.25799 0.44758 0.98994 0.0
H664 H 0.25853 0.46894 0.04586 0.0
C665 C 0.26225 0.541 1.00418 0.0
C666 C 0.54436 0.25246 0.99141 0.0
C667 C 0.52358 0.25621 0.96426 0.0
H668 H 0.5483 0.25172 0.04369 0.0
C669 C 0.48966 0.2567 0.96905 0.0
H670 H 0.57068 0.25261 0.98821 0.0
C671 C 0.47693 0.25708 1.00078 0.0
C672 C 0.49792 0.25636 0.02806 0.0
H673 H 0.47324 0.26036 0.94857 0.0
H674 H 0.45082 0.26038 1.004 0.0
C675 C 0.53159 0.25209 0.02313 0.0
C676 C 0.7573 0.53884 1.00051 0.0
C677 C 0.75692 0.51814 0.97301 0.0
H678 H 0.75304 0.54228 0.0527 0.0
C679 C 0.75809 0.48422 0.97764 0.0
H680 H 0.75606 0.56512 0.99747 0.0
C681 C 0.75571 0.47125 0.00918 0.0
C682 C 0.75308 0.49199 0.03647 0.0
H683 H 0.75727 0.46778 0.95689 0.0
H684 H 0.75323 0.44504 0.01205 0.0
C685 C 0.75572 0.52583 0.0321 0.0
C686 C 0.52275 0.75178 0.976 0.0
C687 C 0.48931 0.74783 0.96964 0.0
H688 H 0.56028 0.75212 0.0126 0.0
C689 C 0.46718 0.7471 0.99598 0.0
H690 H 0.54031 0.75187 0.95616 0.0
C691 C 0.4785 0.74798 0.02826 0.0
C692 C 0.51218 0.74869 0.03457 0.0
H693 H 0.44127 0.74374 0.99159 0.0
H694 H 0.46116 0.74515 0.04808 0.0
C695 C 0.53413 0.75176 0.00826 0.0
C696 C 0.22736 0.23571 0.57255 0.0
C697 C 0.21253 0.25718 0.55023 0.0
H698 H 0.26093 0.1963 0.57986 0.0
C699 C 0.2244 0.25801 0.51788 0.0
H700 H 0.21912 0.23466 0.5977 0.0
C701 C 0.24843 0.23568 0.50747 0.0
C702 C 0.26109 0.21226 0.52926 0.0
H703 H 0.21353 0.27429 0.50003 0.0
H704 H 0.25542 0.23536 0.48193 0.0
C705 C 0.25138 0.21364 0.56225 0.0
C706 C 0.74283 0.22213 0.49242 0.0
C707 C 0.74617 0.21982 0.52659 0.0
H708 H 0.76147 0.24256 0.44791 0.0
C709 C 0.76796 0.24109 0.54247 0.0
H710 H 0.72634 0.20607 0.47937 0.0
C711 C 0.78774 0.26241 0.52444 0.0
C712 C 0.78664 0.26244 0.49005 0.0
H713 H 0.77102 0.24 0.56876 0.0
H714 H 0.80556 0.27707 0.53739 0.0
C715 C 0.76308 0.24298 0.47434 0.0
C716 C 0.78015 0.75584 0.51279 0.0
C717 C 0.79027 0.75491 0.54571 0.0
H718 H 0.75245 0.78141 0.47612 0.0
C719 C 0.7755 0.77647 0.568 0.0
H720 H 0.79107 0.73957 0.49494 0.0
C721 C 0.75332 0.80021 0.55728 0.0
C722 C 0.7455 0.80325 0.52391 0.0
H723 H 0.78246 0.77622 0.59356 0.0
H724 H 0.74382 0.81746 0.57502 0.0
C725 C 0.75802 0.77987 0.50196 0.0
C726 C 0.21637 0.75375 0.52785 0.0
C727 C 0.2185 0.75292 0.49352 0.0
H728 H 0.2323 0.7767 0.57217 0.0
C729 C 0.24293 0.7715 0.4781 0.0
H730 H 0.19789 0.73973 0.54058 0.0
C731 C 0.26307 0.79232 0.49634 0.0
C732 C 0.25878 0.79545 0.53034 0.0
H733 H 0.24536 0.77126 0.45173 0.0
H734 H 0.28031 0.8077 0.48345 0.0
C735 C 0.23608 0.77501 0.54601 0.0
C736 C 0.4929 0.21928 0.25741 0.0
C737 C 0.52695 0.21562 0.2537 0.0
H738 H 0.44873 0.24042 0.23846 0.0
C739 C 0.54319 0.23537 0.23078 0.0
H740 H 0.47959 0.20441 0.27478 0.0
C741 C 0.52552 0.25651 0.21039 0.0
C742 C 0.49114 0.25779 0.21198 0.0
H743 H 0.56939 0.23321 0.22742 0.0
H744 H 0.53864 0.26994 0.19174 0.0
C745 C 0.47516 0.23987 0.23652 0.0
C746 C 0.77172 0.50658 0.24726 0.0
C747 C 0.7945 0.48466 0.26094 0.0
H748 H 0.73291 0.51347 0.21255 0.0
C749 C 0.79183 0.45125 0.25324 0.0
H750 H 0.77296 0.53244 0.25275 0.0
C751 C 0.76905 0.44043 0.2302 0.0
C752 C 0.74816 0.46267 0.21438 0.0
H753 H 0.80863 0.43356 0.26362 0.0
H754 H 0.76907 0.41482 0.22347 0.0
C755 C 0.74869 0.49566 0.22424 0.0
C756 C 0.48669 0.74917 0.22061 0.0
C757 C 0.52112 0.74955 0.22046 0.0
H758 H 0.44265 0.77019 0.23997 0.0
C759 C 0.5374 0.7682 0.2443 0.0
H760 H 0.47331 0.73511 0.20261 0.0
C761 C 0.51974 0.7879 0.26615 0.0
C762 C 0.48542 0.78986 0.26419 0.0
H763 H 0.56388 0.76892 0.24496 0.0
H764 H 0.53316 0.8034 0.28289 0.0
C765 C 0.46907 0.76935 0.24201 0.0
C766 C 0.23336 0.49881 0.2441 0.0
C767 C 0.21154 0.52151 0.25804 0.0
H768 H 0.27207 0.49076 0.20947 0.0
C769 C 0.21566 0.55486 0.25081 0.0
H770 H 0.23092 0.47295 0.2492 0.0
C771 C 0.23907 0.56502 0.22813 0.0
C772 C 0.25911 0.54215 0.21211 0.0
H773 H 0.19962 0.57312 0.26141 0.0
H774 H 0.24027 0.59073 0.22192 0.0
C775 C 0.25698 0.50905 0.22134 0.0
C776 C 0.47593 0.76882 0.76361 0.0
C777 C 0.49163 0.74875 0.78672 0.0
H778 H 0.48107 0.8062 0.72732 0.0
C779 C 0.52605 0.74826 0.7875 0.0
H780 H 0.44947 0.76966 0.76228 0.0
C781 C 0.54417 0.76964 0.76784 0.0
C782 C 0.52834 0.79147 0.74649 0.0
H783 H 0.53897 0.73314 0.80501 0.0
H784 H 0.57052 0.77028 0.77065 0.0
C785 C 0.4941 0.78971 0.74347 0.0
C786 C 0.26275 0.51605 0.78227 0.0
C787 C 0.25891 0.48198 0.78487 0.0
H788 H 0.24435 0.56078 0.76194 0.0
C789 C 0.23652 0.46638 0.76399 0.0
H790 H 0.27973 0.5289 0.79798 0.0
C791 C 0.21661 0.48466 0.74286 0.0
C792 C 0.21822 0.51901 0.74267 0.0
H793 H 0.23307 0.44017 0.76527 0.0
H794 H 0.19826 0.47199 0.72861 0.0
C795 C 0.24239 0.53438 0.76164 0.0
C796 C 0.47985 0.24622 0.76644 0.0
C797 C 0.49512 0.22114 0.74848 0.0
H798 H 0.48566 0.28517 0.80097 0.0
C799 C 0.52952 0.21954 0.7483 0.0
H800 H 0.45343 0.24826 0.76695 0.0
C801 C 0.54798 0.24039 0.7682 0.0
C802 C 0.53253 0.26373 0.7882 0.0
H803 H 0.54214 0.20059 0.73473 0.0
H804 H 0.57424 0.23695 0.76935 0.0
C805 C 0.49838 0.2675 0.78585 0.0
C806 C 0.77111 0.53785 0.76673 0.0
C807 C 0.75173 0.5222 0.79039 0.0
H808 H 0.80759 0.53265 0.72948 0.0
C809 C 0.75119 0.48781 0.791 0.0
H810 H 0.77195 0.56429 0.7655 0.0
C811 C 0.77204 0.46965 0.7707 0.0
C812 C 0.79339 0.48544 0.7489 0.0
H813 H 0.73656 0.47491 0.80888 0.0
H814 H 0.77278 0.44333 0.77343 0.0
C815 C 0.79148 0.51966 0.74598 0.0
loop_
_geom_bond_atom_site_label_1
_geom_bond_atom_site_label_2
_geom_bond_distance
_geom_bond_site_symmetry_2
_ccdc_geom_bond_type
Mg0 O1 2.028 . S
Mg0 O7 1.986 . S
Mg0 O9 2.114 . S
Mg0 O10 2.251 . S
Mg0 O13 2.010 . S
O1 Mg0 2.028 . S
O1 C4 1.250 . S
O2 Mg3 2.028 . S
O2 C4 1.248 . S
Mg3 O2 2.028 . S
Mg3 O8 2.032 . S
Mg3 O10 2.079 . S
C4 O1 1.250 . S
C4 O2 1.248 . S
C5 O6 1.264 . S
C5 O13 1.249 . S
O6 C5 1.264 . S
O7 Mg0 1.986 . S
O7 C11 1.246 . S
O8 Mg3 2.032 . S
O8 C11 1.259 . S
O9 Mg0 2.114 . S
O9 C12 1.252 . S
O10 Mg0 2.251 . S
O10 Mg3 2.079 . S
O10 C12 1.273 . S
C11 O7 1.246 . S
C11 O8 1.259 . S
C12 O9 1.252 . S
C12 O10 1.273 . S
O13 Mg0 2.010 . S
O13 C5 1.249 . S
Mg14 O15 2.028 . S
Mg14 O21 1.986 . S
Mg14 O23 2.114 . S
Mg14 O24 2.251 . S
Mg14 O27 2.010 . S
O15 Mg14 2.028 . S
O15 C18 1.250 . S
O16 Mg17 2.028 . S
O16 C18 1.248 . S
Mg17 O16 2.028 . S
Mg17 O22 2.032 . S
Mg17 O24 2.079 . S
C18 O15 1.250 . S
C18 O16 1.248 . S
C19 O20 1.264 . S
C19 O27 1.249 . S
O20 C19 1.264 . S
O21 Mg14 1.986 . S
O21 C25 1.246 . S
O22 Mg17 2.032 . S
O22 C25 1.259 . S
O23 Mg14 2.114 . S
O23 C26 1.252 . S
O24 Mg14 2.251 . S
O24 Mg17 2.079 . S
O24 C26 1.273 . S
C25 O21 1.246 . S
C25 O22 1.259 . S
C26 O23 1.252 . S
C26 O24 1.273 . S
O27 Mg14 2.010 . S
O27 C19 1.249 . S
Mg28 O29 2.028 . S
Mg28 O35 1.986 . S
Mg28 O37 2.114 . S
Mg28 O38 2.251 . S
Mg28 O41 2.010 . S
O29 Mg28 2.028 . S
O29 C32 1.250 . S
O30 Mg31 2.028 . S
O30 C32 1.248 . S
Mg31 O30 2.028 . S
Mg31 O36 2.032 . S
Mg31 O38 2.079 . S
C32 O29 1.250 . S
C32 O30 1.248 . S
C33 O34 1.264 . S
C33 O41 1.249 . S
O34 C33 1.264 . S
O35 Mg28 1.986 . S
O35 C39 1.246 . S
O36 Mg31 2.032 . S
O36 C39 1.259 . S
O37 Mg28 2.114 . S
O37 C40 1.252 . S
O38 Mg28 2.251 . S
O38 Mg31 2.079 . S
O38 C40 1.273 . S
C39 O35 1.246 . S
C39 O36 1.259 . S
C40 O37 1.252 . S
C40 O38 1.273 . S
O41 Mg28 2.010 . S
O41 C33 1.249 . S
Mg42 O43 2.028 . S
Mg42 O49 1.986 . S
Mg42 O51 2.114 . S
Mg42 O52 2.251 . S
Mg42 O55 2.010 . S
O43 Mg42 2.028 . S
O43 C46 1.250 . S
O44 Mg45 2.028 . S
O44 C46 1.248 . S
Mg45 O44 2.028 . S
Mg45 O50 2.032 . S
Mg45 O52 2.079 . S
C46 O43 1.250 . S
C46 O44 1.248 . S
C47 O48 1.264 . S
C47 O55 1.249 . S
O48 C47 1.264 . S
O49 Mg42 1.986 . S
O49 C53 1.246 . S
O50 Mg45 2.032 . S
O50 C53 1.259 . S
O51 Mg42 2.114 . S
O51 C54 1.252 . S
O52 Mg42 2.251 . S
O52 Mg45 2.079 . S
O52 C54 1.273 . S
C53 O49 1.246 . S
C53 O50 1.259 . S
C54 O51 1.252 . S
C54 O52 1.273 . S
O55 Mg42 2.010 . S
O55 C47 1.249 . S
Mg56 O57 2.028 . S
Mg56 O63 1.986 . S
Mg56 O65 2.114 . S
Mg56 O66 2.251 . S
Mg56 O69 2.010 . S
O57 Mg56 2.028 . S
O57 C60 1.250 . S
O58 Mg59 2.028 . S
O58 C60 1.248 . S
Mg59 O58 2.028 . S
Mg59 O64 2.032 . S
Mg59 O66 2.079 . S
C60 O57 1.250 . S
C60 O58 1.248 . S
C61 O62 1.264 . S
C61 O69 1.249 . S
O62 C61 1.264 . S
O63 Mg56 1.986 . S
O63 C67 1.246 . S
O64 Mg59 2.032 . S
O64 C67 1.259 . S
O65 Mg56 2.114 . S
O65 C68 1.252 . S
O66 Mg56 2.251 . S
O66 Mg59 2.079 . S
O66 C68 1.273 . S
C67 O63 1.246 . S
C67 O64 1.259 . S
C68 O65 1.252 . S
C68 O66 1.273 . S
O69 Mg56 2.010 . S
O69 C61 1.249 . S
Mg70 O71 2.028 . S
Mg70 O77 1.986 . S
Mg70 O79 2.114 . S
Mg70 O80 2.251 . S
Mg70 O83 2.010 . S
O71 Mg70 2.028 . S
O71 C74 1.250 . S
O72 Mg73 2.028 . S
O72 C74 1.248 . S
Mg73 O72 2.028 . S
Mg73 O78 2.032 . S
Mg73 O80 2.079 . S
C74 O71 1.250 . S
C74 O72 1.248 . S
C75 O76 1.264 . S
C75 O83 1.249 . S
O76 C75 1.264 . S
O77 Mg70 1.986 . S
O77 C81 1.246 . S
O78 Mg73 2.032 . S
O78 C81 1.259 . S
O79 Mg70 2.114 . S
O79 C82 1.252 . S
O80 Mg70 2.251 . S
O80 Mg73 2.079 . S
O80 C82 1.273 . S
C81 O77 1.246 . S
C81 O78 1.259 . S
C82 O79 1.252 . S
C82 O80 1.273 . S
O83 Mg70 2.010 . S
O83 C75 1.249 . S
Mg84 O85 2.028 . S
Mg84 O91 1.986 . S
Mg84 O93 2.114 . S
Mg84 O94 2.251 . S
Mg84 O97 2.010 . S
O85 Mg84 2.028 . S
O85 C88 1.250 . S
O86 Mg87 2.028 . S
O86 C88 1.248 . S
Mg87 O86 2.028 . S
Mg87 O92 2.032 . S
Mg87 O94 2.079 . S
C88 O85 1.250 . S
C88 O86 1.248 . S
C89 O90 1.264 . S
C89 O97 1.249 . S
O90 C89 1.264 . S
O91 Mg84 1.986 . S
O91 C95 1.246 . S
O92 Mg87 2.032 . S
O92 C95 1.259 . S
O93 Mg84 2.114 . S
O93 C96 1.252 . S
O94 Mg84 2.251 . S
O94 Mg87 2.079 . S
O94 C96 1.273 . S
C95 O91 1.246 . S
C95 O92 1.259 . S
C96 O93 1.252 . S
C96 O94 1.273 . S
O97 Mg84 2.010 . S
O97 C89 1.249 . S
Mg98 O99 2.028 . S
Mg98 O105 1.986 . S
Mg98 O107 2.114 . S
Mg98 O108 2.251 . S
Mg98 O111 2.010 . S
O99 Mg98 2.028 . S
O99 C102 1.250 . S
O100 Mg101 2.028 . S
O100 C102 1.248 . S
Mg101 O100 2.028 . S
Mg101 O106 2.032 . S
Mg101 O108 2.079 . S
C102 O99 1.250 . S
C102 O100 1.248 . S
C103 O104 1.264 . S
C103 O111 1.249 . S
O104 C103 1.264 . S
O105 Mg98 1.986 . S
O105 C109 1.246 . S
O106 Mg101 2.032 . S
O106 C109 1.259 . S
O107 Mg98 2.114 . S
O107 C110 1.252 . S
O108 Mg98 2.251 . S
O108 Mg101 2.079 . S
O108 C110 1.273 . S
C109 O105 1.246 . S
C109 O106 1.259 . S
C110 O107 1.252 . S
C110 O108 1.273 . S
O111 Mg98 2.010 . S
O111 C103 1.249 . S
Mg112 O113 2.028 . S
Mg112 O119 1.986 . S
Mg112 O121 2.114 . S
Mg112 O122 2.251 . S
Mg112 O125 2.010 . S
O113 Mg112 2.028 . S
O113 C116 1.250 . S
O114 Mg115 2.028 . S
O114 C116 1.248 . S
Mg115 O114 2.028 . S
Mg115 O120 2.032 . S
Mg115 O122 2.079 . S
C116 O113 1.250 . S
C116 O114 1.248 . S
C117 O118 1.264 . S
C117 O125 1.249 . S
O118 C117 1.264 . S
O119 Mg112 1.986 . S
O119 C123 1.246 . S
O120 Mg115 2.032 . S
O120 C123 1.259 . S
O121 Mg112 2.114 . S
O121 C124 1.252 . S
O122 Mg112 2.251 . S
O122 Mg115 2.079 . S
O122 C124 1.273 . S
C123 O119 1.246 . S
C123 O120 1.259 . S
C124 O121 1.252 . S
C124 O122 1.273 . S
O125 Mg112 2.010 . S
O125 C117 1.249 . S
Mg126 O127 2.028 . S
Mg126 O133 1.986 . S
Mg126 O135 2.114 . S
Mg126 O136 2.251 . S
Mg126 O139 2.010 . S
O127 Mg126 2.028 . S
O127 C130 1.250 . S
O128 Mg129 2.028 . S
O128 C130 1.248 . S
Mg129 O128 2.028 . S
Mg129 O134 2.032 . S
Mg129 O136 2.079 . S
C130 O127 1.250 . S
C130 O128 1.248 . S
C131 O132 1.264 . S
C131 O139 1.249 . S
O132 C131 1.264 . S
O133 Mg126 1.986 . S
O133 C137 1.246 . S
O134 Mg129 2.032 . S
O134 C137 1.259 . S
O135 Mg126 2.114 . S
O135 C138 1.252 . S
O136 Mg126 2.251 . S
O136 Mg129 2.079 . S
O136 C138 1.273 . S
C137 O133 1.246 . S
C137 O134 1.259 . S
C138 O135 1.252 . S
C138 O136 1.273 . S
O139 Mg126 2.010 . S
O139 C131 1.249 . S
Mg140 O141 2.028 . S
Mg140 O147 1.986 . S
Mg140 O149 2.114 . S
Mg140 O150 2.251 . S
Mg140 O153 2.010 . S
O141 Mg140 2.028 . S
O141 C144 1.250 . S
O142 Mg143 2.028 . S
O142 C144 1.248 . S
Mg143 O142 2.028 . S
Mg143 O148 2.032 . S
Mg143 O150 2.079 . S
C144 O141 1.250 . S
C144 O142 1.248 . S
C145 O146 1.264 . S
C145 O153 1.249 . S
O146 C145 1.264 . S
O147 Mg140 1.986 . S
O147 C151 1.246 . S
O148 Mg143 2.032 . S
O148 C151 1.259 . S
O149 Mg140 2.114 . S
O149 C152 1.252 . S
O150 Mg140 2.251 . S
O150 Mg143 2.079 . S
O150 C152 1.273 . S
C151 O147 1.246 . S
C151 O148 1.259 . S
C152 O149 1.252 . S
C152 O150 1.273 . S
O153 Mg140 2.010 . S
O153 C145 1.249 . S
Mg154 O155 2.028 . S
Mg154 O161 1.986 . S
Mg154 O163 2.114 . S
Mg154 O164 2.251 . S
Mg154 O167 2.010 . S
O155 Mg154 2.028 . S
O155 C158 1.250 . S
O156 Mg157 2.028 . S
O156 C158 1.248 . S
Mg157 O156 2.028 . S
Mg157 O162 2.032 . S
Mg157 O164 2.079 . S
C158 O155 1.250 . S
C158 O156 1.248 . S
C159 O160 1.264 . S
C159 O167 1.249 . S
O160 C159 1.264 . S
O161 Mg154 1.986 . S
O161 C165 1.246 . S
O162 Mg157 2.032 . S
O162 C165 1.259 . S
O163 Mg154 2.114 . S
O163 C166 1.252 . S
O164 Mg154 2.251 . S
O164 Mg157 2.079 . S
O164 C166 1.273 . S
C165 O161 1.246 . S
C165 O162 1.259 . S
C166 O163 1.252 . S
C166 O164 1.273 . S
O167 Mg154 2.010 . S
O167 C159 1.249 . S
Mg168 O169 2.028 . S
Mg168 O175 1.986 . S
Mg168 O177 2.114 . S
Mg168 O178 2.251 . S
Mg168 O181 2.010 . S
O169 Mg168 2.028 . S
O169 C172 1.250 . S
O170 Mg171 2.028 . S
O170 C172 1.248 . S
Mg171 O170 2.028 . S
Mg171 O176 2.032 . S
Mg171 O178 2.079 . S
C172 O169 1.250 . S
C172 O170 1.248 . S
C173 O174 1.264 . S
C173 O181 1.249 . S
O174 C173 1.264 . S
O175 Mg168 1.986 . S
O175 C179 1.246 . S
O176 Mg171 2.032 . S
O176 C179 1.259 . S
O177 Mg168 2.114 . S
O177 C180 1.252 . S
O178 Mg168 2.251 . S
O178 Mg171 2.079 . S
O178 C180 1.273 . S
C179 O175 1.246 . S
C179 O176 1.259 . S
C180 O177 1.252 . S
C180 O178 1.273 . S
O181 Mg168 2.010 . S
O181 C173 1.249 . S
Mg182 O183 2.028 . S
Mg182 O189 1.986 . S
Mg182 O191 2.114 . S
Mg182 O192 2.251 . S
Mg182 O195 2.010 . S
O183 Mg182 2.028 . S
O183 C186 1.250 . S
O184 Mg185 2.028 . S
O184 C186 1.248 . S
Mg185 O184 2.028 . S
Mg185 O190 2.032 . S
Mg185 O192 2.079 . S
C186 O183 1.250 . S
C186 O184 1.248 . S
C187 O188 1.264 . S
C187 O195 1.249 . S
O188 C187 1.264 . S
O189 Mg182 1.986 . S
O189 C193 1.246 . S
O190 Mg185 2.032 . S
O190 C193 1.259 . S
O191 Mg182 2.114 . S
O191 C194 1.252 . S
O192 Mg182 2.251 . S
O192 Mg185 2.079 . S
O192 C194 1.273 . S
C193 O189 1.246 . S
C193 O190 1.259 . S
C194 O191 1.252 . S
C194 O192 1.273 . S
O195 Mg182 2.010 . S
O195 C187 1.249 . S
Mg196 O197 2.028 . S
Mg196 O203 1.986 . S
Mg196 O205 2.114 . S
Mg196 O206 2.251 . S
Mg196 O209 2.010 . S
O197 Mg196 2.028 . S
O197 C200 1.250 . S
O198 Mg199 2.028 . S
O198 C200 1.248 . S
Mg199 O198 2.028 . S
Mg199 O204 2.032 . S
Mg199 O206 2.079 . S
C200 O197 1.250 . S
C200 O198 1.248 . S
C201 O202 1.264 . S
C201 O209 1.249 . S
O202 C201 1.264 . S
O203 Mg196 1.986 . S
O203 C207 1.246 . S
O204 Mg199 2.032 . S
O204 C207 1.259 . S
O205 Mg196 2.114 . S
O205 C208 1.252 . S
O206 Mg196 2.251 . S
O206 Mg199 2.079 . S
O206 C208 1.273 . S
C207 O203 1.246 . S
C207 O204 1.259 . S
C208 O205 1.252 . S
C208 O206 1.273 . S
O209 Mg196 2.010 . S
O209 C201 1.249 . S
Mg210 O211 2.028 . S
Mg210 O217 1.986 . S
Mg210 O219 2.114 . S
Mg210 O220 2.251 . S
Mg210 O223 2.010 . S
O211 Mg210 2.028 . S
O211 C214 1.250 . S
O212 Mg213 2.028 . S
O212 C214 1.248 . S
Mg213 O212 2.028 . S
Mg213 O218 2.032 . S
Mg213 O220 2.079 . S
C214 O211 1.250 . S
C214 O212 1.248 . S
C215 O216 1.264 . S
C215 O223 1.249 . S
O216 C215 1.264 . S
O217 Mg210 1.986 . S
O217 C221 1.246 . S
O218 Mg213 2.032 . S
O218 C221 1.259 . S
O219 Mg210 2.114 . S
O219 C222 1.252 . S
O220 Mg210 2.251 . S
O220 Mg213 2.079 . S
O220 C222 1.273 . S
C221 O217 1.246 . S
C221 O218 1.259 . S
C222 O219 1.252 . S
C222 O220 1.273 . S
O223 Mg210 2.010 . S
O223 C215 1.249 . S
Mg224 O225 2.028 . S
Mg224 O231 1.986 . S
Mg224 O233 2.114 . S
Mg224 O234 2.251 . S
Mg224 O237 2.010 . S
O225 Mg224 2.028 . S
O225 C228 1.250 . S
O226 Mg227 2.028 . S
O226 C228 1.248 . S
Mg227 O226 2.028 . S
Mg227 O232 2.032 . S
Mg227 O234 2.079 . S
C228 O225 1.250 . S
C228 O226 1.248 . S
C229 O230 1.264 . S
C229 O237 1.249 . S
O230 C229 1.264 . S
O231 Mg224 1.986 . S
O231 C235 1.246 . S
O232 Mg227 2.032 . S
O232 C235 1.259 . S
O233 Mg224 2.114 . S
O233 C236 1.252 . S
O234 Mg224 2.251 . S
O234 Mg227 2.079 . S
O234 C236 1.273 . S
C235 O231 1.246 . S
C235 O232 1.259 . S
C236 O233 1.252 . S
C236 O234 1.273 . S
O237 Mg224 2.010 . S
O237 C229 1.249 . S
Mg238 O239 2.028 . S
Mg238 O245 1.986 . S
Mg238 O247 2.114 . S
Mg238 O248 2.251 . S
Mg238 O251 2.010 . S
O239 Mg238 2.028 . S
O239 C242 1.250 . S
O240 Mg241 2.028 . S
O240 C242 1.248 . S
Mg241 O240 2.028 . S
Mg241 O246 2.032 . S
Mg241 O248 2.079 . S
C242 O239 1.250 . S
C242 O240 1.248 . S
C243 O244 1.264 . S
C243 O251 1.249 . S
O244 C243 1.264 . S
O245 Mg238 1.986 . S
O245 C249 1.246 . S
O246 Mg241 2.032 . S
O246 C249 1.259 . S
O247 Mg238 2.114 . S
O247 C250 1.252 . S
O248 Mg238 2.251 . S
O248 Mg241 2.079 . S
O248 C250 1.273 . S
C249 O245 1.246 . S
C249 O246 1.259 . S
C250 O247 1.252 . S
C250 O248 1.273 . S
O251 Mg238 2.010 . S
O251 C243 1.249 . S
Mg252 O253 2.028 . S
Mg252 O259 1.986 . S
Mg252 O261 2.114 . S
Mg252 O262 2.251 . S
Mg252 O265 2.010 . S
O253 Mg252 2.028 . S
O253 C256 1.250 . S
O254 Mg255 2.028 . S
O254 C256 1.248 . S
Mg255 O254 2.028 . S
Mg255 O260 2.032 . S
Mg255 O262 2.079 . S
C256 O253 1.250 . S
C256 O254 1.248 . S
C257 O258 1.264 . S
C257 O265 1.249 . S
O258 C257 1.264 . S
O259 Mg252 1.986 . S
O259 C263 1.246 . S
O260 Mg255 2.032 . S
O260 C263 1.259 . S
O261 Mg252 2.114 . S
O261 C264 1.252 . S
O262 Mg252 2.251 . S
O262 Mg255 2.079 . S
O262 C264 1.273 . S
C263 O259 1.246 . S
C263 O260 1.259 . S
C264 O261 1.252 . S
C264 O262 1.273 . S
O265 Mg252 2.010 . S
O265 C257 1.249 . S
Mg266 O267 2.028 . S
Mg266 O273 1.986 . S
Mg266 O275 2.114 . S
Mg266 O276 2.251 . S
Mg266 O279 2.010 . S
O267 Mg266 2.028 . S
O267 C270 1.250 . S
O268 Mg269 2.028 . S
O268 C270 1.248 . S
Mg269 O268 2.028 . S
Mg269 O274 2.032 . S
Mg269 O276 2.079 . S
C270 O267 1.250 . S
C270 O268 1.248 . S
C271 O272 1.264 . S
C271 O279 1.249 . S
O272 C271 1.264 . S
O273 Mg266 1.986 . S
O273 C277 1.246 . S
O274 Mg269 2.032 . S
O274 C277 1.259 . S
O275 Mg266 2.114 . S
O275 C278 1.252 . S
O276 Mg266 2.251 . S
O276 Mg269 2.079 . S
O276 C278 1.273 . S
C277 O273 1.246 . S
C277 O274 1.259 . S
C278 O275 1.252 . S
C278 O276 1.273 . S
O279 Mg266 2.010 . S
O279 C271 1.249 . S
Mg280 O281 2.028 . S
Mg280 O287 1.986 . S
Mg280 O289 2.114 . S
Mg280 O290 2.251 . S
Mg280 O293 2.010 . S
O281 Mg280 2.028 . S
O281 C284 1.250 . S
O282 Mg283 2.028 . S
O282 C284 1.248 . S
Mg283 O282 2.028 . S
Mg283 O288 2.032 . S
Mg283 O290 2.079 . S
C284 O281 1.250 . S
C284 O282 1.248 . S
C285 O286 1.264 . S
C285 O293 1.249 . S
O286 C285 1.264 . S
O287 Mg280 1.986 . S
O287 C291 1.246 . S
O288 Mg283 2.032 . S
O288 C291 1.259 . S
O289 Mg280 2.114 . S
O289 C292 1.252 . S
O290 Mg280 2.251 . S
O290 Mg283 2.079 . S
O290 C292 1.273 . S
C291 O287 1.246 . S
C291 O288 1.259 . S
C292 O289 1.252 . S
C292 O290 1.273 . S
O293 Mg280 2.010 . S
O293 C285 1.249 . S
Mg294 O295 2.028 . S
Mg294 O301 1.986 . S
Mg294 O303 2.114 . S
Mg294 O304 2.251 . S
Mg294 O307 2.010 . S
O295 Mg294 2.028 . S
O295 C298 1.250 . S
O296 Mg297 2.028 . S
O296 C298 1.248 . S
Mg297 O296 2.028 . S
Mg297 O302 2.032 . S
Mg297 O304 2.079 . S
C298 O295 1.250 . S
C298 O296 1.248 . S
C299 O300 1.264 . S
C299 O307 1.249 . S
O300 C299 1.264 . S
O301 Mg294 1.986 . S
O301 C305 1.246 . S
O302 Mg297 2.032 . S
O302 C305 1.259 . S
O303 Mg294 2.114 . S
O303 C306 1.252 . S
O304 Mg294 2.251 . S
O304 Mg297 2.079 . S
O304 C306 1.273 . S
C305 O301 1.246 . S
C305 O302 1.259 . S
C306 O303 1.252 . S
C306 O304 1.273 . S
O307 Mg294 2.010 . S
O307 C299 1.249 . S
Mg308 O309 2.028 . S
Mg308 O315 1.986 . S
Mg308 O317 2.114 . S
Mg308 O318 2.251 . S
Mg308 O321 2.010 . S
O309 Mg308 2.028 . S
O309 C312 1.250 . S
O310 Mg311 2.028 . S
O310 C312 1.248 . S
Mg311 O310 2.028 . S
Mg311 O316 2.032 . S
Mg311 O318 2.079 . S
C312 O309 1.250 . S
C312 O310 1.248 . S
C313 O314 1.264 . S
C313 O321 1.249 . S
O314 C313 1.264 . S
O315 Mg308 1.986 . S
O315 C319 1.246 . S
O316 Mg311 2.032 . S
O316 C319 1.259 . S
O317 Mg308 2.114 . S
O317 C320 1.252 . S
O318 Mg308 2.251 . S
O318 Mg311 2.079 . S
O318 C320 1.273 . S
C319 O315 1.246 . S
C319 O316 1.259 . S
C320 O317 1.252 . S
C320 O318 1.273 . S
O321 Mg308 2.010 . S
O321 C313 1.249 . S
Mg322 O323 2.028 . S
Mg322 O329 1.986 . S
Mg322 O331 2.114 . S
Mg322 O332 2.251 . S
Mg322 O335 2.010 . S
O323 Mg322 2.028 . S
O323 C326 1.250 . S
O324 Mg325 2.028 . S
O324 C326 1.248 . S
Mg325 O324 2.028 . S
Mg325 O330 2.032 . S
Mg325 O332 2.079 . S
C326 O323 1.250 . S
C326 O324 1.248 . S
C327 O328 1.264 . S
C327 O335 1.249 . S
O328 C327 1.264 . S
O329 Mg322 1.986 . S
O329 C333 1.246 . S
O330 Mg325 2.032 . S
O330 C333 1.259 . S
O331 Mg322 2.114 . S
O331 C334 1.252 . S
O332 Mg322 2.251 . S
O332 Mg325 2.079 . S
O332 C334 1.273 . S
C333 O329 1.246 . S
C333 O330 1.259 . S
C334 O331 1.252 . S
C334 O332 1.273 . S
O335 Mg322 2.010 . S
O335 C327 1.249 . S
C336 C337 1.387 . S
C336 H340 0.950 . S
C336 C345 1.390 . S
C337 C336 1.387 . S
C337 C339 1.387 . S
H338 C345 0.950 . S
C339 C337 1.387 . S
C339 C341 1.390 . S
C339 H343 0.950 . S
H340 C336 0.950 . S
C341 C339 1.390 . S
C341 C342 1.387 . S
C341 H344 0.950 . S
C342 C341 1.387 . S
C342 C345 1.387 . S
H343 C339 0.950 . S
H344 C341 0.950 . S
C345 C336 1.390 . S
C345 H338 0.950 . S
C345 C342 1.387 . S
C346 C347 1.387 . S
C346 H350 0.950 . S
C346 C355 1.390 . S
C347 C346 1.387 . S
C347 C349 1.387 . S
H348 C355 0.950 . S
C349 C347 1.387 . S
C349 C351 1.390 . S
C349 H353 0.950 . S
H350 C346 0.950 . S
C351 C349 1.390 . S
C351 C352 1.387 . S
C351 H354 0.950 . S
C352 C351 1.387 . S
C352 C355 1.387 . S
H353 C349 0.950 . S
H354 C351 0.950 . S
C355 C346 1.390 . S
C355 H348 0.950 . S
C355 C352 1.387 . S
C356 C357 1.387 . S
C356 H360 0.950 . S
C356 C365 1.390 . S
C357 C356 1.387 . S
C357 C359 1.387 . S
H358 C365 0.950 . S
C359 C357 1.387 . S
C359 C361 1.390 . S
C359 H363 0.950 . S
H360 C356 0.950 . S
C361 C359 1.390 . S
C361 C362 1.387 . S
C361 H364 0.950 . S
C362 C361 1.387 . S
C362 C365 1.387 . S
H363 C359 0.950 . S
H364 C361 0.950 . S
C365 C356 1.390 . S
C365 H358 0.950 . S
C365 C362 1.387 . S
C366 C367 1.387 . S
C366 H370 0.950 . S
C366 C375 1.390 . S
C367 C366 1.387 . S
C367 C369 1.387 . S
H368 C375 0.950 . S
C369 C367 1.387 . S
C369 C371 1.390 . S
C369 H373 0.950 . S
H370 C366 0.950 . S
C371 C369 1.390 . S
C371 C372 1.387 . S
C371 H374 0.950 . S
C372 C371 1.387 . S
C372 C375 1.387 . S
H373 C369 0.950 . S
H374 C371 0.950 . S
C375 C366 1.390 . S
C375 H368 0.950 . S
C375 C372 1.387 . S
C376 C377 1.387 . S
C376 H380 0.950 . S
C376 C385 1.390 . S
C377 C376 1.387 . S
C377 C379 1.387 . S
H378 C385 0.950 . S
C379 C377 1.387 . S
C379 C381 1.390 . S
C379 H383 0.950 . S
H380 C376 0.950 . S
C381 C379 1.390 . S
C381 C382 1.387 . S
C381 H384 0.950 . S
C382 C381 1.387 . S
C382 C385 1.387 . S
H383 C379 0.950 . S
H384 C381 0.950 . S
C385 C376 1.390 . S
C385 H378 0.950 . S
C385 C382 1.387 . S
C386 C387 1.387 . S
C386 H390 0.950 . S
C386 C395 1.390 . S
C387 C386 1.387 . S
C387 C389 1.387 . S
H388 C395 0.950 . S
C389 C387 1.387 . S
C389 C391 1.390 . S
C389 H393 0.950 . S
H390 C386 0.950 . S
C391 C389 1.390 . S
C391 C392 1.387 . S
C391 H394 0.950 . S
C392 C391 1.387 . S
C392 C395 1.387 . S
H393 C389 0.950 . S
H394 C391 0.950 . S
C395 C386 1.390 . S
C395 H388 0.950 . S
C395 C392 1.387 . S
C396 C397 1.387 . S
C396 H400 0.950 . S
C396 C405 1.390 . S
C397 C396 1.387 . S
C397 C399 1.387 . S
H398 C405 0.950 . S
C399 C397 1.387 . S
C399 C401 1.390 . S
C399 H403 0.950 . S
H400 C396 0.950 . S
C401 C399 1.390 . S
C401 C402 1.387 . S
C401 H404 0.950 . S
C402 C401 1.387 . S
C402 C405 1.387 . S
H403 C399 0.950 . S
H404 C401 0.950 . S
C405 C396 1.390 . S
C405 H398 0.950 . S
C405 C402 1.387 . S
C406 C407 1.387 . S
C406 H410 0.950 . S
C406 C415 1.390 . S
C407 C406 1.387 . S
C407 C409 1.387 . S
H408 C415 0.950 . S
C409 C407 1.387 . S
C409 C411 1.390 . S
C409 H413 0.950 . S
H410 C406 0.950 . S
C411 C409 1.390 . S
C411 C412 1.387 . S
C411 H414 0.950 . S
C412 C411 1.387 . S
C412 C415 1.387 . S
H413 C409 0.950 . S
H414 C411 0.950 . S
C415 C406 1.390 . S
C415 H408 0.950 . S
C415 C412 1.387 . S
C416 C417 1.387 . S
C416 H420 0.950 . S
C416 C425 1.390 . S
C417 C416 1.387 . S
C417 C419 1.387 . S
H418 C425 0.950 . S
C419 C417 1.387 . S
C419 C421 1.390 . S
C419 H423 0.950 . S
H420 C416 0.950 . S
C421 C419 1.390 . S
C421 C422 1.387 . S
C421 H424 0.950 . S
C422 C421 1.387 . S
C422 C425 1.387 . S
H423 C419 0.950 . S
H424 C421 0.950 . S
C425 C416 1.390 . S
C425 H418 0.950 . S
C425 C422 1.387 . S
C426 C427 1.387 . S
C426 H430 0.950 . S
C426 C435 1.390 . S
C427 C426 1.387 . S
C427 C429 1.387 . S
H428 C435 0.950 . S
C429 C427 1.387 . S
C429 C431 1.390 . S
C429 H433 0.950 . S
H430 C426 0.950 . S
C431 C429 1.390 . S
C431 C432 1.387 . S
C431 H434 0.950 . S
C432 C431 1.387 . S
C432 C435 1.387 . S
H433 C429 0.950 . S
H434 C431 0.950 . S
C435 C426 1.390 . S
C435 H428 0.950 . S
C435 C432 1.387 . S
C436 C437 1.387 . S
C436 H440 0.950 . S
C436 C445 1.390 . S
C437 C436 1.387 . S
C437 C439 1.387 . S
H438 C445 0.950 . S
C439 C437 1.387 . S
C439 C441 1.390 . S
C439 H443 0.950 . S
H440 C436 0.950 . S
C441 C439 1.390 . S
C441 C442 1.387 . S
C441 H444 0.950 . S
C442 C441 1.387 . S
C442 C445 1.387 . S
H443 C439 0.950 . S
H444 C441 0.950 . S
C445 C436 1.390 . S
C445 H438 0.950 . S
C445 C442 1.387 . S
C446 C447 1.387 . S
C446 H450 0.950 . S
C446 C455 1.390 . S
C447 C446 1.387 . S
C447 C449 1.387 . S
H448 C455 0.950 . S
C449 C447 1.387 . S
C449 C451 1.390 . S
C449 H453 0.950 . S
H450 C446 0.950 . S
C451 C449 1.390 . S
C451 C452 1.387 . S
C451 H454 0.950 . S
C452 C451 1.387 . S
C452 C455 1.387 . S
H453 C449 0.950 . S
H454 C451 0.950 . S
C455 C446 1.390 . S
C455 H448 0.950 . S
C455 C452 1.387 . S
C456 C457 1.387 . S
C456 H460 0.950 . S
C456 C465 1.390 . S
C457 C456 1.387 . S
C457 C459 1.387 . S
H458 C465 0.950 . S
C459 C457 1.387 . S
C459 C461 1.390 . S
C459 H463 0.950 . S
H460 C456 0.950 . S
C461 C459 1.390 . S
C461 C462 1.387 . S
C461 H464 0.950 . S
C462 C461 1.387 . S
C462 C465 1.387 . S
H463 C459 0.950 . S
H464 C461 0.950 . S
C465 C456 1.390 . S
C465 H458 0.950 . S
C465 C462 1.387 . S
C466 C467 1.387 . S
C466 H470 0.950 . S
C466 C475 1.390 . S
C467 C466 1.387 . S
C467 C469 1.387 . S
H468 C475 0.950 . S
C469 C467 1.387 . S
C469 C471 1.390 . S
C469 H473 0.950 . S
H470 C466 0.950 . S
C471 C469 1.390 . S
C471 C472 1.387 . S
C471 H474 0.950 . S
C472 C471 1.387 . S
C472 C475 1.387 . S
H473 C469 0.950 . S
H474 C471 0.950 . S
C475 C466 1.390 . S
C475 H468 0.950 . S
C475 C472 1.387 . S
C476 C477 1.387 . S
C476 H480 0.950 . S
C476 C485 1.390 . S
C477 C476 1.387 . S
C477 C479 1.387 . S
H478 C485 0.950 . S
C479 C477 1.387 . S
C479 C481 1.390 . S
C479 H483 0.950 . S
H480 C476 0.950 . S
C481 C479 1.390 . S
C481 C482 1.387 . S
C481 H484 0.950 . S
C482 C481 1.387 . S
C482 C485 1.387 . S
H483 C479 0.950 . S
H484 C481 0.950 . S
C485 C476 1.390 . S
C485 H478 0.950 . S
C485 C482 1.387 . S
C486 C487 1.387 . S
C486 H490 0.950 . S
C486 C495 1.390 . S
C487 C486 1.387 . S
C487 C489 1.387 . S
H488 C495 0.950 . S
C489 C487 1.387 . S
C489 C491 1.390 . S
C489 H493 0.950 . S
H490 C486 0.950 . S
C491 C489 1.390 . S
C491 C492 1.387 . S
C491 H494 0.950 . S
C492 C491 1.387 . S
C492 C495 1.387 . S
H493 C489 0.950 . S
H494 C491 0.950 . S
C495 C486 1.390 . S
C495 H488 0.950 . S
C495 C492 1.387 . S
C496 C497 1.387 . S
C496 H500 0.950 . S
C496 C505 1.390 . S
C497 C496 1.387 . S
C497 C499 1.387 . S
H498 C505 0.950 . S
C499 C497 1.387 . S
C499 C501 1.390 . S
C499 H503 0.950 . S
H500 C496 0.950 . S
C501 C499 1.390 . S
C501 C502 1.387 . S
C501 H504 0.950 . S
C502 C501 1.387 . S
C502 C505 1.387 . S
H503 C499 0.950 . S
H504 C501 0.950 . S
C505 C496 1.390 . S
C505 H498 0.950 . S
C505 C502 1.387 . S
C506 C507 1.387 . S
C506 H510 0.950 . S
C506 C515 1.390 . S
C507 C506 1.387 . S
C507 C509 1.387 . S
H508 C515 0.950 . S
C509 C507 1.387 . S
C509 C511 1.390 . S
C509 H513 0.950 . S
H510 C506 0.950 . S
C511 C509 1.390 . S
C511 C512 1.387 . S
C511 H514 0.950 . S
C512 C511 1.387 . S
C512 C515 1.387 . S
H513 C509 0.950 . S
H514 C511 0.950 . S
C515 C506 1.390 . S
C515 H508 0.950 . S
C515 C512 1.387 . S
C516 C517 1.387 . S
C516 H520 0.950 . S
C516 C525 1.390 . S
C517 C516 1.387 . S
C517 C519 1.387 . S
H518 C525 0.950 . S
C519 C517 1.387 . S
C519 C521 1.390 . S
C519 H523 0.950 . S
H520 C516 0.950 . S
C521 C519 1.390 . S
C521 C522 1.387 . S
C521 H524 0.950 . S
C522 C521 1.387 . S
C522 C525 1.387 . S
H523 C519 0.950 . S
H524 C521 0.950 . S
C525 C516 1.390 . S
C525 H518 0.950 . S
C525 C522 1.387 . S
C526 C527 1.387 . S
C526 H530 0.950 . S
C526 C535 1.390 . S
C527 C526 1.387 . S
C527 C529 1.387 . S
H528 C535 0.950 . S
C529 C527 1.387 . S
C529 C531 1.390 . S
C529 H533 0.950 . S
H530 C526 0.950 . S
C531 C529 1.390 . S
C531 C532 1.387 . S
C531 H534 0.950 . S
C532 C531 1.387 . S
C532 C535 1.387 . S
H533 C529 0.950 . S
H534 C531 0.950 . S
C535 C526 1.390 . S
C535 H528 0.950 . S
C535 C532 1.387 . S
C536 C537 1.387 . S
C536 H540 0.950 . S
C536 C545 1.390 . S
C537 C536 1.387 . S
C537 C539 1.387 . S
H538 C545 0.950 . S
C539 C537 1.387 . S
C539 C541 1.390 . S
C539 H543 0.950 . S
H540 C536 0.950 . S
C541 C539 1.390 . S
C541 C542 1.387 . S
C541 H544 0.950 . S
C542 C541 1.387 . S
C542 C545 1.387 . S
H543 C539 0.950 . S
H544 C541 0.950 . S
C545 C536 1.390 . S
C545 H538 0.950 . S
C545 C542 1.387 . S
C546 C547 1.387 . S
C546 H550 0.950 . S
C546 C555 1.390 . S
C547 C546 1.387 . S
C547 C549 1.387 . S
H548 C555 0.950 . S
C549 C547 1.387 . S
C549 C551 1.390 . S
C549 H553 0.950 . S
H550 C546 0.950 . S
C551 C549 1.390 . S
C551 C552 1.387 . S
C551 H554 0.950 . S
C552 C551 1.387 . S
C552 C555 1.387 . S
H553 C549 0.950 . S
H554 C551 0.950 . S
C555 C546 1.390 . S
C555 H548 0.950 . S
C555 C552 1.387 . S
C556 C557 1.387 . S
C556 H560 0.950 . S
C556 C565 1.390 . S
C557 C556 1.387 . S
C557 C559 1.387 . S
H558 C565 0.950 . S
C559 C557 1.387 . S
C559 C561 1.390 . S
C559 H563 0.950 . S
H560 C556 0.950 . S
C561 C559 1.390 . S
C561 C562 1.387 . S
C561 H564 0.950 . S
C562 C561 1.387 . S
C562 C565 1.387 . S
H563 C559 0.950 . S
H564 C561 0.950 . S
C565 C556 1.390 . S
C565 H558 0.950 . S
C565 C562 1.387 . S
C566 C567 1.387 . S
C566 H570 0.950 . S
C566 C575 1.390 . S
C567 C566 1.387 . S
C567 C569 1.387 . S
H568 C575 0.950 . S
C569 C567 1.387 . S
C569 C571 1.390 . S
C569 H573 0.950 . S
H570 C566 0.950 . S
C571 C569 1.390 . S
C571 C572 1.387 . S
C571 H574 0.950 . S
C572 C571 1.387 . S
C572 C575 1.387 . S
H573 C569 0.950 . S
H574 C571 0.950 . S
C575 C566 1.390 . S
C575 H568 0.950 . S
C575 C572 1.387 . S
C576 C577 1.387 . S
C576 H580 0.950 . S
C576 C585 1.390 1_455 S
C577 C576 1.387 . S
C577 C579 1.387 . S
H578 C585 0.950 . S
C579 C577 1.387 . S
C579 C581 1.390 1_455 S
C579 H583 0.950 . S
H580 C576 0.950 . S
C581 C579 1.390 1_655 S
C581 C582 1.387 . S
C581 H584 0.950 . S
C582 C581 1.387 . S
C582 C585 1.387 . S
H583 C579 0.950 . S
H584 C581 0.950 . S
C585 C576 1.390 1_655 S
C585 H578 0.950 . S
C585 C582 1.387 . S
C586 C587 1.387 . S
C586 H590 0.950 . S
C586 C595 1.390 1_545 S
C587 C586 1.387 . S
C587 C589 1.387 . S
H588 C595 0.950 . S
C589 C587 1.387 . S
C589 C591 1.390 1_545 S
C589 H593 0.950 . S
H590 C586 0.950 . S
C591 C589 1.390 1_565 S
C591 C592 1.387 . S
C591 H594 0.950 . S
C592 C591 1.387 . S
C592 C595 1.387 . S
H593 C589 0.950 . S
H594 C591 0.950 . S
C595 C586 1.390 1_565 S
C595 H588 0.950 . S
C595 C592 1.387 . S
C596 C597 1.387 . S
C596 H600 0.950 . S
C596 C605 1.390 1_655 S
C597 C596 1.387 . S
C597 C599 1.387 . S
H598 C605 0.950 . S
C599 C597 1.387 . S
C599 C601 1.390 1_655 S
C599 H603 0.950 . S
H600 C596 0.950 . S
C601 C599 1.390 1_455 S
C601 C602 1.387 . S
C601 H604 0.950 . S
C602 C601 1.387 . S
C602 C605 1.387 . S
H603 C599 0.950 . S
H604 C601 0.950 . S
C605 C596 1.390 1_455 S
C605 H598 0.950 . S
C605 C602 1.387 . S
C606 C607 1.387 . S
C606 H610 0.950 . S
C606 C615 1.390 1_545 S
C607 C606 1.387 . S
C607 C609 1.387 . S
H608 C615 0.950 . S
C609 C607 1.387 . S
C609 C611 1.390 1_545 S
C609 H613 0.950 . S
H610 C606 0.950 . S
C611 C609 1.390 1_565 S
C611 C612 1.387 . S
C611 H614 0.950 . S
C612 C611 1.387 . S
C612 C615 1.387 . S
H613 C609 0.950 . S
H614 C611 0.950 . S
C615 C606 1.390 1_565 S
C615 H608 0.950 . S
C615 C612 1.387 . S
C616 C617 1.387 . S
C616 H620 0.950 . S
C616 C625 1.390 1_565 S
C617 C616 1.387 . S
C617 C619 1.387 . S
H618 C625 0.950 . S
C619 C617 1.387 . S
C619 C621 1.390 1_565 S
C619 H623 0.950 . S
H620 C616 0.950 . S
C621 C619 1.390 1_545 S
C621 C622 1.387 . S
C621 H624 0.950 . S
C622 C621 1.387 . S
C622 C625 1.387 . S
H623 C619 0.950 . S
H624 C621 0.950 . S
C625 C616 1.390 1_545 S
C625 H618 0.950 . S
C625 C622 1.387 . S
C626 C627 1.387 . S
C626 H630 0.950 . S
C626 C635 1.390 1_655 S
C627 C626 1.387 . S
C627 C629 1.387 . S
H628 C635 0.950 . S
C629 C627 1.387 . S
C629 C631 1.390 1_655 S
C629 H633 0.950 . S
H630 C626 0.950 . S
C631 C629 1.390 1_455 S
C631 C632 1.387 . S
C631 H634 0.950 . S
C632 C631 1.387 . S
C632 C635 1.387 . S
H633 C629 0.950 . S
H634 C631 0.950 . S
C635 C626 1.390 1_455 S
C635 H628 0.950 . S
C635 C632 1.387 . S
C636 C637 1.387 . S
C636 H640 0.950 . S
C636 C645 1.390 1_565 S
C637 C636 1.387 . S
C637 C639 1.387 . S
H638 C645 0.950 . S
C639 C637 1.387 . S
C639 C641 1.390 1_565 S
C639 H643 0.950 . S
H640 C636 0.950 . S
C641 C639 1.390 1_545 S
C641 C642 1.387 . S
C641 H644 0.950 . S
C642 C641 1.387 . S
C642 C645 1.387 . S
H643 C639 0.950 . S
H644 C641 0.950 . S
C645 C636 1.390 1_545 S
C645 H638 0.950 . S
C645 C642 1.387 . S
C646 C647 1.387 . S
C646 H650 0.950 . S
C646 C655 1.390 1_655 S
C647 C646 1.387 . S
C647 C649 1.387 . S
H648 C655 0.950 . S
C649 C647 1.387 . S
C649 C651 1.390 1_655 S
C649 H653 0.950 . S
H650 C646 0.950 . S
C651 C649 1.390 1_455 S
C651 C652 1.387 . S
C651 H654 0.950 . S
C652 C651 1.387 . S
C652 C655 1.387 . S
H653 C649 0.950 . S
H654 C651 0.950 . S
C655 C646 1.390 1_455 S
C655 H648 0.950 . S
C655 C652 1.387 . S
C656 C657 1.387 . S
C656 H660 0.950 . S
C656 C665 1.390 1_556 S
C657 C656 1.387 . S
C657 C659 1.387 . S
H658 C665 0.950 . S
C659 C657 1.387 . S
C659 C661 1.390 1_556 S
C659 H663 0.950 . S
H660 C656 0.950 . S
C661 C659 1.390 1_554 S
C661 C662 1.387 . S
C661 H664 0.950 . S
C662 C661 1.387 . S
C662 C665 1.387 . S
H663 C659 0.950 . S
H664 C661 0.950 . S
C665 C656 1.390 1_554 S
C665 H658 0.950 . S
C665 C662 1.387 . S
C666 C667 1.387 . S
C666 H670 0.950 . S
C666 C675 1.390 1_556 S
C667 C666 1.387 . S
C667 C669 1.387 . S
H668 C675 0.950 . S
C669 C667 1.387 . S
C669 C671 1.390 1_556 S
C669 H673 0.950 . S
H670 C666 0.950 . S
C671 C669 1.390 1_554 S
C671 C672 1.387 . S
C671 H674 0.950 . S
C672 C671 1.387 . S
C672 C675 1.387 . S
H673 C669 0.950 . S
H674 C671 0.950 . S
C675 C666 1.390 1_554 S
C675 H668 0.950 . S
C675 C672 1.387 . S
C676 C677 1.387 . S
C676 H680 0.950 . S
C676 C685 1.390 1_556 S
C677 C676 1.387 . S
C677 C679 1.387 . S
H678 C685 0.950 . S
C679 C677 1.387 . S
C679 C681 1.390 1_556 S
C679 H683 0.950 . S
H680 C676 0.950 . S
C681 C679 1.390 1_554 S
C681 C682 1.387 . S
C681 H684 0.950 . S
C682 C681 1.387 . S
C682 C685 1.387 . S
H683 C679 0.950 . S
H684 C681 0.950 . S
C685 C676 1.390 1_554 S
C685 H678 0.950 . S
C685 C682 1.387 . S
C686 C687 1.387 . S
C686 H690 0.950 . S
C686 C695 1.390 1_556 S
C687 C686 1.387 . S
C687 C689 1.387 . S
H688 C695 0.950 . S
C689 C687 1.387 . S
C689 C691 1.390 1_556 S
C689 H693 0.950 . S
H690 C686 0.950 . S
C691 C689 1.390 1_554 S
C691 C692 1.387 . S
C691 H694 0.950 . S
C692 C691 1.387 . S
C692 C695 1.387 . S
H693 C689 0.950 . S
H694 C691 0.950 . S
C695 C686 1.390 1_554 S
C695 H688 0.950 . S
C695 C692 1.387 . S
C696 C697 1.387 . S
C696 H700 0.950 . S
C696 C705 1.390 . S
C697 C696 1.387 . S
C697 C699 1.387 . S
H698 C705 0.950 . S
C699 C697 1.387 . S
C699 C701 1.390 . S
C699 H703 0.950 . S
H700 C696 0.950 . S
C701 C699 1.390 . S
C701 C702 1.387 . S
C701 H704 0.950 . S
C702 C701 1.387 . S
C702 C705 1.387 . S
H703 C699 0.950 . S
H704 C701 0.950 . S
C705 C696 1.390 . S
C705 H698 0.950 . S
C705 C702 1.387 . S
C706 C707 1.387 . S
C706 H710 0.950 . S
C706 C715 1.390 . S
C707 C706 1.387 . S
C707 C709 1.387 . S
H708 C715 0.950 . S
C709 C707 1.387 . S
C709 C711 1.390 . S
C709 H713 0.950 . S
H710 C706 0.950 . S
C711 C709 1.390 . S
C711 C712 1.387 . S
C711 H714 0.950 . S
C712 C711 1.387 . S
C712 C715 1.387 . S
H713 C709 0.950 . S
H714 C711 0.950 . S
C715 C706 1.390 . S
C715 H708 0.950 . S
C715 C712 1.387 . S
C716 C717 1.387 . S
C716 H720 0.950 . S
C716 C725 1.390 . S
C717 C716 1.387 . S
C717 C719 1.387 . S
H718 C725 0.950 . S
C719 C717 1.387 . S
C719 C721 1.390 . S
C719 H723 0.950 . S
H720 C716 0.950 . S
C721 C719 1.390 . S
C721 C722 1.387 . S
C721 H724 0.950 . S
C722 C721 1.387 . S
C722 C725 1.387 . S
H723 C719 0.950 . S
H724 C721 0.950 . S
C725 C716 1.390 . S
C725 H718 0.950 . S
C725 C722 1.387 . S
C726 C727 1.387 . S
C726 H730 0.950 . S
C726 C735 1.390 . S
C727 C726 1.387 . S
C727 C729 1.387 . S
H728 C735 0.950 . S
C729 C727 1.387 . S
C729 C731 1.390 . S
C729 H733 0.950 . S
H730 C726 0.950 . S
C731 C729 1.390 . S
C731 C732 1.387 . S
C731 H734 0.950 . S
C732 C731 1.387 . S
C732 C735 1.387 . S
H733 C729 0.950 . S
H734 C731 0.950 . S
C735 C726 1.390 . S
C735 H728 0.950 . S
C735 C732 1.387 . S
C736 C737 1.387 . S
C736 H740 0.950 . S
C736 C745 1.390 . S
C737 C736 1.387 . S
C737 C739 1.387 . S
H738 C745 0.950 . S
C739 C737 1.387 . S
C739 C741 1.390 . S
C739 H743 0.950 . S
H740 C736 0.950 . S
C741 C739 1.390 . S
C741 C742 1.387 . S
C741 H744 0.950 . S
C742 C741 1.387 . S
C742 C745 1.387 . S
H743 C739 0.950 . S
H744 C741 0.950 . S
C745 C736 1.390 . S
C745 H738 0.950 . S
C745 C742 1.387 . S
C746 C747 1.387 . S
C746 H750 0.950 . S
C746 C755 1.390 . S
C747 C746 1.387 . S
C747 C749 1.387 . S
H748 C755 0.950 . S
C749 C747 1.387 . S
C749 C751 1.390 . S
C749 H753 0.950 . S
H750 C746 0.950 . S
C751 C749 1.390 . S
C751 C752 1.387 . S
C751 H754 0.950 . S
C752 C751 1.387 . S
C752 C755 1.387 . S
H753 C749 0.950 . S
H754 C751 0.950 . S
C755 C746 1.390 . S
C755 H748 0.950 . S
C755 C752 1.387 . S
C756 C757 1.387 . S
C756 H760 0.950 . S
C756 C765 1.390 . S
C757 C756 1.387 . S
C757 C759 1.387 . S
H758 C765 0.950 . S
C759 C757 1.387 . S
C759 C761 1.390 . S
C759 H763 0.950 . S
H760 C756 0.950 . S
C761 C759 1.390 . S
C761 C762 1.387 . S
C761 H764 0.950 . S
C762 C761 1.387 . S
C762 C765 1.387 . S
H763 C759 0.950 . S
H764 C761 0.950 . S
C765 C756 1.390 . S
C765 H758 0.950 . S
C765 C762 1.387 . S
C766 C767 1.387 . S
C766 H770 0.950 . S
C766 C775 1.390 . S
C767 C766 1.387 . S
C767 C769 1.387 . S
H768 C775 0.950 . S
C769 C767 1.387 . S
C769 C771 1.390 . S
C769 H773 0.950 . S
H770 C766 0.950 . S
C771 C769 1.390 . S
C771 C772 1.387 . S
C771 H774 0.950 . S
C772 C771 1.387 . S
C772 C775 1.387 . S
H773 C769 0.950 . S
H774 C771 0.950 . S
C775 C766 1.390 . S
C775 H768 0.950 . S
C775 C772 1.387 . S
C776 C777 1.387 . S
C776 H780 0.950 . S
C776 C785 1.390 . S
C777 C776 1.387 . S
C777 C779 1.387 . S
H778 C785 0.950 . S
C779 C777 1.387 . S
C779 C781 1.390 . S
C779 H783 0.950 . S
H780 C776 0.950 . S
C781 C779 1.390 . S
C781 C782 1.387 . S
C781 H784 0.950 . S
C782 C781 1.387 . S
C782 C785 1.387 . S
H783 C779 0.950 . S
H784 C781 0.950 . S
C785 C776 1.390 . S
C785 H778 0.950 . S
C785 C782 1.387 . S
C786 C787 1.387 . S
C786 H790 0.950 . S
C786 C795 1.390 . S
C787 C786 1.387 . S
C787 C789 1.387 . S
H788 C795 0.950 . S
C789 C787 1.387 . S
C789 C791 1.390 . S
C789 H793 0.950 . S
H790 C786 0.950 . S
C791 C789 1.390 . S
C791 C792 1.387 . S
C791 H794 0.950 . S
C792 C791 1.387 . S
C792 C795 1.387 . S
H793 C789 0.950 . S
H794 C791 0.950 . S
C795 C786 1.390 . S
C795 H788 0.950 . S
C795 C792 1.387 . S
C796 C797 1.387 . S
C796 H800 0.950 . S
C796 C805 1.390 . S
C797 C796 1.387 . S
C797 C799 1.387 . S
H798 C805 0.950 . S
C799 C797 1.387 . S
C799 C801 1.390 . S
C799 H803 0.950 . S
H800 C796 0.950 . S
C801 C799 1.390 . S
C801 C802 1.387 . S
C801 H804 0.950 . S
C802 C801 1.387 . S
C802 C805 1.387 . S
H803 C799 0.950 . S
H804 C801 0.950 . S
C805 C796 1.390 . S
C805 H798 0.950 . S
C805 C802 1.387 . S
C806 C807 1.387 . S
C806 H810 0.950 . S
C806 C815 1.390 . S
C807 C806 1.387 . S
C807 C809 1.387 . S
H808 C815 0.950 . S
C809 C807 1.387 . S
C809 C811 1.390 . S
C809 H813 0.950 . S
H810 C806 0.950 . S
C811 C809 1.390 . S
C811 C812 1.387 . S
C811 H814 0.950 . S
C812 C811 1.387 . S
C812 C815 1.387 . S
H813 C809 0.950 . S
H814 C811 0.950 . S
C815 C806 1.390 . S
C815 H808 0.950 . S
C815 C812 1.387 . S
C337 C165 1.415 . S
C342 C4 1.424 . S
C347 C18 1.424 . S
C352 C123 1.415 . S
C357 C32 1.421 . S
C362 C137 1.418 . S
C367 C46 1.424 . S
C372 C151 1.415 . S
C377 C193 1.415 . S
C382 C60 1.424 . S
C387 C74 1.424 . S
C392 C207 1.415 . S
C397 C221 1.415 . S
C402 C88 1.424 . S
C407 C179 1.415 . S
C412 C102 1.424 . S
C417 C81 1.415 . S
C422 C116 1.424 . S
C427 C95 1.418 . S
C432 C130 1.421 . S
C437 C144 1.421 . S
C442 C109 1.418 . S
C447 C67 1.418 . S
C452 C158 1.421 . S
C457 C53 1.415 . S
C462 C172 1.424 . S
C467 C186 1.424 . S
C472 C11 1.415 . S
C477 C200 1.421 . S
C482 C25 1.418 . S
C487 C214 1.422 . S
C492 C39 1.418 . S
C497 C228 1.424 . S
C502 C333 1.415 . S
C507 C291 1.418 . S
C512 C242 1.421 . S
C517 C256 1.421 . S
C522 C249 1.418 . S
C527 C270 1.424 . S
C532 C263 1.415 . S
C537 C277 1.418 . S
C542 C284 1.421 . S
C547 C298 1.424 . S
C552 C319 1.415 . S
C557 C235 1.418 . S
C562 C312 1.421 . S
C567 C305 1.415 . S
C572 C326 1.424 . S
C577 C12 1.396 . S
C582 C96 1.396 . S
C587 C26 1.396 . S
C592 C110 1.396 . S
C597 C40 1.396 . S
C602 C68 1.396 . S
C607 C82 1.396 . S
C612 C54 1.396 . S
C617 C152 1.396 . S
C622 C124 1.396 . S
C627 C138 1.396 . S
C632 C166 1.396 . S
C637 C180 1.396 . S
C642 C208 1.396 . S
C647 C222 1.396 . S
C652 C194 1.396 . S
C657 C250 1.396 . S
C662 C236 1.396 . S
C667 C264 1.396 . S
C672 C334 1.396 . S
C677 C278 1.396 . S
C682 C306 1.396 . S
C687 C292 1.396 . S
C692 C320 1.396 . S
C697 C5 1.030 . S
C702 C75 1.027 . S
C707 C19 1.031 . S
C712 C89 1.027 . S
C717 C33 1.028 . S
C722 C103 1.032 . S
C727 C61 1.031 . S
C732 C47 1.027 . S
C737 C117 1.033 . S
C742 C327 1.031 . S
C747 C131 1.033 . S
C752 C299 1.030 . S
C757 C313 1.029 . S
C762 C145 1.026 . S
C767 C159 1.032 . S
C772 C229 1.028 . S
C777 C285 1.033 . S
C782 C173 1.031 . S
C787 C243 1.033 . S
C792 C187 1.031 . S
C797 C201 1.031 . S
C802 C257 1.027 . S
C807 C271 1.032 . S
C812 C215 1.028 . S
