# Generated by pormake.
# Topology why, (6)-cn, num edge types: 1
# Building blocks:
#     Node 0, Type 0, BuildingBlock: BETFAJ_clean_sbu_0, # of connection points: 6
#     Node 1, Type 0, BuildingBlock: BETFAJ_clean_sbu_0, # of connection points: 6
#     Node 2, Type 0, BuildingBlock: BETFAJ_clean_sbu_0, # of connection points: 6
#     Node 3, Type 0, BuildingBlock: BETFAJ_clean_sbu_0, # of connection points: 6
#     Node 4, Type 0, BuildingBlock: BETFAJ_clean_sbu_0, # of connection points: 6
#     Node 5, Type 0, BuildingBlock: BETFAJ_clean_sbu_0, # of connection points: 6
#     Node 6, Type 0, BuildingBlock: BETFAJ_clean_sbu_0, # of connection points: 6
#     Node 7, Type 0, BuildingBlock: BETFAJ_clean_sbu_0, # of connection points: 6
#     Node 8, Type 0, BuildingBlock: BETFAJ_clean_sbu_0, # of connection points: 6
#     Node 9, Type 0, BuildingBlock: BETFAJ_clean_sbu_0, # of connection points: 6
#     Node 10, Type 0, BuildingBlock: BETFAJ_clean_sbu_0, # of connection points: 6
#     Node 11, Type 0, BuildingBlock: BETFAJ_clean_sbu_0, # of connection points: 6
#     Node 12, Type 0, BuildingBlock: BETFAJ_clean_sbu_0, # of connection points: 6
#     Node 13, Type 0, BuildingBlock: BETFAJ_clean_sbu_0, # of connection points: 6
#     Node 14, Type 0, BuildingBlock: BETFAJ_clean_sbu_0, # of connection points: 6
#     Node 15, Type 0, BuildingBlock: BETFAJ_clean_sbu_0, # of connection points: 6
#     Edge 16, Type (0, 0), BuildingBlock: CIFDUS_clean_linker_0, # of connection points: 2
#     Edge 17, Type (0, 0), BuildingBlock: CIFDUS_clean_linker_0, # of connection points: 2
#     Edge 18, Type (0, 0), BuildingBlock: CIFDUS_clean_linker_0, # of connection points: 2
#     Edge 19, Type (0, 0), BuildingBlock: CIFDUS_clean_linker_0, # of connection points: 2
#     Edge 20, Type (0, 0), BuildingBlock: CIFDUS_clean_linker_0, # of connection points: 2
#     Edge 21, Type (0, 0), BuildingBlock: CIFDUS_clean_linker_0, # of connection points: 2
#     Edge 22, Type (0, 0), BuildingBlock: CIFDUS_clean_linker_0, # of connection points: 2
#     Edge 23, Type (0, 0), BuildingBlock: CIFDUS_clean_linker_0, # of connection points: 2
#     Edge 24, Type (0, 0), BuildingBlock: CIFDUS_clean_linker_0, # of connection points: 2
#     Edge 25, Type (0, 0), BuildingBlock: CIFDUS_clean_linker_0, # of connection points: 2
#     Edge 26, Type (0, 0), BuildingBlock: CIFDUS_clean_linker_0, # of connection points: 2
#     Edge 27, Type (0, 0), BuildingBlock: CIFDUS_clean_linker_0, # of connection points: 2
#     Edge 28, Type (0, 0), BuildingBlock: CIFDUS_clean_linker_0, # of connection points: 2
#     Edge 29, Type (0, 0), BuildingBlock: CIFDUS_clean_linker_0, # of connection points: 2
#     Edge 30, Type (0, 0), BuildingBlock: CIFDUS_clean_linker_0, # of connection points: 2
#     Edge 31, Type (0, 0), BuildingBlock: CIFDUS_clean_linker_0, # of connection points: 2
#     Edge 32, Type (0, 0), BuildingBlock: CIFDUS_clean_linker_0, # of connection points: 2
#     Edge 33, Type (0, 0), BuildingBlock: CIFDUS_clean_linker_0, # of connection points: 2
#     Edge 34, Type (0, 0), BuildingBlock: CIFDUS_clean_linker_0, # of connection points: 2
#     Edge 35, Type (0, 0), BuildingBlock: CIFDUS_clean_linker_0, # of connection points: 2
#     Edge 36, Type (0, 0), BuildingBlock: CIFDUS_clean_linker_0, # of connection points: 2
#     Edge 37, Type (0, 0), BuildingBlock: CIFDUS_clean_linker_0, # of connection points: 2
#     Edge 38, Type (0, 0), BuildingBlock: CIFDUS_clean_linker_0, # of connection points: 2
#     Edge 39, Type (0, 0), BuildingBlock: CIFDUS_clean_linker_0, # of connection points: 2
#     Edge 40, Type (0, 0), BuildingBlock: CIFDUS_clean_linker_0, # of connection points: 2
#     Edge 41, Type (0, 0), BuildingBlock: CIFDUS_clean_linker_0, # of connection points: 2
#     Edge 42, Type (0, 0), BuildingBlock: CIFDUS_clean_linker_0, # of connection points: 2
#     Edge 43, Type (0, 0), BuildingBlock: CIFDUS_clean_linker_0, # of connection points: 2
#     Edge 44, Type (0, 0), BuildingBlock: CIFDUS_clean_linker_0, # of connection points: 2
#     Edge 45, Type (0, 0), BuildingBlock: CIFDUS_clean_linker_0, # of connection points: 2
#     Edge 46, Type (0, 0), BuildingBlock: CIFDUS_clean_linker_0, # of connection points: 2
#     Edge 47, Type (0, 0), BuildingBlock: CIFDUS_clean_linker_0, # of connection points: 2
#     Edge 48, Type (0, 0), BuildingBlock: CIFDUS_clean_linker_0, # of connection points: 2
#     Edge 49, Type (0, 0), BuildingBlock: CIFDUS_clean_linker_0, # of connection points: 2
#     Edge 50, Type (0, 0), BuildingBlock: CIFDUS_clean_linker_0, # of connection points: 2
#     Edge 51, Type (0, 0), BuildingBlock: CIFDUS_clean_linker_0, # of connection points: 2
#     Edge 52, Type (0, 0), BuildingBlock: CIFDUS_clean_linker_0, # of connection points: 2
#     Edge 53, Type (0, 0), BuildingBlock: CIFDUS_clean_linker_0, # of connection points: 2
#     Edge 54, Type (0, 0), BuildingBlock: CIFDUS_clean_linker_0, # of connection points: 2
#     Edge 55, Type (0, 0), BuildingBlock: CIFDUS_clean_linker_0, # of connection points: 2
#     Edge 56, Type (0, 0), BuildingBlock: CIFDUS_clean_linker_0, # of connection points: 2
#     Edge 57, Type (0, 0), BuildingBlock: CIFDUS_clean_linker_0, # of connection points: 2
#     Edge 58, Type (0, 0), BuildingBlock: CIFDUS_clean_linker_0, # of connection points: 2
#     Edge 59, Type (0, 0), BuildingBlock: CIFDUS_clean_linker_0, # of connection points: 2
#     Edge 60, Type (0, 0), BuildingBlock: CIFDUS_clean_linker_0, # of connection points: 2
#     Edge 61, Type (0, 0), BuildingBlock: CIFDUS_clean_linker_0, # of connection points: 2
#     Edge 62, Type (0, 0), BuildingBlock: CIFDUS_clean_linker_0, # of connection points: 2
#     Edge 63, Type (0, 0), BuildingBlock: CIFDUS_clean_linker_0, # of connection points: 2
# Relax obj value: 0.472
# Max RMSD: 0.240
# Mean RMSD: 0.240
data_MOF--net-why--node1-BETFAJ_clean_sbu_0--edge1-CIFDUS_clean_linker_0
_symmetry_space_group_name_H-M    P1
_symmetry_Int_Tables_number       1
_symmetry_cell_setting            triclinic
loop_
_symmetry_equiv_pos_as_xyz
'x, y, z'
_cell_length_a     45.403807
_cell_length_b     45.18732
_cell_length_c     35.133181
_cell_angle_alpha  90.122257
_cell_angle_beta   90.045376
_cell_angle_gamma 90.052019
loop_
_atom_site_label
_atom_site_type_symbol
_atom_site_fract_x
_atom_site_fract_y
_atom_site_fract_z
_atom_type_partial_charge
Sm0 Sm 0.47832 0.20995 0.06112 0.0
Sm1 Sm 0.45129 0.23685 0.10477 0.0
C2 C 0.50306 0.179 1.00533 0.0
C3 C 0.51526 0.18573 0.96751 0.0
C4 C 0.53137 0.21182 0.96118 0.0
C5 C 0.54381 0.21734 0.92554 0.0
C6 C 0.54001 0.1971 0.8955 0.0
C7 C 0.52293 0.17159 0.90149 0.0
C8 C 0.51076 0.1659 0.9373 0.0
C9 C 0.473 0.17144 0.1295 0.0
C10 C 0.51897 0.27024 0.0895 0.0
C11 C 0.43756 0.25123 0.17544 0.0
C12 C 0.42402 0.23821 0.20964 0.0
C13 C 0.4415 0.2326 0.24183 0.0
C14 C 0.42836 0.22704 0.27701 0.0
C15 C 0.39754 0.2277 0.28063 0.0
C16 C 0.38028 0.2293 0.24736 0.0
C17 C 0.3934 0.23465 0.21221 0.0
C18 C 0.44752 0.27324 0.04408 0.0
C19 C 0.40527 0.21721 0.03528 0.0
O20 O 0.47466 0.18199 0.00901 0.0
O21 O 0.51757 0.1892 0.03463 0.0
O22 O 0.45263 0.18486 0.11057 0.0
O23 O 0.49696 0.1829 0.11537 0.0
O24 O 0.51785 0.24829 0.06368 0.0
O25 O 0.49523 0.26928 0.11226 0.0
O26 O 0.46341 0.24108 0.16565 0.0
O27 O 0.42052 0.25692 0.14635 0.0
O28 O 0.4707 0.25886 0.05214 0.0
O29 O 0.42652 0.26992 0.06879 0.0
O30 O 0.40545 0.22584 0.07175 0.0
O31 O 0.43234 0.21029 0.02283 0.0
H32 H 0.5347 0.22774 0.98388 0.0
H33 H 0.55666 0.2373 0.92152 0.0
H34 H 0.51985 0.15556 0.87886 0.0
H35 H 0.49818 0.14579 0.94158 0.0
H36 H 0.46525 0.23472 0.24044 0.0
H37 H 0.44226 0.2253 0.30198 0.0
H38 H 0.35646 0.22993 0.24884 0.0
H39 H 0.37933 0.23829 0.18775 0.0
Sm40 Sm 0.7201 0.73086 0.30561 0.0
Sm41 Sm 0.68795 0.70635 0.34951 0.0
C42 C 0.74861 0.76414 0.25576 0.0
C43 C 0.74129 0.77565 0.21789 0.0
C44 C 0.71313 0.78701 0.21011 0.0
C45 C 0.70643 0.79763 0.17388 0.0
C46 C 0.72757 0.79656 0.14479 0.0
C47 C 0.75537 0.78428 0.15224 0.0
C48 C 0.76221 0.77401 0.18865 0.0
C49 C 0.75984 0.71636 0.3694 0.0
C50 C 0.6595 0.77424 0.33525 0.0
C51 C 0.66817 0.68021 0.41159 0.0
C52 C 0.64242 0.6869 0.43499 0.0
C53 C 0.64169 0.67797 0.47301 0.0
C54 C 0.6172 0.68445 0.49543 0.0
C55 C 0.59311 0.70007 0.4801 0.0
C56 C 0.59481 0.71055 0.44258 0.0
C57 C 0.61929 0.70397 0.42018 0.0
C58 C 0.6529 0.71554 0.28697 0.0
C59 C 0.71022 0.65917 0.27912 0.0
O60 O 0.7517 0.73556 0.25776 0.0
O61 O 0.73393 0.77503 0.28451 0.0
O62 O 0.73352 0.72789 0.37099 0.0
O63 O 0.76265 0.70958 0.33374 0.0
O64 O 0.68364 0.77243 0.31282 0.0
O65 O 0.65654 0.75012 0.3568 0.0
O66 O 0.66303 0.67 0.37744 0.0
O67 O 0.68832 0.70071 0.4121 0.0
O68 O 0.67953 0.70767 0.28542 0.0
O69 O 0.64373 0.71821 0.32178 0.0
O70 O 0.70035 0.66045 0.31517 0.0
O71 O 0.7183 0.68583 0.26615 0.0
H72 H 0.69638 0.78789 0.23202 0.0
H73 H 0.68482 0.80693 0.16864 0.0
H74 H 0.77208 0.78354 0.13027 0.0
H75 H 0.7839 0.76494 0.19405 0.0
H76 H 0.6597 0.66534 0.48505 0.0
H77 H 0.61638 0.67552 0.52399 0.0
H78 H 0.57659 0.72254 0.43002 0.0
H79 H 0.61979 0.71158 0.39102 0.0
Sm80 Sm 0.19642 0.96849 0.557 0.0
Sm81 Sm 0.2226 0.93956 0.60546 0.0
C82 C 0.16112 0.99604 0.50852 0.0
C83 C 0.14177 0.9894 0.47609 0.0
C84 C 0.14363 1.0072 0.44359 0.0
C85 C 0.1258 1.00146 0.4121 0.0
C86 C 0.10564 0.97787 0.41267 0.0
C87 C 0.10381 0.95996 0.44526 0.0
C88 C 0.12188 0.96557 0.47671 0.0
C89 C 0.20831 1.00911 0.62195 0.0
C90 C 0.15695 0.90629 0.59005 0.0
C91 C 0.24901 0.92988 0.67115 0.0
C92 C 0.27959 0.93395 0.68389 0.0
C93 C 0.28591 0.95641 0.71038 0.0
C94 C 0.31488 0.96236 0.72107 0.0
C95 C 0.33813 0.94553 0.70605 0.0
C96 C 0.33178 0.92354 0.67872 0.0
C97 C 0.30281 0.91792 0.66758 0.0
C98 C 0.23005 0.90689 0.54114 0.0
C99 C 0.26773 0.96365 0.53303 0.0
O100 O 0.18924 0.99231 0.50264 0.0
O101 O 0.15269 0.98726 0.54221 0.0
O102 O 0.19687 0.98292 0.62158 0.0
O103 O 0.21718 1.01227 0.58705 0.0
O104 O 0.15813 0.9284 0.56403 0.0
O105 O 0.18009 0.90696 0.61378 0.0
O106 O 0.2358 0.95456 0.66262 0.0
O107 O 0.24305 0.90849 0.64715 0.0
O108 O 0.20605 0.91963 0.54981 0.0
O109 O 0.25059 0.91109 0.56636 0.0
O110 O 0.26672 0.95681 0.5704 0.0
O111 O 0.24102 0.96802 0.51835 0.0
H112 H 0.15887 1.02565 0.4426 0.0
H113 H 0.12738 1.01584 0.38755 0.0
H114 H 0.08858 0.94152 0.44628 0.0
H115 H 0.12029 0.95133 0.50139 0.0
H116 H 0.26834 0.96949 0.72277 0.0
H117 H 0.31899 0.97955 0.74194 0.0
H118 H 0.34901 0.90964 0.66714 0.0
H119 H 0.29865 0.90087 0.64653 0.0
Sm120 Sm 0.95766 0.44985 0.81118 0.0
Sm121 Sm 0.98821 0.47314 0.85673 0.0
C122 C 0.92765 0.41516 0.76416 0.0
C123 C 0.93349 0.39463 0.73248 0.0
C124 C 0.954 0.37147 0.73566 0.0
C125 C 0.9594 0.35279 0.70464 0.0
C126 C 0.94467 0.35726 0.66993 0.0
C127 C 0.92419 0.38041 0.66693 0.0
C128 C 0.91859 0.39884 0.69796 0.0
C129 C 0.91681 0.46587 0.87404 0.0
C130 C 1.0195 0.4071 0.83714 0.0
C131 C 1.01408 0.49028 0.92058 0.0
C132 C 1.04492 0.49716 0.92861 0.0
C133 C 1.05352 0.50568 0.96519 0.0
C134 C 1.08304 0.51197 0.97274 0.0
C135 C 0.10436 0.50977 0.94373 0.0
C136 C 0.09566 0.50044 0.90728 0.0
C137 C 1.06614 0.49408 0.89982 0.0
C138 C 1.02044 0.47988 0.792 0.0
C139 C 0.96583 0.52083 0.78653 0.0
O140 O 0.93297 0.44304 0.75735 0.0
O141 O 0.9357 0.40703 0.7983 0.0
O142 O 0.94226 0.45299 0.87622 0.0
O143 O 0.91583 0.47409 0.83864 0.0
O144 O 0.99468 0.40866 0.81582 0.0
O145 O 1.02274 0.43135 0.85842 0.0
O146 O 1.00023 0.50856 0.89812 0.0
O147 O 1.00922 0.46269 0.91192 0.0
O148 O 1.00631 0.45653 0.79991 0.0
O149 O 1.01824 0.49987 0.81823 0.0
O150 O 0.97342 0.51929 0.82369 0.0
O151 O 0.9597 0.49427 0.77204 0.0
H152 H 0.96597 0.36787 0.76192 0.0
H153 H 0.9754 0.33518 0.70757 0.0
H154 H 0.91227 0.38409 0.64064 0.0
H155 H 0.90267 0.41654 0.69495 0.0
H156 H 1.03739 0.50786 0.98773 0.0
H157 H 0.08896 0.51973 1.00091 0.0
H158 H 0.11158 0.49858 0.88446 0.0
H159 H 1.05983 0.48696 0.87151 0.0
Sm160 Sm 0.71942 0.93764 0.90519 0.0
Sm161 Sm 0.6942 0.97121 0.94898 0.0
C162 C 0.74594 0.91682 0.84387 0.0
C163 C 0.74022 0.89044 0.82082 0.0
C164 C 0.74827 0.89021 0.78245 0.0
C165 C 0.74206 0.86558 0.75989 0.0
C166 C 0.72764 0.84075 0.77539 0.0
C167 C 0.71856 0.84159 0.81358 0.0
C168 C 0.72472 0.86633 0.83611 0.0
C169 C 0.70937 0.90422 0.96889 0.0
C170 C 0.76582 0.9615 0.97547 0.0
C171 C 0.65787 1.00066 0.99432 0.0
C172 C 0.63979 0.99336 0.02734 0.0
C173 C 0.63803 0.96414 0.04054 0.0
C174 C 0.62108 0.95748 0.07256 0.0
C175 C 0.60564 0.98 0.09162 0.0
C176 C 0.607 1.00912 0.07757 0.0
C177 C 0.62405 1.01575 0.04574 0.0
C178 C 0.71048 1.01031 0.88606 0.0
C179 C 0.65188 0.90929 0.92023 0.0
O180 O 0.75601 0.91252 0.87824 0.0
O181 O 0.72507 0.93654 0.84262 0.0
O182 O 0.71715 0.93094 0.96936 0.0
O183 O 0.70789 0.89359 0.93458 0.0
O184 O 0.76464 0.95069 0.9398 0.0
O185 O 0.73932 0.97037 0.98817 0.0
O186 O 0.68628 0.99972 0.99952 0.0
O187 O 0.64972 0.98846 0.96236 0.0
O188 O 0.69883 0.98391 0.88388 0.0
O189 O 0.71672 1.0133 0.92185 0.0
O190 O 0.65369 0.93363 0.94255 0.0
O191 O 0.67572 0.90621 0.89835 0.0
H192 H 0.75973 0.90891 0.77009 0.0
H193 H 0.74996 0.8654 0.73081 0.0
H194 H 0.70752 0.82278 0.82627 0.0
H195 H 0.71773 0.86646 0.86556 0.0
H196 H 0.64989 0.94658 0.0262 0.0
H197 H 0.62058 0.9349 0.08284 0.0
H198 H 0.59487 1.02684 0.0912 0.0
H199 H 0.625 1.03835 0.03555 0.0
Sm200 Sm 0.48237 0.47397 0.65108 0.0
Sm201 Sm 0.45395 0.44775 0.69988 0.0
C202 C 0.492 0.50086 0.58572 0.0
C203 C 0.49256 0.53204 0.57389 0.0
C204 C 0.46925 0.54311 0.55177 0.0
C205 C 0.46813 0.57299 0.54209 0.0
C206 C 0.4906 0.59231 0.5538 0.0
C207 C 0.5138 0.58116 0.57629 0.0
C208 C 0.51468 0.55138 0.58642 0.0
C209 C 0.51502 0.482 0.71507 0.0
C210 C 0.45926 0.51925 0.72452 0.0
C211 C 0.42758 0.41238 0.74922 0.0
C212 C 0.43564 0.39511 0.78323 0.0
C213 C 0.45108 0.36822 0.78053 0.0
C214 C 0.45795 0.35221 0.81338 0.0
C215 C 0.44948 0.36282 0.84939 0.0
C216 C 0.43462 0.39001 0.85194 0.0
C217 C 0.42756 0.40581 0.81925 0.0
C218 C 0.41329 0.45931 0.63534 0.0
C219 C 0.51594 0.40832 0.66692 0.0
O220 O 0.46613 0.4917 0.59673 0.0
O221 O 0.51348 0.49089 0.60708 0.0
O222 O 0.5024 0.45786 0.70662 0.0
O223 O 0.51086 0.50253 0.68979 0.0
O224 O 0.46614 0.51833 0.68713 0.0
O225 O 0.4547 0.4924 0.73895 0.0
O226 O 0.42892 0.44108 0.75305 0.0
O227 O 0.43709 0.40325 0.71611 0.0
O228 O 0.43929 0.44768 0.63548 0.0
O229 O 0.41039 0.46853 0.67016 0.0
O230 O 0.49418 0.40969 0.69327 0.0
O231 O 0.51479 0.43118 0.64265 0.0
H232 H 0.45174 0.52862 0.54207 0.0
H233 H 0.44996 0.58081 0.52484 0.0
H234 H 0.53201 0.59513 0.58493 0.0
H235 H 0.53278 0.54355 0.60377 0.0
H236 H 0.4576 0.3594 0.75312 0.0
H237 H 0.46918 0.33119 0.81052 0.0
H238 H 0.42825 0.39906 0.8793 0.0
H239 H 0.41566 0.42646 0.8222 0.0
Sm240 Sm 0.95028 0.24276 0.40634 0.0
Sm241 Sm 0.97559 0.20839 0.45066 0.0
C242 C 0.92445 0.26409 0.345 0.0
C243 C 0.93163 0.2905 0.32291 0.0
C244 C 0.92361 0.29215 0.28459 0.0
C245 C 0.93024 0.31746 0.26362 0.0
C246 C 0.94503 0.34148 0.28076 0.0
C247 C 0.95473 0.33885 0.31854 0.0
C248 C 0.94805 0.31354 0.33946 0.0
C249 C 0.96085 0.27616 0.46997 0.0
C250 C 0.90342 0.2185 0.4758 0.0
C251 C 1.01109 0.1798 0.49803 0.0
C252 C 1.0294 0.18701 0.53148 0.0
C253 C 1.05128 0.20903 0.52976 0.0
C254 C 1.06926 0.21465 0.5612 0.0
C255 C 1.06552 0.19861 0.59504 0.0
C256 C 1.04321 0.1771 0.59705 0.0
C257 C 1.0254 0.17126 0.56545 0.0
C258 C 0.96165 0.17096 0.38463 0.0
C259 C 1.01831 0.26998 0.42095 0.0
O260 O 0.91428 0.26855 0.37929 0.0
O261 O 0.94446 0.24347 0.34372 0.0
O262 O 0.95275 0.24942 0.47065 0.0
O263 O 0.96282 0.2863 0.43554 0.0
O264 O 0.90491 0.22995 0.44055 0.0
O265 O 0.92966 0.20878 0.48838 0.0
O266 O 0.98262 0.18091 0.50255 0.0
O267 O 1.01955 0.19062 0.46544 0.0
O268 O 0.97233 0.19773 0.38509 0.0
O269 O 0.95554 0.16552 0.42 0.0
O270 O 1.01635 0.2458 0.44354 0.0
O271 O 0.99434 0.2734 0.39939 0.0
H272 H 0.9115 0.27425 0.27122 0.0
H273 H 0.92193 0.31898 0.23478 0.0
H274 H 0.96604 0.35701 0.33246 0.0
H275 H 0.95499 0.31236 0.36886 0.0
H276 H 1.05476 0.22174 0.50404 0.0
H277 H 1.08612 0.23155 0.55907 0.0
H278 H 1.04006 0.16425 0.62272 0.0
H279 H 1.0087 0.15418 0.5674 0.0
Sm280 Sm 0.1846 0.70628 0.15421 0.0
Sm281 Sm 0.2154 0.73325 0.19623 0.0
C282 C 0.16809 0.69259 0.08434 0.0
C283 C 0.18069 0.67605 0.05254 0.0
C284 C 0.20572 0.65831 0.05767 0.0
C285 C 0.21433 0.63859 0.02908 0.0
C286 C 0.19785 0.63639 0.99525 0.0
C287 C 0.17488 0.65674 0.98887 0.0
C288 C 0.1663 0.67632 0.01743 0.0
C289 C 0.1516 0.70681 0.21845 0.0
C290 C 0.20554 0.65969 0.22206 0.0
C291 C 0.24784 0.75961 0.24941 0.0
C292 C 0.24209 0.77603 0.28473 0.0
C293 C 0.21486 0.77373 0.30339 0.0
C294 C 0.20929 0.79048 0.33615 0.0
C295 C 0.23085 0.80988 0.35067 0.0
C296 C 0.25804 0.81209 0.33162 0.0
C297 C 0.26359 0.79529 0.299 0.0
C298 C 0.25215 0.72314 0.12762 0.0
C299 C 0.15434 0.77513 0.16916 0.0
O300 O 0.18142 0.71736 0.09295 0.0
O301 O 0.16074 0.67694 0.11416 0.0
O302 O 0.16687 0.7287 0.20752 0.0
O303 O 0.15226 0.68457 0.19488 0.0
O304 O 0.19457 0.66016 0.18669 0.0
O305 O 0.21491 0.68652 0.23372 0.0
O306 O 0.24168 0.7314 0.24961 0.0
O307 O 0.23941 0.77261 0.21819 0.0
O308 O 0.23664 0.70459 0.14731 0.0
O309 O 0.24427 0.74859 0.14168 0.0
O310 O 0.17795 0.77365 0.19246 0.0
O311 O 0.15231 0.75051 0.14795 0.0
H312 H 0.21741 0.65838 0.08457 0.0
H313 H 0.23226 0.6234 0.03465 0.0
H314 H 0.16147 0.65559 0.96339 0.0
H315 H 0.1472 0.69027 0.01297 0.0
H316 H 0.1979 0.75909 0.29252 0.0
H317 H 0.18824 0.78804 0.35026 0.0
H318 H 0.27492 0.8272 0.34155 0.0
H319 H 0.28458 0.79759 0.28465 0.0
Sm320 Sm 0.97739 0.70597 0.55835 0.0
Sm321 Sm 0.95388 0.73801 0.60329 0.0
C322 C 1.01212 0.67514 0.51215 0.0
C323 C 1.02667 0.67771 0.47519 0.0
C324 C 1.02347 0.70313 0.45274 0.0
C325 C 1.0371 0.70469 0.4171 0.0
C326 C 1.05398 0.68078 0.4035 0.0
C327 C 1.05715 0.65549 0.42639 0.0
C328 C 1.04358 0.65399 0.46191 0.0
C329 C 0.96471 0.66707 0.62383 0.0
C330 C 1.02091 0.76636 0.58804 0.0
C331 C 0.91858 0.75029 0.66113 0.0
C332 C 0.88691 0.74556 0.66835 0.0
C333 C 0.87679 0.7192 0.68521 0.0
C334 C 0.84697 0.71557 0.6939 0.0
C335 C 0.82677 0.73829 0.6861 0.0
C336 C 0.83683 0.76399 0.66755 0.0
C337 C 0.86651 0.7676 0.65888 0.0
C338 C 0.96129 0.77373 0.54176 0.0
C339 C 0.90655 0.71562 0.53111 0.0
O340 O 0.98348 0.67359 0.51149 0.0
O341 O 1.02202 0.69208 0.53942 0.0
O342 O 0.97688 0.69324 0.62413 0.0
O343 O 0.95591 0.66431 0.58887 0.0
O344 O 1.01631 0.74523 0.56139 0.0
O345 O 0.99951 0.76619 0.61432 0.0
O346 O 0.93494 0.72668 0.65958 0.0
O347 O 0.92565 0.76962 0.63524 0.0
O348 O 0.95375 0.74681 0.5396 0.0
O349 O 0.96445 0.78289 0.57667 0.0
O350 O 0.90847 0.72683 0.56658 0.0
O351 O 0.93276 0.70619 0.5185 0.0
H352 H 1.01034 0.72161 0.46269 0.0
H353 H 1.0341 0.72437 0.39999 0.0
H354 H 1.07041 0.63694 0.41702 0.0
H355 H 1.04625 0.63424 0.47903 0.0
H356 H 0.89199 0.70169 0.69267 0.0
H357 H 0.83995 0.69557 0.7082 0.0
H358 H 0.82217 0.78237 0.66194 0.0
H359 H 0.87356 0.78814 0.6459 0.0
Sm360 Sm 0.22011 0.23145 0.80839 0.0
Sm361 Sm 0.18926 0.20367 0.8508 0.0
C362 C 0.24835 0.27006 0.76501 0.0
C363 C 0.24158 0.28939 0.73255 0.0
C364 C 0.25741 0.28597 0.69858 0.0
C365 C 0.25127 0.3039 0.66732 0.0
C366 C 0.22937 0.32576 0.66968 0.0
C367 C 0.21361 0.32931 0.70373 0.0
C368 C 0.21955 0.31118 0.73489 0.0
C369 C 0.26007 0.21591 0.87149 0.0
C370 C 0.15954 0.27185 0.84027 0.0
C371 C 0.172 0.17308 0.91091 0.0
C372 C 0.15214 0.18146 0.94188 0.0
C373 C 0.15525 0.16848 0.97771 0.0
C374 C 0.13604 0.17613 0.00708 0.0
C375 C 0.11343 0.19695 1.001 0.0
C376 C 0.11147 0.21109 0.96555 0.0
C377 C 0.13069 0.20341 0.93621 0.0
C378 C 0.15288 0.21426 0.79061 0.0
C379 C 0.21299 0.16086 0.77583 0.0
O380 O 0.24824 0.24166 0.7583 0.0
O381 O 0.23638 0.27688 0.79764 0.0
O382 O 0.23346 0.2266 0.87356 0.0
O383 O 0.26301 0.20991 0.83555 0.0
O384 O 0.18039 0.2697 0.81322 0.0
O385 O 0.16086 0.24888 0.86435 0.0
O386 O 0.16004 0.17013 0.87742 0.0
O387 O 0.19664 0.18777 0.90985 0.0
O388 O 0.17983 0.20759 0.78743 0.0
O389 O 0.14428 0.21549 0.82587 0.0
O390 O 0.20161 0.15974 0.81117 0.0
O391 O 0.22165 0.18828 0.76645 0.0
H392 H 0.27455 0.26939 0.69624 0.0
H393 H 0.26394 0.30098 0.64147 0.0
H394 H 0.19648 0.34589 0.70608 0.0
H395 H 0.20687 0.31425 0.76069 0.0
H396 H 0.17202 0.15188 0.98267 0.0
H397 H 0.13779 0.16437 0.03382 0.0
H398 H 0.09428 0.22715 0.96005 0.0
H399 H 0.12828 0.21404 0.90881 0.0
Sm400 Sm 0.69694 0.4713 0.05394 0.0
Sm401 Sm 0.72046 0.44243 0.10389 0.0
C402 C 0.66303 0.49945 1.00445 0.0
C403 C 0.64399 0.49303 0.97158 0.0
C404 C 0.62146 0.47173 0.97308 0.0
C405 C 0.60401 0.4662 0.94099 0.0
C406 C 0.60895 0.48173 0.9069 0.0
C407 C 0.63187 0.50266 0.90555 0.0
C408 C 0.64905 0.50834 0.9376 0.0
C409 C 0.71035 0.513 0.1169 0.0
C410 C 0.65485 0.41023 0.08497 0.0
C411 C 0.74483 0.43217 0.17081 0.0
C412 C 0.77538 0.43341 0.18465 0.0
C413 C 0.78403 0.4569 0.2085 0.0
C414 C 0.81333 0.45999 0.21973 0.0
C415 C 0.83451 0.43936 0.20782 0.0
C416 C 0.82575 0.41593 0.18375 0.0
C417 C 0.79655 0.41309 0.1721 0.0
C418 C 0.72894 0.40892 0.04073 0.0
C419 C 0.76796 0.46442 0.03184 0.0
O420 O 0.69111 0.49488 0.99925 0.0
O421 O 0.65394 0.49137 0.03817 0.0
O422 O 0.69692 0.48775 0.11813 0.0
O423 O 0.72038 0.51354 0.0823 0.0
O424 O 0.65808 0.43215 0.05905 0.0
O425 O 0.67691 0.41022 0.11037 0.0
O426 O 0.73429 0.45777 0.16068 0.0
O427 O 0.73731 0.41082 0.1475 0.0
O428 O 0.70511 0.42227 0.04819 0.0
O429 O 0.74912 0.41304 0.06649 0.0
O430 O 0.76597 0.45762 0.06929 0.0
O431 O 0.74173 0.46942 0.01626 0.0
H432 H 0.61727 0.45943 0.99895 0.0
H433 H 0.58641 0.45009 0.94306 0.0
H434 H 0.63676 0.51454 0.87957 0.0
H435 H 0.6665 0.52466 0.93577 0.0
H436 H 0.76809 0.47306 0.21826 0.0
H437 H 0.81928 0.47826 0.23821 0.0
H438 H 0.8412 0.39902 0.17491 0.0
H439 H 0.79061 0.39492 0.15346 0.0
Sm440 Sm 0.45493 0.94866 0.31036 0.0
Sm441 Sm 0.48606 0.97408 0.35184 0.0
C442 C 0.4223 0.91466 0.26533 0.0
C443 C 0.42314 0.89489 0.23218 0.0
C444 C 0.40294 0.89988 0.20275 0.0
C445 C 0.4031 0.88214 0.17032 0.0
C446 C 0.42335 0.85881 0.16677 0.0
C447 C 0.44357 0.85372 0.19648 0.0
C448 C 0.44352 0.87169 0.22896 0.0
C449 C 0.41473 0.9663 0.37268 0.0
C450 C 0.51725 0.90729 0.33605 0.0
C451 C 0.50978 0.98802 0.41831 0.0
C452 C 0.53682 0.97927 0.43861 0.0
C453 C 0.53501 0.95916 0.469 0.0
C454 C 0.5599 0.95242 0.49059 0.0
C455 C 0.58697 0.96609 0.4826 0.0
C456 C 0.58919 0.98441 0.45034 0.0
C457 C 0.56435 0.99097 0.42858 0.0
C458 C 0.5175 0.97849 0.28699 0.0
C459 C 0.46204 1.01942 0.28181 0.0
O460 O 0.42783 0.94246 0.25859 0.0
O461 O 0.43339 0.90546 0.29752 0.0
O462 O 0.44052 0.95415 0.37481 0.0
O463 O 0.41307 0.97329 0.337 0.0
O464 O 0.49011 0.90633 0.32003 0.0
O465 O 0.52241 0.9338 0.35141 0.0
O466 O 0.51222 1.00484 0.38835 0.0
O467 O 0.49039 0.9671 0.41381 0.0
O468 O 0.50322 0.95521 0.29577 0.0
O469 O 0.51543 0.99952 0.31208 0.0
O470 O 0.47003 1.01977 0.31881 0.0
O471 O 0.45621 0.99207 0.26961 0.0
H472 H 0.38713 0.91778 0.2047 0.0
H473 H 0.38764 0.88708 0.14772 0.0
H474 H 0.45928 0.83575 0.19473 0.0
H475 H 0.45938 0.86752 0.25137 0.0
H476 H 0.51408 0.9495 0.47705 0.0
H477 H 0.55753 0.93815 0.51514 0.0
H478 H 0.60958 0.99572 0.44364 0.0
H479 H 0.56655 1.00621 0.40499 0.0
Sm480 Sm 0.21871 0.44182 0.40911 0.0
Sm481 Sm 0.19203 0.47403 0.44775 0.0
C482 C 0.25781 0.42137 0.36013 0.0
C483 C 0.27839 0.39662 0.3642 0.0
C484 C 0.30596 0.39777 0.34658 0.0
C485 C 0.32624 0.375 0.35226 0.0
C486 C 0.31924 0.3508 0.37581 0.0
C487 C 0.29173 0.35 0.3939 0.0
C488 C 0.27152 0.37277 0.38822 0.0
C489 C 0.20823 0.40723 0.47161 0.0
C490 C 0.26169 0.46485 0.48344 0.0
C491 C 0.15375 0.50245 0.49157 0.0
C492 C 0.1375 0.49554 0.52692 0.0
C493 C 0.1118 0.47813 0.52612 0.0
C494 C 0.09686 0.47148 0.55979 0.0
C495 C 0.10726 0.48215 0.59492 0.0
C496 C 0.13302 0.49944 0.59566 0.0
C497 C 0.14786 0.5062 0.56203 0.0
C498 C 0.20777 0.51295 0.38399 0.0
C499 C 0.15172 0.41156 0.41866 0.0
O500 O 0.26303 0.44381 0.38252 0.0
O501 O 0.22992 0.41448 0.35856 0.0
O502 O 0.21404 0.43449 0.4734 0.0
O503 O 0.20826 0.39743 0.43703 0.0
O504 O 0.26213 0.45021 0.45029 0.0
O505 O 0.23499 0.47641 0.49054 0.0
O506 O 0.1822 0.50554 0.49467 0.0
O507 O 0.14623 0.48791 0.46094 0.0
O508 O 0.19748 0.48594 0.38206 0.0
O509 O 0.21326 0.5166 0.4199 0.0
O510 O 0.15226 0.4361 0.44051 0.0
O511 O 0.17639 0.40905 0.39814 0.0
H512 H 0.31176 0.41621 0.32839 0.0
H513 H 0.34706 0.37593 0.33729 0.0
H514 H 0.28578 0.33167 0.41218 0.0
H515 H 0.25051 0.37165 0.40259 0.0
H516 H 0.10312 0.46968 0.49951 0.0
H517 H 1.07685 0.45847 0.55821 0.0
H518 H 0.14182 0.50769 0.62231 0.0
H519 H 0.16756 0.51971 0.56357 0.0
Sm520 Sm 0.98097 0.97551 0.15712 0.0
Sm521 Sm 0.95239 0.94785 0.20011 0.0
C522 C 0.98792 1.01545 0.10299 0.0
C523 C 0.99208 1.04776 0.10157 0.0
C524 C 0.96846 1.06606 0.09084 0.0
C525 C 0.97238 0.09657 0.08737 0.0
C526 C 1.00013 0.10932 0.09408 0.0
C527 C 1.02333 0.09105 0.1066 0.0
C528 C 1.01934 1.06063 0.11036 0.0
C529 C 1.01925 0.96845 0.21607 0.0
C530 C 0.95872 1.01834 0.23319 0.0
C531 C 0.92621 0.90863 0.24489 0.0
C532 C 0.93366 0.8906 0.27845 0.0
C533 C 0.95626 0.86936 0.27725 0.0
C534 C 0.96236 0.85204 0.30916 0.0
C535 C 0.94618 0.85584 0.34286 0.0
C536 C 0.92391 0.87737 0.34419 0.0
C537 C 0.91762 0.89449 0.3122 0.0
C538 C 0.9116 0.96125 0.13715 0.0
C539 C 1.01317 0.90928 0.16581 0.0
O540 O 0.96228 1.00669 0.11525 0.0
O541 O 1.00958 0.99916 0.11567 0.0
O542 O 0.99196 0.97307 0.22032 0.0
O543 O 1.02738 0.96838 0.18058 0.0
O544 O 0.97186 1.01896 0.19899 0.0
O545 O 0.94892 0.99117 0.24183 0.0
O546 O 0.9245 0.93713 0.25025 0.0
O547 O 0.93889 0.90173 0.21276 0.0
O548 O 0.93811 0.95037 0.13508 0.0
O549 O 0.90916 0.96849 0.17277 0.0
O550 O 0.99387 0.91171 0.19466 0.0
O551 O 1.00945 0.93119 0.14047 0.0
H552 H 0.9471 1.05668 0.08415 0.0
H553 H 0.95406 0.10999 0.07784 0.0
H554 H 1.04524 0.09984 0.1112 0.0
H555 H 1.03791 1.04717 0.11892 0.0
H556 H 0.96914 0.86597 0.25168 0.0
H557 H 0.97978 0.83571 0.30754 0.0
H558 H 0.91089 0.88048 0.36971 0.0
H559 H 0.90004 0.91065 0.31372 0.0
Sm560 Sm 0.45136 0.7385 0.90762 0.0
Sm561 Sm 0.47584 0.70544 0.95 0.0
C562 C 0.43608 0.76658 0.84483 0.0
C563 C 0.43658 0.79807 0.83589 0.0
C564 C 0.43229 0.80736 0.79848 0.0
C565 C 0.43284 0.83742 0.78989 0.0
C566 C 0.43789 0.85868 0.81865 0.0
C567 C 0.44358 0.84904 0.85591 0.0
C568 C 0.44287 0.81891 0.86448 0.0
C569 C 0.45027 0.76817 0.97541 0.0
C570 C 0.40408 0.71525 0.9756 0.0
C571 C 0.51009 0.67512 0.99711 0.0
C572 C 0.53109 0.68134 0.02812 0.0
C573 C 0.55381 0.70226 0.02413 0.0
C574 C 0.57271 0.70834 0.05465 0.0
C575 C 0.56895 0.69389 0.08972 0.0
C576 C 0.54624 0.67297 0.09351 0.0
C577 C 0.52758 0.66669 0.06296 0.0
C578 C 0.45802 0.66597 0.88686 0.0
C579 C 0.51832 0.76777 0.92267 0.0
O580 O 0.41696 0.75816 0.87035 0.0
O581 O 0.46202 0.75506 0.85006 0.0
O582 O 0.47217 0.75382 0.96333 0.0
O583 O 0.42845 0.76791 0.95166 0.0
O584 O 0.40536 0.72452 0.93929 0.0
O585 O 0.43064 0.70755 0.98895 0.0
O586 O 0.48264 0.68144 1.00434 0.0
O587 O 0.51787 0.68213 0.96249 0.0
O588 O 0.47003 0.69203 0.88487 0.0
O589 O 0.45185 0.6635 0.92275 0.0
O590 O 0.51859 0.74032 0.93846 0.0
O591 O 0.49197 0.77402 0.90827 0.0
H592 H 0.42784 0.79143 0.77609 0.0
H593 H 0.42761 0.84398 0.76104 0.0
H594 H 0.4475 0.86481 0.87862 0.0
H595 H 0.44669 0.8119 0.89353 0.0
H596 H 0.55684 0.71408 0.99763 0.0
H597 H 0.58994 0.7247 0.05106 0.0
H598 H 0.54308 0.66122 0.12005 0.0
H599 H 0.51019 0.6505 0.06663 0.0
Sm600 Sm 0.68529 0.20652 0.65718 0.0
Sm601 Sm 0.71741 0.23049 0.70081 0.0
C602 C 0.6716 0.1691 0.60188 0.0
C603 C 0.66564 0.13732 0.6016 0.0
C604 C 0.67128 0.12099 0.56864 0.0
C605 C 0.66752 1.0904 0.56862 0.0
C606 C 0.65848 1.07547 0.60187 0.0
C607 C 0.65356 0.09202 0.63519 0.0
C608 C 0.65686 0.12273 0.63495 0.0
C609 C 0.65117 0.21251 0.72127 0.0
C610 C 0.70903 0.15907 0.72822 0.0
C611 C 0.74661 0.26758 0.74584 0.0
C612 C 0.74049 0.28443 0.78048 0.0
C613 C 0.71315 0.28201 0.79876 0.0
C614 C 0.7076 0.29815 0.83193 0.0
C615 C 0.72932 0.31701 0.84714 0.0
C616 C 0.75655 0.31952 0.82831 0.0
C617 C 0.76209 0.30328 0.79528 0.0
C618 C 0.75609 0.21722 0.63589 0.0
C619 C 0.65631 0.27291 0.67134 0.0
O620 O 0.69857 0.17605 0.61082 0.0
O621 O 0.65221 0.18598 0.61855 0.0
O622 O 0.67813 0.20594 0.72153 0.0
O623 O 0.64079 0.21489 0.68699 0.0
O624 O 0.69568 0.1613 0.69422 0.0
O625 O 0.71972 0.18523 0.73998 0.0
O626 O 0.74744 0.23891 0.74957 0.0
O627 O 0.7323 0.2759 0.71554 0.0
O628 O 0.72991 0.22928 0.63506 0.0
O629 O 0.75885 0.20882 0.67099 0.0
O630 O 0.67695 0.26824 0.69842 0.0
O631 O 0.65744 0.25189 0.64452 0.0
H632 H 0.67837 0.13195 0.54281 0.0
H633 H 0.67064 1.0787 0.54202 0.0
H634 H 0.64665 1.08134 0.66126 0.0
H635 H 0.65246 0.13505 0.66077 0.0
H636 H 0.69619 0.2676 0.78739 0.0
H637 H 0.68652 0.29556 0.84593 0.0
H638 H 0.77352 0.33426 0.83889 0.0
H639 H 0.78321 0.30551 0.78123 0.0
H640 H 0.55309 0.30762 0.03363 0.0
H641 H 0.5463 0.29456 0.1546 0.0
H642 H 0.58473 0.33196 0.16476 0.0
H643 H 0.62273 0.37081 0.14089 0.0
H644 H 0.62539 0.38782 0.02044 0.0
H645 H 0.58855 0.34892 0.01011 0.0
C646 C 0.55974 0.31242 0.06259 0.0
C647 C 0.54509 0.29572 0.09317 0.0
C648 C 0.5824 0.33608 0.06887 0.0
C649 C 0.55559 0.30504 0.12965 0.0
C650 C 0.57831 0.32721 0.13569 0.0
C651 C 0.61561 0.36649 0.11201 0.0
C652 C 0.6291 0.38432 0.08159 0.0
C653 C 0.59237 0.34337 0.1058 0.0
C654 C 0.61722 0.37629 0.04528 0.0
C655 C 0.59543 0.35322 0.03912 0.0
H656 H 0.59377 0.77846 0.34238 0.0
H657 H 0.66822 0.83612 0.32647 0.0
H658 H 0.63501 0.879 0.32695 0.0
H659 H 0.58323 0.9033 0.33197 0.0
H660 H 0.50837 0.84517 0.34001 0.0
H661 H 0.54173 0.80247 0.3423 0.0
C662 C 0.60336 0.80024 0.33904 0.0
C663 C 0.63563 0.80194 0.33497 0.0
C664 C 0.58298 0.82628 0.33789 0.0
C665 C 0.64491 0.83191 0.33001 0.0
C666 C 0.62525 0.85729 0.33029 0.0
C667 C 0.57359 0.88147 0.33428 0.0
C668 C 0.54121 0.87965 0.33629 0.0
C669 C 0.59391 0.85536 0.33425 0.0
C670 C 0.53179 0.84951 0.33854 0.0
C671 C 0.55154 0.82423 0.3399 0.0
H672 H 0.12178 0.86901 0.5345 0.0
H673 H 0.13024 0.88231 0.65534 0.0
H674 H 0.09208 0.84489 0.66628 0.0
H675 H 1.05391 0.80586 0.64328 0.0
H676 H 1.0492 0.78882 0.52285 0.0
H677 H 1.08583 0.82772 0.51172 0.0
C678 C 0.11553 0.86429 0.56359 0.0
C679 C 0.1306 0.88108 0.59388 0.0
C680 C 0.09297 0.84061 0.57035 0.0
C681 C 0.1206 0.87181 0.63056 0.0
C682 C 0.09804 0.8496 0.63708 0.0
C683 C 1.06056 0.81015 0.61423 0.0
C684 C 1.04663 0.79224 0.58411 0.0
C685 C 1.0836 0.83334 0.6075 0.0
C686 C 1.05782 0.80032 0.54752 0.0
C687 C 1.07946 0.82343 0.54088 0.0
H688 H 1.06677 0.38313 0.88878 0.0
H689 H 1.032 0.36784 0.77642 0.0
H690 H 1.06925 0.32935 0.7661 0.0
H691 H 0.11392 0.29737 0.78746 0.0
H692 H 0.14509 0.309 0.90222 0.0
H693 H 0.10913 0.34886 0.91165 0.0
C694 C 1.06678 0.37164 0.86171 0.0
C695 C 1.04451 0.38059 0.8335 0.0
C696 C 0.08896 0.34753 0.85584 0.0
C697 C 1.04714 0.36333 0.79951 0.0
C698 C 1.06924 0.34059 0.79335 0.0
C699 C 0.11344 0.30844 0.81481 0.0
C700 C 0.13474 0.29852 0.84374 0.0
C701 C 0.09074 0.33202 0.82101 0.0
C702 C 0.13089 0.31451 0.87851 0.0
C703 C 0.10957 0.33806 0.88412 0.0
H704 H 0.64736 0.84315 0.91521 0.0
H705 H 0.59049 0.91865 0.92814 0.0
H706 H 0.54755 0.88558 0.92843 0.0
H707 H 0.52302 0.83374 0.92488 0.0
H708 H 0.58015 0.75789 0.91987 0.0
H709 H 0.62302 0.79102 0.91688 0.0
C710 C 0.62574 0.85298 0.91803 0.0
C711 C 0.62423 0.88547 0.92098 0.0
C712 C 0.59967 0.83272 0.91968 0.0
C713 C 0.59448 0.89513 0.92541 0.0
C714 C 0.56909 0.87557 0.9256 0.0
C715 C 0.54468 0.82384 0.92314 0.0
C716 C 0.54622 0.7913 0.92222 0.0
C717 C 0.57081 0.84402 0.92271 0.0
C718 C 0.57609 0.78149 0.92056 0.0
C719 C 0.60144 0.80109 0.91877 0.0
H720 H 0.55287 0.37359 0.72308 0.0
H721 H 0.54075 0.38147 0.60203 0.0
H722 H 0.5784 0.34344 0.59178 0.0
H723 H 0.6173 0.30555 0.61547 0.0
H724 H 0.63309 0.30142 0.73616 0.0
H725 H 0.59401 0.33793 0.74659 0.0
C726 C 0.55789 0.36725 0.69408 0.0
C727 C 0.54136 0.38212 0.6635 0.0
C728 C 0.5817 0.34477 0.68775 0.0
C729 C 0.55103 0.37199 0.62699 0.0
C730 C 0.57338 0.34951 0.62089 0.0
C731 C 0.6127 0.31229 0.64444 0.0
C732 C 0.63031 0.29854 0.67485 0.0
C733 C 0.58938 0.33526 0.65075 0.0
C734 C 0.62182 0.30987 0.71129 0.0
C735 C 0.59861 0.33145 0.71751 0.0
H736 H 1.02322 0.33558 0.41157 0.0
H737 H 1.07961 0.26073 0.43167 0.0
H738 H 0.12266 0.29371 0.43093 0.0
H739 H 0.14739 0.34542 0.42459 0.0
H740 H 0.09031 0.4208 0.4125 0.0
H741 H 1.04753 0.38757 0.41033 0.0
C742 C 1.04476 0.32587 0.41578 0.0
C743 C 1.04611 0.2936 0.42112 0.0
C744 C 1.07083 0.34611 0.41674 0.0
C745 C 1.07574 0.28409 0.42714 0.0
C746 C 0.1012 0.3036 0.4267 0.0
C747 C 0.12577 0.35516 0.42126 0.0
C748 C 0.12421 0.3876 0.41796 0.0
C749 C 0.09962 0.33497 0.42145 0.0
C750 C 0.09437 0.39727 0.41478 0.0
C751 C 1.06908 0.37762 0.41353 0.0
H752 H 0.11099 0.80308 0.11452 0.0
H753 H 0.13612 0.80873 0.23248 0.0
H754 H 0.0977 0.84593 0.24302 0.0
H755 H 1.05463 0.87938 0.22042 0.0
H756 H 1.03324 0.87793 0.10109 0.0
H757 H 1.07025 0.83916 0.09098 0.0
C758 C 0.10858 0.81214 0.14289 0.0
C759 C 0.12854 0.8009 0.17258 0.0
C760 C 1.08573 0.8356 0.14907 0.0
C761 C 0.12289 0.81514 0.20821 0.0
C762 C 0.1001 0.83713 0.2145 0.0
C763 C 1.05752 0.87084 0.19185 0.0
C764 C 1.03865 0.88329 0.16179 0.0
C765 C 1.08089 0.84799 0.18545 0.0
C766 C 1.04551 0.87043 0.12566 0.0
C767 C 1.06744 0.8475 0.11966 0.0
H768 H 0.27079 0.231 0.95522 0.0
H769 H 0.31716 0.19924 0.85626 0.0
H770 H 0.36251 0.19652 0.89298 0.0
H771 H 0.39257 0.20268 0.95421 0.0
H772 H 0.34725 0.23375 0.05407 0.0
H773 H 0.3013 0.23675 0.01757 0.0
C774 C 0.29055 0.22341 0.94104 0.0
C775 C 0.28829 0.21545 0.90066 0.0
C776 C 0.31844 0.22155 0.96353 0.0
C777 C 0.31599 0.2058 0.88588 0.0
C778 C 0.34289 0.20413 0.9075 0.0
C779 C 0.37287 0.21007 0.96872 0.0
C780 C 0.3755 0.21776 0.00898 0.0
C781 C 0.345 0.21186 0.94662 0.0
C782 C 0.34797 0.22731 0.0244 0.0
C783 C 0.32083 0.22914 1.00286 0.0
H784 H 0.69222 0.52502 0.19853 0.0
H785 H 0.73081 0.56929 0.10216 0.0
H786 H 0.73443 0.61488 0.13904 0.0
H787 H 0.72724 0.64547 0.19969 0.0
H788 H 0.68981 0.60195 0.29716 0.0
H789 H 0.68569 0.55592 0.26037 0.0
C790 C 0.70145 0.54441 0.18497 0.0
C791 C 0.71103 0.54162 0.14535 0.0
C792 C 0.70396 0.57226 0.20756 0.0
C793 C 0.72291 0.5687 0.13122 0.0
C794 C 0.72511 0.59566 0.15291 0.0
C795 C 0.71821 0.62613 0.21359 0.0
C796 C 0.70906 0.62921 0.2532 0.0
C797 C 0.71582 0.59828 0.19138 0.0
C798 C 0.69744 0.60222 0.26798 0.0
C799 C 0.69495 0.57508 0.24629 0.0
H800 H 0.40338 0.9518 0.45604 0.0
H801 H 0.35737 0.98153 0.35584 0.0
H802 H 0.31156 0.98354 0.39174 0.0
H803 H 0.28111 0.97725 0.45246 0.0
H804 H 0.3261 0.9489 0.55382 0.0
H805 H 0.37249 0.94636 0.51809 0.0
C806 C 0.38358 0.95877 0.44141 0.0
C807 C 0.38605 0.96637 0.40098 0.0
C808 C 0.35549 0.96033 0.46344 0.0
C809 C 0.35835 0.9753 0.38555 0.0
C810 C 0.33121 0.97654 0.40669 0.0
C811 C 0.30084 0.97058 0.46747 0.0
C812 C 0.298 0.96349 0.50784 0.0
C813 C 0.32892 0.9692 0.44589 0.0
C814 C 0.32555 0.95488 0.52401 0.0
C815 C 0.35292 0.9533 0.50292 0.0
H816 H 0.98061 0.65637 0.70758 0.0
H817 H 0.9482 0.60974 0.60886 0.0
H818 H 0.94547 0.56429 0.64548 0.0
H819 H 0.95164 0.53419 0.70634 0.0
H820 H 0.98289 0.57931 0.80644 0.0
H821 H 0.98626 0.62559 0.77006 0.0
C822 C 0.97295 0.63651 0.69341 0.0
C823 C 0.96482 0.63877 0.65306 0.0
C824 C 0.97096 0.60851 0.71592 0.0
C825 C 0.95493 0.61096 0.63839 0.0
C826 C 0.95325 0.58398 0.65996 0.0
C827 C 0.95914 0.55393 0.72096 0.0
C828 C 0.96673 0.55116 0.76118 0.0
C829 C 0.96108 0.58189 0.69899 0.0
C830 C 0.97646 0.57871 0.77678 0.0
C831 C 0.97851 0.60602 0.7553 0.0
H832 H 0.7796 0.97778 0.05528 0.0
H833 H 0.82294 0.94224 0.9564 0.0
H834 H 0.86901 0.9384 0.99253 0.0
H835 H 0.90005 0.94453 0.0543 0.0
H836 H 0.85551 0.98058 0.15227 0.0
H837 H 0.81013 0.98427 0.11583 0.0
C838 C 0.79891 0.96924 0.04092 0.0
C839 C 0.79576 0.96057 1.00113 0.0
C840 C 0.82677 0.96689 0.06277 0.0
C841 C 0.82271 0.94951 0.98578 0.0
C842 C 0.84989 0.94717 0.00707 0.0
C843 C 0.88068 0.95327 0.06829 0.0
C844 C 0.88339 0.96213 0.10825 0.0
C845 C 0.85279 0.95569 0.04601 0.0
C846 C 0.85624 0.97326 0.12292 0.0
C847 C 0.82935 0.97551 0.10149 0.0
H848 H 0.47201 0.65511 0.80308 0.0
H849 H 0.44279 0.60829 0.90293 0.0
H850 H 0.44045 0.56251 0.86646 0.0
H851 H 0.44624 0.53229 0.80533 0.0
H852 H 0.47421 0.57796 0.70429 0.0
H853 H 0.47709 0.62438 0.74057 0.0
C854 C 0.46508 0.63515 0.8175 0.0
C855 C 0.45772 0.63739 0.85805 0.0
C856 C 0.46334 0.60705 0.79513 0.0
C857 C 0.44884 0.60946 0.87318 0.0
C858 C 0.44741 0.58234 0.8517 0.0
C859 C 0.45289 0.55218 0.7905 0.0
C860 C 0.45974 0.54953 0.75005 0.0
C861 C 0.4545 0.58026 0.81242 0.0
C862 C 0.46838 0.57727 0.73415 0.0
C863 C 0.47016 0.60466 0.75556 0.0
H864 H 0.76873 0.23636 0.55378 0.0
H865 H 0.81166 0.19618 0.65018 0.0
H866 H 0.85718 0.19259 0.61427 0.0
H867 H 0.88844 0.20021 0.55464 0.0
H868 H 0.8468 0.23966 0.45714 0.0
H869 H 0.80053 0.24356 0.49277 0.0
C870 C 0.78775 0.22672 0.56757 0.0
C871 C 0.78443 0.21669 0.60699 0.0
C872 C 0.81581 0.2243 0.54553 0.0
C873 C 0.81127 0.20445 0.62129 0.0
C874 C 0.83829 0.20225 0.60015 0.0
C875 C 0.86948 0.20963 0.54044 0.0
C876 C 0.87324 0.21937 0.50117 0.0
C877 C 0.84144 0.21198 0.562 0.0
C878 C 0.84663 0.23152 0.48609 0.0
C879 C 0.8193 0.23389 0.50712 0.0
H880 H 0.18975 0.52468 0.3013 0.0
H881 H 0.22799 0.5692 0.39809 0.0
H882 H 0.23114 0.6148 0.3618 0.0
H883 H 0.22349 0.64572 0.30165 0.0
H884 H 0.18566 0.60237 0.20401 0.0
H885 H 0.18245 0.55607 0.23997 0.0
C886 C 0.19894 0.54405 0.31506 0.0
C887 C 0.20858 0.54117 0.35471 0.0
C888 C 0.20097 0.57216 0.29286 0.0
C889 C 0.2201 0.56847 0.36902 0.0
C890 C 0.22201 0.59554 0.34766 0.0
C891 C 0.21456 0.62638 0.28751 0.0
C892 C 0.20505 0.62969 0.24805 0.0
C893 C 0.2126 0.59828 0.3093 0.0
C894 C 0.19357 0.60258 0.23308 0.0
C895 C 0.19161 0.57522 0.2543 0.0
H896 H 0.77198 0.73386 0.45233 0.0
H897 H 0.81576 0.6961 0.35485 0.0
H898 H 0.86115 0.69218 0.39118 0.0
H899 H 0.89202 0.69883 0.4515 0.0
H900 H 0.8496 0.73609 0.54999 0.0
H901 H 0.80344 0.74024 0.51398 0.0
C902 C 0.79117 0.72469 0.43839 0.0
C903 C 0.78813 0.71543 0.39852 0.0
C904 C 0.81915 0.72212 0.46066 0.0
C905 C 0.81516 0.70377 0.38405 0.0
C906 C 0.8421 0.70138 0.40545 0.0
C907 C 0.87291 0.70784 0.46583 0.0
C908 C 0.87642 0.71688 0.50551 0.0
C909 C 0.84497 0.71037 0.44403 0.0
C910 C 0.84963 0.72852 0.52073 0.0
C911 C 0.82238 0.73102 0.49948 0.0
H912 H 0.19299 0.09725 0.77576 0.0
H913 H 0.23524 0.16036 0.70195 0.0
H914 H 0.23771 0.12306 0.65169 0.0
H915 H 0.22826 1.07113 0.62481 0.0
H916 H 0.18614 1.00733 0.69744 0.0
H917 H 0.18371 1.04452 0.74855 0.0
C918 C 0.20299 0.10332 0.74893 0.0
C919 C 0.21411 0.13364 0.74504 0.0
C920 C 0.20445 1.08059 0.71817 0.0
C921 C 0.22643 0.13865 0.70826 0.0
C922 C 0.22786 0.11668 0.67851 0.0
C923 C 0.21843 1.06481 0.65166 0.0
C924 C 0.20736 1.03455 0.65504 0.0
C925 C 0.21701 1.08728 0.68246 0.0
C926 C 0.19501 1.02911 0.69169 0.0
C927 C 0.1936 1.05102 0.72181 0.0
H928 H 0.78263 0.47858 0.95195 0.0
H929 H 0.82588 0.44795 0.05346 0.0
H930 H 0.87259 0.4448 0.01841 0.0
H931 H 0.90425 0.45037 0.95691 0.0
H932 H 0.8599 0.48248 0.85669 0.0
H933 H 0.81379 0.48499 0.8919 0.0
C934 C 0.80204 0.47126 0.96715 0.0
C935 C 0.7986 0.46374 0.00733 0.0
C936 C 0.8303 0.46953 0.94599 0.0
C937 C 0.82579 0.4543 0.02376 0.0
C938 C 0.85334 0.45237 1.00307 0.0
C939 C 0.88476 0.45796 0.94212 0.0
C940 C 0.88781 0.46607 0.90188 0.0
C941 C 0.85649 0.45984 0.96376 0.0
C942 C 0.86045 0.47581 0.88626 0.0
C943 C 0.83314 0.47734 0.907 0.0
H944 H 0.4967 1.07529 0.27197 0.0
H945 H 0.42304 1.02966 0.2217 0.0
H946 H 0.41793 1.06929 0.17469 0.0
H947 H 0.43417 0.11859 0.14382 0.0
H948 H 0.51074 0.16163 0.1905 0.0
H949 H 0.51408 0.12348 0.23966 0.0
C950 C 0.47909 1.07372 0.25126 0.0
C951 C 0.45983 1.04778 0.2531 0.0
C952 C 0.47659 0.09732 0.22191 0.0
C953 C 0.43831 1.04803 0.22346 0.0
C954 C 0.43532 1.07136 0.19564 0.0
C955 C 0.45163 0.12026 0.16471 0.0
C956 C 0.47195 0.14531 0.16164 0.0
C957 C 0.45424 0.09651 0.1939 0.0
C958 C 0.49427 0.1443 0.19023 0.0
C959 C 0.4963 0.12177 0.21921 0.0
H960 H 0.32356 0.44202 0.48423 0.0
H961 H 0.2633 0.48983 0.55627 0.0
H962 H 0.30097 0.49244 0.60597 0.0
H963 H 0.35249 0.48164 0.63254 0.0
H964 H 0.41348 0.43444 0.56111 0.0
H965 H 0.37582 0.43161 0.5109 0.0
C966 C 0.3182 0.45324 0.51058 0.0
C967 C 0.28863 0.46586 0.51425 0.0
C968 C 0.34115 0.45489 0.54079 0.0
C969 C 0.28445 0.47981 0.55028 0.0
C970 C 0.30662 0.48133 0.57963 0.0
C971 C 0.35807 0.47061 0.60614 0.0
C972 C 0.38768 0.45822 0.60276 0.0
C973 C 0.33535 0.46903 0.57585 0.0
C974 C 0.39224 0.44438 0.56675 0.0
C975 C 0.37005 0.44272 0.53719 0.0
H976 H 0.94314 0.10906 0.38261 0.0
H977 H 0.98334 0.17304 0.30843 0.0
H978 H 0.98627 0.13528 0.25794 0.0
H979 H 0.97789 1.08197 0.23194 0.0
H980 H 0.93693 1.01907 0.30727 0.0
H981 H 0.93427 1.05688 0.3569 0.0
C982 C 0.95263 0.11531 0.35552 0.0
C983 C 0.96299 0.14574 0.35145 0.0
C984 C 0.95424 0.09258 0.32518 0.0
C985 C 0.97495 0.15114 0.3146 0.0
C986 C 0.97668 0.12889 0.28491 0.0
C987 C 0.96818 1.07607 0.25901 0.0
C988 C 0.95752 1.04566 0.26364 0.0
C989 C 0.96646 0.09913 0.28926 0.0
C990 C 0.94541 1.04083 0.30053 0.0
C991 C 0.94386 1.06309 0.32986 0.0
H992 H 0.28052 0.75703 0.06586 0.0
H993 H 0.29244 0.67519 0.12628 0.0
H994 H 0.33765 0.6658 0.08975 0.0
H995 H 0.37683 0.68022 0.03916 0.0
H996 H 0.36099 0.75922 0.97397 0.0
H997 H 0.31703 0.76927 0.01214 0.0
C998 C 0.29261 0.73687 0.07147 0.0
C999 C 0.28108 0.71717 0.10094 0.0
C1000 C 0.31938 0.73075 0.04845 0.0
C1001 C 0.29886 0.69138 0.10518 0.0
C1002 C 0.32555 0.68588 0.0837 0.0
C1003 C 0.36402 0.69977 0.03268 0.0
C1004 C 0.37447 0.71885 1.00178 0.0
C1005 C 0.33661 0.70527 0.05495 0.0
C1006 C 0.35541 0.74352 0.99606 0.0
C1007 C 0.3295 0.74949 0.0186 0.0
H1008 H 0.72889 0.14332 0.80616 0.0
H1009 H 0.68664 0.10287 0.70955 0.0
H1010 H 0.68268 1.05619 0.74456 0.0
H1011 H 0.69056 1.02375 0.8048 0.0
H1012 H 0.73335 1.0654 0.90052 0.0
H1013 H 0.73718 0.11135 0.8651 0.0
C1014 C 0.71883 0.12452 0.79207 0.0
C1015 C 0.70823 0.12872 0.75328 0.0
C1016 C 0.71645 0.09625 0.81327 0.0
C1017 C 0.69533 0.10234 0.73821 0.0
C1018 C 0.69297 1.07478 0.75885 0.0
C1019 C 0.70088 1.04257 0.81848 0.0
C1020 C 0.71158 1.03883 0.8575 0.0
C1021 C 0.70334 1.07085 0.79683 0.0
C1022 C 0.72457 1.06541 0.87187 0.0
C1023 C 0.7269 0.09265 0.85103 0.0
H1024 H 0.59761 0.20912 0.8861 0.0
H1025 H 0.51742 0.19423 0.82323 0.0
H1026 H 0.54431 0.19941 0.76303 0.0
H1027 H 0.59141 0.20651 0.72843 0.0
H1028 H 0.67157 0.21793 0.79288 0.0
H1029 H 0.64397 0.21622 0.8522 0.0
C1030 C 0.58598 0.20739 0.85919 0.0
C1031 C 0.55563 0.20153 0.85896 0.0
C1032 C 0.60163 0.20975 0.82498 0.0
C1033 C 0.54086 0.19871 0.82397 0.0
C1034 C 0.55621 0.2017 0.78963 0.0
C1035 C 0.60268 0.20879 0.75551 0.0
C1036 C 0.63342 0.2124 0.75636 0.0
C1037 C 0.5867 0.20696 0.78977 0.0
C1038 C 0.64789 0.21512 0.79155 0.0
C1039 C 0.63215 0.21411 0.82551 0.0
H1040 H 0.70927 0.85221 0.13394 0.0
H1041 H 0.73356 0.77289 0.07347 0.0
H1042 H 0.7272 0.79853 0.01246 0.0
H1043 H 0.71779 0.84483 0.97685 0.0
H1044 H 0.6984 0.92479 0.03923 0.0
H1045 H 0.69918 0.8976 0.09899 0.0
C1046 C 0.71269 0.84047 0.10733 0.0
C1047 C 0.72164 0.81082 0.10788 0.0
C1048 C 0.70989 0.85552 0.07281 0.0
C1049 C 0.72665 0.79583 0.07344 0.0
C1050 C 0.72302 0.81046 0.0387 0.0
C1051 C 0.71343 0.85607 1.00357 0.0
C1052 C 0.70792 0.88662 1.00386 0.0
C1053 C 0.7151 0.84048 0.03807 0.0
C1054 C 0.7026 0.9012 0.03849 0.0
C1055 C 0.70314 0.88572 0.07264 0.0
H1056 H 1.0052 0.96448 0.29029 0.0
H1057 H 1.07932 0.97195 0.21415 0.0
H1058 H 0.11294 0.97427 0.26865 0.0
H1059 H 0.12081 0.97619 0.33798 0.0
H1060 H 1.04645 0.96826 0.41367 0.0
H1061 H 1.01326 0.96367 0.35917 0.0
C1062 C 1.02873 0.96658 0.28564 0.0
C1063 C 1.03983 0.96846 0.24842 0.0
C1064 C 1.04779 0.96773 0.31696 0.0
C1065 C 1.07033 0.9707 0.24265 0.0
C1066 C 0.0895 0.97203 0.27375 0.0
C1067 C 0.09733 0.97342 0.34244 0.0
C1068 C 1.08601 0.97274 0.37968 0.0
C1069 C 1.07842 0.97091 0.31102 0.0
C1070 C 1.05565 0.96865 0.38523 0.0
C1071 C 1.03668 0.96622 0.35413 0.0
H1072 H 0.95616 0.25886 0.5434 0.0
H1073 H 0.96644 0.3361 0.47261 0.0
H1074 H 0.9636 0.36803 0.52873 0.0
H1075 H 0.95582 0.37404 0.59747 0.0
H1076 H 0.94602 0.29692 0.66844 0.0
H1077 H 0.95143 0.26476 0.61272 0.0
C1078 C 0.95788 0.28268 0.54034 0.0
C1079 C 0.96107 0.2952 0.504 0.0
C1080 C 0.95633 0.30085 0.57269 0.0
C1081 C 0.9637 0.32602 0.50034 0.0
C1082 C 0.96207 0.34427 0.53237 0.0
C1083 C 0.95491 0.35018 0.60065 0.0
C1084 C 0.95027 0.3378 0.63681 0.0
C1085 C 0.95797 0.33194 0.56858 0.0
C1086 C 0.94967 0.30689 0.64083 0.0
C1087 C 0.9526 0.28854 0.609 0.0
H1088 H 0.60462 1.01257 0.15596 0.0
H1089 H 0.56919 0.93282 0.10609 0.0
H1090 H 0.53995 0.92397 0.16353 0.0
H1091 H 0.52253 0.94068 0.22678 0.0
H1092 H 0.5569 1.02204 0.27386 0.0
H1093 H 0.58822 1.02865 0.21843 0.0
C1094 C 0.59031 0.99337 0.15748 0.0
C1095 C 0.58878 0.9736 0.12671 0.0
C1096 C 0.57332 0.98876 0.19006 0.0
C1097 C 0.57079 0.94835 0.12952 0.0
C1098 C 0.55397 0.94337 0.16224 0.0
C1099 C 0.53709 0.95967 0.2249 0.0
C1100 C 0.53746 0.98082 0.25425 0.0
C1101 C 0.55481 0.96364 0.19254 0.0
C1102 C 0.55623 1.00546 0.25156 0.0
C1103 C 0.57414 1.0093 0.21989 0.0
H1104 H 0.41142 0.35414 0.90723 0.0
H1105 H 0.49892 0.33143 0.86937 0.0
H1106 H 0.50659 0.30217 0.92716 0.0
H1107 H 0.48795 0.28289 0.98835 0.0
H1108 H 0.40043 0.30676 0.0253 0.0
H1109 H 0.39355 0.33648 0.96826 0.0
C1110 C 0.43238 0.34321 0.91183 0.0
C1111 C 0.45463 0.34513 0.88421 0.0
C1112 C 0.43669 0.32683 0.94505 0.0
C1113 C 0.48136 0.33012 0.89013 0.0
C1114 C 0.48581 0.31356 0.92324 0.0
C1115 C 0.46753 0.29488 0.984 0.0
C1116 C 0.44479 0.29285 0.01099 0.0
C1117 C 0.46359 0.31177 0.9509 0.0
C1118 C 0.41832 0.30818 1.005 0.0
C1119 C 0.41431 0.32507 0.97234 0.0
H1120 H 0.16718 0.21144 0.71615 0.0
H1121 H 0.09284 0.21663 0.79227 0.0
H1122 H 1.05903 0.21289 0.73819 0.0
H1123 H 1.05076 0.20623 0.66936 0.0
H1124 H 0.12532 0.20177 0.59356 0.0
H1125 H 0.15895 0.20737 0.64742 0.0
C1126 C 0.14356 0.21186 0.72086 0.0
C1127 C 0.13245 0.21395 0.75805 0.0
C1128 C 0.12435 0.2098 0.68972 0.0
C1129 C 0.10186 0.21483 0.76383 0.0
C1130 C 1.08255 0.21266 0.73296 0.0
C1131 C 1.07438 0.20649 0.66475 0.0
C1132 C 1.0856 0.20347 0.62767 0.0
C1133 C 0.09356 0.20977 0.69583 0.0
C1134 C 0.1162 0.20426 0.62187 0.0
C1135 C 0.13543 0.20731 0.65263 0.0
H1136 H 0.18974 0.89287 0.48628 0.0
H1137 H 0.27926 0.87657 0.52194 0.0
H1138 H 0.287 0.84452 0.46702 0.0
H1139 H 0.26879 0.8215 0.40864 0.0
H1140 H 0.18 0.83875 0.37088 0.0
H1141 H 0.17137 0.86949 0.42713 0.0
C1142 C 0.21087 0.88217 0.48202 0.0
C1143 C 0.23385 0.88696 0.50818 0.0
C1144 C 0.21529 0.86384 0.4501 0.0
C1145 C 0.26116 0.87311 0.5023 0.0
C1146 C 0.26565 0.8548 0.47087 0.0
C1147 C 0.24761 0.83218 0.41247 0.0
C1148 C 0.22516 0.82789 0.38541 0.0
C1149 C 0.24295 0.85012 0.44451 0.0
C1150 C 0.19762 0.8414 0.3914 0.0
C1151 C 0.19272 0.85916 0.42345 0.0
H1152 H 1.08402 0.72707 0.37277 0.0
H1153 H 1.0568 0.63725 0.34975 0.0
H1154 H 1.08387 0.63776 0.28979 0.0
H1155 H 0.11692 0.66292 0.24525 0.0
H1156 H 0.14397 0.75283 0.2677 0.0
H1157 H 0.11504 0.75324 0.32634 0.0
C1158 C 1.08365 0.70778 0.35434 0.0
C1159 C 1.06862 0.68209 0.36583 0.0
C1160 C 0.09928 0.70821 0.31989 0.0
C1161 C 1.06862 0.65714 0.34184 0.0
C1162 C 1.08397 0.65744 0.30749 0.0
C1163 C 0.11623 0.68269 0.26281 0.0
C1164 C 0.13254 0.70776 0.25231 0.0
C1165 C 0.09967 0.68271 0.29647 0.0
C1166 C 0.1316 0.73321 0.27531 0.0
C1167 C 0.11509 0.73346 0.30883 0.0
H1168 H 0.2207 0.30873 0.59668 0.0
H1169 H 0.22438 0.38578 0.66921 0.0
H1170 H 0.21675 0.4179 0.61414 0.0
H1171 H 0.21132 0.42401 0.54521 0.0
H1172 H 0.20747 0.34698 0.47254 0.0
H1173 H 0.21284 0.31476 0.52795 0.0
C1174 C 0.21985 0.33256 0.6003 0.0
C1175 C 0.22328 0.34498 0.63671 0.0
C1176 C 0.21548 0.35079 0.56862 0.0
C1177 C 0.22165 0.37581 0.64136 0.0
C1178 C 0.21742 0.39414 0.60994 0.0
C1179 C 0.21151 0.40015 0.54158 0.0
C1180 C 0.20932 0.38779 0.505 0.0
C1181 C 0.21462 0.38187 0.57343 0.0
C1182 C 0.20931 0.35692 0.50053 0.0
C1183 C 0.21242 0.33853 0.53213 0.0
H1184 H 0.53318 0.44016 0.76529 0.0
H1185 H 0.53636 0.53388 0.7422 0.0
H1186 H 0.56477 0.54209 0.80026 0.0
H1187 H 0.58838 0.52283 0.85742 0.0
H1188 H 0.58744 0.42893 0.87978 0.0
H1189 H 0.55782 0.42066 0.82258 0.0
C1190 C 0.54023 0.46233 0.77298 0.0
C1191 C 0.53296 0.48637 0.74949 0.0
C1192 C 0.55668 0.46688 0.80634 0.0
C1193 C 0.54203 0.51501 0.7597 0.0
C1194 C 0.55813 0.51973 0.79295 0.0
C1195 C 0.58204 0.50048 0.84961 0.0
C1196 C 0.59029 0.47654 0.87279 0.0
C1197 C 0.56562 0.49584 0.81639 0.0
C1198 C 0.58117 0.44781 0.86269 0.0
C1199 C 0.56442 0.44304 0.82982 0.0
H1200 H 0.40309 0.7883 0.01382 0.0
H1201 H 0.49798 0.78534 0.0169 0.0
H1202 H 0.49809 0.81277 0.07706 0.0
H1203 H 0.47108 0.83823 0.12802 0.0
H1204 H 0.37597 0.83819 0.12667 0.0
H1205 H 0.37606 0.81126 0.06647 0.0
C1206 C 0.42375 0.79381 0.02765 0.0
C1207 C 0.45046 0.78521 0.01101 0.0
C1208 C 0.4236 0.80894 0.06248 0.0
C1209 C 0.47715 0.79196 0.02929 0.0
C1210 C 0.47721 0.80756 0.06363 0.0
C1211 C 0.45037 0.83195 0.11489 0.0
C1212 C 0.42358 0.84047 0.1317 0.0
C1213 C 0.45055 0.81614 0.08049 0.0
C1214 C 0.39693 0.83243 0.11399 0.0
C1215 C 0.39693 0.81693 0.07964 0.0
H1216 H 0.09634 0.52062 0.65235 0.0
H1217 H 1.08094 0.43034 0.61733 0.0
H1218 H 1.0529 0.42129 0.67562 0.0
H1219 H 1.03235 0.43943 0.73646 0.0
H1220 H 1.04903 0.52966 0.77093 0.0
H1221 H 1.07749 0.53813 0.71324 0.0
C1222 C 1.08726 0.49881 0.65767 0.0
C1223 C 0.0908 0.4762 0.63058 0.0
C1224 C 1.07145 0.49373 0.69122 0.0
C1225 C 1.07827 0.44825 0.63757 0.0
C1226 C 1.06237 0.443 0.67097 0.0
C1227 C 1.04241 0.46084 0.73134 0.0
C1228 C 1.03876 0.48384 0.75788 0.0
C1229 C 1.05874 0.46563 0.69796 0.0
C1230 C 1.05174 0.51154 0.75099 0.0
C1231 C 1.06792 0.51646 0.71797 0.0
H1232 H 0.95285 0.87285 0.41649 0.0
H1233 H 0.9517 0.79591 0.34362 0.0
H1234 H 0.95741 0.76372 0.39894 0.0
H1235 H 0.96014 0.75742 0.46805 0.0
H1236 H 0.96211 0.83414 0.54128 0.0
H1237 H 0.95861 0.86659 0.48573 0.0
C1238 C 0.95388 0.84903 0.41284 0.0
C1239 C 0.95168 0.83669 0.37619 0.0
C1240 C 0.95714 0.83071 0.44473 0.0
C1241 C 0.95352 0.80586 0.3716 0.0
C1242 C 0.95661 0.78747 0.40318 0.0
C1243 C 0.95986 0.78126 0.4718 0.0
C1244 C 0.96095 0.79346 0.50855 0.0
C1245 C 0.95804 0.79965 0.43987 0.0
C1246 C 0.96107 0.82432 0.51316 0.0
C1247 C 0.95905 0.84283 0.48146 0.0
H1248 H 0.55319 0.70488 0.16287 0.0
H1249 H 0.62895 0.69732 0.08953 0.0
H1250 H 0.6617 0.70468 0.14408 0.0
H1251 H 0.66871 0.71065 0.21304 0.0
H1252 H 0.59294 0.71872 0.28636 0.0
H1253 H 0.56019 0.71376 0.23137 0.0
C1254 C 0.57688 0.70483 0.1589 0.0
C1255 C 0.58868 0.7003 0.12235 0.0
C1256 C 0.59551 0.70904 0.19035 0.0
C1257 C 0.61938 0.70086 0.1174 0.0
C1258 C 0.63809 0.70492 0.14857 0.0
C1259 C 0.64502 0.71141 0.21692 0.0
C1260 C 0.63318 0.71462 0.25365 0.0
C1261 C 0.62639 0.70863 0.18522 0.0
C1262 C 0.60251 0.71602 0.25833 0.0
C1263 C 0.58381 0.71316 0.22694 0.0
H1264 H 0.68902 0.39667 0.98551 0.0
H1265 H 0.77784 0.3777 0.02182 0.0
H1266 H 0.78537 0.3467 0.96567 0.0
H1267 H 0.76711 0.32584 0.90588 0.0
H1268 H 0.67901 0.34622 0.86793 0.0
H1269 H 0.67059 0.37541 0.92554 0.0
C1270 C 0.70995 0.3856 0.98116 0.0
C1271 C 0.73283 0.38931 0.00769 0.0
C1272 C 0.71422 0.36805 0.94866 0.0
C1273 C 0.75988 0.37501 1.0018 0.0
C1274 C 0.76422 0.35736 0.9697 0.0
C1275 C 0.74614 0.33687 0.91004 0.0
C1276 C 0.72379 0.334 0.88256 0.0
C1277 C 0.74162 0.35391 0.94284 0.0
C1278 C 0.6965 0.34787 0.8888 0.0
C1279 C 0.69173 0.3647 0.9216 0.0
H1280 H 0.41895 0.26642 0.33238 0.0
H1281 H 0.34464 0.20915 0.31098 0.0
H1282 H 0.31327 0.2415 0.34917 0.0
H1283 H 0.30483 0.29277 0.36978 0.0
H1284 H 0.37887 0.35142 0.38582 0.0
H1285 H 0.41267 0.31158 0.36884 0.0
C1286 C 0.39627 0.26004 0.33752 0.0
C1287 C 0.38379 0.23616 0.31738 0.0
C1288 C 0.37811 0.27964 0.35747 0.0
C1289 C 0.35451 0.22803 0.32517 0.0
C1290 C 0.33649 0.24672 0.34664 0.0
C1291 C 0.32841 0.2965 0.37108 0.0
C1292 C 0.3394 0.32517 0.37773 0.0
C1293 C 0.3476 0.2738 0.36 0.0
C1294 C 0.36997 0.32969 0.37958 0.0
C1295 C 0.38926 0.30692 0.36995 0.0
H1296 H 0.54091 0.68501 0.44952 0.0
H1297 H 0.58127 0.71113 0.55553 0.0
H1298 H 0.54276 0.68527 0.59085 0.0
H1299 H 0.50961 0.6424 0.58965 0.0
H1300 H 0.47648 0.61054 0.48184 0.0
H1301 H 0.49851 0.65236 0.44957 0.0
C1302 C 0.54049 0.68639 0.48035 0.0
C1303 C 0.56447 0.69879 0.50001 0.0
C1304 C 0.51966 0.6697 0.50021 0.0
C1305 C 0.56339 0.70085 0.5399 0.0
C1306 C 0.54153 0.68584 0.56004 0.0
C1307 C 0.50659 0.64511 0.55922 0.0
C1308 C 0.49275 0.62263 0.538 0.0
C1309 C 0.52139 0.66793 0.54032 0.0
C1310 C 0.48756 0.62711 0.49895 0.0
C1311 C 0.50051 0.65094 0.48026 0.0
H1312 H 0.35089 0.95221 0.78082 0.0
H1313 H 0.39222 0.94097 0.67118 0.0
H1314 H 0.43589 0.92046 0.70186 0.0
H1315 H 0.45297 0.89097 0.75617 0.0
H1316 H 0.407 0.89716 0.86332 0.0
H1317 H 0.37599 0.93611 0.83812 0.0
C1318 C 0.36993 0.94672 0.7636 0.0
C1319 C 0.36778 0.94663 0.72368 0.0
C1320 C 0.39422 0.93363 0.78125 0.0
C1321 C 0.39294 0.93998 0.70197 0.0
C1322 C 0.41789 0.9282 0.7195 0.0
C1323 C 0.43686 0.9017 0.77434 0.0
C1324 C 0.43117 0.89013 0.81072 0.0
C1325 C 0.41746 0.92242 0.75868 0.0
C1326 C 0.41138 0.90506 0.83479 0.0
C1327 C 0.39324 0.92713 0.82019 0.0
H1328 H 0.20142 0.58053 0.02176 0.0
H1329 H 0.19396 0.63011 0.91745 0.0
H1330 H 0.16891 0.5884 0.88721 0.0
H1331 H 0.1359 0.54629 0.89833 0.0
H1332 H 0.14001 0.49928 1.00493 0.0
H1333 H 0.18005 0.53133 0.02628 0.0
C1334 C 0.19576 0.58176 0.9918 0.0
C1335 C 0.19831 0.60881 0.97233 0.0
C1336 C 0.17984 0.55844 0.97548 0.0
C1337 C 0.19134 0.60977 0.93335 0.0
C1338 C 0.17671 0.58604 0.91621 0.0
C1339 C 0.14643 0.5422 0.92553 0.0
C1340 C 0.13443 0.52121 0.95063 0.0
C1341 C 0.16861 0.56145 0.93816 0.0
C1342 C 0.14839 0.51597 0.98567 0.0
C1343 C 0.17125 0.53429 0.99786 0.0
H1344 H 0.74354 0.78699 0.8013 0.0
H1345 H 0.71259 0.83164 0.70061 0.0
H1346 H 0.73418 0.79308 0.66066 0.0
H1347 H 0.77524 0.7581 0.65547 0.0
H1348 H 0.81168 0.71957 0.75738 0.0
H1349 H 0.77331 0.74243 0.79533 0.0
C1350 C 0.74019 0.78753 0.77073 0.0
C1351 C 0.72763 0.81264 0.75373 0.0
C1352 C 0.75419 0.76633 0.74801 0.0
C1353 C 0.72306 0.81287 0.71416 0.0
C1354 C 0.73554 0.79091 0.69133 0.0
C1355 C 0.77406 0.75389 0.68583 0.0
C1356 C 0.79713 0.73857 0.70382 0.0
C1357 C 0.75342 0.7692 0.70795 0.0
C1358 C 0.79466 0.73192 0.74278 0.0
C1359 C 0.7729 0.74541 0.76472 0.0
H1360 H 0.88638 0.42525 0.1732 0.0
H1361 H 0.8501 0.45294 0.2811 0.0
H1362 H 0.8924 0.43276 0.31408 0.0
H1363 H 0.92733 0.39219 0.31345 0.0
H1364 H 0.95776 0.35634 0.20673 0.0
H1365 H 0.93097 0.39473 0.17224 0.0
C1366 C 0.88819 0.42753 0.20386 0.0
C1367 C 0.86443 0.43913 0.22476 0.0
C1368 C 0.91137 0.4136 0.223 0.0
C1369 C 0.86768 0.4435 0.2642 0.0
C1370 C 0.89181 0.4316 0.28326 0.0
C1371 C 0.92941 0.39368 0.28275 0.0
C1372 C 0.94335 0.37084 0.26245 0.0
C1373 C 0.9121 0.41421 0.26323 0.0
C1374 C 0.94634 0.3733 0.22278 0.0
C1375 C 0.93076 0.39505 0.20309 0.0
H1376 H 1.05542 0.19515 0.98509 0.0
H1377 H 0.11646 0.20188 0.07881 0.0
H1378 H 1.07897 0.1829 0.12224 0.0
H1379 H 1.03612 0.15012 0.12771 0.0
H1380 H 0.97959 0.13705 0.03025 0.0
H1381 H 1.00668 0.17428 0.99516 0.0
C1382 C 1.06012 0.19388 0.01533 0.0
C1383 C 0.08891 0.19879 0.0286 0.0
C1384 C 1.03913 0.18129 0.0395 0.0
C1385 C 0.0946 0.19735 0.06787 0.0
C1386 C 1.07322 0.18635 0.09263 0.0
C1387 C 1.02923 0.15613 0.09918 0.0
C1388 C 1.00689 0.13978 0.08102 0.0
C1389 C 1.04644 0.17584 0.07797 0.0
C1390 C 0.99712 0.14875 0.04482 0.0
C1391 C 1.01293 0.16984 0.02438 0.0
H1392 H 0.68514 1.03128 0.5614 0.0
H1393 H 0.61215 1.04804 0.6372 0.0
H1394 H 0.58724 1.00423 0.6139 0.0
H1395 H 0.57861 0.97434 0.55771 0.0
H1396 H 0.64722 0.96342 0.47407 0.0
H1397 H 0.68134 0.99113 0.5145 0.0
C1398 C 0.66407 1.02493 0.5734 0.0
C1399 C 0.64991 1.04381 0.59952 0.0
C1400 C 0.64864 1.00102 0.55759 0.0
C1401 C 0.62344 1.03442 0.61646 0.0
C1402 C 0.60889 1.00943 0.60278 0.0
C1403 C 0.60142 0.97663 0.54906 0.0
C1404 C 0.61009 0.96803 0.51227 0.0
C1405 C 0.62008 0.99438 0.57105 0.0
C1406 C 0.63985 0.97074 0.50185 0.0
C1407 C 0.65926 0.98682 0.52482 0.0
loop_
_geom_bond_atom_site_label_1
_geom_bond_atom_site_label_2
_geom_bond_distance
_geom_bond_site_symmetry_2
_ccdc_geom_bond_type
Sm0 C2 2.846 . S
Sm0 O20 2.543 . S
Sm0 O21 2.450 . S
Sm0 O22 2.681 1_556 S
Sm0 O23 2.464 1_556 S
Sm0 O24 2.396 1_556 S
Sm0 O28 2.386 . S
Sm0 O31 2.408 . S
Sm1 C11 2.846 . S
Sm1 O22 2.386 . S
Sm1 O25 2.408 . S
Sm1 O26 2.543 . S
Sm1 O27 2.450 . S
Sm1 O28 2.681 1_554 S
Sm1 O29 2.464 . S
Sm1 O30 2.396 . S
C2 Sm0 2.846 . S
C2 C3 1.506 . S
C2 O20 1.261 . S
C2 O21 1.242 . S
C3 C2 1.506 . S
C3 C4 1.358 . S
C3 C8 1.382 . S
C4 C3 1.358 . S
C4 C5 1.385 . S
C4 H32 0.930 . S
C5 C4 1.385 . S
C5 C6 1.395 . S
C5 H33 0.929 . S
C6 C5 1.395 . S
C6 C7 1.335 . S
C7 C6 1.335 . S
C7 C8 1.398 . S
C7 H34 0.930 . S
C8 C3 1.382 . S
C8 C7 1.398 . S
C8 H35 0.929 . S
C9 O22 1.271 . S
C9 O23 1.251 . S
C10 O24 1.252 . S
C10 O25 1.272 . S
C11 Sm1 2.846 . S
C11 C12 1.506 . S
C11 O26 1.261 . S
C11 O27 1.242 . S
C12 C11 1.506 . S
C12 C13 1.358 . S
C12 C17 1.382 . S
C13 C12 1.358 . S
C13 C14 1.385 . S
C13 H36 0.930 . S
C14 C13 1.385 . S
C14 C15 1.395 . S
C14 H37 0.929 . S
C15 C14 1.395 . S
C15 C16 1.335 . S
C16 C15 1.335 . S
C16 C17 1.398 . S
C16 H38 0.930 . S
C17 C12 1.382 . S
C17 C16 1.398 . S
C17 H39 0.929 . S
C18 O28 1.271 . S
C18 O29 1.251 1_556 S
C19 O30 1.252 . S
C19 O31 1.272 1_554 S
O20 Sm0 2.543 . S
O20 C2 1.261 . S
O21 Sm0 2.450 . S
O21 C2 1.242 . S
O22 Sm0 2.681 1_554 S
O22 Sm1 2.386 . S
O22 C9 1.271 . S
O23 Sm0 2.464 1_554 S
O23 C9 1.251 . S
O24 Sm0 2.396 1_554 S
O24 C10 1.252 . S
O25 Sm1 2.408 . S
O25 C10 1.272 . S
O26 Sm1 2.543 . S
O26 C11 1.261 . S
O27 Sm1 2.450 . S
O27 C11 1.242 . S
O28 Sm0 2.386 . S
O28 Sm1 2.681 1_556 S
O28 C18 1.271 . S
O29 Sm1 2.464 . S
O29 C18 1.251 1_554 S
O30 Sm1 2.396 . S
O30 C19 1.252 . S
O31 Sm0 2.408 . S
O31 C19 1.272 1_556 S
H32 C4 0.930 . S
H33 C5 0.929 . S
H34 C7 0.930 . S
H35 C8 0.929 . S
H36 C13 0.930 . S
H37 C14 0.929 . S
H38 C16 0.930 . S
H39 C17 0.929 . S
Sm40 C42 2.846 . S
Sm40 O60 2.543 . S
Sm40 O61 2.450 . S
Sm40 O62 2.681 . S
Sm40 O63 2.464 . S
Sm40 O64 2.396 . S
Sm40 O68 2.386 . S
Sm40 O71 2.408 . S
Sm41 C51 2.846 . S
Sm41 O62 2.386 . S
Sm41 O65 2.408 . S
Sm41 O66 2.543 . S
Sm41 O67 2.450 . S
Sm41 O68 2.681 . S
Sm41 O69 2.464 . S
Sm41 O70 2.396 . S
C42 Sm40 2.846 . S
C42 C43 1.506 . S
C42 O60 1.261 . S
C42 O61 1.242 . S
C43 C42 1.506 . S
C43 C44 1.358 . S
C43 C48 1.382 . S
C44 C43 1.358 . S
C44 C45 1.385 . S
C44 H72 0.930 . S
C45 C44 1.385 . S
C45 C46 1.395 . S
C45 H73 0.929 . S
C46 C45 1.395 . S
C46 C47 1.335 . S
C47 C46 1.335 . S
C47 C48 1.398 . S
C47 H74 0.930 . S
C48 C43 1.382 . S
C48 C47 1.398 . S
C48 H75 0.929 . S
C49 O62 1.271 . S
C49 O63 1.251 . S
C50 O64 1.252 . S
C50 O65 1.272 . S
C51 Sm41 2.846 . S
C51 C52 1.506 . S
C51 O66 1.261 . S
C51 O67 1.242 . S
C52 C51 1.506 . S
C52 C53 1.358 . S
C52 C57 1.382 . S
C53 C52 1.358 . S
C53 C54 1.385 . S
C53 H76 0.930 . S
C54 C53 1.385 . S
C54 C55 1.395 . S
C54 H77 0.929 . S
C55 C54 1.395 . S
C55 C56 1.335 . S
C56 C55 1.335 . S
C56 C57 1.398 . S
C56 H78 0.930 . S
C57 C52 1.382 . S
C57 C56 1.398 . S
C57 H79 0.929 . S
C58 O68 1.271 . S
C58 O69 1.251 . S
C59 O70 1.252 . S
C59 O71 1.272 . S
O60 Sm40 2.543 . S
O60 C42 1.261 . S
O61 Sm40 2.450 . S
O61 C42 1.242 . S
O62 Sm40 2.681 . S
O62 Sm41 2.386 . S
O62 C49 1.271 . S
O63 Sm40 2.464 . S
O63 C49 1.251 . S
O64 Sm40 2.396 . S
O64 C50 1.252 . S
O65 Sm41 2.408 . S
O65 C50 1.272 . S
O66 Sm41 2.543 . S
O66 C51 1.261 . S
O67 Sm41 2.450 . S
O67 C51 1.242 . S
O68 Sm40 2.386 . S
O68 Sm41 2.681 . S
O68 C58 1.271 . S
O69 Sm41 2.464 . S
O69 C58 1.251 . S
O70 Sm41 2.396 . S
O70 C59 1.252 . S
O71 Sm40 2.408 . S
O71 C59 1.272 . S
H72 C44 0.930 . S
H73 C45 0.929 . S
H74 C47 0.930 . S
H75 C48 0.929 . S
H76 C53 0.930 . S
H77 C54 0.929 . S
H78 C56 0.930 . S
H79 C57 0.929 . S
Sm80 C82 2.846 . S
Sm80 O100 2.543 . S
Sm80 O101 2.450 . S
Sm80 O102 2.681 . S
Sm80 O103 2.464 . S
Sm80 O104 2.396 . S
Sm80 O108 2.386 . S
Sm80 O111 2.408 . S
Sm81 C91 2.846 . S
Sm81 O102 2.386 . S
Sm81 O105 2.408 . S
Sm81 O106 2.543 . S
Sm81 O107 2.450 . S
Sm81 O108 2.681 . S
Sm81 O109 2.464 . S
Sm81 O110 2.396 . S
C82 Sm80 2.846 . S
C82 C83 1.506 . S
C82 O100 1.261 . S
C82 O101 1.242 . S
C83 C82 1.506 . S
C83 C84 1.358 . S
C83 C88 1.382 . S
C84 C83 1.358 . S
C84 C85 1.385 . S
C84 H112 0.930 . S
C85 C84 1.385 . S
C85 C86 1.395 1_455 S
C85 H113 0.929 1_455 S
C86 C85 1.395 1_655 S
C86 C87 1.335 1_655 S
C87 C86 1.335 1_455 S
C87 C88 1.398 . S
C87 H114 0.930 1_455 S
C88 C83 1.382 . S
C88 C87 1.398 . S
C88 H115 0.929 . S
C89 O102 1.271 . S
C89 O103 1.251 . S
C90 O104 1.252 . S
C90 O105 1.272 . S
C91 Sm81 2.846 . S
C91 C92 1.506 . S
C91 O106 1.261 . S
C91 O107 1.242 . S
C92 C91 1.506 . S
C92 C93 1.358 . S
C92 C97 1.382 . S
C93 C92 1.358 . S
C93 C94 1.385 . S
C93 H116 0.930 . S
C94 C93 1.385 . S
C94 C95 1.395 . S
C94 H117 0.929 . S
C95 C94 1.395 . S
C95 C96 1.335 . S
C96 C95 1.335 . S
C96 C97 1.398 . S
C96 H118 0.930 . S
C97 C92 1.382 . S
C97 C96 1.398 . S
C97 H119 0.929 . S
C98 O108 1.271 . S
C98 O109 1.251 . S
C99 O110 1.252 . S
C99 O111 1.272 . S
O100 Sm80 2.543 . S
O100 C82 1.261 . S
O101 Sm80 2.450 . S
O101 C82 1.242 . S
O102 Sm80 2.681 . S
O102 Sm81 2.386 . S
O102 C89 1.271 . S
O103 Sm80 2.464 . S
O103 C89 1.251 . S
O104 Sm80 2.396 . S
O104 C90 1.252 . S
O105 Sm81 2.408 . S
O105 C90 1.272 . S
O106 Sm81 2.543 . S
O106 C91 1.261 . S
O107 Sm81 2.450 . S
O107 C91 1.242 . S
O108 Sm80 2.386 . S
O108 Sm81 2.681 . S
O108 C98 1.271 . S
O109 Sm81 2.464 . S
O109 C98 1.251 . S
O110 Sm81 2.396 . S
O110 C99 1.252 . S
O111 Sm80 2.408 . S
O111 C99 1.272 . S
H112 C84 0.930 . S
H113 C85 0.929 1_655 S
H114 C87 0.930 1_655 S
H115 C88 0.929 . S
H116 C93 0.930 . S
H117 C94 0.929 . S
H118 C96 0.930 . S
H119 C97 0.929 . S
Sm120 C122 2.846 . S
Sm120 O140 2.543 . S
Sm120 O141 2.450 . S
Sm120 O142 2.681 . S
Sm120 O143 2.464 . S
Sm120 O144 2.396 . S
Sm120 O148 2.386 . S
Sm120 O151 2.408 . S
Sm121 C131 2.846 . S
Sm121 O142 2.386 . S
Sm121 O145 2.408 . S
Sm121 O146 2.543 . S
Sm121 O147 2.450 . S
Sm121 O148 2.681 . S
Sm121 O149 2.464 . S
Sm121 O150 2.396 . S
C122 Sm120 2.846 . S
C122 C123 1.506 . S
C122 O140 1.261 . S
C122 O141 1.242 . S
C123 C122 1.506 . S
C123 C124 1.358 . S
C123 C128 1.382 . S
C124 C123 1.358 . S
C124 C125 1.385 . S
C124 H152 0.930 . S
C125 C124 1.385 . S
C125 C126 1.395 . S
C125 H153 0.929 . S
C126 C125 1.395 . S
C126 C127 1.335 . S
C127 C126 1.335 . S
C127 C128 1.398 . S
C127 H154 0.930 . S
C128 C123 1.382 . S
C128 C127 1.398 . S
C128 H155 0.929 . S
C129 O142 1.271 . S
C129 O143 1.251 . S
C130 O144 1.252 . S
C130 O145 1.272 . S
C131 Sm121 2.846 . S
C131 C132 1.506 . S
C131 O146 1.261 . S
C131 O147 1.242 . S
C132 C131 1.506 . S
C132 C133 1.358 . S
C132 C137 1.382 . S
C133 C132 1.358 . S
C133 C134 1.385 . S
C133 H156 0.930 . S
C134 C133 1.385 . S
C134 C135 1.395 . S
C134 H157 0.929 . S
C135 C134 1.395 . S
C135 C136 1.335 . S
C136 C135 1.335 . S
C136 C137 1.398 . S
C136 H158 0.930 . S
C137 C132 1.382 . S
C137 C136 1.398 . S
C137 H159 0.929 . S
C138 O148 1.271 . S
C138 O149 1.251 . S
C139 O150 1.252 . S
C139 O151 1.272 . S
O140 Sm120 2.543 . S
O140 C122 1.261 . S
O141 Sm120 2.450 . S
O141 C122 1.242 . S
O142 Sm120 2.681 . S
O142 Sm121 2.386 . S
O142 C129 1.271 . S
O143 Sm120 2.464 . S
O143 C129 1.251 . S
O144 Sm120 2.396 . S
O144 C130 1.252 . S
O145 Sm121 2.408 . S
O145 C130 1.272 . S
O146 Sm121 2.543 . S
O146 C131 1.261 . S
O147 Sm121 2.450 . S
O147 C131 1.242 . S
O148 Sm120 2.386 . S
O148 Sm121 2.681 . S
O148 C138 1.271 . S
O149 Sm121 2.464 . S
O149 C138 1.251 . S
O150 Sm121 2.396 . S
O150 C139 1.252 . S
O151 Sm120 2.408 . S
O151 C139 1.272 . S
H152 C124 0.930 . S
H153 C125 0.929 . S
H154 C127 0.930 . S
H155 C128 0.929 . S
H156 C133 0.930 . S
H157 C134 0.929 . S
H158 C136 0.930 . S
H159 C137 0.929 . S
Sm160 C162 2.846 . S
Sm160 O180 2.543 . S
Sm160 O181 2.450 . S
Sm160 O182 2.681 1_556 S
Sm160 O183 2.464 . S
Sm160 O184 2.396 . S
Sm160 O188 2.386 . S
Sm160 O191 2.408 . S
Sm161 C171 2.846 . S
Sm161 O182 2.386 . S
Sm161 O185 2.408 . S
Sm161 O186 2.543 . S
Sm161 O187 2.450 . S
Sm161 O188 2.681 1_554 S
Sm161 O189 2.464 1_554 S
Sm161 O190 2.396 1_554 S
C162 Sm160 2.846 . S
C162 C163 1.506 . S
C162 O180 1.261 . S
C162 O181 1.242 . S
C163 C162 1.506 . S
C163 C164 1.358 . S
C163 C168 1.382 . S
C164 C163 1.358 . S
C164 C165 1.385 . S
C164 H192 0.930 . S
C165 C164 1.385 . S
C165 C166 1.395 . S
C165 H193 0.929 . S
C166 C165 1.395 . S
C166 C167 1.335 . S
C167 C166 1.335 . S
C167 C168 1.398 . S
C167 H194 0.930 . S
C168 C163 1.382 . S
C168 C167 1.398 . S
C168 H195 0.929 . S
C169 O182 1.271 . S
C169 O183 1.251 1_554 S
C170 O184 1.252 . S
C170 O185 1.272 1_556 S
C171 Sm161 2.846 . S
C171 C172 1.506 . S
C171 O186 1.261 . S
C171 O187 1.242 . S
C172 C171 1.506 . S
C172 C173 1.358 . S
C172 C177 1.382 . S
C173 C172 1.358 . S
C173 C174 1.385 . S
C173 H196 0.930 . S
C174 C173 1.385 . S
C174 C175 1.395 . S
C174 H197 0.929 . S
C175 C174 1.395 . S
C175 C176 1.335 . S
C176 C175 1.335 . S
C176 C177 1.398 . S
C176 H198 0.930 . S
C177 C172 1.382 . S
C177 C176 1.398 . S
C177 H199 0.929 . S
C178 O188 1.271 . S
C178 O189 1.251 . S
C179 O190 1.252 . S
C179 O191 1.272 . S
O180 Sm160 2.543 . S
O180 C162 1.261 . S
O181 Sm160 2.450 . S
O181 C162 1.242 . S
O182 Sm160 2.681 1_554 S
O182 Sm161 2.386 . S
O182 C169 1.271 . S
O183 Sm160 2.464 . S
O183 C169 1.251 1_556 S
O184 Sm160 2.396 . S
O184 C170 1.252 . S
O185 Sm161 2.408 . S
O185 C170 1.272 1_554 S
O186 Sm161 2.543 . S
O186 C171 1.261 . S
O187 Sm161 2.450 . S
O187 C171 1.242 . S
O188 Sm160 2.386 . S
O188 Sm161 2.681 1_556 S
O188 C178 1.271 . S
O189 Sm161 2.464 1_556 S
O189 C178 1.251 . S
O190 Sm161 2.396 1_556 S
O190 C179 1.252 . S
O191 Sm160 2.408 . S
O191 C179 1.272 . S
H192 C164 0.930 . S
H193 C165 0.929 . S
H194 C167 0.930 . S
H195 C168 0.929 . S
H196 C173 0.930 . S
H197 C174 0.929 . S
H198 C176 0.930 . S
H199 C177 0.929 . S
Sm200 C202 2.846 . S
Sm200 O220 2.543 . S
Sm200 O221 2.450 . S
Sm200 O222 2.681 . S
Sm200 O223 2.464 . S
Sm200 O224 2.396 . S
Sm200 O228 2.386 . S
Sm200 O231 2.408 . S
Sm201 C211 2.846 . S
Sm201 O222 2.386 . S
Sm201 O225 2.408 . S
Sm201 O226 2.543 . S
Sm201 O227 2.450 . S
Sm201 O228 2.681 . S
Sm201 O229 2.464 . S
Sm201 O230 2.396 . S
C202 Sm200 2.846 . S
C202 C203 1.506 . S
C202 O220 1.261 . S
C202 O221 1.242 . S
C203 C202 1.506 . S
C203 C204 1.358 . S
C203 C208 1.382 . S
C204 C203 1.358 . S
C204 C205 1.385 . S
C204 H232 0.930 . S
C205 C204 1.385 . S
C205 C206 1.395 . S
C205 H233 0.929 . S
C206 C205 1.395 . S
C206 C207 1.335 . S
C207 C206 1.335 . S
C207 C208 1.398 . S
C207 H234 0.930 . S
C208 C203 1.382 . S
C208 C207 1.398 . S
C208 H235 0.929 . S
C209 O222 1.271 . S
C209 O223 1.251 . S
C210 O224 1.252 . S
C210 O225 1.272 . S
C211 Sm201 2.846 . S
C211 C212 1.506 . S
C211 O226 1.261 . S
C211 O227 1.242 . S
C212 C211 1.506 . S
C212 C213 1.358 . S
C212 C217 1.382 . S
C213 C212 1.358 . S
C213 C214 1.385 . S
C213 H236 0.930 . S
C214 C213 1.385 . S
C214 C215 1.395 . S
C214 H237 0.929 . S
C215 C214 1.395 . S
C215 C216 1.335 . S
C216 C215 1.335 . S
C216 C217 1.398 . S
C216 H238 0.930 . S
C217 C212 1.382 . S
C217 C216 1.398 . S
C217 H239 0.929 . S
C218 O228 1.271 . S
C218 O229 1.251 . S
C219 O230 1.252 . S
C219 O231 1.272 . S
O220 Sm200 2.543 . S
O220 C202 1.261 . S
O221 Sm200 2.450 . S
O221 C202 1.242 . S
O222 Sm200 2.681 . S
O222 Sm201 2.386 . S
O222 C209 1.271 . S
O223 Sm200 2.464 . S
O223 C209 1.251 . S
O224 Sm200 2.396 . S
O224 C210 1.252 . S
O225 Sm201 2.408 . S
O225 C210 1.272 . S
O226 Sm201 2.543 . S
O226 C211 1.261 . S
O227 Sm201 2.450 . S
O227 C211 1.242 . S
O228 Sm200 2.386 . S
O228 Sm201 2.681 . S
O228 C218 1.271 . S
O229 Sm201 2.464 . S
O229 C218 1.251 . S
O230 Sm201 2.396 . S
O230 C219 1.252 . S
O231 Sm200 2.408 . S
O231 C219 1.272 . S
H232 C204 0.930 . S
H233 C205 0.929 . S
H234 C207 0.930 . S
H235 C208 0.929 . S
H236 C213 0.930 . S
H237 C214 0.929 . S
H238 C216 0.930 . S
H239 C217 0.929 . S
Sm240 C242 2.846 . S
Sm240 O260 2.543 . S
Sm240 O261 2.450 . S
Sm240 O262 2.681 . S
Sm240 O263 2.464 . S
Sm240 O264 2.396 . S
Sm240 O268 2.386 . S
Sm240 O271 2.408 . S
Sm241 C251 2.846 . S
Sm241 O262 2.386 . S
Sm241 O265 2.408 . S
Sm241 O266 2.543 . S
Sm241 O267 2.450 . S
Sm241 O268 2.681 . S
Sm241 O269 2.464 . S
Sm241 O270 2.396 . S
C242 Sm240 2.846 . S
C242 C243 1.506 . S
C242 O260 1.261 . S
C242 O261 1.242 . S
C243 C242 1.506 . S
C243 C244 1.358 . S
C243 C248 1.382 . S
C244 C243 1.358 . S
C244 C245 1.385 . S
C244 H272 0.930 . S
C245 C244 1.385 . S
C245 C246 1.395 . S
C245 H273 0.929 . S
C246 C245 1.395 . S
C246 C247 1.335 . S
C247 C246 1.335 . S
C247 C248 1.398 . S
C247 H274 0.930 . S
C248 C243 1.382 . S
C248 C247 1.398 . S
C248 H275 0.929 . S
C249 O262 1.271 . S
C249 O263 1.251 . S
C250 O264 1.252 . S
C250 O265 1.272 . S
C251 Sm241 2.846 . S
C251 C252 1.506 . S
C251 O266 1.261 . S
C251 O267 1.242 . S
C252 C251 1.506 . S
C252 C253 1.358 . S
C252 C257 1.382 . S
C253 C252 1.358 . S
C253 C254 1.385 . S
C253 H276 0.930 . S
C254 C253 1.385 . S
C254 C255 1.395 1_655 S
C254 H277 0.929 1_655 S
C255 C254 1.395 1_455 S
C255 C256 1.335 1_455 S
C256 C255 1.335 1_655 S
C256 C257 1.398 . S
C256 H278 0.930 1_655 S
C257 C252 1.382 . S
C257 C256 1.398 . S
C257 H279 0.929 . S
C258 O268 1.271 . S
C258 O269 1.251 . S
C259 O270 1.252 . S
C259 O271 1.272 . S
O260 Sm240 2.543 . S
O260 C242 1.261 . S
O261 Sm240 2.450 . S
O261 C242 1.242 . S
O262 Sm240 2.681 . S
O262 Sm241 2.386 . S
O262 C249 1.271 . S
O263 Sm240 2.464 . S
O263 C249 1.251 . S
O264 Sm240 2.396 . S
O264 C250 1.252 . S
O265 Sm241 2.408 . S
O265 C250 1.272 . S
O266 Sm241 2.543 . S
O266 C251 1.261 . S
O267 Sm241 2.450 . S
O267 C251 1.242 . S
O268 Sm240 2.386 . S
O268 Sm241 2.681 . S
O268 C258 1.271 . S
O269 Sm241 2.464 . S
O269 C258 1.251 . S
O270 Sm241 2.396 . S
O270 C259 1.252 . S
O271 Sm240 2.408 . S
O271 C259 1.272 . S
H272 C244 0.930 . S
H273 C245 0.929 . S
H274 C247 0.930 . S
H275 C248 0.929 . S
H276 C253 0.930 . S
H277 C254 0.929 1_455 S
H278 C256 0.930 1_455 S
H279 C257 0.929 . S
Sm280 C282 2.846 . S
Sm280 O300 2.543 . S
Sm280 O301 2.450 . S
Sm280 O302 2.681 . S
Sm280 O303 2.464 . S
Sm280 O304 2.396 . S
Sm280 O308 2.386 . S
Sm280 O311 2.408 . S
Sm281 C291 2.846 . S
Sm281 O302 2.386 . S
Sm281 O305 2.408 . S
Sm281 O306 2.543 . S
Sm281 O307 2.450 . S
Sm281 O308 2.681 . S
Sm281 O309 2.464 . S
Sm281 O310 2.396 . S
C282 Sm280 2.846 . S
C282 C283 1.506 . S
C282 O300 1.261 . S
C282 O301 1.242 . S
C283 C282 1.506 . S
C283 C284 1.358 . S
C283 C288 1.382 . S
C284 C283 1.358 . S
C284 C285 1.385 . S
C284 H312 0.930 . S
C285 C284 1.385 . S
C285 C286 1.395 . S
C285 H313 0.929 . S
C286 C285 1.395 . S
C286 C287 1.335 . S
C287 C286 1.335 . S
C287 C288 1.398 . S
C287 H314 0.930 . S
C288 C283 1.382 . S
C288 C287 1.398 . S
C288 H315 0.929 . S
C289 O302 1.271 . S
C289 O303 1.251 . S
C290 O304 1.252 . S
C290 O305 1.272 . S
C291 Sm281 2.846 . S
C291 C292 1.506 . S
C291 O306 1.261 . S
C291 O307 1.242 . S
C292 C291 1.506 . S
C292 C293 1.358 . S
C292 C297 1.382 . S
C293 C292 1.358 . S
C293 C294 1.385 . S
C293 H316 0.930 . S
C294 C293 1.385 . S
C294 C295 1.395 . S
C294 H317 0.929 . S
C295 C294 1.395 . S
C295 C296 1.335 . S
C296 C295 1.335 . S
C296 C297 1.398 . S
C296 H318 0.930 . S
C297 C292 1.382 . S
C297 C296 1.398 . S
C297 H319 0.929 . S
C298 O308 1.271 . S
C298 O309 1.251 . S
C299 O310 1.252 . S
C299 O311 1.272 . S
O300 Sm280 2.543 . S
O300 C282 1.261 . S
O301 Sm280 2.450 . S
O301 C282 1.242 . S
O302 Sm280 2.681 . S
O302 Sm281 2.386 . S
O302 C289 1.271 . S
O303 Sm280 2.464 . S
O303 C289 1.251 . S
O304 Sm280 2.396 . S
O304 C290 1.252 . S
O305 Sm281 2.408 . S
O305 C290 1.272 . S
O306 Sm281 2.543 . S
O306 C291 1.261 . S
O307 Sm281 2.450 . S
O307 C291 1.242 . S
O308 Sm280 2.386 . S
O308 Sm281 2.681 . S
O308 C298 1.271 . S
O309 Sm281 2.464 . S
O309 C298 1.251 . S
O310 Sm281 2.396 . S
O310 C299 1.252 . S
O311 Sm280 2.408 . S
O311 C299 1.272 . S
H312 C284 0.930 . S
H313 C285 0.929 . S
H314 C287 0.930 . S
H315 C288 0.929 . S
H316 C293 0.930 . S
H317 C294 0.929 . S
H318 C296 0.930 . S
H319 C297 0.929 . S
Sm320 C322 2.846 . S
Sm320 O340 2.543 . S
Sm320 O341 2.450 . S
Sm320 O342 2.681 . S
Sm320 O343 2.464 . S
Sm320 O344 2.396 . S
Sm320 O348 2.386 . S
Sm320 O351 2.408 . S
Sm321 C331 2.846 . S
Sm321 O342 2.386 . S
Sm321 O345 2.408 . S
Sm321 O346 2.543 . S
Sm321 O347 2.450 . S
Sm321 O348 2.681 . S
Sm321 O349 2.464 . S
Sm321 O350 2.396 . S
C322 Sm320 2.846 . S
C322 C323 1.506 . S
C322 O340 1.261 . S
C322 O341 1.242 . S
C323 C322 1.506 . S
C323 C324 1.358 . S
C323 C328 1.382 . S
C324 C323 1.358 . S
C324 C325 1.385 . S
C324 H352 0.930 . S
C325 C324 1.385 . S
C325 C326 1.395 1_655 S
C325 H353 0.929 1_655 S
C326 C325 1.395 1_455 S
C326 C327 1.335 1_455 S
C327 C326 1.335 1_655 S
C327 C328 1.398 . S
C327 H354 0.930 1_655 S
C328 C323 1.382 . S
C328 C327 1.398 . S
C328 H355 0.929 . S
C329 O342 1.271 . S
C329 O343 1.251 . S
C330 O344 1.252 . S
C330 O345 1.272 . S
C331 Sm321 2.846 . S
C331 C332 1.506 . S
C331 O346 1.261 . S
C331 O347 1.242 . S
C332 C331 1.506 . S
C332 C333 1.358 . S
C332 C337 1.382 . S
C333 C332 1.358 . S
C333 C334 1.385 . S
C333 H356 0.930 . S
C334 C333 1.385 . S
C334 C335 1.395 . S
C334 H357 0.929 . S
C335 C334 1.395 . S
C335 C336 1.335 . S
C336 C335 1.335 . S
C336 C337 1.398 . S
C336 H358 0.930 . S
C337 C332 1.382 . S
C337 C336 1.398 . S
C337 H359 0.929 . S
C338 O348 1.271 . S
C338 O349 1.251 . S
C339 O350 1.252 . S
C339 O351 1.272 . S
O340 Sm320 2.543 . S
O340 C322 1.261 . S
O341 Sm320 2.450 . S
O341 C322 1.242 . S
O342 Sm320 2.681 . S
O342 Sm321 2.386 . S
O342 C329 1.271 . S
O343 Sm320 2.464 . S
O343 C329 1.251 . S
O344 Sm320 2.396 . S
O344 C330 1.252 . S
O345 Sm321 2.408 . S
O345 C330 1.272 . S
O346 Sm321 2.543 . S
O346 C331 1.261 . S
O347 Sm321 2.450 . S
O347 C331 1.242 . S
O348 Sm320 2.386 . S
O348 Sm321 2.681 . S
O348 C338 1.271 . S
O349 Sm321 2.464 . S
O349 C338 1.251 . S
O350 Sm321 2.396 . S
O350 C339 1.252 . S
O351 Sm320 2.408 . S
O351 C339 1.272 . S
H352 C324 0.930 . S
H353 C325 0.929 1_455 S
H354 C327 0.930 1_455 S
H355 C328 0.929 . S
H356 C333 0.930 . S
H357 C334 0.929 . S
H358 C336 0.930 . S
H359 C337 0.929 . S
Sm360 C362 2.846 . S
Sm360 O380 2.543 . S
Sm360 O381 2.450 . S
Sm360 O382 2.681 . S
Sm360 O383 2.464 . S
Sm360 O384 2.396 . S
Sm360 O388 2.386 . S
Sm360 O391 2.408 . S
Sm361 C371 2.846 . S
Sm361 O382 2.386 . S
Sm361 O385 2.408 . S
Sm361 O386 2.543 . S
Sm361 O387 2.450 . S
Sm361 O388 2.681 . S
Sm361 O389 2.464 . S
Sm361 O390 2.396 . S
C362 Sm360 2.846 . S
C362 C363 1.506 . S
C362 O380 1.261 . S
C362 O381 1.242 . S
C363 C362 1.506 . S
C363 C364 1.358 . S
C363 C368 1.382 . S
C364 C363 1.358 . S
C364 C365 1.385 . S
C364 H392 0.930 . S
C365 C364 1.385 . S
C365 C366 1.395 . S
C365 H393 0.929 . S
C366 C365 1.395 . S
C366 C367 1.335 . S
C367 C366 1.335 . S
C367 C368 1.398 . S
C367 H394 0.930 . S
C368 C363 1.382 . S
C368 C367 1.398 . S
C368 H395 0.929 . S
C369 O382 1.271 . S
C369 O383 1.251 . S
C370 O384 1.252 . S
C370 O385 1.272 . S
C371 Sm361 2.846 . S
C371 C372 1.506 . S
C371 O386 1.261 . S
C371 O387 1.242 . S
C372 C371 1.506 . S
C372 C373 1.358 . S
C372 C377 1.382 . S
C373 C372 1.358 . S
C373 C374 1.385 . S
C373 H396 0.930 . S
C374 C373 1.385 . S
C374 C375 1.395 . S
C374 H397 0.929 . S
C375 C374 1.395 . S
C375 C376 1.335 . S
C376 C375 1.335 . S
C376 C377 1.398 . S
C376 H398 0.930 . S
C377 C372 1.382 . S
C377 C376 1.398 . S
C377 H399 0.929 . S
C378 O388 1.271 . S
C378 O389 1.251 . S
C379 O390 1.252 . S
C379 O391 1.272 . S
O380 Sm360 2.543 . S
O380 C362 1.261 . S
O381 Sm360 2.450 . S
O381 C362 1.242 . S
O382 Sm360 2.681 . S
O382 Sm361 2.386 . S
O382 C369 1.271 . S
O383 Sm360 2.464 . S
O383 C369 1.251 . S
O384 Sm360 2.396 . S
O384 C370 1.252 . S
O385 Sm361 2.408 . S
O385 C370 1.272 . S
O386 Sm361 2.543 . S
O386 C371 1.261 . S
O387 Sm361 2.450 . S
O387 C371 1.242 . S
O388 Sm360 2.386 . S
O388 Sm361 2.681 . S
O388 C378 1.271 . S
O389 Sm361 2.464 . S
O389 C378 1.251 . S
O390 Sm361 2.396 . S
O390 C379 1.252 . S
O391 Sm360 2.408 . S
O391 C379 1.272 . S
H392 C364 0.930 . S
H393 C365 0.929 . S
H394 C367 0.930 . S
H395 C368 0.929 . S
H396 C373 0.930 . S
H397 C374 0.929 . S
H398 C376 0.930 . S
H399 C377 0.929 . S
Sm400 C402 2.846 . S
Sm400 O420 2.543 . S
Sm400 O421 2.450 . S
Sm400 O422 2.681 1_556 S
Sm400 O423 2.464 1_556 S
Sm400 O424 2.396 1_556 S
Sm400 O428 2.386 . S
Sm400 O431 2.408 . S
Sm401 C411 2.846 . S
Sm401 O422 2.386 . S
Sm401 O425 2.408 . S
Sm401 O426 2.543 . S
Sm401 O427 2.450 . S
Sm401 O428 2.681 1_554 S
Sm401 O429 2.464 . S
Sm401 O430 2.396 . S
C402 Sm400 2.846 . S
C402 C403 1.506 . S
C402 O420 1.261 . S
C402 O421 1.242 . S
C403 C402 1.506 . S
C403 C404 1.358 . S
C403 C408 1.382 . S
C404 C403 1.358 . S
C404 C405 1.385 . S
C404 H432 0.930 . S
C405 C404 1.385 . S
C405 C406 1.395 . S
C405 H433 0.929 . S
C406 C405 1.395 . S
C406 C407 1.335 . S
C407 C406 1.335 . S
C407 C408 1.398 . S
C407 H434 0.930 . S
C408 C403 1.382 . S
C408 C407 1.398 . S
C408 H435 0.929 . S
C409 O422 1.271 . S
C409 O423 1.251 . S
C410 O424 1.252 . S
C410 O425 1.272 . S
C411 Sm401 2.846 . S
C411 C412 1.506 . S
C411 O426 1.261 . S
C411 O427 1.242 . S
C412 C411 1.506 . S
C412 C413 1.358 . S
C412 C417 1.382 . S
C413 C412 1.358 . S
C413 C414 1.385 . S
C413 H436 0.930 . S
C414 C413 1.385 . S
C414 C415 1.395 . S
C414 H437 0.929 . S
C415 C414 1.395 . S
C415 C416 1.335 . S
C416 C415 1.335 . S
C416 C417 1.398 . S
C416 H438 0.930 . S
C417 C412 1.382 . S
C417 C416 1.398 . S
C417 H439 0.929 . S
C418 O428 1.271 . S
C418 O429 1.251 1_556 S
C419 O430 1.252 . S
C419 O431 1.272 1_554 S
O420 Sm400 2.543 . S
O420 C402 1.261 . S
O421 Sm400 2.450 . S
O421 C402 1.242 . S
O422 Sm400 2.681 1_554 S
O422 Sm401 2.386 . S
O422 C409 1.271 . S
O423 Sm400 2.464 1_554 S
O423 C409 1.251 . S
O424 Sm400 2.396 1_554 S
O424 C410 1.252 . S
O425 Sm401 2.408 . S
O425 C410 1.272 . S
O426 Sm401 2.543 . S
O426 C411 1.261 . S
O427 Sm401 2.450 . S
O427 C411 1.242 . S
O428 Sm400 2.386 . S
O428 Sm401 2.681 1_556 S
O428 C418 1.271 . S
O429 Sm401 2.464 . S
O429 C418 1.251 1_554 S
O430 Sm401 2.396 . S
O430 C419 1.252 . S
O431 Sm400 2.408 . S
O431 C419 1.272 1_556 S
H432 C404 0.930 . S
H433 C405 0.929 . S
H434 C407 0.930 . S
H435 C408 0.929 . S
H436 C413 0.930 . S
H437 C414 0.929 . S
H438 C416 0.930 . S
H439 C417 0.929 . S
Sm440 C442 2.846 . S
Sm440 O460 2.543 . S
Sm440 O461 2.450 . S
Sm440 O462 2.681 . S
Sm440 O463 2.464 . S
Sm440 O464 2.396 . S
Sm440 O468 2.386 . S
Sm440 O471 2.408 . S
Sm441 C451 2.846 . S
Sm441 O462 2.386 . S
Sm441 O465 2.408 . S
Sm441 O466 2.543 . S
Sm441 O467 2.450 . S
Sm441 O468 2.681 . S
Sm441 O469 2.464 . S
Sm441 O470 2.396 . S
C442 Sm440 2.846 . S
C442 C443 1.506 . S
C442 O460 1.261 . S
C442 O461 1.242 . S
C443 C442 1.506 . S
C443 C444 1.358 . S
C443 C448 1.382 . S
C444 C443 1.358 . S
C444 C445 1.385 . S
C444 H472 0.930 . S
C445 C444 1.385 . S
C445 C446 1.395 . S
C445 H473 0.929 . S
C446 C445 1.395 . S
C446 C447 1.335 . S
C447 C446 1.335 . S
C447 C448 1.398 . S
C447 H474 0.930 . S
C448 C443 1.382 . S
C448 C447 1.398 . S
C448 H475 0.929 . S
C449 O462 1.271 . S
C449 O463 1.251 . S
C450 O464 1.252 . S
C450 O465 1.272 . S
C451 Sm441 2.846 . S
C451 C452 1.506 . S
C451 O466 1.261 . S
C451 O467 1.242 . S
C452 C451 1.506 . S
C452 C453 1.358 . S
C452 C457 1.382 . S
C453 C452 1.358 . S
C453 C454 1.385 . S
C453 H476 0.930 . S
C454 C453 1.385 . S
C454 C455 1.395 . S
C454 H477 0.929 . S
C455 C454 1.395 . S
C455 C456 1.335 . S
C456 C455 1.335 . S
C456 C457 1.398 . S
C456 H478 0.930 . S
C457 C452 1.382 . S
C457 C456 1.398 . S
C457 H479 0.929 . S
C458 O468 1.271 . S
C458 O469 1.251 . S
C459 O470 1.252 . S
C459 O471 1.272 . S
O460 Sm440 2.543 . S
O460 C442 1.261 . S
O461 Sm440 2.450 . S
O461 C442 1.242 . S
O462 Sm440 2.681 . S
O462 Sm441 2.386 . S
O462 C449 1.271 . S
O463 Sm440 2.464 . S
O463 C449 1.251 . S
O464 Sm440 2.396 . S
O464 C450 1.252 . S
O465 Sm441 2.408 . S
O465 C450 1.272 . S
O466 Sm441 2.543 . S
O466 C451 1.261 . S
O467 Sm441 2.450 . S
O467 C451 1.242 . S
O468 Sm440 2.386 . S
O468 Sm441 2.681 . S
O468 C458 1.271 . S
O469 Sm441 2.464 . S
O469 C458 1.251 . S
O470 Sm441 2.396 . S
O470 C459 1.252 . S
O471 Sm440 2.408 . S
O471 C459 1.272 . S
H472 C444 0.930 . S
H473 C445 0.929 . S
H474 C447 0.930 . S
H475 C448 0.929 . S
H476 C453 0.930 . S
H477 C454 0.929 . S
H478 C456 0.930 . S
H479 C457 0.929 . S
Sm480 C482 2.846 . S
Sm480 O500 2.543 . S
Sm480 O501 2.450 . S
Sm480 O502 2.681 . S
Sm480 O503 2.464 . S
Sm480 O504 2.396 . S
Sm480 O508 2.386 . S
Sm480 O511 2.408 . S
Sm481 C491 2.846 . S
Sm481 O502 2.386 . S
Sm481 O505 2.408 . S
Sm481 O506 2.543 . S
Sm481 O507 2.450 . S
Sm481 O508 2.681 . S
Sm481 O509 2.464 . S
Sm481 O510 2.396 . S
C482 Sm480 2.846 . S
C482 C483 1.506 . S
C482 O500 1.261 . S
C482 O501 1.242 . S
C483 C482 1.506 . S
C483 C484 1.358 . S
C483 C488 1.382 . S
C484 C483 1.358 . S
C484 C485 1.385 . S
C484 H512 0.930 . S
C485 C484 1.385 . S
C485 C486 1.395 . S
C485 H513 0.929 . S
C486 C485 1.395 . S
C486 C487 1.335 . S
C487 C486 1.335 . S
C487 C488 1.398 . S
C487 H514 0.930 . S
C488 C483 1.382 . S
C488 C487 1.398 . S
C488 H515 0.929 . S
C489 O502 1.271 . S
C489 O503 1.251 . S
C490 O504 1.252 . S
C490 O505 1.272 . S
C491 Sm481 2.846 . S
C491 C492 1.506 . S
C491 O506 1.261 . S
C491 O507 1.242 . S
C492 C491 1.506 . S
C492 C493 1.358 . S
C492 C497 1.382 . S
C493 C492 1.358 . S
C493 C494 1.385 . S
C493 H516 0.930 . S
C494 C493 1.385 . S
C494 C495 1.395 1_455 S
C494 H517 0.929 1_455 S
C495 C494 1.395 1_655 S
C495 C496 1.335 1_655 S
C496 C495 1.335 1_455 S
C496 C497 1.398 . S
C496 H518 0.930 1_455 S
C497 C492 1.382 . S
C497 C496 1.398 . S
C497 H519 0.929 . S
C498 O508 1.271 . S
C498 O509 1.251 . S
C499 O510 1.252 . S
C499 O511 1.272 . S
O500 Sm480 2.543 . S
O500 C482 1.261 . S
O501 Sm480 2.450 . S
O501 C482 1.242 . S
O502 Sm480 2.681 . S
O502 Sm481 2.386 . S
O502 C489 1.271 . S
O503 Sm480 2.464 . S
O503 C489 1.251 . S
O504 Sm480 2.396 . S
O504 C490 1.252 . S
O505 Sm481 2.408 . S
O505 C490 1.272 . S
O506 Sm481 2.543 . S
O506 C491 1.261 . S
O507 Sm481 2.450 . S
O507 C491 1.242 . S
O508 Sm480 2.386 . S
O508 Sm481 2.681 . S
O508 C498 1.271 . S
O509 Sm481 2.464 . S
O509 C498 1.251 . S
O510 Sm481 2.396 . S
O510 C499 1.252 . S
O511 Sm480 2.408 . S
O511 C499 1.272 . S
H512 C484 0.930 . S
H513 C485 0.929 . S
H514 C487 0.930 . S
H515 C488 0.929 . S
H516 C493 0.930 . S
H517 C494 0.929 1_655 S
H518 C496 0.930 1_655 S
H519 C497 0.929 . S
Sm520 C522 2.846 . S
Sm520 O540 2.543 . S
Sm520 O541 2.450 . S
Sm520 O542 2.681 . S
Sm520 O543 2.464 . S
Sm520 O544 2.396 . S
Sm520 O548 2.386 . S
Sm520 O551 2.408 . S
Sm521 C531 2.846 . S
Sm521 O542 2.386 . S
Sm521 O545 2.408 . S
Sm521 O546 2.543 . S
Sm521 O547 2.450 . S
Sm521 O548 2.681 . S
Sm521 O549 2.464 . S
Sm521 O550 2.396 . S
C522 Sm520 2.846 . S
C522 C523 1.506 . S
C522 O540 1.261 . S
C522 O541 1.242 . S
C523 C522 1.506 . S
C523 C524 1.358 . S
C523 C528 1.382 . S
C524 C523 1.358 . S
C524 C525 1.385 . S
C524 H552 0.930 . S
C525 C524 1.385 . S
C525 C526 1.395 . S
C525 H553 0.929 . S
C526 C525 1.395 . S
C526 C527 1.335 . S
C527 C526 1.335 . S
C527 C528 1.398 . S
C527 H554 0.930 . S
C528 C523 1.382 . S
C528 C527 1.398 . S
C528 H555 0.929 . S
C529 O542 1.271 . S
C529 O543 1.251 . S
C530 O544 1.252 . S
C530 O545 1.272 . S
C531 Sm521 2.846 . S
C531 C532 1.506 . S
C531 O546 1.261 . S
C531 O547 1.242 . S
C532 C531 1.506 . S
C532 C533 1.358 . S
C532 C537 1.382 . S
C533 C532 1.358 . S
C533 C534 1.385 . S
C533 H556 0.930 . S
C534 C533 1.385 . S
C534 C535 1.395 . S
C534 H557 0.929 . S
C535 C534 1.395 . S
C535 C536 1.335 . S
C536 C535 1.335 . S
C536 C537 1.398 . S
C536 H558 0.930 . S
C537 C532 1.382 . S
C537 C536 1.398 . S
C537 H559 0.929 . S
C538 O548 1.271 . S
C538 O549 1.251 . S
C539 O550 1.252 . S
C539 O551 1.272 . S
O540 Sm520 2.543 . S
O540 C522 1.261 . S
O541 Sm520 2.450 . S
O541 C522 1.242 . S
O542 Sm520 2.681 . S
O542 Sm521 2.386 . S
O542 C529 1.271 . S
O543 Sm520 2.464 . S
O543 C529 1.251 . S
O544 Sm520 2.396 . S
O544 C530 1.252 . S
O545 Sm521 2.408 . S
O545 C530 1.272 . S
O546 Sm521 2.543 . S
O546 C531 1.261 . S
O547 Sm521 2.450 . S
O547 C531 1.242 . S
O548 Sm520 2.386 . S
O548 Sm521 2.681 . S
O548 C538 1.271 . S
O549 Sm521 2.464 . S
O549 C538 1.251 . S
O550 Sm521 2.396 . S
O550 C539 1.252 . S
O551 Sm520 2.408 . S
O551 C539 1.272 . S
H552 C524 0.930 . S
H553 C525 0.929 . S
H554 C527 0.930 . S
H555 C528 0.929 . S
H556 C533 0.930 . S
H557 C534 0.929 . S
H558 C536 0.930 . S
H559 C537 0.929 . S
Sm560 C562 2.846 . S
Sm560 O580 2.543 . S
Sm560 O581 2.450 . S
Sm560 O582 2.681 1_556 S
Sm560 O583 2.464 . S
Sm560 O584 2.396 . S
Sm560 O588 2.386 . S
Sm560 O591 2.408 . S
Sm561 C571 2.846 . S
Sm561 O582 2.386 . S
Sm561 O585 2.408 . S
Sm561 O586 2.543 . S
Sm561 O587 2.450 . S
Sm561 O588 2.681 1_554 S
Sm561 O589 2.464 1_554 S
Sm561 O590 2.396 1_554 S
C562 Sm560 2.846 . S
C562 C563 1.506 . S
C562 O580 1.261 . S
C562 O581 1.242 . S
C563 C562 1.506 . S
C563 C564 1.358 . S
C563 C568 1.382 . S
C564 C563 1.358 . S
C564 C565 1.385 . S
C564 H592 0.930 . S
C565 C564 1.385 . S
C565 C566 1.395 . S
C565 H593 0.929 . S
C566 C565 1.395 . S
C566 C567 1.335 . S
C567 C566 1.335 . S
C567 C568 1.398 . S
C567 H594 0.930 . S
C568 C563 1.382 . S
C568 C567 1.398 . S
C568 H595 0.929 . S
C569 O582 1.271 . S
C569 O583 1.251 1_554 S
C570 O584 1.252 . S
C570 O585 1.272 1_556 S
C571 Sm561 2.846 . S
C571 C572 1.506 . S
C571 O586 1.261 . S
C571 O587 1.242 . S
C572 C571 1.506 . S
C572 C573 1.358 . S
C572 C577 1.382 . S
C573 C572 1.358 . S
C573 C574 1.385 . S
C573 H596 0.930 . S
C574 C573 1.385 . S
C574 C575 1.395 . S
C574 H597 0.929 . S
C575 C574 1.395 . S
C575 C576 1.335 . S
C576 C575 1.335 . S
C576 C577 1.398 . S
C576 H598 0.930 . S
C577 C572 1.382 . S
C577 C576 1.398 . S
C577 H599 0.929 . S
C578 O588 1.271 . S
C578 O589 1.251 . S
C579 O590 1.252 . S
C579 O591 1.272 . S
O580 Sm560 2.543 . S
O580 C562 1.261 . S
O581 Sm560 2.450 . S
O581 C562 1.242 . S
O582 Sm560 2.681 1_554 S
O582 Sm561 2.386 . S
O582 C569 1.271 . S
O583 Sm560 2.464 . S
O583 C569 1.251 1_556 S
O584 Sm560 2.396 . S
O584 C570 1.252 . S
O585 Sm561 2.408 . S
O585 C570 1.272 1_554 S
O586 Sm561 2.543 . S
O586 C571 1.261 . S
O587 Sm561 2.450 . S
O587 C571 1.242 . S
O588 Sm560 2.386 . S
O588 Sm561 2.681 1_556 S
O588 C578 1.271 . S
O589 Sm561 2.464 1_556 S
O589 C578 1.251 . S
O590 Sm561 2.396 1_556 S
O590 C579 1.252 . S
O591 Sm560 2.408 . S
O591 C579 1.272 . S
H592 C564 0.930 . S
H593 C565 0.929 . S
H594 C567 0.930 . S
H595 C568 0.929 . S
H596 C573 0.930 . S
H597 C574 0.929 . S
H598 C576 0.930 . S
H599 C577 0.929 . S
Sm600 C602 2.846 . S
Sm600 O620 2.543 . S
Sm600 O621 2.450 . S
Sm600 O622 2.681 . S
Sm600 O623 2.464 . S
Sm600 O624 2.396 . S
Sm600 O628 2.386 . S
Sm600 O631 2.408 . S
Sm601 C611 2.846 . S
Sm601 O622 2.386 . S
Sm601 O625 2.408 . S
Sm601 O626 2.543 . S
Sm601 O627 2.450 . S
Sm601 O628 2.681 . S
Sm601 O629 2.464 . S
Sm601 O630 2.396 . S
C602 Sm600 2.846 . S
C602 C603 1.506 . S
C602 O620 1.261 . S
C602 O621 1.242 . S
C603 C602 1.506 . S
C603 C604 1.358 . S
C603 C608 1.382 . S
C604 C603 1.358 . S
C604 C605 1.385 . S
C604 H632 0.930 . S
C605 C604 1.385 . S
C605 C606 1.395 . S
C605 H633 0.929 . S
C606 C605 1.395 . S
C606 C607 1.335 . S
C607 C606 1.335 . S
C607 C608 1.398 . S
C607 H634 0.930 . S
C608 C603 1.382 . S
C608 C607 1.398 . S
C608 H635 0.929 . S
C609 O622 1.271 . S
C609 O623 1.251 . S
C610 O624 1.252 . S
C610 O625 1.272 . S
C611 Sm601 2.846 . S
C611 C612 1.506 . S
C611 O626 1.261 . S
C611 O627 1.242 . S
C612 C611 1.506 . S
C612 C613 1.358 . S
C612 C617 1.382 . S
C613 C612 1.358 . S
C613 C614 1.385 . S
C613 H636 0.930 . S
C614 C613 1.385 . S
C614 C615 1.395 . S
C614 H637 0.929 . S
C615 C614 1.395 . S
C615 C616 1.335 . S
C616 C615 1.335 . S
C616 C617 1.398 . S
C616 H638 0.930 . S
C617 C612 1.382 . S
C617 C616 1.398 . S
C617 H639 0.929 . S
C618 O628 1.271 . S
C618 O629 1.251 . S
C619 O630 1.252 . S
C619 O631 1.272 . S
O620 Sm600 2.543 . S
O620 C602 1.261 . S
O621 Sm600 2.450 . S
O621 C602 1.242 . S
O622 Sm600 2.681 . S
O622 Sm601 2.386 . S
O622 C609 1.271 . S
O623 Sm600 2.464 . S
O623 C609 1.251 . S
O624 Sm600 2.396 . S
O624 C610 1.252 . S
O625 Sm601 2.408 . S
O625 C610 1.272 . S
O626 Sm601 2.543 . S
O626 C611 1.261 . S
O627 Sm601 2.450 . S
O627 C611 1.242 . S
O628 Sm600 2.386 . S
O628 Sm601 2.681 . S
O628 C618 1.271 . S
O629 Sm601 2.464 . S
O629 C618 1.251 . S
O630 Sm601 2.396 . S
O630 C619 1.252 . S
O631 Sm600 2.408 . S
O631 C619 1.272 . S
H632 C604 0.930 . S
H633 C605 0.929 . S
H634 C607 0.930 . S
H635 C608 0.929 . S
H636 C613 0.930 . S
H637 C614 0.929 . S
H638 C616 0.930 . S
H639 C617 0.929 . S
H640 C646 0.930 1_556 S
H641 C649 0.930 . S
H642 C650 0.930 . S
H643 C651 0.930 . S
H644 C654 0.930 1_556 S
H645 C655 0.930 . S
C646 H640 0.930 1_554 S
C646 C647 1.355 . S
C646 C648 1.415 . S
C647 C646 1.355 . S
C647 C649 1.419 . S
C648 C646 1.415 . S
C648 C653 1.425 . S
C648 C655 1.409 1_554 S
C649 H641 0.930 . S
C649 C647 1.419 . S
C649 C650 1.362 . S
C650 H642 0.930 . S
C650 C649 1.362 . S
C650 C653 1.409 . S
C651 H643 0.930 . S
C651 C652 1.355 . S
C651 C653 1.415 . S
C652 C651 1.355 . S
C652 C654 1.419 . S
C653 C648 1.425 . S
C653 C650 1.409 . S
C653 C651 1.415 . S
C654 H644 0.930 1_554 S
C654 C652 1.419 . S
C654 C655 1.362 1_554 S
C655 H645 0.930 . S
C655 C648 1.409 1_556 S
C655 C654 1.362 1_556 S
H656 C662 0.930 . S
H657 C665 0.930 . S
H658 C666 0.930 . S
H659 C667 0.930 . S
H660 C670 0.930 . S
H661 C671 0.930 . S
C662 H656 0.930 . S
C662 C663 1.355 . S
C662 C664 1.415 . S
C663 C662 1.355 . S
C663 C665 1.419 . S
C664 C662 1.415 . S
C664 C669 1.425 . S
C664 C671 1.409 . S
C665 H657 0.930 . S
C665 C663 1.419 . S
C665 C666 1.362 . S
C666 H658 0.930 . S
C666 C665 1.362 . S
C666 C669 1.409 . S
C667 H659 0.930 . S
C667 C668 1.355 . S
C667 C669 1.415 . S
C668 C667 1.355 . S
C668 C670 1.419 . S
C669 C664 1.425 . S
C669 C666 1.409 . S
C669 C667 1.415 . S
C670 H660 0.930 . S
C670 C668 1.419 . S
C670 C671 1.362 . S
C671 H661 0.930 . S
C671 C664 1.409 . S
C671 C670 1.362 . S
H672 C678 0.930 1_655 S
H673 C681 0.930 . S
H674 C682 0.930 . S
H675 C683 0.930 1_455 S
H676 C686 0.930 . S
H677 C687 0.930 . S
C678 H672 0.930 1_455 S
C678 C679 1.355 . S
C678 C680 1.415 1_455 S
C679 C678 1.355 . S
C679 C681 1.419 . S
C680 C678 1.415 1_655 S
C680 C685 1.425 1_655 S
C680 C687 1.409 . S
C681 H673 0.930 . S
C681 C679 1.419 . S
C681 C682 1.362 . S
C682 H674 0.930 . S
C682 C681 1.362 . S
C682 C685 1.409 . S
C683 H675 0.930 1_655 S
C683 C684 1.355 . S
C683 C685 1.415 1_655 S
C684 C683 1.355 . S
C684 C686 1.419 . S
C685 C680 1.425 1_455 S
C685 C682 1.409 . S
C685 C683 1.415 1_455 S
C686 H676 0.930 . S
C686 C684 1.419 . S
C686 C687 1.362 . S
C687 H677 0.930 . S
C687 C680 1.409 . S
C687 C686 1.362 . S
H688 C694 0.930 . S
H689 C697 0.930 . S
H690 C698 0.930 . S
H691 C699 0.930 . S
H692 C702 0.930 . S
H693 C703 0.930 . S
C694 H688 0.930 . S
C694 C695 1.355 . S
C694 C696 1.415 . S
C695 C694 1.355 . S
C695 C697 1.419 . S
C696 C694 1.415 . S
C696 C701 1.425 1_655 S
C696 C703 1.409 . S
C697 H689 0.930 . S
C697 C695 1.419 . S
C697 C698 1.362 1_655 S
C698 H690 0.930 . S
C698 C697 1.362 1_455 S
C698 C701 1.409 . S
C699 H691 0.930 . S
C699 C700 1.355 . S
C699 C701 1.415 . S
C700 C699 1.355 . S
C700 C702 1.419 . S
C701 C696 1.425 1_455 S
C701 C698 1.409 . S
C701 C699 1.415 . S
C702 H692 0.930 . S
C702 C700 1.419 . S
C702 C703 1.362 1_455 S
C703 H693 0.930 . S
C703 C696 1.409 . S
C703 C702 1.362 1_655 S
H704 C710 0.930 . S
H705 C713 0.930 . S
H706 C714 0.930 . S
H707 C715 0.930 . S
H708 C718 0.930 . S
H709 C719 0.930 . S
C710 H704 0.930 . S
C710 C711 1.355 . S
C710 C712 1.415 . S
C711 C710 1.355 . S
C711 C713 1.419 . S
C712 C710 1.415 . S
C712 C717 1.425 . S
C712 C719 1.409 . S
C713 H705 0.930 . S
C713 C711 1.419 . S
C713 C714 1.362 . S
C714 H706 0.930 . S
C714 C713 1.362 . S
C714 C717 1.409 . S
C715 H707 0.930 . S
C715 C716 1.355 . S
C715 C717 1.415 . S
C716 C715 1.355 . S
C716 C718 1.419 . S
C717 C712 1.425 . S
C717 C714 1.409 . S
C717 C715 1.415 . S
C718 H708 0.930 . S
C718 C716 1.419 . S
C718 C719 1.362 . S
C719 H709 0.930 . S
C719 C712 1.409 . S
C719 C718 1.362 . S
H720 C726 0.930 . S
H721 C729 0.930 . S
H722 C730 0.930 . S
H723 C731 0.930 . S
H724 C734 0.930 . S
H725 C735 0.930 . S
C726 H720 0.930 . S
C726 C727 1.355 . S
C726 C728 1.415 . S
C727 C726 1.355 . S
C727 C729 1.419 . S
C728 C726 1.415 . S
C728 C733 1.425 . S
C728 C735 1.409 . S
C729 H721 0.930 . S
C729 C727 1.419 . S
C729 C730 1.362 . S
C730 H722 0.930 . S
C730 C729 1.362 . S
C730 C733 1.409 . S
C731 H723 0.930 . S
C731 C732 1.355 . S
C731 C733 1.415 . S
C732 C731 1.355 . S
C732 C734 1.419 . S
C733 C728 1.425 . S
C733 C730 1.409 . S
C733 C731 1.415 . S
C734 H724 0.930 . S
C734 C732 1.419 . S
C734 C735 1.362 . S
C735 H725 0.930 . S
C735 C728 1.409 . S
C735 C734 1.362 . S
H736 C742 0.930 . S
H737 C745 0.926 1_455 S
H738 C746 0.930 . S
H739 C747 0.930 . S
H740 C750 0.926 1_655 S
H741 C751 0.930 . S
C742 H736 0.930 . S
C742 C743 1.355 . S
C742 C744 1.415 . S
C743 C742 1.355 . S
C743 C745 1.435 . S
C744 C742 1.415 . S
C744 C749 1.425 1_655 S
C744 C751 1.409 . S
C745 H737 0.926 1_655 S
C745 C743 1.435 . S
C745 C746 1.350 1_655 S
C746 H738 0.930 . S
C746 C745 1.350 1_455 S
C746 C749 1.409 . S
C747 H739 0.930 . S
C747 C748 1.355 . S
C747 C749 1.415 . S
C748 C747 1.355 . S
C748 C750 1.435 . S
C749 C744 1.425 1_455 S
C749 C746 1.409 . S
C749 C747 1.415 . S
C750 H740 0.926 1_455 S
C750 C748 1.435 . S
C750 C751 1.350 1_455 S
C751 H741 0.930 . S
C751 C744 1.409 . S
C751 C750 1.350 1_655 S
H752 C758 0.930 . S
H753 C761 0.930 . S
H754 C762 0.930 . S
H755 C763 0.930 . S
H756 C766 0.930 . S
H757 C767 0.930 . S
C758 H752 0.930 . S
C758 C759 1.355 . S
C758 C760 1.415 . S
C759 C758 1.355 . S
C759 C761 1.419 . S
C760 C758 1.415 . S
C760 C765 1.425 1_455 S
C760 C767 1.409 1_455 S
C761 H753 0.930 . S
C761 C759 1.419 . S
C761 C762 1.362 . S
C762 H754 0.930 . S
C762 C761 1.362 . S
C762 C765 1.409 1_455 S
C763 H755 0.930 . S
C763 C764 1.355 . S
C763 C765 1.415 . S
C764 C763 1.355 . S
C764 C766 1.419 . S
C765 C760 1.425 1_655 S
C765 C762 1.409 1_655 S
C765 C763 1.415 . S
C766 H756 0.930 . S
C766 C764 1.419 . S
C766 C767 1.362 . S
C767 H757 0.930 . S
C767 C760 1.409 1_655 S
C767 C766 1.362 . S
H768 C774 0.930 . S
H769 C777 0.930 . S
H770 C778 0.930 . S
H771 C779 0.930 . S
H772 C782 0.930 1_554 S
H773 C783 0.930 . S
C774 H768 0.930 . S
C774 C775 1.355 . S
C774 C776 1.415 . S
C775 C774 1.355 . S
C775 C777 1.419 . S
C776 C774 1.415 . S
C776 C781 1.425 . S
C776 C783 1.409 . S
C777 H769 0.930 . S
C777 C775 1.419 . S
C777 C778 1.362 . S
C778 H770 0.930 . S
C778 C777 1.362 . S
C778 C781 1.409 . S
C779 H771 0.930 . S
C779 C780 1.355 . S
C779 C781 1.415 . S
C780 C779 1.355 . S
C780 C782 1.419 . S
C781 C776 1.425 . S
C781 C778 1.409 . S
C781 C779 1.415 . S
C782 H772 0.930 1_556 S
C782 C780 1.419 . S
C782 C783 1.362 . S
C783 H773 0.930 . S
C783 C776 1.409 . S
C783 C782 1.362 . S
H784 C790 0.930 . S
H785 C793 0.930 . S
H786 C794 0.930 . S
H787 C795 0.930 . S
H788 C798 0.930 . S
H789 C799 0.930 . S
C790 H784 0.930 . S
C790 C791 1.355 . S
C790 C792 1.415 . S
C791 C790 1.355 . S
C791 C793 1.419 . S
C792 C790 1.415 . S
C792 C797 1.425 . S
C792 C799 1.409 . S
C793 H785 0.930 . S
C793 C791 1.419 . S
C793 C794 1.362 . S
C794 H786 0.930 . S
C794 C793 1.362 . S
C794 C797 1.409 . S
C795 H787 0.930 . S
C795 C796 1.355 . S
C795 C797 1.415 . S
C796 C795 1.355 . S
C796 C798 1.419 . S
C797 C792 1.425 . S
C797 C794 1.409 . S
C797 C795 1.415 . S
C798 H788 0.930 . S
C798 C796 1.419 . S
C798 C799 1.362 . S
C799 H789 0.930 . S
C799 C792 1.409 . S
C799 C798 1.362 . S
H800 C806 0.930 . S
H801 C809 0.930 . S
H802 C810 0.930 . S
H803 C811 0.930 . S
H804 C814 0.930 . S
H805 C815 0.930 . S
C806 H800 0.930 . S
C806 C807 1.355 . S
C806 C808 1.415 . S
C807 C806 1.355 . S
C807 C809 1.419 . S
C808 C806 1.415 . S
C808 C813 1.425 . S
C808 C815 1.409 . S
C809 H801 0.930 . S
C809 C807 1.419 . S
C809 C810 1.362 . S
C810 H802 0.930 . S
C810 C809 1.362 . S
C810 C813 1.409 . S
C811 H803 0.930 . S
C811 C812 1.355 . S
C811 C813 1.415 . S
C812 C811 1.355 . S
C812 C814 1.419 . S
C813 C808 1.425 . S
C813 C810 1.409 . S
C813 C811 1.415 . S
C814 H804 0.930 . S
C814 C812 1.419 . S
C814 C815 1.362 . S
C815 H805 0.930 . S
C815 C808 1.409 . S
C815 C814 1.362 . S
H816 C822 0.930 . S
H817 C825 0.930 . S
H818 C826 0.930 . S
H819 C827 0.930 . S
H820 C830 0.930 . S
H821 C831 0.930 . S
C822 H816 0.930 . S
C822 C823 1.355 . S
C822 C824 1.415 . S
C823 C822 1.355 . S
C823 C825 1.419 . S
C824 C822 1.415 . S
C824 C829 1.425 . S
C824 C831 1.409 . S
C825 H817 0.930 . S
C825 C823 1.419 . S
C825 C826 1.362 . S
C826 H818 0.930 . S
C826 C825 1.362 . S
C826 C829 1.409 . S
C827 H819 0.930 . S
C827 C828 1.355 . S
C827 C829 1.415 . S
C828 C827 1.355 . S
C828 C830 1.419 . S
C829 C824 1.425 . S
C829 C826 1.409 . S
C829 C827 1.415 . S
C830 H820 0.930 . S
C830 C828 1.419 . S
C830 C831 1.362 . S
C831 H821 0.930 . S
C831 C824 1.409 . S
C831 C830 1.362 . S
H832 C838 0.930 . S
H833 C841 0.930 1_556 S
H834 C842 0.930 . S
H835 C843 0.930 . S
H836 C846 0.930 . S
H837 C847 0.930 . S
C838 H832 0.930 . S
C838 C839 1.355 . S
C838 C840 1.415 . S
C839 C838 1.355 . S
C839 C841 1.419 . S
C840 C838 1.415 . S
C840 C845 1.425 . S
C840 C847 1.409 . S
C841 H833 0.930 1_554 S
C841 C839 1.419 . S
C841 C842 1.362 . S
C842 H834 0.930 . S
C842 C841 1.362 . S
C842 C845 1.409 . S
C843 H835 0.930 . S
C843 C844 1.355 . S
C843 C845 1.415 . S
C844 C843 1.355 . S
C844 C846 1.419 . S
C845 C840 1.425 . S
C845 C842 1.409 . S
C845 C843 1.415 . S
C846 H836 0.930 . S
C846 C844 1.419 . S
C846 C847 1.362 . S
C847 H837 0.930 . S
C847 C840 1.409 . S
C847 C846 1.362 . S
H848 C854 0.930 . S
H849 C857 0.930 . S
H850 C858 0.930 . S
H851 C859 0.930 . S
H852 C862 0.930 . S
H853 C863 0.930 . S
C854 H848 0.930 . S
C854 C855 1.355 . S
C854 C856 1.415 . S
C855 C854 1.355 . S
C855 C857 1.419 . S
C856 C854 1.415 . S
C856 C861 1.425 . S
C856 C863 1.409 . S
C857 H849 0.930 . S
C857 C855 1.419 . S
C857 C858 1.362 . S
C858 H850 0.930 . S
C858 C857 1.362 . S
C858 C861 1.409 . S
C859 H851 0.930 . S
C859 C860 1.355 . S
C859 C861 1.415 . S
C860 C859 1.355 . S
C860 C862 1.419 . S
C861 C856 1.425 . S
C861 C858 1.409 . S
C861 C859 1.415 . S
C862 H852 0.930 . S
C862 C860 1.419 . S
C862 C863 1.362 . S
C863 H853 0.930 . S
C863 C856 1.409 . S
C863 C862 1.362 . S
H864 C870 0.930 . S
H865 C873 0.930 . S
H866 C874 0.930 . S
H867 C875 0.930 . S
H868 C878 0.930 . S
H869 C879 0.930 . S
C870 H864 0.930 . S
C870 C871 1.355 . S
C870 C872 1.415 . S
C871 C870 1.355 . S
C871 C873 1.419 . S
C872 C870 1.415 . S
C872 C877 1.425 . S
C872 C879 1.409 . S
C873 H865 0.930 . S
C873 C871 1.419 . S
C873 C874 1.362 . S
C874 H866 0.930 . S
C874 C873 1.362 . S
C874 C877 1.409 . S
C875 H867 0.930 . S
C875 C876 1.355 . S
C875 C877 1.415 . S
C876 C875 1.355 . S
C876 C878 1.419 . S
C877 C872 1.425 . S
C877 C874 1.409 . S
C877 C875 1.415 . S
C878 H868 0.930 . S
C878 C876 1.419 . S
C878 C879 1.362 . S
C879 H869 0.930 . S
C879 C872 1.409 . S
C879 C878 1.362 . S
H880 C886 0.930 . S
H881 C889 0.930 . S
H882 C890 0.930 . S
H883 C891 0.930 . S
H884 C894 0.930 . S
H885 C895 0.930 . S
C886 H880 0.930 . S
C886 C887 1.355 . S
C886 C888 1.415 . S
C887 C886 1.355 . S
C887 C889 1.419 . S
C888 C886 1.415 . S
C888 C893 1.425 . S
C888 C895 1.409 . S
C889 H881 0.930 . S
C889 C887 1.419 . S
C889 C890 1.362 . S
C890 H882 0.930 . S
C890 C889 1.362 . S
C890 C893 1.409 . S
C891 H883 0.930 . S
C891 C892 1.355 . S
C891 C893 1.415 . S
C892 C891 1.355 . S
C892 C894 1.419 . S
C893 C888 1.425 . S
C893 C890 1.409 . S
C893 C891 1.415 . S
C894 H884 0.930 . S
C894 C892 1.419 . S
C894 C895 1.362 . S
C895 H885 0.930 . S
C895 C888 1.409 . S
C895 C894 1.362 . S
H896 C902 0.930 . S
H897 C905 0.930 . S
H898 C906 0.930 . S
H899 C907 0.930 . S
H900 C910 0.930 . S
H901 C911 0.930 . S
C902 H896 0.930 . S
C902 C903 1.355 . S
C902 C904 1.415 . S
C903 C902 1.355 . S
C903 C905 1.419 . S
C904 C902 1.415 . S
C904 C909 1.425 . S
C904 C911 1.409 . S
C905 H897 0.930 . S
C905 C903 1.419 . S
C905 C906 1.362 . S
C906 H898 0.930 . S
C906 C905 1.362 . S
C906 C909 1.409 . S
C907 H899 0.930 . S
C907 C908 1.355 . S
C907 C909 1.415 . S
C908 C907 1.355 . S
C908 C910 1.419 . S
C909 C904 1.425 . S
C909 C906 1.409 . S
C909 C907 1.415 . S
C910 H900 0.930 . S
C910 C908 1.419 . S
C910 C911 1.362 . S
C911 H901 0.930 . S
C911 C904 1.409 . S
C911 C910 1.362 . S
H912 C918 0.930 . S
H913 C921 0.930 . S
H914 C922 0.930 . S
H915 C923 0.930 . S
H916 C926 0.930 . S
H917 C927 0.930 . S
C918 H912 0.930 . S
C918 C919 1.355 1_565 S
C918 C920 1.415 . S
C919 C918 1.355 1_545 S
C919 C921 1.419 . S
C920 C918 1.415 . S
C920 C925 1.425 . S
C920 C927 1.409 . S
C921 H913 0.930 . S
C921 C919 1.419 . S
C921 C922 1.362 . S
C922 H914 0.930 . S
C922 C921 1.362 . S
C922 C925 1.409 1_545 S
C923 H915 0.930 . S
C923 C924 1.355 . S
C923 C925 1.415 . S
C924 C923 1.355 . S
C924 C926 1.419 . S
C925 C920 1.425 . S
C925 C922 1.409 1_565 S
C925 C923 1.415 . S
C926 H916 0.930 . S
C926 C924 1.419 . S
C926 C927 1.362 . S
C927 H917 0.930 . S
C927 C920 1.409 . S
C927 C926 1.362 . S
H928 C934 0.930 . S
H929 C937 0.930 1_554 S
H930 C938 0.930 . S
H931 C939 0.930 . S
H932 C942 0.930 . S
H933 C943 0.930 . S
C934 H928 0.930 . S
C934 C935 1.355 . S
C934 C936 1.415 . S
C935 C934 1.355 . S
C935 C937 1.419 . S
C936 C934 1.415 . S
C936 C941 1.425 . S
C936 C943 1.409 . S
C937 H929 0.930 1_556 S
C937 C935 1.419 . S
C937 C938 1.362 . S
C938 H930 0.930 . S
C938 C937 1.362 . S
C938 C941 1.409 . S
C939 H931 0.930 . S
C939 C940 1.355 . S
C939 C941 1.415 . S
C940 C939 1.355 . S
C940 C942 1.419 . S
C941 C936 1.425 . S
C941 C938 1.409 . S
C941 C939 1.415 . S
C942 H932 0.930 . S
C942 C940 1.419 . S
C942 C943 1.362 . S
C943 H933 0.930 . S
C943 C936 1.409 . S
C943 C942 1.362 . S
H944 C950 0.930 . S
H945 C953 0.930 . S
H946 C954 0.930 . S
H947 C955 0.930 . S
H948 C958 0.930 . S
H949 C959 0.930 . S
C950 H944 0.930 . S
C950 C951 1.355 . S
C950 C952 1.415 1_565 S
C951 C950 1.355 . S
C951 C953 1.419 . S
C952 C950 1.415 1_545 S
C952 C957 1.425 . S
C952 C959 1.409 . S
C953 H945 0.930 . S
C953 C951 1.419 . S
C953 C954 1.362 1_565 S
C954 H946 0.930 . S
C954 C953 1.362 1_545 S
C954 C957 1.409 . S
C955 H947 0.930 . S
C955 C956 1.355 . S
C955 C957 1.415 . S
C956 C955 1.355 . S
C956 C958 1.419 . S
C957 C952 1.425 . S
C957 C954 1.409 . S
C957 C955 1.415 . S
C958 H948 0.930 . S
C958 C956 1.419 . S
C958 C959 1.362 . S
C959 H949 0.930 . S
C959 C952 1.409 . S
C959 C958 1.362 . S
H960 C966 0.930 . S
H961 C969 0.930 . S
H962 C970 0.930 . S
H963 C971 0.930 . S
H964 C974 0.930 . S
H965 C975 0.930 . S
C966 H960 0.930 . S
C966 C967 1.355 . S
C966 C968 1.415 . S
C967 C966 1.355 . S
C967 C969 1.419 . S
C968 C966 1.415 . S
C968 C973 1.425 . S
C968 C975 1.409 . S
C969 H961 0.930 . S
C969 C967 1.419 . S
C969 C970 1.362 . S
C970 H962 0.930 . S
C970 C969 1.362 . S
C970 C973 1.409 . S
C971 H963 0.930 . S
C971 C972 1.355 . S
C971 C973 1.415 . S
C972 C971 1.355 . S
C972 C974 1.419 . S
C973 C968 1.425 . S
C973 C970 1.409 . S
C973 C971 1.415 . S
C974 H964 0.930 . S
C974 C972 1.419 . S
C974 C975 1.362 . S
C975 H965 0.930 . S
C975 C968 1.409 . S
C975 C974 1.362 . S
H976 C982 0.930 . S
H977 C985 0.930 . S
H978 C986 0.930 . S
H979 C987 0.930 . S
H980 C990 0.930 . S
H981 C991 0.930 . S
C982 H976 0.930 . S
C982 C983 1.355 . S
C982 C984 1.415 . S
C983 C982 1.355 . S
C983 C985 1.419 . S
C984 C982 1.415 . S
C984 C989 1.425 . S
C984 C991 1.409 1_545 S
C985 H977 0.930 . S
C985 C983 1.419 . S
C985 C986 1.362 . S
C986 H978 0.930 . S
C986 C985 1.362 . S
C986 C989 1.409 . S
C987 H979 0.930 . S
C987 C988 1.355 1_545 S
C987 C989 1.415 . S
C988 C987 1.355 1_565 S
C988 C990 1.419 . S
C989 C984 1.425 . S
C989 C986 1.409 . S
C989 C987 1.415 . S
C990 H980 0.930 . S
C990 C988 1.419 . S
C990 C991 1.362 . S
C991 H981 0.930 . S
C991 C984 1.409 1_565 S
C991 C990 1.362 . S
H992 C998 0.930 . S
H993 C1001 0.930 . S
H994 C1002 0.930 . S
H995 C1003 0.930 . S
H996 C1006 0.930 1_556 S
H997 C1007 0.930 . S
C998 H992 0.930 . S
C998 C999 1.355 . S
C998 C1000 1.415 . S
C999 C998 1.355 . S
C999 C1001 1.419 . S
C1000 C998 1.415 . S
C1000 C1005 1.425 . S
C1000 C1007 1.409 . S
C1001 H993 0.930 . S
C1001 C999 1.419 . S
C1001 C1002 1.362 . S
C1002 H994 0.930 . S
C1002 C1001 1.362 . S
C1002 C1005 1.409 . S
C1003 H995 0.930 . S
C1003 C1004 1.355 . S
C1003 C1005 1.415 . S
C1004 C1003 1.355 . S
C1004 C1006 1.419 . S
C1005 C1000 1.425 . S
C1005 C1002 1.409 . S
C1005 C1003 1.415 . S
C1006 H996 0.930 1_554 S
C1006 C1004 1.419 . S
C1006 C1007 1.362 . S
C1007 H997 0.930 . S
C1007 C1000 1.409 . S
C1007 C1006 1.362 . S
H1008 C1014 0.930 . S
H1009 C1017 0.930 1_545 S
H1010 C1018 0.930 . S
H1011 C1019 0.930 . S
H1012 C1022 0.930 . S
H1013 C1023 0.930 1_545 S
C1014 H1008 0.930 . S
C1014 C1015 1.355 . S
C1014 C1016 1.415 1_545 S
C1015 C1014 1.355 . S
C1015 C1017 1.419 1_545 S
C1016 C1014 1.415 1_565 S
C1016 C1021 1.425 . S
C1016 C1023 1.409 . S
C1017 H1009 0.930 1_565 S
C1017 C1015 1.419 1_565 S
C1017 C1018 1.362 . S
C1018 H1010 0.930 . S
C1018 C1017 1.362 . S
C1018 C1021 1.409 . S
C1019 H1011 0.930 . S
C1019 C1020 1.355 . S
C1019 C1021 1.415 . S
C1020 C1019 1.355 . S
C1020 C1022 1.419 . S
C1021 C1016 1.425 . S
C1021 C1018 1.409 . S
C1021 C1019 1.415 . S
C1022 H1012 0.930 . S
C1022 C1020 1.419 . S
C1022 C1023 1.362 . S
C1023 H1013 0.930 1_565 S
C1023 C1016 1.409 . S
C1023 C1022 1.362 . S
H1024 C1030 0.930 . S
H1025 C1033 0.930 . S
H1026 C1034 0.930 . S
H1027 C1035 0.930 . S
H1028 C1038 0.930 . S
H1029 C1039 0.930 . S
C1030 H1024 0.930 . S
C1030 C1031 1.355 . S
C1030 C1032 1.415 . S
C1031 C1030 1.355 . S
C1031 C1033 1.419 . S
C1032 C1030 1.415 . S
C1032 C1037 1.425 . S
C1032 C1039 1.409 . S
C1033 H1025 0.930 . S
C1033 C1031 1.419 . S
C1033 C1034 1.362 . S
C1034 H1026 0.930 . S
C1034 C1033 1.362 . S
C1034 C1037 1.409 . S
C1035 H1027 0.930 . S
C1035 C1036 1.355 . S
C1035 C1037 1.415 . S
C1036 C1035 1.355 . S
C1036 C1038 1.419 . S
C1037 C1032 1.425 . S
C1037 C1034 1.409 . S
C1037 C1035 1.415 . S
C1038 H1028 0.930 . S
C1038 C1036 1.419 . S
C1038 C1039 1.362 . S
C1039 H1029 0.930 . S
C1039 C1032 1.409 . S
C1039 C1038 1.362 . S
H1040 C1046 0.930 . S
H1041 C1049 0.930 . S
H1042 C1050 0.930 . S
H1043 C1051 0.930 . S
H1044 C1054 0.930 . S
H1045 C1055 0.930 . S
C1046 H1040 0.930 . S
C1046 C1047 1.355 . S
C1046 C1048 1.415 . S
C1047 C1046 1.355 . S
C1047 C1049 1.419 . S
C1048 C1046 1.415 . S
C1048 C1053 1.425 . S
C1048 C1055 1.409 . S
C1049 H1041 0.930 . S
C1049 C1047 1.419 . S
C1049 C1050 1.362 . S
C1050 H1042 0.930 . S
C1050 C1049 1.362 . S
C1050 C1053 1.409 . S
C1051 H1043 0.930 . S
C1051 C1052 1.355 . S
C1051 C1053 1.415 . S
C1052 C1051 1.355 . S
C1052 C1054 1.419 . S
C1053 C1048 1.425 . S
C1053 C1050 1.409 . S
C1053 C1051 1.415 . S
C1054 H1044 0.930 . S
C1054 C1052 1.419 . S
C1054 C1055 1.362 . S
C1055 H1045 0.930 . S
C1055 C1048 1.409 . S
C1055 C1054 1.362 . S
H1056 C1062 0.930 . S
H1057 C1065 0.930 . S
H1058 C1066 0.930 . S
H1059 C1067 0.930 . S
H1060 C1070 0.930 . S
H1061 C1071 0.930 . S
C1062 H1056 0.930 . S
C1062 C1063 1.355 . S
C1062 C1064 1.415 . S
C1063 C1062 1.355 . S
C1063 C1065 1.419 . S
C1064 C1062 1.415 . S
C1064 C1069 1.425 . S
C1064 C1071 1.409 . S
C1065 H1057 0.930 . S
C1065 C1063 1.419 . S
C1065 C1066 1.362 . S
C1066 H1058 0.930 . S
C1066 C1065 1.362 . S
C1066 C1069 1.409 . S
C1067 H1059 0.930 . S
C1067 C1068 1.355 . S
C1067 C1069 1.415 . S
C1068 C1067 1.355 . S
C1068 C1070 1.419 . S
C1069 C1064 1.425 . S
C1069 C1066 1.409 . S
C1069 C1067 1.415 . S
C1070 H1060 0.930 . S
C1070 C1068 1.419 . S
C1070 C1071 1.362 . S
C1071 H1061 0.930 . S
C1071 C1064 1.409 . S
C1071 C1070 1.362 . S
H1072 C1078 0.930 . S
H1073 C1081 0.930 . S
H1074 C1082 0.930 . S
H1075 C1083 0.930 . S
H1076 C1086 0.930 . S
H1077 C1087 0.930 . S
C1078 H1072 0.930 . S
C1078 C1079 1.355 . S
C1078 C1080 1.415 . S
C1079 C1078 1.355 . S
C1079 C1081 1.419 . S
C1080 C1078 1.415 . S
C1080 C1085 1.425 . S
C1080 C1087 1.409 . S
C1081 H1073 0.930 . S
C1081 C1079 1.419 . S
C1081 C1082 1.362 . S
C1082 H1074 0.930 . S
C1082 C1081 1.362 . S
C1082 C1085 1.409 . S
C1083 H1075 0.930 . S
C1083 C1084 1.355 . S
C1083 C1085 1.415 . S
C1084 C1083 1.355 . S
C1084 C1086 1.419 . S
C1085 C1080 1.425 . S
C1085 C1082 1.409 . S
C1085 C1083 1.415 . S
C1086 H1076 0.930 . S
C1086 C1084 1.419 . S
C1086 C1087 1.362 . S
C1087 H1077 0.930 . S
C1087 C1080 1.409 . S
C1087 C1086 1.362 . S
H1088 C1094 0.930 . S
H1089 C1097 0.930 . S
H1090 C1098 0.930 . S
H1091 C1099 0.930 . S
H1092 C1102 0.930 . S
H1093 C1103 0.930 . S
C1094 H1088 0.930 . S
C1094 C1095 1.355 . S
C1094 C1096 1.415 . S
C1095 C1094 1.355 . S
C1095 C1097 1.419 . S
C1096 C1094 1.415 . S
C1096 C1101 1.425 . S
C1096 C1103 1.409 . S
C1097 H1089 0.930 . S
C1097 C1095 1.419 . S
C1097 C1098 1.362 . S
C1098 H1090 0.930 . S
C1098 C1097 1.362 . S
C1098 C1101 1.409 . S
C1099 H1091 0.930 . S
C1099 C1100 1.355 . S
C1099 C1101 1.415 . S
C1100 C1099 1.355 . S
C1100 C1102 1.419 . S
C1101 C1096 1.425 . S
C1101 C1098 1.409 . S
C1101 C1099 1.415 . S
C1102 H1092 0.930 . S
C1102 C1100 1.419 . S
C1102 C1103 1.362 . S
C1103 H1093 0.930 . S
C1103 C1096 1.409 . S
C1103 C1102 1.362 . S
H1104 C1110 0.930 . S
H1105 C1113 0.930 . S
H1106 C1114 0.930 . S
H1107 C1115 0.930 . S
H1108 C1118 0.930 . S
H1109 C1119 0.930 . S
C1110 H1104 0.930 . S
C1110 C1111 1.355 . S
C1110 C1112 1.415 . S
C1111 C1110 1.355 . S
C1111 C1113 1.419 . S
C1112 C1110 1.415 . S
C1112 C1117 1.425 . S
C1112 C1119 1.409 . S
C1113 H1105 0.930 . S
C1113 C1111 1.419 . S
C1113 C1114 1.362 . S
C1114 H1106 0.930 . S
C1114 C1113 1.362 . S
C1114 C1117 1.409 . S
C1115 H1107 0.930 . S
C1115 C1116 1.355 . S
C1115 C1117 1.415 . S
C1116 C1115 1.355 . S
C1116 C1118 1.419 . S
C1117 C1112 1.425 . S
C1117 C1114 1.409 . S
C1117 C1115 1.415 . S
C1118 H1108 0.930 . S
C1118 C1116 1.419 . S
C1118 C1119 1.362 . S
C1119 H1109 0.930 . S
C1119 C1112 1.409 . S
C1119 C1118 1.362 . S
H1120 C1126 0.930 . S
H1121 C1129 0.930 . S
H1122 C1130 0.930 . S
H1123 C1131 0.930 . S
H1124 C1134 0.930 . S
H1125 C1135 0.930 . S
C1126 H1120 0.930 . S
C1126 C1127 1.355 . S
C1126 C1128 1.415 . S
C1127 C1126 1.355 . S
C1127 C1129 1.419 . S
C1128 C1126 1.415 . S
C1128 C1133 1.425 . S
C1128 C1135 1.409 . S
C1129 H1121 0.930 . S
C1129 C1127 1.419 . S
C1129 C1130 1.362 . S
C1130 H1122 0.930 . S
C1130 C1129 1.362 . S
C1130 C1133 1.409 . S
C1131 H1123 0.930 . S
C1131 C1132 1.355 . S
C1131 C1133 1.415 . S
C1132 C1131 1.355 . S
C1132 C1134 1.419 . S
C1133 C1128 1.425 . S
C1133 C1130 1.409 . S
C1133 C1131 1.415 . S
C1134 H1124 0.930 . S
C1134 C1132 1.419 . S
C1134 C1135 1.362 . S
C1135 H1125 0.930 . S
C1135 C1128 1.409 . S
C1135 C1134 1.362 . S
H1136 C1142 0.930 . S
H1137 C1145 0.930 . S
H1138 C1146 0.930 . S
H1139 C1147 0.930 . S
H1140 C1150 0.930 . S
H1141 C1151 0.930 . S
C1142 H1136 0.930 . S
C1142 C1143 1.355 . S
C1142 C1144 1.415 . S
C1143 C1142 1.355 . S
C1143 C1145 1.419 . S
C1144 C1142 1.415 . S
C1144 C1149 1.425 . S
C1144 C1151 1.409 . S
C1145 H1137 0.930 . S
C1145 C1143 1.419 . S
C1145 C1146 1.362 . S
C1146 H1138 0.930 . S
C1146 C1145 1.362 . S
C1146 C1149 1.409 . S
C1147 H1139 0.930 . S
C1147 C1148 1.355 . S
C1147 C1149 1.415 . S
C1148 C1147 1.355 . S
C1148 C1150 1.419 . S
C1149 C1144 1.425 . S
C1149 C1146 1.409 . S
C1149 C1147 1.415 . S
C1150 H1140 0.930 . S
C1150 C1148 1.419 . S
C1150 C1151 1.362 . S
C1151 H1141 0.930 . S
C1151 C1144 1.409 . S
C1151 C1150 1.362 . S
H1152 C1158 0.930 . S
H1153 C1161 0.930 . S
H1154 C1162 0.930 1_655 S
H1155 C1163 0.930 . S
H1156 C1166 0.930 . S
H1157 C1167 0.930 . S
C1158 H1152 0.930 . S
C1158 C1159 1.355 . S
C1158 C1160 1.415 . S
C1159 C1158 1.355 . S
C1159 C1161 1.419 1_455 S
C1160 C1158 1.415 . S
C1160 C1165 1.425 . S
C1160 C1167 1.409 . S
C1161 H1153 0.930 . S
C1161 C1159 1.419 1_655 S
C1161 C1162 1.362 1_655 S
C1162 H1154 0.930 1_455 S
C1162 C1161 1.362 1_455 S
C1162 C1165 1.409 . S
C1163 H1155 0.930 . S
C1163 C1164 1.355 . S
C1163 C1165 1.415 . S
C1164 C1163 1.355 . S
C1164 C1166 1.419 . S
C1165 C1160 1.425 . S
C1165 C1162 1.409 . S
C1165 C1163 1.415 . S
C1166 H1156 0.930 . S
C1166 C1164 1.419 . S
C1166 C1167 1.362 . S
C1167 H1157 0.930 . S
C1167 C1160 1.409 . S
C1167 C1166 1.362 . S
H1168 C1174 0.930 . S
H1169 C1177 0.930 . S
H1170 C1178 0.930 . S
H1171 C1179 0.930 . S
H1172 C1182 0.930 . S
H1173 C1183 0.930 . S
C1174 H1168 0.930 . S
C1174 C1175 1.355 . S
C1174 C1176 1.415 . S
C1175 C1174 1.355 . S
C1175 C1177 1.419 . S
C1176 C1174 1.415 . S
C1176 C1181 1.425 . S
C1176 C1183 1.409 . S
C1177 H1169 0.930 . S
C1177 C1175 1.419 . S
C1177 C1178 1.362 . S
C1178 H1170 0.930 . S
C1178 C1177 1.362 . S
C1178 C1181 1.409 . S
C1179 H1171 0.930 . S
C1179 C1180 1.355 . S
C1179 C1181 1.415 . S
C1180 C1179 1.355 . S
C1180 C1182 1.419 . S
C1181 C1176 1.425 . S
C1181 C1178 1.409 . S
C1181 C1179 1.415 . S
C1182 H1172 0.930 . S
C1182 C1180 1.419 . S
C1182 C1183 1.362 . S
C1183 H1173 0.930 . S
C1183 C1176 1.409 . S
C1183 C1182 1.362 . S
H1184 C1190 0.930 . S
H1185 C1193 0.930 . S
H1186 C1194 0.930 . S
H1187 C1195 0.930 . S
H1188 C1198 0.930 . S
H1189 C1199 0.930 . S
C1190 H1184 0.930 . S
C1190 C1191 1.355 . S
C1190 C1192 1.415 . S
C1191 C1190 1.355 . S
C1191 C1193 1.419 . S
C1192 C1190 1.415 . S
C1192 C1197 1.425 . S
C1192 C1199 1.409 . S
C1193 H1185 0.930 . S
C1193 C1191 1.419 . S
C1193 C1194 1.362 . S
C1194 H1186 0.930 . S
C1194 C1193 1.362 . S
C1194 C1197 1.409 . S
C1195 H1187 0.930 . S
C1195 C1196 1.355 . S
C1195 C1197 1.415 . S
C1196 C1195 1.355 . S
C1196 C1198 1.419 . S
C1197 C1192 1.425 . S
C1197 C1194 1.409 . S
C1197 C1195 1.415 . S
C1198 H1188 0.930 . S
C1198 C1196 1.419 . S
C1198 C1199 1.362 . S
C1199 H1189 0.930 . S
C1199 C1192 1.409 . S
C1199 C1198 1.362 . S
H1200 C1206 0.930 . S
H1201 C1209 0.930 . S
H1202 C1210 0.930 . S
H1203 C1211 0.930 . S
H1204 C1214 0.930 . S
H1205 C1215 0.930 . S
C1206 H1200 0.930 . S
C1206 C1207 1.355 . S
C1206 C1208 1.415 . S
C1207 C1206 1.355 . S
C1207 C1209 1.419 . S
C1208 C1206 1.415 . S
C1208 C1213 1.425 . S
C1208 C1215 1.409 . S
C1209 H1201 0.930 . S
C1209 C1207 1.419 . S
C1209 C1210 1.362 . S
C1210 H1202 0.930 . S
C1210 C1209 1.362 . S
C1210 C1213 1.409 . S
C1211 H1203 0.930 . S
C1211 C1212 1.355 . S
C1211 C1213 1.415 . S
C1212 C1211 1.355 . S
C1212 C1214 1.419 . S
C1213 C1208 1.425 . S
C1213 C1210 1.409 . S
C1213 C1211 1.415 . S
C1214 H1204 0.930 . S
C1214 C1212 1.419 . S
C1214 C1215 1.362 . S
C1215 H1205 0.930 . S
C1215 C1208 1.409 . S
C1215 C1214 1.362 . S
H1216 C1222 0.930 . S
H1217 C1225 0.930 1_455 S
H1218 C1226 0.951 . S
H1219 C1227 0.930 . S
H1220 C1230 0.930 . S
H1221 C1231 0.930 . S
C1222 H1216 0.930 . S
C1222 C1223 1.355 . S
C1222 C1224 1.415 . S
C1223 C1222 1.355 . S
C1223 C1225 1.419 . S
C1224 C1222 1.415 . S
C1224 C1229 1.425 . S
C1224 C1231 1.409 . S
C1225 H1217 0.930 1_655 S
C1225 C1223 1.419 . S
C1225 C1226 1.362 . S
C1226 H1218 0.951 . S
C1226 C1225 1.362 . S
C1226 C1229 1.409 . S
C1227 H1219 0.930 . S
C1227 C1228 1.355 . S
C1227 C1229 1.415 . S
C1228 C1227 1.355 . S
C1228 C1230 1.419 . S
C1229 C1224 1.425 . S
C1229 C1226 1.409 . S
C1229 C1227 1.415 . S
C1230 H1220 0.930 . S
C1230 C1228 1.419 . S
C1230 C1231 1.362 . S
C1231 H1221 0.930 . S
C1231 C1224 1.409 . S
C1231 C1230 1.362 . S
H1232 C1238 0.930 . S
H1233 C1241 0.930 . S
H1234 C1242 0.930 . S
H1235 C1243 0.930 . S
H1236 C1246 0.930 . S
H1237 C1247 0.930 . S
C1238 H1232 0.930 . S
C1238 C1239 1.355 . S
C1238 C1240 1.415 . S
C1239 C1238 1.355 . S
C1239 C1241 1.419 . S
C1240 C1238 1.415 . S
C1240 C1245 1.425 . S
C1240 C1247 1.409 . S
C1241 H1233 0.930 . S
C1241 C1239 1.419 . S
C1241 C1242 1.362 . S
C1242 H1234 0.930 . S
C1242 C1241 1.362 . S
C1242 C1245 1.409 . S
C1243 H1235 0.930 . S
C1243 C1244 1.355 . S
C1243 C1245 1.415 . S
C1244 C1243 1.355 . S
C1244 C1246 1.419 . S
C1245 C1240 1.425 . S
C1245 C1242 1.409 . S
C1245 C1243 1.415 . S
C1246 H1236 0.930 . S
C1246 C1244 1.419 . S
C1246 C1247 1.362 . S
C1247 H1237 0.930 . S
C1247 C1240 1.409 . S
C1247 C1246 1.362 . S
H1248 C1254 0.930 . S
H1249 C1257 0.930 . S
H1250 C1258 0.930 . S
H1251 C1259 0.930 . S
H1252 C1262 0.930 . S
H1253 C1263 0.930 . S
C1254 H1248 0.930 . S
C1254 C1255 1.355 . S
C1254 C1256 1.415 . S
C1255 C1254 1.355 . S
C1255 C1257 1.419 . S
C1256 C1254 1.415 . S
C1256 C1261 1.425 . S
C1256 C1263 1.409 . S
C1257 H1249 0.930 . S
C1257 C1255 1.419 . S
C1257 C1258 1.362 . S
C1258 H1250 0.930 . S
C1258 C1257 1.362 . S
C1258 C1261 1.409 . S
C1259 H1251 0.930 . S
C1259 C1260 1.355 . S
C1259 C1261 1.415 . S
C1260 C1259 1.355 . S
C1260 C1262 1.419 . S
C1261 C1256 1.425 . S
C1261 C1258 1.409 . S
C1261 C1259 1.415 . S
C1262 H1252 0.930 . S
C1262 C1260 1.419 . S
C1262 C1263 1.362 . S
C1263 H1253 0.930 . S
C1263 C1256 1.409 . S
C1263 C1262 1.362 . S
H1264 C1270 0.930 . S
H1265 C1273 0.930 1_554 S
H1266 C1274 0.930 . S
H1267 C1275 0.930 . S
H1268 C1278 0.930 . S
H1269 C1279 0.930 . S
C1270 H1264 0.930 . S
C1270 C1271 1.355 . S
C1270 C1272 1.415 . S
C1271 C1270 1.355 . S
C1271 C1273 1.419 . S
C1272 C1270 1.415 . S
C1272 C1277 1.425 . S
C1272 C1279 1.409 . S
C1273 H1265 0.930 1_556 S
C1273 C1271 1.419 . S
C1273 C1274 1.362 . S
C1274 H1266 0.930 . S
C1274 C1273 1.362 . S
C1274 C1277 1.409 . S
C1275 H1267 0.930 . S
C1275 C1276 1.355 . S
C1275 C1277 1.415 . S
C1276 C1275 1.355 . S
C1276 C1278 1.419 . S
C1277 C1272 1.425 . S
C1277 C1274 1.409 . S
C1277 C1275 1.415 . S
C1278 H1268 0.930 . S
C1278 C1276 1.419 . S
C1278 C1279 1.362 . S
C1279 H1269 0.930 . S
C1279 C1272 1.409 . S
C1279 C1278 1.362 . S
H1280 C1286 0.930 . S
H1281 C1289 0.930 . S
H1282 C1290 0.930 . S
H1283 C1291 0.930 . S
H1284 C1294 0.930 . S
H1285 C1295 0.930 . S
C1286 H1280 0.930 . S
C1286 C1287 1.355 . S
C1286 C1288 1.415 . S
C1287 C1286 1.355 . S
C1287 C1289 1.419 . S
C1288 C1286 1.415 . S
C1288 C1293 1.425 . S
C1288 C1295 1.409 . S
C1289 H1281 0.930 . S
C1289 C1287 1.419 . S
C1289 C1290 1.362 . S
C1290 H1282 0.930 . S
C1290 C1289 1.362 . S
C1290 C1293 1.409 . S
C1291 H1283 0.930 . S
C1291 C1292 1.355 . S
C1291 C1293 1.415 . S
C1292 C1291 1.355 . S
C1292 C1294 1.419 . S
C1293 C1288 1.425 . S
C1293 C1290 1.409 . S
C1293 C1291 1.415 . S
C1294 H1284 0.930 . S
C1294 C1292 1.419 . S
C1294 C1295 1.362 . S
C1295 H1285 0.930 . S
C1295 C1288 1.409 . S
C1295 C1294 1.362 . S
H1296 C1302 0.930 . S
H1297 C1305 0.930 . S
H1298 C1306 0.930 . S
H1299 C1307 0.930 . S
H1300 C1310 0.930 . S
H1301 C1311 0.930 . S
C1302 H1296 0.930 . S
C1302 C1303 1.355 . S
C1302 C1304 1.415 . S
C1303 C1302 1.355 . S
C1303 C1305 1.419 . S
C1304 C1302 1.415 . S
C1304 C1309 1.425 . S
C1304 C1311 1.409 . S
C1305 H1297 0.930 . S
C1305 C1303 1.419 . S
C1305 C1306 1.362 . S
C1306 H1298 0.930 . S
C1306 C1305 1.362 . S
C1306 C1309 1.409 . S
C1307 H1299 0.930 . S
C1307 C1308 1.355 . S
C1307 C1309 1.415 . S
C1308 C1307 1.355 . S
C1308 C1310 1.419 . S
C1309 C1304 1.425 . S
C1309 C1306 1.409 . S
C1309 C1307 1.415 . S
C1310 H1300 0.930 . S
C1310 C1308 1.419 . S
C1310 C1311 1.362 . S
C1311 H1301 0.930 . S
C1311 C1304 1.409 . S
C1311 C1310 1.362 . S
H1312 C1318 0.930 . S
H1313 C1321 0.930 . S
H1314 C1322 0.930 . S
H1315 C1323 0.930 . S
H1316 C1326 0.930 . S
H1317 C1327 0.930 . S
C1318 H1312 0.930 . S
C1318 C1319 1.355 . S
C1318 C1320 1.415 . S
C1319 C1318 1.355 . S
C1319 C1321 1.419 . S
C1320 C1318 1.415 . S
C1320 C1325 1.425 . S
C1320 C1327 1.409 . S
C1321 H1313 0.930 . S
C1321 C1319 1.419 . S
C1321 C1322 1.362 . S
C1322 H1314 0.930 . S
C1322 C1321 1.362 . S
C1322 C1325 1.409 . S
C1323 H1315 0.930 . S
C1323 C1324 1.355 . S
C1323 C1325 1.415 . S
C1324 C1323 1.355 . S
C1324 C1326 1.419 . S
C1325 C1320 1.425 . S
C1325 C1322 1.409 . S
C1325 C1323 1.415 . S
C1326 H1316 0.930 . S
C1326 C1324 1.419 . S
C1326 C1327 1.362 . S
C1327 H1317 0.930 . S
C1327 C1320 1.409 . S
C1327 C1326 1.362 . S
H1328 C1334 0.930 . S
H1329 C1337 0.930 . S
H1330 C1338 0.930 . S
H1331 C1339 0.930 . S
H1332 C1342 0.930 . S
H1333 C1343 0.930 . S
C1334 H1328 0.930 . S
C1334 C1335 1.355 . S
C1334 C1336 1.415 1_455 S
C1335 C1334 1.355 . S
C1335 C1337 1.419 . S
C1336 C1334 1.415 1_655 S
C1336 C1341 1.425 1_654 S
C1336 C1343 1.409 . S
C1337 H1329 0.930 . S
C1337 C1335 1.419 . S
C1337 C1338 1.362 1_554 S
C1338 H1330 0.930 . S
C1338 C1337 1.362 1_556 S
C1338 C1341 1.409 . S
C1339 H1331 0.930 . S
C1339 C1340 1.355 . S
C1339 C1341 1.415 1_655 S
C1340 C1339 1.355 . S
C1340 C1342 1.419 . S
C1341 C1336 1.425 1_456 S
C1341 C1338 1.409 . S
C1341 C1339 1.415 1_455 S
C1342 H1332 0.930 . S
C1342 C1340 1.419 . S
C1342 C1343 1.362 1_556 S
C1343 H1333 0.930 . S
C1343 C1336 1.409 . S
C1343 C1342 1.362 1_554 S
H1344 C1350 0.930 . S
H1345 C1353 0.930 . S
H1346 C1354 0.930 . S
H1347 C1355 0.930 . S
H1348 C1358 0.930 . S
H1349 C1359 0.930 . S
C1350 H1344 0.930 . S
C1350 C1351 1.355 . S
C1350 C1352 1.415 . S
C1351 C1350 1.355 . S
C1351 C1353 1.419 . S
C1352 C1350 1.415 . S
C1352 C1357 1.425 . S
C1352 C1359 1.409 . S
C1353 H1345 0.930 . S
C1353 C1351 1.419 . S
C1353 C1354 1.362 . S
C1354 H1346 0.930 . S
C1354 C1353 1.362 . S
C1354 C1357 1.409 . S
C1355 H1347 0.930 . S
C1355 C1356 1.355 . S
C1355 C1357 1.415 . S
C1356 C1355 1.355 . S
C1356 C1358 1.419 . S
C1357 C1352 1.425 . S
C1357 C1354 1.409 . S
C1357 C1355 1.415 . S
C1358 H1348 0.930 . S
C1358 C1356 1.419 . S
C1358 C1359 1.362 . S
C1359 H1349 0.930 . S
C1359 C1352 1.409 . S
C1359 C1358 1.362 . S
H1360 C1366 0.930 . S
H1361 C1369 0.930 . S
H1362 C1370 0.930 . S
H1363 C1371 0.930 . S
H1364 C1374 0.930 . S
H1365 C1375 0.930 . S
C1366 H1360 0.930 . S
C1366 C1367 1.355 . S
C1366 C1368 1.415 . S
C1367 C1366 1.355 . S
C1367 C1369 1.419 . S
C1368 C1366 1.415 . S
C1368 C1373 1.425 . S
C1368 C1375 1.409 . S
C1369 H1361 0.930 . S
C1369 C1367 1.419 . S
C1369 C1370 1.362 . S
C1370 H1362 0.930 . S
C1370 C1369 1.362 . S
C1370 C1373 1.409 . S
C1371 H1363 0.930 . S
C1371 C1372 1.355 . S
C1371 C1373 1.415 . S
C1372 C1371 1.355 . S
C1372 C1374 1.419 . S
C1373 C1368 1.425 . S
C1373 C1370 1.409 . S
C1373 C1371 1.415 . S
C1374 H1364 0.930 . S
C1374 C1372 1.419 . S
C1374 C1375 1.362 . S
C1375 H1365 0.930 . S
C1375 C1368 1.409 . S
C1375 C1374 1.362 . S
H1376 C1382 0.930 . S
H1377 C1385 0.930 . S
H1378 C1386 0.930 . S
H1379 C1387 0.930 . S
H1380 C1390 0.930 . S
H1381 C1391 0.930 . S
C1382 H1376 0.930 . S
C1382 C1383 1.355 . S
C1382 C1384 1.415 1_455 S
C1383 C1382 1.355 . S
C1383 C1385 1.419 1_565 S
C1384 C1382 1.415 1_655 S
C1384 C1389 1.425 1_666 S
C1384 C1391 1.409 . S
C1385 H1377 0.930 . S
C1385 C1383 1.419 1_545 S
C1385 C1386 1.362 1_556 S
C1386 H1378 0.930 . S
C1386 C1385 1.362 1_554 S
C1386 C1389 1.409 . S
C1387 H1379 0.930 . S
C1387 C1388 1.355 . S
C1387 C1389 1.415 1_655 S
C1388 C1387 1.355 . S
C1388 C1390 1.419 1_545 S
C1389 C1384 1.425 1_444 S
C1389 C1386 1.409 . S
C1389 C1387 1.415 1_455 S
C1390 H1380 0.930 . S
C1390 C1388 1.419 1_565 S
C1390 C1391 1.362 1_554 S
C1391 H1381 0.930 . S
C1391 C1384 1.409 . S
C1391 C1390 1.362 1_556 S
H1392 C1398 0.930 . S
H1393 C1401 0.930 . S
H1394 C1402 0.930 . S
H1395 C1403 0.930 . S
H1396 C1406 0.930 . S
H1397 C1407 0.930 . S
C1398 H1392 0.930 . S
C1398 C1399 1.355 . S
C1398 C1400 1.415 . S
C1399 C1398 1.355 . S
C1399 C1401 1.419 1_565 S
C1400 C1398 1.415 . S
C1400 C1405 1.425 1_565 S
C1400 C1407 1.409 . S
C1401 H1393 0.930 . S
C1401 C1399 1.419 1_545 S
C1401 C1402 1.362 . S
C1402 H1394 0.930 . S
C1402 C1401 1.362 . S
C1402 C1405 1.409 . S
C1403 H1395 0.930 . S
C1403 C1404 1.355 . S
C1403 C1405 1.415 . S
C1404 C1403 1.355 . S
C1404 C1406 1.419 1_545 S
C1405 C1400 1.425 1_545 S
C1405 C1402 1.409 . S
C1405 C1403 1.415 . S
C1406 H1396 0.930 . S
C1406 C1404 1.419 1_565 S
C1406 C1407 1.362 . S
C1407 H1397 0.930 . S
C1407 C1400 1.409 . S
C1407 C1406 1.362 . S
C647 C10 3.396 . S
C652 C410 3.399 . S
C663 C50 3.414 . S
C668 C450 3.414 . S
C679 C90 3.387 . S
C684 C330 3.389 . S
C695 C130 3.384 . S
C700 C370 3.383 . S
C711 C179 3.413 . S
C716 C579 3.414 . S
C727 C219 3.393 . S
C732 C619 3.396 . S
C743 C259 3.414 . S
C748 C499 3.414 . S
C759 C299 3.409 . S
C764 C539 3.407 . S
C775 C369 3.750 . S
C780 C19 3.704 1_556 S
C791 C409 3.750 . S
C796 C59 3.704 . S
C807 C449 3.750 . S
C812 C99 3.704 . S
C823 C329 3.751 . S
C828 C139 3.704 . S
C839 C170 3.704 1_554 S
C844 C538 3.750 . S
C855 C578 3.758 . S
C860 C210 3.686 . S
C871 C618 3.769 . S
C876 C250 3.673 . S
C887 C498 3.771 . S
C892 C290 3.671 . S
C903 C49 3.761 . S
C908 C339 3.681 . S
C919 C379 3.675 . S
C924 C89 3.775 . S
C935 C419 3.701 1_556 S
C940 C129 3.750 . S
C951 C459 3.702 . S
C956 C9 3.755 . S
C967 C490 3.671 . S
C972 C218 3.777 . S
C983 C258 3.770 . S
C988 C530 3.684 . S
C999 C298 3.750 . S
C1004 C570 3.704 1_554 S
C1015 C610 3.701 . S
C1020 C178 3.750 . S
C1031 C6 0.430 . S
C1036 C609 0.364 . S
C1047 C46 0.447 . S
C1052 C169 0.376 . S
C1063 C529 0.428 . S
C1068 C86 0.616 . S
C1079 C249 0.216 . S
C1084 C126 0.436 . S
C1095 C175 0.552 . S
C1100 C458 0.285 . S
C1111 C215 0.381 . S
C1116 C18 0.318 . S
C1127 C378 0.224 . S
C1132 C255 0.462 . S
C1143 C98 0.359 . S
C1148 C295 0.613 . S
C1159 C326 0.378 . S
C1164 C289 0.313 . S
C1175 C366 0.559 . S
C1180 C489 0.428 . S
C1191 C209 0.307 . S
C1196 C406 0.374 . S
C1207 C569 0.340 . S
C1212 C446 0.401 . S
C1223 C495 0.359 . S
C1228 C138 0.265 . S
C1239 C535 0.362 . S
C1244 C338 0.246 . S
C1255 C575 0.414 . S
C1260 C58 0.214 . S
C1271 C418 0.375 . S
C1276 C615 0.621 . S
C1287 C15 1.876 . S
C1292 C486 1.876 . S
C1303 C55 1.840 . S
C1308 C206 1.840 . S
C1319 C95 1.898 . S
C1324 C566 1.898 . S
C1335 C286 1.869 . S
C1340 C135 1.869 . S
C1351 C166 1.831 . S
C1356 C335 1.831 . S
C1367 C415 1.807 . S
C1372 C246 1.807 . S
C1383 C375 1.833 1_565 S
C1388 C526 1.833 1_545 S
C1399 C606 1.803 1_565 S
C1404 C455 1.803 1_545 S
