# Generated by pormake.
# Topology wla, (5)-cn, num edge types: 1
# Building blocks:
#     Node 0, Type 0, BuildingBlock: BEQFEK_clean_sbu_0, # of connection points: 5
#     Node 1, Type 0, BuildingBlock: BEQFEK_clean_sbu_0, # of connection points: 5
#     Node 2, Type 0, BuildingBlock: BEQFEK_clean_sbu_0, # of connection points: 5
#     Node 3, Type 0, BuildingBlock: BEQFEK_clean_sbu_0, # of connection points: 5
#     Node 4, Type 0, BuildingBlock: BEQFEK_clean_sbu_0, # of connection points: 5
#     Node 5, Type 0, BuildingBlock: BEQFEK_clean_sbu_0, # of connection points: 5
#     Node 6, Type 0, BuildingBlock: BEQFEK_clean_sbu_0, # of connection points: 5
#     Node 7, Type 0, BuildingBlock: BEQFEK_clean_sbu_0, # of connection points: 5
#     Node 8, Type 0, BuildingBlock: BEQFEK_clean_sbu_0, # of connection points: 5
#     Node 9, Type 0, BuildingBlock: BEQFEK_clean_sbu_0, # of connection points: 5
#     Node 10, Type 0, BuildingBlock: BEQFEK_clean_sbu_0, # of connection points: 5
#     Node 11, Type 0, BuildingBlock: BEQFEK_clean_sbu_0, # of connection points: 5
#     Node 12, Type 0, BuildingBlock: BEQFEK_clean_sbu_0, # of connection points: 5
#     Node 13, Type 0, BuildingBlock: BEQFEK_clean_sbu_0, # of connection points: 5
#     Node 14, Type 0, BuildingBlock: BEQFEK_clean_sbu_0, # of connection points: 5
#     Node 15, Type 0, BuildingBlock: BEQFEK_clean_sbu_0, # of connection points: 5
#     Node 16, Type 0, BuildingBlock: BEQFEK_clean_sbu_0, # of connection points: 5
#     Node 17, Type 0, BuildingBlock: BEQFEK_clean_sbu_0, # of connection points: 5
#     Edge 18, Type (0, 0), BuildingBlock: XIVTED_clean_linker_0, # of connection points: 2
#     Edge 19, Type (0, 0), BuildingBlock: XIVTED_clean_linker_0, # of connection points: 2
#     Edge 20, Type (0, 0), BuildingBlock: XIVTED_clean_linker_0, # of connection points: 2
#     Edge 21, Type (0, 0), BuildingBlock: XIVTED_clean_linker_0, # of connection points: 2
#     Edge 22, Type (0, 0), BuildingBlock: XIVTED_clean_linker_0, # of connection points: 2
#     Edge 23, Type (0, 0), BuildingBlock: XIVTED_clean_linker_0, # of connection points: 2
#     Edge 24, Type (0, 0), BuildingBlock: XIVTED_clean_linker_0, # of connection points: 2
#     Edge 25, Type (0, 0), BuildingBlock: XIVTED_clean_linker_0, # of connection points: 2
#     Edge 26, Type (0, 0), BuildingBlock: XIVTED_clean_linker_0, # of connection points: 2
#     Edge 27, Type (0, 0), BuildingBlock: XIVTED_clean_linker_0, # of connection points: 2
#     Edge 28, Type (0, 0), BuildingBlock: XIVTED_clean_linker_0, # of connection points: 2
#     Edge 29, Type (0, 0), BuildingBlock: XIVTED_clean_linker_0, # of connection points: 2
#     Edge 30, Type (0, 0), BuildingBlock: XIVTED_clean_linker_0, # of connection points: 2
#     Edge 31, Type (0, 0), BuildingBlock: XIVTED_clean_linker_0, # of connection points: 2
#     Edge 32, Type (0, 0), BuildingBlock: XIVTED_clean_linker_0, # of connection points: 2
#     Edge 33, Type (0, 0), BuildingBlock: XIVTED_clean_linker_0, # of connection points: 2
#     Edge 34, Type (0, 0), BuildingBlock: XIVTED_clean_linker_0, # of connection points: 2
#     Edge 35, Type (0, 0), BuildingBlock: XIVTED_clean_linker_0, # of connection points: 2
#     Edge 36, Type (0, 0), BuildingBlock: XIVTED_clean_linker_0, # of connection points: 2
#     Edge 37, Type (0, 0), BuildingBlock: XIVTED_clean_linker_0, # of connection points: 2
#     Edge 38, Type (0, 0), BuildingBlock: XIVTED_clean_linker_0, # of connection points: 2
#     Edge 39, Type (0, 0), BuildingBlock: XIVTED_clean_linker_0, # of connection points: 2
#     Edge 40, Type (0, 0), BuildingBlock: XIVTED_clean_linker_0, # of connection points: 2
#     Edge 41, Type (0, 0), BuildingBlock: XIVTED_clean_linker_0, # of connection points: 2
#     Edge 42, Type (0, 0), BuildingBlock: XIVTED_clean_linker_0, # of connection points: 2
#     Edge 43, Type (0, 0), BuildingBlock: XIVTED_clean_linker_0, # of connection points: 2
#     Edge 44, Type (0, 0), BuildingBlock: XIVTED_clean_linker_0, # of connection points: 2
#     Edge 45, Type (0, 0), BuildingBlock: XIVTED_clean_linker_0, # of connection points: 2
#     Edge 46, Type (0, 0), BuildingBlock: XIVTED_clean_linker_0, # of connection points: 2
#     Edge 47, Type (0, 0), BuildingBlock: XIVTED_clean_linker_0, # of connection points: 2
#     Edge 48, Type (0, 0), BuildingBlock: XIVTED_clean_linker_0, # of connection points: 2
#     Edge 49, Type (0, 0), BuildingBlock: XIVTED_clean_linker_0, # of connection points: 2
#     Edge 50, Type (0, 0), BuildingBlock: XIVTED_clean_linker_0, # of connection points: 2
#     Edge 51, Type (0, 0), BuildingBlock: XIVTED_clean_linker_0, # of connection points: 2
#     Edge 52, Type (0, 0), BuildingBlock: XIVTED_clean_linker_0, # of connection points: 2
#     Edge 53, Type (0, 0), BuildingBlock: XIVTED_clean_linker_0, # of connection points: 2
#     Edge 54, Type (0, 0), BuildingBlock: XIVTED_clean_linker_0, # of connection points: 2
#     Edge 55, Type (0, 0), BuildingBlock: XIVTED_clean_linker_0, # of connection points: 2
#     Edge 56, Type (0, 0), BuildingBlock: XIVTED_clean_linker_0, # of connection points: 2
#     Edge 57, Type (0, 0), BuildingBlock: XIVTED_clean_linker_0, # of connection points: 2
#     Edge 58, Type (0, 0), BuildingBlock: XIVTED_clean_linker_0, # of connection points: 2
#     Edge 59, Type (0, 0), BuildingBlock: XIVTED_clean_linker_0, # of connection points: 2
#     Edge 60, Type (0, 0), BuildingBlock: XIVTED_clean_linker_0, # of connection points: 2
#     Edge 61, Type (0, 0), BuildingBlock: XIVTED_clean_linker_0, # of connection points: 2
#     Edge 62, Type (0, 0), BuildingBlock: XIVTED_clean_linker_0, # of connection points: 2
# Relax obj value: 0.269
# Max RMSD: 0.180
# Mean RMSD: 0.180
data_MOF--net-wla--node1-BEQFEK_clean_sbu_0--edge1-XIVTED_clean_linker_0
_symmetry_space_group_name_H-M    P1
_symmetry_Int_Tables_number       1
_symmetry_cell_setting            triclinic
loop_
_symmetry_equiv_pos_as_xyz
'x, y, z'
_cell_length_a     63.453214
_cell_length_b     63.474225
_cell_length_c     30.256789
_cell_angle_alpha  90.007642
_cell_angle_beta   90.022356
_cell_angle_gamma 120.03651
loop_
_atom_site_label
_atom_site_type_symbol
_atom_site_fract_x
_atom_site_fract_y
_atom_site_fract_z
_atom_type_partial_charge
Co0 Co 0.13811 0.00544 0.28709 0.0
Co1 Co 0.18616 0.05553 0.28069 0.0
C2 C 0.1791 0.01761 0.34836 0.0
O3 O 0.15802 0.00249 0.33379 0.0
O4 O 0.1916 0.03876 0.33148 0.0
C5 C 0.09755 0.95724 0.30786 0.0
O6 O 0.11112 0.95639 0.33984 0.0
C7 C 0.23762 0.08783 0.25934 0.0
C8 C 0.23838 0.1226 0.24774 0.0
C9 C 0.25269 0.11179 0.24583 0.0
N10 N 0.21544 0.08469 0.26758 0.0
N11 N 0.21609 0.10559 0.26123 0.0
C12 C 0.24392 0.06822 0.26547 0.0
H13 H 0.23175 0.05478 0.2902 0.0
H14 H 0.24138 0.05844 0.23379 0.0
H15 H 0.26312 0.07606 0.27633 0.0
C16 C 0.14835 0.00363 0.19272 0.0
N17 N 0.15479 0.0141 0.23281 0.0
N18 N 0.17471 0.03546 0.22926 0.0
C19 C 0.18136 0.03942 0.18633 0.0
C20 C 0.16493 0.01932 0.16187 0.0
C21 C 0.1261 0.97952 0.18418 0.0
H22 H 0.10978 0.98163 0.18606 0.0
H23 H 0.12437 0.96634 0.20999 0.0
H24 H 0.12679 0.97229 0.15115 0.0
O25 O 0.12886 0.02995 0.30316 0.0
O26 O 0.1626 0.06569 0.29745 0.0
H27 H 0.19979 0.07841 0.18453 0.0
H28 H 0.19879 0.06459 0.13203 0.0
C29 C 0.20074 0.06329 0.1682 0.0
H30 H 0.21885 0.06535 0.17485 0.0
H31 H 0.20112 0.10807 0.26477 0.0
O32 O 0.1064 0.97528 0.28162 0.0
C33 C 0.13996 0.05306 0.30545 0.0
Co34 Co 0.99074 0.12644 0.28371 0.0
Co35 Co 0.94471 0.13136 0.26904 0.0
C36 C 0.98134 0.1593 0.34031 0.0
O37 O -0.00507 0.15094 0.32803 0.0
O38 O 0.96107 0.15297 0.32123 0.0
C39 C 0.03961 0.13387 0.3018 0.0
O40 O 0.04562 0.15495 0.31994 0.0
C41 C 0.91369 0.15246 0.2456 0.0
C42 C 0.88159 0.11958 0.2191 0.0
C43 C 0.89118 0.14431 0.22555 0.0
N44 N 0.91732 0.13341 0.2497 0.0
N45 N 0.89792 0.11381 0.23433 0.0
C46 C 0.93132 0.17765 0.26127 0.0
H47 H 0.94193 0.17697 0.28976 0.0
H48 H 0.94429 0.1879 0.23433 0.0
H49 H 0.92163 0.18743 0.27096 0.0
C50 C -0.00322 0.13728 0.18807 0.0
N51 N 0.98542 0.13495 0.22685 0.0
N52 N 0.96647 0.13776 0.22052 0.0
C53 C 0.96533 0.14229 0.17726 0.0
C54 C 0.98442 0.14201 0.15516 0.0
C55 C 0.01742 0.13242 0.18246 0.0
H56 H 0.01294 0.11516 0.19933 0.0
H57 H 0.03394 0.14728 0.19843 0.0
H58 H 0.02129 0.13103 0.1472 0.0
O59 O 0.96344 0.09446 0.30063 0.0
O60 O 0.93047 0.09695 0.28742 0.0
H61 H 0.92852 0.12996 0.15814 0.0
H62 H 0.95092 0.15372 0.12309 0.0
C63 C 0.94644 0.14698 0.15753 0.0
H64 H 0.94509 0.16088 0.17741 0.0
H65 H 0.8961 0.09655 0.23312 0.0
O66 O 0.01872 0.12113 0.28453 0.0
C67 C 0.94043 0.08489 0.29982 0.0
Co68 Co 0.87179 0.8664 0.30071 0.0
Co69 Co 0.87061 0.81721 0.28684 0.0
C70 C 0.84134 0.82311 0.35787 0.0
O71 O 0.84888 0.84498 0.34603 0.0
O72 O 0.84844 0.80999 0.3383 0.0
C73 C 0.8581 0.90506 0.30418 0.0
O74 O 0.835 0.88913 0.29777 0.0
C75 C 0.85101 0.76615 0.26103 0.0
C76 C 0.88474 0.7668 0.24024 0.0
C77 C 0.85966 0.75198 0.24202 0.0
N78 N 0.87013 0.78837 0.26895 0.0
N79 N 0.89024 0.78846 0.25741 0.0
C80 C 0.82511 0.7599 0.26724 0.0
H81 H 0.82397 0.77667 0.27162 0.0
H82 H 0.81386 0.74943 0.23851 0.0
H83 H 0.81769 0.74851 0.29729 0.0
C84 C 0.8607 0.86072 0.20498 0.0
N85 N 0.86344 0.85223 0.24406 0.0
N86 N 0.86251 0.83122 0.23798 0.0
C87 C 0.85879 0.82554 0.1946 0.0
C88 C 0.85761 0.84407 0.17226 0.0
C89 C 0.86413 0.88563 0.19859 0.0
H90 H 0.87926 0.89889 0.21969 0.0
H91 H 0.84725 0.88548 0.20865 0.0
H92 H 0.8682 0.89161 0.16366 0.0
O93 O 0.90524 0.87418 0.31393 0.0
O94 O 0.90489 0.83946 0.30451 0.0
H95 H 0.8736 0.80245 0.1807 0.0
H96 H 0.85258 0.80131 0.13903 0.0
C97 C 0.85657 0.80288 0.17489 0.0
H98 H 0.84138 0.78688 0.19101 0.0
H99 H 0.90766 0.80368 0.25935 0.0
O100 O 0.87384 0.89829 0.30458 0.0
C101 C 0.91616 0.86201 0.31381 0.0
Co102 Co 0.01333 0.13775 0.69908 0.0
Co103 Co 0.0578 0.18907 0.71807 0.0
C104 C 0.02325 0.18115 0.64432 0.0
O105 O 0.01005 0.15889 0.65524 0.0
O106 O 0.0429 0.19532 0.66495 0.0
C107 C 0.96289 0.09626 0.69159 0.0
O108 O 0.95427 0.11114 0.69582 0.0
C109 C 0.08733 0.24069 0.74416 0.0
C110 C 0.11656 0.23925 0.78157 0.0
C111 C 0.10769 0.25445 0.77011 0.0
N112 N 0.08412 0.21816 0.74093 0.0
N113 N 0.10196 0.2176 0.76252 0.0
C114 C 0.06964 0.24787 0.72742 0.0
H115 H 0.05143 0.23155 0.72256 0.0
H116 H 0.0683 0.26067 0.75069 0.0
H117 H 0.07618 0.25722 0.69516 0.0
C118 C 0.00484 0.14042 0.795 0.0
N119 N 0.01668 0.15023 0.75685 0.0
N120 N 0.03463 0.17247 0.76433 0.0
C121 C 0.03432 0.17776 0.80745 0.0
C122 C 0.01565 0.15755 0.82848 0.0
C123 C 0.98533 0.11436 0.79988 0.0
H124 H 0.98934 0.10266 0.77839 0.0
H125 H 0.96767 0.11239 0.7894 0.0
H126 H 0.98371 0.10808 0.83457 0.0
O127 O 0.04149 0.13411 0.68452 0.0
O128 O 0.07334 0.16996 0.70037 0.0
H129 H 0.0694 0.20393 0.83221 0.0
H130 H 0.0444 0.20394 0.86065 0.0
C131 C 0.05113 0.20193 0.82801 0.0
H132 H 0.05269 0.21663 0.80622 0.0
H133 H 0.10343 0.20204 0.76614 0.0
O134 O 0.98568 0.10444 0.69329 0.0
C135 C 0.06436 0.14814 0.68716 0.0
Co136 Co 0.86735 0.87154 0.71638 0.0
Co137 Co 0.81814 0.87061 0.73083 0.0
C138 C 0.82326 0.84052 0.66078 0.0
O139 O 0.84512 0.84793 0.67258 0.0
O140 O 0.81038 0.84814 0.67966 0.0
C141 C 0.91005 0.87935 0.67789 0.0
O142 O 0.90007 0.88502 0.64536 0.0
C143 C 0.76677 0.85382 0.7532 0.0
C144 C 0.77084 0.88695 0.78538 0.0
C145 C 0.75399 0.86295 0.77582 0.0
N146 N 0.79022 0.87148 0.75086 0.0
N147 N 0.79242 0.89132 0.76944 0.0
C148 C 0.75704 0.829 0.73358 0.0
H149 H 0.7665 0.8302 0.70213 0.0
H150 H 0.76045 0.81744 0.75664 0.0
H151 H 0.73721 0.8203 0.72709 0.0
C152 C 0.86207 0.86136 0.8122 0.0
N153 N 0.85354 0.86409 0.77317 0.0
N154 N 0.83221 0.8624 0.77906 0.0
C155 C 0.82614 0.85783 0.82212 0.0
C156 C 0.84497 0.85729 0.84471 0.0
C157 C 0.8872 0.86531 0.81846 0.0
H158 H 0.90024 0.88059 0.79737 0.0
H159 H 0.88745 0.84867 0.80806 0.0
H160 H 0.89322 0.86944 0.85337 0.0
O161 O 0.87539 0.90483 0.70044 0.0
O162 O 0.84074 0.90446 0.71172 0.0
H163 H 0.8028 0.8711 0.84354 0.0
H164 H 0.79916 0.84508 0.87435 0.0
C165 C 0.80254 0.85354 0.84113 0.0
H166 H 0.7874 0.84121 0.8192 0.0
H167 H 0.80886 0.90765 0.77258 0.0
O168 O 0.89838 0.87153 0.71388 0.0
C169 C 0.86304 0.91558 0.70056 0.0
Co170 Co 0.13444 0.00067 0.70503 0.0
Co171 Co 0.13365 0.95223 0.72647 0.0
C172 C 0.16326 0.98473 0.65175 0.0
O173 O 0.1573 0.00053 0.66167 0.0
O174 O 0.15489 0.96479 0.673 0.0
C175 C 0.14836 0.05277 0.6923 0.0
O176 O 0.1717 0.06008 0.69436 0.0
C177 C 0.15209 0.92031 0.75669 0.0
C178 C 0.11796 0.88853 0.78013 0.0
C179 C 0.14285 0.8978 0.77729 0.0
N180 N 0.1335 0.92425 0.74886 0.0
N181 N 0.11315 0.90507 0.76243 0.0
C182 C 0.17785 0.93756 0.74333 0.0
H183 H 0.1784 0.94876 0.71485 0.0
H184 H 0.18765 0.95005 0.77115 0.0
H185 H 0.18737 0.92748 0.73451 0.0
C186 C 0.14812 0.01003 0.79984 0.0
N187 N 0.14302 -0.00344 0.76281 0.0
N188 N 0.14307 0.97628 0.77181 0.0
C189 C 0.1482 0.97623 0.81507 0.0
C190 C 0.15177 -0.00233 0.83407 0.0
C191 C 0.14912 0.03405 0.8022 0.0
H192 H 0.16417 0.04727 0.78095 0.0
H193 H 0.15225 0.04129 0.8364 0.0
H194 H 0.13189 0.03212 0.78921 0.0
O195 O 0.10085 0.97482 0.69105 0.0
O196 O 0.09963 0.9405 0.70944 0.0
H197 H 0.14733 0.95724 0.87535 0.0
H198 H 0.16243 0.95273 0.829 0.0
C199 C 0.14684 0.95493 0.83897 0.0
H200 H 0.12974 0.93816 0.83008 0.0
H201 H 0.09601 0.90352 0.76064 0.0
O202 O 0.1326 0.03047 0.69759 0.0
C203 C 0.08925 0.95181 0.69512 0.0
Co204 Co 0.80011 0.342 0.607 0.0
Co205 Co 0.84895 0.39101 0.59706 0.0
C206 C 0.84255 0.35468 0.66627 0.0
O207 O 0.82105 0.3399 0.6529 0.0
O208 O 0.85543 0.37546 0.64832 0.0
C209 C 0.75884 0.2966 0.63579 0.0
O210 O 0.77139 0.29945 0.67205 0.0
C211 C 0.90064 0.42436 0.57988 0.0
C212 C 0.89919 0.45481 0.54728 0.0
C213 C 0.91479 0.44639 0.55869 0.0
N214 N 0.8776 0.41984 0.58056 0.0
N215 N 0.87693 0.43833 0.56193 0.0
C216 C 0.90811 0.40642 0.59386 0.0
H217 H 0.89234 0.38763 0.59252 0.0
H218 H 0.92298 0.40779 0.57255 0.0
H219 H 0.91485 0.41043 0.62841 0.0
C220 C 0.80837 0.33826 0.51223 0.0
N221 N 0.81557 0.3494 0.55167 0.0
N222 N 0.83658 0.36962 0.54731 0.0
C223 C 0.84372 0.37173 0.50476 0.0
C224 C 0.82601 0.35203 0.48105 0.0
C225 C 0.78382 0.31642 0.50425 0.0
H226 H 0.76965 0.31921 0.52011 0.0
H227 H 0.78317 0.30027 0.51977 0.0
H228 H 0.77958 0.3129 0.46856 0.0
O229 O 0.7915 0.36683 0.62229 0.0
O230 O 0.82583 0.40187 0.61449 0.0
H231 H 0.86659 0.4091 0.48705 0.0
H232 H 0.87109 0.38815 0.45336 0.0
C233 C 0.86725 0.39197 0.48725 0.0
H234 H 0.88235 0.39443 0.50893 0.0
H235 H 0.86103 0.43909 0.5572 0.0
O236 O 0.7685 0.31162 0.60421 0.0
C237 C 0.80325 0.38994 0.62352 0.0
Co238 Co 0.65701 0.4657 0.61797 0.0
Co239 Co 0.60802 0.46547 0.60928 0.0
C240 C 0.64462 0.49451 0.67947 0.0
O241 O 0.65922 0.48765 0.66581 0.0
O242 O 0.62398 0.48715 0.66116 0.0
C243 C 0.70572 0.47346 0.63788 0.0
O244 O 0.70788 0.48887 0.66898 0.0
C245 C 0.57631 0.48493 0.58662 0.0
C246 C 0.54283 0.45141 0.56626 0.0
C247 C 0.55339 0.47644 0.56866 0.0
N248 N 0.57927 0.46574 0.59405 0.0
N249 N 0.55903 0.44572 0.58272 0.0
C250 C 0.59611 0.51084 0.5916 0.0
H251 H 0.61414 0.51204 0.59406 0.0
H252 H 0.59597 0.5219 0.56329 0.0
H253 H 0.5929 0.51843 0.62225 0.0
C254 C 0.66195 0.48084 0.52515 0.0
N255 N 0.65015 0.47546 0.56401 0.0
N256 N 0.62925 0.47486 0.55916 0.0
C257 C 0.627 0.4796 0.51643 0.0
C258 C 0.64769 0.48362 0.49365 0.0
C259 C 0.68607 0.48244 0.51831 0.0
H260 H 0.68362 0.46387 0.51959 0.0
H261 H 0.69868 0.49331 0.5453 0.0
H262 H 0.69423 0.49093 0.48606 0.0
O263 O 0.63186 0.4317 0.63027 0.0
O264 O 0.5969 0.43135 0.62528 0.0
H265 H 0.58819 0.46078 0.50925 0.0
H266 H 0.60447 0.47628 0.45996 0.0
C267 C 0.60435 0.47734 0.49654 0.0
H268 H 0.60287 0.49343 0.5059 0.0
H269 H 0.55675 0.42827 0.58403 0.0
O270 O 0.68687 0.46376 0.61358 0.0
C271 C 0.60875 0.42042 0.63207 0.0
Co272 Co 0.53161 0.19747 0.62398 0.0
Co273 Co 0.53318 0.14921 0.61856 0.0
C274 C 0.50365 0.15721 0.68725 0.0
O275 O 0.50989 0.17832 0.67252 0.0
O276 O 0.5116 0.14422 0.66997 0.0
C277 C 0.52683 0.23939 0.64621 0.0
O278 O 0.51674 0.22802 0.68327 0.0
C279 C 0.5138 0.09785 0.59676 0.0
C280 C 0.54777 0.09698 0.58528 0.0
C281 C 0.52264 0.08286 0.58274 0.0
N282 N 0.5329 0.11988 0.60583 0.0
N283 N 0.55312 0.11914 0.59965 0.0
C284 C 0.48786 0.09155 0.60267 0.0
H285 H 0.48646 0.10285 0.62917 0.0
H286 H 0.48107 0.09541 0.5717 0.0
H287 H 0.4762 0.072 0.61101 0.0
C288 C 0.51669 0.1855 0.53138 0.0
N289 N 0.52201 0.17977 0.57098 0.0
N290 N 0.52358 0.15994 0.56737 0.0
C291 C 0.51979 0.1527 0.52471 0.0
C292 C 0.51512 0.16857 0.50072 0.0
C293 C 0.5144 0.2075 0.52292 0.0
H294 H 0.50336 0.20934 0.54943 0.0
H295 H 0.50577 0.20636 0.49043 0.0
H296 H 0.53278 0.22395 0.52359 0.0
O297 O 0.56587 0.20715 0.63657 0.0
O298 O 0.5672 0.17298 0.63365 0.0
H299 H 0.52781 0.13595 0.46978 0.0
H300 H 0.50812 0.11535 0.5114 0.0
C301 C 0.52432 0.1335 0.50586 0.0
H302 H 0.54022 0.1341 0.52227 0.0
H303 H 0.57061 0.13402 0.60364 0.0
O304 O 0.5327 0.22884 0.6171 0.0
C305 C 0.57765 0.19585 0.63924 0.0
Co306 Co 0.67105 0.47313 0.04111 0.0
Co307 Co 0.7193 0.52227 0.05535 0.0
C308 C 0.68411 0.51535 0.98247 0.0
O309 O 0.66934 0.49368 0.99469 0.0
O310 O 0.70435 0.52836 0.00221 0.0
C311 C 0.63794 0.42807 0.00677 0.0
O312 O 0.65407 0.437 0.97477 0.0
C313 C 0.74867 0.57313 0.08363 0.0
C314 C 0.78497 0.57658 0.09045 0.0
C315 C 0.77256 0.58918 0.09577 0.0
N316 N 0.74704 0.55191 0.07231 0.0
N317 N 0.76881 0.55414 0.07616 0.0
C318 C 0.72802 0.57812 0.08043 0.0
H319 H 0.71369 0.56486 0.05798 0.0
H320 H 0.7198 0.57638 0.11348 0.0
H321 H 0.73471 0.59696 0.06849 0.0
C322 C 0.6636 0.48092 0.13426 0.0
N323 N 0.67631 0.48843 0.09641 0.0
N324 N 0.69699 0.50869 0.10358 0.0
C325 C 0.69836 0.51433 0.14691 0.0
C326 C 0.67712 0.49707 0.16756 0.0
C327 C 0.63932 0.45826 0.13835 0.0
H328 H 0.64189 0.4422 0.1377 0.0
H329 H 0.62768 0.45682 0.10983 0.0
H330 H 0.63002 0.45811 0.1695 0.0
O331 O 0.69731 0.46565 0.02879 0.0
O332 O 0.73168 0.5003 0.03967 0.0
H333 H 0.73733 0.5354 0.15296 0.0
H334 H 0.72125 0.52869 0.20476 0.0
C335 C 0.72088 0.5334 0.16955 0.0
H336 H 0.72127 0.55103 0.16844 0.0
H337 H 0.7726 0.54023 0.06958 0.0
O338 O 0.64074 0.44127 0.04032 0.0
C339 C 0.72045 0.47785 0.02971 0.0
Co340 Co 0.53001 0.20224 0.04782 0.0
Co341 Co 0.48309 0.20544 0.06328 0.0
C342 C 0.48711 0.17517 0.9903 0.0
O343 O 0.50832 0.18011 0.00232 0.0
O344 O 0.47575 0.1843 0.00991 0.0
C345 C 0.56983 0.19442 0.02056 0.0
O346 O 0.55671 0.18272 0.98589 0.0
C347 C 0.43237 0.18667 0.08968 0.0
C348 C 0.43325 0.2205 0.11045 0.0
C349 C 0.41832 0.19544 0.10879 0.0
N350 N 0.45465 0.20566 0.08177 0.0
N351 N 0.45495 0.22584 0.09359 0.0
C352 C 0.42496 0.16094 0.07809 0.0
H353 H 0.43583 0.16045 0.04994 0.0
H354 H 0.4284 0.15213 0.10668 0.0
H355 H 0.40535 0.15046 0.06939 0.0
C356 C 0.52169 0.1871 0.14101 0.0
N357 N 0.51495 0.19342 0.10344 0.0
N358 N 0.49536 0.19501 0.11079 0.0
C359 C 0.48925 0.19013 0.15383 0.0
C360 C 0.50564 0.18479 0.17418 0.0
C361 C 0.5434 0.18384 0.14495 0.0
H362 H 0.56021 0.20191 0.14312 0.0
H363 H 0.54363 0.17268 0.11695 0.0
H364 H 0.54327 0.17488 0.17652 0.0
O365 O 0.53954 0.23635 0.03338 0.0
O366 O 0.5069 0.23933 0.04785 0.0
H367 H 0.47106 0.2105 0.1643 0.0
H368 H 0.4726 0.19485 0.21275 0.0
C369 C 0.47019 0.19361 0.17635 0.0
H370 H 0.45196 0.17799 0.16866 0.0
H371 H 0.47024 0.2432 0.09157 0.0
O372 O 0.5611 0.20247 0.0494 0.0
C373 C 0.52896 0.24885 0.03567 0.0
Co374 Co 0.7935 0.32816 0.02741 0.0
Co375 Co 0.79745 0.28155 0.04236 0.0
C376 C 0.82424 0.31615 0.96917 0.0
O377 O 0.81628 0.33013 0.98114 0.0
O378 O 0.81809 0.29623 0.9892 0.0
C379 C 0.8034 0.37951 0.02198 0.0
O380 O 0.82706 0.3885 0.02421 0.0
C381 C 0.81747 0.24947 0.06484 0.0
C382 C 0.78535 0.21956 0.09796 0.0
C383 C 0.80951 0.2278 0.08782 0.0
N384 N 0.79894 0.25402 0.06279 0.0
N385 N 0.77973 0.23587 0.08199 0.0
C386 C 0.84197 0.26544 0.04465 0.0
H387 H 0.8536 0.28004 0.0683 0.0
H388 H 0.85096 0.25479 0.03634 0.0
H389 H 0.8402 0.27418 0.0143 0.0
C390 C 0.80699 0.33564 0.12214 0.0
N391 N 0.80347 0.32378 0.08352 0.0
N392 N 0.80613 0.30469 0.0895 0.0
C393 C 0.81212 0.30422 0.13212 0.0
C394 C 0.81263 0.32364 0.15433 0.0
C395 C 0.80215 0.35621 0.12881 0.0
H396 H 0.78612 0.35307 0.10903 0.0
H397 H 0.81815 0.37335 0.11731 0.0
H398 H 0.7987 0.35825 0.16405 0.0
O399 O 0.76052 0.30128 0.0162 0.0
O400 O 0.76265 0.26792 0.02655 0.0
H401 H 0.80052 0.26799 0.15399 0.0
H402 H 0.82635 0.29126 0.18407 0.0
C403 C 0.81762 0.28573 0.15111 0.0
H404 H 0.83021 0.28353 0.1289 0.0
H405 H 0.76296 0.23501 0.08548 0.0
O406 O 0.78909 0.35667 0.02391 0.0
C407 C 0.75049 0.27826 0.0173 0.0
Co408 Co 0.47016 0.67558 0.94875 0.0
Co409 Co 0.51995 0.72405 0.9412 0.0
C410 C 0.51133 0.68674 0.01023 0.0
O411 O 0.48988 0.67252 0.99603 0.0
O412 O 0.52491 0.70747 0.99261 0.0
C413 C 0.42878 0.6282 0.9718 0.0
O414 O 0.44197 0.62761 0.00474 0.0
C415 C 0.57224 0.75709 0.9243 0.0
C416 C 0.57135 0.78909 0.89773 0.0
C417 C 0.58672 0.7799 0.9055 0.0
N418 N 0.54927 0.75283 0.92616 0.0
N419 N 0.54897 0.7722 0.91101 0.0
C420 C 0.57987 0.73965 0.94064 0.0
H421 H 0.5692 0.72992 0.97027 0.0
H422 H 0.57627 0.72589 0.9147 0.0
H423 H 0.59952 0.74927 0.94914 0.0
C424 C 0.47926 0.67259 0.85429 0.0
N425 N 0.48649 0.68309 0.89423 0.0
N426 N 0.50766 0.70322 0.89061 0.0
C427 C 0.51479 0.70598 0.84795 0.0
C428 C 0.49698 0.68672 0.82348 0.0
C429 C 0.45445 0.65131 0.84554 0.0
H430 H 0.44052 0.65475 0.86059 0.0
H431 H 0.45294 0.63487 0.86149 0.0
H432 H 0.45052 0.64785 0.80976 0.0
O433 O 0.46211 0.70097 0.96275 0.0
O434 O 0.49719 0.73553 0.95761 0.0
H435 H 0.53739 0.7438 0.83318 0.0
H436 H 0.54163 0.72383 0.79615 0.0
C437 C 0.5381 0.72673 0.83087 0.0
H438 H 0.55342 0.7287 0.85134 0.0
H439 H 0.53328 0.77353 0.90823 0.0
O440 O 0.43807 0.64577 0.94456 0.0
C441 C 0.4744 0.72405 0.96475 0.0
Co442 Co 0.32953 0.80108 0.94442 0.0
Co443 Co 0.28049 0.80112 0.93739 0.0
C444 C 0.31751 0.83004 0.00677 0.0
O445 O 0.33203 0.82329 0.99226 0.0
O446 O 0.29674 0.8226 0.98907 0.0
C447 C 0.37629 0.80678 0.96928 0.0
O448 O 0.37455 0.81718 0.00554 0.0
C449 C 0.24657 0.81936 0.9225 0.0
C450 C 0.21507 0.78656 0.89427 0.0
C451 C 0.22374 0.81089 0.90371 0.0
N452 N 0.25136 0.801 0.9228 0.0
N453 N 0.2323 0.78137 0.90664 0.0
C454 C 0.26354 0.84425 0.94034 0.0
H455 H 0.27279 0.84294 0.97035 0.0
H456 H 0.27771 0.85489 0.9153 0.0
H457 H 0.25364 0.85397 0.94884 0.0
C458 C 0.33227 0.81364 0.85025 0.0
N459 N 0.32169 0.80988 0.89018 0.0
N460 N 0.30132 0.81045 0.88679 0.0
C461 C 0.29849 0.81506 0.8443 0.0
C462 C 0.31796 0.81714 0.81969 0.0
C463 C 0.35381 0.8106 0.84115 0.0
H464 H 0.35073 0.79332 0.85608 0.0
H465 H 0.37018 0.82573 0.85697 0.0
H466 H 0.35718 0.81021 0.80532 0.0
O467 O 0.30481 0.76726 0.95813 0.0
O468 O 0.26983 0.76695 0.95322 0.0
H469 H 0.26066 0.79914 0.82892 0.0
H470 H 0.28042 0.82415 0.79313 0.0
C471 C 0.27746 0.81721 0.82752 0.0
H472 H 0.27491 0.82994 0.84878 0.0
H473 H 0.2314 0.76461 0.90263 0.0
O474 O 0.36004 0.8003 0.9396 0.0
C475 C 0.2817 0.75603 0.96016 0.0
Co476 Co 0.2016 0.53293 0.95338 0.0
Co477 Co 0.20236 0.48433 0.94737 0.0
C478 C 0.173 0.49264 0.01627 0.0
O479 O 0.17947 0.5138 0.00147 0.0
O480 O 0.18071 0.47944 -0.00105 0.0
C481 C 0.19597 0.57469 0.97434 0.0
O482 O 0.18321 0.56242 0.0089 0.0
C483 C 0.1815 0.433 0.92563 0.0
C484 C 0.21446 0.43113 0.90896 0.0
C485 C 0.18928 0.41769 0.90926 0.0
N486 N 0.20122 0.45465 0.93417 0.0
N487 N 0.22088 0.45328 0.92511 0.0
C488 C 0.15593 0.42824 0.92774 0.0
H489 H 0.15573 0.44558 0.93044 0.0
H490 H 0.14557 0.41801 0.89806 0.0
H491 H 0.14683 0.41691 0.95722 0.0
C492 C 0.18781 0.52208 0.86001 0.0
N493 N 0.19226 0.51574 0.89981 0.0
N494 N 0.19334 0.49565 0.8961 0.0
C495 C 0.18997 0.48877 0.85323 0.0
C496 C 0.18628 0.50526 0.82907 0.0
C497 C 0.1863 0.54452 0.8517 0.0
H498 H 0.17519 0.54653 0.87788 0.0
H499 H 0.17812 0.54386 0.81894 0.0
H500 H 0.20488 0.56066 0.85309 0.0
O501 O 0.23554 0.54182 0.96681 0.0
O502 O 0.23658 0.50753 0.96274 0.0
H503 H 0.19665 0.47088 0.79837 0.0
H504 H 0.17757 0.45114 0.84167 0.0
C505 C 0.1938 0.46907 0.83465 0.0
H506 H 0.2099 0.46973 0.85029 0.0
H507 H 0.23864 0.46788 0.92756 0.0
O508 O 0.20357 0.56473 0.94719 0.0
C509 C 0.24718 0.53036 0.9691 0.0
Co510 Co 0.34458 0.80604 0.36553 0.0
Co511 Co 0.39081 0.85659 0.38199 0.0
C512 C 0.35564 0.84961 0.31039 0.0
O513 O 0.34188 0.82754 0.32186 0.0
O514 O 0.37584 0.86324 0.32982 0.0
C515 C 0.29311 0.76595 0.36127 0.0
O516 O 0.28532 0.78132 0.36835 0.0
C517 C 0.42322 0.90841 0.4057 0.0
C518 C 0.45202 0.90535 0.44131 0.0
C519 C 0.44437 0.92164 0.43041 0.0
N520 N 0.41834 0.88523 0.40354 0.0
N521 N 0.43588 0.88369 0.42411 0.0
C522 C 0.40801 0.91741 0.38402 0.0
H523 H 0.40042 0.90762 0.35252 0.0
H524 H 0.39255 0.91384 0.40592 0.0
H525 H 0.41891 0.93722 0.37723 0.0
C526 C 0.33747 0.81064 0.46147 0.0
N527 N 0.34924 0.81933 0.42284 0.0
N528 N 0.36791 0.84133 0.42905 0.0
C529 C 0.36817 0.84762 0.47169 0.0
C530 C 0.34909 0.8283 0.49382 0.0
C531 C 0.31708 0.78511 0.46793 0.0
H532 H 0.31961 0.77252 0.4461 0.0
H533 H 0.29964 0.78413 0.45912 0.0
H534 H 0.31605 0.77918 0.50274 0.0
O535 O 0.37156 0.80059 0.3501 0.0
O536 O 0.40455 0.8359 0.36416 0.0
H537 H 0.40376 0.87331 0.49513 0.0
H538 H 0.3795 0.87515 0.52279 0.0
C539 C 0.3858 0.872 0.49059 0.0
H540 H 0.3879 0.88643 0.46753 0.0
H541 H 0.43632 0.86757 0.42787 0.0
O542 O 0.31577 0.77341 0.36063 0.0
C543 C 0.39457 0.81386 0.35178 0.0
Co544 Co 0.19821 0.54172 0.37509 0.0
Co545 Co 0.14908 0.53967 0.39503 0.0
C546 C 0.15423 0.51164 0.32005 0.0
O547 O 0.17627 0.51887 0.33043 0.0
O548 O 0.14144 0.51864 0.3413 0.0
C549 C 0.23823 0.53101 0.35928 0.0
O550 O 0.22255 0.50789 0.35231 0.0
C551 C 0.09815 0.5194 0.42218 0.0
C552 C 0.09965 0.55174 0.45301 0.0
C553 C 0.0844 0.52719 0.44508 0.0
N554 N 0.12066 0.53851 0.41721 0.0
N555 N 0.12132 0.55786 0.43501 0.0
C556 C 0.09091 0.49391 0.40929 0.0
H557 H 0.10724 0.49189 0.40613 0.0
H558 H 0.07816 0.48076 0.43394 0.0
H559 H 0.08151 0.48976 0.37684 0.0
C560 C 0.19315 0.52635 0.46857 0.0
N561 N 0.18488 0.53183 0.43189 0.0
N562 N 0.16396 0.53061 0.44052 0.0
C563 C 0.15825 0.52424 0.48326 0.0
C564 C 0.17649 0.52125 0.50231 0.0
C565 C 0.2166 0.52617 0.47093 0.0
H566 H 0.23193 0.54467 0.46358 0.0
H567 H 0.21658 0.51364 0.44537 0.0
H568 H 0.21937 0.52022 0.50382 0.0
O569 O 0.20457 0.57489 0.36266 0.0
O570 O 0.17025 0.57412 0.37878 0.0
H571 H 0.13706 0.54066 0.50067 0.0
H572 H 0.13761 0.52096 0.54272 0.0
C573 C 0.13705 0.52344 0.50657 0.0
H574 H 0.11991 0.5082 0.49321 0.0
H575 H 0.13688 0.57506 0.43643 0.0
O576 O 0.23082 0.54555 0.36993 0.0
C577 C 0.19222 0.58555 0.36597 0.0
Co578 Co 0.46286 0.66389 0.36704 0.0
Co579 Co 0.46443 0.61653 0.38684 0.0
C580 C 0.49338 0.64925 0.31341 0.0
O581 O 0.48611 0.66404 0.32363 0.0
O582 O 0.48609 0.62935 0.33431 0.0
C583 C 0.47657 0.71617 0.35975 0.0
O584 O 0.49948 0.72348 0.36864 0.0
C585 C 0.4814 0.5828 0.41332 0.0
C586 C 0.44958 0.55622 0.45219 0.0
C587 C 0.47297 0.5624 0.43994 0.0
N588 N 0.46381 0.58862 0.4105 0.0
N589 N 0.44467 0.57236 0.43295 0.0
C590 C 0.50662 0.59822 0.39561 0.0
H591 H 0.5107 0.61722 0.39071 0.0
H592 H 0.52023 0.59795 0.4183 0.0
H593 H 0.50798 0.59079 0.36321 0.0
C594 C 0.47459 0.67205 0.463 0.0
N595 N 0.47116 0.65971 0.42492 0.0
N596 N 0.47346 0.64053 0.43237 0.0
C597 C 0.47931 0.64056 0.4752 0.0
C598 C 0.47983 0.66027 0.49625 0.0
C599 C 0.47043 0.69314 0.46812 0.0
H600 H 0.45585 0.69115 0.44535 0.0
H601 H 0.48744 0.71016 0.45968 0.0
H602 H 0.46526 0.69459 0.50254 0.0
O603 O 0.42967 0.63786 0.35312 0.0
O604 O 0.43023 0.60413 0.36867 0.0
H605 H 0.46821 0.60512 0.50092 0.0
H606 H 0.49498 0.62925 0.52725 0.0
C607 C 0.48525 0.62261 0.49534 0.0
H608 H 0.49709 0.61953 0.47265 0.0
H609 H 0.42867 0.57301 0.43697 0.0
O610 O 0.46089 0.69363 0.35944 0.0
C611 C 0.41895 0.61482 0.35573 0.0
H612 H 0.09082 0.03203 0.31694 0.0
H613 H 0.08793 0.15639 0.32651 0.0
H614 H 0.15661 0.10217 0.3115 0.0
H615 H 0.02769 0.08709 0.28552 0.0
H616 H 0.1132 0.13718 0.33356 0.0
H617 H 0.06705 0.05244 0.32034 0.0
C618 C 0.10032 0.05174 0.31693 0.0
C619 C 0.12576 0.06539 0.31336 0.0
C620 C 0.09443 0.12631 0.32304 0.0
C621 C 0.09853 0.08888 0.31696 0.0
C622 C 0.08005 0.13722 0.31898 0.0
C623 C 0.05572 0.12336 0.30519 0.0
C624 C 0.0842 0.10136 0.31395 0.0
C625 C 0.04638 0.09858 0.29596 0.0
C626 C 0.0867 0.06338 0.31864 0.0
C627 C 0.13701 0.09092 0.31382 0.0
N628 N 0.06059 0.0884 0.30068 0.0
N629 N 0.12329 0.10189 0.31526 0.0
H630 H 0.83546 0.93108 0.28174 0.0
H631 H 0.95385 0.05681 0.3463 0.0
H632 H 0.9001 0.93825 0.34334 0.0
H633 H 0.89266 0.05356 0.27756 0.0
H634 H 0.93089 0.01291 0.35548 0.0
H635 H 0.85276 0.97537 0.28886 0.0
C636 C 0.85311 0.94191 0.29716 0.0
C637 C 0.86655 0.93109 0.31133 0.0
C638 C 0.92232 0.02172 0.33865 0.0
C639 C 0.88626 0.98135 0.31977 0.0
C640 C 0.93546 0.04684 0.33342 0.0
C641 C 0.92528 0.0588 0.31057 0.0
C642 C 0.89888 0.00829 0.32037 0.0
C643 C 0.90123 0.04499 0.29517 0.0
C644 C 0.86297 0.96712 0.30117 0.0
C645 C 0.88928 0.94586 0.33121 0.0
N646 N 0.88892 0.02035 0.29978 0.0
N647 N 0.89842 0.97016 0.33459 0.0
H648 H 0.94699 0.91101 0.31281 0.0
H649 H 0.07125 0.91404 0.35318 0.0
H650 H 0.94637 0.84292 0.32629 0.0
H651 H 0.06329 0.96195 0.26193 0.0
H652 H 0.02653 0.88922 0.35785 0.0
H653 H 0.99128 0.93243 0.31174 0.0
C654 C 0.95613 0.90054 0.3162 0.0
C655 C 0.9429 0.87507 0.31929 0.0
C656 C 0.03477 0.90507 0.3366 0.0
C657 C -0.00632 0.89963 0.31804 0.0
C658 C 0.06017 0.91919 0.33385 0.0
C659 C 0.07102 0.94015 0.30727 0.0
C660 C 0.02038 0.91244 0.3135 0.0
C661 C 0.05581 0.946 0.2829 0.0
C662 C 0.98141 0.9128 0.31522 0.0
C663 C 0.95588 0.86256 0.32355 0.0
N664 N 0.03132 0.93243 0.28711 0.0
N665 N 0.98067 0.875 0.3228 0.0
H666 H 0.10706 0.04229 0.64901 0.0
H667 H 0.11242 0.16679 0.71034 0.0
H668 H 0.16966 0.10168 0.71189 0.0
H669 H 0.05284 0.10646 0.64272 0.0
H670 H 0.13636 0.14631 0.70318 0.0
H671 H 0.08978 0.06839 0.63818 0.0
C672 C 0.11723 0.06096 0.66042 0.0
C673 C 0.13963 0.06978 0.682 0.0
C674 C 0.11818 0.13777 0.68941 0.0
C675 C 0.11974 0.09988 0.67019 0.0
C676 C 0.10452 0.14946 0.69337 0.0
C677 C 0.08045 0.13811 0.67772 0.0
C678 C 0.10762 0.11468 0.66959 0.0
C679 C 0.07116 0.1157 0.65595 0.0
C680 C 0.10738 0.07593 0.6541 0.0
C681 C 0.15225 0.09422 0.69532 0.0
N682 N 0.08467 0.10468 0.65291 0.0
N683 N 0.14192 0.10841 0.68984 0.0
H684 H 0.97548 0.06337 0.66385 0.0
H685 H 0.8454 0.94702 0.71049 0.0
H686 H 0.91333 0.06895 0.70517 0.0
H687 H 0.90899 0.94423 0.66831 0.0
H688 H 0.86817 0.99131 0.70167 0.0
H689 H 0.94971 0.01957 0.65844 0.0
C690 C 0.95632 0.05536 0.67172 0.0
C691 C 0.94659 0.06983 0.68552 0.0
C692 C 0.87702 0.98094 0.69395 0.0
C693 C 0.91683 0.01936 0.67954 0.0
C694 C 0.86403 0.95565 0.69887 0.0
C695 C 0.8754 0.9419 0.69061 0.0
C696 C 0.90149 0.99248 0.68068 0.0
C697 C 0.89954 0.95407 0.67556 0.0
C698 C 0.94157 0.03027 0.6685 0.0
C699 C 0.92157 0.05843 0.69462 0.0
N700 N 0.91179 0.97863 0.67141 0.0
N701 N 0.90755 0.03376 0.69191 0.0
H702 H 0.06328 0.9661 0.64364 0.0
H703 H 0.93538 0.86645 0.73464 0.0
H704 H 0.0553 0.90674 0.72524 0.0
H705 H 0.94317 0.90635 0.6144 0.0
H706 H 0.97917 0.88111 0.73327 0.0
H707 H 0.01914 0.94498 0.63378 0.0
C708 C 0.05224 0.94853 0.6592 0.0
C709 C 0.06292 0.93822 0.68552 0.0
C710 C 0.97119 0.88634 0.70689 0.0
C711 C 0.01247 0.91414 0.67482 0.0
C712 C 0.94624 0.87804 0.7077 0.0
C713 C 0.93568 0.88537 0.67479 0.0
C714 C 0.98565 0.9024 0.67342 0.0
C715 C 0.95056 0.90033 0.64055 0.0
C716 C 0.02708 0.93645 0.65341 0.0
C717 C 0.04779 0.91534 0.70468 0.0
N718 N 0.97486 0.90865 0.64111 0.0
N719 N 0.02325 0.9042 0.69949 0.0
H720 H 0.75021 0.49068 0.67912 0.0
H721 H 0.7541 0.37072 0.62564 0.0
H722 H 0.69962 0.43419 0.59141 0.0
H723 H 0.82162 0.43884 0.63929 0.0
H724 H 0.73188 0.39267 0.63061 0.0
H725 H 0.77548 0.47121 0.6791 0.0
C726 C 0.74452 0.47438 0.65969 0.0
C727 C 0.72273 0.464 0.63538 0.0
C728 C 0.75156 0.40278 0.63274 0.0
C729 C 0.75099 0.4416 0.63622 0.0
C730 C 0.76429 0.39027 0.6302 0.0
C731 C 0.78981 0.40299 0.63161 0.0
C732 C 0.76434 0.42816 0.6373 0.0
C733 C 0.80195 0.42837 0.63766 0.0
C734 C 0.7589 0.46334 0.65975 0.0
C735 C 0.71621 0.44287 0.61072 0.0
N736 N 0.78908 0.44021 0.64027 0.0
N737 N 0.73012 0.43224 0.61223 0.0
H738 H 0.56174 0.39097 0.66057 0.0
H739 H 0.55835 0.27029 0.58448 0.0
H740 H 0.62543 0.3892 0.61571 0.0
H741 H 0.51575 0.26846 0.6973 0.0
H742 H 0.57723 0.31443 0.58259 0.0
H743 H 0.53947 0.34619 0.66379 0.0
C744 C 0.57105 0.38119 0.65168 0.0
C745 C 0.59547 0.39377 0.63793 0.0
C746 C 0.56362 0.30431 0.60756 0.0
C747 C 0.57006 0.34301 0.64039 0.0
C748 C 0.55268 0.2791 0.60853 0.0
C749 C 0.53559 0.26566 0.64143 0.0
C750 C 0.55718 0.31622 0.63916 0.0
C751 C 0.52898 0.27818 0.67162 0.0
C752 C 0.55836 0.35576 0.65355 0.0
C753 C 0.60669 0.38027 0.62675 0.0
N754 N 0.53983 0.30288 0.6698 0.0
N755 N 0.5938 0.35562 0.6277 0.0
H756 H 0.60839 0.17977 0.66721 0.0
H757 H 0.72569 0.2959 0.57778 0.0
H758 H 0.60775 0.24381 0.62096 0.0
H759 H 0.73168 0.25798 0.69136 0.0
H760 H 0.68155 0.27067 0.58138 0.0
H761 H 0.65319 0.20304 0.66704 0.0
C762 C 0.61765 0.19872 0.65741 0.0
C763 C 0.60437 0.20991 0.64409 0.0
C764 C 0.69257 0.26781 0.60534 0.0
C765 C 0.65515 0.23611 0.64269 0.0
C766 C 0.71777 0.28204 0.60315 0.0
C767 C 0.73241 0.27915 0.63456 0.0
C768 C 0.68186 0.25024 0.63863 0.0
C769 C 0.72103 0.26088 0.66669 0.0
C770 C 0.6431 0.2119 0.65735 0.0
C771 C 0.61723 0.23449 0.63168 0.0
N772 N 0.69631 0.247 0.66791 0.0
N773 N 0.6419 0.24666 0.6307 0.0
H774 H 0.75698 0.36577 -0.00135 0.0
H775 H 0.76968 0.49593 0.03894 0.0
H776 H 0.82521 0.42922 0.03396 0.0
H777 H 0.70299 0.431 0.00226 0.0
H778 H 0.79144 0.47332 0.03172 0.0
H779 H 0.73816 0.39081 0.9944 0.0
C780 C 0.76807 0.38506 0.00551 0.0
C781 C 0.79269 0.39538 0.01717 0.0
C782 C 0.77209 0.46412 0.02494 0.0
C783 C 0.77104 0.42433 0.01245 0.0
C784 C 0.75965 0.477 0.02897 0.0
C785 C 0.7344 0.46527 0.0216 0.0
C786 C 0.75919 0.43938 0.01345 0.0
C787 C 0.72239 0.44077 0.00868 0.0
C788 C 0.75727 0.39939 0.00294 0.0
C789 C 0.80615 0.42053 0.02504 0.0
N790 N 0.73486 0.42865 0.0053 0.0
N791 N 0.79508 0.43417 0.02292 0.0
H792 H 0.59877 0.40436 0.06233 0.0
H793 H 0.57121 0.27339 0.98861 0.0
H794 H 0.63385 0.39271 0.95029 0.0
H795 H 0.51866 0.28419 0.06073 0.0
H796 H 0.59554 0.3173 0.97694 0.0
H797 H 0.56993 0.3605 0.06499 0.0
C798 C 0.60025 0.39262 0.03805 0.0
C799 C 0.61881 0.40216 0.0062 0.0
C800 C 0.57857 0.31003 0.99496 0.0
C801 C 0.58619 0.35212 0.00946 0.0
C802 C 0.56474 0.285 0.0018 0.0
C803 C 0.54295 0.27515 0.02583 0.0
C804 C 0.57079 0.32538 0.01298 0.0
C805 C 0.53535 0.29103 0.04196 0.0
C806 C 0.58378 0.36764 0.03954 0.0
C807 C 0.61986 0.38615 0.97547 0.0
N808 N 0.54942 0.31543 0.0357 0.0
N809 N 0.60398 0.36188 0.97822 0.0
H810 H 0.72201 0.22941 0.99775 0.0
H811 H 0.60275 0.22463 0.08125 0.0
H812 H 0.7181 0.29386 0.02826 0.0
H813 H 0.59672 0.18243 0.96492 0.0
H814 H 0.64678 0.2429 0.07837 0.0
H815 H 0.67708 0.20552 -0.0016 0.0
C816 C 0.71175 0.23853 0.00421 0.0
C817 C 0.72377 0.26365 0.01296 0.0
C818 C 0.63574 0.22943 0.0538 0.0
C819 C 0.67306 0.23654 0.01502 0.0
C820 C 0.6106 0.21889 0.05542 0.0
C821 C 0.596 0.20225 0.02276 0.0
C822 C 0.64644 0.22306 0.01981 0.0
C823 C 0.60735 0.1954 0.99042 0.0
C824 C 0.68627 0.22493 0.00453 0.0
C825 C 0.70967 0.2746 0.02116 0.0
N826 N 0.63206 0.20596 0.98957 0.0
N827 N 0.6851 0.26091 0.02263 0.0
H828 H 0.37727 0.77573 0.90836 0.0
H829 H 0.49282 0.77164 0.99093 0.0
H830 H 0.41552 0.81807 0.02332 0.0
H831 H 0.42642 0.70759 0.95007 0.0
H832 H 0.47082 0.79447 0.99222 0.0
H833 H 0.40258 0.75694 0.90951 0.0
C834 C 0.39122 0.78138 0.93352 0.0
C835 C 0.39408 0.79831 0.96618 0.0
C836 C 0.4612 0.77537 0.98337 0.0
C837 C 0.42312 0.77684 0.96734 0.0
C838 C 0.47364 0.76237 0.98261 0.0
C839 C 0.4614 0.73769 0.97039 0.0
C840 C 0.43668 0.7637 0.97057 0.0
C841 C 0.43657 0.72653 0.95988 0.0
C842 C 0.40552 0.7705 0.93425 0.0
C843 C 0.4126 0.80493 -0.00221 0.0
N844 N 0.42513 0.7397 0.95963 0.0
N845 N 0.42649 0.79411 0.99769 0.0
H846 H 0.29959 0.72523 0.95119 0.0
H847 H 0.1822 0.60304 0.02138 0.0
H848 H 0.23369 0.72612 0.98308 0.0
H849 H 0.23181 0.60673 0.91986 0.0
H850 H 0.20223 0.64778 0.02004 0.0
H851 H 0.27696 0.68095 0.95465 0.0
C852 C 0.28041 0.71614 0.95943 0.0
C853 C 0.26847 0.72939 0.96662 0.0
C854 C 0.20844 0.63861 -0.00209 0.0
C855 C 0.24253 0.67868 0.97061 0.0
C856 C 0.19708 0.61318 -0.0014 0.0
C857 C 0.20542 0.60114 0.97085 0.0
C858 C 0.22853 0.65187 0.97008 0.0
C859 C 0.22476 0.61516 0.94193 0.0
C860 C 0.2675 0.69087 0.96105 0.0
C861 C 0.24353 0.71655 0.97705 0.0
N862 N 0.23584 0.63976 0.94275 0.0
N863 N 0.23132 0.6918 0.97886 0.0
H864 H 0.27708 0.57932 0.96069 0.0
H865 H 0.40178 0.5857 0.01866 0.0
H866 H 0.27821 0.51324 0.98958 0.0
H867 H 0.3952 0.63241 0.92254 0.0
H868 H 0.35706 0.5607 0.02083 0.0
H869 H 0.32141 0.60178 0.96186 0.0
C870 C 0.28662 0.56954 0.96784 0.0
C871 C 0.2739 0.54431 0.97478 0.0
C872 C 0.36558 0.57635 -0.00088 0.0
C873 C 0.32469 0.57001 0.97608 0.0
C874 C 0.391 0.59057 -0.0022 0.0
C875 C 0.40223 0.61121 0.97048 0.0
C876 C 0.35151 0.58325 0.97374 0.0
C877 C 0.3874 0.6167 0.94413 0.0
C878 C 0.31193 0.58237 0.96814 0.0
C879 C 0.28733 0.53266 0.98378 0.0
N880 N 0.36285 0.603 0.94685 0.0
N881 N 0.3121 0.54564 0.98424 0.0
H882 H 0.499 0.76512 0.37988 0.0
H883 H 0.38119 0.77158 0.30774 0.0
H884 H 0.435 0.70684 0.318 0.0
H885 H 0.44224 0.83058 0.37498 0.0
H886 H 0.40409 0.75043 0.30137 0.0
H887 H 0.48181 0.79198 0.36945 0.0
C888 C 0.48152 0.75809 0.36369 0.0
C889 C 0.46823 0.73365 0.35042 0.0
C890 C 0.41264 0.76809 0.31723 0.0
C891 C 0.44861 0.76406 0.33828 0.0
C892 C 0.39953 0.78019 0.32085 0.0
C893 C 0.40968 0.80271 0.34248 0.0
C894 C 0.43602 0.77837 0.33588 0.0
C895 C 0.43368 0.81315 0.35827 0.0
C896 C 0.47172 0.77337 0.35781 0.0
C897 C 0.44571 0.72544 0.32948 0.0
N898 N 0.44595 0.80072 0.35523 0.0
N899 N 0.4366 0.74054 0.32434 0.0
H900 H 0.30308 0.73324 0.32339 0.0
H901 H 0.17543 0.61699 0.38464 0.0
H902 H 0.24443 0.73906 0.38312 0.0
H903 H 0.23651 0.61439 0.32779 0.0
H904 H 0.19795 0.66139 0.37688 0.0
H905 H 0.27653 0.6896 0.31711 0.0
C906 C 0.28452 0.7253 0.33514 0.0
C907 C 0.27604 0.73977 0.3544 0.0
C908 C 0.20627 0.65103 0.36575 0.0
C909 C 0.2454 0.68948 0.34754 0.0
C910 C 0.19343 0.6257 0.37006 0.0
C911 C 0.20423 0.61197 0.35732 0.0
C912 C 0.22999 0.66261 0.34848 0.0
C913 C 0.22756 0.6242 0.33858 0.0
C914 C 0.26931 0.70031 0.33144 0.0
C915 C 0.2517 0.72851 0.36829 0.0
N916 N 0.23967 0.64878 0.33502 0.0
N917 N 0.23724 0.7039 0.36507 0.0
H918 H 0.3901 0.63112 0.32077 0.0
H919 H 0.26447 0.50702 0.35898 0.0
H920 H 0.38752 0.56603 0.37024 0.0
H921 H 0.27193 0.57807 0.34363 0.0
H922 H 0.30891 0.52574 0.35054 0.0
H923 H 0.34599 0.60891 0.31461 0.0
C924 C 0.38028 0.61208 0.33003 0.0
C925 C 0.39253 0.60053 0.34671 0.0
C926 C 0.30067 0.53709 0.34882 0.0
C927 C 0.34182 0.57498 0.34006 0.0
C928 C 0.2754 0.52645 0.35357 0.0
C929 C 0.26458 0.54106 0.35253 0.0
C930 C 0.31493 0.56236 0.34232 0.0
C931 C 0.2795 0.56613 0.34531 0.0
C932 C 0.35504 0.5994 0.32658 0.0
C933 C 0.37879 0.5757 0.35758 0.0
N934 N 0.30383 0.57593 0.34054 0.0
N935 N 0.35407 0.56377 0.35451 0.0
H936 H 0.3949 0.14954 0.14644 0.0
H937 H 0.28586 0.16017 0.2466 0.0
H938 H 0.38611 0.21149 0.11892 0.0
H939 H 0.27641 0.09127 0.2022 0.0
H940 H 0.32633 0.18064 0.21287 0.0
H941 H 0.35459 0.12887 0.1796 0.0
C942 C 0.38434 0.15859 0.14601 0.0
C943 C 0.3936 0.18197 0.12802 0.0
C944 C 0.31538 0.16099 0.21115 0.0
C945 C 0.34809 0.15892 0.16884 0.0
C946 C 0.29237 0.14927 0.23045 0.0
C947 C 0.27786 0.12382 0.22852 0.0
C948 C 0.32403 0.14714 0.19014 0.0
C949 C 0.28717 0.1107 0.20666 0.0
C950 C 0.36145 0.14687 0.16574 0.0
C951 C 0.37955 0.19334 0.13177 0.0
N952 N 0.30976 0.12251 0.18855 0.0
N953 N 0.3575 0.18174 0.15195 0.0
H954 H 0.85741 0.25009 0.11528 0.0
H955 H 0.84294 0.12844 0.21922 0.0
H956 H 0.79256 0.17978 0.10155 0.0
H957 H 0.91328 0.19092 0.19149 0.0
H958 H 0.8236 0.14908 0.18428 0.0
H959 H 0.87802 0.23047 0.14945 0.0
C960 C 0.8477 0.23049 0.11817 0.0
C961 C 0.82339 0.21646 0.10437 0.0
C962 C 0.84328 0.15836 0.18623 0.0
C963 C 0.84649 0.19414 0.14561 0.0
C964 C 0.85432 0.14666 0.20636 0.0
C965 C 0.87976 0.15814 0.20912 0.0
C966 C 0.85777 0.18174 0.16863 0.0
C967 C 0.89363 0.18168 0.19161 0.0
C968 C 0.85939 0.21935 0.13835 0.0
C969 C 0.81136 0.19125 0.11138 0.0
N970 N 0.88243 0.19274 0.17207 0.0
N971 N 0.82299 0.1809 0.13167 0.0
H972 H 0.75271 0.60673 0.15584 0.0
H973 H 0.87314 0.73725 0.16864 0.0
H974 H 0.81732 0.62744 0.07862 0.0
H975 H 0.81533 0.71223 0.26491 0.0
H976 H 0.85086 0.69844 0.13049 0.0
H977 H 0.77295 0.64702 0.19029 0.0
C978 C 0.77092 0.61995 0.14533 0.0
C979 C 0.78326 0.61397 0.1138 0.0
C980 C 0.84296 0.70144 0.15986 0.0
C981 C 0.80669 0.65968 0.15388 0.0
C982 C 0.85572 0.72358 0.18181 0.0
C983 C 0.84594 0.72814 0.21976 0.0
C984 C 0.82022 0.68361 0.17596 0.0
C985 C 0.82325 0.70978 0.23513 0.0
C986 C 0.78258 0.64281 0.16547 0.0
C987 C 0.80717 0.63143 0.10269 0.0
N988 N 0.81111 0.68827 0.21311 0.0
N989 N 0.81812 0.65351 0.1227 0.0
H990 H 0.12122 0.29692 0.72634 0.0
H991 H 0.15028 0.37741 0.94404 0.0
H992 H 0.11329 0.26644 0.8567 0.0
H993 H 0.19474 0.40426 0.82706 0.0
H994 H 0.1269 0.33724 0.90863 0.0
H995 H 0.13876 0.33773 0.75966 0.0
C996 C 0.1229 0.29889 0.76194 0.0
C997 C 0.11612 0.27863 0.78903 0.0
C998 C 0.14167 0.35205 0.89075 0.0
C999 C 0.13549 0.32452 0.82692 0.0
C1000 C 0.15489 0.37482 0.91079 0.0
C1001 C 0.17444 0.39384 0.88836 0.0
C1002 C 0.1478 0.34868 0.84779 0.0
C1003 C 0.1799 0.3898 0.84543 0.0
C1004 C 0.13291 0.322 0.78081 0.0
C1005 C 0.11861 0.28183 0.83492 0.0
N1006 N 0.16656 0.36761 0.82634 0.0
N1007 N 0.12807 0.30442 0.85256 0.0
H1008 H 0.61112 0.75784 0.87157 0.0
H1009 H 0.72404 0.88152 0.78772 0.0
H1010 H 0.61944 0.82825 0.90015 0.0
H1011 H 0.72733 0.81575 0.80545 0.0
H1012 H 0.68354 0.86131 0.82126 0.0
H1013 H 0.65202 0.77784 0.8406 0.0
C1014 C 0.62177 0.77748 0.87267 0.0
C1015 C 0.61214 0.7914 0.88992 0.0
C1016 C 0.69307 0.85126 0.81736 0.0
C1017 C 0.65845 0.81437 0.85214 0.0
C1018 C 0.71609 0.86272 0.79806 0.0
C1019 C 0.72877 0.85008 0.79252 0.0
C1020 C 0.6827 0.82699 0.83123 0.0
C1021 C 0.71782 0.82588 0.80712 0.0
C1022 C 0.64501 0.78889 0.85428 0.0
C1023 C 0.62631 0.81685 0.88768 0.0
N1024 N 0.69534 0.81508 0.82567 0.0
N1025 N 0.64875 0.82754 0.86898 0.0
H1026 H 0.17519 0.7945 0.89954 0.0
H1027 H 0.18891 0.91909 0.8138 0.0
H1028 H 0.24504 0.8578 0.87244 0.0
H1029 H 0.12546 0.8493 0.78659 0.0
H1030 H 0.20872 0.89835 0.84613 0.0
H1031 H 0.15529 0.81595 0.86955 0.0
C1032 C 0.18633 0.81304 0.88801 0.0
C1033 C 0.2118 0.82463 0.88974 0.0
C1034 C 0.19056 0.88762 0.83261 0.0
C1035 C 0.18925 0.84909 0.85523 0.0
C1036 C 0.17934 0.89944 0.81344 0.0
C1037 C 0.15578 0.8859 0.79587 0.0
C1038 C 0.17791 0.86215 0.83521 0.0
C1039 C 0.14376 0.86044 0.79923 0.0
C1040 C 0.17498 0.82519 0.87078 0.0
C1041 C 0.2254 0.84852 0.87375 0.0
N1042 N 0.15495 0.84936 0.81856 0.0
N1043 N 0.21393 0.86001 0.85726 0.0
H1044 H 0.95484 0.45562 0.60701 0.0
H1045 H 0.04385 0.49435 0.40012 0.0
H1046 H 0.93143 0.46018 0.47533 0.0
H1047 H 0.06874 0.52742 0.52821 0.0
H1048 H 0.00196 0.47244 0.42864 0.0
H1049 H -0.00315 0.47334 0.57959 0.0
C1050 C 0.95862 0.46025 0.57235 0.0
C1051 C 0.93995 0.45669 0.54327 0.0
C1052 C 0.01669 0.48437 0.45046 0.0
C1053 C 0.98726 0.47627 0.51187 0.0
C1054 C 0.04047 0.49668 0.43436 0.0
C1055 C 0.05951 0.51261 0.46201 0.0
C1056 C 0.01223 0.48776 0.49459 0.0
C1057 C 0.05436 0.51535 0.50596 0.0
C1058 C 0.98243 0.47034 0.55683 0.0
C1059 C 0.94553 0.46295 0.4987 0.0
N1060 N 0.03113 0.50294 0.52107 0.0
N1061 N 0.96874 0.47234 0.4842 0.0
H1062 H 0.47701 0.55404 0.5263 0.0
H1063 H 0.53426 0.47106 0.48667 0.0
H1064 H 0.50012 0.54666 0.39606 0.0
H1065 H 0.55005 0.51391 0.60548 0.0
H1066 H 0.51681 0.49425 0.45381 0.0
H1067 H 0.49903 0.53499 0.5577 0.0
C1068 C 0.48679 0.54839 0.50443 0.0
C1069 C 0.48686 0.55178 0.45868 0.0
C1070 C 0.52427 0.49867 0.48692 0.0
C1071 C 0.5116 0.52988 0.49403 0.0
C1072 C 0.53401 0.48539 0.50572 0.0
C1073 C 0.54349 0.49072 0.54869 0.0
C1074 C 0.52347 0.51687 0.51182 0.0
C1075 C 0.54299 0.50947 0.57213 0.0
C1076 C 0.49942 0.53773 0.52231 0.0
C1077 C 0.49982 0.54437 0.43155 0.0
N1078 N 0.53281 0.52175 0.55355 0.0
N1079 N 0.51148 0.53341 0.44962 0.0
H1080 H 0.42156 0.94717 0.45507 0.0
H1081 H 0.5364 0.0487 0.5836 0.0
H1082 H 0.49183 0.9519 0.45097 0.0
H1083 H 0.4801 0.06172 0.53398 0.0
H1084 H 0.51731 0.00977 0.54454 0.0
H1085 H 0.44014 0.9866 0.49192 0.0
C1086 C 0.441 0.95676 0.46052 0.0
C1087 C 0.45532 0.94652 0.44856 0.0
C1088 C 0.50904 0.02111 0.54269 0.0
C1089 C 0.4763 0.99092 0.4932 0.0
C1090 C 0.51982 0.04322 0.56511 0.0
C1091 C 0.50953 0.05828 0.56308 0.0
C1092 C 0.48776 0.01394 0.51817 0.0
C1093 C 0.48817 0.05038 0.53823 0.0
C1094 C 0.4515 0.97912 0.48228 0.0
C1095 C 0.48018 0.95925 0.45921 0.0
N1096 N 0.47793 0.02868 0.51682 0.0
N1097 N 0.48987 0.98073 0.48118 0.0
H1098 H 0.21578 0.04848 0.40396 0.0
H1099 H 0.16198 0.95022 0.59578 0.0
H1100 H 0.16188 0.97275 0.38598 0.0
H1101 H 0.19611 0.02788 0.61425 0.0
H1102 H 0.17601 0.95714 0.51892 0.0
H1103 H 0.22242 0.03936 0.47948 0.0
C1104 C 0.20579 0.02983 0.41544 0.0
C1105 C 0.18769 0.01147 0.38914 0.0
C1106 C 0.181 0.97266 0.54023 0.0
C1107 C 0.19522 0.001 0.4753 0.0
C1108 C 0.17311 0.96873 0.58411 0.0
C1109 C 0.17737 0.98851 0.6109 0.0
C1110 C 0.1933 -0.00351 0.52345 0.0
C1111 C 0.19196 0.01212 0.59425 0.0
C1112 C 0.20958 0.02466 0.45858 0.0
C1113 C 0.17554 0.98758 0.40558 0.0
N1114 N 0.19905 0.01546 0.55132 0.0
N1115 N 0.1792 0.9831 0.44792 0.0
H1116 H 0.05425 0.21495 0.58478 0.0
H1117 H 0.95092 0.16339 0.39953 0.0
H1118 H 0.97814 0.16495 0.60926 0.0
H1119 H 0.02669 0.18762 0.37533 0.0
H1120 H 0.96125 0.17839 0.47562 0.0
H1121 H 0.04426 0.21925 0.50819 0.0
C1122 C 0.03536 0.20553 0.57448 0.0
C1123 C 0.01703 0.18922 0.60305 0.0
C1124 C 0.97566 0.18097 0.45323 0.0
C1125 C 0.00555 0.19403 0.51589 0.0
C1126 C 0.96982 0.17254 0.40976 0.0
C1127 C 0.98792 0.17382 0.38142 0.0
C1128 C -0.00022 0.19095 0.4681 0.0
C1129 C 0.01212 0.18587 0.39643 0.0
C1130 C 0.0297 0.20787 0.53075 0.0
C1131 C 0.99286 0.17739 0.58798 0.0
N1132 N 0.01731 0.19367 0.43894 0.0
N1133 N 0.98784 0.17977 0.54525 0.0
H1134 H 0.83756 0.80974 0.62777 0.0
H1135 H 0.83289 0.78404 0.40961 0.0
H1136 H 0.78929 0.8377 0.60155 0.0
H1137 H 0.81629 0.84203 0.39933 0.0
H1138 H 0.8175 0.77661 0.48546 0.0
H1139 H 0.83171 0.79449 0.55255 0.0
C1140 C 0.82508 0.81197 0.60646 0.0
C1141 C 0.81428 0.82543 0.62055 0.0
C1142 C 0.81708 0.79085 0.46651 0.0
C1143 C 0.80742 0.80799 0.53401 0.0
C1144 C 0.82562 0.79492 0.423 0.0
C1145 C 0.82669 0.81427 0.39871 0.0
C1146 C 0.80979 0.80638 0.48567 0.0
C1147 C 0.81653 0.82743 0.41739 0.0
C1148 C 0.82155 0.80304 0.56342 0.0
C1149 C 0.79815 0.82762 0.59182 0.0
N1150 N 0.80892 0.82352 0.46002 0.0
N1151 N 0.79577 0.81964 0.54941 0.0
H1152 H 0.8274 0.28468 0.91137 0.0
H1153 H 0.87763 0.38596 0.72379 0.0
H1154 H 0.85302 0.36095 0.93285 0.0
H1155 H 0.82674 0.30971 0.70209 0.0
H1156 H 0.88358 0.37651 0.79962 0.0
H1157 H 0.84224 0.29396 0.83509 0.0
C1158 C 0.8368 0.30345 0.90046 0.0
C1159 C 0.83846 0.32202 0.92795 0.0
C1160 C 0.87161 0.36181 0.7778 0.0
C1161 C 0.85544 0.33267 0.84128 0.0
C1162 C 0.86825 0.36716 0.73452 0.0
C1163 C 0.85114 0.34866 0.70709 0.0
C1164 C 0.85792 0.33783 0.7934 0.0
C1165 C 0.83965 0.32459 0.72258 0.0
C1166 C 0.84517 0.3087 0.85695 0.0
C1167 C 0.8509 0.34604 0.91229 0.0
N1168 N 0.84294 0.31991 0.765 0.0
N1169 N 0.8586 0.35064 0.86972 0.0
H1170 H 0.71626 0.54863 0.92346 0.0
H1171 H 0.61375 0.4984 0.73789 0.0
H1172 H 0.6395 0.50138 0.94725 0.0
H1173 H 0.68978 0.52335 0.71474 0.0
H1174 H 0.62378 0.51414 0.81349 0.0
H1175 H 0.70696 0.554 0.84707 0.0
C1176 C 0.69741 0.54 0.91302 0.0
C1177 C 0.67864 0.52405 0.94123 0.0
C1178 C 0.63831 0.51668 0.79143 0.0
C1179 C 0.66796 0.53005 0.85435 0.0
C1180 C 0.63262 0.50778 0.74828 0.0
C1181 C 0.65089 0.509 0.7205 0.0
C1182 C 0.66241 0.52697 0.80656 0.0
C1183 C 0.67507 0.5215 0.73553 0.0
C1184 C 0.69214 0.54298 0.86943 0.0
C1185 C 0.65454 0.51339 0.92614 0.0
N1186 N 0.68009 0.52966 0.77781 0.0
N1187 N 0.6499 0.51627 0.88347 0.0
H1188 H 0.49817 0.12106 0.74373 0.0
H1189 H 0.45386 0.17598 0.93365 0.0
H1190 H 0.47624 0.17475 0.72438 0.0
H1191 H 0.49796 0.14256 0.95339 0.0
H1192 H 0.44658 0.16127 0.85725 0.0
H1193 H 0.48257 0.11491 0.81934 0.0
C1194 C 0.48952 0.1311 0.75496 0.0
C1195 C 0.48919 0.14901 0.72828 0.0
C1196 C 0.4573 0.15662 0.87874 0.0
C1197 C 0.47136 0.14203 0.81441 0.0
C1198 C 0.4614 0.16493 0.92234 0.0
C1199 C 0.47713 0.16106 0.94933 0.0
C1200 C 0.46891 0.14431 0.86243 0.0
C1201 C 0.48624 0.14647 0.93319 0.0
C1202 C 0.48065 0.12759 0.79811 0.0
C1203 C 0.47748 0.16125 0.74433 0.0
N1204 N 0.48236 0.13898 0.89048 0.0
N1205 N 0.46941 0.15785 0.78667 0.0
H1206 H 0.49356 0.61612 0.2558 0.0
H1207 H 0.5475 0.71683 0.06733 0.0
H1208 H 0.52508 0.69329 0.2774 0.0
H1209 H 0.493 0.64153 0.04685 0.0
H1210 H 0.55331 0.70685 0.14285 0.0
H1211 H 0.50771 0.62439 0.17901 0.0
C1212 C 0.50417 0.63483 0.24482 0.0
C1213 C 0.50768 0.65405 0.27251 0.0
C1214 C 0.54052 0.69244 0.12138 0.0
C1215 C 0.52377 0.66355 0.1852 0.0
C1216 C 0.53722 0.69809 0.07827 0.0
C1217 C 0.51924 0.68009 0.05125 0.0
C1218 C 0.52587 0.66864 0.13727 0.0
C1219 C 0.50662 0.65608 0.06701 0.0
C1220 C 0.51211 0.63951 0.201 0.0
C1221 C 0.52156 0.67794 0.25672 0.0
N1222 N 0.5099 0.65111 0.10927 0.0
N1223 N 0.52878 0.68201 0.21385 0.0
H1224 H 0.28782 0.83908 0.05994 0.0
H1225 H 0.3103 0.83456 0.27794 0.0
H1226 H 0.36175 0.85367 0.04812 0.0
H1227 H 0.38634 0.88306 0.25016 0.0
H1228 H 0.30038 0.83961 0.20255 0.0
H1229 H 0.29654 0.85446 0.13576 0.0
C1230 C 0.30598 0.84585 0.07301 0.0
C1231 C 0.32384 0.84428 0.04821 0.0
C1232 C 0.31916 0.84999 0.21312 0.0
C1233 C 0.33372 0.86128 0.13509 0.0
C1234 C 0.32484 0.84693 0.25624 0.0
C1235 C 0.3492 0.85808 0.26996 0.0
C1236 C 0.33805 0.86397 0.18329 0.0
C1237 C 0.36733 0.874 0.24071 0.0
C1238 C 0.31088 0.85442 0.11645 0.0
C1239 C 0.3472 0.85384 0.06651 0.0
N1240 N 0.36146 0.8759 0.19825 0.0
N1241 N 0.35134 0.86155 0.10911 0.0
H1242 H 0.1211 0.51156 0.26195 0.0
H1243 H 0.1683 0.45745 0.0745 0.0
H1244 H 0.16663 0.48 0.28427 0.0
H1245 H 0.14531 0.51013 0.05245 0.0
H1246 H 0.15291 0.45203 0.15024 0.0
H1247 H 0.11519 0.49716 0.18527 0.0
C1248 C 0.12918 0.50091 0.25114 0.0
C1249 C 0.14483 0.49742 0.27901 0.0
C1250 C 0.15073 0.46433 0.12841 0.0
C1251 C 0.13824 0.48107 0.19182 0.0
C1252 C 0.15945 0.4674 0.08516 0.0
C1253 C 0.15868 0.48477 0.05757 0.0
C1254 C 0.14109 0.47863 0.14391 0.0
C1255 C 0.14681 0.49699 0.07302 0.0
C1256 C 0.12591 0.49283 0.20738 0.0
C1257 C 0.15484 0.48349 0.26344 0.0
N1258 N 0.13883 0.49398 0.11542 0.0
N1259 N 0.15169 0.47615 0.22064 0.0
H1260 H 0.12633 0.01028 0.1097 0.0
H1261 H 0.18922 0.00327 0.88582 0.0
H1262 H 0.19991 0.02374 0.10427 0.0
H1263 H 0.12256 0.00561 0.88922 0.0
H1264 H 0.19332 0.00989 0.96599 0.0
H1265 H 0.12399 0.00703 0.02901 0.0
C1266 C 0.14192 0.01238 0.09135 0.0
C1267 C 0.16326 0.01704 0.11332 0.0
C1268 C 0.17793 0.00922 0.94919 0.0
C1269 C 0.16088 0.01361 0.02133 0.0
C1270 C 0.17564 0.00549 0.9036 0.0
C1271 C 0.15564 0.00409 0.88131 0.0
C1272 C 0.15987 0.01122 0.97256 0.0
C1273 C 0.13836 0.00686 0.90544 0.0
C1274 C 0.14067 0.01073 0.04538 0.0
C1275 C 0.18314 0.02006 0.08828 0.0
N1276 N 0.14077 0.01013 0.94992 0.0
N1277 N 0.18145 0.01817 0.04351 0.0
H1278 H 0.02757 0.17055 0.11294 0.0
H1279 H 0.97137 0.13816 0.86964 0.0
H1280 H 0.95218 0.11809 0.08826 0.0
H1281 H 0.04802 0.16915 0.89624 0.0
H1282 H 0.96344 0.13363 0.94949 0.0
H1283 H 0.03519 0.17364 0.03313 0.0
C1284 C 0.01266 0.15966 0.09063 0.0
C1285 C 0.98922 0.14413 0.10702 0.0
C1286 C 0.98199 0.14141 0.93779 0.0
C1287 C -0.00236 0.14776 0.01593 0.0
C1288 C 0.98649 0.14393 0.89233 0.0
C1289 C 0.01039 0.15425 0.87647 0.0
C1290 C 0.00157 0.14949 0.96747 0.0
C1291 C 0.02937 0.16158 0.90717 0.0
C1292 C 0.01698 0.16144 0.04518 0.0
C1293 C 0.97044 0.13056 0.07681 0.0
N1294 N 0.02458 0.15921 0.9512 0.0
N1295 N 0.97502 0.13277 0.03266 0.0
H1296 H 0.86033 0.82982 0.88886 0.0
H1297 H 0.82758 0.85602 0.12808 0.0
H1298 H 0.83541 0.88098 0.91012 0.0
H1299 H 0.88462 0.83898 0.10726 0.0
H1300 H 0.825 0.86 0.04781 0.0
H1301 H 0.86432 0.82738 0.96912 0.0
C1302 C 0.85574 0.84055 0.91045 0.0
C1303 C 0.84737 0.85548 0.89299 0.0
C1304 C 0.83804 0.85535 0.06092 0.0
C1305 C 0.85138 0.85242 0.98432 0.0
C1306 C 0.83952 0.8531 0.10653 0.0
C1307 C 0.85605 0.84679 0.12404 0.0
C1308 C 0.85298 0.85091 0.03278 0.0
C1309 C 0.87117 0.84323 0.09489 0.0
C1310 C 0.85797 0.83912 0.95609 0.0
C1311 C 0.84143 0.86884 0.92232 0.0
N1312 N 0.86912 0.8451 0.05058 0.0
N1313 N 0.84336 0.86686 0.96663 0.0
H1314 H 0.84041 0.36719 0.1963 0.0
H1315 H 0.81537 0.3101 0.43796 0.0
H1316 H 0.79065 0.29112 0.22132 0.0
H1317 H 0.83407 0.38451 0.41495 0.0
H1318 H 0.81235 0.30323 0.35786 0.0
H1319 H 0.84429 0.3746 0.27637 0.0
C1320 C 0.83034 0.35209 0.21869 0.0
C1321 C 0.81537 0.32849 0.20238 0.0
C1322 C 0.81717 0.32107 0.37042 0.0
C1323 C 0.82002 0.33669 0.29337 0.0
C1324 C 0.81885 0.32496 0.41596 0.0
C1325 C 0.82498 0.34788 0.43285 0.0
C1326 C 0.82201 0.34035 0.34171 0.0
C1327 C 0.82962 0.36666 0.4031 0.0
C1328 C 0.83259 0.3563 0.2642 0.0
C1329 C 0.8028 0.30949 0.23263 0.0
N1330 N 0.82814 0.36253 0.35886 0.0
N1331 N 0.80552 0.31397 0.27673 0.0
H1332 H 0.66483 0.45767 0.21977 0.0
H1333 H 0.64815 0.51808 0.4392 0.0
H1334 H 0.67792 0.53115 0.22338 0.0
H1335 H 0.65595 0.45443 0.43941 0.0
H1336 H 0.65476 0.5215 0.35883 0.0
H1337 H 0.657 0.45425 0.29938 0.0
C1338 C 0.66582 0.47299 0.23743 0.0
C1339 C 0.67181 0.49465 0.2153 0.0
C1340 C 0.6551 0.50684 0.37652 0.0
C1341 C 0.66313 0.49102 0.30607 0.0
C1342 C 0.65129 0.50489 0.42215 0.0
C1343 C 0.65173 0.48609 0.44554 0.0
C1344 C 0.65904 0.48965 0.35437 0.0
C1345 C 0.65577 0.46934 0.42236 0.0
C1346 C 0.66154 0.47112 0.2828 0.0
C1347 C 0.67331 0.51416 0.23955 0.0
N1348 N 0.65921 0.47147 0.37797 0.0
N1349 N 0.66891 0.51188 0.28375 0.0
H1350 H 0.5447 0.21127 0.22724 0.0
H1351 H 0.48269 0.13353 0.44514 0.0
H1352 H 0.47121 0.15075 0.22855 0.0
H1353 H 0.54432 0.20636 0.44715 0.0
H1354 H 0.48052 0.13633 0.36434 0.0
H1355 H 0.54745 0.20646 0.30695 0.0
C1356 C 0.52924 0.19682 0.24444 0.0
C1357 C 0.50774 0.18131 0.22173 0.0
C1358 C 0.49446 0.1517 0.38254 0.0
C1359 C 0.51061 0.17576 0.31245 0.0
C1360 C 0.4957 0.15007 0.42838 0.0
C1361 C 0.51351 0.16985 0.45238 0.0
C1362 C 0.51141 0.17312 0.36084 0.0
C1363 C 0.53012 0.19088 0.42961 0.0
C1364 C 0.53073 0.19417 0.28983 0.0
C1365 C 0.48807 0.16304 0.24526 0.0
N1366 N 0.52871 0.19196 0.38501 0.0
N1367 N 0.48996 0.16071 0.28951 0.0
H1368 H 0.48638 0.64565 0.77777 0.0
H1369 H 0.50726 0.70418 0.53798 0.0
H1370 H 0.50434 0.72017 0.75943 0.0
H1371 H 0.45775 0.6281 0.56345 0.0
H1372 H 0.51206 0.71151 0.61818 0.0
H1373 H 0.48205 0.63968 0.69755 0.0
C1374 C 0.48947 0.66074 0.75673 0.0
C1375 C 0.49569 0.68339 0.77501 0.0
C1376 C 0.50017 0.69324 0.60602 0.0
C1377 C 0.49116 0.67688 0.68361 0.0
C1378 C 0.49737 0.68908 0.56045 0.0
C1379 C 0.48237 0.66546 0.54423 0.0
C1380 C 0.48811 0.67355 0.63525 0.0
C1381 C 0.46999 0.64648 0.57461 0.0
C1382 C 0.48701 0.65736 0.71112 0.0
C1383 C 0.49981 0.7025 0.74645 0.0
N1384 N 0.47331 0.65089 0.61865 0.0
N1385 N 0.49754 0.69885 0.70202 0.0
H1386 H 0.28473 0.79091 0.75537 0.0
H1387 H 0.38167 0.84047 0.56116 0.0
H1388 H 0.35893 0.84828 0.77422 0.0
H1389 H 0.30512 0.81104 0.53551 0.0
H1390 H 0.37361 0.83871 0.64041 0.0
H1391 H 0.29155 0.79375 0.67522 0.0
C1392 C 0.30236 0.8043 0.74253 0.0
C1393 C 0.32131 0.81947 0.77123 0.0
C1394 C 0.35859 0.83273 0.61745 0.0
C1395 C 0.32939 0.82228 0.68021 0.0
C1396 C 0.36317 0.8338 0.57227 0.0
C1397 C 0.34406 0.82626 0.54184 0.0
C1398 C 0.33464 0.82358 0.63238 0.0
C1399 C 0.32033 0.81701 0.558 0.0
C1400 C 0.30625 0.80581 0.69695 0.0
C1401 C 0.34394 0.83615 0.7531 0.0
N1402 N 0.31624 0.81586 0.60231 0.0
N1403 N 0.34743 0.83698 0.70873 0.0
H1404 H 0.14502 0.48287 0.55307 0.0
H1405 H 0.21632 0.54372 0.77731 0.0
H1406 H 0.21338 0.55026 0.55797 0.0
H1407 H 0.15502 0.47079 0.77119 0.0
H1408 H 0.21502 0.54666 0.69688 0.0
H1409 H 0.14791 0.4779 0.6329 0.0
C1410 C 0.16073 0.49647 0.57109 0.0
C1411 C 0.17902 0.51695 0.54935 0.0
C1412 C 0.20185 0.52998 0.713 0.0
C1413 C 0.1824 0.51165 0.64015 0.0
C1414 C 0.2025 0.52839 0.75885 0.0
C1415 C 0.18557 0.50709 0.78058 0.0
C1416 C 0.18406 0.51014 0.68877 0.0
C1417 C 0.1683 0.48753 0.75537 0.0
C1418 C 0.1624 0.49367 0.61648 0.0
C1419 C 0.19902 0.53414 0.57375 0.0
N1420 N 0.16788 0.48956 0.71069 0.0
N1421 N 0.20011 0.53119 0.61798 0.0
loop_
_geom_bond_atom_site_label_1
_geom_bond_atom_site_label_2
_geom_bond_distance
_geom_bond_site_symmetry_2
_ccdc_geom_bond_type
Co0 O3 1.970 . S
Co0 N17 1.989 . S
Co0 O25 1.967 1_565 S
Co0 O32 1.920 . S
Co1 O4 1.966 . S
Co1 N10 2.022 . S
Co1 N18 1.993 . S
Co1 O26 1.941 . S
C2 O3 1.258 1_545 S
C2 O4 1.263 . S
O3 Co0 1.970 . S
O3 C2 1.258 1_565 S
O4 Co1 1.966 . S
O4 C2 1.263 . S
C5 O6 1.235 . S
C5 O32 1.289 . S
O6 C5 1.235 . S
C7 C9 1.400 . S
C7 N10 1.351 . S
C7 C12 1.501 . S
C8 C9 1.387 . S
C8 N11 1.341 . S
C9 C7 1.400 . S
C9 C8 1.387 . S
N10 Co1 2.022 . S
N10 C7 1.351 . S
N10 N11 1.365 . S
N11 C8 1.341 . S
N11 N10 1.365 . S
N11 H31 0.862 . S
C12 C7 1.501 . S
C12 H13 0.961 . S
C12 H14 0.961 . S
C12 H15 0.960 . S
H13 C12 0.961 . S
H14 C12 0.961 . S
H15 C12 0.960 . S
C16 N17 1.342 . S
C16 C20 1.401 . S
C16 C21 1.499 . S
N17 Co0 1.989 . S
N17 C16 1.342 . S
N17 N18 1.388 1_565 S
N18 Co1 1.993 . S
N18 N17 1.388 1_545 S
N18 C19 1.346 . S
C19 N18 1.346 . S
C19 C20 1.396 1_545 S
C19 C29 1.510 . S
C20 C16 1.401 . S
C20 C19 1.396 1_565 S
C21 C16 1.499 . S
C21 H22 0.959 . S
C21 H23 0.960 . S
C21 H24 0.961 . S
H22 C21 0.959 . S
H23 C21 0.960 . S
H24 C21 0.961 . S
O25 Co0 1.967 1_545 S
O25 C33 1.258 . S
O26 Co1 1.941 . S
O26 C33 1.266 . S
H27 C29 0.959 . S
H28 C29 0.961 . S
C29 C19 1.510 . S
C29 H27 0.959 . S
C29 H28 0.961 . S
C29 H30 0.960 . S
H30 C29 0.960 . S
H31 N11 0.862 . S
O32 Co0 1.920 . S
O32 C5 1.289 . S
C33 O25 1.258 . S
C33 O26 1.266 . S
Co34 O37 1.970 . S
Co34 N51 1.989 . S
Co34 O59 1.967 1_455 S
Co34 O66 1.920 . S
Co35 O38 1.966 . S
Co35 N44 2.022 . S
Co35 N52 1.972 1_655 S
Co35 O60 1.941 . S
C36 O37 1.258 . S
C36 O38 1.263 1_455 S
O37 Co34 1.970 . S
O37 C36 1.258 . S
O38 Co35 1.966 . S
O38 C36 1.263 1_655 S
C39 O40 1.235 . S
C39 O66 1.289 . S
O40 C39 1.235 . S
C41 C43 1.400 . S
C41 N44 1.351 . S
C41 C46 1.501 . S
C42 C43 1.387 . S
C42 N45 1.341 . S
C43 C41 1.400 . S
C43 C42 1.387 . S
N44 Co35 2.022 . S
N44 C41 1.351 . S
N44 N45 1.365 . S
N45 C42 1.341 . S
N45 N44 1.365 . S
N45 H65 0.862 . S
C46 C41 1.501 . S
C46 H47 0.961 . S
C46 H48 0.961 . S
C46 H49 0.960 . S
H47 C46 0.961 . S
H48 C46 0.961 . S
H49 C46 0.960 . S
C50 N51 1.342 . S
C50 C54 1.401 . S
C50 C55 1.499 . S
N51 Co34 1.989 . S
N51 C50 1.342 . S
N51 N52 1.421 . S
N52 Co35 1.972 1_455 S
N52 N51 1.421 . S
N52 C53 1.340 . S
C53 N52 1.340 . S
C53 C54 1.396 . S
C53 C63 1.510 1_455 S
C54 C50 1.401 . S
C54 C53 1.396 . S
C55 C50 1.499 . S
C55 H56 0.959 . S
C55 H57 0.960 . S
C55 H58 0.961 . S
H56 C55 0.959 . S
H57 C55 0.960 . S
H58 C55 0.961 . S
O59 Co34 1.967 1_655 S
O59 C67 1.258 . S
O60 Co35 1.941 . S
O60 C67 1.266 . S
H61 C63 0.959 . S
H62 C63 0.961 . S
C63 C53 1.510 1_655 S
C63 H61 0.959 . S
C63 H62 0.961 . S
C63 H64 0.960 . S
H64 C63 0.960 . S
H65 N45 0.862 . S
O66 Co34 1.920 . S
O66 C39 1.289 . S
C67 O59 1.258 . S
C67 O60 1.266 . S
Co68 O71 1.970 . S
Co68 N85 1.989 . S
Co68 O93 1.967 . S
Co68 O100 1.920 . S
Co69 O72 1.966 . S
Co69 N78 2.022 . S
Co69 N86 1.993 . S
Co69 O94 1.941 . S
C70 O71 1.258 . S
C70 O72 1.263 . S
O71 Co68 1.970 . S
O71 C70 1.258 . S
O72 Co69 1.966 . S
O72 C70 1.263 . S
C73 O74 1.235 . S
C73 O100 1.289 . S
O74 C73 1.235 . S
C75 C77 1.400 . S
C75 N78 1.351 . S
C75 C80 1.501 . S
C76 C77 1.387 . S
C76 N79 1.341 . S
C77 C75 1.400 . S
C77 C76 1.387 . S
N78 Co69 2.022 . S
N78 C75 1.351 . S
N78 N79 1.365 . S
N79 C76 1.341 . S
N79 N78 1.365 . S
N79 H99 0.862 . S
C80 C75 1.501 . S
C80 H81 0.961 . S
C80 H82 0.961 . S
C80 H83 0.960 . S
H81 C80 0.961 . S
H82 C80 0.961 . S
H83 C80 0.960 . S
C84 N85 1.342 . S
C84 C88 1.401 . S
C84 C89 1.499 . S
N85 Co68 1.989 . S
N85 C84 1.342 . S
N85 N86 1.388 . S
N86 Co69 1.993 . S
N86 N85 1.388 . S
N86 C87 1.346 . S
C87 N86 1.346 . S
C87 C88 1.396 . S
C87 C97 1.510 . S
C88 C84 1.401 . S
C88 C87 1.396 . S
C89 C84 1.499 . S
C89 H90 0.959 . S
C89 H91 0.960 . S
C89 H92 0.961 . S
H90 C89 0.959 . S
H91 C89 0.960 . S
H92 C89 0.961 . S
O93 Co68 1.967 . S
O93 C101 1.258 . S
O94 Co69 1.941 . S
O94 C101 1.266 . S
H95 C97 0.959 . S
H96 C97 0.961 . S
C97 C87 1.510 . S
C97 H95 0.959 . S
C97 H96 0.961 . S
C97 H98 0.960 . S
H98 C97 0.960 . S
H99 N79 0.862 . S
O100 Co68 1.920 . S
O100 C73 1.289 . S
C101 O93 1.258 . S
C101 O94 1.266 . S
Co102 O105 1.970 . S
Co102 N119 1.989 . S
Co102 O127 1.967 1_655 S
Co102 O134 1.920 . S
Co103 O106 1.966 . S
Co103 N112 2.022 . S
Co103 N120 1.993 . S
Co103 O128 1.941 . S
C104 O105 1.258 1_455 S
C104 O106 1.263 . S
O105 Co102 1.970 . S
O105 C104 1.258 1_655 S
O106 Co103 1.966 . S
O106 C104 1.263 . S
C107 O108 1.235 . S
C107 O134 1.289 . S
O108 C107 1.235 . S
C109 C111 1.400 . S
C109 N112 1.351 . S
C109 C114 1.501 . S
C110 C111 1.387 . S
C110 N113 1.341 . S
C111 C109 1.400 . S
C111 C110 1.387 . S
N112 Co103 2.022 . S
N112 C109 1.351 . S
N112 N113 1.365 . S
N113 C110 1.341 . S
N113 N112 1.365 . S
N113 H133 0.862 . S
C114 C109 1.501 . S
C114 H115 0.961 . S
C114 H116 0.961 . S
C114 H117 0.960 . S
H115 C114 0.961 . S
H116 C114 0.961 . S
H117 C114 0.960 . S
C118 N119 1.342 . S
C118 C122 1.401 . S
C118 C123 1.499 . S
N119 Co102 1.989 . S
N119 C118 1.342 . S
N119 N120 1.388 1_655 S
N120 Co103 1.993 . S
N120 N119 1.388 1_455 S
N120 C121 1.346 . S
C121 N120 1.346 . S
C121 C122 1.396 1_455 S
C121 C131 1.510 . S
C122 C118 1.401 . S
C122 C121 1.396 1_655 S
C123 C118 1.499 . S
C123 H124 0.959 . S
C123 H125 0.960 . S
C123 H126 0.961 . S
H124 C123 0.959 . S
H125 C123 0.960 . S
H126 C123 0.961 . S
O127 Co102 1.967 1_455 S
O127 C135 1.258 . S
O128 Co103 1.941 . S
O128 C135 1.266 . S
H129 C131 0.959 . S
H130 C131 0.961 . S
C131 C121 1.510 . S
C131 H129 0.959 . S
C131 H130 0.961 . S
C131 H132 0.960 . S
H132 C131 0.960 . S
H133 N113 0.862 . S
O134 Co102 1.920 . S
O134 C107 1.289 . S
C135 O127 1.258 . S
C135 O128 1.266 . S
Co136 O139 1.970 . S
Co136 N153 1.989 . S
Co136 O161 1.967 . S
Co136 O168 1.920 . S
Co137 O140 1.966 . S
Co137 N146 2.022 . S
Co137 N154 1.993 . S
Co137 O162 1.941 . S
C138 O139 1.258 . S
C138 O140 1.263 . S
O139 Co136 1.970 . S
O139 C138 1.258 . S
O140 Co137 1.966 . S
O140 C138 1.263 . S
C141 O142 1.235 . S
C141 O168 1.289 . S
O142 C141 1.235 . S
C143 C145 1.400 . S
C143 N146 1.351 . S
C143 C148 1.501 . S
C144 C145 1.387 . S
C144 N147 1.341 . S
C145 C143 1.400 . S
C145 C144 1.387 . S
N146 Co137 2.022 . S
N146 C143 1.351 . S
N146 N147 1.365 . S
N147 C144 1.341 . S
N147 N146 1.365 . S
N147 H167 0.862 . S
C148 C143 1.501 . S
C148 H149 0.961 . S
C148 H150 0.961 . S
C148 H151 0.960 . S
H149 C148 0.961 . S
H150 C148 0.961 . S
H151 C148 0.960 . S
C152 N153 1.342 . S
C152 C156 1.401 . S
C152 C157 1.499 . S
N153 Co136 1.989 . S
N153 C152 1.342 . S
N153 N154 1.388 . S
N154 Co137 1.993 . S
N154 N153 1.388 . S
N154 C155 1.346 . S
C155 N154 1.346 . S
C155 C156 1.396 . S
C155 C165 1.510 . S
C156 C152 1.401 . S
C156 C155 1.396 . S
C157 C152 1.499 . S
C157 H158 0.959 . S
C157 H159 0.960 . S
C157 H160 0.961 . S
H158 C157 0.959 . S
H159 C157 0.960 . S
H160 C157 0.961 . S
O161 Co136 1.967 . S
O161 C169 1.258 . S
O162 Co137 1.941 . S
O162 C169 1.266 . S
H163 C165 0.959 . S
H164 C165 0.961 . S
C165 C155 1.510 . S
C165 H163 0.959 . S
C165 H164 0.961 . S
C165 H166 0.960 . S
H166 C165 0.960 . S
H167 N147 0.862 . S
O168 Co136 1.920 . S
O168 C141 1.289 . S
C169 O161 1.258 . S
C169 O162 1.266 . S
Co170 O173 1.970 . S
Co170 N187 1.989 . S
Co170 O195 1.967 1_545 S
Co170 O202 1.920 . S
Co171 O174 1.966 . S
Co171 N180 2.022 . S
Co171 N188 1.972 1_565 S
Co171 O196 1.941 . S
C172 O173 1.258 . S
C172 O174 1.263 1_545 S
O173 Co170 1.970 . S
O173 C172 1.258 . S
O174 Co171 1.966 . S
O174 C172 1.263 1_565 S
C175 O176 1.235 . S
C175 O202 1.289 . S
O176 C175 1.235 . S
C177 C179 1.400 . S
C177 N180 1.351 . S
C177 C182 1.501 . S
C178 C179 1.387 . S
C178 N181 1.341 . S
C179 C177 1.400 . S
C179 C178 1.387 . S
N180 Co171 2.022 . S
N180 C177 1.351 . S
N180 N181 1.365 . S
N181 C178 1.341 . S
N181 N180 1.365 . S
N181 H201 0.862 . S
C182 C177 1.501 . S
C182 H183 0.961 . S
C182 H184 0.961 . S
C182 H185 0.960 . S
H183 C182 0.961 . S
H184 C182 0.961 . S
H185 C182 0.960 . S
C186 N187 1.342 . S
C186 C190 1.401 . S
C186 C191 1.499 . S
N187 Co170 1.989 . S
N187 C186 1.342 . S
N187 N188 1.421 . S
N188 Co171 1.972 1_545 S
N188 N187 1.421 . S
N188 C189 1.340 . S
C189 N188 1.340 . S
C189 C190 1.396 . S
C189 C199 1.510 1_545 S
C190 C186 1.401 . S
C190 C189 1.396 . S
C191 C186 1.499 . S
C191 H192 0.959 . S
C191 H193 0.960 . S
C191 H194 0.961 . S
H192 C191 0.959 . S
H193 C191 0.960 . S
H194 C191 0.961 . S
O195 Co170 1.967 1_565 S
O195 C203 1.258 . S
O196 Co171 1.941 . S
O196 C203 1.266 . S
H197 C199 0.959 . S
H198 C199 0.961 . S
C199 C189 1.510 1_565 S
C199 H197 0.959 . S
C199 H198 0.961 . S
C199 H200 0.960 . S
H200 C199 0.960 . S
H201 N181 0.862 . S
O202 Co170 1.920 . S
O202 C175 1.289 . S
C203 O195 1.258 . S
C203 O196 1.266 . S
Co204 O207 1.970 . S
Co204 N221 1.989 . S
Co204 O229 1.967 . S
Co204 O236 1.920 . S
Co205 O208 1.966 . S
Co205 N214 2.022 . S
Co205 N222 1.993 . S
Co205 O230 1.941 . S
C206 O207 1.258 . S
C206 O208 1.263 . S
O207 Co204 1.970 . S
O207 C206 1.258 . S
O208 Co205 1.966 . S
O208 C206 1.263 . S
C209 O210 1.235 . S
C209 O236 1.289 . S
O210 C209 1.235 . S
C211 C213 1.400 . S
C211 N214 1.351 . S
C211 C216 1.501 . S
C212 C213 1.387 . S
C212 N215 1.341 . S
C213 C211 1.400 . S
C213 C212 1.387 . S
N214 Co205 2.022 . S
N214 C211 1.351 . S
N214 N215 1.365 . S
N215 C212 1.341 . S
N215 N214 1.365 . S
N215 H235 0.862 . S
C216 C211 1.501 . S
C216 H217 0.961 . S
C216 H218 0.961 . S
C216 H219 0.960 . S
H217 C216 0.961 . S
H218 C216 0.961 . S
H219 C216 0.960 . S
C220 N221 1.342 . S
C220 C224 1.401 . S
C220 C225 1.499 . S
N221 Co204 1.989 . S
N221 C220 1.342 . S
N221 N222 1.388 . S
N222 Co205 1.993 . S
N222 N221 1.388 . S
N222 C223 1.346 . S
C223 N222 1.346 . S
C223 C224 1.396 . S
C223 C233 1.510 . S
C224 C220 1.401 . S
C224 C223 1.396 . S
C225 C220 1.499 . S
C225 H226 0.959 . S
C225 H227 0.960 . S
C225 H228 0.961 . S
H226 C225 0.959 . S
H227 C225 0.960 . S
H228 C225 0.961 . S
O229 Co204 1.967 . S
O229 C237 1.258 . S
O230 Co205 1.941 . S
O230 C237 1.266 . S
H231 C233 0.959 . S
H232 C233 0.961 . S
C233 C223 1.510 . S
C233 H231 0.959 . S
C233 H232 0.961 . S
C233 H234 0.960 . S
H234 C233 0.960 . S
H235 N215 0.862 . S
O236 Co204 1.920 . S
O236 C209 1.289 . S
C237 O229 1.258 . S
C237 O230 1.266 . S
Co238 O241 1.970 . S
Co238 N255 1.989 . S
Co238 O263 1.967 . S
Co238 O270 1.920 . S
Co239 O242 1.966 . S
Co239 N248 2.022 . S
Co239 N256 1.993 . S
Co239 O264 1.941 . S
C240 O241 1.258 . S
C240 O242 1.263 . S
O241 Co238 1.970 . S
O241 C240 1.258 . S
O242 Co239 1.966 . S
O242 C240 1.263 . S
C243 O244 1.235 . S
C243 O270 1.289 . S
O244 C243 1.235 . S
C245 C247 1.400 . S
C245 N248 1.351 . S
C245 C250 1.501 . S
C246 C247 1.387 . S
C246 N249 1.341 . S
C247 C245 1.400 . S
C247 C246 1.387 . S
N248 Co239 2.022 . S
N248 C245 1.351 . S
N248 N249 1.365 . S
N249 C246 1.341 . S
N249 N248 1.365 . S
N249 H269 0.862 . S
C250 C245 1.501 . S
C250 H251 0.961 . S
C250 H252 0.961 . S
C250 H253 0.960 . S
H251 C250 0.961 . S
H252 C250 0.961 . S
H253 C250 0.960 . S
C254 N255 1.342 . S
C254 C258 1.401 . S
C254 C259 1.499 . S
N255 Co238 1.989 . S
N255 C254 1.342 . S
N255 N256 1.388 . S
N256 Co239 1.993 . S
N256 N255 1.388 . S
N256 C257 1.346 . S
C257 N256 1.346 . S
C257 C258 1.396 . S
C257 C267 1.510 . S
C258 C254 1.401 . S
C258 C257 1.396 . S
C259 C254 1.499 . S
C259 H260 0.959 . S
C259 H261 0.960 . S
C259 H262 0.961 . S
H260 C259 0.959 . S
H261 C259 0.960 . S
H262 C259 0.961 . S
O263 Co238 1.967 . S
O263 C271 1.258 . S
O264 Co239 1.941 . S
O264 C271 1.266 . S
H265 C267 0.959 . S
H266 C267 0.961 . S
C267 C257 1.510 . S
C267 H265 0.959 . S
C267 H266 0.961 . S
C267 H268 0.960 . S
H268 C267 0.960 . S
H269 N249 0.862 . S
O270 Co238 1.920 . S
O270 C243 1.289 . S
C271 O263 1.258 . S
C271 O264 1.266 . S
Co272 O275 1.970 . S
Co272 N289 1.989 . S
Co272 O297 1.967 . S
Co272 O304 1.920 . S
Co273 O276 1.966 . S
Co273 N282 2.022 . S
Co273 N290 1.993 . S
Co273 O298 1.941 . S
C274 O275 1.258 . S
C274 O276 1.263 . S
O275 Co272 1.970 . S
O275 C274 1.258 . S
O276 Co273 1.966 . S
O276 C274 1.263 . S
C277 O278 1.235 . S
C277 O304 1.289 . S
O278 C277 1.235 . S
C279 C281 1.400 . S
C279 N282 1.351 . S
C279 C284 1.501 . S
C280 C281 1.387 . S
C280 N283 1.341 . S
C281 C279 1.400 . S
C281 C280 1.387 . S
N282 Co273 2.022 . S
N282 C279 1.351 . S
N282 N283 1.365 . S
N283 C280 1.341 . S
N283 N282 1.365 . S
N283 H303 0.862 . S
C284 C279 1.501 . S
C284 H285 0.961 . S
C284 H286 0.961 . S
C284 H287 0.960 . S
H285 C284 0.961 . S
H286 C284 0.961 . S
H287 C284 0.960 . S
C288 N289 1.342 . S
C288 C292 1.401 . S
C288 C293 1.499 . S
N289 Co272 1.989 . S
N289 C288 1.342 . S
N289 N290 1.388 . S
N290 Co273 1.993 . S
N290 N289 1.388 . S
N290 C291 1.346 . S
C291 N290 1.346 . S
C291 C292 1.396 . S
C291 C301 1.510 . S
C292 C288 1.401 . S
C292 C291 1.396 . S
C293 C288 1.499 . S
C293 H294 0.959 . S
C293 H295 0.960 . S
C293 H296 0.961 . S
H294 C293 0.959 . S
H295 C293 0.960 . S
H296 C293 0.961 . S
O297 Co272 1.967 . S
O297 C305 1.258 . S
O298 Co273 1.941 . S
O298 C305 1.266 . S
H299 C301 0.959 . S
H300 C301 0.961 . S
C301 C291 1.510 . S
C301 H299 0.959 . S
C301 H300 0.961 . S
C301 H302 0.960 . S
H302 C301 0.960 . S
H303 N283 0.862 . S
O304 Co272 1.920 . S
O304 C277 1.289 . S
C305 O297 1.258 . S
C305 O298 1.266 . S
Co306 O309 1.970 . S
Co306 N323 1.989 . S
Co306 O331 1.967 . S
Co306 O338 1.920 . S
Co307 O310 1.966 . S
Co307 N316 2.022 . S
Co307 N324 1.993 . S
Co307 O332 1.941 . S
C308 O309 1.262 . S
C308 O310 1.268 . S
O309 Co306 1.970 . S
O309 C308 1.262 . S
O310 Co307 1.966 . S
O310 C308 1.268 . S
C311 O312 1.235 . S
C311 O338 1.289 . S
O312 C311 1.235 . S
C313 C315 1.400 . S
C313 N316 1.351 . S
C313 C318 1.501 . S
C314 C315 1.387 . S
C314 N317 1.341 . S
C315 C313 1.400 . S
C315 C314 1.387 . S
N316 Co307 2.022 . S
N316 C313 1.351 . S
N316 N317 1.365 . S
N317 C314 1.341 . S
N317 N316 1.365 . S
N317 H337 0.862 . S
C318 C313 1.501 . S
C318 H319 0.961 . S
C318 H320 0.961 . S
C318 H321 0.960 . S
H319 C318 0.961 . S
H320 C318 0.961 . S
H321 C318 0.960 . S
C322 N323 1.342 . S
C322 C326 1.401 . S
C322 C327 1.499 . S
N323 Co306 1.989 . S
N323 C322 1.342 . S
N323 N324 1.388 . S
N324 Co307 1.993 . S
N324 N323 1.388 . S
N324 C325 1.346 . S
C325 N324 1.346 . S
C325 C326 1.396 . S
C325 C335 1.510 . S
C326 C322 1.401 . S
C326 C325 1.396 . S
C327 C322 1.499 . S
C327 H328 0.959 . S
C327 H329 0.960 . S
C327 H330 0.961 . S
H328 C327 0.959 . S
H329 C327 0.960 . S
H330 C327 0.961 . S
O331 Co306 1.967 . S
O331 C339 1.258 . S
O332 Co307 1.941 . S
O332 C339 1.266 . S
H333 C335 0.959 . S
H334 C335 0.961 . S
C335 C325 1.510 . S
C335 H333 0.959 . S
C335 H334 0.961 . S
C335 H336 0.960 . S
H336 C335 0.960 . S
H337 N317 0.862 . S
O338 Co306 1.920 . S
O338 C311 1.289 . S
C339 O331 1.258 . S
C339 O332 1.266 . S
Co340 O343 1.970 . S
Co340 N357 1.989 . S
Co340 O365 1.967 . S
Co340 O372 1.920 . S
Co341 O344 1.966 . S
Co341 N350 2.022 . S
Co341 N358 1.993 . S
Co341 O366 1.941 . S
C342 O343 1.261 . S
C342 O344 1.267 . S
O343 Co340 1.970 . S
O343 C342 1.261 . S
O344 Co341 1.966 . S
O344 C342 1.267 . S
C345 O346 1.235 . S
C345 O372 1.289 . S
O346 C345 1.235 . S
C347 C349 1.400 . S
C347 N350 1.351 . S
C347 C352 1.501 . S
C348 C349 1.387 . S
C348 N351 1.341 . S
C349 C347 1.400 . S
C349 C348 1.387 . S
N350 Co341 2.022 . S
N350 C347 1.351 . S
N350 N351 1.365 . S
N351 C348 1.341 . S
N351 N350 1.365 . S
N351 H371 0.862 . S
C352 C347 1.501 . S
C352 H353 0.961 . S
C352 H354 0.961 . S
C352 H355 0.960 . S
H353 C352 0.961 . S
H354 C352 0.961 . S
H355 C352 0.960 . S
C356 N357 1.342 . S
C356 C360 1.401 . S
C356 C361 1.499 . S
N357 Co340 1.989 . S
N357 C356 1.342 . S
N357 N358 1.388 . S
N358 Co341 1.993 . S
N358 N357 1.388 . S
N358 C359 1.346 . S
C359 N358 1.346 . S
C359 C360 1.396 . S
C359 C369 1.510 . S
C360 C356 1.401 . S
C360 C359 1.396 . S
C361 C356 1.499 . S
C361 H362 0.959 . S
C361 H363 0.960 . S
C361 H364 0.961 . S
H362 C361 0.959 . S
H363 C361 0.960 . S
H364 C361 0.961 . S
O365 Co340 1.967 . S
O365 C373 1.258 . S
O366 Co341 1.941 . S
O366 C373 1.266 . S
H367 C369 0.959 . S
H368 C369 0.961 . S
C369 C359 1.510 . S
C369 H367 0.959 . S
C369 H368 0.961 . S
C369 H370 0.960 . S
H370 C369 0.960 . S
H371 N351 0.862 . S
O372 Co340 1.920 . S
O372 C345 1.289 . S
C373 O365 1.258 . S
C373 O366 1.266 . S
Co374 O377 1.970 . S
Co374 N391 1.989 . S
Co374 O399 1.967 . S
Co374 O406 1.920 . S
Co375 O378 1.966 . S
Co375 N384 2.022 . S
Co375 N392 1.993 . S
Co375 O400 1.941 . S
C376 O377 1.262 . S
C376 O378 1.268 . S
O377 Co374 1.970 . S
O377 C376 1.262 . S
O378 Co375 1.966 . S
O378 C376 1.268 . S
C379 O380 1.235 . S
C379 O406 1.289 . S
O380 C379 1.235 . S
C381 C383 1.400 . S
C381 N384 1.351 . S
C381 C386 1.501 . S
C382 C383 1.387 . S
C382 N385 1.341 . S
C383 C381 1.400 . S
C383 C382 1.387 . S
N384 Co375 2.022 . S
N384 C381 1.351 . S
N384 N385 1.365 . S
N385 C382 1.341 . S
N385 N384 1.365 . S
N385 H405 0.862 . S
C386 C381 1.501 . S
C386 H387 0.961 . S
C386 H388 0.961 . S
C386 H389 0.960 . S
H387 C386 0.961 . S
H388 C386 0.961 . S
H389 C386 0.960 . S
C390 N391 1.342 . S
C390 C394 1.401 . S
C390 C395 1.499 . S
N391 Co374 1.989 . S
N391 C390 1.342 . S
N391 N392 1.388 . S
N392 Co375 1.993 . S
N392 N391 1.388 . S
N392 C393 1.346 . S
C393 N392 1.346 . S
C393 C394 1.396 . S
C393 C403 1.510 . S
C394 C390 1.401 . S
C394 C393 1.396 . S
C395 C390 1.499 . S
C395 H396 0.959 . S
C395 H397 0.960 . S
C395 H398 0.961 . S
H396 C395 0.959 . S
H397 C395 0.960 . S
H398 C395 0.961 . S
O399 Co374 1.967 . S
O399 C407 1.258 . S
O400 Co375 1.941 . S
O400 C407 1.266 . S
H401 C403 0.959 . S
H402 C403 0.961 . S
C403 C393 1.510 . S
C403 H401 0.959 . S
C403 H402 0.961 . S
C403 H404 0.960 . S
H404 C403 0.960 . S
H405 N385 0.862 . S
O406 Co374 1.920 . S
O406 C379 1.289 . S
C407 O399 1.258 . S
C407 O400 1.266 . S
Co408 O411 1.970 . S
Co408 N425 1.989 . S
Co408 O433 1.967 . S
Co408 O440 1.920 . S
Co409 O412 1.966 . S
Co409 N418 2.022 . S
Co409 N426 1.993 . S
Co409 O434 1.941 . S
C410 O411 1.262 . S
C410 O412 1.268 . S
O411 Co408 1.970 . S
O411 C410 1.262 . S
O412 Co409 1.966 . S
O412 C410 1.268 . S
C413 O414 1.235 . S
C413 O440 1.289 . S
O414 C413 1.235 . S
C415 C417 1.400 . S
C415 N418 1.351 . S
C415 C420 1.501 . S
C416 C417 1.387 . S
C416 N419 1.341 . S
C417 C415 1.400 . S
C417 C416 1.387 . S
N418 Co409 2.022 . S
N418 C415 1.351 . S
N418 N419 1.365 . S
N419 C416 1.341 . S
N419 N418 1.365 . S
N419 H439 0.862 . S
C420 C415 1.501 . S
C420 H421 0.961 . S
C420 H422 0.961 . S
C420 H423 0.960 . S
H421 C420 0.961 . S
H422 C420 0.961 . S
H423 C420 0.960 . S
C424 N425 1.342 . S
C424 C428 1.401 . S
C424 C429 1.499 . S
N425 Co408 1.989 . S
N425 C424 1.342 . S
N425 N426 1.388 . S
N426 Co409 1.993 . S
N426 N425 1.388 . S
N426 C427 1.346 . S
C427 N426 1.346 . S
C427 C428 1.396 . S
C427 C437 1.510 . S
C428 C424 1.401 . S
C428 C427 1.396 . S
C429 C424 1.499 . S
C429 H430 0.959 . S
C429 H431 0.960 . S
C429 H432 0.961 . S
H430 C429 0.959 . S
H431 C429 0.960 . S
H432 C429 0.961 . S
O433 Co408 1.967 . S
O433 C441 1.258 . S
O434 Co409 1.941 . S
O434 C441 1.266 . S
H435 C437 0.959 . S
H436 C437 0.961 . S
C437 C427 1.510 . S
C437 H435 0.959 . S
C437 H436 0.961 . S
C437 H438 0.960 . S
H438 C437 0.960 . S
H439 N419 0.862 . S
O440 Co408 1.920 . S
O440 C413 1.289 . S
C441 O433 1.258 . S
C441 O434 1.266 . S
Co442 O445 1.970 . S
Co442 N459 1.989 . S
Co442 O467 1.967 . S
Co442 O474 1.920 . S
Co443 O446 1.966 . S
Co443 N452 2.022 . S
Co443 N460 1.993 . S
Co443 O468 1.941 . S
C444 O445 1.262 . S
C444 O446 1.268 . S
O445 Co442 1.970 . S
O445 C444 1.262 . S
O446 Co443 1.966 . S
O446 C444 1.268 . S
C447 O448 1.235 . S
C447 O474 1.289 . S
O448 C447 1.235 . S
C449 C451 1.400 . S
C449 N452 1.351 . S
C449 C454 1.501 . S
C450 C451 1.387 . S
C450 N453 1.341 . S
C451 C449 1.400 . S
C451 C450 1.387 . S
N452 Co443 2.022 . S
N452 C449 1.351 . S
N452 N453 1.365 . S
N453 C450 1.341 . S
N453 N452 1.365 . S
N453 H473 0.862 . S
C454 C449 1.501 . S
C454 H455 0.961 . S
C454 H456 0.961 . S
C454 H457 0.960 . S
H455 C454 0.961 . S
H456 C454 0.961 . S
H457 C454 0.960 . S
C458 N459 1.342 . S
C458 C462 1.401 . S
C458 C463 1.499 . S
N459 Co442 1.989 . S
N459 C458 1.342 . S
N459 N460 1.388 . S
N460 Co443 1.993 . S
N460 N459 1.388 . S
N460 C461 1.346 . S
C461 N460 1.346 . S
C461 C462 1.396 . S
C461 C471 1.510 . S
C462 C458 1.401 . S
C462 C461 1.396 . S
C463 C458 1.499 . S
C463 H464 0.959 . S
C463 H465 0.960 . S
C463 H466 0.961 . S
H464 C463 0.959 . S
H465 C463 0.960 . S
H466 C463 0.961 . S
O467 Co442 1.967 . S
O467 C475 1.258 . S
O468 Co443 1.941 . S
O468 C475 1.266 . S
H469 C471 0.959 . S
H470 C471 0.961 . S
C471 C461 1.510 . S
C471 H469 0.959 . S
C471 H470 0.961 . S
C471 H472 0.960 . S
H472 C471 0.960 . S
H473 N453 0.862 . S
O474 Co442 1.920 . S
O474 C447 1.289 . S
C475 O467 1.258 . S
C475 O468 1.266 . S
Co476 O479 1.970 . S
Co476 N493 1.989 . S
Co476 O501 1.967 . S
Co476 O508 1.920 . S
Co477 O480 1.966 . S
Co477 N486 2.022 . S
Co477 N494 1.993 . S
Co477 O502 1.941 . S
C478 O479 1.261 . S
C478 O480 1.267 . S
O479 Co476 1.970 . S
O479 C478 1.261 . S
O480 Co477 1.966 . S
O480 C478 1.267 . S
C481 O482 1.235 . S
C481 O508 1.289 . S
O482 C481 1.235 . S
C483 C485 1.400 . S
C483 N486 1.351 . S
C483 C488 1.501 . S
C484 C485 1.387 . S
C484 N487 1.341 . S
C485 C483 1.400 . S
C485 C484 1.387 . S
N486 Co477 2.022 . S
N486 C483 1.351 . S
N486 N487 1.365 . S
N487 C484 1.341 . S
N487 N486 1.365 . S
N487 H507 0.862 . S
C488 C483 1.501 . S
C488 H489 0.961 . S
C488 H490 0.961 . S
C488 H491 0.960 . S
H489 C488 0.961 . S
H490 C488 0.961 . S
H491 C488 0.960 . S
C492 N493 1.342 . S
C492 C496 1.401 . S
C492 C497 1.499 . S
N493 Co476 1.989 . S
N493 C492 1.342 . S
N493 N494 1.388 . S
N494 Co477 1.993 . S
N494 N493 1.388 . S
N494 C495 1.346 . S
C495 N494 1.346 . S
C495 C496 1.396 . S
C495 C505 1.510 . S
C496 C492 1.401 . S
C496 C495 1.396 . S
C497 C492 1.499 . S
C497 H498 0.959 . S
C497 H499 0.960 . S
C497 H500 0.961 . S
H498 C497 0.959 . S
H499 C497 0.960 . S
H500 C497 0.961 . S
O501 Co476 1.967 . S
O501 C509 1.258 . S
O502 Co477 1.941 . S
O502 C509 1.266 . S
H503 C505 0.959 . S
H504 C505 0.961 . S
C505 C495 1.510 . S
C505 H503 0.959 . S
C505 H504 0.961 . S
C505 H506 0.960 . S
H506 C505 0.960 . S
H507 N487 0.862 . S
O508 Co476 1.920 . S
O508 C481 1.289 . S
C509 O501 1.258 . S
C509 O502 1.266 . S
Co510 O513 1.970 . S
Co510 N527 1.989 . S
Co510 O535 1.967 . S
Co510 O542 1.920 . S
Co511 O514 1.966 . S
Co511 N520 2.022 . S
Co511 N528 1.993 . S
Co511 O536 1.941 . S
C512 O513 1.258 . S
C512 O514 1.263 . S
O513 Co510 1.970 . S
O513 C512 1.258 . S
O514 Co511 1.966 . S
O514 C512 1.263 . S
C515 O516 1.235 . S
C515 O542 1.289 . S
O516 C515 1.235 . S
C517 C519 1.400 . S
C517 N520 1.351 . S
C517 C522 1.501 . S
C518 C519 1.387 . S
C518 N521 1.341 . S
C519 C517 1.400 . S
C519 C518 1.387 . S
N520 Co511 2.022 . S
N520 C517 1.351 . S
N520 N521 1.365 . S
N521 C518 1.341 . S
N521 N520 1.365 . S
N521 H541 0.862 . S
C522 C517 1.501 . S
C522 H523 0.961 . S
C522 H524 0.961 . S
C522 H525 0.960 . S
H523 C522 0.961 . S
H524 C522 0.961 . S
H525 C522 0.960 . S
C526 N527 1.342 . S
C526 C530 1.401 . S
C526 C531 1.499 . S
N527 Co510 1.989 . S
N527 C526 1.342 . S
N527 N528 1.388 . S
N528 Co511 1.993 . S
N528 N527 1.388 . S
N528 C529 1.346 . S
C529 N528 1.346 . S
C529 C530 1.396 . S
C529 C539 1.510 . S
C530 C526 1.401 . S
C530 C529 1.396 . S
C531 C526 1.499 . S
C531 H532 0.959 . S
C531 H533 0.960 . S
C531 H534 0.961 . S
H532 C531 0.959 . S
H533 C531 0.960 . S
H534 C531 0.961 . S
O535 Co510 1.967 . S
O535 C543 1.258 . S
O536 Co511 1.941 . S
O536 C543 1.266 . S
H537 C539 0.959 . S
H538 C539 0.961 . S
C539 C529 1.510 . S
C539 H537 0.959 . S
C539 H538 0.961 . S
C539 H540 0.960 . S
H540 C539 0.960 . S
H541 N521 0.862 . S
O542 Co510 1.920 . S
O542 C515 1.289 . S
C543 O535 1.258 . S
C543 O536 1.266 . S
Co544 O547 1.970 . S
Co544 N561 1.989 . S
Co544 O569 1.967 . S
Co544 O576 1.920 . S
Co545 O548 1.966 . S
Co545 N554 2.022 . S
Co545 N562 1.993 . S
Co545 O570 1.941 . S
C546 O547 1.258 . S
C546 O548 1.263 . S
O547 Co544 1.970 . S
O547 C546 1.258 . S
O548 Co545 1.966 . S
O548 C546 1.263 . S
C549 O550 1.235 . S
C549 O576 1.289 . S
O550 C549 1.235 . S
C551 C553 1.400 . S
C551 N554 1.351 . S
C551 C556 1.501 . S
C552 C553 1.387 . S
C552 N555 1.341 . S
C553 C551 1.400 . S
C553 C552 1.387 . S
N554 Co545 2.022 . S
N554 C551 1.351 . S
N554 N555 1.365 . S
N555 C552 1.341 . S
N555 N554 1.365 . S
N555 H575 0.862 . S
C556 C551 1.501 . S
C556 H557 0.961 . S
C556 H558 0.961 . S
C556 H559 0.960 . S
H557 C556 0.961 . S
H558 C556 0.961 . S
H559 C556 0.960 . S
C560 N561 1.342 . S
C560 C564 1.401 . S
C560 C565 1.499 . S
N561 Co544 1.989 . S
N561 C560 1.342 . S
N561 N562 1.388 . S
N562 Co545 1.993 . S
N562 N561 1.388 . S
N562 C563 1.346 . S
C563 N562 1.346 . S
C563 C564 1.396 . S
C563 C573 1.510 . S
C564 C560 1.401 . S
C564 C563 1.396 . S
C565 C560 1.499 . S
C565 H566 0.959 . S
C565 H567 0.960 . S
C565 H568 0.961 . S
H566 C565 0.959 . S
H567 C565 0.960 . S
H568 C565 0.961 . S
O569 Co544 1.967 . S
O569 C577 1.258 . S
O570 Co545 1.941 . S
O570 C577 1.266 . S
H571 C573 0.959 . S
H572 C573 0.961 . S
C573 C563 1.510 . S
C573 H571 0.959 . S
C573 H572 0.961 . S
C573 H574 0.960 . S
H574 C573 0.960 . S
H575 N555 0.862 . S
O576 Co544 1.920 . S
O576 C549 1.289 . S
C577 O569 1.258 . S
C577 O570 1.266 . S
Co578 O581 1.970 . S
Co578 N595 1.989 . S
Co578 O603 1.967 . S
Co578 O610 1.920 . S
Co579 O582 1.966 . S
Co579 N588 2.022 . S
Co579 N596 1.993 . S
Co579 O604 1.941 . S
C580 O581 1.258 . S
C580 O582 1.263 . S
O581 Co578 1.970 . S
O581 C580 1.258 . S
O582 Co579 1.966 . S
O582 C580 1.263 . S
C583 O584 1.235 . S
C583 O610 1.289 . S
O584 C583 1.235 . S
C585 C587 1.400 . S
C585 N588 1.351 . S
C585 C590 1.501 . S
C586 C587 1.387 . S
C586 N589 1.341 . S
C587 C585 1.400 . S
C587 C586 1.387 . S
N588 Co579 2.022 . S
N588 C585 1.351 . S
N588 N589 1.365 . S
N589 C586 1.341 . S
N589 N588 1.365 . S
N589 H609 0.862 . S
C590 C585 1.501 . S
C590 H591 0.961 . S
C590 H592 0.961 . S
C590 H593 0.960 . S
H591 C590 0.961 . S
H592 C590 0.961 . S
H593 C590 0.960 . S
C594 N595 1.342 . S
C594 C598 1.401 . S
C594 C599 1.499 . S
N595 Co578 1.989 . S
N595 C594 1.342 . S
N595 N596 1.388 . S
N596 Co579 1.993 . S
N596 N595 1.388 . S
N596 C597 1.346 . S
C597 N596 1.346 . S
C597 C598 1.396 . S
C597 C607 1.510 . S
C598 C594 1.401 . S
C598 C597 1.396 . S
C599 C594 1.499 . S
C599 H600 0.959 . S
C599 H601 0.960 . S
C599 H602 0.961 . S
H600 C599 0.959 . S
H601 C599 0.960 . S
H602 C599 0.961 . S
O603 Co578 1.967 . S
O603 C611 1.258 . S
O604 Co579 1.941 . S
O604 C611 1.266 . S
H605 C607 0.959 . S
H606 C607 0.961 . S
C607 C597 1.510 . S
C607 H605 0.959 . S
C607 H606 0.961 . S
C607 H608 0.960 . S
H608 C607 0.960 . S
H609 N589 0.862 . S
O610 Co578 1.920 . S
O610 C583 1.289 . S
C611 O603 1.258 . S
C611 O604 1.266 . S
H612 C618 0.930 . S
H613 C622 0.930 . S
H614 C627 0.929 . S
H615 C625 0.929 . S
H616 C620 0.929 . S
H617 C626 0.929 . S
C618 H612 0.930 . S
C618 C619 1.367 . S
C618 C626 1.378 . S
C619 C618 1.367 . S
C619 C627 1.433 . S
C620 H616 0.929 . S
C620 C622 1.378 . S
C620 C624 1.350 . S
C621 C624 1.463 . S
C621 C626 1.350 . S
C621 N629 1.427 . S
C622 H613 0.930 . S
C622 C620 1.378 . S
C622 C623 1.367 . S
C623 C622 1.367 . S
C623 C625 1.433 . S
C624 C620 1.350 . S
C624 C621 1.463 . S
C624 N628 1.427 . S
C625 H615 0.929 . S
C625 C623 1.433 . S
C625 N628 1.384 . S
C626 H617 0.929 . S
C626 C618 1.378 . S
C626 C621 1.350 . S
C627 H614 0.929 . S
C627 C619 1.433 . S
C627 N629 1.384 . S
N628 C624 1.427 . S
N628 C625 1.384 . S
N629 C621 1.427 . S
N629 C627 1.384 . S
H630 C636 0.930 . S
H631 C640 0.930 . S
H632 C645 0.929 . S
H633 C643 0.929 . S
H634 C638 0.929 . S
H635 C644 0.929 1_545 S
C636 H630 0.930 . S
C636 C637 1.367 . S
C636 C644 1.378 . S
C637 C636 1.367 . S
C637 C645 1.433 . S
C638 H634 0.929 . S
C638 C640 1.378 . S
C638 C642 1.350 . S
C639 C642 1.463 . S
C639 C644 1.350 1_545 S
C639 N647 1.427 1_545 S
C640 H631 0.930 . S
C640 C638 1.378 . S
C640 C641 1.367 . S
C641 C640 1.367 . S
C641 C643 1.433 . S
C642 C638 1.350 . S
C642 C639 1.463 . S
C642 N646 1.427 . S
C643 H633 0.929 . S
C643 C641 1.433 . S
C643 N646 1.384 . S
C644 H635 0.929 1_565 S
C644 C636 1.378 . S
C644 C639 1.350 1_565 S
C645 H632 0.929 . S
C645 C637 1.433 . S
C645 N647 1.384 . S
N646 C642 1.427 . S
N646 C643 1.384 . S
N647 C639 1.427 1_565 S
N647 C645 1.384 . S
H648 C654 0.930 . S
H649 C658 0.930 . S
H650 C663 0.929 . S
H651 C661 0.929 . S
H652 C656 0.929 . S
H653 C662 0.929 . S
C654 H648 0.930 . S
C654 C655 1.367 . S
C654 C662 1.378 . S
C655 C654 1.367 . S
C655 C663 1.433 . S
C656 H652 0.929 . S
C656 C658 1.378 . S
C656 C660 1.350 . S
C657 C660 1.463 1_655 S
C657 C662 1.350 . S
C657 N665 1.427 . S
C658 H649 0.930 . S
C658 C656 1.378 . S
C658 C659 1.367 . S
C659 C658 1.367 . S
C659 C661 1.433 . S
C660 C656 1.350 . S
C660 C657 1.463 1_455 S
C660 N664 1.427 . S
C661 H651 0.929 . S
C661 C659 1.433 . S
C661 N664 1.384 . S
C662 H653 0.929 . S
C662 C654 1.378 . S
C662 C657 1.350 . S
C663 H650 0.929 . S
C663 C655 1.433 . S
C663 N665 1.384 . S
N664 C660 1.427 . S
N664 C661 1.384 . S
N665 C657 1.427 . S
N665 C663 1.384 . S
H666 C672 0.930 . S
H667 C676 0.930 . S
H668 C681 0.929 . S
H669 C679 0.929 . S
H670 C674 0.929 . S
H671 C680 0.929 . S
C672 H666 0.930 . S
C672 C673 1.367 . S
C672 C680 1.378 . S
C673 C672 1.367 . S
C673 C681 1.433 . S
C674 H670 0.929 . S
C674 C676 1.378 . S
C674 C678 1.350 . S
C675 C678 1.463 . S
C675 C680 1.350 . S
C675 N683 1.427 . S
C676 H667 0.930 . S
C676 C674 1.378 . S
C676 C677 1.367 . S
C677 C676 1.367 . S
C677 C679 1.433 . S
C678 C674 1.350 . S
C678 C675 1.463 . S
C678 N682 1.427 . S
C679 H669 0.929 . S
C679 C677 1.433 . S
C679 N682 1.384 . S
C680 H671 0.929 . S
C680 C672 1.378 . S
C680 C675 1.350 . S
C681 H668 0.929 . S
C681 C673 1.433 . S
C681 N683 1.384 . S
N682 C678 1.427 . S
N682 C679 1.384 . S
N683 C675 1.427 . S
N683 C681 1.384 . S
H684 C690 0.930 . S
H685 C694 0.930 . S
H686 C699 0.929 . S
H687 C697 0.929 . S
H688 C692 0.929 . S
H689 C698 0.929 . S
C690 H684 0.930 . S
C690 C691 1.367 . S
C690 C698 1.378 . S
C691 C690 1.367 . S
C691 C699 1.433 . S
C692 H688 0.929 . S
C692 C694 1.378 . S
C692 C696 1.350 . S
C693 C696 1.463 1_545 S
C693 C698 1.350 . S
C693 N701 1.427 . S
C694 H685 0.930 . S
C694 C692 1.378 . S
C694 C695 1.367 . S
C695 C694 1.367 . S
C695 C697 1.433 . S
C696 C692 1.350 . S
C696 C693 1.463 1_565 S
C696 N700 1.427 . S
C697 H687 0.929 . S
C697 C695 1.433 . S
C697 N700 1.384 . S
C698 H689 0.929 . S
C698 C690 1.378 . S
C698 C693 1.350 . S
C699 H686 0.929 . S
C699 C691 1.433 . S
C699 N701 1.384 . S
N700 C696 1.427 . S
N700 C697 1.384 . S
N701 C693 1.427 . S
N701 C699 1.384 . S
H702 C708 0.930 . S
H703 C712 0.930 . S
H704 C717 0.929 . S
H705 C715 0.929 . S
H706 C710 0.929 1_455 S
H707 C716 0.929 . S
C708 H702 0.930 . S
C708 C709 1.367 . S
C708 C716 1.378 . S
C709 C708 1.367 . S
C709 C717 1.433 . S
C710 H706 0.929 1_655 S
C710 C712 1.378 . S
C710 C714 1.350 1_655 S
C711 C714 1.463 . S
C711 C716 1.350 . S
C711 N719 1.427 . S
C712 H703 0.930 . S
C712 C710 1.378 . S
C712 C713 1.367 . S
C713 C712 1.367 . S
C713 C715 1.433 . S
C714 C710 1.350 1_455 S
C714 C711 1.463 . S
C714 N718 1.427 1_455 S
C715 H705 0.929 . S
C715 C713 1.433 . S
C715 N718 1.384 . S
C716 H707 0.929 . S
C716 C708 1.378 . S
C716 C711 1.350 . S
C717 H704 0.929 . S
C717 C709 1.433 . S
C717 N719 1.384 . S
N718 C714 1.427 1_655 S
N718 C715 1.384 . S
N719 C711 1.427 . S
N719 C717 1.384 . S
H720 C726 0.930 . S
H721 C730 0.930 . S
H722 C735 0.929 . S
H723 C733 0.929 . S
H724 C728 0.929 . S
H725 C734 0.929 . S
C726 H720 0.930 . S
C726 C727 1.367 . S
C726 C734 1.378 . S
C727 C726 1.367 . S
C727 C735 1.433 . S
C728 H724 0.929 . S
C728 C730 1.378 . S
C728 C732 1.350 . S
C729 C732 1.463 . S
C729 C734 1.350 . S
C729 N737 1.427 . S
C730 H721 0.930 . S
C730 C728 1.378 . S
C730 C731 1.367 . S
C731 C730 1.367 . S
C731 C733 1.433 . S
C732 C728 1.350 . S
C732 C729 1.463 . S
C732 N736 1.427 . S
C733 H723 0.929 . S
C733 C731 1.433 . S
C733 N736 1.384 . S
C734 H725 0.929 . S
C734 C726 1.378 . S
C734 C729 1.350 . S
C735 H722 0.929 . S
C735 C727 1.433 . S
C735 N737 1.384 . S
N736 C732 1.427 . S
N736 C733 1.384 . S
N737 C729 1.427 . S
N737 C735 1.384 . S
H738 C744 0.930 . S
H739 C748 0.930 . S
H740 C753 0.929 . S
H741 C751 0.929 . S
H742 C746 0.929 . S
H743 C752 0.929 . S
C744 H738 0.930 . S
C744 C745 1.367 . S
C744 C752 1.378 . S
C745 C744 1.367 . S
C745 C753 1.433 . S
C746 H742 0.929 . S
C746 C748 1.378 . S
C746 C750 1.350 . S
C747 C750 1.463 . S
C747 C752 1.350 . S
C747 N755 1.427 . S
C748 H739 0.930 . S
C748 C746 1.378 . S
C748 C749 1.367 . S
C749 C748 1.367 . S
C749 C751 1.433 . S
C750 C746 1.350 . S
C750 C747 1.463 . S
C750 N754 1.427 . S
C751 H741 0.929 . S
C751 C749 1.433 . S
C751 N754 1.384 . S
C752 H743 0.929 . S
C752 C744 1.378 . S
C752 C747 1.350 . S
C753 H740 0.929 . S
C753 C745 1.433 . S
C753 N755 1.384 . S
N754 C750 1.427 . S
N754 C751 1.384 . S
N755 C747 1.427 . S
N755 C753 1.384 . S
H756 C762 0.930 . S
H757 C766 0.930 . S
H758 C771 0.929 . S
H759 C769 0.929 . S
H760 C764 0.929 . S
H761 C770 0.929 . S
C762 H756 0.930 . S
C762 C763 1.367 . S
C762 C770 1.378 . S
C763 C762 1.367 . S
C763 C771 1.433 . S
C764 H760 0.929 . S
C764 C766 1.378 . S
C764 C768 1.350 . S
C765 C768 1.463 . S
C765 C770 1.350 . S
C765 N773 1.427 . S
C766 H757 0.930 . S
C766 C764 1.378 . S
C766 C767 1.367 . S
C767 C766 1.367 . S
C767 C769 1.433 . S
C768 C764 1.350 . S
C768 C765 1.463 . S
C768 N772 1.427 . S
C769 H759 0.929 . S
C769 C767 1.433 . S
C769 N772 1.384 . S
C770 H761 0.929 . S
C770 C762 1.378 . S
C770 C765 1.350 . S
C771 H758 0.929 . S
C771 C763 1.433 . S
C771 N773 1.384 . S
N772 C768 1.427 . S
N772 C769 1.384 . S
N773 C765 1.427 . S
N773 C771 1.384 . S
H774 C780 0.930 . S
H775 C784 0.930 . S
H776 C789 0.929 . S
H777 C787 0.947 . S
H778 C782 0.929 . S
H779 C788 0.929 . S
C780 H774 0.930 . S
C780 C781 1.367 . S
C780 C788 1.378 . S
C781 C780 1.367 . S
C781 C789 1.433 . S
C782 H778 0.929 . S
C782 C784 1.378 . S
C782 C786 1.350 . S
C783 C786 1.463 . S
C783 C788 1.350 . S
C783 N791 1.427 . S
C784 H775 0.930 . S
C784 C782 1.378 . S
C784 C785 1.367 . S
C785 C784 1.367 . S
C785 C787 1.433 . S
C786 C782 1.350 . S
C786 C783 1.463 . S
C786 N790 1.427 . S
C787 H777 0.947 . S
C787 C785 1.433 . S
C787 N790 1.384 . S
C788 H779 0.929 . S
C788 C780 1.378 . S
C788 C783 1.350 . S
C789 H776 0.929 . S
C789 C781 1.433 . S
C789 N791 1.384 . S
N790 C786 1.427 . S
N790 C787 1.384 . S
N791 C783 1.427 . S
N791 C789 1.384 . S
H792 C798 0.930 . S
H793 C802 0.930 1_556 S
H794 C807 0.929 . S
H795 C805 0.929 . S
H796 C800 0.923 1_556 S
H797 C806 0.929 . S
C798 H792 0.930 . S
C798 C799 1.367 . S
C798 C806 1.378 . S
C799 C798 1.367 . S
C799 C807 1.433 . S
C800 H796 0.923 1_554 S
C800 C802 1.378 . S
C800 C804 1.350 . S
C801 C804 1.463 . S
C801 C806 1.350 . S
C801 N809 1.427 . S
C802 H793 0.930 1_554 S
C802 C800 1.378 . S
C802 C803 1.367 . S
C803 C802 1.367 . S
C803 C805 1.433 . S
C804 C800 1.350 . S
C804 C801 1.463 . S
C804 N808 1.427 . S
C805 H795 0.929 . S
C805 C803 1.433 . S
C805 N808 1.384 . S
C806 H797 0.929 . S
C806 C798 1.378 . S
C806 C801 1.350 . S
C807 H794 0.929 . S
C807 C799 1.433 . S
C807 N809 1.384 . S
N808 C804 1.427 . S
N808 C805 1.384 . S
N809 C801 1.427 . S
N809 C807 1.384 . S
H810 C816 0.930 . S
H811 C820 0.930 . S
H812 C825 0.929 . S
H813 C823 0.929 . S
H814 C818 0.929 . S
H815 C824 0.929 . S
C816 H810 0.930 . S
C816 C817 1.367 . S
C816 C824 1.378 . S
C817 C816 1.367 . S
C817 C825 1.433 . S
C818 H814 0.929 . S
C818 C820 1.378 . S
C818 C822 1.350 . S
C819 C822 1.463 . S
C819 C824 1.350 . S
C819 N827 1.427 . S
C820 H811 0.930 . S
C820 C818 1.378 . S
C820 C821 1.367 . S
C821 C820 1.367 . S
C821 C823 1.433 . S
C822 C818 1.350 . S
C822 C819 1.463 . S
C822 N826 1.427 . S
C823 H813 0.929 . S
C823 C821 1.433 . S
C823 N826 1.384 . S
C824 H815 0.929 . S
C824 C816 1.378 . S
C824 C819 1.350 . S
C825 H812 0.929 . S
C825 C817 1.433 . S
C825 N827 1.384 . S
N826 C822 1.427 . S
N826 C823 1.384 . S
N827 C819 1.427 . S
N827 C825 1.384 . S
H828 C834 0.930 . S
H829 C838 0.930 . S
H830 C843 0.929 . S
H831 C841 0.929 . S
H832 C836 0.929 . S
H833 C842 0.929 . S
C834 H828 0.930 . S
C834 C835 1.367 . S
C834 C842 1.378 . S
C835 C834 1.367 . S
C835 C843 1.433 . S
C836 H832 0.929 . S
C836 C838 1.378 . S
C836 C840 1.350 . S
C837 C840 1.463 . S
C837 C842 1.350 . S
C837 N845 1.427 . S
C838 H829 0.930 . S
C838 C836 1.378 . S
C838 C839 1.367 . S
C839 C838 1.367 . S
C839 C841 1.433 . S
C840 C836 1.350 . S
C840 C837 1.463 . S
C840 N844 1.427 . S
C841 H831 0.929 . S
C841 C839 1.433 . S
C841 N844 1.384 . S
C842 H833 0.929 . S
C842 C834 1.378 . S
C842 C837 1.350 . S
C843 H830 0.929 . S
C843 C835 1.433 . S
C843 N845 1.384 . S
N844 C840 1.427 . S
N844 C841 1.384 . S
N845 C837 1.427 . S
N845 C843 1.384 . S
H846 C852 0.930 . S
H847 C856 0.930 . S
H848 C861 0.929 . S
H849 C859 0.929 . S
H850 C854 0.929 . S
H851 C860 0.929 . S
C852 H846 0.930 . S
C852 C853 1.367 . S
C852 C860 1.378 . S
C853 C852 1.367 . S
C853 C861 1.433 . S
C854 H850 0.929 . S
C854 C856 1.378 . S
C854 C858 1.350 . S
C855 C858 1.463 . S
C855 C860 1.350 . S
C855 N863 1.427 . S
C856 H847 0.930 . S
C856 C854 1.378 . S
C856 C857 1.367 . S
C857 C856 1.367 . S
C857 C859 1.433 . S
C858 C854 1.350 . S
C858 C855 1.463 . S
C858 N862 1.427 . S
C859 H849 0.929 . S
C859 C857 1.433 . S
C859 N862 1.384 . S
C860 H851 0.929 . S
C860 C852 1.378 . S
C860 C855 1.350 . S
C861 H848 0.929 . S
C861 C853 1.433 . S
C861 N863 1.384 . S
N862 C858 1.427 . S
N862 C859 1.384 . S
N863 C855 1.427 . S
N863 C861 1.384 . S
H864 C870 0.930 . S
H865 C874 0.930 . S
H866 C879 0.929 . S
H867 C877 0.929 . S
H868 C872 0.929 . S
H869 C878 0.929 . S
C870 H864 0.930 . S
C870 C871 1.367 . S
C870 C878 1.378 . S
C871 C870 1.367 . S
C871 C879 1.433 . S
C872 H868 0.929 . S
C872 C874 1.378 . S
C872 C876 1.350 . S
C873 C876 1.463 . S
C873 C878 1.350 . S
C873 N881 1.427 . S
C874 H865 0.930 . S
C874 C872 1.378 . S
C874 C875 1.367 . S
C875 C874 1.367 . S
C875 C877 1.433 . S
C876 C872 1.350 . S
C876 C873 1.463 . S
C876 N880 1.427 . S
C877 H867 0.929 . S
C877 C875 1.433 . S
C877 N880 1.384 . S
C878 H869 0.929 . S
C878 C870 1.378 . S
C878 C873 1.350 . S
C879 H866 0.929 . S
C879 C871 1.433 . S
C879 N881 1.384 . S
N880 C876 1.427 . S
N880 C877 1.384 . S
N881 C873 1.427 . S
N881 C879 1.384 . S
H882 C888 0.930 . S
H883 C892 0.930 . S
H884 C897 0.929 . S
H885 C895 0.929 . S
H886 C890 0.929 . S
H887 C896 0.929 . S
C888 H882 0.930 . S
C888 C889 1.367 . S
C888 C896 1.378 . S
C889 C888 1.367 . S
C889 C897 1.433 . S
C890 H886 0.929 . S
C890 C892 1.378 . S
C890 C894 1.350 . S
C891 C894 1.463 . S
C891 C896 1.350 . S
C891 N899 1.427 . S
C892 H883 0.930 . S
C892 C890 1.378 . S
C892 C893 1.367 . S
C893 C892 1.367 . S
C893 C895 1.433 . S
C894 C890 1.350 . S
C894 C891 1.463 . S
C894 N898 1.427 . S
C895 H885 0.929 . S
C895 C893 1.433 . S
C895 N898 1.384 . S
C896 H887 0.929 . S
C896 C888 1.378 . S
C896 C891 1.350 . S
C897 H884 0.929 . S
C897 C889 1.433 . S
C897 N899 1.384 . S
N898 C894 1.427 . S
N898 C895 1.384 . S
N899 C891 1.427 . S
N899 C897 1.384 . S
H900 C906 0.930 . S
H901 C910 0.930 . S
H902 C915 0.929 . S
H903 C913 0.929 . S
H904 C908 0.929 . S
H905 C914 0.929 . S
C906 H900 0.930 . S
C906 C907 1.367 . S
C906 C914 1.378 . S
C907 C906 1.367 . S
C907 C915 1.433 . S
C908 H904 0.929 . S
C908 C910 1.378 . S
C908 C912 1.350 . S
C909 C912 1.463 . S
C909 C914 1.350 . S
C909 N917 1.427 . S
C910 H901 0.930 . S
C910 C908 1.378 . S
C910 C911 1.367 . S
C911 C910 1.367 . S
C911 C913 1.433 . S
C912 C908 1.350 . S
C912 C909 1.463 . S
C912 N916 1.427 . S
C913 H903 0.929 . S
C913 C911 1.433 . S
C913 N916 1.384 . S
C914 H905 0.929 . S
C914 C906 1.378 . S
C914 C909 1.350 . S
C915 H902 0.929 . S
C915 C907 1.433 . S
C915 N917 1.384 . S
N916 C912 1.427 . S
N916 C913 1.384 . S
N917 C909 1.427 . S
N917 C915 1.384 . S
H918 C924 0.930 . S
H919 C928 0.930 . S
H920 C933 0.929 . S
H921 C931 0.929 . S
H922 C926 0.929 . S
H923 C932 0.929 . S
C924 H918 0.930 . S
C924 C925 1.367 . S
C924 C932 1.378 . S
C925 C924 1.367 . S
C925 C933 1.433 . S
C926 H922 0.929 . S
C926 C928 1.378 . S
C926 C930 1.350 . S
C927 C930 1.463 . S
C927 C932 1.350 . S
C927 N935 1.427 . S
C928 H919 0.930 . S
C928 C926 1.378 . S
C928 C929 1.367 . S
C929 C928 1.367 . S
C929 C931 1.433 . S
C930 C926 1.350 . S
C930 C927 1.463 . S
C930 N934 1.427 . S
C931 H921 0.929 . S
C931 C929 1.433 . S
C931 N934 1.384 . S
C932 H923 0.929 . S
C932 C924 1.378 . S
C932 C927 1.350 . S
C933 H920 0.929 . S
C933 C925 1.433 . S
C933 N935 1.384 . S
N934 C930 1.427 . S
N934 C931 1.384 . S
N935 C927 1.427 . S
N935 C933 1.384 . S
H936 C942 0.930 . S
H937 C946 0.930 . S
H938 C951 0.929 . S
H939 C949 0.929 . S
H940 C944 0.929 . S
H941 C950 0.929 . S
C942 H936 0.930 . S
C942 C943 1.367 . S
C942 C950 1.378 . S
C943 C942 1.367 . S
C943 C951 1.433 . S
C944 H940 0.929 . S
C944 C946 1.378 . S
C944 C948 1.350 . S
C945 C948 1.463 . S
C945 C950 1.350 . S
C945 N953 1.427 . S
C946 H937 0.930 . S
C946 C944 1.378 . S
C946 C947 1.367 . S
C947 C946 1.367 . S
C947 C949 1.433 . S
C948 C944 1.350 . S
C948 C945 1.463 . S
C948 N952 1.427 . S
C949 H939 0.929 . S
C949 C947 1.433 . S
C949 N952 1.384 . S
C950 H941 0.929 . S
C950 C942 1.378 . S
C950 C945 1.350 . S
C951 H938 0.929 . S
C951 C943 1.433 . S
C951 N953 1.384 . S
N952 C948 1.427 . S
N952 C949 1.384 . S
N953 C945 1.427 . S
N953 C951 1.384 . S
H954 C960 0.930 . S
H955 C964 0.930 . S
H956 C969 0.929 . S
H957 C967 0.929 . S
H958 C962 0.929 . S
H959 C968 0.929 . S
C960 H954 0.930 . S
C960 C961 1.367 . S
C960 C968 1.378 . S
C961 C960 1.367 . S
C961 C969 1.433 . S
C962 H958 0.929 . S
C962 C964 1.378 . S
C962 C966 1.350 . S
C963 C966 1.463 . S
C963 C968 1.350 . S
C963 N971 1.427 . S
C964 H955 0.930 . S
C964 C962 1.378 . S
C964 C965 1.367 . S
C965 C964 1.367 . S
C965 C967 1.433 . S
C966 C962 1.350 . S
C966 C963 1.463 . S
C966 N970 1.427 . S
C967 H957 0.929 . S
C967 C965 1.433 . S
C967 N970 1.384 . S
C968 H959 0.929 . S
C968 C960 1.378 . S
C968 C963 1.350 . S
C969 H956 0.929 . S
C969 C961 1.433 . S
C969 N971 1.384 . S
N970 C966 1.427 . S
N970 C967 1.384 . S
N971 C963 1.427 . S
N971 C969 1.384 . S
H972 C978 0.930 . S
H973 C982 0.930 . S
H974 C987 0.929 . S
H975 C985 0.929 . S
H976 C980 0.929 . S
H977 C986 0.929 . S
C978 H972 0.930 . S
C978 C979 1.367 . S
C978 C986 1.378 . S
C979 C978 1.367 . S
C979 C987 1.433 . S
C980 H976 0.929 . S
C980 C982 1.378 . S
C980 C984 1.350 . S
C981 C984 1.463 . S
C981 C986 1.350 . S
C981 N989 1.427 . S
C982 H973 0.930 . S
C982 C980 1.378 . S
C982 C983 1.367 . S
C983 C982 1.367 . S
C983 C985 1.433 . S
C984 C980 1.350 . S
C984 C981 1.463 . S
C984 N988 1.427 . S
C985 H975 0.929 . S
C985 C983 1.433 . S
C985 N988 1.384 . S
C986 H977 0.929 . S
C986 C978 1.378 . S
C986 C981 1.350 . S
C987 H974 0.929 . S
C987 C979 1.433 . S
C987 N989 1.384 . S
N988 C984 1.427 . S
N988 C985 1.384 . S
N989 C981 1.427 . S
N989 C987 1.384 . S
H990 C996 0.930 . S
H991 C1000 0.930 . S
H992 C1005 0.929 . S
H993 C1003 0.929 . S
H994 C998 0.929 . S
H995 C1004 0.929 . S
C996 H990 0.930 . S
C996 C997 1.367 . S
C996 C1004 1.378 . S
C997 C996 1.367 . S
C997 C1005 1.433 . S
C998 H994 0.929 . S
C998 C1000 1.378 . S
C998 C1002 1.350 . S
C999 C1002 1.463 . S
C999 C1004 1.350 . S
C999 N1007 1.427 . S
C1000 H991 0.930 . S
C1000 C998 1.378 . S
C1000 C1001 1.367 . S
C1001 C1000 1.367 . S
C1001 C1003 1.433 . S
C1002 C998 1.350 . S
C1002 C999 1.463 . S
C1002 N1006 1.427 . S
C1003 H993 0.929 . S
C1003 C1001 1.433 . S
C1003 N1006 1.384 . S
C1004 H995 0.929 . S
C1004 C996 1.378 . S
C1004 C999 1.350 . S
C1005 H992 0.929 . S
C1005 C997 1.433 . S
C1005 N1007 1.384 . S
N1006 C1002 1.427 . S
N1006 C1003 1.384 . S
N1007 C999 1.427 . S
N1007 C1005 1.384 . S
H1008 C1014 0.930 . S
H1009 C1018 0.930 . S
H1010 C1023 0.929 . S
H1011 C1021 0.929 . S
H1012 C1016 0.929 . S
H1013 C1022 0.929 . S
C1014 H1008 0.930 . S
C1014 C1015 1.367 . S
C1014 C1022 1.378 . S
C1015 C1014 1.367 . S
C1015 C1023 1.433 . S
C1016 H1012 0.929 . S
C1016 C1018 1.378 . S
C1016 C1020 1.350 . S
C1017 C1020 1.463 . S
C1017 C1022 1.350 . S
C1017 N1025 1.427 . S
C1018 H1009 0.930 . S
C1018 C1016 1.378 . S
C1018 C1019 1.367 . S
C1019 C1018 1.367 . S
C1019 C1021 1.433 . S
C1020 C1016 1.350 . S
C1020 C1017 1.463 . S
C1020 N1024 1.427 . S
C1021 H1011 0.929 . S
C1021 C1019 1.433 . S
C1021 N1024 1.384 . S
C1022 H1013 0.929 . S
C1022 C1014 1.378 . S
C1022 C1017 1.350 . S
C1023 H1010 0.929 . S
C1023 C1015 1.433 . S
C1023 N1025 1.384 . S
N1024 C1020 1.427 . S
N1024 C1021 1.384 . S
N1025 C1017 1.427 . S
N1025 C1023 1.384 . S
H1026 C1032 0.930 . S
H1027 C1036 0.930 . S
H1028 C1041 0.929 . S
H1029 C1039 0.929 . S
H1030 C1034 0.929 . S
H1031 C1040 0.929 . S
C1032 H1026 0.930 . S
C1032 C1033 1.367 . S
C1032 C1040 1.378 . S
C1033 C1032 1.367 . S
C1033 C1041 1.433 . S
C1034 H1030 0.929 . S
C1034 C1036 1.378 . S
C1034 C1038 1.350 . S
C1035 C1038 1.463 . S
C1035 C1040 1.350 . S
C1035 N1043 1.427 . S
C1036 H1027 0.930 . S
C1036 C1034 1.378 . S
C1036 C1037 1.367 . S
C1037 C1036 1.367 . S
C1037 C1039 1.433 . S
C1038 C1034 1.350 . S
C1038 C1035 1.463 . S
C1038 N1042 1.427 . S
C1039 H1029 0.929 . S
C1039 C1037 1.433 . S
C1039 N1042 1.384 . S
C1040 H1031 0.929 . S
C1040 C1032 1.378 . S
C1040 C1035 1.350 . S
C1041 H1028 0.929 . S
C1041 C1033 1.433 . S
C1041 N1043 1.384 . S
N1042 C1038 1.427 . S
N1042 C1039 1.384 . S
N1043 C1035 1.427 . S
N1043 C1041 1.384 . S
H1044 C1050 0.930 . S
H1045 C1054 0.930 . S
H1046 C1059 0.929 . S
H1047 C1057 0.929 . S
H1048 C1052 0.929 . S
H1049 C1058 0.929 1_455 S
C1050 H1044 0.930 . S
C1050 C1051 1.367 . S
C1050 C1058 1.378 . S
C1051 C1050 1.367 . S
C1051 C1059 1.433 . S
C1052 H1048 0.929 . S
C1052 C1054 1.378 . S
C1052 C1056 1.350 . S
C1053 C1056 1.463 1_655 S
C1053 C1058 1.350 . S
C1053 N1061 1.427 . S
C1054 H1045 0.930 . S
C1054 C1052 1.378 . S
C1054 C1055 1.367 . S
C1055 C1054 1.367 . S
C1055 C1057 1.433 . S
C1056 C1052 1.350 . S
C1056 C1053 1.463 1_455 S
C1056 N1060 1.427 . S
C1057 H1047 0.929 . S
C1057 C1055 1.433 . S
C1057 N1060 1.384 . S
C1058 H1049 0.929 1_655 S
C1058 C1050 1.378 . S
C1058 C1053 1.350 . S
C1059 H1046 0.929 . S
C1059 C1051 1.433 . S
C1059 N1061 1.384 . S
N1060 C1056 1.427 . S
N1060 C1057 1.384 . S
N1061 C1053 1.427 . S
N1061 C1059 1.384 . S
H1062 C1068 0.930 . S
H1063 C1072 0.930 . S
H1064 C1077 0.929 . S
H1065 C1075 0.929 . S
H1066 C1070 0.929 . S
H1067 C1076 0.929 . S
C1068 H1062 0.930 . S
C1068 C1069 1.367 . S
C1068 C1076 1.378 . S
C1069 C1068 1.367 . S
C1069 C1077 1.433 . S
C1070 H1066 0.929 . S
C1070 C1072 1.378 . S
C1070 C1074 1.350 . S
C1071 C1074 1.463 . S
C1071 C1076 1.350 . S
C1071 N1079 1.427 . S
C1072 H1063 0.930 . S
C1072 C1070 1.378 . S
C1072 C1073 1.367 . S
C1073 C1072 1.367 . S
C1073 C1075 1.433 . S
C1074 C1070 1.350 . S
C1074 C1071 1.463 . S
C1074 N1078 1.427 . S
C1075 H1065 0.929 . S
C1075 C1073 1.433 . S
C1075 N1078 1.384 . S
C1076 H1067 0.929 . S
C1076 C1068 1.378 . S
C1076 C1071 1.350 . S
C1077 H1064 0.929 . S
C1077 C1069 1.433 . S
C1077 N1079 1.384 . S
N1078 C1074 1.427 . S
N1078 C1075 1.384 . S
N1079 C1071 1.427 . S
N1079 C1077 1.384 . S
H1080 C1086 0.930 . S
H1081 C1090 0.930 . S
H1082 C1095 0.929 . S
H1083 C1093 0.929 . S
H1084 C1088 0.929 . S
H1085 C1094 0.929 1_545 S
C1086 H1080 0.930 . S
C1086 C1087 1.367 . S
C1086 C1094 1.378 . S
C1087 C1086 1.367 . S
C1087 C1095 1.433 . S
C1088 H1084 0.929 . S
C1088 C1090 1.378 . S
C1088 C1092 1.350 . S
C1089 C1092 1.463 1_565 S
C1089 C1094 1.350 . S
C1089 N1097 1.427 . S
C1090 H1081 0.930 . S
C1090 C1088 1.378 . S
C1090 C1091 1.367 . S
C1091 C1090 1.367 . S
C1091 C1093 1.433 . S
C1092 C1088 1.350 . S
C1092 C1089 1.463 1_545 S
C1092 N1096 1.427 . S
C1093 H1083 0.929 . S
C1093 C1091 1.433 . S
C1093 N1096 1.384 . S
C1094 H1085 0.929 1_565 S
C1094 C1086 1.378 . S
C1094 C1089 1.350 . S
C1095 H1082 0.929 . S
C1095 C1087 1.433 . S
C1095 N1097 1.384 . S
N1096 C1092 1.427 . S
N1096 C1093 1.384 . S
N1097 C1089 1.427 . S
N1097 C1095 1.384 . S
H1098 C1104 0.930 . S
H1099 C1108 0.930 . S
H1100 C1113 0.929 . S
H1101 C1111 0.929 . S
H1102 C1106 0.929 . S
H1103 C1112 0.929 . S
C1104 H1098 0.930 . S
C1104 C1105 1.367 . S
C1104 C1112 1.378 . S
C1105 C1104 1.367 . S
C1105 C1113 1.433 1_545 S
C1106 H1102 0.929 . S
C1106 C1108 1.378 . S
C1106 C1110 1.350 1_565 S
C1107 C1110 1.463 . S
C1107 C1112 1.350 . S
C1107 N1115 1.427 1_545 S
C1108 H1099 0.930 . S
C1108 C1106 1.378 . S
C1108 C1109 1.367 1_565 S
C1109 C1108 1.367 1_545 S
C1109 C1111 1.433 . S
C1110 C1106 1.350 1_545 S
C1110 C1107 1.463 . S
C1110 N1114 1.427 . S
C1111 H1101 0.929 . S
C1111 C1109 1.433 . S
C1111 N1114 1.384 . S
C1112 H1103 0.929 . S
C1112 C1104 1.378 . S
C1112 C1107 1.350 . S
C1113 H1100 0.929 . S
C1113 C1105 1.433 1_565 S
C1113 N1115 1.384 . S
N1114 C1110 1.427 . S
N1114 C1111 1.384 . S
N1115 C1107 1.427 1_565 S
N1115 C1113 1.384 . S
H1116 C1122 0.930 . S
H1117 C1126 0.930 . S
H1118 C1131 0.929 . S
H1119 C1129 0.929 . S
H1120 C1124 0.929 . S
H1121 C1130 0.929 . S
C1122 H1116 0.930 . S
C1122 C1123 1.367 . S
C1122 C1130 1.378 . S
C1123 C1122 1.367 . S
C1123 C1131 1.433 1_455 S
C1124 H1120 0.929 . S
C1124 C1126 1.378 . S
C1124 C1128 1.350 1_655 S
C1125 C1128 1.463 . S
C1125 C1130 1.350 . S
C1125 N1133 1.427 1_455 S
C1126 H1117 0.930 . S
C1126 C1124 1.378 . S
C1126 C1127 1.367 1_655 S
C1127 C1126 1.367 1_455 S
C1127 C1129 1.433 . S
C1128 C1124 1.350 1_455 S
C1128 C1125 1.463 . S
C1128 N1132 1.427 . S
C1129 H1119 0.929 . S
C1129 C1127 1.433 . S
C1129 N1132 1.384 . S
C1130 H1121 0.929 . S
C1130 C1122 1.378 . S
C1130 C1125 1.350 . S
C1131 H1118 0.929 . S
C1131 C1123 1.433 1_655 S
C1131 N1133 1.384 . S
N1132 C1128 1.427 . S
N1132 C1129 1.384 . S
N1133 C1125 1.427 1_655 S
N1133 C1131 1.384 . S
H1134 C1140 0.930 . S
H1135 C1144 0.930 . S
H1136 C1149 0.929 . S
H1137 C1147 0.929 . S
H1138 C1142 0.929 . S
H1139 C1148 0.929 . S
C1140 H1134 0.930 . S
C1140 C1141 1.367 . S
C1140 C1148 1.378 . S
C1141 C1140 1.367 . S
C1141 C1149 1.433 . S
C1142 H1138 0.929 . S
C1142 C1144 1.378 . S
C1142 C1146 1.350 . S
C1143 C1146 1.463 . S
C1143 C1148 1.350 . S
C1143 N1151 1.427 . S
C1144 H1135 0.930 . S
C1144 C1142 1.378 . S
C1144 C1145 1.367 . S
C1145 C1144 1.367 . S
C1145 C1147 1.433 . S
C1146 C1142 1.350 . S
C1146 C1143 1.463 . S
C1146 N1150 1.427 . S
C1147 H1137 0.929 . S
C1147 C1145 1.433 . S
C1147 N1150 1.384 . S
C1148 H1139 0.929 . S
C1148 C1140 1.378 . S
C1148 C1143 1.350 . S
C1149 H1136 0.929 . S
C1149 C1141 1.433 . S
C1149 N1151 1.384 . S
N1150 C1146 1.427 . S
N1150 C1147 1.384 . S
N1151 C1143 1.427 . S
N1151 C1149 1.384 . S
H1152 C1158 0.930 . S
H1153 C1162 0.930 . S
H1154 C1167 0.929 . S
H1155 C1165 0.929 . S
H1156 C1160 0.929 . S
H1157 C1166 0.929 . S
C1158 H1152 0.930 . S
C1158 C1159 1.367 . S
C1158 C1166 1.378 . S
C1159 C1158 1.367 . S
C1159 C1167 1.433 . S
C1160 H1156 0.929 . S
C1160 C1162 1.378 . S
C1160 C1164 1.350 . S
C1161 C1164 1.463 . S
C1161 C1166 1.350 . S
C1161 N1169 1.427 . S
C1162 H1153 0.930 . S
C1162 C1160 1.378 . S
C1162 C1163 1.367 . S
C1163 C1162 1.367 . S
C1163 C1165 1.433 . S
C1164 C1160 1.350 . S
C1164 C1161 1.463 . S
C1164 N1168 1.427 . S
C1165 H1155 0.929 . S
C1165 C1163 1.433 . S
C1165 N1168 1.384 . S
C1166 H1157 0.929 . S
C1166 C1158 1.378 . S
C1166 C1161 1.350 . S
C1167 H1154 0.929 . S
C1167 C1159 1.433 . S
C1167 N1169 1.384 . S
N1168 C1164 1.427 . S
N1168 C1165 1.384 . S
N1169 C1161 1.427 . S
N1169 C1167 1.384 . S
H1170 C1176 0.930 . S
H1171 C1180 0.930 . S
H1172 C1185 0.929 . S
H1173 C1183 0.929 . S
H1174 C1178 0.929 . S
H1175 C1184 0.929 . S
C1176 H1170 0.930 . S
C1176 C1177 1.367 . S
C1176 C1184 1.378 . S
C1177 C1176 1.367 . S
C1177 C1185 1.433 . S
C1178 H1174 0.929 . S
C1178 C1180 1.378 . S
C1178 C1182 1.350 . S
C1179 C1182 1.463 . S
C1179 C1184 1.350 . S
C1179 N1187 1.427 . S
C1180 H1171 0.930 . S
C1180 C1178 1.378 . S
C1180 C1181 1.367 . S
C1181 C1180 1.367 . S
C1181 C1183 1.433 . S
C1182 C1178 1.350 . S
C1182 C1179 1.463 . S
C1182 N1186 1.427 . S
C1183 H1173 0.929 . S
C1183 C1181 1.433 . S
C1183 N1186 1.384 . S
C1184 H1175 0.929 . S
C1184 C1176 1.378 . S
C1184 C1179 1.350 . S
C1185 H1172 0.929 . S
C1185 C1177 1.433 . S
C1185 N1187 1.384 . S
N1186 C1182 1.427 . S
N1186 C1183 1.384 . S
N1187 C1179 1.427 . S
N1187 C1185 1.384 . S
H1188 C1194 0.930 . S
H1189 C1198 0.930 . S
H1190 C1203 0.929 . S
H1191 C1201 0.929 . S
H1192 C1196 0.929 . S
H1193 C1202 0.929 . S
C1194 H1188 0.930 . S
C1194 C1195 1.367 . S
C1194 C1202 1.378 . S
C1195 C1194 1.367 . S
C1195 C1203 1.433 . S
C1196 H1192 0.929 . S
C1196 C1198 1.378 . S
C1196 C1200 1.350 . S
C1197 C1200 1.463 . S
C1197 C1202 1.350 . S
C1197 N1205 1.427 . S
C1198 H1189 0.930 . S
C1198 C1196 1.378 . S
C1198 C1199 1.367 . S
C1199 C1198 1.367 . S
C1199 C1201 1.433 . S
C1200 C1196 1.350 . S
C1200 C1197 1.463 . S
C1200 N1204 1.427 . S
C1201 H1191 0.929 . S
C1201 C1199 1.433 . S
C1201 N1204 1.384 . S
C1202 H1193 0.929 . S
C1202 C1194 1.378 . S
C1202 C1197 1.350 . S
C1203 H1190 0.929 . S
C1203 C1195 1.433 . S
C1203 N1205 1.384 . S
N1204 C1200 1.427 . S
N1204 C1201 1.384 . S
N1205 C1197 1.427 . S
N1205 C1203 1.384 . S
H1206 C1212 0.930 . S
H1207 C1216 0.930 . S
H1208 C1221 0.929 . S
H1209 C1219 0.929 . S
H1210 C1214 0.929 . S
H1211 C1220 0.929 . S
C1212 H1206 0.930 . S
C1212 C1213 1.367 . S
C1212 C1220 1.378 . S
C1213 C1212 1.367 . S
C1213 C1221 1.433 . S
C1214 H1210 0.929 . S
C1214 C1216 1.378 . S
C1214 C1218 1.350 . S
C1215 C1218 1.463 . S
C1215 C1220 1.350 . S
C1215 N1223 1.427 . S
C1216 H1207 0.930 . S
C1216 C1214 1.378 . S
C1216 C1217 1.367 . S
C1217 C1216 1.367 . S
C1217 C1219 1.433 . S
C1218 C1214 1.350 . S
C1218 C1215 1.463 . S
C1218 N1222 1.427 . S
C1219 H1209 0.929 . S
C1219 C1217 1.433 . S
C1219 N1222 1.384 . S
C1220 H1211 0.929 . S
C1220 C1212 1.378 . S
C1220 C1215 1.350 . S
C1221 H1208 0.929 . S
C1221 C1213 1.433 . S
C1221 N1223 1.384 . S
N1222 C1218 1.427 . S
N1222 C1219 1.384 . S
N1223 C1215 1.427 . S
N1223 C1221 1.384 . S
H1224 C1230 0.930 . S
H1225 C1234 0.930 . S
H1226 C1239 0.929 . S
H1227 C1237 0.929 . S
H1228 C1232 0.929 . S
H1229 C1238 0.929 . S
C1230 H1224 0.930 . S
C1230 C1231 1.367 . S
C1230 C1238 1.378 . S
C1231 C1230 1.367 . S
C1231 C1239 1.433 . S
C1232 H1228 0.929 . S
C1232 C1234 1.378 . S
C1232 C1236 1.350 . S
C1233 C1236 1.463 . S
C1233 C1238 1.350 . S
C1233 N1241 1.427 . S
C1234 H1225 0.930 . S
C1234 C1232 1.378 . S
C1234 C1235 1.367 . S
C1235 C1234 1.367 . S
C1235 C1237 1.433 . S
C1236 C1232 1.350 . S
C1236 C1233 1.463 . S
C1236 N1240 1.427 . S
C1237 H1227 0.929 . S
C1237 C1235 1.433 . S
C1237 N1240 1.384 . S
C1238 H1229 0.929 . S
C1238 C1230 1.378 . S
C1238 C1233 1.350 . S
C1239 H1226 0.929 . S
C1239 C1231 1.433 . S
C1239 N1241 1.384 . S
N1240 C1236 1.427 . S
N1240 C1237 1.384 . S
N1241 C1233 1.427 . S
N1241 C1239 1.384 . S
H1242 C1248 0.930 . S
H1243 C1252 0.930 . S
H1244 C1257 0.929 . S
H1245 C1255 0.929 . S
H1246 C1250 0.929 . S
H1247 C1256 0.929 . S
C1248 H1242 0.930 . S
C1248 C1249 1.367 . S
C1248 C1256 1.378 . S
C1249 C1248 1.367 . S
C1249 C1257 1.433 . S
C1250 H1246 0.929 . S
C1250 C1252 1.378 . S
C1250 C1254 1.350 . S
C1251 C1254 1.463 . S
C1251 C1256 1.350 . S
C1251 N1259 1.427 . S
C1252 H1243 0.930 . S
C1252 C1250 1.378 . S
C1252 C1253 1.367 . S
C1253 C1252 1.367 . S
C1253 C1255 1.433 . S
C1254 C1250 1.350 . S
C1254 C1251 1.463 . S
C1254 N1258 1.427 . S
C1255 H1245 0.929 . S
C1255 C1253 1.433 . S
C1255 N1258 1.384 . S
C1256 H1247 0.929 . S
C1256 C1248 1.378 . S
C1256 C1251 1.350 . S
C1257 H1244 0.929 . S
C1257 C1249 1.433 . S
C1257 N1259 1.384 . S
N1258 C1254 1.427 . S
N1258 C1255 1.384 . S
N1259 C1251 1.427 . S
N1259 C1257 1.384 . S
H1260 C1266 0.930 . S
H1261 C1270 0.930 . S
H1262 C1275 0.929 . S
H1263 C1273 0.929 . S
H1264 C1268 0.929 1_565 S
H1265 C1274 0.929 . S
C1266 H1260 0.930 . S
C1266 C1267 1.367 1_545 S
C1266 C1274 1.378 . S
C1267 C1266 1.367 1_565 S
C1267 C1275 1.433 . S
C1268 H1264 0.929 1_545 S
C1268 C1270 1.378 . S
C1268 C1272 1.350 . S
C1269 C1272 1.463 1_554 S
C1269 C1274 1.350 . S
C1269 N1277 1.427 1_545 S
C1270 H1261 0.930 . S
C1270 C1268 1.378 . S
C1270 C1271 1.367 . S
C1271 C1270 1.367 . S
C1271 C1273 1.433 . S
C1272 C1268 1.350 . S
C1272 C1269 1.463 1_556 S
C1272 N1276 1.427 . S
C1273 H1263 0.929 . S
C1273 C1271 1.433 . S
C1273 N1276 1.384 . S
C1274 H1265 0.929 . S
C1274 C1266 1.378 . S
C1274 C1269 1.350 . S
C1275 H1262 0.929 . S
C1275 C1267 1.433 . S
C1275 N1277 1.384 . S
N1276 C1272 1.427 . S
N1276 C1273 1.384 . S
N1277 C1269 1.427 1_565 S
N1277 C1275 1.384 . S
H1278 C1284 0.930 . S
H1279 C1288 0.930 . S
H1280 C1293 0.929 . S
H1281 C1291 0.929 . S
H1282 C1286 0.929 . S
H1283 C1292 0.929 . S
C1284 H1278 0.930 . S
C1284 C1285 1.367 . S
C1284 C1292 1.378 . S
C1285 C1284 1.367 . S
C1285 C1293 1.433 1_455 S
C1286 H1282 0.929 . S
C1286 C1288 1.378 . S
C1286 C1290 1.350 1_655 S
C1287 C1290 1.463 1_554 S
C1287 C1292 1.350 . S
C1287 N1295 1.427 1_455 S
C1288 H1279 0.930 . S
C1288 C1286 1.378 . S
C1288 C1289 1.367 . S
C1289 C1288 1.367 . S
C1289 C1291 1.433 1_655 S
C1290 C1286 1.350 1_455 S
C1290 C1287 1.463 1_556 S
C1290 N1294 1.427 . S
C1291 H1281 0.929 . S
C1291 C1289 1.433 1_455 S
C1291 N1294 1.384 . S
C1292 H1283 0.929 . S
C1292 C1284 1.378 . S
C1292 C1287 1.350 . S
C1293 H1280 0.929 . S
C1293 C1285 1.433 1_655 S
C1293 N1295 1.384 . S
N1294 C1290 1.427 . S
N1294 C1291 1.384 . S
N1295 C1287 1.427 1_655 S
N1295 C1293 1.384 . S
H1296 C1302 0.930 . S
H1297 C1306 0.930 . S
H1298 C1311 0.929 . S
H1299 C1309 0.929 . S
H1300 C1304 0.929 . S
H1301 C1310 0.929 . S
C1302 H1296 0.930 . S
C1302 C1303 1.367 . S
C1302 C1310 1.378 . S
C1303 C1302 1.367 . S
C1303 C1311 1.433 . S
C1304 H1300 0.929 . S
C1304 C1306 1.378 . S
C1304 C1308 1.350 . S
C1305 C1308 1.463 1_556 S
C1305 C1310 1.350 . S
C1305 N1313 1.427 . S
C1306 H1297 0.930 . S
C1306 C1304 1.378 . S
C1306 C1307 1.367 . S
C1307 C1306 1.367 . S
C1307 C1309 1.433 . S
C1308 C1304 1.350 . S
C1308 C1305 1.463 1_554 S
C1308 N1312 1.427 . S
C1309 H1299 0.929 . S
C1309 C1307 1.433 . S
C1309 N1312 1.384 . S
C1310 H1301 0.929 . S
C1310 C1302 1.378 . S
C1310 C1305 1.350 . S
C1311 H1298 0.929 . S
C1311 C1303 1.433 . S
C1311 N1313 1.384 . S
N1312 C1308 1.427 . S
N1312 C1309 1.384 . S
N1313 C1305 1.427 . S
N1313 C1311 1.384 . S
H1314 C1320 0.930 . S
H1315 C1324 0.930 . S
H1316 C1329 0.929 . S
H1317 C1327 0.929 . S
H1318 C1322 0.929 . S
H1319 C1328 0.929 . S
C1320 H1314 0.930 . S
C1320 C1321 1.367 . S
C1320 C1328 1.378 . S
C1321 C1320 1.367 . S
C1321 C1329 1.433 . S
C1322 H1318 0.929 . S
C1322 C1324 1.378 . S
C1322 C1326 1.350 . S
C1323 C1326 1.463 . S
C1323 C1328 1.350 . S
C1323 N1331 1.427 . S
C1324 H1315 0.930 . S
C1324 C1322 1.378 . S
C1324 C1325 1.367 . S
C1325 C1324 1.367 . S
C1325 C1327 1.433 . S
C1326 C1322 1.350 . S
C1326 C1323 1.463 . S
C1326 N1330 1.427 . S
C1327 H1317 0.929 . S
C1327 C1325 1.433 . S
C1327 N1330 1.384 . S
C1328 H1319 0.929 . S
C1328 C1320 1.378 . S
C1328 C1323 1.350 . S
C1329 H1316 0.929 . S
C1329 C1321 1.433 . S
C1329 N1331 1.384 . S
N1330 C1326 1.427 . S
N1330 C1327 1.384 . S
N1331 C1323 1.427 . S
N1331 C1329 1.384 . S
H1332 C1338 0.930 . S
H1333 C1342 0.930 . S
H1334 C1347 0.929 . S
H1335 C1345 0.929 . S
H1336 C1340 0.929 . S
H1337 C1346 0.929 . S
C1338 H1332 0.930 . S
C1338 C1339 1.367 . S
C1338 C1346 1.378 . S
C1339 C1338 1.367 . S
C1339 C1347 1.433 . S
C1340 H1336 0.929 . S
C1340 C1342 1.378 . S
C1340 C1344 1.350 . S
C1341 C1344 1.463 . S
C1341 C1346 1.350 . S
C1341 N1349 1.427 . S
C1342 H1333 0.930 . S
C1342 C1340 1.378 . S
C1342 C1343 1.367 . S
C1343 C1342 1.367 . S
C1343 C1345 1.433 . S
C1344 C1340 1.350 . S
C1344 C1341 1.463 . S
C1344 N1348 1.427 . S
C1345 H1335 0.929 . S
C1345 C1343 1.433 . S
C1345 N1348 1.384 . S
C1346 H1337 0.929 . S
C1346 C1338 1.378 . S
C1346 C1341 1.350 . S
C1347 H1334 0.929 . S
C1347 C1339 1.433 . S
C1347 N1349 1.384 . S
N1348 C1344 1.427 . S
N1348 C1345 1.384 . S
N1349 C1341 1.427 . S
N1349 C1347 1.384 . S
H1350 C1356 0.930 . S
H1351 C1360 0.930 . S
H1352 C1365 0.929 . S
H1353 C1363 0.929 . S
H1354 C1358 0.929 . S
H1355 C1364 0.929 . S
C1356 H1350 0.930 . S
C1356 C1357 1.367 . S
C1356 C1364 1.378 . S
C1357 C1356 1.367 . S
C1357 C1365 1.433 . S
C1358 H1354 0.929 . S
C1358 C1360 1.378 . S
C1358 C1362 1.350 . S
C1359 C1362 1.463 . S
C1359 C1364 1.350 . S
C1359 N1367 1.427 . S
C1360 H1351 0.930 . S
C1360 C1358 1.378 . S
C1360 C1361 1.367 . S
C1361 C1360 1.367 . S
C1361 C1363 1.433 . S
C1362 C1358 1.350 . S
C1362 C1359 1.463 . S
C1362 N1366 1.427 . S
C1363 H1353 0.929 . S
C1363 C1361 1.433 . S
C1363 N1366 1.384 . S
C1364 H1355 0.929 . S
C1364 C1356 1.378 . S
C1364 C1359 1.350 . S
C1365 H1352 0.929 . S
C1365 C1357 1.433 . S
C1365 N1367 1.384 . S
N1366 C1362 1.427 . S
N1366 C1363 1.384 . S
N1367 C1359 1.427 . S
N1367 C1365 1.384 . S
H1368 C1374 0.930 . S
H1369 C1378 0.930 . S
H1370 C1383 0.929 . S
H1371 C1381 0.929 . S
H1372 C1376 0.929 . S
H1373 C1382 0.929 . S
C1374 H1368 0.930 . S
C1374 C1375 1.367 . S
C1374 C1382 1.378 . S
C1375 C1374 1.367 . S
C1375 C1383 1.433 . S
C1376 H1372 0.929 . S
C1376 C1378 1.378 . S
C1376 C1380 1.350 . S
C1377 C1380 1.463 . S
C1377 C1382 1.350 . S
C1377 N1385 1.427 . S
C1378 H1369 0.930 . S
C1378 C1376 1.378 . S
C1378 C1379 1.367 . S
C1379 C1378 1.367 . S
C1379 C1381 1.433 . S
C1380 C1376 1.350 . S
C1380 C1377 1.463 . S
C1380 N1384 1.427 . S
C1381 H1371 0.929 . S
C1381 C1379 1.433 . S
C1381 N1384 1.384 . S
C1382 H1373 0.929 . S
C1382 C1374 1.378 . S
C1382 C1377 1.350 . S
C1383 H1370 0.929 . S
C1383 C1375 1.433 . S
C1383 N1385 1.384 . S
N1384 C1380 1.427 . S
N1384 C1381 1.384 . S
N1385 C1377 1.427 . S
N1385 C1383 1.384 . S
H1386 C1392 0.930 . S
H1387 C1396 0.930 . S
H1388 C1401 0.929 . S
H1389 C1399 0.929 . S
H1390 C1394 0.929 . S
H1391 C1400 0.929 . S
C1392 H1386 0.930 . S
C1392 C1393 1.367 . S
C1392 C1400 1.378 . S
C1393 C1392 1.367 . S
C1393 C1401 1.433 . S
C1394 H1390 0.929 . S
C1394 C1396 1.378 . S
C1394 C1398 1.350 . S
C1395 C1398 1.463 . S
C1395 C1400 1.350 . S
C1395 N1403 1.427 . S
C1396 H1387 0.930 . S
C1396 C1394 1.378 . S
C1396 C1397 1.367 . S
C1397 C1396 1.367 . S
C1397 C1399 1.433 . S
C1398 C1394 1.350 . S
C1398 C1395 1.463 . S
C1398 N1402 1.427 . S
C1399 H1389 0.929 . S
C1399 C1397 1.433 . S
C1399 N1402 1.384 . S
C1400 H1391 0.929 . S
C1400 C1392 1.378 . S
C1400 C1395 1.350 . S
C1401 H1388 0.929 . S
C1401 C1393 1.433 . S
C1401 N1403 1.384 . S
N1402 C1398 1.427 . S
N1402 C1399 1.384 . S
N1403 C1395 1.427 . S
N1403 C1401 1.384 . S
H1404 C1410 0.930 . S
H1405 C1414 0.930 . S
H1406 C1419 0.929 . S
H1407 C1417 0.929 . S
H1408 C1412 0.929 . S
H1409 C1418 0.929 . S
C1410 H1404 0.930 . S
C1410 C1411 1.367 . S
C1410 C1418 1.378 . S
C1411 C1410 1.367 . S
C1411 C1419 1.433 . S
C1412 H1408 0.929 . S
C1412 C1414 1.378 . S
C1412 C1416 1.350 . S
C1413 C1416 1.463 . S
C1413 C1418 1.350 . S
C1413 N1421 1.427 . S
C1414 H1405 0.930 . S
C1414 C1412 1.378 . S
C1414 C1415 1.367 . S
C1415 C1414 1.367 . S
C1415 C1417 1.433 . S
C1416 C1412 1.350 . S
C1416 C1413 1.463 . S
C1416 N1420 1.427 . S
C1417 H1407 0.929 . S
C1417 C1415 1.433 . S
C1417 N1420 1.384 . S
C1418 H1409 0.929 . S
C1418 C1410 1.378 . S
C1418 C1413 1.350 . S
C1419 H1406 0.929 . S
C1419 C1411 1.433 . S
C1419 N1421 1.384 . S
N1420 C1416 1.427 . S
N1420 C1417 1.384 . S
N1421 C1413 1.427 . S
N1421 C1419 1.384 . S
C619 C33 1.162 . S
C623 C39 1.176 . S
C637 C73 1.171 . S
C641 C67 1.167 . S
C655 C101 1.162 . S
C659 C5 1.170 . S
C673 C175 1.169 . S
C677 C135 1.170 . S
C691 C107 1.169 . S
C695 C169 1.166 . S
C709 C203 1.168 . S
C713 C141 1.171 . S
C727 C243 1.170 . S
C731 C237 1.163 . S
C745 C271 1.169 . S
C749 C277 1.170 . S
C763 C305 1.169 . S
C767 C209 1.170 . S
C781 C379 1.169 . S
C785 C339 1.164 . S
C799 C311 1.171 . S
C803 C373 1.168 . S
C817 C407 1.169 . S
C821 C345 1.169 . S
C835 C447 1.170 . S
C839 C441 1.169 . S
C853 C475 1.162 . S
C857 C481 1.170 . S
C871 C509 1.162 . S
C875 C413 1.171 . S
C889 C583 1.172 . S
C893 C543 1.167 . S
C907 C515 1.169 . S
C911 C577 1.165 . S
C925 C611 1.162 . S
C929 C549 1.171 . S
C943 C349 1.562 . S
C947 C9 1.551 . S
C961 C383 1.560 . S
C965 C43 1.546 . S
C979 C315 1.559 . S
C983 C77 1.550 . S
C997 C111 1.566 . S
C1001 C485 1.569 . S
C1015 C417 1.568 . S
C1019 C145 1.556 . S
C1033 C451 1.554 . S
C1037 C179 1.562 . S
C1051 C213 1.569 . S
C1055 C553 1.562 . S
C1069 C587 1.557 . S
C1073 C247 1.550 . S
C1087 C519 1.569 . S
C1091 C281 1.558 . S
C1105 C2 1.601 . S
C1109 C172 1.604 . S
C1123 C104 1.604 . S
C1127 C36 1.601 . S
C1141 C138 1.601 . S
C1145 C70 1.607 . S
C1159 C376 1.592 1_556 S
C1163 C206 1.605 . S
C1177 C308 1.596 1_556 S
C1181 C240 1.601 . S
C1195 C274 1.601 . S
C1199 C342 1.595 1_556 S
C1213 C580 1.603 . S
C1217 C410 1.593 1_554 S
C1231 C444 1.598 1_554 S
C1235 C512 1.600 . S
C1249 C546 1.600 . S
C1253 C478 1.598 1_554 S
C1267 C20 0.897 . S
C1271 C190 0.905 . S
C1285 C54 0.916 . S
C1289 C122 0.915 . S
C1303 C156 0.916 . S
C1307 C88 0.911 . S
C1321 C394 0.911 . S
C1325 C224 0.916 . S
C1339 C326 0.901 . S
C1343 C258 0.910 . S
C1357 C360 0.898 . S
C1361 C292 0.906 . S
C1375 C428 0.912 . S
C1379 C598 0.917 . S
C1393 C462 0.896 . S
C1397 C530 0.895 . S
C1411 C564 0.915 . S
C1415 C496 0.907 . S
