# Generated by pormake.
# Topology lvt-a, (3)-cn, num edge types: 1
# Building blocks:
#     Node 0, Type 0, BuildingBlock: OLANEW_clean_sbu_2, # of connection points: 3
#     Node 1, Type 0, BuildingBlock: OLANEW_clean_sbu_2, # of connection points: 3
#     Node 2, Type 0, BuildingBlock: OLANEW_clean_sbu_2, # of connection points: 3
#     Node 3, Type 0, BuildingBlock: OLANEW_clean_sbu_2, # of connection points: 3
#     Node 4, Type 0, BuildingBlock: OLANEW_clean_sbu_2, # of connection points: 3
#     Node 5, Type 0, BuildingBlock: OLANEW_clean_sbu_2, # of connection points: 3
#     Node 6, Type 0, BuildingBlock: OLANEW_clean_sbu_2, # of connection points: 3
#     Node 7, Type 0, BuildingBlock: OLANEW_clean_sbu_2, # of connection points: 3
#     Node 8, Type 0, BuildingBlock: OLANEW_clean_sbu_2, # of connection points: 3
#     Node 9, Type 0, BuildingBlock: OLANEW_clean_sbu_2, # of connection points: 3
#     Node 10, Type 0, BuildingBlock: OLANEW_clean_sbu_2, # of connection points: 3
#     Node 11, Type 0, BuildingBlock: OLANEW_clean_sbu_2, # of connection points: 3
#     Node 12, Type 0, BuildingBlock: OLANEW_clean_sbu_2, # of connection points: 3
#     Node 13, Type 0, BuildingBlock: OLANEW_clean_sbu_2, # of connection points: 3
#     Node 14, Type 0, BuildingBlock: OLANEW_clean_sbu_2, # of connection points: 3
#     Node 15, Type 0, BuildingBlock: OLANEW_clean_sbu_2, # of connection points: 3
#     Node 16, Type 0, BuildingBlock: OLANEW_clean_sbu_2, # of connection points: 3
#     Node 17, Type 0, BuildingBlock: OLANEW_clean_sbu_2, # of connection points: 3
#     Node 18, Type 0, BuildingBlock: OLANEW_clean_sbu_2, # of connection points: 3
#     Node 19, Type 0, BuildingBlock: OLANEW_clean_sbu_2, # of connection points: 3
#     Node 20, Type 0, BuildingBlock: OLANEW_clean_sbu_2, # of connection points: 3
#     Node 21, Type 0, BuildingBlock: OLANEW_clean_sbu_2, # of connection points: 3
#     Node 22, Type 0, BuildingBlock: OLANEW_clean_sbu_2, # of connection points: 3
#     Node 23, Type 0, BuildingBlock: OLANEW_clean_sbu_2, # of connection points: 3
#     Node 24, Type 0, BuildingBlock: OLANEW_clean_sbu_2, # of connection points: 3
#     Node 25, Type 0, BuildingBlock: OLANEW_clean_sbu_2, # of connection points: 3
#     Node 26, Type 0, BuildingBlock: OLANEW_clean_sbu_2, # of connection points: 3
#     Node 27, Type 0, BuildingBlock: OLANEW_clean_sbu_2, # of connection points: 3
#     Node 28, Type 0, BuildingBlock: OLANEW_clean_sbu_2, # of connection points: 3
#     Node 29, Type 0, BuildingBlock: OLANEW_clean_sbu_2, # of connection points: 3
#     Node 30, Type 0, BuildingBlock: OLANEW_clean_sbu_2, # of connection points: 3
#     Node 31, Type 0, BuildingBlock: OLANEW_clean_sbu_2, # of connection points: 3
#     Edge 32, Type (0, 0), BuildingBlock: XIVTED_clean_linker_0, # of connection points: 2
#     Edge 33, Type (0, 0), BuildingBlock: XIVTED_clean_linker_0, # of connection points: 2
#     Edge 34, Type (0, 0), BuildingBlock: XIVTED_clean_linker_0, # of connection points: 2
#     Edge 35, Type (0, 0), BuildingBlock: XIVTED_clean_linker_0, # of connection points: 2
#     Edge 36, Type (0, 0), BuildingBlock: XIVTED_clean_linker_0, # of connection points: 2
#     Edge 37, Type (0, 0), BuildingBlock: XIVTED_clean_linker_0, # of connection points: 2
#     Edge 38, Type (0, 0), BuildingBlock: XIVTED_clean_linker_0, # of connection points: 2
#     Edge 39, Type (0, 0), BuildingBlock: XIVTED_clean_linker_0, # of connection points: 2
#     Edge 40, Type (0, 0), BuildingBlock: XIVTED_clean_linker_0, # of connection points: 2
#     Edge 41, Type (0, 0), BuildingBlock: XIVTED_clean_linker_0, # of connection points: 2
#     Edge 42, Type (0, 0), BuildingBlock: XIVTED_clean_linker_0, # of connection points: 2
#     Edge 43, Type (0, 0), BuildingBlock: XIVTED_clean_linker_0, # of connection points: 2
#     Edge 44, Type (0, 0), BuildingBlock: XIVTED_clean_linker_0, # of connection points: 2
#     Edge 45, Type (0, 0), BuildingBlock: XIVTED_clean_linker_0, # of connection points: 2
#     Edge 46, Type (0, 0), BuildingBlock: XIVTED_clean_linker_0, # of connection points: 2
#     Edge 47, Type (0, 0), BuildingBlock: XIVTED_clean_linker_0, # of connection points: 2
#     Edge 48, Type (0, 0), BuildingBlock: XIVTED_clean_linker_0, # of connection points: 2
#     Edge 49, Type (0, 0), BuildingBlock: XIVTED_clean_linker_0, # of connection points: 2
#     Edge 50, Type (0, 0), BuildingBlock: XIVTED_clean_linker_0, # of connection points: 2
#     Edge 51, Type (0, 0), BuildingBlock: XIVTED_clean_linker_0, # of connection points: 2
#     Edge 52, Type (0, 0), BuildingBlock: XIVTED_clean_linker_0, # of connection points: 2
#     Edge 53, Type (0, 0), BuildingBlock: XIVTED_clean_linker_0, # of connection points: 2
#     Edge 54, Type (0, 0), BuildingBlock: XIVTED_clean_linker_0, # of connection points: 2
#     Edge 55, Type (0, 0), BuildingBlock: XIVTED_clean_linker_0, # of connection points: 2
#     Edge 56, Type (0, 0), BuildingBlock: XIVTED_clean_linker_0, # of connection points: 2
#     Edge 57, Type (0, 0), BuildingBlock: XIVTED_clean_linker_0, # of connection points: 2
#     Edge 58, Type (0, 0), BuildingBlock: XIVTED_clean_linker_0, # of connection points: 2
#     Edge 59, Type (0, 0), BuildingBlock: XIVTED_clean_linker_0, # of connection points: 2
#     Edge 60, Type (0, 0), BuildingBlock: XIVTED_clean_linker_0, # of connection points: 2
#     Edge 61, Type (0, 0), BuildingBlock: XIVTED_clean_linker_0, # of connection points: 2
#     Edge 62, Type (0, 0), BuildingBlock: XIVTED_clean_linker_0, # of connection points: 2
#     Edge 63, Type (0, 0), BuildingBlock: XIVTED_clean_linker_0, # of connection points: 2
#     Edge 64, Type (0, 0), BuildingBlock: XIVTED_clean_linker_0, # of connection points: 2
#     Edge 65, Type (0, 0), BuildingBlock: XIVTED_clean_linker_0, # of connection points: 2
#     Edge 66, Type (0, 0), BuildingBlock: XIVTED_clean_linker_0, # of connection points: 2
#     Edge 67, Type (0, 0), BuildingBlock: XIVTED_clean_linker_0, # of connection points: 2
#     Edge 68, Type (0, 0), BuildingBlock: XIVTED_clean_linker_0, # of connection points: 2
#     Edge 69, Type (0, 0), BuildingBlock: XIVTED_clean_linker_0, # of connection points: 2
#     Edge 70, Type (0, 0), BuildingBlock: XIVTED_clean_linker_0, # of connection points: 2
#     Edge 71, Type (0, 0), BuildingBlock: XIVTED_clean_linker_0, # of connection points: 2
#     Edge 72, Type (0, 0), BuildingBlock: XIVTED_clean_linker_0, # of connection points: 2
#     Edge 73, Type (0, 0), BuildingBlock: XIVTED_clean_linker_0, # of connection points: 2
#     Edge 74, Type (0, 0), BuildingBlock: XIVTED_clean_linker_0, # of connection points: 2
#     Edge 75, Type (0, 0), BuildingBlock: XIVTED_clean_linker_0, # of connection points: 2
#     Edge 76, Type (0, 0), BuildingBlock: XIVTED_clean_linker_0, # of connection points: 2
#     Edge 77, Type (0, 0), BuildingBlock: XIVTED_clean_linker_0, # of connection points: 2
#     Edge 78, Type (0, 0), BuildingBlock: XIVTED_clean_linker_0, # of connection points: 2
#     Edge 79, Type (0, 0), BuildingBlock: XIVTED_clean_linker_0, # of connection points: 2
# Relax obj value: 0.007
# Max RMSD: 0.027
# Mean RMSD: 0.027
data_MOF--net-lvt-a--node1-OLANEW_clean_sbu_2--edge1-XIVTED_clean_linker_0
_symmetry_space_group_name_H-M    P1
_symmetry_Int_Tables_number       1
_symmetry_cell_setting            triclinic
loop_
_symmetry_equiv_pos_as_xyz
'x, y, z'
_cell_length_a     93.432629
_cell_length_b     93.44579
_cell_length_c     79.10143
_cell_angle_alpha  90.029727
_cell_angle_beta   89.982374
_cell_angle_gamma 90.022247
loop_
_atom_site_label
_atom_site_type_symbol
_atom_site_fract_x
_atom_site_fract_y
_atom_site_fract_z
_atom_type_partial_charge
O0 O 0.03623 0.62544 0.04159 0.0
Cd1 Cd 0.06213 0.62842 0.03946 0.0
O2 O 0.0407 0.60259 0.03861 0.0
Cd3 Cd 0.03531 0.57995 0.03531 0.0
O4 O 0.03296 0.55722 0.02932 0.0
C5 C 0.03843 0.55255 0.01567 0.0
O6 O 0.04511 0.56156 0.00565 0.0
C7 C 0.03172 0.61263 0.04103 0.0
C8 C 0.07344 0.63614 0.07074 0.0
O9 O 0.07112 0.6456 0.05934 0.0
O10 O 0.07057 0.62305 0.0673 0.0
O11 O 0.65314 0.78477 0.28 0.0
Cd12 Cd 0.66241 0.80923 0.27876 0.0
O13 O 0.66595 0.78002 0.30264 0.0
Cd14 Cd 0.68027 0.79819 0.29904 0.0
O15 O 0.70163 0.80476 0.29095 0.0
C16 C 0.71197 0.79801 0.29769 0.0
O17 O 0.70913 0.7885 0.30946 0.0
C18 C 0.6564 0.77636 0.29204 0.0
C19 C 0.64873 0.82657 0.30253 0.0
O20 O 0.6442 0.82587 0.28726 0.0
O21 O 0.65976 0.81918 0.30651 0.0
O22 O 0.43945 0.40453 0.56572 0.0
Cd23 Cd 0.41494 0.41124 0.5732 0.0
O24 O 0.44488 0.42728 0.56731 0.0
Cd25 Cd 0.45839 0.44614 0.5637 0.0
O26 O 0.46318 0.46801 0.55566 0.0
C27 C 0.45616 0.47258 0.543 0.0
O28 O 0.44711 0.46388 0.53549 0.0
C29 C 0.44872 0.41444 0.56462 0.0
C30 C 0.4016 0.39174 0.59479 0.0
O31 O 0.40026 0.39071 0.57871 0.0
O32 O 0.40936 0.40191 0.60065 0.0
O33 O 0.83799 0.20325 0.79696 0.0
Cd34 Cd 0.83704 0.17721 0.79457 0.0
O35 O 0.82139 0.20428 0.81663 0.0
Cd36 Cd 0.8138 0.18268 0.81086 0.0
O37 O 0.79835 0.16911 0.79761 0.0
C38 C 0.80017 0.16657 0.78197 0.0
O39 O 0.81188 0.17124 0.77458 0.0
C40 C 0.83097 0.21043 0.80782 0.0
C41 C 0.85538 0.16596 0.81895 0.0
O42 O 0.86003 0.16961 0.80434 0.0
O43 O 0.84194 0.16722 0.82189 0.0
O44 O 0.04133 0.37478 0.97215 0.0
Cd45 Cd 0.06571 0.36549 0.97023 0.0
O46 O 0.04918 0.39679 0.96948 0.0
Cd47 Cd 0.04653 0.42006 0.97022 0.0
O48 O 0.0449 0.44313 0.97425 0.0
C49 C 0.03807 0.44785 0.987 0.0
O50 O 0.03193 0.43868 0.9973 0.0
C51 C 0.03879 0.38811 0.97126 0.0
C52 C 0.07363 0.3601 0.93684 0.0
O53 O 0.06695 0.35068 0.94558 0.0
O54 O 0.07659 0.3721 0.9439 0.0
O55 O 0.88067 0.79869 0.21815 0.0
Cd56 Cd 0.88782 0.82364 0.2217 0.0
O57 O 0.85896 0.80683 0.22194 0.0
Cd58 Cd 0.83592 0.80519 0.22642 0.0
O59 O 0.81395 0.80539 0.23588 0.0
C60 C 0.8115 0.79969 0.25017 0.0
O61 O 0.82215 0.79371 0.2584 0.0
C62 C 0.8673 0.79635 0.21902 0.0
C63 C 0.89515 0.83606 0.1909 0.0
O64 O 0.90483 0.83134 0.20093 0.0
O65 O 0.88204 0.83495 0.19545 0.0
O66 O 0.44948 0.64641 0.47607 0.0
Cd67 Cd 0.4244 0.65362 0.47731 0.0
O68 O 0.44209 0.62615 0.48687 0.0
Cd69 Cd 0.44457 0.60355 0.49361 0.0
O70 O 0.44653 0.58076 0.4993 0.0
C71 C 0.4559 0.57614 0.50958 0.0
O72 O 0.46462 0.58529 0.51688 0.0
C73 C 0.45224 0.63381 0.48113 0.0
C74 C 0.41363 0.65745 0.44479 0.0
O75 O 0.41762 0.6682 0.45369 0.0
O76 O 0.41458 0.64494 0.45131 0.0
O77 O 0.66542 0.19236 0.71423 0.0
Cd78 Cd 0.6637 0.16627 0.71499 0.0
O79 O 0.68147 0.19199 0.69391 0.0
Cd80 Cd 0.68756 0.16997 0.69971 0.0
O81 O 0.70393 0.15877 0.71434 0.0
C82 C 0.71616 0.15679 0.7077 0.0
O83 O 0.71802 0.16019 0.69173 0.0
C84 C 0.67284 0.19895 0.70323 0.0
C85 C 0.64582 0.15779 0.68856 0.0
O86 O 0.64071 0.16111 0.70307 0.0
O87 O 0.65944 0.15809 0.68666 0.0
O88 O 0.93007 0.42414 0.96573 0.0
Cd89 Cd 0.90438 0.42908 0.96592 0.0
O90 O 0.93014 0.42011 0.99314 0.0
Cd91 Cd 0.90968 0.431 0.99691 0.0
O92 O 0.89697 0.45003 0.00276 0.0
C93 C 0.89524 0.45952 0.99143 0.0
O94 O 0.90034 0.45716 0.97621 0.0
C95 C 0.93656 0.41991 0.97895 0.0
C96 C 0.89056 0.41549 0.93912 0.0
O97 O 0.89364 0.42884 0.93835 0.0
O98 O 0.89394 0.4086 0.95254 0.0
O99 O 0.34656 0.16314 0.69126 0.0
Cd100 Cd 0.34159 0.1382 0.69859 0.0
O101 O 0.33006 0.16328 0.67144 0.0
Cd102 Cd 0.32005 0.14363 0.68053 0.0
O103 O 0.30229 0.13639 0.69633 0.0
C104 C 0.30349 0.1376 0.71227 0.0
O105 O 0.31577 0.14186 0.7186 0.0
C106 C 0.34025 0.16951 0.67916 0.0
C107 C 0.3573 0.11933 0.67852 0.0
O108 O 0.34507 0.124 0.67368 0.0
O109 O 0.36208 0.12356 0.69287 0.0
O110 O 0.54761 0.58033 0.44232 0.0
Cd111 Cd 0.5661 0.56356 0.43302 0.0
O112 O 0.54524 0.5699 0.46709 0.0
Cd113 Cd 0.55952 0.55203 0.46171 0.0
O114 O 0.56477 0.52934 0.46319 0.0
C115 C 0.572 0.52473 0.47564 0.0
O116 O 0.57704 0.53395 0.48669 0.0
C117 C 0.54181 0.5798 0.45686 0.0
C118 C 0.58406 0.5758 0.40885 0.0
O119 O 0.57262 0.56919 0.4045 0.0
O120 O 0.58703 0.57658 0.42464 0.0
O121 O 0.17243 0.81384 0.19219 0.0
Cd122 Cd 0.18248 0.83779 0.18838 0.0
O123 O 0.15949 0.81923 0.21454 0.0
Cd124 Cd 0.17044 0.8398 0.21673 0.0
O125 O 0.18997 0.85179 0.22219 0.0
C126 C 0.1936 0.85355 0.23753 0.0
O127 O 0.1849 0.84914 0.2495 0.0
C128 C 0.16332 0.81022 0.20336 0.0
C129 C 0.16734 0.85285 0.16375 0.0
O130 O 0.17791 0.84479 0.15977 0.0
O131 O 0.16398 0.85388 0.17942 0.0
O132 O 0.92395 0.58158 0.06809 0.0
Cd133 Cd 0.89968 0.57246 0.07265 0.0
O134 O 0.91837 0.59513 0.04634 0.0
Cd135 Cd 0.89755 0.58466 0.04459 0.0
O136 O 0.88715 0.56438 0.0385 0.0
C137 C 0.88537 0.56118 0.02303 0.0
O138 O 0.88858 0.57073 0.01145 0.0
C139 C 0.92758 0.59075 0.05699 0.0
C140 C 0.88349 0.59052 0.09328 0.0
O141 O 0.8912 0.58053 0.09963 0.0
O142 O 0.88345 0.59198 0.07717 0.0
O143 O 0.18795 0.20446 0.80583 0.0
Cd144 Cd 0.19823 0.18093 0.81144 0.0
O145 O 0.17718 0.19752 0.78248 0.0
Cd146 Cd 0.18889 0.17725 0.78117 0.0
O147 O 0.20514 0.16272 0.77102 0.0
C148 C 0.21692 0.16071 0.77871 0.0
O149 O 0.2189 0.16678 0.7935 0.0
C150 C 0.1796 0.20711 0.79353 0.0
C151 C 0.17977 0.16382 0.83046 0.0
O152 O 0.18881 0.17216 0.83765 0.0
O153 O 0.17946 0.16356 0.81427 0.0
O154 O 0.54784 0.36389 0.55748 0.0
Cd155 Cd 0.56874 0.3484 0.55468 0.0
O156 O 0.5545 0.37577 0.53491 0.0
Cd157 Cd 0.55286 0.39377 0.51743 0.0
O158 O 0.55605 0.41458 0.50551 0.0
C159 C 0.56588 0.42246 0.51158 0.0
O160 O 0.57349 0.41765 0.52434 0.0
C161 C 0.54559 0.37379 0.54682 0.0
C162 C 0.5886 0.35217 0.58058 0.0
O163 O 0.58988 0.35892 0.56656 0.0
O164 O 0.57787 0.34375 0.58237 0.0
O165 O 0.34667 0.82358 0.28302 0.0
Cd166 Cd 0.34299 0.84949 0.28241 0.0
O167 O 0.33361 0.8198 0.26031 0.0
Cd168 Cd 0.32465 0.84133 0.25869 0.0
O169 O 0.30503 0.8534 0.25406 0.0
C170 C 0.29625 0.85524 0.26614 0.0
O171 O 0.29989 0.85101 0.28139 0.0
C172 C 0.34181 0.81508 0.27184 0.0
C173 C 0.35522 0.86278 0.31052 0.0
O174 O 0.36287 0.85911 0.29779 0.0
O175 O 0.34175 0.86023 0.31 0.0
O176 O 0.54618 0.13123 0.55879 0.0
Cd177 Cd 0.56791 0.14566 0.55643 0.0
O178 O 0.55775 0.11208 0.55035 0.0
Cd179 Cd 0.55879 0.08981 0.54183 0.0
O180 O 0.5595 0.06816 0.53141 0.0
C181 C 0.54957 0.06384 0.52167 0.0
O182 O 0.53889 0.0725 0.5182 0.0
C183 C 0.54619 0.11797 0.55525 0.0
C184 C 0.58412 0.14575 0.58605 0.0
O185 O 0.5737 0.15449 0.584 0.0
O186 O 0.58684 0.13687 0.57412 0.0
O187 O 0.12435 0.30658 0.78593 0.0
Cd188 Cd 0.11224 0.32973 0.78552 0.0
O189 O 0.14471 0.31646 0.77856 0.0
Cd190 Cd 0.16706 0.31617 0.77021 0.0
O191 O 0.18829 0.31697 0.7586 0.0
C192 C 0.19948 0.31374 0.76689 0.0
O193 O 0.19821 0.30984 0.78278 0.0
C194 C 0.13758 0.30535 0.78253 0.0
C195 C 0.10303 0.33721 0.81787 0.0
O196 O 0.09524 0.32947 0.80815 0.0
O197 O 0.11515 0.34152 0.81223 0.0
O198 O 0.95384 0.89087 0.0445 0.0
Cd199 Cd 0.92802 0.89269 0.04884 0.0
O200 O 0.95267 0.91168 0.0319 0.0
Cd201 Cd 0.96089 0.9316 0.02096 0.0
O202 O 0.96491 0.95314 0.01125 0.0
C203 C 0.9551 0.95924 0.00278 0.0
O204 O 0.94311 0.95228 0.99994 0.0
C205 C 0.96013 0.90119 0.03716 0.0
C206 C 0.92011 0.88027 0.07945 0.0
O207 O 0.91877 0.87337 0.06553 0.0
O208 O 0.92507 0.89305 0.07887 0.0
O209 O 0.37107 0.70441 0.28743 0.0
Cd210 Cd 0.37128 0.67873 0.29315 0.0
O211 O 0.34875 0.70121 0.28005 0.0
Cd212 Cd 0.32693 0.7076 0.27337 0.0
O213 O 0.30441 0.71121 0.2673 0.0
C214 C 0.29954 0.70732 0.25302 0.0
O215 O 0.30828 0.70144 0.24202 0.0
C216 C 0.35929 0.70961 0.28231 0.0
C217 C 0.3798 0.67336 0.32627 0.0
O218 O 0.38868 0.67214 0.314 0.0
O219 O 0.3669 0.677 0.32287 0.0
O220 O 0.56359 0.90365 0.41774 0.0
Cd221 Cd 0.58954 0.90595 0.41474 0.0
O222 O 0.56404 0.92564 0.42725 0.0
Cd223 Cd 0.55528 0.94498 0.439 0.0
O224 O 0.55096 0.9649 0.45259 0.0
C225 C 0.55926 0.96831 0.46467 0.0
O226 O 0.56985 0.95967 0.46857 0.0
C227 C 0.55693 0.91452 0.42334 0.0
C228 C 0.60119 0.88777 0.3904 0.0
O229 O 0.60061 0.88404 0.40598 0.0
O230 O 0.59613 0.90004 0.38632 0.0
O231 O 0.3422 0.28216 0.69 0.0
Cd232 Cd 0.33551 0.30698 0.69578 0.0
O233 O 0.32472 0.27959 0.67163 0.0
Cd234 Cd 0.31358 0.29901 0.67951 0.0
O235 O 0.29537 0.30818 0.69307 0.0
C236 C 0.2944 0.30561 0.70881 0.0
O237 O 0.30479 0.29855 0.71626 0.0
C238 C 0.33581 0.27466 0.67891 0.0
C239 C 0.35007 0.32564 0.67425 0.0
O240 O 0.35505 0.32259 0.68891 0.0
O241 O 0.33816 0.31995 0.66983 0.0
O242 O 0.9617 0.13488 0.94051 0.0
Cd243 Cd 0.93816 0.14565 0.94493 0.0
O244 O 0.95383 0.11411 0.9494 0.0
Cd245 Cd 0.95521 0.09117 0.95493 0.0
O246 O 0.95455 0.06835 0.96098 0.0
C247 C 0.96513 0.06208 0.96784 0.0
O248 O 0.97675 0.06947 0.9712 0.0
C249 C 0.96409 0.12184 0.94404 0.0
C250 C 0.92172 0.1474 0.91561 0.0
O251 O 0.93115 0.15691 0.91909 0.0
O252 O 0.92014 0.13692 0.92591 0.0
O253 O 0.1202 0.70387 0.21503 0.0
Cd254 Cd 0.11617 0.67807 0.21611 0.0
O255 O 0.14279 0.69793 0.21327 0.0
Cd256 Cd 0.16586 0.70201 0.2129 0.0
O257 O 0.18904 0.70408 0.2156 0.0
C258 C 0.19413 0.70963 0.22898 0.0
O259 O 0.18528 0.71425 0.24068 0.0
C260 C 0.13321 0.70759 0.21348 0.0
C261 C 0.10769 0.66784 0.18459 0.0
O262 O 0.09845 0.67024 0.19624 0.0
O263 O 0.12091 0.67016 0.18788 0.0
O264 O 0.44251 0.92323 0.432 0.0
Cd265 Cd 0.41653 0.92377 0.43609 0.0
O266 O 0.44545 0.90691 0.45174 0.0
Cd267 Cd 0.42426 0.91149 0.46203 0.0
O268 O 0.41223 0.92803 0.47541 0.0
C269 C 0.41119 0.92768 0.49142 0.0
O270 O 0.41625 0.91654 0.49959 0.0
C271 C 0.45059 0.91452 0.43986 0.0
C272 C 0.40247 0.91017 0.40943 0.0
O273 O 0.40339 0.92384 0.40999 0.0
O274 O 0.40808 0.90295 0.42149 0.0
O275 O 0.8177 0.6953 0.19171 0.0
Cd276 Cd 0.80621 0.67213 0.18676 0.0
O277 O 0.82986 0.68812 0.21396 0.0
Cd278 Cd 0.8176 0.66824 0.21514 0.0
O279 O 0.79845 0.65555 0.22044 0.0
C280 C 0.7956 0.65243 0.23571 0.0
O281 O 0.80474 0.65612 0.24757 0.0
C282 C 0.82688 0.69781 0.20322 0.0
C283 C 0.82302 0.65457 0.16619 0.0
O284 O 0.81386 0.66322 0.15979 0.0
O285 O 0.82422 0.6542 0.18232 0.0
O286 O 0.07378 0.09151 0.92264 0.0
Cd287 Cd 0.09846 0.08304 0.91997 0.0
O288 O 0.07047 0.0798 0.94645 0.0
Cd289 Cd 0.09141 0.0695 0.94752 0.0
O290 O 0.10446 0.05149 0.95593 0.0
C291 C 0.10709 0.05035 0.97163 0.0
O292 O 0.10291 0.06062 0.98185 0.0
C293 C 0.06575 0.08806 0.93497 0.0
C294 C 0.1155 0.10136 0.90068 0.0
O295 O 0.10835 0.09124 0.89373 0.0
O296 O 0.11454 0.10286 0.91675 0.0
O297 O 0.6843 0.31259 0.69287 0.0
Cd298 Cd 0.68559 0.33866 0.69162 0.0
O299 O 0.6747 0.31276 0.71825 0.0
Cd300 Cd 0.68214 0.33456 0.72311 0.0
O301 O 0.69903 0.34805 0.7337 0.0
C302 C 0.71024 0.35044 0.72504 0.0
O303 O 0.71083 0.34571 0.70941 0.0
C304 C 0.67829 0.30596 0.70498 0.0
C305 C 0.66443 0.34758 0.66919 0.0
O306 O 0.67734 0.34567 0.66418 0.0
O307 O 0.66166 0.34576 0.68491 0.0
O308 O 0.45482 0.05103 0.57756 0.0
Cd309 Cd 0.43294 0.03777 0.58354 0.0
O310 O 0.44521 0.0635 0.55689 0.0
Cd311 Cd 0.42682 0.04906 0.55485 0.0
O312 O 0.41578 0.03061 0.54381 0.0
C313 C 0.41172 0.01986 0.55242 0.0
O314 O 0.41329 0.02006 0.56892 0.0
C315 C 0.45569 0.06104 0.56673 0.0
C316 C 0.41507 0.0542 0.6041 0.0
O317 O 0.42462 0.04599 0.61049 0.0
O318 O 0.4138 0.05447 0.58797 0.0
O319 O 0.65409 0.66435 0.29884 0.0
Cd320 Cd 0.66133 0.63925 0.29785 0.0
O321 O 0.65234 0.66676 0.27127 0.0
Cd322 Cd 0.66396 0.6469 0.26645 0.0
O323 O 0.68496 0.6386 0.25926 0.0
C324 C 0.69471 0.63792 0.27044 0.0
O325 O 0.69145 0.641 0.28619 0.0
C326 C 0.65072 0.67186 0.28605 0.0
C327 C 0.64538 0.62362 0.32124 0.0
O328 O 0.65728 0.62946 0.32543 0.0
O329 O 0.64114 0.62499 0.30591 0.0
O330 O 0.07329 0.91256 0.04587 0.0
Cd331 Cd 0.09829 0.9201 0.04824 0.0
O332 O 0.07264 0.91581 0.01833 0.0
Cd333 Cd 0.09406 0.92499 0.01659 0.0
O334 O 0.10686 0.94339 0.00891 0.0
C335 C 0.10908 0.95351 0.01931 0.0
O336 O 0.10475 0.95202 0.03502 0.0
C337 C 0.06648 0.91204 0.03195 0.0
C338 C 0.11302 0.90504 0.07323 0.0
O339 O 0.10602 0.91644 0.07681 0.0
O340 O 0.11302 0.90074 0.05784 0.0
O341 O 0.83115 0.32469 0.81825 0.0
Cd342 Cd 0.82994 0.35077 0.81582 0.0
O343 O 0.83974 0.32295 0.79244 0.0
Cd344 Cd 0.8326 0.34439 0.78545 0.0
O345 O 0.81471 0.35584 0.77392 0.0
C346 C 0.80329 0.35741 0.78247 0.0
O347 O 0.80317 0.3533 0.79835 0.0
C348 C 0.83656 0.31714 0.80649 0.0
C349 C 0.84314 0.3646 0.84288 0.0
O350 O 0.82949 0.3633 0.84232 0.0
O351 O 0.85052 0.35936 0.83071 0.0
H352 H 0.04963 0.46974 0.96839 0.0
H353 H 0.02559 0.53089 0.03353 0.0
H354 H 0.02525 0.46142 0.01371 0.0
H355 H 0.04941 0.53913 0.98778 0.0
H356 H 0.02489 0.50547 0.02622 0.0
H357 H 0.04918 0.49527 0.97499 0.0
C358 C 0.04414 0.47327 0.97971 0.0
C359 C 0.0375 0.4634 0.99054 0.0
C360 C 0.03025 0.51285 0.01776 0.0
C361 C 0.03697 0.49266 0.9982 0.0
C362 C 0.03065 0.52737 0.02193 0.0
C363 C 0.0376 0.53717 0.01127 0.0
C364 C 0.03686 0.50806 0.00283 0.0
C365 C 0.04395 0.53197 0.99639 0.0
C366 C 0.0439 0.48787 0.98348 0.0
C367 C 0.03054 0.46863 0.00501 0.0
N368 N 0.04345 0.51779 0.99264 0.0
N369 N 0.03049 0.48289 0.00844 0.0
H370 H 0.80257 0.7875 0.27977 0.0
H371 H 0.7214 0.81408 0.27081 0.0
H372 H 0.78731 0.81254 0.23761 0.0
H373 H 0.73631 0.78574 0.31013 0.0
H374 H 0.74577 0.81516 0.2595 0.0
H375 H 0.7786 0.78807 0.29196 0.0
C376 C 0.79418 0.79313 0.27306 0.0
C377 C 0.79697 0.79995 0.25761 0.0
C378 C 0.74371 0.80875 0.27064 0.0
C379 C 0.76943 0.80068 0.27156 0.0
C380 C 0.7298 0.80817 0.27714 0.0
C381 C 0.72679 0.79975 0.2914 0.0
C382 C 0.75467 0.80089 0.27848 0.0
C383 C 0.73811 0.79232 0.29907 0.0
C384 C 0.78048 0.79345 0.28004 0.0
C385 C 0.78565 0.80709 0.24952 0.0
N386 N 0.75151 0.79304 0.29249 0.0
N387 N 0.77238 0.80727 0.25659 0.0
H388 H 0.47316 0.49389 0.55611 0.0
H389 H 0.44033 0.55428 0.4957 0.0
H390 H 0.44195 0.48562 0.51707 0.0
H391 H 0.4733 0.56275 0.53261 0.0
H392 H 0.44127 0.52896 0.50305 0.0
H393 H 0.47392 0.51901 0.54734 0.0
C394 C 0.46652 0.49733 0.54565 0.0
C395 C 0.45742 0.48763 0.53736 0.0
C396 C 0.44834 0.53633 0.50952 0.0
C397 C 0.45821 0.51636 0.52731 0.0
C398 C 0.4478 0.55082 0.50533 0.0
C399 C 0.45671 0.56069 0.5136 0.0
C400 C 0.45782 0.53163 0.52212 0.0
C401 C 0.46621 0.55553 0.52594 0.0
C402 C 0.46696 0.51167 0.54065 0.0
C403 C 0.44909 0.4927 0.52387 0.0
N404 N 0.46647 0.54137 0.52988 0.0
N405 N 0.44964 0.5067 0.51933 0.0
H406 H 0.7733 0.1586 0.79241 0.0
H407 H 0.74402 0.1531 0.69791 0.0
H408 H 0.80007 0.16093 0.748 0.0
H409 H 0.71686 0.15283 0.74207 0.0
H410 H 0.76497 0.15158 0.71625 0.0
H411 H 0.753 0.1522 0.77446 0.0
C412 C 0.77497 0.15757 0.77892 0.0
C413 C 0.78838 0.16053 0.77168 0.0
C414 C 0.75442 0.15167 0.72194 0.0
C415 C 0.76514 0.15329 0.75104 0.0
C416 C 0.74244 0.15251 0.71146 0.0
C417 C 0.72866 0.15334 0.71846 0.0
C418 C 0.75264 0.15173 0.73958 0.0
C419 C 0.72728 0.15239 0.73611 0.0
C420 C 0.76336 0.15393 0.76866 0.0
C421 C 0.78991 0.15892 0.75413 0.0
N422 N 0.73913 0.15183 0.74606 0.0
N423 N 0.7784 0.15557 0.7444 0.0
H424 H 0.8823 0.55034 0.99108 0.0
H425 H 0.88683 0.46933 0.02261 0.0
H426 H 0.88143 0.53788 0.04362 0.0
H427 H 0.89062 0.4823 0.97042 0.0
H428 H 0.88061 0.49392 0.03017 0.0
H429 H 0.88101 0.52516 0.98303 0.0
C430 C 0.88163 0.54233 0.00094 0.0
C431 C 0.8822 0.54623 0.01806 0.0
C432 C 0.88264 0.49135 0.01703 0.0
C433 C 0.88086 0.51733 0.00891 0.0
C434 C 0.88617 0.4773 0.0127 0.0
C435 C 0.88946 0.47378 0.99588 0.0
C436 C 0.88243 0.50197 0.00447 0.0
C437 C 0.88834 0.48454 0.98357 0.0
C438 C 0.88093 0.52793 0.99633 0.0
C439 C 0.88118 0.53536 0.03027 0.0
N440 N 0.88507 0.49817 0.98814 0.0
N441 N 0.88074 0.5214 0.02546 0.0
H442 H 0.2172 0.14851 0.74714 0.0
H443 H 0.30218 0.14023 0.7467 0.0
H444 H 0.24405 0.15618 0.79063 0.0
H445 H 0.27556 0.13308 0.70289 0.0
H446 H 0.28068 0.14248 0.76403 0.0
H447 H 0.238 0.13933 0.73189 0.0
C448 C 0.22743 0.1481 0.75357 0.0
C449 C 0.22891 0.15332 0.77013 0.0
C450 C 0.27953 0.14025 0.75066 0.0
C451 C 0.2528 0.14289 0.75268 0.0
C452 C 0.29182 0.13894 0.74075 0.0
C453 C 0.29068 0.13667 0.72326 0.0
C454 C 0.26598 0.13937 0.74303 0.0
C455 C 0.27696 0.13496 0.71629 0.0
C456 C 0.23931 0.14287 0.74483 0.0
C457 C 0.24242 0.15242 0.77783 0.0
N458 N 0.26515 0.13653 0.72616 0.0
N459 N 0.25386 0.14747 0.76898 0.0
H460 H 0.55977 0.5028 0.4577 0.0
H461 H 0.58469 0.44259 0.52331 0.0
H462 H 0.58664 0.51119 0.50099 0.0
H463 H 0.55279 0.4356 0.48469 0.0
H464 H 0.58786 0.46702 0.51308 0.0
H465 H 0.55962 0.47741 0.4651 0.0
C466 C 0.56577 0.4993 0.46866 0.0
C467 C 0.57313 0.50917 0.47883 0.0
C468 C 0.58021 0.46013 0.5068 0.0
C469 C 0.57293 0.48013 0.4874 0.0
C470 C 0.57839 0.44616 0.51262 0.0
C471 C 0.56837 0.43705 0.50493 0.0
C472 C 0.57199 0.46505 0.49313 0.0
C473 C 0.56057 0.44227 0.49108 0.0
C474 C 0.56563 0.4848 0.47291 0.0
C475 C 0.58074 0.50399 0.49285 0.0
N476 N 0.5625 0.45594 0.48567 0.0
N477 N 0.58037 0.48984 0.49677 0.0
H478 H 0.27424 0.85866 0.28866 0.0
H479 H 0.21524 0.86119 0.21587 0.0
H480 H 0.28418 0.86173 0.23548 0.0
H481 H 0.20547 0.85672 0.26896 0.0
H482 H 0.24028 0.8655 0.22315 0.0
H483 H 0.24896 0.86208 0.28203 0.0
C484 C 0.27114 0.86026 0.27561 0.0
C485 C 0.28134 0.85968 0.26259 0.0
C486 C 0.23263 0.86375 0.23322 0.0
C487 C 0.25235 0.86347 0.25488 0.0
C488 C 0.21831 0.86131 0.22908 0.0
C489 C 0.20826 0.85836 0.24181 0.0
C490 C 0.23696 0.86319 0.25022 0.0
C491 C 0.21286 0.85877 0.2587 0.0
C492 C 0.25668 0.86218 0.27182 0.0
C493 C 0.27668 0.86194 0.24592 0.0
N494 N 0.22689 0.86095 0.2624 0.0
N495 N 0.26251 0.86355 0.24253 0.0
H496 H 0.53095 0.05179 0.49899 0.0
H497 H 0.57568 0.97902 0.49036 0.0
H498 H 0.56982 0.04305 0.52662 0.0
H499 H 0.53855 0.98878 0.46 0.0
H500 H 0.57288 0.0019 0.50487 0.0
H501 H 0.53276 0.02824 0.48568 0.0
C502 C 0.53984 0.04491 0.5023 0.0
C503 C 0.55028 0.04944 0.51391 0.0
C504 C 0.56532 0.99904 0.49506 0.0
C505 C 0.55241 0.02245 0.4987 0.0
C506 C 0.5669 0.98595 0.48676 0.0
C507 C 0.55736 0.98198 0.47389 0.0
C508 C 0.5541 0.00825 0.49048 0.0
C509 C 0.54618 0.99141 0.46981 0.0
C510 C 0.54087 0.03146 0.49468 0.0
C511 C 0.56155 0.04004 0.51772 0.0
N512 N 0.54488 0.00412 0.47806 0.0
N513 N 0.56232 0.02702 0.51012 0.0
H514 H 0.28882 0.30131 0.7424 0.0
H515 H 0.20593 0.32173 0.73443 0.0
H516 H 0.26954 0.31735 0.69658 0.0
H517 H 0.22548 0.30654 0.7805 0.0
H518 H 0.22938 0.32146 0.72079 0.0
H519 H 0.26606 0.30463 0.75703 0.0
C520 C 0.27984 0.30565 0.73543 0.0
C521 C 0.28109 0.30896 0.71819 0.0
C522 C 0.22856 0.31824 0.7339 0.0
C523 C 0.25491 0.31269 0.73487 0.0
C524 C 0.21516 0.31837 0.74171 0.0
C525 C 0.2137 0.31407 0.75863 0.0
C526 C 0.24063 0.31374 0.74305 0.0
C527 C 0.22606 0.30989 0.76742 0.0
C528 C 0.26682 0.30751 0.74381 0.0
C529 C 0.26907 0.31459 0.70986 0.0
N530 N 0.23898 0.30977 0.75951 0.0
N531 N 0.25647 0.31618 0.71825 0.0
H532 H 0.93602 0.97534 0.98472 0.0
H533 H 0.98539 0.04546 0.98344 0.0
H534 H 0.97816 0.97712 0.00701 0.0
H535 H 0.94277 0.04365 0.96249 0.0
H536 H 0.98336 0.02023 0.9913 0.0
H537 H 0.93874 0.00012 0.97557 0.0
C538 C 0.94587 0.98092 0.98766 0.0
C539 C 0.95686 0.97413 0.9967 0.0
C540 C 0.97447 0.02535 0.98495 0.0
C541 C 0.96004 0.00259 0.98626 0.0
C542 C 0.97562 0.03976 0.98045 0.0
C543 C 0.96422 0.04672 0.97232 0.0
C544 C 0.96182 0.01782 0.9813 0.0
C545 C 0.95182 0.03877 0.96876 0.0
C546 C 0.94741 0.99509 0.98243 0.0
C547 C 0.96939 0.98192 0.00011 0.0
N548 N 0.95095 0.02477 0.97329 0.0
N549 N 0.97062 0.99574 0.99492 0.0
H550 H 0.21548 0.70072 0.20763 0.0
H551 H 0.27843 0.71864 0.27304 0.0
H552 H 0.2085 0.71999 0.25656 0.0
H553 H 0.28547 0.69939 0.22411 0.0
H554 H 0.25288 0.72011 0.26675 0.0
H555 H 0.24124 0.70104 0.21295 0.0
C556 C 0.21936 0.70507 0.21947 0.0
C557 C 0.2098 0.71029 0.2317 0.0
C558 C 0.26001 0.71561 0.25736 0.0
C559 C 0.2393 0.71065 0.23789 0.0
C560 C 0.27462 0.71477 0.26095 0.0
C561 C 0.28411 0.70883 0.24911 0.0
C562 C 0.25483 0.71046 0.24183 0.0
C563 C 0.27855 0.70402 0.23364 0.0
C564 C 0.23408 0.70524 0.2225 0.0
C565 C 0.21546 0.71582 0.24679 0.0
N566 N 0.26428 0.70489 0.23047 0.0
N567 N 0.22982 0.71581 0.24947 0.0
H568 H 0.40862 0.93112 0.52571 0.0
H569 H 0.40623 0.01602 0.5187 0.0
H570 H 0.4038 0.9539 0.47858 0.0
H571 H 0.40726 0.99332 0.5662 0.0
H572 H 0.40232 0.99336 0.50406 0.0
H573 H 0.40508 0.95357 0.54098 0.0
C574 C 0.40661 0.9408 0.51856 0.0
C575 C 0.40672 0.94065 0.50082 0.0
C576 C 0.40322 0.99333 0.5177 0.0
C577 C 0.4028 0.96643 0.51824 0.0
C578 C 0.40546 0.00629 0.52609 0.0
C579 C 0.40728 0.00656 0.5437 0.0
C580 C 0.40293 0.98051 0.52697 0.0
C581 C 0.40604 0.99362 0.5526 0.0
C582 C 0.4046 0.95363 0.5273 0.0
C583 C 0.40395 0.95351 0.49225 0.0
N584 N 0.40414 0.9811 0.54412 0.0
N585 N 0.4023 0.96591 0.50104 0.0
H586 H 0.71819 0.63629 0.29102 0.0
H587 H 0.77332 0.6454 0.21466 0.0
H588 H 0.70582 0.63533 0.23845 0.0
H589 H 0.78548 0.64608 0.26731 0.0
H590 H 0.74907 0.63854 0.22296 0.0
H591 H 0.74328 0.63662 0.28244 0.0
C592 C 0.72075 0.63596 0.27767 0.0
C593 C 0.70986 0.63597 0.26544 0.0
C594 C 0.75708 0.64004 0.23269 0.0
C595 C 0.73862 0.63648 0.25551 0.0
C596 C 0.77095 0.64394 0.22796 0.0
C597 C 0.78142 0.6465 0.24032 0.0
C598 C 0.75363 0.63873 0.24991 0.0
C599 C 0.77773 0.64436 0.25734 0.0
C600 C 0.7351 0.63617 0.27277 0.0
C601 C 0.71384 0.63544 0.24833 0.0
N602 N 0.76412 0.64075 0.26163 0.0
N603 N 0.72789 0.6359 0.24387 0.0
H604 H 0.11503 0.02616 0.95435 0.0
H605 H 0.11286 0.97821 0.03747 0.0
H606 H 0.1112 0.04326 0.00486 0.0
H607 H 0.11622 0.9611 0.98691 0.0
H608 H 0.11668 0.00221 0.02614 0.0
H609 H 0.11988 0.00258 0.96634 0.0
C610 C 0.11542 0.02501 0.96796 0.0
C611 C 0.11245 0.03666 0.97861 0.0
C612 C 0.11678 0.99318 0.01754 0.0
C613 C 0.11788 0.00965 0.99243 0.0
C614 C 0.11463 0.97946 0.02402 0.0
C615 C 0.11396 0.96763 0.01309 0.0
C616 C 0.1182 0.99512 1.00001 0.0
C617 C 0.11646 0.96991 0.99579 0.0
C618 C 0.11817 0.01153 0.97481 0.0
C619 C 0.11324 0.03455 0.99616 0.0
N620 N 0.11826 0.9834 0.98976 0.0
N621 N 0.11568 0.02127 0.00252 0.0
H622 H 0.79885 0.36296 0.74881 0.0
H623 H 0.71393 0.35809 0.75825 0.0
H624 H 0.77676 0.36061 0.79668 0.0
H625 H 0.73629 0.35592 0.71055 0.0
H626 H 0.73649 0.36392 0.77225 0.0
H627 H 0.7758 0.36533 0.73452 0.0
C628 C 0.78918 0.36317 0.75636 0.0
C629 C 0.78974 0.36134 0.77396 0.0
C630 C 0.73643 0.36235 0.75869 0.0
C631 C 0.76329 0.36394 0.75765 0.0
C632 C 0.72353 0.35905 0.75067 0.0
C633 C 0.72325 0.35627 0.73323 0.0
C634 C 0.74914 0.36286 0.74922 0.0
C635 C 0.73603 0.35779 0.72405 0.0
C636 C 0.776 0.36449 0.74817 0.0
C637 C 0.77684 0.3618 0.78307 0.0
N638 N 0.74848 0.3608 0.73218 0.0
N639 N 0.76415 0.36288 0.77479 0.0
H640 H 0.93901 0.61179 0.03682 0.0
H641 H 0.01972 0.58971 0.057 0.0
H642 H 0.95069 0.57998 0.0739 0.0
H643 H 0.00888 0.6289 0.03127 0.0
H644 H 0.99428 0.58499 0.06142 0.0
H645 H 0.96439 0.6176 0.03316 0.0
C646 C 0.94688 0.60611 0.04428 0.0
C647 C 0.9427 0.59535 0.05566 0.0
C648 C 0.99744 0.5946 0.05475 0.0
C649 C 0.97173 0.60182 0.05136 0.0
C650 C 0.01196 0.59718 0.052 0.0
C651 C 0.01636 0.60953 0.04341 0.0
C652 C 0.98724 0.60442 0.0488 0.0
C653 C 0.00588 0.61919 0.03785 0.0
C654 C 0.96136 0.60943 0.04218 0.0
C655 C 0.95339 0.58835 0.06499 0.0
N656 N 0.99177 0.61638 0.04053 0.0
N657 N 0.9674 0.59162 0.06253 0.0
H658 H 0.64166 0.76194 0.26733 0.0
H659 H 0.64928 0.68724 0.31551 0.0
H660 H 0.65781 0.75726 0.31816 0.0
H661 H 0.6427 0.69114 0.26167 0.0
H662 H 0.64632 0.71309 0.31831 0.0
H663 H 0.63595 0.73637 0.26694 0.0
C664 C 0.64374 0.75561 0.27853 0.0
C665 C 0.65044 0.76169 0.2927 0.0
C666 C 0.64533 0.70826 0.30592 0.0
C667 C 0.64399 0.73247 0.2923 0.0
C668 C 0.64698 0.69348 0.3043 0.0
C669 C 0.6465 0.68702 0.28828 0.0
C670 C 0.64316 0.71665 0.29142 0.0
C671 C 0.64337 0.69568 0.27424 0.0
C672 C 0.64054 0.74101 0.27826 0.0
C673 C 0.65285 0.75298 0.30686 0.0
N674 N 0.64199 0.71007 0.27612 0.0
N675 N 0.64977 0.73878 0.30623 0.0
H676 H 0.52758 0.38174 0.52143 0.0
H677 H 0.47303 0.42538 0.57867 0.0
H678 H 0.53376 0.3852 0.57529 0.0
H679 H 0.45822 0.3953 0.5412 0.0
H680 H 0.49776 0.41748 0.57335 0.0
H681 H 0.50427 0.39371 0.52445 0.0
C682 C 0.52416 0.38533 0.53381 0.0
C683 C 0.53253 0.38255 0.54814 0.0
C684 C 0.48907 0.4128 0.56617 0.0
C685 C 0.50618 0.39626 0.5516 0.0
C686 C 0.47504 0.41733 0.5691 0.0
C687 C 0.46366 0.41095 0.56034 0.0
C688 C 0.49169 0.40213 0.55408 0.0
C689 C 0.46674 0.40042 0.54824 0.0
C690 C 0.51088 0.39203 0.53552 0.0
C691 C 0.52755 0.38715 0.56396 0.0
N692 N 0.4805 0.39637 0.54538 0.0
N693 N 0.51469 0.39385 0.56529 0.0
H694 H 0.81898 0.22895 0.83075 0.0
H695 H 0.85054 0.29844 0.78561 0.0
H696 H 0.84872 0.22746 0.78898 0.0
H697 H 0.82603 0.30007 0.83185 0.0
H698 H 0.85083 0.27239 0.78745 0.0
H699 H 0.82213 0.2549 0.83213 0.0
C700 C 0.82624 0.23405 0.82193 0.0
C701 C 0.83351 0.226 0.80964 0.0
C702 C 0.8455 0.27843 0.79729 0.0
C703 C 0.83711 0.25573 0.81112 0.0
C704 C 0.84532 0.29333 0.79625 0.0
C705 C 0.83816 0.30147 0.80853 0.0
C706 C 0.83833 0.27156 0.81062 0.0
C707 C 0.83165 0.29423 0.82207 0.0
C708 C 0.82805 0.24887 0.82276 0.0
C709 C 0.84283 0.23321 0.79862 0.0
N710 N 0.83176 0.27969 0.82265 0.0
N711 N 0.84427 0.24766 0.79954 0.0
H712 H 0.95158 0.40444 0.00233 0.0
H713 H 0.02628 0.41019 0.95404 0.0
H714 H 0.95584 0.42442 0.9534 0.0
H715 H 0.01746 0.3775 0.99107 0.0
H716 H 0.00135 0.41816 0.95605 0.0
H717 H 0.97661 0.39688 0.00068 0.0
C718 C 0.95777 0.40724 0.99124 0.0
C719 C 0.9516 0.41505 0.97796 0.0
C720 C 0.0049 0.40929 0.96378 0.0
C721 C 0.98026 0.40657 0.9761 0.0
C722 C 0.01915 0.40485 0.96279 0.0
C723 C 0.02395 0.39333 0.97262 0.0
C724 C 0.99546 0.40222 0.97478 0.0
C725 C 0.01416 0.38646 0.98333 0.0
C726 C 0.97204 0.40289 0.9903 0.0
C727 C 0.96014 0.41836 0.96388 0.0
N728 N 0.00038 0.39107 0.98422 0.0
N729 N 0.97407 0.41418 0.96336 0.0
H730 H 0.81929 0.72227 0.18649 0.0
H731 H 0.87995 0.77119 0.22817 0.0
H732 H 0.8494 0.70615 0.22323 0.0
H733 H 0.84218 0.78821 0.20417 0.0
H734 H 0.87061 0.74692 0.22388 0.0
H735 H 0.82936 0.74619 0.19011 0.0
C736 C 0.82809 0.72373 0.19524 0.0
C737 C 0.83348 0.71217 0.20461 0.0
C738 C 0.86433 0.75598 0.21967 0.0
C739 C 0.84506 0.73958 0.2088 0.0
C740 C 0.86966 0.7698 0.22208 0.0
C741 C 0.86167 0.78171 0.21683 0.0
C742 C 0.85106 0.75407 0.21165 0.0
C743 C 0.84847 0.77935 0.20888 0.0
C744 C 0.83378 0.73742 0.19736 0.0
C745 C 0.84487 0.71475 0.2158 0.0
N746 N 0.8436 0.76579 0.20647 0.0
N747 N 0.8503 0.72818 0.21757 0.0
H748 H 0.46626 0.61558 0.50243 0.0
H749 H 0.53061 0.60175 0.43789 0.0
H750 H 0.47136 0.63884 0.45575 0.0
H751 H 0.52671 0.581 0.48645 0.0
H752 H 0.50997 0.61672 0.44495 0.0
H753 H 0.4893 0.60395 0.49754 0.0
C754 C 0.47221 0.61815 0.49108 0.0
C755 C 0.46675 0.62784 0.47922 0.0
C756 C 0.51373 0.60898 0.45411 0.0
C757 C 0.49326 0.61482 0.47367 0.0
C758 C 0.52552 0.60043 0.45009 0.0
C759 C 0.53033 0.59 0.46152 0.0
C760 C 0.50666 0.60703 0.46963 0.0
C761 C 0.52333 0.58882 0.47718 0.0
C762 C 0.48544 0.61163 0.48837 0.0
C763 C 0.47517 0.6313 0.46512 0.0
N764 N 0.5118 0.59713 0.48069 0.0
N765 N 0.48795 0.62466 0.46262 0.0
H766 H 0.66422 0.28862 0.72747 0.0
H767 H 0.68582 0.21634 0.67992 0.0
H768 H 0.68696 0.28761 0.67996 0.0
H769 H 0.65824 0.21759 0.72371 0.0
H770 H 0.6859 0.24246 0.67936 0.0
H771 H 0.66151 0.26265 0.72603 0.0
C772 C 0.66859 0.28296 0.7167 0.0
C773 C 0.6759 0.29032 0.70386 0.0
C774 C 0.67975 0.23702 0.68902 0.0
C775 C 0.67287 0.26055 0.70217 0.0
C776 C 0.6797 0.22209 0.68936 0.0
C777 C 0.67208 0.21474 0.70194 0.0
C778 C 0.6722 0.24469 0.70143 0.0
C779 C 0.6643 0.22279 0.71379 0.0
C780 C 0.66702 0.26812 0.71587 0.0
C781 C 0.68128 0.2824 0.69017 0.0
N782 N 0.66465 0.23733 0.71332 0.0
N783 N 0.67974 0.26794 0.68975 0.0
H784 H 0.32961 0.18596 0.65345 0.0
H785 H 0.35615 0.25883 0.6956 0.0
H786 H 0.35807 0.18779 0.69639 0.0
H787 H 0.32553 0.2563 0.65484 0.0
H788 H 0.36055 0.23314 0.69272 0.0
H789 H 0.33171 0.21183 0.65038 0.0
C790 C 0.33648 0.19176 0.6621 0.0
C791 C 0.34349 0.18469 0.67538 0.0
C792 C 0.35301 0.23825 0.68426 0.0
C793 C 0.34581 0.21442 0.67204 0.0
C794 C 0.35052 0.25294 0.68587 0.0
C795 C 0.34028 0.25971 0.67562 0.0
C796 C 0.34522 0.23029 0.67232 0.0
C797 C 0.33337 0.25152 0.66318 0.0
C798 C 0.33765 0.20657 0.66036 0.0
C799 C 0.35235 0.19279 0.68607 0.0
N800 N 0.33584 0.23723 0.66201 0.0
N801 N 0.3531 0.20725 0.68432 0.0
H802 H 0.17132 0.78774 0.18333 0.0
H803 H 0.12006 0.73056 0.22822 0.0
H804 H 0.14301 0.79869 0.22452 0.0
H805 H 0.1546 0.71936 0.19457 0.0
H806 H 0.12657 0.75588 0.22522 0.0
H807 H 0.16347 0.76293 0.18539 0.0
C808 C 0.16337 0.78496 0.19275 0.0
C809 C 0.15786 0.79534 0.20382 0.0
C810 C 0.13278 0.74786 0.2186 0.0
C811 C 0.14885 0.76684 0.20627 0.0
C812 C 0.12906 0.73344 0.22028 0.0
C813 C 0.13705 0.72286 0.21196 0.0
C814 C 0.14441 0.7517 0.20829 0.0
C815 C 0.1485 0.72713 0.20169 0.0
C816 C 0.15894 0.77076 0.19396 0.0
C817 C 0.14759 0.79105 0.21576 0.0
N818 N 0.15183 0.74122 0.20013 0.0
N819 N 0.14342 0.77712 0.21669 0.0
H820 H 0.15703 0.21507 0.77354 0.0
H821 H 0.16464 0.29854 0.79312 0.0
H822 H 0.18764 0.23196 0.80923 0.0
H823 H 0.12569 0.27974 0.77406 0.0
H824 H 0.17509 0.27457 0.7954 0.0
H825 H 0.14703 0.23912 0.77019 0.0
C826 C 0.16164 0.22383 0.78068 0.0
C827 C 0.17315 0.22149 0.79173 0.0
C828 C 0.16428 0.27571 0.79063 0.0
C829 C 0.16189 0.24903 0.78777 0.0
C830 C 0.1584 0.28939 0.78911 0.0
C831 C 0.14437 0.29111 0.78315 0.0
C832 C 0.15612 0.26371 0.786 0.0
C833 C 0.13657 0.27885 0.77867 0.0
C834 C 0.15591 0.23753 0.77878 0.0
C835 C 0.1787 0.23325 0.80066 0.0
N836 N 0.14256 0.26566 0.7801 0.0
N837 N 0.17307 0.24652 0.79841 0.0
H838 H 0.37291 0.73085 0.29961 0.0
H839 H 0.33224 0.79391 0.25076 0.0
H840 H 0.34269 0.72387 0.25924 0.0
H841 H 0.3593 0.80096 0.29423 0.0
H842 H 0.33731 0.76836 0.25249 0.0
H843 H 0.36957 0.7567 0.29647 0.0
C844 C 0.36556 0.73477 0.29009 0.0
C845 C 0.35777 0.72521 0.27996 0.0
C846 C 0.34217 0.77549 0.26163 0.0
C847 C 0.35394 0.75473 0.27624 0.0
C848 C 0.3393 0.79011 0.26065 0.0
C849 C 0.34531 0.79963 0.27242 0.0
C850 C 0.35115 0.77029 0.27446 0.0
C851 C 0.35439 0.79403 0.28492 0.0
C852 C 0.36362 0.74951 0.28834 0.0
C853 C 0.34848 0.73084 0.26775 0.0
N854 N 0.35701 0.77973 0.28563 0.0
N855 N 0.3468 0.74523 0.26626 0.0
H856 H 0.48171 0.05543 0.58112 0.0
H857 H 0.51915 0.1269 0.54794 0.0
H858 H 0.46009 0.08596 0.54912 0.0
H859 H 0.54276 0.09042 0.56621 0.0
H860 H 0.49691 0.11316 0.55069 0.0
H861 H 0.50376 0.06925 0.57819 0.0
C862 C 0.48157 0.06507 0.57353 0.0
C863 C 0.46902 0.06954 0.56534 0.0
C864 C 0.50698 0.10813 0.55396 0.0
C865 C 0.49425 0.08542 0.56199 0.0
C866 C 0.51964 0.11597 0.55245 0.0
C867 C 0.5328 0.10967 0.55655 0.0
C868 C 0.50749 0.09399 0.55994 0.0
C869 C 0.53288 0.09552 0.56244 0.0
C870 C 0.49419 0.07292 0.5718 0.0
C871 C 0.46952 0.08209 0.55561 0.0
N872 N 0.5204 0.08817 0.56403 0.0
N873 N 0.48192 0.08963 0.55426 0.0
H874 H 0.04779 0.9139 0.00541 0.0
H875 H 0.97938 0.88961 0.05905 0.0
H876 H 0.05002 0.90165 0.05798 0.0
H877 H 0.97668 0.91244 0.0118 0.0
H878 H 0.00554 0.8905 0.0572 0.0
H879 H 0.02198 0.90989 0.00596 0.0
C880 C 0.0429 0.91022 0.01703 0.0
C881 C 0.0511 0.9082 0.03172 0.0
C882 C 0.99921 0.89534 0.04726 0.0
C883 C 0.0215 0.90363 0.0324 0.0
C884 C 0.98431 0.8948 0.04827 0.0
C885 C 0.97588 0.90125 0.03574 0.0
C886 C 0.00573 0.9022 0.03347 0.0
C887 C 0.98278 0.90775 0.022 0.0
C888 C 0.02813 0.908 0.01734 0.0
C889 C 0.04412 0.90342 0.04639 0.0
N890 N 0.99731 0.90807 0.02123 0.0
N891 N 0.02971 0.90134 0.04637 0.0
H892 H 0.54043 0.89163 0.43223 0.0
H893 H 0.46632 0.93314 0.42066 0.0
H894 H 0.53773 0.93618 0.41842 0.0
H895 H 0.47018 0.89452 0.45024 0.0
H896 H 0.49219 0.93285 0.41602 0.0
H897 H 0.51431 0.89102 0.43536 0.0
C898 C 0.53433 0.90129 0.42992 0.0
C899 C 0.54124 0.91406 0.42541 0.0
C900 C 0.48735 0.92442 0.42348 0.0
C901 C 0.51145 0.91339 0.42867 0.0
C902 C 0.47258 0.92453 0.42606 0.0
C903 C 0.46607 0.91386 0.43592 0.0
C904 C 0.49568 0.91349 0.43063 0.0
C905 C 0.47475 0.90299 0.44263 0.0
C906 C 0.51946 0.90095 0.43174 0.0
C907 C 0.53286 0.92624 0.42242 0.0
N908 N 0.48911 0.90308 0.43986 0.0
N909 N 0.51839 0.9256 0.42405 0.0
H910 H 0.05187 0.10653 0.91344 0.0
H911 H 0.97739 0.1015 0.96338 0.0
H912 H 0.04541 0.08124 0.95849 0.0
H913 H 0.9843 0.12963 0.92095 0.0
H914 H 0.00193 0.09287 0.96062 0.0
H915 H 0.02691 0.11436 0.91508 0.0
C916 C 0.04523 0.10264 0.92368 0.0
C917 C 0.05078 0.09323 0.93586 0.0
C918 C 0.99806 0.10084 0.9518 0.0
C919 C 0.02219 0.10209 0.93775 0.0
C920 C 0.98396 0.1056 0.95321 0.0
C921 C 0.97869 0.11602 0.9421 0.0
C922 C 0.00701 0.10661 0.93924 0.0
C923 C 0.98794 0.12151 0.92971 0.0
C924 C 0.03098 0.10711 0.9246 0.0
C925 C 0.04164 0.08853 0.94883 0.0
N926 N 0.00165 0.11672 0.92859 0.0
N927 N 0.02782 0.09299 0.94941 0.0
H928 H 0.12154 0.67147 0.1545 0.0
H929 H 0.06994 0.62199 0.10064 0.0
H930 H 0.08364 0.65269 0.17643 0.0
H931 H 0.08946 0.65961 0.07897 0.0
H932 H 0.07857 0.62942 0.1286 0.0
H933 H 0.11352 0.66346 0.12649 0.0
C934 C 0.11159 0.66558 0.15342 0.0
C935 C 0.10319 0.66276 0.16775 0.0
C936 C 0.08097 0.636 0.11768 0.0
C937 C 0.09417 0.65344 0.13595 0.0
C938 C 0.07613 0.63175 0.10176 0.0
C939 C 0.07897 0.64024 0.08753 0.0
C940 C 0.089 0.64861 0.11927 0.0
C941 C 0.08698 0.65282 0.08967 0.0
C942 C 0.10701 0.6611 0.13748 0.0
C943 C 0.09036 0.65516 0.16567 0.0
N944 N 0.09182 0.65659 0.10525 0.0
N945 N 0.08628 0.65065 0.15005 0.0
H946 H 0.62777 0.84659 0.29732 0.0
H947 H 0.61664 0.86328 0.39559 0.0
H948 H 0.65294 0.82699 0.33675 0.0
H949 H 0.60076 0.89076 0.35596 0.0
H950 H 0.628 0.8482 0.37418 0.0
H951 H 0.6158 0.86131 0.31867 0.0
C952 C 0.63077 0.84537 0.31046 0.0
C953 C 0.64139 0.83557 0.31526 0.0
C954 C 0.62203 0.85753 0.37018 0.0
C955 C 0.62768 0.8523 0.33974 0.0
C956 C 0.61549 0.86612 0.38239 0.0
C957 C 0.60777 0.87832 0.37756 0.0
C958 C 0.62071 0.86108 0.353 0.0
C959 C 0.60666 0.88148 0.36026 0.0
C960 C 0.62396 0.8538 0.32263 0.0
C961 C 0.64486 0.83445 0.33247 0.0
N962 N 0.61304 0.8729 0.3486 0.0
N963 N 0.63799 0.84267 0.34409 0.0
H964 H 0.38172 0.37133 0.58664 0.0
H965 H 0.37372 0.34196 0.68118 0.0
H966 H 0.40465 0.38914 0.6291 0.0
H967 H 0.34425 0.33144 0.64103 0.0
H968 H 0.38652 0.35786 0.66182 0.0
H969 H 0.36927 0.35511 0.60593 0.0
C970 C 0.38417 0.37181 0.60001 0.0
C971 C 0.39423 0.38163 0.60627 0.0
C972 C 0.37724 0.35209 0.65726 0.0
C973 C 0.38002 0.36307 0.62841 0.0
C974 C 0.36994 0.34298 0.66829 0.0
C975 C 0.35788 0.33537 0.66272 0.0
C976 C 0.37253 0.3535 0.64048 0.0
C977 C 0.35347 0.33713 0.64588 0.0
C978 C 0.37702 0.36257 0.61102 0.0
C979 C 0.39695 0.38177 0.62373 0.0
N980 N 0.36082 0.34598 0.63535 0.0
N981 N 0.38991 0.37262 0.63418 0.0
H982 H 0.92634 0.16416 0.88785 0.0
H983 H 0.84892 0.1529 0.84902 0.0
H984 H 0.89639 0.1338 0.90883 0.0
H985 H 0.88451 0.16846 0.81947 0.0
H986 H 0.86554 0.14697 0.87192 0.0
H987 H 0.91056 0.16721 0.86345 0.0
C988 C 0.91646 0.15809 0.88729 0.0
C989 C 0.91264 0.14874 0.90039 0.0
C990 C 0.8697 0.15155 0.86035 0.0
C991 C 0.89449 0.15229 0.87262 0.0
C992 C 0.86023 0.15497 0.8473 0.0
C993 C 0.86534 0.16122 0.83234 0.0
C994 C 0.88433 0.15465 0.85853 0.0
C995 C 0.88011 0.16364 0.83078 0.0
C996 C 0.9075 0.1598 0.87333 0.0
C997 C 0.89975 0.1411 0.89898 0.0
N998 N 0.88907 0.1605 0.84379 0.0
N999 N 0.89105 0.14316 0.88541 0.0
H1000 H 0.09149 0.37583 0.91659 0.0
H1001 H 0.0802 0.32629 0.83527 0.0
H1002 H 0.06534 0.33773 0.91678 0.0
H1003 H 0.11499 0.35644 0.83987 0.0
H1004 H 0.07279 0.3321 0.86411 0.0
H1005 H 0.09845 0.37059 0.88741 0.0
C1006 C 0.08719 0.36638 0.91049 0.0
C1007 C 0.07784 0.35718 0.91915 0.0
C1008 C 0.08204 0.33744 0.8588 0.0
C1009 C 0.08571 0.35118 0.88576 0.0
C1010 C 0.08625 0.33417 0.84232 0.0
C1011 C 0.09825 0.34087 0.83516 0.0
C1012 C 0.08979 0.3476 0.86815 0.0
C1013 C 0.10571 0.35098 0.84491 0.0
C1014 C 0.0912 0.36338 0.89386 0.0
C1015 C 0.07262 0.34508 0.91062 0.0
N1016 N 0.10133 0.35407 0.8609 0.0
N1017 N 0.07659 0.34246 0.89438 0.0
H1018 H 0.92055 0.84841 0.18193 0.0
H1019 H 0.90151 0.85816 0.08501 0.0
H1020 H 0.8785 0.83848 0.16267 0.0
H1021 H 0.92987 0.88731 0.1109 0.0
H1022 H 0.89527 0.84734 0.1123 0.0
H1023 H 0.92661 0.85934 0.15465 0.0
C1024 C 0.91262 0.84849 0.17194 0.0
C1025 C 0.899 0.84258 0.17453 0.0
C1026 C 0.90284 0.85612 0.11195 0.0
C1027 C 0.90591 0.85482 0.14338 0.0
C1028 C 0.90644 0.86225 0.09642 0.0
C1029 C 0.91619 0.87366 0.09574 0.0
C1030 C 0.90929 0.86123 0.12679 0.0
C1031 C 0.92224 0.87858 0.1109 0.0
C1032 C 0.91606 0.85477 0.15645 0.0
C1033 C 0.88909 0.843 0.1612 0.0
N1034 N 0.91879 0.87225 0.12582 0.0
N1035 N 0.89279 0.84891 0.14612 0.0
H1036 H 0.36803 0.68429 0.35509 0.0
H1037 H 0.41414 0.63814 0.41889 0.0
H1038 H 0.40187 0.65665 0.33742 0.0
H1039 H 0.401 0.68117 0.43119 0.0
H1040 H 0.40572 0.64182 0.38983 0.0
H1041 H 0.37607 0.68032 0.38424 0.0
C1042 C 0.37709 0.67733 0.35737 0.0
C1043 C 0.38434 0.67081 0.34387 0.0
C1044 C 0.40468 0.65042 0.39894 0.0
C1045 C 0.39337 0.66608 0.37704 0.0
C1046 C 0.4094 0.64832 0.41549 0.0
C1047 C 0.40828 0.65939 0.4274 0.0
C1048 C 0.39848 0.66354 0.39443 0.0
C1049 C 0.40212 0.6724 0.42234 0.0
C1050 C 0.38169 0.67514 0.37395 0.0
C1051 C 0.39605 0.66194 0.34749 0.0
N1052 N 0.39733 0.67408 0.40624 0.0
N1053 N 0.40015 0.65972 0.36377 0.0
H1054 H 0.60994 0.13273 0.59177 0.0
H1055 H 0.61678 0.16115 0.68682 0.0
H1056 H 0.57833 0.15965 0.61571 0.0
H1057 H 0.65306 0.14683 0.65755 0.0
H1058 H 0.60137 0.1571 0.66231 0.0
H1059 H 0.62473 0.13438 0.61727 0.0
C1060 C 0.60607 0.13891 0.60242 0.0
C1061 C 0.59291 0.14612 0.60159 0.0
C1062 C 0.61269 0.15479 0.66129 0.0
C1063 C 0.60973 0.14797 0.63078 0.0
C1064 C 0.62149 0.15703 0.67529 0.0
C1065 C 0.63625 0.15439 0.67421 0.0
C1066 C 0.61865 0.14972 0.64613 0.0
C1067 C 0.64175 0.14908 0.65892 0.0
C1068 C 0.61454 0.13988 0.61693 0.0
C1069 C 0.58844 0.15399 0.61576 0.0
N1070 N 0.63295 0.14692 0.64547 0.0
N1071 N 0.59682 0.15469 0.62977 0.0
H1072 H 0.86997 0.35996 0.85533 0.0
H1073 H 0.87239 0.42706 0.91577 0.0
H1074 H 0.83234 0.38598 0.86271 0.0
H1075 H 0.89252 0.38736 0.93019 0.0
H1076 H 0.8605 0.41455 0.8923 0.0
H1077 H 0.8815 0.37234 0.87908 0.0
C1078 C 0.86417 0.36831 0.86192 0.0
C1079 C 0.85019 0.37195 0.85713 0.0
C1080 C 0.86752 0.40863 0.90065 0.0
C1081 C 0.86337 0.38625 0.88392 0.0
C1082 C 0.87434 0.41573 0.91394 0.0
C1083 C 0.88339 0.40819 0.92491 0.0
C1084 C 0.87014 0.39401 0.89808 0.0
C1085 C 0.88554 0.39352 0.92206 0.0
C1086 C 0.87072 0.37529 0.87546 0.0
C1087 C 0.84311 0.38281 0.8661 0.0
N1088 N 0.87907 0.38692 0.90879 0.0
N1089 N 0.84985 0.38971 0.87898 0.0
H1090 H 0.38205 0.10523 0.68662 0.0
H1091 H 0.39221 0.07079 0.59481 0.0
H1092 H 0.35167 0.11081 0.64605 0.0
H1093 H 0.41735 0.05852 0.63822 0.0
H1094 H 0.37787 0.08639 0.61297 0.0
H1095 H 0.39583 0.08901 0.66865 0.0
C1096 C 0.37827 0.10304 0.67393 0.0
C1097 C 0.36568 0.10939 0.66783 0.0
C1098 C 0.38649 0.08024 0.61853 0.0
C1099 C 0.38145 0.09087 0.64716 0.0
C1100 C 0.39469 0.07134 0.60817 0.0
C1101 C 0.406 0.06333 0.615 0.0
C1102 C 0.38969 0.08124 0.63585 0.0
C1103 C 0.40872 0.06448 0.63241 0.0
C1104 C 0.38613 0.09375 0.66369 0.0
C1105 C 0.36129 0.10614 0.65129 0.0
N1106 N 0.40067 0.07331 0.64221 0.0
N1107 N 0.36919 0.09715 0.64151 0.0
H1108 H 0.62004 0.6095 0.31616 0.0
H1109 H 0.60947 0.58981 0.41391 0.0
H1110 H 0.6507 0.62007 0.35503 0.0
H1111 H 0.58019 0.57688 0.37455 0.0
H1112 H 0.62472 0.60094 0.39254 0.0
H1113 H 0.60534 0.59743 0.33735 0.0
C1114 C 0.62371 0.60924 0.32914 0.0
C1115 C 0.63662 0.61583 0.33382 0.0
C1116 C 0.61498 0.59564 0.38856 0.0
C1117 C 0.6198 0.60206 0.35819 0.0
C1118 C 0.60625 0.58929 0.40077 0.0
C1119 C 0.59351 0.58241 0.39602 0.0
C1120 C 0.61093 0.59516 0.37147 0.0
C1121 C 0.5899 0.58207 0.3788 0.0
C1122 C 0.61531 0.60235 0.34124 0.0
C1123 C 0.64083 0.61514 0.35084 0.0
N1124 N 0.59855 0.58838 0.36716 0.0
N1125 N 0.63242 0.60843 0.36241 0.0
H1126 H 0.13105 0.88219 0.0692 0.0
H1127 H 0.14609 0.87272 0.16819 0.0
H1128 H 0.11304 0.90984 0.10741 0.0
H1129 H 0.17 0.85073 0.12937 0.0
H1130 H 0.13272 0.88537 0.14623 0.0
H1131 H 0.14422 0.86943 0.09122 0.0
C1132 C 0.12985 0.88557 0.08222 0.0
C1133 C 0.12094 0.89712 0.08646 0.0
C1134 C 0.14091 0.87779 0.14252 0.0
C1135 C 0.13597 0.88253 0.11175 0.0
C1136 C 0.14853 0.87055 0.15505 0.0
C1137 C 0.1592 0.86066 0.15062 0.0
C1138 C 0.14389 0.87506 0.12541 0.0
C1139 C 0.1619 0.85829 0.13338 0.0
C1140 C 0.1374 0.8783 0.09479 0.0
C1141 C 0.11981 0.90103 0.10355 0.0
N1142 N 0.15427 0.8654 0.12142 0.0
N1143 N 0.12721 0.89373 0.11557 0.0
H1144 H 0.88199 0.59075 0.12787 0.0
H1145 H 0.82374 0.65359 0.13158 0.0
H1146 H 0.86519 0.61192 0.08363 0.0
H1147 H 0.84268 0.63443 0.17589 0.0
H1148 H 0.83855 0.63815 0.11381 0.0
H1149 H 0.86741 0.60639 0.14566 0.0
C1150 C 0.87524 0.59869 0.12189 0.0
C1151 C 0.87481 0.60001 0.10422 0.0
C1152 C 0.83948 0.63733 0.12742 0.0
C1153 C 0.85805 0.61796 0.12454 0.0
C1154 C 0.83101 0.64613 0.13758 0.0
C1155 C 0.83195 0.6453 0.15527 0.0
C1156 C 0.84896 0.62757 0.13496 0.0
C1157 C 0.84159 0.63544 0.16232 0.0
C1158 C 0.86692 0.60763 0.13206 0.0
C1159 C 0.86587 0.61052 0.09719 0.0
N1160 N 0.84969 0.62695 0.15215 0.0
N1161 N 0.85784 0.61907 0.10736 0.0
H1162 H 0.13299 0.12294 0.91181 0.0
H1163 H 0.16027 0.14414 0.81907 0.0
H1164 H 0.11905 0.10159 0.86629 0.0
H1165 H 0.17699 0.16281 0.86492 0.0
H1166 H 0.14436 0.12915 0.83606 0.0
H1167 H 0.14842 0.13835 0.89475 0.0
C1168 C 0.13315 0.12151 0.89822 0.0
C1169 C 0.12472 0.11094 0.89048 0.0
C1170 C 0.15151 0.13652 0.84241 0.0
C1171 C 0.14238 0.12856 0.87085 0.0
C1172 C 0.16059 0.1451 0.83271 0.0
C1173 C 0.17 0.15474 0.84058 0.0
C1174 C 0.15179 0.13761 0.86012 0.0
C1175 C 0.16994 0.15552 0.85831 0.0
C1176 C 0.14198 0.1303 0.88849 0.0
C1177 C 0.12538 0.10958 0.87281 0.0
N1178 N 0.16098 0.14707 0.86747 0.0
N1179 N 0.13405 0.11828 0.8636 0.0
H1180 H 0.63552 0.34712 0.67463 0.0
H1181 H 0.61514 0.36453 0.57859 0.0
H1182 H 0.66705 0.35528 0.63591 0.0
H1183 H 0.58667 0.34317 0.61339 0.0
H1184 H 0.6334 0.36548 0.60077 0.0
H1185 H 0.61661 0.35008 0.65356 0.0
C1186 C 0.63847 0.3497 0.66174 0.0
C1187 C 0.65289 0.35085 0.65699 0.0
C1188 C 0.62312 0.36065 0.60355 0.0
C1189 C 0.6313 0.35424 0.63285 0.0
C1190 C 0.61268 0.36014 0.59093 0.0
C1191 C 0.5994 0.35366 0.59412 0.0
C1192 C 0.62019 0.35479 0.61952 0.0
C1193 C 0.5968 0.34816 0.61034 0.0
C1194 C 0.62767 0.35132 0.64972 0.0
C1195 C 0.65607 0.3542 0.6401 0.0
N1196 N 0.60711 0.34884 0.62243 0.0
N1197 N 0.64536 0.35574 0.62862 0.0
H1198 H 0.34264 0.88103 0.3331 0.0
H1199 H 0.40743 0.88324 0.39742 0.0
H1200 H 0.38273 0.86027 0.32169 0.0
H1201 H 0.38122 0.92057 0.38909 0.0
H1202 H 0.39576 0.87153 0.3733 0.0
H1203 H 0.35401 0.8927 0.35751 0.0
C1204 C 0.3538 0.87889 0.33579 0.0
C1205 C 0.3618 0.86973 0.32537 0.0
C1206 C 0.39259 0.88228 0.37681 0.0
C1207 C 0.37468 0.88275 0.35329 0.0
C1208 C 0.39916 0.88893 0.39058 0.0
C1209 C 0.39529 0.9029 0.39518 0.0
C1210 C 0.38182 0.88952 0.36791 0.0
C1211 C 0.38456 0.90982 0.38586 0.0
C1212 C 0.36026 0.88557 0.34962 0.0
C1213 C 0.37623 0.86733 0.32936 0.0
N1214 N 0.37809 0.90301 0.37272 0.0
N1215 N 0.38219 0.8737 0.34311 0.0
loop_
_geom_bond_atom_site_label_1
_geom_bond_atom_site_label_2
_geom_bond_distance
_geom_bond_site_symmetry_2
_ccdc_geom_bond_type
O0 Cd1 2.300 . S
O0 C7 1.275 . S
Cd1 O0 2.300 . S
Cd1 O9 2.381 . S
Cd1 O10 2.378 . S
O2 Cd3 2.385 . S
O2 C7 1.255 . S
Cd3 O2 2.385 . S
Cd3 O4 2.317 . S
O4 Cd3 2.317 . S
O4 C5 1.232 . S
C5 O4 1.232 . S
C5 O6 1.218 . S
O6 C5 1.218 . S
C7 O0 1.275 . S
C7 O2 1.255 . S
C8 O9 1.258 . S
C8 O10 1.256 . S
O9 Cd1 2.381 . S
O9 C8 1.258 . S
O10 Cd1 2.378 . S
O10 C8 1.256 . S
O11 Cd12 2.300 . S
O11 C18 1.275 . S
Cd12 O11 2.300 . S
Cd12 O20 2.381 . S
Cd12 O21 2.378 . S
O13 Cd14 2.385 . S
O13 C18 1.255 . S
Cd14 O13 2.385 . S
Cd14 O15 2.317 . S
O15 Cd14 2.317 . S
O15 C16 1.232 . S
C16 O15 1.232 . S
C16 O17 1.218 . S
O17 C16 1.218 . S
C18 O11 1.275 . S
C18 O13 1.255 . S
C19 O20 1.258 . S
C19 O21 1.256 . S
O20 Cd12 2.381 . S
O20 C19 1.258 . S
O21 Cd12 2.378 . S
O21 C19 1.256 . S
O22 Cd23 2.300 . S
O22 C29 1.275 . S
Cd23 O22 2.300 . S
Cd23 O31 2.381 . S
Cd23 O32 2.378 . S
O24 Cd25 2.385 . S
O24 C29 1.255 . S
Cd25 O24 2.385 . S
Cd25 O26 2.317 . S
O26 Cd25 2.317 . S
O26 C27 1.232 . S
C27 O26 1.232 . S
C27 O28 1.218 . S
O28 C27 1.218 . S
C29 O22 1.275 . S
C29 O24 1.255 . S
C30 O31 1.258 . S
C30 O32 1.256 . S
O31 Cd23 2.381 . S
O31 C30 1.258 . S
O32 Cd23 2.378 . S
O32 C30 1.256 . S
O33 Cd34 2.300 . S
O33 C40 1.275 . S
Cd34 O33 2.300 . S
Cd34 O42 2.381 . S
Cd34 O43 2.378 . S
O35 Cd36 2.385 . S
O35 C40 1.255 . S
Cd36 O35 2.385 . S
Cd36 O37 2.317 . S
O37 Cd36 2.317 . S
O37 C38 1.232 . S
C38 O37 1.232 . S
C38 O39 1.218 . S
O39 C38 1.218 . S
C40 O33 1.275 . S
C40 O35 1.255 . S
C41 O42 1.258 . S
C41 O43 1.256 . S
O42 Cd34 2.381 . S
O42 C41 1.258 . S
O43 Cd34 2.378 . S
O43 C41 1.256 . S
O44 Cd45 2.300 . S
O44 C51 1.275 . S
Cd45 O44 2.300 . S
Cd45 O53 2.381 . S
Cd45 O54 2.378 . S
O46 Cd47 2.385 . S
O46 C51 1.255 . S
Cd47 O46 2.385 . S
Cd47 O48 2.317 . S
O48 Cd47 2.317 . S
O48 C49 1.232 . S
C49 O48 1.232 . S
C49 O50 1.218 . S
O50 C49 1.218 . S
C51 O44 1.275 . S
C51 O46 1.255 . S
C52 O53 1.258 . S
C52 O54 1.256 . S
O53 Cd45 2.381 . S
O53 C52 1.258 . S
O54 Cd45 2.378 . S
O54 C52 1.256 . S
O55 Cd56 2.300 . S
O55 C62 1.275 . S
Cd56 O55 2.300 . S
Cd56 O64 2.381 . S
Cd56 O65 2.378 . S
O57 Cd58 2.385 . S
O57 C62 1.255 . S
Cd58 O57 2.385 . S
Cd58 O59 2.317 . S
O59 Cd58 2.317 . S
O59 C60 1.232 . S
C60 O59 1.232 . S
C60 O61 1.218 . S
O61 C60 1.218 . S
C62 O55 1.275 . S
C62 O57 1.255 . S
C63 O64 1.258 . S
C63 O65 1.256 . S
O64 Cd56 2.381 . S
O64 C63 1.258 . S
O65 Cd56 2.378 . S
O65 C63 1.256 . S
O66 Cd67 2.300 . S
O66 C73 1.275 . S
Cd67 O66 2.300 . S
Cd67 O75 2.381 . S
Cd67 O76 2.378 . S
O68 Cd69 2.385 . S
O68 C73 1.255 . S
Cd69 O68 2.385 . S
Cd69 O70 2.317 . S
O70 Cd69 2.317 . S
O70 C71 1.232 . S
C71 O70 1.232 . S
C71 O72 1.218 . S
O72 C71 1.218 . S
C73 O66 1.275 . S
C73 O68 1.255 . S
C74 O75 1.258 . S
C74 O76 1.256 . S
O75 Cd67 2.381 . S
O75 C74 1.258 . S
O76 Cd67 2.378 . S
O76 C74 1.256 . S
O77 Cd78 2.300 . S
O77 C84 1.275 . S
Cd78 O77 2.300 . S
Cd78 O86 2.381 . S
Cd78 O87 2.378 . S
O79 Cd80 2.385 . S
O79 C84 1.255 . S
Cd80 O79 2.385 . S
Cd80 O81 2.317 . S
O81 Cd80 2.317 . S
O81 C82 1.232 . S
C82 O81 1.232 . S
C82 O83 1.218 . S
O83 C82 1.218 . S
C84 O77 1.275 . S
C84 O79 1.255 . S
C85 O86 1.258 . S
C85 O87 1.256 . S
O86 Cd78 2.381 . S
O86 C85 1.258 . S
O87 Cd78 2.378 . S
O87 C85 1.256 . S
O88 Cd89 2.300 . S
O88 C95 1.275 . S
Cd89 O88 2.300 . S
Cd89 O97 2.381 . S
Cd89 O98 2.378 . S
O90 Cd91 2.385 . S
O90 C95 1.255 . S
Cd91 O90 2.385 . S
Cd91 O92 2.317 . S
O92 Cd91 2.317 . S
O92 C93 1.232 . S
C93 O92 1.232 . S
C93 O94 1.218 . S
O94 C93 1.218 . S
C95 O88 1.275 . S
C95 O90 1.255 . S
C96 O97 1.258 . S
C96 O98 1.256 . S
O97 Cd89 2.381 . S
O97 C96 1.258 . S
O98 Cd89 2.378 . S
O98 C96 1.256 . S
O99 Cd100 2.300 . S
O99 C106 1.275 . S
Cd100 O99 2.300 . S
Cd100 O108 2.381 . S
Cd100 O109 2.378 . S
O101 Cd102 2.385 . S
O101 C106 1.255 . S
Cd102 O101 2.385 . S
Cd102 O103 2.317 . S
O103 Cd102 2.317 . S
O103 C104 1.232 . S
C104 O103 1.232 . S
C104 O105 1.218 . S
O105 C104 1.218 . S
C106 O99 1.275 . S
C106 O101 1.255 . S
C107 O108 1.258 . S
C107 O109 1.256 . S
O108 Cd100 2.381 . S
O108 C107 1.258 . S
O109 Cd100 2.378 . S
O109 C107 1.256 . S
O110 Cd111 2.300 . S
O110 C117 1.275 . S
Cd111 O110 2.300 . S
Cd111 O119 2.381 . S
Cd111 O120 2.378 . S
O112 Cd113 2.385 . S
O112 C117 1.255 . S
Cd113 O112 2.385 . S
Cd113 O114 2.317 . S
O114 Cd113 2.317 . S
O114 C115 1.232 . S
C115 O114 1.232 . S
C115 O116 1.218 . S
O116 C115 1.218 . S
C117 O110 1.275 . S
C117 O112 1.255 . S
C118 O119 1.258 . S
C118 O120 1.256 . S
O119 Cd111 2.381 . S
O119 C118 1.258 . S
O120 Cd111 2.378 . S
O120 C118 1.256 . S
O121 Cd122 2.300 . S
O121 C128 1.275 . S
Cd122 O121 2.300 . S
Cd122 O130 2.381 . S
Cd122 O131 2.378 . S
O123 Cd124 2.385 . S
O123 C128 1.255 . S
Cd124 O123 2.385 . S
Cd124 O125 2.317 . S
O125 Cd124 2.317 . S
O125 C126 1.232 . S
C126 O125 1.232 . S
C126 O127 1.218 . S
O127 C126 1.218 . S
C128 O121 1.275 . S
C128 O123 1.255 . S
C129 O130 1.258 . S
C129 O131 1.256 . S
O130 Cd122 2.381 . S
O130 C129 1.258 . S
O131 Cd122 2.378 . S
O131 C129 1.256 . S
O132 Cd133 2.300 . S
O132 C139 1.275 . S
Cd133 O132 2.300 . S
Cd133 O141 2.381 . S
Cd133 O142 2.378 . S
O134 Cd135 2.385 . S
O134 C139 1.255 . S
Cd135 O134 2.385 . S
Cd135 O136 2.317 . S
O136 Cd135 2.317 . S
O136 C137 1.232 . S
C137 O136 1.232 . S
C137 O138 1.218 . S
O138 C137 1.218 . S
C139 O132 1.275 . S
C139 O134 1.255 . S
C140 O141 1.258 . S
C140 O142 1.256 . S
O141 Cd133 2.381 . S
O141 C140 1.258 . S
O142 Cd133 2.378 . S
O142 C140 1.256 . S
O143 Cd144 2.300 . S
O143 C150 1.275 . S
Cd144 O143 2.300 . S
Cd144 O152 2.381 . S
Cd144 O153 2.378 . S
O145 Cd146 2.385 . S
O145 C150 1.255 . S
Cd146 O145 2.385 . S
Cd146 O147 2.317 . S
O147 Cd146 2.317 . S
O147 C148 1.232 . S
C148 O147 1.232 . S
C148 O149 1.218 . S
O149 C148 1.218 . S
C150 O143 1.275 . S
C150 O145 1.255 . S
C151 O152 1.258 . S
C151 O153 1.256 . S
O152 Cd144 2.381 . S
O152 C151 1.258 . S
O153 Cd144 2.378 . S
O153 C151 1.256 . S
O154 Cd155 2.300 . S
O154 C161 1.275 . S
Cd155 O154 2.300 . S
Cd155 O163 2.381 . S
Cd155 O164 2.378 . S
O156 Cd157 2.385 . S
O156 C161 1.255 . S
Cd157 O156 2.385 . S
Cd157 O158 2.317 . S
O158 Cd157 2.317 . S
O158 C159 1.232 . S
C159 O158 1.232 . S
C159 O160 1.218 . S
O160 C159 1.218 . S
C161 O154 1.275 . S
C161 O156 1.255 . S
C162 O163 1.258 . S
C162 O164 1.256 . S
O163 Cd155 2.381 . S
O163 C162 1.258 . S
O164 Cd155 2.378 . S
O164 C162 1.256 . S
O165 Cd166 2.300 . S
O165 C172 1.275 . S
Cd166 O165 2.300 . S
Cd166 O174 2.381 . S
Cd166 O175 2.378 . S
O167 Cd168 2.385 . S
O167 C172 1.255 . S
Cd168 O167 2.385 . S
Cd168 O169 2.317 . S
O169 Cd168 2.317 . S
O169 C170 1.232 . S
C170 O169 1.232 . S
C170 O171 1.218 . S
O171 C170 1.218 . S
C172 O165 1.275 . S
C172 O167 1.255 . S
C173 O174 1.258 . S
C173 O175 1.256 . S
O174 Cd166 2.381 . S
O174 C173 1.258 . S
O175 Cd166 2.378 . S
O175 C173 1.256 . S
O176 Cd177 2.300 . S
O176 C183 1.275 . S
Cd177 O176 2.300 . S
Cd177 O185 2.381 . S
Cd177 O186 2.378 . S
O178 Cd179 2.385 . S
O178 C183 1.255 . S
Cd179 O178 2.385 . S
Cd179 O180 2.317 . S
O180 Cd179 2.317 . S
O180 C181 1.232 . S
C181 O180 1.232 . S
C181 O182 1.218 . S
O182 C181 1.218 . S
C183 O176 1.275 . S
C183 O178 1.255 . S
C184 O185 1.258 . S
C184 O186 1.256 . S
O185 Cd177 2.381 . S
O185 C184 1.258 . S
O186 Cd177 2.378 . S
O186 C184 1.256 . S
O187 Cd188 2.300 . S
O187 C194 1.275 . S
Cd188 O187 2.300 . S
Cd188 O196 2.381 . S
Cd188 O197 2.378 . S
O189 Cd190 2.385 . S
O189 C194 1.255 . S
Cd190 O189 2.385 . S
Cd190 O191 2.317 . S
O191 Cd190 2.317 . S
O191 C192 1.232 . S
C192 O191 1.232 . S
C192 O193 1.218 . S
O193 C192 1.218 . S
C194 O187 1.275 . S
C194 O189 1.255 . S
C195 O196 1.258 . S
C195 O197 1.256 . S
O196 Cd188 2.381 . S
O196 C195 1.258 . S
O197 Cd188 2.378 . S
O197 C195 1.256 . S
O198 Cd199 2.300 . S
O198 C205 1.275 . S
Cd199 O198 2.300 . S
Cd199 O207 2.381 . S
Cd199 O208 2.378 . S
O200 Cd201 2.385 . S
O200 C205 1.255 . S
Cd201 O200 2.385 . S
Cd201 O202 2.317 . S
O202 Cd201 2.317 . S
O202 C203 1.232 . S
C203 O202 1.232 . S
C203 O204 1.218 . S
O204 C203 1.218 . S
C205 O198 1.275 . S
C205 O200 1.255 . S
C206 O207 1.258 . S
C206 O208 1.256 . S
O207 Cd199 2.381 . S
O207 C206 1.258 . S
O208 Cd199 2.378 . S
O208 C206 1.256 . S
O209 Cd210 2.300 . S
O209 C216 1.275 . S
Cd210 O209 2.300 . S
Cd210 O218 2.381 . S
Cd210 O219 2.378 . S
O211 Cd212 2.385 . S
O211 C216 1.255 . S
Cd212 O211 2.385 . S
Cd212 O213 2.317 . S
O213 Cd212 2.317 . S
O213 C214 1.232 . S
C214 O213 1.232 . S
C214 O215 1.218 . S
O215 C214 1.218 . S
C216 O209 1.275 . S
C216 O211 1.255 . S
C217 O218 1.258 . S
C217 O219 1.256 . S
O218 Cd210 2.381 . S
O218 C217 1.258 . S
O219 Cd210 2.378 . S
O219 C217 1.256 . S
O220 Cd221 2.300 . S
O220 C227 1.275 . S
Cd221 O220 2.300 . S
Cd221 O229 2.381 . S
Cd221 O230 2.378 . S
O222 Cd223 2.385 . S
O222 C227 1.255 . S
Cd223 O222 2.385 . S
Cd223 O224 2.317 . S
O224 Cd223 2.317 . S
O224 C225 1.232 . S
C225 O224 1.232 . S
C225 O226 1.218 . S
O226 C225 1.218 . S
C227 O220 1.275 . S
C227 O222 1.255 . S
C228 O229 1.258 . S
C228 O230 1.256 . S
O229 Cd221 2.381 . S
O229 C228 1.258 . S
O230 Cd221 2.378 . S
O230 C228 1.256 . S
O231 Cd232 2.300 . S
O231 C238 1.275 . S
Cd232 O231 2.300 . S
Cd232 O240 2.381 . S
Cd232 O241 2.378 . S
O233 Cd234 2.385 . S
O233 C238 1.255 . S
Cd234 O233 2.385 . S
Cd234 O235 2.317 . S
O235 Cd234 2.317 . S
O235 C236 1.232 . S
C236 O235 1.232 . S
C236 O237 1.218 . S
O237 C236 1.218 . S
C238 O231 1.275 . S
C238 O233 1.255 . S
C239 O240 1.258 . S
C239 O241 1.256 . S
O240 Cd232 2.381 . S
O240 C239 1.258 . S
O241 Cd232 2.378 . S
O241 C239 1.256 . S
O242 Cd243 2.300 . S
O242 C249 1.275 . S
Cd243 O242 2.300 . S
Cd243 O251 2.381 . S
Cd243 O252 2.378 . S
O244 Cd245 2.385 . S
O244 C249 1.255 . S
Cd245 O244 2.385 . S
Cd245 O246 2.317 . S
O246 Cd245 2.317 . S
O246 C247 1.232 . S
C247 O246 1.232 . S
C247 O248 1.218 . S
O248 C247 1.218 . S
C249 O242 1.275 . S
C249 O244 1.255 . S
C250 O251 1.258 . S
C250 O252 1.256 . S
O251 Cd243 2.381 . S
O251 C250 1.258 . S
O252 Cd243 2.378 . S
O252 C250 1.256 . S
O253 Cd254 2.300 . S
O253 C260 1.275 . S
Cd254 O253 2.300 . S
Cd254 O262 2.381 . S
Cd254 O263 2.378 . S
O255 Cd256 2.385 . S
O255 C260 1.255 . S
Cd256 O255 2.385 . S
Cd256 O257 2.317 . S
O257 Cd256 2.317 . S
O257 C258 1.232 . S
C258 O257 1.232 . S
C258 O259 1.218 . S
O259 C258 1.218 . S
C260 O253 1.275 . S
C260 O255 1.255 . S
C261 O262 1.258 . S
C261 O263 1.256 . S
O262 Cd254 2.381 . S
O262 C261 1.258 . S
O263 Cd254 2.378 . S
O263 C261 1.256 . S
O264 Cd265 2.300 . S
O264 C271 1.275 . S
Cd265 O264 2.300 . S
Cd265 O273 2.381 . S
Cd265 O274 2.378 . S
O266 Cd267 2.385 . S
O266 C271 1.255 . S
Cd267 O266 2.385 . S
Cd267 O268 2.317 . S
O268 Cd267 2.317 . S
O268 C269 1.232 . S
C269 O268 1.232 . S
C269 O270 1.218 . S
O270 C269 1.218 . S
C271 O264 1.275 . S
C271 O266 1.255 . S
C272 O273 1.258 . S
C272 O274 1.256 . S
O273 Cd265 2.381 . S
O273 C272 1.258 . S
O274 Cd265 2.378 . S
O274 C272 1.256 . S
O275 Cd276 2.300 . S
O275 C282 1.275 . S
Cd276 O275 2.300 . S
Cd276 O284 2.381 . S
Cd276 O285 2.378 . S
O277 Cd278 2.385 . S
O277 C282 1.255 . S
Cd278 O277 2.385 . S
Cd278 O279 2.317 . S
O279 Cd278 2.317 . S
O279 C280 1.232 . S
C280 O279 1.232 . S
C280 O281 1.218 . S
O281 C280 1.218 . S
C282 O275 1.275 . S
C282 O277 1.255 . S
C283 O284 1.258 . S
C283 O285 1.256 . S
O284 Cd276 2.381 . S
O284 C283 1.258 . S
O285 Cd276 2.378 . S
O285 C283 1.256 . S
O286 Cd287 2.300 . S
O286 C293 1.275 . S
Cd287 O286 2.300 . S
Cd287 O295 2.381 . S
Cd287 O296 2.378 . S
O288 Cd289 2.385 . S
O288 C293 1.255 . S
Cd289 O288 2.385 . S
Cd289 O290 2.317 . S
O290 Cd289 2.317 . S
O290 C291 1.232 . S
C291 O290 1.232 . S
C291 O292 1.218 . S
O292 C291 1.218 . S
C293 O286 1.275 . S
C293 O288 1.255 . S
C294 O295 1.258 . S
C294 O296 1.256 . S
O295 Cd287 2.381 . S
O295 C294 1.258 . S
O296 Cd287 2.378 . S
O296 C294 1.256 . S
O297 Cd298 2.300 . S
O297 C304 1.275 . S
Cd298 O297 2.300 . S
Cd298 O306 2.381 . S
Cd298 O307 2.378 . S
O299 Cd300 2.385 . S
O299 C304 1.255 . S
Cd300 O299 2.385 . S
Cd300 O301 2.317 . S
O301 Cd300 2.317 . S
O301 C302 1.232 . S
C302 O301 1.232 . S
C302 O303 1.218 . S
O303 C302 1.218 . S
C304 O297 1.275 . S
C304 O299 1.255 . S
C305 O306 1.258 . S
C305 O307 1.256 . S
O306 Cd298 2.381 . S
O306 C305 1.258 . S
O307 Cd298 2.378 . S
O307 C305 1.256 . S
O308 Cd309 2.300 . S
O308 C315 1.275 . S
Cd309 O308 2.300 . S
Cd309 O317 2.381 . S
Cd309 O318 2.378 . S
O310 Cd311 2.385 . S
O310 C315 1.255 . S
Cd311 O310 2.385 . S
Cd311 O312 2.317 . S
O312 Cd311 2.317 . S
O312 C313 1.232 . S
C313 O312 1.232 . S
C313 O314 1.218 . S
O314 C313 1.218 . S
C315 O308 1.275 . S
C315 O310 1.255 . S
C316 O317 1.258 . S
C316 O318 1.256 . S
O317 Cd309 2.381 . S
O317 C316 1.258 . S
O318 Cd309 2.378 . S
O318 C316 1.256 . S
O319 Cd320 2.300 . S
O319 C326 1.275 . S
Cd320 O319 2.300 . S
Cd320 O328 2.381 . S
Cd320 O329 2.378 . S
O321 Cd322 2.385 . S
O321 C326 1.255 . S
Cd322 O321 2.385 . S
Cd322 O323 2.317 . S
O323 Cd322 2.317 . S
O323 C324 1.232 . S
C324 O323 1.232 . S
C324 O325 1.218 . S
O325 C324 1.218 . S
C326 O319 1.275 . S
C326 O321 1.255 . S
C327 O328 1.258 . S
C327 O329 1.256 . S
O328 Cd320 2.381 . S
O328 C327 1.258 . S
O329 Cd320 2.378 . S
O329 C327 1.256 . S
O330 Cd331 2.300 . S
O330 C337 1.275 . S
Cd331 O330 2.300 . S
Cd331 O339 2.381 . S
Cd331 O340 2.378 . S
O332 Cd333 2.385 . S
O332 C337 1.255 . S
Cd333 O332 2.385 . S
Cd333 O334 2.317 . S
O334 Cd333 2.317 . S
O334 C335 1.232 . S
C335 O334 1.232 . S
C335 O336 1.218 . S
O336 C335 1.218 . S
C337 O330 1.275 . S
C337 O332 1.255 . S
C338 O339 1.258 . S
C338 O340 1.256 . S
O339 Cd331 2.381 . S
O339 C338 1.258 . S
O340 Cd331 2.378 . S
O340 C338 1.256 . S
O341 Cd342 2.300 . S
O341 C348 1.275 . S
Cd342 O341 2.300 . S
Cd342 O350 2.381 . S
Cd342 O351 2.378 . S
O343 Cd344 2.385 . S
O343 C348 1.255 . S
Cd344 O343 2.385 . S
Cd344 O345 2.317 . S
O345 Cd344 2.317 . S
O345 C346 1.232 . S
C346 O345 1.232 . S
C346 O347 1.218 . S
O347 C346 1.218 . S
C348 O341 1.275 . S
C348 O343 1.255 . S
C349 O350 1.258 . S
C349 O351 1.256 . S
O350 Cd342 2.381 . S
O350 C349 1.258 . S
O351 Cd342 2.378 . S
O351 C349 1.256 . S
H352 C358 0.930 . S
H353 C362 0.930 . S
H354 C367 0.899 1_554 S
H355 C365 0.899 1_556 S
H356 C360 0.929 . S
H357 C366 0.929 . S
C358 H352 0.930 . S
C358 C359 1.367 . S
C358 C366 1.378 . S
C359 C358 1.367 . S
C359 C367 1.493 . S
C360 H356 0.929 . S
C360 C362 1.378 . S
C360 C364 1.350 . S
C361 C364 1.463 1_556 S
C361 C366 1.350 . S
C361 N369 1.427 1_556 S
C362 H353 0.930 . S
C362 C360 1.378 . S
C362 C363 1.367 . S
C363 C362 1.367 . S
C363 C365 1.493 . S
C364 C360 1.350 . S
C364 C361 1.463 1_554 S
C364 N368 1.427 1_554 S
C365 H355 0.899 1_554 S
C365 C363 1.493 . S
C365 N368 1.360 1_554 S
C366 H357 0.929 . S
C366 C358 1.378 . S
C366 C361 1.350 . S
C367 H354 0.899 1_556 S
C367 C359 1.493 . S
C367 N369 1.360 1_556 S
N368 C364 1.427 1_556 S
N368 C365 1.360 1_556 S
N369 C361 1.427 1_554 S
N369 C367 1.360 1_554 S
H370 C376 0.930 . S
H371 C380 0.930 . S
H372 C385 0.929 . S
H373 C383 0.929 . S
H374 C378 0.929 . S
H375 C384 0.929 . S
C376 H370 0.930 . S
C376 C377 1.367 . S
C376 C384 1.378 . S
C377 C376 1.367 . S
C377 C385 1.433 . S
C378 H374 0.929 . S
C378 C380 1.378 . S
C378 C382 1.350 . S
C379 C382 1.463 . S
C379 C384 1.350 . S
C379 N387 1.427 . S
C380 H371 0.930 . S
C380 C378 1.378 . S
C380 C381 1.367 . S
C381 C380 1.367 . S
C381 C383 1.433 . S
C382 C378 1.350 . S
C382 C379 1.463 . S
C382 N386 1.427 . S
C383 H373 0.929 . S
C383 C381 1.433 . S
C383 N386 1.384 . S
C384 H375 0.929 . S
C384 C376 1.378 . S
C384 C379 1.350 . S
C385 H372 0.929 . S
C385 C377 1.433 . S
C385 N387 1.384 . S
N386 C382 1.427 . S
N386 C383 1.384 . S
N387 C379 1.427 . S
N387 C385 1.384 . S
H388 C394 0.930 . S
H389 C398 0.930 . S
H390 C403 0.929 . S
H391 C401 0.929 . S
H392 C396 0.929 . S
H393 C402 0.929 . S
C394 H388 0.930 . S
C394 C395 1.367 . S
C394 C402 1.378 . S
C395 C394 1.367 . S
C395 C403 1.433 . S
C396 H392 0.929 . S
C396 C398 1.378 . S
C396 C400 1.350 . S
C397 C400 1.463 . S
C397 C402 1.350 . S
C397 N405 1.427 . S
C398 H389 0.930 . S
C398 C396 1.378 . S
C398 C399 1.367 . S
C399 C398 1.367 . S
C399 C401 1.433 . S
C400 C396 1.350 . S
C400 C397 1.463 . S
C400 N404 1.427 . S
C401 H391 0.929 . S
C401 C399 1.433 . S
C401 N404 1.384 . S
C402 H393 0.929 . S
C402 C394 1.378 . S
C402 C397 1.350 . S
C403 H390 0.929 . S
C403 C395 1.433 . S
C403 N405 1.384 . S
N404 C400 1.427 . S
N404 C401 1.384 . S
N405 C397 1.427 . S
N405 C403 1.384 . S
H406 C412 0.930 . S
H407 C416 0.930 . S
H408 C421 0.929 . S
H409 C419 0.929 . S
H410 C414 0.929 . S
H411 C420 0.929 . S
C412 H406 0.930 . S
C412 C413 1.367 . S
C412 C420 1.378 . S
C413 C412 1.367 . S
C413 C421 1.433 . S
C414 H410 0.929 . S
C414 C416 1.378 . S
C414 C418 1.350 . S
C415 C418 1.463 . S
C415 C420 1.350 . S
C415 N423 1.427 . S
C416 H407 0.930 . S
C416 C414 1.378 . S
C416 C417 1.367 . S
C417 C416 1.367 . S
C417 C419 1.433 . S
C418 C414 1.350 . S
C418 C415 1.463 . S
C418 N422 1.427 . S
C419 H409 0.929 . S
C419 C417 1.433 . S
C419 N422 1.384 . S
C420 H411 0.929 . S
C420 C412 1.378 . S
C420 C415 1.350 . S
C421 H408 0.929 . S
C421 C413 1.433 . S
C421 N423 1.384 . S
N422 C418 1.427 . S
N422 C419 1.384 . S
N423 C415 1.427 . S
N423 C421 1.384 . S
H424 C430 0.956 . S
H425 C434 0.956 . S
H426 C439 0.929 . S
H427 C437 0.929 . S
H428 C432 0.929 . S
H429 C438 0.929 . S
C430 H424 0.956 . S
C430 C431 1.326 1_556 S
C430 C438 1.394 . S
C431 C430 1.326 1_554 S
C431 C439 1.433 . S
C432 H428 0.929 . S
C432 C434 1.394 . S
C432 C436 1.350 1_554 S
C433 C436 1.463 1_554 S
C433 C438 1.350 1_554 S
C433 N441 1.427 . S
C434 H425 0.956 . S
C434 C432 1.394 . S
C434 C435 1.326 1_554 S
C435 C434 1.326 1_556 S
C435 C437 1.433 . S
C436 C432 1.350 1_556 S
C436 C433 1.463 1_556 S
C436 N440 1.427 . S
C437 H427 0.929 . S
C437 C435 1.433 . S
C437 N440 1.384 . S
C438 H429 0.929 . S
C438 C430 1.394 . S
C438 C433 1.350 1_556 S
C439 H426 0.929 . S
C439 C431 1.433 . S
C439 N441 1.384 . S
N440 C436 1.427 . S
N440 C437 1.384 . S
N441 C433 1.427 . S
N441 C439 1.384 . S
H442 C448 0.930 . S
H443 C452 0.930 . S
H444 C457 0.929 . S
H445 C455 0.929 . S
H446 C450 0.929 . S
H447 C456 0.929 . S
C448 H442 0.930 . S
C448 C449 1.367 . S
C448 C456 1.378 . S
C449 C448 1.367 . S
C449 C457 1.433 . S
C450 H446 0.929 . S
C450 C452 1.378 . S
C450 C454 1.350 . S
C451 C454 1.463 . S
C451 C456 1.350 . S
C451 N459 1.427 . S
C452 H443 0.930 . S
C452 C450 1.378 . S
C452 C453 1.367 . S
C453 C452 1.367 . S
C453 C455 1.433 . S
C454 C450 1.350 . S
C454 C451 1.463 . S
C454 N458 1.427 . S
C455 H445 0.929 . S
C455 C453 1.433 . S
C455 N458 1.384 . S
C456 H447 0.929 . S
C456 C448 1.378 . S
C456 C451 1.350 . S
C457 H444 0.929 . S
C457 C449 1.433 . S
C457 N459 1.384 . S
N458 C454 1.427 . S
N458 C455 1.384 . S
N459 C451 1.427 . S
N459 C457 1.384 . S
H460 C466 0.930 . S
H461 C470 0.930 . S
H462 C475 0.929 . S
H463 C473 0.929 . S
H464 C468 0.929 . S
H465 C474 0.929 . S
C466 H460 0.930 . S
C466 C467 1.367 . S
C466 C474 1.378 . S
C467 C466 1.367 . S
C467 C475 1.433 . S
C468 H464 0.929 . S
C468 C470 1.378 . S
C468 C472 1.350 . S
C469 C472 1.463 . S
C469 C474 1.350 . S
C469 N477 1.427 . S
C470 H461 0.930 . S
C470 C468 1.378 . S
C470 C471 1.367 . S
C471 C470 1.367 . S
C471 C473 1.433 . S
C472 C468 1.350 . S
C472 C469 1.463 . S
C472 N476 1.427 . S
C473 H463 0.929 . S
C473 C471 1.433 . S
C473 N476 1.384 . S
C474 H465 0.929 . S
C474 C466 1.378 . S
C474 C469 1.350 . S
C475 H462 0.929 . S
C475 C467 1.433 . S
C475 N477 1.384 . S
N476 C472 1.427 . S
N476 C473 1.384 . S
N477 C469 1.427 . S
N477 C475 1.384 . S
H478 C484 0.930 . S
H479 C488 0.930 . S
H480 C493 0.929 . S
H481 C491 0.929 . S
H482 C486 0.929 . S
H483 C492 0.929 . S
C484 H478 0.930 . S
C484 C485 1.367 . S
C484 C492 1.378 . S
C485 C484 1.367 . S
C485 C493 1.433 . S
C486 H482 0.929 . S
C486 C488 1.378 . S
C486 C490 1.350 . S
C487 C490 1.463 . S
C487 C492 1.350 . S
C487 N495 1.427 . S
C488 H479 0.930 . S
C488 C486 1.378 . S
C488 C489 1.367 . S
C489 C488 1.367 . S
C489 C491 1.433 . S
C490 C486 1.350 . S
C490 C487 1.463 . S
C490 N494 1.427 . S
C491 H481 0.929 . S
C491 C489 1.433 . S
C491 N494 1.384 . S
C492 H483 0.929 . S
C492 C484 1.378 . S
C492 C487 1.350 . S
C493 H480 0.929 . S
C493 C485 1.433 . S
C493 N495 1.384 . S
N494 C490 1.427 . S
N494 C491 1.384 . S
N495 C487 1.427 . S
N495 C493 1.384 . S
H496 C502 0.930 . S
H497 C506 0.930 . S
H498 C511 0.929 . S
H499 C509 0.929 . S
H500 C504 0.929 . S
H501 C510 0.929 . S
C502 H496 0.930 . S
C502 C503 1.367 . S
C502 C510 1.378 . S
C503 C502 1.367 . S
C503 C511 1.433 . S
C504 H500 0.929 . S
C504 C506 1.378 . S
C504 C508 1.350 . S
C505 C508 1.463 1_545 S
C505 C510 1.350 . S
C505 N513 1.427 . S
C506 H497 0.930 . S
C506 C504 1.378 . S
C506 C507 1.367 . S
C507 C506 1.367 . S
C507 C509 1.433 . S
C508 C504 1.350 . S
C508 C505 1.463 1_565 S
C508 N512 1.427 . S
C509 H499 0.929 . S
C509 C507 1.433 . S
C509 N512 1.384 . S
C510 H501 0.929 . S
C510 C502 1.378 . S
C510 C505 1.350 . S
C511 H498 0.929 . S
C511 C503 1.433 . S
C511 N513 1.384 . S
N512 C508 1.427 . S
N512 C509 1.384 . S
N513 C505 1.427 . S
N513 C511 1.384 . S
H514 C520 0.930 . S
H515 C524 0.930 . S
H516 C529 0.929 . S
H517 C527 0.929 . S
H518 C522 0.929 . S
H519 C528 0.929 . S
C520 H514 0.930 . S
C520 C521 1.367 . S
C520 C528 1.378 . S
C521 C520 1.367 . S
C521 C529 1.433 . S
C522 H518 0.929 . S
C522 C524 1.378 . S
C522 C526 1.350 . S
C523 C526 1.463 . S
C523 C528 1.350 . S
C523 N531 1.427 . S
C524 H515 0.930 . S
C524 C522 1.378 . S
C524 C525 1.367 . S
C525 C524 1.367 . S
C525 C527 1.433 . S
C526 C522 1.350 . S
C526 C523 1.463 . S
C526 N530 1.427 . S
C527 H517 0.929 . S
C527 C525 1.433 . S
C527 N530 1.384 . S
C528 H519 0.929 . S
C528 C520 1.378 . S
C528 C523 1.350 . S
C529 H516 0.929 . S
C529 C521 1.433 . S
C529 N531 1.384 . S
N530 C526 1.427 . S
N530 C527 1.384 . S
N531 C523 1.427 . S
N531 C529 1.384 . S
H532 C538 0.930 1_556 S
H533 C542 0.930 1_554 S
H534 C547 0.929 . S
H535 C545 0.929 . S
H536 C540 0.929 . S
H537 C546 0.929 . S
C538 H532 0.930 1_554 S
C538 C539 1.367 . S
C538 C546 1.378 1_554 S
C539 C538 1.367 . S
C539 C547 1.433 . S
C540 H536 0.929 . S
C540 C542 1.378 1_554 S
C540 C544 1.350 1_554 S
C541 C544 1.463 1_564 S
C541 C546 1.350 1_554 S
C541 N549 1.427 . S
C542 H533 0.930 1_556 S
C542 C540 1.378 1_556 S
C542 C543 1.367 . S
C543 C542 1.367 . S
C543 C545 1.433 . S
C544 C540 1.350 1_556 S
C544 C541 1.463 1_546 S
C544 N548 1.427 . S
C545 H535 0.929 . S
C545 C543 1.433 . S
C545 N548 1.384 . S
C546 H537 0.929 . S
C546 C538 1.378 1_556 S
C546 C541 1.350 1_556 S
C547 H534 0.929 . S
C547 C539 1.433 . S
C547 N549 1.384 . S
N548 C544 1.427 . S
N548 C545 1.384 . S
N549 C541 1.427 . S
N549 C547 1.384 . S
H550 C556 0.930 . S
H551 C560 0.930 . S
H552 C565 0.929 . S
H553 C563 0.929 . S
H554 C558 0.929 . S
H555 C564 0.929 . S
C556 H550 0.930 . S
C556 C557 1.367 . S
C556 C564 1.378 . S
C557 C556 1.367 . S
C557 C565 1.433 . S
C558 H554 0.929 . S
C558 C560 1.378 . S
C558 C562 1.350 . S
C559 C562 1.463 . S
C559 C564 1.350 . S
C559 N567 1.427 . S
C560 H551 0.930 . S
C560 C558 1.378 . S
C560 C561 1.367 . S
C561 C560 1.367 . S
C561 C563 1.433 . S
C562 C558 1.350 . S
C562 C559 1.463 . S
C562 N566 1.427 . S
C563 H553 0.929 . S
C563 C561 1.433 . S
C563 N566 1.384 . S
C564 H555 0.929 . S
C564 C556 1.378 . S
C564 C559 1.350 . S
C565 H552 0.929 . S
C565 C557 1.433 . S
C565 N567 1.384 . S
N566 C562 1.427 . S
N566 C563 1.384 . S
N567 C559 1.427 . S
N567 C565 1.384 . S
H568 C574 0.930 . S
H569 C578 0.930 . S
H570 C583 0.929 . S
H571 C581 0.929 . S
H572 C576 0.929 . S
H573 C582 0.929 . S
C574 H568 0.930 . S
C574 C575 1.367 . S
C574 C582 1.378 . S
C575 C574 1.367 . S
C575 C583 1.433 . S
C576 H572 0.929 . S
C576 C578 1.378 . S
C576 C580 1.350 . S
C577 C580 1.463 1_565 S
C577 C582 1.350 . S
C577 N585 1.427 . S
C578 H569 0.930 . S
C578 C576 1.378 . S
C578 C579 1.367 . S
C579 C578 1.367 . S
C579 C581 1.433 . S
C580 C576 1.350 . S
C580 C577 1.463 1_545 S
C580 N584 1.427 . S
C581 H571 0.929 . S
C581 C579 1.433 . S
C581 N584 1.384 . S
C582 H573 0.929 . S
C582 C574 1.378 . S
C582 C577 1.350 . S
C583 H570 0.929 . S
C583 C575 1.433 . S
C583 N585 1.384 . S
N584 C580 1.427 . S
N584 C581 1.384 . S
N585 C577 1.427 . S
N585 C583 1.384 . S
H586 C592 0.930 . S
H587 C596 0.930 . S
H588 C601 0.929 . S
H589 C599 0.929 . S
H590 C594 0.929 . S
H591 C600 0.929 . S
C592 H586 0.930 . S
C592 C593 1.367 . S
C592 C600 1.378 . S
C593 C592 1.367 . S
C593 C601 1.433 . S
C594 H590 0.929 . S
C594 C596 1.378 . S
C594 C598 1.350 . S
C595 C598 1.463 . S
C595 C600 1.350 . S
C595 N603 1.427 . S
C596 H587 0.930 . S
C596 C594 1.378 . S
C596 C597 1.367 . S
C597 C596 1.367 . S
C597 C599 1.433 . S
C598 C594 1.350 . S
C598 C595 1.463 . S
C598 N602 1.427 . S
C599 H589 0.929 . S
C599 C597 1.433 . S
C599 N602 1.384 . S
C600 H591 0.929 . S
C600 C592 1.378 . S
C600 C595 1.350 . S
C601 H588 0.929 . S
C601 C593 1.433 . S
C601 N603 1.384 . S
N602 C598 1.427 . S
N602 C599 1.384 . S
N603 C595 1.427 . S
N603 C601 1.384 . S
H604 C610 0.930 . S
H605 C614 0.930 . S
H606 C619 0.929 . S
H607 C617 0.929 . S
H608 C612 0.929 . S
H609 C618 0.929 . S
C610 H604 0.930 . S
C610 C611 1.367 . S
C610 C618 1.378 . S
C611 C610 1.367 . S
C611 C619 1.433 . S
C612 H608 0.929 . S
C612 C614 1.378 . S
C612 C616 1.350 . S
C613 C616 1.463 1_546 S
C613 C618 1.350 . S
C613 N621 1.428 1_556 S
C614 H605 0.930 . S
C614 C612 1.378 . S
C614 C615 1.367 . S
C615 C614 1.367 . S
C615 C617 1.433 . S
C616 C612 1.350 . S
C616 C613 1.463 1_564 S
C616 N620 1.429 1_554 S
C617 H607 0.929 . S
C617 C615 1.433 . S
C617 N620 1.386 1_554 S
C618 H609 0.929 . S
C618 C610 1.378 . S
C618 C613 1.350 . S
C619 H606 0.929 . S
C619 C611 1.433 . S
C619 N621 1.386 1_556 S
N620 C616 1.429 1_556 S
N620 C617 1.386 1_556 S
N621 C613 1.428 1_554 S
N621 C619 1.386 1_554 S
H622 C628 0.930 . S
H623 C632 0.930 . S
H624 C637 0.929 . S
H625 C635 0.929 . S
H626 C630 0.929 . S
H627 C636 0.929 . S
C628 H622 0.930 . S
C628 C629 1.367 . S
C628 C636 1.378 . S
C629 C628 1.367 . S
C629 C637 1.433 . S
C630 H626 0.929 . S
C630 C632 1.378 . S
C630 C634 1.350 . S
C631 C634 1.463 . S
C631 C636 1.350 . S
C631 N639 1.427 . S
C632 H623 0.930 . S
C632 C630 1.378 . S
C632 C633 1.367 . S
C633 C632 1.367 . S
C633 C635 1.433 . S
C634 C630 1.350 . S
C634 C631 1.463 . S
C634 N638 1.427 . S
C635 H625 0.929 . S
C635 C633 1.433 . S
C635 N638 1.384 . S
C636 H627 0.929 . S
C636 C628 1.378 . S
C636 C631 1.350 . S
C637 H624 0.929 . S
C637 C629 1.433 . S
C637 N639 1.384 . S
N638 C634 1.427 . S
N638 C635 1.384 . S
N639 C631 1.427 . S
N639 C637 1.384 . S
H640 C646 0.930 . S
H641 C650 0.930 . S
H642 C655 0.929 . S
H643 C653 0.929 . S
H644 C648 0.929 . S
H645 C654 0.929 . S
C646 H640 0.930 . S
C646 C647 1.367 . S
C646 C654 1.378 . S
C647 C646 1.367 . S
C647 C655 1.433 . S
C648 H644 0.929 . S
C648 C650 1.378 . S
C648 C652 1.350 . S
C649 C652 1.463 1_655 S
C649 C654 1.350 . S
C649 N657 1.427 . S
C650 H641 0.930 . S
C650 C648 1.378 . S
C650 C651 1.367 . S
C651 C650 1.367 . S
C651 C653 1.433 . S
C652 C648 1.350 . S
C652 C649 1.463 1_455 S
C652 N656 1.427 . S
C653 H643 0.929 . S
C653 C651 1.433 . S
C653 N656 1.384 . S
C654 H645 0.929 . S
C654 C646 1.378 . S
C654 C649 1.350 . S
C655 H642 0.929 . S
C655 C647 1.433 . S
C655 N657 1.384 . S
N656 C652 1.427 . S
N656 C653 1.384 . S
N657 C649 1.427 . S
N657 C655 1.384 . S
H658 C664 0.930 . S
H659 C668 0.930 . S
H660 C673 0.929 . S
H661 C671 0.929 . S
H662 C666 0.929 . S
H663 C672 0.929 . S
C664 H658 0.930 . S
C664 C665 1.367 . S
C664 C672 1.378 . S
C665 C664 1.367 . S
C665 C673 1.433 . S
C666 H662 0.929 . S
C666 C668 1.378 . S
C666 C670 1.350 . S
C667 C670 1.463 . S
C667 C672 1.350 . S
C667 N675 1.427 . S
C668 H659 0.930 . S
C668 C666 1.378 . S
C668 C669 1.367 . S
C669 C668 1.367 . S
C669 C671 1.433 . S
C670 C666 1.350 . S
C670 C667 1.463 . S
C670 N674 1.427 . S
C671 H661 0.929 . S
C671 C669 1.433 . S
C671 N674 1.384 . S
C672 H663 0.929 . S
C672 C664 1.378 . S
C672 C667 1.350 . S
C673 H660 0.929 . S
C673 C665 1.433 . S
C673 N675 1.384 . S
N674 C670 1.427 . S
N674 C671 1.384 . S
N675 C667 1.427 . S
N675 C673 1.384 . S
H676 C682 0.930 . S
H677 C686 0.930 . S
H678 C691 0.929 . S
H679 C689 0.929 . S
H680 C684 0.929 . S
H681 C690 0.929 . S
C682 H676 0.930 . S
C682 C683 1.367 . S
C682 C690 1.378 . S
C683 C682 1.367 . S
C683 C691 1.433 . S
C684 H680 0.929 . S
C684 C686 1.378 . S
C684 C688 1.350 . S
C685 C688 1.463 . S
C685 C690 1.350 . S
C685 N693 1.427 . S
C686 H677 0.930 . S
C686 C684 1.378 . S
C686 C687 1.367 . S
C687 C686 1.367 . S
C687 C689 1.433 . S
C688 C684 1.350 . S
C688 C685 1.463 . S
C688 N692 1.427 . S
C689 H679 0.929 . S
C689 C687 1.433 . S
C689 N692 1.384 . S
C690 H681 0.929 . S
C690 C682 1.378 . S
C690 C685 1.350 . S
C691 H678 0.929 . S
C691 C683 1.433 . S
C691 N693 1.384 . S
N692 C688 1.427 . S
N692 C689 1.384 . S
N693 C685 1.427 . S
N693 C691 1.384 . S
H694 C700 0.930 . S
H695 C704 0.930 . S
H696 C709 0.929 . S
H697 C707 0.929 . S
H698 C702 0.929 . S
H699 C708 0.929 . S
C700 H694 0.930 . S
C700 C701 1.367 . S
C700 C708 1.378 . S
C701 C700 1.367 . S
C701 C709 1.433 . S
C702 H698 0.929 . S
C702 C704 1.378 . S
C702 C706 1.350 . S
C703 C706 1.463 . S
C703 C708 1.350 . S
C703 N711 1.427 . S
C704 H695 0.930 . S
C704 C702 1.378 . S
C704 C705 1.367 . S
C705 C704 1.367 . S
C705 C707 1.433 . S
C706 C702 1.350 . S
C706 C703 1.463 . S
C706 N710 1.427 . S
C707 H697 0.929 . S
C707 C705 1.433 . S
C707 N710 1.384 . S
C708 H699 0.929 . S
C708 C700 1.378 . S
C708 C703 1.350 . S
C709 H696 0.929 . S
C709 C701 1.433 . S
C709 N711 1.384 . S
N710 C706 1.427 . S
N710 C707 1.384 . S
N711 C703 1.427 . S
N711 C709 1.384 . S
H712 C718 0.930 . S
H713 C722 0.930 . S
H714 C727 0.929 . S
H715 C725 0.929 . S
H716 C720 0.929 . S
H717 C726 0.929 . S
C718 H712 0.930 . S
C718 C719 1.367 . S
C718 C726 1.378 . S
C719 C718 1.367 . S
C719 C727 1.433 . S
C720 H716 0.929 . S
C720 C722 1.378 . S
C720 C724 1.350 . S
C721 C724 1.463 1_655 S
C721 C726 1.350 . S
C721 N729 1.427 . S
C722 H713 0.930 . S
C722 C720 1.378 . S
C722 C723 1.367 . S
C723 C722 1.367 . S
C723 C725 1.433 . S
C724 C720 1.350 . S
C724 C721 1.463 1_455 S
C724 N728 1.427 . S
C725 H715 0.929 . S
C725 C723 1.433 . S
C725 N728 1.384 . S
C726 H717 0.929 . S
C726 C718 1.378 . S
C726 C721 1.350 . S
C727 H714 0.929 . S
C727 C719 1.433 . S
C727 N729 1.384 . S
N728 C724 1.427 . S
N728 C725 1.384 . S
N729 C721 1.427 . S
N729 C727 1.384 . S
H730 C736 0.930 . S
H731 C740 0.930 . S
H732 C745 0.929 . S
H733 C743 0.929 . S
H734 C738 0.929 . S
H735 C744 0.929 . S
C736 H730 0.930 . S
C736 C737 1.367 . S
C736 C744 1.378 . S
C737 C736 1.367 . S
C737 C745 1.433 . S
C738 H734 0.929 . S
C738 C740 1.378 . S
C738 C742 1.350 . S
C739 C742 1.463 . S
C739 C744 1.350 . S
C739 N747 1.427 . S
C740 H731 0.930 . S
C740 C738 1.378 . S
C740 C741 1.367 . S
C741 C740 1.367 . S
C741 C743 1.433 . S
C742 C738 1.350 . S
C742 C739 1.463 . S
C742 N746 1.427 . S
C743 H733 0.929 . S
C743 C741 1.433 . S
C743 N746 1.384 . S
C744 H735 0.929 . S
C744 C736 1.378 . S
C744 C739 1.350 . S
C745 H732 0.929 . S
C745 C737 1.433 . S
C745 N747 1.384 . S
N746 C742 1.427 . S
N746 C743 1.384 . S
N747 C739 1.427 . S
N747 C745 1.384 . S
H748 C754 0.930 . S
H749 C758 0.930 . S
H750 C763 0.929 . S
H751 C761 0.929 . S
H752 C756 0.929 . S
H753 C762 0.929 . S
C754 H748 0.930 . S
C754 C755 1.367 . S
C754 C762 1.378 . S
C755 C754 1.367 . S
C755 C763 1.433 . S
C756 H752 0.929 . S
C756 C758 1.378 . S
C756 C760 1.350 . S
C757 C760 1.463 . S
C757 C762 1.350 . S
C757 N765 1.427 . S
C758 H749 0.930 . S
C758 C756 1.378 . S
C758 C759 1.367 . S
C759 C758 1.367 . S
C759 C761 1.433 . S
C760 C756 1.350 . S
C760 C757 1.463 . S
C760 N764 1.427 . S
C761 H751 0.929 . S
C761 C759 1.433 . S
C761 N764 1.384 . S
C762 H753 0.929 . S
C762 C754 1.378 . S
C762 C757 1.350 . S
C763 H750 0.929 . S
C763 C755 1.433 . S
C763 N765 1.384 . S
N764 C760 1.427 . S
N764 C761 1.384 . S
N765 C757 1.427 . S
N765 C763 1.384 . S
H766 C772 0.930 . S
H767 C776 0.930 . S
H768 C781 0.929 . S
H769 C779 0.929 . S
H770 C774 0.929 . S
H771 C780 0.929 . S
C772 H766 0.930 . S
C772 C773 1.367 . S
C772 C780 1.378 . S
C773 C772 1.367 . S
C773 C781 1.433 . S
C774 H770 0.929 . S
C774 C776 1.378 . S
C774 C778 1.350 . S
C775 C778 1.463 . S
C775 C780 1.350 . S
C775 N783 1.427 . S
C776 H767 0.930 . S
C776 C774 1.378 . S
C776 C777 1.367 . S
C777 C776 1.367 . S
C777 C779 1.433 . S
C778 C774 1.350 . S
C778 C775 1.463 . S
C778 N782 1.427 . S
C779 H769 0.929 . S
C779 C777 1.433 . S
C779 N782 1.384 . S
C780 H771 0.929 . S
C780 C772 1.378 . S
C780 C775 1.350 . S
C781 H768 0.929 . S
C781 C773 1.433 . S
C781 N783 1.384 . S
N782 C778 1.427 . S
N782 C779 1.384 . S
N783 C775 1.427 . S
N783 C781 1.384 . S
H784 C790 0.930 . S
H785 C794 0.930 . S
H786 C799 0.929 . S
H787 C797 0.929 . S
H788 C792 0.929 . S
H789 C798 0.929 . S
C790 H784 0.930 . S
C790 C791 1.367 . S
C790 C798 1.378 . S
C791 C790 1.367 . S
C791 C799 1.433 . S
C792 H788 0.929 . S
C792 C794 1.378 . S
C792 C796 1.350 . S
C793 C796 1.463 . S
C793 C798 1.350 . S
C793 N801 1.427 . S
C794 H785 0.930 . S
C794 C792 1.378 . S
C794 C795 1.367 . S
C795 C794 1.367 . S
C795 C797 1.433 . S
C796 C792 1.350 . S
C796 C793 1.463 . S
C796 N800 1.427 . S
C797 H787 0.929 . S
C797 C795 1.433 . S
C797 N800 1.384 . S
C798 H789 0.929 . S
C798 C790 1.378 . S
C798 C793 1.350 . S
C799 H786 0.929 . S
C799 C791 1.433 . S
C799 N801 1.384 . S
N800 C796 1.427 . S
N800 C797 1.384 . S
N801 C793 1.427 . S
N801 C799 1.384 . S
H802 C808 0.930 . S
H803 C812 0.930 . S
H804 C817 0.929 . S
H805 C815 0.929 . S
H806 C810 0.929 . S
H807 C816 0.929 . S
C808 H802 0.930 . S
C808 C809 1.367 . S
C808 C816 1.378 . S
C809 C808 1.367 . S
C809 C817 1.433 . S
C810 H806 0.929 . S
C810 C812 1.378 . S
C810 C814 1.350 . S
C811 C814 1.463 . S
C811 C816 1.350 . S
C811 N819 1.427 . S
C812 H803 0.930 . S
C812 C810 1.378 . S
C812 C813 1.367 . S
C813 C812 1.367 . S
C813 C815 1.433 . S
C814 C810 1.350 . S
C814 C811 1.463 . S
C814 N818 1.427 . S
C815 H805 0.929 . S
C815 C813 1.433 . S
C815 N818 1.384 . S
C816 H807 0.929 . S
C816 C808 1.378 . S
C816 C811 1.350 . S
C817 H804 0.929 . S
C817 C809 1.433 . S
C817 N819 1.384 . S
N818 C814 1.427 . S
N818 C815 1.384 . S
N819 C811 1.427 . S
N819 C817 1.384 . S
H820 C826 0.930 . S
H821 C830 0.930 . S
H822 C835 0.929 . S
H823 C833 0.929 . S
H824 C828 0.929 . S
H825 C834 0.929 . S
C826 H820 0.930 . S
C826 C827 1.367 . S
C826 C834 1.378 . S
C827 C826 1.367 . S
C827 C835 1.433 . S
C828 H824 0.929 . S
C828 C830 1.378 . S
C828 C832 1.350 . S
C829 C832 1.463 . S
C829 C834 1.350 . S
C829 N837 1.427 . S
C830 H821 0.930 . S
C830 C828 1.378 . S
C830 C831 1.367 . S
C831 C830 1.367 . S
C831 C833 1.433 . S
C832 C828 1.350 . S
C832 C829 1.463 . S
C832 N836 1.427 . S
C833 H823 0.929 . S
C833 C831 1.433 . S
C833 N836 1.384 . S
C834 H825 0.929 . S
C834 C826 1.378 . S
C834 C829 1.350 . S
C835 H822 0.929 . S
C835 C827 1.433 . S
C835 N837 1.384 . S
N836 C832 1.427 . S
N836 C833 1.384 . S
N837 C829 1.427 . S
N837 C835 1.384 . S
H838 C844 0.930 . S
H839 C848 0.930 . S
H840 C853 0.929 . S
H841 C851 0.929 . S
H842 C846 0.929 . S
H843 C852 0.929 . S
C844 H838 0.930 . S
C844 C845 1.367 . S
C844 C852 1.378 . S
C845 C844 1.367 . S
C845 C853 1.433 . S
C846 H842 0.929 . S
C846 C848 1.378 . S
C846 C850 1.350 . S
C847 C850 1.463 . S
C847 C852 1.350 . S
C847 N855 1.427 . S
C848 H839 0.930 . S
C848 C846 1.378 . S
C848 C849 1.367 . S
C849 C848 1.367 . S
C849 C851 1.433 . S
C850 C846 1.350 . S
C850 C847 1.463 . S
C850 N854 1.427 . S
C851 H841 0.929 . S
C851 C849 1.433 . S
C851 N854 1.384 . S
C852 H843 0.929 . S
C852 C844 1.378 . S
C852 C847 1.350 . S
C853 H840 0.929 . S
C853 C845 1.433 . S
C853 N855 1.384 . S
N854 C850 1.427 . S
N854 C851 1.384 . S
N855 C847 1.427 . S
N855 C853 1.384 . S
H856 C862 0.930 . S
H857 C866 0.930 . S
H858 C871 0.929 . S
H859 C869 0.929 . S
H860 C864 0.929 . S
H861 C870 0.929 . S
C862 H856 0.930 . S
C862 C863 1.367 . S
C862 C870 1.378 . S
C863 C862 1.367 . S
C863 C871 1.433 . S
C864 H860 0.929 . S
C864 C866 1.378 . S
C864 C868 1.350 . S
C865 C868 1.463 . S
C865 C870 1.350 . S
C865 N873 1.427 . S
C866 H857 0.930 . S
C866 C864 1.378 . S
C866 C867 1.367 . S
C867 C866 1.367 . S
C867 C869 1.433 . S
C868 C864 1.350 . S
C868 C865 1.463 . S
C868 N872 1.427 . S
C869 H859 0.929 . S
C869 C867 1.433 . S
C869 N872 1.384 . S
C870 H861 0.929 . S
C870 C862 1.378 . S
C870 C865 1.350 . S
C871 H858 0.929 . S
C871 C863 1.433 . S
C871 N873 1.384 . S
N872 C868 1.427 . S
N872 C869 1.384 . S
N873 C865 1.427 . S
N873 C871 1.384 . S
H874 C880 0.930 . S
H875 C884 0.930 . S
H876 C889 0.929 . S
H877 C887 0.929 . S
H878 C882 0.929 . S
H879 C888 0.929 . S
C880 H874 0.930 . S
C880 C881 1.367 . S
C880 C888 1.378 . S
C881 C880 1.367 . S
C881 C889 1.433 . S
C882 H878 0.929 . S
C882 C884 1.378 . S
C882 C886 1.350 . S
C883 C886 1.463 1_455 S
C883 C888 1.350 . S
C883 N891 1.427 . S
C884 H875 0.930 . S
C884 C882 1.378 . S
C884 C885 1.367 . S
C885 C884 1.367 . S
C885 C887 1.433 . S
C886 C882 1.350 . S
C886 C883 1.463 1_655 S
C886 N890 1.427 . S
C887 H877 0.929 . S
C887 C885 1.433 . S
C887 N890 1.384 . S
C888 H879 0.929 . S
C888 C880 1.378 . S
C888 C883 1.350 . S
C889 H876 0.929 . S
C889 C881 1.433 . S
C889 N891 1.384 . S
N890 C886 1.427 . S
N890 C887 1.384 . S
N891 C883 1.427 . S
N891 C889 1.384 . S
H892 C898 0.930 . S
H893 C902 0.930 . S
H894 C907 0.929 . S
H895 C905 0.929 . S
H896 C900 0.929 . S
H897 C906 0.929 . S
C898 H892 0.930 . S
C898 C899 1.367 . S
C898 C906 1.378 . S
C899 C898 1.367 . S
C899 C907 1.433 . S
C900 H896 0.929 . S
C900 C902 1.378 . S
C900 C904 1.350 . S
C901 C904 1.463 . S
C901 C906 1.350 . S
C901 N909 1.427 . S
C902 H893 0.930 . S
C902 C900 1.378 . S
C902 C903 1.367 . S
C903 C902 1.367 . S
C903 C905 1.433 . S
C904 C900 1.350 . S
C904 C901 1.463 . S
C904 N908 1.427 . S
C905 H895 0.929 . S
C905 C903 1.433 . S
C905 N908 1.384 . S
C906 H897 0.929 . S
C906 C898 1.378 . S
C906 C901 1.350 . S
C907 H894 0.929 . S
C907 C899 1.433 . S
C907 N909 1.384 . S
N908 C904 1.427 . S
N908 C905 1.384 . S
N909 C901 1.427 . S
N909 C907 1.384 . S
H910 C916 0.930 . S
H911 C920 0.930 . S
H912 C925 0.929 . S
H913 C923 0.929 . S
H914 C918 0.929 . S
H915 C924 0.929 . S
C916 H910 0.930 . S
C916 C917 1.367 . S
C916 C924 1.378 . S
C917 C916 1.367 . S
C917 C925 1.433 . S
C918 H914 0.929 . S
C918 C920 1.378 . S
C918 C922 1.350 . S
C919 C922 1.463 1_455 S
C919 C924 1.350 . S
C919 N927 1.427 . S
C920 H911 0.930 . S
C920 C918 1.378 . S
C920 C921 1.367 . S
C921 C920 1.367 . S
C921 C923 1.433 . S
C922 C918 1.350 . S
C922 C919 1.463 1_655 S
C922 N926 1.427 . S
C923 H913 0.929 . S
C923 C921 1.433 . S
C923 N926 1.384 . S
C924 H915 0.929 . S
C924 C916 1.378 . S
C924 C919 1.350 . S
C925 H912 0.929 . S
C925 C917 1.433 . S
C925 N927 1.384 . S
N926 C922 1.427 . S
N926 C923 1.384 . S
N927 C919 1.427 . S
N927 C925 1.384 . S
H928 C934 0.930 . S
H929 C938 0.930 . S
H930 C943 0.929 . S
H931 C941 0.929 . S
H932 C936 0.929 . S
H933 C942 0.929 . S
C934 H928 0.930 . S
C934 C935 1.367 . S
C934 C942 1.378 . S
C935 C934 1.367 . S
C935 C943 1.433 . S
C936 H932 0.929 . S
C936 C938 1.378 . S
C936 C940 1.350 . S
C937 C940 1.463 . S
C937 C942 1.350 . S
C937 N945 1.427 . S
C938 H929 0.930 . S
C938 C936 1.378 . S
C938 C939 1.367 . S
C939 C938 1.367 . S
C939 C941 1.433 . S
C940 C936 1.350 . S
C940 C937 1.463 . S
C940 N944 1.427 . S
C941 H931 0.929 . S
C941 C939 1.433 . S
C941 N944 1.384 . S
C942 H933 0.929 . S
C942 C934 1.378 . S
C942 C937 1.350 . S
C943 H930 0.929 . S
C943 C935 1.433 . S
C943 N945 1.384 . S
N944 C940 1.427 . S
N944 C941 1.384 . S
N945 C937 1.427 . S
N945 C943 1.384 . S
H946 C952 0.930 . S
H947 C956 0.930 . S
H948 C961 0.929 . S
H949 C959 0.929 . S
H950 C954 0.929 . S
H951 C960 0.929 . S
C952 H946 0.930 . S
C952 C953 1.367 . S
C952 C960 1.378 . S
C953 C952 1.367 . S
C953 C961 1.433 . S
C954 H950 0.929 . S
C954 C956 1.378 . S
C954 C958 1.350 . S
C955 C958 1.463 . S
C955 C960 1.350 . S
C955 N963 1.427 . S
C956 H947 0.930 . S
C956 C954 1.378 . S
C956 C957 1.367 . S
C957 C956 1.367 . S
C957 C959 1.433 . S
C958 C954 1.350 . S
C958 C955 1.463 . S
C958 N962 1.427 . S
C959 H949 0.929 . S
C959 C957 1.433 . S
C959 N962 1.384 . S
C960 H951 0.929 . S
C960 C952 1.378 . S
C960 C955 1.350 . S
C961 H948 0.929 . S
C961 C953 1.433 . S
C961 N963 1.384 . S
N962 C958 1.427 . S
N962 C959 1.384 . S
N963 C955 1.427 . S
N963 C961 1.384 . S
H964 C970 0.930 . S
H965 C974 0.930 . S
H966 C979 0.929 . S
H967 C977 0.929 . S
H968 C972 0.929 . S
H969 C978 0.929 . S
C970 H964 0.930 . S
C970 C971 1.367 . S
C970 C978 1.378 . S
C971 C970 1.367 . S
C971 C979 1.433 . S
C972 H968 0.929 . S
C972 C974 1.378 . S
C972 C976 1.350 . S
C973 C976 1.463 . S
C973 C978 1.350 . S
C973 N981 1.427 . S
C974 H965 0.930 . S
C974 C972 1.378 . S
C974 C975 1.367 . S
C975 C974 1.367 . S
C975 C977 1.433 . S
C976 C972 1.350 . S
C976 C973 1.463 . S
C976 N980 1.427 . S
C977 H967 0.929 . S
C977 C975 1.433 . S
C977 N980 1.384 . S
C978 H969 0.929 . S
C978 C970 1.378 . S
C978 C973 1.350 . S
C979 H966 0.929 . S
C979 C971 1.433 . S
C979 N981 1.384 . S
N980 C976 1.427 . S
N980 C977 1.384 . S
N981 C973 1.427 . S
N981 C979 1.384 . S
H982 C988 0.930 . S
H983 C992 0.930 . S
H984 C997 0.929 . S
H985 C995 0.929 . S
H986 C990 0.929 . S
H987 C996 0.929 . S
C988 H982 0.930 . S
C988 C989 1.367 . S
C988 C996 1.378 . S
C989 C988 1.367 . S
C989 C997 1.433 . S
C990 H986 0.929 . S
C990 C992 1.378 . S
C990 C994 1.350 . S
C991 C994 1.463 . S
C991 C996 1.350 . S
C991 N999 1.427 . S
C992 H983 0.930 . S
C992 C990 1.378 . S
C992 C993 1.367 . S
C993 C992 1.367 . S
C993 C995 1.433 . S
C994 C990 1.350 . S
C994 C991 1.463 . S
C994 N998 1.427 . S
C995 H985 0.929 . S
C995 C993 1.433 . S
C995 N998 1.384 . S
C996 H987 0.929 . S
C996 C988 1.378 . S
C996 C991 1.350 . S
C997 H984 0.929 . S
C997 C989 1.433 . S
C997 N999 1.384 . S
N998 C994 1.427 . S
N998 C995 1.384 . S
N999 C991 1.427 . S
N999 C997 1.384 . S
H1000 C1006 0.930 . S
H1001 C1010 0.930 . S
H1002 C1015 0.929 . S
H1003 C1013 0.929 . S
H1004 C1008 0.929 . S
H1005 C1014 0.929 . S
C1006 H1000 0.930 . S
C1006 C1007 1.367 . S
C1006 C1014 1.378 . S
C1007 C1006 1.367 . S
C1007 C1015 1.433 . S
C1008 H1004 0.929 . S
C1008 C1010 1.378 . S
C1008 C1012 1.350 . S
C1009 C1012 1.463 . S
C1009 C1014 1.350 . S
C1009 N1017 1.427 . S
C1010 H1001 0.930 . S
C1010 C1008 1.378 . S
C1010 C1011 1.367 . S
C1011 C1010 1.367 . S
C1011 C1013 1.433 . S
C1012 C1008 1.350 . S
C1012 C1009 1.463 . S
C1012 N1016 1.427 . S
C1013 H1003 0.929 . S
C1013 C1011 1.433 . S
C1013 N1016 1.384 . S
C1014 H1005 0.929 . S
C1014 C1006 1.378 . S
C1014 C1009 1.350 . S
C1015 H1002 0.929 . S
C1015 C1007 1.433 . S
C1015 N1017 1.384 . S
N1016 C1012 1.427 . S
N1016 C1013 1.384 . S
N1017 C1009 1.427 . S
N1017 C1015 1.384 . S
H1018 C1024 0.930 . S
H1019 C1028 0.930 . S
H1020 C1033 0.929 . S
H1021 C1031 0.929 . S
H1022 C1026 0.929 . S
H1023 C1032 0.929 . S
C1024 H1018 0.930 . S
C1024 C1025 1.367 . S
C1024 C1032 1.378 . S
C1025 C1024 1.367 . S
C1025 C1033 1.433 . S
C1026 H1022 0.929 . S
C1026 C1028 1.378 . S
C1026 C1030 1.350 . S
C1027 C1030 1.463 . S
C1027 C1032 1.350 . S
C1027 N1035 1.427 . S
C1028 H1019 0.930 . S
C1028 C1026 1.378 . S
C1028 C1029 1.367 . S
C1029 C1028 1.367 . S
C1029 C1031 1.433 . S
C1030 C1026 1.350 . S
C1030 C1027 1.463 . S
C1030 N1034 1.427 . S
C1031 H1021 0.929 . S
C1031 C1029 1.433 . S
C1031 N1034 1.384 . S
C1032 H1023 0.929 . S
C1032 C1024 1.378 . S
C1032 C1027 1.350 . S
C1033 H1020 0.929 . S
C1033 C1025 1.433 . S
C1033 N1035 1.384 . S
N1034 C1030 1.427 . S
N1034 C1031 1.384 . S
N1035 C1027 1.427 . S
N1035 C1033 1.384 . S
H1036 C1042 0.930 . S
H1037 C1046 0.930 . S
H1038 C1051 0.929 . S
H1039 C1049 0.929 . S
H1040 C1044 0.929 . S
H1041 C1050 0.929 . S
C1042 H1036 0.930 . S
C1042 C1043 1.367 . S
C1042 C1050 1.378 . S
C1043 C1042 1.367 . S
C1043 C1051 1.433 . S
C1044 H1040 0.929 . S
C1044 C1046 1.378 . S
C1044 C1048 1.350 . S
C1045 C1048 1.463 . S
C1045 C1050 1.350 . S
C1045 N1053 1.427 . S
C1046 H1037 0.930 . S
C1046 C1044 1.378 . S
C1046 C1047 1.367 . S
C1047 C1046 1.367 . S
C1047 C1049 1.433 . S
C1048 C1044 1.350 . S
C1048 C1045 1.463 . S
C1048 N1052 1.427 . S
C1049 H1039 0.929 . S
C1049 C1047 1.433 . S
C1049 N1052 1.384 . S
C1050 H1041 0.929 . S
C1050 C1042 1.378 . S
C1050 C1045 1.350 . S
C1051 H1038 0.929 . S
C1051 C1043 1.433 . S
C1051 N1053 1.384 . S
N1052 C1048 1.427 . S
N1052 C1049 1.384 . S
N1053 C1045 1.427 . S
N1053 C1051 1.384 . S
H1054 C1060 0.930 . S
H1055 C1064 0.930 . S
H1056 C1069 0.929 . S
H1057 C1067 0.929 . S
H1058 C1062 0.929 . S
H1059 C1068 0.929 . S
C1060 H1054 0.930 . S
C1060 C1061 1.367 . S
C1060 C1068 1.378 . S
C1061 C1060 1.367 . S
C1061 C1069 1.433 . S
C1062 H1058 0.929 . S
C1062 C1064 1.378 . S
C1062 C1066 1.350 . S
C1063 C1066 1.463 . S
C1063 C1068 1.350 . S
C1063 N1071 1.427 . S
C1064 H1055 0.930 . S
C1064 C1062 1.378 . S
C1064 C1065 1.367 . S
C1065 C1064 1.367 . S
C1065 C1067 1.433 . S
C1066 C1062 1.350 . S
C1066 C1063 1.463 . S
C1066 N1070 1.427 . S
C1067 H1057 0.929 . S
C1067 C1065 1.433 . S
C1067 N1070 1.384 . S
C1068 H1059 0.929 . S
C1068 C1060 1.378 . S
C1068 C1063 1.350 . S
C1069 H1056 0.929 . S
C1069 C1061 1.433 . S
C1069 N1071 1.384 . S
N1070 C1066 1.427 . S
N1070 C1067 1.384 . S
N1071 C1063 1.427 . S
N1071 C1069 1.384 . S
H1072 C1078 0.930 . S
H1073 C1082 0.930 . S
H1074 C1087 0.929 . S
H1075 C1085 0.929 . S
H1076 C1080 0.929 . S
H1077 C1086 0.929 . S
C1078 H1072 0.930 . S
C1078 C1079 1.367 . S
C1078 C1086 1.378 . S
C1079 C1078 1.367 . S
C1079 C1087 1.433 . S
C1080 H1076 0.929 . S
C1080 C1082 1.378 . S
C1080 C1084 1.350 . S
C1081 C1084 1.463 . S
C1081 C1086 1.350 . S
C1081 N1089 1.427 . S
C1082 H1073 0.930 . S
C1082 C1080 1.378 . S
C1082 C1083 1.367 . S
C1083 C1082 1.367 . S
C1083 C1085 1.433 . S
C1084 C1080 1.350 . S
C1084 C1081 1.463 . S
C1084 N1088 1.427 . S
C1085 H1075 0.929 . S
C1085 C1083 1.433 . S
C1085 N1088 1.384 . S
C1086 H1077 0.929 . S
C1086 C1078 1.378 . S
C1086 C1081 1.350 . S
C1087 H1074 0.929 . S
C1087 C1079 1.433 . S
C1087 N1089 1.384 . S
N1088 C1084 1.427 . S
N1088 C1085 1.384 . S
N1089 C1081 1.427 . S
N1089 C1087 1.384 . S
H1090 C1096 0.930 . S
H1091 C1100 0.930 . S
H1092 C1105 0.929 . S
H1093 C1103 0.929 . S
H1094 C1098 0.929 . S
H1095 C1104 0.929 . S
C1096 H1090 0.930 . S
C1096 C1097 1.367 . S
C1096 C1104 1.378 . S
C1097 C1096 1.367 . S
C1097 C1105 1.433 . S
C1098 H1094 0.929 . S
C1098 C1100 1.378 . S
C1098 C1102 1.350 . S
C1099 C1102 1.463 . S
C1099 C1104 1.350 . S
C1099 N1107 1.427 . S
C1100 H1091 0.930 . S
C1100 C1098 1.378 . S
C1100 C1101 1.367 . S
C1101 C1100 1.367 . S
C1101 C1103 1.433 . S
C1102 C1098 1.350 . S
C1102 C1099 1.463 . S
C1102 N1106 1.427 . S
C1103 H1093 0.929 . S
C1103 C1101 1.433 . S
C1103 N1106 1.384 . S
C1104 H1095 0.929 . S
C1104 C1096 1.378 . S
C1104 C1099 1.350 . S
C1105 H1092 0.929 . S
C1105 C1097 1.433 . S
C1105 N1107 1.384 . S
N1106 C1102 1.427 . S
N1106 C1103 1.384 . S
N1107 C1099 1.427 . S
N1107 C1105 1.384 . S
H1108 C1114 0.930 . S
H1109 C1118 0.930 . S
H1110 C1123 0.929 . S
H1111 C1121 0.929 . S
H1112 C1116 0.929 . S
H1113 C1122 0.929 . S
C1114 H1108 0.930 . S
C1114 C1115 1.367 . S
C1114 C1122 1.378 . S
C1115 C1114 1.367 . S
C1115 C1123 1.433 . S
C1116 H1112 0.929 . S
C1116 C1118 1.378 . S
C1116 C1120 1.350 . S
C1117 C1120 1.463 . S
C1117 C1122 1.350 . S
C1117 N1125 1.427 . S
C1118 H1109 0.930 . S
C1118 C1116 1.378 . S
C1118 C1119 1.367 . S
C1119 C1118 1.367 . S
C1119 C1121 1.433 . S
C1120 C1116 1.350 . S
C1120 C1117 1.463 . S
C1120 N1124 1.427 . S
C1121 H1111 0.929 . S
C1121 C1119 1.433 . S
C1121 N1124 1.384 . S
C1122 H1113 0.929 . S
C1122 C1114 1.378 . S
C1122 C1117 1.350 . S
C1123 H1110 0.929 . S
C1123 C1115 1.433 . S
C1123 N1125 1.384 . S
N1124 C1120 1.427 . S
N1124 C1121 1.384 . S
N1125 C1117 1.427 . S
N1125 C1123 1.384 . S
H1126 C1132 0.930 . S
H1127 C1136 0.930 . S
H1128 C1141 0.929 . S
H1129 C1139 0.929 . S
H1130 C1134 0.929 . S
H1131 C1140 0.929 . S
C1132 H1126 0.930 . S
C1132 C1133 1.367 . S
C1132 C1140 1.378 . S
C1133 C1132 1.367 . S
C1133 C1141 1.433 . S
C1134 H1130 0.929 . S
C1134 C1136 1.378 . S
C1134 C1138 1.350 . S
C1135 C1138 1.463 . S
C1135 C1140 1.350 . S
C1135 N1143 1.427 . S
C1136 H1127 0.930 . S
C1136 C1134 1.378 . S
C1136 C1137 1.367 . S
C1137 C1136 1.367 . S
C1137 C1139 1.433 . S
C1138 C1134 1.350 . S
C1138 C1135 1.463 . S
C1138 N1142 1.427 . S
C1139 H1129 0.929 . S
C1139 C1137 1.433 . S
C1139 N1142 1.384 . S
C1140 H1131 0.929 . S
C1140 C1132 1.378 . S
C1140 C1135 1.350 . S
C1141 H1128 0.929 . S
C1141 C1133 1.433 . S
C1141 N1143 1.384 . S
N1142 C1138 1.427 . S
N1142 C1139 1.384 . S
N1143 C1135 1.427 . S
N1143 C1141 1.384 . S
H1144 C1150 0.930 . S
H1145 C1154 0.930 . S
H1146 C1159 0.929 . S
H1147 C1157 0.929 . S
H1148 C1152 0.929 . S
H1149 C1158 0.929 . S
C1150 H1144 0.930 . S
C1150 C1151 1.367 . S
C1150 C1158 1.378 . S
C1151 C1150 1.367 . S
C1151 C1159 1.433 . S
C1152 H1148 0.929 . S
C1152 C1154 1.378 . S
C1152 C1156 1.350 . S
C1153 C1156 1.463 . S
C1153 C1158 1.350 . S
C1153 N1161 1.427 . S
C1154 H1145 0.930 . S
C1154 C1152 1.378 . S
C1154 C1155 1.367 . S
C1155 C1154 1.367 . S
C1155 C1157 1.433 . S
C1156 C1152 1.350 . S
C1156 C1153 1.463 . S
C1156 N1160 1.427 . S
C1157 H1147 0.929 . S
C1157 C1155 1.433 . S
C1157 N1160 1.384 . S
C1158 H1149 0.929 . S
C1158 C1150 1.378 . S
C1158 C1153 1.350 . S
C1159 H1146 0.929 . S
C1159 C1151 1.433 . S
C1159 N1161 1.384 . S
N1160 C1156 1.427 . S
N1160 C1157 1.384 . S
N1161 C1153 1.427 . S
N1161 C1159 1.384 . S
H1162 C1168 0.930 . S
H1163 C1172 0.930 . S
H1164 C1177 0.929 . S
H1165 C1175 0.929 . S
H1166 C1170 0.929 . S
H1167 C1176 0.929 . S
C1168 H1162 0.930 . S
C1168 C1169 1.367 . S
C1168 C1176 1.378 . S
C1169 C1168 1.367 . S
C1169 C1177 1.433 . S
C1170 H1166 0.929 . S
C1170 C1172 1.378 . S
C1170 C1174 1.350 . S
C1171 C1174 1.463 . S
C1171 C1176 1.350 . S
C1171 N1179 1.427 . S
C1172 H1163 0.930 . S
C1172 C1170 1.378 . S
C1172 C1173 1.367 . S
C1173 C1172 1.367 . S
C1173 C1175 1.433 . S
C1174 C1170 1.350 . S
C1174 C1171 1.463 . S
C1174 N1178 1.427 . S
C1175 H1165 0.929 . S
C1175 C1173 1.433 . S
C1175 N1178 1.384 . S
C1176 H1167 0.929 . S
C1176 C1168 1.378 . S
C1176 C1171 1.350 . S
C1177 H1164 0.929 . S
C1177 C1169 1.433 . S
C1177 N1179 1.384 . S
N1178 C1174 1.427 . S
N1178 C1175 1.384 . S
N1179 C1171 1.427 . S
N1179 C1177 1.384 . S
H1180 C1186 0.930 . S
H1181 C1190 0.930 . S
H1182 C1195 0.929 . S
H1183 C1193 0.929 . S
H1184 C1188 0.929 . S
H1185 C1194 0.929 . S
C1186 H1180 0.930 . S
C1186 C1187 1.367 . S
C1186 C1194 1.378 . S
C1187 C1186 1.367 . S
C1187 C1195 1.433 . S
C1188 H1184 0.929 . S
C1188 C1190 1.378 . S
C1188 C1192 1.350 . S
C1189 C1192 1.463 . S
C1189 C1194 1.350 . S
C1189 N1197 1.427 . S
C1190 H1181 0.930 . S
C1190 C1188 1.378 . S
C1190 C1191 1.367 . S
C1191 C1190 1.367 . S
C1191 C1193 1.433 . S
C1192 C1188 1.350 . S
C1192 C1189 1.463 . S
C1192 N1196 1.427 . S
C1193 H1183 0.929 . S
C1193 C1191 1.433 . S
C1193 N1196 1.384 . S
C1194 H1185 0.929 . S
C1194 C1186 1.378 . S
C1194 C1189 1.350 . S
C1195 H1182 0.929 . S
C1195 C1187 1.433 . S
C1195 N1197 1.384 . S
N1196 C1192 1.427 . S
N1196 C1193 1.384 . S
N1197 C1189 1.427 . S
N1197 C1195 1.384 . S
H1198 C1204 0.930 . S
H1199 C1208 0.930 . S
H1200 C1213 0.929 . S
H1201 C1211 0.929 . S
H1202 C1206 0.929 . S
H1203 C1212 0.929 . S
C1204 H1198 0.930 . S
C1204 C1205 1.367 . S
C1204 C1212 1.378 . S
C1205 C1204 1.367 . S
C1205 C1213 1.433 . S
C1206 H1202 0.929 . S
C1206 C1208 1.378 . S
C1206 C1210 1.350 . S
C1207 C1210 1.463 . S
C1207 C1212 1.350 . S
C1207 N1215 1.427 . S
C1208 H1199 0.930 . S
C1208 C1206 1.378 . S
C1208 C1209 1.367 . S
C1209 C1208 1.367 . S
C1209 C1211 1.433 . S
C1210 C1206 1.350 . S
C1210 C1207 1.463 . S
C1210 N1214 1.427 . S
C1211 H1201 0.929 . S
C1211 C1209 1.433 . S
C1211 N1214 1.384 . S
C1212 H1203 0.929 . S
C1212 C1204 1.378 . S
C1212 C1207 1.350 . S
C1213 H1200 0.929 . S
C1213 C1205 1.433 . S
C1213 N1215 1.384 . S
N1214 C1210 1.427 . S
N1214 C1211 1.384 . S
N1215 C1207 1.427 . S
N1215 C1213 1.384 . S
C359 C49 1.236 . S
C363 C5 1.246 . S
C377 C60 1.248 . S
C381 C16 1.264 . S
C395 C27 1.240 . S
C399 C71 1.237 . S
C413 C38 1.260 . S
C417 C82 1.244 . S
C431 C137 1.442 . S
C435 C93 1.444 . S
C449 C148 1.456 . S
C453 C104 1.450 . S
C467 C115 1.462 . S
C471 C159 1.458 . S
C485 C170 1.456 . S
C489 C126 1.461 . S
C503 C181 1.268 . S
C507 C225 1.255 . S
C521 C236 1.243 . S
C525 C192 1.259 . S
C539 C203 1.268 . S
C543 C247 1.257 . S
C557 C258 1.246 . S
C561 C214 1.236 . S
C575 C269 1.445 . S
C579 C313 1.451 . S
C593 C324 1.457 . S
C597 C280 1.462 . S
C611 C291 1.460 . S
C615 C335 1.455 . S
C629 C346 1.443 . S
C633 C302 1.443 . S
C647 C139 1.523 . S
C651 C7 1.473 . S
C665 C18 1.488 . S
C669 C326 1.523 . S
C683 C161 1.521 . S
C687 C29 1.476 . S
C701 C40 1.475 . S
C705 C348 1.527 . S
C719 C95 1.525 . S
C723 C51 1.473 . S
C737 C282 1.527 . S
C741 C62 1.488 . S
C755 C73 1.485 . S
C759 C117 1.521 . S
C773 C304 1.521 . S
C777 C84 1.476 . S
C791 C106 1.529 . S
C795 C238 1.478 . S
C809 C128 1.526 . S
C813 C260 1.488 . S
C827 C150 1.521 . S
C831 C194 1.476 . S
C845 C216 1.477 . S
C849 C172 1.528 . S
C863 C315 1.528 . S
C867 C183 1.483 . S
C881 C337 1.529 . S
C885 C205 1.480 . S
C899 C227 1.488 . S
C903 C271 1.525 . S
C917 C293 1.520 . S
C921 C249 1.482 . S
C935 C261 1.530 . S
C939 C8 1.530 . S
C953 C19 1.542 . S
C957 C228 1.542 . S
C971 C30 1.542 . S
C975 C239 1.542 . S
C989 C250 1.534 . S
C993 C41 1.533 . S
C1007 C52 1.533 . S
C1011 C195 1.533 . S
C1025 C63 1.542 . S
C1029 C206 1.542 . S
C1043 C217 1.530 . S
C1047 C74 1.530 . S
C1061 C184 1.539 . S
C1065 C85 1.540 . S
C1079 C349 1.580 . S
C1083 C96 1.582 . S
C1097 C107 1.583 . S
C1101 C316 1.581 . S
C1115 C327 1.583 . S
C1119 C118 1.582 . S
C1133 C338 1.583 . S
C1137 C129 1.582 . S
C1151 C140 1.579 . S
C1155 C283 1.581 . S
C1169 C294 1.582 . S
C1173 C151 1.583 . S
C1187 C305 1.580 . S
C1191 C162 1.583 . S
C1205 C173 1.583 . S
C1209 C272 1.580 . S
