# Generated by pormake.
# Topology sxb, (6)-cn, num edge types: 1
# Building blocks:
#     Node 0, Type 0, BuildingBlock: CIFDUS_clean_sbu_1, # of connection points: 6
#     Node 1, Type 0, BuildingBlock: CIFDUS_clean_sbu_1, # of connection points: 6
#     Node 2, Type 0, BuildingBlock: CIFDUS_clean_sbu_1, # of connection points: 6
#     Node 3, Type 0, BuildingBlock: CIFDUS_clean_sbu_1, # of connection points: 6
#     Edge 4, Type (0, 0), BuildingBlock: TEMPAE_clean_linker_10, # of connection points: 2
#     Edge 5, Type (0, 0), BuildingBlock: TEMPAE_clean_linker_10, # of connection points: 2
#     Edge 6, Type (0, 0), BuildingBlock: TEMPAE_clean_linker_10, # of connection points: 2
#     Edge 7, Type (0, 0), BuildingBlock: TEMPAE_clean_linker_10, # of connection points: 2
#     Edge 8, Type (0, 0), BuildingBlock: TEMPAE_clean_linker_10, # of connection points: 2
#     Edge 9, Type (0, 0), BuildingBlock: TEMPAE_clean_linker_10, # of connection points: 2
#     Edge 10, Type (0, 0), BuildingBlock: TEMPAE_clean_linker_10, # of connection points: 2
#     Edge 11, Type (0, 0), BuildingBlock: TEMPAE_clean_linker_10, # of connection points: 2
#     Edge 12, Type (0, 0), BuildingBlock: TEMPAE_clean_linker_10, # of connection points: 2
#     Edge 13, Type (0, 0), BuildingBlock: TEMPAE_clean_linker_10, # of connection points: 2
#     Edge 14, Type (0, 0), BuildingBlock: TEMPAE_clean_linker_10, # of connection points: 2
#     Edge 15, Type (0, 0), BuildingBlock: TEMPAE_clean_linker_10, # of connection points: 2
# Relax obj value: 0.095
# Max RMSD: 0.134
# Mean RMSD: 0.134
data_MOF--net-sxb--node1-CIFDUS_clean_sbu_1--edge1-TEMPAE_clean_linker_10
_symmetry_space_group_name_H-M    P1
_symmetry_Int_Tables_number       1
_symmetry_cell_setting            triclinic
loop_
_symmetry_equiv_pos_as_xyz
'x, y, z'
_cell_length_a     15.587133
_cell_length_b     27.632001
_cell_length_c     31.15813
_cell_angle_alpha  90.053751
_cell_angle_beta   110.07898
_cell_angle_gamma 89.92067
loop_
_atom_site_label
_atom_site_type_symbol
_atom_site_fract_x
_atom_site_fract_y
_atom_site_fract_z
_atom_type_partial_charge
O0 O 0.06714 0.94608 0.0421 0.0
Mn1 Mn 0.03417 0.01961 0.04244 0.0
O2 O 0.20411 0.94027 0.09727 0.0
Mn3 Mn 0.20234 0.99843 0.12662 0.0
O4 O -0.00046 0.09279 0.04075 0.0
O5 O 0.98353 1.01615 0.96884 0.0
Mn6 Mn 0.87608 0.01971 0.97731 0.0
O7 O 0.91325 1.00352 0.05735 0.0
O8 O 0.85469 0.07984 0.999 0.0
O9 O 0.1616 0.037 0.03555 0.0
O10 O 0.25928 0.04719 0.10719 0.0
O11 O 0.83684 0.02006 0.91823 0.0
O12 O 0.84041 0.96372 0.99789 0.0
C13 C 0.09082 1.01029 0.15073 0.0
C14 C 0.14058 0.92273 0.06353 0.0
C15 C 0.91716 0.1078 1.02288 0.0
C16 C 0.92402 1.01751 0.92624 0.0
C17 C 0.84621 0.9758 0.03719 0.0
C18 C 0.24001 0.05055 0.06415 0.0
O19 O 0.09244 0.02504 0.11153 0.0
O20 O 0.16797 0.99267 0.17679 0.0
O21 O 0.11648 1.00236 0.51346 0.0
Mn22 Mn -0.00624 0.01908 0.52536 0.0
O23 O 0.20563 0.97416 0.57822 0.0
Mn24 Mn 0.16066 0.02388 0.60317 0.0
O25 O 0.86659 0.03866 0.53136 0.0
O26 O 0.93735 0.02557 0.45618 0.0
Mn27 Mn 0.82733 0.9988 0.44072 0.0
O28 O 0.95774 0.94592 0.52534 0.0
O29 O 0.76984 0.04804 0.4593 0.0
O30 O 0.03459 0.09144 0.52842 0.0
O31 O 0.17059 0.08724 0.58526 0.0
O32 O 0.8637 0.99192 0.39136 0.0
O33 O 0.82205 0.94087 0.46945 0.0
C34 C 0.08194 1.012 0.64186 0.0
C35 C 0.19191 0.98238 0.5369 0.0
C36 C 0.78909 0.05277 0.50225 0.0
C37 C 0.9399 1.01072 0.41713 0.0
C38 C 0.88406 0.92305 0.50357 0.0
C39 C 0.11027 0.11054 0.55393 0.0
O40 O 0.04471 1.01477 0.59693 0.0
O41 O 0.17004 1.01487 0.66066 0.0
O42 O 0.5715 0.44479 0.04001 0.0
Mn43 Mn 0.52084 0.51656 0.03759 0.0
O44 O 0.65706 0.43058 0.11224 0.0
Mn45 Mn 0.67107 0.49512 0.12538 0.0
O46 O 0.46751 0.58702 0.03064 0.0
O47 O 0.47333 0.50956 0.96688 0.0
Mn48 Mn 0.35438 0.51356 0.95713 0.0
O49 O 0.39965 0.49487 0.04783 0.0
O50 O 0.33528 0.57698 0.97191 0.0
O51 O 0.64627 0.53993 0.03212 0.0
O52 O 0.74811 0.52633 0.10219 0.0
O53 O 0.35599 0.50215 0.90114 0.0
O54 O 0.30908 0.46511 0.98364 0.0
C55 C 0.58835 0.5327 0.15212 0.0
C56 C 0.62414 0.41696 0.07106 0.0
C57 C 0.39039 0.60323 1.0032 0.0
C58 C 0.44349 0.50515 0.9221 0.0
C59 C 0.32528 0.47338 0.02531 0.0
C60 C 0.72844 0.5409 0.06134 0.0
O61 O 0.5657 0.5254 0.10788 0.0
O62 O 0.66603 0.51571 0.17872 0.0
O63 O 0.62289 0.49649 0.51829 0.0
Mn64 Mn 0.50311 0.51714 0.52944 0.0
O65 O 0.71636 0.468 0.58239 0.0
Mn66 Mn 0.67518 0.51436 0.61322 0.0
O67 O 0.3777 0.54001 0.53453 0.0
O68 O 0.4544 0.52318 0.45898 0.0
Mn69 Mn 0.35576 0.48697 0.44363 0.0
O70 O 0.45712 0.44499 0.53082 0.0
O71 O 0.27584 0.51504 0.46744 0.0
O72 O 0.55703 0.58738 0.53554 0.0
O73 O 0.68617 0.57934 0.5982 0.0
O74 O 0.3553 0.50753 0.38922 0.0
O75 O 0.38278 0.42356 0.4591 0.0
C76 C 0.56604 0.49586 0.63869 0.0
C77 C 0.69799 0.47588 0.54058 0.0
C78 C 0.29519 0.53538 0.50622 0.0
C79 C 0.42904 0.52928 0.41453 0.0
C80 C 0.41329 0.4134 0.50116 0.0
C81 C 0.63195 0.60449 0.5649 0.0
O82 O 0.55525 0.51561 0.59941 0.0
O83 O 0.65114 0.48788 0.66158 0.0
C84 C 0.27679 0.67047 0.97694 0.0
C85 C 0.35746 0.65249 1.00952 0.0
C86 C 0.23715 0.71403 0.98381 0.0
C87 C 0.27945 0.74111 1.02401 0.0
C88 C 0.36226 0.7241 0.05656 0.0
C89 C 0.40017 0.67988 0.04902 0.0
C90 C 0.14916 0.7308 0.94816 0.0
C91 C 0.41004 0.7523 0.09963 0.0
C92 C 0.222 0.87512 1.02246 0.0
C93 C 0.16054 0.87596 0.04636 0.0
C94 C 0.26025 0.83148 1.01446 0.0
C95 C 0.23734 0.7876 0.03133 0.0
C96 C 0.17325 0.78817 0.05451 0.0
C97 C 0.13585 0.83251 0.06195 0.0
C98 C 0.32813 0.8327 0.98965 0.0
C99 C 0.14607 0.7421 0.07244 0.0
H100 H 0.24293 0.64991 0.94614 0.0
H101 H 0.46201 0.66631 0.07453 0.0
H102 H 0.0953 0.73477 0.96372 0.0
H103 H 0.15909 0.76685 0.93494 0.0
H104 H 0.12436 0.7053 0.91891 0.0
H105 H 0.47444 0.73463 0.12123 0.0
H106 H 0.42609 0.7893 0.09083 0.0
H107 H 0.36428 0.75618 0.11995 0.0
H108 H 0.24307 0.90902 1.01162 0.0
H109 H 0.09033 0.83348 0.08157 0.0
H110 H 0.31283 0.80412 0.96306 0.0
H111 H 0.39769 0.82565 1.0143 0.0
H112 H 0.32842 0.86819 0.97307 0.0
H113 H 0.1153 0.71652 0.04383 0.0
H114 H 0.09626 0.7487 0.09015 0.0
H115 H 0.20739 0.7242 0.09664 0.0
C116 C 0.63366 0.35102 1.01574 0.0
C117 C 0.6674 0.37338 0.05877 0.0
C118 C 0.68037 0.31139 1.0051 0.0
C119 C 0.7629 0.29441 0.03798 0.0
C120 C 0.79977 0.31893 0.08005 0.0
C121 C 0.75142 0.35734 0.09006 0.0
C122 C 0.64085 0.28707 0.95917 0.0
C123 C 0.88914 0.30341 0.11547 0.0
C124 C 0.81484 0.16021 0.04737 0.0
C125 C 0.88829 0.15659 0.0314 0.0
C126 C 0.77276 0.20471 0.04856 0.0
C127 C 0.80351 0.24686 0.03251 0.0
C128 C 0.87812 0.24356 1.0163 0.0
C129 C 0.91996 0.19825 1.01604 0.0
C130 C 0.69511 0.20659 0.06712 0.0
C131 C 0.9117 0.28728 0.99776 0.0
H132 H 0.57067 0.36403 0.99073 0.0
H133 H 0.78091 0.37525 0.12279 0.0
H134 H 0.69451 0.28225 0.94357 0.0
H135 H 0.61565 0.25053 0.96358 0.0
H136 H 0.58336 0.30805 0.93529 0.0
H137 H 0.91225 0.32875 0.14492 0.0
H138 H 0.88145 0.26687 0.12845 0.0
H139 H 0.94332 0.3011 0.09997 0.0
H140 H 0.78917 0.1277 0.05831 0.0
H141 H 0.97459 0.19505 1.00209 0.0
H142 H 0.63199 0.21942 0.04019 0.0
H143 H 0.7112 0.23255 0.096 0.0
H144 H 0.68126 0.17081 0.07935 0.0
H145 H 0.86284 0.2956 0.96315 0.0
H146 H 0.98001 0.28093 0.99498 0.0
H147 H 0.91541 0.31963 1.01943 0.0
C148 C 0.13503 0.1983 0.57189 0.0
C149 C 0.13748 0.15893 0.54401 0.0
C150 C 0.18057 0.24175 0.5698 0.0
C151 C 0.23134 0.24519 0.53986 0.0
C152 C 0.23344 0.20528 0.5116 0.0
C153 C 0.1864 0.1627 0.51402 0.0
C154 C 0.17562 0.28356 0.60007 0.0
C155 C 0.28719 0.20711 0.4795 0.0
C156 C 0.27577 0.36417 0.4917 0.0
C157 C 0.3694 0.37161 0.51519 0.0
C158 C 0.22918 0.32488 0.50145 0.0
C159 C 0.27733 0.29128 0.5353 0.0
C160 C 0.37093 0.29973 0.56102 0.0
C161 C 0.41593 0.34032 0.55098 0.0
C162 C 0.12908 0.31826 0.47393 0.0
C163 C 0.42403 0.265 0.59793 0.0
H164 H 0.09975 0.19454 0.59625 0.0
H165 H 0.1912 0.1314 0.4939 0.0
H166 H 0.2454 0.29419 0.62221 0.0
H167 H 0.14444 0.31549 0.57885 0.0
H168 H 0.13489 0.27468 0.62211 0.0
H169 H 0.28 0.17341 0.4591 0.0
H170 H 0.26411 0.2381 0.45567 0.0
H171 H 0.36065 0.21271 0.49934 0.0
H172 H 0.23837 0.38931 0.46512 0.0
H173 H 0.48764 0.34658 0.56991 0.0
H174 H 0.08934 0.31151 0.4968 0.0
H175 H 0.12049 0.28621 0.45134 0.0
H176 H 0.09951 0.35029 0.45235 0.0
H177 H 0.38688 0.25823 0.62199 0.0
H178 H 0.49344 0.27873 0.61751 0.0
H179 H 0.4308 0.22971 0.58237 0.0
C180 C 0.80176 0.87698 0.54522 0.0
C181 C 0.86201 0.87669 0.52061 0.0
C182 C 0.76136 0.83402 0.55313 0.0
C183 C 0.78136 0.78963 0.53576 0.0
C184 C 0.84388 0.78912 0.51166 0.0
C185 C 0.88301 0.8328 0.50409 0.0
C186 C 0.69497 0.83644 0.57875 0.0
C187 C 0.86746 0.7426 0.4928 0.0
C188 C 0.74469 0.67233 0.59073 0.0
C189 C 0.66371 0.65413 0.55861 0.0
C190 C 0.78294 0.71625 0.58373 0.0
C191 C 0.73892 0.74357 0.54389 0.0
C192 C 0.65554 0.7265 0.51193 0.0
C193 C 0.61907 0.6819 0.51955 0.0
C194 C 0.87202 0.73282 0.61859 0.0
C195 C 0.6056 0.75501 0.46936 0.0
H196 H 0.78335 0.91128 0.55669 0.0
H197 H 0.92725 0.83293 0.48378 0.0
H198 H 0.62603 0.82542 0.55584 0.0
H199 H 0.71571 0.81085 0.60795 0.0
H200 H 0.69029 0.87334 0.59195 0.0
H201 H 0.91888 0.74809 0.47587 0.0
H202 H 0.89459 0.71577 0.52067 0.0
H203 H 0.80497 0.72681 0.4676 0.0
H204 H 0.78021 0.65159 0.62116 0.0
H205 H 0.55671 0.66839 0.49444 0.0
H206 H 0.86385 0.76944 0.63132 0.0
H207 H 0.92509 0.73541 0.60238 0.0
H208 H 0.89688 0.70786 0.64824 0.0
H209 H 0.58805 0.79146 0.47885 0.0
H210 H 0.54181 0.73684 0.44779 0.0
H211 H 0.65041 0.76028 0.44873 0.0
C212 C 0.39839 0.07757 0.07721 0.0
C213 C 0.32044 0.05278 0.04959 0.0
C214 C 0.48523 0.06621 0.07608 0.0
C215 C 0.49436 0.02889 0.04683 0.0
C216 C 0.41517 1.00628 1.01639 0.0
C217 C 0.32889 1.01888 1.01782 0.0
C218 C 0.56719 0.09224 0.10834 0.0
C219 C 0.4219 0.96635 0.9846 0.0
C220 C 0.70032 0.02032 1.01021 0.0
C221 C 0.75772 0.98804 0.0421 0.0
C222 C 0.61801 0.03619 1.01354 0.0
C223 C 0.58624 1.01503 0.04637 0.0
C224 C 0.64146 0.98053 0.07766 0.0
C225 C 0.72853 0.96852 0.07613 0.0
C226 C 0.56537 0.0758 0.9819 0.0
C227 C 0.60791 0.95592 0.11207 0.0
H228 H 0.39217 0.10353 0.10213 0.0
H229 H 0.26916 0.99902 0.99696 0.0
H230 H 0.59681 0.07031 0.13979 0.0
H231 H 0.621 0.09731 0.09299 0.0
H232 H 0.54813 0.12814 0.11846 0.0
H233 H 0.35372 0.95483 0.96105 0.0
H234 H 0.4633 0.97807 0.96382 0.0
H235 H 0.4569 0.93465 1.00508 0.0
H236 H 0.71945 0.03341 0.98213 0.0
H237 H 0.77206 0.943 0.10034 0.0
H238 H 0.54819 0.10512 1.00198 0.0
H239 H 0.50021 0.06128 0.95796 0.0
H240 H 0.60456 0.09183 0.96163 0.0
H241 H 0.59864 0.98304 0.13636 0.0
H242 H 0.65602 0.92759 0.13174 0.0
H243 H 0.54032 0.93903 0.09441 0.0
C244 C 0.30463 0.97568 0.49502 0.0
C245 C 0.27418 0.99795 0.52748 0.0
C246 C 0.38879 0.9895 0.49105 0.0
C247 C 0.44068 0.02732 0.51907 0.0
C248 C 0.40667 0.05162 0.5496 0.0
C249 C 0.32593 0.03552 0.55443 0.0
C250 C 0.42389 0.96262 0.4583 0.0
C251 C 0.45723 0.09344 0.5787 0.0
C252 C 0.6981 0.02651 0.54929 0.0
C253 C 0.70897 0.05835 0.5166 0.0
C254 C 0.61094 1.01652 0.55076 0.0
C255 C 0.53351 0.03957 0.5193 0.0
C256 C 0.54525 0.0752 0.48926 0.0
C257 C 0.633 0.08413 0.48825 0.0
C258 C 0.60126 0.97902 0.58403 0.0
C259 C 0.46478 0.1018 0.45633 0.0
H260 H 0.26496 0.9465 0.47433 0.0
H261 H 0.30494 0.05172 0.58069 0.0
H262 H 0.44181 0.98849 0.43552 0.0
H263 H 0.48722 0.94275 0.47781 0.0
H264 H 0.37318 0.93633 0.43696 0.0
H265 H 0.41551 0.11215 0.59632 0.0
H266 H 0.5208 0.08003 0.60492 0.0
H267 H 0.4772 0.12038 0.55748 0.0
H268 H 0.75637 1.00606 0.57086 0.0
H269 H 0.64139 0.10868 0.46284 0.0
H270 H 0.56203 0.94763 0.56489 0.0
H271 H 0.56256 0.99416 0.60491 0.0
H272 H 0.66847 0.96592 0.60741 0.0
H273 H 0.42351 0.07635 0.4297 0.0
H274 H 0.48649 0.1323 0.43923 0.0
H275 H 0.41977 0.11615 0.47427 0.0
C276 C 0.89108 0.56201 0.0837 0.0
C277 C 0.80941 0.55066 0.04818 0.0
C278 C 0.97596 0.54959 0.08105 0.0
C279 C 0.98036 0.53015 0.0399 0.0
C280 C 0.89903 0.5256 1.00137 0.0
C281 C 0.81375 0.5346 1.0063 0.0
C282 C 0.05984 0.55356 0.12363 0.0
C283 C 0.90177 0.50902 0.95573 0.0
C284 C 0.21942 0.53489 0.0352 0.0
C285 C 0.24407 0.4859 0.03726 0.0
C286 C 0.1323 0.54944 0.03329 0.0
C287 C 0.07039 0.51437 0.03802 0.0
C288 C 0.09732 0.4649 0.04403 0.0
C289 C 0.18261 0.45095 0.04148 0.0
C290 C 0.1052 0.60198 1.02345 0.0
C291 C 0.03652 0.42693 0.05345 0.0
H292 H 0.88814 0.5754 0.11591 0.0
H293 H 0.75119 0.52584 0.97862 0.0
H294 H 0.09453 0.51788 0.13162 0.0
H295 H 0.10933 0.57947 0.1182 0.0
H296 H 0.04314 0.56578 0.15383 0.0
H297 H 0.83551 0.51517 0.92782 0.0
H298 H 0.9564 0.52837 0.94736 0.0
H299 H 0.91763 0.46982 0.95707 0.0
H300 H 0.26665 0.56202 0.03236 0.0
H301 H 0.20117 0.41302 0.04282 0.0
H302 H 0.07413 0.61667 0.0478 0.0
H303 H 0.0529 0.60483 0.9888 0.0
H304 H 0.16408 0.62523 0.02477 0.0
H305 H 0.01622 0.43824 0.08282 0.0
H306 H 0.07064 0.39105 0.06122 0.0
H307 H 0.97306 0.42295 1.02349 0.0
C308 C 0.13464 0.56009 0.48265 0.0
C309 C 0.21455 0.54722 0.51858 0.0
C310 C 0.04837 0.54965 0.48453 0.0
C311 C 0.04163 0.52916 0.52476 0.0
C312 C 0.12169 0.52214 0.56348 0.0
C313 C 0.20791 0.53047 0.55969 0.0
C314 C 0.96537 0.55638 0.44195 0.0
C315 C 0.11653 0.50307 0.60788 0.0
C316 C 0.80608 0.53671 0.53309 0.0
C317 C 0.7775 0.48833 0.52763 0.0
C318 C 0.89297 0.55009 0.53401 0.0
C319 C 0.95058 0.51467 0.52566 0.0
C320 C 0.91964 0.46609 0.51658 0.0
C321 C 0.83433 0.45307 0.5194 0.0
C322 C 0.92463 0.60163 0.54628 0.0
C323 C 0.97675 0.428 0.50425 0.0
H324 H 0.13994 0.57321 0.45084 0.0
H325 H 0.26938 0.52008 0.58736 0.0
H326 H 0.93201 0.52085 0.43072 0.0
H327 H 0.91441 0.58011 0.44902 0.0
H328 H 0.98288 0.57237 0.41332 0.0
H329 H 0.1831 0.50606 0.63625 0.0
H330 H 0.0639 0.5231 0.61739 0.0
H331 H 0.09619 0.46443 0.60385 0.0
H332 H 0.76246 0.56392 0.53953 0.0
H333 H 0.81258 0.41558 0.51566 0.0
H334 H 0.94488 0.61841 0.51892 0.0
H335 H 0.98583 0.60176 0.57782 0.0
H336 H 0.8712 0.62462 0.55212 0.0
H337 H -0.00343 0.44067 0.47516 0.0
H338 H 0.93994 0.39304 0.49475 0.0
H339 H 0.04064 0.42167 0.53348 0.0
C340 C 0.9419 0.07334 0.36263 0.0
C341 C 0.99011 0.03635 0.39191 0.0
C342 C 0.95144 0.0807 0.31995 0.0
C343 C 0.01533 0.05254 0.30776 0.0
C344 C 0.07498 0.021 0.34066 0.0
C345 C 0.05997 1.01225 0.38201 0.0
C346 C 0.88407 0.11347 0.28597 0.0
C347 C 0.14846 0.99269 0.33036 0.0
C348 C 0.9774 1.00336 0.18901 0.0
C349 C 0.03545 0.03292 0.17493 0.0
C350 C 0.96328 1.01225 0.23053 0.0
C351 C 0.01135 0.05048 0.25922 0.0
C352 C 0.06237 0.0833 0.24276 0.0
C353 C 0.07189 0.0747 0.20018 0.0
C354 C 0.904 0.97786 0.24558 0.0
C355 C 0.116 0.12395 0.27225 0.0
H356 H 0.8867 0.09144 0.37001 0.0
H357 H 0.09683 0.98338 0.40437 0.0
H358 H 0.91528 0.13225 0.26356 0.0
H359 H 0.82667 0.09122 0.26377 0.0
H360 H 0.85549 0.14098 0.30337 0.0
H361 H 0.20027 0.97838 0.36204 0.0
H362 H 0.1171 0.96164 0.30788 0.0
H363 H 0.18334 1.0156 0.31214 0.0
H364 H 0.95037 0.97063 0.16993 0.0
H365 H 0.11854 0.09696 0.18973 0.0
H366 H 0.86073 0.99797 0.26137 0.0
H367 H 0.94798 0.9527 0.27168 0.0
H368 H 0.85913 0.95604 0.21658 0.0
H369 H 0.07417 0.14374 0.289 0.0
H370 H 0.14131 0.15011 0.2523 0.0
H371 H 0.1757 0.10856 0.29972 0.0
C372 C 0.02822 0.9943 0.88255 0.0
C373 C 0.95104 1.01833 0.88512 0.0
C374 C 0.04338 0.99106 0.84046 0.0
C375 C 0.97967 1.01219 0.80056 0.0
C376 C 0.90277 0.03696 0.8035 0.0
C377 C 0.89024 0.04022 0.8456 0.0
C378 C 0.1271 0.96505 0.83854 0.0
C379 C 0.83338 0.06023 0.7621 0.0
C380 C 0.05716 0.05487 0.7047 0.0
C381 C 0.03098 1.01654 0.67342 0.0
C382 C 0.04249 0.05319 0.74642 0.0
C383 C -0.00325 1.013 0.75645 0.0
C384 C 0.96323 0.97586 0.72334 0.0
C385 C 0.98233 0.9776 0.68226 0.0
C386 C 0.08001 0.09344 0.78065 0.0
C387 C 0.9109 0.9334 0.73214 0.0
H388 H 0.07497 0.97712 0.91286 0.0
H389 H 0.83102 0.05965 0.84735 0.0
H390 H 0.10648 0.93479 0.81368 0.0
H391 H 0.16936 0.99014 0.82637 0.0
H392 H 0.16965 0.95036 0.87235 0.0
H393 H 0.77398 0.07528 0.76966 0.0
H394 H 0.86579 0.09002 0.74935 0.0
H395 H 0.80802 0.03338 0.73408 0.0
H396 H 0.09623 0.0846 0.69802 0.0
H397 H 0.96415 0.94743 0.65857 0.0
H398 H 0.12805 0.07829 0.81296 0.0
H399 H 0.02384 0.1113 0.78891 0.0
H400 H 0.11655 0.12138 0.76793 0.0
H401 H 0.9576 0.91033 0.75934 0.0
H402 H 0.88013 0.91093 0.70104 0.0
H403 H 0.85576 0.94605 0.74442 0.0
C404 C 0.42296 0.5917 0.35861 0.0
C405 C 0.47699 0.55838 0.39046 0.0
C406 C 0.43591 0.59958 0.3168 0.0
C407 C 0.50686 0.57481 0.30742 0.0
C408 C 0.57035 0.54702 0.3425 0.0
C409 C 0.55414 0.53875 0.38369 0.0
C410 C 0.3662 0.62917 0.28062 0.0
C411 C 0.64934 0.52148 0.3347 0.0
C412 C 0.47343 0.52568 0.18876 0.0
C413 C 0.53107 0.55586 0.17494 0.0
C414 C 0.46083 0.53309 0.23087 0.0
C415 C 0.50644 0.57193 0.25946 0.0
C416 C 0.55594 0.60567 0.24304 0.0
C417 C 0.56715 0.59733 0.20078 0.0
C418 C 0.40622 0.4965 0.24667 0.0
C419 C 0.60532 0.6476 0.2721 0.0
H420 H 0.36251 0.60642 0.36363 0.0
H421 H 0.59534 0.51247 0.40793 0.0
H422 H 0.39936 0.65208 0.26163 0.0
H423 H 0.31846 0.60439 0.2556 0.0
H424 H 0.32571 0.65271 0.29547 0.0
H425 H 0.70143 0.50963 0.36738 0.0
H426 H 0.62368 0.48901 0.31314 0.0
H427 H 0.68253 0.54531 0.31639 0.0
H428 H 0.44747 0.49291 0.16949 0.0
H429 H 0.61368 0.62003 0.19067 0.0
H430 H 0.35791 0.51499 0.2604 0.0
H431 H 0.45317 0.47438 0.27469 0.0
H432 H 0.36701 0.47178 0.21869 0.0
H433 H 0.56085 0.66627 0.28807 0.0
H434 H 0.62892 0.67434 0.25198 0.0
H435 H 0.66585 0.6338 0.30012 0.0
C436 C 0.56178 0.55371 0.69691 0.0
C437 C 0.51845 0.51479 0.66872 0.0
C438 C 0.56157 0.55767 0.74171 0.0
C439 C 0.5067 0.52582 0.7567 0.0
C440 C 0.44929 0.49226 0.7251 0.0
C441 C 0.4594 0.48536 0.68222 0.0
C442 C 0.6254 0.59366 0.77354 0.0
C443 C 0.3803 0.46198 0.7371 0.0
C444 C 0.54414 0.48293 0.87807 0.0
C445 C 0.49656 0.51825 0.89298 0.0
C446 C 0.55566 0.48749 0.83531 0.0
C447 C 0.51197 0.52613 0.80556 0.0
C448 C 0.47036 0.56371 0.82245 0.0
C449 C 0.4672 0.56017 0.8667 0.0
C450 C 0.6106 0.44948 0.82139 0.0
C451 C 0.42222 0.60622 0.79368 0.0
H452 H 0.60751 0.57662 0.68638 0.0
H453 H 0.42535 0.45538 0.66062 0.0
H454 H 0.58658 0.62657 0.7759 0.0
H455 H 0.65702 0.57852 0.80843 0.0
H456 H 0.68094 0.60493 0.76094 0.0
H457 H 0.32343 0.45087 0.70587 0.0
H458 H 0.41352 0.42865 0.75495 0.0
H459 H 0.35141 0.48202 0.75992 0.0
H460 H 0.56669 0.45034 0.89817 0.0
H461 H 0.4301 0.58754 0.87833 0.0
H462 H 0.64435 0.46458 0.79824 0.0
H463 H 0.56499 0.41962 0.80336 0.0
H464 H 0.66375 0.43373 0.85181 0.0
H465 H 0.46306 0.63944 0.80635 0.0
H466 H 0.35485 0.61214 0.79769 0.0
H467 H 0.41082 0.60198 0.75677 0.0
loop_
_geom_bond_atom_site_label_1
_geom_bond_atom_site_label_2
_geom_bond_distance
_geom_bond_site_symmetry_2
_ccdc_geom_bond_type
O0 Mn1 2.163 1_566 S
O0 C14 1.244 1_556 S
Mn1 O0 2.163 1_544 S
Mn1 O4 2.160 . S
Mn1 O5 2.221 1_554 S
Mn1 O7 2.163 1_445 S
Mn1 O9 2.160 . S
Mn1 O19 2.221 . S
O2 Mn3 2.087 . S
O2 C14 1.256 . S
Mn3 O2 2.087 . S
Mn3 O10 2.089 . S
Mn3 O19 2.290 1_565 S
Mn3 O20 2.251 . S
O4 Mn1 2.160 . S
O4 C15 1.239 1_455 S
O5 Mn1 2.221 1_556 S
O5 Mn6 2.290 1_455 S
O5 C16 1.278 1_455 S
Mn6 O5 2.290 1_655 S
Mn6 O8 2.089 . S
Mn6 O11 2.251 . S
Mn6 O12 2.087 . S
O7 Mn1 2.163 1_665 S
O7 C17 1.244 1_554 S
O8 Mn6 2.089 . S
O8 C15 1.256 1_556 S
O9 Mn1 2.160 . S
O9 C18 1.239 . S
O10 Mn3 2.089 . S
O10 C18 1.256 1_565 S
O11 Mn6 2.251 . S
O11 C16 1.241 . S
O12 Mn6 2.087 . S
O12 C17 1.256 1_545 S
C13 O19 1.278 1_565 S
C13 O20 1.241 . S
C14 O0 1.244 1_554 S
C14 O2 1.256 . S
C15 O4 1.239 1_655 S
C15 O8 1.256 1_554 S
C16 O5 1.278 1_655 S
C16 O11 1.241 . S
C17 O7 1.244 1_556 S
C17 O12 1.256 1_565 S
C18 O9 1.239 . S
C18 O10 1.256 1_545 S
O19 Mn1 2.221 . S
O19 Mn3 2.290 1_545 S
O19 C13 1.278 1_545 S
O20 Mn3 2.251 . S
O20 C13 1.241 . S
O21 Mn22 2.163 1_465 S
O21 C35 1.244 . S
Mn22 O21 2.163 1_645 S
Mn22 O25 2.160 . S
Mn22 O26 2.221 . S
Mn22 O28 2.163 1_545 S
Mn22 O30 2.160 1_655 S
Mn22 O40 2.221 1_655 S
O23 Mn24 2.087 . S
O23 C35 1.256 1_545 S
Mn24 O23 2.087 . S
Mn24 O31 2.089 . S
Mn24 O40 2.290 . S
Mn24 O41 2.251 . S
O25 Mn22 2.160 . S
O25 C36 1.239 . S
O26 Mn22 2.221 . S
O26 Mn27 2.290 1_545 S
O26 C37 1.278 1_545 S
Mn27 O26 2.290 1_565 S
Mn27 O29 2.089 . S
Mn27 O32 2.251 . S
Mn27 O33 2.087 . S
O28 Mn22 2.163 1_565 S
O28 C38 1.244 . S
O29 Mn27 2.089 . S
O29 C36 1.256 1_565 S
O30 Mn22 2.160 1_455 S
O30 C39 1.239 . S
O31 Mn24 2.089 . S
O31 C39 1.256 . S
O32 Mn27 2.251 . S
O32 C37 1.241 . S
O33 Mn27 2.087 . S
O33 C38 1.256 . S
C34 O40 1.278 . S
C34 O41 1.241 . S
C35 O21 1.244 . S
C35 O23 1.256 1_565 S
C36 O25 1.239 . S
C36 O29 1.256 1_545 S
C37 O26 1.278 1_565 S
C37 O32 1.241 . S
C38 O28 1.244 . S
C38 O33 1.256 . S
C39 O30 1.239 . S
C39 O31 1.256 . S
O40 Mn22 2.221 1_455 S
O40 Mn24 2.290 . S
O40 C34 1.278 . S
O41 Mn24 2.251 . S
O41 C34 1.241 . S
O42 Mn43 2.163 1_556 S
O42 C56 1.244 1_556 S
Mn43 O42 2.163 1_554 S
Mn43 O46 2.160 . S
Mn43 O47 2.221 1_554 S
Mn43 O49 2.163 . S
Mn43 O51 2.160 . S
Mn43 O61 2.221 . S
O44 Mn45 2.087 . S
O44 C56 1.256 . S
Mn45 O44 2.087 . S
Mn45 O52 2.089 . S
Mn45 O61 2.290 . S
Mn45 O62 2.251 . S
O46 Mn43 2.160 . S
O46 C57 1.239 . S
O47 Mn43 2.221 1_556 S
O47 Mn48 2.290 . S
O47 C58 1.278 . S
Mn48 O47 2.290 . S
Mn48 O50 2.089 . S
Mn48 O53 2.251 . S
Mn48 O54 2.087 . S
O49 Mn43 2.163 . S
O49 C59 1.244 1_554 S
O50 Mn48 2.089 . S
O50 C57 1.256 1_556 S
O51 Mn43 2.160 . S
O51 C60 1.239 . S
O52 Mn45 2.089 . S
O52 C60 1.256 . S
O53 Mn48 2.251 . S
O53 C58 1.241 . S
O54 Mn48 2.087 . S
O54 C59 1.256 . S
C55 O61 1.278 . S
C55 O62 1.241 . S
C56 O42 1.244 1_554 S
C56 O44 1.256 . S
C57 O46 1.239 . S
C57 O50 1.256 1_554 S
C58 O47 1.278 . S
C58 O53 1.241 . S
C59 O49 1.244 1_556 S
C59 O54 1.256 . S
C60 O51 1.239 . S
C60 O52 1.256 . S
O61 Mn43 2.221 . S
O61 Mn45 2.290 . S
O61 C55 1.278 . S
O62 Mn45 2.251 . S
O62 C55 1.241 . S
O63 Mn64 2.163 . S
O63 C77 1.244 . S
Mn64 O63 2.163 . S
Mn64 O67 2.160 . S
Mn64 O68 2.221 . S
Mn64 O70 2.163 . S
Mn64 O72 2.160 . S
Mn64 O82 2.221 . S
O65 Mn66 2.087 . S
O65 C77 1.256 . S
Mn66 O65 2.087 . S
Mn66 O73 2.089 . S
Mn66 O82 2.290 . S
Mn66 O83 2.251 . S
O67 Mn64 2.160 . S
O67 C78 1.239 . S
O68 Mn64 2.221 . S
O68 Mn69 2.290 . S
O68 C79 1.278 . S
Mn69 O68 2.290 . S
Mn69 O71 2.089 . S
Mn69 O74 2.251 . S
Mn69 O75 2.087 . S
O70 Mn64 2.163 . S
O70 C80 1.244 . S
O71 Mn69 2.089 . S
O71 C78 1.256 . S
O72 Mn64 2.160 . S
O72 C81 1.239 . S
O73 Mn66 2.089 . S
O73 C81 1.256 . S
O74 Mn69 2.251 . S
O74 C79 1.241 . S
O75 Mn69 2.087 . S
O75 C80 1.256 . S
C76 O82 1.278 . S
C76 O83 1.241 . S
C77 O63 1.244 . S
C77 O65 1.256 . S
C78 O67 1.239 . S
C78 O71 1.256 . S
C79 O68 1.278 . S
C79 O74 1.241 . S
C80 O70 1.244 . S
C80 O75 1.256 . S
C81 O72 1.239 . S
C81 O73 1.256 . S
O82 Mn64 2.221 . S
O82 Mn66 2.290 . S
O82 C76 1.278 . S
O83 Mn66 2.251 . S
O83 C76 1.241 . S
C84 C85 1.391 1_556 S
C84 C86 1.394 . S
C84 H100 0.931 . S
C85 C84 1.391 1_554 S
C85 C89 1.376 . S
C86 C84 1.394 . S
C86 C87 1.369 1_556 S
C86 C90 1.531 . S
C87 C86 1.369 1_554 S
C87 C88 1.410 . S
C87 C95 1.503 . S
C88 C87 1.410 . S
C88 C89 1.392 . S
C88 C91 1.511 . S
C89 C85 1.376 . S
C89 C88 1.392 . S
C89 H101 0.929 . S
C90 C86 1.531 . S
C90 H102 0.960 . S
C90 H103 0.962 . S
C90 H104 0.960 . S
C91 C88 1.511 . S
C91 H105 0.961 . S
C91 H106 0.961 . S
C91 H107 0.961 . S
C92 C93 1.370 1_556 S
C92 C94 1.363 . S
C92 H108 0.931 . S
C93 C92 1.370 1_554 S
C93 C97 1.408 . S
C94 C92 1.363 . S
C94 C95 1.370 1_556 S
C94 C98 1.524 . S
C95 C87 1.503 . S
C95 C94 1.370 1_554 S
C95 C96 1.403 . S
C96 C95 1.403 . S
C96 C97 1.404 . S
C96 C99 1.539 . S
C97 C93 1.408 . S
C97 C96 1.404 . S
C97 H109 0.930 . S
C98 C94 1.524 . S
C98 H110 0.956 . S
C98 H111 0.961 . S
C98 H112 0.961 . S
C99 C96 1.539 . S
C99 H113 0.958 . S
C99 H114 0.961 . S
C99 H115 0.960 . S
H100 C84 0.931 . S
H101 C89 0.929 . S
H102 C90 0.960 . S
H103 C90 0.962 . S
H104 C90 0.960 . S
H105 C91 0.961 . S
H106 C91 0.961 . S
H107 C91 0.961 . S
H108 C92 0.931 . S
H109 C97 0.930 . S
H110 C98 0.956 . S
H111 C98 0.961 . S
H112 C98 0.961 . S
H113 C99 0.958 . S
H114 C99 0.961 . S
H115 C99 0.960 . S
C116 C117 1.391 1_556 S
C116 C118 1.394 . S
C116 H132 0.931 . S
C117 C116 1.391 1_554 S
C117 C121 1.376 . S
C118 C116 1.394 . S
C118 C119 1.369 1_556 S
C118 C122 1.531 . S
C119 C118 1.369 1_554 S
C119 C120 1.410 . S
C119 C127 1.503 . S
C120 C119 1.410 . S
C120 C121 1.392 . S
C120 C123 1.511 . S
C121 C117 1.376 . S
C121 C120 1.392 . S
C121 H133 0.929 . S
C122 C118 1.531 . S
C122 H134 0.960 . S
C122 H135 0.962 . S
C122 H136 0.960 . S
C123 C120 1.511 . S
C123 H137 0.961 . S
C123 H138 0.961 . S
C123 H139 0.961 . S
C124 C125 1.370 . S
C124 C126 1.363 . S
C124 H140 0.931 . S
C125 C124 1.370 . S
C125 C129 1.408 1_554 S
C126 C124 1.363 . S
C126 C127 1.370 . S
C126 C130 1.524 . S
C127 C119 1.503 . S
C127 C126 1.370 . S
C127 C128 1.403 1_554 S
C128 C127 1.403 1_556 S
C128 C129 1.404 . S
C128 C131 1.539 . S
C129 C125 1.408 1_556 S
C129 C128 1.404 . S
C129 H141 0.930 1_655 S
C130 C126 1.524 . S
C130 H142 0.956 . S
C130 H143 0.961 . S
C130 H144 0.961 . S
C131 C128 1.539 . S
C131 H145 0.958 . S
C131 H146 0.961 1_655 S
C131 H147 0.960 . S
H132 C116 0.931 . S
H133 C121 0.929 . S
H134 C122 0.960 . S
H135 C122 0.962 . S
H136 C122 0.960 . S
H137 C123 0.961 . S
H138 C123 0.961 . S
H139 C123 0.961 . S
H140 C124 0.931 . S
H141 C129 0.930 1_455 S
H142 C130 0.956 . S
H143 C130 0.961 . S
H144 C130 0.961 . S
H145 C131 0.958 . S
H146 C131 0.961 1_455 S
H147 C131 0.960 . S
C148 C149 1.391 . S
C148 C150 1.394 . S
C148 H164 0.931 . S
C149 C148 1.391 . S
C149 C153 1.376 . S
C150 C148 1.394 . S
C150 C151 1.369 . S
C150 C154 1.531 . S
C151 C150 1.369 . S
C151 C152 1.410 . S
C151 C159 1.503 . S
C152 C151 1.410 . S
C152 C153 1.392 . S
C152 C155 1.511 . S
C153 C149 1.376 . S
C153 C152 1.392 . S
C153 H165 0.929 . S
C154 C150 1.531 . S
C154 H166 0.960 . S
C154 H167 0.962 . S
C154 H168 0.960 . S
C155 C152 1.511 . S
C155 H169 0.961 . S
C155 H170 0.961 . S
C155 H171 0.961 . S
C156 C157 1.370 . S
C156 C158 1.363 . S
C156 H172 0.931 . S
C157 C156 1.370 . S
C157 C161 1.408 . S
C158 C156 1.363 . S
C158 C159 1.370 . S
C158 C162 1.524 . S
C159 C151 1.503 . S
C159 C158 1.370 . S
C159 C160 1.403 . S
C160 C159 1.403 . S
C160 C161 1.404 . S
C160 C163 1.539 . S
C161 C157 1.408 . S
C161 C160 1.404 . S
C161 H173 0.930 . S
C162 C158 1.524 . S
C162 H174 0.956 . S
C162 H175 0.961 . S
C162 H176 0.961 . S
C163 C160 1.539 . S
C163 H177 0.958 . S
C163 H178 0.961 . S
C163 H179 0.960 . S
H164 C148 0.931 . S
H165 C153 0.929 . S
H166 C154 0.960 . S
H167 C154 0.962 . S
H168 C154 0.960 . S
H169 C155 0.961 . S
H170 C155 0.961 . S
H171 C155 0.961 . S
H172 C156 0.931 . S
H173 C161 0.930 . S
H174 C162 0.956 . S
H175 C162 0.961 . S
H176 C162 0.961 . S
H177 C163 0.958 . S
H178 C163 0.961 . S
H179 C163 0.960 . S
C180 C181 1.391 . S
C180 C182 1.394 . S
C180 H196 0.931 . S
C181 C180 1.391 . S
C181 C185 1.376 . S
C182 C180 1.394 . S
C182 C183 1.369 . S
C182 C186 1.531 . S
C183 C182 1.369 . S
C183 C184 1.410 . S
C183 C191 1.503 . S
C184 C183 1.410 . S
C184 C185 1.392 . S
C184 C187 1.511 . S
C185 C181 1.376 . S
C185 C184 1.392 . S
C185 H197 0.929 . S
C186 C182 1.531 . S
C186 H198 0.960 . S
C186 H199 0.962 . S
C186 H200 0.960 . S
C187 C184 1.511 . S
C187 H201 0.961 . S
C187 H202 0.961 . S
C187 H203 0.961 . S
C188 C189 1.370 . S
C188 C190 1.363 . S
C188 H204 0.931 . S
C189 C188 1.370 . S
C189 C193 1.408 . S
C190 C188 1.363 . S
C190 C191 1.370 . S
C190 C194 1.524 . S
C191 C183 1.503 . S
C191 C190 1.370 . S
C191 C192 1.403 . S
C192 C191 1.403 . S
C192 C193 1.404 . S
C192 C195 1.539 . S
C193 C189 1.408 . S
C193 C192 1.404 . S
C193 H205 0.930 . S
C194 C190 1.524 . S
C194 H206 0.956 . S
C194 H207 0.961 . S
C194 H208 0.961 . S
C195 C192 1.539 . S
C195 H209 0.958 . S
C195 H210 0.961 . S
C195 H211 0.960 . S
H196 C180 0.931 . S
H197 C185 0.929 . S
H198 C186 0.960 . S
H199 C186 0.962 . S
H200 C186 0.960 . S
H201 C187 0.961 . S
H202 C187 0.961 . S
H203 C187 0.961 . S
H204 C188 0.931 . S
H205 C193 0.930 . S
H206 C194 0.956 . S
H207 C194 0.961 . S
H208 C194 0.961 . S
H209 C195 0.958 . S
H210 C195 0.961 . S
H211 C195 0.960 . S
C212 C213 1.391 . S
C212 C214 1.394 . S
C212 H228 0.931 . S
C213 C212 1.391 . S
C213 C217 1.376 1_544 S
C214 C212 1.394 . S
C214 C215 1.369 . S
C214 C218 1.531 . S
C215 C214 1.369 . S
C215 C216 1.410 1_544 S
C215 C223 1.501 1_545 S
C216 C215 1.410 1_566 S
C216 C217 1.392 . S
C216 C219 1.511 . S
C217 C213 1.376 1_566 S
C217 C216 1.392 . S
C217 H229 0.929 . S
C218 C214 1.531 . S
C218 H230 0.960 . S
C218 H231 0.962 . S
C218 H232 0.960 . S
C219 C216 1.511 . S
C219 H233 0.961 . S
C219 H234 0.961 . S
C219 H235 0.961 . S
C220 C221 1.370 1_546 S
C220 C222 1.363 . S
C220 H236 0.931 . S
C221 C220 1.370 1_564 S
C221 C225 1.408 . S
C222 C220 1.363 . S
C222 C223 1.356 1_546 S
C222 C226 1.524 . S
C223 C215 1.501 1_565 S
C223 C222 1.356 1_564 S
C223 C224 1.419 . S
C224 C223 1.419 . S
C224 C225 1.404 . S
C224 C227 1.539 . S
C225 C221 1.408 . S
C225 C224 1.404 . S
C225 H237 0.930 . S
C226 C222 1.524 . S
C226 H238 0.956 . S
C226 H239 0.961 . S
C226 H240 0.961 . S
C227 C224 1.539 . S
C227 H241 0.958 . S
C227 H242 0.961 . S
C227 H243 0.960 . S
H228 C212 0.931 . S
H229 C217 0.929 . S
H230 C218 0.960 . S
H231 C218 0.962 . S
H232 C218 0.960 . S
H233 C219 0.961 . S
H234 C219 0.961 . S
H235 C219 0.961 . S
H236 C220 0.931 . S
H237 C225 0.930 . S
H238 C226 0.956 . S
H239 C226 0.961 . S
H240 C226 0.961 . S
H241 C227 0.958 . S
H242 C227 0.961 . S
H243 C227 0.960 . S
C244 C245 1.391 . S
C244 C246 1.394 . S
C244 H260 0.931 . S
C245 C244 1.391 . S
C245 C249 1.376 1_565 S
C246 C244 1.394 . S
C246 C247 1.369 1_565 S
C246 C250 1.531 . S
C247 C246 1.369 1_545 S
C247 C248 1.410 . S
C247 C255 1.503 . S
C248 C247 1.410 . S
C248 C249 1.392 . S
C248 C251 1.511 . S
C249 C245 1.376 1_545 S
C249 C248 1.392 . S
C249 H261 0.929 . S
C250 C246 1.531 . S
C250 H262 0.960 . S
C250 H263 0.962 . S
C250 H264 0.960 . S
C251 C248 1.511 . S
C251 H265 0.961 . S
C251 H266 0.961 . S
C251 H267 0.961 . S
C252 C253 1.363 1_565 S
C252 C254 1.364 . S
C252 H268 0.937 . S
C253 C252 1.363 1_545 S
C253 C257 1.408 . S
C254 C252 1.364 . S
C254 C255 1.370 1_565 S
C254 C258 1.524 . S
C255 C247 1.503 . S
C255 C254 1.370 1_545 S
C255 C256 1.403 . S
C256 C255 1.403 . S
C256 C257 1.404 . S
C256 C259 1.539 . S
C257 C253 1.408 . S
C257 C256 1.404 . S
C257 H269 0.930 . S
C258 C254 1.524 . S
C258 H270 0.956 . S
C258 H271 0.961 . S
C258 H272 0.961 . S
C259 C256 1.539 . S
C259 H273 0.958 . S
C259 H274 0.961 . S
C259 H275 0.960 . S
H260 C244 0.931 . S
H261 C249 0.929 . S
H262 C250 0.960 . S
H263 C250 0.962 . S
H264 C250 0.960 . S
H265 C251 0.961 . S
H266 C251 0.961 . S
H267 C251 0.961 . S
H268 C252 0.937 . S
H269 C257 0.930 . S
H270 C258 0.956 . S
H271 C258 0.961 . S
H272 C258 0.961 . S
H273 C259 0.958 . S
H274 C259 0.961 . S
H275 C259 0.960 . S
C276 C277 1.391 . S
C276 C278 1.394 . S
C276 H292 0.931 . S
C277 C276 1.391 . S
C277 C281 1.376 1_554 S
C278 C276 1.394 . S
C278 C279 1.369 . S
C278 C282 1.531 1_655 S
C279 C278 1.369 . S
C279 C280 1.410 1_554 S
C279 C287 1.503 1_655 S
C280 C279 1.410 1_556 S
C280 C281 1.392 . S
C280 C283 1.511 . S
C281 C277 1.376 1_556 S
C281 C280 1.392 . S
C281 H293 0.929 . S
C282 C278 1.531 1_455 S
C282 H294 0.960 . S
C282 H295 0.962 . S
C282 H296 0.960 . S
C283 C280 1.511 . S
C283 H297 0.961 . S
C283 H298 0.961 1_655 S
C283 H299 0.961 . S
C284 C285 1.370 1_556 S
C284 C286 1.366 . S
C284 H300 0.931 . S
C285 C284 1.370 1_554 S
C285 C289 1.408 . S
C286 C284 1.366 . S
C286 C287 1.366 1_556 S
C286 C290 1.526 . S
C287 C279 1.503 1_455 S
C287 C286 1.366 1_554 S
C287 C288 1.403 . S
C288 C287 1.403 . S
C288 C289 1.404 . S
C288 C291 1.539 . S
C289 C285 1.408 . S
C289 C288 1.404 . S
C289 H301 0.930 . S
C290 C286 1.526 . S
C290 H302 0.956 1_556 S
C290 H303 0.961 . S
C290 H304 0.961 . S
C291 C288 1.539 . S
C291 H305 0.958 . S
C291 H306 0.961 . S
C291 H307 0.960 . S
H292 C276 0.931 . S
H293 C281 0.929 . S
H294 C282 0.960 . S
H295 C282 0.962 . S
H296 C282 0.960 . S
H297 C283 0.961 . S
H298 C283 0.961 1_455 S
H299 C283 0.961 . S
H300 C284 0.931 . S
H301 C289 0.930 . S
H302 C290 0.956 1_554 S
H303 C290 0.961 . S
H304 C290 0.961 . S
H305 C291 0.958 . S
H306 C291 0.961 . S
H307 C291 0.960 . S
C308 C309 1.391 . S
C308 C310 1.394 . S
C308 H324 0.931 . S
C309 C308 1.391 . S
C309 C313 1.376 . S
C310 C308 1.394 . S
C310 C311 1.369 . S
C310 C314 1.531 1_455 S
C311 C310 1.369 . S
C311 C312 1.410 . S
C311 C319 1.503 1_455 S
C312 C311 1.410 . S
C312 C313 1.392 . S
C312 C315 1.511 . S
C313 C309 1.376 . S
C313 C312 1.392 . S
C313 H325 0.929 . S
C314 C310 1.531 1_655 S
C314 H326 0.960 . S
C314 H327 0.962 . S
C314 H328 0.960 1_655 S
C315 C312 1.511 . S
C315 H329 0.961 . S
C315 H330 0.961 . S
C315 H331 0.961 . S
C316 C317 1.370 . S
C316 C318 1.363 . S
C316 H332 0.931 . S
C317 C316 1.370 . S
C317 C321 1.408 . S
C318 C316 1.363 . S
C318 C319 1.370 . S
C318 C322 1.524 . S
C319 C311 1.503 1_655 S
C319 C318 1.370 . S
C319 C320 1.403 . S
C320 C319 1.403 . S
C320 C321 1.404 . S
C320 C323 1.539 . S
C321 C317 1.408 . S
C321 C320 1.404 . S
C321 H333 0.930 . S
C322 C318 1.524 . S
C322 H334 0.956 . S
C322 H335 0.961 1_655 S
C322 H336 0.961 . S
C323 C320 1.539 . S
C323 H337 0.958 . S
C323 H338 0.961 . S
C323 H339 0.960 1_655 S
H324 C308 0.931 . S
H325 C313 0.929 . S
H326 C314 0.960 . S
H327 C314 0.962 . S
H328 C314 0.960 1_455 S
H329 C315 0.961 . S
H330 C315 0.961 . S
H331 C315 0.961 . S
H332 C316 0.931 . S
H333 C321 0.930 . S
H334 C322 0.956 . S
H335 C322 0.961 1_455 S
H336 C322 0.961 . S
H337 C323 0.958 . S
H338 C323 0.961 . S
H339 C323 0.960 1_455 S
C340 C341 1.391 1_655 S
C340 C342 1.394 . S
C340 H356 0.931 . S
C341 C340 1.391 1_455 S
C341 C345 1.376 1_545 S
C342 C340 1.394 . S
C342 C343 1.369 1_655 S
C342 C346 1.531 . S
C343 C342 1.369 1_455 S
C343 C344 1.410 1_545 S
C343 C351 1.503 . S
C344 C343 1.410 1_565 S
C344 C345 1.392 . S
C344 C347 1.511 . S
C345 C341 1.376 1_565 S
C345 C344 1.392 . S
C345 H357 0.929 . S
C346 C342 1.531 . S
C346 H358 0.960 . S
C346 H359 0.962 . S
C346 H360 0.960 . S
C347 C344 1.511 . S
C347 H361 0.961 . S
C347 H362 0.961 . S
C347 H363 0.961 . S
C348 C349 1.370 1_665 S
C348 C350 1.363 . S
C348 H364 0.931 . S
C349 C348 1.370 1_445 S
C349 C353 1.408 . S
C350 C348 1.363 . S
C350 C351 1.370 1_665 S
C350 C354 1.524 . S
C351 C343 1.503 . S
C351 C350 1.370 1_445 S
C351 C352 1.403 . S
C352 C351 1.403 . S
C352 C353 1.404 . S
C352 C355 1.539 . S
C353 C349 1.408 . S
C353 C352 1.404 . S
C353 H365 0.930 . S
C354 C350 1.524 . S
C354 H366 0.956 . S
C354 H367 0.961 . S
C354 H368 0.961 . S
C355 C352 1.539 . S
C355 H369 0.958 . S
C355 H370 0.961 . S
C355 H371 0.960 . S
H356 C340 0.931 . S
H357 C345 0.929 . S
H358 C346 0.960 . S
H359 C346 0.962 . S
H360 C346 0.960 . S
H361 C347 0.961 . S
H362 C347 0.961 . S
H363 C347 0.961 . S
H364 C348 0.931 . S
H365 C353 0.930 . S
H366 C354 0.956 . S
H367 C354 0.961 . S
H368 C354 0.961 . S
H369 C355 0.958 . S
H370 C355 0.961 . S
H371 C355 0.960 . S
C372 C373 1.391 . S
C372 C374 1.394 . S
C372 H388 0.931 . S
C373 C372 1.391 . S
C373 C377 1.376 1_465 S
C374 C372 1.394 . S
C374 C375 1.369 . S
C374 C378 1.531 . S
C375 C374 1.369 . S
C375 C376 1.410 1_465 S
C375 C383 1.503 . S
C376 C375 1.410 1_645 S
C376 C377 1.392 . S
C376 C379 1.511 . S
C377 C373 1.376 1_645 S
C377 C376 1.392 . S
C377 H389 0.929 . S
C378 C374 1.531 . S
C378 H390 0.960 . S
C378 H391 0.962 . S
C378 H392 0.960 . S
C379 C376 1.511 . S
C379 H393 0.961 . S
C379 H394 0.961 . S
C379 H395 0.961 . S
C380 C381 1.370 1_545 S
C380 C382 1.363 . S
C380 H396 0.931 . S
C381 C380 1.370 1_565 S
C381 C385 1.408 1_455 S
C382 C380 1.363 . S
C382 C383 1.370 1_545 S
C382 C386 1.524 . S
C383 C375 1.503 . S
C383 C382 1.370 1_565 S
C383 C384 1.403 1_455 S
C384 C383 1.403 1_655 S
C384 C385 1.404 . S
C384 C387 1.539 . S
C385 C381 1.408 1_655 S
C385 C384 1.404 . S
C385 H397 0.930 . S
C386 C382 1.524 . S
C386 H398 0.956 . S
C386 H399 0.961 . S
C386 H400 0.961 . S
C387 C384 1.539 . S
C387 H401 0.958 . S
C387 H402 0.961 . S
C387 H403 0.960 . S
H388 C372 0.931 . S
H389 C377 0.929 . S
H390 C378 0.960 . S
H391 C378 0.962 . S
H392 C378 0.960 . S
H393 C379 0.961 . S
H394 C379 0.961 . S
H395 C379 0.961 . S
H396 C380 0.931 . S
H397 C385 0.930 . S
H398 C386 0.956 . S
H399 C386 0.961 . S
H400 C386 0.961 . S
H401 C387 0.958 . S
H402 C387 0.961 . S
H403 C387 0.960 . S
C404 C405 1.391 . S
C404 C406 1.394 . S
C404 H420 0.931 . S
C405 C404 1.391 . S
C405 C409 1.376 . S
C406 C404 1.394 . S
C406 C407 1.369 . S
C406 C410 1.531 . S
C407 C406 1.369 . S
C407 C408 1.410 . S
C407 C415 1.503 . S
C408 C407 1.410 . S
C408 C409 1.392 . S
C408 C411 1.511 . S
C409 C405 1.376 . S
C409 C408 1.392 . S
C409 H421 0.929 . S
C410 C406 1.531 . S
C410 H422 0.960 . S
C410 H423 0.962 . S
C410 H424 0.960 . S
C411 C408 1.511 . S
C411 H425 0.961 . S
C411 H426 0.961 . S
C411 H427 0.961 . S
C412 C413 1.370 . S
C412 C414 1.363 . S
C412 H428 0.931 . S
C413 C412 1.370 . S
C413 C417 1.408 . S
C414 C412 1.363 . S
C414 C415 1.370 . S
C414 C418 1.524 . S
C415 C407 1.503 . S
C415 C414 1.370 . S
C415 C416 1.403 . S
C416 C415 1.403 . S
C416 C417 1.404 . S
C416 C419 1.539 . S
C417 C413 1.408 . S
C417 C416 1.404 . S
C417 H429 0.930 . S
C418 C414 1.524 . S
C418 H430 0.956 . S
C418 H431 0.961 . S
C418 H432 0.961 . S
C419 C416 1.539 . S
C419 H433 0.958 . S
C419 H434 0.961 . S
C419 H435 0.960 . S
H420 C404 0.931 . S
H421 C409 0.929 . S
H422 C410 0.960 . S
H423 C410 0.962 . S
H424 C410 0.960 . S
H425 C411 0.961 . S
H426 C411 0.961 . S
H427 C411 0.961 . S
H428 C412 0.931 . S
H429 C417 0.930 . S
H430 C418 0.956 . S
H431 C418 0.961 . S
H432 C418 0.961 . S
H433 C419 0.958 . S
H434 C419 0.961 . S
H435 C419 0.960 . S
C436 C437 1.391 . S
C436 C438 1.394 . S
C436 H452 0.931 . S
C437 C436 1.391 . S
C437 C441 1.376 . S
C438 C436 1.394 . S
C438 C439 1.369 . S
C438 C442 1.531 . S
C439 C438 1.369 . S
C439 C440 1.410 . S
C439 C447 1.503 . S
C440 C439 1.410 . S
C440 C441 1.392 . S
C440 C443 1.511 . S
C441 C437 1.376 . S
C441 C440 1.392 . S
C441 H453 0.929 . S
C442 C438 1.531 . S
C442 H454 0.960 . S
C442 H455 0.962 . S
C442 H456 0.960 . S
C443 C440 1.511 . S
C443 H457 0.961 . S
C443 H458 0.961 . S
C443 H459 0.961 . S
C444 C445 1.370 . S
C444 C446 1.363 . S
C444 H460 0.931 . S
C445 C444 1.370 . S
C445 C449 1.408 . S
C446 C444 1.363 . S
C446 C447 1.370 . S
C446 C450 1.524 . S
C447 C439 1.503 . S
C447 C446 1.370 . S
C447 C448 1.403 . S
C448 C447 1.403 . S
C448 C449 1.404 . S
C448 C451 1.539 . S
C449 C445 1.408 . S
C449 C448 1.404 . S
C449 H461 0.930 . S
C450 C446 1.524 . S
C450 H462 0.956 . S
C450 H463 0.961 . S
C450 H464 0.961 . S
C451 C448 1.539 . S
C451 H465 0.958 . S
C451 H466 0.961 . S
C451 H467 0.960 . S
H452 C436 0.931 . S
H453 C441 0.929 . S
H454 C442 0.960 . S
H455 C442 0.962 . S
H456 C442 0.960 . S
H457 C443 0.961 . S
H458 C443 0.961 . S
H459 C443 0.961 . S
H460 C444 0.931 . S
H461 C449 0.930 . S
H462 C450 0.956 . S
H463 C450 0.961 . S
H464 C450 0.961 . S
H465 C451 0.958 . S
H466 C451 0.961 . S
H467 C451 0.960 . S
C85 C57 1.462 . S
C93 C14 1.482 . S
C117 C56 1.482 . S
C125 C15 1.479 . S
C149 C39 1.427 . S
C157 C80 1.500 . S
C181 C38 1.445 . S
C189 C81 1.488 . S
C213 C18 0.843 . S
C221 C17 0.935 1_554 S
C245 C35 0.921 . S
C253 C36 0.914 . S
C277 C60 0.844 . S
C285 C59 0.932 1_554 S
C309 C78 0.843 . S
C317 C77 0.933 . S
C341 C37 1.339 1_445 S
C349 C13 1.286 1_545 S
C373 C16 1.305 1_465 S
C381 C34 1.334 1_565 S
C405 C79 1.334 . S
C413 C55 1.290 . S
C437 C76 1.308 . S
C445 C58 1.286 . S
