# Generated by pormake.
# Topology unn, (4)-cn, num edge types: 1
# Building blocks:
#     Node 0, Type 0, BuildingBlock: ICAMEG_clean_sbu_1, # of connection points: 4
#     Node 1, Type 0, BuildingBlock: ICAMEG_clean_sbu_1, # of connection points: 4
#     Node 2, Type 0, BuildingBlock: ICAMEG_clean_sbu_1, # of connection points: 4
#     Node 3, Type 0, BuildingBlock: ICAMEG_clean_sbu_1, # of connection points: 4
#     Node 4, Type 0, BuildingBlock: ICAMEG_clean_sbu_1, # of connection points: 4
#     Node 5, Type 0, BuildingBlock: ICAMEG_clean_sbu_1, # of connection points: 4
#     Node 6, Type 0, BuildingBlock: ICAMEG_clean_sbu_1, # of connection points: 4
#     Node 7, Type 0, BuildingBlock: ICAMEG_clean_sbu_1, # of connection points: 4
#     Node 8, Type 0, BuildingBlock: ICAMEG_clean_sbu_1, # of connection points: 4
#     Node 9, Type 0, BuildingBlock: ICAMEG_clean_sbu_1, # of connection points: 4
#     Node 10, Type 0, BuildingBlock: ICAMEG_clean_sbu_1, # of connection points: 4
#     Node 11, Type 0, BuildingBlock: ICAMEG_clean_sbu_1, # of connection points: 4
#     Node 12, Type 0, BuildingBlock: ICAMEG_clean_sbu_1, # of connection points: 4
#     Node 13, Type 0, BuildingBlock: ICAMEG_clean_sbu_1, # of connection points: 4
#     Node 14, Type 0, BuildingBlock: ICAMEG_clean_sbu_1, # of connection points: 4
#     Node 15, Type 0, BuildingBlock: ICAMEG_clean_sbu_1, # of connection points: 4
#     Node 16, Type 0, BuildingBlock: ICAMEG_clean_sbu_1, # of connection points: 4
#     Node 17, Type 0, BuildingBlock: ICAMEG_clean_sbu_1, # of connection points: 4
#     Edge 18, Type (0, 0), BuildingBlock: OJICUG_clean_linker_0, # of connection points: 2
#     Edge 19, Type (0, 0), BuildingBlock: OJICUG_clean_linker_0, # of connection points: 2
#     Edge 20, Type (0, 0), BuildingBlock: OJICUG_clean_linker_0, # of connection points: 2
#     Edge 21, Type (0, 0), BuildingBlock: OJICUG_clean_linker_0, # of connection points: 2
#     Edge 22, Type (0, 0), BuildingBlock: OJICUG_clean_linker_0, # of connection points: 2
#     Edge 23, Type (0, 0), BuildingBlock: OJICUG_clean_linker_0, # of connection points: 2
#     Edge 24, Type (0, 0), BuildingBlock: OJICUG_clean_linker_0, # of connection points: 2
#     Edge 25, Type (0, 0), BuildingBlock: OJICUG_clean_linker_0, # of connection points: 2
#     Edge 26, Type (0, 0), BuildingBlock: OJICUG_clean_linker_0, # of connection points: 2
#     Edge 27, Type (0, 0), BuildingBlock: OJICUG_clean_linker_0, # of connection points: 2
#     Edge 28, Type (0, 0), BuildingBlock: OJICUG_clean_linker_0, # of connection points: 2
#     Edge 29, Type (0, 0), BuildingBlock: OJICUG_clean_linker_0, # of connection points: 2
#     Edge 30, Type (0, 0), BuildingBlock: OJICUG_clean_linker_0, # of connection points: 2
#     Edge 31, Type (0, 0), BuildingBlock: OJICUG_clean_linker_0, # of connection points: 2
#     Edge 32, Type (0, 0), BuildingBlock: OJICUG_clean_linker_0, # of connection points: 2
#     Edge 33, Type (0, 0), BuildingBlock: OJICUG_clean_linker_0, # of connection points: 2
#     Edge 34, Type (0, 0), BuildingBlock: OJICUG_clean_linker_0, # of connection points: 2
#     Edge 35, Type (0, 0), BuildingBlock: OJICUG_clean_linker_0, # of connection points: 2
#     Edge 36, Type (0, 0), BuildingBlock: OJICUG_clean_linker_0, # of connection points: 2
#     Edge 37, Type (0, 0), BuildingBlock: OJICUG_clean_linker_0, # of connection points: 2
#     Edge 38, Type (0, 0), BuildingBlock: OJICUG_clean_linker_0, # of connection points: 2
#     Edge 39, Type (0, 0), BuildingBlock: OJICUG_clean_linker_0, # of connection points: 2
#     Edge 40, Type (0, 0), BuildingBlock: OJICUG_clean_linker_0, # of connection points: 2
#     Edge 41, Type (0, 0), BuildingBlock: OJICUG_clean_linker_0, # of connection points: 2
#     Edge 42, Type (0, 0), BuildingBlock: OJICUG_clean_linker_0, # of connection points: 2
#     Edge 43, Type (0, 0), BuildingBlock: OJICUG_clean_linker_0, # of connection points: 2
#     Edge 44, Type (0, 0), BuildingBlock: OJICUG_clean_linker_0, # of connection points: 2
#     Edge 45, Type (0, 0), BuildingBlock: OJICUG_clean_linker_0, # of connection points: 2
#     Edge 46, Type (0, 0), BuildingBlock: OJICUG_clean_linker_0, # of connection points: 2
#     Edge 47, Type (0, 0), BuildingBlock: OJICUG_clean_linker_0, # of connection points: 2
#     Edge 48, Type (0, 0), BuildingBlock: OJICUG_clean_linker_0, # of connection points: 2
#     Edge 49, Type (0, 0), BuildingBlock: OJICUG_clean_linker_0, # of connection points: 2
#     Edge 50, Type (0, 0), BuildingBlock: OJICUG_clean_linker_0, # of connection points: 2
#     Edge 51, Type (0, 0), BuildingBlock: OJICUG_clean_linker_0, # of connection points: 2
#     Edge 52, Type (0, 0), BuildingBlock: OJICUG_clean_linker_0, # of connection points: 2
#     Edge 53, Type (0, 0), BuildingBlock: OJICUG_clean_linker_0, # of connection points: 2
# Relax obj value: 0.111
# Max RMSD: 0.214
# Mean RMSD: 0.165
data_MOF--net-unn--node1-ICAMEG_clean_sbu_1--edge1-OJICUG_clean_linker_0
_symmetry_space_group_name_H-M    P1
_symmetry_Int_Tables_number       1
_symmetry_cell_setting            triclinic
loop_
_symmetry_equiv_pos_as_xyz
'x, y, z'
_cell_length_a     35.711345
_cell_length_b     35.651891
_cell_length_c     30.484729
_cell_angle_alpha  90.383449
_cell_angle_beta   90.675371
_cell_angle_gamma 120.11645
loop_
_atom_site_label
_atom_site_type_symbol
_atom_site_fract_x
_atom_site_fract_y
_atom_site_fract_z
_atom_type_partial_charge
Co0 Co 0.05387 0.73277 0.26099 0.0
Co1 Co 0.08808 0.8381 0.2347 0.0
O2 O 0.08381 0.79404 0.27351 0.0
C3 C 1.0161 0.74382 0.34085 0.0
O4 O 1.00493 0.76726 0.31706 0.0
C5 C 0.1784 0.86298 0.25933 0.0
O6 O 0.16875 0.82482 0.2434 0.0
O7 O 0.10703 0.81451 0.18596 0.0
O8 O 0.07263 0.74251 0.19853 0.0
H9 H 0.0702 0.89864 0.09273 0.0
H10 H 0.11599 0.77011 0.33642 0.0
O11 O 0.03439 0.72462 0.32336 0.0
H12 H 0.17197 0.69639 0.24312 0.0
H13 H 1.00312 0.57826 0.30161 0.0
H14 H 1.00012 0.67416 0.18762 0.0
H15 H 0.10453 0.69561 0.22255 0.0
H16 H 0.04174 0.65761 0.3133 0.0
O17 O 0.15038 0.8754 0.25653 0.0
H18 H 0.0617 0.84077 0.14266 0.0
H19 H 0.12784 0.9337 0.24449 0.0
H20 H 0.96137 0.59514 0.17432 0.0
H21 H 0.18332 0.77148 0.3584 0.0
H22 H 0.96272 0.54657 0.2316 0.0
H23 H 0.21181 0.73451 0.31152 0.0
O24 O 1.00098 0.7332 0.24089 0.0
H25 H 0.08565 0.88423 0.39037 0.0
H26 H 0.02097 0.86391 0.24209 0.0
H27 H 0.9934 0.88918 0.30254 0.0
H28 H 0.02581 0.89949 0.37731 0.0
H29 H 0.11205 0.8588 0.32909 0.0
H30 H 0.13702 0.99263 0.19572 0.0
H31 H 0.10817 0.97521 0.1192 0.0
O32 O 0.02574 0.79986 0.21302 0.0
C33 C 0.09342 0.77535 0.1739 0.0
C34 C 0.08286 0.90663 0.12602 0.0
C35 C 0.12032 0.95939 0.18383 0.0
N36 N 0.09411 0.8839 0.19644 0.0
C37 C 0.07809 0.87401 0.15444 0.0
C38 C 0.11496 0.92591 0.21131 0.0
C39 C 0.10417 0.94959 0.14089 0.0
C40 C 0.12776 0.75335 0.31624 0.0
N41 N 0.106 0.73226 0.27859 0.0
C42 C 0.16609 0.7545 0.32868 0.0
C43 C 0.18212 0.73384 0.30231 0.0
C44 C 0.15979 0.71247 0.26391 0.0
C45 C 0.12163 0.71213 0.25243 0.0
C46 C 1.00236 0.59908 0.27636 0.0
C47 C 1.00116 0.65332 0.2125 0.0
C48 C 0.02408 0.64401 0.28283 0.0
N49 N 0.0235 0.67051 0.25098 0.0
C50 C 0.979 0.60855 0.20489 0.0
C51 C 0.97972 0.58132 0.23706 0.0
C52 C 0.99552 0.76041 0.21868 0.0
C53 C 0.07141 0.88007 0.35789 0.0
C54 C 0.03527 0.86839 0.27453 0.0
C55 C 1.01956 0.88274 0.30861 0.0
C56 C 0.03778 0.88854 0.35055 0.0
N57 N 0.06832 0.86024 0.28196 0.0
C58 C 0.08638 0.86589 0.32299 0.0
Co59 Co 0.31305 0.35265 0.25639 0.0
Co60 Co 0.23884 0.24484 0.24567 0.0
O61 O 0.28709 0.29786 0.22479 0.0
C62 C 0.29259 0.36861 0.16787 0.0
O63 O 0.25182 0.34257 0.17738 0.0
C64 C 0.30628 0.22279 0.21894 0.0
O65 O 0.33345 0.2554 0.24414 0.0
O66 O 0.27047 0.25124 0.30179 0.0
O67 O 0.30373 0.32335 0.3145 0.0
H68 H 0.12942 0.14907 0.35564 0.0
H69 H 0.36022 0.3376 0.1849 0.0
O70 O 0.32181 0.38076 0.19784 0.0
H71 H 0.45613 0.37772 0.31543 0.0
H72 H 0.41983 0.5121 0.27481 0.0
H73 H 0.29291 0.38552 0.33708 0.0
H74 H 0.38541 0.37402 0.3196 0.0
H75 H 0.38835 0.44005 0.23885 0.0
O76 O 0.2662 0.21217 0.21768 0.0
H77 H 0.18942 0.21767 0.32811 0.0
H78 H 0.1871 0.1555 0.20797 0.0
H79 H 0.32342 0.45674 0.3742 0.0
H80 H 0.43094 0.34167 0.17902 0.0
H81 H 0.3869 0.52074 0.34279 0.0
H82 H 0.47939 0.36167 0.24469 0.0
O83 O 0.25607 0.34872 0.26204 0.0
H84 H 0.22465 0.2487 0.08178 0.0
H85 H 0.14875 0.22286 0.22215 0.0
H86 H 0.10887 0.21432 0.15268 0.0
H87 H 0.14701 0.22787 0.08191 0.0
H88 H 0.26282 0.25527 0.15184 0.0
H89 H 0.12742 0.08608 0.23437 0.0
H90 H 0.09803 0.08265 0.30862 0.0
O91 O 0.21104 0.27771 0.27331 0.0
C92 C 0.28992 0.28447 0.32708 0.0
C93 C 0.14182 0.1502 0.32316 0.0
C94 C 0.14074 0.11483 0.25512 0.0
N95 N 0.19141 0.19064 0.26634 0.0
C96 C 0.17567 0.18898 0.30734 0.0
C97 C 0.17461 0.15418 0.2404 0.0
C98 C 0.12426 0.11293 0.29678 0.0
C99 C 0.3815 0.34728 0.21334 0.0
N100 N 0.369 0.35634 0.25231 0.0
C101 C 0.42135 0.34912 0.20993 0.0
C102 C 0.44845 0.36021 0.24682 0.0
C103 C 0.43541 0.36919 0.28653 0.0
C104 C 0.39531 0.36699 0.2887 0.0
C105 C 0.39209 0.48444 0.2888 0.0
C106 C 0.32102 0.41306 0.32358 0.0
C107 C 0.37414 0.44362 0.26857 0.0
N108 N 0.33908 0.4086 0.28607 0.0
C109 C 0.33803 0.45336 0.34464 0.0
C110 C 0.37373 0.48926 0.327 0.0
C111 C 0.22005 0.31757 0.2748 0.0
C112 C 0.20763 0.24263 0.1124 0.0
C113 C 0.16542 0.22831 0.19143 0.0
C114 C 0.14271 0.2235 0.15222 0.0
C115 C 0.16411 0.23101 0.1125 0.0
N116 N 0.20793 0.23914 0.19103 0.0
C117 C 0.22908 0.24631 0.15219 0.0
Co118 Co 0.73627 0.03722 0.25949 0.0
Co119 Co 0.79351 0.9889 0.227 0.0
O120 O 0.76201 1.00163 0.26973 0.0
C121 C 0.7927 0.07487 0.33656 0.0
O122 O 0.82467 0.07919 0.31232 0.0
C123 C 0.72688 0.90328 0.26376 0.0
O124 O 0.69815 0.91434 0.25259 0.0
O125 O 0.74494 0.96968 0.18325 0.0
O126 O 0.71965 1.01499 0.19785 0.0
H127 H 0.85023 0.98684 0.07752 0.0
H128 H 0.71065 0.9801 0.33727 0.0
O129 O 0.75466 0.06008 0.32048 0.0
H130 H 0.57552 0.93325 0.25257 0.0
H131 H 0.65027 0.10672 0.30638 0.0
H132 H 0.73535 0.09291 0.1878 0.0
H133 H 0.64503 0.99298 0.22648 0.0
H134 H 0.68325 0.06072 0.31537 0.0
O135 O 0.76651 0.92787 0.25287 0.0
H136 H 0.81235 1.00624 0.13246 0.0
H137 H 0.84045 0.93969 0.23075 0.0
H138 H 0.70265 0.1389 0.17706 0.0
H139 H 0.64193 0.92051 0.36474 0.0
H140 H 0.65968 0.14601 0.2367 0.0
H141 H 0.57371 0.89668 0.32222 0.0
O142 O 0.79125 0.08483 0.23669 0.0
H143 H 0.85995 1.00032 0.37639 0.0
H144 H 0.88883 0.04852 0.22302 0.0
H145 H 0.94931 0.07685 0.27687 0.0
H146 H 0.93503 0.05273 0.35418 0.0
H147 H 0.80042 0.97313 0.32164 0.0
H148 H 0.87852 0.91941 0.17688 0.0
H149 H 0.88356 0.94303 0.09964 0.0
O150 O 0.82109 0.05044 0.20207 0.0
C151 C 0.72364 0.98843 0.17262 0.0
C152 C 0.84834 0.97644 0.1111 0.0
C153 C 0.86423 0.9386 0.16687 0.0
N154 N 0.82444 0.9743 0.18475 0.0
C155 C 0.82703 0.98742 0.14235 0.0
C156 C 0.84258 0.95011 0.19719 0.0
C157 C 0.86702 0.95185 0.12353 0.0
C158 C 0.68109 0.97025 0.31884 0.0
N159 N 0.68183 0.99027 0.28052 0.0
C160 C 0.64227 0.93632 0.33443 0.0
C161 C 0.60402 0.92291 0.31052 0.0
C162 C 0.60504 0.94338 0.2714 0.0
C163 C 0.64449 0.9771 0.25674 0.0
C164 C 0.66872 0.10372 0.28006 0.0
C165 C 0.71623 0.09536 0.21354 0.0
C166 C 0.6875 0.07775 0.28498 0.0
N167 N 0.71055 0.07352 0.25175 0.0
C168 C 0.69802 0.12169 0.20745 0.0
C169 C 0.674 0.12574 0.24096 0.0
C170 C 0.81877 0.08473 0.21044 0.0
C171 C 0.86662 1.0109 0.34275 0.0
C172 C 0.88237 0.03783 0.25658 0.0
C173 C 0.91675 0.05394 0.28692 0.0
C174 C 0.90872 0.04038 0.33029 0.0
N175 N 0.84117 1.00893 0.26905 0.0
C176 C 0.83306 0.99541 0.31151 0.0
Co177 Co 0.05888 0.33354 0.75975 0.0
Co178 Co 0.09155 0.26206 0.7298 0.0
O179 O 0.08769 0.30108 0.77059 0.0
C180 C 0.02047 0.2832 0.83806 0.0
O181 O 1.00868 0.24901 0.81283 0.0
C182 C 0.18175 0.32548 0.75707 0.0
O183 O 0.17321 0.35495 0.74237 0.0
O184 O 0.1125 0.30651 0.68344 0.0
O185 O 0.0776 0.34332 0.69724 0.0
H186 H 0.07473 0.18849 0.58382 0.0
H187 H 0.1207 0.35626 0.83504 0.0
O188 O 0.03928 0.32122 0.82197 0.0
H189 H 0.17909 0.48804 0.74575 0.0
H190 H 1.01099 0.43853 0.80537 0.0
H191 H 1.00578 0.34049 0.68765 0.0
H192 H 0.11102 0.42208 0.72377 0.0
H193 H 0.04829 0.39656 0.81469 0.0
O194 O 0.15317 0.28519 0.75257 0.0
H195 H 0.06653 0.23663 0.63649 0.0
H196 H 0.12898 0.20424 0.73625 0.0
H197 H 0.96833 0.38202 0.67671 0.0
H198 H 0.18864 0.42149 0.85841 0.0
H199 H 0.97081 0.43153 0.73587 0.0
H200 H 0.21834 0.48799 0.81355 0.0
O201 O 1.00548 0.28093 0.73847 0.0
H202 H 0.08455 0.20689 0.88257 0.0
H203 H 0.02254 0.16919 0.73252 0.0
H204 H 0.99266 0.11392 0.79014 0.0
H205 H 0.02372 0.13267 0.86579 0.0
H206 H 0.11327 0.26119 0.82407 0.0
H207 H 0.13789 0.1557 0.68469 0.0
H208 H 0.11073 0.14769 0.60783 0.0
O209 O 0.02994 0.24 0.70713 0.0
C210 C 0.09859 0.33177 0.67209 0.0
C211 C 0.08665 0.19166 0.61724 0.0
C212 C 0.12207 0.17322 0.67385 0.0
N213 N 0.09717 0.22309 0.68938 0.0
C214 C 0.08205 0.21882 0.64721 0.0
C215 C 0.1169 0.20069 0.7029 0.0
C216 C 0.10686 0.16878 0.63073 0.0
C217 C 0.133 0.38526 0.81576 0.0
N218 N 0.11157 0.38557 0.77845 0.0
C219 C 0.17168 0.42202 0.82898 0.0
C220 C 0.18838 0.45928 0.80373 0.0
C221 C 0.16639 0.45932 0.76567 0.0
C222 C 0.12788 0.4219 0.75339 0.0
C223 C 1.00977 0.41716 0.7793 0.0
C224 C 1.00732 0.36219 0.71335 0.0
C225 C 0.03074 0.39326 0.78443 0.0
N226 N 0.02957 0.36643 0.75155 0.0
C227 C 0.9859 0.38551 0.70706 0.0
C228 C 0.98724 0.41323 0.74029 0.0
C229 C 0.99997 0.24928 0.71397 0.0
C230 C 0.07089 0.19826 0.84968 0.0
C231 C 0.03625 0.17755 0.76536 0.0
C232 C 1.01923 0.14612 0.79783 0.0
C233 C 0.0367 0.15665 0.84027 0.0
N234 N 0.06985 0.21826 0.77482 0.0
C235 C 0.08717 0.22882 0.81635 0.0
Co236 Co 0.7303 0.69743 0.76364 0.0
Co237 Co 0.785 0.80156 0.72766 0.0
O238 O 0.75503 0.75887 0.77137 0.0
C239 C 0.78926 0.72293 0.83969 0.0
O240 O 0.82052 0.74557 0.81235 0.0
C241 C 0.7165 0.81769 0.76336 0.0
O242 O 0.68864 0.77785 0.75068 0.0
O243 O 0.73625 0.76921 0.68484 0.0
O244 O 0.71166 0.69921 0.70164 0.0
H245 H 0.83942 0.85627 0.57688 0.0
H246 H 0.7051 0.73515 0.83707 0.0
O247 O 0.75051 0.69802 0.82562 0.0
H248 H 0.56867 0.63437 0.75973 0.0
H249 H 0.65115 0.54444 0.81841 0.0
H250 H 0.72688 0.63762 0.69323 0.0
H251 H 0.6383 0.64407 0.73421 0.0
H252 H 0.68221 0.62375 0.8238 0.0
O253 O 0.75641 0.83423 0.75293 0.0
H254 H 0.80414 0.8005 0.6334 0.0
H255 H 0.82764 0.89776 0.72855 0.0
H256 H 0.696 0.5585 0.68618 0.0
H257 H 0.63638 0.72616 0.86417 0.0
H258 H 0.65778 0.51133 0.7491 0.0
H259 H 0.56754 0.67575 0.82512 0.0
O260 O 0.78521 0.70505 0.73983 0.0
H261 H 0.85238 0.86213 0.87596 0.0
H262 H 0.88059 0.84089 0.72243 0.0
H263 H 0.94163 0.87631 0.77546 0.0
H264 H 0.92767 0.88704 0.85287 0.0
H265 H 0.79234 0.82677 0.82198 0.0
H266 H 0.86276 0.9546 0.67298 0.0
H267 H 0.86889 0.93394 0.59655 0.0
O268 O 0.81381 0.7683 0.7038 0.0
C269 C 0.71474 0.72863 0.67551 0.0
C270 C 0.83709 0.86569 0.61011 0.0
C271 C 0.85014 0.92088 0.66404 0.0
N272 N 0.8142 0.84596 0.68423 0.0
C273 C 0.81732 0.83428 0.64227 0.0
C274 C 0.83017 0.88858 0.69533 0.0
C275 C 0.85358 0.90926 0.62116 0.0
C276 C 0.67525 0.71228 0.82075 0.0
N277 N 0.6757 0.68942 0.78484 0.0
C278 C 0.63641 0.70764 0.8359 0.0
C279 C 0.5978 0.67941 0.81391 0.0
C280 C 0.59846 0.65629 0.77716 0.0
C281 C 0.63797 0.6619 0.76289 0.0
C282 C 0.66763 0.56463 0.79073 0.0
C283 C 0.70997 0.61727 0.72057 0.0
C284 C 0.68537 0.60954 0.79363 0.0
N285 N 0.70593 0.63518 0.75869 0.0
C286 C 0.69271 0.57251 0.71648 0.0
C287 C 0.67134 0.54607 0.75182 0.0
C288 C 0.81222 0.73225 0.71294 0.0
C289 C 0.85891 0.85787 0.84227 0.0
C290 C 0.8743 0.84565 0.75601 0.0
C291 C 0.90898 0.86572 0.78589 0.0
C292 C 0.90113 0.87175 0.82931 0.0
N293 N 0.83298 0.83211 0.76896 0.0
C294 C 0.82505 0.83806 0.81146 0.0
Co295 Co 0.31508 0.96333 0.7551 0.0
Co296 Co 0.24129 0.99714 0.74576 0.0
O297 O 0.28903 0.99193 0.72403 0.0
C298 C 0.29306 0.92521 0.66703 0.0
O299 O 0.2525 0.91096 0.67702 0.0
C300 C 0.30878 0.08652 0.71845 0.0
O301 O 0.33622 0.08122 0.7429 0.0
O302 O 0.27368 0.02305 0.80151 0.0
O303 O 0.3067 0.98416 0.81342 0.0
H304 H 0.13372 0.985 0.85766 0.0
H305 H 0.36171 0.02419 0.68287 0.0
O306 O 0.3227 0.94282 0.69654 0.0
H307 H 0.45929 0.0824 0.81219 0.0
H308 H 0.41968 0.90847 0.76948 0.0
H309 H 0.29561 0.91097 0.83563 0.0
H310 H 0.38834 1.01544 0.81734 0.0
H311 H 0.38974 0.95096 0.73606 0.0
O312 O 0.26862 0.05703 0.71778 0.0
H313 H 0.19297 0.97583 0.82889 0.0
H314 H 0.18966 0.03478 0.70942 0.0
H315 H 0.32455 0.86824 0.87018 0.0
H316 H 0.43261 0.09075 0.67602 0.0
H317 H 0.38609 0.86579 0.83632 0.0
H318 H 0.4819 0.12041 0.74107 0.0
O319 O 0.25811 0.91039 0.76142 0.0
H320 H 0.2248 0.9776 0.58192 0.0
H321 H 0.15056 0.9292 0.72319 0.0
H322 H 0.10941 0.89801 0.65406 0.0
H323 H 0.14672 0.9217 0.58284 0.0
H324 H 0.26418 1.00932 0.65166 0.0
H325 H 0.13071 0.04506 0.73707 0.0
H326 H 0.10221 0.01987 0.81161 0.0
O327 O 0.21346 0.93658 0.77342 0.0
C328 C 0.2931 1.00935 0.82641 0.0
C329 C 0.14574 0.99595 0.82505 0.0
C330 C 0.1441 0.02973 0.7574 0.0
N331 N 0.19441 1.00435 0.76738 0.0
C332 C 0.17916 0.99068 0.80853 0.0
C333 C 0.17755 0.02393 0.74197 0.0
C334 C 0.12811 1.01557 0.79922 0.0
C335 C 0.38331 0.03636 0.71107 0.0
N336 N 0.37116 1.01555 0.75027 0.0
C337 C 0.42328 0.0743 0.7071 0.0
C338 C 0.45086 0.09099 0.74364 0.0
C339 C 0.43818 0.06969 0.78356 0.0
C340 C 0.39795 0.03184 0.7863 0.0
C341 C 0.39262 0.90908 0.78437 0.0
C342 C 0.32318 0.91101 0.82137 0.0
C343 C 0.37558 0.93308 0.76562 0.0
N344 N 0.34116 0.93361 0.78405 0.0
C345 C 0.33928 0.88656 0.84095 0.0
C346 C 0.374 0.88538 0.82204 0.0
C347 C 0.22235 0.90569 0.77471 0.0
C348 C 0.20815 0.96701 0.61275 0.0
C349 C 0.16687 0.94004 0.69227 0.0
C350 C 0.14345 0.92223 0.65326 0.0
C351 C 0.16437 0.93562 0.61329 0.0
N352 N 0.20959 0.97134 0.69143 0.0
C353 C 0.23029 0.98482 0.65236 0.0
Co354 Co 0.70901 0.03689 0.58845 0.0
Co355 Co 0.75547 0.14729 0.5757 0.0
O356 O 0.73869 0.09624 0.61054 0.0
C357 C 0.65243 0.04341 0.65251 0.0
O358 O 0.65739 0.0767 0.62989 0.0
C359 C 0.83739 0.15851 0.61424 0.0
O360 O 0.82412 0.11906 0.59956 0.0
O361 O 0.77848 0.12574 0.52935 0.0
O362 O 0.74835 0.05354 0.53731 0.0
H363 H 0.76555 0.2288 0.43848 0.0
H364 H 0.74117 0.05594 0.68094 0.0
O365 O 0.66916 0.02108 0.63934 0.0
H366 H 0.81488 0.98475 0.61376 0.0
H367 H 0.63409 0.87511 0.60645 0.0
H368 H 0.68006 0.99396 0.50095 0.0
H369 H 0.76335 0.99706 0.57031 0.0
H370 H 0.67256 0.95143 0.63202 0.0
O371 O 0.81415 0.17606 0.60712 0.0
H372 H 0.74561 0.16366 0.48223 0.0
H373 H 0.80428 0.24203 0.59593 0.0
H374 H 0.64202 0.9182 0.4739 0.0
H375 H 0.79232 0.04417 0.72556 0.0
H376 H 0.61877 0.85814 0.52683 0.0
H377 H 0.82953 1.00828 0.69199 0.0
O378 O 0.66815 0.04642 0.55208 0.0
H379 H 0.73693 0.18333 0.7307 0.0
H380 H 0.69581 0.183 0.57563 0.0
H381 H 0.66603 0.20953 0.63274 0.0
H382 H 0.68684 0.21007 0.71089 0.0
H383 H 0.76535 0.1564 0.67263 0.0
H384 H 0.82472 0.30808 0.55346 0.0
H385 H 0.80471 0.30156 0.47425 0.0
O386 O 0.69719 0.11829 0.54341 0.0
C387 C 0.77261 0.08884 0.51731 0.0
C388 C 0.77409 0.23201 0.47303 0.0
C389 C 0.80738 0.27651 0.53755 0.0
N390 N 0.77328 0.19908 0.54168 0.0
C391 C 0.76286 0.19526 0.49798 0.0
C392 C 0.79583 0.23905 0.56141 0.0
C393 C 0.79618 0.27284 0.49312 0.0
C394 C 0.75702 0.04007 0.66614 0.0
N395 N 0.74904 0.02691 0.62315 0.0
C396 C 0.78606 0.03361 0.69155 0.0
C397 C 0.80699 1.01354 0.67267 0.0
C398 C 0.7988 1.00035 0.62877 0.0
C399 C 0.76965 1.00747 0.60432 0.0
C400 C 0.64414 0.901 0.58305 0.0
C401 C 0.67033 0.96802 0.52414 0.0
C402 C 0.66585 0.94424 0.59735 0.0
N403 N 0.6789 0.97708 0.56795 0.0
C404 C 0.64865 0.92518 0.50865 0.0
C405 C 0.63558 0.8915 0.53838 0.0
C406 C 0.66729 0.07887 0.5359 0.0
C407 C 0.72786 0.18352 0.69674 0.0
C408 C 0.70477 0.18287 0.60959 0.0
C409 C 0.68794 0.19808 0.64177 0.0
C410 C 0.69968 0.19844 0.68561 0.0
N411 N 0.73256 0.1685 0.62076 0.0
C412 C 0.74394 0.16843 0.6637 0.0
Co413 Co 1.01482 0.70108 0.60441 0.0
Co414 Co 0.9263 0.60123 0.5806 0.0
O415 O 0.98 0.65221 0.56578 0.0
C416 C 0.99496 0.73589 0.52702 0.0
O417 O 0.95447 0.71364 0.53906 0.0
C418 C 0.98429 0.56919 0.54967 0.0
O419 O 1.01255 0.59714 0.5781 0.0
O420 O 0.95185 0.59385 0.63602 0.0
O421 O 1.00413 0.66196 0.65468 0.0
H422 H 0.80346 0.50387 0.6778 0.0
H423 H 0.04906 0.68768 0.52083 0.0
O424 O 0.02506 0.7392 0.55262 0.0
H425 H 0.14872 0.69208 0.6366 0.0
H426 H 0.14826 0.84284 0.64303 0.0
H427 H 1.00822 0.7261 0.69589 0.0
H428 H 0.08642 0.70063 0.6553 0.0
H429 H 0.09866 0.78283 0.59348 0.0
O430 O 0.94633 0.56469 0.54707 0.0
H431 H 0.87248 0.56931 0.65998 0.0
H432 H 0.86473 0.52184 0.53013 0.0
H433 H 0.0564 0.78604 0.74634 0.0
H434 H 0.11137 0.6798 0.50056 0.0
H435 H 0.12722 0.84461 0.72007 0.0
H436 H 0.16167 0.6818 0.55871 0.0
O437 O 0.9634 0.70589 0.62171 0.0
H438 H 0.92547 0.63357 0.42049 0.0
H439 H 0.84657 0.60485 0.55923 0.0
H440 H 0.81922 0.62416 0.49374 0.0
H441 H 0.85827 0.63796 0.42347 0.0
H442 H 0.95308 0.61655 0.48745 0.0
H443 H 0.79574 0.45569 0.54656 0.0
H444 H 0.76461 0.44651 0.62082 0.0
O445 O 0.90682 0.63779 0.61435 0.0
C446 C 0.98083 0.62154 0.66222 0.0
C447 C 0.81663 0.50754 0.64529 0.0
C448 C 0.81233 0.48047 0.57164 0.0
N449 N 0.87235 0.54943 0.59401 0.0
C450 C 0.85563 0.54456 0.635 0.0
C451 C 0.85141 0.51792 0.56255 0.0
C452 C 0.79487 0.47535 0.61331 0.0
C453 C 0.0714 0.68977 0.54618 0.0
N454 N 0.06469 0.69582 0.58905 0.0
C455 C 0.10639 0.68479 0.53456 0.0
C456 C 0.1345 0.68576 0.56722 0.0
C457 C 0.12724 0.6915 0.61092 0.0
C458 C 0.09189 0.69634 0.6213 0.0
C459 C 0.11739 0.81761 0.6548 0.0
C460 C 0.03872 0.75186 0.68409 0.0
C461 C 0.08914 0.78366 0.62685 0.0
N462 N 0.05081 0.75089 0.64192 0.0
C463 C 0.06589 0.78564 0.71282 0.0
C464 C 0.10563 0.8185 0.69808 0.0
C465 C 0.92341 0.67771 0.62654 0.0
C466 C 0.9078 0.62704 0.45074 0.0
C467 C 0.86392 0.61099 0.52888 0.0
C468 C 0.84809 0.62163 0.49178 0.0
C469 C 0.87016 0.62959 0.45245 0.0
N470 N 0.90126 0.60929 0.52716 0.0
C471 C 0.92308 0.617 0.4887 0.0
Co472 Co 0.34932 0.31162 0.59403 0.0
Co473 Co 0.44992 0.3266 0.57441 0.0
O474 O 0.3992 0.32947 0.55772 0.0
C475 C 0.3169 0.26558 0.51015 0.0
O476 O 0.34009 0.24733 0.51915 0.0
C477 C 0.48244 0.41837 0.5478 0.0
O478 O 0.4548 0.4178 0.57614 0.0
O479 O 0.45609 0.35802 0.63043 0.0
O480 O 0.38652 0.33342 0.64826 0.0
H481 H 0.54668 0.30052 0.67514 0.0
H482 H 0.36296 0.36726 0.51664 0.0
O483 O 0.313 0.28954 0.53895 0.0
H484 H 0.35852 0.4509 0.64392 0.0
H485 H 0.20442 0.29503 0.62893 0.0
H486 H 0.32171 0.2707 0.68099 0.0
H487 H 0.34956 0.37824 0.65365 0.0
H488 H 0.26734 0.31344 0.58225 0.0
O489 O 0.48635 0.38456 0.54337 0.0
H490 H 0.4808 0.30274 0.65451 0.0
H491 H 0.53064 0.34771 0.52785 0.0
H492 H 0.25993 0.25263 0.72889 0.0
H493 H 0.37145 0.4395 0.50535 0.0
H494 H 0.20154 0.26578 0.70326 0.0
H495 H 0.36942 0.48194 0.56931 0.0
O496 O 0.34393 0.25418 0.60417 0.0
H497 H 0.42124 0.29704 0.41238 0.0
H498 H 0.44943 0.24503 0.55152 0.0
H499 H 0.43519 0.20127 0.48385 0.0
H500 H 0.42097 0.22721 0.41364 0.0
H501 H 0.43491 0.33942 0.48097 0.0
H502 H 0.59728 0.34634 0.54718 0.0
H503 H 0.6055 0.32245 0.62125 0.0
O504 O 0.41312 0.26902 0.60633 0.0
C505 C 0.42696 0.3524 0.65761 0.0
C506 C 0.54342 0.31085 0.64271 0.0
C507 C 0.57185 0.33662 0.57091 0.0
N508 N 0.50182 0.32498 0.58992 0.0
C509 C 0.50614 0.31204 0.63081 0.0
C510 C 0.53412 0.33741 0.56017 0.0
C511 C 0.57643 0.3232 0.61247 0.0
C512 C 0.36124 0.38514 0.54453 0.0
N513 N 0.35513 0.36823 0.58567 0.0
C514 C 0.36641 0.42621 0.53798 0.0
C515 C 0.36539 0.45004 0.5739 0.0
C516 C 0.3593 0.43266 0.61577 0.0
C517 C 0.3543 0.39152 0.62108 0.0
C518 C 0.23005 0.28957 0.64052 0.0
C519 C 0.29614 0.27618 0.66945 0.0
C520 C 0.26556 0.29969 0.61419 0.0
N521 N 0.29835 0.29364 0.62913 0.0
C522 C 0.26122 0.26579 0.69668 0.0
C523 C 0.22827 0.27297 0.68217 0.0
C524 C 0.37246 0.24383 0.61367 0.0
C525 C 0.42769 0.28553 0.44271 0.0
C526 C 0.44343 0.25663 0.52106 0.0
C527 C 0.43547 0.23175 0.48283 0.0
C528 C 0.42746 0.24632 0.44345 0.0
N529 N 0.44326 0.29487 0.52015 0.0
C530 C 0.43572 0.30953 0.48161 0.0
Co531 Co 0.75811 0.71164 0.09922 0.0
Co532 Co 0.75389 0.6143 0.07926 0.0
O533 O 0.74843 0.66334 0.06187 0.0
C534 C 0.81674 0.74746 0.02549 0.0
O535 O 0.83799 0.72968 0.0423 0.0
C536 C 0.66415 0.57906 0.04543 0.0
O537 O 0.66286 0.6071 0.07253 0.0
O538 O 0.72031 0.60656 0.13322 0.0
O539 O 0.72703 0.67183 0.14858 0.0
H540 H 0.78532 0.52364 0.18222 0.0
H541 H 0.71456 0.69471 0.01153 0.0
O542 O 0.78821 0.74993 0.04821 0.0
H543 H 0.61289 0.70095 0.1151 0.0
H544 H 0.76779 0.85548 0.12862 0.0
H545 H 0.78159 0.73632 0.19291 0.0
H546 H 0.68287 0.71078 0.14142 0.0
H547 H 0.7574 0.7936 0.08252 0.0
O548 O 0.69802 0.57528 0.04491 0.0
H549 H 0.77898 0.58688 0.16087 0.0
H550 H 0.73865 0.53443 0.03221 0.0
H551 H 0.79136 0.79707 0.24033 0.0
H552 H 0.64546 0.68565 0.98363 0.0
H553 H 0.78377 0.85677 0.20834 0.0
H554 H 0.59392 0.68859 0.03562 0.0
O555 O 0.81377 0.71867 0.12259 0.0
H556 H 0.78364 0.63514 0.91769 0.0
H557 H 0.83982 0.62289 0.06216 0.0
H558 H 0.88497 0.63754 0.99698 0.0
H559 H 0.85662 0.6428 0.92388 0.0
H560 H 0.74098 0.62404 0.98423 0.0
H561 H 0.74429 0.47043 0.05215 0.0
H562 H 0.76789 0.46484 0.12762 0.0
O563 O 0.80894 0.65349 0.11398 0.0
C564 C 0.71392 0.63214 0.15732 0.0
C565 C 0.77506 0.52573 0.14921 0.0
C566 C 0.75198 0.49584 0.07623 0.0
N567 N 0.75861 0.56436 0.09534 0.0
C568 C 0.77147 0.56149 0.13694 0.0
C569 C 0.74875 0.53208 0.06515 0.0
C570 C 0.76525 0.49273 0.11857 0.0
C571 C 0.69291 0.6972 0.03419 0.0
N572 N 0.7034 0.70455 0.07787 0.0
C573 C 0.65356 0.69156 0.01826 0.0
C574 C 0.62461 0.69306 0.04747 0.0
C575 C 0.63522 0.69997 0.09207 0.0
C576 C 0.67491 0.70553 0.10677 0.0
C577 C 0.77082 0.82943 0.14298 0.0
C578 C 0.77833 0.76226 0.17872 0.0
C579 C 0.76523 0.79446 0.11701 0.0
N580 N 0.76841 0.76118 0.13513 0.0
C581 C 0.78403 0.79663 0.20571 0.0
C582 C 0.77992 0.83023 0.18769 0.0
C583 C 0.82862 0.69298 0.128 0.0
C584 C 0.79625 0.63255 0.94929 0.0
C585 C 0.8275 0.62594 0.03064 0.0
C586 C 0.85306 0.63377 0.99374 0.0
C587 C 0.83718 0.63684 0.95277 0.0
N588 N 0.78762 0.62233 0.02706 0.0
C589 C 0.77204 0.62588 0.98708 0.0
Co590 Co 0.34602 0.03696 0.09434 0.0
Co591 Co 0.44764 0.12208 0.07649 0.0
O592 O 0.39668 0.06872 0.05917 0.0
C593 C 0.31619 0.05247 0.01047 0.0
O594 O 0.33989 0.09383 0.02061 0.0
C595 C 0.47839 0.06067 0.05298 0.0
O596 O 0.44961 0.03464 0.081 0.0
O597 O 0.4519 0.09741 0.13298 0.0
O598 O 0.38203 0.05152 0.14934 0.0
H599 H 0.54405 0.24611 0.17786 0.0
H600 H 0.36017 0.995 0.01649 0.0
O601 O 0.31105 0.0239 0.03857 0.0
H602 H 0.35145 0.90496 0.14232 0.0
H603 H 0.19899 0.90928 0.12367 0.0
H604 H 0.31658 0.04945 0.18119 0.0
H605 H 0.34366 0.96935 0.15288 0.0
H606 H 0.26372 0.95392 0.07949 0.0
O607 O 0.48359 0.09877 0.04739 0.0
H608 H 0.47767 0.17823 0.15639 0.0
H609 H 0.53 0.17985 0.03161 0.0
H610 H 0.2528 1.00553 0.2267 0.0
H611 H 0.36753 0.9306 0.00436 0.0
H612 H 0.19416 0.93469 0.19812 0.0
H613 H 0.36336 0.88515 0.06759 0.0
O614 O 0.34167 0.08954 0.10532 0.0
H615 H 0.42352 0.12117 0.91355 0.0
H616 H 0.44997 0.20386 0.05193 0.0
H617 H 0.43901 0.23336 0.98308 0.0
H618 H 0.42563 0.1919 0.91326 0.0
H619 H 0.43418 0.09267 0.98324 0.0
H620 H 0.59717 0.2476 0.05181 0.0
H621 H 0.60439 0.28123 0.12536 0.0
O622 O 0.41101 0.14419 0.1068 0.0
C623 C 0.42231 0.07355 0.15945 0.0
C624 C 0.54123 0.23186 0.14566 0.0
C625 C 0.57107 0.23266 0.07493 0.0
N626 N 0.49991 0.17543 0.09266 0.0
C627 C 0.50367 0.19353 0.13328 0.0
C628 C 0.53304 0.1943 0.0637 0.0
C629 C 0.57509 0.25152 0.1162 0.0
C630 C 0.3575 0.97497 0.04405 0.0
N631 N 0.35084 0.9856 0.08524 0.0
C632 C 0.36205 0.93872 0.03703 0.0
C633 C 0.35981 0.91329 0.07254 0.0
C634 C 0.35316 0.92441 0.11448 0.0
C635 C 0.34882 0.96093 0.12026 0.0
C636 C 0.22466 0.94004 0.13647 0.0
C637 C 0.29094 0.01872 0.16849 0.0
C638 C 0.26122 0.96552 0.11156 0.0
N639 N 0.29405 1.00396 0.12799 0.0
C640 C 0.2549 0.99407 0.19435 0.0
C641 C 0.22183 0.95436 0.17825 0.0
C642 C 0.37039 0.12875 0.1143 0.0
C643 C 0.4296 0.13967 0.94372 0.0
C644 C 0.44435 0.18572 0.02164 0.0
C645 C 0.43822 0.20262 0.98275 0.0
C646 C 0.4307 0.17932 0.94359 0.0
N647 N 0.443 0.14672 0.02155 0.0
C648 C 0.4359 0.12381 0.98324 0.0
Co649 Co 1.01844 0.31934 0.10217 0.0
Co650 Co 0.92919 0.32877 0.07827 0.0
O651 O 0.98348 0.33278 0.06369 0.0
C652 C 1.0 0.26515 0.02389 0.0
O653 O 0.95947 0.24567 0.03593 0.0
C654 C 0.98652 0.41951 0.04905 0.0
O655 O 1.0147 0.42036 0.07763 0.0
O656 O 0.95372 0.36136 0.1344 0.0
O657 O 1.00654 0.34677 0.15298 0.0
H658 H 0.80482 0.30018 0.17486 0.0
H659 H 0.05298 0.36824 0.01965 0.0
O660 O 0.02971 0.29236 0.04985 0.0
H661 H 0.15101 0.4634 0.13745 0.0
H662 H 0.15172 0.31142 0.13993 0.0
H663 H 1.01166 0.2876 0.19322 0.0
H664 H 0.08899 0.39168 0.15458 0.0
H665 H 0.10262 0.32248 0.09104 0.0
O666 O 0.94882 0.38554 0.04587 0.0
H667 H 0.87433 0.30501 0.15706 0.0
H668 H 0.86758 0.34603 0.02825 0.0
H669 H 0.05956 0.27571 0.24312 0.0
H670 H 0.11501 0.4393 0.00092 0.0
H671 H 0.13035 0.28815 0.21661 0.0
H672 H 0.1645 0.48756 0.0601 0.0
O673 O 0.9674 0.26244 0.1184 0.0
H674 H 0.92989 0.29811 0.91717 0.0
H675 H 0.84981 0.24516 0.05483 0.0
H676 H 0.82204 0.20019 0.98754 0.0
H677 H 0.86178 0.22684 0.9179 0.0
H678 H 0.95745 0.3413 0.98559 0.0
H679 H 0.79815 0.34203 0.0447 0.0
H680 H 0.76626 0.31879 0.11842 0.0
O681 O 0.91012 0.27248 0.11085 0.0
C682 C 0.98245 0.36291 0.16081 0.0
C683 C 0.81831 0.31023 0.14258 0.0
C684 C 0.8146 0.33377 0.06954 0.0
N685 N 0.87473 0.32544 0.09159 0.0
C686 C 0.85758 0.3129 0.13229 0.0
C687 C 0.85393 0.33607 0.06044 0.0
C688 C 0.79672 0.32071 0.1109 0.0
C689 C 0.07498 0.38847 0.04542 0.0
N690 N 0.068 0.3752 0.08798 0.0
C691 C 0.10981 0.42894 0.03469 0.0
C692 C 0.13746 0.45605 0.06792 0.0
C693 C 0.1299 0.44253 0.11132 0.0
C694 C 0.09473 0.40185 0.12081 0.0
C695 C 0.12092 0.30584 0.15182 0.0
C696 C 0.04224 0.29262 0.18136 0.0
C697 C 0.09292 0.31186 0.12423 0.0
N698 N 0.05453 0.30603 0.1394 0.0
C699 C 0.06923 0.2859 0.20977 0.0
C700 C 0.10895 0.29288 0.19489 0.0
C701 C 0.92724 0.24981 0.12289 0.0
C702 C 0.91196 0.28636 0.94717 0.0
C703 C 0.86741 0.25695 0.02471 0.0
C704 C 0.85139 0.23144 0.98664 0.0
C705 C 0.8738 0.24635 0.94762 0.0
N706 N 0.90503 0.29601 0.0241 0.0
C707 C 0.92726 0.31082 0.98598 0.0
Co708 Co 0.38767 0.35338 0.92091 0.0
Co709 Co 0.43036 0.45885 0.88873 0.0
O710 O 0.41792 0.4151 0.9318 0.0
C711 C 0.33755 0.36699 0.98814 0.0
O712 O 0.33155 0.39064 0.95927 0.0
C713 C 0.51582 0.48077 0.9276 0.0
O714 O 0.5062 0.44147 0.91558 0.0
O715 O 0.45307 0.43193 0.84769 0.0
O716 O 0.41704 0.36079 0.86359 0.0
H717 H 0.43356 0.51657 0.73802 0.0
H718 H 0.43716 0.39125 0.00423 0.0
O719 O 0.35796 0.34729 0.97813 0.0
H720 H 0.50053 0.30933 0.93877 0.0
H721 H 0.32642 0.19884 0.96832 0.0
H722 H 0.3441 0.29434 0.84443 0.0
H723 H 0.44008 0.31178 0.90158 0.0
H724 H 0.36396 0.2783 0.97901 0.0
O725 O 0.48979 0.49447 0.91774 0.0
H726 H 0.4151 0.45957 0.79287 0.0
H727 H 0.47632 0.55517 0.89351 0.0
H728 H 0.30635 0.21512 0.83224 0.0
H729 H 0.49733 0.38945 0.04274 0.0
H730 H 0.29757 0.1668 0.89443 0.0
H731 H 0.52944 0.34823 0.00997 0.0
O732 O 0.3402 0.35543 0.88811 0.0
H733 H 0.4111 0.51196 0.03524 0.0
H734 H 0.36782 0.49043 0.87874 0.0
H735 H 0.33583 0.52072 0.92913 0.0
H736 H 0.35747 0.53166 0.008 0.0
H737 H 0.44214 0.48164 0.98377 0.0
H738 H 0.49521 0.61321 0.83984 0.0
H739 H 0.47403 0.59408 0.76141 0.0
O740 O 0.37087 0.42254 0.85988 0.0
C741 C 0.44149 0.39247 0.83898 0.0
C742 C 0.44298 0.52535 0.77209 0.0
C743 C 0.47774 0.57961 0.8292 0.0
N744 N 0.44442 0.50408 0.84634 0.0
C745 C 0.43253 0.49321 0.8033 0.0
C746 C 0.46694 0.54661 0.85944 0.0
C747 C 0.46573 0.56883 0.78522 0.0
C748 C 0.45053 0.37277 0.99011 0.0
N749 N 0.43462 0.35107 0.9511 0.0
C750 C 0.48481 0.3721 0.0119 0.0
C751 C 0.50289 0.34906 0.99343 0.0
C752 C 0.48671 0.32727 0.95347 0.0
C753 C 0.45248 0.32876 0.93257 0.0
C754 C 0.33013 0.21955 0.94095 0.0
C755 C 0.34046 0.27354 0.87162 0.0
C756 C 0.35127 0.26454 0.94682 0.0
N757 N 0.35668 0.29092 0.91225 0.0
C758 C 0.31896 0.22869 0.86455 0.0
C759 C 0.31397 0.2016 0.89947 0.0
C760 C 0.33915 0.38343 0.86294 0.0
C761 C 0.40156 0.50754 0.00091 0.0
C762 C 0.37744 0.49518 0.913 0.0
C763 C 0.35925 0.51236 0.94137 0.0
C764 C 0.37142 0.51851 0.98562 0.0
N765 N 0.40707 0.48462 0.92823 0.0
C766 C 0.41917 0.49055 0.97156 0.0
Co767 Co 0.66562 0.03396 0.91451 0.0
Co768 Co 0.59718 0.92527 0.9294 0.0
O769 O 0.63467 0.97421 0.89359 0.0
C770 C 0.61805 0.03114 0.83504 0.0
O771 O 0.58381 1.00017 0.85405 0.0
C772 C 0.66103 0.90526 0.88874 0.0
O773 O 0.69059 0.94251 0.9059 0.0
O774 O 0.64299 0.94368 0.97534 0.0
O775 O 0.6764 0.01647 0.97384 0.0
H776 H 0.52632 0.85026 0.06879 0.0
H777 H 0.69149 1.01047 0.83104 0.0
O778 O 0.65421 0.05109 0.85571 0.0
H779 H 0.82177 0.0728 0.92672 0.0
H780 H 0.76602 0.19419 0.89634 0.0
H781 H 0.66679 0.0802 0.99625 0.0
H782 H 0.75411 0.06743 0.95279 0.0
H783 H 0.72883 0.11713 0.87328 0.0
O784 O 0.62104 0.89096 0.89755 0.0
H785 H 0.57226 0.91319 0.02283 0.0
H786 H 0.54422 0.83028 0.91172 0.0
H787 H 0.70341 0.15677 0.02074 0.0
H788 H 0.75847 1.01552 0.80358 0.0
H789 H 0.75316 0.21439 0.97046 0.0
H790 H 0.82424 0.0468 0.85158 0.0
O791 O 0.61158 0.029 0.93641 0.0
H792 H 0.53408 0.88605 0.77629 0.0
H793 H 0.5042 0.89921 0.93138 0.0
H794 H 0.44553 0.87471 0.87646 0.0
H795 H 0.46007 0.86795 0.79798 0.0
H796 H 0.5921 0.91065 0.83269 0.0
H797 H 0.49824 0.76636 0.95651 0.0
H798 H 0.48895 0.7762 0.03561 0.0
O799 O 0.57343 0.96054 0.96057 0.0
C800 C 0.66808 0.98098 0.99224 0.0
C801 C 0.52998 0.84557 0.03432 0.0
C802 C 0.51427 0.79847 0.97132 0.0
N803 N 0.56054 0.87538 0.96461 0.0
C804 C 0.55581 0.88109 0.00813 0.0
C805 C 0.54039 0.83475 0.94615 0.0
C806 C 0.50906 0.80402 0.0157 0.0
C807 C 0.72007 0.02458 0.85198 0.0
N808 N 0.71894 0.03887 0.8934 0.0
C809 C 0.75788 0.02718 0.8363 0.0
C810 C 0.79472 0.04462 0.86329 0.0
C811 C 0.79334 0.05916 0.90548 0.0
C812 C 0.75492 0.05594 0.9201 0.0
C813 C 0.74435 0.16937 0.91851 0.0
C814 C 0.68885 0.10505 0.97443 0.0
C815 C 0.72328 0.12571 0.90567 0.0
N816 N 0.69608 0.09421 0.9336 0.0
C817 C 0.70929 0.14836 0.98837 0.0
C818 C 0.73712 0.18068 0.96011 0.0
C819 C 0.5802 0.99963 0.95768 0.0
C820 C 0.52727 0.88895 0.81026 0.0
C821 C 0.51107 0.8969 0.89736 0.0
C822 C 0.47757 0.88279 0.8663 0.0
C823 C 0.48579 0.8789 0.82242 0.0
N824 N 0.55166 0.90674 0.88519 0.0
C825 C 0.55999 0.90281 0.84233 0.0
Co826 Co 0.02863 0.69046 0.91338 0.0
Co827 Co 0.10285 0.6568 0.90116 0.0
O828 O 0.06271 0.66597 0.93509 0.0
C829 C 0.08052 0.74563 0.98749 0.0
O830 O 0.1148 0.75231 0.96579 0.0
C831 C 0.03981 0.56994 0.93662 0.0
O832 O 1.00969 0.57618 0.91902 0.0
O833 O 0.05957 0.62849 0.85263 0.0
O834 O 1.01498 0.65598 0.85776 0.0
H835 H 0.18433 0.65951 0.76678 0.0
H836 H 1.01133 0.64761 0.00011 0.0
O837 O 0.04289 0.72439 0.96968 0.0
H838 H 0.87465 0.56713 0.91518 0.0
H839 H 0.92928 0.7509 0.93089 0.0
H840 H 1.01666 0.7217 0.82732 0.0
H841 H 0.93787 0.63032 0.88347 0.0
H842 H 0.96868 0.71445 0.9557 0.0
O843 O 0.07981 0.5985 0.93151 0.0
H844 H 0.13383 0.67285 0.80951 0.0
H845 H 0.15784 0.61826 0.92225 0.0
H846 H 0.97588 0.75619 0.8007 0.0
H847 H 0.94877 0.58501 0.0333 0.0
H848 H 0.93189 0.7713 0.85278 0.0
H849 H 0.87992 0.544 0.99058 0.0
O850 O 0.07955 0.73921 0.88513 0.0
H851 H 0.15385 0.68709 0.05858 0.0
H852 H 0.19557 0.72628 0.90475 0.0
H853 H 0.24909 0.76523 0.96421 0.0
H854 H 0.22828 0.74575 0.04177 0.0
H855 H 0.10135 0.64906 0.99815 0.0
H856 H 0.20839 0.60399 0.88066 0.0
H857 H 0.22198 0.62478 0.80237 0.0
O858 O 0.12548 0.71501 0.87079 0.0
C859 C 0.02819 0.63289 0.83854 0.0
C860 C 0.17871 0.65033 0.80088 0.0
C861 C 0.19216 0.61911 0.86478 0.0
N862 N 0.14294 0.64636 0.86829 0.0
C863 C 0.1502 0.65787 0.82525 0.0
C864 C 0.16341 0.62713 0.88812 0.0
C865 C 0.1998 0.63082 0.82086 0.0
C866 C 0.9813 0.63041 0.98156 0.0
N867 N 0.97822 0.64278 0.93995 0.0
C868 C 0.94606 0.59477 0.00043 0.0
C869 C 0.90748 0.5717 0.97639 0.0
C870 C 0.90451 0.58465 0.93407 0.0
C871 C 0.9404 0.62049 0.91631 0.0
C872 C 0.94767 0.74391 0.90778 0.0
C873 C 0.99682 0.72725 0.84997 0.0
C874 C 0.97039 0.72362 0.92173 0.0
N875 N 0.99468 0.71569 0.89294 0.0
C876 C 0.97403 0.74708 0.83475 0.0
C877 C 0.94938 0.75554 0.86397 0.0
C878 C 0.11385 0.74374 0.86774 0.0
C879 C 0.16336 0.69574 0.02491 0.0
C880 C 0.18635 0.71749 0.93842 0.0
C881 C 0.21678 0.73966 0.97194 0.0
C882 C 0.2051 0.7287 0.01545 0.0
N883 N 0.14548 0.68522 0.94796 0.0
C884 C 0.13383 0.67417 0.99053 0.0
Co885 Co 0.38809 0.03786 0.42309 0.0
Co886 Co 0.42924 0.97478 0.38675 0.0
O887 O 0.41746 1.00538 0.43173 0.0
C888 C 0.3375 0.97277 0.4883 0.0
O889 O 0.33127 0.94364 0.45826 0.0
C890 C 0.51504 0.03673 0.42712 0.0
O891 O 0.50554 0.06704 0.41844 0.0
O892 O 0.45263 0.02561 0.34793 0.0
O893 O 0.41716 0.06073 0.36599 0.0
H894 H 0.4316 0.92436 0.23301 0.0
H895 H 0.43736 0.04731 0.50578 0.0
O896 O 0.3584 1.0132 0.47981 0.0
H897 H 0.50348 0.19421 0.44476 0.0
H898 H 0.33069 0.13293 0.47653 0.0
H899 H 0.3438 0.05471 0.349 0.0
H900 H 0.44208 0.13237 0.40647 0.0
H901 H 0.36673 0.08956 0.48416 0.0
O902 O 0.48872 0.99743 0.41506 0.0
H903 H 0.41308 0.96089 0.29068 0.0
H904 H 0.47494 0.92428 0.38722 0.0
H905 H 0.30749 0.0976 0.33984 0.0
H906 H 0.49836 0.10821 0.54545 0.0
H907 H 0.30104 0.13737 0.40386 0.0
H908 H 0.53189 0.18235 0.51488 0.0
O909 O 0.34004 0.98919 0.38933 0.0
H910 H 0.40933 0.89827 0.52984 0.0
H911 H 0.36596 0.88081 0.37348 0.0
H912 H 0.3335 0.81703 0.42142 0.0
H913 H 0.35518 0.82557 0.50021 0.0
H914 H 0.44086 0.96115 0.48079 0.0
H915 H 0.49453 0.88769 0.33053 0.0
H916 H 0.47282 0.88758 0.25281 0.0
O917 O 0.36964 0.95267 0.35846 0.0
C918 C 0.44126 0.05369 0.34054 0.0
C919 C 0.44115 0.92407 0.26678 0.0
C920 C 0.47653 0.90355 0.32151 0.0
N921 N 0.44266 0.94443 0.34227 0.0
C922 C 0.4306 0.94455 0.2996 0.0
C923 C 0.46541 0.92436 0.35345 0.0
C924 C 0.46431 0.90348 0.2779 0.0
C925 C 0.4513 0.07952 0.49268 0.0
N926 N 0.43569 0.08634 0.45426 0.0
C927 C 0.48606 0.11386 0.5151 0.0
C928 C 0.50494 0.15542 0.49786 0.0
C929 C 0.48905 0.16209 0.45849 0.0
C930 C 0.45429 0.12695 0.43696 0.0
C931 C 0.33342 0.11587 0.44836 0.0
C932 C 0.34123 0.07201 0.37695 0.0
C933 C 0.35374 0.09124 0.45248 0.0
N934 N 0.35799 0.07024 0.41688 0.0
C935 C 0.32051 0.09614 0.37161 0.0
C936 C 0.31683 0.11838 0.40757 0.0
C937 C 0.33831 0.9604 0.36285 0.0
C938 C 0.39976 0.8941 0.49553 0.0
C939 C 0.3756 0.88473 0.40772 0.0
C940 C 0.35713 0.84852 0.43469 0.0
C941 C 0.36933 0.85333 0.4789 0.0
N942 N 0.4055 0.92457 0.42426 0.0
C943 C 0.41763 0.92955 0.46755 0.0
Co944 Co 0.02556 0.34006 0.41345 0.0
Co945 Co 0.10081 0.44776 0.40063 0.0
O946 O 0.06105 0.39898 0.43466 0.0
C947 C 0.07902 0.33812 0.48571 0.0
O948 O 0.1126 0.3647 0.46261 0.0
C949 C 0.03817 0.47199 0.43644 0.0
O950 O 1.00803 0.43534 0.41878 0.0
O951 O 0.05729 0.43211 0.35248 0.0
O952 O 1.01122 0.3602 0.35819 0.0
H953 H 0.18154 0.52452 0.26563 0.0
H954 H 1.01225 0.36804 0.50102 0.0
O955 O 0.04084 0.32114 0.46916 0.0
H956 H 0.87449 0.3166 0.41979 0.0
H957 H 0.91653 0.18209 0.43289 0.0
H958 H 1.0109 0.29355 0.32814 0.0
H959 H 0.93458 0.3118 0.38629 0.0
H960 H 0.96333 0.25819 0.45722 0.0
O961 O 0.07817 0.48356 0.43122 0.0
H962 H 0.13102 0.46123 0.30875 0.0
H963 H 0.15636 0.54181 0.42129 0.0
H964 H 0.96446 0.21795 0.30232 0.0
H965 H 0.95305 0.37314 0.53575 0.0
H966 H 0.91669 0.16163 0.35487 0.0
H967 H 0.88419 0.34863 0.49465 0.0
O968 O 0.07534 0.34096 0.38332 0.0
H969 H 0.15274 0.47024 0.55771 0.0
H970 H 0.19334 0.4709 0.40351 0.0
H971 H 0.2471 0.48593 0.46259 0.0
H972 H 0.22683 0.4855 0.54034 0.0
H973 H 0.10003 0.45536 0.49765 0.0
H974 H 0.20694 0.60611 0.37932 0.0
H975 H 0.21987 0.59763 0.30094 0.0
O976 O 0.12261 0.41132 0.37022 0.0
C977 C 0.02525 0.39634 0.33866 0.0
C978 C 0.17622 0.52863 0.29977 0.0
C979 C 0.19042 0.57443 0.36357 0.0
N980 N 0.14083 0.49787 0.36746 0.0
C981 C 0.14771 0.4929 0.32437 0.0
C982 C 0.16165 0.53796 0.38712 0.0
C983 C 0.19768 0.56964 0.3196 0.0
C984 C 0.98188 0.35597 0.48335 0.0
N985 N 0.9768 0.33931 0.44177 0.0
C986 C 0.94857 0.35927 0.50309 0.0
C987 C 0.90983 0.34534 0.48003 0.0
C988 C 0.90453 0.32765 0.43794 0.0
C989 C 0.93862 0.32495 0.41918 0.0
C990 C 0.93712 0.20634 0.40967 0.0
C991 C 0.99013 0.26924 0.35116 0.0
C992 C 0.96376 0.24942 0.42329 0.0
N993 N 0.98953 0.28027 0.39406 0.0
C994 C 0.96397 0.22647 0.33637 0.0
C995 C 0.93723 0.19488 0.36588 0.0
C996 C 0.11011 0.37067 0.36635 0.0
C997 C 0.16203 0.47074 0.52395 0.0
C998 C 0.1844 0.47094 0.43726 0.0
C999 C 0.21495 0.47944 0.47057 0.0
C1000 C 0.20356 0.47921 0.51419 0.0
N1001 N 0.14372 0.46262 0.44711 0.0
C1002 C 0.13238 0.46254 0.48979 0.0
Co1003 Co 0.67674 0.62831 0.41733 0.0
Co1004 Co 0.60898 0.66979 0.42031 0.0
O1005 O 0.65103 0.65978 0.39059 0.0
C1006 C 0.64618 0.59113 0.3296 0.0
O1007 O 0.60862 0.58631 0.34064 0.0
C1008 C 0.67434 0.75559 0.38186 0.0
O1009 O 0.7043 0.74926 0.3997 0.0
O1010 O 0.65015 0.69742 0.47055 0.0
O1011 O 0.67636 0.65203 0.47742 0.0
H1012 H 0.52354 0.67136 0.54934 0.0
H1013 H 0.71958 0.68458 0.34106 0.0
O1014 O 0.67697 0.60463 0.3578 0.0
H1015 H 0.82938 0.74064 0.46047 0.0
H1016 H 0.77334 0.56323 0.41806 0.0
H1017 H 0.66227 0.57772 0.49864 0.0
H1018 H 0.75656 0.67805 0.47249 0.0
H1019 H 0.7443 0.60808 0.38893 0.0
O1020 O 0.63434 0.72836 0.38915 0.0
H1021 H 0.57491 0.65628 0.51056 0.0
H1022 H 0.5558 0.70909 0.39364 0.0
H1023 H 0.69142 0.53368 0.52965 0.0
H1024 H 0.79204 0.74703 0.32754 0.0
H1025 H 0.74715 0.52594 0.48908 0.0
H1026 H 0.84753 0.7755 0.38753 0.0
O1027 O 0.61877 0.57808 0.42782 0.0
H1028 H 0.56275 0.64739 0.26125 0.0
H1029 H 0.5164 0.60059 0.41253 0.0
H1030 H 0.46433 0.56593 0.35128 0.0
H1031 H 0.48715 0.58966 0.27495 0.0
H1032 H 0.61452 0.67985 0.32333 0.0
H1033 H 0.50447 0.72509 0.43124 0.0
H1034 H 0.48795 0.70605 0.50961 0.0
O1035 O 0.58264 0.6106 0.45125 0.0
C1036 C 0.66884 0.68109 0.49278 0.0
C1037 C 0.53037 0.67968 0.51514 0.0
C1038 C 0.51971 0.70989 0.44887 0.0
N1039 N 0.56806 0.68148 0.44982 0.0
C1040 C 0.55932 0.6711 0.49298 0.0
C1041 C 0.54886 0.70084 0.42779 0.0
C1042 C 0.51044 0.69919 0.49285 0.0
C1043 C 0.74363 0.69654 0.36724 0.0
N1044 N 0.73387 0.67762 0.4075 0.0
C1045 C 0.78457 0.73204 0.35943 0.0
C1046 C 0.81565 0.74805 0.39313 0.0
C1047 C 0.80547 0.72854 0.43408 0.0
C1048 C 0.76414 0.6932 0.44074 0.0
C1049 C 0.74913 0.56642 0.43608 0.0
C1050 C 0.6871 0.57521 0.48122 0.0
C1051 C 0.73256 0.59177 0.41975 0.0
N1052 N 0.70188 0.59583 0.44225 0.0
C1053 C 0.70325 0.54994 0.49877 0.0
C1054 C 0.7344 0.54548 0.47593 0.0
C1055 C 0.58729 0.57703 0.44801 0.0
C1056 C 0.55238 0.63681 0.29435 0.0
C1057 C 0.52693 0.61054 0.37939 0.0
C1058 C 0.49713 0.59101 0.34482 0.0
C1059 C 0.50997 0.60436 0.30204 0.0
N1060 N 0.56851 0.6423 0.37159 0.0
C1061 C 0.58148 0.6553 0.3297 0.0
C1062 C 0.0523 0.73777 0.10684 0.0
C1063 C 0.09231 0.76688 0.12665 0.0
H1064 H 1.01688 0.70956 0.04744 0.0
C1065 C 0.12847 0.79084 0.10034 0.0
H1066 H 0.02356 0.72027 0.12631 0.0
C1067 C 0.1248 0.78438 0.05474 0.0
C1068 C 0.08455 0.75516 0.03498 0.0
H1069 H 0.15938 0.81425 0.11503 0.0
H1070 H 0.15328 0.80236 0.03498 0.0
C1071 C 0.04833 0.73228 0.06153 0.0
C1072 C 0.35779 0.38171 0.067 0.0
C1073 C 0.3261 0.36866 0.03378 0.0
H1074 H 0.37285 0.3949 0.13527 0.0
C1075 C 0.28441 0.36003 0.04417 0.0
H1076 H 0.3905 0.38976 0.05945 0.0
C1077 C 0.27382 0.36188 0.08781 0.0
C1078 C 0.30525 0.37381 0.12143 0.0
H1079 H 0.25977 0.35067 0.0187 0.0
H1080 H 0.24083 0.35303 0.09532 0.0
C1081 C 0.34769 0.38505 0.11034 0.0
C1082 C 0.70767 0.02042 0.10782 0.0
C1083 C 0.70833 0.98484 0.12662 0.0
H1084 H 0.69599 0.04767 0.05088 0.0
C1085 C 0.69765 0.94835 0.1001 0.0
H1086 H 0.71672 0.0495 0.12681 0.0
C1087 C 0.68522 0.94713 0.05602 0.0
C1088 C 0.68455 0.98292 0.03747 0.0
H1089 H 0.69845 0.92069 0.1135 0.0
H1090 H 0.67611 0.91821 0.0365 0.0
C1091 C 0.69638 0.01967 0.06385 0.0
C1092 C 0.81211 0.12391 0.44888 0.0
C1093 C 0.78943 0.08624 0.47414 0.0
H1094 H 0.83086 0.14956 0.38426 0.0
C1095 C 0.77593 0.04555 0.45452 0.0
H1096 H 0.82357 0.15585 0.46309 0.0
C1097 C 0.78014 0.04227 0.40954 0.0
C1098 C 0.79839 0.07957 0.38393 0.0
H1099 H 0.75901 1.01596 0.47306 0.0
H1100 H 0.76682 1.01044 0.39439 0.0
C1101 C 0.81638 0.12051 0.40385 0.0
C1102 C 0.97112 0.74332 0.45202 0.0
C1103 C 1.00363 0.74527 0.48004 0.0
H1104 H 0.94979 0.74134 0.38561 0.0
C1105 C 0.04133 0.74914 0.46173 0.0
H1106 H 0.94171 0.74035 0.46516 0.0
C1107 C 0.0449 0.74758 0.41634 0.0
C1108 C 1.01171 0.74406 0.38855 0.0
H1109 H 0.0673 0.75146 0.48234 0.0
H1110 H 0.07371 0.74935 0.40304 0.0
C1111 C 0.97545 0.74335 0.4066 0.0
C1112 C 0.29593 0.29914 0.45013 0.0
C1113 C 0.30435 0.26656 0.46401 0.0
H1114 H 0.28591 0.3309 0.39578 0.0
C1115 C 0.306 0.23844 0.43246 0.0
H1116 H 0.29438 0.3213 0.47351 0.0
C1117 C 0.30049 0.2436 0.38785 0.0
C1118 C 0.29432 0.27762 0.37401 0.0
H1119 H 0.31259 0.2131 0.44215 0.0
H1120 H 0.30243 0.2219 0.36413 0.0
C1121 C 0.29153 0.30496 0.40556 0.0
C1122 C 0.04953 0.30674 0.91395 0.0
C1123 C 1.01636 0.27738 0.88561 0.0
H1124 H 0.07216 0.3238 0.98019 0.0
C1125 C 0.98047 0.24087 0.90285 0.0
H1126 H 0.07811 0.33448 0.90123 0.0
C1127 C 0.9764 0.23532 0.94811 0.0
C1128 C 1.00878 0.26561 0.97675 0.0
H1129 H 0.95486 0.21742 0.8814 0.0
H1130 H 0.9472 0.20815 0.96071 0.0
C1131 C 0.04622 0.30037 0.95912 0.0
C1132 C 0.84222 0.74125 0.95142 0.0
C1133 C 0.815 0.74994 0.97722 0.0
H1134 H 0.85493 0.72533 0.88734 0.0
C1135 C 0.78134 0.75307 0.95654 0.0
H1136 H 0.86826 0.73849 0.96651 0.0
C1137 C 0.77243 0.74331 0.91192 0.0
C1138 C 0.79816 0.73217 0.88681 0.0
H1139 H 0.76044 0.76087 0.97512 0.0
H1140 H 0.7455 0.74464 0.89723 0.0
C1141 C 0.83423 0.73306 0.90641 0.0
C1142 C 0.29598 0.99871 0.94912 0.0
C1143 C 0.30472 0.03976 0.96393 0.0
H1144 H 0.28668 0.95756 0.89383 0.0
C1145 C 0.30782 0.07033 0.93306 0.0
H1146 H 0.2933 0.97439 0.97197 0.0
C1147 C 0.3034 0.06038 0.88819 0.0
C1148 C 0.29692 0.02013 0.8735 0.0
H1149 H 0.31466 0.1023 0.9435 0.0
H1150 H 0.30634 0.08456 0.86498 0.0
C1151 C 0.29269 0.98923 0.90433 0.0
C1152 C 0.2734 0.91388 0.58717 0.0
C1153 C 0.30531 0.93213 0.62057 0.0
H1154 H 0.25895 0.91261 0.5184 0.0
C1155 C 0.34819 0.96206 0.60944 0.0
H1156 H 0.24008 0.8907 0.59474 0.0
C1157 C 0.35833 0.97578 0.56637 0.0
C1158 C 0.32616 0.95873 0.53349 0.0
H1159 H 0.37369 0.97635 0.63421 0.0
H1160 H 0.39138 0.99956 0.5588 0.0
C1161 C 0.28396 0.92666 0.54372 0.0
C1162 C 0.1312 0.34878 0.5975 0.0
C1163 C 0.09597 0.33765 0.62488 0.0
H1164 H 0.15356 0.35818 0.53127 0.0
C1165 C 0.05514 0.32488 0.60622 0.0
H1166 H 0.16267 0.35751 0.61133 0.0
C1167 C 0.04943 0.32331 0.56096 0.0
C1168 C 0.08469 0.33545 0.5333 0.0
H1169 H 0.02705 0.31424 0.62661 0.0
H1170 H 1.01737 0.31305 0.54777 0.0
C1171 C 0.12577 0.34851 0.55191 0.0
C1172 C 0.68769 0.73418 0.55552 0.0
C1173 C 0.67879 0.69333 0.53975 0.0
H1174 H 0.70611 0.77763 0.61094 0.0
C1175 C 0.67799 0.66316 0.56965 0.0
H1176 H 0.68808 0.75793 0.53326 0.0
C1177 C 0.68691 0.67383 0.61413 0.0
C1178 C 0.69789 0.71537 0.62985 0.0
H1179 H 0.67029 0.63107 0.55872 0.0
H1180 H 0.68663 0.64983 0.63585 0.0
C1181 C 0.69767 0.7453 0.60006 0.0
C1182 C 0.47038 0.41547 0.7633 0.0
C1183 C 0.44908 0.38216 0.79402 0.0
H1184 H 0.47993 0.43198 0.69502 0.0
C1185 C 0.42694 0.33884 0.77901 0.0
H1186 H 0.48805 0.4492 0.77371 0.0
C1187 C 0.42159 0.3294 0.73423 0.0
C1188 C 0.43938 0.36293 0.70379 0.0
H1189 H 0.41075 0.31227 0.80155 0.0
H1190 H 0.40187 0.29594 0.72331 0.0
C1191 C 0.46564 0.40583 0.71832 0.0
C1192 C 0.63654 0.07256 0.7199 0.0
C1193 C 0.63573 0.0376 0.69726 0.0
H1194 H 0.63232 0.09823 0.78244 0.0
C1195 C 0.62396 0.99908 0.71953 0.0
H1196 H 0.64544 0.10264 0.70347 0.0
C1197 C 0.61534 0.99637 0.76416 0.0
C1198 C 0.61895 0.0322 0.78723 0.0
H1199 H 0.62319 0.97173 0.70291 0.0
H1200 H 0.6087 0.96724 0.78115 0.0
C1201 C 0.62899 0.07016 0.7649 0.0
C1202 C 0.96897 0.60926 0.78247 0.0
C1203 C 1.0098 0.61542 0.79462 0.0
H1204 H 0.92698 0.60465 0.72937 0.0
C1205 C 0.03613 0.61279 0.76223 0.0
H1206 H 0.94791 0.61083 0.80678 0.0
C1207 C 0.02437 0.60993 0.71801 0.0
C1208 C 0.98551 0.60805 0.70594 0.0
H1209 H 0.06767 0.61727 0.77057 0.0
H1210 H 0.04715 0.61278 0.69323 0.0
C1211 C 0.95679 0.60533 0.73831 0.0
C1212 C 0.6885 0.5833 0.26955 0.0
C1213 C 0.65713 0.59338 0.28307 0.0
H1214 H 0.73036 0.58685 0.21802 0.0
C1215 C 0.64153 0.61246 0.25333 0.0
H1216 H 0.70125 0.56896 0.29215 0.0
C1217 C 0.65921 0.6241 0.21171 0.0
C1218 C 0.69168 0.61545 0.19881 0.0
H1219 H 0.61781 0.62105 0.26318 0.0
H1220 H 0.64832 0.64078 0.19001 0.0
C1221 C 0.70515 0.59361 0.22735 0.0
C1222 C 0.41543 0.09061 0.23614 0.0
C1223 C 0.43434 0.07591 0.20564 0.0
H1224 H 0.40572 0.09846 0.30351 0.0
C1225 C 0.46345 0.06295 0.21984 0.0
H1226 H 0.39388 0.10203 0.22538 0.0
C1227 C 0.46986 0.06019 0.26473 0.0
C1228 C 0.44755 0.07094 0.29566 0.0
H1229 H 0.47896 0.05238 0.19641 0.0
H1230 H 0.48972 0.04667 0.27503 0.0
C1231 C 0.42262 0.08893 0.28082 0.0
C1232 C 0.96768 0.35936 0.28094 0.0
C1233 C 1.00735 0.39524 0.29454 0.0
H1234 H 0.92795 0.32184 0.2263 0.0
C1235 C 0.03345 0.42582 0.26328 0.0
H1236 H 0.94677 0.33544 0.3043 0.0
C1237 C 0.02292 0.41759 0.21872 0.0
C1238 C 0.98543 0.37961 0.20518 0.0
H1239 H 0.06408 0.45392 0.27269 0.0
H1240 H 0.04571 0.43901 0.1948 0.0
C1241 C 0.95669 0.35173 0.23644 0.0
C1242 C 0.26674 0.94903 0.3338 0.0
C1243 C 0.29783 0.93561 0.33549 0.0
H1244 H 0.20554 0.93753 0.30823 0.0
C1245 C 0.28984 0.89904 0.31033 0.0
H1246 H 0.27166 0.9772 0.35234 0.0
C1247 C 0.25154 0.8761 0.28508 0.0
C1248 C 0.22033 0.88933 0.28383 0.0
H1249 H 0.31292 0.88777 0.3105 0.0
H1250 H 0.24625 0.84765 0.2668 0.0
C1251 C 0.22872 0.92638 0.30822 0.0
C1252 C 0.15106 0.29929 0.31534 0.0
C1253 C 0.18963 0.32995 0.29544 0.0
H1254 H 0.09596 0.28775 0.35296 0.0
C1255 C 0.20093 0.37404 0.29809 0.0
H1256 H 0.14114 0.26517 0.31419 0.0
C1257 C 0.17532 0.38716 0.32071 0.0
C1258 C 0.13725 0.3567 0.34142 0.0
H1259 H 0.23028 0.39894 0.28329 0.0
H1260 H 0.18567 0.42138 0.32222 0.0
C1261 C 0.12523 0.31244 0.33785 0.0
C1262 C 0.66982 0.83842 0.30506 0.0
C1263 C 0.71338 0.86435 0.29243 0.0
H1264 H 0.62333 0.78443 0.34256 0.0
C1265 C 0.74371 0.85381 0.30949 0.0
H1266 H 0.64533 0.84538 0.29298 0.0
C1267 C 0.73101 0.81892 0.33845 0.0
C1268 C 0.6875 0.79318 0.35132 0.0
H1269 H 0.77749 0.87285 0.30087 0.0
H1270 H 0.75553 0.81209 0.35073 0.0
C1271 C 0.65708 0.80337 0.33381 0.0
C1272 C 0.83649 0.15963 0.18756 0.0
C1273 C 0.84732 0.12657 0.18746 0.0
H1274 H 0.85198 0.22308 0.16689 0.0
C1275 C 0.88473 0.13433 0.16504 0.0
H1276 H 0.80821 0.15544 0.20448 0.0
C1277 C 0.9107 0.1742 0.14406 0.0
C1278 C 0.89933 0.20689 0.14397 0.0
H1279 H 0.89424 0.10988 0.16414 0.0
H1280 H 0.93958 0.17932 0.12761 0.0
C1281 C 0.86165 0.19875 0.16577 0.0
C1282 C 0.88365 0.6824 0.1701 0.0
C1283 C 0.87135 0.71049 0.15119 0.0
H1284 H 0.93125 0.67588 0.20689 0.0
C1285 C 0.90006 0.75559 0.15537 0.0
H1286 H 0.86243 0.64759 0.16785 0.0
C1287 C 0.94022 0.77206 0.17735 0.0
C1288 C 0.95235 0.74389 0.19653 0.0
H1289 H 0.89175 0.77828 0.14115 0.0
H1290 H 0.96168 0.80685 0.17935 0.0
C1291 C 0.92327 0.69882 0.19277 0.0
C1292 C 0.29447 0.1626 0.16601 0.0
C1293 C 0.32294 0.1998 0.19071 0.0
H1294 H 0.28685 0.11175 0.12254 0.0
C1295 C 0.36781 0.21526 0.18763 0.0
H1296 H 0.25984 0.14979 0.16711 0.0
C1297 C 0.38359 0.19362 0.16145 0.0
C1298 C 0.35497 0.15566 0.13772 0.0
H1299 H 0.39093 0.24407 0.20577 0.0
H1300 H 0.41815 0.20595 0.16087 0.0
C1301 C 0.31017 0.14084 0.14016 0.0
C1302 C 0.9079 0.16571 0.64067 0.0
C1303 C 0.87878 0.18156 0.64005 0.0
H1304 H 0.96875 0.17434 0.66407 0.0
C1305 C 0.88929 0.21886 0.66507 0.0
H1306 H 0.90085 0.13696 0.62185 0.0
C1307 C 0.92786 0.23979 0.68995 0.0
C1308 C 0.95746 0.22446 0.69007 0.0
H1309 H 0.86757 0.23179 0.6657 0.0
H1310 H 0.93468 0.26854 0.70861 0.0
C1311 C 0.94687 0.18706 0.66504 0.0
C1312 C 0.90588 0.73615 0.64824 0.0
C1313 C 0.89494 0.69216 0.64768 0.0
H1314 H 0.88844 0.78344 0.66828 0.0
C1315 C 0.85686 0.66211 0.66862 0.0
H1316 H 0.93496 0.76031 0.63242 0.0
C1317 C 0.83091 0.67553 0.68999 0.0
C1318 C 0.84139 0.71938 0.69036 0.0
H1319 H 0.84739 0.62811 0.66926 0.0
H1320 H 0.80225 0.65111 0.7061 0.0
C1321 C 0.87919 0.7495 0.6688 0.0
C1322 C 0.29656 0.13479 0.66657 0.0
C1323 C 0.32521 0.12604 0.69036 0.0
H1324 H 0.28869 0.17783 0.62381 0.0
C1325 C 0.37007 0.1553 0.6865 0.0
H1326 H 0.26192 0.11309 0.66832 0.0
C1327 C 0.3857 0.19253 0.66037 0.0
C1328 C 0.35694 0.20183 0.63746 0.0
H1329 H 0.39333 0.14961 0.70393 0.0
H1330 H 0.4203 0.21457 0.65909 0.0
C1331 C 0.31212 0.17207 0.64077 0.0
C1332 C 0.2035 0.83032 0.79791 0.0
C1333 C 0.1923 0.86314 0.7958 0.0
H1334 H 0.18854 0.76795 0.82202 0.0
C1335 C 0.15436 0.85561 0.81681 0.0
H1336 H 0.23239 0.83449 0.78227 0.0
C1337 C 0.12902 0.81696 0.83978 0.0
C1338 C 0.14091 0.78467 0.84274 0.0
H1339 H 0.14457 0.87985 0.81614 0.0
H1340 H 0.10018 0.81267 0.85565 0.0
C1341 C 0.17836 0.79189 0.82101 0.0
C1342 C 0.25466 0.38421 0.78541 0.0
C1343 C 0.22297 0.33983 0.78229 0.0
H1344 H 0.31581 0.43282 0.81286 0.0
C1345 C 0.23017 0.31009 0.80555 0.0
H1346 H 0.25028 0.40819 0.76806 0.0
C1347 C 0.26758 0.32438 0.83178 0.0
C1348 C 0.29916 0.36882 0.83527 0.0
H1349 H 0.20656 0.27577 0.8041 0.0
H1350 H 0.27168 0.30034 0.84933 0.0
C1351 C 0.29231 0.39847 0.8113 0.0
C1352 C 0.65825 0.82189 0.80639 0.0
C1353 C 0.702 0.84106 0.79391 0.0
H1354 H 0.61095 0.82648 0.84566 0.0
C1355 C 0.73179 0.88132 0.81317 0.0
H1356 H 0.63423 0.79077 0.79263 0.0
C1357 C 0.7184 0.90157 0.844 0.0
C1358 C 0.67472 0.88235 0.85665 0.0
H1359 H 0.76571 0.89707 0.80485 0.0
H1360 H 0.74256 0.93256 0.8579 0.0
C1361 C 0.6448 0.84226 0.83712 0.0
C1362 C 0.53899 0.46128 0.49099 0.0
C1363 C 0.50811 0.45835 0.52097 0.0
H1364 H 0.58725 0.49996 0.44458 0.0
C1365 C 0.50177 0.49434 0.52509 0.0
H1366 H 0.54475 0.43443 0.48657 0.0
C1367 C 0.5262 0.53233 0.50073 0.0
C1368 C 0.55777 0.53557 0.47139 0.0
H1369 H 0.47806 0.4934 0.54757 0.0
H1370 H 0.5209 0.55943 0.50555 0.0
C1371 C 0.56335 0.49914 0.4667 0.0
C1372 C 0.59975 0.02586 0.49395 0.0
C1373 C 0.62899 0.06907 0.50726 0.0
H1374 H 0.54173 0.98192 0.45833 0.0
C1375 C 0.62089 0.10175 0.49279 0.0
H1376 H 0.60476 0.99961 0.50402 0.0
C1377 C 0.58424 0.09133 0.46643 0.0
C1378 C 0.55496 0.04803 0.45348 0.0
H1379 H 0.64256 0.1353 0.5022 0.0
H1380 H 0.57873 0.11729 0.45644 0.0
C1381 C 0.56345 1.01555 0.46744 0.0
C1382 C 0.05511 0.53324 0.49024 0.0
C1383 C 0.02486 0.49806 0.46422 0.0
H1384 H 0.06615 0.58271 0.53749 0.0
C1385 C 0.98091 0.48672 0.46627 0.0
H1386 H 0.0891 0.54288 0.48981 0.0
C1387 C 0.96764 0.50977 0.49349 0.0
C1388 C 0.99782 0.54455 0.51998 0.0
H1389 H 0.9565 0.45976 0.44686 0.0
H1390 H 0.93362 0.49999 0.49414 0.0
C1391 C 0.04178 0.55599 0.51781 0.0
C1392 C 0.56023 0.54367 0.97928 0.0
C1393 C 0.55507 0.5073 0.9558 0.0
H1394 H 0.59793 0.59408 0.02614 0.0
C1395 C 0.58671 0.49501 0.96148 0.0
H1396 H 0.53649 0.55396 0.97603 0.0
C1397 C 0.62242 0.51838 0.99002 0.0
C1398 C 0.62701 0.55418 0.01423 0.0
H1399 H 0.58378 0.46709 0.944 0.0
H1400 H 0.64605 0.50799 0.99365 0.0
C1401 C 0.59548 0.56656 0.00828 0.0
C1402 C 0.55976 0.05636 0.97568 0.0
C1403 C 0.55218 1.01366 0.98097 0.0
H1404 H 0.54316 0.10452 0.99364 0.0
C1405 C 0.51938 0.98647 0.00974 0.0
H1406 H 0.58459 0.07865 0.95389 0.0
C1407 C 0.49553 1.00174 0.03281 0.0
C1408 C 0.50368 0.04465 0.02784 0.0
H1409 H 0.51248 0.95359 0.01489 0.0
H1410 H 0.4707 0.97978 0.0548 0.0
C1411 C 0.53596 0.07152 -0.00138 0.0
C1412 C 0.05689 0.52655 0.99049 0.0
C1413 C 0.02659 0.53073 0.96423 0.0
H1414 H 0.0681 0.48887 0.03777 0.0
C1415 C 0.98278 0.49758 0.96586 0.0
H1416 H 0.09079 0.55135 0.99037 0.0
C1417 C 0.96966 0.46141 0.99292 0.0
C1418 C 0.99988 0.45757 0.01966 0.0
H1419 H 0.95837 0.49956 0.94623 0.0
H1420 H 0.93574 0.4367 0.99324 0.0
C1421 C 0.04371 0.49066 0.01791 0.0
loop_
_geom_bond_atom_site_label_1
_geom_bond_atom_site_label_2
_geom_bond_distance
_geom_bond_site_symmetry_2
_ccdc_geom_bond_type
Co0 O2 2.143 1_655 S
Co0 O8 2.074 1_655 S
Co0 O11 2.093 . S
Co0 O24 2.097 . S
Co0 N41 2.151 1_655 S
Co0 N49 2.214 . S
Co1 O2 2.160 . S
Co1 O7 2.058 . S
Co1 O17 2.057 . S
Co1 O32 2.037 1_455 S
Co1 N36 2.145 . S
Co1 N57 2.257 . S
O2 Co0 2.143 1_455 S
O2 Co1 2.160 . S
C3 O4 1.278 . S
C3 O11 1.224 . S
O4 C3 1.278 . S
C5 O6 1.245 . S
C5 O17 1.232 . S
O6 C5 1.245 . S
O7 Co1 2.058 . S
O7 C33 1.269 . S
O8 Co0 2.074 1_455 S
O8 C33 1.257 . S
H9 C34 0.930 . S
H10 C40 0.930 . S
O11 Co0 2.093 . S
O11 C3 1.224 . S
H12 C44 0.929 . S
H13 C46 0.930 . S
H14 C47 0.930 . S
H15 C45 0.929 . S
H16 C48 0.928 . S
O17 Co1 2.057 . S
O17 C5 1.232 . S
H18 C37 0.929 . S
H19 C38 0.929 . S
H20 C50 0.931 . S
H21 C42 0.929 . S
H22 C51 0.930 . S
H23 C43 0.931 . S
O24 Co0 2.097 . S
O24 C52 1.214 . S
H25 C53 0.929 . S
H26 C54 0.929 . S
H27 C55 0.930 . S
H28 C56 0.929 . S
H29 C58 0.930 . S
H30 C35 0.930 . S
H31 C39 0.930 . S
O32 Co1 2.037 1_655 S
O32 C52 1.234 . S
C33 O7 1.269 . S
C33 O8 1.257 . S
C34 H9 0.930 . S
C34 C37 1.388 . S
C34 C39 1.418 . S
C35 H30 0.930 . S
C35 C38 1.404 . S
C35 C39 1.353 . S
N36 Co1 2.145 . S
N36 C37 1.397 . S
N36 C38 1.334 . S
C37 H18 0.929 . S
C37 C34 1.388 . S
C37 N36 1.397 . S
C38 H19 0.929 . S
C38 C35 1.404 . S
C38 N36 1.334 . S
C39 H31 0.930 . S
C39 C34 1.418 . S
C39 C35 1.353 . S
C40 H10 0.930 . S
C40 N41 1.330 . S
C40 C42 1.446 . S
N41 Co0 2.151 1_455 S
N41 C40 1.330 . S
N41 C45 1.418 . S
C42 H21 0.929 . S
C42 C40 1.446 . S
C42 C43 1.332 . S
C43 H23 0.931 . S
C43 C42 1.332 . S
C43 C44 1.267 . S
C44 H12 0.929 . S
C44 C43 1.267 . S
C44 C45 1.251 . S
C45 H15 0.929 . S
C45 N41 1.418 . S
C45 C44 1.251 . S
C46 H13 0.930 . S
C46 C48 1.406 . S
C46 C51 1.261 . S
C47 H14 0.930 . S
C47 N49 1.325 . S
C47 C50 1.357 . S
C48 H16 0.928 . S
C48 C46 1.406 . S
C48 N49 1.261 . S
N49 Co0 2.214 . S
N49 C47 1.325 . S
N49 C48 1.261 . S
C50 H20 0.931 . S
C50 C47 1.357 . S
C50 C51 1.312 . S
C51 H22 0.930 . S
C51 C46 1.261 . S
C51 C50 1.312 . S
C52 O24 1.214 . S
C52 O32 1.234 . S
C53 H25 0.929 . S
C53 C56 1.391 1_455 S
C53 C58 1.391 . S
C54 H26 0.929 . S
C54 C55 1.390 . S
C54 N57 1.391 1_655 S
C55 H27 0.930 . S
C55 C54 1.390 . S
C55 C56 1.392 . S
C56 H28 0.929 . S
C56 C53 1.391 1_655 S
C56 C55 1.392 . S
N57 Co1 2.257 . S
N57 C54 1.391 1_455 S
N57 C58 1.388 . S
C58 H29 0.930 . S
C58 C53 1.391 . S
C58 N57 1.388 . S
Co59 O61 2.143 . S
Co59 O67 2.074 . S
Co59 O70 2.093 . S
Co59 O83 2.097 . S
Co59 N100 2.151 . S
Co59 N108 2.214 . S
Co60 O61 2.160 . S
Co60 O66 2.058 . S
Co60 O76 2.057 . S
Co60 O91 2.037 . S
Co60 N95 2.145 . S
Co60 N116 2.257 . S
O61 Co59 2.143 . S
O61 Co60 2.160 . S
C62 O63 1.278 . S
C62 O70 1.224 . S
O63 C62 1.278 . S
C64 O65 1.245 . S
C64 O76 1.232 . S
O65 C64 1.245 . S
O66 Co60 2.058 . S
O66 C92 1.269 . S
O67 Co59 2.074 . S
O67 C92 1.257 . S
H68 C93 0.930 . S
H69 C99 0.930 . S
O70 Co59 2.093 . S
O70 C62 1.224 . S
H71 C103 0.929 . S
H72 C105 0.930 . S
H73 C106 0.930 . S
H74 C104 0.929 . S
H75 C107 0.928 . S
O76 Co60 2.057 . S
O76 C64 1.232 . S
H77 C96 0.929 . S
H78 C97 0.929 . S
H79 C109 0.931 . S
H80 C101 0.929 . S
H81 C110 0.930 . S
H82 C102 0.931 . S
O83 Co59 2.097 . S
O83 C111 1.214 . S
H84 C112 0.929 . S
H85 C113 0.929 . S
H86 C114 0.930 . S
H87 C115 0.929 . S
H88 C117 0.930 . S
H89 C94 0.930 . S
H90 C98 0.930 . S
O91 Co60 2.037 . S
O91 C111 1.234 . S
C92 O66 1.269 . S
C92 O67 1.257 . S
C93 H68 0.930 . S
C93 C96 1.388 . S
C93 C98 1.418 . S
C94 H89 0.930 . S
C94 C97 1.404 . S
C94 C98 1.353 . S
N95 Co60 2.145 . S
N95 C96 1.397 . S
N95 C97 1.334 . S
C96 H77 0.929 . S
C96 C93 1.388 . S
C96 N95 1.397 . S
C97 H78 0.929 . S
C97 C94 1.404 . S
C97 N95 1.334 . S
C98 H90 0.930 . S
C98 C93 1.418 . S
C98 C94 1.353 . S
C99 H69 0.930 . S
C99 N100 1.330 . S
C99 C101 1.446 . S
N100 Co59 2.151 . S
N100 C99 1.330 . S
N100 C104 1.418 . S
C101 H80 0.929 . S
C101 C99 1.446 . S
C101 C102 1.332 . S
C102 H82 0.931 . S
C102 C101 1.332 . S
C102 C103 1.267 . S
C103 H71 0.929 . S
C103 C102 1.267 . S
C103 C104 1.251 . S
C104 H74 0.929 . S
C104 N100 1.418 . S
C104 C103 1.251 . S
C105 H72 0.930 . S
C105 C107 1.406 . S
C105 C110 1.261 . S
C106 H73 0.930 . S
C106 N108 1.325 . S
C106 C109 1.357 . S
C107 H75 0.928 . S
C107 C105 1.406 . S
C107 N108 1.261 . S
N108 Co59 2.214 . S
N108 C106 1.325 . S
N108 C107 1.261 . S
C109 H79 0.931 . S
C109 C106 1.357 . S
C109 C110 1.312 . S
C110 H81 0.930 . S
C110 C105 1.261 . S
C110 C109 1.312 . S
C111 O83 1.214 . S
C111 O91 1.234 . S
C112 H84 0.929 . S
C112 C115 1.391 . S
C112 C117 1.391 . S
C113 H85 0.929 . S
C113 C114 1.390 . S
C113 N116 1.391 . S
C114 H86 0.930 . S
C114 C113 1.390 . S
C114 C115 1.392 . S
C115 H87 0.929 . S
C115 C112 1.391 . S
C115 C114 1.392 . S
N116 Co60 2.257 . S
N116 C113 1.391 . S
N116 C117 1.388 . S
C117 H88 0.930 . S
C117 C112 1.391 . S
C117 N116 1.388 . S
Co118 O120 2.143 . S
Co118 O126 2.074 . S
Co118 O129 2.093 . S
Co118 O142 2.097 . S
Co118 N159 2.151 . S
Co118 N167 2.214 . S
Co119 O120 2.160 . S
Co119 O125 2.058 1_545 S
Co119 O135 2.057 1_545 S
Co119 O150 2.037 . S
Co119 N154 2.145 1_545 S
Co119 N175 2.257 . S
O120 Co118 2.143 . S
O120 Co119 2.160 . S
C121 O122 1.278 . S
C121 O129 1.224 . S
O122 C121 1.278 . S
C123 O124 1.245 . S
C123 O135 1.232 . S
O124 C123 1.245 . S
O125 Co119 2.058 1_565 S
O125 C151 1.270 1_565 S
O126 Co118 2.074 . S
O126 C151 1.257 . S
H127 C152 0.930 . S
H128 C158 0.930 1_545 S
O129 Co118 2.093 . S
O129 C121 1.224 . S
H130 C162 0.929 . S
H131 C164 0.930 . S
H132 C165 0.930 . S
H133 C163 0.929 . S
H134 C166 0.928 . S
O135 Co119 2.057 1_565 S
O135 C123 1.232 . S
H136 C155 0.929 . S
H137 C156 0.929 . S
H138 C168 0.931 . S
H139 C160 0.929 . S
H140 C169 0.930 . S
H141 C161 0.931 . S
O142 Co118 2.097 . S
O142 C170 1.214 . S
H143 C171 0.929 . S
H144 C172 0.929 . S
H145 C173 0.930 . S
H146 C174 0.929 . S
H147 C176 0.930 1_565 S
H148 C153 0.930 . S
H149 C157 0.930 . S
O150 Co119 2.037 . S
O150 C170 1.234 . S
C151 O125 1.270 1_545 S
C151 O126 1.257 . S
C152 H127 0.930 . S
C152 C155 1.388 . S
C152 C157 1.418 1_545 S
C153 H148 0.930 . S
C153 C156 1.404 . S
C153 C157 1.353 . S
N154 Co119 2.145 1_565 S
N154 C155 1.397 1_565 S
N154 C156 1.334 . S
C155 H136 0.929 . S
C155 C152 1.388 . S
C155 N154 1.397 1_545 S
C156 H137 0.929 . S
C156 C153 1.404 . S
C156 N154 1.334 . S
C157 H149 0.930 . S
C157 C152 1.418 1_565 S
C157 C153 1.353 . S
C158 H128 0.930 1_565 S
C158 N159 1.330 1_565 S
C158 C160 1.446 . S
N159 Co118 2.151 . S
N159 C158 1.330 1_545 S
N159 C163 1.418 . S
C160 H139 0.929 . S
C160 C158 1.446 . S
C160 C161 1.332 . S
C161 H141 0.931 . S
C161 C160 1.332 . S
C161 C162 1.267 . S
C162 H130 0.929 . S
C162 C161 1.267 . S
C162 C163 1.251 1_565 S
C163 H133 0.929 . S
C163 N159 1.418 . S
C163 C162 1.251 1_545 S
C164 H131 0.930 . S
C164 C166 1.406 . S
C164 C169 1.261 . S
C165 H132 0.930 . S
C165 N167 1.325 . S
C165 C168 1.357 . S
C166 H134 0.928 . S
C166 C164 1.406 . S
C166 N167 1.261 . S
N167 Co118 2.214 . S
N167 C165 1.325 . S
N167 C166 1.261 . S
C168 H138 0.931 . S
C168 C165 1.357 . S
C168 C169 1.312 . S
C169 H140 0.930 . S
C169 C164 1.261 . S
C169 C168 1.312 . S
C170 O142 1.214 . S
C170 O150 1.234 . S
C171 H143 0.929 . S
C171 C174 1.391 . S
C171 C176 1.391 . S
C172 H144 0.929 . S
C172 C173 1.390 . S
C172 N175 1.391 . S
C173 H145 0.930 . S
C173 C172 1.390 . S
C173 C174 1.392 . S
C174 H146 0.929 . S
C174 C171 1.391 . S
C174 C173 1.392 . S
N175 Co119 2.257 . S
N175 C172 1.391 . S
N175 C176 1.388 . S
C176 H147 0.930 1_545 S
C176 C171 1.391 . S
C176 N175 1.388 . S
Co177 O179 2.126 1_655 S
Co177 O185 2.067 1_655 S
Co177 O188 2.099 . S
Co177 O201 2.102 . S
Co177 N218 2.147 1_655 S
Co177 N226 2.230 . S
Co178 O179 2.160 . S
Co178 O184 2.058 . S
Co178 O194 2.057 . S
Co178 O209 2.037 1_455 S
Co178 N213 2.145 . S
Co178 N234 2.257 . S
O179 Co177 2.126 1_455 S
O179 Co178 2.160 . S
C180 O181 1.278 1_655 S
C180 O188 1.224 . S
O181 C180 1.278 1_455 S
C182 O183 1.245 . S
C182 O194 1.232 . S
O183 C182 1.245 . S
O184 Co178 2.058 . S
O184 C210 1.269 . S
O185 Co177 2.067 1_455 S
O185 C210 1.257 . S
H186 C211 0.930 . S
H187 C217 0.930 . S
O188 Co177 2.099 . S
O188 C180 1.224 . S
H189 C221 0.929 . S
H190 C223 0.930 . S
H191 C224 0.930 . S
H192 C222 0.929 . S
H193 C225 0.928 . S
O194 Co178 2.057 . S
O194 C182 1.232 . S
H195 C214 0.929 . S
H196 C215 0.929 . S
H197 C227 0.931 . S
H198 C219 0.929 . S
H199 C228 0.930 . S
H200 C220 0.931 . S
O201 Co177 2.102 . S
O201 C229 1.214 . S
H202 C230 0.929 . S
H203 C231 0.929 . S
H204 C232 0.930 . S
H205 C233 0.929 . S
H206 C235 0.930 . S
H207 C212 0.930 . S
H208 C216 0.930 . S
O209 Co178 2.037 1_655 S
O209 C229 1.234 . S
C210 O184 1.269 . S
C210 O185 1.257 . S
C211 H186 0.930 . S
C211 C214 1.388 . S
C211 C216 1.418 . S
C212 H207 0.930 . S
C212 C215 1.404 . S
C212 C216 1.353 . S
N213 Co178 2.145 . S
N213 C214 1.397 . S
N213 C215 1.334 . S
C214 H195 0.929 . S
C214 C211 1.388 . S
C214 N213 1.397 . S
C215 H196 0.929 . S
C215 C212 1.404 . S
C215 N213 1.334 . S
C216 H208 0.930 . S
C216 C211 1.418 . S
C216 C212 1.353 . S
C217 H187 0.930 . S
C217 N218 1.330 . S
C217 C219 1.446 . S
N218 Co177 2.147 1_455 S
N218 C217 1.330 . S
N218 C222 1.418 . S
C219 H198 0.929 . S
C219 C217 1.446 . S
C219 C220 1.332 . S
C220 H200 0.931 . S
C220 C219 1.332 . S
C220 C221 1.267 . S
C221 H189 0.929 . S
C221 C220 1.267 . S
C221 C222 1.251 . S
C222 H192 0.929 . S
C222 N218 1.418 . S
C222 C221 1.251 . S
C223 H190 0.930 . S
C223 C225 1.406 . S
C223 C228 1.261 . S
C224 H191 0.930 . S
C224 N226 1.325 . S
C224 C227 1.357 . S
C225 H193 0.928 . S
C225 C223 1.406 . S
C225 N226 1.261 . S
N226 Co177 2.230 . S
N226 C224 1.325 . S
N226 C225 1.261 . S
C227 H197 0.931 . S
C227 C224 1.357 . S
C227 C228 1.312 . S
C228 H199 0.930 . S
C228 C223 1.261 . S
C228 C227 1.312 . S
C229 O201 1.214 . S
C229 O209 1.234 . S
C230 H202 0.929 . S
C230 C233 1.391 1_455 S
C230 C235 1.391 . S
C231 H203 0.929 . S
C231 C232 1.390 . S
C231 N234 1.391 1_655 S
C232 H204 0.930 . S
C232 C231 1.390 . S
C232 C233 1.392 . S
C233 H205 0.929 . S
C233 C230 1.391 1_655 S
C233 C232 1.392 . S
N234 Co178 2.257 . S
N234 C231 1.391 1_455 S
N234 C235 1.388 . S
C235 H206 0.930 . S
C235 C230 1.391 . S
C235 N234 1.388 . S
Co236 O238 2.143 . S
Co236 O244 2.074 . S
Co236 O247 2.093 . S
Co236 O260 2.097 . S
Co236 N277 2.151 . S
Co236 N285 2.214 . S
Co237 O238 2.160 . S
Co237 O243 2.058 . S
Co237 O253 2.057 . S
Co237 O268 2.037 . S
Co237 N272 2.145 . S
Co237 N293 2.257 . S
O238 Co236 2.143 . S
O238 Co237 2.160 . S
C239 O240 1.278 . S
C239 O247 1.224 . S
O240 C239 1.278 . S
C241 O242 1.245 . S
C241 O253 1.232 . S
O242 C241 1.245 . S
O243 Co237 2.058 . S
O243 C269 1.269 . S
O244 Co236 2.074 . S
O244 C269 1.257 . S
H245 C270 0.930 . S
H246 C276 0.930 . S
O247 Co236 2.093 . S
O247 C239 1.224 . S
H248 C280 0.929 . S
H249 C282 0.930 . S
H250 C283 0.930 . S
H251 C281 0.929 . S
H252 C284 0.928 . S
O253 Co237 2.057 . S
O253 C241 1.232 . S
H254 C273 0.929 . S
H255 C274 0.929 . S
H256 C286 0.931 . S
H257 C278 0.929 . S
H258 C287 0.930 . S
H259 C279 0.931 . S
O260 Co236 2.097 . S
O260 C288 1.214 . S
H261 C289 0.929 . S
H262 C290 0.929 . S
H263 C291 0.930 . S
H264 C292 0.929 . S
H265 C294 0.930 . S
H266 C271 0.930 . S
H267 C275 0.930 . S
O268 Co237 2.037 . S
O268 C288 1.234 . S
C269 O243 1.269 . S
C269 O244 1.257 . S
C270 H245 0.930 . S
C270 C273 1.388 . S
C270 C275 1.418 . S
C271 H266 0.930 . S
C271 C274 1.404 . S
C271 C275 1.353 . S
N272 Co237 2.145 . S
N272 C273 1.397 . S
N272 C274 1.334 . S
C273 H254 0.929 . S
C273 C270 1.388 . S
C273 N272 1.397 . S
C274 H255 0.929 . S
C274 C271 1.404 . S
C274 N272 1.334 . S
C275 H267 0.930 . S
C275 C270 1.418 . S
C275 C271 1.353 . S
C276 H246 0.930 . S
C276 N277 1.330 . S
C276 C278 1.446 . S
N277 Co236 2.151 . S
N277 C276 1.330 . S
N277 C281 1.418 . S
C278 H257 0.929 . S
C278 C276 1.446 . S
C278 C279 1.332 . S
C279 H259 0.931 . S
C279 C278 1.332 . S
C279 C280 1.267 . S
C280 H248 0.929 . S
C280 C279 1.267 . S
C280 C281 1.251 . S
C281 H251 0.929 . S
C281 N277 1.418 . S
C281 C280 1.251 . S
C282 H249 0.930 . S
C282 C284 1.406 . S
C282 C287 1.261 . S
C283 H250 0.930 . S
C283 N285 1.325 . S
C283 C286 1.357 . S
C284 H252 0.928 . S
C284 C282 1.406 . S
C284 N285 1.261 . S
N285 Co236 2.214 . S
N285 C283 1.325 . S
N285 C284 1.261 . S
C286 H256 0.931 . S
C286 C283 1.357 . S
C286 C287 1.312 . S
C287 H258 0.930 . S
C287 C282 1.261 . S
C287 C286 1.312 . S
C288 O260 1.214 . S
C288 O268 1.234 . S
C289 H261 0.929 . S
C289 C292 1.391 . S
C289 C294 1.391 . S
C290 H262 0.929 . S
C290 C291 1.390 . S
C290 N293 1.391 . S
C291 H263 0.930 . S
C291 C290 1.390 . S
C291 C292 1.392 . S
C292 H264 0.929 . S
C292 C289 1.391 . S
C292 C291 1.392 . S
N293 Co237 2.257 . S
N293 C290 1.391 . S
N293 C294 1.388 . S
C294 H265 0.930 . S
C294 C289 1.391 . S
C294 N293 1.388 . S
Co295 O297 2.143 1_565 S
Co295 O303 2.074 . S
Co295 O306 2.093 . S
Co295 O319 2.097 . S
Co295 N336 2.151 1_565 S
Co295 N344 2.214 . S
Co296 O297 2.160 . S
Co296 O302 2.058 . S
Co296 O312 2.057 . S
Co296 O327 2.037 1_545 S
Co296 N331 2.145 . S
Co296 N352 2.257 1_545 S
O297 Co295 2.143 1_545 S
O297 Co296 2.160 . S
C298 O299 1.278 . S
C298 O306 1.224 . S
O299 C298 1.278 . S
C300 O301 1.245 . S
C300 O312 1.232 . S
O301 C300 1.245 . S
O302 Co296 2.058 . S
O302 C328 1.269 . S
O303 Co295 2.074 . S
O303 C328 1.257 1_565 S
H304 C329 0.930 1_565 S
H305 C335 0.930 . S
O306 Co295 2.093 . S
O306 C298 1.224 . S
H307 C339 0.929 . S
H308 C341 0.930 . S
H309 C342 0.930 . S
H310 C340 0.929 . S
H311 C343 0.928 . S
O312 Co296 2.057 . S
O312 C300 1.232 . S
H313 C332 0.929 1_565 S
H314 C333 0.929 . S
H315 C345 0.931 . S
H316 C337 0.929 . S
H317 C346 0.930 . S
H318 C338 0.931 . S
O319 Co295 2.097 . S
O319 C347 1.214 . S
H320 C348 0.929 1_545 S
H321 C349 0.929 . S
H322 C350 0.930 . S
H323 C351 0.929 . S
H324 C353 0.930 . S
H325 C330 0.930 . S
H326 C334 0.930 . S
O327 Co296 2.037 1_565 S
O327 C347 1.234 . S
C328 O302 1.269 . S
C328 O303 1.257 1_545 S
C329 H304 0.930 1_545 S
C329 C332 1.388 . S
C329 C334 1.418 . S
C330 H325 0.930 . S
C330 C333 1.404 . S
C330 C334 1.353 . S
N331 Co296 2.145 . S
N331 C332 1.397 . S
N331 C333 1.334 . S
C332 H313 0.929 1_545 S
C332 C329 1.388 . S
C332 N331 1.397 . S
C333 H314 0.929 . S
C333 C330 1.404 . S
C333 N331 1.334 . S
C334 H326 0.930 . S
C334 C329 1.418 . S
C334 C330 1.353 . S
C335 H305 0.930 . S
C335 N336 1.330 . S
C335 C337 1.446 . S
N336 Co295 2.151 1_545 S
N336 C335 1.330 . S
N336 C340 1.418 . S
C337 H316 0.929 . S
C337 C335 1.446 . S
C337 C338 1.332 . S
C338 H318 0.931 . S
C338 C337 1.332 . S
C338 C339 1.267 . S
C339 H307 0.929 . S
C339 C338 1.267 . S
C339 C340 1.251 . S
C340 H310 0.929 . S
C340 N336 1.418 . S
C340 C339 1.251 . S
C341 H308 0.930 . S
C341 C343 1.406 . S
C341 C346 1.261 . S
C342 H309 0.930 . S
C342 N344 1.325 . S
C342 C345 1.357 . S
C343 H311 0.928 . S
C343 C341 1.406 . S
C343 N344 1.261 . S
N344 Co295 2.214 . S
N344 C342 1.325 . S
N344 C343 1.261 . S
C345 H315 0.931 . S
C345 C342 1.357 . S
C345 C346 1.312 . S
C346 H317 0.930 . S
C346 C341 1.261 . S
C346 C345 1.312 . S
C347 O319 1.214 . S
C347 O327 1.234 . S
C348 H320 0.929 1_565 S
C348 C351 1.391 . S
C348 C353 1.391 1_565 S
C349 H321 0.929 . S
C349 C350 1.390 . S
C349 N352 1.391 . S
C350 H322 0.930 . S
C350 C349 1.390 . S
C350 C351 1.392 . S
C351 H323 0.929 . S
C351 C348 1.391 . S
C351 C350 1.392 . S
N352 Co296 2.257 1_565 S
N352 C349 1.391 . S
N352 C353 1.388 1_565 S
C353 H324 0.930 . S
C353 C348 1.391 1_545 S
C353 N352 1.388 1_545 S
Co354 O356 2.143 . S
Co354 O362 2.074 . S
Co354 O365 2.093 . S
Co354 O378 2.097 . S
Co354 N395 2.151 . S
Co354 N403 2.214 . S
Co355 O356 2.160 . S
Co355 O361 2.058 . S
Co355 O371 2.057 . S
Co355 O386 2.037 . S
Co355 N390 2.145 . S
Co355 N411 2.257 . S
O356 Co354 2.143 . S
O356 Co355 2.160 . S
C357 O358 1.278 . S
C357 O365 1.224 . S
O358 C357 1.278 . S
C359 O360 1.245 . S
C359 O371 1.232 . S
O360 C359 1.245 . S
O361 Co355 2.058 . S
O361 C387 1.269 . S
O362 Co354 2.074 . S
O362 C387 1.257 . S
H363 C388 0.930 . S
H364 C394 0.930 . S
O365 Co354 2.093 . S
O365 C357 1.224 . S
H366 C398 0.929 1_565 S
H367 C400 0.930 . S
H368 C401 0.930 . S
H369 C399 0.929 . S
H370 C402 0.928 . S
O371 Co355 2.057 . S
O371 C359 1.232 . S
H372 C391 0.929 . S
H373 C392 0.929 . S
H374 C404 0.931 . S
H375 C396 0.929 . S
H376 C405 0.930 . S
H377 C397 0.931 1_565 S
O378 Co354 2.097 . S
O378 C406 1.214 . S
H379 C407 0.929 . S
H380 C408 0.929 . S
H381 C409 0.930 . S
H382 C410 0.929 . S
H383 C412 0.930 . S
H384 C389 0.930 . S
H385 C393 0.930 . S
O386 Co355 2.037 . S
O386 C406 1.234 . S
C387 O361 1.269 . S
C387 O362 1.257 . S
C388 H363 0.930 . S
C388 C391 1.388 . S
C388 C393 1.418 . S
C389 H384 0.930 . S
C389 C392 1.404 . S
C389 C393 1.353 . S
N390 Co355 2.145 . S
N390 C391 1.397 . S
N390 C392 1.334 . S
C391 H372 0.929 . S
C391 C388 1.388 . S
C391 N390 1.397 . S
C392 H373 0.929 . S
C392 C389 1.404 . S
C392 N390 1.334 . S
C393 H385 0.930 . S
C393 C388 1.418 . S
C393 C389 1.353 . S
C394 H364 0.930 . S
C394 N395 1.330 . S
C394 C396 1.446 . S
N395 Co354 2.151 . S
N395 C394 1.330 . S
N395 C399 1.418 . S
C396 H375 0.929 . S
C396 C394 1.446 . S
C396 C397 1.332 . S
C397 H377 0.931 1_545 S
C397 C396 1.332 . S
C397 C398 1.267 . S
C398 H366 0.929 1_545 S
C398 C397 1.267 . S
C398 C399 1.251 . S
C399 H369 0.929 . S
C399 N395 1.418 . S
C399 C398 1.251 . S
C400 H367 0.930 . S
C400 C402 1.406 . S
C400 C405 1.261 . S
C401 H368 0.930 . S
C401 N403 1.325 . S
C401 C404 1.357 1_545 S
C402 H370 0.928 . S
C402 C400 1.406 . S
C402 N403 1.261 1_565 S
N403 Co354 2.214 . S
N403 C401 1.325 . S
N403 C402 1.261 1_545 S
C404 H374 0.931 . S
C404 C401 1.357 1_565 S
C404 C405 1.312 . S
C405 H376 0.930 . S
C405 C400 1.261 . S
C405 C404 1.312 . S
C406 O378 1.214 . S
C406 O386 1.234 . S
C407 H379 0.929 . S
C407 C410 1.391 . S
C407 C412 1.391 . S
C408 H380 0.929 . S
C408 C409 1.390 . S
C408 N411 1.391 . S
C409 H381 0.930 . S
C409 C408 1.390 . S
C409 C410 1.392 . S
C410 H382 0.929 . S
C410 C407 1.391 . S
C410 C409 1.392 . S
N411 Co355 2.257 . S
N411 C408 1.391 . S
N411 C412 1.388 . S
C412 H383 0.930 . S
C412 C407 1.391 . S
C412 N411 1.388 . S
Co413 O415 2.143 . S
Co413 O421 2.074 . S
Co413 O424 2.093 . S
Co413 O437 2.097 . S
Co413 N454 2.151 1_655 S
Co413 N462 2.214 . S
Co414 O415 2.160 . S
Co414 O420 2.058 . S
Co414 O430 2.057 . S
Co414 O445 2.037 . S
Co414 N449 2.145 . S
Co414 N470 2.257 . S
O415 Co413 2.143 . S
O415 Co414 2.160 . S
C416 O417 1.278 . S
C416 O424 1.224 . S
O417 C416 1.278 . S
C418 O419 1.245 . S
C418 O430 1.232 . S
O419 C418 1.245 . S
O420 Co414 2.058 . S
O420 C446 1.269 . S
O421 Co413 2.074 . S
O421 C446 1.257 . S
H422 C447 0.930 . S
H423 C453 0.930 . S
O424 Co413 2.093 . S
O424 C416 1.224 . S
H425 C457 0.929 . S
H426 C459 0.930 . S
H427 C460 0.930 . S
H428 C458 0.929 . S
H429 C461 0.928 . S
O430 Co414 2.057 . S
O430 C418 1.232 . S
H431 C450 0.929 . S
H432 C451 0.929 . S
H433 C463 0.931 . S
H434 C455 0.929 . S
H435 C464 0.930 . S
H436 C456 0.931 . S
O437 Co413 2.097 . S
O437 C465 1.214 . S
H438 C466 0.929 . S
H439 C467 0.929 . S
H440 C468 0.930 . S
H441 C469 0.929 . S
H442 C471 0.930 . S
H443 C448 0.930 . S
H444 C452 0.930 . S
O445 Co414 2.037 . S
O445 C465 1.234 . S
C446 O420 1.269 . S
C446 O421 1.257 . S
C447 H422 0.930 . S
C447 C450 1.388 . S
C447 C452 1.418 . S
C448 H443 0.930 . S
C448 C451 1.404 . S
C448 C452 1.353 . S
N449 Co414 2.145 . S
N449 C450 1.397 . S
N449 C451 1.334 . S
C450 H431 0.929 . S
C450 C447 1.388 . S
C450 N449 1.397 . S
C451 H432 0.929 . S
C451 C448 1.404 . S
C451 N449 1.334 . S
C452 H444 0.930 . S
C452 C447 1.418 . S
C452 C448 1.353 . S
C453 H423 0.930 . S
C453 N454 1.330 . S
C453 C455 1.446 . S
N454 Co413 2.151 1_455 S
N454 C453 1.330 . S
N454 C458 1.418 . S
C455 H434 0.929 . S
C455 C453 1.446 . S
C455 C456 1.332 . S
C456 H436 0.931 . S
C456 C455 1.332 . S
C456 C457 1.267 . S
C457 H425 0.929 . S
C457 C456 1.267 . S
C457 C458 1.251 . S
C458 H428 0.929 . S
C458 N454 1.418 . S
C458 C457 1.251 . S
C459 H426 0.930 . S
C459 C461 1.406 . S
C459 C464 1.261 . S
C460 H427 0.930 . S
C460 N462 1.325 . S
C460 C463 1.357 . S
C461 H429 0.928 . S
C461 C459 1.406 . S
C461 N462 1.261 1_455 S
N462 Co413 2.214 . S
N462 C460 1.325 . S
N462 C461 1.261 1_655 S
C463 H433 0.931 . S
C463 C460 1.357 . S
C463 C464 1.312 1_655 S
C464 H435 0.930 . S
C464 C459 1.261 . S
C464 C463 1.312 1_455 S
C465 O437 1.214 . S
C465 O445 1.234 . S
C466 H438 0.929 . S
C466 C469 1.391 . S
C466 C471 1.391 . S
C467 H439 0.929 . S
C467 C468 1.390 . S
C467 N470 1.391 . S
C468 H440 0.930 . S
C468 C467 1.390 . S
C468 C469 1.392 . S
C469 H441 0.929 . S
C469 C466 1.391 . S
C469 C468 1.392 . S
N470 Co414 2.257 . S
N470 C467 1.391 . S
N470 C471 1.388 . S
C471 H442 0.930 . S
C471 C466 1.391 . S
C471 N470 1.388 . S
Co472 O474 2.143 . S
Co472 O480 2.074 . S
Co472 O483 2.093 . S
Co472 O496 2.097 . S
Co472 N513 2.151 . S
Co472 N521 2.214 . S
Co473 O474 2.160 . S
Co473 O479 2.058 . S
Co473 O489 2.057 . S
Co473 O504 2.037 . S
Co473 N508 2.145 . S
Co473 N529 2.257 . S
O474 Co472 2.143 . S
O474 Co473 2.160 . S
C475 O476 1.278 . S
C475 O483 1.224 . S
O476 C475 1.278 . S
C477 O478 1.245 . S
C477 O489 1.232 . S
O478 C477 1.245 . S
O479 Co473 2.058 . S
O479 C505 1.269 . S
O480 Co472 2.074 . S
O480 C505 1.257 . S
H481 C506 0.930 . S
H482 C512 0.930 . S
O483 Co472 2.093 . S
O483 C475 1.224 . S
H484 C516 0.929 . S
H485 C518 0.930 . S
H486 C519 0.930 . S
H487 C517 0.929 . S
H488 C520 0.928 . S
O489 Co473 2.057 . S
O489 C477 1.232 . S
H490 C509 0.929 . S
H491 C510 0.929 . S
H492 C522 0.931 . S
H493 C514 0.929 . S
H494 C523 0.930 . S
H495 C515 0.931 . S
O496 Co472 2.097 . S
O496 C524 1.214 . S
H497 C525 0.929 . S
H498 C526 0.929 . S
H499 C527 0.930 . S
H500 C528 0.929 . S
H501 C530 0.930 . S
H502 C507 0.930 . S
H503 C511 0.930 . S
O504 Co473 2.037 . S
O504 C524 1.234 . S
C505 O479 1.269 . S
C505 O480 1.257 . S
C506 H481 0.930 . S
C506 C509 1.388 . S
C506 C511 1.418 . S
C507 H502 0.930 . S
C507 C510 1.404 . S
C507 C511 1.353 . S
N508 Co473 2.145 . S
N508 C509 1.397 . S
N508 C510 1.334 . S
C509 H490 0.929 . S
C509 C506 1.388 . S
C509 N508 1.397 . S
C510 H491 0.929 . S
C510 C507 1.404 . S
C510 N508 1.334 . S
C511 H503 0.930 . S
C511 C506 1.418 . S
C511 C507 1.353 . S
C512 H482 0.930 . S
C512 N513 1.330 . S
C512 C514 1.446 . S
N513 Co472 2.151 . S
N513 C512 1.330 . S
N513 C517 1.418 . S
C514 H493 0.929 . S
C514 C512 1.446 . S
C514 C515 1.332 . S
C515 H495 0.931 . S
C515 C514 1.332 . S
C515 C516 1.267 . S
C516 H484 0.929 . S
C516 C515 1.267 . S
C516 C517 1.251 . S
C517 H487 0.929 . S
C517 N513 1.418 . S
C517 C516 1.251 . S
C518 H485 0.930 . S
C518 C520 1.406 . S
C518 C523 1.261 . S
C519 H486 0.930 . S
C519 N521 1.325 . S
C519 C522 1.357 . S
C520 H488 0.928 . S
C520 C518 1.406 . S
C520 N521 1.261 . S
N521 Co472 2.214 . S
N521 C519 1.325 . S
N521 C520 1.261 . S
C522 H492 0.931 . S
C522 C519 1.357 . S
C522 C523 1.312 . S
C523 H494 0.930 . S
C523 C518 1.261 . S
C523 C522 1.312 . S
C524 O496 1.214 . S
C524 O504 1.234 . S
C525 H497 0.929 . S
C525 C528 1.391 . S
C525 C530 1.391 . S
C526 H498 0.929 . S
C526 C527 1.390 . S
C526 N529 1.391 . S
C527 H499 0.930 . S
C527 C526 1.390 . S
C527 C528 1.392 . S
C528 H500 0.929 . S
C528 C525 1.391 . S
C528 C527 1.392 . S
N529 Co473 2.257 . S
N529 C526 1.391 . S
N529 C530 1.388 . S
C530 H501 0.930 . S
C530 C525 1.391 . S
C530 N529 1.388 . S
Co531 O533 2.143 . S
Co531 O539 2.074 . S
Co531 O542 2.093 . S
Co531 O555 2.097 . S
Co531 N572 2.151 . S
Co531 N580 2.214 . S
Co532 O533 2.160 . S
Co532 O538 2.058 . S
Co532 O548 2.057 . S
Co532 O563 2.037 . S
Co532 N567 2.145 . S
Co532 N588 2.257 . S
O533 Co531 2.143 . S
O533 Co532 2.160 . S
C534 O535 1.278 . S
C534 O542 1.224 1_556 S
O535 C534 1.278 . S
C536 O537 1.245 . S
C536 O548 1.232 . S
O537 C536 1.245 . S
O538 Co532 2.058 . S
O538 C564 1.269 . S
O539 Co531 2.074 . S
O539 C564 1.257 . S
H540 C565 0.930 . S
H541 C571 0.930 . S
O542 Co531 2.093 . S
O542 C534 1.224 1_554 S
H543 C575 0.929 . S
H544 C577 0.930 . S
H545 C578 0.930 . S
H546 C576 0.929 . S
H547 C579 0.928 . S
O548 Co532 2.057 . S
O548 C536 1.232 . S
H549 C568 0.929 . S
H550 C569 0.929 . S
H551 C581 0.931 . S
H552 C573 0.929 1_556 S
H553 C582 0.930 . S
H554 C574 0.931 . S
O555 Co531 2.097 . S
O555 C583 1.214 . S
H556 C584 0.929 . S
H557 C585 0.929 . S
H558 C586 0.930 . S
H559 C587 0.929 . S
H560 C589 0.930 . S
H561 C566 0.930 . S
H562 C570 0.930 . S
O563 Co532 2.037 . S
O563 C583 1.234 . S
C564 O538 1.269 . S
C564 O539 1.257 . S
C565 H540 0.930 . S
C565 C568 1.388 . S
C565 C570 1.418 . S
C566 H561 0.930 . S
C566 C569 1.404 . S
C566 C570 1.353 . S
N567 Co532 2.145 . S
N567 C568 1.397 . S
N567 C569 1.334 . S
C568 H549 0.929 . S
C568 C565 1.388 . S
C568 N567 1.397 . S
C569 H550 0.929 . S
C569 C566 1.404 . S
C569 N567 1.334 . S
C570 H562 0.930 . S
C570 C565 1.418 . S
C570 C566 1.353 . S
C571 H541 0.930 . S
C571 N572 1.330 . S
C571 C573 1.446 . S
N572 Co531 2.151 . S
N572 C571 1.330 . S
N572 C576 1.418 . S
C573 H552 0.929 1_554 S
C573 C571 1.446 . S
C573 C574 1.332 . S
C574 H554 0.931 . S
C574 C573 1.332 . S
C574 C575 1.267 . S
C575 H543 0.929 . S
C575 C574 1.267 . S
C575 C576 1.251 . S
C576 H546 0.929 . S
C576 N572 1.418 . S
C576 C575 1.251 . S
C577 H544 0.930 . S
C577 C579 1.406 . S
C577 C582 1.261 . S
C578 H545 0.930 . S
C578 N580 1.325 . S
C578 C581 1.357 . S
C579 H547 0.928 . S
C579 C577 1.406 . S
C579 N580 1.261 . S
N580 Co531 2.214 . S
N580 C578 1.325 . S
N580 C579 1.261 . S
C581 H551 0.931 . S
C581 C578 1.357 . S
C581 C582 1.312 . S
C582 H553 0.930 . S
C582 C577 1.261 . S
C582 C581 1.312 . S
C583 O555 1.214 . S
C583 O563 1.234 . S
C584 H556 0.929 . S
C584 C587 1.391 . S
C584 C589 1.391 1_556 S
C585 H557 0.929 . S
C585 C586 1.390 . S
C585 N588 1.391 . S
C586 H558 0.930 . S
C586 C585 1.390 . S
C586 C587 1.392 1_554 S
C587 H559 0.929 . S
C587 C584 1.391 . S
C587 C586 1.392 1_556 S
N588 Co532 2.257 . S
N588 C585 1.391 . S
N588 C589 1.388 . S
C589 H560 0.930 . S
C589 C584 1.391 1_554 S
C589 N588 1.388 . S
Co590 O592 2.143 . S
Co590 O598 2.074 . S
Co590 O601 2.093 . S
Co590 O614 2.097 . S
Co590 N631 2.151 1_545 S
Co590 N639 2.214 . S
Co591 O592 2.160 . S
Co591 O597 2.058 . S
Co591 O607 2.057 . S
Co591 O622 2.037 . S
Co591 N626 2.145 . S
Co591 N647 2.257 . S
O592 Co590 2.143 . S
O592 Co591 2.160 . S
C593 O594 1.278 . S
C593 O601 1.224 1_556 S
O594 C593 1.278 . S
C595 O596 1.245 . S
C595 O607 1.232 . S
O596 C595 1.245 . S
O597 Co591 2.058 . S
O597 C623 1.269 . S
O598 Co590 2.074 . S
O598 C623 1.257 . S
H599 C624 0.930 . S
H600 C630 0.930 . S
O601 Co590 2.093 . S
O601 C593 1.224 1_554 S
H602 C634 0.929 . S
H603 C636 0.930 . S
H604 C637 0.930 . S
H605 C635 0.929 . S
H606 C638 0.928 . S
O607 Co591 2.057 . S
O607 C595 1.232 . S
H608 C627 0.929 . S
H609 C628 0.929 . S
H610 C640 0.931 . S
H611 C632 0.929 1_556 S
H612 C641 0.930 . S
H613 C633 0.931 . S
O614 Co590 2.097 . S
O614 C642 1.214 . S
H615 C643 0.929 . S
H616 C644 0.929 . S
H617 C645 0.930 . S
H618 C646 0.929 . S
H619 C648 0.930 . S
H620 C625 0.930 . S
H621 C629 0.930 . S
O622 Co591 2.037 . S
O622 C642 1.234 . S
C623 O597 1.269 . S
C623 O598 1.257 . S
C624 H599 0.930 . S
C624 C627 1.388 . S
C624 C629 1.418 . S
C625 H620 0.930 . S
C625 C628 1.404 . S
C625 C629 1.353 . S
N626 Co591 2.145 . S
N626 C627 1.397 . S
N626 C628 1.334 . S
C627 H608 0.929 . S
C627 C624 1.388 . S
C627 N626 1.397 . S
C628 H609 0.929 . S
C628 C625 1.404 . S
C628 N626 1.334 . S
C629 H621 0.930 . S
C629 C624 1.418 . S
C629 C625 1.353 . S
C630 H600 0.930 . S
C630 N631 1.330 . S
C630 C632 1.446 . S
N631 Co590 2.151 1_565 S
N631 C630 1.330 . S
N631 C635 1.418 . S
C632 H611 0.929 1_554 S
C632 C630 1.446 . S
C632 C633 1.332 . S
C633 H613 0.931 . S
C633 C632 1.332 . S
C633 C634 1.267 . S
C634 H602 0.929 . S
C634 C633 1.267 . S
C634 C635 1.251 . S
C635 H605 0.929 . S
C635 N631 1.418 . S
C635 C634 1.251 . S
C636 H603 0.930 . S
C636 C638 1.406 . S
C636 C641 1.261 . S
C637 H604 0.930 . S
C637 N639 1.325 . S
C637 C640 1.357 . S
C638 H606 0.928 . S
C638 C636 1.406 . S
C638 N639 1.261 1_565 S
N639 Co590 2.214 . S
N639 C637 1.325 . S
N639 C638 1.261 1_545 S
C640 H610 0.931 . S
C640 C637 1.357 . S
C640 C641 1.312 1_545 S
C641 H612 0.930 . S
C641 C636 1.261 . S
C641 C640 1.312 1_565 S
C642 O614 1.214 . S
C642 O622 1.234 . S
C643 H615 0.929 . S
C643 C646 1.391 . S
C643 C648 1.391 1_556 S
C644 H616 0.929 . S
C644 C645 1.390 . S
C644 N647 1.391 . S
C645 H617 0.930 . S
C645 C644 1.390 . S
C645 C646 1.392 1_554 S
C646 H618 0.929 . S
C646 C643 1.391 . S
C646 C645 1.392 1_556 S
N647 Co591 2.257 . S
N647 C644 1.391 . S
N647 C648 1.388 . S
C648 H619 0.930 . S
C648 C643 1.391 1_554 S
C648 N647 1.388 . S
Co649 O651 2.143 . S
Co649 O657 2.074 . S
Co649 O660 2.093 . S
Co649 O673 2.097 . S
Co649 N690 2.151 1_655 S
Co649 N698 2.214 . S
Co650 O651 2.160 . S
Co650 O656 2.058 . S
Co650 O666 2.057 . S
Co650 O681 2.037 . S
Co650 N685 2.145 . S
Co650 N706 2.257 . S
O651 Co649 2.143 . S
O651 Co650 2.160 . S
C652 O653 1.278 . S
C652 O660 1.224 1_556 S
O653 C652 1.278 . S
C654 O655 1.245 . S
C654 O666 1.232 . S
O655 C654 1.245 . S
O656 Co650 2.058 . S
O656 C682 1.269 . S
O657 Co649 2.074 . S
O657 C682 1.257 . S
H658 C683 0.930 . S
H659 C689 0.930 . S
O660 Co649 2.093 . S
O660 C652 1.224 1_554 S
H661 C693 0.929 . S
H662 C695 0.930 . S
H663 C696 0.930 . S
H664 C694 0.929 . S
H665 C697 0.928 . S
O666 Co650 2.057 . S
O666 C654 1.232 . S
H667 C686 0.929 . S
H668 C687 0.929 . S
H669 C699 0.931 . S
H670 C691 0.929 1_556 S
H671 C700 0.926 1_455 S
H672 C692 0.931 . S
O673 Co649 2.097 . S
O673 C701 1.214 . S
H674 C702 0.929 . S
H675 C703 0.929 . S
H676 C704 0.930 . S
H677 C705 0.929 . S
H678 C707 0.930 1_556 S
H679 C684 0.930 . S
H680 C688 0.930 . S
O681 Co650 2.037 . S
O681 C701 1.234 . S
C682 O656 1.269 . S
C682 O657 1.257 . S
C683 H658 0.930 . S
C683 C686 1.388 . S
C683 C688 1.418 . S
C684 H679 0.930 . S
C684 C687 1.404 . S
C684 C688 1.353 . S
N685 Co650 2.145 . S
N685 C686 1.397 . S
N685 C687 1.334 . S
C686 H667 0.929 . S
C686 C683 1.388 . S
C686 N685 1.397 . S
C687 H668 0.929 . S
C687 C684 1.404 . S
C687 N685 1.334 . S
C688 H680 0.930 . S
C688 C683 1.418 . S
C688 C684 1.353 . S
C689 H659 0.930 . S
C689 N690 1.330 . S
C689 C691 1.446 . S
N690 Co649 2.151 1_455 S
N690 C689 1.330 . S
N690 C694 1.418 . S
C691 H670 0.929 1_554 S
C691 C689 1.446 . S
C691 C692 1.332 . S
C692 H672 0.931 . S
C692 C691 1.332 . S
C692 C693 1.267 . S
C693 H661 0.929 . S
C693 C692 1.267 . S
C693 C694 1.251 . S
C694 H664 0.929 . S
C694 N690 1.418 . S
C694 C693 1.251 . S
C695 H662 0.930 . S
C695 C697 1.406 . S
C695 C700 1.259 1_455 S
C696 H663 0.930 . S
C696 N698 1.325 . S
C696 C699 1.357 . S
C697 H665 0.928 . S
C697 C695 1.406 . S
C697 N698 1.261 1_455 S
N698 Co649 2.214 . S
N698 C696 1.325 . S
N698 C697 1.261 1_655 S
C699 H669 0.931 . S
C699 C696 1.357 . S
C699 C700 1.319 . S
C700 H671 0.926 1_655 S
C700 C695 1.259 1_655 S
C700 C699 1.319 . S
C701 O673 1.214 . S
C701 O681 1.234 . S
C702 H674 0.929 . S
C702 C705 1.391 . S
C702 C707 1.391 1_556 S
C703 H675 0.929 . S
C703 C704 1.390 . S
C703 N706 1.391 . S
C704 H676 0.930 . S
C704 C703 1.390 . S
C704 C705 1.392 1_554 S
C705 H677 0.929 . S
C705 C702 1.391 . S
C705 C704 1.392 1_556 S
N706 Co650 2.257 . S
N706 C703 1.391 . S
N706 C707 1.388 . S
C707 H678 0.930 1_554 S
C707 C702 1.391 1_554 S
C707 N706 1.388 . S
Co708 O710 2.143 . S
Co708 O716 2.074 . S
Co708 O719 2.093 . S
Co708 O732 2.097 . S
Co708 N749 2.151 . S
Co708 N757 2.214 . S
Co709 O710 2.160 . S
Co709 O715 2.058 . S
Co709 O725 2.057 . S
Co709 O740 2.037 . S
Co709 N744 2.145 . S
Co709 N765 2.257 . S
O710 Co708 2.143 . S
O710 Co709 2.160 . S
C711 O712 1.278 . S
C711 O719 1.224 1_554 S
O712 C711 1.278 . S
C713 O714 1.245 . S
C713 O725 1.232 . S
O714 C713 1.245 . S
O715 Co709 2.058 . S
O715 C741 1.269 . S
O716 Co708 2.074 . S
O716 C741 1.257 . S
H717 C742 0.930 . S
H718 C748 0.930 . S
O719 Co708 2.093 . S
O719 C711 1.224 1_556 S
H720 C752 0.929 . S
H721 C754 0.930 . S
H722 C755 0.930 . S
H723 C753 0.929 . S
H724 C756 0.928 . S
O725 Co709 2.057 . S
O725 C713 1.232 . S
H726 C745 0.929 . S
H727 C746 0.929 . S
H728 C758 0.931 . S
H729 C750 0.929 1_554 S
H730 C759 0.930 . S
H731 C751 0.931 . S
O732 Co708 2.097 . S
O732 C760 1.214 . S
H733 C761 0.929 . S
H734 C762 0.929 . S
H735 C763 0.930 . S
H736 C764 0.929 . S
H737 C766 0.926 1_554 S
H738 C743 0.930 . S
H739 C747 0.930 . S
O740 Co709 2.037 . S
O740 C760 1.234 . S
C741 O715 1.269 . S
C741 O716 1.257 . S
C742 H717 0.930 . S
C742 C745 1.388 . S
C742 C747 1.418 . S
C743 H738 0.930 . S
C743 C746 1.404 . S
C743 C747 1.353 . S
N744 Co709 2.145 . S
N744 C745 1.397 . S
N744 C746 1.334 . S
C745 H726 0.929 . S
C745 C742 1.388 . S
C745 N744 1.397 . S
C746 H727 0.929 . S
C746 C743 1.404 . S
C746 N744 1.334 . S
C747 H739 0.930 . S
C747 C742 1.418 . S
C747 C743 1.353 . S
C748 H718 0.930 . S
C748 N749 1.330 . S
C748 C750 1.446 . S
N749 Co708 2.151 . S
N749 C748 1.330 . S
N749 C753 1.418 . S
C750 H729 0.929 1_556 S
C750 C748 1.446 . S
C750 C751 1.332 . S
C751 H731 0.931 . S
C751 C750 1.332 . S
C751 C752 1.267 . S
C752 H720 0.929 . S
C752 C751 1.267 . S
C752 C753 1.251 . S
C753 H723 0.929 . S
C753 N749 1.418 . S
C753 C752 1.251 . S
C754 H721 0.930 . S
C754 C756 1.406 . S
C754 C759 1.261 . S
C755 H722 0.930 . S
C755 N757 1.325 . S
C755 C758 1.357 . S
C756 H724 0.928 . S
C756 C754 1.406 . S
C756 N757 1.261 . S
N757 Co708 2.214 . S
N757 C755 1.325 . S
N757 C756 1.261 . S
C758 H728 0.931 . S
C758 C755 1.357 . S
C758 C759 1.312 . S
C759 H730 0.930 . S
C759 C754 1.261 . S
C759 C758 1.312 . S
C760 O732 1.214 . S
C760 O740 1.234 . S
C761 H733 0.929 . S
C761 C764 1.391 . S
C761 C766 1.391 1_554 S
C762 H734 0.929 . S
C762 C763 1.390 . S
C762 N765 1.391 . S
C763 H735 0.930 . S
C763 C762 1.390 . S
C763 C764 1.392 1_556 S
C764 H736 0.929 . S
C764 C761 1.391 . S
C764 C763 1.392 1_554 S
N765 Co709 2.257 . S
N765 C762 1.391 . S
N765 C766 1.388 . S
C766 H737 0.926 1_556 S
C766 C761 1.391 1_556 S
C766 N765 1.388 . S
Co767 O769 2.143 . S
Co767 O775 2.074 . S
Co767 O778 2.093 1_565 S
Co767 O791 2.097 . S
Co767 N808 2.151 1_565 S
Co767 N816 2.214 1_565 S
Co768 O769 2.160 . S
Co768 O774 2.058 . S
Co768 O784 2.057 . S
Co768 O799 2.037 . S
Co768 N803 2.145 . S
Co768 N824 2.257 . S
O769 Co767 2.143 . S
O769 Co768 2.160 . S
C770 O771 1.278 . S
C770 O778 1.224 1_565 S
O771 C770 1.278 . S
C772 O773 1.245 . S
C772 O784 1.232 . S
O773 C772 1.245 . S
O774 Co768 2.058 . S
O774 C800 1.269 1_556 S
O775 Co767 2.074 . S
O775 C800 1.257 1_556 S
H776 C801 0.930 . S
H777 C807 0.930 . S
O778 Co767 2.093 1_545 S
O778 C770 1.224 1_545 S
H779 C811 0.929 . S
H780 C813 0.930 . S
H781 C814 0.930 . S
H782 C812 0.929 . S
H783 C815 0.928 . S
O784 Co768 2.057 . S
O784 C772 1.232 . S
H785 C804 0.929 . S
H786 C805 0.929 . S
H787 C817 0.931 . S
H788 C809 0.929 . S
H789 C818 0.930 1_554 S
H790 C810 0.931 . S
O791 Co767 2.097 . S
O791 C819 1.214 . S
H792 C820 0.929 . S
H793 C821 0.929 . S
H794 C822 0.930 . S
H795 C823 0.929 . S
H796 C825 0.930 . S
H797 C802 0.930 . S
H798 C806 0.930 . S
O799 Co768 2.037 . S
O799 C819 1.234 . S
C800 O774 1.269 1_554 S
C800 O775 1.257 1_554 S
C801 H776 0.930 . S
C801 C804 1.388 . S
C801 C806 1.418 . S
C802 H797 0.930 . S
C802 C805 1.404 . S
C802 C806 1.353 1_556 S
N803 Co768 2.145 . S
N803 C804 1.397 1_556 S
N803 C805 1.334 . S
C804 H785 0.929 . S
C804 C801 1.388 . S
C804 N803 1.397 1_554 S
C805 H786 0.929 . S
C805 C802 1.404 . S
C805 N803 1.334 . S
C806 H798 0.930 . S
C806 C801 1.418 . S
C806 C802 1.353 1_554 S
C807 H777 0.930 . S
C807 N808 1.330 . S
C807 C809 1.446 . S
N808 Co767 2.151 1_545 S
N808 C807 1.330 . S
N808 C812 1.418 . S
C809 H788 0.929 . S
C809 C807 1.446 . S
C809 C810 1.332 . S
C810 H790 0.931 . S
C810 C809 1.332 . S
C810 C811 1.267 . S
C811 H779 0.929 . S
C811 C810 1.267 . S
C811 C812 1.251 . S
C812 H782 0.929 . S
C812 N808 1.418 . S
C812 C811 1.251 . S
C813 H780 0.930 . S
C813 C815 1.406 . S
C813 C818 1.261 . S
C814 H781 0.930 . S
C814 N816 1.325 . S
C814 C817 1.357 1_556 S
C815 H783 0.928 . S
C815 C813 1.406 . S
C815 N816 1.261 . S
N816 Co767 2.214 1_545 S
N816 C814 1.325 . S
N816 C815 1.261 . S
C817 H787 0.931 . S
C817 C814 1.357 1_554 S
C817 C818 1.312 1_554 S
C818 H789 0.930 1_556 S
C818 C813 1.261 . S
C818 C817 1.312 1_556 S
C819 O791 1.214 . S
C819 O799 1.234 . S
C820 H792 0.929 . S
C820 C823 1.391 . S
C820 C825 1.391 . S
C821 H793 0.929 . S
C821 C822 1.390 . S
C821 N824 1.391 . S
C822 H794 0.930 . S
C822 C821 1.390 . S
C822 C823 1.392 . S
C823 H795 0.929 . S
C823 C820 1.391 . S
C823 C822 1.392 . S
N824 Co768 2.257 . S
N824 C821 1.391 . S
N824 C825 1.388 . S
C825 H796 0.930 . S
C825 C820 1.391 . S
C825 N824 1.388 . S
Co826 O828 2.143 . S
Co826 O834 2.074 . S
Co826 O837 2.093 . S
Co826 O850 2.097 . S
Co826 N867 2.151 1_455 S
Co826 N875 2.214 . S
Co827 O828 2.160 . S
Co827 O833 2.058 . S
Co827 O843 2.057 . S
Co827 O858 2.037 . S
Co827 N862 2.145 . S
Co827 N883 2.257 . S
O828 Co826 2.143 . S
O828 Co827 2.160 . S
C829 O830 1.278 . S
C829 O837 1.224 1_554 S
O830 C829 1.278 . S
C831 O832 1.245 . S
C831 O843 1.232 . S
O832 C831 1.245 . S
O833 Co827 2.058 . S
O833 C859 1.269 . S
O834 Co826 2.074 . S
O834 C859 1.257 . S
H835 C860 0.930 . S
H836 C866 0.930 1_455 S
O837 Co826 2.093 . S
O837 C829 1.224 1_556 S
H838 C870 0.929 . S
H839 C872 0.930 1_655 S
H840 C873 0.930 . S
H841 C871 0.929 . S
H842 C874 0.928 . S
O843 Co827 2.057 . S
O843 C831 1.232 . S
H844 C863 0.929 . S
H845 C864 0.929 . S
H846 C876 0.931 . S
H847 C868 0.929 1_554 S
H848 C877 0.930 . S
H849 C869 0.931 . S
O850 Co826 2.097 . S
O850 C878 1.214 . S
H851 C879 0.929 . S
H852 C880 0.929 . S
H853 C881 0.930 . S
H854 C882 0.929 . S
H855 C884 0.930 . S
H856 C861 0.930 . S
H857 C865 0.930 . S
O858 Co827 2.037 . S
O858 C878 1.234 . S
C859 O833 1.269 . S
C859 O834 1.257 . S
C860 H835 0.930 . S
C860 C863 1.388 . S
C860 C865 1.418 . S
C861 H856 0.930 . S
C861 C864 1.404 . S
C861 C865 1.353 . S
N862 Co827 2.145 . S
N862 C863 1.397 . S
N862 C864 1.334 . S
C863 H844 0.929 . S
C863 C860 1.388 . S
C863 N862 1.397 . S
C864 H845 0.929 . S
C864 C861 1.404 . S
C864 N862 1.334 . S
C865 H857 0.930 . S
C865 C860 1.418 . S
C865 C861 1.353 . S
C866 H836 0.930 1_655 S
C866 N867 1.330 . S
C866 C868 1.446 . S
N867 Co826 2.151 1_655 S
N867 C866 1.330 . S
N867 C871 1.418 . S
C868 H847 0.929 1_556 S
C868 C866 1.446 . S
C868 C869 1.332 . S
C869 H849 0.931 . S
C869 C868 1.332 . S
C869 C870 1.267 . S
C870 H838 0.929 . S
C870 C869 1.267 . S
C870 C871 1.251 . S
C871 H841 0.929 . S
C871 N867 1.418 . S
C871 C870 1.251 . S
C872 H839 0.930 1_455 S
C872 C874 1.406 . S
C872 C877 1.261 . S
C873 H840 0.930 . S
C873 N875 1.325 . S
C873 C876 1.357 . S
C874 H842 0.928 . S
C874 C872 1.406 . S
C874 N875 1.261 . S
N875 Co826 2.214 . S
N875 C873 1.325 . S
N875 C874 1.261 . S
C876 H846 0.931 . S
C876 C873 1.357 . S
C876 C877 1.312 . S
C877 H848 0.930 . S
C877 C872 1.261 . S
C877 C876 1.312 . S
C878 O850 1.214 . S
C878 O858 1.234 . S
C879 H851 0.929 . S
C879 C882 1.391 . S
C879 C884 1.391 1_554 S
C880 H852 0.929 . S
C880 C881 1.390 . S
C880 N883 1.391 . S
C881 H853 0.930 . S
C881 C880 1.390 . S
C881 C882 1.392 1_556 S
C882 H854 0.929 . S
C882 C879 1.391 . S
C882 C881 1.392 1_554 S
N883 Co827 2.257 . S
N883 C880 1.391 . S
N883 C884 1.388 . S
C884 H855 0.930 . S
C884 C879 1.391 1_556 S
C884 N883 1.388 . S
Co885 O887 2.143 . S
Co885 O893 2.074 . S
Co885 O896 2.093 . S
Co885 O909 2.097 . S
Co885 N926 2.151 1_565 S
Co885 N934 2.214 . S
Co886 O887 2.160 . S
Co886 O892 2.058 . S
Co886 O902 2.057 . S
Co886 O917 2.037 . S
Co886 N921 2.145 . S
Co886 N942 2.257 . S
O887 Co885 2.143 . S
O887 Co886 2.160 . S
C888 O889 1.278 . S
C888 O896 1.224 . S
O889 C888 1.278 . S
C890 O891 1.245 . S
C890 O902 1.232 . S
O891 C890 1.245 . S
O892 Co886 2.058 . S
O892 C918 1.269 . S
O893 Co885 2.074 . S
O893 C918 1.257 . S
H894 C919 0.930 . S
H895 C925 0.930 . S
O896 Co885 2.093 . S
O896 C888 1.224 . S
H897 C929 0.929 . S
H898 C931 0.930 1_545 S
H899 C932 0.930 . S
H900 C930 0.929 . S
H901 C933 0.928 1_545 S
O902 Co886 2.057 . S
O902 C890 1.232 . S
H903 C922 0.929 . S
H904 C923 0.929 . S
H905 C935 0.931 . S
H906 C927 0.929 . S
H907 C936 0.930 . S
H908 C928 0.931 . S
O909 Co885 2.097 . S
O909 C937 1.214 . S
H910 C938 0.929 . S
H911 C939 0.929 . S
H912 C940 0.930 . S
H913 C941 0.929 . S
H914 C943 0.930 . S
H915 C920 0.930 . S
H916 C924 0.930 . S
O917 Co886 2.037 . S
O917 C937 1.234 . S
C918 O892 1.269 . S
C918 O893 1.257 . S
C919 H894 0.930 . S
C919 C922 1.388 . S
C919 C924 1.418 . S
C920 H915 0.930 . S
C920 C923 1.404 . S
C920 C924 1.353 . S
N921 Co886 2.145 . S
N921 C922 1.397 . S
N921 C923 1.334 . S
C922 H903 0.929 . S
C922 C919 1.388 . S
C922 N921 1.397 . S
C923 H904 0.929 . S
C923 C920 1.404 . S
C923 N921 1.334 . S
C924 H916 0.930 . S
C924 C919 1.418 . S
C924 C920 1.353 . S
C925 H895 0.930 . S
C925 N926 1.330 . S
C925 C927 1.446 . S
N926 Co885 2.151 1_545 S
N926 C925 1.330 . S
N926 C930 1.418 . S
C927 H906 0.929 . S
C927 C925 1.446 . S
C927 C928 1.332 . S
C928 H908 0.931 . S
C928 C927 1.332 . S
C928 C929 1.267 . S
C929 H897 0.929 . S
C929 C928 1.267 . S
C929 C930 1.251 . S
C930 H900 0.929 . S
C930 N926 1.418 . S
C930 C929 1.251 . S
C931 H898 0.930 1_565 S
C931 C933 1.406 . S
C931 C936 1.261 . S
C932 H899 0.930 . S
C932 N934 1.325 . S
C932 C935 1.357 . S
C933 H901 0.928 1_565 S
C933 C931 1.406 . S
C933 N934 1.261 . S
N934 Co885 2.214 . S
N934 C932 1.325 . S
N934 C933 1.261 . S
C935 H905 0.931 . S
C935 C932 1.357 . S
C935 C936 1.312 . S
C936 H907 0.930 . S
C936 C931 1.261 . S
C936 C935 1.312 . S
C937 O909 1.214 . S
C937 O917 1.234 . S
C938 H910 0.929 . S
C938 C941 1.391 . S
C938 C943 1.391 . S
C939 H911 0.929 . S
C939 C940 1.390 . S
C939 N942 1.391 . S
C940 H912 0.930 . S
C940 C939 1.390 . S
C940 C941 1.392 . S
C941 H913 0.929 . S
C941 C938 1.391 . S
C941 C940 1.392 . S
N942 Co886 2.257 . S
N942 C939 1.391 . S
N942 C943 1.388 . S
C943 H914 0.930 . S
C943 C938 1.391 . S
C943 N942 1.388 . S
Co944 O946 2.143 . S
Co944 O952 2.074 . S
Co944 O955 2.093 . S
Co944 O968 2.097 . S
Co944 N985 2.151 . S
Co944 N993 2.214 . S
Co945 O946 2.160 . S
Co945 O951 2.058 . S
Co945 O961 2.057 . S
Co945 O976 2.037 . S
Co945 N980 2.145 . S
Co945 N1001 2.257 . S
O946 Co944 2.143 . S
O946 Co945 2.160 . S
C947 O948 1.278 . S
C947 O955 1.224 . S
O948 C947 1.278 . S
C949 O950 1.245 . S
C949 O961 1.232 . S
O950 C949 1.245 . S
O951 Co945 2.058 . S
O951 C977 1.269 . S
O952 Co944 2.074 . S
O952 C977 1.257 . S
H953 C978 0.930 . S
H954 C984 0.930 1_455 S
O955 Co944 2.093 . S
O955 C947 1.224 . S
H956 C988 0.929 . S
H957 C990 0.930 1_655 S
H958 C991 0.930 . S
H959 C989 0.929 . S
H960 C992 0.928 . S
O961 Co945 2.057 . S
O961 C949 1.232 . S
H962 C981 0.929 . S
H963 C982 0.929 . S
H964 C994 0.931 . S
H965 C986 0.929 . S
H966 C995 0.930 . S
H967 C987 0.931 . S
O968 Co944 2.097 . S
O968 C996 1.214 . S
H969 C997 0.929 . S
H970 C998 0.929 . S
H971 C999 0.930 . S
H972 C1000 0.929 . S
H973 C1002 0.930 . S
H974 C979 0.930 . S
H975 C983 0.930 . S
O976 Co945 2.037 . S
O976 C996 1.234 . S
C977 O951 1.269 . S
C977 O952 1.257 . S
C978 H953 0.930 . S
C978 C981 1.388 . S
C978 C983 1.418 . S
C979 H974 0.930 . S
C979 C982 1.404 . S
C979 C983 1.353 . S
N980 Co945 2.145 . S
N980 C981 1.397 . S
N980 C982 1.334 . S
C981 H962 0.929 . S
C981 C978 1.388 . S
C981 N980 1.397 . S
C982 H963 0.929 . S
C982 C979 1.404 . S
C982 N980 1.334 . S
C983 H975 0.930 . S
C983 C978 1.418 . S
C983 C979 1.353 . S
C984 H954 0.930 1_655 S
C984 N985 1.330 1_655 S
C984 C986 1.446 . S
N985 Co944 2.151 . S
N985 C984 1.330 1_455 S
N985 C989 1.418 1_455 S
C986 H965 0.929 . S
C986 C984 1.446 . S
C986 C987 1.332 . S
C987 H967 0.931 . S
C987 C986 1.332 . S
C987 C988 1.267 . S
C988 H956 0.929 . S
C988 C987 1.267 . S
C988 C989 1.251 . S
C989 H959 0.929 . S
C989 N985 1.418 1_655 S
C989 C988 1.251 . S
C990 H957 0.930 1_455 S
C990 C992 1.406 . S
C990 C995 1.261 . S
C991 H958 0.930 . S
C991 N993 1.325 . S
C991 C994 1.357 . S
C992 H960 0.928 . S
C992 C990 1.406 . S
C992 N993 1.261 . S
N993 Co944 2.214 . S
N993 C991 1.325 . S
N993 C992 1.261 . S
C994 H964 0.931 . S
C994 C991 1.357 . S
C994 C995 1.312 . S
C995 H966 0.930 . S
C995 C990 1.261 . S
C995 C994 1.312 . S
C996 O968 1.214 . S
C996 O976 1.234 . S
C997 H969 0.929 . S
C997 C1000 1.391 . S
C997 C1002 1.391 . S
C998 H970 0.929 . S
C998 C999 1.390 . S
C998 N1001 1.391 . S
C999 H971 0.930 . S
C999 C998 1.390 . S
C999 C1000 1.392 . S
C1000 H972 0.929 . S
C1000 C997 1.391 . S
C1000 C999 1.392 . S
N1001 Co945 2.257 . S
N1001 C998 1.391 . S
N1001 C1002 1.388 . S
C1002 H973 0.930 . S
C1002 C997 1.391 . S
C1002 N1001 1.388 . S
Co1003 O1005 2.143 . S
Co1003 O1011 2.074 . S
Co1003 O1014 2.093 . S
Co1003 O1027 2.097 . S
Co1003 N1044 2.151 . S
Co1003 N1052 2.214 . S
Co1004 O1005 2.160 . S
Co1004 O1010 2.058 . S
Co1004 O1020 2.057 . S
Co1004 O1035 2.037 . S
Co1004 N1039 2.145 . S
Co1004 N1060 2.257 . S
O1005 Co1003 2.143 . S
O1005 Co1004 2.160 . S
C1006 O1007 1.278 . S
C1006 O1014 1.224 . S
O1007 C1006 1.278 . S
C1008 O1009 1.245 . S
C1008 O1020 1.232 . S
O1009 C1008 1.245 . S
O1010 Co1004 2.058 . S
O1010 C1036 1.269 . S
O1011 Co1003 2.074 . S
O1011 C1036 1.257 . S
H1012 C1037 0.930 . S
H1013 C1043 0.930 . S
O1014 Co1003 2.093 . S
O1014 C1006 1.224 . S
H1015 C1047 0.929 . S
H1016 C1049 0.930 . S
H1017 C1050 0.930 . S
H1018 C1048 0.929 . S
H1019 C1051 0.928 . S
O1020 Co1004 2.057 . S
O1020 C1008 1.232 . S
H1021 C1040 0.929 . S
H1022 C1041 0.929 . S
H1023 C1053 0.931 . S
H1024 C1045 0.929 . S
H1025 C1054 0.930 . S
H1026 C1046 0.931 . S
O1027 Co1003 2.097 . S
O1027 C1055 1.214 . S
H1028 C1056 0.929 . S
H1029 C1057 0.929 . S
H1030 C1058 0.930 . S
H1031 C1059 0.929 . S
H1032 C1061 0.930 . S
H1033 C1038 0.930 . S
H1034 C1042 0.930 . S
O1035 Co1004 2.037 . S
O1035 C1055 1.234 . S
C1036 O1010 1.269 . S
C1036 O1011 1.257 . S
C1037 H1012 0.930 . S
C1037 C1040 1.388 . S
C1037 C1042 1.418 . S
C1038 H1033 0.930 . S
C1038 C1041 1.404 . S
C1038 C1042 1.353 . S
N1039 Co1004 2.145 . S
N1039 C1040 1.397 . S
N1039 C1041 1.334 . S
C1040 H1021 0.929 . S
C1040 C1037 1.388 . S
C1040 N1039 1.397 . S
C1041 H1022 0.929 . S
C1041 C1038 1.404 . S
C1041 N1039 1.334 . S
C1042 H1034 0.930 . S
C1042 C1037 1.418 . S
C1042 C1038 1.353 . S
C1043 H1013 0.930 . S
C1043 N1044 1.330 . S
C1043 C1045 1.446 . S
N1044 Co1003 2.151 . S
N1044 C1043 1.330 . S
N1044 C1048 1.418 . S
C1045 H1024 0.929 . S
C1045 C1043 1.446 . S
C1045 C1046 1.332 . S
C1046 H1026 0.931 . S
C1046 C1045 1.332 . S
C1046 C1047 1.267 . S
C1047 H1015 0.929 . S
C1047 C1046 1.267 . S
C1047 C1048 1.251 . S
C1048 H1018 0.929 . S
C1048 N1044 1.418 . S
C1048 C1047 1.251 . S
C1049 H1016 0.930 . S
C1049 C1051 1.406 . S
C1049 C1054 1.261 . S
C1050 H1017 0.930 . S
C1050 N1052 1.325 . S
C1050 C1053 1.357 . S
C1051 H1019 0.928 . S
C1051 C1049 1.406 . S
C1051 N1052 1.261 . S
N1052 Co1003 2.214 . S
N1052 C1050 1.325 . S
N1052 C1051 1.261 . S
C1053 H1023 0.931 . S
C1053 C1050 1.357 . S
C1053 C1054 1.312 . S
C1054 H1025 0.930 . S
C1054 C1049 1.261 . S
C1054 C1053 1.312 . S
C1055 O1027 1.214 . S
C1055 O1035 1.234 . S
C1056 H1028 0.929 . S
C1056 C1059 1.391 . S
C1056 C1061 1.391 . S
C1057 H1029 0.929 . S
C1057 C1058 1.390 . S
C1057 N1060 1.391 . S
C1058 H1030 0.930 . S
C1058 C1057 1.390 . S
C1058 C1059 1.392 . S
C1059 H1031 0.929 . S
C1059 C1056 1.391 . S
C1059 C1058 1.392 . S
N1060 Co1004 2.257 . S
N1060 C1057 1.391 . S
N1060 C1061 1.388 . S
C1061 H1032 0.930 . S
C1061 C1056 1.391 . S
C1061 N1060 1.388 . S
C1062 C1063 1.387 . S
C1062 H1066 0.950 1_455 S
C1062 C1071 1.390 . S
C1063 C1062 1.387 . S
C1063 C1065 1.387 . S
H1064 C1071 0.950 . S
C1065 C1063 1.387 . S
C1065 C1067 1.390 . S
C1065 H1069 0.950 . S
H1066 C1062 0.950 1_655 S
C1067 C1065 1.390 . S
C1067 C1068 1.387 . S
C1067 H1070 0.950 . S
C1068 C1067 1.387 . S
C1068 C1071 1.387 . S
H1069 C1065 0.950 . S
H1070 C1067 0.950 . S
C1071 C1062 1.390 . S
C1071 H1064 0.950 . S
C1071 C1068 1.387 . S
C1072 C1073 1.387 . S
C1072 H1076 0.950 . S
C1072 C1081 1.390 . S
C1073 C1072 1.387 . S
C1073 C1075 1.387 . S
H1074 C1081 0.950 . S
C1075 C1073 1.387 . S
C1075 C1077 1.390 . S
C1075 H1079 0.950 . S
H1076 C1072 0.950 . S
C1077 C1075 1.390 . S
C1077 C1078 1.387 . S
C1077 H1080 0.950 . S
C1078 C1077 1.387 . S
C1078 C1081 1.387 . S
H1079 C1075 0.950 . S
H1080 C1077 0.950 . S
C1081 C1072 1.390 . S
C1081 H1074 0.950 . S
C1081 C1078 1.387 . S
C1082 C1083 1.387 1_545 S
C1082 H1086 0.950 . S
C1082 C1091 1.391 . S
C1083 C1082 1.387 1_565 S
C1083 C1085 1.387 . S
H1084 C1091 0.962 . S
C1085 C1083 1.387 . S
C1085 C1087 1.390 . S
C1085 H1089 0.950 . S
H1086 C1082 0.950 . S
C1087 C1085 1.390 . S
C1087 C1088 1.387 . S
C1087 H1090 0.950 . S
C1088 C1087 1.387 . S
C1088 C1091 1.374 1_565 S
H1089 C1085 0.950 . S
H1090 C1087 0.950 . S
C1091 C1082 1.391 . S
C1091 H1084 0.962 . S
C1091 C1088 1.374 1_545 S
C1092 C1093 1.387 . S
C1092 H1096 0.950 . S
C1092 C1101 1.390 . S
C1093 C1092 1.387 . S
C1093 C1095 1.387 . S
H1094 C1101 0.950 . S
C1095 C1093 1.387 . S
C1095 C1097 1.390 . S
C1095 H1099 0.950 . S
H1096 C1092 0.950 . S
C1097 C1095 1.390 . S
C1097 C1098 1.387 . S
C1097 H1100 0.950 . S
C1098 C1097 1.387 . S
C1098 C1101 1.387 . S
H1099 C1095 0.950 . S
H1100 C1097 0.950 . S
C1101 C1092 1.390 . S
C1101 H1094 0.950 . S
C1101 C1098 1.387 . S
C1102 C1103 1.387 . S
C1102 H1106 0.950 . S
C1102 C1111 1.390 . S
C1103 C1102 1.387 . S
C1103 C1105 1.387 . S
H1104 C1111 0.950 . S
C1105 C1103 1.387 . S
C1105 C1107 1.390 1_655 S
C1105 H1109 0.950 1_655 S
H1106 C1102 0.950 . S
C1107 C1105 1.390 1_455 S
C1107 C1108 1.387 1_455 S
C1107 H1110 0.950 . S
C1108 C1107 1.387 1_655 S
C1108 C1111 1.387 . S
H1109 C1105 0.950 1_455 S
H1110 C1107 0.950 . S
C1111 C1102 1.390 . S
C1111 H1104 0.950 . S
C1111 C1108 1.387 . S
C1112 C1113 1.387 . S
C1112 H1116 0.950 . S
C1112 C1121 1.390 . S
C1113 C1112 1.387 . S
C1113 C1115 1.387 . S
H1114 C1121 0.950 . S
C1115 C1113 1.387 . S
C1115 C1117 1.390 . S
C1115 H1119 0.950 . S
H1116 C1112 0.950 . S
C1117 C1115 1.390 . S
C1117 C1118 1.387 . S
C1117 H1120 0.950 . S
C1118 C1117 1.387 . S
C1118 C1121 1.387 . S
H1119 C1115 0.950 . S
H1120 C1117 0.950 . S
C1121 C1112 1.390 . S
C1121 H1114 0.950 . S
C1121 C1118 1.387 . S
C1122 C1123 1.387 1_455 S
C1122 H1126 0.950 . S
C1122 C1131 1.390 1_455 S
C1123 C1122 1.387 1_655 S
C1123 C1125 1.387 . S
H1124 C1131 0.950 1_455 S
C1125 C1123 1.387 . S
C1125 C1127 1.390 . S
C1125 H1129 0.950 . S
H1126 C1122 0.950 . S
C1127 C1125 1.390 . S
C1127 C1128 1.387 . S
C1127 H1130 0.950 . S
C1128 C1127 1.387 . S
C1128 C1131 1.387 . S
H1129 C1125 0.950 . S
H1130 C1127 0.950 . S
C1131 C1122 1.390 1_655 S
C1131 H1124 0.950 1_655 S
C1131 C1128 1.387 . S
C1132 C1133 1.387 . S
C1132 H1136 0.950 . S
C1132 C1141 1.390 . S
C1133 C1132 1.387 . S
C1133 C1135 1.387 . S
H1134 C1141 0.950 . S
C1135 C1133 1.387 . S
C1135 C1137 1.390 . S
C1135 H1139 0.950 . S
H1136 C1132 0.950 . S
C1137 C1135 1.390 . S
C1137 C1138 1.387 . S
C1137 H1140 0.950 . S
C1138 C1137 1.387 . S
C1138 C1141 1.387 . S
H1139 C1135 0.950 . S
H1140 C1137 0.950 . S
C1141 C1132 1.390 . S
C1141 H1134 0.950 . S
C1141 C1138 1.387 . S
C1142 C1143 1.387 . S
C1142 H1146 0.950 1_545 S
C1142 C1151 1.390 1_545 S
C1143 C1142 1.387 . S
C1143 C1145 1.387 . S
H1144 C1151 0.950 . S
C1145 C1143 1.387 . S
C1145 C1147 1.390 . S
C1145 H1149 0.950 . S
H1146 C1142 0.950 1_565 S
C1147 C1145 1.390 . S
C1147 C1148 1.387 . S
C1147 H1150 0.950 . S
C1148 C1147 1.387 . S
C1148 C1151 1.387 1_545 S
H1149 C1145 0.950 . S
H1150 C1147 0.950 . S
C1151 C1142 1.390 1_565 S
C1151 H1144 0.950 . S
C1151 C1148 1.387 1_565 S
C1152 C1153 1.387 . S
C1152 H1156 0.950 . S
C1152 C1161 1.390 . S
C1153 C1152 1.387 . S
C1153 C1155 1.387 . S
H1154 C1161 0.950 . S
C1155 C1153 1.387 . S
C1155 C1157 1.390 . S
C1155 H1159 0.950 . S
H1156 C1152 0.950 . S
C1157 C1155 1.390 . S
C1157 C1158 1.387 . S
C1157 H1160 0.950 . S
C1158 C1157 1.387 . S
C1158 C1161 1.387 . S
H1159 C1155 0.950 . S
H1160 C1157 0.950 . S
C1161 C1152 1.390 . S
C1161 H1154 0.950 . S
C1161 C1158 1.387 . S
C1162 C1163 1.387 . S
C1162 H1166 0.950 . S
C1162 C1171 1.390 . S
C1163 C1162 1.387 . S
C1163 C1165 1.387 . S
H1164 C1171 0.950 . S
C1165 C1163 1.387 . S
C1165 C1167 1.390 . S
C1165 H1169 0.952 1_455 S
H1166 C1162 0.950 . S
C1167 C1165 1.390 . S
C1167 C1168 1.387 . S
C1167 H1170 0.950 . S
C1168 C1167 1.387 . S
C1168 C1171 1.387 . S
H1169 C1165 0.952 1_655 S
H1170 C1167 0.950 . S
C1171 C1162 1.390 . S
C1171 H1164 0.950 . S
C1171 C1168 1.387 . S
C1172 C1173 1.387 . S
C1172 H1176 0.950 . S
C1172 C1181 1.390 . S
C1173 C1172 1.387 . S
C1173 C1175 1.387 . S
H1174 C1181 0.950 . S
C1175 C1173 1.387 . S
C1175 C1177 1.390 . S
C1175 H1179 0.950 . S
H1176 C1172 0.950 . S
C1177 C1175 1.390 . S
C1177 C1178 1.387 . S
C1177 H1180 0.950 . S
C1178 C1177 1.387 . S
C1178 C1181 1.387 . S
H1179 C1175 0.950 . S
H1180 C1177 0.950 . S
C1181 C1172 1.390 . S
C1181 H1174 0.950 . S
C1181 C1178 1.387 . S
C1182 C1183 1.387 . S
C1182 H1186 0.950 . S
C1182 C1191 1.390 . S
C1183 C1182 1.387 . S
C1183 C1185 1.387 . S
H1184 C1191 0.950 . S
C1185 C1183 1.387 . S
C1185 C1187 1.390 . S
C1185 H1189 0.950 . S
H1186 C1182 0.950 . S
C1187 C1185 1.390 . S
C1187 C1188 1.387 . S
C1187 H1190 0.950 . S
C1188 C1187 1.387 . S
C1188 C1191 1.387 . S
H1189 C1185 0.950 . S
H1190 C1187 0.950 . S
C1191 C1182 1.390 . S
C1191 H1184 0.950 . S
C1191 C1188 1.387 . S
C1192 C1193 1.387 . S
C1192 H1196 0.950 . S
C1192 C1201 1.390 . S
C1193 C1192 1.387 . S
C1193 C1195 1.387 . S
H1194 C1201 0.950 . S
C1195 C1193 1.387 . S
C1195 C1197 1.390 . S
C1195 H1199 0.950 . S
H1196 C1192 0.950 . S
C1197 C1195 1.390 . S
C1197 C1198 1.387 . S
C1197 H1200 0.950 1_545 S
C1198 C1197 1.387 . S
C1198 C1201 1.387 . S
H1199 C1195 0.950 . S
H1200 C1197 0.950 1_565 S
C1201 C1192 1.390 . S
C1201 H1194 0.950 . S
C1201 C1198 1.387 . S
C1202 C1203 1.374 1_655 S
C1202 H1206 0.958 . S
C1202 C1211 1.395 . S
C1203 C1202 1.374 1_455 S
C1203 C1205 1.387 . S
H1204 C1211 0.950 . S
C1205 C1203 1.387 . S
C1205 C1207 1.390 . S
C1205 H1209 0.950 . S
H1206 C1202 0.958 . S
C1207 C1205 1.390 . S
C1207 C1208 1.387 1_455 S
C1207 H1210 0.950 . S
C1208 C1207 1.387 1_655 S
C1208 C1211 1.387 . S
H1209 C1205 0.950 . S
H1210 C1207 0.950 . S
C1211 C1202 1.395 . S
C1211 H1204 0.950 . S
C1211 C1208 1.387 . S
C1212 C1213 1.387 . S
C1212 H1216 0.950 . S
C1212 C1221 1.390 . S
C1213 C1212 1.387 . S
C1213 C1215 1.387 . S
H1214 C1221 0.950 . S
C1215 C1213 1.387 . S
C1215 C1217 1.390 . S
C1215 H1219 0.950 . S
H1216 C1212 0.950 . S
C1217 C1215 1.390 . S
C1217 C1218 1.387 . S
C1217 H1220 0.950 . S
C1218 C1217 1.387 . S
C1218 C1221 1.387 . S
H1219 C1215 0.950 . S
H1220 C1217 0.950 . S
C1221 C1212 1.390 . S
C1221 H1214 0.950 . S
C1221 C1218 1.387 . S
C1222 C1223 1.387 . S
C1222 H1226 0.950 . S
C1222 C1231 1.390 1_545 S
C1223 C1222 1.387 . S
C1223 C1225 1.387 1_545 S
H1224 C1231 0.950 . S
C1225 C1223 1.387 1_565 S
C1225 C1227 1.390 . S
C1225 H1229 0.950 . S
H1226 C1222 0.950 . S
C1227 C1225 1.390 . S
C1227 C1228 1.387 . S
C1227 H1230 0.950 . S
C1228 C1227 1.387 . S
C1228 C1231 1.387 . S
H1229 C1225 0.950 . S
H1230 C1227 0.950 . S
C1231 C1222 1.390 1_565 S
C1231 H1224 0.950 . S
C1231 C1228 1.387 . S
C1232 C1233 1.387 . S
C1232 H1236 0.950 . S
C1232 C1241 1.390 1_455 S
C1233 C1232 1.387 . S
C1233 C1235 1.387 . S
H1234 C1241 0.950 . S
C1235 C1233 1.387 . S
C1235 C1237 1.390 . S
C1235 H1239 0.950 . S
H1236 C1232 0.950 . S
C1237 C1235 1.390 . S
C1237 C1238 1.387 1_455 S
C1237 H1240 0.950 . S
C1238 C1237 1.387 1_655 S
C1238 C1241 1.387 . S
H1239 C1235 0.950 . S
H1240 C1237 0.950 . S
C1241 C1232 1.390 1_655 S
C1241 H1234 0.950 . S
C1241 C1238 1.387 . S
C1242 C1243 1.387 . S
C1242 H1246 0.950 . S
C1242 C1251 1.390 . S
C1243 C1242 1.387 . S
C1243 C1245 1.387 . S
H1244 C1251 0.950 . S
C1245 C1243 1.387 . S
C1245 C1247 1.390 . S
C1245 H1249 0.950 . S
H1246 C1242 0.950 . S
C1247 C1245 1.390 . S
C1247 C1248 1.387 . S
C1247 H1250 0.950 . S
C1248 C1247 1.387 . S
C1248 C1251 1.387 . S
H1249 C1245 0.950 . S
H1250 C1247 0.950 . S
C1251 C1242 1.390 . S
C1251 H1244 0.950 . S
C1251 C1248 1.387 . S
C1252 C1253 1.387 . S
C1252 H1256 0.950 . S
C1252 C1261 1.390 . S
C1253 C1252 1.387 . S
C1253 C1255 1.387 . S
H1254 C1261 0.950 . S
C1255 C1253 1.387 . S
C1255 C1257 1.390 . S
C1255 H1259 0.950 . S
H1256 C1252 0.950 . S
C1257 C1255 1.390 . S
C1257 C1258 1.387 . S
C1257 H1260 0.950 . S
C1258 C1257 1.387 . S
C1258 C1261 1.387 . S
H1259 C1255 0.950 . S
H1260 C1257 0.950 . S
C1261 C1252 1.390 . S
C1261 H1254 0.950 . S
C1261 C1258 1.387 . S
C1262 C1263 1.387 . S
C1262 H1266 0.950 . S
C1262 C1271 1.390 . S
C1263 C1262 1.387 . S
C1263 C1265 1.387 . S
H1264 C1271 0.950 . S
C1265 C1263 1.387 . S
C1265 C1267 1.390 . S
C1265 H1269 0.950 . S
H1266 C1262 0.950 . S
C1267 C1265 1.390 . S
C1267 C1268 1.387 . S
C1267 H1270 0.950 . S
C1268 C1267 1.387 . S
C1268 C1271 1.387 . S
H1269 C1265 0.950 . S
H1270 C1267 0.950 . S
C1271 C1262 1.390 . S
C1271 H1264 0.950 . S
C1271 C1268 1.387 . S
C1272 C1273 1.387 . S
C1272 H1276 0.950 . S
C1272 C1281 1.390 . S
C1273 C1272 1.387 . S
C1273 C1275 1.387 . S
H1274 C1281 0.950 . S
C1275 C1273 1.387 . S
C1275 C1277 1.390 . S
C1275 H1279 0.950 . S
H1276 C1272 0.950 . S
C1277 C1275 1.390 . S
C1277 C1278 1.387 . S
C1277 H1280 0.950 . S
C1278 C1277 1.387 . S
C1278 C1281 1.387 . S
H1279 C1275 0.950 . S
H1280 C1277 0.950 . S
C1281 C1272 1.390 . S
C1281 H1274 0.950 . S
C1281 C1278 1.387 . S
C1282 C1283 1.387 . S
C1282 H1286 0.950 . S
C1282 C1291 1.390 . S
C1283 C1282 1.387 . S
C1283 C1285 1.387 . S
H1284 C1291 0.950 . S
C1285 C1283 1.387 . S
C1285 C1287 1.390 . S
C1285 H1289 0.950 . S
H1286 C1282 0.950 . S
C1287 C1285 1.390 . S
C1287 C1288 1.387 . S
C1287 H1290 0.950 . S
C1288 C1287 1.387 . S
C1288 C1291 1.387 . S
H1289 C1285 0.950 . S
H1290 C1287 0.950 . S
C1291 C1282 1.390 . S
C1291 H1284 0.950 . S
C1291 C1288 1.387 . S
C1292 C1293 1.387 . S
C1292 H1296 0.950 . S
C1292 C1301 1.390 . S
C1293 C1292 1.387 . S
C1293 C1295 1.387 . S
H1294 C1301 0.950 . S
C1295 C1293 1.387 . S
C1295 C1297 1.390 . S
C1295 H1299 0.950 . S
H1296 C1292 0.950 . S
C1297 C1295 1.390 . S
C1297 C1298 1.387 . S
C1297 H1300 0.950 . S
C1298 C1297 1.387 . S
C1298 C1301 1.387 . S
H1299 C1295 0.950 . S
H1300 C1297 0.950 . S
C1301 C1292 1.390 . S
C1301 H1294 0.950 . S
C1301 C1298 1.387 . S
C1302 C1303 1.387 . S
C1302 H1306 0.950 . S
C1302 C1311 1.390 . S
C1303 C1302 1.387 . S
C1303 C1305 1.387 . S
H1304 C1311 0.950 . S
C1305 C1303 1.387 . S
C1305 C1307 1.390 . S
C1305 H1309 0.950 . S
H1306 C1302 0.950 . S
C1307 C1305 1.390 . S
C1307 C1308 1.387 . S
C1307 H1310 0.950 . S
C1308 C1307 1.387 . S
C1308 C1311 1.387 . S
H1309 C1305 0.950 . S
H1310 C1307 0.950 . S
C1311 C1302 1.390 . S
C1311 H1304 0.950 . S
C1311 C1308 1.387 . S
C1312 C1313 1.387 . S
C1312 H1316 0.950 . S
C1312 C1321 1.390 . S
C1313 C1312 1.387 . S
C1313 C1315 1.387 . S
H1314 C1321 0.950 . S
C1315 C1313 1.387 . S
C1315 C1317 1.390 . S
C1315 H1319 0.950 . S
H1316 C1312 0.950 . S
C1317 C1315 1.390 . S
C1317 C1318 1.387 . S
C1317 H1320 0.950 . S
C1318 C1317 1.387 . S
C1318 C1321 1.387 . S
H1319 C1315 0.950 . S
H1320 C1317 0.950 . S
C1321 C1312 1.390 . S
C1321 H1314 0.950 . S
C1321 C1318 1.387 . S
C1322 C1323 1.387 . S
C1322 H1326 0.950 . S
C1322 C1331 1.390 . S
C1323 C1322 1.387 . S
C1323 C1325 1.387 . S
H1324 C1331 0.950 . S
C1325 C1323 1.387 . S
C1325 C1327 1.390 . S
C1325 H1329 0.950 . S
H1326 C1322 0.950 . S
C1327 C1325 1.390 . S
C1327 C1328 1.387 . S
C1327 H1330 0.950 . S
C1328 C1327 1.387 . S
C1328 C1331 1.387 . S
H1329 C1325 0.950 . S
H1330 C1327 0.950 . S
C1331 C1322 1.390 . S
C1331 H1324 0.950 . S
C1331 C1328 1.387 . S
C1332 C1333 1.387 . S
C1332 H1336 0.950 . S
C1332 C1341 1.390 . S
C1333 C1332 1.387 . S
C1333 C1335 1.387 . S
H1334 C1341 0.950 . S
C1335 C1333 1.387 . S
C1335 C1337 1.390 . S
C1335 H1339 0.950 . S
H1336 C1332 0.950 . S
C1337 C1335 1.390 . S
C1337 C1338 1.387 . S
C1337 H1340 0.950 . S
C1338 C1337 1.387 . S
C1338 C1341 1.387 . S
H1339 C1335 0.950 . S
H1340 C1337 0.950 . S
C1341 C1332 1.390 . S
C1341 H1334 0.950 . S
C1341 C1338 1.387 . S
C1342 C1343 1.387 . S
C1342 H1346 0.950 . S
C1342 C1351 1.390 . S
C1343 C1342 1.387 . S
C1343 C1345 1.387 . S
H1344 C1351 0.950 . S
C1345 C1343 1.387 . S
C1345 C1347 1.390 . S
C1345 H1349 0.950 . S
H1346 C1342 0.950 . S
C1347 C1345 1.390 . S
C1347 C1348 1.387 . S
C1347 H1350 0.950 . S
C1348 C1347 1.387 . S
C1348 C1351 1.387 . S
H1349 C1345 0.950 . S
H1350 C1347 0.950 . S
C1351 C1342 1.390 . S
C1351 H1344 0.950 . S
C1351 C1348 1.387 . S
C1352 C1353 1.387 . S
C1352 H1356 0.950 . S
C1352 C1361 1.390 . S
C1353 C1352 1.387 . S
C1353 C1355 1.387 . S
H1354 C1361 0.950 . S
C1355 C1353 1.387 . S
C1355 C1357 1.390 . S
C1355 H1359 0.950 . S
H1356 C1352 0.950 . S
C1357 C1355 1.390 . S
C1357 C1358 1.387 . S
C1357 H1360 0.950 . S
C1358 C1357 1.387 . S
C1358 C1361 1.387 . S
H1359 C1355 0.950 . S
H1360 C1357 0.950 . S
C1361 C1352 1.390 . S
C1361 H1354 0.950 . S
C1361 C1358 1.387 . S
C1362 C1363 1.387 . S
C1362 H1366 0.950 . S
C1362 C1371 1.390 . S
C1363 C1362 1.387 . S
C1363 C1365 1.387 . S
H1364 C1371 0.950 . S
C1365 C1363 1.387 . S
C1365 C1367 1.390 . S
C1365 H1369 0.950 . S
H1366 C1362 0.950 . S
C1367 C1365 1.390 . S
C1367 C1368 1.387 . S
C1367 H1370 0.950 . S
C1368 C1367 1.387 . S
C1368 C1371 1.387 . S
H1369 C1365 0.950 . S
H1370 C1367 0.950 . S
C1371 C1362 1.390 . S
C1371 H1364 0.950 . S
C1371 C1368 1.387 . S
C1372 C1373 1.387 . S
C1372 H1376 0.950 . S
C1372 C1381 1.394 . S
C1373 C1372 1.387 . S
C1373 C1375 1.387 . S
H1374 C1381 0.943 1_565 S
C1375 C1373 1.387 . S
C1375 C1377 1.390 . S
C1375 H1379 0.950 . S
H1376 C1372 0.950 . S
C1377 C1375 1.390 . S
C1377 C1378 1.387 1_545 S
C1377 H1380 0.950 . S
C1378 C1377 1.387 1_565 S
C1378 C1381 1.390 1_565 S
H1379 C1375 0.950 . S
H1380 C1377 0.950 . S
C1381 C1372 1.394 . S
C1381 H1374 0.943 1_545 S
C1381 C1378 1.390 1_545 S
C1382 C1383 1.387 . S
C1382 H1386 0.950 . S
C1382 C1391 1.390 . S
C1383 C1382 1.387 . S
C1383 C1385 1.387 . S
H1384 C1391 0.950 . S
C1385 C1383 1.387 . S
C1385 C1387 1.390 1_455 S
C1385 H1389 0.950 . S
H1386 C1382 0.950 . S
C1387 C1385 1.390 1_655 S
C1387 C1388 1.387 . S
C1387 H1390 0.950 . S
C1388 C1387 1.387 . S
C1388 C1391 1.387 1_655 S
H1389 C1385 0.950 . S
H1390 C1387 0.950 . S
C1391 C1382 1.390 . S
C1391 H1384 0.950 . S
C1391 C1388 1.387 1_455 S
C1392 C1393 1.387 1_554 S
C1392 H1396 0.950 . S
C1392 C1401 1.390 . S
C1393 C1392 1.387 1_556 S
C1393 C1395 1.387 . S
H1394 C1401 0.950 . S
C1395 C1393 1.387 . S
C1395 C1397 1.390 . S
C1395 H1399 0.950 . S
H1396 C1392 0.950 . S
C1397 C1395 1.390 . S
C1397 C1398 1.387 1_556 S
C1397 H1400 0.950 . S
C1398 C1397 1.387 1_554 S
C1398 C1401 1.387 . S
H1399 C1395 0.950 . S
H1400 C1397 0.950 . S
C1401 C1392 1.390 . S
C1401 H1394 0.950 . S
C1401 C1398 1.387 . S
C1402 C1403 1.387 . S
C1402 H1406 0.950 . S
C1402 C1411 1.390 1_566 S
C1403 C1402 1.387 . S
C1403 C1405 1.387 1_556 S
H1404 C1411 0.949 1_556 S
C1405 C1403 1.387 1_554 S
C1405 C1407 1.390 1_565 S
C1405 H1409 0.950 . S
H1406 C1402 0.950 . S
C1407 C1405 1.390 1_545 S
C1407 C1408 1.387 . S
C1407 H1410 0.950 . S
C1408 C1407 1.387 . S
C1408 C1411 1.387 . S
H1409 C1405 0.950 . S
H1410 C1407 0.950 . S
C1411 C1402 1.390 1_544 S
C1411 H1404 0.949 1_554 S
C1411 C1408 1.387 . S
C1412 C1413 1.387 1_554 S
C1412 H1416 0.950 . S
C1412 C1421 1.390 . S
C1413 C1412 1.387 1_556 S
C1413 C1415 1.387 . S
H1414 C1421 0.950 . S
C1415 C1413 1.387 . S
C1415 C1417 1.390 1_455 S
C1415 H1419 0.950 . S
H1416 C1412 0.950 . S
C1417 C1415 1.390 1_655 S
C1417 C1418 1.387 1_556 S
C1417 H1420 0.950 . S
C1418 C1417 1.387 1_554 S
C1418 C1421 1.387 1_655 S
H1419 C1415 0.950 . S
H1420 C1417 0.950 . S
C1421 C1412 1.390 . S
C1421 H1414 0.950 . S
C1421 C1418 1.387 1_455 S
C1063 C33 1.308 . S
C1068 C829 1.305 . S
C1073 C711 1.261 . S
C1078 C62 1.266 . S
C1083 C151 1.484 1_565 S
C1088 C800 1.481 . S
C1093 C387 1.262 . S
C1098 C121 1.260 . S
C1103 C416 1.236 . S
C1108 C3 1.237 . S
C1113 C475 1.413 . S
C1118 C92 1.418 . S
C1123 C180 1.240 . S
C1128 C652 1.241 . S
C1133 C534 1.144 . S
C1138 C239 1.144 . S
C1143 C593 1.377 . S
C1148 C328 1.379 . S
C1153 C298 1.303 . S
C1158 C888 1.297 . S
C1163 C210 1.277 . S
C1168 C947 1.274 . S
C1173 C1036 1.504 . S
C1178 C269 1.500 . S
C1183 C741 1.361 . S
C1188 C505 1.361 . S
C1193 C357 1.292 . S
C1198 C770 1.290 1_545 S
C1203 C859 1.549 . S
C1208 C446 1.544 . S
C1213 C1006 1.420 . S
C1218 C564 1.421 . S
C1223 C623 1.368 . S
C1228 C918 1.364 . S
C1233 C977 1.573 . S
C1238 C682 1.570 . S
C1243 C937 2.134 . S
C1248 C5 2.084 . S
C1253 C111 1.853 . S
C1258 C996 1.865 . S
C1263 C123 1.666 . S
C1268 C1008 1.674 . S
C1273 C170 1.625 . S
C1278 C701 1.612 . S
C1283 C583 2.157 . S
C1288 C52 2.157 . S
C1293 C64 1.865 . S
C1298 C642 1.922 . S
C1303 C359 2.146 . S
C1308 C229 2.189 . S
C1313 C465 1.716 . S
C1318 C288 1.701 . S
C1323 C300 1.789 . S
C1328 C524 1.848 . S
C1333 C347 1.834 . S
C1338 C878 1.847 . S
C1343 C182 2.009 . S
C1348 C760 2.065 . S
C1353 C241 1.923 . S
C1358 C772 1.941 . S
C1363 C477 1.713 . S
C1368 C1055 1.753 . S
C1373 C406 2.160 . S
C1378 C890 2.159 . S
C1383 C949 1.928 . S
C1388 C418 1.934 . S
C1393 C713 2.175 . S
C1398 C536 2.135 . S
C1403 C819 1.760 . S
C1408 C595 1.735 . S
C1413 C831 1.837 . S
C1418 C654 1.852 . S
