# Generated by pormake.
# Topology gis, (4)-cn, num edge types: 1
# Building blocks:
#     Node 0, Type 0, BuildingBlock: KUFVIS_clean_sbu_0, # of connection points: 4
#     Node 1, Type 0, BuildingBlock: KUFVIS_clean_sbu_0, # of connection points: 4
#     Node 2, Type 0, BuildingBlock: KUFVIS_clean_sbu_0, # of connection points: 4
#     Node 3, Type 0, BuildingBlock: KUFVIS_clean_sbu_0, # of connection points: 4
#     Node 4, Type 0, BuildingBlock: KUFVIS_clean_sbu_0, # of connection points: 4
#     Node 5, Type 0, BuildingBlock: KUFVIS_clean_sbu_0, # of connection points: 4
#     Node 6, Type 0, BuildingBlock: KUFVIS_clean_sbu_0, # of connection points: 4
#     Node 7, Type 0, BuildingBlock: KUFVIS_clean_sbu_0, # of connection points: 4
#     Node 8, Type 0, BuildingBlock: KUFVIS_clean_sbu_0, # of connection points: 4
#     Node 9, Type 0, BuildingBlock: KUFVIS_clean_sbu_0, # of connection points: 4
#     Node 10, Type 0, BuildingBlock: KUFVIS_clean_sbu_0, # of connection points: 4
#     Node 11, Type 0, BuildingBlock: KUFVIS_clean_sbu_0, # of connection points: 4
#     Node 12, Type 0, BuildingBlock: KUFVIS_clean_sbu_0, # of connection points: 4
#     Node 13, Type 0, BuildingBlock: KUFVIS_clean_sbu_0, # of connection points: 4
#     Node 14, Type 0, BuildingBlock: KUFVIS_clean_sbu_0, # of connection points: 4
#     Node 15, Type 0, BuildingBlock: KUFVIS_clean_sbu_0, # of connection points: 4
#     Edge 16, Type (0, 0), BuildingBlock: CIFDUS_clean_linker_0, # of connection points: 2
#     Edge 17, Type (0, 0), BuildingBlock: CIFDUS_clean_linker_0, # of connection points: 2
#     Edge 18, Type (0, 0), BuildingBlock: CIFDUS_clean_linker_0, # of connection points: 2
#     Edge 19, Type (0, 0), BuildingBlock: CIFDUS_clean_linker_0, # of connection points: 2
#     Edge 20, Type (0, 0), BuildingBlock: CIFDUS_clean_linker_0, # of connection points: 2
#     Edge 21, Type (0, 0), BuildingBlock: CIFDUS_clean_linker_0, # of connection points: 2
#     Edge 22, Type (0, 0), BuildingBlock: CIFDUS_clean_linker_0, # of connection points: 2
#     Edge 23, Type (0, 0), BuildingBlock: CIFDUS_clean_linker_0, # of connection points: 2
#     Edge 24, Type (0, 0), BuildingBlock: CIFDUS_clean_linker_0, # of connection points: 2
#     Edge 25, Type (0, 0), BuildingBlock: CIFDUS_clean_linker_0, # of connection points: 2
#     Edge 26, Type (0, 0), BuildingBlock: CIFDUS_clean_linker_0, # of connection points: 2
#     Edge 27, Type (0, 0), BuildingBlock: CIFDUS_clean_linker_0, # of connection points: 2
#     Edge 28, Type (0, 0), BuildingBlock: CIFDUS_clean_linker_0, # of connection points: 2
#     Edge 29, Type (0, 0), BuildingBlock: CIFDUS_clean_linker_0, # of connection points: 2
#     Edge 30, Type (0, 0), BuildingBlock: CIFDUS_clean_linker_0, # of connection points: 2
#     Edge 31, Type (0, 0), BuildingBlock: CIFDUS_clean_linker_0, # of connection points: 2
#     Edge 32, Type (0, 0), BuildingBlock: CIFDUS_clean_linker_0, # of connection points: 2
#     Edge 33, Type (0, 0), BuildingBlock: CIFDUS_clean_linker_0, # of connection points: 2
#     Edge 34, Type (0, 0), BuildingBlock: CIFDUS_clean_linker_0, # of connection points: 2
#     Edge 35, Type (0, 0), BuildingBlock: CIFDUS_clean_linker_0, # of connection points: 2
#     Edge 36, Type (0, 0), BuildingBlock: CIFDUS_clean_linker_0, # of connection points: 2
#     Edge 37, Type (0, 0), BuildingBlock: CIFDUS_clean_linker_0, # of connection points: 2
#     Edge 38, Type (0, 0), BuildingBlock: CIFDUS_clean_linker_0, # of connection points: 2
#     Edge 39, Type (0, 0), BuildingBlock: CIFDUS_clean_linker_0, # of connection points: 2
#     Edge 40, Type (0, 0), BuildingBlock: CIFDUS_clean_linker_0, # of connection points: 2
#     Edge 41, Type (0, 0), BuildingBlock: CIFDUS_clean_linker_0, # of connection points: 2
#     Edge 42, Type (0, 0), BuildingBlock: CIFDUS_clean_linker_0, # of connection points: 2
#     Edge 43, Type (0, 0), BuildingBlock: CIFDUS_clean_linker_0, # of connection points: 2
#     Edge 44, Type (0, 0), BuildingBlock: CIFDUS_clean_linker_0, # of connection points: 2
#     Edge 45, Type (0, 0), BuildingBlock: CIFDUS_clean_linker_0, # of connection points: 2
#     Edge 46, Type (0, 0), BuildingBlock: CIFDUS_clean_linker_0, # of connection points: 2
#     Edge 47, Type (0, 0), BuildingBlock: CIFDUS_clean_linker_0, # of connection points: 2
# Relax obj value: 0.089
# Max RMSD: 0.144
# Mean RMSD: 0.139
data_MOF--net-gis--node1-KUFVIS_clean_sbu_0--edge1-CIFDUS_clean_linker_0
_symmetry_space_group_name_H-M    P1
_symmetry_Int_Tables_number       1
_symmetry_cell_setting            triclinic
loop_
_symmetry_equiv_pos_as_xyz
'x, y, z'
_cell_length_a     43.869425
_cell_length_b     46.826338
_cell_length_c     33.416707
_cell_angle_alpha  90.514302
_cell_angle_beta   90.070763
_cell_angle_gamma 89.990424
loop_
_atom_site_label
_atom_site_type_symbol
_atom_site_fract_x
_atom_site_fract_y
_atom_site_fract_z
_atom_type_partial_charge
Mn0 Mn 0.12858 0.60556 0.11709 0.0
Mn1 Mn 0.09319 0.63588 0.19661 0.0
C2 C 0.07661 0.61306 0.11465 0.0
C3 C 0.14726 0.56402 0.08569 0.0
C4 C 0.1314 0.66921 0.13712 0.0
O5 O 0.15999 0.60349 0.16206 0.0
O6 O 0.13189 0.61805 0.21484 0.0
C7 C 0.0779 0.58373 0.24168 0.0
N8 N 0.06888 0.60826 0.22357 0.0
C9 C 0.0166 0.60027 0.242 0.0
C10 C 0.02534 0.575 0.26109 0.0
C11 C 0.05612 0.56666 0.26082 0.0
C12 C 0.03932 0.61641 0.22345 0.0
H13 H 0.10154 0.57727 0.24146 0.0
C14 C 0.15654 0.60818 0.19954 0.0
O15 O 0.1579 0.5891 0.07696 0.0
O16 O 0.12658 0.5631 0.11332 0.0
N17 N 0.05542 0.6542 0.18398 0.0
C18 C 0.05062 0.67867 0.16309 0.0
C19 C 0.02094 0.68967 0.15984 0.0
C20 C 0.99658 0.67563 0.17852 0.0
C21 C 0.00216 0.65081 0.2005 0.0
C22 C 0.03224 0.64093 0.20288 0.0
H23 H 0.06925 0.68965 0.14882 0.0
O24 O 0.09195 0.60849 0.08206 0.0
O25 O 0.092 0.61211 0.14796 0.0
O26 O 0.13622 0.64891 0.11204 0.0
O27 O 0.11712 0.66603 0.17012 0.0
C28 C 0.97898 0.63516 0.21954 0.0
C29 C 0.98618 0.60987 0.24017 0.0
H30 H 0.0086 0.56174 0.2758 0.0
H31 H 0.06302 0.54713 0.27533 0.0
H32 H 0.01683 0.70887 0.14287 0.0
H33 H 0.97368 0.68401 0.17559 0.0
H34 H 0.95548 0.64219 0.21804 0.0
H35 H 0.9681 0.59784 0.25425 0.0
Mn36 Mn 0.66092 0.87754 0.40043 0.0
Mn37 Mn 0.65157 0.85267 0.49389 0.0
C38 C 0.66041 0.82872 0.41039 0.0
C39 C 0.69535 0.89527 0.35393 0.0
C40 C 0.59926 0.87481 0.44281 0.0
O41 O 0.66687 0.91282 0.43546 0.0
O42 O 0.6646 0.89362 0.49675 0.0
C43 C 0.71643 0.85433 0.51809 0.0
N44 N 0.69022 0.83927 0.51226 0.0
C45 C 0.7147 0.7954 0.53106 0.0
C46 C 0.74191 0.81047 0.53758 0.0
C47 C 0.74278 0.84005 0.531 0.0
C48 C 0.6892 0.81078 0.51818 0.0
H49 H 0.71724 0.87703 0.51273 0.0
C50 C 0.6683 0.91496 0.47344 0.0
O51 O 0.66643 0.90097 0.35078 0.0
O52 O 0.70381 0.8794 0.38341 0.0
N53 N 0.63882 0.81368 0.49679 0.0
C54 C 0.61042 0.8026 0.49091 0.0
C55 C 0.6055 0.77329 0.49677 0.0
C56 C 0.6297 0.7558 0.50916 0.0
C57 C 0.65843 0.7679 0.51645 0.0
C58 C 0.66187 0.79729 0.51051 0.0
H59 H 0.59174 0.81596 0.48144 0.0
O60 O 0.65665 0.8391 0.37492 0.0
O61 O 0.66563 0.84734 0.43885 0.0
O62 O 0.61458 0.87957 0.41088 0.0
O63 O 0.61114 0.86541 0.47521 0.0
C64 C 0.68378 0.75199 0.52946 0.0
C65 C 0.71193 0.76571 0.53662 0.0
H66 H 0.76229 0.79953 0.54749 0.0
H67 H 0.76373 0.85181 0.53577 0.0
H68 H 0.58318 0.76417 0.49148 0.0
H69 H 0.6259 0.73315 0.51324 0.0
H70 H 0.68188 0.72919 0.53403 0.0
H71 H 0.73128 0.75324 0.54651 0.0
Mn72 Mn 0.35998 0.40869 0.61434 0.0
Mn73 Mn 0.38823 0.37894 0.69832 0.0
C74 C 0.41247 0.40037 0.61972 0.0
C75 C 0.34578 0.4497 0.57891 0.0
C76 C 0.35885 0.34399 0.63171 0.0
O77 O 0.32402 0.41295 0.65336 0.0
O78 O 0.34615 0.39277 0.70657 0.0
C79 C 0.38986 0.43313 0.74469 0.0
N80 N 0.40416 0.40913 0.73097 0.0
C81 C 0.45129 0.42346 0.76179 0.0
C82 C 0.43693 0.44797 0.77706 0.0
C83 C 0.40607 0.45286 0.76836 0.0
C84 C 0.43384 0.40432 0.73889 0.0
H85 H 0.36638 0.43738 0.73728 0.0
C86 C 0.32363 0.40516 0.68985 0.0
O87 O 0.33532 0.42464 0.56904 0.0
O88 O 0.36352 0.45097 0.60987 0.0
N89 N 0.42889 0.36467 0.69678 0.0
C90 C 0.43984 0.34093 0.67785 0.0
C91 C 0.47066 0.33367 0.68199 0.0
C92 C 0.48979 0.35093 0.70553 0.0
C93 C 0.47774 0.37457 0.72608 0.0
C94 C 0.44679 0.38049 0.72134 0.0
H95 H 0.42554 0.32841 0.65835 0.0
O96 O 0.39957 0.40406 0.5853 0.0
O97 O 0.39439 0.40247 0.65065 0.0
O98 O 0.35164 0.36509 0.60936 0.0
O99 O 0.37275 0.34688 0.66525 0.0
C100 C 0.49567 0.39368 0.74861 0.0
C101 C 0.48253 0.41789 0.76693 0.0
H102 H 0.44951 0.46343 0.79484 0.0
H103 H 0.39489 0.47194 0.77949 0.0
H104 H 0.4799 0.3155 0.66585 0.0
H105 H 0.51392 0.34667 0.70591 0.0
H106 H 0.51994 0.39095 0.74968 0.0
H107 H 0.49688 0.43261 0.78359 0.0
Mn108 Mn 0.85139 0.12009 0.88029 0.0
Mn109 Mn 0.86956 0.14507 0.78983 0.0
C110 C 0.90259 0.1279 0.86548 0.0
C111 C 0.83992 0.07944 0.91803 0.0
C112 C 0.84113 0.18124 0.85629 0.0
O113 O 0.81247 0.11496 0.84716 0.0
O114 O 0.83199 0.12198 0.78581 0.0
C115 C 0.88308 0.09227 0.7439 0.0
N116 N 0.89143 0.11877 0.75684 0.0
C117 C 0.93252 0.12072 0.70944 0.0
C118 C 0.92445 0.09338 0.69551 0.0
C119 C 0.89989 0.07893 0.71324 0.0
C120 C 0.91571 0.13237 0.74114 0.0
H121 H 0.86347 0.08168 0.75647 0.0
C122 C 0.81069 0.11379 0.80907 0.0
O123 O 0.83084 0.10469 0.9294 0.0
O124 O 0.85529 0.07799 0.88507 0.0
N125 N 0.90559 0.16792 0.78826 0.0
C126 C 0.91157 0.19324 0.80708 0.0
C127 C 0.93603 0.21008 0.79398 0.0
C128 C 0.95343 0.20118 0.76085 0.0
C129 C 0.94679 0.17506 0.74192 0.0
C130 C 0.92291 0.15868 0.75736 0.0
H131 H 0.89744 0.20081 0.83134 0.0
O132 O 0.89331 0.12545 0.90212 0.0
O133 O 0.88161 0.12473 0.83829 0.0
O134 O 0.84384 0.16351 0.8849 0.0
O135 O 0.84738 0.17491 0.82 0.0
C136 C 0.96333 0.16426 0.7089 0.0
C137 C 0.9564 0.13697 0.69295 0.0
H138 H 0.93696 0.08329 0.6713 0.0
H139 H 0.89351 0.05786 0.70263 0.0
H140 H 0.941 0.23021 0.80874 0.0
H141 H 0.97197 0.21443 0.75042 0.0
H142 H 0.98194 0.17641 0.69628 0.0
H143 H 0.9697 0.12862 0.6682 0.0
Mn144 Mn 0.16621 0.37804 0.9065 0.0
Mn145 Mn 0.14886 0.34394 0.99236 0.0
C146 C 0.16575 0.32849 0.90745 0.0
C147 C 0.20306 0.3987 0.86523 0.0
C148 C 0.10077 0.36752 0.9367 0.0
O149 O 0.16881 0.4104 0.94782 0.0
O150 O 0.15659 0.38533 1.00237 0.0
C151 C 0.21005 0.35008 0.02883 0.0
N152 N 0.18641 0.33314 0.01699 0.0
C153 C 0.21187 0.29105 0.04073 0.0
C154 C 0.23642 0.30806 0.05341 0.0
C155 C 0.23554 0.3377 0.04731 0.0
C156 C 0.18717 0.30458 0.02232 0.0
H157 H 0.20946 0.37287 0.02418 0.0
C158 C 0.16345 0.40882 0.98524 0.0
O159 O 0.17437 0.40494 0.86103 0.0
O160 O 0.21015 0.38166 0.89407 0.0
N161 N 0.14048 0.30387 0.98918 0.0
C162 C 0.11487 0.2905 0.97548 0.0
C163 C 0.11208 0.26078 0.97937 0.0
C164 C 0.13534 0.24518 0.99808 0.0
C165 C 0.16113 0.25948 0.01291 0.0
C166 C 0.16259 0.28915 0.00826 0.0
H167 H 0.09691 0.30237 0.96114 0.0
O168 O 0.16438 0.34233 0.87417 0.0
O169 O 0.16886 0.34405 0.93987 0.0
O170 O 0.11905 0.37855 0.91112 0.0
O171 O 0.10965 0.35388 0.96762 0.0
C172 C 0.1856 0.24542 0.03169 0.0
C173 C 0.21101 0.26118 0.04545 0.0
H174 H 0.2561 0.29859 0.06774 0.0
H175 H 0.25444 0.35096 0.05688 0.0
H176 H 0.09209 0.24992 0.96789 0.0
H177 H 0.13321 0.22223 1.00076 0.0
H178 H 0.1852 0.22248 0.03549 0.0
H179 H 0.22978 0.25011 0.05961 0.0
Mn180 Mn 0.86092 0.91723 0.11663 0.0
Mn181 Mn 0.8894 0.89723 0.20586 0.0
C182 C 0.91346 0.91356 0.12462 0.0
C183 C 0.84303 0.95513 0.07762 0.0
C184 C 0.86932 0.85425 0.14273 0.0
O185 O 0.82318 0.91955 0.15222 0.0
O186 O 0.845 0.90358 0.20811 0.0
C187 C 0.87713 0.95446 0.24112 0.0
N188 N 0.89694 0.9327 0.23317 0.0
C189 C 0.93873 0.95963 0.26095 0.0
C190 C 0.91864 0.98198 0.27027 0.0
C191 C 0.88769 0.9794 0.26019 0.0
C192 C 0.9268 0.9352 0.24216 0.0
H193 H 0.8535 0.95307 0.23255 0.0
C194 C 0.82184 0.91229 0.1887 0.0
O195 O 0.83593 0.92884 0.06872 0.0
O196 O 0.85987 0.95912 0.10889 0.0
N197 N 0.9321 0.89062 0.21146 0.0
C198 C 0.94796 0.86619 0.2039 0.0
C199 C 0.97927 0.86526 0.21208 0.0
C200 C 0.9936 0.88928 0.22894 0.0
C201 C 0.97639 0.91315 0.24006 0.0
C202 C 0.94527 0.91272 0.23132 0.0
H203 H 0.93697 0.84794 0.19073 0.0
O204 O 0.90127 0.91507 0.08947 0.0
O205 O 0.89463 0.91649 0.15468 0.0
O206 O 0.85861 0.87264 0.11782 0.0
O207 O 0.8823 0.861 0.17613 0.0
C208 C 0.98906 0.93763 0.25838 0.0
C209 C 0.97021 0.96084 0.26896 0.0
H210 H 0.92678 1.00133 0.28473 0.0
H211 H 0.87207 0.9967 0.26674 0.0
H212 H 0.99249 0.84657 0.20402 0.0
H213 H 0.01798 0.88993 0.23132 0.0
H214 H 0.01327 0.93894 0.26421 0.0
H215 H 0.98018 0.97955 0.28308 0.0
Mn216 Mn 0.35928 0.61308 0.37798 0.0
Mn217 Mn 0.38214 0.64087 0.29011 0.0
C218 C 0.41138 0.61965 0.36554 0.0
C219 C 0.34655 0.57308 0.41652 0.0
C220 C 0.35851 0.67728 0.35936 0.0
O221 O 0.32074 0.60846 0.34388 0.0
O222 O 0.33973 0.62704 0.28772 0.0
C223 C 0.38046 0.58651 0.24387 0.0
N224 N 0.39488 0.61119 0.25439 0.0
C225 C 0.43152 0.60548 0.20155 0.0
C226 C 0.41704 0.58002 0.18985 0.0
C227 C 0.39166 0.57027 0.21151 0.0
C228 C 0.42019 0.61989 0.2352 0.0
H229 H 0.36043 0.57953 0.25979 0.0
C230 C 0.31827 0.61522 0.30719 0.0
O231 O 0.33764 0.59858 0.42675 0.0
O232 O 0.36222 0.57085 0.38384 0.0
N233 N 0.42249 0.65546 0.28402 0.0
C234 C 0.43491 0.67928 0.30089 0.0
C235 C 0.45895 0.6933 0.28144 0.0
C236 C 0.47026 0.68239 0.24501 0.0
C237 C 0.4582 0.6569 0.22926 0.0
C238 C 0.43403 0.64417 0.24983 0.0
H239 H 0.42626 0.68751 0.32875 0.0
O240 O 0.40072 0.61773 0.40153 0.0
O241 O 0.39134 0.61712 0.3369 0.0
O242 O 0.35199 0.65673 0.38282 0.0
O243 O 0.37014 0.6735 0.32465 0.0
C244 C 0.46947 0.64333 0.19445 0.0
C245 C 0.45644 0.61738 0.18095 0.0
H246 H 0.42513 0.56786 0.16427 0.0
H247 H 0.38036 0.55065 0.20271 0.0
H248 H 0.46871 0.71248 0.29444 0.0
H249 H 0.48892 0.69314 0.23023 0.0
H250 H 0.48843 0.65243 0.17822 0.0
H251 H 0.4656 0.60689 0.15457 0.0
Mn252 Mn 0.63193 0.10857 0.61136 0.0
Mn253 Mn 0.59397 0.14647 0.68194 0.0
C254 C 0.58179 0.12043 0.60054 0.0
C255 C 0.64776 0.06305 0.58978 0.0
C256 C 0.63966 0.17274 0.62458 0.0
O257 O 0.65921 0.10673 0.6603 0.0
O258 O 0.62916 0.12682 0.70732 0.0
C259 C 0.57015 0.09879 0.73027 0.0
N260 N 0.56507 0.12273 0.70844 0.0
C261 C 0.51121 0.12081 0.72168 0.0
C262 C 0.51587 0.09621 0.74451 0.0
C263 C 0.54545 0.08509 0.74868 0.0
C264 C 0.53667 0.13346 0.70391 0.0
H265 H 0.59288 0.09026 0.73358 0.0
C266 C 0.65356 0.11386 0.69648 0.0
O267 O 0.66196 0.08592 0.57818 0.0
O268 O 0.62498 0.06676 0.61379 0.0
N269 N 0.5593 0.16686 0.66223 0.0
C270 C 0.55853 0.19006 0.6379 0.0
C271 C 0.5305 0.20329 0.62971 0.0
C272 C 0.50363 0.19283 0.64708 0.0
C273 C 0.50506 0.16929 0.67264 0.0
C274 C 0.53365 0.157 0.67973 0.0
H275 H 0.57911 0.19836 0.62471 0.0
O276 O 0.59888 0.11226 0.57095 0.0
O277 O 0.59422 0.12026 0.63592 0.0
O278 O 0.64465 0.15071 0.60245 0.0
O279 O 0.62258 0.17265 0.65554 0.0
C280 C 0.47919 0.1573 0.69093 0.0
C281 C 0.48225 0.13305 0.7154 0.0
H282 H 0.49688 0.08557 0.75873 0.0
H283 H 0.54921 0.06604 0.76611 0.0
H284 H 0.52961 0.22152 0.61007 0.0
H285 H 0.48203 0.20298 0.64048 0.0
H286 H 0.45676 0.16627 0.68587 0.0
H287 H 0.46214 0.12375 0.72878 0.0
Mn288 Mn 0.87348 0.40942 0.89273 0.0
Mn289 Mn 0.9082 0.37689 0.81433 0.0
C290 C 0.92546 0.40141 0.89484 0.0
C291 C 0.85566 0.4516 0.92333 0.0
C292 C 0.86943 0.34541 0.8751 0.0
O293 O 0.84202 0.41152 0.84765 0.0
O294 O 0.86983 0.39496 0.7957 0.0
C295 C 0.92426 0.42774 0.76688 0.0
N296 N 0.93291 0.40353 0.78607 0.0
C297 C 0.98529 0.41033 0.76713 0.0
C298 C 0.97692 0.43527 0.74693 0.0
C299 C 0.94628 0.44404 0.74691 0.0
C300 C 0.96234 0.39496 0.78646 0.0
H301 H 0.90073 0.43455 0.76686 0.0
C302 C 0.84549 0.40596 0.81036 0.0
O303 O 0.84461 0.4268 0.93262 0.0
O304 O 0.87623 0.45192 0.89552 0.0
N305 N 0.94571 0.35835 0.8277 0.0
C306 C 0.95017 0.33436 0.84977 0.0
C307 C 0.97968 0.32305 0.85347 0.0
C308 C 0.00423 0.33628 0.83408 0.0
C309 C 0.999 0.36064 0.81095 0.0
C310 C 0.96907 0.37085 0.80816 0.0
H311 H 0.93139 0.324 0.86461 0.0
O312 O 0.91036 0.40644 0.92749 0.0
O313 O 0.90982 0.40185 0.86176 0.0
O314 O 0.86494 0.36633 0.89924 0.0
O315 O 0.88383 0.34758 0.84206 0.0
C316 C 0.0224 0.3755 0.79114 0.0
C317 C 0.01556 0.40037 0.76934 0.0
H318 H 0.99385 0.44794 0.73159 0.0
H319 H 0.93967 0.46333 0.73154 0.0
H320 H 0.98352 0.30421 0.87133 0.0
H321 H 0.027 0.32767 0.83735 0.0
H322 H 0.04579 0.3682 0.79293 0.0
H323 H 0.0338 0.41181 0.75468 0.0
Mn324 Mn 0.33498 0.12647 0.60832 0.0
Mn325 Mn 0.35764 0.1556 0.52106 0.0
C326 C 0.33968 0.17551 0.60448 0.0
C327 C 0.2963 0.10832 0.64785 0.0
C328 C 0.40167 0.13092 0.58118 0.0
O329 O 0.33198 0.09306 0.56954 0.0
O330 O 0.34652 0.11442 0.51291 0.0
C331 C 0.29695 0.15296 0.48246 0.0
N332 N 0.32161 0.16847 0.49454 0.0
C333 C 0.29941 0.21191 0.46995 0.0
C334 C 0.27385 0.19638 0.457 0.0
C335 C 0.2726 0.16679 0.46337 0.0
C336 C 0.32291 0.19699 0.48895 0.0
H337 H 0.29584 0.13023 0.48744 0.0
C338 C 0.33792 0.09235 0.53231 0.0
O339 O 0.3245 0.10117 0.65403 0.0
O340 O 0.29064 0.12529 0.61829 0.0
N341 N 0.36943 0.19496 0.52232 0.0
C342 C 0.39624 0.20661 0.53508 0.0
C343 C 0.40132 0.23601 0.53051 0.0
C344 C 0.37914 0.253 0.51194 0.0
C345 C 0.35221 0.24036 0.49769 0.0
C346 C 0.34845 0.21093 0.50304 0.0
H347 H 0.41341 0.19366 0.54926 0.0
O348 O 0.33789 0.16278 0.6386 0.0
O349 O 0.33647 0.15917 0.57271 0.0
O350 O 0.38166 0.12311 0.60672 0.0
O351 O 0.39528 0.14342 0.54826 0.0
C352 C 0.3289 0.25581 0.47856 0.0
C353 C 0.30246 0.24162 0.46485 0.0
H354 H 0.25504 0.20696 0.44223 0.0
H355 H 0.2529 0.15467 0.45361 0.0
H356 H 0.42226 0.24556 0.54134 0.0
H357 H 0.38304 0.27571 0.50871 0.0
H358 H 0.33104 0.27863 0.47432 0.0
H359 H 0.28464 0.25374 0.4503 0.0
Mn360 Mn 0.64472 0.59871 0.3917 0.0
Mn361 Mn 0.6144 0.62411 0.30616 0.0
C362 C 0.59184 0.60295 0.38579 0.0
C363 C 0.66212 0.55954 0.42849 0.0
C364 C 0.63685 0.66287 0.37335 0.0
O365 O 0.68161 0.59722 0.35377 0.0
O366 O 0.65824 0.61613 0.30081 0.0
C367 C 0.6228 0.56892 0.26308 0.0
N368 N 0.60444 0.59098 0.27464 0.0
C369 C 0.56073 0.5684 0.24443 0.0
C370 C 0.57934 0.54589 0.23127 0.0
C371 C 0.61051 0.5461 0.2408 0.0
C372 C 0.57436 0.59067 0.26626 0.0
H373 H 0.64657 0.56844 0.27122 0.0
C374 C 0.68177 0.60579 0.31768 0.0
O375 O 0.6701 0.58545 0.43808 0.0
O376 O 0.6453 0.55644 0.39693 0.0
N377 N 0.57208 0.63269 0.30388 0.0
C378 C 0.5577 0.6569 0.3163 0.0
C379 C 0.52618 0.65932 0.31126 0.0
C380 C 0.51024 0.63736 0.29162 0.0
C381 C 0.52602 0.61442 0.27445 0.0
C382 C 0.55736 0.61296 0.28126 0.0
H383 H 0.5701 0.6739 0.33052 0.0
O384 O 0.60483 0.60023 0.42028 0.0
O385 O 0.61004 0.60145 0.35487 0.0
O386 O 0.64783 0.64305 0.3955 0.0
O387 O 0.62349 0.65826 0.33965 0.0
C388 C 0.5117 0.59229 0.25268 0.0
C389 C 0.52907 0.56932 0.23751 0.0
H390 H 0.56987 0.52814 0.21436 0.0
H391 H 0.62498 0.52858 0.23135 0.0
H392 H 0.51413 0.67749 0.32369 0.0
H393 H 0.48579 0.63745 0.29187 0.0
H394 H 0.48729 0.59245 0.24811 0.0
H395 H 0.5178 0.55231 0.22104 0.0
Mn396 Mn 0.1435 0.89448 0.11719 0.0
Mn397 Mn 0.12852 0.8795 0.21303 0.0
C398 C 0.09276 0.89038 0.1373 0.0
C399 C 0.15468 0.92952 0.06997 0.0
C400 C 0.15235 0.8359 0.15232 0.0
O401 O 0.18415 0.90149 0.14591 0.0
O402 O 0.16739 0.90055 0.20944 0.0
C403 C 0.11995 0.9371 0.24845 0.0
N404 N 0.10973 0.91002 0.24193 0.0
C405 C 0.07091 0.91527 0.29215 0.0
C406 C 0.0808 0.94335 0.2993 0.0
C407 C 0.10518 0.95443 0.27698 0.0
C408 C 0.08557 0.89956 0.26204 0.0
H409 H 0.13947 0.94516 0.23242 0.0
C410 C 0.18789 0.90579 0.18336 0.0
O411 O 0.16222 0.90298 0.06399 0.0
O412 O 0.14102 0.93563 0.10329 0.0
N413 N 0.09156 0.85904 0.22215 0.0
C414 C 0.08365 0.83228 0.20964 0.0
C415 C 0.05942 0.81814 0.22846 0.0
C416 C 0.04434 0.83123 0.26086 0.0
C417 C 0.05299 0.85874 0.2733 0.0
C418 C 0.07639 0.87224 0.25222 0.0
H419 H 0.09615 0.82155 0.18613 0.0
O420 O 0.1004 0.88857 0.09988 0.0
O421 O 0.11508 0.89546 0.16199 0.0
O422 O 0.14944 0.85094 0.12091 0.0
O423 O 0.14752 0.84578 0.18745 0.0
C424 C 0.03873 0.8737 0.30497 0.0
C425 C 0.04745 0.90206 0.31408 0.0
H426 H 0.06997 0.95652 0.32198 0.0
H427 H 0.11305 0.97602 0.28247 0.0
H428 H 0.05291 0.7969 0.21871 0.0
H429 H 0.02599 0.82008 0.27572 0.0
H430 H 0.02047 0.86388 0.32176 0.0
H431 H 0.03588 0.91356 0.33787 0.0
Mn432 Mn 0.83754 0.63978 0.09917 0.0
Mn433 Mn 0.85465 0.67278 0.01239 0.0
C434 C 0.83736 0.68932 0.09656 0.0
C435 C 0.80142 0.61918 0.14143 0.0
C436 C 0.90285 0.65025 0.06868 0.0
O437 O 0.83515 0.60679 0.05871 0.0
O438 O 0.84752 0.63118 0.00357 0.0
C439 C 0.79349 0.6653 0.9763 0.0
N440 N 0.81681 0.68274 0.98777 0.0
C441 C 0.78993 0.72431 0.9649 0.0
C442 C 0.76569 0.70677 0.9526 0.0
C443 C 0.76746 0.67714 0.95843 0.0
C444 C 0.81521 0.7113 0.98271 0.0
H445 H 0.79471 0.64252 0.98083 0.0
C446 C 0.84073 0.60789 0.02128 0.0
O447 O 0.83024 0.61341 0.14537 0.0
O448 O 0.79376 0.6358 0.11231 0.0
N449 N 0.86238 0.71299 0.01456 0.0
C450 C 0.88813 0.72681 0.02684 0.0
C451 C 0.89022 0.75656 0.0227 0.0
C452 C 0.86612 0.77173 0.00515 0.0
C453 C 0.84029 0.75694 0.99145 0.0
C454 C 0.83957 0.72725 0.99624 0.0
H455 H 0.90674 0.71527 0.04028 0.0
O456 O 0.83907 0.67613 0.13034 0.0
O457 O 0.8345 0.67313 0.06476 0.0
O458 O 0.88448 0.63952 0.0943 0.0
O459 O 0.89414 0.66362 0.03741 0.0
C460 C 0.81517 0.77049 0.97341 0.0
C461 C 0.78995 0.7542 0.96031 0.0
H462 H 0.7456 0.71583 0.93875 0.0
H463 H 0.74881 0.66347 0.94917 0.0
H464 H 0.91031 0.76779 0.03313 0.0
H465 H 0.86771 0.7947 1.00229 0.0
H466 H 0.81498 0.79343 0.96958 0.0
H467 H 0.77071 0.76487 0.94664 0.0
Mn468 Mn 0.13439 0.10299 0.89063 0.0
Mn469 Mn 0.10444 0.12003 0.80092 0.0
C470 C 0.08194 0.10833 0.88441 0.0
C471 C 0.15153 0.06771 0.93437 0.0
C472 C 0.12872 0.16469 0.85864 0.0
O473 O 0.17072 0.09643 0.85352 0.0
O474 O 0.14816 0.1112 0.79747 0.0
C475 C 0.11249 0.06123 0.76882 0.0
N476 N 0.09422 0.08424 0.77619 0.0
C477 C 0.05076 0.05979 0.74849 0.0
C478 C 0.06919 0.03606 0.74002 0.0
C479 C 0.1002 0.03676 0.75037 0.0
C480 C 0.06434 0.08363 0.76684 0.0
H481 H 0.13623 0.06137 0.77715 0.0
C482 C 0.17128 0.10189 0.81635 0.0
O483 O 0.16019 0.09413 0.93856 0.0
O484 O 0.13372 0.06187 0.90451 0.0
N485 N 0.06213 0.12877 0.79664 0.0
C486 C 0.0477 0.15381 0.8053 0.0
C487 C 0.01646 0.15639 0.79741 0.0
C488 C 0.00073 0.13339 0.77989 0.0
C489 C 0.01644 0.10874 0.76828 0.0
C490 C 0.04752 0.10739 0.77697 0.0
H491 H 0.05967 0.1712 0.81947 0.0
O492 O 0.09506 0.10883 0.91908 0.0
O493 O 0.09968 0.10283 0.85386 0.0
O494 O 0.13918 0.14699 0.88451 0.0
O495 O 0.1143 0.15704 0.82681 0.0
C496 C 0.00218 0.08504 0.74996 0.0
C497 C 0.01935 0.06058 0.73998 0.0
H498 H 0.05973 0.01711 0.72594 0.0
H499 H 0.11456 0.01844 0.74431 0.0
H500 H 0.00435 0.17555 0.80624 0.0
H501 H 0.97636 0.13405 0.77743 0.0
H502 H 0.97796 0.08519 0.74402 0.0
H503 H 0.00812 0.04243 0.72608 0.0
Mn504 Mn 0.64477 0.3973 0.63066 0.0
Mn505 Mn 0.62581 0.37094 0.7204 0.0
C506 C 0.5933 0.38809 0.64383 0.0
C507 C 0.65611 0.43766 0.59227 0.0
C508 C 0.65594 0.33595 0.65383 0.0
O509 O 0.68315 0.40349 0.66494 0.0
O510 O 0.66337 0.39384 0.72528 0.0
C511 C 0.61255 0.42332 0.7673 0.0
N512 N 0.60411 0.39693 0.754 0.0
C513 C 0.56525 0.39343 0.80433 0.0
C514 C 0.57324 0.42072 0.81843 0.0
C515 C 0.5967 0.43592 0.79943 0.0
C516 C 0.58067 0.38275 0.77075 0.0
H517 H 0.63162 0.43432 0.75399 0.0
C518 C 0.68468 0.40331 0.7031 0.0
O519 O 0.66593 0.41245 0.58206 0.0
O520 O 0.64001 0.43937 0.62468 0.0
N521 N 0.58993 0.34791 0.72218 0.0
C522 C 0.5848 0.3221 0.70429 0.0
C523 C 0.56208 0.30407 0.71952 0.0
C524 C 0.54561 0.31235 0.75377 0.0
C525 C 0.55117 0.33912 0.77153 0.0
C526 C 0.57339 0.35653 0.75421 0.0
H527 H 0.5986 0.31493 0.67944 0.0
O528 O 0.6034 0.3908 0.60761 0.0
O529 O 0.61362 0.39175 0.67194 0.0
O530 O 0.65389 0.35422 0.62589 0.0
O531 O 0.64808 0.34133 0.68984 0.0
C532 C 0.53592 0.34902 0.80612 0.0
C533 C 0.54286 0.37622 0.82242 0.0
H534 H 0.56167 0.43013 0.84395 0.0
H535 H 0.60317 0.4569 0.81032 0.0
H536 H 0.55791 0.28347 0.70562 0.0
H537 H 0.52857 0.29813 0.76593 0.0
H538 H 0.51865 0.33602 0.82022 0.0
H539 H 0.53072 0.38375 0.84867 0.0
Mn540 Mn 0.35606 0.89563 0.37782 0.0
Mn541 Mn 0.36816 0.86743 0.46895 0.0
C542 C 0.35648 0.84645 0.38383 0.0
C543 C 0.32115 0.91558 0.334 0.0
C544 C 0.41906 0.88987 0.41593 0.0
O545 O 0.35234 0.9298 0.41538 0.0
O546 O 0.35476 0.90816 0.4749 0.0
C547 C 0.30414 0.86815 0.49674 0.0
N548 N 0.33027 0.85342 0.48895 0.0
C549 C 0.30725 0.80922 0.50919 0.0
C550 C 0.28016 0.82395 0.51772 0.0
C551 C 0.27859 0.85353 0.51138 0.0
C552 C 0.33195 0.82493 0.49464 0.0
H553 H 0.3028 0.89087 0.49168 0.0
C554 C 0.35092 0.93043 0.45341 0.0
O555 O 0.3501 0.92076 0.33023 0.0
O556 O 0.31271 0.89928 0.36304 0.0
N557 N 0.38117 0.82842 0.46923 0.0
C558 C 0.40912 0.81745 0.46008 0.0
C559 C 0.41446 0.78809 0.46466 0.0
C560 C 0.39126 0.77041 0.4794 0.0
C561 C 0.36303 0.78234 0.4899 0.0
C562 C 0.35905 0.81176 0.48478 0.0
H563 H 0.42712 0.83094 0.44896 0.0
O564 O 0.35835 0.85847 0.34917 0.0
O565 O 0.35232 0.86377 0.41426 0.0
O566 O 0.40274 0.89584 0.38527 0.0
O567 O 0.40801 0.88058 0.44884 0.0
C568 C 0.33855 0.76613 0.50479 0.0
C569 C 0.31064 0.77954 0.51429 0.0
H570 H 0.26039 0.81274 0.52897 0.0
H571 H 0.25771 0.86503 0.5177 0.0
H572 H 0.43639 0.7791 0.45678 0.0
H573 H 0.39538 0.74774 0.48259 0.0
H574 H 0.34086 0.7433 0.50876 0.0
H575 H 0.29192 0.76682 0.52544 0.0
H576 H 0.13994 0.79868 0.09002 0.0
H577 H 0.17851 0.80293 0.20888 0.0
H578 H 0.17866 0.75114 0.21255 0.0
H579 H 0.16119 0.7051 0.18643 0.0
H580 H 0.12289 0.6992 0.06799 0.0
H581 H 0.12961 0.75091 0.05941 0.0
C582 C 0.14915 0.78822 0.11621 0.0
C583 C 0.15876 0.80478 0.14936 0.0
C584 C 0.14886 0.75809 0.11843 0.0
C585 C 0.17056 0.79081 0.18314 0.0
C586 C 0.17061 0.76113 0.18537 0.0
C587 C 0.155 0.71509 0.15838 0.0
C588 C 0.14148 0.69855 0.12796 0.0
C589 C 0.15875 0.74463 0.1539 0.0
C590 C 0.13358 0.71157 0.0917 0.0
C591 C 0.13718 0.74115 0.08697 0.0
H592 H 0.45908 0.88771 0.47733 0.0
H593 H 0.45514 0.89606 0.34891 0.0
H594 H 0.51092 0.89354 0.34561 0.0
H595 H 0.56075 0.88566 0.37938 0.0
H596 H 0.56238 0.87625 0.508 0.0
H597 H 0.50762 0.88231 0.51069 0.0
C598 C 0.47027 0.88917 0.44848 0.0
C599 C 0.4528 0.89186 0.4134 0.0
C600 C 0.50207 0.88723 0.44677 0.0
C601 C 0.46795 0.89402 0.37646 0.0
C602 C 0.49987 0.89241 0.37454 0.0
C603 C 0.54913 0.88514 0.40798 0.0
C604 C 0.56588 0.8802 0.44333 0.0
C605 C 0.51718 0.88849 0.4095 0.0
C606 C 0.55031 0.87967 0.48015 0.0
C607 C 0.51887 0.88321 0.48185 0.0
H608 H 0.38911 0.29596 0.65171 0.0
H609 H 0.31247 0.32474 0.58211 0.0
H610 H 0.2998 0.27485 0.56532 0.0
H611 H 0.30939 0.2224 0.57444 0.0
H612 H 0.38949 0.19629 0.63951 0.0
H613 H 0.40225 0.24595 0.65369 0.0
C614 C 0.36993 0.29164 0.63228 0.0
C615 C 0.35178 0.31424 0.61841 0.0
C616 C 0.36344 0.26325 0.62195 0.0
C617 C 0.32686 0.30781 0.59333 0.0
C618 C 0.31957 0.27926 0.58383 0.0
C619 C 0.33004 0.22778 0.59068 0.0
C620 C 0.34895 0.20579 0.60509 0.0
C621 C 0.33755 0.2567 0.59839 0.0
C622 C 0.37499 0.2129 0.62749 0.0
C623 C 0.38221 0.24126 0.63577 0.0
H624 H 0.03491 0.07712 0.85263 0.0
H625 H 0.05599 0.15592 0.91412 0.0
H626 H 0.0023 0.16991 0.91233 0.0
H627 H 0.94929 0.16017 0.89207 0.0
H628 H 0.92821 0.08315 0.82651 0.0
H629 H 0.9815 0.06776 0.8313 0.0
C630 C 0.02762 0.09742 0.86523 0.0
C631 C 0.04938 0.11605 0.882 0.0
C632 C 0.99666 0.10552 0.86355 0.0
C633 C 0.03965 0.1417 0.89997 0.0
C634 C 0.00899 0.14969 0.89899 0.0
C635 C 0.95671 0.14053 0.87763 0.0
C636 C 0.93523 0.12326 0.85781 0.0
C637 C 0.9874 0.13206 0.88014 0.0
C638 C 0.94468 0.09728 0.84056 0.0
C639 C 0.97498 0.0882 0.8441 0.0
H640 H 0.12238 0.29919 0.86952 0.0
H641 H 0.20441 0.28795 0.93821 0.0
H642 H 0.19996 0.23575 0.93073 0.0
H643 H 0.17215 0.19319 0.9037 0.0
H644 H 0.09301 0.207 0.82932 0.0
H645 H 0.09663 0.25796 0.84036 0.0
C646 C 0.1391 0.28523 0.88318 0.0
C647 C 0.16284 0.29712 0.90595 0.0
C648 C 0.1368 0.25561 0.87777 0.0
C649 C 0.18515 0.27905 0.92209 0.0
C650 C 0.18275 0.24928 0.91741 0.0
C651 C 0.15568 0.20737 0.89007 0.0
C652 C 0.13206 0.19594 0.86606 0.0
C653 C 0.15849 0.23725 0.89542 0.0
C654 C 0.11123 0.21481 0.84818 0.0
C655 C 0.1133 0.24417 0.85436 0.0
H656 H 0.96161 0.9436 0.15609 0.0
H657 H 0.93765 0.86494 0.09609 0.0
H658 H 0.99102 0.84987 0.09643 0.0
H659 H 0.0446 0.85893 0.1139 0.0
H660 H 0.06898 0.93593 0.17751 0.0
H661 H 0.01571 0.95186 0.17594 0.0
C662 C 0.9682 0.92307 0.14356 0.0
C663 C 0.94573 0.90485 0.12748 0.0
C664 C 0.99904 0.91438 0.14431 0.0
C665 C 0.95454 0.87885 0.10971 0.0
C666 C 0.98502 0.87027 0.10982 0.0
C667 C 0.03799 0.87877 0.1285 0.0
C668 C 0.06043 0.89588 0.14671 0.0
C669 C 0.00739 0.88764 0.12753 0.0
C670 C 0.05189 0.92197 0.16449 0.0
C671 C 0.02156 0.93136 0.16276 0.0
H672 H 0.39604 0.7216 0.34607 0.0
H673 H 0.31105 0.70094 0.403 0.0
H674 H 0.30292 0.75196 0.41849 0.0
H675 H 0.31901 0.80318 0.4104 0.0
H676 H 0.40663 0.82065 0.35763 0.0
H677 H 0.41502 0.76986 0.34621 0.0
C678 C 0.37596 0.7279 0.36241 0.0
C679 C 0.35415 0.70737 0.37296 0.0
C680 C 0.37198 0.75681 0.37193 0.0
C681 C 0.32822 0.71631 0.39438 0.0
C682 C 0.32354 0.74548 0.40308 0.0
C683 C 0.34026 0.79564 0.39758 0.0
C684 C 0.36258 0.81553 0.38572 0.0
C685 C 0.34513 0.76605 0.39138 0.0
C686 C 0.38949 0.80567 0.36767 0.0
C687 C 0.39422 0.77667 0.36096 0.0
H688 H 0.53402 0.09434 0.63523 0.0
H689 H 0.55804 0.15723 0.54747 0.0
H690 H 0.50407 0.16562 0.533 0.0
H691 H 0.45057 0.15553 0.54613 0.0
H692 H 0.42584 0.0937 0.63555 0.0
H693 H 0.47974 0.08433 0.64868 0.0
C694 C 0.52721 0.11014 0.61341 0.0
C695 C 0.54949 0.12601 0.59342 0.0
C696 C 0.49623 0.11483 0.60544 0.0
C697 C 0.54092 0.14542 0.56381 0.0
C698 C 0.5102 0.15014 0.55554 0.0
C699 C 0.45684 0.14006 0.56862 0.0
C700 C 0.43416 0.12541 0.58988 0.0
C701 C 0.48771 0.13511 0.57639 0.0
C702 C 0.44284 0.10539 0.61887 0.0
C703 C 0.47363 0.09992 0.62628 0.0
H704 H 0.86092 0.21554 0.91804 0.0
H705 H 0.80677 0.21566 0.81024 0.0
H706 H 0.80759 0.26765 0.80941 0.0
H707 H 0.83101 0.31239 0.83248 0.0
H708 H 0.88525 0.31355 0.93985 0.0
H709 H 0.87702 0.26202 0.94804 0.0
C710 C 0.84832 0.22702 0.89535 0.0
C711 C 0.83393 0.21172 0.86412 0.0
C712 C 0.84948 0.25718 0.89451 0.0
C713 C 0.81809 0.22693 0.83452 0.0
C714 C 0.81875 0.25668 0.83383 0.0
C715 C 0.84024 0.30143 0.85829 0.0
C716 C 0.85863 0.31655 0.88555 0.0
C717 C 0.8355 0.27194 0.86258 0.0
C718 C 0.87071 0.30228 0.91877 0.0
C719 C 0.8662 0.2728 0.92322 0.0
H720 H 0.68483 0.69601 0.4009 0.0
H721 H 0.58767 0.69669 0.38233 0.0
H722 H 0.58612 0.74803 0.39278 0.0
H723 H 0.61296 0.79356 0.40035 0.0
H724 H 0.7088 0.79418 0.4275 0.0
H725 H 0.71051 0.74179 0.42116 0.0
C726 C 0.66335 0.70742 0.39981 0.0
C727 C 0.63658 0.69279 0.38838 0.0
C728 C 0.66246 0.73723 0.40732 0.0
C729 C 0.60881 0.70771 0.38814 0.0
C730 C 0.60783 0.73707 0.39477 0.0
C731 C 0.63403 0.78208 0.40587 0.0
C732 C 0.66054 0.79744 0.4151 0.0
C733 C 0.63462 0.75218 0.40299 0.0
C734 C 0.68794 0.78258 0.4213 0.0
C735 C 0.68893 0.75268 0.41738 0.0
H736 H 0.88222 0.72045 0.12815 0.0
H737 H 0.79569 0.72818 0.06859 0.0
H738 H 0.7981 0.78055 0.07557 0.0
H739 H 0.82489 0.8243 0.10106 0.0
H740 H 0.91106 0.81402 0.16157 0.0
H741 H 0.90907 0.76297 0.15121 0.0
C742 C 0.86407 0.7337 0.11631 0.0
C743 C 0.83936 0.72077 0.09674 0.0
C744 C 0.8656 0.76346 0.12066 0.0
C745 C 0.81546 0.7379 0.08257 0.0
C746 C 0.81676 0.76778 0.08686 0.0
C747 C 0.84329 0.81086 0.11161 0.0
C748 C 0.868 0.82324 0.13259 0.0
C749 C 0.8418 0.78088 0.10597 0.0
C750 C 0.89157 0.80537 0.14607 0.0
C751 C 0.89051 0.77597 0.14007 0.0
H752 H 0.64252 0.30251 0.58817 0.0
H753 H 0.68989 0.30221 0.70135 0.0
H754 H 0.69471 0.25046 0.6978 0.0
H755 H 0.6768 0.20516 0.66944 0.0
H756 H 0.62753 0.20409 0.55808 0.0
H757 H 0.63258 0.25617 0.55334 0.0
C758 C 0.65481 0.29114 0.61126 0.0
C759 C 0.66557 0.30617 0.64519 0.0
C760 C 0.65682 0.26102 0.60955 0.0
C761 C 0.68117 0.29112 0.67513 0.0
C762 C 0.68385 0.26148 0.67321 0.0
C763 C 0.66836 0.21627 0.6433 0.0
C764 C 0.65213 0.20093 0.61396 0.0
C765 C 0.67054 0.24615 0.64156 0.0
C766 C 0.64068 0.21546 0.58058 0.0
C767 C 0.64316 0.2453 0.57825 0.0
H768 H 0.06931 0.40482 0.88867 0.0
H769 H 0.05661 0.33628 0.97282 0.0
H770 H 0.00181 0.34066 0.96676 0.0
H771 H 0.95696 0.36423 0.93899 0.0
H772 H 0.96799 0.43357 0.8567 0.0
H773 H 0.0237 0.42911 0.8612 0.0
C774 C 0.05455 0.39078 0.9055 0.0
C775 C 0.06731 0.3702 0.93105 0.0
C776 C 0.02265 0.39372 0.90255 0.0
C777 C 0.04769 0.35232 0.95286 0.0
C778 C 0.01619 0.35482 0.94958 0.0
C779 C 0.97169 0.3782 0.92193 0.0
C780 C 0.95877 0.39842 0.89646 0.0
C781 C 0.00343 0.3755 0.92478 0.0
C782 C 0.97775 0.41713 0.87539 0.0
C783 C 0.0095 0.4147 0.87818 0.0
H784 H 0.54589 0.57262 0.34938 0.0
H785 H 0.5638 0.64685 0.42272 0.0
H786 H 0.50952 0.65883 0.42313 0.0
H787 H 0.45705 0.64944 0.40013 0.0
H788 H 0.43905 0.57751 0.32258 0.0
H789 H 0.4927 0.56295 0.32682 0.0
C790 C 0.53778 0.59148 0.36514 0.0
C791 C 0.55886 0.60958 0.3845 0.0
C792 C 0.50642 0.59844 0.3648 0.0
C793 C 0.54804 0.6332 0.40646 0.0
C794 C 0.51701 0.64 0.40682 0.0
C795 C 0.46516 0.63106 0.38325 0.0
C796 C 0.44444 0.61512 0.35998 0.0
C797 C 0.4961 0.62321 0.38526 0.0
C798 C 0.45487 0.59073 0.33943 0.0
C799 C 0.4854 0.58209 0.34254 0.0
H800 H 0.54918 0.35849 0.60563 0.0
H801 H 0.56327 0.42623 0.69156 0.0
H802 H 0.50909 0.43895 0.68778 0.0
H803 H 0.45667 0.4291 0.66225 0.0
H804 H 0.44314 0.36031 0.57769 0.0
H805 H 0.49768 0.34945 0.57894 0.0
C806 C 0.54011 0.3754 0.62456 0.0
C807 C 0.55998 0.39069 0.64999 0.0
C808 C 0.50892 0.38238 0.62242 0.0
C809 C 0.54823 0.41336 0.67304 0.0
C810 C 0.51736 0.42101 0.6702 0.0
C811 C 0.46574 0.41159 0.64449 0.0
C812 C 0.44574 0.39461 0.62137 0.0
C813 C 0.4973 0.40536 0.64553 0.0
C814 C 0.45796 0.37301 0.59674 0.0
C815 C 0.48915 0.36681 0.59743 0.0
H816 H 0.04671 0.65158 0.07091 0.0
H817 H 0.03281 0.58109 0.15054 0.0
H818 H 0.97731 0.58658 0.14438 0.0
H819 H 0.93284 0.61202 0.11628 0.0
H820 H 0.94803 0.68139 0.03427 0.0
H821 H 0.00277 0.67617 0.04204 0.0
C822 C 0.0314 0.63762 0.08707 0.0
C823 C 0.04344 0.61677 0.11236 0.0
C824 C -0.00022 0.64085 0.08314 0.0
C825 C 0.02373 0.59802 0.13213 0.0
C826 C 0.99211 0.60104 0.12836 0.0
C827 C 0.94812 0.62607 0.10029 0.0
C828 C 0.93617 0.64715 0.07488 0.0
C829 C 0.97985 0.6226 0.10419 0.0
C830 C 0.95641 0.66499 0.05408 0.0
C831 C 0.98783 0.66201 0.05838 0.0
H832 H 0.13956 0.50921 0.1089 0.0
H833 H 0.17522 0.55975 0.01248 0.0
H834 H 0.18478 0.51624 0.97308 0.0
H835 H 0.17978 0.46372 0.96448 0.0
H836 H 0.14528 0.41401 0.06294 0.0
H837 H 0.1388 0.45714 0.10279 0.0
C838 C 0.14969 0.51073 0.07939 0.0
C839 C 0.15642 0.53772 0.06356 0.0
C840 C 0.15523 0.48567 0.05705 0.0
C841 C 0.16983 0.53924 0.02543 0.0
C842 C 0.17517 0.51435 1.0028 0.0
C843 C 0.17111 0.46227 0.99476 0.0
C844 C 0.16279 0.43542 0.01025 0.0
C845 C 0.16748 0.48741 0.01803 0.0
C846 C 0.15182 0.43417 0.04983 0.0
C847 C 0.14799 0.45892 0.07282 0.0
H848 H 0.69328 0.89919 0.27191 0.0
H849 H 0.74996 0.91557 0.3752 0.0
H850 H 0.79325 0.92563 0.3322 0.0
H851 H 0.81653 0.92368 0.26695 0.0
H852 H 0.76253 0.90587 0.16181 0.0
H853 H 0.7165 0.90266 0.20364 0.0
C854 C 0.71496 0.90566 0.28469 0.0
C855 C 0.71863 0.9065 0.32657 0.0
C856 C 0.74024 0.91068 0.25959 0.0
C857 C 0.74679 0.9146 0.34304 0.0
C858 C 0.77155 0.92028 0.31851 0.0
C859 C 0.79466 0.91948 0.25291 0.0
C860 C 0.79299 0.91461 0.21144 0.0
C861 C 0.76879 0.91737 0.27697 0.0
C862 C 0.76439 0.90961 0.19375 0.0
C863 C 0.73815 0.90763 0.21771 0.0
H864 H 0.33714 0.45234 0.49839 0.0
H865 H 0.34323 0.5049 0.60462 0.0
H866 H 0.34044 0.54803 0.56398 0.0
H867 H 0.34082 0.5709 0.49767 0.0
H868 H 0.34036 0.51808 0.39138 0.0
H869 H 0.33619 0.4752 0.43222 0.0
C870 C 0.33727 0.47325 0.51261 0.0
C871 C 0.34016 0.47544 0.55445 0.0
C872 C 0.33694 0.49799 0.48889 0.0
C873 C 0.34095 0.50268 0.57245 0.0
C874 C 0.33944 0.52735 0.54921 0.0
C875 C 0.3393 0.55001 0.48353 0.0
C876 C 0.34076 0.54767 0.44157 0.0
C877 C 0.33809 0.52531 0.50732 0.0
C878 C 0.33931 0.52043 0.42363 0.0
C879 C 0.33696 0.49589 0.44698 0.0
H880 H 0.70756 0.08631 0.68645 0.0
H881 H 0.65389 0.13116 0.77521 0.0
H882 H 0.69707 0.13093 0.82128 0.0
H883 H 0.75231 0.12428 0.83238 0.0
H884 H 0.80598 0.08218 0.74132 0.0
H885 H 0.76055 0.07466 0.70055 0.0
C886 C 0.70506 0.0957 0.71606 0.0
C887 C 0.67765 0.10925 0.72691 0.0
C888 C 0.73015 0.09612 0.74205 0.0
C889 C 0.67481 0.12087 0.76574 0.0
C890 C 0.69955 0.12083 0.79216 0.0
C891 C 0.75379 0.11279 0.80412 0.0
C892 C 0.78237 0.10401 0.78964 0.0
C893 C 0.72767 0.10943 0.78009 0.0
C894 C 0.78419 0.08935 0.75284 0.0
C895 C 0.75826 0.08513 0.72945 0.0
H896 H 0.86474 0.50617 0.89966 0.0
H897 H 0.82743 0.45683 0.99623 0.0
H898 H 0.8183 0.50071 0.03494 0.0
H899 H 0.82386 0.55326 0.04283 0.0
H900 H 0.85995 0.60176 0.94417 0.0
H901 H 0.86634 0.55826 0.90514 0.0
C902 C 0.85437 0.505 0.92905 0.0
C903 C 0.847 0.47822 0.9451 0.0
C904 C 0.84906 0.53028 0.95101 0.0
C905 C 0.8333 0.47716 0.98309 0.0
C906 C 0.8282 0.50227 0.00534 0.0
C907 C 0.83288 0.55435 0.01269 0.0
C908 C 0.84162 0.58099 0.99689 0.0
C909 C 0.83643 0.529 0.98986 0.0
C910 C 0.85306 0.58179 0.95751 0.0
C911 C 0.85683 0.55681 0.93498 0.0
H912 H 0.17329 0.09228 0.73721 0.0
H913 H 0.23153 0.10017 0.84086 0.0
H914 H 0.27664 0.09866 0.79725 0.0
H915 H 0.29865 0.10111 0.72865 0.0
H916 H 0.23836 0.09682 0.62666 0.0
H917 H 0.19472 0.09058 0.67078 0.0
C918 C 0.19583 0.09348 0.75053 0.0
C919 C 0.19906 0.0969 0.79218 0.0
C920 C 0.22122 0.0933 0.72545 0.0
C921 C 0.22845 0.09773 0.80885 0.0
C922 C 0.25418 0.097 0.7839 0.0
C923 C 0.276 0.09814 0.71627 0.0
C924 C 0.27152 0.09948 0.67459 0.0
C925 C 0.25077 0.09562 0.74202 0.0
C926 C 0.24217 0.09598 0.65868 0.0
C927 C 0.21726 0.0925 0.68386 0.0
H928 H 0.66417 0.5583 0.5097 0.0
H929 H 0.67272 0.50485 0.40469 0.0
H930 H 0.67487 0.46227 0.44652 0.0
H931 H 0.66924 0.43986 0.51261 0.0
H932 H 0.65534 0.49319 0.61685 0.0
H933 H 0.66041 0.53597 0.57606 0.0
C934 C 0.66723 0.53737 0.49614 0.0
C935 C 0.6686 0.5347 0.45424 0.0
C936 C 0.66702 0.51286 0.52032 0.0
C937 C 0.67179 0.50741 0.43693 0.0
C938 C 0.67286 0.48305 0.46082 0.0
C939 C 0.66775 0.46086 0.52642 0.0
C940 C 0.66189 0.46332 0.56769 0.0
C941 C 0.66971 0.48543 0.5025 0.0
C942 C 0.65968 0.49069 0.5851 0.0
C943 C 0.6626 0.5152 0.56179 0.0
H944 H 0.31994 0.90823 0.25341 0.0
H945 H 0.27032 0.94467 0.35267 0.0
H946 H 0.22529 0.95044 0.31051 0.0
H947 H 0.19773 0.93663 0.25028 0.0
H948 H 0.24493 0.89566 0.15232 0.0
H949 H 0.29339 0.90071 0.18843 0.0
C950 C 0.29955 0.91837 0.26515 0.0
C951 C 0.29819 0.92613 0.30584 0.0
C952 C 0.27324 0.92029 0.24114 0.0
C953 C 0.27166 0.93869 0.3213 0.0
C954 C 0.24592 0.9418 0.29731 0.0
C955 C 0.21873 0.92934 0.23643 0.0
C956 C 0.21774 0.91527 0.19913 0.0
C957 C 0.24604 0.93134 0.25789 0.0
C958 C 0.24513 0.90644 0.18114 0.0
C959 C 0.27278 0.90911 0.20195 0.0
H960 H 0.67385 0.04662 0.51864 0.0
H961 H 0.63871 0.01378 0.62955 0.0
H962 H 0.64508 0.96497 0.60498 0.0
H963 H 0.65602 0.93165 0.55007 0.0
H964 H 0.68798 0.96395 0.43709 0.0
H965 H 0.6877 0.01258 0.46433 0.0
C966 C 0.66814 0.02873 0.53759 0.0
C967 C 0.65579 0.03384 0.57585 0.0
C968 C 0.67101 1.00051 0.52274 0.0
C969 C 0.64812 0.01044 0.59991 0.0
C970 C 0.65172 0.98248 0.58587 0.0
C971 C 0.66342 0.94922 0.53151 0.0
C972 C 0.67189 0.94399 0.49148 0.0
C973 C 0.66245 0.97725 0.54701 0.0
C974 C 0.68116 0.96723 0.46794 0.0
C975 C 0.68098 0.99513 0.48349 0.0
H976 H 0.32389 0.41308 0.7696 0.0
H977 H 0.26271 0.40914 0.66864 0.0
H978 H 0.21883 0.4108 0.71445 0.0
H979 H 0.19846 0.40746 0.78419 0.0
H980 H 0.26167 0.40974 0.8832 0.0
H981 H 0.30417 0.41518 0.83712 0.0
C982 C 0.30099 0.41296 0.75735 0.0
C983 C 0.29663 0.41058 0.71571 0.0
C984 C 0.27621 0.41359 0.78369 0.0
C985 C 0.26673 0.41087 0.70055 0.0
C986 C 0.24167 0.41168 0.7268 0.0
C987 C 0.22148 0.40993 0.79555 0.0
C988 C 0.22698 0.40811 0.83708 0.0
C989 C 0.24615 0.41225 0.76856 0.0
C990 C 0.25691 0.41095 0.85143 0.0
C991 C 0.28124 0.41395 0.82509 0.0
H992 H 0.82841 0.07561 0.99806 0.0
H993 H 0.84016 0.0245 0.89123 0.0
H994 H 0.83772 0.98088 0.93059 0.0
H995 H 0.83775 0.95728 0.99636 0.0
H996 H 0.83055 0.00876 0.10346 0.0
H997 H 0.82525 0.05186 0.06339 0.0
C998 C 0.8299 0.05491 0.98339 0.0
C999 C 0.83457 0.05334 0.94183 0.0
C1000 C 0.82943 0.02984 0.00641 0.0
C1001 C 0.83677 0.02632 0.92326 0.0
C1002 C 0.83538 1.00132 0.94575 0.0
C1003 C 0.83428 0.97787 0.01076 0.0
C1004 C 0.83442 0.97985 0.05274 0.0
C1005 C 0.83248 1.00279 0.98749 0.0
C1006 C 0.8305 0.00673 0.07113 0.0
C1007 C 0.8276 0.03141 0.04825 0.0
H1008 H 0.21537 0.598 0.1785 0.0
H1009 H 0.15772 0.6105 0.28176 0.0
H1010 H 0.20248 0.61107 0.32533 0.0
H1011 H 0.25879 0.61257 0.33337 0.0
H1012 H 0.31515 0.60266 0.22831 0.0
H1013 H 0.27034 0.59626 0.18674 0.0
C1014 C 0.21243 0.60042 0.21058 0.0
C1015 C 0.18315 0.60445 0.2266 0.0
C1016 C 0.23825 0.60141 0.23538 0.0
C1017 C 0.17999 0.60757 0.26839 0.0
C1018 C 0.20562 0.60796 0.29343 0.0
C1019 C 0.26116 0.60859 0.30151 0.0
C1020 C 0.29033 0.60833 0.28408 0.0
C1021 C 0.23499 0.60562 0.27717 0.0
C1022 C 0.29302 0.60326 0.24262 0.0
C1023 C 0.26736 0.59958 0.21865 0.0
H1024 H 0.33338 0.03923 0.56511 0.0
H1025 H 0.34096 0.08189 0.45152 0.0
H1026 H 0.34425 0.03574 0.41716 0.0
H1027 H 0.34769 0.98338 0.41951 0.0
H1028 H 0.34153 0.94083 0.53337 0.0
H1029 H 0.33493 0.98681 0.5672 0.0
C1030 C 0.3354 0.03852 0.53277 0.0
C1031 C 0.33697 0.0642 0.51107 0.0
C1032 C 0.33779 0.01186 0.51317 0.0
C1033 C 0.33979 0.06262 0.46915 0.0
C1034 C 0.34173 0.03618 0.44942 0.0
C1035 C 0.34472 0.98404 0.45172 0.0
C1036 C 0.3453 0.95845 0.47374 0.0
C1037 C 0.34121 0.01066 0.47116 0.0
C1038 C 0.34139 0.96001 0.5155 0.0
C1039 C 0.33757 0.98637 0.53496 0.0
H1040 H 0.80677 0.61068 0.2225 0.0
H1041 H 0.7431 0.60674 0.12403 0.0
H1042 H 0.70119 0.59939 0.1704 0.0
H1043 H 0.68191 0.59971 0.23783 0.0
H1044 H 0.74313 0.60507 0.33869 0.0
H1045 H 0.78688 0.60611 0.2925 0.0
C1046 C 0.78379 0.60752 0.21134 0.0
C1047 C 0.77796 0.60934 0.16987 0.0
C1048 C 0.75941 0.60406 0.23853 0.0
C1049 C 0.7481 0.60556 0.15574 0.0
C1050 C 0.72411 0.60146 0.18225 0.0
C1051 C 0.70479 0.60079 0.25007 0.0
C1052 C 0.70916 0.60272 0.29177 0.0
C1053 C 0.72939 0.60162 0.22359 0.0
C1054 C 0.73909 0.60368 0.30676 0.0
C1055 C 0.76406 0.60439 0.2803 0.0
H1056 H 0.16251 0.98637 0.0825 0.0
H1057 H 0.15746 0.92243 0.98906 0.0
H1058 H 0.15832 0.95978 0.93828 0.0
H1059 H 0.15567 0.01075 0.92093 0.0
H1060 H 0.16346 0.0747 0.01401 0.0
H1061 H 0.16684 0.03724 0.06453 0.0
C1062 C 0.16197 0.98065 0.05098 0.0
C1063 C 0.15953 0.95175 0.03947 0.0
C1064 C 0.16289 1.00222 0.02199 0.0
C1065 C 0.15932 0.94453 0.9986 0.0
C1066 C 0.15967 0.96589 0.9696 0.0
C1067 C 0.15859 0.01644 0.95225 0.0
C1068 C 0.15901 0.0454 0.96385 0.0
C1069 C 0.16075 0.99481 0.98099 0.0
C1070 C 0.16315 0.05255 0.00438 0.0
C1071 C 0.16486 0.03114 0.03327 0.0
H1072 H 0.74362 0.39951 0.67714 0.0
H1073 H 0.68851 0.42742 0.77692 0.0
H1074 H 0.73394 0.43375 0.81795 0.0
H1075 H 0.78842 0.42553 0.82831 0.0
H1076 H 0.84379 0.39613 0.72941 0.0
H1077 H 0.79945 0.39653 0.68552 0.0
C1078 C 0.7417 0.40766 0.70751 0.0
C1079 C 0.71273 0.4127 0.72403 0.0
C1080 C 0.76798 0.41058 0.73148 0.0
C1081 C 0.71055 0.42309 0.76359 0.0
C1082 C 0.73652 0.42664 0.78718 0.0
C1083 C 0.79096 0.41959 0.79705 0.0
C1084 C 0.81942 0.41034 0.78259 0.0
C1085 C 0.76524 0.41947 0.77192 0.0
C1086 C 0.82215 0.40301 0.74174 0.0
C1087 C 0.79675 0.4032 0.71646 0.0
loop_
_geom_bond_atom_site_label_1
_geom_bond_atom_site_label_2
_geom_bond_distance
_geom_bond_site_symmetry_2
_ccdc_geom_bond_type
Mn0 O5 2.095 . S
Mn0 O15 2.162 . S
Mn0 O16 2.297 . S
Mn0 O24 2.385 . S
Mn0 O25 2.209 . S
Mn0 O26 2.094 . S
Mn1 O6 2.121 . S
Mn1 N8 2.257 . S
Mn1 N17 2.282 . S
Mn1 O25 2.215 . S
Mn1 O27 2.117 . S
C2 O24 1.234 . S
C2 O25 1.283 . S
C3 O15 1.281 . S
C3 O16 1.236 . S
C4 O26 1.240 . S
C4 O27 1.264 . S
O5 Mn0 2.095 . S
O5 C14 1.250 . S
O6 Mn1 2.121 . S
O6 C14 1.258 . S
C7 N8 1.326 . S
C7 C11 1.460 . S
C7 H13 0.929 . S
N8 Mn1 2.257 . S
N8 C7 1.326 . S
N8 C12 1.362 . S
C9 C10 1.258 . S
C9 C12 1.431 . S
C9 C29 1.449 . S
C10 C9 1.258 . S
C10 C11 1.477 . S
C10 H30 0.931 . S
C11 C7 1.460 . S
C11 C10 1.477 . S
C11 H31 0.930 . S
C12 N8 1.362 . S
C12 C9 1.431 . S
C12 C22 1.476 . S
H13 C7 0.929 . S
C14 O5 1.250 . S
C14 O6 1.258 . S
O15 Mn0 2.162 . S
O15 C3 1.281 . S
O16 Mn0 2.297 . S
O16 C3 1.236 . S
N17 Mn1 2.282 . S
N17 C18 1.328 . S
N17 C22 1.318 . S
C18 N17 1.328 . S
C18 C19 1.457 . S
C18 H23 0.929 . S
C19 C18 1.457 . S
C19 C20 1.291 . S
C19 H32 0.931 . S
C20 C19 1.291 . S
C20 C21 1.373 . S
C20 H33 0.929 . S
C21 C20 1.373 . S
C21 C22 1.396 . S
C21 C28 1.403 . S
C22 C12 1.476 . S
C22 N17 1.318 . S
C22 C21 1.396 . S
H23 C18 0.929 . S
O24 Mn0 2.385 . S
O24 C2 1.234 . S
O25 Mn0 2.209 . S
O25 Mn1 2.215 . S
O25 C2 1.283 . S
O26 Mn0 2.094 . S
O26 C4 1.240 . S
O27 Mn1 2.117 . S
O27 C4 1.264 . S
C28 C21 1.403 . S
C28 C29 1.399 . S
C28 H34 0.929 1_455 S
C29 C9 1.449 . S
C29 C28 1.399 . S
C29 H35 0.930 . S
H30 C10 0.931 . S
H31 C11 0.930 . S
H32 C19 0.931 . S
H33 C20 0.929 . S
H34 C28 0.929 1_655 S
H35 C29 0.930 . S
Mn36 O41 2.095 . S
Mn36 O51 2.162 . S
Mn36 O52 2.297 . S
Mn36 O60 2.385 . S
Mn36 O61 2.209 . S
Mn36 O62 2.094 . S
Mn37 O42 2.121 . S
Mn37 N44 2.257 . S
Mn37 N53 2.282 . S
Mn37 O61 2.215 . S
Mn37 O63 2.117 . S
C38 O60 1.234 . S
C38 O61 1.283 . S
C39 O51 1.281 . S
C39 O52 1.236 . S
C40 O62 1.240 . S
C40 O63 1.264 . S
O41 Mn36 2.095 . S
O41 C50 1.250 . S
O42 Mn37 2.121 . S
O42 C50 1.258 . S
C43 N44 1.326 . S
C43 C47 1.460 . S
C43 H49 0.929 . S
N44 Mn37 2.257 . S
N44 C43 1.326 . S
N44 C48 1.362 . S
C45 C46 1.258 . S
C45 C48 1.431 . S
C45 C65 1.449 . S
C46 C45 1.258 . S
C46 C47 1.477 . S
C46 H66 0.931 . S
C47 C43 1.460 . S
C47 C46 1.477 . S
C47 H67 0.930 . S
C48 N44 1.362 . S
C48 C45 1.431 . S
C48 C58 1.476 . S
H49 C43 0.929 . S
C50 O41 1.250 . S
C50 O42 1.258 . S
O51 Mn36 2.162 . S
O51 C39 1.281 . S
O52 Mn36 2.297 . S
O52 C39 1.236 . S
N53 Mn37 2.282 . S
N53 C54 1.328 . S
N53 C58 1.318 . S
C54 N53 1.328 . S
C54 C55 1.457 . S
C54 H59 0.929 . S
C55 C54 1.457 . S
C55 C56 1.291 . S
C55 H68 0.931 . S
C56 C55 1.291 . S
C56 C57 1.373 . S
C56 H69 0.929 . S
C57 C56 1.373 . S
C57 C58 1.396 . S
C57 C64 1.403 . S
C58 C48 1.476 . S
C58 N53 1.318 . S
C58 C57 1.396 . S
H59 C54 0.929 . S
O60 Mn36 2.385 . S
O60 C38 1.234 . S
O61 Mn36 2.209 . S
O61 Mn37 2.215 . S
O61 C38 1.283 . S
O62 Mn36 2.094 . S
O62 C40 1.240 . S
O63 Mn37 2.117 . S
O63 C40 1.264 . S
C64 C57 1.403 . S
C64 C65 1.399 . S
C64 H70 0.929 . S
C65 C45 1.449 . S
C65 C64 1.399 . S
C65 H71 0.930 . S
H66 C46 0.931 . S
H67 C47 0.930 . S
H68 C55 0.931 . S
H69 C56 0.929 . S
H70 C64 0.929 . S
H71 C65 0.930 . S
Mn72 O77 2.095 . S
Mn72 O87 2.162 . S
Mn72 O88 2.297 . S
Mn72 O96 2.385 . S
Mn72 O97 2.209 . S
Mn72 O98 2.094 . S
Mn73 O78 2.121 . S
Mn73 N80 2.257 . S
Mn73 N89 2.282 . S
Mn73 O97 2.215 . S
Mn73 O99 2.117 . S
C74 O96 1.234 . S
C74 O97 1.283 . S
C75 O87 1.281 . S
C75 O88 1.236 . S
C76 O98 1.240 . S
C76 O99 1.264 . S
O77 Mn72 2.095 . S
O77 C86 1.250 . S
O78 Mn73 2.121 . S
O78 C86 1.258 . S
C79 N80 1.326 . S
C79 C83 1.460 . S
C79 H85 0.929 . S
N80 Mn73 2.257 . S
N80 C79 1.326 . S
N80 C84 1.362 . S
C81 C82 1.258 . S
C81 C84 1.431 . S
C81 C101 1.449 . S
C82 C81 1.258 . S
C82 C83 1.477 . S
C82 H102 0.931 . S
C83 C79 1.460 . S
C83 C82 1.477 . S
C83 H103 0.930 . S
C84 N80 1.362 . S
C84 C81 1.431 . S
C84 C94 1.476 . S
H85 C79 0.929 . S
C86 O77 1.250 . S
C86 O78 1.258 . S
O87 Mn72 2.162 . S
O87 C75 1.281 . S
O88 Mn72 2.297 . S
O88 C75 1.236 . S
N89 Mn73 2.282 . S
N89 C90 1.328 . S
N89 C94 1.318 . S
C90 N89 1.328 . S
C90 C91 1.457 . S
C90 H95 0.929 . S
C91 C90 1.457 . S
C91 C92 1.291 . S
C91 H104 0.931 . S
C92 C91 1.291 . S
C92 C93 1.373 . S
C92 H105 0.929 . S
C93 C92 1.373 . S
C93 C94 1.396 . S
C93 C100 1.403 . S
C94 C84 1.476 . S
C94 N89 1.318 . S
C94 C93 1.396 . S
H95 C90 0.929 . S
O96 Mn72 2.385 . S
O96 C74 1.234 . S
O97 Mn72 2.209 . S
O97 Mn73 2.215 . S
O97 C74 1.283 . S
O98 Mn72 2.094 . S
O98 C76 1.240 . S
O99 Mn73 2.117 . S
O99 C76 1.264 . S
C100 C93 1.403 . S
C100 C101 1.399 . S
C100 H106 0.929 . S
C101 C81 1.449 . S
C101 C100 1.399 . S
C101 H107 0.930 . S
H102 C82 0.931 . S
H103 C83 0.930 . S
H104 C91 0.931 . S
H105 C92 0.929 . S
H106 C100 0.929 . S
H107 C101 0.930 . S
Mn108 O113 2.095 . S
Mn108 O123 2.162 . S
Mn108 O124 2.297 . S
Mn108 O132 2.385 . S
Mn108 O133 2.209 . S
Mn108 O134 2.094 . S
Mn109 O114 2.121 . S
Mn109 N116 2.257 . S
Mn109 N125 2.282 . S
Mn109 O133 2.215 . S
Mn109 O135 2.117 . S
C110 O132 1.234 . S
C110 O133 1.283 . S
C111 O123 1.281 . S
C111 O124 1.236 . S
C112 O134 1.240 . S
C112 O135 1.264 . S
O113 Mn108 2.095 . S
O113 C122 1.250 . S
O114 Mn109 2.121 . S
O114 C122 1.258 . S
C115 N116 1.326 . S
C115 C119 1.460 . S
C115 H121 0.929 . S
N116 Mn109 2.257 . S
N116 C115 1.326 . S
N116 C120 1.362 . S
C117 C118 1.258 . S
C117 C120 1.431 . S
C117 C137 1.449 . S
C118 C117 1.258 . S
C118 C119 1.477 . S
C118 H138 0.931 . S
C119 C115 1.460 . S
C119 C118 1.477 . S
C119 H139 0.930 . S
C120 N116 1.362 . S
C120 C117 1.431 . S
C120 C130 1.476 . S
H121 C115 0.929 . S
C122 O113 1.250 . S
C122 O114 1.258 . S
O123 Mn108 2.162 . S
O123 C111 1.281 . S
O124 Mn108 2.297 . S
O124 C111 1.236 . S
N125 Mn109 2.282 . S
N125 C126 1.328 . S
N125 C130 1.318 . S
C126 N125 1.328 . S
C126 C127 1.457 . S
C126 H131 0.929 . S
C127 C126 1.457 . S
C127 C128 1.291 . S
C127 H140 0.931 . S
C128 C127 1.291 . S
C128 C129 1.373 . S
C128 H141 0.907 1_655 S
C129 C128 1.373 . S
C129 C130 1.396 . S
C129 C136 1.403 . S
C130 C120 1.476 . S
C130 N125 1.318 . S
C130 C129 1.396 . S
H131 C126 0.929 . S
O132 Mn108 2.385 . S
O132 C110 1.234 . S
O133 Mn108 2.209 . S
O133 Mn109 2.215 . S
O133 C110 1.283 . S
O134 Mn108 2.094 . S
O134 C112 1.240 . S
O135 Mn109 2.117 . S
O135 C112 1.264 . S
C136 C129 1.403 . S
C136 C137 1.399 . S
C136 H142 0.929 1_655 S
C137 C117 1.449 . S
C137 C136 1.399 . S
C137 H143 0.930 . S
H138 C118 0.931 . S
H139 C119 0.930 . S
H140 C127 0.931 . S
H141 C128 0.907 1_455 S
H142 C136 0.929 1_455 S
H143 C137 0.930 . S
Mn144 O149 2.095 . S
Mn144 O159 2.162 . S
Mn144 O160 2.297 . S
Mn144 O168 2.385 . S
Mn144 O169 2.209 . S
Mn144 O170 2.094 . S
Mn145 O150 2.121 . S
Mn145 N152 2.257 1_556 S
Mn145 N161 2.282 . S
Mn145 O169 2.215 . S
Mn145 O171 2.117 . S
C146 O168 1.234 . S
C146 O169 1.283 . S
C147 O159 1.281 . S
C147 O160 1.236 . S
C148 O170 1.240 . S
C148 O171 1.264 . S
O149 Mn144 2.095 . S
O149 C158 1.250 . S
O150 Mn145 2.121 . S
O150 C158 1.258 . S
C151 N152 1.326 . S
C151 C155 1.460 . S
C151 H157 0.929 . S
N152 Mn145 2.257 1_554 S
N152 C151 1.326 . S
N152 C156 1.362 . S
C153 C154 1.258 . S
C153 C156 1.431 . S
C153 C173 1.449 . S
C154 C153 1.258 . S
C154 C155 1.477 . S
C154 H174 0.931 . S
C155 C151 1.460 . S
C155 C154 1.477 . S
C155 H175 0.930 . S
C156 N152 1.362 . S
C156 C153 1.431 . S
C156 C166 1.476 1_554 S
H157 C151 0.929 . S
C158 O149 1.250 . S
C158 O150 1.258 . S
O159 Mn144 2.162 . S
O159 C147 1.281 . S
O160 Mn144 2.297 . S
O160 C147 1.236 . S
N161 Mn145 2.282 . S
N161 C162 1.328 . S
N161 C166 1.318 . S
C162 N161 1.328 . S
C162 C163 1.457 . S
C162 H167 0.929 . S
C163 C162 1.457 . S
C163 C164 1.291 . S
C163 H176 0.931 . S
C164 C163 1.291 . S
C164 C165 1.373 . S
C164 H177 0.929 . S
C165 C164 1.373 . S
C165 C166 1.396 . S
C165 C172 1.403 1_556 S
C166 C156 1.476 1_556 S
C166 N161 1.318 . S
C166 C165 1.396 . S
H167 C162 0.929 . S
O168 Mn144 2.385 . S
O168 C146 1.234 . S
O169 Mn144 2.209 . S
O169 Mn145 2.215 . S
O169 C146 1.283 . S
O170 Mn144 2.094 . S
O170 C148 1.240 . S
O171 Mn145 2.117 . S
O171 C148 1.264 . S
C172 C165 1.403 1_554 S
C172 C173 1.399 . S
C172 H178 0.929 . S
C173 C153 1.449 . S
C173 C172 1.399 . S
C173 H179 0.930 . S
H174 C154 0.931 . S
H175 C155 0.930 . S
H176 C163 0.931 . S
H177 C164 0.929 . S
H178 C172 0.929 . S
H179 C173 0.930 . S
Mn180 O185 2.095 . S
Mn180 O195 2.162 . S
Mn180 O196 2.297 . S
Mn180 O204 2.385 . S
Mn180 O205 2.209 . S
Mn180 O206 2.094 . S
Mn181 O186 2.121 . S
Mn181 N188 2.257 . S
Mn181 N197 2.282 . S
Mn181 O205 2.215 . S
Mn181 O207 2.117 . S
C182 O204 1.234 . S
C182 O205 1.283 . S
C183 O195 1.281 . S
C183 O196 1.236 . S
C184 O206 1.240 . S
C184 O207 1.264 . S
O185 Mn180 2.095 . S
O185 C194 1.250 . S
O186 Mn181 2.121 . S
O186 C194 1.258 . S
C187 N188 1.326 . S
C187 C191 1.460 . S
C187 H193 0.929 . S
N188 Mn181 2.257 . S
N188 C187 1.326 . S
N188 C192 1.362 . S
C189 C190 1.258 . S
C189 C192 1.431 . S
C189 C209 1.449 . S
C190 C189 1.258 . S
C190 C191 1.477 . S
C190 H210 0.931 . S
C191 C187 1.460 . S
C191 C190 1.477 . S
C191 H211 0.930 . S
C192 N188 1.362 . S
C192 C189 1.431 . S
C192 C202 1.476 . S
H193 C187 0.929 . S
C194 O185 1.250 . S
C194 O186 1.258 . S
O195 Mn180 2.162 . S
O195 C183 1.281 . S
O196 Mn180 2.297 . S
O196 C183 1.236 . S
N197 Mn181 2.282 . S
N197 C198 1.328 . S
N197 C202 1.318 . S
C198 N197 1.328 . S
C198 C199 1.457 . S
C198 H203 0.929 . S
C199 C198 1.457 . S
C199 C200 1.291 . S
C199 H212 0.931 . S
C200 C199 1.291 . S
C200 C201 1.373 . S
C200 H213 0.929 1_655 S
C201 C200 1.373 . S
C201 C202 1.396 . S
C201 C208 1.403 . S
C202 C192 1.476 . S
C202 N197 1.318 . S
C202 C201 1.396 . S
H203 C198 0.929 . S
O204 Mn180 2.385 . S
O204 C182 1.234 . S
O205 Mn180 2.209 . S
O205 Mn181 2.215 . S
O205 C182 1.283 . S
O206 Mn180 2.094 . S
O206 C184 1.240 . S
O207 Mn181 2.117 . S
O207 C184 1.264 . S
C208 C201 1.403 . S
C208 C209 1.399 . S
C208 H214 0.929 1_655 S
C209 C189 1.449 . S
C209 C208 1.399 . S
C209 H215 0.930 . S
H210 C190 0.931 . S
H211 C191 0.930 . S
H212 C199 0.931 . S
H213 C200 0.929 1_455 S
H214 C208 0.929 1_455 S
H215 C209 0.930 . S
Mn216 O221 2.095 . S
Mn216 O231 2.162 . S
Mn216 O232 2.297 . S
Mn216 O240 2.385 . S
Mn216 O241 2.209 . S
Mn216 O242 2.094 . S
Mn217 O222 2.121 . S
Mn217 N224 2.257 . S
Mn217 N233 2.282 . S
Mn217 O241 2.215 . S
Mn217 O243 2.117 . S
C218 O240 1.234 . S
C218 O241 1.283 . S
C219 O231 1.281 . S
C219 O232 1.236 . S
C220 O242 1.240 . S
C220 O243 1.264 . S
O221 Mn216 2.095 . S
O221 C230 1.250 . S
O222 Mn217 2.121 . S
O222 C230 1.258 . S
C223 N224 1.326 . S
C223 C227 1.460 . S
C223 H229 0.929 . S
N224 Mn217 2.257 . S
N224 C223 1.326 . S
N224 C228 1.362 . S
C225 C226 1.258 . S
C225 C228 1.431 . S
C225 C245 1.449 . S
C226 C225 1.258 . S
C226 C227 1.477 . S
C226 H246 0.931 . S
C227 C223 1.460 . S
C227 C226 1.477 . S
C227 H247 0.930 . S
C228 N224 1.362 . S
C228 C225 1.431 . S
C228 C238 1.476 . S
H229 C223 0.929 . S
C230 O221 1.250 . S
C230 O222 1.258 . S
O231 Mn216 2.162 . S
O231 C219 1.281 . S
O232 Mn216 2.297 . S
O232 C219 1.236 . S
N233 Mn217 2.282 . S
N233 C234 1.328 . S
N233 C238 1.318 . S
C234 N233 1.328 . S
C234 C235 1.457 . S
C234 H239 0.929 . S
C235 C234 1.457 . S
C235 C236 1.291 . S
C235 H248 0.931 . S
C236 C235 1.291 . S
C236 C237 1.373 . S
C236 H249 0.929 . S
C237 C236 1.373 . S
C237 C238 1.396 . S
C237 C244 1.403 . S
C238 C228 1.476 . S
C238 N233 1.318 . S
C238 C237 1.396 . S
H239 C234 0.929 . S
O240 Mn216 2.385 . S
O240 C218 1.234 . S
O241 Mn216 2.209 . S
O241 Mn217 2.215 . S
O241 C218 1.283 . S
O242 Mn216 2.094 . S
O242 C220 1.240 . S
O243 Mn217 2.117 . S
O243 C220 1.264 . S
C244 C237 1.403 . S
C244 C245 1.399 . S
C244 H250 0.929 . S
C245 C225 1.449 . S
C245 C244 1.399 . S
C245 H251 0.930 . S
H246 C226 0.931 . S
H247 C227 0.930 . S
H248 C235 0.931 . S
H249 C236 0.929 . S
H250 C244 0.929 . S
H251 C245 0.930 . S
Mn252 O257 2.095 . S
Mn252 O267 2.162 . S
Mn252 O268 2.297 . S
Mn252 O276 2.385 . S
Mn252 O277 2.209 . S
Mn252 O278 2.094 . S
Mn253 O258 2.121 . S
Mn253 N260 2.257 . S
Mn253 N269 2.282 . S
Mn253 O277 2.215 . S
Mn253 O279 2.117 . S
C254 O276 1.234 . S
C254 O277 1.283 . S
C255 O267 1.281 . S
C255 O268 1.236 . S
C256 O278 1.240 . S
C256 O279 1.264 . S
O257 Mn252 2.095 . S
O257 C266 1.250 . S
O258 Mn253 2.121 . S
O258 C266 1.258 . S
C259 N260 1.326 . S
C259 C263 1.460 . S
C259 H265 0.929 . S
N260 Mn253 2.257 . S
N260 C259 1.326 . S
N260 C264 1.362 . S
C261 C262 1.258 . S
C261 C264 1.431 . S
C261 C281 1.449 . S
C262 C261 1.258 . S
C262 C263 1.477 . S
C262 H282 0.931 . S
C263 C259 1.460 . S
C263 C262 1.477 . S
C263 H283 0.930 . S
C264 N260 1.362 . S
C264 C261 1.431 . S
C264 C274 1.476 . S
H265 C259 0.929 . S
C266 O257 1.250 . S
C266 O258 1.258 . S
O267 Mn252 2.162 . S
O267 C255 1.281 . S
O268 Mn252 2.297 . S
O268 C255 1.236 . S
N269 Mn253 2.282 . S
N269 C270 1.328 . S
N269 C274 1.318 . S
C270 N269 1.328 . S
C270 C271 1.457 . S
C270 H275 0.929 . S
C271 C270 1.457 . S
C271 C272 1.291 . S
C271 H284 0.931 . S
C272 C271 1.291 . S
C272 C273 1.373 . S
C272 H285 0.929 . S
C273 C272 1.373 . S
C273 C274 1.396 . S
C273 C280 1.403 . S
C274 C264 1.476 . S
C274 N269 1.318 . S
C274 C273 1.396 . S
H275 C270 0.929 . S
O276 Mn252 2.385 . S
O276 C254 1.234 . S
O277 Mn252 2.209 . S
O277 Mn253 2.215 . S
O277 C254 1.283 . S
O278 Mn252 2.094 . S
O278 C256 1.240 . S
O279 Mn253 2.117 . S
O279 C256 1.264 . S
C280 C273 1.403 . S
C280 C281 1.399 . S
C280 H286 0.929 . S
C281 C261 1.449 . S
C281 C280 1.399 . S
C281 H287 0.930 . S
H282 C262 0.931 . S
H283 C263 0.930 . S
H284 C271 0.931 . S
H285 C272 0.929 . S
H286 C280 0.929 . S
H287 C281 0.930 . S
Mn288 O293 2.095 . S
Mn288 O303 2.162 . S
Mn288 O304 2.297 . S
Mn288 O312 2.385 . S
Mn288 O313 2.209 . S
Mn288 O314 2.094 . S
Mn289 O294 2.121 . S
Mn289 N296 2.257 . S
Mn289 N305 2.282 . S
Mn289 O313 2.215 . S
Mn289 O315 2.117 . S
C290 O312 1.234 . S
C290 O313 1.283 . S
C291 O303 1.281 . S
C291 O304 1.236 . S
C292 O314 1.240 . S
C292 O315 1.264 . S
O293 Mn288 2.095 . S
O293 C302 1.250 . S
O294 Mn289 2.121 . S
O294 C302 1.258 . S
C295 N296 1.326 . S
C295 C299 1.460 . S
C295 H301 0.929 . S
N296 Mn289 2.257 . S
N296 C295 1.326 . S
N296 C300 1.362 . S
C297 C298 1.258 . S
C297 C300 1.431 . S
C297 C317 1.449 . S
C298 C297 1.258 . S
C298 C299 1.477 . S
C298 H318 0.931 . S
C299 C295 1.460 . S
C299 C298 1.477 . S
C299 H319 0.930 . S
C300 N296 1.362 . S
C300 C297 1.431 . S
C300 C310 1.476 . S
H301 C295 0.929 . S
C302 O293 1.250 . S
C302 O294 1.258 . S
O303 Mn288 2.162 . S
O303 C291 1.281 . S
O304 Mn288 2.297 . S
O304 C291 1.236 . S
N305 Mn289 2.282 . S
N305 C306 1.328 . S
N305 C310 1.318 . S
C306 N305 1.328 . S
C306 C307 1.457 . S
C306 H311 0.929 . S
C307 C306 1.457 . S
C307 C308 1.291 . S
C307 H320 0.931 . S
C308 C307 1.291 . S
C308 C309 1.373 . S
C308 H321 0.929 . S
C309 C308 1.373 . S
C309 C310 1.396 . S
C309 C316 1.403 . S
C310 C300 1.476 . S
C310 N305 1.318 . S
C310 C309 1.396 . S
H311 C306 0.929 . S
O312 Mn288 2.385 . S
O312 C290 1.234 . S
O313 Mn288 2.209 . S
O313 Mn289 2.215 . S
O313 C290 1.283 . S
O314 Mn288 2.094 . S
O314 C292 1.240 . S
O315 Mn289 2.117 . S
O315 C292 1.264 . S
C316 C309 1.403 . S
C316 C317 1.399 . S
C316 H322 0.915 1_655 S
C317 C297 1.449 . S
C317 C316 1.399 . S
C317 H323 0.930 . S
H318 C298 0.931 . S
H319 C299 0.930 . S
H320 C307 0.931 . S
H321 C308 0.929 . S
H322 C316 0.915 1_455 S
H323 C317 0.930 . S
Mn324 O329 2.095 . S
Mn324 O339 2.162 . S
Mn324 O340 2.297 . S
Mn324 O348 2.385 . S
Mn324 O349 2.209 . S
Mn324 O350 2.094 . S
Mn325 O330 2.121 . S
Mn325 N332 2.257 . S
Mn325 N341 2.282 . S
Mn325 O349 2.215 . S
Mn325 O351 2.117 . S
C326 O348 1.234 . S
C326 O349 1.283 . S
C327 O339 1.281 . S
C327 O340 1.236 . S
C328 O350 1.240 . S
C328 O351 1.264 . S
O329 Mn324 2.095 . S
O329 C338 1.250 . S
O330 Mn325 2.121 . S
O330 C338 1.258 . S
C331 N332 1.326 . S
C331 C335 1.460 . S
C331 H337 0.929 . S
N332 Mn325 2.257 . S
N332 C331 1.326 . S
N332 C336 1.362 . S
C333 C334 1.258 . S
C333 C336 1.431 . S
C333 C353 1.449 . S
C334 C333 1.258 . S
C334 C335 1.477 . S
C334 H354 0.931 . S
C335 C331 1.460 . S
C335 C334 1.477 . S
C335 H355 0.930 . S
C336 N332 1.362 . S
C336 C333 1.431 . S
C336 C346 1.476 . S
H337 C331 0.929 . S
C338 O329 1.250 . S
C338 O330 1.258 . S
O339 Mn324 2.162 . S
O339 C327 1.281 . S
O340 Mn324 2.297 . S
O340 C327 1.236 . S
N341 Mn325 2.282 . S
N341 C342 1.328 . S
N341 C346 1.318 . S
C342 N341 1.328 . S
C342 C343 1.457 . S
C342 H347 0.929 . S
C343 C342 1.457 . S
C343 C344 1.291 . S
C343 H356 0.931 . S
C344 C343 1.291 . S
C344 C345 1.373 . S
C344 H357 0.929 . S
C345 C344 1.373 . S
C345 C346 1.396 . S
C345 C352 1.403 . S
C346 C336 1.476 . S
C346 N341 1.318 . S
C346 C345 1.396 . S
H347 C342 0.929 . S
O348 Mn324 2.385 . S
O348 C326 1.234 . S
O349 Mn324 2.209 . S
O349 Mn325 2.215 . S
O349 C326 1.283 . S
O350 Mn324 2.094 . S
O350 C328 1.240 . S
O351 Mn325 2.117 . S
O351 C328 1.264 . S
C352 C345 1.403 . S
C352 C353 1.399 . S
C352 H358 0.929 . S
C353 C333 1.449 . S
C353 C352 1.399 . S
C353 H359 0.930 . S
H354 C334 0.931 . S
H355 C335 0.930 . S
H356 C343 0.931 . S
H357 C344 0.929 . S
H358 C352 0.929 . S
H359 C353 0.930 . S
Mn360 O365 2.095 . S
Mn360 O375 2.162 . S
Mn360 O376 2.297 . S
Mn360 O384 2.385 . S
Mn360 O385 2.209 . S
Mn360 O386 2.094 . S
Mn361 O366 2.121 . S
Mn361 N368 2.257 . S
Mn361 N377 2.282 . S
Mn361 O385 2.215 . S
Mn361 O387 2.117 . S
C362 O384 1.234 . S
C362 O385 1.283 . S
C363 O375 1.281 . S
C363 O376 1.236 . S
C364 O386 1.240 . S
C364 O387 1.264 . S
O365 Mn360 2.095 . S
O365 C374 1.250 . S
O366 Mn361 2.121 . S
O366 C374 1.258 . S
C367 N368 1.326 . S
C367 C371 1.460 . S
C367 H373 0.929 . S
N368 Mn361 2.257 . S
N368 C367 1.326 . S
N368 C372 1.362 . S
C369 C370 1.258 . S
C369 C372 1.431 . S
C369 C389 1.449 . S
C370 C369 1.258 . S
C370 C371 1.477 . S
C370 H390 0.931 . S
C371 C367 1.460 . S
C371 C370 1.477 . S
C371 H391 0.930 . S
C372 N368 1.362 . S
C372 C369 1.431 . S
C372 C382 1.476 . S
H373 C367 0.929 . S
C374 O365 1.250 . S
C374 O366 1.258 . S
O375 Mn360 2.162 . S
O375 C363 1.281 . S
O376 Mn360 2.297 . S
O376 C363 1.236 . S
N377 Mn361 2.282 . S
N377 C378 1.328 . S
N377 C382 1.318 . S
C378 N377 1.328 . S
C378 C379 1.457 . S
C378 H383 0.929 . S
C379 C378 1.457 . S
C379 C380 1.291 . S
C379 H392 0.931 . S
C380 C379 1.291 . S
C380 C381 1.373 . S
C380 H393 0.929 . S
C381 C380 1.373 . S
C381 C382 1.396 . S
C381 C388 1.403 . S
C382 C372 1.476 . S
C382 N377 1.318 . S
C382 C381 1.396 . S
H383 C378 0.929 . S
O384 Mn360 2.385 . S
O384 C362 1.234 . S
O385 Mn360 2.209 . S
O385 Mn361 2.215 . S
O385 C362 1.283 . S
O386 Mn360 2.094 . S
O386 C364 1.240 . S
O387 Mn361 2.117 . S
O387 C364 1.264 . S
C388 C381 1.403 . S
C388 C389 1.399 . S
C388 H394 0.929 . S
C389 C369 1.449 . S
C389 C388 1.399 . S
C389 H395 0.930 . S
H390 C370 0.931 . S
H391 C371 0.930 . S
H392 C379 0.931 . S
H393 C380 0.929 . S
H394 C388 0.929 . S
H395 C389 0.930 . S
Mn396 O401 2.095 . S
Mn396 O411 2.162 . S
Mn396 O412 2.297 . S
Mn396 O420 2.385 . S
Mn396 O421 2.209 . S
Mn396 O422 2.094 . S
Mn397 O402 2.121 . S
Mn397 N404 2.257 . S
Mn397 N413 2.282 . S
Mn397 O421 2.215 . S
Mn397 O423 2.117 . S
C398 O420 1.234 . S
C398 O421 1.283 . S
C399 O411 1.281 . S
C399 O412 1.236 . S
C400 O422 1.240 . S
C400 O423 1.264 . S
O401 Mn396 2.095 . S
O401 C410 1.250 . S
O402 Mn397 2.121 . S
O402 C410 1.258 . S
C403 N404 1.326 . S
C403 C407 1.460 . S
C403 H409 0.929 . S
N404 Mn397 2.257 . S
N404 C403 1.326 . S
N404 C408 1.362 . S
C405 C406 1.258 . S
C405 C408 1.431 . S
C405 C425 1.449 . S
C406 C405 1.258 . S
C406 C407 1.477 . S
C406 H426 0.931 . S
C407 C403 1.460 . S
C407 C406 1.477 . S
C407 H427 0.930 . S
C408 N404 1.362 . S
C408 C405 1.431 . S
C408 C418 1.476 . S
H409 C403 0.929 . S
C410 O401 1.250 . S
C410 O402 1.258 . S
O411 Mn396 2.162 . S
O411 C399 1.281 . S
O412 Mn396 2.297 . S
O412 C399 1.236 . S
N413 Mn397 2.282 . S
N413 C414 1.328 . S
N413 C418 1.318 . S
C414 N413 1.328 . S
C414 C415 1.457 . S
C414 H419 0.929 . S
C415 C414 1.457 . S
C415 C416 1.291 . S
C415 H428 0.931 . S
C416 C415 1.291 . S
C416 C417 1.373 . S
C416 H429 0.929 1_455 S
C417 C416 1.373 . S
C417 C418 1.396 . S
C417 C424 1.403 . S
C418 C408 1.476 . S
C418 N413 1.318 . S
C418 C417 1.396 . S
H419 C414 0.929 . S
O420 Mn396 2.385 . S
O420 C398 1.234 . S
O421 Mn396 2.209 . S
O421 Mn397 2.215 . S
O421 C398 1.283 . S
O422 Mn396 2.094 . S
O422 C400 1.240 . S
O423 Mn397 2.117 . S
O423 C400 1.264 . S
C424 C417 1.403 . S
C424 C425 1.399 . S
C424 H430 0.929 1_455 S
C425 C405 1.449 . S
C425 C424 1.399 . S
C425 H431 0.930 1_455 S
H426 C406 0.931 . S
H427 C407 0.930 . S
H428 C415 0.931 . S
H429 C416 0.929 1_655 S
H430 C424 0.929 1_655 S
H431 C425 0.930 1_655 S
Mn432 O437 2.095 . S
Mn432 O447 2.162 . S
Mn432 O448 2.297 . S
Mn432 O456 2.385 . S
Mn432 O457 2.209 . S
Mn432 O458 2.094 . S
Mn433 O438 2.121 . S
Mn433 N440 2.257 1_554 S
Mn433 N449 2.282 . S
Mn433 O457 2.215 . S
Mn433 O459 2.117 . S
C434 O456 1.234 . S
C434 O457 1.283 . S
C435 O447 1.281 . S
C435 O448 1.236 . S
C436 O458 1.240 . S
C436 O459 1.264 . S
O437 Mn432 2.095 . S
O437 C446 1.250 . S
O438 Mn433 2.121 . S
O438 C446 1.258 . S
C439 N440 1.326 . S
C439 C443 1.460 . S
C439 H445 0.929 . S
N440 Mn433 2.257 1_556 S
N440 C439 1.326 . S
N440 C444 1.362 . S
C441 C442 1.258 . S
C441 C444 1.431 . S
C441 C461 1.449 . S
C442 C441 1.258 . S
C442 C443 1.477 . S
C442 H462 0.931 . S
C443 C439 1.460 . S
C443 C442 1.477 . S
C443 H463 0.930 . S
C444 N440 1.362 . S
C444 C441 1.431 . S
C444 C454 1.476 1_556 S
H445 C439 0.929 . S
C446 O437 1.250 . S
C446 O438 1.258 . S
O447 Mn432 2.162 . S
O447 C435 1.281 . S
O448 Mn432 2.297 . S
O448 C435 1.236 . S
N449 Mn433 2.282 . S
N449 C450 1.328 . S
N449 C454 1.318 . S
C450 N449 1.328 . S
C450 C451 1.457 . S
C450 H455 0.929 . S
C451 C450 1.457 . S
C451 C452 1.291 . S
C451 H464 0.931 . S
C452 C451 1.291 . S
C452 C453 1.373 . S
C452 H465 0.929 . S
C453 C452 1.373 . S
C453 C454 1.396 . S
C453 C460 1.403 1_554 S
C454 C444 1.476 1_554 S
C454 N449 1.318 . S
C454 C453 1.396 . S
H455 C450 0.929 . S
O456 Mn432 2.385 . S
O456 C434 1.234 . S
O457 Mn432 2.209 . S
O457 Mn433 2.215 . S
O457 C434 1.283 . S
O458 Mn432 2.094 . S
O458 C436 1.240 . S
O459 Mn433 2.117 . S
O459 C436 1.264 . S
C460 C453 1.403 1_556 S
C460 C461 1.399 . S
C460 H466 0.929 . S
C461 C441 1.449 . S
C461 C460 1.399 . S
C461 H467 0.930 . S
H462 C442 0.931 . S
H463 C443 0.930 . S
H464 C451 0.931 . S
H465 C452 0.929 . S
H466 C460 0.929 . S
H467 C461 0.930 . S
Mn468 O473 2.095 . S
Mn468 O483 2.162 . S
Mn468 O484 2.297 . S
Mn468 O492 2.385 . S
Mn468 O493 2.209 . S
Mn468 O494 2.094 . S
Mn469 O474 2.121 . S
Mn469 N476 2.257 . S
Mn469 N485 2.282 . S
Mn469 O493 2.215 . S
Mn469 O495 2.117 . S
C470 O492 1.234 . S
C470 O493 1.283 . S
C471 O483 1.281 . S
C471 O484 1.236 . S
C472 O494 1.240 . S
C472 O495 1.264 . S
O473 Mn468 2.095 . S
O473 C482 1.250 . S
O474 Mn469 2.121 . S
O474 C482 1.258 . S
C475 N476 1.326 . S
C475 C479 1.460 . S
C475 H481 0.929 . S
N476 Mn469 2.257 . S
N476 C475 1.326 . S
N476 C480 1.362 . S
C477 C478 1.258 . S
C477 C480 1.431 . S
C477 C497 1.449 . S
C478 C477 1.258 . S
C478 C479 1.477 . S
C478 H498 0.931 . S
C479 C475 1.460 . S
C479 C478 1.477 . S
C479 H499 0.930 . S
C480 N476 1.362 . S
C480 C477 1.431 . S
C480 C490 1.476 . S
H481 C475 0.929 . S
C482 O473 1.250 . S
C482 O474 1.258 . S
O483 Mn468 2.162 . S
O483 C471 1.281 . S
O484 Mn468 2.297 . S
O484 C471 1.236 . S
N485 Mn469 2.282 . S
N485 C486 1.328 . S
N485 C490 1.318 . S
C486 N485 1.328 . S
C486 C487 1.457 . S
C486 H491 0.929 . S
C487 C486 1.457 . S
C487 C488 1.291 . S
C487 H500 0.931 . S
C488 C487 1.291 . S
C488 C489 1.373 . S
C488 H501 0.929 1_455 S
C489 C488 1.373 . S
C489 C490 1.396 . S
C489 C496 1.403 . S
C490 C480 1.476 . S
C490 N485 1.318 . S
C490 C489 1.396 . S
H491 C486 0.929 . S
O492 Mn468 2.385 . S
O492 C470 1.234 . S
O493 Mn468 2.209 . S
O493 Mn469 2.215 . S
O493 C470 1.283 . S
O494 Mn468 2.094 . S
O494 C472 1.240 . S
O495 Mn469 2.117 . S
O495 C472 1.264 . S
C496 C489 1.403 . S
C496 C497 1.399 . S
C496 H502 0.929 1_455 S
C497 C477 1.449 . S
C497 C496 1.399 . S
C497 H503 0.930 . S
H498 C478 0.931 . S
H499 C479 0.930 . S
H500 C487 0.931 . S
H501 C488 0.929 1_655 S
H502 C496 0.929 1_655 S
H503 C497 0.930 . S
Mn504 O509 2.095 . S
Mn504 O519 2.162 . S
Mn504 O520 2.297 . S
Mn504 O528 2.385 . S
Mn504 O529 2.209 . S
Mn504 O530 2.094 . S
Mn505 O510 2.121 . S
Mn505 N512 2.257 . S
Mn505 N521 2.282 . S
Mn505 O529 2.215 . S
Mn505 O531 2.117 . S
C506 O528 1.234 . S
C506 O529 1.283 . S
C507 O519 1.281 . S
C507 O520 1.236 . S
C508 O530 1.240 . S
C508 O531 1.264 . S
O509 Mn504 2.095 . S
O509 C518 1.250 . S
O510 Mn505 2.121 . S
O510 C518 1.258 . S
C511 N512 1.326 . S
C511 C515 1.460 . S
C511 H517 0.929 . S
N512 Mn505 2.257 . S
N512 C511 1.326 . S
N512 C516 1.362 . S
C513 C514 1.258 . S
C513 C516 1.431 . S
C513 C533 1.449 . S
C514 C513 1.258 . S
C514 C515 1.477 . S
C514 H534 0.931 . S
C515 C511 1.460 . S
C515 C514 1.477 . S
C515 H535 0.930 . S
C516 N512 1.362 . S
C516 C513 1.431 . S
C516 C526 1.476 . S
H517 C511 0.929 . S
C518 O509 1.250 . S
C518 O510 1.258 . S
O519 Mn504 2.162 . S
O519 C507 1.281 . S
O520 Mn504 2.297 . S
O520 C507 1.236 . S
N521 Mn505 2.282 . S
N521 C522 1.328 . S
N521 C526 1.318 . S
C522 N521 1.328 . S
C522 C523 1.457 . S
C522 H527 0.929 . S
C523 C522 1.457 . S
C523 C524 1.291 . S
C523 H536 0.931 . S
C524 C523 1.291 . S
C524 C525 1.373 . S
C524 H537 0.929 . S
C525 C524 1.373 . S
C525 C526 1.396 . S
C525 C532 1.403 . S
C526 C516 1.476 . S
C526 N521 1.318 . S
C526 C525 1.396 . S
H527 C522 0.929 . S
O528 Mn504 2.385 . S
O528 C506 1.234 . S
O529 Mn504 2.209 . S
O529 Mn505 2.215 . S
O529 C506 1.283 . S
O530 Mn504 2.094 . S
O530 C508 1.240 . S
O531 Mn505 2.117 . S
O531 C508 1.264 . S
C532 C525 1.403 . S
C532 C533 1.399 . S
C532 H538 0.929 . S
C533 C513 1.449 . S
C533 C532 1.399 . S
C533 H539 0.930 . S
H534 C514 0.931 . S
H535 C515 0.930 . S
H536 C523 0.931 . S
H537 C524 0.929 . S
H538 C532 0.929 . S
H539 C533 0.930 . S
Mn540 O545 2.095 . S
Mn540 O555 2.162 . S
Mn540 O556 2.297 . S
Mn540 O564 2.385 . S
Mn540 O565 2.209 . S
Mn540 O566 2.094 . S
Mn541 O546 2.121 . S
Mn541 N548 2.257 . S
Mn541 N557 2.282 . S
Mn541 O565 2.215 . S
Mn541 O567 2.117 . S
C542 O564 1.234 . S
C542 O565 1.283 . S
C543 O555 1.281 . S
C543 O556 1.236 . S
C544 O566 1.240 . S
C544 O567 1.264 . S
O545 Mn540 2.095 . S
O545 C554 1.250 . S
O546 Mn541 2.121 . S
O546 C554 1.258 . S
C547 N548 1.326 . S
C547 C551 1.460 . S
C547 H553 0.929 . S
N548 Mn541 2.257 . S
N548 C547 1.326 . S
N548 C552 1.362 . S
C549 C550 1.258 . S
C549 C552 1.431 . S
C549 C569 1.449 . S
C550 C549 1.258 . S
C550 C551 1.477 . S
C550 H570 0.931 . S
C551 C547 1.460 . S
C551 C550 1.477 . S
C551 H571 0.930 . S
C552 N548 1.362 . S
C552 C549 1.431 . S
C552 C562 1.476 . S
H553 C547 0.929 . S
C554 O545 1.250 . S
C554 O546 1.258 . S
O555 Mn540 2.162 . S
O555 C543 1.281 . S
O556 Mn540 2.297 . S
O556 C543 1.236 . S
N557 Mn541 2.282 . S
N557 C558 1.328 . S
N557 C562 1.318 . S
C558 N557 1.328 . S
C558 C559 1.457 . S
C558 H563 0.929 . S
C559 C558 1.457 . S
C559 C560 1.291 . S
C559 H572 0.931 . S
C560 C559 1.291 . S
C560 C561 1.373 . S
C560 H573 0.929 . S
C561 C560 1.373 . S
C561 C562 1.396 . S
C561 C568 1.403 . S
C562 C552 1.476 . S
C562 N557 1.318 . S
C562 C561 1.396 . S
H563 C558 0.929 . S
O564 Mn540 2.385 . S
O564 C542 1.234 . S
O565 Mn540 2.209 . S
O565 Mn541 2.215 . S
O565 C542 1.283 . S
O566 Mn540 2.094 . S
O566 C544 1.240 . S
O567 Mn541 2.117 . S
O567 C544 1.264 . S
C568 C561 1.403 . S
C568 C569 1.399 . S
C568 H574 0.929 . S
C569 C549 1.449 . S
C569 C568 1.399 . S
C569 H575 0.930 . S
H570 C550 0.931 . S
H571 C551 0.930 . S
H572 C559 0.931 . S
H573 C560 0.929 . S
H574 C568 0.929 . S
H575 C569 0.930 . S
H576 C582 0.930 . S
H577 C585 0.930 . S
H578 C586 0.930 . S
H579 C587 0.930 . S
H580 C590 0.930 . S
H581 C591 0.930 . S
C582 H576 0.930 . S
C582 C583 1.355 . S
C582 C584 1.415 . S
C583 C582 1.355 . S
C583 C585 1.419 . S
C584 C582 1.415 . S
C584 C589 1.425 . S
C584 C591 1.409 . S
C585 H577 0.930 . S
C585 C583 1.419 . S
C585 C586 1.362 . S
C586 H578 0.930 . S
C586 C585 1.362 . S
C586 C589 1.409 . S
C587 H579 0.930 . S
C587 C588 1.355 . S
C587 C589 1.415 . S
C588 C587 1.355 . S
C588 C590 1.419 . S
C589 C584 1.425 . S
C589 C586 1.409 . S
C589 C587 1.415 . S
C590 H580 0.930 . S
C590 C588 1.419 . S
C590 C591 1.362 . S
C591 H581 0.930 . S
C591 C584 1.409 . S
C591 C590 1.362 . S
H592 C598 0.930 . S
H593 C601 0.930 . S
H594 C602 0.930 . S
H595 C603 0.930 . S
H596 C606 0.930 . S
H597 C607 0.930 . S
C598 H592 0.930 . S
C598 C599 1.355 . S
C598 C600 1.415 . S
C599 C598 1.355 . S
C599 C601 1.419 . S
C600 C598 1.415 . S
C600 C605 1.425 . S
C600 C607 1.409 . S
C601 H593 0.930 . S
C601 C599 1.419 . S
C601 C602 1.362 . S
C602 H594 0.930 . S
C602 C601 1.362 . S
C602 C605 1.409 . S
C603 H595 0.930 . S
C603 C604 1.355 . S
C603 C605 1.415 . S
C604 C603 1.355 . S
C604 C606 1.419 . S
C605 C600 1.425 . S
C605 C602 1.409 . S
C605 C603 1.415 . S
C606 H596 0.930 . S
C606 C604 1.419 . S
C606 C607 1.362 . S
C607 H597 0.930 . S
C607 C600 1.409 . S
C607 C606 1.362 . S
H608 C614 0.930 . S
H609 C617 0.930 . S
H610 C618 0.930 . S
H611 C619 0.930 . S
H612 C622 0.930 . S
H613 C623 0.930 . S
C614 H608 0.930 . S
C614 C615 1.355 . S
C614 C616 1.415 . S
C615 C614 1.355 . S
C615 C617 1.419 . S
C616 C614 1.415 . S
C616 C621 1.425 . S
C616 C623 1.409 . S
C617 H609 0.930 . S
C617 C615 1.419 . S
C617 C618 1.362 . S
C618 H610 0.930 . S
C618 C617 1.362 . S
C618 C621 1.409 . S
C619 H611 0.930 . S
C619 C620 1.355 . S
C619 C621 1.415 . S
C620 C619 1.355 . S
C620 C622 1.419 . S
C621 C616 1.425 . S
C621 C618 1.409 . S
C621 C619 1.415 . S
C622 H612 0.930 . S
C622 C620 1.419 . S
C622 C623 1.362 . S
C623 H613 0.930 . S
C623 C616 1.409 . S
C623 C622 1.362 . S
H624 C630 0.930 . S
H625 C633 0.930 . S
H626 C634 0.930 . S
H627 C635 0.930 . S
H628 C638 0.930 . S
H629 C639 0.930 . S
C630 H624 0.930 . S
C630 C631 1.355 . S
C630 C632 1.415 . S
C631 C630 1.355 . S
C631 C633 1.419 . S
C632 C630 1.415 . S
C632 C637 1.425 1_455 S
C632 C639 1.409 1_455 S
C633 H625 0.930 . S
C633 C631 1.419 . S
C633 C634 1.362 . S
C634 H626 0.930 . S
C634 C633 1.362 . S
C634 C637 1.409 1_455 S
C635 H627 0.930 . S
C635 C636 1.355 . S
C635 C637 1.415 . S
C636 C635 1.355 . S
C636 C638 1.419 . S
C637 C632 1.425 1_655 S
C637 C634 1.409 1_655 S
C637 C635 1.415 . S
C638 H628 0.930 . S
C638 C636 1.419 . S
C638 C639 1.362 . S
C639 H629 0.930 . S
C639 C632 1.409 1_655 S
C639 C638 1.362 . S
H640 C646 0.930 . S
H641 C649 0.930 . S
H642 C650 0.930 . S
H643 C651 0.930 . S
H644 C654 0.930 . S
H645 C655 0.930 . S
C646 H640 0.930 . S
C646 C647 1.355 . S
C646 C648 1.415 . S
C647 C646 1.355 . S
C647 C649 1.419 . S
C648 C646 1.415 . S
C648 C653 1.425 . S
C648 C655 1.409 . S
C649 H641 0.930 . S
C649 C647 1.419 . S
C649 C650 1.362 . S
C650 H642 0.930 . S
C650 C649 1.362 . S
C650 C653 1.409 . S
C651 H643 0.930 . S
C651 C652 1.355 . S
C651 C653 1.415 . S
C652 C651 1.355 . S
C652 C654 1.419 . S
C653 C648 1.425 . S
C653 C650 1.409 . S
C653 C651 1.415 . S
C654 H644 0.930 . S
C654 C652 1.419 . S
C654 C655 1.362 . S
C655 H645 0.930 . S
C655 C648 1.409 . S
C655 C654 1.362 . S
H656 C662 0.930 . S
H657 C665 0.930 . S
H658 C666 0.930 . S
H659 C667 0.930 . S
H660 C670 0.930 . S
H661 C671 0.930 . S
C662 H656 0.930 . S
C662 C663 1.355 . S
C662 C664 1.415 . S
C663 C662 1.355 . S
C663 C665 1.419 . S
C664 C662 1.415 . S
C664 C669 1.425 1_655 S
C664 C671 1.409 1_655 S
C665 H657 0.930 . S
C665 C663 1.419 . S
C665 C666 1.362 . S
C666 H658 0.930 . S
C666 C665 1.362 . S
C666 C669 1.409 1_655 S
C667 H659 0.930 . S
C667 C668 1.355 . S
C667 C669 1.415 . S
C668 C667 1.355 . S
C668 C670 1.419 . S
C669 C664 1.425 1_455 S
C669 C666 1.409 1_455 S
C669 C667 1.415 . S
C670 H660 0.930 . S
C670 C668 1.419 . S
C670 C671 1.362 . S
C671 H661 0.930 . S
C671 C664 1.409 1_455 S
C671 C670 1.362 . S
H672 C678 0.930 . S
H673 C681 0.930 . S
H674 C682 0.930 . S
H675 C683 0.930 . S
H676 C686 0.930 . S
H677 C687 0.930 . S
C678 H672 0.930 . S
C678 C679 1.355 . S
C678 C680 1.415 . S
C679 C678 1.355 . S
C679 C681 1.419 . S
C680 C678 1.415 . S
C680 C685 1.425 . S
C680 C687 1.409 . S
C681 H673 0.930 . S
C681 C679 1.419 . S
C681 C682 1.362 . S
C682 H674 0.930 . S
C682 C681 1.362 . S
C682 C685 1.409 . S
C683 H675 0.930 . S
C683 C684 1.355 . S
C683 C685 1.415 . S
C684 C683 1.355 . S
C684 C686 1.419 . S
C685 C680 1.425 . S
C685 C682 1.409 . S
C685 C683 1.415 . S
C686 H676 0.930 . S
C686 C684 1.419 . S
C686 C687 1.362 . S
C687 H677 0.930 . S
C687 C680 1.409 . S
C687 C686 1.362 . S
H688 C694 0.930 . S
H689 C697 0.930 . S
H690 C698 0.930 . S
H691 C699 0.930 . S
H692 C702 0.930 . S
H693 C703 0.930 . S
C694 H688 0.930 . S
C694 C695 1.355 . S
C694 C696 1.415 . S
C695 C694 1.355 . S
C695 C697 1.419 . S
C696 C694 1.415 . S
C696 C701 1.425 . S
C696 C703 1.409 . S
C697 H689 0.930 . S
C697 C695 1.419 . S
C697 C698 1.362 . S
C698 H690 0.930 . S
C698 C697 1.362 . S
C698 C701 1.409 . S
C699 H691 0.930 . S
C699 C700 1.355 . S
C699 C701 1.415 . S
C700 C699 1.355 . S
C700 C702 1.419 . S
C701 C696 1.425 . S
C701 C698 1.409 . S
C701 C699 1.415 . S
C702 H692 0.930 . S
C702 C700 1.419 . S
C702 C703 1.362 . S
C703 H693 0.930 . S
C703 C696 1.409 . S
C703 C702 1.362 . S
H704 C710 0.930 . S
H705 C713 0.930 . S
H706 C714 0.930 . S
H707 C715 0.930 . S
H708 C718 0.930 . S
H709 C719 0.930 . S
C710 H704 0.930 . S
C710 C711 1.355 . S
C710 C712 1.415 . S
C711 C710 1.355 . S
C711 C713 1.419 . S
C712 C710 1.415 . S
C712 C717 1.425 . S
C712 C719 1.409 . S
C713 H705 0.930 . S
C713 C711 1.419 . S
C713 C714 1.362 . S
C714 H706 0.930 . S
C714 C713 1.362 . S
C714 C717 1.409 . S
C715 H707 0.930 . S
C715 C716 1.355 . S
C715 C717 1.415 . S
C716 C715 1.355 . S
C716 C718 1.419 . S
C717 C712 1.425 . S
C717 C714 1.409 . S
C717 C715 1.415 . S
C718 H708 0.930 . S
C718 C716 1.419 . S
C718 C719 1.362 . S
C719 H709 0.930 . S
C719 C712 1.409 . S
C719 C718 1.362 . S
H720 C726 0.930 . S
H721 C729 0.930 . S
H722 C730 0.930 . S
H723 C731 0.930 . S
H724 C734 0.930 . S
H725 C735 0.930 . S
C726 H720 0.930 . S
C726 C727 1.355 . S
C726 C728 1.415 . S
C727 C726 1.355 . S
C727 C729 1.419 . S
C728 C726 1.415 . S
C728 C733 1.425 . S
C728 C735 1.409 . S
C729 H721 0.930 . S
C729 C727 1.419 . S
C729 C730 1.362 . S
C730 H722 0.930 . S
C730 C729 1.362 . S
C730 C733 1.409 . S
C731 H723 0.930 . S
C731 C732 1.355 . S
C731 C733 1.415 . S
C732 C731 1.355 . S
C732 C734 1.419 . S
C733 C728 1.425 . S
C733 C730 1.409 . S
C733 C731 1.415 . S
C734 H724 0.930 . S
C734 C732 1.419 . S
C734 C735 1.362 . S
C735 H725 0.930 . S
C735 C728 1.409 . S
C735 C734 1.362 . S
H736 C742 0.930 . S
H737 C745 0.930 . S
H738 C746 0.930 . S
H739 C747 0.930 . S
H740 C750 0.930 . S
H741 C751 0.930 . S
C742 H736 0.930 . S
C742 C743 1.355 . S
C742 C744 1.415 . S
C743 C742 1.355 . S
C743 C745 1.419 . S
C744 C742 1.415 . S
C744 C749 1.425 . S
C744 C751 1.409 . S
C745 H737 0.930 . S
C745 C743 1.419 . S
C745 C746 1.362 . S
C746 H738 0.930 . S
C746 C745 1.362 . S
C746 C749 1.409 . S
C747 H739 0.930 . S
C747 C748 1.355 . S
C747 C749 1.415 . S
C748 C747 1.355 . S
C748 C750 1.419 . S
C749 C744 1.425 . S
C749 C746 1.409 . S
C749 C747 1.415 . S
C750 H740 0.930 . S
C750 C748 1.419 . S
C750 C751 1.362 . S
C751 H741 0.930 . S
C751 C744 1.409 . S
C751 C750 1.362 . S
H752 C758 0.930 . S
H753 C761 0.930 . S
H754 C762 0.930 . S
H755 C763 0.930 . S
H756 C766 0.930 . S
H757 C767 0.930 . S
C758 H752 0.930 . S
C758 C759 1.355 . S
C758 C760 1.415 . S
C759 C758 1.355 . S
C759 C761 1.419 . S
C760 C758 1.415 . S
C760 C765 1.425 . S
C760 C767 1.409 . S
C761 H753 0.930 . S
C761 C759 1.419 . S
C761 C762 1.362 . S
C762 H754 0.930 . S
C762 C761 1.362 . S
C762 C765 1.409 . S
C763 H755 0.930 . S
C763 C764 1.355 . S
C763 C765 1.415 . S
C764 C763 1.355 . S
C764 C766 1.419 . S
C765 C760 1.425 . S
C765 C762 1.409 . S
C765 C763 1.415 . S
C766 H756 0.930 . S
C766 C764 1.419 . S
C766 C767 1.362 . S
C767 H757 0.930 . S
C767 C760 1.409 . S
C767 C766 1.362 . S
H768 C774 0.930 . S
H769 C777 0.930 . S
H770 C778 0.924 1_655 S
H771 C779 0.930 . S
H772 C782 0.930 . S
H773 C783 0.930 . S
C774 H768 0.930 . S
C774 C775 1.355 . S
C774 C776 1.415 1_455 S
C775 C774 1.355 . S
C775 C777 1.419 . S
C776 C774 1.415 1_655 S
C776 C781 1.425 . S
C776 C783 1.409 . S
C777 H769 0.930 . S
C777 C775 1.419 . S
C777 C778 1.362 . S
C778 H770 0.924 1_455 S
C778 C777 1.362 . S
C778 C781 1.409 1_455 S
C779 H771 0.930 . S
C779 C780 1.355 . S
C779 C781 1.415 . S
C780 C779 1.355 . S
C780 C782 1.419 . S
C781 C776 1.425 . S
C781 C778 1.409 1_655 S
C781 C779 1.415 . S
C782 H772 0.930 . S
C782 C780 1.419 . S
C782 C783 1.362 . S
C783 H773 0.930 . S
C783 C776 1.409 . S
C783 C782 1.362 . S
H784 C790 0.930 . S
H785 C793 0.930 . S
H786 C794 0.930 . S
H787 C795 0.930 . S
H788 C798 0.930 . S
H789 C799 0.930 . S
C790 H784 0.930 . S
C790 C791 1.355 . S
C790 C792 1.415 . S
C791 C790 1.355 . S
C791 C793 1.419 . S
C792 C790 1.415 . S
C792 C797 1.425 . S
C792 C799 1.409 . S
C793 H785 0.930 . S
C793 C791 1.419 . S
C793 C794 1.362 . S
C794 H786 0.930 . S
C794 C793 1.362 . S
C794 C797 1.409 . S
C795 H787 0.930 . S
C795 C796 1.355 . S
C795 C797 1.415 . S
C796 C795 1.355 . S
C796 C798 1.419 . S
C797 C792 1.425 . S
C797 C794 1.409 . S
C797 C795 1.415 . S
C798 H788 0.930 . S
C798 C796 1.419 . S
C798 C799 1.362 . S
C799 H789 0.930 . S
C799 C792 1.409 . S
C799 C798 1.362 . S
H800 C806 0.930 . S
H801 C809 0.930 . S
H802 C810 0.930 . S
H803 C811 0.930 . S
H804 C814 0.930 . S
H805 C815 0.930 . S
C806 H800 0.930 . S
C806 C807 1.355 . S
C806 C808 1.415 . S
C807 C806 1.355 . S
C807 C809 1.419 . S
C808 C806 1.415 . S
C808 C813 1.425 . S
C808 C815 1.409 . S
C809 H801 0.930 . S
C809 C807 1.419 . S
C809 C810 1.362 . S
C810 H802 0.930 . S
C810 C809 1.362 . S
C810 C813 1.409 . S
C811 H803 0.930 . S
C811 C812 1.355 . S
C811 C813 1.415 . S
C812 C811 1.355 . S
C812 C814 1.419 . S
C813 C808 1.425 . S
C813 C810 1.409 . S
C813 C811 1.415 . S
C814 H804 0.930 . S
C814 C812 1.419 . S
C814 C815 1.362 . S
C815 H805 0.930 . S
C815 C808 1.409 . S
C815 C814 1.362 . S
H816 C822 0.930 . S
H817 C825 0.930 . S
H818 C826 0.930 . S
H819 C827 0.930 . S
H820 C830 0.930 . S
H821 C831 0.930 . S
C822 H816 0.930 . S
C822 C823 1.355 . S
C822 C824 1.415 . S
C823 C822 1.355 . S
C823 C825 1.419 . S
C824 C822 1.415 . S
C824 C829 1.425 . S
C824 C831 1.409 1_455 S
C825 H817 0.930 . S
C825 C823 1.419 . S
C825 C826 1.362 . S
C826 H818 0.930 . S
C826 C825 1.362 . S
C826 C829 1.409 . S
C827 H819 0.930 . S
C827 C828 1.355 . S
C827 C829 1.415 1_655 S
C828 C827 1.355 . S
C828 C830 1.419 . S
C829 C824 1.425 . S
C829 C826 1.409 . S
C829 C827 1.415 1_455 S
C830 H820 0.930 . S
C830 C828 1.419 . S
C830 C831 1.362 . S
C831 H821 0.930 . S
C831 C824 1.409 1_655 S
C831 C830 1.362 . S
H832 C838 0.930 . S
H833 C841 0.930 . S
H834 C842 0.930 . S
H835 C843 0.930 . S
H836 C846 0.923 1_554 S
H837 C847 0.930 . S
C838 H832 0.930 . S
C838 C839 1.355 . S
C838 C840 1.415 . S
C839 C838 1.355 . S
C839 C841 1.419 1_554 S
C840 C838 1.415 . S
C840 C845 1.425 1_554 S
C840 C847 1.409 . S
C841 H833 0.930 . S
C841 C839 1.419 1_556 S
C841 C842 1.362 . S
C842 H834 0.930 . S
C842 C841 1.362 . S
C842 C845 1.409 . S
C843 H835 0.930 . S
C843 C844 1.355 . S
C843 C845 1.415 . S
C844 C843 1.355 . S
C844 C846 1.419 . S
C845 C840 1.425 1_556 S
C845 C842 1.409 . S
C845 C843 1.415 . S
C846 H836 0.923 1_556 S
C846 C844 1.419 . S
C846 C847 1.362 1_556 S
C847 H837 0.930 . S
C847 C840 1.409 . S
C847 C846 1.362 1_554 S
H848 C854 0.930 . S
H849 C857 0.930 . S
H850 C858 0.930 . S
H851 C859 0.930 . S
H852 C862 0.930 . S
H853 C863 0.930 . S
C854 H848 0.930 . S
C854 C855 1.355 . S
C854 C856 1.415 . S
C855 C854 1.355 . S
C855 C857 1.419 . S
C856 C854 1.415 . S
C856 C861 1.425 . S
C856 C863 1.409 . S
C857 H849 0.930 . S
C857 C855 1.419 . S
C857 C858 1.362 . S
C858 H850 0.930 . S
C858 C857 1.362 . S
C858 C861 1.409 . S
C859 H851 0.930 . S
C859 C860 1.355 . S
C859 C861 1.415 . S
C860 C859 1.355 . S
C860 C862 1.419 . S
C861 C856 1.425 . S
C861 C858 1.409 . S
C861 C859 1.415 . S
C862 H852 0.930 . S
C862 C860 1.419 . S
C862 C863 1.362 . S
C863 H853 0.930 . S
C863 C856 1.409 . S
C863 C862 1.362 . S
H864 C870 0.930 . S
H865 C873 0.930 . S
H866 C874 0.930 . S
H867 C875 0.930 . S
H868 C878 0.930 . S
H869 C879 0.930 . S
C870 H864 0.930 . S
C870 C871 1.355 . S
C870 C872 1.415 . S
C871 C870 1.355 . S
C871 C873 1.419 . S
C872 C870 1.415 . S
C872 C877 1.425 . S
C872 C879 1.409 . S
C873 H865 0.930 . S
C873 C871 1.419 . S
C873 C874 1.362 . S
C874 H866 0.930 . S
C874 C873 1.362 . S
C874 C877 1.409 . S
C875 H867 0.930 . S
C875 C876 1.355 . S
C875 C877 1.415 . S
C876 C875 1.355 . S
C876 C878 1.419 . S
C877 C872 1.425 . S
C877 C874 1.409 . S
C877 C875 1.415 . S
C878 H868 0.930 . S
C878 C876 1.419 . S
C878 C879 1.362 . S
C879 H869 0.930 . S
C879 C872 1.409 . S
C879 C878 1.362 . S
H880 C886 0.930 . S
H881 C889 0.930 . S
H882 C890 0.930 . S
H883 C891 0.930 . S
H884 C894 0.930 . S
H885 C895 0.930 . S
C886 H880 0.930 . S
C886 C887 1.355 . S
C886 C888 1.415 . S
C887 C886 1.355 . S
C887 C889 1.419 . S
C888 C886 1.415 . S
C888 C893 1.425 . S
C888 C895 1.409 . S
C889 H881 0.930 . S
C889 C887 1.419 . S
C889 C890 1.362 . S
C890 H882 0.930 . S
C890 C889 1.362 . S
C890 C893 1.409 . S
C891 H883 0.930 . S
C891 C892 1.355 . S
C891 C893 1.415 . S
C892 C891 1.355 . S
C892 C894 1.419 . S
C893 C888 1.425 . S
C893 C890 1.409 . S
C893 C891 1.415 . S
C894 H884 0.930 . S
C894 C892 1.419 . S
C894 C895 1.362 . S
C895 H885 0.930 . S
C895 C888 1.409 . S
C895 C894 1.362 . S
H896 C902 0.930 . S
H897 C905 0.930 . S
H898 C906 0.930 . S
H899 C907 0.930 . S
H900 C910 0.930 1_556 S
H901 C911 0.930 . S
C902 H896 0.930 . S
C902 C903 1.355 . S
C902 C904 1.415 . S
C903 C902 1.355 . S
C903 C905 1.419 1_556 S
C904 C902 1.415 . S
C904 C909 1.425 1_556 S
C904 C911 1.409 . S
C905 H897 0.930 . S
C905 C903 1.419 1_554 S
C905 C906 1.362 . S
C906 H898 0.930 . S
C906 C905 1.362 . S
C906 C909 1.409 . S
C907 H899 0.930 . S
C907 C908 1.355 . S
C907 C909 1.415 . S
C908 C907 1.355 . S
C908 C910 1.419 . S
C909 C904 1.425 1_554 S
C909 C906 1.409 . S
C909 C907 1.415 . S
C910 H900 0.930 1_554 S
C910 C908 1.419 . S
C910 C911 1.362 1_554 S
C911 H901 0.930 . S
C911 C904 1.409 . S
C911 C910 1.362 1_556 S
H912 C918 0.930 . S
H913 C921 0.930 . S
H914 C922 0.930 . S
H915 C923 0.930 . S
H916 C926 0.930 . S
H917 C927 0.930 . S
C918 H912 0.930 . S
C918 C919 1.355 . S
C918 C920 1.415 . S
C919 C918 1.355 . S
C919 C921 1.419 . S
C920 C918 1.415 . S
C920 C925 1.425 . S
C920 C927 1.409 . S
C921 H913 0.930 . S
C921 C919 1.419 . S
C921 C922 1.362 . S
C922 H914 0.930 . S
C922 C921 1.362 . S
C922 C925 1.409 . S
C923 H915 0.930 . S
C923 C924 1.355 . S
C923 C925 1.415 . S
C924 C923 1.355 . S
C924 C926 1.419 . S
C925 C920 1.425 . S
C925 C922 1.409 . S
C925 C923 1.415 . S
C926 H916 0.930 . S
C926 C924 1.419 . S
C926 C927 1.362 . S
C927 H917 0.930 . S
C927 C920 1.409 . S
C927 C926 1.362 . S
H928 C934 0.930 . S
H929 C937 0.930 . S
H930 C938 0.930 . S
H931 C939 0.930 . S
H932 C942 0.930 . S
H933 C943 0.930 . S
C934 H928 0.930 . S
C934 C935 1.355 . S
C934 C936 1.415 . S
C935 C934 1.355 . S
C935 C937 1.419 . S
C936 C934 1.415 . S
C936 C941 1.425 . S
C936 C943 1.409 . S
C937 H929 0.930 . S
C937 C935 1.419 . S
C937 C938 1.362 . S
C938 H930 0.930 . S
C938 C937 1.362 . S
C938 C941 1.409 . S
C939 H931 0.930 . S
C939 C940 1.355 . S
C939 C941 1.415 . S
C940 C939 1.355 . S
C940 C942 1.419 . S
C941 C936 1.425 . S
C941 C938 1.409 . S
C941 C939 1.415 . S
C942 H932 0.930 . S
C942 C940 1.419 . S
C942 C943 1.362 . S
C943 H933 0.930 . S
C943 C936 1.409 . S
C943 C942 1.362 . S
H944 C950 0.930 . S
H945 C953 0.930 . S
H946 C954 0.930 . S
H947 C955 0.930 . S
H948 C958 0.930 . S
H949 C959 0.930 . S
C950 H944 0.930 . S
C950 C951 1.355 . S
C950 C952 1.415 . S
C951 C950 1.355 . S
C951 C953 1.419 . S
C952 C950 1.415 . S
C952 C957 1.425 . S
C952 C959 1.409 . S
C953 H945 0.930 . S
C953 C951 1.419 . S
C953 C954 1.362 . S
C954 H946 0.930 . S
C954 C953 1.362 . S
C954 C957 1.409 . S
C955 H947 0.930 . S
C955 C956 1.355 . S
C955 C957 1.415 . S
C956 C955 1.355 . S
C956 C958 1.419 . S
C957 C952 1.425 . S
C957 C954 1.409 . S
C957 C955 1.415 . S
C958 H948 0.930 . S
C958 C956 1.419 . S
C958 C959 1.362 . S
C959 H949 0.930 . S
C959 C952 1.409 . S
C959 C958 1.362 . S
H960 C966 0.930 . S
H961 C969 0.930 . S
H962 C970 0.930 . S
H963 C971 0.930 . S
H964 C974 0.930 . S
H965 C975 0.922 1_545 S
C966 H960 0.930 . S
C966 C967 1.355 . S
C966 C968 1.415 . S
C967 C966 1.355 . S
C967 C969 1.419 . S
C968 C966 1.415 . S
C968 C973 1.425 1_545 S
C968 C975 1.406 1_545 S
C969 H961 0.930 . S
C969 C967 1.419 . S
C969 C970 1.362 1_545 S
C970 H962 0.930 . S
C970 C969 1.362 1_565 S
C970 C973 1.409 . S
C971 H963 0.930 . S
C971 C972 1.355 . S
C971 C973 1.415 . S
C972 C971 1.355 . S
C972 C974 1.419 . S
C973 C968 1.425 1_565 S
C973 C970 1.409 . S
C973 C971 1.415 . S
C974 H964 0.930 . S
C974 C972 1.419 . S
C974 C975 1.373 . S
C975 H965 0.922 1_565 S
C975 C968 1.406 1_565 S
C975 C974 1.373 . S
H976 C982 0.930 . S
H977 C985 0.930 . S
H978 C986 0.930 . S
H979 C987 0.930 . S
H980 C990 0.930 . S
H981 C991 0.930 . S
C982 H976 0.930 . S
C982 C983 1.355 . S
C982 C984 1.415 . S
C983 C982 1.355 . S
C983 C985 1.419 . S
C984 C982 1.415 . S
C984 C989 1.425 . S
C984 C991 1.409 . S
C985 H977 0.930 . S
C985 C983 1.419 . S
C985 C986 1.362 . S
C986 H978 0.930 . S
C986 C985 1.362 . S
C986 C989 1.409 . S
C987 H979 0.930 . S
C987 C988 1.355 . S
C987 C989 1.415 . S
C988 C987 1.355 . S
C988 C990 1.419 . S
C989 C984 1.425 . S
C989 C986 1.409 . S
C989 C987 1.415 . S
C990 H980 0.930 . S
C990 C988 1.419 . S
C990 C991 1.362 . S
C991 H981 0.930 . S
C991 C984 1.409 . S
C991 C990 1.362 . S
H992 C998 0.930 1_554 S
H993 C1001 0.930 . S
H994 C1002 0.930 . S
H995 C1003 0.930 . S
H996 C1006 0.930 . S
H997 C1007 0.930 1_545 S
C998 H992 0.930 1_556 S
C998 C999 1.355 . S
C998 C1000 1.415 1_556 S
C999 C998 1.355 . S
C999 C1001 1.419 . S
C1000 C998 1.415 1_554 S
C1000 C1005 1.425 1_544 S
C1000 C1007 1.409 1_545 S
C1001 H993 0.930 . S
C1001 C999 1.419 . S
C1001 C1002 1.362 1_545 S
C1002 H994 0.930 . S
C1002 C1001 1.362 1_565 S
C1002 C1005 1.409 . S
C1003 H995 0.930 . S
C1003 C1004 1.355 1_556 S
C1003 C1005 1.415 . S
C1004 C1003 1.355 1_554 S
C1004 C1006 1.419 . S
C1005 C1000 1.425 1_566 S
C1005 C1002 1.409 . S
C1005 C1003 1.415 . S
C1006 H996 0.930 . S
C1006 C1004 1.419 . S
C1006 C1007 1.362 . S
C1007 H997 0.930 1_565 S
C1007 C1000 1.409 1_565 S
C1007 C1006 1.362 . S
H1008 C1014 0.930 . S
H1009 C1017 0.930 . S
H1010 C1018 0.930 . S
H1011 C1019 0.930 . S
H1012 C1022 0.930 . S
H1013 C1023 0.930 . S
C1014 H1008 0.930 . S
C1014 C1015 1.355 . S
C1014 C1016 1.415 . S
C1015 C1014 1.355 . S
C1015 C1017 1.419 . S
C1016 C1014 1.415 . S
C1016 C1021 1.425 . S
C1016 C1023 1.409 . S
C1017 H1009 0.930 . S
C1017 C1015 1.419 . S
C1017 C1018 1.362 . S
C1018 H1010 0.930 . S
C1018 C1017 1.362 . S
C1018 C1021 1.409 . S
C1019 H1011 0.930 . S
C1019 C1020 1.355 . S
C1019 C1021 1.415 . S
C1020 C1019 1.355 . S
C1020 C1022 1.419 . S
C1021 C1016 1.425 . S
C1021 C1018 1.409 . S
C1021 C1019 1.415 . S
C1022 H1012 0.930 . S
C1022 C1020 1.419 . S
C1022 C1023 1.362 . S
C1023 H1013 0.930 . S
C1023 C1016 1.409 . S
C1023 C1022 1.362 . S
H1024 C1030 0.930 . S
H1025 C1033 0.930 . S
H1026 C1034 0.930 . S
H1027 C1035 0.930 . S
H1028 C1038 0.930 . S
H1029 C1039 0.930 . S
C1030 H1024 0.930 . S
C1030 C1031 1.355 . S
C1030 C1032 1.415 . S
C1031 C1030 1.355 . S
C1031 C1033 1.419 . S
C1032 C1030 1.415 . S
C1032 C1037 1.425 1_545 S
C1032 C1039 1.409 1_545 S
C1033 H1025 0.930 . S
C1033 C1031 1.419 . S
C1033 C1034 1.362 . S
C1034 H1026 0.930 . S
C1034 C1033 1.362 . S
C1034 C1037 1.409 1_545 S
C1035 H1027 0.930 . S
C1035 C1036 1.355 . S
C1035 C1037 1.415 . S
C1036 C1035 1.355 . S
C1036 C1038 1.419 . S
C1037 C1032 1.425 1_565 S
C1037 C1034 1.409 1_565 S
C1037 C1035 1.415 . S
C1038 H1028 0.930 . S
C1038 C1036 1.419 . S
C1038 C1039 1.362 . S
C1039 H1029 0.930 . S
C1039 C1032 1.409 1_565 S
C1039 C1038 1.362 . S
H1040 C1046 0.930 . S
H1041 C1049 0.930 . S
H1042 C1050 0.930 . S
H1043 C1051 0.930 . S
H1044 C1054 0.930 . S
H1045 C1055 0.930 . S
C1046 H1040 0.930 . S
C1046 C1047 1.355 . S
C1046 C1048 1.415 . S
C1047 C1046 1.355 . S
C1047 C1049 1.419 . S
C1048 C1046 1.415 . S
C1048 C1053 1.425 . S
C1048 C1055 1.409 . S
C1049 H1041 0.930 . S
C1049 C1047 1.419 . S
C1049 C1050 1.362 . S
C1050 H1042 0.930 . S
C1050 C1049 1.362 . S
C1050 C1053 1.409 . S
C1051 H1043 0.930 . S
C1051 C1052 1.355 . S
C1051 C1053 1.415 . S
C1052 C1051 1.355 . S
C1052 C1054 1.419 . S
C1053 C1048 1.425 . S
C1053 C1050 1.409 . S
C1053 C1051 1.415 . S
C1054 H1044 0.930 . S
C1054 C1052 1.419 . S
C1054 C1055 1.362 . S
C1055 H1045 0.930 . S
C1055 C1048 1.409 . S
C1055 C1054 1.362 . S
H1056 C1062 0.930 . S
H1057 C1065 0.930 . S
H1058 C1066 0.930 . S
H1059 C1067 0.930 . S
H1060 C1070 0.930 . S
H1061 C1071 0.930 . S
C1062 H1056 0.930 . S
C1062 C1063 1.355 . S
C1062 C1064 1.415 1_565 S
C1063 C1062 1.355 . S
C1063 C1065 1.419 . S
C1064 C1062 1.415 1_545 S
C1064 C1069 1.425 1_554 S
C1064 C1071 1.409 . S
C1065 H1057 0.930 . S
C1065 C1063 1.419 . S
C1065 C1066 1.362 1_554 S
C1066 H1058 0.930 . S
C1066 C1065 1.362 1_556 S
C1066 C1069 1.409 1_565 S
C1067 H1059 0.930 . S
C1067 C1068 1.355 . S
C1067 C1069 1.415 . S
C1068 C1067 1.355 . S
C1068 C1070 1.419 . S
C1069 C1064 1.425 1_556 S
C1069 C1066 1.409 1_545 S
C1069 C1067 1.415 . S
C1070 H1060 0.930 . S
C1070 C1068 1.419 . S
C1070 C1071 1.362 1_556 S
C1071 H1061 0.930 . S
C1071 C1064 1.409 . S
C1071 C1070 1.362 1_554 S
H1072 C1078 0.930 . S
H1073 C1081 0.930 . S
H1074 C1082 0.930 . S
H1075 C1083 0.930 . S
H1076 C1086 0.930 . S
H1077 C1087 0.930 . S
C1078 H1072 0.930 . S
C1078 C1079 1.355 . S
C1078 C1080 1.415 . S
C1079 C1078 1.355 . S
C1079 C1081 1.419 . S
C1080 C1078 1.415 . S
C1080 C1085 1.425 . S
C1080 C1087 1.409 . S
C1081 H1073 0.930 . S
C1081 C1079 1.419 . S
C1081 C1082 1.362 . S
C1082 H1074 0.930 . S
C1082 C1081 1.362 . S
C1082 C1085 1.409 . S
C1083 H1075 0.930 . S
C1083 C1084 1.355 . S
C1083 C1085 1.415 . S
C1084 C1083 1.355 . S
C1084 C1086 1.419 . S
C1085 C1080 1.425 . S
C1085 C1082 1.409 . S
C1085 C1083 1.415 . S
C1086 H1076 0.930 . S
C1086 C1084 1.419 . S
C1086 C1087 1.362 . S
C1087 H1077 0.930 . S
C1087 C1080 1.409 . S
C1087 C1086 1.362 . S
C583 C400 1.287 . S
C588 C4 1.277 . S
C599 C544 1.320 . S
C604 C40 1.296 . S
C615 C76 1.436 . S
C620 C326 1.373 . S
C631 C470 1.423 . S
C636 C110 1.432 . S
C647 C146 1.375 . S
C652 C472 1.321 . S
C663 C182 1.360 . S
C668 C398 1.393 . S
C679 C220 1.452 . S
C684 C542 1.377 . S
C695 C254 1.433 . S
C700 C328 1.432 . S
C711 C112 1.288 . S
C716 C292 1.339 . S
C727 C364 1.294 . S
C732 C38 1.314 . S
C743 C434 1.321 . S
C748 C184 1.347 . S
C759 C508 1.327 . S
C764 C256 1.311 . S
C775 C148 1.395 . S
C780 C290 1.413 . S
C791 C362 1.445 . S
C796 C218 1.492 . S
C807 C506 1.437 . S
C812 C74 1.443 . S
C823 C2 1.410 . S
C828 C436 1.380 . S
C839 C3 1.258 . S
C844 C158 1.165 . S
C855 C39 1.316 . S
C860 C194 1.308 . S
C871 C75 1.327 . S
C876 C219 1.326 . S
C887 C266 1.219 . S
C892 C122 1.234 . S
C903 C291 1.230 . S
C908 C446 1.176 . S
C919 C482 1.348 . S
C924 C327 1.364 . S
C935 C363 1.264 . S
C940 C507 1.279 . S
C951 C543 1.298 . S
C956 C410 1.218 . S
C967 C255 1.171 . S
C972 C50 1.155 . S
C983 C86 1.321 . S
C988 C147 1.357 . S
C999 C111 1.266 . S
C1004 C183 1.266 . S
C1015 C14 1.260 . S
C1020 C230 1.295 . S
C1031 C338 1.273 . S
C1036 C554 1.177 . S
C1047 C435 1.341 . S
C1052 C374 1.337 . S
C1063 C399 1.276 . S
C1068 C471 1.265 . S
C1079 C518 1.214 . S
C1084 C302 1.272 . S
