# Generated by pormake.
# Topology hcp, (12)-cn, num edge types: 1
# Building blocks:
#     Node 0, Type 0, BuildingBlock: BOTCEU_clean_sbu_0, # of connection points: 12
#     Node 1, Type 0, BuildingBlock: BOTCEU_clean_sbu_0, # of connection points: 12
#     Edge 2, Type (0, 0), BuildingBlock: XIVTED_clean_linker_0, # of connection points: 2
#     Edge 3, Type (0, 0), BuildingBlock: XIVTED_clean_linker_0, # of connection points: 2
#     Edge 4, Type (0, 0), BuildingBlock: XIVTED_clean_linker_0, # of connection points: 2
#     Edge 5, Type (0, 0), BuildingBlock: XIVTED_clean_linker_0, # of connection points: 2
#     Edge 6, Type (0, 0), BuildingBlock: XIVTED_clean_linker_0, # of connection points: 2
#     Edge 7, Type (0, 0), BuildingBlock: XIVTED_clean_linker_0, # of connection points: 2
#     Edge 8, Type (0, 0), BuildingBlock: XIVTED_clean_linker_0, # of connection points: 2
#     Edge 9, Type (0, 0), BuildingBlock: XIVTED_clean_linker_0, # of connection points: 2
#     Edge 10, Type (0, 0), BuildingBlock: XIVTED_clean_linker_0, # of connection points: 2
#     Edge 11, Type (0, 0), BuildingBlock: XIVTED_clean_linker_0, # of connection points: 2
#     Edge 12, Type (0, 0), BuildingBlock: XIVTED_clean_linker_0, # of connection points: 2
#     Edge 13, Type (0, 0), BuildingBlock: XIVTED_clean_linker_0, # of connection points: 2
# Relax obj value: 0.161
# Max RMSD: 0.246
# Mean RMSD: 0.246
data_MOF--net-hcp--node1-BOTCEU_clean_sbu_0--edge1-XIVTED_clean_linker_0
_symmetry_space_group_name_H-M    P1
_symmetry_Int_Tables_number       1
_symmetry_cell_setting            triclinic
loop_
_symmetry_equiv_pos_as_xyz
'x, y, z'
_cell_length_a     27.164111
_cell_length_b     21.716242
_cell_length_c     42.93173
_cell_angle_alpha  98.045607
_cell_angle_beta   87.294105
_cell_angle_gamma 123.26747
loop_
_atom_site_label
_atom_site_type_symbol
_atom_site_fract_x
_atom_site_fract_y
_atom_site_fract_z
_atom_type_partial_charge
C0 C 0.34339 0.04327 0.27742 0.0
C1 C 0.33819 0.98435 0.28998 0.0
C2 C 0.37221 0.01722 0.31804 0.0
N3 N 0.37675 0.1055 0.29745 0.0
N4 N 0.39382 0.09049 0.32196 0.0
C5 C 0.30992 0.03892 0.24957 0.0
H6 H 0.32863 0.09493 0.24279 0.0
H7 H 0.26308 0.01459 0.25547 0.0
H8 H 0.31153 1.00245 0.22929 0.0
C9 C 0.38483 0.97913 0.33981 0.0
H10 H 0.41665 0.01987 0.35897 0.0
H11 H 0.40352 0.94959 0.32629 0.0
H12 H 0.34339 0.9364 0.3497 0.0
C13 C 0.8594 0.40743 0.12145 0.0
C14 C 0.79613 0.42361 0.09938 0.0
C15 C 0.84943 0.42898 0.09453 0.0
N16 N 0.8143 0.3905 0.14056 0.0
N17 N 0.77702 0.40114 0.12763 0.0
H18 H 0.90829 0.35653 0.11813 0.0
H19 H 0.95298 0.45636 0.1218 0.0
H20 H 0.91605 0.41 0.15575 0.0
C21 C 0.91248 0.40809 0.12994 0.0
H22 H 0.76657 0.4137 0.05227 0.0
H23 H 0.7794 0.49401 0.07821 0.0
H24 H 0.7147 0.40404 0.08264 0.0
C25 C 0.7619 0.43397 0.07674 0.0
C26 C 0.36297 0.23778 0.36211 0.0
C27 C 0.48471 0.222 0.25633 0.0
C28 C 0.68355 0.11315 0.34915 0.0
N29 N 0.71041 0.18152 0.34023 0.0
N30 N 0.72267 0.17705 0.31025 0.0
C31 C 0.67695 0.06294 0.32295 0.0
C32 C 0.703 0.10627 0.2988 0.0
H33 H 0.68499 0.14801 0.39889 0.0
H34 H 0.70534 0.0815 0.38859 0.0
H35 H 0.62959 0.05099 0.38536 0.0
C36 C 0.67532 0.09814 0.38256 0.0
H37 H 0.72148 0.12221 0.25029 0.0
H38 H 0.67755 0.02555 0.25737 0.0
H39 H 0.75524 0.08218 0.26721 0.0
C40 C 0.71465 0.08256 0.2664 0.0
C41 C 0.30603 0.25196 0.25113 0.0
C42 C 0.27877 0.17568 0.28677 0.0
N43 N 0.35265 0.25271 0.26062 0.0
N44 N 0.33636 0.20733 0.28192 0.0
C45 C 0.25767 0.20303 0.26743 0.0
H46 H 0.28846 0.26519 0.20543 0.0
H47 H 0.28367 0.32503 0.23705 0.0
H48 H 0.3553 0.34423 0.22478 0.0
C49 C 0.30885 0.29993 0.22837 0.0
C50 C 0.24459 0.11883 0.30849 0.0
H51 H 0.20039 0.07516 0.2978 0.0
H52 H 0.23832 0.14584 0.33082 0.0
H53 H 0.26862 0.09342 0.31394 0.0
C54 C 0.86445 0.3926 0.34404 0.0
C55 C 0.65376 0.28333 0.33143 0.0
C56 C 0.63218 0.24242 0.10653 0.0
N57 N 0.64254 0.29728 0.12945 0.0
C58 C 0.57368 0.20524 0.09616 0.0
N59 N 0.59425 0.29665 0.13459 0.0
C60 C 0.5509 0.24143 0.11469 0.0
H61 H 0.70147 0.26373 0.07507 0.0
H62 H 0.6576 0.16947 0.08376 0.0
H63 H 0.71081 0.24395 0.11285 0.0
C64 C 0.67807 0.22864 0.09389 0.0
H65 H 0.48412 0.26221 0.12997 0.0
C66 C 0.49256 0.23132 0.11002 0.0
H67 H 0.49228 0.25202 0.08785 0.0
H68 H 0.45675 0.17159 0.10789 0.0
C69 C 0.75004 0.33816 0.4508 0.0
C70 C 0.80287 0.30763 0.42011 0.0
N71 N 0.72493 0.31264 0.42165 0.0
N72 N 0.75691 0.29453 0.40344 0.0
C73 C 0.80139 0.33796 0.4506 0.0
H74 H 0.72022 0.33041 0.49781 0.0
C75 C 0.726 0.36234 0.47837 0.0
H76 H 0.68292 0.3526 0.47199 0.0
H77 H 0.75779 0.4218 0.48722 0.0
H78 H 0.86023 0.26866 0.41948 0.0
H79 H 0.89289 0.3582 0.407 0.0
C80 C 0.85181 0.30197 0.40585 0.0
H81 H 0.84021 0.27506 0.38104 0.0
C82 C 0.71974 0.51991 0.15089 0.0
C83 C 0.67671 0.28041 0.19504 0.0
C84 C 0.91806 0.46632 0.2485 0.0
N85 N 0.86785 0.41251 0.23279 0.0
C86 C 0.94083 0.53019 0.23446 0.0
C87 C 0.90112 0.51004 0.20972 0.0
N88 N 0.8572 0.43828 0.20987 0.0
C89 C 0.94865 0.45356 0.27247 0.0
H90 H 0.91719 0.40276 0.28296 0.0
H91 H 0.9832 0.44699 0.26088 0.0
H92 H 0.97031 0.50149 0.29141 0.0
C93 C 0.90731 0.55627 0.18525 0.0
H94 H 0.86352 0.53563 0.17464 0.0
H95 H 0.929 0.61544 0.19569 0.0
H96 H 0.9354 0.5527 0.16643 0.0
C97 C 0.39511 0.09996 0.41518 0.0
C98 C 0.42621 0.118 0.44388 0.0
C99 C 0.4769 0.1869 0.44164 0.0
N100 N 0.42745 0.15519 0.3972 0.0
N101 N 0.47671 0.20527 0.41327 0.0
H102 H 0.3043 0.02184 0.42233 0.0
H103 H 0.34271 0.98146 0.40459 0.0
H104 H 0.323 0.02976 0.3814 0.0
C105 C 0.33797 0.02912 0.40489 0.0
C106 C 0.53142 0.2248 0.46246 0.0
H107 H 0.52019 0.23071 0.48741 0.0
H108 H 0.55069 0.19069 0.46021 0.0
H109 H 0.56462 0.28057 0.45602 0.0
C110 C 0.80358 0.23249 0.16907 0.0
C111 C 0.744 0.34881 0.27019 0.0
C112 C 0.53863 0.50876 0.23838 0.0
C113 C 0.52223 0.52588 0.26791 0.0
C114 C 0.48031 0.45677 0.27723 0.0
N115 N 0.50816 0.43455 0.23117 0.0
N116 N 0.47369 0.40312 0.25436 0.0
C117 C 0.58218 0.56188 0.21732 0.0
H118 H 0.57316 0.53546 0.19248 0.0
H119 H 0.58108 0.61265 0.21954 0.0
H120 H 0.62709 0.57849 0.22435 0.0
C121 C 0.44888 0.44208 0.3075 0.0
H122 H 0.433 0.38522 0.31236 0.0
H123 H 0.47828 0.48415 0.32716 0.0
H124 H 0.41024 0.44625 0.30557 0.0
C125 C 0.87122 0.22931 0.28799 0.0
C126 C 0.90917 0.23355 0.26425 0.0
C127 C 0.89782 0.26207 0.24047 0.0
N128 N 0.83959 0.25381 0.27829 0.0
N129 N 0.8548 0.27237 0.24987 0.0
C130 C 0.86446 0.20188 0.31901 0.0
H131 H 0.89772 0.24804 0.33624 0.0
H132 H 0.87161 0.15582 0.31672 0.0
H133 H 0.8203 0.1831 0.32825 0.0
C134 C 0.93154 0.28714 0.21132 0.0
H135 H 0.97886 0.30991 0.21573 0.0
H136 H 0.914 0.23887 0.19249 0.0
H137 H 0.92674 0.32998 0.20319 0.0
C138 C 0.39096 0.23424 0.1824 0.0
C139 C 0.61449 0.40505 0.2265 0.0
C140 C 0.57002 0.39594 0.41534 0.0
N141 N 0.58848 0.35203 0.40395 0.0
N142 N 0.6434 0.38071 0.41297 0.0
C143 C 0.61444 0.4564 0.43437 0.0
C144 C 0.66096 0.44508 0.43231 0.0
H145 H 0.48565 0.3531 0.43571 0.0
H146 H 0.50379 0.41883 0.40892 0.0
H147 H 0.48353 0.32552 0.39381 0.0
C148 C 0.50693 0.37188 0.41321 0.0
H149 H 0.74969 0.47666 0.44117 0.0
H150 H 0.73783 0.55195 0.44746 0.0
H151 H 0.7117 0.48783 0.47544 0.0
C152 C 0.71874 0.49285 0.45002 0.0
C153 C 0.55955 0.427 0.11336 0.0
N154 N 0.56085 0.40977 0.14191 0.0
N155 N 0.51629 0.40368 0.1581 0.0
C156 C 0.5123 0.43457 0.11148 0.0
C157 C 0.48603 0.42002 0.14061 0.0
C158 C 0.60074 0.43188 0.08798 0.0
H159 H 0.61646 0.48187 0.07637 0.0
H160 H 0.5771 0.38223 0.06991 0.0
H161 H 0.63853 0.43348 0.0977 0.0
C162 C 0.4319 0.41801 0.15081 0.0
H163 H 0.43698 0.47102 0.14764 0.0
H164 H 0.39362 0.37253 0.13577 0.0
H165 H 0.42363 0.40896 0.17586 0.0
C166 C 0.5772 0.14768 0.38763 0.0
C167 C 0.5384 0.29148 0.33113 0.0
Cu168 Cu 0.39381 0.20082 0.29934 0.0
Cu169 Cu 0.43153 0.1708 0.35422 0.0
Cu170 Cu 0.74293 0.27903 0.36037 0.0
Cu171 Cu 0.78169 0.26496 0.29637 0.0
Cu172 Cu 0.70999 0.37729 0.15 0.0
Cu173 Cu 0.6051 0.38128 0.15888 0.0
Cu174 Cu 0.81834 0.3118 0.23328 0.0
Cu175 Cu 0.79834 0.36528 0.18102 0.0
Cu176 Cu 0.5081 0.37137 0.19738 0.0
Cu177 Cu 0.42992 0.29897 0.24836 0.0
Cu178 Cu 0.54256 0.25256 0.3905 0.0
Cu179 Cu 0.66558 0.31135 0.40044 0.0
H180 H 0.3825 0.27211 0.38518 0.0
H181 H 0.32634 0.18119 0.36605 0.0
H182 H 0.34612 0.26387 0.34929 0.0
H183 H 0.48368 0.18223 0.27039 0.0
H184 H 0.5309 0.26345 0.25107 0.0
H185 H 0.45886 0.19074 0.23403 0.0
H186 H 0.8798 0.43896 0.33012 0.0
H187 H 0.89369 0.37153 0.3408 0.0
H188 H 0.8652 0.41358 0.36919 0.0
H189 H 0.66842 0.25585 0.31328 0.0
H190 H 0.6552 0.32933 0.32212 0.0
H191 H 0.60889 0.24049 0.33749 0.0
H192 H 0.68953 0.53934 0.15089 0.0
H193 H 0.7355 0.5168 0.12683 0.0
H194 H 0.75786 0.55958 0.16728 0.0
H195 H 0.66591 0.23804 0.17423 0.0
H196 H 0.63701 0.28116 0.20128 0.0
H197 H 0.69049 0.26464 0.21463 0.0
H198 H 0.77132 0.20481 0.14885 0.0
H199 H 0.84839 0.2687 0.16043 0.0
H200 H 0.8019 0.18959 0.18124 0.0
H201 H 0.76457 0.38969 0.25327 0.0
H202 H 0.6956 0.32159 0.26842 0.0
H203 H 0.76089 0.37843 0.29428 0.0
H204 H 0.35121 0.19542 0.19475 0.0
H205 H 0.38269 0.27115 0.17146 0.0
H206 H 0.40068 0.20149 0.16401 0.0
H207 H 0.58925 0.39852 0.24822 0.0
H208 H 0.64338 0.38456 0.22866 0.0
H209 H 0.64191 0.46475 0.22351 0.0
H210 H 0.60298 0.14954 0.36669 0.0
H211 H 0.58616 0.12476 0.4065 0.0
H212 H 0.52963 0.11155 0.38078 0.0
H213 H 0.57684 0.34115 0.3443 0.0
H214 H 0.5535 0.27855 0.30831 0.0
H215 H 0.50577 0.30541 0.32773 0.0
O216 O 0.40482 0.2332 0.34479 0.0
O217 O 0.46038 0.25733 0.2728 0.0
O218 O 0.80802 0.33654 0.33439 0.0
O219 O 0.69045 0.3112 0.35744 0.0
O220 O 0.69039 0.45111 0.16056 0.0
O221 O 0.72154 0.34886 0.18806 0.0
O222 O 0.78954 0.2744 0.1896 0.0
O223 O 0.75772 0.29635 0.26319 0.0
O224 O 0.43776 0.276 0.20356 0.0
O225 O 0.57622 0.3656 0.20098 0.0
O226 O 0.59096 0.21769 0.39873 0.0
O227 O 0.5152 0.23231 0.34781 0.0
C228 C 0.03859 0.53522 0.76267 0.0
C229 C 0.01605 0.47492 0.77905 0.0
C230 C 0.05924 0.49609 0.80185 0.0
N231 N 0.09186 0.5885 0.77543 0.0
N232 N 0.10427 0.56574 0.79887 0.0
C233 C 0.0086 0.5438 0.73687 0.0
H234 H 0.98238 0.56606 0.74741 0.0
H235 H 0.97827 0.48926 0.72256 0.0
H236 H 0.0417 0.58356 0.72169 0.0
C237 C 0.05459 0.45443 0.82794 0.0
H238 H 0.09845 0.47904 0.83943 0.0
H239 H 0.03569 0.39511 0.8187 0.0
H240 H 0.02433 0.45674 0.84564 0.0
C241 C 0.58453 0.9144 0.60921 0.0
C242 C 0.5073 0.83174 0.57856 0.0
C243 C 0.55872 0.90145 0.57934 0.0
N244 N 0.54833 0.85609 0.62503 0.0
N245 N 0.50185 0.80854 0.60649 0.0
H246 H 0.67732 0.99006 0.60725 0.0
H247 H 0.63873 0.03248 0.62184 0.0
H248 H 0.65026 0.97934 0.64672 0.0
C249 C 0.64084 0.98307 0.62242 0.0
H250 H 0.47246 0.7964 0.53088 0.0
H251 H 0.43719 0.83136 0.55716 0.0
H252 H 0.42231 0.74014 0.5591 0.0
C253 C 0.45672 0.79757 0.55513 0.0
C254 C 0.17624 0.78192 0.83078 0.0
C255 C 0.20223 0.63108 0.72859 0.0
C256 C 0.45054 0.50161 0.79134 0.0
N257 N 0.47241 0.57466 0.79576 0.0
N258 N 0.50441 0.60561 0.77179 0.0
C259 C 0.46961 0.48473 0.76266 0.0
C260 C 0.50375 0.5527 0.75086 0.0
H261 H 0.38917 0.47337 0.82878 0.0
H262 H 0.43567 0.43814 0.8285 0.0
H263 H 0.37551 0.39523 0.80001 0.0
C264 C 0.40996 0.44898 0.81338 0.0
H265 H 0.57127 0.62672 0.72167 0.0
H266 H 0.50403 0.55198 0.70116 0.0
H267 H 0.55399 0.53202 0.71583 0.0
C268 C 0.53562 0.56702 0.72071 0.0
C269 C 0.09301 0.77448 0.71774 0.0
C270 C 0.06803 0.74098 0.76525 0.0
N271 N 0.12258 0.74573 0.72591 0.0
N272 N 0.10837 0.72687 0.75434 0.0
C273 C 0.05719 0.77231 0.74246 0.0
H274 H 0.06678 0.7645 0.67021 0.0
H275 H 0.09811 0.85587 0.69196 0.0
H276 H 0.14494 0.82265 0.67809 0.0
C277 C 0.10157 0.80679 0.68784 0.0
C278 C 0.03757 0.7193 0.79552 0.0
H279 H -0.00993 0.69735 0.79252 0.0
H280 H 0.05742 0.76901 0.8137 0.0
H281 H 0.04282 0.67694 0.80378 0.0
C282 C 0.57402 0.78038 0.84087 0.0
C283 C 0.35308 0.57594 0.79297 0.0
C284 C 0.40479 0.6198 0.59612 0.0
N285 N 0.38518 0.66195 0.60846 0.0
C286 C 0.36635 0.56899 0.57191 0.0
N287 N 0.33446 0.64019 0.5951 0.0
C288 C 0.32154 0.58318 0.57203 0.0
H289 H 0.49403 0.66587 0.58244 0.0
H290 H 0.46577 0.58989 0.60497 0.0
H291 H 0.485 0.68018 0.62434 0.0
C292 C 0.46607 0.64024 0.60245 0.0
H293 H 0.23844 0.56107 0.55672 0.0
C294 C 0.27052 0.54598 0.54907 0.0
H295 H 0.28665 0.56213 0.52547 0.0
H296 H 0.24863 0.4848 0.54703 0.0
C297 C 0.40662 0.59888 0.91106 0.0
C298 C 0.48005 0.59828 0.88694 0.0
N299 N 0.40768 0.61162 0.88132 0.0
N300 N 0.45228 0.61323 0.86702 0.0
C301 C 0.45215 0.58922 0.91569 0.0
H302 H 0.33461 0.53883 0.94066 0.0
C303 C 0.36275 0.59586 0.93423 0.0
H304 H 0.33514 0.61174 0.92411 0.0
H305 H 0.38556 0.63455 0.956 0.0
H306 H 0.51863 0.53504 0.87649 0.0
H307 H 0.5665 0.62563 0.89808 0.0
C308 C 0.53224 0.59393 0.87885 0.0
H309 H 0.55036 0.61568 0.85627 0.0
C310 C 0.40355 0.87047 0.63 0.0
C311 C 0.425 0.70988 0.68473 0.0
C312 C 0.6115 0.9579 0.74691 0.0
N313 N 0.58078 0.89601 0.7263 0.0
C314 C 0.61745 0.01685 0.73402 0.0
C315 C 0.58617 0.98418 0.70523 0.0
N316 N 0.56605 0.91141 0.70107 0.0
C317 C 0.64462 0.96331 0.77513 0.0
H318 H 0.68923 0.97759 0.76826 0.0
H319 H 0.64971 0.00788 0.79359 0.0
H320 H 0.62138 0.90936 0.78456 0.0
C321 C 0.57873 0.02365 0.68188 0.0
H322 H 0.55216 0.98443 0.66094 0.0
H323 H 0.55612 0.05036 0.69313 0.0
H324 H 0.6225 0.06887 0.67507 0.0
C325 C 0.10976 0.61529 0.88536 0.0
C326 C 0.1197 0.59906 0.91382 0.0
C327 C 0.17287 0.60366 0.91035 0.0
N328 N 0.15461 0.62808 0.86661 0.0
N329 N 0.19184 0.6203 0.88139 0.0
H330 H 0.05821 0.66236 0.88668 0.0
H331 H 0.01587 0.56264 0.88259 0.0
H332 H 0.05473 0.61055 0.84929 0.0
C333 C 0.0564 0.61209 0.87518 0.0
C334 C 0.20635 0.596 0.9345 0.0
H335 H 0.19936 0.61613 0.95846 0.0
H336 H 0.19038 0.53654 0.93355 0.0
H337 H 0.25399 0.62773 0.9296 0.0
C338 C 0.60422 0.7665 0.66155 0.0
C339 C 0.46804 0.7611 0.76134 0.0
C340 C 0.29177 0.90067 0.66372 0.0
C341 C 0.29892 0.94514 0.69221 0.0
C342 C 0.2668 0.89484 0.71341 0.0
N343 N 0.2596 0.82883 0.66872 0.0
N344 N 0.2434 0.82575 0.69813 0.0
C345 C 0.30979 0.92588 0.63209 0.0
H346 H 0.30525 0.88053 0.61443 0.0
H347 H 0.28075 0.94234 0.62428 0.0
H348 H 0.35574 0.97529 0.63356 0.0
C349 C 0.25135 0.91149 0.74605 0.0
H350 H 0.22658 0.86035 0.75753 0.0
H351 H 0.29177 0.95346 0.76047 0.0
H352 H 0.22409 0.93492 0.74498 0.0
C353 C 0.66623 0.76547 0.77243 0.0
C354 C 0.71293 0.8149 0.75533 0.0
C355 C 0.68897 0.83995 0.73655 0.0
N356 N 0.61792 0.76224 0.76387 0.0
N357 N 0.63149 0.80627 0.7423 0.0
C358 C 0.66616 0.7172 0.79412 0.0
H359 H 0.69194 0.75231 0.81601 0.0
H360 H 0.68763 0.68891 0.78293 0.0
H361 H 0.62052 0.67535 0.80025 0.0
C362 C 0.7201 0.89525 0.71387 0.0
H363 H 0.76421 0.94124 0.72385 0.0
H364 H 0.72658 0.86805 0.69169 0.0
H365 H 0.6938 0.91765 0.70838 0.0
C366 C 0.10101 0.62628 0.65343 0.0
C367 C 0.30912 0.71753 0.6762 0.0
C368 C 0.33449 0.78278 0.89368 0.0
N369 N 0.325 0.72223 0.87482 0.0
N370 N 0.37307 0.72142 0.87417 0.0
C371 C 0.39208 0.82257 0.90584 0.0
C372 C 0.41525 0.78165 0.89278 0.0
H373 H 0.25552 0.77632 0.8826 0.0
H374 H 0.26374 0.76783 0.92276 0.0
H375 H 0.30723 0.85787 0.90964 0.0
C376 C 0.28762 0.79749 0.90259 0.0
H377 H 0.48308 0.7593 0.8854 0.0
H378 H 0.50785 0.85128 0.90524 0.0
H379 H 0.46607 0.77222 0.926 0.0
C380 C 0.4715 0.79173 0.90276 0.0
C381 C 0.24523 0.70544 0.55405 0.0
N382 N 0.26174 0.71972 0.58463 0.0
N383 N 0.22588 0.73333 0.60143 0.0
C384 C 0.19489 0.70716 0.5516 0.0
C385 C 0.18572 0.72794 0.58238 0.0
C386 C 0.27667 0.69093 0.52747 0.0
H387 H 0.28987 0.73209 0.51096 0.0
H388 H 0.24676 0.63523 0.514 0.0
H389 H 0.31657 0.69582 0.53631 0.0
C390 C 0.13425 0.7311 0.59399 0.0
H391 H 0.12903 0.76736 0.58055 0.0
H392 H 0.09331 0.67466 0.59008 0.0
H393 H 0.14073 0.7534 0.61939 0.0
C394 C 0.24693 0.49663 0.871 0.0
C395 C 0.28203 0.68467 0.79826 0.0
Cu396 Cu 0.14448 0.68609 0.77014 0.0
Cu397 Cu 0.16825 0.64008 0.82441 0.0
Cu398 Cu 0.4626 0.63636 0.82589 0.0
Cu399 Cu 0.53989 0.70871 0.77521 0.0
Cu400 Cu 0.43176 0.75924 0.62575 0.0
Cu401 Cu 0.31349 0.71059 0.60801 0.0
Cu402 Cu 0.57044 0.80386 0.72372 0.0
Cu403 Cu 0.53611 0.83464 0.66732 0.0
Cu404 Cu 0.22851 0.73557 0.64469 0.0
Cu405 Cu 0.18014 0.73448 0.70703 0.0
Cu406 Cu 0.2567 0.63435 0.85914 0.0
Cu407 Cu 0.36255 0.63066 0.85858 0.0
H408 H 0.21586 0.81848 0.84656 0.0
H409 H 0.13671 0.75247 0.84499 0.0
H410 H 0.17111 0.81646 0.81618 0.0
H411 H 0.17808 0.58931 0.7449 0.0
H412 H 0.24889 0.64874 0.72917 0.0
H413 H 0.18282 0.6055 0.70446 0.0
H414 H 0.61673 0.80204 0.8293 0.0
H415 H 0.57162 0.74906 0.85981 0.0
H416 H 0.5707 0.82774 0.85108 0.0
H417 H 0.34332 0.52108 0.79707 0.0
H418 H 0.37372 0.58882 0.76988 0.0
H419 H 0.31129 0.57343 0.79305 0.0
H420 H 0.37308 0.86468 0.64904 0.0
H421 H 0.40175 0.90075 0.6118 0.0
H422 H 0.44902 0.90207 0.64029 0.0
H423 H 0.39114 0.66053 0.669 0.0
H424 H 0.40347 0.71894 0.70577 0.0
H425 H 0.45772 0.69865 0.69159 0.0
H426 H 0.58329 0.72617 0.63995 0.0
H427 H 0.63926 0.82132 0.65493 0.0
H428 H 0.6235 0.74597 0.67612 0.0
H429 H 0.47193 0.80466 0.74871 0.0
H430 H 0.42156 0.7134 0.75999 0.0
H431 H 0.4822 0.78478 0.7863 0.0
H432 H 0.07602 0.57862 0.66696 0.0
H433 H 0.07879 0.65665 0.6544 0.0
H434 H 0.10281 0.60487 0.62868 0.0
H435 H 0.29154 0.74005 0.69491 0.0
H436 H 0.30497 0.66725 0.6826 0.0
H437 H 0.35556 0.76165 0.67354 0.0
H438 H 0.26653 0.46373 0.86372 0.0
H439 H 0.24909 0.50871 0.89697 0.0
H440 H 0.20026 0.46419 0.86244 0.0
H441 H 0.27228 0.72376 0.79073 0.0
H442 H 0.32494 0.71699 0.8115 0.0
H443 H 0.2849 0.65079 0.77736 0.0
O444 O 0.1829 0.73117 0.8116 0.0
O445 O 0.19834 0.69138 0.73769 0.0
O446 O 0.52868 0.73438 0.8192 0.0
O447 O 0.39067 0.62941 0.8165 0.0
O448 O 0.38942 0.80168 0.61638 0.0
O449 O 0.45154 0.77133 0.66932 0.0
O450 O 0.56287 0.77342 0.67826 0.0
O451 O 0.50331 0.73824 0.74796 0.0
O452 O 0.15709 0.67289 0.66616 0.0
O453 O 0.27819 0.69938 0.64864 0.0
O454 O 0.27742 0.56164 0.85815 0.0
O455 O 0.2385 0.63889 0.81703 0.0
H456 H 0.34442 0.81727 0.9633 0.0
H457 H 0.61574 0.21724 0.03707 0.0
H458 H 0.49568 0.95835 0.91093 0.0
H459 H 0.46916 0.07025 0.09062 0.0
H460 H 0.5707 0.12553 0.99001 0.0
H461 H 0.38688 0.91212 0.0095 0.0
C462 C 0.38633 0.86882 0.96151 0.0
C463 C 0.41658 0.88072 0.93337 0.0
C464 C 0.54826 0.11324 0.012 0.0
C465 C 0.46594 0.98874 0.98611 0.0
C466 C 0.5741 0.16533 0.03886 0.0
C467 C 0.54607 0.15075 0.06763 0.0
C468 C 0.49396 0.04613 0.01401 0.0
C469 C 0.49174 0.08361 0.06871 0.0
C470 C 0.41077 0.92265 0.98791 0.0
C471 C 0.47129 0.94737 0.93234 0.0
N472 N 0.46743 0.03354 0.04225 0.0
N473 N 0.49433 0.99907 0.9584 0.0
H474 H 0.40402 0.61735 0.51505 0.0
H475 H 0.59154 0.4305 0.49497 0.0
H476 H 0.3842 0.45764 0.57209 0.0
H477 H 0.59587 0.56562 0.42918 0.0
H478 H 0.5237 0.4518 0.52681 0.0
H479 H 0.47526 0.60199 0.4835 0.0
C480 C 0.41252 0.57632 0.51994 0.0
C481 C 0.38714 0.53738 0.54577 0.0
C482 C 0.54054 0.47842 0.50582 0.0
C483 C 0.47142 0.5229 0.51108 0.0
C484 C 0.58068 0.46799 0.48814 0.0
C485 C 0.60023 0.49749 0.45969 0.0
C486 C 0.51972 0.51867 0.49499 0.0
C487 C 0.58277 0.54319 0.45129 0.0
C488 C 0.45436 0.56895 0.50245 0.0
C489 C 0.40177 0.4874 0.55194 0.0
N490 N 0.54289 0.55152 0.46856 0.0
N491 N 0.44343 0.48234 0.53506 0.0
H492 H 0.88327 0.54988 0.06537 0.0
H493 H 0.08494 0.47886 0.94328 0.0
H494 H 0.90286 0.36508 0.06199 0.0
H495 H 0.06243 0.6607 0.94405 0.0
H496 H 0.01873 0.43706 0.98706 0.0
H497 H 0.94789 0.59122 0.02076 0.0
C498 C 0.90081 0.51768 0.05504 0.0
C499 C 0.88777 0.45399 0.06732 0.0
C500 C 0.02821 0.48617 0.97773 0.0
C501 C 0.96236 0.5014 0.01666 0.0
C502 C 0.06641 0.51038 0.95291 0.0
C503 C 0.07949 0.57366 0.94028 0.0
C504 C 0.00281 0.52554 0.99005 0.0
C505 C 0.05307 0.61131 0.95302 0.0
C506 C 0.93802 0.54156 0.02973 0.0
C507 C 0.91256 0.41512 0.05351 0.0
N508 N 0.01606 0.5868 0.97731 0.0
N509 N 0.94868 0.43944 0.02892 0.0
H510 H 0.5807 0.91204 0.51714 0.0
H511 H 0.41284 0.11924 0.50717 0.0
H512 H 0.53305 1.00508 0.59885 0.0
H513 H 0.45028 0.01232 0.42616 0.0
H514 H 0.45517 0.07695 0.54136 0.0
H515 H 0.54009 0.95718 0.48344 0.0
C516 C 0.56434 0.94528 0.52799 0.0
C517 C 0.5613 0.956 0.56085 0.0
C518 C 0.45297 0.06117 0.51615 0.0
C519 C 0.51143 1.00424 0.52244 0.0
C520 C 0.42744 0.08378 0.49669 0.0
C521 C 0.42666 0.0677 0.46382 0.0
C522 C 0.47869 0.02291 0.50265 0.0
C523 C 0.44847 0.02415 0.4514 0.0
C524 C 0.53968 0.96936 0.50875 0.0
C525 C 0.53758 0.99712 0.57366 0.0
N526 N 0.47427 1.00419 0.47075 0.0
N527 N 0.51279 0.01872 0.55447 0.0
H528 H 0.48159 0.35494 0.05312 0.0
H529 H 0.47779 0.66619 0.9748 0.0
H530 H 0.50394 0.55249 0.10654 0.0
H531 H 0.45446 0.46764 0.92184 0.0
H532 H 0.48654 0.62535 0.0234 0.0
H533 H 0.46793 0.39311 1.005 0.0
C534 C 0.48297 0.40609 0.05464 0.0
C535 C 0.49402 0.45092 0.08362 0.0
C536 C 0.47962 0.59067 1.00119 0.0
C537 C 0.47911 0.49548 0.0288 0.0
C538 C 0.47455 0.61392 0.97351 0.0
C539 C 0.4649 0.56974 0.94448 0.0
C540 C 0.475 0.52266 0.99978 0.0
C541 C 0.46231 0.5034 0.94383 0.0
C542 C 0.47535 0.42797 0.02722 0.0
C543 C 0.49493 0.51622 0.08457 0.0
N544 N 0.46704 0.48162 0.97113 0.0
N545 N 0.48804 0.53694 0.05746 0.0
H546 H 0.87313 0.30878 0.47852 0.0
H547 H 0.1273 0.74003 0.52152 0.0
H548 H 0.85413 0.4871 0.46379 0.0
H549 H 0.14687 0.56046 0.53311 0.0
H550 H 0.02859 0.64884 0.49781 0.0
H551 H 0.97395 0.40084 0.49909 0.0
C552 C 0.8898 0.3674 0.4805 0.0
C553 C 0.85519 0.39063 0.47019 0.0
C554 C 0.05498 0.6295 0.50497 0.0
C555 C 0.97055 0.49605 0.49248 0.0
C556 C 0.11147 0.68156 0.51806 0.0
C557 C 0.14533 0.65765 0.52881 0.0
C558 C 0.03233 0.5532 0.50298 0.0
C559 C 0.12271 0.5813 0.52441 0.0
C560 C 0.94744 0.4199 0.4918 0.0
C561 C 0.87892 0.46706 0.47247 0.0
N562 N 0.06735 0.53173 0.51215 0.0
N563 N 0.9353 0.51714 0.48323 0.0
H564 H 0.56821 0.94996 0.33795 0.0
H565 H 0.637 0.638 0.27989 0.0
H566 H 0.73613 0.9957 0.30546 0.0
H567 H 0.4607 0.58617 0.29368 0.0
H568 H 0.67593 0.76854 0.29882 0.0
H569 H 0.53006 0.81641 0.331 0.0
C570 C 0.59714 0.93177 0.32972 0.0
C571 C 0.65507 0.9834 0.32188 0.0
C572 C 0.62872 0.72873 0.29802 0.0
C573 C 0.61214 0.83162 0.31393 0.0
C574 C 0.60651 0.6542 0.28722 0.0
C575 C 0.54558 0.60164 0.28477 0.0
C576 C 0.58973 0.75121 0.30646 0.0
C577 C 0.50801 0.62517 0.29521 0.0
C578 C 0.57536 0.85575 0.32562 0.0
C579 C 0.69086 0.9574 0.31121 0.0
N580 N 0.53065 0.69853 0.30528 0.0
N581 N 0.66879 0.88341 0.30745 0.0
H582 H 0.03856 0.85206 0.79101 0.0
H583 H 0.76228 0.79475 0.70187 0.0
H584 H 0.9781 0.74009 0.69636 0.0
H585 H 0.79333 0.85493 0.80236 0.0
H586 H 0.85423 0.80013 0.69745 0.0
H587 H 0.96036 0.87649 0.79372 0.0
C588 C 0.00892 0.83291 0.7708 0.0
C589 C 0.01423 0.79356 0.74351 0.0
C590 C 0.84138 0.81302 0.72046 0.0
C591 C 0.92597 0.82215 0.74621 0.0
C592 C 0.7893 0.81079 0.72293 0.0
C593 C 0.77083 0.82495 0.75249 0.0
C594 C 0.87487 0.82897 0.74781 0.0
C595 C 0.80627 0.84317 0.7792 0.0
C596 C 0.96469 0.84722 0.77228 0.0
C597 C 0.97589 0.77144 0.71767 0.0
N598 N 0.85674 0.84431 0.77628 0.0
N599 N 0.93307 0.78569 0.71972 0.0
H600 H 0.30837 0.88951 0.23483 0.0
H601 H 0.97976 0.62074 0.2899 0.0
H602 H 0.25015 0.90761 0.32881 0.0
H603 H 0.03415 0.59325 0.19589 0.0
H604 H 0.08037 0.72471 0.30457 0.0
H605 H 0.21085 0.77623 0.22034 0.0
C606 C 0.27547 0.86834 0.25257 0.0
C607 C 0.28718 0.90719 0.28307 0.0
C608 C 0.07054 0.69635 0.28067 0.0
C609 C 0.1758 0.77965 0.26669 0.0
C610 C 0.01311 0.63741 0.27231 0.0
C611 C -0.00083 0.59904 0.24174 0.0
C612 C 0.11437 0.71713 0.25822 0.0
C613 C 0.04344 0.62239 0.21964 0.0
C614 C 0.21983 0.80425 0.24428 0.0
C615 C 0.24326 0.8783 0.30523 0.0
N616 N 0.09938 0.68002 0.22834 0.0
N617 N 0.18935 0.81669 0.29651 0.0
H618 H 0.42202 0.41241 0.70362 0.0
H619 H 0.38387 0.03463 0.73767 0.0
H620 H 0.48177 0.3871 0.78926 0.0
H621 H 0.28912 0.04235 0.6622 0.0
H622 H 0.43268 0.16885 0.75219 0.0
H623 H 0.38629 0.28246 0.68317 0.0
C624 C 0.42846 0.3798 0.71785 0.0
C625 C 0.4545 0.41007 0.7482 0.0
C626 C 0.40143 0.14145 0.73234 0.0
C627 C 0.41363 0.26196 0.72522 0.0
C628 C 0.37335 0.06478 0.72417 0.0
C629 C 0.33185 0.02733 0.69901 0.0
C630 C 0.38813 0.18136 0.71516 0.0
C631 C 0.32106 0.06924 0.68169 0.0
C632 C 0.40768 0.30562 0.70632 0.0
C633 C 0.46127 0.36544 0.76588 0.0
N634 N 0.34874 0.14407 0.69022 0.0
N635 N 0.44084 0.29371 0.75419 0.0
H636 H 0.20007 0.21662 0.31829 0.0
H637 H 0.93372 0.15589 0.21791 0.0
H638 H 0.18435 0.16494 0.2171 0.0
H639 H -0.01265 0.27388 0.31213 0.0
H640 H 0.01302 0.13389 0.21896 0.0
H641 H 0.10719 0.20907 0.31838 0.0
C642 C 0.17628 0.20219 0.29615 0.0
C643 C 0.19935 0.19141 0.26764 0.0
C644 C 0.00687 0.16393 0.23946 0.0
C645 C 0.09447 0.18457 0.26743 0.0
C646 C 0.9621 0.17683 0.23881 0.0
C647 C 0.95433 0.21662 0.26499 0.0
C648 C 0.04348 0.19083 0.26658 0.0
C649 C -0.00874 0.24169 0.29172 0.0
C650 C 0.12371 0.19863 0.29616 0.0
C651 C 0.16787 0.17449 0.23948 0.0
N652 N 0.03448 0.22852 0.29181 0.0
N653 N 0.11685 0.17199 0.24001 0.0
H654 H 0.98512 0.33346 0.76055 0.0
H655 H 0.64088 0.13618 0.77736 0.0
H656 H 0.91279 0.46572 0.78867 0.0
H657 H 0.7175 0.0624 0.70349 0.0
H658 H 0.73894 0.25167 0.79022 0.0
H659 H 0.88479 0.22336 0.7493 0.0
C660 C 0.94785 0.33872 0.7647 0.0
C661 C 0.95639 0.40777 0.7754 0.0
C662 C 0.73375 0.21042 0.77093 0.0
C663 C 0.84272 0.2837 0.76274 0.0
C664 C 0.67816 0.14533 0.76352 0.0
C665 C 0.67169 0.09127 0.73908 0.0
C666 C 0.7826 0.21929 0.75432 0.0
C667 C 0.72105 0.10389 0.72217 0.0
C668 C 0.89097 0.27649 0.7581 0.0
C669 C 0.90725 0.41278 0.78031 0.0
N670 N 0.77468 0.16629 0.73035 0.0
N671 N 0.85208 0.35121 0.77402 0.0
loop_
_geom_bond_atom_site_label_1
_geom_bond_atom_site_label_2
_geom_bond_distance
_geom_bond_site_symmetry_2
_ccdc_geom_bond_type
C0 C1 1.388 . S
C0 N3 1.338 . S
C0 C5 1.503 . S
C1 C0 1.388 . S
C1 C2 1.396 . S
C2 C1 1.396 . S
C2 N4 1.348 . S
C2 C9 1.504 . S
N3 C0 1.338 . S
N3 N4 1.361 . S
N3 Cu168 1.924 . S
N4 C2 1.348 . S
N4 N3 1.361 . S
N4 Cu169 1.964 . S
C5 C0 1.503 . S
C5 H6 0.979 . S
C5 H7 0.979 . S
C5 H8 0.979 . S
H6 C5 0.979 . S
H7 C5 0.979 . S
H8 C5 0.979 . S
C9 C2 1.504 . S
C9 H10 0.981 . S
C9 H11 0.980 . S
C9 H12 0.979 . S
H10 C9 0.981 . S
H11 C9 0.980 . S
H12 C9 0.979 . S
C13 C15 1.402 . S
C13 N16 1.356 . S
C13 C21 1.481 1_655 S
C14 C15 1.400 . S
C14 N17 1.325 . S
C14 C25 1.503 . S
C15 C13 1.402 . S
C15 C14 1.400 . S
N16 C13 1.356 . S
N16 N17 1.365 . S
N16 Cu175 1.941 . S
N17 C14 1.325 . S
N17 N16 1.365 . S
N17 Cu172 1.924 . S
H18 C21 0.980 . S
H19 C21 0.980 . S
H20 C21 0.980 1_655 S
C21 C13 1.481 1_455 S
C21 H18 0.980 . S
C21 H19 0.980 . S
C21 H20 0.980 1_455 S
H22 C25 0.978 . S
H23 C25 0.978 . S
H24 C25 0.983 . S
C25 C14 1.503 . S
C25 H22 0.978 . S
C25 H23 0.978 . S
C25 H24 0.983 . S
C26 H180 0.979 . S
C26 H181 0.981 . S
C26 H182 0.981 . S
C26 O216 1.438 . S
C27 H183 0.980 . S
C27 H184 0.979 . S
C27 H185 0.980 . S
C27 O217 1.533 . S
C28 N29 1.338 . S
C28 C31 1.388 . S
C28 C36 1.503 . S
N29 C28 1.338 . S
N29 N30 1.361 . S
N29 Cu170 1.924 . S
N30 N29 1.361 . S
N30 C32 1.348 . S
N30 Cu171 1.964 . S
C31 C28 1.388 . S
C31 C32 1.396 . S
C32 N30 1.348 . S
C32 C31 1.396 . S
C32 C40 1.504 . S
H33 C36 0.979 . S
H34 C36 0.979 . S
H35 C36 0.979 . S
C36 C28 1.503 . S
C36 H33 0.979 . S
C36 H34 0.979 . S
C36 H35 0.979 . S
H37 C40 0.981 . S
H38 C40 0.980 . S
H39 C40 0.979 . S
C40 C32 1.504 . S
C40 H37 0.981 . S
C40 H38 0.980 . S
C40 H39 0.979 . S
C41 N43 1.356 . S
C41 C45 1.402 . S
C41 C49 1.481 . S
C42 N44 1.325 . S
C42 C45 1.400 . S
C42 C50 1.503 . S
N43 C41 1.356 . S
N43 N44 1.365 . S
N43 Cu177 1.941 . S
N44 C42 1.325 . S
N44 N43 1.365 . S
N44 Cu168 1.924 . S
C45 C41 1.402 . S
C45 C42 1.400 . S
H46 C49 0.980 . S
H47 C49 0.980 . S
H48 C49 0.980 . S
C49 C41 1.481 . S
C49 H46 0.980 . S
C49 H47 0.980 . S
C49 H48 0.980 . S
C50 C42 1.503 . S
C50 H51 0.978 . S
C50 H52 0.978 . S
C50 H53 0.983 . S
H51 C50 0.978 . S
H52 C50 0.978 . S
H53 C50 0.983 . S
C54 H186 0.979 . S
C54 H187 0.981 . S
C54 H188 0.981 . S
C54 O218 1.438 . S
C55 H189 0.980 . S
C55 H190 0.979 . S
C55 H191 0.980 . S
C55 O219 1.533 . S
C56 N57 1.338 . S
C56 C58 1.388 . S
C56 C64 1.503 . S
N57 C56 1.338 . S
N57 N59 1.361 . S
N57 Cu172 1.924 . S
C58 C56 1.388 . S
C58 C60 1.396 . S
N59 N57 1.361 . S
N59 C60 1.348 . S
N59 Cu173 1.964 . S
C60 C58 1.396 . S
C60 N59 1.348 . S
C60 C66 1.504 . S
H61 C64 0.979 . S
H62 C64 0.979 . S
H63 C64 0.979 . S
C64 C56 1.503 . S
C64 H61 0.979 . S
C64 H62 0.979 . S
C64 H63 0.979 . S
H65 C66 0.981 . S
C66 C60 1.504 . S
C66 H65 0.981 . S
C66 H67 0.979 . S
C66 H68 0.980 . S
H67 C66 0.979 . S
H68 C66 0.980 . S
C69 N71 1.356 . S
C69 C73 1.402 . S
C69 C75 1.481 . S
C70 N72 1.325 . S
C70 C73 1.400 . S
C70 C80 1.503 . S
N71 C69 1.356 . S
N71 N72 1.365 . S
N71 Cu179 1.941 . S
N72 C70 1.325 . S
N72 N71 1.365 . S
N72 Cu170 1.924 . S
C73 C69 1.402 . S
C73 C70 1.400 . S
H74 C75 0.980 . S
C75 C69 1.481 . S
C75 H74 0.980 . S
C75 H76 0.980 . S
C75 H77 0.980 . S
H76 C75 0.980 . S
H77 C75 0.980 . S
H78 C80 0.978 . S
H79 C80 0.978 . S
C80 C70 1.503 . S
C80 H78 0.978 . S
C80 H79 0.978 . S
C80 H81 0.983 . S
H81 C80 0.983 . S
C82 H192 0.979 . S
C82 H193 0.981 . S
C82 H194 0.981 . S
C82 O220 1.438 . S
C83 H195 0.980 . S
C83 H196 0.979 . S
C83 H197 0.980 . S
C83 O221 1.533 . S
C84 N85 1.338 . S
C84 C86 1.388 . S
C84 C89 1.505 . S
N85 C84 1.338 . S
N85 N88 1.361 . S
N85 Cu174 1.924 . S
C86 C84 1.388 . S
C86 C87 1.396 . S
C87 C86 1.396 . S
C87 N88 1.348 . S
C87 C93 1.504 . S
N88 N85 1.361 . S
N88 C87 1.348 . S
N88 Cu175 1.964 . S
C89 C84 1.505 . S
C89 H90 0.966 1_655 S
C89 H91 0.977 1_655 S
C89 H92 0.981 . S
H90 C89 0.966 1_455 S
H91 C89 0.977 1_455 S
H92 C89 0.981 . S
C93 C87 1.504 . S
C93 H94 0.981 . S
C93 H95 0.980 . S
C93 H96 0.979 . S
H94 C93 0.981 . S
H95 C93 0.980 . S
H96 C93 0.979 . S
C97 C98 1.402 . S
C97 N100 1.356 . S
C97 C105 1.481 . S
C98 C97 1.402 . S
C98 C99 1.400 . S
C99 C98 1.400 . S
C99 N101 1.325 . S
C99 C106 1.503 . S
N100 C97 1.356 . S
N100 N101 1.365 . S
N100 Cu169 1.941 . S
N101 C99 1.325 . S
N101 N100 1.365 . S
N101 Cu178 1.924 . S
H102 C105 0.980 . S
H103 C105 0.980 . S
H104 C105 0.980 . S
C105 C97 1.481 . S
C105 H102 0.980 . S
C105 H103 0.980 . S
C105 H104 0.980 . S
C106 C99 1.503 . S
C106 H107 0.978 . S
C106 H108 0.978 . S
C106 H109 0.983 . S
H107 C106 0.978 . S
H108 C106 0.978 . S
H109 C106 0.983 . S
C110 H198 0.979 . S
C110 H199 0.981 . S
C110 H200 0.981 . S
C110 O222 1.438 . S
C111 H201 0.980 . S
C111 H202 0.979 . S
C111 H203 0.980 . S
C111 O223 1.533 . S
C112 C113 1.388 . S
C112 N115 1.338 . S
C112 C117 1.503 . S
C113 C112 1.388 . S
C113 C114 1.396 . S
C114 C113 1.396 . S
C114 N116 1.348 . S
C114 C121 1.504 . S
N115 C112 1.338 . S
N115 N116 1.361 . S
N115 Cu176 1.924 . S
N116 C114 1.348 . S
N116 N115 1.361 . S
N116 Cu177 1.964 . S
C117 C112 1.503 . S
C117 H118 0.979 . S
C117 H119 0.979 . S
C117 H120 0.979 . S
H118 C117 0.979 . S
H119 C117 0.979 . S
H120 C117 0.979 . S
C121 C114 1.504 . S
C121 H122 0.981 . S
C121 H123 0.980 . S
C121 H124 0.979 . S
H122 C121 0.981 . S
H123 C121 0.980 . S
H124 C121 0.979 . S
C125 C126 1.402 . S
C125 N128 1.356 . S
C125 C130 1.481 . S
C126 C125 1.402 . S
C126 C127 1.400 . S
C127 C126 1.400 . S
C127 N129 1.325 . S
C127 C134 1.503 1_655 S
N128 C125 1.356 . S
N128 N129 1.365 . S
N128 Cu171 1.941 . S
N129 C127 1.325 . S
N129 N128 1.365 . S
N129 Cu174 1.924 . S
C130 C125 1.481 . S
C130 H131 0.980 . S
C130 H132 0.980 . S
C130 H133 0.980 . S
H131 C130 0.980 . S
H132 C130 0.980 . S
H133 C130 0.980 . S
C134 C127 1.503 1_455 S
C134 H135 0.978 . S
C134 H136 0.978 . S
C134 H137 0.983 . S
H135 C134 0.978 . S
H136 C134 0.978 . S
H137 C134 0.983 . S
C138 H204 0.979 . S
C138 H205 0.981 . S
C138 H206 0.981 . S
C138 O224 1.438 . S
C139 H207 0.980 . S
C139 H208 0.979 . S
C139 H209 0.980 . S
C139 O225 1.533 . S
C140 N141 1.338 . S
C140 C143 1.388 . S
C140 C148 1.503 . S
N141 C140 1.338 . S
N141 N142 1.361 . S
N141 Cu178 1.924 . S
N142 N141 1.361 . S
N142 C144 1.348 . S
N142 Cu179 1.964 . S
C143 C140 1.388 . S
C143 C144 1.396 . S
C144 N142 1.348 . S
C144 C143 1.396 . S
C144 C152 1.504 . S
H145 C148 0.979 . S
H146 C148 0.979 . S
H147 C148 0.979 . S
C148 C140 1.503 . S
C148 H145 0.979 . S
C148 H146 0.979 . S
C148 H147 0.979 . S
H149 C152 0.981 . S
H150 C152 0.980 . S
H151 C152 0.979 . S
C152 C144 1.504 . S
C152 H149 0.981 . S
C152 H150 0.980 . S
C152 H151 0.979 . S
C153 N154 1.356 . S
C153 C156 1.402 . S
C153 C158 1.481 . S
N154 C153 1.356 . S
N154 N155 1.365 . S
N154 Cu173 1.941 . S
N155 N154 1.365 . S
N155 C157 1.325 . S
N155 Cu176 1.924 . S
C156 C153 1.402 . S
C156 C157 1.400 . S
C157 N155 1.325 . S
C157 C156 1.400 . S
C157 C162 1.503 . S
C158 C153 1.481 . S
C158 H159 0.980 . S
C158 H160 0.980 . S
C158 H161 0.980 . S
H159 C158 0.980 . S
H160 C158 0.980 . S
H161 C158 0.980 . S
C162 C157 1.503 . S
C162 H163 0.978 . S
C162 H164 0.978 . S
C162 H165 0.983 . S
H163 C162 0.978 . S
H164 C162 0.978 . S
H165 C162 0.983 . S
C166 H210 0.979 . S
C166 H211 0.981 . S
C166 H212 0.981 . S
C166 O226 1.438 . S
C167 H213 0.980 . S
C167 H214 0.979 . S
C167 H215 0.980 . S
C167 O227 1.533 . S
Cu168 N3 1.924 . S
Cu168 N44 1.924 . S
Cu168 O216 1.923 . S
Cu168 O217 1.930 . S
Cu169 N4 1.964 . S
Cu169 N100 1.941 . S
Cu169 O216 1.905 . S
Cu169 O227 1.920 . S
Cu170 N29 1.924 . S
Cu170 N72 1.924 . S
Cu170 O218 1.923 . S
Cu170 O219 1.930 . S
Cu171 N30 1.964 . S
Cu171 N128 1.941 . S
Cu171 O218 1.905 . S
Cu171 O223 1.920 . S
Cu172 N17 1.924 . S
Cu172 N57 1.924 . S
Cu172 O220 1.923 . S
Cu172 O221 1.930 . S
Cu173 N59 1.964 . S
Cu173 N154 1.941 . S
Cu173 O220 1.905 . S
Cu173 O225 1.920 . S
Cu174 N85 1.924 . S
Cu174 N129 1.924 . S
Cu174 O222 1.923 . S
Cu174 O223 1.930 . S
Cu175 N16 1.941 . S
Cu175 N88 1.964 . S
Cu175 O221 1.920 . S
Cu175 O222 1.905 . S
Cu176 N115 1.924 . S
Cu176 N155 1.924 . S
Cu176 O224 1.923 . S
Cu176 O225 1.930 . S
Cu177 N43 1.941 . S
Cu177 N116 1.964 . S
Cu177 O217 1.920 . S
Cu177 O224 1.905 . S
Cu178 N101 1.924 . S
Cu178 N141 1.924 . S
Cu178 O226 1.923 . S
Cu178 O227 1.930 . S
Cu179 N71 1.941 . S
Cu179 N142 1.964 . S
Cu179 O219 1.920 . S
Cu179 O226 1.905 . S
H180 C26 0.979 . S
H181 C26 0.981 . S
H182 C26 0.981 . S
H183 C27 0.980 . S
H184 C27 0.979 . S
H185 C27 0.980 . S
H186 C54 0.979 . S
H187 C54 0.981 . S
H188 C54 0.981 . S
H189 C55 0.980 . S
H190 C55 0.979 . S
H191 C55 0.980 . S
H192 C82 0.979 . S
H193 C82 0.981 . S
H194 C82 0.981 . S
H195 C83 0.980 . S
H196 C83 0.979 . S
H197 C83 0.980 . S
H198 C110 0.979 . S
H199 C110 0.981 . S
H200 C110 0.981 . S
H201 C111 0.980 . S
H202 C111 0.979 . S
H203 C111 0.980 . S
H204 C138 0.979 . S
H205 C138 0.981 . S
H206 C138 0.981 . S
H207 C139 0.980 . S
H208 C139 0.979 . S
H209 C139 0.980 . S
H210 C166 0.979 . S
H211 C166 0.981 . S
H212 C166 0.981 . S
H213 C167 0.980 . S
H214 C167 0.979 . S
H215 C167 0.980 . S
O216 C26 1.438 . S
O216 Cu168 1.923 . S
O216 Cu169 1.905 . S
O217 C27 1.533 . S
O217 Cu168 1.930 . S
O217 Cu177 1.920 . S
O218 C54 1.438 . S
O218 Cu170 1.923 . S
O218 Cu171 1.905 . S
O219 C55 1.533 . S
O219 Cu170 1.930 . S
O219 Cu179 1.920 . S
O220 C82 1.438 . S
O220 Cu172 1.923 . S
O220 Cu173 1.905 . S
O221 C83 1.533 . S
O221 Cu172 1.930 . S
O221 Cu175 1.920 . S
O222 C110 1.438 . S
O222 Cu174 1.923 . S
O222 Cu175 1.905 . S
O223 C111 1.533 . S
O223 Cu171 1.920 . S
O223 Cu174 1.930 . S
O224 C138 1.438 . S
O224 Cu176 1.923 . S
O224 Cu177 1.905 . S
O225 C139 1.533 . S
O225 Cu173 1.920 . S
O225 Cu176 1.930 . S
O226 C166 1.438 . S
O226 Cu178 1.923 . S
O226 Cu179 1.905 . S
O227 C167 1.533 . S
O227 Cu169 1.920 . S
O227 Cu178 1.930 . S
C228 C229 1.388 . S
C228 N231 1.338 . S
C228 C233 1.505 . S
C229 C228 1.388 . S
C229 C230 1.396 . S
C230 C229 1.396 . S
C230 N232 1.348 . S
C230 C237 1.504 . S
N231 C228 1.338 . S
N231 N232 1.361 . S
N231 Cu396 1.924 . S
N232 C230 1.348 . S
N232 N231 1.361 . S
N232 Cu397 1.964 . S
C233 C228 1.505 . S
C233 H234 0.966 1_455 S
C233 H235 0.977 1_455 S
C233 H236 0.982 . S
H234 C233 0.966 1_655 S
H235 C233 0.977 1_655 S
H236 C233 0.982 . S
C237 C230 1.504 . S
C237 H238 0.981 . S
C237 H239 0.980 . S
C237 H240 0.979 . S
H238 C237 0.981 . S
H239 C237 0.980 . S
H240 C237 0.979 . S
C241 C243 1.402 . S
C241 N244 1.356 . S
C241 C249 1.481 . S
C242 C243 1.400 . S
C242 N245 1.325 . S
C242 C253 1.503 . S
C243 C241 1.402 . S
C243 C242 1.400 . S
N244 C241 1.356 . S
N244 N245 1.365 . S
N244 Cu403 1.941 . S
N245 C242 1.325 . S
N245 N244 1.365 . S
N245 Cu400 1.924 . S
H246 C249 0.980 . S
H247 C249 0.980 . S
H248 C249 0.980 . S
C249 C241 1.481 . S
C249 H246 0.980 . S
C249 H247 0.980 . S
C249 H248 0.980 . S
H250 C253 0.978 . S
H251 C253 0.978 . S
H252 C253 0.983 . S
C253 C242 1.503 . S
C253 H250 0.978 . S
C253 H251 0.978 . S
C253 H252 0.983 . S
C254 H408 0.979 . S
C254 H409 0.981 . S
C254 H410 0.981 . S
C254 O444 1.438 . S
C255 H411 0.980 . S
C255 H412 0.979 . S
C255 H413 0.980 . S
C255 O445 1.533 . S
C256 N257 1.338 . S
C256 C259 1.388 . S
C256 C264 1.503 . S
N257 C256 1.338 . S
N257 N258 1.361 . S
N257 Cu398 1.924 . S
N258 N257 1.361 . S
N258 C260 1.348 . S
N258 Cu399 1.964 . S
C259 C256 1.388 . S
C259 C260 1.396 . S
C260 N258 1.348 . S
C260 C259 1.396 . S
C260 C268 1.504 . S
H261 C264 0.979 . S
H262 C264 0.979 . S
H263 C264 0.979 . S
C264 C256 1.503 . S
C264 H261 0.979 . S
C264 H262 0.979 . S
C264 H263 0.979 . S
H265 C268 0.981 . S
H266 C268 0.980 . S
H267 C268 0.979 . S
C268 C260 1.504 . S
C268 H265 0.981 . S
C268 H266 0.980 . S
C268 H267 0.979 . S
C269 N271 1.356 . S
C269 C273 1.402 . S
C269 C277 1.481 . S
C270 N272 1.325 . S
C270 C273 1.400 . S
C270 C278 1.503 1_455 S
N271 C269 1.356 . S
N271 N272 1.365 . S
N271 Cu405 1.941 . S
N272 C270 1.325 . S
N272 N271 1.365 . S
N272 Cu396 1.924 . S
C273 C269 1.402 . S
C273 C270 1.400 . S
H274 C277 0.980 . S
H275 C277 0.980 . S
H276 C277 0.980 . S
C277 C269 1.481 . S
C277 H274 0.980 . S
C277 H275 0.980 . S
C277 H276 0.980 . S
C278 C270 1.503 1_655 S
C278 H279 0.978 . S
C278 H280 0.978 . S
C278 H281 0.983 . S
H279 C278 0.978 . S
H280 C278 0.978 . S
H281 C278 0.983 . S
C282 H414 0.979 . S
C282 H415 0.981 . S
C282 H416 0.981 . S
C282 O446 1.438 . S
C283 H417 0.980 . S
C283 H418 0.979 . S
C283 H419 0.980 . S
C283 O447 1.533 . S
C284 N285 1.338 . S
C284 C286 1.388 . S
C284 C292 1.503 . S
N285 C284 1.338 . S
N285 N287 1.361 . S
N285 Cu400 1.924 . S
C286 C284 1.388 . S
C286 C288 1.396 . S
N287 N285 1.361 . S
N287 C288 1.348 . S
N287 Cu401 1.964 . S
C288 C286 1.396 . S
C288 N287 1.348 . S
C288 C294 1.504 . S
H289 C292 0.979 . S
H290 C292 0.979 . S
H291 C292 0.979 . S
C292 C284 1.503 . S
C292 H289 0.979 . S
C292 H290 0.979 . S
C292 H291 0.979 . S
H293 C294 0.981 . S
C294 C288 1.504 . S
C294 H293 0.981 . S
C294 H295 0.979 . S
C294 H296 0.980 . S
H295 C294 0.979 . S
H296 C294 0.980 . S
C297 N299 1.356 . S
C297 C301 1.402 . S
C297 C303 1.481 . S
C298 N300 1.325 . S
C298 C301 1.400 . S
C298 C308 1.503 . S
N299 C297 1.356 . S
N299 N300 1.365 . S
N299 Cu407 1.941 . S
N300 C298 1.325 . S
N300 N299 1.365 . S
N300 Cu398 1.924 . S
C301 C297 1.402 . S
C301 C298 1.400 . S
H302 C303 0.980 . S
C303 C297 1.481 . S
C303 H302 0.980 . S
C303 H304 0.980 . S
C303 H305 0.980 . S
H304 C303 0.980 . S
H305 C303 0.980 . S
H306 C308 0.978 . S
H307 C308 0.978 . S
C308 C298 1.503 . S
C308 H306 0.978 . S
C308 H307 0.978 . S
C308 H309 0.983 . S
H309 C308 0.983 . S
C310 H420 0.979 . S
C310 H421 0.981 . S
C310 H422 0.981 . S
C310 O448 1.438 . S
C311 H423 0.980 . S
C311 H424 0.979 . S
C311 H425 0.980 . S
C311 O449 1.533 . S
C312 N313 1.338 . S
C312 C314 1.388 . S
C312 C317 1.503 . S
N313 C312 1.338 . S
N313 N316 1.361 . S
N313 Cu402 1.924 . S
C314 C312 1.388 . S
C314 C315 1.396 . S
C315 C314 1.396 . S
C315 N316 1.348 . S
C315 C321 1.504 . S
N316 N313 1.361 . S
N316 C315 1.348 . S
N316 Cu403 1.964 . S
C317 C312 1.503 . S
C317 H318 0.979 . S
C317 H319 0.979 . S
C317 H320 0.979 . S
H318 C317 0.979 . S
H319 C317 0.979 . S
H320 C317 0.979 . S
C321 C315 1.504 . S
C321 H322 0.981 . S
C321 H323 0.980 . S
C321 H324 0.979 . S
H322 C321 0.981 . S
H323 C321 0.980 . S
H324 C321 0.979 . S
C325 C326 1.402 . S
C325 N328 1.356 . S
C325 C333 1.481 1_455 S
C326 C325 1.402 . S
C326 C327 1.400 . S
C327 C326 1.400 . S
C327 N329 1.325 . S
C327 C334 1.503 . S
N328 C325 1.356 . S
N328 N329 1.365 . S
N328 Cu397 1.941 . S
N329 C327 1.325 . S
N329 N328 1.365 . S
N329 Cu406 1.924 . S
H330 C333 0.980 . S
H331 C333 0.980 . S
H332 C333 0.980 1_455 S
C333 C325 1.481 1_655 S
C333 H330 0.980 . S
C333 H331 0.980 . S
C333 H332 0.980 1_655 S
C334 C327 1.503 . S
C334 H335 0.978 . S
C334 H336 0.978 . S
C334 H337 0.983 . S
H335 C334 0.978 . S
H336 C334 0.978 . S
H337 C334 0.983 . S
C338 H426 0.979 . S
C338 H427 0.981 . S
C338 H428 0.981 . S
C338 O450 1.438 . S
C339 H429 0.980 . S
C339 H430 0.979 . S
C339 H431 0.980 . S
C339 O451 1.533 . S
C340 C341 1.388 . S
C340 N343 1.338 . S
C340 C345 1.503 . S
C341 C340 1.388 . S
C341 C342 1.396 . S
C342 C341 1.396 . S
C342 N344 1.348 . S
C342 C349 1.504 . S
N343 C340 1.338 . S
N343 N344 1.361 . S
N343 Cu404 1.924 . S
N344 C342 1.348 . S
N344 N343 1.361 . S
N344 Cu405 1.964 . S
C345 C340 1.503 . S
C345 H346 0.979 . S
C345 H347 0.979 . S
C345 H348 0.979 . S
H346 C345 0.979 . S
H347 C345 0.979 . S
H348 C345 0.979 . S
C349 C342 1.504 . S
C349 H350 0.981 . S
C349 H351 0.980 . S
C349 H352 0.979 . S
H350 C349 0.981 . S
H351 C349 0.980 . S
H352 C349 0.979 . S
C353 C354 1.402 . S
C353 N356 1.356 . S
C353 C358 1.481 . S
C354 C353 1.402 . S
C354 C355 1.400 . S
C355 C354 1.400 . S
C355 N357 1.325 . S
C355 C362 1.503 . S
N356 C353 1.356 . S
N356 N357 1.365 . S
N356 Cu399 1.941 . S
N357 C355 1.325 . S
N357 N356 1.365 . S
N357 Cu402 1.924 . S
C358 C353 1.481 . S
C358 H359 0.980 . S
C358 H360 0.980 . S
C358 H361 0.980 . S
H359 C358 0.980 . S
H360 C358 0.980 . S
H361 C358 0.980 . S
C362 C355 1.503 . S
C362 H363 0.978 . S
C362 H364 0.978 . S
C362 H365 0.983 . S
H363 C362 0.978 . S
H364 C362 0.978 . S
H365 C362 0.983 . S
C366 H432 0.979 . S
C366 H433 0.981 . S
C366 H434 0.981 . S
C366 O452 1.438 . S
C367 H435 0.980 . S
C367 H436 0.979 . S
C367 H437 0.980 . S
C367 O453 1.533 . S
C368 N369 1.338 . S
C368 C371 1.388 . S
C368 C376 1.503 . S
N369 C368 1.338 . S
N369 N370 1.361 . S
N369 Cu406 1.924 . S
N370 N369 1.361 . S
N370 C372 1.348 . S
N370 Cu407 1.964 . S
C371 C368 1.388 . S
C371 C372 1.396 . S
C372 N370 1.348 . S
C372 C371 1.396 . S
C372 C380 1.504 . S
H373 C376 0.979 . S
H374 C376 0.979 . S
H375 C376 0.979 . S
C376 C368 1.503 . S
C376 H373 0.979 . S
C376 H374 0.979 . S
C376 H375 0.979 . S
H377 C380 0.981 . S
H378 C380 0.980 . S
H379 C380 0.979 . S
C380 C372 1.504 . S
C380 H377 0.981 . S
C380 H378 0.980 . S
C380 H379 0.979 . S
C381 N382 1.356 . S
C381 C384 1.402 . S
C381 C386 1.481 . S
N382 C381 1.356 . S
N382 N383 1.365 . S
N382 Cu401 1.941 . S
N383 N382 1.365 . S
N383 C385 1.325 . S
N383 Cu404 1.924 . S
C384 C381 1.402 . S
C384 C385 1.400 . S
C385 N383 1.325 . S
C385 C384 1.400 . S
C385 C390 1.503 . S
C386 C381 1.481 . S
C386 H387 0.980 . S
C386 H388 0.980 . S
C386 H389 0.980 . S
H387 C386 0.980 . S
H388 C386 0.980 . S
H389 C386 0.980 . S
C390 C385 1.503 . S
C390 H391 0.978 . S
C390 H392 0.978 . S
C390 H393 0.983 . S
H391 C390 0.978 . S
H392 C390 0.978 . S
H393 C390 0.983 . S
C394 H438 0.979 . S
C394 H439 0.981 . S
C394 H440 0.981 . S
C394 O454 1.438 . S
C395 H441 0.980 . S
C395 H442 0.979 . S
C395 H443 0.980 . S
C395 O455 1.533 . S
Cu396 N231 1.924 . S
Cu396 N272 1.924 . S
Cu396 O444 1.923 . S
Cu396 O445 1.930 . S
Cu397 N232 1.964 . S
Cu397 N328 1.941 . S
Cu397 O444 1.905 . S
Cu397 O455 1.920 . S
Cu398 N257 1.924 . S
Cu398 N300 1.924 . S
Cu398 O446 1.923 . S
Cu398 O447 1.930 . S
Cu399 N258 1.964 . S
Cu399 N356 1.941 . S
Cu399 O446 1.905 . S
Cu399 O451 1.920 . S
Cu400 N245 1.924 . S
Cu400 N285 1.924 . S
Cu400 O448 1.923 . S
Cu400 O449 1.930 . S
Cu401 N287 1.964 . S
Cu401 N382 1.941 . S
Cu401 O448 1.905 . S
Cu401 O453 1.920 . S
Cu402 N313 1.924 . S
Cu402 N357 1.924 . S
Cu402 O450 1.923 . S
Cu402 O451 1.930 . S
Cu403 N244 1.941 . S
Cu403 N316 1.964 . S
Cu403 O449 1.920 . S
Cu403 O450 1.905 . S
Cu404 N343 1.924 . S
Cu404 N383 1.924 . S
Cu404 O452 1.923 . S
Cu404 O453 1.930 . S
Cu405 N271 1.941 . S
Cu405 N344 1.964 . S
Cu405 O445 1.920 . S
Cu405 O452 1.905 . S
Cu406 N329 1.924 . S
Cu406 N369 1.924 . S
Cu406 O454 1.923 . S
Cu406 O455 1.930 . S
Cu407 N299 1.941 . S
Cu407 N370 1.964 . S
Cu407 O447 1.920 . S
Cu407 O454 1.905 . S
H408 C254 0.979 . S
H409 C254 0.981 . S
H410 C254 0.981 . S
H411 C255 0.980 . S
H412 C255 0.979 . S
H413 C255 0.980 . S
H414 C282 0.979 . S
H415 C282 0.981 . S
H416 C282 0.981 . S
H417 C283 0.980 . S
H418 C283 0.979 . S
H419 C283 0.980 . S
H420 C310 0.979 . S
H421 C310 0.981 . S
H422 C310 0.981 . S
H423 C311 0.980 . S
H424 C311 0.979 . S
H425 C311 0.980 . S
H426 C338 0.979 . S
H427 C338 0.981 . S
H428 C338 0.981 . S
H429 C339 0.980 . S
H430 C339 0.979 . S
H431 C339 0.980 . S
H432 C366 0.979 . S
H433 C366 0.981 . S
H434 C366 0.981 . S
H435 C367 0.980 . S
H436 C367 0.979 . S
H437 C367 0.980 . S
H438 C394 0.979 . S
H439 C394 0.981 . S
H440 C394 0.981 . S
H441 C395 0.980 . S
H442 C395 0.979 . S
H443 C395 0.980 . S
O444 C254 1.438 . S
O444 Cu396 1.923 . S
O444 Cu397 1.905 . S
O445 C255 1.533 . S
O445 Cu396 1.930 . S
O445 Cu405 1.920 . S
O446 C282 1.438 . S
O446 Cu398 1.923 . S
O446 Cu399 1.905 . S
O447 C283 1.533 . S
O447 Cu398 1.930 . S
O447 Cu407 1.920 . S
O448 C310 1.438 . S
O448 Cu400 1.923 . S
O448 Cu401 1.905 . S
O449 C311 1.533 . S
O449 Cu400 1.930 . S
O449 Cu403 1.920 . S
O450 C338 1.438 . S
O450 Cu402 1.923 . S
O450 Cu403 1.905 . S
O451 C339 1.533 . S
O451 Cu399 1.920 . S
O451 Cu402 1.930 . S
O452 C366 1.438 . S
O452 Cu404 1.923 . S
O452 Cu405 1.905 . S
O453 C367 1.533 . S
O453 Cu401 1.920 . S
O453 Cu404 1.930 . S
O454 C394 1.438 . S
O454 Cu406 1.923 . S
O454 Cu407 1.905 . S
O455 C395 1.533 . S
O455 Cu397 1.920 . S
O455 Cu406 1.930 . S
H456 C462 0.930 . S
H457 C466 0.930 . S
H458 C471 0.929 . S
H459 C469 0.929 . S
H460 C464 0.963 . S
H461 C470 0.963 . S
C462 H456 0.930 . S
C462 C463 1.367 . S
C462 C470 1.378 . S
C463 C462 1.367 . S
C463 C471 1.433 . S
C464 H460 0.963 . S
C464 C466 1.378 . S
C464 C468 1.350 . S
C465 C468 1.463 1_566 S
C465 C470 1.350 . S
C465 N473 1.427 1_565 S
C466 H457 0.930 . S
C466 C464 1.378 . S
C466 C467 1.367 . S
C467 C466 1.367 . S
C467 C469 1.433 . S
C468 C464 1.350 . S
C468 C465 1.463 1_544 S
C468 N472 1.427 1_545 S
C469 H459 0.929 . S
C469 C467 1.433 . S
C469 N472 1.384 1_545 S
C470 H461 0.963 . S
C470 C462 1.378 . S
C470 C465 1.350 . S
C471 H458 0.929 . S
C471 C463 1.433 . S
C471 N473 1.384 1_565 S
N472 C468 1.427 1_565 S
N472 C469 1.384 1_565 S
N473 C465 1.427 1_545 S
N473 C471 1.384 1_545 S
H474 C480 0.930 . S
H475 C484 0.930 . S
H476 C489 0.929 . S
H477 C487 0.929 . S
H478 C482 0.929 . S
H479 C488 0.929 . S
C480 H474 0.930 . S
C480 C481 1.367 . S
C480 C488 1.378 . S
C481 C480 1.367 . S
C481 C489 1.433 . S
C482 H478 0.929 . S
C482 C484 1.378 . S
C482 C486 1.350 . S
C483 C486 1.463 . S
C483 C488 1.350 . S
C483 N491 1.427 . S
C484 H475 0.930 . S
C484 C482 1.378 . S
C484 C485 1.367 . S
C485 C484 1.367 . S
C485 C487 1.433 . S
C486 C482 1.350 . S
C486 C483 1.463 . S
C486 N490 1.427 . S
C487 H477 0.929 . S
C487 C485 1.433 . S
C487 N490 1.384 . S
C488 H479 0.929 . S
C488 C480 1.378 . S
C488 C483 1.350 . S
C489 H476 0.929 . S
C489 C481 1.433 . S
C489 N491 1.384 . S
N490 C486 1.427 . S
N490 C487 1.384 . S
N491 C483 1.427 . S
N491 C489 1.384 . S
H492 C498 0.930 . S
H493 C502 0.930 . S
H494 C507 0.929 . S
H495 C505 0.929 . S
H496 C500 0.929 . S
H497 C506 0.929 . S
C498 H492 0.930 . S
C498 C499 1.367 1_455 S
C498 C506 1.378 . S
C499 C498 1.367 1_655 S
C499 C507 1.433 . S
C500 H496 0.929 . S
C500 C502 1.378 . S
C500 C504 1.350 1_655 S
C501 C504 1.463 1_654 S
C501 C506 1.350 1_655 S
C501 N509 1.427 . S
C502 H493 0.930 . S
C502 C500 1.378 . S
C502 C503 1.367 1_655 S
C503 C502 1.367 1_455 S
C503 C505 1.433 . S
C504 C500 1.350 1_455 S
C504 C501 1.463 1_456 S
C504 N508 1.427 . S
C505 H495 0.929 . S
C505 C503 1.433 . S
C505 N508 1.384 . S
C506 H497 0.929 . S
C506 C498 1.378 . S
C506 C501 1.350 1_455 S
C507 H494 0.929 . S
C507 C499 1.433 . S
C507 N509 1.384 . S
N508 C504 1.427 . S
N508 C505 1.384 . S
N509 C501 1.427 . S
N509 C507 1.384 . S
H510 C516 0.930 . S
H511 C520 0.930 . S
H512 C525 0.929 . S
H513 C523 0.929 . S
H514 C518 0.929 . S
H515 C524 0.929 . S
C516 H510 0.930 . S
C516 C517 1.367 . S
C516 C524 1.378 . S
C517 C516 1.367 . S
C517 C525 1.433 1_565 S
C518 H514 0.929 . S
C518 C520 1.378 . S
C518 C522 1.350 . S
C519 C522 1.463 1_565 S
C519 C524 1.350 . S
C519 N527 1.427 1_565 S
C520 H511 0.930 . S
C520 C518 1.378 . S
C520 C521 1.367 . S
C521 C520 1.367 . S
C521 C523 1.433 1_545 S
C522 C518 1.350 . S
C522 C519 1.463 1_545 S
C522 N526 1.427 1_545 S
C523 H513 0.929 . S
C523 C521 1.433 1_565 S
C523 N526 1.384 . S
C524 H515 0.929 . S
C524 C516 1.378 . S
C524 C519 1.350 . S
C525 H512 0.929 . S
C525 C517 1.433 1_545 S
C525 N527 1.384 . S
N526 C522 1.427 1_565 S
N526 C523 1.384 . S
N527 C519 1.427 1_545 S
N527 C525 1.384 . S
H528 C534 0.926 1_556 S
H529 C538 0.926 1_554 S
H530 C543 0.929 . S
H531 C541 0.929 . S
H532 C536 0.929 . S
H533 C542 0.929 . S
C534 H528 0.926 1_554 S
C534 C535 1.367 . S
C534 C542 1.378 1_554 S
C535 C534 1.367 . S
C535 C543 1.433 . S
C536 H532 0.929 . S
C536 C538 1.378 1_554 S
C536 C540 1.350 1_554 S
C537 C540 1.463 1_554 S
C537 C542 1.350 1_554 S
C537 N545 1.427 . S
C538 H529 0.926 1_556 S
C538 C536 1.378 1_556 S
C538 C539 1.367 . S
C539 C538 1.367 . S
C539 C541 1.433 . S
C540 C536 1.350 1_556 S
C540 C537 1.463 1_556 S
C540 N544 1.427 . S
C541 H531 0.929 . S
C541 C539 1.433 . S
C541 N544 1.384 . S
C542 H533 0.929 . S
C542 C534 1.378 1_556 S
C542 C537 1.350 1_556 S
C543 H530 0.929 . S
C543 C535 1.433 . S
C543 N545 1.384 . S
N544 C540 1.427 . S
N544 C541 1.384 . S
N545 C537 1.427 . S
N545 C543 1.384 . S
H546 C552 0.930 . S
H547 C556 0.930 . S
H548 C561 0.929 . S
H549 C559 0.929 . S
H550 C554 0.929 . S
H551 C560 0.929 . S
C552 H546 0.930 . S
C552 C553 1.367 . S
C552 C560 1.378 . S
C553 C552 1.367 . S
C553 C561 1.433 . S
C554 H550 0.929 . S
C554 C556 1.378 . S
C554 C558 1.350 . S
C555 C558 1.463 1_655 S
C555 C560 1.350 . S
C555 N563 1.427 . S
C556 H547 0.930 . S
C556 C554 1.378 . S
C556 C557 1.367 . S
C557 C556 1.367 . S
C557 C559 1.433 . S
C558 C554 1.350 . S
C558 C555 1.463 1_455 S
C558 N562 1.427 . S
C559 H549 0.929 . S
C559 C557 1.433 . S
C559 N562 1.384 . S
C560 H551 0.929 . S
C560 C552 1.378 . S
C560 C555 1.350 . S
C561 H548 0.929 . S
C561 C553 1.433 . S
C561 N563 1.384 . S
N562 C558 1.427 . S
N562 C559 1.384 . S
N563 C555 1.427 . S
N563 C561 1.384 . S
H564 C570 0.930 . S
H565 C574 0.930 . S
H566 C579 0.929 1_545 S
H567 C577 0.929 . S
H568 C572 0.929 . S
H569 C578 0.929 . S
C570 H564 0.930 . S
C570 C571 1.367 1_565 S
C570 C578 1.378 . S
C571 C570 1.367 1_545 S
C571 C579 1.433 1_545 S
C572 H568 0.929 . S
C572 C574 1.378 . S
C572 C576 1.350 . S
C573 C576 1.463 . S
C573 C578 1.350 . S
C573 N581 1.427 . S
C574 H565 0.930 . S
C574 C572 1.378 . S
C574 C575 1.367 . S
C575 C574 1.367 . S
C575 C577 1.433 . S
C576 C572 1.350 . S
C576 C573 1.463 . S
C576 N580 1.427 . S
C577 H567 0.929 . S
C577 C575 1.433 . S
C577 N580 1.384 . S
C578 H569 0.929 . S
C578 C570 1.378 . S
C578 C573 1.350 . S
C579 H566 0.929 1_565 S
C579 C571 1.433 1_565 S
C579 N581 1.384 . S
N580 C576 1.427 . S
N580 C577 1.384 . S
N581 C573 1.427 . S
N581 C579 1.384 . S
H582 C588 0.930 1_455 S
H583 C592 0.930 . S
H584 C597 0.929 . S
H585 C595 0.929 . S
H586 C590 0.929 . S
H587 C596 0.929 . S
C588 H582 0.930 1_655 S
C588 C589 1.367 . S
C588 C596 1.378 . S
C589 C588 1.367 . S
C589 C597 1.433 . S
C590 H586 0.929 . S
C590 C592 1.378 . S
C590 C594 1.350 . S
C591 C594 1.463 . S
C591 C596 1.350 . S
C591 N599 1.427 . S
C592 H583 0.930 . S
C592 C590 1.378 . S
C592 C593 1.367 . S
C593 C592 1.367 . S
C593 C595 1.433 . S
C594 C590 1.350 . S
C594 C591 1.463 . S
C594 N598 1.427 . S
C595 H585 0.929 . S
C595 C593 1.433 . S
C595 N598 1.384 . S
C596 H587 0.929 . S
C596 C588 1.378 . S
C596 C591 1.350 . S
C597 H584 0.929 . S
C597 C589 1.433 . S
C597 N599 1.384 . S
N598 C594 1.427 . S
N598 C595 1.384 . S
N599 C591 1.427 . S
N599 C597 1.384 . S
H600 C606 0.930 . S
H601 C610 0.930 . S
H602 C615 0.929 1_545 S
H603 C613 0.929 . S
H604 C608 0.929 . S
H605 C614 0.929 . S
C606 H600 0.930 . S
C606 C607 1.367 . S
C606 C614 1.378 . S
C607 C606 1.367 . S
C607 C615 1.433 . S
C608 H604 0.929 . S
C608 C610 1.378 . S
C608 C612 1.350 . S
C609 C612 1.463 . S
C609 C614 1.350 . S
C609 N617 1.427 . S
C610 H601 0.930 . S
C610 C608 1.378 . S
C610 C611 1.367 . S
C611 C610 1.367 . S
C611 C613 1.433 . S
C612 C608 1.350 . S
C612 C609 1.463 . S
C612 N616 1.427 . S
C613 H603 0.929 . S
C613 C611 1.433 . S
C613 N616 1.384 . S
C614 H605 0.929 . S
C614 C606 1.378 . S
C614 C609 1.350 . S
C615 H602 0.929 1_565 S
C615 C607 1.433 . S
C615 N617 1.384 . S
N616 C612 1.427 . S
N616 C613 1.384 . S
N617 C609 1.427 . S
N617 C615 1.384 . S
H618 C624 0.930 . S
H619 C628 0.930 . S
H620 C633 0.929 . S
H621 C631 0.929 1_565 S
H622 C626 0.929 . S
H623 C632 0.929 . S
C624 H618 0.930 . S
C624 C625 1.367 . S
C624 C632 1.378 . S
C625 C624 1.367 . S
C625 C633 1.433 . S
C626 H622 0.929 . S
C626 C628 1.378 . S
C626 C630 1.350 . S
C627 C630 1.463 . S
C627 C632 1.350 . S
C627 N635 1.427 . S
C628 H619 0.930 . S
C628 C626 1.378 . S
C628 C629 1.367 1_545 S
C629 C628 1.367 1_565 S
C629 C631 1.433 1_565 S
C630 C626 1.350 . S
C630 C627 1.463 . S
C630 N634 1.427 . S
C631 H621 0.929 1_545 S
C631 C629 1.433 1_545 S
C631 N634 1.384 . S
C632 H623 0.929 . S
C632 C624 1.378 . S
C632 C627 1.350 . S
C633 H620 0.929 . S
C633 C625 1.433 . S
C633 N635 1.384 . S
N634 C630 1.427 . S
N634 C631 1.384 . S
N635 C627 1.427 . S
N635 C633 1.384 . S
H636 C642 0.930 . S
H637 C646 0.930 . S
H638 C651 0.929 . S
H639 C649 0.929 . S
H640 C644 0.929 . S
H641 C650 0.929 . S
C642 H636 0.930 . S
C642 C643 1.367 . S
C642 C650 1.378 . S
C643 C642 1.367 . S
C643 C651 1.433 . S
C644 H640 0.929 . S
C644 C646 1.378 . S
C644 C648 1.350 . S
C645 C648 1.463 . S
C645 C650 1.350 . S
C645 N653 1.427 . S
C646 H637 0.930 . S
C646 C644 1.378 . S
C646 C647 1.367 . S
C647 C646 1.367 . S
C647 C649 1.433 . S
C648 C644 1.350 . S
C648 C645 1.463 . S
C648 N652 1.427 . S
C649 H639 0.929 . S
C649 C647 1.433 . S
C649 N652 1.384 . S
C650 H641 0.929 . S
C650 C642 1.378 . S
C650 C645 1.350 . S
C651 H638 0.929 . S
C651 C643 1.433 . S
C651 N653 1.384 . S
N652 C648 1.427 . S
N652 C649 1.384 . S
N653 C645 1.427 . S
N653 C651 1.384 . S
H654 C660 0.930 1_455 S
H655 C664 0.930 . S
H656 C669 0.929 . S
H657 C667 0.929 1_565 S
H658 C662 0.929 . S
H659 C668 0.929 . S
C660 H654 0.930 1_655 S
C660 C661 1.367 . S
C660 C668 1.378 . S
C661 C660 1.367 . S
C661 C669 1.433 . S
C662 H658 0.929 . S
C662 C664 1.378 . S
C662 C666 1.350 . S
C663 C666 1.463 . S
C663 C668 1.350 . S
C663 N671 1.427 . S
C664 H655 0.930 . S
C664 C662 1.378 . S
C664 C665 1.367 . S
C665 C664 1.367 . S
C665 C667 1.433 . S
C666 C662 1.350 . S
C666 C663 1.463 . S
C666 N670 1.427 . S
C667 H657 0.929 1_545 S
C667 C665 1.433 . S
C667 N670 1.384 . S
C668 H659 0.929 . S
C668 C660 1.378 . S
C668 C663 1.350 . S
C669 H656 0.929 . S
C669 C661 1.433 . S
C669 N671 1.384 . S
N670 C666 1.427 . S
N670 C667 1.384 . S
N671 C663 1.427 . S
N671 C669 1.384 . S
C463 C371 1.719 . S
C467 C58 1.719 . S
C481 C286 3.774 . S
C485 C143 3.774 . S
C499 C15 1.748 . S
C503 C326 1.748 . S
C517 C243 3.199 . S
C521 C98 3.199 . S
C535 C156 1.773 . S
C539 C301 1.773 . S
C553 C73 1.019 . S
C557 C384 1.019 . S
C571 C31 1.427 . S
C575 C113 1.427 . S
C589 C273 0.818 1_655 S
C593 C354 0.818 . S
C607 C1 1.507 1_565 S
C611 C86 1.507 1_455 S
C625 C259 1.431 . S
C629 C341 1.431 . S
C643 C45 0.828 . S
C647 C126 0.828 1_455 S
C661 C229 1.505 1_655 S
C665 C314 1.505 1_545 S
