# Generated by pormake.
# Topology mok, (4)-cn, num edge types: 1
# Building blocks:
#     Node 0, Type 0, BuildingBlock: GALJAG_clean_sbu_0, # of connection points: 4
#     Node 1, Type 0, BuildingBlock: GALJAG_clean_sbu_0, # of connection points: 4
#     Node 2, Type 0, BuildingBlock: GALJAG_clean_sbu_0, # of connection points: 4
#     Node 3, Type 0, BuildingBlock: GALJAG_clean_sbu_0, # of connection points: 4
#     Node 4, Type 0, BuildingBlock: GALJAG_clean_sbu_0, # of connection points: 4
#     Node 5, Type 0, BuildingBlock: GALJAG_clean_sbu_0, # of connection points: 4
#     Node 6, Type 0, BuildingBlock: GALJAG_clean_sbu_0, # of connection points: 4
#     Node 7, Type 0, BuildingBlock: GALJAG_clean_sbu_0, # of connection points: 4
#     Edge 8, Type (0, 0), BuildingBlock: FUNLAD_clean_linker_1, # of connection points: 2
#     Edge 9, Type (0, 0), BuildingBlock: FUNLAD_clean_linker_1, # of connection points: 2
#     Edge 10, Type (0, 0), BuildingBlock: FUNLAD_clean_linker_1, # of connection points: 2
#     Edge 11, Type (0, 0), BuildingBlock: FUNLAD_clean_linker_1, # of connection points: 2
#     Edge 12, Type (0, 0), BuildingBlock: FUNLAD_clean_linker_1, # of connection points: 2
#     Edge 13, Type (0, 0), BuildingBlock: FUNLAD_clean_linker_1, # of connection points: 2
#     Edge 14, Type (0, 0), BuildingBlock: FUNLAD_clean_linker_1, # of connection points: 2
#     Edge 15, Type (0, 0), BuildingBlock: FUNLAD_clean_linker_1, # of connection points: 2
#     Edge 16, Type (0, 0), BuildingBlock: FUNLAD_clean_linker_1, # of connection points: 2
#     Edge 17, Type (0, 0), BuildingBlock: FUNLAD_clean_linker_1, # of connection points: 2
#     Edge 18, Type (0, 0), BuildingBlock: FUNLAD_clean_linker_1, # of connection points: 2
#     Edge 19, Type (0, 0), BuildingBlock: FUNLAD_clean_linker_1, # of connection points: 2
#     Edge 20, Type (0, 0), BuildingBlock: FUNLAD_clean_linker_1, # of connection points: 2
#     Edge 21, Type (0, 0), BuildingBlock: FUNLAD_clean_linker_1, # of connection points: 2
#     Edge 22, Type (0, 0), BuildingBlock: FUNLAD_clean_linker_1, # of connection points: 2
#     Edge 23, Type (0, 0), BuildingBlock: FUNLAD_clean_linker_1, # of connection points: 2
# Relax obj value: 0.070
# Max RMSD: 0.103
# Mean RMSD: 0.103
data_MOF--net-mok--node1-GALJAG_clean_sbu_0--edge1-FUNLAD_clean_linker_1
_symmetry_space_group_name_H-M    P1
_symmetry_Int_Tables_number       1
_symmetry_cell_setting            triclinic
loop_
_symmetry_equiv_pos_as_xyz
'x, y, z'
_cell_length_a     56.729865
_cell_length_b     14.470535
_cell_length_c     29.531954
_cell_angle_alpha  90.041148
_cell_angle_beta   90.037642
_cell_angle_gamma 89.945931
loop_
_atom_site_label
_atom_site_type_symbol
_atom_site_fract_x
_atom_site_fract_y
_atom_site_fract_z
_atom_type_partial_charge
In0 In 0.62009 0.3031 0.00852 0.0
O1 O 0.60528 0.40085 0.95423 0.0
O2 O 0.6336 0.31197 0.93618 0.0
C3 C 0.61288 0.39512 0.08676 0.0
C4 C 0.58549 0.17546 0.00317 0.0
C5 C 0.66606 0.26464 0.0196 0.0
O6 O 0.61391 0.43595 0.04909 0.0
O7 O 0.61516 0.30856 0.08484 0.0
O8 O 0.65064 0.20191 0.01679 0.0
O9 O 0.65829 0.34634 0.01715 0.0
C10 C 0.61931 0.37351 0.9239 0.0
O11 O 0.6069 0.15332 0.00703 0.0
O12 O 0.58159 0.26115 0.00199 0.0
In13 In 0.38985 0.69836 0.00237 0.0
O14 O 0.40363 0.84738 0.99954 0.0
O15 O 0.42859 0.73802 0.99849 0.0
C16 C 0.34363 0.73044 0.01357 0.0
C17 C 0.38926 0.63069 0.91692 0.0
C18 C 0.39739 0.61426 0.08275 0.0
O19 O 0.35862 0.79504 0.01216 0.0
O20 O 0.35196 0.64969 0.00953 0.0
O21 O 0.40086 0.57321 0.04556 0.0
O22 O 0.3903 0.69647 0.07922 0.0
C23 C 0.42502 0.8239 0.99812 0.0
O24 O 0.40143 0.59356 0.9478 0.0
O25 O 0.37751 0.70006 0.92913 0.0
In26 In 0.60868 0.66363 0.50909 0.0
O27 O 0.59878 0.54462 0.55612 0.0
O28 O 0.6118 0.66864 0.58584 0.0
C29 C 0.60767 0.582 0.42723 0.0
C30 C 0.56816 0.76125 0.50782 0.0
C31 C 0.65427 0.71676 0.50919 0.0
O32 O 0.60877 0.53606 0.46349 0.0
O33 O 0.60712 0.66859 0.43225 0.0
O34 O 0.63755 0.7746 0.50797 0.0
O35 O 0.64797 0.6332 0.51046 0.0
C36 C 0.60404 0.58791 0.59182 0.0
O37 O 0.58805 0.80064 0.50938 0.0
O38 O 0.56886 0.67435 0.5068 0.0
In39 In 0.38929 0.32803 0.50184 0.0
O40 O 0.40786 0.18717 0.5103 0.0
O41 O 0.42743 0.2993 0.48328 0.0
C42 C 0.34328 0.28514 0.50844 0.0
C43 C 0.39662 0.41342 0.58215 0.0
C44 C 0.38728 0.39774 0.41727 0.0
O45 O 0.35909 0.22395 0.50428 0.0
O46 O 0.3507 0.3675 0.50974 0.0
O47 O 0.39772 0.43973 0.44905 0.0
O48 O 0.37776 0.32241 0.42822 0.0
C49 C 0.42735 0.21602 0.49527 0.0
O50 O 0.39946 0.45459 0.54487 0.0
O51 O 0.39013 0.33048 0.57882 0.0
In52 In 0.11552 0.81567 0.01519 0.0
O53 O 0.09393 0.68327 0.02179 0.0
O54 O 0.07551 0.81097 0.01459 0.0
C55 C 0.16042 0.75635 0.01963 0.0
C56 C 0.1145 0.86553 0.92717 0.0
C57 C 0.11336 0.90894 0.09424 0.0
O58 O 0.14317 0.70146 0.02237 0.0
O59 O 0.155 0.84041 0.01488 0.0
O60 O 0.11217 0.94965 0.05642 0.0
O61 O 0.11553 0.82228 0.09199 0.0
C62 C 0.07431 0.72443 0.0189 0.0
O63 O 0.11304 0.92476 0.95862 0.0
O64 O 0.11642 0.78302 0.94017 0.0
In65 In 0.89398 0.16554 0.01323 0.0
O66 O 0.89938 0.04119 0.96707 0.0
O67 O 0.89306 0.17179 0.93622 0.0
C68 C 0.89483 0.0783 0.09345 0.0
C69 C 0.9346 0.26166 0.01618 0.0
C70 C 0.84922 0.22865 0.01418 0.0
O71 O 0.89436 0.03516 0.05638 0.0
O72 O 0.89499 0.16523 0.09015 0.0
O73 O 0.86668 0.28259 0.01375 0.0
O74 O 0.85434 0.1439 0.01386 0.0
C75 C 0.8969 0.08656 0.93098 0.0
O76 O 0.91471 0.30095 0.01544 0.0
O77 O 0.93399 0.17468 0.01527 0.0
In78 In 0.114 0.19669 0.5154 0.0
O79 O 0.11163 0.08762 0.57184 0.0
O80 O 0.11354 0.2298 0.59041 0.0
C81 C 0.11251 0.10373 0.43625 0.0
C82 C 0.07182 0.28174 0.51072 0.0
C83 C 0.15903 0.25606 0.51216 0.0
O84 O 0.11236 0.06256 0.47403 0.0
O85 O 0.11339 0.19077 0.43859 0.0
O86 O 0.14179 0.311 0.50835 0.0
O87 O 0.1535 0.17232 0.5174 0.0
C88 C 0.11212 0.14705 0.60333 0.0
O89 O 0.09098 0.3264 0.50892 0.0
O90 O 0.07402 0.19537 0.51447 0.0
In91 In 0.88411 0.80855 0.51299 0.0
O92 O 0.90572 0.67386 0.51139 0.0
O93 O 0.92409 0.80203 0.51212 0.0
C94 C 0.83875 0.75144 0.51457 0.0
C95 C 0.88685 0.8929 0.59386 0.0
C96 C 0.8862 0.88873 0.43117 0.0
O97 O 0.85576 0.69505 0.51567 0.0
O98 O 0.84465 0.83528 0.51277 0.0
O99 O 0.88836 0.93402 0.46741 0.0
O100 O 0.88295 0.80304 0.43607 0.0
C101 C 0.92536 0.7152 0.51119 0.0
O102 O 0.88638 0.93709 0.55711 0.0
O103 O 0.88592 0.80609 0.58998 0.0
H104 H 0.8215 0.33622 0.01457 0.0
C105 C 0.8247 0.26216 0.01509 0.0
H106 H 0.80958 0.12906 0.0187 0.0
H107 H 0.7138 0.25799 0.10607 0.0
H108 H 0.73318 0.1908 0.17149 0.0
H109 H 0.77493 0.14338 0.16791 0.0
H110 H 0.79756 0.16322 0.09894 0.0
C111 C 0.80647 0.20306 0.01661 0.0
C112 C 0.78164 0.23559 0.01891 0.0
C113 C 0.76858 0.22239 0.0593 0.0
C114 C 0.74445 0.24875 0.06123 0.0
C115 C 0.73201 0.23717 0.1024 0.0
C116 C 0.74297 0.19921 0.14031 0.0
C117 C 0.76647 0.17258 0.13831 0.0
C118 C 0.77924 0.18409 0.09844 0.0
H119 H 0.69669 0.17127 0.02527 0.0
C120 C 0.69136 0.24335 0.02355 0.0
H121 H 0.70272 0.38215 0.01975 0.0
H122 H 0.8013 0.26683 0.93544 0.0
H123 H 0.78206 0.33605 0.87052 0.0
H124 H 0.7404 0.3844 0.87434 0.0
H125 H 0.71769 0.36315 0.94308 0.0
C126 C 0.70781 0.31008 0.02324 0.0
C127 C 0.73336 0.28707 0.02251 0.0
C128 C 0.74656 0.30231 0.98244 0.0
C129 C 0.77068 0.27569 0.98046 0.0
C130 C 0.78312 0.28785 0.93931 0.0
C131 C 0.77224 0.32704 0.90163 0.0
C132 C 0.74878 0.35417 0.90376 0.0
C133 C 0.73597 0.34175 0.94351 0.0
H134 H 0.18849 0.65041 0.02259 0.0
C135 C 0.18506 0.72423 0.02087 0.0
H136 H 0.19992 0.85806 0.01862 0.0
H137 H 0.29727 0.72195 0.1018 0.0
H138 H 0.27881 0.78057 0.17015 0.0
H139 H 0.23697 0.82728 0.17023 0.0
H140 H 0.21328 0.815 0.102 0.0
C141 C 0.20313 0.78402 0.01916 0.0
C142 C 0.22802 0.75215 0.01937 0.0
C143 C 0.24169 0.76106 0.05929 0.0
C144 C 0.2659 0.73546 0.05905 0.0
C145 C 0.27896 0.74253 0.09978 0.0
C146 C 0.26855 0.77556 0.13933 0.0
C147 C 0.24498 0.80176 0.13939 0.0
C148 C 0.2316 0.79456 0.09998 0.0
H149 H 0.31256 0.82041 0.02229 0.0
C150 C 0.31824 0.74904 0.01849 0.0
H151 H 0.30746 0.60999 0.01161 0.0
H152 H 0.20682 0.72775 0.93682 0.0
H153 H 0.22517 0.66821 0.86863 0.0
H154 H 0.26712 0.62314 0.86827 0.0
H155 H 0.291 0.63769 0.93606 0.0
C156 C 0.3021 0.68123 0.01715 0.0
C157 C 0.27646 0.70257 0.0186 0.0
C158 C 0.26263 0.69163 0.97894 0.0
C159 C 0.2384 0.71699 0.97924 0.0
C160 C 0.2252 0.70829 0.93872 0.0
C161 C 0.23554 0.67448 0.89927 0.0
C162 C 0.25916 0.64915 0.89906 0.0
C163 C 0.27266 0.65772 0.93826 0.0
H164 H 0.80993 0.64839 0.51668 0.0
C165 C 0.81384 0.72182 0.51521 0.0
H166 H 0.8 0.85707 0.51104 0.0
H167 H 0.70188 0.74234 0.42826 0.0
H168 H 0.72086 0.80981 0.36269 0.0
H169 H 0.76285 0.85363 0.36499 0.0
H170 H 0.78616 0.82948 0.43281 0.0
C171 C 0.79614 0.78375 0.51394 0.0
C172 C 0.77087 0.75561 0.51287 0.0
C173 C 0.75734 0.77177 0.47324 0.0
C174 C 0.73301 0.74774 0.47213 0.0
C175 C 0.72022 0.76146 0.43147 0.0
C176 C 0.73094 0.79964 0.39342 0.0
C177 C 0.75459 0.82423 0.3947 0.0
C178 C 0.76774 0.81027 0.43395 0.0
H179 H 0.6835 0.81798 0.50771 0.0
C180 C 0.6793 0.74476 0.50896 0.0
H181 H 0.6927 0.60875 0.51269 0.0
H182 H 0.79114 0.72219 0.59558 0.0
H183 H 0.77216 0.65467 0.66113 0.0
H184 H 0.73017 0.61079 0.65881 0.0
H185 H 0.70687 0.6349 0.59098 0.0
C186 C 0.69679 0.68191 0.51005 0.0
C187 C 0.72214 0.70902 0.51098 0.0
C188 C 0.73568 0.6927 0.55058 0.0
C189 C 0.76001 0.71675 0.5517 0.0
C190 C 0.7728 0.70305 0.59236 0.0
C191 C 0.76208 0.66484 0.6304 0.0
C192 C 0.73843 0.64022 0.62911 0.0
C193 C 0.72528 0.65416 0.58986 0.0
H194 H 0.18737 0.36087 0.50788 0.0
C195 C 0.18378 0.28741 0.51108 0.0
H196 H 0.19833 0.1533 0.51606 0.0
H197 H 0.29598 0.26758 0.4287 0.0
H198 H 0.27718 0.19703 0.36361 0.0
H199 H 0.23523 0.15256 0.36596 0.0
H200 H 0.21177 0.17921 0.4334 0.0
C201 C 0.20176 0.22708 0.51422 0.0
C202 C 0.22685 0.25707 0.51268 0.0
C203 C 0.24046 0.23932 0.4734 0.0
C204 C 0.26478 0.26339 0.47236 0.0
C205 C 0.27766 0.2482 0.43194 0.0
C206 C 0.26703 0.2083 0.39415 0.0
C207 C 0.24341 0.18337 0.39546 0.0
C208 C 0.23017 0.1988 0.43444 0.0
H209 H 0.313 0.18923 0.5087 0.0
C210 C 0.31798 0.26171 0.50979 0.0
H211 H 0.30594 0.39976 0.51289 0.0
H212 H 0.20599 0.29805 0.59389 0.0
H213 H 0.22473 0.36894 0.65902 0.0
H214 H 0.26685 0.41091 0.65726 0.0
H215 H 0.29054 0.38185 0.59038 0.0
C216 C 0.30114 0.3272 0.51074 0.0
C217 C 0.27558 0.30331 0.51108 0.0
C218 C 0.26186 0.3223 0.55014 0.0
C219 C 0.2375 0.29873 0.55105 0.0
C220 C 0.22444 0.31585 0.59104 0.0
C221 C 0.235 0.35622 0.62877 0.0
C222 C 0.25872 0.37981 0.62778 0.0
C223 C 0.2721 0.36296 0.58911 0.0
H224 H 0.60783 0.51983 0.12888 0.0
C225 C 0.61019 0.44531 0.12983 0.0
H226 H 0.61347 0.32671 0.171 0.0
H227 H 0.6437 0.65608 0.31574 0.0
H228 H 0.67752 0.68084 0.26716 0.0
H229 H 0.68109 0.59912 0.19415 0.0
H230 H 0.65081 0.49286 0.16918 0.0
C231 C 0.61159 0.40143 0.16981 0.0
C232 C 0.60962 0.45165 0.21359 0.0
C233 C 0.62769 0.51292 0.22784 0.0
C234 C 0.62585 0.55875 0.27031 0.0
C235 C 0.64415 0.61949 0.28379 0.0
C236 C 0.66372 0.63418 0.25629 0.0
C237 C 0.66571 0.58829 0.21517 0.0
C238 C 0.64806 0.52791 0.20107 0.0
H239 H 0.60895 0.46259 0.38077 0.0
C240 C 0.6073 0.53736 0.38244 0.0
H241 H 0.60411 0.66158 0.34542 0.0
H242 H 0.57196 0.33875 0.19632 0.0
H243 H 0.53807 0.3144 0.24488 0.0
H244 H 0.5346 0.39572 0.31802 0.0
H245 H 0.56507 0.50129 0.34318 0.0
C246 C 0.60514 0.58661 0.34411 0.0
C247 C 0.60627 0.54157 0.29888 0.0
C248 C 0.58807 0.48118 0.28441 0.0
C249 C 0.58988 0.43548 0.2419 0.0
C250 C 0.57153 0.37512 0.22834 0.0
C251 C 0.55192 0.36072 0.25581 0.0
C252 C 0.54999 0.40641 0.29701 0.0
C253 C 0.56772 0.46634 0.31121 0.0
H254 H 0.413 0.51012 0.12872 0.0
C255 C 0.40161 0.5704 0.12711 0.0
H256 H 0.3802 0.66445 0.16263 0.0
H257 H 0.40055 0.31527 0.30796 0.0
H258 H 0.38584 0.21078 0.25031 0.0
H259 H 0.37364 0.2695 0.17547 0.0
H260 H 0.37715 0.43183 0.15722 0.0
C261 C 0.39149 0.60388 0.16497 0.0
C262 C 0.39651 0.56721 0.2113 0.0
C263 C 0.39226 0.47321 0.22251 0.0
C264 C 0.397 0.44082 0.26712 0.0
C265 C 0.39537 0.34476 0.27582 0.0
C266 C 0.38722 0.28382 0.24286 0.0
C267 C 0.38052 0.31677 0.20064 0.0
C268 C 0.38291 0.41024 0.19043 0.0
H269 H 0.3703 0.41651 0.35107 0.0
C270 C 0.38605 0.43239 0.37054 0.0
H271 H 0.4203 0.48796 0.36969 0.0
H272 H 0.40903 0.74905 0.20075 0.0
H273 H 0.42162 0.85437 0.25969 0.0
H274 H 0.42534 0.80197 0.33881 0.0
H275 H 0.41685 0.64361 0.3593 0.0
C276 C 0.40439 0.47411 0.35034 0.0
C277 C 0.40325 0.50426 0.3019 0.0
C278 C 0.4077 0.59791 0.29067 0.0
C279 C 0.40478 0.6289 0.24525 0.0
C280 C 0.41022 0.72213 0.23483 0.0
C281 C 0.4176 0.78342 0.26833 0.0
C282 C 0.41974 0.75387 0.31284 0.0
C283 C 0.41484 0.66246 0.3241 0.0
H284 H 0.37208 0.61058 0.85106 0.0
C285 C 0.38811 0.59644 0.87004 0.0
H286 H 0.42261 0.54297 0.86801 0.0
H287 H 0.4096 0.27939 0.69994 0.0
H288 H 0.42292 0.17477 0.75853 0.0
H289 H 0.42753 0.22806 0.83736 0.0
H290 H 0.41928 0.38674 0.85789 0.0
C291 C 0.40646 0.55594 0.84923 0.0
C292 C 0.40487 0.5253 0.80087 0.0
C293 C 0.40925 0.43156 0.7896 0.0
C294 C 0.40578 0.40003 0.74438 0.0
C295 C 0.41117 0.30672 0.73391 0.0
C296 C 0.41898 0.24582 0.7672 0.0
C297 C 0.42162 0.27587 0.81154 0.0
C298 C 0.41684 0.36744 0.82283 0.0
H299 H 0.41223 0.51875 0.62742 0.0
C300 C 0.40106 0.45786 0.62632 0.0
H301 H 0.38045 0.36291 0.66278 0.0
H302 H 0.40181 0.71416 0.80683 0.0
H303 H 0.38612 0.81778 0.74977 0.0
H304 H 0.37302 0.75807 0.67565 0.0
H305 H 0.3766 0.59566 0.65748 0.0
C306 C 0.39153 0.42408 0.66462 0.0
C307 C 0.397 0.46124 0.71072 0.0
C308 C 0.39273 0.55528 0.72199 0.0
C309 C 0.39803 0.58822 0.7663 0.0
C310 C 0.3963 0.68429 0.77497 0.0
C311 C 0.38757 0.74472 0.74234 0.0
C312 C 0.38035 0.71122 0.70052 0.0
C313 C 0.3828 0.61771 0.69032 0.0
H314 H 0.63552 0.40123 0.85792 0.0
C315 C 0.61942 0.40954 0.87745 0.0
H316 H 0.58397 0.45321 0.87707 0.0
H317 H 0.59251 0.72606 0.71131 0.0
H318 H 0.57773 0.82551 0.77091 0.0
H319 H 0.57386 0.76827 0.84917 0.0
H320 H 0.58442 0.61079 0.86817 0.0
C321 C 0.60015 0.44552 0.85775 0.0
C322 C 0.60077 0.47791 0.80977 0.0
C323 C 0.59501 0.57092 0.79948 0.0
C324 C 0.59788 0.6047 0.75456 0.0
C325 C 0.59126 0.69716 0.74499 0.0
C326 C 0.58266 0.75507 0.77887 0.0
C327 C 0.58045 0.72281 0.82292 0.0
C328 C 0.58656 0.63202 0.83333 0.0
H329 H 0.59007 0.48566 0.64013 0.0
C330 C 0.60081 0.54746 0.63708 0.0
H331 H 0.6216 0.64663 0.67072 0.0
H332 H 0.60658 0.28978 0.81419 0.0
H333 H 0.6234 0.19153 0.75601 0.0
H334 H 0.63521 0.25638 0.68218 0.0
H335 H 0.6292 0.41839 0.66549 0.0
C336 C 0.61108 0.58422 0.67394 0.0
C337 C 0.60721 0.54629 0.7203 0.0
C338 C 0.61292 0.45304 0.73066 0.0
C339 C 0.60834 0.41762 0.77466 0.0
C340 C 0.61148 0.32179 0.7825 0.0
C341 C 0.62088 0.26439 0.74923 0.0
C342 C 0.62737 0.30075 0.70759 0.0
C343 C 0.62353 0.39389 0.69826 0.0
H344 H 0.11061 0.03366 0.13742 0.0
C345 C 0.11253 0.95894 0.13784 0.0
H346 H 0.11565 0.83913 0.17821 0.0
H347 H 0.15039 0.15818 0.32477 0.0
H348 H 0.18382 0.18037 0.27494 0.0
H349 H 0.18573 0.10178 0.2009 0.0
H350 H 0.15419 0.00105 0.17614 0.0
C351 C 0.11439 0.91407 0.17761 0.0
C352 C 0.11332 0.96297 0.22203 0.0
C353 C 0.13204 0.02131 0.23612 0.0
C354 C 0.13107 0.06571 0.27913 0.0
C355 C 0.15008 0.12317 0.2924 0.0
C356 C 0.16946 0.13627 0.26419 0.0
C357 C 0.17053 0.09209 0.2225 0.0
C358 C 0.15217 0.03486 0.20856 0.0
H359 H 0.11265 0.97878 0.39295 0.0
C360 C 0.11194 0.05382 0.39261 0.0
H361 H 0.11059 0.17435 0.35252 0.0
H362 H 0.07479 0.85418 0.20583 0.0
H363 H 0.04131 0.83188 0.25563 0.0
H364 H 0.03917 0.91164 0.32935 0.0
H365 H 0.07055 0.01341 0.35391 0.0
C366 C 0.1107 0.09924 0.35291 0.0
C367 C 0.11159 0.05069 0.30834 0.0
C368 C 0.09285 0.99244 0.29421 0.0
C369 C 0.09387 0.94776 0.25126 0.0
C370 C 0.07497 0.88967 0.23809 0.0
C371 C 0.05559 0.87649 0.26628 0.0
C372 C 0.0544 0.92131 0.3078 0.0
C373 C 0.07267 0.97907 0.32165 0.0
H374 H 0.89044 0.00771 0.3855 0.0
C375 C 0.8875 0.93351 0.38667 0.0
H376 H 0.88302 0.811 0.34863 0.0
H377 H 0.85655 0.14458 0.20183 0.0
H378 H 0.82176 0.16881 0.24792 0.0
H379 H 0.81633 0.08365 0.3195 0.0
H380 H 0.8457 0.97396 0.34539 0.0
C381 C 0.88522 0.88559 0.34804 0.0
C382 C 0.88754 0.93225 0.30356 0.0
C383 C 0.87003 0.99544 0.28876 0.0
C384 C 0.87303 0.04362 0.24728 0.0
C385 C 0.85527 0.10628 0.23317 0.0
C386 C 0.83514 0.12071 0.25925 0.0
C387 C 0.8321 0.07285 0.29955 0.0
C388 C 0.84921 0.01055 0.3142 0.0
H389 H 0.8928 0.95524 0.13714 0.0
C390 C 0.89453 0.03006 0.13716 0.0
H391 H 0.89687 0.1511 0.17685 0.0
H392 H 0.92387 0.81298 0.32163 0.0
H393 H 0.95873 0.7886 0.27561 0.0
H394 H 0.96446 0.87515 0.20453 0.0
H395 H 0.93531 0.98599 0.17891 0.0
C396 C 0.89584 0.0761 0.1765 0.0
C397 C 0.89331 0.02728 0.22041 0.0
C398 C 0.91078 0.96379 0.23514 0.0
C399 C 0.90771 0.91529 0.27654 0.0
C400 C 0.92532 0.85188 0.29048 0.0
C401 C 0.94545 0.83732 0.26444 0.0
C402 C 0.94866 0.88592 0.22439 0.0
C403 C 0.93166 0.94886 0.20987 0.0
H404 H 0.88767 0.01536 0.63814 0.0
C405 C 0.88812 0.94024 0.63778 0.0
H406 H 0.89092 0.81867 0.67711 0.0
H407 H 0.93881 0.04714 0.83756 0.0
H408 H 0.9733 0.9722 0.80573 0.0
H409 H 0.97049 0.88258 0.73483 0.0
H410 H 0.93318 0.86799 0.69516 0.0
C411 C 0.88968 0.89362 0.67687 0.0
C412 C 0.89098 0.9436 0.72065 0.0
C413 C 0.91277 0.94942 0.74391 0.0
C414 C 0.91429 -0.00039 0.78518 0.0
C415 C 0.9365 0.00761 0.80679 0.0
C416 C 0.95648 0.96546 0.78871 0.0
C417 C 0.95491 0.91513 0.74875 0.0
C418 C 0.93338 0.90721 0.72637 0.0
H419 H 0.90067 0.96772 0.88494 0.0
C420 C 0.89789 0.04201 0.88634 0.0
H421 H 0.89126 0.16366 0.84893 0.0
H422 H 0.84622 0.94133 0.68559 0.0
H423 H 0.81175 0.01657 0.71724 0.0
H424 H 0.8144 0.10441 0.78869 0.0
H425 H 0.85152 0.11727 0.82896 0.0
C426 C 0.89487 0.08991 0.84791 0.0
C427 C 0.89385 0.04193 0.80351 0.0
C428 C 0.87208 0.03659 0.78008 0.0
C429 C 0.8706 0.98675 0.73871 0.0
C430 C 0.84847 0.97994 0.71667 0.0
C431 C 0.8285 0.02238 0.73459 0.0
C432 C 0.82999 0.07175 0.77484 0.0
C433 C 0.85144 0.07872 0.79756 0.0
H434 H 0.1159 0.83131 0.85471 0.0
C435 C 0.11431 0.88831 0.87853 0.0
H436 H 0.11022 0.03264 0.88571 0.0
H437 H 0.15307 0.97815 0.6765 0.0
H438 H 0.18908 0.92894 0.71377 0.0
H439 H 0.19063 0.91092 0.79678 0.0
H440 H 0.1562 0.94141 0.84298 0.0
C441 C 0.11259 0.97489 0.86262 0.0
C442 C 0.11237 0.99268 0.81284 0.0
C443 C 0.13283 0.97599 0.78636 0.0
C444 C 0.13207 0.98813 0.73854 0.0
C445 C 0.15269 0.97033 0.71293 0.0
C446 C 0.17349 0.94216 0.73389 0.0
C447 C 0.17435 0.93187 0.78061 0.0
C448 C 0.15437 0.9489 0.80671 0.0
H449 H 0.11084 0.18128 0.67584 0.0
C450 C 0.11113 0.12413 0.65192 0.0
H451 H 0.11209 0.97896 0.64452 0.0
H452 H 0.07021 0.03217 0.8535 0.0
H453 H 0.03431 0.08241 0.81616 0.0
H454 H 0.03302 0.10312 0.73329 0.0
H455 H 0.06762 0.0738 0.68722 0.0
C456 C 0.11091 0.03719 0.66766 0.0
C457 C 0.1111 0.01927 0.71737 0.0
C458 C 0.09069 0.03647 0.74384 0.0
C459 C 0.09138 0.02372 0.79162 0.0
C460 C 0.07069 0.04092 0.81713 0.0
C461 C 0.04995 0.06967 0.79613 0.0
C462 C 0.04923 0.08142 0.74947 0.0
C463 C 0.06927 0.06485 0.72345 0.0
H464 H 0.43994 0.96486 0.99646 0.0
C465 C 0.44435 0.89177 0.99725 0.0
H466 H 0.47159 0.79217 0.99841 0.0
H467 H 0.54981 0.05535 0.91825 0.0
H468 H 0.5437 0.94979 0.85557 0.0
H469 H 0.51144 0.83571 0.85732 0.0
H470 H 0.48503 0.82675 0.92172 0.0
C471 C 0.46705 0.86516 0.99869 0.0
C472 C 0.4867 0.93322 0.99838 0.0
C473 C 0.50217 0.93674 0.96071 0.0
C474 C 0.52095 0.00181 0.95992 0.0
C475 C 0.53563 0.00584 0.92119 0.0
C476 C 0.53223 0.94601 0.88479 0.0
C477 C 0.51406 0.88183 0.88576 0.0
C478 C 0.49907 0.87725 0.92304 0.0
H479 H 0.57112 0.03354 0.00296 0.0
C480 C 0.56649 0.1063 0.00081 0.0
H481 H 0.53895 0.20414 0.99594 0.0
H482 H 0.46212 0.93701 0.07842 0.0
H483 H 0.46857 0.04115 0.14143 0.0
H484 H 0.50049 0.1567 0.13919 0.0
H485 H 0.52627 0.1681 0.07401 0.0
C486 C 0.54378 0.13145 0.99664 0.0
C487 C 0.52441 0.06231 0.99715 0.0
C488 C 0.50908 0.05822 0.035 0.0
C489 C 0.49038 0.99283 0.03591 0.0
C490 C 0.47609 0.98732 0.07515 0.0
C491 C 0.47972 0.04626 0.1118 0.0
C492 C 0.4977 0.11122 0.11057 0.0
C493 C 0.51233 0.11719 0.07283 0.0
H494 H 0.5295 0.76922 0.50529 0.0
C495 C 0.54546 0.81064 0.50708 0.0
H496 H 0.55934 0.94563 0.51196 0.0
H497 H 0.44964 0.00355 0.43358 0.0
H498 H 0.4639 0.92998 0.36494 0.0
H499 H 0.50429 0.86709 0.36094 0.0
H500 H 0.53053 0.87617 0.42565 0.0
C501 C 0.54368 0.90301 0.50855 0.0
C502 C 0.52007 0.94831 0.50917 0.0
C503 C 0.50523 0.94492 0.47047 0.0
C504 C 0.48222 0.98402 0.47222 0.0
C505 C 0.46748 0.97699 0.43366 0.0
C506 C 0.47541 0.93469 0.39411 0.0
C507 C 0.49812 0.89902 0.39191 0.0
C508 C 0.51295 0.90411 0.42945 0.0
H509 H 0.46387 0.18881 0.47447 0.0
C510 C 0.44888 0.15952 0.49235 0.0
H511 H 0.43693 0.04877 0.53287 0.0
H512 H 0.544 0.96715 0.58919 0.0
H513 H 0.5299 0.04343 0.65719 0.0
H514 H 0.49032 0.11403 0.65959 0.0
H515 H 0.46452 0.10838 0.59404 0.0
C516 C 0.4512 0.07732 0.51278 0.0
C517 C 0.47437 0.02894 0.51213 0.0
C518 C 0.4892 0.03261 0.55072 0.0
C519 C 0.5121 0.9925 0.54921 0.0
C520 C 0.52651 0.997 0.58834 0.0
C521 C 0.51863 0.04052 0.62763 0.0
C522 C 0.49634 0.08025 0.62898 0.0
C523 C 0.48172 0.07656 0.5911 0.0
H524 H 0.03556 0.71781 0.01693 0.0
C525 C 0.0515 0.67625 0.0192 0.0
H526 H 0.06552 0.54132 0.02412 0.0
H527 H 0.97006 0.37728 0.1024 0.0
H528 H 0.99484 0.37357 0.16932 0.0
H529 H 0.03435 0.44464 0.16877 0.0
H530 H 0.04928 0.52014 0.10131 0.0
C531 C 0.04982 0.58385 0.02072 0.0
C532 C 0.02641 0.53762 0.0201 0.0
C533 C 0.01814 0.49236 0.05955 0.0
C534 C 0.99549 0.45042 0.05969 0.0
C535 C 0.98735 0.40831 0.10004 0.0
C536 C 1.00134 0.4062 0.13881 0.0
C537 C 0.02357 0.4463 0.13852 0.0
C538 C 0.03194 0.48927 0.09952 0.0
H539 H 0.97327 0.27191 0.01936 0.0
C540 C 0.95707 0.31207 0.01834 0.0
H541 H 0.94221 0.44601 0.01674 0.0
H542 H 0.03778 0.61126 0.93735 0.0
H543 H 0.01288 0.61563 0.87067 0.0
H544 H 0.97319 0.54617 0.8716 0.0
H545 H 0.95824 0.47133 0.93921 0.0
C546 C 0.95816 0.40464 0.01918 0.0
C547 C 0.98132 0.45259 0.02011 0.0
C548 C 0.98952 0.49818 0.98073 0.0
C549 C 0.01222 0.53976 0.98049 0.0
C550 C 0.02041 0.5811 0.93997 0.0
C551 C 0.00636 0.58347 0.90128 0.0
C552 C 0.98403 0.54424 0.90178 0.0
C553 C 0.97565 0.50163 0.94085 0.0
H554 H 0.03303 0.28022 0.51064 0.0
C555 C 0.04834 0.32536 0.50969 0.0
H556 H 0.06023 0.46347 0.50705 0.0
H557 H 0.9636 0.61198 0.42597 0.0
H558 H 0.98951 0.62811 0.36118 0.0
H559 H 0.03008 0.56675 0.36323 0.0
H560 H 0.04496 0.48855 0.43003 0.0
C561 C 0.04518 0.41729 0.50914 0.0
C562 C 0.02101 0.45798 0.50902 0.0
C563 C 0.0127 0.50491 0.47001 0.0
C564 C 0.9894 0.54144 0.46906 0.0
C565 C 0.98133 0.58513 0.42903 0.0
C566 C 0.99597 0.59428 0.39144 0.0
C567 C 0.0188 0.55963 0.39257 0.0
C568 C 0.02713 0.51505 0.4312 0.0
H569 H 0.96409 0.71091 0.50959 0.0
C570 C 0.94837 0.66797 0.5096 0.0
H571 H 0.93526 0.53139 0.50932 0.0
H572 H 0.03204 0.38016 0.59104 0.0
H573 H 0.00609 0.36378 0.65563 0.0
H574 H 0.96538 0.4236 0.65319 0.0
H575 H 0.95045 0.50077 0.58615 0.0
C576 C 0.95069 0.57575 0.50791 0.0
C577 C 0.97455 0.53245 0.50748 0.0
C578 C 0.98281 0.48515 0.54641 0.0
C579 C 0.00614 0.44897 0.54745 0.0
C580 C 0.01426 0.40618 0.5877 0.0
C581 C 0.99959 0.39698 0.62523 0.0
C582 C 0.97669 0.4308 0.62389 0.0
C583 C 0.96833 0.47482 0.58514 0.0
loop_
_geom_bond_atom_site_label_1
_geom_bond_atom_site_label_2
_geom_bond_distance
_geom_bond_site_symmetry_2
_ccdc_geom_bond_type
In0 O1 2.294 1_554 S
In0 O2 2.326 1_554 S
In0 O6 2.266 . S
In0 O7 2.326 . S
In0 O8 2.266 . S
In0 O9 2.326 . S
In0 O11 2.294 . S
In0 O12 2.326 . S
O1 In0 2.294 1_556 S
O1 C10 1.240 . S
O2 In0 2.326 1_556 S
O2 C10 1.252 . S
C3 O6 1.252 . S
C3 O7 1.260 . S
C4 O11 1.240 . S
C4 O12 1.252 . S
C5 O8 1.252 . S
C5 O9 1.260 . S
O6 In0 2.266 . S
O6 C3 1.252 . S
O7 In0 2.326 . S
O7 C3 1.260 . S
O8 In0 2.266 . S
O8 C5 1.252 . S
O9 In0 2.326 . S
O9 C5 1.260 . S
C10 O1 1.240 . S
C10 O2 1.252 . S
O11 In0 2.294 . S
O11 C4 1.240 . S
O12 In0 2.326 . S
O12 C4 1.252 . S
In13 O14 2.294 . S
In13 O15 2.326 . S
In13 O19 2.266 . S
In13 O20 2.326 . S
In13 O21 2.266 . S
In13 O22 2.326 . S
In13 O24 2.294 1_554 S
In13 O25 2.326 1_554 S
O14 In13 2.294 . S
O14 C23 1.240 . S
O15 In13 2.326 . S
O15 C23 1.252 . S
C16 O19 1.252 . S
C16 O20 1.260 . S
C17 O24 1.240 . S
C17 O25 1.252 . S
C18 O21 1.252 . S
C18 O22 1.260 . S
O19 In13 2.266 . S
O19 C16 1.252 . S
O20 In13 2.326 . S
O20 C16 1.260 . S
O21 In13 2.266 . S
O21 C18 1.252 . S
O22 In13 2.326 . S
O22 C18 1.260 . S
C23 O14 1.240 . S
C23 O15 1.252 . S
O24 In13 2.294 1_556 S
O24 C17 1.240 . S
O25 In13 2.326 1_556 S
O25 C17 1.252 . S
In26 O27 2.294 . S
In26 O28 2.326 . S
In26 O32 2.266 . S
In26 O33 2.326 . S
In26 O34 2.266 . S
In26 O35 2.326 . S
In26 O37 2.294 . S
In26 O38 2.326 . S
O27 In26 2.294 . S
O27 C36 1.240 . S
O28 In26 2.326 . S
O28 C36 1.252 . S
C29 O32 1.252 . S
C29 O33 1.260 . S
C30 O37 1.240 . S
C30 O38 1.252 . S
C31 O34 1.252 . S
C31 O35 1.260 . S
O32 In26 2.266 . S
O32 C29 1.252 . S
O33 In26 2.326 . S
O33 C29 1.260 . S
O34 In26 2.266 . S
O34 C31 1.252 . S
O35 In26 2.326 . S
O35 C31 1.260 . S
C36 O27 1.240 . S
C36 O28 1.252 . S
O37 In26 2.294 . S
O37 C30 1.240 . S
O38 In26 2.326 . S
O38 C30 1.252 . S
In39 O40 2.294 . S
In39 O41 2.326 . S
In39 O45 2.266 . S
In39 O46 2.326 . S
In39 O47 2.266 . S
In39 O48 2.326 . S
In39 O50 2.294 . S
In39 O51 2.326 . S
O40 In39 2.294 . S
O40 C49 1.240 . S
O41 In39 2.326 . S
O41 C49 1.252 . S
C42 O45 1.252 . S
C42 O46 1.260 . S
C43 O50 1.240 . S
C43 O51 1.252 . S
C44 O47 1.252 . S
C44 O48 1.260 . S
O45 In39 2.266 . S
O45 C42 1.252 . S
O46 In39 2.326 . S
O46 C42 1.260 . S
O47 In39 2.266 . S
O47 C44 1.252 . S
O48 In39 2.326 . S
O48 C44 1.260 . S
C49 O40 1.240 . S
C49 O41 1.252 . S
O50 In39 2.294 . S
O50 C43 1.240 . S
O51 In39 2.326 . S
O51 C43 1.252 . S
In52 O53 2.294 . S
In52 O54 2.326 . S
In52 O58 2.266 . S
In52 O59 2.326 . S
In52 O60 2.266 . S
In52 O61 2.326 . S
In52 O63 2.294 1_554 S
In52 O64 2.326 1_554 S
O53 In52 2.294 . S
O53 C62 1.240 . S
O54 In52 2.326 . S
O54 C62 1.252 . S
C55 O58 1.252 . S
C55 O59 1.260 . S
C56 O63 1.240 . S
C56 O64 1.252 . S
C57 O60 1.252 . S
C57 O61 1.260 . S
O58 In52 2.266 . S
O58 C55 1.252 . S
O59 In52 2.326 . S
O59 C55 1.260 . S
O60 In52 2.266 . S
O60 C57 1.252 . S
O61 In52 2.326 . S
O61 C57 1.260 . S
C62 O53 1.240 . S
C62 O54 1.252 . S
O63 In52 2.294 1_556 S
O63 C56 1.240 . S
O64 In52 2.326 1_556 S
O64 C56 1.252 . S
In65 O66 2.294 1_554 S
In65 O67 2.326 1_554 S
In65 O71 2.266 . S
In65 O72 2.326 . S
In65 O73 2.266 . S
In65 O74 2.326 . S
In65 O76 2.294 . S
In65 O77 2.326 . S
O66 In65 2.294 1_556 S
O66 C75 1.240 . S
O67 In65 2.326 1_556 S
O67 C75 1.252 . S
C68 O71 1.252 . S
C68 O72 1.260 . S
C69 O76 1.240 . S
C69 O77 1.252 . S
C70 O73 1.252 . S
C70 O74 1.260 . S
O71 In65 2.266 . S
O71 C68 1.252 . S
O72 In65 2.326 . S
O72 C68 1.260 . S
O73 In65 2.266 . S
O73 C70 1.252 . S
O74 In65 2.326 . S
O74 C70 1.260 . S
C75 O66 1.240 . S
C75 O67 1.252 . S
O76 In65 2.294 . S
O76 C69 1.240 . S
O77 In65 2.326 . S
O77 C69 1.252 . S
In78 O79 2.294 . S
In78 O80 2.326 . S
In78 O84 2.266 . S
In78 O85 2.326 . S
In78 O86 2.266 . S
In78 O87 2.326 . S
In78 O89 2.294 . S
In78 O90 2.326 . S
O79 In78 2.294 . S
O79 C88 1.240 . S
O80 In78 2.326 . S
O80 C88 1.252 . S
C81 O84 1.252 . S
C81 O85 1.260 . S
C82 O89 1.240 . S
C82 O90 1.252 . S
C83 O86 1.252 . S
C83 O87 1.260 . S
O84 In78 2.266 . S
O84 C81 1.252 . S
O85 In78 2.326 . S
O85 C81 1.260 . S
O86 In78 2.266 . S
O86 C83 1.252 . S
O87 In78 2.326 . S
O87 C83 1.260 . S
C88 O79 1.240 . S
C88 O80 1.252 . S
O89 In78 2.294 . S
O89 C82 1.240 . S
O90 In78 2.326 . S
O90 C82 1.252 . S
In91 O92 2.294 . S
In91 O93 2.326 . S
In91 O97 2.266 . S
In91 O98 2.326 . S
In91 O99 2.266 . S
In91 O100 2.326 . S
In91 O102 2.294 . S
In91 O103 2.326 . S
O92 In91 2.294 . S
O92 C101 1.240 . S
O93 In91 2.326 . S
O93 C101 1.252 . S
C94 O97 1.252 . S
C94 O98 1.260 . S
C95 O102 1.240 . S
C95 O103 1.252 . S
C96 O99 1.252 . S
C96 O100 1.260 . S
O97 In91 2.266 . S
O97 C94 1.252 . S
O98 In91 2.326 . S
O98 C94 1.260 . S
O99 In91 2.266 . S
O99 C96 1.252 . S
O100 In91 2.326 . S
O100 C96 1.260 . S
C101 O92 1.240 . S
C101 O93 1.252 . S
O102 In91 2.294 . S
O102 C95 1.240 . S
O103 In91 2.326 . S
O103 C95 1.252 . S
H104 C105 0.951 . S
C105 H104 0.951 . S
C105 C111 1.265 . S
H106 C111 0.950 . S
H107 C115 0.949 . S
H108 C116 0.950 . S
H109 C117 0.951 . S
H110 C118 0.951 . S
C111 C105 1.265 . S
C111 H106 0.950 . S
C111 C112 1.478 . S
C112 C111 1.478 . S
C112 C113 1.397 . S
C112 C129 1.394 1_554 S
C113 C112 1.397 . S
C113 C114 1.438 . S
C113 C118 1.429 . S
C114 C113 1.438 . S
C114 C115 1.428 . S
C114 C127 1.394 . S
C115 H107 0.949 . S
C115 C114 1.428 . S
C115 C116 1.345 . S
C116 H108 0.950 . S
C116 C115 1.345 . S
C116 C117 1.424 . S
C117 H109 0.951 . S
C117 C116 1.424 . S
C117 C118 1.347 . S
C118 H110 0.951 . S
C118 C113 1.429 . S
C118 C117 1.347 . S
H119 C120 0.951 . S
C120 H119 0.951 . S
C120 C126 1.265 . S
H121 C126 0.950 . S
H122 C130 0.949 . S
H123 C131 0.950 . S
H124 C132 0.951 . S
H125 C133 0.951 . S
C126 C120 1.265 . S
C126 H121 0.950 . S
C126 C127 1.478 . S
C127 C114 1.394 . S
C127 C126 1.478 . S
C127 C128 1.397 1_554 S
C128 C127 1.397 1_556 S
C128 C129 1.438 . S
C128 C133 1.429 . S
C129 C112 1.394 1_556 S
C129 C128 1.438 . S
C129 C130 1.428 . S
C130 H122 0.949 . S
C130 C129 1.428 . S
C130 C131 1.345 . S
C131 H123 0.950 . S
C131 C130 1.345 . S
C131 C132 1.424 . S
C132 H124 0.951 . S
C132 C131 1.424 . S
C132 C133 1.347 . S
C133 H125 0.951 . S
C133 C128 1.429 . S
C133 C132 1.347 . S
H134 C135 0.951 . S
C135 H134 0.951 . S
C135 C141 1.265 . S
H136 C141 0.950 . S
H137 C145 0.949 . S
H138 C146 0.950 . S
H139 C147 0.951 . S
H140 C148 0.951 . S
C141 C135 1.265 . S
C141 H136 0.950 . S
C141 C142 1.478 . S
C142 C141 1.478 . S
C142 C143 1.397 . S
C142 C159 1.394 1_554 S
C143 C142 1.397 . S
C143 C144 1.438 . S
C143 C148 1.429 . S
C144 C143 1.438 . S
C144 C145 1.428 . S
C144 C157 1.394 . S
C145 H137 0.949 . S
C145 C144 1.428 . S
C145 C146 1.345 . S
C146 H138 0.950 . S
C146 C145 1.345 . S
C146 C147 1.424 . S
C147 H139 0.951 . S
C147 C146 1.424 . S
C147 C148 1.347 . S
C148 H140 0.951 . S
C148 C143 1.429 . S
C148 C147 1.347 . S
H149 C150 0.951 . S
C150 H149 0.951 . S
C150 C156 1.265 . S
H151 C156 0.947 1_556 S
H152 C160 0.949 . S
H153 C161 0.950 . S
H154 C162 0.951 . S
H155 C163 0.951 . S
C156 C150 1.265 . S
C156 H151 0.947 1_554 S
C156 C157 1.478 . S
C157 C144 1.394 . S
C157 C156 1.478 . S
C157 C158 1.397 1_554 S
C158 C157 1.397 1_556 S
C158 C159 1.438 . S
C158 C163 1.429 . S
C159 C142 1.394 1_556 S
C159 C158 1.438 . S
C159 C160 1.428 . S
C160 H152 0.949 . S
C160 C159 1.428 . S
C160 C161 1.345 . S
C161 H153 0.950 . S
C161 C160 1.345 . S
C161 C162 1.424 . S
C162 H154 0.951 . S
C162 C161 1.424 . S
C162 C163 1.347 . S
C163 H155 0.951 . S
C163 C158 1.429 . S
C163 C162 1.347 . S
H164 C165 0.951 . S
C165 H164 0.951 . S
C165 C171 1.265 . S
H166 C171 0.950 . S
H167 C175 0.949 . S
H168 C176 0.950 . S
H169 C177 0.951 . S
H170 C178 0.951 . S
C171 C165 1.265 . S
C171 H166 0.950 . S
C171 C172 1.478 . S
C172 C171 1.478 . S
C172 C173 1.397 . S
C172 C189 1.394 . S
C173 C172 1.397 . S
C173 C174 1.438 . S
C173 C178 1.429 . S
C174 C173 1.438 . S
C174 C175 1.428 . S
C174 C187 1.394 . S
C175 H167 0.949 . S
C175 C174 1.428 . S
C175 C176 1.345 . S
C176 H168 0.950 . S
C176 C175 1.345 . S
C176 C177 1.424 . S
C177 H169 0.951 . S
C177 C176 1.424 . S
C177 C178 1.347 . S
C178 H170 0.951 . S
C178 C173 1.429 . S
C178 C177 1.347 . S
H179 C180 0.951 . S
C180 H179 0.951 . S
C180 C186 1.265 . S
H181 C186 0.950 . S
H182 C190 0.949 . S
H183 C191 0.950 . S
H184 C192 0.951 . S
H185 C193 0.951 . S
C186 C180 1.265 . S
C186 H181 0.950 . S
C186 C187 1.478 . S
C187 C174 1.394 . S
C187 C186 1.478 . S
C187 C188 1.397 . S
C188 C187 1.397 . S
C188 C189 1.438 . S
C188 C193 1.429 . S
C189 C172 1.394 . S
C189 C188 1.438 . S
C189 C190 1.428 . S
C190 H182 0.949 . S
C190 C189 1.428 . S
C190 C191 1.345 . S
C191 H183 0.950 . S
C191 C190 1.345 . S
C191 C192 1.424 . S
C192 H184 0.951 . S
C192 C191 1.424 . S
C192 C193 1.347 . S
C193 H185 0.951 . S
C193 C188 1.429 . S
C193 C192 1.347 . S
H194 C195 0.951 . S
C195 H194 0.951 . S
C195 C201 1.265 . S
H196 C201 0.950 . S
H197 C205 0.949 . S
H198 C206 0.950 . S
H199 C207 0.951 . S
H200 C208 0.951 . S
C201 C195 1.265 . S
C201 H196 0.950 . S
C201 C202 1.478 . S
C202 C201 1.478 . S
C202 C203 1.397 . S
C202 C219 1.394 . S
C203 C202 1.397 . S
C203 C204 1.438 . S
C203 C208 1.429 . S
C204 C203 1.438 . S
C204 C205 1.428 . S
C204 C217 1.394 . S
C205 H197 0.949 . S
C205 C204 1.428 . S
C205 C206 1.345 . S
C206 H198 0.950 . S
C206 C205 1.345 . S
C206 C207 1.424 . S
C207 H199 0.951 . S
C207 C206 1.424 . S
C207 C208 1.347 . S
C208 H200 0.951 . S
C208 C203 1.429 . S
C208 C207 1.347 . S
H209 C210 0.951 . S
C210 H209 0.951 . S
C210 C216 1.265 . S
H211 C216 0.950 . S
H212 C220 0.949 . S
H213 C221 0.950 . S
H214 C222 0.951 . S
H215 C223 0.951 . S
C216 C210 1.265 . S
C216 H211 0.950 . S
C216 C217 1.478 . S
C217 C204 1.394 . S
C217 C216 1.478 . S
C217 C218 1.397 . S
C218 C217 1.397 . S
C218 C219 1.438 . S
C218 C223 1.429 . S
C219 C202 1.394 . S
C219 C218 1.438 . S
C219 C220 1.428 . S
C220 H212 0.949 . S
C220 C219 1.428 . S
C220 C221 1.345 . S
C221 H213 0.950 . S
C221 C220 1.345 . S
C221 C222 1.424 . S
C222 H214 0.951 . S
C222 C221 1.424 . S
C222 C223 1.347 . S
C223 H215 0.951 . S
C223 C218 1.429 . S
C223 C222 1.347 . S
H224 C225 0.951 . S
C225 H224 0.951 . S
C225 C231 1.265 . S
H226 C231 0.950 . S
H227 C235 0.949 . S
H228 C236 0.950 . S
H229 C237 0.951 . S
H230 C238 0.951 . S
C231 C225 1.265 . S
C231 H226 0.950 . S
C231 C232 1.478 . S
C232 C231 1.478 . S
C232 C233 1.397 . S
C232 C249 1.394 . S
C233 C232 1.397 . S
C233 C234 1.438 . S
C233 C238 1.429 . S
C234 C233 1.438 . S
C234 C235 1.428 . S
C234 C247 1.394 . S
C235 H227 0.949 . S
C235 C234 1.428 . S
C235 C236 1.345 . S
C236 H228 0.950 . S
C236 C235 1.345 . S
C236 C237 1.424 . S
C237 H229 0.951 . S
C237 C236 1.424 . S
C237 C238 1.347 . S
C238 H230 0.951 . S
C238 C233 1.429 . S
C238 C237 1.347 . S
H239 C240 0.951 . S
C240 H239 0.951 . S
C240 C246 1.265 . S
H241 C246 0.950 . S
H242 C250 0.949 . S
H243 C251 0.950 . S
H244 C252 0.951 . S
H245 C253 0.951 . S
C246 C240 1.265 . S
C246 H241 0.950 . S
C246 C247 1.478 . S
C247 C234 1.394 . S
C247 C246 1.478 . S
C247 C248 1.397 . S
C248 C247 1.397 . S
C248 C249 1.438 . S
C248 C253 1.429 . S
C249 C232 1.394 . S
C249 C248 1.438 . S
C249 C250 1.428 . S
C250 H242 0.949 . S
C250 C249 1.428 . S
C250 C251 1.345 . S
C251 H243 0.950 . S
C251 C250 1.345 . S
C251 C252 1.424 . S
C252 H244 0.951 . S
C252 C251 1.424 . S
C252 C253 1.347 . S
C253 H245 0.951 . S
C253 C248 1.429 . S
C253 C252 1.347 . S
H254 C255 0.951 . S
C255 H254 0.951 . S
C255 C261 1.265 . S
H256 C261 0.950 . S
H257 C265 0.949 . S
H258 C266 0.950 . S
H259 C267 0.951 . S
H260 C268 0.951 . S
C261 C255 1.265 . S
C261 H256 0.950 . S
C261 C262 1.478 . S
C262 C261 1.478 . S
C262 C263 1.397 . S
C262 C279 1.394 . S
C263 C262 1.397 . S
C263 C264 1.438 . S
C263 C268 1.429 . S
C264 C263 1.438 . S
C264 C265 1.428 . S
C264 C277 1.394 . S
C265 H257 0.949 . S
C265 C264 1.428 . S
C265 C266 1.345 . S
C266 H258 0.950 . S
C266 C265 1.345 . S
C266 C267 1.424 . S
C267 H259 0.951 . S
C267 C266 1.424 . S
C267 C268 1.347 . S
C268 H260 0.951 . S
C268 C263 1.429 . S
C268 C267 1.347 . S
H269 C270 0.951 . S
C270 H269 0.951 . S
C270 C276 1.265 . S
H271 C276 0.950 . S
H272 C280 0.949 . S
H273 C281 0.950 . S
H274 C282 0.951 . S
H275 C283 0.951 . S
C276 C270 1.265 . S
C276 H271 0.950 . S
C276 C277 1.478 . S
C277 C264 1.394 . S
C277 C276 1.478 . S
C277 C278 1.397 . S
C278 C277 1.397 . S
C278 C279 1.438 . S
C278 C283 1.429 . S
C279 C262 1.394 . S
C279 C278 1.438 . S
C279 C280 1.428 . S
C280 H272 0.949 . S
C280 C279 1.428 . S
C280 C281 1.345 . S
C281 H273 0.950 . S
C281 C280 1.345 . S
C281 C282 1.424 . S
C282 H274 0.951 . S
C282 C281 1.424 . S
C282 C283 1.347 . S
C283 H275 0.951 . S
C283 C278 1.429 . S
C283 C282 1.347 . S
H284 C285 0.951 . S
C285 H284 0.951 . S
C285 C291 1.265 . S
H286 C291 0.950 . S
H287 C295 0.949 . S
H288 C296 0.950 . S
H289 C297 0.951 . S
H290 C298 0.951 . S
C291 C285 1.265 . S
C291 H286 0.950 . S
C291 C292 1.478 . S
C292 C291 1.478 . S
C292 C293 1.397 . S
C292 C309 1.394 . S
C293 C292 1.397 . S
C293 C294 1.438 . S
C293 C298 1.429 . S
C294 C293 1.438 . S
C294 C295 1.428 . S
C294 C307 1.394 . S
C295 H287 0.949 . S
C295 C294 1.428 . S
C295 C296 1.345 . S
C296 H288 0.950 . S
C296 C295 1.345 . S
C296 C297 1.424 . S
C297 H289 0.951 . S
C297 C296 1.424 . S
C297 C298 1.347 . S
C298 H290 0.951 . S
C298 C293 1.429 . S
C298 C297 1.347 . S
H299 C300 0.951 . S
C300 H299 0.951 . S
C300 C306 1.265 . S
H301 C306 0.950 . S
H302 C310 0.949 . S
H303 C311 0.950 . S
H304 C312 0.951 . S
H305 C313 0.951 . S
C306 C300 1.265 . S
C306 H301 0.950 . S
C306 C307 1.478 . S
C307 C294 1.394 . S
C307 C306 1.478 . S
C307 C308 1.397 . S
C308 C307 1.397 . S
C308 C309 1.438 . S
C308 C313 1.429 . S
C309 C292 1.394 . S
C309 C308 1.438 . S
C309 C310 1.428 . S
C310 H302 0.949 . S
C310 C309 1.428 . S
C310 C311 1.345 . S
C311 H303 0.950 . S
C311 C310 1.345 . S
C311 C312 1.424 . S
C312 H304 0.951 . S
C312 C311 1.424 . S
C312 C313 1.347 . S
C313 H305 0.951 . S
C313 C308 1.429 . S
C313 C312 1.347 . S
H314 C315 0.951 . S
C315 H314 0.951 . S
C315 C321 1.265 . S
H316 C321 0.950 . S
H317 C325 0.949 . S
H318 C326 0.950 . S
H319 C327 0.951 . S
H320 C328 0.951 . S
C321 C315 1.265 . S
C321 H316 0.950 . S
C321 C322 1.478 . S
C322 C321 1.478 . S
C322 C323 1.397 . S
C322 C339 1.394 . S
C323 C322 1.397 . S
C323 C324 1.438 . S
C323 C328 1.429 . S
C324 C323 1.438 . S
C324 C325 1.428 . S
C324 C337 1.394 . S
C325 H317 0.949 . S
C325 C324 1.428 . S
C325 C326 1.345 . S
C326 H318 0.950 . S
C326 C325 1.345 . S
C326 C327 1.424 . S
C327 H319 0.951 . S
C327 C326 1.424 . S
C327 C328 1.347 . S
C328 H320 0.951 . S
C328 C323 1.429 . S
C328 C327 1.347 . S
H329 C330 0.951 . S
C330 H329 0.951 . S
C330 C336 1.265 . S
H331 C336 0.950 . S
H332 C340 0.949 . S
H333 C341 0.950 . S
H334 C342 0.951 . S
H335 C343 0.951 . S
C336 C330 1.265 . S
C336 H331 0.950 . S
C336 C337 1.478 . S
C337 C324 1.394 . S
C337 C336 1.478 . S
C337 C338 1.397 . S
C338 C337 1.397 . S
C338 C339 1.438 . S
C338 C343 1.429 . S
C339 C322 1.394 . S
C339 C338 1.438 . S
C339 C340 1.428 . S
C340 H332 0.949 . S
C340 C339 1.428 . S
C340 C341 1.345 . S
C341 H333 0.950 . S
C341 C340 1.345 . S
C341 C342 1.424 . S
C342 H334 0.951 . S
C342 C341 1.424 . S
C342 C343 1.347 . S
C343 H335 0.951 . S
C343 C338 1.429 . S
C343 C342 1.347 . S
H344 C345 0.951 . S
C345 H344 0.951 . S
C345 C351 1.265 . S
H346 C351 0.950 . S
H347 C355 0.949 . S
H348 C356 0.950 . S
H349 C357 0.951 . S
H350 C358 0.951 . S
C351 C345 1.265 . S
C351 H346 0.950 . S
C351 C352 1.478 . S
C352 C351 1.478 . S
C352 C353 1.397 1_565 S
C352 C369 1.394 . S
C353 C352 1.397 1_545 S
C353 C354 1.438 . S
C353 C358 1.429 . S
C354 C353 1.438 . S
C354 C355 1.428 . S
C354 C367 1.394 . S
C355 H347 0.949 . S
C355 C354 1.428 . S
C355 C356 1.345 . S
C356 H348 0.950 . S
C356 C355 1.345 . S
C356 C357 1.424 . S
C357 H349 0.951 . S
C357 C356 1.424 . S
C357 C358 1.347 . S
C358 H350 0.951 . S
C358 C353 1.429 . S
C358 C357 1.347 . S
H359 C360 0.951 . S
C360 H359 0.951 . S
C360 C366 1.265 . S
H361 C366 0.950 . S
H362 C370 0.949 . S
H363 C371 0.950 . S
H364 C372 0.951 . S
H365 C373 0.951 . S
C366 C360 1.265 . S
C366 H361 0.950 . S
C366 C367 1.478 . S
C367 C354 1.394 . S
C367 C366 1.478 . S
C367 C368 1.397 1_545 S
C368 C367 1.397 1_565 S
C368 C369 1.438 . S
C368 C373 1.429 . S
C369 C352 1.394 . S
C369 C368 1.438 . S
C369 C370 1.428 . S
C370 H362 0.949 . S
C370 C369 1.428 . S
C370 C371 1.345 . S
C371 H363 0.950 . S
C371 C370 1.345 . S
C371 C372 1.424 . S
C372 H364 0.951 . S
C372 C371 1.424 . S
C372 C373 1.347 . S
C373 H365 0.951 . S
C373 C368 1.429 . S
C373 C372 1.347 . S
H374 C375 0.951 . S
C375 H374 0.951 . S
C375 C381 1.265 . S
H376 C381 0.950 . S
H377 C385 0.949 . S
H378 C386 0.950 . S
H379 C387 0.951 . S
H380 C388 0.951 . S
C381 C375 1.265 . S
C381 H376 0.950 . S
C381 C382 1.478 . S
C382 C381 1.478 . S
C382 C383 1.397 1_565 S
C382 C399 1.394 . S
C383 C382 1.397 1_545 S
C383 C384 1.438 . S
C383 C388 1.429 . S
C384 C383 1.438 . S
C384 C385 1.428 . S
C384 C397 1.394 . S
C385 H377 0.949 . S
C385 C384 1.428 . S
C385 C386 1.345 . S
C386 H378 0.950 . S
C386 C385 1.345 . S
C386 C387 1.424 . S
C387 H379 0.951 . S
C387 C386 1.424 . S
C387 C388 1.347 . S
C388 H380 0.951 . S
C388 C383 1.429 . S
C388 C387 1.347 . S
H389 C390 0.951 . S
C390 H389 0.951 . S
C390 C396 1.265 . S
H391 C396 0.950 . S
H392 C400 0.949 . S
H393 C401 0.950 . S
H394 C402 0.951 . S
H395 C403 0.951 . S
C396 C390 1.265 . S
C396 H391 0.950 . S
C396 C397 1.478 . S
C397 C384 1.394 . S
C397 C396 1.478 . S
C397 C398 1.397 1_545 S
C398 C397 1.397 1_565 S
C398 C399 1.438 . S
C398 C403 1.429 . S
C399 C382 1.394 . S
C399 C398 1.438 . S
C399 C400 1.428 . S
C400 H392 0.949 . S
C400 C399 1.428 . S
C400 C401 1.345 . S
C401 H393 0.950 . S
C401 C400 1.345 . S
C401 C402 1.424 . S
C402 H394 0.951 . S
C402 C401 1.424 . S
C402 C403 1.347 . S
C403 H395 0.951 . S
C403 C398 1.429 . S
C403 C402 1.347 . S
H404 C405 0.951 . S
C405 H404 0.951 . S
C405 C411 1.265 . S
H406 C411 0.950 . S
H407 C415 0.949 1_545 S
H408 C416 0.950 . S
H409 C417 0.951 . S
H410 C418 0.951 . S
C411 C405 1.265 . S
C411 H406 0.950 . S
C411 C412 1.478 . S
C412 C411 1.478 . S
C412 C413 1.397 . S
C412 C429 1.391 1_565 S
C413 C412 1.397 . S
C413 C414 1.441 . S
C413 C418 1.429 . S
C414 C413 1.441 . S
C414 C415 1.428 . S
C414 C427 1.391 1_565 S
C415 H407 0.949 1_565 S
C415 C414 1.428 . S
C415 C416 1.345 . S
C416 H408 0.950 . S
C416 C415 1.345 . S
C416 C417 1.424 . S
C417 H409 0.951 . S
C417 C416 1.424 . S
C417 C418 1.347 . S
C418 H410 0.951 . S
C418 C413 1.429 . S
C418 C417 1.347 . S
H419 C420 0.951 . S
C420 H419 0.951 . S
C420 C426 1.265 . S
H421 C426 0.950 . S
H422 C430 0.949 1_565 S
H423 C431 0.950 . S
H424 C432 0.951 . S
H425 C433 0.951 . S
C426 C420 1.265 . S
C426 H421 0.950 . S
C426 C427 1.478 . S
C427 C414 1.391 1_545 S
C427 C426 1.478 . S
C427 C428 1.397 . S
C428 C427 1.397 . S
C428 C429 1.441 . S
C428 C433 1.429 . S
C429 C412 1.391 1_545 S
C429 C428 1.441 . S
C429 C430 1.428 . S
C430 H422 0.949 1_545 S
C430 C429 1.428 . S
C430 C431 1.345 . S
C431 H423 0.950 . S
C431 C430 1.345 . S
C431 C432 1.424 . S
C432 H424 0.951 . S
C432 C431 1.424 . S
C432 C433 1.347 . S
C433 H425 0.951 . S
C433 C428 1.429 . S
C433 C432 1.347 . S
H434 C435 0.951 . S
C435 H434 0.951 . S
C435 C441 1.265 . S
H436 C441 0.950 1_545 S
H437 C445 0.949 . S
H438 C446 0.950 . S
H439 C447 0.951 . S
H440 C448 0.951 . S
C441 C435 1.265 . S
C441 H436 0.950 1_565 S
C441 C442 1.478 . S
C442 C441 1.478 . S
C442 C443 1.397 . S
C442 C459 1.394 1_565 S
C443 C442 1.397 . S
C443 C444 1.438 . S
C443 C448 1.429 . S
C444 C443 1.438 . S
C444 C445 1.428 . S
C444 C457 1.394 1_565 S
C445 H437 0.949 . S
C445 C444 1.428 . S
C445 C446 1.345 . S
C446 H438 0.950 . S
C446 C445 1.345 . S
C446 C447 1.424 . S
C447 H439 0.951 . S
C447 C446 1.424 . S
C447 C448 1.347 . S
C448 H440 0.951 . S
C448 C443 1.429 . S
C448 C447 1.347 . S
H449 C450 0.951 . S
C450 H449 0.951 . S
C450 C456 1.265 . S
H451 C456 0.950 1_565 S
H452 C460 0.949 . S
H453 C461 0.950 . S
H454 C462 0.951 . S
H455 C463 0.951 . S
C456 C450 1.265 . S
C456 H451 0.950 1_545 S
C456 C457 1.478 . S
C457 C444 1.394 1_545 S
C457 C456 1.478 . S
C457 C458 1.397 . S
C458 C457 1.397 . S
C458 C459 1.438 . S
C458 C463 1.429 . S
C459 C442 1.394 1_545 S
C459 C458 1.438 . S
C459 C460 1.428 . S
C460 H452 0.949 . S
C460 C459 1.428 . S
C460 C461 1.345 . S
C461 H453 0.950 . S
C461 C460 1.345 . S
C461 C462 1.424 . S
C462 H454 0.951 . S
C462 C461 1.424 . S
C462 C463 1.347 . S
C463 H455 0.951 . S
C463 C458 1.429 . S
C463 C462 1.347 . S
H464 C465 0.951 . S
C465 H464 0.951 . S
C465 C471 1.265 1_554 S
H466 C471 0.950 . S
H467 C475 0.949 . S
H468 C476 0.950 . S
H469 C477 0.951 . S
H470 C478 0.951 . S
C471 C465 1.265 1_556 S
C471 H466 0.950 . S
C471 C472 1.478 . S
C472 C471 1.478 . S
C472 C473 1.397 . S
C472 C489 1.394 1_556 S
C473 C472 1.397 . S
C473 C474 1.438 1_565 S
C473 C478 1.429 . S
C474 C473 1.438 1_545 S
C474 C475 1.428 . S
C474 C487 1.394 1_556 S
C475 H467 0.949 . S
C475 C474 1.428 . S
C475 C476 1.345 . S
C476 H468 0.950 . S
C476 C475 1.345 . S
C476 C477 1.424 1_545 S
C477 H469 0.951 . S
C477 C476 1.424 1_565 S
C477 C478 1.347 . S
C478 H470 0.951 . S
C478 C473 1.429 . S
C478 C477 1.347 . S
H479 C480 0.951 . S
C480 H479 0.951 . S
C480 C486 1.265 1_556 S
H481 C486 0.950 . S
H482 C490 0.949 . S
H483 C491 0.950 . S
H484 C492 0.951 . S
H485 C493 0.951 . S
C486 C480 1.265 1_554 S
C486 H481 0.950 . S
C486 C487 1.478 . S
C487 C474 1.394 1_554 S
C487 C486 1.478 . S
C487 C488 1.397 . S
C488 C487 1.397 . S
C488 C489 1.438 1_545 S
C488 C493 1.429 . S
C489 C472 1.394 1_554 S
C489 C488 1.438 1_565 S
C489 C490 1.428 . S
C490 H482 0.949 . S
C490 C489 1.428 . S
C490 C491 1.345 . S
C491 H483 0.950 . S
C491 C490 1.345 . S
C491 C492 1.424 1_565 S
C492 H484 0.951 . S
C492 C491 1.424 1_545 S
C492 C493 1.347 . S
C493 H485 0.951 . S
C493 C488 1.429 . S
C493 C492 1.347 . S
H494 C495 0.951 . S
C495 H494 0.951 . S
C495 C501 1.265 . S
H496 C501 0.950 . S
H497 C505 0.949 1_545 S
H498 C506 0.950 . S
H499 C507 0.951 . S
H500 C508 0.951 . S
C501 C495 1.265 . S
C501 H496 0.950 . S
C501 C502 1.478 . S
C502 C501 1.478 . S
C502 C503 1.397 . S
C502 C519 1.390 1_565 S
C503 C502 1.397 . S
C503 C504 1.442 . S
C503 C508 1.429 . S
C504 C503 1.442 . S
C504 C505 1.428 . S
C504 C517 1.390 1_565 S
C505 H497 0.949 1_565 S
C505 C504 1.428 . S
C505 C506 1.345 . S
C506 H498 0.950 . S
C506 C505 1.345 . S
C506 C507 1.424 . S
C507 H499 0.951 . S
C507 C506 1.424 . S
C507 C508 1.347 . S
C508 H500 0.951 . S
C508 C503 1.429 . S
C508 C507 1.347 . S
H509 C510 0.951 . S
C510 H509 0.951 . S
C510 C516 1.265 . S
H511 C516 0.950 . S
H512 C520 0.949 1_565 S
H513 C521 0.950 . S
H514 C522 0.951 . S
H515 C523 0.951 . S
C516 C510 1.265 . S
C516 H511 0.950 . S
C516 C517 1.478 . S
C517 C504 1.390 1_545 S
C517 C516 1.478 . S
C517 C518 1.397 . S
C518 C517 1.397 . S
C518 C519 1.442 . S
C518 C523 1.429 . S
C519 C502 1.390 1_545 S
C519 C518 1.442 . S
C519 C520 1.428 . S
C520 H512 0.949 1_545 S
C520 C519 1.428 . S
C520 C521 1.345 . S
C521 H513 0.950 . S
C521 C520 1.345 . S
C521 C522 1.424 . S
C522 H514 0.951 . S
C522 C521 1.424 . S
C522 C523 1.347 . S
C523 H515 0.951 . S
C523 C518 1.429 . S
C523 C522 1.347 . S
H524 C525 0.953 . S
C525 H524 0.953 . S
C525 C531 1.263 1_556 S
H526 C531 0.950 . S
H527 C535 0.949 . S
H528 C536 0.950 . S
H529 C537 0.951 . S
H530 C538 0.951 . S
C531 C525 1.263 1_554 S
C531 H526 0.950 . S
C531 C532 1.478 . S
C532 C531 1.478 . S
C532 C533 1.397 . S
C532 C549 1.394 1_554 S
C533 C532 1.397 . S
C533 C534 1.438 1_455 S
C533 C538 1.429 . S
C534 C533 1.438 1_655 S
C534 C535 1.428 . S
C534 C547 1.394 1_554 S
C535 H527 0.949 . S
C535 C534 1.428 . S
C535 C536 1.345 . S
C536 H528 0.950 . S
C536 C535 1.345 . S
C536 C537 1.424 1_655 S
C537 H529 0.951 . S
C537 C536 1.424 1_455 S
C537 C538 1.347 . S
C538 H530 0.951 . S
C538 C533 1.429 . S
C538 C537 1.347 . S
H539 C540 0.954 . S
C540 H539 0.954 . S
C540 C546 1.263 1_554 S
H541 C546 0.950 . S
H542 C550 0.949 . S
H543 C551 0.950 . S
H544 C552 0.951 . S
H545 C553 0.951 . S
C546 C540 1.263 1_556 S
C546 H541 0.950 . S
C546 C547 1.478 . S
C547 C534 1.394 1_556 S
C547 C546 1.478 . S
C547 C548 1.397 . S
C548 C547 1.397 . S
C548 C549 1.438 1_655 S
C548 C553 1.429 . S
C549 C532 1.394 1_556 S
C549 C548 1.438 1_455 S
C549 C550 1.428 . S
C550 H542 0.949 . S
C550 C549 1.428 . S
C550 C551 1.345 . S
C551 H543 0.950 . S
C551 C550 1.345 . S
C551 C552 1.424 1_455 S
C552 H544 0.951 . S
C552 C551 1.424 1_655 S
C552 C553 1.347 . S
C553 H545 0.951 . S
C553 C548 1.429 . S
C553 C552 1.347 . S
H554 C555 0.951 . S
C555 H554 0.951 . S
C555 C561 1.265 . S
H556 C561 0.950 . S
H557 C565 0.949 . S
H558 C566 0.950 . S
H559 C567 0.951 . S
H560 C568 0.951 . S
C561 C555 1.265 . S
C561 H556 0.950 . S
C561 C562 1.478 . S
C562 C561 1.478 . S
C562 C563 1.397 . S
C562 C579 1.394 . S
C563 C562 1.397 . S
C563 C564 1.438 1_455 S
C563 C568 1.429 . S
C564 C563 1.438 1_655 S
C564 C565 1.428 . S
C564 C577 1.394 . S
C565 H557 0.949 . S
C565 C564 1.428 . S
C565 C566 1.345 . S
C566 H558 0.950 . S
C566 C565 1.345 . S
C566 C567 1.424 1_655 S
C567 H559 0.951 . S
C567 C566 1.424 1_455 S
C567 C568 1.347 . S
C568 H560 0.951 . S
C568 C563 1.429 . S
C568 C567 1.347 . S
H569 C570 0.951 . S
C570 H569 0.951 . S
C570 C576 1.265 . S
H571 C576 0.950 . S
H572 C580 0.949 . S
H573 C581 0.950 . S
H574 C582 0.951 . S
H575 C583 0.951 . S
C576 C570 1.265 . S
C576 H571 0.950 . S
C576 C577 1.478 . S
C577 C564 1.394 . S
C577 C576 1.478 . S
C577 C578 1.397 . S
C578 C577 1.397 . S
C578 C579 1.438 1_655 S
C578 C583 1.429 . S
C579 C562 1.394 . S
C579 C578 1.438 1_455 S
C579 C580 1.428 . S
C580 H572 0.949 . S
C580 C579 1.428 . S
C580 C581 1.345 . S
C581 H573 0.950 . S
C581 C580 1.345 . S
C581 C582 1.424 1_455 S
C582 H574 0.951 . S
C582 C581 1.424 1_655 S
C582 C583 1.347 . S
C583 H575 0.951 . S
C583 C578 1.429 . S
C583 C582 1.347 . S
C105 C70 1.512 . S
C120 C5 1.513 . S
C135 C55 1.509 . S
C150 C16 1.514 . S
C165 C94 1.512 . S
C180 C31 1.513 . S
C195 C83 1.511 . S
C210 C42 1.513 . S
C225 C3 1.406 . S
C240 C29 1.404 . S
C255 C18 1.402 . S
C270 C44 1.400 . S
C285 C17 1.432 . S
C300 C43 1.454 . S
C315 C10 1.433 . S
C330 C36 1.456 . S
C345 C57 1.406 . S
C360 C81 1.404 . S
C375 C96 1.404 . S
C390 C68 1.401 . S
C405 C95 1.451 . S
C420 C75 1.452 . S
C435 C56 1.448 . S
C450 C88 1.432 . S
C465 C23 1.501 . S
C480 C4 1.503 1_556 S
C495 C30 1.507 . S
C510 C49 1.502 . S
C525 C62 1.506 1_556 S
C540 C69 1.505 . S
C555 C82 1.506 . S
C570 C101 1.505 . S
