# Generated by pormake.
# Topology uku, (4)-cn, num edge types: 1
# Building blocks:
#     Node 0, Type 0, BuildingBlock: ICAMEG_clean_sbu_1, # of connection points: 4
#     Node 1, Type 0, BuildingBlock: ICAMEG_clean_sbu_1, # of connection points: 4
#     Node 2, Type 0, BuildingBlock: ICAMEG_clean_sbu_1, # of connection points: 4
#     Node 3, Type 0, BuildingBlock: ICAMEG_clean_sbu_1, # of connection points: 4
#     Node 4, Type 0, BuildingBlock: ICAMEG_clean_sbu_1, # of connection points: 4
#     Node 5, Type 0, BuildingBlock: ICAMEG_clean_sbu_1, # of connection points: 4
#     Node 6, Type 0, BuildingBlock: ICAMEG_clean_sbu_1, # of connection points: 4
#     Node 7, Type 0, BuildingBlock: ICAMEG_clean_sbu_1, # of connection points: 4
#     Node 8, Type 0, BuildingBlock: ICAMEG_clean_sbu_1, # of connection points: 4
#     Node 9, Type 0, BuildingBlock: ICAMEG_clean_sbu_1, # of connection points: 4
#     Node 10, Type 0, BuildingBlock: ICAMEG_clean_sbu_1, # of connection points: 4
#     Node 11, Type 0, BuildingBlock: ICAMEG_clean_sbu_1, # of connection points: 4
#     Edge 12, Type (0, 0), BuildingBlock: EZIPEK_clean_linker_0, # of connection points: 2
#     Edge 13, Type (0, 0), BuildingBlock: EZIPEK_clean_linker_0, # of connection points: 2
#     Edge 14, Type (0, 0), BuildingBlock: EZIPEK_clean_linker_0, # of connection points: 2
#     Edge 15, Type (0, 0), BuildingBlock: EZIPEK_clean_linker_0, # of connection points: 2
#     Edge 16, Type (0, 0), BuildingBlock: EZIPEK_clean_linker_0, # of connection points: 2
#     Edge 17, Type (0, 0), BuildingBlock: EZIPEK_clean_linker_0, # of connection points: 2
#     Edge 18, Type (0, 0), BuildingBlock: EZIPEK_clean_linker_0, # of connection points: 2
#     Edge 19, Type (0, 0), BuildingBlock: EZIPEK_clean_linker_0, # of connection points: 2
#     Edge 20, Type (0, 0), BuildingBlock: EZIPEK_clean_linker_0, # of connection points: 2
#     Edge 21, Type (0, 0), BuildingBlock: EZIPEK_clean_linker_0, # of connection points: 2
#     Edge 22, Type (0, 0), BuildingBlock: EZIPEK_clean_linker_0, # of connection points: 2
#     Edge 23, Type (0, 0), BuildingBlock: EZIPEK_clean_linker_0, # of connection points: 2
#     Edge 24, Type (0, 0), BuildingBlock: EZIPEK_clean_linker_0, # of connection points: 2
#     Edge 25, Type (0, 0), BuildingBlock: EZIPEK_clean_linker_0, # of connection points: 2
#     Edge 26, Type (0, 0), BuildingBlock: EZIPEK_clean_linker_0, # of connection points: 2
#     Edge 27, Type (0, 0), BuildingBlock: EZIPEK_clean_linker_0, # of connection points: 2
#     Edge 28, Type (0, 0), BuildingBlock: EZIPEK_clean_linker_0, # of connection points: 2
#     Edge 29, Type (0, 0), BuildingBlock: EZIPEK_clean_linker_0, # of connection points: 2
#     Edge 30, Type (0, 0), BuildingBlock: EZIPEK_clean_linker_0, # of connection points: 2
#     Edge 31, Type (0, 0), BuildingBlock: EZIPEK_clean_linker_0, # of connection points: 2
#     Edge 32, Type (0, 0), BuildingBlock: EZIPEK_clean_linker_0, # of connection points: 2
#     Edge 33, Type (0, 0), BuildingBlock: EZIPEK_clean_linker_0, # of connection points: 2
#     Edge 34, Type (0, 0), BuildingBlock: EZIPEK_clean_linker_0, # of connection points: 2
#     Edge 35, Type (0, 0), BuildingBlock: EZIPEK_clean_linker_0, # of connection points: 2
# Relax obj value: 0.345
# Max RMSD: 0.222
# Mean RMSD: 0.222
data_MOF--net-uku--node1-ICAMEG_clean_sbu_1--edge1-EZIPEK_clean_linker_0
_symmetry_space_group_name_H-M    P1
_symmetry_Int_Tables_number       1
_symmetry_cell_setting            triclinic
loop_
_symmetry_equiv_pos_as_xyz
'x, y, z'
_cell_length_a     32.22328
_cell_length_b     32.242324
_cell_length_c     32.252952
_cell_angle_alpha  89.941468
_cell_angle_beta   89.9636
_cell_angle_gamma 90.065259
loop_
_atom_site_label
_atom_site_type_symbol
_atom_site_fract_x
_atom_site_fract_y
_atom_site_fract_z
_atom_type_partial_charge
Co0 Co 0.07672 0.1547 0.69962 0.0
Co1 Co 0.12482 0.19509 0.61178 0.0
O2 O 0.07974 0.16474 0.63974 0.0
C3 C 0.06662 0.07195 0.66057 0.0
O4 O 0.09491 0.08196 0.6331 0.0
C5 C 0.04755 0.23544 0.58071 0.0
O6 O 0.03403 0.23734 0.61908 0.0
O7 O 0.1199 0.24303 0.65205 0.0
O8 O 0.09513 0.21275 0.71011 0.0
H9 H 0.26156 0.27029 0.60014 0.0
H10 H 0.00277 0.13432 0.64873 0.0
O11 O 0.05725 0.09653 0.68988 0.0
H12 H 0.95421 0.23679 0.75097 0.0
H13 H 0.01215 0.09871 0.83061 0.0
H14 H 0.12598 0.18279 0.77223 0.0
H15 H 0.02684 0.21278 0.75129 0.0
H16 H 0.01961 0.10662 0.75504 0.0
O17 O 0.08339 0.22098 0.57299 0.0
H18 H 0.20552 0.23332 0.63641 0.0
H19 H 0.14009 0.21816 0.52337 0.0
H20 H 0.117 0.17896 0.84771 0.0
H21 H 0.92972 0.15692 0.6474 0.0
H22 H 0.06061 0.13577 0.87771 0.0
H23 H 0.90506 0.20884 0.69863 0.0
O24 O 0.13585 0.13513 0.70133 0.0
H25 H 0.0715 0.08692 0.51278 0.0
H26 H 0.19578 0.14398 0.58139 0.0
H27 H 0.20291 0.08416 0.53441 0.0
H28 H 0.14049 0.05524 0.49966 0.0
H29 H 0.0657 0.14624 0.56045 0.0
H30 H 0.19517 0.25538 0.4858 0.0
H31 H 0.25656 0.28179 0.52414 0.0
O32 O 0.16719 0.16908 0.64893 0.0
C33 C 0.1095 0.24401 0.69053 0.0
C34 C 0.23481 0.25928 0.58309 0.0
C35 C 0.19752 0.25098 0.51899 0.0
N36 N 0.16883 0.22451 0.58257 0.0
C37 C 0.20284 0.23838 0.60362 0.0
C38 C 0.16617 0.23023 0.54061 0.0
C39 C 0.23199 0.2657 0.54048 0.0
C40 C 0.99236 0.15709 0.67086 0.0
N41 N 0.01941 0.17325 0.6991 0.0
C42 C 0.95091 0.16969 0.67008 0.0
C43 C 0.93709 0.19879 0.69884 0.0
C44 C 0.96466 0.21455 0.72813 0.0
C45 C 0.00587 0.20117 0.72791 0.0
C46 C 0.03714 0.11733 0.81802 0.0
C47 C 0.10067 0.16467 0.78475 0.0
C48 C 0.04191 0.12147 0.77516 0.0
N49 N 0.07324 0.1452 0.75901 0.0
C50 C 0.09596 0.16233 0.8277 0.0
C51 C 0.06424 0.13818 0.84442 0.0
C52 C 0.16815 0.14555 0.68074 0.0
C53 C 0.09896 0.0993 0.52763 0.0
C54 C 0.16841 0.1315 0.56658 0.0
C55 C 0.17268 0.09768 0.53988 0.0
C56 C 0.13766 0.0815 0.52035 0.0
N57 N 0.13032 0.14874 0.5737 0.0
C58 C 0.09589 0.13309 0.55452 0.0
Co59 Co 0.9383 0.84322 0.70073 0.0
Co60 Co 0.89246 0.79837 0.61465 0.0
O61 O 0.93625 0.83014 0.64184 0.0
C62 C 0.97316 0.91835 0.65594 0.0
O63 O 0.96858 0.89993 0.62008 0.0
C64 C 0.94327 0.7354 0.56887 0.0
O65 O 0.92038 0.70544 0.58436 0.0
O66 O 0.89797 0.75187 0.65669 0.0
O67 O 0.9185 0.78626 0.7139 0.0
H68 H 0.75896 0.71776 0.60398 0.0
H69 H 0.01036 0.83893 0.64086 0.0
O70 O 0.96025 0.90122 0.68935 0.0
H71 H 0.05927 0.76966 0.7677 0.0
H72 H 0.99454 0.90686 0.83259 0.0
H73 H 0.88434 0.82035 0.77137 0.0
H74 H 0.98841 0.79696 0.764 0.0
H75 H 0.99285 0.89409 0.7575 0.0
O76 O 0.93664 0.77309 0.57861 0.0
H77 H 0.81455 0.75572 0.64001 0.0
H78 H 0.87605 0.77798 0.52609 0.0
H79 H 0.88722 0.82924 0.84662 0.0
H80 H 0.0807 0.81083 0.64307 0.0
H81 H 0.94187 0.87358 0.87813 0.0
H82 H 0.10615 0.7763 0.70697 0.0
O83 O 0.87943 0.86412 0.69895 0.0
H84 H 0.94419 0.90273 0.51026 0.0
H85 H 0.82121 0.84913 0.58397 0.0
H86 H 0.81346 0.90748 0.53533 0.0
H87 H 0.87519 0.93467 0.49797 0.0
H88 H 0.95083 0.84498 0.55976 0.0
H89 H 0.82109 0.74053 0.4884 0.0
H90 H 0.76205 0.70983 0.52742 0.0
O91 O 0.84894 0.82413 0.65043 0.0
C92 C 0.9064 0.75337 0.69562 0.0
C93 C 0.78479 0.73044 0.58663 0.0
C94 C 0.81961 0.74325 0.52181 0.0
N95 N 0.84943 0.76757 0.58561 0.0
C96 C 0.81657 0.75164 0.60705 0.0
C97 C 0.85083 0.76418 0.54338 0.0
C98 C 0.78649 0.7261 0.5437 0.0
C99 C 0.02053 0.82424 0.66901 0.0
N100 N 0.9951 0.82173 0.70298 0.0
C101 C 0.06079 0.80826 0.66999 0.0
C102 C 0.07505 0.7889 0.70581 0.0
C103 C 0.04884 0.78535 0.73992 0.0
C104 C 0.00872 0.80156 0.73777 0.0
C105 C 0.97039 0.88763 0.81938 0.0
C106 C 0.90903 0.83881 0.78452 0.0
C107 C 0.96897 0.88067 0.77664 0.0
N108 N 0.93887 0.85598 0.75973 0.0
C109 C 0.9102 0.84414 0.82738 0.0
C110 C 0.94092 0.86892 0.84491 0.0
C111 C 0.84729 0.85046 0.6799 0.0
C112 C 0.91705 0.89118 0.52638 0.0
C113 C 0.8484 0.86101 0.56833 0.0
C114 C 0.84373 0.89394 0.54056 0.0
C115 C 0.87835 0.90913 0.51954 0.0
N116 N 0.88654 0.8437 0.57515 0.0
C117 C 0.92055 0.85828 0.55437 0.0
Co118 Co 0.06909 0.85746 0.31773 0.0
Co119 Co 0.11734 0.80987 0.40027 0.0
O120 O 0.0711 0.83978 0.37541 0.0
C121 C 0.02604 0.92473 0.36775 0.0
O122 O 0.02803 0.90225 0.40151 0.0
C123 C 0.07006 0.74383 0.4452 0.0
O124 O 0.09292 0.71565 0.42676 0.0
O125 O 0.1099 0.7649 0.3575 0.0
O126 O 0.0927 0.80171 0.30009 0.0
H127 H 0.25706 0.73914 0.40579 0.0
H128 H 0.99743 0.83755 0.37558 0.0
O129 O 0.04292 0.91248 0.33397 0.0
H130 H 0.953 0.78849 0.23821 0.0
H131 H 0.01496 0.94029 0.19659 0.0
H132 H 0.13034 0.85511 0.24944 0.0
H133 H 0.02246 0.81797 0.24756 0.0
H134 H 0.00941 0.90506 0.26403 0.0
O135 O 0.0755 0.78231 0.43779 0.0
H136 H 0.19906 0.77483 0.37184 0.0
H137 H 0.13646 0.78595 0.48706 0.0
H138 H 0.13839 0.8924 0.18316 0.0
H139 H 0.92888 0.80641 0.36767 0.0
H140 H 0.08022 0.93479 0.15592 0.0
H141 H 0.9055 0.78225 0.2985 0.0
O142 O 0.12606 0.88257 0.32284 0.0
H143 H 0.06745 0.91189 0.50728 0.0
H144 H 0.18873 0.86202 0.42863 0.0
H145 H 0.1969 0.92045 0.477 0.0
H146 H 0.13599 0.94588 0.51674 0.0
H147 H 0.06045 0.85386 0.45823 0.0
H148 H 0.19397 0.75029 0.52243 0.0
H149 H 0.25478 0.72626 0.48169 0.0
O150 O 0.15907 0.83676 0.3629 0.0
C151 C 0.10276 0.76748 0.3183 0.0
C152 C 0.23034 0.74861 0.42379 0.0
C153 C 0.19496 0.75485 0.48919 0.0
N154 N 0.16282 0.78012 0.42683 0.0
C155 C 0.19701 0.76852 0.4046 0.0
C156 C 0.16218 0.77454 0.46886 0.0
C157 C 0.22911 0.7415 0.46636 0.0
C158 C 0.98827 0.82754 0.34517 0.0
N159 N 0.01387 0.83253 0.31158 0.0
C160 C 0.94898 0.80969 0.34096 0.0
C161 C 0.93586 0.79616 0.30218 0.0
C162 C 0.96236 0.79993 0.26832 0.0
C163 C 1.00158 0.81761 0.27375 0.0
C164 C 0.04047 0.92167 0.20795 0.0
C165 C 0.1049 0.87364 0.23798 0.0
C166 C 0.03737 0.90131 0.24607 0.0
N167 N 0.06931 0.87746 0.26068 0.0
C168 C 0.10971 0.89485 0.20045 0.0
C169 C 0.07709 0.91868 0.18522 0.0
C170 C 0.15931 0.86607 0.33649 0.0
C171 C 0.09421 0.90117 0.49008 0.0
C172 C 0.16191 0.87301 0.44545 0.0
C173 C 0.16682 0.90604 0.47302 0.0
C174 C 0.13266 0.92024 0.49535 0.0
N175 N 0.12398 0.85468 0.4401 0.0
C176 C 0.09047 0.86821 0.46226 0.0
Co177 Co 0.93016 0.15601 0.31452 0.0
Co178 Co 0.86985 0.20786 0.38715 0.0
O179 O 0.91722 0.17276 0.37158 0.0
C180 C 0.93055 0.07592 0.36107 0.0
O181 O 0.89603 0.08591 0.38012 0.0
C182 C 0.9436 0.24002 0.43453 0.0
O183 O 0.96667 0.23267 0.40184 0.0
O184 O 0.88618 0.25083 0.34444 0.0
O185 O 0.9155 0.2128 0.29362 0.0
H186 H 0.73629 0.28456 0.35956 0.0
H187 H 0.99142 0.14497 0.38221 0.0
O188 O 0.94647 0.09958 0.33396 0.0
H189 H 0.06407 0.22663 0.27513 0.0
H190 H 0.01221 0.08044 0.20499 0.0
H191 H 0.89259 0.17162 0.23171 0.0
H192 H 0.99177 0.20375 0.26448 0.0
H193 H 0.99596 0.10309 0.27602 0.0
O194 O 0.9044 0.23551 0.43184 0.0
H195 H 0.79687 0.24253 0.34145 0.0
H196 H 0.83815 0.24644 0.46635 0.0
H197 H 0.9087 0.15084 0.16013 0.0
H198 H 0.06387 0.16655 0.394 0.0
H199 H 0.96852 0.10454 0.1463 0.0
H200 H 0.10062 0.20799 0.34033 0.0
O201 O 0.87144 0.13686 0.30533 0.0
H202 H 0.89575 0.10061 0.49745 0.0
H203 H 0.78939 0.16824 0.41089 0.0
H204 H 0.76858 0.11351 0.46004 0.0
H205 H 0.8219 0.07932 0.50388 0.0
H206 H 0.91523 0.15537 0.44782 0.0
H207 H 0.77843 0.28909 0.48557 0.0
H208 H 0.72665 0.30856 0.43205 0.0
O209 O 0.83426 0.17995 0.34542 0.0
C210 C 0.90094 0.24695 0.3076 0.0
C211 C 0.75875 0.27653 0.38318 0.0
C212 C 0.78247 0.27919 0.45376 0.0
N213 N 0.82232 0.2424 0.4025 0.0
C214 C 0.79338 0.25254 0.37314 0.0
C215 C 0.81674 0.25519 0.44253 0.0
C216 C 0.75337 0.29 0.42379 0.0
C217 C 0.0072 0.16291 0.35868 0.0
N218 N 0.98706 0.17393 0.32306 0.0
C219 C 0.04824 0.17509 0.36555 0.0
C220 C 0.06882 0.19835 0.33545 0.0
C221 C 0.0483 0.2089 0.29891 0.0
C222 C 0.00726 0.19619 0.29318 0.0
C223 C 0.98589 0.10049 0.21059 0.0
C224 C 0.9189 0.15184 0.22609 0.0
C225 C 0.97631 0.11324 0.25084 0.0
N226 N 0.94319 0.13874 0.25821 0.0
C227 C 0.92775 0.13996 0.18542 0.0
C228 C 0.9614 0.11403 0.17769 0.0
C229 C 0.83698 0.15161 0.3183 0.0
C230 C 0.87214 0.1155 0.4788 0.0
C231 C 0.81278 0.15392 0.43015 0.0
C232 C 0.8008 0.12277 0.45782 0.0
C233 C 0.83073 0.10355 0.48235 0.0
N234 N 0.8534 0.16583 0.42715 0.0
C235 C 0.88297 0.1467 0.45073 0.0
Co236 Co 0.68859 0.07737 0.14218 0.0
Co237 Co 0.60421 0.12222 0.1902 0.0
O238 O 0.6303 0.07852 0.15765 0.0
C239 C 0.64361 0.06255 0.06304 0.0
O240 O 0.61745 0.09223 0.07246 0.0
C241 C 0.56057 0.07468 0.25713 0.0
O242 O 0.57649 0.09984 0.28488 0.0
O243 O 0.64889 0.11861 0.23428 0.0
O244 O 0.70432 0.09935 0.1967 0.0
H245 H 0.5984 0.24822 0.28247 0.0
H246 H 0.63669 1.0018 0.13309 0.0
O247 O 0.67406 0.05415 0.08655 0.0
H248 H 0.74793 0.96299 0.23053 0.0
H249 H 0.81601 0.01094 0.08126 0.0
H250 H 0.76258 0.12947 0.16147 0.0
H251 H 0.74576 0.03308 0.20012 0.0
H252 H 0.74091 0.01955 0.09195 0.0
O253 O 0.56995 0.07833 0.21888 0.0
H254 H 0.63262 0.19306 0.24273 0.0
H255 H 0.51563 0.14347 0.20808 0.0
H256 H 0.83763 0.11768 0.1576 0.0
H257 H 0.63787 0.93126 0.16258 0.0
H258 H 0.86521 0.05959 0.11524 0.0
H259 H 0.69375 0.91147 0.21176 0.0
O260 O 0.68581 0.13612 0.12045 0.0
H261 H 0.49927 0.06303 0.09105 0.0
H262 H 0.56758 0.19103 0.13915 0.0
H263 H 0.51645 0.19479 0.08265 0.0
H264 H 0.48168 0.1305 0.05831 0.0
H265 H 0.55121 0.0605 0.1469 0.0
H266 H 0.48004 0.19875 0.24676 0.0
H267 H 0.52144 0.25166 0.28445 0.0
O268 O 0.63784 0.16597 0.16113 0.0
C269 C 0.68794 0.11224 0.2299 0.0
C270 C 0.57998 0.22549 0.266 0.0
C271 C 0.51361 0.19786 0.24584 0.0
N272 N 0.57642 0.16534 0.22219 0.0
C273 C 0.59929 0.19401 0.24341 0.0
C274 C 0.53402 0.16674 0.22369 0.0
C275 C 0.53683 0.22743 0.26707 0.0
C276 C 0.66139 0.99331 0.15406 0.0
N277 N 0.69137 0.02145 0.16442 0.0
C278 C 0.66178 0.95336 0.17083 0.0
C279 C 0.69311 0.9423 0.19847 0.0
C280 C 0.72351 0.97118 0.209 0.0
C281 C 0.72211 0.01086 0.19165 0.0
C282 C 0.80448 0.03695 0.09904 0.0
C283 C 0.77394 0.10315 0.14418 0.0
C284 C 0.76183 0.04249 0.10455 0.0
N285 N 0.74703 0.07501 0.1274 0.0
C286 C 0.81669 0.09717 0.14134 0.0
C287 C 0.83206 0.06421 0.1181 0.0
C288 C 0.66601 0.16832 0.13328 0.0
C289 C 0.51402 0.09131 0.10154 0.0
C290 C 0.55298 0.16286 0.12864 0.0
C291 C 0.52381 0.16521 0.09671 0.0
C292 C 0.50426 0.12914 0.08311 0.0
N293 N 0.56233 0.12567 0.14676 0.0
C294 C 0.5433 0.09016 0.13344 0.0
Co295 Co 0.31127 0.92523 0.14821 0.0
Co296 Co 0.39215 0.89291 0.20734 0.0
O297 O 0.36715 0.93281 0.16965 0.0
C298 C 0.35979 0.97201 0.08216 0.0
O299 O 0.39314 0.97195 0.10536 0.0
C300 C 0.43534 0.9485 0.26848 0.0
O301 O 0.42024 0.92679 0.29949 0.0
O302 O 0.3451 0.90316 0.24754 0.0
O303 O 0.29304 0.89918 0.20139 0.0
H304 H 0.39174 0.78025 0.31566 0.0
H305 H 0.35368 0.00727 0.16262 0.0
O306 O 0.32679 0.95315 0.09377 0.0
H307 H 0.21447 0.02163 0.22387 0.0
H308 H 0.18264 0.9617 0.06664 0.0
H309 H 0.25257 0.8547 0.15049 0.0
H310 H 0.23502 0.95656 0.19013 0.0
H311 H 0.25148 0.97518 0.09715 0.0
O312 O 0.42542 0.94011 0.23119 0.0
H313 H 0.3604 0.83048 0.26777 0.0
H314 H 0.47971 0.87289 0.2315 0.0
H315 H 0.18448 0.83961 0.11977 0.0
H316 H 0.33463 0.07233 0.19685 0.0
H317 H 0.14854 0.89344 0.07796 0.0
H318 H 0.26437 0.08026 0.22744 0.0
O319 O 0.32809 0.86951 0.12608 0.0
H320 H 0.50331 0.9376 0.10693 0.0
H321 H 0.4302 0.8177 0.16769 0.0
H322 H 0.48385 0.80611 0.11466 0.0
H323 H 0.52098 0.8663 0.08391 0.0
H324 H 0.44903 0.94792 0.15958 0.0
H325 H 0.5125 0.82263 0.27864 0.0
H326 H 0.46848 0.77579 0.32122 0.0
O327 O 0.35999 0.84523 0.18251 0.0
C328 C 0.30632 0.90061 0.23863 0.0
C329 C 0.41131 0.80028 0.29707 0.0
C330 C 0.47903 0.82396 0.27622 0.0
N331 N 0.41794 0.85411 0.24589 0.0
C332 C 0.39363 0.82886 0.26976 0.0
C333 C 0.4602 0.85222 0.24932 0.0
C334 C 0.45433 0.79778 0.30017 0.0
C335 C 0.3229 0.01016 0.17525 0.0
N336 N 0.29486 0.97844 0.17202 0.0
C337 C 0.31231 0.0473 0.19483 0.0
C338 C 0.27293 0.05172 0.21203 0.0
C339 C 0.24487 0.01894 0.20984 0.0
C340 C 0.25658 0.98225 0.1901 0.0
C341 C 0.19781 0.93804 0.08499 0.0
C342 C 0.23737 0.87835 0.13226 0.0
C343 C 0.23686 0.9455 0.10229 0.0
N344 N 0.25605 0.9159 0.12582 0.0
C345 C 0.19866 0.86961 0.11498 0.0
C346 C 0.17867 0.89976 0.09137 0.0
C347 C 0.34204 0.83912 0.14762 0.0
C348 C 0.48733 0.91111 0.12006 0.0
C349 C 0.44568 0.84416 0.15418 0.0
C350 C 0.47633 0.83736 0.12431 0.0
C351 C 0.49719 0.87111 0.10712 0.0
N352 N 0.43602 0.88352 0.16672 0.0
C353 C 0.45655 0.91673 0.15004 0.0
Co354 Co 0.68986 0.92905 0.8405 0.0
Co355 Co 0.61192 0.86994 0.7949 0.0
O356 O 0.63156 0.91931 0.82534 0.0
C357 C 0.63956 0.96397 0.91266 0.0
O358 O 0.60447 0.95527 0.89412 0.0
C359 C 0.57146 0.94166 0.75215 0.0
O360 O 0.60748 0.96058 0.75362 0.0
O361 O 0.65434 0.87949 0.74953 0.0
O362 O 0.7077 0.90694 0.7854 0.0
H363 H 0.62654 0.73124 0.72451 0.0
H364 H 0.62384 0.99471 0.83173 0.0
O365 O 0.67421 0.95336 0.89651 0.0
H366 H 0.74653 0.05123 0.76042 0.0
H367 H 0.81203 0.00381 0.90469 0.0
H368 H 0.76675 0.88118 0.82551 0.0
H369 H 0.74892 0.982 0.79198 0.0
H370 H 0.73839 0.99367 0.88773 0.0
O371 O 0.5691 0.90446 0.76494 0.0
H372 H 0.65096 0.79359 0.76079 0.0
H373 H 0.5282 0.83958 0.76761 0.0
H374 H 0.8409 0.89182 0.83924 0.0
H375 H 0.61997 0.06343 0.79972 0.0
H376 H 0.86421 0.95289 0.87981 0.0
H377 H 0.68171 0.09262 0.76399 0.0
O378 O 0.69364 0.87213 0.86587 0.0
H379 H 0.50358 0.91172 0.89909 0.0
H380 H 0.58718 0.79584 0.8448 0.0
H381 H 0.53899 0.78345 0.90288 0.0
H382 H 0.49673 0.84164 0.93044 0.0
H383 H 0.55228 0.92272 0.8411 0.0
H384 H 0.50218 0.77824 0.73082 0.0
H385 H 0.55145 0.72327 0.70895 0.0
O386 O 0.65254 0.83409 0.82447 0.0
C387 C 0.69227 0.89158 0.75234 0.0
C388 C 0.60473 0.75511 0.73349 0.0
C389 C 0.53504 0.78154 0.73693 0.0
N390 N 0.59153 0.82117 0.76539 0.0
C391 C 0.61853 0.79063 0.75405 0.0
C392 C 0.55009 0.81662 0.75742 0.0
C393 C 0.56265 0.75066 0.72478 0.0
C394 C 0.65107 0.00671 0.81661 0.0
N395 N 0.68706 0.98424 0.81534 0.0
C396 C 0.64859 0.04594 0.79835 0.0
C397 C 0.68319 0.06228 0.7783 0.0
C398 C 0.71956 0.03914 0.77642 0.0
C399 C 0.72081 0.99994 0.79485 0.0
C400 C 0.80234 0.97689 0.88715 0.0
C401 C 0.77643 0.90844 0.84241 0.0
C402 C 0.76046 0.97073 0.87782 0.0
N403 N 0.74794 0.93705 0.85528 0.0
C404 C 0.81859 0.91405 0.85047 0.0
C405 C 0.8316 0.94838 0.87316 0.0
C406 C 0.67977 0.83731 0.85285 0.0
C407 C 0.52173 0.88607 0.88731 0.0
C408 C 0.56887 0.82134 0.85651 0.0
C409 C 0.54161 0.81411 0.88943 0.0
C410 C 0.51792 0.84677 0.90489 0.0
N411 N 0.57236 0.85998 0.83932 0.0
C412 C 0.54933 0.89211 0.85444 0.0
Co413 Co 0.31629 0.07754 0.84901 0.0
Co414 Co 0.40276 0.11791 0.7999 0.0
O415 O 0.37491 0.07729 0.83514 0.0
C416 C 0.35969 0.06897 0.9305 0.0
O417 O 0.38812 0.09577 0.91894 0.0
C418 C 0.44287 0.0623 0.7372 0.0
O419 O 0.42728 0.08442 0.70675 0.0
O420 O 0.35838 0.11317 0.75556 0.0
O421 O 0.30209 0.09223 0.79106 0.0
H422 H 0.41585 0.2435 0.70819 0.0
H423 H 0.37023 0.0048 0.86514 0.0
O424 O 0.32904 0.0606 0.90723 0.0
H425 H 0.25426 0.95101 0.78125 0.0
H426 H 0.18626 0.02213 0.91628 0.0
H427 H 0.24437 0.12836 0.82271 0.0
H428 H 0.25695 0.0248 0.80098 0.0
H429 H 0.26163 0.02625 0.9044 0.0
O430 O 0.43444 0.07079 0.77481 0.0
H431 H 0.37932 0.19356 0.75335 0.0
H432 H 0.49126 0.12794 0.77393 0.0
H433 H 0.16904 0.122 0.82999 0.0
H434 H 0.36878 0.93084 0.84612 0.0
H435 H 0.13905 0.06952 0.87798 0.0
H436 H 0.31051 0.90345 0.8038 0.0
O437 O 0.31913 0.13816 0.86448 0.0
H438 H 0.50646 0.06212 0.90232 0.0
H439 H 0.44356 0.18863 0.84404 0.0
H440 H 0.49627 0.1948 0.89893 0.0
H441 H 0.5283 0.13123 0.92837 0.0
H442 H 0.45298 0.0573 0.84804 0.0
H443 H 0.52936 0.17727 0.72957 0.0
H444 H 0.49159 0.2355 0.69612 0.0
O445 O 0.37117 0.16471 0.82632 0.0
C446 C 0.31972 0.10382 0.75773 0.0
C447 C 0.43263 0.21802 0.72219 0.0
C448 C 0.49632 0.18095 0.73431 0.0
N449 N 0.43271 0.1573 0.7653 0.0
C450 C 0.41193 0.18943 0.74736 0.0
C451 C 0.47452 0.15304 0.75932 0.0
C452 C 0.47512 0.21359 0.71554 0.0
C453 C 0.34474 0.9932 0.84674 0.0
N454 N 0.31378 0.01924 0.83405 0.0
C455 C 0.34408 0.95123 0.83609 0.0
C456 C 0.3114 0.9359 0.81233 0.0
C457 C 0.27985 0.96256 0.79966 0.0
C458 C 0.28157 0.00436 0.81087 0.0
C459 C 0.19879 0.04538 0.89552 0.0
C460 C 0.23189 0.10463 0.84287 0.0
C461 C 0.24159 0.04835 0.88917 0.0
N462 N 0.2576 0.07742 0.86265 0.0
C463 C 0.18899 0.1014 0.84714 0.0
C464 C 0.17232 0.07187 0.87396 0.0
C465 C 0.34143 0.16893 0.85224 0.0
C466 C 0.49282 0.09007 0.88968 0.0
C467 C 0.45692 0.16081 0.85691 0.0
C468 C 0.48698 0.1645 0.88788 0.0
C469 C 0.50499 0.12884 0.90433 0.0
N470 N 0.44506 0.12269 0.84267 0.0
C471 C 0.46263 0.08757 0.85871 0.0
Co472 Co 0.14906 0.69564 0.09056 0.0
Co473 Co 0.2045 0.61386 0.12842 0.0
O474 O 0.16975 0.63883 0.08487 0.0
C475 C 0.08285 0.64869 0.04218 0.0
O476 O 0.10583 0.61529 0.0411 0.0
C477 C 0.22622 0.56829 0.04819 0.0
O478 O 0.20233 0.59301 0.0266 0.0
O479 O 0.24657 0.65861 0.11699 0.0
O480 O 0.20252 0.71309 0.11807 0.0
H481 H 0.30839 0.61846 0.24499 0.0
H482 H 0.16139 0.65496 0.00738 0.0
O483 O 0.09494 0.68111 0.06156 0.0
H484 H 0.22566 0.79284 0.99496 0.0
H485 H 0.06673 0.82259 0.05115 0.0
H486 H 0.14725 0.75338 0.16107 0.0
H487 H 0.1938 0.7708 0.06064 0.0
H488 H 0.10239 0.75644 0.03739 0.0
O489 O 0.23172 0.57456 0.08697 0.0
H490 H 0.26127 0.64747 0.19266 0.0
H491 H 0.22743 0.52699 0.15365 0.0
H492 H 0.10882 0.81624 0.17727 0.0
H493 H 0.19465 0.67485 0.94192 0.0
H494 H 0.06901 0.85286 0.12189 0.0
H495 H 0.22652 0.74466 0.93494 0.0
O496 O 0.12417 0.67997 0.14521 0.0
H497 H 0.08952 0.51516 0.08881 0.0
H498 H 0.1668 0.57647 0.20514 0.0
H499 H 0.10907 0.52892 0.21961 0.0
H500 H 0.06976 0.49777 0.16119 0.0
H501 H 0.14776 0.56251 0.07596 0.0
H502 H 0.27428 0.49619 0.2051 0.0
H503 H 0.31511 0.542 0.25165 0.0
O504 O 0.17948 0.65029 0.17292 0.0
C505 C 0.23921 0.69781 0.11849 0.0
C506 C 0.29062 0.59808 0.2251 0.0
C507 C 0.27151 0.52956 0.20271 0.0
N508 N 0.24076 0.58937 0.17035 0.0
C509 C 0.26375 0.61454 0.1954 0.0
C510 C 0.24496 0.54726 0.17342 0.0
C511 C 0.29441 0.55524 0.22879 0.0
C512 C 0.17563 0.68493 0.00521 0.0
N513 N 0.17439 0.71178 0.03789 0.0
C514 C 0.19424 0.69627 0.96774 0.0
C515 C 0.21204 0.73544 0.9638 0.0
C516 C 0.21138 0.76253 0.99736 0.0
C517 C 0.19289 0.7499 0.03447 0.0
C518 C 0.08424 0.80751 0.07548 0.0
C519 C 0.12962 0.7683 0.13684 0.0
C520 C 0.10471 0.77014 0.06779 0.0
N521 N 0.12696 0.75097 0.09839 0.0
C522 C 0.10815 0.80451 0.1461 0.0
C523 C 0.0856 0.82451 0.11514 0.0
C524 C 0.14417 0.6677 0.17709 0.0
C525 C 0.10632 0.52856 0.1146 0.0
C526 C 0.15011 0.56335 0.17947 0.0
C527 C 0.11732 0.53623 0.1879 0.0
C528 C 0.09527 0.51879 0.15516 0.0
N529 N 0.16109 0.57277 0.13957 0.0
C530 C 0.13928 0.55583 0.10745 0.0
Co531 Co 0.16292 0.3144 0.92952 0.0
Co532 Co 0.20788 0.39648 0.87607 0.0
O533 O 0.17634 0.37295 0.92218 0.0
C534 C 0.08175 0.35849 0.93661 0.0
O535 O 0.09292 0.38456 0.90744 0.0
C536 C 0.25396 0.4251 0.95059 0.0
O537 O 0.25311 0.3864 0.96314 0.0
O538 O 0.25262 0.35286 0.88183 0.0
O539 O 0.22068 0.29887 0.9127 0.0
H540 H 0.28094 0.39802 0.73774 0.0
H541 H 0.15115 0.37745 0.99533 0.0
O542 O 0.10524 0.3288 0.94744 0.0
H543 H 0.23394 0.26683 0.06056 0.0
H544 H 0.09618 0.1928 1.00205 0.0
H545 H 0.18694 0.23636 0.88678 0.0
H546 H 0.21158 0.26079 0.98777 0.0
H547 H 0.11021 0.26677 0.98964 0.0
O548 O 0.2376 0.43412 0.91583 0.0
H549 H 0.24318 0.36619 0.79589 0.0
H550 H 0.23603 0.48238 0.85684 0.0
H551 H 0.17701 0.16224 0.90108 0.0
H552 H 0.17253 0.38464 0.06822 0.0
H553 H 0.13039 0.13968 0.95801 0.0
H554 H 0.21453 0.32922 0.10132 0.0
O555 O 0.14416 0.30932 0.87027 0.0
H556 H 0.10879 0.50503 0.92804 0.0
H557 H 0.15755 0.42822 0.80517 0.0
H558 H 0.10132 0.47948 0.79764 0.0
H559 H 0.07664 0.51837 0.85933 0.0
H560 H 0.16449 0.45312 0.93433 0.0
H561 H 0.27445 0.51554 0.79978 0.0
H562 H 0.2972 0.47334 0.73953 0.0
O563 O 0.1784 0.3598 0.83588 0.0
C564 C 0.25229 0.31528 0.89512 0.0
C565 C 0.27157 0.41673 0.76397 0.0
C566 C 0.26804 0.4826 0.79883 0.0
N567 N 0.23846 0.42185 0.83053 0.0
C568 C 0.25014 0.39874 0.79708 0.0
C569 C 0.24668 0.46348 0.83135 0.0
C570 C 0.28067 0.45895 0.765 0.0
C571 C 0.16944 0.35318 0.00937 0.0
N572 N 0.18062 0.319 0.98696 0.0
C573 C 0.18141 0.35741 0.05075 0.0
C574 C 0.20493 0.3263 0.06931 0.0
C575 C 0.21585 0.29132 0.04645 0.0
C576 C 0.20319 0.28813 0.00516 0.0
C577 C 0.11624 0.20212 0.97677 0.0
C578 C 0.1674 0.2271 0.91241 0.0
C579 C 0.12387 0.24409 0.96914 0.0
N580 N 0.14949 0.25614 0.93744 0.0
C581 C 0.16151 0.18491 0.92003 0.0
C582 C 0.13548 0.17235 0.95214 0.0
C583 C 0.15442 0.32831 0.8369 0.0
C584 C 0.11939 0.48842 0.90088 0.0
C585 C 0.1469 0.44489 0.83221 0.0
C586 C 0.11512 0.47397 0.82773 0.0
C587 C 0.10131 0.49582 0.86235 0.0
N588 N 0.16449 0.43779 0.87011 0.0
C589 C 0.15113 0.45914 0.9042 0.0
Co590 Co 0.84849 0.69323 0.93741 0.0
Co591 Co 0.806 0.6083 0.88712 0.0
O592 O 0.83628 0.6343 0.93254 0.0
C593 C 0.93013 0.65122 0.9475 0.0
O594 O 0.92017 0.62464 0.91841 0.0
C595 C 0.7449 0.57448 0.95045 0.0
O596 O 0.72065 0.60692 0.94662 0.0
O597 O 0.76014 0.65125 0.89047 0.0
O598 O 0.79126 0.70689 0.91912 0.0
H599 H 0.73084 0.59989 0.75044 0.0
H600 H 0.86102 0.63443 0.00711 0.0
O601 O 0.90583 0.68062 0.95728 0.0
H602 H 0.76875 0.74311 0.06217 0.0
H603 H 0.91006 0.81948 0.00602 0.0
H604 H 0.8248 0.76854 0.88979 0.0
H605 H 0.79476 0.74693 0.99035 0.0
H606 H 0.89776 0.74467 0.99695 0.0
O607 O 0.77799 0.57105 0.92901 0.0
H608 H 0.76778 0.63486 0.80732 0.0
H609 H 0.78367 0.5205 0.86982 0.0
H610 H 0.83325 0.84363 0.90018 0.0
H611 H 0.83592 0.62944 0.07913 0.0
H612 H 0.87704 0.86971 0.9578 0.0
H613 H 0.7893 0.68397 0.1071 0.0
O614 O 0.86859 0.69593 0.87822 0.0
H615 H 0.90782 0.50426 0.94343 0.0
H616 H 0.85803 0.57583 0.81777 0.0
H617 H 0.91572 0.526 0.81232 0.0
H618 H 0.94089 0.48968 0.87542 0.0
H619 H 0.85078 0.55488 0.94769 0.0
H620 H 0.74669 0.4839 0.8139 0.0
H621 H 0.71985 0.52366 0.7536 0.0
O622 O 0.83469 0.64428 0.84538 0.0
C623 C 0.75992 0.68917 0.90282 0.0
C624 C 0.7419 0.58223 0.77676 0.0
C625 C 0.75077 0.51719 0.81236 0.0
N626 N 0.77652 0.58024 0.84263 0.0
C627 C 0.76264 0.60206 0.80918 0.0
C628 C 0.77136 0.53817 0.84416 0.0
C629 C 0.7358 0.53948 0.77852 0.0
C630 C 0.8408 0.65834 0.01901 0.0
N631 N 0.82912 0.69081 0.99438 0.0
C632 C 0.82671 0.65535 0.05987 0.0
C633 C 0.80054 0.68594 0.07553 0.0
C634 C 0.78897 0.7191 0.05033 0.0
C635 C 0.80369 0.72105 0.00964 0.0
C636 C 0.89119 0.80855 0.98051 0.0
C637 C 0.84316 0.77947 0.91561 0.0
C638 C 0.88454 0.76611 0.97486 0.0
N639 N 0.86051 0.75205 0.94285 0.0
C640 C 0.84814 0.82212 0.92109 0.0
C641 C 0.87262 0.8367 0.95353 0.0
C642 C 0.85874 0.6758 0.84538 0.0
C643 C 0.89701 0.51975 0.91568 0.0
C644 C 0.86894 0.56039 0.84545 0.0
C645 C 0.90154 0.53206 0.84213 0.0
C646 C 0.91561 0.51166 0.87753 0.0
N647 N 0.8508 0.56818 0.88297 0.0
C648 C 0.86449 0.54828 0.91783 0.0
Co649 Co 0.85395 0.31104 0.06198 0.0
Co650 Co 0.80855 0.39337 0.1136 0.0
O651 O 0.83915 0.36919 0.06765 0.0
C652 C 0.92667 0.36052 0.02749 0.0
O653 O 0.90667 0.39542 0.03281 0.0
C654 C 0.74324 0.44057 0.06719 0.0
O655 O 0.71431 0.42286 0.0898 0.0
O656 O 0.76284 0.35058 0.10659 0.0
O657 O 0.79738 0.29455 0.08268 0.0
H658 H 0.73487 0.3977 0.25166 0.0
H659 H 0.84396 0.3754 0.99417 0.0
O660 O 0.91106 0.32605 0.0396 0.0
H661 H 0.78316 0.24746 0.93748 0.0
H662 H 0.92485 0.18738 0.99712 0.0
H663 H 0.83783 0.23645 0.11292 0.0
H664 H 0.81081 0.24837 0.00818 0.0
H665 H 0.90441 0.26061 1.00179 0.0
O666 O 0.78136 0.43138 0.07221 0.0
H667 H 0.77046 0.36437 0.19314 0.0
H668 H 0.78658 0.48055 0.13406 0.0
H669 H 0.8564 0.16292 0.10831 0.0
H670 H 0.81525 0.37586 0.92421 0.0
H671 H 0.90035 0.13752 0.05062 0.0
H672 H 0.78499 0.31151 0.89477 0.0
O673 O 0.87617 0.30983 0.12032 0.0
H674 H 0.90951 0.50259 0.06499 0.0
H675 H 0.86132 0.42057 0.18483 0.0
H676 H 0.91926 0.4696 0.19356 0.0
H677 H 0.94377 0.51111 0.1334 0.0
H678 H 0.85223 0.45268 0.0573 0.0
H679 H 0.75123 0.51558 0.19192 0.0
H680 H 0.72478 0.47408 0.25127 0.0
O681 O 0.83592 0.35556 0.15432 0.0
C682 C 0.76449 0.31185 0.09687 0.0
C683 C 0.74556 0.41612 0.22567 0.0
C684 C 0.75475 0.4822 0.19219 0.0
N685 N 0.77875 0.41989 0.15903 0.0
C686 C 0.76545 0.39719 0.1922 0.0
C687 C 0.77438 0.46208 0.15925 0.0
C688 C 0.74001 0.45894 0.22549 0.0
C689 C 0.83116 0.34698 0.98237 0.0
N690 N 0.83132 0.31131 0.00551 0.0
C691 C 0.81479 0.34755 0.94228 0.0
C692 C 0.79785 0.31148 0.92577 0.0
C693 C 0.79703 0.27552 0.94962 0.0
C694 C 0.81353 0.27614 0.98965 0.0
C695 C 0.90565 0.19787 0.02257 0.0
C696 C 0.85648 0.22585 0.08716 0.0
C697 C 0.89422 0.23951 0.0256 0.0
N698 N 0.86953 0.253 0.0574 0.0
C699 C 0.86714 0.18404 0.08493 0.0
C700 C 0.89187 0.16994 0.0525 0.0
C701 C 0.8626 0.32636 0.15379 0.0
C702 C 0.89917 0.48464 0.09144 0.0
C703 C 0.87202 0.43804 0.15828 0.0
C704 C 0.90473 0.46602 0.16353 0.0
C705 C 0.91841 0.48936 0.1298 0.0
N706 N 0.85348 0.43325 0.12044 0.0
C707 C 0.86654 0.45637 0.08734 0.0
C708 C 1.00092 0.27257 0.4778 0.0
C709 C 0.96438 0.24762 0.47579 0.0
C710 C 0.98307 0.21569 0.54219 0.0
C711 C 0.01839 0.24147 0.5454 0.0
N712 N 0.05801 0.2993 0.51964 0.0
N713 N 0.91361 0.20966 0.51706 0.0
C714 C 0.02648 0.27146 0.51414 0.0
C715 C 0.95306 0.22378 0.51132 0.0
N716 N 0.01093 0.29758 0.44507 0.0
N717 N 0.97914 0.18151 0.56691 0.0
H718 H 0.88909 0.21777 0.49819 0.0
H719 H 0.90401 0.19493 0.54422 0.0
H720 H 1.00181 0.17278 0.58808 0.0
H721 H 0.95607 0.1592 0.56262 0.0
H722 H 0.03952 0.31226 0.44178 0.0
H723 H 0.99049 0.30311 0.42061 0.0
H724 H 0.06347 0.32439 0.50006 0.0
H725 H 0.07709 0.29905 0.54577 0.0
C726 C 0.99577 0.72991 0.46428 0.0
C727 C 0.0381 0.73157 0.47605 0.0
C728 C 0.01833 0.72818 0.54942 0.0
C729 C 0.97598 0.72664 0.53768 0.0
N730 N 0.92524 0.71305 0.48463 0.0
N731 N 0.08995 0.71888 0.52823 0.0
C732 C 0.96496 0.72322 0.49524 0.0
C733 C 0.0495 0.72636 0.5182 0.0
N734 N 0.98496 0.73582 0.42373 0.0
N735 N 0.02871 0.73244 0.59027 0.0
H736 H 0.1128 0.715 0.50571 0.0
H737 H 0.09987 0.71182 0.55813 0.0
H738 H 0.00671 0.7319 0.61405 0.0
H739 H 0.05876 0.73871 0.60036 0.0
H740 H 0.95444 0.73986 0.41392 0.0
H741 H 0.00683 0.739 0.40005 0.0
H742 H 0.91586 0.70709 0.45433 0.0
H743 H 0.90276 0.706 0.50678 0.0
C744 C 0.50936 0.97031 0.27942 0.0
C745 C 0.4669 0.98141 0.27564 0.0
C746 C 0.48698 0.05474 0.27393 0.0
C747 C 0.52921 0.04303 0.26931 0.0
N748 N 0.58101 0.98932 0.26583 0.0
N749 N 0.41476 0.03424 0.26748 0.0
C750 C 0.54057 1.00066 0.27173 0.0
C751 C 0.45552 0.02373 0.27259 0.0
N752 N 0.51979 0.93103 0.29119 0.0
N753 N 0.47702 0.09535 0.28039 0.0
H754 H 0.39079 0.01244 0.26836 0.0
H755 H 0.40501 0.06411 0.26001 0.0
H756 H 0.49956 0.11822 0.28392 0.0
H757 H 0.44708 0.10547 0.28704 0.0
H758 H 0.55011 0.92177 0.2974 0.0
H759 H 0.49753 0.90915 0.29956 0.0
H760 H 0.5904 0.95863 0.26224 0.0
H761 H 0.60492 0.01086 0.26206 0.0
C762 C 0.4931 0.95915 0.75606 0.0
C763 C 0.53345 0.96525 0.73814 0.0
C764 C 0.51012 0.03222 0.70988 0.0
C765 C 0.47105 0.02677 0.72937 0.0
N766 N 0.42061 0.97955 0.75718 0.0
N767 N 0.57164 0.99859 0.68301 0.0
C768 C 0.46111 0.98836 0.74788 0.0
C769 C 0.53912 0.99896 0.71018 0.0
N770 N 0.48494 0.92712 0.78247 0.0
N771 N 0.52069 0.06964 0.69305 0.0
H772 H 0.59158 0.97324 0.68036 0.0
H773 H 0.5755 0.02076 0.65979 0.0
H774 H 0.50033 0.09464 0.69147 0.0
H775 H 0.5507 0.07662 0.68315 0.0
H776 H 0.45934 0.92673 0.80225 0.0
H777 H 0.50305 0.90095 0.78537 0.0
H778 H 0.41047 0.95033 0.76663 0.0
H779 H 0.39646 1.00023 0.75102 0.0
C780 C 0.27309 0.5002 0.96355 0.0
C781 C 0.26444 0.46002 0.97961 0.0
C782 C 0.23956 0.49039 0.04399 0.0
C783 C 0.24456 0.53106 0.02725 0.0
N784 N 0.27847 0.57442 0.97656 0.0
N785 N 0.2643 0.41973 0.04261 0.0
C786 C 0.26536 0.53591 0.98862 0.0
C787 C 0.25596 0.45592 0.02234 0.0
N788 N 0.28898 0.50385 0.92448 0.0
N789 N 0.21636 0.48369 0.07866 0.0
H790 H 0.28085 0.39567 0.0288 0.0
H791 H 0.26074 0.41639 0.07458 0.0
H792 H 0.20093 0.50721 0.09396 0.0
H793 H 0.20868 0.45412 0.08932 0.0
H794 H 0.29112 0.53174 0.90835 0.0
H795 H 0.29995 0.47816 0.90813 0.0
H796 H 0.29623 0.58 0.95019 0.0
H797 H 0.27463 0.60066 0.99507 0.0
C798 C 0.73385 0.54894 0.02376 0.0
C799 C 0.73475 0.5409 0.98051 0.0
C800 C 0.73423 0.46601 0.99417 0.0
C801 C 0.73287 0.47405 0.03731 0.0
N802 N 0.71772 0.5223 0.09222 0.0
N803 N 0.72114 0.49282 0.92519 0.0
C804 C 0.72806 0.51529 0.0518 0.0
C805 C 0.73046 0.49964 0.96587 0.0
N806 N 0.7409 0.58812 0.03829 0.0
N807 N 0.73984 0.42642 0.98022 0.0
H808 H 0.71496 0.51718 0.90482 0.0
H809 H 0.71467 0.46358 0.91308 0.0
H810 H 0.7407 0.40083 1.00005 0.0
H811 H 0.74586 0.41934 0.94928 0.0
H812 H 0.74542 0.59474 0.06957 0.0
H813 H 0.74555 0.61361 0.01893 0.0
H814 H 0.71071 0.5516 0.10386 0.0
H815 H 0.71143 0.4982 0.11282 0.0
C816 C 0.24041 0.16296 0.70385 0.0
C817 C 0.20998 0.1322 0.69554 0.0
C818 C 0.26146 0.07855 0.71282 0.0
C819 C 0.29084 0.11006 0.72199 0.0
N820 N 0.31382 0.17794 0.70317 0.0
N821 N 0.19427 0.06004 0.68347 0.0
C822 C 0.28211 0.151 0.71009 0.0
C823 C 0.22133 0.08957 0.69725 0.0
N824 N 0.22925 0.20343 0.70832 0.0
N825 N 0.27248 0.03824 0.71923 0.0
H826 H 0.16498 0.06732 0.67194 0.0
H827 H 0.20151 0.02871 0.68103 0.0
H828 H 0.3028 0.03022 0.72743 0.0
H829 H 0.25205 0.01331 0.71729 0.0
H830 H 0.25033 0.22639 0.71691 0.0
H831 H 0.19834 0.21286 0.70788 0.0
H832 H 0.30931 0.20813 0.69247 0.0
H833 H 0.34417 0.16705 0.70125 0.0
C834 C 0.73278 0.84325 0.70747 0.0
C835 C 0.72295 0.88433 0.71805 0.0
C836 C 0.79238 0.90564 0.69335 0.0
C837 C 0.80488 0.86333 0.69369 0.0
N838 N 0.78688 0.79191 0.70782 0.0
N839 N 0.73902 0.95636 0.71112 0.0
C840 C 0.77492 0.83208 0.70229 0.0
C841 C 0.75163 0.91618 0.70775 0.0
N842 N 0.70181 0.81543 0.70063 0.0
N843 N 0.81881 0.93523 0.67831 0.0
H844 H 0.70807 0.96366 0.71744 0.0
H845 H 0.75855 0.98187 0.70796 0.0
H846 H 0.84826 0.92823 0.66689 0.0
H847 H 0.81089 0.96627 0.67462 0.0
H848 H 0.70721 0.78518 0.6906 0.0
H849 H 0.67104 0.82516 0.69877 0.0
H850 H 0.76615 0.76832 0.71544 0.0
H851 H 0.81798 0.78317 0.70893 0.0
C852 C 0.25586 0.85112 0.27004 0.0
C853 C 0.27482 0.89075 0.27112 0.0
C854 C 0.21967 0.91438 0.31903 0.0
C855 C 0.1996 0.87524 0.31513 0.0
N856 N 0.19997 0.80572 0.28653 0.0
N857 N 0.27414 0.96137 0.29489 0.0
C858 C 0.21841 0.84357 0.291 0.0
C859 C 0.2568 0.9227 0.29563 0.0
N860 N 0.27209 0.81951 0.2475 0.0
N861 N 0.2038 0.94301 0.34589 0.0
H862 H 0.30184 0.9677 0.27932 0.0
H863 H 0.26051 0.98748 0.30801 0.0
H864 H 0.17683 0.93766 0.36303 0.0
H865 H 0.21844 0.97079 0.35329 0.0
H866 H 0.29943 0.82168 0.23056 0.0
H867 H 0.29943 0.82168 0.23056 0.0
H868 H 0.21254 0.78167 0.26889 0.0
H869 H 0.17179 0.79844 0.29977 0.0
C870 C 0.74174 0.16251 0.25063 0.0
C871 C 0.71872 0.12643 0.26096 0.0
C872 C 0.77262 0.10714 0.31143 0.0
C873 C 0.79762 0.14059 0.29714 0.0
N874 N 0.80795 0.19749 0.24981 0.0
N875 N 0.71304 0.0624 0.29869 0.0
C876 C 0.78257 0.16764 0.266 0.0
C877 C 0.73421 0.09832 0.29105 0.0
N878 N 0.7244 0.19204 0.22572 0.0
N879 N 0.78539 0.0842 0.34466 0.0
H880 H 0.68409 0.05627 0.2855 0.0
H881 H 0.72484 0.03814 0.31643 0.0
H882 H 0.8139 0.08906 0.35919 0.0
H883 H 0.7668 0.06221 0.35935 0.0
H884 H 0.73757 0.22107 0.22039 0.0
H885 H 0.69488 0.1888 0.21325 0.0
H886 H 0.80161 0.21281 0.22212 0.0
H887 H 0.83709 0.20431 0.26188 0.0
C888 C 0.67548 0.24696 0.14383 0.0
C889 C 0.67909 0.21112 0.11798 0.0
C890 C 0.71895 0.2546 0.06928 0.0
C891 C 0.72707 0.28371 0.1012 0.0
N892 N 0.70515 0.31159 0.16696 0.0
N893 N 0.69544 0.18601 0.04943 0.0
C894 C 0.70308 0.28107 0.138 0.0
C895 C 0.69832 0.21647 0.07861 0.0
N896 N 0.64312 0.25087 0.17085 0.0
N897 N 0.72792 0.26536 0.02941 0.0
H898 H 0.67447 0.1615 0.05205 0.0
H899 H 0.71356 0.18547 0.02267 0.0
H900 H 0.73865 0.29506 0.02211 0.0
H901 H 0.72001 0.24739 0.00379 0.0
H902 H 0.63822 0.277 0.18916 0.0
H903 H 0.61694 0.23221 0.16929 0.0
H904 H 0.69516 0.30763 0.19747 0.0
H905 H 0.71508 0.34123 0.15954 0.0
C906 C 0.29232 0.74768 0.08917 0.0
C907 C 0.27397 0.72781 0.12402 0.0
C908 C 0.32157 0.76603 0.16814 0.0
C909 C 0.32922 0.79534 0.13623 0.0
N910 N 0.32833 0.80855 0.06259 0.0
N911 N 0.2661 0.72662 0.19859 0.0
C912 C 0.3166 0.78446 0.09535 0.0
C913 C 0.28723 0.73917 0.16418 0.0
N914 N 0.28735 0.73097 0.05066 0.0
N915 N 0.34762 0.76223 0.20114 0.0
H916 H 0.23764 0.7113 0.1968 0.0
H917 H 0.27472 0.73581 0.22838 0.0
H918 H 0.37636 0.77702 0.20194 0.0
H919 H 0.34304 0.7399 0.22415 0.0
H920 H 0.30262 0.74205 0.02442 0.0
H921 H 0.27058 0.70368 0.04581 0.0
H922 H 0.31588 0.80529 0.03297 0.0
H923 H 0.35053 0.83195 0.06545 0.0
C924 C 0.71193 0.74699 0.92401 0.0
C925 C 0.72432 0.71755 0.89366 0.0
C926 C 0.70974 0.76723 0.83917 0.0
C927 C 0.69731 0.79744 0.86864 0.0
N928 N 0.67713 0.81238 0.93913 0.0
N929 N 0.7105 0.69386 0.82475 0.0
C930 C 0.69549 0.7863 0.9113 0.0
C931 C 0.71528 0.72572 0.8519 0.0
N932 N 0.71573 0.73677 0.96484 0.0
N933 N 0.71835 0.77844 0.79935 0.0
H934 H 0.70905 0.66332 0.83526 0.0
H935 H 0.70179 0.69834 0.79393 0.0
H936 H 0.71887 0.80934 0.78979 0.0
H937 H 0.7288 0.75734 0.77731 0.0
H938 H 0.71166 0.75768 0.98907 0.0
H939 H 0.72395 0.70679 0.97397 0.0
H940 H 0.67181 0.80464 0.97001 0.0
H941 H 0.6645 0.8409 0.93063 0.0
C942 C 0.31499 0.21781 0.90871 0.0
C943 C 0.33103 0.21204 0.86808 0.0
C944 C 0.31088 0.2839 0.85093 0.0
C945 C 0.28911 0.28692 0.8891 0.0
N946 N 0.29046 0.26469 0.96048 0.0
N947 N 0.36695 0.25071 0.81452 0.0
C948 C 0.29722 0.25643 0.91976 0.0
C949 C 0.33556 0.24813 0.84273 0.0
N950 N 0.31922 0.18767 0.9381 0.0
N951 N 0.30971 0.31551 0.823 0.0
H952 H 0.39238 0.23109 0.81585 0.0
H953 H 0.37251 0.27667 0.79609 0.0
H954 H 0.30267 0.34565 0.83167 0.0
H955 H 0.31786 0.31184 0.79192 0.0
H956 H 0.30667 0.19061 0.96782 0.0
H957 H 0.33689 0.16106 0.93334 0.0
H958 H 0.28182 0.29402 0.97112 0.0
H959 H 0.28182 0.29402 0.97112 0.0
C960 C 0.14757 0.70867 0.28914 0.0
C961 C 0.10912 0.72999 0.29082 0.0
C962 C 0.08801 0.69532 0.22614 0.0
C963 C 0.12937 0.68096 0.21997 0.0
N964 N 0.18947 0.65543 0.25744 0.0
N965 N 0.03745 0.72715 0.27004 0.0
C966 C 0.1569 0.68235 0.25478 0.0
C967 C 0.07795 0.71868 0.26207 0.0
N968 N 0.1746 0.71197 0.32129 0.0
N969 N 0.05716 0.68444 0.19927 0.0
H970 H 0.02736 0.73986 0.29805 0.0
H971 H 0.02736 0.73986 0.29805 0.0
H972 H 0.061 0.66181 0.17653 0.0
H973 H 0.02694 0.69578 0.20204 0.0
H974 H 0.20629 0.70611 0.31891 0.0
H975 H 0.16406 0.71807 0.35103 0.0
H976 H 0.21005 0.65402 0.28222 0.0
H977 H 0.19218 0.62967 0.23856 0.0
C978 C 0.15945 0.29128 0.7254 0.0
C979 C 0.11786 0.28118 0.71699 0.0
C980 C 0.0982 0.3118 0.78423 0.0
C981 C 0.14073 0.31157 0.79607 0.0
N982 N 0.21163 0.29438 0.77877 0.0
N983 N 0.04618 0.29075 0.73335 0.0
C984 C 0.1714 0.29977 0.76674 0.0
C985 C 0.08667 0.29456 0.74499 0.0
N986 N 0.18711 0.29423 0.69369 0.0
N987 N 0.06933 0.32896 0.81003 0.0
H988 H 0.03815 0.28129 0.70343 0.0
H989 H 0.02102 0.29621 0.75282 0.0
H990 H 0.07713 0.34189 0.83857 0.0
H991 H 0.03817 0.33257 0.80249 0.0
H992 H 0.21775 0.3038 0.69783 0.0
H993 H 0.17712 0.29305 0.663 0.0
H994 H 0.23468 0.28378 0.75879 0.0
H995 H 0.22102 0.29678 0.80961 0.0
C996 C 0.91677 0.69249 0.79418 0.0
C997 C 0.87371 0.69063 0.80395 0.0
C998 C 0.85775 0.70491 0.73097 0.0
C999 C 0.89892 0.7173 0.72397 0.0
N1000 N 0.97003 0.71357 0.74447 0.0
N1001 N 0.80317 0.70236 0.78177 0.0
C1002 C 0.92929 0.70784 0.75437 0.0
C1003 C 0.84414 0.69841 0.7722 0.0
N1004 N 0.94529 0.67903 0.82245 0.0
N1005 N 0.83211 0.69824 0.69818 0.0
H1006 H 0.79269 0.70283 0.81233 0.0
H1007 H 0.78067 0.70944 0.75975 0.0
H1008 H 0.84378 0.69802 0.66804 0.0
H1009 H 0.80193 0.68697 0.70137 0.0
H1010 H 0.97696 0.67697 0.81663 0.0
H1011 H 0.93691 0.66751 0.85144 0.0
H1012 H 0.9944 0.71098 0.76543 0.0
H1013 H 0.97903 0.72142 0.71433 0.0
C1014 C 0.85534 0.29452 0.2667 0.0
C1015 C 0.89575 0.28102 0.27606 0.0
C1016 C 0.91785 0.30638 0.20707 0.0
C1017 C 0.87543 0.30933 0.19506 0.0
N1018 N 0.80375 0.29594 0.2131 0.0
N1019 N 0.96788 0.2823 0.25851 0.0
C1020 C 0.84412 0.30067 0.22485 0.0
C1021 C 0.92786 0.28941 0.247 0.0
N1022 N 0.82826 0.30362 0.29768 0.0
N1023 N 0.94813 0.32102 0.18126 0.0
H1024 H 0.97538 0.27526 0.28921 0.0
H1025 H 0.99297 0.2831 0.23819 0.0
H1026 H 0.94166 0.33443 0.15256 0.0
H1027 H 0.97934 0.32267 0.18934 0.0
H1028 H 0.79872 0.31559 0.29207 0.0
H1029 H 0.83824 0.30558 0.32834 0.0
H1030 H 0.7804 0.28762 0.23394 0.0
H1031 H 0.7947 0.29558 0.18206 0.0
C1032 C 0.05392 0.99994 0.6862 0.0
C1033 C 0.04442 0.03194 0.65772 0.0
C1034 C 0.98522 0.99167 0.63175 0.0
C1035 C 0.99692 0.95801 0.65769 0.0
N1036 N 0.04899 0.92709 0.70205 0.0
N1037 N 0.00544 0.0563 0.59873 0.0
C1038 C 0.03294 0.96135 0.68307 0.0
C1039 C 0.01152 0.02711 0.62889 0.0
N1040 N 0.08306 0.00632 0.71636 0.0
N1041 N 0.94804 0.99064 0.61135 0.0
H1042 H 0.02349 0.08304 0.59622 0.0
H1043 H 0.98483 0.05241 0.57418 0.0
H1044 H 0.92731 0.96588 0.61373 0.0
H1045 H 0.93586 0.01589 0.59532 0.0
H1046 H 0.08743 0.98608 0.74118 0.0
H1047 H 0.10099 0.03322 0.71826 0.0
H1048 H 0.07765 0.92676 0.71696 0.0
H1049 H 0.03585 0.89786 0.69937 0.0
C1050 C 0.98181 0.03064 0.39759 0.0
C1051 C 0.95016 0.03504 0.36741 0.0
C1052 C 0.96442 0.96517 0.34168 0.0
C1053 C 0.99985 0.96279 0.36792 0.0
N1054 N 0.04464 0.99478 0.41861 0.0
N1055 N 0.91337 0.00874 0.30798 0.0
C1056 C 0.00899 0.99582 0.39563 0.0
C1057 C 0.94199 0.00289 0.33875 0.0
N1058 N 0.98571 0.05979 0.4281 0.0
N1059 N 0.95074 0.93078 0.32116 0.0
H1060 H 0.89454 0.035 0.30617 0.0
H1061 H 0.91009 0.98875 0.28284 0.0
H1062 H 0.9655 0.9023 0.32325 0.0
H1063 H 0.92259 0.92939 0.30537 0.0
H1064 H 0.0056 0.05672 0.45333 0.0
H1065 H 0.96622 0.08556 0.43008 0.0
H1066 H 0.05527 0.01964 0.43624 0.0
H1067 H 0.06558 0.97017 0.4175 0.0
C1068 C 0.61446 0.97842 0.98566 0.0
C1069 C 0.63914 0.99006 0.95095 0.0
C1070 C 0.66676 0.04913 0.99042 0.0
C1071 C 0.63971 0.03949 0.0236 0.0
N1072 N 0.58294 0.99915 0.05092 0.0
N1073 N 0.6793 0.04382 0.91716 0.0
C1074 C 0.61181 0.00555 0.02051 0.0
C1075 C 0.66277 0.02739 0.95248 0.0
N1076 N 0.59529 0.94057 0.9863 0.0
N1077 N 0.69672 0.07883 0.99512 0.0
H1078 H 0.67556 0.03017 0.88836 0.0
H1079 H 0.69281 0.07316 0.91572 0.0
H1080 H 0.69984 0.09671 0.02185 0.0
H1081 H 0.72051 0.08344 0.97369 0.0
H1082 H 0.58035 0.92859 0.01232 0.0
H1083 H 0.59753 0.91931 0.96206 0.0
H1084 H 0.55898 0.97759 0.04849 0.0
H1085 H 0.58089 0.01781 0.07724 0.0
C1086 C 0.33135 0.03048 0.03838 0.0
C1087 C 0.35984 0.99712 0.04327 0.0
C1088 C 0.39325 0.01632 0.9773 0.0
C1089 C 0.36238 0.04713 0.97091 0.0
N1090 N 0.29929 0.08085 0.99285 0.0
N1091 N 0.41432 0.95451 0.01492 0.0
C1092 C 0.33062 0.05331 1.0007 0.0
C1093 C 0.39011 0.98925 0.0122 0.0
N1094 N 0.30636 0.04201 0.07056 0.0
N1095 N 0.42523 0.01249 0.9497 0.0
H1096 H 0.41218 0.9334 0.03936 0.0
H1097 H 0.43398 0.94444 0.9914 0.0
H1098 H 0.42716 0.02971 0.92244 0.0
H1099 H 0.45132 0.99424 0.95498 0.0
H1100 H 0.28899 0.06922 0.07092 0.0
H1101 H 0.30548 0.02629 0.09857 0.0
H1102 H 0.2721 0.08228 0.01025 0.0
H1103 H 0.29921 0.10085 0.96742 0.0
C1104 C 0.97704 0.61694 0.99931 0.0
C1105 C 0.97045 0.64841 0.96921 0.0
C1106 C 0.03848 0.6785 0.98494 0.0
C1107 C 0.04359 0.64945 0.01782 0.0
N1108 N 0.01525 0.59469 0.06027 0.0
N1109 N 0.99228 0.71183 0.93598 0.0
C1110 C 0.01229 0.61941 0.02589 0.0
C1111 C 1.00036 0.68003 0.96293 0.0
N1112 N 0.94944 0.58487 0.0027 0.0
N1113 N 0.07085 0.70312 0.97299 0.0
H1114 H 0.96636 0.7125 0.91662 0.0
H1115 H 0.01003 0.73881 0.93447 0.0
H1116 H 0.09934 0.70295 0.98783 0.0
H1117 H 0.07082 0.72109 0.94614 0.0
H1118 H 0.95477 0.55852 0.02059 0.0
H1119 H 0.92227 0.5831 0.98527 0.0
H1120 H 0.99162 0.5751 0.0704 0.0
H1121 H 0.04 0.59634 0.08103 0.0
C1122 C 0.00872 0.33424 0.94613 0.0
C1123 C 0.04083 0.36213 0.95705 0.0
C1124 C 0.99958 0.38688 0.01606 0.0
C1125 C 0.9662 0.36095 0.00343 0.0
N1126 N 0.93558 0.31897 0.94938 0.0
N1127 N 0.06461 0.4203 0.99744 0.0
C1128 C 0.96982 0.337 0.96656 0.0
C1129 C 0.03546 0.3903 0.99038 0.0
N1130 N 0.0154 0.30476 0.91641 0.0
N1131 N 0.99786 0.4067 0.05349 0.0
H1132 H 0.09136 0.42333 0.97947 0.0
H1133 H 0.0606 0.44432 0.01863 0.0
H1134 H 0.97265 0.40412 0.07363 0.0
H1135 H 0.02285 0.42265 0.06633 0.0
H1136 H 0.99492 0.28034 0.91092 0.0
H1137 H 0.04272 0.30295 0.89915 0.0
H1138 H 0.93556 0.30498 0.92028 0.0
H1139 H 0.90614 0.3218 0.9621 0.0
loop_
_geom_bond_atom_site_label_1
_geom_bond_atom_site_label_2
_geom_bond_distance
_geom_bond_site_symmetry_2
_ccdc_geom_bond_type
Co0 O2 2.143 . S
Co0 O8 2.074 . S
Co0 O11 2.093 . S
Co0 O24 2.097 . S
Co0 N41 2.151 . S
Co0 N49 2.214 . S
Co1 O2 2.160 . S
Co1 O7 2.058 . S
Co1 O17 2.057 . S
Co1 O32 2.037 . S
Co1 N36 2.145 . S
Co1 N57 2.257 . S
O2 Co0 2.143 . S
O2 Co1 2.160 . S
C3 O4 1.278 . S
C3 O11 1.224 . S
O4 C3 1.278 . S
C5 O6 1.245 . S
C5 O17 1.232 . S
O6 C5 1.245 . S
O7 Co1 2.058 . S
O7 C33 1.269 . S
O8 Co0 2.074 . S
O8 C33 1.257 . S
H9 C34 0.930 . S
H10 C40 0.930 . S
O11 Co0 2.093 . S
O11 C3 1.224 . S
H12 C44 0.929 . S
H13 C46 0.930 . S
H14 C47 0.930 . S
H15 C45 0.929 1_455 S
H16 C48 0.928 . S
O17 Co1 2.057 . S
O17 C5 1.232 . S
H18 C37 0.929 . S
H19 C38 0.929 . S
H20 C50 0.931 . S
H21 C42 0.929 . S
H22 C51 0.930 . S
H23 C43 0.931 . S
O24 Co0 2.097 . S
O24 C52 1.214 . S
H25 C53 0.929 . S
H26 C54 0.929 . S
H27 C55 0.930 . S
H28 C56 0.929 . S
H29 C58 0.930 . S
H30 C35 0.930 . S
H31 C39 0.930 . S
O32 Co1 2.037 . S
O32 C52 1.234 . S
C33 O7 1.269 . S
C33 O8 1.257 . S
C34 H9 0.930 . S
C34 C37 1.388 . S
C34 C39 1.418 . S
C35 H30 0.930 . S
C35 C38 1.404 . S
C35 C39 1.353 . S
N36 Co1 2.145 . S
N36 C37 1.397 . S
N36 C38 1.334 . S
C37 H18 0.929 . S
C37 C34 1.388 . S
C37 N36 1.397 . S
C38 H19 0.929 . S
C38 C35 1.404 . S
C38 N36 1.334 . S
C39 H31 0.930 . S
C39 C34 1.418 . S
C39 C35 1.353 . S
C40 H10 0.930 . S
C40 N41 1.330 1_655 S
C40 C42 1.446 . S
N41 Co0 2.151 . S
N41 C40 1.330 1_455 S
N41 C45 1.418 1_455 S
C42 H21 0.929 . S
C42 C40 1.446 . S
C42 C43 1.332 . S
C43 H23 0.931 . S
C43 C42 1.332 . S
C43 C44 1.267 . S
C44 H12 0.929 . S
C44 C43 1.267 . S
C44 C45 1.251 . S
C45 H15 0.929 1_655 S
C45 N41 1.418 1_655 S
C45 C44 1.251 . S
C46 H13 0.930 . S
C46 C48 1.406 . S
C46 C51 1.261 . S
C47 H14 0.930 . S
C47 N49 1.325 . S
C47 C50 1.357 . S
C48 H16 0.928 . S
C48 C46 1.406 . S
C48 N49 1.261 . S
N49 Co0 2.214 . S
N49 C47 1.325 . S
N49 C48 1.261 . S
C50 H20 0.931 . S
C50 C47 1.357 . S
C50 C51 1.312 . S
C51 H22 0.930 . S
C51 C46 1.261 . S
C51 C50 1.312 . S
C52 O24 1.214 . S
C52 O32 1.234 . S
C53 H25 0.929 . S
C53 C56 1.391 . S
C53 C58 1.391 . S
C54 H26 0.929 . S
C54 C55 1.390 . S
C54 N57 1.391 . S
C55 H27 0.930 . S
C55 C54 1.390 . S
C55 C56 1.392 . S
C56 H28 0.929 . S
C56 C53 1.391 . S
C56 C55 1.392 . S
N57 Co1 2.257 . S
N57 C54 1.391 . S
N57 C58 1.388 . S
C58 H29 0.930 . S
C58 C53 1.391 . S
C58 N57 1.388 . S
Co59 O61 2.143 . S
Co59 O67 2.074 . S
Co59 O70 2.093 . S
Co59 O83 2.097 . S
Co59 N100 2.151 . S
Co59 N108 2.214 . S
Co60 O61 2.160 . S
Co60 O66 2.058 . S
Co60 O76 2.057 . S
Co60 O91 2.037 . S
Co60 N95 2.145 . S
Co60 N116 2.257 . S
O61 Co59 2.143 . S
O61 Co60 2.160 . S
C62 O63 1.278 . S
C62 O70 1.224 . S
O63 C62 1.278 . S
C64 O65 1.245 . S
C64 O76 1.232 . S
O65 C64 1.245 . S
O66 Co60 2.058 . S
O66 C92 1.269 . S
O67 Co59 2.074 . S
O67 C92 1.257 . S
H68 C93 0.930 . S
H69 C99 0.930 . S
O70 Co59 2.093 . S
O70 C62 1.224 . S
H71 C103 0.929 . S
H72 C105 0.930 . S
H73 C106 0.930 . S
H74 C104 0.929 1_655 S
H75 C107 0.928 . S
O76 Co60 2.057 . S
O76 C64 1.232 . S
H77 C96 0.929 . S
H78 C97 0.929 . S
H79 C109 0.931 . S
H80 C101 0.929 . S
H81 C110 0.930 . S
H82 C102 0.931 . S
O83 Co59 2.097 . S
O83 C111 1.214 . S
H84 C112 0.929 . S
H85 C113 0.929 . S
H86 C114 0.930 . S
H87 C115 0.929 . S
H88 C117 0.930 . S
H89 C94 0.930 . S
H90 C98 0.930 . S
O91 Co60 2.037 . S
O91 C111 1.234 . S
C92 O66 1.269 . S
C92 O67 1.257 . S
C93 H68 0.930 . S
C93 C96 1.388 . S
C93 C98 1.418 . S
C94 H89 0.930 . S
C94 C97 1.404 . S
C94 C98 1.353 . S
N95 Co60 2.145 . S
N95 C96 1.397 . S
N95 C97 1.334 . S
C96 H77 0.929 . S
C96 C93 1.388 . S
C96 N95 1.397 . S
C97 H78 0.929 . S
C97 C94 1.404 . S
C97 N95 1.334 . S
C98 H90 0.930 . S
C98 C93 1.418 . S
C98 C94 1.353 . S
C99 H69 0.930 . S
C99 N100 1.330 1_455 S
C99 C101 1.446 . S
N100 Co59 2.151 . S
N100 C99 1.330 1_655 S
N100 C104 1.418 1_655 S
C101 H80 0.929 . S
C101 C99 1.446 . S
C101 C102 1.332 . S
C102 H82 0.931 . S
C102 C101 1.332 . S
C102 C103 1.267 . S
C103 H71 0.929 . S
C103 C102 1.267 . S
C103 C104 1.251 . S
C104 H74 0.929 1_455 S
C104 N100 1.418 1_455 S
C104 C103 1.251 . S
C105 H72 0.930 . S
C105 C107 1.406 . S
C105 C110 1.261 . S
C106 H73 0.930 . S
C106 N108 1.325 . S
C106 C109 1.357 . S
C107 H75 0.928 . S
C107 C105 1.406 . S
C107 N108 1.261 . S
N108 Co59 2.214 . S
N108 C106 1.325 . S
N108 C107 1.261 . S
C109 H79 0.931 . S
C109 C106 1.357 . S
C109 C110 1.312 . S
C110 H81 0.930 . S
C110 C105 1.261 . S
C110 C109 1.312 . S
C111 O83 1.214 . S
C111 O91 1.234 . S
C112 H84 0.929 . S
C112 C115 1.391 . S
C112 C117 1.391 . S
C113 H85 0.929 . S
C113 C114 1.390 . S
C113 N116 1.391 . S
C114 H86 0.930 . S
C114 C113 1.390 . S
C114 C115 1.392 . S
C115 H87 0.929 . S
C115 C112 1.391 . S
C115 C114 1.392 . S
N116 Co60 2.257 . S
N116 C113 1.391 . S
N116 C117 1.388 . S
C117 H88 0.930 . S
C117 C112 1.391 . S
C117 N116 1.388 . S
Co118 O120 2.143 . S
Co118 O126 2.074 . S
Co118 O129 2.093 . S
Co118 O142 2.097 . S
Co118 N159 2.151 . S
Co118 N167 2.214 . S
Co119 O120 2.160 . S
Co119 O125 2.058 . S
Co119 O135 2.057 . S
Co119 O150 2.037 . S
Co119 N154 2.145 . S
Co119 N175 2.257 . S
O120 Co118 2.143 . S
O120 Co119 2.160 . S
C121 O122 1.278 . S
C121 O129 1.224 . S
O122 C121 1.278 . S
C123 O124 1.245 . S
C123 O135 1.232 . S
O124 C123 1.245 . S
O125 Co119 2.058 . S
O125 C151 1.269 . S
O126 Co118 2.074 . S
O126 C151 1.257 . S
H127 C152 0.930 . S
H128 C158 0.930 . S
O129 Co118 2.093 . S
O129 C121 1.224 . S
H130 C162 0.929 . S
H131 C164 0.930 . S
H132 C165 0.930 . S
H133 C163 0.929 1_455 S
H134 C166 0.928 . S
O135 Co119 2.057 . S
O135 C123 1.232 . S
H136 C155 0.929 . S
H137 C156 0.929 . S
H138 C168 0.931 . S
H139 C160 0.929 . S
H140 C169 0.930 . S
H141 C161 0.931 . S
O142 Co118 2.097 . S
O142 C170 1.214 . S
H143 C171 0.929 . S
H144 C172 0.929 . S
H145 C173 0.930 . S
H146 C174 0.929 . S
H147 C176 0.930 . S
H148 C153 0.930 . S
H149 C157 0.930 . S
O150 Co119 2.037 . S
O150 C170 1.234 . S
C151 O125 1.269 . S
C151 O126 1.257 . S
C152 H127 0.930 . S
C152 C155 1.388 . S
C152 C157 1.418 . S
C153 H148 0.930 . S
C153 C156 1.404 . S
C153 C157 1.353 . S
N154 Co119 2.145 . S
N154 C155 1.397 . S
N154 C156 1.334 . S
C155 H136 0.929 . S
C155 C152 1.388 . S
C155 N154 1.397 . S
C156 H137 0.929 . S
C156 C153 1.404 . S
C156 N154 1.334 . S
C157 H149 0.930 . S
C157 C152 1.418 . S
C157 C153 1.353 . S
C158 H128 0.930 . S
C158 N159 1.330 1_655 S
C158 C160 1.446 . S
N159 Co118 2.151 . S
N159 C158 1.330 1_455 S
N159 C163 1.418 1_455 S
C160 H139 0.929 . S
C160 C158 1.446 . S
C160 C161 1.332 . S
C161 H141 0.931 . S
C161 C160 1.332 . S
C161 C162 1.267 . S
C162 H130 0.929 . S
C162 C161 1.267 . S
C162 C163 1.251 . S
C163 H133 0.929 1_655 S
C163 N159 1.418 1_655 S
C163 C162 1.251 . S
C164 H131 0.930 . S
C164 C166 1.406 . S
C164 C169 1.261 . S
C165 H132 0.930 . S
C165 N167 1.325 . S
C165 C168 1.357 . S
C166 H134 0.928 . S
C166 C164 1.406 . S
C166 N167 1.261 . S
N167 Co118 2.214 . S
N167 C165 1.325 . S
N167 C166 1.261 . S
C168 H138 0.931 . S
C168 C165 1.357 . S
C168 C169 1.312 . S
C169 H140 0.930 . S
C169 C164 1.261 . S
C169 C168 1.312 . S
C170 O142 1.214 . S
C170 O150 1.234 . S
C171 H143 0.929 . S
C171 C174 1.391 . S
C171 C176 1.391 . S
C172 H144 0.929 . S
C172 C173 1.390 . S
C172 N175 1.391 . S
C173 H145 0.930 . S
C173 C172 1.390 . S
C173 C174 1.392 . S
C174 H146 0.929 . S
C174 C171 1.391 . S
C174 C173 1.392 . S
N175 Co119 2.257 . S
N175 C172 1.391 . S
N175 C176 1.388 . S
C176 H147 0.930 . S
C176 C171 1.391 . S
C176 N175 1.388 . S
Co177 O179 2.143 . S
Co177 O185 2.074 . S
Co177 O188 2.093 . S
Co177 O201 2.097 . S
Co177 N218 2.151 . S
Co177 N226 2.214 . S
Co178 O179 2.160 . S
Co178 O184 2.058 . S
Co178 O194 2.057 . S
Co178 O209 2.037 . S
Co178 N213 2.145 . S
Co178 N234 2.257 . S
O179 Co177 2.143 . S
O179 Co178 2.160 . S
C180 O181 1.278 . S
C180 O188 1.224 . S
O181 C180 1.278 . S
C182 O183 1.245 . S
C182 O194 1.232 . S
O183 C182 1.245 . S
O184 Co178 2.058 . S
O184 C210 1.269 . S
O185 Co177 2.074 . S
O185 C210 1.257 . S
H186 C211 0.930 . S
H187 C217 0.930 . S
O188 Co177 2.093 . S
O188 C180 1.224 . S
H189 C221 0.929 . S
H190 C223 0.930 . S
H191 C224 0.930 . S
H192 C222 0.929 1_655 S
H193 C225 0.928 . S
O194 Co178 2.057 . S
O194 C182 1.232 . S
H195 C214 0.929 . S
H196 C215 0.929 . S
H197 C227 0.931 . S
H198 C219 0.929 . S
H199 C228 0.930 . S
H200 C220 0.931 . S
O201 Co177 2.097 . S
O201 C229 1.214 . S
H202 C230 0.929 . S
H203 C231 0.929 . S
H204 C232 0.930 . S
H205 C233 0.929 . S
H206 C235 0.930 . S
H207 C212 0.930 . S
H208 C216 0.930 . S
O209 Co178 2.037 . S
O209 C229 1.234 . S
C210 O184 1.269 . S
C210 O185 1.257 . S
C211 H186 0.930 . S
C211 C214 1.388 . S
C211 C216 1.418 . S
C212 H207 0.930 . S
C212 C215 1.404 . S
C212 C216 1.353 . S
N213 Co178 2.145 . S
N213 C214 1.397 . S
N213 C215 1.334 . S
C214 H195 0.929 . S
C214 C211 1.388 . S
C214 N213 1.397 . S
C215 H196 0.929 . S
C215 C212 1.404 . S
C215 N213 1.334 . S
C216 H208 0.930 . S
C216 C211 1.418 . S
C216 C212 1.353 . S
C217 H187 0.930 . S
C217 N218 1.330 1_455 S
C217 C219 1.446 . S
N218 Co177 2.151 . S
N218 C217 1.330 1_655 S
N218 C222 1.418 1_655 S
C219 H198 0.929 . S
C219 C217 1.446 . S
C219 C220 1.332 . S
C220 H200 0.931 . S
C220 C219 1.332 . S
C220 C221 1.267 . S
C221 H189 0.929 . S
C221 C220 1.267 . S
C221 C222 1.251 . S
C222 H192 0.929 1_455 S
C222 N218 1.418 1_455 S
C222 C221 1.251 . S
C223 H190 0.930 . S
C223 C225 1.406 . S
C223 C228 1.261 . S
C224 H191 0.930 . S
C224 N226 1.325 . S
C224 C227 1.357 . S
C225 H193 0.928 . S
C225 C223 1.406 . S
C225 N226 1.261 . S
N226 Co177 2.214 . S
N226 C224 1.325 . S
N226 C225 1.261 . S
C227 H197 0.931 . S
C227 C224 1.357 . S
C227 C228 1.312 . S
C228 H199 0.930 . S
C228 C223 1.261 . S
C228 C227 1.312 . S
C229 O201 1.214 . S
C229 O209 1.234 . S
C230 H202 0.929 . S
C230 C233 1.391 . S
C230 C235 1.391 . S
C231 H203 0.929 . S
C231 C232 1.390 . S
C231 N234 1.391 . S
C232 H204 0.930 . S
C232 C231 1.390 . S
C232 C233 1.392 . S
C233 H205 0.929 . S
C233 C230 1.391 . S
C233 C232 1.392 . S
N234 Co178 2.257 . S
N234 C231 1.391 . S
N234 C235 1.388 . S
C235 H206 0.930 . S
C235 C230 1.391 . S
C235 N234 1.388 . S
Co236 O238 2.143 . S
Co236 O244 2.074 . S
Co236 O247 2.093 . S
Co236 O260 2.097 . S
Co236 N277 2.151 . S
Co236 N285 2.214 . S
Co237 O238 2.160 . S
Co237 O243 2.058 . S
Co237 O253 2.057 . S
Co237 O268 2.037 . S
Co237 N272 2.145 . S
Co237 N293 2.257 . S
O238 Co236 2.143 . S
O238 Co237 2.160 . S
C239 O240 1.278 . S
C239 O247 1.224 . S
O240 C239 1.278 . S
C241 O242 1.245 . S
C241 O253 1.232 . S
O242 C241 1.245 . S
O243 Co237 2.058 . S
O243 C269 1.269 . S
O244 Co236 2.074 . S
O244 C269 1.257 . S
H245 C270 0.930 . S
H246 C276 0.930 . S
O247 Co236 2.093 . S
O247 C239 1.224 . S
H248 C280 0.929 . S
H249 C282 0.930 . S
H250 C283 0.930 . S
H251 C281 0.929 1_545 S
H252 C284 0.928 . S
O253 Co237 2.057 . S
O253 C241 1.232 . S
H254 C273 0.929 . S
H255 C274 0.929 . S
H256 C286 0.931 . S
H257 C278 0.929 . S
H258 C287 0.930 . S
H259 C279 0.931 . S
O260 Co236 2.097 . S
O260 C288 1.214 . S
H261 C289 0.929 . S
H262 C290 0.929 . S
H263 C291 0.930 . S
H264 C292 0.929 . S
H265 C294 0.930 . S
H266 C271 0.930 . S
H267 C275 0.930 . S
O268 Co237 2.037 . S
O268 C288 1.234 . S
C269 O243 1.269 . S
C269 O244 1.257 . S
C270 H245 0.930 . S
C270 C273 1.388 . S
C270 C275 1.418 . S
C271 H266 0.930 . S
C271 C274 1.404 . S
C271 C275 1.353 . S
N272 Co237 2.145 . S
N272 C273 1.397 . S
N272 C274 1.334 . S
C273 H254 0.929 . S
C273 C270 1.388 . S
C273 N272 1.397 . S
C274 H255 0.929 . S
C274 C271 1.404 . S
C274 N272 1.334 . S
C275 H267 0.930 . S
C275 C270 1.418 . S
C275 C271 1.353 . S
C276 H246 0.930 . S
C276 N277 1.330 1_565 S
C276 C278 1.446 . S
N277 Co236 2.151 . S
N277 C276 1.330 1_545 S
N277 C281 1.418 1_545 S
C278 H257 0.929 . S
C278 C276 1.446 . S
C278 C279 1.332 . S
C279 H259 0.931 . S
C279 C278 1.332 . S
C279 C280 1.267 . S
C280 H248 0.929 . S
C280 C279 1.267 . S
C280 C281 1.251 . S
C281 H251 0.929 1_565 S
C281 N277 1.418 1_565 S
C281 C280 1.251 . S
C282 H249 0.930 . S
C282 C284 1.406 . S
C282 C287 1.261 . S
C283 H250 0.930 . S
C283 N285 1.325 . S
C283 C286 1.357 . S
C284 H252 0.928 . S
C284 C282 1.406 . S
C284 N285 1.261 . S
N285 Co236 2.214 . S
N285 C283 1.325 . S
N285 C284 1.261 . S
C286 H256 0.931 . S
C286 C283 1.357 . S
C286 C287 1.312 . S
C287 H258 0.930 . S
C287 C282 1.261 . S
C287 C286 1.312 . S
C288 O260 1.214 . S
C288 O268 1.234 . S
C289 H261 0.929 . S
C289 C292 1.391 . S
C289 C294 1.391 . S
C290 H262 0.929 . S
C290 C291 1.390 . S
C290 N293 1.391 . S
C291 H263 0.930 . S
C291 C290 1.390 . S
C291 C292 1.392 . S
C292 H264 0.929 . S
C292 C289 1.391 . S
C292 C291 1.392 . S
N293 Co237 2.257 . S
N293 C290 1.391 . S
N293 C294 1.388 . S
C294 H265 0.930 . S
C294 C289 1.391 . S
C294 N293 1.388 . S
Co295 O297 2.143 . S
Co295 O303 2.074 . S
Co295 O306 2.093 . S
Co295 O319 2.097 . S
Co295 N336 2.151 . S
Co295 N344 2.214 . S
Co296 O297 2.160 . S
Co296 O302 2.058 . S
Co296 O312 2.057 . S
Co296 O327 2.037 . S
Co296 N331 2.145 . S
Co296 N352 2.257 . S
O297 Co295 2.143 . S
O297 Co296 2.160 . S
C298 O299 1.278 . S
C298 O306 1.224 . S
O299 C298 1.278 . S
C300 O301 1.245 . S
C300 O312 1.232 . S
O301 C300 1.245 . S
O302 Co296 2.058 . S
O302 C328 1.269 . S
O303 Co295 2.074 . S
O303 C328 1.257 . S
H304 C329 0.930 . S
H305 C335 0.930 . S
O306 Co295 2.093 . S
O306 C298 1.224 . S
H307 C339 0.929 . S
H308 C341 0.930 . S
H309 C342 0.930 . S
H310 C340 0.929 1_565 S
H311 C343 0.928 . S
O312 Co296 2.057 . S
O312 C300 1.232 . S
H313 C332 0.929 . S
H314 C333 0.929 . S
H315 C345 0.931 . S
H316 C337 0.929 . S
H317 C346 0.930 . S
H318 C338 0.931 . S
O319 Co295 2.097 . S
O319 C347 1.214 . S
H320 C348 0.929 . S
H321 C349 0.929 . S
H322 C350 0.930 . S
H323 C351 0.929 . S
H324 C353 0.930 . S
H325 C330 0.930 . S
H326 C334 0.930 . S
O327 Co296 2.037 . S
O327 C347 1.234 . S
C328 O302 1.269 . S
C328 O303 1.257 . S
C329 H304 0.930 . S
C329 C332 1.388 . S
C329 C334 1.418 . S
C330 H325 0.930 . S
C330 C333 1.404 . S
C330 C334 1.353 . S
N331 Co296 2.145 . S
N331 C332 1.397 . S
N331 C333 1.334 . S
C332 H313 0.929 . S
C332 C329 1.388 . S
C332 N331 1.397 . S
C333 H314 0.929 . S
C333 C330 1.404 . S
C333 N331 1.334 . S
C334 H326 0.930 . S
C334 C329 1.418 . S
C334 C330 1.353 . S
C335 H305 0.930 . S
C335 N336 1.330 1_545 S
C335 C337 1.446 . S
N336 Co295 2.151 . S
N336 C335 1.330 1_565 S
N336 C340 1.418 1_565 S
C337 H316 0.929 . S
C337 C335 1.446 . S
C337 C338 1.332 . S
C338 H318 0.931 . S
C338 C337 1.332 . S
C338 C339 1.267 . S
C339 H307 0.929 . S
C339 C338 1.267 . S
C339 C340 1.251 . S
C340 H310 0.929 1_545 S
C340 N336 1.418 1_545 S
C340 C339 1.251 . S
C341 H308 0.930 . S
C341 C343 1.406 . S
C341 C346 1.261 . S
C342 H309 0.930 . S
C342 N344 1.325 . S
C342 C345 1.357 . S
C343 H311 0.928 . S
C343 C341 1.406 . S
C343 N344 1.261 . S
N344 Co295 2.214 . S
N344 C342 1.325 . S
N344 C343 1.261 . S
C345 H315 0.931 . S
C345 C342 1.357 . S
C345 C346 1.312 . S
C346 H317 0.930 . S
C346 C341 1.261 . S
C346 C345 1.312 . S
C347 O319 1.214 . S
C347 O327 1.234 . S
C348 H320 0.929 . S
C348 C351 1.391 . S
C348 C353 1.391 . S
C349 H321 0.929 . S
C349 C350 1.390 . S
C349 N352 1.391 . S
C350 H322 0.930 . S
C350 C349 1.390 . S
C350 C351 1.392 . S
C351 H323 0.929 . S
C351 C348 1.391 . S
C351 C350 1.392 . S
N352 Co296 2.257 . S
N352 C349 1.391 . S
N352 C353 1.388 . S
C353 H324 0.930 . S
C353 C348 1.391 . S
C353 N352 1.388 . S
Co354 O356 2.143 . S
Co354 O362 2.074 . S
Co354 O365 2.093 . S
Co354 O378 2.097 . S
Co354 N395 2.151 . S
Co354 N403 2.214 . S
Co355 O356 2.160 . S
Co355 O361 2.058 . S
Co355 O371 2.057 . S
Co355 O386 2.037 . S
Co355 N390 2.145 . S
Co355 N411 2.257 . S
O356 Co354 2.143 . S
O356 Co355 2.160 . S
C357 O358 1.278 . S
C357 O365 1.224 . S
O358 C357 1.278 . S
C359 O360 1.245 . S
C359 O371 1.232 . S
O360 C359 1.245 . S
O361 Co355 2.058 . S
O361 C387 1.269 . S
O362 Co354 2.074 . S
O362 C387 1.257 . S
H363 C388 0.930 . S
H364 C394 0.930 . S
O365 Co354 2.093 . S
O365 C357 1.224 . S
H366 C398 0.929 . S
H367 C400 0.930 . S
H368 C401 0.930 . S
H369 C399 0.929 1_565 S
H370 C402 0.928 . S
O371 Co355 2.057 . S
O371 C359 1.232 . S
H372 C391 0.929 . S
H373 C392 0.929 . S
H374 C404 0.931 . S
H375 C396 0.929 . S
H376 C405 0.930 . S
H377 C397 0.931 . S
O378 Co354 2.097 . S
O378 C406 1.214 . S
H379 C407 0.929 . S
H380 C408 0.929 . S
H381 C409 0.930 . S
H382 C410 0.929 . S
H383 C412 0.930 . S
H384 C389 0.930 . S
H385 C393 0.930 . S
O386 Co355 2.037 . S
O386 C406 1.234 . S
C387 O361 1.269 . S
C387 O362 1.257 . S
C388 H363 0.930 . S
C388 C391 1.388 . S
C388 C393 1.418 . S
C389 H384 0.930 . S
C389 C392 1.404 . S
C389 C393 1.353 . S
N390 Co355 2.145 . S
N390 C391 1.397 . S
N390 C392 1.334 . S
C391 H372 0.929 . S
C391 C388 1.388 . S
C391 N390 1.397 . S
C392 H373 0.929 . S
C392 C389 1.404 . S
C392 N390 1.334 . S
C393 H385 0.930 . S
C393 C388 1.418 . S
C393 C389 1.353 . S
C394 H364 0.930 . S
C394 N395 1.330 1_545 S
C394 C396 1.446 . S
N395 Co354 2.151 . S
N395 C394 1.330 1_565 S
N395 C399 1.418 1_565 S
C396 H375 0.929 . S
C396 C394 1.446 . S
C396 C397 1.332 . S
C397 H377 0.931 . S
C397 C396 1.332 . S
C397 C398 1.267 . S
C398 H366 0.929 . S
C398 C397 1.267 . S
C398 C399 1.251 . S
C399 H369 0.929 1_545 S
C399 N395 1.418 1_545 S
C399 C398 1.251 . S
C400 H367 0.930 . S
C400 C402 1.406 . S
C400 C405 1.261 . S
C401 H368 0.930 . S
C401 N403 1.325 . S
C401 C404 1.357 . S
C402 H370 0.928 . S
C402 C400 1.406 . S
C402 N403 1.261 . S
N403 Co354 2.214 . S
N403 C401 1.325 . S
N403 C402 1.261 . S
C404 H374 0.931 . S
C404 C401 1.357 . S
C404 C405 1.312 . S
C405 H376 0.930 . S
C405 C400 1.261 . S
C405 C404 1.312 . S
C406 O378 1.214 . S
C406 O386 1.234 . S
C407 H379 0.929 . S
C407 C410 1.391 . S
C407 C412 1.391 . S
C408 H380 0.929 . S
C408 C409 1.390 . S
C408 N411 1.391 . S
C409 H381 0.930 . S
C409 C408 1.390 . S
C409 C410 1.392 . S
C410 H382 0.929 . S
C410 C407 1.391 . S
C410 C409 1.392 . S
N411 Co355 2.257 . S
N411 C408 1.391 . S
N411 C412 1.388 . S
C412 H383 0.930 . S
C412 C407 1.391 . S
C412 N411 1.388 . S
Co413 O415 2.143 . S
Co413 O421 2.074 . S
Co413 O424 2.093 . S
Co413 O437 2.097 . S
Co413 N454 2.151 . S
Co413 N462 2.214 . S
Co414 O415 2.160 . S
Co414 O420 2.058 . S
Co414 O430 2.057 . S
Co414 O445 2.037 . S
Co414 N449 2.145 . S
Co414 N470 2.257 . S
O415 Co413 2.143 . S
O415 Co414 2.160 . S
C416 O417 1.278 . S
C416 O424 1.224 . S
O417 C416 1.278 . S
C418 O419 1.245 . S
C418 O430 1.232 . S
O419 C418 1.245 . S
O420 Co414 2.058 . S
O420 C446 1.269 . S
O421 Co413 2.074 . S
O421 C446 1.257 . S
H422 C447 0.930 . S
H423 C453 0.930 . S
O424 Co413 2.093 . S
O424 C416 1.224 . S
H425 C457 0.929 . S
H426 C459 0.930 . S
H427 C460 0.930 . S
H428 C458 0.929 1_545 S
H429 C461 0.928 . S
O430 Co414 2.057 . S
O430 C418 1.232 . S
H431 C450 0.929 . S
H432 C451 0.929 . S
H433 C463 0.931 . S
H434 C455 0.929 . S
H435 C464 0.930 . S
H436 C456 0.931 . S
O437 Co413 2.097 . S
O437 C465 1.214 . S
H438 C466 0.929 . S
H439 C467 0.929 . S
H440 C468 0.930 . S
H441 C469 0.929 . S
H442 C471 0.930 . S
H443 C448 0.930 . S
H444 C452 0.930 . S
O445 Co414 2.037 . S
O445 C465 1.234 . S
C446 O420 1.269 . S
C446 O421 1.257 . S
C447 H422 0.930 . S
C447 C450 1.388 . S
C447 C452 1.418 . S
C448 H443 0.930 . S
C448 C451 1.404 . S
C448 C452 1.353 . S
N449 Co414 2.145 . S
N449 C450 1.397 . S
N449 C451 1.334 . S
C450 H431 0.929 . S
C450 C447 1.388 . S
C450 N449 1.397 . S
C451 H432 0.929 . S
C451 C448 1.404 . S
C451 N449 1.334 . S
C452 H444 0.930 . S
C452 C447 1.418 . S
C452 C448 1.353 . S
C453 H423 0.930 . S
C453 N454 1.330 1_565 S
C453 C455 1.446 . S
N454 Co413 2.151 . S
N454 C453 1.330 1_545 S
N454 C458 1.418 1_545 S
C455 H434 0.929 . S
C455 C453 1.446 . S
C455 C456 1.332 . S
C456 H436 0.931 . S
C456 C455 1.332 . S
C456 C457 1.267 . S
C457 H425 0.929 . S
C457 C456 1.267 . S
C457 C458 1.251 . S
C458 H428 0.929 1_565 S
C458 N454 1.418 1_565 S
C458 C457 1.251 . S
C459 H426 0.930 . S
C459 C461 1.406 . S
C459 C464 1.261 . S
C460 H427 0.930 . S
C460 N462 1.325 . S
C460 C463 1.357 . S
C461 H429 0.928 . S
C461 C459 1.406 . S
C461 N462 1.261 . S
N462 Co413 2.214 . S
N462 C460 1.325 . S
N462 C461 1.261 . S
C463 H433 0.931 . S
C463 C460 1.357 . S
C463 C464 1.312 . S
C464 H435 0.930 . S
C464 C459 1.261 . S
C464 C463 1.312 . S
C465 O437 1.214 . S
C465 O445 1.234 . S
C466 H438 0.929 . S
C466 C469 1.391 . S
C466 C471 1.391 . S
C467 H439 0.929 . S
C467 C468 1.390 . S
C467 N470 1.391 . S
C468 H440 0.930 . S
C468 C467 1.390 . S
C468 C469 1.392 . S
C469 H441 0.929 . S
C469 C466 1.391 . S
C469 C468 1.392 . S
N470 Co414 2.257 . S
N470 C467 1.391 . S
N470 C471 1.388 . S
C471 H442 0.930 . S
C471 C466 1.391 . S
C471 N470 1.388 . S
Co472 O474 2.143 . S
Co472 O480 2.074 . S
Co472 O483 2.093 . S
Co472 O496 2.097 . S
Co472 N513 2.151 . S
Co472 N521 2.214 . S
Co473 O474 2.160 . S
Co473 O479 2.058 . S
Co473 O489 2.057 . S
Co473 O504 2.037 . S
Co473 N508 2.145 . S
Co473 N529 2.257 . S
O474 Co472 2.143 . S
O474 Co473 2.160 . S
C475 O476 1.278 . S
C475 O483 1.224 . S
O476 C475 1.278 . S
C477 O478 1.245 . S
C477 O489 1.232 . S
O478 C477 1.245 . S
O479 Co473 2.058 . S
O479 C505 1.269 . S
O480 Co472 2.074 . S
O480 C505 1.257 . S
H481 C506 0.930 . S
H482 C512 0.930 . S
O483 Co472 2.093 . S
O483 C475 1.224 . S
H484 C516 0.929 . S
H485 C518 0.930 . S
H486 C519 0.930 . S
H487 C517 0.929 1_554 S
H488 C520 0.928 . S
O489 Co473 2.057 . S
O489 C477 1.232 . S
H490 C509 0.929 . S
H491 C510 0.929 . S
H492 C522 0.931 . S
H493 C514 0.929 . S
H494 C523 0.930 . S
H495 C515 0.931 . S
O496 Co472 2.097 . S
O496 C524 1.214 . S
H497 C525 0.929 . S
H498 C526 0.929 . S
H499 C527 0.930 . S
H500 C528 0.929 . S
H501 C530 0.930 . S
H502 C507 0.930 . S
H503 C511 0.930 . S
O504 Co473 2.037 . S
O504 C524 1.234 . S
C505 O479 1.269 . S
C505 O480 1.257 . S
C506 H481 0.930 . S
C506 C509 1.388 . S
C506 C511 1.418 . S
C507 H502 0.930 . S
C507 C510 1.404 . S
C507 C511 1.353 . S
N508 Co473 2.145 . S
N508 C509 1.397 . S
N508 C510 1.334 . S
C509 H490 0.929 . S
C509 C506 1.388 . S
C509 N508 1.397 . S
C510 H491 0.929 . S
C510 C507 1.404 . S
C510 N508 1.334 . S
C511 H503 0.930 . S
C511 C506 1.418 . S
C511 C507 1.353 . S
C512 H482 0.930 . S
C512 N513 1.330 1_556 S
C512 C514 1.446 . S
N513 Co472 2.151 . S
N513 C512 1.330 1_554 S
N513 C517 1.418 1_554 S
C514 H493 0.929 . S
C514 C512 1.446 . S
C514 C515 1.332 . S
C515 H495 0.931 . S
C515 C514 1.332 . S
C515 C516 1.267 . S
C516 H484 0.929 . S
C516 C515 1.267 . S
C516 C517 1.251 . S
C517 H487 0.929 1_556 S
C517 N513 1.418 1_556 S
C517 C516 1.251 . S
C518 H485 0.930 . S
C518 C520 1.406 . S
C518 C523 1.261 . S
C519 H486 0.930 . S
C519 N521 1.325 . S
C519 C522 1.357 . S
C520 H488 0.928 . S
C520 C518 1.406 . S
C520 N521 1.261 . S
N521 Co472 2.214 . S
N521 C519 1.325 . S
N521 C520 1.261 . S
C522 H492 0.931 . S
C522 C519 1.357 . S
C522 C523 1.312 . S
C523 H494 0.930 . S
C523 C518 1.261 . S
C523 C522 1.312 . S
C524 O496 1.214 . S
C524 O504 1.234 . S
C525 H497 0.929 . S
C525 C528 1.391 . S
C525 C530 1.391 . S
C526 H498 0.929 . S
C526 C527 1.390 . S
C526 N529 1.391 . S
C527 H499 0.930 . S
C527 C526 1.390 . S
C527 C528 1.392 . S
C528 H500 0.929 . S
C528 C525 1.391 . S
C528 C527 1.392 . S
N529 Co473 2.257 . S
N529 C526 1.391 . S
N529 C530 1.388 . S
C530 H501 0.930 . S
C530 C525 1.391 . S
C530 N529 1.388 . S
Co531 O533 2.143 . S
Co531 O539 2.074 . S
Co531 O542 2.093 . S
Co531 O555 2.097 . S
Co531 N572 2.151 . S
Co531 N580 2.214 . S
Co532 O533 2.160 . S
Co532 O538 2.058 . S
Co532 O548 2.057 . S
Co532 O563 2.037 . S
Co532 N567 2.145 . S
Co532 N588 2.257 . S
O533 Co531 2.143 . S
O533 Co532 2.160 . S
C534 O535 1.278 . S
C534 O542 1.224 . S
O535 C534 1.278 . S
C536 O537 1.245 . S
C536 O548 1.232 . S
O537 C536 1.245 . S
O538 Co532 2.058 . S
O538 C564 1.269 . S
O539 Co531 2.074 . S
O539 C564 1.257 . S
H540 C565 0.930 . S
H541 C571 0.930 . S
O542 Co531 2.093 . S
O542 C534 1.224 . S
H543 C575 0.929 . S
H544 C577 0.930 . S
H545 C578 0.930 . S
H546 C576 0.929 1_556 S
H547 C579 0.928 . S
O548 Co532 2.057 . S
O548 C536 1.232 . S
H549 C568 0.929 . S
H550 C569 0.929 . S
H551 C581 0.931 . S
H552 C573 0.929 . S
H553 C582 0.930 . S
H554 C574 0.931 . S
O555 Co531 2.097 . S
O555 C583 1.214 . S
H556 C584 0.929 . S
H557 C585 0.929 . S
H558 C586 0.930 . S
H559 C587 0.929 . S
H560 C589 0.930 . S
H561 C566 0.930 . S
H562 C570 0.930 . S
O563 Co532 2.037 . S
O563 C583 1.234 . S
C564 O538 1.269 . S
C564 O539 1.257 . S
C565 H540 0.930 . S
C565 C568 1.388 . S
C565 C570 1.418 . S
C566 H561 0.930 . S
C566 C569 1.404 . S
C566 C570 1.353 . S
N567 Co532 2.145 . S
N567 C568 1.397 . S
N567 C569 1.334 . S
C568 H549 0.929 . S
C568 C565 1.388 . S
C568 N567 1.397 . S
C569 H550 0.929 . S
C569 C566 1.404 . S
C569 N567 1.334 . S
C570 H562 0.930 . S
C570 C565 1.418 . S
C570 C566 1.353 . S
C571 H541 0.930 . S
C571 N572 1.330 1_554 S
C571 C573 1.446 . S
N572 Co531 2.151 . S
N572 C571 1.330 1_556 S
N572 C576 1.418 1_556 S
C573 H552 0.929 . S
C573 C571 1.446 . S
C573 C574 1.332 . S
C574 H554 0.931 . S
C574 C573 1.332 . S
C574 C575 1.267 . S
C575 H543 0.929 . S
C575 C574 1.267 . S
C575 C576 1.251 . S
C576 H546 0.929 1_554 S
C576 N572 1.418 1_554 S
C576 C575 1.251 . S
C577 H544 0.930 . S
C577 C579 1.406 . S
C577 C582 1.261 . S
C578 H545 0.930 . S
C578 N580 1.325 . S
C578 C581 1.357 . S
C579 H547 0.928 . S
C579 C577 1.406 . S
C579 N580 1.261 . S
N580 Co531 2.214 . S
N580 C578 1.325 . S
N580 C579 1.261 . S
C581 H551 0.931 . S
C581 C578 1.357 . S
C581 C582 1.312 . S
C582 H553 0.930 . S
C582 C577 1.261 . S
C582 C581 1.312 . S
C583 O555 1.214 . S
C583 O563 1.234 . S
C584 H556 0.929 . S
C584 C587 1.391 . S
C584 C589 1.391 . S
C585 H557 0.929 . S
C585 C586 1.390 . S
C585 N588 1.391 . S
C586 H558 0.930 . S
C586 C585 1.390 . S
C586 C587 1.392 . S
C587 H559 0.929 . S
C587 C584 1.391 . S
C587 C586 1.392 . S
N588 Co532 2.257 . S
N588 C585 1.391 . S
N588 C589 1.388 . S
C589 H560 0.930 . S
C589 C584 1.391 . S
C589 N588 1.388 . S
Co590 O592 2.143 . S
Co590 O598 2.074 . S
Co590 O601 2.093 . S
Co590 O614 2.097 . S
Co590 N631 2.151 . S
Co590 N639 2.214 . S
Co591 O592 2.160 . S
Co591 O597 2.058 . S
Co591 O607 2.057 . S
Co591 O622 2.037 . S
Co591 N626 2.145 . S
Co591 N647 2.257 . S
O592 Co590 2.143 . S
O592 Co591 2.160 . S
C593 O594 1.278 . S
C593 O601 1.224 . S
O594 C593 1.278 . S
C595 O596 1.245 . S
C595 O607 1.232 . S
O596 C595 1.245 . S
O597 Co591 2.058 . S
O597 C623 1.269 . S
O598 Co590 2.074 . S
O598 C623 1.257 . S
H599 C624 0.930 . S
H600 C630 0.930 . S
O601 Co590 2.093 . S
O601 C593 1.224 . S
H602 C634 0.929 . S
H603 C636 0.930 . S
H604 C637 0.930 . S
H605 C635 0.929 1_556 S
H606 C638 0.928 . S
O607 Co591 2.057 . S
O607 C595 1.232 . S
H608 C627 0.929 . S
H609 C628 0.929 . S
H610 C640 0.931 . S
H611 C632 0.929 . S
H612 C641 0.930 . S
H613 C633 0.931 . S
O614 Co590 2.097 . S
O614 C642 1.214 . S
H615 C643 0.929 . S
H616 C644 0.929 . S
H617 C645 0.930 . S
H618 C646 0.929 . S
H619 C648 0.930 . S
H620 C625 0.930 . S
H621 C629 0.930 . S
O622 Co591 2.037 . S
O622 C642 1.234 . S
C623 O597 1.269 . S
C623 O598 1.257 . S
C624 H599 0.930 . S
C624 C627 1.388 . S
C624 C629 1.418 . S
C625 H620 0.930 . S
C625 C628 1.404 . S
C625 C629 1.353 . S
N626 Co591 2.145 . S
N626 C627 1.397 . S
N626 C628 1.334 . S
C627 H608 0.929 . S
C627 C624 1.388 . S
C627 N626 1.397 . S
C628 H609 0.929 . S
C628 C625 1.404 . S
C628 N626 1.334 . S
C629 H621 0.930 . S
C629 C624 1.418 . S
C629 C625 1.353 . S
C630 H600 0.930 . S
C630 N631 1.330 1_554 S
C630 C632 1.446 . S
N631 Co590 2.151 . S
N631 C630 1.330 1_556 S
N631 C635 1.418 1_556 S
C632 H611 0.929 . S
C632 C630 1.446 . S
C632 C633 1.332 . S
C633 H613 0.931 . S
C633 C632 1.332 . S
C633 C634 1.267 . S
C634 H602 0.929 . S
C634 C633 1.267 . S
C634 C635 1.251 . S
C635 H605 0.929 1_554 S
C635 N631 1.418 1_554 S
C635 C634 1.251 . S
C636 H603 0.930 . S
C636 C638 1.406 . S
C636 C641 1.261 . S
C637 H604 0.930 . S
C637 N639 1.325 . S
C637 C640 1.357 . S
C638 H606 0.928 . S
C638 C636 1.406 . S
C638 N639 1.261 . S
N639 Co590 2.214 . S
N639 C637 1.325 . S
N639 C638 1.261 . S
C640 H610 0.931 . S
C640 C637 1.357 . S
C640 C641 1.312 . S
C641 H612 0.930 . S
C641 C636 1.261 . S
C641 C640 1.312 . S
C642 O614 1.214 . S
C642 O622 1.234 . S
C643 H615 0.929 . S
C643 C646 1.391 . S
C643 C648 1.391 . S
C644 H616 0.929 . S
C644 C645 1.390 . S
C644 N647 1.391 . S
C645 H617 0.930 . S
C645 C644 1.390 . S
C645 C646 1.392 . S
C646 H618 0.929 . S
C646 C643 1.391 . S
C646 C645 1.392 . S
N647 Co591 2.257 . S
N647 C644 1.391 . S
N647 C648 1.388 . S
C648 H619 0.930 . S
C648 C643 1.391 . S
C648 N647 1.388 . S
Co649 O651 2.143 . S
Co649 O657 2.074 . S
Co649 O660 2.093 . S
Co649 O673 2.097 . S
Co649 N690 2.151 . S
Co649 N698 2.214 . S
Co650 O651 2.160 . S
Co650 O656 2.058 . S
Co650 O666 2.057 . S
Co650 O681 2.037 . S
Co650 N685 2.145 . S
Co650 N706 2.257 . S
O651 Co649 2.143 . S
O651 Co650 2.160 . S
C652 O653 1.278 . S
C652 O660 1.224 . S
O653 C652 1.278 . S
C654 O655 1.245 . S
C654 O666 1.232 . S
O655 C654 1.245 . S
O656 Co650 2.058 . S
O656 C682 1.269 . S
O657 Co649 2.074 . S
O657 C682 1.257 . S
H658 C683 0.930 . S
H659 C689 0.930 . S
O660 Co649 2.093 . S
O660 C652 1.224 . S
H661 C693 0.929 . S
H662 C695 0.930 . S
H663 C696 0.930 . S
H664 C694 0.929 1_554 S
H665 C697 0.928 . S
O666 Co650 2.057 . S
O666 C654 1.232 . S
H667 C686 0.929 . S
H668 C687 0.929 . S
H669 C699 0.931 . S
H670 C691 0.929 . S
H671 C700 0.930 . S
H672 C692 0.931 . S
O673 Co649 2.097 . S
O673 C701 1.214 . S
H674 C702 0.929 . S
H675 C703 0.929 . S
H676 C704 0.930 . S
H677 C705 0.929 . S
H678 C707 0.930 . S
H679 C684 0.930 . S
H680 C688 0.930 . S
O681 Co650 2.037 . S
O681 C701 1.234 . S
C682 O656 1.269 . S
C682 O657 1.257 . S
C683 H658 0.930 . S
C683 C686 1.388 . S
C683 C688 1.418 . S
C684 H679 0.930 . S
C684 C687 1.404 . S
C684 C688 1.353 . S
N685 Co650 2.145 . S
N685 C686 1.397 . S
N685 C687 1.334 . S
C686 H667 0.929 . S
C686 C683 1.388 . S
C686 N685 1.397 . S
C687 H668 0.929 . S
C687 C684 1.404 . S
C687 N685 1.334 . S
C688 H680 0.930 . S
C688 C683 1.418 . S
C688 C684 1.353 . S
C689 H659 0.930 . S
C689 N690 1.330 1_556 S
C689 C691 1.446 . S
N690 Co649 2.151 . S
N690 C689 1.330 1_554 S
N690 C694 1.418 1_554 S
C691 H670 0.929 . S
C691 C689 1.446 . S
C691 C692 1.332 . S
C692 H672 0.931 . S
C692 C691 1.332 . S
C692 C693 1.267 . S
C693 H661 0.929 . S
C693 C692 1.267 . S
C693 C694 1.251 . S
C694 H664 0.929 1_556 S
C694 N690 1.418 1_556 S
C694 C693 1.251 . S
C695 H662 0.930 . S
C695 C697 1.406 . S
C695 C700 1.261 . S
C696 H663 0.930 . S
C696 N698 1.325 . S
C696 C699 1.357 . S
C697 H665 0.928 . S
C697 C695 1.406 . S
C697 N698 1.261 . S
N698 Co649 2.214 . S
N698 C696 1.325 . S
N698 C697 1.261 . S
C699 H669 0.931 . S
C699 C696 1.357 . S
C699 C700 1.312 . S
C700 H671 0.930 . S
C700 C695 1.261 . S
C700 C699 1.312 . S
C701 O673 1.214 . S
C701 O681 1.234 . S
C702 H674 0.929 . S
C702 C705 1.391 . S
C702 C707 1.391 . S
C703 H675 0.929 . S
C703 C704 1.390 . S
C703 N706 1.391 . S
C704 H676 0.930 . S
C704 C703 1.390 . S
C704 C705 1.392 . S
C705 H677 0.929 . S
C705 C702 1.391 . S
C705 C704 1.392 . S
N706 Co650 2.257 . S
N706 C703 1.391 . S
N706 C707 1.388 . S
C707 H678 0.930 . S
C707 C702 1.391 . S
C707 N706 1.388 . S
C708 C709 1.363 1_455 S
C708 C714 1.379 . S
C708 N716 1.356 1_455 S
C709 C708 1.363 1_655 S
C709 C715 1.363 . S
C710 C711 1.363 1_655 S
C710 C715 1.379 . S
C710 N717 1.356 1_655 S
C711 C710 1.363 1_455 S
C711 C714 1.363 . S
N712 C714 1.356 . S
N712 H724 0.984 . S
N712 H725 0.985 . S
N713 C715 1.356 . S
N713 H718 0.984 . S
N713 H719 0.985 . S
C714 C708 1.379 . S
C714 C711 1.363 . S
C714 N712 1.356 . S
C715 C709 1.363 . S
C715 C710 1.379 . S
C715 N713 1.356 . S
N716 C708 1.356 1_655 S
N716 H722 0.984 1_655 S
N716 H723 0.984 . S
N717 C710 1.356 1_455 S
N717 H720 0.984 . S
N717 H721 0.985 1_455 S
H718 N713 0.984 . S
H719 N713 0.985 . S
H720 N717 0.984 . S
H721 N717 0.985 1_655 S
H722 N716 0.984 1_455 S
H723 N716 0.984 . S
H724 N712 0.984 . S
H725 N712 0.985 . S
C726 C727 1.363 1_655 S
C726 C732 1.379 . S
C726 N734 1.356 1_655 S
C727 C726 1.363 1_455 S
C727 C733 1.363 . S
C728 C729 1.363 1_455 S
C728 C733 1.379 . S
C728 N735 1.356 1_455 S
C729 C728 1.363 1_655 S
C729 C732 1.363 . S
N730 C732 1.356 . S
N730 H742 0.984 . S
N730 H743 0.985 . S
N731 C733 1.356 . S
N731 H736 0.984 . S
N731 H737 0.985 . S
C732 C726 1.379 . S
C732 C729 1.363 . S
C732 N730 1.356 . S
C733 C727 1.363 . S
C733 C728 1.379 . S
C733 N731 1.356 . S
N734 C726 1.356 1_455 S
N734 H740 0.984 1_455 S
N734 H741 0.984 . S
N735 C728 1.356 1_655 S
N735 H738 0.984 . S
N735 H739 0.985 1_655 S
H736 N731 0.984 . S
H737 N731 0.985 . S
H738 N735 0.984 . S
H739 N735 0.985 1_455 S
H740 N734 0.984 1_655 S
H741 N734 0.984 . S
H742 N730 0.984 . S
H743 N730 0.985 . S
C744 C745 1.363 . S
C744 C750 1.379 . S
C744 N752 1.356 . S
C745 C744 1.363 . S
C745 C751 1.363 1_565 S
C746 C747 1.363 . S
C746 C751 1.379 . S
C746 N753 1.356 . S
C747 C746 1.363 . S
C747 C750 1.363 1_545 S
N748 C750 1.356 1_545 S
N748 H760 0.984 1_545 S
N748 H761 0.985 . S
N749 C751 1.356 1_565 S
N749 H754 0.984 . S
N749 H755 0.985 1_565 S
C750 C744 1.379 . S
C750 C747 1.363 1_565 S
C750 N748 1.356 1_565 S
C751 C745 1.363 1_545 S
C751 C746 1.379 . S
C751 N749 1.356 1_545 S
N752 C744 1.356 . S
N752 H758 0.984 . S
N752 H759 0.984 . S
N753 C746 1.356 . S
N753 H756 0.984 . S
N753 H757 0.985 . S
H754 N749 0.984 . S
H755 N749 0.985 1_545 S
H756 N753 0.984 . S
H757 N753 0.985 . S
H758 N752 0.984 . S
H759 N752 0.984 . S
H760 N748 0.984 1_565 S
H761 N748 0.985 . S
C762 C763 1.363 . S
C762 C768 1.379 . S
C762 N770 1.356 . S
C763 C762 1.363 . S
C763 C769 1.363 1_565 S
C764 C765 1.363 . S
C764 C769 1.379 . S
C764 N771 1.356 . S
C765 C764 1.363 . S
C765 C768 1.363 1_545 S
N766 C768 1.356 1_545 S
N766 H778 0.984 1_545 S
N766 H779 0.985 . S
N767 C769 1.356 1_565 S
N767 H772 0.984 . S
N767 H773 0.985 1_565 S
C768 C762 1.379 . S
C768 C765 1.363 1_565 S
C768 N766 1.356 1_565 S
C769 C763 1.363 1_545 S
C769 C764 1.379 . S
C769 N767 1.356 1_545 S
N770 C762 1.356 . S
N770 H776 0.984 . S
N770 H777 0.984 . S
N771 C764 1.356 . S
N771 H774 0.984 . S
N771 H775 0.985 . S
H772 N767 0.984 . S
H773 N767 0.985 1_545 S
H774 N771 0.984 . S
H775 N771 0.985 . S
H776 N770 0.984 . S
H777 N770 0.984 . S
H778 N766 0.984 1_565 S
H779 N766 0.985 . S
C780 C781 1.363 . S
C780 C786 1.379 . S
C780 N788 1.356 . S
C781 C780 1.363 . S
C781 C787 1.363 1_556 S
C782 C783 1.363 . S
C782 C787 1.379 . S
C782 N789 1.356 . S
C783 C782 1.363 . S
C783 C786 1.363 1_554 S
N784 C786 1.356 . S
N784 H796 0.984 . S
N784 H797 0.985 1_556 S
N785 C787 1.356 . S
N785 H790 0.984 1_554 S
N785 H791 0.985 . S
C786 C780 1.379 . S
C786 C783 1.363 1_556 S
C786 N784 1.356 . S
C787 C781 1.363 1_554 S
C787 C782 1.379 . S
C787 N785 1.356 . S
N788 C780 1.356 . S
N788 H794 0.984 . S
N788 H795 0.984 . S
N789 C782 1.356 . S
N789 H792 0.984 . S
N789 H793 0.985 . S
H790 N785 0.984 1_556 S
H791 N785 0.985 . S
H792 N789 0.984 . S
H793 N789 0.985 . S
H794 N788 0.984 . S
H795 N788 0.984 . S
H796 N784 0.984 . S
H797 N784 0.985 1_554 S
C798 C799 1.363 1_554 S
C798 C804 1.379 . S
C798 N806 1.356 . S
C799 C798 1.363 1_556 S
C799 C805 1.363 . S
C800 C801 1.363 1_556 S
C800 C805 1.379 . S
C800 N807 1.356 . S
C801 C800 1.363 1_554 S
C801 C804 1.363 . S
N802 C804 1.356 . S
N802 H814 0.984 . S
N802 H815 0.985 . S
N803 C805 1.356 . S
N803 H808 0.984 . S
N803 H809 0.985 . S
C804 C798 1.379 . S
C804 C801 1.363 . S
C804 N802 1.356 . S
C805 C799 1.363 . S
C805 C800 1.379 . S
C805 N803 1.356 . S
N806 C798 1.356 . S
N806 H812 0.984 . S
N806 H813 0.984 1_554 S
N807 C800 1.356 . S
N807 H810 0.984 1_556 S
N807 H811 0.985 . S
H808 N803 0.984 . S
H809 N803 0.985 . S
H810 N807 0.984 1_554 S
H811 N807 0.985 . S
H812 N806 0.984 . S
H813 N806 0.984 1_556 S
H814 N802 0.984 . S
H815 N802 0.985 . S
C816 C817 1.363 . S
C816 C822 1.379 . S
C816 N824 1.356 . S
C817 C816 1.363 . S
C817 C823 1.363 . S
C818 C819 1.363 . S
C818 C823 1.379 . S
C818 N825 1.356 . S
C819 C818 1.363 . S
C819 C822 1.363 . S
N820 C822 1.356 . S
N820 H832 0.984 . S
N820 H833 0.985 . S
N821 C823 1.356 . S
N821 H826 0.984 . S
N821 H827 0.985 . S
C822 C816 1.379 . S
C822 C819 1.363 . S
C822 N820 1.356 . S
C823 C817 1.363 . S
C823 C818 1.379 . S
C823 N821 1.356 . S
N824 C816 1.356 . S
N824 H830 0.984 . S
N824 H831 0.984 . S
N825 C818 1.356 . S
N825 H828 0.984 . S
N825 H829 0.985 . S
H826 N821 0.984 . S
H827 N821 0.985 . S
H828 N825 0.984 . S
H829 N825 0.985 . S
H830 N824 0.984 . S
H831 N824 0.984 . S
H832 N820 0.984 . S
H833 N820 0.985 . S
C834 C835 1.363 . S
C834 C840 1.379 . S
C834 N842 1.356 . S
C835 C834 1.363 . S
C835 C841 1.363 . S
C836 C837 1.363 . S
C836 C841 1.379 . S
C836 N843 1.356 . S
C837 C836 1.363 . S
C837 C840 1.363 . S
N838 C840 1.356 . S
N838 H850 0.984 . S
N838 H851 0.985 . S
N839 C841 1.356 . S
N839 H844 0.984 . S
N839 H845 0.985 . S
C840 C834 1.379 . S
C840 C837 1.363 . S
C840 N838 1.356 . S
C841 C835 1.363 . S
C841 C836 1.379 . S
C841 N839 1.356 . S
N842 C834 1.356 . S
N842 H848 0.984 . S
N842 H849 0.984 . S
N843 C836 1.356 . S
N843 H846 0.984 . S
N843 H847 0.985 . S
H844 N839 0.984 . S
H845 N839 0.985 . S
H846 N843 0.984 . S
H847 N843 0.985 . S
H848 N842 0.984 . S
H849 N842 0.984 . S
H850 N838 0.984 . S
H851 N838 0.985 . S
C852 C853 1.363 . S
C852 C858 1.379 . S
C852 N860 1.356 . S
C853 C852 1.363 . S
C853 C859 1.363 . S
C854 C855 1.363 . S
C854 C859 1.379 . S
C854 N861 1.356 . S
C855 C854 1.363 . S
C855 C858 1.363 . S
N856 C858 1.356 . S
N856 H868 0.984 . S
N856 H869 0.985 . S
N857 C859 1.356 . S
N857 H862 0.984 . S
N857 H863 0.985 . S
C858 C852 1.379 . S
C858 C855 1.363 . S
C858 N856 1.356 . S
C859 C853 1.363 . S
C859 C854 1.379 . S
C859 N857 1.356 . S
N860 C852 1.356 . S
N860 H866 0.984 . S
N860 H867 0.984 . S
N861 C854 1.356 . S
N861 H864 0.984 . S
N861 H865 0.985 . S
H862 N857 0.984 . S
H863 N857 0.985 . S
H864 N861 0.984 . S
H865 N861 0.985 . S
H866 N860 0.984 . S
H867 N860 0.984 . S
H868 N856 0.984 . S
H869 N856 0.985 . S
C870 C871 1.363 . S
C870 C876 1.379 . S
C870 N878 1.356 . S
C871 C870 1.363 . S
C871 C877 1.363 . S
C872 C873 1.363 . S
C872 C877 1.379 . S
C872 N879 1.356 . S
C873 C872 1.363 . S
C873 C876 1.363 . S
N874 C876 1.356 . S
N874 H886 0.984 . S
N874 H887 0.985 . S
N875 C877 1.356 . S
N875 H880 0.984 . S
N875 H881 0.985 . S
C876 C870 1.379 . S
C876 C873 1.363 . S
C876 N874 1.356 . S
C877 C871 1.363 . S
C877 C872 1.379 . S
C877 N875 1.356 . S
N878 C870 1.356 . S
N878 H884 0.984 . S
N878 H885 0.984 . S
N879 C872 1.356 . S
N879 H882 0.984 . S
N879 H883 0.985 . S
H880 N875 0.984 . S
H881 N875 0.985 . S
H882 N879 0.984 . S
H883 N879 0.985 . S
H884 N878 0.984 . S
H885 N878 0.984 . S
H886 N874 0.984 . S
H887 N874 0.985 . S
C888 C889 1.363 . S
C888 C894 1.379 . S
C888 N896 1.356 . S
C889 C888 1.363 . S
C889 C895 1.363 . S
C890 C891 1.363 . S
C890 C895 1.379 . S
C890 N897 1.356 . S
C891 C890 1.363 . S
C891 C894 1.363 . S
N892 C894 1.356 . S
N892 H904 0.984 . S
N892 H905 0.985 . S
N893 C895 1.356 . S
N893 H898 0.984 . S
N893 H899 0.985 . S
C894 C888 1.379 . S
C894 C891 1.363 . S
C894 N892 1.356 . S
C895 C889 1.363 . S
C895 C890 1.379 . S
C895 N893 1.356 . S
N896 C888 1.356 . S
N896 H902 0.984 . S
N896 H903 0.984 . S
N897 C890 1.356 . S
N897 H900 0.984 . S
N897 H901 0.985 . S
H898 N893 0.984 . S
H899 N893 0.985 . S
H900 N897 0.984 . S
H901 N897 0.985 . S
H902 N896 0.984 . S
H903 N896 0.984 . S
H904 N892 0.984 . S
H905 N892 0.985 . S
C906 C907 1.363 . S
C906 C912 1.379 . S
C906 N914 1.356 . S
C907 C906 1.363 . S
C907 C913 1.363 . S
C908 C909 1.363 . S
C908 C913 1.379 . S
C908 N915 1.356 . S
C909 C908 1.363 . S
C909 C912 1.363 . S
N910 C912 1.356 . S
N910 H922 0.984 . S
N910 H923 0.985 . S
N911 C913 1.356 . S
N911 H916 0.984 . S
N911 H917 0.985 . S
C912 C906 1.379 . S
C912 C909 1.363 . S
C912 N910 1.356 . S
C913 C907 1.363 . S
C913 C908 1.379 . S
C913 N911 1.356 . S
N914 C906 1.356 . S
N914 H920 0.984 . S
N914 H921 0.984 . S
N915 C908 1.356 . S
N915 H918 0.984 . S
N915 H919 0.985 . S
H916 N911 0.984 . S
H917 N911 0.985 . S
H918 N915 0.984 . S
H919 N915 0.985 . S
H920 N914 0.984 . S
H921 N914 0.984 . S
H922 N910 0.984 . S
H923 N910 0.985 . S
C924 C925 1.363 . S
C924 C930 1.379 . S
C924 N932 1.356 . S
C925 C924 1.363 . S
C925 C931 1.363 . S
C926 C927 1.363 . S
C926 C931 1.379 . S
C926 N933 1.356 . S
C927 C926 1.363 . S
C927 C930 1.363 . S
N928 C930 1.356 . S
N928 H940 0.984 . S
N928 H941 0.985 . S
N929 C931 1.356 . S
N929 H934 0.984 . S
N929 H935 0.985 . S
C930 C924 1.379 . S
C930 C927 1.363 . S
C930 N928 1.356 . S
C931 C925 1.363 . S
C931 C926 1.379 . S
C931 N929 1.356 . S
N932 C924 1.356 . S
N932 H938 0.984 . S
N932 H939 0.984 . S
N933 C926 1.356 . S
N933 H936 0.984 . S
N933 H937 0.985 . S
H934 N929 0.984 . S
H935 N929 0.985 . S
H936 N933 0.984 . S
H937 N933 0.985 . S
H938 N932 0.984 . S
H939 N932 0.984 . S
H940 N928 0.984 . S
H941 N928 0.985 . S
C942 C943 1.363 . S
C942 C948 1.379 . S
C942 N950 1.356 . S
C943 C942 1.363 . S
C943 C949 1.363 . S
C944 C945 1.363 . S
C944 C949 1.379 . S
C944 N951 1.356 . S
C945 C944 1.363 . S
C945 C948 1.363 . S
N946 C948 1.356 . S
N946 H958 0.984 . S
N946 H959 0.985 . S
N947 C949 1.356 . S
N947 H952 0.984 . S
N947 H953 0.985 . S
C948 C942 1.379 . S
C948 C945 1.363 . S
C948 N946 1.356 . S
C949 C943 1.363 . S
C949 C944 1.379 . S
C949 N947 1.356 . S
N950 C942 1.356 . S
N950 H956 0.984 . S
N950 H957 0.984 . S
N951 C944 1.356 . S
N951 H954 0.984 . S
N951 H955 0.985 . S
H952 N947 0.984 . S
H953 N947 0.985 . S
H954 N951 0.984 . S
H955 N951 0.985 . S
H956 N950 0.984 . S
H957 N950 0.984 . S
H958 N946 0.984 . S
H959 N946 0.985 . S
C960 C961 1.363 . S
C960 C966 1.379 . S
C960 N968 1.356 . S
C961 C960 1.363 . S
C961 C967 1.363 . S
C962 C963 1.363 . S
C962 C967 1.379 . S
C962 N969 1.356 . S
C963 C962 1.363 . S
C963 C966 1.363 . S
N964 C966 1.356 . S
N964 H976 0.984 . S
N964 H977 0.985 . S
N965 C967 1.356 . S
N965 H970 0.984 . S
N965 H971 0.985 . S
C966 C960 1.379 . S
C966 C963 1.363 . S
C966 N964 1.356 . S
C967 C961 1.363 . S
C967 C962 1.379 . S
C967 N965 1.356 . S
N968 C960 1.356 . S
N968 H974 0.984 . S
N968 H975 0.984 . S
N969 C962 1.356 . S
N969 H972 0.984 . S
N969 H973 0.985 . S
H970 N965 0.984 . S
H971 N965 0.985 . S
H972 N969 0.984 . S
H973 N969 0.985 . S
H974 N968 0.984 . S
H975 N968 0.984 . S
H976 N964 0.984 . S
H977 N964 0.985 . S
C978 C979 1.363 . S
C978 C984 1.379 . S
C978 N986 1.356 . S
C979 C978 1.363 . S
C979 C985 1.363 . S
C980 C981 1.363 . S
C980 C985 1.379 . S
C980 N987 1.356 . S
C981 C980 1.363 . S
C981 C984 1.363 . S
N982 C984 1.356 . S
N982 H994 0.984 . S
N982 H995 0.985 . S
N983 C985 1.356 . S
N983 H988 0.984 . S
N983 H989 0.985 . S
C984 C978 1.379 . S
C984 C981 1.363 . S
C984 N982 1.356 . S
C985 C979 1.363 . S
C985 C980 1.379 . S
C985 N983 1.356 . S
N986 C978 1.356 . S
N986 H992 0.984 . S
N986 H993 0.984 . S
N987 C980 1.356 . S
N987 H990 0.984 . S
N987 H991 0.985 . S
H988 N983 0.984 . S
H989 N983 0.985 . S
H990 N987 0.984 . S
H991 N987 0.985 . S
H992 N986 0.984 . S
H993 N986 0.984 . S
H994 N982 0.984 . S
H995 N982 0.985 . S
C996 C997 1.363 . S
C996 C1002 1.379 . S
C996 N1004 1.356 . S
C997 C996 1.363 . S
C997 C1003 1.363 . S
C998 C999 1.363 . S
C998 C1003 1.379 . S
C998 N1005 1.356 . S
C999 C998 1.363 . S
C999 C1002 1.363 . S
N1000 C1002 1.356 . S
N1000 H1012 0.984 . S
N1000 H1013 0.985 . S
N1001 C1003 1.356 . S
N1001 H1006 0.984 . S
N1001 H1007 0.985 . S
C1002 C996 1.379 . S
C1002 C999 1.363 . S
C1002 N1000 1.356 . S
C1003 C997 1.363 . S
C1003 C998 1.379 . S
C1003 N1001 1.356 . S
N1004 C996 1.356 . S
N1004 H1010 0.984 . S
N1004 H1011 0.984 . S
N1005 C998 1.356 . S
N1005 H1008 0.984 . S
N1005 H1009 0.985 . S
H1006 N1001 0.984 . S
H1007 N1001 0.985 . S
H1008 N1005 0.984 . S
H1009 N1005 0.985 . S
H1010 N1004 0.984 . S
H1011 N1004 0.984 . S
H1012 N1000 0.984 . S
H1013 N1000 0.985 . S
C1014 C1015 1.363 . S
C1014 C1020 1.379 . S
C1014 N1022 1.356 . S
C1015 C1014 1.363 . S
C1015 C1021 1.363 . S
C1016 C1017 1.363 . S
C1016 C1021 1.379 . S
C1016 N1023 1.356 . S
C1017 C1016 1.363 . S
C1017 C1020 1.363 . S
N1018 C1020 1.356 . S
N1018 H1030 0.984 . S
N1018 H1031 0.985 . S
N1019 C1021 1.356 . S
N1019 H1024 0.984 . S
N1019 H1025 0.985 . S
C1020 C1014 1.379 . S
C1020 C1017 1.363 . S
C1020 N1018 1.356 . S
C1021 C1015 1.363 . S
C1021 C1016 1.379 . S
C1021 N1019 1.356 . S
N1022 C1014 1.356 . S
N1022 H1028 0.984 . S
N1022 H1029 0.984 . S
N1023 C1016 1.356 . S
N1023 H1026 0.984 . S
N1023 H1027 0.985 . S
H1024 N1019 0.984 . S
H1025 N1019 0.985 . S
H1026 N1023 0.984 . S
H1027 N1023 0.985 . S
H1028 N1022 0.984 . S
H1029 N1022 0.984 . S
H1030 N1018 0.984 . S
H1031 N1018 0.985 . S
C1032 C1033 1.363 . S
C1032 C1038 1.379 1_545 S
C1032 N1040 1.356 . S
C1033 C1032 1.363 . S
C1033 C1039 1.363 1_455 S
C1034 C1035 1.363 . S
C1034 C1039 1.379 1_565 S
C1034 N1041 1.356 . S
C1035 C1034 1.363 . S
C1035 C1038 1.363 1_655 S
N1036 C1038 1.356 . S
N1036 H1048 0.984 . S
N1036 H1049 0.985 1_455 S
N1037 C1039 1.356 . S
N1037 H1042 0.984 1_655 S
N1037 H1043 0.985 . S
C1038 C1032 1.379 1_565 S
C1038 C1035 1.363 1_455 S
C1038 N1036 1.356 . S
C1039 C1033 1.363 1_655 S
C1039 C1034 1.379 1_545 S
C1039 N1037 1.356 . S
N1040 C1032 1.356 . S
N1040 H1046 0.984 . S
N1040 H1047 0.984 . S
N1041 C1034 1.356 . S
N1041 H1044 0.984 . S
N1041 H1045 0.985 . S
H1042 N1037 0.984 1_455 S
H1043 N1037 0.985 . S
H1044 N1041 0.984 . S
H1045 N1041 0.985 . S
H1046 N1040 0.984 . S
H1047 N1040 0.984 . S
H1048 N1036 0.984 . S
H1049 N1036 0.985 1_655 S
C1050 C1051 1.363 1_455 S
C1050 C1056 1.379 1_545 S
C1050 N1058 1.356 . S
C1051 C1050 1.363 1_655 S
C1051 C1057 1.363 . S
C1052 C1053 1.363 1_655 S
C1052 C1057 1.379 1_565 S
C1052 N1059 1.356 . S
C1053 C1052 1.363 1_455 S
C1053 C1056 1.363 . S
N1054 C1056 1.356 . S
N1054 H1066 0.984 . S
N1054 H1067 0.985 . S
N1055 C1057 1.356 . S
N1055 H1060 0.984 . S
N1055 H1061 0.985 . S
C1056 C1050 1.379 1_565 S
C1056 C1053 1.363 . S
C1056 N1054 1.356 . S
C1057 C1051 1.363 . S
C1057 C1052 1.379 1_545 S
C1057 N1055 1.356 . S
N1058 C1050 1.356 . S
N1058 H1064 0.984 . S
N1058 H1065 0.984 1_455 S
N1059 C1052 1.356 . S
N1059 H1062 0.984 1_655 S
N1059 H1063 0.985 . S
H1060 N1055 0.984 . S
H1061 N1055 0.985 . S
H1062 N1059 0.984 1_455 S
H1063 N1059 0.985 . S
H1064 N1058 0.984 . S
H1065 N1058 0.984 1_655 S
H1066 N1054 0.984 . S
H1067 N1054 0.985 . S
C1068 C1069 1.363 . S
C1068 C1074 1.379 1_556 S
C1068 N1076 1.356 . S
C1069 C1068 1.363 . S
C1069 C1075 1.363 1_565 S
C1070 C1071 1.363 . S
C1070 C1075 1.379 1_554 S
C1070 N1077 1.356 . S
C1071 C1070 1.363 . S
C1071 C1074 1.363 1_545 S
N1072 C1074 1.356 . S
N1072 H1084 0.984 . S
N1072 H1085 0.985 1_565 S
N1073 C1075 1.356 . S
N1073 H1078 0.984 1_545 S
N1073 H1079 0.985 . S
C1074 C1068 1.379 1_554 S
C1074 C1071 1.363 1_565 S
C1074 N1072 1.356 . S
C1075 C1069 1.363 1_545 S
C1075 C1070 1.379 1_556 S
C1075 N1073 1.356 . S
N1076 C1068 1.356 . S
N1076 H1082 0.984 . S
N1076 H1083 0.984 . S
N1077 C1070 1.356 . S
N1077 H1080 0.984 . S
N1077 H1081 0.985 . S
H1078 N1073 0.984 1_565 S
H1079 N1073 0.985 . S
H1080 N1077 0.984 . S
H1081 N1077 0.985 . S
H1082 N1076 0.984 . S
H1083 N1076 0.984 . S
H1084 N1072 0.984 . S
H1085 N1072 0.985 1_545 S
C1086 C1087 1.363 1_545 S
C1086 C1092 1.379 1_554 S
C1086 N1094 1.356 1_545 S
C1087 C1086 1.363 1_565 S
C1087 C1093 1.363 . S
C1088 C1089 1.363 1_565 S
C1088 C1093 1.379 1_556 S
C1088 N1095 1.356 1_565 S
C1089 C1088 1.363 1_545 S
C1089 C1092 1.363 . S
N1090 C1092 1.356 . S
N1090 H1102 0.984 . S
N1090 H1103 0.985 . S
N1091 C1093 1.356 . S
N1091 H1096 0.984 . S
N1091 H1097 0.985 . S
C1092 C1086 1.379 1_556 S
C1092 C1089 1.363 . S
C1092 N1090 1.356 . S
C1093 C1087 1.363 . S
C1093 C1088 1.379 1_554 S
C1093 N1091 1.356 . S
N1094 C1086 1.356 1_565 S
N1094 H1100 0.984 1_565 S
N1094 H1101 0.984 . S
N1095 C1088 1.356 1_545 S
N1095 H1098 0.984 . S
N1095 H1099 0.985 1_545 S
H1096 N1091 0.984 . S
H1097 N1091 0.985 . S
H1098 N1095 0.984 . S
H1099 N1095 0.985 1_565 S
H1100 N1094 0.984 1_545 S
H1101 N1094 0.984 . S
H1102 N1090 0.984 . S
H1103 N1090 0.985 . S
C1104 C1105 1.363 1_554 S
C1104 C1110 1.379 1_655 S
C1104 N1112 1.356 . S
C1105 C1104 1.363 1_556 S
C1105 C1111 1.363 . S
C1106 C1107 1.363 1_556 S
C1106 C1111 1.379 1_455 S
C1106 N1113 1.356 . S
C1107 C1106 1.363 1_554 S
C1107 C1110 1.363 . S
N1108 C1110 1.356 . S
N1108 H1120 0.984 . S
N1108 H1121 0.985 . S
N1109 C1111 1.356 . S
N1109 H1114 0.984 . S
N1109 H1115 0.985 . S
C1110 C1104 1.379 1_455 S
C1110 C1107 1.363 . S
C1110 N1108 1.356 . S
C1111 C1105 1.363 . S
C1111 C1106 1.379 1_655 S
C1111 N1109 1.356 . S
N1112 C1104 1.356 . S
N1112 H1118 0.984 . S
N1112 H1119 0.984 1_554 S
N1113 C1106 1.356 . S
N1113 H1116 0.984 1_556 S
N1113 H1117 0.985 . S
H1114 N1109 0.984 . S
H1115 N1109 0.985 . S
H1116 N1113 0.984 1_554 S
H1117 N1113 0.985 . S
H1118 N1112 0.984 . S
H1119 N1112 0.984 1_556 S
H1120 N1108 0.984 . S
H1121 N1108 0.985 . S
C1122 C1123 1.363 . S
C1122 C1128 1.379 1_455 S
C1122 N1130 1.356 . S
C1123 C1122 1.363 . S
C1123 C1129 1.363 1_556 S
C1124 C1125 1.363 . S
C1124 C1129 1.379 1_655 S
C1124 N1131 1.356 . S
C1125 C1124 1.363 . S
C1125 C1128 1.363 1_554 S
N1126 C1128 1.356 . S
N1126 H1138 0.984 . S
N1126 H1139 0.985 1_556 S
N1127 C1129 1.356 . S
N1127 H1132 0.984 1_554 S
N1127 H1133 0.985 . S
C1128 C1122 1.379 1_655 S
C1128 C1125 1.363 1_556 S
C1128 N1126 1.356 . S
C1129 C1123 1.363 1_554 S
C1129 C1124 1.379 1_455 S
C1129 N1127 1.356 . S
N1130 C1122 1.356 . S
N1130 H1136 0.984 . S
N1130 H1137 0.984 . S
N1131 C1124 1.356 . S
N1131 H1134 0.984 . S
N1131 H1135 0.985 . S
H1132 N1127 0.984 1_556 S
H1133 N1127 0.985 . S
H1134 N1131 0.984 . S
H1135 N1131 0.985 . S
H1136 N1130 0.984 . S
H1137 N1130 0.984 . S
H1138 N1126 0.984 . S
H1139 N1126 0.985 1_554 S
C709 C182 1.223 . S
C711 C5 1.223 . S
C727 C123 1.223 . S
C729 C64 1.223 . S
C745 C300 1.223 . S
C747 C241 1.223 . S
C763 C359 1.223 . S
C765 C418 1.223 . S
C781 C536 1.223 . S
C783 C477 1.223 . S
C799 C595 1.223 . S
C801 C654 1.223 . S
C817 C52 1.356 . S
C819 C446 1.280 . S
C835 C387 1.279 . S
C837 C111 1.356 . S
C853 C328 1.280 . S
C855 C170 1.356 . S
C871 C269 1.280 . S
C873 C229 1.356 . S
C889 C288 1.356 . S
C891 C682 1.280 . S
C907 C505 1.280 . S
C909 C347 1.356 . S
C925 C623 1.279 . S
C927 C406 1.356 . S
C943 C465 1.356 . S
C945 C564 1.280 . S
C961 C151 1.280 . S
C963 C524 1.356 . S
C979 C33 1.280 . S
C981 C583 1.356 . S
C997 C642 1.356 . S
C999 C92 1.279 . S
C1015 C210 1.280 . S
C1017 C701 1.356 . S
C1033 C3 1.325 . S
C1035 C62 1.325 . S
C1051 C180 1.325 . S
C1053 C121 1.325 . S
C1069 C357 1.325 . S
C1071 C239 1.325 . S
C1087 C298 1.325 . S
C1089 C416 1.325 . S
C1105 C593 1.325 . S
C1107 C475 1.325 . S
C1123 C534 1.325 . S
C1125 C652 1.325 . S
