# Generated by pormake.
# Topology und, (4)-cn, num edge types: 1
# Building blocks:
#     Node 0, Type 0, BuildingBlock: QUQFOY_clean_sbu_1, # of connection points: 4
#     Node 1, Type 0, BuildingBlock: QUQFOY_clean_sbu_1, # of connection points: 4
#     Node 2, Type 0, BuildingBlock: QUQFOY_clean_sbu_1, # of connection points: 4
#     Node 3, Type 0, BuildingBlock: QUQFOY_clean_sbu_1, # of connection points: 4
#     Node 4, Type 0, BuildingBlock: QUQFOY_clean_sbu_1, # of connection points: 4
#     Node 5, Type 0, BuildingBlock: QUQFOY_clean_sbu_1, # of connection points: 4
#     Node 6, Type 0, BuildingBlock: QUQFOY_clean_sbu_1, # of connection points: 4
#     Node 7, Type 0, BuildingBlock: QUQFOY_clean_sbu_1, # of connection points: 4
#     Node 8, Type 0, BuildingBlock: QUQFOY_clean_sbu_1, # of connection points: 4
#     Node 9, Type 0, BuildingBlock: QUQFOY_clean_sbu_1, # of connection points: 4
#     Node 10, Type 0, BuildingBlock: QUQFOY_clean_sbu_1, # of connection points: 4
#     Node 11, Type 0, BuildingBlock: QUQFOY_clean_sbu_1, # of connection points: 4
#     Node 12, Type 0, BuildingBlock: QUQFOY_clean_sbu_1, # of connection points: 4
#     Node 13, Type 0, BuildingBlock: QUQFOY_clean_sbu_1, # of connection points: 4
#     Node 14, Type 0, BuildingBlock: QUQFOY_clean_sbu_1, # of connection points: 4
#     Node 15, Type 0, BuildingBlock: QUQFOY_clean_sbu_1, # of connection points: 4
#     Edge 16, Type (0, 0), BuildingBlock: TEMPAE_clean_linker_10, # of connection points: 2
#     Edge 17, Type (0, 0), BuildingBlock: TEMPAE_clean_linker_10, # of connection points: 2
#     Edge 18, Type (0, 0), BuildingBlock: TEMPAE_clean_linker_10, # of connection points: 2
#     Edge 19, Type (0, 0), BuildingBlock: TEMPAE_clean_linker_10, # of connection points: 2
#     Edge 20, Type (0, 0), BuildingBlock: TEMPAE_clean_linker_10, # of connection points: 2
#     Edge 21, Type (0, 0), BuildingBlock: TEMPAE_clean_linker_10, # of connection points: 2
#     Edge 22, Type (0, 0), BuildingBlock: TEMPAE_clean_linker_10, # of connection points: 2
#     Edge 23, Type (0, 0), BuildingBlock: TEMPAE_clean_linker_10, # of connection points: 2
#     Edge 24, Type (0, 0), BuildingBlock: TEMPAE_clean_linker_10, # of connection points: 2
#     Edge 25, Type (0, 0), BuildingBlock: TEMPAE_clean_linker_10, # of connection points: 2
#     Edge 26, Type (0, 0), BuildingBlock: TEMPAE_clean_linker_10, # of connection points: 2
#     Edge 27, Type (0, 0), BuildingBlock: TEMPAE_clean_linker_10, # of connection points: 2
#     Edge 28, Type (0, 0), BuildingBlock: TEMPAE_clean_linker_10, # of connection points: 2
#     Edge 29, Type (0, 0), BuildingBlock: TEMPAE_clean_linker_10, # of connection points: 2
#     Edge 30, Type (0, 0), BuildingBlock: TEMPAE_clean_linker_10, # of connection points: 2
#     Edge 31, Type (0, 0), BuildingBlock: TEMPAE_clean_linker_10, # of connection points: 2
#     Edge 32, Type (0, 0), BuildingBlock: TEMPAE_clean_linker_10, # of connection points: 2
#     Edge 33, Type (0, 0), BuildingBlock: TEMPAE_clean_linker_10, # of connection points: 2
#     Edge 34, Type (0, 0), BuildingBlock: TEMPAE_clean_linker_10, # of connection points: 2
#     Edge 35, Type (0, 0), BuildingBlock: TEMPAE_clean_linker_10, # of connection points: 2
#     Edge 36, Type (0, 0), BuildingBlock: TEMPAE_clean_linker_10, # of connection points: 2
#     Edge 37, Type (0, 0), BuildingBlock: TEMPAE_clean_linker_10, # of connection points: 2
#     Edge 38, Type (0, 0), BuildingBlock: TEMPAE_clean_linker_10, # of connection points: 2
#     Edge 39, Type (0, 0), BuildingBlock: TEMPAE_clean_linker_10, # of connection points: 2
#     Edge 40, Type (0, 0), BuildingBlock: TEMPAE_clean_linker_10, # of connection points: 2
#     Edge 41, Type (0, 0), BuildingBlock: TEMPAE_clean_linker_10, # of connection points: 2
#     Edge 42, Type (0, 0), BuildingBlock: TEMPAE_clean_linker_10, # of connection points: 2
#     Edge 43, Type (0, 0), BuildingBlock: TEMPAE_clean_linker_10, # of connection points: 2
#     Edge 44, Type (0, 0), BuildingBlock: TEMPAE_clean_linker_10, # of connection points: 2
#     Edge 45, Type (0, 0), BuildingBlock: TEMPAE_clean_linker_10, # of connection points: 2
#     Edge 46, Type (0, 0), BuildingBlock: TEMPAE_clean_linker_10, # of connection points: 2
#     Edge 47, Type (0, 0), BuildingBlock: TEMPAE_clean_linker_10, # of connection points: 2
# Relax obj value: 0.048
# Max RMSD: 0.109
# Mean RMSD: 0.091
data_MOF--net-und--node1-QUQFOY_clean_sbu_1--edge1-TEMPAE_clean_linker_10
_symmetry_space_group_name_H-M    P1
_symmetry_Int_Tables_number       1
_symmetry_cell_setting            triclinic
loop_
_symmetry_equiv_pos_as_xyz
'x, y, z'
_cell_length_a     62.763573
_cell_length_b     62.77581
_cell_length_c     22.969304
_cell_angle_alpha  89.97437
_cell_angle_beta   90.021219
_cell_angle_gamma 94.849089
loop_
_atom_site_label
_atom_site_type_symbol
_atom_site_fract_x
_atom_site_fract_y
_atom_site_fract_z
_atom_type_partial_charge
O0 O 0.25966 0.3569 0.94199 0.0
Cd1 Cd 0.26628 0.37872 0.00735 0.0
Cd2 Cd 0.23515 0.39707 0.94952 0.0
O3 O 0.23182 0.36952 0.89941 0.0
O4 O 0.28448 0.36204 0.05786 0.0
O5 O 0.25297 0.3716 0.08566 0.0
C6 C 0.26931 0.36095 0.09575 0.0
C7 C 0.20772 0.41023 0.00367 0.0
C8 C 0.24496 0.35524 0.90392 0.0
C9 C 0.27923 0.42035 0.94965 0.0
O10 O 0.26045 0.41878 0.92849 0.0
O11 O 0.2847 0.40662 0.98636 0.0
O12 O 0.20918 0.41338 0.9482 0.0
O13 O 0.22128 0.39865 0.02813 0.0
O14 O 0.89453 0.05341 0.31994 0.0
Cd15 Cd 0.91644 0.07881 0.30131 0.0
Cd16 Cd 0.93521 0.04791 0.24291 0.0
O17 O 0.90711 0.02945 0.262 0.0
O18 O 0.90006 0.10469 0.30432 0.0
O19 O 0.91507 0.09352 0.22374 0.0
C20 C 0.90334 0.10675 0.24903 0.0
C21 C 0.95345 0.0451 0.15518 0.0
C22 C 0.89308 0.03477 0.29796 0.0
C23 C 0.9581 0.06873 0.34803 0.0
O24 O 0.95668 0.05427 0.30931 0.0
O25 O 0.94374 0.08177 0.35259 0.0
O26 O 0.95215 0.02983 0.19281 0.0
O27 O 0.94278 0.06144 0.1651 0.0
O28 O 0.25217 0.74591 0.44816 0.0
Cd29 Cd 0.25083 0.72483 0.51668 0.0
Cd30 Cd 0.28115 0.70811 0.45446 0.0
O31 O 0.28143 0.73612 0.406 0.0
O32 O 0.23703 0.73979 0.58154 0.0
O33 O 0.27118 0.73326 0.58157 0.0
C34 C 0.25562 0.74212 0.60579 0.0
C35 C 0.31058 0.6953 0.50139 0.0
C36 C 0.26658 0.74872 0.4094 0.0
C37 C 0.23843 0.68259 0.46361 0.0
O38 O 0.2562 0.68555 0.43709 0.0
O39 O 0.23367 0.69557 0.50317 0.0
O40 O 0.30777 0.69278 0.44603 0.0
O41 O 0.29736 0.70615 0.52954 0.0
O42 O 0.62768 0.05349 0.8286 0.0
Cd43 Cd 0.60595 0.02878 0.80291 0.0
Cd44 Cd 0.5884 0.06001 0.74452 0.0
O45 O 0.61666 0.07745 0.76763 0.0
O46 O 0.61991 1.00126 0.80047 0.0
O47 O 0.6097 0.0181 0.72161 0.0
C48 C 0.61891 1.00242 0.74438 0.0
C49 C 0.5715 0.06338 0.65495 0.0
C50 C 0.62976 0.07211 0.8063 0.0
C51 C 0.56349 0.03901 0.84484 0.0
O52 O 0.56584 0.05417 0.80832 0.0
O53 O 0.57737 0.02545 0.84876 0.0
O54 O 0.57281 0.07868 0.69244 0.0
O55 O 0.58155 0.04671 0.66607 0.0
O56 O 0.787 0.75224 0.94929 0.0
Cd57 Cd 0.79304 0.72957 0.01032 0.0
Cd58 Cd 0.75082 0.72332 0.0085 0.0
O59 O 0.75336 0.74084 0.93161 0.0
O60 O 0.82198 0.71962 0.99547 0.0
O61 O 0.79179 0.69919 0.98228 0.0
C62 C 0.81241 0.70168 0.97842 0.0
C63 C 0.72654 0.69399 0.02699 0.0
C64 C 0.76989 0.75334 0.92018 0.0
C65 C 0.7722 0.74481 0.1139 0.0
O66 O 0.75548 0.7408 0.08353 0.0
O67 O 0.79017 0.73966 0.09551 0.0
O68 O 0.72036 0.7129 0.02055 0.0
O69 O 0.74635 0.6912 0.01695 0.0
O70 O 0.06544 0.02895 0.80755 0.0
Cd71 Cd 0.08747 0.02414 0.74405 0.0
Cd72 Cd 0.09488 0.0657 0.75331 0.0
O73 O 0.07938 0.06105 0.83297 0.0
O74 O 0.09708 0.99455 0.75179 0.0
O75 O 0.11764 0.02402 0.77241 0.0
C76 C 0.11497 1.00339 0.77163 0.0
C77 C 0.12744 0.08503 0.73389 0.0
C78 C 0.06591 0.04498 0.84144 0.0
C79 C 0.071 0.04907 0.64803 0.0
O80 O 0.07511 0.06479 0.68215 0.0
O81 O 0.07703 0.03075 0.66071 0.0
O82 O 0.11103 0.09455 0.75044 0.0
O83 O 0.12587 0.06439 0.73351 0.0
O84 O 0.73555 0.35819 0.44404 0.0
Cd85 Cd 0.73047 0.38022 0.5073 0.0
Cd86 Cd 0.77207 0.38737 0.49952 0.0
O87 O 0.76783 0.37192 0.41969 0.0
O88 O 0.7009 0.38975 0.49812 0.0
O89 O 0.73042 0.41047 0.4792 0.0
C90 C 0.70979 0.4077 0.47884 0.0
C91 C 0.79172 0.41967 0.51983 0.0
C92 C 0.75174 0.35854 0.41074 0.0
C93 C 0.75471 0.3635 0.60419 0.0
O94 O 0.77061 0.36756 0.57063 0.0
O95 O 0.7365 0.36965 0.59088 0.0
O96 O 0.80108 0.40312 0.50367 0.0
O97 O 0.77107 0.4184 0.51923 0.0
O98 O 0.45928 0.07885 0.30715 0.0
Cd99 Cd 0.43666 0.08364 0.24522 0.0
Cd100 Cd 0.42933 0.04203 0.25442 0.0
O101 O 0.44564 0.04669 0.33298 0.0
O102 O 0.42702 0.11315 0.25433 0.0
O103 O 0.40669 0.08356 0.2752 0.0
C104 C 0.4093 0.10419 0.27489 0.0
C105 C 0.39676 0.02232 0.2378 0.0
C106 C 0.45912 0.06278 0.34087 0.0
C107 C 0.45203 0.05891 0.1474 0.0
O108 O 0.44824 0.0431 0.18143 0.0
O109 O 0.44628 0.07723 0.16109 0.0
O110 O 0.41348 0.01302 0.25298 0.0
O111 O 0.39808 0.04295 0.23716 0.0
O112 O 0.76621 0.85959 0.45219 0.0
Cd113 Cd 0.77023 0.88235 0.51596 0.0
Cd114 Cd 0.73897 0.89828 0.45473 0.0
O115 O 0.73693 0.86932 0.41052 0.0
O116 O 0.78839 0.86745 0.57111 0.0
O117 O 0.75566 0.87535 0.59268 0.0
C118 C 0.77238 0.86577 0.60636 0.0
C119 C 0.71202 0.91093 0.51177 0.0
C120 C 0.75129 0.85628 0.41526 0.0
C121 C 0.78165 0.92345 0.45307 0.0
O122 O 0.76332 0.92045 0.42928 0.0
O123 O 0.78702 0.91101 0.49336 0.0
O124 O 0.71099 0.91149 0.4556 0.0
O125 O 0.72787 0.90225 0.5354 0.0
O126 O 0.39187 0.55045 0.81476 0.0
Cd127 Cd 0.41382 0.57573 0.79483 0.0
Cd128 Cd 0.43119 0.54513 0.73383 0.0
O129 O 0.4031 0.52684 0.75342 0.0
O130 O 0.39785 0.60195 0.79778 0.0
O131 O 0.41222 0.59021 0.71695 0.0
C132 C 0.40087 0.60374 0.74231 0.0
C133 C 0.44884 0.5434 0.64493 0.0
C134 C 0.3898 0.532 0.79165 0.0
C135 C 0.45538 0.56436 0.83868 0.0
O136 O 0.45311 0.55008 0.79961 0.0
O137 O 0.44164 0.57802 0.84424 0.0
O138 O 0.44753 0.52756 0.68078 0.0
O139 O 0.43842 0.5597 0.65719 0.0
O140 O 0.75945 0.24879 0.94314 0.0
Cd141 Cd 0.75366 0.22743 0.01008 0.0
Cd142 Cd 0.78443 0.20886 0.95089 0.0
O143 O 0.78698 0.2361 0.89934 0.0
O144 O 0.73581 0.24434 0.06091 0.0
O145 O 0.76769 0.23524 0.08709 0.0
C146 C 0.75135 0.24582 0.09772 0.0
C147 C 0.81267 0.19609 0.00263 0.0
C148 C 0.77377 0.25031 0.90405 0.0
C149 C 0.74057 0.18513 0.95611 0.0
O150 O 0.75909 0.18673 0.93331 0.0
O151 O 0.73533 0.19915 0.99219 0.0
O152 O 0.81044 0.19267 0.94743 0.0
O153 O 0.79944 0.20776 0.02809 0.0
O154 O 0.12616 0.55168 0.33131 0.0
Cd155 Cd 0.10485 0.52601 0.31077 0.0
Cd156 Cd 0.08541 0.55697 0.25415 0.0
O157 O 0.11299 0.57593 0.27536 0.0
O158 O 0.12182 0.50051 0.31172 0.0
O159 O 0.10638 0.51207 0.23219 0.0
C160 C 0.11841 0.49886 0.25639 0.0
C161 C 0.06718 0.56026 0.16649 0.0
C162 C 0.12711 0.57059 0.31107 0.0
C163 C 0.06288 0.53468 0.35783 0.0
O164 O 0.06394 0.54938 0.31977 0.0
O165 O 0.07761 0.52203 0.36198 0.0
O166 O 0.06804 0.5751 0.2053 0.0
O167 O 0.0783 0.54415 0.17522 0.0
O168 O 0.28534 0.24928 0.44427 0.0
Cd169 Cd 0.2904 0.22711 0.50718 0.0
Cd170 Cd 0.24889 0.21939 0.4978 0.0
O171 O 0.25335 0.23517 0.41846 0.0
O172 O 0.32013 0.21798 0.49863 0.0
O173 O 0.29087 0.19703 0.47846 0.0
C174 C 0.31149 0.20003 0.4787 0.0
C175 C 0.22951 0.18681 0.51652 0.0
C176 C 0.26932 0.24878 0.41032 0.0
C177 C 0.26546 0.24298 0.60371 0.0
O178 O 0.24975 0.23888 0.56951 0.0
O179 O 0.28385 0.23718 0.59081 0.0
O180 O 0.22002 0.2033 0.50043 0.0
O181 O 0.25016 0.18832 0.51677 0.0
O182 O 0.5619 0.52822 0.30156 0.0
Cd183 Cd 0.58418 0.52207 0.23966 0.0
Cd184 Cd 0.59082 0.56417 0.24215 0.0
O185 O 0.57386 0.56165 0.31984 0.0
O186 O 0.59396 0.49301 0.25408 0.0
O187 O 0.61464 0.52304 0.26703 0.0
C188 C 0.61199 0.50243 0.27101 0.0
C189 C 0.62024 0.58828 0.22263 0.0
C190 C 0.56118 0.54524 0.33121 0.0
C191 C 0.56823 0.54334 0.13764 0.0
O192 O 0.57259 0.55992 0.16834 0.0
O193 O 0.57355 0.52528 0.15495 0.0
O194 O 0.60145 0.5946 0.2304 0.0
O195 O 0.62289 0.56838 0.23183 0.0
O196 O 0.24248 0.85942 0.92538 0.0
Cd197 Cd 0.23403 0.87825 0.99347 0.0
Cd198 Cd 0.27654 0.88533 0.00603 0.0
O199 O 0.27733 0.86831 0.92888 0.0
O200 O 0.20436 0.8864 0.97807 0.0
O201 O 0.23307 0.90945 0.9749 0.0
C202 C 0.21271 0.90551 0.96745 0.0
C203 C 0.29619 0.91761 0.02658 0.0
C204 C 0.26119 0.85808 0.90539 0.0
C205 C 0.25307 0.86051 0.10085 0.0
O206 O 0.27098 0.8669 0.07862 0.0
O207 O 0.2357 0.86448 0.07589 0.0
O208 O 0.30549 0.90029 0.0187 0.0
O209 O 0.27578 0.91697 0.01848 0.0
O210 O 0.95554 0.57566 0.81684 0.0
Cd211 Cd 0.93378 0.58021 0.75238 0.0
Cd212 Cd 0.92626 0.53873 0.76352 0.0
O213 O 0.94148 0.54374 0.84348 0.0
O214 O 0.92453 0.61 0.75851 0.0
O215 O 0.90352 0.58089 0.77965 0.0
C216 C 0.90647 0.60149 0.77814 0.0
C217 C 0.89356 0.51984 0.74315 0.0
C218 C 0.95495 0.55984 0.85155 0.0
C219 C 0.95046 0.5546 0.65816 0.0
O220 O 0.94631 0.53914 0.69311 0.0
O221 O 0.94437 0.573 0.66964 0.0
O222 O 0.90967 0.51009 0.76091 0.0
O223 O 0.89548 0.54048 0.74227 0.0
C224 C 0.28416 0.33009 0.14493 0.0
C225 C 0.26977 0.34602 0.14553 0.0
C226 C 0.2835 0.31421 0.18793 0.0
C227 C 0.26837 0.31448 0.23349 0.0
C228 C 0.25415 0.33084 0.23533 0.0
C229 C 0.25486 0.34632 0.19092 0.0
C230 C 0.29878 0.2969 0.18398 0.0
C231 C 0.23814 0.33192 0.28404 0.0
C232 C 0.25496 0.26261 0.31674 0.0
C233 C 0.26882 0.26533 0.36449 0.0
C234 C 0.25449 0.27856 0.27383 0.0
C235 C 0.26785 0.29782 0.27967 0.0
C236 C 0.28153 0.30078 0.32843 0.0
C237 C 0.28201 0.28444 0.36984 0.0
C238 C 0.24 0.27468 0.22177 0.0
C239 C 0.29575 0.3212 0.33679 0.0
H240 H 0.29558 0.32958 0.10967 0.0
H241 H 0.24368 0.35856 0.19153 0.0
H242 H 0.30905 0.29718 0.22332 0.0
H243 H 0.28967 0.28097 0.18233 0.0
H244 H 0.30924 0.2987 0.14499 0.0
H245 H 0.2286 0.34597 0.27999 0.0
H246 H 0.22704 0.3172 0.28432 0.0
H247 H 0.24652 0.33276 0.32663 0.0
H248 H 0.24472 0.2479 0.31246 0.0
H249 H 0.29256 0.28681 0.40708 0.0
H250 H 0.24969 0.27517 0.18132 0.0
H251 H 0.22895 0.28751 0.21836 0.0
H252 H 0.23039 0.25901 0.2241 0.0
H253 H 0.30758 0.32313 0.30091 0.0
H254 H 0.30454 0.32147 0.37881 0.0
H255 H 0.28606 0.33518 0.33527 0.0
C256 C 0.9738 0.07432 0.44758 0.0
C257 C 0.97634 0.06927 0.38877 0.0
C258 C 0.99021 0.07159 0.48791 0.0
C259 C 1.00972 0.06417 0.46849 0.0
C260 C 0.01271 0.06018 0.40859 0.0
C261 C 0.99589 0.06252 0.3696 0.0
C262 C 0.98634 0.07574 0.55161 0.0
C263 C 0.03346 0.05285 0.38587 0.0
C264 C 0.05705 0.07235 0.57144 0.0
C265 C 0.05731 0.05204 0.59682 0.0
C266 C 0.04209 0.07636 0.52824 0.0
C267 C 0.02669 0.0598 0.51108 0.0
C268 C 0.02724 0.0391 0.53545 0.0
C269 C 0.04274 0.0354 0.57759 0.0
C270 C 0.04245 0.09846 0.50203 0.0
C271 C 1.01092 0.02108 0.51874 0.0
H272 H 0.95862 0.07934 0.4625 0.0
H273 H 0.99792 0.05873 0.32398 0.0
H274 H 0.98705 0.06068 0.5766 0.0
H275 H 0.99902 0.08739 0.569 0.0
H276 H 0.97055 0.08201 0.55941 0.0
H277 H 0.03385 0.05224 0.33754 0.0
H278 H 0.04717 0.06373 0.40122 0.0
H279 H 0.03574 0.03668 0.40298 0.0
H280 H 0.06836 0.08524 0.58611 0.0
H281 H 0.04274 0.01976 0.59762 0.0
H282 H 0.02767 0.10589 0.51417 0.0
H283 H 0.04282 0.09747 0.45381 0.0
H284 H 0.05645 0.10908 0.51688 0.0
H285 H 0.99465 0.02544 0.52994 0.0
H286 H 0.01371 1.00587 0.54113 0.0
H287 H 0.01126 0.01838 0.47105 0.0
C288 C 0.2776 0.77152 0.65521 0.0
C289 C 0.25944 0.75691 0.65519 0.0
C290 C 0.27979 0.78828 0.69579 0.0
C291 C 0.2638 0.78991 0.73868 0.0
C292 C 0.24607 0.77437 0.74091 0.0
C293 C 0.24385 0.75833 0.69822 0.0
C294 C 0.29851 0.80493 0.69058 0.0
C295 C 0.22911 0.77505 0.78733 0.0
C296 C 0.27618 0.82501 0.87134 0.0
C297 C 0.26421 0.84234 0.85947 0.0
C298 C 0.27637 0.80784 0.83221 0.0
C299 C 0.26494 0.80849 0.77916 0.0
C300 C 0.25373 0.82657 0.76583 0.0
C301 C 0.25308 0.84307 0.80689 0.0
C302 C 0.28782 0.78854 0.84905 0.0
C303 C 0.24198 0.82826 0.70885 0.0
H304 H 0.28947 0.77062 0.6212 0.0
H305 H 0.22979 0.74703 0.69804 0.0
H306 H 0.2926 0.82059 0.67936 0.0
H307 H 0.30706 0.80694 0.73273 0.0
H308 H 0.31007 0.80078 0.65665 0.0
H309 H 0.21781 0.76044 0.78716 0.0
H310 H 0.23663 0.7768 0.831 0.0
H311 H 0.21986 0.78912 0.78028 0.0
H312 H 0.28441 0.82434 0.91274 0.0
H313 H 0.24372 0.85647 0.79818 0.0
H314 H 0.29926 0.78476 0.81456 0.0
H315 H 0.27602 0.77444 0.85351 0.0
H316 H 0.29665 0.79091 0.89078 0.0
H317 H 0.25261 0.82498 0.67188 0.0
H318 H 0.23608 0.8443 0.7026 0.0
H319 H 0.22809 0.81611 0.70739 0.0
C320 C 0.46442 0.03602 0.06774 0.0
C321 C 0.46512 0.05605 0.09502 0.0
C322 C 0.47889 0.03197 0.02337 0.0
C323 C 0.49483 0.04817 0.00712 0.0
C324 C 0.49521 0.06864 0.03336 0.0
C325 C 0.48013 0.07242 0.07652 0.0
C326 C 0.47751 0.01019 0.9951 0.0
C327 C 0.51215 0.08624 0.01783 0.0
C328 C 0.54708 0.03235 0.94299 0.0
C329 C 0.54501 0.03839 0.88473 0.0
C330 C 0.53068 0.03511 0.98325 0.0
C331 C 0.5116 0.04355 0.96423 0.0
C332 C 0.509 0.04849 0.9047 0.0
C333 C 0.52587 0.04614 0.86584 0.0
C334 C 0.53418 0.02996 0.04657 0.0
C335 C 0.48869 0.0569 0.88236 0.0
H336 H 0.45274 0.02335 0.08189 0.0
H337 H 0.48086 0.08783 0.09804 0.0
H338 H 0.47738 0.0118 0.94699 0.0
H339 H 0.49179 1.00183 0.00685 0.0
H340 H 0.463 1.00007 0.00875 0.0
H341 H 0.50998 0.10135 0.04137 0.0
H342 H 0.5282 0.08112 0.02857 0.0
H343 H 0.51192 0.08945 0.97036 0.0
H344 H 0.56196 0.02657 0.95773 0.0
H345 H 0.52421 0.05071 0.82063 0.0
H346 H 0.52102 0.01858 0.06272 0.0
H347 H 0.534 0.04476 0.07295 0.0
H348 H 0.54961 0.02294 0.05399 0.0
H349 H 0.47456 0.04645 0.89703 0.0
H350 H 0.48839 0.05793 0.83408 0.0
H351 H 0.48709 0.07307 0.90039 0.0
C352 C 0.27043 0.84864 0.19137 0.0
C353 C 0.25297 0.84673 0.15305 0.0
C354 C 0.27247 0.83372 0.23608 0.0
C355 C 0.2569 0.81619 0.24182 0.0
C356 C 0.23882 0.81458 0.20453 0.0
C357 C 0.23695 0.83003 0.1609 0.0
C358 C 0.29166 0.83635 0.2759 0.0
C359 C 0.22199 0.79599 0.20894 0.0
C360 C 0.27458 0.76567 0.31208 0.0
C361 C 0.26531 0.76648 0.36743 0.0
C362 C 0.27185 0.7817 0.27063 0.0
C363 C 0.25996 0.79915 0.28539 0.0
C364 C 0.2511 0.80034 0.34177 0.0
C365 C 0.25371 0.78391 0.38188 0.0
C366 C 0.28136 0.77976 0.21069 0.0
C367 C 0.23877 0.81892 0.35966 0.0
H368 H 0.2828 0.8616 0.18557 0.0
H369 H 0.22356 0.82838 0.13095 0.0
H370 H 0.2865 0.83543 0.32209 0.0
H371 H 0.30203 0.82316 0.26839 0.0
H372 H 0.30133 0.85179 0.26883 0.0
H373 H 0.20849 0.79754 0.17837 0.0
H374 H 0.22928 0.78089 0.19917 0.0
H375 H 0.21558 0.79465 0.2539 0.0
H376 H 0.28342 0.75217 0.30057 0.0
H377 H 0.24663 0.78471 0.42479 0.0
H378 H 0.29272 0.79386 0.20144 0.0
H379 H 0.26853 0.77949 0.17737 0.0
H380 H 0.28993 0.76509 0.20589 0.0
H381 H 0.24879 0.83418 0.35346 0.0
H382 H 0.23352 0.81781 0.40582 0.0
H383 H 0.22444 0.81958 0.33166 0.0
C384 C 0.47328 0.04876 0.43443 0.0
C385 C 0.47585 0.06244 0.38626 0.0
C386 C 0.48935 0.04849 0.47708 0.0
C387 C 0.50858 0.06184 0.47053 0.0
C388 C 0.5114 0.07531 0.4213 0.0
C389 C 0.49493 0.07562 0.38018 0.0
C390 C 0.48561 0.03423 0.52965 0.0
C391 C 0.53179 0.0895 0.41215 0.0
C392 C 0.54101 0.07853 0.60475 0.0
C393 C 0.55681 0.06399 0.60466 0.0
C394 C 0.52517 0.07785 0.56164 0.0
C395 C 0.52536 0.06256 0.51646 0.0
C396 C 0.54165 0.04826 0.51498 0.0
C397 C 0.55707 0.04898 0.55954 0.0
C398 C 0.50792 0.0932 0.56524 0.0
C399 C 0.54266 0.0321 0.46664 0.0
H400 H 0.45859 0.03853 0.43927 0.0
H401 H 0.49717 0.08602 0.3426 0.0
H402 H 0.49844 0.02318 0.53316 0.0
H403 H 0.48621 0.04409 0.56979 0.0
H404 H 0.46992 0.02462 0.5279 0.0
H405 H 0.53195 0.09809 0.36983 0.0
H406 H 0.5338 0.10149 0.44759 0.0
H407 H 0.54579 0.07983 0.41379 0.0
H408 H 0.54054 0.09003 0.63982 0.0
H409 H 0.56921 0.03768 0.55933 0.0
H410 H 0.49198 0.08414 0.56757 0.0
H411 H 0.50811 0.10325 0.52548 0.0
H412 H 0.50986 0.10388 0.60377 0.0
H413 H 0.52801 0.02091 0.46703 0.0
H414 H 0.5568 0.02268 0.47058 0.0
H415 H 0.54328 0.04031 0.42381 0.0
C416 C 0.27885 0.27122 0.67443 0.0
C417 C 0.26239 0.25643 0.65527 0.0
C418 C 0.27496 0.28654 0.71682 0.0
C419 C 0.25427 0.28668 0.7415 0.0
C420 C 0.23793 0.27103 0.72448 0.0
C421 C 0.24211 0.25626 0.68101 0.0
C422 C 0.29275 0.30315 0.73337 0.0
C423 C 0.21587 0.27023 0.75104 0.0
C424 C 0.25141 0.3175 0.8828 0.0
C425 C 0.24435 0.33691 0.86355 0.0
C426 C 0.25386 0.30068 0.84393 0.0
C427 C 0.24966 0.30355 0.78407 0.0
C428 C 0.24187 0.32289 0.76463 0.0
C429 C 0.23905 0.33929 0.80485 0.0
C430 C 0.26159 0.28011 0.86667 0.0
C431 C 0.23748 0.32663 0.70098 0.0
H432 H 0.29446 0.27154 0.65412 0.0
H433 H 0.22937 0.24476 0.66638 0.0
H434 H 0.28809 0.31932 0.72219 0.0
H435 H 0.29552 0.30285 0.78104 0.0
H436 H 0.308 0.30063 0.71086 0.0
H437 H 0.20549 0.25602 0.73645 0.0
H438 H 0.21698 0.26993 0.79925 0.0
H439 H 0.20808 0.28481 0.73891 0.0
H440 H 0.2554 0.3156 0.92835 0.0
H441 H 0.23379 0.35437 0.78987 0.0
H442 H 0.27783 0.27813 0.84956 0.0
H443 H 0.25095 0.26622 0.85135 0.0
H444 H 0.26223 0.27973 0.915 0.0
H445 H 0.25252 0.32621 0.67575 0.0
H446 H 0.23087 0.34225 0.69319 0.0
H447 H 0.22603 0.31373 0.68383 0.0
C448 C 0.05213 0.05937 0.935 0.0
C449 C 0.04944 0.04541 0.88747 0.0
C450 C 0.03619 0.05986 0.97792 0.0
C451 C 0.01697 0.04644 0.9723 0.0
C452 C 0.01404 0.03263 0.92381 0.0
C453 C 0.03038 0.03212 0.88241 0.0
C454 C 0.04004 0.07447 0.0297 0.0
C455 C 0.99366 0.01834 0.91568 0.0
C456 C 0.98457 0.03038 0.10699 0.0
C457 C 0.96857 0.0447 0.10584 0.0
C458 C 1.00053 0.031 0.06424 0.0
C459 C 1.00027 0.04602 0.01837 0.0
C460 C 0.98388 0.06019 0.01604 0.0
C461 C 0.96832 0.05952 0.06023 0.0
C462 C 0.01788 0.01579 0.06874 0.0
C463 C 0.98282 0.07608 0.967 0.0
H464 H 0.0668 0.06968 0.93907 0.0
H465 H 0.02802 0.0215 0.84534 0.0
H466 H 0.02722 0.08554 0.03274 0.0
H467 H 0.03952 0.06489 0.07036 0.0
H468 H 0.05573 0.08407 0.02732 0.0
H469 H 0.99343 0.0094 0.87392 0.0
H470 H 0.99173 1.00664 0.95189 0.0
H471 H 0.97965 0.02799 0.9168 0.0
H472 H 0.98504 0.01903 0.14245 0.0
H473 H 0.95603 0.07065 0.0592 0.0
H474 H 0.03379 0.02494 0.07023 0.0
H475 H 0.01763 1.00538 0.0297 0.0
H476 H 0.01609 1.00547 0.10802 0.0
H477 H 0.99755 0.08716 0.96653 0.0
H478 H 0.96877 0.08564 0.97078 0.0
H479 H 0.98197 0.06759 0.92459 0.0
C480 C 0.7826 0.78923 0.88151 0.0
C481 C 0.76912 0.77034 0.87578 0.0
C482 C 0.7823 0.80576 0.84059 0.0
C483 C 0.76858 0.80315 0.7918 0.0
C484 C 0.7548 0.78418 0.78586 0.0
C485 C 0.75503 0.76808 0.82845 0.0
C486 C 0.79689 0.82591 0.84924 0.0
C487 C 0.7403 0.78063 0.73371 0.0
C488 C 0.75717 0.8518 0.70138 0.0
C489 C 0.77231 0.85107 0.65672 0.0
C490 C 0.75591 0.83647 0.74622 0.0
C491 C 0.76972 0.81974 0.74531 0.0
C492 C 0.78504 0.819 0.70035 0.0
C493 C 0.78633 0.83481 0.65711 0.0
C494 C 0.73977 0.83811 0.79437 0.0
C495 C 0.79981 0.80123 0.69718 0.0
H496 H 0.7933 0.79121 0.91855 0.0
H497 H 0.74459 0.75351 0.82394 0.0
H498 H 0.80903 0.82742 0.81408 0.0
H499 H 0.78758 0.84015 0.84665 0.0
H500 H 0.80532 0.82611 0.8918 0.0
H501 H 0.73015 0.76528 0.73635 0.0
H502 H 0.72977 0.79388 0.72969 0.0
H503 H 0.75005 0.78059 0.69343 0.0
H504 H 0.74627 0.86431 0.70115 0.0
H505 H 0.79787 0.83395 0.62228 0.0
H506 H 0.74797 0.83874 0.83723 0.0
H507 H 0.72825 0.82371 0.79445 0.0
H508 H 0.73072 0.85249 0.78984 0.0
H509 H 0.80998 0.80137 0.73671 0.0
H510 H 0.81038 0.80261 0.65835 0.0
H511 H 0.7903 0.78551 0.69577 0.0
C512 C 0.73909 0.3229 0.37021 0.0
C513 C 0.75229 0.342 0.36493 0.0
C514 C 0.73964 0.30654 0.32891 0.0
C515 C 0.75338 0.30949 0.28029 0.0
C516 C 0.76675 0.32875 0.27452 0.0
C517 C 0.76623 0.34471 0.31736 0.0
C518 C 0.72542 0.28612 0.33724 0.0
C519 C 0.78129 0.33263 0.22258 0.0
C520 C 0.76621 0.26082 0.19208 0.0
C521 C 0.7512 0.26104 0.1469 0.0
C522 C 0.76705 0.27642 0.23617 0.0
C523 C 0.75288 0.29282 0.23414 0.0
C524 C 0.73771 0.29306 0.18862 0.0
C525 C 0.73691 0.27706 0.14599 0.0
C526 C 0.78309 0.27537 0.28485 0.0
C527 C 0.72251 0.31042 0.18442 0.0
H528 H 0.72849 0.32054 0.40734 0.0
H529 H 0.77647 0.35942 0.31316 0.0
H530 H 0.7136 0.2842 0.30132 0.0
H531 H 0.73511 0.27214 0.33576 0.0
H532 H 0.71662 0.28584 0.37922 0.0
H533 H 0.79091 0.34829 0.22497 0.0
H534 H 0.79232 0.31979 0.21926 0.0
H535 H 0.77163 0.33216 0.18205 0.0
H536 H 0.77732 0.24851 0.1929 0.0
H537 H 0.72543 0.2775 0.11084 0.0
H538 H 0.77471 0.27446 0.32743 0.0
H539 H 0.79413 0.29013 0.28522 0.0
H540 H 0.79268 0.26136 0.28076 0.0
H541 H 0.71214 0.31013 0.22357 0.0
H542 H 0.71213 0.30868 0.14523 0.0
H543 H 0.73165 0.32634 0.18298 0.0
C544 C 0.77939 0.26614 0.8046 0.0
C545 C 0.77407 0.26852 0.86327 0.0
C546 C 0.77666 0.28256 0.76431 0.0
C547 C 0.76893 0.30194 0.78364 0.0
C548 C 0.76458 0.30477 0.84341 0.0
C549 C 0.76694 0.28793 0.88234 0.0
C550 C 0.7812 0.27886 0.70074 0.0
C551 C 0.75691 0.32537 0.86606 0.0
C552 C 0.77752 0.34954 0.68181 0.0
C553 C 0.75738 0.34975 0.65544 0.0
C554 C 0.78133 0.33451 0.725 0.0
C555 C 0.76473 0.31898 0.74111 0.0
C556 C 0.74418 0.31948 0.71574 0.0
C557 C 0.74068 0.33506 0.67364 0.0
C558 C 0.80325 0.33493 0.75228 0.0
C559 C 0.72613 0.30303 0.73131 0.0
H560 H 0.78471 0.25107 0.78974 0.0
H561 H 0.76295 0.28986 0.92787 0.0
H562 H 0.76629 0.27961 0.67509 0.0
H563 H 0.79292 0.29162 0.68407 0.0
H564 H 0.78756 0.26312 0.69297 0.0
H565 H 0.75589 0.32561 0.91434 0.0
H566 H 0.76783 0.33919 0.8516 0.0
H567 H 0.74086 0.32761 0.84801 0.0
H568 H 0.79046 0.36096 0.66792 0.0
H569 H 0.72517 0.33503 0.65282 0.0
H570 H 0.81086 0.32024 0.74026 0.0
H571 H 0.80194 0.33516 0.80045 0.0
H572 H 0.8139 0.34903 0.73818 0.0
H573 H 0.73065 0.28682 0.71996 0.0
H574 H 0.71104 0.30581 0.70831 0.0
H575 H 0.72314 0.30318 0.77888 0.0
C576 C 0.75133 0.75575 0.19915 0.0
C577 C 0.77047 0.75756 0.16738 0.0
C578 C 0.74758 0.77027 0.24359 0.0
C579 C 0.76316 0.78733 0.25549 0.0
C580 C 0.7829 0.78873 0.22515 0.0
C581 C 0.78643 0.77363 0.1818 0.0
C582 C 0.72661 0.76784 0.27611 0.0
C583 C 0.79981 0.80684 0.2362 0.0
C584 C 0.74464 0.83868 0.31848 0.0
C585 C 0.75182 0.83769 0.37605 0.0
C586 C 0.74805 0.82226 0.27882 0.0
C587 C 0.75842 0.80427 0.29774 0.0
C588 C 0.76473 0.80274 0.35659 0.0
C589 C 0.76158 0.81959 0.39485 0.0
C590 C 0.74131 0.82456 0.21618 0.0
C591 C 0.77526 0.78357 0.37884 0.0
H592 H 0.73898 0.74326 0.18808 0.0
H593 H 0.80112 0.77521 0.15675 0.0
H594 H 0.72946 0.76863 0.32377 0.0
H595 H 0.71689 0.78118 0.26459 0.0
H596 H 0.71719 0.75252 0.26581 0.0
H597 H 0.81461 0.80514 0.21075 0.0
H598 H 0.79348 0.82225 0.22434 0.0
H599 H 0.80398 0.80768 0.28311 0.0
H600 H 0.73728 0.85274 0.30375 0.0
H601 H 0.76703 0.81872 0.43952 0.0
H602 H 0.73033 0.81061 0.20303 0.0
H603 H 0.75555 0.82486 0.18746 0.0
H604 H 0.73317 0.83936 0.20866 0.0
H605 H 0.76539 0.76862 0.3677 0.0
H606 H 0.77771 0.78411 0.42674 0.0
H607 H 0.79102 0.78278 0.35751 0.0
C608 C 0.53918 0.52916 0.07011 0.0
C609 C 0.55492 0.54536 0.08523 0.0
C610 C 0.52369 0.53274 0.02781 0.0
C611 C 0.52429 0.55283 0.99932 0.0
C612 C 0.54092 0.56876 0.01209 0.0
C613 C 0.5559 0.56491 0.05533 0.0
C614 C 0.50608 0.51541 0.01563 0.0
C615 C 0.54249 0.59016 0.9816 0.0
C616 C 0.49237 0.55509 0.85952 0.0
C617 C 0.47379 0.56391 0.87868 0.0
C618 C 0.50918 0.55196 0.89794 0.0
C619 C 0.50719 0.55739 0.95729 0.0
C620 C 0.4887 0.56683 0.97668 0.0
C621 C 0.47228 0.5702 0.9369 0.0
C622 C 0.52883 0.54238 0.87523 0.0
C623 C 0.48595 0.57267 0.03982 0.0
H624 H 0.53823 0.51414 0.09369 0.0
H625 H 0.56811 0.57746 0.06689 0.0
H626 H 0.49043 0.52108 0.02795 0.0
H627 H 0.50539 0.5117 0.96843 0.0
H628 H 0.50829 0.50046 0.03999 0.0
H629 H 0.55737 0.60011 0.99309 0.0
H630 H 0.542 0.58789 0.9337 0.0
H631 H 0.52859 0.59905 0.99362 0.0
H632 H 0.49366 0.55034 0.81436 0.0
H633 H 0.45786 0.57684 0.9519 0.0
H634 H 0.53019 0.52653 0.8956 0.0
H635 H 0.54343 0.55268 0.88713 0.0
H636 H 0.52846 0.54034 0.82719 0.0
H637 H 0.48604 0.55812 0.06724 0.0
H638 H 0.47081 0.58017 0.04771 0.0
H639 H 0.49952 0.5839 0.05425 0.0
C640 C 0.04763 0.52915 0.45777 0.0
C641 C 0.0447 0.53356 0.39872 0.0
C642 C 0.03128 0.53179 0.49831 0.0
C643 C 0.01145 0.53847 0.47885 0.0
C644 C 1.00806 0.5417 0.41874 0.0
C645 C 0.02482 0.53948 0.37952 0.0
C646 C 0.03558 0.52846 0.56219 0.0
C647 C 0.98697 0.54822 0.39603 0.0
C648 C 0.96472 0.53066 0.58375 0.0
C649 C 0.96415 0.55124 0.60722 0.0
C650 C 0.9796 0.5264 0.54065 0.0
C651 C 0.9946 0.54301 0.52156 0.0
C652 C 0.99375 0.56396 0.54401 0.0
C653 C 0.97835 0.56788 0.58615 0.0
C654 C 0.97958 0.50402 0.51655 0.0
C655 C 1.00964 0.58205 0.52515 0.0
H656 H 0.06308 0.5248 0.47268 0.0
H657 H 0.02252 0.5428 0.3337 0.0
H658 H 0.03481 0.54379 0.58585 0.0
H659 H 0.02315 0.51688 0.58107 0.0
H660 H 0.05152 0.52252 0.56999 0.0
H661 H 0.98628 0.54811 0.34769 0.0
H662 H 0.97358 0.53731 0.41304 0.0
H663 H 0.98445 0.56456 0.41145 0.0
H664 H 0.95368 0.51777 0.59979 0.0
H665 H 0.9781 0.58374 0.60466 0.0
H666 H 0.99464 0.49709 0.52878 0.0
H667 H 0.97889 0.50437 0.46829 0.0
H668 H 0.9659 0.4933 0.53293 0.0
H669 H 0.02609 0.57815 0.53608 0.0
H670 H 1.00669 0.59744 0.54632 0.0
H671 H 1.00895 0.58417 0.47727 0.0
C672 C 0.05268 0.5464 0.07058 0.0
C673 C 0.05206 0.56077 0.11713 0.0
C674 C 0.03712 0.54575 0.02637 0.0
C675 C 0.02035 0.55947 0.02959 0.0
C676 C 0.01973 0.57405 0.07638 0.0
C677 C 0.03569 0.57467 0.11918 0.0
C678 C 0.03856 0.53034 0.97638 0.0
C679 C 1.00199 0.58877 0.08181 0.0
C680 C 0.99003 0.57353 0.89401 0.0
C681 C 0.97128 0.55971 0.89811 0.0
C682 C 1.0063 0.57322 0.9357 0.0
C683 C 1.00365 0.55904 0.98349 0.0
C684 C 0.98473 0.54512 0.98824 0.0
C685 C 0.96884 0.54546 0.9451 0.0
C686 C 0.02635 0.58808 0.92855 0.0
C687 C 0.98117 0.53007 0.03925 0.0
H688 H 0.06525 0.53559 0.06886 0.0
H689 H 0.03494 0.58567 0.15534 0.0
H690 H 0.02406 0.51895 0.97525 0.0
H691 H 0.03922 0.53919 0.93449 0.0
H692 H 0.05286 0.52111 0.97956 0.0
H693 H 1.00356 0.59881 0.12165 0.0
H694 H 1.00197 0.59946 0.04335 0.0
H695 H 0.98627 0.57925 0.08287 0.0
H696 H 0.9922 0.58441 0.85743 0.0
H697 H 0.95442 0.53473 0.94848 0.0
H698 H 0.04063 0.5788 0.92892 0.0
H699 H 0.02799 0.59944 0.96558 0.0
H700 H 0.02634 0.59741 0.88744 0.0
H701 H 0.99424 0.51926 0.04161 0.0
H702 H 0.96566 0.5202 0.03641 0.0
H703 H 0.98152 0.53933 0.08043 0.0
C704 C 0.48031 0.5299 0.59566 0.0
C705 C 0.46383 0.54367 0.59521 0.0
C706 C 0.49615 0.53116 0.55258 0.0
C707 C 0.49525 0.54621 0.50698 0.0
C708 C 0.47837 0.55984 0.50541 0.0
C709 C 0.46298 0.5586 0.55005 0.0
C710 C 0.51406 0.51657 0.55639 0.0
C711 C 0.4766 0.57571 0.45662 0.0
C712 C 0.5467 0.5605 0.4227 0.0
C713 C 0.54435 0.54613 0.37602 0.0
C714 C 0.53069 0.56096 0.46541 0.0
C715 C 0.51173 0.54712 0.4603 0.0
C716 C 0.50904 0.53309 0.41222 0.0
C717 C 0.52548 0.53258 0.37112 0.0
C718 C 0.5343 0.57581 0.51679 0.0
C719 C 0.48891 0.51838 0.40453 0.0
H720 H 0.48126 0.51852 0.63087 0.0
H721 H 0.4503 0.56931 0.54964 0.0
H722 H 0.51387 0.5061 0.51748 0.0
H723 H 0.52973 0.52619 0.55702 0.0
H724 H 0.51286 0.5063 0.59586 0.0
H725 H 0.46228 0.58485 0.46111 0.0
H726 H 0.49105 0.58717 0.45563 0.0
H727 H 0.47575 0.56725 0.41415 0.0
H728 H 0.56126 0.571 0.42655 0.0
H729 H 0.52341 0.52168 0.33458 0.0
H730 H 0.5345 0.56632 0.55755 0.0
H731 H 0.521 0.58628 0.52049 0.0
H732 H 0.5496 0.58601 0.51345 0.0
H733 H 0.48752 0.50649 0.44035 0.0
H734 H 0.48865 0.50965 0.36244 0.0
H735 H 0.47464 0.52765 0.40673 0.0
C736 C 0.15089 0.48033 0.23362 0.0
C737 C 0.12954 0.48351 0.22118 0.0
C738 C 0.16258 0.4674 0.19791 0.0
C739 C 0.15239 0.4566 0.14996 0.0
C740 C 0.1305 0.45902 0.13878 0.0
C741 C 0.11946 0.47287 0.17373 0.0
C742 C 0.18607 0.46601 0.21014 0.0
C743 C 0.11881 0.44714 0.08962 0.0
C744 C 0.18771 0.44198 0.02407 0.0
C745 C 0.19213 0.42114 0.03872 0.0
C746 C 0.17467 0.45362 0.05962 0.0
C747 C 0.16507 0.44385 0.10985 0.0
C748 C 0.16869 0.4224 0.12332 0.0
C749 C 0.1826 0.41146 0.08831 0.0
C750 C 0.17197 0.47668 0.04478 0.0
C751 C 0.1581 0.41112 0.1751 0.0
H752 H 0.15877 0.48877 0.26992 0.0
H753 H 0.1029 0.47526 0.16429 0.0
H754 H 0.18939 0.44916 0.21746 0.0
H755 H 0.19564 0.47189 0.17186 0.0
H756 H 0.19162 0.47555 0.24882 0.0
H757 H 0.10135 0.44891 0.09062 0.0
H758 H 0.12523 0.45321 0.04724 0.0
H759 H 0.12136 0.42987 0.09184 0.0
H760 H 0.19529 0.44958 0.98609 0.0
H761 H 0.18593 0.39529 0.09952 0.0
H762 H 0.17815 0.48715 0.08102 0.0
H763 H 0.1548 0.47912 0.03938 0.0
H764 H 0.18054 0.48189 0.00422 0.0
H765 H 0.16467 0.41844 0.21595 0.0
H766 H 0.16058 0.39381 0.17574 0.0
H767 H 0.14067 0.41296 0.17475 0.0
C768 C 0.8176 0.94421 0.45644 0.0
C769 C 0.79722 0.94075 0.43127 0.0
C770 C 0.83289 0.95969 0.43396 0.0
C771 C 0.82772 0.97198 0.38501 0.0
C772 C 0.80712 0.96876 0.3598 0.0
C773 C 0.79212 0.95323 0.38327 0.0
C774 C 0.85465 0.96276 0.46229 0.0
C775 C 0.80101 0.98155 0.3076 0.0
C776 C 0.8609 0.02459 0.35954 0.0
C777 C 0.87556 0.01894 0.31723 0.0
C778 C 0.84512 0.00954 0.38143 0.0
C779 C 0.84386 0.98829 0.36043 0.0
C780 C 0.85827 0.98256 0.31681 0.0
C781 C 0.87397 0.99794 0.29578 0.0
C782 C 0.83005 0.01629 0.4279 0.0
C783 C 0.85732 0.96007 0.29309 0.0
H784 H 0.82173 0.93467 0.49347 0.0
H785 H 0.77646 0.95068 0.36334 0.0
H786 H 0.86721 0.95954 0.43027 0.0
H787 H 0.85788 0.97958 0.47676 0.0
H788 H 0.85606 0.9521 0.50046 0.0
H789 H 0.78428 0.97722 0.29337 0.0
H790 H 0.80282 0.99887 0.31789 0.0
H791 H 0.81188 0.97891 0.27071 0.0
H792 H 0.86194 0.04076 0.37646 0.0
H793 H 0.88519 0.9934 0.2631 0.0
H794 H 0.8321 1.00695 0.46823 0.0
H795 H 0.81323 0.01287 0.41355 0.0
H796 H 0.83277 0.03358 0.43846 0.0
H797 H 0.86039 0.94874 0.32861 0.0
H798 H 0.86919 0.95836 0.25789 0.0
H799 H 0.84111 0.95533 0.27576 0.0
C800 C 0.33079 0.6633 0.51677 0.0
C801 C 0.32704 0.6842 0.53267 0.0
C802 C 0.34413 0.65125 0.55039 0.0
C803 C 0.35471 0.66064 0.59977 0.0
C804 C 0.3519 0.6822 0.61403 0.0
C805 C 0.33767 0.69356 0.58114 0.0
C806 C 0.34594 0.6281 0.53483 0.0
C807 C 0.36354 0.69312 0.66478 0.0
C808 C 0.36894 0.62355 0.72229 0.0
C809 C 0.38997 0.61962 0.70818 0.0
C810 C 0.35736 0.63691 0.68749 0.0
C811 C 0.36734 0.64736 0.63872 0.0
C812 C 0.38895 0.64418 0.62584 0.0
C813 C 0.39985 0.62993 0.65993 0.0
C814 C 0.33414 0.63912 0.70163 0.0
C815 C 0.40047 0.6557 0.57582 0.0
H816 H 0.32235 0.65594 0.47976 0.0
H817 H 0.33482 0.70976 0.59337 0.0
H818 H 0.36293 0.62507 0.52846 0.0
H819 H 0.33968 0.61771 0.57116 0.0
H820 H 0.33693 0.62329 0.49463 0.0
H821 H 0.36191 0.71061 0.66526 0.0
H822 H 0.35706 0.68622 0.70622 0.0
H823 H 0.38078 0.69044 0.66322 0.0
H824 H 0.3612 0.61538 0.7592 0.0
H825 H 0.41615 0.62696 0.64915 0.0
H826 H 0.32398 0.63372 0.664 0.0
H827 H 0.33156 0.65612 0.70968 0.0
H828 H 0.32867 0.62964 0.74051 0.0
H829 H 0.39341 0.64985 0.53394 0.0
H830 H 0.41781 0.65331 0.57544 0.0
H831 H 0.39855 0.67309 0.57831 0.0
C832 C 0.70397 0.16556 0.9604 0.0
C833 C 0.72481 0.16742 0.93772 0.0
C834 C 0.68862 0.14964 0.9403 0.0
C835 C 0.69422 0.1353 0.89636 0.0
C836 C 0.7153 0.13684 0.8741 0.0
C837 C 0.73033 0.15282 0.8951 0.0
C838 C 0.66632 0.1484 0.96536 0.0
C839 C 0.7219 0.12186 0.82722 0.0
C840 C 0.65975 0.0831 0.87504 0.0
C841 C 0.64685 0.088 0.82773 0.0
C842 C 0.67519 0.09833 0.89789 0.0
C843 C 0.67791 0.11895 0.87268 0.0
C844 C 0.66516 0.12394 0.82447 0.0
C845 C 0.64976 0.10843 0.80267 0.0
C846 C 0.68846 0.09241 0.94937 0.0
C847 C 0.6677 0.14572 0.79611 0.0
H848 H 0.69953 0.17672 0.99333 0.0
H849 H 0.74636 0.15407 0.87722 0.0
H850 H 0.65466 0.15133 0.93054 0.0
H851 H 0.66192 0.13215 0.98285 0.0
H852 H 0.66473 0.16023 0.00073 0.0
H853 H 0.73908 0.1248 0.81564 0.0
H854 H 0.71881 0.10503 0.84174 0.0
H855 H 0.7122 0.12376 0.78745 0.0
H856 H 0.6576 0.0674 0.8949 0.0
H857 H 0.63991 0.1124 0.76613 0.0
H858 H 0.68598 0.10329 0.98637 0.0
H859 H 0.70569 0.09441 0.93808 0.0
H860 H 0.68441 0.07568 0.96387 0.0
H861 H 0.66459 0.15821 0.82842 0.0
H862 H 0.65668 0.147 0.75865 0.0
H863 H 0.68437 0.14917 0.78057 0.0
C864 C 0.14545 0.60777 0.31174 0.0
C865 C 0.14415 0.58662 0.33208 0.0
C866 C 0.16087 0.62323 0.33383 0.0
C867 C 0.17527 0.61743 0.37743 0.0
C868 C 0.17416 0.59609 0.39778 0.0
C869 C 0.15868 0.58096 0.37481 0.0
C870 C 0.16168 0.6458 0.31072 0.0
C871 C 0.18922 0.58927 0.4442 0.0
C872 C 0.22734 0.65213 0.39695 0.0
C873 C 0.2227 0.66496 0.44464 0.0
C874 C 0.2121 0.63658 0.37488 0.0
C875 C 0.19171 0.63361 0.40128 0.0
C876 C 0.18704 0.64612 0.45025 0.0
C877 C 0.20257 0.66168 0.47128 0.0
C878 C 0.2177 0.62358 0.32258 0.0
C879 C 0.16552 0.64326 0.47989 0.0
H880 H 0.13432 0.61232 0.27884 0.0
H881 H 0.15782 0.56469 0.391 0.0
H882 H 0.15909 0.65705 0.34677 0.0
H883 H 0.17772 0.65048 0.29221 0.0
H884 H 0.14946 0.64771 0.27653 0.0
H885 H 0.18623 0.57206 0.45543 0.0
H886 H 0.20602 0.59231 0.4293 0.0
H887 H 0.18753 0.59886 0.48425 0.0
H888 H 0.24281 0.65451 0.37588 0.0
H889 H 0.19881 0.67149 0.50807 0.0
H890 H 0.20667 0.62634 0.28611 0.0
H891 H 0.21569 0.60628 0.3331 0.0
H892 H 0.23438 0.62764 0.30759 0.0
H893 H 0.15276 0.64677 0.44873 0.0
H894 H 0.16459 0.65385 0.51838 0.0
H895 H 0.16215 0.62642 0.49413 0.0
C896 C 0.63074 0.96594 0.72536 0.0
C897 C 0.62956 0.98716 0.70749 0.0
C898 C 0.64234 0.95184 0.69289 0.0
C899 C 0.65379 0.95942 0.64279 0.0
C900 C 0.65244 0.98082 0.62433 0.0
C901 C 0.64 0.99429 0.65629 0.0
C902 C 0.64265 0.92895 0.71277 0.0
C903 C 0.66491 0.98979 0.57237 0.0
C904 C 0.70327 0.93208 0.59914 0.0
C905 C 0.69646 0.92152 0.54782 0.0
C906 C 0.6895 0.94436 0.63058 0.0
C907 C 0.66814 0.94543 0.6115 0.0
C908 C 0.66091 0.93393 0.56116 0.0
C909 C 0.67529 0.92248 0.52921 0.0
C910 C 0.69812 0.9569 0.68284 0.0
C911 C 0.63806 0.93396 0.54061 0.0
H912 H 0.62259 0.96038 0.76483 0.0
H913 H 0.63931 0.01077 0.64277 0.0
H914 H 0.63885 0.91788 0.67582 0.0
H915 H 0.65887 0.92607 0.72843 0.0
H916 H 0.63106 0.92496 0.74849 0.0
H917 H 0.66202 1.0067 0.56346 0.0
H918 H 0.68227 0.98888 0.58003 0.0
H919 H 0.6606 0.98017 0.533 0.0
H920 H 0.7197 0.93157 0.61324 0.0
H921 H 0.66998 0.91425 0.48964 0.0
H922 H 0.68852 0.95225 0.72203 0.0
H923 H 0.69681 0.97421 0.67548 0.0
H924 H 0.71512 0.95439 0.6919 0.0
H925 H 0.6269 0.92983 0.57715 0.0
H926 H 0.6344 0.92248 0.50446 0.0
H927 H 0.63498 0.95017 0.52534 0.0
C928 C 0.37014 0.49544 0.7888 0.0
C929 C 0.37261 0.51611 0.8125 0.0
C930 C 0.3548 0.47994 0.81102 0.0
C931 C 0.34168 0.48519 0.85819 0.0
C932 C 0.34391 0.50607 0.88179 0.0
C933 C 0.35928 0.52127 0.85859 0.0
C934 C 0.35277 0.45787 0.78441 0.0
C935 C 0.33024 0.51229 0.9321 0.0
C936 C 0.28948 0.45129 0.8837 0.0
C937 C 0.29503 0.43757 0.92854 0.0
C938 C 0.30449 0.46684 0.8605 0.0
C939 C 0.32557 0.46886 0.88282 0.0
C940 C 0.33123 0.45533 0.92869 0.0
C941 C 0.31591 0.43981 0.95092 0.0
C942 C 0.29784 0.48094 0.81157 0.0
C943 C 0.35352 0.45714 0.95394 0.0
H944 H 0.38035 0.49128 0.75326 0.0
H945 H 0.36105 0.53715 0.87738 0.0
H946 H 0.35612 0.44582 0.8178 0.0
H947 H 0.33617 0.45389 0.76888 0.0
H948 H 0.3639 0.45645 0.74728 0.0
H949 H 0.33385 0.52924 0.94519 0.0
H950 H 0.31307 0.50978 0.92031 0.0
H951 H 0.3328 0.50195 0.97024 0.0
H952 H 0.27343 0.4497 0.86593 0.0
H953 H 0.32036 0.42931 0.98551 0.0
H954 H 0.30788 0.47876 0.77262 0.0
H955 H 0.30042 0.498 0.82442 0.0
H956 H 0.28078 0.47742 0.79933 0.0
H957 H 0.36529 0.45414 0.91951 0.0
H958 H 0.35527 0.44566 0.99012 0.0
H959 H 0.35762 0.47358 0.97044 0.0
C960 C 0.83907 0.19513 0.08445 0.0
C961 C 0.82864 0.18522 0.03644 0.0
C962 C 0.8533 0.1842 0.11851 0.0
C963 C 0.85632 0.16255 0.10583 0.0
C964 C 0.84582 0.15256 0.05716 0.0
C965 C 0.83247 0.16417 0.02241 0.0
C966 C 0.86485 0.1957 0.16851 0.0
C967 C 0.84786 0.1293 0.04329 0.0
C968 C 0.90197 0.13272 0.16632 0.0
C969 C 0.89229 0.12251 0.21498 0.0
C970 C 0.89085 0.14676 0.13211 0.0
C971 C 0.86925 0.14982 0.14537 0.0
C972 C 0.8595 0.13954 0.1947 0.0
C973 C 0.87129 0.12639 0.22953 0.0
C974 C 0.90211 0.15808 0.08137 0.0
C975 C 0.83629 0.14163 0.20924 0.0
H976 H 0.83618 0.21146 0.09516 0.0
H977 H 0.8242 0.1564 0.98568 0.0
H978 H 0.85871 0.1889 0.21041 0.0
H979 H 0.88219 0.19344 0.1666 0.0
H980 H 0.86279 0.2131 0.1683 0.0
H981 H 0.83862 0.12393 0.00392 0.0
H982 H 0.86486 0.12648 0.03629 0.0
H983 H 0.84203 0.11922 0.08068 0.0
H984 H 0.91825 0.12981 0.1552 0.0
H985 H 0.86369 0.11829 0.26677 0.0
H986 H 0.89985 0.17542 0.08279 0.0
H987 H 0.89511 0.15174 0.0399 0.0
H988 H 0.91952 0.15602 0.08106 0.0
H989 H 0.83349 0.15866 0.21581 0.0
H990 H 0.83111 0.13257 0.24906 0.0
H991 H 0.82605 0.13562 0.17235 0.0
C992 C 0.84618 0.68362 0.96649 0.0
C993 C 0.82471 0.68511 0.95151 0.0
C994 C 0.85852 0.66907 0.93821 0.0
C995 C 0.84939 0.65621 0.89241 0.0
C996 C 0.82766 0.6576 0.87729 0.0
C997 C 0.81549 0.67179 0.90765 0.0
C998 C 0.88141 0.66764 0.95698 0.0
C999 C 0.81747 0.64464 0.82772 0.0
C1000 C 0.8896 0.63621 0.78543 0.0
C1001 C 0.89042 0.61492 0.80311 0.0
C1002 C 0.87566 0.64956 0.81251 0.0
C1003 C 0.86277 0.64165 0.85975 0.0
C1004 C 0.86338 0.62007 0.87728 0.0
C1005 C 0.87695 0.60689 0.84816 0.0
C1006 C 0.87502 0.67225 0.79124 0.0
C1007 C 0.85039 0.61114 0.9284 0.0
H1008 H 0.85334 0.69385 0.00047 0.0
H1009 H 0.79896 0.6731 0.89542 0.0
H1010 H 0.88421 0.6508 0.96698 0.0
H1011 H 0.89239 0.67298 0.92103 0.0
H1012 H 0.88563 0.6776 0.99594 0.0
H1013 H 0.80035 0.64737 0.82182 0.0
H1014 H 0.82613 0.64887 0.78664 0.0
H1015 H 0.81872 0.62735 0.8354 0.0
H1016 H 0.89994 0.64246 0.75051 0.0
H1017 H 0.8777 0.59051 0.86248 0.0
H1018 H 0.88141 0.68355 0.82534 0.0
H1019 H 0.85826 0.67573 0.78261 0.0
H1020 H 0.88453 0.67535 0.75089 0.0
H1021 H 0.85548 0.62004 0.96849 0.0
H1022 H 0.85222 0.59389 0.93558 0.0
H1023 H 0.83321 0.61327 0.92168 0.0
C1024 C 0.22614 0.15593 0.58536 0.0
C1025 C 0.21706 0.16797 0.5418 0.0
C1026 C 0.2135 0.14075 0.6181 0.0
C1027 C 0.19137 0.13716 0.60593 0.0
C1028 C 0.18244 0.14827 0.55938 0.0
C1029 C 0.19533 0.16377 0.52844 0.0
C1030 C 0.22356 0.12957 0.66802 0.0
C1031 C 0.15905 0.14447 0.54383 0.0
C1032 C 0.15819 0.08832 0.6647 0.0
C1033 C 0.14626 0.09744 0.70839 0.0
C1034 C 0.17342 0.1009 0.63193 0.0
C1035 C 0.17716 0.123 0.64421 0.0
C1036 C 0.16614 0.13196 0.69086 0.0
C1037 C 0.1506 0.11914 0.72182 0.0
C1038 C 0.18448 0.09082 0.58189 0.0
C1039 C 0.17012 0.15532 0.70652 0.0
H1040 H 0.24288 0.1593 0.59636 0.0
H1041 H 0.18826 0.17301 0.49473 0.0
H1042 H 0.2172 0.13525 0.7098 0.0
H1043 H 0.21938 0.11207 0.66581 0.0
H1044 H 0.24125 0.13264 0.66848 0.0
H1045 H 0.15514 0.15264 0.50276 0.0
H1046 H 0.15446 0.12709 0.53906 0.0
H1047 H 0.14918 0.15045 0.57935 0.0
H1048 H 0.15472 0.0716 0.65365 0.0
H1049 H 0.14144 0.12623 0.75564 0.0
H1050 H 0.202 0.09487 0.58407 0.0
H1051 H 0.17883 0.09727 0.54018 0.0
H1052 H 0.18128 0.07314 0.58131 0.0
H1053 H 0.18752 0.15979 0.71124 0.0
H1054 H 0.162 0.15925 0.74764 0.0
H1055 H 0.16418 0.16527 0.67108 0.0
C1056 C 0.7053 0.43696 0.40715 0.0
C1057 C 0.69678 0.42381 0.45231 0.0
C1058 C 0.69252 0.45057 0.37667 0.0
C1059 C 0.67086 0.45157 0.39291 0.0
C1060 C 0.66245 0.43899 0.4402 0.0
C1061 C 0.6754 0.42499 0.46863 0.0
C1062 C 0.70198 0.4632 0.32555 0.0
C1063 C 0.63965 0.44005 0.46014 0.0
C1064 C 0.64168 0.49919 0.3424 0.0
C1065 C 0.6284 0.49002 0.29838 0.0
C1066 C 0.65558 0.48691 0.37355 0.0
C1067 C 0.65674 0.4651 0.35908 0.0
C1068 C 0.64397 0.45601 0.31301 0.0
C1069 C 0.6297 0.46847 0.28393 0.0
C1070 C 0.66844 0.49707 0.42336 0.0
C1071 C 0.64517 0.43303 0.29488 0.0
H1072 H 0.72175 0.43591 0.39386 0.0
H1073 H 0.66877 0.41489 0.50361 0.0
H1074 H 0.69325 0.45809 0.2852 0.0
H1075 H 0.7001 0.48047 0.33153 0.0
H1076 H 0.71922 0.46106 0.31934 0.0
H1077 H 0.63612 0.43071 0.5006 0.0
H1078 H 0.63638 0.45691 0.46807 0.0
H1079 H 0.6285 0.43371 0.4256 0.0
H1080 H 0.64052 0.51577 0.35424 0.0
H1081 H 0.6195 0.46134 0.24984 0.0
H1082 H 0.68572 0.49546 0.41658 0.0
H1083 H 0.6638 0.48866 0.46454 0.0
H1084 H 0.666 0.51429 0.42852 0.0
H1085 H 0.66201 0.42993 0.28596 0.0
H1086 H 0.63544 0.42887 0.25545 0.0
H1087 H 0.63939 0.42222 0.33078 0.0
C1088 C 0.36608 0.01813 0.1686 0.0
C1089 C 0.37785 0.00966 0.21373 0.0
C1090 C 0.35094 1.00508 0.13683 0.0
C1091 C 0.34705 0.98321 0.15174 0.0
C1092 C 0.35781 0.975 0.20003 0.0
C1093 C 0.37335 0.98823 0.22982 0.0
C1094 C 0.34023 0.01436 0.08489 0.0
C1095 C 0.35363 0.95195 0.21857 0.0
C1096 C 0.29871 0.94937 0.09222 0.0
C1097 C 0.30832 0.93671 0.05118 0.0
C1098 C 0.31099 0.96501 0.12447 0.0
C1099 C 0.33326 0.96842 0.11409 0.0
C1100 C 0.34273 0.9566 0.06992 0.0
C1101 C 0.33021 0.94063 0.03973 0.0
C1102 C 0.30037 0.97687 0.17205 0.0
C1103 C 0.36628 0.96022 0.0561 0.0
H1104 H 0.36972 0.03463 0.15552 0.0
H1105 H 0.38239 0.98166 0.26477 0.0
H1106 H 0.34633 1.00739 0.04439 0.0
H1107 H 0.32271 0.01021 0.08613 0.0
H1108 H 0.34331 0.03203 0.08257 0.0
H1109 H 0.36126 0.94877 0.261 0.0
H1110 H 0.33619 0.94753 0.22213 0.0
H1111 H 0.36001 0.9414 0.18524 0.0
H1112 H 0.28183 0.94615 0.10175 0.0
H1113 H 0.33765 0.93086 0.00796 0.0
H1114 H 0.30459 0.99433 0.16825 0.0
H1115 H 0.30625 0.97179 0.21503 0.0
H1116 H 0.28268 0.9738 0.17115 0.0
H1117 H 0.37091 0.97751 0.04963 0.0
H1118 H 0.37065 0.95144 0.01645 0.0
H1119 H 0.37577 0.95479 0.0932 0.0
C1120 C 0.82608 0.44223 0.53382 0.0
C1121 C 0.80424 0.43827 0.54607 0.0
C1122 C 0.83895 0.45748 0.56561 0.0
C1123 C 0.82989 0.4686 0.6119 0.0
C1124 C 0.80767 0.46525 0.62297 0.0
C1125 C 0.79505 0.4503 0.5894 0.0
C1126 C 0.86246 0.46104 0.55123 0.0
C1127 C 0.79744 0.47644 0.67255 0.0
C1128 C 0.8701 0.48598 0.72984 0.0
C1129 C 0.87476 0.50767 0.71675 0.0
C1130 C 0.85462 0.47337 0.69805 0.0
C1131 C 0.844 0.48253 0.65094 0.0
C1132 C 0.84807 0.50463 0.639 0.0
C1133 C 0.86321 0.517 0.67256 0.0
C1134 C 0.8503 0.45001 0.71334 0.0
C1135 C 0.83744 0.51494 0.58852 0.0
H1136 H 0.83323 0.43299 0.5003 0.0
H1137 H 0.77822 0.44712 0.59954 0.0
H1138 H 0.86728 0.47838 0.5468 0.0
H1139 H 0.87202 0.45488 0.58719 0.0
H1140 H 0.86654 0.45287 0.51031 0.0
H1141 H 0.77974 0.47355 0.67223 0.0
H1142 H 0.80351 0.47062 0.71455 0.0
H1143 H 0.80181 0.49392 0.67066 0.0
H1144 H 0.87895 0.47872 0.76403 0.0
H1145 H 0.86693 0.53371 0.66177 0.0
H1146 H 0.85634 0.44005 0.6781 0.0
H1147 H 0.83284 0.44572 0.71721 0.0
H1148 H 0.85811 0.44591 0.7548 0.0
H1149 H 0.84326 0.50847 0.54703 0.0
H1150 H 0.84084 0.53259 0.58819 0.0
H1151 H 0.81987 0.51109 0.58988 0.0
C1152 C 0.31635 0.17072 0.40753 0.0
C1153 C 0.32476 0.18415 0.45223 0.0
C1154 C 0.32929 0.15719 0.37739 0.0
C1155 C 0.35102 0.15658 0.3935 0.0
C1156 C 0.35937 0.16953 0.44012 0.0
C1157 C 0.34624 0.18341 0.46826 0.0
C1158 C 0.31989 0.14411 0.32701 0.0
C1159 C 0.38225 0.16889 0.45986 0.0
C1160 C 0.38012 0.10851 0.34686 0.0
C1161 C 0.39323 0.11714 0.30177 0.0
C1162 C 0.36634 0.12114 0.37714 0.0
C1163 C 0.36515 0.14277 0.3608 0.0
C1164 C 0.37781 0.15133 0.31384 0.0
C1165 C 0.39195 0.13852 0.28555 0.0
C1166 C 0.35359 0.11153 0.42787 0.0
C1167 C 0.37656 0.17411 0.29385 0.0
H1168 H 0.29983 0.17142 0.39445 0.0
H1169 H 0.35279 0.19373 0.50286 0.0
H1170 H 0.32869 0.14879 0.28646 0.0
H1171 H 0.3217 0.1269 0.33437 0.0
H1172 H 0.30267 0.14624 0.3203 0.0
H1173 H 0.38584 0.17877 0.49934 0.0
H1174 H 0.38565 0.15218 0.46939 0.0
H1175 H 0.39326 0.17483 0.42458 0.0
H1176 H 0.38124 0.09206 0.36007 0.0
H1177 H 0.40202 0.14524 0.25065 0.0
H1178 H 0.33628 0.11286 0.42074 0.0
H1179 H 0.35813 0.12053 0.46821 0.0
H1180 H 0.35621 0.09444 0.43483 0.0
H1181 H 0.35971 0.17705 0.28445 0.0
H1182 H 0.38631 0.17788 0.25424 0.0
H1183 H 0.38228 0.1853 0.32895 0.0
C1184 C 0.63145 0.61647 0.15097 0.0
C1185 C 0.63713 0.60278 0.1955 0.0
C1186 C 0.64695 0.62971 0.12142 0.0
C1187 C 0.66865 0.62994 0.13836 0.0
C1188 C 0.67451 0.61619 0.18363 0.0
C1189 C 0.65868 0.60238 0.21088 0.0
C1190 C 0.64005 0.64356 0.07221 0.0
C1191 C 0.69735 0.61655 0.20439 0.0
C1192 C 0.71068 0.65598 0.03474 0.0
C1193 C 0.7121 0.67715 0.05442 0.0
C1194 C 0.69671 0.64025 0.06188 0.0
C1195 C 0.68474 0.64575 0.11126 0.0
C1196 C 0.68693 0.66697 0.13253 0.0
C1197 C 0.70023 0.68247 0.10312 0.0
C1198 C 0.69421 0.61799 0.03663 0.0
C1199 C 0.67507 0.67341 0.1861 0.0
H1200 H 0.61481 0.61644 0.13816 0.0
H1201 H 0.66305 0.59168 0.24512 0.0
H1202 H 0.64248 0.66065 0.08477 0.0
H1203 H 0.64994 0.64137 0.03298 0.0
H1204 H 0.62295 0.63988 0.06057 0.0
H1205 H 0.69937 0.60454 0.23906 0.0
H1206 H 0.70807 0.61343 0.16757 0.0
H1207 H 0.7026 0.63266 0.22164 0.0
H1208 H 0.71999 0.6519 0.99723 0.0
H1209 H 0.70171 0.69879 0.11907 0.0
H1210 H 0.67748 0.61431 0.02171 0.0
H1211 H 0.69738 0.60604 0.07039 0.0
H1212 H 0.70511 0.61612 0.99924 0.0
H1213 H 0.65766 0.67252 0.177 0.0
H1214 H 0.6803 0.68992 0.20049 0.0
H1215 H 0.67753 0.66223 0.22246 0.0
C1216 C 0.20833 0.9365 0.90147 0.0
C1217 C 0.19954 0.9218 0.94269 0.0
C1218 C 0.19548 0.95037 0.87221 0.0
C1219 C 0.17345 0.95006 0.88601 0.0
C1220 C 0.16472 0.93583 0.92943 0.0
C1221 C 0.17778 0.92158 0.95641 0.0
C1222 C 0.2053 0.96478 0.82499 0.0
C1223 C 0.14151 0.93547 0.94696 0.0
C1224 C 0.1436 0.99826 0.84457 0.0
C1225 C 0.13115 0.99032 0.7974 0.0
C1226 C 0.15742 0.98536 0.87383 0.0
C1227 C 0.1594 0.96423 0.8542 0.0
C1228 C 0.14747 0.95643 0.80508 0.0
C1229 C 0.13318 0.96943 0.77798 0.0
C1230 C 0.16928 0.99408 0.92707 0.0
C1231 C 0.14962 0.93427 0.78151 0.0
H1232 H 0.2251 0.93648 0.89014 0.0
H1233 H 0.17095 0.91025 0.98833 0.0
H1234 H 0.19723 0.9608 0.78289 0.0
H1235 H 0.20289 0.9817 0.83476 0.0
H1236 H 0.2227 0.96324 0.8198 0.0
H1237 H 0.13762 0.92472 0.98461 0.0
H1238 H 0.1375 0.95182 0.95848 0.0
H1239 H 0.13114 0.92999 0.90985 0.0
H1240 H 0.14186 0.01431 0.86023 0.0
H1241 H 0.1236 0.96326 0.74145 0.0
H1242 H 0.18673 0.99332 0.92136 0.0
H1243 H 0.16441 0.98411 0.96551 0.0
H1244 H 0.16614 0.0109 0.93642 0.0
H1245 H 0.16671 0.93194 0.77357 0.0
H1246 H 0.1406 0.93127 0.74029 0.0
H1247 H 0.14359 0.92215 0.81399 0.0
loop_
_geom_bond_atom_site_label_1
_geom_bond_atom_site_label_2
_geom_bond_distance
_geom_bond_site_symmetry_2
_ccdc_geom_bond_type
O0 Cd1 2.223 1_556 S
O0 C8 1.315 . S
Cd1 O0 2.223 1_554 S
Cd1 O4 2.297 . S
Cd1 O5 2.439 . S
Cd1 O11 2.240 . S
Cd2 O3 2.240 . S
Cd2 O10 2.223 . S
Cd2 O12 2.300 . S
Cd2 O13 2.439 1_556 S
O3 Cd2 2.240 . S
O3 C8 1.279 . S
O4 Cd1 2.297 . S
O4 C6 1.247 . S
O5 Cd1 2.439 . S
O5 C6 1.208 . S
C6 O4 1.247 . S
C6 O5 1.208 . S
C7 O12 1.236 1_554 S
C7 O13 1.208 . S
C8 O0 1.315 . S
C8 O3 1.279 . S
C9 O10 1.315 . S
C9 O11 1.279 1_556 S
O10 Cd2 2.223 . S
O10 C9 1.315 . S
O11 Cd1 2.240 . S
O11 C9 1.279 1_554 S
O12 Cd2 2.300 . S
O12 C7 1.236 1_556 S
O13 Cd2 2.439 1_554 S
O13 C7 1.208 . S
O14 Cd15 2.223 . S
O14 C22 1.315 . S
Cd15 O14 2.223 . S
Cd15 O18 2.297 . S
Cd15 O19 2.439 . S
Cd15 O25 2.240 . S
Cd16 O17 2.240 . S
Cd16 O24 2.223 . S
Cd16 O26 2.297 . S
Cd16 O27 2.439 . S
O17 Cd16 2.240 . S
O17 C22 1.279 . S
O18 Cd15 2.297 . S
O18 C20 1.247 . S
O19 Cd15 2.439 . S
O19 C20 1.208 . S
C20 O18 1.247 . S
C20 O19 1.208 . S
C21 O26 1.247 . S
C21 O27 1.208 . S
C22 O14 1.315 . S
C22 O17 1.279 . S
C23 O24 1.315 . S
C23 O25 1.279 . S
O24 Cd16 2.223 . S
O24 C23 1.315 . S
O25 Cd15 2.240 . S
O25 C23 1.279 . S
O26 Cd16 2.297 . S
O26 C21 1.247 . S
O27 Cd16 2.439 . S
O27 C21 1.208 . S
O28 Cd29 2.223 . S
O28 C36 1.315 . S
Cd29 O28 2.223 . S
Cd29 O32 2.297 . S
Cd29 O33 2.439 . S
Cd29 O39 2.240 . S
Cd30 O31 2.240 . S
Cd30 O38 2.223 . S
Cd30 O40 2.297 . S
Cd30 O41 2.439 . S
O31 Cd30 2.240 . S
O31 C36 1.279 . S
O32 Cd29 2.297 . S
O32 C34 1.247 . S
O33 Cd29 2.439 . S
O33 C34 1.208 . S
C34 O32 1.247 . S
C34 O33 1.208 . S
C35 O40 1.247 . S
C35 O41 1.208 . S
C36 O28 1.315 . S
C36 O31 1.279 . S
C37 O38 1.315 . S
C37 O39 1.279 . S
O38 Cd30 2.223 . S
O38 C37 1.315 . S
O39 Cd29 2.240 . S
O39 C37 1.279 . S
O40 Cd30 2.297 . S
O40 C35 1.247 . S
O41 Cd30 2.439 . S
O41 C35 1.208 . S
O42 Cd43 2.223 . S
O42 C50 1.315 . S
Cd43 O42 2.223 . S
Cd43 O46 2.297 . S
Cd43 O47 2.439 . S
Cd43 O53 2.240 . S
Cd44 O45 2.240 . S
Cd44 O52 2.223 . S
Cd44 O54 2.297 . S
Cd44 O55 2.439 . S
O45 Cd44 2.240 . S
O45 C50 1.279 . S
O46 Cd43 2.297 . S
O46 C48 1.247 . S
O47 Cd43 2.439 . S
O47 C48 1.208 . S
C48 O46 1.247 . S
C48 O47 1.208 . S
C49 O54 1.247 . S
C49 O55 1.208 . S
C50 O42 1.315 . S
C50 O45 1.279 . S
C51 O52 1.315 . S
C51 O53 1.279 . S
O52 Cd44 2.223 . S
O52 C51 1.315 . S
O53 Cd43 2.240 . S
O53 C51 1.279 . S
O54 Cd44 2.297 . S
O54 C49 1.247 . S
O55 Cd44 2.439 . S
O55 C49 1.208 . S
O56 Cd57 2.223 1_556 S
O56 C64 1.315 . S
Cd57 O56 2.223 1_554 S
Cd57 O60 2.297 1_554 S
Cd57 O61 2.439 1_554 S
Cd57 O67 2.240 . S
Cd58 O59 2.240 1_554 S
Cd58 O66 2.223 . S
Cd58 O68 2.297 . S
Cd58 O69 2.439 . S
O59 Cd58 2.240 1_556 S
O59 C64 1.279 . S
O60 Cd57 2.297 1_556 S
O60 C62 1.247 . S
O61 Cd57 2.439 1_556 S
O61 C62 1.208 . S
C62 O60 1.247 . S
C62 O61 1.208 . S
C63 O68 1.247 . S
C63 O69 1.208 . S
C64 O56 1.315 . S
C64 O59 1.279 . S
C65 O66 1.315 . S
C65 O67 1.279 . S
O66 Cd58 2.223 . S
O66 C65 1.315 . S
O67 Cd57 2.240 . S
O67 C65 1.279 . S
O68 Cd58 2.297 . S
O68 C63 1.247 . S
O69 Cd58 2.439 . S
O69 C63 1.208 . S
O70 Cd71 2.223 1_545 S
O70 C78 1.315 . S
Cd71 O70 2.223 1_565 S
Cd71 O74 2.297 . S
Cd71 O75 2.439 1_565 S
Cd71 O81 2.240 1_565 S
Cd72 O73 2.240 . S
Cd72 O80 2.223 . S
Cd72 O82 2.297 . S
Cd72 O83 2.439 . S
O73 Cd72 2.240 . S
O73 C78 1.279 . S
O74 Cd71 2.297 . S
O74 C76 1.247 . S
O75 Cd71 2.439 1_545 S
O75 C76 1.208 1_545 S
C76 O74 1.247 . S
C76 O75 1.208 1_565 S
C77 O82 1.247 . S
C77 O83 1.208 . S
C78 O70 1.315 . S
C78 O73 1.279 . S
C79 O80 1.315 . S
C79 O81 1.279 . S
O80 Cd72 2.223 . S
O80 C79 1.315 . S
O81 Cd71 2.240 1_545 S
O81 C79 1.279 . S
O82 Cd72 2.297 . S
O82 C77 1.247 . S
O83 Cd72 2.439 . S
O83 C77 1.208 . S
O84 Cd85 2.223 . S
O84 C92 1.315 . S
Cd85 O84 2.223 . S
Cd85 O88 2.297 . S
Cd85 O89 2.439 . S
Cd85 O95 2.240 . S
Cd86 O87 2.240 . S
Cd86 O94 2.223 . S
Cd86 O96 2.297 . S
Cd86 O97 2.439 . S
O87 Cd86 2.240 . S
O87 C92 1.279 . S
O88 Cd85 2.297 . S
O88 C90 1.247 . S
O89 Cd85 2.439 . S
O89 C90 1.208 . S
C90 O88 1.247 . S
C90 O89 1.208 . S
C91 O96 1.247 . S
C91 O97 1.208 . S
C92 O84 1.315 . S
C92 O87 1.279 . S
C93 O94 1.315 . S
C93 O95 1.279 . S
O94 Cd86 2.223 . S
O94 C93 1.315 . S
O95 Cd85 2.240 . S
O95 C93 1.279 . S
O96 Cd86 2.297 . S
O96 C91 1.247 . S
O97 Cd86 2.439 . S
O97 C91 1.208 . S
O98 Cd99 2.223 . S
O98 C106 1.315 . S
Cd99 O98 2.223 . S
Cd99 O102 2.297 . S
Cd99 O103 2.439 . S
Cd99 O109 2.240 . S
Cd100 O101 2.240 . S
Cd100 O108 2.223 . S
Cd100 O110 2.297 . S
Cd100 O111 2.439 . S
O101 Cd100 2.240 . S
O101 C106 1.279 . S
O102 Cd99 2.297 . S
O102 C104 1.247 . S
O103 Cd99 2.439 . S
O103 C104 1.208 . S
C104 O102 1.247 . S
C104 O103 1.208 . S
C105 O110 1.247 . S
C105 O111 1.208 . S
C106 O98 1.315 . S
C106 O101 1.279 . S
C107 O108 1.315 . S
C107 O109 1.279 . S
O108 Cd100 2.223 . S
O108 C107 1.315 . S
O109 Cd99 2.240 . S
O109 C107 1.279 . S
O110 Cd100 2.297 . S
O110 C105 1.247 . S
O111 Cd100 2.439 . S
O111 C105 1.208 . S
O112 Cd113 2.223 . S
O112 C120 1.315 . S
Cd113 O112 2.223 . S
Cd113 O116 2.297 . S
Cd113 O117 2.439 . S
Cd113 O123 2.240 . S
Cd114 O115 2.240 . S
Cd114 O122 2.223 . S
Cd114 O124 2.297 . S
Cd114 O125 2.439 . S
O115 Cd114 2.240 . S
O115 C120 1.279 . S
O116 Cd113 2.297 . S
O116 C118 1.247 . S
O117 Cd113 2.439 . S
O117 C118 1.208 . S
C118 O116 1.247 . S
C118 O117 1.208 . S
C119 O124 1.247 . S
C119 O125 1.208 . S
C120 O112 1.315 . S
C120 O115 1.279 . S
C121 O122 1.315 . S
C121 O123 1.279 . S
O122 Cd114 2.223 . S
O122 C121 1.315 . S
O123 Cd113 2.240 . S
O123 C121 1.279 . S
O124 Cd114 2.297 . S
O124 C119 1.247 . S
O125 Cd114 2.439 . S
O125 C119 1.208 . S
O126 Cd127 2.223 . S
O126 C134 1.315 . S
Cd127 O126 2.223 . S
Cd127 O130 2.297 . S
Cd127 O131 2.439 . S
Cd127 O137 2.240 . S
Cd128 O129 2.240 . S
Cd128 O136 2.223 . S
Cd128 O138 2.297 . S
Cd128 O139 2.439 . S
O129 Cd128 2.240 . S
O129 C134 1.279 . S
O130 Cd127 2.297 . S
O130 C132 1.247 . S
O131 Cd127 2.439 . S
O131 C132 1.208 . S
C132 O130 1.247 . S
C132 O131 1.208 . S
C133 O138 1.247 . S
C133 O139 1.208 . S
C134 O126 1.315 . S
C134 O129 1.279 . S
C135 O136 1.315 . S
C135 O137 1.279 . S
O136 Cd128 2.223 . S
O136 C135 1.315 . S
O137 Cd127 2.240 . S
O137 C135 1.279 . S
O138 Cd128 2.297 . S
O138 C133 1.247 . S
O139 Cd128 2.439 . S
O139 C133 1.208 . S
O140 Cd141 2.223 1_556 S
O140 C148 1.315 . S
Cd141 O140 2.223 1_554 S
Cd141 O144 2.297 . S
Cd141 O145 2.439 . S
Cd141 O151 2.240 . S
Cd142 O143 2.240 . S
Cd142 O150 2.223 . S
Cd142 O152 2.300 . S
Cd142 O153 2.439 1_556 S
O143 Cd142 2.240 . S
O143 C148 1.279 . S
O144 Cd141 2.297 . S
O144 C146 1.247 . S
O145 Cd141 2.439 . S
O145 C146 1.208 . S
C146 O144 1.247 . S
C146 O145 1.208 . S
C147 O152 1.237 1_554 S
C147 O153 1.208 . S
C148 O140 1.315 . S
C148 O143 1.279 . S
C149 O150 1.315 . S
C149 O151 1.279 1_556 S
O150 Cd142 2.223 . S
O150 C149 1.315 . S
O151 Cd141 2.240 . S
O151 C149 1.279 1_554 S
O152 Cd142 2.300 . S
O152 C147 1.237 1_556 S
O153 Cd142 2.439 1_554 S
O153 C147 1.208 . S
O154 Cd155 2.223 . S
O154 C162 1.315 . S
Cd155 O154 2.223 . S
Cd155 O158 2.297 . S
Cd155 O159 2.439 . S
Cd155 O165 2.240 . S
Cd156 O157 2.240 . S
Cd156 O164 2.223 . S
Cd156 O166 2.297 . S
Cd156 O167 2.439 . S
O157 Cd156 2.240 . S
O157 C162 1.279 . S
O158 Cd155 2.297 . S
O158 C160 1.247 . S
O159 Cd155 2.439 . S
O159 C160 1.208 . S
C160 O158 1.247 . S
C160 O159 1.208 . S
C161 O166 1.247 . S
C161 O167 1.208 . S
C162 O154 1.315 . S
C162 O157 1.279 . S
C163 O164 1.315 . S
C163 O165 1.279 . S
O164 Cd156 2.223 . S
O164 C163 1.315 . S
O165 Cd155 2.240 . S
O165 C163 1.279 . S
O166 Cd156 2.297 . S
O166 C161 1.247 . S
O167 Cd156 2.439 . S
O167 C161 1.208 . S
O168 Cd169 2.223 . S
O168 C176 1.315 . S
Cd169 O168 2.223 . S
Cd169 O172 2.297 . S
Cd169 O173 2.439 . S
Cd169 O179 2.240 . S
Cd170 O171 2.240 . S
Cd170 O178 2.223 . S
Cd170 O180 2.297 . S
Cd170 O181 2.439 . S
O171 Cd170 2.240 . S
O171 C176 1.279 . S
O172 Cd169 2.297 . S
O172 C174 1.247 . S
O173 Cd169 2.439 . S
O173 C174 1.208 . S
C174 O172 1.247 . S
C174 O173 1.208 . S
C175 O180 1.247 . S
C175 O181 1.208 . S
C176 O168 1.315 . S
C176 O171 1.279 . S
C177 O178 1.315 . S
C177 O179 1.279 . S
O178 Cd170 2.223 . S
O178 C177 1.315 . S
O179 Cd169 2.240 . S
O179 C177 1.279 . S
O180 Cd170 2.297 . S
O180 C175 1.247 . S
O181 Cd170 2.439 . S
O181 C175 1.208 . S
O182 Cd183 2.223 . S
O182 C190 1.315 . S
Cd183 O182 2.223 . S
Cd183 O186 2.297 . S
Cd183 O187 2.439 . S
Cd183 O193 2.240 . S
Cd184 O185 2.240 . S
Cd184 O192 2.223 . S
Cd184 O194 2.297 . S
Cd184 O195 2.439 . S
O185 Cd184 2.240 . S
O185 C190 1.279 . S
O186 Cd183 2.297 . S
O186 C188 1.247 . S
O187 Cd183 2.439 . S
O187 C188 1.208 . S
C188 O186 1.247 . S
C188 O187 1.208 . S
C189 O194 1.247 . S
C189 O195 1.208 . S
C190 O182 1.315 . S
C190 O185 1.279 . S
C191 O192 1.315 . S
C191 O193 1.279 . S
O192 Cd184 2.223 . S
O192 C191 1.315 . S
O193 Cd183 2.240 . S
O193 C191 1.279 . S
O194 Cd184 2.297 . S
O194 C189 1.247 . S
O195 Cd184 2.439 . S
O195 C189 1.208 . S
O196 Cd197 2.223 1_556 S
O196 C204 1.315 . S
Cd197 O196 2.223 1_554 S
Cd197 O200 2.297 1_554 S
Cd197 O201 2.439 1_554 S
Cd197 O207 2.240 . S
Cd198 O199 2.240 1_554 S
Cd198 O206 2.223 . S
Cd198 O208 2.297 . S
Cd198 O209 2.439 . S
O199 Cd198 2.240 1_556 S
O199 C204 1.279 . S
O200 Cd197 2.297 1_556 S
O200 C202 1.247 . S
O201 Cd197 2.439 1_556 S
O201 C202 1.208 . S
C202 O200 1.247 . S
C202 O201 1.208 . S
C203 O208 1.247 . S
C203 O209 1.208 . S
C204 O196 1.315 . S
C204 O199 1.279 . S
C205 O206 1.315 . S
C205 O207 1.279 . S
O206 Cd198 2.223 . S
O206 C205 1.315 . S
O207 Cd197 2.240 . S
O207 C205 1.279 . S
O208 Cd198 2.297 . S
O208 C203 1.247 . S
O209 Cd198 2.439 . S
O209 C203 1.208 . S
O210 Cd211 2.223 . S
O210 C218 1.315 . S
Cd211 O210 2.223 . S
Cd211 O214 2.297 . S
Cd211 O215 2.439 . S
Cd211 O221 2.240 . S
Cd212 O213 2.240 . S
Cd212 O220 2.223 . S
Cd212 O222 2.297 . S
Cd212 O223 2.439 . S
O213 Cd212 2.240 . S
O213 C218 1.279 . S
O214 Cd211 2.297 . S
O214 C216 1.247 . S
O215 Cd211 2.439 . S
O215 C216 1.208 . S
C216 O214 1.247 . S
C216 O215 1.208 . S
C217 O222 1.247 . S
C217 O223 1.208 . S
C218 O210 1.315 . S
C218 O213 1.279 . S
C219 O220 1.315 . S
C219 O221 1.279 . S
O220 Cd212 2.223 . S
O220 C219 1.315 . S
O221 Cd211 2.240 . S
O221 C219 1.279 . S
O222 Cd212 2.297 . S
O222 C217 1.247 . S
O223 Cd212 2.439 . S
O223 C217 1.208 . S
C224 C225 1.391 . S
C224 C226 1.394 . S
C224 H240 0.931 . S
C225 C224 1.391 . S
C225 C229 1.376 . S
C226 C224 1.394 . S
C226 C227 1.369 . S
C226 C230 1.531 . S
C227 C226 1.369 . S
C227 C228 1.410 . S
C227 C235 1.503 . S
C228 C227 1.410 . S
C228 C229 1.392 . S
C228 C231 1.511 . S
C229 C225 1.376 . S
C229 C228 1.392 . S
C229 H241 0.929 . S
C230 C226 1.531 . S
C230 H242 0.960 . S
C230 H243 0.962 . S
C230 H244 0.960 . S
C231 C228 1.511 . S
C231 H245 0.961 . S
C231 H246 0.961 . S
C231 H247 0.961 . S
C232 C233 1.370 . S
C232 C234 1.363 . S
C232 H248 0.931 . S
C233 C232 1.370 . S
C233 C237 1.408 . S
C234 C232 1.363 . S
C234 C235 1.370 . S
C234 C238 1.524 . S
C235 C227 1.503 . S
C235 C234 1.370 . S
C235 C236 1.403 . S
C236 C235 1.403 . S
C236 C237 1.404 . S
C236 C239 1.539 . S
C237 C233 1.408 . S
C237 C236 1.404 . S
C237 H249 0.930 . S
C238 C234 1.524 . S
C238 H250 0.956 . S
C238 H251 0.961 . S
C238 H252 0.961 . S
C239 C236 1.539 . S
C239 H253 0.958 . S
C239 H254 0.961 . S
C239 H255 0.960 . S
H240 C224 0.931 . S
H241 C229 0.929 . S
H242 C230 0.960 . S
H243 C230 0.962 . S
H244 C230 0.960 . S
H245 C231 0.961 . S
H246 C231 0.961 . S
H247 C231 0.961 . S
H248 C232 0.931 . S
H249 C237 0.930 . S
H250 C238 0.956 . S
H251 C238 0.961 . S
H252 C238 0.961 . S
H253 C239 0.958 . S
H254 C239 0.961 . S
H255 C239 0.960 . S
C256 C257 1.391 . S
C256 C258 1.394 . S
C256 H272 0.931 . S
C257 C256 1.391 . S
C257 C261 1.376 . S
C258 C256 1.394 . S
C258 C259 1.369 . S
C258 C262 1.531 . S
C259 C258 1.369 . S
C259 C260 1.410 . S
C259 C267 1.503 1_655 S
C260 C259 1.410 . S
C260 C261 1.392 . S
C260 C263 1.511 1_655 S
C261 C257 1.376 . S
C261 C260 1.392 . S
C261 H273 0.929 . S
C262 C258 1.531 . S
C262 H274 0.960 . S
C262 H275 0.962 . S
C262 H276 0.960 1_545 S
C263 C260 1.511 1_455 S
C263 H277 0.961 . S
C263 H278 0.961 . S
C263 H279 0.961 . S
C264 C265 1.370 . S
C264 C266 1.363 . S
C264 H280 0.931 . S
C265 C264 1.370 . S
C265 C269 1.408 . S
C266 C264 1.363 . S
C266 C267 1.370 . S
C266 C270 1.524 1_455 S
C267 C259 1.503 1_455 S
C267 C266 1.370 . S
C267 C268 1.403 . S
C268 C267 1.403 . S
C268 C269 1.404 . S
C268 C271 1.539 1_545 S
C269 C265 1.408 . S
C269 C268 1.404 . S
C269 H281 0.946 . S
C270 C266 1.524 1_655 S
C270 H282 0.956 . S
C270 H283 0.961 . S
C270 H284 0.961 . S
C271 C268 1.539 1_565 S
C271 H285 0.958 . S
C271 H286 0.961 . S
C271 H287 0.960 . S
H272 C256 0.931 . S
H273 C261 0.929 . S
H274 C262 0.960 . S
H275 C262 0.962 . S
H276 C262 0.960 1_565 S
H277 C263 0.961 . S
H278 C263 0.961 . S
H279 C263 0.961 . S
H280 C264 0.931 . S
H281 C269 0.946 . S
H282 C270 0.956 . S
H283 C270 0.961 . S
H284 C270 0.961 . S
H285 C271 0.958 . S
H286 C271 0.961 . S
H287 C271 0.960 . S
C288 C289 1.391 . S
C288 C290 1.394 . S
C288 H304 0.931 . S
C289 C288 1.391 . S
C289 C293 1.376 . S
C290 C288 1.394 . S
C290 C291 1.369 . S
C290 C294 1.531 . S
C291 C290 1.369 . S
C291 C292 1.410 . S
C291 C299 1.503 . S
C292 C291 1.410 . S
C292 C293 1.392 . S
C292 C295 1.511 . S
C293 C289 1.376 . S
C293 C292 1.392 . S
C293 H305 0.929 . S
C294 C290 1.531 . S
C294 H306 0.960 . S
C294 H307 0.962 . S
C294 H308 0.960 . S
C295 C292 1.511 . S
C295 H309 0.961 . S
C295 H310 0.961 . S
C295 H311 0.961 . S
C296 C297 1.370 . S
C296 C298 1.363 . S
C296 H312 0.931 . S
C297 C296 1.370 . S
C297 C301 1.408 . S
C298 C296 1.363 . S
C298 C299 1.370 . S
C298 C302 1.524 . S
C299 C291 1.503 . S
C299 C298 1.370 . S
C299 C300 1.403 . S
C300 C299 1.403 . S
C300 C301 1.404 . S
C300 C303 1.539 . S
C301 C297 1.408 . S
C301 C300 1.404 . S
C301 H313 0.930 . S
C302 C298 1.524 . S
C302 H314 0.956 . S
C302 H315 0.961 . S
C302 H316 0.961 . S
C303 C300 1.539 . S
C303 H317 0.958 . S
C303 H318 0.961 . S
C303 H319 0.960 . S
H304 C288 0.931 . S
H305 C293 0.929 . S
H306 C294 0.960 . S
H307 C294 0.962 . S
H308 C294 0.960 . S
H309 C295 0.961 . S
H310 C295 0.961 . S
H311 C295 0.961 . S
H312 C296 0.931 . S
H313 C301 0.930 . S
H314 C302 0.956 . S
H315 C302 0.961 . S
H316 C302 0.961 . S
H317 C303 0.958 . S
H318 C303 0.961 . S
H319 C303 0.960 . S
C320 C321 1.391 . S
C320 C322 1.394 1_554 S
C320 H336 0.931 . S
C321 C320 1.391 . S
C321 C325 1.376 . S
C322 C320 1.394 1_556 S
C322 C323 1.368 1_556 S
C322 C326 1.531 . S
C323 C322 1.368 1_554 S
C323 C324 1.424 . S
C323 C331 1.491 1_554 S
C324 C323 1.424 . S
C324 C325 1.392 . S
C324 C327 1.511 . S
C325 C321 1.376 . S
C325 C324 1.392 . S
C325 H337 0.929 . S
C326 C322 1.531 . S
C326 H338 0.960 . S
C326 H339 0.962 . S
C326 H340 0.960 . S
C327 C324 1.511 . S
C327 H341 0.961 . S
C327 H342 0.961 . S
C327 H343 0.961 . S
C328 C329 1.370 . S
C328 C330 1.363 . S
C328 H344 0.931 . S
C329 C328 1.370 . S
C329 C333 1.408 . S
C330 C328 1.363 . S
C330 C331 1.370 . S
C330 C334 1.524 1_556 S
C331 C323 1.491 1_556 S
C331 C330 1.370 . S
C331 C332 1.403 . S
C332 C331 1.403 . S
C332 C333 1.404 . S
C332 C335 1.539 . S
C333 C329 1.408 . S
C333 C332 1.404 . S
C333 H345 0.930 . S
C334 C330 1.524 1_554 S
C334 H346 0.956 . S
C334 H347 0.961 . S
C334 H348 0.961 . S
C335 C332 1.539 . S
C335 H349 0.958 . S
C335 H350 0.961 . S
C335 H351 0.960 . S
H336 C320 0.931 . S
H337 C325 0.929 . S
H338 C326 0.960 . S
H339 C326 0.962 . S
H340 C326 0.960 . S
H341 C327 0.961 . S
H342 C327 0.961 . S
H343 C327 0.961 . S
H344 C328 0.931 . S
H345 C333 0.930 . S
H346 C334 0.956 . S
H347 C334 0.961 . S
H348 C334 0.961 . S
H349 C335 0.958 . S
H350 C335 0.961 . S
H351 C335 0.960 . S
C352 C353 1.391 . S
C352 C354 1.394 . S
C352 H368 0.931 . S
C353 C352 1.391 . S
C353 C357 1.376 . S
C354 C352 1.394 . S
C354 C355 1.369 . S
C354 C358 1.531 . S
C355 C354 1.369 . S
C355 C356 1.410 . S
C355 C363 1.503 . S
C356 C355 1.410 . S
C356 C357 1.392 . S
C356 C359 1.511 . S
C357 C353 1.376 . S
C357 C356 1.392 . S
C357 H369 0.929 . S
C358 C354 1.531 . S
C358 H370 0.960 . S
C358 H371 0.962 . S
C358 H372 0.960 . S
C359 C356 1.511 . S
C359 H373 0.961 . S
C359 H374 0.961 . S
C359 H375 0.961 . S
C360 C361 1.370 . S
C360 C362 1.363 . S
C360 H376 0.931 . S
C361 C360 1.370 . S
C361 C365 1.408 . S
C362 C360 1.363 . S
C362 C363 1.370 . S
C362 C366 1.524 . S
C363 C355 1.503 . S
C363 C362 1.370 . S
C363 C364 1.403 . S
C364 C363 1.403 . S
C364 C365 1.404 . S
C364 C367 1.539 . S
C365 C361 1.408 . S
C365 C364 1.404 . S
C365 H377 0.930 . S
C366 C362 1.524 . S
C366 H378 0.956 . S
C366 H379 0.961 . S
C366 H380 0.961 . S
C367 C364 1.539 . S
C367 H381 0.958 . S
C367 H382 0.961 . S
C367 H383 0.960 . S
H368 C352 0.931 . S
H369 C357 0.929 . S
H370 C358 0.960 . S
H371 C358 0.962 . S
H372 C358 0.960 . S
H373 C359 0.961 . S
H374 C359 0.961 . S
H375 C359 0.961 . S
H376 C360 0.931 . S
H377 C365 0.930 . S
H378 C366 0.956 . S
H379 C366 0.961 . S
H380 C366 0.961 . S
H381 C367 0.958 . S
H382 C367 0.961 . S
H383 C367 0.960 . S
C384 C385 1.391 . S
C384 C386 1.394 . S
C384 H400 0.931 . S
C385 C384 1.391 . S
C385 C389 1.376 . S
C386 C384 1.394 . S
C386 C387 1.369 . S
C386 C390 1.531 . S
C387 C386 1.369 . S
C387 C388 1.410 . S
C387 C395 1.503 . S
C388 C387 1.410 . S
C388 C389 1.392 . S
C388 C391 1.511 . S
C389 C385 1.376 . S
C389 C388 1.392 . S
C389 H401 0.929 . S
C390 C386 1.531 . S
C390 H402 0.960 . S
C390 H403 0.962 . S
C390 H404 0.960 . S
C391 C388 1.511 . S
C391 H405 0.961 . S
C391 H406 0.961 . S
C391 H407 0.961 . S
C392 C393 1.370 . S
C392 C394 1.363 . S
C392 H408 0.931 . S
C393 C392 1.370 . S
C393 C397 1.408 . S
C394 C392 1.363 . S
C394 C395 1.370 . S
C394 C398 1.524 . S
C395 C387 1.503 . S
C395 C394 1.370 . S
C395 C396 1.403 . S
C396 C395 1.403 . S
C396 C397 1.404 . S
C396 C399 1.539 . S
C397 C393 1.408 . S
C397 C396 1.404 . S
C397 H409 0.930 . S
C398 C394 1.524 . S
C398 H410 0.956 . S
C398 H411 0.961 . S
C398 H412 0.961 . S
C399 C396 1.539 . S
C399 H413 0.958 . S
C399 H414 0.961 . S
C399 H415 0.960 . S
H400 C384 0.931 . S
H401 C389 0.929 . S
H402 C390 0.960 . S
H403 C390 0.962 . S
H404 C390 0.960 . S
H405 C391 0.961 . S
H406 C391 0.961 . S
H407 C391 0.961 . S
H408 C392 0.931 . S
H409 C397 0.930 . S
H410 C398 0.956 . S
H411 C398 0.961 . S
H412 C398 0.961 . S
H413 C399 0.958 . S
H414 C399 0.961 . S
H415 C399 0.960 . S
C416 C417 1.391 . S
C416 C418 1.394 . S
C416 H432 0.931 . S
C417 C416 1.391 . S
C417 C421 1.376 . S
C418 C416 1.394 . S
C418 C419 1.369 . S
C418 C422 1.531 . S
C419 C418 1.369 . S
C419 C420 1.410 . S
C419 C427 1.503 . S
C420 C419 1.410 . S
C420 C421 1.392 . S
C420 C423 1.511 . S
C421 C417 1.376 . S
C421 C420 1.392 . S
C421 H433 0.929 . S
C422 C418 1.531 . S
C422 H434 0.960 . S
C422 H435 0.962 . S
C422 H436 0.960 . S
C423 C420 1.511 . S
C423 H437 0.961 . S
C423 H438 0.961 . S
C423 H439 0.961 . S
C424 C425 1.370 . S
C424 C426 1.363 . S
C424 H440 0.931 . S
C425 C424 1.370 . S
C425 C429 1.408 . S
C426 C424 1.363 . S
C426 C427 1.370 . S
C426 C430 1.524 . S
C427 C419 1.503 . S
C427 C426 1.370 . S
C427 C428 1.403 . S
C428 C427 1.403 . S
C428 C429 1.404 . S
C428 C431 1.539 . S
C429 C425 1.408 . S
C429 C428 1.404 . S
C429 H441 0.930 . S
C430 C426 1.524 . S
C430 H442 0.956 . S
C430 H443 0.961 . S
C430 H444 0.961 . S
C431 C428 1.539 . S
C431 H445 0.958 . S
C431 H446 0.961 . S
C431 H447 0.960 . S
H432 C416 0.931 . S
H433 C421 0.929 . S
H434 C422 0.960 . S
H435 C422 0.962 . S
H436 C422 0.960 . S
H437 C423 0.961 . S
H438 C423 0.961 . S
H439 C423 0.961 . S
H440 C424 0.931 . S
H441 C429 0.930 . S
H442 C430 0.956 . S
H443 C430 0.961 . S
H444 C430 0.961 . S
H445 C431 0.958 . S
H446 C431 0.961 . S
H447 C431 0.960 . S
C448 C449 1.391 . S
C448 C450 1.394 . S
C448 H464 0.931 . S
C449 C448 1.391 . S
C449 C453 1.376 . S
C450 C448 1.394 . S
C450 C451 1.369 . S
C450 C454 1.531 1_556 S
C451 C450 1.369 . S
C451 C452 1.413 . S
C451 C459 1.503 1_455 S
C452 C451 1.413 . S
C452 C453 1.398 . S
C452 C455 1.503 1_455 S
C453 C449 1.376 . S
C453 C452 1.398 . S
C453 H465 0.929 . S
C454 C450 1.531 1_554 S
C454 H466 0.960 . S
C454 H467 0.962 . S
C454 H468 0.960 . S
C455 C452 1.503 1_655 S
C455 H469 0.961 . S
C455 H470 0.961 . S
C455 H471 0.961 . S
C456 C457 1.370 . S
C456 C458 1.375 . S
C456 H472 0.931 . S
C457 C456 1.370 . S
C457 C461 1.408 . S
C458 C456 1.375 . S
C458 C459 1.367 1_554 S
C458 C462 1.516 1_544 S
C459 C451 1.503 1_655 S
C459 C458 1.367 1_556 S
C459 C460 1.403 1_556 S
C460 C459 1.403 1_554 S
C460 C461 1.404 . S
C460 C463 1.539 1_655 S
C461 C457 1.408 . S
C461 C460 1.404 . S
C461 H473 0.930 . S
C462 C458 1.516 1_566 S
C462 H474 0.956 . S
C462 H475 0.961 . S
C462 H476 0.961 . S
C463 C460 1.539 1_455 S
C463 H477 0.958 . S
C463 H478 0.961 1_455 S
C463 H479 0.960 1_554 S
H464 C448 0.931 . S
H465 C453 0.929 . S
H466 C454 0.960 . S
H467 C454 0.962 . S
H468 C454 0.960 . S
H469 C455 0.961 . S
H470 C455 0.961 . S
H471 C455 0.961 . S
H472 C456 0.931 . S
H473 C461 0.930 . S
H474 C462 0.956 . S
H475 C462 0.961 . S
H476 C462 0.961 . S
H477 C463 0.958 . S
H478 C463 0.961 1_655 S
H479 C463 0.960 1_556 S
C480 C481 1.391 . S
C480 C482 1.394 . S
C480 H496 0.931 . S
C481 C480 1.391 . S
C481 C485 1.376 . S
C482 C480 1.394 . S
C482 C483 1.369 . S
C482 C486 1.531 . S
C483 C482 1.369 . S
C483 C484 1.410 . S
C483 C491 1.503 . S
C484 C483 1.410 . S
C484 C485 1.392 . S
C484 C487 1.511 . S
C485 C481 1.376 . S
C485 C484 1.392 . S
C485 H497 0.929 . S
C486 C482 1.531 . S
C486 H498 0.960 . S
C486 H499 0.962 . S
C486 H500 0.960 . S
C487 C484 1.511 . S
C487 H501 0.961 . S
C487 H502 0.961 . S
C487 H503 0.961 . S
C488 C489 1.370 . S
C488 C490 1.363 . S
C488 H504 0.931 . S
C489 C488 1.370 . S
C489 C493 1.408 . S
C490 C488 1.363 . S
C490 C491 1.370 . S
C490 C494 1.524 . S
C491 C483 1.503 . S
C491 C490 1.370 . S
C491 C492 1.403 . S
C492 C491 1.403 . S
C492 C493 1.404 . S
C492 C495 1.539 . S
C493 C489 1.408 . S
C493 C492 1.404 . S
C493 H505 0.930 . S
C494 C490 1.524 . S
C494 H506 0.956 . S
C494 H507 0.961 . S
C494 H508 0.961 . S
C495 C492 1.539 . S
C495 H509 0.958 . S
C495 H510 0.961 . S
C495 H511 0.960 . S
H496 C480 0.931 . S
H497 C485 0.929 . S
H498 C486 0.960 . S
H499 C486 0.962 . S
H500 C486 0.960 . S
H501 C487 0.961 . S
H502 C487 0.961 . S
H503 C487 0.961 . S
H504 C488 0.931 . S
H505 C493 0.930 . S
H506 C494 0.956 . S
H507 C494 0.961 . S
H508 C494 0.961 . S
H509 C495 0.958 . S
H510 C495 0.961 . S
H511 C495 0.960 . S
C512 C513 1.391 . S
C512 C514 1.394 . S
C512 H528 0.931 . S
C513 C512 1.391 . S
C513 C517 1.376 . S
C514 C512 1.394 . S
C514 C515 1.369 . S
C514 C518 1.531 . S
C515 C514 1.369 . S
C515 C516 1.410 . S
C515 C523 1.503 . S
C516 C515 1.410 . S
C516 C517 1.392 . S
C516 C519 1.511 . S
C517 C513 1.376 . S
C517 C516 1.392 . S
C517 H529 0.929 . S
C518 C514 1.531 . S
C518 H530 0.960 . S
C518 H531 0.962 . S
C518 H532 0.960 . S
C519 C516 1.511 . S
C519 H533 0.961 . S
C519 H534 0.961 . S
C519 H535 0.961 . S
C520 C521 1.370 . S
C520 C522 1.363 . S
C520 H536 0.931 . S
C521 C520 1.370 . S
C521 C525 1.408 . S
C522 C520 1.363 . S
C522 C523 1.370 . S
C522 C526 1.524 . S
C523 C515 1.503 . S
C523 C522 1.370 . S
C523 C524 1.403 . S
C524 C523 1.403 . S
C524 C525 1.404 . S
C524 C527 1.539 . S
C525 C521 1.408 . S
C525 C524 1.404 . S
C525 H537 0.930 . S
C526 C522 1.524 . S
C526 H538 0.956 . S
C526 H539 0.961 . S
C526 H540 0.961 . S
C527 C524 1.539 . S
C527 H541 0.958 . S
C527 H542 0.961 . S
C527 H543 0.960 . S
H528 C512 0.931 . S
H529 C517 0.929 . S
H530 C518 0.960 . S
H531 C518 0.962 . S
H532 C518 0.960 . S
H533 C519 0.961 . S
H534 C519 0.961 . S
H535 C519 0.961 . S
H536 C520 0.931 . S
H537 C525 0.930 . S
H538 C526 0.956 . S
H539 C526 0.961 . S
H540 C526 0.961 . S
H541 C527 0.958 . S
H542 C527 0.961 . S
H543 C527 0.960 . S
C544 C545 1.391 . S
C544 C546 1.394 . S
C544 H560 0.931 . S
C545 C544 1.391 . S
C545 C549 1.376 . S
C546 C544 1.394 . S
C546 C547 1.369 . S
C546 C550 1.531 . S
C547 C546 1.369 . S
C547 C548 1.410 . S
C547 C555 1.503 . S
C548 C547 1.410 . S
C548 C549 1.392 . S
C548 C551 1.511 . S
C549 C545 1.376 . S
C549 C548 1.392 . S
C549 H561 0.929 . S
C550 C546 1.531 . S
C550 H562 0.960 . S
C550 H563 0.962 . S
C550 H564 0.960 . S
C551 C548 1.511 . S
C551 H565 0.961 . S
C551 H566 0.961 . S
C551 H567 0.961 . S
C552 C553 1.370 . S
C552 C554 1.363 . S
C552 H568 0.931 . S
C553 C552 1.370 . S
C553 C557 1.408 . S
C554 C552 1.363 . S
C554 C555 1.370 . S
C554 C558 1.524 . S
C555 C547 1.503 . S
C555 C554 1.370 . S
C555 C556 1.403 . S
C556 C555 1.403 . S
C556 C557 1.404 . S
C556 C559 1.539 . S
C557 C553 1.408 . S
C557 C556 1.404 . S
C557 H569 0.930 . S
C558 C554 1.524 . S
C558 H570 0.956 . S
C558 H571 0.961 . S
C558 H572 0.961 . S
C559 C556 1.539 . S
C559 H573 0.958 . S
C559 H574 0.961 . S
C559 H575 0.960 . S
H560 C544 0.931 . S
H561 C549 0.929 . S
H562 C550 0.960 . S
H563 C550 0.962 . S
H564 C550 0.960 . S
H565 C551 0.961 . S
H566 C551 0.961 . S
H567 C551 0.961 . S
H568 C552 0.931 . S
H569 C557 0.930 . S
H570 C558 0.956 . S
H571 C558 0.961 . S
H572 C558 0.961 . S
H573 C559 0.958 . S
H574 C559 0.961 . S
H575 C559 0.960 . S
C576 C577 1.391 . S
C576 C578 1.394 . S
C576 H592 0.931 . S
C577 C576 1.391 . S
C577 C581 1.376 . S
C578 C576 1.394 . S
C578 C579 1.369 . S
C578 C582 1.531 . S
C579 C578 1.369 . S
C579 C580 1.410 . S
C579 C587 1.503 . S
C580 C579 1.410 . S
C580 C581 1.392 . S
C580 C583 1.511 . S
C581 C577 1.376 . S
C581 C580 1.392 . S
C581 H593 0.929 . S
C582 C578 1.531 . S
C582 H594 0.960 . S
C582 H595 0.962 . S
C582 H596 0.960 . S
C583 C580 1.511 . S
C583 H597 0.961 . S
C583 H598 0.961 . S
C583 H599 0.961 . S
C584 C585 1.370 . S
C584 C586 1.363 . S
C584 H600 0.931 . S
C585 C584 1.370 . S
C585 C589 1.408 . S
C586 C584 1.363 . S
C586 C587 1.370 . S
C586 C590 1.524 . S
C587 C579 1.503 . S
C587 C586 1.370 . S
C587 C588 1.403 . S
C588 C587 1.403 . S
C588 C589 1.404 . S
C588 C591 1.539 . S
C589 C585 1.408 . S
C589 C588 1.404 . S
C589 H601 0.930 . S
C590 C586 1.524 . S
C590 H602 0.956 . S
C590 H603 0.961 . S
C590 H604 0.961 . S
C591 C588 1.539 . S
C591 H605 0.958 . S
C591 H606 0.961 . S
C591 H607 0.960 . S
H592 C576 0.931 . S
H593 C581 0.929 . S
H594 C582 0.960 . S
H595 C582 0.962 . S
H596 C582 0.960 . S
H597 C583 0.961 . S
H598 C583 0.961 . S
H599 C583 0.961 . S
H600 C584 0.931 . S
H601 C589 0.930 . S
H602 C590 0.956 . S
H603 C590 0.961 . S
H604 C590 0.961 . S
H605 C591 0.958 . S
H606 C591 0.961 . S
H607 C591 0.960 . S
C608 C609 1.391 . S
C608 C610 1.394 . S
C608 H624 0.931 . S
C609 C608 1.391 . S
C609 C613 1.376 . S
C610 C608 1.394 . S
C610 C611 1.369 . S
C610 C614 1.531 . S
C611 C610 1.369 . S
C611 C612 1.411 . S
C611 C619 1.503 1_554 S
C612 C611 1.411 . S
C612 C613 1.399 . S
C612 C615 1.503 1_554 S
C613 C609 1.376 . S
C613 C612 1.399 . S
C613 H625 0.929 . S
C614 C610 1.531 . S
C614 H626 0.960 . S
C614 H627 0.962 . S
C614 H628 0.960 . S
C615 C612 1.503 1_556 S
C615 H629 0.961 . S
C615 H630 0.961 . S
C615 H631 0.961 . S
C616 C617 1.370 . S
C616 C618 1.363 . S
C616 H632 0.931 . S
C617 C616 1.370 . S
C617 C621 1.408 . S
C618 C616 1.363 . S
C618 C619 1.370 . S
C618 C622 1.524 . S
C619 C611 1.503 1_556 S
C619 C618 1.370 . S
C619 C620 1.403 . S
C620 C619 1.403 . S
C620 C621 1.404 . S
C620 C623 1.539 . S
C621 C617 1.408 . S
C621 C620 1.404 . S
C621 H633 0.930 . S
C622 C618 1.524 . S
C622 H634 0.956 . S
C622 H635 0.961 . S
C622 H636 0.961 . S
C623 C620 1.539 . S
C623 H637 0.958 1_556 S
C623 H638 0.961 . S
C623 H639 0.960 1_556 S
H624 C608 0.931 . S
H625 C613 0.929 . S
H626 C614 0.960 . S
H627 C614 0.962 . S
H628 C614 0.960 . S
H629 C615 0.961 . S
H630 C615 0.961 . S
H631 C615 0.961 . S
H632 C616 0.931 . S
H633 C621 0.930 . S
H634 C622 0.956 . S
H635 C622 0.961 . S
H636 C622 0.961 . S
H637 C623 0.958 1_554 S
H638 C623 0.961 . S
H639 C623 0.960 1_554 S
C640 C641 1.391 . S
C640 C642 1.394 . S
C640 H656 0.931 . S
C641 C640 1.391 . S
C641 C645 1.376 . S
C642 C640 1.394 . S
C642 C643 1.369 . S
C642 C646 1.531 . S
C643 C642 1.369 . S
C643 C644 1.410 . S
C643 C651 1.503 1_455 S
C644 C643 1.410 . S
C644 C645 1.392 . S
C644 C647 1.511 1_455 S
C645 C641 1.376 . S
C645 C644 1.392 . S
C645 H657 0.929 . S
C646 C642 1.531 . S
C646 H658 0.960 . S
C646 H659 0.962 . S
C646 H660 0.960 . S
C647 C644 1.511 1_655 S
C647 H661 0.961 . S
C647 H662 0.961 . S
C647 H663 0.961 . S
C648 C649 1.370 . S
C648 C650 1.337 1_655 S
C648 H664 0.931 . S
C649 C648 1.370 . S
C649 C653 1.408 . S
C650 C648 1.337 1_455 S
C650 C651 1.363 1_455 S
C650 C654 1.559 . S
C651 C643 1.503 1_655 S
C651 C650 1.363 1_655 S
C651 C652 1.403 . S
C652 C651 1.403 . S
C652 C653 1.404 . S
C652 C655 1.539 . S
C653 C649 1.408 . S
C653 C652 1.404 . S
C653 H665 0.930 . S
C654 C650 1.559 . S
C654 H666 0.956 . S
C654 H667 0.961 . S
C654 H668 0.961 . S
C655 C652 1.539 . S
C655 H669 0.958 . S
C655 H670 0.961 . S
C655 H671 0.960 . S
H656 C640 0.931 . S
H657 C645 0.929 . S
H658 C646 0.960 . S
H659 C646 0.962 . S
H660 C646 0.960 . S
H661 C647 0.961 . S
H662 C647 0.961 . S
H663 C647 0.961 . S
H664 C648 0.931 . S
H665 C653 0.930 . S
H666 C654 0.956 . S
H667 C654 0.961 . S
H668 C654 0.961 . S
H669 C655 0.958 . S
H670 C655 0.961 . S
H671 C655 0.960 . S
C672 C673 1.391 . S
C672 C674 1.394 1_554 S
C672 H688 0.931 . S
C673 C672 1.391 . S
C673 C677 1.376 . S
C674 C672 1.394 1_556 S
C674 C675 1.369 . S
C674 C678 1.531 . S
C675 C674 1.369 . S
C675 C676 1.410 1_556 S
C675 C683 1.503 1_455 S
C676 C675 1.410 1_554 S
C676 C677 1.392 . S
C676 C679 1.511 1_455 S
C677 C673 1.376 . S
C677 C676 1.392 . S
C677 H689 0.929 . S
C678 C674 1.531 . S
C678 H690 0.960 . S
C678 H691 0.962 . S
C678 H692 0.960 . S
C679 C676 1.511 1_655 S
C679 H693 0.961 . S
C679 H694 0.961 . S
C679 H695 0.961 . S
C680 C681 1.370 . S
C680 C682 1.363 . S
C680 H696 0.931 . S
C681 C680 1.370 . S
C681 C685 1.408 . S
C682 C680 1.363 . S
C682 C683 1.370 . S
C682 C686 1.524 1_655 S
C683 C675 1.503 1_655 S
C683 C682 1.370 . S
C683 C684 1.403 . S
C684 C683 1.403 . S
C684 C685 1.404 . S
C684 C687 1.539 . S
C685 C681 1.408 . S
C685 C684 1.404 . S
C685 H697 0.930 . S
C686 C682 1.524 1_455 S
C686 H698 0.956 . S
C686 H699 0.961 . S
C686 H700 0.961 . S
C687 C684 1.539 . S
C687 H701 0.958 . S
C687 H702 0.961 . S
C687 H703 0.960 1_556 S
H688 C672 0.931 . S
H689 C677 0.929 . S
H690 C678 0.960 . S
H691 C678 0.962 . S
H692 C678 0.960 . S
H693 C679 0.961 . S
H694 C679 0.961 . S
H695 C679 0.961 . S
H696 C680 0.931 . S
H697 C685 0.930 . S
H698 C686 0.956 . S
H699 C686 0.961 . S
H700 C686 0.961 . S
H701 C687 0.958 . S
H702 C687 0.961 . S
H703 C687 0.960 1_554 S
C704 C705 1.391 . S
C704 C706 1.394 . S
C704 H720 0.931 . S
C705 C704 1.391 . S
C705 C709 1.376 . S
C706 C704 1.394 . S
C706 C707 1.369 . S
C706 C710 1.531 . S
C707 C706 1.369 . S
C707 C708 1.410 . S
C707 C715 1.503 . S
C708 C707 1.410 . S
C708 C709 1.392 . S
C708 C711 1.511 . S
C709 C705 1.376 . S
C709 C708 1.392 . S
C709 H721 0.929 . S
C710 C706 1.531 . S
C710 H722 0.960 . S
C710 H723 0.962 . S
C710 H724 0.960 . S
C711 C708 1.511 . S
C711 H725 0.961 . S
C711 H726 0.961 . S
C711 H727 0.961 . S
C712 C713 1.370 . S
C712 C714 1.363 . S
C712 H728 0.931 . S
C713 C712 1.370 . S
C713 C717 1.408 . S
C714 C712 1.363 . S
C714 C715 1.370 . S
C714 C718 1.524 . S
C715 C707 1.503 . S
C715 C714 1.370 . S
C715 C716 1.403 . S
C716 C715 1.403 . S
C716 C717 1.404 . S
C716 C719 1.539 . S
C717 C713 1.408 . S
C717 C716 1.404 . S
C717 H729 0.930 . S
C718 C714 1.524 . S
C718 H730 0.956 . S
C718 H731 0.961 . S
C718 H732 0.961 . S
C719 C716 1.539 . S
C719 H733 0.958 . S
C719 H734 0.961 . S
C719 H735 0.960 . S
H720 C704 0.931 . S
H721 C709 0.929 . S
H722 C710 0.960 . S
H723 C710 0.962 . S
H724 C710 0.960 . S
H725 C711 0.961 . S
H726 C711 0.961 . S
H727 C711 0.961 . S
H728 C712 0.931 . S
H729 C717 0.930 . S
H730 C718 0.956 . S
H731 C718 0.961 . S
H732 C718 0.961 . S
H733 C719 0.958 . S
H734 C719 0.961 . S
H735 C719 0.960 . S
C736 C737 1.391 . S
C736 C738 1.394 . S
C736 H752 0.931 . S
C737 C736 1.391 . S
C737 C741 1.376 . S
C738 C736 1.394 . S
C738 C739 1.369 . S
C738 C742 1.531 . S
C739 C738 1.369 . S
C739 C740 1.410 . S
C739 C747 1.503 . S
C740 C739 1.410 . S
C740 C741 1.392 . S
C740 C743 1.511 . S
C741 C737 1.376 . S
C741 C740 1.392 . S
C741 H753 0.929 . S
C742 C738 1.531 . S
C742 H754 0.960 . S
C742 H755 0.962 . S
C742 H756 0.960 . S
C743 C740 1.511 . S
C743 H757 0.961 . S
C743 H758 0.961 . S
C743 H759 0.961 . S
C744 C745 1.370 . S
C744 C746 1.363 . S
C744 H760 0.931 . S
C745 C744 1.370 . S
C745 C749 1.408 . S
C746 C744 1.363 . S
C746 C747 1.370 . S
C746 C750 1.524 . S
C747 C739 1.503 . S
C747 C746 1.370 . S
C747 C748 1.403 . S
C748 C747 1.403 . S
C748 C749 1.404 . S
C748 C751 1.539 . S
C749 C745 1.408 . S
C749 C748 1.404 . S
C749 H761 0.930 . S
C750 C746 1.524 . S
C750 H762 0.956 . S
C750 H763 0.961 . S
C750 H764 0.961 1_554 S
C751 C748 1.539 . S
C751 H765 0.958 . S
C751 H766 0.961 . S
C751 H767 0.960 . S
H752 C736 0.931 . S
H753 C741 0.929 . S
H754 C742 0.960 . S
H755 C742 0.962 . S
H756 C742 0.960 . S
H757 C743 0.961 . S
H758 C743 0.961 . S
H759 C743 0.961 . S
H760 C744 0.931 . S
H761 C749 0.930 . S
H762 C750 0.956 . S
H763 C750 0.961 . S
H764 C750 0.961 1_556 S
H765 C751 0.958 . S
H766 C751 0.961 . S
H767 C751 0.960 . S
C768 C769 1.391 . S
C768 C770 1.394 . S
C768 H784 0.931 . S
C769 C768 1.391 . S
C769 C773 1.376 . S
C770 C768 1.394 . S
C770 C771 1.369 . S
C770 C774 1.531 . S
C771 C770 1.369 . S
C771 C772 1.410 . S
C771 C779 1.503 . S
C772 C771 1.410 . S
C772 C773 1.392 . S
C772 C775 1.511 . S
C773 C769 1.376 . S
C773 C772 1.392 . S
C773 H785 0.929 . S
C774 C770 1.531 . S
C774 H786 0.960 . S
C774 H787 0.962 . S
C774 H788 0.960 . S
C775 C772 1.511 . S
C775 H789 0.961 . S
C775 H790 0.961 . S
C775 H791 0.961 . S
C776 C777 1.370 . S
C776 C778 1.363 . S
C776 H792 0.931 1_565 S
C777 C776 1.370 . S
C777 C781 1.408 . S
C778 C776 1.363 . S
C778 C779 1.370 . S
C778 C782 1.524 . S
C779 C771 1.503 . S
C779 C778 1.370 . S
C779 C780 1.403 . S
C780 C779 1.403 . S
C780 C781 1.404 . S
C780 C783 1.539 . S
C781 C777 1.408 . S
C781 C780 1.404 . S
C781 H793 0.930 . S
C782 C778 1.524 . S
C782 H794 0.956 . S
C782 H795 0.961 . S
C782 H796 0.961 . S
C783 C780 1.539 . S
C783 H797 0.958 . S
C783 H798 0.961 . S
C783 H799 0.960 . S
H784 C768 0.931 . S
H785 C773 0.929 . S
H786 C774 0.960 . S
H787 C774 0.962 . S
H788 C774 0.960 . S
H789 C775 0.961 . S
H790 C775 0.961 . S
H791 C775 0.961 . S
H792 C776 0.931 1_545 S
H793 C781 0.930 . S
H794 C782 0.956 . S
H795 C782 0.961 . S
H796 C782 0.961 . S
H797 C783 0.958 . S
H798 C783 0.961 . S
H799 C783 0.960 . S
C800 C801 1.391 . S
C800 C802 1.394 . S
C800 H816 0.931 . S
C801 C800 1.391 . S
C801 C805 1.376 . S
C802 C800 1.394 . S
C802 C803 1.369 . S
C802 C806 1.531 . S
C803 C802 1.369 . S
C803 C804 1.410 . S
C803 C811 1.503 . S
C804 C803 1.410 . S
C804 C805 1.392 . S
C804 C807 1.511 . S
C805 C801 1.376 . S
C805 C804 1.392 . S
C805 H817 0.929 . S
C806 C802 1.531 . S
C806 H818 0.960 . S
C806 H819 0.962 . S
C806 H820 0.960 . S
C807 C804 1.511 . S
C807 H821 0.961 . S
C807 H822 0.961 . S
C807 H823 0.961 . S
C808 C809 1.370 . S
C808 C810 1.363 . S
C808 H824 0.931 . S
C809 C808 1.370 . S
C809 C813 1.408 . S
C810 C808 1.363 . S
C810 C811 1.370 . S
C810 C814 1.524 . S
C811 C803 1.503 . S
C811 C810 1.370 . S
C811 C812 1.403 . S
C812 C811 1.403 . S
C812 C813 1.404 . S
C812 C815 1.539 . S
C813 C809 1.408 . S
C813 C812 1.404 . S
C813 H825 0.930 . S
C814 C810 1.524 . S
C814 H826 0.956 . S
C814 H827 0.961 . S
C814 H828 0.961 . S
C815 C812 1.539 . S
C815 H829 0.958 . S
C815 H830 0.961 . S
C815 H831 0.960 . S
H816 C800 0.931 . S
H817 C805 0.929 . S
H818 C806 0.960 . S
H819 C806 0.962 . S
H820 C806 0.960 . S
H821 C807 0.961 . S
H822 C807 0.961 . S
H823 C807 0.961 . S
H824 C808 0.931 . S
H825 C813 0.930 . S
H826 C814 0.956 . S
H827 C814 0.961 . S
H828 C814 0.961 . S
H829 C815 0.958 . S
H830 C815 0.961 . S
H831 C815 0.960 . S
C832 C833 1.391 . S
C832 C834 1.394 . S
C832 H848 0.931 . S
C833 C832 1.391 . S
C833 C837 1.376 . S
C834 C832 1.394 . S
C834 C835 1.369 . S
C834 C838 1.531 . S
C835 C834 1.369 . S
C835 C836 1.410 . S
C835 C843 1.503 . S
C836 C835 1.410 . S
C836 C837 1.392 . S
C836 C839 1.511 . S
C837 C833 1.376 . S
C837 C836 1.392 . S
C837 H849 0.929 . S
C838 C834 1.531 . S
C838 H850 0.960 . S
C838 H851 0.962 . S
C838 H852 0.960 . S
C839 C836 1.511 . S
C839 H853 0.961 . S
C839 H854 0.961 . S
C839 H855 0.961 . S
C840 C841 1.370 . S
C840 C842 1.363 . S
C840 H856 0.931 . S
C841 C840 1.370 . S
C841 C845 1.408 . S
C842 C840 1.363 . S
C842 C843 1.370 . S
C842 C846 1.524 . S
C843 C835 1.503 . S
C843 C842 1.370 . S
C843 C844 1.403 . S
C844 C843 1.403 . S
C844 C845 1.404 . S
C844 C847 1.539 . S
C845 C841 1.408 . S
C845 C844 1.404 . S
C845 H857 0.930 . S
C846 C842 1.524 . S
C846 H858 0.956 . S
C846 H859 0.961 . S
C846 H860 0.961 . S
C847 C844 1.539 . S
C847 H861 0.958 . S
C847 H862 0.961 . S
C847 H863 0.960 . S
H848 C832 0.931 . S
H849 C837 0.929 . S
H850 C838 0.960 . S
H851 C838 0.962 . S
H852 C838 0.960 . S
H853 C839 0.961 . S
H854 C839 0.961 . S
H855 C839 0.961 . S
H856 C840 0.931 . S
H857 C845 0.930 . S
H858 C846 0.956 . S
H859 C846 0.961 . S
H860 C846 0.961 . S
H861 C847 0.958 . S
H862 C847 0.961 . S
H863 C847 0.960 . S
C864 C865 1.391 . S
C864 C866 1.394 . S
C864 H880 0.931 . S
C865 C864 1.391 . S
C865 C869 1.376 . S
C866 C864 1.394 . S
C866 C867 1.369 . S
C866 C870 1.531 . S
C867 C866 1.369 . S
C867 C868 1.410 . S
C867 C875 1.503 . S
C868 C867 1.410 . S
C868 C869 1.392 . S
C868 C871 1.511 . S
C869 C865 1.376 . S
C869 C868 1.392 . S
C869 H881 0.929 . S
C870 C866 1.531 . S
C870 H882 0.960 . S
C870 H883 0.962 . S
C870 H884 0.960 . S
C871 C868 1.511 . S
C871 H885 0.961 . S
C871 H886 0.961 . S
C871 H887 0.961 . S
C872 C873 1.370 . S
C872 C874 1.363 . S
C872 H888 0.931 . S
C873 C872 1.370 . S
C873 C877 1.408 . S
C874 C872 1.363 . S
C874 C875 1.370 . S
C874 C878 1.524 . S
C875 C867 1.503 . S
C875 C874 1.370 . S
C875 C876 1.403 . S
C876 C875 1.403 . S
C876 C877 1.404 . S
C876 C879 1.539 . S
C877 C873 1.408 . S
C877 C876 1.404 . S
C877 H889 0.930 . S
C878 C874 1.524 . S
C878 H890 0.956 . S
C878 H891 0.961 . S
C878 H892 0.961 . S
C879 C876 1.539 . S
C879 H893 0.958 . S
C879 H894 0.961 . S
C879 H895 0.960 . S
H880 C864 0.931 . S
H881 C869 0.929 . S
H882 C870 0.960 . S
H883 C870 0.962 . S
H884 C870 0.960 . S
H885 C871 0.961 . S
H886 C871 0.961 . S
H887 C871 0.961 . S
H888 C872 0.931 . S
H889 C877 0.930 . S
H890 C878 0.956 . S
H891 C878 0.961 . S
H892 C878 0.961 . S
H893 C879 0.958 . S
H894 C879 0.961 . S
H895 C879 0.960 . S
C896 C897 1.391 1_565 S
C896 C898 1.394 . S
C896 H912 0.931 . S
C897 C896 1.391 1_545 S
C897 C901 1.376 . S
C898 C896 1.394 . S
C898 C899 1.369 . S
C898 C902 1.531 . S
C899 C898 1.369 . S
C899 C900 1.410 . S
C899 C907 1.503 . S
C900 C899 1.410 . S
C900 C901 1.392 1_565 S
C900 C903 1.511 1_565 S
C901 C897 1.376 . S
C901 C900 1.392 1_545 S
C901 H913 0.929 . S
C902 C898 1.531 . S
C902 H914 0.960 . S
C902 H915 0.962 . S
C902 H916 0.960 . S
C903 C900 1.511 1_545 S
C903 H917 0.961 . S
C903 H918 0.961 1_545 S
C903 H919 0.970 . S
C904 C905 1.370 . S
C904 C906 1.363 . S
C904 H920 0.931 . S
C905 C904 1.370 . S
C905 C909 1.408 . S
C906 C904 1.363 . S
C906 C907 1.370 . S
C906 C910 1.524 . S
C907 C899 1.503 . S
C907 C906 1.370 . S
C907 C908 1.403 . S
C908 C907 1.403 . S
C908 C909 1.404 . S
C908 C911 1.539 . S
C909 C905 1.408 . S
C909 C908 1.404 . S
C909 H921 0.930 . S
C910 C906 1.524 . S
C910 H922 0.956 . S
C910 H923 0.961 . S
C910 H924 0.961 . S
C911 C908 1.539 . S
C911 H925 0.958 . S
C911 H926 0.961 . S
C911 H927 0.960 . S
H912 C896 0.931 . S
H913 C901 0.929 . S
H914 C902 0.960 . S
H915 C902 0.962 . S
H916 C902 0.960 . S
H917 C903 0.961 . S
H918 C903 0.961 1_565 S
H919 C903 0.970 . S
H920 C904 0.931 . S
H921 C909 0.930 . S
H922 C910 0.956 . S
H923 C910 0.961 . S
H924 C910 0.961 . S
H925 C911 0.958 . S
H926 C911 0.961 . S
H927 C911 0.960 . S
C928 C929 1.391 . S
C928 C930 1.394 . S
C928 H944 0.931 . S
C929 C928 1.391 . S
C929 C933 1.376 . S
C930 C928 1.394 . S
C930 C931 1.369 . S
C930 C934 1.531 . S
C931 C930 1.369 . S
C931 C932 1.410 . S
C931 C939 1.503 . S
C932 C931 1.410 . S
C932 C933 1.392 . S
C932 C935 1.511 . S
C933 C929 1.376 . S
C933 C932 1.392 . S
C933 H945 0.929 . S
C934 C930 1.531 . S
C934 H946 0.960 . S
C934 H947 0.962 . S
C934 H948 0.960 . S
C935 C932 1.511 . S
C935 H949 0.961 . S
C935 H950 0.961 . S
C935 H951 0.961 . S
C936 C937 1.370 . S
C936 C938 1.363 . S
C936 H952 0.931 . S
C937 C936 1.370 . S
C937 C941 1.408 . S
C938 C936 1.363 . S
C938 C939 1.370 . S
C938 C942 1.524 . S
C939 C931 1.503 . S
C939 C938 1.370 . S
C939 C940 1.403 . S
C940 C939 1.403 . S
C940 C941 1.404 . S
C940 C943 1.539 1_556 S
C941 C937 1.408 . S
C941 C940 1.404 . S
C941 H953 0.930 1_556 S
C942 C938 1.524 . S
C942 H954 0.956 . S
C942 H955 0.961 . S
C942 H956 0.961 . S
C943 C940 1.539 1_554 S
C943 H957 0.958 . S
C943 H958 0.961 . S
C943 H959 0.960 1_554 S
H944 C928 0.931 . S
H945 C933 0.929 . S
H946 C934 0.960 . S
H947 C934 0.962 . S
H948 C934 0.960 . S
H949 C935 0.961 . S
H950 C935 0.961 . S
H951 C935 0.961 . S
H952 C936 0.931 . S
H953 C941 0.930 1_554 S
H954 C942 0.956 . S
H955 C942 0.961 . S
H956 C942 0.961 . S
H957 C943 0.958 . S
H958 C943 0.961 . S
H959 C943 0.960 1_556 S
C960 C961 1.391 . S
C960 C962 1.394 . S
C960 H976 0.931 . S
C961 C960 1.391 . S
C961 C965 1.376 . S
C962 C960 1.394 . S
C962 C963 1.369 . S
C962 C966 1.531 . S
C963 C962 1.369 . S
C963 C964 1.410 . S
C963 C971 1.503 . S
C964 C963 1.410 . S
C964 C965 1.392 . S
C964 C967 1.511 . S
C965 C961 1.376 . S
C965 C964 1.392 . S
C965 H977 0.929 . S
C966 C962 1.531 . S
C966 H978 0.960 . S
C966 H979 0.962 . S
C966 H980 0.960 . S
C967 C964 1.511 . S
C967 H981 0.961 . S
C967 H982 0.961 . S
C967 H983 0.961 . S
C968 C969 1.370 . S
C968 C970 1.363 . S
C968 H984 0.931 . S
C969 C968 1.370 . S
C969 C973 1.408 . S
C970 C968 1.363 . S
C970 C971 1.370 . S
C970 C974 1.524 . S
C971 C963 1.503 . S
C971 C970 1.370 . S
C971 C972 1.403 . S
C972 C971 1.403 . S
C972 C973 1.404 . S
C972 C975 1.539 . S
C973 C969 1.408 . S
C973 C972 1.404 . S
C973 H985 0.930 . S
C974 C970 1.524 . S
C974 H986 0.956 . S
C974 H987 0.961 . S
C974 H988 0.961 . S
C975 C972 1.539 . S
C975 H989 0.958 . S
C975 H990 0.961 . S
C975 H991 0.960 . S
H976 C960 0.931 . S
H977 C965 0.929 . S
H978 C966 0.960 . S
H979 C966 0.962 . S
H980 C966 0.960 . S
H981 C967 0.961 . S
H982 C967 0.961 . S
H983 C967 0.961 . S
H984 C968 0.931 . S
H985 C973 0.930 . S
H986 C974 0.956 . S
H987 C974 0.961 . S
H988 C974 0.961 . S
H989 C975 0.958 . S
H990 C975 0.961 . S
H991 C975 0.960 . S
C992 C993 1.391 . S
C992 C994 1.394 . S
C992 H1008 0.933 . S
C993 C992 1.391 . S
C993 C997 1.376 . S
C994 C992 1.394 . S
C994 C995 1.369 . S
C994 C998 1.531 . S
C995 C994 1.369 . S
C995 C996 1.410 . S
C995 C1003 1.503 . S
C996 C995 1.410 . S
C996 C997 1.392 . S
C996 C999 1.511 . S
C997 C993 1.376 . S
C997 C996 1.392 . S
C997 H1009 0.929 . S
C998 C994 1.531 . S
C998 H1010 0.960 . S
C998 H1011 0.962 . S
C998 H1012 0.960 1_556 S
C999 C996 1.511 . S
C999 H1013 0.961 . S
C999 H1014 0.961 . S
C999 H1015 0.961 . S
C1000 C1001 1.370 . S
C1000 C1002 1.363 . S
C1000 H1016 0.931 . S
C1001 C1000 1.370 . S
C1001 C1005 1.408 . S
C1002 C1000 1.363 . S
C1002 C1003 1.370 . S
C1002 C1006 1.524 . S
C1003 C995 1.503 . S
C1003 C1002 1.370 . S
C1003 C1004 1.403 . S
C1004 C1003 1.403 . S
C1004 C1005 1.404 . S
C1004 C1007 1.539 . S
C1005 C1001 1.408 . S
C1005 C1004 1.404 . S
C1005 H1017 0.930 . S
C1006 C1002 1.524 . S
C1006 H1018 0.956 . S
C1006 H1019 0.961 . S
C1006 H1020 0.961 . S
C1007 C1004 1.539 . S
C1007 H1021 0.958 . S
C1007 H1022 0.961 . S
C1007 H1023 0.960 . S
H1008 C992 0.933 . S
H1009 C997 0.929 . S
H1010 C998 0.960 . S
H1011 C998 0.962 . S
H1012 C998 0.960 1_554 S
H1013 C999 0.961 . S
H1014 C999 0.961 . S
H1015 C999 0.961 . S
H1016 C1000 0.931 . S
H1017 C1005 0.930 . S
H1018 C1006 0.956 . S
H1019 C1006 0.961 . S
H1020 C1006 0.961 . S
H1021 C1007 0.958 . S
H1022 C1007 0.961 . S
H1023 C1007 0.960 . S
C1024 C1025 1.391 . S
C1024 C1026 1.394 . S
C1024 H1040 0.931 . S
C1025 C1024 1.391 . S
C1025 C1029 1.376 . S
C1026 C1024 1.394 . S
C1026 C1027 1.369 . S
C1026 C1030 1.531 . S
C1027 C1026 1.369 . S
C1027 C1028 1.410 . S
C1027 C1035 1.503 . S
C1028 C1027 1.410 . S
C1028 C1029 1.392 . S
C1028 C1031 1.511 . S
C1029 C1025 1.376 . S
C1029 C1028 1.392 . S
C1029 H1041 0.929 . S
C1030 C1026 1.531 . S
C1030 H1042 0.960 . S
C1030 H1043 0.962 . S
C1030 H1044 0.960 . S
C1031 C1028 1.511 . S
C1031 H1045 0.961 . S
C1031 H1046 0.961 . S
C1031 H1047 0.961 . S
C1032 C1033 1.370 . S
C1032 C1034 1.363 . S
C1032 H1048 0.931 . S
C1033 C1032 1.370 . S
C1033 C1037 1.408 . S
C1034 C1032 1.363 . S
C1034 C1035 1.370 . S
C1034 C1038 1.524 . S
C1035 C1027 1.503 . S
C1035 C1034 1.370 . S
C1035 C1036 1.403 . S
C1036 C1035 1.403 . S
C1036 C1037 1.404 . S
C1036 C1039 1.539 . S
C1037 C1033 1.408 . S
C1037 C1036 1.404 . S
C1037 H1049 0.930 . S
C1038 C1034 1.524 . S
C1038 H1050 0.956 . S
C1038 H1051 0.961 . S
C1038 H1052 0.961 . S
C1039 C1036 1.539 . S
C1039 H1053 0.958 . S
C1039 H1054 0.961 . S
C1039 H1055 0.960 . S
H1040 C1024 0.931 . S
H1041 C1029 0.929 . S
H1042 C1030 0.960 . S
H1043 C1030 0.962 . S
H1044 C1030 0.960 . S
H1045 C1031 0.961 . S
H1046 C1031 0.961 . S
H1047 C1031 0.961 . S
H1048 C1032 0.931 . S
H1049 C1037 0.930 . S
H1050 C1038 0.956 . S
H1051 C1038 0.961 . S
H1052 C1038 0.961 . S
H1053 C1039 0.958 . S
H1054 C1039 0.961 . S
H1055 C1039 0.960 . S
C1056 C1057 1.391 . S
C1056 C1058 1.394 . S
C1056 H1072 0.931 . S
C1057 C1056 1.391 . S
C1057 C1061 1.376 . S
C1058 C1056 1.394 . S
C1058 C1059 1.369 . S
C1058 C1062 1.531 . S
C1059 C1058 1.369 . S
C1059 C1060 1.410 . S
C1059 C1067 1.503 . S
C1060 C1059 1.410 . S
C1060 C1061 1.392 . S
C1060 C1063 1.511 . S
C1061 C1057 1.376 . S
C1061 C1060 1.392 . S
C1061 H1073 0.929 . S
C1062 C1058 1.531 . S
C1062 H1074 0.960 . S
C1062 H1075 0.962 . S
C1062 H1076 0.960 . S
C1063 C1060 1.511 . S
C1063 H1077 0.961 . S
C1063 H1078 0.961 . S
C1063 H1079 0.961 . S
C1064 C1065 1.370 . S
C1064 C1066 1.363 . S
C1064 H1080 0.931 . S
C1065 C1064 1.370 . S
C1065 C1069 1.408 . S
C1066 C1064 1.363 . S
C1066 C1067 1.370 . S
C1066 C1070 1.524 . S
C1067 C1059 1.503 . S
C1067 C1066 1.370 . S
C1067 C1068 1.403 . S
C1068 C1067 1.403 . S
C1068 C1069 1.404 . S
C1068 C1071 1.539 . S
C1069 C1065 1.408 . S
C1069 C1068 1.404 . S
C1069 H1081 0.930 . S
C1070 C1066 1.524 . S
C1070 H1082 0.956 . S
C1070 H1083 0.961 . S
C1070 H1084 0.961 . S
C1071 C1068 1.539 . S
C1071 H1085 0.958 . S
C1071 H1086 0.961 . S
C1071 H1087 0.960 . S
H1072 C1056 0.931 . S
H1073 C1061 0.929 . S
H1074 C1062 0.960 . S
H1075 C1062 0.962 . S
H1076 C1062 0.960 . S
H1077 C1063 0.961 . S
H1078 C1063 0.961 . S
H1079 C1063 0.961 . S
H1080 C1064 0.931 . S
H1081 C1069 0.930 . S
H1082 C1070 0.956 . S
H1083 C1070 0.961 . S
H1084 C1070 0.961 . S
H1085 C1071 0.958 . S
H1086 C1071 0.961 . S
H1087 C1071 0.960 . S
C1088 C1089 1.391 . S
C1088 C1090 1.394 1_545 S
C1088 H1104 0.931 . S
C1089 C1088 1.391 . S
C1089 C1093 1.376 1_545 S
C1090 C1088 1.394 1_565 S
C1090 C1091 1.369 . S
C1090 C1094 1.531 . S
C1091 C1090 1.369 . S
C1091 C1092 1.410 . S
C1091 C1099 1.503 . S
C1092 C1091 1.410 . S
C1092 C1093 1.392 . S
C1092 C1095 1.511 . S
C1093 C1089 1.376 1_565 S
C1093 C1092 1.392 . S
C1093 H1105 0.929 . S
C1094 C1090 1.531 . S
C1094 H1106 0.960 . S
C1094 H1107 0.962 . S
C1094 H1108 0.960 1_565 S
C1095 C1092 1.511 . S
C1095 H1109 0.961 . S
C1095 H1110 0.961 . S
C1095 H1111 0.961 . S
C1096 C1097 1.370 . S
C1096 C1098 1.363 . S
C1096 H1112 0.931 . S
C1097 C1096 1.370 . S
C1097 C1101 1.408 . S
C1098 C1096 1.363 . S
C1098 C1099 1.370 . S
C1098 C1102 1.524 . S
C1099 C1091 1.503 . S
C1099 C1098 1.370 . S
C1099 C1100 1.403 . S
C1100 C1099 1.403 . S
C1100 C1101 1.404 . S
C1100 C1103 1.539 . S
C1101 C1097 1.408 . S
C1101 C1100 1.404 . S
C1101 H1113 0.930 . S
C1102 C1098 1.524 . S
C1102 H1114 0.956 . S
C1102 H1115 0.961 . S
C1102 H1116 0.961 . S
C1103 C1100 1.539 . S
C1103 H1117 0.958 1_554 S
C1103 H1118 0.961 1_554 S
C1103 H1119 0.960 . S
H1104 C1088 0.931 . S
H1105 C1093 0.929 . S
H1106 C1094 0.960 . S
H1107 C1094 0.962 . S
H1108 C1094 0.960 1_545 S
H1109 C1095 0.961 . S
H1110 C1095 0.961 . S
H1111 C1095 0.961 . S
H1112 C1096 0.931 . S
H1113 C1101 0.930 . S
H1114 C1102 0.956 . S
H1115 C1102 0.961 . S
H1116 C1102 0.961 . S
H1117 C1103 0.958 1_556 S
H1118 C1103 0.961 1_556 S
H1119 C1103 0.960 . S
C1120 C1121 1.391 . S
C1120 C1122 1.394 . S
C1120 H1136 0.931 . S
C1121 C1120 1.391 . S
C1121 C1125 1.376 . S
C1122 C1120 1.394 . S
C1122 C1123 1.369 . S
C1122 C1126 1.531 . S
C1123 C1122 1.369 . S
C1123 C1124 1.410 . S
C1123 C1131 1.503 . S
C1124 C1123 1.410 . S
C1124 C1125 1.392 . S
C1124 C1127 1.511 . S
C1125 C1121 1.376 . S
C1125 C1124 1.392 . S
C1125 H1137 0.929 . S
C1126 C1122 1.531 . S
C1126 H1138 0.960 . S
C1126 H1139 0.962 . S
C1126 H1140 0.960 . S
C1127 C1124 1.511 . S
C1127 H1141 0.961 . S
C1127 H1142 0.961 . S
C1127 H1143 0.961 . S
C1128 C1129 1.370 . S
C1128 C1130 1.363 . S
C1128 H1144 0.931 . S
C1129 C1128 1.370 . S
C1129 C1133 1.408 . S
C1130 C1128 1.363 . S
C1130 C1131 1.370 . S
C1130 C1134 1.524 . S
C1131 C1123 1.503 . S
C1131 C1130 1.370 . S
C1131 C1132 1.403 . S
C1132 C1131 1.403 . S
C1132 C1133 1.404 . S
C1132 C1135 1.539 . S
C1133 C1129 1.408 . S
C1133 C1132 1.404 . S
C1133 H1145 0.930 . S
C1134 C1130 1.524 . S
C1134 H1146 0.956 . S
C1134 H1147 0.961 . S
C1134 H1148 0.961 . S
C1135 C1132 1.539 . S
C1135 H1149 0.958 . S
C1135 H1150 0.961 . S
C1135 H1151 0.960 . S
H1136 C1120 0.931 . S
H1137 C1125 0.929 . S
H1138 C1126 0.960 . S
H1139 C1126 0.962 . S
H1140 C1126 0.960 . S
H1141 C1127 0.961 . S
H1142 C1127 0.961 . S
H1143 C1127 0.961 . S
H1144 C1128 0.931 . S
H1145 C1133 0.930 . S
H1146 C1134 0.956 . S
H1147 C1134 0.961 . S
H1148 C1134 0.961 . S
H1149 C1135 0.958 . S
H1150 C1135 0.961 . S
H1151 C1135 0.960 . S
C1152 C1153 1.391 . S
C1152 C1154 1.394 . S
C1152 H1168 0.931 . S
C1153 C1152 1.391 . S
C1153 C1157 1.376 . S
C1154 C1152 1.394 . S
C1154 C1155 1.369 . S
C1154 C1158 1.531 . S
C1155 C1154 1.369 . S
C1155 C1156 1.410 . S
C1155 C1163 1.503 . S
C1156 C1155 1.410 . S
C1156 C1157 1.392 . S
C1156 C1159 1.511 . S
C1157 C1153 1.376 . S
C1157 C1156 1.392 . S
C1157 H1169 0.929 . S
C1158 C1154 1.531 . S
C1158 H1170 0.960 . S
C1158 H1171 0.962 . S
C1158 H1172 0.960 . S
C1159 C1156 1.511 . S
C1159 H1173 0.961 . S
C1159 H1174 0.961 . S
C1159 H1175 0.961 . S
C1160 C1161 1.370 . S
C1160 C1162 1.363 . S
C1160 H1176 0.931 . S
C1161 C1160 1.370 . S
C1161 C1165 1.408 . S
C1162 C1160 1.363 . S
C1162 C1163 1.370 . S
C1162 C1166 1.524 . S
C1163 C1155 1.503 . S
C1163 C1162 1.370 . S
C1163 C1164 1.403 . S
C1164 C1163 1.403 . S
C1164 C1165 1.404 . S
C1164 C1167 1.539 . S
C1165 C1161 1.408 . S
C1165 C1164 1.404 . S
C1165 H1177 0.930 . S
C1166 C1162 1.524 . S
C1166 H1178 0.956 . S
C1166 H1179 0.961 . S
C1166 H1180 0.961 . S
C1167 C1164 1.539 . S
C1167 H1181 0.958 . S
C1167 H1182 0.961 . S
C1167 H1183 0.960 . S
H1168 C1152 0.931 . S
H1169 C1157 0.929 . S
H1170 C1158 0.960 . S
H1171 C1158 0.962 . S
H1172 C1158 0.960 . S
H1173 C1159 0.961 . S
H1174 C1159 0.961 . S
H1175 C1159 0.961 . S
H1176 C1160 0.931 . S
H1177 C1165 0.930 . S
H1178 C1166 0.956 . S
H1179 C1166 0.961 . S
H1180 C1166 0.961 . S
H1181 C1167 0.958 . S
H1182 C1167 0.961 . S
H1183 C1167 0.960 . S
C1184 C1185 1.391 . S
C1184 C1186 1.394 . S
C1184 H1200 0.931 . S
C1185 C1184 1.391 . S
C1185 C1189 1.376 . S
C1186 C1184 1.394 . S
C1186 C1187 1.369 . S
C1186 C1190 1.531 . S
C1187 C1186 1.369 . S
C1187 C1188 1.410 . S
C1187 C1195 1.503 . S
C1188 C1187 1.410 . S
C1188 C1189 1.392 . S
C1188 C1191 1.511 . S
C1189 C1185 1.376 . S
C1189 C1188 1.392 . S
C1189 H1201 0.929 . S
C1190 C1186 1.531 . S
C1190 H1202 0.960 . S
C1190 H1203 0.962 . S
C1190 H1204 0.960 . S
C1191 C1188 1.511 . S
C1191 H1205 0.961 . S
C1191 H1206 0.961 . S
C1191 H1207 0.961 . S
C1192 C1193 1.370 . S
C1192 C1194 1.363 . S
C1192 H1208 0.931 . S
C1193 C1192 1.370 . S
C1193 C1197 1.408 . S
C1194 C1192 1.363 . S
C1194 C1195 1.370 . S
C1194 C1198 1.524 . S
C1195 C1187 1.503 . S
C1195 C1194 1.370 . S
C1195 C1196 1.403 . S
C1196 C1195 1.403 . S
C1196 C1197 1.404 . S
C1196 C1199 1.539 . S
C1197 C1193 1.408 . S
C1197 C1196 1.404 . S
C1197 H1209 0.930 . S
C1198 C1194 1.524 . S
C1198 H1210 0.956 . S
C1198 H1211 0.961 . S
C1198 H1212 0.961 . S
C1199 C1196 1.539 . S
C1199 H1213 0.958 . S
C1199 H1214 0.961 . S
C1199 H1215 0.960 . S
H1200 C1184 0.931 . S
H1201 C1189 0.929 . S
H1202 C1190 0.960 . S
H1203 C1190 0.962 . S
H1204 C1190 0.960 . S
H1205 C1191 0.961 . S
H1206 C1191 0.961 . S
H1207 C1191 0.961 . S
H1208 C1192 0.931 . S
H1209 C1197 0.930 . S
H1210 C1198 0.956 . S
H1211 C1198 0.961 . S
H1212 C1198 0.961 . S
H1213 C1199 0.958 . S
H1214 C1199 0.961 . S
H1215 C1199 0.960 . S
C1216 C1217 1.391 . S
C1216 C1218 1.394 . S
C1216 H1232 0.931 . S
C1217 C1216 1.391 . S
C1217 C1221 1.376 . S
C1218 C1216 1.394 . S
C1218 C1219 1.369 . S
C1218 C1222 1.531 . S
C1219 C1218 1.369 . S
C1219 C1220 1.410 . S
C1219 C1227 1.503 . S
C1220 C1219 1.410 . S
C1220 C1221 1.392 . S
C1220 C1223 1.511 . S
C1221 C1217 1.376 . S
C1221 C1220 1.392 . S
C1221 H1233 0.929 . S
C1222 C1218 1.531 . S
C1222 H1234 0.960 . S
C1222 H1235 0.962 . S
C1222 H1236 0.960 . S
C1223 C1220 1.511 . S
C1223 H1237 0.961 . S
C1223 H1238 0.961 . S
C1223 H1239 0.961 . S
C1224 C1225 1.370 . S
C1224 C1226 1.363 . S
C1224 H1240 0.931 . S
C1225 C1224 1.370 . S
C1225 C1229 1.408 . S
C1226 C1224 1.363 . S
C1226 C1227 1.370 . S
C1226 C1230 1.524 . S
C1227 C1219 1.503 . S
C1227 C1226 1.370 . S
C1227 C1228 1.403 . S
C1228 C1227 1.403 . S
C1228 C1229 1.404 . S
C1228 C1231 1.539 . S
C1229 C1225 1.408 . S
C1229 C1228 1.404 . S
C1229 H1241 0.930 . S
C1230 C1226 1.524 . S
C1230 H1242 0.956 . S
C1230 H1243 0.961 . S
C1230 H1244 0.961 . S
C1231 C1228 1.539 . S
C1231 H1245 0.958 . S
C1231 H1246 0.961 . S
C1231 H1247 0.960 . S
H1232 C1216 0.931 . S
H1233 C1221 0.929 . S
H1234 C1222 0.960 . S
H1235 C1222 0.962 . S
H1236 C1222 0.960 . S
H1237 C1223 0.961 . S
H1238 C1223 0.961 . S
H1239 C1223 0.961 . S
H1240 C1224 0.931 . S
H1241 C1229 0.930 . S
H1242 C1230 0.956 . S
H1243 C1230 0.961 . S
H1244 C1230 0.961 . S
H1245 C1231 0.958 . S
H1246 C1231 0.961 . S
H1247 C1231 0.960 . S
C225 C6 1.330 . S
C233 C176 1.353 . S
C257 C23 1.806 . S
C265 C79 1.827 . S
C289 C34 1.320 . S
C297 C204 1.341 . S
C321 C107 1.830 . S
C329 C51 1.819 . S
C353 C205 1.834 . S
C361 C36 1.822 . S
C385 C106 1.359 . S
C393 C49 1.339 . S
C417 C177 1.817 . S
C425 C8 1.831 . S
C449 C78 1.358 . S
C457 C21 1.348 . S
C481 C64 1.339 . S
C489 C118 1.341 . S
C513 C92 1.331 . S
C521 C146 1.327 . S
C545 C148 1.817 . S
C553 C93 1.829 . S
C577 C65 1.817 . S
C585 C120 1.819 . S
C609 C191 1.803 . S
C617 C135 1.830 . S
C641 C163 1.805 . S
C649 C219 1.825 . S
C673 C161 1.356 . S
C681 C218 1.351 . S
C705 C133 1.309 . S
C713 C190 1.344 . S
C737 C160 1.537 . S
C745 C7 1.566 . S
C769 C121 1.413 . S
C777 C22 1.421 1_565 S
C801 C35 1.536 . S
C809 C132 1.564 . S
C833 C149 1.411 . S
C841 C50 1.420 . S
C865 C162 1.395 . S
C873 C37 1.412 . S
C897 C48 1.565 . S
C905 C119 1.551 . S
C929 C134 1.410 . S
C937 C9 1.420 . S
C961 C147 1.574 . S
C969 C20 1.554 . S
C993 C62 1.374 . S
C1001 C216 1.381 . S
C1025 C175 1.555 . S
C1033 C77 1.535 . S
C1057 C90 1.361 . S
C1065 C188 1.367 . S
C1089 C105 1.554 . S
C1097 C203 1.535 . S
C1121 C91 1.533 . S
C1129 C217 1.557 . S
C1153 C174 1.379 . S
C1161 C104 1.367 . S
C1185 C189 1.516 . S
C1193 C63 1.552 . S
C1217 C202 1.373 . S
C1225 C76 1.366 . S
