# Generated by pormake.
# Topology wmi, (6)-cn, num edge types: 1
# Building blocks:
#     Node 0, Type 0, BuildingBlock: MIDCAF_clean_sbu_0, # of connection points: 6
#     Node 1, Type 0, BuildingBlock: MIDCAF_clean_sbu_0, # of connection points: 6
#     Node 2, Type 0, BuildingBlock: MIDCAF_clean_sbu_0, # of connection points: 6
#     Node 3, Type 0, BuildingBlock: MIDCAF_clean_sbu_0, # of connection points: 6
#     Node 4, Type 0, BuildingBlock: MIDCAF_clean_sbu_0, # of connection points: 6
#     Node 5, Type 0, BuildingBlock: MIDCAF_clean_sbu_0, # of connection points: 6
#     Node 6, Type 0, BuildingBlock: MIDCAF_clean_sbu_0, # of connection points: 6
#     Node 7, Type 0, BuildingBlock: MIDCAF_clean_sbu_0, # of connection points: 6
#     Node 8, Type 0, BuildingBlock: MIDCAF_clean_sbu_0, # of connection points: 6
#     Node 9, Type 0, BuildingBlock: MIDCAF_clean_sbu_0, # of connection points: 6
#     Node 10, Type 0, BuildingBlock: MIDCAF_clean_sbu_0, # of connection points: 6
#     Node 11, Type 0, BuildingBlock: MIDCAF_clean_sbu_0, # of connection points: 6
#     Node 12, Type 0, BuildingBlock: MIDCAF_clean_sbu_0, # of connection points: 6
#     Node 13, Type 0, BuildingBlock: MIDCAF_clean_sbu_0, # of connection points: 6
#     Node 14, Type 0, BuildingBlock: MIDCAF_clean_sbu_0, # of connection points: 6
#     Node 15, Type 0, BuildingBlock: MIDCAF_clean_sbu_0, # of connection points: 6
#     Node 16, Type 0, BuildingBlock: MIDCAF_clean_sbu_0, # of connection points: 6
#     Node 17, Type 0, BuildingBlock: MIDCAF_clean_sbu_0, # of connection points: 6
#     Edge 18, Type (0, 0), BuildingBlock: KIFKEQ_clean_linker_1, # of connection points: 2
#     Edge 19, Type (0, 0), BuildingBlock: KIFKEQ_clean_linker_1, # of connection points: 2
#     Edge 20, Type (0, 0), BuildingBlock: KIFKEQ_clean_linker_1, # of connection points: 2
#     Edge 21, Type (0, 0), BuildingBlock: KIFKEQ_clean_linker_1, # of connection points: 2
#     Edge 22, Type (0, 0), BuildingBlock: KIFKEQ_clean_linker_1, # of connection points: 2
#     Edge 23, Type (0, 0), BuildingBlock: KIFKEQ_clean_linker_1, # of connection points: 2
#     Edge 24, Type (0, 0), BuildingBlock: KIFKEQ_clean_linker_1, # of connection points: 2
#     Edge 25, Type (0, 0), BuildingBlock: KIFKEQ_clean_linker_1, # of connection points: 2
#     Edge 26, Type (0, 0), BuildingBlock: KIFKEQ_clean_linker_1, # of connection points: 2
#     Edge 27, Type (0, 0), BuildingBlock: KIFKEQ_clean_linker_1, # of connection points: 2
#     Edge 28, Type (0, 0), BuildingBlock: KIFKEQ_clean_linker_1, # of connection points: 2
#     Edge 29, Type (0, 0), BuildingBlock: KIFKEQ_clean_linker_1, # of connection points: 2
#     Edge 30, Type (0, 0), BuildingBlock: KIFKEQ_clean_linker_1, # of connection points: 2
#     Edge 31, Type (0, 0), BuildingBlock: KIFKEQ_clean_linker_1, # of connection points: 2
#     Edge 32, Type (0, 0), BuildingBlock: KIFKEQ_clean_linker_1, # of connection points: 2
#     Edge 33, Type (0, 0), BuildingBlock: KIFKEQ_clean_linker_1, # of connection points: 2
#     Edge 34, Type (0, 0), BuildingBlock: KIFKEQ_clean_linker_1, # of connection points: 2
#     Edge 35, Type (0, 0), BuildingBlock: KIFKEQ_clean_linker_1, # of connection points: 2
#     Edge 36, Type (0, 0), BuildingBlock: KIFKEQ_clean_linker_1, # of connection points: 2
#     Edge 37, Type (0, 0), BuildingBlock: KIFKEQ_clean_linker_1, # of connection points: 2
#     Edge 38, Type (0, 0), BuildingBlock: KIFKEQ_clean_linker_1, # of connection points: 2
#     Edge 39, Type (0, 0), BuildingBlock: KIFKEQ_clean_linker_1, # of connection points: 2
#     Edge 40, Type (0, 0), BuildingBlock: KIFKEQ_clean_linker_1, # of connection points: 2
#     Edge 41, Type (0, 0), BuildingBlock: KIFKEQ_clean_linker_1, # of connection points: 2
#     Edge 42, Type (0, 0), BuildingBlock: KIFKEQ_clean_linker_1, # of connection points: 2
#     Edge 43, Type (0, 0), BuildingBlock: KIFKEQ_clean_linker_1, # of connection points: 2
#     Edge 44, Type (0, 0), BuildingBlock: KIFKEQ_clean_linker_1, # of connection points: 2
#     Edge 45, Type (0, 0), BuildingBlock: KIFKEQ_clean_linker_1, # of connection points: 2
#     Edge 46, Type (0, 0), BuildingBlock: KIFKEQ_clean_linker_1, # of connection points: 2
#     Edge 47, Type (0, 0), BuildingBlock: KIFKEQ_clean_linker_1, # of connection points: 2
#     Edge 48, Type (0, 0), BuildingBlock: KIFKEQ_clean_linker_1, # of connection points: 2
#     Edge 49, Type (0, 0), BuildingBlock: KIFKEQ_clean_linker_1, # of connection points: 2
#     Edge 50, Type (0, 0), BuildingBlock: KIFKEQ_clean_linker_1, # of connection points: 2
#     Edge 51, Type (0, 0), BuildingBlock: KIFKEQ_clean_linker_1, # of connection points: 2
#     Edge 52, Type (0, 0), BuildingBlock: KIFKEQ_clean_linker_1, # of connection points: 2
#     Edge 53, Type (0, 0), BuildingBlock: KIFKEQ_clean_linker_1, # of connection points: 2
#     Edge 54, Type (0, 0), BuildingBlock: KIFKEQ_clean_linker_1, # of connection points: 2
#     Edge 55, Type (0, 0), BuildingBlock: KIFKEQ_clean_linker_1, # of connection points: 2
#     Edge 56, Type (0, 0), BuildingBlock: KIFKEQ_clean_linker_1, # of connection points: 2
#     Edge 57, Type (0, 0), BuildingBlock: KIFKEQ_clean_linker_1, # of connection points: 2
#     Edge 58, Type (0, 0), BuildingBlock: KIFKEQ_clean_linker_1, # of connection points: 2
#     Edge 59, Type (0, 0), BuildingBlock: KIFKEQ_clean_linker_1, # of connection points: 2
#     Edge 60, Type (0, 0), BuildingBlock: KIFKEQ_clean_linker_1, # of connection points: 2
#     Edge 61, Type (0, 0), BuildingBlock: KIFKEQ_clean_linker_1, # of connection points: 2
#     Edge 62, Type (0, 0), BuildingBlock: KIFKEQ_clean_linker_1, # of connection points: 2
#     Edge 63, Type (0, 0), BuildingBlock: KIFKEQ_clean_linker_1, # of connection points: 2
#     Edge 64, Type (0, 0), BuildingBlock: KIFKEQ_clean_linker_1, # of connection points: 2
#     Edge 65, Type (0, 0), BuildingBlock: KIFKEQ_clean_linker_1, # of connection points: 2
#     Edge 66, Type (0, 0), BuildingBlock: KIFKEQ_clean_linker_1, # of connection points: 2
#     Edge 67, Type (0, 0), BuildingBlock: KIFKEQ_clean_linker_1, # of connection points: 2
#     Edge 68, Type (0, 0), BuildingBlock: KIFKEQ_clean_linker_1, # of connection points: 2
#     Edge 69, Type (0, 0), BuildingBlock: KIFKEQ_clean_linker_1, # of connection points: 2
#     Edge 70, Type (0, 0), BuildingBlock: KIFKEQ_clean_linker_1, # of connection points: 2
#     Edge 71, Type (0, 0), BuildingBlock: KIFKEQ_clean_linker_1, # of connection points: 2
# Relax obj value: 0.342
# Max RMSD: 0.250
# Mean RMSD: 0.250
data_MOF--net-wmi--node1-MIDCAF_clean_sbu_0--edge1-KIFKEQ_clean_linker_1
_symmetry_space_group_name_H-M    P1
_symmetry_Int_Tables_number       1
_symmetry_cell_setting            triclinic
loop_
_symmetry_equiv_pos_as_xyz
'x, y, z'
_cell_length_a     28.723122
_cell_length_b     28.570263
_cell_length_c     90.995382
_cell_angle_alpha  89.671331
_cell_angle_beta   90.011812
_cell_angle_gamma 120.34518
loop_
_atom_site_label
_atom_site_type_symbol
_atom_site_fract_x
_atom_site_fract_y
_atom_site_fract_z
_atom_type_partial_charge
Zn0 Zn 0.51861 0.08043 0.11172 0.0
Zn1 Zn 0.44603 0.94617 0.07468 0.0
Zn2 Zn 0.47766 0.01939 0.09052 0.0
C3 C 0.48178 0.03449 0.05715 0.0
C4 C 0.51782 0.9344 0.09033 0.0
O5 O 0.42312 0.98512 0.11031 0.0
O6 O 0.48102 0.02737 0.12822 0.0
C7 C 0.48169 0.12817 0.09005 0.0
O8 O 0.46909 0.0505 0.06892 0.0
O9 O 0.48705 0.99323 0.0577 0.0
O10 O 0.47201 0.90135 0.08517 0.0
O11 O 0.53243 0.98507 0.09082 0.0
O12 O 0.48775 0.12534 0.10376 0.0
O13 O 0.4829 0.09325 0.08145 0.0
O14 O 0.56248 0.03975 0.09224 0.0
O15 O 0.59694 0.10925 0.10741 0.0
C16 C 0.60378 0.08096 0.098 0.0
O17 O 0.39585 0.9582 0.09792 0.0
O18 O 0.36831 0.92455 0.07587 0.0
C19 C 0.43486 0.99064 0.12414 0.0
C20 C 0.35722 0.9301 0.08891 0.0
Zn21 Zn 0.96962 0.41679 0.10829 0.0
Zn22 Zn 0.12968 0.52149 0.0719 0.0
Zn23 Zn 0.04773 0.46658 0.08952 0.0
C24 C 0.05986 0.43365 0.0555 0.0
C25 C 0.09048 0.5897 0.07947 0.0
O26 O 0.07686 0.44006 0.10911 0.0
O27 O 0.0037 0.391 0.12259 0.0
C28 C 0.94076 0.35874 0.08147 0.0
O29 O 0.03102 0.42542 0.0672 0.0
O30 O 0.10789 0.47254 0.05507 0.0
O31 O 0.12298 0.58759 0.07051 0.0
O32 O 0.05943 0.54812 0.08744 0.0
O33 O 0.92197 0.36295 0.09361 0.0
O34 O 0.98947 0.39338 0.07765 0.0
O35 O 0.01148 0.51735 0.09549 0.0
O36 O 0.95562 0.47538 0.11403 0.0
C37 C 0.97834 0.5154 0.10537 0.0
O38 O 0.12092 0.47947 0.10096 0.0
O39 O 0.18698 0.52705 0.08508 0.0
C40 C 0.05334 0.40947 0.1204 0.0
C41 C 0.17139 0.50524 0.09756 0.0
Zn42 Zn 0.60782 0.54225 0.12949 0.0
Zn43 Zn 0.5924 0.70059 0.09133 0.0
Zn44 Zn 0.6132 0.61552 0.11258 0.0
C45 C 0.55427 0.59332 0.0795 0.0
C46 C 0.53157 0.66012 0.11997 0.0
O47 O 0.57494 0.61372 0.13431 0.0
O48 O 0.57802 0.5519 0.14815 0.0
C49 C 0.719 0.6198 0.12258 0.0
O50 O 0.57746 0.58301 0.09026 0.0
O51 O 0.55127 0.63618 0.07905 0.0
O52 O 0.54549 0.69269 0.10912 0.0
O53 O 0.55418 0.63171 0.12243 0.0
O54 O 0.68801 0.57444 0.12863 0.0
O55 O 0.69919 0.64622 0.11632 0.0
O56 O 0.58293 0.54112 0.0989 0.0
O57 O 0.56413 0.47967 0.11631 0.0
C58 C 0.5637 0.49132 0.10291 0.0
O59 O 0.69046 0.69112 0.11229 0.0
O60 O 0.66106 0.69791 0.0915 0.0
C61 C 0.56799 0.58994 0.14689 0.0
C62 C 0.69039 0.72227 0.10226 0.0
Zn63 Zn 0.06461 0.48397 0.90625 0.0
Zn64 Zn 0.88551 0.39636 0.93143 0.0
Zn65 Zn 0.97741 0.43959 0.91784 0.0
C66 C 0.94987 0.3835 0.95119 0.0
C67 C 0.91492 0.50346 0.92549 0.0
O68 O 0.96931 0.40861 0.89464 0.0
O69 O 0.04286 0.4779 0.88533 0.0
C70 C 0.06305 0.40832 0.92542 0.0
O71 O 0.98284 0.40596 0.94023 0.0
O72 O 0.90182 0.37318 0.95013 0.0
O73 O 0.87738 0.46129 0.93149 0.0
O74 O 0.95645 0.50351 0.92016 0.0
O75 O 0.08345 0.42981 0.91318 0.0
O76 O 0.02545 0.41456 0.93101 0.0
O77 O 0.01167 0.52911 0.91801 0.0
O78 O 0.09799 0.55595 0.9161 0.0
C79 C 0.06147 0.5669 0.9188 0.0
O80 O 0.91992 0.3787 0.90245 0.0
O81 O 0.84591 0.34148 0.91615 0.0
C82 C -0.00113 0.43426 0.88335 0.0
C83 C 0.86977 0.34329 0.90434 0.0
Zn84 Zn 0.56441 0.47442 0.9495 0.0
Zn85 Zn 0.48208 0.60082 0.92513 0.0
Zn86 Zn 0.52513 0.53578 0.93915 0.0
C87 C 0.40087 0.48828 0.92897 0.0
C88 C 0.53155 0.64376 0.95622 0.0
O89 O 0.59918 0.55342 0.92685 0.0
O90 O 0.62378 0.49629 0.93536 0.0
C91 C 0.4564 0.40393 0.94171 0.0
O92 O 0.43958 0.48238 0.93404 0.0
O93 O 0.40888 0.53401 0.9246 0.0
O94 O 0.52023 0.60937 0.94608 0.0
O95 O 0.52101 0.60813 0.94633 0.0
O96 O 0.49675 0.404 0.94726 0.0
O97 O 0.45962 0.449 0.93783 0.0
O98 O 0.54365 0.55164 0.96264 0.0
O99 O 0.58258 0.50553 0.96948 0.0
C100 C 0.56557 0.53729 0.97256 0.0
O101 O 0.57131 0.57295 0.91851 0.0
O102 O 0.52779 0.6094 0.90739 0.0
C103 C 0.63159 0.53458 0.92685 0.0
C104 C 0.56405 0.59652 0.90729 0.0
Zn105 Zn 0.39004 0.92673 0.90405 0.0
Zn106 Zn 0.4705 0.10446 0.92116 0.0
Zn107 Zn 0.41948 0.0115 0.91643 0.0
C108 C 0.46494 0.05543 0.94775 0.0
C109 C 0.53371 0.09703 0.9017 0.0
O110 O 0.44107 0.02303 0.89226 0.0
O111 O 0.39045 0.94209 0.88267 0.0
C112 C 0.30021 0.92454 0.91715 0.0
O113 O 0.45315 0.01609 0.93882 0.0
O114 O 0.46845 0.0986 0.94289 0.0
O115 O 0.54151 0.12881 0.91214 0.0
O116 O 0.487 0.05415 0.9001 0.0
O117 O 0.31806 0.89384 0.91358 0.0
O118 O 0.33187 0.97612 0.91738 0.0
O119 O 0.445 0.96713 0.93129 0.0
O120 O 0.4471 0.91638 0.91338 0.0
C121 C 0.45865 0.93349 0.92642 0.0
O122 O 0.35859 0.0362 0.9189 0.0
O123 O 0.41707 0.11789 0.91082 0.0
C124 C 0.41994 0.99257 0.88086 0.0
C125 C 0.3689 0.08275 0.91395 0.0
Zn126 Zn 0.19809 0.45198 0.4316 0.0
Zn127 Zn 0.1028 0.33502 0.39344 0.0
Zn128 Zn 0.15485 0.38782 0.41215 0.0
C129 C 0.189 0.40414 0.37999 0.0
C130 C 0.14616 0.28412 0.41213 0.0
O131 O 0.12163 0.33902 0.43304 0.0
O132 O 0.15852 0.40613 0.44905 0.0
C133 C 0.13798 0.48308 0.41204 0.0
O134 O 0.20378 0.39493 0.39251 0.0
O135 O 0.14116 0.39456 0.37856 0.0
O136 O 0.1395 0.2895 0.39856 0.0
O137 O 0.13336 0.3099 0.42135 0.0
O138 O 0.17164 0.49977 0.42251 0.0
O139 O 0.12231 0.43689 0.4064 0.0
O140 O 0.237 0.41188 0.40628 0.0
O141 O 0.26999 0.45975 0.42645 0.0
C142 C 0.27686 0.43974 0.41484 0.0
O143 O 0.08067 0.31455 0.42074 0.0
O144 O 0.02976 0.31185 0.40232 0.0
C145 C 0.12741 0.35643 0.44642 0.0
C146 C 0.03339 0.2969 0.41518 0.0
Zn147 Zn 0.76889 0.86548 0.44414 0.0
Zn148 Zn 0.58892 0.77809 0.45303 0.0
Zn149 Zn 0.67915 0.82215 0.44368 0.0
C150 C 0.6058 0.87151 0.43689 0.0
C151 C 0.60094 0.71152 0.43107 0.0
O152 O 0.71016 0.77021 0.43554 0.0
O153 O 0.76504 0.8007 0.4542 0.0
C154 C 0.74812 0.94485 0.44793 0.0
O155 O 0.65095 0.87436 0.4337 0.0
O156 O 0.57346 0.83601 0.4459 0.0
O157 O 0.56717 0.71507 0.43923 0.0
O158 O 0.65073 0.74847 0.43132 0.0
O159 O 0.77548 0.92966 0.45533 0.0
O160 O 0.71076 0.90999 0.43951 0.0
O161 O 0.69825 0.87862 0.425 0.0
O162 O 0.7672 0.86763 0.42083 0.0
C163 C 0.73217 0.87803 0.41575 0.0
O164 O 0.69343 0.82429 0.46716 0.0
O165 O 0.60926 0.77403 0.47424 0.0
C166 C 0.74421 0.76658 0.44397 0.0
C167 C 0.65902 0.79916 0.47737 0.0
Zn168 Zn 0.18817 0.97852 0.40303 0.0
Zn169 Zn 0.22894 0.87001 0.42974 0.0
Zn170 Zn 0.22006 0.93279 0.41555 0.0
C171 C 0.16709 0.81678 0.40635 0.0
C172 C 0.32984 0.94918 0.42028 0.0
O173 O 0.28472 0.01645 0.41915 0.0
O174 O 0.21729 0.03213 0.41909 0.0
C175 C 0.10019 0.89334 0.41608 0.0
O176 O 0.19918 0.86423 0.40101 0.0
O177 O 0.16259 0.81051 0.42014 0.0
O178 O 0.30246 0.89792 0.42078 0.0
O179 O 0.30566 0.97653 0.42111 0.0
O180 O 0.11165 0.9178 0.40385 0.0
O181 O 0.13891 0.90297 0.42499 0.0
O182 O 0.21083 0.91055 0.39198 0.0
O183 O 0.22977 0.99126 0.38437 0.0
C184 C 0.22432 0.94557 0.38151 0.0
O185 O 0.17562 0.92632 0.43616 0.0
O186 O 0.22819 0.90535 0.44851 0.0
C187 C 0.26518 0.04665 0.42264 0.0
C188 C 0.19829 0.92587 0.44836 0.0
Zn189 Zn 0.5663 0.74499 0.29165 0.0
Zn190 Zn 0.73333 0.82256 0.26424 0.0
Zn191 Zn 0.65393 0.78838 0.27676 0.0
C192 C 0.73697 0.91062 0.2755 0.0
C193 C 0.73773 0.7523 0.28129 0.0
O194 O 0.6326 0.70373 0.28134 0.0
O195 O 0.55284 0.66944 0.29202 0.0
C196 C 0.54617 0.77739 0.26423 0.0
O197 O 0.70875 0.87306 0.28501 0.0
O198 O 0.7463 0.89719 0.26316 0.0
O199 O 0.77106 0.80214 0.27938 0.0
O200 O 0.68763 0.7347 0.27866 0.0
O201 O 0.52479 0.76068 0.27674 0.0
O202 O 0.59457 0.78807 0.26172 0.0
O203 O 0.67371 0.84098 0.29689 0.0
O204 O 0.59771 0.7913 0.3092 0.0
C205 C 0.64546 0.83104 0.30879 0.0
O206 O 0.63352 0.78668 0.25292 0.0
O207 O 0.70043 0.77431 0.24686 0.0
C208 C 0.58924 0.66268 0.28644 0.0
C209 C 0.6559 0.77038 0.24354 0.0
Zn210 Zn 0.14425 0.75553 0.26025 0.0
Zn211 Zn 0.11002 0.84892 0.22513 0.0
Zn212 Zn 0.14817 0.81265 0.24288 0.0
C213 C 0.02468 0.76282 0.24124 0.0
C214 C 0.18616 0.93161 0.24588 0.0
O215 O 0.20671 0.79315 0.23429 0.0
O216 O 0.22652 0.78903 0.2574 0.0
C217 C 0.11145 0.69784 0.235 0.0
O218 O 0.06536 0.76451 0.24721 0.0
O219 O 0.03161 0.79545 0.23085 0.0
O220 O 0.15454 0.92291 0.23515 0.0
O221 O 0.19049 0.89274 0.2514 0.0
O222 O 0.09464 0.69185 0.2481 0.0
O223 O 0.14835 0.74536 0.23062 0.0
O224 O 0.1822 0.85409 0.2644 0.0
O225 O 0.11864 0.78341 0.27625 0.0
C226 C 0.15574 0.83254 0.27638 0.0
O227 O 0.1871 0.81169 0.22179 0.0
O228 O 0.14349 0.83781 0.20695 0.0
C229 C 0.24086 0.7968 0.24402 0.0
C230 C 0.17883 0.82431 0.2088 0.0
Zn231 Zn 0.11805 0.22932 0.23493 0.0
Zn232 Zn 0.21675 0.4104 0.24269 0.0
Zn233 Zn 0.16255 0.3188 0.24483 0.0
C234 C 0.20918 0.38345 0.27259 0.0
C235 C 0.28801 0.37847 0.2464 0.0
O236 O 0.18318 0.33369 0.22187 0.0
O237 O 0.13378 0.25117 0.21347 0.0
C238 C 0.04056 0.23945 0.25182 0.0
O239 O 0.2074 0.34302 0.26578 0.0
O240 O 0.20682 0.41935 0.26492 0.0
O241 O 0.28403 0.40764 0.23652 0.0
O242 O 0.24505 0.34519 0.25361 0.0
O243 O 0.04563 0.20653 0.2437 0.0
O244 O 0.08045 0.28785 0.25343 0.0
O245 O 0.20137 0.28841 0.25944 0.0
O246 O 0.16374 0.21017 0.2476 0.0
C247 C 0.1935 0.24021 0.25785 0.0
O248 O 0.10748 0.35043 0.24589 0.0
O249 O 0.16137 0.40847 0.2292 0.0
C250 C 0.16454 0.30135 0.21103 0.0
C251 C 0.11536 0.38338 0.23522 0.0
Zn252 Zn 0.72968 0.60406 0.77698 0.0
Zn253 Zn 0.80182 0.77714 0.78715 0.0
Zn254 Zn 0.77073 0.69413 0.77571 0.0
C255 C 0.88832 0.78146 0.77043 0.0
C256 C 0.73345 0.77123 0.76399 0.0
O257 O 0.68993 0.66348 0.76634 0.0
O258 O 0.66072 0.60204 0.78382 0.0
C259 C 0.8309 0.63476 0.78173 0.0
O260 O 0.85453 0.73075 0.76901 0.0
O261 O 0.87552 0.81056 0.77788 0.0
O262 O 0.75124 0.79395 0.77627 0.0
O263 O 0.73705 0.72948 0.76056 0.0
O264 O 0.78911 0.60667 0.7895 0.0
O265 O 0.83143 0.67012 0.77281 0.0
O266 O 0.72966 0.67057 0.754 0.0
O267 O 0.73625 0.59736 0.75437 0.0
C268 C 0.73055 0.63182 0.74692 0.0
O269 O 0.74398 0.67474 0.7986 0.0
O270 O 0.78852 0.75536 0.80846 0.0
C271 C 0.65039 0.62741 0.77408 0.0
C272 C 0.75736 0.7048 0.80998 0.0
Zn273 Zn 0.30936 0.15343 0.76895 0.0
Zn274 Zn 0.43886 0.1963 0.73454 0.0
Zn275 Zn 0.36488 0.15418 0.75133 0.0
C276 C 0.34822 0.12532 0.71772 0.0
C277 C 0.42629 0.27822 0.74786 0.0
O278 O 0.3752 0.11812 0.77162 0.0
O279 O 0.36461 0.17564 0.78513 0.0
C280 C 0.25589 0.055 0.7535 0.0
O281 O 0.32344 0.1199 0.73002 0.0
O282 O 0.39893 0.15469 0.71704 0.0
O283 O 0.4504 0.27187 0.73711 0.0
O284 O 0.39462 0.23769 0.7558 0.0
O285 O 0.26254 0.07111 0.76667 0.0
O286 O 0.28579 0.08896 0.74344 0.0
O287 O 0.29567 0.14535 0.73875 0.0
O288 O 0.29085 0.1992 0.75522 0.0
C289 C 0.28114 0.17973 0.74234 0.0
O290 O 0.41038 0.11676 0.75855 0.0
O291 O 0.48187 0.16858 0.74483 0.0
C292 C 0.37887 0.14033 0.78417 0.0
C293 C 0.45828 0.13117 0.75429 0.0
Zn294 Zn 0.87468 0.30051 0.73505 0.0
Zn295 Zn 0.96889 0.23348 0.7591 0.0
Zn296 Zn 0.91797 0.26139 0.74643 0.0
C297 C 0.88313 0.13904 0.74832 0.0
C298 C 0.03131 0.28584 0.73627 0.0
O299 O 0.92987 0.33452 0.75889 0.0
O300 O 0.92189 0.3781 0.73994 0.0
C301 C 0.7993 0.21108 0.75176 0.0
O302 O 0.86416 0.17149 0.74814 0.0
O303 O 0.93227 0.15797 0.75141 0.0
O304 O 0.03935 0.28621 0.74992 0.0
O305 O 0.98357 0.27145 0.73169 0.0
O306 O 0.80953 0.25775 0.74776 0.0
O307 O 0.83423 0.19652 0.74932 0.0
O308 O 0.94707 0.28248 0.72295 0.0
O309 O 0.87571 0.28309 0.7143 0.0
C310 C 0.91983 0.28479 0.71195 0.0
O311 O 0.94326 0.30445 0.76834 0.0
O312 O 0.95575 0.24374 0.77982 0.0
C313 C 0.93453 0.37823 0.7532 0.0
C314 C 0.9502 0.28472 0.78043 0.0
Zn315 Zn 0.3798 0.13093 0.56378 0.0
Zn316 Zn 0.20073 0.02022 0.58936 0.0
Zn317 Zn 0.29581 0.06545 0.57947 0.0
C318 C 0.26144 0.08929 0.61133 0.0
C319 C 0.18605 0.05791 0.56473 0.0
O320 O 0.28027 0.07923 0.55587 0.0
O321 O 0.35451 0.13701 0.54392 0.0
C322 C 0.38339 0.03469 0.57229 0.0
O323 O 0.29809 0.10178 0.6014 0.0
O324 O 0.21323 0.05376 0.60869 0.0
O325 O 0.1565 0.03301 0.57559 0.0
O326 O 0.23599 0.07037 0.56462 0.0
O327 O 0.4071 0.07967 0.56556 0.0
O328 O 0.33733 0.01828 0.5785 0.0
O329 O 0.34576 0.138 0.59336 0.0
O330 O 0.41061 0.19205 0.57789 0.0
C331 C 0.38895 0.18343 0.59045 0.0
O332 O 0.28035 0.982 0.58326 0.0
O333 O 0.19407 0.94893 0.58859 0.0
C334 C 0.30439 0.10394 0.54381 0.0
C335 C 0.23322 0.94162 0.58628 0.0
Zn336 Zn 0.84144 0.25844 0.55873 0.0
Zn337 Zn 0.92089 0.15484 0.58614 0.0
Zn338 Zn 0.87948 0.20394 0.57227 0.0
C339 C 0.94011 0.2343 0.60503 0.0
C340 C 0.8109 0.0803 0.58217 0.0
O341 O 0.91547 0.22692 0.54958 0.0
O342 O 0.87027 0.26124 0.53869 0.0
C343 C 0.90464 0.3208 0.5824 0.0
O344 O 0.91528 0.243 0.59441 0.0
O345 O 0.9504 0.1965 0.60405 0.0
O346 O 0.8529 0.08449 0.58786 0.0
O347 O 0.81218 0.12116 0.57577 0.0
O348 O 0.88277 0.32432 0.57074 0.0
O349 O 0.90412 0.27668 0.5857 0.0
O350 O 0.78947 0.15199 0.57159 0.0
O351 O 0.76363 0.20868 0.56375 0.0
C352 C 0.75179 0.16272 0.56883 0.0
O353 O 0.93858 0.20039 0.55709 0.0
O354 O 0.97282 0.1618 0.57117 0.0
C355 C 0.90528 0.24698 0.53806 0.0
C356 C 0.9716 0.18287 0.55909 0.0
Zn357 Zn 0.81577 0.72854 0.62168 0.0
Zn358 Zn 0.73662 0.57585 0.5837 0.0
Zn359 Zn 0.76924 0.64539 0.60418 0.0
C360 C 0.82965 0.5822 0.59353 0.0
C361 C 0.66052 0.53604 0.60738 0.0
O362 O 0.75571 0.70887 0.59507 0.0
O363 O 0.78443 0.77007 0.61279 0.0
C364 C 0.89944 0.71673 0.61106 0.0
O365 O 0.83058 0.62187 0.60045 0.0
O366 O 0.79027 0.55209 0.5854 0.0
O367 O 0.66535 0.53147 0.59373 0.0
O368 O 0.69899 0.57516 0.61457 0.0
O369 O 0.89285 0.75066 0.61825 0.0
O370 O 0.85792 0.67419 0.60581 0.0
O371 O 0.72621 0.61577 0.62587 0.0
O372 O 0.77978 0.68679 0.63958 0.0
C373 C 0.74009 0.63923 0.63851 0.0
O374 O 0.74587 0.67449 0.58339 0.0
O375 O 0.74078 0.61833 0.56605 0.0
C376 C 0.76106 0.75265 0.60063 0.0
C377 C 0.74058 0.66073 0.56967 0.0
H378 H 0.62872 0.98859 0.09146 0.0
H379 H 0.48704 0.83437 0.10136 0.0
H380 H 0.68612 0.95168 0.09878 0.0
H381 H 0.54409 0.79792 0.10872 0.0
H382 H 0.64936 0.74346 0.12696 0.0
H383 H 0.61562 0.80689 0.12743 0.0
H384 H 0.69693 0.87676 0.08634 0.0
H385 H 0.7293 0.81271 0.08573 0.0
C386 C 0.60988 0.94729 0.09548 0.0
C387 C 0.55337 0.91436 0.09576 0.0
C388 C 0.64271 0.92616 0.09966 0.0
C389 C 0.61959 0.87205 0.10451 0.0
C390 C 0.56312 0.84 0.10534 0.0
C391 C 0.53044 0.86072 0.10092 0.0
C392 C 0.66231 0.77422 0.11844 0.0
C393 C 0.69157 0.77293 0.10623 0.0
C394 C 0.64251 0.81017 0.11862 0.0
C395 C 0.65285 0.84613 0.10677 0.0
C396 C 0.68828 0.84965 0.09562 0.0
C397 C 0.70712 0.81313 0.09531 0.0
H398 H 0.27083 0.92791 0.07646 0.0
H399 H 0.31725 0.85725 0.11134 0.0
H400 H 0.17878 0.85112 0.07753 0.0
H401 H 0.22617 0.77942 0.11211 0.0
H402 H 0.0836 0.62797 0.10622 0.0
H403 H 0.12868 0.72347 0.11293 0.0
H404 H 0.16255 0.76772 0.06702 0.0
H405 H 0.11671 0.67283 0.06044 0.0
C406 C 0.26053 0.89698 0.08482 0.0
C407 C 0.30083 0.89776 0.09369 0.0
C408 C 0.20796 0.85289 0.08538 0.0
C409 C 0.19551 0.8082 0.09452 0.0
C410 C 0.23414 0.81294 0.10489 0.0
C411 C 0.28658 0.85758 0.10448 0.0
C412 C 0.09788 0.65815 0.09753 0.0
C413 C 0.09732 0.64319 0.08281 0.0
C414 C 0.12433 0.71295 0.1014 0.0
C415 C 0.15051 0.75338 0.09059 0.0
C416 C 0.14297 0.73799 0.0757 0.0
C417 C 0.11686 0.68339 0.07187 0.0
H418 H 0.2332 0.45911 0.10105 0.0
H419 H 0.20395 0.58216 0.11826 0.0
H420 H 0.31702 0.497 0.11497 0.0
H421 H 0.28773 0.62033 0.13239 0.0
H422 H 0.4758 0.71447 0.11997 0.0
H423 H 0.37841 0.67076 0.12158 0.0
H424 H 0.3702 0.5245 0.13785 0.0
H425 H 0.46732 0.5675 0.13586 0.0
C426 C 0.24383 0.49293 0.10832 0.0
C427 C 0.21255 0.51771 0.10874 0.0
C428 C 0.2916 0.51458 0.11638 0.0
C429 C 0.30919 0.56195 0.12476 0.0
C430 C 0.27539 0.58405 0.126 0.0
C431 C 0.22753 0.56222 0.11797 0.0
C432 C 0.4536 0.67385 0.12451 0.0
C433 C 0.4795 0.64414 0.1273 0.0
C434 C 0.3975 0.64868 0.1255 0.0
C435 C 0.3665 0.59347 0.12937 0.0
C436 C 0.39305 0.56669 0.13449 0.0
C437 C 0.44912 0.59183 0.13349 0.0
H438 H 0.89081 0.55847 0.94523 0.0
H439 H 0.91314 0.54516 0.89893 0.0
H440 H 0.83693 0.59996 0.93969 0.0
H441 H 0.85763 0.58551 0.89324 0.0
H442 H 0.71519 0.63476 0.93203 0.0
H443 H 0.80956 0.66281 0.92719 0.0
H444 H 0.75768 0.52218 0.89976 0.0
H445 H 0.66396 0.49412 0.90486 0.0
C446 C 0.88663 0.56736 0.93387 0.0
C447 C 0.90537 0.54834 0.9225 0.0
C448 C 0.85588 0.59131 0.93064 0.0
C449 C 0.84217 0.59496 0.916 0.0
C450 C 0.8674 0.58291 0.90461 0.0
C451 C 0.89921 0.55995 0.90786 0.0
C452 C 0.72427 0.61173 0.9243 0.0
C453 C 0.68287 0.56221 0.91886 0.0
C454 C 0.77817 0.62775 0.92154 0.0
C455 C 0.79096 0.59425 0.91332 0.0
C456 C 0.74922 0.54906 0.90609 0.0
C457 C 0.69544 0.5327 0.90903 0.0
H458 H 0.35488 0.1452 0.89414 0.0
H459 H 0.29995 0.06851 0.93648 0.0
H460 H 0.34263 0.21898 0.90169 0.0
H461 H 0.28439 0.14132 0.94401 0.0
H462 H 0.41881 0.31421 0.95864 0.0
H463 H 0.35837 0.22208 0.95127 0.0
H464 H 0.32078 0.28003 0.91149 0.0
H465 H 0.38434 0.37334 0.9188 0.0
C466 C 0.33654 0.14234 0.90477 0.0
C467 C 0.33052 0.1025 0.91494 0.0
C468 C 0.32952 0.18506 0.90919 0.0
C469 C 0.31571 0.18814 0.92386 0.0
C470 C 0.29787 0.14173 0.93288 0.0
C471 C 0.30572 0.09924 0.92848 0.0
C472 C 0.39647 0.30734 0.9485 0.0
C473 C 0.40734 0.35083 0.93912 0.0
C474 C 0.36092 0.2541 0.94429 0.0
C475 C 0.33533 0.24282 0.9305 0.0
C476 C 0.34083 0.28688 0.922 0.0
C477 C 0.37687 0.34052 0.92624 0.0
H478 H 0.61091 0.07358 0.90757 0.0
H479 H 0.5618 0.15117 0.87544 0.0
H480 H 0.70292 0.1259 0.89897 0.0
H481 H 0.65339 0.20091 0.86577 0.0
H482 H 0.79991 0.35263 0.88686 0.0
H483 H 0.71898 0.27684 0.87713 0.0
H484 H 0.78302 0.17124 0.88629 0.0
H485 H 0.86333 0.24811 0.89688 0.0
C486 C 0.61943 0.09945 0.898 0.0
C487 C 0.57961 0.1087 0.89222 0.0
C488 C 0.67247 0.12961 0.89294 0.0
C489 C 0.68656 0.16971 0.88197 0.0
C490 C 0.64458 0.17204 0.8746 0.0
C491 C 0.59166 0.14275 0.87995 0.0
C492 C 0.79766 0.31368 0.88611 0.0
C493 C 0.83702 0.3057 0.89276 0.0
C494 C 0.75106 0.26974 0.88046 0.0
C495 C 0.74297 0.21684 0.88146 0.0
C496 C 0.7868 0.2109 0.88587 0.0
C497 C 0.83319 0.25496 0.89177 0.0
H498 H 0.25469 0.082 0.4492 0.0
H499 H 0.34014 0.13651 0.40812 0.0
H500 H 0.23627 0.15571 0.44869 0.0
H501 H 0.32324 0.21188 0.40766 0.0
H502 H 0.17519 0.22571 0.39494 0.0
H503 H 0.23198 0.1886 0.40122 0.0
H504 H 0.24376 0.24418 0.44587 0.0
H505 H 0.18568 0.28132 0.43952 0.0
C506 C 0.27372 0.11247 0.44067 0.0
C507 C 0.29656 0.10199 0.42835 0.0
C508 C 0.26206 0.15444 0.44021 0.0
C509 C 0.27542 0.18772 0.42767 0.0
C510 C 0.31017 0.18522 0.41717 0.0
C511 C 0.32132 0.14283 0.41763 0.0
C512 C 0.18953 0.2299 0.40613 0.0
C513 C 0.17538 0.25606 0.41674 0.0
C514 C 0.22316 0.20952 0.40969 0.0
C515 C 0.24387 0.21464 0.42398 0.0
C516 C 0.22899 0.23999 0.43473 0.0
C517 C 0.19523 0.26069 0.43113 0.0
H518 H 0.92856 0.26808 0.40995 0.0
H519 H 0.0277 0.22881 0.43706 0.0
H520 H 0.84744 0.19079 0.42036 0.0
H521 H 0.94732 0.15206 0.4474 0.0
H522 H 0.74276 0.99838 0.42363 0.0
H523 H 0.80602 0.09317 0.41775 0.0
H524 H 0.86698 0.11908 0.46218 0.0
H525 H 0.80497 0.02378 0.46786 0.0
C526 C 0.93298 0.24344 0.4183 0.0
C527 C 0.98448 0.25457 0.42273 0.0
C528 C 0.88655 0.19921 0.42424 0.0
C529 C 0.89075 0.16525 0.43473 0.0
C530 C 0.94238 0.1779 0.43957 0.0
C531 C 0.98864 0.22187 0.43359 0.0
C532 C 0.76818 0.02483 0.43229 0.0
C533 C 0.76994 0.0036 0.4461 0.0
C534 C 0.80458 0.07928 0.42893 0.0
C535 C 0.84271 0.11328 0.43939 0.0
C536 C 0.83925 0.0935 0.45376 0.0
C537 C 0.80339 0.03907 0.45706 0.0
H538 H 0.05667 0.81172 0.43698 0.0
H539 H 0.01379 0.88869 0.40288 0.0
H540 H 0.96063 0.74912 0.44195 0.0
H541 H 0.91972 0.82921 0.40809 0.0
H542 H 0.75682 0.7387 0.41605 0.0
H543 H 0.84106 0.74637 0.40781 0.0
H544 H 0.88878 0.75016 0.45307 0.0
H545 H 0.80319 0.7379 0.4611 0.0
C546 C 0.02678 0.81541 0.43063 0.0
C547 C 0.04279 0.85554 0.41968 0.0
C548 C 0.97173 0.7794 0.43338 0.0
C549 C 0.93172 0.78335 0.42536 0.0
C550 C 0.94849 0.82313 0.41425 0.0
C551 C 0.00296 0.85828 0.41142 0.0
C552 C 0.78382 0.73764 0.42419 0.0
C553 C 0.77472 0.74036 0.43922 0.0
C554 C 0.83285 0.74331 0.4195 0.0
C555 C 0.87356 0.75293 0.42978 0.0
C556 C 0.85948 0.74446 0.44475 0.0
C557 C 0.80999 0.73731 0.4494 0.0
H558 H 0.26742 0.75181 0.22149 0.0
H559 H 0.33421 0.86388 0.25754 0.0
H560 H 0.35375 0.75411 0.21861 0.0
H561 H 0.42029 0.86799 0.25436 0.0
H562 H 0.56869 0.86992 0.24981 0.0
H563 H 0.50189 0.88521 0.23721 0.0
H564 H 0.38542 0.71404 0.24048 0.0
H565 H 0.45141 0.69942 0.2534 0.0
C566 C 0.30118 0.77834 0.2284 0.0
C567 C 0.29443 0.80677 0.23993 0.0
C568 C 0.35042 0.77994 0.2267 0.0
C569 C 0.39356 0.81134 0.23623 0.0
C570 C 0.388 0.84404 0.24673 0.0
C571 C 0.33862 0.84118 0.24869 0.0
C572 C 0.52953 0.83547 0.24721 0.0
C573 C 0.51437 0.78374 0.25268 0.0
C574 C 0.49151 0.84412 0.23999 0.0
C575 C 0.43855 0.80083 0.23799 0.0
C576 C 0.42605 0.74801 0.24176 0.0
C577 C 0.46355 0.73965 0.24926 0.0
H578 H 0.17056 0.66836 0.21778 0.0
H579 H 0.01007 0.61349 0.23421 0.0
H580 H 0.14571 0.57399 0.21343 0.0
H581 H 0.98578 0.51948 0.23027 0.0
H582 H 0.09472 0.40346 0.20781 0.0
H583 H 0.07643 0.47593 0.20182 0.0
H584 H 0.03628 0.48126 0.24723 0.0
H585 H 0.05642 0.40987 0.25333 0.0
C586 C 0.12928 0.63643 0.21969 0.0
C587 C 0.09246 0.64788 0.22649 0.0
C588 C 0.11502 0.58238 0.21731 0.0
C589 C 0.06405 0.53962 0.22179 0.0
C590 C 0.02532 0.55167 0.22685 0.0
C591 C 0.03927 0.60544 0.22902 0.0
C592 C 0.07914 0.41812 0.21637 0.0
C593 C 0.07779 0.40189 0.23108 0.0
C594 C 0.06917 0.45987 0.21293 0.0
C595 C 0.05613 0.48477 0.2241 0.0
C596 C 0.04634 0.46258 0.23841 0.0
C597 C 0.05728 0.42129 0.24191 0.0
H598 H 0.59461 0.63159 0.259 0.0
H599 H 0.54435 0.56939 0.30289 0.0
H600 H 0.53129 0.54497 0.24899 0.0
H601 H 0.48502 0.47953 0.29319 0.0
H602 H 0.31589 0.37918 0.27488 0.0
H603 H 0.40387 0.4336 0.28513 0.0
H604 H 0.4728 0.46572 0.24122 0.0
H605 H 0.38249 0.4158 0.23116 0.0
C606 C 0.57213 0.59805 0.26656 0.0
C607 C 0.57335 0.60743 0.28169 0.0
C608 C 0.53486 0.54748 0.2608 0.0
C609 C 0.49898 0.50439 0.27012 0.0
C610 C 0.50815 0.51185 0.28543 0.0
C611 C 0.5436 0.56325 0.29114 0.0
C612 C 0.35 0.39717 0.26746 0.0
C613 C 0.34212 0.39482 0.25224 0.0
C614 C 0.40156 0.42882 0.27336 0.0
C615 C 0.44721 0.45777 0.26415 0.0
C616 C 0.43943 0.44788 0.24887 0.0
C617 C 0.38742 0.41809 0.24299 0.0
H618 H 0.89312 0.64218 0.75819 0.0
H619 H 0.85803 0.58594 0.80313 0.0
H620 H 0.93616 0.58863 0.7544 0.0
H621 H 0.90335 0.53413 0.79964 0.0
H622 H 0.88077 0.37628 0.77782 0.0
H623 H 0.87396 0.45171 0.78752 0.0
H624 H -6e-05 0.5613 0.75771 0.0
H625 H 0.00476 0.48471 0.74768 0.0
C626 C 0.89676 0.62024 0.76745 0.0
C627 C 0.87147 0.61753 0.78088 0.0
C628 C 0.92158 0.58939 0.76531 0.0
C629 C 0.92224 0.55575 0.77663 0.0
C630 C 0.90221 0.55812 0.79054 0.0
C631 C 0.8767 0.58828 0.7926 0.0
C632 C 0.90851 0.41687 0.77381 0.0
C633 C 0.94365 0.42489 0.76214 0.0
C634 C 0.90468 0.46039 0.77934 0.0
C635 C 0.93588 0.5129 0.77327 0.0
C636 C 0.97445 0.52141 0.76245 0.0
C637 C 0.9778 0.47772 0.75682 0.0
H638 H 0.61873 0.60786 0.7456 0.0
H639 H 0.55686 0.58197 0.78986 0.0
H640 H 0.542 0.52343 0.73818 0.0
H641 H 0.47607 0.49947 0.78219 0.0
H642 H 0.43863 0.32387 0.7747 0.0
H643 H 0.47118 0.41845 0.77988 0.0
H644 H 0.46256 0.44871 0.7335 0.0
H645 H 0.43456 0.35448 0.72843 0.0
C646 C 0.58688 0.58574 0.75356 0.0
C647 C 0.59486 0.5999 0.76844 0.0
C648 C 0.54224 0.53668 0.7493 0.0
C649 C 0.50395 0.50219 0.75982 0.0
C650 C 0.50637 0.52302 0.77398 0.0
C651 C 0.55209 0.57109 0.77834 0.0
C652 C 0.4431 0.35082 0.76569 0.0
C653 C 0.43586 0.33268 0.75118 0.0
C654 C 0.46117 0.40528 0.76862 0.0
C655 C 0.47096 0.4425 0.75707 0.0
C656 C 0.45773 0.42229 0.74266 0.0
C657 C 0.44144 0.36821 0.73972 0.0
H658 H 0.49023 0.07054 0.73988 0.0
H659 H 0.49812 0.14266 0.78191 0.0
H660 H 0.56933 0.06493 0.74594 0.0
H661 H 0.57531 0.13353 0.78865 0.0
H662 H 0.75231 0.24391 0.77137 0.0
H663 H 0.65884 0.19676 0.77862 0.0
H664 H 0.63575 0.05147 0.75734 0.0
H665 H 0.73029 0.10045 0.74974 0.0
C666 C 0.50702 0.08192 0.75083 0.0
C667 C 0.48835 0.10692 0.76045 0.0
C668 C 0.55236 0.07843 0.7544 0.0
C669 C 0.58002 0.1005 0.76764 0.0
C670 C 0.55583 0.11748 0.7782 0.0
C671 C 0.51096 0.12187 0.77448 0.0
C672 C 0.72764 0.2014 0.76859 0.0
C673 C 0.74798 0.1763 0.75952 0.0
C674 C 0.67386 0.17382 0.77295 0.0
C675 C 0.63892 0.12041 0.76824 0.0
C676 C 0.66122 0.093 0.76086 0.0
C677 C 0.71551 0.12091 0.75651 0.0
H678 H 0.07827 0.25292 0.55691 0.0
H679 H 0.94691 0.11179 0.53685 0.0
H680 H 0.14102 0.22649 0.54809 0.0
H681 H 0.01012 0.08791 0.5265 0.0
H682 H 0.08457 0.00438 0.55421 0.0
H683 H 0.03878 0.04465 0.54211 0.0
H684 H 0.191 0.19429 0.53632 0.0
H685 H 0.23651 0.15345 0.5492 0.0
C686 C 0.06347 0.21845 0.54962 0.0
C687 C 0.00793 0.18437 0.54757 0.0
C688 C 0.09957 0.20306 0.54448 0.0
C689 C 0.08036 0.15327 0.53716 0.0
C690 C 0.02604 0.12518 0.53267 0.0
C691 C 0.98974 0.13939 0.53834 0.0
C692 C 0.10847 0.04529 0.54991 0.0
C693 C 0.16361 0.07633 0.55301 0.0
C694 C 0.0823 0.0686 0.54275 0.0
C695 C 0.11077 0.12382 0.53861 0.0
C696 C 0.16748 0.15226 0.53976 0.0
C697 C 0.19372 0.12876 0.54702 0.0
H698 H 0.80077 0.81515 0.57621 0.0
H699 H 0.67424 0.75916 0.60867 0.0
H700 H 0.77935 0.88325 0.56779 0.0
H701 H 0.65143 0.82645 0.60011 0.0
H702 H 0.76666 0.01899 0.55805 0.0
H703 H 0.72398 0.92013 0.55845 0.0
H704 H 0.71002 0.92145 0.60574 0.0
H705 H 0.75249 0.01934 0.60517 0.0
C706 C 0.76695 0.81624 0.58111 0.0
C707 C 0.73943 0.78288 0.59312 0.0
C708 C 0.75412 0.85475 0.57622 0.0
C709 C 0.71399 0.86074 0.58343 0.0
C710 C 0.68284 0.82319 0.59445 0.0
C711 C 0.69591 0.7849 0.59937 0.0
C712 C 0.75118 0.99752 0.56837 0.0
C713 C 0.76316 0.02617 0.58161 0.0
C714 C 0.72728 0.94105 0.56863 0.0
C715 C 0.7152 0.91313 0.58215 0.0
C716 C 0.71889 0.94146 0.59511 0.0
C717 C 0.74322 0.99774 0.59484 0.0
H718 H 0.18707 0.86509 0.56539 0.0
H719 H 0.24249 0.88879 0.61008 0.0
H720 H 0.10264 0.78684 0.57274 0.0
H721 H 0.15927 0.80788 0.61756 0.0
H722 H 0.98885 0.78112 0.62712 0.0
H723 H 0.08188 0.81287 0.62095 0.0
H724 H 0.03093 0.70893 0.58283 0.0
H725 H 0.93715 0.6798 0.58866 0.0
C726 C 0.1831 0.85084 0.57664 0.0
C727 C 0.21992 0.88486 0.5873 0.0
C728 C 0.13377 0.80605 0.58097 0.0
C729 C 0.12224 0.79297 0.59599 0.0
C730 C 0.16531 0.81868 0.60601 0.0
C731 C 0.21409 0.86425 0.60164 0.0
C732 C -0.00267 0.76432 0.61753 0.0
C733 C 0.95531 0.72796 0.60838 0.0
C734 C 0.05109 0.78197 0.61406 0.0
C735 C 0.06481 0.76375 0.6013 0.0
C736 C 0.0224 0.72448 0.59265 0.0
C737 C 0.96834 0.70707 0.59611 0.0
H738 H 0.56812 0.09643 0.03973 0.0
H739 H 0.39445 0.01185 0.04083 0.0
H740 H 0.56647 0.10129 0.01286 0.0
H741 H 0.3924 0.01562 0.01392 0.0
H742 H 0.41395 0.96753 0.96655 0.0
H743 H 0.41819 0.96973 0.99358 0.0
H744 H 0.53836 0.14 0.99187 0.0
H745 H 0.53375 0.13792 0.96513 0.0
C746 C 0.5297 0.08113 0.03423 0.0
C747 C 0.4815 0.05547 0.04236 0.0
C748 C 0.52863 0.08305 0.01884 0.0
C749 C 0.47925 0.05798 0.01125 0.0
C750 C 0.43105 0.03461 0.01944 0.0
C751 C 0.43221 0.03362 0.03484 0.0
C752 C 0.44194 0.00501 0.97198 0.0
C753 C 0.47354 0.05247 0.96373 0.0
C754 C 0.44386 0.00655 0.98743 0.0
C755 C 0.47817 0.0553 0.99487 0.0
C756 C 0.51154 0.1019 0.98652 0.0
C757 C 0.50893 0.10059 0.97119 0.0
H758 H 0.05046 0.43936 0.96349 0.0
H759 H 0.88817 0.30991 0.97224 0.0
H760 H 0.07399 0.43704 0.98916 0.0
H761 H 0.91129 0.30756 0.99792 0.0
H762 H 0.95668 0.3898 0.04469 0.0
H763 H 0.92986 0.3662 0.01902 0.0
H764 H 0.08676 0.38824 0.00904 0.0
H765 H 0.11351 0.41252 0.03451 0.0
C766 C 0.02047 0.40895 0.97075 0.0
C767 C 0.96774 0.37454 0.96575 0.0
C768 C 0.03368 0.40781 0.98555 0.0
C769 C -0.00565 0.37234 0.99573 0.0
C770 C 0.94237 0.33597 0.9905 0.0
C771 C 0.92928 0.33706 0.97573 0.0
C772 C 0.98465 0.38768 0.03712 0.0
C773 C 0.03733 0.40348 0.04161 0.0
C774 C 0.96948 0.37444 0.02235 0.0
C775 C 0.00665 0.37654 0.01182 0.0
C776 C 0.05759 0.3876 0.0167 0.0
C777 C 0.07271 0.40095 0.03137 0.0
H778 H 0.64248 0.56553 0.9935 0.0
H779 H 0.47838 0.52715 0.98685 0.0
H780 H 0.63063 0.56564 0.01999 0.0
H781 H 0.46418 0.52201 0.01326 0.0
H782 H 0.47745 0.58155 0.06032 0.0
H783 H 0.47795 0.56646 0.03437 0.0
H784 H 0.59574 0.51635 0.0411 0.0
H785 H 0.59852 0.53674 0.06721 0.0
C786 C 0.60397 0.55769 0.99779 0.0
C787 C 0.56177 0.54773 0.9882 0.0
C788 C 0.59656 0.5563 0.013 0.0
C789 C 0.54606 0.54296 0.01902 0.0
C790 C 0.50402 0.53348 0.00926 0.0
C791 C 0.51209 0.5367 0.99404 0.0
C792 C 0.50249 0.56592 0.05632 0.0
C793 C 0.5389 0.56162 0.06576 0.0
C794 C 0.50277 0.55707 0.0413 0.0
C795 C 0.53836 0.54194 0.03533 0.0
C796 C 0.56951 0.53041 0.04513 0.0
C797 C 0.57012 0.54061 0.06022 0.0
H798 H 0.19591 0.32558 0.36595 0.0
H799 H 0.24375 0.49446 0.36295 0.0
H800 H 0.21118 0.32396 0.33978 0.0
H801 H 0.26389 0.495 0.33687 0.0
H802 H 0.2008 0.45583 0.29002 0.0
H803 H 0.21203 0.46638 0.31634 0.0
H804 H 0.25521 0.34153 0.31784 0.0
H805 H 0.2394 0.32817 0.29149 0.0
C806 C 0.21281 0.36323 0.35977 0.0
C807 C 0.21914 0.41023 0.36641 0.0
C808 C 0.22147 0.36243 0.34467 0.0
C809 C 0.23751 0.40903 0.33591 0.0
C810 C 0.24957 0.45767 0.34303 0.0
C811 C 0.23935 0.45794 0.35807 0.0
C812 C 0.21291 0.43075 0.29596 0.0
C813 C 0.21922 0.39119 0.28863 0.0
C814 C 0.22017 0.43729 0.31114 0.0
C815 C 0.23512 0.40522 0.31947 0.0
C816 C 0.24293 0.36657 0.31199 0.0
C817 C 0.23431 0.35912 0.2968 0.0
H818 H 0.7837 0.85911 0.39328 0.0
H819 H 0.67413 0.91755 0.40176 0.0
H820 H 0.77046 0.86247 0.36697 0.0
H821 H 0.66271 0.9236 0.37538 0.0
H822 H 0.59006 0.84342 0.33101 0.0
H823 H 0.61769 0.86577 0.35628 0.0
H824 H 0.77986 0.90698 0.34442 0.0
H825 H 0.75077 0.8819 0.31888 0.0
C826 C 0.7577 0.87397 0.38951 0.0
C827 C 0.72962 0.8876 0.3997 0.0
C828 C 0.75033 0.87628 0.37433 0.0
C829 C 0.71501 0.89284 0.36881 0.0
C830 C 0.68924 0.90933 0.37906 0.0
C831 C 0.69607 0.90629 0.39426 0.0
C832 C 0.63204 0.85851 0.33368 0.0
C833 C 0.66803 0.86043 0.32287 0.0
C834 C 0.64814 0.87169 0.34829 0.0
C835 C 0.70108 0.88769 0.35268 0.0
C836 C 0.7384 0.89372 0.34162 0.0
C837 C 0.72206 0.88026 0.32688 0.0
H838 H 0.25544 0.91312 0.28588 0.0
H839 H 0.08952 0.81191 0.29954 0.0
H840 H 0.28058 0.94294 0.31147 0.0
H841 H 0.11452 0.84074 0.32479 0.0
H842 H 0.18132 0.84462 0.36945 0.0
H843 H 0.1707 0.82259 0.34331 0.0
H844 H 0.26038 0.99308 0.33231 0.0
H845 H 0.27118 0.01526 0.35844 0.0
C846 C 0.22431 0.89826 0.29426 0.0
C847 C 0.17059 0.86009 0.29075 0.0
C848 C 0.23871 0.91486 0.30888 0.0
C849 C 0.19965 0.89288 0.32013 0.0
C850 C 0.14568 0.85713 0.31641 0.0
C851 C 0.13133 0.84109 0.30192 0.0
C852 C 0.19987 0.87733 0.36148 0.0
C853 C 0.22652 0.93161 0.366 0.0
C854 C 0.19345 0.86479 0.34652 0.0
C855 C 0.21403 0.90626 0.33581 0.0
C856 C 0.24409 0.9604 0.34032 0.0
C857 C 0.25002 0.97297 0.35528 0.0
H858 H 0.7115 0.54405 0.73046 0.0
H859 H 0.72424 0.70083 0.72693 0.0
H860 H 0.69734 0.53165 0.70406 0.0
H861 H 0.71207 0.68948 0.70039 0.0
H862 H 0.66814 0.6549 0.65363 0.0
H863 H 0.65493 0.64511 0.68024 0.0
H864 H 0.74686 0.56335 0.68203 0.0
H865 H 0.75796 0.57171 0.65542 0.0
C866 C 0.71132 0.57601 0.72404 0.0
C867 C 0.7195 0.62372 0.73085 0.0
C868 C 0.70336 0.56893 0.70884 0.0
C869 C 0.70371 0.60952 0.69992 0.0
C870 C 0.7106 0.65676 0.70682 0.0
C871 C 0.71814 0.66363 0.72207 0.0
C872 C 0.68283 0.63217 0.65967 0.0
C873 C 0.71289 0.61284 0.65242 0.0
C874 C 0.67648 0.62771 0.67499 0.0
C875 C 0.70087 0.60456 0.68347 0.0
C876 C 0.72706 0.58112 0.67599 0.0
C877 C 0.73301 0.58529 0.66065 0.0
H878 H 0.19274 0.08526 0.6325 0.0
H879 H 0.35974 0.13361 0.6251 0.0
H880 H 0.20688 0.08927 0.65888 0.0
H881 H 0.37451 0.13975 0.65162 0.0
H882 H 0.36925 0.07338 0.69652 0.0
H883 H 0.34811 0.07166 0.67055 0.0
H884 H 0.24818 0.14055 0.68066 0.0
H885 H 0.26832 0.14043 0.7068 0.0
C886 C 0.233 0.09838 0.63651 0.0
C887 C 0.27497 0.10829 0.62669 0.0
C888 C 0.24104 0.10066 0.65168 0.0
C889 C 0.29137 0.11323 0.6574 0.0
C890 C 0.33469 0.12815 0.64756 0.0
C891 C 0.32658 0.12567 0.63234 0.0
C892 C 0.34107 0.08613 0.69321 0.0
C893 C 0.31996 0.10651 0.70363 0.0
C894 C 0.32998 0.08643 0.67831 0.0
C895 C 0.298 0.10778 0.67344 0.0
C896 C 0.27327 0.12414 0.68401 0.0
C897 C 0.28409 0.12336 0.69901 0.0
H898 H 0.87865 0.26758 0.6194 0.0
H899 H 0.02444 0.26033 0.6233 0.0
H900 H 0.88421 0.29047 0.64536 0.0
H901 H 0.03088 0.28404 0.64922 0.0
H902 H 0.96915 0.23663 0.69765 0.0
H903 H 0.98402 0.23741 0.67112 0.0
H904 H 0.92753 0.35067 0.66508 0.0
H905 H 0.91147 0.34833 0.69138 0.0
C906 C 0.91323 0.2734 0.62565 0.0
C907 C 0.95126 0.26266 0.61929 0.0
C908 C 0.91633 0.28606 0.64061 0.0
C909 C 0.95769 0.28838 0.64953 0.0
C910 C -0.00215 0.28142 0.64283 0.0
C911 C -0.00547 0.26851 0.62792 0.0
C912 C 0.9614 0.26266 0.69066 0.0
C913 C 0.939 0.29214 0.69655 0.0
C914 C 0.96974 0.26318 0.67543 0.0
C915 C 0.95624 0.2936 0.66585 0.0
C916 C 0.93714 0.32574 0.67199 0.0
C917 C 0.92832 0.3247 0.6871 0.0
H918 H 0.15078 0.80117 0.18004 0.0
H919 H 0.2875 0.86512 0.20912 0.0
H920 H 0.21086 0.83049 0.15885 0.0
H921 H 0.34823 0.8986 0.18812 0.0
H922 H 0.45377 0.94675 0.14837 0.0
H923 H 0.39112 0.89374 0.16794 0.0
H924 H 0.26461 0.90572 0.14545 0.0
H925 H 0.32694 0.95522 0.12547 0.0
C926 C 0.19389 0.82091 0.18187 0.0
C927 C 0.21443 0.83066 0.19623 0.0
C928 C 0.22862 0.83875 0.16969 0.0
C929 C 0.28508 0.86856 0.17153 0.0
C930 C 0.30536 0.87551 0.18601 0.0
C931 C 0.27045 0.85621 0.19817 0.0
C932 C 0.41224 0.93721 0.14757 0.0
C933 C 0.39516 0.95499 0.13539 0.0
C934 C 0.37619 0.90716 0.1589 0.0
C935 C 0.32224 0.8954 0.15861 0.0
C936 C 0.30516 0.91256 0.14615 0.0
C937 C 0.34102 0.94142 0.13465 0.0
H938 H 0.02011 0.31082 0.13233 0.0
H939 H 0.15031 0.4764 0.13352 0.0
H940 H 0.06056 0.2879 0.15248 0.0
H941 H 0.1938 0.45332 0.1531 0.0
H942 H 0.19579 0.40513 0.20228 0.0
H943 H 0.17914 0.43295 0.17852 0.0
H944 H 0.12951 0.2739 0.16125 0.0
H945 H 0.14333 0.24528 0.18531 0.0
C946 C 0.05855 0.34201 0.13662 0.0
C947 C 0.083 0.39516 0.13108 0.0
C948 C 0.08216 0.32882 0.14811 0.0
C949 C 0.13097 0.36855 0.15443 0.0
C950 C 0.15626 0.42157 0.14855 0.0
C951 C 0.13221 0.43473 0.13707 0.0
C952 C 0.18244 0.37641 0.19335 0.0
C953 C 0.16971 0.32257 0.19582 0.0
C954 C 0.17308 0.39249 0.17963 0.0
C955 C 0.15166 0.35533 0.16797 0.0
C956 C 0.14435 0.30316 0.17007 0.0
C957 C 0.15283 0.28685 0.18385 0.0
H958 H 0.58592 0.78412 0.22517 0.0
H959 H 0.66518 0.69092 0.23075 0.0
H960 H 0.5488 0.73809 0.20148 0.0
H961 H 0.62823 0.64537 0.20771 0.0
H962 H 0.52949 0.53793 0.17311 0.0
H963 H 0.53708 0.57975 0.1969 0.0
H964 H 0.59213 0.73438 0.17564 0.0
H965 H 0.58403 0.69227 0.15164 0.0
C966 C 0.59489 0.75357 0.22145 0.0
C967 C 0.62894 0.74157 0.22977 0.0
C968 C 0.57386 0.72741 0.2079 0.0
C969 C 0.58526 0.68776 0.20275 0.0
C970 C 0.61795 0.67505 0.21138 0.0
C971 C 0.6396 0.70165 0.22458 0.0
C972 C 0.54159 0.5805 0.17341 0.0
C973 C 0.55701 0.61184 0.16045 0.0
C974 C 0.5461 0.60453 0.18708 0.0
C975 C 0.56631 0.66064 0.1882 0.0
C976 C 0.57642 0.69107 0.17516 0.0
C977 C 0.57174 0.66686 0.16139 0.0
H978 H 0.92033 0.33304 0.87413 0.0
H979 H 0.04574 0.48796 0.85783 0.0
H980 H 0.90039 0.29874 0.84912 0.0
H981 H 0.02934 0.45293 0.83304 0.0
H982 H 0.97517 0.38855 0.78754 0.0
H983 H 0.97711 0.42455 0.81197 0.0
H984 H 0.93594 0.26929 0.83109 0.0
H985 H 0.92943 0.23289 0.80676 0.0
C986 C 0.94299 0.36004 0.86522 0.0
C987 C 0.98397 0.41338 0.86808 0.0
C988 C 0.93242 0.34014 0.85082 0.0
C989 C 0.96346 0.37277 0.83888 0.0
C990 C 0.00378 0.42655 0.84177 0.0
C991 C 0.01365 0.44657 0.85611 0.0
C992 C 0.96448 0.36181 0.79694 0.0
C993 C 0.95089 0.30766 0.79511 0.0
C994 C 0.96675 0.38263 0.81104 0.0
C995 C 0.95658 0.34997 0.8237 0.0
C996 C 0.94283 0.29566 0.82175 0.0
C997 C 0.93982 0.27486 0.80771 0.0
H998 H 0.5245 0.57292 0.87968 0.0
H999 H 0.67352 0.64345 0.90383 0.0
H1000 H 0.57432 0.59297 0.85659 0.0
H1001 H 0.72398 0.66187 0.88072 0.0
H1002 H 0.78851 0.75621 0.83639 0.0
H1003 H 0.74468 0.72456 0.86016 0.0
H1004 H 0.62983 0.57088 0.841 0.0
H1005 H 0.67353 0.60297 0.81702 0.0
C1006 C 0.56805 0.59188 0.88003 0.0
C1007 C 0.59522 0.60572 0.89355 0.0
C1008 C 0.5966 0.60291 0.8668 0.0
C1009 C 0.65322 0.62869 0.86674 0.0
C1010 C 0.6804 0.64195 0.88034 0.0
C1011 C 0.65161 0.63063 0.8936 0.0
C1012 C 0.75429 0.71538 0.83723 0.0
C1013 C 0.73428 0.68232 0.82472 0.0
C1014 C 0.72935 0.69707 0.85094 0.0
C1015 C 0.68349 0.64525 0.85252 0.0
C1016 C 0.66469 0.6113 0.84013 0.0
C1017 C 0.68992 0.62954 0.8264 0.0
H1018 H 0.39932 0.05661 0.78726 0.0
H1019 H 0.39409 0.18301 0.81168 0.0
H1020 H 0.42115 0.02499 0.80973 0.0
H1021 H 0.41174 0.14933 0.83421 0.0
H1022 H 0.46826 0.09991 0.87325 0.0
H1023 H 0.47007 0.13874 0.84926 0.0
H1024 H 0.38133 0.9773 0.83108 0.0
H1025 H 0.38397 0.93929 0.85475 0.0
C1026 C 0.40313 0.07786 0.79741 0.0
C1027 C 0.39543 0.12268 0.7976 0.0
C1028 C 0.41504 0.05933 0.81038 0.0
C1029 C 0.41814 0.08425 0.82396 0.0
C1030 C 0.41099 0.12952 0.82404 0.0
C1031 C 0.40019 0.14863 0.81106 0.0
C1032 C 0.45115 0.07294 0.864 0.0
C1033 C 0.4268 0.01659 0.86593 0.0
C1034 C 0.45103 0.09509 0.85024 0.0
C1035 C 0.42515 0.06136 0.83811 0.0
C1036 C 0.40239 0.00498 0.83998 0.0
C1037 C 0.40352 0.98298 0.85366 0.0
H1038 H 0.93798 0.18204 0.52534 0.0
H1039 H 0.93644 0.33028 0.51868 0.0
H1040 H 0.99131 0.1993 0.50267 0.0
H1041 H 0.98581 0.34591 0.49562 0.0
H1042 H 0.02362 0.32919 0.44866 0.0
H1043 H 0.96606 0.29491 0.47047 0.0
H1044 H 0.09003 0.27991 0.49308 0.0
H1045 H 0.14789 0.31462 0.47108 0.0
C1046 C 0.9506 0.21895 0.51925 0.0
C1047 C 0.93546 0.25586 0.52412 0.0
C1048 C 0.97989 0.22833 0.50615 0.0
C1049 C 0.99279 0.27405 0.49741 0.0
C1050 C 0.97619 0.31017 0.50209 0.0
C1051 C 0.948 0.30126 0.5153 0.0
C1052 C 0.03762 0.31643 0.45808 0.0
C1053 C 0.08942 0.32299 0.4581 0.0
C1054 C 0.00503 0.29753 0.47062 0.0
C1055 C 0.02372 0.28505 0.48348 0.0
C1056 C 0.07449 0.2888 0.48326 0.0
C1057 C 0.10745 0.3084 0.47071 0.0
H1058 H 0.59526 0.75306 0.50161 0.0
H1059 H 0.7614 0.83132 0.48733 0.0
H1060 H 0.61992 0.72998 0.52496 0.0
H1061 H 0.78643 0.80921 0.51095 0.0
H1062 H 0.78872 0.68339 0.54301 0.0
H1063 H 0.77374 0.72729 0.52205 0.0
H1064 H 0.66573 0.75663 0.54827 0.0
H1065 H 0.67957 0.71042 0.5692 0.0
C1066 C 0.63735 0.7664 0.50355 0.0
C1067 C 0.67622 0.79367 0.49246 0.0
C1068 C 0.65159 0.75339 0.51706 0.0
C1069 C 0.70516 0.76715 0.51989 0.0
C1070 C 0.74459 0.79707 0.5091 0.0
C1071 C 0.73033 0.81019 0.49557 0.0
C1072 C 0.76233 0.69991 0.54436 0.0
C1073 C 0.73585 0.69406 0.55782 0.0
C1074 C 0.75405 0.72559 0.53235 0.0
C1075 C 0.71859 0.74586 0.53337 0.0
C1076 C 0.69307 0.74126 0.547 0.0
C1077 C 0.70151 0.71548 0.55908 0.0
H1078 H 0.11863 0.9266 0.46556 0.0
H1079 H 0.29075 0.00411 0.45923 0.0
H1080 H 0.13387 0.97902 0.48838 0.0
H1081 H 0.30599 0.05581 0.48146 0.0
H1082 H 0.33335 0.16105 0.51793 0.0
H1083 H 0.2968 0.12657 0.49361 0.0
H1084 H 0.17337 0.9767 0.51313 0.0
H1085 H 0.20932 0.01145 0.53746 0.0
C1086 C 0.15943 0.95564 0.46887 0.0
C1087 C 0.20355 0.96128 0.46075 0.0
C1088 C 0.16824 0.98541 0.4819 0.0
C1089 C 0.2212 0.02192 0.48672 0.0
C1090 C 0.26473 0.02898 0.47804 0.0
C1091 C 0.25601 -0.00115 0.46535 0.0
C1092 C 0.29751 0.12136 0.51708 0.0
C1093 C 0.27481 0.08877 0.52963 0.0
C1094 C 0.27655 0.10154 0.50313 0.0
C1095 C 0.2328 0.04841 0.50139 0.0
C1096 C 0.20692 0.01781 0.51405 0.0
C1097 C 0.22774 0.03779 0.52803 0.0
H1098 H 0.62487 0.4617 0.08741 0.0
H1099 H 0.46014 0.41704 0.09606 0.0
H1100 H 0.59509 0.37029 0.07868 0.0
H1101 H 0.42944 0.32602 0.0867 0.0
H1102 H 0.42101 0.16587 0.10173 0.0
H1103 H 0.43401 0.25595 0.09891 0.0
H1104 H 0.54924 0.28984 0.06404 0.0
H1105 H 0.53624 0.19843 0.06717 0.0
C1106 C 0.58198 0.43306 0.08664 0.0
C1107 C 0.54477 0.44645 0.09231 0.0
C1108 C 0.56473 0.38037 0.08167 0.0
C1109 C 0.50975 0.33991 0.08227 0.0
C1110 C 0.47219 0.35549 0.0864 0.0
C1111 C 0.48958 0.40795 0.09155 0.0
C1112 C 0.44765 0.19181 0.09308 0.0
C1113 C 0.4776 0.17508 0.08469 0.0
C1114 C 0.45511 0.24378 0.0914 0.0
C1115 C 0.49322 0.28102 0.08132 0.0
C1116 C 0.52007 0.26267 0.07205 0.0
C1117 C 0.51214 0.21004 0.07368 0.0
H1118 H 0.69865 0.1273 0.11295 0.0
H1119 H 0.63118 0.08067 0.06948 0.0
H1120 H 0.78883 0.17998 0.10228 0.0
H1121 H 0.72151 0.13558 0.05874 0.0
H1122 H 0.94529 0.26749 0.08347 0.0
H1123 H 0.86345 0.17833 0.0838 0.0
H1124 H 0.77607 0.24683 0.06309 0.0
H1125 H 0.8575 0.33619 0.06326 0.0
C1126 C 0.70344 0.12692 0.10115 0.0
C1127 C 0.65821 0.10015 0.09204 0.0
C1128 C 0.75498 0.1568 0.09503 0.0
C1129 C 0.76199 0.16167 0.07968 0.0
C1130 C 0.71713 0.13196 0.07058 0.0
C1131 C 0.66562 0.1006 0.07674 0.0
C1132 C 0.90956 0.26269 0.07804 0.0
C1133 C 0.90742 0.30849 0.07337 0.0
C1134 C 0.8626 0.21175 0.07837 0.0
C1135 C 0.81345 0.20606 0.07369 0.0
C1136 C 0.81355 0.25013 0.06671 0.0
C1137 C 0.86029 0.30129 0.06668 0.0
H1138 H 0.78827 0.67142 0.09953 0.0
H1139 H 0.77847 0.6033 0.14261 0.0
H1140 H 0.87164 0.67028 0.09469 0.0
H1141 H 0.85941 0.60025 0.13782 0.0
H1142 H 0.99183 0.57796 0.12901 0.0
H1143 H 0.94929 0.63208 0.13324 0.0
H1144 H 0.88623 0.59819 0.08896 0.0
H1145 H 0.93274 0.5479 0.08455 0.0
C1146 C 0.80508 0.6582 0.10816 0.0
C1147 C 0.7767 0.63684 0.12138 0.0
C1148 C 0.85242 0.65676 0.10533 0.0
C1149 C 0.87205 0.6341 0.11571 0.0
C1150 C 0.8464 0.61842 0.12952 0.0
C1151 C 0.79946 0.61984 0.1323 0.0
C1152 C 0.97046 0.58398 0.12007 0.0
C1153 C 0.96476 0.55845 0.10655 0.0
C1154 C 0.94564 0.61454 0.12249 0.0
C1155 C 0.91254 0.61811 0.11163 0.0
C1156 C 0.91128 0.59666 0.09762 0.0
C1157 C 0.93765 0.56747 0.09507 0.0
H1158 H 0.32515 0.45128 0.90767 0.0
H1159 H 0.35094 0.4273 0.95311 0.0
H1160 H 0.22803 0.39746 0.91143 0.0
H1161 H 0.25297 0.375 0.95714 0.0
H1162 H 0.0643 0.31932 0.91661 0.0
H1163 H 0.14182 0.30758 0.92048 0.0
H1164 H 0.19874 0.42842 0.95453 0.0
H1165 H 0.12201 0.44079 0.9504 0.0
C1166 C 0.30981 0.4326 0.91832 0.0
C1167 C 0.34498 0.44346 0.93011 0.0
C1168 C 0.25427 0.40149 0.9205 0.0
C1169 C 0.23302 0.38219 0.93462 0.0
C1170 C 0.2684 0.38913 0.94615 0.0
C1171 C 0.32423 0.41899 0.94384 0.0
C1172 C 0.09143 0.34054 0.92561 0.0
C1173 C 0.08748 0.38106 0.9332 0.0
C1174 C 0.13588 0.33393 0.92779 0.0
C1175 C 0.17671 0.36791 0.93756 0.0
C1176 C 0.16771 0.40151 0.94696 0.0
C1177 C 0.12337 0.40838 0.94469 0.0
H1178 H 0.55062 0.93383 0.92064 0.0
H1179 H 0.42073 0.87638 0.9521 0.0
H1180 H 0.57493 0.86908 0.93009 0.0
H1181 H 0.44391 0.80985 0.9614 0.0
H1182 H 0.51753 0.70424 0.9767 0.0
H1183 H 0.50898 0.78486 0.97274 0.0
H1184 H 0.52446 0.7717 0.92594 0.0
H1185 H 0.5342 0.69316 0.92991 0.0
C1186 C 0.52858 0.90861 0.92998 0.0
C1187 C 0.48397 0.91008 0.93568 0.0
C1188 C 0.54193 0.87094 0.93526 0.0
C1189 C 0.51035 0.83316 0.9462 0.0
C1190 C 0.46897 0.83827 0.95294 0.0
C1191 C 0.4559 0.8766 0.9477 0.0
C1192 C 0.51887 0.71872 0.96559 0.0
C1193 C 0.52502 0.69142 0.95362 0.0
C1194 C 0.51397 0.76476 0.96332 0.0
C1195 C 0.51637 0.785 0.94904 0.0
C1196 C 0.52314 0.7578 0.93712 0.0
C1197 C 0.52759 0.71186 0.93937 0.0
H1198 H 0.25628 0.89625 0.9443 0.0
H1199 H 0.21667 0.88656 0.89837 0.0
H1200 H 0.17523 0.80849 0.94862 0.0
H1201 H 0.13639 0.79868 0.90248 0.0
H1202 H 0.01492 0.62598 0.91008 0.0
H1203 H 0.05189 0.72376 0.91342 0.0
H1204 H 0.18134 0.73104 0.93941 0.0
H1205 H 0.14445 0.63449 0.93608 0.0
C1206 C 0.22819 0.8772 0.93533 0.0
C1207 C 0.24281 0.89775 0.92098 0.0
C1208 C 0.18217 0.82642 0.93773 0.0
C1209 C 0.15053 0.79567 0.92579 0.0
C1210 C 0.15996 0.82095 0.91193 0.0
C1211 C 0.20589 0.87176 0.90956 0.0
C1212 C 0.05013 0.64841 0.91692 0.0
C1213 C 0.07705 0.62297 0.92277 0.0
C1214 C 0.07143 0.70433 0.91878 0.0
C1215 C 0.11949 0.73534 0.92673 0.0
C1216 C 0.1438 0.70858 0.93345 0.0
C1217 C 0.12308 0.65324 0.93139 0.0
H1218 H 0.21702 0.78598 0.38654 0.0
H1219 H 0.06362 0.73523 0.40724 0.0
H1220 H 0.19033 0.69119 0.38255 0.0
H1221 H 0.03631 0.64059 0.403 0.0
H1222 H 0.09884 0.53516 0.42773 0.0
H1223 H 0.08688 0.60943 0.41947 0.0
H1224 H 0.12823 0.59006 0.37515 0.0
H1225 H 0.13872 0.51378 0.38353 0.0
C1226 C 0.17626 0.75468 0.38932 0.0
C1227 C 0.14264 0.76747 0.3974 0.0
C1228 C 0.16094 0.70029 0.38709 0.0
C1229 C 0.11183 0.65859 0.39287 0.0
C1230 C 0.07475 0.67197 0.39867 0.0
C1231 C 0.09022 0.72612 0.40101 0.0
C1232 C 0.10344 0.54553 0.41614 0.0
C1233 C 0.11956 0.51904 0.40625 0.0
C1234 C 0.09628 0.58782 0.41135 0.0
C1235 C 0.10638 0.60545 0.39661 0.0
C1236 C 0.11983 0.57702 0.38652 0.0
C1237 C 0.12566 0.53347 0.39129 0.0
H1238 H 0.54752 0.70211 0.40615 0.0
H1239 H 0.60352 0.61775 0.43372 0.0
H1240 H 0.47854 0.61692 0.39604 0.0
H1241 H 0.53546 0.53132 0.42317 0.0
H1242 H 0.34899 0.43766 0.43321 0.0
H1243 H 0.44572 0.49219 0.43085 0.0
H1244 H 0.42808 0.52977 0.38578 0.0
H1245 H 0.3298 0.47517 0.38846 0.0
C1246 C 0.547 0.66525 0.40936 0.0
C1247 C 0.58007 0.66608 0.42079 0.0
C1248 C 0.50736 0.61603 0.40353 0.0
C1249 C 0.49986 0.56666 0.40916 0.0
C1250 C 0.53896 0.56844 0.41891 0.0
C1251 C 0.57841 0.6179 0.42486 0.0
C1252 C 0.36591 0.45574 0.4226 0.0
C1253 C 0.33226 0.45357 0.41116 0.0
C1254 C 0.42175 0.48691 0.42116 0.0
C1255 C 0.44515 0.51718 0.40824 0.0
C1256 C 0.4114 0.50824 0.39602 0.0
C1257 C 0.35513 0.47663 0.39748 0.0
H1258 H 0.54832 0.85536 0.41216 0.0
H1259 H 0.62367 0.96766 0.44769 0.0
H1260 H 0.49608 0.8981 0.40591 0.0
H1261 H 0.57276 0.01248 0.44125 0.0
H1262 H 0.39595 0.98333 0.44376 0.0
H1263 H 0.481 0.98431 0.44523 0.0
H1264 H 0.48061 0.96749 0.39802 0.0
H1265 H 0.39397 0.9641 0.39684 0.0
C1266 C 0.55551 0.89104 0.41817 0.0
C1267 C 0.59003 0.90854 0.43031 0.0
C1268 C 0.52558 0.91581 0.41461 0.0
C1269 C 0.52943 0.95859 0.42318 0.0
C1270 C 0.56792 0.97911 0.43455 0.0
C1271 C 0.59764 0.95399 0.43815 0.0
C1272 C 0.41559 0.98275 0.43365 0.0
C1273 C 0.38887 0.97426 0.42019 0.0
C1274 C 0.46442 0.98302 0.43445 0.0
C1275 C 0.48747 0.97476 0.42176 0.0
C1276 C 0.46355 0.97264 0.40807 0.0
C1277 C 0.41439 0.97172 0.40733 0.0
H1278 H 0.82302 0.76446 0.29708 0.0
H1279 H 0.70242 0.6591 0.26602 0.0
H1280 H 0.88265 0.73293 0.28877 0.0
H1281 H 0.76269 0.62804 0.25741 0.0
H1282 H -0.0005 0.70696 0.26726 0.0
H1283 H 0.91401 0.66899 0.2805 0.0
H1284 H 0.84235 0.70109 0.24289 0.0
H1285 H 0.92752 0.73933 0.22973 0.0
C1286 C 0.80812 0.73215 0.28907 0.0
C1287 C 0.75899 0.7152 0.28191 0.0
C1288 C 0.84224 0.7139 0.28429 0.0
C1289 C 0.82788 0.67931 0.2721 0.0
C1290 C 0.77495 0.65536 0.26668 0.0
C1291 C 0.74035 0.67294 0.27167 0.0
C1292 C 0.965 0.70432 0.26164 0.0
C1293 C 0.97053 0.72764 0.24761 0.0
C1294 C 0.91601 0.68224 0.26922 0.0
C1295 C 0.87171 0.68254 0.26281 0.0
C1296 C 0.87561 0.69986 0.24812 0.0
C1297 C 0.92469 0.72251 0.24062 0.0
H1298 H 0.23601 0.02699 0.23118 0.0
H1299 H 0.19901 0.95895 0.2749 0.0
H1300 H 0.26598 0.11646 0.24108 0.0
H1301 H 0.2295 0.04907 0.28505 0.0
H1302 H 0.15287 0.16541 0.27943 0.0
H1303 H 0.17772 0.09626 0.28181 0.0
H1304 H 0.3227 0.19623 0.25662 0.0
H1305 H 0.29704 0.26543 0.25423 0.0
C1306 C 0.23609 0.03165 0.243 0.0
C1307 C 0.21505 0.98623 0.2523 0.0
C1308 C 0.25395 0.08308 0.24873 0.0
C1309 C 0.25017 0.09004 0.2639 0.0
C1310 C 0.2331 0.04506 0.27333 0.0
C1311 C 0.21587 0.99352 0.26756 0.0
C1312 C 0.19193 0.17421 0.27533 0.0
C1313 C 0.22269 0.22 0.26647 0.0
C1314 C 0.20623 0.1344 0.27663 0.0
C1315 C 0.25119 0.13995 0.26891 0.0
C1316 C 0.28718 0.19042 0.26241 0.0
C1317 C 0.27286 0.23036 0.26117 0.0
H1318 H 0.79678 0.96977 0.29941 0.0
H1319 H 0.73761 0.98451 0.25716 0.0
H1320 H 0.86419 0.06671 0.2987 0.0
H1321 H 0.80565 0.07886 0.2558 0.0
H1322 H 0.94376 0.23549 0.24788 0.0
H1323 H 0.85833 0.16821 0.25912 0.0
H1324 H 0.94503 0.11581 0.28733 0.0
H1325 H 0.02926 0.18574 0.27692 0.0
C1326 C 0.79689 0.99417 0.29024 0.0
C1327 C 0.76241 0.96955 0.27827 0.0
C1328 C 0.83633 0.0497 0.28962 0.0
C1329 C 0.84251 0.08127 0.27691 0.0
C1330 C 0.80328 0.05727 0.26582 0.0
C1331 C 0.76384 0.00246 0.26655 0.0
C1332 C 0.94429 0.2114 0.25704 0.0
C1333 C 0.99299 0.21599 0.26162 0.0
C1334 C 0.8952 0.17176 0.26333 0.0
C1335 C 0.89367 0.13429 0.27385 0.0
C1336 C 0.94334 0.14316 0.27937 0.0
C1337 C 0.9922 0.1836 0.27337 0.0
H1338 H 0.77785 0.80278 0.73696 0.0
H1339 H 0.66962 0.8153 0.76734 0.0
H1340 H 0.80494 0.89292 0.72733 0.0
H1341 H 0.69577 0.90489 0.75748 0.0
H1342 H 0.78131 0.08151 0.73595 0.0
H1343 H 0.72478 0.98203 0.73372 0.0
H1344 H 0.85681 0.96538 0.74995 0.0
H1345 H 0.91053 0.06243 0.75338 0.0
C1346 C 0.75668 0.82284 0.74079 0.0
C1347 C 0.7223 0.8025 0.75305 0.0
C1348 C 0.77264 0.87481 0.73537 0.0
C1349 C 0.75323 0.9062 0.7419 0.0
C1350 C 0.71133 0.88159 0.75225 0.0
C1351 C 0.69608 0.83004 0.75784 0.0
C1352 C 0.79725 0.05626 0.73948 0.0
C1353 C 0.8493 0.07983 0.74554 0.0
C1354 C 0.76559 -0.00035 0.73783 0.0
C1355 C 0.78674 0.96622 0.74152 0.0
C1356 C 0.83975 0.9902 0.74679 0.0
C1357 C 0.87039 0.046 0.74886 0.0
H1358 H 0.21892 0.964 0.7698 0.0
H1359 H 0.18646 0.02603 0.73016 0.0
H1360 H 0.12922 0.88428 0.76893 0.0
H1361 H 0.09576 0.9456 0.72924 0.0
H1362 H 0.93307 0.87758 0.75651 0.0
H1363 H 0.02423 0.9312 0.74704 0.0
H1364 H 0.05406 0.80091 0.75749 0.0
H1365 H 0.96125 0.74648 0.76698 0.0
C1366 C 0.19305 0.95948 0.76059 0.0
C1367 C 0.20905 0.00138 0.75018 0.0
C1368 C 0.14174 0.91353 0.76002 0.0
C1369 C 0.10505 0.90893 0.74914 0.0
C1370 C 0.12308 0.94835 0.73784 0.0
C1371 C 0.17496 0.99422 0.73831 0.0
C1372 C 0.95873 0.85989 0.75651 0.0
C1373 C 0.94065 0.80839 0.7627 0.0
C1374 C 0.01081 0.89036 0.75089 0.0
C1375 C 0.04654 0.87043 0.75151 0.0
C1376 C 0.02739 0.81733 0.75688 0.0
C1377 C 0.97447 0.78621 0.7623 0.0
H1378 H 0.31748 0.27653 0.72891 0.0
H1379 H 0.17695 0.11783 0.73396 0.0
H1380 H 0.26202 0.31046 0.71825 0.0
H1381 H 0.12048 0.15171 0.7242 0.0
H1382 H 0.01738 0.21397 0.71488 0.0
H1383 H 0.0853 0.19074 0.70806 0.0
H1384 H 0.20592 0.33245 0.7311 0.0
H1385 H 0.13862 0.35624 0.73719 0.0
C1386 C 0.27477 0.24862 0.72729 0.0
C1387 C 0.25107 0.19486 0.73226 0.0
C1388 C 0.24286 0.26803 0.72132 0.0
C1389 C 0.18638 0.23441 0.7207 0.0
C1390 C 0.1637 0.17901 0.72437 0.0
C1391 C 0.19591 0.1594 0.73006 0.0
C1392 C 0.05916 0.24209 0.71754 0.0
C1393 C 0.07284 0.28689 0.72657 0.0
C1394 C 0.098 0.22811 0.71394 0.0
C1395 C 0.15091 0.25852 0.71944 0.0
C1396 C 0.16585 0.30769 0.72663 0.0
C1397 C 0.12716 0.32165 0.73014 0.0
H1398 H 0.423 0.02479 0.59833 0.0
H1399 H 0.42423 0.99626 0.55195 0.0
H1400 H 0.51411 0.03912 0.60044 0.0
H1401 H 0.51481 0.00976 0.55402 0.0
H1402 H 0.68961 0.05474 0.56156 0.0
H1403 H 0.5914 0.99646 0.56522 0.0
H1404 H 0.5888 0.12655 0.58842 0.0
H1405 H 0.6854 0.18428 0.58443 0.0
C1406 C 0.44107 0.01757 0.5888 0.0
C1407 C 0.41654 0.00951 0.57497 0.0
C1408 C 0.49372 0.02671 0.58995 0.0
C1409 C 0.52217 0.02689 0.57732 0.0
C1410 C 0.49414 0.00994 0.56395 0.0
C1411 C 0.44183 0.00159 0.56278 0.0
C1412 C 0.66794 0.07009 0.56772 0.0
C1413 C 0.69481 0.12397 0.57266 0.0
C1414 C 0.6119 0.03689 0.5698 0.0
C1415 C 0.58234 0.05667 0.57724 0.0
C1416 C 0.61029 0.10959 0.58289 0.0
C1417 C 0.66559 0.14292 0.58048 0.0
H1418 H 0.86009 0.33225 0.60724 0.0
H1419 H -0.00321 0.41597 0.57822 0.0
H1420 H 0.87092 0.41852 0.61494 0.0
H1421 H 0.00788 0.5028 0.58586 0.0
H1422 H 0.88341 0.56258 0.57246 0.0
H1423 H 0.9324 0.51452 0.57564 0.0
H1424 H 0.91686 0.51867 0.62278 0.0
H1425 H 0.86893 0.56892 0.61946 0.0
C1426 C 0.89494 0.36932 0.60336 0.0
C1427 C 0.92762 0.36773 0.59217 0.0
C1428 C 0.9011 0.41898 0.6077 0.0
C1429 C 0.93945 0.46733 0.6007 0.0
C1430 C 0.97762 0.46608 0.5913 0.0
C1431 C 0.97147 0.41643 0.58699 0.0
C1432 C 0.89262 0.55531 0.58349 0.0
C1433 C 0.87209 0.56861 0.5957 0.0
C1434 C 0.92107 0.52816 0.58537 0.0
C1435 C 0.92816 0.51243 0.59949 0.0
C1436 C 0.912 0.53035 0.6118 0.0
C1437 C 0.88465 0.55899 0.6099 0.0
H1438 H 0.48828 0.21938 0.6012 0.0
H1439 H 0.35326 0.24531 0.60383 0.0
H1440 H 0.54592 0.30617 0.61285 0.0
H1441 H 0.41113 0.33325 0.61564 0.0
H1442 H 0.55798 0.50539 0.60044 0.0
H1443 H 0.48136 0.41431 0.60339 0.0
H1444 H 0.57579 0.37375 0.63211 0.0
H1445 H 0.653 0.46579 0.62898 0.0
C1446 C 0.47048 0.24289 0.60489 0.0
C1447 C 0.41655 0.22592 0.60162 0.0
C1448 C 0.50348 0.29272 0.61164 0.0
C1449 C 0.48351 0.32732 0.61507 0.0
C1450 C 0.42798 0.30789 0.61302 0.0
C1451 C 0.39469 0.25743 0.60637 0.0
C1452 C 0.56139 0.47788 0.60803 0.0
C1453 C 0.61132 0.4925 0.61446 0.0
C1454 C 0.51737 0.4254 0.60972 0.0
C1455 C 0.52256 0.38607 0.61775 0.0
C1456 C 0.57066 0.4028 0.62566 0.0
C1457 C 0.61473 0.45571 0.62404 0.0
loop_
_geom_bond_atom_site_label_1
_geom_bond_atom_site_label_2
_geom_bond_distance
_geom_bond_site_symmetry_2
_ccdc_geom_bond_type
Zn0 O6 1.920 . S
Zn0 O12 1.898 . S
Zn0 O15 1.905 . S
Zn1 O9 1.905 . S
Zn1 O10 1.898 . S
Zn1 O18 1.920 . S
Zn2 O5 2.080 . S
Zn2 O8 2.114 . S
Zn2 O11 2.120 1_545 S
Zn2 O13 2.120 . S
Zn2 O14 2.114 . S
Zn2 O17 2.080 1_545 S
C3 O8 1.166 1_565 S
C3 O9 1.182 . S
C4 O10 1.167 . S
C4 O11 1.299 . S
O5 Zn2 2.080 . S
O5 C19 1.305 . S
O6 Zn0 1.920 . S
O6 C19 1.234 . S
C7 O12 1.167 . S
C7 O13 1.299 . S
O8 Zn2 2.114 . S
O8 C3 1.166 1_545 S
O9 Zn1 1.905 . S
O9 C3 1.182 . S
O10 Zn1 1.898 . S
O10 C4 1.167 . S
O11 Zn2 2.120 1_565 S
O11 C4 1.299 . S
O12 Zn0 1.898 . S
O12 C7 1.167 . S
O13 Zn2 2.120 . S
O13 C7 1.299 . S
O14 Zn2 2.114 . S
O14 C16 1.166 . S
O15 Zn0 1.905 . S
O15 C16 1.182 . S
C16 O14 1.166 . S
C16 O15 1.182 . S
O17 Zn2 2.080 1_565 S
O17 C20 1.305 . S
O18 Zn1 1.920 . S
O18 C20 1.234 . S
C19 O5 1.305 . S
C19 O6 1.234 . S
C20 O17 1.305 . S
C20 O18 1.234 . S
Zn21 O27 1.920 . S
Zn21 O33 1.898 . S
Zn21 O36 1.905 . S
Zn22 O30 1.905 . S
Zn22 O31 1.898 . S
Zn22 O39 1.920 . S
Zn23 O26 2.080 . S
Zn23 O29 2.114 . S
Zn23 O32 2.120 . S
Zn23 O34 2.120 1_455 S
Zn23 O35 2.114 1_455 S
Zn23 O38 2.080 . S
C24 O29 1.166 . S
C24 O30 1.182 . S
C25 O31 1.167 . S
C25 O32 1.299 . S
O26 Zn23 2.080 . S
O26 C40 1.305 1_455 S
O27 Zn21 1.920 . S
O27 C40 1.234 . S
C28 O33 1.167 . S
C28 O34 1.299 . S
O29 Zn23 2.114 . S
O29 C24 1.166 . S
O30 Zn22 1.905 . S
O30 C24 1.182 . S
O31 Zn22 1.898 . S
O31 C25 1.167 . S
O32 Zn23 2.120 . S
O32 C25 1.299 . S
O33 Zn21 1.898 . S
O33 C28 1.167 . S
O34 Zn23 2.120 1_655 S
O34 C28 1.299 . S
O35 Zn23 2.114 1_655 S
O35 C37 1.166 . S
O36 Zn21 1.905 . S
O36 C37 1.182 . S
C37 O35 1.166 . S
C37 O36 1.182 . S
O38 Zn23 2.080 . S
O38 C41 1.305 . S
O39 Zn22 1.920 . S
O39 C41 1.234 . S
C40 O26 1.305 1_655 S
C40 O27 1.234 . S
C41 O38 1.305 . S
C41 O39 1.234 . S
Zn42 O48 1.920 . S
Zn42 O54 1.898 . S
Zn42 O57 1.905 . S
Zn43 O51 1.905 . S
Zn43 O52 1.898 . S
Zn43 O60 1.920 . S
Zn44 O47 2.080 . S
Zn44 O50 2.114 . S
Zn44 O53 2.120 . S
Zn44 O55 2.120 . S
Zn44 O56 2.114 . S
Zn44 O59 2.080 . S
C45 O50 1.166 . S
C45 O51 1.182 . S
C46 O52 1.167 . S
C46 O53 1.299 . S
O47 Zn44 2.080 . S
O47 C61 1.305 . S
O48 Zn42 1.920 . S
O48 C61 1.234 . S
C49 O54 1.167 . S
C49 O55 1.299 . S
O50 Zn44 2.114 . S
O50 C45 1.166 . S
O51 Zn43 1.905 . S
O51 C45 1.182 . S
O52 Zn43 1.898 . S
O52 C46 1.167 . S
O53 Zn44 2.120 . S
O53 C46 1.299 . S
O54 Zn42 1.898 . S
O54 C49 1.167 . S
O55 Zn44 2.120 . S
O55 C49 1.299 . S
O56 Zn44 2.114 . S
O56 C58 1.166 . S
O57 Zn42 1.905 . S
O57 C58 1.182 . S
C58 O56 1.166 . S
C58 O57 1.182 . S
O59 Zn44 2.080 . S
O59 C62 1.305 . S
O60 Zn43 1.920 . S
O60 C62 1.234 . S
C61 O47 1.305 . S
C61 O48 1.234 . S
C62 O59 1.305 . S
C62 O60 1.234 . S
Zn63 O69 1.920 . S
Zn63 O75 1.898 . S
Zn63 O78 1.905 . S
Zn64 O72 1.905 . S
Zn64 O73 1.898 . S
Zn64 O81 1.920 . S
Zn65 O68 2.080 . S
Zn65 O71 2.114 . S
Zn65 O74 2.120 1_455 S
Zn65 O76 2.120 . S
Zn65 O77 2.114 . S
Zn65 O80 2.080 1_455 S
C66 O71 1.166 1_655 S
C66 O72 1.182 . S
C67 O73 1.167 . S
C67 O74 1.299 . S
O68 Zn65 2.080 . S
O68 C82 1.305 . S
O69 Zn63 1.920 . S
O69 C82 1.234 . S
C70 O75 1.167 . S
C70 O76 1.299 . S
O71 Zn65 2.114 . S
O71 C66 1.166 1_455 S
O72 Zn64 1.905 . S
O72 C66 1.182 . S
O73 Zn64 1.898 . S
O73 C67 1.167 . S
O74 Zn65 2.120 1_655 S
O74 C67 1.299 . S
O75 Zn63 1.898 . S
O75 C70 1.167 . S
O76 Zn65 2.120 . S
O76 C70 1.299 . S
O77 Zn65 2.114 . S
O77 C79 1.166 . S
O78 Zn63 1.905 . S
O78 C79 1.182 . S
C79 O77 1.166 . S
C79 O78 1.182 . S
O80 Zn65 2.080 1_655 S
O80 C83 1.305 . S
O81 Zn64 1.920 . S
O81 C83 1.234 . S
C82 O68 1.305 . S
C82 O69 1.234 . S
C83 O80 1.305 . S
C83 O81 1.234 . S
Zn84 O90 1.920 . S
Zn84 O96 1.898 . S
Zn84 O99 1.905 . S
Zn85 O93 1.905 . S
Zn85 O94 1.898 . S
Zn85 O102 1.920 . S
Zn86 O89 2.080 . S
Zn86 O92 2.114 . S
Zn86 O95 2.120 . S
Zn86 O97 2.120 . S
Zn86 O98 2.114 . S
Zn86 O101 2.080 . S
C87 O92 1.166 . S
C87 O93 1.182 . S
C88 O94 1.167 . S
C88 O95 1.299 . S
O89 Zn86 2.080 . S
O89 C103 1.305 . S
O90 Zn84 1.920 . S
O90 C103 1.234 . S
C91 O96 1.167 . S
C91 O97 1.299 . S
O92 Zn86 2.114 . S
O92 C87 1.166 . S
O93 Zn85 1.905 . S
O93 C87 1.182 . S
O94 Zn85 1.898 . S
O94 C88 1.167 . S
O95 Zn86 2.120 . S
O95 C88 1.299 . S
O96 Zn84 1.898 . S
O96 C91 1.167 . S
O97 Zn86 2.120 . S
O97 C91 1.299 . S
O98 Zn86 2.114 . S
O98 C100 1.166 . S
O99 Zn84 1.905 . S
O99 C100 1.182 . S
C100 O98 1.166 . S
C100 O99 1.182 . S
O101 Zn86 2.080 . S
O101 C104 1.305 . S
O102 Zn85 1.920 . S
O102 C104 1.234 . S
C103 O89 1.305 . S
C103 O90 1.234 . S
C104 O101 1.305 . S
C104 O102 1.234 . S
Zn105 O111 1.920 . S
Zn105 O117 1.898 . S
Zn105 O120 1.905 . S
Zn106 O114 1.905 . S
Zn106 O115 1.898 . S
Zn106 O123 1.920 . S
Zn107 O110 2.080 . S
Zn107 O113 2.114 . S
Zn107 O116 2.120 . S
Zn107 O118 2.120 1_545 S
Zn107 O119 2.114 1_545 S
Zn107 O122 2.080 . S
C108 O113 1.166 . S
C108 O114 1.182 . S
C109 O115 1.167 . S
C109 O116 1.299 . S
O110 Zn107 2.080 . S
O110 C124 1.305 1_545 S
O111 Zn105 1.920 . S
O111 C124 1.234 . S
C112 O117 1.167 . S
C112 O118 1.299 . S
O113 Zn107 2.114 . S
O113 C108 1.166 . S
O114 Zn106 1.905 . S
O114 C108 1.182 . S
O115 Zn106 1.898 . S
O115 C109 1.167 . S
O116 Zn107 2.120 . S
O116 C109 1.299 . S
O117 Zn105 1.898 . S
O117 C112 1.167 . S
O118 Zn107 2.120 1_565 S
O118 C112 1.299 . S
O119 Zn107 2.114 1_565 S
O119 C121 1.166 . S
O120 Zn105 1.905 . S
O120 C121 1.182 . S
C121 O119 1.166 . S
C121 O120 1.182 . S
O122 Zn107 2.080 . S
O122 C125 1.305 . S
O123 Zn106 1.920 . S
O123 C125 1.234 . S
C124 O110 1.305 1_565 S
C124 O111 1.234 . S
C125 O122 1.305 . S
C125 O123 1.234 . S
Zn126 O132 1.920 . S
Zn126 O138 1.898 . S
Zn126 O141 1.905 . S
Zn127 O135 1.905 . S
Zn127 O136 1.898 . S
Zn127 O144 1.920 1_455 S
Zn128 O131 2.080 . S
Zn128 O134 2.114 . S
Zn128 O137 2.120 . S
Zn128 O139 2.120 . S
Zn128 O140 2.114 . S
Zn128 O143 2.080 . S
C129 O134 1.166 . S
C129 O135 1.182 . S
C130 O136 1.167 . S
C130 O137 1.299 . S
O131 Zn128 2.080 . S
O131 C145 1.305 . S
O132 Zn126 1.920 . S
O132 C145 1.234 . S
C133 O138 1.167 . S
C133 O139 1.299 . S
O134 Zn128 2.114 . S
O134 C129 1.166 . S
O135 Zn127 1.905 . S
O135 C129 1.182 . S
O136 Zn127 1.898 . S
O136 C130 1.167 . S
O137 Zn128 2.120 . S
O137 C130 1.299 . S
O138 Zn126 1.898 . S
O138 C133 1.167 . S
O139 Zn128 2.120 . S
O139 C133 1.299 . S
O140 Zn128 2.114 . S
O140 C142 1.166 . S
O141 Zn126 1.905 . S
O141 C142 1.182 . S
C142 O140 1.166 . S
C142 O141 1.182 . S
O143 Zn128 2.080 . S
O143 C146 1.305 1_455 S
O144 Zn127 1.920 1_655 S
O144 C146 1.234 . S
C145 O131 1.305 . S
C145 O132 1.234 . S
C146 O143 1.305 1_655 S
C146 O144 1.234 . S
Zn147 O153 1.920 . S
Zn147 O159 1.898 . S
Zn147 O162 1.905 . S
Zn148 O156 1.905 . S
Zn148 O157 1.898 . S
Zn148 O165 1.920 . S
Zn149 O152 2.080 . S
Zn149 O155 2.114 . S
Zn149 O158 2.120 . S
Zn149 O160 2.120 . S
Zn149 O161 2.114 . S
Zn149 O164 2.080 . S
C150 O155 1.166 . S
C150 O156 1.182 . S
C151 O157 1.167 . S
C151 O158 1.299 . S
O152 Zn149 2.080 . S
O152 C166 1.305 . S
O153 Zn147 1.920 . S
O153 C166 1.234 . S
C154 O159 1.167 . S
C154 O160 1.299 . S
O155 Zn149 2.114 . S
O155 C150 1.166 . S
O156 Zn148 1.905 . S
O156 C150 1.182 . S
O157 Zn148 1.898 . S
O157 C151 1.167 . S
O158 Zn149 2.120 . S
O158 C151 1.299 . S
O159 Zn147 1.898 . S
O159 C154 1.167 . S
O160 Zn149 2.120 . S
O160 C154 1.299 . S
O161 Zn149 2.114 . S
O161 C163 1.166 . S
O162 Zn147 1.905 . S
O162 C163 1.182 . S
C163 O161 1.166 . S
C163 O162 1.182 . S
O164 Zn149 2.080 . S
O164 C167 1.305 . S
O165 Zn148 1.920 . S
O165 C167 1.234 . S
C166 O152 1.305 . S
C166 O153 1.234 . S
C167 O164 1.305 . S
C167 O165 1.234 . S
Zn168 O174 1.920 1_565 S
Zn168 O180 1.898 . S
Zn168 O183 1.905 . S
Zn169 O177 1.905 . S
Zn169 O178 1.898 . S
Zn169 O186 1.920 . S
Zn170 O173 2.080 . S
Zn170 O176 2.114 . S
Zn170 O179 2.120 . S
Zn170 O181 2.120 . S
Zn170 O182 2.114 . S
Zn170 O185 2.080 . S
C171 O176 1.166 . S
C171 O177 1.182 . S
C172 O178 1.167 . S
C172 O179 1.299 . S
O173 Zn170 2.080 . S
O173 C187 1.305 1_565 S
O174 Zn168 1.920 1_545 S
O174 C187 1.234 . S
C175 O180 1.167 . S
C175 O181 1.299 . S
O176 Zn170 2.114 . S
O176 C171 1.166 . S
O177 Zn169 1.905 . S
O177 C171 1.182 . S
O178 Zn169 1.898 . S
O178 C172 1.167 . S
O179 Zn170 2.120 . S
O179 C172 1.299 . S
O180 Zn168 1.898 . S
O180 C175 1.167 . S
O181 Zn170 2.120 . S
O181 C175 1.299 . S
O182 Zn170 2.114 . S
O182 C184 1.166 . S
O183 Zn168 1.905 . S
O183 C184 1.182 . S
C184 O182 1.166 . S
C184 O183 1.182 . S
O185 Zn170 2.080 . S
O185 C188 1.305 . S
O186 Zn169 1.920 . S
O186 C188 1.234 . S
C187 O173 1.305 1_545 S
C187 O174 1.234 . S
C188 O185 1.305 . S
C188 O186 1.234 . S
Zn189 O195 1.920 . S
Zn189 O201 1.898 . S
Zn189 O204 1.905 . S
Zn190 O198 1.905 . S
Zn190 O199 1.898 . S
Zn190 O207 1.920 . S
Zn191 O194 2.080 . S
Zn191 O197 2.114 . S
Zn191 O200 2.120 . S
Zn191 O202 2.120 . S
Zn191 O203 2.114 . S
Zn191 O206 2.080 . S
C192 O197 1.166 . S
C192 O198 1.182 . S
C193 O199 1.167 . S
C193 O200 1.299 . S
O194 Zn191 2.080 . S
O194 C208 1.305 . S
O195 Zn189 1.920 . S
O195 C208 1.234 . S
C196 O201 1.167 . S
C196 O202 1.299 . S
O197 Zn191 2.114 . S
O197 C192 1.166 . S
O198 Zn190 1.905 . S
O198 C192 1.182 . S
O199 Zn190 1.898 . S
O199 C193 1.167 . S
O200 Zn191 2.120 . S
O200 C193 1.299 . S
O201 Zn189 1.898 . S
O201 C196 1.167 . S
O202 Zn191 2.120 . S
O202 C196 1.299 . S
O203 Zn191 2.114 . S
O203 C205 1.166 . S
O204 Zn189 1.905 . S
O204 C205 1.182 . S
C205 O203 1.166 . S
C205 O204 1.182 . S
O206 Zn191 2.080 . S
O206 C209 1.305 . S
O207 Zn190 1.920 . S
O207 C209 1.234 . S
C208 O194 1.305 . S
C208 O195 1.234 . S
C209 O206 1.305 . S
C209 O207 1.234 . S
Zn210 O216 1.920 . S
Zn210 O222 1.898 . S
Zn210 O225 1.905 . S
Zn211 O219 1.905 . S
Zn211 O220 1.898 1_565 S
Zn211 O228 1.920 . S
Zn212 O215 2.080 . S
Zn212 O218 2.114 . S
Zn212 O221 2.120 . S
Zn212 O223 2.120 . S
Zn212 O224 2.114 . S
Zn212 O227 2.080 . S
C213 O218 1.166 . S
C213 O219 1.182 . S
C214 O220 1.167 . S
C214 O221 1.299 1_545 S
O215 Zn212 2.080 . S
O215 C229 1.305 . S
O216 Zn210 1.920 . S
O216 C229 1.234 . S
C217 O222 1.167 . S
C217 O223 1.299 . S
O218 Zn212 2.114 . S
O218 C213 1.166 . S
O219 Zn211 1.905 . S
O219 C213 1.182 . S
O220 Zn211 1.898 1_545 S
O220 C214 1.167 . S
O221 Zn212 2.120 . S
O221 C214 1.299 1_565 S
O222 Zn210 1.898 . S
O222 C217 1.167 . S
O223 Zn212 2.120 . S
O223 C217 1.299 . S
O224 Zn212 2.114 . S
O224 C226 1.166 . S
O225 Zn210 1.905 . S
O225 C226 1.182 . S
C226 O224 1.166 . S
C226 O225 1.182 . S
O227 Zn212 2.080 . S
O227 C230 1.305 . S
O228 Zn211 1.920 . S
O228 C230 1.234 . S
C229 O215 1.305 . S
C229 O216 1.234 . S
C230 O227 1.305 . S
C230 O228 1.234 . S
Zn231 O237 1.920 . S
Zn231 O243 1.898 1_455 S
Zn231 O246 1.905 . S
Zn232 O240 1.905 . S
Zn232 O241 1.898 . S
Zn232 O249 1.920 . S
Zn233 O236 2.080 . S
Zn233 O239 2.114 . S
Zn233 O242 2.120 . S
Zn233 O244 2.120 . S
Zn233 O245 2.114 . S
Zn233 O248 2.080 . S
C234 O239 1.166 . S
C234 O240 1.182 . S
C235 O241 1.167 . S
C235 O242 1.299 . S
O236 Zn233 2.080 . S
O236 C250 1.305 . S
O237 Zn231 1.920 . S
O237 C250 1.234 . S
C238 O243 1.167 . S
C238 O244 1.299 1_655 S
O239 Zn233 2.114 . S
O239 C234 1.166 . S
O240 Zn232 1.905 . S
O240 C234 1.182 . S
O241 Zn232 1.898 . S
O241 C235 1.167 . S
O242 Zn233 2.120 . S
O242 C235 1.299 . S
O243 Zn231 1.898 1_655 S
O243 C238 1.167 . S
O244 Zn233 2.120 . S
O244 C238 1.299 1_455 S
O245 Zn233 2.114 . S
O245 C247 1.166 . S
O246 Zn231 1.905 . S
O246 C247 1.182 . S
C247 O245 1.166 . S
C247 O246 1.182 . S
O248 Zn233 2.080 . S
O248 C251 1.305 . S
O249 Zn232 1.920 . S
O249 C251 1.234 . S
C250 O236 1.305 . S
C250 O237 1.234 . S
C251 O248 1.305 . S
C251 O249 1.234 . S
Zn252 O258 1.920 . S
Zn252 O264 1.898 . S
Zn252 O267 1.905 . S
Zn253 O261 1.905 . S
Zn253 O262 1.898 . S
Zn253 O270 1.920 . S
Zn254 O257 2.080 . S
Zn254 O260 2.114 . S
Zn254 O263 2.120 . S
Zn254 O265 2.120 . S
Zn254 O266 2.114 . S
Zn254 O269 2.080 . S
C255 O260 1.166 . S
C255 O261 1.182 . S
C256 O262 1.167 . S
C256 O263 1.299 . S
O257 Zn254 2.080 . S
O257 C271 1.305 . S
O258 Zn252 1.920 . S
O258 C271 1.234 . S
C259 O264 1.167 . S
C259 O265 1.299 . S
O260 Zn254 2.114 . S
O260 C255 1.166 . S
O261 Zn253 1.905 . S
O261 C255 1.182 . S
O262 Zn253 1.898 . S
O262 C256 1.167 . S
O263 Zn254 2.120 . S
O263 C256 1.299 . S
O264 Zn252 1.898 . S
O264 C259 1.167 . S
O265 Zn254 2.120 . S
O265 C259 1.299 . S
O266 Zn254 2.114 . S
O266 C268 1.166 . S
O267 Zn252 1.905 . S
O267 C268 1.182 . S
C268 O266 1.166 . S
C268 O267 1.182 . S
O269 Zn254 2.080 . S
O269 C272 1.305 . S
O270 Zn253 1.920 . S
O270 C272 1.234 . S
C271 O257 1.305 . S
C271 O258 1.234 . S
C272 O269 1.305 . S
C272 O270 1.234 . S
Zn273 O279 1.920 . S
Zn273 O285 1.898 1_545 S
Zn273 O288 1.905 . S
Zn274 O282 1.905 . S
Zn274 O283 1.898 . S
Zn274 O291 1.920 . S
Zn275 O278 2.080 . S
Zn275 O281 2.114 . S
Zn275 O284 2.120 . S
Zn275 O286 2.120 . S
Zn275 O287 2.114 . S
Zn275 O290 2.080 . S
C276 O281 1.166 . S
C276 O282 1.182 . S
C277 O283 1.167 . S
C277 O284 1.299 . S
O278 Zn275 2.080 . S
O278 C292 1.305 . S
O279 Zn273 1.920 . S
O279 C292 1.234 . S
C280 O285 1.167 . S
C280 O286 1.299 1_565 S
O281 Zn275 2.114 . S
O281 C276 1.166 . S
O282 Zn274 1.905 . S
O282 C276 1.182 . S
O283 Zn274 1.898 . S
O283 C277 1.167 . S
O284 Zn275 2.120 . S
O284 C277 1.299 . S
O285 Zn273 1.898 1_565 S
O285 C280 1.167 . S
O286 Zn275 2.120 . S
O286 C280 1.299 1_545 S
O287 Zn275 2.114 . S
O287 C289 1.166 . S
O288 Zn273 1.905 . S
O288 C289 1.182 . S
C289 O287 1.166 . S
C289 O288 1.182 . S
O290 Zn275 2.080 . S
O290 C293 1.305 . S
O291 Zn274 1.920 . S
O291 C293 1.234 . S
C292 O278 1.305 . S
C292 O279 1.234 . S
C293 O290 1.305 . S
C293 O291 1.234 . S
Zn294 O300 1.920 . S
Zn294 O306 1.898 . S
Zn294 O309 1.905 . S
Zn295 O303 1.905 . S
Zn295 O304 1.898 1_655 S
Zn295 O312 1.920 . S
Zn296 O299 2.080 . S
Zn296 O302 2.114 . S
Zn296 O305 2.120 . S
Zn296 O307 2.120 . S
Zn296 O308 2.114 . S
Zn296 O311 2.080 . S
C297 O302 1.166 . S
C297 O303 1.182 . S
C298 O304 1.167 . S
C298 O305 1.299 1_455 S
O299 Zn296 2.080 . S
O299 C313 1.305 . S
O300 Zn294 1.920 . S
O300 C313 1.234 . S
C301 O306 1.167 . S
C301 O307 1.299 . S
O302 Zn296 2.114 . S
O302 C297 1.166 . S
O303 Zn295 1.905 . S
O303 C297 1.182 . S
O304 Zn295 1.898 1_455 S
O304 C298 1.167 . S
O305 Zn296 2.120 . S
O305 C298 1.299 1_655 S
O306 Zn294 1.898 . S
O306 C301 1.167 . S
O307 Zn296 2.120 . S
O307 C301 1.299 . S
O308 Zn296 2.114 . S
O308 C310 1.166 . S
O309 Zn294 1.905 . S
O309 C310 1.182 . S
C310 O308 1.166 . S
C310 O309 1.182 . S
O311 Zn296 2.080 . S
O311 C314 1.305 . S
O312 Zn295 1.920 . S
O312 C314 1.234 . S
C313 O299 1.305 . S
C313 O300 1.234 . S
C314 O311 1.305 . S
C314 O312 1.234 . S
Zn315 O321 1.920 . S
Zn315 O327 1.898 . S
Zn315 O330 1.905 . S
Zn316 O324 1.905 . S
Zn316 O325 1.898 . S
Zn316 O333 1.920 1_545 S
Zn317 O320 2.080 . S
Zn317 O323 2.114 . S
Zn317 O326 2.120 . S
Zn317 O328 2.120 . S
Zn317 O329 2.114 . S
Zn317 O332 2.080 . S
C318 O323 1.166 . S
C318 O324 1.182 . S
C319 O325 1.167 . S
C319 O326 1.299 . S
O320 Zn317 2.080 . S
O320 C334 1.305 . S
O321 Zn315 1.920 . S
O321 C334 1.234 . S
C322 O327 1.167 . S
C322 O328 1.299 . S
O323 Zn317 2.114 . S
O323 C318 1.166 . S
O324 Zn316 1.905 . S
O324 C318 1.182 . S
O325 Zn316 1.898 . S
O325 C319 1.167 . S
O326 Zn317 2.120 . S
O326 C319 1.299 . S
O327 Zn315 1.898 . S
O327 C322 1.167 . S
O328 Zn317 2.120 . S
O328 C322 1.299 . S
O329 Zn317 2.114 . S
O329 C331 1.166 . S
O330 Zn315 1.905 . S
O330 C331 1.182 . S
C331 O329 1.166 . S
C331 O330 1.182 . S
O332 Zn317 2.080 . S
O332 C335 1.305 1_545 S
O333 Zn316 1.920 1_565 S
O333 C335 1.234 . S
C334 O320 1.305 . S
C334 O321 1.234 . S
C335 O332 1.305 1_565 S
C335 O333 1.234 . S
Zn336 O342 1.920 . S
Zn336 O348 1.898 . S
Zn336 O351 1.905 . S
Zn337 O345 1.905 . S
Zn337 O346 1.898 . S
Zn337 O354 1.920 1_655 S
Zn338 O341 2.080 . S
Zn338 O344 2.114 . S
Zn338 O347 2.120 . S
Zn338 O349 2.120 . S
Zn338 O350 2.114 . S
Zn338 O353 2.080 . S
C339 O344 1.166 . S
C339 O345 1.182 . S
C340 O346 1.167 . S
C340 O347 1.299 . S
O341 Zn338 2.080 . S
O341 C355 1.305 . S
O342 Zn336 1.920 . S
O342 C355 1.234 . S
C343 O348 1.167 . S
C343 O349 1.299 . S
O344 Zn338 2.114 . S
O344 C339 1.166 . S
O345 Zn337 1.905 . S
O345 C339 1.182 . S
O346 Zn337 1.898 . S
O346 C340 1.167 . S
O347 Zn338 2.120 . S
O347 C340 1.299 . S
O348 Zn336 1.898 . S
O348 C343 1.167 . S
O349 Zn338 2.120 . S
O349 C343 1.299 . S
O350 Zn338 2.114 . S
O350 C352 1.166 . S
O351 Zn336 1.905 . S
O351 C352 1.182 . S
C352 O350 1.166 . S
C352 O351 1.182 . S
O353 Zn338 2.080 . S
O353 C356 1.305 1_655 S
O354 Zn337 1.920 1_455 S
O354 C356 1.234 . S
C355 O341 1.305 . S
C355 O342 1.234 . S
C356 O353 1.305 1_455 S
C356 O354 1.234 . S
Zn357 O363 1.920 . S
Zn357 O369 1.898 . S
Zn357 O372 1.905 . S
Zn358 O366 1.905 . S
Zn358 O367 1.898 . S
Zn358 O375 1.920 . S
Zn359 O362 2.080 . S
Zn359 O365 2.114 . S
Zn359 O368 2.120 . S
Zn359 O370 2.120 . S
Zn359 O371 2.114 . S
Zn359 O374 2.080 . S
C360 O365 1.166 . S
C360 O366 1.182 . S
C361 O367 1.167 . S
C361 O368 1.299 . S
O362 Zn359 2.080 . S
O362 C376 1.305 . S
O363 Zn357 1.920 . S
O363 C376 1.234 . S
C364 O369 1.167 . S
C364 O370 1.299 . S
O365 Zn359 2.114 . S
O365 C360 1.166 . S
O366 Zn358 1.905 . S
O366 C360 1.182 . S
O367 Zn358 1.898 . S
O367 C361 1.167 . S
O368 Zn359 2.120 . S
O368 C361 1.299 . S
O369 Zn357 1.898 . S
O369 C364 1.167 . S
O370 Zn359 2.120 . S
O370 C364 1.299 . S
O371 Zn359 2.114 . S
O371 C373 1.166 . S
O372 Zn357 1.905 . S
O372 C373 1.182 . S
C373 O371 1.166 . S
C373 O372 1.182 . S
O374 Zn359 2.080 . S
O374 C377 1.305 . S
O375 Zn358 1.920 . S
O375 C377 1.234 . S
C376 O362 1.305 . S
C376 O363 1.234 . S
C377 O374 1.305 . S
C377 O375 1.234 . S
H378 C386 0.950 . S
H379 C391 0.950 . S
H380 C388 0.950 . S
H381 C390 0.950 . S
H382 C392 0.950 . S
H383 C394 0.950 . S
H384 C396 0.950 . S
H385 C397 0.950 . S
C386 H378 0.950 . S
C386 C387 1.386 . S
C386 C388 1.391 . S
C387 C386 1.386 . S
C387 C391 1.393 . S
C388 H380 0.950 . S
C388 C386 1.391 . S
C388 C389 1.400 . S
C389 C388 1.400 . S
C389 C390 1.398 . S
C389 C395 1.491 . S
C390 H381 0.950 . S
C390 C389 1.398 . S
C390 C391 1.391 . S
C391 H379 0.950 . S
C391 C387 1.393 . S
C391 C390 1.391 . S
C392 H382 0.950 . S
C392 C393 1.386 . S
C392 C394 1.391 . S
C393 C392 1.386 . S
C393 C397 1.393 . S
C394 H383 0.950 . S
C394 C392 1.391 . S
C394 C395 1.400 . S
C395 C389 1.491 . S
C395 C394 1.400 . S
C395 C396 1.398 . S
C396 H384 0.950 . S
C396 C395 1.398 . S
C396 C397 1.391 . S
C397 H385 0.950 . S
C397 C393 1.393 . S
C397 C396 1.391 . S
H398 C406 0.950 . S
H399 C411 0.950 . S
H400 C408 0.950 . S
H401 C410 0.950 . S
H402 C412 0.950 . S
H403 C414 0.950 . S
H404 C416 0.950 . S
H405 C417 0.950 . S
C406 H398 0.950 . S
C406 C407 1.386 . S
C406 C408 1.391 . S
C407 C406 1.386 . S
C407 C411 1.393 . S
C408 H400 0.950 . S
C408 C406 1.391 . S
C408 C409 1.400 . S
C409 C408 1.400 . S
C409 C410 1.398 . S
C409 C415 1.491 . S
C410 H401 0.950 . S
C410 C409 1.398 . S
C410 C411 1.391 . S
C411 H399 0.950 . S
C411 C407 1.393 . S
C411 C410 1.391 . S
C412 H402 0.950 . S
C412 C413 1.386 . S
C412 C414 1.391 . S
C413 C412 1.386 . S
C413 C417 1.393 . S
C414 H403 0.950 . S
C414 C412 1.391 . S
C414 C415 1.400 . S
C415 C409 1.491 . S
C415 C414 1.400 . S
C415 C416 1.398 . S
C416 H404 0.950 . S
C416 C415 1.398 . S
C416 C417 1.391 . S
C417 H405 0.950 . S
C417 C413 1.393 . S
C417 C416 1.391 . S
H418 C426 0.950 . S
H419 C431 0.950 . S
H420 C428 0.950 . S
H421 C430 0.950 . S
H422 C432 0.950 . S
H423 C434 0.950 . S
H424 C436 0.950 . S
H425 C437 0.950 . S
C426 H418 0.950 . S
C426 C427 1.386 . S
C426 C428 1.391 . S
C427 C426 1.386 . S
C427 C431 1.393 . S
C428 H420 0.950 . S
C428 C426 1.391 . S
C428 C429 1.400 . S
C429 C428 1.400 . S
C429 C430 1.398 . S
C429 C435 1.491 . S
C430 H421 0.950 . S
C430 C429 1.398 . S
C430 C431 1.391 . S
C431 H419 0.950 . S
C431 C427 1.393 . S
C431 C430 1.391 . S
C432 H422 0.950 . S
C432 C433 1.386 . S
C432 C434 1.391 . S
C433 C432 1.386 . S
C433 C437 1.393 . S
C434 H423 0.950 . S
C434 C432 1.391 . S
C434 C435 1.400 . S
C435 C429 1.491 . S
C435 C434 1.400 . S
C435 C436 1.398 . S
C436 H424 0.950 . S
C436 C435 1.398 . S
C436 C437 1.391 . S
C437 H425 0.950 . S
C437 C433 1.393 . S
C437 C436 1.391 . S
H438 C446 0.950 . S
H439 C451 0.950 . S
H440 C448 0.950 . S
H441 C450 0.950 . S
H442 C452 0.950 . S
H443 C454 0.950 . S
H444 C456 0.950 . S
H445 C457 0.950 . S
C446 H438 0.950 . S
C446 C447 1.386 . S
C446 C448 1.391 . S
C447 C446 1.386 . S
C447 C451 1.393 . S
C448 H440 0.950 . S
C448 C446 1.391 . S
C448 C449 1.400 . S
C449 C448 1.400 . S
C449 C450 1.398 . S
C449 C455 1.491 . S
C450 H441 0.950 . S
C450 C449 1.398 . S
C450 C451 1.391 . S
C451 H439 0.950 . S
C451 C447 1.393 . S
C451 C450 1.391 . S
C452 H442 0.950 . S
C452 C453 1.386 . S
C452 C454 1.391 . S
C453 C452 1.386 . S
C453 C457 1.393 . S
C454 H443 0.950 . S
C454 C452 1.391 . S
C454 C455 1.400 . S
C455 C449 1.491 . S
C455 C454 1.400 . S
C455 C456 1.398 . S
C456 H444 0.950 . S
C456 C455 1.398 . S
C456 C457 1.391 . S
C457 H445 0.950 . S
C457 C453 1.393 . S
C457 C456 1.391 . S
H458 C466 0.950 . S
H459 C471 0.950 . S
H460 C468 0.950 . S
H461 C470 0.950 . S
H462 C472 0.950 . S
H463 C474 0.950 . S
H464 C476 0.950 . S
H465 C477 0.950 . S
C466 H458 0.950 . S
C466 C467 1.386 . S
C466 C468 1.391 . S
C467 C466 1.386 . S
C467 C471 1.393 . S
C468 H460 0.950 . S
C468 C466 1.391 . S
C468 C469 1.400 . S
C469 C468 1.400 . S
C469 C470 1.398 . S
C469 C475 1.491 . S
C470 H461 0.950 . S
C470 C469 1.398 . S
C470 C471 1.391 . S
C471 H459 0.950 . S
C471 C467 1.393 . S
C471 C470 1.391 . S
C472 H462 0.950 . S
C472 C473 1.386 . S
C472 C474 1.391 . S
C473 C472 1.386 . S
C473 C477 1.393 . S
C474 H463 0.950 . S
C474 C472 1.391 . S
C474 C475 1.400 . S
C475 C469 1.491 . S
C475 C474 1.400 . S
C475 C476 1.398 . S
C476 H464 0.950 . S
C476 C475 1.398 . S
C476 C477 1.391 . S
C477 H465 0.950 . S
C477 C473 1.393 . S
C477 C476 1.391 . S
H478 C486 0.950 . S
H479 C491 0.950 . S
H480 C488 0.950 . S
H481 C490 0.950 . S
H482 C492 0.950 . S
H483 C494 0.950 . S
H484 C496 0.950 . S
H485 C497 0.950 . S
C486 H478 0.950 . S
C486 C487 1.386 . S
C486 C488 1.391 . S
C487 C486 1.386 . S
C487 C491 1.393 . S
C488 H480 0.950 . S
C488 C486 1.391 . S
C488 C489 1.400 . S
C489 C488 1.400 . S
C489 C490 1.398 . S
C489 C495 1.491 . S
C490 H481 0.950 . S
C490 C489 1.398 . S
C490 C491 1.391 . S
C491 H479 0.950 . S
C491 C487 1.393 . S
C491 C490 1.391 . S
C492 H482 0.950 . S
C492 C493 1.386 . S
C492 C494 1.391 . S
C493 C492 1.386 . S
C493 C497 1.393 . S
C494 H483 0.950 . S
C494 C492 1.391 . S
C494 C495 1.400 . S
C495 C489 1.491 . S
C495 C494 1.400 . S
C495 C496 1.398 . S
C496 H484 0.950 . S
C496 C495 1.398 . S
C496 C497 1.391 . S
C497 H485 0.950 . S
C497 C493 1.393 . S
C497 C496 1.391 . S
H498 C506 0.950 . S
H499 C511 0.950 . S
H500 C508 0.950 . S
H501 C510 0.950 . S
H502 C512 0.950 . S
H503 C514 0.950 . S
H504 C516 0.950 . S
H505 C517 0.950 . S
C506 H498 0.950 . S
C506 C507 1.386 . S
C506 C508 1.391 . S
C507 C506 1.386 . S
C507 C511 1.393 . S
C508 H500 0.950 . S
C508 C506 1.391 . S
C508 C509 1.400 . S
C509 C508 1.400 . S
C509 C510 1.398 . S
C509 C515 1.491 . S
C510 H501 0.950 . S
C510 C509 1.398 . S
C510 C511 1.391 . S
C511 H499 0.950 . S
C511 C507 1.393 . S
C511 C510 1.391 . S
C512 H502 0.950 . S
C512 C513 1.386 . S
C512 C514 1.391 . S
C513 C512 1.386 . S
C513 C517 1.393 . S
C514 H503 0.950 . S
C514 C512 1.391 . S
C514 C515 1.400 . S
C515 C509 1.491 . S
C515 C514 1.400 . S
C515 C516 1.398 . S
C516 H504 0.950 . S
C516 C515 1.398 . S
C516 C517 1.391 . S
C517 H505 0.950 . S
C517 C513 1.393 . S
C517 C516 1.391 . S
H518 C526 0.950 . S
H519 C531 0.950 1_455 S
H520 C528 0.950 . S
H521 C530 0.950 . S
H522 C532 0.950 . S
H523 C534 0.950 . S
H524 C536 0.950 . S
H525 C537 0.950 . S
C526 H518 0.950 . S
C526 C527 1.386 . S
C526 C528 1.391 . S
C527 C526 1.386 . S
C527 C531 1.393 . S
C528 H520 0.950 . S
C528 C526 1.391 . S
C528 C529 1.400 . S
C529 C528 1.400 . S
C529 C530 1.398 . S
C529 C535 1.491 . S
C530 H521 0.950 . S
C530 C529 1.398 . S
C530 C531 1.391 . S
C531 H519 0.950 1_655 S
C531 C527 1.393 . S
C531 C530 1.391 . S
C532 H522 0.950 . S
C532 C533 1.386 . S
C532 C534 1.391 1_565 S
C533 C532 1.386 . S
C533 C537 1.393 . S
C534 H523 0.950 . S
C534 C532 1.391 1_545 S
C534 C535 1.400 . S
C535 C529 1.491 . S
C535 C534 1.400 . S
C535 C536 1.398 . S
C536 H524 0.950 . S
C536 C535 1.398 . S
C536 C537 1.391 1_545 S
C537 H525 0.950 . S
C537 C533 1.393 . S
C537 C536 1.391 1_565 S
H538 C546 0.950 . S
H539 C551 0.950 . S
H540 C548 0.950 1_655 S
H541 C550 0.950 1_655 S
H542 C552 0.950 . S
H543 C554 0.950 . S
H544 C556 0.950 . S
H545 C557 0.950 . S
C546 H538 0.950 . S
C546 C547 1.386 . S
C546 C548 1.391 . S
C547 C546 1.386 . S
C547 C551 1.393 . S
C548 H540 0.950 1_455 S
C548 C546 1.391 . S
C548 C549 1.400 1_455 S
C549 C548 1.400 1_655 S
C549 C550 1.398 1_655 S
C549 C555 1.491 . S
C550 H541 0.950 1_455 S
C550 C549 1.398 1_455 S
C550 C551 1.391 . S
C551 H539 0.950 . S
C551 C547 1.393 . S
C551 C550 1.391 . S
C552 H542 0.950 . S
C552 C553 1.386 . S
C552 C554 1.391 . S
C553 C552 1.386 . S
C553 C557 1.393 . S
C554 H543 0.950 . S
C554 C552 1.391 . S
C554 C555 1.400 . S
C555 C549 1.491 . S
C555 C554 1.400 . S
C555 C556 1.398 . S
C556 H544 0.950 . S
C556 C555 1.398 . S
C556 C557 1.391 . S
C557 H545 0.950 . S
C557 C553 1.393 . S
C557 C556 1.391 . S
H558 C566 0.950 . S
H559 C571 0.950 1_545 S
H560 C568 0.950 . S
H561 C570 0.950 . S
H562 C572 0.950 . S
H563 C574 0.950 . S
H564 C576 0.950 . S
H565 C577 0.950 . S
C566 H558 0.950 . S
C566 C567 1.386 . S
C566 C568 1.391 . S
C567 C566 1.386 . S
C567 C571 1.393 . S
C568 H560 0.950 . S
C568 C566 1.391 . S
C568 C569 1.400 . S
C569 C568 1.400 . S
C569 C570 1.398 . S
C569 C575 1.491 . S
C570 H561 0.950 . S
C570 C569 1.398 . S
C570 C571 1.391 . S
C571 H559 0.950 1_565 S
C571 C567 1.393 . S
C571 C570 1.391 . S
C572 H562 0.950 . S
C572 C573 1.386 . S
C572 C574 1.391 . S
C573 C572 1.386 . S
C573 C577 1.393 . S
C574 H563 0.950 . S
C574 C572 1.391 . S
C574 C575 1.400 . S
C575 C569 1.491 . S
C575 C574 1.400 . S
C575 C576 1.398 . S
C576 H564 0.950 . S
C576 C575 1.398 . S
C576 C577 1.391 . S
C577 H565 0.950 . S
C577 C573 1.393 . S
C577 C576 1.391 . S
H578 C586 0.950 . S
H579 C591 0.950 . S
H580 C588 0.950 . S
H581 C590 0.950 . S
H582 C592 0.950 . S
H583 C594 0.950 . S
H584 C596 0.950 . S
H585 C597 0.950 . S
C586 H578 0.950 . S
C586 C587 1.386 . S
C586 C588 1.391 . S
C587 C586 1.386 . S
C587 C591 1.393 . S
C588 H580 0.950 . S
C588 C586 1.391 . S
C588 C589 1.400 . S
C589 C588 1.400 . S
C589 C590 1.398 . S
C589 C595 1.491 . S
C590 H581 0.950 . S
C590 C589 1.398 . S
C590 C591 1.391 . S
C591 H579 0.950 . S
C591 C587 1.393 . S
C591 C590 1.391 . S
C592 H582 0.950 . S
C592 C593 1.386 . S
C592 C594 1.391 . S
C593 C592 1.386 . S
C593 C597 1.393 . S
C594 H583 0.950 . S
C594 C592 1.391 . S
C594 C595 1.400 . S
C595 C589 1.491 . S
C595 C594 1.400 . S
C595 C596 1.398 . S
C596 H584 0.950 . S
C596 C595 1.398 . S
C596 C597 1.391 . S
C597 H585 0.950 . S
C597 C593 1.393 . S
C597 C596 1.391 . S
H598 C606 0.950 . S
H599 C611 0.950 . S
H600 C608 0.950 . S
H601 C610 0.950 . S
H602 C612 0.950 . S
H603 C614 0.950 . S
H604 C616 0.950 . S
H605 C617 0.950 . S
C606 H598 0.950 . S
C606 C607 1.386 . S
C606 C608 1.391 . S
C607 C606 1.386 . S
C607 C611 1.393 . S
C608 H600 0.950 . S
C608 C606 1.391 . S
C608 C609 1.400 . S
C609 C608 1.400 . S
C609 C610 1.398 . S
C609 C615 1.491 . S
C610 H601 0.950 . S
C610 C609 1.398 . S
C610 C611 1.391 . S
C611 H599 0.950 . S
C611 C607 1.393 . S
C611 C610 1.391 . S
C612 H602 0.950 . S
C612 C613 1.386 . S
C612 C614 1.391 . S
C613 C612 1.386 . S
C613 C617 1.393 . S
C614 H603 0.950 . S
C614 C612 1.391 . S
C614 C615 1.400 . S
C615 C609 1.491 . S
C615 C614 1.400 . S
C615 C616 1.398 . S
C616 H604 0.950 . S
C616 C615 1.398 . S
C616 C617 1.391 . S
C617 H605 0.950 . S
C617 C613 1.393 . S
C617 C616 1.391 . S
H618 C626 0.950 . S
H619 C631 0.950 . S
H620 C628 0.950 . S
H621 C630 0.950 . S
H622 C632 0.950 . S
H623 C634 0.950 . S
H624 C636 0.950 . S
H625 C637 0.950 . S
C626 H618 0.950 . S
C626 C627 1.386 . S
C626 C628 1.391 . S
C627 C626 1.386 . S
C627 C631 1.393 . S
C628 H620 0.950 . S
C628 C626 1.391 . S
C628 C629 1.400 . S
C629 C628 1.400 . S
C629 C630 1.398 . S
C629 C635 1.491 . S
C630 H621 0.950 . S
C630 C629 1.398 . S
C630 C631 1.391 . S
C631 H619 0.950 . S
C631 C627 1.393 . S
C631 C630 1.391 . S
C632 H622 0.950 . S
C632 C633 1.386 . S
C632 C634 1.391 . S
C633 C632 1.386 . S
C633 C637 1.393 . S
C634 H623 0.950 . S
C634 C632 1.391 . S
C634 C635 1.400 . S
C635 C629 1.491 . S
C635 C634 1.400 . S
C635 C636 1.398 . S
C636 H624 0.950 . S
C636 C635 1.398 . S
C636 C637 1.391 . S
C637 H625 0.950 . S
C637 C633 1.393 . S
C637 C636 1.391 . S
H638 C646 0.950 . S
H639 C651 0.950 . S
H640 C648 0.950 . S
H641 C650 0.950 . S
H642 C652 0.950 . S
H643 C654 0.950 . S
H644 C656 0.950 . S
H645 C657 0.950 . S
C646 H638 0.950 . S
C646 C647 1.386 . S
C646 C648 1.391 . S
C647 C646 1.386 . S
C647 C651 1.393 . S
C648 H640 0.950 . S
C648 C646 1.391 . S
C648 C649 1.400 . S
C649 C648 1.400 . S
C649 C650 1.398 . S
C649 C655 1.491 . S
C650 H641 0.950 . S
C650 C649 1.398 . S
C650 C651 1.391 . S
C651 H639 0.950 . S
C651 C647 1.393 . S
C651 C650 1.391 . S
C652 H642 0.950 . S
C652 C653 1.386 . S
C652 C654 1.391 . S
C653 C652 1.386 . S
C653 C657 1.393 . S
C654 H643 0.950 . S
C654 C652 1.391 . S
C654 C655 1.400 . S
C655 C649 1.491 . S
C655 C654 1.400 . S
C655 C656 1.398 . S
C656 H644 0.950 . S
C656 C655 1.398 . S
C656 C657 1.391 . S
C657 H645 0.950 . S
C657 C653 1.393 . S
C657 C656 1.391 . S
H658 C666 0.950 . S
H659 C671 0.950 . S
H660 C668 0.950 . S
H661 C670 0.950 . S
H662 C672 0.950 . S
H663 C674 0.950 . S
H664 C676 0.950 . S
H665 C677 0.950 . S
C666 H658 0.950 . S
C666 C667 1.386 . S
C666 C668 1.391 . S
C667 C666 1.386 . S
C667 C671 1.393 . S
C668 H660 0.950 . S
C668 C666 1.391 . S
C668 C669 1.400 . S
C669 C668 1.400 . S
C669 C670 1.398 . S
C669 C675 1.491 . S
C670 H661 0.950 . S
C670 C669 1.398 . S
C670 C671 1.391 . S
C671 H659 0.950 . S
C671 C667 1.393 . S
C671 C670 1.391 . S
C672 H662 0.950 . S
C672 C673 1.386 . S
C672 C674 1.391 . S
C673 C672 1.386 . S
C673 C677 1.393 . S
C674 H663 0.950 . S
C674 C672 1.391 . S
C674 C675 1.400 . S
C675 C669 1.491 . S
C675 C674 1.400 . S
C675 C676 1.398 . S
C676 H664 0.950 . S
C676 C675 1.398 . S
C676 C677 1.391 . S
C677 H665 0.950 . S
C677 C673 1.393 . S
C677 C676 1.391 . S
H678 C686 0.950 . S
H679 C691 0.950 . S
H680 C688 0.950 . S
H681 C690 0.950 . S
H682 C692 0.950 . S
H683 C694 0.950 . S
H684 C696 0.950 . S
H685 C697 0.950 . S
C686 H678 0.950 . S
C686 C687 1.386 . S
C686 C688 1.391 . S
C687 C686 1.386 . S
C687 C691 1.393 . S
C688 H680 0.950 . S
C688 C686 1.391 . S
C688 C689 1.400 . S
C689 C688 1.400 . S
C689 C690 1.398 . S
C689 C695 1.491 . S
C690 H681 0.950 . S
C690 C689 1.398 . S
C690 C691 1.391 . S
C691 H679 0.950 . S
C691 C687 1.393 . S
C691 C690 1.391 . S
C692 H682 0.950 . S
C692 C693 1.386 . S
C692 C694 1.391 . S
C693 C692 1.386 . S
C693 C697 1.393 . S
C694 H683 0.950 . S
C694 C692 1.391 . S
C694 C695 1.400 . S
C695 C689 1.491 . S
C695 C694 1.400 . S
C695 C696 1.398 . S
C696 H684 0.950 . S
C696 C695 1.398 . S
C696 C697 1.391 . S
C697 H685 0.950 . S
C697 C693 1.393 . S
C697 C696 1.391 . S
H698 C706 0.950 . S
H699 C711 0.950 . S
H700 C708 0.950 . S
H701 C710 0.950 . S
H702 C712 0.950 . S
H703 C714 0.950 . S
H704 C716 0.950 1_565 S
H705 C717 0.950 . S
C706 H698 0.950 . S
C706 C707 1.386 . S
C706 C708 1.391 . S
C707 C706 1.386 . S
C707 C711 1.393 . S
C708 H700 0.950 . S
C708 C706 1.391 . S
C708 C709 1.400 . S
C709 C708 1.400 . S
C709 C710 1.398 . S
C709 C715 1.491 . S
C710 H701 0.950 . S
C710 C709 1.398 . S
C710 C711 1.391 . S
C711 H699 0.950 . S
C711 C707 1.393 . S
C711 C710 1.391 . S
C712 H702 0.950 . S
C712 C713 1.386 . S
C712 C714 1.391 1_545 S
C713 C712 1.386 . S
C713 C717 1.393 . S
C714 H703 0.950 . S
C714 C712 1.391 1_565 S
C714 C715 1.400 . S
C715 C709 1.491 . S
C715 C714 1.400 . S
C715 C716 1.398 1_565 S
C716 H704 0.950 1_545 S
C716 C715 1.398 1_545 S
C716 C717 1.391 . S
C717 H705 0.950 . S
C717 C713 1.393 . S
C717 C716 1.391 . S
H718 C726 0.950 . S
H719 C731 0.950 . S
H720 C728 0.950 . S
H721 C730 0.950 . S
H722 C732 0.950 . S
H723 C734 0.950 . S
H724 C736 0.950 . S
H725 C737 0.950 . S
C726 H718 0.950 . S
C726 C727 1.386 . S
C726 C728 1.391 . S
C727 C726 1.386 . S
C727 C731 1.393 . S
C728 H720 0.950 . S
C728 C726 1.391 . S
C728 C729 1.400 . S
C729 C728 1.400 . S
C729 C730 1.398 . S
C729 C735 1.491 . S
C730 H721 0.950 . S
C730 C729 1.398 . S
C730 C731 1.391 . S
C731 H719 0.950 . S
C731 C727 1.393 . S
C731 C730 1.391 . S
C732 H722 0.950 . S
C732 C733 1.386 . S
C732 C734 1.391 1_655 S
C733 C732 1.386 . S
C733 C737 1.393 . S
C734 H723 0.950 . S
C734 C732 1.391 1_455 S
C734 C735 1.400 . S
C735 C729 1.491 . S
C735 C734 1.400 . S
C735 C736 1.398 . S
C736 H724 0.950 . S
C736 C735 1.398 . S
C736 C737 1.391 1_455 S
C737 H725 0.950 . S
C737 C733 1.393 . S
C737 C736 1.391 1_655 S
H738 C746 0.950 . S
H739 C751 0.950 . S
H740 C748 0.950 . S
H741 C750 0.950 . S
H742 C752 0.950 . S
H743 C754 0.950 . S
H744 C756 0.950 . S
H745 C757 0.950 . S
C746 H738 0.950 . S
C746 C747 1.386 . S
C746 C748 1.391 . S
C747 C746 1.386 . S
C747 C751 1.393 . S
C748 H740 0.950 . S
C748 C746 1.391 . S
C748 C749 1.400 . S
C749 C748 1.400 . S
C749 C750 1.398 . S
C749 C755 1.491 1_554 S
C750 H741 0.950 . S
C750 C749 1.398 . S
C750 C751 1.391 . S
C751 H739 0.950 . S
C751 C747 1.393 . S
C751 C750 1.391 . S
C752 H742 0.950 . S
C752 C753 1.386 . S
C752 C754 1.391 . S
C753 C752 1.386 . S
C753 C757 1.393 . S
C754 H743 0.950 . S
C754 C752 1.391 . S
C754 C755 1.400 . S
C755 C749 1.491 1_556 S
C755 C754 1.400 . S
C755 C756 1.398 . S
C756 H744 0.950 . S
C756 C755 1.398 . S
C756 C757 1.391 . S
C757 H745 0.950 . S
C757 C753 1.393 . S
C757 C756 1.391 . S
H758 C766 0.950 . S
H759 C771 0.950 . S
H760 C768 0.950 . S
H761 C770 0.950 . S
H762 C772 0.950 . S
H763 C774 0.950 . S
H764 C776 0.950 . S
H765 C777 0.950 . S
C766 H758 0.950 . S
C766 C767 1.386 . S
C766 C768 1.391 . S
C767 C766 1.386 . S
C767 C771 1.393 1_455 S
C768 H760 0.950 . S
C768 C766 1.391 . S
C768 C769 1.400 . S
C769 C768 1.400 . S
C769 C770 1.398 1_455 S
C769 C775 1.491 1_556 S
C770 H761 0.950 . S
C770 C769 1.398 1_655 S
C770 C771 1.391 . S
C771 H759 0.950 . S
C771 C767 1.393 1_655 S
C771 C770 1.391 . S
C772 H762 0.950 . S
C772 C773 1.386 1_655 S
C772 C774 1.391 . S
C773 C772 1.386 1_455 S
C773 C777 1.393 . S
C774 H763 0.950 . S
C774 C772 1.391 . S
C774 C775 1.400 1_655 S
C775 C769 1.491 1_554 S
C775 C774 1.400 1_455 S
C775 C776 1.398 . S
C776 H764 0.950 . S
C776 C775 1.398 . S
C776 C777 1.391 . S
C777 H765 0.950 . S
C777 C773 1.393 . S
C777 C776 1.391 . S
H778 C786 0.950 . S
H779 C791 0.950 . S
H780 C788 0.950 . S
H781 C790 0.950 . S
H782 C792 0.950 . S
H783 C794 0.950 . S
H784 C796 0.950 . S
H785 C797 0.950 . S
C786 H778 0.950 . S
C786 C787 1.386 . S
C786 C788 1.391 . S
C787 C786 1.386 . S
C787 C791 1.393 . S
C788 H780 0.950 . S
C788 C786 1.391 . S
C788 C789 1.400 . S
C789 C788 1.400 . S
C789 C790 1.398 . S
C789 C795 1.491 1_556 S
C790 H781 0.950 . S
C790 C789 1.398 . S
C790 C791 1.391 . S
C791 H779 0.950 . S
C791 C787 1.393 . S
C791 C790 1.391 . S
C792 H782 0.950 . S
C792 C793 1.386 . S
C792 C794 1.391 . S
C793 C792 1.386 . S
C793 C797 1.393 . S
C794 H783 0.950 . S
C794 C792 1.391 . S
C794 C795 1.400 . S
C795 C789 1.491 1_554 S
C795 C794 1.400 . S
C795 C796 1.398 . S
C796 H784 0.950 . S
C796 C795 1.398 . S
C796 C797 1.391 . S
C797 H785 0.950 . S
C797 C793 1.393 . S
C797 C796 1.391 . S
H798 C806 0.950 . S
H799 C811 0.950 . S
H800 C808 0.950 . S
H801 C810 0.950 . S
H802 C812 0.950 . S
H803 C814 0.950 . S
H804 C816 0.950 . S
H805 C817 0.950 . S
C806 H798 0.950 . S
C806 C807 1.386 . S
C806 C808 1.391 . S
C807 C806 1.386 . S
C807 C811 1.393 . S
C808 H800 0.950 . S
C808 C806 1.391 . S
C808 C809 1.400 . S
C809 C808 1.400 . S
C809 C810 1.398 . S
C809 C815 1.491 . S
C810 H801 0.950 . S
C810 C809 1.398 . S
C810 C811 1.391 . S
C811 H799 0.950 . S
C811 C807 1.393 . S
C811 C810 1.391 . S
C812 H802 0.950 . S
C812 C813 1.386 . S
C812 C814 1.391 . S
C813 C812 1.386 . S
C813 C817 1.393 . S
C814 H803 0.950 . S
C814 C812 1.391 . S
C814 C815 1.400 . S
C815 C809 1.491 . S
C815 C814 1.400 . S
C815 C816 1.398 . S
C816 H804 0.950 . S
C816 C815 1.398 . S
C816 C817 1.391 . S
C817 H805 0.950 . S
C817 C813 1.393 . S
C817 C816 1.391 . S
H818 C826 0.950 . S
H819 C831 0.950 . S
H820 C828 0.950 . S
H821 C830 0.950 . S
H822 C832 0.950 . S
H823 C834 0.950 . S
H824 C836 0.950 . S
H825 C837 0.950 . S
C826 H818 0.950 . S
C826 C827 1.386 . S
C826 C828 1.391 . S
C827 C826 1.386 . S
C827 C831 1.393 . S
C828 H820 0.950 . S
C828 C826 1.391 . S
C828 C829 1.400 . S
C829 C828 1.400 . S
C829 C830 1.398 . S
C829 C835 1.491 . S
C830 H821 0.950 . S
C830 C829 1.398 . S
C830 C831 1.391 . S
C831 H819 0.950 . S
C831 C827 1.393 . S
C831 C830 1.391 . S
C832 H822 0.950 . S
C832 C833 1.386 . S
C832 C834 1.391 . S
C833 C832 1.386 . S
C833 C837 1.393 . S
C834 H823 0.950 . S
C834 C832 1.391 . S
C834 C835 1.400 . S
C835 C829 1.491 . S
C835 C834 1.400 . S
C835 C836 1.398 . S
C836 H824 0.950 . S
C836 C835 1.398 . S
C836 C837 1.391 . S
C837 H825 0.950 . S
C837 C833 1.393 . S
C837 C836 1.391 . S
H838 C846 0.950 . S
H839 C851 0.950 . S
H840 C848 0.950 . S
H841 C850 0.950 . S
H842 C852 0.950 . S
H843 C854 0.950 . S
H844 C856 0.950 . S
H845 C857 0.950 . S
C846 H838 0.950 . S
C846 C847 1.386 . S
C846 C848 1.391 . S
C847 C846 1.386 . S
C847 C851 1.393 . S
C848 H840 0.950 . S
C848 C846 1.391 . S
C848 C849 1.400 . S
C849 C848 1.400 . S
C849 C850 1.398 . S
C849 C855 1.491 . S
C850 H841 0.950 . S
C850 C849 1.398 . S
C850 C851 1.391 . S
C851 H839 0.950 . S
C851 C847 1.393 . S
C851 C850 1.391 . S
C852 H842 0.950 . S
C852 C853 1.386 . S
C852 C854 1.391 . S
C853 C852 1.386 . S
C853 C857 1.393 . S
C854 H843 0.950 . S
C854 C852 1.391 . S
C854 C855 1.400 . S
C855 C849 1.491 . S
C855 C854 1.400 . S
C855 C856 1.398 . S
C856 H844 0.950 . S
C856 C855 1.398 . S
C856 C857 1.391 . S
C857 H845 0.950 . S
C857 C853 1.393 . S
C857 C856 1.391 . S
H858 C866 0.950 . S
H859 C871 0.950 . S
H860 C868 0.950 . S
H861 C870 0.950 . S
H862 C872 0.950 . S
H863 C874 0.950 . S
H864 C876 0.950 . S
H865 C877 0.950 . S
C866 H858 0.950 . S
C866 C867 1.386 . S
C866 C868 1.391 . S
C867 C866 1.386 . S
C867 C871 1.393 . S
C868 H860 0.950 . S
C868 C866 1.391 . S
C868 C869 1.400 . S
C869 C868 1.400 . S
C869 C870 1.398 . S
C869 C875 1.491 . S
C870 H861 0.950 . S
C870 C869 1.398 . S
C870 C871 1.391 . S
C871 H859 0.950 . S
C871 C867 1.393 . S
C871 C870 1.391 . S
C872 H862 0.950 . S
C872 C873 1.386 . S
C872 C874 1.391 . S
C873 C872 1.386 . S
C873 C877 1.393 . S
C874 H863 0.950 . S
C874 C872 1.391 . S
C874 C875 1.400 . S
C875 C869 1.491 . S
C875 C874 1.400 . S
C875 C876 1.398 . S
C876 H864 0.950 . S
C876 C875 1.398 . S
C876 C877 1.391 . S
C877 H865 0.950 . S
C877 C873 1.393 . S
C877 C876 1.391 . S
H878 C886 0.950 . S
H879 C891 0.950 . S
H880 C888 0.950 . S
H881 C890 0.950 . S
H882 C892 0.950 . S
H883 C894 0.950 . S
H884 C896 0.950 . S
H885 C897 0.950 . S
C886 H878 0.950 . S
C886 C887 1.386 . S
C886 C888 1.391 . S
C887 C886 1.386 . S
C887 C891 1.393 . S
C888 H880 0.950 . S
C888 C886 1.391 . S
C888 C889 1.400 . S
C889 C888 1.400 . S
C889 C890 1.398 . S
C889 C895 1.491 . S
C890 H881 0.950 . S
C890 C889 1.398 . S
C890 C891 1.391 . S
C891 H879 0.950 . S
C891 C887 1.393 . S
C891 C890 1.391 . S
C892 H882 0.950 . S
C892 C893 1.386 . S
C892 C894 1.391 . S
C893 C892 1.386 . S
C893 C897 1.393 . S
C894 H883 0.950 . S
C894 C892 1.391 . S
C894 C895 1.400 . S
C895 C889 1.491 . S
C895 C894 1.400 . S
C895 C896 1.398 . S
C896 H884 0.950 . S
C896 C895 1.398 . S
C896 C897 1.391 . S
C897 H885 0.950 . S
C897 C893 1.393 . S
C897 C896 1.391 . S
H898 C906 0.950 . S
H899 C911 0.952 . S
H900 C908 0.950 . S
H901 C910 0.939 1_455 S
H902 C912 0.950 1_455 S
H903 C914 0.950 1_455 S
H904 C916 0.950 . S
H905 C917 0.950 . S
C906 H898 0.950 . S
C906 C907 1.386 . S
C906 C908 1.391 . S
C907 C906 1.386 . S
C907 C911 1.393 . S
C908 H900 0.950 . S
C908 C906 1.391 . S
C908 C909 1.400 . S
C909 C908 1.400 . S
C909 C910 1.398 . S
C909 C915 1.491 . S
C910 H901 0.939 1_655 S
C910 C909 1.398 . S
C910 C911 1.391 . S
C911 H899 0.952 . S
C911 C907 1.393 . S
C911 C910 1.391 . S
C912 H902 0.950 1_655 S
C912 C913 1.386 . S
C912 C914 1.391 . S
C913 C912 1.386 . S
C913 C917 1.393 . S
C914 H903 0.950 1_655 S
C914 C912 1.391 . S
C914 C915 1.400 . S
C915 C909 1.491 . S
C915 C914 1.400 . S
C915 C916 1.398 . S
C916 H904 0.950 . S
C916 C915 1.398 . S
C916 C917 1.391 . S
C917 H905 0.950 . S
C917 C913 1.393 . S
C917 C916 1.391 . S
H918 C926 0.950 . S
H919 C931 0.950 . S
H920 C928 0.950 . S
H921 C930 0.950 . S
H922 C932 0.950 1_545 S
H923 C934 0.950 . S
H924 C936 0.950 . S
H925 C937 0.950 . S
C926 H918 0.950 . S
C926 C927 1.386 . S
C926 C928 1.391 . S
C927 C926 1.386 . S
C927 C931 1.393 . S
C928 H920 0.950 . S
C928 C926 1.391 . S
C928 C929 1.400 . S
C929 C928 1.400 . S
C929 C930 1.398 . S
C929 C935 1.491 . S
C930 H921 0.950 . S
C930 C929 1.398 . S
C930 C931 1.391 . S
C931 H919 0.950 . S
C931 C927 1.393 . S
C931 C930 1.391 . S
C932 H922 0.950 1_565 S
C932 C933 1.386 . S
C932 C934 1.391 . S
C933 C932 1.386 . S
C933 C937 1.393 . S
C934 H923 0.950 . S
C934 C932 1.391 . S
C934 C935 1.400 . S
C935 C929 1.491 . S
C935 C934 1.400 . S
C935 C936 1.398 . S
C936 H924 0.950 . S
C936 C935 1.398 . S
C936 C937 1.391 . S
C937 H925 0.950 . S
C937 C933 1.393 . S
C937 C936 1.391 . S
H938 C946 0.950 . S
H939 C951 0.950 . S
H940 C948 0.950 . S
H941 C950 0.950 1_655 S
H942 C952 0.950 . S
H943 C954 0.950 1_655 S
H944 C956 0.950 . S
H945 C957 0.950 . S
C946 H938 0.950 . S
C946 C947 1.386 . S
C946 C948 1.391 . S
C947 C946 1.386 . S
C947 C951 1.393 1_455 S
C948 H940 0.950 . S
C948 C946 1.391 . S
C948 C949 1.400 . S
C949 C948 1.400 . S
C949 C950 1.398 . S
C949 C955 1.491 . S
C950 H941 0.950 1_455 S
C950 C949 1.398 . S
C950 C951 1.391 1_455 S
C951 H939 0.950 . S
C951 C947 1.393 1_655 S
C951 C950 1.391 1_655 S
C952 H942 0.950 . S
C952 C953 1.386 . S
C952 C954 1.391 . S
C953 C952 1.386 . S
C953 C957 1.393 . S
C954 H943 0.950 1_455 S
C954 C952 1.391 . S
C954 C955 1.400 . S
C955 C949 1.491 . S
C955 C954 1.400 . S
C955 C956 1.398 . S
C956 H944 0.950 . S
C956 C955 1.398 . S
C956 C957 1.391 . S
C957 H945 0.950 . S
C957 C953 1.393 . S
C957 C956 1.391 . S
H958 C966 0.950 . S
H959 C971 0.950 . S
H960 C968 0.950 . S
H961 C970 0.950 . S
H962 C972 0.950 . S
H963 C974 0.950 . S
H964 C976 0.950 . S
H965 C977 0.950 . S
C966 H958 0.950 . S
C966 C967 1.386 . S
C966 C968 1.391 . S
C967 C966 1.386 . S
C967 C971 1.393 . S
C968 H960 0.950 . S
C968 C966 1.391 . S
C968 C969 1.400 . S
C969 C968 1.400 . S
C969 C970 1.398 . S
C969 C975 1.491 . S
C970 H961 0.950 . S
C970 C969 1.398 . S
C970 C971 1.391 . S
C971 H959 0.950 . S
C971 C967 1.393 . S
C971 C970 1.391 . S
C972 H962 0.950 . S
C972 C973 1.386 . S
C972 C974 1.391 . S
C973 C972 1.386 . S
C973 C977 1.393 . S
C974 H963 0.950 . S
C974 C972 1.391 . S
C974 C975 1.400 . S
C975 C969 1.491 . S
C975 C974 1.400 . S
C975 C976 1.398 . S
C976 H964 0.950 . S
C976 C975 1.398 . S
C976 C977 1.391 . S
C977 H965 0.950 . S
C977 C973 1.393 . S
C977 C976 1.391 . S
H978 C986 0.950 . S
H979 C991 0.950 . S
H980 C988 0.950 . S
H981 C990 0.950 . S
H982 C992 0.950 . S
H983 C994 0.950 . S
H984 C996 0.950 1_455 S
H985 C997 0.944 1_455 S
C986 H978 0.950 . S
C986 C987 1.386 1_455 S
C986 C988 1.391 . S
C987 C986 1.386 1_655 S
C987 C991 1.393 . S
C988 H980 0.950 . S
C988 C986 1.391 . S
C988 C989 1.400 1_455 S
C989 C988 1.400 1_655 S
C989 C990 1.398 . S
C989 C995 1.491 . S
C990 H981 0.950 . S
C990 C989 1.398 . S
C990 C991 1.391 . S
C991 H979 0.950 . S
C991 C987 1.393 . S
C991 C990 1.391 . S
C992 H982 0.950 . S
C992 C993 1.386 . S
C992 C994 1.391 . S
C993 C992 1.386 . S
C993 C997 1.393 . S
C994 H983 0.950 . S
C994 C992 1.391 . S
C994 C995 1.400 . S
C995 C989 1.491 . S
C995 C994 1.400 . S
C995 C996 1.398 . S
C996 H984 0.950 1_655 S
C996 C995 1.398 . S
C996 C997 1.391 . S
C997 H985 0.944 1_655 S
C997 C993 1.393 . S
C997 C996 1.391 . S
H998 C1006 0.950 . S
H999 C1011 0.950 . S
H1000 C1008 0.950 . S
H1001 C1010 0.950 . S
H1002 C1012 0.950 . S
H1003 C1014 0.950 . S
H1004 C1016 0.950 . S
H1005 C1017 0.950 . S
C1006 H998 0.950 . S
C1006 C1007 1.386 . S
C1006 C1008 1.391 . S
C1007 C1006 1.386 . S
C1007 C1011 1.393 . S
C1008 H1000 0.950 . S
C1008 C1006 1.391 . S
C1008 C1009 1.400 . S
C1009 C1008 1.400 . S
C1009 C1010 1.398 . S
C1009 C1015 1.491 . S
C1010 H1001 0.950 . S
C1010 C1009 1.398 . S
C1010 C1011 1.391 . S
C1011 H999 0.950 . S
C1011 C1007 1.393 . S
C1011 C1010 1.391 . S
C1012 H1002 0.950 . S
C1012 C1013 1.386 . S
C1012 C1014 1.391 . S
C1013 C1012 1.386 . S
C1013 C1017 1.393 . S
C1014 H1003 0.950 . S
C1014 C1012 1.391 . S
C1014 C1015 1.400 . S
C1015 C1009 1.491 . S
C1015 C1014 1.400 . S
C1015 C1016 1.398 . S
C1016 H1004 0.950 . S
C1016 C1015 1.398 . S
C1016 C1017 1.391 . S
C1017 H1005 0.950 . S
C1017 C1013 1.393 . S
C1017 C1016 1.391 . S
H1018 C1026 0.950 1_565 S
H1019 C1031 0.950 . S
H1020 C1028 0.950 1_565 S
H1021 C1030 0.950 . S
H1022 C1032 0.950 . S
H1023 C1034 0.950 . S
H1024 C1036 0.950 . S
H1025 C1037 0.950 . S
C1026 H1018 0.950 1_545 S
C1026 C1027 1.386 . S
C1026 C1028 1.391 . S
C1027 C1026 1.386 . S
C1027 C1031 1.393 . S
C1028 H1020 0.950 1_545 S
C1028 C1026 1.391 . S
C1028 C1029 1.400 . S
C1029 C1028 1.400 . S
C1029 C1030 1.398 . S
C1029 C1035 1.491 . S
C1030 H1021 0.950 . S
C1030 C1029 1.398 . S
C1030 C1031 1.391 . S
C1031 H1019 0.950 . S
C1031 C1027 1.393 . S
C1031 C1030 1.391 . S
C1032 H1022 0.950 . S
C1032 C1033 1.386 . S
C1032 C1034 1.391 . S
C1033 C1032 1.386 . S
C1033 C1037 1.393 1_545 S
C1034 H1023 0.950 . S
C1034 C1032 1.391 . S
C1034 C1035 1.400 . S
C1035 C1029 1.491 . S
C1035 C1034 1.400 . S
C1035 C1036 1.398 1_545 S
C1036 H1024 0.950 . S
C1036 C1035 1.398 1_565 S
C1036 C1037 1.391 . S
C1037 H1025 0.950 . S
C1037 C1033 1.393 1_565 S
C1037 C1036 1.391 . S
H1038 C1046 0.950 . S
H1039 C1051 0.950 . S
H1040 C1048 0.950 1_455 S
H1041 C1050 0.950 . S
H1042 C1052 0.950 . S
H1043 C1054 0.950 . S
H1044 C1056 0.950 . S
H1045 C1057 0.950 . S
C1046 H1038 0.950 . S
C1046 C1047 1.386 . S
C1046 C1048 1.391 . S
C1047 C1046 1.386 . S
C1047 C1051 1.393 . S
C1048 H1040 0.950 1_655 S
C1048 C1046 1.391 . S
C1048 C1049 1.400 . S
C1049 C1048 1.400 . S
C1049 C1050 1.398 . S
C1049 C1055 1.491 1_655 S
C1050 H1041 0.950 . S
C1050 C1049 1.398 . S
C1050 C1051 1.391 . S
C1051 H1039 0.950 . S
C1051 C1047 1.393 . S
C1051 C1050 1.391 . S
C1052 H1042 0.950 . S
C1052 C1053 1.386 . S
C1052 C1054 1.391 . S
C1053 C1052 1.386 . S
C1053 C1057 1.393 . S
C1054 H1043 0.950 . S
C1054 C1052 1.391 . S
C1054 C1055 1.400 . S
C1055 C1049 1.491 1_455 S
C1055 C1054 1.400 . S
C1055 C1056 1.398 . S
C1056 H1044 0.950 . S
C1056 C1055 1.398 . S
C1056 C1057 1.391 . S
C1057 H1045 0.950 . S
C1057 C1053 1.393 . S
C1057 C1056 1.391 . S
H1058 C1066 0.950 . S
H1059 C1071 0.950 . S
H1060 C1068 0.950 . S
H1061 C1070 0.950 . S
H1062 C1072 0.950 . S
H1063 C1074 0.950 . S
H1064 C1076 0.950 . S
H1065 C1077 0.950 . S
C1066 H1058 0.950 . S
C1066 C1067 1.386 . S
C1066 C1068 1.391 . S
C1067 C1066 1.386 . S
C1067 C1071 1.393 . S
C1068 H1060 0.950 . S
C1068 C1066 1.391 . S
C1068 C1069 1.400 . S
C1069 C1068 1.400 . S
C1069 C1070 1.398 . S
C1069 C1075 1.491 . S
C1070 H1061 0.950 . S
C1070 C1069 1.398 . S
C1070 C1071 1.391 . S
C1071 H1059 0.950 . S
C1071 C1067 1.393 . S
C1071 C1070 1.391 . S
C1072 H1062 0.950 . S
C1072 C1073 1.386 . S
C1072 C1074 1.391 . S
C1073 C1072 1.386 . S
C1073 C1077 1.393 . S
C1074 H1063 0.950 . S
C1074 C1072 1.391 . S
C1074 C1075 1.400 . S
C1075 C1069 1.491 . S
C1075 C1074 1.400 . S
C1075 C1076 1.398 . S
C1076 H1064 0.950 . S
C1076 C1075 1.398 . S
C1076 C1077 1.391 . S
C1077 H1065 0.950 . S
C1077 C1073 1.393 . S
C1077 C1076 1.391 . S
H1078 C1086 0.950 . S
H1079 C1091 0.950 . S
H1080 C1088 0.950 . S
H1081 C1090 0.950 . S
H1082 C1092 0.950 . S
H1083 C1094 0.950 . S
H1084 C1096 0.950 . S
H1085 C1097 0.950 1_565 S
C1086 H1078 0.950 . S
C1086 C1087 1.386 . S
C1086 C1088 1.391 . S
C1087 C1086 1.386 . S
C1087 C1091 1.393 1_565 S
C1088 H1080 0.950 . S
C1088 C1086 1.391 . S
C1088 C1089 1.400 . S
C1089 C1088 1.400 . S
C1089 C1090 1.398 1_565 S
C1089 C1095 1.491 1_565 S
C1090 H1081 0.950 . S
C1090 C1089 1.398 1_545 S
C1090 C1091 1.391 . S
C1091 H1079 0.950 . S
C1091 C1087 1.393 1_545 S
C1091 C1090 1.391 . S
C1092 H1082 0.950 . S
C1092 C1093 1.386 . S
C1092 C1094 1.391 . S
C1093 C1092 1.386 . S
C1093 C1097 1.393 . S
C1094 H1083 0.950 . S
C1094 C1092 1.391 . S
C1094 C1095 1.400 . S
C1095 C1089 1.491 1_545 S
C1095 C1094 1.400 . S
C1095 C1096 1.398 1_545 S
C1096 H1084 0.950 . S
C1096 C1095 1.398 1_565 S
C1096 C1097 1.391 1_565 S
C1097 H1085 0.950 1_545 S
C1097 C1093 1.393 . S
C1097 C1096 1.391 1_545 S
H1098 C1106 0.950 . S
H1099 C1111 0.950 . S
H1100 C1108 0.950 . S
H1101 C1110 0.950 . S
H1102 C1112 0.950 . S
H1103 C1114 0.950 . S
H1104 C1116 0.950 . S
H1105 C1117 0.950 . S
C1106 H1098 0.950 . S
C1106 C1107 1.386 . S
C1106 C1108 1.391 . S
C1107 C1106 1.386 . S
C1107 C1111 1.393 . S
C1108 H1100 0.950 . S
C1108 C1106 1.391 . S
C1108 C1109 1.400 . S
C1109 C1108 1.400 . S
C1109 C1110 1.398 . S
C1109 C1115 1.491 . S
C1110 H1101 0.950 . S
C1110 C1109 1.398 . S
C1110 C1111 1.391 . S
C1111 H1099 0.950 . S
C1111 C1107 1.393 . S
C1111 C1110 1.391 . S
C1112 H1102 0.950 . S
C1112 C1113 1.386 . S
C1112 C1114 1.391 . S
C1113 C1112 1.386 . S
C1113 C1117 1.393 . S
C1114 H1103 0.950 . S
C1114 C1112 1.391 . S
C1114 C1115 1.400 . S
C1115 C1109 1.491 . S
C1115 C1114 1.400 . S
C1115 C1116 1.398 . S
C1116 H1104 0.950 . S
C1116 C1115 1.398 . S
C1116 C1117 1.391 . S
C1117 H1105 0.950 . S
C1117 C1113 1.393 . S
C1117 C1116 1.391 . S
H1118 C1126 0.950 . S
H1119 C1131 0.950 . S
H1120 C1128 0.950 . S
H1121 C1130 0.950 . S
H1122 C1132 0.950 . S
H1123 C1134 0.950 . S
H1124 C1136 0.950 . S
H1125 C1137 0.950 . S
C1126 H1118 0.950 . S
C1126 C1127 1.386 . S
C1126 C1128 1.391 . S
C1127 C1126 1.386 . S
C1127 C1131 1.393 . S
C1128 H1120 0.950 . S
C1128 C1126 1.391 . S
C1128 C1129 1.400 . S
C1129 C1128 1.400 . S
C1129 C1130 1.398 . S
C1129 C1135 1.491 . S
C1130 H1121 0.950 . S
C1130 C1129 1.398 . S
C1130 C1131 1.391 . S
C1131 H1119 0.950 . S
C1131 C1127 1.393 . S
C1131 C1130 1.391 . S
C1132 H1122 0.950 . S
C1132 C1133 1.386 . S
C1132 C1134 1.391 . S
C1133 C1132 1.386 . S
C1133 C1137 1.393 . S
C1134 H1123 0.950 . S
C1134 C1132 1.391 . S
C1134 C1135 1.400 . S
C1135 C1129 1.491 . S
C1135 C1134 1.400 . S
C1135 C1136 1.398 . S
C1136 H1124 0.950 . S
C1136 C1135 1.398 . S
C1136 C1137 1.391 . S
C1137 H1125 0.950 . S
C1137 C1133 1.393 . S
C1137 C1136 1.391 . S
H1138 C1146 0.950 . S
H1139 C1151 0.950 . S
H1140 C1148 0.950 . S
H1141 C1150 0.950 . S
H1142 C1152 0.950 . S
H1143 C1154 0.950 . S
H1144 C1156 0.950 . S
H1145 C1157 0.950 . S
C1146 H1138 0.950 . S
C1146 C1147 1.386 . S
C1146 C1148 1.391 . S
C1147 C1146 1.386 . S
C1147 C1151 1.393 . S
C1148 H1140 0.950 . S
C1148 C1146 1.391 . S
C1148 C1149 1.400 . S
C1149 C1148 1.400 . S
C1149 C1150 1.398 . S
C1149 C1155 1.491 . S
C1150 H1141 0.950 . S
C1150 C1149 1.398 . S
C1150 C1151 1.391 . S
C1151 H1139 0.950 . S
C1151 C1147 1.393 . S
C1151 C1150 1.391 . S
C1152 H1142 0.950 . S
C1152 C1153 1.386 . S
C1152 C1154 1.391 . S
C1153 C1152 1.386 . S
C1153 C1157 1.393 . S
C1154 H1143 0.950 . S
C1154 C1152 1.391 . S
C1154 C1155 1.400 . S
C1155 C1149 1.491 . S
C1155 C1154 1.400 . S
C1155 C1156 1.398 . S
C1156 H1144 0.950 . S
C1156 C1155 1.398 . S
C1156 C1157 1.391 . S
C1157 H1145 0.950 . S
C1157 C1153 1.393 . S
C1157 C1156 1.391 . S
H1158 C1166 0.950 . S
H1159 C1171 0.950 . S
H1160 C1168 0.950 . S
H1161 C1170 0.950 . S
H1162 C1172 0.950 . S
H1163 C1174 0.950 . S
H1164 C1176 0.950 . S
H1165 C1177 0.950 . S
C1166 H1158 0.950 . S
C1166 C1167 1.386 . S
C1166 C1168 1.391 . S
C1167 C1166 1.386 . S
C1167 C1171 1.393 . S
C1168 H1160 0.950 . S
C1168 C1166 1.391 . S
C1168 C1169 1.400 . S
C1169 C1168 1.400 . S
C1169 C1170 1.398 . S
C1169 C1175 1.491 . S
C1170 H1161 0.950 . S
C1170 C1169 1.398 . S
C1170 C1171 1.391 . S
C1171 H1159 0.950 . S
C1171 C1167 1.393 . S
C1171 C1170 1.391 . S
C1172 H1162 0.950 . S
C1172 C1173 1.386 . S
C1172 C1174 1.391 . S
C1173 C1172 1.386 . S
C1173 C1177 1.393 . S
C1174 H1163 0.950 . S
C1174 C1172 1.391 . S
C1174 C1175 1.400 . S
C1175 C1169 1.491 . S
C1175 C1174 1.400 . S
C1175 C1176 1.398 . S
C1176 H1164 0.950 . S
C1176 C1175 1.398 . S
C1176 C1177 1.391 . S
C1177 H1165 0.950 . S
C1177 C1173 1.393 . S
C1177 C1176 1.391 . S
H1178 C1186 0.950 . S
H1179 C1191 0.950 . S
H1180 C1188 0.950 . S
H1181 C1190 0.950 . S
H1182 C1192 0.950 . S
H1183 C1194 0.950 . S
H1184 C1196 0.950 . S
H1185 C1197 0.950 . S
C1186 H1178 0.950 . S
C1186 C1187 1.386 . S
C1186 C1188 1.391 . S
C1187 C1186 1.386 . S
C1187 C1191 1.393 . S
C1188 H1180 0.950 . S
C1188 C1186 1.391 . S
C1188 C1189 1.400 . S
C1189 C1188 1.400 . S
C1189 C1190 1.398 . S
C1189 C1195 1.491 . S
C1190 H1181 0.950 . S
C1190 C1189 1.398 . S
C1190 C1191 1.391 . S
C1191 H1179 0.950 . S
C1191 C1187 1.393 . S
C1191 C1190 1.391 . S
C1192 H1182 0.950 . S
C1192 C1193 1.386 . S
C1192 C1194 1.391 . S
C1193 C1192 1.386 . S
C1193 C1197 1.393 . S
C1194 H1183 0.950 . S
C1194 C1192 1.391 . S
C1194 C1195 1.400 . S
C1195 C1189 1.491 . S
C1195 C1194 1.400 . S
C1195 C1196 1.398 . S
C1196 H1184 0.950 . S
C1196 C1195 1.398 . S
C1196 C1197 1.391 . S
C1197 H1185 0.950 . S
C1197 C1193 1.393 . S
C1197 C1196 1.391 . S
H1198 C1206 0.950 . S
H1199 C1211 0.950 . S
H1200 C1208 0.950 . S
H1201 C1210 0.950 . S
H1202 C1212 0.950 . S
H1203 C1214 0.950 . S
H1204 C1216 0.950 . S
H1205 C1217 0.950 . S
C1206 H1198 0.950 . S
C1206 C1207 1.386 . S
C1206 C1208 1.391 . S
C1207 C1206 1.386 . S
C1207 C1211 1.393 . S
C1208 H1200 0.950 . S
C1208 C1206 1.391 . S
C1208 C1209 1.400 . S
C1209 C1208 1.400 . S
C1209 C1210 1.398 . S
C1209 C1215 1.491 . S
C1210 H1201 0.950 . S
C1210 C1209 1.398 . S
C1210 C1211 1.391 . S
C1211 H1199 0.950 . S
C1211 C1207 1.393 . S
C1211 C1210 1.391 . S
C1212 H1202 0.950 . S
C1212 C1213 1.386 . S
C1212 C1214 1.391 . S
C1213 C1212 1.386 . S
C1213 C1217 1.393 . S
C1214 H1203 0.950 . S
C1214 C1212 1.391 . S
C1214 C1215 1.400 . S
C1215 C1209 1.491 . S
C1215 C1214 1.400 . S
C1215 C1216 1.398 . S
C1216 H1204 0.950 . S
C1216 C1215 1.398 . S
C1216 C1217 1.391 . S
C1217 H1205 0.950 . S
C1217 C1213 1.393 . S
C1217 C1216 1.391 . S
H1218 C1226 0.950 . S
H1219 C1231 0.950 . S
H1220 C1228 0.950 . S
H1221 C1230 0.950 . S
H1222 C1232 0.950 . S
H1223 C1234 0.950 . S
H1224 C1236 0.950 . S
H1225 C1237 0.950 . S
C1226 H1218 0.950 . S
C1226 C1227 1.386 . S
C1226 C1228 1.391 . S
C1227 C1226 1.386 . S
C1227 C1231 1.393 . S
C1228 H1220 0.950 . S
C1228 C1226 1.391 . S
C1228 C1229 1.400 . S
C1229 C1228 1.400 . S
C1229 C1230 1.398 . S
C1229 C1235 1.491 . S
C1230 H1221 0.950 . S
C1230 C1229 1.398 . S
C1230 C1231 1.391 . S
C1231 H1219 0.950 . S
C1231 C1227 1.393 . S
C1231 C1230 1.391 . S
C1232 H1222 0.950 . S
C1232 C1233 1.386 . S
C1232 C1234 1.391 . S
C1233 C1232 1.386 . S
C1233 C1237 1.393 . S
C1234 H1223 0.950 . S
C1234 C1232 1.391 . S
C1234 C1235 1.400 . S
C1235 C1229 1.491 . S
C1235 C1234 1.400 . S
C1235 C1236 1.398 . S
C1236 H1224 0.950 . S
C1236 C1235 1.398 . S
C1236 C1237 1.391 . S
C1237 H1225 0.950 . S
C1237 C1233 1.393 . S
C1237 C1236 1.391 . S
H1238 C1246 0.950 . S
H1239 C1251 0.950 . S
H1240 C1248 0.950 . S
H1241 C1250 0.950 . S
H1242 C1252 0.950 . S
H1243 C1254 0.950 . S
H1244 C1256 0.950 . S
H1245 C1257 0.950 . S
C1246 H1238 0.950 . S
C1246 C1247 1.386 . S
C1246 C1248 1.391 . S
C1247 C1246 1.386 . S
C1247 C1251 1.393 . S
C1248 H1240 0.950 . S
C1248 C1246 1.391 . S
C1248 C1249 1.400 . S
C1249 C1248 1.400 . S
C1249 C1250 1.398 . S
C1249 C1255 1.491 . S
C1250 H1241 0.950 . S
C1250 C1249 1.398 . S
C1250 C1251 1.391 . S
C1251 H1239 0.950 . S
C1251 C1247 1.393 . S
C1251 C1250 1.391 . S
C1252 H1242 0.950 . S
C1252 C1253 1.386 . S
C1252 C1254 1.391 . S
C1253 C1252 1.386 . S
C1253 C1257 1.393 . S
C1254 H1243 0.950 . S
C1254 C1252 1.391 . S
C1254 C1255 1.400 . S
C1255 C1249 1.491 . S
C1255 C1254 1.400 . S
C1255 C1256 1.398 . S
C1256 H1244 0.950 . S
C1256 C1255 1.398 . S
C1256 C1257 1.391 . S
C1257 H1245 0.950 . S
C1257 C1253 1.393 . S
C1257 C1256 1.391 . S
H1258 C1266 0.950 . S
H1259 C1271 0.950 . S
H1260 C1268 0.950 . S
H1261 C1270 0.950 . S
H1262 C1272 0.950 . S
H1263 C1274 0.950 . S
H1264 C1276 0.950 . S
H1265 C1277 0.950 . S
C1266 H1258 0.950 . S
C1266 C1267 1.386 . S
C1266 C1268 1.391 . S
C1267 C1266 1.386 . S
C1267 C1271 1.393 . S
C1268 H1260 0.950 . S
C1268 C1266 1.391 . S
C1268 C1269 1.400 . S
C1269 C1268 1.400 . S
C1269 C1270 1.398 . S
C1269 C1275 1.491 . S
C1270 H1261 0.950 . S
C1270 C1269 1.398 . S
C1270 C1271 1.391 . S
C1271 H1259 0.950 . S
C1271 C1267 1.393 . S
C1271 C1270 1.391 . S
C1272 H1262 0.950 . S
C1272 C1273 1.386 . S
C1272 C1274 1.391 . S
C1273 C1272 1.386 . S
C1273 C1277 1.393 . S
C1274 H1263 0.950 . S
C1274 C1272 1.391 . S
C1274 C1275 1.400 . S
C1275 C1269 1.491 . S
C1275 C1274 1.400 . S
C1275 C1276 1.398 . S
C1276 H1264 0.950 . S
C1276 C1275 1.398 . S
C1276 C1277 1.391 . S
C1277 H1265 0.950 . S
C1277 C1273 1.393 . S
C1277 C1276 1.391 . S
H1278 C1286 0.950 . S
H1279 C1291 0.950 . S
H1280 C1288 0.950 . S
H1281 C1290 0.950 . S
H1282 C1292 0.950 . S
H1283 C1294 0.950 . S
H1284 C1296 0.950 . S
H1285 C1297 0.950 . S
C1286 H1278 0.950 . S
C1286 C1287 1.386 . S
C1286 C1288 1.391 . S
C1287 C1286 1.386 . S
C1287 C1291 1.393 . S
C1288 H1280 0.950 . S
C1288 C1286 1.391 . S
C1288 C1289 1.400 . S
C1289 C1288 1.400 . S
C1289 C1290 1.398 . S
C1289 C1295 1.491 . S
C1290 H1281 0.950 . S
C1290 C1289 1.398 . S
C1290 C1291 1.391 . S
C1291 H1279 0.950 . S
C1291 C1287 1.393 . S
C1291 C1290 1.391 . S
C1292 H1282 0.950 . S
C1292 C1293 1.386 . S
C1292 C1294 1.391 1_455 S
C1293 C1292 1.386 . S
C1293 C1297 1.393 . S
C1294 H1283 0.950 . S
C1294 C1292 1.391 1_655 S
C1294 C1295 1.400 . S
C1295 C1289 1.491 . S
C1295 C1294 1.400 . S
C1295 C1296 1.398 1_655 S
C1296 H1284 0.950 . S
C1296 C1295 1.398 1_455 S
C1296 C1297 1.391 . S
C1297 H1285 0.950 . S
C1297 C1293 1.393 . S
C1297 C1296 1.391 . S
H1298 C1306 0.950 . S
H1299 C1311 0.950 . S
H1300 C1308 0.950 . S
H1301 C1310 0.950 . S
H1302 C1312 0.950 . S
H1303 C1314 0.950 . S
H1304 C1316 0.950 . S
H1305 C1317 0.950 . S
C1306 H1298 0.950 . S
C1306 C1307 1.386 . S
C1306 C1308 1.391 . S
C1307 C1306 1.386 . S
C1307 C1311 1.393 . S
C1308 H1300 0.950 . S
C1308 C1306 1.391 . S
C1308 C1309 1.400 . S
C1309 C1308 1.400 . S
C1309 C1310 1.398 . S
C1309 C1315 1.491 . S
C1310 H1301 0.950 . S
C1310 C1309 1.398 . S
C1310 C1311 1.391 . S
C1311 H1299 0.950 . S
C1311 C1307 1.393 . S
C1311 C1310 1.391 . S
C1312 H1302 0.950 . S
C1312 C1313 1.386 . S
C1312 C1314 1.391 . S
C1313 C1312 1.386 . S
C1313 C1317 1.393 . S
C1314 H1303 0.950 . S
C1314 C1312 1.391 . S
C1314 C1315 1.400 . S
C1315 C1309 1.491 . S
C1315 C1314 1.400 . S
C1315 C1316 1.398 . S
C1316 H1304 0.950 . S
C1316 C1315 1.398 . S
C1316 C1317 1.391 . S
C1317 H1305 0.950 . S
C1317 C1313 1.393 . S
C1317 C1316 1.391 . S
H1318 C1326 0.950 . S
H1319 C1331 0.950 . S
H1320 C1328 0.950 . S
H1321 C1330 0.950 . S
H1322 C1332 0.950 . S
H1323 C1334 0.950 . S
H1324 C1336 0.950 . S
H1325 C1337 0.950 . S
C1326 H1318 0.950 . S
C1326 C1327 1.386 . S
C1326 C1328 1.391 1_565 S
C1327 C1326 1.386 . S
C1327 C1331 1.393 . S
C1328 H1320 0.950 . S
C1328 C1326 1.391 1_545 S
C1328 C1329 1.400 . S
C1329 C1328 1.400 . S
C1329 C1330 1.398 . S
C1329 C1335 1.491 . S
C1330 H1321 0.950 . S
C1330 C1329 1.398 . S
C1330 C1331 1.391 1_545 S
C1331 H1319 0.950 . S
C1331 C1327 1.393 . S
C1331 C1330 1.391 1_565 S
C1332 H1322 0.950 . S
C1332 C1333 1.386 . S
C1332 C1334 1.391 . S
C1333 C1332 1.386 . S
C1333 C1337 1.393 . S
C1334 H1323 0.950 . S
C1334 C1332 1.391 . S
C1334 C1335 1.400 . S
C1335 C1329 1.491 . S
C1335 C1334 1.400 . S
C1335 C1336 1.398 . S
C1336 H1324 0.950 . S
C1336 C1335 1.398 . S
C1336 C1337 1.391 . S
C1337 H1325 0.950 . S
C1337 C1333 1.393 . S
C1337 C1336 1.391 . S
H1338 C1346 0.950 . S
H1339 C1351 0.950 . S
H1340 C1348 0.950 . S
H1341 C1350 0.950 . S
H1342 C1352 0.950 . S
H1343 C1354 0.950 . S
H1344 C1356 0.950 . S
H1345 C1357 0.950 . S
C1346 H1338 0.950 . S
C1346 C1347 1.386 . S
C1346 C1348 1.391 . S
C1347 C1346 1.386 . S
C1347 C1351 1.393 . S
C1348 H1340 0.950 . S
C1348 C1346 1.391 . S
C1348 C1349 1.400 . S
C1349 C1348 1.400 . S
C1349 C1350 1.398 . S
C1349 C1355 1.491 . S
C1350 H1341 0.950 . S
C1350 C1349 1.398 . S
C1350 C1351 1.391 . S
C1351 H1339 0.950 . S
C1351 C1347 1.393 . S
C1351 C1350 1.391 . S
C1352 H1342 0.950 . S
C1352 C1353 1.386 . S
C1352 C1354 1.391 1_545 S
C1353 C1352 1.386 . S
C1353 C1357 1.393 . S
C1354 H1343 0.950 . S
C1354 C1352 1.391 1_565 S
C1354 C1355 1.400 . S
C1355 C1349 1.491 . S
C1355 C1354 1.400 . S
C1355 C1356 1.398 1_565 S
C1356 H1344 0.950 . S
C1356 C1355 1.398 1_545 S
C1356 C1357 1.391 . S
C1357 H1345 0.950 . S
C1357 C1353 1.393 . S
C1357 C1356 1.391 . S
H1358 C1366 0.950 . S
H1359 C1371 0.950 1_545 S
H1360 C1368 0.950 . S
H1361 C1370 0.950 . S
H1362 C1372 0.950 . S
H1363 C1374 0.950 . S
H1364 C1376 0.950 . S
H1365 C1377 0.950 . S
C1366 H1358 0.950 . S
C1366 C1367 1.386 . S
C1366 C1368 1.391 . S
C1367 C1366 1.386 . S
C1367 C1371 1.393 . S
C1368 H1360 0.950 . S
C1368 C1366 1.391 . S
C1368 C1369 1.400 . S
C1369 C1368 1.400 . S
C1369 C1370 1.398 . S
C1369 C1375 1.491 . S
C1370 H1361 0.950 . S
C1370 C1369 1.398 . S
C1370 C1371 1.391 . S
C1371 H1359 0.950 1_565 S
C1371 C1367 1.393 . S
C1371 C1370 1.391 . S
C1372 H1362 0.950 . S
C1372 C1373 1.386 . S
C1372 C1374 1.391 1_655 S
C1373 C1372 1.386 . S
C1373 C1377 1.393 . S
C1374 H1363 0.950 . S
C1374 C1372 1.391 1_455 S
C1374 C1375 1.400 . S
C1375 C1369 1.491 . S
C1375 C1374 1.400 . S
C1375 C1376 1.398 . S
C1376 H1364 0.950 . S
C1376 C1375 1.398 . S
C1376 C1377 1.391 1_455 S
C1377 H1365 0.950 . S
C1377 C1373 1.393 . S
C1377 C1376 1.391 1_655 S
H1378 C1386 0.950 . S
H1379 C1391 0.950 . S
H1380 C1388 0.950 . S
H1381 C1390 0.950 . S
H1382 C1392 0.950 . S
H1383 C1394 0.950 . S
H1384 C1396 0.950 . S
H1385 C1397 0.950 . S
C1386 H1378 0.950 . S
C1386 C1387 1.386 . S
C1386 C1388 1.391 . S
C1387 C1386 1.386 . S
C1387 C1391 1.393 . S
C1388 H1380 0.950 . S
C1388 C1386 1.391 . S
C1388 C1389 1.400 . S
C1389 C1388 1.400 . S
C1389 C1390 1.398 . S
C1389 C1395 1.491 . S
C1390 H1381 0.950 . S
C1390 C1389 1.398 . S
C1390 C1391 1.391 . S
C1391 H1379 0.950 . S
C1391 C1387 1.393 . S
C1391 C1390 1.391 . S
C1392 H1382 0.950 . S
C1392 C1393 1.386 . S
C1392 C1394 1.391 . S
C1393 C1392 1.386 . S
C1393 C1397 1.393 . S
C1394 H1383 0.950 . S
C1394 C1392 1.391 . S
C1394 C1395 1.400 . S
C1395 C1389 1.491 . S
C1395 C1394 1.400 . S
C1395 C1396 1.398 . S
C1396 H1384 0.950 . S
C1396 C1395 1.398 . S
C1396 C1397 1.391 . S
C1397 H1385 0.950 . S
C1397 C1393 1.393 . S
C1397 C1396 1.391 . S
H1398 C1406 0.950 . S
H1399 C1411 0.950 . S
H1400 C1408 0.950 . S
H1401 C1410 0.950 . S
H1402 C1412 0.950 . S
H1403 C1414 0.950 . S
H1404 C1416 0.950 . S
H1405 C1417 0.950 . S
C1406 H1398 0.950 . S
C1406 C1407 1.386 . S
C1406 C1408 1.391 . S
C1407 C1406 1.386 . S
C1407 C1411 1.393 . S
C1408 H1400 0.950 . S
C1408 C1406 1.391 . S
C1408 C1409 1.400 . S
C1409 C1408 1.400 . S
C1409 C1410 1.398 . S
C1409 C1415 1.491 . S
C1410 H1401 0.950 . S
C1410 C1409 1.398 . S
C1410 C1411 1.391 . S
C1411 H1399 0.950 . S
C1411 C1407 1.393 . S
C1411 C1410 1.391 . S
C1412 H1402 0.950 . S
C1412 C1413 1.386 . S
C1412 C1414 1.391 . S
C1413 C1412 1.386 . S
C1413 C1417 1.393 . S
C1414 H1403 0.950 . S
C1414 C1412 1.391 . S
C1414 C1415 1.400 . S
C1415 C1409 1.491 . S
C1415 C1414 1.400 . S
C1415 C1416 1.398 . S
C1416 H1404 0.950 . S
C1416 C1415 1.398 . S
C1416 C1417 1.391 . S
C1417 H1405 0.950 . S
C1417 C1413 1.393 . S
C1417 C1416 1.391 . S
H1418 C1426 0.950 . S
H1419 C1431 0.950 . S
H1420 C1428 0.950 . S
H1421 C1430 0.950 . S
H1422 C1432 0.950 . S
H1423 C1434 0.950 . S
H1424 C1436 0.950 . S
H1425 C1437 0.950 . S
C1426 H1418 0.950 . S
C1426 C1427 1.386 . S
C1426 C1428 1.391 . S
C1427 C1426 1.386 . S
C1427 C1431 1.393 . S
C1428 H1420 0.950 . S
C1428 C1426 1.391 . S
C1428 C1429 1.400 . S
C1429 C1428 1.400 . S
C1429 C1430 1.398 . S
C1429 C1435 1.491 . S
C1430 H1421 0.950 . S
C1430 C1429 1.398 . S
C1430 C1431 1.391 . S
C1431 H1419 0.950 . S
C1431 C1427 1.393 . S
C1431 C1430 1.391 . S
C1432 H1422 0.950 . S
C1432 C1433 1.386 . S
C1432 C1434 1.391 . S
C1433 C1432 1.386 . S
C1433 C1437 1.393 . S
C1434 H1423 0.950 . S
C1434 C1432 1.391 . S
C1434 C1435 1.400 . S
C1435 C1429 1.491 . S
C1435 C1434 1.400 . S
C1435 C1436 1.398 . S
C1436 H1424 0.950 . S
C1436 C1435 1.398 . S
C1436 C1437 1.391 . S
C1437 H1425 0.950 . S
C1437 C1433 1.393 . S
C1437 C1436 1.391 . S
H1438 C1446 0.950 . S
H1439 C1451 0.950 . S
H1440 C1448 0.950 . S
H1441 C1450 0.950 . S
H1442 C1452 0.950 . S
H1443 C1454 0.950 . S
H1444 C1456 0.950 . S
H1445 C1457 0.950 . S
C1446 H1438 0.950 . S
C1446 C1447 1.386 . S
C1446 C1448 1.391 . S
C1447 C1446 1.386 . S
C1447 C1451 1.393 . S
C1448 H1440 0.950 . S
C1448 C1446 1.391 . S
C1448 C1449 1.400 . S
C1449 C1448 1.400 . S
C1449 C1450 1.398 . S
C1449 C1455 1.491 . S
C1450 H1441 0.950 . S
C1450 C1449 1.398 . S
C1450 C1451 1.391 . S
C1451 H1439 0.950 . S
C1451 C1447 1.393 . S
C1451 C1450 1.391 . S
C1452 H1442 0.950 . S
C1452 C1453 1.386 . S
C1452 C1454 1.391 . S
C1453 C1452 1.386 . S
C1453 C1457 1.393 . S
C1454 H1443 0.950 . S
C1454 C1452 1.391 . S
C1454 C1455 1.400 . S
C1455 C1449 1.491 . S
C1455 C1454 1.400 . S
C1455 C1456 1.398 . S
C1456 H1444 0.950 . S
C1456 C1455 1.398 . S
C1456 C1457 1.391 . S
C1457 H1445 0.950 . S
C1457 C1453 1.393 . S
C1457 C1456 1.391 . S
C387 C4 0.947 . S
C393 C62 0.865 . S
C407 C20 0.838 . S
C413 C25 0.976 . S
C427 C41 0.836 . S
C433 C46 0.974 . S
C447 C67 0.952 . S
C453 C103 0.883 . S
C467 C125 0.871 . S
C473 C91 0.942 . S
C487 C109 0.967 . S
C493 C83 0.860 . S
C507 C187 0.912 . S
C513 C130 0.918 . S
C527 C146 0.845 . S
C533 C154 0.963 . S
C547 C175 0.931 . S
C553 C166 0.887 . S
C567 C229 0.909 . S
C573 C196 0.929 . S
C587 C217 0.961 . S
C593 C251 0.870 . S
C607 C208 0.899 . S
C613 C235 0.924 . S
C627 C259 0.970 . S
C633 C313 0.855 . S
C647 C271 0.853 . S
C653 C277 0.971 . S
C667 C293 0.836 . S
C673 C301 0.975 . S
C687 C356 0.839 . S
C693 C319 0.969 . S
C707 C376 0.889 . S
C713 C340 0.947 . S
C727 C335 0.908 . S
C733 C364 0.919 . S
C747 C3 1.306 1_545 S
C753 C108 1.305 . S
C767 C66 1.335 1_455 S
C773 C24 1.346 . S
C787 C100 1.350 . S
C793 C45 1.346 . S
C807 C129 1.316 . S
C813 C234 1.307 . S
C827 C163 1.348 . S
C833 C205 1.349 . S
C847 C226 1.347 . S
C853 C184 1.337 . S
C867 C268 1.305 . S
C873 C373 1.310 . S
C887 C318 1.320 . S
C893 C276 1.309 . S
C907 C339 1.307 . S
C913 C310 1.317 . S
C927 C230 1.361 . S
C933 C19 1.387 1_565 S
C947 C40 1.375 1_455 S
C953 C250 1.352 . S
C967 C209 1.351 . S
C973 C61 1.376 . S
C987 C82 1.386 1_655 S
C993 C314 1.373 . S
C1007 C104 1.351 . S
C1013 C272 1.376 . S
C1027 C292 1.385 . S
C1033 C124 1.376 1_545 S
C1047 C355 1.359 . S
C1053 C145 1.357 . S
C1067 C167 1.371 . S
C1073 C377 1.386 . S
C1087 C188 1.353 . S
C1093 C334 1.379 . S
C1107 C58 1.150 . S
C1113 C7 0.993 . S
C1127 C16 1.163 . S
C1133 C28 0.971 . S
C1147 C49 1.002 . S
C1153 C37 1.142 . S
C1167 C87 1.140 . S
C1173 C70 1.003 . S
C1187 C121 1.164 . S
C1193 C88 0.968 . S
C1207 C112 1.006 . S
C1213 C79 1.136 . S
C1227 C171 1.129 . S
C1233 C133 1.005 . S
C1247 C151 0.984 . S
C1253 C142 1.127 . S
C1267 C150 1.134 . S
C1273 C172 1.006 . S
C1287 C193 1.007 . S
C1293 C213 1.131 . S
C1307 C214 0.933 . S
C1313 C247 1.164 . S
C1327 C192 1.125 . S
C1333 C238 0.994 . S
C1347 C256 1.001 . S
C1353 C297 1.143 . S
C1367 C280 0.939 . S
C1373 C255 1.151 . S
C1387 C289 1.145 . S
C1393 C298 0.946 . S
C1407 C322 1.006 . S
C1413 C352 1.131 . S
C1427 C343 1.001 . S
C1433 C360 1.126 . S
C1447 C331 1.144 . S
C1453 C361 1.000 . S
