# Generated by pormake.
# Topology pcl, (4)-cn, num edge types: 1
# Building blocks:
#     Node 0, Type 0, BuildingBlock: NAHDIM_clean_sbu_0, # of connection points: 4
#     Node 1, Type 0, BuildingBlock: NAHDIM_clean_sbu_0, # of connection points: 4
#     Node 2, Type 0, BuildingBlock: NAHDIM_clean_sbu_0, # of connection points: 4
#     Node 3, Type 0, BuildingBlock: NAHDIM_clean_sbu_0, # of connection points: 4
#     Node 4, Type 0, BuildingBlock: NAHDIM_clean_sbu_0, # of connection points: 4
#     Node 5, Type 0, BuildingBlock: NAHDIM_clean_sbu_0, # of connection points: 4
#     Node 6, Type 0, BuildingBlock: NAHDIM_clean_sbu_0, # of connection points: 4
#     Node 7, Type 0, BuildingBlock: NAHDIM_clean_sbu_0, # of connection points: 4
#     Node 8, Type 0, BuildingBlock: NAHDIM_clean_sbu_0, # of connection points: 4
#     Node 9, Type 0, BuildingBlock: NAHDIM_clean_sbu_0, # of connection points: 4
#     Node 10, Type 0, BuildingBlock: NAHDIM_clean_sbu_0, # of connection points: 4
#     Node 11, Type 0, BuildingBlock: NAHDIM_clean_sbu_0, # of connection points: 4
#     Node 12, Type 0, BuildingBlock: NAHDIM_clean_sbu_0, # of connection points: 4
#     Node 13, Type 0, BuildingBlock: NAHDIM_clean_sbu_0, # of connection points: 4
#     Node 14, Type 0, BuildingBlock: NAHDIM_clean_sbu_0, # of connection points: 4
#     Node 15, Type 0, BuildingBlock: NAHDIM_clean_sbu_0, # of connection points: 4
#     Edge 16, Type (0, 0), BuildingBlock: AJUNOK_clean_linker_0, # of connection points: 2
#     Edge 17, Type (0, 0), BuildingBlock: AJUNOK_clean_linker_0, # of connection points: 2
#     Edge 18, Type (0, 0), BuildingBlock: AJUNOK_clean_linker_0, # of connection points: 2
#     Edge 19, Type (0, 0), BuildingBlock: AJUNOK_clean_linker_0, # of connection points: 2
#     Edge 20, Type (0, 0), BuildingBlock: AJUNOK_clean_linker_0, # of connection points: 2
#     Edge 21, Type (0, 0), BuildingBlock: AJUNOK_clean_linker_0, # of connection points: 2
#     Edge 22, Type (0, 0), BuildingBlock: AJUNOK_clean_linker_0, # of connection points: 2
#     Edge 23, Type (0, 0), BuildingBlock: AJUNOK_clean_linker_0, # of connection points: 2
#     Edge 24, Type (0, 0), BuildingBlock: AJUNOK_clean_linker_0, # of connection points: 2
#     Edge 25, Type (0, 0), BuildingBlock: AJUNOK_clean_linker_0, # of connection points: 2
#     Edge 26, Type (0, 0), BuildingBlock: AJUNOK_clean_linker_0, # of connection points: 2
#     Edge 27, Type (0, 0), BuildingBlock: AJUNOK_clean_linker_0, # of connection points: 2
#     Edge 28, Type (0, 0), BuildingBlock: AJUNOK_clean_linker_0, # of connection points: 2
#     Edge 29, Type (0, 0), BuildingBlock: AJUNOK_clean_linker_0, # of connection points: 2
#     Edge 30, Type (0, 0), BuildingBlock: AJUNOK_clean_linker_0, # of connection points: 2
#     Edge 31, Type (0, 0), BuildingBlock: AJUNOK_clean_linker_0, # of connection points: 2
#     Edge 32, Type (0, 0), BuildingBlock: AJUNOK_clean_linker_0, # of connection points: 2
#     Edge 33, Type (0, 0), BuildingBlock: AJUNOK_clean_linker_0, # of connection points: 2
#     Edge 34, Type (0, 0), BuildingBlock: AJUNOK_clean_linker_0, # of connection points: 2
#     Edge 35, Type (0, 0), BuildingBlock: AJUNOK_clean_linker_0, # of connection points: 2
#     Edge 36, Type (0, 0), BuildingBlock: AJUNOK_clean_linker_0, # of connection points: 2
#     Edge 37, Type (0, 0), BuildingBlock: AJUNOK_clean_linker_0, # of connection points: 2
#     Edge 38, Type (0, 0), BuildingBlock: AJUNOK_clean_linker_0, # of connection points: 2
#     Edge 39, Type (0, 0), BuildingBlock: AJUNOK_clean_linker_0, # of connection points: 2
#     Edge 40, Type (0, 0), BuildingBlock: AJUNOK_clean_linker_0, # of connection points: 2
#     Edge 41, Type (0, 0), BuildingBlock: AJUNOK_clean_linker_0, # of connection points: 2
#     Edge 42, Type (0, 0), BuildingBlock: AJUNOK_clean_linker_0, # of connection points: 2
#     Edge 43, Type (0, 0), BuildingBlock: AJUNOK_clean_linker_0, # of connection points: 2
#     Edge 44, Type (0, 0), BuildingBlock: AJUNOK_clean_linker_0, # of connection points: 2
#     Edge 45, Type (0, 0), BuildingBlock: AJUNOK_clean_linker_0, # of connection points: 2
#     Edge 46, Type (0, 0), BuildingBlock: AJUNOK_clean_linker_0, # of connection points: 2
#     Edge 47, Type (0, 0), BuildingBlock: AJUNOK_clean_linker_0, # of connection points: 2
# Relax obj value: 0.088
# Max RMSD: 0.097
# Mean RMSD: 0.088
data_MOF--net-pcl--node1-NAHDIM_clean_sbu_0--edge1-AJUNOK_clean_linker_0
_symmetry_space_group_name_H-M    P1
_symmetry_Int_Tables_number       1
_symmetry_cell_setting            triclinic
loop_
_symmetry_equiv_pos_as_xyz
'x, y, z'
_cell_length_a     35.995931
_cell_length_b     35.611974
_cell_length_c     31.448922
_cell_angle_alpha  90.090669
_cell_angle_beta   90.102608
_cell_angle_gamma 89.777383
loop_
_atom_site_label
_atom_site_type_symbol
_atom_site_fract_x
_atom_site_fract_y
_atom_site_fract_z
_atom_type_partial_charge
C0 C 0.20354 0.31341 0.03404 0.0
O1 O 0.22403 0.34231 0.04506 0.0
O2 O 0.15342 0.36429 0.12682 0.0
Zn3 Zn 0.14507 0.36195 0.06328 0.0
O4 O 0.16446 0.4072 0.03235 0.0
C5 C 0.06657 0.34899 0.07876 0.0
O6 O 0.0786 0.33553 0.11516 0.0
O7 O 0.16861 0.31534 0.03926 0.0
C8 C 0.15124 0.43936 0.04127 0.0
O9 O 0.12752 0.44258 0.0728 0.0
C10 C 0.17264 0.3883 0.14706 0.0
O11 O 0.19074 0.41422 0.12597 0.0
O12 O 0.09004 0.36086 0.05188 0.0
C13 C 0.78715 0.686 0.54256 0.0
O14 O 0.76861 0.66428 0.56864 0.0
O15 O 0.83676 0.63185 0.62441 0.0
Zn16 Zn 0.84528 0.63298 0.56084 0.0
O17 O 0.82634 0.58656 0.53161 0.0
C18 C 0.92383 0.64706 0.57592 0.0
O19 O 0.91193 0.66115 0.61208 0.0
O20 O 0.82094 0.67825 0.53475 0.0
C21 C 0.8337 0.55427 0.54658 0.0
O22 O 0.85232 0.55161 0.58242 0.0
C23 C 0.81246 0.61256 0.64381 0.0
O24 O 0.78918 0.59181 0.62189 0.0
O25 O 0.90029 0.63438 0.54946 0.0
C26 C 0.21805 0.69407 0.95762 0.0
O27 O 0.23689 0.66718 0.9387 0.0
O28 O 0.17754 0.65594 0.86104 0.0
Zn29 Zn 0.15968 0.65214 0.92152 0.0
O30 O 0.171 0.603 0.95065 0.0
C31 C 0.08628 0.64369 0.88939 0.0
O32 O 0.10504 0.62667 0.85915 0.0
O33 O 0.18283 0.6938 0.95505 0.0
C34 C 0.16491 0.57092 0.9344 0.0
O35 O 0.15259 0.56865 0.89517 0.0
C36 C 0.19945 0.6352 0.83973 0.0
O37 O 0.21502 0.6058 0.85765 0.0
O38 O 0.10398 0.65801 0.92042 0.0
C39 C 0.77474 0.29107 0.46071 0.0
O40 O 0.75445 0.31321 0.43656 0.0
O41 O 0.81982 0.33632 0.36888 0.0
Zn42 Zn 0.83072 0.34045 0.43146 0.0
O43 O 0.81217 0.38822 0.45801 0.0
C44 C 0.90916 0.32071 0.42019 0.0
O45 O 0.89688 0.29222 0.39768 0.0
O46 O 0.80947 0.29683 0.4631 0.0
C47 C 0.8247 0.41935 0.44476 0.0
O48 O 0.84572 0.41972 0.41065 0.0
C49 C 0.79807 0.35689 0.34708 0.0
O50 O 0.77868 0.38328 0.36615 0.0
O51 O 0.886 0.34255 0.43806 0.0
C52 C 0.78864 0.69022 0.94116 0.0
O53 O 0.76758 0.66527 0.92209 0.0
O54 O 0.84419 0.59635 0.94246 0.0
Zn55 Zn 0.84924 0.64419 0.90891 0.0
O56 O 0.83143 0.64045 0.84801 0.0
C57 C 0.92488 0.63432 0.8859 0.0
O58 O 0.90995 0.60688 0.86382 0.0
O59 O 0.8237 0.68657 0.93938 0.0
C60 C 0.82484 0.61008 0.8281 0.0
O61 O 0.82818 0.5779 0.84809 0.0
C62 C 0.81594 0.57546 0.94696 0.0
O63 O 0.78476 0.58418 0.92754 0.0
O64 O 0.90382 0.65543 0.90784 0.0
C65 C 0.17868 0.30966 0.48173 0.0
O66 O 0.15671 0.33259 0.50276 0.0
O67 O 0.14741 0.39674 0.44456 0.0
Zn68 Zn 0.14463 0.3479 0.41243 0.0
O69 O 0.15836 0.3536 0.35051 0.0
C70 C 0.06672 0.35622 0.41454 0.0
O71 O 0.07712 0.39124 0.40962 0.0
O72 O 0.1782 0.31054 0.44131 0.0
C73 C 0.16006 0.38503 0.33148 0.0
O74 O 0.15339 0.416 0.35289 0.0
C75 C 0.17558 0.41767 0.44929 0.0
O76 O 0.20717 0.40822 0.43129 0.0
O77 O 0.09142 0.33063 0.41574 0.0
C78 C 0.77418 0.31968 0.04275 0.0
O79 O 0.75309 0.34876 0.05199 0.0
O80 O 0.81765 0.41233 0.04569 0.0
Zn81 Zn 0.8301 0.36637 0.08003 0.0
O82 O 0.81037 0.37139 0.13948 0.0
C83 C 0.90676 0.36423 0.05224 0.0
O84 O 0.892 0.37298 0.01531 0.0
O85 O 0.80849 0.32089 0.05196 0.0
C86 C 0.814 0.34319 0.16381 0.0
O87 O 0.82887 0.31231 0.14831 0.0
C88 C 0.83458 0.44284 0.0532 0.0
O89 O 0.85949 0.44358 0.08379 0.0
O90 O 0.88556 0.35991 0.08409 0.0
C91 C 0.21571 0.67144 0.5319 0.0
O92 O 0.23333 0.63923 0.53544 0.0
O93 O 0.17168 0.58335 0.54247 0.0
Zn94 Zn 0.16037 0.62996 0.57614 0.0
O95 O 0.18073 0.62465 0.6354 0.0
C96 C 0.08358 0.63227 0.54888 0.0
O97 O 0.09806 0.62209 0.51231 0.0
O98 O 0.18324 0.6744 0.54731 0.0
C99 C 0.18566 0.65401 0.65766 0.0
O100 O 0.17872 0.68686 0.6404 0.0
C101 C 0.15505 0.55291 0.55092 0.0
O102 O 0.13054 0.55261 0.58183 0.0
O103 O 0.10504 0.63756 0.58043 0.0
C104 C 0.71872 0.81251 0.0356 0.0
O105 O 0.73728 0.84223 0.04815 0.0
O106 O 0.67557 0.85374 0.13589 0.0
Zn107 Zn 0.66069 0.85443 0.07408 0.0
O108 O 0.67477 0.90212 0.04379 0.0
C109 C 0.58613 0.87176 0.09594 0.0
O110 O 0.60398 0.89338 0.12291 0.0
O111 O 0.68417 0.81085 0.04356 0.0
C112 C 0.67427 0.93469 0.06035 0.0
O113 O 0.6661 0.93831 0.10082 0.0
C114 C 0.70271 0.86996 0.15406 0.0
O115 O 0.72566 0.89049 0.13159 0.0
O116 O 0.60482 0.85079 0.07111 0.0
C117 C 0.27695 0.20298 0.5671 0.0
O118 O 0.27856 0.2 0.60867 0.0
O119 O 0.32221 0.13686 0.6334 0.0
Zn120 Zn 0.32781 0.1394 0.56934 0.0
O121 O 0.31465 0.0909 0.54048 0.0
C122 C 0.40556 0.1586 0.58213 0.0
O123 O 0.39441 0.1673 0.62067 0.0
O124 O 0.29601 0.18052 0.54441 0.0
C125 C 0.33253 0.06118 0.54967 0.0
O126 O 0.35712 0.06197 0.58058 0.0
C127 C 0.30754 0.1105 0.65469 0.0
O128 O 0.2934 0.08142 0.63478 0.0
O129 O 0.3817 0.14778 0.55499 0.0
C130 C 0.70642 0.18837 0.96381 0.0
O131 O 0.72538 0.15778 0.9549 0.0
O132 O 0.65918 0.13987 0.8688 0.0
Zn133 Zn 0.64775 0.14317 0.93131 0.0
O134 O 0.66451 0.09764 0.96438 0.0
C135 C 0.57279 0.12177 0.91939 0.0
O136 O 0.58997 0.09489 0.89852 0.0
O137 O 0.67177 0.18897 0.95612 0.0
C138 C 0.66729 0.06462 0.94936 0.0
O139 O 0.66031 0.05895 0.90886 0.0
C140 C 0.68729 0.12566 0.85031 0.0
O141 O 0.71386 0.11001 0.87291 0.0
O142 O 0.59207 0.14723 0.93709 0.0
C143 C 0.2848 0.80367 0.45768 0.0
O144 O 0.26577 0.83515 0.45516 0.0
O145 O 0.33821 0.85573 0.36314 0.0
Zn146 Zn 0.34464 0.84984 0.42656 0.0
O147 O 0.32738 0.89552 0.45869 0.0
C148 C 0.42226 0.82971 0.41503 0.0
O149 O 0.41057 0.81547 0.37885 0.0
O150 O 0.31877 0.80357 0.44693 0.0
C151 C 0.33711 0.92764 0.44531 0.0
O152 O 0.35648 0.93011 0.41008 0.0
C153 C 0.31449 0.87698 0.34516 0.0
O154 O 0.29081 0.89616 0.36842 0.0
O155 O 0.39893 0.845 0.43988 0.0
C156 C 0.27556 0.18303 0.95688 0.0
O157 O 0.25701 0.15308 0.94505 0.0
O158 O 0.32113 0.09261 0.95762 0.0
Zn159 Zn 0.33517 0.1389 0.92418 0.0
O160 O 0.32046 0.13611 0.86204 0.0
C161 C 0.4113 0.11563 0.92761 0.0
O162 O 0.39543 0.08249 0.92682 0.0
O163 O 0.31045 0.18374 0.9509 0.0
C164 C 0.32957 0.10905 0.83771 0.0
O165 O 0.34796 0.08034 0.8535 0.0
C166 C 0.30062 0.06588 0.94494 0.0
O167 O 0.28503 0.06744 0.90721 0.0
O168 O 0.3909 0.14485 0.92724 0.0
C169 C 0.71586 0.80711 0.44784 0.0
O170 O 0.73428 0.82302 0.41671 0.0
O171 O 0.66011 0.90675 0.44355 0.0
Zn172 Zn 0.65651 0.85508 0.41774 0.0
O173 O 0.67542 0.85284 0.35767 0.0
C174 C 0.58099 0.84496 0.44584 0.0
O175 O 0.59479 0.85605 0.48244 0.0
O176 O 0.68236 0.81683 0.45432 0.0
C177 C 0.69583 0.87617 0.3382 0.0
O178 O 0.70808 0.90591 0.35853 0.0
C179 C 0.68914 0.91966 0.46127 0.0
O180 O 0.71947 0.89905 0.46191 0.0
O181 O 0.60253 0.84194 0.41409 0.0
C182 C 0.29015 0.81707 0.04778 0.0
O183 O 0.26939 0.84291 0.06596 0.0
O184 O 0.33419 0.91131 0.04381 0.0
Zn185 Zn 0.3484 0.86509 0.07729 0.0
O186 O 0.3328 0.86636 0.13899 0.0
C187 C 0.42481 0.88495 0.08823 0.0
O188 O 0.4094 0.91618 0.10196 0.0
O189 O 0.32522 0.82055 0.04898 0.0
C190 C 0.33169 0.8952 0.16285 0.0
O191 O 0.34024 0.92819 0.14716 0.0
C192 C 0.30705 0.93344 0.05068 0.0
O193 O 0.28511 0.92794 0.08335 0.0
O194 O 0.40398 0.85858 0.07529 0.0
C195 C 0.70013 0.17619 0.56047 0.0
O196 O 0.71576 0.1607 0.59391 0.0
O197 O 0.64772 0.07635 0.55924 0.0
Zn198 Zn 0.6399 0.12793 0.58454 0.0
O199 O 0.65572 0.1309 0.64581 0.0
C200 C 0.56432 0.14008 0.55231 0.0
O201 O 0.57858 0.13181 0.51502 0.0
O202 O 0.66732 0.16661 0.55029 0.0
C203 C 0.67768 0.10987 0.66672 0.0
O204 O 0.69381 0.08135 0.64759 0.0
C205 C 0.67922 0.06518 0.54587 0.0
O206 O 0.70797 0.08752 0.54958 0.0
O207 O 0.58533 0.14018 0.58479 0.0
C208 C 0.00049 0.34096 0.10152 0.0
C209 C 0.02605 0.35202 0.07018 0.0
C210 C 0.96214 0.34484 0.09525 0.0
C211 C 0.94759 0.35978 0.05726 0.0
H212 H 0.01009 0.32951 0.1315 0.0
H213 H 0.94378 0.33605 0.12058 0.0
S214 S 0.00246 0.39273 0.96472 0.0
N215 N 0.03393 0.37835 -0.00067 0.0
N216 N 0.96188 0.38552 0.98756 0.0
C217 C 0.97276 0.37059 0.02536 0.0
C218 C 0.01192 0.36675 0.03181 0.0
C219 C 0.99003 0.65593 0.5982 0.0
C220 C 0.96433 0.64425 0.56716 0.0
C221 C 0.02838 0.6522 0.59178 0.0
C222 C 0.04277 0.63678 0.55396 0.0
H223 H 0.98057 0.66772 0.62806 0.0
H224 H 0.04686 0.66142 0.61691 0.0
S225 S 0.98744 0.60235 0.4621 0.0
N226 N 0.95613 0.61699 0.49669 0.0
N227 N 0.02813 0.61008 0.48466 0.0
C228 C 0.01743 0.62542 0.52233 0.0
C229 C 0.97829 0.62912 0.52892 0.0
C230 C 0.98779 0.61871 0.85757 0.0
C231 C 0.96578 0.63919 0.88641 0.0
C232 C 0.02656 0.62105 0.85836 0.0
C233 C 0.04509 0.64376 0.88823 0.0
H234 H 0.97505 0.60038 0.83426 0.0
H235 H 0.04208 0.60428 0.83572 0.0
S236 S 0.00041 0.70438 0.96974 0.0
N237 N 0.96538 0.68405 0.94494 0.0
N238 N 0.03837 0.68826 0.94655 0.0
C239 C 0.02347 0.665 0.91681 0.0
C240 C 0.98383 0.6628 0.91584 0.0
C241 C 0.01378 0.31121 0.40677 0.0
C242 C 0.02681 0.34699 0.41834 0.0
C243 C 0.97575 0.30272 0.40801 0.0
C244 C 0.94942 0.3295 0.42155 0.0
H245 H 0.03298 0.28986 0.39566 0.0
H246 H 0.96695 0.27503 0.39797 0.0
S247 S 0.96971 0.42668 0.45798 0.0
N248 N 0.01067 0.40889 0.44554 0.0
N249 N 0.93948 0.39299 0.4484 0.0
C250 C 0.96231 0.36508 0.43444 0.0
C251 C 0.00091 0.37381 0.43266 0.0
C252 C 0.48744 0.90673 0.11164 0.0
C253 C 0.46581 0.88044 0.08928 0.0
C254 C 0.52614 0.90332 0.11384 0.0
C255 C 0.545 0.87368 0.09344 0.0
H256 H 0.47445 0.93015 0.12792 0.0
H257 H 0.54135 0.92445 0.13144 0.0
S258 S 0.50146 0.79721 0.03059 0.0
N259 N 0.46618 0.82351 0.0463 0.0
N260 N 0.53904 0.81731 0.05018 0.0
C261 C 0.5238 0.84715 0.07085 0.0
C262 C 0.48422 0.85046 0.06886 0.0
C263 C 0.51015 0.15882 0.59744 0.0
C264 C 0.52389 0.14749 0.5575 0.0
C265 C 0.47204 0.1636 0.60454 0.0
C266 C 0.44588 0.15714 0.57209 0.0
H267 H 0.52891 0.16348 0.62388 0.0
H268 H 0.46307 0.17152 0.63618 0.0
S269 S 0.46732 0.12961 0.46073 0.0
N270 N 0.50827 0.13189 0.48426 0.0
N271 N 0.43662 0.14079 0.4976 0.0
C272 C 0.45924 0.14706 0.53151 0.0
C273 C 0.49819 0.14227 0.52423 0.0
C274 C 0.51231 0.08841 0.91247 0.0
C275 C 0.5317 0.12147 0.92259 0.0
C276 C 0.47354 0.08685 0.91473 0.0
C277 C 0.45238 0.11841 0.92671 0.0
H278 H 0.52716 0.06329 0.90285 0.0
H279 H 0.46008 0.06067 0.90645 0.0
S280 S 0.48954 0.21192 0.95668 0.0
N281 N 0.5268 0.1866 0.94549 0.0
N282 N 0.45374 0.18379 0.94929 0.0
C283 C 0.47133 0.15174 0.93699 0.0
C284 C 0.511 0.15322 0.93511 0.0
C285 C 0.48867 0.82213 0.39341 0.0
C286 C 0.46252 0.83084 0.42512 0.0
C287 C 0.52684 0.82595 0.40083 0.0
C288 C 0.54053 0.83848 0.44035 0.0
H289 H 0.47967 0.81319 0.36212 0.0
H290 H 0.54568 0.81962 0.37495 0.0
S291 S 0.48376 0.86191 0.53534 0.0
N292 N 0.45308 0.85036 0.49857 0.0
N293 N 0.52479 0.85745 0.51252 0.0
C294 C 0.51475 0.84594 0.47292 0.0
C295 C 0.4758 0.84217 0.4653 0.0
C296 C 0.16279 0.35476 0.21578 0.0
C297 C 0.17258 0.38785 0.19421 0.0
C298 C 0.15997 0.35389 0.26018 0.0
C299 C 0.16625 0.38625 0.28487 0.0
H300 H 0.15689 0.32927 0.19821 0.0
H301 H 0.15177 0.32782 0.27511 0.0
S302 S 0.19411 0.47979 0.24414 0.0
N303 N 0.18993 0.45355 0.20107 0.0
N304 N 0.18415 0.45206 0.28454 0.0
C305 C 0.17682 0.41939 0.26383 0.0
C306 C 0.18016 0.42014 0.21854 0.0
C307 C 0.82704 0.64281 0.71345 0.0
C308 C 0.81218 0.6122 0.6909 0.0
C309 C 0.82968 0.64237 0.75788 0.0
C310 C 0.81819 0.61099 0.78156 0.0
H311 H 0.83709 0.66726 0.69661 0.0
H312 H 0.84197 0.66641 0.77359 0.0
S313 S 0.776 0.52411 0.73791 0.0
N314 N 0.78449 0.55015 0.69566 0.0
N315 N 0.79003 0.54904 0.77921 0.0
C316 C 0.80253 0.58048 0.75951 0.0
C317 C 0.79932 0.58117 0.7142 0.0
C318 C 0.20598 0.61067 0.76561 0.0
C319 C 0.20231 0.64138 0.7934 0.0
C320 C 0.20208 0.61525 0.72153 0.0
C321 C 0.19475 0.65079 0.7036 0.0
H322 H 0.2099 0.58258 0.77807 0.0
H323 H 0.20356 0.59049 0.70156 0.0
S324 S 0.1884 0.741 0.76276 0.0
N325 N 0.19492 0.70899 0.79994 0.0
N326 N 0.18808 0.71785 0.71725 0.0
C327 C 0.19363 0.6821 0.73101 0.0
C328 C 0.19724 0.67732 0.77586 0.0
C329 C 0.81755 0.3173 0.23742 0.0
C330 C 0.80565 0.34606 0.20991 0.0
C331 C 0.81377 0.32064 0.28152 0.0
C332 C 0.79765 0.35276 0.30012 0.0
H333 H 0.83102 0.29235 0.22501 0.0
H334 H 0.82435 0.29806 0.30123 0.0
S335 S 0.75876 0.43473 0.24209 0.0
N336 N 0.77472 0.40678 0.20433 0.0
N337 N 0.76744 0.41296 0.28736 0.0
C338 C 0.78398 0.38102 0.27297 0.0
C339 C 0.78806 0.37772 0.22788 0.0
C340 C 0.71847 0.90092 0.26816 0.0
C341 C 0.70195 0.87181 0.29171 0.0
C342 C 0.72035 0.89935 0.22359 0.0
C343 C 0.70554 0.86876 0.20098 0.0
H344 H 0.72887 0.92576 0.28405 0.0
H345 H 0.73195 0.92306 0.20672 0.0
S346 S 0.66441 0.78277 0.24745 0.0
N347 N 0.67435 0.80944 0.28887 0.0
N348 N 0.6775 0.80695 0.20538 0.0
C349 C 0.69089 0.83856 0.22415 0.0
C350 C 0.68923 0.83995 0.26942 0.0
C351 C 0.31841 0.07666 0.76832 0.0
C352 C 0.32096 0.1103 0.79166 0.0
C353 C 0.31257 0.07697 0.72422 0.0
C354 C 0.30988 0.11095 0.70168 0.0
H355 H 0.32123 0.04981 0.78418 0.0
H356 H 0.31144 0.05037 0.70751 0.0
S357 S 0.31321 0.20679 0.74796 0.0
N358 N 0.31879 0.17856 0.7891 0.0
N359 N 0.30869 0.17911 0.70612 0.0
C360 C 0.31165 0.14479 0.7247 0.0
C361 C 0.31692 0.14447 0.76971 0.0
C362 C 0.706 0.0945 0.78211 0.0
C363 C 0.68807 0.12424 0.80332 0.0
C364 C 0.70336 0.09054 0.73777 0.0
C365 C 0.68294 0.11635 0.71303 0.0
H366 H 0.721 0.07333 0.79999 0.0
H367 H 0.71664 0.0665 0.72301 0.0
S368 S 0.63508 0.20206 0.75321 0.0
N369 N 0.65212 0.18177 0.79619 0.0
N370 N 0.64743 0.17481 0.71314 0.0
C371 C 0.66652 0.14733 0.73385 0.0
C372 C 0.669 0.15113 0.7789 0.0
C373 C 0.33234 0.85635 0.22881 0.0
C374 C 0.32433 0.8908 0.20887 0.0
C375 C 0.32847 0.85203 0.27282 0.0
C376 C 0.31564 0.8817 0.29849 0.0
H377 H 0.34281 0.8328 0.21051 0.0
H378 H 0.33585 0.82526 0.2869 0.0
S379 S 0.28903 0.97704 0.26171 0.0
N380 N 0.30194 0.95483 0.21799 0.0
N381 N 0.29386 0.94641 0.30072 0.0
C382 C 0.30635 0.91594 0.27886 0.0
C383 C 0.31096 0.92058 0.23406 0.0
C384 C 0.27675 0.24763 0.98846 0.0
C385 C 0.25632 0.21557 0.97684 0.0
C386 C 0.25947 0.27888 0.00709 0.0
C387 C 0.22098 0.27949 0.01491 0.0
H388 H 0.30643 0.24878 0.98306 0.0
H389 H 0.27655 0.30283 0.01521 0.0
S390 S 0.15475 0.20242 0.9912 0.0
N391 N 0.19536 0.1862 0.97507 0.0
N392 N 0.16292 0.24486 0.01003 0.0
C393 C 0.20017 0.24753 0.00371 0.0
C394 C 0.2178 0.21564 0.98471 0.0
C395 C 0.78761 0.73732 0.48831 0.0
C396 C 0.76865 0.71788 0.52056 0.0
C397 C 0.77046 0.76635 0.4655 0.0
C398 C 0.73361 0.77731 0.47397 0.0
H399 H 0.81587 0.72976 0.48003 0.0
H400 H 0.78624 0.77998 0.44066 0.0
S401 S 0.67223 0.73687 0.55691 0.0
N402 N 0.71129 0.71272 0.56099 0.0
N403 N 0.67907 0.76729 0.5182 0.0
C404 C 0.71452 0.7587 0.50682 0.0
C405 C 0.73201 0.72902 0.53005 0.0
C406 C 0.23382 0.78246 0.02285 0.0
C407 C 0.27277 0.7849 0.02534 0.0
C408 C 0.2165 0.75295 0.00114 0.0
C409 C 0.23736 0.72455 0.981 0.0
H410 H 0.21639 0.80364 0.03756 0.0
H411 H 0.18642 0.75258 6e-05 0.0
S412 S 0.34036 0.71739 0.97863 0.0
N413 N 0.33183 0.75593 0.00616 0.0
N414 N 0.29929 0.70052 0.96541 0.0
C415 C 0.27638 0.72642 0.9835 0.0
C416 C 0.29406 0.75654 0.00563 0.0
C417 C 0.701 0.22561 0.50406 0.0
C418 C 0.72023 0.20463 0.53502 0.0
C419 C 0.71896 0.25319 0.48008 0.0
C420 C 0.75697 0.26083 0.48581 0.0
H421 H 0.67166 0.22105 0.49852 0.0
H422 H 0.70274 0.26871 0.45694 0.0
S423 S 0.82042 0.21291 0.56183 0.0
N424 N 0.77976 0.1928 0.56945 0.0
N425 N 0.81353 0.24452 0.5243 0.0
C426 C 0.77673 0.23969 0.51625 0.0
C427 C 0.75837 0.21168 0.54087 0.0
C428 C 0.71648 0.75147 0.99598 0.0
C429 C 0.73743 0.78175 0.01181 0.0
C430 C 0.73323 0.72222 0.97303 0.0
C431 C 0.77169 0.72188 0.96511 0.0
H432 H 0.68677 0.75028 0.0012 0.0
H433 H 0.7158 0.69958 0.96168 0.0
S434 S 0.83922 0.79467 -0.00075 0.0
N435 N 0.79889 0.80965 0.01764 0.0
N436 N 0.83032 0.75474 0.97465 0.0
C437 C 0.79304 0.75199 0.98073 0.0
C438 C 0.77595 0.78187 0.004 0.0
C439 C 0.24914 0.23196 0.50188 0.0
C440 C 0.25223 0.23112 0.54651 0.0
C441 C 0.22543 0.25744 0.48138 0.0
C442 C 0.20372 0.28323 0.50457 0.0
H443 H 0.26498 0.2126 0.48239 0.0
H444 H 0.22404 0.25668 0.44698 0.0
S445 S 0.20223 0.2935 0.62218 0.0
N446 N 0.23197 0.259 0.61333 0.0
N447 N 0.18744 0.30685 0.57485 0.0
C448 C 0.20674 0.28299 0.54925 0.0
C449 C 0.23096 0.257 0.57018 0.0
C450 C 0.71976 0.28491 0.01296 0.0
C451 C 0.75801 0.28592 0.02217 0.0
C452 C 0.7035 0.2534 0.99395 0.0
C453 C 0.72477 0.22149 0.9833 0.0
H454 H 0.70203 0.3086 0.02059 0.0
H455 H 0.6739 0.25412 0.98775 0.0
S456 S 0.82638 0.20992 5e-05 0.0
N457 N 0.81695 0.25222 0.01868 0.0
N458 N 0.7864 0.19307 0.98297 0.0
C459 C 0.76315 0.22215 0.99207 0.0
C460 C 0.77974 0.2543 0.01147 0.0
C461 C 0.21554 0.7394 0.51172 0.0
C462 C 0.23356 0.70423 0.51137 0.0
C463 C 0.23207 0.77116 0.49374 0.0
C464 C 0.26736 0.76915 0.47471 0.0
H465 H 0.18854 0.74266 0.52644 0.0
H466 H 0.21719 0.79761 0.4954 0.0
S467 S 0.32544 0.68325 0.46304 0.0
N468 N 0.28812 0.66897 0.48864 0.0
N469 N 0.31918 0.7286 0.45493 0.0
C470 C 0.28543 0.734 0.47335 0.0
C471 C 0.26855 0.70159 0.49164 0.0
C472 C 0.15967 0.54044 0.00552 0.0
C473 C 0.1662 0.53706 0.96157 0.0
C474 C 0.15595 0.50862 0.03128 0.0
C475 C 0.15945 0.47226 0.01427 0.0
H476 H 0.15576 0.56782 0.01991 0.0
H477 H 0.14961 0.51257 0.06467 0.0
S478 S 0.17991 0.44824 0.90179 0.0
N479 N 0.17816 0.49458 0.90256 0.0
N480 N 0.17208 0.43471 0.95116 0.0
C481 C 0.16787 0.46849 0.97078 0.0
C482 C 0.17096 0.50092 0.94437 0.0
C483 C 0.8273 0.52189 0.47656 0.0
C484 C 0.82589 0.52027 0.52121 0.0
C485 C 0.82533 0.48915 0.45189 0.0
C486 C 0.82101 0.45373 0.47092 0.0
H487 H 0.83182 0.54842 0.46059 0.0
H488 H 0.8282 0.49152 0.41771 0.0
S489 S 0.81176 0.435 0.58657 0.0
N490 N 0.8173 0.48091 0.58339 0.0
N491 N 0.81262 0.41938 0.53711 0.0
C492 C 0.8173 0.45202 0.51546 0.0
C493 C 0.82006 0.4853 0.54059 0.0
C494 C 0.85248 0.50715 0.02957 0.0
C495 C 0.828 0.47658 0.02655 0.0
C496 C 0.84812 0.53888 0.00384 0.0
C497 C 0.81885 0.54165 0.97426 0.0
H498 H 0.87565 0.50648 0.05158 0.0
H499 H 0.86796 0.56149 0.0073 0.0
S500 S 0.74651 0.46973 0.9543 0.0
N501 N 0.77297 0.45126 0.99182 0.0
N502 N 0.76465 0.51118 0.94368 0.0
C503 C 0.79375 0.51158 0.97126 0.0
C504 C 0.79838 0.47899 0.99728 0.0
C505 C 0.14237 0.45565 0.5041 0.0
C506 C 0.17212 0.4522 0.47534 0.0
C507 C 0.13751 0.48804 0.52871 0.0
C508 C 0.16193 0.5186 0.52528 0.0
H509 H 0.12257 0.43305 0.50781 0.0
H510 H 0.11403 0.48923 0.55018 0.0
S511 S 0.24444 0.52384 0.45473 0.0
N512 N 0.22662 0.48204 0.44502 0.0
N513 N 0.21736 0.54322 0.49103 0.0
C514 C 0.19196 0.51554 0.49676 0.0
C515 C 0.19711 0.48228 0.47192 0.0
C516 C 0.67309 0.99551 0.96156 0.0
C517 C 0.67403 0.03224 0.97807 0.0
C518 C 0.67492 0.96418 0.98831 0.0
C519 C 0.67759 0.96823 0.03275 0.0
H520 H 0.66972 0.99075 0.92775 0.0
H521 H 0.67276 0.93659 0.97398 0.0
S522 S 0.68621 0.05813 0.09177 0.0
N523 N 0.68168 0.07078 0.04156 0.0
N524 N 0.6849 0.01181 0.09178 0.0
C525 C 0.68066 0.00471 0.04957 0.0
C526 C 0.67896 0.03671 0.02227 0.0
C527 C 0.3347 0.9591 0.51609 0.0
C528 C 0.33101 0.96136 0.47165 0.0
C529 C 0.33417 0.99156 0.54134 0.0
C530 C 0.32886 0.0272 0.52311 0.0
H531 H 0.3398 0.93227 0.53127 0.0
H532 H 0.33856 0.9888 0.57529 0.0
S533 S 0.31482 0.04768 0.40852 0.0
N534 N 0.32017 0.00164 0.4106 0.0
N535 N 0.31788 0.06262 0.45815 0.0
C536 C 0.32326 0.0296 0.47892 0.0
C537 C 0.32472 -0.00335 0.45314 0.0
C538 C 0.29571 0.002 0.04091 0.0
C539 C 0.30172 0.96633 0.02299 0.0
C540 C 0.2946 0.03419 0.01527 0.0
C541 C 0.29817 0.03152 0.97083 0.0
H542 H 0.29343 0.00521 0.07508 0.0
H543 H 0.29133 0.0614 0.03032 0.0
S544 S 0.31198 0.94423 0.90839 0.0
N545 N 0.31015 0.92995 0.95829 0.0
N546 N 0.30647 0.99028 0.90992 0.0
C547 C 0.30257 0.99583 0.95244 0.0
C548 C 0.30479 0.96324 0.97861 0.0
C549 C 0.65083 0.00854 0.51197 0.0
C550 C 0.6829 0.028 0.52481 0.0
C551 C 0.65325 0.97383 0.49115 0.0
C552 C 0.68784 0.95684 0.48264 0.0
H553 H 0.62348 0.0203 0.51765 0.0
H554 H 0.62765 0.96008 0.48201 0.0
S555 S 0.78035 -0.00406 0.50996 0.0
N556 N 0.75049 0.0276 0.52758 0.0
N557 N 0.755 0.96222 0.48872 0.0
C558 C 0.72019 0.97586 0.49547 0.0
C559 C 0.71773 0.01145 0.51643 0.0
loop_
_geom_bond_atom_site_label_1
_geom_bond_atom_site_label_2
_geom_bond_distance
_geom_bond_site_symmetry_2
_ccdc_geom_bond_type
C0 O1 1.160 . S
C0 O7 1.185 . S
O1 C0 1.160 . S
O2 Zn3 1.899 . S
O2 C10 1.284 . S
Zn3 O2 1.899 . S
Zn3 O4 2.032 . S
Zn3 O7 2.086 . S
Zn3 O12 1.977 . S
O4 Zn3 2.032 . S
O4 C8 1.278 . S
C5 O6 1.203 . S
C5 O12 1.267 . S
O6 C5 1.203 . S
O7 C0 1.185 . S
O7 Zn3 2.086 . S
C8 O4 1.278 . S
C8 O9 1.211 . S
O9 C8 1.211 . S
C10 O2 1.284 . S
C10 O11 1.273 . S
O11 C10 1.273 . S
O12 Zn3 1.977 . S
O12 C5 1.267 . S
C13 O14 1.160 . S
C13 O20 1.185 . S
O14 C13 1.160 . S
O15 Zn16 1.899 . S
O15 C23 1.284 . S
Zn16 O15 1.899 . S
Zn16 O17 2.032 . S
Zn16 O20 2.086 . S
Zn16 O25 1.977 . S
O17 Zn16 2.032 . S
O17 C21 1.278 . S
C18 O19 1.203 . S
C18 O25 1.267 . S
O19 C18 1.203 . S
O20 C13 1.185 . S
O20 Zn16 2.086 . S
C21 O17 1.278 . S
C21 O22 1.211 . S
O22 C21 1.211 . S
C23 O15 1.284 . S
C23 O24 1.273 . S
O24 C23 1.273 . S
O25 Zn16 1.977 . S
O25 C18 1.267 . S
C26 O27 1.160 . S
C26 O33 1.185 . S
O27 C26 1.160 . S
O28 Zn29 1.899 . S
O28 C36 1.284 . S
Zn29 O28 1.899 . S
Zn29 O30 2.032 . S
Zn29 O33 2.086 . S
Zn29 O38 1.977 . S
O30 Zn29 2.032 . S
O30 C34 1.278 . S
C31 O32 1.203 . S
C31 O38 1.267 . S
O32 C31 1.203 . S
O33 C26 1.185 . S
O33 Zn29 2.086 . S
C34 O30 1.278 . S
C34 O35 1.211 . S
O35 C34 1.211 . S
C36 O28 1.284 . S
C36 O37 1.273 . S
O37 C36 1.273 . S
O38 Zn29 1.977 . S
O38 C31 1.267 . S
C39 O40 1.160 . S
C39 O46 1.185 . S
O40 C39 1.160 . S
O41 Zn42 1.899 . S
O41 C49 1.284 . S
Zn42 O41 1.899 . S
Zn42 O43 2.032 . S
Zn42 O46 2.086 . S
Zn42 O51 1.977 . S
O43 Zn42 2.032 . S
O43 C47 1.278 . S
C44 O45 1.203 . S
C44 O51 1.267 . S
O45 C44 1.203 . S
O46 C39 1.185 . S
O46 Zn42 2.086 . S
C47 O43 1.278 . S
C47 O48 1.211 . S
O48 C47 1.211 . S
C49 O41 1.284 . S
C49 O50 1.273 . S
O50 C49 1.273 . S
O51 Zn42 1.977 . S
O51 C44 1.267 . S
C52 O53 1.160 . S
C52 O59 1.185 . S
O53 C52 1.160 . S
O54 Zn55 1.899 . S
O54 C62 1.284 . S
Zn55 O54 1.899 . S
Zn55 O56 2.032 . S
Zn55 O59 2.086 . S
Zn55 O64 1.977 . S
O56 Zn55 2.032 . S
O56 C60 1.278 . S
C57 O58 1.203 . S
C57 O64 1.267 . S
O58 C57 1.203 . S
O59 C52 1.185 . S
O59 Zn55 2.086 . S
C60 O56 1.278 . S
C60 O61 1.211 . S
O61 C60 1.211 . S
C62 O54 1.284 . S
C62 O63 1.273 . S
O63 C62 1.273 . S
O64 Zn55 1.977 . S
O64 C57 1.267 . S
C65 O66 1.160 . S
C65 O72 1.185 . S
O66 C65 1.160 . S
O67 Zn68 1.899 . S
O67 C75 1.284 . S
Zn68 O67 1.899 . S
Zn68 O69 2.032 . S
Zn68 O72 2.086 . S
Zn68 O77 1.977 . S
O69 Zn68 2.032 . S
O69 C73 1.278 . S
C70 O71 1.203 . S
C70 O77 1.267 . S
O71 C70 1.203 . S
O72 C65 1.185 . S
O72 Zn68 2.086 . S
C73 O69 1.278 . S
C73 O74 1.211 . S
O74 C73 1.211 . S
C75 O67 1.284 . S
C75 O76 1.273 . S
O76 C75 1.273 . S
O77 Zn68 1.977 . S
O77 C70 1.267 . S
C78 O79 1.160 . S
C78 O85 1.185 . S
O79 C78 1.160 . S
O80 Zn81 1.899 . S
O80 C88 1.284 . S
Zn81 O80 1.899 . S
Zn81 O82 2.032 . S
Zn81 O85 2.086 . S
Zn81 O90 1.977 . S
O82 Zn81 2.032 . S
O82 C86 1.278 . S
C83 O84 1.203 . S
C83 O90 1.267 . S
O84 C83 1.203 . S
O85 C78 1.185 . S
O85 Zn81 2.086 . S
C86 O82 1.278 . S
C86 O87 1.211 . S
O87 C86 1.211 . S
C88 O80 1.284 . S
C88 O89 1.273 . S
O89 C88 1.273 . S
O90 Zn81 1.977 . S
O90 C83 1.267 . S
C91 O92 1.160 . S
C91 O98 1.185 . S
O92 C91 1.160 . S
O93 Zn94 1.899 . S
O93 C101 1.284 . S
Zn94 O93 1.899 . S
Zn94 O95 2.032 . S
Zn94 O98 2.086 . S
Zn94 O103 1.977 . S
O95 Zn94 2.032 . S
O95 C99 1.278 . S
C96 O97 1.203 . S
C96 O103 1.267 . S
O97 C96 1.203 . S
O98 C91 1.185 . S
O98 Zn94 2.086 . S
C99 O95 1.278 . S
C99 O100 1.211 . S
O100 C99 1.211 . S
C101 O93 1.284 . S
C101 O102 1.273 . S
O102 C101 1.273 . S
O103 Zn94 1.977 . S
O103 C96 1.267 . S
C104 O105 1.160 . S
C104 O111 1.185 . S
O105 C104 1.160 . S
O106 Zn107 1.899 . S
O106 C114 1.284 . S
Zn107 O106 1.899 . S
Zn107 O108 2.032 . S
Zn107 O111 2.086 . S
Zn107 O116 1.977 . S
O108 Zn107 2.032 . S
O108 C112 1.278 . S
C109 O110 1.203 . S
C109 O116 1.267 . S
O110 C109 1.203 . S
O111 C104 1.185 . S
O111 Zn107 2.086 . S
C112 O108 1.278 . S
C112 O113 1.211 . S
O113 C112 1.211 . S
C114 O106 1.284 . S
C114 O115 1.273 . S
O115 C114 1.273 . S
O116 Zn107 1.977 . S
O116 C109 1.267 . S
C117 O118 1.160 . S
C117 O124 1.185 . S
O118 C117 1.160 . S
O119 Zn120 1.899 . S
O119 C127 1.284 . S
Zn120 O119 1.899 . S
Zn120 O121 2.032 . S
Zn120 O124 2.086 . S
Zn120 O129 1.977 . S
O121 Zn120 2.032 . S
O121 C125 1.278 . S
C122 O123 1.203 . S
C122 O129 1.267 . S
O123 C122 1.203 . S
O124 C117 1.185 . S
O124 Zn120 2.086 . S
C125 O121 1.278 . S
C125 O126 1.211 . S
O126 C125 1.211 . S
C127 O119 1.284 . S
C127 O128 1.273 . S
O128 C127 1.273 . S
O129 Zn120 1.977 . S
O129 C122 1.267 . S
C130 O131 1.160 . S
C130 O137 1.185 . S
O131 C130 1.160 . S
O132 Zn133 1.899 . S
O132 C140 1.284 . S
Zn133 O132 1.899 . S
Zn133 O134 2.032 . S
Zn133 O137 2.086 . S
Zn133 O142 1.977 . S
O134 Zn133 2.032 . S
O134 C138 1.278 . S
C135 O136 1.203 . S
C135 O142 1.267 . S
O136 C135 1.203 . S
O137 C130 1.185 . S
O137 Zn133 2.086 . S
C138 O134 1.278 . S
C138 O139 1.211 . S
O139 C138 1.211 . S
C140 O132 1.284 . S
C140 O141 1.273 . S
O141 C140 1.273 . S
O142 Zn133 1.977 . S
O142 C135 1.267 . S
C143 O144 1.160 . S
C143 O150 1.185 . S
O144 C143 1.160 . S
O145 Zn146 1.899 . S
O145 C153 1.284 . S
Zn146 O145 1.899 . S
Zn146 O147 2.032 . S
Zn146 O150 2.086 . S
Zn146 O155 1.977 . S
O147 Zn146 2.032 . S
O147 C151 1.278 . S
C148 O149 1.203 . S
C148 O155 1.267 . S
O149 C148 1.203 . S
O150 C143 1.185 . S
O150 Zn146 2.086 . S
C151 O147 1.278 . S
C151 O152 1.211 . S
O152 C151 1.211 . S
C153 O145 1.284 . S
C153 O154 1.273 . S
O154 C153 1.273 . S
O155 Zn146 1.977 . S
O155 C148 1.267 . S
C156 O157 1.160 . S
C156 O163 1.185 . S
O157 C156 1.160 . S
O158 Zn159 1.899 . S
O158 C166 1.284 . S
Zn159 O158 1.899 . S
Zn159 O160 2.032 . S
Zn159 O163 2.086 . S
Zn159 O168 1.977 . S
O160 Zn159 2.032 . S
O160 C164 1.278 . S
C161 O162 1.203 . S
C161 O168 1.267 . S
O162 C161 1.203 . S
O163 C156 1.185 . S
O163 Zn159 2.086 . S
C164 O160 1.278 . S
C164 O165 1.211 . S
O165 C164 1.211 . S
C166 O158 1.284 . S
C166 O167 1.273 . S
O167 C166 1.273 . S
O168 Zn159 1.977 . S
O168 C161 1.267 . S
C169 O170 1.160 . S
C169 O176 1.185 . S
O170 C169 1.160 . S
O171 Zn172 1.899 . S
O171 C179 1.284 . S
Zn172 O171 1.899 . S
Zn172 O173 2.032 . S
Zn172 O176 2.086 . S
Zn172 O181 1.977 . S
O173 Zn172 2.032 . S
O173 C177 1.278 . S
C174 O175 1.203 . S
C174 O181 1.267 . S
O175 C174 1.203 . S
O176 C169 1.185 . S
O176 Zn172 2.086 . S
C177 O173 1.278 . S
C177 O178 1.211 . S
O178 C177 1.211 . S
C179 O171 1.284 . S
C179 O180 1.273 . S
O180 C179 1.273 . S
O181 Zn172 1.977 . S
O181 C174 1.267 . S
C182 O183 1.160 . S
C182 O189 1.185 . S
O183 C182 1.160 . S
O184 Zn185 1.899 . S
O184 C192 1.284 . S
Zn185 O184 1.899 . S
Zn185 O186 2.032 . S
Zn185 O189 2.086 . S
Zn185 O194 1.977 . S
O186 Zn185 2.032 . S
O186 C190 1.278 . S
C187 O188 1.203 . S
C187 O194 1.267 . S
O188 C187 1.203 . S
O189 C182 1.185 . S
O189 Zn185 2.086 . S
C190 O186 1.278 . S
C190 O191 1.211 . S
O191 C190 1.211 . S
C192 O184 1.284 . S
C192 O193 1.273 . S
O193 C192 1.273 . S
O194 Zn185 1.977 . S
O194 C187 1.267 . S
C195 O196 1.160 . S
C195 O202 1.185 . S
O196 C195 1.160 . S
O197 Zn198 1.899 . S
O197 C205 1.284 . S
Zn198 O197 1.899 . S
Zn198 O199 2.032 . S
Zn198 O202 2.086 . S
Zn198 O207 1.977 . S
O199 Zn198 2.032 . S
O199 C203 1.278 . S
C200 O201 1.203 . S
C200 O207 1.267 . S
O201 C200 1.203 . S
O202 C195 1.185 . S
O202 Zn198 2.086 . S
C203 O199 1.278 . S
C203 O204 1.211 . S
O204 C203 1.211 . S
C205 O197 1.284 . S
C205 O206 1.273 . S
O206 C205 1.273 . S
O207 Zn198 1.977 . S
O207 C200 1.267 . S
C208 C209 1.369 . S
C208 C210 1.419 1_455 S
C208 H212 0.930 . S
C209 C208 1.369 . S
C209 C218 1.429 . S
C210 C208 1.419 1_655 S
C210 C211 1.363 . S
C210 H213 0.929 . S
C211 C210 1.363 . S
C211 C217 1.428 . S
H212 C208 0.930 . S
H213 C210 0.929 . S
S214 N215 1.613 . S
S214 N216 1.610 1_455 S
N215 S214 1.613 . S
N215 C218 1.350 . S
N216 S214 1.610 1_655 S
N216 C217 1.351 . S
C217 C211 1.428 . S
C217 N216 1.351 . S
C217 C218 1.434 1_655 S
C218 C209 1.429 . S
C218 N215 1.350 . S
C218 C217 1.434 1_455 S
C219 C220 1.369 . S
C219 C221 1.419 1_655 S
C219 H223 0.930 . S
C220 C219 1.369 . S
C220 C229 1.429 . S
C221 C219 1.419 1_455 S
C221 C222 1.363 . S
C221 H224 0.929 . S
C222 C221 1.363 . S
C222 C228 1.428 . S
H223 C219 0.930 . S
H224 C221 0.929 . S
S225 N226 1.613 . S
S225 N227 1.610 1_655 S
N226 S225 1.613 . S
N226 C229 1.350 . S
N227 S225 1.610 1_455 S
N227 C228 1.351 . S
C228 C222 1.428 . S
C228 N227 1.351 . S
C228 C229 1.434 1_455 S
C229 C220 1.429 . S
C229 N226 1.350 . S
C229 C228 1.434 1_655 S
C230 C231 1.369 . S
C230 C232 1.419 1_655 S
C230 H234 0.930 . S
C231 C230 1.369 . S
C231 C240 1.429 . S
C232 C230 1.419 1_455 S
C232 C233 1.363 . S
C232 H235 0.929 . S
C233 C232 1.363 . S
C233 C239 1.428 . S
H234 C230 0.930 . S
H235 C232 0.929 . S
S236 N237 1.613 1_455 S
S236 N238 1.610 . S
N237 S236 1.613 1_655 S
N237 C240 1.350 . S
N238 S236 1.610 . S
N238 C239 1.351 . S
C239 C233 1.428 . S
C239 N238 1.351 . S
C239 C240 1.434 1_455 S
C240 C231 1.429 . S
C240 N237 1.350 . S
C240 C239 1.434 1_655 S
C241 C242 1.369 . S
C241 C243 1.419 1_455 S
C241 H245 0.930 . S
C242 C241 1.369 . S
C242 C251 1.429 . S
C243 C241 1.419 1_655 S
C243 C244 1.363 . S
C243 H246 0.929 . S
C244 C243 1.363 . S
C244 C250 1.428 . S
H245 C241 0.930 . S
H246 C243 0.929 . S
S247 N248 1.613 1_655 S
S247 N249 1.610 . S
N248 S247 1.613 1_455 S
N248 C251 1.350 . S
N249 S247 1.610 . S
N249 C250 1.351 . S
C250 C244 1.428 . S
C250 N249 1.351 . S
C250 C251 1.434 1_655 S
C251 C242 1.429 . S
C251 N248 1.350 . S
C251 C250 1.434 1_455 S
C252 C253 1.369 . S
C252 C254 1.419 . S
C252 H256 0.930 . S
C253 C252 1.369 . S
C253 C262 1.429 . S
C254 C252 1.419 . S
C254 C255 1.363 . S
C254 H257 0.929 . S
C255 C254 1.363 . S
C255 C261 1.428 . S
H256 C252 0.930 . S
H257 C254 0.929 . S
S258 N259 1.613 1_556 S
S258 N260 1.610 1_556 S
N259 S258 1.613 1_554 S
N259 C262 1.350 . S
N260 S258 1.610 1_554 S
N260 C261 1.351 . S
C261 C255 1.428 . S
C261 N260 1.351 . S
C261 C262 1.434 . S
C262 C253 1.429 . S
C262 N259 1.350 . S
C262 C261 1.434 . S
C263 C264 1.369 . S
C263 C265 1.419 . S
C263 H267 0.930 . S
C264 C263 1.369 . S
C264 C273 1.429 . S
C265 C263 1.419 . S
C265 C266 1.363 . S
C265 H268 0.929 . S
C266 C265 1.363 . S
C266 C272 1.428 . S
H267 C263 0.930 . S
H268 C265 0.929 . S
S269 N270 1.613 . S
S269 N271 1.610 . S
N270 S269 1.613 . S
N270 C273 1.350 . S
N271 S269 1.610 . S
N271 C272 1.351 . S
C272 C266 1.428 . S
C272 N271 1.351 . S
C272 C273 1.434 . S
C273 C264 1.429 . S
C273 N270 1.350 . S
C273 C272 1.434 . S
C274 C275 1.369 . S
C274 C276 1.419 . S
C274 H278 0.930 . S
C275 C274 1.369 . S
C275 C284 1.429 . S
C276 C274 1.419 . S
C276 C277 1.363 . S
C276 H279 0.929 . S
C277 C276 1.363 . S
C277 C283 1.428 . S
H278 C274 0.930 . S
H279 C276 0.929 . S
S280 N281 1.613 . S
S280 N282 1.610 . S
N281 S280 1.613 . S
N281 C284 1.350 . S
N282 S280 1.610 . S
N282 C283 1.351 . S
C283 C277 1.428 . S
C283 N282 1.351 . S
C283 C284 1.434 . S
C284 C275 1.429 . S
C284 N281 1.350 . S
C284 C283 1.434 . S
C285 C286 1.369 . S
C285 C287 1.419 . S
C285 H289 0.930 . S
C286 C285 1.369 . S
C286 C295 1.429 . S
C287 C285 1.419 . S
C287 C288 1.363 . S
C287 H290 0.929 . S
C288 C287 1.363 . S
C288 C294 1.428 . S
H289 C285 0.930 . S
H290 C287 0.929 . S
S291 N292 1.613 . S
S291 N293 1.610 . S
N292 S291 1.613 . S
N292 C295 1.350 . S
N293 S291 1.610 . S
N293 C294 1.351 . S
C294 C288 1.428 . S
C294 N293 1.351 . S
C294 C295 1.434 . S
C295 C286 1.429 . S
C295 N292 1.350 . S
C295 C294 1.434 . S
C296 C297 1.369 . S
C296 C298 1.419 . S
C296 H300 0.930 . S
C297 C296 1.369 . S
C297 C306 1.429 . S
C298 C296 1.419 . S
C298 C299 1.363 . S
C298 H301 0.929 . S
C299 C298 1.363 . S
C299 C305 1.428 . S
H300 C296 0.930 . S
H301 C298 0.929 . S
S302 N303 1.613 . S
S302 N304 1.610 . S
N303 S302 1.613 . S
N303 C306 1.350 . S
N304 S302 1.610 . S
N304 C305 1.351 . S
C305 C299 1.428 . S
C305 N304 1.351 . S
C305 C306 1.434 . S
C306 C297 1.429 . S
C306 N303 1.350 . S
C306 C305 1.434 . S
C307 C308 1.369 . S
C307 C309 1.419 . S
C307 H311 0.930 . S
C308 C307 1.369 . S
C308 C317 1.429 . S
C309 C307 1.419 . S
C309 C310 1.363 . S
C309 H312 0.929 . S
C310 C309 1.363 . S
C310 C316 1.428 . S
H311 C307 0.930 . S
H312 C309 0.929 . S
S313 N314 1.613 . S
S313 N315 1.610 . S
N314 S313 1.613 . S
N314 C317 1.350 . S
N315 S313 1.610 . S
N315 C316 1.351 . S
C316 C310 1.428 . S
C316 N315 1.351 . S
C316 C317 1.434 . S
C317 C308 1.429 . S
C317 N314 1.350 . S
C317 C316 1.434 . S
C318 C319 1.369 . S
C318 C320 1.419 . S
C318 H322 0.930 . S
C319 C318 1.369 . S
C319 C328 1.429 . S
C320 C318 1.419 . S
C320 C321 1.363 . S
C320 H323 0.929 . S
C321 C320 1.363 . S
C321 C327 1.428 . S
H322 C318 0.930 . S
H323 C320 0.929 . S
S324 N325 1.613 . S
S324 N326 1.610 . S
N325 S324 1.613 . S
N325 C328 1.350 . S
N326 S324 1.610 . S
N326 C327 1.351 . S
C327 C321 1.428 . S
C327 N326 1.351 . S
C327 C328 1.434 . S
C328 C319 1.429 . S
C328 N325 1.350 . S
C328 C327 1.434 . S
C329 C330 1.369 . S
C329 C331 1.419 . S
C329 H333 0.930 . S
C330 C329 1.369 . S
C330 C339 1.429 . S
C331 C329 1.419 . S
C331 C332 1.363 . S
C331 H334 0.929 . S
C332 C331 1.363 . S
C332 C338 1.428 . S
H333 C329 0.930 . S
H334 C331 0.929 . S
S335 N336 1.613 . S
S335 N337 1.610 . S
N336 S335 1.613 . S
N336 C339 1.350 . S
N337 S335 1.610 . S
N337 C338 1.351 . S
C338 C332 1.428 . S
C338 N337 1.351 . S
C338 C339 1.434 . S
C339 C330 1.429 . S
C339 N336 1.350 . S
C339 C338 1.434 . S
C340 C341 1.369 . S
C340 C342 1.419 . S
C340 H344 0.930 . S
C341 C340 1.369 . S
C341 C350 1.429 . S
C342 C340 1.419 . S
C342 C343 1.363 . S
C342 H345 0.929 . S
C343 C342 1.363 . S
C343 C349 1.428 . S
H344 C340 0.930 . S
H345 C342 0.929 . S
S346 N347 1.613 . S
S346 N348 1.610 . S
N347 S346 1.613 . S
N347 C350 1.350 . S
N348 S346 1.610 . S
N348 C349 1.351 . S
C349 C343 1.428 . S
C349 N348 1.351 . S
C349 C350 1.434 . S
C350 C341 1.429 . S
C350 N347 1.350 . S
C350 C349 1.434 . S
C351 C352 1.369 . S
C351 C353 1.419 . S
C351 H355 0.930 . S
C352 C351 1.369 . S
C352 C361 1.429 . S
C353 C351 1.419 . S
C353 C354 1.363 . S
C353 H356 0.929 . S
C354 C353 1.363 . S
C354 C360 1.428 . S
H355 C351 0.930 . S
H356 C353 0.929 . S
S357 N358 1.613 . S
S357 N359 1.610 . S
N358 S357 1.613 . S
N358 C361 1.350 . S
N359 S357 1.610 . S
N359 C360 1.351 . S
C360 C354 1.428 . S
C360 N359 1.351 . S
C360 C361 1.434 . S
C361 C352 1.429 . S
C361 N358 1.350 . S
C361 C360 1.434 . S
C362 C363 1.369 . S
C362 C364 1.419 . S
C362 H366 0.930 . S
C363 C362 1.369 . S
C363 C372 1.429 . S
C364 C362 1.419 . S
C364 C365 1.363 . S
C364 H367 0.929 . S
C365 C364 1.363 . S
C365 C371 1.428 . S
H366 C362 0.930 . S
H367 C364 0.929 . S
S368 N369 1.613 . S
S368 N370 1.610 . S
N369 S368 1.613 . S
N369 C372 1.350 . S
N370 S368 1.610 . S
N370 C371 1.351 . S
C371 C365 1.428 . S
C371 N370 1.351 . S
C371 C372 1.434 . S
C372 C363 1.429 . S
C372 N369 1.350 . S
C372 C371 1.434 . S
C373 C374 1.369 . S
C373 C375 1.419 . S
C373 H377 0.930 . S
C374 C373 1.369 . S
C374 C383 1.429 . S
C375 C373 1.419 . S
C375 C376 1.363 . S
C375 H378 0.929 . S
C376 C375 1.363 . S
C376 C382 1.428 . S
H377 C373 0.930 . S
H378 C375 0.929 . S
S379 N380 1.613 . S
S379 N381 1.610 . S
N380 S379 1.613 . S
N380 C383 1.350 . S
N381 S379 1.610 . S
N381 C382 1.351 . S
C382 C376 1.428 . S
C382 N381 1.351 . S
C382 C383 1.434 . S
C383 C374 1.429 . S
C383 N380 1.350 . S
C383 C382 1.434 . S
C384 C385 1.369 1_554 S
C384 C386 1.419 . S
C384 H388 0.930 . S
C385 C384 1.369 1_556 S
C385 C394 1.429 . S
C386 C384 1.419 . S
C386 C387 1.363 . S
C386 H389 0.929 . S
C387 C386 1.363 . S
C387 C393 1.428 1_554 S
H388 C384 0.930 . S
H389 C386 0.929 . S
S390 N391 1.613 . S
S390 N392 1.610 . S
N391 S390 1.613 . S
N391 C394 1.350 . S
N392 S390 1.610 . S
N392 C393 1.351 . S
C393 C387 1.428 1_556 S
C393 N392 1.351 . S
C393 C394 1.434 . S
C394 C385 1.429 . S
C394 N391 1.350 . S
C394 C393 1.434 . S
C395 C396 1.369 . S
C395 C397 1.419 . S
C395 H399 0.930 . S
C396 C395 1.369 . S
C396 C405 1.429 . S
C397 C395 1.419 . S
C397 C398 1.363 . S
C397 H400 0.929 . S
C398 C397 1.363 . S
C398 C404 1.428 . S
H399 C395 0.930 . S
H400 C397 0.929 . S
S401 N402 1.613 . S
S401 N403 1.610 . S
N402 S401 1.613 . S
N402 C405 1.350 . S
N403 S401 1.610 . S
N403 C404 1.351 . S
C404 C398 1.428 . S
C404 N403 1.351 . S
C404 C405 1.434 . S
C405 C396 1.429 . S
C405 N402 1.350 . S
C405 C404 1.434 . S
C406 C407 1.369 . S
C406 C408 1.419 . S
C406 H410 0.930 . S
C407 C406 1.369 . S
C407 C416 1.429 1_554 S
C408 C406 1.419 . S
C408 C409 1.363 1_554 S
C408 H411 0.929 . S
C409 C408 1.363 1_556 S
C409 C415 1.428 . S
H410 C406 0.930 . S
H411 C408 0.929 . S
S412 N413 1.613 . S
S412 N414 1.610 . S
N413 S412 1.613 . S
N413 C416 1.350 . S
N414 S412 1.610 . S
N414 C415 1.351 . S
C415 C409 1.428 . S
C415 N414 1.351 . S
C415 C416 1.434 . S
C416 C407 1.429 1_556 S
C416 N413 1.350 . S
C416 C415 1.434 . S
C417 C418 1.369 . S
C417 C419 1.419 . S
C417 H421 0.930 . S
C418 C417 1.369 . S
C418 C427 1.429 . S
C419 C417 1.419 . S
C419 C420 1.363 . S
C419 H422 0.929 . S
C420 C419 1.363 . S
C420 C426 1.428 . S
H421 C417 0.930 . S
H422 C419 0.929 . S
S423 N424 1.613 . S
S423 N425 1.610 . S
N424 S423 1.613 . S
N424 C427 1.350 . S
N425 S423 1.610 . S
N425 C426 1.351 . S
C426 C420 1.428 . S
C426 N425 1.351 . S
C426 C427 1.434 . S
C427 C418 1.429 . S
C427 N424 1.350 . S
C427 C426 1.434 . S
C428 C429 1.369 . S
C428 C430 1.419 . S
C428 H432 0.930 . S
C429 C428 1.369 . S
C429 C438 1.429 1_554 S
C430 C428 1.419 . S
C430 C431 1.363 1_554 S
C430 H433 0.929 . S
C431 C430 1.363 1_556 S
C431 C437 1.428 . S
H432 C428 0.930 . S
H433 C430 0.929 . S
S434 N435 1.613 . S
S434 N436 1.610 . S
N435 S434 1.613 . S
N435 C438 1.350 . S
N436 S434 1.610 . S
N436 C437 1.351 . S
C437 C431 1.428 . S
C437 N436 1.351 . S
C437 C438 1.434 . S
C438 C429 1.429 1_556 S
C438 N435 1.350 . S
C438 C437 1.434 . S
C439 C440 1.369 . S
C439 C441 1.419 . S
C439 H443 0.930 . S
C440 C439 1.369 . S
C440 C449 1.429 . S
C441 C439 1.419 . S
C441 C442 1.363 . S
C441 H444 0.929 . S
C442 C441 1.363 . S
C442 C448 1.428 . S
H443 C439 0.930 . S
H444 C441 0.929 . S
S445 N446 1.613 . S
S445 N447 1.610 . S
N446 S445 1.613 . S
N446 C449 1.350 . S
N447 S445 1.610 . S
N447 C448 1.351 . S
C448 C442 1.428 . S
C448 N447 1.351 . S
C448 C449 1.434 . S
C449 C440 1.429 . S
C449 N446 1.350 . S
C449 C448 1.434 . S
C450 C451 1.369 . S
C450 C452 1.419 1_554 S
C450 H454 0.930 . S
C451 C450 1.369 . S
C451 C460 1.429 . S
C452 C450 1.419 1_556 S
C452 C453 1.363 . S
C452 H455 0.929 . S
C453 C452 1.363 . S
C453 C459 1.428 . S
H454 C450 0.930 . S
H455 C452 0.929 . S
S456 N457 1.613 1_556 S
S456 N458 1.610 . S
N457 S456 1.613 1_554 S
N457 C460 1.350 . S
N458 S456 1.610 . S
N458 C459 1.351 . S
C459 C453 1.428 . S
C459 N458 1.351 . S
C459 C460 1.434 1_556 S
C460 C451 1.429 . S
C460 N457 1.350 . S
C460 C459 1.434 1_554 S
C461 C462 1.369 . S
C461 C463 1.419 . S
C461 H465 0.930 . S
C462 C461 1.369 . S
C462 C471 1.429 . S
C463 C461 1.419 . S
C463 C464 1.363 . S
C463 H466 0.929 . S
C464 C463 1.363 . S
C464 C470 1.428 . S
H465 C461 0.930 . S
H466 C463 0.929 . S
S467 N468 1.613 . S
S467 N469 1.610 . S
N468 S467 1.613 . S
N468 C471 1.350 . S
N469 S467 1.610 . S
N469 C470 1.351 . S
C470 C464 1.428 . S
C470 N469 1.351 . S
C470 C471 1.434 . S
C471 C462 1.429 . S
C471 N468 1.350 . S
C471 C470 1.434 . S
C472 C473 1.369 1_554 S
C472 C474 1.419 . S
C472 H476 0.930 . S
C473 C472 1.369 1_556 S
C473 C482 1.429 . S
C474 C472 1.419 . S
C474 C475 1.363 . S
C474 H477 0.929 . S
C475 C474 1.363 . S
C475 C481 1.428 1_554 S
H476 C472 0.930 . S
H477 C474 0.929 . S
S478 N479 1.613 . S
S478 N480 1.610 . S
N479 S478 1.613 . S
N479 C482 1.350 . S
N480 S478 1.610 . S
N480 C481 1.351 . S
C481 C475 1.428 1_556 S
C481 N480 1.351 . S
C481 C482 1.434 . S
C482 C473 1.429 . S
C482 N479 1.350 . S
C482 C481 1.434 . S
C483 C484 1.369 . S
C483 C485 1.419 . S
C483 H487 0.930 . S
C484 C483 1.369 . S
C484 C493 1.429 . S
C485 C483 1.419 . S
C485 C486 1.363 . S
C485 H488 0.929 . S
C486 C485 1.363 . S
C486 C492 1.428 . S
H487 C483 0.930 . S
H488 C485 0.929 . S
S489 N490 1.613 . S
S489 N491 1.610 . S
N490 S489 1.613 . S
N490 C493 1.350 . S
N491 S489 1.610 . S
N491 C492 1.351 . S
C492 C486 1.428 . S
C492 N491 1.351 . S
C492 C493 1.434 . S
C493 C484 1.429 . S
C493 N490 1.350 . S
C493 C492 1.434 . S
C494 C495 1.369 . S
C494 C496 1.419 . S
C494 H498 0.930 . S
C495 C494 1.369 . S
C495 C504 1.429 1_554 S
C496 C494 1.419 . S
C496 C497 1.363 1_554 S
C496 H499 0.929 . S
C497 C496 1.363 1_556 S
C497 C503 1.428 . S
H498 C494 0.930 . S
H499 C496 0.929 . S
S500 N501 1.613 . S
S500 N502 1.610 . S
N501 S500 1.613 . S
N501 C504 1.350 . S
N502 S500 1.610 . S
N502 C503 1.351 . S
C503 C497 1.428 . S
C503 N502 1.351 . S
C503 C504 1.434 . S
C504 C495 1.429 1_556 S
C504 N501 1.350 . S
C504 C503 1.434 . S
C505 C506 1.369 . S
C505 C507 1.419 . S
C505 H509 0.930 . S
C506 C505 1.369 . S
C506 C515 1.429 . S
C507 C505 1.419 . S
C507 C508 1.363 . S
C507 H510 0.929 . S
C508 C507 1.363 . S
C508 C514 1.428 . S
H509 C505 0.930 . S
H510 C507 0.929 . S
S511 N512 1.613 . S
S511 N513 1.610 . S
N512 S511 1.613 . S
N512 C515 1.350 . S
N513 S511 1.610 . S
N513 C514 1.351 . S
C514 C508 1.428 . S
C514 N513 1.351 . S
C514 C515 1.434 . S
C515 C506 1.429 . S
C515 N512 1.350 . S
C515 C514 1.434 . S
C516 C517 1.376 . S
C516 C518 1.412 1_545 S
C516 H520 0.930 1_545 S
C517 C516 1.376 . S
C517 C526 1.429 1_556 S
C518 C516 1.412 1_565 S
C518 C519 1.363 1_556 S
C518 H521 0.929 . S
C519 C518 1.363 1_554 S
C519 C525 1.400 1_565 S
H520 C516 0.930 1_565 S
H521 C518 0.929 . S
S522 N523 1.613 . S
S522 N524 1.610 . S
N523 S522 1.613 . S
N523 C526 1.350 . S
N524 S522 1.610 . S
N524 C525 1.356 . S
C525 C519 1.400 1_545 S
C525 N524 1.356 . S
C525 C526 1.461 . S
C526 C517 1.429 1_554 S
C526 N523 1.350 . S
C526 C525 1.461 . S
C527 C528 1.369 . S
C527 C529 1.419 1_565 S
C527 H531 0.930 . S
C528 C527 1.369 . S
C528 C537 1.432 . S
C529 C527 1.419 1_545 S
C529 C530 1.363 . S
C529 H532 0.929 . S
C530 C529 1.363 . S
C530 C536 1.428 . S
H531 C527 0.930 . S
H532 C529 0.929 . S
S533 N534 1.613 . S
S533 N535 1.610 . S
N534 S533 1.613 . S
N534 C537 1.349 1_545 S
N535 S533 1.610 . S
N535 C536 1.351 . S
C536 C530 1.428 . S
C536 N535 1.351 . S
C536 C537 1.431 1_545 S
C537 C528 1.432 . S
C537 N534 1.349 1_565 S
C537 C536 1.431 1_565 S
C538 C539 1.369 . S
C538 C540 1.419 1_565 S
C538 H542 0.930 . S
C539 C538 1.369 . S
C539 C548 1.429 1_554 S
C540 C538 1.419 1_545 S
C540 C541 1.363 1_554 S
C540 H543 0.929 . S
C541 C540 1.363 1_556 S
C541 C547 1.428 . S
H542 C538 0.930 . S
H543 C540 0.929 . S
S544 N545 1.613 . S
S544 N546 1.610 . S
N545 S544 1.613 . S
N545 C548 1.350 . S
N546 S544 1.610 . S
N546 C547 1.351 1_565 S
C547 C541 1.428 . S
C547 N546 1.351 1_545 S
C547 C548 1.434 1_545 S
C548 C539 1.429 1_556 S
C548 N545 1.350 . S
C548 C547 1.434 1_565 S
C549 C550 1.369 . S
C549 C551 1.419 1_545 S
C549 H553 0.930 . S
C550 C549 1.369 . S
C550 C559 1.429 . S
C551 C549 1.419 1_565 S
C551 C552 1.363 . S
C551 H554 0.929 . S
C552 C551 1.363 . S
C552 C558 1.428 . S
H553 C549 0.930 . S
H554 C551 0.929 . S
S555 N556 1.613 . S
S555 N557 1.610 1_545 S
N556 S555 1.613 . S
N556 C559 1.350 . S
N557 S555 1.610 1_565 S
N557 C558 1.351 . S
C558 C552 1.428 . S
C558 N557 1.351 . S
C558 C559 1.434 1_565 S
C559 C550 1.429 . S
C559 N556 1.350 . S
C559 C558 1.434 1_545 S
C209 C5 1.428 . S
C211 C83 1.430 . S
C220 C18 1.431 . S
C222 C96 1.430 . S
C231 C57 1.437 . S
C233 C31 1.434 . S
C242 C70 1.432 . S
C244 C44 1.433 . S
C253 C187 1.437 . S
C255 C109 1.435 . S
C264 C200 1.435 . S
C266 C122 1.435 . S
C275 C135 1.436 . S
C277 C161 1.436 . S
C286 C148 1.433 . S
C288 C174 1.432 . S
C297 C10 1.433 . S
C299 C73 1.393 . S
C308 C23 1.435 . S
C310 C60 1.396 . S
C319 C36 1.434 . S
C321 C99 1.391 . S
C330 C86 1.394 . S
C332 C49 1.434 . S
C341 C177 1.394 . S
C343 C114 1.436 . S
C352 C164 1.398 . S
C354 C127 1.437 . S
C363 C140 1.436 . S
C365 C203 1.393 . S
C374 C190 1.391 . S
C376 C153 1.433 . S
C385 C156 1.335 . S
C387 C0 1.337 . S
C396 C13 1.333 . S
C398 C169 1.332 . S
C407 C182 1.332 . S
C409 C26 1.334 . S
C418 C195 1.337 . S
C420 C39 1.338 . S
C429 C104 1.339 . S
C431 C52 1.336 . S
C440 C117 1.332 . S
C442 C65 1.331 . S
C451 C78 1.333 . S
C453 C130 1.335 . S
C462 C91 1.330 . S
C464 C143 1.334 . S
C473 C34 1.383 . S
C475 C8 1.384 . S
C484 C21 1.388 . S
C486 C47 1.388 . S
C495 C88 1.430 . S
C497 C62 1.427 . S
C506 C75 1.429 . S
C508 C101 1.430 . S
C517 C138 1.390 . S
C519 C112 1.390 . S
C528 C151 1.389 . S
C530 C125 1.388 . S
C539 C192 1.430 . S
C541 C166 1.427 . S
C550 C205 1.430 . S
C552 C179 1.429 . S
