# Generated by pormake.
# Topology lcy-e, (6)-cn, num edge types: 1
# Building blocks:
#     Node 0, Type 0, BuildingBlock: PAMTUU_clean_sbu_0, # of connection points: 6
#     Node 1, Type 0, BuildingBlock: PAMTUU_clean_sbu_0, # of connection points: 6
#     Node 2, Type 0, BuildingBlock: PAMTUU_clean_sbu_0, # of connection points: 6
#     Node 3, Type 0, BuildingBlock: PAMTUU_clean_sbu_0, # of connection points: 6
#     Node 4, Type 0, BuildingBlock: PAMTUU_clean_sbu_0, # of connection points: 6
#     Node 5, Type 0, BuildingBlock: PAMTUU_clean_sbu_0, # of connection points: 6
#     Node 6, Type 0, BuildingBlock: PAMTUU_clean_sbu_0, # of connection points: 6
#     Node 7, Type 0, BuildingBlock: PAMTUU_clean_sbu_0, # of connection points: 6
#     Node 8, Type 0, BuildingBlock: PAMTUU_clean_sbu_0, # of connection points: 6
#     Node 9, Type 0, BuildingBlock: PAMTUU_clean_sbu_0, # of connection points: 6
#     Node 10, Type 0, BuildingBlock: PAMTUU_clean_sbu_0, # of connection points: 6
#     Node 11, Type 0, BuildingBlock: PAMTUU_clean_sbu_0, # of connection points: 6
#     Edge 12, Type (0, 0), BuildingBlock: AJUNOK_clean_linker_0, # of connection points: 2
#     Edge 13, Type (0, 0), BuildingBlock: AJUNOK_clean_linker_0, # of connection points: 2
#     Edge 14, Type (0, 0), BuildingBlock: AJUNOK_clean_linker_0, # of connection points: 2
#     Edge 15, Type (0, 0), BuildingBlock: AJUNOK_clean_linker_0, # of connection points: 2
#     Edge 16, Type (0, 0), BuildingBlock: AJUNOK_clean_linker_0, # of connection points: 2
#     Edge 17, Type (0, 0), BuildingBlock: AJUNOK_clean_linker_0, # of connection points: 2
#     Edge 18, Type (0, 0), BuildingBlock: AJUNOK_clean_linker_0, # of connection points: 2
#     Edge 19, Type (0, 0), BuildingBlock: AJUNOK_clean_linker_0, # of connection points: 2
#     Edge 20, Type (0, 0), BuildingBlock: AJUNOK_clean_linker_0, # of connection points: 2
#     Edge 21, Type (0, 0), BuildingBlock: AJUNOK_clean_linker_0, # of connection points: 2
#     Edge 22, Type (0, 0), BuildingBlock: AJUNOK_clean_linker_0, # of connection points: 2
#     Edge 23, Type (0, 0), BuildingBlock: AJUNOK_clean_linker_0, # of connection points: 2
#     Edge 24, Type (0, 0), BuildingBlock: AJUNOK_clean_linker_0, # of connection points: 2
#     Edge 25, Type (0, 0), BuildingBlock: AJUNOK_clean_linker_0, # of connection points: 2
#     Edge 26, Type (0, 0), BuildingBlock: AJUNOK_clean_linker_0, # of connection points: 2
#     Edge 27, Type (0, 0), BuildingBlock: AJUNOK_clean_linker_0, # of connection points: 2
#     Edge 28, Type (0, 0), BuildingBlock: AJUNOK_clean_linker_0, # of connection points: 2
#     Edge 29, Type (0, 0), BuildingBlock: AJUNOK_clean_linker_0, # of connection points: 2
#     Edge 30, Type (0, 0), BuildingBlock: AJUNOK_clean_linker_0, # of connection points: 2
#     Edge 31, Type (0, 0), BuildingBlock: AJUNOK_clean_linker_0, # of connection points: 2
#     Edge 32, Type (0, 0), BuildingBlock: AJUNOK_clean_linker_0, # of connection points: 2
#     Edge 33, Type (0, 0), BuildingBlock: AJUNOK_clean_linker_0, # of connection points: 2
#     Edge 34, Type (0, 0), BuildingBlock: AJUNOK_clean_linker_0, # of connection points: 2
#     Edge 35, Type (0, 0), BuildingBlock: AJUNOK_clean_linker_0, # of connection points: 2
#     Edge 36, Type (0, 0), BuildingBlock: AJUNOK_clean_linker_0, # of connection points: 2
#     Edge 37, Type (0, 0), BuildingBlock: AJUNOK_clean_linker_0, # of connection points: 2
#     Edge 38, Type (0, 0), BuildingBlock: AJUNOK_clean_linker_0, # of connection points: 2
#     Edge 39, Type (0, 0), BuildingBlock: AJUNOK_clean_linker_0, # of connection points: 2
#     Edge 40, Type (0, 0), BuildingBlock: AJUNOK_clean_linker_0, # of connection points: 2
#     Edge 41, Type (0, 0), BuildingBlock: AJUNOK_clean_linker_0, # of connection points: 2
#     Edge 42, Type (0, 0), BuildingBlock: AJUNOK_clean_linker_0, # of connection points: 2
#     Edge 43, Type (0, 0), BuildingBlock: AJUNOK_clean_linker_0, # of connection points: 2
#     Edge 44, Type (0, 0), BuildingBlock: AJUNOK_clean_linker_0, # of connection points: 2
#     Edge 45, Type (0, 0), BuildingBlock: AJUNOK_clean_linker_0, # of connection points: 2
#     Edge 46, Type (0, 0), BuildingBlock: AJUNOK_clean_linker_0, # of connection points: 2
#     Edge 47, Type (0, 0), BuildingBlock: AJUNOK_clean_linker_0, # of connection points: 2
# Relax obj value: 0.145
# Max RMSD: 0.308
# Mean RMSD: 0.294
data_MOF--net-lcy-e--node1-PAMTUU_clean_sbu_0--edge1-AJUNOK_clean_linker_0
_symmetry_space_group_name_H-M    P1
_symmetry_Int_Tables_number       1
_symmetry_cell_setting            triclinic
loop_
_symmetry_equiv_pos_as_xyz
'x, y, z'
_cell_length_a     34.617586
_cell_length_b     34.699089
_cell_length_c     34.730138
_cell_angle_alpha  90.00572
_cell_angle_beta   90.035278
_cell_angle_gamma 89.606654
loop_
_atom_site_label
_atom_site_type_symbol
_atom_site_fract_x
_atom_site_fract_y
_atom_site_fract_z
_atom_type_partial_charge
Tb0 Tb 0.10982 0.3179 0.48905 0.0
Tb1 Tb 0.13358 0.25493 0.5553 0.0
C2 C 0.07104 0.3135 0.57189 0.0
C3 C 0.11294 0.38018 0.40149 0.0
C4 C 0.14903 0.41035 0.33521 0.0
C5 C 0.10925 0.41597 0.34158 0.0
C6 C 0.09143 0.40102 0.37435 0.0
C7 C 0.15258 0.37383 0.39514 0.0
C8 C 0.17053 0.38888 0.36222 0.0
C9 C 0.09314 0.36443 0.43547 0.0
O10 O 0.16455 0.33578 0.51161 0.0
O11 O 0.15671 0.31202 0.5724 0.0
O12 O 0.1828 0.2596 0.51795 0.0
O13 O 0.15046 0.27635 0.46306 0.0
O14 O 0.13473 0.23703 0.61314 0.0
O15 O 0.15929 0.20156 0.56813 0.0
O16 O 0.09629 0.22565 0.51328 0.0
O17 O 0.06233 0.27869 0.49325 0.0
O18 O 0.08488 0.33654 0.5449 0.0
O19 O 0.07718 0.27645 0.56968 0.0
C20 C 0.17065 0.33837 0.54863 0.0
O21 O 0.08608 0.32762 0.43431 0.0
O22 O 0.10596 0.37507 0.46915 0.0
C23 C 0.18117 0.26187 0.48042 0.0
C24 C 0.1294 0.16926 0.61926 0.0
C25 C 0.0928 0.10244 0.64732 0.0
C26 C 0.13287 0.10743 0.6517 0.0
C27 C 0.15095 0.14047 0.63779 0.0
C28 C 0.08946 0.16427 0.61411 0.0
C29 C 0.07125 0.13109 0.6281 0.0
C30 C 0.1494 0.20342 0.60427 0.0
C31 C 0.06604 0.24129 0.49612 0.0
H32 H 0.09191 0.43226 0.32123 0.0
H33 H 0.06076 0.40587 0.37857 0.0
H34 H 0.16961 0.35755 0.41576 0.0
H35 H 0.20132 0.38461 0.35842 0.0
H36 H 0.15025 0.08579 0.66623 0.0
H37 H 0.18184 0.1436 0.64162 0.0
H38 H 0.07238 0.18615 0.59958 0.0
H39 H 0.04028 0.12837 0.62485 0.0
Tb40 Tb 0.03158 0.92521 0.80107 0.0
Tb41 Tb 0.96716 0.90115 0.73689 0.0
C42 C 0.94672 0.96298 0.79555 0.0
C43 C 0.11925 0.91844 0.86289 0.0
C44 C 0.18482 0.88026 0.89385 0.0
C45 C 0.15165 0.88662 0.91645 0.0
C46 C 0.11934 0.90559 0.90121 0.0
C47 C 0.15214 0.9114 0.83997 0.0
C48 C 0.18458 0.89254 0.85532 0.0
C49 C 0.08538 0.94005 0.84767 0.0
O50 O 1.00832 0.87133 0.82065 0.0
O51 O 0.94847 0.87853 0.7936 0.0
O52 O 1.00513 0.85267 0.74487 0.0
O53 O 0.05908 0.88688 0.75832 0.0
O54 O 0.95921 0.87661 0.68233 0.0
O55 O 0.91036 0.89525 0.71631 0.0
O56 O 1.00806 0.94149 0.70996 0.0
O57 O 0.02473 0.97438 0.76424 0.0
O58 O 0.97544 0.95142 0.81822 0.0
O59 O 0.94643 0.95512 0.75879 0.0
C60 C 0.97112 0.86554 0.82149 0.0
O61 O 0.08607 0.94911 0.81123 0.0
O62 O 0.05127 0.92831 0.85837 0.0
C63 C 0.04257 0.85609 0.74372 0.0
C64 C 0.90621 0.90203 0.64871 0.0
C65 C 0.876 0.9378 0.58216 0.0
C66 C 0.87343 0.89766 0.58717 0.0
C67 C 0.8884 0.87998 0.62012 0.0
C68 C 0.9097 0.94203 0.64363 0.0
C69 C 0.89459 0.95983 0.6106 0.0
C70 C 0.92205 0.8826 0.6829 0.0
C71 C 0.02288 0.97211 0.72677 0.0
H72 H 0.15089 0.87734 0.94622 0.0
H73 H 0.09454 0.91064 0.9196 0.0
H74 H 0.15321 0.92103 0.81034 0.0
H75 H 0.20991 0.88877 0.83739 0.0
H76 H 0.85949 0.87992 0.56566 0.0
H77 H 0.88591 0.84904 0.62336 0.0
H78 H 0.92375 0.95945 0.66534 0.0
H79 H 0.89648 0.99085 0.60786 0.0
Tb80 Tb 0.38646 0.7553 0.98531 0.0
Tb81 Tb 0.36441 0.82162 0.04855 0.0
C82 C 0.42348 0.75996 0.06877 0.0
C83 C 0.38242 0.69281 0.89855 0.0
C84 C 0.34592 0.66558 0.83128 0.0
C85 C 0.38625 0.6627 0.83566 0.0
C86 C 0.40428 0.67619 0.86895 0.0
C87 C 0.34222 0.69667 0.89411 0.0
C88 C 0.32406 0.68305 0.86071 0.0
C89 C 0.40235 0.70724 0.93302 0.0
O90 O 0.33084 0.74021 1.00755 0.0
O91 O 0.33839 0.76643 0.06727 0.0
O92 O 0.31571 0.81789 1.01047 0.0
O93 O 0.34831 0.79763 0.9569 0.0
O94 O 0.36088 0.84124 0.10574 0.0
O95 O 0.34258 0.87731 0.05835 0.0
O96 O 0.40417 0.8471 1.00623 0.0
O97 O 0.43613 0.79168 0.99099 0.0
O98 O 0.40886 0.73687 0.04226 0.0
O99 O 0.41877 0.79726 0.06642 0.0
C100 C 0.32498 0.7388 0.04464 0.0
O101 O 0.41194 0.74345 0.93181 0.0
O102 O 0.38787 0.69775 0.96637 0.0
C103 C 0.31846 0.81499 0.97306 0.0
C104 C 0.3725 0.90888 0.11079 0.0
C105 C 0.41118 0.97295 0.1427 0.0
C106 C 0.38397 0.97813 0.11314 0.0
C107 C 0.36473 0.94644 0.09746 0.0
C108 C 0.40041 0.90366 0.1398 0.0
C109 C 0.41946 0.93537 0.1556 0.0
C110 C 0.35052 0.87589 0.09503 0.0
C111 C 0.43426 0.82926 0.99106 0.0
H112 H 0.40385 0.64955 0.81339 0.0
H113 H 0.43537 0.67347 0.87165 0.0
H114 H 0.32491 0.70983 0.91659 0.0
H115 H 0.29291 0.68513 0.85843 0.0
H116 H 0.37644 1.0068 0.10321 0.0
H117 H 0.34317 0.95142 0.07536 0.0
H118 H 0.40713 0.87519 0.1508 0.0
H119 H 0.44026 0.9306 0.17846 0.0
Tb120 Tb 0.45924 0.14942 0.30359 0.0
Tb121 Tb 0.52377 0.17606 0.24072 0.0
C122 C 0.5449 0.1151 0.30001 0.0
C123 C 0.37199 0.15035 0.36523 0.0
C124 C 0.30891 0.18952 0.39869 0.0
C125 C 0.32354 0.1555 0.41539 0.0
C126 C 0.35479 0.13604 0.39873 0.0
C127 C 0.35724 0.18415 0.34825 0.0
C128 C 0.32566 0.20345 0.36469 0.0
C129 C 0.40551 0.13009 0.3486 0.0
O130 O 0.48045 0.20285 0.32594 0.0
O131 O 0.54021 0.20118 0.29709 0.0
O132 O 0.48575 0.22442 0.24846 0.0
O133 O 0.43189 0.19005 0.26269 0.0
O134 O 0.58107 0.18156 0.22141 0.0
O135 O 0.533 0.20038 0.18626 0.0
O136 O 0.48275 0.13679 0.21275 0.0
O137 O 0.46844 0.10132 0.26574 0.0
O138 O 0.5163 0.12697 0.32237 0.0
O139 O 0.54481 0.12218 0.26314 0.0
C140 C 0.51713 0.21141 0.32588 0.0
O141 O 0.40461 0.12494 0.31142 0.0
O142 O 0.43931 0.14162 0.36025 0.0
C143 C 0.44822 0.22148 0.24912 0.0
C144 C 0.58591 0.17104 0.1537 0.0
C145 C 0.61796 0.13243 0.08921 0.0
C146 C 0.58138 0.15001 0.08673 0.0
C147 C 0.56554 0.16914 0.1186 0.0
C148 C 0.62221 0.15288 0.15626 0.0
C149 C 0.63796 0.13373 0.12447 0.0
C150 C 0.56991 0.19255 0.18716 0.0
C151 C 0.46995 0.10477 0.22837 0.0
H152 H 0.3109 0.14415 0.44153 0.0
H153 H 0.36578 0.11002 0.41221 0.0
H154 H 0.37044 0.19576 0.32255 0.0
H155 H 0.31502 0.22975 0.3515 0.0
H156 H 0.5656 0.15017 0.0598 0.0
H157 H 0.53759 0.183 0.11547 0.0
H158 H 0.63873 0.15385 0.18274 0.0
H159 H 0.66619 0.12035 0.12729 0.0
Tb160 Tb 0.61273 0.26129 0.55694 0.0
Tb161 Tb 0.63612 0.3235 0.49036 0.0
C162 C 0.57257 0.26688 0.47428 0.0
C163 C 0.61568 0.20017 0.64534 0.0
C164 C 0.65158 0.17032 0.71206 0.0
C165 C 0.61209 0.16405 0.70498 0.0
C166 C 0.59437 0.17882 0.67196 0.0
C167 C 0.65498 0.20723 0.65242 0.0
C168 C 0.67286 0.19232 0.68556 0.0
C169 C 0.59597 0.21583 0.61116 0.0
O170 O 0.66621 0.24082 0.53285 0.0
O171 O 0.65697 0.26554 0.47242 0.0
O172 O 0.68582 0.31605 0.52668 0.0
O173 O 0.65393 0.30239 0.58222 0.0
O174 O 0.63827 0.3415 0.43261 0.0
O175 O 0.66206 0.37657 0.47814 0.0
O176 O 0.5992 0.35355 0.5326 0.0
O177 O 0.56525 0.30112 0.5529 0.0
O178 O 0.58569 0.2436 0.50169 0.0
O179 O 0.57957 0.30371 0.47586 0.0
C180 C 0.67098 0.23855 0.49562 0.0
O181 O 0.58922 0.25279 0.61185 0.0
O182 O 0.60869 0.20447 0.57764 0.0
C183 C 0.68426 0.31645 0.56421 0.0
C184 C 0.63274 0.40934 0.42664 0.0
C185 C 0.59614 0.4764 0.39787 0.0
C186 C 0.63661 0.47237 0.39671 0.0
C187 C 0.65468 0.4392 0.41094 0.0
C188 C 0.59237 0.41343 0.42874 0.0
C189 C 0.57418 0.44668 0.41433 0.0
C190 C 0.65266 0.37493 0.44184 0.0
C191 C 0.56913 0.33842 0.55014 0.0
H192 H 0.59492 0.14739 0.72494 0.0
H193 H 0.56393 0.17347 0.66717 0.0
H194 H 0.67181 0.22397 0.63222 0.0
H195 H 0.70343 0.1971 0.6899 0.0
H196 H 0.65433 0.49485 0.38443 0.0
H197 H 0.68588 0.43678 0.40955 0.0
H198 H 0.57495 0.39078 0.44116 0.0
H199 H 0.54295 0.44861 0.41509 0.0
Tb200 Tb 0.02849 0.40039 0.8094 0.0
Tb201 Tb 0.96415 0.42471 0.74417 0.0
C202 C 0.02463 0.36409 0.72479 0.0
C203 C 0.09131 0.40493 0.89618 0.0
C204 C 0.12417 0.44526 0.9587 0.0
C205 C 0.14429 0.4147 0.94095 0.0
C206 C 0.12801 0.39476 0.91 0.0
C207 C 0.07092 0.43528 0.91401 0.0
C208 C 0.08713 0.45511 0.94521 0.0
C209 C 0.07489 0.38372 0.86322 0.0
O210 O 0.04804 0.45458 0.78731 0.0
O211 O 0.02023 0.45027 0.72746 0.0
O212 O 0.9699 0.47315 0.78198 0.0
O213 O 0.98612 0.43981 0.83626 0.0
O214 O 0.94508 0.4294 0.68682 0.0
O215 O 0.90923 0.44838 0.73413 0.0
O216 O 0.9369 0.38554 0.78579 0.0
O217 O 0.99108 0.35174 0.8023 0.0
O218 O 0.04711 0.37712 0.7527 0.0
O219 O 0.98743 0.3704 0.72521 0.0
C220 C 0.04836 0.46205 0.75046 0.0
O221 O 0.03785 0.37723 0.86444 0.0
O222 O 0.08583 0.39484 0.8291 0.0
C223 C 0.97019 0.47 0.81939 0.0
C224 C 0.8774 0.42251 0.68053 0.0
C225 C 0.81253 0.38659 0.6475 0.0
C226 C 0.81873 0.4263 0.64252 0.0
C227 C 0.85092 0.44403 0.65879 0.0
C228 C 0.87073 0.3831 0.68684 0.0
C229 C 0.83841 0.36524 0.67044 0.0
C230 C 0.91105 0.44204 0.69722 0.0
C231 C 0.95347 0.35463 0.80063 0.0
H232 H 0.17269 0.40618 0.9511 0.0
H233 H 0.14416 0.37142 0.89676 0.0
H234 H 0.04256 0.44374 0.90371 0.0
H235 H 0.07109 0.4786 0.9583 0.0
H236 H 0.79887 0.44355 0.62551 0.0
H237 H 0.85528 0.47458 0.65418 0.0
H238 H 0.89069 0.36616 0.70405 0.0
H239 H 0.83424 0.33463 0.67473 0.0
Tb240 Tb 0.86023 0.75613 0.99089 0.0
Tb241 Tb 0.8837 0.81862 0.05642 0.0
C242 C 0.82249 0.83979 0.99709 0.0
C243 C 0.86743 0.66986 0.92768 0.0
C244 C 0.90417 0.60379 0.89663 0.0
C245 C 0.89894 0.63718 0.8742 0.0
C246 C 0.88055 0.66974 0.88947 0.0
C247 C 0.87407 0.63696 0.95065 0.0
C248 C 0.89236 0.60429 0.93527 0.0
C249 C 0.84591 0.70379 0.94271 0.0
O250 O 0.91588 0.77766 0.97482 0.0
O251 O 0.9083 0.83755 1.0006 0.0
O252 O 0.93257 0.7805 0.0509 0.0
O253 O 0.89846 0.72745 0.03302 0.0
O254 O 0.8889 0.87563 0.07602 0.0
O255 O 0.90586 0.82751 0.11198 0.0
O256 O 0.84352 0.77703 0.08253 0.0
O257 O 0.81078 0.76119 0.02789 0.0
O258 O 0.83641 0.81314 0.97342 0.0
O259 O 0.8289 0.83744 0.03409 0.0
C260 C 0.92216 0.81464 0.97332 0.0
O261 O 0.83548 0.70257 0.97877 0.0
O262 O 0.85871 0.73777 0.9331 0.0
C263 C 0.9298 0.74315 0.04758 0.0
C264 C 0.87711 0.8805 0.14332 0.0
C265 C 0.83686 0.9116 0.20687 0.0
C266 C 0.87363 0.89501 0.21178 0.0
C267 C 0.89363 0.87974 0.18023 0.0
C268 C 0.83971 0.89581 0.13859 0.0
C269 C 0.81982 0.91133 0.1701 0.0
C270 C 0.89906 0.86448 0.11052 0.0
C271 C 0.81289 0.76244 0.06542 0.0
H272 H 0.90842 0.63782 0.84447 0.0
H273 H 0.87604 0.69464 0.87115 0.0
H274 H 0.86448 0.63606 0.98031 0.0
H275 H 0.89602 0.57896 0.95315 0.0
H276 H 0.88742 0.89503 0.23979 0.0
H277 H 0.92226 0.86769 0.18458 0.0
H278 H 0.82596 0.89612 0.11056 0.0
H279 H 0.79129 0.92357 0.16567 0.0
Tb280 Tb 0.52985 0.65134 0.23969 0.0
Tb281 Tb 0.46452 0.67327 0.30439 0.0
C282 C 0.44809 0.61088 0.24642 0.0
C283 C 0.61543 0.65672 0.17467 0.0
C284 C 0.6816 0.6933 0.14475 0.0
C285 C 0.67414 0.65432 0.1366 0.0
C286 C 0.64143 0.63626 0.15142 0.0
C287 C 0.6228 0.69555 0.1834 0.0
C288 C 0.65565 0.71374 0.16848 0.0
C289 C 0.58172 0.63657 0.19056 0.0
O290 O 0.50729 0.70733 0.2256 0.0
O291 O 0.44649 0.69719 0.24788 0.0
O292 O 0.50309 0.72148 0.30223 0.0
O293 O 0.5576 0.68981 0.28175 0.0
O294 O 0.4064 0.67509 0.32187 0.0
O295 O 0.45173 0.69672 0.35863 0.0
O296 O 0.50696 0.63489 0.33242 0.0
O297 O 0.52838 0.60316 0.2786 0.0
O298 O 0.47347 0.62629 0.22251 0.0
O299 O 0.45124 0.61686 0.28332 0.0
C300 C 0.47011 0.71269 0.22238 0.0
O301 O 0.58412 0.62743 0.22686 0.0
O302 O 0.54769 0.65042 0.18178 0.0
C303 C 0.54071 0.71867 0.30007 0.0
C304 C 0.40023 0.66577 0.38926 0.0
C305 C 0.37252 0.6253 0.45389 0.0
C306 C 0.37733 0.66544 0.45537 0.0
C307 C 0.39096 0.68549 0.42328 0.0
C308 C 0.39648 0.62548 0.38797 0.0
C309 C 0.38255 0.60543 0.42001 0.0
C310 C 0.41541 0.68751 0.3562 0.0
C311 C 0.52524 0.60568 0.31607 0.0
H312 H 0.69366 0.63776 0.11858 0.0
H313 H 0.63643 0.60621 0.14471 0.0
H314 H 0.60308 0.71175 0.20155 0.0
H315 H 0.66026 0.74393 0.17476 0.0
H316 H 0.36961 0.68143 0.48107 0.0
H317 H 0.39416 0.71649 0.42498 0.0
H318 H 0.40424 0.60957 0.36225 0.0
H319 H 0.37952 0.57442 0.4183 0.0
Tb320 Tb 0.27589 0.50504 0.13738 0.0
Tb321 Tb 0.21086 0.56897 0.16186 0.0
C322 C 0.2726 0.59077 0.10316 0.0
C323 C 0.33779 0.41727 0.14027 0.0
C324 C 0.36712 0.35088 0.17728 0.0
C325 C 0.37712 0.35919 0.13892 0.0
C326 C 0.36251 0.39202 0.12058 0.0
C327 C 0.32723 0.40897 0.17843 0.0
C328 C 0.34174 0.37592 0.19682 0.0
C329 C 0.32269 0.4516 0.12033 0.0
O330 O 0.29382 0.52611 0.19269 0.0
O331 O 0.26703 0.58626 0.18699 0.0
O332 O 0.21694 0.53049 0.20987 0.0
O333 O 0.23317 0.47716 0.17518 0.0
O334 O 0.19049 0.62577 0.16868 0.0
O335 O 0.15502 0.57723 0.18412 0.0
O336 O 0.18514 0.52889 0.11994 0.0
O337 O 0.24026 0.51402 0.08743 0.0
O338 O 0.29485 0.56171 0.11473 0.0
O339 O 0.23546 0.59145 0.10987 0.0
C340 C 0.29455 0.56299 0.19994 0.0
O341 O 0.28592 0.45095 0.11227 0.0
O342 O 0.33323 0.48494 0.13404 0.0
C343 C 0.21821 0.49306 0.20632 0.0
C344 C 0.12322 0.63043 0.15654 0.0
C345 C 0.05948 0.66022 0.11514 0.0
C346 C 0.05648 0.65276 0.15479 0.0
C347 C 0.08814 0.63809 0.17532 0.0
C348 C 0.12597 0.63678 0.11669 0.0
C349 C 0.0944 0.65167 0.0962 0.0
C350 C 0.15602 0.61433 0.17851 0.0
C351 C 0.20266 0.51641 0.08863 0.0
H352 H 0.39657 0.34036 0.12317 0.0
H353 H 0.37073 0.39783 0.09106 0.0
H354 H 0.30814 0.42826 0.19404 0.0
H355 H 0.33404 0.37055 0.22655 0.0
H356 H 0.02996 0.65925 0.17009 0.0
H357 H 0.08529 0.6329 0.20595 0.0
H358 H 0.15253 0.63034 0.10144 0.0
H359 H 0.09732 0.65671 0.06556 0.0
Tb360 Tb 0.77668 0.07669 0.91267 0.0
Tb361 Tb 0.7131 1.01227 0.88707 0.0
C362 C 0.77231 0.99232 0.94831 0.0
C363 C 0.83933 0.16292 0.9103 0.0
C364 C 0.87054 0.22764 0.87259 0.0
C365 C 0.87795 0.22092 0.91188 0.0
C366 C 0.86247 0.18889 0.93053 0.0
C367 C 0.83126 0.16965 0.87121 0.0
C368 C 0.84677 0.2018 0.85245 0.0
C369 C 0.82316 0.12952 0.9306 0.0
O370 O 0.79569 0.05559 0.8579 0.0
O371 O 0.77006 0.99528 0.86296 0.0
O372 O 0.7191 0.05073 0.83906 0.0
O373 O 0.73531 0.10449 0.87299 0.0
O374 O 0.6949 0.95483 0.88185 0.0
O375 O 0.65886 1.00202 0.86232 0.0
O376 O 0.68453 0.05335 0.92631 0.0
O377 O 0.73806 0.07022 0.96056 0.0
O378 O 0.79531 0.01962 0.9351 0.0
O379 O 0.73518 0.99363 0.94186 0.0
C380 C 0.79776 0.01866 0.85109 0.0
O381 O 0.7861 0.13113 0.93701 0.0
O382 O 0.83398 0.09559 0.91833 0.0
C383 C 0.72042 0.08821 0.84211 0.0
C384 C 0.62719 0.948 0.88756 0.0
C385 C 0.56224 0.91388 0.92229 0.0
C386 C 0.56836 0.91081 0.88237 0.0
C387 C 0.60059 0.92762 0.86523 0.0
C388 C 0.62062 0.95239 0.92727 0.0
C389 C 0.58826 0.93547 0.94453 0.0
C390 C 0.66104 0.96506 0.86867 0.0
C391 C 0.70053 0.06853 0.95719 0.0
H392 H 0.89601 0.24041 0.92818 0.0
H393 H 0.86871 0.18432 0.96077 0.0
H394 H 0.81327 0.14986 0.85518 0.0
H395 H 0.84105 0.20586 0.82205 0.0
H396 H 0.54839 0.89491 0.86446 0.0
H397 H 0.60489 0.92445 0.83448 0.0
H398 H 0.64071 0.96847 0.94488 0.0
H399 H 0.58417 0.9383 0.97532 0.0
Tb400 Tb 0.71578 1.00333 0.40835 0.0
Tb401 Tb 0.78027 0.06834 0.38766 0.0
C402 C 0.72027 0.08502 0.44881 0.0
C403 C 0.65217 0.91723 0.39952 0.0
C404 C 0.61956 0.85181 0.36377 0.0
C405 C 0.59683 0.88464 0.37164 0.0
C406 C 0.61289 0.91686 0.38954 0.0
C407 C 0.67535 0.88504 0.39006 0.0
C408 C 0.65919 0.85269 0.37227 0.0
C409 C 0.6679 0.95039 0.4213 0.0
O410 O 0.69997 0.02689 0.35343 0.0
O411 O 0.72402 0.087 0.36333 0.0
O412 O 0.77665 0.03213 0.33763 0.0
O413 O 0.75758 0.9771 0.36813 0.0
O414 O 0.79834 0.12616 0.38866 0.0
O415 O 0.83427 0.08133 0.36403 0.0
O416 O 0.80835 0.02481 0.42433 0.0
O417 O 0.75454 1.0053 0.45676 0.0
O418 O 0.69691 0.05921 0.43344 0.0
O419 O 0.75747 0.08194 0.44356 0.0
C420 C 0.69745 0.06408 0.34849 0.0
O421 O 0.70431 0.9486 0.43087 0.0
O422 O 0.65794 0.98483 0.40968 0.0
C423 C 0.77316 0.99465 0.33829 0.0
C424 C 0.86619 0.13127 0.39799 0.0
C425 C 0.93188 0.16129 0.43567 0.0
C426 C 0.93174 0.12296 0.42271 0.0
C427 C 0.89921 0.10806 0.4041 0.0
C428 C 0.86598 0.16917 0.41205 0.0
C429 C 0.89837 0.18395 0.43079 0.0
C430 C 0.83263 0.117 0.37578 0.0
C431 C 0.79214 1.00763 0.45397 0.0
H432 H 0.56632 0.88509 0.36464 0.0
H433 H 0.59438 0.94125 0.39629 0.0
H434 H 0.70582 0.88438 0.39716 0.0
H435 H 0.67737 0.82783 0.36647 0.0
H436 H 0.95728 0.10497 0.42553 0.0
H437 H 0.90039 0.07866 0.3937 0.0
H438 H 0.84099 0.18768 0.40786 0.0
H439 H 0.89753 0.21354 0.44074 0.0
Tb440 Tb 0.28115 0.5095 0.65771 0.0
Tb441 Tb 0.21783 0.57484 0.63227 0.0
C442 C 0.19683 0.51689 0.69436 0.0
C443 C 0.36899 0.44768 0.65188 0.0
C444 C 0.43538 0.41764 0.61452 0.0
C445 C 0.40372 0.39383 0.62299 0.0
C446 C 0.37101 0.40865 0.64155 0.0
C447 C 0.40024 0.47181 0.64254 0.0
C448 C 0.4331 0.4569 0.62412 0.0
C449 C 0.3348 0.46247 0.67316 0.0
O450 O 0.25747 0.49019 0.60392 0.0
O451 O 0.19782 0.51828 0.61053 0.0
O452 O 0.25488 0.56565 0.58334 0.0
O453 O 0.30867 0.55031 0.61802 0.0
O454 O 0.16107 0.59619 0.62761 0.0
O455 O 0.20956 0.6292 0.60701 0.0
O456 O 0.26001 0.60171 0.6713 0.0
O457 O 0.27555 0.54789 0.70579 0.0
O458 O 0.22476 0.49316 0.6829 0.0
O459 O 0.1985 0.55377 0.68696 0.0
C460 C 0.2203 0.49007 0.59771 0.0
O461 O 0.33517 0.49877 0.68285 0.0
O462 O 0.30089 0.45197 0.66061 0.0
C463 C 0.2924 0.56261 0.58602 0.0
C464 C 0.15797 0.66407 0.63404 0.0
C465 C 0.12775 0.7305 0.67015 0.0
C466 C 0.129 0.72777 0.62977 0.0
C467 C 0.14384 0.6948 0.61191 0.0
C468 C 0.15851 0.66731 0.67439 0.0
C469 C 0.14348 0.70037 0.69235 0.0
C470 C 0.17267 0.62936 0.61439 0.0
C471 C 0.27471 0.58534 0.70232 0.0
H472 H 0.40449 0.36348 0.61571 0.0
H473 H 0.34744 0.3894 0.6483 0.0
H474 H 0.39971 0.50209 0.65006 0.0
H475 H 0.4572 0.47585 0.61861 0.0
H476 H 0.1176 0.75086 0.61199 0.0
H477 H 0.14383 0.69309 0.58076 0.0
H478 H 0.16994 0.64407 0.69195 0.0
H479 H 0.14286 0.70179 0.7235 0.0
C480 C 0.17389 0.39152 0.59792 0.0
C481 C 0.18624 0.3757 0.56263 0.0
C482 C 0.18261 0.42987 0.60795 0.0
C483 C 0.20437 0.45348 0.58328 0.0
H484 H 0.15662 0.37455 0.61749 0.0
H485 H 0.17327 0.44072 0.63571 0.0
S486 S 0.24683 0.42509 0.48959 0.0
N487 N 0.22332 0.38646 0.50405 0.0
N488 N 0.24035 0.45767 0.52366 0.0
C489 C 0.21799 0.43765 0.54872 0.0
C490 C 0.2088 0.39901 0.53823 0.0
C491 C 0.86909 0.02603 0.84081 0.0
C492 C 0.83533 1.00351 0.83663 0.0
C493 C 0.90553 1.01242 0.82897 0.0
C494 C 0.90946 0.9761 0.81192 0.0
H495 H 0.86757 0.0544 0.85367 0.0
H496 H 0.93052 0.03077 0.83232 0.0
S497 S 0.8311 0.90529 0.79533 0.0
N498 N 0.80903 0.94246 0.81551 0.0
N499 N 0.877 0.91742 0.792 0.0
C500 C 0.87616 0.95322 0.80776 0.0
C501 C 0.83926 0.96673 0.8205 0.0
C502 C 0.31108 0.66823 0.03693 0.0
C503 C 0.31108 0.7015 0.06064 0.0
C504 C 0.3006 0.63188 0.05122 0.0
C505 C 0.28944 0.62736 0.08964 0.0
H506 H 0.31949 0.67002 1.007 0.0
H507 H 0.30026 0.6074 0.0318 0.0
S508 S 0.28385 0.70434 0.16377 0.0
N509 N 0.29916 0.72675 0.12478 0.0
N510 N 0.27814 0.65886 0.15115 0.0
C511 C 0.28908 0.66014 0.11363 0.0
C512 C 0.3003 0.69704 0.0993 0.0
C513 C 0.59542 0.06446 0.30795 0.0
C514 C 0.58201 0.1017 0.31631 0.0
C515 C 0.63333 0.05318 0.31707 0.0
C516 C 0.65978 0.07907 0.33398 0.0
H517 H 0.57655 0.04397 0.29391 0.0
H518 H 0.64186 0.02376 0.31087 0.0
S519 S 0.63987 0.18172 0.35685 0.0
N520 N 0.5986 0.16531 0.3399 0.0
N521 N 0.67017 0.14478 0.35577 0.0
C522 C 0.64704 0.11694 0.341 0.0
C523 C 0.60809 0.12806 0.33254 0.0
C524 C 0.66127 0.17776 0.45808 0.0
C525 C 0.68528 0.20108 0.48093 0.0
C526 C 0.67127 0.13915 0.44984 0.0
C527 C 0.70589 0.1227 0.46378 0.0
H528 H 0.63402 0.18909 0.44746 0.0
H529 H 0.65226 0.12244 0.43167 0.0
S530 S 0.77711 0.17118 0.52725 0.0
N531 N 0.74363 0.20437 0.51932 0.0
N532 N 0.76311 0.13264 0.50325 0.0
C533 C 0.7296 0.14572 0.48735 0.0
C534 C 0.71915 0.18464 0.49603 0.0
C535 C 0.08936 0.51168 0.71796 0.0
C536 C 0.08563 0.47513 0.73445 0.0
C537 C 0.12565 0.52507 0.70598 0.0
C538 C 0.15951 0.50213 0.70947 0.0
H539 H 0.06428 0.53032 0.71501 0.0
H540 H 0.12695 0.55358 0.69343 0.0
S541 S 0.16429 0.40325 0.74936 0.0
N542 N 0.11839 0.41584 0.75325 0.0
N543 N 0.18612 0.44046 0.72957 0.0
C544 C 0.15581 0.46518 0.72522 0.0
C545 C 0.11903 0.45187 0.73806 0.0
C546 C 0.8105 0.93173 0.93823 0.0
C547 C 0.78768 0.9551 0.9625 0.0
C548 C 0.81948 0.89327 0.94811 0.0
C549 C 0.80645 0.8771 0.98291 0.0
H550 H 0.82057 0.9429 0.9109 0.0
H551 H 0.83756 0.87651 0.92888 0.0
S552 S 0.74325 0.92568 0.05479 0.0
N553 N 0.75004 0.95861 0.02119 0.0
N554 N 0.76774 0.88723 0.04059 0.0
C555 C 0.78287 0.90013 1.00689 0.0
C556 C 0.77331 0.93886 0.9965 0.0
C557 C 0.39362 0.60874 0.19846 0.0
C558 C 0.41038 0.59552 0.23298 0.0
C559 C 0.35492 0.60046 0.18926 0.0
C560 C 0.33183 0.57807 0.21389 0.0
H561 H 0.41021 0.62616 0.17875 0.0
H562 H 0.34349 0.61051 0.162 0.0
S563 S 0.36267 0.53344 0.30583 0.0
N564 N 0.40105 0.55718 0.29095 0.0
N565 N 0.32913 0.54069 0.27273 0.0
C566 C 0.34858 0.56355 0.24768 0.0
C567 C 0.38761 0.57244 0.25742 0.0
C568 C 0.54777 0.26182 0.36734 0.0
C569 C 0.53319 0.2246 0.36306 0.0
C570 C 0.55944 0.27531 0.40365 0.0
C571 C 0.55761 0.25182 0.43701 0.0
H572 H 0.54938 0.28091 0.34269 0.0
H573 H 0.57038 0.30439 0.40531 0.0
S574 S 0.52276 0.15122 0.44021 0.0
N575 N 0.51764 0.16418 0.39475 0.0
N576 N 0.54101 0.18898 0.4625 0.0
C577 C 0.54374 0.21423 0.43274 0.0
C578 C 0.53111 0.20081 0.39594 0.0
C579 C 0.04042 0.30251 0.63631 0.0
C580 C 0.05714 0.32837 0.60973 0.0
C581 C 0.03186 0.31363 0.67426 0.0
C582 C 0.04076 0.35063 0.68768 0.0
H583 H 0.03387 0.27326 0.62781 0.0
H584 H 1.01779 0.29321 0.69317 0.0
S585 S 0.08144 0.43042 0.62959 0.0
N586 N 0.0795 0.3938 0.5993 0.0
N587 N 0.06496 0.41391 0.67094 0.0
C588 C 0.05702 0.37689 0.66149 0.0
C589 C 0.06477 0.36599 0.62248 0.0
C590 C 0.96409 0.81518 0.87209 0.0
C591 C 0.95514 0.85227 0.85866 0.0
C592 C 0.95478 0.80394 0.90979 0.0
C593 C 0.93714 0.82974 0.93608 0.0
H594 H 0.97861 0.79473 0.85336 0.0
H595 H 0.96133 0.7746 0.91828 0.0
S596 S 0.91255 0.93204 0.91625 0.0
N597 N 0.9302 0.91567 0.87521 0.0
N598 N 0.91406 0.89524 0.94637 0.0
C599 C 0.92961 0.86749 0.92339 0.0
C600 C 0.9382 0.87855 0.88464 0.0
C601 C 0.42291 0.71256 0.16719 0.0
C602 C 0.45622 0.72772 0.18472 0.0
C603 C 0.4139 0.72077 0.12845 0.0
C604 C 0.43738 0.74518 0.10624 0.0
H605 H 0.40414 0.69363 0.1832 0.0
H606 H 0.38771 0.70898 0.11623 0.0
S607 S 0.52587 0.79476 0.13925 0.0
N608 N 0.51181 0.76956 0.17699 0.0
N609 N 0.4939 0.78604 0.10509 0.0
C610 C 0.46994 0.76144 0.12377 0.0
C611 C 0.47953 0.75255 0.16276 0.0
C612 C 0.16044 0.46905 0.29572 0.0
C613 C 0.16793 0.42974 0.30199 0.0
C614 C 0.17675 0.48864 0.26468 0.0
C615 C 0.20132 0.46991 0.23814 0.0
H616 H 0.14192 0.48505 0.31524 0.0
H617 H 0.16971 0.51894 0.26151 0.0
S618 S 0.23037 0.36683 0.24156 0.0
N619 N 0.20168 0.3724 0.27921 0.0
N620 N 0.23246 0.40942 0.22041 0.0
C621 C 0.20915 0.43046 0.24392 0.0
C622 C 0.1926 0.41041 0.276 0.0
C623 C 0.8181 0.94611 0.54032 0.0
C624 C 0.85635 0.95639 0.5488 0.0
C625 C 0.79818 0.96267 0.50944 0.0
C626 C 0.81555 0.99027 0.48542 0.0
H627 H 0.80313 0.92532 0.55806 0.0
H628 H 0.76873 0.95355 0.50445 0.0
S629 S 0.91542 0.02728 0.49509 0.0
N630 N 0.91123 0.99585 0.53058 0.0
N631 N 0.8735 0.02731 0.4723 0.0
C632 C 0.85393 1.00083 0.49333 0.0
C633 C 0.87431 0.98397 0.52516 0.0
C634 C 0.32049 0.58995 0.75714 0.0
C635 C 0.2925 0.60807 0.73378 0.0
C636 C 0.33738 0.60898 0.78823 0.0
C637 C 0.32702 0.64703 0.79763 0.0
H638 H 0.32965 0.56059 0.75145 0.0
H639 H 0.35847 0.59344 0.80543 0.0
S640 S 0.25515 0.70776 0.74589 0.0
N641 N 0.25507 0.66647 0.72215 0.0
N642 N 0.28703 0.70253 0.781 0.0
C643 C 0.29906 0.66575 0.77463 0.0
C644 C 0.28192 0.64629 0.74252 0.0
C645 C 0.67524 0.12645 0.04618 0.0
C646 C 0.63708 0.11581 0.05452 0.0
C647 C 0.69479 0.11135 1.01436 0.0
C648 C 0.67715 0.08492 0.98918 0.0
H649 H 0.6902 0.14688 0.06436 0.0
H650 H 0.72419 0.12068 1.00954 0.0
S651 S 0.57758 0.04718 0.9983 0.0
N652 N 0.58215 0.07693 0.03518 0.0
N653 N 0.61904 0.04866 0.9748 0.0
C654 C 0.63873 0.07433 0.99671 0.0
C655 C 0.61869 0.08974 0.02947 0.0
C656 C 0.6638 0.11169 0.75161 0.0
C657 C 0.67053 0.15106 0.74547 0.0
C658 C 0.68006 0.09222 0.78289 0.0
C659 C 0.70388 0.11112 0.80977 0.0
H660 H 0.64587 0.09556 0.73183 0.0
H661 H 0.67351 0.06189 0.78598 0.0
S662 S 0.73109 0.21433 0.80664 0.0
N663 N 0.7029 0.20859 0.76866 0.0
N664 N 0.73378 0.17174 0.82781 0.0
C665 C 0.71111 0.15058 0.80403 0.0
C666 C 0.69453 0.17053 0.77176 0.0
C667 C 0.14275 0.4889 0.05791 0.0
C668 C 0.18071 0.50281 0.05441 0.0
C669 C 0.12394 0.47137 0.02652 0.0
C670 C 0.1425 0.46712 0.99065 0.0
H671 H 0.12804 0.49016 0.0854 0.0
H672 H 0.09527 0.45979 0.03073 0.0
S673 S 0.23922 0.50416 0.96465 0.0
N674 N 0.23424 0.51505 1.01064 0.0
N675 N 0.19899 0.48209 0.95229 0.0
C676 C 0.17949 0.48281 0.98626 0.0
C677 C 0.19853 0.50067 1.01794 0.0
C678 C 0.79631 0.93333 0.30667 0.0
C679 C 0.78645 0.97267 0.30396 0.0
C680 C 0.81209 0.91339 0.27501 0.0
C681 C 0.81783 0.93192 0.23941 0.0
H682 H 0.79293 0.91815 0.33369 0.0
H683 H 0.82013 0.88336 0.27845 0.0
S684 S 0.79536 0.03396 0.2165 0.0
N685 N 0.78238 0.02888 0.26191 0.0
N686 N 0.812 0.99138 0.20307 0.0
C687 C 0.80716 0.97083 0.23603 0.0
C688 C 0.79146 0.99119 0.26812 0.0
C689 C 0.35053 0.59375 0.55656 0.0
C690 C 0.3157 0.57365 0.55213 0.0
C691 C 0.36954 0.6095 0.52448 0.0
C692 C 0.35476 0.6049 0.48695 0.0
H693 H 0.36214 0.59895 0.58504 0.0
H694 H 0.39554 0.62609 0.52911 0.0
S695 S 0.26637 0.55156 0.45986 0.0
N696 N 0.2686 0.54779 0.50719 0.0
N697 N 0.30444 0.57698 0.44718 0.0
C698 C 0.32104 0.58317 0.4821 0.0
C699 C 0.30149 0.56766 0.51464 0.0
C700 C 0.2113 0.23652 0.41929 0.0
C701 C 0.21495 0.24738 0.4582 0.0
C702 C 0.24219 0.21879 0.39956 0.0
C703 C 0.27756 0.21126 0.4182 0.0
H704 H 0.18408 0.24051 0.40437 0.0
H705 H 0.23798 0.20974 0.37001 0.0
S706 S 0.30413 0.2392 0.51762 0.0
N707 N 0.25869 0.25311 0.513 0.0
N708 N 0.31594 0.2195 0.47598 0.0
C709 C 0.28221 0.22372 0.45628 0.0
C710 C 0.25112 0.24187 0.47625 0.0
C711 C 0.08245 0.06049 0.70446 0.0
C712 C 0.07371 0.0689 0.66587 0.0
C713 C 0.06587 0.02915 0.72329 0.0
C714 C 0.03976 1.00447 0.70446 0.0
H715 H 0.10216 0.07856 0.7205 0.0
H716 H 0.07395 0.02424 0.75303 0.0
S717 S 1.0068 1.01397 0.60321 0.0
N718 N 0.03702 0.05018 0.60917 0.0
N719 N 1.00562 0.99087 0.64482 0.0
C720 C 0.03061 1.01242 0.66577 0.0
C721 C 0.04746 0.04479 0.6465 0.0
C722 C 0.23272 0.87804 0.94744 0.0
C723 C 0.22035 0.86367 0.91171 0.0
C724 C 0.26504 0.86262 0.96614 0.0
C725 C 0.28672 0.83221 0.94993 0.0
H726 H 0.2172 0.90149 0.96124 0.0
H727 H 0.27293 0.87463 0.99381 0.0
S728 S 0.26689 0.78419 0.85668 0.0
N729 N 0.23248 0.81724 0.8605 0.0
N730 N 0.2939 0.78852 0.89567 0.0
C731 C 0.27544 0.81808 0.91372 0.0
C732 C 0.24212 0.83373 0.89462 0.0
C733 C 0.43848 0.04053 0.2236 0.0
C734 C 0.45614 0.07181 0.20477 0.0
C735 C 0.42471 1.00876 0.20322 0.0
C736 C 0.4278 1.0067 0.163 0.0
H737 H 0.4348 0.04047 0.25457 0.0
H738 H 0.41082 0.98585 0.21914 0.0
S739 S 0.47335 0.07944 0.09956 0.0
N740 N 0.4772 0.09788 0.14326 0.0
N741 N 0.45101 0.03783 0.10481 0.0
C742 C 0.44563 0.03742 0.14355 0.0
C743 C 0.45991 0.06998 0.16444 0.0
C744 C 0.75284 0.34515 0.64567 0.0
C745 C 0.78061 0.36747 0.62637 0.0
C746 C 0.72161 0.32865 0.62563 0.0
C747 C 0.71741 0.33351 0.58554 0.0
H748 H 0.75489 0.34105 0.67652 0.0
H749 H 0.7007 0.31199 0.64164 0.0
S750 S 0.78417 0.38789 0.52167 0.0
N751 N 0.80303 0.39213 0.56506 0.0
N752 N 0.74492 0.36187 0.5274 0.0
C753 C 0.74568 0.35528 0.56601 0.0
C754 C 0.7771 0.37202 0.5864 0.0
C755 C 0.96604 0.5142 0.87703 0.0
C756 C 0.95118 0.50129 0.84162 0.0
C757 C 0.95036 0.54705 0.89533 0.0
C758 C 0.91939 0.56785 0.87875 0.0
H759 H 0.99071 0.4998 0.88988 0.0
H760 H 0.96325 0.5569 0.92198 0.0
S761 S 0.86634 0.54203 0.78973 0.0
N762 N 0.90107 0.50943 0.79307 0.0
N763 N 0.87178 0.5704 0.82744 0.0
C764 C 0.90313 0.55386 0.84452 0.0
C765 C 0.91898 0.52077 0.82599 0.0
C766 C 0.7523 0.72403 0.06755 0.0
C767 C 0.77991 0.74611 0.08749 0.0
C768 C 0.72076 0.70768 0.08637 0.0
C769 C 0.71506 0.71259 0.12609 0.0
H770 H 0.75504 0.71887 0.03691 0.0
H771 H 0.70049 0.69104 0.06949 0.0
S772 S 0.77806 0.76826 0.19202 0.0
N773 N 0.79896 0.77255 0.14948 0.0
N774 N 0.7394 0.74144 0.18506 0.0
C775 C 0.74199 0.73495 0.14658 0.0
C776 C 0.7745 0.75164 0.1273 0.0
C777 C 0.58924 0.52054 0.34165 0.0
C778 C 0.57733 0.51015 0.37886 0.0
C779 C 0.57244 0.55168 0.32227 0.0
C780 C 0.54293 0.57413 0.33917 0.0
H781 H 0.61149 0.50404 0.32699 0.0
H782 H 0.58283 0.55813 0.29359 0.0
S783 S 0.50123 0.55933 0.43639 0.0
N784 N 0.53433 0.52501 0.43232 0.0
N785 N 0.50241 0.58379 0.39558 0.0
C786 C 0.53077 0.56439 0.37656 0.0
C787 C 0.54789 0.53227 0.39638 0.0
C788 C 0.42636 0.3144 0.19564 0.0
C789 C 0.38601 0.31789 0.19727 0.0
C790 C 0.44563 0.28341 0.21283 0.0
C791 C 0.42551 0.25407 0.23238 0.0
H792 H 0.44336 0.33599 0.18093 0.0
H793 H 0.47679 0.28247 0.21022 0.0
S794 S 0.31918 0.24998 0.24526 0.0
N795 N 0.32616 0.28992 0.22036 0.0
N796 N 0.36248 0.23098 0.25255 0.0
C797 C 0.38499 0.25728 0.23453 0.0
C798 C 0.36526 0.28937 0.21715 0.0
C799 C 0.94978 0.29522 0.84072 0.0
C800 C 0.9306 0.3226 0.81744 0.0
C801 C 0.93004 0.26477 0.85791 0.0
C802 C 0.89015 0.26001 0.85261 0.0
H803 H 0.98049 0.29735 0.84625 0.0
H804 H 0.94632 0.24461 0.87549 0.0
S805 S 0.82607 0.32271 0.79364 0.0
N806 N 0.86919 0.34237 0.78934 0.0
N807 N 0.8319 0.28482 0.82194 0.0
C808 C 0.87044 0.28667 0.82898 0.0
C809 C 0.89065 0.31807 0.81148 0.0
C810 C 0.98932 0.66433 0.09603 0.0
C811 C 0.02705 0.67927 0.0943 0.0
C812 C 0.95794 0.68391 0.07894 0.0
C813 C 0.96323 0.71946 0.06029 0.0
H814 H 0.98398 0.63761 0.11121 0.0
H815 H 0.92924 0.67206 0.08183 0.0
S816 S 0.05649 0.76991 0.04635 0.0
N817 N 0.06796 0.7309 0.07114 0.0
N818 N 1.00942 0.76764 0.03925 0.0
C819 C 1.00102 0.73399 0.05739 0.0
C820 C 0.03282 0.71393 0.07434 0.0
C821 C 0.61622 0.79641 0.31665 0.0
C822 C 0.60126 0.81605 0.34899 0.0
C823 C 0.59759 0.76372 0.30152 0.0
C824 C 0.56344 0.74977 0.31831 0.0
H825 H 0.6418 0.80705 0.3023 0.0
H826 H 0.60912 0.75024 0.27581 0.0
S827 S 0.51618 0.78724 0.40684 0.0
N828 N 0.55295 0.81638 0.39969 0.0
N829 N 0.51793 0.75566 0.37136 0.0
C830 C 0.54947 0.76808 0.35173 0.0
C831 C 0.56835 0.80104 0.36705 0.0
C832 C 0.51857 0.3477 0.59982 0.0
C833 C 0.53825 0.36243 0.56763 0.0
C834 C 0.48609 0.36631 0.61498 0.0
C835 C 0.47152 0.40044 0.59854 0.0
H836 H 0.52802 0.32105 0.61322 0.0
H837 H 0.47201 0.35356 0.63971 0.0
S838 S 0.51286 0.45156 0.51427 0.0
N839 N 0.54164 0.41384 0.52031 0.0
N840 N 0.47988 0.44888 0.54855 0.0
C841 C 0.49156 0.41631 0.56699 0.0
C842 C 0.52508 0.3973 0.55161 0.0
C843 C 0.12409 0.78615 0.71705 0.0
C844 C 0.10665 0.76301 0.68867 0.0
C845 C 0.10377 0.817 0.73432 0.0
C846 C 0.06512 0.82509 0.72429 0.0
H847 H 0.15367 0.78053 0.72571 0.0
H848 H 0.11809 0.83405 0.75612 0.0
S849 S 1.00651 0.77242 0.65174 0.0
N850 N 0.04868 0.75004 0.65168 0.0
N851 N 1.01064 0.80737 0.68362 0.0
C852 C 0.04759 0.80195 0.6959 0.0
C853 C 0.06828 0.77107 0.67826 0.0
C854 C 0.47168 0.89069 0.9805 0.0
C855 C 0.46701 0.85093 0.9738 0.0
C856 C 0.50288 0.911 0.96439 0.0
C857 C 0.53014 0.89234 0.94061 0.0
H858 H 0.45125 0.90622 0.99843 0.0
H859 H 0.50536 0.94158 0.97005 0.0
S860 S 0.53202 0.78868 0.91474 0.0
N861 N 0.49324 0.7938 0.94186 0.0
N862 N 0.55137 0.8319 0.91232 0.0
C863 C 0.52603 0.85269 0.93403 0.0
C864 C 0.49462 0.83203 0.95039 0.0
C865 C 0.97924 0.2149 0.436 0.0
C866 C 0.96773 0.17914 0.45087 0.0
C867 C 1.01177 0.23374 0.45016 0.0
C868 C 0.03452 0.21767 0.47978 0.0
H869 H 0.96282 0.22866 0.41318 0.0
H870 H 1.01891 0.2615 0.43788 0.0
S871 S 1.01757 0.12401 0.52812 0.0
N872 N 0.98204 0.12775 0.49649 0.0
N873 N 0.04388 0.16323 0.52293 0.0
C874 C 0.02422 0.1813 0.49421 0.0
C875 C 0.99069 0.16203 0.47981 0.0
loop_
_geom_bond_atom_site_label_1
_geom_bond_atom_site_label_2
_geom_bond_distance
_geom_bond_site_symmetry_2
_ccdc_geom_bond_type
Tb0 C9 2.764 . S
Tb0 O10 2.325 . S
Tb0 O13 2.303 . S
Tb0 O17 2.322 . S
Tb0 O18 2.349 . S
Tb0 O21 2.415 . S
Tb0 O22 2.399 . S
Tb1 O11 2.322 . S
Tb1 O12 2.349 . S
Tb1 O14 2.415 . S
Tb1 O15 2.399 . S
Tb1 O16 2.325 . S
Tb1 O19 2.303 . S
Tb1 C30 2.764 . S
C2 O18 1.261 . S
C2 O19 1.257 . S
C3 C6 1.358 . S
C3 C7 1.332 . S
C3 C9 1.504 . S
C4 C5 1.373 . S
C4 C8 1.308 . S
C5 C4 1.373 . S
C5 C6 1.429 . S
C5 H32 0.932 . S
C6 C3 1.358 . S
C6 C5 1.429 . S
C6 H33 0.930 . S
C7 C3 1.332 . S
C7 C8 1.394 . S
C7 H34 0.932 . S
C8 C4 1.308 . S
C8 C7 1.394 . S
C8 H35 0.929 . S
C9 Tb0 2.764 . S
C9 C3 1.504 . S
C9 O21 1.239 . S
C9 O22 1.263 . S
O10 Tb0 2.325 . S
O10 C20 1.236 . S
O11 Tb1 2.322 . S
O11 C20 1.257 . S
O12 Tb1 2.349 . S
O12 C23 1.261 . S
O13 Tb0 2.303 . S
O13 C23 1.257 . S
O14 Tb1 2.415 . S
O14 C30 1.239 . S
O15 Tb1 2.399 . S
O15 C30 1.263 . S
O16 Tb1 2.325 . S
O16 C31 1.236 . S
O17 Tb0 2.322 . S
O17 C31 1.257 . S
O18 Tb0 2.349 . S
O18 C2 1.261 . S
O19 Tb1 2.303 . S
O19 C2 1.257 . S
C20 O10 1.236 . S
C20 O11 1.257 . S
O21 Tb0 2.415 . S
O21 C9 1.239 . S
O22 Tb0 2.399 . S
O22 C9 1.263 . S
C23 O12 1.261 . S
C23 O13 1.257 . S
C24 C27 1.358 . S
C24 C28 1.332 . S
C24 C30 1.504 . S
C25 C26 1.373 . S
C25 C29 1.308 . S
C26 C25 1.373 . S
C26 C27 1.429 . S
C26 H36 0.932 . S
C27 C24 1.358 . S
C27 C26 1.429 . S
C27 H37 0.930 . S
C28 C24 1.332 . S
C28 C29 1.394 . S
C28 H38 0.932 . S
C29 C25 1.308 . S
C29 C28 1.394 . S
C29 H39 0.929 . S
C30 Tb1 2.764 . S
C30 O14 1.239 . S
C30 O15 1.263 . S
C30 C24 1.504 . S
C31 O16 1.236 . S
C31 O17 1.257 . S
H32 C5 0.932 . S
H33 C6 0.930 . S
H34 C7 0.932 . S
H35 C8 0.929 . S
H36 C26 0.932 . S
H37 C27 0.930 . S
H38 C28 0.932 . S
H39 C29 0.929 . S
Tb40 C49 2.764 . S
Tb40 O50 2.325 . S
Tb40 O53 2.303 . S
Tb40 O57 2.322 . S
Tb40 O58 2.349 1_455 S
Tb40 O61 2.415 . S
Tb40 O62 2.399 . S
Tb41 O51 2.322 . S
Tb41 O52 2.349 1_655 S
Tb41 O54 2.415 . S
Tb41 O55 2.399 . S
Tb41 O56 2.325 1_655 S
Tb41 O59 2.303 . S
Tb41 C70 2.764 . S
C42 O58 1.261 . S
C42 O59 1.257 . S
C43 C46 1.358 . S
C43 C47 1.332 . S
C43 C49 1.504 . S
C44 C45 1.373 . S
C44 C48 1.308 . S
C45 C44 1.373 . S
C45 C46 1.429 . S
C45 H72 0.932 . S
C46 C43 1.358 . S
C46 C45 1.429 . S
C46 H73 0.930 . S
C47 C43 1.332 . S
C47 C48 1.394 . S
C47 H74 0.932 . S
C48 C44 1.308 . S
C48 C47 1.394 . S
C48 H75 0.929 . S
C49 Tb40 2.764 . S
C49 C43 1.504 . S
C49 O61 1.239 . S
C49 O62 1.263 . S
O50 Tb40 2.325 . S
O50 C60 1.236 1_455 S
O51 Tb41 2.322 . S
O51 C60 1.257 . S
O52 Tb41 2.349 1_455 S
O52 C63 1.261 . S
O53 Tb40 2.303 . S
O53 C63 1.257 . S
O54 Tb41 2.415 . S
O54 C70 1.239 . S
O55 Tb41 2.399 . S
O55 C70 1.263 . S
O56 Tb41 2.325 1_455 S
O56 C71 1.236 . S
O57 Tb40 2.322 . S
O57 C71 1.257 . S
O58 Tb40 2.349 1_655 S
O58 C42 1.261 . S
O59 Tb41 2.303 . S
O59 C42 1.257 . S
C60 O50 1.236 1_655 S
C60 O51 1.257 . S
O61 Tb40 2.415 . S
O61 C49 1.239 . S
O62 Tb40 2.399 . S
O62 C49 1.263 . S
C63 O52 1.261 . S
C63 O53 1.257 . S
C64 C67 1.358 . S
C64 C68 1.332 . S
C64 C70 1.504 . S
C65 C66 1.373 . S
C65 C69 1.308 . S
C66 C65 1.373 . S
C66 C67 1.429 . S
C66 H76 0.932 . S
C67 C64 1.358 . S
C67 C66 1.429 . S
C67 H77 0.930 . S
C68 C64 1.332 . S
C68 C69 1.394 . S
C68 H78 0.932 . S
C69 C65 1.308 . S
C69 C68 1.394 . S
C69 H79 0.929 1_565 S
C70 Tb41 2.764 . S
C70 O54 1.239 . S
C70 O55 1.263 . S
C70 C64 1.504 . S
C71 O56 1.236 . S
C71 O57 1.257 . S
H72 C45 0.932 . S
H73 C46 0.930 . S
H74 C47 0.932 . S
H75 C48 0.929 . S
H76 C66 0.932 . S
H77 C67 0.930 . S
H78 C68 0.932 . S
H79 C69 0.929 1_545 S
Tb80 C89 2.764 . S
Tb80 O90 2.325 . S
Tb80 O93 2.303 . S
Tb80 O97 2.322 . S
Tb80 O98 2.349 1_556 S
Tb80 O101 2.415 . S
Tb80 O102 2.399 . S
Tb81 O91 2.322 . S
Tb81 O92 2.349 1_554 S
Tb81 O94 2.415 . S
Tb81 O95 2.399 . S
Tb81 O96 2.325 . S
Tb81 O99 2.303 . S
Tb81 C110 2.764 . S
C82 O98 1.261 . S
C82 O99 1.257 . S
C83 C86 1.358 . S
C83 C87 1.332 . S
C83 C89 1.504 . S
C84 C85 1.373 . S
C84 C88 1.308 . S
C85 C84 1.373 . S
C85 C86 1.429 . S
C85 H112 0.932 . S
C86 C83 1.358 . S
C86 C85 1.429 . S
C86 H113 0.930 . S
C87 C83 1.332 . S
C87 C88 1.394 . S
C87 H114 0.932 . S
C88 C84 1.308 . S
C88 C87 1.394 . S
C88 H115 0.929 . S
C89 Tb80 2.764 . S
C89 C83 1.504 . S
C89 O101 1.239 . S
C89 O102 1.263 . S
O90 Tb80 2.325 . S
O90 C100 1.236 1_556 S
O91 Tb81 2.322 . S
O91 C100 1.257 . S
O92 Tb81 2.349 1_556 S
O92 C103 1.261 . S
O93 Tb80 2.303 . S
O93 C103 1.257 . S
O94 Tb81 2.415 . S
O94 C110 1.239 . S
O95 Tb81 2.399 . S
O95 C110 1.263 . S
O96 Tb81 2.325 . S
O96 C111 1.236 1_554 S
O97 Tb80 2.322 . S
O97 C111 1.257 . S
O98 Tb80 2.349 1_554 S
O98 C82 1.261 . S
O99 Tb81 2.303 . S
O99 C82 1.257 . S
C100 O90 1.236 1_554 S
C100 O91 1.257 . S
O101 Tb80 2.415 . S
O101 C89 1.239 . S
O102 Tb80 2.399 . S
O102 C89 1.263 . S
C103 O92 1.261 . S
C103 O93 1.257 . S
C104 C107 1.358 . S
C104 C108 1.332 . S
C104 C110 1.504 . S
C105 C106 1.373 . S
C105 C109 1.308 . S
C106 C105 1.373 . S
C106 C107 1.429 . S
C106 H116 0.932 . S
C107 C104 1.358 . S
C107 C106 1.429 . S
C107 H117 0.930 . S
C108 C104 1.332 . S
C108 C109 1.394 . S
C108 H118 0.932 . S
C109 C105 1.308 . S
C109 C108 1.394 . S
C109 H119 0.929 . S
C110 Tb81 2.764 . S
C110 O94 1.239 . S
C110 O95 1.263 . S
C110 C104 1.504 . S
C111 O96 1.236 1_556 S
C111 O97 1.257 . S
H112 C85 0.932 . S
H113 C86 0.930 . S
H114 C87 0.932 . S
H115 C88 0.929 . S
H116 C106 0.932 . S
H117 C107 0.930 . S
H118 C108 0.932 . S
H119 C109 0.929 . S
Tb120 C129 2.764 . S
Tb120 O130 2.325 . S
Tb120 O133 2.303 . S
Tb120 O137 2.322 . S
Tb120 O138 2.349 . S
Tb120 O141 2.415 . S
Tb120 O142 2.399 . S
Tb121 O131 2.322 . S
Tb121 O132 2.349 . S
Tb121 O134 2.415 . S
Tb121 O135 2.399 . S
Tb121 O136 2.325 . S
Tb121 O139 2.303 . S
Tb121 C150 2.764 . S
C122 O138 1.261 . S
C122 O139 1.257 . S
C123 C126 1.358 . S
C123 C127 1.332 . S
C123 C129 1.504 . S
C124 C125 1.373 . S
C124 C128 1.308 . S
C125 C124 1.373 . S
C125 C126 1.429 . S
C125 H152 0.932 . S
C126 C123 1.358 . S
C126 C125 1.429 . S
C126 H153 0.930 . S
C127 C123 1.332 . S
C127 C128 1.394 . S
C127 H154 0.932 . S
C128 C124 1.308 . S
C128 C127 1.394 . S
C128 H155 0.929 . S
C129 Tb120 2.764 . S
C129 C123 1.504 . S
C129 O141 1.239 . S
C129 O142 1.263 . S
O130 Tb120 2.325 . S
O130 C140 1.236 . S
O131 Tb121 2.322 . S
O131 C140 1.257 . S
O132 Tb121 2.349 . S
O132 C143 1.261 . S
O133 Tb120 2.303 . S
O133 C143 1.257 . S
O134 Tb121 2.415 . S
O134 C150 1.239 . S
O135 Tb121 2.399 . S
O135 C150 1.263 . S
O136 Tb121 2.325 . S
O136 C151 1.236 . S
O137 Tb120 2.322 . S
O137 C151 1.257 . S
O138 Tb120 2.349 . S
O138 C122 1.261 . S
O139 Tb121 2.303 . S
O139 C122 1.257 . S
C140 O130 1.236 . S
C140 O131 1.257 . S
O141 Tb120 2.415 . S
O141 C129 1.239 . S
O142 Tb120 2.399 . S
O142 C129 1.263 . S
C143 O132 1.261 . S
C143 O133 1.257 . S
C144 C147 1.358 . S
C144 C148 1.332 . S
C144 C150 1.504 . S
C145 C146 1.373 . S
C145 C149 1.308 . S
C146 C145 1.373 . S
C146 C147 1.429 . S
C146 H156 0.932 . S
C147 C144 1.358 . S
C147 C146 1.429 . S
C147 H157 0.930 . S
C148 C144 1.332 . S
C148 C149 1.394 . S
C148 H158 0.932 . S
C149 C145 1.308 . S
C149 C148 1.394 . S
C149 H159 0.929 . S
C150 Tb121 2.764 . S
C150 O134 1.239 . S
C150 O135 1.263 . S
C150 C144 1.504 . S
C151 O136 1.236 . S
C151 O137 1.257 . S
H152 C125 0.932 . S
H153 C126 0.930 . S
H154 C127 0.932 . S
H155 C128 0.929 . S
H156 C146 0.932 . S
H157 C147 0.930 . S
H158 C148 0.932 . S
H159 C149 0.929 . S
Tb160 C169 2.764 . S
Tb160 O170 2.325 . S
Tb160 O173 2.303 . S
Tb160 O177 2.322 . S
Tb160 O178 2.349 . S
Tb160 O181 2.415 . S
Tb160 O182 2.399 . S
Tb161 O171 2.322 . S
Tb161 O172 2.349 . S
Tb161 O174 2.415 . S
Tb161 O175 2.399 . S
Tb161 O176 2.325 . S
Tb161 O179 2.303 . S
Tb161 C190 2.764 . S
C162 O178 1.261 . S
C162 O179 1.257 . S
C163 C166 1.358 . S
C163 C167 1.332 . S
C163 C169 1.504 . S
C164 C165 1.373 . S
C164 C168 1.308 . S
C165 C164 1.373 . S
C165 C166 1.429 . S
C165 H192 0.932 . S
C166 C163 1.358 . S
C166 C165 1.429 . S
C166 H193 0.930 . S
C167 C163 1.332 . S
C167 C168 1.394 . S
C167 H194 0.932 . S
C168 C164 1.308 . S
C168 C167 1.394 . S
C168 H195 0.929 . S
C169 Tb160 2.764 . S
C169 C163 1.504 . S
C169 O181 1.239 . S
C169 O182 1.263 . S
O170 Tb160 2.325 . S
O170 C180 1.236 . S
O171 Tb161 2.322 . S
O171 C180 1.257 . S
O172 Tb161 2.349 . S
O172 C183 1.261 . S
O173 Tb160 2.303 . S
O173 C183 1.257 . S
O174 Tb161 2.415 . S
O174 C190 1.239 . S
O175 Tb161 2.399 . S
O175 C190 1.263 . S
O176 Tb161 2.325 . S
O176 C191 1.236 . S
O177 Tb160 2.322 . S
O177 C191 1.257 . S
O178 Tb160 2.349 . S
O178 C162 1.261 . S
O179 Tb161 2.303 . S
O179 C162 1.257 . S
C180 O170 1.236 . S
C180 O171 1.257 . S
O181 Tb160 2.415 . S
O181 C169 1.239 . S
O182 Tb160 2.399 . S
O182 C169 1.263 . S
C183 O172 1.261 . S
C183 O173 1.257 . S
C184 C187 1.358 . S
C184 C188 1.332 . S
C184 C190 1.504 . S
C185 C186 1.373 . S
C185 C189 1.308 . S
C186 C185 1.373 . S
C186 C187 1.429 . S
C186 H196 0.932 . S
C187 C184 1.358 . S
C187 C186 1.429 . S
C187 H197 0.930 . S
C188 C184 1.332 . S
C188 C189 1.394 . S
C188 H198 0.932 . S
C189 C185 1.308 . S
C189 C188 1.394 . S
C189 H199 0.929 . S
C190 Tb161 2.764 . S
C190 O174 1.239 . S
C190 O175 1.263 . S
C190 C184 1.504 . S
C191 O176 1.236 . S
C191 O177 1.257 . S
H192 C165 0.932 . S
H193 C166 0.930 . S
H194 C167 0.932 . S
H195 C168 0.929 . S
H196 C186 0.932 . S
H197 C187 0.930 . S
H198 C188 0.932 . S
H199 C189 0.929 . S
Tb200 C209 2.764 . S
Tb200 O210 2.325 . S
Tb200 O213 2.303 1_455 S
Tb200 O217 2.322 1_455 S
Tb200 O218 2.349 . S
Tb200 O221 2.415 . S
Tb200 O222 2.399 . S
Tb201 O211 2.322 . S
Tb201 O212 2.349 . S
Tb201 O214 2.415 . S
Tb201 O215 2.399 . S
Tb201 O216 2.325 . S
Tb201 O219 2.303 . S
Tb201 C230 2.764 . S
C202 O218 1.261 . S
C202 O219 1.257 1_455 S
C203 C206 1.358 . S
C203 C207 1.332 . S
C203 C209 1.504 . S
C204 C205 1.373 . S
C204 C208 1.308 . S
C205 C204 1.373 . S
C205 C206 1.429 . S
C205 H232 0.932 . S
C206 C203 1.358 . S
C206 C205 1.429 . S
C206 H233 0.930 . S
C207 C203 1.332 . S
C207 C208 1.394 . S
C207 H234 0.932 . S
C208 C204 1.308 . S
C208 C207 1.394 . S
C208 H235 0.929 . S
C209 Tb200 2.764 . S
C209 C203 1.504 . S
C209 O221 1.239 . S
C209 O222 1.263 . S
O210 Tb200 2.325 . S
O210 C220 1.236 . S
O211 Tb201 2.322 . S
O211 C220 1.257 1_655 S
O212 Tb201 2.349 . S
O212 C223 1.261 . S
O213 Tb200 2.303 1_655 S
O213 C223 1.257 . S
O214 Tb201 2.415 . S
O214 C230 1.239 . S
O215 Tb201 2.399 . S
O215 C230 1.263 . S
O216 Tb201 2.325 . S
O216 C231 1.236 . S
O217 Tb200 2.322 1_655 S
O217 C231 1.257 . S
O218 Tb200 2.349 . S
O218 C202 1.261 . S
O219 Tb201 2.303 . S
O219 C202 1.257 1_655 S
C220 O210 1.236 . S
C220 O211 1.257 1_455 S
O221 Tb200 2.415 . S
O221 C209 1.239 . S
O222 Tb200 2.399 . S
O222 C209 1.263 . S
C223 O212 1.261 . S
C223 O213 1.257 . S
C224 C227 1.358 . S
C224 C228 1.332 . S
C224 C230 1.504 . S
C225 C226 1.373 . S
C225 C229 1.308 . S
C226 C225 1.373 . S
C226 C227 1.429 . S
C226 H236 0.932 . S
C227 C224 1.358 . S
C227 C226 1.429 . S
C227 H237 0.930 . S
C228 C224 1.332 . S
C228 C229 1.394 . S
C228 H238 0.932 . S
C229 C225 1.308 . S
C229 C228 1.394 . S
C229 H239 0.929 . S
C230 Tb201 2.764 . S
C230 O214 1.239 . S
C230 O215 1.263 . S
C230 C224 1.504 . S
C231 O216 1.236 . S
C231 O217 1.257 . S
H232 C205 0.932 . S
H233 C206 0.930 . S
H234 C207 0.932 . S
H235 C208 0.929 . S
H236 C226 0.932 . S
H237 C227 0.930 . S
H238 C228 0.932 . S
H239 C229 0.929 . S
Tb240 C249 2.764 . S
Tb240 O250 2.325 . S
Tb240 O253 2.303 1_556 S
Tb240 O257 2.322 1_556 S
Tb240 O258 2.349 . S
Tb240 O261 2.415 . S
Tb240 O262 2.399 . S
Tb241 O251 2.322 1_554 S
Tb241 O252 2.349 . S
Tb241 O254 2.415 . S
Tb241 O255 2.399 . S
Tb241 O256 2.325 . S
Tb241 O259 2.303 1_554 S
Tb241 C270 2.764 . S
C242 O258 1.261 . S
C242 O259 1.257 . S
C243 C246 1.358 . S
C243 C247 1.332 . S
C243 C249 1.504 . S
C244 C245 1.373 . S
C244 C248 1.308 . S
C245 C244 1.373 . S
C245 C246 1.429 . S
C245 H272 0.932 . S
C246 C243 1.358 . S
C246 C245 1.429 . S
C246 H273 0.930 . S
C247 C243 1.332 . S
C247 C248 1.394 . S
C247 H274 0.932 . S
C248 C244 1.308 . S
C248 C247 1.394 . S
C248 H275 0.929 . S
C249 Tb240 2.764 . S
C249 C243 1.504 . S
C249 O261 1.239 . S
C249 O262 1.263 . S
O250 Tb240 2.325 . S
O250 C260 1.236 . S
O251 Tb241 2.322 1_556 S
O251 C260 1.257 . S
O252 Tb241 2.349 . S
O252 C263 1.261 . S
O253 Tb240 2.303 1_554 S
O253 C263 1.257 . S
O254 Tb241 2.415 . S
O254 C270 1.239 . S
O255 Tb241 2.399 . S
O255 C270 1.263 . S
O256 Tb241 2.325 . S
O256 C271 1.236 . S
O257 Tb240 2.322 1_554 S
O257 C271 1.257 . S
O258 Tb240 2.349 . S
O258 C242 1.261 . S
O259 Tb241 2.303 1_556 S
O259 C242 1.257 . S
C260 O250 1.236 . S
C260 O251 1.257 . S
O261 Tb240 2.415 . S
O261 C249 1.239 . S
O262 Tb240 2.399 . S
O262 C249 1.263 . S
C263 O252 1.261 . S
C263 O253 1.257 . S
C264 C267 1.358 . S
C264 C268 1.332 . S
C264 C270 1.504 . S
C265 C266 1.373 . S
C265 C269 1.308 . S
C266 C265 1.373 . S
C266 C267 1.429 . S
C266 H276 0.932 . S
C267 C264 1.358 . S
C267 C266 1.429 . S
C267 H277 0.930 . S
C268 C264 1.332 . S
C268 C269 1.394 . S
C268 H278 0.932 . S
C269 C265 1.308 . S
C269 C268 1.394 . S
C269 H279 0.929 . S
C270 Tb241 2.764 . S
C270 O254 1.239 . S
C270 O255 1.263 . S
C270 C264 1.504 . S
C271 O256 1.236 . S
C271 O257 1.257 . S
H272 C245 0.932 . S
H273 C246 0.930 . S
H274 C247 0.932 . S
H275 C248 0.929 . S
H276 C266 0.932 . S
H277 C267 0.930 . S
H278 C268 0.932 . S
H279 C269 0.929 . S
Tb280 C289 2.764 . S
Tb280 O290 2.325 . S
Tb280 O293 2.303 . S
Tb280 O297 2.322 . S
Tb280 O298 2.349 . S
Tb280 O301 2.415 . S
Tb280 O302 2.399 . S
Tb281 O291 2.322 . S
Tb281 O292 2.349 . S
Tb281 O294 2.415 . S
Tb281 O295 2.399 . S
Tb281 O296 2.325 . S
Tb281 O299 2.303 . S
Tb281 C310 2.764 . S
C282 O298 1.261 . S
C282 O299 1.257 . S
C283 C286 1.358 . S
C283 C287 1.332 . S
C283 C289 1.504 . S
C284 C285 1.373 . S
C284 C288 1.308 . S
C285 C284 1.373 . S
C285 C286 1.429 . S
C285 H312 0.932 . S
C286 C283 1.358 . S
C286 C285 1.429 . S
C286 H313 0.930 . S
C287 C283 1.332 . S
C287 C288 1.394 . S
C287 H314 0.932 . S
C288 C284 1.308 . S
C288 C287 1.394 . S
C288 H315 0.929 . S
C289 Tb280 2.764 . S
C289 C283 1.504 . S
C289 O301 1.239 . S
C289 O302 1.263 . S
O290 Tb280 2.325 . S
O290 C300 1.236 . S
O291 Tb281 2.322 . S
O291 C300 1.257 . S
O292 Tb281 2.349 . S
O292 C303 1.261 . S
O293 Tb280 2.303 . S
O293 C303 1.257 . S
O294 Tb281 2.415 . S
O294 C310 1.239 . S
O295 Tb281 2.399 . S
O295 C310 1.263 . S
O296 Tb281 2.325 . S
O296 C311 1.236 . S
O297 Tb280 2.322 . S
O297 C311 1.257 . S
O298 Tb280 2.349 . S
O298 C282 1.261 . S
O299 Tb281 2.303 . S
O299 C282 1.257 . S
C300 O290 1.236 . S
C300 O291 1.257 . S
O301 Tb280 2.415 . S
O301 C289 1.239 . S
O302 Tb280 2.399 . S
O302 C289 1.263 . S
C303 O292 1.261 . S
C303 O293 1.257 . S
C304 C307 1.358 . S
C304 C308 1.332 . S
C304 C310 1.504 . S
C305 C306 1.373 . S
C305 C309 1.308 . S
C306 C305 1.373 . S
C306 C307 1.429 . S
C306 H316 0.932 . S
C307 C304 1.358 . S
C307 C306 1.429 . S
C307 H317 0.930 . S
C308 C304 1.332 . S
C308 C309 1.394 . S
C308 H318 0.932 . S
C309 C305 1.308 . S
C309 C308 1.394 . S
C309 H319 0.929 . S
C310 Tb281 2.764 . S
C310 O294 1.239 . S
C310 O295 1.263 . S
C310 C304 1.504 . S
C311 O296 1.236 . S
C311 O297 1.257 . S
H312 C285 0.932 . S
H313 C286 0.930 . S
H314 C287 0.932 . S
H315 C288 0.929 . S
H316 C306 0.932 . S
H317 C307 0.930 . S
H318 C308 0.932 . S
H319 C309 0.929 . S
Tb320 C329 2.764 . S
Tb320 O330 2.325 . S
Tb320 O333 2.303 . S
Tb320 O337 2.322 . S
Tb320 O338 2.349 . S
Tb320 O341 2.415 . S
Tb320 O342 2.399 . S
Tb321 O331 2.322 . S
Tb321 O332 2.349 . S
Tb321 O334 2.415 . S
Tb321 O335 2.399 . S
Tb321 O336 2.325 . S
Tb321 O339 2.303 . S
Tb321 C350 2.764 . S
C322 O338 1.261 . S
C322 O339 1.257 . S
C323 C326 1.358 . S
C323 C327 1.332 . S
C323 C329 1.504 . S
C324 C325 1.373 . S
C324 C328 1.308 . S
C325 C324 1.373 . S
C325 C326 1.429 . S
C325 H352 0.932 . S
C326 C323 1.358 . S
C326 C325 1.429 . S
C326 H353 0.930 . S
C327 C323 1.332 . S
C327 C328 1.394 . S
C327 H354 0.932 . S
C328 C324 1.308 . S
C328 C327 1.394 . S
C328 H355 0.929 . S
C329 Tb320 2.764 . S
C329 C323 1.504 . S
C329 O341 1.239 . S
C329 O342 1.263 . S
O330 Tb320 2.325 . S
O330 C340 1.236 . S
O331 Tb321 2.322 . S
O331 C340 1.257 . S
O332 Tb321 2.349 . S
O332 C343 1.261 . S
O333 Tb320 2.303 . S
O333 C343 1.257 . S
O334 Tb321 2.415 . S
O334 C350 1.239 . S
O335 Tb321 2.399 . S
O335 C350 1.263 . S
O336 Tb321 2.325 . S
O336 C351 1.236 . S
O337 Tb320 2.322 . S
O337 C351 1.257 . S
O338 Tb320 2.349 . S
O338 C322 1.261 . S
O339 Tb321 2.303 . S
O339 C322 1.257 . S
C340 O330 1.236 . S
C340 O331 1.257 . S
O341 Tb320 2.415 . S
O341 C329 1.239 . S
O342 Tb320 2.399 . S
O342 C329 1.263 . S
C343 O332 1.261 . S
C343 O333 1.257 . S
C344 C347 1.358 . S
C344 C348 1.332 . S
C344 C350 1.504 . S
C345 C346 1.373 . S
C345 C349 1.308 . S
C346 C345 1.373 . S
C346 C347 1.429 . S
C346 H356 0.932 . S
C347 C344 1.358 . S
C347 C346 1.429 . S
C347 H357 0.930 . S
C348 C344 1.332 . S
C348 C349 1.394 . S
C348 H358 0.932 . S
C349 C345 1.308 . S
C349 C348 1.394 . S
C349 H359 0.929 . S
C350 Tb321 2.764 . S
C350 O334 1.239 . S
C350 O335 1.263 . S
C350 C344 1.504 . S
C351 O336 1.236 . S
C351 O337 1.257 . S
H352 C325 0.932 . S
H353 C326 0.930 . S
H354 C327 0.932 . S
H355 C328 0.929 . S
H356 C346 0.932 . S
H357 C347 0.930 . S
H358 C348 0.932 . S
H359 C349 0.929 . S
Tb360 C369 2.764 . S
Tb360 O370 2.325 . S
Tb360 O373 2.303 . S
Tb360 O377 2.322 . S
Tb360 O378 2.349 . S
Tb360 O381 2.415 . S
Tb360 O382 2.399 . S
Tb361 O371 2.322 . S
Tb361 O372 2.349 1_565 S
Tb361 O374 2.415 . S
Tb361 O375 2.399 . S
Tb361 O376 2.325 1_565 S
Tb361 O379 2.303 . S
Tb361 C390 2.764 . S
C362 O378 1.261 1_565 S
C362 O379 1.257 . S
C363 C366 1.358 . S
C363 C367 1.332 . S
C363 C369 1.504 . S
C364 C365 1.373 . S
C364 C368 1.308 . S
C365 C364 1.373 . S
C365 C366 1.429 . S
C365 H392 0.932 . S
C366 C363 1.358 . S
C366 C365 1.429 . S
C366 H393 0.930 . S
C367 C363 1.332 . S
C367 C368 1.394 . S
C367 H394 0.932 . S
C368 C364 1.308 . S
C368 C367 1.394 . S
C368 H395 0.929 . S
C369 Tb360 2.764 . S
C369 C363 1.504 . S
C369 O381 1.239 . S
C369 O382 1.263 . S
O370 Tb360 2.325 . S
O370 C380 1.249 . S
O371 Tb361 2.322 . S
O371 C380 1.247 1_565 S
O372 Tb361 2.349 1_545 S
O372 C383 1.261 . S
O373 Tb360 2.303 . S
O373 C383 1.257 . S
O374 Tb361 2.415 . S
O374 C390 1.239 . S
O375 Tb361 2.399 . S
O375 C390 1.263 . S
O376 Tb361 2.325 1_545 S
O376 C391 1.236 . S
O377 Tb360 2.322 . S
O377 C391 1.257 . S
O378 Tb360 2.349 . S
O378 C362 1.261 1_545 S
O379 Tb361 2.303 . S
O379 C362 1.257 . S
C380 O370 1.249 . S
C380 O371 1.247 1_545 S
O381 Tb360 2.415 . S
O381 C369 1.239 . S
O382 Tb360 2.399 . S
O382 C369 1.263 . S
C383 O372 1.261 . S
C383 O373 1.257 . S
C384 C387 1.358 . S
C384 C388 1.332 . S
C384 C390 1.504 . S
C385 C386 1.373 . S
C385 C389 1.308 . S
C386 C385 1.373 . S
C386 C387 1.429 . S
C386 H396 0.932 . S
C387 C384 1.358 . S
C387 C386 1.429 . S
C387 H397 0.930 . S
C388 C384 1.332 . S
C388 C389 1.394 . S
C388 H398 0.932 . S
C389 C385 1.308 . S
C389 C388 1.394 . S
C389 H399 0.929 . S
C390 Tb361 2.764 . S
C390 O374 1.239 . S
C390 O375 1.263 . S
C390 C384 1.504 . S
C391 O376 1.236 . S
C391 O377 1.257 . S
H392 C365 0.932 . S
H393 C366 0.930 . S
H394 C367 0.932 . S
H395 C368 0.929 . S
H396 C386 0.932 . S
H397 C387 0.930 . S
H398 C388 0.932 . S
H399 C389 0.929 . S
Tb400 C409 2.764 . S
Tb400 O410 2.325 . S
Tb400 O413 2.303 . S
Tb400 O417 2.322 . S
Tb400 O418 2.349 1_565 S
Tb400 O421 2.415 . S
Tb400 O422 2.399 . S
Tb401 O411 2.322 . S
Tb401 O412 2.349 1_545 S
Tb401 O414 2.415 . S
Tb401 O415 2.399 . S
Tb401 O416 2.325 . S
Tb401 O419 2.303 . S
Tb401 C430 2.764 . S
C402 O418 1.261 . S
C402 O419 1.257 . S
C403 C406 1.358 . S
C403 C407 1.332 . S
C403 C409 1.504 . S
C404 C405 1.373 . S
C404 C408 1.308 . S
C405 C404 1.373 . S
C405 C406 1.429 . S
C405 H432 0.932 . S
C406 C403 1.358 . S
C406 C405 1.429 . S
C406 H433 0.930 . S
C407 C403 1.332 . S
C407 C408 1.394 . S
C407 H434 0.932 . S
C408 C404 1.308 . S
C408 C407 1.394 . S
C408 H435 0.929 . S
C409 Tb400 2.764 . S
C409 C403 1.504 . S
C409 O421 1.239 . S
C409 O422 1.263 . S
O410 Tb400 2.325 . S
O410 C420 1.236 1_565 S
O411 Tb401 2.322 . S
O411 C420 1.257 . S
O412 Tb401 2.349 1_565 S
O412 C423 1.261 . S
O413 Tb400 2.303 . S
O413 C423 1.257 . S
O414 Tb401 2.415 . S
O414 C430 1.239 . S
O415 Tb401 2.399 . S
O415 C430 1.263 . S
O416 Tb401 2.325 . S
O416 C431 1.236 1_545 S
O417 Tb400 2.322 . S
O417 C431 1.257 . S
O418 Tb400 2.349 1_545 S
O418 C402 1.261 . S
O419 Tb401 2.303 . S
O419 C402 1.257 . S
C420 O410 1.236 1_545 S
C420 O411 1.257 . S
O421 Tb400 2.415 . S
O421 C409 1.239 . S
O422 Tb400 2.399 . S
O422 C409 1.263 . S
C423 O412 1.261 . S
C423 O413 1.257 . S
C424 C427 1.358 . S
C424 C428 1.332 . S
C424 C430 1.504 . S
C425 C426 1.373 . S
C425 C429 1.308 . S
C426 C425 1.373 . S
C426 C427 1.429 . S
C426 H436 0.932 . S
C427 C424 1.358 . S
C427 C426 1.429 . S
C427 H437 0.930 . S
C428 C424 1.332 . S
C428 C429 1.394 . S
C428 H438 0.932 . S
C429 C425 1.308 . S
C429 C428 1.394 . S
C429 H439 0.929 . S
C430 Tb401 2.764 . S
C430 O414 1.239 . S
C430 O415 1.263 . S
C430 C424 1.504 . S
C431 O416 1.236 1_565 S
C431 O417 1.257 . S
H432 C405 0.932 . S
H433 C406 0.930 . S
H434 C407 0.932 . S
H435 C408 0.929 . S
H436 C426 0.932 . S
H437 C427 0.930 . S
H438 C428 0.932 . S
H439 C429 0.929 . S
Tb440 C449 2.764 . S
Tb440 O450 2.325 . S
Tb440 O453 2.303 . S
Tb440 O457 2.322 . S
Tb440 O458 2.349 . S
Tb440 O461 2.415 . S
Tb440 O462 2.399 . S
Tb441 O451 2.322 . S
Tb441 O452 2.349 . S
Tb441 O454 2.415 . S
Tb441 O455 2.399 . S
Tb441 O456 2.325 . S
Tb441 O459 2.303 . S
Tb441 C470 2.764 . S
C442 O458 1.261 . S
C442 O459 1.257 . S
C443 C446 1.358 . S
C443 C447 1.332 . S
C443 C449 1.504 . S
C444 C445 1.373 . S
C444 C448 1.308 . S
C445 C444 1.373 . S
C445 C446 1.429 . S
C445 H472 0.932 . S
C446 C443 1.358 . S
C446 C445 1.429 . S
C446 H473 0.930 . S
C447 C443 1.332 . S
C447 C448 1.394 . S
C447 H474 0.932 . S
C448 C444 1.308 . S
C448 C447 1.394 . S
C448 H475 0.929 . S
C449 Tb440 2.764 . S
C449 C443 1.504 . S
C449 O461 1.239 . S
C449 O462 1.263 . S
O450 Tb440 2.325 . S
O450 C460 1.236 . S
O451 Tb441 2.322 . S
O451 C460 1.257 . S
O452 Tb441 2.349 . S
O452 C463 1.261 . S
O453 Tb440 2.303 . S
O453 C463 1.257 . S
O454 Tb441 2.415 . S
O454 C470 1.239 . S
O455 Tb441 2.399 . S
O455 C470 1.263 . S
O456 Tb441 2.325 . S
O456 C471 1.236 . S
O457 Tb440 2.322 . S
O457 C471 1.257 . S
O458 Tb440 2.349 . S
O458 C442 1.261 . S
O459 Tb441 2.303 . S
O459 C442 1.257 . S
C460 O450 1.236 . S
C460 O451 1.257 . S
O461 Tb440 2.415 . S
O461 C449 1.239 . S
O462 Tb440 2.399 . S
O462 C449 1.263 . S
C463 O452 1.261 . S
C463 O453 1.257 . S
C464 C467 1.358 . S
C464 C468 1.332 . S
C464 C470 1.504 . S
C465 C466 1.373 . S
C465 C469 1.308 . S
C466 C465 1.373 . S
C466 C467 1.429 . S
C466 H476 0.932 . S
C467 C464 1.358 . S
C467 C466 1.429 . S
C467 H477 0.930 . S
C468 C464 1.332 . S
C468 C469 1.394 . S
C468 H478 0.932 . S
C469 C465 1.308 . S
C469 C468 1.394 . S
C469 H479 0.929 . S
C470 Tb441 2.764 . S
C470 O454 1.239 . S
C470 O455 1.263 . S
C470 C464 1.504 . S
C471 O456 1.236 . S
C471 O457 1.257 . S
H472 C445 0.932 . S
H473 C446 0.930 . S
H474 C447 0.932 . S
H475 C448 0.929 . S
H476 C466 0.932 . S
H477 C467 0.930 . S
H478 C468 0.932 . S
H479 C469 0.929 . S
C480 C481 1.369 . S
C480 C482 1.419 . S
C480 H484 0.930 . S
C481 C480 1.369 . S
C481 C490 1.429 . S
C482 C480 1.419 . S
C482 C483 1.363 . S
C482 H485 0.929 . S
C483 C482 1.363 . S
C483 C489 1.428 . S
H484 C480 0.930 . S
H485 C482 0.929 . S
S486 N487 1.613 . S
S486 N488 1.610 . S
N487 S486 1.613 . S
N487 C490 1.350 . S
N488 S486 1.610 . S
N488 C489 1.351 . S
C489 C483 1.428 . S
C489 N488 1.351 . S
C489 C490 1.434 . S
C490 C481 1.429 . S
C490 N487 1.350 . S
C490 C489 1.434 . S
C491 C492 1.369 1_545 S
C491 C493 1.419 1_545 S
C491 H495 0.930 . S
C492 C491 1.369 1_565 S
C492 C501 1.429 . S
C493 C491 1.419 1_565 S
C493 C494 1.363 . S
C493 H496 0.929 1_565 S
C494 C493 1.363 . S
C494 C500 1.428 . S
H495 C491 0.930 . S
H496 C493 0.929 1_545 S
S497 N498 1.613 . S
S497 N499 1.610 . S
N498 S497 1.613 . S
N498 C501 1.350 . S
N499 S497 1.610 . S
N499 C500 1.351 . S
C500 C494 1.428 . S
C500 N499 1.351 . S
C500 C501 1.434 . S
C501 C492 1.429 . S
C501 N498 1.350 . S
C501 C500 1.434 . S
C502 C503 1.383 . S
C502 C504 1.423 . S
C502 H506 0.911 1_554 S
C503 C502 1.383 . S
C503 C512 1.429 . S
C504 C502 1.423 . S
C504 C505 1.363 . S
C504 H507 0.929 1_554 S
C505 C504 1.363 . S
C505 C511 1.428 . S
H506 C502 0.911 1_556 S
H507 C504 0.929 1_556 S
S508 N509 1.613 . S
S508 N510 1.610 . S
N509 S508 1.613 . S
N509 C512 1.350 . S
N510 S508 1.610 . S
N510 C511 1.351 . S
C511 C505 1.428 . S
C511 N510 1.351 . S
C511 C512 1.434 . S
C512 C503 1.429 . S
C512 N509 1.350 . S
C512 C511 1.434 . S
C513 C514 1.369 . S
C513 C515 1.419 . S
C513 H517 0.930 . S
C514 C513 1.369 . S
C514 C523 1.429 . S
C515 C513 1.419 . S
C515 C516 1.363 . S
C515 H518 0.929 1_545 S
C516 C515 1.363 . S
C516 C522 1.428 . S
H517 C513 0.930 . S
H518 C515 0.929 1_565 S
S519 N520 1.613 . S
S519 N521 1.610 . S
N520 S519 1.613 . S
N520 C523 1.350 . S
N521 S519 1.610 . S
N521 C522 1.351 . S
C522 C516 1.428 . S
C522 N521 1.351 . S
C522 C523 1.434 . S
C523 C514 1.429 . S
C523 N520 1.350 . S
C523 C522 1.434 . S
C524 C525 1.369 . S
C524 C526 1.419 . S
C524 H528 0.930 . S
C525 C524 1.369 . S
C525 C534 1.429 . S
C526 C524 1.419 . S
C526 C527 1.363 . S
C526 H529 0.929 . S
C527 C526 1.363 . S
C527 C533 1.428 . S
H528 C524 0.930 . S
H529 C526 0.929 . S
S530 N531 1.613 . S
S530 N532 1.610 . S
N531 S530 1.613 . S
N531 C534 1.350 . S
N532 S530 1.610 . S
N532 C533 1.351 . S
C533 C527 1.428 . S
C533 N532 1.351 . S
C533 C534 1.434 . S
C534 C525 1.429 . S
C534 N531 1.350 . S
C534 C533 1.434 . S
C535 C536 1.369 . S
C535 C537 1.419 . S
C535 H539 0.930 . S
C536 C535 1.369 . S
C536 C545 1.429 . S
C537 C535 1.419 . S
C537 C538 1.363 . S
C537 H540 0.929 . S
C538 C537 1.363 . S
C538 C544 1.428 . S
H539 C535 0.930 . S
H540 C537 0.929 . S
S541 N542 1.613 . S
S541 N543 1.610 . S
N542 S541 1.613 . S
N542 C545 1.350 . S
N543 S541 1.610 . S
N543 C544 1.351 . S
C544 C538 1.428 . S
C544 N543 1.351 . S
C544 C545 1.434 . S
C545 C536 1.429 . S
C545 N542 1.350 . S
C545 C544 1.434 . S
C546 C547 1.369 . S
C546 C548 1.419 . S
C546 H550 0.930 . S
C547 C546 1.369 . S
C547 C556 1.429 . S
C548 C546 1.419 . S
C548 C549 1.363 . S
C548 H551 0.929 . S
C549 C548 1.363 . S
C549 C555 1.428 . S
H550 C546 0.930 . S
H551 C548 0.929 . S
S552 N553 1.613 . S
S552 N554 1.610 . S
N553 S552 1.613 . S
N553 C556 1.350 1_554 S
N554 S552 1.610 . S
N554 C555 1.351 1_554 S
C555 C549 1.428 . S
C555 N554 1.351 1_556 S
C555 C556 1.434 . S
C556 C547 1.429 . S
C556 N553 1.350 1_556 S
C556 C555 1.434 . S
C557 C558 1.369 . S
C557 C559 1.419 . S
C557 H561 0.930 . S
C558 C557 1.369 . S
C558 C567 1.429 . S
C559 C557 1.419 . S
C559 C560 1.363 . S
C559 H562 0.929 . S
C560 C559 1.363 . S
C560 C566 1.428 . S
H561 C557 0.930 . S
H562 C559 0.929 . S
S563 N564 1.613 . S
S563 N565 1.610 . S
N564 S563 1.613 . S
N564 C567 1.350 . S
N565 S563 1.610 . S
N565 C566 1.351 . S
C566 C560 1.428 . S
C566 N565 1.351 . S
C566 C567 1.434 . S
C567 C558 1.429 . S
C567 N564 1.350 . S
C567 C566 1.434 . S
C568 C569 1.369 . S
C568 C570 1.419 . S
C568 H572 0.930 . S
C569 C568 1.369 . S
C569 C578 1.429 . S
C570 C568 1.419 . S
C570 C571 1.363 . S
C570 H573 0.929 . S
C571 C570 1.363 . S
C571 C577 1.428 . S
H572 C568 0.930 . S
H573 C570 0.929 . S
S574 N575 1.613 . S
S574 N576 1.610 . S
N575 S574 1.613 . S
N575 C578 1.350 . S
N576 S574 1.610 . S
N576 C577 1.351 . S
C577 C571 1.428 . S
C577 N576 1.351 . S
C577 C578 1.434 . S
C578 C569 1.429 . S
C578 N575 1.350 . S
C578 C577 1.434 . S
C579 C580 1.369 . S
C579 C581 1.419 1_455 S
C579 H583 0.930 1_455 S
C580 C579 1.369 . S
C580 C589 1.429 . S
C581 C579 1.419 1_655 S
C581 C582 1.363 1_655 S
C581 H584 0.929 . S
C582 C581 1.363 1_455 S
C582 C588 1.428 . S
H583 C579 0.930 1_655 S
H584 C581 0.929 . S
S585 N586 1.613 . S
S585 N587 1.610 . S
N586 S585 1.613 . S
N586 C589 1.350 . S
N587 S585 1.610 . S
N587 C588 1.351 . S
C588 C582 1.428 . S
C588 N587 1.351 . S
C588 C589 1.434 . S
C589 C580 1.429 . S
C589 N586 1.350 . S
C589 C588 1.434 . S
C590 C591 1.369 . S
C590 C592 1.419 . S
C590 H594 0.930 . S
C591 C590 1.369 . S
C591 C600 1.429 . S
C592 C590 1.419 . S
C592 C593 1.363 . S
C592 H595 0.929 . S
C593 C592 1.363 . S
C593 C599 1.428 . S
H594 C590 0.930 . S
H595 C592 0.929 . S
S596 N597 1.613 . S
S596 N598 1.610 . S
N597 S596 1.613 . S
N597 C600 1.350 . S
N598 S596 1.610 . S
N598 C599 1.351 . S
C599 C593 1.428 . S
C599 N598 1.351 . S
C599 C600 1.434 . S
C600 C591 1.429 . S
C600 N597 1.350 . S
C600 C599 1.434 . S
C601 C602 1.369 . S
C601 C603 1.419 . S
C601 H605 0.930 . S
C602 C601 1.369 . S
C602 C611 1.429 . S
C603 C601 1.419 . S
C603 C604 1.363 . S
C603 H606 0.929 . S
C604 C603 1.363 . S
C604 C610 1.428 . S
H605 C601 0.930 . S
H606 C603 0.929 . S
S607 N608 1.613 . S
S607 N609 1.610 . S
N608 S607 1.613 . S
N608 C611 1.350 . S
N609 S607 1.610 . S
N609 C610 1.351 . S
C610 C604 1.428 . S
C610 N609 1.351 . S
C610 C611 1.434 . S
C611 C602 1.429 . S
C611 N608 1.350 . S
C611 C610 1.434 . S
C612 C613 1.369 . S
C612 C614 1.419 . S
C612 H616 0.930 . S
C613 C612 1.369 . S
C613 C622 1.429 . S
C614 C612 1.419 . S
C614 C615 1.363 . S
C614 H617 0.929 . S
C615 C614 1.363 . S
C615 C621 1.428 . S
H616 C612 0.930 . S
H617 C614 0.929 . S
S618 N619 1.613 . S
S618 N620 1.610 . S
N619 S618 1.613 . S
N619 C622 1.350 . S
N620 S618 1.610 . S
N620 C621 1.351 . S
C621 C615 1.428 . S
C621 N620 1.351 . S
C621 C622 1.434 . S
C622 C613 1.429 . S
C622 N619 1.350 . S
C622 C621 1.434 . S
C623 C624 1.369 . S
C623 C625 1.419 . S
C623 H627 0.930 . S
C624 C623 1.369 . S
C624 C633 1.429 1_565 S
C625 C623 1.419 . S
C625 C626 1.363 . S
C625 H628 0.929 . S
C626 C625 1.363 . S
C626 C632 1.428 1_565 S
H627 C623 0.930 . S
H628 C625 0.929 . S
S629 N630 1.613 . S
S629 N631 1.610 . S
N630 S629 1.613 . S
N630 C633 1.350 . S
N631 S629 1.610 . S
N631 C632 1.351 . S
C632 C626 1.428 1_545 S
C632 N631 1.351 . S
C632 C633 1.434 . S
C633 C624 1.429 1_545 S
C633 N630 1.350 . S
C633 C632 1.434 . S
C634 C635 1.369 . S
C634 C636 1.419 . S
C634 H638 0.930 . S
C635 C634 1.369 . S
C635 C644 1.429 . S
C636 C634 1.419 . S
C636 C637 1.363 . S
C636 H639 0.929 . S
C637 C636 1.363 . S
C637 C643 1.428 . S
H638 C634 0.930 . S
H639 C636 0.929 . S
S640 N641 1.613 . S
S640 N642 1.610 . S
N641 S640 1.613 . S
N641 C644 1.350 . S
N642 S640 1.610 . S
N642 C643 1.351 . S
C643 C637 1.428 . S
C643 N642 1.351 . S
C643 C644 1.434 . S
C644 C635 1.429 . S
C644 N641 1.350 . S
C644 C643 1.434 . S
C645 C646 1.369 . S
C645 C647 1.419 . S
C645 H649 0.930 . S
C646 C645 1.369 . S
C646 C655 1.429 . S
C647 C645 1.419 . S
C647 C648 1.363 1_554 S
C647 H650 0.929 . S
C648 C647 1.363 1_556 S
C648 C654 1.428 . S
H649 C645 0.930 . S
H650 C647 0.929 . S
S651 N652 1.613 1_556 S
S651 N653 1.610 . S
N652 S651 1.613 1_554 S
N652 C655 1.350 . S
N653 S651 1.610 . S
N653 C654 1.351 . S
C654 C648 1.428 . S
C654 N653 1.351 . S
C654 C655 1.434 1_556 S
C655 C646 1.429 . S
C655 N652 1.350 . S
C655 C654 1.434 1_554 S
C656 C657 1.369 . S
C656 C658 1.419 . S
C656 H660 0.925 1_545 S
C657 C656 1.369 . S
C657 C666 1.429 . S
C658 C656 1.419 . S
C658 C659 1.363 . S
C658 H661 0.929 . S
C659 C658 1.363 . S
C659 C665 1.428 . S
H660 C656 0.925 1_565 S
H661 C658 0.929 . S
S662 N663 1.613 . S
S662 N664 1.610 . S
N663 S662 1.613 . S
N663 C666 1.350 . S
N664 S662 1.610 . S
N664 C665 1.351 . S
C665 C659 1.428 . S
C665 N664 1.351 . S
C665 C666 1.434 . S
C666 C657 1.429 . S
C666 N663 1.350 . S
C666 C665 1.434 . S
C667 C668 1.369 . S
C667 C669 1.419 . S
C667 H671 0.930 . S
C668 C667 1.369 . S
C668 C677 1.429 . S
C669 C667 1.419 . S
C669 C670 1.363 . S
C669 H672 0.929 . S
C670 C669 1.363 . S
C670 C676 1.428 . S
H671 C667 0.930 . S
H672 C669 0.929 . S
S673 N674 1.613 . S
S673 N675 1.610 . S
N674 S673 1.613 . S
N674 C677 1.350 . S
N675 S673 1.610 . S
N675 C676 1.351 . S
C676 C670 1.428 . S
C676 N675 1.351 . S
C676 C677 1.434 . S
C677 C668 1.429 . S
C677 N674 1.350 . S
C677 C676 1.434 . S
C678 C679 1.369 . S
C678 C680 1.419 . S
C678 H682 0.930 . S
C679 C678 1.369 . S
C679 C688 1.429 . S
C680 C678 1.419 . S
C680 C681 1.363 . S
C680 H683 0.929 . S
C681 C680 1.363 . S
C681 C687 1.428 . S
H682 C678 0.930 . S
H683 C680 0.929 . S
S684 N685 1.613 . S
S684 N686 1.610 1_545 S
N685 S684 1.613 . S
N685 C688 1.350 1_545 S
N686 S684 1.610 1_565 S
N686 C687 1.351 . S
C687 C681 1.428 . S
C687 N686 1.351 . S
C687 C688 1.434 . S
C688 C679 1.429 . S
C688 N685 1.350 1_565 S
C688 C687 1.434 . S
C689 C690 1.369 . S
C689 C691 1.419 . S
C689 H693 0.930 . S
C690 C689 1.369 . S
C690 C699 1.429 . S
C691 C689 1.419 . S
C691 C692 1.363 . S
C691 H694 0.929 . S
C692 C691 1.363 . S
C692 C698 1.428 . S
H693 C689 0.930 . S
H694 C691 0.929 . S
S695 N696 1.613 . S
S695 N697 1.610 . S
N696 S695 1.613 . S
N696 C699 1.350 . S
N697 S695 1.610 . S
N697 C698 1.351 . S
C698 C692 1.428 . S
C698 N697 1.351 . S
C698 C699 1.434 . S
C699 C690 1.429 . S
C699 N696 1.350 . S
C699 C698 1.434 . S
C700 C701 1.369 . S
C700 C702 1.419 . S
C700 H704 0.930 . S
C701 C700 1.369 . S
C701 C710 1.429 . S
C702 C700 1.419 . S
C702 C703 1.363 . S
C702 H705 0.929 . S
C703 C702 1.363 . S
C703 C709 1.428 . S
H704 C700 0.930 . S
H705 C702 0.929 . S
S706 N707 1.613 . S
S706 N708 1.610 . S
N707 S706 1.613 . S
N707 C710 1.350 . S
N708 S706 1.610 . S
N708 C709 1.351 . S
C709 C703 1.428 . S
C709 N708 1.351 . S
C709 C710 1.434 . S
C710 C701 1.429 . S
C710 N707 1.350 . S
C710 C709 1.434 . S
C711 C712 1.369 . S
C711 C713 1.419 . S
C711 H715 0.930 . S
C712 C711 1.369 . S
C712 C721 1.429 . S
C713 C711 1.419 . S
C713 C714 1.351 1_545 S
C713 H716 0.929 . S
C714 C713 1.351 1_565 S
C714 C720 1.417 1_565 S
H715 C711 0.930 . S
H716 C713 0.929 . S
S717 N718 1.613 . S
S717 N719 1.610 . S
N718 S717 1.613 . S
N718 C721 1.350 1_655 S
N719 S717 1.610 . S
N719 C720 1.351 1_655 S
C720 C714 1.417 1_545 S
C720 N719 1.351 1_455 S
C720 C721 1.434 . S
C721 C712 1.429 . S
C721 N718 1.350 1_455 S
C721 C720 1.434 . S
C722 C723 1.369 . S
C722 C724 1.419 . S
C722 H726 0.930 . S
C723 C722 1.369 . S
C723 C732 1.429 . S
C724 C722 1.419 . S
C724 C725 1.363 . S
C724 H727 0.929 . S
C725 C724 1.363 . S
C725 C731 1.428 . S
H726 C722 0.930 . S
H727 C724 0.929 . S
S728 N729 1.613 . S
S728 N730 1.610 . S
N729 S728 1.613 . S
N729 C732 1.350 . S
N730 S728 1.610 . S
N730 C731 1.351 . S
C731 C725 1.428 . S
C731 N730 1.351 . S
C731 C732 1.434 . S
C732 C723 1.429 . S
C732 N729 1.350 . S
C732 C731 1.434 . S
C733 C734 1.369 . S
C733 C735 1.419 1_545 S
C733 H737 0.930 . S
C734 C733 1.369 . S
C734 C743 1.429 . S
C735 C733 1.419 1_565 S
C735 C736 1.363 . S
C735 H738 0.929 . S
C736 C735 1.363 . S
C736 C742 1.428 1_565 S
H737 C733 0.930 . S
H738 C735 0.929 . S
S739 N740 1.613 . S
S739 N741 1.610 . S
N740 S739 1.613 . S
N740 C743 1.350 . S
N741 S739 1.610 . S
N741 C742 1.351 . S
C742 C736 1.428 1_545 S
C742 N741 1.351 . S
C742 C743 1.434 . S
C743 C734 1.429 . S
C743 N740 1.350 . S
C743 C742 1.434 . S
C744 C745 1.369 . S
C744 C746 1.419 . S
C744 H748 0.930 . S
C745 C744 1.369 . S
C745 C754 1.429 . S
C746 C744 1.419 . S
C746 C747 1.363 . S
C746 H749 0.929 . S
C747 C746 1.363 . S
C747 C753 1.428 . S
H748 C744 0.930 . S
H749 C746 0.929 . S
S750 N751 1.613 . S
S750 N752 1.610 . S
N751 S750 1.613 . S
N751 C754 1.350 . S
N752 S750 1.610 . S
N752 C753 1.351 . S
C753 C747 1.428 . S
C753 N752 1.351 . S
C753 C754 1.434 . S
C754 C745 1.429 . S
C754 N751 1.350 . S
C754 C753 1.434 . S
C755 C756 1.369 . S
C755 C757 1.419 . S
C755 H759 0.930 . S
C756 C755 1.369 . S
C756 C765 1.429 . S
C757 C755 1.419 . S
C757 C758 1.363 . S
C757 H760 0.929 . S
C758 C757 1.363 . S
C758 C764 1.428 . S
H759 C755 0.930 . S
H760 C757 0.929 . S
S761 N762 1.613 . S
S761 N763 1.610 . S
N762 S761 1.613 . S
N762 C765 1.350 . S
N763 S761 1.610 . S
N763 C764 1.351 . S
C764 C758 1.428 . S
C764 N763 1.351 . S
C764 C765 1.434 . S
C765 C756 1.429 . S
C765 N762 1.350 . S
C765 C764 1.434 . S
C766 C767 1.369 . S
C766 C768 1.419 . S
C766 H770 0.930 . S
C767 C766 1.369 . S
C767 C776 1.429 . S
C768 C766 1.419 . S
C768 C769 1.363 . S
C768 H771 0.929 . S
C769 C768 1.363 . S
C769 C775 1.428 . S
H770 C766 0.930 . S
H771 C768 0.929 . S
S772 N773 1.613 . S
S772 N774 1.610 . S
N773 S772 1.613 . S
N773 C776 1.350 . S
N774 S772 1.610 . S
N774 C775 1.351 . S
C775 C769 1.428 . S
C775 N774 1.351 . S
C775 C776 1.434 . S
C776 C767 1.429 . S
C776 N773 1.350 . S
C776 C775 1.434 . S
C777 C778 1.369 . S
C777 C779 1.419 . S
C777 H781 0.930 . S
C778 C777 1.369 . S
C778 C787 1.429 . S
C779 C777 1.419 . S
C779 C780 1.363 . S
C779 H782 0.929 . S
C780 C779 1.363 . S
C780 C786 1.428 . S
H781 C777 0.930 . S
H782 C779 0.929 . S
S783 N784 1.613 . S
S783 N785 1.610 . S
N784 S783 1.613 . S
N784 C787 1.350 . S
N785 S783 1.610 . S
N785 C786 1.351 . S
C786 C780 1.428 . S
C786 N785 1.351 . S
C786 C787 1.434 . S
C787 C778 1.429 . S
C787 N784 1.350 . S
C787 C786 1.434 . S
C788 C789 1.369 . S
C788 C790 1.419 . S
C788 H792 0.930 . S
C789 C788 1.369 . S
C789 C798 1.429 . S
C790 C788 1.419 . S
C790 C791 1.363 . S
C790 H793 0.929 . S
C791 C790 1.363 . S
C791 C797 1.428 . S
H792 C788 0.930 . S
H793 C790 0.929 . S
S794 N795 1.613 . S
S794 N796 1.610 . S
N795 S794 1.613 . S
N795 C798 1.350 . S
N796 S794 1.610 . S
N796 C797 1.351 . S
C797 C791 1.428 . S
C797 N796 1.351 . S
C797 C798 1.434 . S
C798 C789 1.429 . S
C798 N795 1.350 . S
C798 C797 1.434 . S
C799 C800 1.369 . S
C799 C801 1.419 . S
C799 H803 0.930 . S
C800 C799 1.369 . S
C800 C809 1.429 . S
C801 C799 1.419 . S
C801 C802 1.363 . S
C801 H804 0.929 . S
C802 C801 1.363 . S
C802 C808 1.428 . S
H803 C799 0.930 . S
H804 C801 0.929 . S
S805 N806 1.613 . S
S805 N807 1.610 . S
N806 S805 1.613 . S
N806 C809 1.350 . S
N807 S805 1.610 . S
N807 C808 1.351 . S
C808 C802 1.428 . S
C808 N807 1.351 . S
C808 C809 1.434 . S
C809 C800 1.429 . S
C809 N806 1.350 . S
C809 C808 1.434 . S
C810 C811 1.369 1_655 S
C810 C812 1.419 . S
C810 H814 0.930 . S
C811 C810 1.369 1_455 S
C811 C820 1.429 . S
C812 C810 1.419 . S
C812 C813 1.363 . S
C812 H815 0.929 . S
C813 C812 1.363 . S
C813 C819 1.428 . S
H814 C810 0.930 . S
H815 C812 0.929 . S
S816 N817 1.613 1_556 S
S816 N818 1.610 1_455 S
N817 S816 1.613 1_554 S
N817 C820 1.350 . S
N818 S816 1.610 1_655 S
N818 C819 1.351 1_556 S
C819 C813 1.428 . S
C819 N818 1.351 1_554 S
C819 C820 1.434 1_655 S
C820 C811 1.429 . S
C820 N817 1.350 . S
C820 C819 1.434 1_455 S
C821 C822 1.369 . S
C821 C823 1.419 . S
C821 H825 0.930 . S
C822 C821 1.369 . S
C822 C831 1.429 . S
C823 C821 1.419 . S
C823 C824 1.363 . S
C823 H826 0.929 . S
C824 C823 1.363 . S
C824 C830 1.428 . S
H825 C821 0.930 . S
H826 C823 0.929 . S
S827 N828 1.613 . S
S827 N829 1.610 . S
N828 S827 1.613 . S
N828 C831 1.350 . S
N829 S827 1.610 . S
N829 C830 1.351 . S
C830 C824 1.428 . S
C830 N829 1.351 . S
C830 C831 1.434 . S
C831 C822 1.429 . S
C831 N828 1.350 . S
C831 C830 1.434 . S
C832 C833 1.369 . S
C832 C834 1.419 . S
C832 H836 0.930 . S
C833 C832 1.369 . S
C833 C842 1.429 . S
C834 C832 1.419 . S
C834 C835 1.363 . S
C834 H837 0.929 . S
C835 C834 1.363 . S
C835 C841 1.428 . S
H836 C832 0.930 . S
H837 C834 0.929 . S
S838 N839 1.613 . S
S838 N840 1.610 . S
N839 S838 1.613 . S
N839 C842 1.350 . S
N840 S838 1.610 . S
N840 C841 1.351 . S
C841 C835 1.428 . S
C841 N840 1.351 . S
C841 C842 1.434 . S
C842 C833 1.429 . S
C842 N839 1.350 . S
C842 C841 1.434 . S
C843 C844 1.369 . S
C843 C845 1.419 . S
C843 H847 0.930 . S
C844 C843 1.369 . S
C844 C853 1.429 . S
C845 C843 1.419 . S
C845 C846 1.363 . S
C845 H848 0.929 . S
C846 C845 1.363 . S
C846 C852 1.428 . S
H847 C843 0.930 . S
H848 C845 0.929 . S
S849 N850 1.613 1_655 S
S849 N851 1.610 1_655 S
N850 S849 1.613 1_455 S
N850 C853 1.350 . S
N851 S849 1.610 1_455 S
N851 C852 1.351 . S
C852 C846 1.428 . S
C852 N851 1.351 . S
C852 C853 1.434 . S
C853 C844 1.429 . S
C853 N850 1.350 . S
C853 C852 1.434 . S
C854 C855 1.369 . S
C854 C856 1.419 . S
C854 H858 0.930 . S
C855 C854 1.369 . S
C855 C864 1.429 . S
C856 C854 1.419 . S
C856 C857 1.363 . S
C856 H859 0.929 . S
C857 C856 1.363 . S
C857 C863 1.428 . S
H858 C854 0.930 . S
H859 C856 0.929 . S
S860 N861 1.613 . S
S860 N862 1.610 . S
N861 S860 1.613 . S
N861 C864 1.350 . S
N862 S860 1.610 . S
N862 C863 1.351 . S
C863 C857 1.428 . S
C863 N862 1.351 . S
C863 C864 1.434 . S
C864 C855 1.429 . S
C864 N861 1.350 . S
C864 C863 1.434 . S
C865 C866 1.369 . S
C865 C867 1.419 . S
C865 H869 0.930 . S
C866 C865 1.369 . S
C866 C875 1.429 . S
C867 C865 1.419 . S
C867 C868 1.363 1_655 S
C867 H870 0.929 . S
C868 C867 1.363 1_455 S
C868 C874 1.428 . S
H869 C865 0.930 . S
H870 C867 0.929 . S
S871 N872 1.613 1_455 S
S871 N873 1.610 . S
N872 S871 1.613 1_655 S
N872 C875 1.350 . S
N873 S871 1.610 . S
N873 C874 1.351 . S
C874 C868 1.428 . S
C874 N873 1.351 . S
C874 C875 1.434 1_455 S
C875 C866 1.429 . S
C875 N872 1.350 . S
C875 C874 1.434 1_655 S
C481 C20 1.642 . S
C483 C460 1.646 . S
C492 C380 1.849 1_565 S
C494 C42 1.940 . S
C503 C100 1.644 . S
C505 C322 1.748 . S
C514 C122 1.815 . S
C516 C420 1.753 . S
C525 C180 1.795 . S
C527 C402 1.826 . S
C536 C220 1.614 . S
C538 C442 1.713 . S
C547 C362 1.833 . S
C549 C242 1.814 . S
C558 C282 1.612 . S
C560 C340 1.554 . S
C569 C140 1.755 . S
C571 C162 1.834 . S
C580 C2 1.733 . S
C582 C202 1.746 . S
C591 C60 1.710 . S
C593 C260 1.727 . S
C602 C300 1.774 . S
C604 C82 1.891 . S
C613 C4 1.992 . S
C615 C343 1.974 . S
C624 C65 1.260 . S
C626 C431 1.260 . S
C635 C471 2.089 . S
C637 C84 1.964 . S
C646 C145 1.670 . S
C648 C391 1.685 . S
C657 C164 1.739 . S
C659 C383 1.724 . S
C668 C351 2.246 1_556 S
C670 C204 2.119 . S
C679 C423 1.652 . S
C681 C265 1.720 . S
C690 C463 1.251 . S
C692 C305 1.298 . S
C701 C23 1.787 . S
C703 C124 1.817 . S
C712 C25 1.332 . S
C714 C71 1.362 . S
C723 C44 1.708 . S
C725 C103 1.679 . S
C734 C151 1.318 . S
C736 C105 1.322 . S
C745 C225 1.915 . S
C747 C183 1.817 . S
C756 C223 1.866 . S
C758 C244 1.862 . S
C767 C271 2.078 . S
C769 C284 1.981 . S
C778 C185 1.788 . S
C780 C311 1.796 . S
C789 C324 2.162 . S
C791 C143 2.164 . S
C800 C231 2.338 . S
C802 C364 2.227 . S
C811 C345 1.557 . S
C813 C263 1.499 . S
C822 C404 1.604 . S
C824 C303 1.577 . S
C833 C191 1.644 . S
C835 C444 1.542 . S
C844 C465 1.451 . S
C846 C63 1.376 . S
C855 C111 1.510 . S
C857 C385 1.508 . S
C866 C425 1.658 . S
C868 C31 1.665 . S
