# Generated by pormake.
# Topology sra, (4)-cn, num edge types: 1
# Building blocks:
#     Node 0, Type 0, BuildingBlock: AZAVOO_clean_sbu_0, # of connection points: 4
#     Node 1, Type 0, BuildingBlock: AZAVOO_clean_sbu_0, # of connection points: 4
#     Node 2, Type 0, BuildingBlock: AZAVOO_clean_sbu_0, # of connection points: 4
#     Node 3, Type 0, BuildingBlock: AZAVOO_clean_sbu_0, # of connection points: 4
#     Node 4, Type 0, BuildingBlock: AZAVOO_clean_sbu_0, # of connection points: 4
#     Node 5, Type 0, BuildingBlock: AZAVOO_clean_sbu_0, # of connection points: 4
#     Node 6, Type 0, BuildingBlock: AZAVOO_clean_sbu_0, # of connection points: 4
#     Node 7, Type 0, BuildingBlock: AZAVOO_clean_sbu_0, # of connection points: 4
#     Edge 8, Type (0, 0), BuildingBlock: XIVTED_clean_linker_0, # of connection points: 2
#     Edge 9, Type (0, 0), BuildingBlock: XIVTED_clean_linker_0, # of connection points: 2
#     Edge 10, Type (0, 0), BuildingBlock: XIVTED_clean_linker_0, # of connection points: 2
#     Edge 11, Type (0, 0), BuildingBlock: XIVTED_clean_linker_0, # of connection points: 2
#     Edge 12, Type (0, 0), BuildingBlock: XIVTED_clean_linker_0, # of connection points: 2
#     Edge 13, Type (0, 0), BuildingBlock: XIVTED_clean_linker_0, # of connection points: 2
#     Edge 14, Type (0, 0), BuildingBlock: XIVTED_clean_linker_0, # of connection points: 2
#     Edge 15, Type (0, 0), BuildingBlock: XIVTED_clean_linker_0, # of connection points: 2
#     Edge 16, Type (0, 0), BuildingBlock: XIVTED_clean_linker_0, # of connection points: 2
#     Edge 17, Type (0, 0), BuildingBlock: XIVTED_clean_linker_0, # of connection points: 2
#     Edge 18, Type (0, 0), BuildingBlock: XIVTED_clean_linker_0, # of connection points: 2
#     Edge 19, Type (0, 0), BuildingBlock: XIVTED_clean_linker_0, # of connection points: 2
#     Edge 20, Type (0, 0), BuildingBlock: XIVTED_clean_linker_0, # of connection points: 2
#     Edge 21, Type (0, 0), BuildingBlock: XIVTED_clean_linker_0, # of connection points: 2
#     Edge 22, Type (0, 0), BuildingBlock: XIVTED_clean_linker_0, # of connection points: 2
#     Edge 23, Type (0, 0), BuildingBlock: XIVTED_clean_linker_0, # of connection points: 2
# Relax obj value: 0.077
# Max RMSD: 0.074
# Mean RMSD: 0.074
data_MOF--net-sra--node1-AZAVOO_clean_sbu_0--edge1-XIVTED_clean_linker_0
_symmetry_space_group_name_H-M    P1
_symmetry_Int_Tables_number       1
_symmetry_cell_setting            triclinic
loop_
_symmetry_equiv_pos_as_xyz
'x, y, z'
_cell_length_a     27.389907
_cell_length_b     39.12223
_cell_length_c     44.450444
_cell_angle_alpha  90.255478
_cell_angle_beta   90.004469
_cell_angle_gamma 90.083676
loop_
_atom_site_label
_atom_site_type_symbol
_atom_site_fract_x
_atom_site_fract_y
_atom_site_fract_z
_atom_type_partial_charge
Mg0 Mg 0.01373 0.03741 0.16107 0.0
O1 O 0.01495 0.09617 0.15779 0.0
O2 O 0.08633 0.11177 0.13764 0.0
Mg3 Mg 0.12751 0.06349 0.12474 0.0
C4 C 0.04503 0.11916 0.14922 0.0
C5 C 0.91716 0.01406 0.18851 0.0
O6 O 0.94574 0.9878 0.19373 0.0
O7 O -0.00368 0.03272 0.11129 0.0
O8 O 0.06703 0.04962 0.09087 0.0
O9 O 0.05167 0.04095 0.205 0.0
O10 O 0.08947 0.03642 0.16113 0.0
C11 C 0.02295 0.03922 0.08848 0.0
C12 C 0.09202 0.04098 0.18983 0.0
O13 O 0.93394 0.03925 0.17385 0.0
Mg14 Mg -0.00076 0.44944 0.17185 0.0
O15 O -0.00465 0.3908 0.16795 0.0
O16 O 0.9259 0.37735 0.14423 0.0
Mg17 Mg 0.88768 0.42673 0.13117 0.0
C18 C 0.96539 0.36873 0.15738 0.0
C19 C 0.08959 0.47251 0.20403 0.0
O20 O 0.05792 0.49738 0.20774 0.0
O21 O 0.02183 0.45347 0.12302 0.0
O22 O 0.95189 0.43994 0.09969 0.0
O23 O 0.95692 0.4483 0.21412 0.0
O24 O 0.9237 0.45293 0.16895 0.0
C25 C -0.00312 0.44869 0.09914 0.0
C26 C 0.91807 0.45021 0.19761 0.0
O27 O 0.07739 0.44681 0.18817 0.0
Mg28 Mg 0.02399 0.95514 0.8094 0.0
O29 O 0.02516 0.89708 0.81759 0.0
O30 O 0.09644 0.88352 0.83896 0.0
Mg31 Mg 0.13778 0.93305 0.84767 0.0
C32 C 0.05495 0.87507 0.82817 0.0
C33 C 0.92432 0.97932 0.78705 0.0
O34 O 0.94958 0.0079 0.78745 0.0
O35 O 0.00629 0.96443 0.85859 0.0
O36 O 0.07685 0.94959 0.88038 0.0
O37 O 0.06187 0.94771 0.76592 0.0
O38 O 0.09985 0.95629 0.80926 0.0
C39 C 0.03271 0.96002 0.88187 0.0
C40 C 0.10234 0.94948 0.7809 0.0
O41 O 0.94423 0.95211 0.79646 0.0
Mg42 Mg 0.98431 0.54633 0.82935 0.0
O43 O -0.01165 0.6047 0.83504 0.0
O44 O 0.92334 0.62164 0.86156 0.0
Mg45 Mg 0.88144 0.57406 0.8758 0.0
C46 C 0.9623 0.6282 0.84694 0.0
C47 C 0.07013 0.52185 0.79171 0.0
O48 O 0.03687 0.49824 0.78676 0.0
O49 O 0.01196 0.53845 0.87677 0.0
O50 O 0.94755 0.55605 0.90369 0.0
O51 O 0.93776 0.55314 0.78939 0.0
O52 O 0.90911 0.54738 0.8357 0.0
C53 C -0.00906 0.5442 0.90186 0.0
C54 C 0.9009 0.55316 0.80764 0.0
O55 O 0.06054 0.54606 0.80988 0.0
Mg56 Mg 0.50135 0.53845 0.68056 0.0
O57 O 0.51025 0.59398 0.6652 0.0
O58 O 0.58525 0.59953 0.64572 0.0
Mg59 Mg 0.62373 0.54768 0.64831 0.0
C60 C 0.54377 0.612 0.653 0.0
C61 C 0.3936 0.51881 0.68773 0.0
O62 O 0.41358 0.48899 0.68189 0.0
O63 O 0.49097 0.52181 0.63171 0.0
O64 O 0.56836 0.52418 0.61567 0.0
O65 O 0.53229 0.55177 0.72562 0.0
O66 O 0.57626 0.53564 0.68632 0.0
C67 C 0.52338 0.51692 0.61155 0.0
C68 C 0.57468 0.54721 0.71346 0.0
O69 O 0.42019 0.54541 0.68724 0.0
Mg70 Mg 0.50765 0.94192 0.65462 0.0
O71 O 0.50553 0.88378 0.64586 0.0
O72 O 0.43519 0.87222 0.62236 0.0
Mg73 Mg 0.39496 0.9221 0.61404 0.0
C74 C 0.47542 0.86262 0.63405 0.0
C75 C 0.60438 0.96741 0.6783 0.0
O76 O 0.57704 0.99495 0.67713 0.0
O77 O 0.52744 0.95211 0.60599 0.0
O78 O 0.45701 0.93985 0.58273 0.0
O79 O 0.4679 0.93474 0.6974 0.0
O80 O 0.43187 0.94395 0.65362 0.0
C81 C 0.50158 0.94956 0.58223 0.0
C82 C 0.42806 0.93733 0.6819 0.0
O83 O 0.58687 0.93928 0.66883 0.0
Mg84 Mg 0.51555 0.46711 0.32707 0.0
O85 O 0.52809 0.40888 0.32713 0.0
O86 O 0.60131 0.39883 0.34769 0.0
Mg87 Mg 0.63541 0.44993 0.3603 0.0
C88 C 0.56158 0.38842 0.33576 0.0
C89 C 0.40952 0.48537 0.31265 0.0
O90 O 0.42808 0.51532 0.31977 0.0
O91 O 0.49925 0.46559 0.37751 0.0
O92 O 0.57433 0.45492 0.395 0.0
O93 O 0.55224 0.47054 0.28258 0.0
O94 O 0.59033 0.4752 0.32628 0.0
C95 C 0.52878 0.46001 0.39916 0.0
C96 C 0.59276 0.47311 0.29741 0.0
O97 O 0.43622 0.459 0.31476 0.0
Mg98 Mg 0.4969 0.05958 0.31364 0.0
O99 O 0.50103 0.11782 0.31999 0.0
O100 O 0.4373 0.13348 0.34838 0.0
Mg101 Mg 0.39091 0.08627 0.3577 0.0
C102 C 0.47611 0.14054 0.33381 0.0
C103 C 0.595 0.02954 0.29406 0.0
O104 O 0.57086 0.00198 0.30204 0.0
O105 O 0.52001 0.05035 0.36191 0.0
O106 O 0.45288 0.06547 0.38742 0.0
O107 O 0.45427 0.06669 0.27217 0.0
O108 O 0.42146 0.06108 0.31742 0.0
C109 C 0.49654 0.05402 0.38648 0.0
C110 C 0.4157 0.06637 0.28903 0.0
O111 O 0.57489 0.05854 0.29722 0.0
H112 H 0.0539 0.33921 0.16977 0.0
H113 H 0.95454 0.14716 0.15916 0.0
H114 H 0.9036 0.31431 0.14998 0.0
H115 H 0.10635 0.17429 0.14808 0.0
H116 H 0.93458 0.20798 0.16398 0.0
H117 H 0.073 0.27812 0.17029 0.0
C118 C 0.02485 0.32093 0.16576 0.0
C119 C 0.97714 0.33192 0.1596 0.0
C120 C 0.97223 0.20052 0.16054 0.0
C121 C -0.00126 0.26208 0.16029 0.0
C122 C 0.98367 0.16586 0.15787 0.0
C123 C 0.03214 0.15564 0.15298 0.0
C124 C 0.0096 0.22506 0.15873 0.0
C125 C 0.06842 0.181 0.15152 0.0
C126 C 0.03583 0.2861 0.16594 0.0
C127 C 0.94098 0.30703 0.15455 0.0
N128 N 0.05642 0.21451 0.15443 0.0
N129 N 0.95252 0.27328 0.15501 0.0
H130 H 0.96311 0.84763 0.82347 0.0
H131 H 0.05186 0.65354 0.83057 0.0
H132 H 0.11447 0.81943 0.83413 0.0
H133 H 0.90581 0.68518 0.85428 0.0
H134 H 0.07456 0.71368 0.82427 0.0
H135 H 0.94048 0.7872 0.82686 0.0
C136 C -0.0084 0.82874 0.82631 0.0
C137 C 0.04073 0.8386 0.82867 0.0
C138 C 0.03759 0.70736 0.83087 0.0
C139 C 0.0151 0.76956 0.83242 0.0
C140 C 0.02456 0.67309 0.8344 0.0
C141 C 0.97692 0.66433 0.84311 0.0
C142 C 0.00252 0.73297 0.83561 0.0
C143 C 0.94306 0.69075 0.84778 0.0
C144 C 0.97863 0.79432 0.82839 0.0
C145 C 0.07611 0.81301 0.83244 0.0
N146 N 0.95645 0.72387 0.84385 0.0
N147 N 0.06261 0.77965 0.83412 0.0
H148 H 0.61118 0.66254 0.64307 0.0
H149 H 0.41261 0.80964 0.62325 0.0
H150 H 0.45605 0.64543 0.65186 0.0
H151 H 0.5627 0.831 0.64662 0.0
H152 H 0.42978 0.74863 0.62617 0.0
H153 H 0.59558 0.72372 0.63697 0.0
C154 C 0.57383 0.67159 0.64352 0.0
C155 C 0.53483 0.64882 0.64805 0.0
C156 C 0.45896 0.76667 0.63062 0.0
C157 C 0.51689 0.71867 0.64096 0.0
C158 C 0.44929 0.80155 0.62885 0.0
C159 C 0.48626 0.82557 0.6348 0.0
C160 C 0.50607 0.75557 0.63807 0.0
C161 C 0.53304 0.81342 0.64201 0.0
C162 C 0.56503 0.70651 0.64019 0.0
C163 C 0.48723 0.66204 0.64858 0.0
N164 N 0.54166 0.77923 0.64338 0.0
N165 N 0.4796 0.69608 0.645 0.0
H166 H 0.59053 0.34027 0.37572 0.0
H167 H 0.51119 0.17602 0.28559 0.0
H168 H 0.51245 0.35244 0.29214 0.0
H169 H 0.47727 0.18626 0.37995 0.0
H170 H 0.5341 0.23699 0.28453 0.0
H171 H 0.57195 0.27896 0.37447 0.0
C172 C 0.57 0.32993 0.35693 0.0
C173 C 0.55282 0.35131 0.33401 0.0
C174 C 0.5218 0.22565 0.30539 0.0
C175 C 0.53249 0.28152 0.33228 0.0
C176 C 0.50909 0.19105 0.30608 0.0
C177 C 0.49233 0.17638 0.3329 0.0
C178 C 0.51918 0.24508 0.33192 0.0
C179 C 0.48982 0.19681 0.35883 0.0
C180 C 0.5593 0.29512 0.35635 0.0
C181 C 0.52604 0.33672 0.31029 0.0
N182 N 0.50362 0.23013 0.35779 0.0
N183 N 0.51694 0.30251 0.30987 0.0
H184 H 0.32696 0.06438 0.3176 0.0
H185 H 0.18249 0.04212 0.16406 0.0
H186 H 0.39298 0.07588 0.23 0.0
H187 H 0.10903 0.05637 0.24914 0.0
H188 H 0.25994 0.05447 0.18841 0.0
H189 H 0.24654 0.06251 0.29371 0.0
C190 C 0.32452 0.06701 0.29341 0.0
C191 C 0.36673 0.06997 0.27572 0.0
C192 C 0.22687 0.05524 0.20175 0.0
C193 C 0.27517 0.06735 0.24832 0.0
C194 C 0.18251 0.0482 0.18782 0.0
C195 C 0.13911 0.04848 0.20452 0.0
C196 C 0.22807 0.06212 0.23275 0.0
C197 C 0.14166 0.05589 0.23541 0.0
C198 C 0.27863 0.06587 0.2798 0.0
C199 C 0.36145 0.07328 0.2445 0.0
N200 N 0.18552 0.06223 0.24861 0.0
N201 N 0.31654 0.0715 0.23177 0.0
H202 H 0.68317 0.48175 0.32205 0.0
H203 H 0.82917 0.45285 0.16928 0.0
H204 H 0.61093 0.45817 0.23812 0.0
H205 H 0.89555 0.44844 0.2573 0.0
H206 H 0.74902 0.45769 0.19309 0.0
H207 H 0.76173 0.47368 0.29757 0.0
C208 C 0.68377 0.47465 0.2985 0.0
C209 C 0.64039 0.47011 0.28222 0.0
C210 C 0.78115 0.45538 0.20713 0.0
C211 C 0.73042 0.4613 0.25391 0.0
C212 C 0.8269 0.45251 0.19358 0.0
C213 C 0.86912 0.4502 0.21135 0.0
C214 C 0.77779 0.45635 0.23862 0.0
C215 C 0.86399 0.45017 0.24273 0.0
C216 C 0.72872 0.47009 0.28452 0.0
C217 C 0.64354 0.46178 0.25154 0.0
N218 N 0.81918 0.45345 0.25536 0.0
N219 N 0.6879 0.45763 0.23832 0.0
H220 H 0.1191 0.93451 0.72164 0.0
H221 H 0.40885 0.92561 0.74124 0.0
H222 H 0.19337 0.94978 0.80635 0.0
H223 H 0.33769 0.94003 0.65554 0.0
H224 H 0.32891 0.9239 0.7655 0.0
H225 H 0.19821 0.92644 0.69715 0.0
C226 C 0.15196 0.9359 0.73515 0.0
C227 C 0.1496 0.94283 0.76611 0.0
C228 C 0.33085 0.92718 0.74135 0.0
C229 C 0.23998 0.9335 0.73828 0.0
C230 C 0.37643 0.92807 0.72746 0.0
C231 C 0.37996 0.93314 0.69632 0.0
C232 C 0.28852 0.93124 0.72395 0.0
C233 C 0.33673 0.93609 0.67959 0.0
C234 C 0.19705 0.93132 0.72114 0.0
C235 C 0.19334 0.94432 0.78249 0.0
N236 N 0.29274 0.93523 0.69365 0.0
N237 N 0.23676 0.93975 0.76835 0.0
H238 H 0.6564 0.57658 0.69015 0.0
H239 H 0.81458 0.54667 0.83822 0.0
H240 H 0.59485 0.53999 0.77324 0.0
H241 H 0.87415 0.57496 0.7519 0.0
H242 H 0.73224 0.55272 0.81758 0.0
H243 H 0.73437 0.58497 0.71516 0.0
C244 C 0.65945 0.57005 0.71364 0.0
C245 C 0.61977 0.55645 0.72943 0.0
C246 C 0.76336 0.55795 0.80329 0.0
C247 C 0.70881 0.56642 0.75847 0.0
C248 C 0.81034 0.55457 0.81505 0.0
C249 C 0.8512 0.55995 0.79661 0.0
C250 C 0.75741 0.56679 0.77294 0.0
C251 C 0.84366 0.57016 0.7668 0.0
C252 C 0.70389 0.57518 0.72805 0.0
C253 C 0.62497 0.55013 0.76026 0.0
N254 N 0.79767 0.573 0.75585 0.0
N255 N 0.66907 0.55468 0.77377 0.0
H256 H 0.6649 0.91397 0.69208 0.0
H257 H 0.86938 0.033 0.76722 0.0
H258 H 0.65356 0.02384 0.6984 0.0
H259 H 0.86875 0.92293 0.77397 0.0
H260 H 0.79184 0.0302 0.7402 0.0
H261 H 0.74222 0.91678 0.71948 0.0
C262 C 0.67881 0.9387 0.69905 0.0
C263 C 0.65271 0.96872 0.69299 0.0
C264 C 0.80855 0.00666 0.74771 0.0
C265 C 0.74093 0.97209 0.72447 0.0
C266 C 0.8528 0.00825 0.76318 0.0
C267 C 0.87561 0.97815 0.77282 0.0
C268 C 0.78713 0.97474 0.74164 0.0
C269 C 0.85242 0.94679 0.76698 0.0
C270 C 0.72281 0.94026 0.71483 0.0
C271 C 0.6724 4e-05 0.70263 0.0
N272 N 0.80957 0.94589 0.75161 0.0
N273 N 0.71532 0.00091 0.7179 0.0
H274 H 0.34572 0.57491 0.7098 0.0
H275 H 0.10557 0.47093 0.75551 0.0
H276 H 0.32633 0.4672 0.69166 0.0
H277 H 0.1406 0.57146 0.78978 0.0
H278 H 0.18207 0.47098 0.7272 0.0
H279 H 0.26544 0.5762 0.73359 0.0
C280 C 0.32439 0.55159 0.71053 0.0
C281 C 0.34293 0.52081 0.69893 0.0
C282 C 0.17299 0.49301 0.74093 0.0
C283 C 0.25116 0.52212 0.72631 0.0
C284 C 0.12936 0.493 0.75711 0.0
C285 C 0.1168 0.52118 0.77513 0.0
C286 C 0.20407 0.52151 0.7426 0.0
C287 C 0.14897 0.54911 0.77631 0.0
C288 C 0.27866 0.55233 0.72427 0.0
C289 C 0.3136 0.49144 0.70047 0.0
N290 N 0.19109 0.54858 0.76022 0.0
N291 N 0.26921 0.49278 0.71406 0.0
H292 H 0.65036 0.97202 0.28602 0.0
H293 H 0.85353 0.06791 0.18841 0.0
H294 H 0.64883 0.08041 0.26809 0.0
H295 H 0.86902 0.96413 0.21967 0.0
H296 H 0.77494 0.0715 0.21408 0.0
H297 H 0.72792 0.96746 0.25912 0.0
C298 C 0.66642 0.99488 0.27654 0.0
C299 C 0.64311 0.02665 0.27932 0.0
C300 C 0.79549 0.04792 0.21527 0.0
C301 C 0.73153 0.02155 0.24831 0.0
C302 C 0.84026 0.04578 0.20049 0.0
C303 C 0.86797 0.0157 0.202 0.0
C304 C 0.77815 0.01973 0.23156 0.0
C305 C 0.84895 0.98786 0.21802 0.0
C306 C 0.71065 0.99225 0.26117 0.0
C307 C 0.66556 0.05541 0.26656 0.0
N308 N 0.80522 0.99057 0.23222 0.0
N309 N 0.70844 0.05215 0.25152 0.0
H310 H 0.15951 0.42248 0.2072 0.0
H311 H 0.34184 0.53617 0.30662 0.0
H312 H 0.12766 0.52535 0.23677 0.0
H313 H 0.36557 0.42917 0.28748 0.0
H314 H 0.26365 0.53283 0.28045 0.0
H315 H 0.23642 0.42481 0.23514 0.0
C316 C 0.16877 0.44559 0.21945 0.0
C317 C 0.13714 0.47377 0.21965 0.0
C318 C 0.28583 0.51002 0.2821 0.0
C319 C 0.22485 0.47655 0.25173 0.0
C320 C 0.33047 0.5119 0.29709 0.0
C321 C 0.36036 0.48294 0.29917 0.0
C322 C 0.27107 0.47899 0.26891 0.0
C323 C 0.34369 0.45215 0.28642 0.0
C324 C 0.21256 0.44685 0.23551 0.0
C325 C 0.1509 0.50301 0.236 0.0
N326 N 0.30027 0.45104 0.27167 0.0
N327 N 0.19373 0.50364 0.25134 0.0
H328 H 0.0329 0.07699 0.03764 0.0
H329 H 0.03901 0.92361 0.93357 0.0
H330 H 0.97446 0.98189 0.07064 0.0
H331 H 0.98448 0.01827 0.89749 0.0
H332 H 0.01883 0.94382 0.98439 0.0
H333 H 0.01816 0.0573 0.98595 0.0
C334 C 0.0159 0.05231 0.03392 0.0
C335 C 0.00487 0.03093 0.0582 0.0
C336 C 0.01025 0.95979 0.96527 0.0
C337 C -0.01043 0.00799 -0.0004 0.0
C338 C 0.02193 0.94839 0.93641 0.0
C339 C 0.01338 0.96943 0.91157 0.0
C340 C -0.00833 0.9929 0.96922 0.0
C341 C -0.00864 0.00135 0.91622 0.0
C342 C 0.00739 0.04116 0.00455 0.0
C343 C 0.98317 -0.0009 0.05239 0.0
N344 N 0.98239 0.01258 0.94468 0.0
N345 N 0.97744 0.98811 0.02355 0.0
H346 H -0.00618 0.5772 0.95585 0.0
H347 H 0.9856 0.41582 0.04546 0.0
H348 H 0.03865 0.48433 0.91124 0.0
H349 H 0.05406 0.50367 0.08659 0.0
H350 H 0.00495 0.43913 -0.00424 0.0
H351 H 0.01612 0.55189 0.00429 0.0
C352 C 0.00955 0.55181 0.95628 0.0
C353 C 0.01433 0.53268 0.92975 0.0
C354 C 0.017 0.45277 0.01569 0.0
C355 C 0.03821 0.50338 0.98472 0.0
C356 C 0.00583 0.43958 0.04394 0.0
C357 C 0.01809 0.45802 0.06995 0.0
C358 C 0.0388 0.48515 0.01361 0.0
C359 C 0.04413 0.48872 0.06695 0.0
C360 C 0.0224 0.53746 0.9838 0.0
C361 C 0.03464 0.49984 0.93132 0.0
N362 N 0.05237 0.50192 0.03919 0.0
N363 N 0.04452 0.48574 0.95854 0.0
H364 H 0.55866 0.41796 0.44335 0.0
H365 H 0.44444 0.53122 0.57543 0.0
H366 H 0.45993 0.50132 0.42598 0.0
H367 H 0.57247 0.4677 0.58192 0.0
H368 H 0.43177 0.5102 0.52354 0.0
H369 H 0.54366 0.4244 0.49702 0.0
C370 C 0.53319 0.43734 0.45093 0.0
C371 C 0.51124 0.45962 0.43043 0.0
C372 C 0.46204 0.5005 0.53663 0.0
C373 C 0.49475 0.46773 0.49187 0.0
C374 C 0.46915 0.51235 0.56612 0.0
C375 C 0.5099 0.50141 0.58256 0.0
C376 C 0.49549 0.4772 0.52412 0.0
C377 C 0.54103 0.47708 0.56972 0.0
C378 C 0.52467 0.44106 0.48154 0.0
C379 C 0.47783 0.48387 0.44126 0.0
N380 N 0.53329 0.46594 0.54126 0.0
N381 N 0.47131 0.48784 0.47147 0.0
H382 H 0.55354 0.00782 0.57291 0.0
H383 H 0.54584 0.99444 0.39427 0.0
H384 H 0.49226 0.92061 0.52671 0.0
H385 H 0.49338 0.08314 0.44221 0.0
H386 H 0.56424 0.9671 0.44268 0.0
H387 H 0.56946 0.03475 0.52398 0.0
C388 C 0.54502 0.9939 0.55244 0.0
C389 C 0.52128 0.96215 0.55361 0.0
C390 C 0.55005 0.99293 0.4424 0.0
C391 C 0.54013 0.99228 0.49821 0.0
C392 C 0.53977 0.00855 0.41496 0.0
C393 C 0.51776 0.04089 0.41449 0.0
C394 C 0.53945 0.01027 0.46927 0.0
C395 C 0.51001 0.05805 0.44181 0.0
C396 C 0.55389 0.0093 0.52471 0.0
C397 C 0.51032 0.94525 0.52658 0.0
N398 N 0.52067 0.04244 0.46822 0.0
N399 N 0.51967 0.96061 0.49986 0.0
loop_
_geom_bond_atom_site_label_1
_geom_bond_atom_site_label_2
_geom_bond_distance
_geom_bond_site_symmetry_2
_ccdc_geom_bond_type
Mg0 O1 2.028 . S
Mg0 O7 1.986 . S
Mg0 O9 2.114 . S
Mg0 O10 2.251 . S
Mg0 O13 2.010 1_455 S
O1 Mg0 2.028 . S
O1 C4 1.250 . S
O2 Mg3 2.028 . S
O2 C4 1.248 . S
Mg3 O2 2.028 . S
Mg3 O8 2.032 . S
Mg3 O10 2.079 . S
C4 O1 1.250 . S
C4 O2 1.248 . S
C5 O6 1.264 . S
C5 O13 1.249 . S
O6 C5 1.264 . S
O7 Mg0 1.986 . S
O7 C11 1.246 . S
O8 Mg3 2.032 . S
O8 C11 1.259 . S
O9 Mg0 2.114 . S
O9 C12 1.252 . S
O10 Mg0 2.251 . S
O10 Mg3 2.079 . S
O10 C12 1.273 . S
C11 O7 1.246 . S
C11 O8 1.259 . S
C12 O9 1.252 . S
C12 O10 1.273 . S
O13 Mg0 2.010 1_655 S
O13 C5 1.249 . S
Mg14 O15 2.028 . S
Mg14 O21 1.986 . S
Mg14 O23 2.114 1_455 S
Mg14 O24 2.251 1_455 S
Mg14 O27 2.010 . S
O15 Mg14 2.028 . S
O15 C18 1.250 . S
O16 Mg17 2.028 . S
O16 C18 1.248 1_655 S
Mg17 O16 2.028 . S
Mg17 O22 2.032 . S
Mg17 O24 2.079 . S
C18 O15 1.250 . S
C18 O16 1.248 1_455 S
C19 O20 1.264 . S
C19 O27 1.249 . S
O20 C19 1.264 . S
O21 Mg14 1.986 . S
O21 C25 1.246 . S
O22 Mg17 2.032 . S
O22 C25 1.259 1_655 S
O23 Mg14 2.114 1_655 S
O23 C26 1.252 . S
O24 Mg14 2.251 1_655 S
O24 Mg17 2.079 . S
O24 C26 1.273 . S
C25 O21 1.246 . S
C25 O22 1.259 1_455 S
C26 O23 1.252 . S
C26 O24 1.273 . S
O27 Mg14 2.010 . S
O27 C19 1.249 . S
Mg28 O29 2.028 . S
Mg28 O35 1.986 . S
Mg28 O37 2.114 . S
Mg28 O38 2.251 . S
Mg28 O41 2.010 1_455 S
O29 Mg28 2.028 . S
O29 C32 1.250 . S
O30 Mg31 2.028 . S
O30 C32 1.248 . S
Mg31 O30 2.028 . S
Mg31 O36 2.032 . S
Mg31 O38 2.079 . S
C32 O29 1.250 . S
C32 O30 1.248 . S
C33 O34 1.264 . S
C33 O41 1.249 . S
O34 C33 1.264 . S
O35 Mg28 1.986 . S
O35 C39 1.246 . S
O36 Mg31 2.032 . S
O36 C39 1.259 . S
O37 Mg28 2.114 . S
O37 C40 1.252 . S
O38 Mg28 2.251 . S
O38 Mg31 2.079 . S
O38 C40 1.273 . S
C39 O35 1.246 . S
C39 O36 1.259 . S
C40 O37 1.252 . S
C40 O38 1.273 . S
O41 Mg28 2.010 1_655 S
O41 C33 1.249 . S
Mg42 O43 2.028 . S
Mg42 O49 1.986 . S
Mg42 O51 2.114 1_455 S
Mg42 O52 2.251 1_455 S
Mg42 O55 2.010 . S
O43 Mg42 2.028 . S
O43 C46 1.250 . S
O44 Mg45 2.028 . S
O44 C46 1.248 1_655 S
Mg45 O44 2.028 . S
Mg45 O50 2.032 . S
Mg45 O52 2.079 . S
C46 O43 1.250 . S
C46 O44 1.248 1_455 S
C47 O48 1.264 . S
C47 O55 1.249 . S
O48 C47 1.264 . S
O49 Mg42 1.986 . S
O49 C53 1.246 . S
O50 Mg45 2.032 . S
O50 C53 1.259 1_655 S
O51 Mg42 2.114 1_655 S
O51 C54 1.252 . S
O52 Mg42 2.251 1_655 S
O52 Mg45 2.079 . S
O52 C54 1.273 . S
C53 O49 1.246 . S
C53 O50 1.259 1_455 S
C54 O51 1.252 . S
C54 O52 1.273 . S
O55 Mg42 2.010 . S
O55 C47 1.249 . S
Mg56 O57 2.028 . S
Mg56 O63 1.986 . S
Mg56 O65 2.114 . S
Mg56 O66 2.251 . S
Mg56 O69 2.010 . S
O57 Mg56 2.028 . S
O57 C60 1.250 . S
O58 Mg59 2.028 . S
O58 C60 1.248 . S
Mg59 O58 2.028 . S
Mg59 O64 2.032 . S
Mg59 O66 2.079 . S
C60 O57 1.250 . S
C60 O58 1.248 . S
C61 O62 1.264 . S
C61 O69 1.249 . S
O62 C61 1.264 . S
O63 Mg56 1.986 . S
O63 C67 1.246 . S
O64 Mg59 2.032 . S
O64 C67 1.259 . S
O65 Mg56 2.114 . S
O65 C68 1.252 . S
O66 Mg56 2.251 . S
O66 Mg59 2.079 . S
O66 C68 1.273 . S
C67 O63 1.246 . S
C67 O64 1.259 . S
C68 O65 1.252 . S
C68 O66 1.273 . S
O69 Mg56 2.010 . S
O69 C61 1.249 . S
Mg70 O71 2.028 . S
Mg70 O77 1.986 . S
Mg70 O79 2.114 . S
Mg70 O80 2.251 . S
Mg70 O83 2.010 . S
O71 Mg70 2.028 . S
O71 C74 1.250 . S
O72 Mg73 2.028 . S
O72 C74 1.248 . S
Mg73 O72 2.028 . S
Mg73 O78 2.032 . S
Mg73 O80 2.079 . S
C74 O71 1.250 . S
C74 O72 1.248 . S
C75 O76 1.264 . S
C75 O83 1.249 . S
O76 C75 1.264 . S
O77 Mg70 1.986 . S
O77 C81 1.246 . S
O78 Mg73 2.032 . S
O78 C81 1.259 . S
O79 Mg70 2.114 . S
O79 C82 1.252 . S
O80 Mg70 2.251 . S
O80 Mg73 2.079 . S
O80 C82 1.273 . S
C81 O77 1.246 . S
C81 O78 1.259 . S
C82 O79 1.252 . S
C82 O80 1.273 . S
O83 Mg70 2.010 . S
O83 C75 1.249 . S
Mg84 O85 2.028 . S
Mg84 O91 1.986 . S
Mg84 O93 2.114 . S
Mg84 O94 2.251 . S
Mg84 O97 2.010 . S
O85 Mg84 2.028 . S
O85 C88 1.250 . S
O86 Mg87 2.028 . S
O86 C88 1.248 . S
Mg87 O86 2.028 . S
Mg87 O92 2.032 . S
Mg87 O94 2.079 . S
C88 O85 1.250 . S
C88 O86 1.248 . S
C89 O90 1.264 . S
C89 O97 1.249 . S
O90 C89 1.264 . S
O91 Mg84 1.986 . S
O91 C95 1.246 . S
O92 Mg87 2.032 . S
O92 C95 1.259 . S
O93 Mg84 2.114 . S
O93 C96 1.252 . S
O94 Mg84 2.251 . S
O94 Mg87 2.079 . S
O94 C96 1.273 . S
C95 O91 1.246 . S
C95 O92 1.259 . S
C96 O93 1.252 . S
C96 O94 1.273 . S
O97 Mg84 2.010 . S
O97 C89 1.249 . S
Mg98 O99 2.028 . S
Mg98 O105 1.986 . S
Mg98 O107 2.114 . S
Mg98 O108 2.251 . S
Mg98 O111 2.010 . S
O99 Mg98 2.028 . S
O99 C102 1.250 . S
O100 Mg101 2.028 . S
O100 C102 1.248 . S
Mg101 O100 2.028 . S
Mg101 O106 2.032 . S
Mg101 O108 2.079 . S
C102 O99 1.250 . S
C102 O100 1.248 . S
C103 O104 1.264 . S
C103 O111 1.249 . S
O104 C103 1.264 . S
O105 Mg98 1.986 . S
O105 C109 1.246 . S
O106 Mg101 2.032 . S
O106 C109 1.259 . S
O107 Mg98 2.114 . S
O107 C110 1.252 . S
O108 Mg98 2.251 . S
O108 Mg101 2.079 . S
O108 C110 1.273 . S
C109 O105 1.246 . S
C109 O106 1.259 . S
C110 O107 1.252 . S
C110 O108 1.273 . S
O111 Mg98 2.010 . S
O111 C103 1.249 . S
H112 C118 0.930 . S
H113 C122 0.930 . S
H114 C127 0.929 . S
H115 C125 0.929 . S
H116 C120 0.929 . S
H117 C126 0.929 . S
C118 H112 0.930 . S
C118 C119 1.367 . S
C118 C126 1.378 . S
C119 C118 1.367 . S
C119 C127 1.433 1_455 S
C120 H116 0.929 . S
C120 C122 1.378 . S
C120 C124 1.350 1_655 S
C121 C124 1.463 . S
C121 C126 1.350 . S
C121 N129 1.427 1_455 S
C122 H113 0.930 . S
C122 C120 1.378 . S
C122 C123 1.367 1_655 S
C123 C122 1.367 1_455 S
C123 C125 1.433 . S
C124 C120 1.350 1_455 S
C124 C121 1.463 . S
C124 N128 1.427 . S
C125 H115 0.929 . S
C125 C123 1.433 . S
C125 N128 1.384 . S
C126 H117 0.929 . S
C126 C118 1.378 . S
C126 C121 1.350 . S
C127 H114 0.929 . S
C127 C119 1.433 1_655 S
C127 N129 1.384 . S
N128 C124 1.427 . S
N128 C125 1.384 . S
N129 C121 1.427 1_655 S
N129 C127 1.384 . S
H130 C136 0.930 . S
H131 C140 0.930 . S
H132 C145 0.929 . S
H133 C143 0.929 . S
H134 C138 0.929 . S
H135 C144 0.929 . S
C136 H130 0.930 . S
C136 C137 1.367 1_655 S
C136 C144 1.378 . S
C137 C136 1.367 1_455 S
C137 C145 1.433 . S
C138 H134 0.929 . S
C138 C140 1.378 . S
C138 C142 1.350 . S
C139 C142 1.463 . S
C139 C144 1.350 1_455 S
C139 N147 1.427 . S
C140 H131 0.930 . S
C140 C138 1.378 . S
C140 C141 1.367 . S
C141 C140 1.367 . S
C141 C143 1.433 1_455 S
C142 C138 1.350 . S
C142 C139 1.463 . S
C142 N146 1.427 1_455 S
C143 H133 0.929 . S
C143 C141 1.433 1_655 S
C143 N146 1.384 . S
C144 H135 0.929 . S
C144 C136 1.378 . S
C144 C139 1.350 1_655 S
C145 H132 0.929 . S
C145 C137 1.433 . S
C145 N147 1.384 . S
N146 C142 1.427 1_655 S
N146 C143 1.384 . S
N147 C139 1.427 . S
N147 C145 1.384 . S
H148 C154 0.930 . S
H149 C158 0.930 . S
H150 C163 0.929 . S
H151 C161 0.929 . S
H152 C156 0.929 . S
H153 C162 0.929 . S
C154 H148 0.930 . S
C154 C155 1.367 . S
C154 C162 1.378 . S
C155 C154 1.367 . S
C155 C163 1.433 . S
C156 H152 0.929 . S
C156 C158 1.378 . S
C156 C160 1.350 . S
C157 C160 1.463 . S
C157 C162 1.350 . S
C157 N165 1.427 . S
C158 H149 0.930 . S
C158 C156 1.378 . S
C158 C159 1.367 . S
C159 C158 1.367 . S
C159 C161 1.433 . S
C160 C156 1.350 . S
C160 C157 1.463 . S
C160 N164 1.427 . S
C161 H151 0.929 . S
C161 C159 1.433 . S
C161 N164 1.384 . S
C162 H153 0.929 . S
C162 C154 1.378 . S
C162 C157 1.350 . S
C163 H150 0.929 . S
C163 C155 1.433 . S
C163 N165 1.384 . S
N164 C160 1.427 . S
N164 C161 1.384 . S
N165 C157 1.427 . S
N165 C163 1.384 . S
H166 C172 0.930 . S
H167 C176 0.930 . S
H168 C181 0.929 . S
H169 C179 0.929 . S
H170 C174 0.929 . S
H171 C180 0.929 . S
C172 H166 0.930 . S
C172 C173 1.367 . S
C172 C180 1.378 . S
C173 C172 1.367 . S
C173 C181 1.433 . S
C174 H170 0.929 . S
C174 C176 1.378 . S
C174 C178 1.350 . S
C175 C178 1.463 . S
C175 C180 1.350 . S
C175 N183 1.427 . S
C176 H167 0.930 . S
C176 C174 1.378 . S
C176 C177 1.367 . S
C177 C176 1.367 . S
C177 C179 1.433 . S
C178 C174 1.350 . S
C178 C175 1.463 . S
C178 N182 1.427 . S
C179 H169 0.929 . S
C179 C177 1.433 . S
C179 N182 1.384 . S
C180 H171 0.929 . S
C180 C172 1.378 . S
C180 C175 1.350 . S
C181 H168 0.929 . S
C181 C173 1.433 . S
C181 N183 1.384 . S
N182 C178 1.427 . S
N182 C179 1.384 . S
N183 C175 1.427 . S
N183 C181 1.384 . S
H184 C190 0.930 1_565 S
H185 C194 0.930 . S
H186 C199 0.929 . S
H187 C197 0.929 1_565 S
H188 C192 0.929 . S
H189 C198 0.929 1_565 S
C190 H184 0.930 1_545 S
C190 C191 1.367 . S
C190 C198 1.378 . S
C191 C190 1.367 . S
C191 C199 1.433 . S
C192 H188 0.929 . S
C192 C194 1.378 . S
C192 C196 1.350 . S
C193 C196 1.463 . S
C193 C198 1.350 . S
C193 N201 1.427 . S
C194 H185 0.930 . S
C194 C192 1.378 . S
C194 C195 1.367 . S
C195 C194 1.367 . S
C195 C197 1.433 . S
C196 C192 1.350 . S
C196 C193 1.463 . S
C196 N200 1.427 . S
C197 H187 0.929 1_545 S
C197 C195 1.433 . S
C197 N200 1.384 . S
C198 H189 0.929 1_545 S
C198 C190 1.378 . S
C198 C193 1.350 . S
C199 H186 0.929 . S
C199 C191 1.433 . S
C199 N201 1.384 . S
N200 C196 1.427 . S
N200 C197 1.384 . S
N201 C193 1.427 . S
N201 C199 1.384 . S
H202 C208 0.930 . S
H203 C212 0.930 . S
H204 C217 0.929 . S
H205 C215 0.929 . S
H206 C210 0.929 . S
H207 C216 0.929 . S
C208 H202 0.930 . S
C208 C209 1.367 . S
C208 C216 1.378 . S
C209 C208 1.367 . S
C209 C217 1.433 . S
C210 H206 0.929 . S
C210 C212 1.378 . S
C210 C214 1.350 . S
C211 C214 1.463 . S
C211 C216 1.350 . S
C211 N219 1.427 . S
C212 H203 0.930 . S
C212 C210 1.378 . S
C212 C213 1.367 . S
C213 C212 1.367 . S
C213 C215 1.433 . S
C214 C210 1.350 . S
C214 C211 1.463 . S
C214 N218 1.427 . S
C215 H205 0.929 . S
C215 C213 1.433 . S
C215 N218 1.384 . S
C216 H207 0.929 . S
C216 C208 1.378 . S
C216 C211 1.350 . S
C217 H204 0.929 . S
C217 C209 1.433 . S
C217 N219 1.384 . S
N218 C214 1.427 . S
N218 C215 1.384 . S
N219 C211 1.427 . S
N219 C217 1.384 . S
H220 C226 0.930 . S
H221 C230 0.930 . S
H222 C235 0.929 . S
H223 C233 0.929 . S
H224 C228 0.929 . S
H225 C234 0.929 . S
C226 H220 0.930 . S
C226 C227 1.367 . S
C226 C234 1.378 . S
C227 C226 1.367 . S
C227 C235 1.433 . S
C228 H224 0.929 . S
C228 C230 1.378 . S
C228 C232 1.350 . S
C229 C232 1.463 . S
C229 C234 1.350 . S
C229 N237 1.427 . S
C230 H221 0.930 . S
C230 C228 1.378 . S
C230 C231 1.367 . S
C231 C230 1.367 . S
C231 C233 1.433 . S
C232 C228 1.350 . S
C232 C229 1.463 . S
C232 N236 1.427 . S
C233 H223 0.929 . S
C233 C231 1.433 . S
C233 N236 1.384 . S
C234 H225 0.929 . S
C234 C226 1.378 . S
C234 C229 1.350 . S
C235 H222 0.929 . S
C235 C227 1.433 . S
C235 N237 1.384 . S
N236 C232 1.427 . S
N236 C233 1.384 . S
N237 C229 1.427 . S
N237 C235 1.384 . S
H238 C244 0.930 . S
H239 C248 0.930 . S
H240 C253 0.929 . S
H241 C251 0.929 . S
H242 C246 0.929 . S
H243 C252 0.929 . S
C244 H238 0.930 . S
C244 C245 1.367 . S
C244 C252 1.378 . S
C245 C244 1.367 . S
C245 C253 1.433 . S
C246 H242 0.929 . S
C246 C248 1.378 . S
C246 C250 1.350 . S
C247 C250 1.463 . S
C247 C252 1.350 . S
C247 N255 1.427 . S
C248 H239 0.930 . S
C248 C246 1.378 . S
C248 C249 1.367 . S
C249 C248 1.367 . S
C249 C251 1.433 . S
C250 C246 1.350 . S
C250 C247 1.463 . S
C250 N254 1.427 . S
C251 H241 0.929 . S
C251 C249 1.433 . S
C251 N254 1.384 . S
C252 H243 0.929 . S
C252 C244 1.378 . S
C252 C247 1.350 . S
C253 H240 0.929 . S
C253 C245 1.433 . S
C253 N255 1.384 . S
N254 C250 1.427 . S
N254 C251 1.384 . S
N255 C247 1.427 . S
N255 C253 1.384 . S
H256 C262 0.930 . S
H257 C266 0.930 . S
H258 C271 0.929 . S
H259 C269 0.929 . S
H260 C264 0.929 . S
H261 C270 0.929 . S
C262 H256 0.930 . S
C262 C263 1.367 . S
C262 C270 1.378 . S
C263 C262 1.367 . S
C263 C271 1.433 . S
C264 H260 0.929 . S
C264 C266 1.378 . S
C264 C268 1.350 . S
C265 C268 1.463 . S
C265 C270 1.350 . S
C265 N273 1.427 . S
C266 H257 0.930 . S
C266 C264 1.378 . S
C266 C267 1.367 . S
C267 C266 1.367 . S
C267 C269 1.433 . S
C268 C264 1.350 . S
C268 C265 1.463 . S
C268 N272 1.427 . S
C269 H259 0.929 . S
C269 C267 1.433 . S
C269 N272 1.384 . S
C270 H261 0.929 . S
C270 C262 1.378 . S
C270 C265 1.350 . S
C271 H258 0.929 . S
C271 C263 1.433 . S
C271 N273 1.384 . S
N272 C268 1.427 . S
N272 C269 1.384 . S
N273 C265 1.427 . S
N273 C271 1.384 . S
H274 C280 0.930 . S
H275 C284 0.930 . S
H276 C289 0.929 . S
H277 C287 0.929 . S
H278 C282 0.929 . S
H279 C288 0.929 . S
C280 H274 0.930 . S
C280 C281 1.367 . S
C280 C288 1.378 . S
C281 C280 1.367 . S
C281 C289 1.433 . S
C282 H278 0.929 . S
C282 C284 1.378 . S
C282 C286 1.350 . S
C283 C286 1.463 . S
C283 C288 1.350 . S
C283 N291 1.427 . S
C284 H275 0.930 . S
C284 C282 1.378 . S
C284 C285 1.367 . S
C285 C284 1.367 . S
C285 C287 1.433 . S
C286 C282 1.350 . S
C286 C283 1.463 . S
C286 N290 1.427 . S
C287 H277 0.929 . S
C287 C285 1.433 . S
C287 N290 1.384 . S
C288 H279 0.929 . S
C288 C280 1.378 . S
C288 C283 1.350 . S
C289 H276 0.929 . S
C289 C281 1.433 . S
C289 N291 1.384 . S
N290 C286 1.427 . S
N290 C287 1.384 . S
N291 C283 1.427 . S
N291 C289 1.384 . S
H292 C298 0.930 1_565 S
H293 C302 0.930 . S
H294 C307 0.929 . S
H295 C305 0.929 1_565 S
H296 C300 0.929 . S
H297 C306 0.929 1_565 S
C298 H292 0.930 1_545 S
C298 C299 1.367 . S
C298 C306 1.378 . S
C299 C298 1.367 . S
C299 C307 1.433 . S
C300 H296 0.929 . S
C300 C302 1.378 . S
C300 C304 1.350 . S
C301 C304 1.463 . S
C301 C306 1.350 . S
C301 N309 1.427 . S
C302 H293 0.930 . S
C302 C300 1.378 . S
C302 C303 1.367 . S
C303 C302 1.367 . S
C303 C305 1.433 . S
C304 C300 1.350 . S
C304 C301 1.463 . S
C304 N308 1.427 . S
C305 H295 0.929 1_545 S
C305 C303 1.433 . S
C305 N308 1.384 . S
C306 H297 0.929 1_545 S
C306 C298 1.378 . S
C306 C301 1.350 . S
C307 H294 0.929 . S
C307 C299 1.433 . S
C307 N309 1.384 . S
N308 C304 1.427 . S
N308 C305 1.384 . S
N309 C301 1.427 . S
N309 C307 1.384 . S
H310 C316 0.930 . S
H311 C320 0.930 . S
H312 C325 0.929 . S
H313 C323 0.929 . S
H314 C318 0.929 . S
H315 C324 0.929 . S
C316 H310 0.930 . S
C316 C317 1.367 . S
C316 C324 1.378 . S
C317 C316 1.367 . S
C317 C325 1.433 . S
C318 H314 0.929 . S
C318 C320 1.378 . S
C318 C322 1.350 . S
C319 C322 1.463 . S
C319 C324 1.350 . S
C319 N327 1.427 . S
C320 H311 0.930 . S
C320 C318 1.378 . S
C320 C321 1.367 . S
C321 C320 1.367 . S
C321 C323 1.433 . S
C322 C318 1.350 . S
C322 C319 1.463 . S
C322 N326 1.427 . S
C323 H313 0.929 . S
C323 C321 1.433 . S
C323 N326 1.384 . S
C324 H315 0.929 . S
C324 C316 1.378 . S
C324 C319 1.350 . S
C325 H312 0.929 . S
C325 C317 1.433 . S
C325 N327 1.384 . S
N326 C322 1.427 . S
N326 C323 1.384 . S
N327 C319 1.427 . S
N327 C325 1.384 . S
H328 C334 0.930 . S
H329 C338 0.930 . S
H330 C343 0.929 . S
H331 C341 0.929 . S
H332 C336 0.929 . S
H333 C342 0.929 . S
C334 H328 0.930 . S
C334 C335 1.367 . S
C334 C342 1.378 . S
C335 C334 1.367 . S
C335 C343 1.433 1_545 S
C336 H332 0.929 . S
C336 C338 1.378 . S
C336 C340 1.350 . S
C337 C340 1.463 1_544 S
C337 C342 1.350 . S
C337 N345 1.427 1_545 S
C338 H329 0.930 . S
C338 C336 1.378 . S
C338 C339 1.367 . S
C339 C338 1.367 . S
C339 C341 1.433 1_565 S
C340 C336 1.350 . S
C340 C337 1.463 1_566 S
C340 N344 1.427 1_565 S
C341 H331 0.929 . S
C341 C339 1.433 1_545 S
C341 N344 1.384 . S
C342 H333 0.929 . S
C342 C334 1.378 . S
C342 C337 1.350 . S
C343 H330 0.929 . S
C343 C335 1.433 1_565 S
C343 N345 1.384 . S
N344 C340 1.427 1_545 S
N344 C341 1.384 . S
N345 C337 1.427 1_565 S
N345 C343 1.384 . S
H346 C352 0.930 . S
H347 C356 0.930 . S
H348 C361 0.929 . S
H349 C359 0.929 . S
H350 C354 0.929 . S
H351 C360 0.929 . S
C352 H346 0.930 . S
C352 C353 1.367 . S
C352 C360 1.378 . S
C353 C352 1.367 . S
C353 C361 1.433 1_455 S
C354 H350 0.929 . S
C354 C356 1.378 . S
C354 C358 1.350 1_655 S
C355 C358 1.463 1_556 S
C355 C360 1.350 . S
C355 N363 1.427 1_455 S
C356 H347 0.930 . S
C356 C354 1.378 . S
C356 C357 1.367 1_655 S
C357 C356 1.367 1_455 S
C357 C359 1.433 . S
C358 C354 1.350 1_455 S
C358 C355 1.463 1_554 S
C358 N362 1.427 . S
C359 H349 0.929 . S
C359 C357 1.433 . S
C359 N362 1.384 . S
C360 H351 0.929 . S
C360 C352 1.378 . S
C360 C355 1.350 . S
C361 H348 0.929 . S
C361 C353 1.433 1_655 S
C361 N363 1.384 . S
N362 C358 1.427 . S
N362 C359 1.384 . S
N363 C355 1.427 1_655 S
N363 C361 1.384 . S
H364 C370 0.930 . S
H365 C374 0.930 . S
H366 C379 0.929 . S
H367 C377 0.929 . S
H368 C372 0.929 . S
H369 C378 0.929 . S
C370 H364 0.930 . S
C370 C371 1.367 . S
C370 C378 1.378 . S
C371 C370 1.367 . S
C371 C379 1.433 . S
C372 H368 0.929 . S
C372 C374 1.378 . S
C372 C376 1.350 . S
C373 C376 1.463 . S
C373 C378 1.350 . S
C373 N381 1.427 . S
C374 H365 0.930 . S
C374 C372 1.378 . S
C374 C375 1.367 . S
C375 C374 1.367 . S
C375 C377 1.433 . S
C376 C372 1.350 . S
C376 C373 1.463 . S
C376 N380 1.427 . S
C377 H367 0.929 . S
C377 C375 1.433 . S
C377 N380 1.384 . S
C378 H369 0.929 . S
C378 C370 1.378 . S
C378 C373 1.350 . S
C379 H366 0.929 . S
C379 C371 1.433 . S
C379 N381 1.384 . S
N380 C376 1.427 . S
N380 C377 1.384 . S
N381 C373 1.427 . S
N381 C379 1.384 . S
H382 C388 0.930 . S
H383 C392 0.930 . S
H384 C397 0.929 . S
H385 C395 0.929 . S
H386 C390 0.929 . S
H387 C396 0.929 . S
C388 H382 0.930 . S
C388 C389 1.367 1_545 S
C388 C396 1.378 . S
C389 C388 1.367 1_565 S
C389 C397 1.433 . S
C390 H386 0.929 . S
C390 C392 1.378 . S
C390 C394 1.350 1_565 S
C391 C394 1.463 1_565 S
C391 C396 1.350 1_565 S
C391 N399 1.427 . S
C392 H383 0.930 . S
C392 C390 1.378 . S
C392 C393 1.367 1_565 S
C393 C392 1.367 1_545 S
C393 C395 1.433 . S
C394 C390 1.350 1_545 S
C394 C391 1.463 1_545 S
C394 N398 1.427 . S
C395 H385 0.929 . S
C395 C393 1.433 . S
C395 N398 1.384 . S
C396 H387 0.929 . S
C396 C388 1.378 . S
C396 C391 1.350 1_545 S
C397 H384 0.929 . S
C397 C389 1.433 . S
C397 N399 1.384 . S
N398 C394 1.427 . S
N398 C395 1.384 . S
N399 C391 1.427 . S
N399 C397 1.384 . S
C119 C18 1.477 . S
C123 C4 1.476 . S
C137 C32 1.475 . S
C141 C46 1.477 . S
C155 C60 1.468 . S
C159 C74 1.470 . S
C173 C88 1.471 . S
C177 C102 1.474 . S
C191 C110 1.488 . S
C195 C12 1.483 . S
C209 C96 1.487 . S
C213 C26 1.483 . S
C227 C40 1.483 . S
C231 C82 1.486 . S
C245 C68 1.487 . S
C249 C54 1.483 . S
C263 C75 1.250 . S
C267 C33 1.225 . S
C281 C61 1.251 . S
C285 C47 1.223 . S
C299 C103 1.223 . S
C303 C5 1.251 . S
C317 C19 1.251 . S
C321 C89 1.224 . S
C335 C11 1.329 . S
C339 C39 1.332 . S
C353 C53 1.334 . S
C357 C25 1.329 . S
C371 C95 1.329 . S
C375 C67 1.335 . S
C389 C81 1.341 . S
C393 C109 1.338 . S
