# Generated by pormake.
# Topology ukt, (4)-cn, num edge types: 1
# Building blocks:
#     Node 0, Type 0, BuildingBlock: QUQFOY_clean_sbu_1, # of connection points: 4
#     Node 1, Type 0, BuildingBlock: QUQFOY_clean_sbu_1, # of connection points: 4
#     Node 2, Type 0, BuildingBlock: QUQFOY_clean_sbu_1, # of connection points: 4
#     Node 3, Type 0, BuildingBlock: QUQFOY_clean_sbu_1, # of connection points: 4
#     Node 4, Type 0, BuildingBlock: QUQFOY_clean_sbu_1, # of connection points: 4
#     Node 5, Type 0, BuildingBlock: QUQFOY_clean_sbu_1, # of connection points: 4
#     Node 6, Type 0, BuildingBlock: QUQFOY_clean_sbu_1, # of connection points: 4
#     Node 7, Type 0, BuildingBlock: QUQFOY_clean_sbu_1, # of connection points: 4
#     Node 8, Type 0, BuildingBlock: QUQFOY_clean_sbu_1, # of connection points: 4
#     Node 9, Type 0, BuildingBlock: QUQFOY_clean_sbu_1, # of connection points: 4
#     Node 10, Type 0, BuildingBlock: QUQFOY_clean_sbu_1, # of connection points: 4
#     Node 11, Type 0, BuildingBlock: QUQFOY_clean_sbu_1, # of connection points: 4
#     Node 12, Type 0, BuildingBlock: QUQFOY_clean_sbu_1, # of connection points: 4
#     Node 13, Type 0, BuildingBlock: QUQFOY_clean_sbu_1, # of connection points: 4
#     Node 14, Type 0, BuildingBlock: QUQFOY_clean_sbu_1, # of connection points: 4
#     Node 15, Type 0, BuildingBlock: QUQFOY_clean_sbu_1, # of connection points: 4
#     Edge 16, Type (0, 0), BuildingBlock: ZUJKAS_clean_linker_0, # of connection points: 2
#     Edge 17, Type (0, 0), BuildingBlock: ZUJKAS_clean_linker_0, # of connection points: 2
#     Edge 18, Type (0, 0), BuildingBlock: ZUJKAS_clean_linker_0, # of connection points: 2
#     Edge 19, Type (0, 0), BuildingBlock: ZUJKAS_clean_linker_0, # of connection points: 2
#     Edge 20, Type (0, 0), BuildingBlock: ZUJKAS_clean_linker_0, # of connection points: 2
#     Edge 21, Type (0, 0), BuildingBlock: ZUJKAS_clean_linker_0, # of connection points: 2
#     Edge 22, Type (0, 0), BuildingBlock: ZUJKAS_clean_linker_0, # of connection points: 2
#     Edge 23, Type (0, 0), BuildingBlock: ZUJKAS_clean_linker_0, # of connection points: 2
#     Edge 24, Type (0, 0), BuildingBlock: ZUJKAS_clean_linker_0, # of connection points: 2
#     Edge 25, Type (0, 0), BuildingBlock: ZUJKAS_clean_linker_0, # of connection points: 2
#     Edge 26, Type (0, 0), BuildingBlock: ZUJKAS_clean_linker_0, # of connection points: 2
#     Edge 27, Type (0, 0), BuildingBlock: ZUJKAS_clean_linker_0, # of connection points: 2
#     Edge 28, Type (0, 0), BuildingBlock: ZUJKAS_clean_linker_0, # of connection points: 2
#     Edge 29, Type (0, 0), BuildingBlock: ZUJKAS_clean_linker_0, # of connection points: 2
#     Edge 30, Type (0, 0), BuildingBlock: ZUJKAS_clean_linker_0, # of connection points: 2
#     Edge 31, Type (0, 0), BuildingBlock: ZUJKAS_clean_linker_0, # of connection points: 2
#     Edge 32, Type (0, 0), BuildingBlock: ZUJKAS_clean_linker_0, # of connection points: 2
#     Edge 33, Type (0, 0), BuildingBlock: ZUJKAS_clean_linker_0, # of connection points: 2
#     Edge 34, Type (0, 0), BuildingBlock: ZUJKAS_clean_linker_0, # of connection points: 2
#     Edge 35, Type (0, 0), BuildingBlock: ZUJKAS_clean_linker_0, # of connection points: 2
#     Edge 36, Type (0, 0), BuildingBlock: ZUJKAS_clean_linker_0, # of connection points: 2
#     Edge 37, Type (0, 0), BuildingBlock: ZUJKAS_clean_linker_0, # of connection points: 2
#     Edge 38, Type (0, 0), BuildingBlock: ZUJKAS_clean_linker_0, # of connection points: 2
#     Edge 39, Type (0, 0), BuildingBlock: ZUJKAS_clean_linker_0, # of connection points: 2
#     Edge 40, Type (0, 0), BuildingBlock: ZUJKAS_clean_linker_0, # of connection points: 2
#     Edge 41, Type (0, 0), BuildingBlock: ZUJKAS_clean_linker_0, # of connection points: 2
#     Edge 42, Type (0, 0), BuildingBlock: ZUJKAS_clean_linker_0, # of connection points: 2
#     Edge 43, Type (0, 0), BuildingBlock: ZUJKAS_clean_linker_0, # of connection points: 2
#     Edge 44, Type (0, 0), BuildingBlock: ZUJKAS_clean_linker_0, # of connection points: 2
#     Edge 45, Type (0, 0), BuildingBlock: ZUJKAS_clean_linker_0, # of connection points: 2
#     Edge 46, Type (0, 0), BuildingBlock: ZUJKAS_clean_linker_0, # of connection points: 2
#     Edge 47, Type (0, 0), BuildingBlock: ZUJKAS_clean_linker_0, # of connection points: 2
# Relax obj value: 0.131
# Max RMSD: 0.091
# Mean RMSD: 0.091
data_MOF--net-ukt--node1-QUQFOY_clean_sbu_1--edge1-ZUJKAS_clean_linker_0
_symmetry_space_group_name_H-M    P1
_symmetry_Int_Tables_number       1
_symmetry_cell_setting            triclinic
loop_
_symmetry_equiv_pos_as_xyz
'x, y, z'
_cell_length_a     56.942722
_cell_length_b     56.934542
_cell_length_c     51.683225
_cell_angle_alpha  89.995111
_cell_angle_beta   89.992558
_cell_angle_gamma 90.039726
loop_
_atom_site_label
_atom_site_type_symbol
_atom_site_fract_x
_atom_site_fract_y
_atom_site_fract_z
_atom_type_partial_charge
O0 O 0.57915 0.13282 0.04873 0.0
Cd1 Cd 0.54637 0.14733 0.04581 0.0
Cd2 Cd 0.5638 0.16943 0.0908 0.0
O3 O 0.58786 0.14227 0.08889 0.0
O4 O 0.53387 0.12838 0.01666 0.0
O5 O 0.51962 0.12611 0.05632 0.0
C6 C 0.52006 0.11823 0.03289 0.0
C7 C 0.55351 0.18288 0.13212 0.0
C8 C 0.59233 0.13085 0.06838 0.0
C9 C 0.55615 0.19791 0.04139 0.0
O10 O 0.56602 0.1958 0.06335 0.0
O11 O 0.54456 0.18097 0.03177 0.0
O12 O 0.57416 0.18603 0.12266 0.0
O13 O 0.53842 0.17157 0.11824 0.0
O14 O 0.35927 0.57245 0.05266 0.0
Cd15 Cd 0.34869 0.53822 0.04889 0.0
Cd16 Cd 0.31687 0.5568 0.08951 0.0
O17 O 0.33901 0.58547 0.0861 0.0
O18 O 0.37084 0.52845 0.02129 0.0
O19 O 0.37204 0.51367 0.06071 0.0
C20 C 0.38112 0.51518 0.03789 0.0
C21 C 0.30008 0.5505 0.13037 0.0
C22 C 0.3546 0.58853 0.06884 0.0
C23 C 0.29713 0.53886 0.03781 0.0
O24 O 0.29434 0.54929 0.05934 0.0
O25 O 0.31726 0.53177 0.03074 0.0
O26 O 0.29412 0.56794 0.116 0.0
O27 O 0.31618 0.53656 0.1218 0.0
O28 O 0.91848 0.36906 0.05587 0.0
Cd29 Cd 0.95051 0.35379 0.04946 0.0
Cd30 Cd 0.93195 0.32782 0.09426 0.0
O31 O 0.90778 0.35493 0.09382 0.0
O32 O 0.96083 0.37343 0.01979 0.0
O33 O 0.97845 0.37439 0.05778 0.0
C34 C 0.97619 0.38287 0.03475 0.0
C35 C 0.94066 0.31073 0.13446 0.0
C36 C 0.90455 0.36894 0.07503 0.0
C37 C 0.94032 0.30303 0.04219 0.0
O38 O 0.93108 0.30352 0.06458 0.0
O39 O 0.95104 0.32083 0.03326 0.0
O40 O 0.92052 0.30824 0.12355 0.0
O41 O 0.95601 0.3237 0.12287 0.0
O42 O 0.13809 0.92026 0.06516 0.0
Cd43 Cd 0.14902 0.9531 0.05401 0.0
Cd44 Cd 0.1858 0.93655 0.09284 0.0
O45 O 0.16534 0.90658 0.09165 0.0
O46 O 0.12626 0.95776 0.02537 0.0
O47 O 0.12592 0.97954 0.06061 0.0
C48 C 0.1165 0.97407 0.03871 0.0
C49 C 0.20259 0.94624 0.1328 0.0
C50 C 0.14614 0.90406 0.07947 0.0
C51 C 0.20071 0.95234 0.03882 0.0
O52 O 0.20606 0.94455 0.06109 0.0
O53 O 0.17955 0.95686 0.03288 0.0
O54 O 0.20997 0.92877 0.11926 0.0
O55 O 0.18525 0.95834 0.12376 0.0
O56 O 0.58782 0.36546 0.44291 0.0
Cd57 Cd 0.5562 0.3495 0.45031 0.0
Cd58 Cd 0.57287 0.32455 0.40492 0.0
O59 O 0.59711 0.35159 0.40442 0.0
O60 O 0.5462 0.36851 0.48056 0.0
O61 O 0.52759 0.36943 0.44312 0.0
C62 C 0.53016 0.37763 0.46625 0.0
C63 C 0.56112 0.30882 0.36506 0.0
C64 C 0.601 0.36553 0.42312 0.0
C65 C 0.56697 0.29869 0.4564 0.0
O66 O 0.5755 0.29952 0.43368 0.0
O67 O 0.55645 0.31633 0.46595 0.0
O68 O 0.58202 0.30598 0.37397 0.0
O69 O 0.54671 0.32136 0.37851 0.0
O70 O 0.13453 0.58513 0.45806 0.0
Cd71 Cd 0.14861 0.55233 0.45279 0.0
Cd72 Cd 0.16908 0.57341 0.4132 0.0
O73 O 0.14203 0.59722 0.41849 0.0
O74 O 0.12723 0.53127 0.47208 0.0
O75 O 0.12975 0.53169 0.42923 0.0
C76 C 0.11942 0.52428 0.44997 0.0
C77 C 0.18136 0.56408 0.37132 0.0
C78 C 0.13165 0.6 0.44004 0.0
C79 C 0.19859 0.55985 0.45961 0.0
O80 O 0.1961 0.57296 0.43989 0.0
O81 O 0.18177 0.5469 0.46708 0.0
O82 O 0.18527 0.5844 0.38139 0.0
O83 O 0.16947 0.54908 0.38475 0.0
O84 O 0.91246 0.13742 0.4544 0.0
Cd85 Cd 0.94512 0.15265 0.45529 0.0
Cd86 Cd 0.92578 0.17316 0.41139 0.0
O87 O 0.90324 0.14476 0.41386 0.0
O88 O 0.95931 0.1345 0.48406 0.0
O89 O 0.97163 0.13168 0.44366 0.0
C90 C 0.97244 0.12424 0.46725 0.0
C91 C 0.93661 0.18647 0.37022 0.0
C92 C 0.89932 0.13399 0.43494 0.0
C93 C 0.93409 0.20276 0.45946 0.0
O94 O 0.92267 0.19967 0.43858 0.0
O95 O 0.94731 0.18666 0.46818 0.0
O96 O 0.91562 0.18906 0.37902 0.0
O97 O 0.95164 0.17565 0.38464 0.0
O98 O 0.36355 0.914 0.45977 0.0
Cd99 Cd 0.34847 0.94661 0.46243 0.0
Cd100 Cd 0.32489 0.92756 0.41918 0.0
O101 O 0.35176 0.90321 0.42096 0.0
O102 O 0.36812 0.96021 0.49037 0.0
O103 O 0.36881 0.97343 0.45021 0.0
C104 C 0.37742 0.9738 0.47332 0.0
C105 C 0.31077 0.93824 0.3783 0.0
C106 C 0.36448 0.89988 0.4408 0.0
C107 C 0.29789 0.93713 0.46911 0.0
O108 O 0.29922 0.92662 0.44745 0.0
O109 O 0.31528 0.94868 0.47775 0.0
O110 O 0.30691 0.91778 0.38802 0.0
O111 O 0.32336 0.95275 0.39159 0.0
O112 O 0.41124 0.86394 0.95102 0.0
Cd113 Cd 0.44434 0.85048 0.95559 0.0
Cd114 Cd 0.42743 0.82566 0.91094 0.0
O115 O 0.40207 0.85165 0.91188 0.0
O116 O 0.45527 0.87057 0.98459 0.0
O117 O 0.47076 0.87232 0.94548 0.0
C118 C 0.46934 0.8807 0.96865 0.0
C119 C 0.43801 0.81052 0.87042 0.0
C120 C 0.39766 0.86424 0.93157 0.0
C121 C 0.43682 0.79948 0.96174 0.0
O122 O 0.42714 0.80034 0.9396 0.0
O123 O 0.44716 0.81737 0.971 0.0
O124 O 0.41773 0.80664 0.88051 0.0
O125 O 0.45239 0.8238 0.88304 0.0
O126 O 0.64196 0.42233 0.95383 0.0
Cd127 Cd 0.65264 0.45632 0.9594 0.0
Cd128 Cd 0.68483 0.43856 0.91816 0.0
O129 O 0.66361 0.4092 0.9215 0.0
O130 O 0.63104 0.46441 0.98821 0.0
O131 O 0.62885 0.48129 0.94989 0.0
C132 C 0.62029 0.47846 0.97281 0.0
C133 C 0.69907 0.447 0.87665 0.0
C134 C 0.64731 0.40621 0.93795 0.0
C135 C 0.70459 0.45593 0.96998 0.0
O136 O 0.70764 0.44631 0.94803 0.0
O137 O 0.68428 0.46217 0.97739 0.0
O138 O 0.70708 0.42976 0.8901 0.0
O139 O 0.68257 0.45962 0.88668 0.0
O140 O 0.08603 0.63267 0.95342 0.0
Cd141 Cd 0.05368 0.64812 0.95727 0.0
Cd142 Cd 0.07281 0.67202 0.91409 0.0
O143 O 0.0964 0.64447 0.91447 0.0
O144 O 0.04099 0.62856 0.98583 0.0
O145 O 0.02636 0.6278 0.94628 0.0
C146 C 0.0268 0.61924 0.96942 0.0
C147 C 0.06111 0.6876 0.87424 0.0
C148 C 0.09975 0.6315 0.93411 0.0
C149 C 0.06439 0.69844 0.96448 0.0
O150 O 0.07509 0.69699 0.94295 0.0
O151 O 0.05215 0.68136 0.97272 0.0
O152 O 0.08202 0.69056 0.88313 0.0
O153 O 0.04678 0.6749 0.88765 0.0
O154 O 0.8589 0.07864 0.95156 0.0
Cd155 Cd 0.84788 0.04471 0.95676 0.0
Cd156 Cd 0.8168 0.06191 0.91524 0.0
O157 O 0.83853 0.09097 0.91789 0.0
O158 O 0.86964 0.03568 0.98503 0.0
O159 O 0.87088 0.01931 0.94638 0.0
C160 C 0.87977 0.02152 0.96922 0.0
C161 C 0.8022 0.05229 0.87423 0.0
C162 C 0.85422 0.09437 0.93496 0.0
C163 C 0.79605 0.04567 0.96692 0.0
O164 O 0.79344 0.05529 0.94491 0.0
O165 O 0.81616 0.03912 0.97466 0.0
O166 O 0.79518 0.0706 0.88658 0.0
O167 O 0.81813 0.03942 0.88494 0.0
O168 O 0.4257 0.63451 0.55051 0.0
Cd169 Cd 0.45977 0.64562 0.54726 0.0
Cd170 Cd 0.44153 0.67469 0.58981 0.0
O171 O 0.41344 0.65183 0.58621 0.0
O172 O 0.4701 0.62427 0.51914 0.0
O173 O 0.48448 0.62234 0.55871 0.0
C174 C 0.48323 0.6137 0.53566 0.0
C175 C 0.44857 0.69025 0.63111 0.0
C176 C 0.41008 0.63756 0.56768 0.0
C177 C 0.45786 0.69734 0.53884 0.0
O178 O 0.44752 0.69872 0.5606 0.0
O179 O 0.46565 0.67784 0.5306 0.0
O180 O 0.43045 0.69602 0.61771 0.0
O181 O 0.46275 0.67495 0.62135 0.0
O182 O 0.8618 0.4266 0.5567 0.0
Cd183 Cd 0.85155 0.45741 0.53937 0.0
Cd184 Cd 0.81302 0.44433 0.58155 0.0
O185 O 0.83276 0.41395 0.58152 0.0
O186 O 0.87328 0.45422 0.50944 0.0
O187 O 0.87583 0.48357 0.53701 0.0
C188 C 0.88412 0.47269 0.51712 0.0
C189 C 0.79511 0.45358 0.62113 0.0
C190 C 0.85282 0.41109 0.57129 0.0
C191 C 0.79901 0.45707 0.52597 0.0
O192 O 0.79355 0.45211 0.54918 0.0
O193 O 0.82032 0.45938 0.51911 0.0
O194 O 0.78755 0.43685 0.60664 0.0
O195 O 0.81313 0.46535 0.61323 0.0
O196 O 0.07057 0.86455 0.55623 0.0
Cd197 Cd 0.03644 0.85441 0.55061 0.0
Cd198 Cd 0.05246 0.82434 0.59528 0.0
O199 O 0.08128 0.84632 0.59204 0.0
O200 O 0.02847 0.87553 0.52131 0.0
O201 O 0.01194 0.8787 0.55976 0.0
C202 C 0.01477 0.88684 0.53665 0.0
C203 C 0.0455 0.80821 0.63637 0.0
C204 C 0.08554 0.86079 0.57392 0.0
C205 C 0.03638 0.80225 0.54365 0.0
O206 O 0.04559 0.80069 0.56598 0.0
O207 O 0.03022 0.82199 0.53448 0.0
O208 O 0.06324 0.80216 0.62252 0.0
O209 O 0.0317 0.82415 0.62723 0.0
O210 O 0.6416 0.07003 0.54583 0.0
Cd211 Cd 0.65057 0.03532 0.54286 0.0
Cd212 Cd 0.681 0.05202 0.58519 0.0
O213 O 0.66028 0.08163 0.58097 0.0
O214 O 0.62838 0.02592 0.51509 0.0
O215 O 0.62595 0.01218 0.55493 0.0
C216 C 0.61718 0.01365 0.53195 0.0
C217 C 0.69557 0.04459 0.62684 0.0
C218 C 0.64599 0.08566 0.56263 0.0
C219 C 0.70237 0.0336 0.53445 0.0
O220 O 0.70455 0.04382 0.55619 0.0
O221 O 0.68233 0.02735 0.52618 0.0
O222 O 0.70287 0.06197 0.61313 0.0
O223 O 0.67939 0.03137 0.61712 0.0
H224 H 0.54499 0.20583 0.99045 0.0
H225 H 0.55775 0.23893 0.96354 0.0
H226 H 0.58996 0.27123 0.03013 0.0
H227 H 0.57755 0.23833 0.05708 0.0
H228 H 0.55074 0.28869 0.96741 0.0
H229 H 0.64424 0.26378 0.97747 0.0
H230 H 0.62047 0.24404 0.98546 0.0
H231 H 0.6296 0.26624 0.00811 0.0
C232 C 0.55451 0.22014 0.99944 0.0
C233 C 0.56052 0.2193 0.02586 0.0
C234 C 0.56183 0.23897 0.98401 0.0
C235 C 0.57527 0.25715 0.99477 0.0
C236 C 0.58007 0.25703 0.02138 0.0
H237 H 0.60904 0.39639 0.96753 0.0
H238 H 0.59022 0.35864 0.97418 0.0
C239 C 0.57284 0.23827 0.03677 0.0
C240 C 0.58497 0.27608 0.97837 0.0
H241 H 0.6366 0.30346 0.96404 0.0
C242 C 0.56952 0.29175 0.96623 0.0
C243 C 0.60947 0.27961 0.97622 0.0
C244 C 0.62693 0.26238 0.98727 0.0
C245 C 0.57795 0.31195 0.95372 0.0
C246 C 0.60237 0.31668 0.95384 0.0
C247 C 0.61786 0.29999 0.96418 0.0
C248 C 0.61199 0.33996 0.94671 0.0
C249 C 0.56058 0.32834 0.94112 0.0
C250 C 0.63079 0.34205 0.92923 0.0
C251 C 0.64191 0.36375 0.92557 0.0
C252 C 0.63454 0.3836 0.93958 0.0
C253 C 0.61526 0.38149 0.95645 0.0
C254 C 0.60422 0.35992 0.96005 0.0
H255 H 0.545 0.31855 0.93394 0.0
H256 H 0.55432 0.34125 0.95565 0.0
H257 H 0.56861 0.33805 0.92471 0.0
H258 H 0.63722 0.32677 0.91896 0.0
H259 H 0.6567 0.3648 0.91244 0.0
H260 H 0.13506 0.62521 0.89833 0.0
H261 H 0.1694 0.5994 0.90237 0.0
H262 H 0.14412 0.57549 0.97653 0.0
H263 H 0.10992 0.6005 0.97249 0.0
H264 H 0.20223 0.60308 0.9388 0.0
H265 H 0.16469 0.51433 0.94601 0.0
H266 H 0.14803 0.53887 0.9336 0.0
H267 H 0.14956 0.53338 0.96795 0.0
C268 C 0.13666 0.61412 0.91526 0.0
C269 C 0.1198 0.61501 0.93513 0.0
C270 C 0.15622 0.59933 0.91748 0.0
C271 C 0.15906 0.58509 0.93947 0.0
C272 C 0.14197 0.58567 0.95899 0.0
H273 H 0.25069 0.54396 0.04906 0.0
H274 H 0.21864 0.54971 0.01837 0.0
C275 C 0.12252 0.60031 0.95679 0.0
C276 C 0.18115 0.57204 0.94417 0.0
H277 H 0.20085 0.52114 0.97145 0.0
C278 C 0.20217 0.58489 0.94502 0.0
C279 C 0.1811 0.54824 0.9521 0.0
C280 C 0.15963 0.5329 0.94957 0.0
C281 C 0.22247 0.57536 0.9562 0.0
C282 C 0.22164 0.55242 0.96661 0.0
C283 C 0.20131 0.53882 0.96364 0.0
C284 C 0.24013 0.54417 0.98441 0.0
C285 C 0.24406 0.59057 0.95886 0.0
C286 C 0.26256 0.53824 0.97537 0.0
C287 C 0.28096 0.53482 0.99291 0.0
C288 C 0.27713 0.53756 0.01966 0.0
C289 C 0.25424 0.54193 0.02859 0.0
C290 C 0.23589 0.54512 0.0111 0.0
H291 H 0.24147 0.6084 0.95061 0.0
H292 H 0.24887 0.59235 0.97959 0.0
H293 H 0.25905 0.58215 0.94876 0.0
H294 H 0.26606 0.53739 0.95479 0.0
H295 H 0.2984 0.53145 0.98543 0.0
H296 H 0.89084 0.10528 0.96656 0.0
H297 H 0.90843 0.14358 0.97383 0.0
H298 H 0.86434 0.17353 0.91455 0.0
H299 H 0.84606 0.13499 0.90741 0.0
H300 H 0.93192 0.17647 0.94326 0.0
H301 H 0.84614 0.21015 0.97973 0.0
H302 H 0.85106 0.17937 0.97364 0.0
H303 H 0.84675 0.19926 0.9471 0.0
C304 C 0.88492 0.1199 0.95484 0.0
C305 C 0.86669 0.11714 0.93671 0.0
C306 C 0.89516 0.14179 0.95892 0.0
C307 C 0.88746 0.16144 0.945 0.0
C308 C 0.87026 0.1586 0.92578 0.0
H309 H 0.94951 0.29812 0.99027 0.0
H310 H 0.93827 0.26512 0.96237 0.0
C311 C 0.85989 0.13659 0.92168 0.0
C312 C 0.89609 0.18493 0.95277 0.0
H313 H 0.87915 0.23379 0.98609 0.0
C314 C 0.92038 0.18929 0.95216 0.0
C315 C 0.88094 0.20145 0.96458 0.0
C316 C 0.85479 0.1974 0.96654 0.0
C317 C 0.93004 0.20918 0.96422 0.0
C318 C 0.91495 0.2251 0.97695 0.0
C319 C 0.8906 0.22143 0.97629 0.0
C320 C 0.92397 0.2442 0.99356 0.0
C321 C 0.95634 0.21233 0.96468 0.0
C322 C 0.9199 0.24315 0.02028 0.0
C323 C 0.92619 0.26187 0.0362 0.0
C324 C 0.93664 0.28211 0.02568 0.0
C325 C 0.94157 0.28275 0.99898 0.0
C326 C 0.93518 0.26394 0.98301 0.0
H327 H 0.96573 0.19699 0.95636 0.0
H328 H 0.96113 0.22817 0.95333 0.0
H329 H 0.9625 0.2151 0.98484 0.0
H330 H 0.91133 0.22799 0.02876 0.0
H331 H 0.92224 0.26071 0.05666 0.0
H332 H 0.38381 0.89237 0.97119 0.0
H333 H 0.34803 0.9152 0.97474 0.0
H334 H 0.32763 0.89394 0.89784 0.0
H335 H 0.36357 0.87029 0.89425 0.0
H336 H 0.32951 0.95193 0.94581 0.0
H337 H 0.27233 0.87231 0.94216 0.0
H338 H 0.30373 0.87007 0.94595 0.0
H339 H 0.29144 0.87786 0.91515 0.0
C340 C 0.37185 0.89251 0.9549 0.0
C341 C 0.37644 0.87921 0.93254 0.0
C342 C 0.35142 0.90575 0.95692 0.0
C343 C 0.33507 0.90611 0.93667 0.0
C344 C 0.33989 0.89361 0.91385 0.0
H345 H 0.19527 0.95215 0.9862 0.0
H346 H 0.22623 0.94682 0.95376 0.0
C347 C 0.36042 0.88016 0.91182 0.0
C348 C 0.3125 0.9184 0.9409 0.0
H349 H 0.25564 0.907 0.9574 0.0
C350 C 0.31316 0.94228 0.94768 0.0
C351 C 0.29115 0.90582 0.94311 0.0
C352 C 0.28945 0.88008 0.93636 0.0
C353 C 0.29361 0.95335 0.95878 0.0
C354 C 0.27301 0.94015 0.96322 0.0
C355 C 0.27156 0.91701 0.95402 0.0
C356 C 0.25469 0.94819 0.98142 0.0
C357 C 0.29559 0.97867 0.96703 0.0
C358 C 0.26053 0.95111 0.0076 0.0
C359 C 0.24296 0.95383 0.02614 0.0
C360 C 0.21921 0.95378 0.01884 0.0
C361 C 0.21344 0.95236 0.9924 0.0
C362 C 0.23106 0.94932 0.97384 0.0
H363 H 0.30851 0.9883 0.95489 0.0
H364 H 0.27835 0.98772 0.96587 0.0
H365 H 0.30179 0.97941 0.98738 0.0
H366 H 0.27862 0.94981 0.01392 0.0
H367 H 0.24796 0.95495 0.04633 0.0
H368 H 0.58662 0.25727 0.44124 0.0
H369 H 0.59683 0.22375 0.46831 0.0
H370 H 0.56726 0.25847 0.53489 0.0
H371 H 0.55672 0.29225 0.50785 0.0
H372 H 0.6271 0.22724 0.51281 0.0
H373 H 0.53874 0.19073 0.53603 0.0
H374 H 0.54351 0.21011 0.50887 0.0
H375 H 0.54359 0.22164 0.54115 0.0
C376 C 0.58201 0.25775 0.46157 0.0
C377 C 0.57092 0.2775 0.47239 0.0
C378 C 0.58791 0.23858 0.47701 0.0
C379 C 0.58278 0.23869 0.50354 0.0
C380 C 0.57115 0.25802 0.51438 0.0
H381 H 0.65382 0.12579 0.59113 0.0
H382 H 0.63717 0.16492 0.58325 0.0
C383 C 0.56518 0.27728 0.4989 0.0
C384 C 0.5908 0.21885 0.51969 0.0
H385 H 0.57157 0.16946 0.55048 0.0
C386 C 0.61503 0.21476 0.52147 0.0
C387 C 0.5749 0.20276 0.53092 0.0
C388 C 0.5487 0.20631 0.52915 0.0
C389 C 0.62383 0.19428 0.53294 0.0
C390 C 0.6079 0.17766 0.54327 0.0
C391 C 0.58369 0.18236 0.54271 0.0
C392 C 0.61579 0.15389 0.55083 0.0
C393 C 0.64997 0.18986 0.53234 0.0
C394 C 0.60858 0.13469 0.53585 0.0
C395 C 0.61792 0.11247 0.54031 0.0
C396 C 0.6347 0.10893 0.5599 0.0
C397 C 0.64109 0.12798 0.57575 0.0
C398 C 0.63166 0.15033 0.57125 0.0
H399 H 0.65944 0.20289 0.52019 0.0
H400 H 0.65708 0.19096 0.55229 0.0
H401 H 0.65374 0.172 0.52477 0.0
H402 H 0.59636 0.13707 0.52 0.0
H403 H 0.61238 0.09818 0.52789 0.0
H404 H 0.39861 0.60503 0.53125 0.0
H405 H 0.36049 0.58733 0.52328 0.0
H406 H 0.33212 0.62275 0.5901 0.0
H407 H 0.37044 0.6412 0.598 0.0
H408 H 0.32987 0.55921 0.55136 0.0
H409 H 0.29184 0.64747 0.53071 0.0
H410 H 0.32299 0.64302 0.53446 0.0
H411 H 0.30417 0.64313 0.56235 0.0
C412 C 0.38439 0.60901 0.54446 0.0
C413 C 0.38749 0.62491 0.56501 0.0
C414 C 0.3626 0.5987 0.53994 0.0
C415 C 0.34341 0.60398 0.55587 0.0
C416 C 0.34666 0.61877 0.57733 0.0
H417 H 0.20667 0.54325 0.50871 0.0
H418 H 0.2408 0.55166 0.53618 0.0
C419 C 0.36855 0.62924 0.58184 0.0
C420 C 0.31985 0.59557 0.54812 0.0
H421 H 0.26887 0.61475 0.52069 0.0
C422 C 0.31628 0.57129 0.54511 0.0
C423 C 0.3023 0.61144 0.53981 0.0
C424 C 0.30543 0.63772 0.54177 0.0
C425 C 0.29613 0.56253 0.53274 0.0
C426 C 0.27914 0.57849 0.52347 0.0
C427 C 0.28206 0.60263 0.52783 0.0
C428 C 0.25954 0.57102 0.50665 0.0
C429 C 0.2938 0.53646 0.52823 0.0
C430 C 0.25902 0.57884 0.48094 0.0
C431 C 0.23964 0.5742 0.46531 0.0
C432 C 0.22034 0.56164 0.47511 0.0
C433 C 0.22132 0.55289 0.50057 0.0
C434 C 0.24078 0.55765 0.51628 0.0
H435 H 0.30988 0.52671 0.53396 0.0
H436 H 0.27881 0.52958 0.53968 0.0
H437 H 0.2901 0.53289 0.5075 0.0
H438 H 0.27341 0.58911 0.47315 0.0
H439 H 0.23952 0.58108 0.44577 0.0
H440 H 0.89985 0.40331 0.57205 0.0
H441 H 0.91959 0.36626 0.56208 0.0
H442 H 0.8527 0.33066 0.56173 0.0
H443 H 0.83296 0.36752 0.57281 0.0
H444 H 0.88907 0.3018 0.57819 0.0
H445 H 0.91186 0.34794 0.48671 0.0
H446 H 0.92351 0.36134 0.51538 0.0
H447 H 0.89226 0.36041 0.51036 0.0
C448 C 0.88947 0.38739 0.57073 0.0
C449 C 0.86488 0.38826 0.57282 0.0
C450 C 0.90074 0.3663 0.56488 0.0
C451 C 0.88751 0.34594 0.56032 0.0
C452 C 0.8632 0.34626 0.56497 0.0
H453 H 0.904 0.23865 0.44862 0.0
H454 H 0.89535 0.27291 0.47514 0.0
C455 C 0.85194 0.3673 0.57135 0.0
C456 C 0.89829 0.32542 0.54732 0.0
H457 H 0.92363 0.30867 0.49038 0.0
C458 C 0.89684 0.30326 0.5591 0.0
C459 C 0.90809 0.32742 0.52221 0.0
C460 C 0.90888 0.35049 0.50777 0.0
C461 C 0.90453 0.28293 0.54622 0.0
C462 C 0.91428 0.28499 0.52112 0.0
C463 C 0.9163 0.30722 0.50969 0.0
C464 C 0.92034 0.26423 0.50521 0.0
C465 C 0.90114 0.25936 0.55904 0.0
C466 C 0.93762 0.24819 0.51308 0.0
C467 C 0.94256 0.22842 0.49795 0.0
C468 C 0.93044 0.22453 0.47459 0.0
C469 C 0.91368 0.24106 0.46647 0.0
C470 C 0.90868 0.26067 0.48163 0.0
H471 H 0.88905 0.26042 0.57588 0.0
H472 H 0.89405 0.24634 0.54508 0.0
H473 H 0.91835 0.25282 0.56606 0.0
H474 H 0.94721 0.25091 0.53092 0.0
H475 H 0.95567 0.21607 0.50469 0.0
H476 H 0.1251 0.85341 0.60342 0.0
H477 H 0.16389 0.87138 0.5973 0.0
H478 H 0.13639 0.91316 0.53462 0.0
H479 H 0.09787 0.89584 0.54082 0.0
H480 H 0.18941 0.86671 0.55404 0.0
H481 H 0.17591 0.96122 0.57143 0.0
H482 H 0.15523 0.93926 0.58235 0.0
H483 H 0.15396 0.95033 0.54969 0.0
C484 C 0.12725 0.86679 0.58871 0.0
C485 C 0.10843 0.87305 0.57249 0.0
C486 C 0.14938 0.87707 0.58528 0.0
C487 C 0.15294 0.89392 0.56581 0.0
C488 C 0.13396 0.90072 0.55025 0.0
H489 H 0.25734 0.91463 0.45596 0.0
H490 H 0.22414 0.90544 0.48393 0.0
C491 C 0.11195 0.89051 0.55362 0.0
C492 C 0.17684 0.90212 0.55904 0.0
H493 H 0.20689 0.95121 0.54037 0.0
C494 C 0.19346 0.88521 0.55171 0.0
C495 C 0.18232 0.92626 0.55631 0.0
C496 C 0.16595 0.94527 0.56566 0.0
C497 C 0.21454 0.89173 0.53972 0.0
C498 C 0.21887 0.91573 0.53458 0.0
C499 C 0.20325 0.93278 0.54387 0.0
C500 C 0.23836 0.92307 0.51754 0.0
C501 C 0.23159 0.8728 0.53173 0.0
C502 C 0.25684 0.93694 0.52692 0.0
C503 C 0.27591 0.94236 0.5109 0.0
C504 C 0.27664 0.93406 0.48524 0.0
C505 C 0.25748 0.92112 0.47566 0.0
C506 C 0.23853 0.91574 0.49165 0.0
H507 H 0.22934 0.85667 0.54358 0.0
H508 H 0.22836 0.86806 0.51121 0.0
H509 H 0.25004 0.87895 0.53353 0.0
H510 H 0.25684 0.94294 0.54681 0.0
H511 H 0.29035 0.95242 0.51885 0.0
H512 H 0.44713 0.79348 0.01325 0.0
H513 H 0.43701 0.75959 0.04038 0.0
H514 H 0.40979 0.7235 0.97345 0.0
H515 H 0.4196 0.7571 0.94631 0.0
H516 H 0.37805 0.72822 0.01691 0.0
H517 H 0.46536 0.6915 0.04403 0.0
H518 H 0.46064 0.72261 0.04772 0.0
H519 H 0.46149 0.71001 0.01596 0.0
C520 C 0.43939 0.77814 0.00424 0.0
C521 C 0.43402 0.77805 0.97764 0.0
C522 C 0.43365 0.75882 0.01977 0.0
C523 C 0.42266 0.73913 0.00886 0.0
C524 C 0.41822 0.73861 0.98219 0.0
H525 H 0.39029 0.59934 0.03587 0.0
H526 H 0.40764 0.63765 0.02782 0.0
C527 C 0.42387 0.75784 0.96672 0.0
C528 C 0.41406 0.71961 0.02513 0.0
H529 H 0.4319 0.67066 0.05768 0.0
C530 C 0.38975 0.71579 0.02623 0.0
C531 C 0.42947 0.70359 0.03721 0.0
C532 C 0.45573 0.70691 0.0362 0.0
C533 C 0.38041 0.69562 0.03788 0.0
C534 C 0.39585 0.67907 0.04915 0.0
C535 C 0.42013 0.6835 0.0492 0.0
C536 C 0.38742 0.6556 0.05721 0.0
C537 C 0.35424 0.69147 0.03649 0.0
C538 C 0.37071 0.65284 0.07698 0.0
C539 C 0.36048 0.63084 0.08153 0.0
C540 C 0.36693 0.61133 0.06642 0.0
C541 C 0.38466 0.61401 0.04769 0.0
C542 C 0.39477 0.6359 0.04315 0.0
H543 H 0.34533 0.70419 0.02347 0.0
H544 H 0.35045 0.67342 0.02949 0.0
H545 H 0.34654 0.69333 0.0561 0.0
H546 H 0.36508 0.66781 0.08831 0.0
H547 H 0.34705 0.62931 0.09627 0.0
H548 H 0.7512 0.4515 0.95889 0.0
H549 H 0.78323 0.44595 0.9897 0.0
H550 H 0.73534 0.45677 0.05317 0.0
H551 H 0.70305 0.46256 0.02246 0.0
H552 H 0.79883 0.47563 0.0394 0.0
H553 H 0.76302 0.38531 0.05412 0.0
H554 H 0.75639 0.40152 0.025 0.0
H555 H 0.74385 0.41048 0.05522 0.0
C556 C 0.74754 0.45325 0.97936 0.0
C557 C 0.72454 0.4572 0.98823 0.0
C558 C 0.76587 0.45017 0.99692 0.0
C559 C 0.76151 0.45083 0.0236 0.0
C560 C 0.73894 0.45624 0.03259 0.0
H561 H 0.86777 0.37166 0.10957 0.0
H562 H 0.83235 0.39595 0.10552 0.0
C563 C 0.72057 0.45955 0.01501 0.0
C564 C 0.78005 0.44287 0.04146 0.0
H565 H 0.80166 0.39232 0.06743 0.0
C566 C 0.79928 0.4576 0.04618 0.0
C567 C 0.78035 0.41947 0.05056 0.0
C568 C 0.75987 0.40313 0.04607 0.0
C569 C 0.81959 0.44899 0.05827 0.0
C570 C 0.82083 0.42489 0.06493 0.0
C571 C 0.80078 0.41075 0.06222 0.0
C572 C 0.84352 0.41308 0.07019 0.0
C573 C 0.83981 0.46559 0.06286 0.0
C574 C 0.86152 0.41469 0.05177 0.0
C575 C 0.88161 0.40095 0.05401 0.0
C576 C 0.88409 0.38495 0.07456 0.0
C577 C 0.86638 0.38379 0.09351 0.0
C578 C 0.84619 0.3977 0.09126 0.0
H579 H 0.83329 0.48353 0.06732 0.0
H580 H 0.85119 0.45957 0.07899 0.0
H581 H 0.85056 0.46682 0.04499 0.0
H582 H 0.8596 0.42579 0.03488 0.0
H583 H 0.89486 0.40237 0.03905 0.0
H584 H 0.04533 0.70789 0.01223 0.0
H585 H 0.05245 0.7425 0.03938 0.0
H586 H 0.09807 0.77108 0.98066 0.0
H587 H 0.09079 0.73707 0.95334 0.0
H588 H 0.09444 0.75884 0.0593 0.0
H589 H 0.05467 0.82576 0.99562 0.0
H590 H 0.04946 0.79472 0.99134 0.0
H591 H 0.07555 0.8082 0.97832 0.0
C592 C 0.05664 0.72169 0.00498 0.0
C593 C 0.06738 0.71976 0.98053 0.0
C594 C 0.06074 0.7414 0.02055 0.0
C595 C 0.07549 0.75949 0.01184 0.0
C596 C 0.08618 0.75758 0.98749 0.0
H597 H 0.16492 0.86002 0.0801 0.0
H598 H 0.14435 0.82354 0.06958 0.0
C599 C 0.08207 0.73802 0.97194 0.0
C600 C 0.08067 0.7801 0.02833 0.0
H601 H 0.08361 0.83977 0.02597 0.0
C602 C 0.09169 0.77659 0.05233 0.0
C603 C 0.07658 0.80322 0.0195 0.0
C604 C 0.06318 0.80821 0.99491 0.0
C605 C 0.10013 0.79564 0.06692 0.0
C606 C 0.09795 0.81866 0.05687 0.0
C607 C 0.08558 0.82215 0.03366 0.0
C608 C 0.1097 0.83932 0.06871 0.0
C609 C 0.11146 0.79082 0.09274 0.0
C610 C 0.09716 0.86032 0.07207 0.0
C611 C 0.10899 0.88123 0.07732 0.0
C612 C 0.13355 0.88147 0.07978 0.0
C613 C 0.14595 0.86021 0.07858 0.0
C614 C 0.13414 0.83932 0.07272 0.0
H615 H 0.10387 0.77486 0.10187 0.0
H616 H 0.13049 0.78758 0.08983 0.0
H617 H 0.10934 0.80585 0.10623 0.0
H618 H 0.07832 0.86078 0.06913 0.0
H619 H 0.09904 0.89743 0.07826 0.0
H620 H 0.625 0.12104 0.10619 0.0
H621 H 0.66078 0.09735 0.10155 0.0
H622 H 0.64275 0.08306 0.02202 0.0
H623 H 0.60705 0.10591 0.02658 0.0
H624 H 0.66004 0.04398 0.04712 0.0
H625 H 0.7177 0.12205 0.06243 0.0
H626 H 0.69776 0.1144 0.08804 0.0
H627 H 0.68646 0.12491 0.05774 0.0
C628 C 0.62862 0.11268 0.0878 0.0
C629 C 0.6133 0.1156 0.06668 0.0
C630 C 0.64907 0.09922 0.08518 0.0
C631 C 0.65455 0.08872 0.06134 0.0
C632 C 0.63886 0.09097 0.0406 0.0
H633 H 0.74971 0.04716 0.95407 0.0
H634 H 0.71643 0.05146 0.98343 0.0
C635 C 0.61847 0.1042 0.04323 0.0
C636 C 0.67716 0.07659 0.0568 0.0
H637 H 0.73508 0.08821 0.04576 0.0
C638 C 0.67658 0.05344 0.04741 0.0
C639 C 0.69874 0.08893 0.05734 0.0
C640 C 0.70037 0.11398 0.06677 0.0
C641 C 0.69662 0.04299 0.03668 0.0
C642 C 0.71766 0.05604 0.03533 0.0
C643 C 0.71882 0.07832 0.04684 0.0
C644 C 0.73725 0.04889 0.01835 0.0
C645 C 0.69485 0.01855 0.02562 0.0
C646 C 0.75992 0.04573 0.02831 0.0
C647 C 0.77902 0.04312 0.01153 0.0
C648 C 0.77571 0.04419 0.98457 0.0
C649 C 0.75282 0.04633 0.97473 0.0
C650 C 0.73376 0.0486 0.99148 0.0
H651 H 0.68056 0.00837 0.03504 0.0
H652 H 0.69082 0.01973 0.00465 0.0
H653 H 0.71166 0.00887 0.02791 0.0
H654 H 0.76294 0.04618 0.049 0.0
H655 H 0.79648 0.04161 0.01967 0.0
H656 H 0.45151 0.74295 0.55302 0.0
H657 H 0.44486 0.77644 0.52448 0.0
H658 H 0.45786 0.73276 0.45789 0.0
H659 H 0.46471 0.69898 0.48637 0.0
H660 H 0.47332 0.79706 0.47891 0.0
H661 H 0.38652 0.7568 0.4552 0.0
H662 H 0.40259 0.74812 0.48374 0.0
H663 H 0.4129 0.73952 0.45237 0.0
C664 C 0.45346 0.74053 0.53234 0.0
C665 C 0.45836 0.71827 0.52193 0.0
C666 C 0.44975 0.7597 0.51608 0.0
C667 C 0.45069 0.75693 0.48916 0.0
C668 C 0.45702 0.73514 0.47866 0.0
H669 H 0.37134 0.86482 0.4049 0.0
H670 H 0.39654 0.83008 0.4094 0.0
C671 C 0.46097 0.71592 0.49497 0.0
C672 C 0.44227 0.77627 0.47259 0.0
H673 H 0.39178 0.79647 0.44506 0.0
C674 C 0.45572 0.79682 0.47088 0.0
C675 C 0.41941 0.77574 0.46194 0.0
C676 C 0.40436 0.75394 0.46332 0.0
C677 C 0.44629 0.81741 0.46021 0.0
C678 C 0.42262 0.81751 0.45184 0.0
C679 C 0.40987 0.79641 0.45161 0.0
C680 C 0.40963 0.83967 0.44728 0.0
C681 C 0.46152 0.83907 0.4589 0.0
C682 C 0.40852 0.85643 0.46711 0.0
C683 C 0.39424 0.87613 0.46464 0.0
C684 C 0.38043 0.87942 0.44237 0.0
C685 C 0.38175 0.86279 0.42229 0.0
C686 C 0.39619 0.843 0.42479 0.0
H687 H 0.48022 0.83426 0.45582 0.0
H688 H 0.45589 0.85104 0.44312 0.0
H689 H 0.46041 0.84863 0.47757 0.0
H690 H 0.41808 0.85388 0.48501 0.0
H691 H 0.39365 0.88851 0.48054 0.0
H692 H 0.75171 0.45904 0.534 0.0
H693 H 0.72082 0.45191 0.5023 0.0
H694 H 0.77252 0.44841 0.44147 0.0
H695 H 0.80376 0.45548 0.47316 0.0
H696 H 0.7075 0.47346 0.45189 0.0
H697 H 0.74133 0.38162 0.4456 0.0
H698 H 0.75003 0.401 0.47151 0.0
H699 H 0.76119 0.40559 0.43945 0.0
C700 C 0.75655 0.45724 0.51383 0.0
C701 C 0.78024 0.45745 0.50618 0.0
C702 C 0.73884 0.45327 0.49571 0.0
C703 C 0.74448 0.44935 0.46967 0.0
C704 C 0.76791 0.45122 0.46157 0.0
H705 H 0.63738 0.3671 0.38805 0.0
H706 H 0.67295 0.39137 0.39073 0.0
C707 C 0.78569 0.45532 0.4797 0.0
C708 C 0.72599 0.44049 0.45215 0.0
H709 H 0.70373 0.38879 0.42963 0.0
C710 C 0.70687 0.45509 0.44638 0.0
C711 C 0.72537 0.41658 0.44477 0.0
C712 C 0.74547 0.40014 0.45064 0.0
C713 C 0.68644 0.44599 0.43498 0.0
C714 C 0.68496 0.4216 0.42994 0.0
C715 C 0.70485 0.40746 0.43361 0.0
C716 C 0.66216 0.40973 0.42542 0.0
C717 C 0.6663 0.46243 0.42947 0.0
C718 C 0.64431 0.41206 0.44393 0.0
C719 C 0.62416 0.39828 0.44252 0.0
C720 C 0.62144 0.3816 0.42268 0.0
C721 C 0.63895 0.37978 0.40357 0.0
C722 C 0.65924 0.39366 0.40503 0.0
H723 H 0.67287 0.48017 0.42416 0.0
H724 H 0.65498 0.45576 0.41358 0.0
H725 H 0.65545 0.46437 0.44718 0.0
H726 H 0.64643 0.42377 0.46028 0.0
H727 H 0.61103 0.40023 0.45754 0.0
H728 H 0.11773 0.63342 0.40493 0.0
H729 H 0.09288 0.66778 0.4131 0.0
H730 H 0.08628 0.64738 0.49315 0.0
H731 H 0.11048 0.61291 0.48512 0.0
H732 H 0.04406 0.66227 0.47174 0.0
H733 H 0.11644 0.72565 0.45154 0.0
H734 H 0.10904 0.70561 0.42596 0.0
H735 H 0.12171 0.69462 0.45538 0.0
C736 C 0.11093 0.63625 0.42425 0.0
C737 C 0.11627 0.62055 0.44444 0.0
C738 C 0.09678 0.6559 0.42888 0.0
C739 C 0.088 0.66026 0.45379 0.0
C740 C 0.09286 0.64432 0.47376 0.0
H741 H 0.03898 0.75668 0.55938 0.0
H742 H 0.04544 0.72228 0.53228 0.0
C743 C 0.10682 0.62467 0.46915 0.0
C744 C 0.0746 0.68185 0.4598 0.0
H745 H 0.0814 0.74091 0.46794 0.0
C746 C 0.05204 0.67954 0.4705 0.0
C747 C 0.085 0.70436 0.458 0.0
C748 C 0.10943 0.70785 0.44728 0.0
C749 C 0.04013 0.69899 0.48074 0.0
C750 C 0.05118 0.7212 0.48041 0.0
C751 C 0.07298 0.72381 0.46809 0.0
C752 C 0.0424 0.7411 0.49604 0.0
C753 C 0.01621 0.69547 0.49263 0.0
C754 C 0.03819 0.76307 0.48464 0.0
C755 C 0.03446 0.78286 0.50015 0.0
C756 C 0.03536 0.78099 0.52728 0.0
C757 C 0.03827 0.75872 0.53855 0.0
C758 C 0.04176 0.73897 0.52307 0.0
H759 H 0.00703 0.68019 0.48386 0.0
H760 H 0.01825 0.69191 0.51362 0.0
H761 H 0.00509 0.71134 0.49029 0.0
H762 H 0.03884 0.76507 0.46381 0.0
H763 H 0.03235 0.7998 0.4909 0.0
H764 H 0.70324 0.028 0.48184 0.0
H765 H 0.7371 0.03399 0.45332 0.0
H766 H 0.78193 0.04199 0.51999 0.0
H767 H 0.74839 0.03606 0.5485 0.0
H768 H 0.7606 0.07679 0.45574 0.0
H769 H 0.82331 0.00415 0.47052 0.0
H770 H 0.79241 0.00151 0.47804 0.0
H771 H 0.81224 0.01511 0.50069 0.0
C772 C 0.72046 0.03025 0.49041 0.0
C773 C 0.72314 0.03179 0.51742 0.0
C774 C 0.73975 0.03369 0.47407 0.0
C775 C 0.76203 0.03823 0.48454 0.0
C776 C 0.765 0.03805 0.51148 0.0
H777 H 0.8853 0.11064 0.47818 0.0
H778 H 0.85195 0.0844 0.48314 0.0
C779 C 0.74574 0.03486 0.52778 0.0
C780 C 0.78129 0.04721 0.46807 0.0
H781 H 0.84036 0.04207 0.45918 0.0
C782 C 0.77793 0.06891 0.45571 0.0
C783 C 0.80379 0.03682 0.46807 0.0
C784 C 0.80811 0.01298 0.47983 0.0
C785 C 0.79697 0.08162 0.44566 0.0
C786 C 0.81982 0.07206 0.44758 0.0
C787 C 0.82283 0.04943 0.45788 0.0
C788 C 0.84095 0.08667 0.44314 0.0
C789 C 0.79271 0.10599 0.43514 0.0
C790 C 0.84601 0.09652 0.41886 0.0
C791 C 0.86507 0.11187 0.41597 0.0
C792 C 0.87942 0.1174 0.4373 0.0
C793 C 0.8746 0.1069 0.46134 0.0
C794 C 0.85558 0.09175 0.46421 0.0
H795 H 0.7744 0.11201 0.43844 0.0
H796 H 0.80488 0.1188 0.44426 0.0
H797 H 0.79605 0.10609 0.41399 0.0
H798 H 0.83512 0.09253 0.40226 0.0
H799 H 0.86847 0.11949 0.39713 0.0
H800 H 0.47384 0.89913 0.01697 0.0
H801 H 0.48275 0.93989 0.02792 0.0
H802 H 0.49734 0.95469 0.94769 0.0
H803 H 0.48866 0.91374 0.93653 0.0
H804 H 0.52817 0.9773 0.98392 0.0
H805 H 0.43401 0.99058 0.00802 0.0
H806 H 0.44794 0.96691 0.02511 0.0
H807 H 0.44443 0.96516 0.9906 0.0
C808 C 0.47946 0.9109 0.00171 0.0
C809 C 0.48029 0.9033 0.97583 0.0
C810 C 0.48436 0.93422 0.00799 0.0
C811 C 0.49001 0.95038 0.9885 0.0
C812 C 0.49273 0.94247 0.96295 0.0
H813 H 0.51415 0.10054 0.98439 0.0
H814 H 0.50463 0.05999 0.97312 0.0
C815 C 0.48791 0.91906 0.95663 0.0
C816 C 0.49169 0.97571 0.99459 0.0
H817 H 0.45975 0.02231 0.0169 0.0
C818 C 0.51322 0.98719 0.99102 0.0
C819 C 0.47208 0.98852 0.00381 0.0
C820 C 0.44823 0.97727 0.00692 0.0
C821 C 0.51582 0.0111 0.99697 0.0
C822 C 0.49622 0.02388 0.00624 0.0
C823 C 0.47468 0.01242 0.00977 0.0
C824 C 0.49799 0.04916 0.01256 0.0
C825 C 0.53965 0.02238 0.9938 0.0
C826 C 0.49582 0.05681 0.03826 0.0
C827 C 0.50101 0.0801 0.04477 0.0
C828 C 0.50847 0.09597 0.02562 0.0
C829 C 0.50866 0.08867 0.99962 0.0
C830 C 0.50341 0.06547 0.99315 0.0
H831 H 0.55387 0.00909 0.99233 0.0
H832 H 0.53979 0.03301 0.97581 0.0
H833 H 0.54357 0.03425 0.01029 0.0
H834 H 0.49141 0.04446 0.05346 0.0
H835 H 0.50074 0.08518 0.06496 0.0
H836 H 0.40042 0.51006 0.99017 0.0
H837 H 0.44145 0.50217 0.98016 0.0
H838 H 0.45562 0.49014 0.06106 0.0
H839 H 0.41438 0.49835 0.07135 0.0
H840 H 0.48423 0.52434 0.03841 0.0
H841 H 0.48271 0.44382 0.97818 0.0
H842 H 0.4623 0.46578 0.9675 0.0
H843 H 0.45844 0.45226 0.99867 0.0
C844 C 0.41209 0.50511 0.00579 0.0
C845 C 0.40421 0.50492 0.03157 0.0
C846 C 0.43555 0.5005 1.0 0.0
C847 C 0.45154 0.49548 0.01985 0.0
C848 C 0.44348 0.49393 0.04547 0.0
H849 H 0.60221 0.48129 0.02135 0.0
H850 H 0.56132 0.48829 0.03304 0.0
C851 C 0.41991 0.49846 0.0513 0.0
C852 C 0.47696 0.49453 0.014 0.0
H853 H 0.51766 0.467 0.97629 0.0
C854 C 0.49162 0.51165 0.02505 0.0
C855 C 0.48644 0.47813 0.99634 0.0
C856 C 0.4717 0.45882 0.98466 0.0
C857 C 0.51549 0.5131 0.01848 0.0
C858 C 0.5249 0.49684 0.00064 0.0
C859 C 0.51028 0.47963 0.98973 0.0
C860 C 0.55016 0.49642 0.99405 0.0
C861 C 0.53032 0.53228 0.03026 0.0
C862 C 0.55753 0.49916 0.9683 0.0
C863 C 0.58099 0.49522 0.96152 0.0
C864 C 0.59727 0.48814 0.9804 0.0
C865 C 0.59006 0.48674 0.00638 0.0
C866 C 0.56671 0.4908 0.01313 0.0
H867 H 0.51938 0.54685 0.03794 0.0
H868 H 0.54063 0.5249 0.04657 0.0
H869 H 0.54286 0.53954 0.01586 0.0
H870 H 0.54494 0.50343 0.9533 0.0
H871 H 0.58599 0.49626 0.94134 0.0
H872 H 0.00685 0.5873 0.93647 0.0
H873 H 0.99627 0.54667 0.94696 0.0
H874 H 0.01038 0.56011 0.0276 0.0
H875 H 0.02062 0.60061 0.01739 0.0
H876 H 0.02914 0.51632 0.9685 0.0
H877 H 0.95031 0.52164 0.03109 0.0
H878 H 0.95959 0.54561 0.01061 0.0
H879 H 0.97358 0.54075 0.04135 0.0
C880 C 0.00687 0.58183 0.95654 0.0
C881 C 0.01465 0.59712 0.97609 0.0
C882 C 0.00099 0.55857 0.96248 0.0
C883 C 0.00252 0.5504 0.98806 0.0
C884 C 0.00873 0.5661 0.0078 0.0
H885 H 0.99741 0.41558 0.06569 0.0
H886 H 0.00697 0.45613 0.05369 0.0
C887 C 0.01465 0.58927 0.00189 0.0
C888 C 0.00039 0.52501 0.99385 0.0
H889 H 0.97158 0.4855 0.03204 0.0
C890 C 0.0164 0.50952 0.98218 0.0
C891 C 0.98393 0.51626 0.01192 0.0
C892 C 0.96573 0.53189 0.02429 0.0
C893 C 0.01668 0.48554 0.98849 0.0
C894 C 0.00037 0.47685 0.00673 0.0
C895 C 0.98427 0.4923 0.01828 0.0
C896 C -0.00128 0.45157 0.01314 0.0
C897 C 0.03472 0.46979 0.976 0.0
C898 C 0.9917 0.43547 0.99414 0.0
C899 C 0.98628 0.41237 0.00091 0.0
C900 C 0.98771 0.40498 0.02683 0.0
C901 C 0.99632 0.42069 0.04554 0.0
C902 C 0.0016 0.44389 0.03876 0.0
H903 H 0.04966 0.48001 0.96795 0.0
H904 H 0.04164 0.45679 0.99008 0.0
H905 H 0.02637 0.46001 0.95987 0.0
H906 H 0.98907 0.4411 0.97433 0.0
H907 H 0.97966 0.40068 0.98606 0.0
H908 H 0.09794 0.97231 0.99038 0.0
H909 H 0.05759 0.98102 0.97785 0.0
H910 H 0.04298 0.00577 0.05504 0.0
H911 H 0.08354 0.99699 0.06785 0.0
H912 H 0.01262 0.96902 0.03593 0.0
H913 H 0.02092 0.04275 0.96609 0.0
H914 H 0.04051 0.01854 0.96055 0.0
H915 H 0.04349 0.03582 0.98944 0.0
C916 C 0.08633 0.98015 0.00455 0.0
C917 C 0.09386 0.98392 0.03013 0.0
C918 C 0.06329 0.98518 0.99731 0.0
C919 C 0.04738 0.99409 0.01549 0.0
C920 C 0.0551 -0.00104 0.04074 0.0
H921 H 0.899 0.0191 0.01723 0.0
H922 H 0.93943 0.00935 0.02808 0.0
C923 C 0.07827 0.99408 0.04797 0.0
C924 C 0.02225 0.99602 0.00874 0.0
H925 H 0.98398 0.02353 0.96805 0.0
C926 C 0.00628 0.98104 0.02122 0.0
C927 C 0.01421 0.01143 0.98925 0.0
C928 C 0.0306 0.02821 0.97565 0.0
C929 C 0.9824 0.98095 0.01459 0.0
C930 C 0.97428 0.99656 0.9953 0.0
C931 C 0.9903 0.01143 0.98269 0.0
C932 C 0.94902 -0.00092 0.98919 0.0
C933 C 0.96617 0.96388 0.028 0.0
C934 C 0.94088 0.99627 0.96372 0.0
C935 C 0.91767 0.00192 0.95739 0.0
C936 C 0.90241 0.01073 0.97642 0.0
C937 C 0.91032 0.01234 0.00213 0.0
C938 C 0.93343 0.00666 0.00842 0.0
H939 H 0.97593 0.94855 0.03582 0.0
H940 H 0.9575 0.97287 0.04448 0.0
H941 H 0.95232 0.95742 0.01465 0.0
H942 H 0.95272 0.99051 0.94859 0.0
H943 H 0.91211 0.00066 0.9374 0.0
H944 H 0.50108 0.58045 0.56853 0.0
H945 H 0.50997 0.53945 0.55777 0.0
H946 H 0.49611 0.5538 0.47727 0.0
H947 H 0.48761 0.59462 0.48772 0.0
H948 H 0.47678 0.50953 0.53584 0.0
H949 H 0.55577 0.51494 0.47351 0.0
H950 H 0.54666 0.53876 0.49426 0.0
H951 H 0.53276 0.53438 0.46337 0.0
C952 C 0.50068 0.57502 0.54845 0.0
C953 C 0.49361 0.59073 0.52898 0.0
C954 C 0.50558 0.55158 0.54237 0.0
C955 C 0.50378 0.54363 0.51672 0.0
C956 C 0.49799 0.55962 0.49712 0.0
H957 H 0.50775 0.41038 0.4365 0.0
H958 H 0.49772 0.45049 0.44966 0.0
C959 C 0.49305 0.58296 0.50316 0.0
C960 C 0.50561 0.5183 0.5106 0.0
H961 H 0.53399 0.4791 0.47173 0.0
C962 C 0.48944 0.5028 0.52203 0.0
C963 C 0.522 0.50965 0.49241 0.0
C964 C 0.54043 0.52526 0.48036 0.0
C965 C 0.48892 0.47892 0.51531 0.0
C966 C 0.5051 0.47037 0.49687 0.0
C967 C 0.52137 0.48582 0.48561 0.0
C968 C 0.50652 0.44522 0.48997 0.0
C969 C 0.47081 0.4631 0.52758 0.0
C970 C 0.51394 0.42884 0.50847 0.0
C971 C 0.51967 0.406 0.50104 0.0
C972 C 0.51812 0.39918 0.47494 0.0
C973 C 0.50896 0.41508 0.45677 0.0
C974 C 0.50338 0.43802 0.46421 0.0
H975 H 0.45612 0.47329 0.53619 0.0
H976 H 0.46353 0.45057 0.51319 0.0
H977 H 0.47921 0.45276 0.54325 0.0
H978 H 0.51675 0.43412 0.52837 0.0
H979 H 0.52669 0.39413 0.51547 0.0
H980 H 0.08466 0.53107 0.4149 0.0
H981 H 0.04316 0.52174 0.42141 0.0
H982 H 0.06105 0.48088 0.48892 0.0
H983 H 0.1024 0.49152 0.4834 0.0
H984 H 0.01394 0.48677 0.42543 0.0
H985 H 0.02046 0.52959 0.52116 0.0
H986 H 0.04439 0.52967 0.49837 0.0
H987 H 0.03957 0.50469 0.51917 0.0
C988 C 0.0798 0.51951 0.43067 0.0
C989 C 0.09661 0.5122 0.44884 0.0
C990 C 0.05604 0.51432 0.43449 0.0
C991 C 0.0489 0.50141 0.45628 0.0
C992 C 0.06607 0.4917 0.4726 0.0
H993 H 0.91211 0.44526 0.48752 0.0
H994 H 0.95083 0.45435 0.47061 0.0
C995 C 0.08971 0.49746 0.46922 0.0
C996 C 0.02361 0.49977 0.46309 0.0
H997 H 0.98514 0.50852 0.51277 0.0
C998 C 0.0076 0.49166 0.44447 0.0
C999 C 0.01512 0.50707 0.48759 0.0
C1000 C 0.03075 0.5185 0.50758 0.0
C1001 C 0.98352 0.48976 0.45003 0.0
C1002 C 0.9754 0.49516 0.47527 0.0
C1003 C 0.9913 0.50408 0.49353 0.0
C1004 C 0.95089 0.49048 0.48376 0.0
C1005 C 0.96712 0.48236 0.42859 0.0
C1006 C 0.9381 0.50749 0.49763 0.0
C1007 C 0.9161 0.50204 0.50817 0.0
C1008 C 0.9064 0.4796 0.50466 0.0
C1009 C 0.91894 0.46285 0.49023 0.0
C1010 C 0.94107 0.46811 0.48027 0.0
H1011 H 0.97391 0.48803 0.40942 0.0
H1012 H 0.96586 0.46291 0.42826 0.0
H1013 H 0.94926 0.48978 0.43124 0.0
H1014 H 0.94536 0.52486 0.50075 0.0
H1015 H 0.90683 0.51525 0.51925 0.0
H1016 H 0.99731 0.92162 0.56767 0.0
H1017 H 0.9905 0.96256 0.55537 0.0
H1018 H 0.00523 0.94547 0.4757 0.0
H1019 H 0.01249 0.90469 0.48789 0.0
H1020 H 0.03193 0.98205 0.4934 0.0
H1021 H 0.93813 0.99658 0.51754 0.0
H1022 H 0.95492 0.98456 0.54378 0.0
H1023 H 0.95071 0.96759 0.51479 0.0
C1024 C 0.99843 0.92645 0.54744 0.0
C1025 C 0.00549 0.90997 0.52876 0.0
C1026 C 0.99454 0.94986 0.54042 0.0
C1027 C 0.99732 0.95704 0.5146 0.0
C1028 C 0.00307 0.94031 0.49574 0.0
H1029 H 0.99015 0.09067 0.43476 0.0
H1030 H -0.00041 0.0501 0.44649 0.0
C1031 C 0.0071 0.91699 0.50274 0.0
C1032 C 0.99631 0.98224 0.50754 0.0
H1033 H 0.96101 0.03059 0.5086 0.0
C1034 C 0.01637 0.99265 0.49657 0.0
C1035 C 0.97604 0.99602 0.51176 0.0
C1036 C 0.95365 0.9856 0.52238 0.0
C1037 C 0.01682 0.01659 0.49009 0.0
C1038 C 0.99663 0.03037 0.49452 0.0
C1039 C 0.97655 0.01996 0.50542 0.0
C1040 C 0.99556 0.05558 0.4877 0.0
C1041 C 0.03899 0.02706 0.47901 0.0
C1042 C 0.99095 0.07222 0.50702 0.0
C1043 C 0.98557 0.09534 0.50039 0.0
C1044 C 0.98454 0.1022 0.47427 0.0
C1045 C 0.99097 0.08597 0.45504 0.0
C1046 C 0.99633 0.06276 0.46172 0.0
H1047 H 0.05448 0.01561 0.48241 0.0
H1048 H 0.03686 0.0293 0.45781 0.0
H1049 H 0.0425 0.04462 0.48753 0.0
H1050 H 0.99036 0.06701 0.52718 0.0
H1051 H 0.98078 0.10745 0.51567 0.0
H1052 H 0.58318 0.99856 0.56554 0.0
H1053 H 0.54164 0.99188 0.55538 0.0
H1054 H 0.55609 0.00302 0.47439 0.0
H1055 H 0.59746 0.00944 0.48427 0.0
H1056 H 0.5137 0.02689 0.53172 0.0
H1057 H 0.51387 0.94483 0.4738 0.0
H1058 H 0.53808 0.95317 0.49442 0.0
H1059 H 0.53474 0.96637 0.46303 0.0
C1060 C 0.57762 -0.00114 0.5455 0.0
C1061 C 0.59356 0.00456 0.5257 0.0
C1062 C 0.55388 0.99522 0.53975 0.0
C1063 C 0.54584 0.9969 0.51414 0.0
C1064 C 0.56197 0.00131 0.49423 0.0
H1065 H 0.40958 0.99176 0.43932 0.0
H1066 H 0.45051 0.00154 0.44916 0.0
C1067 C 0.58562 0.00503 0.49995 0.0
C1068 C 0.52041 0.99629 0.50834 0.0
H1069 H 0.47893 0.96764 0.4727 0.0
C1070 C 0.50602 0.01384 0.51897 0.0
C1071 C 0.51057 0.97943 0.49146 0.0
C1072 C 0.52505 0.95975 0.48017 0.0
C1073 C 0.48203 0.01514 0.5129 0.0
C1074 C 0.47219 0.99825 0.49605 0.0
C1075 C 0.4866 0.98074 0.48539 0.0
C1076 C 0.4467 0.99725 0.49055 0.0
C1077 C 0.46751 0.03476 0.52425 0.0
C1078 C 0.43086 0.99251 0.51065 0.0
C1079 C 0.40752 0.98701 0.50511 0.0
C1080 C 0.39965 0.98599 0.47934 0.0
C1081 C 0.41508 0.99253 0.45937 0.0
C1082 C 0.4385 0.99796 0.46494 0.0
H1083 H 0.47865 0.04983 0.53026 0.0
H1084 H 0.45419 0.04108 0.5102 0.0
H1085 H 0.45818 0.02818 0.54165 0.0
H1086 H 0.43688 0.99154 0.5305 0.0
H1087 H 0.39606 0.98203 0.52092 0.0
H1088 H 0.58928 0.28496 0.33185 0.0
H1089 H 0.57789 0.2626 0.29375 0.0
H1090 H 0.5056 0.28261 0.30513 0.0
H1091 H 0.51695 0.30544 0.34358 0.0
H1092 H 0.54456 0.22443 0.29415 0.0
H1093 H 0.51948 0.297 0.22711 0.0
H1094 H 0.53769 0.30218 0.25515 0.0
H1095 H 0.50694 0.29646 0.25911 0.0
C1096 C 0.57096 0.28485 0.32622 0.0
C1097 C 0.55401 0.29697 0.34079 0.0
C1098 C 0.56448 0.27199 0.30444 0.0
C1099 C 0.54094 0.27095 0.29663 0.0
C1100 C 0.52391 0.28337 0.31074 0.0
H1101 H 0.50977 0.19151 0.15267 0.0
H1102 H 0.50094 0.21105 0.19409 0.0
C1103 C 0.53042 0.29637 0.33267 0.0
C1104 C 0.53471 0.25611 0.27412 0.0
H1105 H 0.52244 0.25906 0.20953 0.0
C1106 C 0.53919 0.23191 0.27577 0.0
C1107 C 0.52756 0.2659 0.25025 0.0
C1108 C 0.52268 0.29181 0.24753 0.0
C1109 C 0.53822 0.21752 0.2538 0.0
C1110 C 0.53279 0.22762 0.22959 0.0
C1111 C 0.52657 0.25144 0.22821 0.0
C1112 C 0.53736 0.21476 0.20526 0.0
C1113 C 0.54421 0.19182 0.25634 0.0
C1114 C 0.56067 0.21045 0.19802 0.0
C1115 C 0.56573 0.19961 0.17452 0.0
C1116 C 0.54756 0.19269 0.15778 0.0
C1117 C 0.52411 0.19652 0.16528 0.0
C1118 C 0.51905 0.20773 0.18881 0.0
H1119 H 0.54195 0.18553 0.27654 0.0
H1120 H 0.53308 0.18101 0.24331 0.0
H1121 H 0.56283 0.18913 0.25073 0.0
H1122 H 0.57503 0.21594 0.21039 0.0
H1123 H 0.58396 0.19688 0.16934 0.0
H1124 H 0.20569 0.59298 0.33914 0.0
H1125 H 0.22539 0.58288 0.29883 0.0
H1126 H 0.20067 0.51153 0.30541 0.0
H1127 H 0.18062 0.52155 0.34606 0.0
H1128 H 0.26087 0.54711 0.29312 0.0
H1129 H 0.18252 0.53262 0.23048 0.0
H1130 H 0.18076 0.54872 0.26052 0.0
H1131 H 0.18378 0.51737 0.26097 0.0
C1132 C 0.20421 0.57516 0.33199 0.0
C1133 C 0.19155 0.55806 0.34582 0.0
C1134 C 0.21557 0.56941 0.30897 0.0
C1135 C 0.21447 0.54649 0.29916 0.0
C1136 C 0.20155 0.52938 0.31259 0.0
H1137 H 0.30789 0.51548 0.16611 0.0
H1138 H 0.28753 0.5098 0.2076 0.0
C1139 C 0.19012 0.53513 0.33577 0.0
C1140 C 0.22738 0.54087 0.27509 0.0
H1141 H 0.21952 0.53133 0.21049 0.0
C1142 C 0.25193 0.54323 0.27509 0.0
C1143 C 0.21557 0.5359 0.25168 0.0
C1144 C 0.18919 0.53358 0.25065 0.0
C1145 C 0.26491 0.54186 0.25205 0.0
C1146 C 0.253 0.53779 0.22848 0.0
C1147 C 0.22857 0.53434 0.22865 0.0
C1148 C 0.26504 0.54018 0.20322 0.0
C1149 C 0.29105 0.54617 0.25286 0.0
C1150 C 0.25893 0.55891 0.18698 0.0
C1151 C 0.27045 0.56218 0.16347 0.0
C1152 C 0.28831 0.54672 0.15557 0.0
C1153 C 0.29431 0.52776 0.17174 0.0
C1154 C 0.28272 0.52451 0.19542 0.0
H1155 H 0.29704 0.55224 0.2722 0.0
H1156 H 0.30043 0.52964 0.24816 0.0
H1157 H 0.29613 0.55952 0.23822 0.0
H1158 H 0.24539 0.57123 0.19269 0.0
H1159 H 0.26531 0.57692 0.15149 0.0
H1160 H 0.98217 0.30955 0.16185 0.0
H1161 H 0.99059 0.28641 0.20099 0.0
H1162 H 0.91941 0.26055 0.20101 0.0
H1163 H 0.91091 0.28326 0.16227 0.0
H1164 H 0.96769 0.28735 0.2504 0.0
H1165 H 0.95916 0.20029 0.20387 0.0
H1166 H 0.9634 0.227 0.18556 0.0
H1167 H 0.9346 0.219 0.19695 0.0
C1168 C 0.96834 0.29896 0.17028 0.0
C1169 C 0.94592 0.29813 0.15885 0.0
C1170 C 0.97319 0.28573 0.19255 0.0
C1171 C 0.95577 0.27137 0.20351 0.0
C1172 C 0.93328 0.27105 0.19249 0.0
H1173 H 0.90706 0.20405 0.3338 0.0
H1174 H 0.91725 0.22338 0.29322 0.0
C1175 C 0.92842 0.28421 0.17041 0.0
C1176 C 0.96041 0.25701 0.22687 0.0
H1177 H 0.95322 0.20137 0.25025 0.0
C1178 C 0.9652 0.26846 0.25032 0.0
C1179 C 0.95732 0.23234 0.22666 0.0
C1180 C 0.95358 0.2189 0.20185 0.0
C1181 C 0.9651 0.25608 0.27385 0.0
C1182 C 0.96013 0.23177 0.27376 0.0
C1183 C 0.95695 0.22006 0.25019 0.0
C1184 C 0.9547 0.21907 0.29795 0.0
C1185 C 0.96873 0.2692 0.29887 0.0
C1186 C 0.97249 0.20993 0.31381 0.0
C1187 C 0.96671 0.19866 0.3371 0.0
C1188 C 0.94309 0.19657 0.34481 0.0
C1189 C 0.92542 0.20541 0.32851 0.0
C1190 C 0.93118 0.21647 0.3053 0.0
H1191 H 0.97346 0.28791 0.29562 0.0
H1192 H 0.9524 0.26845 0.31059 0.0
H1193 H 0.98287 0.26069 0.31029 0.0
H1194 H 0.99076 0.21177 0.30832 0.0
H1195 H 0.98071 0.19209 0.34929 0.0
H1196 H 0.314 0.98029 0.35221 0.0
H1197 H 0.29482 0.99077 0.31117 0.0
H1198 H 0.2648 0.92133 0.30671 0.0
H1199 H 0.28357 0.91082 0.34738 0.0
H1200 H 0.29924 0.96949 0.26218 0.0
H1201 H 0.20765 0.96417 0.29711 0.0
H1202 H 0.23244 0.96626 0.31881 0.0
H1203 H 0.22411 0.93835 0.30524 0.0
C1204 C 0.30329 0.96729 0.34245 0.0
C1205 C 0.30022 0.94476 0.35312 0.0
C1206 C 0.29232 0.97332 0.31908 0.0
C1207 C 0.27797 0.95698 0.30624 0.0
C1208 C 0.2753 0.9344 0.31664 0.0
H1209 H 0.24 0.92428 0.15474 0.0
H1210 H 0.25832 0.9324 0.1963 0.0
C1211 C 0.28623 0.92837 0.33983 0.0
C1212 C 0.26635 0.96281 0.28141 0.0
H1213 H 0.21325 0.95947 0.25102 0.0
C1214 C 0.28039 0.9678 0.25979 0.0
C1215 C 0.24171 0.96111 0.2784 0.0
C1216 C 0.22558 0.95743 0.3012 0.0
C1217 C 0.27059 0.9693 0.23491 0.0
C1218 C 0.24623 0.96531 0.23162 0.0
C1219 C 0.23197 0.96219 0.25349 0.0
C1220 C 0.23568 0.9617 0.20569 0.0
C1221 C 0.28654 0.9745 0.21232 0.0
C1222 C 0.21639 0.9751 0.19737 0.0
C1223 C 0.20565 0.97034 0.17353 0.0
C1224 C 0.21391 0.95195 0.15781 0.0
C1225 C 0.23322 0.93863 0.16628 0.0
C1226 C 0.2439 0.9434 0.18997 0.0
H1227 H 0.30201 0.985 0.21848 0.0
H1228 H 0.29313 0.95771 0.20417 0.0
H1229 H 0.27712 0.98417 0.19682 0.0
H1230 H 0.20958 0.98913 0.20938 0.0
H1231 H 0.19078 0.98088 0.16756 0.0
H1232 H 0.48021 0.81248 0.84444 0.0
H1233 H 0.49071 0.79167 0.80437 0.0
H1234 H 0.42107 0.76204 0.80089 0.0
H1235 H 0.41053 0.78244 0.8406 0.0
H1236 H 0.45872 0.72893 0.79407 0.0
H1237 H 0.46619 0.80753 0.73025 0.0
H1238 H 0.48263 0.80734 0.76 0.0
H1239 H 0.45118 0.80862 0.761 0.0
C1240 C 0.46713 0.80164 0.835 0.0
C1241 C 0.44452 0.79917 0.84567 0.0
C1242 C 0.47315 0.78978 0.81216 0.0
C1243 C 0.45663 0.77537 0.7997 0.0
C1244 C 0.4341 0.77301 0.81028 0.0
H1245 H 0.42133 0.72287 0.65494 0.0
H1246 H 0.42834 0.74264 0.69596 0.0
C1247 C 0.42808 0.78479 0.83295 0.0
C1248 C 0.4623 0.76259 0.77554 0.0
H1249 H 0.46823 0.77053 0.71043 0.0
C1250 C 0.46129 0.73795 0.7758 0.0
C1251 C 0.46555 0.7745 0.75182 0.0
C1252 C 0.46636 0.80096 0.75049 0.0
C1253 C 0.46221 0.72491 0.75276 0.0
C1254 C 0.46439 0.73688 0.72893 0.0
C1255 C 0.46665 0.76145 0.72879 0.0
C1256 C 0.46101 0.72467 0.7039 0.0
C1257 C 0.45932 0.69858 0.75391 0.0
C1258 C 0.47709 0.70792 0.69476 0.0
C1259 C 0.47308 0.69642 0.67117 0.0
C1260 C 0.45295 0.70158 0.65644 0.0
C1261 C 0.43698 0.7184 0.66577 0.0
C1262 C 0.44101 0.72983 0.68919 0.0
H1263 H 0.45497 0.69233 0.7737 0.0
H1264 H 0.44524 0.69282 0.74047 0.0
H1265 H 0.47591 0.69004 0.74773 0.0
H1266 H 0.49275 0.70385 0.70577 0.0
H1267 H 0.48576 0.68364 0.66441 0.0
H1268 H 0.75099 0.44122 0.63554 0.0
H1269 H 0.7328 0.44553 0.67798 0.0
H1270 H 0.79528 0.47985 0.70637 0.0
H1271 H 0.81328 0.47637 0.66343 0.0
H1272 H 0.74732 0.42526 0.72027 0.0
H1273 H 0.74558 0.52126 0.73733 0.0
H1274 H 0.75138 0.50875 0.70588 0.0
H1275 H 0.77441 0.51066 0.72964 0.0
C1276 C 0.76073 0.45005 0.6507 0.0
C1277 C 0.7836 0.45839 0.64621 0.0
C1278 C 0.75029 0.45252 0.67496 0.0
C1279 C 0.76255 0.46318 0.69539 0.0
C1280 C 0.78522 0.47207 0.6908 0.0
H1281 H 0.73877 0.42887 0.85543 0.0
H1282 H 0.75376 0.43451 0.81171 0.0
C1283 C 0.79557 0.46993 0.6663 0.0
C1284 C 0.75238 0.46275 0.72188 0.0
H1285 H 0.73877 0.49673 0.7743 0.0
C1286 C 0.74529 0.44096 0.73194 0.0
C1287 C 0.74945 0.48323 0.73708 0.0
C1288 C 0.75538 0.50732 0.72685 0.0
C1289 C 0.73575 0.43898 0.75683 0.0
C1290 C 0.73392 0.45925 0.77253 0.0
C1291 C 0.74047 0.48117 0.76235 0.0
C1292 C 0.72573 0.45773 0.79972 0.0
C1293 C 0.72751 0.41516 0.76594 0.0
C1294 C 0.70554 0.46979 0.80792 0.0
C1295 C 0.69702 0.46682 0.83317 0.0
C1296 C 0.70857 0.45169 0.8505 0.0
C1297 C 0.72924 0.44037 0.84244 0.0
C1298 C 0.73782 0.44351 0.81741 0.0
H1299 H 0.72348 0.40335 0.74941 0.0
H1300 H 0.74161 0.40679 0.77753 0.0
H1301 H 0.71159 0.41665 0.77824 0.0
H1302 H 0.69604 0.48098 0.7946 0.0
H1303 H 0.68112 0.47587 0.83887 0.0
H1304 H 0.07055 0.77249 0.65758 0.0
H1305 H 0.06368 0.7524 0.69841 0.0
H1306 H 0.00384 0.79678 0.71323 0.0
H1307 H 0.01066 0.81729 0.67199 0.0
H1308 H 0.03525 0.79247 0.75539 0.0
H1309 H 0.0117 0.70513 0.71649 0.0
H1310 H 0.03818 0.71635 0.70228 0.0
H1311 H 0.01085 0.7315 0.69706 0.0
C1312 C 0.05584 0.77802 0.66939 0.0
C1313 C 0.04111 0.79649 0.66149 0.0
C1314 C 0.05182 0.76633 0.69265 0.0
C1315 C 0.03295 0.77274 0.70856 0.0
C1316 C 0.01833 0.79139 0.70102 0.0
H1317 H 0.01828 0.68574 0.8496 0.0
H1318 H 0.00648 0.70729 0.81045 0.0
C1319 C 0.02228 0.8031 0.67753 0.0
C1320 C 0.02975 0.76065 0.73369 0.0
H1321 H 0.02714 0.70576 0.76017 0.0
C1322 C 0.03293 0.77358 0.75651 0.0
C1323 C 0.02633 0.73606 0.73517 0.0
C1324 C 0.02132 0.72148 0.71143 0.0
C1325 C 0.03466 0.76231 0.78058 0.0
C1326 C 0.03347 0.7375 0.78173 0.0
C1327 C 0.02838 0.72476 0.7592 0.0
C1328 C 0.04008 0.72446 0.80542 0.0
C1329 C 0.03859 0.77699 0.80449 0.0
C1330 C 0.06299 0.72655 0.81506 0.0
C1331 C 0.06979 0.71423 0.83712 0.0
C1332 C 0.05384 0.69945 0.85004 0.0
C1333 C 0.03096 0.697 0.8401 0.0
C1334 C 0.02418 0.70933 0.81783 0.0
H1335 H 0.03171 0.7951 0.80191 0.0
H1336 H 0.03004 0.76896 0.82167 0.0
H1337 H 0.05772 0.77828 0.80833 0.0
H1338 H 0.07571 0.73768 0.80541 0.0
H1339 H 0.08757 0.71648 0.84415 0.0
H1340 H 0.72855 0.0708 0.65156 0.0
H1341 H 0.74663 0.06352 0.69342 0.0
H1342 H 0.70492 0.00081 0.70253 0.0
H1343 H 0.6863 0.00818 0.66038 0.0
H1344 H 0.70526 0.02844 0.74621 0.0
H1345 H 0.79614 0.01513 0.71204 0.0
H1346 H 0.78411 0.04194 0.69957 0.0
H1347 H 0.77119 0.01424 0.69049 0.0
C1348 C 0.72321 0.05537 0.66233 0.0
C1349 C 0.70603 0.04 0.65257 0.0
C1350 C 0.73376 0.05113 0.6862 0.0
C1351 C 0.72757 0.03131 0.7008 0.0
C1352 C 0.71016 0.01605 0.69138 0.0
H1353 H 0.81042 0.01339 0.84396 0.0
H1354 H 0.79152 0.00348 0.80262 0.0
C1355 C 0.69951 0.02031 0.66737 0.0
C1356 C 0.73857 0.02759 0.72648 0.0
H1357 H 0.79189 0.02757 0.75666 0.0
C1358 C 0.72418 0.02776 0.74851 0.0
C1359 C 0.76323 0.02617 0.7295 0.0
C1360 C 0.77953 0.02409 0.7066 0.0
C1361 C 0.73389 0.02836 0.77346 0.0
C1362 C 0.7586 0.02929 0.77637 0.0
C1363 C 0.77295 0.02727 0.75442 0.0
C1364 C 0.76975 0.03462 0.80162 0.0
C1365 C 0.71756 0.02857 0.79645 0.0
C1366 C 0.76418 0.05561 0.8144 0.0
C1367 C 0.77489 0.06129 0.83782 0.0
C1368 C 0.79163 0.04622 0.84892 0.0
C1369 C 0.79756 0.02535 0.83591 0.0
C1370 C 0.78675 0.01964 0.81236 0.0
H1371 H 0.70068 0.0197 0.79186 0.0
H1372 H 0.72561 0.01979 0.81346 0.0
H1373 H 0.71354 0.04703 0.80172 0.0
H1374 H 0.75165 0.06778 0.8061 0.0
H1375 H 0.77001 0.07759 0.8472 0.0
loop_
_geom_bond_atom_site_label_1
_geom_bond_atom_site_label_2
_geom_bond_distance
_geom_bond_site_symmetry_2
_ccdc_geom_bond_type
O0 Cd1 2.223 . S
O0 C8 1.315 . S
Cd1 O0 2.223 . S
Cd1 O4 2.297 . S
Cd1 O5 2.439 . S
Cd1 O11 2.240 . S
Cd2 O3 2.240 . S
Cd2 O10 2.223 . S
Cd2 O12 2.297 . S
Cd2 O13 2.439 . S
O3 Cd2 2.240 . S
O3 C8 1.279 . S
O4 Cd1 2.297 . S
O4 C6 1.247 . S
O5 Cd1 2.439 . S
O5 C6 1.208 . S
C6 O4 1.247 . S
C6 O5 1.208 . S
C7 O12 1.247 . S
C7 O13 1.208 . S
C8 O0 1.315 . S
C8 O3 1.279 . S
C9 O10 1.315 . S
C9 O11 1.279 . S
O10 Cd2 2.223 . S
O10 C9 1.315 . S
O11 Cd1 2.240 . S
O11 C9 1.279 . S
O12 Cd2 2.297 . S
O12 C7 1.247 . S
O13 Cd2 2.439 . S
O13 C7 1.208 . S
O14 Cd15 2.223 . S
O14 C22 1.315 . S
Cd15 O14 2.223 . S
Cd15 O18 2.297 . S
Cd15 O19 2.439 . S
Cd15 O25 2.240 . S
Cd16 O17 2.240 . S
Cd16 O24 2.223 . S
Cd16 O26 2.297 . S
Cd16 O27 2.439 . S
O17 Cd16 2.240 . S
O17 C22 1.279 . S
O18 Cd15 2.297 . S
O18 C20 1.247 . S
O19 Cd15 2.439 . S
O19 C20 1.208 . S
C20 O18 1.247 . S
C20 O19 1.208 . S
C21 O26 1.247 . S
C21 O27 1.208 . S
C22 O14 1.315 . S
C22 O17 1.279 . S
C23 O24 1.315 . S
C23 O25 1.279 . S
O24 Cd16 2.223 . S
O24 C23 1.315 . S
O25 Cd15 2.240 . S
O25 C23 1.279 . S
O26 Cd16 2.297 . S
O26 C21 1.247 . S
O27 Cd16 2.439 . S
O27 C21 1.208 . S
O28 Cd29 2.223 . S
O28 C36 1.315 . S
Cd29 O28 2.223 . S
Cd29 O32 2.297 . S
Cd29 O33 2.439 . S
Cd29 O39 2.240 . S
Cd30 O31 2.240 . S
Cd30 O38 2.223 . S
Cd30 O40 2.297 . S
Cd30 O41 2.439 . S
O31 Cd30 2.240 . S
O31 C36 1.279 . S
O32 Cd29 2.297 . S
O32 C34 1.247 . S
O33 Cd29 2.439 . S
O33 C34 1.208 . S
C34 O32 1.247 . S
C34 O33 1.208 . S
C35 O40 1.247 . S
C35 O41 1.208 . S
C36 O28 1.315 . S
C36 O31 1.279 . S
C37 O38 1.315 . S
C37 O39 1.279 . S
O38 Cd30 2.223 . S
O38 C37 1.315 . S
O39 Cd29 2.240 . S
O39 C37 1.279 . S
O40 Cd30 2.297 . S
O40 C35 1.247 . S
O41 Cd30 2.439 . S
O41 C35 1.208 . S
O42 Cd43 2.223 . S
O42 C50 1.315 . S
Cd43 O42 2.223 . S
Cd43 O46 2.297 . S
Cd43 O47 2.439 . S
Cd43 O53 2.240 . S
Cd44 O45 2.240 . S
Cd44 O52 2.223 . S
Cd44 O54 2.297 . S
Cd44 O55 2.439 . S
O45 Cd44 2.240 . S
O45 C50 1.279 . S
O46 Cd43 2.297 . S
O46 C48 1.247 . S
O47 Cd43 2.439 . S
O47 C48 1.208 . S
C48 O46 1.247 . S
C48 O47 1.208 . S
C49 O54 1.247 . S
C49 O55 1.208 . S
C50 O42 1.315 . S
C50 O45 1.279 . S
C51 O52 1.315 . S
C51 O53 1.279 . S
O52 Cd44 2.223 . S
O52 C51 1.315 . S
O53 Cd43 2.240 . S
O53 C51 1.279 . S
O54 Cd44 2.297 . S
O54 C49 1.247 . S
O55 Cd44 2.439 . S
O55 C49 1.208 . S
O56 Cd57 2.223 . S
O56 C64 1.315 . S
Cd57 O56 2.223 . S
Cd57 O60 2.297 . S
Cd57 O61 2.439 . S
Cd57 O67 2.240 . S
Cd58 O59 2.240 . S
Cd58 O66 2.223 . S
Cd58 O68 2.297 . S
Cd58 O69 2.439 . S
O59 Cd58 2.240 . S
O59 C64 1.279 . S
O60 Cd57 2.297 . S
O60 C62 1.247 . S
O61 Cd57 2.439 . S
O61 C62 1.208 . S
C62 O60 1.247 . S
C62 O61 1.208 . S
C63 O68 1.247 . S
C63 O69 1.208 . S
C64 O56 1.315 . S
C64 O59 1.279 . S
C65 O66 1.315 . S
C65 O67 1.279 . S
O66 Cd58 2.223 . S
O66 C65 1.315 . S
O67 Cd57 2.240 . S
O67 C65 1.279 . S
O68 Cd58 2.297 . S
O68 C63 1.247 . S
O69 Cd58 2.439 . S
O69 C63 1.208 . S
O70 Cd71 2.223 . S
O70 C78 1.315 . S
Cd71 O70 2.223 . S
Cd71 O74 2.297 . S
Cd71 O75 2.439 . S
Cd71 O81 2.240 . S
Cd72 O73 2.240 . S
Cd72 O80 2.223 . S
Cd72 O82 2.297 . S
Cd72 O83 2.439 . S
O73 Cd72 2.240 . S
O73 C78 1.279 . S
O74 Cd71 2.297 . S
O74 C76 1.247 . S
O75 Cd71 2.439 . S
O75 C76 1.208 . S
C76 O74 1.247 . S
C76 O75 1.208 . S
C77 O82 1.247 . S
C77 O83 1.208 . S
C78 O70 1.315 . S
C78 O73 1.279 . S
C79 O80 1.315 . S
C79 O81 1.279 . S
O80 Cd72 2.223 . S
O80 C79 1.315 . S
O81 Cd71 2.240 . S
O81 C79 1.279 . S
O82 Cd72 2.297 . S
O82 C77 1.247 . S
O83 Cd72 2.439 . S
O83 C77 1.208 . S
O84 Cd85 2.223 . S
O84 C92 1.315 . S
Cd85 O84 2.223 . S
Cd85 O88 2.297 . S
Cd85 O89 2.439 . S
Cd85 O95 2.240 . S
Cd86 O87 2.240 . S
Cd86 O94 2.223 . S
Cd86 O96 2.297 . S
Cd86 O97 2.439 . S
O87 Cd86 2.240 . S
O87 C92 1.279 . S
O88 Cd85 2.297 . S
O88 C90 1.247 . S
O89 Cd85 2.439 . S
O89 C90 1.208 . S
C90 O88 1.247 . S
C90 O89 1.208 . S
C91 O96 1.247 . S
C91 O97 1.208 . S
C92 O84 1.315 . S
C92 O87 1.279 . S
C93 O94 1.315 . S
C93 O95 1.279 . S
O94 Cd86 2.223 . S
O94 C93 1.315 . S
O95 Cd85 2.240 . S
O95 C93 1.279 . S
O96 Cd86 2.297 . S
O96 C91 1.247 . S
O97 Cd86 2.439 . S
O97 C91 1.208 . S
O98 Cd99 2.223 . S
O98 C106 1.315 . S
Cd99 O98 2.223 . S
Cd99 O102 2.297 . S
Cd99 O103 2.439 . S
Cd99 O109 2.240 . S
Cd100 O101 2.240 . S
Cd100 O108 2.223 . S
Cd100 O110 2.297 . S
Cd100 O111 2.439 . S
O101 Cd100 2.240 . S
O101 C106 1.279 . S
O102 Cd99 2.297 . S
O102 C104 1.247 . S
O103 Cd99 2.439 . S
O103 C104 1.208 . S
C104 O102 1.247 . S
C104 O103 1.208 . S
C105 O110 1.247 . S
C105 O111 1.208 . S
C106 O98 1.315 . S
C106 O101 1.279 . S
C107 O108 1.315 . S
C107 O109 1.279 . S
O108 Cd100 2.223 . S
O108 C107 1.315 . S
O109 Cd99 2.240 . S
O109 C107 1.279 . S
O110 Cd100 2.297 . S
O110 C105 1.247 . S
O111 Cd100 2.439 . S
O111 C105 1.208 . S
O112 Cd113 2.223 . S
O112 C120 1.315 . S
Cd113 O112 2.223 . S
Cd113 O116 2.297 . S
Cd113 O117 2.439 . S
Cd113 O123 2.240 . S
Cd114 O115 2.240 . S
Cd114 O122 2.223 . S
Cd114 O124 2.297 . S
Cd114 O125 2.439 . S
O115 Cd114 2.240 . S
O115 C120 1.279 . S
O116 Cd113 2.297 . S
O116 C118 1.247 . S
O117 Cd113 2.439 . S
O117 C118 1.208 . S
C118 O116 1.247 . S
C118 O117 1.208 . S
C119 O124 1.247 . S
C119 O125 1.208 . S
C120 O112 1.315 . S
C120 O115 1.279 . S
C121 O122 1.315 . S
C121 O123 1.279 . S
O122 Cd114 2.223 . S
O122 C121 1.315 . S
O123 Cd113 2.240 . S
O123 C121 1.279 . S
O124 Cd114 2.297 . S
O124 C119 1.247 . S
O125 Cd114 2.439 . S
O125 C119 1.208 . S
O126 Cd127 2.223 . S
O126 C134 1.315 . S
Cd127 O126 2.223 . S
Cd127 O130 2.297 . S
Cd127 O131 2.439 . S
Cd127 O137 2.240 . S
Cd128 O129 2.240 . S
Cd128 O136 2.223 . S
Cd128 O138 2.297 . S
Cd128 O139 2.439 . S
O129 Cd128 2.240 . S
O129 C134 1.279 . S
O130 Cd127 2.297 . S
O130 C132 1.247 . S
O131 Cd127 2.439 . S
O131 C132 1.208 . S
C132 O130 1.247 . S
C132 O131 1.208 . S
C133 O138 1.247 . S
C133 O139 1.208 . S
C134 O126 1.315 . S
C134 O129 1.279 . S
C135 O136 1.315 . S
C135 O137 1.279 . S
O136 Cd128 2.223 . S
O136 C135 1.315 . S
O137 Cd127 2.240 . S
O137 C135 1.279 . S
O138 Cd128 2.297 . S
O138 C133 1.247 . S
O139 Cd128 2.439 . S
O139 C133 1.208 . S
O140 Cd141 2.223 . S
O140 C148 1.315 . S
Cd141 O140 2.223 . S
Cd141 O144 2.297 . S
Cd141 O145 2.439 . S
Cd141 O151 2.240 . S
Cd142 O143 2.240 . S
Cd142 O150 2.223 . S
Cd142 O152 2.297 . S
Cd142 O153 2.439 . S
O143 Cd142 2.240 . S
O143 C148 1.279 . S
O144 Cd141 2.297 . S
O144 C146 1.247 . S
O145 Cd141 2.439 . S
O145 C146 1.208 . S
C146 O144 1.247 . S
C146 O145 1.208 . S
C147 O152 1.247 . S
C147 O153 1.208 . S
C148 O140 1.315 . S
C148 O143 1.279 . S
C149 O150 1.315 . S
C149 O151 1.279 . S
O150 Cd142 2.223 . S
O150 C149 1.315 . S
O151 Cd141 2.240 . S
O151 C149 1.279 . S
O152 Cd142 2.297 . S
O152 C147 1.247 . S
O153 Cd142 2.439 . S
O153 C147 1.208 . S
O154 Cd155 2.223 . S
O154 C162 1.315 . S
Cd155 O154 2.223 . S
Cd155 O158 2.297 . S
Cd155 O159 2.439 . S
Cd155 O165 2.240 . S
Cd156 O157 2.240 . S
Cd156 O164 2.223 . S
Cd156 O166 2.297 . S
Cd156 O167 2.439 . S
O157 Cd156 2.240 . S
O157 C162 1.279 . S
O158 Cd155 2.297 . S
O158 C160 1.247 . S
O159 Cd155 2.439 . S
O159 C160 1.208 . S
C160 O158 1.247 . S
C160 O159 1.208 . S
C161 O166 1.247 . S
C161 O167 1.208 . S
C162 O154 1.315 . S
C162 O157 1.279 . S
C163 O164 1.315 . S
C163 O165 1.279 . S
O164 Cd156 2.223 . S
O164 C163 1.315 . S
O165 Cd155 2.240 . S
O165 C163 1.279 . S
O166 Cd156 2.297 . S
O166 C161 1.247 . S
O167 Cd156 2.439 . S
O167 C161 1.208 . S
O168 Cd169 2.223 . S
O168 C176 1.315 . S
Cd169 O168 2.223 . S
Cd169 O172 2.297 . S
Cd169 O173 2.439 . S
Cd169 O179 2.240 . S
Cd170 O171 2.240 . S
Cd170 O178 2.223 . S
Cd170 O180 2.297 . S
Cd170 O181 2.439 . S
O171 Cd170 2.240 . S
O171 C176 1.279 . S
O172 Cd169 2.297 . S
O172 C174 1.247 . S
O173 Cd169 2.439 . S
O173 C174 1.208 . S
C174 O172 1.247 . S
C174 O173 1.208 . S
C175 O180 1.247 . S
C175 O181 1.208 . S
C176 O168 1.315 . S
C176 O171 1.279 . S
C177 O178 1.315 . S
C177 O179 1.279 . S
O178 Cd170 2.223 . S
O178 C177 1.315 . S
O179 Cd169 2.240 . S
O179 C177 1.279 . S
O180 Cd170 2.297 . S
O180 C175 1.247 . S
O181 Cd170 2.439 . S
O181 C175 1.208 . S
O182 Cd183 2.223 . S
O182 C190 1.315 . S
Cd183 O182 2.223 . S
Cd183 O186 2.297 . S
Cd183 O187 2.439 . S
Cd183 O193 2.240 . S
Cd184 O185 2.240 . S
Cd184 O192 2.223 . S
Cd184 O194 2.297 . S
Cd184 O195 2.439 . S
O185 Cd184 2.240 . S
O185 C190 1.279 . S
O186 Cd183 2.297 . S
O186 C188 1.247 . S
O187 Cd183 2.439 . S
O187 C188 1.208 . S
C188 O186 1.247 . S
C188 O187 1.208 . S
C189 O194 1.247 . S
C189 O195 1.208 . S
C190 O182 1.315 . S
C190 O185 1.279 . S
C191 O192 1.315 . S
C191 O193 1.279 . S
O192 Cd184 2.223 . S
O192 C191 1.315 . S
O193 Cd183 2.240 . S
O193 C191 1.279 . S
O194 Cd184 2.297 . S
O194 C189 1.247 . S
O195 Cd184 2.439 . S
O195 C189 1.208 . S
O196 Cd197 2.223 . S
O196 C204 1.315 . S
Cd197 O196 2.223 . S
Cd197 O200 2.297 . S
Cd197 O201 2.439 . S
Cd197 O207 2.240 . S
Cd198 O199 2.240 . S
Cd198 O206 2.223 . S
Cd198 O208 2.297 . S
Cd198 O209 2.439 . S
O199 Cd198 2.240 . S
O199 C204 1.279 . S
O200 Cd197 2.297 . S
O200 C202 1.247 . S
O201 Cd197 2.439 . S
O201 C202 1.208 . S
C202 O200 1.247 . S
C202 O201 1.208 . S
C203 O208 1.247 . S
C203 O209 1.208 . S
C204 O196 1.315 . S
C204 O199 1.279 . S
C205 O206 1.315 . S
C205 O207 1.279 . S
O206 Cd198 2.223 . S
O206 C205 1.315 . S
O207 Cd197 2.240 . S
O207 C205 1.279 . S
O208 Cd198 2.297 . S
O208 C203 1.247 . S
O209 Cd198 2.439 . S
O209 C203 1.208 . S
O210 Cd211 2.223 . S
O210 C218 1.315 . S
Cd211 O210 2.223 . S
Cd211 O214 2.297 . S
Cd211 O215 2.439 . S
Cd211 O221 2.240 . S
Cd212 O213 2.240 . S
Cd212 O220 2.223 . S
Cd212 O222 2.297 . S
Cd212 O223 2.439 . S
O213 Cd212 2.240 . S
O213 C218 1.279 . S
O214 Cd211 2.297 . S
O214 C216 1.247 . S
O215 Cd211 2.439 . S
O215 C216 1.208 . S
C216 O214 1.247 . S
C216 O215 1.208 . S
C217 O222 1.247 . S
C217 O223 1.208 . S
C218 O210 1.315 . S
C218 O213 1.279 . S
C219 O220 1.315 . S
C219 O221 1.279 . S
O220 Cd212 2.223 . S
O220 C219 1.315 . S
O221 Cd211 2.240 . S
O221 C219 1.279 . S
O222 Cd212 2.297 . S
O222 C217 1.247 . S
O223 Cd212 2.439 . S
O223 C217 1.208 . S
H224 C232 0.920 1_556 S
H225 C234 0.930 1_556 S
H226 C236 0.930 . S
H227 C239 0.929 . S
H228 C242 0.930 . S
H229 C244 0.960 . S
H230 C244 0.960 . S
H231 C244 0.960 . S
C232 H224 0.920 1_554 S
C232 C233 1.377 . S
C232 C234 1.384 . S
C233 C232 1.377 . S
C233 C239 1.390 . S
C234 H225 0.930 1_554 S
C234 C232 1.384 . S
C234 C235 1.372 . S
C235 C234 1.372 . S
C235 C236 1.400 . S
C235 C240 1.490 . S
C236 H226 0.930 . S
C236 C235 1.400 . S
C236 C239 1.386 . S
H237 C253 0.930 1_554 S
H238 C254 0.931 1_554 S
C239 H227 0.929 . S
C239 C233 1.390 . S
C239 C236 1.386 . S
C240 C235 1.490 . S
C240 C242 1.395 1_554 S
C240 C243 1.403 . S
H241 C247 0.930 . S
C242 H228 0.930 . S
C242 C240 1.395 1_556 S
C242 C245 1.403 . S
C243 C240 1.403 . S
C243 C244 1.524 . S
C243 C247 1.400 . S
C244 H229 0.960 . S
C244 H230 0.960 . S
C244 H231 0.960 . S
C244 C243 1.524 . S
C245 C242 1.403 . S
C245 C246 1.392 . S
C245 C249 1.495 . S
C246 C245 1.392 . S
C246 C247 1.385 1_556 S
C246 C248 1.478 . S
C247 H241 0.930 . S
C247 C243 1.400 . S
C247 C246 1.385 1_554 S
C248 C246 1.478 . S
C248 C250 1.381 . S
C248 C254 1.383 . S
C249 C245 1.495 . S
C249 H255 0.959 . S
C249 H256 0.961 . S
C249 H257 0.960 . S
C250 C248 1.381 . S
C250 C251 1.394 . S
C250 H258 0.930 . S
C251 C250 1.394 . S
C251 C252 1.383 . S
C251 H259 0.929 . S
C252 C251 1.383 . S
C252 C253 1.377 . S
C253 H237 0.930 1_556 S
C253 C252 1.377 . S
C253 C254 1.379 . S
C254 H238 0.931 1_556 S
C254 C248 1.383 . S
C254 C253 1.379 . S
H255 C249 0.959 . S
H256 C249 0.961 . S
H257 C249 0.960 . S
H258 C250 0.930 . S
H259 C251 0.929 . S
H260 C268 0.929 . S
H261 C270 0.930 . S
H262 C272 0.930 1_554 S
H263 C275 0.929 . S
H264 C278 0.930 . S
H265 C280 0.960 . S
H266 C280 0.960 . S
H267 C280 0.960 . S
C268 H260 0.929 . S
C268 C269 1.377 . S
C268 C270 1.384 . S
C269 C268 1.377 . S
C269 C275 1.390 . S
C270 H261 0.930 . S
C270 C268 1.384 . S
C270 C271 1.372 . S
C271 C270 1.372 . S
C271 C272 1.400 . S
C271 C276 1.490 . S
C272 H262 0.930 1_556 S
C272 C271 1.400 . S
C272 C275 1.386 . S
H273 C289 0.930 . S
H274 C290 0.931 . S
C275 H263 0.929 . S
C275 C269 1.390 . S
C275 C272 1.386 . S
C276 C271 1.490 . S
C276 C278 1.395 . S
C276 C279 1.403 . S
H277 C283 0.930 . S
C278 H264 0.930 . S
C278 C276 1.395 . S
C278 C281 1.403 1_556 S
C279 C276 1.403 . S
C279 C280 1.524 . S
C279 C283 1.400 1_556 S
C280 H265 0.960 . S
C280 H266 0.960 . S
C280 H267 0.960 . S
C280 C279 1.524 . S
C281 C278 1.403 1_554 S
C281 C282 1.392 . S
C281 C285 1.495 . S
C282 C281 1.392 . S
C282 C283 1.385 . S
C282 C284 1.478 . S
C283 H277 0.930 . S
C283 C279 1.400 1_554 S
C283 C282 1.385 . S
C284 C282 1.478 . S
C284 C286 1.381 . S
C284 C290 1.383 . S
C285 C281 1.495 . S
C285 H291 0.959 . S
C285 H292 0.961 . S
C285 H293 0.960 . S
C286 C284 1.381 . S
C286 C287 1.394 . S
C286 H294 0.930 1_554 S
C287 C286 1.394 . S
C287 C288 1.383 . S
C287 H295 0.929 . S
C288 C287 1.383 . S
C288 C289 1.377 . S
C289 H273 0.930 . S
C289 C288 1.377 . S
C289 C290 1.379 . S
C290 H274 0.931 . S
C290 C284 1.383 . S
C290 C289 1.379 . S
H291 C285 0.959 . S
H292 C285 0.961 . S
H293 C285 0.960 . S
H294 C286 0.930 1_556 S
H295 C287 0.929 . S
H296 C304 0.929 . S
H297 C306 0.930 1_554 S
H298 C308 0.930 . S
H299 C311 0.929 . S
H300 C314 0.930 . S
H301 C316 0.960 . S
H302 C316 0.960 . S
H303 C316 0.960 1_556 S
C304 H296 0.929 . S
C304 C305 1.377 . S
C304 C306 1.384 . S
C305 C304 1.377 . S
C305 C311 1.390 . S
C306 H297 0.930 1_556 S
C306 C304 1.384 . S
C306 C307 1.372 . S
C307 C306 1.372 . S
C307 C308 1.400 . S
C307 C312 1.490 . S
C308 H298 0.930 . S
C308 C307 1.400 . S
C308 C311 1.386 . S
H309 C325 0.930 . S
H310 C326 0.931 1_556 S
C311 H299 0.929 . S
C311 C305 1.390 . S
C311 C308 1.386 . S
C312 C307 1.490 . S
C312 C314 1.395 . S
C312 C315 1.403 1_556 S
H313 C319 0.930 . S
C314 H300 0.930 . S
C314 C312 1.395 . S
C314 C317 1.403 . S
C315 C312 1.403 1_554 S
C315 C316 1.524 . S
C315 C319 1.400 . S
C316 H301 0.960 . S
C316 H302 0.960 . S
C316 H303 0.960 1_554 S
C316 C315 1.524 . S
C317 C314 1.403 . S
C317 C318 1.392 1_556 S
C317 C321 1.495 . S
C318 C317 1.392 1_554 S
C318 C319 1.385 . S
C318 C320 1.478 . S
C319 H313 0.930 . S
C319 C315 1.400 . S
C319 C318 1.385 . S
C320 C318 1.478 . S
C320 C322 1.381 . S
C320 C326 1.383 . S
C321 C317 1.495 . S
C321 H327 0.959 . S
C321 H328 0.961 . S
C321 H329 0.960 1_556 S
C322 C320 1.381 . S
C322 C323 1.394 . S
C322 H330 0.930 . S
C323 C322 1.394 . S
C323 C324 1.383 . S
C323 H331 0.929 . S
C324 C323 1.383 . S
C324 C325 1.377 . S
C325 H309 0.930 . S
C325 C324 1.377 . S
C325 C326 1.379 . S
C326 H310 0.931 1_554 S
C326 C320 1.383 . S
C326 C325 1.379 . S
H327 C321 0.959 . S
H328 C321 0.961 . S
H329 C321 0.960 1_554 S
H330 C322 0.930 . S
H331 C323 0.929 . S
H332 C340 0.929 . S
H333 C342 0.930 1_554 S
H334 C344 0.930 . S
H335 C347 0.929 . S
H336 C350 0.930 . S
H337 C352 0.960 1_554 S
H338 C352 0.960 1_554 S
H339 C352 0.960 . S
C340 H332 0.929 . S
C340 C341 1.377 . S
C340 C342 1.384 . S
C341 C340 1.377 . S
C341 C347 1.390 . S
C342 H333 0.930 1_556 S
C342 C340 1.384 . S
C342 C343 1.372 . S
C343 C342 1.372 . S
C343 C344 1.400 . S
C343 C348 1.490 . S
C344 H334 0.930 . S
C344 C343 1.400 . S
C344 C347 1.386 . S
H345 C361 0.930 . S
H346 C362 0.931 1_556 S
C347 H335 0.929 . S
C347 C341 1.390 . S
C347 C344 1.386 . S
C348 C343 1.490 . S
C348 C350 1.395 . S
C348 C351 1.403 . S
H349 C355 0.930 . S
C350 H336 0.930 . S
C350 C348 1.395 . S
C350 C353 1.403 1_556 S
C351 C348 1.403 . S
C351 C352 1.524 . S
C351 C355 1.399 1_556 S
C352 H337 0.960 1_556 S
C352 H338 0.960 1_556 S
C352 H339 0.960 . S
C352 C351 1.524 . S
C353 C350 1.403 1_554 S
C353 C354 1.392 . S
C353 C357 1.495 . S
C354 C353 1.392 . S
C354 C355 1.385 . S
C354 C356 1.478 . S
C355 H349 0.930 . S
C355 C351 1.399 1_554 S
C355 C354 1.385 . S
C356 C354 1.478 . S
C356 C358 1.381 . S
C356 C362 1.383 . S
C357 C353 1.495 . S
C357 H363 0.959 . S
C357 H364 0.961 1_554 S
C357 H365 0.960 . S
C358 C356 1.381 . S
C358 C359 1.394 . S
C358 H366 0.930 . S
C359 C358 1.394 . S
C359 C360 1.383 . S
C359 H367 0.929 . S
C360 C359 1.383 . S
C360 C361 1.377 . S
C361 H345 0.930 . S
C361 C360 1.377 . S
C361 C362 1.379 . S
C362 H346 0.931 1_554 S
C362 C356 1.383 . S
C362 C361 1.379 . S
H363 C357 0.959 . S
H364 C357 0.961 1_556 S
H365 C357 0.960 . S
H366 C358 0.930 . S
H367 C359 0.929 . S
H368 C376 0.929 . S
H369 C378 0.930 . S
H370 C380 0.930 . S
H371 C383 0.929 . S
H372 C386 0.930 . S
H373 C388 0.960 . S
H374 C388 0.960 . S
H375 C388 0.960 . S
C376 H368 0.929 . S
C376 C377 1.377 . S
C376 C378 1.384 . S
C377 C376 1.377 . S
C377 C383 1.390 . S
C378 H369 0.930 . S
C378 C376 1.384 . S
C378 C379 1.372 . S
C379 C378 1.372 . S
C379 C380 1.400 . S
C379 C384 1.490 . S
C380 H370 0.930 . S
C380 C379 1.400 . S
C380 C383 1.386 . S
H381 C397 0.930 . S
H382 C398 0.931 . S
C383 H371 0.929 . S
C383 C377 1.390 . S
C383 C380 1.386 . S
C384 C379 1.490 . S
C384 C386 1.395 . S
C384 C387 1.403 . S
H385 C391 0.930 . S
C386 H372 0.930 . S
C386 C384 1.395 . S
C386 C389 1.403 . S
C387 C384 1.403 . S
C387 C388 1.524 . S
C387 C391 1.400 . S
C388 H373 0.960 . S
C388 H374 0.960 . S
C388 H375 0.960 . S
C388 C387 1.524 . S
C389 C386 1.403 . S
C389 C390 1.392 . S
C389 C393 1.495 . S
C390 C389 1.392 . S
C390 C391 1.385 . S
C390 C392 1.478 . S
C391 H385 0.930 . S
C391 C387 1.400 . S
C391 C390 1.385 . S
C392 C390 1.478 . S
C392 C394 1.381 . S
C392 C398 1.383 . S
C393 C389 1.495 . S
C393 H399 0.959 . S
C393 H400 0.961 . S
C393 H401 0.960 . S
C394 C392 1.381 . S
C394 C395 1.394 . S
C394 H402 0.930 . S
C395 C394 1.394 . S
C395 C396 1.383 . S
C395 H403 0.929 . S
C396 C395 1.383 . S
C396 C397 1.377 . S
C397 H381 0.930 . S
C397 C396 1.377 . S
C397 C398 1.379 . S
C398 H382 0.931 . S
C398 C392 1.383 . S
C398 C397 1.379 . S
H399 C393 0.959 . S
H400 C393 0.961 . S
H401 C393 0.960 . S
H402 C394 0.930 . S
H403 C395 0.929 . S
H404 C412 0.929 . S
H405 C414 0.930 . S
H406 C416 0.930 . S
H407 C419 0.929 . S
H408 C422 0.930 . S
H409 C424 0.960 . S
H410 C424 0.960 . S
H411 C424 0.960 . S
C412 H404 0.929 . S
C412 C413 1.377 . S
C412 C414 1.384 . S
C413 C412 1.377 . S
C413 C419 1.390 . S
C414 H405 0.930 . S
C414 C412 1.384 . S
C414 C415 1.372 . S
C415 C414 1.372 . S
C415 C416 1.400 . S
C415 C420 1.490 . S
C416 H406 0.930 . S
C416 C415 1.400 . S
C416 C419 1.386 . S
H417 C433 0.930 . S
H418 C434 0.931 . S
C419 H407 0.929 . S
C419 C413 1.390 . S
C419 C416 1.386 . S
C420 C415 1.490 . S
C420 C422 1.395 . S
C420 C423 1.403 . S
H421 C427 0.930 . S
C422 H408 0.930 . S
C422 C420 1.395 . S
C422 C425 1.403 . S
C423 C420 1.403 . S
C423 C424 1.524 . S
C423 C427 1.400 . S
C424 H409 0.960 . S
C424 H410 0.960 . S
C424 H411 0.960 . S
C424 C423 1.524 . S
C425 C422 1.403 . S
C425 C426 1.392 . S
C425 C429 1.495 . S
C426 C425 1.392 . S
C426 C427 1.385 . S
C426 C428 1.478 . S
C427 H421 0.930 . S
C427 C423 1.400 . S
C427 C426 1.385 . S
C428 C426 1.478 . S
C428 C430 1.381 . S
C428 C434 1.383 . S
C429 C425 1.495 . S
C429 H435 0.959 . S
C429 H436 0.961 . S
C429 H437 0.960 . S
C430 C428 1.381 . S
C430 C431 1.394 . S
C430 H438 0.930 . S
C431 C430 1.394 . S
C431 C432 1.383 . S
C431 H439 0.929 . S
C432 C431 1.383 . S
C432 C433 1.377 . S
C433 H417 0.930 . S
C433 C432 1.377 . S
C433 C434 1.379 . S
C434 H418 0.931 . S
C434 C428 1.383 . S
C434 C433 1.379 . S
H435 C429 0.959 . S
H436 C429 0.961 . S
H437 C429 0.960 . S
H438 C430 0.930 . S
H439 C431 0.929 . S
H440 C448 0.929 . S
H441 C450 0.930 . S
H442 C452 0.930 . S
H443 C455 0.929 . S
H444 C458 0.930 . S
H445 C460 0.960 . S
H446 C460 0.960 . S
H447 C460 0.960 . S
C448 H440 0.929 . S
C448 C449 1.377 . S
C448 C450 1.384 . S
C449 C448 1.377 . S
C449 C455 1.390 . S
C450 H441 0.930 . S
C450 C448 1.384 . S
C450 C451 1.372 . S
C451 C450 1.372 . S
C451 C452 1.400 . S
C451 C456 1.490 . S
C452 H442 0.930 . S
C452 C451 1.400 . S
C452 C455 1.386 . S
H453 C469 0.930 . S
H454 C470 0.931 . S
C455 H443 0.929 . S
C455 C449 1.390 . S
C455 C452 1.386 . S
C456 C451 1.490 . S
C456 C458 1.395 . S
C456 C459 1.403 . S
H457 C463 0.930 . S
C458 H444 0.930 . S
C458 C456 1.395 . S
C458 C461 1.403 . S
C459 C456 1.403 . S
C459 C460 1.524 . S
C459 C463 1.400 . S
C460 H445 0.960 . S
C460 H446 0.960 . S
C460 H447 0.960 . S
C460 C459 1.524 . S
C461 C458 1.403 . S
C461 C462 1.392 . S
C461 C465 1.495 . S
C462 C461 1.392 . S
C462 C463 1.385 . S
C462 C464 1.478 . S
C463 H457 0.930 . S
C463 C459 1.400 . S
C463 C462 1.385 . S
C464 C462 1.478 . S
C464 C466 1.381 . S
C464 C470 1.383 . S
C465 C461 1.495 . S
C465 H471 0.959 . S
C465 H472 0.961 . S
C465 H473 0.960 . S
C466 C464 1.381 . S
C466 C467 1.394 . S
C466 H474 0.930 . S
C467 C466 1.394 . S
C467 C468 1.383 . S
C467 H475 0.929 . S
C468 C467 1.383 . S
C468 C469 1.377 . S
C469 H453 0.930 . S
C469 C468 1.377 . S
C469 C470 1.379 . S
C470 H454 0.931 . S
C470 C464 1.383 . S
C470 C469 1.379 . S
H471 C465 0.959 . S
H472 C465 0.961 . S
H473 C465 0.960 . S
H474 C466 0.930 . S
H475 C467 0.929 . S
H476 C484 0.929 . S
H477 C486 0.930 . S
H478 C488 0.930 . S
H479 C491 0.929 . S
H480 C494 0.930 . S
H481 C496 0.960 . S
H482 C496 0.960 . S
H483 C496 0.960 . S
C484 H476 0.929 . S
C484 C485 1.377 . S
C484 C486 1.384 . S
C485 C484 1.377 . S
C485 C491 1.390 . S
C486 H477 0.930 . S
C486 C484 1.384 . S
C486 C487 1.372 . S
C487 C486 1.372 . S
C487 C488 1.400 . S
C487 C492 1.490 . S
C488 H478 0.930 . S
C488 C487 1.400 . S
C488 C491 1.386 . S
H489 C505 0.930 . S
H490 C506 0.931 . S
C491 H479 0.929 . S
C491 C485 1.390 . S
C491 C488 1.386 . S
C492 C487 1.490 . S
C492 C494 1.395 . S
C492 C495 1.403 . S
H493 C499 0.930 . S
C494 H480 0.930 . S
C494 C492 1.395 . S
C494 C497 1.403 . S
C495 C492 1.403 . S
C495 C496 1.524 . S
C495 C499 1.400 . S
C496 H481 0.960 . S
C496 H482 0.960 . S
C496 H483 0.960 . S
C496 C495 1.524 . S
C497 C494 1.403 . S
C497 C498 1.392 . S
C497 C501 1.495 . S
C498 C497 1.392 . S
C498 C499 1.385 . S
C498 C500 1.478 . S
C499 H493 0.930 . S
C499 C495 1.400 . S
C499 C498 1.385 . S
C500 C498 1.478 . S
C500 C502 1.381 . S
C500 C506 1.383 . S
C501 C497 1.495 . S
C501 H507 0.959 . S
C501 H508 0.961 . S
C501 H509 0.960 . S
C502 C500 1.381 . S
C502 C503 1.394 . S
C502 H510 0.930 . S
C503 C502 1.394 . S
C503 C504 1.383 . S
C503 H511 0.929 . S
C504 C503 1.383 . S
C504 C505 1.377 . S
C505 H489 0.930 . S
C505 C504 1.377 . S
C505 C506 1.379 . S
C506 H490 0.931 . S
C506 C500 1.383 . S
C506 C505 1.379 . S
H507 C501 0.959 . S
H508 C501 0.961 . S
H509 C501 0.960 . S
H510 C502 0.930 . S
H511 C503 0.929 . S
H512 C520 0.929 . S
H513 C522 0.930 1_554 S
H514 C524 0.930 . S
H515 C527 0.929 . S
H516 C530 0.930 . S
H517 C532 0.972 . S
H518 C532 0.983 . S
H519 C532 0.928 1_556 S
C520 H512 0.929 . S
C520 C521 1.377 . S
C520 C522 1.384 . S
C521 C520 1.377 . S
C521 C527 1.390 . S
C522 H513 0.930 1_556 S
C522 C520 1.384 . S
C522 C523 1.372 . S
C523 C522 1.372 . S
C523 C524 1.400 . S
C523 C528 1.490 . S
C524 H514 0.930 . S
C524 C523 1.400 . S
C524 C527 1.386 . S
H525 C541 0.930 . S
H526 C542 0.931 1_556 S
C527 H515 0.929 . S
C527 C521 1.390 . S
C527 C524 1.386 . S
C528 C523 1.490 . S
C528 C530 1.395 . S
C528 C531 1.412 . S
H529 C535 0.930 . S
C530 H516 0.930 . S
C530 C528 1.395 . S
C530 C533 1.406 . S
C531 C528 1.412 . S
C531 C532 1.522 1_556 S
C531 C535 1.392 1_556 S
C532 H517 0.972 . S
C532 H518 0.983 . S
C532 H519 0.928 1_554 S
C532 C531 1.522 1_554 S
C533 C530 1.406 . S
C533 C534 1.390 1_556 S
C533 C537 1.495 . S
C534 C533 1.390 1_554 S
C534 C535 1.385 . S
C534 C536 1.478 . S
C535 H529 0.930 . S
C535 C531 1.392 1_554 S
C535 C534 1.385 . S
C536 C534 1.478 . S
C536 C538 1.381 . S
C536 C542 1.383 . S
C537 C533 1.495 . S
C537 H543 0.968 . S
C537 H544 0.978 . S
C537 H545 0.935 1_556 S
C538 C536 1.381 . S
C538 C539 1.394 . S
C538 H546 0.930 . S
C539 C538 1.394 . S
C539 C540 1.383 . S
C539 H547 0.929 . S
C540 C539 1.383 . S
C540 C541 1.377 . S
C541 H525 0.930 . S
C541 C540 1.377 . S
C541 C542 1.379 . S
C542 H526 0.931 1_554 S
C542 C536 1.383 . S
C542 C541 1.379 . S
H543 C537 0.968 . S
H544 C537 0.978 . S
H545 C537 0.935 1_554 S
H546 C538 0.930 . S
H547 C539 0.929 . S
H548 C556 0.929 . S
H549 C558 0.930 . S
H550 C560 0.930 1_554 S
H551 C563 0.929 . S
H552 C566 0.930 . S
H553 C568 0.960 . S
H554 C568 0.960 . S
H555 C568 0.960 . S
C556 H548 0.929 . S
C556 C557 1.377 . S
C556 C558 1.384 . S
C557 C556 1.377 . S
C557 C563 1.390 . S
C558 H549 0.930 . S
C558 C556 1.384 . S
C558 C559 1.372 . S
C559 C558 1.372 . S
C559 C560 1.400 . S
C559 C564 1.490 . S
C560 H550 0.930 1_556 S
C560 C559 1.400 . S
C560 C563 1.386 . S
H561 C577 0.930 . S
H562 C578 0.931 . S
C563 H551 0.929 . S
C563 C557 1.390 . S
C563 C560 1.386 . S
C564 C559 1.490 . S
C564 C566 1.395 . S
C564 C567 1.403 1_556 S
H565 C571 0.930 . S
C566 H552 0.930 . S
C566 C564 1.395 . S
C566 C569 1.403 . S
C567 C564 1.403 1_554 S
C567 C568 1.524 . S
C567 C571 1.400 . S
C568 H553 0.960 . S
C568 H554 0.960 . S
C568 H555 0.960 . S
C568 C567 1.524 . S
C569 C566 1.403 . S
C569 C570 1.392 1_556 S
C569 C573 1.495 . S
C570 C569 1.392 1_554 S
C570 C571 1.385 . S
C570 C572 1.478 . S
C571 H565 0.930 . S
C571 C567 1.400 . S
C571 C570 1.385 . S
C572 C570 1.478 . S
C572 C574 1.368 1_554 S
C572 C578 1.383 . S
C573 C569 1.495 . S
C573 H579 0.959 . S
C573 H580 0.961 . S
C573 H581 0.960 . S
C574 C572 1.368 1_556 S
C574 C575 1.385 1_556 S
C574 H582 0.953 . S
C575 C574 1.385 1_554 S
C575 C576 1.383 . S
C575 H583 0.931 . S
C576 C575 1.383 . S
C576 C577 1.377 . S
C577 H561 0.930 . S
C577 C576 1.377 . S
C577 C578 1.379 . S
C578 H562 0.931 . S
C578 C572 1.383 . S
C578 C577 1.379 . S
H579 C573 0.959 . S
H580 C573 0.961 . S
H581 C573 0.960 . S
H582 C574 0.953 . S
H583 C575 0.931 . S
H584 C592 0.929 . S
H585 C594 0.930 . S
H586 C596 0.930 . S
H587 C599 0.929 . S
H588 C602 0.930 . S
H589 C604 0.960 . S
H590 C604 0.960 . S
H591 C604 0.960 . S
C592 H584 0.929 . S
C592 C593 1.377 . S
C592 C594 1.384 . S
C593 C592 1.377 . S
C593 C599 1.390 . S
C594 H585 0.930 . S
C594 C592 1.384 . S
C594 C595 1.372 . S
C595 C594 1.372 . S
C595 C596 1.400 . S
C595 C600 1.490 . S
C596 H586 0.930 . S
C596 C595 1.400 . S
C596 C599 1.386 . S
H597 C613 0.930 . S
H598 C614 0.931 . S
C599 H587 0.929 . S
C599 C593 1.390 . S
C599 C596 1.386 . S
C600 C595 1.490 . S
C600 C602 1.395 1_556 S
C600 C603 1.403 . S
H601 C607 0.930 . S
C602 H588 0.930 . S
C602 C600 1.395 1_554 S
C602 C605 1.403 . S
C603 C600 1.403 . S
C603 C604 1.524 . S
C603 C607 1.400 . S
C604 H589 0.960 . S
C604 H590 0.960 . S
C604 H591 0.960 . S
C604 C603 1.524 . S
C605 C602 1.403 . S
C605 C606 1.392 . S
C605 C609 1.495 . S
C606 C605 1.392 . S
C606 C607 1.385 1_554 S
C606 C608 1.478 . S
C607 H601 0.930 . S
C607 C603 1.400 . S
C607 C606 1.385 1_556 S
C608 C606 1.478 . S
C608 C610 1.381 . S
C608 C614 1.383 . S
C609 C605 1.495 . S
C609 H615 0.959 . S
C609 H616 0.961 . S
C609 H617 0.960 . S
C610 C608 1.381 . S
C610 C611 1.394 . S
C610 H618 0.930 . S
C611 C610 1.394 . S
C611 C612 1.383 . S
C611 H619 0.929 . S
C612 C611 1.383 . S
C612 C613 1.377 . S
C613 H597 0.930 . S
C613 C612 1.377 . S
C613 C614 1.379 . S
C614 H598 0.931 . S
C614 C608 1.383 . S
C614 C613 1.379 . S
H615 C609 0.959 . S
H616 C609 0.961 . S
H617 C609 0.960 . S
H618 C610 0.930 . S
H619 C611 0.929 . S
H620 C628 0.929 . S
H621 C630 0.930 . S
H622 C632 0.930 1_556 S
H623 C635 0.929 . S
H624 C638 0.930 . S
H625 C640 0.960 . S
H626 C640 0.960 . S
H627 C640 0.960 . S
C628 H620 0.929 . S
C628 C629 1.377 . S
C628 C630 1.384 . S
C629 C628 1.377 . S
C629 C635 1.390 . S
C630 H621 0.930 . S
C630 C628 1.384 . S
C630 C631 1.372 . S
C631 C630 1.372 . S
C631 C632 1.400 . S
C631 C636 1.490 . S
C632 H622 0.930 1_554 S
C632 C631 1.400 . S
C632 C635 1.386 . S
H633 C649 0.930 . S
H634 C650 0.931 . S
C635 H623 0.929 . S
C635 C629 1.390 . S
C635 C632 1.386 . S
C636 C631 1.490 . S
C636 C638 1.395 . S
C636 C639 1.403 1_554 S
H637 C643 0.930 . S
C638 H624 0.930 . S
C638 C636 1.395 . S
C638 C641 1.403 . S
C639 C636 1.403 1_556 S
C639 C640 1.524 . S
C639 C643 1.400 . S
C640 H625 0.960 . S
C640 H626 0.960 . S
C640 H627 0.960 . S
C640 C639 1.524 . S
C641 C638 1.403 . S
C641 C642 1.392 1_554 S
C641 C645 1.495 . S
C642 C641 1.392 1_556 S
C642 C643 1.385 . S
C642 C644 1.478 . S
C643 H637 0.930 . S
C643 C639 1.400 . S
C643 C642 1.385 . S
C644 C642 1.478 . S
C644 C646 1.381 . S
C644 C650 1.383 . S
C645 C641 1.495 . S
C645 H651 0.959 . S
C645 H652 0.961 . S
C645 H653 0.960 . S
C646 C644 1.381 . S
C646 C647 1.394 . S
C646 H654 0.930 1_556 S
C647 C646 1.394 . S
C647 C648 1.383 . S
C647 H655 0.929 . S
C648 C647 1.383 . S
C648 C649 1.377 . S
C649 H633 0.930 . S
C649 C648 1.377 . S
C649 C650 1.379 . S
C650 H634 0.931 . S
C650 C644 1.383 . S
C650 C649 1.379 . S
H651 C645 0.959 . S
H652 C645 0.961 . S
H653 C645 0.960 . S
H654 C646 0.930 1_554 S
H655 C647 0.929 . S
H656 C664 0.929 . S
H657 C666 0.930 . S
H658 C668 0.930 . S
H659 C671 0.929 . S
H660 C674 0.930 . S
H661 C676 0.960 . S
H662 C676 0.960 . S
H663 C676 0.960 . S
C664 H656 0.929 . S
C664 C665 1.377 . S
C664 C666 1.384 . S
C665 C664 1.377 . S
C665 C671 1.390 . S
C666 H657 0.930 . S
C666 C664 1.384 . S
C666 C667 1.372 . S
C667 C666 1.372 . S
C667 C668 1.400 . S
C667 C672 1.490 . S
C668 H658 0.930 . S
C668 C667 1.400 . S
C668 C671 1.386 . S
H669 C685 0.930 . S
H670 C686 0.931 . S
C671 H659 0.929 . S
C671 C665 1.390 . S
C671 C668 1.386 . S
C672 C667 1.490 . S
C672 C674 1.395 . S
C672 C675 1.403 . S
H673 C679 0.930 . S
C674 H660 0.930 . S
C674 C672 1.395 . S
C674 C677 1.403 . S
C675 C672 1.403 . S
C675 C676 1.524 . S
C675 C679 1.400 . S
C676 H661 0.960 . S
C676 H662 0.960 . S
C676 H663 0.960 . S
C676 C675 1.524 . S
C677 C674 1.403 . S
C677 C678 1.392 . S
C677 C681 1.495 . S
C678 C677 1.392 . S
C678 C679 1.385 . S
C678 C680 1.478 . S
C679 H673 0.930 . S
C679 C675 1.400 . S
C679 C678 1.385 . S
C680 C678 1.478 . S
C680 C682 1.381 . S
C680 C686 1.383 . S
C681 C677 1.495 . S
C681 H687 0.959 . S
C681 H688 0.961 . S
C681 H689 0.960 . S
C682 C680 1.381 . S
C682 C683 1.394 . S
C682 H690 0.930 . S
C683 C682 1.394 . S
C683 C684 1.383 . S
C683 H691 0.929 . S
C684 C683 1.383 . S
C684 C685 1.377 . S
C685 H669 0.930 . S
C685 C684 1.377 . S
C685 C686 1.379 . S
C686 H670 0.931 . S
C686 C680 1.383 . S
C686 C685 1.379 . S
H687 C681 0.959 . S
H688 C681 0.961 . S
H689 C681 0.960 . S
H690 C682 0.930 . S
H691 C683 0.929 . S
H692 C700 0.929 . S
H693 C702 0.930 . S
H694 C704 0.930 . S
H695 C707 0.929 . S
H696 C710 0.930 . S
H697 C712 0.960 . S
H698 C712 0.960 . S
H699 C712 0.960 . S
C700 H692 0.929 . S
C700 C701 1.377 . S
C700 C702 1.384 . S
C701 C700 1.377 . S
C701 C707 1.390 . S
C702 H693 0.930 . S
C702 C700 1.384 . S
C702 C703 1.372 . S
C703 C702 1.372 . S
C703 C704 1.400 . S
C703 C708 1.490 . S
C704 H694 0.930 . S
C704 C703 1.400 . S
C704 C707 1.386 . S
H705 C721 0.930 . S
H706 C722 0.931 . S
C707 H695 0.929 . S
C707 C701 1.390 . S
C707 C704 1.386 . S
C708 C703 1.490 . S
C708 C710 1.395 . S
C708 C711 1.403 . S
H709 C715 0.930 . S
C710 H696 0.930 . S
C710 C708 1.395 . S
C710 C713 1.403 . S
C711 C708 1.403 . S
C711 C712 1.524 . S
C711 C715 1.400 . S
C712 H697 0.960 . S
C712 H698 0.960 . S
C712 H699 0.960 . S
C712 C711 1.524 . S
C713 C710 1.403 . S
C713 C714 1.392 . S
C713 C717 1.495 . S
C714 C713 1.392 . S
C714 C715 1.385 . S
C714 C716 1.478 . S
C715 H709 0.930 . S
C715 C711 1.400 . S
C715 C714 1.385 . S
C716 C714 1.478 . S
C716 C718 1.381 . S
C716 C722 1.383 . S
C717 C713 1.495 . S
C717 H723 0.959 . S
C717 H724 0.961 . S
C717 H725 0.960 . S
C718 C716 1.381 . S
C718 C719 1.394 . S
C718 H726 0.930 . S
C719 C718 1.394 . S
C719 C720 1.383 . S
C719 H727 0.929 . S
C720 C719 1.383 . S
C720 C721 1.377 . S
C721 H705 0.930 . S
C721 C720 1.377 . S
C721 C722 1.379 . S
C722 H706 0.931 . S
C722 C716 1.383 . S
C722 C721 1.379 . S
H723 C717 0.959 . S
H724 C717 0.961 . S
H725 C717 0.960 . S
H726 C718 0.930 . S
H727 C719 0.929 . S
H728 C736 0.929 . S
H729 C738 0.930 . S
H730 C740 0.930 . S
H731 C743 0.929 . S
H732 C746 0.930 . S
H733 C748 0.960 . S
H734 C748 0.960 . S
H735 C748 0.960 . S
C736 H728 0.929 . S
C736 C737 1.377 . S
C736 C738 1.384 . S
C737 C736 1.377 . S
C737 C743 1.390 . S
C738 H729 0.930 . S
C738 C736 1.384 . S
C738 C739 1.372 . S
C739 C738 1.372 . S
C739 C740 1.400 . S
C739 C744 1.490 . S
C740 H730 0.930 . S
C740 C739 1.400 . S
C740 C743 1.386 . S
H741 C757 0.930 . S
H742 C758 0.931 . S
C743 H731 0.929 . S
C743 C737 1.390 . S
C743 C740 1.386 . S
C744 C739 1.490 . S
C744 C746 1.395 . S
C744 C747 1.403 . S
H745 C751 0.930 . S
C746 H732 0.930 . S
C746 C744 1.395 . S
C746 C749 1.403 . S
C747 C744 1.403 . S
C747 C748 1.524 . S
C747 C751 1.400 . S
C748 H733 0.960 . S
C748 H734 0.960 . S
C748 H735 0.960 . S
C748 C747 1.524 . S
C749 C746 1.403 . S
C749 C750 1.392 . S
C749 C753 1.495 . S
C750 C749 1.392 . S
C750 C751 1.385 . S
C750 C752 1.478 . S
C751 H745 0.930 . S
C751 C747 1.400 . S
C751 C750 1.385 . S
C752 C750 1.478 . S
C752 C754 1.381 . S
C752 C758 1.383 . S
C753 C749 1.495 . S
C753 H759 0.959 . S
C753 H760 0.961 . S
C753 H761 0.960 . S
C754 C752 1.381 . S
C754 C755 1.394 . S
C754 H762 0.930 . S
C755 C754 1.394 . S
C755 C756 1.383 . S
C755 H763 0.929 . S
C756 C755 1.383 . S
C756 C757 1.377 . S
C757 H741 0.930 . S
C757 C756 1.377 . S
C757 C758 1.379 . S
C758 H742 0.931 . S
C758 C752 1.383 . S
C758 C757 1.379 . S
H759 C753 0.959 . S
H760 C753 0.961 . S
H761 C753 0.960 . S
H762 C754 0.930 . S
H763 C755 0.929 . S
H764 C772 0.929 . S
H765 C774 0.930 . S
H766 C776 0.930 . S
H767 C779 0.929 . S
H768 C782 0.930 . S
H769 C784 0.960 . S
H770 C784 0.960 . S
H771 C784 0.960 . S
C772 H764 0.929 . S
C772 C773 1.377 . S
C772 C774 1.384 . S
C773 C772 1.377 . S
C773 C779 1.390 . S
C774 H765 0.930 . S
C774 C772 1.384 . S
C774 C775 1.372 . S
C775 C774 1.372 . S
C775 C776 1.400 . S
C775 C780 1.490 . S
C776 H766 0.930 . S
C776 C775 1.400 . S
C776 C779 1.386 . S
H777 C793 0.930 . S
H778 C794 0.931 . S
C779 H767 0.929 . S
C779 C773 1.390 . S
C779 C776 1.386 . S
C780 C775 1.490 . S
C780 C782 1.395 . S
C780 C783 1.403 . S
H781 C787 0.930 . S
C782 H768 0.930 . S
C782 C780 1.395 . S
C782 C785 1.403 . S
C783 C780 1.403 . S
C783 C784 1.524 . S
C783 C787 1.400 . S
C784 H769 0.960 . S
C784 H770 0.960 . S
C784 H771 0.960 . S
C784 C783 1.524 . S
C785 C782 1.403 . S
C785 C786 1.392 . S
C785 C789 1.495 . S
C786 C785 1.392 . S
C786 C787 1.385 . S
C786 C788 1.478 . S
C787 H781 0.930 . S
C787 C783 1.400 . S
C787 C786 1.385 . S
C788 C786 1.478 . S
C788 C790 1.381 . S
C788 C794 1.383 . S
C789 C785 1.495 . S
C789 H795 0.959 . S
C789 H796 0.961 . S
C789 H797 0.960 . S
C790 C788 1.381 . S
C790 C791 1.394 . S
C790 H798 0.930 . S
C791 C790 1.394 . S
C791 C792 1.383 . S
C791 H799 0.929 . S
C792 C791 1.383 . S
C792 C793 1.377 . S
C793 H777 0.930 . S
C793 C792 1.377 . S
C793 C794 1.379 . S
C794 H778 0.931 . S
C794 C788 1.383 . S
C794 C793 1.379 . S
H795 C789 0.959 . S
H796 C789 0.961 . S
H797 C789 0.960 . S
H798 C790 0.930 . S
H799 C791 0.929 . S
H800 C808 0.929 . S
H801 C810 0.930 . S
H802 C812 0.930 . S
H803 C815 0.929 . S
H804 C818 0.930 . S
H805 C820 0.960 . S
H806 C820 0.960 . S
H807 C820 0.960 . S
C808 H800 0.929 . S
C808 C809 1.377 . S
C808 C810 1.384 . S
C809 C808 1.377 . S
C809 C815 1.390 . S
C810 H801 0.930 . S
C810 C808 1.384 . S
C810 C811 1.372 . S
C811 C810 1.372 . S
C811 C812 1.400 . S
C811 C816 1.490 . S
C812 H802 0.930 . S
C812 C811 1.400 . S
C812 C815 1.386 . S
H813 C829 0.930 . S
H814 C830 0.958 . S
C815 H803 0.929 . S
C815 C809 1.390 . S
C815 C812 1.386 . S
C816 C811 1.490 . S
C816 C818 1.395 . S
C816 C819 1.403 1_556 S
H817 C823 0.930 . S
C818 H804 0.930 . S
C818 C816 1.395 . S
C818 C821 1.403 1_565 S
C819 C816 1.403 1_554 S
C819 C820 1.524 . S
C819 C823 1.400 1_565 S
C820 H805 0.960 . S
C820 H806 0.960 . S
C820 H807 0.960 . S
C820 C819 1.524 . S
C821 C818 1.403 1_545 S
C821 C822 1.392 1_556 S
C821 C825 1.495 . S
C822 C821 1.392 1_554 S
C822 C823 1.385 . S
C822 C824 1.478 . S
C823 H817 0.930 . S
C823 C819 1.400 1_545 S
C823 C822 1.385 . S
C824 C822 1.478 . S
C824 C826 1.381 . S
C824 C830 1.383 . S
C825 C821 1.495 . S
C825 H831 0.959 . S
C825 H832 0.961 . S
C825 H833 0.960 . S
C826 C824 1.381 . S
C826 C827 1.394 . S
C826 H834 0.930 . S
C827 C826 1.394 . S
C827 C828 1.383 . S
C827 H835 0.929 . S
C828 C827 1.383 . S
C828 C829 1.377 . S
C829 H813 0.930 . S
C829 C828 1.377 . S
C829 C830 1.379 . S
C830 H814 0.958 . S
C830 C824 1.383 . S
C830 C829 1.379 . S
H831 C825 0.959 . S
H832 C825 0.961 . S
H833 C825 0.960 . S
H834 C826 0.930 . S
H835 C827 0.929 . S
H836 C844 0.929 . S
H837 C846 0.930 . S
H838 C848 0.930 . S
H839 C851 0.929 . S
H840 C854 0.930 . S
H841 C856 0.960 . S
H842 C856 0.960 . S
H843 C856 0.960 . S
C844 H836 0.929 . S
C844 C845 1.377 . S
C844 C846 1.384 . S
C845 C844 1.377 . S
C845 C851 1.390 . S
C846 H837 0.930 . S
C846 C844 1.384 . S
C846 C847 1.372 . S
C847 C846 1.372 . S
C847 C848 1.400 . S
C847 C852 1.490 . S
C848 H838 0.930 . S
C848 C847 1.400 . S
C848 C851 1.386 . S
H849 C865 0.930 . S
H850 C866 0.931 . S
C851 H839 0.929 . S
C851 C845 1.390 . S
C851 C848 1.386 . S
C852 C847 1.490 . S
C852 C854 1.395 . S
C852 C855 1.403 1_554 S
H853 C859 0.930 . S
C854 H840 0.930 . S
C854 C852 1.395 . S
C854 C857 1.403 . S
C855 C852 1.403 1_556 S
C855 C856 1.524 . S
C855 C859 1.400 . S
C856 H841 0.960 . S
C856 H842 0.960 . S
C856 H843 0.960 . S
C856 C855 1.524 . S
C857 C854 1.403 . S
C857 C858 1.392 1_554 S
C857 C861 1.495 . S
C858 C857 1.392 1_556 S
C858 C859 1.385 . S
C858 C860 1.478 . S
C859 H853 0.930 . S
C859 C855 1.400 . S
C859 C858 1.385 . S
C860 C858 1.478 . S
C860 C862 1.381 . S
C860 C866 1.383 . S
C861 C857 1.495 . S
C861 H867 0.959 . S
C861 H868 0.961 . S
C861 H869 0.960 . S
C862 C860 1.381 . S
C862 C863 1.394 . S
C862 H870 0.930 . S
C863 C862 1.394 . S
C863 C864 1.383 . S
C863 H871 0.929 . S
C864 C863 1.383 . S
C864 C865 1.377 . S
C865 H849 0.930 . S
C865 C864 1.377 . S
C865 C866 1.379 . S
C866 H850 0.931 . S
C866 C860 1.383 . S
C866 C865 1.379 . S
H867 C861 0.959 . S
H868 C861 0.961 . S
H869 C861 0.960 . S
H870 C862 0.930 . S
H871 C863 0.929 . S
H872 C880 0.929 . S
H873 C882 0.930 . S
H874 C884 0.930 1_554 S
H875 C887 0.929 . S
H876 C890 0.930 . S
H877 C892 0.960 . S
H878 C892 0.960 . S
H879 C892 0.960 1_455 S
C880 H872 0.929 . S
C880 C881 1.377 1_655 S
C880 C882 1.384 . S
C881 C880 1.377 1_455 S
C881 C887 1.390 . S
C882 H873 0.930 . S
C882 C880 1.384 . S
C882 C883 1.372 1_655 S
C883 C882 1.372 1_455 S
C883 C884 1.400 . S
C883 C888 1.490 . S
C884 H874 0.930 1_556 S
C884 C883 1.400 . S
C884 C887 1.386 . S
H885 C901 0.930 . S
H886 C902 0.931 . S
C887 H875 0.929 . S
C887 C881 1.390 . S
C887 C884 1.386 . S
C888 C883 1.490 . S
C888 C890 1.395 . S
C888 C891 1.403 1_456 S
H889 C895 0.930 . S
C890 H876 0.930 . S
C890 C888 1.395 . S
C890 C893 1.403 . S
C891 C888 1.403 1_654 S
C891 C892 1.524 . S
C891 C895 1.400 . S
C892 H877 0.960 . S
C892 H878 0.960 . S
C892 H879 0.960 1_655 S
C892 C891 1.524 . S
C893 C890 1.403 . S
C893 C894 1.392 1_456 S
C893 C897 1.495 . S
C894 C893 1.392 1_654 S
C894 C895 1.385 . S
C894 C896 1.478 . S
C895 H889 0.930 . S
C895 C891 1.400 . S
C895 C894 1.385 . S
C896 C894 1.478 . S
C896 C898 1.381 . S
C896 C902 1.383 1_655 S
C897 C893 1.495 . S
C897 H903 0.959 . S
C897 H904 0.961 . S
C897 H905 0.960 1_455 S
C898 C896 1.381 . S
C898 C899 1.394 . S
C898 H906 0.930 1_554 S
C899 C898 1.394 . S
C899 C900 1.383 . S
C899 H907 0.929 . S
C900 C899 1.383 . S
C900 C901 1.377 1_655 S
C901 H885 0.930 . S
C901 C900 1.377 1_455 S
C901 C902 1.379 . S
C902 H886 0.931 . S
C902 C896 1.383 1_455 S
C902 C901 1.379 . S
H903 C897 0.959 . S
H904 C897 0.961 . S
H905 C897 0.960 1_655 S
H906 C898 0.930 1_556 S
H907 C899 0.929 . S
H908 C916 0.929 . S
H909 C918 0.930 . S
H910 C920 0.930 . S
H911 C923 0.929 . S
H912 C926 0.930 . S
H913 C928 0.960 . S
H914 C928 0.958 . S
H915 C928 0.960 . S
C916 H908 0.929 . S
C916 C917 1.377 . S
C916 C918 1.384 . S
C917 C916 1.377 . S
C917 C923 1.390 1_565 S
C918 H909 0.930 . S
C918 C916 1.384 . S
C918 C919 1.372 . S
C919 C918 1.372 . S
C919 C920 1.400 1_565 S
C919 C924 1.490 . S
C920 H910 0.930 . S
C920 C919 1.400 1_545 S
C920 C923 1.386 . S
H921 C937 0.930 . S
H922 C938 0.931 . S
C923 H911 0.929 . S
C923 C917 1.390 1_545 S
C923 C920 1.386 . S
C924 C919 1.490 . S
C924 C926 1.395 . S
C924 C927 1.403 1_564 S
H925 C931 0.930 . S
C926 H912 0.930 . S
C926 C924 1.395 . S
C926 C929 1.403 1_455 S
C927 C924 1.403 1_546 S
C927 C928 1.524 . S
C927 C931 1.400 1_455 S
C928 H913 0.960 . S
C928 H914 0.958 . S
C928 H915 0.960 . S
C928 C927 1.524 . S
C929 C926 1.403 1_655 S
C929 C930 1.392 1_564 S
C929 C933 1.495 . S
C930 C929 1.392 1_546 S
C930 C931 1.385 . S
C930 C932 1.478 . S
C931 H925 0.930 . S
C931 C927 1.400 1_655 S
C931 C930 1.385 . S
C932 C930 1.478 . S
C932 C934 1.381 1_545 S
C932 C938 1.383 . S
C933 C929 1.495 . S
C933 H939 0.959 . S
C933 H940 0.961 . S
C933 H941 0.960 . S
C934 C932 1.381 1_565 S
C934 C935 1.394 . S
C934 H942 0.930 . S
C935 C934 1.394 . S
C935 C936 1.383 1_565 S
C935 H943 0.929 . S
C936 C935 1.383 1_545 S
C936 C937 1.377 . S
C937 H921 0.930 . S
C937 C936 1.377 . S
C937 C938 1.379 . S
C938 H922 0.931 . S
C938 C932 1.383 . S
C938 C937 1.379 . S
H939 C933 0.959 . S
H940 C933 0.961 . S
H941 C933 0.960 . S
H942 C934 0.930 . S
H943 C935 0.929 . S
H944 C952 0.929 . S
H945 C954 0.930 . S
H946 C956 0.930 . S
H947 C959 0.929 . S
H948 C962 0.930 . S
H949 C964 0.960 . S
H950 C964 0.960 . S
H951 C964 0.960 . S
C952 H944 0.929 . S
C952 C953 1.377 . S
C952 C954 1.384 . S
C953 C952 1.377 . S
C953 C959 1.390 . S
C954 H945 0.930 . S
C954 C952 1.384 . S
C954 C955 1.372 . S
C955 C954 1.372 . S
C955 C956 1.400 . S
C955 C960 1.490 . S
C956 H946 0.930 . S
C956 C955 1.400 . S
C956 C959 1.386 . S
H957 C973 0.930 . S
H958 C974 0.931 . S
C959 H947 0.929 . S
C959 C953 1.390 . S
C959 C956 1.386 . S
C960 C955 1.490 . S
C960 C962 1.395 . S
C960 C963 1.403 . S
H961 C967 0.930 . S
C962 H948 0.930 . S
C962 C960 1.395 . S
C962 C965 1.403 . S
C963 C960 1.403 . S
C963 C964 1.524 . S
C963 C967 1.400 . S
C964 H949 0.960 . S
C964 H950 0.960 . S
C964 H951 0.960 . S
C964 C963 1.524 . S
C965 C962 1.403 . S
C965 C966 1.392 . S
C965 C969 1.495 . S
C966 C965 1.392 . S
C966 C967 1.385 . S
C966 C968 1.478 . S
C967 H961 0.930 . S
C967 C963 1.400 . S
C967 C966 1.385 . S
C968 C966 1.478 . S
C968 C970 1.381 . S
C968 C974 1.383 . S
C969 C965 1.495 . S
C969 H975 0.959 . S
C969 H976 0.961 . S
C969 H977 0.960 . S
C970 C968 1.381 . S
C970 C971 1.394 . S
C970 H978 0.930 . S
C971 C970 1.394 . S
C971 C972 1.383 . S
C971 H979 0.929 . S
C972 C971 1.383 . S
C972 C973 1.377 . S
C973 H957 0.930 . S
C973 C972 1.377 . S
C973 C974 1.379 . S
C974 H958 0.931 . S
C974 C968 1.383 . S
C974 C973 1.379 . S
H975 C969 0.959 . S
H976 C969 0.961 . S
H977 C969 0.960 . S
H978 C970 0.930 . S
H979 C971 0.929 . S
H980 C988 0.929 . S
H981 C990 0.930 . S
H982 C992 0.930 . S
H983 C995 0.929 . S
H984 C998 0.930 . S
H985 C1000 0.960 . S
H986 C1000 0.960 . S
H987 C1000 0.960 . S
C988 H980 0.929 . S
C988 C989 1.377 . S
C988 C990 1.384 . S
C989 C988 1.377 . S
C989 C995 1.390 . S
C990 H981 0.930 . S
C990 C988 1.384 . S
C990 C991 1.372 . S
C991 C990 1.372 . S
C991 C992 1.400 . S
C991 C996 1.490 . S
C992 H982 0.930 . S
C992 C991 1.400 . S
C992 C995 1.386 . S
H993 C1009 0.930 . S
H994 C1010 0.931 . S
C995 H983 0.929 . S
C995 C989 1.390 . S
C995 C992 1.386 . S
C996 C991 1.490 . S
C996 C998 1.395 . S
C996 C999 1.403 . S
H997 C1003 0.930 . S
C998 H984 0.930 . S
C998 C996 1.395 . S
C998 C1001 1.403 1_455 S
C999 C996 1.403 . S
C999 C1000 1.524 . S
C999 C1003 1.400 1_455 S
C1000 H985 0.960 . S
C1000 H986 0.960 . S
C1000 H987 0.960 . S
C1000 C999 1.524 . S
C1001 C998 1.403 1_655 S
C1001 C1002 1.392 . S
C1001 C1005 1.495 . S
C1002 C1001 1.392 . S
C1002 C1003 1.385 . S
C1002 C1004 1.478 . S
C1003 H997 0.930 . S
C1003 C999 1.400 1_655 S
C1003 C1002 1.385 . S
C1004 C1002 1.478 . S
C1004 C1006 1.381 . S
C1004 C1010 1.383 . S
C1005 C1001 1.495 . S
C1005 H1011 0.959 . S
C1005 H1012 0.961 . S
C1005 H1013 0.960 . S
C1006 C1004 1.381 . S
C1006 C1007 1.394 . S
C1006 H1014 0.930 . S
C1007 C1006 1.394 . S
C1007 C1008 1.383 . S
C1007 H1015 0.929 . S
C1008 C1007 1.383 . S
C1008 C1009 1.377 . S
C1009 H993 0.930 . S
C1009 C1008 1.377 . S
C1009 C1010 1.379 . S
C1010 H994 0.931 . S
C1010 C1004 1.383 . S
C1010 C1009 1.379 . S
H1011 C1005 0.959 . S
H1012 C1005 0.961 . S
H1013 C1005 0.960 . S
H1014 C1006 0.930 . S
H1015 C1007 0.929 . S
H1016 C1024 0.929 . S
H1017 C1026 0.930 . S
H1018 C1028 0.930 . S
H1019 C1031 0.929 . S
H1020 C1034 0.930 . S
H1021 C1036 0.960 . S
H1022 C1036 0.960 . S
H1023 C1036 0.960 . S
C1024 H1016 0.929 . S
C1024 C1025 1.377 . S
C1024 C1026 1.384 . S
C1025 C1024 1.377 . S
C1025 C1031 1.390 1_455 S
C1026 H1017 0.930 . S
C1026 C1024 1.384 . S
C1026 C1027 1.372 . S
C1027 C1026 1.372 . S
C1027 C1028 1.400 1_455 S
C1027 C1032 1.490 . S
C1028 H1018 0.930 . S
C1028 C1027 1.400 1_655 S
C1028 C1031 1.386 . S
H1029 C1045 0.930 . S
H1030 C1046 0.931 . S
C1031 H1019 0.929 . S
C1031 C1025 1.390 1_655 S
C1031 C1028 1.386 . S
C1032 C1027 1.490 . S
C1032 C1034 1.395 . S
C1032 C1035 1.403 1_455 S
H1033 C1039 0.930 . S
C1034 H1020 0.930 . S
C1034 C1032 1.395 . S
C1034 C1037 1.403 1_565 S
C1035 C1032 1.403 1_655 S
C1035 C1036 1.524 . S
C1035 C1039 1.400 1_565 S
C1036 H1021 0.960 . S
C1036 H1022 0.960 . S
C1036 H1023 0.960 . S
C1036 C1035 1.524 . S
C1037 C1034 1.403 1_545 S
C1037 C1038 1.404 . S
C1037 C1041 1.495 . S
C1038 C1037 1.404 . S
C1038 C1039 1.375 1_455 S
C1038 C1040 1.475 1_455 S
C1039 H1033 0.930 . S
C1039 C1035 1.400 1_545 S
C1039 C1038 1.375 1_655 S
C1040 C1038 1.475 1_655 S
C1040 C1042 1.381 1_655 S
C1040 C1046 1.383 . S
C1041 C1037 1.495 . S
C1041 H1047 0.959 . S
C1041 H1048 0.961 . S
C1041 H1049 0.960 . S
C1042 C1040 1.381 1_455 S
C1042 C1043 1.394 . S
C1042 H1050 0.930 . S
C1043 C1042 1.394 . S
C1043 C1044 1.383 1_455 S
C1043 H1051 0.929 . S
C1044 C1043 1.383 1_655 S
C1044 C1045 1.377 . S
C1045 H1029 0.930 . S
C1045 C1044 1.377 . S
C1045 C1046 1.379 . S
C1046 H1030 0.931 . S
C1046 C1040 1.383 . S
C1046 C1045 1.379 . S
H1047 C1041 0.959 . S
H1048 C1041 0.961 . S
H1049 C1041 0.960 . S
H1050 C1042 0.930 . S
H1051 C1043 0.929 . S
H1052 C1060 0.929 1_565 S
H1053 C1062 0.935 . S
H1054 C1064 0.930 . S
H1055 C1067 0.929 . S
H1056 C1070 0.930 . S
H1057 C1072 0.960 . S
H1058 C1072 0.960 . S
H1059 C1072 0.960 . S
C1060 H1052 0.929 1_545 S
C1060 C1061 1.377 . S
C1060 C1062 1.382 1_545 S
C1061 C1060 1.377 . S
C1061 C1067 1.390 . S
C1062 H1053 0.935 . S
C1062 C1060 1.382 1_565 S
C1062 C1063 1.369 1_565 S
C1063 C1062 1.369 1_545 S
C1063 C1064 1.400 . S
C1063 C1068 1.490 . S
C1064 H1054 0.930 . S
C1064 C1063 1.400 . S
C1064 C1067 1.386 . S
H1065 C1081 0.921 1_545 S
H1066 C1082 0.931 . S
C1067 H1055 0.929 . S
C1067 C1061 1.390 . S
C1067 C1064 1.386 . S
C1068 C1063 1.490 . S
C1068 C1070 1.395 . S
C1068 C1071 1.403 1_545 S
H1069 C1075 0.930 . S
C1070 H1056 0.930 . S
C1070 C1068 1.395 . S
C1070 C1073 1.403 . S
C1071 C1068 1.403 1_565 S
C1071 C1072 1.524 . S
C1071 C1075 1.400 . S
C1072 H1057 0.960 . S
C1072 H1058 0.960 . S
C1072 H1059 0.960 . S
C1072 C1071 1.524 . S
C1073 C1070 1.403 . S
C1073 C1074 1.392 1_545 S
C1073 C1077 1.495 . S
C1074 C1073 1.392 1_565 S
C1074 C1075 1.385 . S
C1074 C1076 1.478 . S
C1075 H1069 0.930 . S
C1075 C1071 1.400 . S
C1075 C1074 1.385 . S
C1076 C1074 1.478 . S
C1076 C1078 1.381 . S
C1076 C1082 1.383 1_565 S
C1077 C1073 1.495 . S
C1077 H1083 0.959 . S
C1077 H1084 0.961 . S
C1077 H1085 0.960 . S
C1078 C1076 1.381 . S
C1078 C1079 1.394 . S
C1078 H1086 0.930 . S
C1079 C1078 1.394 . S
C1079 C1080 1.383 . S
C1079 H1087 0.929 . S
C1080 C1079 1.383 . S
C1080 C1081 1.390 . S
C1081 H1065 0.921 1_565 S
C1081 C1080 1.390 . S
C1081 C1082 1.375 1_565 S
C1082 H1066 0.931 . S
C1082 C1076 1.383 1_545 S
C1082 C1081 1.375 1_545 S
H1083 C1077 0.959 . S
H1084 C1077 0.961 . S
H1085 C1077 0.960 . S
H1086 C1078 0.930 . S
H1087 C1079 0.929 . S
H1088 C1096 0.929 . S
H1089 C1098 0.930 . S
H1090 C1100 0.930 . S
H1091 C1103 0.929 . S
H1092 C1106 0.930 . S
H1093 C1108 0.960 . S
H1094 C1108 0.960 . S
H1095 C1108 0.960 . S
C1096 H1088 0.929 . S
C1096 C1097 1.377 . S
C1096 C1098 1.384 . S
C1097 C1096 1.377 . S
C1097 C1103 1.390 . S
C1098 H1089 0.930 . S
C1098 C1096 1.384 . S
C1098 C1099 1.372 . S
C1099 C1098 1.372 . S
C1099 C1100 1.400 . S
C1099 C1104 1.490 . S
C1100 H1090 0.930 . S
C1100 C1099 1.400 . S
C1100 C1103 1.386 . S
H1101 C1117 0.930 . S
H1102 C1118 0.931 . S
C1103 H1091 0.929 . S
C1103 C1097 1.390 . S
C1103 C1100 1.386 . S
C1104 C1099 1.490 . S
C1104 C1106 1.395 . S
C1104 C1107 1.403 . S
H1105 C1111 0.930 . S
C1106 H1092 0.930 . S
C1106 C1104 1.395 . S
C1106 C1109 1.403 . S
C1107 C1104 1.403 . S
C1107 C1108 1.524 . S
C1107 C1111 1.400 . S
C1108 H1093 0.960 . S
C1108 H1094 0.960 . S
C1108 H1095 0.960 . S
C1108 C1107 1.524 . S
C1109 C1106 1.403 . S
C1109 C1110 1.392 . S
C1109 C1113 1.495 . S
C1110 C1109 1.392 . S
C1110 C1111 1.385 . S
C1110 C1112 1.478 . S
C1111 H1105 0.930 . S
C1111 C1107 1.400 . S
C1111 C1110 1.385 . S
C1112 C1110 1.478 . S
C1112 C1114 1.381 . S
C1112 C1118 1.383 . S
C1113 C1109 1.495 . S
C1113 H1119 0.959 . S
C1113 H1120 0.961 . S
C1113 H1121 0.960 . S
C1114 C1112 1.381 . S
C1114 C1115 1.394 . S
C1114 H1122 0.930 . S
C1115 C1114 1.394 . S
C1115 C1116 1.383 . S
C1115 H1123 0.929 . S
C1116 C1115 1.383 . S
C1116 C1117 1.377 . S
C1117 H1101 0.930 . S
C1117 C1116 1.377 . S
C1117 C1118 1.379 . S
C1118 H1102 0.931 . S
C1118 C1112 1.383 . S
C1118 C1117 1.379 . S
H1119 C1113 0.959 . S
H1120 C1113 0.961 . S
H1121 C1113 0.960 . S
H1122 C1114 0.930 . S
H1123 C1115 0.929 . S
H1124 C1132 0.929 . S
H1125 C1134 0.930 . S
H1126 C1136 0.930 . S
H1127 C1139 0.929 . S
H1128 C1142 0.930 . S
H1129 C1144 0.960 . S
H1130 C1144 0.960 . S
H1131 C1144 0.960 . S
C1132 H1124 0.929 . S
C1132 C1133 1.377 . S
C1132 C1134 1.384 . S
C1133 C1132 1.377 . S
C1133 C1139 1.390 . S
C1134 H1125 0.930 . S
C1134 C1132 1.384 . S
C1134 C1135 1.372 . S
C1135 C1134 1.372 . S
C1135 C1136 1.400 . S
C1135 C1140 1.490 . S
C1136 H1126 0.930 . S
C1136 C1135 1.400 . S
C1136 C1139 1.386 . S
H1137 C1153 0.930 . S
H1138 C1154 0.931 . S
C1139 H1127 0.929 . S
C1139 C1133 1.390 . S
C1139 C1136 1.386 . S
C1140 C1135 1.490 . S
C1140 C1142 1.395 . S
C1140 C1143 1.403 . S
H1141 C1147 0.930 . S
C1142 H1128 0.930 . S
C1142 C1140 1.395 . S
C1142 C1145 1.403 . S
C1143 C1140 1.403 . S
C1143 C1144 1.524 . S
C1143 C1147 1.400 . S
C1144 H1129 0.960 . S
C1144 H1130 0.960 . S
C1144 H1131 0.960 . S
C1144 C1143 1.524 . S
C1145 C1142 1.403 . S
C1145 C1146 1.392 . S
C1145 C1149 1.495 . S
C1146 C1145 1.392 . S
C1146 C1147 1.385 . S
C1146 C1148 1.478 . S
C1147 H1141 0.930 . S
C1147 C1143 1.400 . S
C1147 C1146 1.385 . S
C1148 C1146 1.478 . S
C1148 C1150 1.381 . S
C1148 C1154 1.383 . S
C1149 C1145 1.495 . S
C1149 H1155 0.959 . S
C1149 H1156 0.961 . S
C1149 H1157 0.960 . S
C1150 C1148 1.381 . S
C1150 C1151 1.394 . S
C1150 H1158 0.930 . S
C1151 C1150 1.394 . S
C1151 C1152 1.383 . S
C1151 H1159 0.929 . S
C1152 C1151 1.383 . S
C1152 C1153 1.377 . S
C1153 H1137 0.930 . S
C1153 C1152 1.377 . S
C1153 C1154 1.379 . S
C1154 H1138 0.931 . S
C1154 C1148 1.383 . S
C1154 C1153 1.379 . S
H1155 C1149 0.959 . S
H1156 C1149 0.961 . S
H1157 C1149 0.960 . S
H1158 C1150 0.930 . S
H1159 C1151 0.929 . S
H1160 C1168 0.929 . S
H1161 C1170 0.930 . S
H1162 C1172 0.930 . S
H1163 C1175 0.929 . S
H1164 C1178 0.930 . S
H1165 C1180 0.960 . S
H1166 C1180 0.960 . S
H1167 C1180 0.960 . S
C1168 H1160 0.929 . S
C1168 C1169 1.377 . S
C1168 C1170 1.384 . S
C1169 C1168 1.377 . S
C1169 C1175 1.390 . S
C1170 H1161 0.930 . S
C1170 C1168 1.384 . S
C1170 C1171 1.372 . S
C1171 C1170 1.372 . S
C1171 C1172 1.400 . S
C1171 C1176 1.490 . S
C1172 H1162 0.930 . S
C1172 C1171 1.400 . S
C1172 C1175 1.386 . S
H1173 C1189 0.930 . S
H1174 C1190 0.931 . S
C1175 H1163 0.929 . S
C1175 C1169 1.390 . S
C1175 C1172 1.386 . S
C1176 C1171 1.490 . S
C1176 C1178 1.395 . S
C1176 C1179 1.403 . S
H1177 C1183 0.930 . S
C1178 H1164 0.930 . S
C1178 C1176 1.395 . S
C1178 C1181 1.403 . S
C1179 C1176 1.403 . S
C1179 C1180 1.524 . S
C1179 C1183 1.400 . S
C1180 H1165 0.960 . S
C1180 H1166 0.960 . S
C1180 H1167 0.960 . S
C1180 C1179 1.524 . S
C1181 C1178 1.403 . S
C1181 C1182 1.392 . S
C1181 C1185 1.495 . S
C1182 C1181 1.392 . S
C1182 C1183 1.385 . S
C1182 C1184 1.478 . S
C1183 H1177 0.930 . S
C1183 C1179 1.400 . S
C1183 C1182 1.385 . S
C1184 C1182 1.478 . S
C1184 C1186 1.381 . S
C1184 C1190 1.383 . S
C1185 C1181 1.495 . S
C1185 H1191 0.959 . S
C1185 H1192 0.961 . S
C1185 H1193 0.960 . S
C1186 C1184 1.381 . S
C1186 C1187 1.394 . S
C1186 H1194 0.930 . S
C1187 C1186 1.394 . S
C1187 C1188 1.383 . S
C1187 H1195 0.929 . S
C1188 C1187 1.383 . S
C1188 C1189 1.377 . S
C1189 H1173 0.930 . S
C1189 C1188 1.377 . S
C1189 C1190 1.379 . S
C1190 H1174 0.931 . S
C1190 C1184 1.383 . S
C1190 C1189 1.379 . S
H1191 C1185 0.959 . S
H1192 C1185 0.961 . S
H1193 C1185 0.960 . S
H1194 C1186 0.930 . S
H1195 C1187 0.929 . S
H1196 C1204 0.929 . S
H1197 C1206 0.930 . S
H1198 C1208 0.930 . S
H1199 C1211 0.929 . S
H1200 C1214 0.930 . S
H1201 C1216 0.960 . S
H1202 C1216 0.960 . S
H1203 C1216 0.960 . S
C1204 H1196 0.929 . S
C1204 C1205 1.377 . S
C1204 C1206 1.384 . S
C1205 C1204 1.377 . S
C1205 C1211 1.390 . S
C1206 H1197 0.930 . S
C1206 C1204 1.384 . S
C1206 C1207 1.372 . S
C1207 C1206 1.372 . S
C1207 C1208 1.400 . S
C1207 C1212 1.490 . S
C1208 H1198 0.930 . S
C1208 C1207 1.400 . S
C1208 C1211 1.386 . S
H1209 C1225 0.930 . S
H1210 C1226 0.931 . S
C1211 H1199 0.929 . S
C1211 C1205 1.390 . S
C1211 C1208 1.386 . S
C1212 C1207 1.490 . S
C1212 C1214 1.395 . S
C1212 C1215 1.403 . S
H1213 C1219 0.930 . S
C1214 H1200 0.930 . S
C1214 C1212 1.395 . S
C1214 C1217 1.403 . S
C1215 C1212 1.403 . S
C1215 C1216 1.524 . S
C1215 C1219 1.400 . S
C1216 H1201 0.960 . S
C1216 H1202 0.960 . S
C1216 H1203 0.960 . S
C1216 C1215 1.524 . S
C1217 C1214 1.403 . S
C1217 C1218 1.392 . S
C1217 C1221 1.495 . S
C1218 C1217 1.392 . S
C1218 C1219 1.385 . S
C1218 C1220 1.478 . S
C1219 H1213 0.930 . S
C1219 C1215 1.400 . S
C1219 C1218 1.385 . S
C1220 C1218 1.478 . S
C1220 C1222 1.381 . S
C1220 C1226 1.383 . S
C1221 C1217 1.495 . S
C1221 H1227 0.959 . S
C1221 H1228 0.961 . S
C1221 H1229 0.960 . S
C1222 C1220 1.381 . S
C1222 C1223 1.394 . S
C1222 H1230 0.930 . S
C1223 C1222 1.394 . S
C1223 C1224 1.383 . S
C1223 H1231 0.929 . S
C1224 C1223 1.383 . S
C1224 C1225 1.377 . S
C1225 H1209 0.930 . S
C1225 C1224 1.377 . S
C1225 C1226 1.379 . S
C1226 H1210 0.931 . S
C1226 C1220 1.383 . S
C1226 C1225 1.379 . S
H1227 C1221 0.959 . S
H1228 C1221 0.961 . S
H1229 C1221 0.960 . S
H1230 C1222 0.930 . S
H1231 C1223 0.929 . S
H1232 C1240 0.929 . S
H1233 C1242 0.930 . S
H1234 C1244 0.930 . S
H1235 C1247 0.929 . S
H1236 C1250 0.930 . S
H1237 C1252 0.960 . S
H1238 C1252 0.960 . S
H1239 C1252 0.960 . S
C1240 H1232 0.929 . S
C1240 C1241 1.377 . S
C1240 C1242 1.384 . S
C1241 C1240 1.377 . S
C1241 C1247 1.390 . S
C1242 H1233 0.930 . S
C1242 C1240 1.384 . S
C1242 C1243 1.372 . S
C1243 C1242 1.372 . S
C1243 C1244 1.400 . S
C1243 C1248 1.490 . S
C1244 H1234 0.930 . S
C1244 C1243 1.400 . S
C1244 C1247 1.386 . S
H1245 C1261 0.930 . S
H1246 C1262 0.931 . S
C1247 H1235 0.929 . S
C1247 C1241 1.390 . S
C1247 C1244 1.386 . S
C1248 C1243 1.490 . S
C1248 C1250 1.395 . S
C1248 C1251 1.403 . S
H1249 C1255 0.930 . S
C1250 H1236 0.930 . S
C1250 C1248 1.395 . S
C1250 C1253 1.403 . S
C1251 C1248 1.403 . S
C1251 C1252 1.524 . S
C1251 C1255 1.400 . S
C1252 H1237 0.960 . S
C1252 H1238 0.960 . S
C1252 H1239 0.960 . S
C1252 C1251 1.524 . S
C1253 C1250 1.403 . S
C1253 C1254 1.392 . S
C1253 C1257 1.495 . S
C1254 C1253 1.392 . S
C1254 C1255 1.385 . S
C1254 C1256 1.478 . S
C1255 H1249 0.930 . S
C1255 C1251 1.400 . S
C1255 C1254 1.385 . S
C1256 C1254 1.478 . S
C1256 C1258 1.381 . S
C1256 C1262 1.383 . S
C1257 C1253 1.495 . S
C1257 H1263 0.959 . S
C1257 H1264 0.961 . S
C1257 H1265 0.960 . S
C1258 C1256 1.381 . S
C1258 C1259 1.394 . S
C1258 H1266 0.930 . S
C1259 C1258 1.394 . S
C1259 C1260 1.383 . S
C1259 H1267 0.929 . S
C1260 C1259 1.383 . S
C1260 C1261 1.377 . S
C1261 H1245 0.930 . S
C1261 C1260 1.377 . S
C1261 C1262 1.379 . S
C1262 H1246 0.931 . S
C1262 C1256 1.383 . S
C1262 C1261 1.379 . S
H1263 C1257 0.959 . S
H1264 C1257 0.961 . S
H1265 C1257 0.960 . S
H1266 C1258 0.930 . S
H1267 C1259 0.929 . S
H1268 C1276 0.929 . S
H1269 C1278 0.930 . S
H1270 C1280 0.930 . S
H1271 C1283 0.929 . S
H1272 C1286 0.930 . S
H1273 C1288 0.960 . S
H1274 C1288 0.960 . S
H1275 C1288 0.960 . S
C1276 H1268 0.929 . S
C1276 C1277 1.377 . S
C1276 C1278 1.384 . S
C1277 C1276 1.377 . S
C1277 C1283 1.390 . S
C1278 H1269 0.930 . S
C1278 C1276 1.384 . S
C1278 C1279 1.372 . S
C1279 C1278 1.372 . S
C1279 C1280 1.400 . S
C1279 C1284 1.490 . S
C1280 H1270 0.930 . S
C1280 C1279 1.400 . S
C1280 C1283 1.386 . S
H1281 C1297 0.930 . S
H1282 C1298 0.931 . S
C1283 H1271 0.929 . S
C1283 C1277 1.390 . S
C1283 C1280 1.386 . S
C1284 C1279 1.490 . S
C1284 C1286 1.395 . S
C1284 C1287 1.403 . S
H1285 C1291 0.930 . S
C1286 H1272 0.930 . S
C1286 C1284 1.395 . S
C1286 C1289 1.403 . S
C1287 C1284 1.403 . S
C1287 C1288 1.524 . S
C1287 C1291 1.400 . S
C1288 H1273 0.960 . S
C1288 H1274 0.960 . S
C1288 H1275 0.960 . S
C1288 C1287 1.524 . S
C1289 C1286 1.403 . S
C1289 C1290 1.392 . S
C1289 C1293 1.495 . S
C1290 C1289 1.392 . S
C1290 C1291 1.385 . S
C1290 C1292 1.478 . S
C1291 H1285 0.930 . S
C1291 C1287 1.400 . S
C1291 C1290 1.385 . S
C1292 C1290 1.478 . S
C1292 C1294 1.381 . S
C1292 C1298 1.383 . S
C1293 C1289 1.495 . S
C1293 H1299 0.959 . S
C1293 H1300 0.961 . S
C1293 H1301 0.960 . S
C1294 C1292 1.381 . S
C1294 C1295 1.394 . S
C1294 H1302 0.930 . S
C1295 C1294 1.394 . S
C1295 C1296 1.383 . S
C1295 H1303 0.929 . S
C1296 C1295 1.383 . S
C1296 C1297 1.377 . S
C1297 H1281 0.930 . S
C1297 C1296 1.377 . S
C1297 C1298 1.379 . S
C1298 H1282 0.931 . S
C1298 C1292 1.383 . S
C1298 C1297 1.379 . S
H1299 C1293 0.959 . S
H1300 C1293 0.961 . S
H1301 C1293 0.960 . S
H1302 C1294 0.930 . S
H1303 C1295 0.929 . S
H1304 C1312 0.929 . S
H1305 C1314 0.930 . S
H1306 C1316 0.930 . S
H1307 C1319 0.929 . S
H1308 C1322 0.930 . S
H1309 C1324 0.965 . S
H1310 C1324 0.960 . S
H1311 C1324 0.960 1_655 S
C1312 H1304 0.929 . S
C1312 C1313 1.377 . S
C1312 C1314 1.384 . S
C1313 C1312 1.377 . S
C1313 C1319 1.390 . S
C1314 H1305 0.930 . S
C1314 C1312 1.384 . S
C1314 C1315 1.372 . S
C1315 C1314 1.372 . S
C1315 C1316 1.400 . S
C1315 C1320 1.490 . S
C1316 H1306 0.930 . S
C1316 C1315 1.400 . S
C1316 C1319 1.386 . S
H1317 C1333 0.930 . S
H1318 C1334 0.931 . S
C1319 H1307 0.929 . S
C1319 C1313 1.390 . S
C1319 C1316 1.386 . S
C1320 C1315 1.490 . S
C1320 C1322 1.395 . S
C1320 C1323 1.403 . S
H1321 C1327 0.930 . S
C1322 H1308 0.930 . S
C1322 C1320 1.395 . S
C1322 C1325 1.403 . S
C1323 C1320 1.403 . S
C1323 C1324 1.524 . S
C1323 C1327 1.400 . S
C1324 H1309 0.965 . S
C1324 H1310 0.960 . S
C1324 H1311 0.960 1_455 S
C1324 C1323 1.524 . S
C1325 C1322 1.403 . S
C1325 C1326 1.392 . S
C1325 C1329 1.495 . S
C1326 C1325 1.392 . S
C1326 C1327 1.385 . S
C1326 C1328 1.478 . S
C1327 H1321 0.930 . S
C1327 C1323 1.400 . S
C1327 C1326 1.385 . S
C1328 C1326 1.478 . S
C1328 C1330 1.381 . S
C1328 C1334 1.383 . S
C1329 C1325 1.495 . S
C1329 H1335 0.959 . S
C1329 H1336 0.961 . S
C1329 H1337 0.960 . S
C1330 C1328 1.381 . S
C1330 C1331 1.394 . S
C1330 H1338 0.930 . S
C1331 C1330 1.394 . S
C1331 C1332 1.383 . S
C1331 H1339 0.929 . S
C1332 C1331 1.383 . S
C1332 C1333 1.377 . S
C1333 H1317 0.930 . S
C1333 C1332 1.377 . S
C1333 C1334 1.379 . S
C1334 H1318 0.931 . S
C1334 C1328 1.383 . S
C1334 C1333 1.379 . S
H1335 C1329 0.959 . S
H1336 C1329 0.961 . S
H1337 C1329 0.960 . S
H1338 C1330 0.930 . S
H1339 C1331 0.929 . S
H1340 C1348 0.929 . S
H1341 C1350 0.930 . S
H1342 C1352 0.930 . S
H1343 C1355 0.929 . S
H1344 C1358 0.930 . S
H1345 C1360 0.960 . S
H1346 C1360 0.960 . S
H1347 C1360 0.960 . S
C1348 H1340 0.929 . S
C1348 C1349 1.377 . S
C1348 C1350 1.384 . S
C1349 C1348 1.377 . S
C1349 C1355 1.390 . S
C1350 H1341 0.930 . S
C1350 C1348 1.384 . S
C1350 C1351 1.372 . S
C1351 C1350 1.372 . S
C1351 C1352 1.400 . S
C1351 C1356 1.490 . S
C1352 H1342 0.930 . S
C1352 C1351 1.400 . S
C1352 C1355 1.386 . S
H1353 C1369 0.930 . S
H1354 C1370 0.931 . S
C1355 H1343 0.929 . S
C1355 C1349 1.390 . S
C1355 C1352 1.386 . S
C1356 C1351 1.490 . S
C1356 C1358 1.395 . S
C1356 C1359 1.403 . S
H1357 C1363 0.930 . S
C1358 H1344 0.930 . S
C1358 C1356 1.395 . S
C1358 C1361 1.403 . S
C1359 C1356 1.403 . S
C1359 C1360 1.524 . S
C1359 C1363 1.400 . S
C1360 H1345 0.960 . S
C1360 H1346 0.960 . S
C1360 H1347 0.960 . S
C1360 C1359 1.524 . S
C1361 C1358 1.403 . S
C1361 C1362 1.392 . S
C1361 C1365 1.495 . S
C1362 C1361 1.392 . S
C1362 C1363 1.385 . S
C1362 C1364 1.478 . S
C1363 H1357 0.930 . S
C1363 C1359 1.400 . S
C1363 C1362 1.385 . S
C1364 C1362 1.478 . S
C1364 C1366 1.381 . S
C1364 C1370 1.383 . S
C1365 C1361 1.495 . S
C1365 H1371 0.959 . S
C1365 H1372 0.961 . S
C1365 H1373 0.960 . S
C1366 C1364 1.381 . S
C1366 C1367 1.394 . S
C1366 H1374 0.930 . S
C1367 C1366 1.394 . S
C1367 C1368 1.383 . S
C1367 H1375 0.929 . S
C1368 C1367 1.383 . S
C1368 C1369 1.377 . S
C1369 H1353 0.930 . S
C1369 C1368 1.377 . S
C1369 C1370 1.379 . S
C1370 H1354 0.931 . S
C1370 C1364 1.383 . S
C1370 C1369 1.379 . S
H1371 C1365 0.959 . S
H1372 C1365 0.961 . S
H1373 C1365 0.960 . S
H1374 C1366 0.930 . S
H1375 C1367 0.929 . S
C233 C9 0.971 . S
C252 C134 0.980 . S
C269 C148 0.994 . S
C288 C23 0.939 . S
C305 C162 0.989 . S
C324 C37 1.005 . S
C341 C120 0.991 . S
C360 C51 0.999 . S
C377 C65 0.975 . S
C396 C218 0.992 . S
C413 C176 0.989 . S
C432 C79 1.007 . S
C449 C190 0.988 . S
C468 C93 1.010 . S
C485 C204 0.995 . S
C504 C107 0.929 . S
C521 C121 0.979 . S
C540 C22 1.003 . S
C557 C135 0.964 . S
C576 C36 0.969 . S
C593 C149 0.968 . S
C612 C50 0.996 . S
C629 C8 0.996 . S
C648 C163 1.011 . S
C665 C177 0.963 . S
C684 C106 0.974 . S
C701 C191 0.970 . S
C720 C64 0.978 . S
C737 C78 0.994 . S
C756 C205 0.961 . S
C773 C219 0.971 . S
C792 C92 1.001 . S
C809 C118 1.589 . S
C828 C6 1.563 . S
C845 C20 1.588 . S
C864 C132 1.579 . S
C881 C146 1.596 . S
C900 C34 1.574 . S
C917 C48 1.588 . S
C936 C160 1.576 . S
C953 C174 1.597 . S
C972 C62 1.579 . S
C989 C76 1.588 . S
C1008 C188 1.575 . S
C1025 C202 1.598 . S
C1044 C90 1.618 . S
C1061 C216 1.598 . S
C1080 C104 1.584 . S
C1097 C63 1.595 . S
C1116 C7 1.606 . S
C1133 C77 1.595 . S
C1152 C21 1.606 . S
C1169 C35 1.602 . S
C1188 C91 1.598 . S
C1205 C105 1.603 . S
C1224 C49 1.596 . S
C1241 C119 1.604 . S
C1260 C175 1.579 . S
C1277 C189 1.603 . S
C1296 C133 1.573 . S
C1313 C203 1.596 . S
C1332 C147 1.573 . S
C1349 C217 1.595 . S
C1368 C161 1.581 . S
