# Generated by pormake.
# Topology why, (6)-cn, num edge types: 1
# Building blocks:
#     Node 0, Type 0, BuildingBlock: LEVNOQ01_clean_sbu_1, # of connection points: 6
#     Node 1, Type 0, BuildingBlock: LEVNOQ01_clean_sbu_1, # of connection points: 6
#     Node 2, Type 0, BuildingBlock: LEVNOQ01_clean_sbu_1, # of connection points: 6
#     Node 3, Type 0, BuildingBlock: LEVNOQ01_clean_sbu_1, # of connection points: 6
#     Node 4, Type 0, BuildingBlock: LEVNOQ01_clean_sbu_1, # of connection points: 6
#     Node 5, Type 0, BuildingBlock: LEVNOQ01_clean_sbu_1, # of connection points: 6
#     Node 6, Type 0, BuildingBlock: LEVNOQ01_clean_sbu_1, # of connection points: 6
#     Node 7, Type 0, BuildingBlock: LEVNOQ01_clean_sbu_1, # of connection points: 6
#     Node 8, Type 0, BuildingBlock: LEVNOQ01_clean_sbu_1, # of connection points: 6
#     Node 9, Type 0, BuildingBlock: LEVNOQ01_clean_sbu_1, # of connection points: 6
#     Node 10, Type 0, BuildingBlock: LEVNOQ01_clean_sbu_1, # of connection points: 6
#     Node 11, Type 0, BuildingBlock: LEVNOQ01_clean_sbu_1, # of connection points: 6
#     Node 12, Type 0, BuildingBlock: LEVNOQ01_clean_sbu_1, # of connection points: 6
#     Node 13, Type 0, BuildingBlock: LEVNOQ01_clean_sbu_1, # of connection points: 6
#     Node 14, Type 0, BuildingBlock: LEVNOQ01_clean_sbu_1, # of connection points: 6
#     Node 15, Type 0, BuildingBlock: LEVNOQ01_clean_sbu_1, # of connection points: 6
#     Edge 16, Type (0, 0), BuildingBlock: OJICUG_clean_linker_0, # of connection points: 2
#     Edge 17, Type (0, 0), BuildingBlock: OJICUG_clean_linker_0, # of connection points: 2
#     Edge 18, Type (0, 0), BuildingBlock: OJICUG_clean_linker_0, # of connection points: 2
#     Edge 19, Type (0, 0), BuildingBlock: OJICUG_clean_linker_0, # of connection points: 2
#     Edge 20, Type (0, 0), BuildingBlock: OJICUG_clean_linker_0, # of connection points: 2
#     Edge 21, Type (0, 0), BuildingBlock: OJICUG_clean_linker_0, # of connection points: 2
#     Edge 22, Type (0, 0), BuildingBlock: OJICUG_clean_linker_0, # of connection points: 2
#     Edge 23, Type (0, 0), BuildingBlock: OJICUG_clean_linker_0, # of connection points: 2
#     Edge 24, Type (0, 0), BuildingBlock: OJICUG_clean_linker_0, # of connection points: 2
#     Edge 25, Type (0, 0), BuildingBlock: OJICUG_clean_linker_0, # of connection points: 2
#     Edge 26, Type (0, 0), BuildingBlock: OJICUG_clean_linker_0, # of connection points: 2
#     Edge 27, Type (0, 0), BuildingBlock: OJICUG_clean_linker_0, # of connection points: 2
#     Edge 28, Type (0, 0), BuildingBlock: OJICUG_clean_linker_0, # of connection points: 2
#     Edge 29, Type (0, 0), BuildingBlock: OJICUG_clean_linker_0, # of connection points: 2
#     Edge 30, Type (0, 0), BuildingBlock: OJICUG_clean_linker_0, # of connection points: 2
#     Edge 31, Type (0, 0), BuildingBlock: OJICUG_clean_linker_0, # of connection points: 2
#     Edge 32, Type (0, 0), BuildingBlock: OJICUG_clean_linker_0, # of connection points: 2
#     Edge 33, Type (0, 0), BuildingBlock: OJICUG_clean_linker_0, # of connection points: 2
#     Edge 34, Type (0, 0), BuildingBlock: OJICUG_clean_linker_0, # of connection points: 2
#     Edge 35, Type (0, 0), BuildingBlock: OJICUG_clean_linker_0, # of connection points: 2
#     Edge 36, Type (0, 0), BuildingBlock: OJICUG_clean_linker_0, # of connection points: 2
#     Edge 37, Type (0, 0), BuildingBlock: OJICUG_clean_linker_0, # of connection points: 2
#     Edge 38, Type (0, 0), BuildingBlock: OJICUG_clean_linker_0, # of connection points: 2
#     Edge 39, Type (0, 0), BuildingBlock: OJICUG_clean_linker_0, # of connection points: 2
#     Edge 40, Type (0, 0), BuildingBlock: OJICUG_clean_linker_0, # of connection points: 2
#     Edge 41, Type (0, 0), BuildingBlock: OJICUG_clean_linker_0, # of connection points: 2
#     Edge 42, Type (0, 0), BuildingBlock: OJICUG_clean_linker_0, # of connection points: 2
#     Edge 43, Type (0, 0), BuildingBlock: OJICUG_clean_linker_0, # of connection points: 2
#     Edge 44, Type (0, 0), BuildingBlock: OJICUG_clean_linker_0, # of connection points: 2
#     Edge 45, Type (0, 0), BuildingBlock: OJICUG_clean_linker_0, # of connection points: 2
#     Edge 46, Type (0, 0), BuildingBlock: OJICUG_clean_linker_0, # of connection points: 2
#     Edge 47, Type (0, 0), BuildingBlock: OJICUG_clean_linker_0, # of connection points: 2
#     Edge 48, Type (0, 0), BuildingBlock: OJICUG_clean_linker_0, # of connection points: 2
#     Edge 49, Type (0, 0), BuildingBlock: OJICUG_clean_linker_0, # of connection points: 2
#     Edge 50, Type (0, 0), BuildingBlock: OJICUG_clean_linker_0, # of connection points: 2
#     Edge 51, Type (0, 0), BuildingBlock: OJICUG_clean_linker_0, # of connection points: 2
#     Edge 52, Type (0, 0), BuildingBlock: OJICUG_clean_linker_0, # of connection points: 2
#     Edge 53, Type (0, 0), BuildingBlock: OJICUG_clean_linker_0, # of connection points: 2
#     Edge 54, Type (0, 0), BuildingBlock: OJICUG_clean_linker_0, # of connection points: 2
#     Edge 55, Type (0, 0), BuildingBlock: OJICUG_clean_linker_0, # of connection points: 2
#     Edge 56, Type (0, 0), BuildingBlock: OJICUG_clean_linker_0, # of connection points: 2
#     Edge 57, Type (0, 0), BuildingBlock: OJICUG_clean_linker_0, # of connection points: 2
#     Edge 58, Type (0, 0), BuildingBlock: OJICUG_clean_linker_0, # of connection points: 2
#     Edge 59, Type (0, 0), BuildingBlock: OJICUG_clean_linker_0, # of connection points: 2
#     Edge 60, Type (0, 0), BuildingBlock: OJICUG_clean_linker_0, # of connection points: 2
#     Edge 61, Type (0, 0), BuildingBlock: OJICUG_clean_linker_0, # of connection points: 2
#     Edge 62, Type (0, 0), BuildingBlock: OJICUG_clean_linker_0, # of connection points: 2
#     Edge 63, Type (0, 0), BuildingBlock: OJICUG_clean_linker_0, # of connection points: 2
# Relax obj value: 0.194
# Max RMSD: 0.136
# Mean RMSD: 0.136
data_MOF--net-why--node1-LEVNOQ01_clean_sbu_1--edge1-OJICUG_clean_linker_0
_symmetry_space_group_name_H-M    P1
_symmetry_Int_Tables_number       1
_symmetry_cell_setting            triclinic
loop_
_symmetry_equiv_pos_as_xyz
'x, y, z'
_cell_length_a     34.943582
_cell_length_b     34.863114
_cell_length_c     21.25242
_cell_angle_alpha  89.977888
_cell_angle_beta   89.98137
_cell_angle_gamma 89.859636
loop_
_atom_site_label
_atom_site_type_symbol
_atom_site_fract_x
_atom_site_fract_y
_atom_site_fract_z
_atom_type_partial_charge
O0 O 0.29279 0.20112 0.96055 0.0
Mg1 Mg 0.31604 0.14777 0.98446 0.0
O2 O 0.35008 0.20612 1.00059 0.0
Mg3 Mg 0.35006 0.15956 0.08251 0.0
O4 O 0.29183 0.12386 0.0614 0.0
O5 O 0.27954 0.10675 0.96127 0.0
O6 O 0.35487 0.12015 0.17115 0.0
O7 O 0.31119 0.1991 0.13898 0.0
Mg8 Mg 0.39468 0.2026 0.20241 0.0
O9 O 0.40187 0.19259 0.10922 0.0
O10 O 0.39054 0.14807 0.24543 0.0
O11 O 0.34302 0.23357 0.20988 0.0
O12 O 0.44471 0.22505 0.16271 0.0
C13 C 0.39259 0.11678 0.96843 0.0
C14 C 0.32341 0.21965 0.96619 0.0
C15 C 0.27108 0.10552 0.02017 0.0
C16 C 0.37043 0.12019 0.22586 0.0
C17 C 0.31214 0.22436 0.18223 0.0
C18 C 0.43348 0.21121 0.10964 0.0
O19 O 0.36549 0.13086 0.93692 0.0
O20 O 0.39184 0.1193 0.02807 0.0
O21 O 0.50749 0.53725 0.20014 0.0
Mg22 Mg 0.56352 0.55073 0.22376 0.0
O23 O 0.50713 0.59414 0.2433 0.0
Mg24 Mg 0.55686 0.59375 0.32183 0.0
O25 O 0.58352 0.53102 0.30759 0.0
O26 O 0.59601 0.50505 0.21249 0.0
O27 O 0.60426 0.59793 0.3985 0.0
O28 O 0.51698 0.5647 0.39293 0.0
Mg29 Mg 0.53456 0.64944 0.44294 0.0
O30 O 0.53467 0.65163 0.34643 0.0
O31 O 0.59232 0.64148 0.47245 0.0
O32 O 0.49811 0.60348 0.47015 0.0
O33 O 0.51528 0.70083 0.4029 0.0
C34 C 0.60366 0.62066 0.19616 0.0
C35 C 0.49191 0.5696 0.20617 0.0
C36 C 0.59837 0.50402 0.27291 0.0
C37 C 0.61405 0.61621 0.44816 0.0
C38 C 0.49805 0.57087 0.44337 0.0
C39 C 0.52182 0.68611 0.3483 0.0
O40 O 0.59092 0.59142 0.16876 0.0
O41 O 0.59684 0.62621 0.25413 0.0
O42 O 0.12857 0.83251 0.40501 0.0
Mg43 Mg 0.13723 0.87887 0.4702 0.0
O44 O 0.1327 0.7879 0.4795 0.0
Mg45 Mg 0.12624 0.82489 0.56759 0.0
O46 O 0.17815 0.86253 0.53301 0.0
O47 O 0.18614 0.90875 0.46074 0.0
O48 O 0.11979 0.86229 0.65779 0.0
O49 O 0.17508 0.79189 0.61895 0.0
Mg50 Mg 0.0982 0.77272 0.6865 0.0
O51 O 0.07912 0.78418 0.59882 0.0
O52 O 0.09834 0.82585 0.7366 0.0
O53 O 0.151 0.74567 0.67886 0.0
O54 O 0.04854 0.7443 0.66255 0.0
C55 C 0.06512 0.88979 0.50102 0.0
C56 C 0.13067 0.79753 0.42174 0.0
C57 C 0.20018 0.88702 0.50417 0.0
C58 C 0.10958 0.85804 0.71532 0.0
C59 C 0.17937 0.76341 0.65605 0.0
C60 C 0.05005 0.7623 0.60959 0.0
O61 O 0.0913 0.9143 0.49601 0.0
O62 O 0.07398 0.85607 0.51926 0.0
O63 O 0.97678 0.3775 0.97656 0.0
Mg64 Mg 0.94062 0.3317 0.94801 0.0
O65 O 0.95502 0.41563 0.90071 0.0
Mg66 Mg 0.91644 0.38619 0.82758 0.0
O67 O 0.94124 0.32809 0.85148 0.0
O68 O 0.96136 0.28036 0.91146 0.0
O69 O 0.87852 0.35791 0.75285 0.0
O70 O 0.96551 0.38825 0.75279 0.0
Mg71 Mg 0.90822 0.45093 0.71235 0.0
O72 O 0.88969 0.44486 0.80506 0.0
O73 O 0.87647 0.40242 0.67734 0.0
O74 O 0.95895 0.43044 0.67561 0.0
O75 O 0.9405 0.47741 0.78661 0.0
C76 C 0.86106 0.36424 0.95612 0.0
C77 C 0.97493 0.4102 0.95035 0.0
C78 C 0.95625 0.29437 0.85593 0.0
C79 C 0.86837 0.36916 0.69808 0.0
C80 C 0.97738 0.40372 0.70192 0.0
C81 C 0.90858 0.47559 0.81504 0.0
O82 O 0.8838 0.3396 0.97948 0.0
O83 O 0.86881 0.38175 0.90464 0.0
O84 O 0.68187 0.74477 0.01646 0.0
Mg85 Mg 0.66811 0.80328 0.01266 0.0
O86 O 0.62172 0.75713 0.9988 0.0
Mg87 Mg 0.62907 0.80758 0.92407 0.0
O88 O 0.69403 0.83167 0.94175 0.0
O89 O 0.71292 0.83164 0.04337 0.0
O90 O 0.62871 0.8525 0.84413 0.0
O91 O 0.65431 0.76389 0.85641 0.0
Mg92 Mg 0.57092 0.78429 0.80333 0.0
O93 O 0.57074 0.78915 0.89898 0.0
O94 O 0.58525 0.83954 0.77005 0.0
O95 O 0.61419 0.74302 0.78243 0.0
O96 O 0.5191 0.7713 0.84896 0.0
C97 C 0.60142 0.84762 0.04967 0.0
C98 C 0.64742 0.73497 0.02083 0.0
C99 C 0.71859 0.8408 0.98552 0.0
C100 C 0.61155 0.86059 0.79254 0.0
C101 C 0.64665 0.74239 0.80949 0.0
C102 C 0.53595 0.77793 0.90174 0.0
O103 O 0.62474 0.82413 0.07349 0.0
O104 O 0.60074 0.85169 0.99028 0.0
O105 O 0.43322 0.42215 0.85747 0.0
Mg106 Mg 0.3795 0.4222 0.81213 0.0
O107 O 0.45838 0.39735 0.77137 0.0
Mg108 Mg 0.41173 0.39046 0.69619 0.0
O109 O 0.37785 0.4461 0.72465 0.0
O110 O 0.35081 0.47111 0.81185 0.0
O111 O 0.36875 0.3818 0.61668 0.0
O112 O 0.44328 0.4332 0.62984 0.0
Mg113 Mg 0.45325 0.34909 0.57102 0.0
O114 O 0.44196 0.33644 0.66281 0.0
O115 O 0.39524 0.34863 0.53732 0.0
O116 O 0.47677 0.40324 0.55611 0.0
O117 O 0.49093 0.31072 0.61655 0.0
C118 C 0.35367 0.34676 0.80496 0.0
C119 C 0.46177 0.40882 0.828 0.0
C120 C 0.35834 0.47314 0.75245 0.0
C121 C 0.36691 0.36625 0.56219 0.0
C122 C 0.4653 0.43382 0.58197 0.0
C123 C 0.47093 0.31375 0.66705 0.0
O124 O 0.34254 0.3777 0.82928 0.0
O125 O 0.37906 0.34682 0.76168 0.0
O126 O 0.80087 0.22284 0.55051 0.0
Mg127 Mg 0.82949 0.17419 0.52217 0.0
O128 O 0.85179 0.23371 0.49359 0.0
Mg129 Mg 0.85037 0.17514 0.42698 0.0
O130 O 0.79351 0.14532 0.46485 0.0
O131 O 0.80484 0.12881 0.56456 0.0
O132 O 0.8509 0.12567 0.35378 0.0
O133 O 0.81305 0.20874 0.36046 0.0
Mg134 Mg 0.8965 0.19796 0.29026 0.0
O135 O 0.90123 0.19893 0.38478 0.0
O136 O 0.88787 0.1383 0.27035 0.0
O137 O 0.84481 0.22921 0.27564 0.0
O138 O 0.94847 0.22038 0.32848 0.0
C139 C 0.90302 0.14883 0.53866 0.0
C140 C 0.82708 0.24541 0.53414 0.0
C141 C 0.78321 0.12755 0.5157 0.0
C142 C 0.86578 0.116 0.30095 0.0
C143 C 0.8143 0.22666 0.30824 0.0
C144 C 0.93474 0.21292 0.3833 0.0
O145 O 0.88386 0.17447 0.56517 0.0
O146 O 0.89169 0.13702 0.48574 0.0
O147 O 0.06172 0.60211 0.34816 0.0
Mg148 Mg 0.10862 0.59405 0.28435 0.0
O149 O 0.01875 0.58841 0.27513 0.0
Mg150 Mg 0.06031 0.59974 0.19301 0.0
O151 O 0.09939 0.5474 0.2286 0.0
O152 O 0.14097 0.54879 0.30928 0.0
O153 O 0.10357 0.61228 0.11318 0.0
O154 O 0.03327 0.55131 0.13003 0.0
Mg155 Mg 0.02157 0.63645 0.06193 0.0
O156 O 0.02047 0.64497 0.15612 0.0
O157 O 0.07965 0.64539 0.03249 0.0
O158 O 0.00375 0.57969 0.04919 0.0
O159 O 0.9858 0.68094 0.09303 0.0
C160 C 0.11575 0.66572 0.26319 0.0
C161 C 0.02737 0.59481 0.33265 0.0
C162 C 0.1237 0.52994 0.26553 0.0
C163 C 0.10769 0.62932 0.06025 0.0
C164 C 0.01383 0.5497 0.0789 0.0
C165 C -0.00161 0.67421 0.14893 0.0
O166 O 0.1431 0.64211 0.2617 0.0
O167 O 0.08253 0.65379 0.24875 0.0
O168 O 0.84674 0.66328 0.42497 0.0
Mg169 Mg 0.83549 0.61573 0.48712 0.0
O170 O 0.83228 0.70548 0.49901 0.0
Mg171 Mg 0.84219 0.66384 0.58211 0.0
O172 O 0.79057 0.6251 0.54568 0.0
O173 O 0.78913 0.58521 0.46262 0.0
O174 O 0.85344 0.62108 0.66611 0.0
O175 O 0.79189 0.68959 0.63983 0.0
Mg176 Mg 0.87244 0.70628 0.71108 0.0
O177 O 0.88435 0.70811 0.61793 0.0
O178 O 0.88437 0.65049 0.744 0.0
O179 O 0.81507 0.72051 0.72327 0.0
O180 O 0.91399 0.74561 0.68625 0.0
C181 C 0.90582 0.60406 0.51423 0.0
C182 C 0.83992 0.69759 0.44174 0.0
C183 C 0.77192 0.60163 0.50912 0.0
C184 C 0.86989 0.62045 0.72012 0.0
C185 C 0.78716 0.70834 0.69087 0.0
C186 C 0.91009 0.73373 0.62913 0.0
O187 O 0.87989 0.57911 0.51546 0.0
O188 O 0.89683 0.63846 0.52865 0.0
O189 O 0.03013 0.04442 0.67114 0.0
Mg190 Mg 0.07941 0.02401 0.71368 0.0
O191 O 0.02307 0.08858 0.74525 0.0
Mg192 Mg 0.06768 0.09019 0.82586 0.0
O193 O 0.09339 0.03016 0.80864 0.0
O194 O 0.04328 -0.00187 0.78399 0.0
O195 O 0.11283 0.09355 0.9063 0.0
O196 O 0.02471 0.06348 0.8957 0.0
Mg197 Mg 0.04348 0.14648 0.94096 0.0
O198 O 0.04464 0.15027 0.84431 0.0
O199 O 0.09839 0.13679 0.97922 0.0
O200 O 0.00315 0.1045 0.96763 0.0
O201 O 0.0264 0.19867 0.90522 0.0
C202 C 0.11949 0.10578 0.70026 0.0
C203 C 0.01243 0.07275 0.69401 0.0
C204 C 0.07367 -0.00032 0.81663 0.0
C205 C 0.12038 0.1109 0.95785 0.0
C206 C 0.00333 0.07141 0.94283 0.0
C207 C 0.0312 0.1847 0.84955 0.0
O208 O 0.113 0.07215 0.67948 0.0
O209 O 0.10771 0.11681 0.75412 0.0
O210 O 0.69119 0.27194 0.96593 0.0
Mg211 Mg 0.66645 0.32454 0.98975 0.0
O212 O 0.6335 0.26693 1.00428 0.0
Mg213 Mg 0.63223 0.31379 0.08528 0.0
O214 O 0.69037 0.35019 0.06514 0.0
O215 O 0.70112 0.36672 0.96437 0.0
O216 O 0.62585 0.35375 0.17184 0.0
O217 O 0.67034 0.27588 0.14433 0.0
Mg218 Mg 0.586 0.27352 0.20706 0.0
O219 O 0.58117 0.27957 0.11214 0.0
O220 O 0.58694 0.32973 0.24532 0.0
O221 O 0.63914 0.24563 0.22111 0.0
O222 O 0.53844 0.24698 0.16558 0.0
C223 C 0.59062 0.35413 0.96868 0.0
C224 C 0.66006 0.25393 0.96911 0.0
C225 C 0.71026 0.36864 0.02289 0.0
C226 C 0.6087 0.35616 0.225 0.0
C227 C 0.66978 0.25333 0.19142 0.0
C228 C 0.55064 0.25922 0.112 0.0
O229 O 0.61752 0.33857 0.93882 0.0
O230 O 0.59122 0.35366 0.02847 0.0
O231 O 0.46742 0.88198 0.47409 0.0
Mg232 Mg 0.4368 0.8327 0.44273 0.0
O233 O 0.44957 0.91909 0.39395 0.0
Mg234 Mg 0.41689 0.88693 0.318 0.0
O235 O 0.44331 0.83169 0.34699 0.0
O236 O 0.46404 0.78402 0.40553 0.0
O237 O 0.38487 0.85287 0.2411 0.0
O238 O 0.47011 0.89341 0.25222 0.0
Mg239 Mg 0.39487 0.92724 0.20089 0.0
O240 O 0.38682 0.94389 0.29365 0.0
O241 O 0.3528 0.88839 0.17279 0.0
O242 O 0.44796 0.91512 0.1622 0.0
O243 O 0.39564 0.98423 0.2136 0.0
C244 C 0.35505 0.8595 0.43574 0.0
C245 C 0.46664 0.91434 0.44643 0.0
C246 C 0.46006 0.79899 0.35048 0.0
C247 C 0.3622 0.85573 0.19418 0.0
C248 C 0.47533 0.90271 0.19486 0.0
C249 C 0.39093 0.97853 0.27302 0.0
O250 O 0.37704 0.8354 0.46243 0.0
O251 O 0.36587 0.8788 0.38763 0.0
O252 O 0.19006 0.23852 0.53607 0.0
Mg253 Mg 0.17139 0.29565 0.53626 0.0
O254 O 0.13383 0.24322 0.49243 0.0
Mg255 Mg 0.13572 0.30157 0.43136 0.0
O256 O 0.1939 0.32892 0.46617 0.0
O257 O 0.21302 0.32915 0.56753 0.0
O258 O 0.13159 0.3559 0.36647 0.0
O259 O 0.171 0.2721 0.35658 0.0
Mg260 Mg 0.08636 0.2861 0.2957 0.0
O261 O 0.084 0.27846 0.3901 0.0
O262 O 0.09133 0.34694 0.28612 0.0
O263 O 0.13834 0.25816 0.26941 0.0
O264 O 0.03717 0.25754 0.33213 0.0
C265 C 0.09718 0.32996 0.56205 0.0
C266 C 0.15864 0.22323 0.52232 0.0
C267 C 0.21745 0.33979 0.50998 0.0
C268 C 0.1138 0.36833 0.31764 0.0
C269 C 0.16925 0.25829 0.30115 0.0
C270 C 0.05178 0.26167 0.38729 0.0
O271 O 0.12283 0.31094 0.58994 0.0
O272 O 0.09811 0.33322 0.50258 0.0
O273 O 0.90412 0.89232 0.34681 0.0
Mg274 Mg 0.8568 0.89622 0.28267 0.0
O275 O 0.94847 0.90187 0.27337 0.0
Mg276 Mg 0.91016 0.8874 0.18913 0.0
O277 O 0.8693 0.93791 0.219 0.0
O278 O 0.82311 0.94313 0.2917 0.0
O279 O 0.86971 0.87426 0.10592 0.0
O280 O 0.93748 0.93557 0.12583 0.0
Mg281 Mg 0.95285 0.85129 0.06459 0.0
O282 O 0.95287 0.84191 0.15881 0.0
O283 O 0.89701 0.84189 0.0276 0.0
O284 O 0.97101 0.90708 0.04965 0.0
O285 O -0.0103 0.80845 0.09411 0.0
C286 C 0.85343 0.82302 0.26602 0.0
C287 C 0.93865 0.89882 0.33106 0.0
C288 C 0.84327 0.95832 0.24737 0.0
C289 C 0.868 0.85816 0.05197 0.0
C290 C 0.95848 0.93706 0.07644 0.0
C291 C 0.97685 0.81414 0.15026 0.0
O292 O 0.82563 0.84598 0.26223 0.0
O293 O 0.88636 0.83485 0.249 0.0
O294 O 0.34909 0.69137 0.057 0.0
Mg295 Mg 0.32986 0.64636 0.99623 0.0
O296 O 0.34189 0.72887 0.97566 0.0
Mg297 Mg 0.3469 0.67787 0.90962 0.0
O298 O 0.28271 0.65397 0.94192 0.0
O299 O 0.28316 0.62961 0.03999 0.0
O300 O 0.3512 0.63002 0.83448 0.0
O301 O 0.31372 0.71257 0.83636 0.0
Mg302 Mg 0.40074 0.7045 0.78071 0.0
O303 O 0.40003 0.70182 0.87523 0.0
O304 O 0.3898 0.64677 0.75454 0.0
O305 O 0.35116 0.73811 0.76173 0.0
O306 O 0.45075 0.72402 0.82896 0.0
C307 C 0.3924 0.61328 1.00167 0.0
C308 C 0.34722 0.72474 0.03409 0.0
C309 C 0.26472 0.63907 0.99007 0.0
C310 C 0.36695 0.62336 0.78097 0.0
C311 C 0.31855 0.73349 0.78745 0.0
C312 C 0.4334 0.71592 0.88064 0.0
O313 O 0.36184 0.59473 0.99518 0.0
O314 O 0.39358 0.64691 0.9784 0.0
O315 O 0.5579 0.08296 0.84386 0.0
Mg316 Mg 0.60824 0.07609 0.78562 0.0
O317 O 0.51985 0.08057 0.76101 0.0
Mg318 Mg 0.56526 0.09383 0.6893 0.0
O319 O 0.60037 0.03762 0.71631 0.0
O320 O 0.63771 0.02816 0.80143 0.0
O321 O 0.61347 0.10658 0.62163 0.0
O322 O 0.53752 0.05082 0.61967 0.0
Mg323 Mg 0.54055 0.13489 0.5628 0.0
O324 O 0.52814 0.14499 0.65682 0.0
O325 O 0.59945 0.1416 0.5382 0.0
O326 O 0.51771 0.08227 0.53494 0.0
O327 O 0.50407 0.18026 0.57888 0.0
C328 C 0.62457 0.14665 0.77407 0.0
C329 C 0.52444 0.081 0.82041 0.0
C330 C 0.62326 0.01599 0.74929 0.0
C331 C 0.62359 0.12348 0.57144 0.0
C332 C 0.5216 0.05135 0.56564 0.0
C333 C 0.50728 0.17374 0.63842 0.0
O334 O 0.64797 0.11965 0.76735 0.0
O335 O 0.59005 0.14098 0.75759 0.0
C336 C 0.46196 0.25701 0.03834 0.0
C337 C 0.4569 0.21813 0.05358 0.0
H338 H 0.50191 0.30333 0.04245 0.0
C339 C 0.48824 0.19336 0.04623 0.0
H340 H 0.43785 0.27658 0.04056 0.0
C341 C 0.52516 0.20877 0.04628 0.0
C342 C 0.5297 0.24847 0.05491 0.0
H343 H 0.48502 0.16295 0.05512 0.0
H344 H 0.54902 0.18954 0.05481 0.0
C345 C 0.49889 0.27246 0.03934 0.0
C346 C 0.47502 0.71031 0.27496 0.0
C347 C 0.51371 0.70914 0.29219 0.0
H348 H 0.42456 0.74475 0.28027 0.0
C349 C 0.53487 0.74321 0.28798 0.0
H350 H 0.45834 0.68414 0.27453 0.0
C351 C 0.51553 0.7783 0.29085 0.0
C352 C 0.4755 0.77845 0.29599 0.0
H353 H 0.56528 0.74291 0.29802 0.0
H354 H 0.53178 0.80362 0.30319 0.0
C355 C 0.45552 0.74533 0.27807 0.0
C356 C 0.00127 0.72688 0.55046 0.0
C357 C 0.01557 0.76243 0.57067 0.0
H358 H 0.95239 0.69002 0.55033 0.0
C359 C -0.01019 0.79243 0.58226 0.0
H360 H 0.02069 0.70323 0.54138 0.0
C361 C 0.9508 0.78474 0.5872 0.0
C362 C 0.93783 0.74682 0.58199 0.0
H363 H 0.00015 0.81997 0.59867 0.0
H364 H 0.93227 0.80674 0.6066 0.0
C365 C 0.9621 0.71922 0.55546 0.0
C366 C 0.95469 0.23754 0.78912 0.0
C367 C 0.97188 0.27297 0.80226 0.0
H368 H 0.9634 0.17693 0.7893 0.0
C369 C 0.01148 0.27647 0.7929 0.0
H370 H 0.92404 0.23418 0.79455 0.0
C371 C 0.03417 0.24345 0.78881 0.0
C372 C 0.017 0.2074 0.79625 0.0
H373 H 0.02559 0.30338 0.80272 0.0
H374 H 0.06482 0.24644 0.79479 0.0
C375 C 0.97745 0.20452 0.78565 0.0
C376 C 0.48137 0.78548 0.9693 0.0
C377 C 0.51668 0.76696 0.96038 0.0
H378 H 0.42158 0.78047 0.9492 0.0
C379 C 0.5176 0.72717 0.97034 0.0
H380 H 0.47986 0.81652 0.96801 0.0
C381 C 0.48446 0.70616 0.95718 0.0
C382 C 0.45083 0.72597 0.94104 0.0
H383 H 0.54478 0.71211 0.97002 0.0
H384 H 0.48714 0.67576 0.94747 0.0
C385 C 0.44782 0.76474 0.95809 0.0
C386 C 0.44128 0.25162 0.68304 0.0
C387 C 0.4689 0.27797 0.70382 0.0
H388 H 0.43288 0.19593 0.64297 0.0
C389 C 0.50335 0.26351 0.72867 0.0
H390 H 0.41427 0.26181 0.66419 0.0
C391 C 0.51372 0.22512 0.7181 0.0
C392 C 0.48972 0.20147 0.68224 0.0
H393 H 0.52492 0.2831 0.74603 0.0
H394 H 0.54273 0.21615 0.72856 0.0
C395 C 0.45208 0.21374 0.67027 0.0
C396 C 0.96318 0.25673 0.45823 0.0
C397 C 0.95827 0.21855 0.43933 0.0
H398 H 0.00352 0.30262 0.46157 0.0
C399 C 0.98935 0.19326 0.44505 0.0
H400 H 0.93921 0.27651 0.45722 0.0
C401 C 0.02632 0.20836 0.44653 0.0
C402 C 0.03092 0.24824 0.44266 0.0
H403 H 0.98588 0.16316 0.4337 0.0
H404 H 0.05011 0.18942 0.43599 0.0
C405 C 0.0002 0.27172 0.46075 0.0
C406 C 0.95877 0.71979 0.20818 0.0
C407 C -0.00464 0.70505 0.19542 0.0
H408 H 0.92392 0.7701 0.20686 0.0
C409 C 0.02691 0.72971 0.19906 0.0
H410 H 0.93398 0.70125 0.20565 0.0
C411 C 0.02115 0.76933 0.20048 0.0
C412 C 0.9838 0.78408 0.19712 0.0
H413 H 0.05541 0.71912 0.18868 0.0
H414 H 0.04544 0.78785 0.19156 0.0
C415 C 0.95301 0.75948 0.20949 0.0
C416 C 0.1779 0.06951 0.97452 0.0
C417 C 0.15597 0.10155 0.99211 0.0
H418 H 0.23329 0.04351 0.97547 0.0
C419 C 0.16992 0.12601 0.03946 0.0
H420 H 0.16733 0.04921 0.94011 0.0
C421 C 0.20759 0.12216 0.06078 0.0
C422 C 0.2316 0.09421 0.03412 0.0
H423 H 0.15317 0.15026 0.05564 0.0
H424 H 0.21931 0.14453 0.09045 0.0
C425 C 0.21538 0.0656 0.99609 0.0
C426 C 0.64547 0.41456 0.25286 0.0
C427 C 0.61319 0.39139 0.26217 0.0
H428 H 0.66766 0.47142 0.25698 0.0
C429 C 0.58357 0.4045 0.30146 0.0
H430 H 0.66945 0.4045 0.225 0.0
C431 C 0.58298 0.44283 0.32072 0.0
C432 C 0.61159 0.46785 0.29953 0.0
H433 H 0.55888 0.3867 0.31104 0.0
H434 H 0.5571 0.45404 0.34214 0.0
C435 C 0.64498 0.45257 0.27277 0.0
C436 C 0.29624 0.83903 0.49506 0.0
C437 C 0.3172 0.86762 0.46365 0.0
H438 H 0.242 0.82313 0.53436 0.0
C439 C 0.30175 0.90469 0.459 0.0
H440 H 0.30782 0.81035 0.50023 0.0
C441 C 0.2648 0.9123 0.48039 0.0
C442 C 0.24221 0.88282 0.50575 0.0
H443 H 0.31782 0.92761 0.43703 0.0
H444 H 0.25287 0.94063 0.47263 0.0
C445 C 0.25885 0.84654 0.5157 0.0
C446 C 0.89861 0.58097 0.80661 0.0
C447 C 0.87294 0.5841 0.75579 0.0
H448 H 0.92906 0.54294 0.86808 0.0
C449 C 0.85138 0.55187 0.73845 0.0
H450 H 0.91506 0.60547 0.82224 0.0
C451 C 0.85842 0.51631 0.76661 0.0
C452 C 0.88785 0.51232 0.81138 0.0
H453 H 0.83058 0.55361 0.70077 0.0
H454 H 0.84393 0.49134 0.74799 0.0
C455 C 0.90612 0.54533 0.83396 0.0
C456 C 0.78417 0.82962 0.95022 0.0
C457 C 0.75655 0.85588 0.97156 0.0
H458 H 0.84177 0.80906 0.96066 0.0
C459 C 0.76822 0.88761 0.00709 0.0
H460 H 0.77562 0.80462 0.92341 0.0
C461 C 0.80544 0.88944 0.03019 0.0
C462 C 0.83167 0.85997 0.01687 0.0
H463 H 0.7473 0.90806 0.02436 0.0
H464 H 0.81282 0.91249 0.06214 0.0
C465 C 0.82173 0.83162 0.97288 0.0
C466 C 0.32322 0.56901 0.76044 0.0
C467 C 0.3582 0.58727 0.74883 0.0
H468 H 0.29387 0.51555 0.76257 0.0
C469 C 0.38579 0.56889 0.71126 0.0
H470 H 0.30064 0.58336 0.78638 0.0
C471 C 0.38174 0.52995 0.69747 0.0
C472 C 0.35044 0.50987 0.72206 0.0
H473 H 0.41233 0.58312 0.69918 0.0
H474 H 0.40585 0.51461 0.67775 0.0
C475 C 0.31894 0.5305 0.74529 0.0
C476 C 0.69117 0.11598 0.60196 0.0
C477 C 0.6642 0.12166 0.5541 0.0
H478 H 0.7496 0.11132 0.62699 0.0
C479 C 0.67648 0.12364 0.49124 0.0
H480 H 0.68257 0.11439 0.65086 0.0
C481 C 0.71562 0.12181 0.47708 0.0
C482 C 0.74266 0.11801 0.52574 0.0
H483 H 0.65598 0.127 0.45341 0.0
H484 H 0.72475 0.12518 0.42868 0.0
C485 C 0.72979 0.11376 0.58799 0.0
C486 C 0.09459 0.42579 0.25285 0.0
C487 C 0.11926 0.40868 0.29725 0.0
H488 H 0.07702 0.47768 0.20672 0.0
C489 C 0.14897 0.43075 0.32283 0.0
H490 H 0.07166 0.40948 0.23154 0.0
C491 C 0.15243 0.46956 0.30773 0.0
C492 C 0.12604 0.48746 0.26713 0.0
H493 H 0.16903 0.41833 0.35597 0.0
H494 H 0.17469 0.48601 0.33062 0.0
C495 C 0.09789 0.46484 0.23803 0.0
C496 C 0.66979 0.63581 0.51568 0.0
C497 C 0.65222 0.60883 0.47587 0.0
H498 H 0.72203 0.65426 0.55899 0.0
C499 C 0.67256 0.5756 0.45909 0.0
H500 H 0.65466 0.66149 0.53016 0.0
C501 C 0.71081 0.57122 0.47639 0.0
C502 C 0.72965 0.60007 0.51048 0.0
H503 H 0.6595 0.55376 0.42995 0.0
H504 H 0.72638 0.54645 0.45916 0.0
C505 C 0.70829 0.63148 0.53283 0.0
C506 C 0.07401 0.92965 0.83464 0.0
C507 C 0.09407 0.96261 0.81586 0.0
H508 H 0.06326 0.87018 0.817 0.0
C509 C 0.12549 0.95847 0.77496 0.0
H510 H 0.04962 0.9321 0.86592 0.0
C511 C 0.13222 0.92349 0.7449 0.0
C512 C 0.10858 0.89187 0.7571 0.0
H513 H 0.14159 0.98328 0.75957 0.0
H514 H 0.15417 0.92195 0.70895 0.0
C515 C 0.0814 0.89438 0.80571 0.0
C516 C 0.7654 0.40847 0.99523 0.0
C517 C 0.7499 0.38022 0.03486 0.0
H518 H 0.81253 0.4246 0.93683 0.0
C519 C 0.77443 0.35252 0.06096 0.0
H520 H 0.74708 0.43036 0.975 0.0
C521 C 0.81175 0.34862 0.03804 0.0
C522 C 0.82496 0.37281 0.98963 0.0
H523 H 0.76329 0.33041 0.09177 0.0
H524 H 0.82891 0.32469 0.05436 0.0
C525 C 0.80252 0.40447 0.97198 0.0
C526 C 0.40078 0.03836 0.32818 0.0
C527 C 0.37463 0.01088 0.30703 0.0
H528 H 0.4202 0.09609 0.31687 0.0
C529 C 0.33955 0.02331 0.2821 0.0
H530 H 0.42729 0.02955 0.35038 0.0
C531 C 0.33678 0.06036 0.25794 0.0
C532 C 0.36731 0.08594 0.26587 0.0
H533 H 0.31831 0.00246 0.2677 0.0
H534 H 0.31257 0.06772 0.22844 0.0
C535 C 0.39717 0.07618 0.30731 0.0
C536 C 0.2643 0.38973 0.53075 0.0
C537 C 0.2537 0.35791 0.49475 0.0
H538 H 0.3094 0.4174 0.58053 0.0
C539 C 0.28205 0.33485 0.46714 0.0
H540 H 0.24268 0.40774 0.55243 0.0
C541 C 0.32029 0.33959 0.48454 0.0
C542 C 0.33002 0.36765 0.52911 0.0
H543 H 0.27423 0.30989 0.43963 0.0
H544 H 0.34128 0.31892 0.46836 0.0
C545 C 0.30235 0.39462 0.54789 0.0
C546 C 0.88295 0.05814 0.23636 0.0
C547 C 0.85677 0.07783 0.27494 0.0
H548 H 0.89875 0.00416 0.19563 0.0
C549 C 0.82223 0.05997 0.29122 0.0
H550 H 0.90953 0.07153 0.22215 0.0
C551 C 0.81561 0.02187 0.27477 0.0
C552 C 0.84374 0.00063 0.24272 0.0
H553 H 0.80095 0.07494 0.31911 0.0
H554 H 0.78975 0.00822 0.29164 0.0
C555 C 0.87654 0.01969 0.22052 0.0
C556 C 0.15817 0.65836 0.98935 0.0
C557 C 0.14611 0.62935 0.03111 0.0
H558 H 0.20624 0.68433 0.94207 0.0
C559 C 0.17199 0.60042 0.04813 0.0
H560 H 0.13855 0.68078 0.97486 0.0
C561 C 0.20978 0.60195 0.02838 0.0
C562 C 0.22302 0.63272 0.99174 0.0
H563 H 0.16341 0.57716 0.07887 0.0
H564 H 0.22939 0.58015 0.04539 0.0
C565 C 0.19667 0.66018 0.96997 0.0
C566 C 0.59581 0.9548 0.7118 0.0
C567 C 0.62734 0.9751 0.7352 0.0
H568 H 0.56583 0.90143 0.71241 0.0
C569 C 0.6581 0.95495 0.76199 0.0
H570 H 0.57192 0.96975 0.6904 0.0
C571 C 0.65443 0.91614 0.77549 0.0
C572 C 0.62015 0.89717 0.7616 0.0
H573 H 0.68316 0.97001 0.77892 0.0
H574 H 0.67703 0.90191 0.80153 0.0
C575 C 0.59219 0.91579 0.72504 0.0
C576 C 0.42209 0.09432 0.86919 0.0
C577 C 0.4255 0.10058 0.93422 0.0
H578 H 0.45041 0.08281 0.78272 0.0
C579 C 0.46119 0.09526 0.9633 0.0
H580 H 0.39487 0.09769 0.84538 0.0
C581 C 0.49353 0.08685 0.92684 0.0
C582 C 0.49034 0.08334 0.86108 0.0
H583 H 0.46447 0.09951 0.01347 0.0
H584 H 0.52114 0.08474 0.94975 0.0
C585 C 0.45405 0.08571 0.83312 0.0
C586 C 0.64545 0.6419 0.1091 0.0
C587 C 0.61972 0.65101 0.15756 0.0
H588 H 0.67493 0.66226 0.02707 0.0
C589 C 0.60375 0.68779 0.16126 0.0
H590 H 0.65752 0.61333 0.10533 0.0
C591 C 0.61207 0.71478 0.11515 0.0
C592 C 0.63728 0.7055 0.06611 0.0
H593 H 0.58323 0.69494 0.19766 0.0
H594 H 0.59901 0.74297 0.11799 0.0
C595 C 0.65487 0.66942 0.06417 0.0
C596 C 0.97113 0.86847 0.42157 0.0
C597 C 0.96804 0.89949 0.38006 0.0
H598 H 0.00518 0.84068 0.49091 0.0
C599 C -0.00577 0.92976 0.3839 0.0
H600 H 0.95129 0.84467 0.4188 0.0
C601 C 0.02402 0.92838 0.42776 0.0
C602 C 0.02878 0.89601 0.46673 0.0
H603 H -0.00798 0.95407 0.35231 0.0
H604 H 0.04459 0.95157 0.42837 0.0
C605 C 0.00161 0.86646 0.46368 0.0
C606 C 0.81812 0.28215 0.63353 0.0
C607 C 0.83306 0.28043 0.57191 0.0
H608 H 0.8181 0.31136 0.72233 0.0
C609 C 0.85638 0.31032 0.55044 0.0
H610 H 0.80016 0.25942 0.65172 0.0
C611 C 0.86563 0.3407 0.59064 0.0
C612 C 0.85267 0.34099 0.65344 0.0
H613 H 0.86829 0.30968 0.50338 0.0
H614 H 0.88479 0.36279 0.57368 0.0
C615 C 0.82836 0.31179 0.67422 0.0
C616 C 0.56932 0.85617 0.15365 0.0
C617 C 0.57319 0.86702 0.09015 0.0
H618 H 0.53543 0.85971 0.23736 0.0
C619 C 0.54783 0.89408 0.06475 0.0
H620 H 0.58862 0.83547 0.17471 0.0
C621 C 0.51749 0.90791 0.10077 0.0
C622 C 0.51185 0.89476 0.16274 0.0
H623 H 0.55042 0.90337 0.01628 0.0
H624 H 0.49737 0.9275 0.07892 0.0
C625 C 0.53891 0.87002 0.18969 0.0
C626 C 0.30826 0.30827 0.86846 0.0
C627 C 0.34388 0.31143 0.83826 0.0
H628 H 0.27381 0.27623 0.93325 0.0
C629 C 0.37267 0.2844 0.85074 0.0
H630 H 0.28601 0.32945 0.8606 0.0
C631 C 0.36629 0.2552 0.89424 0.0
C632 C 0.33069 0.25205 0.9243 0.0
H633 H 0.40072 0.28696 0.82938 0.0
H634 H 0.38903 0.23485 0.90389 0.0
C635 C 0.30148 0.27834 0.91048 0.0
C636 C 0.9649 0.0713 0.60682 0.0
C637 C 0.98362 0.09162 0.65484 0.0
H638 H 0.92482 0.07407 0.53069 0.0
C639 C 0.97806 0.13127 0.66044 0.0
H640 H 0.96939 0.04076 0.60089 0.0
C641 C 0.95299 0.15019 0.62037 0.0
C642 C 0.93344 0.12975 0.57364 0.0
H643 H -0.00627 0.14778 0.69489 0.0
H644 H 0.94863 0.18077 0.62625 0.0
C645 C 0.93997 0.09034 0.56621 0.0
C646 C 0.09104 0.75347 0.35899 0.0
C647 C 0.12733 0.76731 0.37452 0.0
H648 H 0.05905 0.7099 0.31276 0.0
C649 C 0.16004 0.74962 0.34962 0.0
H650 H 0.06556 0.76652 0.37883 0.0
C651 C 0.15643 0.71759 0.31037 0.0
C652 C 0.12003 0.70279 0.29618 0.0
H653 H 0.1883 0.75984 0.36204 0.0
H654 H 0.18207 0.70364 0.29302 0.0
C655 C 0.08741 0.72134 0.32053 0.0
C656 C 0.93437 0.57586 0.4177 0.0
C657 C 0.93922 0.59713 0.47339 0.0
H658 H 0.95811 0.55911 0.32895 0.0
C659 C 0.97417 0.61559 0.48423 0.0
H660 H 0.90753 0.56158 0.40777 0.0
C661 C 0.00324 0.61403 0.43903 0.0
C662 C -0.00244 0.59442 0.38187 0.0
H663 H 0.97884 0.63154 0.52715 0.0
H664 H 0.02969 0.6292 0.44804 0.0
C665 C 0.96309 0.57483 0.37213 0.0
C666 C 0.10885 0.16883 0.64999 0.0
C667 C 0.13114 0.13536 0.65464 0.0
H668 H 0.099 0.22177 0.60165 0.0
C669 C 0.16068 0.12911 0.61095 0.0
H670 H 0.08521 0.17386 0.68202 0.0
C671 C 0.16902 0.15706 0.56542 0.0
C672 C 0.14656 0.19047 0.56103 0.0
H673 H 0.17766 0.1031 0.61287 0.0
H674 H 0.19313 0.15282 0.5341 0.0
C675 C 0.11612 0.19581 0.60312 0.0
C676 C 0.5015 0.41018 0.92616 0.0
C677 C 0.49738 0.40028 0.8623 0.0
H678 H 0.53437 0.40298 0.0107 0.0
C679 C 0.52541 0.37738 0.83349 0.0
H680 H 0.48036 0.42792 0.94953 0.0
C681 C 0.5558 0.36307 0.86835 0.0
C682 C 0.55907 0.37143 0.93281 0.0
H683 H 0.52305 0.36893 0.78458 0.0
H684 H 0.57612 0.34437 0.84492 0.0
C685 C 0.53213 0.39571 0.9613 0.0
C686 C 0.37556 0.75731 0.12588 0.0
C687 C 0.35014 0.75812 0.07516 0.0
H688 H 0.39923 0.78787 0.20305 0.0
C689 C 0.32705 0.79053 0.06496 0.0
H690 H 0.3941 0.7328 0.13373 0.0
C691 C 0.32931 0.8219 0.10559 0.0
C692 C 0.355 0.82123 0.15636 0.0
H693 H 0.30706 0.79141 0.02601 0.0
H694 H 0.31156 0.84684 0.09665 0.0
C695 C 0.3781 0.78866 0.16592 0.0
C696 C 0.04096 0.37358 0.56809 0.0
C697 C 0.0672 0.34943 0.59857 0.0
H698 H -0.00765 0.41009 0.57722 0.0
C699 C 0.065 0.3448 0.66423 0.0
H700 H 0.04205 0.37792 0.51764 0.0
C701 C 0.03656 0.36357 0.69858 0.0
C702 C 0.00989 0.387 0.66781 0.0
H703 H 0.08509 0.32656 0.68906 0.0
H704 H 0.03536 0.35984 0.74905 0.0
C705 C 0.01268 0.39229 0.6024 0.0
C706 C 0.81358 0.77455 0.32405 0.0
C707 C 0.84984 0.78812 0.3057 0.0
H708 H 0.78207 0.73533 0.38248 0.0
C709 C 0.88265 0.77102 0.33222 0.0
H710 H 0.78775 0.78731 0.3051 0.0
C711 C 0.87927 0.7413 0.37608 0.0
C712 C 0.84308 0.72851 0.39505 0.0
H713 H 0.91097 0.78153 0.32103 0.0
H714 H 0.90494 0.7289 0.39636 0.0
C715 C 0.81025 0.74508 0.36855 0.0
C716 C 0.41969 0.56368 0.07422 0.0
C717 C 0.41983 0.60146 0.0511 0.0
H718 H 0.44178 0.52418 0.1425 0.0
C719 C 0.44215 0.62916 0.08212 0.0
H720 H 0.40234 0.54184 0.05198 0.0
C721 C 0.46365 0.61934 0.1353 0.0
C722 C 0.46383 0.58147 0.1579 0.0
H723 H 0.44231 0.6587 0.0663 0.0
H724 H 0.48109 0.64116 0.15744 0.0
C725 C 0.44173 0.55373 0.12667 0.0
C726 C 0.61305 0.21919 0.90313 0.0
C727 C 0.65124 0.22512 0.92114 0.0
H728 H 0.57473 0.19104 0.8402 0.0
C729 C 0.68078 0.20704 0.88761 0.0
H730 H 0.58972 0.23339 0.92745 0.0
C731 C 0.67218 0.18296 0.8373 0.0
C732 C 0.63394 0.17691 0.81941 0.0
H733 H 0.71047 0.21153 0.90024 0.0
H734 H 0.69541 0.16852 0.81312 0.0
C735 C 0.60449 0.19559 0.8523 0.0
C736 C 0.24148 0.23264 0.17611 0.0
C737 C 0.2758 0.23677 0.20973 0.0
H738 H 0.18039 0.23564 0.17903 0.0
C739 C 0.27469 0.24699 0.2735 0.0
H740 H 0.24169 0.22439 0.12696 0.0
C741 C 0.23989 0.25222 0.30361 0.0
C742 C 0.20542 0.24806 0.27031 0.0
H743 H 0.30067 0.24953 0.30101 0.0
H744 H 0.24015 0.25986 0.35302 0.0
C745 C 0.20648 0.23844 0.20614 0.0
C746 C 0.47539 0.53933 0.54256 0.0
C747 C 0.48276 0.53743 0.47744 0.0
H748 H 0.46563 0.50762 0.62772 0.0
C749 C 0.48215 0.50167 0.44733 0.0
H750 H 0.47591 0.5665 0.56721 0.0
C751 C 0.47686 0.46835 0.48197 0.0
C752 C 0.47159 0.4699 0.54752 0.0
H753 H 0.48739 0.4992 0.39723 0.0
H754 H 0.47707 0.44123 0.45708 0.0
C755 C 0.46986 0.50571 0.57739 0.0
C756 C 0.21539 0.75097 0.75307 0.0
C757 C 0.21602 0.75791 0.68798 0.0
H758 H 0.24746 0.73977 0.83605 0.0
C759 C 0.25113 0.762 0.65692 0.0
H760 H 0.18863 0.74927 0.77874 0.0
C761 C 0.28525 0.75655 0.6902 0.0
C762 C 0.28429 0.74748 0.75482 0.0
H763 H 0.25213 0.76806 0.60698 0.0
H764 H 0.31211 0.75767 0.66481 0.0
C765 C 0.24911 0.7461 0.78619 0.0
C766 C -0.00072 0.51288 0.98217 0.0
C767 C 0.00665 0.51269 0.04728 0.0
H768 H 0.98526 0.4807 0.90042 0.0
C769 C 0.00819 0.47745 0.0792 0.0
H770 H -0.00101 0.53935 0.95543 0.0
C771 C 0.00019 0.44328 0.04695 0.0
C772 C -0.00908 0.44406 0.98239 0.0
H773 H 0.01438 0.47641 0.12911 0.0
H774 H -0.00038 0.41661 0.07307 0.0
C775 C -0.00824 0.47909 0.95019 0.0
C776 C 0.68046 0.71889 0.71368 0.0
C777 C 0.6789 0.7227 0.77956 0.0
H778 H 0.71686 0.71205 0.63289 0.0
C779 C 0.71187 0.71609 0.81537 0.0
H780 H 0.65527 0.72379 0.68507 0.0
C781 C 0.74672 0.71045 0.78575 0.0
C782 C 0.74917 0.71072 0.71976 0.0
H783 H 0.71127 0.71817 0.86626 0.0
H784 H 0.77202 0.70717 0.81477 0.0
C785 C 0.71562 0.71278 0.68379 0.0
C786 C 0.70852 0.23648 0.28483 0.0
C787 C 0.70652 0.2434 0.2199 0.0
H788 H 0.74447 0.22803 0.36451 0.0
C789 C 0.74036 0.24742 0.18495 0.0
H790 H 0.68287 0.23437 0.31327 0.0
C791 C 0.77572 0.24441 0.21446 0.0
C792 C 0.77773 0.23721 0.27937 0.0
H793 H 0.73951 0.25333 0.1349 0.0
H794 H 0.80136 0.24665 0.18605 0.0
C795 C 0.74382 0.2337 0.31439 0.0
C796 C 0.98009 0.00459 0.94379 0.0
C797 C 0.98367 0.03973 0.97491 0.0
H798 H 0.96947 0.94493 0.95179 0.0
C799 C 0.9742 0.04215 0.03931 0.0
H800 H 0.98646 0.00195 0.89406 0.0
C801 C 0.96459 0.00903 0.07309 0.0
C802 C 0.9646 0.97337 0.04267 0.0
H803 H 0.97655 0.06908 0.06441 0.0
H804 H 0.95911 0.01103 0.12314 0.0
C805 C 0.97078 0.97182 0.97726 0.0
C806 C 0.5072 0.98091 0.56985 0.0
C807 C 0.50905 0.01544 0.53588 0.0
H808 H 0.49237 0.92133 0.56793 0.0
C809 C 0.4993 0.01561 0.47178 0.0
H810 H 0.51476 0.97995 0.61923 0.0
C811 C 0.4869 0.98234 0.44256 0.0
C812 C 0.48375 0.94807 0.47674 0.0
H813 H 0.50106 0.04155 0.44386 0.0
H814 H 0.47924 0.98371 0.39322 0.0
C815 C 0.49458 0.9474 0.54044 0.0
loop_
_geom_bond_atom_site_label_1
_geom_bond_atom_site_label_2
_geom_bond_distance
_geom_bond_site_symmetry_2
_ccdc_geom_bond_type
O0 Mg1 1.990 . S
O0 C14 1.253 . S
Mg1 O0 1.990 . S
Mg1 O4 2.180 1_556 S
Mg1 O5 2.117 . S
Mg1 O19 2.030 . S
O2 Mg3 2.072 . S
O2 C14 1.260 1_554 S
Mg3 O2 2.072 . S
Mg3 O4 2.099 . S
Mg3 O6 2.079 . S
Mg3 O7 2.072 . S
Mg3 O9 2.099 . S
Mg3 O20 2.083 . S
O4 Mg1 2.180 1_554 S
O4 Mg3 2.099 . S
O4 C15 1.279 1_554 S
O5 Mg1 2.117 . S
O5 C15 1.250 . S
O6 Mg3 2.079 . S
O6 C16 1.264 . S
O7 Mg3 2.072 . S
O7 C17 1.260 . S
Mg8 O9 2.180 . S
Mg8 O10 2.030 . S
Mg8 O11 1.990 . S
Mg8 O12 2.117 . S
O9 Mg3 2.099 . S
O9 Mg8 2.180 . S
O9 C18 1.279 . S
O10 Mg8 2.030 . S
O10 C16 1.248 . S
O11 Mg8 1.990 . S
O11 C17 1.253 . S
O12 Mg8 2.117 . S
O12 C18 1.250 . S
C13 O19 1.248 . S
C13 O20 1.257 1_556 S
C14 O0 1.253 . S
C14 O2 1.260 1_556 S
C15 O4 1.279 1_556 S
C15 O5 1.250 . S
C16 O6 1.264 . S
C16 O10 1.248 . S
C17 O7 1.260 . S
C17 O11 1.253 . S
C18 O9 1.279 . S
C18 O12 1.250 . S
O19 Mg1 2.030 . S
O19 C13 1.248 . S
O20 Mg3 2.083 . S
O20 C13 1.257 1_554 S
O21 Mg22 1.990 . S
O21 C35 1.253 . S
Mg22 O21 1.990 . S
Mg22 O25 2.180 . S
Mg22 O26 2.117 . S
Mg22 O40 2.030 . S
O23 Mg24 2.072 . S
O23 C35 1.260 . S
Mg24 O23 2.072 . S
Mg24 O25 2.099 . S
Mg24 O27 2.079 . S
Mg24 O28 2.072 . S
Mg24 O30 2.099 . S
Mg24 O41 2.079 . S
O25 Mg22 2.180 . S
O25 Mg24 2.099 . S
O25 C36 1.279 . S
O26 Mg22 2.117 . S
O26 C36 1.250 . S
O27 Mg24 2.079 . S
O27 C37 1.264 . S
O28 Mg24 2.072 . S
O28 C38 1.260 . S
Mg29 O30 2.180 . S
Mg29 O31 2.030 . S
Mg29 O32 1.990 . S
Mg29 O33 2.117 . S
O30 Mg24 2.099 . S
O30 Mg29 2.180 . S
O30 C39 1.279 . S
O31 Mg29 2.030 . S
O31 C37 1.248 . S
O32 Mg29 1.990 . S
O32 C38 1.253 . S
O33 Mg29 2.117 . S
O33 C39 1.250 . S
C34 O40 1.248 . S
C34 O41 1.264 . S
C35 O21 1.253 . S
C35 O23 1.260 . S
C36 O25 1.279 . S
C36 O26 1.250 . S
C37 O27 1.264 . S
C37 O31 1.248 . S
C38 O28 1.260 . S
C38 O32 1.253 . S
C39 O30 1.279 . S
C39 O33 1.250 . S
O40 Mg22 2.030 . S
O40 C34 1.248 . S
O41 Mg24 2.079 . S
O41 C34 1.264 . S
O42 Mg43 1.990 . S
O42 C56 1.253 . S
Mg43 O42 1.990 . S
Mg43 O46 2.180 . S
Mg43 O47 2.117 . S
Mg43 O61 2.030 . S
O44 Mg45 2.072 . S
O44 C56 1.260 . S
Mg45 O44 2.072 . S
Mg45 O46 2.099 . S
Mg45 O48 2.079 . S
Mg45 O49 2.072 . S
Mg45 O51 2.099 . S
Mg45 O62 2.079 . S
O46 Mg43 2.180 . S
O46 Mg45 2.099 . S
O46 C57 1.279 . S
O47 Mg43 2.117 . S
O47 C57 1.250 . S
O48 Mg45 2.079 . S
O48 C58 1.264 . S
O49 Mg45 2.072 . S
O49 C59 1.260 . S
Mg50 O51 2.180 . S
Mg50 O52 2.030 . S
Mg50 O53 1.990 . S
Mg50 O54 2.117 . S
O51 Mg45 2.099 . S
O51 Mg50 2.180 . S
O51 C60 1.279 . S
O52 Mg50 2.030 . S
O52 C58 1.248 . S
O53 Mg50 1.990 . S
O53 C59 1.253 . S
O54 Mg50 2.117 . S
O54 C60 1.250 . S
C55 O61 1.248 . S
C55 O62 1.264 . S
C56 O42 1.253 . S
C56 O44 1.260 . S
C57 O46 1.279 . S
C57 O47 1.250 . S
C58 O48 1.264 . S
C58 O52 1.248 . S
C59 O49 1.260 . S
C59 O53 1.253 . S
C60 O51 1.279 . S
C60 O54 1.250 . S
O61 Mg43 2.030 . S
O61 C55 1.248 . S
O62 Mg45 2.079 . S
O62 C55 1.264 . S
O63 Mg64 1.990 . S
O63 C77 1.253 . S
Mg64 O63 1.990 . S
Mg64 O67 2.180 . S
Mg64 O68 2.117 . S
Mg64 O82 2.030 . S
O65 Mg66 2.072 . S
O65 C77 1.260 . S
Mg66 O65 2.072 . S
Mg66 O67 2.099 . S
Mg66 O69 2.079 . S
Mg66 O70 2.072 . S
Mg66 O72 2.099 . S
Mg66 O83 2.079 . S
O67 Mg64 2.180 . S
O67 Mg66 2.099 . S
O67 C78 1.279 . S
O68 Mg64 2.117 . S
O68 C78 1.250 . S
O69 Mg66 2.079 . S
O69 C79 1.264 . S
O70 Mg66 2.072 . S
O70 C80 1.260 . S
Mg71 O72 2.180 . S
Mg71 O73 2.030 . S
Mg71 O74 1.990 . S
Mg71 O75 2.117 . S
O72 Mg66 2.099 . S
O72 Mg71 2.180 . S
O72 C81 1.279 . S
O73 Mg71 2.030 . S
O73 C79 1.248 . S
O74 Mg71 1.990 . S
O74 C80 1.253 . S
O75 Mg71 2.117 . S
O75 C81 1.250 . S
C76 O82 1.248 . S
C76 O83 1.264 . S
C77 O63 1.253 . S
C77 O65 1.260 . S
C78 O67 1.279 . S
C78 O68 1.250 . S
C79 O69 1.264 . S
C79 O73 1.248 . S
C80 O70 1.260 . S
C80 O74 1.253 . S
C81 O72 1.279 . S
C81 O75 1.250 . S
O82 Mg64 2.030 . S
O82 C76 1.248 . S
O83 Mg66 2.079 . S
O83 C76 1.264 . S
O84 Mg85 1.990 . S
O84 C98 1.253 . S
Mg85 O84 1.990 . S
Mg85 O88 2.180 1_554 S
Mg85 O89 2.117 . S
Mg85 O103 2.030 . S
O86 Mg87 2.072 . S
O86 C98 1.260 1_556 S
Mg87 O86 2.072 . S
Mg87 O88 2.099 . S
Mg87 O90 2.079 . S
Mg87 O91 2.072 . S
Mg87 O93 2.099 . S
Mg87 O104 2.083 . S
O88 Mg85 2.180 1_556 S
O88 Mg87 2.099 . S
O88 C99 1.279 1_556 S
O89 Mg85 2.117 . S
O89 C99 1.250 . S
O90 Mg87 2.079 . S
O90 C100 1.264 . S
O91 Mg87 2.072 . S
O91 C101 1.260 . S
Mg92 O93 2.180 . S
Mg92 O94 2.030 . S
Mg92 O95 1.990 . S
Mg92 O96 2.117 . S
O93 Mg87 2.099 . S
O93 Mg92 2.180 . S
O93 C102 1.279 . S
O94 Mg92 2.030 . S
O94 C100 1.248 . S
O95 Mg92 1.990 . S
O95 C101 1.253 . S
O96 Mg92 2.117 . S
O96 C102 1.250 . S
C97 O103 1.248 . S
C97 O104 1.257 1_554 S
C98 O84 1.253 . S
C98 O86 1.260 1_554 S
C99 O88 1.279 1_554 S
C99 O89 1.250 . S
C100 O90 1.264 . S
C100 O94 1.248 . S
C101 O91 1.260 . S
C101 O95 1.253 . S
C102 O93 1.279 . S
C102 O96 1.250 . S
O103 Mg85 2.030 . S
O103 C97 1.248 . S
O104 Mg87 2.083 . S
O104 C97 1.257 1_556 S
O105 Mg106 1.990 . S
O105 C119 1.253 . S
Mg106 O105 1.990 . S
Mg106 O109 2.180 . S
Mg106 O110 2.117 . S
Mg106 O124 2.030 . S
O107 Mg108 2.072 . S
O107 C119 1.260 . S
Mg108 O107 2.072 . S
Mg108 O109 2.099 . S
Mg108 O111 2.079 . S
Mg108 O112 2.072 . S
Mg108 O114 2.099 . S
Mg108 O125 2.079 . S
O109 Mg106 2.180 . S
O109 Mg108 2.099 . S
O109 C120 1.279 . S
O110 Mg106 2.117 . S
O110 C120 1.250 . S
O111 Mg108 2.079 . S
O111 C121 1.264 . S
O112 Mg108 2.072 . S
O112 C122 1.260 . S
Mg113 O114 2.180 . S
Mg113 O115 2.030 . S
Mg113 O116 1.990 . S
Mg113 O117 2.117 . S
O114 Mg108 2.099 . S
O114 Mg113 2.180 . S
O114 C123 1.279 . S
O115 Mg113 2.030 . S
O115 C121 1.248 . S
O116 Mg113 1.990 . S
O116 C122 1.253 . S
O117 Mg113 2.117 . S
O117 C123 1.250 . S
C118 O124 1.248 . S
C118 O125 1.264 . S
C119 O105 1.253 . S
C119 O107 1.260 . S
C120 O109 1.279 . S
C120 O110 1.250 . S
C121 O111 1.264 . S
C121 O115 1.248 . S
C122 O112 1.260 . S
C122 O116 1.253 . S
C123 O114 1.279 . S
C123 O117 1.250 . S
O124 Mg106 2.030 . S
O124 C118 1.248 . S
O125 Mg108 2.079 . S
O125 C118 1.264 . S
O126 Mg127 1.990 . S
O126 C140 1.253 . S
Mg127 O126 1.990 . S
Mg127 O130 2.180 . S
Mg127 O131 2.117 . S
Mg127 O145 2.030 . S
O128 Mg129 2.072 . S
O128 C140 1.260 . S
Mg129 O128 2.072 . S
Mg129 O130 2.099 . S
Mg129 O132 2.079 . S
Mg129 O133 2.072 . S
Mg129 O135 2.099 . S
Mg129 O146 2.079 . S
O130 Mg127 2.180 . S
O130 Mg129 2.099 . S
O130 C141 1.279 . S
O131 Mg127 2.117 . S
O131 C141 1.250 . S
O132 Mg129 2.079 . S
O132 C142 1.264 . S
O133 Mg129 2.072 . S
O133 C143 1.260 . S
Mg134 O135 2.180 . S
Mg134 O136 2.030 . S
Mg134 O137 1.990 . S
Mg134 O138 2.117 . S
O135 Mg129 2.099 . S
O135 Mg134 2.180 . S
O135 C144 1.279 . S
O136 Mg134 2.030 . S
O136 C142 1.248 . S
O137 Mg134 1.990 . S
O137 C143 1.253 . S
O138 Mg134 2.117 . S
O138 C144 1.250 . S
C139 O145 1.248 . S
C139 O146 1.264 . S
C140 O126 1.253 . S
C140 O128 1.260 . S
C141 O130 1.279 . S
C141 O131 1.250 . S
C142 O132 1.264 . S
C142 O136 1.248 . S
C143 O133 1.260 . S
C143 O137 1.253 . S
C144 O135 1.279 . S
C144 O138 1.250 . S
O145 Mg127 2.030 . S
O145 C139 1.248 . S
O146 Mg129 2.079 . S
O146 C139 1.264 . S
O147 Mg148 1.990 . S
O147 C161 1.253 . S
Mg148 O147 1.990 . S
Mg148 O151 2.180 . S
Mg148 O152 2.117 . S
Mg148 O166 2.030 . S
O149 Mg150 2.072 . S
O149 C161 1.260 . S
Mg150 O149 2.072 . S
Mg150 O151 2.099 . S
Mg150 O153 2.079 . S
Mg150 O154 2.072 . S
Mg150 O156 2.099 . S
Mg150 O167 2.079 . S
O151 Mg148 2.180 . S
O151 Mg150 2.099 . S
O151 C162 1.279 . S
O152 Mg148 2.117 . S
O152 C162 1.250 . S
O153 Mg150 2.079 . S
O153 C163 1.264 . S
O154 Mg150 2.072 . S
O154 C164 1.260 . S
Mg155 O156 2.180 . S
Mg155 O157 2.030 . S
Mg155 O158 1.990 . S
Mg155 O159 2.117 . S
O156 Mg150 2.099 . S
O156 Mg155 2.180 . S
O156 C165 1.279 . S
O157 Mg155 2.030 . S
O157 C163 1.248 . S
O158 Mg155 1.990 . S
O158 C164 1.253 . S
O159 Mg155 2.117 . S
O159 C165 1.250 . S
C160 O166 1.248 . S
C160 O167 1.264 . S
C161 O147 1.253 . S
C161 O149 1.260 . S
C162 O151 1.279 . S
C162 O152 1.250 . S
C163 O153 1.264 . S
C163 O157 1.248 . S
C164 O154 1.260 . S
C164 O158 1.253 . S
C165 O156 1.279 . S
C165 O159 1.250 . S
O166 Mg148 2.030 . S
O166 C160 1.248 . S
O167 Mg150 2.079 . S
O167 C160 1.264 . S
O168 Mg169 1.990 . S
O168 C182 1.253 . S
Mg169 O168 1.990 . S
Mg169 O172 2.180 . S
Mg169 O173 2.117 . S
Mg169 O187 2.030 . S
O170 Mg171 2.072 . S
O170 C182 1.260 . S
Mg171 O170 2.072 . S
Mg171 O172 2.099 . S
Mg171 O174 2.079 . S
Mg171 O175 2.072 . S
Mg171 O177 2.099 . S
Mg171 O188 2.079 . S
O172 Mg169 2.180 . S
O172 Mg171 2.099 . S
O172 C183 1.279 . S
O173 Mg169 2.117 . S
O173 C183 1.250 . S
O174 Mg171 2.079 . S
O174 C184 1.264 . S
O175 Mg171 2.072 . S
O175 C185 1.260 . S
Mg176 O177 2.180 . S
Mg176 O178 2.030 . S
Mg176 O179 1.990 . S
Mg176 O180 2.117 . S
O177 Mg171 2.099 . S
O177 Mg176 2.180 . S
O177 C186 1.279 . S
O178 Mg176 2.030 . S
O178 C184 1.248 . S
O179 Mg176 1.990 . S
O179 C185 1.253 . S
O180 Mg176 2.117 . S
O180 C186 1.250 . S
C181 O187 1.248 . S
C181 O188 1.264 . S
C182 O168 1.253 . S
C182 O170 1.260 . S
C183 O172 1.279 . S
C183 O173 1.250 . S
C184 O174 1.264 . S
C184 O178 1.248 . S
C185 O175 1.260 . S
C185 O179 1.253 . S
C186 O177 1.279 . S
C186 O180 1.250 . S
O187 Mg169 2.030 . S
O187 C181 1.248 . S
O188 Mg171 2.079 . S
O188 C181 1.264 . S
O189 Mg190 1.990 . S
O189 C203 1.253 . S
Mg190 O189 1.990 . S
Mg190 O193 2.180 . S
Mg190 O194 2.117 . S
Mg190 O208 2.030 . S
O191 Mg192 2.072 . S
O191 C203 1.260 . S
Mg192 O191 2.072 . S
Mg192 O193 2.099 . S
Mg192 O195 2.079 . S
Mg192 O196 2.072 . S
Mg192 O198 2.099 . S
Mg192 O209 2.079 . S
O193 Mg190 2.180 . S
O193 Mg192 2.099 . S
O193 C204 1.279 . S
O194 Mg190 2.117 . S
O194 C204 1.250 . S
O195 Mg192 2.079 . S
O195 C205 1.264 . S
O196 Mg192 2.072 . S
O196 C206 1.260 . S
Mg197 O198 2.180 . S
Mg197 O199 2.030 . S
Mg197 O200 1.990 . S
Mg197 O201 2.117 . S
O198 Mg192 2.099 . S
O198 Mg197 2.180 . S
O198 C207 1.279 . S
O199 Mg197 2.030 . S
O199 C205 1.248 . S
O200 Mg197 1.990 . S
O200 C206 1.253 . S
O201 Mg197 2.117 . S
O201 C207 1.250 . S
C202 O208 1.248 . S
C202 O209 1.264 . S
C203 O189 1.253 . S
C203 O191 1.260 . S
C204 O193 1.279 . S
C204 O194 1.250 . S
C205 O195 1.264 . S
C205 O199 1.248 . S
C206 O196 1.260 . S
C206 O200 1.253 . S
C207 O198 1.279 . S
C207 O201 1.250 . S
O208 Mg190 2.030 . S
O208 C202 1.248 . S
O209 Mg192 2.079 . S
O209 C202 1.264 . S
O210 Mg211 1.990 . S
O210 C224 1.253 . S
Mg211 O210 1.990 . S
Mg211 O214 2.180 1_556 S
Mg211 O215 2.117 . S
Mg211 O229 2.030 . S
O212 Mg213 2.072 . S
O212 C224 1.260 1_554 S
Mg213 O212 2.072 . S
Mg213 O214 2.099 . S
Mg213 O216 2.079 . S
Mg213 O217 2.072 . S
Mg213 O219 2.099 . S
Mg213 O230 2.083 . S
O214 Mg211 2.180 1_554 S
O214 Mg213 2.099 . S
O214 C225 1.279 1_554 S
O215 Mg211 2.117 . S
O215 C225 1.250 . S
O216 Mg213 2.079 . S
O216 C226 1.264 . S
O217 Mg213 2.072 . S
O217 C227 1.260 . S
Mg218 O219 2.180 . S
Mg218 O220 2.030 . S
Mg218 O221 1.990 . S
Mg218 O222 2.117 . S
O219 Mg213 2.099 . S
O219 Mg218 2.180 . S
O219 C228 1.279 . S
O220 Mg218 2.030 . S
O220 C226 1.248 . S
O221 Mg218 1.990 . S
O221 C227 1.253 . S
O222 Mg218 2.117 . S
O222 C228 1.250 . S
C223 O229 1.248 . S
C223 O230 1.257 1_556 S
C224 O210 1.253 . S
C224 O212 1.260 1_556 S
C225 O214 1.279 1_556 S
C225 O215 1.250 . S
C226 O216 1.264 . S
C226 O220 1.248 . S
C227 O217 1.260 . S
C227 O221 1.253 . S
C228 O219 1.279 . S
C228 O222 1.250 . S
O229 Mg211 2.030 . S
O229 C223 1.248 . S
O230 Mg213 2.083 . S
O230 C223 1.257 1_554 S
O231 Mg232 1.990 . S
O231 C245 1.253 . S
Mg232 O231 1.990 . S
Mg232 O235 2.180 . S
Mg232 O236 2.117 . S
Mg232 O250 2.030 . S
O233 Mg234 2.072 . S
O233 C245 1.260 . S
Mg234 O233 2.072 . S
Mg234 O235 2.099 . S
Mg234 O237 2.079 . S
Mg234 O238 2.072 . S
Mg234 O240 2.099 . S
Mg234 O251 2.079 . S
O235 Mg232 2.180 . S
O235 Mg234 2.099 . S
O235 C246 1.279 . S
O236 Mg232 2.117 . S
O236 C246 1.250 . S
O237 Mg234 2.079 . S
O237 C247 1.264 . S
O238 Mg234 2.072 . S
O238 C248 1.260 . S
Mg239 O240 2.180 . S
Mg239 O241 2.030 . S
Mg239 O242 1.990 . S
Mg239 O243 2.117 . S
O240 Mg234 2.099 . S
O240 Mg239 2.180 . S
O240 C249 1.279 . S
O241 Mg239 2.030 . S
O241 C247 1.248 . S
O242 Mg239 1.990 . S
O242 C248 1.253 . S
O243 Mg239 2.117 . S
O243 C249 1.250 . S
C244 O250 1.248 . S
C244 O251 1.264 . S
C245 O231 1.253 . S
C245 O233 1.260 . S
C246 O235 1.279 . S
C246 O236 1.250 . S
C247 O237 1.264 . S
C247 O241 1.248 . S
C248 O238 1.260 . S
C248 O242 1.253 . S
C249 O240 1.279 . S
C249 O243 1.250 . S
O250 Mg232 2.030 . S
O250 C244 1.248 . S
O251 Mg234 2.079 . S
O251 C244 1.264 . S
O252 Mg253 1.990 . S
O252 C266 1.253 . S
Mg253 O252 1.990 . S
Mg253 O256 2.180 . S
Mg253 O257 2.117 . S
Mg253 O271 2.030 . S
O254 Mg255 2.072 . S
O254 C266 1.260 . S
Mg255 O254 2.072 . S
Mg255 O256 2.099 . S
Mg255 O258 2.079 . S
Mg255 O259 2.072 . S
Mg255 O261 2.099 . S
Mg255 O272 2.079 . S
O256 Mg253 2.180 . S
O256 Mg255 2.099 . S
O256 C267 1.279 . S
O257 Mg253 2.117 . S
O257 C267 1.250 . S
O258 Mg255 2.079 . S
O258 C268 1.264 . S
O259 Mg255 2.072 . S
O259 C269 1.260 . S
Mg260 O261 2.180 . S
Mg260 O262 2.030 . S
Mg260 O263 1.990 . S
Mg260 O264 2.117 . S
O261 Mg255 2.099 . S
O261 Mg260 2.180 . S
O261 C270 1.279 . S
O262 Mg260 2.030 . S
O262 C268 1.248 . S
O263 Mg260 1.990 . S
O263 C269 1.253 . S
O264 Mg260 2.117 . S
O264 C270 1.250 . S
C265 O271 1.248 . S
C265 O272 1.264 . S
C266 O252 1.253 . S
C266 O254 1.260 . S
C267 O256 1.279 . S
C267 O257 1.250 . S
C268 O258 1.264 . S
C268 O262 1.248 . S
C269 O259 1.260 . S
C269 O263 1.253 . S
C270 O261 1.279 . S
C270 O264 1.250 . S
O271 Mg253 2.030 . S
O271 C265 1.248 . S
O272 Mg255 2.079 . S
O272 C265 1.264 . S
O273 Mg274 1.990 . S
O273 C287 1.253 . S
Mg274 O273 1.990 . S
Mg274 O277 2.180 . S
Mg274 O278 2.117 . S
Mg274 O292 2.030 . S
O275 Mg276 2.072 . S
O275 C287 1.260 . S
Mg276 O275 2.072 . S
Mg276 O277 2.099 . S
Mg276 O279 2.079 . S
Mg276 O280 2.072 . S
Mg276 O282 2.099 . S
Mg276 O293 2.079 . S
O277 Mg274 2.180 . S
O277 Mg276 2.099 . S
O277 C288 1.279 . S
O278 Mg274 2.117 . S
O278 C288 1.250 . S
O279 Mg276 2.079 . S
O279 C289 1.264 . S
O280 Mg276 2.072 . S
O280 C290 1.260 . S
Mg281 O282 2.180 . S
Mg281 O283 2.030 . S
Mg281 O284 1.990 . S
Mg281 O285 2.117 . S
O282 Mg276 2.099 . S
O282 Mg281 2.180 . S
O282 C291 1.279 . S
O283 Mg281 2.030 . S
O283 C289 1.248 . S
O284 Mg281 1.990 . S
O284 C290 1.253 . S
O285 Mg281 2.117 . S
O285 C291 1.250 . S
C286 O292 1.248 . S
C286 O293 1.264 . S
C287 O273 1.253 . S
C287 O275 1.260 . S
C288 O277 1.279 . S
C288 O278 1.250 . S
C289 O279 1.264 . S
C289 O283 1.248 . S
C290 O280 1.260 . S
C290 O284 1.253 . S
C291 O282 1.279 . S
C291 O285 1.250 . S
O292 Mg274 2.030 . S
O292 C286 1.248 . S
O293 Mg276 2.079 . S
O293 C286 1.264 . S
O294 Mg295 1.990 . S
O294 C308 1.253 . S
Mg295 O294 1.990 . S
Mg295 O298 2.180 1_554 S
Mg295 O299 2.117 . S
Mg295 O313 2.030 . S
O296 Mg297 2.072 . S
O296 C308 1.260 1_556 S
Mg297 O296 2.072 . S
Mg297 O298 2.099 . S
Mg297 O300 2.079 . S
Mg297 O301 2.072 . S
Mg297 O303 2.099 . S
Mg297 O314 2.083 . S
O298 Mg295 2.180 1_556 S
O298 Mg297 2.099 . S
O298 C309 1.279 1_556 S
O299 Mg295 2.117 . S
O299 C309 1.250 . S
O300 Mg297 2.079 . S
O300 C310 1.264 . S
O301 Mg297 2.072 . S
O301 C311 1.260 . S
Mg302 O303 2.180 . S
Mg302 O304 2.030 . S
Mg302 O305 1.990 . S
Mg302 O306 2.117 . S
O303 Mg297 2.099 . S
O303 Mg302 2.180 . S
O303 C312 1.279 . S
O304 Mg302 2.030 . S
O304 C310 1.248 . S
O305 Mg302 1.990 . S
O305 C311 1.253 . S
O306 Mg302 2.117 . S
O306 C312 1.250 . S
C307 O313 1.248 . S
C307 O314 1.257 1_554 S
C308 O294 1.253 . S
C308 O296 1.260 1_554 S
C309 O298 1.279 1_554 S
C309 O299 1.250 . S
C310 O300 1.264 . S
C310 O304 1.248 . S
C311 O301 1.260 . S
C311 O305 1.253 . S
C312 O303 1.279 . S
C312 O306 1.250 . S
O313 Mg295 2.030 . S
O313 C307 1.248 . S
O314 Mg297 2.083 . S
O314 C307 1.257 1_556 S
O315 Mg316 1.990 . S
O315 C329 1.253 . S
Mg316 O315 1.990 . S
Mg316 O319 2.180 . S
Mg316 O320 2.117 . S
Mg316 O334 2.030 . S
O317 Mg318 2.072 . S
O317 C329 1.260 . S
Mg318 O317 2.072 . S
Mg318 O319 2.099 . S
Mg318 O321 2.079 . S
Mg318 O322 2.072 . S
Mg318 O324 2.099 . S
Mg318 O335 2.079 . S
O319 Mg316 2.180 . S
O319 Mg318 2.099 . S
O319 C330 1.279 . S
O320 Mg316 2.117 . S
O320 C330 1.250 . S
O321 Mg318 2.079 . S
O321 C331 1.264 . S
O322 Mg318 2.072 . S
O322 C332 1.260 . S
Mg323 O324 2.180 . S
Mg323 O325 2.030 . S
Mg323 O326 1.990 . S
Mg323 O327 2.117 . S
O324 Mg318 2.099 . S
O324 Mg323 2.180 . S
O324 C333 1.279 . S
O325 Mg323 2.030 . S
O325 C331 1.248 . S
O326 Mg323 1.990 . S
O326 C332 1.253 . S
O327 Mg323 2.117 . S
O327 C333 1.250 . S
C328 O334 1.248 . S
C328 O335 1.264 . S
C329 O315 1.253 . S
C329 O317 1.260 . S
C330 O319 1.279 . S
C330 O320 1.250 . S
C331 O321 1.264 . S
C331 O325 1.248 . S
C332 O322 1.260 . S
C332 O326 1.253 . S
C333 O324 1.279 . S
C333 O327 1.250 . S
O334 Mg316 2.030 . S
O334 C328 1.248 . S
O335 Mg318 2.079 . S
O335 C328 1.264 . S
C336 C337 1.387 . S
C336 H340 0.950 . S
C336 C345 1.390 . S
C337 C336 1.387 . S
C337 C339 1.387 . S
H338 C345 0.950 . S
C339 C337 1.387 . S
C339 C341 1.390 . S
C339 H343 0.950 . S
H340 C336 0.950 . S
C341 C339 1.390 . S
C341 C342 1.387 . S
C341 H344 0.950 . S
C342 C341 1.387 . S
C342 C345 1.387 . S
H343 C339 0.950 . S
H344 C341 0.950 . S
C345 C336 1.390 . S
C345 H338 0.950 . S
C345 C342 1.387 . S
C346 C347 1.387 . S
C346 H350 0.950 . S
C346 C355 1.390 . S
C347 C346 1.387 . S
C347 C349 1.387 . S
H348 C355 0.950 . S
C349 C347 1.387 . S
C349 C351 1.390 . S
C349 H353 0.950 . S
H350 C346 0.950 . S
C351 C349 1.390 . S
C351 C352 1.387 . S
C351 H354 0.950 . S
C352 C351 1.387 . S
C352 C355 1.387 . S
H353 C349 0.950 . S
H354 C351 0.950 . S
C355 C346 1.390 . S
C355 H348 0.950 . S
C355 C352 1.387 . S
C356 C357 1.387 . S
C356 H360 0.950 . S
C356 C365 1.390 1_455 S
C357 C356 1.387 . S
C357 C359 1.387 . S
H358 C365 0.950 . S
C359 C357 1.387 . S
C359 C361 1.390 1_455 S
C359 H363 0.950 . S
H360 C356 0.950 . S
C361 C359 1.390 1_655 S
C361 C362 1.387 . S
C361 H364 0.950 . S
C362 C361 1.387 . S
C362 C365 1.387 . S
H363 C359 0.950 . S
H364 C361 0.950 . S
C365 C356 1.390 1_655 S
C365 H358 0.950 . S
C365 C362 1.387 . S
C366 C367 1.387 . S
C366 H370 0.950 . S
C366 C375 1.390 1_655 S
C367 C366 1.387 . S
C367 C369 1.387 . S
H368 C375 0.950 . S
C369 C367 1.387 . S
C369 C371 1.390 1_655 S
C369 H373 0.950 . S
H370 C366 0.950 . S
C371 C369 1.390 1_455 S
C371 C372 1.387 . S
C371 H374 0.950 . S
C372 C371 1.387 . S
C372 C375 1.387 . S
H373 C369 0.950 . S
H374 C371 0.950 . S
C375 C366 1.390 1_455 S
C375 H368 0.950 . S
C375 C372 1.387 . S
C376 C377 1.387 . S
C376 H380 0.950 . S
C376 C385 1.390 . S
C377 C376 1.387 . S
C377 C379 1.387 . S
H378 C385 0.950 . S
C379 C377 1.387 . S
C379 C381 1.390 . S
C379 H383 0.950 . S
H380 C376 0.950 . S
C381 C379 1.390 . S
C381 C382 1.387 . S
C381 H384 0.950 . S
C382 C381 1.387 . S
C382 C385 1.387 . S
H383 C379 0.950 . S
H384 C381 0.950 . S
C385 C376 1.390 . S
C385 H378 0.950 . S
C385 C382 1.387 . S
C386 C387 1.387 . S
C386 H390 0.950 . S
C386 C395 1.390 . S
C387 C386 1.387 . S
C387 C389 1.387 . S
H388 C395 0.950 . S
C389 C387 1.387 . S
C389 C391 1.390 . S
C389 H393 0.950 . S
H390 C386 0.950 . S
C391 C389 1.390 . S
C391 C392 1.387 . S
C391 H394 0.950 . S
C392 C391 1.387 . S
C392 C395 1.387 . S
H393 C389 0.950 . S
H394 C391 0.950 . S
C395 C386 1.390 . S
C395 H388 0.950 . S
C395 C392 1.387 . S
C396 C397 1.387 . S
C396 H400 0.950 . S
C396 C405 1.390 1_655 S
C397 C396 1.387 . S
C397 C399 1.387 . S
H398 C405 0.950 . S
C399 C397 1.387 . S
C399 C401 1.390 1_655 S
C399 H403 0.950 . S
H400 C396 0.950 . S
C401 C399 1.390 1_455 S
C401 C402 1.387 . S
C401 H404 0.950 . S
C402 C401 1.387 . S
C402 C405 1.387 . S
H403 C399 0.950 . S
H404 C401 0.950 . S
C405 C396 1.390 1_455 S
C405 H398 0.950 . S
C405 C402 1.387 . S
C406 C407 1.387 . S
C406 H410 0.950 . S
C406 C415 1.390 1_455 S
C407 C406 1.387 . S
C407 C409 1.387 . S
H408 C415 0.950 . S
C409 C407 1.387 . S
C409 C411 1.390 1_455 S
C409 H413 0.950 . S
H410 C406 0.950 . S
C411 C409 1.390 1_655 S
C411 C412 1.387 . S
C411 H414 0.950 . S
C412 C411 1.387 . S
C412 C415 1.387 . S
H413 C409 0.950 . S
H414 C411 0.950 . S
C415 C406 1.390 1_655 S
C415 H408 0.950 . S
C415 C412 1.387 . S
C416 C417 1.387 . S
C416 H420 0.950 . S
C416 C425 1.390 1_556 S
C417 C416 1.387 . S
C417 C419 1.387 . S
H418 C425 0.950 . S
C419 C417 1.387 . S
C419 C421 1.390 . S
C419 H423 0.950 . S
H420 C416 0.950 . S
C421 C419 1.390 . S
C421 C422 1.380 1_556 S
C421 H424 0.950 . S
C422 C421 1.380 1_554 S
C422 C425 1.389 . S
H423 C419 0.950 . S
H424 C421 0.950 . S
C425 C416 1.390 1_554 S
C425 H418 0.950 . S
C425 C422 1.389 . S
C426 C427 1.387 . S
C426 H430 0.950 . S
C426 C435 1.390 . S
C427 C426 1.387 . S
C427 C429 1.387 . S
H428 C435 0.950 . S
C429 C427 1.387 . S
C429 C431 1.390 . S
C429 H433 0.950 . S
H430 C426 0.950 . S
C431 C429 1.390 . S
C431 C432 1.387 . S
C431 H434 0.950 . S
C432 C431 1.387 . S
C432 C435 1.387 . S
H433 C429 0.950 . S
H434 C431 0.950 . S
C435 C426 1.390 . S
C435 H428 0.950 . S
C435 C432 1.387 . S
C436 C437 1.387 . S
C436 H440 0.950 . S
C436 C445 1.390 . S
C437 C436 1.387 . S
C437 C439 1.387 . S
H438 C445 0.950 . S
C439 C437 1.387 . S
C439 C441 1.390 . S
C439 H443 0.950 . S
H440 C436 0.950 . S
C441 C439 1.390 . S
C441 C442 1.387 . S
C441 H444 0.950 . S
C442 C441 1.387 . S
C442 C445 1.387 . S
H443 C439 0.950 . S
H444 C441 0.950 . S
C445 C436 1.390 . S
C445 H438 0.950 . S
C445 C442 1.387 . S
C446 C447 1.387 . S
C446 H450 0.950 . S
C446 C455 1.390 . S
C447 C446 1.387 . S
C447 C449 1.387 . S
H448 C455 0.950 . S
C449 C447 1.387 . S
C449 C451 1.390 . S
C449 H453 0.950 . S
H450 C446 0.950 . S
C451 C449 1.390 . S
C451 C452 1.387 . S
C451 H454 0.950 . S
C452 C451 1.387 . S
C452 C455 1.387 . S
H453 C449 0.950 . S
H454 C451 0.950 . S
C455 C446 1.390 . S
C455 H448 0.950 . S
C455 C452 1.387 . S
C456 C457 1.380 1_554 S
C456 H460 0.950 . S
C456 C465 1.390 . S
C457 C456 1.380 1_556 S
C457 C459 1.389 . S
H458 C465 0.950 . S
C459 C457 1.389 . S
C459 C461 1.390 1_556 S
C459 H463 0.950 . S
H460 C456 0.950 . S
C461 C459 1.390 1_554 S
C461 C462 1.387 . S
C461 H464 0.950 . S
C462 C461 1.387 . S
C462 C465 1.387 . S
H463 C459 0.950 . S
H464 C461 0.950 . S
C465 C456 1.390 . S
C465 H458 0.950 . S
C465 C462 1.387 . S
C466 C467 1.387 . S
C466 H470 0.950 . S
C466 C475 1.390 . S
C467 C466 1.387 . S
C467 C469 1.387 . S
H468 C475 0.950 . S
C469 C467 1.387 . S
C469 C471 1.390 . S
C469 H473 0.950 . S
H470 C466 0.950 . S
C471 C469 1.390 . S
C471 C472 1.387 . S
C471 H474 0.950 . S
C472 C471 1.387 . S
C472 C475 1.387 . S
H473 C469 0.950 . S
H474 C471 0.950 . S
C475 C466 1.390 . S
C475 H468 0.950 . S
C475 C472 1.387 . S
C476 C477 1.387 . S
C476 H480 0.950 . S
C476 C485 1.390 . S
C477 C476 1.387 . S
C477 C479 1.387 . S
H478 C485 0.950 . S
C479 C477 1.387 . S
C479 C481 1.390 . S
C479 H483 0.950 . S
H480 C476 0.950 . S
C481 C479 1.390 . S
C481 C482 1.387 . S
C481 H484 0.950 . S
C482 C481 1.387 . S
C482 C485 1.387 . S
H483 C479 0.950 . S
H484 C481 0.950 . S
C485 C476 1.390 . S
C485 H478 0.950 . S
C485 C482 1.387 . S
C486 C487 1.387 . S
C486 H490 0.950 . S
C486 C495 1.390 . S
C487 C486 1.387 . S
C487 C489 1.387 . S
H488 C495 0.950 . S
C489 C487 1.387 . S
C489 C491 1.390 . S
C489 H493 0.950 . S
H490 C486 0.950 . S
C491 C489 1.390 . S
C491 C492 1.387 . S
C491 H494 0.950 . S
C492 C491 1.387 . S
C492 C495 1.387 . S
H493 C489 0.950 . S
H494 C491 0.950 . S
C495 C486 1.390 . S
C495 H488 0.950 . S
C495 C492 1.387 . S
C496 C497 1.387 . S
C496 H500 0.950 . S
C496 C505 1.390 . S
C497 C496 1.387 . S
C497 C499 1.387 . S
H498 C505 0.950 . S
C499 C497 1.387 . S
C499 C501 1.390 . S
C499 H503 0.950 . S
H500 C496 0.950 . S
C501 C499 1.390 . S
C501 C502 1.387 . S
C501 H504 0.950 . S
C502 C501 1.387 . S
C502 C505 1.387 . S
H503 C499 0.950 . S
H504 C501 0.950 . S
C505 C496 1.390 . S
C505 H498 0.950 . S
C505 C502 1.387 . S
C506 C507 1.387 . S
C506 H510 0.950 . S
C506 C515 1.390 . S
C507 C506 1.387 . S
C507 C509 1.389 . S
H508 C515 0.950 . S
C509 C507 1.389 . S
C509 C511 1.405 . S
C509 H513 0.934 1_565 S
H510 C506 0.950 . S
C511 C509 1.405 . S
C511 C512 1.387 . S
C511 H514 0.950 . S
C512 C511 1.387 . S
C512 C515 1.387 . S
H513 C509 0.934 1_545 S
H514 C511 0.950 . S
C515 C506 1.390 . S
C515 H508 0.950 . S
C515 C512 1.387 . S
C516 C517 1.391 . S
C516 H520 0.950 . S
C516 C525 1.390 1_554 S
C517 C516 1.391 . S
C517 C519 1.378 1_554 S
H518 C525 0.950 . S
C519 C517 1.378 1_556 S
C519 C521 1.390 . S
C519 H523 0.950 . S
H520 C516 0.950 . S
C521 C519 1.390 . S
C521 C522 1.387 . S
C521 H524 0.950 . S
C522 C521 1.387 . S
C522 C525 1.387 . S
H523 C519 0.950 . S
H524 C521 0.950 . S
C525 C516 1.390 1_556 S
C525 H518 0.950 . S
C525 C522 1.387 . S
C526 C527 1.387 . S
C526 H530 0.950 . S
C526 C535 1.390 . S
C527 C526 1.387 . S
C527 C529 1.389 . S
H528 C535 0.950 . S
C529 C527 1.389 . S
C529 C531 1.414 . S
C529 H533 0.924 1_545 S
H530 C526 0.950 . S
C531 C529 1.414 . S
C531 C532 1.387 . S
C531 H534 0.950 . S
C532 C531 1.387 . S
C532 C535 1.387 . S
H533 C529 0.924 1_565 S
H534 C531 0.950 . S
C535 C526 1.390 . S
C535 H528 0.950 . S
C535 C532 1.387 . S
C536 C537 1.387 . S
C536 H540 0.950 . S
C536 C545 1.390 . S
C537 C536 1.387 . S
C537 C539 1.387 . S
H538 C545 0.950 . S
C539 C537 1.387 . S
C539 C541 1.390 . S
C539 H543 0.950 . S
H540 C536 0.950 . S
C541 C539 1.390 . S
C541 C542 1.387 . S
C541 H544 0.950 . S
C542 C541 1.387 . S
C542 C545 1.387 . S
H543 C539 0.950 . S
H544 C541 0.950 . S
C545 C536 1.390 . S
C545 H538 0.950 . S
C545 C542 1.387 . S
C546 C547 1.387 . S
C546 H550 0.950 . S
C546 C555 1.390 . S
C547 C546 1.387 . S
C547 C549 1.387 . S
H548 C555 0.950 . S
C549 C547 1.387 . S
C549 C551 1.390 . S
C549 H553 0.950 . S
H550 C546 0.950 . S
C551 C549 1.390 . S
C551 C552 1.387 . S
C551 H554 0.950 1_545 S
C552 C551 1.387 . S
C552 C555 1.387 . S
H553 C549 0.950 . S
H554 C551 0.950 1_565 S
C555 C546 1.390 . S
C555 H548 0.950 . S
C555 C552 1.387 . S
C556 C557 1.387 1_556 S
C556 H560 0.950 . S
C556 C565 1.390 . S
C557 C556 1.387 1_554 S
C557 C559 1.387 . S
H558 C565 0.950 . S
C559 C557 1.387 . S
C559 C561 1.390 . S
C559 H563 0.950 . S
H560 C556 0.950 . S
C561 C559 1.390 . S
C561 C562 1.387 1_554 S
C561 H564 0.950 . S
C562 C561 1.387 1_556 S
C562 C565 1.387 . S
H563 C559 0.950 . S
H564 C561 0.950 . S
C565 C556 1.390 . S
C565 H558 0.950 . S
C565 C562 1.387 . S
C566 C567 1.387 . S
C566 H570 0.950 . S
C566 C575 1.390 . S
C567 C566 1.387 . S
C567 C569 1.387 . S
H568 C575 0.950 . S
C569 C567 1.387 . S
C569 C571 1.390 . S
C569 H573 0.950 1_565 S
H570 C566 0.950 . S
C571 C569 1.390 . S
C571 C572 1.387 . S
C571 H574 0.950 . S
C572 C571 1.387 . S
C572 C575 1.387 . S
H573 C569 0.950 1_545 S
H574 C571 0.950 . S
C575 C566 1.390 . S
C575 H568 0.950 . S
C575 C572 1.387 . S
C576 C577 1.387 . S
C576 H580 0.950 . S
C576 C585 1.390 . S
C577 C576 1.387 . S
C577 C579 1.387 . S
H578 C585 0.950 . S
C579 C577 1.387 . S
C579 C581 1.390 . S
C579 H583 0.950 . S
H580 C576 0.950 . S
C581 C579 1.390 . S
C581 C582 1.387 . S
C581 H584 0.950 . S
C582 C581 1.387 . S
C582 C585 1.387 . S
H583 C579 0.950 . S
H584 C581 0.950 . S
C585 C576 1.390 . S
C585 H578 0.950 . S
C585 C582 1.387 . S
C586 C587 1.387 . S
C586 H590 0.950 . S
C586 C595 1.390 . S
C587 C586 1.387 . S
C587 C589 1.387 . S
H588 C595 0.950 . S
C589 C587 1.387 . S
C589 C591 1.390 . S
C589 H593 0.950 . S
H590 C586 0.950 . S
C591 C589 1.390 . S
C591 C592 1.387 . S
C591 H594 0.950 . S
C592 C591 1.387 . S
C592 C595 1.387 . S
H593 C589 0.950 . S
H594 C591 0.950 . S
C595 C586 1.390 . S
C595 H588 0.950 . S
C595 C592 1.387 . S
C596 C597 1.387 . S
C596 H600 0.950 . S
C596 C605 1.390 . S
C597 C596 1.387 . S
C597 C599 1.387 . S
H598 C605 0.950 . S
C599 C597 1.387 . S
C599 C601 1.390 . S
C599 H603 0.950 . S
H600 C596 0.950 . S
C601 C599 1.390 . S
C601 C602 1.387 . S
C601 H604 0.950 . S
C602 C601 1.387 . S
C602 C605 1.387 . S
H603 C599 0.950 . S
H604 C601 0.950 . S
C605 C596 1.390 . S
C605 H598 0.950 . S
C605 C602 1.387 . S
C606 C607 1.387 . S
C606 H610 0.950 . S
C606 C615 1.390 . S
C607 C606 1.387 . S
C607 C609 1.387 . S
H608 C615 0.950 . S
C609 C607 1.387 . S
C609 C611 1.390 . S
C609 H613 0.950 . S
H610 C606 0.950 . S
C611 C609 1.390 . S
C611 C612 1.387 . S
C611 H614 0.950 . S
C612 C611 1.387 . S
C612 C615 1.387 . S
H613 C609 0.950 . S
H614 C611 0.950 . S
C615 C606 1.390 . S
C615 H608 0.950 . S
C615 C612 1.387 . S
C616 C617 1.387 . S
C616 H620 0.950 . S
C616 C625 1.390 . S
C617 C616 1.387 . S
C617 C619 1.387 . S
H618 C625 0.950 . S
C619 C617 1.387 . S
C619 C621 1.390 . S
C619 H623 0.950 . S
H620 C616 0.950 . S
C621 C619 1.390 . S
C621 C622 1.387 . S
C621 H624 0.950 . S
C622 C621 1.387 . S
C622 C625 1.387 . S
H623 C619 0.950 . S
H624 C621 0.950 . S
C625 C616 1.390 . S
C625 H618 0.950 . S
C625 C622 1.387 . S
C626 C627 1.387 . S
C626 H630 0.950 . S
C626 C635 1.390 . S
C627 C626 1.387 . S
C627 C629 1.387 . S
H628 C635 0.950 . S
C629 C627 1.387 . S
C629 C631 1.390 . S
C629 H633 0.950 . S
H630 C626 0.950 . S
C631 C629 1.390 . S
C631 C632 1.387 . S
C631 H634 0.950 . S
C632 C631 1.387 . S
C632 C635 1.387 . S
H633 C629 0.950 . S
H634 C631 0.950 . S
C635 C626 1.390 . S
C635 H628 0.950 . S
C635 C632 1.387 . S
C636 C637 1.387 . S
C636 H640 0.950 . S
C636 C645 1.390 . S
C637 C636 1.387 . S
C637 C639 1.387 . S
H638 C645 0.950 . S
C639 C637 1.387 . S
C639 C641 1.390 . S
C639 H643 0.950 1_655 S
H640 C636 0.950 . S
C641 C639 1.390 . S
C641 C642 1.387 . S
C641 H644 0.950 . S
C642 C641 1.387 . S
C642 C645 1.387 . S
H643 C639 0.950 1_455 S
H644 C641 0.950 . S
C645 C636 1.390 . S
C645 H638 0.950 . S
C645 C642 1.387 . S
C646 C647 1.387 . S
C646 H650 0.950 . S
C646 C655 1.390 . S
C647 C646 1.387 . S
C647 C649 1.387 . S
H648 C655 0.950 . S
C649 C647 1.387 . S
C649 C651 1.390 . S
C649 H653 0.950 . S
H650 C646 0.950 . S
C651 C649 1.390 . S
C651 C652 1.387 . S
C651 H654 0.950 . S
C652 C651 1.387 . S
C652 C655 1.387 . S
H653 C649 0.950 . S
H654 C651 0.950 . S
C655 C646 1.390 . S
C655 H648 0.950 . S
C655 C652 1.387 . S
C656 C657 1.387 . S
C656 H660 0.950 . S
C656 C665 1.390 . S
C657 C656 1.387 . S
C657 C659 1.387 . S
H658 C665 0.950 . S
C659 C657 1.387 . S
C659 C661 1.390 . S
C659 H663 0.950 . S
H660 C656 0.950 . S
C661 C659 1.390 . S
C661 C662 1.387 . S
C661 H664 0.950 . S
C662 C661 1.387 . S
C662 C665 1.387 . S
H663 C659 0.950 . S
H664 C661 0.950 . S
C665 C656 1.390 . S
C665 H658 0.950 . S
C665 C662 1.387 . S
C666 C667 1.387 . S
C666 H670 0.950 . S
C666 C675 1.390 . S
C667 C666 1.387 . S
C667 C669 1.387 . S
H668 C675 0.950 . S
C669 C667 1.387 . S
C669 C671 1.390 . S
C669 H673 0.950 . S
H670 C666 0.950 . S
C671 C669 1.390 . S
C671 C672 1.387 . S
C671 H674 0.950 . S
C672 C671 1.387 . S
C672 C675 1.387 . S
H673 C669 0.950 . S
H674 C671 0.950 . S
C675 C666 1.390 . S
C675 H668 0.950 . S
C675 C672 1.387 . S
C676 C677 1.387 . S
C676 H680 0.950 . S
C676 C685 1.390 . S
C677 C676 1.387 . S
C677 C679 1.387 . S
H678 C685 0.950 . S
C679 C677 1.387 . S
C679 C681 1.390 . S
C679 H683 0.950 . S
H680 C676 0.950 . S
C681 C679 1.390 . S
C681 C682 1.387 . S
C681 H684 0.950 . S
C682 C681 1.387 . S
C682 C685 1.387 . S
H683 C679 0.950 . S
H684 C681 0.950 . S
C685 C676 1.390 . S
C685 H678 0.950 . S
C685 C682 1.387 . S
C686 C687 1.387 . S
C686 H690 0.950 . S
C686 C695 1.390 . S
C687 C686 1.387 . S
C687 C689 1.387 . S
H688 C695 0.950 . S
C689 C687 1.387 . S
C689 C691 1.390 . S
C689 H693 0.950 . S
H690 C686 0.950 . S
C691 C689 1.390 . S
C691 C692 1.387 . S
C691 H694 0.950 . S
C692 C691 1.387 . S
C692 C695 1.387 . S
H693 C689 0.950 . S
H694 C691 0.950 . S
C695 C686 1.390 . S
C695 H688 0.950 . S
C695 C692 1.387 . S
C696 C697 1.387 . S
C696 H700 0.950 . S
C696 C705 1.390 . S
C697 C696 1.387 . S
C697 C699 1.387 . S
H698 C705 0.950 . S
C699 C697 1.387 . S
C699 C701 1.390 . S
C699 H703 0.950 . S
H700 C696 0.950 . S
C701 C699 1.390 . S
C701 C702 1.387 . S
C701 H704 0.950 . S
C702 C701 1.387 . S
C702 C705 1.387 . S
H703 C699 0.950 . S
H704 C701 0.950 . S
C705 C696 1.390 . S
C705 H698 0.950 . S
C705 C702 1.387 . S
C706 C707 1.387 . S
C706 H710 0.950 . S
C706 C715 1.390 . S
C707 C706 1.387 . S
C707 C709 1.387 . S
H708 C715 0.950 . S
C709 C707 1.387 . S
C709 C711 1.390 . S
C709 H713 0.950 . S
H710 C706 0.950 . S
C711 C709 1.390 . S
C711 C712 1.387 . S
C711 H714 0.950 . S
C712 C711 1.387 . S
C712 C715 1.387 . S
H713 C709 0.950 . S
H714 C711 0.950 . S
C715 C706 1.390 . S
C715 H708 0.950 . S
C715 C712 1.387 . S
C716 C717 1.387 . S
C716 H720 0.950 . S
C716 C725 1.390 . S
C717 C716 1.387 . S
C717 C719 1.387 . S
H718 C725 0.950 . S
C719 C717 1.387 . S
C719 C721 1.390 . S
C719 H723 0.950 . S
H720 C716 0.950 . S
C721 C719 1.390 . S
C721 C722 1.387 . S
C721 H724 0.950 . S
C722 C721 1.387 . S
C722 C725 1.387 . S
H723 C719 0.950 . S
H724 C721 0.950 . S
C725 C716 1.390 . S
C725 H718 0.950 . S
C725 C722 1.387 . S
C726 C727 1.387 . S
C726 H730 0.950 . S
C726 C735 1.390 . S
C727 C726 1.387 . S
C727 C729 1.387 . S
H728 C735 0.950 . S
C729 C727 1.387 . S
C729 C731 1.390 . S
C729 H733 0.950 . S
H730 C726 0.950 . S
C731 C729 1.390 . S
C731 C732 1.387 . S
C731 H734 0.950 . S
C732 C731 1.387 . S
C732 C735 1.387 . S
H733 C729 0.950 . S
H734 C731 0.950 . S
C735 C726 1.390 . S
C735 H728 0.950 . S
C735 C732 1.387 . S
C736 C737 1.387 . S
C736 H740 0.950 . S
C736 C745 1.390 . S
C737 C736 1.387 . S
C737 C739 1.387 . S
H738 C745 0.950 . S
C739 C737 1.387 . S
C739 C741 1.390 . S
C739 H743 0.950 . S
H740 C736 0.950 . S
C741 C739 1.390 . S
C741 C742 1.387 . S
C741 H744 0.950 . S
C742 C741 1.387 . S
C742 C745 1.387 . S
H743 C739 0.950 . S
H744 C741 0.950 . S
C745 C736 1.390 . S
C745 H738 0.950 . S
C745 C742 1.387 . S
C746 C747 1.387 . S
C746 H750 0.950 . S
C746 C755 1.390 . S
C747 C746 1.387 . S
C747 C749 1.387 . S
H748 C755 0.950 . S
C749 C747 1.387 . S
C749 C751 1.390 . S
C749 H753 0.950 . S
H750 C746 0.950 . S
C751 C749 1.390 . S
C751 C752 1.387 . S
C751 H754 0.950 . S
C752 C751 1.387 . S
C752 C755 1.387 . S
H753 C749 0.950 . S
H754 C751 0.950 . S
C755 C746 1.390 . S
C755 H748 0.950 . S
C755 C752 1.387 . S
C756 C757 1.387 . S
C756 H760 0.950 . S
C756 C765 1.390 . S
C757 C756 1.387 . S
C757 C759 1.387 . S
H758 C765 0.950 . S
C759 C757 1.387 . S
C759 C761 1.390 . S
C759 H763 0.950 . S
H760 C756 0.950 . S
C761 C759 1.390 . S
C761 C762 1.387 . S
C761 H764 0.950 . S
C762 C761 1.387 . S
C762 C765 1.387 . S
H763 C759 0.950 . S
H764 C761 0.950 . S
C765 C756 1.390 . S
C765 H758 0.950 . S
C765 C762 1.387 . S
C766 C767 1.387 1_556 S
C766 H770 0.950 . S
C766 C775 1.390 1_455 S
C767 C766 1.387 1_554 S
C767 C769 1.387 . S
H768 C775 0.950 . S
C769 C767 1.387 . S
C769 C771 1.390 1_455 S
C769 H773 0.950 . S
H770 C766 0.950 . S
C771 C769 1.390 1_655 S
C771 C772 1.387 1_554 S
C771 H774 0.950 . S
C772 C771 1.387 1_556 S
C772 C775 1.387 . S
H773 C769 0.950 . S
H774 C771 0.950 . S
C775 C766 1.390 1_655 S
C775 H768 0.950 . S
C775 C772 1.387 . S
C776 C777 1.387 . S
C776 H780 0.950 . S
C776 C785 1.390 . S
C777 C776 1.387 . S
C777 C779 1.387 . S
H778 C785 0.950 . S
C779 C777 1.387 . S
C779 C781 1.390 . S
C779 H783 0.950 . S
H780 C776 0.950 . S
C781 C779 1.390 . S
C781 C782 1.387 . S
C781 H784 0.950 . S
C782 C781 1.387 . S
C782 C785 1.387 . S
H783 C779 0.950 . S
H784 C781 0.950 . S
C785 C776 1.390 . S
C785 H778 0.950 . S
C785 C782 1.387 . S
C786 C787 1.387 . S
C786 H790 0.950 . S
C786 C795 1.390 . S
C787 C786 1.387 . S
C787 C789 1.387 . S
H788 C795 0.950 . S
C789 C787 1.387 . S
C789 C791 1.390 . S
C789 H793 0.950 . S
H790 C786 0.950 . S
C791 C789 1.390 . S
C791 C792 1.387 . S
C791 H794 0.950 . S
C792 C791 1.387 . S
C792 C795 1.387 . S
H793 C789 0.950 . S
H794 C791 0.950 . S
C795 C786 1.390 . S
C795 H788 0.950 . S
C795 C792 1.387 . S
C796 C797 1.403 1_565 S
C796 H800 0.951 . S
C796 C805 1.375 1_455 S
C797 C796 1.403 1_545 S
C797 C799 1.387 1_556 S
H798 C805 0.950 . S
C799 C797 1.387 1_554 S
C799 C801 1.375 1_455 S
C799 H803 0.950 . S
H800 C796 0.951 . S
C801 C799 1.375 1_655 S
C801 C802 1.403 1_545 S
C801 H804 0.951 . S
C802 C801 1.403 1_565 S
C802 C805 1.387 1_554 S
H803 C799 0.950 . S
H804 C801 0.951 . S
C805 C796 1.375 1_655 S
C805 H798 0.950 . S
C805 C802 1.387 1_556 S
C806 C807 1.387 1_565 S
C806 H810 0.950 . S
C806 C815 1.390 . S
C807 C806 1.387 1_545 S
C807 C809 1.387 . S
H808 C815 0.950 . S
C809 C807 1.387 . S
C809 C811 1.390 . S
C809 H813 0.950 . S
H810 C806 0.950 . S
C811 C809 1.390 . S
C811 C812 1.387 1_545 S
C811 H814 0.950 . S
C812 C811 1.387 1_565 S
C812 C815 1.387 . S
H813 C809 0.950 . S
H814 C811 0.950 . S
C815 C806 1.390 . S
C815 H808 0.950 . S
C815 C812 1.387 . S
C337 C18 1.301 . S
C342 C228 1.301 . S
C347 C39 1.301 . S
C352 C246 1.301 . S
C357 C60 1.301 . S
C362 C186 1.301 . S
C367 C78 1.301 . S
C372 C207 1.301 . S
C377 C102 1.301 . S
C382 C312 1.301 . S
C387 C123 1.301 . S
C392 C333 1.301 . S
C397 C144 1.301 . S
C402 C270 1.301 . S
C407 C165 1.301 . S
C412 C291 1.301 . S
C417 C205 1.462 . S
C422 C15 1.254 1_554 S
C427 C226 1.464 . S
C432 C36 1.256 . S
C437 C244 1.465 . S
C442 C57 1.260 . S
C447 C184 1.461 . S
C452 C81 1.259 . S
C457 C99 1.254 1_556 S
C462 C289 1.462 . S
C467 C310 1.461 . S
C472 C120 1.258 . S
C477 C331 1.461 . S
C482 C141 1.257 . S
C487 C268 1.465 . S
C492 C162 1.258 . S
C497 C37 1.461 . S
C502 C183 1.258 . S
C507 C204 1.261 1_565 S
C512 C58 1.462 . S
C517 C225 1.255 1_554 S
C522 C76 1.461 . S
C527 C249 1.261 1_545 S
C532 C16 1.462 . S
C537 C267 1.261 . S
C542 C121 1.464 . S
C547 C142 1.463 . S
C552 C288 1.255 1_545 S
C557 C163 1.465 . S
C562 C309 1.259 1_556 S
C567 C330 1.255 1_565 S
C572 C100 1.463 . S
C577 C13 1.197 . S
C582 C329 1.182 . S
C587 C34 1.200 . S
C592 C98 1.185 . S
C597 C287 1.182 1_455 S
C602 C55 1.197 . S
C607 C140 1.183 . S
C612 C79 1.198 . S
C617 C97 1.200 . S
C622 C248 1.186 . S
C627 C118 1.196 . S
C632 C14 1.181 . S
C637 C203 1.181 1_655 S
C642 C139 1.196 . S
C647 C56 1.186 . S
C652 C160 1.200 . S
C657 C181 1.200 . S
C662 C161 1.186 1_655 S
C667 C202 1.197 . S
C672 C266 1.182 . S
C677 C119 1.186 . S
C682 C223 1.200 . S
C687 C308 1.182 . S
C692 C247 1.197 . S
C697 C265 1.197 . S
C702 C80 1.182 1_455 S
C707 C286 1.197 . S
C712 C182 1.183 . S
C717 C307 1.196 . S
C722 C35 1.182 . S
C727 C224 1.186 . S
C732 C328 1.200 . S
C737 C17 1.753 . S
C742 C269 1.753 . S
C747 C38 1.755 . S
C752 C122 1.755 . S
C757 C59 1.755 . S
C762 C311 1.755 . S
C767 C164 1.753 . S
C772 C77 1.753 . S
C777 C101 1.753 . S
C782 C185 1.753 . S
C787 C227 1.755 . S
C792 C143 1.755 . S
C797 C206 1.753 . S
C802 C290 1.753 . S
C807 C332 1.755 . S
C812 C245 1.755 . S
