# Generated by pormake.
# Topology sqp, (5)-cn, num edge types: 1
# Building blocks:
#     Node 0, Type 0, BuildingBlock: XOMCOT_clean_sbu_1, # of connection points: 5
#     Node 1, Type 0, BuildingBlock: XOMCOT_clean_sbu_1, # of connection points: 5
#     Node 2, Type 0, BuildingBlock: XOMCOT_clean_sbu_1, # of connection points: 5
#     Node 3, Type 0, BuildingBlock: XOMCOT_clean_sbu_1, # of connection points: 5
#     Edge 4, Type (0, 0), BuildingBlock: TEMPAE_clean_linker_10, # of connection points: 2
#     Edge 5, Type (0, 0), BuildingBlock: TEMPAE_clean_linker_10, # of connection points: 2
#     Edge 6, Type (0, 0), BuildingBlock: TEMPAE_clean_linker_10, # of connection points: 2
#     Edge 7, Type (0, 0), BuildingBlock: TEMPAE_clean_linker_10, # of connection points: 2
#     Edge 8, Type (0, 0), BuildingBlock: TEMPAE_clean_linker_10, # of connection points: 2
#     Edge 9, Type (0, 0), BuildingBlock: TEMPAE_clean_linker_10, # of connection points: 2
#     Edge 10, Type (0, 0), BuildingBlock: TEMPAE_clean_linker_10, # of connection points: 2
#     Edge 11, Type (0, 0), BuildingBlock: TEMPAE_clean_linker_10, # of connection points: 2
#     Edge 12, Type (0, 0), BuildingBlock: TEMPAE_clean_linker_10, # of connection points: 2
#     Edge 13, Type (0, 0), BuildingBlock: TEMPAE_clean_linker_10, # of connection points: 2
# Relax obj value: 0.083
# Max RMSD: 0.168
# Mean RMSD: 0.168
data_MOF--net-sqp--node1-XOMCOT_clean_sbu_1--edge1-TEMPAE_clean_linker_10
_symmetry_space_group_name_H-M    P1
_symmetry_Int_Tables_number       1
_symmetry_cell_setting            triclinic
loop_
_symmetry_equiv_pos_as_xyz
'x, y, z'
_cell_length_a     23.92141
_cell_length_b     19.635333
_cell_length_c     48.022234
_cell_angle_alpha  89.566398
_cell_angle_beta   95.560028
_cell_angle_gamma 89.926361
loop_
_atom_site_label
_atom_site_type_symbol
_atom_site_fract_x
_atom_site_fract_y
_atom_site_fract_z
_atom_type_partial_charge
C0 C 0.02961 0.1517 0.32019 0.0
C1 C 0.99101 0.20429 0.31754 0.0
N2 N 0.95115 0.18905 0.29672 0.0
N3 N 1.0141 0.10356 0.30114 0.0
C4 C 0.96647 0.12799 0.28709 0.0
H5 H 0.06674 0.14884 0.33493 0.0
Co6 Co 0.05154 1.02266 0.29406 0.0
C7 C 0.9589 0.92416 0.28637 0.0
O8 O 0.98794 0.88389 0.30438 0.0
N9 N 0.08959 0.94063 0.28516 0.0
C10 C 0.11071 0.85541 0.25749 0.0
C11 C 0.07217 0.90452 0.26204 0.0
C12 C 0.14082 0.91315 0.2936 0.0
N13 N 0.15425 0.861 0.27719 0.0
O14 O 0.06553 0.0582 0.25827 0.0
H15 H 0.03523 0.91576 0.24797 0.0
H16 H 0.17025 0.93399 0.30973 0.0
O17 O 0.97922 0.9817 0.27972 0.0
C18 C 0.11474 0.08245 0.26411 0.0
O19 O 0.13788 0.07741 0.29002 0.0
N20 N 0.04414 0.99396 0.33098 0.0
C21 C 0.04769 0.98264 0.38919 0.0
C22 C 0.99604 0.98764 0.37265 0.0
C23 C 0.9952 0.99435 0.34355 0.0
C24 C 0.09431 0.99067 0.34692 0.0
C25 C 0.0971 0.98249 0.37577 0.0
H26 H 0.95556 1.00422 0.3314 0.0
H27 H 0.13264 1.00039 0.33764 0.0
H28 H 0.94423 0.10232 0.2695 0.0
H29 H 0.99213 0.24995 0.33006 0.0
H30 H 0.10794 0.82016 0.24019 0.0
H31 H 0.95688 0.99066 0.38215 0.0
H32 H 0.138 0.97972 0.38755 0.0
C33 C 0.03007 0.20758 0.68375 0.0
C34 C 0.06951 0.25808 0.68904 0.0
N35 N 0.11778 0.22893 0.69996 0.0
N36 N 0.053 0.14684 0.69165 0.0
C37 C 0.10676 0.16151 0.70124 0.0
H38 H 0.98722 0.21486 0.67483 0.0
Co39 Co 1.01445 0.06362 0.68979 0.0
C40 C 0.08468 0.97784 0.72907 0.0
O41 O 0.04057 0.96763 0.74287 0.0
N42 N 0.97608 0.97918 0.68756 0.0
C43 C 0.95985 0.86942 0.67882 0.0
C44 C 0.9982 0.92113 0.67835 0.0
C45 C 0.92385 0.96107 0.6935 0.0
N46 N 0.91295 0.89445 0.68833 0.0
O47 O 0.98676 0.08341 0.72492 0.0
H48 H 0.04013 0.91633 0.67195 0.0
H49 H 0.89411 0.99573 0.70134 0.0
O50 O 0.08049 1.01674 0.70753 0.0
C51 C 0.94031 0.11512 0.71988 0.0
O52 O 0.91961 0.12426 0.69378 0.0
N53 N 0.0361 0.04988 0.65436 0.0
C54 C 0.0491 0.03449 0.59789 0.0
C55 C 0.09533 1.02648 0.61812 0.0
C56 C 0.08799 0.03498 0.6465 0.0
C57 C 0.99126 0.05871 0.63503 0.0
C58 C 0.99663 0.05065 0.60675 0.0
H59 H 0.12365 1.02983 0.66198 0.0
H60 H 0.95072 0.07135 0.64181 0.0
H61 H 0.13712 0.12395 0.7096 0.0
H62 H 0.06329 0.31202 0.68504 0.0
H63 H 0.96673 0.81687 0.67338 0.0
H64 H 0.13668 1.01479 0.61204 0.0
H65 H 0.9597 0.05632 0.59198 0.0
C66 C 0.53639 0.7033 0.79004 0.0
C67 C 0.49584 0.75217 0.78416 0.0
N68 N 0.44575 0.72097 0.77938 0.0
N69 N 0.51234 0.64128 0.78885 0.0
C70 C 0.4569 0.65351 0.78226 0.0
H71 H 0.58065 0.7125 0.79542 0.0
Co72 Co 0.55313 0.56233 0.79807 0.0
C73 C 0.47754 0.44472 0.7826 0.0
O74 O 0.50444 0.40857 0.80274 0.0
N75 N 0.59757 0.48261 0.80817 0.0
C76 C 0.64527 0.40094 0.83283 0.0
C77 C 0.60738 0.45304 0.83376 0.0
C78 C 0.63045 0.44639 0.79209 0.0
N79 N 0.66058 0.39704 0.80666 0.0
O80 O 0.58975 0.57398 0.76452 0.0
H81 H 0.58847 0.46737 0.85234 0.0
H82 H 0.63364 0.45746 0.77024 0.0
O83 O 0.49259 0.50634 0.77838 0.0
C84 C 0.63818 0.59953 0.77131 0.0
O85 O 0.65539 0.60546 0.79801 0.0
N86 N 0.52166 0.55977 0.83201 0.0
C87 C 0.49964 0.56451 0.88777 0.0
C88 C 0.4618 0.53267 0.86774 0.0
C89 C 0.47311 0.53188 0.83965 0.0
C90 C 0.55626 0.59537 0.85077 0.0
C91 C 0.54653 0.5977 0.87877 0.0
H92 H 0.44309 0.50864 0.82448 0.0
H93 H 0.59351 0.61913 0.84406 0.0
H94 H 0.42519 0.61409 0.78062 0.0
H95 H 0.50277 0.8066 0.78354 0.0
H96 H 0.66029 0.36866 0.85032 0.0
H97 H 0.42414 0.50834 0.87375 0.0
H98 H 0.57702 0.62273 0.89338 0.0
C99 C 0.52619 0.66628 0.18187 0.0
C100 C 0.5625 0.72007 0.18715 0.0
N101 N 0.60818 0.69689 0.20299 0.0
N102 N 0.54885 0.60968 0.19448 0.0
C103 C 0.59874 0.63006 0.20727 0.0
H104 H 0.48581 0.66817 0.16963 0.0
Co105 Co 0.51476 0.52415 0.19466 0.0
C106 C 0.62625 0.4469 0.19773 0.0
O107 O 0.62121 0.43304 0.17093 0.0
N108 N 0.47929 0.438 0.19545 0.0
C109 C 0.45593 0.32984 0.18685 0.0
C110 C 0.4979 0.3774 0.18678 0.0
C111 C 0.42582 0.42528 0.20103 0.0
N112 N 0.41055 0.36018 0.19567 0.0
O113 O 0.49855 0.54046 0.23241 0.0
H114 H 0.53812 0.36823 0.17933 0.0
H115 H 0.39736 0.4636 0.20743 0.0
O116 O 0.5877 0.48056 0.20844 0.0
C117 C 0.45343 0.57564 0.2303 0.0
O118 O 0.42847 0.58888 0.20526 0.0
N119 N 0.52416 0.51444 0.15608 0.0
C120 C 0.51874 0.52078 0.0976 0.0
C121 C 0.56715 0.54205 0.1141 0.0
C122 C 0.56866 0.5395 0.14332 0.0
C123 C 0.47639 0.49561 0.14011 0.0
C124 C 0.47344 0.49633 0.11108 0.0
H125 H 0.60524 0.55908 0.15566 0.0
H126 H 0.43881 0.48263 0.14967 0.0
H127 H 0.62736 0.59702 0.2199 0.0
H128 H 0.55619 0.77191 0.17965 0.0
H129 H 0.45833 0.27717 0.18055 0.0
H130 H 0.60262 0.56315 0.10461 0.0
H131 H 0.43504 0.4796 0.09933 0.0
C132 C 1.01139 0.9507 0.43497 0.0
C133 C 0.05084 0.98497 0.42025 0.0
C134 C 1.01315 0.95534 0.46423 0.0
C135 C 0.05563 0.9947 0.47905 0.0
C136 C 0.09621 1.02818 0.4644 0.0
C137 C 0.09297 1.02352 0.43522 0.0
C138 C 0.96879 0.91956 0.4792 0.0
C139 C 0.14218 0.0706 0.47946 0.0
C140 C 0.02612 0.07128 0.54822 0.0
C141 C 0.05439 1.02621 0.56758 0.0
C142 C 0.02592 0.06118 0.5194 0.0
C143 C 0.05542 1.00513 0.50962 0.0
C144 C 0.0854 0.96041 0.52898 0.0
C145 C 0.08445 0.97143 0.55781 0.0
C146 C 0.99363 0.11021 0.49943 0.0
C147 C 0.11787 0.90062 0.51921 0.0
H148 H 0.97901 0.92044 0.42362 0.0
H149 H 0.12282 0.05174 0.42408 0.0
H150 H 0.98882 0.88583 0.49594 0.0
H151 H 0.94344 0.95771 0.48942 0.0
H152 H 0.94011 0.88859 0.46481 0.0
H153 H 0.17304 0.08888 0.46524 0.0
H154 H 0.12353 0.1155 0.48899 0.0
H155 H 0.16488 0.04062 0.49669 0.0
H156 H 1.00366 0.11444 0.55567 0.0
H157 H 0.10597 0.93616 0.57268 0.0
H158 H 0.96158 0.0822 0.48574 0.0
H159 H 0.02245 0.13483 0.48567 0.0
H160 H 0.97218 0.15064 0.5105 0.0
H161 H 0.08899 0.86582 0.50673 0.0
H162 H 0.13982 0.87137 0.53693 0.0
H163 H 0.14944 0.9186 0.50537 0.0
C164 C 0.55921 0.51256 0.05136 0.0
C165 C 0.51365 0.52749 0.0666 0.0
C166 C 0.55428 0.51838 0.02207 0.0
C167 C 0.50243 0.53902 0.00771 0.0
C168 C 0.45629 0.55394 0.02292 0.0
C169 C 0.46262 0.54866 0.05216 0.0
C170 C 0.60458 0.5027 0.00648 0.0
C171 C 0.40028 0.57581 0.00833 0.0
C172 C 0.50643 0.61632 0.93541 0.0
C173 C 0.49307 0.56018 0.91814 0.0
C174 C 0.50891 0.61032 0.96459 0.0
C175 C 0.4969 0.54687 0.97679 0.0
C176 C 0.48071 0.49083 0.95948 0.0
C177 C 0.47917 0.49808 0.93031 0.0
C178 C 0.52626 0.67129 0.98237 0.0
C179 C 0.46682 0.42264 0.97179 0.0
H180 H 0.59857 0.49561 0.06231 0.0
H181 H 0.42752 0.56191 0.06374 0.0
H182 H 0.59433 0.46102 0.99138 0.0
H183 H 0.61565 0.54807 0.99425 0.0
H184 H 0.64189 0.48738 0.02075 0.0
H185 H 0.36795 0.583 0.02317 0.0
H186 H 0.40505 0.62436 -0.00315 0.0
H187 H 0.38491 0.53719 0.99267 0.0
H188 H 0.51631 0.66475 0.92609 0.0
H189 H 0.46939 0.45432 0.91712 0.0
H190 H 0.56595 0.65981 0.99551 0.0
H191 H 0.49393 0.68269 -0.00326 0.0
H192 H 0.5327 0.71748 0.96958 0.0
H193 H 0.50472 0.40119 0.9839 0.0
H194 H 0.45153 0.3855 0.95546 0.0
H195 H 0.43423 0.42877 0.98653 0.0
C196 C 0.2058 0.10297 0.2462 0.0
C197 C 0.14786 0.11512 0.24352 0.0
C198 C 0.24246 0.14554 0.23332 0.0
C199 C 0.22054 0.20161 0.21707 0.0
C200 C 0.16152 0.21064 0.2122 0.0
C201 C 0.12556 0.16716 0.22568 0.0
C202 C 0.30498 0.13345 0.23904 0.0
C203 C 0.13653 0.26877 0.19442 0.0
C204 C 0.32708 0.34401 0.22118 0.0
C205 C 0.35693 0.32899 0.19832 0.0
C206 C 0.27925 0.30635 0.22632 0.0
C207 C 0.26046 0.25328 0.20785 0.0
C208 C 0.2875 0.24236 0.18334 0.0
C209 C 0.33588 0.27981 0.17905 0.0
C210 C 0.25187 0.31954 0.2528 0.0
C211 C 0.26778 0.18789 0.16268 0.0
H212 H 0.22286 0.06232 0.25994 0.0
H213 H 0.08072 0.17687 0.22384 0.0
H214 H 0.32482 0.13119 0.21914 0.0
H215 H 0.32446 0.1764 0.25133 0.0
H216 H 0.31483 0.08544 0.25091 0.0
H217 H 0.09138 0.26011 0.18767 0.0
H218 H 0.1402 0.31647 0.2067 0.0
H219 H 0.15944 0.27637 0.17563 0.0
H220 H 0.34327 0.38221 0.236 0.0
H221 H 0.35823 0.2694 0.16096 0.0
H222 H 0.26139 0.27667 0.26772 0.0
H223 H 0.20558 0.32244 0.24831 0.0
H224 H 0.26699 0.36749 0.2631 0.0
H225 H 0.28096 0.13719 0.17134 0.0
H226 H 0.28572 0.19484 0.14236 0.0
H227 H 0.22127 0.18783 0.15893 0.0
C228 C 0.90511 0.30122 0.28727 0.0
C229 C 0.90313 0.2298 0.28619 0.0
C230 C 0.85987 0.34131 0.27549 0.0
C231 C 0.8112 0.30931 0.26245 0.0
C232 C 0.80819 0.23724 0.26222 0.0
C233 C 0.85412 0.19851 0.27398 0.0
C234 C 0.86506 0.4179 0.27602 0.0
C235 C 0.75703 0.20089 0.24876 0.0
C236 C 0.67418 0.40763 0.24424 0.0
C237 C 0.67534 0.41827 0.21538 0.0
C238 C 0.71867 0.37364 0.2601 0.0
C239 C 0.7656 0.35057 0.24682 0.0
C240 C 0.76786 0.3639 0.21795 0.0
C241 C 0.72277 0.39717 0.20263 0.0
C242 C 0.71455 0.36024 0.2908 0.0
C243 C 0.81726 0.34115 0.20295 0.0
H244 H 0.94286 0.32589 0.29647 0.0
H245 H 0.85174 0.14344 0.27352 0.0
H246 H 0.86666 0.43759 0.25439 0.0
H247 H 0.82777 0.44103 0.28429 0.0
H248 H 0.90339 0.43501 0.28898 0.0
H249 H 0.75946 0.14489 0.25219 0.0
H250 H 0.71855 0.22033 0.25719 0.0
H251 H 0.75262 0.21112 0.2259 0.0
H252 H 0.63765 0.4236 0.25424 0.0
H253 H 0.7244 0.40581 0.1804 0.0
H254 H 0.75301 0.37823 0.30334 0.0
H255 H 0.71138 0.3046 0.29454 0.0
H256 H 0.67745 0.38557 0.29845 0.0
H257 H 0.85702 0.3604 0.21389 0.0
H258 H 0.8142 0.35913 0.18086 0.0
H259 H 0.81973 0.28472 0.20315 0.0
C260 C 0.65185 0.80214 0.22249 0.0
C261 C 0.65711 0.73516 0.21318 0.0
C262 C 0.69912 0.83889 0.2336 0.0
C263 C 0.75297 0.80829 0.23484 0.0
C264 C 0.75859 0.74138 0.22461 0.0
C265 C 0.7105 0.7054 0.21419 0.0
C266 C 0.69122 0.90944 0.24489 0.0
C267 C 0.81532 0.70732 0.22509 0.0
C268 C 0.88548 0.91613 0.24568 0.0
C269 C 0.90366 0.901 0.27364 0.0
C270 C 0.83582 0.8873 0.23277 0.0
C271 C 0.8031 0.84407 0.2485 0.0
C272 C 0.82004 0.83169 0.27716 0.0
C273 C 0.87052 0.8595 0.28925 0.0
C274 C 0.81976 0.90055 0.20203 0.0
C275 C 0.78565 0.7875 0.2949 0.0
H276 H 0.61046 0.8249 0.22189 0.0
H277 H 0.71459 0.65396 0.20662 0.0
H278 H 0.70384 0.9097 0.26775 0.0
H279 H 0.71857 0.94635 0.23511 0.0
H280 H 0.64699 0.92719 0.24116 0.0
H281 H 0.81294 0.65732 0.21436 0.0
H282 H 0.84486 0.7406 0.21485 0.0
H283 H 0.8332 0.69913 0.24704 0.0
H284 H 0.91136 0.94791 0.23358 0.0
H285 H 0.88433 0.84837 0.31099 0.0
H286 H 0.77587 0.9193 0.19858 0.0
H287 H 0.82187 0.85222 0.19034 0.0
H288 H 0.84783 0.93833 0.19317 0.0
H289 H 0.74128 0.80489 0.29293 0.0
H290 H 0.80193 0.78805 0.31736 0.0
H291 H 0.78598 0.73417 0.28746 0.0
C292 C 0.23694 0.80513 0.30313 0.0
C293 C 0.20657 0.82401 0.27777 0.0
C294 C 0.2853 0.76371 0.30349 0.0
C295 C 0.30348 0.74099 0.27789 0.0
C296 C 0.27408 0.76245 0.25228 0.0
C297 C 0.22633 0.8036 0.25259 0.0
C298 C 0.31566 0.74248 0.33118 0.0
C299 C 0.29208 0.74049 0.22437 0.0
C300 C 0.4437 0.67396 0.26089 0.0
C301 C 0.42934 0.60656 0.25418 0.0
C302 C 0.4053 0.71731 0.27241 0.0
C303 C 0.35136 0.69236 0.27703 0.0
C304 C 0.33995 0.62188 0.27377 0.0
C305 C 0.37904 0.57986 0.26213 0.0
C306 C 0.41973 0.7917 0.27591 0.0
C307 C 0.28347 0.59264 0.27879 0.0
H308 H 0.2218 0.82082 0.32264 0.0
H309 H 0.20397 0.8195 0.23292 0.0
H310 H 0.30737 0.68785 0.33513 0.0
H311 H 0.36171 0.74836 0.33086 0.0
H312 H 0.30182 0.7725 0.3488 0.0
H313 H 0.26553 0.76327 0.20642 0.0
H314 H 0.33634 0.75538 0.22266 0.0
H315 H 0.28966 0.68423 0.22264 0.0
H316 H 0.48218 0.69496 0.25418 0.0
H317 H 0.36754 0.52801 0.25643 0.0
H318 H 0.40216 0.81298 0.29455 0.0
H319 H 0.40119 0.82053 0.25728 0.0
H320 H 0.46589 0.79989 0.2779 0.0
H321 H 0.26829 0.61407 0.29799 0.0
H322 H 0.28503 0.53622 0.28075 0.0
H323 H 0.25246 0.60625 0.2609 0.0
C324 C 0.38299 0.81905 0.78421 0.0
C325 C 0.392 0.75418 0.77338 0.0
C326 C 0.33234 0.85418 0.77746 0.0
C327 C 0.28941 0.82393 0.75932 0.0
C328 C 0.29769 0.75784 0.74873 0.0
C329 C 0.34884 0.7236 0.75599 0.0
C330 C 0.32503 0.92409 0.78954 0.0
C331 C 0.253 0.72395 0.72925 0.0
C332 C 0.14144 0.89492 0.76018 0.0
C333 C 0.13742 0.93936 0.73702 0.0
C334 C 0.19033 0.85646 0.76747 0.0
C335 C 0.23637 0.86227 0.75118 0.0
C336 C 0.23258 0.90689 0.72775 0.0
C337 C 0.18329 0.94503 0.72101 0.0
C338 C 0.19285 0.80995 0.79275 0.0
C339 C 0.28073 0.91458 0.70984 0.0
H340 H 0.4157 0.84244 0.7981 0.0
H341 H 0.3557 0.67372 0.74744 0.0
H342 H 0.31857 0.96233 0.7724 0.0
H343 H 0.28715 0.92513 0.80116 0.0
H344 H 0.36189 0.93967 0.80393 0.0
H345 H 0.26521 0.67165 0.72352 0.0
H346 H 0.21303 0.72117 0.73915 0.0
H347 H 0.24481 0.75478 0.70982 0.0
H348 H 0.10628 0.89002 0.77268 0.0
H349 H 0.18071 0.9791 0.70309 0.0
H350 H 0.2276 0.82579 0.80833 0.0
H351 H 0.20184 0.75699 0.78662 0.0
H352 H 0.15308 0.81022 0.80293 0.0
H353 H 0.3182 0.93448 0.72263 0.0
H354 H 0.27045 0.94962 0.69179 0.0
H355 H 0.2923 0.86418 0.70179 0.0
C356 C 0.22151 0.23436 0.70496 0.0
C357 C 0.16948 0.26322 0.70932 0.0
C358 C 0.27215 0.26699 0.71435 0.0
C359 C 0.27079 0.32911 0.72916 0.0
C360 C 0.21823 0.35869 0.7334 0.0
C361 C 0.16831 0.32581 0.72314 0.0
C362 C 0.32714 0.23436 0.70886 0.0
C363 C 0.21466 0.42365 0.74976 0.0
C364 C 0.39614 0.36536 0.78179 0.0
C365 C 0.42468 0.41662 0.76837 0.0
C366 C 0.34596 0.33734 0.76938 0.0
C367 C 0.32402 0.35975 0.74244 0.0
C368 C 0.35271 0.41127 0.7286 0.0
C369 C 0.40235 0.43984 0.74191 0.0
C370 C 0.31618 0.28398 0.78529 0.0
C371 C 0.3313 0.43558 0.69964 0.0
H372 H 0.22247 0.18642 0.69399 0.0
H373 H 0.12815 0.34791 0.72675 0.0
H374 H 0.35431 0.27206 0.69937 0.0
H375 H 0.34986 0.21704 0.72889 0.0
H376 H 0.32105 0.18988 0.69474 0.0
H377 H 0.17071 0.44172 0.75012 0.0
H378 H 0.23299 0.41519 0.77164 0.0
H379 H 0.23947 0.46446 0.7407 0.0
H380 H 0.41257 0.34766 0.80242 0.0
H381 H 0.42423 0.47932 0.73142 0.0
H382 H 0.31362 0.23555 0.7735 0.0
H383 H 0.27252 0.30062 0.78757 0.0
H384 H 0.33775 0.27383 0.80645 0.0
H385 H 0.32798 0.39188 0.68505 0.0
H386 H 0.35904 0.47473 0.69144 0.0
H387 H 0.28856 0.45741 0.69983 0.0
C388 C 0.92278 0.21403 0.74909 0.0
C389 C 0.91062 0.14647 0.7418 0.0
C390 C 0.88444 0.25341 0.76248 0.0
C391 C 0.83287 0.22416 0.76865 0.0
C392 C 0.82235 0.15435 0.76299 0.0
C393 C 0.86119 0.11649 0.74929 0.0
C394 C 0.8972 0.32766 0.76794 0.0
C395 C 0.76837 0.12089 0.7696 0.0
C396 C 0.74323 0.32092 0.81635 0.0
C397 C 0.70318 0.35274 0.79708 0.0
C398 C 0.78517 0.27838 0.80748 0.0
C399 C 0.788 0.26796 0.77857 0.0
C400 C 0.7481 0.29994 0.75895 0.0
C401 C 0.70604 0.34145 0.76842 0.0
C402 C 0.82669 0.24486 0.82904 0.0
C403 C 0.74997 0.29055 0.72786 0.0
H404 H 0.96038 0.23751 0.74246 0.0
H405 H 0.85136 0.06464 0.74293 0.0
H406 H 0.86895 0.35959 0.7535 0.0
H407 H 0.8893 0.34124 0.78959 0.0
H408 H 0.94137 0.34058 0.7648 0.0
H409 H 0.76973 0.0647 0.76716 0.0
H410 H 0.75946 0.13263 0.7913 0.0
H411 H 0.73294 0.14128 0.75532 0.0
H412 H 0.7426 0.3298 0.83851 0.0
H413 H 0.67527 0.36471 0.75327 0.0
H414 H 0.86987 0.26216 0.82613 0.0
H415 H 0.82583 0.1888 0.82629 0.0
H416 H 0.81781 0.25648 0.85079 0.0
H417 H 0.79132 0.30723 0.72164 0.0
H418 H 0.71646 0.31974 0.71531 0.0
H419 H 0.74524 0.23584 0.72255 0.0
C420 C 0.73143 0.62829 0.75666 0.0
C421 C 0.67296 0.63021 0.75084 0.0
C422 C 0.7662 0.67049 0.74227 0.0
C423 C 0.74183 0.71644 0.72168 0.0
C424 C 0.68293 0.71543 0.7144 0.0
C425 C 0.64902 0.67196 0.72907 0.0
C426 C 0.8288 0.66891 0.75045 0.0
C427 C 0.65539 0.76338 0.69251 0.0
C428 C 0.83267 0.87327 0.71601 0.0
C429 C 0.86395 0.85564 0.69391 0.0
C430 C 0.78996 0.83044 0.72409 0.0
C431 C 0.77821 0.7685 0.70971 0.0
C432 C 0.80702 0.75278 0.6862 0.0
C433 C 0.84951 0.79648 0.6786 0.0
C434 C 0.76001 0.8494 0.7492 0.0
C435 C 0.79539 0.68779 0.67009 0.0
H436 H 0.74988 0.59593 0.77352 0.0
H437 H 0.60369 0.67423 0.72487 0.0
H438 H 0.85184 0.66333 0.73163 0.0
H439 H 0.84219 0.71769 0.76052 0.0
H440 H 0.84137 0.6266 0.76525 0.0
H441 H 0.61109 0.74907 0.68616 0.0
H442 H 0.65591 0.8158 0.701 0.0
H443 H 0.67884 0.7644 0.67368 0.0
H444 H 0.84353 0.91869 0.72798 0.0
H445 H 0.87256 0.78333 0.66107 0.0
H446 H 0.77342 0.8145 0.76688 0.0
H447 H 0.71395 0.84365 0.74448 0.0
H448 H 0.76913 0.90254 0.756 0.0
H449 H 0.81188 0.64379 0.68302 0.0
H450 H 0.81541 0.68761 0.65016 0.0
H451 H 0.74952 0.68014 0.66535 0.0
loop_
_geom_bond_atom_site_label_1
_geom_bond_atom_site_label_2
_geom_bond_distance
_geom_bond_site_symmetry_2
_ccdc_geom_bond_type
C0 C1 1.351 . S
C0 N3 1.368 . S
C0 H5 0.931 1_655 S
C1 C0 1.351 . S
C1 N2 1.373 . S
C1 H29 0.930 . S
N2 C1 1.373 . S
N2 C4 1.340 . S
N3 C0 1.368 . S
N3 C4 1.321 . S
N3 Co6 2.135 1_655 S
C4 N2 1.340 . S
C4 N3 1.321 . S
C4 H28 0.930 . S
H5 C0 0.931 1_455 S
Co6 N3 2.135 1_455 S
Co6 N9 2.121 1_545 S
Co6 O14 2.055 . S
Co6 O17 2.039 1_445 S
Co6 N20 2.140 . S
C7 O8 1.227 . S
C7 O17 1.265 . S
O8 C7 1.227 . S
N9 Co6 2.121 1_565 S
N9 C11 1.375 . S
N9 C12 1.313 . S
C10 C11 1.338 . S
C10 N13 1.377 . S
C10 H30 0.930 . S
C11 N9 1.375 . S
C11 C10 1.338 . S
C11 H15 0.931 . S
C12 N9 1.313 . S
C12 N13 1.344 . S
C12 H16 0.930 . S
N13 C10 1.377 . S
N13 C12 1.344 . S
O14 Co6 2.055 . S
O14 C18 1.253 . S
H15 C11 0.931 . S
H16 C12 0.930 . S
O17 Co6 2.039 1_665 S
O17 C7 1.265 . S
C18 O14 1.253 . S
C18 O19 1.227 . S
O19 C18 1.227 . S
N20 Co6 2.140 . S
N20 C23 1.346 1_455 S
N20 C24 1.345 1_545 S
C21 C22 1.387 1_465 S
C21 C25 1.391 . S
C22 C21 1.387 1_645 S
C22 C23 1.369 . S
C22 H31 0.929 . S
C23 N20 1.346 1_655 S
C23 C22 1.369 . S
C23 H26 0.928 . S
C24 N20 1.345 1_565 S
C24 C25 1.371 . S
C24 H27 0.931 . S
C25 C21 1.391 . S
C25 C24 1.371 . S
C25 H32 0.930 . S
H26 C23 0.928 . S
H27 C24 0.931 . S
H28 C4 0.930 . S
H29 C1 0.930 . S
H30 C10 0.930 . S
H31 C22 0.929 . S
H32 C25 0.930 . S
C33 C34 1.351 . S
C33 N36 1.368 . S
C33 H38 0.931 . S
C34 C33 1.351 . S
C34 N35 1.373 . S
C34 H62 0.930 . S
N35 C34 1.373 . S
N35 C37 1.340 . S
N36 C33 1.368 . S
N36 C37 1.321 . S
N36 Co39 2.135 . S
C37 N35 1.340 . S
C37 N36 1.321 . S
C37 H61 0.930 . S
H38 C33 0.931 . S
Co39 N36 2.135 . S
Co39 N42 2.121 1_445 S
Co39 O47 2.055 1_455 S
Co39 O50 2.039 1_545 S
Co39 N53 2.140 . S
C40 O41 1.227 . S
C40 O50 1.265 . S
O41 C40 1.227 . S
N42 Co39 2.121 1_665 S
N42 C44 1.375 . S
N42 C45 1.313 . S
C43 C44 1.338 . S
C43 N46 1.377 . S
C43 H63 0.930 . S
C44 N42 1.375 . S
C44 C43 1.338 . S
C44 H48 0.931 1_655 S
C45 N42 1.313 . S
C45 N46 1.344 . S
C45 H49 0.930 . S
N46 C43 1.377 . S
N46 C45 1.344 . S
O47 Co39 2.055 1_655 S
O47 C51 1.253 . S
H48 C44 0.931 1_455 S
H49 C45 0.930 . S
O50 Co39 2.039 1_565 S
O50 C40 1.265 . S
C51 O47 1.253 . S
C51 O52 1.227 . S
O52 C51 1.227 . S
N53 Co39 2.140 . S
N53 C56 1.346 . S
N53 C57 1.345 1_445 S
C54 C55 1.387 1_565 S
C54 C58 1.391 1_455 S
C55 C54 1.387 1_545 S
C55 C56 1.369 . S
C55 H64 0.929 . S
C56 N53 1.346 . S
C56 C55 1.369 . S
C56 H59 0.928 . S
C57 N53 1.345 1_665 S
C57 C58 1.371 . S
C57 H60 0.931 . S
C58 C54 1.391 1_655 S
C58 C57 1.371 . S
C58 H65 0.930 . S
H59 C56 0.928 . S
H60 C57 0.931 . S
H61 C37 0.930 . S
H62 C34 0.930 . S
H63 C43 0.930 . S
H64 C55 0.929 . S
H65 C58 0.930 . S
C66 C67 1.351 . S
C66 N69 1.368 . S
C66 H71 0.931 . S
C67 C66 1.351 . S
C67 N68 1.373 . S
C67 H95 0.930 . S
N68 C67 1.373 . S
N68 C70 1.340 . S
N69 C66 1.368 . S
N69 C70 1.321 . S
N69 Co72 2.135 . S
C70 N68 1.340 . S
C70 N69 1.321 . S
C70 H94 0.930 . S
H71 C66 0.931 . S
Co72 N69 2.135 . S
Co72 N75 2.121 . S
Co72 O80 2.055 . S
Co72 O83 2.039 . S
Co72 N86 2.140 . S
C73 O74 1.227 . S
C73 O83 1.265 . S
O74 C73 1.227 . S
N75 Co72 2.121 . S
N75 C77 1.375 . S
N75 C78 1.313 . S
C76 C77 1.338 . S
C76 N79 1.377 . S
C76 H96 0.930 . S
C77 N75 1.375 . S
C77 C76 1.338 . S
C77 H81 0.931 . S
C78 N75 1.313 . S
C78 N79 1.344 . S
C78 H82 0.930 . S
N79 C76 1.377 . S
N79 C78 1.344 . S
O80 Co72 2.055 . S
O80 C84 1.253 . S
H81 C77 0.931 . S
H82 C78 0.930 . S
O83 Co72 2.039 . S
O83 C73 1.265 . S
C84 O80 1.253 . S
C84 O85 1.227 . S
O85 C84 1.227 . S
N86 Co72 2.140 . S
N86 C89 1.346 . S
N86 C90 1.345 . S
C87 C88 1.387 . S
C87 C91 1.391 . S
C88 C87 1.387 . S
C88 C89 1.369 . S
C88 H97 0.929 . S
C89 N86 1.346 . S
C89 C88 1.369 . S
C89 H92 0.928 . S
C90 N86 1.345 . S
C90 C91 1.371 . S
C90 H93 0.931 . S
C91 C87 1.391 . S
C91 C90 1.371 . S
C91 H98 0.930 . S
H92 C89 0.928 . S
H93 C90 0.931 . S
H94 C70 0.930 . S
H95 C67 0.930 . S
H96 C76 0.930 . S
H97 C88 0.929 . S
H98 C91 0.930 . S
C99 C100 1.351 . S
C99 N102 1.368 . S
C99 H104 0.931 . S
C100 C99 1.351 . S
C100 N101 1.373 . S
C100 H128 0.930 . S
N101 C100 1.373 . S
N101 C103 1.340 . S
N102 C99 1.368 . S
N102 C103 1.321 . S
N102 Co105 2.135 . S
C103 N101 1.340 . S
C103 N102 1.321 . S
C103 H127 0.930 . S
H104 C99 0.931 . S
Co105 N102 2.135 . S
Co105 N108 2.121 . S
Co105 O113 2.055 . S
Co105 O116 2.039 . S
Co105 N119 2.140 . S
C106 O107 1.227 . S
C106 O116 1.265 . S
O107 C106 1.227 . S
N108 Co105 2.121 . S
N108 C110 1.375 . S
N108 C111 1.313 . S
C109 C110 1.338 . S
C109 N112 1.377 . S
C109 H129 0.930 . S
C110 N108 1.375 . S
C110 C109 1.338 . S
C110 H114 0.931 . S
C111 N108 1.313 . S
C111 N112 1.344 . S
C111 H115 0.930 . S
N112 C109 1.377 . S
N112 C111 1.344 . S
O113 Co105 2.055 . S
O113 C117 1.253 . S
H114 C110 0.931 . S
H115 C111 0.930 . S
O116 Co105 2.039 . S
O116 C106 1.265 . S
C117 O113 1.253 . S
C117 O118 1.227 . S
O118 C117 1.227 . S
N119 Co105 2.140 . S
N119 C122 1.346 . S
N119 C123 1.345 . S
C120 C121 1.387 . S
C120 C124 1.391 . S
C121 C120 1.387 . S
C121 C122 1.369 . S
C121 H130 0.929 . S
C122 N119 1.346 . S
C122 C121 1.369 . S
C122 H125 0.928 . S
C123 N119 1.345 . S
C123 C124 1.371 . S
C123 H126 0.931 . S
C124 C120 1.391 . S
C124 C123 1.371 . S
C124 H131 0.930 . S
H125 C122 0.928 . S
H126 C123 0.931 . S
H127 C103 0.930 . S
H128 C100 0.930 . S
H129 C109 0.930 . S
H130 C121 0.929 . S
H131 C124 0.930 . S
C132 C133 1.391 1_655 S
C132 C134 1.394 . S
C132 H148 0.931 . S
C133 C132 1.391 1_455 S
C133 C137 1.376 1_565 S
C134 C132 1.394 . S
C134 C135 1.369 1_655 S
C134 C138 1.531 . S
C135 C134 1.369 1_455 S
C135 C136 1.410 1_565 S
C135 C143 1.503 . S
C136 C135 1.410 1_545 S
C136 C137 1.392 . S
C136 C139 1.511 . S
C137 C133 1.376 1_545 S
C137 C136 1.392 . S
C137 H149 0.929 . S
C138 C134 1.531 . S
C138 H150 0.960 . S
C138 H151 0.962 . S
C138 H152 0.960 . S
C139 C136 1.511 . S
C139 H153 0.961 . S
C139 H154 0.961 . S
C139 H155 0.961 . S
C140 C141 1.370 1_645 S
C140 C142 1.363 . S
C140 H156 0.931 . S
C141 C140 1.370 1_465 S
C141 C145 1.408 . S
C142 C140 1.363 . S
C142 C143 1.370 1_645 S
C142 C146 1.524 . S
C143 C135 1.503 . S
C143 C142 1.370 1_465 S
C143 C144 1.403 . S
C144 C143 1.403 . S
C144 C145 1.404 . S
C144 C147 1.539 . S
C145 C141 1.408 . S
C145 C144 1.404 . S
C145 H157 0.930 . S
C146 C142 1.524 . S
C146 H158 0.956 . S
C146 H159 0.961 . S
C146 H160 0.961 . S
C147 C144 1.539 . S
C147 H161 0.958 . S
C147 H162 0.961 . S
C147 H163 0.960 . S
H148 C132 0.931 . S
H149 C137 0.929 . S
H150 C138 0.960 . S
H151 C138 0.962 . S
H152 C138 0.960 . S
H153 C139 0.961 . S
H154 C139 0.961 . S
H155 C139 0.961 . S
H156 C140 0.931 . S
H157 C145 0.930 . S
H158 C146 0.956 . S
H159 C146 0.961 . S
H160 C146 0.961 . S
H161 C147 0.958 . S
H162 C147 0.961 . S
H163 C147 0.960 . S
C164 C165 1.391 . S
C164 C166 1.394 . S
C164 H180 0.931 . S
C165 C164 1.391 . S
C165 C169 1.376 . S
C166 C164 1.394 . S
C166 C167 1.369 . S
C166 C170 1.531 . S
C167 C166 1.369 . S
C167 C168 1.410 . S
C167 C175 1.503 1_554 S
C168 C167 1.410 . S
C168 C169 1.392 . S
C168 C171 1.511 . S
C169 C165 1.376 . S
C169 C168 1.392 . S
C169 H181 0.929 . S
C170 C166 1.531 . S
C170 H182 0.948 1_554 S
C170 H183 0.962 . S
C170 H184 0.960 . S
C171 C168 1.511 . S
C171 H185 0.961 . S
C171 H186 0.961 1_554 S
C171 H187 0.961 . S
C172 C173 1.370 . S
C172 C174 1.363 . S
C172 H188 0.931 . S
C173 C172 1.370 . S
C173 C177 1.408 . S
C174 C172 1.363 . S
C174 C175 1.370 . S
C174 C178 1.524 . S
C175 C167 1.503 1_556 S
C175 C174 1.370 . S
C175 C176 1.403 . S
C176 C175 1.403 . S
C176 C177 1.404 . S
C176 C179 1.539 . S
C177 C173 1.408 . S
C177 C176 1.404 . S
C177 H189 0.930 . S
C178 C174 1.524 . S
C178 H190 0.956 1_556 S
C178 H191 0.961 1_556 S
C178 H192 0.961 . S
C179 C176 1.539 . S
C179 H193 0.958 . S
C179 H194 0.961 . S
C179 H195 0.960 . S
H180 C164 0.931 . S
H181 C169 0.929 . S
H182 C170 0.948 1_556 S
H183 C170 0.962 . S
H184 C170 0.960 . S
H185 C171 0.961 . S
H186 C171 0.961 1_556 S
H187 C171 0.961 . S
H188 C172 0.931 . S
H189 C177 0.930 . S
H190 C178 0.956 1_554 S
H191 C178 0.961 1_554 S
H192 C178 0.961 . S
H193 C179 0.958 . S
H194 C179 0.961 . S
H195 C179 0.960 . S
C196 C197 1.391 . S
C196 C198 1.394 . S
C196 H212 0.931 . S
C197 C196 1.391 . S
C197 C201 1.376 . S
C198 C196 1.394 . S
C198 C199 1.369 . S
C198 C202 1.531 . S
C199 C198 1.369 . S
C199 C200 1.410 . S
C199 C207 1.503 . S
C200 C199 1.410 . S
C200 C201 1.392 . S
C200 C203 1.511 . S
C201 C197 1.376 . S
C201 C200 1.392 . S
C201 H213 0.929 . S
C202 C198 1.531 . S
C202 H214 0.960 . S
C202 H215 0.962 . S
C202 H216 0.960 . S
C203 C200 1.511 . S
C203 H217 0.961 . S
C203 H218 0.961 . S
C203 H219 0.961 . S
C204 C205 1.370 . S
C204 C206 1.363 . S
C204 H220 0.931 . S
C205 C204 1.370 . S
C205 C209 1.408 . S
C206 C204 1.363 . S
C206 C207 1.370 . S
C206 C210 1.524 . S
C207 C199 1.503 . S
C207 C206 1.370 . S
C207 C208 1.403 . S
C208 C207 1.403 . S
C208 C209 1.404 . S
C208 C211 1.539 . S
C209 C205 1.408 . S
C209 C208 1.404 . S
C209 H221 0.930 . S
C210 C206 1.524 . S
C210 H222 0.956 . S
C210 H223 0.961 . S
C210 H224 0.961 . S
C211 C208 1.539 . S
C211 H225 0.958 . S
C211 H226 0.961 . S
C211 H227 0.960 . S
H212 C196 0.931 . S
H213 C201 0.929 . S
H214 C202 0.960 . S
H215 C202 0.962 . S
H216 C202 0.960 . S
H217 C203 0.961 . S
H218 C203 0.961 . S
H219 C203 0.961 . S
H220 C204 0.931 . S
H221 C209 0.930 . S
H222 C210 0.956 . S
H223 C210 0.961 . S
H224 C210 0.961 . S
H225 C211 0.958 . S
H226 C211 0.961 . S
H227 C211 0.960 . S
C228 C229 1.391 . S
C228 C230 1.394 . S
C228 H244 0.931 . S
C229 C228 1.391 . S
C229 C233 1.376 . S
C230 C228 1.394 . S
C230 C231 1.369 . S
C230 C234 1.531 . S
C231 C230 1.369 . S
C231 C232 1.410 . S
C231 C239 1.503 . S
C232 C231 1.410 . S
C232 C233 1.392 . S
C232 C235 1.511 . S
C233 C229 1.376 . S
C233 C232 1.392 . S
C233 H245 0.929 . S
C234 C230 1.531 . S
C234 H246 0.960 . S
C234 H247 0.962 . S
C234 H248 0.960 . S
C235 C232 1.511 . S
C235 H249 0.961 . S
C235 H250 0.961 . S
C235 H251 0.961 . S
C236 C237 1.370 . S
C236 C238 1.363 . S
C236 H252 0.931 . S
C237 C236 1.370 . S
C237 C241 1.408 . S
C238 C236 1.363 . S
C238 C239 1.370 . S
C238 C242 1.524 . S
C239 C231 1.503 . S
C239 C238 1.370 . S
C239 C240 1.403 . S
C240 C239 1.403 . S
C240 C241 1.404 . S
C240 C243 1.539 . S
C241 C237 1.408 . S
C241 C240 1.404 . S
C241 H253 0.930 . S
C242 C238 1.524 . S
C242 H254 0.956 . S
C242 H255 0.961 . S
C242 H256 0.961 . S
C243 C240 1.539 . S
C243 H257 0.958 . S
C243 H258 0.961 . S
C243 H259 0.960 . S
H244 C228 0.931 . S
H245 C233 0.929 . S
H246 C234 0.960 . S
H247 C234 0.962 . S
H248 C234 0.960 . S
H249 C235 0.961 . S
H250 C235 0.961 . S
H251 C235 0.961 . S
H252 C236 0.931 . S
H253 C241 0.930 . S
H254 C242 0.956 . S
H255 C242 0.961 . S
H256 C242 0.961 . S
H257 C243 0.958 . S
H258 C243 0.961 . S
H259 C243 0.960 . S
C260 C261 1.391 . S
C260 C262 1.394 . S
C260 H276 0.931 . S
C261 C260 1.391 . S
C261 C265 1.376 . S
C262 C260 1.394 . S
C262 C263 1.369 . S
C262 C266 1.531 . S
C263 C262 1.369 . S
C263 C264 1.410 . S
C263 C271 1.503 . S
C264 C263 1.410 . S
C264 C265 1.392 . S
C264 C267 1.511 . S
C265 C261 1.376 . S
C265 C264 1.392 . S
C265 H277 0.929 . S
C266 C262 1.531 . S
C266 H278 0.960 . S
C266 H279 0.962 . S
C266 H280 0.960 . S
C267 C264 1.511 . S
C267 H281 0.961 . S
C267 H282 0.961 . S
C267 H283 0.961 . S
C268 C269 1.370 . S
C268 C270 1.363 . S
C268 H284 0.931 . S
C269 C268 1.370 . S
C269 C273 1.408 . S
C270 C268 1.363 . S
C270 C271 1.370 . S
C270 C274 1.524 . S
C271 C263 1.503 . S
C271 C270 1.370 . S
C271 C272 1.403 . S
C272 C271 1.403 . S
C272 C273 1.404 . S
C272 C275 1.539 . S
C273 C269 1.408 . S
C273 C272 1.404 . S
C273 H285 0.930 . S
C274 C270 1.524 . S
C274 H286 0.956 . S
C274 H287 0.961 . S
C274 H288 0.961 . S
C275 C272 1.539 . S
C275 H289 0.958 . S
C275 H290 0.961 . S
C275 H291 0.960 . S
H276 C260 0.931 . S
H277 C265 0.929 . S
H278 C266 0.960 . S
H279 C266 0.962 . S
H280 C266 0.960 . S
H281 C267 0.961 . S
H282 C267 0.961 . S
H283 C267 0.961 . S
H284 C268 0.931 . S
H285 C273 0.930 . S
H286 C274 0.956 . S
H287 C274 0.961 . S
H288 C274 0.961 . S
H289 C275 0.958 . S
H290 C275 0.961 . S
H291 C275 0.960 . S
C292 C293 1.391 . S
C292 C294 1.394 . S
C292 H308 0.931 . S
C293 C292 1.391 . S
C293 C297 1.376 . S
C294 C292 1.394 . S
C294 C295 1.369 . S
C294 C298 1.531 . S
C295 C294 1.369 . S
C295 C296 1.410 . S
C295 C303 1.503 . S
C296 C295 1.410 . S
C296 C297 1.392 . S
C296 C299 1.511 . S
C297 C293 1.376 . S
C297 C296 1.392 . S
C297 H309 0.929 . S
C298 C294 1.531 . S
C298 H310 0.960 . S
C298 H311 0.962 . S
C298 H312 0.960 . S
C299 C296 1.511 . S
C299 H313 0.961 . S
C299 H314 0.961 . S
C299 H315 0.961 . S
C300 C301 1.370 . S
C300 C302 1.363 . S
C300 H316 0.931 . S
C301 C300 1.370 . S
C301 C305 1.408 . S
C302 C300 1.363 . S
C302 C303 1.370 . S
C302 C306 1.524 . S
C303 C295 1.503 . S
C303 C302 1.370 . S
C303 C304 1.403 . S
C304 C303 1.403 . S
C304 C305 1.404 . S
C304 C307 1.539 . S
C305 C301 1.408 . S
C305 C304 1.404 . S
C305 H317 0.930 . S
C306 C302 1.524 . S
C306 H318 0.956 . S
C306 H319 0.961 . S
C306 H320 0.961 . S
C307 C304 1.539 . S
C307 H321 0.958 . S
C307 H322 0.961 . S
C307 H323 0.960 . S
H308 C292 0.931 . S
H309 C297 0.929 . S
H310 C298 0.960 . S
H311 C298 0.962 . S
H312 C298 0.960 . S
H313 C299 0.961 . S
H314 C299 0.961 . S
H315 C299 0.961 . S
H316 C300 0.931 . S
H317 C305 0.930 . S
H318 C306 0.956 . S
H319 C306 0.961 . S
H320 C306 0.961 . S
H321 C307 0.958 . S
H322 C307 0.961 . S
H323 C307 0.960 . S
C324 C325 1.391 . S
C324 C326 1.394 . S
C324 H340 0.931 . S
C325 C324 1.391 . S
C325 C329 1.376 . S
C326 C324 1.394 . S
C326 C327 1.369 . S
C326 C330 1.531 . S
C327 C326 1.369 . S
C327 C328 1.410 . S
C327 C335 1.503 . S
C328 C327 1.410 . S
C328 C329 1.392 . S
C328 C331 1.511 . S
C329 C325 1.376 . S
C329 C328 1.392 . S
C329 H341 0.929 . S
C330 C326 1.531 . S
C330 H342 0.960 . S
C330 H343 0.962 . S
C330 H344 0.960 . S
C331 C328 1.511 . S
C331 H345 0.961 . S
C331 H346 0.961 . S
C331 H347 0.961 . S
C332 C333 1.370 . S
C332 C334 1.363 . S
C332 H348 0.931 . S
C333 C332 1.370 . S
C333 C337 1.408 . S
C334 C332 1.363 . S
C334 C335 1.370 . S
C334 C338 1.524 . S
C335 C327 1.503 . S
C335 C334 1.370 . S
C335 C336 1.403 . S
C336 C335 1.403 . S
C336 C337 1.404 . S
C336 C339 1.539 . S
C337 C333 1.408 . S
C337 C336 1.404 . S
C337 H349 0.930 . S
C338 C334 1.524 . S
C338 H350 0.956 . S
C338 H351 0.961 . S
C338 H352 0.961 . S
C339 C336 1.539 . S
C339 H353 0.958 . S
C339 H354 0.961 . S
C339 H355 0.960 . S
H340 C324 0.931 . S
H341 C329 0.929 . S
H342 C330 0.960 . S
H343 C330 0.962 . S
H344 C330 0.960 . S
H345 C331 0.961 . S
H346 C331 0.961 . S
H347 C331 0.961 . S
H348 C332 0.931 . S
H349 C337 0.930 . S
H350 C338 0.956 . S
H351 C338 0.961 . S
H352 C338 0.961 . S
H353 C339 0.958 . S
H354 C339 0.961 . S
H355 C339 0.960 . S
C356 C357 1.391 . S
C356 C358 1.394 . S
C356 H372 0.931 . S
C357 C356 1.391 . S
C357 C361 1.376 . S
C358 C356 1.394 . S
C358 C359 1.369 . S
C358 C362 1.531 . S
C359 C358 1.369 . S
C359 C360 1.410 . S
C359 C367 1.503 . S
C360 C359 1.410 . S
C360 C361 1.392 . S
C360 C363 1.511 . S
C361 C357 1.376 . S
C361 C360 1.392 . S
C361 H373 0.929 . S
C362 C358 1.531 . S
C362 H374 0.960 . S
C362 H375 0.962 . S
C362 H376 0.960 . S
C363 C360 1.511 . S
C363 H377 0.961 . S
C363 H378 0.961 . S
C363 H379 0.961 . S
C364 C365 1.370 . S
C364 C366 1.363 . S
C364 H380 0.931 . S
C365 C364 1.370 . S
C365 C369 1.408 . S
C366 C364 1.363 . S
C366 C367 1.370 . S
C366 C370 1.524 . S
C367 C359 1.503 . S
C367 C366 1.370 . S
C367 C368 1.403 . S
C368 C367 1.403 . S
C368 C369 1.404 . S
C368 C371 1.539 . S
C369 C365 1.408 . S
C369 C368 1.404 . S
C369 H381 0.930 . S
C370 C366 1.524 . S
C370 H382 0.956 . S
C370 H383 0.961 . S
C370 H384 0.961 . S
C371 C368 1.539 . S
C371 H385 0.958 . S
C371 H386 0.961 . S
C371 H387 0.960 . S
H372 C356 0.931 . S
H373 C361 0.929 . S
H374 C362 0.960 . S
H375 C362 0.962 . S
H376 C362 0.960 . S
H377 C363 0.961 . S
H378 C363 0.961 . S
H379 C363 0.961 . S
H380 C364 0.931 . S
H381 C369 0.930 . S
H382 C370 0.956 . S
H383 C370 0.961 . S
H384 C370 0.961 . S
H385 C371 0.958 . S
H386 C371 0.961 . S
H387 C371 0.960 . S
C388 C389 1.391 . S
C388 C390 1.394 . S
C388 H404 0.931 . S
C389 C388 1.391 . S
C389 C393 1.376 . S
C390 C388 1.394 . S
C390 C391 1.369 . S
C390 C394 1.531 . S
C391 C390 1.369 . S
C391 C392 1.410 . S
C391 C399 1.503 . S
C392 C391 1.410 . S
C392 C393 1.392 . S
C392 C395 1.511 . S
C393 C389 1.376 . S
C393 C392 1.392 . S
C393 H405 0.929 . S
C394 C390 1.531 . S
C394 H406 0.960 . S
C394 H407 0.962 . S
C394 H408 0.960 . S
C395 C392 1.511 . S
C395 H409 0.961 . S
C395 H410 0.961 . S
C395 H411 0.961 . S
C396 C397 1.370 . S
C396 C398 1.363 . S
C396 H412 0.931 . S
C397 C396 1.370 . S
C397 C401 1.408 . S
C398 C396 1.363 . S
C398 C399 1.370 . S
C398 C402 1.524 . S
C399 C391 1.503 . S
C399 C398 1.370 . S
C399 C400 1.403 . S
C400 C399 1.403 . S
C400 C401 1.404 . S
C400 C403 1.539 . S
C401 C397 1.408 . S
C401 C400 1.404 . S
C401 H413 0.930 . S
C402 C398 1.524 . S
C402 H414 0.956 . S
C402 H415 0.961 . S
C402 H416 0.961 . S
C403 C400 1.539 . S
C403 H417 0.958 . S
C403 H418 0.961 . S
C403 H419 0.960 . S
H404 C388 0.931 . S
H405 C393 0.929 . S
H406 C394 0.960 . S
H407 C394 0.962 . S
H408 C394 0.960 . S
H409 C395 0.961 . S
H410 C395 0.961 . S
H411 C395 0.961 . S
H412 C396 0.931 . S
H413 C401 0.930 . S
H414 C402 0.956 . S
H415 C402 0.961 . S
H416 C402 0.961 . S
H417 C403 0.958 . S
H418 C403 0.961 . S
H419 C403 0.960 . S
C420 C421 1.391 . S
C420 C422 1.394 . S
C420 H436 0.931 . S
C421 C420 1.391 . S
C421 C425 1.376 . S
C422 C420 1.394 . S
C422 C423 1.369 . S
C422 C426 1.531 . S
C423 C422 1.369 . S
C423 C424 1.410 . S
C423 C431 1.503 . S
C424 C423 1.410 . S
C424 C425 1.392 . S
C424 C427 1.511 . S
C425 C421 1.376 . S
C425 C424 1.392 . S
C425 H437 0.929 . S
C426 C422 1.531 . S
C426 H438 0.960 . S
C426 H439 0.962 . S
C426 H440 0.960 . S
C427 C424 1.511 . S
C427 H441 0.961 . S
C427 H442 0.961 . S
C427 H443 0.961 . S
C428 C429 1.370 . S
C428 C430 1.363 . S
C428 H444 0.931 . S
C429 C428 1.370 . S
C429 C433 1.408 . S
C430 C428 1.363 . S
C430 C431 1.370 . S
C430 C434 1.524 . S
C431 C423 1.503 . S
C431 C430 1.370 . S
C431 C432 1.403 . S
C432 C431 1.403 . S
C432 C433 1.404 . S
C432 C435 1.539 . S
C433 C429 1.408 . S
C433 C432 1.404 . S
C433 H445 0.930 . S
C434 C430 1.524 . S
C434 H446 0.956 . S
C434 H447 0.961 . S
C434 H448 0.961 . S
C435 C432 1.539 . S
C435 H449 0.958 . S
C435 H450 0.961 . S
C435 H451 0.960 . S
H436 C420 0.931 . S
H437 C425 0.929 . S
H438 C426 0.960 . S
H439 C426 0.962 . S
H440 C426 0.960 . S
H441 C427 0.961 . S
H442 C427 0.961 . S
H443 C427 0.961 . S
H444 C428 0.931 . S
H445 C433 0.930 . S
H446 C434 0.956 . S
H447 C434 0.961 . S
H448 C434 0.961 . S
H449 C435 0.958 . S
H450 C435 0.961 . S
H451 C435 0.960 . S
C133 C21 1.488 . S
C141 C54 1.491 . S
C165 C120 1.488 . S
C173 C87 1.491 . S
C197 C18 1.537 . S
C205 N112 1.494 . S
C229 N2 1.348 . S
C237 C106 1.425 . S
C261 N101 1.379 . S
C269 C7 1.434 . S
C293 N13 1.496 . S
C301 C117 1.537 . S
C325 N68 1.360 . S
C333 C40 1.430 . S
C357 N35 1.396 . S
C365 C73 1.435 . S
C389 C51 1.520 . S
C397 N79 1.487 . S
C421 C84 1.537 . S
C429 N46 1.502 . S
