# Generated by pormake.
# Topology why, (6)-cn, num edge types: 1
# Building blocks:
#     Node 0, Type 0, BuildingBlock: UKALOJ_clean_sbu_0, # of connection points: 6
#     Node 1, Type 0, BuildingBlock: UKALOJ_clean_sbu_0, # of connection points: 6
#     Node 2, Type 0, BuildingBlock: UKALOJ_clean_sbu_0, # of connection points: 6
#     Node 3, Type 0, BuildingBlock: UKALOJ_clean_sbu_0, # of connection points: 6
#     Node 4, Type 0, BuildingBlock: UKALOJ_clean_sbu_0, # of connection points: 6
#     Node 5, Type 0, BuildingBlock: UKALOJ_clean_sbu_0, # of connection points: 6
#     Node 6, Type 0, BuildingBlock: UKALOJ_clean_sbu_0, # of connection points: 6
#     Node 7, Type 0, BuildingBlock: UKALOJ_clean_sbu_0, # of connection points: 6
#     Node 8, Type 0, BuildingBlock: UKALOJ_clean_sbu_0, # of connection points: 6
#     Node 9, Type 0, BuildingBlock: UKALOJ_clean_sbu_0, # of connection points: 6
#     Node 10, Type 0, BuildingBlock: UKALOJ_clean_sbu_0, # of connection points: 6
#     Node 11, Type 0, BuildingBlock: UKALOJ_clean_sbu_0, # of connection points: 6
#     Node 12, Type 0, BuildingBlock: UKALOJ_clean_sbu_0, # of connection points: 6
#     Node 13, Type 0, BuildingBlock: UKALOJ_clean_sbu_0, # of connection points: 6
#     Node 14, Type 0, BuildingBlock: UKALOJ_clean_sbu_0, # of connection points: 6
#     Node 15, Type 0, BuildingBlock: UKALOJ_clean_sbu_0, # of connection points: 6
#     Edge 16, Type (0, 0), BuildingBlock: XUDNAN_clean_linker_2, # of connection points: 2
#     Edge 17, Type (0, 0), BuildingBlock: XUDNAN_clean_linker_2, # of connection points: 2
#     Edge 18, Type (0, 0), BuildingBlock: XUDNAN_clean_linker_2, # of connection points: 2
#     Edge 19, Type (0, 0), BuildingBlock: XUDNAN_clean_linker_2, # of connection points: 2
#     Edge 20, Type (0, 0), BuildingBlock: XUDNAN_clean_linker_2, # of connection points: 2
#     Edge 21, Type (0, 0), BuildingBlock: XUDNAN_clean_linker_2, # of connection points: 2
#     Edge 22, Type (0, 0), BuildingBlock: XUDNAN_clean_linker_2, # of connection points: 2
#     Edge 23, Type (0, 0), BuildingBlock: XUDNAN_clean_linker_2, # of connection points: 2
#     Edge 24, Type (0, 0), BuildingBlock: XUDNAN_clean_linker_2, # of connection points: 2
#     Edge 25, Type (0, 0), BuildingBlock: XUDNAN_clean_linker_2, # of connection points: 2
#     Edge 26, Type (0, 0), BuildingBlock: XUDNAN_clean_linker_2, # of connection points: 2
#     Edge 27, Type (0, 0), BuildingBlock: XUDNAN_clean_linker_2, # of connection points: 2
#     Edge 28, Type (0, 0), BuildingBlock: XUDNAN_clean_linker_2, # of connection points: 2
#     Edge 29, Type (0, 0), BuildingBlock: XUDNAN_clean_linker_2, # of connection points: 2
#     Edge 30, Type (0, 0), BuildingBlock: XUDNAN_clean_linker_2, # of connection points: 2
#     Edge 31, Type (0, 0), BuildingBlock: XUDNAN_clean_linker_2, # of connection points: 2
#     Edge 32, Type (0, 0), BuildingBlock: XUDNAN_clean_linker_2, # of connection points: 2
#     Edge 33, Type (0, 0), BuildingBlock: XUDNAN_clean_linker_2, # of connection points: 2
#     Edge 34, Type (0, 0), BuildingBlock: XUDNAN_clean_linker_2, # of connection points: 2
#     Edge 35, Type (0, 0), BuildingBlock: XUDNAN_clean_linker_2, # of connection points: 2
#     Edge 36, Type (0, 0), BuildingBlock: XUDNAN_clean_linker_2, # of connection points: 2
#     Edge 37, Type (0, 0), BuildingBlock: XUDNAN_clean_linker_2, # of connection points: 2
#     Edge 38, Type (0, 0), BuildingBlock: XUDNAN_clean_linker_2, # of connection points: 2
#     Edge 39, Type (0, 0), BuildingBlock: XUDNAN_clean_linker_2, # of connection points: 2
#     Edge 40, Type (0, 0), BuildingBlock: XUDNAN_clean_linker_2, # of connection points: 2
#     Edge 41, Type (0, 0), BuildingBlock: XUDNAN_clean_linker_2, # of connection points: 2
#     Edge 42, Type (0, 0), BuildingBlock: XUDNAN_clean_linker_2, # of connection points: 2
#     Edge 43, Type (0, 0), BuildingBlock: XUDNAN_clean_linker_2, # of connection points: 2
#     Edge 44, Type (0, 0), BuildingBlock: XUDNAN_clean_linker_2, # of connection points: 2
#     Edge 45, Type (0, 0), BuildingBlock: XUDNAN_clean_linker_2, # of connection points: 2
#     Edge 46, Type (0, 0), BuildingBlock: XUDNAN_clean_linker_2, # of connection points: 2
#     Edge 47, Type (0, 0), BuildingBlock: XUDNAN_clean_linker_2, # of connection points: 2
#     Edge 48, Type (0, 0), BuildingBlock: XUDNAN_clean_linker_2, # of connection points: 2
#     Edge 49, Type (0, 0), BuildingBlock: XUDNAN_clean_linker_2, # of connection points: 2
#     Edge 50, Type (0, 0), BuildingBlock: XUDNAN_clean_linker_2, # of connection points: 2
#     Edge 51, Type (0, 0), BuildingBlock: XUDNAN_clean_linker_2, # of connection points: 2
#     Edge 52, Type (0, 0), BuildingBlock: XUDNAN_clean_linker_2, # of connection points: 2
#     Edge 53, Type (0, 0), BuildingBlock: XUDNAN_clean_linker_2, # of connection points: 2
#     Edge 54, Type (0, 0), BuildingBlock: XUDNAN_clean_linker_2, # of connection points: 2
#     Edge 55, Type (0, 0), BuildingBlock: XUDNAN_clean_linker_2, # of connection points: 2
#     Edge 56, Type (0, 0), BuildingBlock: XUDNAN_clean_linker_2, # of connection points: 2
#     Edge 57, Type (0, 0), BuildingBlock: XUDNAN_clean_linker_2, # of connection points: 2
#     Edge 58, Type (0, 0), BuildingBlock: XUDNAN_clean_linker_2, # of connection points: 2
#     Edge 59, Type (0, 0), BuildingBlock: XUDNAN_clean_linker_2, # of connection points: 2
#     Edge 60, Type (0, 0), BuildingBlock: XUDNAN_clean_linker_2, # of connection points: 2
#     Edge 61, Type (0, 0), BuildingBlock: XUDNAN_clean_linker_2, # of connection points: 2
#     Edge 62, Type (0, 0), BuildingBlock: XUDNAN_clean_linker_2, # of connection points: 2
#     Edge 63, Type (0, 0), BuildingBlock: XUDNAN_clean_linker_2, # of connection points: 2
# Relax obj value: 0.393
# Max RMSD: 0.164
# Mean RMSD: 0.164
data_MOF--net-why--node1-UKALOJ_clean_sbu_0--edge1-XUDNAN_clean_linker_2
_symmetry_space_group_name_H-M    P1
_symmetry_Int_Tables_number       1
_symmetry_cell_setting            triclinic
loop_
_symmetry_equiv_pos_as_xyz
'x, y, z'
_cell_length_a     51.90536
_cell_length_b     51.983661
_cell_length_c     26.738645
_cell_angle_alpha  89.94881
_cell_angle_beta   89.927715
_cell_angle_gamma 90.067823
loop_
_atom_site_label
_atom_site_type_symbol
_atom_site_fract_x
_atom_site_fract_y
_atom_site_fract_z
_atom_type_partial_charge
Zn0 Zn 0.32734 0.19717 0.02585 0.0
O1 O 0.32382 0.16014 0.0615 0.0
C2 C 0.30835 0.22308 0.12107 0.0
Zn3 Zn 0.35898 0.20529 0.07926 0.0
C4 C 0.33776 0.15381 0.09858 0.0
O5 O 0.35375 0.17001 0.11565 0.0
C6 C 0.35148 0.24795 1.00339 0.0
O7 O 0.38571 0.18688 0.02695 0.0
O8 O 0.35356 0.18059 0.97532 0.0
N9 N 0.3886 0.21502 0.125 0.0
C10 C 0.40728 0.20121 0.14734 0.0
C11 C 0.41515 0.2408 0.16109 0.0
N12 N 0.3934 0.23959 0.13398 0.0
N13 N 0.42428 0.21698 0.17009 0.0
C14 C 0.27644 0.17326 0.98532 0.0
C15 C 0.28036 0.17931 0.90684 0.0
N16 N 0.29787 0.18758 0.97823 0.0
N17 N 0.30011 0.19149 0.92945 0.0
N18 N 0.2652 0.1678 0.94111 0.0
H19 H 0.27429 0.14182 0.03669 0.0
H20 H 0.24682 0.16262 0.03794 0.0
H21 H 0.27653 0.17295 0.06628 0.0
C22 C 0.2681 0.16222 0.03458 0.0
C23 C 0.4069 0.17249 0.15187 0.0
H24 H 0.3903 0.16726 0.17563 0.0
H25 H 0.42406 0.16459 0.17088 0.0
H26 H 0.40447 0.16352 0.11453 0.0
O27 O 0.3643 0.24082 0.04136 0.0
O28 O 0.33308 0.23381 0.98784 0.0
C29 C 0.37737 0.1783 0.9853 0.0
O30 O 0.30096 0.21411 0.07903 0.0
O31 O 0.3323 0.22282 0.1312 0.0
Zn32 Zn 0.55379 0.61459 0.32984 0.0
O33 O 0.57218 0.63898 0.27777 0.0
C34 C 0.51052 0.60353 0.25921 0.0
Zn35 Zn 0.5606 0.57875 0.2879 0.0
C36 C 0.58021 0.62848 0.23784 0.0
O37 O 0.57701 0.60434 0.23195 0.0
C38 C 0.53465 0.56551 0.38284 0.0
O39 O 0.59811 0.57638 0.32154 0.0
O40 O 0.58894 0.61026 0.36677 0.0
N41 N 0.56918 0.54839 0.2425 0.0
C42 C 0.58383 0.52731 0.24981 0.0
C43 C 0.57541 0.52934 0.17189 0.0
N44 N 0.56379 0.54947 0.19413 0.0
N45 N 0.58803 0.51513 0.20608 0.0
C46 C 0.55721 0.6657 0.38924 0.0
C47 C 0.52226 0.66357 0.43108 0.0
N48 N 0.54483 0.6441 0.3753 0.0
N49 N 0.5232 0.64278 0.40141 0.0
N50 N 0.54343 0.67821 0.42453 0.0
H51 H 0.59508 0.65701 0.3601 0.0
H52 H 0.59346 0.68573 0.39779 0.0
H53 H 0.58044 0.68531 0.33521 0.0
C54 C 0.58311 0.67383 0.36982 0.0
C55 C 0.59628 0.52023 0.29846 0.0
H56 H 0.61643 0.52738 0.29849 0.0
H57 H 0.59688 0.49905 0.30307 0.0
H58 H 0.58581 0.52873 0.33051 0.0
O59 O 0.54421 0.55359 0.34556 0.0
O60 O 0.53566 0.58993 0.38299 0.0
C61 C 0.60473 0.59293 0.35396 0.0
O62 O 0.51875 0.62002 0.29039 0.0
O63 O 0.52326 0.58285 0.25253 0.0
Zn64 Zn 0.14787 0.80068 0.58105 0.0
O65 O 0.12281 0.82249 0.53556 0.0
C66 C 0.15455 0.76138 0.50211 0.0
Zn67 Zn 0.18184 0.81025 0.53479 0.0
C68 C 0.13143 0.8326 0.4957 0.0
O69 O 0.15517 0.82994 0.4847 0.0
C70 C 0.19738 0.7793 0.62445 0.0
O71 O 0.18693 0.84567 0.57318 0.0
O72 O 0.15514 0.83431 0.62205 0.0
N73 N 0.21117 0.81955 0.48668 0.0
C74 C 0.23293 0.83341 0.49291 0.0
C75 C 0.22773 0.82815 0.41452 0.0
N76 N 0.20814 0.81612 0.43796 0.0
N77 N 0.24357 0.83913 0.44816 0.0
C78 C 0.09412 0.79356 0.63023 0.0
C79 C 0.10493 0.78665 0.70611 0.0
N80 N 0.11998 0.79288 0.63174 0.0
N81 N 0.12664 0.78856 0.67886 0.0
N82 N 0.08435 0.79005 0.67644 0.0
H83 H 0.07552 0.81702 0.57546 0.0
H84 H 0.05944 0.78695 0.5876 0.0
H85 H 0.08886 0.78749 0.55131 0.0
C86 C 0.07856 0.79629 0.58337 0.0
C87 C 0.24221 0.84363 0.5421 0.0
H88 H 0.23639 0.86407 0.54561 0.0
H89 H 0.26351 0.84285 0.54418 0.0
H90 H 0.23405 0.8325 0.57369 0.0
O91 O 0.20839 0.79062 0.58777 0.0
O92 O 0.17302 0.77997 0.62691 0.0
C93 C 0.17194 0.85078 0.60933 0.0
O94 O 0.13961 0.76699 0.53828 0.0
O95 O 0.1745 0.77522 0.49434 0.0
Zn96 Zn 0.9579 0.39674 0.83346 0.0
O97 O 0.93599 0.37243 0.78555 0.0
C98 C 0.99728 0.40608 0.7571 0.0
Zn99 Zn 0.94712 0.43204 0.79337 0.0
C100 C 0.92597 0.38279 0.74704 0.0
O101 O 0.92853 0.40698 0.74041 0.0
C102 C 0.97874 0.4451 0.88254 0.0
O103 O 0.91093 0.43531 0.83411 0.0
O104 O 0.92538 0.40265 0.87674 0.0
N105 N 0.93804 0.46402 0.7512 0.0
C106 C 0.91505 0.47445 0.73913 0.0
C107 C 0.94404 0.50043 0.71395 0.0
N108 N 0.95602 0.48015 0.73515 0.0
N109 N 0.91829 0.49738 0.71617 0.0
C110 C 0.9701 0.34334 0.88087 0.0
C111 C 0.96982 0.35457 0.95777 0.0
N112 N 0.96563 0.36873 0.88248 0.0
N113 N 0.96539 0.3756 0.93018 0.0
N114 N 0.97265 0.33403 0.92784 0.0
H115 H 0.97865 0.34111 0.80207 0.0
H116 H 0.95427 0.31931 0.82384 0.0
H117 H 0.98761 0.3129 0.83792 0.0
C118 C 0.97302 0.32831 0.83341 0.0
C119 C 0.88947 0.46168 0.7474 0.0
H120 H 0.89138 0.44048 0.74568 0.0
H121 H 0.87536 0.46808 0.71883 0.0
H122 H 0.88192 0.46707 0.78476 0.0
O123 O 0.96578 0.4568 0.84912 0.0
O124 O 0.97949 0.42077 0.88122 0.0
C125 C 0.908 0.41911 0.86923 0.0
O126 O 0.99067 0.38956 0.78972 0.0
O127 O 0.98388 0.42664 0.75224 0.0
Zn128 Zn 0.64704 0.80522 0.95197 0.0
O129 O 0.62157 0.82439 1.00264 0.0
C130 C 0.65453 0.76202 0.02119 0.0
Zn131 Zn 0.68167 0.81269 0.99743 0.0
C132 C 0.63146 0.83336 0.04253 0.0
O133 O 0.65559 0.83062 0.04973 0.0
C134 C 0.69612 0.78519 0.90401 0.0
O135 O 0.6874 0.84997 0.96263 0.0
O136 O 0.65402 0.83981 0.91691 0.0
N137 N 0.71134 0.81961 0.04585 0.0
C138 C 0.73353 0.83289 0.04062 0.0
C139 C 0.72906 0.82447 0.11817 0.0
N140 N 0.70875 0.81419 0.09401 0.0
N141 N 0.74494 0.83619 0.08544 0.0
C142 C 0.59654 0.78779 0.9008 0.0
C143 C 0.60422 0.79958 0.82567 0.0
N144 N 0.61957 0.7995 0.90049 0.0
N145 N 0.62433 0.8068 0.8539 0.0
N146 N 0.58664 0.7874 0.85408 0.0
H147 H 0.59063 0.78832 0.9807 0.0
H148 H 0.56235 0.78025 0.94456 0.0
H149 H 0.5881 0.75729 0.95202 0.0
C150 C 0.58356 0.77799 0.94722 0.0
C151 C 0.74264 0.84488 0.99278 0.0
H152 H 0.73643 0.8653 0.99179 0.0
H153 H 0.76397 0.84454 0.9906 0.0
H154 H 0.73459 0.83474 0.95994 0.0
O155 O 0.70754 0.7945 0.94217 0.0
O156 O 0.67182 0.78693 0.90175 0.0
C157 C 0.67172 0.85547 0.92781 0.0
O158 O 0.6397 0.76986 0.98672 0.0
O159 O 0.67406 0.77557 0.03344 0.0
Zn160 Zn 0.46336 0.40269 0.70731 0.0
O161 O 0.44726 0.37309 0.75659 0.0
C162 C 0.50211 0.41578 0.78539 0.0
Zn163 Zn 0.44902 0.43422 0.75544 0.0
C164 C 0.43543 0.38115 0.79542 0.0
O165 O 0.43401 0.40526 0.80303 0.0
C166 C 0.4754 0.45641 0.66643 0.0
O167 O 0.41312 0.43431 0.716 0.0
O168 O 0.42819 0.40299 0.66973 0.0
N169 N 0.4353 0.46139 0.8041 0.0
C170 C 0.41961 0.48182 0.79762 0.0
C171 C 0.42557 0.47746 0.87607 0.0
N172 N 0.43907 0.45884 0.85284 0.0
N173 N 0.41323 0.49213 0.84225 0.0
C174 C 0.49339 0.35783 0.65854 0.0
C175 C 0.48321 0.36269 0.58177 0.0
N176 N 0.47624 0.37711 0.65622 0.0
N177 N 0.46992 0.38012 0.60856 0.0
N178 N 0.49838 0.34879 0.61223 0.0
H179 H 0.49146 0.35183 0.73841 0.0
H180 H 0.50585 0.32576 0.7034 0.0
H181 H 0.5234 0.35512 0.71285 0.0
C182 C 0.50397 0.34697 0.70621 0.0
C183 C 0.40833 0.48983 0.74842 0.0
H184 H 0.38878 0.48136 0.74485 0.0
H185 H 0.40636 0.51101 0.74622 0.0
H186 H 0.42032 0.48315 0.71677 0.0
O187 O 0.46413 0.46315 0.70663 0.0
O188 O 0.47822 0.43251 0.65782 0.0
C189 C 0.40982 0.41779 0.68163 0.0
O190 O 0.49884 0.40142 0.74744 0.0
O191 O 0.48479 0.43227 0.7962 0.0
Zn192 Zn 0.85859 0.21234 0.44871 0.0
O193 O 0.88987 0.19411 0.48868 0.0
C194 C 0.85064 0.25033 0.52969 0.0
Zn195 Zn 0.83208 0.19678 0.50552 0.0
C196 C 0.88628 0.18346 0.5311 0.0
O197 O 0.86367 0.18288 0.54941 0.0
C198 C 0.80492 0.22424 0.41942 0.0
O199 O 0.83188 0.16015 0.46699 0.0
O200 O 0.8543 0.17881 0.40796 0.0
N201 N 0.80698 0.1826 0.55793 0.0
C202 C 0.7845 0.1697 0.55368 0.0
C203 C 0.79441 0.17016 0.63101 0.0
N204 N 0.81302 0.18292 0.60603 0.0
N205 N 0.77623 0.16171 0.59906 0.0
C206 C 0.90392 0.23804 0.39215 0.0
C207 C 0.8924 0.23154 0.31655 0.0
N208 N 0.88147 0.22523 0.39337 0.0
N209 N 0.87424 0.22138 0.34647 0.0
N210 N 0.91109 0.24239 0.34425 0.0
H211 H 0.93995 0.24074 0.43186 0.0
H212 H 0.91711 0.26587 0.4452 0.0
H213 H 0.9123 0.23457 0.47122 0.0
C214 C 0.91922 0.24499 0.43778 0.0
C215 C 0.77151 0.16362 0.505 0.0
H216 H 0.78502 0.16477 0.47316 0.0
H217 H 0.76278 0.14413 0.50622 0.0
H218 H 0.7559 0.17779 0.4985 0.0
O219 O 0.80019 0.21098 0.45862 0.0
O220 O 0.82815 0.22905 0.4086 0.0
C221 C 0.84316 0.15897 0.42483 0.0
O222 O 0.86325 0.24652 0.48967 0.0
O223 O 0.83482 0.23323 0.54509 0.0
Zn224 Zn 0.04025 0.60388 0.20817 0.0
O225 O 0.05602 0.63522 0.25101 0.0
C226 C 0.00761 0.58964 0.29499 0.0
Zn227 Zn 0.06079 0.57698 0.25783 0.0
C228 C 0.06977 0.63116 0.28967 0.0
O229 O 0.0742 0.60814 0.30325 0.0
C230 C 0.03275 0.55025 0.17276 0.0
O231 O 0.09481 0.58141 0.21295 0.0
O232 O 0.07232 0.60533 0.16156 0.0
N233 N 0.07884 0.5514 0.30406 0.0
C234 C 0.09672 0.5331 0.29554 0.0
C235 C 0.08633 0.53076 0.37258 0.0
N236 N 0.07251 0.54996 0.352 0.0
N237 N 0.10186 0.52012 0.338 0.0
C238 C 0.02696 0.64875 0.13632 0.0
C239 C 0.98802 0.63947 0.11843 0.0
N240 N 0.02081 0.62721 0.16149 0.0
N241 N 0.99674 0.62129 0.14985 0.0
N242 N 0.00674 0.65671 0.10869 0.0
H243 H 0.06488 0.65394 0.16905 0.0
H244 H 0.06225 0.66231 0.10426 0.0
H245 H 0.04864 0.68318 0.15065 0.0
C246 C 0.05215 0.66274 0.14081 0.0
C247 C 0.10825 0.52715 0.24546 0.0
H248 H 0.09438 0.53122 0.21505 0.0
H249 H 0.12549 0.53946 0.23983 0.0
H250 H 0.11439 0.50674 0.24335 0.0
O251 O 0.04742 0.54561 0.20993 0.0
O252 O 0.02559 0.5732 0.16531 0.0
C253 C 0.0936 0.59513 0.17358 0.0
O254 O 0.00796 0.60328 0.25567 0.0
O255 O 0.02671 0.57499 0.30414 0.0
Zn256 Zn 0.83045 0.69664 0.53519 0.0
O257 O 0.82531 0.66046 0.5727 0.0
C258 C 0.80703 0.72447 0.62607 0.0
Zn259 Zn 0.8582 0.70665 0.59507 0.0
C260 C 0.83708 0.65519 0.61304 0.0
O261 O 0.85165 0.67189 0.63266 0.0
C262 C 0.85467 0.74768 0.51457 0.0
O263 O 0.88645 0.68713 0.55095 0.0
O264 O 0.85922 0.67889 0.48993 0.0
N265 N 0.88416 0.71596 0.64835 0.0
C266 C 0.9048 0.73152 0.64705 0.0
C267 C 0.89883 0.72081 0.72331 0.0
N268 N 0.88047 0.70923 0.69569 0.0
N269 N 0.914 0.73514 0.69353 0.0
C270 C 0.79146 0.66482 0.47112 0.0
C271 C 0.76499 0.69398 0.44939 0.0
N272 N 0.80124 0.68758 0.48644 0.0
N273 N 0.78482 0.70565 0.47252 0.0
N274 N 0.76838 0.66825 0.44834 0.0
H275 H 0.82649 0.64277 0.47651 0.0
H276 H 0.80036 0.62664 0.4448 0.0
H277 H 0.79989 0.63033 0.5119 0.0
C278 C 0.80538 0.63969 0.47614 0.0
C279 C 0.91665 0.74227 0.60029 0.0
H280 H 0.93781 0.74426 0.60466 0.0
H281 H 0.90857 0.76166 0.59301 0.0
H282 H 0.91256 0.7297 0.56779 0.0
O283 O 0.86509 0.74178 0.55601 0.0
O284 O 0.83782 0.73261 0.49604 0.0
C285 C 0.8817 0.67693 0.50859 0.0
O286 O 0.80152 0.71438 0.58392 0.0
O287 O 0.83035 0.72482 0.6398 0.0
Zn288 Zn 0.05364 0.10625 0.82961 0.0
O289 O 0.07437 0.13391 0.78802 0.0
C290 C 0.01526 0.09937 0.74842 0.0
Zn291 Zn 0.06492 0.07391 0.78169 0.0
C292 C 0.08524 0.12663 0.74787 0.0
O293 O 0.08378 0.10304 0.73495 0.0
C294 C 0.03334 0.05505 0.86784 0.0
O295 O 0.1004 0.06968 0.82087 0.0
O296 O 0.08746 0.09996 0.87134 0.0
N297 N 0.07622 0.0462 0.73217 0.0
C298 C 0.08969 0.02426 0.73868 0.0
C299 C 0.08669 0.03071 0.66013 0.0
N300 N 0.07423 0.05004 0.68335 0.0
N301 N 0.0965 0.01427 0.69405 0.0
C302 C 0.03089 0.15369 0.88348 0.0
C303 C 0.0383 0.14312 0.95937 0.0
N304 N 0.04342 0.13117 0.88291 0.0
N305 N 0.04795 0.12459 0.92995 0.0
N306 N 0.02722 0.16144 0.93119 0.0
H307 H 0.02583 0.18937 0.84333 0.0
H308 H 1.00317 0.16428 0.82805 0.0
H309 H 0.03556 0.16244 0.80503 0.0
C310 C 0.02359 0.16837 0.83731 0.0
C311 C 0.09868 0.01422 0.78827 0.0
H312 H 0.11953 0.01841 0.79248 0.0
H313 H 0.09619 0.99308 0.79026 0.0
H314 H 0.08801 0.02305 0.81964 0.0
O315 O 0.04567 0.0451 0.83134 0.0
O316 O 0.03352 0.07926 0.87218 0.0
C317 C 0.1048 0.08432 0.85783 0.0
O318 O 0.01988 0.11373 0.7859 0.0
O319 O 0.03002 0.08023 0.74003 0.0
Zn320 Zn 0.64661 0.30298 0.09259 0.0
O321 O 0.62123 0.32226 0.04369 0.0
C322 C 0.65678 0.26208 1.01512 0.0
Zn323 Zn 0.68021 0.31238 0.04426 0.0
C324 C 0.62957 0.33268 1.00371 0.0
O325 O 0.65347 0.33096 0.99266 0.0
C326 C 0.69557 0.2833 0.13799 0.0
O327 O 0.68224 0.34828 0.08363 0.0
O328 O 0.65031 0.3372 0.13238 0.0
N329 N 0.71158 0.32304 1.00055 0.0
C330 C 0.73291 0.33666 1.01253 0.0
C331 C 0.73542 0.32777 0.93488 0.0
N332 N 0.71325 0.31752 0.95231 0.0
N333 N 0.74822 0.33986 0.9719 0.0
C334 C 0.59932 0.27534 0.1372 0.0
C335 C 0.60233 0.28596 0.21409 0.0
N336 N 0.61835 0.29274 0.14073 0.0
N337 N 0.62015 0.29942 0.18843 0.0
N338 N 0.58936 0.27039 0.18285 0.0
H339 H 0.59341 0.27805 0.05761 0.0
H340 H 0.56855 0.26072 0.0911 0.0
H341 H 0.59948 0.24607 0.08083 0.0
C342 C 0.58956 0.26451 0.08882 0.0
C343 C 0.73681 0.34938 0.06242 0.0
H344 H 0.72608 0.36777 0.06258 0.0
H345 H 0.75703 0.35425 0.07056 0.0
H346 H 0.7294 0.33702 0.09296 0.0
O347 O 0.70631 0.29351 0.09978 0.0
O348 O 0.67133 0.2846 0.14173 0.0
C349 C 0.66679 0.35377 0.11893 0.0
O350 O 0.64258 0.26845 0.05174 0.0
O351 O 0.6756 0.27658 1.00275 0.0
Zn352 Zn 0.4568 0.89931 0.33053 0.0
O353 O 0.44038 0.87184 0.27995 0.0
C354 C 0.49849 0.91034 0.25824 0.0
Zn355 Zn 0.44666 0.93359 0.28557 0.0
C356 C 0.42861 0.88131 0.24247 0.0
O357 O 0.42847 0.90567 0.23645 0.0
C358 C 0.47379 0.95082 0.37721 0.0
O359 O 0.41041 0.93648 0.3239 0.0
O360 O 0.42102 0.90201 0.36597 0.0
N361 N 0.43607 0.9622 0.23668 0.0
C362 C 0.42053 0.98288 0.24154 0.0
C363 C 0.42927 0.9789 0.16402 0.0
N364 N 0.44163 0.95995 0.18855 0.0
N365 N 0.41586 0.99359 0.19633 0.0
C366 C 0.48234 0.85216 0.38116 0.0
C367 C 0.47414 0.86044 0.45768 0.0
N368 N 0.46697 0.87293 0.38223 0.0
N369 N 0.46183 0.87798 0.4297 0.0
N370 N 0.48754 0.84415 0.42839 0.0
H371 H 0.47791 0.84443 0.30235 0.0
H372 H 0.49136 0.81827 0.33794 0.0
H373 H 0.51049 0.84648 0.32359 0.0
C374 C 0.49094 0.8395 0.33361 0.0
C375 C 0.4079 0.9907 0.28962 0.0
H376 H 0.38843 0.98193 0.29151 0.0
H377 H 0.40554 0.01179 0.29201 0.0
H378 H 0.41938 0.98417 0.32212 0.0
O379 O 0.4646 0.96151 0.33812 0.0
O380 O 0.47246 0.92651 0.38039 0.0
C381 C 0.40464 0.91928 0.35585 0.0
O382 O 0.49265 0.89591 0.29479 0.0
O383 O 0.48309 0.92829 0.24537 0.0
Zn384 Zn 0.1493 0.29949 0.45662 0.0
O385 O 0.12261 0.31619 0.50751 0.0
C386 C 0.16092 0.25957 0.52952 0.0
Zn387 Zn 0.18444 0.31159 0.49641 0.0
C388 C 0.13241 0.3295 0.54256 0.0
O389 O 0.15693 0.33078 0.54638 0.0
C390 C 0.20026 0.28281 0.40641 0.0
O391 O 0.18787 0.34702 0.45691 0.0
O392 O 0.152 0.33537 0.42081 0.0
N393 N 0.21393 0.32172 0.54336 0.0
C394 C 0.23405 0.33789 0.53744 0.0
C395 C 0.23528 0.32412 0.61252 0.0
N396 N 0.21479 0.31314 0.59003 0.0
N397 N 0.24752 0.33981 0.58027 0.0
C398 C 0.09705 0.28529 0.40664 0.0
C399 C 0.10865 0.28654 0.32995 0.0
N400 N 0.12229 0.29088 0.4056 0.0
N401 N 0.12941 0.29168 0.35802 0.0
N402 N 0.08809 0.28261 0.35953 0.0
H403 H 0.09442 0.27423 0.48408 0.0
H404 H 0.07356 0.3001 0.4656 0.0
H405 H 0.06581 0.26759 0.44749 0.0
C406 C 0.08181 0.2814 0.45367 0.0
C407 C 0.24129 0.3509 0.48942 0.0
H408 H 0.2361 0.3387 0.45698 0.0
H409 H 0.23088 0.36948 0.48668 0.0
H410 H 0.26227 0.35502 0.4883 0.0
O411 O 0.2116 0.29315 0.44358 0.0
O412 O 0.17586 0.28319 0.40565 0.0
C413 C 0.16948 0.35204 0.42734 0.0
O414 O 0.14536 0.26379 0.49377 0.0
O415 O 0.17902 0.27574 0.53766 0.0
Zn416 Zn 0.96078 0.89893 0.20286 0.0
O417 O 0.94367 0.87143 0.25554 0.0
C418 C 1.00177 0.91183 0.27693 0.0
Zn419 Zn 0.94868 0.93115 0.2513 0.0
C420 C 0.93451 0.87999 0.29666 0.0
O421 O 0.93508 0.90413 0.30481 0.0
C422 C 0.97352 0.95061 0.15661 0.0
O423 O 0.9116 0.93005 0.21716 0.0
O424 O 0.9251 0.90044 0.16552 0.0
N425 N 0.93771 0.96141 0.29652 0.0
C426 C 0.92257 0.98186 0.28646 0.0
C427 C 0.93618 0.98626 0.36116 0.0
N428 N 0.94615 0.96419 0.34295 0.0
N429 N 0.92139 0.99778 0.32637 0.0
C430 C 0.97747 0.84683 0.15632 0.0
C431 C 0.97984 0.8575 0.07926 0.0
N432 N 0.97151 0.87188 0.1532 0.0
N433 N 0.97305 0.87848 0.10539 0.0
N434 N 0.98268 0.83742 0.11039 0.0
H435 H 0.98596 0.84493 0.23497 0.0
H436 H 0.95995 0.82466 0.2145 0.0
H437 H 0.99274 0.81565 0.20073 0.0
C438 C 0.97931 0.83213 0.20442 0.0
C439 C 0.90663 0.98438 0.23985 0.0
H440 H 0.88987 0.97135 0.24338 0.0
H441 H 0.89866 1.00379 0.23392 0.0
H442 H 0.91792 0.97874 0.20647 0.0
O443 O 0.96219 0.95824 0.19611 0.0
O444 O 0.97687 0.92663 0.15077 0.0
C445 C 0.90709 0.91476 0.18121 0.0
O446 O 0.99654 0.89621 0.24175 0.0
O447 O 0.98586 0.92983 0.28682 0.0
Zn448 Zn 0.3246 0.69639 1.00538 0.0
O449 O 0.3215 0.65936 0.9712 0.0
C450 C 0.30457 0.72315 0.91245 0.0
Zn451 Zn 0.3561 0.70678 0.95349 0.0
C452 C 0.33579 0.65408 0.93409 0.0
O453 O 0.35097 0.6712 0.91771 0.0
C454 C 0.3486 0.74833 0.02838 0.0
O455 O 0.38359 0.68871 1.00305 0.0
O456 O 0.35195 0.67957 0.05501 0.0
N457 N 0.38252 0.71419 0.90066 0.0
C458 C 0.40755 0.72063 0.90067 0.0
C459 C 0.39556 0.71795 0.82439 0.0
N460 N 0.37515 0.71242 0.85335 0.0
N461 N 0.41614 0.72293 0.85321 0.0
C462 C 0.27125 0.67751 0.04265 0.0
C463 C 0.27404 0.68047 0.12194 0.0
N464 N 0.29488 0.68697 0.05304 0.0
N465 N 0.29658 0.68875 0.10237 0.0
N466 N 0.25776 0.67349 0.08515 0.0
H467 H 0.25096 0.65221 0.99246 0.0
H468 H 0.24853 0.68579 0.97798 0.0
H469 H 0.27741 0.66902 0.96363 0.0
C470 C 0.26178 0.67062 0.99127 0.0
C471 C 0.42297 0.72585 0.94696 0.0
H472 H 0.41026 0.73112 0.97863 0.0
H473 H 0.43369 0.7082 0.9574 0.0
H474 H 0.4371 0.74152 0.94028 0.0
O475 O 0.36252 0.74224 0.99103 0.0
O476 O 0.33008 0.73357 0.04148 0.0
C477 C 0.37579 0.67861 0.04383 0.0
O478 O 0.29732 0.71283 0.95329 0.0
O479 O 0.32853 0.72435 0.90347 0.0
Zn480 Zn 0.55545 0.11147 0.69993 0.0
O481 O 0.57303 0.13713 0.75569 0.0
C482 C 0.51235 0.10059 0.77453 0.0
Zn483 Zn 0.56378 0.07948 0.75266 0.0
C484 C 0.58119 0.12852 0.79754 0.0
O485 O 0.57911 0.10459 0.80665 0.0
C486 C 0.53872 0.06184 0.65424 0.0
O487 O 0.6012 0.07878 0.7188 0.0
O488 O 0.59137 0.10835 0.66406 0.0
N489 N 0.57396 0.04816 0.79551 0.0
C490 C 0.58612 0.02619 0.78249 0.0
C491 C 0.58222 0.02603 0.86177 0.0
N492 N 0.57146 0.04794 0.84475 0.0
N493 N 0.59162 0.01187 0.82359 0.0
C494 C 0.55835 0.16085 0.63351 0.0
C495 C 0.51862 0.17073 0.6289 0.0
N496 N 0.54497 0.14232 0.65746 0.0
N497 N 0.52027 0.14838 0.65402 0.0
N498 N 0.54226 0.17899 0.61558 0.0
H499 H 0.59013 0.14246 0.59924 0.0
H500 H 0.59374 0.17634 0.60133 0.0
H501 H 0.59756 0.15768 0.65832 0.0
C502 C 0.58663 0.15958 0.62286 0.0
C503 C 0.59349 0.01945 0.72971 0.0
H504 H 0.61354 0.01213 0.72827 0.0
H505 H 0.5802 0.00444 0.71558 0.0
H506 H 0.5917 0.03572 0.7037 0.0
O507 O 0.54778 0.05437 0.69613 0.0
O508 O 0.53865 0.08583 0.64472 0.0
C509 C 0.6078 0.09299 0.68236 0.0
O510 O 0.51944 0.11443 0.73782 0.0
O511 O 0.52694 0.08249 0.78955 0.0
H512 H 0.44839 0.24281 0.2427 0.0
H513 H 0.4585 0.18235 0.13357 0.0
H514 H 0.50429 0.18029 0.15286 0.0
H515 H 0.49303 0.27735 0.1975 0.0
H516 H 0.50614 0.2915 0.25355 0.0
H517 H 0.47365 0.28006 0.25331 0.0
H518 H 0.48335 0.25042 0.32883 0.0
H519 H 0.5161 0.26207 0.3297 0.0
H520 H 0.50979 0.22804 0.32572 0.0
H521 H 0.54849 0.19267 0.16176 0.0
H522 H 0.58622 0.221 0.15227 0.0
H523 H 0.54964 0.27842 0.24505 0.0
C524 C 0.46021 0.22818 0.22534 0.0
C525 C 0.44956 0.21165 0.18911 0.0
C526 C 0.46564 0.19377 0.16437 0.0
C527 C 0.49195 0.1927 0.17479 0.0
C528 C 0.5022 0.21029 0.20862 0.0
C529 C 0.48678 0.22787 0.23359 0.0
C530 C 0.50275 0.24934 0.25616 0.0
C531 C 0.49334 0.2761 0.23901 0.0
C532 C 0.50302 0.24733 0.3135 0.0
C533 C 0.52889 0.24283 0.2346 0.0
C534 C 0.52846 0.21936 0.21016 0.0
C535 C 0.54919 0.21081 0.18151 0.0
C536 C 0.5703 0.22717 0.17547 0.0
C537 C 0.57011 0.25202 0.1967 0.0
C538 C 0.54993 0.25936 0.2288 0.0
H539 H 0.56161 0.72083 0.37827 0.0
H540 H 0.53024 0.6923 0.5176 0.0
H541 H 0.52238 0.73675 0.54518 0.0
H542 H 0.58833 0.7864 0.43616 0.0
H543 H 0.58047 0.80222 0.37814 0.0
H544 H 0.59231 0.76961 0.3777 0.0
H545 H 0.5523 0.75598 0.32679 0.0
H546 H 0.53971 0.78799 0.32851 0.0
H547 H 0.52057 0.76169 0.35216 0.0
H548 H 0.50345 0.77943 0.54239 0.0
H549 H 0.4808 0.81846 0.5151 0.0
H550 H 0.53037 0.82286 0.38474 0.0
C551 C 0.55509 0.72395 0.4161 0.0
C552 C 0.54688 0.70321 0.44612 0.0
C553 C 0.53679 0.70806 0.49431 0.0
C554 C 0.53243 0.73324 0.51036 0.0
C555 C 0.53896 0.75334 0.47828 0.0
C556 C 0.5511 0.74907 0.43288 0.0
C557 C 0.55221 0.77341 0.40181 0.0
C558 C 0.57998 0.78351 0.39828 0.0
C559 C 0.54048 0.7695 0.34931 0.0
C560 C 0.53579 0.79089 0.43374 0.0
C561 C 0.52886 0.77919 0.47823 0.0
C562 C 0.50962 0.7893 0.50879 0.0
C563 C 0.49667 0.81138 0.49273 0.0
C564 C 0.50302 0.8232 0.44659 0.0
C565 C 0.524 0.81368 0.4187 0.0
H566 H 0.06028 0.75281 0.72734 0.0
H567 H 0.04975 0.82747 0.65921 0.0
H568 H 1.00302 0.82534 0.67711 0.0
H569 H 0.01018 0.72472 0.67343 0.0
H570 H 1.00029 0.70454 0.72487 0.0
H571 H 0.03311 0.71507 0.72046 0.0
H572 H 0.03005 0.73485 0.80926 0.0
H573 H 0.99701 0.72431 0.81392 0.0
H574 H 0.00497 0.75772 0.82319 0.0
H575 H 0.95823 0.81143 0.68452 0.0
H576 H 0.91827 0.78584 0.67705 0.0
H577 H 0.9569 0.71977 0.73995 0.0
C578 C 0.04807 0.769 0.71818 0.0
C579 C 0.05809 0.79025 0.6921 0.0
C580 C 0.04198 0.81102 0.67903 0.0
C581 C 0.01562 0.81008 0.68965 0.0
C582 C 0.00593 0.7883 0.71369 0.0
C583 C 0.02169 0.76814 0.72807 0.0
C584 C 0.00612 0.7451 0.74495 0.0
C585 C 0.01282 0.72097 0.71405 0.0
C586 C 0.00975 0.74022 0.80118 0.0
C587 C 0.97924 0.75468 0.73393 0.0
C588 C 0.97951 0.77999 0.71768 0.0
C589 C 0.9576 0.79191 0.69859 0.0
C590 C 0.93511 0.77731 0.69418 0.0
C591 C 0.93493 0.75116 0.70833 0.0
C592 C 0.95678 0.74001 0.73036 0.0
H593 H 0.95281 0.2893 0.89309 0.0
H594 H 0.00525 0.32197 1.00181 0.0
H595 H 0.0181 0.27838 0.02828 0.0
H596 H 0.93647 0.22866 0.96563 0.0
H597 H 0.9363 0.20976 0.90913 0.0
H598 H 0.92643 0.24301 0.90743 0.0
H599 H 0.9603 0.25217 0.83822 0.0
H600 H 0.97019 0.21911 0.83972 0.0
H601 H 0.99361 0.24424 0.84946 0.0
H602 H 0.03175 0.2335 0.03029 0.0
H603 H 0.04601 0.18998 1.00638 0.0
H604 H 0.9842 0.18534 0.89807 0.0
C605 C 0.96684 0.28715 0.92265 0.0
C606 C 0.97852 0.3087 0.94485 0.0
C607 C 0.99625 0.30544 0.98442 0.0
C608 C 1.00347 0.28086 0.99989 0.0
C609 C 0.99238 0.25988 0.97587 0.0
C610 C 0.97428 0.26272 0.93831 0.0
C611 C 0.96807 0.23733 0.9137 0.0
C612 C 0.94016 0.22921 0.92466 0.0
C613 C 0.97338 0.23829 0.85696 0.0
C614 C 0.98701 0.22021 0.94062 0.0
C615 C 1.00028 0.23343 0.97734 0.0
C616 C 0.02107 0.22268 1.00265 0.0
C617 C 0.02908 0.19808 0.98878 0.0
C618 C 0.01649 0.18484 0.94967 0.0
C619 C 0.99446 0.19547 0.92719 0.0
H620 H 0.5643 0.74247 0.88161 0.0
H621 H 0.55544 0.8092 0.78609 0.0
H622 H 0.51204 0.79421 0.76179 0.0
H623 H 0.52334 0.69644 0.80765 0.0
H624 H 0.51009 0.68263 0.86398 0.0
H625 H 0.54263 0.69485 0.86359 0.0
H626 H 0.53168 0.72441 0.93877 0.0
H627 H 0.49923 0.71241 0.93928 0.0
H628 H 0.50503 0.74649 0.93383 0.0
H629 H 0.46781 0.77686 0.76028 0.0
H630 H 0.42524 0.75906 0.78371 0.0
H631 H 0.46214 0.70476 0.88321 0.0
C632 C 0.55323 0.75383 0.85548 0.0
C633 C 0.5627 0.77726 0.83659 0.0
C634 C 0.54822 0.79121 0.80101 0.0
C635 C 0.52371 0.78278 0.78687 0.0
C636 C 0.5143 0.76023 0.80831 0.0
C637 C 0.52865 0.74586 0.84172 0.0
C638 C 0.51287 0.72463 0.8652 0.0
C639 C 0.52283 0.69806 0.84911 0.0
C640 C 0.51216 0.72716 0.92264 0.0
C641 C 0.48699 0.73034 0.84216 0.0
C642 C 0.48838 0.75042 0.80828 0.0
C643 C 0.46651 0.76076 0.78586 0.0
C644 C 0.44253 0.75068 0.79941 0.0
C645 C 0.4408 0.73096 0.83561 0.0
C646 C 0.46324 0.72009 0.85591 0.0
H647 H 0.48633 0.30987 0.55109 0.0
H648 H 0.54772 0.34167 0.64098 0.0
H649 H 0.5729 0.30189 0.62999 0.0
H650 H 0.48409 0.2537 0.60037 0.0
H651 H 0.47856 0.23427 0.54559 0.0
H652 H 0.46957 0.26748 0.54525 0.0
H653 H 0.49774 0.27533 0.46666 0.0
H654 H 0.50676 0.24183 0.46651 0.0
H655 H 0.53128 0.2664 0.46725 0.0
H656 H 0.58337 0.25679 0.63447 0.0
H657 H 0.57993 0.21053 0.64959 0.0
H658 H 0.51475 0.20613 0.54933 0.0
C659 C 0.50561 0.30868 0.56626 0.0
C660 C 0.51504 0.32824 0.59765 0.0
C661 C 0.54005 0.32638 0.61794 0.0
C662 C 0.55461 0.30408 0.6111 0.0
C663 C 0.54406 0.28418 0.5828 0.0
C664 C 0.52034 0.28647 0.55956 0.0
C665 C 0.51131 0.26091 0.53888 0.0
C666 C 0.48433 0.25368 0.55879 0.0
C667 C 0.51182 0.26114 0.48141 0.0
C668 C 0.53204 0.24344 0.55951 0.0
C669 C 0.55125 0.25738 0.58311 0.0
C670 C 0.56945 0.24558 0.61368 0.0
C671 C 0.56751 0.21911 0.62173 0.0
C672 C 0.5479 0.20453 0.59835 0.0
C673 C 0.53055 0.21679 0.56566 0.0
H674 H 0.93765 0.28402 0.37633 0.0
H675 H 0.93904 0.22102 0.27059 0.0
H676 H 0.9845 0.23059 0.25102 0.0
H677 H 0.98836 0.32641 0.31364 0.0
H678 H 1.00153 0.3351 0.37366 0.0
H679 H 0.9675 0.32886 0.36739 0.0
H680 H 0.97055 0.29484 0.43805 0.0
H681 H 1.00455 0.30048 0.44388 0.0
H682 H 0.99282 0.26845 0.4316 0.0
H683 H 0.03085 0.2399 0.25734 0.0
H684 H 0.07496 0.24969 0.28669 0.0
H685 H 0.04423 0.30491 0.39213 0.0
C686 C 0.94747 0.27263 0.34844 0.0
C687 C 0.93528 0.25149 0.32571 0.0
C688 C 0.94826 0.23733 0.28828 0.0
C689 C 0.97401 0.24265 0.27696 0.0
C690 C 0.9862 0.26234 0.30311 0.0
C691 C 0.97328 0.27739 0.33765 0.0
C692 C 0.99159 0.29435 0.36667 0.0
C693 C 0.98697 0.32288 0.35459 0.0
C694 C 0.98976 0.2892 0.42337 0.0
C695 C 0.01691 0.28519 0.34546 0.0
C696 C 0.01336 0.26728 0.30788 0.0
C697 C 0.03392 0.25434 0.28586 0.0
C698 C 0.05876 0.25981 0.30292 0.0
C699 C 0.06261 0.27759 0.34213 0.0
C700 C 0.04155 0.29084 0.36281 0.0
H701 H 0.96841 0.68837 0.13276 0.0
H702 H 0.0366 0.68152 0.0406 0.0
H703 H 0.03427 0.72805 0.02072 0.0
H704 H 0.9356 0.74111 0.05748 0.0
H705 H 0.92388 0.7558 0.11413 0.0
H706 H 0.92756 0.72136 0.11072 0.0
H707 H 0.95639 0.72277 0.18977 0.0
H708 H 0.9534 0.75713 0.19281 0.0
H709 H 0.98489 0.74265 0.18968 0.0
H710 H 0.02878 0.77591 0.02377 0.0
H711 H 0.01984 0.82116 0.04769 0.0
H712 H 0.95546 0.79589 0.13822 0.0
C713 C 0.9821 0.69653 0.10659 0.0
C714 C 1.00271 0.68176 0.08824 0.0
C715 C 0.02087 0.69288 0.0553 0.0
C716 C 0.01953 0.71912 0.04355 0.0
C717 C 0.99968 0.73357 0.06465 0.0
C718 C 0.98104 0.72255 0.0949 0.0
C719 C 0.96381 0.74252 0.11847 0.0
C720 C 0.93607 0.74005 0.09901 0.0
C721 C 0.96471 0.74117 0.17606 0.0
C722 C 0.97655 0.76659 0.0991 0.0
C723 C 0.99683 0.76114 0.06722 0.0
C724 C 0.01266 0.78042 0.04789 0.0
C725 C 0.00762 0.8059 0.0618 0.0
C726 C 0.98737 0.81153 0.0954 0.0
C727 C 0.97137 0.79177 0.11328 0.0
H728 H 0.12127 0.11917 0.9272 0.0
H729 H 0.14831 0.0575 0.83129 0.0
H730 H 0.19328 0.06993 0.84943 0.0
H731 H 0.16374 0.16419 0.8863 0.0
H732 H 0.16886 0.17991 0.94553 0.0
H733 H 0.13911 0.16325 0.93387 0.0
H734 H 0.14591 0.13504 1.01261 0.0
H735 H 0.17552 0.15195 0.02532 0.0
H736 H 0.17555 0.11739 0.01991 0.0
H737 H 0.23468 0.09358 0.86639 0.0
H738 H 0.26951 0.12454 0.88685 0.0
H739 H 0.21543 0.17088 0.97057 0.0
C740 C 0.1366 0.10759 0.91149 0.0
C741 C 0.13121 0.0872 0.87806 0.0
C742 C 0.15192 0.07299 0.85741 0.0
C743 C 0.17755 0.07999 0.86738 0.0
C744 C 0.18213 0.10108 0.89837 0.0
C745 C 0.16221 0.11441 0.9208 0.0
C746 C 0.17204 0.13788 0.9485 0.0
C747 C 0.16024 0.16276 0.92726 0.0
C748 C 0.16696 0.13541 1.00494 0.0
C749 C 0.20052 0.13615 0.93691 0.0
C750 C 0.206 0.11469 0.90825 0.0
C751 C 0.23069 0.1101 0.88973 0.0
C752 C 0.25026 0.12778 0.90115 0.0
C753 C 0.24504 0.14965 0.93084 0.0
C754 C 0.2199 0.15386 0.94893 0.0
H755 H 0.6345 0.37114 0.19208 0.0
H756 H 0.69284 0.39675 0.08675 0.0
H757 H 0.68207 0.44184 0.10591 0.0
H758 H 0.58881 0.41386 0.15685 0.0
H759 H 0.57536 0.41961 0.21802 0.0
H760 H 0.59113 0.3896 0.20487 0.0
H761 H 0.62229 0.39662 0.27921 0.0
H762 H 0.60633 0.42654 0.29335 0.0
H763 H 0.64065 0.42601 0.28305 0.0
H764 H 0.65988 0.48342 0.12483 0.0
H765 H 0.62984 0.51864 0.14726 0.0
H766 H 0.5857 0.46608 0.23909 0.0
C767 C 0.64571 0.3862 0.17437 0.0
C768 C 0.66474 0.38035 0.13827 0.0
C769 C 0.67853 0.40067 0.11515 0.0
C770 C 0.67244 0.42639 0.12566 0.0
C771 C 0.65268 0.43144 0.15962 0.0
C772 C 0.63978 0.4119 0.18422 0.0
C773 C 0.61751 0.42224 0.21486 0.0
C774 C 0.59169 0.41064 0.19758 0.0
C775 C 0.62197 0.41758 0.27095 0.0
C776 C 0.61928 0.45054 0.20217 0.0
C777 C 0.63986 0.4555 0.17064 0.0
C778 C 0.64411 0.47987 0.15044 0.0
C779 C 0.62695 0.49965 0.16299 0.0
C780 C 0.60595 0.49492 0.1954 0.0
C781 C 0.60213 0.47014 0.21535 0.0
H782 H 0.38793 0.88529 0.42652 0.0
H783 H 0.3612 0.94587 0.32766 0.0
H784 H 0.31615 0.93451 0.34813 0.0
H785 H 0.34421 0.84019 0.3906 0.0
H786 H 0.33953 0.82577 0.45127 0.0
H787 H 0.36941 0.84165 0.43687 0.0
H788 H 0.3639 0.87144 0.51375 0.0
H789 H 0.3341 0.85539 0.52897 0.0
H790 H 0.33469 0.88981 0.52088 0.0
H791 H 0.27444 0.91199 0.36869 0.0
H792 H 0.23934 0.88194 0.39238 0.0
H793 H 0.2935 0.83588 0.47641 0.0
C794 C 0.37265 0.89677 0.41036 0.0
C795 C 0.37812 0.9166 0.37567 0.0
C796 C 0.35752 0.93084 0.35479 0.0
C797 C 0.33186 0.92444 0.36609 0.0
C798 C 0.32717 0.90396 0.39867 0.0
C799 C 0.34704 0.8906 0.42109 0.0
C800 C 0.33709 0.86788 0.45098 0.0
C801 C 0.34822 0.84238 0.43122 0.0
C802 C 0.34278 0.87135 0.50697 0.0
C803 C 0.30856 0.86995 0.44047 0.0
C804 C 0.30317 0.89104 0.41064 0.0
C805 C 0.27838 0.89579 0.39292 0.0
C806 C 0.25865 0.87862 0.40621 0.0
C807 C 0.26381 0.85706 0.43689 0.0
C808 C 0.28904 0.85273 0.45425 0.0
H809 H 0.86453 0.61789 0.56873 0.0
H810 H 0.81735 0.63397 0.69847 0.0
H811 H 0.82911 0.59156 0.73456 0.0
H812 H 0.85589 0.54629 0.56469 0.0
H813 H 0.88919 0.54136 0.54809 0.0
H814 H 0.87279 0.57015 0.52823 0.0
H815 H 0.90819 0.59771 0.56976 0.0
H816 H 0.92462 0.56924 0.59052 0.0
H817 H 0.9152 0.59342 0.63525 0.0
H818 H 0.85007 0.55006 0.76044 0.0
H819 H 0.87975 0.51384 0.77625 0.0
H820 H 0.91557 0.52608 0.63189 0.0
C821 C 0.85581 0.61184 0.60369 0.0
C822 C 0.83927 0.62848 0.6302 0.0
C823 C 0.82936 0.62094 0.67716 0.0
C824 C 0.83602 0.59698 0.69783 0.0
C825 C 0.85295 0.58116 0.67131 0.0
C826 C 0.86277 0.58832 0.62523 0.0
C827 C 0.88327 0.56967 0.60751 0.0
C828 C 0.87476 0.55605 0.55927 0.0
C829 C 0.90936 0.58333 0.6004 0.0
C830 C 0.88394 0.55118 0.65129 0.0
C831 C 0.86594 0.55784 0.68721 0.0
C832 C 0.86384 0.54437 0.73213 0.0
C833 C 0.88064 0.52371 0.74066 0.0
C834 C 0.89943 0.5168 0.70468 0.0
C835 C 0.90102 0.53074 0.65948 0.0
H836 H 0.79507 0.83147 0.05919 0.0
H837 H 0.74126 0.87861 0.14189 0.0
H838 H 0.77688 0.90753 0.16752 0.0
H839 H 0.84486 0.83414 0.14801 0.0
H840 H 0.87077 0.83506 0.10311 0.0
H841 H 0.84071 0.81995 0.08703 0.0
H842 H 0.83687 0.84964 1.00941 0.0
H843 H 0.86692 0.86493 0.02553 0.0
H844 H 0.83828 0.88405 1.01735 0.0
H845 H 0.81843 0.92901 0.18923 0.0
H846 H 0.86322 0.94031 0.20985 0.0
H847 H 0.89049 0.87929 0.11257 0.0
C848 C 0.79092 0.84822 0.08181 0.0
C849 C 0.76561 0.85324 0.09823 0.0
C850 C 0.76065 0.87478 0.12896 0.0
C851 C 0.78068 0.89128 0.14333 0.0
C852 C 0.80553 0.88586 0.12667 0.0
C853 C 0.81077 0.8648 0.09673 0.0
C854 C 0.83943 0.86213 0.08743 0.0
C855 C 0.84953 0.8363 0.10762 0.0
C856 C 0.84574 0.86539 0.0316 0.0
C857 C 0.84952 0.88459 0.11777 0.0
C858 C 0.82962 0.89822 0.13952 0.0
C859 C 0.83418 0.91874 0.17181 0.0
C860 C 0.85976 0.92509 0.18319 0.0
C861 C 0.88049 0.91094 0.16249 0.0
C862 C 0.87516 0.89081 0.12843 0.0
H863 H 0.36842 0.63659 0.86159 0.0
H864 H 0.3096 0.6111 0.96605 0.0
H865 H 0.3202 0.56587 0.94635 0.0
H866 H 0.36154 0.58281 0.76949 0.0
H867 H 0.39582 0.58185 0.75884 0.0
H868 H 0.38038 0.61186 0.77431 0.0
H869 H 0.41175 0.61765 0.84873 0.0
H870 H 0.42706 0.5876 0.83404 0.0
H871 H 0.41389 0.59279 0.89561 0.0
H872 H 0.34187 0.52391 0.9254 0.0
H873 H 0.37125 0.48847 0.90082 0.0
H874 H 0.41604 0.54158 0.81141 0.0
C875 C 0.35712 0.62156 0.87913 0.0
C876 C 0.33805 0.62741 0.91518 0.0
C877 C 0.32412 0.6071 0.93799 0.0
C878 C 0.33005 0.58134 0.92708 0.0
C879 C 0.34978 0.57627 0.893 0.0
C880 C 0.36287 0.59585 0.86886 0.0
C881 C 0.38489 0.5855 0.8376 0.0
C882 C 0.38037 0.59082 0.78174 0.0
C883 C 0.41092 0.59654 0.85507 0.0
C884 C 0.38274 0.5571 0.84917 0.0
C885 C 0.3622 0.5521 0.88079 0.0
C886 C 0.3576 0.52752 0.89974 0.0
C887 C 0.37437 0.50759 0.88589 0.0
C888 C 0.39534 0.51236 0.85338 0.0
C889 C 0.39953 0.53739 0.83482 0.0
H890 H 0.6289 0.12339 0.60905 0.0
H891 H 0.64894 0.06667 0.72149 0.0
H892 H 0.69507 0.0756 0.70667 0.0
H893 H 0.68496 0.11335 0.52502 0.0
H894 H 0.6875 0.14726 0.51174 0.0
H895 H 0.65648 0.13318 0.52511 0.0
H896 H 0.64962 0.16627 0.59624 0.0
H897 H 0.68065 0.18028 0.58364 0.0
H898 H 0.67316 0.16869 0.64553 0.0
H899 H 0.73854 0.09505 0.68799 0.0
H900 H 0.77603 0.12169 0.66315 0.0
H901 H 0.72696 0.16683 0.56606 0.0
C902 C 0.64286 0.11242 0.62988 0.0
C903 C 0.63516 0.09443 0.66661 0.0
C904 C 0.65429 0.0805 0.69296 0.0
C905 C 0.68057 0.08547 0.68487 0.0
C906 C 0.68738 0.10431 0.65009 0.0
C907 C 0.66905 0.11734 0.62259 0.0
C908 C 0.68112 0.13826 0.59079 0.0
C909 C 0.67729 0.13267 0.53484 0.0
C910 C 0.67051 0.16494 0.60492 0.0
C911 C 0.70908 0.13545 0.60567 0.0
C912 C 0.71235 0.11559 0.63952 0.0
C913 C 0.73626 0.11032 0.66081 0.0
C914 C 0.75737 0.1256 0.64681 0.0
C915 C 0.75445 0.14587 0.61188 0.0
C916 C 0.72993 0.15086 0.59135 0.0
H917 H 0.12402 0.37426 0.40468 0.0
H918 H 0.20626 0.389 0.4063 0.0
H919 H 0.19816 0.43378 0.3776 0.0
H920 H 0.10659 0.41386 0.29823 0.0
H921 H 0.07715 0.4246 0.32726 0.0
H922 H 0.08999 0.39334 0.34212 0.0
H923 H 0.08993 0.40511 0.43633 0.0
H924 H 0.07723 0.43642 0.42184 0.0
H925 H 0.10672 0.43355 0.45691 0.0
H926 H 0.18004 0.47759 0.34986 0.0
H927 H 0.15372 0.51673 0.33329 0.0
H928 H 0.08405 0.47287 0.35786 0.0
C929 C 0.14044 0.38667 0.39787 0.0
C930 C 0.16582 0.37809 0.4066 0.0
C931 C 0.18669 0.3952 0.39915 0.0
C932 C 0.18225 0.42058 0.38283 0.0
C933 C 0.15683 0.42849 0.37509 0.0
C934 C 0.13632 0.41199 0.38292 0.0
C935 C 0.11074 0.42544 0.3767 0.0
C936 C 0.09521 0.4136 0.33349 0.0
C937 C 0.09526 0.42511 0.42587 0.0
C938 C 0.11991 0.45221 0.36399 0.0
C939 C 0.14653 0.45364 0.36242 0.0
C940 C 0.15923 0.47663 0.35112 0.0
C941 C 0.14427 0.49866 0.34175 0.0
C942 C 0.11711 0.49747 0.34468 0.0
C943 C 0.10486 0.47402 0.35571 0.0
H944 H 0.63451 0.63277 0.32765 0.0
H945 H 0.63565 0.56119 0.4105 0.0
H946 H 0.68043 0.57072 0.43841 0.0
H947 H 0.70249 0.63134 0.2873 0.0
H948 H 0.70584 0.66573 0.29323 0.0
H949 H 0.67506 0.65196 0.2772 0.0
H950 H 0.65403 0.67517 0.35236 0.0
H951 H 0.68462 0.68902 0.36882 0.0
H952 H 0.66694 0.67039 0.41424 0.0
H953 H 0.72234 0.5918 0.46627 0.0
H954 H 0.75852 0.62018 0.48718 0.0
H955 H 0.73157 0.67605 0.37875 0.0
C956 C 0.6444 0.61896 0.35114 0.0
C957 C 0.63192 0.59635 0.36736 0.0
C958 C 0.64517 0.57856 0.3978 0.0
C959 C 0.67049 0.58386 0.41369 0.0
C960 C 0.68219 0.60671 0.39772 0.0
C961 C 0.66963 0.62374 0.36642 0.0
C962 C 0.68579 0.64738 0.35592 0.0
C963 C 0.69271 0.64919 0.3001 0.0
C964 C 0.67203 0.67193 0.37394 0.0
C965 C 0.70925 0.64146 0.38742 0.0
C966 C 0.70685 0.61796 0.41126 0.0
C967 C 0.7249 0.60974 0.4463 0.0
C968 C 0.7458 0.62595 0.4574 0.0
C969 C 0.74891 0.64998 0.4328 0.0
C970 C 0.7303 0.65751 0.39709 0.0
H971 H 0.09032 0.9646 0.72132 0.0
H972 H 0.14066 0.01685 0.6416 0.0
H973 H 0.16997 0.98067 0.6212 0.0
H974 H 0.14121 0.92187 0.77208 0.0
H975 H 0.12185 0.8934 0.76341 0.0
H976 H 0.10659 0.92384 0.77621 0.0
H977 H 0.07911 0.91928 0.69567 0.0
H978 H 0.09409 0.8888 0.6831 0.0
H979 H 0.09504 0.91392 0.63663 0.0
H980 H 0.1914 0.93824 0.60351 0.0
H981 H 0.20138 0.89287 0.58431 0.0
H982 H 0.13743 0.86861 0.67799 0.0
C983 C 0.10793 0.9684 0.70086 0.0
C984 C 0.11372 0.99338 0.68382 0.0
C985 C 0.13622 0.99772 0.65518 0.0
C986 C 0.15298 0.97738 0.64384 0.0
C987 C 0.14686 0.95288 0.66149 0.0
C988 C 0.1248 0.94831 0.68925 0.0
C989 C 0.12134 0.91994 0.69983 0.0
C990 C 0.12285 0.91445 0.75624 0.0
C991 C 0.0959 0.90991 0.67745 0.0
C992 C 0.14449 0.90916 0.67256 0.0
C993 C 0.1592 0.92845 0.65125 0.0
C994 C 0.18029 0.92298 0.6207 0.0
C995 C 0.18589 0.89713 0.61015 0.0
C996 C 0.17033 0.87714 0.62989 0.0
C997 C 0.15 0.88337 0.66293 0.0
H998 H 0.76326 0.37171 0.89635 0.0
H999 H 0.78978 0.33524 0.03247 0.0
H1000 H 0.83017 0.36007 0.02818 0.0
H1001 H 0.82465 0.36524 0.83663 0.0
H1002 H 0.82202 0.39452 0.80087 0.0
H1003 H 0.79339 0.37736 0.81917 0.0
H1004 H 0.7761 0.41874 0.86147 0.0
H1005 H 0.805 0.43584 0.84412 0.0
H1006 H 0.79518 0.43446 0.90875 0.0
H1007 H 0.86753 0.38763 1.00939 0.0
H1008 H 0.90474 0.40715 0.9668 0.0
H1009 H 0.8577 0.42206 0.83608 0.0
C1010 C 0.77746 0.3694 0.92563 0.0
C1011 C 0.77251 0.3532 0.96719 0.0
C1012 C 0.79217 0.34931 1.00298 0.0
C1013 C 0.81531 0.36311 1.00045 0.0
C1014 C 0.81907 0.37994 0.96053 0.0
C1015 C 0.80116 0.38244 0.92269 0.0
C1016 C 0.81189 0.39867 0.8801 0.0
C1017 C 0.81307 0.38301 0.83132 0.0
C1018 C 0.79609 0.4234 0.87322 0.0
C1019 C 0.8387 0.40464 0.89984 0.0
C1020 C 0.84197 0.39422 0.94703 0.0
C1021 C 0.86522 0.39595 0.97256 0.0
C1022 C 0.8862 0.40726 0.94819 0.0
C1023 C 0.88401 0.41636 0.89845 0.0
C1024 C 0.85968 0.41597 0.87462 0.0
H1025 H 0.41314 0.04239 0.23235 0.0
H1026 H 0.37899 0.98968 0.12619 0.0
H1027 H 0.3497 0.02411 0.09687 0.0
H1028 H 0.35219 0.07775 0.26294 0.0
H1029 H 0.36897 0.10801 0.26813 0.0
H1030 H 0.38515 0.07846 0.2841 0.0
H1031 H 0.42167 0.08925 0.22096 0.0
H1032 H 0.40564 0.11881 0.20563 0.0
H1033 H 0.41347 0.09622 0.15685 0.0
H1034 H 0.32795 0.06566 0.07276 0.0
H1035 H 0.31688 0.11091 0.05421 0.0
H1036 H 0.36193 0.13535 0.18209 0.0
C1037 C 0.39872 0.03784 0.20454 0.0
C1038 C 0.39771 0.01323 0.1825 0.0
C1039 C 0.37973 0.0084 0.14386 0.0
C1040 C 0.36296 0.02775 0.12727 0.0
C1041 C 0.3643 0.05183 0.15 0.0
C1042 C 0.38163 0.05688 0.18805 0.0
C1043 C 0.38057 0.08483 0.20365 0.0
C1044 C 0.37115 0.08741 0.25793 0.0
C1045 C 0.40689 0.09804 0.19629 0.0
C1046 C 0.36072 0.09493 0.16714 0.0
C1047 C 0.35135 0.07561 0.13675 0.0
C1048 C 0.33477 0.08087 0.09698 0.0
C1049 C 0.32847 0.10665 0.08684 0.0
C1050 C 0.33881 0.12679 0.11633 0.0
C1051 C 0.35406 0.12055 0.15834 0.0
H1052 H 0.29504 0.32463 0.60685 0.0
H1053 H 0.24796 0.39159 0.57844 0.0
H1054 H 0.28477 0.4201 0.60024 0.0
H1055 H 0.33079 0.34951 0.7104 0.0
H1056 H 0.36066 0.33466 0.69191 0.0
H1057 H 0.33047 0.32003 0.67496 0.0
H1058 H 0.34397 0.32085 0.58151 0.0
H1059 H 0.37421 0.33551 0.59823 0.0
H1060 H 0.3535 0.35087 0.55316 0.0
H1061 H 0.32647 0.44084 0.63159 0.0
H1062 H 0.37053 0.45191 0.66126 0.0
H1063 H 0.39057 0.37098 0.66022 0.0
C1064 C 0.29269 0.34531 0.60528 0.0
C1065 C 0.26897 0.35617 0.59135 0.0
C1066 C 0.26623 0.3832 0.58906 0.0
C1067 C 0.28693 0.3994 0.60145 0.0
C1068 C 0.31024 0.38812 0.61517 0.0
C1069 C 0.31328 0.36166 0.61643 0.0
C1070 C 0.34039 0.35426 0.63092 0.0
C1071 C 0.34057 0.33871 0.67995 0.0
C1072 C 0.35381 0.33951 0.58841 0.0
C1073 C 0.35209 0.38063 0.63806 0.0
C1074 C 0.33442 0.39999 0.6296 0.0
C1075 C 0.34061 0.42586 0.6374 0.0
C1076 C 0.36556 0.432 0.65419 0.0
C1077 C 0.38397 0.41235 0.66169 0.0
C1078 C 0.37707 0.38646 0.65325 0.0
H1079 H 0.84416 0.10972 0.46352 0.0
H1080 H 0.85321 0.15343 0.32621 0.0
H1081 H 0.87221 0.11568 0.28518 0.0
H1082 H 0.90165 0.07804 0.45852 0.0
H1083 H 0.89076 0.04718 0.48098 0.0
H1084 H 0.87374 0.07593 0.49853 0.0
H1085 H 0.83119 0.05741 0.46322 0.0
H1086 H 0.84788 0.02822 0.44669 0.0
H1087 H 0.83022 0.04577 0.39975 0.0
H1088 H 0.89891 0.078 0.26559 0.0
H1089 H 0.92316 0.03732 0.26085 0.0
H1090 H 0.89337 0.01474 0.40575 0.0
C1091 C 0.84906 0.11092 0.42421 0.0
C1092 C 0.84719 0.13449 0.39801 0.0
C1093 C 0.85446 0.13557 0.34697 0.0
C1094 C 0.86537 0.11425 0.32333 0.0
C1095 C 0.86848 0.0918 0.35094 0.0
C1096 C 0.85985 0.08958 0.3997 0.0
C1097 C 0.86693 0.06348 0.42128 0.0
C1098 C 0.8843 0.06635 0.46756 0.0
C1099 C 0.8426 0.04779 0.43344 0.0
C1100 C 0.8816 0.05192 0.3776 0.0
C1101 C 0.88241 0.06879 0.33769 0.0
C1102 C 0.89729 0.06399 0.29539 0.0
C1103 C 0.91083 0.04079 0.29281 0.0
C1104 C 0.90859 0.0222 0.33123 0.0
C1105 C 0.89441 0.0282 0.37489 0.0
H1106 H 0.14437 0.58906 0.2019 0.0
H1107 H 0.09569 0.62062 0.08492 0.0
H1108 H 0.13302 0.64314 0.0491 0.0
H1109 H 0.18099 0.64353 0.22217 0.0
H1110 H 0.21148 0.62764 0.23129 0.0
H1111 H 0.18193 0.61092 0.24515 0.0
H1112 H 0.19457 0.57406 0.18489 0.0
H1113 H 0.22451 0.59032 0.17169 0.0
H1114 H 0.20328 0.58152 0.12121 0.0
H1115 H 0.17266 0.66819 0.0351 0.0
H1116 H 0.21563 0.68814 0.03285 0.0
H1117 H 0.24092 0.63812 0.15277 0.0
C1118 C 0.14178 0.59996 0.16775 0.0
C1119 C 0.11707 0.60309 0.14628 0.0
C1120 C 0.11439 0.61792 0.10209 0.0
C1121 C 0.13547 0.63089 0.0815 0.0
C1122 C 0.15923 0.62853 0.10498 0.0
C1123 C 0.16278 0.61294 0.14627 0.0
C1124 C 0.19032 0.61471 0.16507 0.0
C1125 C 0.19121 0.6248 0.21912 0.0
C1126 C 0.20398 0.5886 0.16042 0.0
C1127 C 0.20137 0.63423 0.12864 0.0
C1128 C 0.18294 0.64203 0.09464 0.0
C1129 C 0.18763 0.66146 0.06001 0.0
C1130 C 0.21217 0.67251 0.05864 0.0
C1131 C 0.23198 0.66364 0.09059 0.0
C1132 C 0.22627 0.64473 0.12701 0.0
H1133 H 0.61956 0.99658 0.9045 0.0
H1134 H 0.595 0.97137 0.75749 0.0
H1135 H 0.62354 0.93436 0.763 0.0
H1136 H 0.68556 0.97033 0.90582 0.0
H1137 H 0.68282 0.95833 0.96888 0.0
H1138 H 0.66501 0.9865 0.95015 0.0
H1139 H 0.62223 0.96495 0.97795 0.0
H1140 H 0.64002 0.93711 0.99779 0.0
H1141 H 0.61401 0.93365 0.95369 0.0
H1142 H 0.65253 0.89904 0.78429 0.0
H1143 H 0.6696 0.86123 0.82844 0.0
H1144 H 0.67094 0.90421 0.96716 0.0
C1145 C 0.62058 0.98355 0.87302 0.0
C1146 C 0.6066 0.9885 0.82848 0.0
C1147 C 0.60729 0.96994 0.78971 0.0
C1148 C 0.62331 0.9484 0.79285 0.0
C1149 C 0.63773 0.94484 0.83607 0.0
C1150 C 0.63571 0.96126 0.87639 0.0
C1151 C 0.64933 0.95022 0.92186 0.0
C1152 C 0.67203 0.96738 0.9376 0.0
C1153 C 0.63026 0.94624 0.96537 0.0
C1154 C 0.65876 0.92476 0.9009 0.0
C1155 C 0.65265 0.92267 0.85072 0.0
C1156 C 0.65764 0.90047 0.82341 0.0
C1157 C 0.66755 0.87917 0.84868 0.0
C1158 C 0.67194 0.88006 0.90083 0.0
C1159 C 0.66861 0.90344 0.92694 0.0
H1160 H 0.4272 0.15919 0.99779 0.0
H1161 H 0.36645 0.1687 0.88773 0.0
H1162 H 0.39326 0.14722 0.82463 0.0
H1163 H 0.48041 0.17008 0.91342 0.0
H1164 H 0.50094 0.14609 0.94125 0.0
H1165 H 0.47692 0.16203 0.97868 0.0
H1166 H 0.45772 0.11782 1.00345 0.0
H1167 H 0.48157 0.10175 0.9657 0.0
H1168 H 0.4478 0.09574 0.95519 0.0
H1169 H 0.42688 0.12705 0.7716 0.0
H1170 H 0.46589 0.10902 0.7319 0.0
H1171 H 0.50489 0.10953 0.8751 0.0
C1172 C 0.41961 0.15677 0.96039 0.0
C1173 C 0.39461 0.16573 0.94793 0.0
C1174 C 0.38541 0.16201 0.89852 0.0
C1175 C 0.40051 0.14977 0.86223 0.0
C1176 C 0.42485 0.14099 0.87566 0.0
C1177 C 0.43443 0.14423 0.92346 0.0
C1178 C 0.46145 0.13303 0.92735 0.0
C1179 C 0.48109 0.15406 0.94098 0.0
C1180 C 0.46217 0.11076 0.96518 0.0
C1181 C 0.46555 0.12336 0.87418 0.0
C1182 C 0.4441 0.12824 0.84512 0.0
C1183 C 0.44364 0.12272 0.79411 0.0
C1184 C 0.46581 0.11239 0.77188 0.0
C1185 C 0.48806 0.10721 0.80063 0.0
C1186 C 0.48779 0.11244 0.85264 0.0
H1187 H 0.60301 0.67608 0.24811 0.0
H1188 H 0.58699 0.61635 0.13916 0.0
H1189 H 0.60745 0.64281 0.07331 0.0
H1190 H 0.59103 0.72971 0.1697 0.0
H1191 H 0.61691 0.74909 0.19421 0.0
H1192 H 0.60194 0.72503 0.23305 0.0
H1193 H 0.64644 0.70407 0.24884 0.0
H1194 H 0.66159 0.72805 0.20987 0.0
H1195 H 0.66597 0.69436 0.19639 0.0
H1196 H 0.62571 0.6773 0.01797 0.0
H1197 H 0.64253 0.71666 0.97745 0.0
H1198 H 0.65 0.75312 0.12236 0.0
C1199 C 0.60387 0.66854 0.21041 0.0
C1200 C 0.59321 0.64417 0.19872 0.0
C1201 C 0.595 0.63491 0.14904 0.0
C1202 C 0.60661 0.64981 0.11138 0.0
C1203 C 0.61679 0.67378 0.12406 0.0
C1204 C 0.6158 0.683 0.17246 0.0
C1205 C 0.62799 0.70953 0.17593 0.0
C1206 C 0.60829 0.72952 0.1943 0.0
C1207 C 0.65192 0.70896 0.20976 0.0
C1208 C 0.63534 0.71412 0.1216 0.0
C1209 C 0.62865 0.69319 0.0924 0.0
C1210 C 0.63153 0.69355 0.04056 0.0
C1211 C 0.64113 0.71595 0.01787 0.0
C1212 C 0.64818 0.73758 0.04689 0.0
C1213 C 0.6456 0.7365 0.09953 0.0
H1214 H 0.03783 0.87283 0.27084 0.0
H1215 H 0.01587 0.93887 0.36053 0.0
H1216 H 0.04858 0.92704 0.42327 0.0
H1217 H 0.04684 0.82989 0.37002 0.0
H1218 H 0.0744 0.81372 0.34371 0.0
H1219 H 0.0511 0.82859 0.30314 0.0
H1220 H 0.08713 0.85577 0.26176 0.0
H1221 H 0.11062 0.84082 0.30195 0.0
H1222 H 0.10777 0.87537 0.30031 0.0
H1223 H 0.07965 0.90521 0.4813 0.0
H1224 H 0.10987 0.87693 0.52705 0.0
H1225 H 0.11396 0.82611 0.39898 0.0
C1226 C 0.04032 0.8852 0.30304 0.0
C1227 C 0.02424 0.90695 0.3104 0.0
C1228 C 0.02796 0.92229 0.35362 0.0
C1229 C 0.04649 0.91566 0.38965 0.0
C1230 C 0.06146 0.89376 0.38191 0.0
C1231 C 0.0589 0.87896 0.33932 0.0
C1232 C 0.07677 0.8558 0.34117 0.0
C1233 C 0.06135 0.83051 0.33941 0.0
C1234 C 0.09676 0.85702 0.29877 0.0
C1235 C 0.08938 0.8596 0.3919 0.0
C1236 C 0.08016 0.88161 0.41479 0.0
C1237 C 0.08739 0.88825 0.46331 0.0
C1238 C 0.1045 0.87208 0.48905 0.0
C1239 C 0.11452 0.84971 0.46614 0.0
C1240 C 0.10701 0.84347 0.41679 0.0
H1241 H 0.86469 0.25446 0.62835 0.0
H1242 H 0.8506 0.29915 0.49436 0.0
H1243 H 0.86563 0.33843 0.5376 0.0
H1244 H 0.84873 0.305 0.72161 0.0
H1245 H 0.87474 0.29588 0.76255 0.0
H1246 H 0.85947 0.27204 0.72362 0.0
H1247 H 0.9039 0.26012 0.68606 0.0
H1248 H 0.91923 0.28408 0.72447 0.0
H1249 H 0.92336 0.28488 0.65754 0.0
H1250 H 0.88452 0.37225 0.59319 0.0
H1251 H 0.90731 0.39826 0.65626 0.0
H1252 H 0.91218 0.33143 0.75337 0.0
C1253 C 0.86398 0.27273 0.60889 0.0
C1254 C 0.85578 0.27405 0.55852 0.0
C1255 C 0.85628 0.29796 0.53327 0.0
C1256 C 0.86484 0.32032 0.55751 0.0
C1257 C 0.87331 0.31839 0.60683 0.0
C1258 C 0.87306 0.29521 0.6323 0.0
C1259 C 0.88549 0.29806 0.68347 0.0
C1260 C 0.86594 0.29241 0.72529 0.0
C1261 C 0.90941 0.28076 0.68813 0.0
C1262 C 0.89291 0.32635 0.68254 0.0
C1263 C 0.88541 0.33773 0.63819 0.0
C1264 C 0.89039 0.36357 0.62815 0.0
C1265 C 0.90341 0.3782 0.66428 0.0
C1266 C 0.91164 0.36697 0.70987 0.0
C1267 C 0.90619 0.34064 0.71896 0.0
H1268 H 0.58047 0.84881 0.03492 0.0
H1269 H 0.64588 0.84904 0.136 0.0
H1270 H 0.61979 0.8716 0.1993 0.0
H1271 H 0.55632 0.91229 0.06917 0.0
H1272 H 0.52291 0.90307 0.06469 0.0
H1273 H 0.54672 0.88726 0.02643 0.0
H1274 H 0.53239 0.84299 0.06131 0.0
H1275 H 0.50841 0.85863 0.0993 0.0
H1276 H 0.53192 0.83785 0.128 0.0
H1277 H 0.586 0.89141 0.25414 0.0
H1278 H 0.54679 0.90783 0.29599 0.0
H1279 H 0.50357 0.89765 0.15897 0.0
C1280 C 0.58933 0.85367 0.07031 0.0
C1281 C 0.61533 0.84705 0.08031 0.0
C1282 C 0.6261 0.85385 0.1272 0.0
C1283 C 0.61142 0.86674 0.16349 0.0
C1284 C 0.58595 0.87301 0.15245 0.0
C1285 C 0.57497 0.86681 0.10697 0.0
C1286 C 0.54701 0.8755 0.10511 0.0
C1287 C 0.54301 0.89574 0.0639 0.0
C1288 C 0.52887 0.85237 0.09802 0.0
C1289 C 0.54394 0.88728 0.15682 0.0
C1290 C 0.56668 0.88554 0.1835 0.0
C1291 C 0.56825 0.89334 0.2333 0.0
C1292 C 0.54595 0.90276 0.25672 0.0
C1293 C 0.52247 0.90481 0.23024 0.0
C1294 C 0.52156 0.89725 0.17943 0.0
H1295 H 0.41584 0.33143 0.7819 0.0
H1296 H 0.42672 0.39121 0.89324 0.0
H1297 H 0.40415 0.36473 0.95564 0.0
H1298 H 0.35155 0.31316 0.82278 0.0
H1299 H 0.35598 0.27923 0.81191 0.0
H1300 H 0.37355 0.3024 0.775 0.0
H1301 H 0.41665 0.28118 0.80068 0.0
H1302 H 0.39921 0.25776 0.83716 0.0
H1303 H 0.42395 0.27701 0.86609 0.0
H1304 H 0.38192 0.332 1.00738 0.0
H1305 H 0.36149 0.29395 0.04604 0.0
H1306 H 0.36184 0.25511 0.90266 0.0
C1307 C 0.41367 0.33876 0.81956 0.0
C1308 C 0.42323 0.36347 0.83257 0.0
C1309 C 0.41961 0.37246 0.88214 0.0
C1310 C 0.40674 0.35755 0.91799 0.0
C1311 C 0.39719 0.33361 0.90398 0.0
C1312 C 0.40042 0.32413 0.85608 0.0
C1313 C 0.38793 0.29768 0.85147 0.0
C1314 C 0.36595 0.29815 0.813 0.0
C1315 C 0.40814 0.2772 0.83806 0.0
C1316 C 0.37758 0.29376 0.90437 0.0
C1317 C 0.38323 0.31485 0.93383 0.0
C1318 C 0.37707 0.3155 0.98457 0.0
C1319 C 0.36536 0.29386 1.00621 0.0
C1320 C 0.35946 0.27189 0.97722 0.0
C1321 C 0.36532 0.272 0.92535 0.0
H1322 H 0.974 0.13293 0.75934 0.0
H1323 H 0.0125 0.08399 0.65112 0.0
H1324 H 0.9843 0.10075 0.58462 0.0
H1325 H 0.90913 0.12498 0.70489 0.0
H1326 H 0.89977 0.15763 0.71841 0.0
H1327 H 0.92271 0.14148 0.758 0.0
H1328 H 0.95524 0.17854 0.74362 0.0
H1329 H 0.93254 0.19465 0.70348 0.0
H1330 H 0.96433 0.1871 0.68066 0.0
H1331 H 0.9551 0.12589 0.52797 0.0
H1332 H 0.92173 0.15252 0.48714 0.0
H1333 H 0.89855 0.18229 0.63176 0.0
C1334 C 0.9762 0.12544 0.7218 0.0
C1335 C 0.99554 0.10703 0.71066 0.0
C1336 C 0.99777 0.09785 0.66092 0.0
C1337 C 0.98194 0.10742 0.62268 0.0
C1338 C 0.9635 0.1259 0.63462 0.0
C1339 C 0.96007 0.13438 0.68315 0.0
C1340 C 0.93829 0.15393 0.68576 0.0
C1341 C 0.91616 0.1439 0.71871 0.0
C1342 C 0.9482 0.1801 0.70449 0.0
C1343 C 0.93033 0.15533 0.63106 0.0
C1344 C 0.94548 0.13929 0.60218 0.0
C1345 C 0.94287 0.13823 0.5503 0.0
C1346 C 0.92401 0.15357 0.52736 0.0
C1347 C 0.90753 0.16937 0.55622 0.0
C1348 C 0.91077 0.17022 0.60883 0.0
H1349 H 0.12356 0.71837 0.51544 0.0
H1350 H 0.16678 0.76068 0.40323 0.0
H1351 H 0.14914 0.73253 0.33747 0.0
H1352 H 0.13326 0.6548 0.45617 0.0
H1353 H 0.10173 0.64332 0.47367 0.0
H1354 H 0.11803 0.6666 0.51226 0.0
H1355 H 0.07871 0.69697 0.50506 0.0
H1356 H 0.06243 0.67395 0.4659 0.0
H1357 H 0.06736 0.70639 0.44404 0.0
H1358 H 0.12323 0.70305 0.28277 0.0
H1359 H 0.09686 0.6689 0.24378 0.0
H1360 H 0.07395 0.64186 0.39068 0.0
C1361 C 0.12961 0.7214 0.47711 0.0
C1362 C 0.14664 0.74177 0.46458 0.0
C1363 C 0.15403 0.74511 0.41394 0.0
C1364 C 0.14393 0.72932 0.37618 0.0
C1365 C 0.12683 0.7098 0.38956 0.0
C1366 C 0.12025 0.70527 0.4389 0.0
C1367 C 0.10207 0.68237 0.44294 0.0
C1368 C 0.11452 0.66047 0.47304 0.0
C1369 C 0.0761 0.69041 0.46585 0.0
C1370 C 0.0991 0.67512 0.38815 0.0
C1371 C 0.11323 0.69154 0.35803 0.0
C1372 C 0.11243 0.68982 0.30601 0.0
C1373 C 0.09724 0.67051 0.28417 0.0
C1374 C 0.08347 0.65276 0.31419 0.0
C1375 C 0.08446 0.6551 0.36691 0.0
H1376 H 0.88914 0.66825 0.40778 0.0
H1377 H 0.91893 0.64885 0.55449 0.0
H1378 H 0.95102 0.62005 0.51568 0.0
H1379 H 0.89879 0.60585 0.34844 0.0
H1380 H 0.90925 0.61944 0.28977 0.0
H1381 H 0.88709 0.63692 0.32897 0.0
H1382 H 0.91801 0.67611 0.32976 0.0
H1383 H 0.94003 0.65888 0.29003 0.0
H1384 H 0.951 0.67169 0.3489 0.0
H1385 H 0.98031 0.59367 0.46099 0.0
H1386 H 0.00873 0.57689 0.39446 0.0
H1387 H 0.96179 0.61527 0.28286 0.0
C1388 C 0.90235 0.65781 0.43162 0.0
C1389 C 0.90151 0.6607 0.48416 0.0
C1390 C 0.91935 0.64705 0.51414 0.0
C1391 C 0.9375 0.63045 0.49246 0.0
C1392 C 0.93783 0.62792 0.4406 0.0
C1393 C 0.92104 0.64157 0.41046 0.0
C1394 C 0.92698 0.63708 0.35559 0.0
C1395 C 0.90416 0.62405 0.32914 0.0
C1396 C 0.93446 0.66244 0.32955 0.0
C1397 C 0.94982 0.61899 0.35964 0.0
C1398 C 0.95542 0.61352 0.40899 0.0
C1399 C 0.97607 0.59776 0.42218 0.0
C1400 C 0.99202 0.58813 0.38405 0.0
C1401 C 0.98749 0.59462 0.33335 0.0
C1402 C 0.96567 0.60974 0.32117 0.0
H1403 H 0.08065 0.14218 0.64937 0.0
H1404 H 0.12582 0.15339 0.78375 0.0
H1405 H 0.15261 0.18573 0.73988 0.0
H1406 H 0.13246 0.152 0.55747 0.0
H1407 H 0.11236 0.16985 0.51489 0.0
H1408 H 0.09832 0.1457 0.55498 0.0
H1409 H 0.06642 0.17941 0.59025 0.0
H1410 H 0.08029 0.2036 0.55018 0.0
H1411 H 0.07876 0.20882 0.61675 0.0
H1412 H 0.17387 0.21762 0.6823 0.0
H1413 H 0.18541 0.24985 0.61828 0.0
H1414 H 0.12481 0.22053 0.52206 0.0
C1415 C 0.09648 0.15119 0.66906 0.0
C1416 C 0.10152 0.14507 0.71968 0.0
C1417 C 0.12186 0.15773 0.74486 0.0
C1418 C 0.1372 0.17604 0.72018 0.0
C1419 C 0.13173 0.18186 0.67039 0.0
C1420 C 0.11167 0.17007 0.6452 0.0
C1421 C 0.10858 0.18152 0.59319 0.0
C1422 C 0.11321 0.16104 0.55274 0.0
C1423 C 0.08194 0.19409 0.58726 0.0
C1424 C 0.12994 0.20158 0.59321 0.0
C1425 C 0.14329 0.20115 0.63786 0.0
C1426 C 0.16358 0.21809 0.64714 0.0
C1427 C 0.17008 0.23632 0.61035 0.0
C1428 C 0.15616 0.23781 0.56485 0.0
C1429 C 0.13602 0.21987 0.55617 0.0
H1430 H 0.5427 0.38171 0.7745 0.0
H1431 H 0.51004 0.43735 0.87751 0.0
H1432 H 0.54111 0.42378 0.94195 0.0
H1433 H 0.55165 0.33227 0.86125 0.0
H1434 H 0.58183 0.32091 0.83627 0.0
H1435 H 0.55908 0.33678 0.79594 0.0
H1436 H 0.59384 0.37 0.7703 0.0
H1437 H 0.61682 0.3541 0.81024 0.0
H1438 H 0.61053 0.38796 0.81799 0.0
H1439 H 0.57135 0.40048 0.99867 0.0
H1440 H 0.60198 0.37178 0.04189 0.0
H1441 H 0.61729 0.33207 0.90252 0.0
C1442 C 0.5424 0.39143 0.81021 0.0
C1443 C 0.52378 0.41068 0.82068 0.0
C1444 C 0.52411 0.42274 0.86819 0.0
C1445 C 0.54167 0.41507 0.90522 0.0
C1446 C 0.5591 0.39548 0.89422 0.0
C1447 C 0.55996 0.38408 0.84763 0.0
C1448 C 0.57997 0.3627 0.84637 0.0
C1449 C 0.56737 0.33663 0.83425 0.0
C1450 C 0.60158 0.36908 0.809 0.0
C1451 C 0.58977 0.36343 0.89993 0.0
C1452 C 0.57735 0.38251 0.92678 0.0
C1453 C 0.58155 0.38585 0.97781 0.0
C1454 C 0.59888 0.36938 1.00208 0.0
C1455 C 0.61216 0.34997 0.97544 0.0
C1456 C 0.60774 0.34711 0.92351 0.0
H1457 H 0.39454 0.75715 0.07488 0.0
H1458 H 0.31883 0.7901 0.05227 0.0
H1459 H 0.33161 0.82822 0.1025 0.0
H1460 H 0.39991 0.77716 0.20433 0.0
H1461 H 0.43411 0.78295 0.20087 0.0
H1462 H 0.41947 0.75917 0.16099 0.0
H1463 H 0.43842 0.78203 0.08317 0.0
H1464 H 0.45307 0.80595 0.12275 0.0
H1465 H 0.43176 0.81566 0.07305 0.0
H1466 H 0.35389 0.86389 0.15128 0.0
H1467 H 0.38127 0.89165 0.20432 0.0
H1468 H 0.44087 0.83331 0.20417 0.0
C1469 C 0.38074 0.77251 0.08041 0.0
C1470 C 0.35579 0.77098 0.05916 0.0
C1471 C 0.33803 0.79106 0.06799 0.0
C1472 C 0.34519 0.81276 0.09634 0.0
C1473 C 0.36998 0.81377 0.11667 0.0
C1474 C 0.38732 0.79392 0.10992 0.0
C1475 C 0.4122 0.79902 0.13827 0.0
C1476 C 0.41668 0.77835 0.1785 0.0
C1477 C 0.43522 0.80077 0.10214 0.0
C1478 C 0.40633 0.82501 0.16165 0.0
C1479 C 0.38204 0.83336 0.14791 0.0
C1480 C 0.37277 0.85736 0.16271 0.0
C1481 C 0.38852 0.87306 0.19265 0.0
C1482 C 0.41311 0.86461 0.20867 0.0
C1483 C 0.42205 0.84017 0.19297 0.0
H1484 H 0.08757 0.31473 0.59005 0.0
H1485 H 0.13892 0.37965 0.56947 0.0
H1486 H 0.10954 0.407 0.61959 0.0
H1487 H 0.02756 0.34863 0.58729 0.0
H1488 H 0.01288 0.32999 0.63655 0.0
H1489 H 0.03745 0.31583 0.59776 0.0
H1490 H 0.06424 0.30466 0.67648 0.0
H1491 H 0.03967 0.31864 0.71552 0.0
H1492 H 0.07248 0.32977 0.72011 0.0
H1493 H 0.07232 0.42812 0.66802 0.0
H1494 H 0.03434 0.43922 0.72043 0.0
H1495 H 0.01014 0.35943 0.71744 0.0
C1496 C 0.09263 0.33469 0.59635 0.0
C1497 C 0.11551 0.34512 0.57577 0.0
C1498 C 0.12159 0.37124 0.58517 0.0
C1499 C 0.10492 0.38696 0.61333 0.0
C1500 C 0.08243 0.37617 0.63301 0.0
C1501 C 0.07659 0.35045 0.62582 0.0
C1502 C 0.052 0.3432 0.6533 0.0
C1503 C 0.03125 0.33386 0.61652 0.0
C1504 C 0.05743 0.32286 0.69375 0.0
C1505 C 0.04471 0.36887 0.67646 0.0
C1506 C 0.06222 0.3878 0.66365 0.0
C1507 C 0.05873 0.41332 0.67882 0.0
C1508 C 0.03706 0.41952 0.7084 0.0
C1509 C 0.01947 0.40019 0.72357 0.0
C1510 C 0.02347 0.37458 0.70711 0.0
H1511 H 0.91438 0.83035 0.28625 0.0
H1512 H 0.92845 0.89053 0.3954 0.0
H1513 H 0.90823 0.86399 0.46076 0.0
H1514 H 0.85168 0.81188 0.33481 0.0
H1515 H 0.85595 0.77797 0.32357 0.0
H1516 H 0.87222 0.80117 0.28458 0.0
H1517 H 0.9161 0.78013 0.30527 0.0
H1518 H 0.89994 0.75673 0.34397 0.0
H1519 H 0.92547 0.77615 0.36972 0.0
H1520 H 0.88792 0.83098 0.51553 0.0
H1521 H 0.86787 0.79333 0.55628 0.0
H1522 H 0.86365 0.75451 0.41303 0.0
C1523 C 0.91335 0.83781 0.32399 0.0
C1524 C 0.92316 0.86263 0.33551 0.0
C1525 C 0.92111 0.87172 0.38536 0.0
C1526 C 0.90962 0.85675 0.42292 0.0
C1527 C 0.89988 0.83264 0.41038 0.0
C1528 C 0.90148 0.82315 0.3622 0.0
C1529 C 0.88897 0.79664 0.35923 0.0
C1530 C 0.86583 0.79694 0.32342 0.0
C1531 C 0.90881 0.7762 0.34363 0.0
C1532 C 0.8803 0.79277 0.41325 0.0
C1533 C 0.88699 0.81382 0.44198 0.0
C1534 C 0.8823 0.81452 0.49332 0.0
C1535 C 0.87082 0.79306 0.51616 0.0
C1536 C 0.86366 0.7712 0.48784 0.0
C1537 C 0.86822 0.77124 0.43546 0.0
H1538 H 0.42134 0.69387 0.08815 0.0
H1539 H 0.36979 0.62887 0.07109 0.0
H1540 H 0.3988 0.60211 0.12295 0.0
H1541 H 0.48153 0.6589 0.08865 0.0
H1542 H 0.49601 0.6784 0.13674 0.0
H1543 H 0.47195 0.69201 0.09607 0.0
H1544 H 0.44474 0.70521 0.17311 0.0
H1545 H 0.4687 0.69163 0.21402 0.0
H1546 H 0.43567 0.68112 0.21841 0.0
H1547 H 0.43485 0.58174 0.17343 0.0
H1548 H 0.47245 0.57087 0.22666 0.0
H1549 H 0.49793 0.65021 0.2192 0.0
C1550 C 0.41633 0.67396 0.09527 0.0
C1551 C 0.39349 0.66327 0.07537 0.0
C1552 C 0.38724 0.63733 0.08605 0.0
C1553 C 0.40363 0.62199 0.1153 0.0
C1554 C 0.42599 0.63302 0.13465 0.0
C1555 C 0.43215 0.65855 0.12578 0.0
C1556 C 0.45657 0.66603 0.15342 0.0
C1557 C 0.47776 0.67432 0.11651 0.0
C1558 C 0.45108 0.68725 0.19203 0.0
C1559 C 0.46326 0.64073 0.17878 0.0
C1560 C 0.44563 0.6218 0.16679 0.0
C1561 C 0.44856 0.59651 0.18367 0.0
C1562 C 0.46995 0.59047 0.21381 0.0
C1563 C 0.48778 0.60975 0.22781 0.0
C1564 C 0.48426 0.63519 0.21002 0.0
H1565 H 0.64792 0.2559 0.91382 0.0
H1566 H 0.64865 0.21513 0.05524 0.0
H1567 H 0.63098 0.17652 1.01385 0.0
H1568 H 0.58772 0.2312 0.87403 0.0
H1569 H 0.59594 0.22862 0.80871 0.0
H1570 H 0.61169 0.25226 0.84729 0.0
H1571 H 0.65623 0.2338 0.82271 0.0
H1572 H 0.64061 0.21028 0.78358 0.0
H1573 H 0.6626 0.20003 0.83174 0.0
H1574 H 0.61129 0.14329 0.95941 0.0
H1575 H 0.59045 0.11682 0.895 0.0
H1576 H 0.59953 0.17883 0.78736 0.0
C1577 C 0.64514 0.23851 0.93549 0.0
C1578 C 0.65037 0.23818 0.98753 0.0
C1579 C 0.64533 0.21554 1.01524 0.0
C1580 C 0.63519 0.19357 0.99206 0.0
C1581 C 0.62972 0.19458 0.94107 0.0
C1582 C 0.63447 0.2164 0.91292 0.0
C1583 C 0.62494 0.21272 0.85947 0.0
C1584 C 0.60382 0.23237 0.84664 0.0
C1585 C 0.64744 0.2143 0.82217 0.0
C1586 C 0.61402 0.18554 0.86222 0.0
C1587 C 0.61724 0.1755 0.90968 0.0
C1588 C 0.60876 0.1509 0.92205 0.0
C1589 C 0.59687 0.13599 0.88502 0.0
C1590 C 0.59324 0.14561 0.83587 0.0
C1591 C 0.60187 0.17089 0.82453 0.0
H1592 H 0.31635 0.24692 0.21361 0.0
H1593 H 0.2561 0.21869 0.11516 0.0
H1594 H 0.22352 0.22994 0.17818 0.0
H1595 H 0.28785 0.22534 0.32965 0.0
H1596 H 0.29691 0.25337 0.36522 0.0
H1597 H 0.31619 0.24342 0.31259 0.0
H1598 H 0.31112 0.28846 0.27262 0.0
H1599 H 0.29197 0.29861 0.32529 0.0
H1600 H 0.2793 0.30136 0.26278 0.0
H1601 H 0.19741 0.2422 0.25126 0.0
H1602 H 0.17796 0.25838 0.32818 0.0
H1603 H 0.25348 0.28128 0.38267 0.0
C1604 C 0.29627 0.24328 0.20522 0.0
C1605 C 0.28893 0.23185 0.15895 0.0
C1606 C 0.2624 0.22745 0.14979 0.0
C1607 C 0.24366 0.2337 0.1856 0.0
C1608 C 0.2515 0.2446 0.23071 0.0
C1609 C 0.27707 0.24969 0.24067 0.0
C1610 C 0.27982 0.26202 0.29232 0.0
C1611 C 0.29617 0.24502 0.32699 0.0
C1612 C 0.29123 0.28923 0.28798 0.0
C1613 C 0.25179 0.26288 0.3097 0.0
C1614 C 0.23602 0.25247 0.27332 0.0
C1615 C 0.20954 0.25056 0.27986 0.0
C1616 C 0.19867 0.25988 0.32415 0.0
C1617 C 0.21398 0.27136 0.36215 0.0
C1618 C 0.24112 0.27264 0.35476 0.0
H1619 H 0.53386 0.51283 0.40706 0.0
H1620 H 0.50964 0.58792 0.46069 0.0
H1621 H 0.49295 0.5682 0.53742 0.0
H1622 H 0.47852 0.4774 0.45817 0.0
H1623 H 0.49717 0.44955 0.47545 0.0
H1624 H 0.50712 0.46922 0.42335 0.0
H1625 H 0.55186 0.47538 0.46426 0.0
H1626 H 0.54197 0.45586 0.51663 0.0
H1627 H 0.5539 0.488 0.52692 0.0
H1628 H 0.47983 0.54146 0.60988 0.0
H1629 H 0.46886 0.50843 0.67237 0.0
H1630 H 0.50021 0.44944 0.57479 0.0
C1631 C 0.52483 0.52505 0.43475 0.0
C1632 C 0.5232 0.55209 0.42731 0.0
C1633 C 0.51131 0.56727 0.46496 0.0
C1634 C 0.50171 0.55624 0.50901 0.0
C1635 C 0.50391 0.52979 0.51555 0.0
C1636 C 0.51495 0.51425 0.4795 0.0
C1637 C 0.51468 0.48627 0.49678 0.0
C1638 C 0.4984 0.46963 0.46132 0.0
C1639 C 0.54225 0.47576 0.50142 0.0
C1640 C 0.50189 0.48871 0.54799 0.0
C1641 C 0.49598 0.51408 0.55786 0.0
C1642 C 0.48429 0.52149 0.60255 0.0
C1643 C 0.47819 0.50251 0.63801 0.0
C1644 C 0.48364 0.47621 0.62895 0.0
C1645 C 0.49581 0.46933 0.58315 0.0
H1646 H 0.25032 0.78046 0.64985 0.0
H1647 H 0.17608 0.75029 0.69765 0.0
H1648 H 0.19539 0.7345 0.77495 0.0
H1649 H 0.28805 0.72603 0.70271 0.0
H1650 H 0.3146 0.74609 0.72187 0.0
H1651 H 0.29543 0.755 0.66844 0.0
H1652 H 0.28633 0.79926 0.70894 0.0
H1653 H 0.30522 0.79036 0.76274 0.0
H1654 H 0.27229 0.80059 0.77059 0.0
H1655 H 0.22054 0.72512 0.85045 0.0
H1656 H 0.25251 0.7164 0.9158 0.0
H1657 H 0.31261 0.74845 0.82132 0.0
C1658 C 0.23829 0.77014 0.6762 0.0
C1659 C 0.21146 0.76694 0.66717 0.0
C1660 C 0.19652 0.75336 0.70314 0.0
C1661 C 0.2073 0.74426 0.74762 0.0
C1662 C 0.23336 0.74836 0.75613 0.0
C1663 C 0.24894 0.76041 0.72127 0.0
C1664 C 0.2766 0.76159 0.74062 0.0
C1665 C 0.29474 0.74626 0.70636 0.0
C1666 C 0.28564 0.78962 0.74603 0.0
C1667 C 0.27378 0.74865 0.7917 0.0
C1668 C 0.24851 0.74153 0.79971 0.0
C1669 C 0.24052 0.7302 0.84435 0.0
C1670 C 0.25891 0.72534 0.88149 0.0
C1671 C 0.28526 0.73132 0.87399 0.0
C1672 C 0.29268 0.74344 0.82837 0.0
H1673 H 1.00123 0.55492 0.09034 0.0
H1674 H 0.04986 0.50022 0.1686 0.0
H1675 H 0.04241 0.46849 0.10128 0.0
H1676 H 0.95448 0.50838 0.04425 0.0
H1677 H 0.95024 0.52466 0.98529 0.0
H1678 H 0.9589 0.54272 0.04023 0.0
H1679 H 0.99866 0.56097 0.99362 0.0
H1680 H 0.99034 0.5427 0.93873 0.0
H1681 H 0.02174 0.53913 0.96657 0.0
H1682 H 0.03099 0.4433 0.02428 0.0
H1683 H 0.01372 0.42469 0.94684 0.0
H1684 H 0.97186 0.49536 0.91721 0.0
C1685 C 0.01012 0.53616 0.09372 0.0
C1686 C 0.02612 0.53009 0.13517 0.0
C1687 C 0.03742 0.50534 0.13768 0.0
C1688 C 0.0334 0.48723 0.09937 0.0
C1689 C 0.01797 0.49406 0.05871 0.0
C1690 C 0.00627 0.51783 0.05585 0.0
C1691 C 0.99052 0.52026 1.00806 0.0
C1692 C 0.96183 0.52423 0.02019 0.0
C1693 C 1.00095 0.54206 0.97478 0.0
C1694 C 0.9952 0.49412 0.98434 0.0
C1695 C 0.01123 0.47944 1.01423 0.0
C1696 C 0.01837 0.45461 1.00076 0.0
C1697 C 0.00844 0.44423 0.9564 0.0
C1698 C 0.99138 0.45849 0.92549 0.0
C1699 C 0.98502 0.484 0.93951 0.0
H1700 H 0.74913 0.78306 0.88229 0.0
H1701 H 0.67389 0.7609 0.82538 0.0
H1702 H 0.69386 0.74464 0.74879 0.0
H1703 H 0.7757 0.80352 0.76434 0.0
H1704 H 0.80741 0.79062 0.77532 0.0
H1705 H 0.78766 0.80048 0.82734 0.0
H1706 H 0.79202 0.75522 0.86689 0.0
H1707 H 0.81199 0.74531 0.81523 0.0
H1708 H 0.78339 0.72726 0.8307 0.0
H1709 H 0.72094 0.73205 0.67619 0.0
H1710 H 0.75466 0.72042 0.6151 0.0
H1711 H 0.81312 0.74899 0.71707 0.0
C1712 C 0.73694 0.77453 0.85395 0.0
C1713 C 0.70981 0.77346 0.86034 0.0
C1714 C 0.69465 0.76219 0.8219 0.0
C1715 C 0.70579 0.75286 0.77786 0.0
C1716 C 0.73233 0.75463 0.77221 0.0
C1717 C 0.74785 0.76485 0.80927 0.0
C1718 C 0.77597 0.76401 0.79311 0.0
C1719 C 0.78735 0.79128 0.78984 0.0
C1720 C 0.79178 0.74693 0.82859 0.0
C1721 C 0.77361 0.75187 0.74144 0.0
C1722 C 0.74819 0.74681 0.73015 0.0
C1723 C 0.74098 0.73582 0.68464 0.0
C1724 C 0.76028 0.72937 0.64998 0.0
C1725 C 0.7866 0.73375 0.66095 0.0
C1726 C 0.7932 0.7454 0.70731 0.0
H1727 H 0.74749 0.28778 0.16731 0.0
H1728 H 0.67545 0.24968 0.20469 0.0
H1729 H 0.69498 0.23179 0.28045 0.0
H1730 H 0.78944 0.23542 0.21346 0.0
H1731 H 0.81343 0.25714 0.23781 0.0
H1732 H 0.79421 0.26646 0.18474 0.0
H1733 H 0.77991 0.30751 0.23192 0.0
H1734 H 0.79883 0.29814 0.28535 0.0
H1735 H 0.7649 0.30454 0.2925 0.0
H1736 H 0.72099 0.21951 0.35533 0.0
H1737 H 0.75373 0.2104 0.42006 0.0
H1738 H 0.80966 0.25508 0.33582 0.0
C1739 C 0.73603 0.2753 0.19098 0.0
C1740 C 0.70979 0.27032 0.17965 0.0
C1741 C 0.69548 0.25406 0.21225 0.0
C1742 C 0.70639 0.24373 0.2557 0.0
C1743 C 0.73188 0.24955 0.26665 0.0
C1744 C 0.74673 0.26462 0.23505 0.0
C1745 C 0.77373 0.26774 0.25638 0.0
C1746 C 0.7939 0.25599 0.22099 0.0
C1747 C 0.77969 0.29618 0.26717 0.0
C1748 C 0.77149 0.25228 0.3047 0.0
C1749 C 0.74711 0.24208 0.30992 0.0
C1750 C 0.74024 0.2273 0.35156 0.0
C1751 C 0.75893 0.22234 0.38841 0.0
C1752 C 0.78431 0.23199 0.38345 0.0
C1753 C 0.79044 0.24741 0.34105 0.0
H1754 H 0.04049 1.00399 0.90188 0.0
H1755 H 0.99451 0.07276 0.92509 0.0
H1756 H 0.97522 0.05354 0.99981 0.0
H1757 H 0.98927 0.95836 0.94586 0.0
H1758 H 0.01192 0.93714 0.97591 0.0
H1759 H 0.02159 0.95544 0.92172 0.0
H1760 H 0.05963 0.97456 0.97193 0.0
H1761 H 0.04988 0.95659 0.02643 0.0
H1762 H 0.05331 0.99105 0.02996 0.0
H1763 H 0.96378 0.02985 0.07649 0.0
H1764 H 0.95597 0.99963 0.14575 0.0
H1765 H 0.00623 0.94378 0.07462 0.0
C1766 C 0.0259 0.01467 0.92202 0.0
C1767 C 0.01921 0.04008 0.90723 0.0
C1768 C 1.00023 0.05343 0.93536 0.0
C1769 C 0.98909 0.04269 0.97818 0.0
C1770 C 0.99667 0.01821 0.99286 0.0
C1771 C 0.01417 1.004 0.96534 0.0
C1772 C 0.01866 0.97802 0.99059 0.0
C1773 C 0.00983 0.95593 0.95648 0.0
C1774 C 0.04706 0.97488 1.00561 0.0
C1775 C 1.00134 0.98029 0.03665 0.0
C1776 C 0.98908 1.00382 0.03707 0.0
C1777 C 0.97298 0.01118 0.07629 0.0
C1778 C 0.96879 0.99389 0.11579 0.0
C1779 C 0.98035 0.96922 0.11595 0.0
C1780 C 0.99697 0.96243 0.07566 0.0
H1781 H 0.51582 0.06936 0.56005 0.0
H1782 H 0.54068 0.00975 0.66324 0.0
H1783 H 0.52782 0.97669 0.60289 0.0
H1784 H 0.45943 0.03428 0.51388 0.0
H1785 H 0.46274 0.04527 0.45024 0.0
H1786 H 0.4741 0.06504 0.501 0.0
H1787 H 0.51934 0.0667 0.46048 0.0
H1788 H 0.50815 0.04684 0.4097 0.0
H1789 H 0.53574 0.03708 0.44588 0.0
H1790 H 0.51378 0.94982 0.53298 0.0
H1791 H 0.49642 0.92942 0.45824 0.0
H1792 H 0.47791 0.00451 0.39603 0.0
C1793 C 0.51848 0.04934 0.56993 0.0
C1794 C 0.52951 0.04235 0.61684 0.0
C1795 C 0.53248 0.01586 0.62798 0.0
C1796 C 0.52522 0.9968 0.59375 0.0
C1797 C 0.5147 0.00425 0.54809 0.0
C1798 C 0.51103 0.02978 0.53596 0.0
C1799 C 0.49872 0.03197 0.48411 0.0
C1800 C 0.47217 0.04491 0.48752 0.0
C1801 C 0.51655 0.04651 0.4479 0.0
C1802 C 0.4962 1.00367 0.46927 0.0
C1803 C 0.50579 0.98827 0.50707 0.0
C1804 C 0.50609 0.96165 0.50323 0.0
C1805 C 0.49607 0.95023 0.46012 0.0
C1806 C 0.48552 0.96513 0.42052 0.0
C1807 C 0.48579 0.99243 0.42523 0.0
loop_
_geom_bond_atom_site_label_1
_geom_bond_atom_site_label_2
_geom_bond_distance
_geom_bond_site_symmetry_2
_ccdc_geom_bond_type
Zn0 O1 2.055 . S
Zn0 O8 2.046 1_554 S
Zn0 N16 2.036 1_554 S
Zn0 O28 2.053 1_554 S
Zn0 O30 2.066 . S
O1 Zn0 2.055 . S
O1 C4 1.259 . S
C2 O30 1.256 . S
C2 O31 1.244 . S
Zn3 O5 2.046 . S
Zn3 O7 2.055 . S
Zn3 N9 2.036 . S
Zn3 O27 2.066 . S
Zn3 O31 2.053 . S
C4 O1 1.259 . S
C4 O5 1.254 . S
O5 Zn3 2.046 . S
O5 C4 1.254 . S
C6 O27 1.256 1_556 S
C6 O28 1.244 . S
O7 Zn3 2.055 . S
O7 C29 1.259 1_554 S
O8 Zn0 2.046 1_556 S
O8 C29 1.254 . S
N9 Zn3 2.036 . S
N9 C10 1.298 . S
N9 N12 1.398 . S
C10 N9 1.298 . S
C10 N13 1.367 . S
C10 C23 1.481 . S
C11 N12 1.299 . S
C11 N13 1.379 . S
N12 N9 1.398 . S
N12 C11 1.299 . S
N13 C10 1.367 . S
N13 C11 1.379 . S
C14 N16 1.298 1_554 S
C14 N18 1.367 1_554 S
C14 C22 1.481 . S
C15 N17 1.299 . S
C15 N18 1.379 . S
N16 Zn0 2.036 1_556 S
N16 C14 1.298 1_556 S
N16 N17 1.398 . S
N17 C15 1.299 . S
N17 N16 1.398 . S
N18 C14 1.367 1_556 S
N18 C15 1.379 . S
H19 C22 0.980 . S
H20 C22 0.981 . S
H21 C22 0.981 . S
C22 C14 1.481 . S
C22 H19 0.980 . S
C22 H20 0.981 . S
C22 H21 0.981 . S
C23 C10 1.481 . S
C23 H24 0.980 . S
C23 H25 0.981 . S
C23 H26 0.981 . S
H24 C23 0.980 . S
H25 C23 0.981 . S
H26 C23 0.981 . S
O27 Zn3 2.066 . S
O27 C6 1.256 1_554 S
O28 Zn0 2.053 1_556 S
O28 C6 1.244 . S
C29 O7 1.259 1_556 S
C29 O8 1.254 . S
O30 Zn0 2.066 . S
O30 C2 1.256 . S
O31 C2 1.244 . S
O31 Zn3 2.053 . S
Zn32 O33 2.055 . S
Zn32 O40 2.046 . S
Zn32 N48 2.036 . S
Zn32 O60 2.053 . S
Zn32 O62 2.066 . S
O33 Zn32 2.055 . S
O33 C36 1.259 . S
C34 O62 1.256 . S
C34 O63 1.244 . S
Zn35 O37 2.046 . S
Zn35 O39 2.055 . S
Zn35 N41 2.036 . S
Zn35 O59 2.066 . S
Zn35 O63 2.053 . S
C36 O33 1.259 . S
C36 O37 1.254 . S
O37 Zn35 2.046 . S
O37 C36 1.254 . S
C38 O59 1.256 . S
C38 O60 1.244 . S
O39 Zn35 2.055 . S
O39 C61 1.259 . S
O40 Zn32 2.046 . S
O40 C61 1.254 . S
N41 Zn35 2.036 . S
N41 C42 1.298 . S
N41 N44 1.398 . S
C42 N41 1.298 . S
C42 N45 1.367 . S
C42 C55 1.481 . S
C43 N44 1.299 . S
C43 N45 1.379 . S
N44 N41 1.398 . S
N44 C43 1.299 . S
N45 C42 1.367 . S
N45 C43 1.379 . S
C46 N48 1.298 . S
C46 N50 1.367 . S
C46 C54 1.481 . S
C47 N49 1.299 . S
C47 N50 1.379 . S
N48 Zn32 2.036 . S
N48 C46 1.298 . S
N48 N49 1.398 . S
N49 C47 1.299 . S
N49 N48 1.398 . S
N50 C46 1.367 . S
N50 C47 1.379 . S
H51 C54 0.980 . S
H52 C54 0.981 . S
H53 C54 0.981 . S
C54 C46 1.481 . S
C54 H51 0.980 . S
C54 H52 0.981 . S
C54 H53 0.981 . S
C55 C42 1.481 . S
C55 H56 0.980 . S
C55 H57 0.981 . S
C55 H58 0.981 . S
H56 C55 0.980 . S
H57 C55 0.981 . S
H58 C55 0.981 . S
O59 Zn35 2.066 . S
O59 C38 1.256 . S
O60 Zn32 2.053 . S
O60 C38 1.244 . S
C61 O39 1.259 . S
C61 O40 1.254 . S
O62 Zn32 2.066 . S
O62 C34 1.256 . S
O63 C34 1.244 . S
O63 Zn35 2.053 . S
Zn64 O65 2.055 . S
Zn64 O72 2.046 . S
Zn64 N80 2.036 . S
Zn64 O92 2.053 . S
Zn64 O94 2.066 . S
O65 Zn64 2.055 . S
O65 C68 1.259 . S
C66 O94 1.256 . S
C66 O95 1.244 . S
Zn67 O69 2.046 . S
Zn67 O71 2.055 . S
Zn67 N73 2.036 . S
Zn67 O91 2.066 . S
Zn67 O95 2.053 . S
C68 O65 1.259 . S
C68 O69 1.254 . S
O69 Zn67 2.046 . S
O69 C68 1.254 . S
C70 O91 1.256 . S
C70 O92 1.244 . S
O71 Zn67 2.055 . S
O71 C93 1.259 . S
O72 Zn64 2.046 . S
O72 C93 1.254 . S
N73 Zn67 2.036 . S
N73 C74 1.298 . S
N73 N76 1.398 . S
C74 N73 1.298 . S
C74 N77 1.367 . S
C74 C87 1.481 . S
C75 N76 1.299 . S
C75 N77 1.379 . S
N76 N73 1.398 . S
N76 C75 1.299 . S
N77 C74 1.367 . S
N77 C75 1.379 . S
C78 N80 1.298 . S
C78 N82 1.367 . S
C78 C86 1.481 . S
C79 N81 1.299 . S
C79 N82 1.379 . S
N80 Zn64 2.036 . S
N80 C78 1.298 . S
N80 N81 1.398 . S
N81 C79 1.299 . S
N81 N80 1.398 . S
N82 C78 1.367 . S
N82 C79 1.379 . S
H83 C86 0.980 . S
H84 C86 0.981 . S
H85 C86 0.981 . S
C86 C78 1.481 . S
C86 H83 0.980 . S
C86 H84 0.981 . S
C86 H85 0.981 . S
C87 C74 1.481 . S
C87 H88 0.980 . S
C87 H89 0.981 . S
C87 H90 0.981 . S
H88 C87 0.980 . S
H89 C87 0.981 . S
H90 C87 0.981 . S
O91 Zn67 2.066 . S
O91 C70 1.256 . S
O92 Zn64 2.053 . S
O92 C70 1.244 . S
C93 O71 1.259 . S
C93 O72 1.254 . S
O94 Zn64 2.066 . S
O94 C66 1.256 . S
O95 C66 1.244 . S
O95 Zn67 2.053 . S
Zn96 O97 2.055 . S
Zn96 O104 2.046 . S
Zn96 N112 2.036 . S
Zn96 O124 2.053 . S
Zn96 O126 2.066 . S
O97 Zn96 2.055 . S
O97 C100 1.259 . S
C98 O126 1.256 . S
C98 O127 1.244 . S
Zn99 O101 2.046 . S
Zn99 O103 2.055 . S
Zn99 N105 2.036 . S
Zn99 O123 2.066 . S
Zn99 O127 2.053 . S
C100 O97 1.259 . S
C100 O101 1.254 . S
O101 Zn99 2.046 . S
O101 C100 1.254 . S
C102 O123 1.256 . S
C102 O124 1.244 . S
O103 Zn99 2.055 . S
O103 C125 1.259 . S
O104 Zn96 2.046 . S
O104 C125 1.254 . S
N105 Zn99 2.036 . S
N105 C106 1.298 . S
N105 N108 1.398 . S
C106 N105 1.298 . S
C106 N109 1.367 . S
C106 C119 1.481 . S
C107 N108 1.299 . S
C107 N109 1.379 . S
N108 N105 1.398 . S
N108 C107 1.299 . S
N109 C106 1.367 . S
N109 C107 1.379 . S
C110 N112 1.298 . S
C110 N114 1.367 . S
C110 C118 1.481 . S
C111 N113 1.299 . S
C111 N114 1.379 . S
N112 Zn96 2.036 . S
N112 C110 1.298 . S
N112 N113 1.398 . S
N113 C111 1.299 . S
N113 N112 1.398 . S
N114 C110 1.367 . S
N114 C111 1.379 . S
H115 C118 0.980 . S
H116 C118 0.981 . S
H117 C118 0.981 . S
C118 C110 1.481 . S
C118 H115 0.980 . S
C118 H116 0.981 . S
C118 H117 0.981 . S
C119 C106 1.481 . S
C119 H120 0.980 . S
C119 H121 0.981 . S
C119 H122 0.981 . S
H120 C119 0.980 . S
H121 C119 0.981 . S
H122 C119 0.981 . S
O123 Zn99 2.066 . S
O123 C102 1.256 . S
O124 Zn96 2.053 . S
O124 C102 1.244 . S
C125 O103 1.259 . S
C125 O104 1.254 . S
O126 Zn96 2.066 . S
O126 C98 1.256 . S
O127 C98 1.244 . S
O127 Zn99 2.053 . S
Zn128 O129 2.055 . S
Zn128 O136 2.046 . S
Zn128 N144 2.036 . S
Zn128 O156 2.053 . S
Zn128 O158 2.066 . S
O129 Zn128 2.055 . S
O129 C132 1.259 1_556 S
C130 O158 1.256 1_554 S
C130 O159 1.244 . S
Zn131 O133 2.046 1_556 S
Zn131 O135 2.055 . S
Zn131 N137 2.036 1_556 S
Zn131 O155 2.066 . S
Zn131 O159 2.053 1_556 S
C132 O129 1.259 1_554 S
C132 O133 1.254 . S
O133 Zn131 2.046 1_554 S
O133 C132 1.254 . S
C134 O155 1.256 . S
C134 O156 1.244 . S
O135 Zn131 2.055 . S
O135 C157 1.259 . S
O136 Zn128 2.046 . S
O136 C157 1.254 . S
N137 Zn131 2.036 1_554 S
N137 C138 1.298 1_554 S
N137 N140 1.398 . S
C138 N137 1.298 1_556 S
C138 N141 1.367 1_556 S
C138 C151 1.481 . S
C139 N140 1.299 . S
C139 N141 1.379 . S
N140 N137 1.398 . S
N140 C139 1.299 . S
N141 C138 1.367 1_554 S
N141 C139 1.379 . S
C142 N144 1.298 . S
C142 N146 1.367 . S
C142 C150 1.481 . S
C143 N145 1.299 . S
C143 N146 1.379 . S
N144 Zn128 2.036 . S
N144 C142 1.298 . S
N144 N145 1.398 . S
N145 C143 1.299 . S
N145 N144 1.398 . S
N146 C142 1.367 . S
N146 C143 1.379 . S
H147 C150 0.980 . S
H148 C150 0.981 . S
H149 C150 0.981 . S
C150 C142 1.481 . S
C150 H147 0.980 . S
C150 H148 0.981 . S
C150 H149 0.981 . S
C151 C138 1.481 . S
C151 H152 0.980 . S
C151 H153 0.981 . S
C151 H154 0.981 . S
H152 C151 0.980 . S
H153 C151 0.981 . S
H154 C151 0.981 . S
O155 Zn131 2.066 . S
O155 C134 1.256 . S
O156 Zn128 2.053 . S
O156 C134 1.244 . S
C157 O135 1.259 . S
C157 O136 1.254 . S
O158 Zn128 2.066 . S
O158 C130 1.256 1_556 S
O159 C130 1.244 . S
O159 Zn131 2.053 1_554 S
Zn160 O161 2.055 . S
Zn160 O168 2.046 . S
Zn160 N176 2.036 . S
Zn160 O188 2.053 . S
Zn160 O190 2.066 . S
O161 Zn160 2.055 . S
O161 C164 1.259 . S
C162 O190 1.256 . S
C162 O191 1.244 . S
Zn163 O165 2.046 . S
Zn163 O167 2.055 . S
Zn163 N169 2.036 . S
Zn163 O187 2.066 . S
Zn163 O191 2.053 . S
C164 O161 1.259 . S
C164 O165 1.254 . S
O165 Zn163 2.046 . S
O165 C164 1.254 . S
C166 O187 1.256 . S
C166 O188 1.244 . S
O167 Zn163 2.055 . S
O167 C189 1.259 . S
O168 Zn160 2.046 . S
O168 C189 1.254 . S
N169 Zn163 2.036 . S
N169 C170 1.298 . S
N169 N172 1.398 . S
C170 N169 1.298 . S
C170 N173 1.367 . S
C170 C183 1.481 . S
C171 N172 1.299 . S
C171 N173 1.379 . S
N172 N169 1.398 . S
N172 C171 1.299 . S
N173 C170 1.367 . S
N173 C171 1.379 . S
C174 N176 1.298 . S
C174 N178 1.367 . S
C174 C182 1.481 . S
C175 N177 1.299 . S
C175 N178 1.379 . S
N176 Zn160 2.036 . S
N176 C174 1.298 . S
N176 N177 1.398 . S
N177 C175 1.299 . S
N177 N176 1.398 . S
N178 C174 1.367 . S
N178 C175 1.379 . S
H179 C182 0.980 . S
H180 C182 0.981 . S
H181 C182 0.981 . S
C182 C174 1.481 . S
C182 H179 0.980 . S
C182 H180 0.981 . S
C182 H181 0.981 . S
C183 C170 1.481 . S
C183 H184 0.980 . S
C183 H185 0.981 . S
C183 H186 0.981 . S
H184 C183 0.980 . S
H185 C183 0.981 . S
H186 C183 0.981 . S
O187 Zn163 2.066 . S
O187 C166 1.256 . S
O188 Zn160 2.053 . S
O188 C166 1.244 . S
C189 O167 1.259 . S
C189 O168 1.254 . S
O190 Zn160 2.066 . S
O190 C162 1.256 . S
O191 C162 1.244 . S
O191 Zn163 2.053 . S
Zn192 O193 2.055 . S
Zn192 O200 2.046 . S
Zn192 N208 2.036 . S
Zn192 O220 2.053 . S
Zn192 O222 2.066 . S
O193 Zn192 2.055 . S
O193 C196 1.259 . S
C194 O222 1.256 . S
C194 O223 1.244 . S
Zn195 O197 2.046 . S
Zn195 O199 2.055 . S
Zn195 N201 2.036 . S
Zn195 O219 2.066 . S
Zn195 O223 2.053 . S
C196 O193 1.259 . S
C196 O197 1.254 . S
O197 Zn195 2.046 . S
O197 C196 1.254 . S
C198 O219 1.256 . S
C198 O220 1.244 . S
O199 Zn195 2.055 . S
O199 C221 1.259 . S
O200 Zn192 2.046 . S
O200 C221 1.254 . S
N201 Zn195 2.036 . S
N201 C202 1.298 . S
N201 N204 1.398 . S
C202 N201 1.298 . S
C202 N205 1.367 . S
C202 C215 1.481 . S
C203 N204 1.299 . S
C203 N205 1.379 . S
N204 N201 1.398 . S
N204 C203 1.299 . S
N205 C202 1.367 . S
N205 C203 1.379 . S
C206 N208 1.298 . S
C206 N210 1.367 . S
C206 C214 1.481 . S
C207 N209 1.299 . S
C207 N210 1.379 . S
N208 Zn192 2.036 . S
N208 C206 1.298 . S
N208 N209 1.398 . S
N209 C207 1.299 . S
N209 N208 1.398 . S
N210 C206 1.367 . S
N210 C207 1.379 . S
H211 C214 0.980 . S
H212 C214 0.981 . S
H213 C214 0.981 . S
C214 C206 1.481 . S
C214 H211 0.980 . S
C214 H212 0.981 . S
C214 H213 0.981 . S
C215 C202 1.481 . S
C215 H216 0.980 . S
C215 H217 0.981 . S
C215 H218 0.981 . S
H216 C215 0.980 . S
H217 C215 0.981 . S
H218 C215 0.981 . S
O219 Zn195 2.066 . S
O219 C198 1.256 . S
O220 Zn192 2.053 . S
O220 C198 1.244 . S
C221 O199 1.259 . S
C221 O200 1.254 . S
O222 Zn192 2.066 . S
O222 C194 1.256 . S
O223 C194 1.244 . S
O223 Zn195 2.053 . S
Zn224 O225 2.055 . S
Zn224 O232 2.046 . S
Zn224 N240 2.036 . S
Zn224 O252 2.053 . S
Zn224 O254 2.066 . S
O225 Zn224 2.055 . S
O225 C228 1.259 . S
C226 O254 1.256 . S
C226 O255 1.244 . S
Zn227 O229 2.046 . S
Zn227 O231 2.055 . S
Zn227 N233 2.036 . S
Zn227 O251 2.066 . S
Zn227 O255 2.053 . S
C228 O225 1.259 . S
C228 O229 1.254 . S
O229 Zn227 2.046 . S
O229 C228 1.254 . S
C230 O251 1.256 . S
C230 O252 1.244 . S
O231 Zn227 2.055 . S
O231 C253 1.259 . S
O232 Zn224 2.046 . S
O232 C253 1.254 . S
N233 Zn227 2.036 . S
N233 C234 1.298 . S
N233 N236 1.398 . S
C234 N233 1.298 . S
C234 N237 1.367 . S
C234 C247 1.481 . S
C235 N236 1.299 . S
C235 N237 1.379 . S
N236 N233 1.398 . S
N236 C235 1.299 . S
N237 C234 1.367 . S
N237 C235 1.379 . S
C238 N240 1.298 . S
C238 N242 1.367 . S
C238 C246 1.481 . S
C239 N241 1.299 . S
C239 N242 1.379 . S
N240 Zn224 2.036 . S
N240 C238 1.298 . S
N240 N241 1.398 . S
N241 C239 1.299 . S
N241 N240 1.398 . S
N242 C238 1.367 . S
N242 C239 1.379 . S
H243 C246 0.980 . S
H244 C246 0.981 . S
H245 C246 0.981 . S
C246 C238 1.481 . S
C246 H243 0.980 . S
C246 H244 0.981 . S
C246 H245 0.981 . S
C247 C234 1.481 . S
C247 H248 0.980 . S
C247 H249 0.981 . S
C247 H250 0.981 . S
H248 C247 0.980 . S
H249 C247 0.981 . S
H250 C247 0.981 . S
O251 Zn227 2.066 . S
O251 C230 1.256 . S
O252 Zn224 2.053 . S
O252 C230 1.244 . S
C253 O231 1.259 . S
C253 O232 1.254 . S
O254 Zn224 2.066 . S
O254 C226 1.256 . S
O255 C226 1.244 . S
O255 Zn227 2.053 . S
Zn256 O257 2.055 . S
Zn256 O264 2.046 . S
Zn256 N272 2.036 . S
Zn256 O284 2.053 . S
Zn256 O286 2.066 . S
O257 Zn256 2.055 . S
O257 C260 1.259 . S
C258 O286 1.256 . S
C258 O287 1.244 . S
Zn259 O261 2.046 . S
Zn259 O263 2.055 . S
Zn259 N265 2.036 . S
Zn259 O283 2.066 . S
Zn259 O287 2.053 . S
C260 O257 1.259 . S
C260 O261 1.254 . S
O261 Zn259 2.046 . S
O261 C260 1.254 . S
C262 O283 1.256 . S
C262 O284 1.244 . S
O263 Zn259 2.055 . S
O263 C285 1.259 . S
O264 Zn256 2.046 . S
O264 C285 1.254 . S
N265 Zn259 2.036 . S
N265 C266 1.298 . S
N265 N268 1.398 . S
C266 N265 1.298 . S
C266 N269 1.367 . S
C266 C279 1.481 . S
C267 N268 1.299 . S
C267 N269 1.379 . S
N268 N265 1.398 . S
N268 C267 1.299 . S
N269 C266 1.367 . S
N269 C267 1.379 . S
C270 N272 1.298 . S
C270 N274 1.367 . S
C270 C278 1.481 . S
C271 N273 1.299 . S
C271 N274 1.379 . S
N272 Zn256 2.036 . S
N272 C270 1.298 . S
N272 N273 1.398 . S
N273 C271 1.299 . S
N273 N272 1.398 . S
N274 C270 1.367 . S
N274 C271 1.379 . S
H275 C278 0.980 . S
H276 C278 0.981 . S
H277 C278 0.981 . S
C278 C270 1.481 . S
C278 H275 0.980 . S
C278 H276 0.981 . S
C278 H277 0.981 . S
C279 C266 1.481 . S
C279 H280 0.980 . S
C279 H281 0.981 . S
C279 H282 0.981 . S
H280 C279 0.980 . S
H281 C279 0.981 . S
H282 C279 0.981 . S
O283 Zn259 2.066 . S
O283 C262 1.256 . S
O284 Zn256 2.053 . S
O284 C262 1.244 . S
C285 O263 1.259 . S
C285 O264 1.254 . S
O286 Zn256 2.066 . S
O286 C258 1.256 . S
O287 C258 1.244 . S
O287 Zn259 2.053 . S
Zn288 O289 2.055 . S
Zn288 O296 2.046 . S
Zn288 N304 2.036 . S
Zn288 O316 2.053 . S
Zn288 O318 2.066 . S
O289 Zn288 2.055 . S
O289 C292 1.259 . S
C290 O318 1.256 . S
C290 O319 1.244 . S
Zn291 O293 2.046 . S
Zn291 O295 2.055 . S
Zn291 N297 2.036 . S
Zn291 O315 2.066 . S
Zn291 O319 2.053 . S
C292 O289 1.259 . S
C292 O293 1.254 . S
O293 Zn291 2.046 . S
O293 C292 1.254 . S
C294 O315 1.256 . S
C294 O316 1.244 . S
O295 Zn291 2.055 . S
O295 C317 1.259 . S
O296 Zn288 2.046 . S
O296 C317 1.254 . S
N297 Zn291 2.036 . S
N297 C298 1.298 . S
N297 N300 1.398 . S
C298 N297 1.298 . S
C298 N301 1.392 . S
C298 C311 1.481 . S
C299 N300 1.299 . S
C299 N301 1.390 . S
N300 N297 1.398 . S
N300 C299 1.299 . S
N301 C298 1.392 . S
N301 C299 1.390 . S
C302 N304 1.298 . S
C302 N306 1.367 . S
C302 C310 1.481 . S
C303 N305 1.299 . S
C303 N306 1.379 . S
N304 Zn288 2.036 . S
N304 C302 1.298 . S
N304 N305 1.398 . S
N305 C303 1.299 . S
N305 N304 1.398 . S
N306 C302 1.367 . S
N306 C303 1.379 . S
H307 C310 0.980 . S
H308 C310 0.981 . S
H309 C310 0.981 . S
C310 C302 1.481 . S
C310 H307 0.980 . S
C310 H308 0.981 . S
C310 H309 0.981 . S
C311 C298 1.481 . S
C311 H312 0.980 . S
C311 H313 0.981 . S
C311 H314 0.981 . S
H312 C311 0.980 . S
H313 C311 0.981 . S
H314 C311 0.981 . S
O315 Zn291 2.066 . S
O315 C294 1.256 . S
O316 Zn288 2.053 . S
O316 C294 1.244 . S
C317 O295 1.259 . S
C317 O296 1.254 . S
O318 Zn288 2.066 . S
O318 C290 1.256 . S
O319 C290 1.244 . S
O319 Zn291 2.053 . S
Zn320 O321 2.055 . S
Zn320 O328 2.046 . S
Zn320 N336 2.036 . S
Zn320 O348 2.053 . S
Zn320 O350 2.066 . S
O321 Zn320 2.055 . S
O321 C324 1.259 1_554 S
C322 O350 1.256 1_556 S
C322 O351 1.244 . S
Zn323 O325 2.046 1_554 S
Zn323 O327 2.055 . S
Zn323 N329 2.036 1_554 S
Zn323 O347 2.066 . S
Zn323 O351 2.053 1_554 S
C324 O321 1.259 1_556 S
C324 O325 1.254 . S
O325 Zn323 2.046 1_556 S
O325 C324 1.254 . S
C326 O347 1.256 . S
C326 O348 1.244 . S
O327 Zn323 2.055 . S
O327 C349 1.259 . S
O328 Zn320 2.046 . S
O328 C349 1.254 . S
N329 Zn323 2.036 1_556 S
N329 C330 1.298 1_556 S
N329 N332 1.398 . S
C330 N329 1.298 1_554 S
C330 N333 1.367 1_554 S
C330 C343 1.481 . S
C331 N332 1.299 . S
C331 N333 1.379 . S
N332 N329 1.398 . S
N332 C331 1.299 . S
N333 C330 1.367 1_556 S
N333 C331 1.379 . S
C334 N336 1.298 . S
C334 N338 1.367 . S
C334 C342 1.481 . S
C335 N337 1.299 . S
C335 N338 1.379 . S
N336 Zn320 2.036 . S
N336 C334 1.298 . S
N336 N337 1.398 . S
N337 C335 1.299 . S
N337 N336 1.398 . S
N338 C334 1.367 . S
N338 C335 1.379 . S
H339 C342 0.980 . S
H340 C342 0.981 . S
H341 C342 0.981 . S
C342 C334 1.481 . S
C342 H339 0.980 . S
C342 H340 0.981 . S
C342 H341 0.981 . S
C343 C330 1.481 . S
C343 H344 0.980 . S
C343 H345 0.981 . S
C343 H346 0.981 . S
H344 C343 0.980 . S
H345 C343 0.981 . S
H346 C343 0.981 . S
O347 Zn323 2.066 . S
O347 C326 1.256 . S
O348 Zn320 2.053 . S
O348 C326 1.244 . S
C349 O327 1.259 . S
C349 O328 1.254 . S
O350 Zn320 2.066 . S
O350 C322 1.256 1_554 S
O351 C322 1.244 . S
O351 Zn323 2.053 1_556 S
Zn352 O353 2.055 . S
Zn352 O360 2.046 . S
Zn352 N368 2.036 . S
Zn352 O380 2.053 . S
Zn352 O382 2.066 . S
O353 Zn352 2.055 . S
O353 C356 1.259 . S
C354 O382 1.256 . S
C354 O383 1.244 . S
Zn355 O357 2.046 . S
Zn355 O359 2.055 . S
Zn355 N361 2.036 . S
Zn355 O379 2.066 . S
Zn355 O383 2.053 . S
C356 O353 1.259 . S
C356 O357 1.254 . S
O357 Zn355 2.046 . S
O357 C356 1.254 . S
C358 O379 1.256 . S
C358 O380 1.244 . S
O359 Zn355 2.055 . S
O359 C381 1.259 . S
O360 Zn352 2.046 . S
O360 C381 1.254 . S
N361 Zn355 2.036 . S
N361 C362 1.298 . S
N361 N364 1.398 . S
C362 N361 1.298 . S
C362 N365 1.392 . S
C362 C375 1.481 . S
C363 N364 1.299 . S
C363 N365 1.390 . S
N364 N361 1.398 . S
N364 C363 1.299 . S
N365 C362 1.392 . S
N365 C363 1.390 . S
C366 N368 1.298 . S
C366 N370 1.367 . S
C366 C374 1.481 . S
C367 N369 1.299 . S
C367 N370 1.379 . S
N368 Zn352 2.036 . S
N368 C366 1.298 . S
N368 N369 1.398 . S
N369 C367 1.299 . S
N369 N368 1.398 . S
N370 C366 1.367 . S
N370 C367 1.379 . S
H371 C374 0.980 . S
H372 C374 0.981 . S
H373 C374 0.981 . S
C374 C366 1.481 . S
C374 H371 0.980 . S
C374 H372 0.981 . S
C374 H373 0.981 . S
C375 C362 1.481 . S
C375 H376 0.980 . S
C375 H377 0.981 . S
C375 H378 0.981 . S
H376 C375 0.980 . S
H377 C375 0.981 . S
H378 C375 0.981 . S
O379 Zn355 2.066 . S
O379 C358 1.256 . S
O380 Zn352 2.053 . S
O380 C358 1.244 . S
C381 O359 1.259 . S
C381 O360 1.254 . S
O382 Zn352 2.066 . S
O382 C354 1.256 . S
O383 C354 1.244 . S
O383 Zn355 2.053 . S
Zn384 O385 2.055 . S
Zn384 O392 2.046 . S
Zn384 N400 2.036 . S
Zn384 O412 2.053 . S
Zn384 O414 2.066 . S
O385 Zn384 2.055 . S
O385 C388 1.259 . S
C386 O414 1.256 . S
C386 O415 1.244 . S
Zn387 O389 2.046 . S
Zn387 O391 2.055 . S
Zn387 N393 2.036 . S
Zn387 O411 2.066 . S
Zn387 O415 2.053 . S
C388 O385 1.259 . S
C388 O389 1.254 . S
O389 Zn387 2.046 . S
O389 C388 1.254 . S
C390 O411 1.256 . S
C390 O412 1.244 . S
O391 Zn387 2.055 . S
O391 C413 1.259 . S
O392 Zn384 2.046 . S
O392 C413 1.254 . S
N393 Zn387 2.036 . S
N393 C394 1.298 . S
N393 N396 1.398 . S
C394 N393 1.298 . S
C394 N397 1.367 . S
C394 C407 1.481 . S
C395 N396 1.299 . S
C395 N397 1.379 . S
N396 N393 1.398 . S
N396 C395 1.299 . S
N397 C394 1.367 . S
N397 C395 1.379 . S
C398 N400 1.298 . S
C398 N402 1.367 . S
C398 C406 1.481 . S
C399 N401 1.299 . S
C399 N402 1.379 . S
N400 Zn384 2.036 . S
N400 C398 1.298 . S
N400 N401 1.398 . S
N401 C399 1.299 . S
N401 N400 1.398 . S
N402 C398 1.367 . S
N402 C399 1.379 . S
H403 C406 0.980 . S
H404 C406 0.981 . S
H405 C406 0.981 . S
C406 C398 1.481 . S
C406 H403 0.980 . S
C406 H404 0.981 . S
C406 H405 0.981 . S
C407 C394 1.481 . S
C407 H408 0.980 . S
C407 H409 0.981 . S
C407 H410 0.981 . S
H408 C407 0.980 . S
H409 C407 0.981 . S
H410 C407 0.981 . S
O411 Zn387 2.066 . S
O411 C390 1.256 . S
O412 Zn384 2.053 . S
O412 C390 1.244 . S
C413 O391 1.259 . S
C413 O392 1.254 . S
O414 Zn384 2.066 . S
O414 C386 1.256 . S
O415 C386 1.244 . S
O415 Zn387 2.053 . S
Zn416 O417 2.055 . S
Zn416 O424 2.046 . S
Zn416 N432 2.036 . S
Zn416 O444 2.053 . S
Zn416 O446 2.066 . S
O417 Zn416 2.055 . S
O417 C420 1.259 . S
C418 O446 1.256 . S
C418 O447 1.244 . S
Zn419 O421 2.046 . S
Zn419 O423 2.055 . S
Zn419 N425 2.036 . S
Zn419 O443 2.066 . S
Zn419 O447 2.053 . S
C420 O417 1.259 . S
C420 O421 1.254 . S
O421 Zn419 2.046 . S
O421 C420 1.254 . S
C422 O443 1.256 . S
C422 O444 1.244 . S
O423 Zn419 2.055 . S
O423 C445 1.259 . S
O424 Zn416 2.046 . S
O424 C445 1.254 . S
N425 Zn419 2.036 . S
N425 C426 1.298 . S
N425 N428 1.398 . S
C426 N425 1.298 . S
C426 N429 1.392 . S
C426 C439 1.481 . S
C427 N428 1.299 . S
C427 N429 1.390 . S
N428 N425 1.398 . S
N428 C427 1.299 . S
N429 C426 1.392 . S
N429 C427 1.390 . S
C430 N432 1.298 . S
C430 N434 1.367 . S
C430 C438 1.481 . S
C431 N433 1.299 . S
C431 N434 1.379 . S
N432 Zn416 2.036 . S
N432 C430 1.298 . S
N432 N433 1.398 . S
N433 C431 1.299 . S
N433 N432 1.398 . S
N434 C430 1.367 . S
N434 C431 1.379 . S
H435 C438 0.980 . S
H436 C438 0.981 . S
H437 C438 0.981 . S
C438 C430 1.481 . S
C438 H435 0.980 . S
C438 H436 0.981 . S
C438 H437 0.981 . S
C439 C426 1.481 . S
C439 H440 0.980 . S
C439 H441 0.981 . S
C439 H442 0.981 . S
H440 C439 0.980 . S
H441 C439 0.981 . S
H442 C439 0.981 . S
O443 Zn419 2.066 . S
O443 C422 1.256 . S
O444 Zn416 2.053 . S
O444 C422 1.244 . S
C445 O423 1.259 . S
C445 O424 1.254 . S
O446 Zn416 2.066 . S
O446 C418 1.256 . S
O447 C418 1.244 . S
O447 Zn419 2.053 . S
Zn448 O449 2.055 . S
Zn448 O456 2.046 1_556 S
Zn448 N464 2.036 1_556 S
Zn448 O476 2.053 1_556 S
Zn448 O478 2.066 . S
O449 Zn448 2.055 . S
O449 C452 1.259 . S
C450 O478 1.256 . S
C450 O479 1.244 . S
Zn451 O453 2.046 . S
Zn451 O455 2.055 . S
Zn451 N457 2.036 . S
Zn451 O475 2.066 . S
Zn451 O479 2.053 . S
C452 O449 1.259 . S
C452 O453 1.254 . S
O453 Zn451 2.046 . S
O453 C452 1.254 . S
C454 O475 1.256 1_554 S
C454 O476 1.244 . S
O455 Zn451 2.055 . S
O455 C477 1.259 1_556 S
O456 Zn448 2.046 1_554 S
O456 C477 1.254 . S
N457 Zn451 2.036 . S
N457 C458 1.298 . S
N457 N460 1.398 . S
C458 N457 1.298 . S
C458 N461 1.367 . S
C458 C471 1.481 . S
C459 N460 1.299 . S
C459 N461 1.379 . S
N460 N457 1.398 . S
N460 C459 1.299 . S
N461 C458 1.367 . S
N461 C459 1.379 . S
C462 N464 1.298 1_556 S
C462 N466 1.367 1_556 S
C462 C470 1.481 . S
C463 N465 1.299 . S
C463 N466 1.379 . S
N464 Zn448 2.036 1_554 S
N464 C462 1.298 1_554 S
N464 N465 1.398 . S
N465 C463 1.299 . S
N465 N464 1.398 . S
N466 C462 1.367 1_554 S
N466 C463 1.379 . S
H467 C470 0.980 . S
H468 C470 0.981 . S
H469 C470 0.981 . S
C470 C462 1.481 . S
C470 H467 0.980 . S
C470 H468 0.981 . S
C470 H469 0.981 . S
C471 C458 1.481 . S
C471 H472 0.980 . S
C471 H473 0.981 . S
C471 H474 0.981 . S
H472 C471 0.980 . S
H473 C471 0.981 . S
H474 C471 0.981 . S
O475 Zn451 2.066 . S
O475 C454 1.256 1_556 S
O476 Zn448 2.053 1_554 S
O476 C454 1.244 . S
C477 O455 1.259 1_554 S
C477 O456 1.254 . S
O478 Zn448 2.066 . S
O478 C450 1.256 . S
O479 C450 1.244 . S
O479 Zn451 2.053 . S
Zn480 O481 2.055 . S
Zn480 O488 2.046 . S
Zn480 N496 2.036 . S
Zn480 O508 2.053 . S
Zn480 O510 2.066 . S
O481 Zn480 2.055 . S
O481 C484 1.259 . S
C482 O510 1.256 . S
C482 O511 1.244 . S
Zn483 O485 2.046 . S
Zn483 O487 2.055 . S
Zn483 N489 2.036 . S
Zn483 O507 2.066 . S
Zn483 O511 2.053 . S
C484 O481 1.259 . S
C484 O485 1.254 . S
O485 Zn483 2.046 . S
O485 C484 1.254 . S
C486 O507 1.256 . S
C486 O508 1.244 . S
O487 Zn483 2.055 . S
O487 C509 1.259 . S
O488 Zn480 2.046 . S
O488 C509 1.254 . S
N489 Zn483 2.036 . S
N489 C490 1.298 . S
N489 N492 1.398 . S
C490 N489 1.298 . S
C490 N493 1.392 . S
C490 C503 1.481 . S
C491 N492 1.299 . S
C491 N493 1.390 . S
N492 N489 1.398 . S
N492 C491 1.299 . S
N493 C490 1.392 . S
N493 C491 1.390 . S
C494 N496 1.298 . S
C494 N498 1.367 . S
C494 C502 1.481 . S
C495 N497 1.299 . S
C495 N498 1.379 . S
N496 Zn480 2.036 . S
N496 C494 1.298 . S
N496 N497 1.398 . S
N497 C495 1.299 . S
N497 N496 1.398 . S
N498 C494 1.367 . S
N498 C495 1.379 . S
H499 C502 0.980 . S
H500 C502 0.981 . S
H501 C502 0.981 . S
C502 C494 1.481 . S
C502 H499 0.980 . S
C502 H500 0.981 . S
C502 H501 0.981 . S
C503 C490 1.481 . S
C503 H504 0.980 . S
C503 H505 0.981 . S
C503 H506 0.981 . S
H504 C503 0.980 . S
H505 C503 0.981 . S
H506 C503 0.981 . S
O507 Zn483 2.066 . S
O507 C486 1.256 . S
O508 Zn480 2.053 . S
O508 C486 1.244 . S
C509 O487 1.259 . S
C509 O488 1.254 . S
O510 Zn480 2.066 . S
O510 C482 1.256 . S
O511 C482 1.244 . S
O511 Zn483 2.053 . S
H512 C524 0.930 . S
H513 C526 0.930 . S
H514 C527 0.930 . S
H515 C531 0.959 . S
H516 C531 0.959 . S
H517 C531 0.961 . S
H518 C532 0.960 . S
H519 C532 0.961 . S
H520 C532 0.959 . S
H521 C535 0.929 . S
H522 C536 0.931 . S
H523 C538 0.930 . S
C524 H512 0.930 . S
C524 C525 1.399 . S
C524 C529 1.399 . S
C525 C524 1.399 . S
C525 C526 1.376 . S
C526 H513 0.930 . S
C526 C525 1.376 . S
C526 C527 1.388 . S
C527 H514 0.930 . S
C527 C526 1.388 . S
C527 C528 1.390 . S
C528 C527 1.390 . S
C528 C529 1.394 . S
C528 C534 1.465 . S
C529 C524 1.399 . S
C529 C528 1.394 . S
C529 C530 1.516 . S
C530 C529 1.516 . S
C530 C531 1.502 . S
C530 C532 1.561 . S
C530 C533 1.526 . S
C531 H515 0.959 . S
C531 H516 0.959 . S
C531 H517 0.961 . S
C531 C530 1.502 . S
C532 H518 0.960 . S
C532 H519 0.961 . S
C532 H520 0.959 . S
C532 C530 1.561 . S
C533 C530 1.526 . S
C533 C534 1.396 . S
C533 C538 1.390 . S
C534 C528 1.465 . S
C534 C533 1.396 . S
C534 C535 1.399 . S
C535 H521 0.929 . S
C535 C534 1.399 . S
C535 C536 1.385 . S
C536 H522 0.931 . S
C536 C535 1.385 . S
C536 C537 1.389 . S
C537 C536 1.389 . S
C537 C538 1.387 . S
C538 H523 0.930 . S
C538 C533 1.390 . S
C538 C537 1.387 . S
H539 C551 0.930 . S
H540 C553 0.930 . S
H541 C554 0.930 . S
H542 C558 0.959 . S
H543 C558 0.959 . S
H544 C558 0.961 . S
H545 C559 0.960 . S
H546 C559 0.961 . S
H547 C559 0.959 . S
H548 C562 0.929 . S
H549 C563 0.931 . S
H550 C565 0.930 . S
C551 H539 0.930 . S
C551 C552 1.399 . S
C551 C556 1.399 . S
C552 C551 1.399 . S
C552 C553 1.376 . S
C553 H540 0.930 . S
C553 C552 1.376 . S
C553 C554 1.388 . S
C554 H541 0.930 . S
C554 C553 1.388 . S
C554 C555 1.390 . S
C555 C554 1.390 . S
C555 C556 1.394 . S
C555 C561 1.465 . S
C556 C551 1.399 . S
C556 C555 1.394 . S
C556 C557 1.516 . S
C557 C556 1.516 . S
C557 C558 1.502 . S
C557 C559 1.561 . S
C557 C560 1.526 . S
C558 H542 0.959 . S
C558 H543 0.959 . S
C558 H544 0.961 . S
C558 C557 1.502 . S
C559 H545 0.960 . S
C559 H546 0.961 . S
C559 H547 0.959 . S
C559 C557 1.561 . S
C560 C557 1.526 . S
C560 C561 1.396 . S
C560 C565 1.390 . S
C561 C555 1.465 . S
C561 C560 1.396 . S
C561 C562 1.399 . S
C562 H548 0.929 . S
C562 C561 1.399 . S
C562 C563 1.385 . S
C563 H549 0.931 . S
C563 C562 1.385 . S
C563 C564 1.389 . S
C564 C563 1.389 . S
C564 C565 1.387 . S
C565 H550 0.930 . S
C565 C560 1.390 . S
C565 C564 1.387 . S
H566 C578 0.930 . S
H567 C580 0.930 . S
H568 C581 0.930 . S
H569 C585 0.959 . S
H570 C585 0.959 1_655 S
H571 C585 0.961 . S
H572 C586 1.001 . S
H573 C586 0.929 1_655 S
H574 C586 0.947 1_655 S
H575 C589 0.929 . S
H576 C590 0.931 . S
H577 C592 0.930 . S
C578 H566 0.930 . S
C578 C579 1.399 . S
C578 C583 1.399 . S
C579 C578 1.399 . S
C579 C580 1.376 . S
C580 H567 0.930 . S
C580 C579 1.376 . S
C580 C581 1.388 . S
C581 H568 0.930 . S
C581 C580 1.388 . S
C581 C582 1.390 . S
C582 C581 1.390 . S
C582 C583 1.394 . S
C582 C588 1.465 1_455 S
C583 C578 1.399 . S
C583 C582 1.394 . S
C583 C584 1.516 . S
C584 C583 1.516 . S
C584 C585 1.502 . S
C584 C586 1.565 . S
C584 C587 1.526 1_455 S
C585 H569 0.959 . S
C585 H570 0.959 1_455 S
C585 H571 0.961 . S
C585 C584 1.502 . S
C586 H572 1.001 . S
C586 H573 0.929 1_455 S
C586 H574 0.947 1_455 S
C586 C584 1.565 . S
C587 C584 1.526 1_655 S
C587 C588 1.396 . S
C587 C592 1.390 . S
C588 C582 1.465 1_655 S
C588 C587 1.396 . S
C588 C589 1.399 . S
C589 H575 0.929 . S
C589 C588 1.399 . S
C589 C590 1.385 . S
C590 H576 0.931 . S
C590 C589 1.385 . S
C590 C591 1.389 . S
C591 C590 1.389 . S
C591 C592 1.387 . S
C592 H577 0.930 . S
C592 C587 1.390 . S
C592 C591 1.387 . S
H593 C605 0.930 . S
H594 C607 0.930 . S
H595 C608 0.930 . S
H596 C612 0.959 . S
H597 C612 0.959 . S
H598 C612 0.961 . S
H599 C613 0.970 . S
H600 C613 0.966 . S
H601 C613 0.933 1_455 S
H602 C616 0.929 . S
H603 C617 0.931 . S
H604 C619 0.921 1_655 S
C605 H593 0.930 . S
C605 C606 1.399 . S
C605 C610 1.399 . S
C606 C605 1.399 . S
C606 C607 1.376 1_655 S
C607 H594 0.930 . S
C607 C606 1.376 1_455 S
C607 C608 1.388 . S
C608 H595 0.930 . S
C608 C607 1.388 . S
C608 C609 1.390 . S
C609 C608 1.390 . S
C609 C610 1.394 1_455 S
C609 C615 1.465 . S
C610 C605 1.399 . S
C610 C609 1.394 1_655 S
C610 C611 1.516 . S
C611 C610 1.516 . S
C611 C612 1.502 . S
C611 C613 1.574 . S
C611 C614 1.542 . S
C612 H596 0.959 . S
C612 H597 0.959 . S
C612 H598 0.961 . S
C612 C611 1.502 . S
C613 H599 0.970 . S
C613 H600 0.966 . S
C613 H601 0.933 1_655 S
C613 C611 1.574 . S
C614 C611 1.542 . S
C614 C615 1.380 1_655 S
C614 C619 1.388 1_655 S
C615 C609 1.465 . S
C615 C614 1.380 1_455 S
C615 C616 1.399 . S
C616 H602 0.929 . S
C616 C615 1.399 . S
C616 C617 1.385 . S
C617 H603 0.931 . S
C617 C616 1.385 . S
C617 C618 1.389 . S
C618 C617 1.389 . S
C618 C619 1.397 . S
C619 H604 0.921 1_455 S
C619 C614 1.388 1_455 S
C619 C618 1.397 . S
H620 C632 0.930 . S
H621 C634 0.930 . S
H622 C635 0.930 . S
H623 C639 0.959 . S
H624 C639 0.959 . S
H625 C639 0.961 . S
H626 C640 0.960 . S
H627 C640 0.961 . S
H628 C640 0.959 . S
H629 C643 0.929 . S
H630 C644 0.931 . S
H631 C646 0.930 . S
C632 H620 0.930 . S
C632 C633 1.399 . S
C632 C637 1.399 . S
C633 C632 1.399 . S
C633 C634 1.376 . S
C634 H621 0.930 . S
C634 C633 1.376 . S
C634 C635 1.388 . S
C635 H622 0.930 . S
C635 C634 1.388 . S
C635 C636 1.390 . S
C636 C635 1.390 . S
C636 C637 1.394 . S
C636 C642 1.465 . S
C637 C632 1.399 . S
C637 C636 1.394 . S
C637 C638 1.516 . S
C638 C637 1.516 . S
C638 C639 1.502 . S
C638 C640 1.561 . S
C638 C641 1.526 . S
C639 H623 0.959 . S
C639 H624 0.959 . S
C639 H625 0.961 . S
C639 C638 1.502 . S
C640 H626 0.960 . S
C640 H627 0.961 . S
C640 H628 0.959 . S
C640 C638 1.561 . S
C641 C638 1.526 . S
C641 C642 1.396 . S
C641 C646 1.390 . S
C642 C636 1.465 . S
C642 C641 1.396 . S
C642 C643 1.399 . S
C643 H629 0.929 . S
C643 C642 1.399 . S
C643 C644 1.385 . S
C644 H630 0.931 . S
C644 C643 1.385 . S
C644 C645 1.389 . S
C645 C644 1.389 . S
C645 C646 1.387 . S
C646 H631 0.930 . S
C646 C641 1.390 . S
C646 C645 1.387 . S
H647 C659 0.930 . S
H648 C661 0.930 . S
H649 C662 0.930 . S
H650 C666 0.959 . S
H651 C666 0.959 . S
H652 C666 0.961 . S
H653 C667 0.960 . S
H654 C667 0.961 . S
H655 C667 0.959 . S
H656 C670 0.929 . S
H657 C671 0.931 . S
H658 C673 0.930 . S
C659 H647 0.930 . S
C659 C660 1.399 . S
C659 C664 1.399 . S
C660 C659 1.399 . S
C660 C661 1.376 . S
C661 H648 0.930 . S
C661 C660 1.376 . S
C661 C662 1.388 . S
C662 H649 0.930 . S
C662 C661 1.388 . S
C662 C663 1.390 . S
C663 C662 1.390 . S
C663 C664 1.394 . S
C663 C669 1.465 . S
C664 C659 1.399 . S
C664 C663 1.394 . S
C664 C665 1.516 . S
C665 C664 1.516 . S
C665 C666 1.502 . S
C665 C667 1.561 . S
C665 C668 1.526 . S
C666 H650 0.959 . S
C666 H651 0.959 . S
C666 H652 0.961 . S
C666 C665 1.502 . S
C667 H653 0.960 . S
C667 H654 0.961 . S
C667 H655 0.959 . S
C667 C665 1.561 . S
C668 C665 1.526 . S
C668 C669 1.396 . S
C668 C673 1.390 . S
C669 C663 1.465 . S
C669 C668 1.396 . S
C669 C670 1.399 . S
C670 H656 0.929 . S
C670 C669 1.399 . S
C670 C671 1.385 . S
C671 H657 0.931 . S
C671 C670 1.385 . S
C671 C672 1.389 . S
C672 C671 1.389 . S
C672 C673 1.387 . S
C673 H658 0.930 . S
C673 C668 1.390 . S
C673 C672 1.387 . S
H674 C686 0.930 . S
H675 C688 0.930 . S
H676 C689 0.930 . S
H677 C693 0.959 . S
H678 C693 0.959 1_455 S
H679 C693 0.961 . S
H680 C694 0.960 . S
H681 C694 0.961 1_455 S
H682 C694 0.959 . S
H683 C697 0.929 . S
H684 C698 0.931 . S
H685 C700 0.930 . S
C686 H674 0.930 . S
C686 C687 1.399 . S
C686 C691 1.399 . S
C687 C686 1.399 . S
C687 C688 1.376 . S
C688 H675 0.930 . S
C688 C687 1.376 . S
C688 C689 1.388 . S
C689 H676 0.930 . S
C689 C688 1.388 . S
C689 C690 1.390 . S
C690 C689 1.390 . S
C690 C691 1.394 . S
C690 C696 1.465 1_655 S
C691 C686 1.399 . S
C691 C690 1.394 . S
C691 C692 1.516 . S
C692 C691 1.516 . S
C692 C693 1.502 . S
C692 C694 1.561 . S
C692 C695 1.526 1_655 S
C693 H677 0.959 . S
C693 H678 0.959 1_655 S
C693 H679 0.961 . S
C693 C692 1.502 . S
C694 H680 0.960 . S
C694 H681 0.961 1_655 S
C694 H682 0.959 . S
C694 C692 1.561 . S
C695 C692 1.526 1_455 S
C695 C696 1.396 . S
C695 C700 1.390 . S
C696 C690 1.465 1_455 S
C696 C695 1.396 . S
C696 C697 1.399 . S
C697 H683 0.929 . S
C697 C696 1.399 . S
C697 C698 1.385 . S
C698 H684 0.931 . S
C698 C697 1.385 . S
C698 C699 1.389 . S
C699 C698 1.389 . S
C699 C700 1.387 . S
C700 H685 0.930 . S
C700 C695 1.390 . S
C700 C699 1.387 . S
H701 C713 0.930 1_655 S
H702 C715 0.930 . S
H703 C716 0.930 . S
H704 C720 0.959 . S
H705 C720 0.959 . S
H706 C720 0.961 . S
H707 C721 0.960 . S
H708 C721 0.961 1_655 S
H709 C721 0.959 . S
H710 C724 0.929 . S
H711 C725 0.931 . S
H712 C727 0.930 . S
C713 H701 0.930 1_455 S
C713 C714 1.399 . S
C713 C718 1.399 1_455 S
C714 C713 1.399 . S
C714 C715 1.376 . S
C715 H702 0.930 . S
C715 C714 1.376 . S
C715 C716 1.388 . S
C716 H703 0.930 . S
C716 C715 1.388 . S
C716 C717 1.390 . S
C717 C716 1.390 . S
C717 C718 1.395 1_455 S
C717 C723 1.465 . S
C718 C713 1.399 1_655 S
C718 C717 1.395 1_655 S
C718 C719 1.515 . S
C719 C718 1.515 . S
C719 C720 1.502 . S
C719 C721 1.561 1_655 S
C719 C722 1.526 . S
C720 H704 0.959 . S
C720 H705 0.959 . S
C720 H706 0.961 . S
C720 C719 1.502 . S
C721 H707 0.960 . S
C721 H708 0.961 1_455 S
C721 H709 0.959 . S
C721 C719 1.561 1_455 S
C722 C719 1.526 . S
C722 C723 1.396 1_655 S
C722 C727 1.390 . S
C723 C717 1.465 . S
C723 C722 1.396 1_455 S
C723 C724 1.399 . S
C724 H710 0.929 . S
C724 C723 1.399 . S
C724 C725 1.385 . S
C725 H711 0.931 . S
C725 C724 1.385 . S
C725 C726 1.389 1_455 S
C726 C725 1.389 1_655 S
C726 C727 1.387 . S
C727 H712 0.930 . S
C727 C722 1.390 . S
C727 C726 1.387 . S
H728 C740 0.930 . S
H729 C742 0.930 . S
H730 C743 0.930 . S
H731 C747 0.959 . S
H732 C747 0.959 . S
H733 C747 0.961 . S
H734 C748 0.960 . S
H735 C748 0.961 1_554 S
H736 C748 0.959 . S
H737 C751 0.929 . S
H738 C752 0.931 . S
H739 C754 0.930 1_554 S
C740 H728 0.930 . S
C740 C741 1.399 . S
C740 C745 1.399 . S
C741 C740 1.399 . S
C741 C742 1.376 . S
C742 H729 0.930 . S
C742 C741 1.376 . S
C742 C743 1.388 . S
C743 H730 0.930 . S
C743 C742 1.388 . S
C743 C744 1.390 . S
C744 C743 1.390 . S
C744 C745 1.394 . S
C744 C750 1.465 . S
C745 C740 1.399 . S
C745 C744 1.394 . S
C745 C746 1.516 . S
C746 C745 1.516 . S
C746 C747 1.502 1_556 S
C746 C748 1.561 . S
C746 C749 1.526 . S
C747 H731 0.959 . S
C747 H732 0.959 . S
C747 H733 0.961 . S
C747 C746 1.502 1_554 S
C748 H734 0.960 . S
C748 H735 0.961 1_556 S
C748 H736 0.959 . S
C748 C746 1.561 . S
C749 C746 1.526 . S
C749 C750 1.396 . S
C749 C754 1.390 . S
C750 C744 1.465 . S
C750 C749 1.396 . S
C750 C751 1.399 . S
C751 H737 0.929 . S
C751 C750 1.399 . S
C751 C752 1.385 . S
C752 H738 0.931 . S
C752 C751 1.385 . S
C752 C753 1.389 . S
C753 C752 1.389 . S
C753 C754 1.387 . S
C754 H739 0.930 1_556 S
C754 C749 1.390 . S
C754 C753 1.387 . S
H755 C767 0.930 . S
H756 C769 0.930 . S
H757 C770 0.930 . S
H758 C774 0.959 . S
H759 C774 0.959 . S
H760 C774 0.961 . S
H761 C775 0.960 . S
H762 C775 0.961 . S
H763 C775 0.959 . S
H764 C778 0.929 . S
H765 C779 0.931 . S
H766 C781 0.930 . S
C767 H755 0.930 . S
C767 C768 1.399 . S
C767 C772 1.399 . S
C768 C767 1.399 . S
C768 C769 1.376 . S
C769 H756 0.930 . S
C769 C768 1.376 . S
C769 C770 1.388 . S
C770 H757 0.930 . S
C770 C769 1.388 . S
C770 C771 1.390 . S
C771 C770 1.390 . S
C771 C772 1.394 . S
C771 C777 1.465 . S
C772 C767 1.399 . S
C772 C771 1.394 . S
C772 C773 1.516 . S
C773 C772 1.516 . S
C773 C774 1.502 . S
C773 C775 1.561 . S
C773 C776 1.526 . S
C774 H758 0.959 . S
C774 H759 0.959 . S
C774 H760 0.961 . S
C774 C773 1.502 . S
C775 H761 0.960 . S
C775 H762 0.961 . S
C775 H763 0.959 . S
C775 C773 1.561 . S
C776 C773 1.526 . S
C776 C777 1.396 . S
C776 C781 1.390 . S
C777 C771 1.465 . S
C777 C776 1.396 . S
C777 C778 1.399 . S
C778 H764 0.929 . S
C778 C777 1.399 . S
C778 C779 1.385 . S
C779 H765 0.931 . S
C779 C778 1.385 . S
C779 C780 1.389 . S
C780 C779 1.389 . S
C780 C781 1.387 . S
C781 H766 0.930 . S
C781 C776 1.390 . S
C781 C780 1.387 . S
H782 C794 0.930 . S
H783 C796 0.930 . S
H784 C797 0.930 . S
H785 C801 0.959 . S
H786 C801 0.959 . S
H787 C801 0.961 . S
H788 C802 0.960 . S
H789 C802 0.961 . S
H790 C802 0.959 . S
H791 C805 0.929 . S
H792 C806 0.931 . S
H793 C808 0.930 . S
C794 H782 0.930 . S
C794 C795 1.399 . S
C794 C799 1.399 . S
C795 C794 1.399 . S
C795 C796 1.376 . S
C796 H783 0.930 . S
C796 C795 1.376 . S
C796 C797 1.388 . S
C797 H784 0.930 . S
C797 C796 1.388 . S
C797 C798 1.390 . S
C798 C797 1.390 . S
C798 C799 1.394 . S
C798 C804 1.465 . S
C799 C794 1.399 . S
C799 C798 1.394 . S
C799 C800 1.516 . S
C800 C799 1.516 . S
C800 C801 1.502 . S
C800 C802 1.561 . S
C800 C803 1.526 . S
C801 H785 0.959 . S
C801 H786 0.959 . S
C801 H787 0.961 . S
C801 C800 1.502 . S
C802 H788 0.960 . S
C802 H789 0.961 . S
C802 H790 0.959 . S
C802 C800 1.561 . S
C803 C800 1.526 . S
C803 C804 1.396 . S
C803 C808 1.390 . S
C804 C798 1.465 . S
C804 C803 1.396 . S
C804 C805 1.399 . S
C805 H791 0.929 . S
C805 C804 1.399 . S
C805 C806 1.385 . S
C806 H792 0.931 . S
C806 C805 1.385 . S
C806 C807 1.389 . S
C807 C806 1.389 . S
C807 C808 1.387 . S
C808 H793 0.930 . S
C808 C803 1.390 . S
C808 C807 1.387 . S
H809 C821 0.930 . S
H810 C823 0.930 . S
H811 C824 0.930 . S
H812 C828 0.959 . S
H813 C828 0.959 . S
H814 C828 0.961 . S
H815 C829 0.960 . S
H816 C829 0.961 . S
H817 C829 0.959 . S
H818 C832 0.929 . S
H819 C833 0.931 . S
H820 C835 0.930 . S
C821 H809 0.930 . S
C821 C822 1.399 . S
C821 C826 1.399 . S
C822 C821 1.399 . S
C822 C823 1.376 . S
C823 H810 0.930 . S
C823 C822 1.376 . S
C823 C824 1.388 . S
C824 H811 0.930 . S
C824 C823 1.388 . S
C824 C825 1.390 . S
C825 C824 1.390 . S
C825 C826 1.394 . S
C825 C831 1.465 . S
C826 C821 1.399 . S
C826 C825 1.394 . S
C826 C827 1.516 . S
C827 C826 1.516 . S
C827 C828 1.502 . S
C827 C829 1.561 . S
C827 C830 1.526 . S
C828 H812 0.959 . S
C828 H813 0.959 . S
C828 H814 0.961 . S
C828 C827 1.502 . S
C829 H815 0.960 . S
C829 H816 0.961 . S
C829 H817 0.959 . S
C829 C827 1.561 . S
C830 C827 1.526 . S
C830 C831 1.396 . S
C830 C835 1.390 . S
C831 C825 1.465 . S
C831 C830 1.396 . S
C831 C832 1.399 . S
C832 H818 0.929 . S
C832 C831 1.399 . S
C832 C833 1.385 . S
C833 H819 0.931 . S
C833 C832 1.385 . S
C833 C834 1.389 . S
C834 C833 1.389 . S
C834 C835 1.387 . S
C835 H820 0.930 . S
C835 C830 1.390 . S
C835 C834 1.387 . S
H836 C848 0.930 1_556 S
H837 C850 0.930 . S
H838 C851 0.930 . S
H839 C855 0.959 . S
H840 C855 0.959 1_556 S
H841 C855 0.961 1_556 S
H842 C856 0.960 . S
H843 C856 0.961 . S
H844 C856 0.959 . S
H845 C859 0.929 . S
H846 C860 0.931 . S
H847 C862 0.930 . S
C848 H836 0.930 1_554 S
C848 C849 1.399 . S
C848 C853 1.399 . S
C849 C848 1.399 . S
C849 C850 1.376 . S
C850 H837 0.930 . S
C850 C849 1.376 . S
C850 C851 1.388 . S
C851 H838 0.930 . S
C851 C850 1.388 . S
C851 C852 1.390 . S
C852 C851 1.390 . S
C852 C853 1.394 . S
C852 C858 1.465 . S
C853 C848 1.399 . S
C853 C852 1.394 . S
C853 C854 1.516 . S
C854 C853 1.516 . S
C854 C855 1.502 . S
C854 C856 1.561 1_554 S
C854 C857 1.526 . S
C855 H839 0.959 . S
C855 H840 0.959 1_554 S
C855 H841 0.961 1_554 S
C855 C854 1.502 . S
C856 H842 0.960 . S
C856 H843 0.961 . S
C856 H844 0.959 . S
C856 C854 1.561 1_556 S
C857 C854 1.526 . S
C857 C858 1.396 . S
C857 C862 1.390 . S
C858 C852 1.465 . S
C858 C857 1.396 . S
C858 C859 1.399 . S
C859 H845 0.929 . S
C859 C858 1.399 . S
C859 C860 1.385 . S
C860 H846 0.931 . S
C860 C859 1.385 . S
C860 C861 1.389 . S
C861 C860 1.389 . S
C861 C862 1.387 . S
C862 H847 0.930 . S
C862 C857 1.390 . S
C862 C861 1.387 . S
H863 C875 0.930 . S
H864 C877 0.930 . S
H865 C878 0.930 . S
H866 C882 0.959 . S
H867 C882 0.959 . S
H868 C882 0.961 . S
H869 C883 0.960 . S
H870 C883 0.961 . S
H871 C883 0.959 . S
H872 C886 0.929 . S
H873 C887 0.931 . S
H874 C889 0.930 . S
C875 H863 0.930 . S
C875 C876 1.399 . S
C875 C880 1.399 . S
C876 C875 1.399 . S
C876 C877 1.376 . S
C877 H864 0.930 . S
C877 C876 1.376 . S
C877 C878 1.388 . S
C878 H865 0.930 . S
C878 C877 1.388 . S
C878 C879 1.390 . S
C879 C878 1.390 . S
C879 C880 1.394 . S
C879 C885 1.465 . S
C880 C875 1.399 . S
C880 C879 1.394 . S
C880 C881 1.516 . S
C881 C880 1.516 . S
C881 C882 1.502 . S
C881 C883 1.561 . S
C881 C884 1.526 . S
C882 H866 0.959 . S
C882 H867 0.959 . S
C882 H868 0.961 . S
C882 C881 1.502 . S
C883 H869 0.960 . S
C883 H870 0.961 . S
C883 H871 0.959 . S
C883 C881 1.561 . S
C884 C881 1.526 . S
C884 C885 1.396 . S
C884 C889 1.390 . S
C885 C879 1.465 . S
C885 C884 1.396 . S
C885 C886 1.399 . S
C886 H872 0.929 . S
C886 C885 1.399 . S
C886 C887 1.385 . S
C887 H873 0.931 . S
C887 C886 1.385 . S
C887 C888 1.389 . S
C888 C887 1.389 . S
C888 C889 1.387 . S
C889 H874 0.930 . S
C889 C884 1.390 . S
C889 C888 1.387 . S
H890 C902 0.930 . S
H891 C904 0.930 . S
H892 C905 0.930 . S
H893 C909 0.959 . S
H894 C909 0.959 . S
H895 C909 0.961 . S
H896 C910 0.960 . S
H897 C910 0.961 . S
H898 C910 0.959 . S
H899 C913 0.929 . S
H900 C914 0.931 . S
H901 C916 0.930 . S
C902 H890 0.930 . S
C902 C903 1.399 . S
C902 C907 1.399 . S
C903 C902 1.399 . S
C903 C904 1.376 . S
C904 H891 0.930 . S
C904 C903 1.376 . S
C904 C905 1.388 . S
C905 H892 0.930 . S
C905 C904 1.388 . S
C905 C906 1.390 . S
C906 C905 1.390 . S
C906 C907 1.394 . S
C906 C912 1.465 . S
C907 C902 1.399 . S
C907 C906 1.394 . S
C907 C908 1.516 . S
C908 C907 1.516 . S
C908 C909 1.502 . S
C908 C910 1.561 . S
C908 C911 1.526 . S
C909 H893 0.959 . S
C909 H894 0.959 . S
C909 H895 0.961 . S
C909 C908 1.502 . S
C910 H896 0.960 . S
C910 H897 0.961 . S
C910 H898 0.959 . S
C910 C908 1.561 . S
C911 C908 1.526 . S
C911 C912 1.396 . S
C911 C916 1.390 . S
C912 C906 1.465 . S
C912 C911 1.396 . S
C912 C913 1.399 . S
C913 H899 0.929 . S
C913 C912 1.399 . S
C913 C914 1.385 . S
C914 H900 0.931 . S
C914 C913 1.385 . S
C914 C915 1.389 . S
C915 C914 1.389 . S
C915 C916 1.387 . S
C916 H901 0.930 . S
C916 C911 1.390 . S
C916 C915 1.387 . S
H917 C929 0.930 . S
H918 C931 0.930 . S
H919 C932 0.930 . S
H920 C936 0.959 . S
H921 C936 0.959 . S
H922 C936 0.961 . S
H923 C937 0.960 . S
H924 C937 0.961 . S
H925 C937 0.959 . S
H926 C940 0.929 . S
H927 C941 0.931 . S
H928 C943 0.930 . S
C929 H917 0.930 . S
C929 C930 1.399 . S
C929 C934 1.399 . S
C930 C929 1.399 . S
C930 C931 1.376 . S
C931 H918 0.930 . S
C931 C930 1.376 . S
C931 C932 1.388 . S
C932 H919 0.930 . S
C932 C931 1.388 . S
C932 C933 1.390 . S
C933 C932 1.390 . S
C933 C934 1.394 . S
C933 C939 1.465 . S
C934 C929 1.399 . S
C934 C933 1.394 . S
C934 C935 1.516 . S
C935 C934 1.516 . S
C935 C936 1.502 . S
C935 C937 1.561 . S
C935 C938 1.526 . S
C936 H920 0.959 . S
C936 H921 0.959 . S
C936 H922 0.961 . S
C936 C935 1.502 . S
C937 H923 0.960 . S
C937 H924 0.961 . S
C937 H925 0.959 . S
C937 C935 1.561 . S
C938 C935 1.526 . S
C938 C939 1.396 . S
C938 C943 1.390 . S
C939 C933 1.465 . S
C939 C938 1.396 . S
C939 C940 1.399 . S
C940 H926 0.929 . S
C940 C939 1.399 . S
C940 C941 1.385 . S
C941 H927 0.931 . S
C941 C940 1.385 . S
C941 C942 1.389 . S
C942 C941 1.389 . S
C942 C943 1.387 . S
C943 H928 0.930 . S
C943 C938 1.390 . S
C943 C942 1.387 . S
H944 C956 0.930 . S
H945 C958 0.930 . S
H946 C959 0.930 . S
H947 C963 0.959 . S
H948 C963 0.959 . S
H949 C963 0.961 . S
H950 C964 0.960 . S
H951 C964 0.961 . S
H952 C964 0.959 . S
H953 C967 0.929 . S
H954 C968 0.931 . S
H955 C970 0.930 . S
C956 H944 0.930 . S
C956 C957 1.399 . S
C956 C961 1.399 . S
C957 C956 1.399 . S
C957 C958 1.376 . S
C958 H945 0.930 . S
C958 C957 1.376 . S
C958 C959 1.388 . S
C959 H946 0.930 . S
C959 C958 1.388 . S
C959 C960 1.390 . S
C960 C959 1.390 . S
C960 C961 1.394 . S
C960 C966 1.465 . S
C961 C956 1.399 . S
C961 C960 1.394 . S
C961 C962 1.516 . S
C962 C961 1.516 . S
C962 C963 1.502 . S
C962 C964 1.561 . S
C962 C965 1.526 . S
C963 H947 0.959 . S
C963 H948 0.959 . S
C963 H949 0.961 . S
C963 C962 1.502 . S
C964 H950 0.960 . S
C964 H951 0.961 . S
C964 H952 0.959 . S
C964 C962 1.561 . S
C965 C962 1.526 . S
C965 C966 1.396 . S
C965 C970 1.390 . S
C966 C960 1.465 . S
C966 C965 1.396 . S
C966 C967 1.399 . S
C967 H953 0.929 . S
C967 C966 1.399 . S
C967 C968 1.385 . S
C968 H954 0.931 . S
C968 C967 1.385 . S
C968 C969 1.389 . S
C969 C968 1.389 . S
C969 C970 1.387 . S
C970 H955 0.930 . S
C970 C965 1.390 . S
C970 C969 1.387 . S
H971 C983 0.930 . S
H972 C985 0.930 . S
H973 C986 0.930 . S
H974 C990 0.959 . S
H975 C990 0.959 . S
H976 C990 0.961 . S
H977 C991 0.960 . S
H978 C991 0.961 . S
H979 C991 0.959 . S
H980 C994 0.929 . S
H981 C995 0.931 . S
H982 C997 0.930 . S
C983 H971 0.930 . S
C983 C984 1.399 . S
C983 C988 1.399 . S
C984 C983 1.399 . S
C984 C985 1.376 . S
C985 H972 0.930 . S
C985 C984 1.376 . S
C985 C986 1.388 . S
C986 H973 0.930 . S
C986 C985 1.388 . S
C986 C987 1.390 . S
C987 C986 1.390 . S
C987 C988 1.394 . S
C987 C993 1.465 . S
C988 C983 1.399 . S
C988 C987 1.394 . S
C988 C989 1.516 . S
C989 C988 1.516 . S
C989 C990 1.502 . S
C989 C991 1.561 . S
C989 C992 1.526 . S
C990 H974 0.959 . S
C990 H975 0.959 . S
C990 H976 0.961 . S
C990 C989 1.502 . S
C991 H977 0.960 . S
C991 H978 0.961 . S
C991 H979 0.959 . S
C991 C989 1.561 . S
C992 C989 1.526 . S
C992 C993 1.396 . S
C992 C997 1.390 . S
C993 C987 1.465 . S
C993 C992 1.396 . S
C993 C994 1.399 . S
C994 H980 0.929 . S
C994 C993 1.399 . S
C994 C995 1.385 . S
C995 H981 0.931 . S
C995 C994 1.385 . S
C995 C996 1.389 . S
C996 C995 1.389 . S
C996 C997 1.387 . S
C997 H982 0.930 . S
C997 C992 1.390 . S
C997 C996 1.387 . S
H998 C1010 0.930 . S
H999 C1012 0.930 . S
H1000 C1013 0.930 . S
H1001 C1017 0.959 . S
H1002 C1017 0.959 . S
H1003 C1017 0.961 . S
H1004 C1018 0.960 . S
H1005 C1018 0.961 . S
H1006 C1018 0.959 . S
H1007 C1021 0.929 . S
H1008 C1022 0.931 . S
H1009 C1024 0.930 . S
C1010 H998 0.930 . S
C1010 C1011 1.399 . S
C1010 C1015 1.399 . S
C1011 C1010 1.399 . S
C1011 C1012 1.376 . S
C1012 H999 0.930 . S
C1012 C1011 1.376 . S
C1012 C1013 1.388 . S
C1013 H1000 0.930 . S
C1013 C1012 1.388 . S
C1013 C1014 1.390 . S
C1014 C1013 1.390 . S
C1014 C1015 1.394 . S
C1014 C1020 1.465 . S
C1015 C1010 1.399 . S
C1015 C1014 1.394 . S
C1015 C1016 1.516 . S
C1016 C1015 1.516 . S
C1016 C1017 1.502 . S
C1016 C1018 1.561 . S
C1016 C1019 1.526 . S
C1017 H1001 0.959 . S
C1017 H1002 0.959 . S
C1017 H1003 0.961 . S
C1017 C1016 1.502 . S
C1018 H1004 0.960 . S
C1018 H1005 0.961 . S
C1018 H1006 0.959 . S
C1018 C1016 1.561 . S
C1019 C1016 1.526 . S
C1019 C1020 1.396 . S
C1019 C1024 1.390 . S
C1020 C1014 1.465 . S
C1020 C1019 1.396 . S
C1020 C1021 1.399 . S
C1021 H1007 0.929 . S
C1021 C1020 1.399 . S
C1021 C1022 1.385 . S
C1022 H1008 0.931 . S
C1022 C1021 1.385 . S
C1022 C1023 1.389 . S
C1023 C1022 1.389 . S
C1023 C1024 1.387 . S
C1024 H1009 0.930 . S
C1024 C1019 1.390 . S
C1024 C1023 1.387 . S
H1025 C1037 0.930 . S
H1026 C1039 0.930 . S
H1027 C1040 0.930 . S
H1028 C1044 0.959 . S
H1029 C1044 0.959 . S
H1030 C1044 0.961 . S
H1031 C1045 0.960 . S
H1032 C1045 0.961 . S
H1033 C1045 0.959 . S
H1034 C1048 0.929 . S
H1035 C1049 0.931 . S
H1036 C1051 0.930 . S
C1037 H1025 0.930 . S
C1037 C1038 1.399 . S
C1037 C1042 1.399 . S
C1038 C1037 1.399 . S
C1038 C1039 1.376 . S
C1039 H1026 0.930 . S
C1039 C1038 1.376 . S
C1039 C1040 1.388 . S
C1040 H1027 0.930 . S
C1040 C1039 1.388 . S
C1040 C1041 1.390 . S
C1041 C1040 1.390 . S
C1041 C1042 1.394 . S
C1041 C1047 1.465 . S
C1042 C1037 1.399 . S
C1042 C1041 1.394 . S
C1042 C1043 1.516 . S
C1043 C1042 1.516 . S
C1043 C1044 1.502 . S
C1043 C1045 1.561 . S
C1043 C1046 1.526 . S
C1044 H1028 0.959 . S
C1044 H1029 0.959 . S
C1044 H1030 0.961 . S
C1044 C1043 1.502 . S
C1045 H1031 0.960 . S
C1045 H1032 0.961 . S
C1045 H1033 0.959 . S
C1045 C1043 1.561 . S
C1046 C1043 1.526 . S
C1046 C1047 1.396 . S
C1046 C1051 1.390 . S
C1047 C1041 1.465 . S
C1047 C1046 1.396 . S
C1047 C1048 1.399 . S
C1048 H1034 0.929 . S
C1048 C1047 1.399 . S
C1048 C1049 1.385 . S
C1049 H1035 0.931 . S
C1049 C1048 1.385 . S
C1049 C1050 1.389 . S
C1050 C1049 1.389 . S
C1050 C1051 1.387 . S
C1051 H1036 0.930 . S
C1051 C1046 1.390 . S
C1051 C1050 1.387 . S
H1052 C1064 0.930 . S
H1053 C1066 0.930 . S
H1054 C1067 0.930 . S
H1055 C1071 0.959 . S
H1056 C1071 0.959 . S
H1057 C1071 0.961 . S
H1058 C1072 0.960 . S
H1059 C1072 0.961 . S
H1060 C1072 0.959 . S
H1061 C1075 0.929 . S
H1062 C1076 0.931 . S
H1063 C1078 0.930 . S
C1064 H1052 0.930 . S
C1064 C1065 1.399 . S
C1064 C1069 1.399 . S
C1065 C1064 1.399 . S
C1065 C1066 1.376 . S
C1066 H1053 0.930 . S
C1066 C1065 1.376 . S
C1066 C1067 1.388 . S
C1067 H1054 0.930 . S
C1067 C1066 1.388 . S
C1067 C1068 1.390 . S
C1068 C1067 1.390 . S
C1068 C1069 1.394 . S
C1068 C1074 1.465 . S
C1069 C1064 1.399 . S
C1069 C1068 1.394 . S
C1069 C1070 1.516 . S
C1070 C1069 1.516 . S
C1070 C1071 1.502 . S
C1070 C1072 1.561 . S
C1070 C1073 1.526 . S
C1071 H1055 0.959 . S
C1071 H1056 0.959 . S
C1071 H1057 0.961 . S
C1071 C1070 1.502 . S
C1072 H1058 0.960 . S
C1072 H1059 0.961 . S
C1072 H1060 0.959 . S
C1072 C1070 1.561 . S
C1073 C1070 1.526 . S
C1073 C1074 1.396 . S
C1073 C1078 1.390 . S
C1074 C1068 1.465 . S
C1074 C1073 1.396 . S
C1074 C1075 1.399 . S
C1075 H1061 0.929 . S
C1075 C1074 1.399 . S
C1075 C1076 1.385 . S
C1076 H1062 0.931 . S
C1076 C1075 1.385 . S
C1076 C1077 1.389 . S
C1077 C1076 1.389 . S
C1077 C1078 1.387 . S
C1078 H1063 0.930 . S
C1078 C1073 1.390 . S
C1078 C1077 1.387 . S
H1079 C1091 0.930 . S
H1080 C1093 0.930 . S
H1081 C1094 0.930 . S
H1082 C1098 0.959 . S
H1083 C1098 0.959 . S
H1084 C1098 0.961 . S
H1085 C1099 0.960 . S
H1086 C1099 0.961 . S
H1087 C1099 0.959 . S
H1088 C1102 0.929 . S
H1089 C1103 0.931 . S
H1090 C1105 0.930 . S
C1091 H1079 0.930 . S
C1091 C1092 1.399 . S
C1091 C1096 1.399 . S
C1092 C1091 1.399 . S
C1092 C1093 1.376 . S
C1093 H1080 0.930 . S
C1093 C1092 1.376 . S
C1093 C1094 1.388 . S
C1094 H1081 0.930 . S
C1094 C1093 1.388 . S
C1094 C1095 1.390 . S
C1095 C1094 1.390 . S
C1095 C1096 1.394 . S
C1095 C1101 1.465 . S
C1096 C1091 1.399 . S
C1096 C1095 1.394 . S
C1096 C1097 1.516 . S
C1097 C1096 1.516 . S
C1097 C1098 1.502 . S
C1097 C1099 1.561 . S
C1097 C1100 1.526 . S
C1098 H1082 0.959 . S
C1098 H1083 0.959 . S
C1098 H1084 0.961 . S
C1098 C1097 1.502 . S
C1099 H1085 0.960 . S
C1099 H1086 0.961 . S
C1099 H1087 0.959 . S
C1099 C1097 1.561 . S
C1100 C1097 1.526 . S
C1100 C1101 1.396 . S
C1100 C1105 1.390 . S
C1101 C1095 1.465 . S
C1101 C1100 1.396 . S
C1101 C1102 1.399 . S
C1102 H1088 0.929 . S
C1102 C1101 1.399 . S
C1102 C1103 1.385 . S
C1103 H1089 0.931 . S
C1103 C1102 1.385 . S
C1103 C1104 1.389 . S
C1104 C1103 1.389 . S
C1104 C1105 1.387 . S
C1105 H1090 0.930 . S
C1105 C1100 1.390 . S
C1105 C1104 1.387 . S
H1106 C1118 0.930 . S
H1107 C1120 0.930 . S
H1108 C1121 0.930 . S
H1109 C1125 0.959 . S
H1110 C1125 0.959 . S
H1111 C1125 0.961 . S
H1112 C1126 0.960 . S
H1113 C1126 0.961 . S
H1114 C1126 0.959 . S
H1115 C1129 0.929 . S
H1116 C1130 0.931 . S
H1117 C1132 0.930 . S
C1118 H1106 0.930 . S
C1118 C1119 1.399 . S
C1118 C1123 1.399 . S
C1119 C1118 1.399 . S
C1119 C1120 1.376 . S
C1120 H1107 0.930 . S
C1120 C1119 1.376 . S
C1120 C1121 1.388 . S
C1121 H1108 0.930 . S
C1121 C1120 1.388 . S
C1121 C1122 1.390 . S
C1122 C1121 1.390 . S
C1122 C1123 1.394 . S
C1122 C1128 1.465 . S
C1123 C1118 1.399 . S
C1123 C1122 1.394 . S
C1123 C1124 1.516 . S
C1124 C1123 1.516 . S
C1124 C1125 1.502 . S
C1124 C1126 1.561 1_554 S
C1124 C1127 1.526 . S
C1125 H1109 0.959 . S
C1125 H1110 0.959 . S
C1125 H1111 0.961 . S
C1125 C1124 1.502 . S
C1126 H1112 0.960 . S
C1126 H1113 0.961 . S
C1126 H1114 0.959 . S
C1126 C1124 1.561 1_556 S
C1127 C1124 1.526 . S
C1127 C1128 1.396 . S
C1127 C1132 1.390 . S
C1128 C1122 1.465 . S
C1128 C1127 1.396 . S
C1128 C1129 1.399 . S
C1129 H1115 0.929 . S
C1129 C1128 1.399 . S
C1129 C1130 1.385 . S
C1130 H1116 0.931 . S
C1130 C1129 1.385 . S
C1130 C1131 1.389 . S
C1131 C1130 1.389 . S
C1131 C1132 1.387 . S
C1132 H1117 0.930 . S
C1132 C1127 1.390 . S
C1132 C1131 1.387 . S
H1133 C1145 0.930 . S
H1134 C1147 0.930 . S
H1135 C1148 0.930 . S
H1136 C1152 0.959 . S
H1137 C1152 0.959 . S
H1138 C1152 0.961 . S
H1139 C1153 0.960 . S
H1140 C1153 0.961 . S
H1141 C1153 0.959 . S
H1142 C1156 0.929 . S
H1143 C1157 0.931 . S
H1144 C1159 0.930 . S
C1145 H1133 0.930 . S
C1145 C1146 1.399 . S
C1145 C1150 1.399 . S
C1146 C1145 1.399 . S
C1146 C1147 1.376 . S
C1147 H1134 0.930 . S
C1147 C1146 1.376 . S
C1147 C1148 1.388 . S
C1148 H1135 0.930 . S
C1148 C1147 1.388 . S
C1148 C1149 1.390 . S
C1149 C1148 1.390 . S
C1149 C1150 1.394 . S
C1149 C1155 1.465 . S
C1150 C1145 1.399 . S
C1150 C1149 1.394 . S
C1150 C1151 1.516 . S
C1151 C1150 1.516 . S
C1151 C1152 1.502 . S
C1151 C1153 1.561 . S
C1151 C1154 1.526 . S
C1152 H1136 0.959 . S
C1152 H1137 0.959 . S
C1152 H1138 0.961 . S
C1152 C1151 1.502 . S
C1153 H1139 0.960 . S
C1153 H1140 0.961 . S
C1153 H1141 0.959 . S
C1153 C1151 1.561 . S
C1154 C1151 1.526 . S
C1154 C1155 1.396 . S
C1154 C1159 1.390 . S
C1155 C1149 1.465 . S
C1155 C1154 1.396 . S
C1155 C1156 1.399 . S
C1156 H1142 0.929 . S
C1156 C1155 1.399 . S
C1156 C1157 1.385 . S
C1157 H1143 0.931 . S
C1157 C1156 1.385 . S
C1157 C1158 1.389 . S
C1158 C1157 1.389 . S
C1158 C1159 1.387 . S
C1159 H1144 0.930 . S
C1159 C1154 1.390 . S
C1159 C1158 1.387 . S
H1160 C1172 0.930 . S
H1161 C1174 0.930 . S
H1162 C1175 0.930 . S
H1163 C1179 0.959 . S
H1164 C1179 0.959 . S
H1165 C1179 0.961 . S
H1166 C1180 0.960 . S
H1167 C1180 0.961 . S
H1168 C1180 0.959 . S
H1169 C1183 0.929 . S
H1170 C1184 0.931 . S
H1171 C1186 0.930 . S
C1172 H1160 0.930 . S
C1172 C1173 1.399 . S
C1172 C1177 1.399 . S
C1173 C1172 1.399 . S
C1173 C1174 1.376 . S
C1174 H1161 0.930 . S
C1174 C1173 1.376 . S
C1174 C1175 1.388 . S
C1175 H1162 0.930 . S
C1175 C1174 1.388 . S
C1175 C1176 1.390 . S
C1176 C1175 1.390 . S
C1176 C1177 1.394 . S
C1176 C1182 1.465 . S
C1177 C1172 1.399 . S
C1177 C1176 1.394 . S
C1177 C1178 1.516 . S
C1178 C1177 1.516 . S
C1178 C1179 1.502 . S
C1178 C1180 1.561 . S
C1178 C1181 1.526 . S
C1179 H1163 0.959 . S
C1179 H1164 0.959 . S
C1179 H1165 0.961 . S
C1179 C1178 1.502 . S
C1180 H1166 0.960 . S
C1180 H1167 0.961 . S
C1180 H1168 0.959 . S
C1180 C1178 1.561 . S
C1181 C1178 1.526 . S
C1181 C1182 1.396 . S
C1181 C1186 1.390 . S
C1182 C1176 1.465 . S
C1182 C1181 1.396 . S
C1182 C1183 1.399 . S
C1183 H1169 0.929 . S
C1183 C1182 1.399 . S
C1183 C1184 1.385 . S
C1184 H1170 0.931 . S
C1184 C1183 1.385 . S
C1184 C1185 1.389 . S
C1185 C1184 1.389 . S
C1185 C1186 1.387 . S
C1186 H1171 0.930 . S
C1186 C1181 1.390 . S
C1186 C1185 1.387 . S
H1187 C1199 0.930 . S
H1188 C1201 0.930 . S
H1189 C1202 0.930 . S
H1190 C1206 0.959 . S
H1191 C1206 0.959 . S
H1192 C1206 0.961 . S
H1193 C1207 0.960 . S
H1194 C1207 0.961 . S
H1195 C1207 0.959 . S
H1196 C1210 0.929 . S
H1197 C1211 0.931 1_556 S
H1198 C1213 0.930 . S
C1199 H1187 0.930 . S
C1199 C1200 1.399 . S
C1199 C1204 1.399 . S
C1200 C1199 1.399 . S
C1200 C1201 1.376 . S
C1201 H1188 0.930 . S
C1201 C1200 1.376 . S
C1201 C1202 1.388 . S
C1202 H1189 0.930 . S
C1202 C1201 1.388 . S
C1202 C1203 1.390 . S
C1203 C1202 1.390 . S
C1203 C1204 1.394 . S
C1203 C1209 1.465 . S
C1204 C1199 1.399 . S
C1204 C1203 1.394 . S
C1204 C1205 1.516 . S
C1205 C1204 1.516 . S
C1205 C1206 1.502 . S
C1205 C1207 1.561 . S
C1205 C1208 1.526 . S
C1206 H1190 0.959 . S
C1206 H1191 0.959 . S
C1206 H1192 0.961 . S
C1206 C1205 1.502 . S
C1207 H1193 0.960 . S
C1207 H1194 0.961 . S
C1207 H1195 0.959 . S
C1207 C1205 1.561 . S
C1208 C1205 1.526 . S
C1208 C1209 1.396 . S
C1208 C1213 1.390 . S
C1209 C1203 1.465 . S
C1209 C1208 1.396 . S
C1209 C1210 1.399 . S
C1210 H1196 0.929 . S
C1210 C1209 1.399 . S
C1210 C1211 1.385 . S
C1211 H1197 0.931 1_554 S
C1211 C1210 1.385 . S
C1211 C1212 1.389 . S
C1212 C1211 1.389 . S
C1212 C1213 1.387 . S
C1213 H1198 0.930 . S
C1213 C1208 1.390 . S
C1213 C1212 1.387 . S
H1214 C1226 0.930 . S
H1215 C1228 0.930 . S
H1216 C1229 0.930 . S
H1217 C1233 0.959 . S
H1218 C1233 0.959 . S
H1219 C1233 0.961 . S
H1220 C1234 0.960 . S
H1221 C1234 0.961 . S
H1222 C1234 0.959 . S
H1223 C1237 0.929 . S
H1224 C1238 0.931 . S
H1225 C1240 0.930 . S
C1226 H1214 0.930 . S
C1226 C1227 1.439 . S
C1226 C1231 1.399 . S
C1227 C1226 1.439 . S
C1227 C1228 1.363 1_455 S
C1228 H1215 0.930 . S
C1228 C1227 1.363 1_655 S
C1228 C1229 1.388 1_655 S
C1229 H1216 0.930 . S
C1229 C1228 1.388 1_455 S
C1229 C1230 1.390 . S
C1230 C1229 1.390 . S
C1230 C1231 1.394 . S
C1230 C1236 1.465 . S
C1231 C1226 1.399 . S
C1231 C1230 1.394 . S
C1231 C1232 1.516 . S
C1232 C1231 1.516 . S
C1232 C1233 1.502 . S
C1232 C1234 1.561 . S
C1232 C1235 1.526 . S
C1233 H1217 0.959 . S
C1233 H1218 0.959 . S
C1233 H1219 0.961 . S
C1233 C1232 1.502 . S
C1234 H1220 0.960 . S
C1234 H1221 0.961 . S
C1234 H1222 0.959 . S
C1234 C1232 1.561 . S
C1235 C1232 1.526 . S
C1235 C1236 1.396 . S
C1235 C1240 1.390 . S
C1236 C1230 1.465 . S
C1236 C1235 1.396 . S
C1236 C1237 1.399 . S
C1237 H1223 0.929 . S
C1237 C1236 1.399 . S
C1237 C1238 1.385 . S
C1238 H1224 0.931 . S
C1238 C1237 1.385 . S
C1238 C1239 1.389 . S
C1239 C1238 1.389 . S
C1239 C1240 1.387 . S
C1240 H1225 0.930 . S
C1240 C1235 1.390 . S
C1240 C1239 1.387 . S
H1241 C1253 0.930 . S
H1242 C1255 0.930 . S
H1243 C1256 0.930 . S
H1244 C1260 0.959 . S
H1245 C1260 0.959 . S
H1246 C1260 0.961 . S
H1247 C1261 0.960 . S
H1248 C1261 0.961 . S
H1249 C1261 0.959 . S
H1250 C1264 0.929 . S
H1251 C1265 0.931 . S
H1252 C1267 0.930 . S
C1253 H1241 0.930 . S
C1253 C1254 1.399 . S
C1253 C1258 1.399 . S
C1254 C1253 1.399 . S
C1254 C1255 1.376 . S
C1255 H1242 0.930 . S
C1255 C1254 1.376 . S
C1255 C1256 1.388 . S
C1256 H1243 0.930 . S
C1256 C1255 1.388 . S
C1256 C1257 1.390 . S
C1257 C1256 1.390 . S
C1257 C1258 1.394 . S
C1257 C1263 1.465 . S
C1258 C1253 1.399 . S
C1258 C1257 1.394 . S
C1258 C1259 1.516 . S
C1259 C1258 1.516 . S
C1259 C1260 1.502 . S
C1259 C1261 1.561 . S
C1259 C1262 1.526 . S
C1260 H1244 0.959 . S
C1260 H1245 0.959 . S
C1260 H1246 0.961 . S
C1260 C1259 1.502 . S
C1261 H1247 0.960 . S
C1261 H1248 0.961 . S
C1261 H1249 0.959 . S
C1261 C1259 1.561 . S
C1262 C1259 1.526 . S
C1262 C1263 1.396 . S
C1262 C1267 1.390 . S
C1263 C1257 1.465 . S
C1263 C1262 1.396 . S
C1263 C1264 1.399 . S
C1264 H1250 0.929 . S
C1264 C1263 1.399 . S
C1264 C1265 1.385 . S
C1265 H1251 0.931 . S
C1265 C1264 1.385 . S
C1265 C1266 1.389 . S
C1266 C1265 1.389 . S
C1266 C1267 1.387 . S
C1267 H1252 0.930 . S
C1267 C1262 1.390 . S
C1267 C1266 1.387 . S
H1268 C1280 0.930 . S
H1269 C1282 0.930 . S
H1270 C1283 0.930 . S
H1271 C1287 0.959 . S
H1272 C1287 0.959 . S
H1273 C1287 0.961 . S
H1274 C1288 0.960 . S
H1275 C1288 0.961 . S
H1276 C1288 0.959 . S
H1277 C1291 0.929 . S
H1278 C1292 0.931 . S
H1279 C1294 0.930 . S
C1280 H1268 0.930 . S
C1280 C1281 1.399 . S
C1280 C1285 1.399 . S
C1281 C1280 1.399 . S
C1281 C1282 1.376 . S
C1282 H1269 0.930 . S
C1282 C1281 1.376 . S
C1282 C1283 1.388 . S
C1283 H1270 0.930 . S
C1283 C1282 1.388 . S
C1283 C1284 1.390 . S
C1284 C1283 1.390 . S
C1284 C1285 1.394 . S
C1284 C1290 1.465 . S
C1285 C1280 1.399 . S
C1285 C1284 1.394 . S
C1285 C1286 1.516 . S
C1286 C1285 1.516 . S
C1286 C1287 1.502 . S
C1286 C1288 1.561 . S
C1286 C1289 1.526 . S
C1287 H1271 0.959 . S
C1287 H1272 0.959 . S
C1287 H1273 0.961 . S
C1287 C1286 1.502 . S
C1288 H1274 0.960 . S
C1288 H1275 0.961 . S
C1288 H1276 0.959 . S
C1288 C1286 1.561 . S
C1289 C1286 1.526 . S
C1289 C1290 1.396 . S
C1289 C1294 1.390 . S
C1290 C1284 1.465 . S
C1290 C1289 1.396 . S
C1290 C1291 1.399 . S
C1291 H1277 0.929 . S
C1291 C1290 1.399 . S
C1291 C1292 1.385 . S
C1292 H1278 0.931 . S
C1292 C1291 1.385 . S
C1292 C1293 1.389 . S
C1293 C1292 1.389 . S
C1293 C1294 1.387 . S
C1294 H1279 0.930 . S
C1294 C1289 1.390 . S
C1294 C1293 1.387 . S
H1295 C1307 0.930 . S
H1296 C1309 0.930 . S
H1297 C1310 0.930 . S
H1298 C1314 0.959 . S
H1299 C1314 0.959 . S
H1300 C1314 0.961 . S
H1301 C1315 0.960 . S
H1302 C1315 0.961 . S
H1303 C1315 0.959 . S
H1304 C1318 0.929 . S
H1305 C1319 0.931 1_554 S
H1306 C1321 0.930 . S
C1307 H1295 0.930 . S
C1307 C1308 1.399 . S
C1307 C1312 1.399 . S
C1308 C1307 1.399 . S
C1308 C1309 1.376 . S
C1309 H1296 0.930 . S
C1309 C1308 1.376 . S
C1309 C1310 1.388 . S
C1310 H1297 0.930 . S
C1310 C1309 1.388 . S
C1310 C1311 1.390 . S
C1311 C1310 1.390 . S
C1311 C1312 1.394 . S
C1311 C1317 1.465 . S
C1312 C1307 1.399 . S
C1312 C1311 1.394 . S
C1312 C1313 1.516 . S
C1313 C1312 1.516 . S
C1313 C1314 1.502 . S
C1313 C1315 1.561 . S
C1313 C1316 1.526 . S
C1314 H1298 0.959 . S
C1314 H1299 0.959 . S
C1314 H1300 0.961 . S
C1314 C1313 1.502 . S
C1315 H1301 0.960 . S
C1315 H1302 0.961 . S
C1315 H1303 0.959 . S
C1315 C1313 1.561 . S
C1316 C1313 1.526 . S
C1316 C1317 1.396 . S
C1316 C1321 1.390 . S
C1317 C1311 1.465 . S
C1317 C1316 1.396 . S
C1317 C1318 1.399 . S
C1318 H1304 0.929 . S
C1318 C1317 1.399 . S
C1318 C1319 1.385 . S
C1319 H1305 0.931 1_556 S
C1319 C1318 1.385 . S
C1319 C1320 1.389 . S
C1320 C1319 1.389 . S
C1320 C1321 1.387 . S
C1321 H1306 0.930 . S
C1321 C1316 1.390 . S
C1321 C1320 1.387 . S
H1322 C1334 0.930 . S
H1323 C1336 0.930 . S
H1324 C1337 0.930 . S
H1325 C1341 0.959 . S
H1326 C1341 0.959 . S
H1327 C1341 0.961 . S
H1328 C1342 0.960 . S
H1329 C1342 0.961 . S
H1330 C1342 0.959 . S
H1331 C1345 0.929 . S
H1332 C1346 0.931 . S
H1333 C1348 0.930 . S
C1334 H1322 0.930 . S
C1334 C1335 1.399 . S
C1334 C1339 1.399 . S
C1335 C1334 1.399 . S
C1335 C1336 1.376 1_655 S
C1336 H1323 0.930 . S
C1336 C1335 1.376 1_455 S
C1336 C1337 1.388 1_455 S
C1337 H1324 0.930 . S
C1337 C1336 1.388 1_655 S
C1337 C1338 1.390 . S
C1338 C1337 1.390 . S
C1338 C1339 1.394 . S
C1338 C1344 1.465 . S
C1339 C1334 1.399 . S
C1339 C1338 1.394 . S
C1339 C1340 1.516 . S
C1340 C1339 1.516 . S
C1340 C1341 1.502 . S
C1340 C1342 1.561 . S
C1340 C1343 1.526 . S
C1341 H1325 0.959 . S
C1341 H1326 0.959 . S
C1341 H1327 0.961 . S
C1341 C1340 1.502 . S
C1342 H1328 0.960 . S
C1342 H1329 0.961 . S
C1342 H1330 0.959 . S
C1342 C1340 1.561 . S
C1343 C1340 1.526 . S
C1343 C1344 1.396 . S
C1343 C1348 1.390 . S
C1344 C1338 1.465 . S
C1344 C1343 1.396 . S
C1344 C1345 1.399 . S
C1345 H1331 0.929 . S
C1345 C1344 1.399 . S
C1345 C1346 1.385 . S
C1346 H1332 0.931 . S
C1346 C1345 1.385 . S
C1346 C1347 1.389 . S
C1347 C1346 1.389 . S
C1347 C1348 1.387 . S
C1348 H1333 0.930 . S
C1348 C1343 1.390 . S
C1348 C1347 1.387 . S
H1349 C1361 0.930 . S
H1350 C1363 0.930 . S
H1351 C1364 0.930 . S
H1352 C1368 0.959 . S
H1353 C1368 0.959 . S
H1354 C1368 0.961 . S
H1355 C1369 0.960 . S
H1356 C1369 0.961 . S
H1357 C1369 0.959 . S
H1358 C1372 0.929 . S
H1359 C1373 0.931 . S
H1360 C1375 0.930 . S
C1361 H1349 0.930 . S
C1361 C1362 1.399 . S
C1361 C1366 1.399 . S
C1362 C1361 1.399 . S
C1362 C1363 1.376 . S
C1363 H1350 0.930 . S
C1363 C1362 1.376 . S
C1363 C1364 1.388 . S
C1364 H1351 0.930 . S
C1364 C1363 1.388 . S
C1364 C1365 1.390 . S
C1365 C1364 1.390 . S
C1365 C1366 1.394 . S
C1365 C1371 1.465 . S
C1366 C1361 1.399 . S
C1366 C1365 1.394 . S
C1366 C1367 1.516 . S
C1367 C1366 1.516 . S
C1367 C1368 1.502 . S
C1367 C1369 1.561 . S
C1367 C1370 1.526 . S
C1368 H1352 0.959 . S
C1368 H1353 0.959 . S
C1368 H1354 0.961 . S
C1368 C1367 1.502 . S
C1369 H1355 0.960 . S
C1369 H1356 0.961 . S
C1369 H1357 0.959 . S
C1369 C1367 1.561 . S
C1370 C1367 1.526 . S
C1370 C1371 1.396 . S
C1370 C1375 1.390 . S
C1371 C1365 1.465 . S
C1371 C1370 1.396 . S
C1371 C1372 1.399 . S
C1372 H1358 0.929 . S
C1372 C1371 1.399 . S
C1372 C1373 1.385 . S
C1373 H1359 0.931 . S
C1373 C1372 1.385 . S
C1373 C1374 1.389 . S
C1374 C1373 1.389 . S
C1374 C1375 1.387 . S
C1375 H1360 0.930 . S
C1375 C1370 1.390 . S
C1375 C1374 1.387 . S
H1376 C1388 0.930 . S
H1377 C1390 0.930 . S
H1378 C1391 0.930 . S
H1379 C1395 0.959 . S
H1380 C1395 0.959 . S
H1381 C1395 0.961 . S
H1382 C1396 0.960 . S
H1383 C1396 0.961 . S
H1384 C1396 0.959 . S
H1385 C1399 0.929 . S
H1386 C1400 0.931 . S
H1387 C1402 0.930 . S
C1388 H1376 0.930 . S
C1388 C1389 1.399 . S
C1388 C1393 1.399 . S
C1389 C1388 1.399 . S
C1389 C1390 1.376 . S
C1390 H1377 0.930 . S
C1390 C1389 1.376 . S
C1390 C1391 1.388 . S
C1391 H1378 0.930 . S
C1391 C1390 1.388 . S
C1391 C1392 1.390 . S
C1392 C1391 1.390 . S
C1392 C1393 1.394 . S
C1392 C1398 1.465 . S
C1393 C1388 1.399 . S
C1393 C1392 1.394 . S
C1393 C1394 1.516 . S
C1394 C1393 1.516 . S
C1394 C1395 1.502 . S
C1394 C1396 1.561 . S
C1394 C1397 1.526 . S
C1395 H1379 0.959 . S
C1395 H1380 0.959 . S
C1395 H1381 0.961 . S
C1395 C1394 1.502 . S
C1396 H1382 0.960 . S
C1396 H1383 0.961 . S
C1396 H1384 0.959 . S
C1396 C1394 1.561 . S
C1397 C1394 1.526 . S
C1397 C1398 1.396 . S
C1397 C1402 1.390 . S
C1398 C1392 1.465 . S
C1398 C1397 1.396 . S
C1398 C1399 1.399 . S
C1399 H1385 0.929 . S
C1399 C1398 1.399 . S
C1399 C1400 1.385 1_655 S
C1400 H1386 0.931 . S
C1400 C1399 1.385 1_455 S
C1400 C1401 1.382 1_455 S
C1401 C1400 1.382 1_655 S
C1401 C1402 1.415 . S
C1402 H1387 0.930 . S
C1402 C1397 1.390 . S
C1402 C1401 1.415 . S
H1403 C1415 0.930 . S
H1404 C1417 0.930 . S
H1405 C1418 0.930 . S
H1406 C1422 0.959 . S
H1407 C1422 0.959 . S
H1408 C1422 0.961 . S
H1409 C1423 0.960 . S
H1410 C1423 0.961 . S
H1411 C1423 0.959 . S
H1412 C1426 0.929 . S
H1413 C1427 0.931 . S
H1414 C1429 0.930 . S
C1415 H1403 0.930 . S
C1415 C1416 1.399 . S
C1415 C1420 1.399 . S
C1416 C1415 1.399 . S
C1416 C1417 1.376 . S
C1417 H1404 0.930 . S
C1417 C1416 1.376 . S
C1417 C1418 1.388 . S
C1418 H1405 0.930 . S
C1418 C1417 1.388 . S
C1418 C1419 1.390 . S
C1419 C1418 1.390 . S
C1419 C1420 1.394 . S
C1419 C1425 1.465 . S
C1420 C1415 1.399 . S
C1420 C1419 1.394 . S
C1420 C1421 1.516 . S
C1421 C1420 1.516 . S
C1421 C1422 1.502 . S
C1421 C1423 1.561 . S
C1421 C1424 1.526 . S
C1422 H1406 0.959 . S
C1422 H1407 0.959 . S
C1422 H1408 0.961 . S
C1422 C1421 1.502 . S
C1423 H1409 0.960 . S
C1423 H1410 0.961 . S
C1423 H1411 0.959 . S
C1423 C1421 1.561 . S
C1424 C1421 1.526 . S
C1424 C1425 1.396 . S
C1424 C1429 1.390 . S
C1425 C1419 1.465 . S
C1425 C1424 1.396 . S
C1425 C1426 1.399 . S
C1426 H1412 0.929 . S
C1426 C1425 1.399 . S
C1426 C1427 1.385 . S
C1427 H1413 0.931 . S
C1427 C1426 1.385 . S
C1427 C1428 1.389 . S
C1428 C1427 1.389 . S
C1428 C1429 1.387 . S
C1429 H1414 0.930 . S
C1429 C1424 1.390 . S
C1429 C1428 1.387 . S
H1430 C1442 0.930 . S
H1431 C1444 0.930 . S
H1432 C1445 0.930 . S
H1433 C1449 0.959 . S
H1434 C1449 0.959 . S
H1435 C1449 0.961 . S
H1436 C1450 0.960 . S
H1437 C1450 0.961 . S
H1438 C1450 0.959 . S
H1439 C1453 0.929 . S
H1440 C1454 0.931 . S
H1441 C1456 0.930 . S
C1442 H1430 0.930 . S
C1442 C1443 1.399 . S
C1442 C1447 1.399 . S
C1443 C1442 1.399 . S
C1443 C1444 1.376 . S
C1444 H1431 0.930 . S
C1444 C1443 1.376 . S
C1444 C1445 1.388 . S
C1445 H1432 0.930 . S
C1445 C1444 1.388 . S
C1445 C1446 1.390 . S
C1446 C1445 1.390 . S
C1446 C1447 1.394 . S
C1446 C1452 1.465 . S
C1447 C1442 1.399 . S
C1447 C1446 1.394 . S
C1447 C1448 1.516 . S
C1448 C1447 1.516 . S
C1448 C1449 1.502 . S
C1448 C1450 1.561 . S
C1448 C1451 1.526 . S
C1449 H1433 0.959 . S
C1449 H1434 0.959 . S
C1449 H1435 0.961 . S
C1449 C1448 1.502 . S
C1450 H1436 0.960 . S
C1450 H1437 0.961 . S
C1450 H1438 0.959 . S
C1450 C1448 1.561 . S
C1451 C1448 1.526 . S
C1451 C1452 1.396 . S
C1451 C1456 1.390 . S
C1452 C1446 1.465 . S
C1452 C1451 1.396 . S
C1452 C1453 1.399 . S
C1453 H1439 0.929 . S
C1453 C1452 1.399 . S
C1453 C1454 1.385 . S
C1454 H1440 0.931 . S
C1454 C1453 1.385 . S
C1454 C1455 1.389 . S
C1455 C1454 1.389 . S
C1455 C1456 1.387 . S
C1456 H1441 0.930 . S
C1456 C1451 1.390 . S
C1456 C1455 1.387 . S
H1457 C1469 0.930 . S
H1458 C1471 0.930 . S
H1459 C1472 0.930 . S
H1460 C1476 0.959 . S
H1461 C1476 0.959 . S
H1462 C1476 0.961 . S
H1463 C1477 0.960 . S
H1464 C1477 0.961 . S
H1465 C1477 0.959 . S
H1466 C1480 0.929 . S
H1467 C1481 0.931 . S
H1468 C1483 0.930 . S
C1469 H1457 0.930 . S
C1469 C1470 1.399 . S
C1469 C1474 1.399 . S
C1470 C1469 1.399 . S
C1470 C1471 1.376 . S
C1471 H1458 0.930 . S
C1471 C1470 1.376 . S
C1471 C1472 1.388 . S
C1472 H1459 0.930 . S
C1472 C1471 1.388 . S
C1472 C1473 1.390 . S
C1473 C1472 1.390 . S
C1473 C1474 1.394 . S
C1473 C1479 1.465 . S
C1474 C1469 1.399 . S
C1474 C1473 1.394 . S
C1474 C1475 1.516 . S
C1475 C1474 1.516 . S
C1475 C1476 1.502 . S
C1475 C1477 1.561 . S
C1475 C1478 1.526 . S
C1476 H1460 0.959 . S
C1476 H1461 0.959 . S
C1476 H1462 0.961 . S
C1476 C1475 1.502 . S
C1477 H1463 0.960 . S
C1477 H1464 0.961 . S
C1477 H1465 0.959 . S
C1477 C1475 1.561 . S
C1478 C1475 1.526 . S
C1478 C1479 1.396 . S
C1478 C1483 1.390 . S
C1479 C1473 1.465 . S
C1479 C1478 1.396 . S
C1479 C1480 1.399 . S
C1480 H1466 0.929 . S
C1480 C1479 1.399 . S
C1480 C1481 1.385 . S
C1481 H1467 0.931 . S
C1481 C1480 1.385 . S
C1481 C1482 1.389 . S
C1482 C1481 1.389 . S
C1482 C1483 1.387 . S
C1483 H1468 0.930 . S
C1483 C1478 1.390 . S
C1483 C1482 1.387 . S
H1484 C1496 0.930 . S
H1485 C1498 0.930 . S
H1486 C1499 0.930 . S
H1487 C1503 0.959 . S
H1488 C1503 0.959 . S
H1489 C1503 0.961 . S
H1490 C1504 0.960 . S
H1491 C1504 0.961 . S
H1492 C1504 0.959 . S
H1493 C1507 0.929 . S
H1494 C1508 0.931 1_655 S
H1495 C1510 0.930 . S
C1496 H1484 0.930 . S
C1496 C1497 1.399 . S
C1496 C1501 1.399 . S
C1497 C1496 1.399 . S
C1497 C1498 1.376 . S
C1498 H1485 0.930 . S
C1498 C1497 1.376 . S
C1498 C1499 1.388 . S
C1499 H1486 0.930 . S
C1499 C1498 1.388 . S
C1499 C1500 1.390 . S
C1500 C1499 1.390 . S
C1500 C1501 1.394 . S
C1500 C1506 1.465 . S
C1501 C1496 1.399 . S
C1501 C1500 1.394 . S
C1501 C1502 1.516 . S
C1502 C1501 1.516 . S
C1502 C1503 1.502 . S
C1502 C1504 1.561 . S
C1502 C1505 1.526 . S
C1503 H1487 0.959 . S
C1503 H1488 0.959 . S
C1503 H1489 0.961 . S
C1503 C1502 1.502 . S
C1504 H1490 0.960 . S
C1504 H1491 0.961 . S
C1504 H1492 0.959 . S
C1504 C1502 1.561 . S
C1505 C1502 1.526 . S
C1505 C1506 1.396 . S
C1505 C1510 1.390 . S
C1506 C1500 1.465 . S
C1506 C1505 1.396 . S
C1506 C1507 1.399 . S
C1507 H1493 0.929 . S
C1507 C1506 1.399 . S
C1507 C1508 1.385 . S
C1508 H1494 0.931 1_455 S
C1508 C1507 1.385 . S
C1508 C1509 1.389 . S
C1509 C1508 1.389 . S
C1509 C1510 1.387 . S
C1510 H1495 0.930 . S
C1510 C1505 1.390 . S
C1510 C1509 1.387 . S
H1511 C1523 0.930 . S
H1512 C1525 0.930 . S
H1513 C1526 0.930 . S
H1514 C1530 0.959 . S
H1515 C1530 0.959 . S
H1516 C1530 0.961 . S
H1517 C1531 0.960 . S
H1518 C1531 0.961 . S
H1519 C1531 0.959 . S
H1520 C1534 0.929 . S
H1521 C1535 0.931 . S
H1522 C1537 0.930 . S
C1523 H1511 0.930 . S
C1523 C1524 1.399 . S
C1523 C1528 1.399 . S
C1524 C1523 1.399 . S
C1524 C1525 1.376 . S
C1525 H1512 0.930 . S
C1525 C1524 1.376 . S
C1525 C1526 1.388 . S
C1526 H1513 0.930 . S
C1526 C1525 1.388 . S
C1526 C1527 1.390 . S
C1527 C1526 1.390 . S
C1527 C1528 1.394 . S
C1527 C1533 1.465 . S
C1528 C1523 1.399 . S
C1528 C1527 1.394 . S
C1528 C1529 1.516 . S
C1529 C1528 1.516 . S
C1529 C1530 1.502 . S
C1529 C1531 1.561 . S
C1529 C1532 1.526 . S
C1530 H1514 0.959 . S
C1530 H1515 0.959 . S
C1530 H1516 0.961 . S
C1530 C1529 1.502 . S
C1531 H1517 0.960 . S
C1531 H1518 0.961 . S
C1531 H1519 0.959 . S
C1531 C1529 1.561 . S
C1532 C1529 1.526 . S
C1532 C1533 1.396 . S
C1532 C1537 1.390 . S
C1533 C1527 1.465 . S
C1533 C1532 1.396 . S
C1533 C1534 1.399 . S
C1534 H1520 0.929 . S
C1534 C1533 1.399 . S
C1534 C1535 1.385 . S
C1535 H1521 0.931 . S
C1535 C1534 1.385 . S
C1535 C1536 1.389 . S
C1536 C1535 1.389 . S
C1536 C1537 1.387 . S
C1537 H1522 0.930 . S
C1537 C1532 1.390 . S
C1537 C1536 1.387 . S
H1538 C1550 0.930 . S
H1539 C1552 0.930 . S
H1540 C1553 0.930 . S
H1541 C1557 0.959 . S
H1542 C1557 0.959 . S
H1543 C1557 0.961 . S
H1544 C1558 0.960 . S
H1545 C1558 0.961 . S
H1546 C1558 0.959 . S
H1547 C1561 0.929 . S
H1548 C1562 0.931 . S
H1549 C1564 0.930 . S
C1550 H1538 0.930 . S
C1550 C1551 1.399 . S
C1550 C1555 1.399 . S
C1551 C1550 1.399 . S
C1551 C1552 1.376 . S
C1552 H1539 0.930 . S
C1552 C1551 1.376 . S
C1552 C1553 1.388 . S
C1553 H1540 0.930 . S
C1553 C1552 1.388 . S
C1553 C1554 1.390 . S
C1554 C1553 1.390 . S
C1554 C1555 1.394 . S
C1554 C1560 1.465 . S
C1555 C1550 1.399 . S
C1555 C1554 1.394 . S
C1555 C1556 1.516 . S
C1556 C1555 1.516 . S
C1556 C1557 1.502 . S
C1556 C1558 1.561 . S
C1556 C1559 1.526 . S
C1557 H1541 0.959 . S
C1557 H1542 0.959 . S
C1557 H1543 0.961 . S
C1557 C1556 1.502 . S
C1558 H1544 0.960 . S
C1558 H1545 0.961 . S
C1558 H1546 0.959 . S
C1558 C1556 1.561 . S
C1559 C1556 1.526 . S
C1559 C1560 1.396 . S
C1559 C1564 1.390 . S
C1560 C1554 1.465 . S
C1560 C1559 1.396 . S
C1560 C1561 1.399 . S
C1561 H1547 0.929 . S
C1561 C1560 1.399 . S
C1561 C1562 1.385 . S
C1562 H1548 0.931 . S
C1562 C1561 1.385 . S
C1562 C1563 1.389 . S
C1563 C1562 1.389 . S
C1563 C1564 1.387 . S
C1564 H1549 0.930 . S
C1564 C1559 1.390 . S
C1564 C1563 1.387 . S
H1565 C1577 0.930 . S
H1566 C1579 0.930 1_554 S
H1567 C1580 0.930 . S
H1568 C1584 0.959 . S
H1569 C1584 0.959 . S
H1570 C1584 0.961 . S
H1571 C1585 0.960 . S
H1572 C1585 0.961 . S
H1573 C1585 0.959 . S
H1574 C1588 0.929 . S
H1575 C1589 0.931 . S
H1576 C1591 0.930 . S
C1577 H1565 0.930 . S
C1577 C1578 1.399 . S
C1577 C1582 1.399 . S
C1578 C1577 1.399 . S
C1578 C1579 1.376 . S
C1579 H1566 0.930 1_556 S
C1579 C1578 1.376 . S
C1579 C1580 1.388 . S
C1580 H1567 0.930 . S
C1580 C1579 1.388 . S
C1580 C1581 1.390 . S
C1581 C1580 1.390 . S
C1581 C1582 1.394 . S
C1581 C1587 1.465 . S
C1582 C1577 1.399 . S
C1582 C1581 1.394 . S
C1582 C1583 1.516 . S
C1583 C1582 1.516 . S
C1583 C1584 1.502 . S
C1583 C1585 1.561 . S
C1583 C1586 1.526 . S
C1584 H1568 0.959 . S
C1584 H1569 0.959 . S
C1584 H1570 0.961 . S
C1584 C1583 1.502 . S
C1585 H1571 0.960 . S
C1585 H1572 0.961 . S
C1585 H1573 0.959 . S
C1585 C1583 1.561 . S
C1586 C1583 1.526 . S
C1586 C1587 1.396 . S
C1586 C1591 1.390 . S
C1587 C1581 1.465 . S
C1587 C1586 1.396 . S
C1587 C1588 1.399 . S
C1588 H1574 0.929 . S
C1588 C1587 1.399 . S
C1588 C1589 1.385 . S
C1589 H1575 0.931 . S
C1589 C1588 1.385 . S
C1589 C1590 1.389 . S
C1590 C1589 1.389 . S
C1590 C1591 1.387 . S
C1591 H1576 0.930 . S
C1591 C1586 1.390 . S
C1591 C1590 1.387 . S
H1592 C1604 0.930 . S
H1593 C1606 0.930 . S
H1594 C1607 0.930 . S
H1595 C1611 0.959 . S
H1596 C1611 0.959 . S
H1597 C1611 0.961 . S
H1598 C1612 0.960 . S
H1599 C1612 0.961 . S
H1600 C1612 0.959 . S
H1601 C1615 0.929 . S
H1602 C1616 0.931 . S
H1603 C1618 0.930 . S
C1604 H1592 0.930 . S
C1604 C1605 1.399 . S
C1604 C1609 1.399 . S
C1605 C1604 1.399 . S
C1605 C1606 1.376 . S
C1606 H1593 0.930 . S
C1606 C1605 1.376 . S
C1606 C1607 1.388 . S
C1607 H1594 0.930 . S
C1607 C1606 1.388 . S
C1607 C1608 1.390 . S
C1608 C1607 1.390 . S
C1608 C1609 1.394 . S
C1608 C1614 1.465 . S
C1609 C1604 1.399 . S
C1609 C1608 1.394 . S
C1609 C1610 1.516 . S
C1610 C1609 1.516 . S
C1610 C1611 1.502 . S
C1610 C1612 1.561 . S
C1610 C1613 1.526 . S
C1611 H1595 0.959 . S
C1611 H1596 0.959 . S
C1611 H1597 0.961 . S
C1611 C1610 1.502 . S
C1612 H1598 0.960 . S
C1612 H1599 0.961 . S
C1612 H1600 0.959 . S
C1612 C1610 1.561 . S
C1613 C1610 1.526 . S
C1613 C1614 1.396 . S
C1613 C1618 1.390 . S
C1614 C1608 1.465 . S
C1614 C1613 1.396 . S
C1614 C1615 1.399 . S
C1615 H1601 0.929 . S
C1615 C1614 1.399 . S
C1615 C1616 1.385 . S
C1616 H1602 0.931 . S
C1616 C1615 1.385 . S
C1616 C1617 1.389 . S
C1617 C1616 1.389 . S
C1617 C1618 1.387 . S
C1618 H1603 0.930 . S
C1618 C1613 1.390 . S
C1618 C1617 1.387 . S
H1619 C1631 0.930 . S
H1620 C1633 0.930 . S
H1621 C1634 0.930 . S
H1622 C1638 0.959 . S
H1623 C1638 0.959 . S
H1624 C1638 0.961 . S
H1625 C1639 0.960 . S
H1626 C1639 0.961 . S
H1627 C1639 0.959 . S
H1628 C1642 0.929 . S
H1629 C1643 0.931 . S
H1630 C1645 0.930 . S
C1631 H1619 0.930 . S
C1631 C1632 1.399 . S
C1631 C1636 1.399 . S
C1632 C1631 1.399 . S
C1632 C1633 1.376 . S
C1633 H1620 0.930 . S
C1633 C1632 1.376 . S
C1633 C1634 1.388 . S
C1634 H1621 0.930 . S
C1634 C1633 1.388 . S
C1634 C1635 1.390 . S
C1635 C1634 1.390 . S
C1635 C1636 1.394 . S
C1635 C1641 1.465 . S
C1636 C1631 1.399 . S
C1636 C1635 1.394 . S
C1636 C1637 1.516 . S
C1637 C1636 1.516 . S
C1637 C1638 1.502 . S
C1637 C1639 1.561 . S
C1637 C1640 1.526 . S
C1638 H1622 0.959 . S
C1638 H1623 0.959 . S
C1638 H1624 0.961 . S
C1638 C1637 1.502 . S
C1639 H1625 0.960 . S
C1639 H1626 0.961 . S
C1639 H1627 0.959 . S
C1639 C1637 1.561 . S
C1640 C1637 1.526 . S
C1640 C1641 1.396 . S
C1640 C1645 1.390 . S
C1641 C1635 1.465 . S
C1641 C1640 1.396 . S
C1641 C1642 1.399 . S
C1642 H1628 0.929 . S
C1642 C1641 1.399 . S
C1642 C1643 1.385 . S
C1643 H1629 0.931 . S
C1643 C1642 1.385 . S
C1643 C1644 1.389 . S
C1644 C1643 1.389 . S
C1644 C1645 1.387 . S
C1645 H1630 0.930 . S
C1645 C1640 1.390 . S
C1645 C1644 1.387 . S
H1646 C1658 0.930 . S
H1647 C1660 0.930 . S
H1648 C1661 0.930 . S
H1649 C1665 0.959 . S
H1650 C1665 0.959 . S
H1651 C1665 0.961 . S
H1652 C1666 0.960 . S
H1653 C1666 0.961 . S
H1654 C1666 0.959 . S
H1655 C1669 0.929 . S
H1656 C1670 0.931 . S
H1657 C1672 0.930 . S
C1658 H1646 0.930 . S
C1658 C1659 1.399 . S
C1658 C1663 1.399 . S
C1659 C1658 1.399 . S
C1659 C1660 1.376 . S
C1660 H1647 0.930 . S
C1660 C1659 1.376 . S
C1660 C1661 1.388 . S
C1661 H1648 0.930 . S
C1661 C1660 1.388 . S
C1661 C1662 1.390 . S
C1662 C1661 1.390 . S
C1662 C1663 1.394 . S
C1662 C1668 1.465 . S
C1663 C1658 1.399 . S
C1663 C1662 1.394 . S
C1663 C1664 1.516 . S
C1664 C1663 1.516 . S
C1664 C1665 1.502 . S
C1664 C1666 1.561 . S
C1664 C1667 1.526 . S
C1665 H1649 0.959 . S
C1665 H1650 0.959 . S
C1665 H1651 0.961 . S
C1665 C1664 1.502 . S
C1666 H1652 0.960 . S
C1666 H1653 0.961 . S
C1666 H1654 0.959 . S
C1666 C1664 1.561 . S
C1667 C1664 1.526 . S
C1667 C1668 1.396 . S
C1667 C1672 1.390 . S
C1668 C1662 1.465 . S
C1668 C1667 1.396 . S
C1668 C1669 1.399 . S
C1669 H1655 0.929 . S
C1669 C1668 1.399 . S
C1669 C1670 1.385 . S
C1670 H1656 0.931 . S
C1670 C1669 1.385 . S
C1670 C1671 1.389 . S
C1671 C1670 1.389 . S
C1671 C1672 1.387 . S
C1672 H1657 0.930 . S
C1672 C1667 1.390 . S
C1672 C1671 1.387 . S
H1673 C1685 0.930 . S
H1674 C1687 0.930 . S
H1675 C1688 0.930 . S
H1676 C1692 0.959 1_554 S
H1677 C1692 0.959 . S
H1678 C1692 0.961 . S
H1679 C1693 0.962 . S
H1680 C1693 0.957 1_655 S
H1681 C1693 0.964 . S
H1682 C1696 0.929 1_554 S
H1683 C1697 0.931 . S
H1684 C1699 0.930 . S
C1685 H1673 0.930 . S
C1685 C1686 1.399 . S
C1685 C1690 1.399 . S
C1686 C1685 1.399 . S
C1686 C1687 1.376 . S
C1687 H1674 0.930 . S
C1687 C1686 1.376 . S
C1687 C1688 1.388 . S
C1688 H1675 0.930 . S
C1688 C1687 1.388 . S
C1688 C1689 1.390 . S
C1689 C1688 1.390 . S
C1689 C1690 1.394 . S
C1689 C1695 1.465 1_554 S
C1690 C1685 1.399 . S
C1690 C1689 1.394 . S
C1690 C1691 1.516 1_454 S
C1691 C1690 1.516 1_656 S
C1691 C1692 1.502 . S
C1691 C1693 1.559 1_655 S
C1691 C1694 1.526 . S
C1692 H1676 0.959 1_556 S
C1692 H1677 0.959 . S
C1692 H1678 0.961 . S
C1692 C1691 1.502 . S
C1693 H1679 0.962 . S
C1693 H1680 0.957 1_455 S
C1693 H1681 0.964 . S
C1693 C1691 1.559 1_455 S
C1694 C1691 1.526 . S
C1694 C1695 1.396 1_655 S
C1694 C1699 1.390 . S
C1695 C1689 1.465 1_556 S
C1695 C1694 1.396 1_455 S
C1695 C1696 1.399 . S
C1696 H1682 0.929 1_556 S
C1696 C1695 1.399 . S
C1696 C1697 1.385 1_455 S
C1697 H1683 0.931 . S
C1697 C1696 1.385 1_655 S
C1697 C1698 1.389 . S
C1698 C1697 1.389 . S
C1698 C1699 1.387 . S
C1699 H1684 0.930 . S
C1699 C1694 1.390 . S
C1699 C1698 1.387 . S
H1700 C1712 0.930 . S
H1701 C1714 0.930 . S
H1702 C1715 0.930 . S
H1703 C1719 0.959 . S
H1704 C1719 0.959 . S
H1705 C1719 0.961 . S
H1706 C1720 0.960 . S
H1707 C1720 0.961 . S
H1708 C1720 0.959 . S
H1709 C1723 0.929 . S
H1710 C1724 0.931 . S
H1711 C1726 0.930 . S
C1712 H1700 0.930 . S
C1712 C1713 1.399 . S
C1712 C1717 1.399 . S
C1713 C1712 1.399 . S
C1713 C1714 1.376 . S
C1714 H1701 0.930 . S
C1714 C1713 1.376 . S
C1714 C1715 1.388 . S
C1715 H1702 0.930 . S
C1715 C1714 1.388 . S
C1715 C1716 1.390 . S
C1716 C1715 1.390 . S
C1716 C1717 1.394 . S
C1716 C1722 1.465 . S
C1717 C1712 1.399 . S
C1717 C1716 1.394 . S
C1717 C1718 1.516 . S
C1718 C1717 1.516 . S
C1718 C1719 1.502 . S
C1718 C1720 1.561 . S
C1718 C1721 1.526 . S
C1719 H1703 0.959 . S
C1719 H1704 0.959 . S
C1719 H1705 0.961 . S
C1719 C1718 1.502 . S
C1720 H1706 0.960 . S
C1720 H1707 0.961 . S
C1720 H1708 0.959 . S
C1720 C1718 1.561 . S
C1721 C1718 1.526 . S
C1721 C1722 1.396 . S
C1721 C1726 1.390 . S
C1722 C1716 1.465 . S
C1722 C1721 1.396 . S
C1722 C1723 1.399 . S
C1723 H1709 0.929 . S
C1723 C1722 1.399 . S
C1723 C1724 1.385 . S
C1724 H1710 0.931 . S
C1724 C1723 1.385 . S
C1724 C1725 1.389 . S
C1725 C1724 1.389 . S
C1725 C1726 1.387 . S
C1726 H1711 0.930 . S
C1726 C1721 1.390 . S
C1726 C1725 1.387 . S
H1727 C1739 0.930 . S
H1728 C1741 0.930 . S
H1729 C1742 0.930 . S
H1730 C1746 0.959 . S
H1731 C1746 0.959 . S
H1732 C1746 0.961 . S
H1733 C1747 0.960 . S
H1734 C1747 0.961 . S
H1735 C1747 0.959 . S
H1736 C1750 0.929 . S
H1737 C1751 0.931 . S
H1738 C1753 0.930 . S
C1739 H1727 0.930 . S
C1739 C1740 1.399 . S
C1739 C1744 1.399 . S
C1740 C1739 1.399 . S
C1740 C1741 1.376 . S
C1741 H1728 0.930 . S
C1741 C1740 1.376 . S
C1741 C1742 1.388 . S
C1742 H1729 0.930 . S
C1742 C1741 1.388 . S
C1742 C1743 1.390 . S
C1743 C1742 1.390 . S
C1743 C1744 1.394 . S
C1743 C1749 1.465 . S
C1744 C1739 1.399 . S
C1744 C1743 1.394 . S
C1744 C1745 1.516 . S
C1745 C1744 1.516 . S
C1745 C1746 1.502 . S
C1745 C1747 1.561 . S
C1745 C1748 1.526 . S
C1746 H1730 0.959 . S
C1746 H1731 0.959 . S
C1746 H1732 0.961 . S
C1746 C1745 1.502 . S
C1747 H1733 0.960 . S
C1747 H1734 0.961 . S
C1747 H1735 0.959 . S
C1747 C1745 1.561 . S
C1748 C1745 1.526 . S
C1748 C1749 1.396 . S
C1748 C1753 1.390 . S
C1749 C1743 1.465 . S
C1749 C1748 1.396 . S
C1749 C1750 1.399 . S
C1750 H1736 0.929 . S
C1750 C1749 1.399 . S
C1750 C1751 1.385 . S
C1751 H1737 0.931 . S
C1751 C1750 1.385 . S
C1751 C1752 1.389 . S
C1752 C1751 1.389 . S
C1752 C1753 1.387 . S
C1753 H1738 0.930 . S
C1753 C1748 1.390 . S
C1753 C1752 1.387 . S
H1754 C1766 0.930 . S
H1755 C1768 0.930 1_655 S
H1756 C1769 0.930 . S
H1757 C1773 0.959 . S
H1758 C1773 0.959 . S
H1759 C1773 0.961 . S
H1760 C1774 0.960 . S
H1761 C1774 0.961 . S
H1762 C1774 0.959 1_545 S
H1763 C1777 0.929 . S
H1764 C1778 0.931 . S
H1765 C1780 0.930 1_455 S
C1766 H1754 0.930 . S
C1766 C1767 1.399 . S
C1766 C1771 1.399 . S
C1767 C1766 1.399 . S
C1767 C1768 1.376 . S
C1768 H1755 0.930 1_455 S
C1768 C1767 1.376 . S
C1768 C1769 1.388 1_455 S
C1769 H1756 0.930 . S
C1769 C1768 1.388 1_655 S
C1769 C1770 1.390 . S
C1770 C1769 1.390 . S
C1770 C1771 1.394 1_655 S
C1770 C1776 1.471 1_556 S
C1771 C1766 1.399 . S
C1771 C1770 1.394 1_455 S
C1771 C1772 1.516 1_546 S
C1772 C1771 1.516 1_564 S
C1772 C1773 1.502 1_554 S
C1772 C1774 1.561 . S
C1772 C1775 1.548 . S
C1773 H1757 0.959 . S
C1773 H1758 0.959 . S
C1773 H1759 0.961 . S
C1773 C1772 1.502 1_556 S
C1774 H1760 0.960 . S
C1774 H1761 0.961 . S
C1774 H1762 0.959 1_565 S
C1774 C1772 1.561 . S
C1775 C1772 1.548 . S
C1775 C1776 1.374 1_465 S
C1775 C1780 1.382 1_455 S
C1776 C1770 1.471 1_554 S
C1776 C1775 1.374 1_645 S
C1776 C1777 1.399 . S
C1777 H1763 0.929 . S
C1777 C1776 1.399 . S
C1777 C1778 1.385 1_545 S
C1778 H1764 0.931 . S
C1778 C1777 1.385 1_565 S
C1778 C1779 1.389 . S
C1779 C1778 1.389 . S
C1779 C1780 1.387 . S
C1780 H1765 0.930 1_655 S
C1780 C1775 1.382 1_655 S
C1780 C1779 1.387 . S
H1781 C1793 0.930 . S
H1782 C1795 0.930 . S
H1783 C1796 0.930 . S
H1784 C1800 0.959 . S
H1785 C1800 0.959 . S
H1786 C1800 0.961 . S
H1787 C1801 0.960 . S
H1788 C1801 0.961 . S
H1789 C1801 0.959 . S
H1790 C1804 0.929 . S
H1791 C1805 0.931 . S
H1792 C1807 0.930 . S
C1793 H1781 0.930 . S
C1793 C1794 1.399 . S
C1793 C1798 1.399 . S
C1794 C1793 1.399 . S
C1794 C1795 1.376 . S
C1795 H1782 0.930 . S
C1795 C1794 1.376 . S
C1795 C1796 1.388 1_545 S
C1796 H1783 0.930 . S
C1796 C1795 1.388 1_565 S
C1796 C1797 1.390 . S
C1797 C1796 1.390 . S
C1797 C1798 1.394 1_565 S
C1797 C1803 1.465 . S
C1798 C1793 1.399 . S
C1798 C1797 1.394 1_545 S
C1798 C1799 1.516 . S
C1799 C1798 1.516 . S
C1799 C1800 1.502 . S
C1799 C1801 1.561 . S
C1799 C1802 1.526 1_545 S
C1800 H1784 0.959 . S
C1800 H1785 0.959 . S
C1800 H1786 0.961 . S
C1800 C1799 1.502 . S
C1801 H1787 0.960 . S
C1801 H1788 0.961 . S
C1801 H1789 0.959 . S
C1801 C1799 1.561 . S
C1802 C1799 1.526 1_565 S
C1802 C1803 1.396 . S
C1802 C1807 1.390 . S
C1803 C1797 1.465 . S
C1803 C1802 1.396 . S
C1803 C1804 1.399 . S
C1804 H1790 0.929 . S
C1804 C1803 1.399 . S
C1804 C1805 1.385 . S
C1805 H1791 0.931 . S
C1805 C1804 1.385 . S
C1805 C1806 1.389 . S
C1806 C1805 1.389 . S
C1806 C1807 1.387 . S
C1807 H1792 0.930 . S
C1807 C1802 1.390 . S
C1807 C1806 1.387 . S
C525 N13 0.269 . S
C537 N338 0.404 . S
C552 N50 0.389 . S
C564 N370 0.223 . S
C579 N82 0.221 . S
C591 N269 0.425 . S
C606 N114 0.405 . S
C618 N306 0.201 . S
C633 N146 0.170 . S
C645 N461 0.404 . S
C660 N178 0.422 . S
C672 N498 0.317 . S
C687 N210 0.199 . S
C699 N402 0.427 . S
C714 N242 0.179 . S
C726 N434 0.370 . S
C741 C317 1.001 . S
C753 N18 0.993 . S
C768 C349 1.035 . S
C780 N45 0.995 . S
C795 C381 1.008 . S
C807 N77 0.992 . S
C822 C260 1.054 . S
C834 N109 1.095 . S
C849 N141 1.004 . S
C861 C445 1.020 . S
C876 C452 0.980 . S
C888 N173 0.994 . S
C903 C509 0.979 . S
C915 N205 1.009 . S
C930 C413 1.090 . S
C942 N237 1.074 . S
C957 C61 1.066 . S
C969 N274 1.095 . S
C984 N301 0.968 1_565 S
C996 C93 0.991 . S
C1011 N333 1.082 . S
C1023 C125 1.016 . S
C1038 N365 1.018 1_545 S
C1050 C4 0.985 . S
C1065 N397 1.095 . S
C1077 C189 1.091 . S
C1092 C221 1.088 . S
C1104 N429 1.066 1_545 S
C1119 C253 0.995 . S
C1131 N466 1.033 . S
C1146 N493 0.999 1_565 S
C1158 C157 0.994 . S
C1173 C29 1.931 . S
C1185 C482 1.901 . S
C1200 C36 1.919 . S
C1212 C130 1.920 . S
C1227 C418 1.892 1_455 S
C1239 C68 1.895 . S
C1254 C194 1.895 . S
C1266 C100 1.931 . S
C1281 C132 1.931 . S
C1293 C354 1.907 . S
C1308 C164 1.932 . S
C1320 C6 1.908 . S
C1335 C290 1.895 1_655 S
C1347 C196 1.908 . S
C1362 C66 1.897 . S
C1374 C228 1.904 . S
C1389 C285 1.895 . S
C1401 C226 1.895 1_655 S
C1416 C292 1.909 . S
C1428 C386 1.902 . S
C1443 C162 1.914 . S
C1455 C324 1.899 . S
C1470 C454 1.923 . S
C1482 C356 1.916 . S
C1497 C388 1.905 . S
C1509 C98 1.931 1_455 S
C1524 C420 1.932 . S
C1536 C262 1.909 . S
C1551 C477 1.920 . S
C1563 C34 1.928 . S
C1578 C322 1.923 . S
C1590 C484 1.926 . S
C1605 C2 2.346 . S
C1617 C390 2.342 . S
C1632 C38 2.345 . S
C1644 C166 2.348 . S
C1659 C70 2.351 . S
C1671 C450 2.338 . S
C1686 C230 2.346 . S
C1698 C102 2.347 . S
C1713 C134 2.353 . S
C1725 C258 2.337 . S
C1740 C326 2.341 . S
C1752 C198 2.351 . S
C1767 C294 2.347 . S
C1779 C422 2.347 . S
C1794 C486 2.346 . S
C1806 C358 2.348 . S
