# Generated by pormake.
# Topology zfi, (5)-cn, num edge types: 1
# Building blocks:
#     Node 0, Type 0, BuildingBlock: BEQFEK_clean_sbu_0, # of connection points: 5
#     Node 1, Type 0, BuildingBlock: BEQFEK_clean_sbu_0, # of connection points: 5
#     Node 2, Type 0, BuildingBlock: BEQFEK_clean_sbu_0, # of connection points: 5
#     Node 3, Type 0, BuildingBlock: BEQFEK_clean_sbu_0, # of connection points: 5
#     Node 4, Type 0, BuildingBlock: BEQFEK_clean_sbu_0, # of connection points: 5
#     Node 5, Type 0, BuildingBlock: BEQFEK_clean_sbu_0, # of connection points: 5
#     Node 6, Type 0, BuildingBlock: BEQFEK_clean_sbu_0, # of connection points: 5
#     Node 7, Type 0, BuildingBlock: BEQFEK_clean_sbu_0, # of connection points: 5
#     Node 8, Type 0, BuildingBlock: BEQFEK_clean_sbu_0, # of connection points: 5
#     Node 9, Type 0, BuildingBlock: BEQFEK_clean_sbu_0, # of connection points: 5
#     Node 10, Type 0, BuildingBlock: BEQFEK_clean_sbu_0, # of connection points: 5
#     Node 11, Type 0, BuildingBlock: BEQFEK_clean_sbu_0, # of connection points: 5
#     Node 12, Type 0, BuildingBlock: BEQFEK_clean_sbu_0, # of connection points: 5
#     Node 13, Type 0, BuildingBlock: BEQFEK_clean_sbu_0, # of connection points: 5
#     Node 14, Type 0, BuildingBlock: BEQFEK_clean_sbu_0, # of connection points: 5
#     Node 15, Type 0, BuildingBlock: BEQFEK_clean_sbu_0, # of connection points: 5
#     Edge 16, Type (0, 0), BuildingBlock: OJICUG_clean_linker_0, # of connection points: 2
#     Edge 17, Type (0, 0), BuildingBlock: OJICUG_clean_linker_0, # of connection points: 2
#     Edge 18, Type (0, 0), BuildingBlock: OJICUG_clean_linker_0, # of connection points: 2
#     Edge 19, Type (0, 0), BuildingBlock: OJICUG_clean_linker_0, # of connection points: 2
#     Edge 20, Type (0, 0), BuildingBlock: OJICUG_clean_linker_0, # of connection points: 2
#     Edge 21, Type (0, 0), BuildingBlock: OJICUG_clean_linker_0, # of connection points: 2
#     Edge 22, Type (0, 0), BuildingBlock: OJICUG_clean_linker_0, # of connection points: 2
#     Edge 23, Type (0, 0), BuildingBlock: OJICUG_clean_linker_0, # of connection points: 2
#     Edge 24, Type (0, 0), BuildingBlock: OJICUG_clean_linker_0, # of connection points: 2
#     Edge 25, Type (0, 0), BuildingBlock: OJICUG_clean_linker_0, # of connection points: 2
#     Edge 26, Type (0, 0), BuildingBlock: OJICUG_clean_linker_0, # of connection points: 2
#     Edge 27, Type (0, 0), BuildingBlock: OJICUG_clean_linker_0, # of connection points: 2
#     Edge 28, Type (0, 0), BuildingBlock: OJICUG_clean_linker_0, # of connection points: 2
#     Edge 29, Type (0, 0), BuildingBlock: OJICUG_clean_linker_0, # of connection points: 2
#     Edge 30, Type (0, 0), BuildingBlock: OJICUG_clean_linker_0, # of connection points: 2
#     Edge 31, Type (0, 0), BuildingBlock: OJICUG_clean_linker_0, # of connection points: 2
#     Edge 32, Type (0, 0), BuildingBlock: OJICUG_clean_linker_0, # of connection points: 2
#     Edge 33, Type (0, 0), BuildingBlock: OJICUG_clean_linker_0, # of connection points: 2
#     Edge 34, Type (0, 0), BuildingBlock: OJICUG_clean_linker_0, # of connection points: 2
#     Edge 35, Type (0, 0), BuildingBlock: OJICUG_clean_linker_0, # of connection points: 2
#     Edge 36, Type (0, 0), BuildingBlock: OJICUG_clean_linker_0, # of connection points: 2
#     Edge 37, Type (0, 0), BuildingBlock: OJICUG_clean_linker_0, # of connection points: 2
#     Edge 38, Type (0, 0), BuildingBlock: OJICUG_clean_linker_0, # of connection points: 2
#     Edge 39, Type (0, 0), BuildingBlock: OJICUG_clean_linker_0, # of connection points: 2
#     Edge 40, Type (0, 0), BuildingBlock: OJICUG_clean_linker_0, # of connection points: 2
#     Edge 41, Type (0, 0), BuildingBlock: OJICUG_clean_linker_0, # of connection points: 2
#     Edge 42, Type (0, 0), BuildingBlock: OJICUG_clean_linker_0, # of connection points: 2
#     Edge 43, Type (0, 0), BuildingBlock: OJICUG_clean_linker_0, # of connection points: 2
#     Edge 44, Type (0, 0), BuildingBlock: OJICUG_clean_linker_0, # of connection points: 2
#     Edge 45, Type (0, 0), BuildingBlock: OJICUG_clean_linker_0, # of connection points: 2
#     Edge 46, Type (0, 0), BuildingBlock: OJICUG_clean_linker_0, # of connection points: 2
#     Edge 47, Type (0, 0), BuildingBlock: OJICUG_clean_linker_0, # of connection points: 2
#     Edge 48, Type (0, 0), BuildingBlock: OJICUG_clean_linker_0, # of connection points: 2
#     Edge 49, Type (0, 0), BuildingBlock: OJICUG_clean_linker_0, # of connection points: 2
#     Edge 50, Type (0, 0), BuildingBlock: OJICUG_clean_linker_0, # of connection points: 2
#     Edge 51, Type (0, 0), BuildingBlock: OJICUG_clean_linker_0, # of connection points: 2
#     Edge 52, Type (0, 0), BuildingBlock: OJICUG_clean_linker_0, # of connection points: 2
#     Edge 53, Type (0, 0), BuildingBlock: OJICUG_clean_linker_0, # of connection points: 2
#     Edge 54, Type (0, 0), BuildingBlock: OJICUG_clean_linker_0, # of connection points: 2
#     Edge 55, Type (0, 0), BuildingBlock: OJICUG_clean_linker_0, # of connection points: 2
# Relax obj value: 0.237
# Max RMSD: 0.202
# Mean RMSD: 0.202
data_MOF--net-zfi--node1-BEQFEK_clean_sbu_0--edge1-OJICUG_clean_linker_0
_symmetry_space_group_name_H-M    P1
_symmetry_Int_Tables_number       1
_symmetry_cell_setting            triclinic
loop_
_symmetry_equiv_pos_as_xyz
'x, y, z'
_cell_length_a     29.302219
_cell_length_b     29.184436
_cell_length_c     42.764053
_cell_angle_alpha  90.059542
_cell_angle_beta   90.137163
_cell_angle_gamma 90.152315
loop_
_atom_site_label
_atom_site_type_symbol
_atom_site_fract_x
_atom_site_fract_y
_atom_site_fract_z
_atom_type_partial_charge
Co0 Co 0.62567 0.09695 0.12803 0.0
Co1 Co 0.60865 0.99367 0.14432 0.0
C2 C 0.5919 0.06628 0.19142 0.0
O3 O 0.60402 0.09889 0.17335 0.0
O4 O 0.59079 0.02524 0.18186 0.0
C5 C 0.67398 0.17493 0.13651 0.0
O6 O 0.67979 0.14938 0.16146 0.0
C7 C 0.55172 0.91487 0.15717 0.0
C8 C 0.60222 0.8587 0.15584 0.0
C9 C 0.55644 0.86818 0.16021 0.0
N10 N 0.59302 0.93241 0.15094 0.0
N11 N 0.62319 0.89886 0.15043 0.0
C12 C 0.50934 0.94263 0.16139 0.0
H13 H 0.51531 0.97883 0.15456 0.0
H14 H 0.481 0.92797 0.14732 0.0
H15 H 0.49894 0.94131 0.18632 0.0
C16 C 0.56066 0.06812 0.07381 0.0
N17 N 0.58488 0.06112 0.10053 0.0
N18 N 0.58127 0.01727 0.1077 0.0
C19 C 0.55652 -0.00478 0.08577 0.0
C20 C 0.54115 0.02649 0.06401 0.0
C21 C 0.55704 0.1133 0.05767 0.0
H22 H 0.56477 0.14166 0.07419 0.0
H23 H 0.52242 0.11755 0.04749 0.0
H24 H 0.58211 0.11444 0.03827 0.0
O25 O 0.68612 0.06715 0.12844 0.0
O26 O 0.67412 -0.00481 0.14234 0.0
H27 H 0.5496 0.93371 0.05785 0.0
H28 H 0.52309 0.93144 0.0955 0.0
C29 C 0.55341 0.94409 0.0827 0.0
H30 H 0.5846 0.92768 0.09202 0.0
H31 H 0.6579 0.90333 0.14616 0.0
O32 O 0.64621 0.16091 0.11539 0.0
C33 C 0.70085 0.02771 0.13552 0.0
Co34 Co 0.39507 0.63079 0.13898 0.0
Co35 Co 0.4939 0.6075 0.15779 0.0
C36 C 0.42318 0.58912 0.20249 0.0
O37 O 0.39386 0.60856 0.18473 0.0
O38 O 0.46315 0.58084 0.19285 0.0
C39 C 0.31487 0.67402 0.14742 0.0
O40 O 0.33826 0.67978 0.17336 0.0
C41 C 0.5778 0.55825 0.16845 0.0
C42 C 0.62852 0.61407 0.16332 0.0
C43 C 0.62398 0.56742 0.16816 0.0
N44 N 0.55599 0.59779 0.16338 0.0
N45 N 0.58627 0.63119 0.16091 0.0
C46 C 0.55429 0.51348 0.17435 0.0
H47 H 0.52096 0.51238 0.16197 0.0
H48 H 0.57572 0.48402 0.1673 0.0
H49 H 0.54746 0.51048 0.19978 0.0
C50 C 0.42351 0.56831 0.0832 0.0
N51 N 0.43025 0.59075 0.11073 0.0
N52 N 0.47327 0.58497 0.11885 0.0
C53 C 0.49521 0.56057 0.09677 0.0
C54 C 0.46454 0.54767 0.07383 0.0
C55 C 0.379 0.56672 0.06616 0.0
H56 H 0.35046 0.57485 0.08225 0.0
H57 H 0.37383 0.53246 0.05539 0.0
H58 H 0.37955 0.5925 0.04711 0.0
O59 O 0.4231 0.69291 0.1403 0.0
O60 O 0.48827 0.67257 0.1619 0.0
H61 H 0.55751 0.54979 0.07072 0.0
H62 H 0.55581 0.52358 0.10855 0.0
C63 C 0.54595 0.55449 0.0952 0.0
H64 H 0.56362 0.58497 0.10477 0.0
H65 H 0.57817 0.66536 0.15654 0.0
O66 O 0.33145 0.64851 0.12601 0.0
C67 C 0.46034 0.70313 0.15372 0.0
Co68 Co 0.8506 0.40528 0.12641 0.0
Co69 Co 0.88766 0.50333 0.14197 0.0
C70 C 0.89495 0.43824 0.19036 0.0
O71 O 0.87296 0.41016 0.17258 0.0
O72 O 0.90931 0.47671 0.18017 0.0
C73 C 0.79693 0.33124 0.13786 0.0
O74 O 0.79211 0.35946 0.16158 0.0
C75 C 0.92433 0.59891 0.14677 0.0
C76 C 0.87694 0.63153 0.11309 0.0
C77 C 0.91427 0.64006 0.13198 0.0
N78 N 0.89464 0.56721 0.13634 0.0
N79 N 0.86616 0.58718 0.11662 0.0
C80 C 0.96033 0.59008 0.1709 0.0
H81 H 0.95068 0.56033 0.18562 0.0
H82 H -0.00688 0.58217 0.15923 0.0
H83 H 0.96547 0.6209 0.18575 0.0
C84 C 0.91226 0.42431 0.0687 0.0
N85 N 0.89391 0.43319 0.09725 0.0
N86 N 0.91051 0.47283 0.10678 0.0
C87 C 0.94086 0.48891 0.08602 0.0
C88 C 0.94276 0.45959 0.06092 0.0
C89 C 0.89971 0.38426 0.04871 0.0
H90 H 0.87815 0.35966 0.06187 0.0
H91 H 0.93115 0.36711 0.04029 0.0
H92 H 0.88075 0.39657 0.02786 0.0
O93 O 0.7925 0.43867 0.12534 0.0
O94 O 0.82264 0.50015 0.14672 0.0
H95 H 0.94551 0.56186 0.08282 0.0
H96 H -0.00178 0.53302 0.0749 0.0
C97 C 0.96726 0.53254 0.08976 0.0
H98 H 0.97779 0.53647 0.11446 0.0
H99 H 0.83992 0.57008 0.10485 0.0
O100 O 0.82672 0.34124 0.11714 0.0
C101 C 0.78822 0.47646 0.13941 0.0
Co102 Co 0.09588 0.86059 0.13437 0.0
Co103 Co 0.00629 0.9114 0.14459 0.0
C104 C 0.05688 0.89372 0.19956 0.0
O105 O 0.08703 0.87469 0.18198 0.0
O106 O 0.02163 0.91255 0.1879 0.0
C107 C 0.16077 0.79673 0.14556 0.0
O108 O 0.12778 0.78882 0.16562 0.0
C109 C 0.91977 0.96232 0.14898 0.0
C110 C 0.89962 0.95987 0.099 0.0
C111 C 0.88666 0.97624 0.12793 0.0
N112 N 0.95154 0.9394 0.13291 0.0
N113 N 0.93916 0.93775 0.10318 0.0
C114 C 0.92173 0.97082 0.18344 0.0
H115 H 0.95709 0.98003 0.1904 0.0
H116 H 0.89796 -0.00146 0.19041 0.0
H117 H 0.91236 0.93883 0.1959 0.0
C118 C 0.08331 0.92511 0.07694 0.0
N119 N 0.08023 0.91189 0.10731 0.0
N120 N 0.05242 0.94036 0.12122 0.0
C121 C 0.04268 0.97561 0.10223 0.0
C122 C 0.05891 0.96617 0.07266 0.0
C123 C 0.10353 0.89599 0.05184 0.0
H124 H 0.13335 0.87694 0.06115 0.0
H125 H 0.11368 0.91729 0.0315 0.0
H126 H 0.07768 0.87059 0.04399 0.0
O127 O 0.0558 0.80982 0.12493 0.0
O128 O 0.99208 0.84667 0.13468 0.0
H129 H 0.98307 0.01809 0.0965 0.0
H130 H 0.03364 0.04772 0.10812 0.0
C131 C 0.01381 0.0157 0.11159 0.0
H132 H 0.00407 0.01355 0.1366 0.0
H133 H 0.95789 0.92141 0.08572 0.0
O134 O 0.15737 0.83161 0.12772 0.0
C135 C 0.01294 0.81012 0.12763 0.0
Co136 Co 0.12622 0.89577 0.39662 0.0
Co137 Co 0.08695 0.98863 0.37279 0.0
C138 C 0.07462 0.91157 0.33315 0.0
O139 O 0.09972 0.88821 0.35185 0.0
O140 O 0.06125 0.95162 0.34018 0.0
C141 C 0.18003 0.82176 0.38896 0.0
O142 O 0.18175 0.84652 0.36334 0.0
C143 C 0.04022 0.07577 0.35631 0.0
C144 C 0.09278 0.1238 0.37421 0.0
C145 C 0.05045 0.12171 0.36005 0.0
N146 N 0.07518 0.05156 0.36813 0.0
N147 N 0.10651 0.08055 0.37849 0.0
C148 C -0.00141 0.05558 0.34132 0.0
H149 H 0.00165 0.01787 0.33916 0.0
H150 H 0.96807 0.06379 0.35552 0.0
H151 H -0.00648 0.07109 0.31788 0.0
C152 C 0.07096 0.92815 0.45507 0.0
N153 N 0.0858 0.93044 0.42495 0.0
N154 N 0.0697 0.96872 0.4129 0.0
C155 C 0.04394 0.99086 0.43403 0.0
C156 C 0.04436 0.96696 0.46178 0.0
C157 C 0.08384 0.8912 0.4775 0.0
H158 H 0.10978 0.86814 0.46709 0.0
H159 H 0.05296 0.87104 0.4836 0.0
H160 H 0.09721 0.90668 0.49942 0.0
O161 O 0.18327 0.93072 0.39143 0.0
O162 O 0.15241 0.98852 0.36629 0.0
H163 H 0.03979 0.06323 0.42658 0.0
H164 H 0.98998 0.03909 0.44499 0.0
C165 C 0.01676 0.03305 0.42718 0.0
H166 H -0.00022 0.02909 0.40423 0.0
H167 H 0.13706 0.07075 0.38909 0.0
O168 O 0.15273 0.83457 0.41057 0.0
C169 C 0.18723 0.96664 0.37513 0.0
Co170 Co 0.5861 0.1298 0.38888 0.0
Co171 Co 0.49096 0.09227 0.36755 0.0
C172 C 0.56314 0.08316 0.32443 0.0
O173 O 0.58852 0.10648 0.3431 0.0
O174 O 0.52388 0.06921 0.33258 0.0
C175 C 0.66069 0.18304 0.3796 0.0
O176 O 0.63398 0.18716 0.35506 0.0
C177 C 0.40215 0.047 0.35373 0.0
C178 C 0.35672 0.09885 0.37499 0.0
C179 C 0.35698 0.05708 0.35985 0.0
N180 N 0.42772 0.08145 0.36519 0.0
N181 N 0.40026 0.11244 0.3775 0.0
C182 C 0.42034 0.00597 0.33692 0.0
H183 H 0.45803 0.00767 0.33501 0.0
H184 H 0.41049 0.97427 0.34951 0.0
H185 H 0.40491 0.00412 0.31322 0.0
C186 C 0.55785 0.07114 0.44681 0.0
N187 N 0.55355 0.08749 0.41715 0.0
N188 N 0.51459 0.07175 0.40589 0.0
C189 C 0.4941 0.04457 0.42697 0.0
C190 C 0.51971 0.04384 0.45398 0.0
C191 C 0.59584 0.08359 0.46856 0.0
H192 H 0.61872 0.10946 0.45776 0.0
H193 H 0.61566 0.05235 0.47431 0.0
H194 H 0.58157 0.09711 0.49074 0.0
O195 O 0.55195 0.18748 0.38705 0.0
O196 O 0.49183 0.15815 0.36352 0.0
H197 H 0.42149 0.04034 0.42209 0.0
H198 H 0.44709 0.9893 0.43795 0.0
C199 C 0.45157 0.01745 0.42082 0.0
H200 H 0.45362 0.00202 0.39727 0.0
H201 H 0.41135 0.14253 0.38833 0.0
O202 O 0.64886 0.15468 0.40094 0.0
C203 C 0.51476 0.19246 0.37241 0.0
Co204 Co 0.35372 0.58976 0.39952 0.0
Co205 Co 0.38844 0.49465 0.37854 0.0
C206 C 0.40301 0.56687 0.33622 0.0
O207 O 0.3789 0.59266 0.35401 0.0
O208 O 0.4161 0.52767 0.34526 0.0
C209 C 0.30397 0.66647 0.39032 0.0
O210 O 0.30071 0.64125 0.36494 0.0
C211 C 0.43212 0.40779 0.3621 0.0
C212 C 0.38115 0.3597 0.38183 0.0
C213 C 0.42242 0.36194 0.36634 0.0
N214 N 0.39797 0.43179 0.37489 0.0
N215 N 0.36743 0.40296 0.38629 0.0
C216 C 0.47167 0.42853 0.34506 0.0
H217 H 0.48014 0.46273 0.35486 0.0
H218 H 0.502 0.40594 0.34591 0.0
H219 H 0.46194 0.43325 0.32018 0.0
C220 C 0.41052 0.55983 0.45831 0.0
N221 N 0.39358 0.55555 0.42875 0.0
N222 N 0.40717 0.51556 0.41795 0.0
C223 C 0.43309 0.49398 0.43931 0.0
C224 C 0.43567 0.52039 0.46598 0.0
C225 C 0.40153 0.59972 0.47926 0.0
H226 H 0.3749 0.62226 0.46909 0.0
H227 H 0.43356 0.61961 0.48234 0.0
H228 H 0.39081 0.58739 0.50268 0.0
O229 O 0.29463 0.55744 0.39547 0.0
O230 O 0.32359 0.49773 0.37141 0.0
H231 H 0.43315 0.42103 0.4339 0.0
H232 H 0.48472 0.44346 0.45122 0.0
C233 C 0.4578 0.4499 0.43351 0.0
H234 H 0.47444 0.45127 0.41038 0.0
H235 H 0.33755 0.41292 0.39761 0.0
O236 O 0.33054 0.65278 0.41214 0.0
C237 C 0.28957 0.5214 0.37935 0.0
Co238 Co 0.89273 0.35862 0.38594 0.0
Co239 Co 0.98935 0.39314 0.366 0.0
C240 C 0.9156 0.40889 0.32342 0.0
O241 O 0.88878 0.38571 0.34111 0.0
O242 O 0.95588 0.41893 0.33198 0.0
C243 C 0.81672 0.30682 0.37725 0.0
O244 O 0.84119 0.30426 0.35161 0.0
C245 C 0.07595 0.44131 0.35263 0.0
C246 C 0.12405 0.38874 0.36999 0.0
C247 C 0.12164 0.43217 0.35733 0.0
N248 N 0.05213 0.40478 0.36259 0.0
N249 N 0.08113 0.37331 0.37246 0.0
C250 C 0.05553 0.48358 0.33868 0.0
H251 H 0.0179 0.48356 0.34137 0.0
H252 H 0.07023 0.51461 0.34986 0.0
H253 H 0.06415 0.48495 0.31344 0.0
C254 C 0.92205 0.41461 0.44503 0.0
N255 N 0.92695 0.39818 0.41541 0.0
N256 N 0.96715 0.41199 0.4052 0.0
C257 C 0.9882 0.43759 0.42711 0.0
C258 C 0.96122 0.43968 0.4534 0.0
C259 C 0.88191 0.40501 0.46545 0.0
H260 H 0.85859 0.37985 0.45422 0.0
H261 H 0.86327 0.43744 0.46981 0.0
H262 H 0.89376 0.39185 0.48842 0.0
O263 O 0.92536 0.29988 0.3815 0.0
O264 O 0.98798 0.32748 0.36039 0.0
H265 H 0.06077 0.43763 0.42124 0.0
H266 H 0.03956 0.48771 0.44108 0.0
C267 C 0.03234 0.46255 0.42227 0.0
H268 H 0.03048 0.48173 0.40007 0.0
H269 H 0.07152 0.34172 0.38179 0.0
O270 O 0.83045 0.33393 0.39886 0.0
C271 C 0.96309 0.29385 0.36779 0.0
Co272 Co 0.35586 0.89461 0.88963 0.0
Co273 Co 0.38341 0.99361 0.8697 0.0
C274 C 0.40235 0.91745 0.82765 0.0
O275 O 0.38185 0.88887 0.84538 0.0
O276 O 0.40949 0.95831 0.83638 0.0
C277 C 0.30671 0.8176 0.88146 0.0
O278 O 0.30396 0.84182 0.85566 0.0
C279 C 0.44244 0.07226 0.86016 0.0
C280 C 0.39172 0.12786 0.85567 0.0
C281 C 0.43808 0.11894 0.85625 0.0
N282 N 0.40037 0.0544 0.86226 0.0
N283 N 0.37014 0.08758 0.85909 0.0
C284 C 0.48542 0.04467 0.86076 0.0
H285 H 0.47851 0.0094 0.86926 0.0
H286 H 0.51164 0.06128 0.87568 0.0
H287 H 0.49934 0.0427 0.83669 0.0
C288 C 0.41475 0.92533 0.94682 0.0
N289 N 0.39451 0.93088 0.91841 0.0
N290 N 0.40106 0.97378 0.90983 0.0
C291 C 0.42309 -0.00306 0.93254 0.0
C292 C 0.43438 0.9671 0.95633 0.0
C293 C 0.41524 0.88122 0.96447 0.0
H294 H 0.40804 0.852 0.94855 0.0
H295 H 0.44869 0.87653 0.97627 0.0
H296 H 0.38845 0.88229 0.98276 0.0
O297 O 0.29647 0.92609 0.88399 0.0
O298 O 0.31855 0.99212 0.86385 0.0
H299 H 0.42661 0.06029 0.95862 0.0
H300 H 0.45996 0.05906 0.92365 0.0
C301 C 0.42713 0.04813 0.93401 0.0
H302 H 0.39843 0.06452 0.92144 0.0
H303 H 0.33491 0.08289 0.85999 0.0
O304 O 0.3326 0.8323 0.90343 0.0
C305 C 0.28744 0.96389 0.87081 0.0
Co306 Co 0.59166 0.35426 0.90229 0.0
Co307 Co 0.49384 0.38041 0.88217 0.0
C308 C 0.56632 0.40015 0.83936 0.0
O309 O 0.59442 0.37854 0.8569 0.0
O310 O 0.52641 0.40943 0.84874 0.0
C311 C 0.66999 0.30813 0.89421 0.0
O312 O 0.64571 0.3036 0.86853 0.0
C313 C 0.41085 0.43041 0.86907 0.0
C314 C 0.35928 0.37518 0.87336 0.0
C315 C 0.36466 0.4215 0.86753 0.0
N316 N 0.43189 0.391 0.87591 0.0
N317 N 0.40112 0.358 0.87812 0.0
C318 C 0.43516 0.47456 0.86263 0.0
H319 H 0.44287 0.47641 0.83727 0.0
H320 H 0.468 0.47583 0.87561 0.0
H321 H 0.41386 0.50455 0.86877 0.0
C322 C 0.56196 0.41529 0.95861 0.0
N323 N 0.55592 0.39354 0.93075 0.0
N324 N 0.51332 0.40029 0.92195 0.0
C325 C 0.49098 0.42478 0.94376 0.0
C326 C 0.52094 0.43655 0.96745 0.0
C327 C 0.60601 0.41619 0.97623 0.0
H328 H 0.63488 0.40774 0.9605 0.0
H329 H 0.61135 0.45033 0.98715 0.0
H330 H 0.60458 0.39032 0.99521 0.0
O331 O 0.56253 0.29286 0.89889 0.0
O332 O 0.49958 0.31567 0.8754 0.0
H333 H 0.42234 0.40233 0.93445 0.0
H334 H 0.42757 0.43889 0.96786 0.0
C335 C 0.44043 0.43269 0.94385 0.0
H336 H 0.43233 0.46311 0.92942 0.0
H337 H 0.40862 0.32395 0.88337 0.0
O338 O 0.65485 0.33432 0.91577 0.0
C339 C 0.52656 0.28421 0.88351 0.0
Co340 Co 0.1319 0.58672 0.88936 0.0
Co341 Co 0.09927 0.48866 0.8714 0.0
C342 C 0.08833 0.5582 0.82544 0.0
O343 O 0.10992 0.58642 0.84316 0.0
O344 O 0.07642 0.51896 0.83524 0.0
C345 C 0.18396 0.66131 0.87996 0.0
O346 O 0.18878 0.63392 0.8558 0.0
C347 C 0.05335 0.40063 0.85939 0.0
C348 C 0.10582 0.35375 0.8784 0.0
C349 C 0.06299 0.35506 0.86491 0.0
N350 N 0.08902 0.4254 0.86961 0.0
N351 N 0.12043 0.39718 0.88055 0.0
C352 C 0.01188 0.42019 0.84393 0.0
H353 H 0.01095 0.45797 0.8467 0.0
H354 H 0.98042 0.4049 0.85382 0.0
H355 H 0.01267 0.41162 0.81865 0.0
C356 C 0.07044 0.56306 0.94628 0.0
N357 N 0.08951 0.5553 0.91781 0.0
N358 N 0.07686 0.51395 0.90871 0.0
C359 C 0.04943 0.49484 0.93027 0.0
C360 C 0.04432 0.52481 0.95482 0.0
C361 C 0.07869 0.60488 0.96561 0.0
H362 H 0.09528 0.6321 0.95151 0.0
H363 H 0.04591 0.61741 0.97533 0.0
H364 H 0.10115 0.59587 0.98561 0.0
O365 O 0.19076 0.55402 0.88972 0.0
O366 O 0.16459 0.49093 0.86795 0.0
H367 H 0.05663 0.422 0.92697 0.0
H368 H 0.00681 0.4396 0.94817 0.0
C369 C 0.02903 0.44782 0.92798 0.0
H370 H 0.00811 0.44556 0.90649 0.0
H371 H 0.15147 0.40766 0.89021 0.0
O372 O 0.15471 0.65025 0.90078 0.0
C373 C 0.19751 0.51598 0.87638 0.0
Co374 Co 0.89582 0.12824 0.90125 0.0
Co375 Co 0.98614 0.08622 0.87774 0.0
C376 C 0.91112 0.0782 0.83709 0.0
O377 O 0.88857 0.10434 0.85553 0.0
O378 O 0.94947 0.06195 0.84505 0.0
C379 C 0.82446 0.18456 0.89365 0.0
O380 O 0.85035 0.18692 0.86867 0.0
C381 C 0.06915 0.03559 0.86033 0.0
C382 C 0.12055 0.08784 0.87374 0.0
C383 C 0.11538 0.0445 0.86126 0.0
N384 N 0.04772 0.07244 0.87192 0.0
N385 N 0.0786 0.10357 0.87964 0.0
C386 C 0.04588 0.99364 0.84795 0.0
H387 H 0.00911 0.9937 0.85407 0.0
H388 H 0.06238 0.9624 0.8574 0.0
H389 H 0.04946 0.99277 0.82213 0.0
C390 C 0.9264 0.07224 0.95985 0.0
N391 N 0.92852 0.08585 0.92946 0.0
N392 N 0.96585 0.06799 0.91742 0.0
C393 C 0.98716 0.0417 0.93871 0.0
C394 C 0.96344 0.04334 0.96644 0.0
C395 C 0.89198 0.08911 0.98278 0.0
H396 H 0.86327 0.10624 0.97055 0.0
H397 H 0.87917 0.06008 0.99707 0.0
H398 H 0.90862 0.11392 0.99889 0.0
O399 O 0.93227 0.18457 0.898 0.0
O400 O 0.98794 0.15202 0.87195 0.0
H401 H 0.05904 0.0444 0.93011 0.0
H402 H 0.04203 -0.0037 0.95345 0.0
C403 C 0.03197 0.0183 0.9335 0.0
H404 H 0.02956 -0.00343 0.91236 0.0
H405 H 0.07107 0.13541 0.88944 0.0
O406 O 0.83533 0.15561 0.91484 0.0
C407 C 0.96782 0.18757 0.88145 0.0
Co408 Co 0.85893 0.09321 0.6374 0.0
Co409 Co 0.8974 -0.00328 0.65323 0.0
C410 C 0.8966 0.06087 0.70294 0.0
O411 O 0.87644 0.08959 0.68484 0.0
O412 O 0.91213 0.02338 0.6924 0.0
C413 C 0.80319 0.16553 0.6483 0.0
O414 O 0.79701 0.13618 0.67119 0.0
C415 C 0.94237 0.90728 0.66366 0.0
C416 C 0.89753 0.86477 0.63349 0.0
C417 C 0.93503 0.86326 0.65299 0.0
N418 N 0.91035 0.93409 0.65072 0.0
N419 N 0.88365 0.90842 0.63288 0.0
C420 C 0.97851 0.92322 0.68591 0.0
H421 H 0.97827 0.96109 0.68812 0.0
H422 H 0.01249 0.91162 0.67774 0.0
H423 H 0.97244 0.90755 0.70918 0.0
C424 C 0.92104 0.07243 0.57934 0.0
N425 N 0.90487 0.06601 0.60889 0.0
N426 N 0.92307 0.02776 0.61941 0.0
C427 C 0.95237 0.01048 0.59842 0.0
C428 C 0.95132 0.03674 0.57176 0.0
C429 C 0.90433 0.1087 0.55759 0.0
H430 H 0.88105 0.13263 0.56986 0.0
H431 H 0.93388 0.12777 0.54786 0.0
H432 H 0.88608 0.09236 0.5377 0.0
O433 O 0.80221 0.05784 0.63361 0.0
O434 O 0.83171 0.99394 0.65152 0.0
H435 H 0.96129 0.93766 0.59811 0.0
H436 H 0.01187 0.96945 0.58835 0.0
C437 C 0.98129 0.96895 0.60363 0.0
H438 H -0.00722 0.96788 0.62827 0.0
H439 H 0.85618 0.92087 0.61989 0.0
O440 O 0.83399 0.1567 0.62803 0.0
C441 C 0.79755 0.01717 0.6432 0.0
Co442 Co 0.39449 0.85706 0.62943 0.0
Co443 Co 0.48977 0.89612 0.64682 0.0
C444 C 0.42373 0.9025 0.69373 0.0
O445 O 0.39683 0.87922 0.67593 0.0
O446 O 0.46136 0.91821 0.68362 0.0
C447 C 0.32059 0.80328 0.64005 0.0
O448 O 0.34791 0.79888 0.66427 0.0
C449 C 0.58184 0.93697 0.65599 0.0
C450 C 0.62031 0.88831 0.62629 0.0
C451 C 0.62483 0.92688 0.64473 0.0
N452 N 0.5528 0.90574 0.6442 0.0
N453 N 0.57611 0.87671 0.62671 0.0
C454 C 0.56898 0.97466 0.67799 0.0
H455 H 0.53492 0.96822 0.68831 0.0
H456 H 0.56802 0.00765 0.66515 0.0
H457 H 0.59501 0.97789 0.69677 0.0
C458 C 0.41737 0.91638 0.57042 0.0
N459 N 0.42344 0.90022 0.60001 0.0
N460 N 0.46194 0.91778 0.61056 0.0
C461 C 0.4801 0.94637 0.58941 0.0
C462 C 0.4538 0.94575 0.56278 0.0
C463 C 0.37973 0.90163 0.54907 0.0
H464 H 0.35685 0.87671 0.56087 0.0
H465 H 0.3599 0.93211 0.54164 0.0
H466 H 0.39446 0.88593 0.52771 0.0
O467 O 0.42861 0.79915 0.6295 0.0
O468 O 0.48917 0.83045 0.65102 0.0
H469 H 0.55262 0.95541 0.59 0.0
H470 H 0.52145 0.00613 0.57955 0.0
C471 C 0.52143 0.97555 0.59497 0.0
H472 H 0.52193 0.98724 0.61958 0.0
H473 H 0.56157 0.84921 0.61462 0.0
O474 O 0.33138 0.83248 0.61904 0.0
C475 C 0.46661 0.79537 0.64329 0.0
Co476 Co 0.62505 0.39423 0.64049 0.0
Co477 Co 0.59049 0.49128 0.65858 0.0
C478 C 0.5828 0.42297 0.70528 0.0
O479 O 0.60411 0.39521 0.68714 0.0
O480 O 0.56952 0.46184 0.69561 0.0
C481 C 0.67771 0.31925 0.6503 0.0
O482 O 0.68267 0.34596 0.67483 0.0
C483 C 0.54737 0.58151 0.66941 0.0
C484 C 0.59772 0.62454 0.6443 0.0
C485 C 0.55714 0.62592 0.66055 0.0
N486 N 0.58078 0.55465 0.65836 0.0
N487 N 0.61092 0.58068 0.64375 0.0
C488 C 0.50751 0.56519 0.68819 0.0
H489 H 0.50789 0.52737 0.69059 0.0
H490 H 0.47517 0.57599 0.6769 0.0
H491 H 0.50873 0.58126 0.71171 0.0
C492 C 0.56464 0.41881 0.58232 0.0
N493 N 0.58209 0.42499 0.6116 0.0
N494 N 0.56716 0.46484 0.62182 0.0
C495 C 0.53935 0.48406 0.60053 0.0
C496 C 0.53739 0.45667 0.57434 0.0
C497 C 0.57619 0.37945 0.56151 0.0
H498 H 0.60073 0.35607 0.57314 0.0
H499 H 0.54451 0.36043 0.5555 0.0
H500 H 0.59094 0.39252 0.53935 0.0
O501 O 0.6834 0.42756 0.63995 0.0
O502 O 0.65621 0.49043 0.66098 0.0
H503 H 0.53599 0.55726 0.60265 0.0
H504 H 0.48422 0.53057 0.58892 0.0
C505 C 0.51305 0.52732 0.60562 0.0
H506 H 0.49882 0.52726 0.62952 0.0
H507 H 0.64004 0.56829 0.63261 0.0
O508 O 0.64869 0.33089 0.62939 0.0
C509 C 0.68962 0.46626 0.65257 0.0
Co510 Co 0.09114 0.62607 0.62831 0.0
Co511 Co -0.00533 0.59098 0.64741 0.0
C512 C 0.06598 0.57924 0.69182 0.0
O513 O 0.09299 0.60168 0.67385 0.0
O514 O 0.02641 0.56739 0.68276 0.0
C515 C 0.16659 0.67752 0.6385 0.0
O516 O 0.14073 0.68084 0.66344 0.0
C517 C 0.90641 0.54622 0.6611 0.0
C518 C 0.86056 0.59748 0.63945 0.0
C519 C 0.86122 0.55615 0.65509 0.0
N520 N 0.93169 0.58033 0.6491 0.0
N521 N 0.90407 0.61091 0.63644 0.0
C522 C 0.92496 0.50592 0.67854 0.0
H523 H 0.96277 0.50591 0.67824 0.0
H524 H 0.91212 0.47362 0.668 0.0
H525 H 0.91274 0.50709 0.70307 0.0
C526 C 0.06379 0.56766 0.56968 0.0
N527 N 0.0585 0.58477 0.59909 0.0
N528 N 0.01865 0.57022 0.60942 0.0
C529 C -0.0016 0.54324 0.58799 0.0
C530 C 0.02531 0.5412 0.56171 0.0
C531 C 0.10334 0.57823 0.54895 0.0
H532 H 0.12684 0.60307 0.56033 0.0
H533 H 0.12194 0.54607 0.54367 0.0
H534 H 0.09077 0.59232 0.52642 0.0
O535 O 0.05834 0.68475 0.63081 0.0
O536 O -0.00404 0.65662 0.65181 0.0
H537 H 0.92556 0.54138 0.59158 0.0
H538 H 0.94985 0.48972 0.57575 0.0
C539 C 0.9548 0.51747 0.59318 0.0
H540 H 0.95552 0.50165 0.61665 0.0
H541 H 0.91502 0.64078 0.62533 0.0
O542 O 0.15395 0.65021 0.6167 0.0
C543 C 0.02037 0.69046 0.64423 0.0
C544 C 0.52637 0.80057 0.18707 0.0
C545 C 0.52111 0.83335 0.16361 0.0
H546 H 0.50934 0.73345 0.20265 0.0
C547 C 0.48848 0.82683 0.13989 0.0
H548 H 0.55146 0.80523 0.20548 0.0
C549 C 0.46451 0.78542 0.13799 0.0
C550 C 0.47358 0.75068 0.15972 0.0
H551 H 0.4847 0.85172 0.12129 0.0
H552 H 0.44236 0.7791 0.11812 0.0
C553 C 0.50248 0.7596 0.18529 0.0
C554 C 0.70339 0.48089 0.1339 0.0
C555 C 0.74365 0.49299 0.14962 0.0
H556 H 0.63252 0.49589 0.12765 0.0
C557 C 0.74194 0.52363 0.17498 0.0
H558 H 0.70402 0.45715 0.11441 0.0
C559 C 0.70136 0.54483 0.18288 0.0
C560 C 0.66187 0.5355 0.16572 0.0
H561 H 0.77242 0.53271 0.18801 0.0
H562 H 0.70139 0.5705 0.20122 0.0
C563 C 0.66254 0.50246 0.14178 0.0
C564 C 0.9398 0.76622 0.12787 0.0
C565 C 0.98768 0.76649 0.12679 0.0
H566 H 0.87912 0.72553 0.13084 0.0
C567 C 0.01136 0.72467 0.12782 0.0
H568 H 0.92062 0.7979 0.12718 0.0
C569 C 0.9876 0.68343 0.13044 0.0
C570 C 0.93983 0.68335 0.13198 0.0
H571 H 0.0483 0.72375 0.12711 0.0
H572 H 0.00661 0.6517 0.13045 0.0
C573 C 0.91609 0.72494 0.13022 0.0
C574 C 0.8133 0.97461 0.15593 0.0
C575 C 0.84202 -0.0041 0.13424 0.0
H576 H 0.74519 0.96792 0.17295 0.0
C577 C 0.82517 0.03065 0.1148 0.0
H578 H 0.82562 0.94708 0.17064 0.0
C579 C 0.77933 0.04286 0.11623 0.0
C580 C 0.7499 0.01935 0.13646 0.0
H581 H 0.84707 0.04699 0.09771 0.0
H582 H 0.76647 0.06879 0.10041 0.0
C583 C 0.76734 0.98604 0.15688 0.0
C584 C 0.95889 0.20845 0.37361 0.0
C585 C 0.98011 0.24754 0.3611 0.0
H586 H 0.96501 0.13653 0.38275 0.0
C587 C 0.02025 0.24258 0.34347 0.0
H588 H 0.92779 0.2113 0.3871 0.0
C589 C 0.04097 0.20011 0.34074 0.0
C590 C 0.02169 0.16179 0.3552 0.0
H591 H 0.03708 0.2719 0.33304 0.0
H592 H 0.07354 0.19768 0.32888 0.0
C593 C 0.97974 0.16565 0.37072 0.0
C594 C 0.27266 0.96464 0.37809 0.0
C595 C 0.23241 0.98506 0.36697 0.0
H596 H 0.34495 0.97186 0.38405 0.0
C597 C 0.23527 0.02526 0.34895 0.0
H598 H 0.27146 0.9335 0.39183 0.0
C599 C 0.27705 0.04663 0.34428 0.0
C600 C 0.31672 0.02789 0.3571 0.0
H601 H 0.20499 0.0416 0.33965 0.0
H602 H 0.27807 0.07919 0.33212 0.0
C603 C 0.31471 0.98608 0.3732 0.0
C604 C 0.51606 0.27758 0.37932 0.0
C605 C 0.49591 0.23814 0.36645 0.0
H606 H 0.50795 0.34915 0.38898 0.0
C607 C 0.45529 0.24204 0.34906 0.0
H608 H 0.54749 0.27553 0.39262 0.0
C609 C 0.4332 0.28384 0.34681 0.0
C610 C 0.45169 0.32245 0.36143 0.0
H611 H 0.43921 0.21239 0.33841 0.0
H612 H 0.40041 0.28553 0.33508 0.0
C613 C 0.49389 0.31967 0.37687 0.0
C614 C 0.19976 0.44898 0.34085 0.0
C615 C 0.16047 0.46336 0.35636 0.0
H616 H 0.27142 0.45676 0.33569 0.0
C617 C 0.16233 0.50109 0.37673 0.0
H618 H 0.19883 0.41959 0.32533 0.0
C619 C 0.20418 0.52217 0.38324 0.0
C620 C 0.24423 0.50526 0.36954 0.0
H621 H 0.1323 0.51177 0.38951 0.0
H622 H 0.20554 0.54957 0.40032 0.0
C623 C 0.24127 0.46994 0.34719 0.0
C624 C 0.4993 0.15857 0.88616 0.0
C625 C 0.47284 0.15465 0.85881 0.0
H626 H 0.53817 0.20388 0.91564 0.0
C627 C 0.47144 0.19083 0.83748 0.0
H628 H 0.49972 0.13134 0.90333 0.0
C629 C 0.49264 0.23205 0.84469 0.0
C630 C 0.51528 0.23767 0.87342 0.0
H631 H 0.45099 0.18839 0.81638 0.0
H632 H 0.48869 0.26056 0.82869 0.0
C633 C 0.52084 0.20006 0.89338 0.0
C634 C 0.32224 0.4895 0.88657 0.0
C635 C 0.32687 0.45357 0.86494 0.0
H636 H 0.27668 0.53835 0.90716 0.0
C637 C 0.29099 0.44273 0.84469 0.0
H638 H 0.34935 0.49737 0.90299 0.0
C639 C 0.24973 0.46544 0.84731 0.0
C640 C 0.24365 0.49905 0.87048 0.0
H641 H 0.29408 0.41492 0.82801 0.0
H642 H 0.22186 0.45504 0.83216 0.0
C643 C 0.28069 0.5125 0.88919 0.0
C644 C 0.9697 0.2731 0.88576 0.0
C645 C 0.98765 0.23232 0.87351 0.0
H646 H 0.98007 0.34514 0.89231 0.0
C647 C 0.02663 0.23409 0.8544 0.0
H648 H 0.93959 0.2727 0.90041 0.0
C649 C 0.04914 0.27531 0.84951 0.0
C650 C 0.03276 0.31546 0.86322 0.0
H651 H 0.04103 0.20334 0.84426 0.0
H652 H 0.08067 0.27548 0.83629 0.0
C653 C 0.99232 0.31456 0.8807 0.0
C654 C 0.23254 0.01071 0.84089 0.0
C655 C 0.24032 0.97626 0.86318 0.0
H656 H 0.18496 0.05873 0.82218 0.0
C657 C 0.20333 0.95717 0.87942 0.0
H658 H 0.26034 0.02523 0.82744 0.0
C659 C 0.1599 0.97611 0.87595 0.0
C660 C 0.15354 0.01376 0.85605 0.0
H661 H 0.20853 0.93026 0.89648 0.0
H662 H 0.13257 0.96436 0.89099 0.0
C663 C 0.18943 0.02945 0.83746 0.0
C664 C 0.96082 0.7409 0.66646 0.0
C665 C 0.00282 0.73652 0.65089 0.0
H666 H 0.90676 0.78574 0.67978 0.0
C667 C 0.02604 0.77604 0.64092 0.0
H668 H 0.94234 0.71122 0.67493 0.0
C669 C 0.0057 0.81897 0.64439 0.0
C670 C 0.96224 0.82237 0.65782 0.0
H671 H 0.05865 0.77362 0.62918 0.0
H672 H 0.02229 0.84889 0.63458 0.0
C673 C 0.94057 0.78348 0.66966 0.0
C674 C 0.74934 0.94897 0.65307 0.0
C675 C 0.75236 -0.0043 0.64537 0.0
H676 H 0.70589 0.89097 0.65937 0.0
C677 C 0.71226 0.02089 0.64028 0.0
H678 H 0.77956 0.92859 0.65737 0.0
C679 C 0.66984 -0.00087 0.64192 0.0
C680 C 0.66742 0.95212 0.64854 0.0
H681 H 0.71369 0.05701 0.63454 0.0
H682 H 0.63933 0.01842 0.63649 0.0
C683 C 0.70726 0.92738 0.65445 0.0
C684 C 0.48632 0.66759 0.64683 0.0
C685 C 0.52862 0.66652 0.66228 0.0
H686 H 0.4331 0.71001 0.62829 0.0
C687 C 0.54818 0.70695 0.67353 0.0
H688 H 0.47151 0.63658 0.63721 0.0
C689 C 0.5269 0.74852 0.66815 0.0
C690 C 0.48587 0.7504 0.65103 0.0
H691 H 0.58111 0.70657 0.68513 0.0
H692 H 0.54369 0.77934 0.67647 0.0
C693 C 0.46488 0.7095 0.64128 0.0
C694 C 0.81677 0.4849 0.64614 0.0
C695 C 0.82084 0.52809 0.66031 0.0
H696 H 0.77119 0.43092 0.63238 0.0
C697 C 0.78303 0.54838 0.67442 0.0
H698 H 0.84558 0.46941 0.63439 0.0
C699 C 0.74084 0.52693 0.67306 0.0
C700 C 0.73567 0.48505 0.65712 0.0
H701 H 0.78572 0.58192 0.68521 0.0
H702 H 0.71192 0.5443 0.6834 0.0
C703 C 0.77424 0.46331 0.64461 0.0
C704 C 0.72389 0.23148 0.10681 0.0
C705 C 0.70133 0.21777 0.13434 0.0
H706 H 0.77315 0.2776 0.08617 0.0
C707 C 0.71079 0.24146 0.16219 0.0
H708 H 0.71798 0.2132 0.08512 0.0
C709 C 0.7421 0.27744 0.16287 0.0
C710 C 0.76565 0.29091 0.13577 0.0
H711 H 0.6944 0.23154 0.18386 0.0
H712 H 0.74821 0.29445 0.18503 0.0
C713 C 0.75605 0.2677 0.10756 0.0
C714 C 0.26388 0.72806 0.11756 0.0
C715 C 0.27213 0.70025 0.14382 0.0
H716 H 0.22265 0.78178 0.09763 0.0
C717 C 0.24329 0.70399 0.16979 0.0
H718 H 0.28637 0.72655 0.09752 0.0
C719 C 0.20736 0.73515 0.16991 0.0
C720 C 0.19969 0.76427 0.14427 0.0
H721 H 0.2493 0.68348 0.1905 0.0
H722 H 0.18619 0.73714 0.1906 0.0
C723 C 0.22805 0.76018 0.11787 0.0
C724 C 0.26196 0.72905 0.36399 0.0
C725 C 0.27522 0.70839 0.39219 0.0
H726 H 0.22169 0.77932 0.34105 0.0
C727 C 0.25641 0.72505 0.42031 0.0
H728 H 0.27552 0.71717 0.34187 0.0
C729 C 0.22432 0.76124 0.41984 0.0
C730 C 0.21108 0.78144 0.39129 0.0
H731 H 0.26544 0.70936 0.4424 0.0
H732 H 0.21029 0.77359 0.44168 0.0
C733 C 0.23069 0.76481 0.36354 0.0
C734 C 0.75652 0.25943 0.35201 0.0
C735 C 0.77572 0.2766 0.3798 0.0
H736 H 0.70679 0.2164 0.33045 0.0
C737 C 0.7578 0.26115 0.40852 0.0
H738 H 0.76932 0.27021 0.32943 0.0
C739 C 0.72149 0.22903 0.40911 0.0
C740 C 0.70236 0.21244 0.38099 0.0
H741 H 0.77223 0.27323 0.43037 0.0
H742 H 0.70779 0.21807 0.43139 0.0
C743 C 0.72057 0.22817 0.3526 0.0
C744 C 0.23674 0.71661 0.85482 0.0
C745 C 0.2145 0.70207 0.88215 0.0
H746 H 0.28358 0.76297 0.83365 0.0
C747 C 0.22496 0.72445 0.91053 0.0
H748 H 0.2299 0.70028 0.83252 0.0
C749 C 0.25695 0.76082 0.91121 0.0
C750 C 0.27839 0.77541 0.88348 0.0
H751 H 0.20885 0.71366 0.93207 0.0
H752 H 0.26379 0.7783 0.93308 0.0
C753 C 0.26793 0.75258 0.85547 0.0
C754 C 0.73643 0.27173 0.86913 0.0
C755 C 0.71252 0.2809 0.89678 0.0
H756 H 0.78898 0.23436 0.84658 0.0
C757 C 0.7259 0.25837 0.92444 0.0
H758 H 0.72687 0.28822 0.84739 0.0
C759 C 0.76193 0.22624 0.92397 0.0
C760 C 0.78514 0.21668 0.89587 0.0
H761 H 0.70747 0.26419 0.946 0.0
H762 H 0.77148 0.20894 0.94539 0.0
C763 C 0.77206 0.24039 0.86869 0.0
C764 C 0.75786 0.2264 0.61899 0.0
C765 C 0.77302 0.20647 0.64716 0.0
H766 H 0.71425 0.27712 0.59752 0.0
C767 C 0.75504 0.22287 0.67544 0.0
H768 H 0.77055 0.21399 0.59679 0.0
C769 C 0.72322 0.25825 0.67585 0.0
C770 C 0.70759 0.27823 0.64797 0.0
H771 H 0.76565 0.20825 0.69758 0.0
H772 H 0.71083 0.27012 0.69829 0.0
C773 C 0.72506 0.26186 0.61938 0.0
C774 C 0.26372 0.75266 0.66573 0.0
C775 C 0.28009 0.77245 0.63799 0.0
H776 H 0.21641 0.70708 0.68729 0.0
C777 C 0.26002 0.75901 0.6094 0.0
H778 H 0.27833 0.76189 0.68818 0.0
C779 C 0.22432 0.72631 0.60886 0.0
C780 C 0.20792 0.70716 0.63693 0.0
H781 H 0.2723 0.77316 0.58758 0.0
H782 H 0.20885 0.71698 0.58672 0.0
C783 C 0.22823 0.72085 0.66521 0.0
C784 C 0.47271 0.98716 0.04053 0.0
C785 C 0.51201 0.01462 0.03646 0.0
H786 H 0.41771 0.94984 0.01867 0.0
C787 C 0.52631 0.02448 1.00598 0.0
H788 H 0.4611 0.97863 0.06385 0.0
C789 C 0.50208 0.00706 0.98023 0.0
C790 C 0.46259 0.97982 0.98423 0.0
H791 H 0.55702 0.04436 1.00205 0.0
H792 H 0.51428 0.01501 0.95697 0.0
C793 C 0.44828 0.96993 0.01474 0.0
C794 C 0.50095 0.4772 0.05103 0.0
C795 C 0.47594 0.51796 0.04642 0.0
H796 H 0.53566 0.42005 0.02998 0.0
C797 C 0.46773 0.53249 0.0157 0.0
H798 H 0.50804 0.4652 0.0745 0.0
C799 C 0.48438 0.50703 0.99028 0.0
C800 C 0.50922 0.46615 0.99487 0.0
H801 H 0.44961 0.56415 1.01134 0.0
H802 H 0.47751 0.51921 0.96682 0.0
C803 C 0.51748 0.45167 0.0256 0.0
C804 C 0.94619 0.49841 1.00904 0.0
C805 C 0.96736 0.47061 0.0316 0.0
H806 H 0.95455 0.539 0.96745 0.0
C807 C 0.01486 0.46458 0.03017 0.0
H808 H 0.90988 0.50502 1.01032 0.0
C809 C 0.04058 0.48542 1.00645 0.0
C810 C 0.01944 0.51333 0.98395 0.0
H811 H 0.03224 0.44476 0.04797 0.0
H812 H 0.07691 0.47888 1.00521 0.0
C813 C 0.9719 0.51918 0.98526 0.0
C814 C 0.00985 0.05249 0.01518 0.0
C815 C 0.98161 0.02487 0.9964 0.0
H816 H 0.05812 0.05528 0.05304 0.0
C817 C 0.98144 0.97726 1.0016 0.0
H818 H 0.01212 0.08899 1.01087 0.0
C819 C 0.00865 0.95776 0.02518 0.0
C820 C 0.03711 0.98536 0.04391 0.0
H821 H 0.96129 0.95497 0.98669 0.0
H822 H 0.00671 0.92118 0.02919 0.0
C823 C 0.0371 0.033 0.03872 0.0
C824 C 0.96219 0.97727 0.53006 0.0
C825 C 0.9717 0.02175 0.54145 0.0
H826 H 0.97862 0.92435 0.49683 0.0
C827 C 0.00678 0.04692 0.52728 0.0
H828 H 0.93566 0.95675 0.5408 0.0
C829 C 0.03186 0.02792 0.50247 0.0
C830 C 0.02258 0.98327 0.4913 0.0
H831 H 0.01573 0.08063 0.536 0.0
H832 H 0.05842 0.04836 0.4917 0.0
C833 C 0.98739 0.9582 0.50538 0.0
C834 C 0.46097 0.03014 0.49556 0.0
C835 C 0.50487 0.02115 0.48349 0.0
H836 H 0.40947 0.01229 0.52933 0.0
C837 C 0.53012 0.98515 0.49642 0.0
H838 H 0.44045 0.05738 0.4857 0.0
C839 C 0.51184 0.95872 0.5208 0.0
C840 C 0.46794 0.96769 0.53287 0.0
H841 H 0.56341 0.97667 0.48714 0.0
H842 H 0.53244 0.93159 0.53073 0.0
C843 C 0.44268 0.0037 0.51996 0.0
C844 C 0.4969 0.5311 0.50685 0.0
C845 C 0.45957 0.50615 0.49531 0.0
H846 H 0.55206 0.53373 0.53996 0.0
C847 C 0.44992 0.46298 0.5087 0.0
H848 H 0.50591 0.56379 0.49657 0.0
C849 C 0.47692 0.44518 0.53303 0.0
C850 C 0.51421 0.47018 0.5446 0.0
H851 H 0.42167 0.44263 0.49994 0.0
H852 H 0.46781 0.41258 0.5434 0.0
C853 C 0.52391 0.5133 0.53115 0.0
C854 C 0.03522 0.47917 0.52143 0.0
C855 C 0.01153 0.51772 0.53216 0.0
H856 H 0.03651 0.42299 0.48896 0.0
C857 C 0.96923 0.52847 0.51814 0.0
H858 H 0.06711 0.46926 0.53232 0.0
C859 C 0.95111 0.50146 0.49387 0.0
C860 C 0.97488 0.463 0.48306 0.0
H861 H 0.94974 0.55752 0.52643 0.0
H862 H 0.91924 0.5114 0.48297 0.0
C863 C 0.01705 0.45209 0.49721 0.0
C864 C 0.55368 0.04251 0.27383 0.0
C865 C 0.57506 0.07754 0.29103 0.0
H866 H 0.54096 0.01271 0.22915 0.0
C867 C 0.60104 0.1106 0.27494 0.0
H868 H 0.533 0.01681 0.28541 0.0
C869 C 0.60499 0.10873 0.24219 0.0
C870 C 0.58332 0.07356 0.22516 0.0
H871 H 0.61708 0.13858 0.28753 0.0
H872 H 0.62566 0.13411 0.23031 0.0
C873 C 0.55778 0.04053 0.24147 0.0
C874 C 0.44303 0.55272 0.286 0.0
C875 C 0.40981 0.57739 0.30259 0.0
H876 H 0.47172 0.53543 0.24187 0.0
C877 C 0.37909 0.605 0.28568 0.0
H878 H 0.46697 0.5307 0.29812 0.0
C879 C 0.38154 0.60739 0.25282 0.0
C880 C 0.41476 0.58223 0.23641 0.0
H881 H 0.35246 0.62364 0.2977 0.0
H882 H 0.35807 0.62948 0.24038 0.0
C883 C 0.44535 0.55495 0.25355 0.0
C884 C 0.87457 0.39445 0.2396 0.0
C885 C 0.89929 0.42952 0.22452 0.0
H886 H 0.85904 0.36103 0.28321 0.0
C887 C 0.92534 0.45981 0.24295 0.0
H888 H 0.85349 0.37102 0.22619 0.0
C889 C 0.92761 0.45474 0.27528 0.0
C890 C 0.90403 0.41915 0.2904 0.0
H891 H 0.94441 0.48762 0.23241 0.0
H892 H 0.94912 0.47811 0.28845 0.0
C893 C 0.87688 0.38934 0.2723 0.0
C894 C 0.02794 0.91315 0.28479 0.0
C895 C 0.06673 0.89683 0.30043 0.0
H896 H -0.00528 0.92528 0.24137 0.0
C897 C 0.10148 0.87582 0.28285 0.0
H898 H 0.00072 0.92971 0.29764 0.0
C899 C 0.09849 0.87383 0.24999 0.0
C900 C 0.06067 0.89277 0.23431 0.0
H901 H 0.13218 0.86365 0.29426 0.0
H902 H 0.12633 0.85887 0.2369 0.0
C903 C 0.0249 0.9111 0.25233 0.0
C904 C 0.4426 0.93511 0.77823 0.0
C905 C 0.41102 0.90755 0.79421 0.0
H906 H 0.46969 0.95669 0.7346 0.0
C907 C 0.3824 0.87825 0.77674 0.0
H908 H 0.46483 0.95844 0.79086 0.0
C909 C 0.38489 0.87746 0.74386 0.0
C910 C 0.41599 0.90601 0.728 0.0
H911 H 0.35698 0.85736 0.78836 0.0
H912 H 0.3628 0.85438 0.73094 0.0
C913 C 0.44488 0.93455 0.74576 0.0
C914 C 0.60631 0.38282 0.75541 0.0
C915 C 0.57829 0.41425 0.73941 0.0
H916 H 0.62578 0.35447 0.79999 0.0
C917 C 0.54939 0.44266 0.75704 0.0
H918 H 0.62961 0.36105 0.7426 0.0
C919 C 0.54819 0.43984 0.78951 0.0
C920 C 0.57558 0.40826 0.80567 0.0
H921 H 0.52758 0.46763 0.74575 0.0
H922 H 0.52479 0.46195 0.80199 0.0
C923 C 0.60497 0.37986 0.7883 0.0
C924 C 0.10587 0.60156 0.74215 0.0
C925 C 0.07633 0.57223 0.72543 0.0
H926 H 0.13215 0.62125 0.78733 0.0
C927 C 0.05021 0.54015 0.74212 0.0
H928 H 0.12577 0.62727 0.73 0.0
C929 C 0.05277 0.53769 0.77452 0.0
C930 C 0.08196 0.56688 0.79151 0.0
H931 H 0.02681 0.51724 0.73014 0.0
H932 H 0.03193 0.51228 0.78625 0.0
C933 C 0.10867 0.59889 0.77499 0.0
C934 C 0.91474 0.03295 0.78837 0.0
C935 C 0.89818 0.07182 0.80386 0.0
H936 H 0.92868 -8e-05 0.74533 0.0
C937 C 0.8791 0.10751 0.78594 0.0
H938 H 0.92989 0.00498 0.80139 0.0
C939 C 0.87852 0.10484 0.75298 0.0
C940 C 0.89736 0.06661 0.73759 0.0
H941 H 0.8669 0.13835 0.79724 0.0
H942 H 0.86417 0.13287 0.73964 0.0
C943 C 0.91461 0.03049 0.75594 0.0
loop_
_geom_bond_atom_site_label_1
_geom_bond_atom_site_label_2
_geom_bond_distance
_geom_bond_site_symmetry_2
_ccdc_geom_bond_type
Co0 O3 1.970 . S
Co0 N17 1.989 . S
Co0 O25 1.967 . S
Co0 O32 1.920 . S
Co1 O4 1.966 1_565 S
Co1 N10 2.022 . S
Co1 N18 1.993 1_565 S
Co1 O26 1.941 . S
C2 O3 1.258 . S
C2 O4 1.263 . S
O3 Co0 1.970 . S
O3 C2 1.258 . S
O4 Co1 1.966 1_545 S
O4 C2 1.263 . S
C5 O6 1.235 . S
C5 O32 1.289 . S
O6 C5 1.235 . S
C7 C9 1.400 . S
C7 N10 1.351 . S
C7 C12 1.501 . S
C8 C9 1.387 . S
C8 N11 1.341 . S
C9 C7 1.400 . S
C9 C8 1.387 . S
N10 Co1 2.022 . S
N10 C7 1.351 . S
N10 N11 1.365 . S
N11 C8 1.341 . S
N11 N10 1.365 . S
N11 H31 0.862 . S
C12 C7 1.501 . S
C12 H13 0.961 . S
C12 H14 0.961 . S
C12 H15 0.960 . S
H13 C12 0.961 . S
H14 C12 0.961 . S
H15 C12 0.960 . S
C16 N17 1.342 . S
C16 C20 1.401 . S
C16 C21 1.499 . S
N17 Co0 1.989 . S
N17 C16 1.342 . S
N17 N18 1.388 . S
N18 Co1 1.993 1_545 S
N18 N17 1.388 . S
N18 C19 1.346 . S
C19 N18 1.346 . S
C19 C20 1.396 . S
C19 C29 1.510 1_545 S
C20 C16 1.401 . S
C20 C19 1.396 . S
C21 C16 1.499 . S
C21 H22 0.959 . S
C21 H23 0.960 . S
C21 H24 0.961 . S
H22 C21 0.959 . S
H23 C21 0.960 . S
H24 C21 0.961 . S
O25 Co0 1.967 . S
O25 C33 1.258 . S
O26 Co1 1.941 . S
O26 C33 1.266 1_565 S
H27 C29 0.959 . S
H28 C29 0.961 . S
C29 C19 1.510 1_565 S
C29 H27 0.959 . S
C29 H28 0.961 . S
C29 H30 0.960 . S
H30 C29 0.960 . S
H31 N11 0.862 . S
O32 Co0 1.920 . S
O32 C5 1.289 . S
C33 O25 1.258 . S
C33 O26 1.266 1_545 S
Co34 O37 1.970 . S
Co34 N51 1.989 . S
Co34 O59 1.967 . S
Co34 O66 1.920 . S
Co35 O38 1.966 . S
Co35 N44 2.022 . S
Co35 N52 1.993 . S
Co35 O60 1.941 . S
C36 O37 1.258 . S
C36 O38 1.263 . S
O37 Co34 1.970 . S
O37 C36 1.258 . S
O38 Co35 1.966 . S
O38 C36 1.263 . S
C39 O40 1.235 . S
C39 O66 1.289 . S
O40 C39 1.235 . S
C41 C43 1.400 . S
C41 N44 1.351 . S
C41 C46 1.501 . S
C42 C43 1.387 . S
C42 N45 1.341 . S
C43 C41 1.400 . S
C43 C42 1.387 . S
N44 Co35 2.022 . S
N44 C41 1.351 . S
N44 N45 1.365 . S
N45 C42 1.341 . S
N45 N44 1.365 . S
N45 H65 0.862 . S
C46 C41 1.501 . S
C46 H47 0.961 . S
C46 H48 0.961 . S
C46 H49 0.960 . S
H47 C46 0.961 . S
H48 C46 0.961 . S
H49 C46 0.960 . S
C50 N51 1.342 . S
C50 C54 1.401 . S
C50 C55 1.499 . S
N51 Co34 1.989 . S
N51 C50 1.342 . S
N51 N52 1.388 . S
N52 Co35 1.993 . S
N52 N51 1.388 . S
N52 C53 1.346 . S
C53 N52 1.346 . S
C53 C54 1.396 . S
C53 C63 1.510 . S
C54 C50 1.401 . S
C54 C53 1.396 . S
C55 C50 1.499 . S
C55 H56 0.959 . S
C55 H57 0.960 . S
C55 H58 0.961 . S
H56 C55 0.959 . S
H57 C55 0.960 . S
H58 C55 0.961 . S
O59 Co34 1.967 . S
O59 C67 1.258 . S
O60 Co35 1.941 . S
O60 C67 1.266 . S
H61 C63 0.959 . S
H62 C63 0.961 . S
C63 C53 1.510 . S
C63 H61 0.959 . S
C63 H62 0.961 . S
C63 H64 0.960 . S
H64 C63 0.960 . S
H65 N45 0.862 . S
O66 Co34 1.920 . S
O66 C39 1.289 . S
C67 O59 1.258 . S
C67 O60 1.266 . S
Co68 O71 1.970 . S
Co68 N85 1.989 . S
Co68 O93 1.967 . S
Co68 O100 1.920 . S
Co69 O72 1.966 . S
Co69 N78 2.022 . S
Co69 N86 1.993 . S
Co69 O94 1.941 . S
C70 O71 1.258 . S
C70 O72 1.263 . S
O71 Co68 1.970 . S
O71 C70 1.258 . S
O72 Co69 1.966 . S
O72 C70 1.263 . S
C73 O74 1.235 . S
C73 O100 1.289 . S
O74 C73 1.235 . S
C75 C77 1.400 . S
C75 N78 1.351 . S
C75 C80 1.501 . S
C76 C77 1.387 . S
C76 N79 1.341 . S
C77 C75 1.400 . S
C77 C76 1.387 . S
N78 Co69 2.022 . S
N78 C75 1.351 . S
N78 N79 1.365 . S
N79 C76 1.341 . S
N79 N78 1.365 . S
N79 H99 0.862 . S
C80 C75 1.501 . S
C80 H81 0.961 . S
C80 H82 0.961 1_655 S
C80 H83 0.960 . S
H81 C80 0.961 . S
H82 C80 0.961 1_455 S
H83 C80 0.960 . S
C84 N85 1.342 . S
C84 C88 1.401 . S
C84 C89 1.499 . S
N85 Co68 1.989 . S
N85 C84 1.342 . S
N85 N86 1.388 . S
N86 Co69 1.993 . S
N86 N85 1.388 . S
N86 C87 1.346 . S
C87 N86 1.346 . S
C87 C88 1.396 . S
C87 C97 1.510 . S
C88 C84 1.401 . S
C88 C87 1.396 . S
C89 C84 1.499 . S
C89 H90 0.959 . S
C89 H91 0.960 . S
C89 H92 0.961 . S
H90 C89 0.959 . S
H91 C89 0.960 . S
H92 C89 0.961 . S
O93 Co68 1.967 . S
O93 C101 1.258 . S
O94 Co69 1.941 . S
O94 C101 1.266 . S
H95 C97 0.959 . S
H96 C97 0.961 1_455 S
C97 C87 1.510 . S
C97 H95 0.959 . S
C97 H96 0.961 1_655 S
C97 H98 0.960 . S
H98 C97 0.960 . S
H99 N79 0.862 . S
O100 Co68 1.920 . S
O100 C73 1.289 . S
C101 O93 1.258 . S
C101 O94 1.266 . S
Co102 O105 1.970 . S
Co102 N119 1.989 . S
Co102 O127 1.967 . S
Co102 O134 1.920 . S
Co103 O106 1.966 1_655 S
Co103 N112 2.022 . S
Co103 N120 1.993 1_655 S
Co103 O128 1.941 . S
C104 O105 1.258 . S
C104 O106 1.263 . S
O105 Co102 1.970 . S
O105 C104 1.258 . S
O106 Co103 1.966 1_455 S
O106 C104 1.263 . S
C107 O108 1.235 . S
C107 O134 1.289 . S
O108 C107 1.235 . S
C109 C111 1.400 . S
C109 N112 1.351 . S
C109 C114 1.501 . S
C110 C111 1.387 . S
C110 N113 1.341 . S
C111 C109 1.400 . S
C111 C110 1.387 . S
N112 Co103 2.022 . S
N112 C109 1.351 . S
N112 N113 1.365 . S
N113 C110 1.341 . S
N113 N112 1.365 . S
N113 H133 0.862 . S
C114 C109 1.501 . S
C114 H115 0.961 . S
C114 H116 0.961 1_565 S
C114 H117 0.960 . S
H115 C114 0.961 . S
H116 C114 0.961 1_545 S
H117 C114 0.960 . S
C118 N119 1.342 . S
C118 C122 1.401 . S
C118 C123 1.499 . S
N119 Co102 1.989 . S
N119 C118 1.342 . S
N119 N120 1.388 . S
N120 Co103 1.993 1_455 S
N120 N119 1.388 . S
N120 C121 1.346 . S
C121 N120 1.346 . S
C121 C122 1.396 . S
C121 C131 1.510 1_455 S
C122 C118 1.401 . S
C122 C121 1.396 . S
C123 C118 1.499 . S
C123 H124 0.959 . S
C123 H125 0.960 . S
C123 H126 0.961 . S
H124 C123 0.959 . S
H125 C123 0.960 . S
H126 C123 0.961 . S
O127 Co102 1.967 . S
O127 C135 1.258 . S
O128 Co103 1.941 . S
O128 C135 1.266 1_655 S
H129 C131 0.959 . S
H130 C131 0.961 1_545 S
C131 C121 1.510 1_655 S
C131 H129 0.959 . S
C131 H130 0.961 1_565 S
C131 H132 0.960 . S
H132 C131 0.960 . S
H133 N113 0.862 . S
O134 Co102 1.920 . S
O134 C107 1.289 . S
C135 O127 1.258 . S
C135 O128 1.266 1_455 S
Co136 O139 1.970 . S
Co136 N153 1.989 . S
Co136 O161 1.967 . S
Co136 O168 1.920 . S
Co137 O140 1.966 1_545 S
Co137 N146 2.022 . S
Co137 N154 1.993 1_545 S
Co137 O162 1.941 . S
C138 O139 1.258 . S
C138 O140 1.263 . S
O139 Co136 1.970 . S
O139 C138 1.258 . S
O140 Co137 1.966 1_565 S
O140 C138 1.263 . S
C141 O142 1.235 . S
C141 O168 1.289 . S
O142 C141 1.235 . S
C143 C145 1.400 . S
C143 N146 1.351 . S
C143 C148 1.501 . S
C144 C145 1.387 . S
C144 N147 1.341 . S
C145 C143 1.400 . S
C145 C144 1.387 . S
N146 Co137 2.022 . S
N146 C143 1.351 . S
N146 N147 1.365 . S
N147 C144 1.341 . S
N147 N146 1.365 . S
N147 H167 0.862 . S
C148 C143 1.501 . S
C148 H149 0.961 . S
C148 H150 0.961 1_455 S
C148 H151 0.960 . S
H149 C148 0.961 . S
H150 C148 0.961 1_655 S
H151 C148 0.960 . S
C152 N153 1.342 . S
C152 C156 1.401 . S
C152 C157 1.499 . S
N153 Co136 1.989 . S
N153 C152 1.342 . S
N153 N154 1.388 . S
N154 Co137 1.993 1_565 S
N154 N153 1.388 . S
N154 C155 1.346 . S
C155 N154 1.346 . S
C155 C156 1.396 . S
C155 C165 1.510 1_565 S
C156 C152 1.401 . S
C156 C155 1.396 . S
C157 C152 1.499 . S
C157 H158 0.959 . S
C157 H159 0.960 . S
C157 H160 0.961 . S
H158 C157 0.959 . S
H159 C157 0.960 . S
H160 C157 0.961 . S
O161 Co136 1.967 . S
O161 C169 1.258 . S
O162 Co137 1.941 . S
O162 C169 1.266 1_545 S
H163 C165 0.959 . S
H164 C165 0.961 1_655 S
C165 C155 1.510 1_545 S
C165 H163 0.959 . S
C165 H164 0.961 1_455 S
C165 H166 0.960 . S
H166 C165 0.960 . S
H167 N147 0.862 . S
O168 Co136 1.920 . S
O168 C141 1.289 . S
C169 O161 1.258 . S
C169 O162 1.266 1_565 S
Co170 O173 1.970 . S
Co170 N187 1.989 . S
Co170 O195 1.967 . S
Co170 O202 1.920 . S
Co171 O174 1.966 . S
Co171 N180 2.022 . S
Co171 N188 1.993 . S
Co171 O196 1.941 . S
C172 O173 1.258 . S
C172 O174 1.263 . S
O173 Co170 1.970 . S
O173 C172 1.258 . S
O174 Co171 1.966 . S
O174 C172 1.263 . S
C175 O176 1.235 . S
C175 O202 1.289 . S
O176 C175 1.235 . S
C177 C179 1.400 . S
C177 N180 1.351 . S
C177 C182 1.501 . S
C178 C179 1.387 . S
C178 N181 1.341 . S
C179 C177 1.400 . S
C179 C178 1.387 . S
N180 Co171 2.022 . S
N180 C177 1.351 . S
N180 N181 1.365 . S
N181 C178 1.341 . S
N181 N180 1.365 . S
N181 H201 0.862 . S
C182 C177 1.501 . S
C182 H183 0.961 . S
C182 H184 0.961 1_545 S
C182 H185 0.960 . S
H183 C182 0.961 . S
H184 C182 0.961 1_565 S
H185 C182 0.960 . S
C186 N187 1.342 . S
C186 C190 1.401 . S
C186 C191 1.499 . S
N187 Co170 1.989 . S
N187 C186 1.342 . S
N187 N188 1.388 . S
N188 Co171 1.993 . S
N188 N187 1.388 . S
N188 C189 1.346 . S
C189 N188 1.346 . S
C189 C190 1.396 . S
C189 C199 1.510 . S
C190 C186 1.401 . S
C190 C189 1.396 . S
C191 C186 1.499 . S
C191 H192 0.959 . S
C191 H193 0.960 . S
C191 H194 0.961 . S
H192 C191 0.959 . S
H193 C191 0.960 . S
H194 C191 0.961 . S
O195 Co170 1.967 . S
O195 C203 1.258 . S
O196 Co171 1.941 . S
O196 C203 1.266 . S
H197 C199 0.959 . S
H198 C199 0.961 1_565 S
C199 C189 1.510 . S
C199 H197 0.959 . S
C199 H198 0.961 1_545 S
C199 H200 0.960 . S
H200 C199 0.960 . S
H201 N181 0.862 . S
O202 Co170 1.920 . S
O202 C175 1.289 . S
C203 O195 1.258 . S
C203 O196 1.266 . S
Co204 O207 1.970 . S
Co204 N221 1.989 . S
Co204 O229 1.967 . S
Co204 O236 1.920 . S
Co205 O208 1.966 . S
Co205 N214 2.022 . S
Co205 N222 1.993 . S
Co205 O230 1.941 . S
C206 O207 1.258 . S
C206 O208 1.263 . S
O207 Co204 1.970 . S
O207 C206 1.258 . S
O208 Co205 1.966 . S
O208 C206 1.263 . S
C209 O210 1.235 . S
C209 O236 1.289 . S
O210 C209 1.235 . S
C211 C213 1.400 . S
C211 N214 1.351 . S
C211 C216 1.501 . S
C212 C213 1.387 . S
C212 N215 1.341 . S
C213 C211 1.400 . S
C213 C212 1.387 . S
N214 Co205 2.022 . S
N214 C211 1.351 . S
N214 N215 1.365 . S
N215 C212 1.341 . S
N215 N214 1.365 . S
N215 H235 0.862 . S
C216 C211 1.501 . S
C216 H217 0.961 . S
C216 H218 0.961 . S
C216 H219 0.960 . S
H217 C216 0.961 . S
H218 C216 0.961 . S
H219 C216 0.960 . S
C220 N221 1.342 . S
C220 C224 1.401 . S
C220 C225 1.499 . S
N221 Co204 1.989 . S
N221 C220 1.342 . S
N221 N222 1.388 . S
N222 Co205 1.993 . S
N222 N221 1.388 . S
N222 C223 1.346 . S
C223 N222 1.346 . S
C223 C224 1.396 . S
C223 C233 1.510 . S
C224 C220 1.401 . S
C224 C223 1.396 . S
C225 C220 1.499 . S
C225 H226 0.959 . S
C225 H227 0.960 . S
C225 H228 0.961 . S
H226 C225 0.959 . S
H227 C225 0.960 . S
H228 C225 0.961 . S
O229 Co204 1.967 . S
O229 C237 1.258 . S
O230 Co205 1.941 . S
O230 C237 1.266 . S
H231 C233 0.959 . S
H232 C233 0.961 . S
C233 C223 1.510 . S
C233 H231 0.959 . S
C233 H232 0.961 . S
C233 H234 0.960 . S
H234 C233 0.960 . S
H235 N215 0.862 . S
O236 Co204 1.920 . S
O236 C209 1.289 . S
C237 O229 1.258 . S
C237 O230 1.266 . S
Co238 O241 1.970 . S
Co238 N255 1.989 . S
Co238 O263 1.967 . S
Co238 O270 1.920 . S
Co239 O242 1.966 1_455 S
Co239 N248 2.022 . S
Co239 N256 1.993 1_455 S
Co239 O264 1.941 . S
C240 O241 1.258 . S
C240 O242 1.263 . S
O241 Co238 1.970 . S
O241 C240 1.258 . S
O242 Co239 1.966 1_655 S
O242 C240 1.263 . S
C243 O244 1.235 . S
C243 O270 1.289 . S
O244 C243 1.235 . S
C245 C247 1.400 . S
C245 N248 1.351 . S
C245 C250 1.501 . S
C246 C247 1.387 . S
C246 N249 1.341 . S
C247 C245 1.400 . S
C247 C246 1.387 . S
N248 Co239 2.022 . S
N248 C245 1.351 . S
N248 N249 1.365 . S
N249 C246 1.341 . S
N249 N248 1.365 . S
N249 H269 0.862 . S
C250 C245 1.501 . S
C250 H251 0.961 . S
C250 H252 0.961 . S
C250 H253 0.960 . S
H251 C250 0.961 . S
H252 C250 0.961 . S
H253 C250 0.960 . S
C254 N255 1.342 . S
C254 C258 1.401 . S
C254 C259 1.499 . S
N255 Co238 1.989 . S
N255 C254 1.342 . S
N255 N256 1.388 . S
N256 Co239 1.993 1_655 S
N256 N255 1.388 . S
N256 C257 1.346 . S
C257 N256 1.346 . S
C257 C258 1.396 . S
C257 C267 1.510 1_655 S
C258 C254 1.401 . S
C258 C257 1.396 . S
C259 C254 1.499 . S
C259 H260 0.959 . S
C259 H261 0.960 . S
C259 H262 0.961 . S
H260 C259 0.959 . S
H261 C259 0.960 . S
H262 C259 0.961 . S
O263 Co238 1.967 . S
O263 C271 1.258 . S
O264 Co239 1.941 . S
O264 C271 1.266 1_455 S
H265 C267 0.959 . S
H266 C267 0.961 . S
C267 C257 1.510 1_455 S
C267 H265 0.959 . S
C267 H266 0.961 . S
C267 H268 0.960 . S
H268 C267 0.960 . S
H269 N249 0.862 . S
O270 Co238 1.920 . S
O270 C243 1.289 . S
C271 O263 1.258 . S
C271 O264 1.266 1_655 S
Co272 O275 1.970 . S
Co272 N289 1.989 . S
Co272 O297 1.967 . S
Co272 O304 1.920 . S
Co273 O276 1.966 1_545 S
Co273 N282 2.022 . S
Co273 N290 1.993 1_545 S
Co273 O298 1.941 . S
C274 O275 1.258 . S
C274 O276 1.263 . S
O275 Co272 1.970 . S
O275 C274 1.258 . S
O276 Co273 1.966 1_565 S
O276 C274 1.263 . S
C277 O278 1.235 . S
C277 O304 1.289 . S
O278 C277 1.235 . S
C279 C281 1.400 . S
C279 N282 1.351 . S
C279 C284 1.501 . S
C280 C281 1.387 . S
C280 N283 1.341 . S
C281 C279 1.400 . S
C281 C280 1.387 . S
N282 Co273 2.022 . S
N282 C279 1.351 . S
N282 N283 1.365 . S
N283 C280 1.341 . S
N283 N282 1.365 . S
N283 H303 0.862 . S
C284 C279 1.501 . S
C284 H285 0.961 . S
C284 H286 0.961 . S
C284 H287 0.960 . S
H285 C284 0.961 . S
H286 C284 0.961 . S
H287 C284 0.960 . S
C288 N289 1.342 . S
C288 C292 1.401 . S
C288 C293 1.499 . S
N289 Co272 1.989 . S
N289 C288 1.342 . S
N289 N290 1.388 . S
N290 Co273 1.993 1_565 S
N290 N289 1.388 . S
N290 C291 1.346 . S
C291 N290 1.346 . S
C291 C292 1.396 . S
C291 C301 1.510 1_565 S
C292 C288 1.401 . S
C292 C291 1.396 . S
C293 C288 1.499 . S
C293 H294 0.959 . S
C293 H295 0.960 . S
C293 H296 0.961 . S
H294 C293 0.959 . S
H295 C293 0.960 . S
H296 C293 0.961 . S
O297 Co272 1.967 . S
O297 C305 1.258 . S
O298 Co273 1.941 . S
O298 C305 1.266 1_545 S
H299 C301 0.959 . S
H300 C301 0.961 . S
C301 C291 1.510 1_545 S
C301 H299 0.959 . S
C301 H300 0.961 . S
C301 H302 0.960 . S
H302 C301 0.960 . S
H303 N283 0.862 . S
O304 Co272 1.920 . S
O304 C277 1.289 . S
C305 O297 1.258 . S
C305 O298 1.266 1_565 S
Co306 O309 1.970 . S
Co306 N323 1.989 . S
Co306 O331 1.967 . S
Co306 O338 1.920 . S
Co307 O310 1.966 . S
Co307 N316 2.022 . S
Co307 N324 1.993 . S
Co307 O332 1.941 . S
C308 O309 1.258 . S
C308 O310 1.263 . S
O309 Co306 1.970 . S
O309 C308 1.258 . S
O310 Co307 1.966 . S
O310 C308 1.263 . S
C311 O312 1.235 . S
C311 O338 1.289 . S
O312 C311 1.235 . S
C313 C315 1.400 . S
C313 N316 1.351 . S
C313 C318 1.501 . S
C314 C315 1.387 . S
C314 N317 1.341 . S
C315 C313 1.400 . S
C315 C314 1.387 . S
N316 Co307 2.022 . S
N316 C313 1.351 . S
N316 N317 1.365 . S
N317 C314 1.341 . S
N317 N316 1.365 . S
N317 H337 0.862 . S
C318 C313 1.501 . S
C318 H319 0.961 . S
C318 H320 0.961 . S
C318 H321 0.960 . S
H319 C318 0.961 . S
H320 C318 0.961 . S
H321 C318 0.960 . S
C322 N323 1.342 . S
C322 C326 1.401 . S
C322 C327 1.499 . S
N323 Co306 1.989 . S
N323 C322 1.342 . S
N323 N324 1.388 . S
N324 Co307 1.993 . S
N324 N323 1.388 . S
N324 C325 1.346 . S
C325 N324 1.346 . S
C325 C326 1.396 . S
C325 C335 1.510 . S
C326 C322 1.401 . S
C326 C325 1.396 . S
C327 C322 1.499 . S
C327 H328 0.959 . S
C327 H329 0.960 . S
C327 H330 0.961 . S
H328 C327 0.959 . S
H329 C327 0.960 . S
H330 C327 0.961 . S
O331 Co306 1.967 . S
O331 C339 1.258 . S
O332 Co307 1.941 . S
O332 C339 1.266 . S
H333 C335 0.959 . S
H334 C335 0.961 . S
C335 C325 1.510 . S
C335 H333 0.959 . S
C335 H334 0.961 . S
C335 H336 0.960 . S
H336 C335 0.960 . S
H337 N317 0.862 . S
O338 Co306 1.920 . S
O338 C311 1.289 . S
C339 O331 1.258 . S
C339 O332 1.266 . S
Co340 O343 1.970 . S
Co340 N357 1.989 . S
Co340 O365 1.967 . S
Co340 O372 1.920 . S
Co341 O344 1.966 . S
Co341 N350 2.022 . S
Co341 N358 1.993 . S
Co341 O366 1.941 . S
C342 O343 1.258 . S
C342 O344 1.263 . S
O343 Co340 1.970 . S
O343 C342 1.258 . S
O344 Co341 1.966 . S
O344 C342 1.263 . S
C345 O346 1.235 . S
C345 O372 1.289 . S
O346 C345 1.235 . S
C347 C349 1.400 . S
C347 N350 1.351 . S
C347 C352 1.501 . S
C348 C349 1.387 . S
C348 N351 1.341 . S
C349 C347 1.400 . S
C349 C348 1.387 . S
N350 Co341 2.022 . S
N350 C347 1.351 . S
N350 N351 1.365 . S
N351 C348 1.341 . S
N351 N350 1.365 . S
N351 H371 0.862 . S
C352 C347 1.501 . S
C352 H353 0.961 . S
C352 H354 0.961 1_455 S
C352 H355 0.960 . S
H353 C352 0.961 . S
H354 C352 0.961 1_655 S
H355 C352 0.960 . S
C356 N357 1.342 . S
C356 C360 1.401 . S
C356 C361 1.499 . S
N357 Co340 1.989 . S
N357 C356 1.342 . S
N357 N358 1.388 . S
N358 Co341 1.993 . S
N358 N357 1.388 . S
N358 C359 1.346 . S
C359 N358 1.346 . S
C359 C360 1.396 . S
C359 C369 1.510 . S
C360 C356 1.401 . S
C360 C359 1.396 . S
C361 C356 1.499 . S
C361 H362 0.959 . S
C361 H363 0.960 . S
C361 H364 0.961 . S
H362 C361 0.959 . S
H363 C361 0.960 . S
H364 C361 0.961 . S
O365 Co340 1.967 . S
O365 C373 1.258 . S
O366 Co341 1.941 . S
O366 C373 1.266 . S
H367 C369 0.959 . S
H368 C369 0.961 1_655 S
C369 C359 1.510 . S
C369 H367 0.959 . S
C369 H368 0.961 1_455 S
C369 H370 0.960 . S
H370 C369 0.960 . S
H371 N351 0.862 . S
O372 Co340 1.920 . S
O372 C345 1.289 . S
C373 O365 1.258 . S
C373 O366 1.266 . S
Co374 O377 1.970 . S
Co374 N391 1.989 . S
Co374 O399 1.967 . S
Co374 O406 1.920 . S
Co375 O378 1.966 1_455 S
Co375 N384 2.022 . S
Co375 N392 1.993 1_455 S
Co375 O400 1.941 . S
C376 O377 1.258 . S
C376 O378 1.263 . S
O377 Co374 1.970 . S
O377 C376 1.258 . S
O378 Co375 1.966 1_655 S
O378 C376 1.263 . S
C379 O380 1.235 . S
C379 O406 1.289 . S
O380 C379 1.235 . S
C381 C383 1.400 . S
C381 N384 1.351 . S
C381 C386 1.501 . S
C382 C383 1.387 . S
C382 N385 1.341 . S
C383 C381 1.400 . S
C383 C382 1.387 . S
N384 Co375 2.022 . S
N384 C381 1.351 . S
N384 N385 1.365 . S
N385 C382 1.341 . S
N385 N384 1.365 . S
N385 H405 0.862 . S
C386 C381 1.501 . S
C386 H387 0.961 . S
C386 H388 0.961 1_545 S
C386 H389 0.960 . S
H387 C386 0.961 . S
H388 C386 0.961 1_565 S
H389 C386 0.960 . S
C390 N391 1.342 . S
C390 C394 1.401 . S
C390 C395 1.499 . S
N391 Co374 1.989 . S
N391 C390 1.342 . S
N391 N392 1.388 . S
N392 Co375 1.993 1_655 S
N392 N391 1.388 . S
N392 C393 1.346 . S
C393 N392 1.346 . S
C393 C394 1.396 . S
C393 C403 1.510 1_655 S
C394 C390 1.401 . S
C394 C393 1.396 . S
C395 C390 1.499 . S
C395 H396 0.959 . S
C395 H397 0.960 . S
C395 H398 0.961 . S
H396 C395 0.959 . S
H397 C395 0.960 . S
H398 C395 0.961 . S
O399 Co374 1.967 . S
O399 C407 1.258 . S
O400 Co375 1.941 . S
O400 C407 1.266 1_455 S
H401 C403 0.959 . S
H402 C403 0.961 1_565 S
C403 C393 1.510 1_455 S
C403 H401 0.959 . S
C403 H402 0.961 1_545 S
C403 H404 0.960 . S
H404 C403 0.960 . S
H405 N385 0.862 . S
O406 Co374 1.920 . S
O406 C379 1.289 . S
C407 O399 1.258 . S
C407 O400 1.266 1_655 S
Co408 O411 1.970 . S
Co408 N425 1.989 . S
Co408 O433 1.967 . S
Co408 O440 1.920 . S
Co409 O412 1.966 1_565 S
Co409 N418 2.022 . S
Co409 N426 1.993 1_565 S
Co409 O434 1.941 . S
C410 O411 1.258 . S
C410 O412 1.263 . S
O411 Co408 1.970 . S
O411 C410 1.258 . S
O412 Co409 1.966 1_545 S
O412 C410 1.263 . S
C413 O414 1.235 . S
C413 O440 1.289 . S
O414 C413 1.235 . S
C415 C417 1.400 . S
C415 N418 1.351 . S
C415 C420 1.501 . S
C416 C417 1.387 . S
C416 N419 1.341 . S
C417 C415 1.400 . S
C417 C416 1.387 . S
N418 Co409 2.022 . S
N418 C415 1.351 . S
N418 N419 1.365 . S
N419 C416 1.341 . S
N419 N418 1.365 . S
N419 H439 0.862 . S
C420 C415 1.501 . S
C420 H421 0.961 . S
C420 H422 0.961 1_655 S
C420 H423 0.960 . S
H421 C420 0.961 . S
H422 C420 0.961 1_455 S
H423 C420 0.960 . S
C424 N425 1.342 . S
C424 C428 1.401 . S
C424 C429 1.499 . S
N425 Co408 1.989 . S
N425 C424 1.342 . S
N425 N426 1.388 . S
N426 Co409 1.993 1_545 S
N426 N425 1.388 . S
N426 C427 1.346 . S
C427 N426 1.346 . S
C427 C428 1.396 . S
C427 C437 1.510 1_545 S
C428 C424 1.401 . S
C428 C427 1.396 . S
C429 C424 1.499 . S
C429 H430 0.959 . S
C429 H431 0.960 . S
C429 H432 0.961 . S
H430 C429 0.959 . S
H431 C429 0.960 . S
H432 C429 0.961 . S
O433 Co408 1.967 . S
O433 C441 1.258 . S
O434 Co409 1.941 . S
O434 C441 1.266 1_565 S
H435 C437 0.959 . S
H436 C437 0.961 1_455 S
C437 C427 1.510 1_565 S
C437 H435 0.959 . S
C437 H436 0.961 1_655 S
C437 H438 0.960 . S
H438 C437 0.960 . S
H439 N419 0.862 . S
O440 Co408 1.920 . S
O440 C413 1.289 . S
C441 O433 1.258 . S
C441 O434 1.266 1_545 S
Co442 O445 1.970 . S
Co442 N459 1.989 . S
Co442 O467 1.967 . S
Co442 O474 1.920 . S
Co443 O446 1.966 . S
Co443 N452 2.022 . S
Co443 N460 1.993 . S
Co443 O468 1.941 . S
C444 O445 1.258 . S
C444 O446 1.263 . S
O445 Co442 1.970 . S
O445 C444 1.258 . S
O446 Co443 1.966 . S
O446 C444 1.263 . S
C447 O448 1.235 . S
C447 O474 1.289 . S
O448 C447 1.235 . S
C449 C451 1.400 . S
C449 N452 1.351 . S
C449 C454 1.501 . S
C450 C451 1.387 . S
C450 N453 1.341 . S
C451 C449 1.400 . S
C451 C450 1.387 . S
N452 Co443 2.022 . S
N452 C449 1.351 . S
N452 N453 1.365 . S
N453 C450 1.341 . S
N453 N452 1.365 . S
N453 H473 0.862 . S
C454 C449 1.501 . S
C454 H455 0.961 . S
C454 H456 0.961 1_565 S
C454 H457 0.960 . S
H455 C454 0.961 . S
H456 C454 0.961 1_545 S
H457 C454 0.960 . S
C458 N459 1.342 . S
C458 C462 1.401 . S
C458 C463 1.499 . S
N459 Co442 1.989 . S
N459 C458 1.342 . S
N459 N460 1.388 . S
N460 Co443 1.993 . S
N460 N459 1.388 . S
N460 C461 1.346 . S
C461 N460 1.346 . S
C461 C462 1.396 . S
C461 C471 1.510 . S
C462 C458 1.401 . S
C462 C461 1.396 . S
C463 C458 1.499 . S
C463 H464 0.959 . S
C463 H465 0.960 . S
C463 H466 0.961 . S
H464 C463 0.959 . S
H465 C463 0.960 . S
H466 C463 0.961 . S
O467 Co442 1.967 . S
O467 C475 1.258 . S
O468 Co443 1.941 . S
O468 C475 1.266 . S
H469 C471 0.959 . S
H470 C471 0.961 1_545 S
C471 C461 1.510 . S
C471 H469 0.959 . S
C471 H470 0.961 1_565 S
C471 H472 0.960 . S
H472 C471 0.960 . S
H473 N453 0.862 . S
O474 Co442 1.920 . S
O474 C447 1.289 . S
C475 O467 1.258 . S
C475 O468 1.266 . S
Co476 O479 1.970 . S
Co476 N493 1.989 . S
Co476 O501 1.967 . S
Co476 O508 1.920 . S
Co477 O480 1.966 . S
Co477 N486 2.022 . S
Co477 N494 1.993 . S
Co477 O502 1.941 . S
C478 O479 1.258 . S
C478 O480 1.263 . S
O479 Co476 1.970 . S
O479 C478 1.258 . S
O480 Co477 1.966 . S
O480 C478 1.263 . S
C481 O482 1.235 . S
C481 O508 1.289 . S
O482 C481 1.235 . S
C483 C485 1.400 . S
C483 N486 1.351 . S
C483 C488 1.501 . S
C484 C485 1.387 . S
C484 N487 1.341 . S
C485 C483 1.400 . S
C485 C484 1.387 . S
N486 Co477 2.022 . S
N486 C483 1.351 . S
N486 N487 1.365 . S
N487 C484 1.341 . S
N487 N486 1.365 . S
N487 H507 0.862 . S
C488 C483 1.501 . S
C488 H489 0.961 . S
C488 H490 0.961 . S
C488 H491 0.960 . S
H489 C488 0.961 . S
H490 C488 0.961 . S
H491 C488 0.960 . S
C492 N493 1.342 . S
C492 C496 1.401 . S
C492 C497 1.499 . S
N493 Co476 1.989 . S
N493 C492 1.342 . S
N493 N494 1.388 . S
N494 Co477 1.993 . S
N494 N493 1.388 . S
N494 C495 1.346 . S
C495 N494 1.346 . S
C495 C496 1.396 . S
C495 C505 1.510 . S
C496 C492 1.401 . S
C496 C495 1.396 . S
C497 C492 1.499 . S
C497 H498 0.959 . S
C497 H499 0.960 . S
C497 H500 0.961 . S
H498 C497 0.959 . S
H499 C497 0.960 . S
H500 C497 0.961 . S
O501 Co476 1.967 . S
O501 C509 1.258 . S
O502 Co477 1.941 . S
O502 C509 1.266 . S
H503 C505 0.959 . S
H504 C505 0.961 . S
C505 C495 1.510 . S
C505 H503 0.959 . S
C505 H504 0.961 . S
C505 H506 0.960 . S
H506 C505 0.960 . S
H507 N487 0.862 . S
O508 Co476 1.920 . S
O508 C481 1.289 . S
C509 O501 1.258 . S
C509 O502 1.266 . S
Co510 O513 1.970 . S
Co510 N527 1.989 . S
Co510 O535 1.967 . S
Co510 O542 1.920 . S
Co511 O514 1.966 1_655 S
Co511 N520 2.022 . S
Co511 N528 1.993 1_655 S
Co511 O536 1.941 . S
C512 O513 1.258 . S
C512 O514 1.263 . S
O513 Co510 1.970 . S
O513 C512 1.258 . S
O514 Co511 1.966 1_455 S
O514 C512 1.263 . S
C515 O516 1.235 . S
C515 O542 1.289 . S
O516 C515 1.235 . S
C517 C519 1.400 . S
C517 N520 1.351 . S
C517 C522 1.501 . S
C518 C519 1.387 . S
C518 N521 1.341 . S
C519 C517 1.400 . S
C519 C518 1.387 . S
N520 Co511 2.022 . S
N520 C517 1.351 . S
N520 N521 1.365 . S
N521 C518 1.341 . S
N521 N520 1.365 . S
N521 H541 0.862 . S
C522 C517 1.501 . S
C522 H523 0.961 . S
C522 H524 0.961 . S
C522 H525 0.960 . S
H523 C522 0.961 . S
H524 C522 0.961 . S
H525 C522 0.960 . S
C526 N527 1.342 . S
C526 C530 1.401 . S
C526 C531 1.499 . S
N527 Co510 1.989 . S
N527 C526 1.342 . S
N527 N528 1.388 . S
N528 Co511 1.993 1_455 S
N528 N527 1.388 . S
N528 C529 1.346 . S
C529 N528 1.346 . S
C529 C530 1.396 . S
C529 C539 1.510 1_455 S
C530 C526 1.401 . S
C530 C529 1.396 . S
C531 C526 1.499 . S
C531 H532 0.959 . S
C531 H533 0.960 . S
C531 H534 0.961 . S
H532 C531 0.959 . S
H533 C531 0.960 . S
H534 C531 0.961 . S
O535 Co510 1.967 . S
O535 C543 1.258 . S
O536 Co511 1.941 . S
O536 C543 1.266 1_655 S
H537 C539 0.959 . S
H538 C539 0.961 . S
C539 C529 1.510 1_655 S
C539 H537 0.959 . S
C539 H538 0.961 . S
C539 H540 0.960 . S
H540 C539 0.960 . S
H541 N521 0.862 . S
O542 Co510 1.920 . S
O542 C515 1.289 . S
C543 O535 1.258 . S
C543 O536 1.266 1_455 S
C544 C545 1.387 . S
C544 H548 0.950 . S
C544 C553 1.390 . S
C545 C544 1.387 . S
C545 C547 1.387 . S
H546 C553 0.950 . S
C547 C545 1.387 . S
C547 C549 1.390 . S
C547 H551 0.950 . S
H548 C544 0.950 . S
C549 C547 1.390 . S
C549 C550 1.387 . S
C549 H552 0.950 . S
C550 C549 1.387 . S
C550 C553 1.387 . S
H551 C547 0.950 . S
H552 C549 0.950 . S
C553 C544 1.390 . S
C553 H546 0.950 . S
C553 C550 1.387 . S
C554 C555 1.387 . S
C554 H558 0.950 . S
C554 C563 1.390 . S
C555 C554 1.387 . S
C555 C557 1.387 . S
H556 C563 0.950 . S
C557 C555 1.387 . S
C557 C559 1.390 . S
C557 H561 0.950 . S
H558 C554 0.950 . S
C559 C557 1.390 . S
C559 C560 1.387 . S
C559 H562 0.950 . S
C560 C559 1.387 . S
C560 C563 1.387 . S
H561 C557 0.950 . S
H562 C559 0.950 . S
C563 C554 1.390 . S
C563 H556 0.950 . S
C563 C560 1.387 . S
C564 C565 1.387 . S
C564 H568 0.950 . S
C564 C573 1.390 . S
C565 C564 1.387 . S
C565 C567 1.387 1_655 S
H566 C573 0.950 . S
C567 C565 1.387 1_455 S
C567 C569 1.390 . S
C567 H571 0.950 . S
H568 C564 0.950 . S
C569 C567 1.390 . S
C569 C570 1.381 1_455 S
C569 H572 0.950 . S
C570 C569 1.381 1_655 S
C570 C573 1.394 . S
H571 C567 0.950 . S
H572 C569 0.950 . S
C573 C564 1.390 . S
C573 H566 0.950 . S
C573 C570 1.394 . S
C574 C575 1.383 1_545 S
C574 H578 0.950 . S
C574 C583 1.390 . S
C575 C574 1.383 1_565 S
C575 C577 1.392 . S
H576 C583 0.950 . S
C577 C575 1.392 . S
C577 C579 1.390 . S
C577 H581 0.950 . S
H578 C574 0.950 . S
C579 C577 1.390 . S
C579 C580 1.387 . S
C579 H582 0.950 . S
C580 C579 1.387 . S
C580 C583 1.387 1_565 S
H581 C577 0.950 . S
H582 C579 0.950 . S
C583 C574 1.390 . S
C583 H576 0.950 . S
C583 C580 1.387 1_545 S
C584 C585 1.387 1_655 S
C584 H588 0.950 . S
C584 C593 1.390 . S
C585 C584 1.387 1_455 S
C585 C587 1.387 . S
H586 C593 0.950 . S
C587 C585 1.387 . S
C587 C589 1.390 . S
C587 H591 0.950 . S
H588 C584 0.950 . S
C589 C587 1.390 . S
C589 C590 1.397 . S
C589 H592 0.950 . S
C590 C589 1.397 . S
C590 C593 1.379 1_455 S
H591 C587 0.950 . S
H592 C589 0.950 . S
C593 C584 1.390 . S
C593 H586 0.950 . S
C593 C590 1.379 1_655 S
C594 C595 1.387 1_565 S
C594 H598 0.950 . S
C594 C603 1.390 . S
C595 C594 1.387 1_545 S
C595 C597 1.387 . S
H596 C603 0.950 . S
C597 C595 1.387 . S
C597 C599 1.390 . S
C597 H601 0.950 . S
H598 C594 0.950 . S
C599 C597 1.390 . S
C599 C600 1.393 . S
C599 H602 0.950 . S
C600 C599 1.393 . S
C600 C603 1.382 1_545 S
H601 C597 0.950 . S
H602 C599 0.950 . S
C603 C594 1.390 . S
C603 H596 0.950 . S
C603 C600 1.382 1_565 S
C604 C605 1.387 . S
C604 H608 0.950 . S
C604 C613 1.390 . S
C605 C604 1.387 . S
C605 C607 1.387 . S
H606 C613 0.950 . S
C607 C605 1.387 . S
C607 C609 1.390 . S
C607 H611 0.950 . S
H608 C604 0.950 . S
C609 C607 1.390 . S
C609 C610 1.387 . S
C609 H612 0.950 . S
C610 C609 1.387 . S
C610 C613 1.387 . S
H611 C607 0.950 . S
H612 C609 0.950 . S
C613 C604 1.390 . S
C613 H606 0.950 . S
C613 C610 1.387 . S
C614 C615 1.387 . S
C614 H618 0.950 . S
C614 C623 1.390 . S
C615 C614 1.387 . S
C615 C617 1.387 . S
H616 C623 0.950 . S
C617 C615 1.387 . S
C617 C619 1.390 . S
C617 H621 0.950 . S
H618 C614 0.950 . S
C619 C617 1.390 . S
C619 C620 1.387 . S
C619 H622 0.950 . S
C620 C619 1.387 . S
C620 C623 1.387 . S
H621 C617 0.950 . S
H622 C619 0.950 . S
C623 C614 1.390 . S
C623 H616 0.950 . S
C623 C620 1.387 . S
C624 C625 1.387 . S
C624 H628 0.950 . S
C624 C633 1.390 . S
C625 C624 1.387 . S
C625 C627 1.387 . S
H626 C633 0.950 . S
C627 C625 1.387 . S
C627 C629 1.390 . S
C627 H631 0.950 . S
H628 C624 0.950 . S
C629 C627 1.390 . S
C629 C630 1.387 . S
C629 H632 0.950 . S
C630 C629 1.387 . S
C630 C633 1.387 . S
H631 C627 0.950 . S
H632 C629 0.950 . S
C633 C624 1.390 . S
C633 H626 0.950 . S
C633 C630 1.387 . S
C634 C635 1.387 . S
C634 H638 0.950 . S
C634 C643 1.390 . S
C635 C634 1.387 . S
C635 C637 1.387 . S
H636 C643 0.950 . S
C637 C635 1.387 . S
C637 C639 1.390 . S
C637 H641 0.950 . S
H638 C634 0.950 . S
C639 C637 1.390 . S
C639 C640 1.387 . S
C639 H642 0.950 . S
C640 C639 1.387 . S
C640 C643 1.387 . S
H641 C637 0.950 . S
H642 C639 0.950 . S
C643 C634 1.390 . S
C643 H636 0.950 . S
C643 C640 1.387 . S
C644 C645 1.387 1_655 S
C644 H648 0.950 . S
C644 C653 1.390 . S
C645 C644 1.387 1_455 S
C645 C647 1.387 . S
H646 C653 0.950 . S
C647 C645 1.387 . S
C647 C649 1.390 . S
C647 H651 0.950 . S
H648 C644 0.950 . S
C649 C647 1.390 . S
C649 C650 1.394 . S
C649 H652 0.950 . S
C650 C649 1.394 . S
C650 C653 1.381 1_455 S
H651 C647 0.950 . S
H652 C649 0.950 . S
C653 C644 1.390 . S
C653 H646 0.950 . S
C653 C650 1.381 1_655 S
C654 C655 1.387 . S
C654 H658 0.950 . S
C654 C663 1.390 . S
C655 C654 1.387 . S
C655 C657 1.387 1_545 S
H656 C663 0.950 . S
C657 C655 1.387 1_565 S
C657 C659 1.390 . S
C657 H661 0.950 . S
H658 C654 0.950 . S
C659 C657 1.390 . S
C659 C660 1.382 1_565 S
C659 H662 0.950 . S
C660 C659 1.382 1_545 S
C660 C663 1.394 . S
H661 C657 0.950 . S
H662 C659 0.950 . S
C663 C654 1.390 . S
C663 H656 0.950 . S
C663 C660 1.394 . S
C664 C665 1.387 . S
C664 H668 0.950 . S
C664 C673 1.390 . S
C665 C664 1.387 . S
C665 C667 1.387 1_655 S
H666 C673 0.950 . S
C667 C665 1.387 1_455 S
C667 C669 1.390 . S
C667 H671 0.950 . S
H668 C664 0.950 . S
C669 C667 1.390 . S
C669 C670 1.385 1_455 S
C669 H672 0.950 . S
C670 C669 1.385 1_655 S
C670 C673 1.391 . S
H671 C667 0.950 . S
H672 C669 0.950 . S
C673 C664 1.390 . S
C673 H666 0.950 . S
C673 C670 1.391 . S
C674 C675 1.387 . S
C674 H678 0.950 . S
C674 C683 1.390 . S
C675 C674 1.387 . S
C675 C677 1.387 1_565 S
H676 C683 0.950 . S
C677 C675 1.387 1_545 S
C677 C679 1.390 . S
C677 H681 0.950 . S
H678 C674 0.950 . S
C679 C677 1.390 . S
C679 C680 1.382 1_545 S
C679 H682 0.950 . S
C680 C679 1.382 1_565 S
C680 C683 1.393 . S
H681 C677 0.950 . S
H682 C679 0.950 . S
C683 C674 1.390 . S
C683 H676 0.950 . S
C683 C680 1.393 . S
C684 C685 1.387 . S
C684 H688 0.950 . S
C684 C693 1.390 . S
C685 C684 1.387 . S
C685 C687 1.387 . S
H686 C693 0.950 . S
C687 C685 1.387 . S
C687 C689 1.390 . S
C687 H691 0.950 . S
H688 C684 0.950 . S
C689 C687 1.390 . S
C689 C690 1.387 . S
C689 H692 0.950 . S
C690 C689 1.387 . S
C690 C693 1.387 . S
H691 C687 0.950 . S
H692 C689 0.950 . S
C693 C684 1.390 . S
C693 H686 0.950 . S
C693 C690 1.387 . S
C694 C695 1.387 . S
C694 H698 0.950 . S
C694 C703 1.390 . S
C695 C694 1.387 . S
C695 C697 1.387 . S
H696 C703 0.950 . S
C697 C695 1.387 . S
C697 C699 1.390 . S
C697 H701 0.950 . S
H698 C694 0.950 . S
C699 C697 1.390 . S
C699 C700 1.387 . S
C699 H702 0.950 . S
C700 C699 1.387 . S
C700 C703 1.387 . S
H701 C697 0.950 . S
H702 C699 0.950 . S
C703 C694 1.390 . S
C703 H696 0.950 . S
C703 C700 1.387 . S
C704 C705 1.387 . S
C704 H708 0.950 . S
C704 C713 1.390 . S
C705 C704 1.387 . S
C705 C707 1.387 . S
H706 C713 0.950 . S
C707 C705 1.387 . S
C707 C709 1.390 . S
C707 H711 0.950 . S
H708 C704 0.950 . S
C709 C707 1.390 . S
C709 C710 1.387 . S
C709 H712 0.950 . S
C710 C709 1.387 . S
C710 C713 1.387 . S
H711 C707 0.950 . S
H712 C709 0.950 . S
C713 C704 1.390 . S
C713 H706 0.950 . S
C713 C710 1.387 . S
C714 C715 1.387 . S
C714 H718 0.950 . S
C714 C723 1.390 . S
C715 C714 1.387 . S
C715 C717 1.387 . S
H716 C723 0.950 . S
C717 C715 1.387 . S
C717 C719 1.390 . S
C717 H721 0.950 . S
H718 C714 0.950 . S
C719 C717 1.390 . S
C719 C720 1.387 . S
C719 H722 0.950 . S
C720 C719 1.387 . S
C720 C723 1.387 . S
H721 C717 0.950 . S
H722 C719 0.950 . S
C723 C714 1.390 . S
C723 H716 0.950 . S
C723 C720 1.387 . S
C724 C725 1.387 . S
C724 H728 0.950 . S
C724 C733 1.390 . S
C725 C724 1.387 . S
C725 C727 1.387 . S
H726 C733 0.950 . S
C727 C725 1.387 . S
C727 C729 1.390 . S
C727 H731 0.950 . S
H728 C724 0.950 . S
C729 C727 1.390 . S
C729 C730 1.387 . S
C729 H732 0.950 . S
C730 C729 1.387 . S
C730 C733 1.387 . S
H731 C727 0.950 . S
H732 C729 0.950 . S
C733 C724 1.390 . S
C733 H726 0.950 . S
C733 C730 1.387 . S
C734 C735 1.387 . S
C734 H738 0.950 . S
C734 C743 1.390 . S
C735 C734 1.387 . S
C735 C737 1.387 . S
H736 C743 0.950 . S
C737 C735 1.387 . S
C737 C739 1.390 . S
C737 H741 0.950 . S
H738 C734 0.950 . S
C739 C737 1.390 . S
C739 C740 1.387 . S
C739 H742 0.950 . S
C740 C739 1.387 . S
C740 C743 1.387 . S
H741 C737 0.950 . S
H742 C739 0.950 . S
C743 C734 1.390 . S
C743 H736 0.950 . S
C743 C740 1.387 . S
C744 C745 1.387 . S
C744 H748 0.950 . S
C744 C753 1.390 . S
C745 C744 1.387 . S
C745 C747 1.387 . S
H746 C753 0.950 . S
C747 C745 1.387 . S
C747 C749 1.390 . S
C747 H751 0.950 . S
H748 C744 0.950 . S
C749 C747 1.390 . S
C749 C750 1.387 . S
C749 H752 0.950 . S
C750 C749 1.387 . S
C750 C753 1.387 . S
H751 C747 0.950 . S
H752 C749 0.950 . S
C753 C744 1.390 . S
C753 H746 0.950 . S
C753 C750 1.387 . S
C754 C755 1.387 . S
C754 H758 0.950 . S
C754 C763 1.390 . S
C755 C754 1.387 . S
C755 C757 1.387 . S
H756 C763 0.950 . S
C757 C755 1.387 . S
C757 C759 1.390 . S
C757 H761 0.950 . S
H758 C754 0.950 . S
C759 C757 1.390 . S
C759 C760 1.387 . S
C759 H762 0.950 . S
C760 C759 1.387 . S
C760 C763 1.387 . S
H761 C757 0.950 . S
H762 C759 0.950 . S
C763 C754 1.390 . S
C763 H756 0.950 . S
C763 C760 1.387 . S
C764 C765 1.387 . S
C764 H768 0.950 . S
C764 C773 1.390 . S
C765 C764 1.387 . S
C765 C767 1.387 . S
H766 C773 0.950 . S
C767 C765 1.387 . S
C767 C769 1.390 . S
C767 H771 0.950 . S
H768 C764 0.950 . S
C769 C767 1.390 . S
C769 C770 1.387 . S
C769 H772 0.950 . S
C770 C769 1.387 . S
C770 C773 1.387 . S
H771 C767 0.950 . S
H772 C769 0.950 . S
C773 C764 1.390 . S
C773 H766 0.950 . S
C773 C770 1.387 . S
C774 C775 1.387 . S
C774 H778 0.950 . S
C774 C783 1.390 . S
C775 C774 1.387 . S
C775 C777 1.387 . S
H776 C783 0.950 . S
C777 C775 1.387 . S
C777 C779 1.390 . S
C777 H781 0.950 . S
H778 C774 0.950 . S
C779 C777 1.390 . S
C779 C780 1.387 . S
C779 H782 0.950 . S
C780 C779 1.387 . S
C780 C783 1.387 . S
H781 C777 0.950 . S
H782 C779 0.950 . S
C783 C774 1.390 . S
C783 H776 0.950 . S
C783 C780 1.387 . S
C784 C785 1.387 1_565 S
C784 H788 0.950 . S
C784 C793 1.390 . S
C785 C784 1.387 1_545 S
C785 C787 1.387 1_554 S
H786 C793 0.950 . S
C787 C785 1.387 1_556 S
C787 C789 1.390 . S
C787 H791 0.950 . S
H788 C784 0.950 . S
C789 C787 1.390 . S
C789 C790 1.387 1_545 S
C789 H792 0.950 . S
C790 C789 1.387 1_565 S
C790 C793 1.387 1_556 S
H791 C787 0.950 . S
H792 C789 0.950 . S
C793 C784 1.390 . S
C793 H786 0.950 . S
C793 C790 1.387 1_554 S
C794 C795 1.387 . S
C794 H798 0.950 . S
C794 C803 1.390 . S
C795 C794 1.387 . S
C795 C797 1.387 1_554 S
H796 C803 0.950 . S
C797 C795 1.387 1_556 S
C797 C799 1.390 . S
C797 H801 0.950 . S
H798 C794 0.950 . S
C799 C797 1.390 . S
C799 C800 1.387 . S
C799 H802 0.950 . S
C800 C799 1.387 . S
C800 C803 1.387 1_556 S
H801 C797 0.950 . S
H802 C799 0.950 . S
C803 C794 1.390 . S
C803 H796 0.950 . S
C803 C800 1.387 1_554 S
C804 C805 1.387 1_556 S
C804 H808 0.950 . S
C804 C813 1.390 1_655 S
C805 C804 1.387 1_554 S
C805 C807 1.387 . S
H806 C813 0.950 . S
C807 C805 1.387 . S
C807 C809 1.390 1_655 S
C807 H811 0.950 . S
H808 C804 0.950 . S
C809 C807 1.390 1_455 S
C809 C810 1.387 1_554 S
C809 H812 0.950 . S
C810 C809 1.387 1_556 S
C810 C813 1.387 . S
H811 C807 0.950 . S
H812 C809 0.950 . S
C813 C804 1.390 1_455 S
C813 H806 0.950 . S
C813 C810 1.387 . S
C814 C815 1.387 1_554 S
C814 H818 0.950 . S
C814 C823 1.390 1_655 S
C815 C814 1.387 1_556 S
C815 C817 1.387 1_545 S
H816 C823 0.950 . S
C817 C815 1.387 1_565 S
C817 C819 1.390 1_655 S
C817 H821 0.950 . S
H818 C814 0.950 . S
C819 C817 1.390 1_455 S
C819 C820 1.387 1_556 S
C819 H822 0.950 . S
C820 C819 1.387 1_554 S
C820 C823 1.387 1_565 S
H821 C817 0.950 . S
H822 C819 0.950 . S
C823 C814 1.390 1_455 S
C823 H816 0.950 . S
C823 C820 1.387 1_545 S
C824 C825 1.387 1_565 S
C824 H828 0.950 . S
C824 C833 1.390 1_655 S
C825 C824 1.387 1_545 S
C825 C827 1.387 . S
H826 C833 0.950 . S
C827 C825 1.387 . S
C827 C829 1.390 1_655 S
C827 H831 0.950 . S
H828 C824 0.950 . S
C829 C827 1.390 1_455 S
C829 C830 1.387 1_545 S
C829 H832 0.950 . S
C830 C829 1.387 1_565 S
C830 C833 1.387 . S
H831 C827 0.950 . S
H832 C829 0.950 . S
C833 C824 1.390 1_455 S
C833 H826 0.950 . S
C833 C830 1.387 . S
C834 C835 1.387 . S
C834 H838 0.950 . S
C834 C843 1.390 1_545 S
C835 C834 1.387 . S
C835 C837 1.387 . S
H836 C843 0.950 . S
C837 C835 1.387 . S
C837 C839 1.390 1_545 S
C837 H841 0.950 . S
H838 C834 0.950 . S
C839 C837 1.390 1_565 S
C839 C840 1.387 . S
C839 H842 0.950 . S
C840 C839 1.387 . S
C840 C843 1.387 . S
H841 C837 0.950 . S
H842 C839 0.950 . S
C843 C834 1.390 1_565 S
C843 H836 0.950 . S
C843 C840 1.387 . S
C844 C845 1.387 . S
C844 H848 0.950 . S
C844 C853 1.390 . S
C845 C844 1.387 . S
C845 C847 1.387 . S
H846 C853 0.950 . S
C847 C845 1.387 . S
C847 C849 1.390 . S
C847 H851 0.950 . S
H848 C844 0.950 . S
C849 C847 1.390 . S
C849 C850 1.387 . S
C849 H852 0.950 . S
C850 C849 1.387 . S
C850 C853 1.387 . S
H851 C847 0.950 . S
H852 C849 0.950 . S
C853 C844 1.390 . S
C853 H846 0.950 . S
C853 C850 1.387 . S
C854 C855 1.387 . S
C854 H858 0.950 . S
C854 C863 1.390 . S
C855 C854 1.387 . S
C855 C857 1.387 1_455 S
H856 C863 0.950 . S
C857 C855 1.387 1_655 S
C857 C859 1.390 . S
C857 H861 0.950 . S
H858 C854 0.950 . S
C859 C857 1.390 . S
C859 C860 1.387 . S
C859 H862 0.950 . S
C860 C859 1.387 . S
C860 C863 1.387 1_655 S
H861 C857 0.950 . S
H862 C859 0.950 . S
C863 C854 1.390 . S
C863 H856 0.950 . S
C863 C860 1.387 1_455 S
C864 C865 1.387 . S
C864 H868 0.950 . S
C864 C873 1.390 . S
C865 C864 1.387 . S
C865 C867 1.387 . S
H866 C873 0.950 1_565 S
C867 C865 1.387 . S
C867 C869 1.390 . S
C867 H871 0.950 . S
H868 C864 0.950 . S
C869 C867 1.390 . S
C869 C870 1.387 . S
C869 H872 0.950 . S
C870 C869 1.387 . S
C870 C873 1.387 . S
H871 C867 0.950 . S
H872 C869 0.950 . S
C873 C864 1.390 . S
C873 H866 0.950 1_545 S
C873 C870 1.387 . S
C874 C875 1.387 . S
C874 H878 0.950 . S
C874 C883 1.390 . S
C875 C874 1.387 . S
C875 C877 1.387 . S
H876 C883 0.950 . S
C877 C875 1.387 . S
C877 C879 1.390 . S
C877 H881 0.950 . S
H878 C874 0.950 . S
C879 C877 1.390 . S
C879 C880 1.387 . S
C879 H882 0.950 . S
C880 C879 1.387 . S
C880 C883 1.387 . S
H881 C877 0.950 . S
H882 C879 0.950 . S
C883 C874 1.390 . S
C883 H876 0.950 . S
C883 C880 1.387 . S
C884 C885 1.387 . S
C884 H888 0.950 . S
C884 C893 1.390 . S
C885 C884 1.387 . S
C885 C887 1.387 . S
H886 C893 0.950 . S
C887 C885 1.387 . S
C887 C889 1.390 . S
C887 H891 0.950 . S
H888 C884 0.950 . S
C889 C887 1.390 . S
C889 C890 1.387 . S
C889 H892 0.950 . S
C890 C889 1.387 . S
C890 C893 1.387 . S
H891 C887 0.950 . S
H892 C889 0.950 . S
C893 C884 1.390 . S
C893 H886 0.950 . S
C893 C890 1.387 . S
C894 C895 1.387 . S
C894 H898 0.950 . S
C894 C903 1.390 . S
C895 C894 1.387 . S
C895 C897 1.387 . S
H896 C903 0.950 . S
C897 C895 1.387 . S
C897 C899 1.390 . S
C897 H901 0.950 . S
H898 C894 0.950 . S
C899 C897 1.390 . S
C899 C900 1.387 . S
C899 H902 0.950 . S
C900 C899 1.387 . S
C900 C903 1.387 . S
H901 C897 0.950 . S
H902 C899 0.950 . S
C903 C894 1.390 . S
C903 H896 0.950 . S
C903 C900 1.387 . S
C904 C905 1.387 . S
C904 H908 0.950 . S
C904 C913 1.390 . S
C905 C904 1.387 . S
C905 C907 1.387 . S
H906 C913 0.950 . S
C907 C905 1.387 . S
C907 C909 1.390 . S
C907 H911 0.950 . S
H908 C904 0.950 . S
C909 C907 1.390 . S
C909 C910 1.387 . S
C909 H912 0.950 . S
C910 C909 1.387 . S
C910 C913 1.387 . S
H911 C907 0.950 . S
H912 C909 0.950 . S
C913 C904 1.390 . S
C913 H906 0.950 . S
C913 C910 1.387 . S
C914 C915 1.387 . S
C914 H918 0.950 . S
C914 C923 1.390 . S
C915 C914 1.387 . S
C915 C917 1.387 . S
H916 C923 0.950 . S
C917 C915 1.387 . S
C917 C919 1.390 . S
C917 H921 0.950 . S
H918 C914 0.950 . S
C919 C917 1.390 . S
C919 C920 1.387 . S
C919 H922 0.950 . S
C920 C919 1.387 . S
C920 C923 1.387 . S
H921 C917 0.950 . S
H922 C919 0.950 . S
C923 C914 1.390 . S
C923 H916 0.950 . S
C923 C920 1.387 . S
C924 C925 1.387 . S
C924 H928 0.950 . S
C924 C933 1.390 . S
C925 C924 1.387 . S
C925 C927 1.387 . S
H926 C933 0.950 . S
C927 C925 1.387 . S
C927 C929 1.390 . S
C927 H931 0.950 . S
H928 C924 0.950 . S
C929 C927 1.390 . S
C929 C930 1.387 . S
C929 H932 0.950 . S
C930 C929 1.387 . S
C930 C933 1.387 . S
H931 C927 0.950 . S
H932 C929 0.950 . S
C933 C924 1.390 . S
C933 H926 0.950 . S
C933 C930 1.387 . S
C934 C935 1.387 . S
C934 H938 0.950 . S
C934 C943 1.390 . S
C935 C934 1.387 . S
C935 C937 1.387 . S
H936 C943 0.950 1_565 S
C937 C935 1.387 . S
C937 C939 1.390 . S
C937 H941 0.950 . S
H938 C934 0.950 . S
C939 C937 1.390 . S
C939 C940 1.387 . S
C939 H942 0.950 . S
C940 C939 1.387 . S
C940 C943 1.387 . S
H941 C937 0.950 . S
H942 C939 0.950 . S
C943 C934 1.390 . S
C943 H936 0.950 1_545 S
C943 C940 1.387 . S
C545 C9 0.942 . S
C550 C67 1.088 . S
C555 C101 1.090 . S
C560 C43 0.949 . S
C565 C135 1.089 1_655 S
C570 C77 0.951 . S
C575 C111 0.953 . S
C580 C33 1.088 1_565 S
C585 C271 1.088 1_455 S
C590 C145 0.953 . S
C595 C169 1.090 1_545 S
C600 C179 0.954 . S
C605 C203 1.090 . S
C610 C213 0.950 . S
C615 C247 0.943 . S
C620 C237 1.088 . S
C625 C281 0.942 . S
C630 C339 1.088 . S
C635 C315 0.943 . S
C640 C373 1.088 . S
C645 C407 1.088 1_455 S
C650 C349 0.952 . S
C655 C305 1.090 1_545 S
C660 C383 0.954 . S
C665 C543 1.090 1_655 S
C670 C417 0.954 . S
C675 C441 1.090 1_565 S
C680 C451 0.954 . S
C685 C485 0.942 . S
C690 C475 1.088 . S
C695 C519 0.943 . S
C700 C509 1.088 . S
C705 C5 2.246 . S
C710 C73 2.246 . S
C715 C39 2.246 . S
C720 C107 2.246 . S
C725 C209 2.248 . S
C730 C141 2.248 . S
C735 C243 2.248 . S
C740 C175 2.248 . S
C745 C345 2.246 . S
C750 C277 2.246 . S
C755 C311 2.246 . S
C760 C379 2.246 . S
C765 C413 2.248 . S
C770 C481 2.248 . S
C775 C447 2.246 . S
C780 C515 2.246 . S
C785 C20 1.836 . S
C790 C292 1.836 . S
C795 C54 1.836 . S
C800 C326 1.836 . S
C805 C88 1.836 . S
C810 C360 1.836 . S
C815 C394 1.835 . S
C820 C122 1.835 . S
C825 C428 1.835 . S
C830 C156 1.835 . S
C835 C190 1.837 . S
C840 C462 1.837 . S
C845 C224 1.836 . S
C850 C496 1.836 . S
C855 C530 1.836 . S
C860 C258 1.836 . S
C865 C172 1.630 . S
C870 C2 1.630 . S
C875 C206 1.630 . S
C880 C36 1.630 . S
C885 C70 1.630 . S
C890 C240 1.631 . S
C895 C138 1.630 . S
C900 C104 1.630 . S
C905 C274 1.630 . S
C910 C444 1.630 . S
C915 C478 1.630 . S
C920 C308 1.630 . S
C925 C512 1.630 . S
C930 C342 1.630 . S
C935 C376 1.630 . S
C940 C410 1.630 . S
