# Generated by pormake.
# Topology acs, (6)-cn, num edge types: 1
# Building blocks:
#     Node 0, Type 0, BuildingBlock: IZENUY_clean_sbu_0, # of connection points: 6
#     Node 1, Type 0, BuildingBlock: IZENUY_clean_sbu_0, # of connection points: 6
#     Edge 2, Type (0, 0), BuildingBlock: MIFKUJ_clean_linker_0, # of connection points: 2
#     Edge 3, Type (0, 0), BuildingBlock: MIFKUJ_clean_linker_0, # of connection points: 2
#     Edge 4, Type (0, 0), BuildingBlock: MIFKUJ_clean_linker_0, # of connection points: 2
#     Edge 5, Type (0, 0), BuildingBlock: MIFKUJ_clean_linker_0, # of connection points: 2
#     Edge 6, Type (0, 0), BuildingBlock: MIFKUJ_clean_linker_0, # of connection points: 2
#     Edge 7, Type (0, 0), BuildingBlock: MIFKUJ_clean_linker_0, # of connection points: 2
# Relax obj value: 0.000
# Max RMSD: 0.012
# Mean RMSD: 0.012
data_MOF--net-acs--node1-IZENUY_clean_sbu_0--edge1-MIFKUJ_clean_linker_0
_symmetry_space_group_name_H-M    P1
_symmetry_Int_Tables_number       1
_symmetry_cell_setting            triclinic
loop_
_symmetry_equiv_pos_as_xyz
'x, y, z'
_cell_length_a     27.671686
_cell_length_b     27.703601
_cell_length_c     25.15057
_cell_angle_alpha  90.131344
_cell_angle_beta   89.902483
_cell_angle_gamma 119.90914
loop_
_atom_site_label
_atom_site_type_symbol
_atom_site_fract_x
_atom_site_fract_y
_atom_site_fract_z
_atom_type_partial_charge
Fe0 Fe 0.61426 0.31021 0.25493 0.0
Fe1 Fe 0.72504 0.30963 0.25444 0.0
O2 O 0.68821 0.34684 0.25465 0.0
Fe3 Fe 0.72549 0.42071 0.25457 0.0
O4 O 0.69388 0.42388 0.31689 0.0
O5 O 0.60788 0.36201 0.29497 0.0
O6 O 0.61149 0.275 0.31679 0.0
C7 C 0.6344 0.24591 0.32386 0.0
C8 C 0.63446 0.39461 0.18589 0.0
O9 O 0.67306 0.25091 0.29345 0.0
C10 C 0.78914 0.40011 0.18506 0.0
O11 O 0.60726 0.25169 0.21513 0.0
O12 O 0.69287 0.27498 0.19217 0.0
O13 O 0.6736 0.42799 0.21589 0.0
O14 O 0.61134 0.34267 0.19303 0.0
C15 C 0.78867 0.39346 0.32422 0.0
O16 O 0.78397 0.36147 0.21542 0.0
O17 O 0.75992 0.42295 0.19213 0.0
C18 C 0.64085 0.24629 0.18486 0.0
O19 O 0.75977 0.34156 0.31675 0.0
O20 O 0.7842 0.42714 0.29353 0.0
C21 C 0.64203 0.40057 0.32511 0.0
Fe22 Fe 0.42883 0.71709 0.75328 0.0
Fe23 Fe 0.31805 0.71767 0.75377 0.0
O24 O 0.35488 0.68046 0.75356 0.0
Fe25 Fe 0.3176 0.60659 0.75364 0.0
O26 O 0.36949 0.59931 0.79233 0.0
O27 O 0.43175 0.68464 0.81518 0.0
O28 O 0.43583 0.77561 0.79308 0.0
C29 C 0.40224 0.78101 0.82334 0.0
C30 C 0.40106 0.62673 0.6831 0.0
O31 O 0.35022 0.75232 0.81604 0.0
C32 C 0.25442 0.63384 0.68399 0.0
O33 O 0.4316 0.7523 0.69142 0.0
O34 O 0.37003 0.77639 0.71476 0.0
O35 O 0.34921 0.60341 0.69132 0.0
O36 O 0.43521 0.66529 0.71324 0.0
C37 C 0.25395 0.62719 0.82315 0.0
O38 O 0.28333 0.68574 0.69146 0.0
O39 O 0.25889 0.60016 0.71468 0.0
C40 C 0.40869 0.78139 0.68435 0.0
O41 O 0.25912 0.66583 0.79278 0.0
O42 O 0.28317 0.60435 0.81608 0.0
C43 C 0.40863 0.63269 0.82232 0.0
H44 H 0.51181 0.85377 0.84386 0.0
H45 H 0.55107 0.93184 0.90543 0.0
H46 H 0.38566 0.89007 0.95592 0.0
H47 H 0.34552 0.81186 0.89306 0.0
H48 H 0.4495 1.00007 0.9378 0.0
H49 H 0.47011 0.86289 0.03506 0.0
H50 H 0.49822 0.79215 0.04835 0.0
H51 H 0.66934 0.91545 0.02091 0.0
H52 H 0.64217 0.98679 0.00667 0.0
H53 H 0.53127 0.17354 0.16435 0.0
H54 H 0.49202 0.09546 0.10278 0.0
H55 H 0.65743 0.13723 0.05229 0.0
H56 H 0.69757 0.21544 0.11515 0.0
H57 H 0.59358 0.02723 0.07041 0.0
H58 H 0.57297 0.16441 0.97315 0.0
H59 H 0.54488 0.23515 0.95986 0.0
H60 H 0.37375 0.11186 0.98729 0.0
H61 H 0.40091 0.04051 1.00154 0.0
C62 C 0.48352 0.86074 0.86817 0.0
C63 C 0.42536 0.82637 0.86344 0.0
C64 C 0.50619 0.90542 0.90361 0.0
C65 C 0.47139 0.91647 0.93577 0.0
C66 C 0.4133 0.88219 0.93151 0.0
C67 C 0.39043 0.83741 0.89574 0.0
C68 C 0.49602 0.96483 0.97263 0.0
C69 C 0.48034 1.00558 0.96739 0.0
C70 C 0.53748 0.97281 0.01018 0.0
C71 C 0.55402 0.9301 0.01936 0.0
C72 C 0.5137 0.87485 0.03151 0.0
C73 C 0.52946 0.83465 0.03926 0.0
C74 C 0.58551 0.84927 0.03536 0.0
C75 C 0.62593 0.90417 0.02387 0.0
C76 C 0.61038 0.94452 0.01602 0.0
C77 C 0.55957 0.16656 0.14004 0.0
C78 C 0.61773 0.20093 0.14477 0.0
C79 C 0.5369 0.12188 0.1046 0.0
C80 C 0.57169 0.11083 0.07244 0.0
C81 C 0.62979 0.1451 0.0767 0.0
C82 C 0.65266 0.18989 0.11247 0.0
C83 C 0.54707 0.06247 0.03557 0.0
C84 C 0.56274 0.02172 0.04082 0.0
C85 C 0.50561 0.05449 0.99803 0.0
C86 C 0.48906 0.0972 0.98885 0.0
C87 C 0.52939 0.15245 0.9767 0.0
C88 C 0.51363 0.19265 0.96895 0.0
C89 C 0.45758 0.17804 0.97284 0.0
C90 C 0.41716 0.12313 0.98433 0.0
C91 C 0.43271 0.08278 0.99219 0.0
H92 H 0.44547 0.20923 0.96687 0.0
H93 H 0.59763 0.81807 0.04133 0.0
H94 H 0.34768 0.52497 0.63332 0.0
H95 H 0.38876 0.48664 0.57168 0.0
H96 H 0.5456 0.64062 0.57843 0.0
H97 H 0.50516 0.6791 0.64005 0.0
H98 H 0.51681 0.59689 0.47548 0.0
H99 H 0.53201 0.53852 0.65138 0.0
H100 H 0.49653 0.49558 0.73903 0.0
H101 H 0.38774 0.33881 0.66385 0.0
H102 H 0.42198 0.38111 0.57562 0.0
H103 H 0.69541 0.50233 0.37489 0.0
H104 H 0.65433 0.54066 0.43653 0.0
H105 H 0.49749 0.38668 0.42978 0.0
H106 H 0.53793 0.3482 0.36816 0.0
H107 H 0.52628 0.43041 0.53273 0.0
H108 H 0.51107 0.48878 0.35684 0.0
H109 H 0.54655 0.53172 0.26918 0.0
H110 H 0.65535 0.68848 0.34435 0.0
H111 H 0.62111 0.64619 0.43258 0.0
C112 C 0.3907 0.55086 0.62118 0.0
C113 C 0.42333 0.60487 0.6419 0.0
C114 C 0.41414 0.52886 0.58617 0.0
C115 C 0.47035 0.56068 0.57101 0.0
C116 C 0.50221 0.6154 0.58976 0.0
C117 C 0.47906 0.63717 0.62515 0.0
C118 C 0.49679 0.53627 0.53747 0.0
C119 C 0.51943 0.56087 0.4882 0.0
C120 C 0.49944 0.48882 0.55388 0.0
C121 C 0.47911 0.46313 0.60687 0.0
C122 C 0.50018 0.49501 0.65351 0.0
C123 C 0.48035 0.47077 0.7033 0.0
C124 C 0.43979 0.41454 0.707 0.0
C125 C 0.41909 0.38239 0.66091 0.0
C126 C 0.43872 0.40647 0.611 0.0
C127 C 0.65239 0.47644 0.38703 0.0
C128 C 0.61976 0.42243 0.36631 0.0
C129 C 0.62895 0.49844 0.42204 0.0
C130 C 0.57275 0.46662 0.43721 0.0
C131 C 0.54088 0.4119 0.41845 0.0
C132 C 0.56403 0.39013 0.38307 0.0
C133 C 0.54631 0.49103 0.47075 0.0
C134 C 0.52366 0.46643 0.52002 0.0
C135 C 0.54365 0.53848 0.45434 0.0
C136 C 0.56398 0.56417 0.40134 0.0
C137 C 0.54291 0.53229 0.35471 0.0
C138 C 0.56273 0.55652 0.30491 0.0
C139 C 0.6033 0.61276 0.30121 0.0
C140 C 0.62399 0.6449 0.3473 0.0
C141 C 0.60437 0.62083 0.39721 0.0
H142 H 0.6186 0.63146 0.26262 0.0
H143 H 0.42448 0.39584 0.74558 0.0
H144 H 0.86841 0.37024 0.1709 0.0
H145 H 0.94699 0.40996 0.1097 0.0
H146 H 0.89384 0.52121 0.04836 0.0
H147 H 0.81438 0.48154 0.10997 0.0
H148 H 0.92511 0.47132 0.96892 0.0
H149 H 0.99938 0.57138 0.1312 0.0
H150 H 1.01919 0.58328 0.22735 0.0
H151 H 0.10982 0.49528 0.21433 0.0
H152 H 0.08983 0.48208 0.11814 0.0
H153 H 0.17467 0.65706 0.8373 0.0
H154 H 0.0961 0.61735 0.8985 0.0
H155 H 0.14925 0.50609 0.95985 0.0
H156 H 0.22871 0.54576 0.89825 0.0
H157 H 0.11798 0.55598 0.03928 0.0
H158 H 0.04371 0.45592 0.87702 0.0
H159 H 0.0239 0.44402 0.78086 0.0
H160 H 0.93327 0.53201 0.79387 0.0
H161 H 0.95326 0.54522 0.89006 0.0
C162 C 0.87305 0.40303 0.14436 0.0
C163 C 0.83511 0.42292 0.14561 0.0
C164 C 0.91826 0.42583 0.10952 0.0
C165 C 0.92663 0.46898 0.07503 0.0
C166 C 0.88816 0.48805 0.07492 0.0
C167 C 0.8429 0.46543 0.11017 0.0
C168 C 0.97588 0.49403 0.0394 0.0
C169 C 0.96733 0.49063 0.98426 0.0
C170 C 0.03084 0.5178 0.05956 0.0
C171 C 0.04268 0.52533 0.11749 0.0
C172 C 0.0231 0.55411 0.14889 0.0
C173 C 0.03448 0.56121 0.20338 0.0
C174 C 0.0658 0.54012 0.2269 0.0
C175 C 0.08568 0.51172 0.19601 0.0
C176 C 0.07434 0.50442 0.14149 0.0
C177 C 0.17004 0.62427 0.86384 0.0
C178 C 0.20798 0.60439 0.8626 0.0
C179 C 0.12483 0.60147 0.89869 0.0
C180 C 0.11645 0.55833 0.93318 0.0
C181 C 0.15492 0.53925 0.93329 0.0
C182 C 0.20019 0.56187 0.89804 0.0
C183 C 0.06721 0.53327 0.96881 0.0
C184 C 0.07576 0.53667 0.02395 0.0
C185 C 1.01225 0.5095 0.94865 0.0
C186 C 1.00041 0.50197 0.89072 0.0
C187 C 1.01999 0.47319 0.85932 0.0
C188 C 1.00861 0.46609 0.80483 0.0
C189 C 0.97728 0.48718 0.78131 0.0
C190 C 0.95741 0.51558 0.8122 0.0
C191 C 0.96875 0.52289 0.86671 0.0
H192 H 0.96841 0.48151 0.73914 0.0
H193 H 0.07468 0.54578 0.26907 0.0
H194 H 0.36769 0.84969 0.65888 0.0
H195 H 0.40636 0.92762 0.59725 0.0
H196 H 0.53835 0.89414 0.55665 0.0
H197 H 0.50023 0.81598 0.61931 0.0
H198 H 0.57792 1.00415 0.5756 0.0
H199 H 0.43212 0.86177 0.47063 0.0
H200 H 0.33633 0.78683 0.45152 0.0
H201 H 0.27631 0.90202 0.4701 0.0
H202 H 0.37166 0.97752 0.49012 0.0
H203 H 0.6754 0.17761 0.34933 0.0
H204 H 0.63673 0.09968 0.41096 0.0
H205 H 0.50474 0.13315 0.45156 0.0
H206 H 0.54286 0.21132 0.3889 0.0
H207 H 0.46518 0.02315 0.43261 0.0
H208 H 0.61097 0.16553 0.53757 0.0
H209 H 0.70676 0.24047 0.5567 0.0
H210 H 0.76679 0.12529 0.53811 0.0
H211 H 0.67143 0.04978 0.51809 0.0
C212 C 0.40481 0.85851 0.63674 0.0
C213 C 0.4309 0.8265 0.64417 0.0
C214 C 0.42673 0.90306 0.60127 0.0
C215 C 0.47494 0.91643 0.57197 0.0
C216 C 0.50102 0.88445 0.57887 0.0
C217 C 0.47907 0.83968 0.6145 0.0
C218 C 0.49869 0.96483 0.53536 0.0
C219 C 0.55359 1.00792 0.54377 0.0
C220 C 0.46635 0.97044 0.49485 0.0
C221 C 0.409 0.92521 0.48235 0.0
C222 C 0.39844 0.87104 0.47103 0.0
C223 C 0.34423 0.82847 0.45997 0.0
C224 C 0.30024 0.83962 0.45972 0.0
C225 C 0.31041 0.89343 0.47037 0.0
C226 C 0.36455 0.93614 0.48152 0.0
C227 C 0.63828 0.16879 0.37147 0.0
C228 C 0.61219 0.2008 0.36404 0.0
C229 C 0.61637 0.12424 0.40694 0.0
C230 C 0.56815 0.11087 0.43624 0.0
C231 C 0.54207 0.14285 0.42934 0.0
C232 C 0.56402 0.18762 0.39371 0.0
C233 C 0.5444 0.06246 0.47285 0.0
C234 C 0.4895 0.01938 0.46443 0.0
C235 C 0.57674 0.05686 0.51336 0.0
C236 C 0.63409 0.10209 0.52586 0.0
C237 C 0.64465 0.15625 0.53718 0.0
C238 C 0.69886 0.19883 0.54824 0.0
C239 C 0.74285 0.18768 0.54849 0.0
C240 C 0.73268 0.13388 0.53784 0.0
C241 C 0.67854 0.09116 0.52669 0.0
H242 H 0.7848 0.2207 0.55704 0.0
H243 H 0.25829 0.8066 0.45117 0.0
H244 H 0.49167 0.68875 0.89626 0.0
H245 H 0.52977 0.64859 0.95886 0.0
H246 H 0.41505 0.48411 0.89973 0.0
H247 H 0.37612 0.52338 0.83833 0.0
H248 H 0.42047 0.48221 0.00446 0.0
H249 H 0.5531 0.55495 0.86061 0.0
H250 H 0.61808 0.62769 0.79905 0.0
H251 H 0.71618 0.72602 0.93115 0.0
H252 H 0.65135 0.65412 0.99355 0.0
H253 H 0.55142 0.33855 0.11196 0.0
H254 H 0.51332 0.37871 0.04935 0.0
H255 H 0.62804 0.54319 0.10848 0.0
H256 H 0.66697 0.50392 0.16988 0.0
H257 H 0.62262 0.5451 1.00375 0.0
H258 H 0.48999 0.47236 0.14761 0.0
H259 H 0.42501 0.39962 0.20917 0.0
H260 H 0.3269 0.30129 0.07707 0.0
H261 H 0.39174 0.37319 0.01467 0.0
C262 C 0.47444 0.64403 0.89678 0.0
C263 C 0.43102 0.60941 0.86203 0.0
C264 C 0.49639 0.62114 0.93242 0.0
C265 C 0.47571 0.56333 0.93352 0.0
C266 C 0.43168 0.52876 0.89966 0.0
C267 C 0.40957 0.55145 0.86439 0.0
C268 C 0.50012 0.53846 0.96928 0.0
C269 C 0.46459 0.49557 1.00389 0.0
C270 C 0.55781 0.55642 0.96922 0.0
C271 C 0.59711 0.59941 0.93174 0.0
C272 C 0.58834 0.59225 0.87653 0.0
C273 C 0.62517 0.6333 0.84149 0.0
C274 C 0.67116 0.68151 0.86118 0.0
C275 C 0.68051 0.68868 0.91596 0.0
C276 C 0.64378 0.64778 0.95117 0.0
C277 C 0.56865 0.38327 0.11143 0.0
C278 C 0.61207 0.4179 0.14618 0.0
C279 C 0.5467 0.40617 0.07579 0.0
C280 C 0.56737 0.46397 0.07469 0.0
C281 C 0.61141 0.49854 0.10855 0.0
C282 C 0.63352 0.47585 0.14382 0.0
C283 C 0.54297 0.48884 0.03893 0.0
C284 C 0.5785 0.53173 1.00433 0.0
C285 C 0.48528 0.47088 0.03899 0.0
C286 C 0.44598 0.4279 0.07647 0.0
C287 C 0.45475 0.43506 0.13168 0.0
C288 C 0.41792 0.39401 0.16673 0.0
C289 C 0.37193 0.3458 0.14704 0.0
C290 C 0.36257 0.33862 0.09226 0.0
C291 C 0.39931 0.37953 0.05704 0.0
H292 H 0.34348 0.31405 0.17422 0.0
H293 H 0.69961 0.71327 0.834 0.0
H294 H 0.21835 0.69029 0.62023 0.0
H295 H 0.13976 0.64982 0.55793 0.0
H296 H 0.111 0.48538 0.59394 0.0
H297 H 0.18938 0.52514 0.65532 0.0
H298 H 0.10062 0.49691 0.48906 0.0
H299 H 0.03599 0.53592 0.6525 0.0
H300 H 0.03793 0.59601 0.72592 0.0
H301 H 1.00945 0.69705 0.61544 0.0
H302 H 1.00911 0.63868 0.54106 0.0
H303 H 0.82474 0.33701 0.38797 0.0
H304 H 0.90333 0.37748 0.45028 0.0
H305 H 0.93209 0.54191 0.41427 0.0
H306 H 0.85371 0.50216 0.35289 0.0
H307 H 0.94247 0.53039 0.51915 0.0
H308 H 1.0071 0.49137 0.35571 0.0
H309 H 1.00516 0.43129 0.28229 0.0
H310 H 0.03365 0.33025 0.39277 0.0
H311 H 0.03398 0.38862 0.46715 0.0
C312 C 0.19558 0.64558 0.61452 0.0
C313 C 0.20985 0.61096 0.64321 0.0
C314 C 0.15059 0.6225 0.57906 0.0
C315 C 0.1191 0.5645 0.57186 0.0
C316 C 0.1346 0.53019 0.59895 0.0
C317 C 0.17936 0.55309 0.63428 0.0
C318 C 0.06876 0.53896 0.53762 0.0
C319 C 0.0658 0.50379 0.49593 0.0
C320 C 0.02367 0.54856 0.54623 0.0
C321 C 0.02312 0.58323 0.59109 0.0
C322 C 0.03061 0.57122 0.64376 0.0
C323 C 0.03136 0.60493 0.68558 0.0
C324 C 0.02372 0.65022 0.67537 0.0
C325 C 1.01539 0.66196 0.62329 0.0
C326 C 1.01503 0.62865 0.58127 0.0
C327 C 0.84751 0.38172 0.39369 0.0
C328 C 0.83324 0.41634 0.365 0.0
C329 C 0.8925 0.40479 0.42915 0.0
C330 C 0.92399 0.4628 0.43635 0.0
C331 C 0.90849 0.49711 0.40926 0.0
C332 C 0.86373 0.4742 0.37393 0.0
C333 C 0.97433 0.48833 0.47059 0.0
C334 C 0.97729 0.52351 0.51228 0.0
C335 C 1.01942 0.47873 0.46198 0.0
C336 C 1.01997 0.44406 0.41712 0.0
C337 C 1.01248 0.45608 0.36445 0.0
C338 C 1.01173 0.42237 0.32263 0.0
C339 C 1.01937 0.37708 0.33284 0.0
C340 C 0.0277 0.36534 0.38492 0.0
C341 C 0.02806 0.39865 0.42694 0.0
H342 H 1.01886 0.3511 0.30039 0.0
H343 H 0.02423 0.6762 0.70781 0.0
loop_
_geom_bond_atom_site_label_1
_geom_bond_atom_site_label_2
_geom_bond_distance
_geom_bond_site_symmetry_2
_ccdc_geom_bond_type
Fe0 O2 1.918 . S
Fe0 O5 1.997 . S
Fe0 O6 2.002 . S
Fe0 O11 1.976 . S
Fe0 O14 1.996 . S
Fe1 O2 1.918 . S
Fe1 O9 1.997 . S
Fe1 O12 1.996 . S
Fe1 O16 1.976 . S
Fe1 O19 2.002 . S
O2 Fe0 1.918 . S
O2 Fe1 1.918 . S
O2 Fe3 1.918 . S
Fe3 O2 1.918 . S
Fe3 O4 2.002 . S
Fe3 O13 1.976 . S
Fe3 O17 1.996 . S
Fe3 O20 1.997 . S
O4 Fe3 2.002 . S
O4 C21 1.295 . S
O5 Fe0 1.997 . S
O5 C21 1.235 . S
O6 Fe0 2.002 . S
O6 C7 1.295 . S
C7 O6 1.295 . S
C7 O9 1.235 . S
C8 O13 1.287 . S
C8 O14 1.255 . S
O9 Fe1 1.997 . S
O9 C7 1.235 . S
C10 O16 1.287 . S
C10 O17 1.255 . S
O11 Fe0 1.976 . S
O11 C18 1.287 . S
O12 Fe1 1.996 . S
O12 C18 1.255 . S
O13 Fe3 1.976 . S
O13 C8 1.287 . S
O14 Fe0 1.996 . S
O14 C8 1.255 . S
C15 O19 1.295 . S
C15 O20 1.235 . S
O16 Fe1 1.976 . S
O16 C10 1.287 . S
O17 Fe3 1.996 . S
O17 C10 1.255 . S
C18 O11 1.287 . S
C18 O12 1.255 . S
O19 Fe1 2.002 . S
O19 C15 1.295 . S
O20 Fe3 1.997 . S
O20 C15 1.235 . S
C21 O4 1.295 . S
C21 O5 1.235 . S
Fe22 O24 1.918 . S
Fe22 O27 1.997 . S
Fe22 O28 2.002 . S
Fe22 O33 1.976 . S
Fe22 O36 1.996 . S
Fe23 O24 1.918 . S
Fe23 O31 1.997 . S
Fe23 O34 1.996 . S
Fe23 O38 1.976 . S
Fe23 O41 2.002 . S
O24 Fe22 1.918 . S
O24 Fe23 1.918 . S
O24 Fe25 1.918 . S
Fe25 O24 1.918 . S
Fe25 O26 2.002 . S
Fe25 O35 1.976 . S
Fe25 O39 1.996 . S
Fe25 O42 1.997 . S
O26 Fe25 2.002 . S
O26 C43 1.295 . S
O27 Fe22 1.997 . S
O27 C43 1.235 . S
O28 Fe22 2.002 . S
O28 C29 1.295 . S
C29 O28 1.295 . S
C29 O31 1.235 . S
C30 O35 1.287 . S
C30 O36 1.255 . S
O31 Fe23 1.997 . S
O31 C29 1.235 . S
C32 O38 1.287 . S
C32 O39 1.255 . S
O33 Fe22 1.976 . S
O33 C40 1.287 . S
O34 Fe23 1.996 . S
O34 C40 1.255 . S
O35 Fe25 1.976 . S
O35 C30 1.287 . S
O36 Fe22 1.996 . S
O36 C30 1.255 . S
C37 O41 1.295 . S
C37 O42 1.235 . S
O38 Fe23 1.976 . S
O38 C32 1.287 . S
O39 Fe25 1.996 . S
O39 C32 1.255 . S
C40 O33 1.287 . S
C40 O34 1.255 . S
O41 Fe23 2.002 . S
O41 C37 1.295 . S
O42 Fe25 1.997 . S
O42 C37 1.235 . S
C43 O26 1.295 . S
C43 O27 1.235 . S
H44 C62 0.951 . S
H45 C64 0.951 . S
H46 C66 0.950 . S
H47 C67 0.950 . S
H48 C69 0.950 . S
H49 C72 0.950 . S
H50 C73 0.950 . S
H51 C75 0.950 . S
H52 C76 0.950 . S
H53 C77 0.951 . S
H54 C79 0.951 . S
H55 C81 0.950 . S
H56 C82 0.950 . S
H57 C84 0.950 . S
H58 C87 0.950 . S
H59 C88 0.950 . S
H60 C90 0.950 . S
H61 C91 0.950 . S
C62 H44 0.951 . S
C62 C63 1.366 . S
C62 C64 1.388 . S
C63 C62 1.366 . S
C63 C67 1.385 . S
C64 H45 0.951 . S
C64 C62 1.388 . S
C64 C65 1.366 . S
C65 C64 1.366 . S
C65 C66 1.414 . S
C65 C68 1.499 . S
C66 H46 0.950 . S
C66 C65 1.414 . S
C66 C67 1.374 . S
C67 H47 0.950 . S
C67 C63 1.385 . S
C67 C66 1.374 . S
C68 C65 1.499 . S
C68 C69 1.373 1_556 S
C68 C70 1.389 . S
C69 H48 0.950 . S
C69 C68 1.373 1_554 S
C69 C85 1.377 1_565 S
C70 C68 1.389 . S
C70 C71 1.524 . S
C70 C84 1.377 1_565 S
C71 C70 1.524 . S
C71 C72 1.397 . S
C71 C76 1.363 1_565 S
C72 H49 0.950 . S
C72 C71 1.397 . S
C72 C73 1.334 . S
C73 H50 0.950 . S
C73 C72 1.334 . S
C73 C74 1.287 . S
C74 C73 1.287 . S
C74 C75 1.524 1_565 S
C74 H93 0.913 . S
C75 H51 0.950 . S
C75 C74 1.524 1_545 S
C75 C76 1.415 . S
C76 H52 0.950 . S
C76 C71 1.363 1_545 S
C76 C75 1.415 . S
C77 H53 0.951 . S
C77 C78 1.366 . S
C77 C79 1.388 . S
C78 C77 1.366 . S
C78 C82 1.385 . S
C79 H54 0.951 . S
C79 C77 1.388 . S
C79 C80 1.366 . S
C80 C79 1.366 . S
C80 C81 1.414 . S
C80 C83 1.499 . S
C81 H55 0.950 . S
C81 C80 1.414 . S
C81 C82 1.374 . S
C82 H56 0.950 . S
C82 C78 1.385 . S
C82 C81 1.374 . S
C83 C80 1.499 . S
C83 C84 1.373 1_554 S
C83 C85 1.389 . S
C84 H57 0.950 . S
C84 C70 1.377 1_545 S
C84 C83 1.373 1_556 S
C85 C69 1.377 1_545 S
C85 C83 1.389 . S
C85 C86 1.524 . S
C86 C85 1.524 . S
C86 C87 1.397 . S
C86 C91 1.363 1_545 S
C87 H58 0.950 . S
C87 C86 1.397 . S
C87 C88 1.334 . S
C88 H59 0.950 . S
C88 C87 1.334 . S
C88 C89 1.287 . S
C89 C88 1.287 . S
C89 C90 1.524 1_545 S
C89 H92 0.999 . S
C90 H60 0.950 . S
C90 C89 1.524 1_565 S
C90 C91 1.415 . S
C91 H61 0.950 . S
C91 C86 1.363 1_565 S
C91 C90 1.415 . S
H92 C89 0.999 . S
H93 C74 0.913 . S
H94 C112 0.951 . S
H95 C114 0.951 . S
H96 C116 0.950 . S
H97 C117 0.950 . S
H98 C119 0.950 . S
H99 C122 0.950 . S
H100 C123 0.950 . S
H101 C125 0.950 . S
H102 C126 0.950 . S
H103 C127 0.951 . S
H104 C129 0.951 . S
H105 C131 0.950 . S
H106 C132 0.950 . S
H107 C134 0.950 . S
H108 C137 0.950 . S
H109 C138 0.950 . S
H110 C140 0.950 . S
H111 C141 0.950 . S
C112 H94 0.951 . S
C112 C113 1.366 . S
C112 C114 1.388 . S
C113 C112 1.366 . S
C113 C117 1.385 . S
C114 H95 0.951 . S
C114 C112 1.388 . S
C114 C115 1.366 . S
C115 C114 1.366 . S
C115 C116 1.414 . S
C115 C118 1.499 . S
C116 H96 0.950 . S
C116 C115 1.414 . S
C116 C117 1.374 . S
C117 H97 0.950 . S
C117 C113 1.385 . S
C117 C116 1.374 . S
C118 C115 1.499 . S
C118 C119 1.373 . S
C118 C120 1.389 . S
C119 H98 0.950 . S
C119 C118 1.373 . S
C119 C135 1.377 . S
C120 C118 1.389 . S
C120 C121 1.524 . S
C120 C134 1.377 . S
C121 C120 1.524 . S
C121 C122 1.397 . S
C121 C126 1.363 . S
C122 H99 0.950 . S
C122 C121 1.397 . S
C122 C123 1.334 . S
C123 H100 0.950 . S
C123 C122 1.334 . S
C123 C124 1.287 . S
C124 C123 1.287 . S
C124 C125 1.524 . S
C124 H143 0.913 . S
C125 H101 0.950 . S
C125 C124 1.524 . S
C125 C126 1.415 . S
C126 H102 0.950 . S
C126 C121 1.363 . S
C126 C125 1.415 . S
C127 H103 0.951 . S
C127 C128 1.366 . S
C127 C129 1.388 . S
C128 C127 1.366 . S
C128 C132 1.385 . S
C129 H104 0.951 . S
C129 C127 1.388 . S
C129 C130 1.366 . S
C130 C129 1.366 . S
C130 C131 1.414 . S
C130 C133 1.499 . S
C131 H105 0.950 . S
C131 C130 1.414 . S
C131 C132 1.374 . S
C132 H106 0.950 . S
C132 C128 1.385 . S
C132 C131 1.374 . S
C133 C130 1.499 . S
C133 C134 1.373 . S
C133 C135 1.389 . S
C134 H107 0.950 . S
C134 C120 1.377 . S
C134 C133 1.373 . S
C135 C119 1.377 . S
C135 C133 1.389 . S
C135 C136 1.524 . S
C136 C135 1.524 . S
C136 C137 1.397 . S
C136 C141 1.363 . S
C137 H108 0.950 . S
C137 C136 1.397 . S
C137 C138 1.334 . S
C138 H109 0.950 . S
C138 C137 1.334 . S
C138 C139 1.287 . S
C139 C138 1.287 . S
C139 C140 1.524 . S
C139 H142 0.999 . S
C140 H110 0.950 . S
C140 C139 1.524 . S
C140 C141 1.415 . S
C141 H111 0.950 . S
C141 C136 1.363 . S
C141 C140 1.415 . S
H142 C139 0.999 . S
H143 C124 0.913 . S
H144 C162 0.951 . S
H145 C164 0.951 . S
H146 C166 0.950 . S
H147 C167 0.950 . S
H148 C169 0.950 . S
H149 C172 0.950 . S
H150 C173 0.950 . S
H151 C175 0.950 . S
H152 C176 0.950 . S
H153 C177 0.951 . S
H154 C179 0.951 . S
H155 C181 0.950 . S
H156 C182 0.950 . S
H157 C184 0.950 . S
H158 C187 0.950 . S
H159 C188 0.950 . S
H160 C190 0.950 . S
H161 C191 0.950 . S
C162 H144 0.951 . S
C162 C163 1.366 . S
C162 C164 1.388 . S
C163 C162 1.366 . S
C163 C167 1.385 . S
C164 H145 0.951 . S
C164 C162 1.388 . S
C164 C165 1.366 . S
C165 C164 1.366 . S
C165 C166 1.414 . S
C165 C168 1.499 . S
C166 H146 0.950 . S
C166 C165 1.414 . S
C166 C167 1.374 . S
C167 H147 0.950 . S
C167 C163 1.385 . S
C167 C166 1.374 . S
C168 C165 1.499 . S
C168 C169 1.373 1_554 S
C168 C170 1.389 1_655 S
C169 H148 0.950 . S
C169 C168 1.373 1_556 S
C169 C185 1.367 1_655 S
C170 C168 1.389 1_455 S
C170 C171 1.524 . S
C170 C184 1.377 . S
C171 C170 1.524 . S
C171 C172 1.397 1_455 S
C171 C176 1.363 . S
C172 H149 0.950 . S
C172 C171 1.397 1_655 S
C172 C173 1.334 . S
C173 H150 0.950 . S
C173 C172 1.334 . S
C173 C174 1.287 1_655 S
C174 C173 1.287 1_455 S
C174 C175 1.524 . S
C174 H193 0.913 . S
C175 H151 0.950 . S
C175 C174 1.524 . S
C175 C176 1.415 . S
C176 H152 0.950 . S
C176 C171 1.363 . S
C176 C175 1.415 . S
C177 H153 0.951 . S
C177 C178 1.366 . S
C177 C179 1.388 . S
C178 C177 1.366 . S
C178 C182 1.385 . S
C179 H154 0.951 . S
C179 C177 1.388 . S
C179 C180 1.366 . S
C180 C179 1.366 . S
C180 C181 1.414 . S
C180 C183 1.499 . S
C181 H155 0.950 . S
C181 C180 1.414 . S
C181 C182 1.374 . S
C182 H156 0.950 . S
C182 C178 1.385 . S
C182 C181 1.374 . S
C183 C180 1.499 . S
C183 C184 1.373 1_556 S
C183 C185 1.396 . S
C184 H157 0.950 . S
C184 C170 1.377 . S
C184 C183 1.373 1_554 S
C185 C169 1.367 1_455 S
C185 C183 1.396 . S
C185 C186 1.528 1_455 S
C186 C185 1.528 1_655 S
C186 C187 1.397 1_655 S
C186 C191 1.363 . S
C187 H158 0.950 . S
C187 C186 1.397 1_455 S
C187 C188 1.334 . S
C188 H159 0.950 . S
C188 C187 1.334 . S
C188 C189 1.287 1_455 S
C189 C188 1.287 1_655 S
C189 C190 1.524 . S
C189 H192 0.999 . S
C190 H160 0.950 . S
C190 C189 1.524 . S
C190 C191 1.415 . S
C191 H161 0.950 . S
C191 C186 1.363 . S
C191 C190 1.415 . S
H192 C189 0.999 . S
H193 C174 0.913 . S
H194 C212 0.951 . S
H195 C214 0.951 . S
H196 C216 0.950 . S
H197 C217 0.950 . S
H198 C219 0.950 . S
H199 C222 0.950 . S
H200 C223 0.950 . S
H201 C225 0.950 . S
H202 C226 0.950 . S
H203 C227 0.951 . S
H204 C229 0.951 . S
H205 C231 0.950 . S
H206 C232 0.950 . S
H207 C234 0.950 . S
H208 C237 0.950 . S
H209 C238 0.950 . S
H210 C240 0.950 . S
H211 C241 0.950 . S
C212 H194 0.951 . S
C212 C213 1.366 . S
C212 C214 1.388 . S
C213 C212 1.366 . S
C213 C217 1.385 . S
C214 H195 0.951 . S
C214 C212 1.388 . S
C214 C215 1.366 . S
C215 C214 1.366 . S
C215 C216 1.414 . S
C215 C218 1.499 . S
C216 H196 0.950 . S
C216 C215 1.414 . S
C216 C217 1.374 . S
C217 H197 0.950 . S
C217 C213 1.385 . S
C217 C216 1.374 . S
C218 C215 1.499 . S
C218 C219 1.373 . S
C218 C220 1.389 . S
C219 H198 0.950 . S
C219 C218 1.373 . S
C219 C235 1.377 1_565 S
C220 C218 1.389 . S
C220 C221 1.524 . S
C220 C234 1.377 1_565 S
C221 C220 1.524 . S
C221 C222 1.397 . S
C221 C226 1.363 . S
C222 H199 0.950 . S
C222 C221 1.397 . S
C222 C223 1.334 . S
C223 H200 0.950 . S
C223 C222 1.334 . S
C223 C224 1.287 . S
C224 C223 1.287 . S
C224 C225 1.524 . S
C224 H243 0.913 . S
C225 H201 0.950 . S
C225 C224 1.524 . S
C225 C226 1.415 . S
C226 H202 0.950 . S
C226 C221 1.363 . S
C226 C225 1.415 . S
C227 H203 0.951 . S
C227 C228 1.366 . S
C227 C229 1.388 . S
C228 C227 1.366 . S
C228 C232 1.385 . S
C229 H204 0.951 . S
C229 C227 1.388 . S
C229 C230 1.366 . S
C230 C229 1.366 . S
C230 C231 1.414 . S
C230 C233 1.499 . S
C231 H205 0.950 . S
C231 C230 1.414 . S
C231 C232 1.374 . S
C232 H206 0.950 . S
C232 C228 1.385 . S
C232 C231 1.374 . S
C233 C230 1.499 . S
C233 C234 1.373 . S
C233 C235 1.389 . S
C234 H207 0.950 . S
C234 C220 1.377 1_545 S
C234 C233 1.373 . S
C235 C219 1.377 1_545 S
C235 C233 1.389 . S
C235 C236 1.524 . S
C236 C235 1.524 . S
C236 C237 1.397 . S
C236 C241 1.363 . S
C237 H208 0.950 . S
C237 C236 1.397 . S
C237 C238 1.334 . S
C238 H209 0.950 . S
C238 C237 1.334 . S
C238 C239 1.287 . S
C239 C238 1.287 . S
C239 C240 1.524 . S
C239 H242 0.999 . S
C240 H210 0.950 . S
C240 C239 1.524 . S
C240 C241 1.415 . S
C241 H211 0.950 . S
C241 C236 1.363 . S
C241 C240 1.415 . S
H242 C239 0.999 . S
H243 C224 0.913 . S
H244 C262 0.951 . S
H245 C264 0.951 . S
H246 C266 0.950 . S
H247 C267 0.950 . S
H248 C269 0.950 . S
H249 C272 0.950 . S
H250 C273 0.950 . S
H251 C275 0.950 . S
H252 C276 0.950 . S
H253 C277 0.951 . S
H254 C279 0.951 . S
H255 C281 0.950 . S
H256 C282 0.950 . S
H257 C284 0.950 . S
H258 C287 0.950 . S
H259 C288 0.950 . S
H260 C290 0.950 . S
H261 C291 0.950 . S
C262 H244 0.951 . S
C262 C263 1.366 . S
C262 C264 1.388 . S
C263 C262 1.366 . S
C263 C267 1.385 . S
C264 H245 0.951 . S
C264 C262 1.388 . S
C264 C265 1.366 . S
C265 C264 1.366 . S
C265 C266 1.414 . S
C265 C268 1.499 . S
C266 H246 0.950 . S
C266 C265 1.414 . S
C266 C267 1.374 . S
C267 H247 0.950 . S
C267 C263 1.385 . S
C267 C266 1.374 . S
C268 C265 1.499 . S
C268 C269 1.373 . S
C268 C270 1.389 1_556 S
C269 H248 0.950 . S
C269 C268 1.373 . S
C269 C285 1.377 . S
C270 C268 1.389 1_554 S
C270 C271 1.524 . S
C270 C284 1.377 . S
C271 C270 1.524 . S
C271 C272 1.397 1_554 S
C271 C276 1.363 . S
C272 H249 0.950 . S
C272 C271 1.397 1_556 S
C272 C273 1.334 . S
C273 H250 0.950 . S
C273 C272 1.334 . S
C273 C274 1.287 1_556 S
C274 C273 1.287 1_554 S
C274 C275 1.524 . S
C274 H293 0.913 . S
C275 H251 0.950 . S
C275 C274 1.524 . S
C275 C276 1.415 . S
C276 H252 0.950 . S
C276 C271 1.363 . S
C276 C275 1.415 . S
C277 H253 0.951 . S
C277 C278 1.366 . S
C277 C279 1.388 . S
C278 C277 1.366 . S
C278 C282 1.385 . S
C279 H254 0.951 . S
C279 C277 1.388 . S
C279 C280 1.366 . S
C280 C279 1.366 . S
C280 C281 1.414 . S
C280 C283 1.499 . S
C281 H255 0.950 . S
C281 C280 1.414 . S
C281 C282 1.374 . S
C282 H256 0.950 . S
C282 C278 1.385 . S
C282 C281 1.374 . S
C283 C280 1.499 . S
C283 C284 1.373 . S
C283 C285 1.389 1_554 S
C284 H257 0.950 . S
C284 C270 1.377 . S
C284 C283 1.373 . S
C285 C269 1.377 . S
C285 C283 1.389 1_556 S
C285 C286 1.524 . S
C286 C285 1.524 . S
C286 C287 1.397 1_556 S
C286 C291 1.363 . S
C287 H258 0.950 . S
C287 C286 1.397 1_554 S
C287 C288 1.334 . S
C288 H259 0.950 . S
C288 C287 1.334 . S
C288 C289 1.287 1_554 S
C289 C288 1.287 1_556 S
C289 C290 1.524 . S
C289 H292 0.999 . S
C290 H260 0.950 . S
C290 C289 1.524 . S
C290 C291 1.415 . S
C291 H261 0.950 . S
C291 C286 1.363 . S
C291 C290 1.415 . S
H292 C289 0.999 . S
H293 C274 0.913 . S
H294 C312 0.951 . S
H295 C314 0.951 . S
H296 C316 0.950 . S
H297 C317 0.950 . S
H298 C319 0.950 . S
H299 C322 0.948 1_455 S
H300 C323 0.950 . S
H301 C325 0.950 . S
H302 C326 0.950 . S
H303 C327 0.951 . S
H304 C329 0.951 . S
H305 C331 0.950 . S
H306 C332 0.950 . S
H307 C334 0.950 . S
H308 C337 0.950 . S
H309 C338 0.947 1_655 S
H310 C340 0.950 . S
H311 C341 0.950 . S
C312 H294 0.951 . S
C312 C313 1.366 . S
C312 C314 1.388 . S
C313 C312 1.366 . S
C313 C317 1.385 . S
C314 H295 0.951 . S
C314 C312 1.388 . S
C314 C315 1.366 . S
C315 C314 1.366 . S
C315 C316 1.414 . S
C315 C318 1.499 . S
C316 H296 0.950 . S
C316 C315 1.414 . S
C316 C317 1.374 . S
C317 H297 0.950 . S
C317 C313 1.385 . S
C317 C316 1.374 . S
C318 C315 1.499 . S
C318 C319 1.373 . S
C318 C320 1.389 1_455 S
C319 H298 0.950 . S
C319 C318 1.373 . S
C319 C335 1.377 1_455 S
C320 C318 1.389 1_655 S
C320 C321 1.524 . S
C320 C334 1.377 . S
C321 C320 1.524 . S
C321 C322 1.397 . S
C321 C326 1.363 . S
C322 H299 0.948 1_655 S
C322 C321 1.397 . S
C322 C323 1.334 . S
C323 H300 0.950 . S
C323 C322 1.334 . S
C323 C324 1.287 . S
C324 C323 1.287 . S
C324 C325 1.524 . S
C324 H343 0.913 . S
C325 H301 0.950 . S
C325 C324 1.524 . S
C325 C326 1.415 . S
C326 H302 0.950 . S
C326 C321 1.363 . S
C326 C325 1.415 . S
C327 H303 0.951 . S
C327 C328 1.366 . S
C327 C329 1.388 . S
C328 C327 1.366 . S
C328 C332 1.385 . S
C329 H304 0.951 . S
C329 C327 1.388 . S
C329 C330 1.366 . S
C330 C329 1.366 . S
C330 C331 1.414 . S
C330 C333 1.499 . S
C331 H305 0.950 . S
C331 C330 1.414 . S
C331 C332 1.374 . S
C332 H306 0.950 . S
C332 C328 1.385 . S
C332 C331 1.374 . S
C333 C330 1.499 . S
C333 C334 1.373 . S
C333 C335 1.389 . S
C334 H307 0.950 . S
C334 C320 1.377 . S
C334 C333 1.373 . S
C335 C319 1.377 1_655 S
C335 C333 1.389 . S
C335 C336 1.533 . S
C336 C335 1.533 . S
C336 C337 1.401 . S
C336 C341 1.349 1_655 S
C337 H308 0.950 . S
C337 C336 1.401 . S
C337 C338 1.334 1_655 S
C338 H309 0.947 1_455 S
C338 C337 1.334 1_455 S
C338 C339 1.287 . S
C339 C338 1.287 . S
C339 C340 1.524 . S
C339 H342 0.999 . S
C340 H310 0.950 . S
C340 C339 1.524 . S
C340 C341 1.415 . S
C341 H311 0.950 . S
C341 C336 1.349 1_455 S
C341 C340 1.415 . S
H342 C339 0.999 . S
H343 C324 0.913 . S
C63 C29 1.488 . S
C78 C18 1.498 . S
C113 C30 1.498 . S
C128 C21 1.488 . S
C163 C10 1.498 . S
C178 C37 1.488 . S
C213 C40 1.498 . S
C228 C7 1.488 . S
C263 C43 1.488 . S
C278 C8 1.498 . S
C313 C32 1.498 . S
C328 C15 1.488 . S
