# Generated by pormake.
# Topology svb, (7)-cn, num edge types: 1
# Building blocks:
#     Node 0, Type 0, BuildingBlock: NUHQUE_clean_sbu_2, # of connection points: 7
#     Node 1, Type 0, BuildingBlock: NUHQUE_clean_sbu_2, # of connection points: 7
#     Node 2, Type 0, BuildingBlock: NUHQUE_clean_sbu_2, # of connection points: 7
#     Node 3, Type 0, BuildingBlock: NUHQUE_clean_sbu_2, # of connection points: 7
#     Node 4, Type 0, BuildingBlock: NUHQUE_clean_sbu_2, # of connection points: 7
#     Node 5, Type 0, BuildingBlock: NUHQUE_clean_sbu_2, # of connection points: 7
#     Node 6, Type 0, BuildingBlock: NUHQUE_clean_sbu_2, # of connection points: 7
#     Node 7, Type 0, BuildingBlock: NUHQUE_clean_sbu_2, # of connection points: 7
#     Node 8, Type 0, BuildingBlock: NUHQUE_clean_sbu_2, # of connection points: 7
#     Node 9, Type 0, BuildingBlock: NUHQUE_clean_sbu_2, # of connection points: 7
#     Node 10, Type 0, BuildingBlock: NUHQUE_clean_sbu_2, # of connection points: 7
#     Node 11, Type 0, BuildingBlock: NUHQUE_clean_sbu_2, # of connection points: 7
#     Node 12, Type 0, BuildingBlock: NUHQUE_clean_sbu_2, # of connection points: 7
#     Node 13, Type 0, BuildingBlock: NUHQUE_clean_sbu_2, # of connection points: 7
#     Node 14, Type 0, BuildingBlock: NUHQUE_clean_sbu_2, # of connection points: 7
#     Node 15, Type 0, BuildingBlock: NUHQUE_clean_sbu_2, # of connection points: 7
#     Edge 16, Type (0, 0), BuildingBlock: KIFKEQ_clean_linker_1, # of connection points: 2
#     Edge 17, Type (0, 0), BuildingBlock: KIFKEQ_clean_linker_1, # of connection points: 2
#     Edge 18, Type (0, 0), BuildingBlock: KIFKEQ_clean_linker_1, # of connection points: 2
#     Edge 19, Type (0, 0), BuildingBlock: KIFKEQ_clean_linker_1, # of connection points: 2
#     Edge 20, Type (0, 0), BuildingBlock: KIFKEQ_clean_linker_1, # of connection points: 2
#     Edge 21, Type (0, 0), BuildingBlock: KIFKEQ_clean_linker_1, # of connection points: 2
#     Edge 22, Type (0, 0), BuildingBlock: KIFKEQ_clean_linker_1, # of connection points: 2
#     Edge 23, Type (0, 0), BuildingBlock: KIFKEQ_clean_linker_1, # of connection points: 2
#     Edge 24, Type (0, 0), BuildingBlock: KIFKEQ_clean_linker_1, # of connection points: 2
#     Edge 25, Type (0, 0), BuildingBlock: KIFKEQ_clean_linker_1, # of connection points: 2
#     Edge 26, Type (0, 0), BuildingBlock: KIFKEQ_clean_linker_1, # of connection points: 2
#     Edge 27, Type (0, 0), BuildingBlock: KIFKEQ_clean_linker_1, # of connection points: 2
#     Edge 28, Type (0, 0), BuildingBlock: KIFKEQ_clean_linker_1, # of connection points: 2
#     Edge 29, Type (0, 0), BuildingBlock: KIFKEQ_clean_linker_1, # of connection points: 2
#     Edge 30, Type (0, 0), BuildingBlock: KIFKEQ_clean_linker_1, # of connection points: 2
#     Edge 31, Type (0, 0), BuildingBlock: KIFKEQ_clean_linker_1, # of connection points: 2
#     Edge 32, Type (0, 0), BuildingBlock: KIFKEQ_clean_linker_1, # of connection points: 2
#     Edge 33, Type (0, 0), BuildingBlock: KIFKEQ_clean_linker_1, # of connection points: 2
#     Edge 34, Type (0, 0), BuildingBlock: KIFKEQ_clean_linker_1, # of connection points: 2
#     Edge 35, Type (0, 0), BuildingBlock: KIFKEQ_clean_linker_1, # of connection points: 2
#     Edge 36, Type (0, 0), BuildingBlock: KIFKEQ_clean_linker_1, # of connection points: 2
#     Edge 37, Type (0, 0), BuildingBlock: KIFKEQ_clean_linker_1, # of connection points: 2
#     Edge 38, Type (0, 0), BuildingBlock: KIFKEQ_clean_linker_1, # of connection points: 2
#     Edge 39, Type (0, 0), BuildingBlock: KIFKEQ_clean_linker_1, # of connection points: 2
#     Edge 40, Type (0, 0), BuildingBlock: KIFKEQ_clean_linker_1, # of connection points: 2
#     Edge 41, Type (0, 0), BuildingBlock: KIFKEQ_clean_linker_1, # of connection points: 2
#     Edge 42, Type (0, 0), BuildingBlock: KIFKEQ_clean_linker_1, # of connection points: 2
#     Edge 43, Type (0, 0), BuildingBlock: KIFKEQ_clean_linker_1, # of connection points: 2
#     Edge 44, Type (0, 0), BuildingBlock: KIFKEQ_clean_linker_1, # of connection points: 2
#     Edge 45, Type (0, 0), BuildingBlock: KIFKEQ_clean_linker_1, # of connection points: 2
#     Edge 46, Type (0, 0), BuildingBlock: KIFKEQ_clean_linker_1, # of connection points: 2
#     Edge 47, Type (0, 0), BuildingBlock: KIFKEQ_clean_linker_1, # of connection points: 2
#     Edge 48, Type (0, 0), BuildingBlock: KIFKEQ_clean_linker_1, # of connection points: 2
#     Edge 49, Type (0, 0), BuildingBlock: KIFKEQ_clean_linker_1, # of connection points: 2
#     Edge 50, Type (0, 0), BuildingBlock: KIFKEQ_clean_linker_1, # of connection points: 2
#     Edge 51, Type (0, 0), BuildingBlock: KIFKEQ_clean_linker_1, # of connection points: 2
#     Edge 52, Type (0, 0), BuildingBlock: KIFKEQ_clean_linker_1, # of connection points: 2
#     Edge 53, Type (0, 0), BuildingBlock: KIFKEQ_clean_linker_1, # of connection points: 2
#     Edge 54, Type (0, 0), BuildingBlock: KIFKEQ_clean_linker_1, # of connection points: 2
#     Edge 55, Type (0, 0), BuildingBlock: KIFKEQ_clean_linker_1, # of connection points: 2
#     Edge 56, Type (0, 0), BuildingBlock: KIFKEQ_clean_linker_1, # of connection points: 2
#     Edge 57, Type (0, 0), BuildingBlock: KIFKEQ_clean_linker_1, # of connection points: 2
#     Edge 58, Type (0, 0), BuildingBlock: KIFKEQ_clean_linker_1, # of connection points: 2
#     Edge 59, Type (0, 0), BuildingBlock: KIFKEQ_clean_linker_1, # of connection points: 2
#     Edge 60, Type (0, 0), BuildingBlock: KIFKEQ_clean_linker_1, # of connection points: 2
#     Edge 61, Type (0, 0), BuildingBlock: KIFKEQ_clean_linker_1, # of connection points: 2
#     Edge 62, Type (0, 0), BuildingBlock: KIFKEQ_clean_linker_1, # of connection points: 2
#     Edge 63, Type (0, 0), BuildingBlock: KIFKEQ_clean_linker_1, # of connection points: 2
#     Edge 64, Type (0, 0), BuildingBlock: KIFKEQ_clean_linker_1, # of connection points: 2
#     Edge 65, Type (0, 0), BuildingBlock: KIFKEQ_clean_linker_1, # of connection points: 2
#     Edge 66, Type (0, 0), BuildingBlock: KIFKEQ_clean_linker_1, # of connection points: 2
#     Edge 67, Type (0, 0), BuildingBlock: KIFKEQ_clean_linker_1, # of connection points: 2
#     Edge 68, Type (0, 0), BuildingBlock: KIFKEQ_clean_linker_1, # of connection points: 2
#     Edge 69, Type (0, 0), BuildingBlock: KIFKEQ_clean_linker_1, # of connection points: 2
#     Edge 70, Type (0, 0), BuildingBlock: KIFKEQ_clean_linker_1, # of connection points: 2
#     Edge 71, Type (0, 0), BuildingBlock: KIFKEQ_clean_linker_1, # of connection points: 2
# Relax obj value: 0.367
# Max RMSD: 0.313
# Mean RMSD: 0.299
data_MOF--net-svb--node1-NUHQUE_clean_sbu_2--edge1-KIFKEQ_clean_linker_1
_symmetry_space_group_name_H-M    P1
_symmetry_Int_Tables_number       1
_symmetry_cell_setting            triclinic
loop_
_symmetry_equiv_pos_as_xyz
'x, y, z'
_cell_length_a     60.831664
_cell_length_b     60.111735
_cell_length_c     25.995652
_cell_angle_alpha  95.948721
_cell_angle_beta   93.380202
_cell_angle_gamma 89.960642
loop_
_atom_site_label
_atom_site_type_symbol
_atom_site_fract_x
_atom_site_fract_y
_atom_site_fract_z
_atom_type_partial_charge
O0 O 0.04498 0.3603 0.23263 0.0
Tb1 Tb 0.07082 0.34859 0.18065 0.0
Eu2 Eu 0.1178 0.34455 0.10186 0.0
C3 C 0.04935 0.36295 0.28323 0.0
O4 O 0.06987 0.36123 0.30068 0.0
C5 C 0.11507 0.33411 0.21929 0.0
O6 O 0.12821 0.31906 0.03661 0.0
C7 C 0.14499 0.37821 0.11489 0.0
C8 C 0.11363 0.30493 1.01187 0.0
O9 O 0.09332 0.30568 1.02639 0.0
C10 C 0.06662 0.35984 0.06375 0.0
C11 C 0.16095 0.39735 0.12181 0.0
C12 C 0.1559 0.41736 0.15198 0.0
C13 C 0.17112 0.43526 0.16045 0.0
C14 C 0.19166 0.43279 0.1381 0.0
C15 C 0.19717 0.41309 0.10721 0.0
C16 C 0.18161 0.39544 0.09954 0.0
O17 O 0.10268 0.35216 0.2229 0.0
O18 O 0.11982 0.32522 0.17271 0.0
O19 O 0.05899 0.31701 0.20229 0.0
O20 O 0.07616 0.31702 0.13338 0.0
C21 C 0.06694 0.30457 0.16409 0.0
O22 O 0.08619 0.35114 0.05409 0.0
O23 O 0.05988 0.36448 0.11131 0.0
O24 O 0.1498 0.35887 0.08977 0.0
O25 O 0.12506 0.37941 0.13237 0.0
H26 H 0.14004 0.41903 0.16886 0.0
H27 H 0.20374 0.4461 0.14618 0.0
H28 H 0.1855 0.38024 0.07576 0.0
O29 O 0.91087 0.80517 0.51368 0.0
Tb30 Tb 0.92314 0.82657 0.45872 0.0
Eu31 Eu 0.93505 0.87206 0.39996 0.0
C32 C 0.92512 0.79666 0.54632 0.0
O33 O 0.94608 0.80177 0.5452 0.0
C34 C 0.94761 0.86696 0.51997 0.0
O35 O 0.95945 0.88132 0.34105 0.0
C36 C 0.89973 0.89608 0.40794 0.0
C37 C 0.97614 0.86768 0.33089 0.0
O38 O 0.97839 0.85029 0.35729 0.0
C39 C 0.91038 0.82807 0.34501 0.0
C40 C 0.87985 0.9107 0.41089 0.0
C41 C 0.86082 0.90561 0.4368 0.0
C42 C 0.84217 0.91993 0.43679 0.0
C43 C 0.84325 0.93953 0.4113 0.0
C44 C 0.86182 0.94444 0.38491 0.0
C45 C 0.8799 0.93009 0.38522 0.0
O46 O 0.92949 0.85469 0.51812 0.0
O47 O 0.95503 0.87333 0.47699 0.0
O48 O 0.94463 0.79879 0.43472 0.0
O49 O 0.95634 0.83217 0.43592 0.0
C50 C 0.96112 0.81129 0.42597 0.0
O51 O 0.92775 0.84108 0.34484 0.0
O52 O 0.90131 0.82572 0.38901 0.0
O53 O 0.91818 0.90322 0.39076 0.0
O54 O 0.90046 0.87555 0.42146 0.0
H55 H 0.86037 0.89044 0.45589 0.0
H56 H 0.82943 0.95091 0.41111 0.0
H57 H 0.89416 0.93412 0.36477 0.0
O58 O 0.4086 0.70546 0.51928 0.0
Tb59 Tb 0.42349 0.68461 0.57614 0.0
Eu60 Eu 0.433 0.64494 0.66503 0.0
C61 C 0.41298 0.70138 0.47009 0.0
O62 O 0.42499 0.68388 0.45633 0.0
C63 C 0.44651 0.64186 0.55016 0.0
O64 O 0.45448 0.63827 0.73604 0.0
C65 C 0.4001 0.61742 0.64636 0.0
C66 C 0.47238 0.65054 0.74729 0.0
O67 O 0.47717 0.66527 0.71564 0.0
C68 C 0.4092 0.69326 0.691 0.0
C69 C 0.38023 0.60849 0.66734 0.0
C70 C 0.35939 0.61273 0.64424 0.0
C71 C 0.34051 0.60175 0.65784 0.0
C72 C 0.34277 0.58653 0.69527 0.0
C73 C 0.36339 0.5822 0.71912 0.0
C74 C 0.38205 0.59341 0.70528 0.0
O75 O 0.42683 0.65044 0.54195 0.0
O76 O 0.45477 0.64257 0.59817 0.0
O77 O 0.45436 0.69798 0.55351 0.0
O78 O 0.45218 0.68954 0.63051 0.0
C79 C 0.46509 0.69662 0.59765 0.0
O80 O 0.42305 0.67793 0.70585 0.0
O81 O 0.40344 0.69516 0.64164 0.0
O82 O 0.41941 0.6118 0.66656 0.0
O83 O 0.39945 0.63803 0.63329 0.0
H84 H 0.35799 0.62415 0.61458 0.0
H85 H 0.32857 0.57694 0.70364 0.0
H86 H 0.39805 0.58984 0.72298 0.0
O87 O 0.55238 0.15177 0.79832 0.0
Tb88 Tb 0.57605 0.16535 0.86045 0.0
Eu89 Eu 0.61848 0.17472 0.95587 0.0
C90 C 0.55783 0.14864 0.74975 0.0
O91 O 0.5784 0.15178 0.73958 0.0
C92 C 0.61786 0.18783 0.83984 0.0
O93 O 0.6271 0.20007 1.02742 0.0
C94 C 0.64499 0.14106 0.94206 0.0
C95 C 0.61154 0.20884 0.05706 0.0
O96 O 0.59096 0.20315 0.04445 0.0
C97 C 0.57056 0.15109 0.97155 0.0
C98 C 0.66073 0.12203 0.93502 0.0
C99 C 0.65509 0.10172 0.90414 0.0
C100 C 0.67027 0.08381 0.89977 0.0
C101 C 0.69112 0.08669 0.92602 0.0
C102 C 0.69708 0.1068 0.95568 0.0
C103 C 0.68192 0.12435 0.95986 0.0
O104 O 0.60781 0.16837 0.82785 0.0
O105 O 0.62022 0.19594 0.88904 0.0
O106 O 0.56048 0.19658 0.84374 0.0
O107 O 0.578 0.19495 0.9166 0.0
C108 C 0.56735 0.20788 0.88697 0.0
O109 O 0.58724 0.16415 0.99006 0.0
O110 O 0.56675 0.14518 0.9213 0.0
O111 O 0.65003 0.15929 0.9732 0.0
O112 O 0.62516 0.14094 0.91883 0.0
H113 H 0.63892 0.09971 0.8844 0.0
H114 H 0.70309 0.07333 0.92242 0.0
H115 H 0.68664 0.13975 0.98337 0.0
O116 O 0.05529 0.6505 0.29717 0.0
Tb117 Tb 0.07932 0.66457 0.35752 0.0
Eu118 Eu 0.12022 0.67267 0.45721 0.0
C119 C 0.06053 0.64399 0.24949 0.0
O120 O 0.08139 0.6428 0.2391 0.0
C121 C 0.12294 0.68379 0.34206 0.0
O122 O 0.12891 0.6956 0.53172 0.0
C123 C 0.14275 0.63619 0.44543 0.0
C124 C 0.1169 0.71373 0.54154 0.0
O125 O 0.10152 0.71807 0.50642 0.0
C126 C 0.07058 0.6547 0.47079 0.0
C127 C 0.15655 0.61569 0.44033 0.0
C128 C 0.15032 0.59631 0.40692 0.0
C129 C 0.16431 0.57744 0.40298 0.0
C130 C 0.18451 0.57836 0.43242 0.0
C131 C 0.19112 0.59763 0.46473 0.0
C132 C 0.17701 0.61608 0.46836 0.0
O133 O 0.1125 0.66447 0.33181 0.0
O134 O 0.12462 0.6929 0.39044 0.0
O135 O 0.06792 0.69458 0.32511 0.0
O136 O 0.07811 0.69668 0.40523 0.0
C137 C 0.07128 0.70792 0.36728 0.0
O138 O 0.08714 0.6679 0.48893 0.0
O139 O 0.06774 0.64724 0.42111 0.0
O140 O 0.15003 0.65452 0.47349 0.0
O141 O 0.12256 0.63741 0.42452 0.0
H142 H 0.13478 0.59589 0.38424 0.0
H143 H 0.19533 0.564 0.42952 0.0
H144 H 0.18229 0.63115 0.49238 0.0
O145 O 0.55296 0.8566 0.77807 0.0
Tb146 Tb 0.57807 0.84542 0.72378 0.0
Eu147 Eu 0.62461 0.84227 0.64741 0.0
C148 C 0.55356 0.84888 0.8239 0.0
O149 O 0.5696 0.83528 0.83537 0.0
C150 C 0.62098 0.82706 0.76143 0.0
O151 O 0.63213 0.81781 0.57779 0.0
C152 C 0.65447 0.87389 0.66602 0.0
C153 C 0.62416 0.79724 0.57303 0.0
O154 O 0.61334 0.79072 0.61109 0.0
C155 C 0.57469 0.86197 0.61215 0.0
C156 C 0.66679 0.89449 0.65558 0.0
C157 C 0.66135 0.91551 0.68104 0.0
C158 C 0.67441 0.93473 0.67814 0.0
C159 C 0.69305 0.93265 0.64824 0.0
C160 C 0.69909 0.91196 0.62228 0.0
C161 C 0.68588 0.89292 0.6266 0.0
O162 O 0.60929 0.84547 0.76884 0.0
O163 O 0.62542 0.8198 0.71346 0.0
O164 O 0.56641 0.8119 0.7328 0.0
O165 O 0.58115 0.81777 0.66325 0.0
C166 C 0.57274 0.80277 0.68877 0.0
O167 O 0.59371 0.85233 0.60064 0.0
O168 O 0.56845 0.86552 0.66041 0.0
O169 O 0.65781 0.8547 0.63839 0.0
O170 O 0.63452 0.87561 0.68338 0.0
H171 H 0.64709 0.91683 0.70422 0.0
H172 H 0.70362 0.94707 0.64709 0.0
H173 H 0.69062 0.87685 0.60783 0.0
O174 O 0.41134 0.30324 1.01093 0.0
Tb175 Tb 0.42712 0.3276 0.96811 0.0
Eu176 Eu 0.43765 0.37035 0.89753 0.0
C177 C 0.40628 0.3083 0.05928 0.0
O178 O 0.40845 0.32912 0.07985 0.0
C179 C 0.4479 0.37028 1.01811 0.0
O180 O 0.46128 0.38082 0.83802 0.0
C181 C 0.40185 0.39327 0.90852 0.0
C182 C 0.47546 0.36588 0.81863 0.0
O183 O 0.47526 0.34594 0.83486 0.0
C184 C 0.41652 0.32272 0.84853 0.0
C185 C 0.38161 0.40715 0.91381 0.0
C186 C 0.36342 0.40101 0.94129 0.0
C187 C 0.34554 0.4159 0.94902 0.0
C188 C 0.34598 0.43655 0.92817 0.0
C189 C 0.36369 0.44267 0.90047 0.0
C190 C 0.38124 0.42783 0.89322 0.0
O191 O 0.42893 0.35946 1.01593 0.0
O192 O 0.45731 0.37271 0.97458 0.0
O193 O 0.45566 0.31007 0.99742 0.0
O194 O 0.45883 0.32885 0.93317 0.0
C195 C 0.46923 0.31698 0.96575 0.0
O196 O 0.43101 0.33864 0.84496 0.0
O197 O 0.40902 0.31882 0.89345 0.0
O198 O 0.41969 0.40107 0.8899 0.0
O199 O 0.40327 0.37251 0.92025 0.0
H200 H 0.3635 0.38522 0.95796 0.0
H201 H 0.33247 0.44813 0.93423 0.0
H202 H 0.39481 0.43251 0.8713 0.0
O203 O 0.90678 0.20181 0.97879 0.0
Tb204 Tb 0.92393 0.18191 0.03473 0.0
Eu205 Eu 0.9395 0.14323 0.12069 0.0
C206 C 0.91298 0.20093 0.93082 0.0
O207 O 0.92898 0.18731 0.91716 0.0
C208 C 0.95039 0.14148 1.00158 0.0
O209 O 0.96674 0.1395 0.18403 0.0
C210 C 0.91038 0.11119 0.11068 0.0
C211 C 0.97205 0.15636 0.21947 0.0
O212 O 0.96202 0.17556 0.21664 0.0
C213 C 0.90852 0.18739 0.148 0.0
C214 C 0.88954 0.10353 0.13059 0.0
C215 C 0.86896 0.11128 0.11179 0.0
C216 C 0.84915 0.10198 0.1255 0.0
C217 C 0.85016 0.08475 0.15807 0.0
C218 C 0.87036 0.07676 0.17704 0.0
C219 C 0.89002 0.08635 0.1637 0.0
O220 O 0.93027 0.1493 0.99459 0.0
O221 O 0.95935 0.14173 0.04917 0.0
O222 O 0.95217 0.20209 1.02036 0.0
O223 O 0.95314 0.18472 0.08776 0.0
C224 C 0.96419 0.19718 0.06054 0.0
O225 O 0.92417 0.17374 0.16227 0.0
O226 O 0.90264 0.18941 0.09892 0.0
O227 O 0.92856 0.1108 0.14066 0.0
O228 O 0.90938 0.12839 0.08318 0.0
H229 H 0.8683 0.12423 0.08571 0.0
H230 H 0.83511 0.07686 0.16752 0.0
H231 H 0.90564 0.07966 0.17704 0.0
O232 O 0.96224 0.6554 0.78407 0.0
Tb233 Tb 0.94034 0.67063 0.84143 0.0
Eu234 Eu 0.90051 0.68164 0.93017 0.0
C235 C 0.95589 0.65185 0.73455 0.0
O236 O 0.93524 0.65533 0.72029 0.0
C237 C 0.89846 0.69293 0.81461 0.0
O238 O 0.89293 0.70644 0.99919 0.0
C239 C 0.87258 0.64895 0.90941 0.0
C240 C 0.90938 0.71802 1.02434 0.0
O241 O 0.92927 0.71467 1.00816 0.0
C242 C 0.94752 0.65643 0.95433 0.0
C243 C 0.86399 0.62701 0.92042 0.0
C244 C 0.87019 0.60747 0.89006 0.0
C245 C 0.85893 0.5873 0.89205 0.0
C246 C 0.84186 0.58642 0.92546 0.0
C247 C 0.83512 0.60571 0.95525 0.0
C248 C 0.84649 0.62592 0.95327 0.0
O249 O 0.90731 0.67292 0.80681 0.0
O250 O 0.8983 0.70248 0.86259 0.0
O251 O 0.95562 0.70091 0.82083 0.0
O252 O 0.94143 0.70141 0.8939 0.0
C253 C 0.95087 0.71334 0.8625 0.0
O254 O 0.93162 0.66983 0.97075 0.0
O255 O 0.95077 0.65111 0.90471 0.0
O256 O 0.86863 0.6669 0.94101 0.0
O257 O 0.89176 0.64942 0.88864 0.0
H258 H 0.88264 0.60822 0.8621 0.0
H259 H 0.833 0.5708 0.92606 0.0
H260 H 0.84063 0.64108 0.97429 0.0
O261 O 0.11832 0.22115 0.52892 0.0
Tb262 Tb 0.10868 0.19941 0.5872 0.0
Eu263 Eu 0.096 0.15075 0.6485 0.0
C264 C 0.10265 0.22989 0.49983 0.0
O265 O 0.0821 0.2246 0.50616 0.0
C266 C 0.08085 0.16003 0.53107 0.0
O267 O 0.07027 0.14184 0.70326 0.0
C268 C 0.12464 0.11868 0.63567 0.0
C269 C 0.05911 0.15765 0.72923 0.0
O270 O 0.06339 0.17862 0.72359 0.0
C271 C 0.12562 0.1941 0.69831 0.0
C272 C 0.14459 0.10757 0.65726 0.0
C273 C 0.16549 0.11286 0.64099 0.0
C274 C 0.18423 0.10041 0.65405 0.0
C275 C 0.18189 0.08256 0.68429 0.0
C276 C 0.16129 0.07676 0.70074 0.0
C277 C 0.14269 0.08949 0.68759 0.0
O278 O 0.09929 0.17146 0.52942 0.0
O279 O 0.07436 0.15406 0.57533 0.0
O280 O 0.09038 0.22867 0.61634 0.0
O281 O 0.0774 0.19626 0.62267 0.0
C282 C 0.07445 0.21759 0.63313 0.0
O283 O 0.10947 0.17992 0.7031 0.0
O284 O 0.13258 0.19744 0.65236 0.0
O285 O 0.10587 0.11641 0.65725 0.0
O286 O 0.12694 0.13838 0.61848 0.0
H287 H 0.16699 0.12598 0.61578 0.0
H288 H 0.1962 0.07289 0.6949 0.0
H289 H 0.12667 0.08459 0.69885 0.0
O290 O 0.60941 0.30393 0.53872 0.0
Tb291 Tb 0.5978 0.32884 0.48724 0.0
Eu292 Eu 0.59403 0.37474 0.41128 0.0
C293 C 0.60304 0.3053 0.58665 0.0
O294 O 0.59086 0.32239 0.60269 0.0
C295 C 0.58061 0.37299 0.52865 0.0
O296 O 0.56998 0.3804 0.34364 0.0
C297 C 0.62477 0.40556 0.42369 0.0
C298 C 0.54848 0.37838 0.34602 0.0
O299 O 0.54053 0.37427 0.38998 0.0
C300 C 0.6135 0.32378 0.37287 0.0
C301 C 0.64438 0.41766 0.40728 0.0
C302 C 0.66567 0.41245 0.42697 0.0
C303 C 0.68418 0.42546 0.41881 0.0
C304 C 0.68108 0.44399 0.39006 0.0
C305 C 0.6601 0.44973 0.36915 0.0
C306 C 0.64181 0.43638 0.37838 0.0
O307 O 0.59871 0.36112 0.53288 0.0
O308 O 0.57291 0.37674 0.48173 0.0
O309 O 0.56599 0.31523 0.5018 0.0
O310 O 0.56882 0.33218 0.43463 0.0
C311 C 0.55537 0.3222 0.46186 0.0
O312 O 0.60392 0.34277 0.36239 0.0
O313 O 0.61704 0.31823 0.42071 0.0
O314 O 0.60521 0.40847 0.40103 0.0
O315 O 0.62724 0.3856 0.4401 0.0
H316 H 0.6678 0.39839 0.44966 0.0
H317 H 0.69509 0.45461 0.38588 0.0
H318 H 0.62552 0.44069 0.36361 0.0
O319 O 0.40438 0.8067 0.03934 0.0
Tb320 Tb 0.4197 0.82705 0.10658 0.0
Eu321 Eu 0.42703 0.86815 0.21139 0.0
C322 C 0.40952 0.81043 0.99241 0.0
O323 O 0.42265 0.8273 0.98758 0.0
C324 C 0.4405 0.87109 0.09609 0.0
O325 O 0.44992 0.87678 0.28506 0.0
C326 C 0.39067 0.89044 0.20285 0.0
C327 C 0.46454 0.86169 0.29856 0.0
O328 O 0.46495 0.84261 0.26913 0.0
C329 C 0.40813 0.81768 0.21852 0.0
C330 C 0.37017 0.90413 0.19952 0.0
C331 C 0.35094 0.89707 0.1682 0.0
C332 C 0.33194 0.91089 0.16743 0.0
C333 C 0.33277 0.93177 0.19746 0.0
C334 C 0.35176 0.93903 0.22743 0.0
C335 C 0.37022 0.92521 0.22836 0.0
O336 O 0.42143 0.86079 0.08446 0.0
O337 O 0.44825 0.87306 0.14482 0.0
O338 O 0.44916 0.8106 0.07802 0.0
O339 O 0.45075 0.82857 0.1531 0.0
C340 C 0.462 0.81753 0.11813 0.0
O341 O 0.4209 0.83444 0.23865 0.0
O342 O 0.40164 0.81489 0.16871 0.0
O343 O 0.40802 0.89779 0.23262 0.0
O344 O 0.3929 0.87041 0.17799 0.0
H345 H 0.35064 0.88096 0.14525 0.0
H346 H 0.31871 0.94285 0.19639 0.0
H347 H 0.38471 0.93102 0.25226 0.0
O348 O 0.8922 0.29684 0.50304 0.0
Tb349 Tb 0.90491 0.31567 0.57515 0.0
Eu350 Eu 0.91894 0.35871 0.66542 0.0
C351 C 0.90543 0.29428 0.46445 0.0
O352 O 0.92522 0.30319 0.47157 0.0
C353 C 0.93499 0.35406 0.55009 0.0
O354 O 0.94094 0.3668 0.7399 0.0
C355 C 0.88715 0.38658 0.65169 0.0
C356 C 0.96258 0.3644 0.74035 0.0
O357 O 0.97154 0.35876 0.69613 0.0
C358 C 0.88975 0.31582 0.68437 0.0
C359 C 0.86941 0.4034 0.64536 0.0
C360 C 0.85016 0.39895 0.6123 0.0
C361 C 0.83444 0.416 0.60576 0.0
C362 C 0.83798 0.43715 0.63355 0.0
C363 C 0.85676 0.44168 0.6669 0.0
C364 C 0.87234 0.42479 0.67226 0.0
O365 O 0.91592 0.344 0.5367 0.0
O366 O 0.94182 0.35765 0.59939 0.0
O367 O 0.92341 0.28501 0.57995 0.0
O368 O 0.93529 0.31501 0.62366 0.0
C369 C 0.93851 0.29372 0.61339 0.0
O370 O 0.90698 0.32849 0.70026 0.0
O371 O 0.88178 0.31466 0.63569 0.0
O372 O 0.90523 0.39176 0.68096 0.0
O373 O 0.88616 0.36581 0.62975 0.0
H374 H 0.84768 0.3826 0.59094 0.0
H375 H 0.82571 0.45008 0.62993 0.0
H376 H 0.88708 0.42853 0.69713 0.0
O377 O 0.46095 0.15082 0.28475 0.0
Tb378 Tb 0.43923 0.1675 0.34117 0.0
Eu379 Eu 0.39693 0.18129 0.42701 0.0
C380 C 0.45504 0.14727 0.23489 0.0
O381 O 0.43448 0.15071 0.21968 0.0
C382 C 0.39824 0.192 0.31006 0.0
O383 O 0.39185 0.20662 0.49628 0.0
C384 C 0.36553 0.15166 0.41449 0.0
C385 C 0.4089 0.21816 0.51845 0.0
O386 O 0.42809 0.21518 0.49825 0.0
C387 C 0.44308 0.15486 0.45577 0.0
C388 C 0.35518 0.13223 0.4347 0.0
C389 C 0.36029 0.11049 0.41349 0.0
C390 C 0.34862 0.09182 0.42593 0.0
C391 C 0.33212 0.09504 0.46143 0.0
C392 C 0.32678 0.11652 0.48354 0.0
C393 C 0.3382 0.13514 0.46955 0.0
O394 O 0.40742 0.17215 0.30146 0.0
O395 O 0.39682 0.20121 0.35804 0.0
O396 O 0.45962 0.19494 0.32305 0.0
O397 O 0.44066 0.19952 0.38949 0.0
C398 C 0.45388 0.20908 0.36093 0.0
O399 O 0.42736 0.16905 0.46928 0.0
O400 O 0.44666 0.14815 0.40683 0.0
O401 O 0.36337 0.17159 0.43979 0.0
O402 O 0.38473 0.14867 0.39382 0.0
H403 H 0.37297 0.10814 0.38589 0.0
H404 H 0.32243 0.08087 0.46976 0.0
H405 H 0.3336 0.1518 0.48513 0.0
O406 O 0.55637 0.65887 0.24083 0.0
Tb407 Tb 0.57812 0.67342 0.18958 0.0
Eu408 Eu 0.61983 0.68076 0.11592 0.0
C409 C 0.5579 0.66603 0.29051 0.0
O410 O 0.57327 0.68077 0.30746 0.0
C411 C 0.61985 0.69519 0.23546 0.0
O412 O 0.63036 0.70403 0.05597 0.0
C413 C 0.64209 0.64493 0.13124 0.0
C414 C 0.61506 0.71669 0.03493 0.0
O415 O 0.59477 0.71451 0.04819 0.0
C416 C 0.57286 0.6581 0.07133 0.0
C417 C 0.65553 0.62452 0.13901 0.0
C418 C 0.64944 0.60773 0.17056 0.0
C419 C 0.664 0.58977 0.17956 0.0
C420 C 0.68417 0.58875 0.15547 0.0
C421 C 0.69017 0.60504 0.12412 0.0
C422 C 0.67583 0.62269 0.11616 0.0
O423 O 0.60936 0.676 0.23475 0.0
O424 O 0.6219 0.70359 0.19114 0.0
O425 O 0.55995 0.70331 0.21516 0.0
O426 O 0.58027 0.70402 0.15152 0.0
C427 C 0.56762 0.71573 0.18231 0.0
O428 O 0.58938 0.67143 0.06452 0.0
O429 O 0.5684 0.65279 0.11766 0.0
O430 O 0.64985 0.66153 0.10794 0.0
O431 O 0.62169 0.64751 0.14492 0.0
H432 H 0.63397 0.60902 0.18922 0.0
H433 H 0.69529 0.57494 0.16066 0.0
H434 H 0.6809 0.63547 0.09274 0.0
O435 O 0.11031 0.79819 0.04091 0.0
Tb436 Tb 0.09767 0.82266 0.99002 0.0
Eu437 Eu 0.09375 0.86844 0.91922 0.0
C438 C 0.10479 0.79988 0.08944 0.0
O439 O 0.09279 0.81699 0.10625 0.0
C440 C 0.08002 0.86616 0.03524 0.0
O441 O 0.06884 0.87732 0.85492 0.0
C442 C 0.12669 0.89632 0.94101 0.0
C443 C 0.05701 0.86104 0.8284 0.0
O444 O 0.06056 0.84049 0.83949 0.0
C445 C 0.1131 0.81846 0.87533 0.0
C446 C 0.14769 0.9074 0.9298 0.0
C447 C 0.16791 0.90208 0.95541 0.0
C448 C 0.18722 0.91499 0.95241 0.0
C449 C 0.18575 0.93357 0.92318 0.0
C450 C 0.16587 0.93901 0.89683 0.0
C451 C 0.14708 0.92572 0.90005 0.0
O452 O 0.09809 0.85419 0.03913 0.0
O453 O 0.07221 0.8699 0.98848 0.0
O454 O 0.06672 0.80725 1.005 0.0
O455 O 0.06752 0.82745 0.94259 0.0
C456 C 0.055 0.81596 0.96895 0.0
O457 O 0.1038 0.83779 0.8671 0.0
O458 O 0.11613 0.81173 0.92215 0.0
O459 O 0.10817 0.90136 0.91603 0.0
O460 O 0.12697 0.87575 0.95438 0.0
H461 H 0.16844 0.88809 0.97853 0.0
H462 H 0.20002 0.94417 0.9215 0.0
H463 H 0.13163 0.93044 0.88134 0.0
H464 H 0.99141 0.18664 0.14116 0.0
H465 H 0.98881 0.22195 1.00454 0.0
H466 H 0.02787 0.20256 0.16684 0.0
H467 H 0.02471 0.23815 1.03015 0.0
H468 H 0.0479 0.27803 0.2265 0.0
H469 H 0.03222 0.24138 0.20022 0.0
H470 H 0.06376 0.23931 0.05493 0.0
H471 H 0.07916 0.27648 0.08145 0.0
C472 C 0.99883 0.19754 0.11633 0.0
C473 C 0.98715 0.2039 0.07212 0.0
C474 C 0.01974 0.20642 0.13065 0.0
C475 C 0.02902 0.22188 0.10105 0.0
C476 C 0.01818 0.22619 0.05381 0.0
C477 C 0.99738 0.21729 0.03954 0.0
C478 C 0.05203 0.26944 0.18962 0.0
C479 C 0.06366 0.28038 0.15464 0.0
C480 C 0.04334 0.24822 0.17478 0.0
C481 C 0.04612 0.23782 0.12462 0.0
C482 C 0.06086 0.24728 0.09324 0.0
C483 C 0.06952 0.2686 0.10815 0.0
H484 H 0.06775 0.73605 0.45536 0.0
H485 H 0.06235 0.73303 0.28835 0.0
H486 H 0.04749 0.77112 0.46111 0.0
H487 H 0.0417 0.76792 0.29423 0.0
H488 H 0.96769 0.77432 0.36147 0.0
H489 H 1.00297 0.75827 0.33819 0.0
H490 H 0.03707 0.8134 0.42899 0.0
H491 H 1.00138 0.83005 0.45067 0.0
C492 C 0.06313 0.74343 0.42007 0.0
C493 C 0.06576 0.73164 0.37149 0.0
C494 C 0.05175 0.76359 0.42332 0.0
C495 C 0.04283 0.7718 0.37801 0.0
C496 C 0.04843 0.76173 0.32953 0.0
C497 C 0.05991 0.74167 0.32628 0.0
C498 C 0.98272 0.78322 0.37535 0.0
C499 C 0.98212 0.80309 0.40815 0.0
C500 C 1.00283 0.7743 0.3615 0.0
C501 C 0.02257 0.78487 0.38144 0.0
C502 C 0.02197 0.80527 0.41268 0.0
C503 C 1.00172 0.81458 0.4253 0.0
H504 H 0.56178 0.78645 0.58985 0.0
H505 H 0.57486 0.76697 0.74367 0.0
H506 H 0.54362 0.75093 0.56329 0.0
H507 H 0.55844 0.73034 0.71636 0.0
H508 H 0.49692 0.69784 0.529 0.0
H509 H 0.53386 0.71376 0.54688 0.0
H510 H 0.52103 0.72538 0.70974 0.0
H511 H 0.48511 0.70846 0.6917 0.0
C512 C 0.5616 0.77403 0.61721 0.0
C513 C 0.56866 0.77948 0.66912 0.0
C514 C 0.5514 0.75346 0.60197 0.0
C515 C 0.54861 0.73805 0.63848 0.0
C516 C 0.55932 0.74226 0.68802 0.0
C517 C 0.56877 0.76313 0.7037 0.0
C518 C 0.50241 0.70343 0.56865 0.0
C519 C 0.4882 0.70269 0.60896 0.0
C520 C 0.52352 0.71247 0.57897 0.0
C521 C 0.53035 0.72149 0.62952 0.0
C522 C 0.51667 0.71857 0.6703 0.0
C523 C 0.49584 0.70911 0.66005 0.0
H524 H 0.49986 0.33034 0.90266 0.0
H525 H 0.49146 0.29155 0.03079 0.0
H526 H 0.53571 0.31313 0.88934 0.0
H527 H 0.52699 0.27441 1.018 0.0
H528 H 0.57949 0.23302 0.97726 0.0
H529 H 0.56651 0.27063 1.00462 0.0
H530 H 0.53486 0.27376 0.85211 0.0
H531 H 0.54793 0.23655 0.82521 0.0
C532 C 0.5059 0.3185 0.92855 0.0
C533 C 0.49257 0.31124 0.96575 0.0
C534 C 0.52652 0.30893 0.92151 0.0
C535 C 0.53385 0.292 0.95167 0.0
C536 C 0.52182 0.28735 0.9939 0.0
C537 C 0.50124 0.29686 1.00073 0.0
C538 C 0.5702 0.24207 0.94947 0.0
C539 C 0.56371 0.23173 0.90009 0.0
C540 C 0.56304 0.26364 0.96486 0.0
C541 C 0.54927 0.2749 0.93094 0.0
C542 C 0.54543 0.26557 0.87929 0.0
C543 C 0.55253 0.24406 0.86406 0.0
H544 H 0.97386 0.73856 0.80386 0.0
H545 H 0.9376 0.74222 0.94218 0.0
H546 H 0.98912 0.77544 0.83045 0.0
H547 H 0.95273 0.77949 0.96912 0.0
H548 H 0.02856 0.82975 0.88977 0.0
H549 H 0.99178 0.81529 0.86208 0.0
H550 H 0.99142 0.78069 0.99993 0.0
H551 H 0.02787 0.795 1.0268 0.0
C552 C 0.9687 0.74759 0.83934 0.0
C553 C 0.95566 0.73725 0.87263 0.0
C554 C 0.9771 0.76894 0.85422 0.0
C555 C 0.9726 0.78009 0.90273 0.0
C556 C 0.95684 0.77101 0.93212 0.0
C557 C 0.9485 0.74959 0.91721 0.0
C558 C 0.02033 0.81947 0.91446 0.0
C559 C 0.03132 0.8124 0.95877 0.0
C560 C 0.99919 0.81146 0.89905 0.0
C561 C 0.98898 0.79637 0.92805 0.0
C562 C 0.9988 0.7922 0.97644 0.0
C563 C 0.0199 0.80006 0.9915 0.0
H564 H 0.0676 0.26164 0.65878 0.0
H565 H 0.03761 0.19647 0.65766 0.0
H566 H 0.03267 0.27917 0.67742 0.0
H567 H 1.00297 0.21395 0.68065 0.0
H568 H 0.96846 0.30885 0.69091 0.0
H569 H 1.00053 0.28862 0.72259 0.0
H570 H 0.97998 0.23035 0.61885 0.0
H571 H 0.94788 0.25023 0.58928 0.0
C572 C 0.05368 0.25111 0.66454 0.0
C573 C 0.05503 0.22779 0.65585 0.0
C574 C 0.03373 0.26114 0.6761 0.0
C575 C 0.01492 0.2479 0.67948 0.0
C576 C 0.01709 0.22454 0.6771 0.0
C577 C 0.03694 0.21453 0.66436 0.0
C578 C 0.97075 0.29157 0.67583 0.0
C579 C 0.95626 0.28115 0.63675 0.0
C580 C 0.98896 0.27999 0.69407 0.0
C581 C 0.99295 0.25799 0.67286 0.0
C582 C 0.97735 0.24716 0.63667 0.0
C583 C 0.95911 0.25865 0.61893 0.0
H584 H 0.48325 0.22902 0.30663 0.0
H585 H 0.43976 0.24198 0.43151 0.0
H586 H 0.49912 0.26604 0.32651 0.0
H587 H 0.45547 0.27953 0.45144 0.0
H588 H 0.53329 0.32588 0.36871 0.0
H589 H 0.49887 0.30657 0.33815 0.0
H590 H 0.49184 0.28694 0.49185 0.0
H591 H 0.52562 0.30656 0.52207 0.0
C592 C 0.47679 0.24004 0.33776 0.0
C593 C 0.46098 0.23249 0.36896 0.0
C594 C 0.48559 0.26146 0.34863 0.0
C595 C 0.47869 0.27569 0.39095 0.0
C596 C 0.46131 0.2688 0.41905 0.0
C597 C 0.45253 0.24727 0.40813 0.0
C598 C 0.52384 0.31815 0.39617 0.0
C599 C 0.53231 0.31683 0.44706 0.0
C600 C 0.50418 0.30715 0.37879 0.0
C601 C 0.49305 0.29465 0.41218 0.0
C602 C 0.5 0.29628 0.46496 0.0
C603 C 0.51956 0.30726 0.48222 0.0
H604 H 0.54322 0.74157 0.24815 0.0
H605 H 0.5803 0.74321 0.11217 0.0
H606 H 0.52712 0.77744 0.23354 0.0
H607 H 0.56373 0.77907 0.09638 0.0
H608 H 0.49087 0.83322 0.19731 0.0
H609 H 0.52742 0.8182 0.21633 0.0
H610 H 0.52292 0.77801 0.06822 0.0
H611 H 0.48642 0.79273 0.04995 0.0
C612 C 0.54832 0.74991 0.21577 0.0
C613 C 0.56207 0.73926 0.17966 0.0
C614 C 0.5394 0.77065 0.20782 0.0
C615 C 0.54393 0.7808 0.16324 0.0
C616 C 0.55984 0.77141 0.13071 0.0
C617 C 0.569 0.75075 0.13919 0.0
C618 C 0.49793 0.82147 0.16865 0.0
C619 C 0.48556 0.81305 0.12365 0.0
C620 C 0.51895 0.81324 0.17906 0.0
C621 C 0.52771 0.79663 0.14427 0.0
C622 C 0.51656 0.7908 0.09583 0.0
C623 C 0.4955 0.79891 0.08568 0.0
H624 H 0.3169 0.37974 0.93609 0.0
H625 H 0.3302 0.44211 0.03043 0.0
H626 H 0.28116 0.37711 0.97504 0.0
H627 H 0.29489 0.43958 0.06898 0.0
H628 H 0.22034 0.44584 0.06712 0.0
H629 H 0.2568 0.44389 0.03363 0.0
H630 H 0.26082 0.37401 0.05742 0.0
H631 H 0.22425 0.37602 0.09252 0.0
C632 C 0.31248 0.39255 0.96608 0.0
C633 C 0.32634 0.41121 0.97986 0.0
C634 C 0.29195 0.39113 0.98823 0.0
C635 C 0.28486 0.40841 1.02438 0.0
C636 C 0.29947 0.42625 0.04038 0.0
C637 C 0.31984 0.4276 1.01857 0.0
C638 C 0.22898 0.43006 0.06601 0.0
C639 C 0.21922 0.4112 0.08353 0.0
C640 C 0.24998 0.42893 0.04656 0.0
C641 C 0.262 0.40886 0.0434 0.0
C642 C 0.25207 0.38974 0.05918 0.0
C643 C 0.23101 0.39091 0.07919 0.0
H644 H 0.87134 0.94468 0.2843 0.0
H645 H 0.8539 0.98842 0.41781 0.0
H646 H 0.87442 0.97683 0.23497 0.0
H647 H 0.85703 0.02084 0.3682 0.0
H648 H 0.89025 0.07299 0.27319 0.0
H649 H 0.88785 0.04118 0.32512 0.0
H650 H 0.84804 1.00506 0.20086 0.0
H651 H 0.85038 0.03666 0.14954 0.0
C652 C 0.86814 0.96122 0.30301 0.0
C653 C 0.86238 0.9641 0.35482 0.0
C654 C 0.86984 0.9796 0.27476 0.0
C655 C 0.86604 1.00134 0.2978 0.0
C656 C 0.86024 1.00427 0.34966 0.0
C657 C 0.85823 0.98577 0.37782 0.0
C658 C 0.88117 0.05813 0.25707 0.0
C659 C 0.87049 0.05722 0.2075 0.0
C660 C 0.87962 0.04008 0.28684 0.0
C661 C 0.86769 0.0207 0.26704 0.0
C662 C 0.85743 0.01971 0.21703 0.0
C663 C 0.85871 0.0378 0.18774 0.0
H664 H 0.23046 0.58057 0.43236 0.0
H665 H 0.20156 0.61772 0.56274 0.0
H666 H 0.2662 0.58294 0.47946 0.0
H667 H 0.23759 0.62182 0.60793 0.0
H668 H 0.29996 0.60319 0.69845 0.0
H669 H 0.26418 0.60218 0.65197 0.0
H670 H 0.2956 0.607 0.50853 0.0
H671 H 0.33149 0.60608 0.55455 0.0
C672 C 0.23169 0.58925 0.47107 0.0
C673 C 0.21303 0.59889 0.4937 0.0
C674 C 0.25233 0.591 0.49777 0.0
C675 C 0.25493 0.60272 0.54751 0.0
C676 C 0.23627 0.61242 0.57002 0.0
C677 C 0.21558 0.61035 0.5437 0.0
C678 C 0.29926 0.60391 0.65693 0.0
C679 C 0.31868 0.60445 0.63027 0.0
C680 C 0.27866 0.60364 0.63025 0.0
C681 C 0.27688 0.60434 0.57626 0.0
C682 C 0.29629 0.60594 0.54992 0.0
C683 C 0.31693 0.60585 0.57653 0.0
H684 H 0.65926 0.9421 0.77641 0.0
H685 H 0.67861 0.97753 0.64992 0.0
H686 H 0.65378 0.97757 0.82812 0.0
H687 H 0.67419 0.01304 0.70267 0.0
H688 H 0.65264 0.07605 0.79906 0.0
H689 H 0.6502 0.04021 0.74432 0.0
H690 H 0.6755 1.00641 0.874 0.0
H691 H 0.67723 0.04184 0.92831 0.0
C692 C 0.66215 0.95741 0.75923 0.0
C693 C 0.66952 0.9567 0.70872 0.0
C694 C 0.65927 0.97789 0.78934 0.0
C695 C 0.66373 0.99841 0.77012 0.0
C696 C 0.6704 0.99773 0.71899 0.0
C697 C 0.67324 0.97724 0.68882 0.0
C698 C 0.65715 0.06086 0.81603 0.0
C699 C 0.66522 0.0619 0.86807 0.0
C700 C 0.65605 0.04029 0.78449 0.0
C701 C 0.66283 0.0202 0.8043 0.0
C702 C 0.6699 0.02128 0.85706 0.0
C703 C 0.67105 0.04173 0.88832 0.0
H704 H 0.82673 0.62453 0.05303 0.0
H705 H 0.79648 0.58599 0.91779 0.0
H706 H 0.79177 0.62397 0.09546 0.0
H707 H 0.76213 0.58482 0.96039 0.0
H708 H 0.69822 0.6111 1.02462 0.0
H709 H 0.7337 0.61168 0.98608 0.0
H710 H 0.76636 0.59713 0.13082 0.0
H711 H 0.7307 0.59717 0.16997 0.0
C712 C 0.81268 0.61587 0.03259 0.0
C713 C 0.81438 0.60515 0.98234 0.0
C714 C 0.79277 0.61538 0.05694 0.0
C715 C 0.77423 0.60436 0.03116 0.0
C716 C 0.77605 0.59362 0.98105 0.0
C717 C 0.79583 0.59407 0.9569 0.0
C718 C 0.71297 0.60809 0.04825 0.0
C719 C 0.71172 0.60409 0.10025 0.0
C720 C 0.73328 0.60827 1.02611 0.0
C721 C 0.7528 0.60441 0.05544 0.0
C722 C 0.75158 0.60033 0.10746 0.0
C723 C 0.7312 0.60008 0.12963 0.0
H724 H 0.14859 0.94202 0.79807 0.0
H725 H 0.17948 0.98185 0.93023 0.0
H726 H 0.14581 0.97521 0.75073 0.0
H727 H 0.17644 0.01513 0.88312 0.0
H728 H 0.14545 0.07325 0.79652 0.0
H729 H 0.14581 0.04003 0.84453 0.0
H730 H 0.17349 1.0012 0.71521 0.0
H731 H 0.1735 0.03436 0.66799 0.0
C732 C 0.15471 0.95788 0.81705 0.0
C733 C 0.16437 0.95925 0.86782 0.0
C734 C 0.15318 0.97688 0.7899 0.0
C735 C 0.16084 0.99785 0.81318 0.0
C736 C 0.17022 0.99928 0.86422 0.0
C737 C 0.17215 0.98019 0.89102 0.0
C738 C 0.15139 0.05754 0.77833 0.0
C739 C 0.15944 0.05639 0.72855 0.0
C740 C 0.15176 0.03858 0.80588 0.0
C741 C 0.15972 0.01796 0.78372 0.0
C742 C 0.16713 0.01674 0.73329 0.0
C743 C 0.16719 0.03574 0.7063 0.0
H744 H 0.69542 0.41165 0.51503 0.0
H745 H 0.72428 0.42787 0.37568 0.0
H746 H 0.73211 0.40592 0.55452 0.0
H747 H 0.76092 0.42223 0.41522 0.0
H748 H 0.82088 0.44136 0.52929 0.0
H749 H 0.7852 0.44107 0.4817 0.0
H750 H 0.76572 0.38348 0.55495 0.0
H751 H 0.80171 0.38408 0.60343 0.0
C752 C 0.70952 0.41366 0.49236 0.0
C753 C 0.70669 0.42043 0.44206 0.0
C754 C 0.73067 0.41034 0.51512 0.0
C755 C 0.74967 0.41372 0.48839 0.0
C756 C 0.74679 0.41984 0.43755 0.0
C757 C 0.72569 0.42313 0.4148 0.0
C758 C 0.80913 0.42836 0.53455 0.0
C759 C 0.81418 0.41272 0.57015 0.0
C760 C 0.78861 0.42814 0.50706 0.0
C761 C 0.77233 0.41233 0.51442 0.0
C762 C 0.77768 0.39609 0.54863 0.0
C763 C 0.79841 0.39621 0.57595 0.0
H764 H 0.38273 0.97168 0.22691 0.0
H765 H 0.3224 0.95641 0.29579 0.0
H766 H 0.38394 1.00859 0.27676 0.0
H767 H 0.32368 0.99327 0.34591 0.0
H768 H 0.34803 0.05131 0.46591 0.0
H769 H 0.34953 0.01411 0.41865 0.0
H770 H 0.35915 0.04375 0.27737 0.0
H771 H 0.35674 0.08094 0.32373 0.0
C772 C 0.36982 0.97623 0.25295 0.0
C773 C 0.35246 0.9613 0.25762 0.0
C774 C 0.37047 0.99731 0.2812 0.0
C775 C 0.35396 1.00367 0.31523 0.0
C776 C 0.33672 0.98865 0.32027 0.0
C777 C 0.33588 0.9677 0.29139 0.0
C778 C 0.3504 0.04994 0.42474 0.0
C779 C 0.35215 0.06919 0.39867 0.0
C780 C 0.3513 0.02864 0.3978 0.0
C781 C 0.35434 0.02614 0.34443 0.0
C782 C 0.35697 0.04526 0.31865 0.0
C783 C 0.35573 0.06657 0.34538 0.0
H784 H 0.79963 0.92477 0.39873 0.0
H785 H 0.83671 0.9034 0.5313 0.0
H786 H 0.76558 0.92106 0.44153 0.0
H787 H 0.80225 0.8995 0.57448 0.0
H788 H 0.73206 0.88004 0.62057 0.0
H789 H 0.7664 0.87954 0.57529 0.0
H790 H 0.74728 0.94079 0.51212 0.0
H791 H 0.7131 0.94104 0.55631 0.0
C792 C 0.80059 0.9193 0.43719 0.0
C793 C 0.82119 0.91482 0.46172 0.0
C794 C 0.78092 0.91718 0.46189 0.0
C795 C 0.78097 0.91036 0.5121 0.0
C796 C 0.80144 0.90478 0.53583 0.0
C797 C 0.82127 0.90698 0.511 0.0
C798 C 0.73507 0.89324 0.59647 0.0
C799 C 0.71964 0.91058 0.59227 0.0
C800 C 0.75493 0.89309 0.5709 0.0
C801 C 0.75981 0.91011 0.53973 0.0
C802 C 0.74417 0.92721 0.53508 0.0
C803 C 0.72453 0.92747 0.56091 0.0
H804 H 0.39868 0.47134 0.90102 0.0
H805 H 0.32959 0.46401 0.85292 0.0
H806 H 0.39974 0.50678 0.86318 0.0
H807 H 0.33062 0.4997 0.81623 0.0
H808 H 0.33603 0.57349 0.79463 0.0
H809 H 0.33654 0.54091 0.84356 0.0
H810 H 0.39586 0.51783 0.77215 0.0
H811 H 0.39514 0.55003 0.72238 0.0
C812 C 0.38374 0.47725 0.8823 0.0
C813 C 0.36408 0.46475 0.87962 0.0
C814 C 0.38435 0.49759 0.8609 0.0
C815 C 0.36527 0.50597 0.83688 0.0
C816 C 0.3455 0.49377 0.83521 0.0
C817 C 0.34492 0.47334 0.85621 0.0
C818 C 0.34924 0.56151 0.78957 0.0
C819 C 0.36546 0.56428 0.75435 0.0
C820 C 0.34951 0.5429 0.81757 0.0
C821 C 0.36614 0.5268 0.81131 0.0
C822 C 0.38296 0.5301 0.77807 0.0
C823 C 0.38259 0.54861 0.74972 0.0
H824 H 0.72814 0.13914 0.94925 0.0
H825 H 0.71579 0.07968 1.02305 0.0
H826 H 0.76538 0.14184 0.99188 0.0
H827 H 0.75265 0.08258 0.06622 0.0
H828 H 0.8106 0.10768 0.17445 0.0
H829 H 0.77364 0.11133 0.13467 0.0
H830 H 0.80082 0.11554 0.98643 0.0
H831 H 0.83792 0.11101 1.02566 0.0
C832 C 0.73335 0.12682 0.97498 0.0
C833 C 0.71919 0.10919 0.98295 0.0
C834 C 0.75461 0.12831 0.99909 0.0
C835 C 0.7618 0.11248 0.03246 0.0
C836 C 0.74744 0.09512 0.04107 0.0
C837 C 0.72643 0.09338 1.01622 0.0
C838 C 0.80878 0.10948 0.13339 0.0
C839 C 0.82726 0.10863 0.10312 0.0
C840 C 0.7876 0.11164 0.11073 0.0
C841 C 0.7844 0.11343 0.05743 0.0
C842 C 0.80288 0.11424 1.02769 0.0
C843 C 0.82413 0.11174 0.05026 0.0
H844 H 0.16612 0.53418 0.4258 0.0
H845 H 0.15131 0.57381 0.29921 0.0
H846 H 0.16477 0.50027 0.36578 0.0
H847 H 0.14939 0.53965 0.23861 0.0
H848 H 0.18079 0.47867 0.14478 0.0
H849 H 0.17519 0.51272 0.20191 0.0
H850 H 0.1434 0.47415 0.30778 0.0
H851 H 0.14979 0.43996 0.25158 0.0
C852 C 0.16209 0.53558 0.38511 0.0
C853 C 0.15894 0.55675 0.36732 0.0
C854 C 0.1612 0.51607 0.35057 0.0
C855 C 0.15715 0.51707 0.29699 0.0
C856 C 0.15288 0.53819 0.27944 0.0
C857 C 0.15368 0.55778 0.31423 0.0
C858 C 0.17264 0.47739 0.18031 0.0
C859 C 0.16597 0.45639 0.19359 0.0
C860 C 0.16915 0.49704 0.21285 0.0
C861 C 0.15888 0.49635 0.25982 0.0
C862 C 0.15161 0.47542 0.27235 0.0
C863 C 0.15507 0.45576 0.23974 0.0
H864 H 0.29125 0.14456 0.47817 0.0
H865 H 0.31973 0.09336 0.5656 0.0
H866 H 0.25727 0.14277 0.52384 0.0
H867 H 0.28604 0.09166 0.61139 0.0
H868 H 0.21421 0.06994 0.61634 0.0
H869 H 0.24952 0.07683 0.58203 0.0
H870 H 0.23891 0.14804 0.60784 0.0
H871 H 0.20338 0.14114 0.64323 0.0
C872 C 0.29046 0.13339 0.50815 0.0
C873 C 0.30804 0.11892 0.51795 0.0
C874 C 0.27099 0.13231 0.53423 0.0
C875 C 0.26879 0.11675 0.57055 0.0
C876 C 0.28699 0.10344 0.58275 0.0
C877 C 0.30634 0.1045 0.55676 0.0
C878 C 0.21948 0.08711 0.61571 0.0
C879 C 0.20597 0.10497 0.63323 0.0
C880 C 0.23979 0.09106 0.5959 0.0
C881 C 0.2472 0.113 0.59271 0.0
C882 C 0.23365 0.13094 0.60961 0.0
C883 C 0.21328 0.12697 0.6298 0.0
H884 H 0.68907 0.46584 0.30405 0.0
H885 H 0.62557 0.48027 0.36555 0.0
H886 H 0.68746 0.50039 0.26318 0.0
H887 H 0.62368 0.51469 0.3222 0.0
H888 H 0.62643 0.56358 0.18306 0.0
H889 H 0.6231 0.52986 0.22891 0.0
H890 H 0.68866 0.54151 0.29889 0.0
H891 H 0.69177 0.575 0.25469 0.0
C892 C 0.67473 0.47632 0.3092 0.0
C893 C 0.65767 0.47012 0.33946 0.0
C894 C 0.67377 0.49622 0.28531 0.0
C895 C 0.65557 0.51061 0.28981 0.0
C896 C 0.63796 0.50405 0.31783 0.0
C897 C 0.63905 0.48418 0.34257 0.0
C898 C 0.63987 0.55923 0.2093 0.0
C899 C 0.65949 0.57195 0.21446 0.0
C900 C 0.63802 0.53982 0.23537 0.0
C901 C 0.65582 0.53261 0.26679 0.0
C902 C 0.67481 0.54616 0.27418 0.0
C903 C 0.67654 0.56549 0.24885 0.0
H904 H 0.22993 0.92002 0.92388 0.0
H905 H 0.19359 0.89846 0.04777 0.0
H906 H 0.26429 0.91534 0.97417 0.0
H907 H 0.22797 0.89225 0.09642 0.0
H908 H 0.28997 0.91352 0.19893 0.0
H909 H 0.25573 0.91186 0.14603 0.0
H910 H 0.29151 0.89259 1.00979 0.0
H911 H 0.32619 0.89532 0.06341 0.0
C912 C 0.22915 0.91414 0.96171 0.0
C913 C 0.20862 0.90996 0.98157 0.0
C914 C 0.24907 0.91107 0.99043 0.0
C915 C 0.24927 0.90352 0.04002 0.0
C916 C 0.22876 0.89852 0.05901 0.0
C917 C 0.20884 0.90177 0.03049 0.0
C918 C 0.29056 0.90861 0.15773 0.0
C919 C 0.31097 0.90472 0.13555 0.0
C920 C 0.27076 0.9075 0.12713 0.0
C921 C 0.2705 0.90227 0.073 0.0
C922 C 0.29087 0.89712 0.05106 0.0
C923 C 0.31082 0.89831 0.08192 0.0
H924 H 0.89413 0.55899 0.88496 0.0
H925 H 0.83031 0.57214 0.81358 0.0
H926 H 0.8965 0.5243 0.8263 0.0
H927 H 0.8325 0.5378 0.75532 0.0
H928 H 0.84921 0.4828 0.63288 0.0
H929 H 0.85289 0.51939 0.68306 0.0
H930 H 0.87584 0.48776 0.81788 0.0
H931 H 0.8719 0.45118 0.76808 0.0
C932 C 0.88086 0.55458 0.85609 0.0
C933 C 0.86206 0.568 0.85344 0.0
C934 C 0.8821 0.53477 0.82287 0.0
C935 C 0.86466 0.52836 0.78627 0.0
C936 C 0.8463 0.5424 0.78258 0.0
C937 C 0.84499 0.56197 0.816 0.0
C938 C 0.85499 0.48365 0.67326 0.0
C939 C 0.86009 0.46405 0.69657 0.0
C940 C 0.85721 0.5046 0.70188 0.0
C941 C 0.86466 0.50642 0.75437 0.0
C942 C 0.87039 0.48691 0.77729 0.0
C943 C 0.86807 0.46595 0.74875 0.0
H944 H 0.12512 0.18519 0.79834 0.0
H945 H 0.13917 0.23833 0.70537 0.0
H946 H 0.12567 0.21189 0.87539 0.0
H947 H 0.1397 0.26533 0.78331 0.0
H948 H 0.14949 0.30476 0.95091 0.0
H949 H 0.15711 0.27797 0.87583 0.0
H950 H 0.0981 0.2413 0.89853 0.0
H951 H 0.09049 0.26776 0.97236 0.0
C952 C 0.12888 0.20254 0.7945 0.0
C953 C 0.13199 0.20958 0.74546 0.0
C954 C 0.12903 0.21791 0.83875 0.0
C955 C 0.13228 0.24086 0.83551 0.0
C956 C 0.13715 0.24777 0.78721 0.0
C957 C 0.13697 0.23228 0.74255 0.0
C958 C 0.13827 0.29086 0.93996 0.0
C959 C 0.11939 0.28843 0.96781 0.0
C960 C 0.14257 0.27561 0.89679 0.0
C961 C 0.12831 0.25736 0.88127 0.0
C962 C 0.10963 0.25492 0.90967 0.0
C963 C 0.10519 0.27023 0.95199 0.0
H964 H 0.09075 0.86243 0.13848 0.0
H965 H 0.03639 0.8785 0.03489 0.0
H966 H 0.06648 0.86524 0.21032 0.0
H967 H 0.01198 0.88099 0.10651 0.0
H968 H 0.97525 0.89795 0.25638 0.0
H969 H 1.00072 0.9001 0.187 0.0
H970 H 0.03775 0.84501 0.24161 0.0
H971 H 0.01293 0.84322 0.3105 0.0
C972 C 0.07363 0.86661 0.13092 0.0
C973 C 0.06564 0.87003 0.08045 0.0
C974 C 0.05957 0.86813 0.17227 0.0
C975 C 0.03698 0.87312 0.1647 0.0
C976 C 0.0292 0.87731 0.11447 0.0
C977 C 0.04328 0.8758 0.0731 0.0
C978 C 0.98896 0.88648 0.25379 0.0
C979 C 0.9919 0.87047 0.28948 0.0
C980 C 1.00354 0.88757 0.21367 0.0
C981 C 0.02157 0.87278 0.20827 0.0
C982 C 0.02449 0.85702 0.24451 0.0
C983 C 1.01 0.85589 0.28417 0.0
H984 H 0.39203 0.74198 0.48544 0.0
H985 H 0.42019 0.69698 0.36682 0.0
H986 H 0.38575 0.76949 0.42319 0.0
H987 H 0.41447 0.72452 0.30529 0.0
H988 H 0.39319 0.77419 0.19371 0.0
H989 H 0.38967 0.74545 0.25316 0.0
H990 H 0.40843 0.79402 0.38257 0.0
H991 H 0.41138 0.82252 0.32399 0.0
C992 C 0.39668 0.73784 0.44603 0.0
C993 C 0.40679 0.71731 0.43142 0.0
C994 C 0.39321 0.75368 0.41031 0.0
C995 C 0.39976 0.74939 0.35906 0.0
C996 C 0.40896 0.72842 0.34403 0.0
C997 C 0.41242 0.71263 0.37964 0.0
C998 C 0.3961 0.77879 0.23494 0.0
C999 C 0.40273 0.80067 0.25383 0.0
C1000 C 0.39428 0.76227 0.26907 0.0
C1001 C 0.3989 0.76729 0.32288 0.0
C1002 C 0.40447 0.78945 0.34168 0.0
C1003 C 0.40635 0.80584 0.30777 0.0
H1004 H 0.48141 0.13004 0.44931 0.0
H1005 H 0.43997 0.1652 0.55989 0.0
H1006 H 0.50844 0.12393 0.51992 0.0
H1007 H 0.46702 0.15995 0.62924 0.0
H1008 H 0.56327 0.14722 0.64573 0.0
H1009 H 0.53507 0.14457 0.57516 0.0
H1010 H 0.48534 0.13665 0.68404 0.0
H1011 H 0.51361 0.14023 0.75505 0.0
C1012 C 0.47791 0.13626 0.48856 0.0
C1013 C 0.45847 0.14824 0.49848 0.0
C1014 C 0.49353 0.13295 0.52914 0.0
C1015 C 0.49015 0.14159 0.58067 0.0
C1016 C 0.47026 0.15272 0.59056 0.0
C1017 C 0.45469 0.15591 0.55029 0.0
C1018 C 0.54634 0.14469 0.65469 0.0
C1019 C 0.54074 0.14419 0.70634 0.0
C1020 C 0.5301 0.14299 0.61392 0.0
C1021 C 0.50772 0.14058 0.62347 0.0
C1022 C 0.50227 0.13899 0.67499 0.0
C1023 C 0.51853 0.14088 0.71586 0.0
H1024 H 0.12191 0.77299 0.8674 0.0
H1025 H 0.11613 0.82889 0.77591 0.0
H1026 H 0.12512 0.74758 0.78809 0.0
H1027 H 0.11983 0.80382 0.69752 0.0
H1028 H 0.09551 0.75287 0.56583 0.0
H1029 H 0.09726 0.77719 0.64614 0.0
H1030 H 0.14555 0.734 0.71227 0.0
H1031 H 0.14343 0.70903 0.63085 0.0
C1032 C 0.12177 0.77997 0.83062 0.0
C1033 C 0.11856 0.8031 0.82846 0.0
C1034 C 0.12364 0.76535 0.78495 0.0
C1035 C 0.12235 0.77344 0.73579 0.0
C1036 C 0.12031 0.79672 0.73418 0.0
C1037 C 0.11835 0.81123 0.77952 0.0
C1038 C 0.10666 0.74845 0.59716 0.0
C1039 C 0.11939 0.72886 0.59131 0.0
C1040 C 0.10778 0.76263 0.64353 0.0
C1041 C 0.12173 0.75789 0.68617 0.0
C1042 C 0.13453 0.73826 0.68058 0.0
C1043 C 0.13344 0.72397 0.63369 0.0
H1044 H 0.48529 0.87525 0.10827 0.0
H1045 H 0.43203 0.87039 0.99027 0.0
H1046 H 0.51184 0.87235 0.04192 0.0
H1047 H 0.45887 0.86653 0.92312 0.0
H1048 H 0.51628 0.87515 0.8149 0.0
H1049 H 0.48858 0.88342 0.87924 0.0
H1050 H 0.52441 0.84276 0.9829 0.0
H1051 H 0.55192 0.83499 0.91997 0.0
C1052 C 0.47916 0.87376 0.06809 0.0
C1053 C 0.45639 0.87262 0.05482 0.0
C1054 C 0.49449 0.87182 1.02981 0.0
C1055 C 0.48763 0.86868 0.97687 0.0
C1056 C 0.46484 0.86885 0.96339 0.0
C1057 C 0.44942 0.87086 1.00193 0.0
C1058 C 0.51825 0.86811 0.85158 0.0
C1059 C 0.53647 0.8545 0.86216 0.0
C1060 C 0.5023 0.87274 0.88839 0.0
C1061 C 0.50428 0.86398 0.93674 0.0
C1062 C 0.52247 0.85029 0.94682 0.0
C1063 C 0.53827 0.84567 0.9103 0.0
H1064 H 0.39984 0.31294 0.1629 0.0
H1065 H 0.40103 0.26317 0.03078 0.0
H1066 H 0.39511 0.28374 0.21915 0.0
H1067 H 0.39549 0.23378 0.08706 0.0
H1068 H 0.37325 0.22964 0.30955 0.0
H1069 H 0.37163 0.25661 0.24569 0.0
H1070 H 0.41506 0.2151 0.1516 0.0
H1071 H 0.41595 0.18788 0.21467 0.0
C1072 C 0.39868 0.29576 0.14561 0.0
C1073 C 0.40089 0.29046 0.09222 0.0
C1074 C 0.39581 0.27893 0.17798 0.0
C1075 C 0.39489 0.25625 0.15792 0.0
C1076 C 0.39643 0.25099 0.10416 0.0
C1077 C 0.39943 0.26788 0.07174 0.0
C1078 C 0.38214 0.22608 0.27476 0.0
C1079 C 0.39477 0.20654 0.26736 0.0
C1080 C 0.38138 0.24167 0.23825 0.0
C1081 C 0.39346 0.23831 0.19355 0.0
C1082 C 0.40532 0.21826 0.18511 0.0
C1083 C 0.40588 0.20255 0.22144 0.0
H1084 H 1.00821 0.12846 0.22514 0.0
H1085 H 0.97272 0.17961 0.31465 0.0
H1086 H 0.03554 0.1272 0.29883 0.0
H1087 H 0.9994 0.17788 0.38781 0.0
H1088 H 0.03699 0.14944 0.52501 0.0
H1089 H 1.01133 0.14639 0.44877 0.0
H1090 H 0.06447 0.15831 0.35229 0.0
H1091 H 0.09031 0.16194 0.42904 0.0
C1092 C 1.00611 0.13922 0.26055 0.0
C1093 C 0.98827 0.15413 0.26395 0.0
C1094 C 0.0218 0.1386 0.30256 0.0
C1095 C 0.01958 0.15241 0.34918 0.0
C1096 C 1.00151 0.16694 0.35264 0.0
C1097 C 0.98626 0.16796 0.31053 0.0
C1098 C 0.04337 0.15116 0.48758 0.0
C1099 C 0.0658 0.15598 0.48341 0.0
C1100 C 0.02859 0.14946 0.44386 0.0
C1101 C 0.03586 0.15208 0.39448 0.0
C1102 C 0.05841 0.15604 0.38976 0.0
C1103 C 0.07318 0.15821 0.43379 0.0
H1104 H 0.889 0.78695 0.33296 0.0
H1105 H 0.91846 0.83571 0.24699 0.0
H1106 H 0.88583 0.76058 0.25386 0.0
H1107 H 0.91508 0.80979 0.16882 0.0
H1108 H 0.93891 0.74905 0.06906 0.0
H1109 H 0.93545 0.77564 0.14474 0.0
H1110 H 0.86951 0.75182 0.16054 0.0
H1111 H 0.87305 0.72466 0.08374 0.0
C1112 C 0.89427 0.79226 0.29706 0.0
C1113 C 0.90422 0.81337 0.29653 0.0
C1114 C 0.89248 0.77714 0.25173 0.0
C1115 C 0.90061 0.78288 0.20511 0.0
C1116 C 0.90914 0.80456 0.20418 0.0
C1117 C 0.91096 0.81951 0.2491 0.0
C1118 C 0.92358 0.74938 0.08834 0.0
C1119 C 0.90624 0.73465 0.07004 0.0
C1120 C 0.92155 0.76482 0.13176 0.0
C1121 C 0.90213 0.76608 0.15869 0.0
C1122 C 0.88472 0.75127 0.1408 0.0
C1123 C 0.88669 0.73582 0.09664 0.0
H1124 H 0.05502 0.11985 0.77938 0.0
H1125 H 0.02448 0.18351 0.75977 0.0
H1126 H 0.02785 0.11263 0.84209 0.0
H1127 H 0.99719 0.17606 0.82117 0.0
H1128 H 0.93986 0.1455 0.89841 0.0
H1129 H 0.96533 0.14755 0.82958 0.0
H1130 H 0.0195 0.13208 0.9343 0.0
H1131 H 0.9943 0.13094 1.00372 0.0
C1132 C 0.04238 0.13216 0.78795 0.0
C1133 C 0.04198 0.15229 0.76473 0.0
C1134 C 0.02688 0.12806 0.82395 0.0
C1135 C 1.01032 0.14374 0.83645 0.0
C1136 C 1.00959 0.16355 0.81204 0.0
C1137 C 0.02533 0.16787 0.77708 0.0
C1138 C 0.95718 0.14255 0.90688 0.0
C1139 C 0.96501 0.13863 0.95716 0.0
C1140 C 0.97177 0.14365 0.86733 0.0
C1141 C 0.99447 0.14019 0.87663 0.0
C1142 C 1.00211 0.13479 0.92585 0.0
C1143 C 0.98761 0.13416 0.96568 0.0
H1144 H 0.63112 0.23159 0.85447 0.0
H1145 H 0.60978 0.18021 0.73342 0.0
H1146 H 0.63002 0.25901 0.79209 0.0
H1147 H 0.60804 0.20801 0.67081 0.0
H1148 H 0.59519 0.30655 0.68895 0.0
H1149 H 0.60111 0.27762 0.74661 0.0
H1150 H 0.62815 0.23446 0.62307 0.0
H1151 H 0.62188 0.26368 0.56442 0.0
C1152 C 0.62631 0.22601 0.81443 0.0
C1153 C 0.62014 0.20359 0.79944 0.0
C1154 C 0.6255 0.24188 0.77857 0.0
C1155 C 0.61851 0.23594 0.72637 0.0
C1156 C 0.61349 0.21328 0.71061 0.0
C1157 C 0.61431 0.19732 0.74669 0.0
C1158 C 0.60254 0.29099 0.67384 0.0
C1159 C 0.60811 0.28758 0.62184 0.0
C1160 C 0.60607 0.27435 0.70723 0.0
C1161 C 0.61529 0.25363 0.68989 0.0
C1162 C 0.62093 0.25014 0.63781 0.0
C1163 C 0.61748 0.26696 0.60425 0.0
H1164 H 0.5008 0.83684 0.3186 0.0
H1165 H 0.4652 0.89387 0.38489 0.0
H1166 H 0.52656 0.83968 0.39353 0.0
H1167 H 0.4916 0.89689 0.46119 0.0
H1168 H 0.53085 0.87531 0.61323 0.0
H1169 H 0.50448 0.87785 0.53887 0.0
H1170 H 0.5563 0.86187 0.43504 0.0
H1171 H 0.58236 0.85909 0.50854 0.0
C1172 C 0.49846 0.85018 0.34911 0.0
C1173 C 0.48071 0.86513 0.34507 0.0
C1174 C 0.5135 0.8519 0.39236 0.0
C1175 C 0.51152 0.86863 0.43393 0.0
C1176 C 0.49374 0.8837 0.43026 0.0
C1177 C 0.47864 0.88209 0.38625 0.0
C1178 C 0.53673 0.87267 0.57457 0.0
C1179 C 0.55894 0.86684 0.56752 0.0
C1180 C 0.52152 0.87416 0.53169 0.0
C1181 C 0.52798 0.86974 0.48035 0.0
C1182 C 0.55039 0.86491 0.47361 0.0
C1183 C 0.56551 0.86347 0.51618 0.0
H1184 H 0.89516 0.23088 0.14448 0.0
H1185 H 0.90277 0.17903 0.24712 0.0
H1186 H 0.88887 0.25825 0.21888 0.0
H1187 H 0.89634 0.20618 0.32101 0.0
H1188 H 0.92184 0.29807 0.37098 0.0
H1189 H 0.91623 0.27298 0.2915 0.0
H1190 H 0.87024 0.23393 0.36564 0.0
H1191 H 0.87572 0.25941 0.44567 0.0
C1192 C 0.89477 0.22519 0.18261 0.0
C1193 C 0.89955 0.20282 0.18993 0.0
C1194 C 0.89135 0.24088 0.22528 0.0
C1195 C 0.89225 0.23442 0.27596 0.0
C1196 C 0.89536 0.21171 0.28259 0.0
C1197 C 0.89914 0.19616 0.24019 0.0
C1198 C 0.91021 0.28437 0.37014 0.0
C1199 C 0.89931 0.28064 0.41473 0.0
C1200 C 0.90687 0.27007 0.32437 0.0
C1201 C 0.89279 0.25143 0.32214 0.0
C1202 C 0.88124 0.24813 0.36618 0.0
C1203 C 0.88429 0.26275 0.4119 0.0
H1204 H 0.53041 0.12895 0.95328 0.0
H1205 H 0.57397 0.16041 0.07685 0.0
H1206 H 0.50289 0.12376 1.01609 0.0
H1207 H 0.54649 0.15619 0.13841 0.0
H1208 H 0.49893 0.13729 0.25078 0.0
H1209 H 0.52691 0.13358 0.187 0.0
H1210 H 0.47733 0.14431 0.06617 0.0
H1211 H 0.44937 0.14702 0.12952 0.0
C1212 C 0.53425 0.13456 0.99375 0.0
C1213 C 0.5545 0.14517 1.00957 0.0
C1214 C 0.51834 0.1318 1.02987 0.0
C1215 C 0.52221 0.13965 0.08278 0.0
C1216 C 0.5428 0.14954 0.09853 0.0
C1217 C 0.55865 0.15215 0.06272 0.0
C1218 C 0.49395 0.13851 0.21048 0.0
C1219 C 0.47184 0.14256 0.19555 0.0
C1220 C 0.51007 0.13658 0.17374 0.0
C1221 C 0.50463 0.13892 0.12101 0.0
C1222 C 0.48232 0.14213 0.10598 0.0
C1223 C 0.4662 0.14383 0.14261 0.0
H1224 H 0.64976 0.71968 0.96958 0.0
H1225 H 0.58978 0.75241 1.01525 0.0
H1226 H 0.65373 0.74665 0.90524 0.0
H1227 H 0.59364 0.77885 0.95208 0.0
H1228 H 0.61371 0.83608 0.86519 0.0
H1229 H 0.61487 0.81038 0.93209 0.0
H1230 H 0.63628 0.75737 0.82181 0.0
H1231 H 0.63502 0.78314 0.75466 0.0
C1232 C 0.63758 0.73268 0.96643 0.0
C1233 C 0.61945 0.73369 0.99793 0.0
C1234 C 0.63973 0.74809 0.9292 0.0
C1235 C 0.62404 0.76518 0.92313 0.0
C1236 C 0.60628 0.76632 0.9556 0.0
C1237 C 0.604 0.75089 0.99192 0.0
C1238 C 0.61874 0.81899 0.85504 0.0
C1239 C 0.62401 0.81182 0.80395 0.0
C1240 C 0.61937 0.80412 0.89359 0.0
C1241 C 0.62548 0.78152 0.88274 0.0
C1242 C 0.63164 0.77458 0.83213 0.0
C1243 C 0.63085 0.78944 0.79339 0.0
H1244 H 0.98745 0.88899 0.53804 0.0
H1245 H 0.94002 0.85252 0.61431 0.0
H1246 H 0.01268 0.89002 0.61495 0.0
H1247 H 0.96504 0.8539 0.6913 0.0
H1248 H 0.02593 0.83149 0.78398 0.0
H1249 H 0.99885 0.83574 0.71368 0.0
H1250 H 0.02118 0.90348 0.70685 0.0
H1251 H 0.04887 0.89906 0.77794 0.0
C1252 C 0.98217 0.88155 0.57149 0.0
C1253 C 0.96162 0.87056 0.56953 0.0
C1254 C 0.99668 0.88222 0.61583 0.0
C1255 C 0.99113 0.87183 0.65946 0.0
C1256 C 0.97015 0.86174 0.65826 0.0
C1257 C 0.95565 0.86111 0.61406 0.0
C1258 C 0.02514 0.8474 0.76787 0.0
C1259 C 0.03977 0.86492 0.7868 0.0
C1260 C 1.00935 0.8499 0.72756 0.0
C1261 C 1.00758 0.87 0.70437 0.0
C1262 C 0.02209 0.88769 0.72346 0.0
C1263 C 0.0379 0.88523 0.76443 0.0
H1264 H 0.62735 0.74041 0.25012 0.0
H1265 H 0.62133 0.68267 0.33416 0.0
H1266 H 0.62984 0.76459 0.33139 0.0
H1267 H 0.62463 0.70672 0.41579 0.0
H1268 H 0.60343 0.75704 0.54684 0.0
H1269 H 0.6043 0.73256 0.46672 0.0
H1270 H 0.65001 0.77759 0.40872 0.0
H1271 H 0.64839 0.80265 0.48874 0.0
C1272 C 0.627 0.73279 0.28604 0.0
C1273 C 0.62404 0.70955 0.28544 0.0
C1274 C 0.62851 0.74672 0.33292 0.0
C1275 C 0.62729 0.7378 0.38073 0.0
C1276 C 0.62515 0.7144 0.38002 0.0
C1277 C 0.62344 0.70051 0.33309 0.0
C1278 C 0.6138 0.76173 0.51719 0.0
C1279 C 0.62587 0.78189 0.52448 0.0
C1280 C 0.61443 0.74751 0.47108 0.0
C1281 C 0.62732 0.75285 0.43074 0.0
C1282 C 0.63963 0.77294 0.43833 0.0
C1283 C 0.63885 0.7873 0.48447 0.0
H1284 H 0.59093 0.36782 0.63118 0.0
H1285 H 0.53684 0.38535 0.52846 0.0
H1286 H 0.56629 0.3687 0.7021 0.0
H1287 H 0.51211 0.38628 0.59962 0.0
H1288 H 0.47579 0.39988 0.75314 0.0
H1289 H 0.50144 0.40436 0.68494 0.0
H1290 H 0.5368 0.34586 0.7259 0.0
H1291 H 0.51165 0.34154 0.79314 0.0
C1292 C 0.5738 0.37198 0.62364 0.0
C1293 C 0.56598 0.37623 0.57356 0.0
C1294 C 0.55956 0.37243 0.66448 0.0
C1295 C 0.53697 0.37731 0.65691 0.0
C1296 C 0.52934 0.38257 0.60736 0.0
C1297 C 0.54359 0.38199 0.56634 0.0
C1298 C 0.48918 0.38815 0.74784 0.0
C1299 C 0.49151 0.37035 0.77896 0.0
C1300 C 0.50384 0.3906 0.70842 0.0
C1301 C 0.52142 0.37553 0.69962 0.0
C1302 C 0.52382 0.35805 0.73156 0.0
C1303 C 0.50916 0.35549 0.77021 0.0
H1304 H 0.88502 0.23665 0.94886 0.0
H1305 H 0.91987 0.19981 0.82776 0.0
H1306 H 0.87286 0.26347 0.88845 0.0
H1307 H 0.90804 0.22659 0.76797 0.0
H1308 H 0.8774 0.27186 0.65893 0.0
H1309 H 0.87792 0.24259 0.71806 0.0
H1310 H 0.89085 0.29264 0.84795 0.0
H1311 H 0.89008 0.32162 0.78915 0.0
C1312 C 0.88988 0.2341 0.90927 0.0
C1313 C 0.90358 0.21613 0.89342 0.0
C1314 C 0.88298 0.24953 0.87462 0.0
C1315 C 0.88947 0.24729 0.82315 0.0
C1316 C 0.90241 0.22877 0.80692 0.0
C1317 C 0.90939 0.21347 0.84152 0.0
C1318 C 0.87949 0.27664 0.70026 0.0
C1319 C 0.88364 0.29907 0.71934 0.0
C1320 C 0.88012 0.25985 0.73418 0.0
C1321 C 0.88472 0.26516 0.78791 0.0
C1322 C 0.88711 0.28783 0.80707 0.0
C1323 C 0.88668 0.30451 0.77325 0.0
H1324 H 0.06364 0.62369 0.1506 0.0
H1325 H 0.01808 0.65868 0.25095 0.0
H1326 H 0.03593 0.62231 0.07852 0.0
H1327 H 0.99091 0.65857 0.17891 0.0
H1328 H 0.93917 0.64717 0.05166 0.0
H1329 H 0.96557 0.63997 0.12182 0.0
H1330 H 0.01862 0.64357 1.01916 0.0
H1331 H 0.99184 0.64932 0.94828 0.0
C1332 C 0.04766 0.63102 0.15731 0.0
C1333 C 0.04308 0.64121 0.20667 0.0
C1334 C 0.03177 0.63045 0.11576 0.0
C1335 C 1.01097 0.64041 0.12217 0.0
C1336 C 1.00639 0.65023 0.17205 0.0
C1337 C 0.02211 0.65043 0.21367 0.0
C1338 C 0.95646 0.64598 0.04392 0.0
C1339 C 0.9634 0.64884 0.99442 0.0
C1340 C 0.97172 0.64211 0.08442 0.0
C1341 C 0.9945 0.6416 0.07706 0.0
C1342 C 1.00132 0.64357 1.02673 0.0
C1343 C 0.98594 0.64693 0.98585 0.0
H1344 H 0.61903 0.27833 0.37248 0.0
H1345 H 0.61831 0.33069 0.27069 0.0
H1346 H 0.62167 0.25031 0.29791 0.0
H1347 H 0.62139 0.30256 0.19614 0.0
H1348 H 0.64305 0.24263 0.07745 0.0
H1349 H 0.64671 0.27056 0.15419 0.0
H1350 H 0.59394 0.23816 0.222 0.0
H1351 H 0.58995 0.21096 0.14567 0.0
C1352 C 0.61992 0.28398 0.33443 0.0
C1353 C 0.61844 0.30694 0.32805 0.0
C1354 C 0.6213 0.26783 0.29148 0.0
C1355 C 0.62169 0.27408 0.24075 0.0
C1356 C 0.62129 0.29708 0.23453 0.0
C1357 C 0.61945 0.31324 0.27742 0.0
C1358 C 0.63248 0.24134 0.10911 0.0
C1359 C 0.61626 0.22445 0.10532 0.0
C1360 C 0.63444 0.25744 0.15293 0.0
C1361 C 0.62065 0.25664 0.19458 0.0
C1362 C 0.60499 0.23926 0.19117 0.0
C1363 C 0.60268 0.22365 0.14716 0.0
H1364 H 0.97447 0.37655 0.56274 0.0
H1365 H 0.92941 0.34389 0.44417 0.0
H1366 H 1.00051 0.38201 0.49778 0.0
H1367 H 0.95611 0.34783 0.3795 0.0
H1368 H 1.00436 0.36769 0.26428 0.0
H1369 H 0.97577 0.3688 0.32701 0.0
H1370 H 0.02588 0.36257 0.44965 0.0
H1371 H 0.05404 0.3626 0.38798 0.0
C1372 C 0.9701 0.37043 0.52278 0.0
C1373 C 0.94991 0.35937 0.50917 0.0
C1374 C 0.98523 0.37335 0.48529 0.0
C1375 C 0.98089 0.36493 0.43294 0.0
C1376 C 0.96024 0.35469 0.41904 0.0
C1377 C 0.94492 0.35216 0.45648 0.0
C1378 C 1.00921 0.36688 0.30479 0.0
C1379 C 0.03159 0.36514 0.32085 0.0
C1380 C 0.99278 0.36731 0.34091 0.0
C1381 C 0.99825 0.36581 0.39404 0.0
C1382 C 0.02073 0.36431 0.40972 0.0
C1383 C 0.03705 0.36414 0.37392 0.0
H1384 H 0.90267 0.68072 0.71097 0.0
H1385 H 0.88958 0.73785 0.81959 0.0
H1386 H 0.9072 0.70555 0.64353 0.0
H1387 H 0.89289 0.76246 0.7511 0.0
H1388 H 0.88454 0.79244 0.58583 0.0
H1389 H 0.87423 0.76682 0.64858 0.0
H1390 H 0.93973 0.73934 0.64979 0.0
H1391 H 0.95026 0.76517 0.58886 0.0
C1392 C 0.90057 0.69849 0.72043 0.0
C1393 C 0.89649 0.70728 0.77121 0.0
C1394 C 0.90296 0.71267 0.68166 0.0
C1395 C 0.90055 0.73589 0.69237 0.0
C1396 C 0.89479 0.74459 0.74191 0.0
C1397 C 0.89291 0.73045 0.78107 0.0
C1398 C 0.89667 0.78087 0.59944 0.0
C1399 C 0.91821 0.78085 0.58253 0.0
C1400 C 0.89078 0.7663 0.63531 0.0
C1401 C 0.90617 0.75107 0.65358 0.0
C1402 C 0.92753 0.7508 0.6359 0.0
C1403 C 0.93355 0.76567 0.60124 0.0
H1404 H 0.58385 0.6527 0.97127 0.0
H1405 H 0.52844 0.64794 0.06593 0.0
H1406 H 0.55945 0.64781 0.89359 0.0
H1407 H 0.50363 0.64357 0.98744 0.0
H1408 H 0.46724 0.62348 0.82565 0.0
H1409 H 0.49125 0.62156 0.90444 0.0
H1410 H 0.53347 0.67221 0.85587 0.0
H1411 H 0.51004 0.67382 0.77778 0.0
C1412 C 0.56642 0.65035 0.97549 0.0
C1413 C 0.5581 0.65093 1.02491 0.0
C1414 C 0.55236 0.64772 0.93083 0.0
C1415 C 0.52945 0.64584 0.93409 0.0
C1416 C 0.52118 0.64498 0.9834 0.0
C1417 C 0.53538 0.64745 1.02842 0.0
C1418 C 0.48174 0.63408 0.8318 0.0
C1419 C 0.48675 0.64869 0.79509 0.0
C1420 C 0.49543 0.63306 0.87709 0.0
C1421 C 0.51449 0.64654 0.88642 0.0
C1422 C 0.51928 0.66118 0.84967 0.0
C1423 C 0.50568 0.66222 0.8048 0.0
H1424 H 0.42103 0.33213 0.74984 0.0
H1425 H 0.3981 0.28017 0.83692 0.0
H1426 H 0.41645 0.3072 0.67047 0.0
H1427 H 0.3936 0.25487 0.75626 0.0
H1428 H 0.37496 0.22265 0.58484 0.0
H1429 H 0.37354 0.24801 0.66519 0.0
H1430 H 0.43778 0.2739 0.64011 0.0
H1431 H 0.43918 0.24896 0.56077 0.0
C1432 C 0.41481 0.31539 0.7521 0.0
C1433 C 0.41025 0.30809 0.80009 0.0
C1434 C 0.41224 0.30106 0.7064 0.0
C1435 C 0.40506 0.2789 0.70706 0.0
C1436 C 0.39918 0.27186 0.75448 0.0
C1437 C 0.40177 0.28634 0.80066 0.0
C1438 C 0.38868 0.23388 0.59647 0.0
C1439 C 0.40714 0.23382 0.56621 0.0
C1440 C 0.38793 0.24827 0.64263 0.0
C1441 C 0.40548 0.26308 0.6589 0.0
C1442 C 0.42383 0.26296 0.62841 0.0
C1443 C 0.42467 0.24854 0.58291 0.0
H1444 H 0.49093 0.6361 0.56024 0.0
H1445 H 0.43783 0.64239 0.44486 0.0
H1446 H 0.51755 0.63883 0.49551 0.0
H1447 H 0.46482 0.64615 0.37989 0.0
H1448 H 0.5218 0.63828 0.26868 0.0
H1449 H 0.49449 0.62877 0.3287 0.0
H1450 H 0.52984 0.66979 0.45291 0.0
H1451 H 0.55711 0.67878 0.39386 0.0
C1452 C 0.48485 0.63793 0.52091 0.0
C1453 C 0.46216 0.63972 0.50815 0.0
C1454 C 0.50021 0.6397 0.48379 0.0
C1455 C 0.49339 0.64331 0.43278 0.0
C1456 C 0.47066 0.64351 0.41893 0.0
C1457 C 0.45519 0.64161 0.45626 0.0
C1458 C 0.5238 0.64506 0.30894 0.0
C1459 C 0.54171 0.6592 0.32649 0.0
C1460 C 0.50808 0.63974 0.34322 0.0
C1461 C 0.51003 0.64837 0.39573 0.0
C1462 C 0.52802 0.66243 0.41304 0.0
C1463 C 0.54364 0.66772 0.37898 0.0
H1464 H 0.14002 0.72604 0.35237 0.0
H1465 H 0.11044 0.67608 0.23776 0.0
H1466 H 0.13803 0.75325 0.28939 0.0
H1467 H 0.10826 0.70361 0.1745 0.0
H1468 H 0.12232 0.75805 0.0647 0.0
H1469 H 0.12956 0.72878 0.12268 0.0
H1470 H 0.10673 0.77273 0.25032 0.0
H1471 H 0.0997 0.80175 0.19312 0.0
C1472 C 0.13332 0.72072 0.31352 0.0
C1473 C 0.1251 0.69885 0.30051 0.0
C1474 C 0.13206 0.73643 0.27743 0.0
C1475 C 0.12265 0.73075 0.22711 0.0
C1476 C 0.11563 0.70853 0.21294 0.0
C1477 C 0.11683 0.69275 0.24928 0.0
C1478 C 0.11906 0.76149 0.10525 0.0
C1479 C 0.1105 0.7823 0.12423 0.0
C1480 C 0.12306 0.74467 0.13837 0.0
C1481 C 0.11886 0.74844 0.19125 0.0
C1482 C 0.11052 0.76935 0.21007 0.0
C1483 C 0.10637 0.78599 0.17708 0.0
H1484 H 0.07237 0.34658 0.9614 0.0
H1485 H 0.02523 0.37964 0.06068 0.0
H1486 H 0.04709 0.34882 0.88692 0.0
H1487 H 0.99991 0.38275 0.9849 0.0
H1488 H 0.95086 0.36395 0.84178 0.0
H1489 H 0.97534 0.36422 0.92023 0.0
H1490 H 0.03146 0.37125 0.82866 0.0
H1491 H 1.00721 0.36995 0.75094 0.0
C1492 C 0.05673 0.35475 0.96748 0.0
C1493 C 0.05113 0.36308 1.01769 0.0
C1494 C 0.04209 0.35616 0.92417 0.0
C1495 C 0.02124 0.3662 0.9289 0.0
C1496 C 0.01562 0.37469 0.97916 0.0
C1497 C 0.0303 0.3731 1.02284 0.0
C1498 C 0.96843 0.36568 0.83857 0.0
C1499 C 0.97696 0.36674 0.78966 0.0
C1500 C 0.98257 0.36592 0.88377 0.0
C1501 C 1.00568 0.36743 0.8815 0.0
C1502 C 0.01397 0.36937 0.83258 0.0
C1503 C 0.99993 0.36884 0.78763 0.0
H1504 H 0.40863 0.68869 0.79389 0.0
H1505 H 0.39377 0.73603 0.6828 0.0
H1506 H 0.4038 0.71758 0.86439 0.0
H1507 H 0.38831 0.76516 0.75408 0.0
H1508 H 0.38673 0.77065 0.9879 0.0
H1509 H 0.38057 0.74281 0.91293 0.0
H1510 H 0.41258 0.78625 0.81764 0.0
H1511 H 0.41817 0.81413 0.89182 0.0
C1512 C 0.40385 0.70521 0.78441 0.0
C1513 C 0.40186 0.71006 0.73252 0.0
C1514 C 0.40088 0.72182 0.82509 0.0
C1515 C 0.39583 0.74385 0.81524 0.0
C1516 C 0.39253 0.74845 0.7632 0.0
C1517 C 0.39544 0.73171 0.72226 0.0
C1518 C 0.3921 0.7744 0.95074 0.0
C1519 C 0.40315 0.79455 0.94614 0.0
C1520 C 0.38868 0.75838 0.90773 0.0
C1521 C 0.39625 0.76211 0.85908 0.0
C1522 C 0.40629 0.78279 0.85411 0.0
C1523 C 0.40967 0.79876 0.89697 0.0
H1524 H 0.9996 0.64157 0.74926 0.0
H1525 H 0.94939 0.65118 0.62925 0.0
H1526 H 0.02719 0.63772 0.68466 0.0
H1527 H 0.97704 0.6482 0.56494 0.0
H1528 H 0.03081 0.63189 0.45253 0.0
H1529 H 1.00315 0.6268 0.51529 0.0
H1530 H 0.04531 0.66221 0.6363 0.0
H1531 H 0.07282 0.66655 0.57499 0.0
C1532 C 0.9944 0.64272 0.70905 0.0
C1533 C 0.97228 0.64689 0.69465 0.0
C1534 C 1.01027 0.64067 0.67191 0.0
C1535 C 1.00451 0.64299 0.61939 0.0
C1536 C 0.98217 0.64612 0.60473 0.0
C1537 C 0.96628 0.64798 0.64183 0.0
C1538 C 0.03425 0.63828 0.49269 0.0
C1539 C 0.0541 0.64968 0.50837 0.0
C1540 C 0.01832 0.63551 0.52869 0.0
C1541 C 0.0219 0.64407 0.58118 0.0
C1542 C 0.04199 0.65496 0.59671 0.0
C1543 C 0.05781 0.65765 0.56107 0.0
H1544 H 0.10702 0.34579 0.32181 0.0
H1545 H 0.12928 0.29056 0.21876 0.0
H1546 H 0.10542 0.32122 0.39088 0.0
H1547 H 0.12891 0.26636 0.28884 0.0
H1548 H 0.1409 0.23606 0.44976 0.0
H1549 H 0.14664 0.26185 0.38388 0.0
H1550 H 0.08046 0.28639 0.39897 0.0
H1551 H 0.07456 0.26054 0.46314 0.0
C1552 C 0.11152 0.32845 0.31371 0.0
C1553 C 0.11753 0.32013 0.26392 0.0
C1554 C 0.11084 0.31439 0.35356 0.0
C1555 C 0.11686 0.29173 0.34534 0.0
C1556 C 0.1242 0.28371 0.29658 0.0
C1557 C 0.12439 0.29766 0.25634 0.0
C1558 C 0.12765 0.24704 0.43913 0.0
C1559 C 0.10726 0.24614 0.46182 0.0
C1560 C 0.1309 0.26175 0.40126 0.0
C1561 C 0.11402 0.27628 0.38628 0.0
C1562 C 0.09387 0.27563 0.40986 0.0
C1563 C 0.09048 0.26067 0.44657 0.0
H1564 H 0.48678 0.39346 0.03733 0.0
H1565 H 0.43932 0.35694 0.11304 0.0
H1566 H 0.51037 0.39749 0.11676 0.0
H1567 H 0.46328 0.35983 0.19155 0.0
H1568 H 0.50344 0.38096 0.34037 0.0
H1569 H 0.47864 0.38164 0.26357 0.0
H1570 H 0.53452 0.37775 0.16773 0.0
H1571 H 0.55927 0.37816 0.24494 0.0
C1572 C 0.48131 0.38631 0.07097 0.0
C1573 C 0.46109 0.37477 0.06844 0.0
C1574 C 0.49501 0.3884 0.11659 0.0
C1575 C 0.48905 0.37878 0.16102 0.0
C1576 C 0.4685 0.36776 0.15875 0.0
C1577 C 0.45469 0.36594 0.11332 0.0
C1578 C 0.51045 0.38044 0.30292 0.0
C1579 C 0.53341 0.37956 0.29901 0.0
C1580 C 0.49617 0.38063 0.25859 0.0
C1581 C 0.50437 0.37966 0.2088 0.0
C1582 C 0.52742 0.37894 0.20511 0.0
C1583 C 0.5417 0.37903 0.24955 0.0
loop_
_geom_bond_atom_site_label_1
_geom_bond_atom_site_label_2
_geom_bond_distance
_geom_bond_site_symmetry_2
_ccdc_geom_bond_type
O0 Tb1 2.292 . S
O0 C3 1.255 . S
Tb1 O0 2.292 . S
Tb1 O17 2.326 . S
Tb1 O19 2.500 . S
Tb1 O20 2.473 . S
Tb1 O23 2.324 . S
Eu2 O6 2.292 1_554 S
Eu2 C7 2.852 . S
Eu2 O18 2.324 . S
Eu2 O22 2.326 . S
Eu2 O24 2.500 . S
Eu2 O25 2.473 . S
C3 O0 1.255 . S
C3 O4 1.247 . S
O4 C3 1.247 . S
C5 O17 1.242 . S
C5 O18 1.258 . S
O6 Eu2 2.292 1_556 S
O6 C8 1.255 . S
C7 Eu2 2.852 . S
C7 C11 1.503 . S
C7 O24 1.273 . S
C7 O25 1.257 . S
C8 O6 1.255 . S
C8 O9 1.247 . S
O9 C8 1.247 . S
C10 O22 1.242 . S
C10 O23 1.258 . S
C11 C7 1.503 . S
C11 C12 1.379 . S
C11 C16 1.392 . S
C12 C11 1.379 . S
C12 C13 1.404 . S
C12 H26 0.929 . S
C13 C12 1.404 . S
C13 C14 1.389 . S
C14 C13 1.389 . S
C14 C15 1.399 . S
C14 H27 0.931 . S
C15 C14 1.399 . S
C15 C16 1.390 . S
C16 C11 1.392 . S
C16 C15 1.390 . S
C16 H28 0.929 . S
O17 Tb1 2.326 . S
O17 C5 1.242 . S
O18 Eu2 2.324 . S
O18 C5 1.258 . S
O19 Tb1 2.500 . S
O19 C21 1.273 . S
O20 Tb1 2.473 . S
O20 C21 1.257 . S
C21 O19 1.273 . S
C21 O20 1.257 . S
O22 Eu2 2.326 . S
O22 C10 1.242 . S
O23 Tb1 2.324 . S
O23 C10 1.258 . S
O24 Eu2 2.500 . S
O24 C7 1.273 . S
O25 Eu2 2.473 . S
O25 C7 1.257 . S
H26 C12 0.929 . S
H27 C14 0.931 . S
H28 C16 0.929 . S
O29 Tb30 2.292 . S
O29 C32 1.255 . S
Tb30 O29 2.292 . S
Tb30 O46 2.326 . S
Tb30 O48 2.500 . S
Tb30 O49 2.473 . S
Tb30 O52 2.324 . S
Eu31 O35 2.292 . S
Eu31 C36 2.852 . S
Eu31 O47 2.324 . S
Eu31 O51 2.326 . S
Eu31 O53 2.500 . S
Eu31 O54 2.473 . S
C32 O29 1.255 . S
C32 O33 1.247 . S
O33 C32 1.247 . S
C34 O46 1.242 . S
C34 O47 1.258 . S
O35 Eu31 2.292 . S
O35 C37 1.255 . S
C36 Eu31 2.852 . S
C36 C40 1.503 . S
C36 O53 1.273 . S
C36 O54 1.257 . S
C37 O35 1.255 . S
C37 O38 1.247 . S
O38 C37 1.247 . S
C39 O51 1.242 . S
C39 O52 1.258 . S
C40 C36 1.503 . S
C40 C41 1.379 . S
C40 C45 1.392 . S
C41 C40 1.379 . S
C41 C42 1.404 . S
C41 H55 0.929 . S
C42 C41 1.404 . S
C42 C43 1.389 . S
C43 C42 1.389 . S
C43 C44 1.399 . S
C43 H56 0.931 . S
C44 C43 1.399 . S
C44 C45 1.390 . S
C45 C40 1.392 . S
C45 C44 1.390 . S
C45 H57 0.929 . S
O46 Tb30 2.326 . S
O46 C34 1.242 . S
O47 Eu31 2.324 . S
O47 C34 1.258 . S
O48 Tb30 2.500 . S
O48 C50 1.273 . S
O49 Tb30 2.473 . S
O49 C50 1.257 . S
C50 O48 1.273 . S
C50 O49 1.257 . S
O51 Eu31 2.326 . S
O51 C39 1.242 . S
O52 Tb30 2.324 . S
O52 C39 1.258 . S
O53 Eu31 2.500 . S
O53 C36 1.273 . S
O54 Eu31 2.473 . S
O54 C36 1.257 . S
H55 C41 0.929 . S
H56 C43 0.931 . S
H57 C45 0.929 . S
O58 Tb59 2.292 . S
O58 C61 1.255 . S
Tb59 O58 2.292 . S
Tb59 O75 2.326 . S
Tb59 O77 2.500 . S
Tb59 O78 2.473 . S
Tb59 O81 2.324 . S
Eu60 O64 2.292 . S
Eu60 C65 2.852 . S
Eu60 O76 2.324 . S
Eu60 O80 2.326 . S
Eu60 O82 2.500 . S
Eu60 O83 2.473 . S
C61 O58 1.255 . S
C61 O62 1.247 . S
O62 C61 1.247 . S
C63 O75 1.242 . S
C63 O76 1.258 . S
O64 Eu60 2.292 . S
O64 C66 1.255 . S
C65 Eu60 2.852 . S
C65 C69 1.503 . S
C65 O82 1.273 . S
C65 O83 1.257 . S
C66 O64 1.255 . S
C66 O67 1.247 . S
O67 C66 1.247 . S
C68 O80 1.242 . S
C68 O81 1.258 . S
C69 C65 1.503 . S
C69 C70 1.379 . S
C69 C74 1.392 . S
C70 C69 1.379 . S
C70 C71 1.404 . S
C70 H84 0.929 . S
C71 C70 1.404 . S
C71 C72 1.389 . S
C72 C71 1.389 . S
C72 C73 1.399 . S
C72 H85 0.931 . S
C73 C72 1.399 . S
C73 C74 1.390 . S
C74 C69 1.392 . S
C74 C73 1.390 . S
C74 H86 0.929 . S
O75 Tb59 2.326 . S
O75 C63 1.242 . S
O76 Eu60 2.324 . S
O76 C63 1.258 . S
O77 Tb59 2.500 . S
O77 C79 1.273 . S
O78 Tb59 2.473 . S
O78 C79 1.257 . S
C79 O77 1.273 . S
C79 O78 1.257 . S
O80 Eu60 2.326 . S
O80 C68 1.242 . S
O81 Tb59 2.324 . S
O81 C68 1.258 . S
O82 Eu60 2.500 . S
O82 C65 1.273 . S
O83 Eu60 2.473 . S
O83 C65 1.257 . S
H84 C70 0.929 . S
H85 C72 0.931 . S
H86 C74 0.929 . S
O87 Tb88 2.292 . S
O87 C90 1.255 . S
Tb88 O87 2.292 . S
Tb88 O104 2.326 . S
Tb88 O106 2.500 . S
Tb88 O107 2.473 . S
Tb88 O110 2.324 . S
Eu89 O93 2.292 1_556 S
Eu89 C94 2.852 . S
Eu89 O105 2.324 . S
Eu89 O109 2.326 . S
Eu89 O111 2.500 . S
Eu89 O112 2.473 . S
C90 O87 1.255 . S
C90 O91 1.247 . S
O91 C90 1.247 . S
C92 O104 1.242 . S
C92 O105 1.258 . S
O93 Eu89 2.292 1_554 S
O93 C95 1.255 . S
C94 Eu89 2.852 . S
C94 C98 1.503 . S
C94 O111 1.273 . S
C94 O112 1.257 . S
C95 O93 1.255 . S
C95 O96 1.247 . S
O96 C95 1.247 . S
C97 O109 1.242 . S
C97 O110 1.258 . S
C98 C94 1.503 . S
C98 C99 1.379 . S
C98 C103 1.392 . S
C99 C98 1.379 . S
C99 C100 1.404 . S
C99 H113 0.929 . S
C100 C99 1.404 . S
C100 C101 1.389 . S
C101 C100 1.389 . S
C101 C102 1.399 . S
C101 H114 0.931 . S
C102 C101 1.399 . S
C102 C103 1.390 . S
C103 C98 1.392 . S
C103 C102 1.390 . S
C103 H115 0.929 . S
O104 Tb88 2.326 . S
O104 C92 1.242 . S
O105 Eu89 2.324 . S
O105 C92 1.258 . S
O106 Tb88 2.500 . S
O106 C108 1.273 . S
O107 Tb88 2.473 . S
O107 C108 1.257 . S
C108 O106 1.273 . S
C108 O107 1.257 . S
O109 Eu89 2.326 . S
O109 C97 1.242 . S
O110 Tb88 2.324 . S
O110 C97 1.258 . S
O111 Eu89 2.500 . S
O111 C94 1.273 . S
O112 Eu89 2.473 . S
O112 C94 1.257 . S
H113 C99 0.929 . S
H114 C101 0.931 . S
H115 C103 0.929 . S
O116 Tb117 2.292 . S
O116 C119 1.255 . S
Tb117 O116 2.292 . S
Tb117 O133 2.326 . S
Tb117 O135 2.500 . S
Tb117 O136 2.473 . S
Tb117 O139 2.324 . S
Eu118 O122 2.292 . S
Eu118 C123 2.852 . S
Eu118 O134 2.324 . S
Eu118 O138 2.326 . S
Eu118 O140 2.500 . S
Eu118 O141 2.473 . S
C119 O116 1.255 . S
C119 O120 1.247 . S
O120 C119 1.247 . S
C121 O133 1.242 . S
C121 O134 1.258 . S
O122 Eu118 2.292 . S
O122 C124 1.255 . S
C123 Eu118 2.852 . S
C123 C127 1.503 . S
C123 O140 1.273 . S
C123 O141 1.257 . S
C124 O122 1.255 . S
C124 O125 1.247 . S
O125 C124 1.247 . S
C126 O138 1.242 . S
C126 O139 1.258 . S
C127 C123 1.503 . S
C127 C128 1.379 . S
C127 C132 1.392 . S
C128 C127 1.379 . S
C128 C129 1.404 . S
C128 H142 0.929 . S
C129 C128 1.404 . S
C129 C130 1.389 . S
C130 C129 1.389 . S
C130 C131 1.399 . S
C130 H143 0.931 . S
C131 C130 1.399 . S
C131 C132 1.390 . S
C132 C127 1.392 . S
C132 C131 1.390 . S
C132 H144 0.929 . S
O133 Tb117 2.326 . S
O133 C121 1.242 . S
O134 Eu118 2.324 . S
O134 C121 1.258 . S
O135 Tb117 2.500 . S
O135 C137 1.273 . S
O136 Tb117 2.473 . S
O136 C137 1.257 . S
C137 O135 1.273 . S
C137 O136 1.257 . S
O138 Eu118 2.326 . S
O138 C126 1.242 . S
O139 Tb117 2.324 . S
O139 C126 1.258 . S
O140 Eu118 2.500 . S
O140 C123 1.273 . S
O141 Eu118 2.473 . S
O141 C123 1.257 . S
H142 C128 0.929 . S
H143 C130 0.931 . S
H144 C132 0.929 . S
O145 Tb146 2.292 . S
O145 C148 1.255 . S
Tb146 O145 2.292 . S
Tb146 O162 2.326 . S
Tb146 O164 2.500 . S
Tb146 O165 2.473 . S
Tb146 O168 2.324 . S
Eu147 O151 2.292 . S
Eu147 C152 2.852 . S
Eu147 O163 2.324 . S
Eu147 O167 2.326 . S
Eu147 O169 2.500 . S
Eu147 O170 2.473 . S
C148 O145 1.255 . S
C148 O149 1.247 . S
O149 C148 1.247 . S
C150 O162 1.242 . S
C150 O163 1.258 . S
O151 Eu147 2.292 . S
O151 C153 1.255 . S
C152 Eu147 2.852 . S
C152 C156 1.503 . S
C152 O169 1.273 . S
C152 O170 1.257 . S
C153 O151 1.255 . S
C153 O154 1.247 . S
O154 C153 1.247 . S
C155 O167 1.242 . S
C155 O168 1.258 . S
C156 C152 1.503 . S
C156 C157 1.379 . S
C156 C161 1.392 . S
C157 C156 1.379 . S
C157 C158 1.404 . S
C157 H171 0.929 . S
C158 C157 1.404 . S
C158 C159 1.389 . S
C159 C158 1.389 . S
C159 C160 1.399 . S
C159 H172 0.931 . S
C160 C159 1.399 . S
C160 C161 1.390 . S
C161 C156 1.392 . S
C161 C160 1.390 . S
C161 H173 0.929 . S
O162 Tb146 2.326 . S
O162 C150 1.242 . S
O163 Eu147 2.324 . S
O163 C150 1.258 . S
O164 Tb146 2.500 . S
O164 C166 1.273 . S
O165 Tb146 2.473 . S
O165 C166 1.257 . S
C166 O164 1.273 . S
C166 O165 1.257 . S
O167 Eu147 2.326 . S
O167 C155 1.242 . S
O168 Tb146 2.324 . S
O168 C155 1.258 . S
O169 Eu147 2.500 . S
O169 C152 1.273 . S
O170 Eu147 2.473 . S
O170 C152 1.257 . S
H171 C157 0.929 . S
H172 C159 0.931 . S
H173 C161 0.929 . S
O174 Tb175 2.292 . S
O174 C177 1.255 1_556 S
Tb175 O174 2.292 . S
Tb175 O191 2.326 . S
Tb175 O193 2.500 . S
Tb175 O194 2.473 . S
Tb175 O197 2.324 . S
Eu176 O180 2.292 . S
Eu176 C181 2.852 . S
Eu176 O192 2.324 . S
Eu176 O196 2.326 . S
Eu176 O198 2.500 . S
Eu176 O199 2.473 . S
C177 O174 1.255 1_554 S
C177 O178 1.247 . S
O178 C177 1.247 . S
C179 O191 1.242 . S
C179 O192 1.258 . S
O180 Eu176 2.292 . S
O180 C182 1.255 . S
C181 Eu176 2.852 . S
C181 C185 1.503 . S
C181 O198 1.273 . S
C181 O199 1.257 . S
C182 O180 1.255 . S
C182 O183 1.247 . S
O183 C182 1.247 . S
C184 O196 1.242 . S
C184 O197 1.258 . S
C185 C181 1.503 . S
C185 C186 1.379 . S
C185 C190 1.392 . S
C186 C185 1.379 . S
C186 C187 1.404 . S
C186 H200 0.929 . S
C187 C186 1.404 . S
C187 C188 1.389 . S
C188 C187 1.389 . S
C188 C189 1.399 . S
C188 H201 0.931 . S
C189 C188 1.399 . S
C189 C190 1.390 . S
C190 C185 1.392 . S
C190 C189 1.390 . S
C190 H202 0.929 . S
O191 Tb175 2.326 . S
O191 C179 1.242 . S
O192 Eu176 2.324 . S
O192 C179 1.258 . S
O193 Tb175 2.500 . S
O193 C195 1.273 . S
O194 Tb175 2.473 . S
O194 C195 1.257 . S
C195 O193 1.273 . S
C195 O194 1.257 . S
O196 Eu176 2.326 . S
O196 C184 1.242 . S
O197 Tb175 2.324 . S
O197 C184 1.258 . S
O198 Eu176 2.500 . S
O198 C181 1.273 . S
O199 Eu176 2.473 . S
O199 C181 1.257 . S
H200 C186 0.929 . S
H201 C188 0.931 . S
H202 C190 0.929 . S
O203 Tb204 2.292 1_556 S
O203 C206 1.255 . S
Tb204 O203 2.292 1_554 S
Tb204 O220 2.326 . S
Tb204 O222 2.500 . S
Tb204 O223 2.473 . S
Tb204 O226 2.324 . S
Eu205 O209 2.292 . S
Eu205 C210 2.852 . S
Eu205 O221 2.324 . S
Eu205 O225 2.326 . S
Eu205 O227 2.500 . S
Eu205 O228 2.473 . S
C206 O203 1.255 . S
C206 O207 1.247 . S
O207 C206 1.247 . S
C208 O220 1.242 . S
C208 O221 1.258 . S
O209 Eu205 2.292 . S
O209 C211 1.255 . S
C210 Eu205 2.852 . S
C210 C214 1.503 . S
C210 O227 1.273 . S
C210 O228 1.257 . S
C211 O209 1.255 . S
C211 O212 1.247 . S
O212 C211 1.247 . S
C213 O225 1.242 . S
C213 O226 1.258 . S
C214 C210 1.503 . S
C214 C215 1.379 . S
C214 C219 1.392 . S
C215 C214 1.379 . S
C215 C216 1.404 . S
C215 H229 0.929 . S
C216 C215 1.404 . S
C216 C217 1.389 . S
C217 C216 1.389 . S
C217 C218 1.399 . S
C217 H230 0.931 . S
C218 C217 1.399 . S
C218 C219 1.390 . S
C219 C214 1.392 . S
C219 C218 1.390 . S
C219 H231 0.929 . S
O220 Tb204 2.326 . S
O220 C208 1.242 . S
O221 Eu205 2.324 . S
O221 C208 1.258 . S
O222 Tb204 2.500 . S
O222 C224 1.273 . S
O223 Tb204 2.473 . S
O223 C224 1.257 . S
C224 O222 1.273 . S
C224 O223 1.257 . S
O225 Eu205 2.326 . S
O225 C213 1.242 . S
O226 Tb204 2.324 . S
O226 C213 1.258 . S
O227 Eu205 2.500 . S
O227 C210 1.273 . S
O228 Eu205 2.473 . S
O228 C210 1.257 . S
H229 C215 0.929 . S
H230 C217 0.931 . S
H231 C219 0.929 . S
O232 Tb233 2.292 . S
O232 C235 1.255 . S
Tb233 O232 2.292 . S
Tb233 O249 2.326 . S
Tb233 O251 2.500 . S
Tb233 O252 2.473 . S
Tb233 O255 2.324 . S
Eu234 O238 2.292 . S
Eu234 C239 2.852 . S
Eu234 O250 2.324 . S
Eu234 O254 2.326 . S
Eu234 O256 2.500 . S
Eu234 O257 2.473 . S
C235 O232 1.255 . S
C235 O236 1.247 . S
O236 C235 1.247 . S
C237 O249 1.242 . S
C237 O250 1.258 . S
O238 Eu234 2.292 . S
O238 C240 1.255 1_556 S
C239 Eu234 2.852 . S
C239 C243 1.503 . S
C239 O256 1.273 . S
C239 O257 1.257 . S
C240 O238 1.255 1_554 S
C240 O241 1.247 . S
O241 C240 1.247 . S
C242 O254 1.242 . S
C242 O255 1.258 . S
C243 C239 1.503 . S
C243 C244 1.379 . S
C243 C248 1.392 . S
C244 C243 1.379 . S
C244 C245 1.404 . S
C244 H258 0.929 . S
C245 C244 1.404 . S
C245 C246 1.389 . S
C246 C245 1.389 . S
C246 C247 1.399 . S
C246 H259 0.931 . S
C247 C246 1.399 . S
C247 C248 1.390 . S
C248 C243 1.392 . S
C248 C247 1.390 . S
C248 H260 0.929 . S
O249 Tb233 2.326 . S
O249 C237 1.242 . S
O250 Eu234 2.324 . S
O250 C237 1.258 . S
O251 Tb233 2.500 . S
O251 C253 1.273 . S
O252 Tb233 2.473 . S
O252 C253 1.257 . S
C253 O251 1.273 . S
C253 O252 1.257 . S
O254 Eu234 2.326 . S
O254 C242 1.242 . S
O255 Tb233 2.324 . S
O255 C242 1.258 . S
O256 Eu234 2.500 . S
O256 C239 1.273 . S
O257 Eu234 2.473 . S
O257 C239 1.257 . S
H258 C244 0.929 . S
H259 C246 0.931 . S
H260 C248 0.929 . S
O261 Tb262 2.292 . S
O261 C264 1.255 . S
Tb262 O261 2.292 . S
Tb262 O278 2.326 . S
Tb262 O280 2.500 . S
Tb262 O281 2.473 . S
Tb262 O284 2.324 . S
Eu263 O267 2.292 . S
Eu263 C268 2.852 . S
Eu263 O279 2.324 . S
Eu263 O283 2.326 . S
Eu263 O285 2.500 . S
Eu263 O286 2.473 . S
C264 O261 1.255 . S
C264 O265 1.247 . S
O265 C264 1.247 . S
C266 O278 1.242 . S
C266 O279 1.258 . S
O267 Eu263 2.292 . S
O267 C269 1.255 . S
C268 Eu263 2.852 . S
C268 C272 1.503 . S
C268 O285 1.273 . S
C268 O286 1.257 . S
C269 O267 1.255 . S
C269 O270 1.247 . S
O270 C269 1.247 . S
C271 O283 1.242 . S
C271 O284 1.258 . S
C272 C268 1.503 . S
C272 C273 1.379 . S
C272 C277 1.392 . S
C273 C272 1.379 . S
C273 C274 1.404 . S
C273 H287 0.929 . S
C274 C273 1.404 . S
C274 C275 1.389 . S
C275 C274 1.389 . S
C275 C276 1.399 . S
C275 H288 0.931 . S
C276 C275 1.399 . S
C276 C277 1.390 . S
C277 C272 1.392 . S
C277 C276 1.390 . S
C277 H289 0.929 . S
O278 Tb262 2.326 . S
O278 C266 1.242 . S
O279 Eu263 2.324 . S
O279 C266 1.258 . S
O280 Tb262 2.500 . S
O280 C282 1.273 . S
O281 Tb262 2.473 . S
O281 C282 1.257 . S
C282 O280 1.273 . S
C282 O281 1.257 . S
O283 Eu263 2.326 . S
O283 C271 1.242 . S
O284 Tb262 2.324 . S
O284 C271 1.258 . S
O285 Eu263 2.500 . S
O285 C268 1.273 . S
O286 Eu263 2.473 . S
O286 C268 1.257 . S
H287 C273 0.929 . S
H288 C275 0.931 . S
H289 C277 0.929 . S
O290 Tb291 2.292 . S
O290 C293 1.255 . S
Tb291 O290 2.292 . S
Tb291 O307 2.326 . S
Tb291 O309 2.500 . S
Tb291 O310 2.473 . S
Tb291 O313 2.324 . S
Eu292 O296 2.292 . S
Eu292 C297 2.852 . S
Eu292 O308 2.324 . S
Eu292 O312 2.326 . S
Eu292 O314 2.500 . S
Eu292 O315 2.473 . S
C293 O290 1.255 . S
C293 O294 1.247 . S
O294 C293 1.247 . S
C295 O307 1.242 . S
C295 O308 1.258 . S
O296 Eu292 2.292 . S
O296 C298 1.255 . S
C297 Eu292 2.852 . S
C297 C301 1.503 . S
C297 O314 1.273 . S
C297 O315 1.257 . S
C298 O296 1.255 . S
C298 O299 1.247 . S
O299 C298 1.247 . S
C300 O312 1.242 . S
C300 O313 1.258 . S
C301 C297 1.503 . S
C301 C302 1.379 . S
C301 C306 1.392 . S
C302 C301 1.379 . S
C302 C303 1.404 . S
C302 H316 0.929 . S
C303 C302 1.404 . S
C303 C304 1.389 . S
C304 C303 1.389 . S
C304 C305 1.399 . S
C304 H317 0.931 . S
C305 C304 1.399 . S
C305 C306 1.390 . S
C306 C301 1.392 . S
C306 C305 1.390 . S
C306 H318 0.929 . S
O307 Tb291 2.326 . S
O307 C295 1.242 . S
O308 Eu292 2.324 . S
O308 C295 1.258 . S
O309 Tb291 2.500 . S
O309 C311 1.273 . S
O310 Tb291 2.473 . S
O310 C311 1.257 . S
C311 O309 1.273 . S
C311 O310 1.257 . S
O312 Eu292 2.326 . S
O312 C300 1.242 . S
O313 Tb291 2.324 . S
O313 C300 1.258 . S
O314 Eu292 2.500 . S
O314 C297 1.273 . S
O315 Eu292 2.473 . S
O315 C297 1.257 . S
H316 C302 0.929 . S
H317 C304 0.931 . S
H318 C306 0.929 . S
O319 Tb320 2.292 . S
O319 C322 1.255 1_554 S
Tb320 O319 2.292 . S
Tb320 O336 2.326 . S
Tb320 O338 2.500 . S
Tb320 O339 2.473 . S
Tb320 O342 2.324 . S
Eu321 O325 2.292 . S
Eu321 C326 2.852 . S
Eu321 O337 2.324 . S
Eu321 O341 2.326 . S
Eu321 O343 2.500 . S
Eu321 O344 2.473 . S
C322 O319 1.255 1_556 S
C322 O323 1.247 . S
O323 C322 1.247 . S
C324 O336 1.242 . S
C324 O337 1.258 . S
O325 Eu321 2.292 . S
O325 C327 1.255 . S
C326 Eu321 2.852 . S
C326 C330 1.503 . S
C326 O343 1.273 . S
C326 O344 1.257 . S
C327 O325 1.255 . S
C327 O328 1.247 . S
O328 C327 1.247 . S
C329 O341 1.242 . S
C329 O342 1.258 . S
C330 C326 1.503 . S
C330 C331 1.379 . S
C330 C335 1.392 . S
C331 C330 1.379 . S
C331 C332 1.404 . S
C331 H345 0.929 . S
C332 C331 1.404 . S
C332 C333 1.389 . S
C333 C332 1.389 . S
C333 C334 1.399 . S
C333 H346 0.931 . S
C334 C333 1.399 . S
C334 C335 1.390 . S
C335 C330 1.392 . S
C335 C334 1.390 . S
C335 H347 0.929 . S
O336 Tb320 2.326 . S
O336 C324 1.242 . S
O337 Eu321 2.324 . S
O337 C324 1.258 . S
O338 Tb320 2.500 . S
O338 C340 1.273 . S
O339 Tb320 2.473 . S
O339 C340 1.257 . S
C340 O338 1.273 . S
C340 O339 1.257 . S
O341 Eu321 2.326 . S
O341 C329 1.242 . S
O342 Tb320 2.324 . S
O342 C329 1.258 . S
O343 Eu321 2.500 . S
O343 C326 1.273 . S
O344 Eu321 2.473 . S
O344 C326 1.257 . S
H345 C331 0.929 . S
H346 C333 0.931 . S
H347 C335 0.929 . S
O348 Tb349 2.292 . S
O348 C351 1.255 . S
Tb349 O348 2.292 . S
Tb349 O365 2.326 . S
Tb349 O367 2.500 . S
Tb349 O368 2.473 . S
Tb349 O371 2.324 . S
Eu350 O354 2.292 . S
Eu350 C355 2.852 . S
Eu350 O366 2.324 . S
Eu350 O370 2.326 . S
Eu350 O372 2.500 . S
Eu350 O373 2.473 . S
C351 O348 1.255 . S
C351 O352 1.247 . S
O352 C351 1.247 . S
C353 O365 1.242 . S
C353 O366 1.258 . S
O354 Eu350 2.292 . S
O354 C356 1.255 . S
C355 Eu350 2.852 . S
C355 C359 1.503 . S
C355 O372 1.273 . S
C355 O373 1.257 . S
C356 O354 1.255 . S
C356 O357 1.247 . S
O357 C356 1.247 . S
C358 O370 1.242 . S
C358 O371 1.258 . S
C359 C355 1.503 . S
C359 C360 1.379 . S
C359 C364 1.392 . S
C360 C359 1.379 . S
C360 C361 1.404 . S
C360 H374 0.929 . S
C361 C360 1.404 . S
C361 C362 1.389 . S
C362 C361 1.389 . S
C362 C363 1.399 . S
C362 H375 0.931 . S
C363 C362 1.399 . S
C363 C364 1.390 . S
C364 C359 1.392 . S
C364 C363 1.390 . S
C364 H376 0.929 . S
O365 Tb349 2.326 . S
O365 C353 1.242 . S
O366 Eu350 2.324 . S
O366 C353 1.258 . S
O367 Tb349 2.500 . S
O367 C369 1.273 . S
O368 Tb349 2.473 . S
O368 C369 1.257 . S
C369 O367 1.273 . S
C369 O368 1.257 . S
O370 Eu350 2.326 . S
O370 C358 1.242 . S
O371 Tb349 2.324 . S
O371 C358 1.258 . S
O372 Eu350 2.500 . S
O372 C355 1.273 . S
O373 Eu350 2.473 . S
O373 C355 1.257 . S
H374 C360 0.929 . S
H375 C362 0.931 . S
H376 C364 0.929 . S
O377 Tb378 2.292 . S
O377 C380 1.255 . S
Tb378 O377 2.292 . S
Tb378 O394 2.326 . S
Tb378 O396 2.500 . S
Tb378 O397 2.473 . S
Tb378 O400 2.324 . S
Eu379 O383 2.292 . S
Eu379 C384 2.852 . S
Eu379 O395 2.324 . S
Eu379 O399 2.326 . S
Eu379 O401 2.500 . S
Eu379 O402 2.473 . S
C380 O377 1.255 . S
C380 O381 1.247 . S
O381 C380 1.247 . S
C382 O394 1.242 . S
C382 O395 1.258 . S
O383 Eu379 2.292 . S
O383 C385 1.255 . S
C384 Eu379 2.852 . S
C384 C388 1.503 . S
C384 O401 1.273 . S
C384 O402 1.257 . S
C385 O383 1.255 . S
C385 O386 1.247 . S
O386 C385 1.247 . S
C387 O399 1.242 . S
C387 O400 1.258 . S
C388 C384 1.503 . S
C388 C389 1.379 . S
C388 C393 1.392 . S
C389 C388 1.379 . S
C389 C390 1.404 . S
C389 H403 0.929 . S
C390 C389 1.404 . S
C390 C391 1.389 . S
C391 C390 1.389 . S
C391 C392 1.399 . S
C391 H404 0.931 . S
C392 C391 1.399 . S
C392 C393 1.390 . S
C393 C388 1.392 . S
C393 C392 1.390 . S
C393 H405 0.929 . S
O394 Tb378 2.326 . S
O394 C382 1.242 . S
O395 Eu379 2.324 . S
O395 C382 1.258 . S
O396 Tb378 2.500 . S
O396 C398 1.273 . S
O397 Tb378 2.473 . S
O397 C398 1.257 . S
C398 O396 1.273 . S
C398 O397 1.257 . S
O399 Eu379 2.326 . S
O399 C387 1.242 . S
O400 Tb378 2.324 . S
O400 C387 1.258 . S
O401 Eu379 2.500 . S
O401 C384 1.273 . S
O402 Eu379 2.473 . S
O402 C384 1.257 . S
H403 C389 0.929 . S
H404 C391 0.931 . S
H405 C393 0.929 . S
O406 Tb407 2.292 . S
O406 C409 1.255 . S
Tb407 O406 2.292 . S
Tb407 O423 2.326 . S
Tb407 O425 2.500 . S
Tb407 O426 2.473 . S
Tb407 O429 2.324 . S
Eu408 O412 2.292 . S
Eu408 C413 2.852 . S
Eu408 O424 2.324 . S
Eu408 O428 2.326 . S
Eu408 O430 2.500 . S
Eu408 O431 2.473 . S
C409 O406 1.255 . S
C409 O410 1.247 . S
O410 C409 1.247 . S
C411 O423 1.242 . S
C411 O424 1.258 . S
O412 Eu408 2.292 . S
O412 C414 1.255 1_554 S
C413 Eu408 2.852 . S
C413 C417 1.503 . S
C413 O430 1.273 . S
C413 O431 1.257 . S
C414 O412 1.255 1_556 S
C414 O415 1.247 . S
O415 C414 1.247 . S
C416 O428 1.242 . S
C416 O429 1.258 . S
C417 C413 1.503 . S
C417 C418 1.379 . S
C417 C422 1.392 . S
C418 C417 1.379 . S
C418 C419 1.404 . S
C418 H432 0.929 . S
C419 C418 1.404 . S
C419 C420 1.389 . S
C420 C419 1.389 . S
C420 C421 1.399 . S
C420 H433 0.931 . S
C421 C420 1.399 . S
C421 C422 1.390 . S
C422 C417 1.392 . S
C422 C421 1.390 . S
C422 H434 0.929 . S
O423 Tb407 2.326 . S
O423 C411 1.242 . S
O424 Eu408 2.324 . S
O424 C411 1.258 . S
O425 Tb407 2.500 . S
O425 C427 1.273 . S
O426 Tb407 2.473 . S
O426 C427 1.257 . S
C427 O425 1.273 . S
C427 O426 1.257 . S
O428 Eu408 2.326 . S
O428 C416 1.242 . S
O429 Tb407 2.324 . S
O429 C416 1.258 . S
O430 Eu408 2.500 . S
O430 C413 1.273 . S
O431 Eu408 2.473 . S
O431 C413 1.257 . S
H432 C418 0.929 . S
H433 C420 0.931 . S
H434 C422 0.929 . S
O435 Tb436 2.292 1_554 S
O435 C438 1.255 . S
Tb436 O435 2.292 1_556 S
Tb436 O452 2.326 . S
Tb436 O454 2.500 . S
Tb436 O455 2.473 . S
Tb436 O458 2.324 . S
Eu437 O441 2.292 . S
Eu437 C442 2.852 . S
Eu437 O453 2.324 . S
Eu437 O457 2.326 . S
Eu437 O459 2.500 . S
Eu437 O460 2.473 . S
C438 O435 1.255 . S
C438 O439 1.247 . S
O439 C438 1.247 . S
C440 O452 1.242 . S
C440 O453 1.258 . S
O441 Eu437 2.292 . S
O441 C443 1.255 . S
C442 Eu437 2.852 . S
C442 C446 1.503 . S
C442 O459 1.273 . S
C442 O460 1.257 . S
C443 O441 1.255 . S
C443 O444 1.247 . S
O444 C443 1.247 . S
C445 O457 1.242 . S
C445 O458 1.258 . S
C446 C442 1.503 . S
C446 C447 1.379 . S
C446 C451 1.392 . S
C447 C446 1.379 . S
C447 C448 1.404 . S
C447 H461 0.929 . S
C448 C447 1.404 . S
C448 C449 1.389 . S
C449 C448 1.389 . S
C449 C450 1.399 . S
C449 H462 0.931 . S
C450 C449 1.399 . S
C450 C451 1.390 . S
C451 C446 1.392 . S
C451 C450 1.390 . S
C451 H463 0.929 . S
O452 Tb436 2.326 . S
O452 C440 1.242 . S
O453 Eu437 2.324 . S
O453 C440 1.258 . S
O454 Tb436 2.500 . S
O454 C456 1.273 . S
O455 Tb436 2.473 . S
O455 C456 1.257 . S
C456 O454 1.273 . S
C456 O455 1.257 . S
O457 Eu437 2.326 . S
O457 C445 1.242 . S
O458 Tb436 2.324 . S
O458 C445 1.258 . S
O459 Eu437 2.500 . S
O459 C442 1.273 . S
O460 Eu437 2.473 . S
O460 C442 1.257 . S
H461 C447 0.929 . S
H462 C449 0.931 . S
H463 C451 0.929 . S
H464 C472 0.962 . S
H465 C477 0.950 . S
H466 C474 0.950 . S
H467 C476 0.950 . S
H468 C478 0.950 . S
H469 C480 0.950 1_655 S
H470 C482 0.950 . S
H471 C483 0.950 . S
C472 H464 0.962 . S
C472 C473 1.386 . S
C472 C474 1.391 . S
C473 C472 1.386 . S
C473 C477 1.393 . S
C474 H466 0.950 . S
C474 C472 1.391 . S
C474 C475 1.400 . S
C475 C474 1.400 . S
C475 C476 1.398 . S
C475 C481 1.491 1_655 S
C476 H467 0.950 . S
C476 C475 1.398 . S
C476 C477 1.391 . S
C477 H465 0.950 . S
C477 C473 1.393 . S
C477 C476 1.391 . S
C478 H468 0.950 . S
C478 C479 1.386 . S
C478 C480 1.391 . S
C479 C478 1.386 . S
C479 C483 1.393 . S
C480 H469 0.950 1_455 S
C480 C478 1.391 . S
C480 C481 1.400 . S
C481 C475 1.491 1_455 S
C481 C480 1.400 . S
C481 C482 1.398 . S
C482 H470 0.950 . S
C482 C481 1.398 . S
C482 C483 1.391 . S
C483 H471 0.950 . S
C483 C479 1.393 . S
C483 C482 1.391 . S
H484 C492 0.950 . S
H485 C497 0.950 . S
H486 C494 0.950 . S
H487 C496 0.950 . S
H488 C498 0.950 . S
H489 C500 0.950 . S
H490 C502 0.950 . S
H491 C503 0.950 . S
C492 H484 0.950 . S
C492 C493 1.386 . S
C492 C494 1.391 . S
C493 C492 1.386 . S
C493 C497 1.393 . S
C494 H486 0.950 . S
C494 C492 1.391 . S
C494 C495 1.381 1_455 S
C495 C494 1.381 1_655 S
C495 C496 1.400 . S
C495 C501 1.508 . S
C496 H487 0.950 . S
C496 C495 1.400 . S
C496 C497 1.391 1_655 S
C497 H485 0.950 . S
C497 C493 1.393 . S
C497 C496 1.391 1_455 S
C498 H488 0.950 . S
C498 C499 1.386 . S
C498 C500 1.391 . S
C499 C498 1.386 . S
C499 C503 1.393 . S
C500 H489 0.950 . S
C500 C498 1.391 . S
C500 C501 1.400 . S
C501 C495 1.508 . S
C501 C500 1.400 . S
C501 C502 1.398 . S
C502 H490 0.950 . S
C502 C501 1.398 . S
C502 C503 1.391 . S
C503 H491 0.950 . S
C503 C499 1.393 . S
C503 C502 1.391 . S
H504 C512 0.950 . S
H505 C517 0.950 . S
H506 C514 0.950 . S
H507 C516 0.950 . S
H508 C518 0.950 . S
H509 C520 0.950 . S
H510 C522 0.950 . S
H511 C523 0.950 . S
C512 H504 0.950 . S
C512 C513 1.386 . S
C512 C514 1.391 . S
C513 C512 1.386 . S
C513 C517 1.393 . S
C514 H506 0.950 . S
C514 C512 1.391 . S
C514 C515 1.400 . S
C515 C514 1.400 . S
C515 C516 1.398 . S
C515 C521 1.491 . S
C516 H507 0.950 . S
C516 C515 1.398 . S
C516 C517 1.391 . S
C517 H505 0.950 . S
C517 C513 1.393 . S
C517 C516 1.391 . S
C518 H508 0.950 . S
C518 C519 1.386 . S
C518 C520 1.391 . S
C519 C518 1.386 . S
C519 C523 1.393 . S
C520 H509 0.950 . S
C520 C518 1.391 . S
C520 C521 1.400 . S
C521 C515 1.491 . S
C521 C520 1.400 . S
C521 C522 1.398 . S
C522 H510 0.950 . S
C522 C521 1.398 . S
C522 C523 1.391 . S
C523 H511 0.950 . S
C523 C519 1.393 . S
C523 C522 1.391 . S
H524 C532 0.950 . S
H525 C537 0.950 . S
H526 C534 0.950 . S
H527 C536 0.950 . S
H528 C538 0.950 . S
H529 C540 0.950 . S
H530 C542 0.950 . S
H531 C543 0.950 . S
C532 H524 0.950 . S
C532 C533 1.386 . S
C532 C534 1.391 . S
C533 C532 1.386 . S
C533 C537 1.393 . S
C534 H526 0.950 . S
C534 C532 1.391 . S
C534 C535 1.400 . S
C535 C534 1.400 . S
C535 C536 1.398 . S
C535 C541 1.491 . S
C536 H527 0.950 . S
C536 C535 1.398 . S
C536 C537 1.391 . S
C537 H525 0.950 . S
C537 C533 1.393 . S
C537 C536 1.391 . S
C538 H528 0.950 . S
C538 C539 1.386 . S
C538 C540 1.391 . S
C539 C538 1.386 . S
C539 C543 1.393 . S
C540 H529 0.950 . S
C540 C538 1.391 . S
C540 C541 1.400 . S
C541 C535 1.491 . S
C541 C540 1.400 . S
C541 C542 1.398 . S
C542 H530 0.950 . S
C542 C541 1.398 . S
C542 C543 1.391 . S
C543 H531 0.950 . S
C543 C539 1.393 . S
C543 C542 1.391 . S
H544 C552 0.950 . S
H545 C557 0.950 . S
H546 C554 0.963 . S
H547 C556 0.950 . S
H548 C558 0.950 . S
H549 C560 0.950 . S
H550 C562 0.950 . S
H551 C563 0.950 . S
C552 H544 0.950 . S
C552 C553 1.386 . S
C552 C554 1.378 1_655 S
C553 C552 1.386 . S
C553 C557 1.393 . S
C554 H546 0.963 . S
C554 C552 1.378 1_455 S
C554 C555 1.401 . S
C555 C554 1.401 . S
C555 C556 1.398 1_455 S
C555 C561 1.491 . S
C556 H547 0.950 . S
C556 C555 1.398 1_655 S
C556 C557 1.391 . S
C557 H545 0.950 . S
C557 C553 1.393 . S
C557 C556 1.391 . S
C558 H548 0.950 . S
C558 C559 1.386 . S
C558 C560 1.391 . S
C559 C558 1.386 . S
C559 C563 1.393 . S
C560 H549 0.950 . S
C560 C558 1.391 . S
C560 C561 1.400 . S
C561 C555 1.491 . S
C561 C560 1.400 . S
C561 C562 1.398 . S
C562 H550 0.950 . S
C562 C561 1.398 . S
C562 C563 1.391 . S
C563 H551 0.950 . S
C563 C559 1.393 . S
C563 C562 1.391 . S
H564 C572 0.950 . S
H565 C577 0.950 . S
H566 C574 0.950 . S
H567 C576 0.950 . S
H568 C578 0.950 . S
H569 C580 0.950 . S
H570 C582 0.945 1_455 S
H571 C583 0.950 . S
C572 H564 0.950 . S
C572 C573 1.386 . S
C572 C574 1.391 . S
C573 C572 1.386 . S
C573 C577 1.393 . S
C574 H566 0.950 . S
C574 C572 1.391 . S
C574 C575 1.400 . S
C575 C574 1.400 . S
C575 C576 1.398 . S
C575 C581 1.491 1_455 S
C576 H567 0.950 . S
C576 C575 1.398 . S
C576 C577 1.391 . S
C577 H565 0.950 . S
C577 C573 1.393 . S
C577 C576 1.391 . S
C578 H568 0.950 . S
C578 C579 1.386 . S
C578 C580 1.391 . S
C579 C578 1.386 . S
C579 C583 1.393 . S
C580 H569 0.950 . S
C580 C578 1.391 . S
C580 C581 1.400 . S
C581 C575 1.491 1_655 S
C581 C580 1.400 . S
C581 C582 1.398 . S
C582 H570 0.945 1_655 S
C582 C581 1.398 . S
C582 C583 1.391 . S
C583 H571 0.950 . S
C583 C579 1.393 . S
C583 C582 1.391 . S
H584 C592 0.950 . S
H585 C597 0.950 . S
H586 C594 0.950 . S
H587 C596 0.950 . S
H588 C598 0.950 . S
H589 C600 0.950 . S
H590 C602 0.950 . S
H591 C603 0.950 . S
C592 H584 0.950 . S
C592 C593 1.386 . S
C592 C594 1.391 . S
C593 C592 1.386 . S
C593 C597 1.393 . S
C594 H586 0.950 . S
C594 C592 1.391 . S
C594 C595 1.400 . S
C595 C594 1.400 . S
C595 C596 1.398 . S
C595 C601 1.491 . S
C596 H587 0.950 . S
C596 C595 1.398 . S
C596 C597 1.391 . S
C597 H585 0.950 . S
C597 C593 1.393 . S
C597 C596 1.391 . S
C598 H588 0.950 . S
C598 C599 1.386 . S
C598 C600 1.391 . S
C599 C598 1.386 . S
C599 C603 1.393 . S
C600 H589 0.950 . S
C600 C598 1.391 . S
C600 C601 1.400 . S
C601 C595 1.491 . S
C601 C600 1.400 . S
C601 C602 1.398 . S
C602 H590 0.950 . S
C602 C601 1.398 . S
C602 C603 1.391 . S
C603 H591 0.950 . S
C603 C599 1.393 . S
C603 C602 1.391 . S
H604 C612 0.950 . S
H605 C617 0.950 . S
H606 C614 0.950 . S
H607 C616 0.950 . S
H608 C618 0.950 . S
H609 C620 0.950 . S
H610 C622 0.950 . S
H611 C623 0.950 . S
C612 H604 0.950 . S
C612 C613 1.386 . S
C612 C614 1.391 . S
C613 C612 1.386 . S
C613 C617 1.393 . S
C614 H606 0.950 . S
C614 C612 1.391 . S
C614 C615 1.400 . S
C615 C614 1.400 . S
C615 C616 1.398 . S
C615 C621 1.491 . S
C616 H607 0.950 . S
C616 C615 1.398 . S
C616 C617 1.391 . S
C617 H605 0.950 . S
C617 C613 1.393 . S
C617 C616 1.391 . S
C618 H608 0.950 . S
C618 C619 1.386 . S
C618 C620 1.391 . S
C619 C618 1.386 . S
C619 C623 1.393 . S
C620 H609 0.950 . S
C620 C618 1.391 . S
C620 C621 1.400 . S
C621 C615 1.491 . S
C621 C620 1.400 . S
C621 C622 1.398 . S
C622 H610 0.950 . S
C622 C621 1.398 . S
C622 C623 1.391 . S
C623 H611 0.950 . S
C623 C619 1.393 . S
C623 C622 1.391 . S
H624 C632 0.950 . S
H625 C637 0.950 . S
H626 C634 0.950 . S
H627 C636 0.950 . S
H628 C638 0.950 . S
H629 C640 0.950 . S
H630 C642 0.950 . S
H631 C643 0.950 . S
C632 H624 0.950 . S
C632 C633 1.386 . S
C632 C634 1.391 . S
C633 C632 1.386 . S
C633 C637 1.393 . S
C634 H626 0.950 . S
C634 C632 1.391 . S
C634 C635 1.400 . S
C635 C634 1.400 . S
C635 C636 1.398 . S
C635 C641 1.491 . S
C636 H627 0.950 . S
C636 C635 1.398 . S
C636 C637 1.391 . S
C637 H625 0.950 . S
C637 C633 1.393 . S
C637 C636 1.391 . S
C638 H628 0.950 . S
C638 C639 1.386 . S
C638 C640 1.391 . S
C639 C638 1.386 . S
C639 C643 1.393 1_554 S
C640 H629 0.950 . S
C640 C638 1.391 . S
C640 C641 1.400 1_554 S
C641 C635 1.491 . S
C641 C640 1.400 1_556 S
C641 C642 1.398 . S
C642 H630 0.950 . S
C642 C641 1.398 . S
C642 C643 1.391 . S
C643 H631 0.950 . S
C643 C639 1.393 1_556 S
C643 C642 1.391 . S
H644 C652 0.950 . S
H645 C657 0.950 . S
H646 C654 0.950 . S
H647 C656 0.950 1_545 S
H648 C658 0.950 . S
H649 C660 0.950 . S
H650 C662 0.950 . S
H651 C663 0.950 . S
C652 H644 0.950 . S
C652 C653 1.386 . S
C652 C654 1.391 . S
C653 C652 1.386 . S
C653 C657 1.393 . S
C654 H646 0.950 . S
C654 C652 1.391 . S
C654 C655 1.400 . S
C655 C654 1.400 . S
C655 C656 1.398 . S
C655 C661 1.491 1_565 S
C656 H647 0.950 1_565 S
C656 C655 1.398 . S
C656 C657 1.391 . S
C657 H645 0.950 . S
C657 C653 1.393 . S
C657 C656 1.391 . S
C658 H648 0.950 . S
C658 C659 1.386 . S
C658 C660 1.391 . S
C659 C658 1.386 . S
C659 C663 1.393 . S
C660 H649 0.950 . S
C660 C658 1.391 . S
C660 C661 1.400 . S
C661 C655 1.491 1_545 S
C661 C660 1.400 . S
C661 C662 1.398 . S
C662 H650 0.950 . S
C662 C661 1.398 . S
C662 C663 1.391 . S
C663 H651 0.950 . S
C663 C659 1.393 . S
C663 C662 1.391 . S
H664 C672 0.950 . S
H665 C677 0.950 . S
H666 C674 0.950 . S
H667 C676 0.950 . S
H668 C678 0.950 . S
H669 C680 0.950 . S
H670 C682 0.950 . S
H671 C683 0.950 . S
C672 H664 0.950 . S
C672 C673 1.386 . S
C672 C674 1.391 . S
C673 C672 1.386 . S
C673 C677 1.393 . S
C674 H666 0.950 . S
C674 C672 1.391 . S
C674 C675 1.400 . S
C675 C674 1.400 . S
C675 C676 1.398 . S
C675 C681 1.491 . S
C676 H667 0.950 . S
C676 C675 1.398 . S
C676 C677 1.391 . S
C677 H665 0.950 . S
C677 C673 1.393 . S
C677 C676 1.391 . S
C678 H668 0.950 . S
C678 C679 1.386 . S
C678 C680 1.391 . S
C679 C678 1.386 . S
C679 C683 1.393 . S
C680 H669 0.950 . S
C680 C678 1.391 . S
C680 C681 1.400 . S
C681 C675 1.491 . S
C681 C680 1.400 . S
C681 C682 1.398 . S
C682 H670 0.950 . S
C682 C681 1.398 . S
C682 C683 1.391 . S
C683 H671 0.950 . S
C683 C679 1.393 . S
C683 C682 1.391 . S
H684 C692 0.950 . S
H685 C697 0.950 . S
H686 C694 0.950 . S
H687 C696 0.928 1_545 S
H688 C698 0.950 . S
H689 C700 0.950 . S
H690 C702 0.950 . S
H691 C703 0.950 . S
C692 H684 0.950 . S
C692 C693 1.386 . S
C692 C694 1.391 . S
C693 C692 1.386 . S
C693 C697 1.393 . S
C694 H686 0.950 . S
C694 C692 1.391 . S
C694 C695 1.400 . S
C695 C694 1.400 . S
C695 C696 1.398 . S
C695 C701 1.491 1_565 S
C696 H687 0.928 1_565 S
C696 C695 1.398 . S
C696 C697 1.391 . S
C697 H685 0.950 . S
C697 C693 1.393 . S
C697 C696 1.391 . S
C698 H688 0.950 . S
C698 C699 1.386 . S
C698 C700 1.391 . S
C699 C698 1.386 . S
C699 C703 1.393 . S
C700 H689 0.950 . S
C700 C698 1.391 . S
C700 C701 1.400 . S
C701 C695 1.491 1_545 S
C701 C700 1.400 . S
C701 C702 1.398 . S
C702 H690 0.950 . S
C702 C701 1.398 . S
C702 C703 1.391 . S
C703 H691 0.950 . S
C703 C699 1.393 . S
C703 C702 1.391 . S
H704 C712 0.954 . S
H705 C717 0.950 . S
H706 C714 0.950 . S
H707 C716 0.950 . S
H708 C718 0.950 . S
H709 C720 0.950 . S
H710 C722 0.950 . S
H711 C723 0.950 . S
C712 H704 0.954 . S
C712 C713 1.379 1_554 S
C712 C714 1.393 . S
C713 C712 1.379 1_556 S
C713 C717 1.393 . S
C714 H706 0.950 . S
C714 C712 1.393 . S
C714 C715 1.400 1_554 S
C715 C714 1.400 1_556 S
C715 C716 1.398 . S
C715 C721 1.491 . S
C716 H707 0.950 . S
C716 C715 1.398 . S
C716 C717 1.391 . S
C717 H705 0.950 . S
C717 C713 1.393 . S
C717 C716 1.391 . S
C718 H708 0.950 . S
C718 C719 1.386 1_556 S
C718 C720 1.391 . S
C719 C718 1.386 1_554 S
C719 C723 1.393 . S
C720 H709 0.950 . S
C720 C718 1.391 . S
C720 C721 1.400 . S
C721 C715 1.491 . S
C721 C720 1.400 . S
C721 C722 1.398 1_556 S
C722 H710 0.950 . S
C722 C721 1.398 1_554 S
C722 C723 1.391 . S
C723 H711 0.950 . S
C723 C719 1.393 . S
C723 C722 1.391 . S
H724 C732 0.950 . S
H725 C737 0.950 . S
H726 C734 0.950 . S
H727 C736 0.991 . S
H728 C738 0.950 . S
H729 C740 0.950 . S
H730 C742 0.950 1_565 S
H731 C743 0.950 . S
C732 H724 0.950 . S
C732 C733 1.386 . S
C732 C734 1.391 . S
C733 C732 1.386 . S
C733 C737 1.393 . S
C734 H726 0.950 . S
C734 C732 1.391 . S
C734 C735 1.400 . S
C735 C734 1.400 . S
C735 C736 1.398 . S
C735 C741 1.491 1_565 S
C736 H727 0.991 . S
C736 C735 1.398 . S
C736 C737 1.391 . S
C737 H725 0.950 . S
C737 C733 1.393 . S
C737 C736 1.391 . S
C738 H728 0.950 . S
C738 C739 1.386 . S
C738 C740 1.391 . S
C739 C738 1.386 . S
C739 C743 1.393 . S
C740 H729 0.950 . S
C740 C738 1.391 . S
C740 C741 1.400 . S
C741 C735 1.491 1_545 S
C741 C740 1.400 . S
C741 C742 1.398 . S
C742 H730 0.950 1_545 S
C742 C741 1.398 . S
C742 C743 1.391 . S
C743 H731 0.950 . S
C743 C739 1.393 . S
C743 C742 1.391 . S
H744 C752 0.950 . S
H745 C757 0.950 . S
H746 C754 0.950 . S
H747 C756 0.950 . S
H748 C758 0.950 . S
H749 C760 0.950 . S
H750 C762 0.950 . S
H751 C763 0.950 . S
C752 H744 0.950 . S
C752 C753 1.386 . S
C752 C754 1.391 . S
C753 C752 1.386 . S
C753 C757 1.393 . S
C754 H746 0.950 . S
C754 C752 1.391 . S
C754 C755 1.400 . S
C755 C754 1.400 . S
C755 C756 1.398 . S
C755 C761 1.491 . S
C756 H747 0.950 . S
C756 C755 1.398 . S
C756 C757 1.391 . S
C757 H745 0.950 . S
C757 C753 1.393 . S
C757 C756 1.391 . S
C758 H748 0.950 . S
C758 C759 1.386 . S
C758 C760 1.391 . S
C759 C758 1.386 . S
C759 C763 1.393 . S
C760 H749 0.950 . S
C760 C758 1.391 . S
C760 C761 1.400 . S
C761 C755 1.491 . S
C761 C760 1.400 . S
C761 C762 1.398 . S
C762 H750 0.950 . S
C762 C761 1.398 . S
C762 C763 1.391 . S
C763 H751 0.950 . S
C763 C759 1.393 . S
C763 C762 1.391 . S
H764 C772 0.950 . S
H765 C777 0.950 . S
H766 C774 0.950 . S
H767 C776 0.950 . S
H768 C778 0.950 . S
H769 C780 0.950 . S
H770 C782 0.950 . S
H771 C783 0.950 . S
C772 H764 0.950 . S
C772 C773 1.386 . S
C772 C774 1.391 . S
C773 C772 1.386 . S
C773 C777 1.393 . S
C774 H766 0.950 . S
C774 C772 1.391 . S
C774 C775 1.400 . S
C775 C774 1.400 . S
C775 C776 1.398 . S
C775 C781 1.491 1_565 S
C776 H767 0.950 . S
C776 C775 1.398 . S
C776 C777 1.391 . S
C777 H765 0.950 . S
C777 C773 1.393 . S
C777 C776 1.391 . S
C778 H768 0.950 . S
C778 C779 1.386 . S
C778 C780 1.391 . S
C779 C778 1.386 . S
C779 C783 1.393 . S
C780 H769 0.950 . S
C780 C778 1.391 . S
C780 C781 1.400 . S
C781 C775 1.491 1_545 S
C781 C780 1.400 . S
C781 C782 1.398 . S
C782 H770 0.950 . S
C782 C781 1.398 . S
C782 C783 1.391 . S
C783 H771 0.950 . S
C783 C779 1.393 . S
C783 C782 1.391 . S
H784 C792 0.950 . S
H785 C797 0.950 . S
H786 C794 0.950 . S
H787 C796 0.950 . S
H788 C798 0.950 . S
H789 C800 0.950 . S
H790 C802 0.950 . S
H791 C803 0.950 . S
C792 H784 0.950 . S
C792 C793 1.386 . S
C792 C794 1.391 . S
C793 C792 1.386 . S
C793 C797 1.393 . S
C794 H786 0.950 . S
C794 C792 1.391 . S
C794 C795 1.400 . S
C795 C794 1.400 . S
C795 C796 1.398 . S
C795 C801 1.491 . S
C796 H787 0.950 . S
C796 C795 1.398 . S
C796 C797 1.391 . S
C797 H785 0.950 . S
C797 C793 1.393 . S
C797 C796 1.391 . S
C798 H788 0.950 . S
C798 C799 1.386 . S
C798 C800 1.391 . S
C799 C798 1.386 . S
C799 C803 1.393 . S
C800 H789 0.950 . S
C800 C798 1.391 . S
C800 C801 1.400 . S
C801 C795 1.491 . S
C801 C800 1.400 . S
C801 C802 1.398 . S
C802 H790 0.950 . S
C802 C801 1.398 . S
C802 C803 1.391 . S
C803 H791 0.950 . S
C803 C799 1.393 . S
C803 C802 1.391 . S
H804 C812 0.950 . S
H805 C817 0.950 . S
H806 C814 0.950 . S
H807 C816 0.950 . S
H808 C818 0.950 . S
H809 C820 0.950 . S
H810 C822 0.950 . S
H811 C823 0.950 . S
C812 H804 0.950 . S
C812 C813 1.386 . S
C812 C814 1.391 . S
C813 C812 1.386 . S
C813 C817 1.393 . S
C814 H806 0.950 . S
C814 C812 1.391 . S
C814 C815 1.400 . S
C815 C814 1.400 . S
C815 C816 1.398 . S
C815 C821 1.491 . S
C816 H807 0.950 . S
C816 C815 1.398 . S
C816 C817 1.391 . S
C817 H805 0.950 . S
C817 C813 1.393 . S
C817 C816 1.391 . S
C818 H808 0.950 . S
C818 C819 1.386 . S
C818 C820 1.391 . S
C819 C818 1.386 . S
C819 C823 1.393 . S
C820 H809 0.950 . S
C820 C818 1.391 . S
C820 C821 1.400 . S
C821 C815 1.491 . S
C821 C820 1.400 . S
C821 C822 1.398 . S
C822 H810 0.950 . S
C822 C821 1.398 . S
C822 C823 1.391 . S
C823 H811 0.950 . S
C823 C819 1.393 . S
C823 C822 1.391 . S
H824 C832 0.950 . S
H825 C837 0.950 . S
H826 C834 0.950 . S
H827 C836 0.950 . S
H828 C838 0.950 . S
H829 C840 0.950 . S
H830 C842 0.950 . S
H831 C843 0.950 . S
C832 H824 0.950 . S
C832 C833 1.386 . S
C832 C834 1.391 . S
C833 C832 1.386 . S
C833 C837 1.393 1_556 S
C834 H826 0.950 . S
C834 C832 1.391 . S
C834 C835 1.400 1_556 S
C835 C834 1.400 1_554 S
C835 C836 1.398 . S
C835 C841 1.491 . S
C836 H827 0.950 . S
C836 C835 1.398 . S
C836 C837 1.391 . S
C837 H825 0.950 . S
C837 C833 1.393 1_554 S
C837 C836 1.391 . S
C838 H828 0.950 . S
C838 C839 1.386 . S
C838 C840 1.391 . S
C839 C838 1.386 . S
C839 C843 1.393 1_554 S
C840 H829 0.950 . S
C840 C838 1.391 . S
C840 C841 1.400 . S
C841 C835 1.491 . S
C841 C840 1.400 . S
C841 C842 1.398 1_554 S
C842 H830 0.950 . S
C842 C841 1.398 1_556 S
C842 C843 1.391 . S
C843 H831 0.950 . S
C843 C839 1.393 1_556 S
C843 C842 1.391 . S
H844 C852 0.950 . S
H845 C857 0.950 . S
H846 C854 0.950 . S
H847 C856 0.950 . S
H848 C858 0.950 . S
H849 C860 0.950 . S
H850 C862 0.950 . S
H851 C863 0.950 . S
C852 H844 0.950 . S
C852 C853 1.386 . S
C852 C854 1.391 . S
C853 C852 1.386 . S
C853 C857 1.393 . S
C854 H846 0.950 . S
C854 C852 1.391 . S
C854 C855 1.400 . S
C855 C854 1.400 . S
C855 C856 1.398 . S
C855 C861 1.491 . S
C856 H847 0.950 . S
C856 C855 1.398 . S
C856 C857 1.391 . S
C857 H845 0.950 . S
C857 C853 1.393 . S
C857 C856 1.391 . S
C858 H848 0.950 . S
C858 C859 1.386 . S
C858 C860 1.391 . S
C859 C858 1.386 . S
C859 C863 1.393 . S
C860 H849 0.950 . S
C860 C858 1.391 . S
C860 C861 1.400 . S
C861 C855 1.491 . S
C861 C860 1.400 . S
C861 C862 1.398 . S
C862 H850 0.950 . S
C862 C861 1.398 . S
C862 C863 1.391 . S
C863 H851 0.950 . S
C863 C859 1.393 . S
C863 C862 1.391 . S
H864 C872 0.950 . S
H865 C877 0.950 . S
H866 C874 0.950 . S
H867 C876 0.950 . S
H868 C878 0.950 . S
H869 C880 0.950 . S
H870 C882 0.950 . S
H871 C883 0.950 . S
C872 H864 0.950 . S
C872 C873 1.386 . S
C872 C874 1.391 . S
C873 C872 1.386 . S
C873 C877 1.393 . S
C874 H866 0.950 . S
C874 C872 1.391 . S
C874 C875 1.400 . S
C875 C874 1.400 . S
C875 C876 1.398 . S
C875 C881 1.491 . S
C876 H867 0.950 . S
C876 C875 1.398 . S
C876 C877 1.391 . S
C877 H865 0.950 . S
C877 C873 1.393 . S
C877 C876 1.391 . S
C878 H868 0.950 . S
C878 C879 1.386 . S
C878 C880 1.391 . S
C879 C878 1.386 . S
C879 C883 1.393 . S
C880 H869 0.950 . S
C880 C878 1.391 . S
C880 C881 1.400 . S
C881 C875 1.491 . S
C881 C880 1.400 . S
C881 C882 1.398 . S
C882 H870 0.950 . S
C882 C881 1.398 . S
C882 C883 1.391 . S
C883 H871 0.950 . S
C883 C879 1.393 . S
C883 C882 1.391 . S
H884 C892 0.950 . S
H885 C897 0.950 . S
H886 C894 0.950 . S
H887 C896 0.950 . S
H888 C898 0.950 . S
H889 C900 0.950 . S
H890 C902 0.950 . S
H891 C903 0.950 . S
C892 H884 0.950 . S
C892 C893 1.386 . S
C892 C894 1.391 . S
C893 C892 1.386 . S
C893 C897 1.393 . S
C894 H886 0.950 . S
C894 C892 1.391 . S
C894 C895 1.400 . S
C895 C894 1.400 . S
C895 C896 1.398 . S
C895 C901 1.491 . S
C896 H887 0.950 . S
C896 C895 1.398 . S
C896 C897 1.391 . S
C897 H885 0.950 . S
C897 C893 1.393 . S
C897 C896 1.391 . S
C898 H888 0.950 . S
C898 C899 1.386 . S
C898 C900 1.391 . S
C899 C898 1.386 . S
C899 C903 1.393 . S
C900 H889 0.950 . S
C900 C898 1.391 . S
C900 C901 1.400 . S
C901 C895 1.491 . S
C901 C900 1.400 . S
C901 C902 1.398 . S
C902 H890 0.950 . S
C902 C901 1.398 . S
C902 C903 1.391 . S
C903 H891 0.950 . S
C903 C899 1.393 . S
C903 C902 1.391 . S
H904 C912 0.950 . S
H905 C917 0.950 . S
H906 C914 0.950 . S
H907 C916 0.950 . S
H908 C918 0.950 . S
H909 C920 0.950 . S
H910 C922 0.950 1_556 S
H911 C923 0.950 . S
C912 H904 0.950 . S
C912 C913 1.386 . S
C912 C914 1.391 . S
C913 C912 1.386 . S
C913 C917 1.393 1_556 S
C914 H906 0.950 . S
C914 C912 1.391 . S
C914 C915 1.400 1_556 S
C915 C914 1.400 1_554 S
C915 C916 1.398 . S
C915 C921 1.491 . S
C916 H907 0.950 . S
C916 C915 1.398 . S
C916 C917 1.391 . S
C917 H905 0.950 . S
C917 C913 1.393 1_554 S
C917 C916 1.391 . S
C918 H908 0.950 . S
C918 C919 1.386 . S
C918 C920 1.391 . S
C919 C918 1.386 . S
C919 C923 1.393 . S
C920 H909 0.950 . S
C920 C918 1.391 . S
C920 C921 1.400 . S
C921 C915 1.491 . S
C921 C920 1.400 . S
C921 C922 1.398 . S
C922 H910 0.950 1_554 S
C922 C921 1.398 . S
C922 C923 1.391 . S
C923 H911 0.950 . S
C923 C919 1.393 . S
C923 C922 1.391 . S
H924 C932 0.950 . S
H925 C937 0.950 . S
H926 C934 0.950 . S
H927 C936 0.950 . S
H928 C938 0.950 . S
H929 C940 0.950 . S
H930 C942 0.950 . S
H931 C943 0.950 . S
C932 H924 0.950 . S
C932 C933 1.386 . S
C932 C934 1.391 . S
C933 C932 1.386 . S
C933 C937 1.393 . S
C934 H926 0.950 . S
C934 C932 1.391 . S
C934 C935 1.400 . S
C935 C934 1.400 . S
C935 C936 1.398 . S
C935 C941 1.491 . S
C936 H927 0.950 . S
C936 C935 1.398 . S
C936 C937 1.391 . S
C937 H925 0.950 . S
C937 C933 1.393 . S
C937 C936 1.391 . S
C938 H928 0.950 . S
C938 C939 1.386 . S
C938 C940 1.391 . S
C939 C938 1.386 . S
C939 C943 1.393 . S
C940 H929 0.950 . S
C940 C938 1.391 . S
C940 C941 1.400 . S
C941 C935 1.491 . S
C941 C940 1.400 . S
C941 C942 1.398 . S
C942 H930 0.950 . S
C942 C941 1.398 . S
C942 C943 1.391 . S
C943 H931 0.950 . S
C943 C939 1.393 . S
C943 C942 1.391 . S
H944 C952 0.950 . S
H945 C957 0.950 . S
H946 C954 0.950 . S
H947 C956 0.950 . S
H948 C958 0.950 . S
H949 C960 0.950 . S
H950 C962 0.950 . S
H951 C963 0.950 . S
C952 H944 0.950 . S
C952 C953 1.386 . S
C952 C954 1.391 . S
C953 C952 1.386 . S
C953 C957 1.393 . S
C954 H946 0.950 . S
C954 C952 1.391 . S
C954 C955 1.400 . S
C955 C954 1.400 . S
C955 C956 1.398 . S
C955 C961 1.491 . S
C956 H947 0.950 . S
C956 C955 1.398 . S
C956 C957 1.391 . S
C957 H945 0.950 . S
C957 C953 1.393 . S
C957 C956 1.391 . S
C958 H948 0.950 . S
C958 C959 1.386 . S
C958 C960 1.391 . S
C959 C958 1.386 . S
C959 C963 1.393 . S
C960 H949 0.950 . S
C960 C958 1.391 . S
C960 C961 1.400 . S
C961 C955 1.491 . S
C961 C960 1.400 . S
C961 C962 1.398 . S
C962 H950 0.950 . S
C962 C961 1.398 . S
C962 C963 1.391 . S
C963 H951 0.950 . S
C963 C959 1.393 . S
C963 C962 1.391 . S
H964 C972 0.950 . S
H965 C977 0.950 . S
H966 C974 0.950 . S
H967 C976 0.950 . S
H968 C978 0.950 . S
H969 C980 0.950 . S
H970 C982 0.950 1_455 S
H971 C983 0.950 . S
C972 H964 0.950 . S
C972 C973 1.386 . S
C972 C974 1.391 . S
C973 C972 1.386 . S
C973 C977 1.393 . S
C974 H966 0.950 . S
C974 C972 1.391 . S
C974 C975 1.400 . S
C975 C974 1.400 . S
C975 C976 1.398 . S
C975 C981 1.491 1_455 S
C976 H967 0.950 . S
C976 C975 1.398 . S
C976 C977 1.391 . S
C977 H965 0.950 . S
C977 C973 1.393 . S
C977 C976 1.391 . S
C978 H968 0.950 . S
C978 C979 1.386 . S
C978 C980 1.391 . S
C979 C978 1.386 . S
C979 C983 1.393 . S
C980 H969 0.950 . S
C980 C978 1.391 . S
C980 C981 1.400 . S
C981 C975 1.491 1_655 S
C981 C980 1.400 . S
C981 C982 1.398 . S
C982 H970 0.950 1_655 S
C982 C981 1.398 . S
C982 C983 1.391 . S
C983 H971 0.950 . S
C983 C979 1.393 . S
C983 C982 1.391 . S
H984 C992 0.950 . S
H985 C997 0.950 . S
H986 C994 0.950 . S
H987 C996 0.950 . S
H988 C998 0.950 . S
H989 C1000 0.950 . S
H990 C1002 0.950 . S
H991 C1003 0.950 . S
C992 H984 0.950 . S
C992 C993 1.386 . S
C992 C994 1.391 . S
C993 C992 1.386 . S
C993 C997 1.393 . S
C994 H986 0.950 . S
C994 C992 1.391 . S
C994 C995 1.400 . S
C995 C994 1.400 . S
C995 C996 1.398 . S
C995 C1001 1.491 . S
C996 H987 0.950 . S
C996 C995 1.398 . S
C996 C997 1.391 . S
C997 H985 0.950 . S
C997 C993 1.393 . S
C997 C996 1.391 . S
C998 H988 0.950 . S
C998 C999 1.386 . S
C998 C1000 1.391 . S
C999 C998 1.386 . S
C999 C1003 1.393 . S
C1000 H989 0.950 . S
C1000 C998 1.391 . S
C1000 C1001 1.400 . S
C1001 C995 1.491 . S
C1001 C1000 1.400 . S
C1001 C1002 1.398 . S
C1002 H990 0.950 . S
C1002 C1001 1.398 . S
C1002 C1003 1.391 . S
C1003 H991 0.950 . S
C1003 C999 1.393 . S
C1003 C1002 1.391 . S
H1004 C1012 0.950 . S
H1005 C1017 0.950 . S
H1006 C1014 0.950 . S
H1007 C1016 0.950 . S
H1008 C1018 0.950 . S
H1009 C1020 0.950 . S
H1010 C1022 0.950 . S
H1011 C1023 0.950 . S
C1012 H1004 0.950 . S
C1012 C1013 1.386 . S
C1012 C1014 1.391 . S
C1013 C1012 1.386 . S
C1013 C1017 1.393 . S
C1014 H1006 0.950 . S
C1014 C1012 1.391 . S
C1014 C1015 1.400 . S
C1015 C1014 1.400 . S
C1015 C1016 1.398 . S
C1015 C1021 1.491 . S
C1016 H1007 0.950 . S
C1016 C1015 1.398 . S
C1016 C1017 1.391 . S
C1017 H1005 0.950 . S
C1017 C1013 1.393 . S
C1017 C1016 1.391 . S
C1018 H1008 0.950 . S
C1018 C1019 1.386 . S
C1018 C1020 1.391 . S
C1019 C1018 1.386 . S
C1019 C1023 1.393 . S
C1020 H1009 0.950 . S
C1020 C1018 1.391 . S
C1020 C1021 1.400 . S
C1021 C1015 1.491 . S
C1021 C1020 1.400 . S
C1021 C1022 1.398 . S
C1022 H1010 0.950 . S
C1022 C1021 1.398 . S
C1022 C1023 1.391 . S
C1023 H1011 0.950 . S
C1023 C1019 1.393 . S
C1023 C1022 1.391 . S
H1024 C1032 0.950 . S
H1025 C1037 0.950 . S
H1026 C1034 0.950 . S
H1027 C1036 0.950 . S
H1028 C1038 0.950 . S
H1029 C1040 0.950 . S
H1030 C1042 0.950 . S
H1031 C1043 0.950 . S
C1032 H1024 0.950 . S
C1032 C1033 1.386 . S
C1032 C1034 1.391 . S
C1033 C1032 1.386 . S
C1033 C1037 1.393 . S
C1034 H1026 0.950 . S
C1034 C1032 1.391 . S
C1034 C1035 1.400 . S
C1035 C1034 1.400 . S
C1035 C1036 1.398 . S
C1035 C1041 1.491 . S
C1036 H1027 0.950 . S
C1036 C1035 1.398 . S
C1036 C1037 1.391 . S
C1037 H1025 0.950 . S
C1037 C1033 1.393 . S
C1037 C1036 1.391 . S
C1038 H1028 0.950 . S
C1038 C1039 1.386 . S
C1038 C1040 1.391 . S
C1039 C1038 1.386 . S
C1039 C1043 1.393 . S
C1040 H1029 0.950 . S
C1040 C1038 1.391 . S
C1040 C1041 1.400 . S
C1041 C1035 1.491 . S
C1041 C1040 1.400 . S
C1041 C1042 1.398 . S
C1042 H1030 0.950 . S
C1042 C1041 1.398 . S
C1042 C1043 1.391 . S
C1043 H1031 0.950 . S
C1043 C1039 1.393 . S
C1043 C1042 1.391 . S
H1044 C1052 0.950 . S
H1045 C1057 0.950 . S
H1046 C1054 0.950 . S
H1047 C1056 0.950 . S
H1048 C1058 0.950 . S
H1049 C1060 0.950 . S
H1050 C1062 0.950 . S
H1051 C1063 0.950 . S
C1052 H1044 0.950 . S
C1052 C1053 1.386 . S
C1052 C1054 1.391 1_554 S
C1053 C1052 1.386 . S
C1053 C1057 1.393 1_554 S
C1054 H1046 0.950 . S
C1054 C1052 1.391 1_556 S
C1054 C1055 1.400 . S
C1055 C1054 1.400 . S
C1055 C1056 1.398 . S
C1055 C1061 1.491 . S
C1056 H1047 0.950 . S
C1056 C1055 1.398 . S
C1056 C1057 1.391 . S
C1057 H1045 0.950 . S
C1057 C1053 1.393 1_556 S
C1057 C1056 1.391 . S
C1058 H1048 0.950 . S
C1058 C1059 1.386 . S
C1058 C1060 1.391 . S
C1059 C1058 1.386 . S
C1059 C1063 1.393 . S
C1060 H1049 0.950 . S
C1060 C1058 1.391 . S
C1060 C1061 1.400 . S
C1061 C1055 1.491 . S
C1061 C1060 1.400 . S
C1061 C1062 1.398 . S
C1062 H1050 0.950 . S
C1062 C1061 1.398 . S
C1062 C1063 1.391 . S
C1063 H1051 0.950 . S
C1063 C1059 1.393 . S
C1063 C1062 1.391 . S
H1064 C1072 0.950 . S
H1065 C1077 0.950 . S
H1066 C1074 0.950 . S
H1067 C1076 0.950 . S
H1068 C1078 0.950 . S
H1069 C1080 0.950 . S
H1070 C1082 0.950 . S
H1071 C1083 0.950 . S
C1072 H1064 0.950 . S
C1072 C1073 1.386 . S
C1072 C1074 1.391 . S
C1073 C1072 1.386 . S
C1073 C1077 1.393 . S
C1074 H1066 0.950 . S
C1074 C1072 1.391 . S
C1074 C1075 1.400 . S
C1075 C1074 1.400 . S
C1075 C1076 1.398 . S
C1075 C1081 1.491 . S
C1076 H1067 0.950 . S
C1076 C1075 1.398 . S
C1076 C1077 1.391 . S
C1077 H1065 0.950 . S
C1077 C1073 1.393 . S
C1077 C1076 1.391 . S
C1078 H1068 0.950 . S
C1078 C1079 1.386 . S
C1078 C1080 1.391 . S
C1079 C1078 1.386 . S
C1079 C1083 1.393 . S
C1080 H1069 0.950 . S
C1080 C1078 1.391 . S
C1080 C1081 1.400 . S
C1081 C1075 1.491 . S
C1081 C1080 1.400 . S
C1081 C1082 1.398 . S
C1082 H1070 0.950 . S
C1082 C1081 1.398 . S
C1082 C1083 1.391 . S
C1083 H1071 0.950 . S
C1083 C1079 1.393 . S
C1083 C1082 1.391 . S
H1084 C1092 0.950 . S
H1085 C1097 0.950 . S
H1086 C1094 0.950 1_455 S
H1087 C1096 0.950 . S
H1088 C1098 0.950 . S
H1089 C1100 0.950 . S
H1090 C1102 0.950 . S
H1091 C1103 0.950 . S
C1092 H1084 0.950 . S
C1092 C1093 1.386 . S
C1092 C1094 1.391 . S
C1093 C1092 1.386 . S
C1093 C1097 1.393 . S
C1094 H1086 0.950 1_655 S
C1094 C1092 1.391 . S
C1094 C1095 1.400 . S
C1095 C1094 1.400 . S
C1095 C1096 1.398 . S
C1095 C1101 1.491 1_655 S
C1096 H1087 0.950 . S
C1096 C1095 1.398 . S
C1096 C1097 1.391 . S
C1097 H1085 0.950 . S
C1097 C1093 1.393 . S
C1097 C1096 1.391 . S
C1098 H1088 0.950 . S
C1098 C1099 1.386 . S
C1098 C1100 1.391 . S
C1099 C1098 1.386 . S
C1099 C1103 1.393 . S
C1100 H1089 0.950 . S
C1100 C1098 1.391 . S
C1100 C1101 1.400 . S
C1101 C1095 1.491 1_455 S
C1101 C1100 1.400 . S
C1101 C1102 1.398 . S
C1102 H1090 0.950 . S
C1102 C1101 1.398 . S
C1102 C1103 1.391 . S
C1103 H1091 0.950 . S
C1103 C1099 1.393 . S
C1103 C1102 1.391 . S
H1104 C1112 0.950 . S
H1105 C1117 0.950 . S
H1106 C1114 0.950 . S
H1107 C1116 0.950 . S
H1108 C1118 0.950 . S
H1109 C1120 0.950 . S
H1110 C1122 0.950 . S
H1111 C1123 0.950 . S
C1112 H1104 0.950 . S
C1112 C1113 1.386 . S
C1112 C1114 1.391 . S
C1113 C1112 1.386 . S
C1113 C1117 1.393 . S
C1114 H1106 0.950 . S
C1114 C1112 1.391 . S
C1114 C1115 1.400 . S
C1115 C1114 1.400 . S
C1115 C1116 1.398 . S
C1115 C1121 1.491 . S
C1116 H1107 0.950 . S
C1116 C1115 1.398 . S
C1116 C1117 1.391 . S
C1117 H1105 0.950 . S
C1117 C1113 1.393 . S
C1117 C1116 1.391 . S
C1118 H1108 0.950 . S
C1118 C1119 1.386 . S
C1118 C1120 1.391 . S
C1119 C1118 1.386 . S
C1119 C1123 1.393 . S
C1120 H1109 0.950 . S
C1120 C1118 1.391 . S
C1120 C1121 1.400 . S
C1121 C1115 1.491 . S
C1121 C1120 1.400 . S
C1121 C1122 1.398 . S
C1122 H1110 0.950 . S
C1122 C1121 1.398 . S
C1122 C1123 1.391 . S
C1123 H1111 0.950 . S
C1123 C1119 1.393 . S
C1123 C1122 1.391 . S
H1124 C1132 0.950 . S
H1125 C1137 0.950 . S
H1126 C1134 0.950 . S
H1127 C1136 0.950 . S
H1128 C1138 0.950 . S
H1129 C1140 0.950 . S
H1130 C1142 0.950 . S
H1131 C1143 0.950 . S
C1132 H1124 0.950 . S
C1132 C1133 1.386 . S
C1132 C1134 1.391 . S
C1133 C1132 1.386 . S
C1133 C1137 1.393 . S
C1134 H1126 0.950 . S
C1134 C1132 1.391 . S
C1134 C1135 1.391 1_455 S
C1135 C1134 1.391 1_655 S
C1135 C1136 1.387 1_655 S
C1135 C1141 1.511 . S
C1136 H1127 0.950 . S
C1136 C1135 1.387 1_455 S
C1136 C1137 1.391 . S
C1137 H1125 0.950 . S
C1137 C1133 1.393 . S
C1137 C1136 1.391 . S
C1138 H1128 0.950 . S
C1138 C1139 1.386 . S
C1138 C1140 1.391 . S
C1139 C1138 1.386 . S
C1139 C1143 1.393 . S
C1140 H1129 0.950 . S
C1140 C1138 1.391 . S
C1140 C1141 1.400 . S
C1141 C1135 1.511 . S
C1141 C1140 1.400 . S
C1141 C1142 1.398 . S
C1142 H1130 0.950 . S
C1142 C1141 1.398 . S
C1142 C1143 1.391 . S
C1143 H1131 0.950 . S
C1143 C1139 1.393 . S
C1143 C1142 1.391 . S
H1144 C1152 0.950 . S
H1145 C1157 0.950 . S
H1146 C1154 0.950 . S
H1147 C1156 0.950 . S
H1148 C1158 0.950 . S
H1149 C1160 0.950 . S
H1150 C1162 0.950 . S
H1151 C1163 0.950 . S
C1152 H1144 0.950 . S
C1152 C1153 1.386 . S
C1152 C1154 1.391 . S
C1153 C1152 1.386 . S
C1153 C1157 1.393 . S
C1154 H1146 0.950 . S
C1154 C1152 1.391 . S
C1154 C1155 1.400 . S
C1155 C1154 1.400 . S
C1155 C1156 1.398 . S
C1155 C1161 1.491 . S
C1156 H1147 0.950 . S
C1156 C1155 1.398 . S
C1156 C1157 1.391 . S
C1157 H1145 0.950 . S
C1157 C1153 1.393 . S
C1157 C1156 1.391 . S
C1158 H1148 0.950 . S
C1158 C1159 1.386 . S
C1158 C1160 1.391 . S
C1159 C1158 1.386 . S
C1159 C1163 1.393 . S
C1160 H1149 0.950 . S
C1160 C1158 1.391 . S
C1160 C1161 1.400 . S
C1161 C1155 1.491 . S
C1161 C1160 1.400 . S
C1161 C1162 1.398 . S
C1162 H1150 0.950 . S
C1162 C1161 1.398 . S
C1162 C1163 1.391 . S
C1163 H1151 0.950 . S
C1163 C1159 1.393 . S
C1163 C1162 1.391 . S
H1164 C1172 0.950 . S
H1165 C1177 0.950 . S
H1166 C1174 0.950 . S
H1167 C1176 0.950 . S
H1168 C1178 0.950 . S
H1169 C1180 0.950 . S
H1170 C1182 0.950 . S
H1171 C1183 0.950 . S
C1172 H1164 0.950 . S
C1172 C1173 1.386 . S
C1172 C1174 1.391 . S
C1173 C1172 1.386 . S
C1173 C1177 1.393 . S
C1174 H1166 0.950 . S
C1174 C1172 1.391 . S
C1174 C1175 1.400 . S
C1175 C1174 1.400 . S
C1175 C1176 1.398 . S
C1175 C1181 1.491 . S
C1176 H1167 0.950 . S
C1176 C1175 1.398 . S
C1176 C1177 1.391 . S
C1177 H1165 0.950 . S
C1177 C1173 1.393 . S
C1177 C1176 1.391 . S
C1178 H1168 0.950 . S
C1178 C1179 1.386 . S
C1178 C1180 1.391 . S
C1179 C1178 1.386 . S
C1179 C1183 1.393 . S
C1180 H1169 0.950 . S
C1180 C1178 1.391 . S
C1180 C1181 1.400 . S
C1181 C1175 1.491 . S
C1181 C1180 1.400 . S
C1181 C1182 1.398 . S
C1182 H1170 0.950 . S
C1182 C1181 1.398 . S
C1182 C1183 1.391 . S
C1183 H1171 0.950 . S
C1183 C1179 1.393 . S
C1183 C1182 1.391 . S
H1184 C1192 0.950 . S
H1185 C1197 0.950 . S
H1186 C1194 0.950 . S
H1187 C1196 0.950 . S
H1188 C1198 0.950 . S
H1189 C1200 0.950 . S
H1190 C1202 0.950 . S
H1191 C1203 0.950 . S
C1192 H1184 0.950 . S
C1192 C1193 1.386 . S
C1192 C1194 1.391 . S
C1193 C1192 1.386 . S
C1193 C1197 1.393 . S
C1194 H1186 0.950 . S
C1194 C1192 1.391 . S
C1194 C1195 1.400 . S
C1195 C1194 1.400 . S
C1195 C1196 1.398 . S
C1195 C1201 1.491 . S
C1196 H1187 0.950 . S
C1196 C1195 1.398 . S
C1196 C1197 1.391 . S
C1197 H1185 0.950 . S
C1197 C1193 1.393 . S
C1197 C1196 1.391 . S
C1198 H1188 0.950 . S
C1198 C1199 1.386 . S
C1198 C1200 1.391 . S
C1199 C1198 1.386 . S
C1199 C1203 1.393 . S
C1200 H1189 0.950 . S
C1200 C1198 1.391 . S
C1200 C1201 1.400 . S
C1201 C1195 1.491 . S
C1201 C1200 1.400 . S
C1201 C1202 1.398 . S
C1202 H1190 0.950 . S
C1202 C1201 1.398 . S
C1202 C1203 1.391 . S
C1203 H1191 0.950 . S
C1203 C1199 1.393 . S
C1203 C1202 1.391 . S
H1204 C1212 0.950 1_556 S
H1205 C1217 0.950 . S
H1206 C1214 0.950 . S
H1207 C1216 0.950 . S
H1208 C1218 0.950 . S
H1209 C1220 0.950 . S
H1210 C1222 0.950 . S
H1211 C1223 0.950 . S
C1212 H1204 0.950 1_554 S
C1212 C1213 1.386 . S
C1212 C1214 1.391 . S
C1213 C1212 1.386 . S
C1213 C1217 1.393 . S
C1214 H1206 0.950 . S
C1214 C1212 1.391 . S
C1214 C1215 1.400 . S
C1215 C1214 1.400 . S
C1215 C1216 1.398 . S
C1215 C1221 1.491 . S
C1216 H1207 0.950 . S
C1216 C1215 1.398 . S
C1216 C1217 1.391 . S
C1217 H1205 0.950 . S
C1217 C1213 1.393 . S
C1217 C1216 1.391 . S
C1218 H1208 0.950 . S
C1218 C1219 1.386 . S
C1218 C1220 1.391 . S
C1219 C1218 1.386 . S
C1219 C1223 1.393 . S
C1220 H1209 0.950 . S
C1220 C1218 1.391 . S
C1220 C1221 1.400 . S
C1221 C1215 1.491 . S
C1221 C1220 1.400 . S
C1221 C1222 1.398 . S
C1222 H1210 0.950 . S
C1222 C1221 1.398 . S
C1222 C1223 1.391 . S
C1223 H1211 0.950 . S
C1223 C1219 1.393 . S
C1223 C1222 1.391 . S
H1224 C1232 0.950 . S
H1225 C1237 0.950 . S
H1226 C1234 0.950 . S
H1227 C1236 0.950 . S
H1228 C1238 0.950 . S
H1229 C1240 0.950 . S
H1230 C1242 0.950 . S
H1231 C1243 0.950 . S
C1232 H1224 0.950 . S
C1232 C1233 1.386 . S
C1232 C1234 1.391 . S
C1233 C1232 1.386 . S
C1233 C1237 1.393 . S
C1234 H1226 0.950 . S
C1234 C1232 1.391 . S
C1234 C1235 1.400 . S
C1235 C1234 1.400 . S
C1235 C1236 1.398 . S
C1235 C1241 1.491 . S
C1236 H1227 0.950 . S
C1236 C1235 1.398 . S
C1236 C1237 1.391 . S
C1237 H1225 0.950 . S
C1237 C1233 1.393 . S
C1237 C1236 1.391 . S
C1238 H1228 0.950 . S
C1238 C1239 1.386 . S
C1238 C1240 1.391 . S
C1239 C1238 1.386 . S
C1239 C1243 1.393 . S
C1240 H1229 0.950 . S
C1240 C1238 1.391 . S
C1240 C1241 1.400 . S
C1241 C1235 1.491 . S
C1241 C1240 1.400 . S
C1241 C1242 1.398 . S
C1242 H1230 0.950 . S
C1242 C1241 1.398 . S
C1242 C1243 1.391 . S
C1243 H1231 0.950 . S
C1243 C1239 1.393 . S
C1243 C1242 1.391 . S
H1244 C1252 0.950 . S
H1245 C1257 0.950 . S
H1246 C1254 0.950 . S
H1247 C1256 0.950 . S
H1248 C1258 0.950 . S
H1249 C1260 0.950 1_655 S
H1250 C1262 0.950 . S
H1251 C1263 0.950 . S
C1252 H1244 0.950 . S
C1252 C1253 1.386 . S
C1252 C1254 1.391 . S
C1253 C1252 1.386 . S
C1253 C1257 1.393 . S
C1254 H1246 0.950 . S
C1254 C1252 1.391 . S
C1254 C1255 1.400 . S
C1255 C1254 1.400 . S
C1255 C1256 1.398 . S
C1255 C1261 1.491 1_655 S
C1256 H1247 0.950 . S
C1256 C1255 1.398 . S
C1256 C1257 1.391 . S
C1257 H1245 0.950 . S
C1257 C1253 1.393 . S
C1257 C1256 1.391 . S
C1258 H1248 0.950 . S
C1258 C1259 1.386 . S
C1258 C1260 1.391 . S
C1259 C1258 1.386 . S
C1259 C1263 1.393 . S
C1260 H1249 0.950 1_455 S
C1260 C1258 1.391 . S
C1260 C1261 1.400 . S
C1261 C1255 1.491 1_455 S
C1261 C1260 1.400 . S
C1261 C1262 1.398 . S
C1262 H1250 0.950 . S
C1262 C1261 1.398 . S
C1262 C1263 1.391 . S
C1263 H1251 0.950 . S
C1263 C1259 1.393 . S
C1263 C1262 1.391 . S
H1264 C1272 0.950 . S
H1265 C1277 0.950 . S
H1266 C1274 0.950 . S
H1267 C1276 0.950 . S
H1268 C1278 0.950 . S
H1269 C1280 0.950 . S
H1270 C1282 0.950 . S
H1271 C1283 0.950 . S
C1272 H1264 0.950 . S
C1272 C1273 1.386 . S
C1272 C1274 1.391 . S
C1273 C1272 1.386 . S
C1273 C1277 1.393 . S
C1274 H1266 0.950 . S
C1274 C1272 1.391 . S
C1274 C1275 1.400 . S
C1275 C1274 1.400 . S
C1275 C1276 1.398 . S
C1275 C1281 1.491 . S
C1276 H1267 0.950 . S
C1276 C1275 1.398 . S
C1276 C1277 1.391 . S
C1277 H1265 0.950 . S
C1277 C1273 1.393 . S
C1277 C1276 1.391 . S
C1278 H1268 0.950 . S
C1278 C1279 1.386 . S
C1278 C1280 1.391 . S
C1279 C1278 1.386 . S
C1279 C1283 1.393 . S
C1280 H1269 0.950 . S
C1280 C1278 1.391 . S
C1280 C1281 1.400 . S
C1281 C1275 1.491 . S
C1281 C1280 1.400 . S
C1281 C1282 1.398 . S
C1282 H1270 0.950 . S
C1282 C1281 1.398 . S
C1282 C1283 1.391 . S
C1283 H1271 0.950 . S
C1283 C1279 1.393 . S
C1283 C1282 1.391 . S
H1284 C1292 0.950 . S
H1285 C1297 0.950 . S
H1286 C1294 0.950 . S
H1287 C1296 0.950 . S
H1288 C1298 0.950 . S
H1289 C1300 0.950 . S
H1290 C1302 0.950 . S
H1291 C1303 0.950 . S
C1292 H1284 0.950 . S
C1292 C1293 1.386 . S
C1292 C1294 1.391 . S
C1293 C1292 1.386 . S
C1293 C1297 1.393 . S
C1294 H1286 0.950 . S
C1294 C1292 1.391 . S
C1294 C1295 1.400 . S
C1295 C1294 1.400 . S
C1295 C1296 1.398 . S
C1295 C1301 1.491 . S
C1296 H1287 0.950 . S
C1296 C1295 1.398 . S
C1296 C1297 1.391 . S
C1297 H1285 0.950 . S
C1297 C1293 1.393 . S
C1297 C1296 1.391 . S
C1298 H1288 0.950 . S
C1298 C1299 1.386 . S
C1298 C1300 1.391 . S
C1299 C1298 1.386 . S
C1299 C1303 1.393 . S
C1300 H1289 0.950 . S
C1300 C1298 1.391 . S
C1300 C1301 1.400 . S
C1301 C1295 1.491 . S
C1301 C1300 1.400 . S
C1301 C1302 1.398 . S
C1302 H1290 0.950 . S
C1302 C1301 1.398 . S
C1302 C1303 1.391 . S
C1303 H1291 0.950 . S
C1303 C1299 1.393 . S
C1303 C1302 1.391 . S
H1304 C1312 0.950 . S
H1305 C1317 0.950 . S
H1306 C1314 0.950 . S
H1307 C1316 0.950 . S
H1308 C1318 0.950 . S
H1309 C1320 0.950 . S
H1310 C1322 0.950 . S
H1311 C1323 0.950 . S
C1312 H1304 0.950 . S
C1312 C1313 1.386 . S
C1312 C1314 1.391 . S
C1313 C1312 1.386 . S
C1313 C1317 1.393 . S
C1314 H1306 0.950 . S
C1314 C1312 1.391 . S
C1314 C1315 1.400 . S
C1315 C1314 1.400 . S
C1315 C1316 1.398 . S
C1315 C1321 1.491 . S
C1316 H1307 0.950 . S
C1316 C1315 1.398 . S
C1316 C1317 1.391 . S
C1317 H1305 0.950 . S
C1317 C1313 1.393 . S
C1317 C1316 1.391 . S
C1318 H1308 0.950 . S
C1318 C1319 1.386 . S
C1318 C1320 1.391 . S
C1319 C1318 1.386 . S
C1319 C1323 1.393 . S
C1320 H1309 0.950 . S
C1320 C1318 1.391 . S
C1320 C1321 1.400 . S
C1321 C1315 1.491 . S
C1321 C1320 1.400 . S
C1321 C1322 1.398 . S
C1322 H1310 0.950 . S
C1322 C1321 1.398 . S
C1322 C1323 1.391 . S
C1323 H1311 0.950 . S
C1323 C1319 1.393 . S
C1323 C1322 1.391 . S
H1324 C1332 0.950 . S
H1325 C1337 0.950 . S
H1326 C1334 0.950 . S
H1327 C1336 0.950 . S
H1328 C1338 0.950 . S
H1329 C1340 0.950 . S
H1330 C1342 0.950 . S
H1331 C1343 0.950 1_556 S
C1332 H1324 0.950 . S
C1332 C1333 1.386 . S
C1332 C1334 1.391 . S
C1333 C1332 1.386 . S
C1333 C1337 1.393 . S
C1334 H1326 0.950 . S
C1334 C1332 1.391 . S
C1334 C1335 1.400 1_455 S
C1335 C1334 1.400 1_655 S
C1335 C1336 1.398 . S
C1335 C1341 1.491 . S
C1336 H1327 0.950 . S
C1336 C1335 1.398 . S
C1336 C1337 1.391 1_655 S
C1337 H1325 0.950 . S
C1337 C1333 1.393 . S
C1337 C1336 1.391 1_455 S
C1338 H1328 0.950 . S
C1338 C1339 1.386 . S
C1338 C1340 1.391 . S
C1339 C1338 1.386 . S
C1339 C1343 1.393 . S
C1340 H1329 0.950 . S
C1340 C1338 1.391 . S
C1340 C1341 1.400 . S
C1341 C1335 1.491 . S
C1341 C1340 1.400 . S
C1341 C1342 1.398 . S
C1342 H1330 0.950 . S
C1342 C1341 1.398 . S
C1342 C1343 1.391 . S
C1343 H1331 0.950 1_554 S
C1343 C1339 1.393 . S
C1343 C1342 1.391 . S
H1344 C1352 0.950 . S
H1345 C1357 0.950 . S
H1346 C1354 0.950 . S
H1347 C1356 0.950 . S
H1348 C1358 0.950 . S
H1349 C1360 0.950 . S
H1350 C1362 0.950 . S
H1351 C1363 0.950 . S
C1352 H1344 0.950 . S
C1352 C1353 1.386 . S
C1352 C1354 1.391 . S
C1353 C1352 1.386 . S
C1353 C1357 1.393 . S
C1354 H1346 0.950 . S
C1354 C1352 1.391 . S
C1354 C1355 1.400 . S
C1355 C1354 1.400 . S
C1355 C1356 1.398 . S
C1355 C1361 1.491 . S
C1356 H1347 0.950 . S
C1356 C1355 1.398 . S
C1356 C1357 1.391 . S
C1357 H1345 0.950 . S
C1357 C1353 1.393 . S
C1357 C1356 1.391 . S
C1358 H1348 0.950 . S
C1358 C1359 1.386 . S
C1358 C1360 1.391 . S
C1359 C1358 1.386 . S
C1359 C1363 1.393 . S
C1360 H1349 0.950 . S
C1360 C1358 1.391 . S
C1360 C1361 1.400 . S
C1361 C1355 1.491 . S
C1361 C1360 1.400 . S
C1361 C1362 1.398 . S
C1362 H1350 0.950 . S
C1362 C1361 1.398 . S
C1362 C1363 1.391 . S
C1363 H1351 0.950 . S
C1363 C1359 1.393 . S
C1363 C1362 1.391 . S
H1364 C1372 0.950 . S
H1365 C1377 0.950 . S
H1366 C1374 0.950 1_455 S
H1367 C1376 0.950 . S
H1368 C1378 0.950 . S
H1369 C1380 0.950 1_655 S
H1370 C1382 0.950 . S
H1371 C1383 0.950 . S
C1372 H1364 0.950 . S
C1372 C1373 1.386 . S
C1372 C1374 1.391 . S
C1373 C1372 1.386 . S
C1373 C1377 1.393 . S
C1374 H1366 0.950 1_655 S
C1374 C1372 1.391 . S
C1374 C1375 1.400 . S
C1375 C1374 1.400 . S
C1375 C1376 1.398 . S
C1375 C1381 1.491 1_655 S
C1376 H1367 0.950 . S
C1376 C1375 1.398 . S
C1376 C1377 1.391 . S
C1377 H1365 0.950 . S
C1377 C1373 1.393 . S
C1377 C1376 1.391 . S
C1378 H1368 0.950 . S
C1378 C1379 1.386 . S
C1378 C1380 1.391 . S
C1379 C1378 1.386 . S
C1379 C1383 1.393 . S
C1380 H1369 0.950 1_455 S
C1380 C1378 1.391 . S
C1380 C1381 1.400 . S
C1381 C1375 1.491 1_455 S
C1381 C1380 1.400 . S
C1381 C1382 1.398 . S
C1382 H1370 0.950 . S
C1382 C1381 1.398 . S
C1382 C1383 1.391 . S
C1383 H1371 0.950 . S
C1383 C1379 1.393 . S
C1383 C1382 1.391 . S
H1384 C1392 0.950 . S
H1385 C1397 0.950 . S
H1386 C1394 0.950 . S
H1387 C1396 0.950 . S
H1388 C1398 0.950 . S
H1389 C1400 0.950 . S
H1390 C1402 0.950 . S
H1391 C1403 0.950 . S
C1392 H1384 0.950 . S
C1392 C1393 1.386 . S
C1392 C1394 1.391 . S
C1393 C1392 1.386 . S
C1393 C1397 1.393 . S
C1394 H1386 0.950 . S
C1394 C1392 1.391 . S
C1394 C1395 1.400 . S
C1395 C1394 1.400 . S
C1395 C1396 1.398 . S
C1395 C1401 1.491 . S
C1396 H1387 0.950 . S
C1396 C1395 1.398 . S
C1396 C1397 1.391 . S
C1397 H1385 0.950 . S
C1397 C1393 1.393 . S
C1397 C1396 1.391 . S
C1398 H1388 0.950 . S
C1398 C1399 1.386 . S
C1398 C1400 1.391 . S
C1399 C1398 1.386 . S
C1399 C1403 1.393 . S
C1400 H1389 0.950 . S
C1400 C1398 1.391 . S
C1400 C1401 1.400 . S
C1401 C1395 1.491 . S
C1401 C1400 1.400 . S
C1401 C1402 1.398 . S
C1402 H1390 0.950 . S
C1402 C1401 1.398 . S
C1402 C1403 1.391 . S
C1403 H1391 0.950 . S
C1403 C1399 1.393 . S
C1403 C1402 1.391 . S
H1404 C1412 0.950 1_554 S
H1405 C1417 0.950 . S
H1406 C1414 0.950 . S
H1407 C1416 0.950 . S
H1408 C1418 0.950 . S
H1409 C1420 0.950 . S
H1410 C1422 0.950 . S
H1411 C1423 0.950 . S
C1412 H1404 0.950 1_556 S
C1412 C1413 1.386 . S
C1412 C1414 1.391 . S
C1413 C1412 1.386 . S
C1413 C1417 1.393 . S
C1414 H1406 0.950 . S
C1414 C1412 1.391 . S
C1414 C1415 1.400 . S
C1415 C1414 1.400 . S
C1415 C1416 1.398 . S
C1415 C1421 1.491 . S
C1416 H1407 0.950 . S
C1416 C1415 1.398 . S
C1416 C1417 1.391 . S
C1417 H1405 0.950 . S
C1417 C1413 1.393 . S
C1417 C1416 1.391 . S
C1418 H1408 0.950 . S
C1418 C1419 1.386 . S
C1418 C1420 1.391 . S
C1419 C1418 1.386 . S
C1419 C1423 1.393 . S
C1420 H1409 0.950 . S
C1420 C1418 1.391 . S
C1420 C1421 1.400 . S
C1421 C1415 1.491 . S
C1421 C1420 1.400 . S
C1421 C1422 1.398 . S
C1422 H1410 0.950 . S
C1422 C1421 1.398 . S
C1422 C1423 1.391 . S
C1423 H1411 0.950 . S
C1423 C1419 1.393 . S
C1423 C1422 1.391 . S
H1424 C1432 0.950 . S
H1425 C1437 0.950 . S
H1426 C1434 0.950 . S
H1427 C1436 0.950 . S
H1428 C1438 0.950 . S
H1429 C1440 0.950 . S
H1430 C1442 0.950 . S
H1431 C1443 0.950 . S
C1432 H1424 0.950 . S
C1432 C1433 1.386 . S
C1432 C1434 1.391 . S
C1433 C1432 1.386 . S
C1433 C1437 1.393 . S
C1434 H1426 0.950 . S
C1434 C1432 1.391 . S
C1434 C1435 1.400 . S
C1435 C1434 1.400 . S
C1435 C1436 1.398 . S
C1435 C1441 1.491 . S
C1436 H1427 0.950 . S
C1436 C1435 1.398 . S
C1436 C1437 1.391 . S
C1437 H1425 0.950 . S
C1437 C1433 1.393 . S
C1437 C1436 1.391 . S
C1438 H1428 0.950 . S
C1438 C1439 1.386 . S
C1438 C1440 1.391 . S
C1439 C1438 1.386 . S
C1439 C1443 1.393 . S
C1440 H1429 0.950 . S
C1440 C1438 1.391 . S
C1440 C1441 1.400 . S
C1441 C1435 1.491 . S
C1441 C1440 1.400 . S
C1441 C1442 1.398 . S
C1442 H1430 0.950 . S
C1442 C1441 1.398 . S
C1442 C1443 1.391 . S
C1443 H1431 0.950 . S
C1443 C1439 1.393 . S
C1443 C1442 1.391 . S
H1444 C1452 0.950 . S
H1445 C1457 0.950 . S
H1446 C1454 0.950 . S
H1447 C1456 0.950 . S
H1448 C1458 0.950 . S
H1449 C1460 0.950 . S
H1450 C1462 0.950 . S
H1451 C1463 0.950 . S
C1452 H1444 0.950 . S
C1452 C1453 1.386 . S
C1452 C1454 1.391 . S
C1453 C1452 1.386 . S
C1453 C1457 1.393 . S
C1454 H1446 0.950 . S
C1454 C1452 1.391 . S
C1454 C1455 1.400 . S
C1455 C1454 1.400 . S
C1455 C1456 1.398 . S
C1455 C1461 1.491 . S
C1456 H1447 0.950 . S
C1456 C1455 1.398 . S
C1456 C1457 1.391 . S
C1457 H1445 0.950 . S
C1457 C1453 1.393 . S
C1457 C1456 1.391 . S
C1458 H1448 0.950 . S
C1458 C1459 1.386 . S
C1458 C1460 1.391 . S
C1459 C1458 1.386 . S
C1459 C1463 1.393 . S
C1460 H1449 0.950 . S
C1460 C1458 1.391 . S
C1460 C1461 1.400 . S
C1461 C1455 1.491 . S
C1461 C1460 1.400 . S
C1461 C1462 1.398 . S
C1462 H1450 0.950 . S
C1462 C1461 1.398 . S
C1462 C1463 1.391 . S
C1463 H1451 0.950 . S
C1463 C1459 1.393 . S
C1463 C1462 1.391 . S
H1464 C1472 0.950 . S
H1465 C1477 0.950 . S
H1466 C1474 0.950 . S
H1467 C1476 0.950 . S
H1468 C1478 0.950 . S
H1469 C1480 0.950 . S
H1470 C1482 0.950 . S
H1471 C1483 0.950 . S
C1472 H1464 0.950 . S
C1472 C1473 1.386 . S
C1472 C1474 1.391 . S
C1473 C1472 1.386 . S
C1473 C1477 1.393 . S
C1474 H1466 0.950 . S
C1474 C1472 1.391 . S
C1474 C1475 1.400 . S
C1475 C1474 1.400 . S
C1475 C1476 1.398 . S
C1475 C1481 1.491 . S
C1476 H1467 0.950 . S
C1476 C1475 1.398 . S
C1476 C1477 1.391 . S
C1477 H1465 0.950 . S
C1477 C1473 1.393 . S
C1477 C1476 1.391 . S
C1478 H1468 0.950 . S
C1478 C1479 1.386 . S
C1478 C1480 1.391 . S
C1479 C1478 1.386 . S
C1479 C1483 1.393 . S
C1480 H1469 0.950 . S
C1480 C1478 1.391 . S
C1480 C1481 1.400 . S
C1481 C1475 1.491 . S
C1481 C1480 1.400 . S
C1481 C1482 1.398 . S
C1482 H1470 0.950 . S
C1482 C1481 1.398 . S
C1482 C1483 1.391 . S
C1483 H1471 0.950 . S
C1483 C1479 1.393 . S
C1483 C1482 1.391 . S
H1484 C1492 0.950 . S
H1485 C1497 0.950 1_554 S
H1486 C1494 0.950 . S
H1487 C1496 0.950 . S
H1488 C1498 0.950 . S
H1489 C1500 0.950 . S
H1490 C1502 0.950 . S
H1491 C1503 0.950 1_455 S
C1492 H1484 0.950 . S
C1492 C1493 1.386 . S
C1492 C1494 1.391 . S
C1493 C1492 1.386 . S
C1493 C1497 1.393 . S
C1494 H1486 0.950 . S
C1494 C1492 1.391 . S
C1494 C1495 1.400 . S
C1495 C1494 1.400 . S
C1495 C1496 1.398 . S
C1495 C1501 1.491 . S
C1496 H1487 0.950 . S
C1496 C1495 1.398 . S
C1496 C1497 1.391 . S
C1497 H1485 0.950 1_556 S
C1497 C1493 1.393 . S
C1497 C1496 1.391 . S
C1498 H1488 0.950 . S
C1498 C1499 1.386 . S
C1498 C1500 1.391 . S
C1499 C1498 1.386 . S
C1499 C1503 1.393 . S
C1500 H1489 0.950 . S
C1500 C1498 1.391 . S
C1500 C1501 1.400 1_655 S
C1501 C1495 1.491 . S
C1501 C1500 1.400 1_455 S
C1501 C1502 1.398 . S
C1502 H1490 0.950 . S
C1502 C1501 1.398 . S
C1502 C1503 1.391 1_455 S
C1503 H1491 0.950 1_655 S
C1503 C1499 1.393 . S
C1503 C1502 1.391 1_655 S
H1504 C1512 0.950 . S
H1505 C1517 0.950 . S
H1506 C1514 0.950 . S
H1507 C1516 0.950 . S
H1508 C1518 0.950 . S
H1509 C1520 0.950 . S
H1510 C1522 0.950 . S
H1511 C1523 0.950 . S
C1512 H1504 0.950 . S
C1512 C1513 1.386 . S
C1512 C1514 1.391 . S
C1513 C1512 1.386 . S
C1513 C1517 1.393 . S
C1514 H1506 0.950 . S
C1514 C1512 1.391 . S
C1514 C1515 1.400 . S
C1515 C1514 1.400 . S
C1515 C1516 1.398 . S
C1515 C1521 1.491 . S
C1516 H1507 0.950 . S
C1516 C1515 1.398 . S
C1516 C1517 1.391 . S
C1517 H1505 0.950 . S
C1517 C1513 1.393 . S
C1517 C1516 1.391 . S
C1518 H1508 0.950 . S
C1518 C1519 1.386 . S
C1518 C1520 1.391 . S
C1519 C1518 1.386 . S
C1519 C1523 1.393 . S
C1520 H1509 0.950 . S
C1520 C1518 1.391 . S
C1520 C1521 1.400 . S
C1521 C1515 1.491 . S
C1521 C1520 1.400 . S
C1521 C1522 1.398 . S
C1522 H1510 0.950 . S
C1522 C1521 1.398 . S
C1522 C1523 1.391 . S
C1523 H1511 0.950 . S
C1523 C1519 1.393 . S
C1523 C1522 1.391 . S
H1524 C1532 0.950 . S
H1525 C1537 0.950 . S
H1526 C1534 0.950 . S
H1527 C1536 0.950 . S
H1528 C1538 0.950 . S
H1529 C1540 0.950 . S
H1530 C1542 0.950 . S
H1531 C1543 0.950 . S
C1532 H1524 0.950 . S
C1532 C1533 1.386 . S
C1532 C1534 1.391 1_655 S
C1533 C1532 1.386 . S
C1533 C1537 1.393 . S
C1534 H1526 0.950 . S
C1534 C1532 1.391 1_455 S
C1534 C1535 1.400 . S
C1535 C1534 1.400 . S
C1535 C1536 1.398 1_455 S
C1535 C1541 1.491 . S
C1536 H1527 0.950 . S
C1536 C1535 1.398 1_655 S
C1536 C1537 1.391 . S
C1537 H1525 0.950 . S
C1537 C1533 1.393 . S
C1537 C1536 1.391 . S
C1538 H1528 0.950 . S
C1538 C1539 1.386 . S
C1538 C1540 1.391 . S
C1539 C1538 1.386 . S
C1539 C1543 1.393 . S
C1540 H1529 0.950 . S
C1540 C1538 1.391 . S
C1540 C1541 1.400 . S
C1541 C1535 1.491 . S
C1541 C1540 1.400 . S
C1541 C1542 1.398 . S
C1542 H1530 0.950 . S
C1542 C1541 1.398 . S
C1542 C1543 1.391 . S
C1543 H1531 0.950 . S
C1543 C1539 1.393 . S
C1543 C1542 1.391 . S
H1544 C1552 0.950 . S
H1545 C1557 0.950 . S
H1546 C1554 0.950 . S
H1547 C1556 0.950 . S
H1548 C1558 0.950 . S
H1549 C1560 0.950 . S
H1550 C1562 0.950 . S
H1551 C1563 0.950 . S
C1552 H1544 0.950 . S
C1552 C1553 1.386 . S
C1552 C1554 1.391 . S
C1553 C1552 1.386 . S
C1553 C1557 1.393 . S
C1554 H1546 0.950 . S
C1554 C1552 1.391 . S
C1554 C1555 1.400 . S
C1555 C1554 1.400 . S
C1555 C1556 1.398 . S
C1555 C1561 1.491 . S
C1556 H1547 0.950 . S
C1556 C1555 1.398 . S
C1556 C1557 1.391 . S
C1557 H1545 0.950 . S
C1557 C1553 1.393 . S
C1557 C1556 1.391 . S
C1558 H1548 0.950 . S
C1558 C1559 1.386 . S
C1558 C1560 1.391 . S
C1559 C1558 1.386 . S
C1559 C1563 1.393 . S
C1560 H1549 0.950 . S
C1560 C1558 1.391 . S
C1560 C1561 1.400 . S
C1561 C1555 1.491 . S
C1561 C1560 1.400 . S
C1561 C1562 1.398 . S
C1562 H1550 0.950 . S
C1562 C1561 1.398 . S
C1562 C1563 1.391 . S
C1563 H1551 0.950 . S
C1563 C1559 1.393 . S
C1563 C1562 1.391 . S
H1564 C1572 0.950 1_556 S
H1565 C1577 0.950 . S
H1566 C1574 0.950 . S
H1567 C1576 0.950 . S
H1568 C1578 0.950 . S
H1569 C1580 0.950 . S
H1570 C1582 0.950 . S
H1571 C1583 0.950 . S
C1572 H1564 0.950 1_554 S
C1572 C1573 1.386 . S
C1572 C1574 1.391 . S
C1573 C1572 1.386 . S
C1573 C1577 1.393 . S
C1574 H1566 0.950 . S
C1574 C1572 1.391 . S
C1574 C1575 1.400 . S
C1575 C1574 1.400 . S
C1575 C1576 1.398 . S
C1575 C1581 1.491 . S
C1576 H1567 0.950 . S
C1576 C1575 1.398 . S
C1576 C1577 1.391 . S
C1577 H1565 0.950 . S
C1577 C1573 1.393 . S
C1577 C1576 1.391 . S
C1578 H1568 0.950 . S
C1578 C1579 1.386 . S
C1578 C1580 1.391 . S
C1579 C1578 1.386 . S
C1579 C1583 1.393 . S
C1580 H1569 0.950 . S
C1580 C1578 1.391 . S
C1580 C1581 1.400 . S
C1581 C1575 1.491 . S
C1581 C1580 1.400 . S
C1581 C1582 1.398 . S
C1582 H1570 0.950 . S
C1582 C1581 1.398 . S
C1582 C1583 1.391 . S
C1583 H1571 0.950 . S
C1583 C1579 1.393 . S
C1583 C1582 1.391 . S
C473 C224 0.408 . S
C479 C21 0.613 . S
C493 C137 0.458 . S
C499 C50 0.463 . S
C513 C166 0.485 . S
C519 C79 0.538 . S
C533 C195 0.552 . S
C539 C108 0.469 . S
C553 C253 0.463 . S
C559 C456 0.538 . S
C573 C282 0.365 . S
C579 C369 0.337 . S
C593 C398 0.514 . S
C599 C311 0.566 . S
C613 C427 0.479 . S
C619 C340 0.470 . S
C633 C187 2.388 . S
C639 C15 2.329 . S
C653 C44 2.746 . S
C659 C218 2.723 . S
C673 C131 2.327 . S
C679 C71 2.404 . S
C693 C158 2.374 . S
C699 C100 2.364 . S
C713 C247 2.519 . S
C719 C421 2.507 . S
C733 C450 2.678 . S
C739 C276 2.696 . S
C753 C303 2.378 . S
C759 C361 2.348 . S
C773 C334 2.317 . S
C779 C390 2.384 . S
C793 C42 2.673 . S
C799 C160 2.603 . S
C813 C189 2.470 . S
C819 C73 2.484 . S
C833 C102 2.105 . S
C839 C216 2.179 . S
C853 C129 2.639 . S
C859 C13 2.651 . S
C873 C392 2.411 . S
C879 C274 2.484 . S
C893 C305 2.674 . S
C899 C419 2.726 . S
C913 C448 2.387 . S
C919 C332 2.373 . S
C933 C245 2.372 . S
C939 C363 2.314 . S
C953 C271 1.622 . S
C959 C8 1.557 . S
C973 C440 1.734 1_554 S
C979 C37 1.599 . S
C993 C61 2.172 . S
C999 C329 2.042 . S
C1013 C387 1.437 . S
C1019 C90 1.559 . S
C1033 C445 1.584 . S
C1039 C124 1.531 . S
C1053 C324 1.867 . S
C1059 C148 1.895 . S
C1073 C177 2.102 . S
C1079 C382 2.079 . S
C1093 C211 1.253 . S
C1099 C266 1.351 . S
C1113 C39 1.557 . S
C1119 C240 1.521 . S
C1133 C269 1.855 . S
C1139 C208 1.993 1_556 S
C1153 C92 2.047 . S
C1159 C293 2.066 . S
C1173 C327 1.421 . S
C1179 C155 1.474 . S
C1193 C213 1.340 . S
C1199 C351 1.430 . S
C1213 C97 2.017 1_554 S
C1219 C380 2.150 . S
C1233 C414 1.783 . S
C1239 C150 1.949 . S
C1253 C34 1.630 . S
C1259 C443 1.515 . S
C1273 C411 1.416 . S
C1279 C153 1.305 . S
C1293 C295 1.843 . S
C1299 C182 1.710 . S
C1313 C206 2.311 . S
C1319 C358 2.195 . S
C1333 C119 1.755 . S
C1339 C242 1.625 1_554 S
C1353 C300 1.426 . S
C1359 C95 1.381 . S
C1373 C353 1.715 . S
C1379 C3 1.742 . S
C1393 C237 1.974 . S
C1399 C32 1.997 . S
C1413 C416 1.549 1_556 S
C1419 C66 1.567 . S
C1433 C184 1.332 . S
C1439 C385 1.286 . S
C1453 C63 1.867 . S
C1459 C409 1.898 . S
C1473 C121 1.912 . S
C1479 C438 1.932 . S
C1493 C10 1.730 1_556 S
C1499 C356 1.692 . S
C1513 C68 1.515 . S
C1519 C322 1.633 . S
C1533 C235 2.008 . S
C1539 C126 1.860 . S
C1553 C5 1.828 . S
C1559 C264 1.855 . S
C1573 C179 1.429 1_554 S
C1579 C298 1.325 . S
