# Generated by pormake.
# Topology wgj, (5)-cn, num edge types: 1
# Building blocks:
#     Node 0, Type 0, BuildingBlock: BEQFEK_clean_sbu_0, # of connection points: 5
#     Node 1, Type 0, BuildingBlock: BEQFEK_clean_sbu_0, # of connection points: 5
#     Node 2, Type 0, BuildingBlock: BEQFEK_clean_sbu_0, # of connection points: 5
#     Node 3, Type 0, BuildingBlock: BEQFEK_clean_sbu_0, # of connection points: 5
#     Node 4, Type 0, BuildingBlock: BEQFEK_clean_sbu_0, # of connection points: 5
#     Node 5, Type 0, BuildingBlock: BEQFEK_clean_sbu_0, # of connection points: 5
#     Node 6, Type 0, BuildingBlock: BEQFEK_clean_sbu_0, # of connection points: 5
#     Node 7, Type 0, BuildingBlock: BEQFEK_clean_sbu_0, # of connection points: 5
#     Node 8, Type 0, BuildingBlock: BEQFEK_clean_sbu_0, # of connection points: 5
#     Node 9, Type 0, BuildingBlock: BEQFEK_clean_sbu_0, # of connection points: 5
#     Node 10, Type 0, BuildingBlock: BEQFEK_clean_sbu_0, # of connection points: 5
#     Node 11, Type 0, BuildingBlock: BEQFEK_clean_sbu_0, # of connection points: 5
#     Node 12, Type 0, BuildingBlock: BEQFEK_clean_sbu_0, # of connection points: 5
#     Node 13, Type 0, BuildingBlock: BEQFEK_clean_sbu_0, # of connection points: 5
#     Node 14, Type 0, BuildingBlock: BEQFEK_clean_sbu_0, # of connection points: 5
#     Node 15, Type 0, BuildingBlock: BEQFEK_clean_sbu_0, # of connection points: 5
#     Node 16, Type 0, BuildingBlock: BEQFEK_clean_sbu_0, # of connection points: 5
#     Node 17, Type 0, BuildingBlock: BEQFEK_clean_sbu_0, # of connection points: 5
#     Node 18, Type 0, BuildingBlock: BEQFEK_clean_sbu_0, # of connection points: 5
#     Node 19, Type 0, BuildingBlock: BEQFEK_clean_sbu_0, # of connection points: 5
#     Node 20, Type 0, BuildingBlock: BEQFEK_clean_sbu_0, # of connection points: 5
#     Node 21, Type 0, BuildingBlock: BEQFEK_clean_sbu_0, # of connection points: 5
#     Node 22, Type 0, BuildingBlock: BEQFEK_clean_sbu_0, # of connection points: 5
#     Node 23, Type 0, BuildingBlock: BEQFEK_clean_sbu_0, # of connection points: 5
#     Node 24, Type 0, BuildingBlock: BEQFEK_clean_sbu_0, # of connection points: 5
#     Node 25, Type 0, BuildingBlock: BEQFEK_clean_sbu_0, # of connection points: 5
#     Node 26, Type 0, BuildingBlock: BEQFEK_clean_sbu_0, # of connection points: 5
#     Node 27, Type 0, BuildingBlock: BEQFEK_clean_sbu_0, # of connection points: 5
#     Node 28, Type 0, BuildingBlock: BEQFEK_clean_sbu_0, # of connection points: 5
#     Node 29, Type 0, BuildingBlock: BEQFEK_clean_sbu_0, # of connection points: 5
#     Node 30, Type 0, BuildingBlock: BEQFEK_clean_sbu_0, # of connection points: 5
#     Node 31, Type 0, BuildingBlock: BEQFEK_clean_sbu_0, # of connection points: 5
#     Edge 32, Type (0, 0), BuildingBlock: XIVTED_clean_linker_0, # of connection points: 2
#     Edge 33, Type (0, 0), BuildingBlock: XIVTED_clean_linker_0, # of connection points: 2
#     Edge 34, Type (0, 0), BuildingBlock: XIVTED_clean_linker_0, # of connection points: 2
#     Edge 35, Type (0, 0), BuildingBlock: XIVTED_clean_linker_0, # of connection points: 2
#     Edge 36, Type (0, 0), BuildingBlock: XIVTED_clean_linker_0, # of connection points: 2
#     Edge 37, Type (0, 0), BuildingBlock: XIVTED_clean_linker_0, # of connection points: 2
#     Edge 38, Type (0, 0), BuildingBlock: XIVTED_clean_linker_0, # of connection points: 2
#     Edge 39, Type (0, 0), BuildingBlock: XIVTED_clean_linker_0, # of connection points: 2
#     Edge 40, Type (0, 0), BuildingBlock: XIVTED_clean_linker_0, # of connection points: 2
#     Edge 41, Type (0, 0), BuildingBlock: XIVTED_clean_linker_0, # of connection points: 2
#     Edge 42, Type (0, 0), BuildingBlock: XIVTED_clean_linker_0, # of connection points: 2
#     Edge 43, Type (0, 0), BuildingBlock: XIVTED_clean_linker_0, # of connection points: 2
#     Edge 44, Type (0, 0), BuildingBlock: XIVTED_clean_linker_0, # of connection points: 2
#     Edge 45, Type (0, 0), BuildingBlock: XIVTED_clean_linker_0, # of connection points: 2
#     Edge 46, Type (0, 0), BuildingBlock: XIVTED_clean_linker_0, # of connection points: 2
#     Edge 47, Type (0, 0), BuildingBlock: XIVTED_clean_linker_0, # of connection points: 2
#     Edge 48, Type (0, 0), BuildingBlock: XIVTED_clean_linker_0, # of connection points: 2
#     Edge 49, Type (0, 0), BuildingBlock: XIVTED_clean_linker_0, # of connection points: 2
#     Edge 50, Type (0, 0), BuildingBlock: XIVTED_clean_linker_0, # of connection points: 2
#     Edge 51, Type (0, 0), BuildingBlock: XIVTED_clean_linker_0, # of connection points: 2
#     Edge 52, Type (0, 0), BuildingBlock: XIVTED_clean_linker_0, # of connection points: 2
#     Edge 53, Type (0, 0), BuildingBlock: XIVTED_clean_linker_0, # of connection points: 2
#     Edge 54, Type (0, 0), BuildingBlock: XIVTED_clean_linker_0, # of connection points: 2
#     Edge 55, Type (0, 0), BuildingBlock: XIVTED_clean_linker_0, # of connection points: 2
#     Edge 56, Type (0, 0), BuildingBlock: XIVTED_clean_linker_0, # of connection points: 2
#     Edge 57, Type (0, 0), BuildingBlock: XIVTED_clean_linker_0, # of connection points: 2
#     Edge 58, Type (0, 0), BuildingBlock: XIVTED_clean_linker_0, # of connection points: 2
#     Edge 59, Type (0, 0), BuildingBlock: XIVTED_clean_linker_0, # of connection points: 2
#     Edge 60, Type (0, 0), BuildingBlock: XIVTED_clean_linker_0, # of connection points: 2
#     Edge 61, Type (0, 0), BuildingBlock: XIVTED_clean_linker_0, # of connection points: 2
#     Edge 62, Type (0, 0), BuildingBlock: XIVTED_clean_linker_0, # of connection points: 2
#     Edge 63, Type (0, 0), BuildingBlock: XIVTED_clean_linker_0, # of connection points: 2
#     Edge 64, Type (0, 0), BuildingBlock: XIVTED_clean_linker_0, # of connection points: 2
#     Edge 65, Type (0, 0), BuildingBlock: XIVTED_clean_linker_0, # of connection points: 2
#     Edge 66, Type (0, 0), BuildingBlock: XIVTED_clean_linker_0, # of connection points: 2
#     Edge 67, Type (0, 0), BuildingBlock: XIVTED_clean_linker_0, # of connection points: 2
#     Edge 68, Type (0, 0), BuildingBlock: XIVTED_clean_linker_0, # of connection points: 2
#     Edge 69, Type (0, 0), BuildingBlock: XIVTED_clean_linker_0, # of connection points: 2
#     Edge 70, Type (0, 0), BuildingBlock: XIVTED_clean_linker_0, # of connection points: 2
#     Edge 71, Type (0, 0), BuildingBlock: XIVTED_clean_linker_0, # of connection points: 2
#     Edge 72, Type (0, 0), BuildingBlock: XIVTED_clean_linker_0, # of connection points: 2
#     Edge 73, Type (0, 0), BuildingBlock: XIVTED_clean_linker_0, # of connection points: 2
#     Edge 74, Type (0, 0), BuildingBlock: XIVTED_clean_linker_0, # of connection points: 2
#     Edge 75, Type (0, 0), BuildingBlock: XIVTED_clean_linker_0, # of connection points: 2
#     Edge 76, Type (0, 0), BuildingBlock: XIVTED_clean_linker_0, # of connection points: 2
#     Edge 77, Type (0, 0), BuildingBlock: XIVTED_clean_linker_0, # of connection points: 2
#     Edge 78, Type (0, 0), BuildingBlock: XIVTED_clean_linker_0, # of connection points: 2
#     Edge 79, Type (0, 0), BuildingBlock: XIVTED_clean_linker_0, # of connection points: 2
#     Edge 80, Type (0, 0), BuildingBlock: XIVTED_clean_linker_0, # of connection points: 2
#     Edge 81, Type (0, 0), BuildingBlock: XIVTED_clean_linker_0, # of connection points: 2
#     Edge 82, Type (0, 0), BuildingBlock: XIVTED_clean_linker_0, # of connection points: 2
#     Edge 83, Type (0, 0), BuildingBlock: XIVTED_clean_linker_0, # of connection points: 2
#     Edge 84, Type (0, 0), BuildingBlock: XIVTED_clean_linker_0, # of connection points: 2
#     Edge 85, Type (0, 0), BuildingBlock: XIVTED_clean_linker_0, # of connection points: 2
#     Edge 86, Type (0, 0), BuildingBlock: XIVTED_clean_linker_0, # of connection points: 2
#     Edge 87, Type (0, 0), BuildingBlock: XIVTED_clean_linker_0, # of connection points: 2
#     Edge 88, Type (0, 0), BuildingBlock: XIVTED_clean_linker_0, # of connection points: 2
#     Edge 89, Type (0, 0), BuildingBlock: XIVTED_clean_linker_0, # of connection points: 2
#     Edge 90, Type (0, 0), BuildingBlock: XIVTED_clean_linker_0, # of connection points: 2
#     Edge 91, Type (0, 0), BuildingBlock: XIVTED_clean_linker_0, # of connection points: 2
#     Edge 92, Type (0, 0), BuildingBlock: XIVTED_clean_linker_0, # of connection points: 2
#     Edge 93, Type (0, 0), BuildingBlock: XIVTED_clean_linker_0, # of connection points: 2
#     Edge 94, Type (0, 0), BuildingBlock: XIVTED_clean_linker_0, # of connection points: 2
#     Edge 95, Type (0, 0), BuildingBlock: XIVTED_clean_linker_0, # of connection points: 2
#     Edge 96, Type (0, 0), BuildingBlock: XIVTED_clean_linker_0, # of connection points: 2
#     Edge 97, Type (0, 0), BuildingBlock: XIVTED_clean_linker_0, # of connection points: 2
#     Edge 98, Type (0, 0), BuildingBlock: XIVTED_clean_linker_0, # of connection points: 2
#     Edge 99, Type (0, 0), BuildingBlock: XIVTED_clean_linker_0, # of connection points: 2
#     Edge 100, Type (0, 0), BuildingBlock: XIVTED_clean_linker_0, # of connection points: 2
#     Edge 101, Type (0, 0), BuildingBlock: XIVTED_clean_linker_0, # of connection points: 2
#     Edge 102, Type (0, 0), BuildingBlock: XIVTED_clean_linker_0, # of connection points: 2
#     Edge 103, Type (0, 0), BuildingBlock: XIVTED_clean_linker_0, # of connection points: 2
#     Edge 104, Type (0, 0), BuildingBlock: XIVTED_clean_linker_0, # of connection points: 2
#     Edge 105, Type (0, 0), BuildingBlock: XIVTED_clean_linker_0, # of connection points: 2
#     Edge 106, Type (0, 0), BuildingBlock: XIVTED_clean_linker_0, # of connection points: 2
#     Edge 107, Type (0, 0), BuildingBlock: XIVTED_clean_linker_0, # of connection points: 2
#     Edge 108, Type (0, 0), BuildingBlock: XIVTED_clean_linker_0, # of connection points: 2
#     Edge 109, Type (0, 0), BuildingBlock: XIVTED_clean_linker_0, # of connection points: 2
#     Edge 110, Type (0, 0), BuildingBlock: XIVTED_clean_linker_0, # of connection points: 2
#     Edge 111, Type (0, 0), BuildingBlock: XIVTED_clean_linker_0, # of connection points: 2
# Relax obj value: 0.282
# Max RMSD: 0.163
# Mean RMSD: 0.163
data_MOF--net-wgj--node1-BEQFEK_clean_sbu_0--edge1-XIVTED_clean_linker_0
_symmetry_space_group_name_H-M    P1
_symmetry_Int_Tables_number       1
_symmetry_cell_setting            triclinic
loop_
_symmetry_equiv_pos_as_xyz
'x, y, z'
_cell_length_a     63.156502
_cell_length_b     63.039702
_cell_length_c     36.731283
_cell_angle_alpha  90.002098
_cell_angle_beta   89.941867
_cell_angle_gamma 89.65847
loop_
_atom_site_label
_atom_site_type_symbol
_atom_site_fract_x
_atom_site_fract_y
_atom_site_fract_z
_atom_type_partial_charge
Co0 Co 0.19475 0.17682 0.34507 0.0
Co1 Co 0.15431 0.16082 0.38385 0.0
C2 C 0.19824 0.15305 0.41587 0.0
O3 O 0.20609 0.1623 0.38829 0.0
O4 O 0.17811 0.15089 0.4189 0.0
C5 C 0.231 0.19802 0.33309 0.0
O6 O 0.23007 0.19797 0.36883 0.0
C7 C 0.11822 0.13337 0.41124 0.0
C8 C 0.09301 0.1578 0.41113 0.0
C9 C 0.09681 0.13667 0.41896 0.0
N10 N 0.12654 0.15186 0.39947 0.0
N11 N 0.11123 0.16625 0.39945 0.0
C12 C 0.13067 0.11337 0.41651 0.0
H13 H 0.1479 0.11652 0.41441 0.0
H14 H 0.12618 0.10171 0.39531 0.0
H15 H 0.12687 0.10632 0.44342 0.0
C16 C 0.17648 0.15426 0.28227 0.0
N17 N 0.17635 0.15955 0.31781 0.0
N18 N 0.15897 0.15255 0.33332 0.0
C19 C 0.14728 0.14262 0.30753 0.0
C20 C 0.15807 0.14322 0.27422 0.0
C21 C 0.19293 0.16182 0.25598 0.0
H22 H 0.19455 0.17927 0.25849 0.0
H23 H 0.20843 0.15455 0.26308 0.0
H24 H 0.18893 0.15793 0.22739 0.0
O25 O 0.18082 0.2041 0.35836 0.0
O26 O 0.15203 0.19289 0.38622 0.0
H27 H 0.11493 0.14572 0.32387 0.0
H28 H 0.11955 0.12532 0.28993 0.0
C29 C 0.12602 0.13313 0.31454 0.0
H30 H 0.12742 0.12125 0.33661 0.0
H31 H 0.11314 0.18196 0.39132 0.0
O32 O 0.21846 0.18617 0.31559 0.0
C33 C 0.16355 0.20805 0.37479 0.0
Co34 Co 0.08939 0.96783 0.57575 0.0
Co35 Co 0.10051 0.92297 0.61151 0.0
C36 C 0.10902 0.96271 0.65263 0.0
O37 O 0.10116 0.97244 0.62535 0.0
O38 O 0.11093 0.94242 0.6524 0.0
C39 C 0.08244 0.00949 0.53336 0.0
O40 O 0.09218 0.02563 0.51832 0.0
C41 C 0.1176 0.87861 0.63298 0.0
C42 C 0.09177 0.86019 0.60817 0.0
C43 C 0.11091 0.85773 0.62602 0.0
N44 N 0.10304 0.89236 0.6193 0.0
N45 N 0.08769 0.88097 0.60488 0.0
C46 C 0.13813 0.88545 0.64928 0.0
H47 H 0.14079 0.9026 0.64422 0.0
H48 H 0.15139 0.87598 0.63769 0.0
H49 H 0.13768 0.88273 0.67911 0.0
C50 C 0.11043 0.94729 0.51345 0.0
N51 N 0.10546 0.94754 0.54914 0.0
N52 N 0.11191 0.92977 0.56438 0.0
C53 C 0.12183 0.91787 0.53877 0.0
C54 C 0.12116 0.9285 0.50538 0.0
C55 C 0.10212 0.96331 0.48689 0.0
H56 H 0.08645 0.96929 0.49604 0.0
H57 H 0.11321 0.97688 0.48558 0.0
H58 H 0.10042 0.95644 0.45925 0.0
O59 O 0.05973 0.95748 0.58053 0.0
O60 O 0.06898 0.92725 0.60752 0.0
H61 H 0.11907 0.88437 0.54584 0.0
H62 H 0.1437 0.89257 0.52529 0.0
C63 C 0.13159 0.89663 0.54609 0.0
H64 H 0.13916 0.89668 0.57325 0.0
H65 H 0.07477 0.88741 0.59108 0.0
O66 O 0.09342 0.99587 0.55077 0.0
C67 C 0.05476 0.9399 0.5954 0.0
Co68 Co 0.31289 0.84995 0.83754 0.0
Co69 Co 0.35449 0.86059 0.87885 0.0
C70 C 0.31088 0.87247 0.90904 0.0
O71 O 0.30231 0.86487 0.88067 0.0
O72 O 0.33108 0.87234 0.91265 0.0
C73 C 0.27461 0.83298 0.82242 0.0
O74 O 0.27438 0.83301 0.8582 0.0
C75 C 0.3957 0.88256 0.89819 0.0
C76 C 0.41303 0.85453 0.91881 0.0
C77 C 0.41558 0.87565 0.90988 0.0
N78 N 0.38231 0.86589 0.89895 0.0
N79 N 0.39278 0.84949 0.91253 0.0
C80 C 0.38994 0.90418 0.88464 0.0
H81 H 0.37454 0.90391 0.87013 0.0
H82 H 0.40263 0.91041 0.86672 0.0
H83 H 0.38855 0.91508 0.90826 0.0
C84 C 0.33463 0.87015 0.77638 0.0
N85 N 0.33374 0.86525 0.81203 0.0
N86 N 0.35212 0.86907 0.82759 0.0
C87 C 0.36559 0.8759 0.80119 0.0
C88 C 0.35479 0.87714 0.76814 0.0
C89 C 0.3168 0.86683 0.75025 0.0
H90 H 0.30189 0.87313 0.76216 0.0
H91 H 0.31981 0.87477 0.7238 0.0
H92 H 0.31479 0.84957 0.74555 0.0
O93 O 0.32347 0.82118 0.85082 0.0
O94 O 0.35273 0.82893 0.88064 0.0
H95 H 0.39716 0.87209 0.78011 0.0
H96 H 0.3933 0.8945 0.80914 0.0
C97 C 0.38907 0.87762 0.80525 0.0
H98 H 0.39473 0.86803 0.82854 0.0
H99 H 0.38642 0.83439 0.91588 0.0
O100 O 0.28901 0.84326 0.8062 0.0
C101 C 0.33979 0.81529 0.86838 0.0
Co102 Co 0.4174 0.05282 0.08633 0.0
Co103 Co 0.40148 0.09513 0.12236 0.0
C104 C 0.39404 0.05293 0.15901 0.0
O105 O 0.4031 0.0443 0.13174 0.0
O106 O 0.39156 0.0732 0.16068 0.0
C107 C 0.43902 0.01603 0.07754 0.0
O108 O 0.43899 0.01791 0.11317 0.0
C109 C 0.38192 0.13791 0.14797 0.0
C110 C 0.40587 0.1579 0.12097 0.0
C111 C 0.38794 0.15905 0.14244 0.0
N112 N 0.39596 0.12509 0.13058 0.0
N113 N 0.41002 0.13741 0.11449 0.0
C114 C 0.36361 0.13007 0.1698 0.0
H115 H 0.36616 0.11326 0.17774 0.0
H116 H 0.34905 0.13112 0.153 0.0
H117 H 0.36129 0.1401 0.19435 0.0
C118 C 0.39623 0.07125 0.02191 0.0
N119 N 0.40065 0.07123 0.05779 0.0
N120 N 0.39278 0.08843 0.073 0.0
C121 C 0.3825 0.09976 0.04706 0.0
C122 C 0.38441 0.08934 1.01357 0.0
C123 C 0.40567 0.05564 0.99567 0.0
H124 H 0.42207 0.05163 1.00401 0.0
H125 H 0.3962 0.04087 0.99614 0.0
H126 H 0.40606 0.06197 0.96752 0.0
O127 O 0.44466 0.06613 0.09761 0.0
O128 O 0.43326 0.0954 0.12425 0.0
H129 H 0.38254 0.13345 0.05318 0.0
H130 H 0.35857 0.12304 0.03359 0.0
C131 C 0.37108 0.12019 0.05424 0.0
H132 H 0.3638 0.11986 0.08172 0.0
H133 H 0.42254 0.1318 0.09858 0.0
O134 O 0.42639 0.02761 0.05931 0.0
C135 C 0.44839 0.08358 0.11337 0.0
Co136 Co 0.20375 0.84888 0.18641 0.0
Co137 Co 0.16275 0.86193 0.14408 0.0
C138 C 0.20735 0.87089 0.11476 0.0
O139 O 0.21546 0.86257 0.14307 0.0
O140 O 0.18717 0.87213 0.111 0.0
C141 C 0.23886 0.82671 0.20428 0.0
O142 O 0.23914 0.82548 0.16856 0.0
C143 C 0.12096 0.88418 0.12486 0.0
C144 C 0.10546 0.85666 0.09932 0.0
C145 C 0.10156 0.87708 0.11138 0.0
N146 N 0.13523 0.86812 0.12252 0.0
N147 N 0.12586 0.85214 0.10581 0.0
C148 C 0.12559 0.90552 0.14057 0.0
H149 H 0.1411 0.90546 0.15473 0.0
H150 H 0.11268 0.91052 0.15926 0.0
H151 H 0.12621 0.91727 0.11812 0.0
C152 C 0.18321 0.8718 0.24604 0.0
N153 N 0.18369 0.86612 0.21072 0.0
N154 N 0.16536 0.87057 0.1952 0.0
C155 C 0.15227 0.87834 0.2215 0.0
C156 C 0.16336 0.87984 0.25414 0.0
C157 C 0.20105 0.86819 0.27211 0.0
H158 H 0.21622 0.8728 0.25917 0.0
H159 H 0.1988 0.87742 0.29757 0.0
H160 H 0.20195 0.85106 0.27896 0.0
O161 O 0.19138 0.82087 0.17418 0.0
O162 O 0.16289 0.8303 0.14351 0.0
H163 H 0.12108 0.87371 0.24323 0.0
H164 H 0.12421 0.89713 0.21663 0.0
C165 C 0.12874 0.88015 0.21838 0.0
H166 H 0.12289 0.87129 0.19448 0.0
H167 H 0.13308 0.83757 0.10038 0.0
O168 O 0.22661 0.84023 0.21902 0.0
C169 C 0.17484 0.81595 0.15664 0.0
Co170 Co 0.42964 0.94956 0.43574 0.0
Co171 Co 0.41379 0.90769 0.40117 0.0
C172 C 0.4042 0.94992 0.36569 0.0
O173 O 0.41411 0.95849 0.39191 0.0
O174 O 0.40213 0.92967 0.3642 0.0
C175 C 0.44914 0.98745 0.44469 0.0
O176 O 0.45065 0.9851 0.40922 0.0
C177 C 0.3894 0.86726 0.38325 0.0
C178 C 0.41533 0.84466 0.39528 0.0
C179 C 0.3941 0.84564 0.38647 0.0
N180 N 0.40713 0.87837 0.39091 0.0
N181 N 0.42252 0.86455 0.39725 0.0
C182 C 0.36821 0.87711 0.37625 0.0
H183 H 0.36841 0.89429 0.38289 0.0
H184 H 0.35586 0.86892 0.39244 0.0
H185 H 0.36421 0.87518 0.34704 0.0
C186 C 0.41 0.93177 0.50177 0.0
N187 N 0.41381 0.93129 0.46567 0.0
N188 N 0.40602 0.91385 0.45153 0.0
C189 C 0.39649 0.90278 0.4786 0.0
C190 C 0.39866 0.91377 0.51153 0.0
C191 C 0.4195 0.94788 0.5268 0.0
H192 H 0.43599 0.95122 0.5183 0.0
H193 H 0.41025 0.96286 0.52495 0.0
H194 H 0.41971 0.94237 0.55546 0.0
O195 O 0.45729 0.93648 0.42341 0.0
O196 O 0.44585 0.90707 0.39774 0.0
H197 H 0.39711 0.86958 0.46684 0.0
H198 H 0.37587 0.87759 0.49712 0.0
C199 C 0.38533 0.8822 0.47299 0.0
H200 H 0.37448 0.88374 0.44954 0.0
H201 H 0.43781 0.86863 0.40508 0.0
O202 O 0.43723 0.97499 0.46227 0.0
C203 C 0.46106 0.91887 0.4079 0.0
Co204 Co 0.30553 0.17 0.69119 0.0
Co205 Co 0.34768 0.15662 0.65217 0.0
C206 C 0.305 0.14793 0.61772 0.0
O207 O 0.29643 0.15645 0.64553 0.0
O208 O 0.32525 0.14606 0.61536 0.0
C209 C 0.26798 0.18953 0.70424 0.0
O210 O 0.26886 0.19052 0.66853 0.0
C211 C 0.38973 0.13525 0.62931 0.0
C212 C 0.40987 0.1635 0.63567 0.0
C213 C 0.41076 0.1422 0.62696 0.0
N214 N 0.37728 0.1519 0.63916 0.0
N215 N 0.38968 0.1686 0.64265 0.0
C216 C 0.38152 0.11357 0.62122 0.0
H217 H 0.36408 0.11405 0.61754 0.0
H218 H 0.38531 0.10276 0.64412 0.0
H219 H 0.3893 0.10717 0.5964 0.0
C220 C 0.32488 0.14754 0.75284 0.0
N221 N 0.32483 0.15315 0.71748 0.0
N222 N 0.34273 0.1472 0.70204 0.0
C223 C 0.35481 0.13753 0.72776 0.0
C224 C 0.34386 0.13743 0.76079 0.0
C225 C 0.3073 0.15266 0.7788 0.0
H226 H 0.29202 0.14748 0.76699 0.0
H227 H 0.30961 0.1448 0.80554 0.0
H228 H 0.30645 0.1701 0.78278 0.0
O229 O 0.31768 0.19826 0.68139 0.0
O230 O 0.34613 0.18847 0.65077 0.0
H231 H 0.38654 0.14381 0.71064 0.0
H232 H 0.38464 0.12505 0.74773 0.0
C233 C 0.37721 0.13051 0.72199 0.0
H234 H 0.37748 0.11733 0.70208 0.0
H235 H 0.38456 0.1836 0.65086 0.0
O236 O 0.28079 0.17724 0.72056 0.0
C237 C 0.33425 0.20298 0.66373 0.0
Co238 Co 0.0941 0.05944 0.94514 0.0
Co239 Co 0.10496 0.1022 0.90652 0.0
C240 C 0.11421 0.05856 0.87167 0.0
O241 O 0.10733 0.04921 0.89993 0.0
O242 O 0.11471 0.07891 0.87019 0.0
C243 C 0.07379 0.0227 0.95911 0.0
O244 O 0.07322 0.02333 0.92336 0.0
C245 C 0.12772 0.14373 0.88961 0.0
C246 C 0.10015 0.16151 0.86846 0.0
C247 C 0.12112 0.16388 0.87831 0.0
N248 N 0.11101 0.13041 0.88778 0.0
N249 N 0.0949 0.14118 0.87393 0.0
C250 C 0.1491 0.13764 0.90368 0.0
H251 H 0.14859 0.12193 0.91729 0.0
H252 H 0.15506 0.14997 0.92258 0.0
H253 H 0.1603 0.13668 0.88045 0.0
C254 C 0.11639 0.07899 1.00656 0.0
N255 N 0.11082 0.07918 0.97114 0.0
N256 N 0.11393 0.09819 0.95726 0.0
C257 C 0.12043 0.11106 0.98475 0.0
C258 C 0.12269 0.09918 1.01664 0.0
C259 C 0.11282 0.06052 0.03136 0.0
H260 H 0.09557 0.05882 0.03627 0.0
H261 H 0.11863 0.04577 1.01815 0.0
H262 H 0.12087 0.06261 0.05793 0.0
O263 O 0.06573 0.07177 0.93436 0.0
O264 O 0.07345 0.1018 0.90666 0.0
H265 H 0.11278 0.14076 0.95883 0.0
H266 H 0.11598 0.14229 1.00742 0.0
C267 C 0.122 0.13468 0.98223 0.0
H268 H 0.13887 0.13913 0.97948 0.0
H269 H 0.07985 0.13494 0.86971 0.0
O270 O 0.08608 0.03534 0.97557 0.0
C271 C 0.05985 0.08878 0.91878 0.0
Co272 Co 0.81429 0.83392 0.69297 0.0
Co273 Co 0.85577 0.84922 0.65609 0.0
C274 C 0.8127 0.85646 0.6208 0.0
O275 O 0.804 0.8478 0.64824 0.0
O276 O 0.8329 0.85847 0.6192 0.0
C277 C 0.77845 0.81192 0.70449 0.0
O278 O 0.78001 0.81131 0.66882 0.0
C279 C 0.8928 0.87568 0.62931 0.0
C280 C 0.91773 0.85112 0.63406 0.0
C281 C 0.91439 0.87197 0.6238 0.0
N282 N 0.88397 0.85766 0.6421 0.0
N283 N 0.89912 0.84321 0.64492 0.0
C284 C 0.88071 0.89558 0.62129 0.0
H285 H 0.86347 0.89233 0.62 0.0
H286 H 0.8836 0.90729 0.64324 0.0
H287 H 0.88624 0.90259 0.59526 0.0
C288 C 0.83185 0.85682 0.75601 0.0
N289 N 0.83234 0.85141 0.72054 0.0
N290 N 0.84991 0.85839 0.70558 0.0
C291 C 0.86118 0.86863 0.73154 0.0
C292 C 0.85008 0.86796 0.76442 0.0
C293 C 0.81463 0.85044 0.78172 0.0
H294 H 0.81492 0.83294 0.78498 0.0
H295 H 0.79905 0.85493 0.77004 0.0
H296 H 0.81646 0.85804 0.80877 0.0
O297 O 0.82835 0.80656 0.68141 0.0
O298 O 0.85793 0.8172 0.65538 0.0
H299 H 0.89356 0.86406 0.71633 0.0
H300 H 0.88954 0.88391 0.75134 0.0
C301 C 0.88302 0.87705 0.72592 0.0
H302 H 0.8826 0.88943 0.70451 0.0
H303 H 0.89683 0.82782 0.65445 0.0
O304 O 0.79022 0.82463 0.72184 0.0
C305 C 0.84598 0.80231 0.66645 0.0
Co306 Co 0.91955 0.04433 0.46178 0.0
Co307 Co 0.91224 0.08943 0.42398 0.0
C308 C 0.90267 0.04912 0.38385 0.0
O309 O 0.90917 0.03913 0.41184 0.0
O310 O 0.90207 0.06946 0.38357 0.0
C311 C 0.92518 1.00301 0.50507 0.0
O312 O 0.91515 0.98728 0.52082 0.0
C313 C 0.89522 0.13338 0.40211 0.0
C314 C 0.9245 0.15146 0.41159 0.0
C315 C 0.90336 0.15408 0.4027 0.0
N316 N 0.91086 0.11958 0.41138 0.0
N317 N 0.92831 0.1307 0.41617 0.0
C318 C 0.8729 0.12687 0.39482 0.0
H319 H 0.87041 0.11013 0.40309 0.0
H320 H 0.86169 0.13747 0.40949 0.0
H321 H 0.86969 0.1283 0.36523 0.0
C322 C 0.89657 0.06584 0.5208 0.0
N323 N 0.90315 0.06554 0.4859 0.0
N324 N 0.89948 0.08419 0.47086 0.0
C325 C 0.89052 0.09699 0.4963 0.0
C326 C 0.88823 0.08572 0.52871 0.0
C327 C 0.90118 0.04842 0.54741 0.0
H328 H 0.91777 0.04291 0.5439 0.0
H329 H 0.89055 0.03486 0.54181 0.0
H330 H 0.8989 0.05362 0.57599 0.0
O331 O 0.94972 0.05376 0.45987 0.0
O332 O 0.9432 0.08438 0.43183 0.0
H333 H 0.89986 0.12852 0.48221 0.0
H334 H 0.87862 0.12743 0.51523 0.0
C335 C 0.88537 0.11992 0.4905 0.0
H336 H 0.87354 0.12131 0.46848 0.0
H337 H 0.94283 0.12424 0.42401 0.0
O338 O 0.91441 0.01674 0.48753 0.0
C339 C 0.95612 0.07107 0.44584 0.0
Co340 Co 0.70146 0.16614 0.19434 0.0
Co341 Co 0.6582 0.15422 0.1597 0.0
C342 C 0.69889 0.14158 0.12348 0.0
O343 O 0.70844 0.15037 0.14987 0.0
O344 O 0.67858 0.14117 0.12224 0.0
C345 C 0.74084 0.18228 0.20329 0.0
O346 O 0.73858 0.18404 0.16784 0.0
C347 C 0.61585 0.13553 0.1362 0.0
C348 C 0.59574 0.16226 0.15462 0.0
C349 C 0.59479 0.14247 0.13849 0.0
N350 N 0.6284 0.1507 0.15048 0.0
N351 N 0.61611 0.16652 0.16131 0.0
C352 C 0.62398 0.11525 0.12025 0.0
H353 H 0.64093 0.11679 0.11279 0.0
H354 H 0.62252 0.10242 0.14076 0.0
H355 H 0.61452 0.11081 0.09599 0.0
C356 C 0.68198 0.14778 0.25968 0.0
N357 N 0.68192 0.15184 0.22372 0.0
N358 N 0.66396 0.1456 0.20936 0.0
C359 C 0.65211 0.13675 0.23602 0.0
C360 C 0.66313 0.13783 0.26899 0.0
C361 C 0.69862 0.15597 0.28504 0.0
H362 H 0.70364 0.172 0.27628 0.0
H363 H 0.71263 0.14529 0.28399 0.0
H364 H 0.69281 0.15702 0.31347 0.0
O365 O 0.69089 0.19479 0.18233 0.0
O366 O 0.66083 0.18594 0.15594 0.0
H367 H 0.61876 0.14049 0.22874 0.0
H368 H 0.62632 0.1164 0.25219 0.0
C369 C 0.63066 0.12749 0.22998 0.0
H370 H 0.63041 0.11887 0.20371 0.0
H371 H 0.62162 0.18024 0.17392 0.0
O372 O 0.72756 0.17126 0.22079 0.0
C373 C 0.67392 0.20003 0.16613 0.0
Co374 Co 0.59928 0.95395 0.9441 0.0
Co375 Co 0.61103 0.91239 0.90181 0.0
C376 C 0.62142 0.95671 0.87273 0.0
O377 O 0.61346 0.96517 0.90104 0.0
O378 O 0.62195 0.93647 0.86895 0.0
C379 C 0.57868 0.99031 0.96081 0.0
O380 O 0.57887 0.99105 0.92505 0.0
C381 C 0.63407 0.87134 0.88167 0.0
C382 C 0.60649 0.85392 0.86052 0.0
C383 C 0.62758 0.85144 0.86958 0.0
N384 N 0.6172 0.88469 0.88099 0.0
N385 N 0.60109 0.87416 0.867 0.0
C386 C 0.65555 0.87711 0.89534 0.0
H387 H 0.65508 0.89258 0.90977 0.0
H388 H 0.66184 0.86441 0.91333 0.0
H389 H 0.66648 0.8784 0.87179 0.0
C390 C 0.62215 0.93299 1.00327 0.0
N391 N 0.61586 0.93342 0.9683 0.0
N392 N 0.61947 0.91486 0.95287 0.0
C393 C 0.62705 0.90158 0.97896 0.0
C394 C 0.6295 0.91282 1.01135 0.0
C395 C 0.61888 0.95095 0.02935 0.0
H396 H 0.60168 0.95279 0.03485 0.0
H397 H 0.62457 0.9659 1.01688 0.0
H398 H 0.62717 0.9482 0.05554 0.0
O399 O 0.57117 0.94236 0.931 0.0
O400 O 0.5795 0.91341 0.90038 0.0
H401 H 0.62058 0.87222 0.95129 0.0
H402 H 0.62442 0.86976 0.99961 0.0
C403 C 0.62979 0.87814 0.97474 0.0
H404 H 0.64683 0.8744 0.97125 0.0
H405 H 0.58592 0.88044 0.86359 0.0
O406 O 0.59087 0.97712 0.97653 0.0
C407 C 0.56565 0.92604 0.91329 0.0
Co408 Co 0.80578 0.16414 0.84813 0.0
Co409 Co 0.84697 0.15139 0.89016 0.0
C410 C 0.80241 0.14228 0.91961 0.0
O411 O 0.79418 0.15047 0.89135 0.0
O412 O 0.8226 0.14128 0.9233 0.0
C413 C 0.76959 0.18512 0.83122 0.0
O414 O 0.76899 0.18545 0.86698 0.0
C415 C 0.88809 0.12846 0.91075 0.0
C416 C 0.90429 0.15595 0.93505 0.0
C417 C 0.90759 0.13518 0.92431 0.0
N418 N 0.87433 0.14499 0.91191 0.0
N419 N 0.88409 0.16099 0.92784 0.0
C420 C 0.88302 0.10707 0.89568 0.0
H421 H 0.86757 0.10734 0.88131 0.0
H422 H 0.89588 0.10158 0.87729 0.0
H423 H 0.88207 0.09557 0.91849 0.0
C424 C 0.82614 0.14054 0.78891 0.0
N425 N 0.8258 0.14669 0.82398 0.0
N426 N 0.84427 0.14264 0.83933 0.0
C427 C 0.85741 0.13501 0.81306 0.0
C428 C 0.84614 0.13288 0.78065 0.0
C429 C 0.80838 0.14455 0.76279 0.0
H430 H 0.80705 0.16186 0.75774 0.0
H431 H 0.79326 0.13915 0.77501 0.0
H432 H 0.81096 0.13639 0.7364 0.0
O433 O 0.81817 0.1922 0.86015 0.0
O434 O 0.8472 0.18293 0.88955 0.0
H435 H 0.8867 0.141 0.84105 0.0
H436 H 0.88918 0.13827 0.7926 0.0
C437 C 0.88083 0.13227 0.81703 0.0
H438 H 0.88463 0.11514 0.81925 0.0
H439 H 0.87732 0.1759 0.93222 0.0
O440 O 0.78272 0.17273 0.81579 0.0
C441 C 0.83507 0.19719 0.87663 0.0
Co442 Co 0.5957 0.06194 0.59787 0.0
Co443 Co 0.60668 0.10412 0.63684 0.0
C444 C 0.61778 0.06087 0.66933 0.0
O445 O 0.60999 0.05188 0.64155 0.0
O446 O 0.61782 0.08115 0.67202 0.0
C447 C 0.57779 0.02402 0.58307 0.0
O448 O 0.57619 0.02456 0.61873 0.0
C449 C 0.62996 0.14459 0.65513 0.0
C450 C 0.60246 0.16377 0.67283 0.0
C451 C 0.62386 0.16506 0.66529 0.0
N452 N 0.61264 0.13211 0.65548 0.0
N453 N 0.5965 0.14367 0.66723 0.0
C454 C 0.65147 0.13742 0.64316 0.0
H455 H 0.65062 0.12181 0.62929 0.0
H456 H 0.65875 0.14945 0.62506 0.0
H457 H 0.66176 0.13579 0.66748 0.0
C458 C 0.61719 0.08195 0.53642 0.0
N459 N 0.61185 0.08188 0.57189 0.0
N460 N 0.6159 0.10051 0.5865 0.0
C461 C 0.62331 0.11333 0.55966 0.0
C462 C 0.6247 0.1018 0.52738 0.0
C463 C 0.61358 0.06377 0.51102 0.0
H464 H 0.59631 0.06192 0.50653 0.0
H465 H 0.61971 0.04892 0.52346 0.0
H466 H 0.62148 0.0663 0.48439 0.0
O467 O 0.56697 0.07346 0.60899 0.0
O468 O 0.575 0.10356 0.63625 0.0
H469 H 0.61559 0.14322 0.58487 0.0
H470 H 0.62079 0.14461 0.53661 0.0
C471 C 0.62553 0.13687 0.56252 0.0
H472 H 0.64237 0.14078 0.56735 0.0
H473 H 0.58105 0.13813 0.66979 0.0
O474 O 0.5894 0.0376 0.5675 0.0
C475 C 0.56126 0.09065 0.62423 0.0
Co476 Co 0.71776 0.83899 0.33028 0.0
Co477 Co 0.6736 0.84859 0.36924 0.0
C478 C 0.71373 0.85852 0.4073 0.0
O479 O 0.72307 0.85071 0.37958 0.0
O480 O 0.69348 0.86017 0.40817 0.0
C481 C 0.75864 0.83299 0.28612 0.0
O482 O 0.77436 0.84286 0.27009 0.0
C483 C 0.63007 0.86566 0.39287 0.0
C484 C 0.61117 0.83803 0.37604 0.0
C485 C 0.60917 0.85828 0.3903 0.0
N486 N 0.6434 0.85047 0.38006 0.0
N487 N 0.6318 0.83402 0.37048 0.0
C488 C 0.63737 0.88639 0.40795 0.0
H489 H 0.65452 0.88562 0.41451 0.0
H490 H 0.63483 0.8991 0.38752 0.0
H491 H 0.62813 0.89052 0.43271 0.0
C492 C 0.69602 0.86034 0.26992 0.0
N493 N 0.6967 0.85463 0.30524 0.0
N494 N 0.67862 0.85957 0.32105 0.0
C495 C 0.66588 0.86879 0.29589 0.0
C496 C 0.67651 0.86964 0.26264 0.0
C497 C 0.71268 0.85428 0.24275 0.0
H498 H 0.7262 0.86535 0.2452 0.0
H499 H 0.70659 0.85482 0.21446 0.0
H500 H 0.71852 0.838 0.24859 0.0
O501 O 0.70816 0.80894 0.33578 0.0
O502 O 0.67929 0.81728 0.36758 0.0
H503 H 0.63337 0.86213 0.30685 0.0
H504 H 0.63749 0.88602 0.28063 0.0
C505 C 0.64373 0.87611 0.3032 0.0
H506 H 0.64343 0.88554 0.32857 0.0
H507 H 0.63794 0.82013 0.35906 0.0
O508 O 0.74521 0.84387 0.30407 0.0
C509 C 0.69192 0.80344 0.35415 0.0
Co510 Co 0.91638 0.95311 0.09267 0.0
Co511 Co 0.90265 0.91057 0.12944 0.0
C512 C 0.89461 0.95336 0.16567 0.0
O513 O 0.90251 0.9625 0.13796 0.0
O514 O 0.89312 0.93306 0.16691 0.0
C515 C 0.9378 0.98964 0.08211 0.0
O516 O 0.93833 0.9879 0.11775 0.0
C517 C 0.87706 0.87186 0.152 0.0
C518 C 0.90192 0.84761 0.14323 0.0
C519 C 0.8808 0.85002 0.15224 0.0
N520 N 0.89524 0.88176 0.14268 0.0
N521 N 0.91001 0.86703 0.13832 0.0
C522 C 0.85625 0.88283 0.15725 0.0
H523 H 0.85734 0.89979 0.14931 0.0
H524 H 0.84384 0.87479 0.14103 0.0
H525 H 0.85162 0.88174 0.18634 0.0
C526 C 0.89559 0.93425 0.02883 0.0
N527 N 0.89997 0.93425 0.06474 0.0
N528 N 0.89367 0.91634 0.0795 0.0
C529 C 0.88475 0.90438 0.05297 0.0
C530 C 0.88563 0.91532 0.01981 0.0
C531 C 0.90375 0.95077 1.00317 0.0
H532 H 0.92078 0.95351 1.00867 0.0
H533 H 0.89516 0.96591 1.00805 0.0
H534 H 0.90201 0.94609 0.97426 0.0
O535 O 0.94382 0.9399 0.10423 0.0
O536 O 0.9346 0.90982 0.13047 0.0
H537 H 0.88894 0.87163 0.06651 0.0
H538 H 0.86752 0.87665 0.03479 0.0
C539 C 0.87592 0.88271 0.05911 0.0
H540 H 0.86456 0.88334 0.08201 0.0
H541 H 0.9255 0.87011 0.13012 0.0
O542 O 0.92522 0.97784 0.0645 0.0
C543 C 0.94885 0.92252 0.11936 0.0
Co544 Co 0.7017 0.66382 0.84262 0.0
Co545 Co 0.65805 0.65481 0.87912 0.0
C546 C 0.69896 0.64321 0.91683 0.0
O547 O 0.70883 0.65029 0.88923 0.0
O548 O 0.67863 0.64321 0.91774 0.0
C549 C 0.74141 0.67882 0.83165 0.0
O550 O 0.74011 0.67999 0.8673 0.0
C551 C 0.61585 0.63631 0.90345 0.0
C552 C 0.5959 0.66424 0.89076 0.0
C553 C 0.59488 0.64367 0.90372 0.0
N554 N 0.62838 0.65196 0.89066 0.0
N555 N 0.61619 0.66852 0.88336 0.0
C556 C 0.62396 0.61519 0.9158 0.0
H557 H 0.64115 0.61605 0.92184 0.0
H558 H 0.62158 0.60335 0.89387 0.0
H559 H 0.61514 0.60985 0.94026 0.0
C560 C 0.68195 0.64226 0.78047 0.0
N561 N 0.6818 0.64831 0.81564 0.0
N562 N 0.66318 0.64438 0.83014 0.0
C563 C 0.65073 0.63578 0.80406 0.0
C564 C 0.66225 0.63404 0.7717 0.0
C565 C 0.69985 0.64684 0.75493 0.0
H566 H 0.70359 0.664 0.75608 0.0
H567 H 0.71413 0.63796 0.7639 0.0
H568 H 0.69607 0.64253 0.72642 0.0
O569 O 0.69144 0.6932 0.85118 0.0
O570 O 0.66138 0.68632 0.87936 0.0
H571 H 0.61865 0.64469 0.81491 0.0
H572 H 0.62141 0.62178 0.78553 0.0
C573 C 0.62801 0.63007 0.80958 0.0
H574 H 0.62663 0.61962 0.83368 0.0
H575 H 0.62162 0.68276 0.87248 0.0
O576 O 0.72758 0.66815 0.81476 0.0
C577 C 0.67476 0.69957 0.8672 0.0
Co578 Co 0.597 0.45575 0.09045 0.0
Co579 Co 0.60854 0.41305 0.12924 0.0
C580 C 0.61773 0.45688 0.16283 0.0
O581 O 0.61052 0.46612 0.13469 0.0
O582 O 0.61814 0.43654 0.16491 0.0
C583 C 0.57575 0.49211 0.07645 0.0
O584 O 0.57553 0.49161 0.11222 0.0
C585 C 0.631 0.37105 0.14602 0.0
C586 C 0.60367 0.35467 0.17051 0.0
C587 C 0.62424 0.35137 0.1589 0.0
N588 N 0.61471 0.38502 0.14872 0.0
N589 N 0.59878 0.37509 0.16455 0.0
C590 C 0.65214 0.3761 0.13003 0.0
H591 H 0.65177 0.39172 0.11611 0.0
H592 H 0.65719 0.36337 0.11098 0.0
H593 H 0.664 0.37673 0.15227 0.0
C594 C 0.61939 0.43608 0.02938 0.0
N595 N 0.61405 0.43596 0.06484 0.0
N596 N 0.61746 0.41698 0.07875 0.0
C597 C 0.62384 0.40401 0.05128 0.0
C598 C 0.62562 0.41577 0.01914 0.0
C599 C 0.61777 0.45536 1.00573 0.0
H600 H 0.62179 0.46971 0.02172 0.0
H601 H 0.62859 0.45416 0.98199 0.0
H602 H 0.60124 0.45709 0.99587 0.0
O603 O 0.56884 0.44336 0.1017 0.0
O604 O 0.57719 0.41305 0.12818 0.0
H605 H 0.61674 0.37353 0.02817 0.0
H606 H 0.64028 0.37437 0.05507 0.0
C607 C 0.62376 0.3803 0.05328 0.0
H608 H 0.61454 0.3748 0.07707 0.0
H609 H 0.58404 0.38197 0.16984 0.0
O610 O 0.58827 0.47962 0.05977 0.0
C611 C 0.56336 0.42603 0.1164 0.0
Co612 Co 0.8168 0.33465 0.34643 0.0
Co613 Co 0.85749 0.35173 0.38296 0.0
C614 C 0.81455 0.36013 0.41615 0.0
O615 O 0.80646 0.34999 0.38971 0.0
O616 O 0.83466 0.36263 0.41832 0.0
C617 C 0.78096 0.31242 0.33564 0.0
O618 O 0.78319 0.31096 0.37113 0.0
C619 C 0.89497 0.37734 0.41052 0.0
C620 C 0.91989 0.35357 0.39874 0.0
C621 C 0.91672 0.3736 0.41314 0.0
N622 N 0.88587 0.36011 0.39535 0.0
N623 N 0.90101 0.34614 0.38832 0.0
C624 C 0.88306 0.39653 0.42312 0.0
H625 H 0.86601 0.39287 0.42657 0.0
H626 H 0.88463 0.40925 0.40243 0.0
H627 H 0.8898 0.40246 0.44907 0.0
C628 C 0.83462 0.35562 0.28178 0.0
N629 N 0.8349 0.35122 0.31764 0.0
N630 N 0.85188 0.35939 0.33264 0.0
C631 C 0.86283 0.3698 0.30648 0.0
C632 C 0.85224 0.3678 0.27317 0.0
C633 C 0.81912 0.34597 0.25584 0.0
H634 H 0.81634 0.32918 0.26334 0.0
H635 H 0.80381 0.35462 0.25784 0.0
H636 H 0.82484 0.34644 0.22732 0.0
O637 O 0.8308 0.30768 0.3598 0.0
O638 O 0.85936 0.31967 0.38731 0.0
H639 H 0.89619 0.36986 0.31581 0.0
H640 H 0.88652 0.39278 0.29111 0.0
C641 C 0.88298 0.38146 0.31338 0.0
H642 H 0.88174 0.39027 0.3394 0.0
H643 H 0.89847 0.33139 0.37628 0.0
O644 O 0.79245 0.32545 0.31847 0.0
C645 C 0.84804 0.30421 0.37651 0.0
Co646 Co 0.91941 0.54368 0.57903 0.0
Co647 Co 0.90873 0.58752 0.61869 0.0
C648 C 0.89956 0.54692 0.65599 0.0
O649 O 0.90745 0.53791 0.62799 0.0
O650 O 0.89794 0.5672 0.65768 0.0
C651 C 0.92679 0.50195 0.53669 0.0
O652 O 0.91715 0.485 0.52434 0.0
C653 C 0.89281 0.63143 0.64464 0.0
C654 C 0.91898 0.65006 0.62119 0.0
C655 C 0.9002 0.65225 0.64026 0.0
N656 N 0.90673 0.61787 0.62864 0.0
N657 N 0.92223 0.62937 0.61486 0.0
C658 C 0.87319 0.62449 0.6639 0.0
H659 H 0.87433 0.60742 0.67115 0.0
H660 H 0.85937 0.62677 0.64569 0.0
H661 H 0.87062 0.6342 0.68874 0.0
C662 C 0.89592 0.56516 0.52002 0.0
N663 N 0.90282 0.56448 0.55471 0.0
N664 N 0.89705 0.58204 0.57156 0.0
C665 C 0.88607 0.59433 0.54791 0.0
C666 C 0.88505 0.58404 0.51454 0.0
C667 C 0.90022 0.54826 0.49234 0.0
H668 H 0.91736 0.54439 0.49201 0.0
H669 H 0.89156 0.53369 0.50011 0.0
H670 H 0.8951 0.55318 0.46469 0.0
O671 O 0.94925 0.55365 0.58519 0.0
O672 O 0.93998 0.58303 0.61452 0.0
H673 H 0.89194 0.62715 0.55768 0.0
H674 H 0.86732 0.62206 0.53454 0.0
C675 C 0.87826 0.61625 0.55602 0.0
H676 H 0.86998 0.61634 0.58261 0.0
H677 H 0.93488 0.62311 0.60001 0.0
O678 O 0.91572 0.51619 0.55241 0.0
C679 C 0.95423 0.57075 0.60154 0.0
Co680 Co 0.70961 0.34574 0.69376 0.0
Co681 Co 0.6679 0.35868 0.65359 0.0
C682 C 0.71217 0.36805 0.62266 0.0
O683 O 0.7208 0.35991 0.65064 0.0
O684 O 0.69193 0.36902 0.61975 0.0
C685 C 0.74525 0.32356 0.70891 0.0
O686 O 0.74536 0.32347 0.67313 0.0
C687 C 0.62642 0.38199 0.63792 0.0
C688 C 0.60979 0.35551 0.61124 0.0
C689 C 0.60668 0.37577 0.62466 0.0
N690 N 0.64019 0.36564 0.63382 0.0
N691 N 0.63014 0.35026 0.61667 0.0
C692 C 0.63178 0.40265 0.65553 0.0
H693 H 0.64723 0.40158 0.66979 0.0
H694 H 0.61902 0.40757 0.67459 0.0
H695 H 0.63293 0.41502 0.63415 0.0
C696 C 0.68952 0.36741 0.75505 0.0
N697 N 0.68978 0.36258 0.71938 0.0
N698 N 0.67102 0.36625 0.70498 0.0
C699 C 0.65777 0.37223 0.73234 0.0
C700 C 0.66916 0.37355 0.76489 0.0
C701 C 0.70851 0.36548 0.7792 0.0
H702 H 0.72302 0.36959 0.76374 0.0
H703 H 0.70712 0.3761 0.80318 0.0
H704 H 0.71005 0.34883 0.7887 0.0
O705 O 0.697 0.3179 0.68055 0.0
O706 O 0.66795 0.32729 0.65131 0.0
H707 H 0.62718 0.36449 0.75414 0.0
H708 H 0.62814 0.38867 0.72892 0.0
C709 C 0.63413 0.37213 0.72969 0.0
H710 H 0.62889 0.36342 0.70517 0.0
H711 H 0.63687 0.3356 0.61017 0.0
O712 O 0.73281 0.33633 0.7251 0.0
C713 C 0.6803 0.31298 0.66341 0.0
Co714 Co 0.91528 0.45117 0.94407 0.0
Co715 Co 0.90544 0.40785 0.90706 0.0
C716 C 0.894 0.44952 0.87074 0.0
O717 O 0.90127 0.45912 0.89842 0.0
O718 O 0.89398 0.42917 0.86929 0.0
C719 C 0.93103 0.49054 0.95554 0.0
O720 O 0.93235 0.4892 0.9199 0.0
C721 C 0.8846 0.36644 0.88461 0.0
C722 C 0.91284 0.34576 0.88871 0.0
C723 C 0.89138 0.34532 0.88129 0.0
N724 N 0.90143 0.37846 0.89388 0.0
N725 N 0.91816 0.36584 0.89597 0.0
C726 C 0.86292 0.37523 0.87794 0.0
H727 H 0.86364 0.39263 0.87339 0.0
H728 H 0.85275 0.37223 0.90199 0.0
H729 H 0.85564 0.36732 0.85407 0.0
C730 C 0.89499 0.43098 1.00688 0.0
N731 N 0.89999 0.43117 0.97125 0.0
N732 N 0.89561 0.41265 0.95661 0.0
C733 C 0.88766 0.39999 0.98312 0.0
C734 C 0.88699 0.41124 1.01583 0.0
C735 C 0.89912 0.44905 0.03229 0.0
H736 H 0.91648 0.4512 0.0351 0.0
H737 H 0.89239 0.46386 0.02067 0.0
H738 H 0.89209 0.44627 0.05956 0.0
O739 O 0.94432 0.44056 0.93426 0.0
O740 O 0.93708 0.41039 0.90656 0.0
H741 H 0.89734 0.36889 0.96646 0.0
H742 H 0.87936 0.36919 1.00483 0.0
C743 C 0.8833 0.37686 0.9785 0.0
H744 H 0.86982 0.37488 0.95959 0.0
H745 H 0.93329 0.37079 0.90331 0.0
O746 O 0.92034 0.4767 0.97241 0.0
C747 C 0.95047 0.42372 0.91843 0.0
Co748 Co 0.79337 0.67069 0.20708 0.0
Co749 Co 0.83709 0.66162 0.1664 0.0
C750 C 0.79689 0.65076 0.13014 0.0
O751 O 0.7878 0.65872 0.158 0.0
O752 O 0.81713 0.6494 0.12849 0.0
C753 C 0.7528 0.67594 0.2523 0.0
O754 O 0.73744 0.66581 0.26886 0.0
C755 C 0.88121 0.64553 0.14356 0.0
C756 C 0.89895 0.67419 0.15901 0.0
C757 C 0.90181 0.65357 0.14689 0.0
N758 N 0.86721 0.66065 0.15446 0.0
N759 N 0.87813 0.67778 0.16279 0.0
C760 C 0.87499 0.62362 0.13246 0.0
H761 H 0.858 0.62082 0.13849 0.0
H762 H 0.885 0.6117 0.14667 0.0
H763 H 0.87755 0.62176 0.10275 0.0
C764 C 0.81589 0.64901 0.26623 0.0
N765 N 0.81493 0.65531 0.23124 0.0
N766 N 0.8327 0.65023 0.21454 0.0
C767 C 0.84542 0.64009 0.23865 0.0
C768 C 0.83518 0.63896 0.27226 0.0
C769 C 0.79964 0.65493 0.29421 0.0
H770 H 0.79334 0.67104 0.28844 0.0
H771 H 0.78635 0.64352 0.29288 0.0
H772 H 0.80636 0.65472 0.3221 0.0
O773 O 0.80238 0.70088 0.20174 0.0
O774 O 0.83083 0.69291 0.16868 0.0
H775 H 0.87792 0.64477 0.22465 0.0
H776 H 0.87325 0.62122 0.25162 0.0
C777 C 0.86688 0.63146 0.22962 0.0
H778 H 0.86578 0.62182 0.2046 0.0
H779 H 0.87145 0.69176 0.17286 0.0
O780 O 0.76629 0.66528 0.23409 0.0
C781 C 0.81831 0.70661 0.18284 0.0
Co782 Co 0.58773 0.56007 0.44213 0.0
Co783 Co 0.60337 0.60181 0.40534 0.0
C784 C 0.61178 0.55799 0.37208 0.0
O785 O 0.60262 0.5493 0.39903 0.0
O786 O 0.61347 0.57826 0.37014 0.0
C787 C 0.56257 0.52679 0.4519 0.0
O788 O 0.56425 0.52743 0.41625 0.0
C789 C 0.63174 0.63875 0.38498 0.0
C790 C 0.60722 0.66381 0.38237 0.0
C791 C 0.6288 0.66048 0.37994 0.0
N792 N 0.61261 0.62976 0.39045 0.0
N793 N 0.59812 0.64492 0.38808 0.0
C794 C 0.65238 0.62712 0.38706 0.0
H795 H 0.65009 0.61091 0.39817 0.0
H796 H 0.66371 0.63609 0.40417 0.0
H797 H 0.65925 0.62593 0.35932 0.0
C798 C 0.6098 0.57764 0.50571 0.0
N799 N 0.60471 0.57833 0.47015 0.0
N800 N 0.61098 0.59641 0.45592 0.0
C801 C 0.61987 0.60811 0.4828 0.0
C802 C 0.61961 0.59648 0.51519 0.0
C803 C 0.60306 0.56018 0.53072 0.0
H804 H 0.58551 0.55966 0.53157 0.0
H805 H 0.60875 0.54475 0.5198 0.0
H806 H 0.60911 0.56239 0.55878 0.0
O807 O 0.56113 0.57448 0.42837 0.0
O808 O 0.5716 0.6042 0.4026 0.0
H809 H 0.6158 0.63981 0.46286 0.0
H810 H 0.63104 0.63801 0.5045 0.0
C811 C 0.62768 0.63029 0.47803 0.0
H812 H 0.64252 0.62989 0.46199 0.0
H813 H 0.58194 0.64261 0.392 0.0
O814 O 0.57621 0.53668 0.47067 0.0
C815 C 0.55682 0.59202 0.41319 0.0
Co816 Co 0.31238 0.34487 0.19781 0.0
Co817 Co 0.35458 0.3561 0.15896 0.0
C818 C 0.31253 0.36703 0.12471 0.0
O819 O 0.30367 0.35905 0.15257 0.0
O820 O 0.33278 0.36758 0.12216 0.0
C821 C 0.27219 0.33082 0.21057 0.0
O822 O 0.27235 0.3306 0.1748 0.0
C823 C 0.39525 0.37679 0.13253 0.0
C824 C 0.41649 0.34921 0.14052 0.0
C825 C 0.41632 0.37013 0.12929 0.0
N826 N 0.38371 0.36036 0.14515 0.0
N827 N 0.39667 0.34405 0.14974 0.0
C828 C 0.38614 0.39799 0.12291 0.0
H829 H 0.36875 0.39688 0.11911 0.0
H830 H 0.38932 0.40936 0.14526 0.0
H831 H 0.39374 0.40415 0.09781 0.0
C832 C 0.33287 0.36622 0.25958 0.0
N833 N 0.33233 0.36074 0.22417 0.0
N834 N 0.35022 0.36609 0.20834 0.0
C835 C 0.36278 0.37527 0.23368 0.0
C836 C 0.35217 0.37564 0.26702 0.0
C837 C 0.31547 0.36158 0.28604 0.0
H838 H 0.30031 0.36798 0.27533 0.0
H839 H 0.31857 0.36865 0.31317 0.0
H840 H 0.31377 0.34414 0.28884 0.0
O841 O 0.32325 0.3158 0.18769 0.0
O842 O 0.3527 0.32428 0.15899 0.0
H843 H 0.39442 0.36739 0.21779 0.0
H844 H 0.39274 0.38784 0.2522 0.0
C845 C 0.38529 0.38144 0.2272 0.0
H846 H 0.38586 0.3936 0.20548 0.0
H847 H 0.39214 0.32935 0.16001 0.0
O848 O 0.28727 0.33983 0.2271 0.0
C849 C 0.34012 0.3103 0.1713 0.0
Co850 Co 0.41424 0.55892 0.94731 0.0
Co851 Co 0.40015 0.6008 0.9078 0.0
C852 C 0.39268 0.55645 0.87526 0.0
O853 O 0.40075 0.54785 0.90333 0.0
O854 O 0.39118 0.57672 0.87273 0.0
C855 C 0.43669 0.52322 0.96113 0.0
O856 O 0.43687 0.52381 0.92537 0.0
C857 C 0.3769 0.64247 0.88905 0.0
C858 C 0.40432 0.65899 0.86522 0.0
C859 C 0.38357 0.66213 0.87591 0.0
N860 N 0.39342 0.62868 0.88756 0.0
N861 N 0.40939 0.6387 0.87196 0.0
C862 C 0.35548 0.63726 0.90372 0.0
H863 H 0.35558 0.62146 0.91705 0.0
H864 H 0.35015 0.64979 0.92295 0.0
H865 H 0.34401 0.63701 0.88087 0.0
C866 C 0.39131 0.57792 1.00859 0.0
N867 N 0.39664 0.57818 0.9731 0.0
N868 N 0.39133 0.59661 0.95853 0.0
C869 C 0.38317 0.60895 0.98554 0.0
C870 C 0.38252 0.59734 1.01783 0.0
C871 C 0.39584 0.55975 0.03366 0.0
H872 H 0.39176 0.54461 0.02005 0.0
H873 H 0.38675 0.56117 0.05942 0.0
H874 H 0.41301 0.55942 0.04003 0.0
O875 O 0.44176 0.57214 0.93539 0.0
O876 O 0.43169 0.60179 0.90859 0.0
H877 H 0.38537 0.64021 1.00849 0.0
H878 H 0.36273 0.63583 0.98048 0.0
C879 C 0.37989 0.63241 0.98312 0.0
H880 H 0.3887 0.63909 0.95978 0.0
H881 H 0.42426 0.632 0.86724 0.0
O882 O 0.42395 0.53541 0.97796 0.0
C883 C 0.44627 0.58959 0.92019 0.0
Co884 Co 0.19468 0.67719 0.69653 0.0
Co885 Co 0.1545 0.65992 0.65856 0.0
C886 C 0.19785 0.65201 0.62619 0.0
O887 O 0.20557 0.66198 0.65316 0.0
O888 O 0.17779 0.64929 0.62357 0.0
C889 C 0.23136 0.69831 0.70647 0.0
O890 O 0.2297 0.69837 0.67081 0.0
C891 C 0.11737 0.63377 0.6308 0.0
C892 C 0.09232 0.65777 0.64003 0.0
C893 C 0.09561 0.63738 0.62725 0.0
N894 N 0.12629 0.65139 0.64499 0.0
N895 N 0.11107 0.66551 0.65039 0.0
C896 C 0.12947 0.61431 0.6201 0.0
H897 H 0.14651 0.618 0.61659 0.0
H898 H 0.12791 0.60221 0.64185 0.0
H899 H 0.12292 0.60757 0.59458 0.0
C900 C 0.17563 0.65692 0.76121 0.0
N901 N 0.17618 0.66071 0.7251 0.0
N902 N 0.15943 0.65246 0.70946 0.0
C903 C 0.14785 0.64256 0.73546 0.0
C904 C 0.1577 0.64504 0.76941 0.0
C905 C 0.19056 0.66703 0.78761 0.0
H906 H 0.19419 0.68341 0.7787 0.0
H907 H 0.20559 0.65781 0.78815 0.0
H908 H 0.18384 0.66776 0.81547 0.0
O909 O 0.18073 0.70413 0.68263 0.0
O910 O 0.15263 0.69202 0.65387 0.0
H911 H 0.11466 0.64262 0.72441 0.0
H912 H 0.12376 0.61985 0.75016 0.0
C913 C 0.12775 0.63097 0.72782 0.0
H914 H 0.12941 0.6219 0.70215 0.0
H915 H 0.11345 0.68054 0.66149 0.0
O916 O 0.21889 0.68672 0.7247 0.0
C917 C 0.16374 0.70753 0.66512 0.0
Co918 Co 0.09181 0.4689 0.4626 0.0
Co919 Co 0.10278 0.42439 0.42504 0.0
C920 C 0.11042 0.46476 0.3848 0.0
O921 O 0.10308 0.47409 0.41292 0.0
O922 O 0.11229 0.44446 0.38404 0.0
C923 C 0.08354 0.51164 0.50128 0.0
O924 O 0.0928 0.52896 0.51294 0.0
C925 C 0.11883 0.3801 0.40005 0.0
C926 C 0.094 0.36155 0.42757 0.0
C927 C 0.11204 0.35921 0.40652 0.0
N928 N 0.10529 0.39378 0.41676 0.0
N929 N 0.0906 0.38231 0.43299 0.0
C930 C 0.13761 0.38698 0.37841 0.0
H931 H 0.13595 0.4039 0.37045 0.0
H932 H 0.15208 0.38522 0.39527 0.0
H933 H 0.13945 0.37689 0.35382 0.0
C934 C 0.1146 0.44809 0.52334 0.0
N935 N 0.10858 0.44857 0.48811 0.0
N936 N 0.11462 0.43088 0.47204 0.0
C937 C 0.12502 0.41872 0.49668 0.0
C938 C 0.12526 0.42911 0.53027 0.0
C939 C 0.10804 0.46443 0.55078 0.0
H940 H 0.09303 0.4721 0.54254 0.0
H941 H 0.12044 0.47678 0.55247 0.0
H942 H 0.10589 0.45728 0.57812 0.0
O943 O 0.06222 0.45841 0.45727 0.0
O944 O 0.07141 0.42825 0.43011 0.0
H945 H 0.12183 0.38525 0.4897 0.0
H946 H 0.14708 0.39326 0.50791 0.0
C947 C 0.1344 0.39744 0.48826 0.0
H948 H 0.14108 0.39748 0.46036 0.0
H949 H 0.07841 0.38867 0.4488 0.0
O950 O 0.09505 0.49704 0.48749 0.0
C951 C 0.05723 0.44081 0.44259 0.0
Co952 Co 0.2994 0.67009 0.34471 0.0
Co953 Co 0.34174 0.65488 0.38066 0.0
C954 C 0.30028 0.64651 0.41771 0.0
O955 O 0.29149 0.65582 0.39081 0.0
O956 O 0.3205 0.64398 0.41888 0.0
C957 C 0.26228 0.69091 0.33484 0.0
O958 O 0.26458 0.69241 0.3703 0.0
C959 C 0.38522 0.63612 0.4031 0.0
C960 C 0.40415 0.66216 0.37978 0.0
C961 C 0.40608 0.64309 0.39799 0.0
N962 N 0.37185 0.65067 0.38847 0.0
N963 N 0.38353 0.66603 0.37465 0.0
C964 C 0.37813 0.61632 0.42169 0.0
H965 H 0.36134 0.61787 0.43034 0.0
H966 H 0.37946 0.60283 0.40242 0.0
H967 H 0.38837 0.61289 0.44555 0.0
C968 C 0.31813 0.64935 0.28019 0.0
N969 N 0.31802 0.65369 0.31611 0.0
N970 N 0.33534 0.64613 0.33122 0.0
C971 C 0.34682 0.63606 0.3052 0.0
C972 C 0.33637 0.63781 0.27173 0.0
C973 C 0.30247 0.65871 0.25404 0.0
H974 H 0.29813 0.67501 0.26273 0.0
H975 H 0.28791 0.64895 0.25412 0.0
H976 H 0.30889 0.65946 0.22597 0.0
O977 O 0.3121 0.69793 0.35475 0.0
O978 O 0.3405 0.68664 0.38387 0.0
H979 H 0.38037 0.63671 0.31223 0.0
H980 H 0.37068 0.61273 0.29132 0.0
C981 C 0.36738 0.62494 0.31236 0.0
H982 H 0.36691 0.61727 0.33948 0.0
H983 H 0.37743 0.67917 0.36087 0.0
O984 O 0.27382 0.67769 0.31779 0.0
C985 C 0.32895 0.70175 0.37215 0.0
Co986 Co 0.08394 0.56661 0.09717 0.0
Co987 Co 0.0979 0.60779 0.13651 0.0
C988 C 0.10575 0.56359 0.16935 0.0
O989 O 0.09739 0.55523 0.1414 0.0
O990 O 0.1075 0.58382 0.17171 0.0
C991 C 0.06263 0.53059 0.08322 0.0
O992 O 0.06156 0.53157 0.11891 0.0
C993 C 0.12312 0.64762 0.1537 0.0
C994 C 0.09671 0.66712 0.17486 0.0
C995 C 0.11779 0.66812 0.16495 0.0
N996 N 0.1056 0.63541 0.15558 0.0
N997 N 0.09019 0.64716 0.1695 0.0
C998 C 0.14411 0.64017 0.13968 0.0
H999 H 0.14262 0.62458 0.12593 0.0
H1000 H 0.15095 0.65214 0.12096 0.0
H1001 H 0.15515 0.63841 0.16297 0.0
C1002 C 0.10649 0.58526 0.0352 0.0
N1003 N 0.10136 0.58547 0.07083 0.0
N1004 N 0.10647 0.60385 0.08537 0.0
C1005 C 0.11435 0.61626 0.05827 0.0
C1006 C 0.11495 0.60473 0.02579 0.0
C1007 C 0.10217 0.56705 1.0102 0.0
H1008 H 0.08498 0.56661 1.00406 0.0
H1009 H 0.1066 0.55195 0.02376 0.0
H1010 H 0.11113 0.56851 0.98433 0.0
O1011 O 0.05616 0.58026 0.10852 0.0
O1012 O 0.0661 0.60914 0.13755 0.0
H1013 H 0.10866 0.64639 0.08421 0.0
H1014 H 0.11219 0.64761 0.03554 0.0
C1015 C 0.11756 0.63968 0.06092 0.0
H1016 H 0.1347 0.64295 0.06385 0.0
H1017 H 0.07477 0.64191 0.17371 0.0
O1018 O 0.07517 0.54298 0.06681 0.0
C1019 C 0.05152 0.59736 0.12502 0.0
Co1020 Co 0.20463 0.34637 0.84945 0.0
Co1021 Co 0.16331 0.35937 0.89088 0.0
C1022 C 0.20769 0.36823 0.9212 0.0
O1023 O 0.21597 0.36008 0.8929 0.0
O1024 O 0.18748 0.3694 0.92468 0.0
C1025 C 0.24063 0.32512 0.83311 0.0
O1026 O 0.24079 0.32445 0.86887 0.0
C1027 C 0.12195 0.38249 0.90992 0.0
C1028 C 0.10517 0.35502 0.93308 0.0
C1029 C 0.10219 0.37584 0.92244 0.0
N1030 N 0.13563 0.36589 0.91163 0.0
N1031 N 0.12548 0.3499 0.9269 0.0
C1032 C 0.12736 0.40393 0.89541 0.0
H1033 H 0.14297 0.40363 0.88151 0.0
H1034 H 0.11474 0.40965 0.87678 0.0
H1035 H 0.12812 0.41527 0.91847 0.0
C1036 C 0.18468 0.36943 0.78943 0.0
N1037 N 0.18482 0.36359 0.82467 0.0
N1038 N 0.16644 0.36823 0.83991 0.0
C1039 C 0.15369 0.3764 0.81352 0.0
C1040 C 0.16504 0.37786 0.78108 0.0
C1041 C 0.20269 0.36571 0.76367 0.0
H1042 H 0.20365 0.34855 0.75709 0.0
H1043 H 0.21778 0.37038 0.77681 0.0
H1044 H 0.20061 0.37482 0.73805 0.0
O1045 O 0.19225 0.31837 0.86161 0.0
O1046 O 0.16329 0.32761 0.89128 0.0
H1047 H 0.12394 0.36997 0.83988 0.0
H1048 H 0.12245 0.37329 0.79123 0.0
C1049 C 0.13021 0.379 0.81647 0.0
H1050 H 0.1263 0.39609 0.81912 0.0
H1051 H 0.13208 0.33494 0.93147 0.0
O1052 O 0.22787 0.33782 0.8176 0.0
C1053 C 0.17552 0.31333 0.87856 0.0
Co1054 Co 0.42433 0.45647 0.59745 0.0
Co1055 Co 0.40932 0.41339 0.6306 0.0
C1056 C 0.39821 0.45461 0.66715 0.0
O1057 O 0.40802 0.46388 0.64143 0.0
O1058 O 0.39668 0.43431 0.66785 0.0
C1059 C 0.42399 0.49772 0.55539 0.0
O1060 O 0.40392 0.49697 0.54626 0.0
C1061 C 0.38724 0.37116 0.64758 0.0
C1062 C 0.41394 0.35036 0.6316 0.0
C1063 C 0.39303 0.34988 0.6426 0.0
N1064 N 0.40403 0.38346 0.6389 0.0
N1065 N 0.41991 0.37068 0.63013 0.0
C1066 C 0.3658 0.37962 0.65716 0.0
H1067 H 0.36487 0.39694 0.65186 0.0
H1068 H 0.35347 0.37117 0.64137 0.0
H1069 H 0.36276 0.37673 0.68649 0.0
C1070 C 0.40648 0.43766 0.52989 0.0
N1071 N 0.40974 0.43765 0.56621 0.0
N1072 N 0.40196 0.42017 0.58038 0.0
C1073 C 0.39271 0.40889 0.55337 0.0
C1074 C 0.39527 0.41957 0.52034 0.0
C1075 C 0.41667 0.45293 0.50414 0.0
H1076 H 0.43137 0.45939 0.51612 0.0
H1077 H 0.40551 0.46614 0.49836 0.0
H1078 H 0.42063 0.44505 0.47796 0.0
O1079 O 0.45177 0.44419 0.61093 0.0
O1080 O 0.44116 0.41426 0.63596 0.0
H1081 H 0.39303 0.37549 0.56322 0.0
H1082 H 0.37096 0.38452 0.53583 0.0
C1083 C 0.38131 0.38846 0.55921 0.0
H1084 H 0.37137 0.38974 0.5839 0.0
H1085 H 0.43469 0.37582 0.62122 0.0
O1086 O 0.43244 0.48291 0.57376 0.0
C1087 C 0.45597 0.42681 0.62673 0.0
H1088 H 0.15699 0.0878 0.05717 0.0
H1089 H 0.12142 0.15239 0.23663 0.0
H1090 H 0.10037 0.12605 0.06197 0.0
H1091 H 0.17976 0.11704 0.22792 0.0
H1092 H 0.11249 0.14193 0.17396 0.0
H1093 H 0.16501 0.09768 0.12026 0.0
C1094 C 0.14637 0.09848 0.07149 0.0
C1095 C 0.1282 0.1064 0.05414 0.0
C1096 C 0.12719 0.13635 0.18579 0.0
C1097 C 0.13703 0.1176 0.12679 0.0
C1098 C 0.1322 0.14218 0.22168 0.0
C1099 C 0.15133 0.1355 0.23756 0.0
C1100 C 0.1414 0.1237 0.16556 0.0
C1101 C 0.16486 0.12256 0.21671 0.0
C1102 C 0.15089 0.10407 0.10756 0.0
C1103 C 0.11479 0.11995 0.07409 0.0
N1104 N 0.15969 0.11714 0.18193 0.0
N1105 N 0.11944 0.12509 0.1093 0.0
H1106 H 0.14069 0.95109 0.45131 0.0
H1107 H 0.15879 0.85496 0.31452 0.0
H1108 H 0.11685 0.88865 0.47518 0.0
H1109 H 0.15037 0.91907 0.27657 0.0
H1110 H 0.14826 0.86638 0.37606 0.0
H1111 H 0.14953 0.93921 0.38957 0.0
C1112 C 0.13734 0.93487 0.44364 0.0
C1113 C 0.12798 0.92088 0.46862 0.0
C1114 C 0.14858 0.87791 0.35422 0.0
C1115 C 0.13853 0.90704 0.3981 0.0
C1116 C 0.15455 0.87141 0.31921 0.0
C1117 C 0.15532 0.88612 0.2906 0.0
C1118 C 0.14386 0.89938 0.36081 0.0
C1119 C 0.14982 0.90727 0.29796 0.0
C1120 C 0.14241 0.92811 0.40839 0.0
C1121 C 0.12439 0.89991 0.45722 0.0
N1122 N 0.14456 0.91334 0.33244 0.0
N1123 N 0.12976 0.8936 0.42291 0.0
H1124 H 0.3691 0.91523 0.74296 0.0
H1125 H 0.4024 0.87469 0.54497 0.0
H1126 H 0.35916 0.85057 0.7097 0.0
H1127 H 0.38015 0.9385 0.56424 0.0
H1128 H 0.39235 0.86531 0.60754 0.0
H1129 H 0.3798 0.92403 0.68024 0.0
C1130 C 0.36945 0.90286 0.72249 0.0
C1131 C 0.36327 0.88218 0.73135 0.0
C1132 C 0.38963 0.88134 0.59797 0.0
C1133 C 0.37556 0.892 0.65983 0.0
C1134 C 0.39518 0.88667 0.56214 0.0
C1135 C 0.39197 0.9074 0.54909 0.0
C1136 C 0.38127 0.89695 0.62132 0.0
C1137 C 0.38311 0.92239 0.57315 0.0
C1138 C 0.37539 0.90789 0.68674 0.0
C1139 C 0.36383 0.86671 0.70385 0.0
N1140 N 0.37825 0.91694 0.60807 0.0
N1141 N 0.36996 0.87189 0.66938 0.0
H1142 H 0.35063 0.1624 0.82021 0.0
H1143 H 0.36637 0.06592 0.95895 0.0
H1144 H 0.3536 0.09736 0.7847 0.0
H1145 H 0.3871 0.12934 0.9836 0.0
H1146 H 0.35767 0.07743 0.89695 0.0
H1147 H 0.3604 0.15102 0.88197 0.0
C1148 C 0.35351 0.14572 0.82548 0.0
C1149 C 0.35142 0.13078 0.79742 0.0
C1150 C 0.36409 0.08884 0.91595 0.0
C1151 C 0.36215 0.11756 0.86809 0.0
C1152 C 0.36907 0.08229 0.95137 0.0
C1153 C 0.37756 0.09664 0.97663 0.0
C1154 C 0.36727 0.11005 0.90567 0.0
C1155 C 0.38033 0.11776 0.96535 0.0
C1156 C 0.35905 0.13923 0.86067 0.0
C1157 C 0.35519 0.10936 0.8056 0.0
N1158 N 0.37517 0.12382 0.93082 0.0
N1159 N 0.36019 0.10335 0.84025 0.0
H1160 H 0.86108 0.84279 0.82183 0.0
H1161 H 0.86339 0.93695 0.96753 0.0
H1162 H 0.8541 0.90834 0.79106 0.0
H1163 H 0.8947 0.87706 0.9866 0.0
H1164 H 0.85585 0.92577 0.90488 0.0
H1165 H 0.8698 0.85395 0.88419 0.0
C1166 C 0.86159 0.85956 0.82824 0.0
C1167 C 0.85706 0.8747 0.80133 0.0
C1168 C 0.86432 0.91504 0.92279 0.0
C1169 C 0.86647 0.8876 0.87273 0.0
C1170 C 0.8686 0.92139 0.95858 0.0
C1171 C 0.87966 0.90793 0.98248 0.0
C1172 C 0.87082 0.89487 0.91076 0.0
C1173 C 0.88583 0.88785 0.96942 0.0
C1174 C 0.86651 0.86591 0.86378 0.0
C1175 C 0.85769 0.89621 0.81102 0.0
N1176 N 0.88127 0.88192 0.93458 0.0
N1177 N 0.86212 0.90202 0.84598 0.0
H1178 H 0.87542 0.1518 0.73604 0.0
H1179 H 0.85812 0.06874 0.57284 0.0
H1180 H 0.83321 0.09853 0.74222 0.0
H1181 H 0.9031 0.11974 0.56761 0.0
H1182 H 0.84831 0.07996 0.6345 0.0
H1183 H 0.88575 0.14071 0.67437 0.0
C1184 C 0.86863 0.13755 0.72459 0.0
C1185 C 0.85375 0.1258 0.74436 0.0
C1186 C 0.86025 0.08882 0.61988 0.0
C1187 C 0.86498 0.11333 0.67356 0.0
C1188 C 0.86578 0.08244 0.58467 0.0
C1189 C 0.88124 0.09348 0.56504 0.0
C1190 C 0.87031 0.10638 0.63577 0.0
C1191 C 0.89082 0.11103 0.58163 0.0
C1192 C 0.87435 0.13133 0.68928 0.0
C1193 C 0.84489 0.10787 0.72789 0.0
N1194 N 0.88522 0.11693 0.61603 0.0
N1195 N 0.85061 0.10219 0.6935 0.0
H1196 H 0.62432 0.1445 0.30167 0.0
H1197 H 0.66362 0.11157 0.50039 0.0
H1198 H 0.68613 0.11758 0.32174 0.0
H1199 H 0.59786 0.10838 0.47025 0.0
H1200 H 0.67263 0.12008 0.43685 0.0
H1201 H 0.61441 0.13648 0.36487 0.0
C1202 C 0.63572 0.13667 0.31917 0.0
C1203 C 0.65611 0.13171 0.30633 0.0
C1204 C 0.65621 0.11765 0.4442 0.0
C1205 C 0.64512 0.12324 0.37899 0.0
C1206 C 0.65109 0.113 0.4804 0.0
C1207 C 0.63001 0.1094 0.49033 0.0
C1208 C 0.64007 0.11903 0.41792 0.0
C1209 C 0.6143 0.11117 0.46349 0.0
C1210 C 0.63011 0.13228 0.35531 0.0
C1211 C 0.67035 0.12197 0.33059 0.0
N1212 N 0.61962 0.11594 0.42849 0.0
N1213 N 0.66469 0.11826 0.36576 0.0
H1214 H 0.63969 0.85812 0.22835 0.0
H1215 H 0.66492 0.92495 0.04724 0.0
H1216 H 0.69539 0.89639 0.21433 0.0
H1217 H 0.61066 0.88437 0.05765 0.0
H1218 H 0.67608 0.91481 0.10873 0.0
H1219 H 0.62813 0.86806 0.16681 0.0
C1220 C 0.64934 0.86883 0.21245 0.0
C1221 C 0.66845 0.87657 0.22647 0.0
C1222 C 0.66181 0.90795 0.09759 0.0
C1223 C 0.65556 0.88773 0.15585 0.0
C1224 C 0.65552 0.91368 0.06246 0.0
C1225 C 0.63706 0.90522 0.04731 0.0
C1226 C 0.64945 0.89375 0.11796 0.0
C1227 C 0.62522 0.89092 0.06819 0.0
C1228 C 0.64284 0.87436 0.17722 0.0
C1229 C 0.68055 0.89007 0.20449 0.0
N1230 N 0.63158 0.88566 0.10251 0.0
N1231 N 0.67393 0.8952 0.17035 0.0
H1232 H 0.60469 0.6297 0.5563 0.0
H1233 H 0.67949 0.60366 0.72774 0.0
H1234 H 0.6491 0.57765 0.55888 0.0
H1235 H 0.62887 0.64967 0.73178 0.0
H1236 H 0.66935 0.59475 0.66518 0.0
H1237 H 0.61435 0.63857 0.61934 0.0
C1238 C 0.61666 0.62032 0.57007 0.0
C1239 C 0.62627 0.60305 0.55236 0.0
C1240 C 0.66034 0.60671 0.67973 0.0
C1241 C 0.63723 0.61285 0.62456 0.0
C1242 C 0.6661 0.61175 0.71545 0.0
C1243 C 0.65494 0.62734 0.73495 0.0
C1244 C 0.64333 0.61746 0.66309 0.0
C1245 C 0.63776 0.63741 0.71777 0.0
C1246 C 0.62205 0.62525 0.60611 0.0
C1247 C 0.64141 0.59115 0.57157 0.0
N1248 N 0.63255 0.63239 0.68278 0.0
N1249 N 0.64644 0.59627 0.60653 0.0
H1250 H 0.67786 0.35207 0.82842 0.0
H1251 H 0.60476 0.42522 0.95536 0.0
H1252 H 0.64152 0.40485 0.7869 0.0
H1253 H 0.65686 0.38807 0.99713 0.0
H1254 H 0.61428 0.41426 0.89358 0.0
H1255 H 0.66661 0.36132 0.89018 0.0
C1256 C 0.66763 0.36571 0.83225 0.0
C1257 C 0.66102 0.37799 0.80236 0.0
C1258 C 0.62365 0.40851 0.91624 0.0
C1259 C 0.64749 0.38828 0.8732 0.0
C1260 C 0.61832 0.41488 0.95158 0.0
C1261 C 0.63033 0.40795 0.98156 0.0
C1262 C 0.6409 0.39474 0.91066 0.0
C1263 C 0.64717 0.39383 0.97491 0.0
C1264 C 0.66109 0.37089 0.86757 0.0
C1265 C 0.64702 0.39494 0.80905 0.0
N1266 N 0.65199 0.38774 0.94023 0.0
N1267 N 0.64077 0.39962 0.8437 0.0
H1268 H 0.84867 0.39909 0.04319 0.0
H1269 H 0.89151 0.36618 0.24023 0.0
H1270 H 0.91418 0.40606 0.07293 0.0
H1271 H 0.82714 0.38643 0.22141 0.0
H1272 H 0.90041 0.37641 0.17751 0.0
H1273 H 0.84047 0.38908 0.10643 0.0
C1274 C 0.86133 0.39827 0.06302 0.0
C1275 C 0.88209 0.40336 0.05302 0.0
C1276 C 0.88436 0.37868 0.18721 0.0
C1277 C 0.87296 0.39193 0.12518 0.0
C1278 C 0.87931 0.37301 0.22311 0.0
C1279 C 0.85852 0.37542 0.23617 0.0
C1280 C 0.86843 0.38648 0.16395 0.0
C1281 C 0.84329 0.384 0.21239 0.0
C1282 C 0.85666 0.39272 0.09909 0.0
C1283 C 0.89796 0.40222 0.07971 0.0
N1284 N 0.84847 0.389 0.17745 0.0
N1285 N 0.8931 0.39655 0.11452 0.0
H1286 H 0.8739 0.64558 0.30418 0.0
H1287 H 0.84423 0.58802 0.49132 0.0
H1288 H 0.81455 0.61356 0.32086 0.0
H1289 H 0.90864 0.59934 0.45856 0.0
H1290 H 0.83203 0.60123 0.43183 0.0
H1291 H 0.88623 0.63223 0.36322 0.0
C1292 C 0.86357 0.63552 0.32007 0.0
C1293 C 0.84325 0.63047 0.30743 0.0
C1294 C 0.84884 0.60084 0.43764 0.0
C1295 C 0.85698 0.61572 0.3755 0.0
C1296 C 0.85573 0.5934 0.47153 0.0
C1297 C 0.87739 0.59266 0.4795 0.0
C1298 C 0.86374 0.60781 0.41185 0.0
C1299 C 0.89179 0.59973 0.45318 0.0
C1300 C 0.87055 0.62804 0.35387 0.0
C1301 C 0.8303 0.61789 0.32966 0.0
N1302 N 0.88472 0.6071 0.42054 0.0
N1303 N 0.83733 0.61103 0.36266 0.0
H1304 H 0.37783 0.44411 0.46648 0.0
H1305 H 0.35972 0.34978 0.32509 0.0
H1306 H 0.39844 0.38004 0.48832 0.0
H1307 H 0.36264 0.41518 0.29183 0.0
H1308 H 0.37071 0.36017 0.3867 0.0
H1309 H 0.36885 0.43362 0.4042 0.0
C1310 C 0.3805 0.42783 0.4582 0.0
C1311 C 0.38887 0.41294 0.48285 0.0
C1312 C 0.36911 0.37225 0.36591 0.0
C1313 C 0.37824 0.40071 0.41152 0.0
C1314 C 0.36286 0.36632 0.33081 0.0
C1315 C 0.36038 0.38166 0.30347 0.0
C1316 C 0.37254 0.39376 0.37393 0.0
C1317 C 0.36451 0.40289 0.31219 0.0
C1318 C 0.37533 0.42185 0.42261 0.0
C1319 C 0.39164 0.39198 0.4706 0.0
N1320 N 0.37019 0.40836 0.34674 0.0
N1321 N 0.38626 0.38648 0.43593 0.0
H1322 H 0.40771 0.60014 0.07814 0.0
H1323 H 0.31285 0.61985 0.21726 0.0
H1324 H 0.34373 0.61084 0.04181 0.0
H1325 H 0.37635 0.64022 0.24147 0.0
H1326 H 0.32412 0.61125 0.15508 0.0
H1327 H 0.39693 0.60995 0.14033 0.0
C1328 C 0.39141 0.60467 0.08333 0.0
C1329 C 0.37655 0.60472 0.05493 0.0
C1330 C 0.33559 0.61756 0.17405 0.0
C1331 C 0.36403 0.61548 0.12596 0.0
C1332 C 0.32918 0.6225 0.20956 0.0
C1333 C 0.34361 0.63091 0.23474 0.0
C1334 C 0.35675 0.62057 0.16365 0.0
C1335 C 0.3647 0.63352 0.2233 0.0
C1336 C 0.38528 0.61026 0.11873 0.0
C1337 C 0.35564 0.61069 0.06298 0.0
N1338 N 0.37064 0.62831 0.1887 0.0
N1339 N 0.34993 0.6156 0.09781 0.0
H1340 H 0.15324 0.61958 1.00225 0.0
H1341 H 0.11734 0.64657 0.7988 0.0
H1342 H 0.09013 0.60642 0.9646 0.0
H1343 H 0.1814 0.62833 0.82524 0.0
H1344 H 0.10649 0.63706 0.86093 0.0
H1345 H 0.16344 0.62898 0.93955 0.0
C1346 C 0.1415 0.61889 0.98081 0.0
C1347 C 0.12086 0.61213 0.98853 0.0
C1348 C 0.12291 0.6351 0.85304 0.0
C1349 C 0.1323 0.62302 0.91686 0.0
C1350 C 0.1291 0.64034 0.81742 0.0
C1351 C 0.15036 0.63824 0.80652 0.0
C1352 C 0.13813 0.62811 0.87833 0.0
C1353 C 0.16491 0.63055 0.83242 0.0
C1354 C 0.14734 0.6241 0.94504 0.0
C1355 C 0.10625 0.61144 0.95971 0.0
N1356 N 0.15861 0.62599 0.86706 0.0
N1357 N 0.11219 0.61689 0.92524 0.0
H1358 H 0.15946 0.35328 0.72063 0.0
H1359 H 0.14632 0.45051 0.58414 0.0
H1360 H 0.15424 0.41772 0.75855 0.0
H1361 H 0.12002 0.38919 0.55959 0.0
H1362 H 0.15474 0.43802 0.64566 0.0
H1363 H 0.14992 0.36525 0.65895 0.0
C1364 C 0.1561 0.36992 0.71591 0.0
C1365 C 0.15746 0.38456 0.74457 0.0
C1366 C 0.14719 0.42729 0.62673 0.0
C1367 C 0.14719 0.39843 0.67418 0.0
C1368 C 0.14236 0.4344 0.5916 0.0
C1369 C 0.13234 0.42095 0.56654 0.0
C1370 C 0.1424 0.40638 0.63684 0.0
C1371 C 0.12803 0.40006 0.57764 0.0
C1372 C 0.15071 0.37674 0.68081 0.0
C1373 C 0.15318 0.40597 0.73715 0.0
N1374 N 0.13314 0.3934 0.61187 0.0
N1375 N 0.14846 0.41232 0.7026 0.0
H1376 H 0.12477 0.22297 0.39761 0.0
H1377 H 0.15401 0.34662 0.39259 0.0
H1378 H 0.18604 0.24473 0.36196 0.0
H1379 H 0.09031 0.32246 0.39902 0.0
H1380 H 0.16701 0.31014 0.38365 0.0
H1381 H 0.11297 0.25983 0.40247 0.0
C1382 C 0.13581 0.23547 0.39095 0.0
C1383 C 0.15645 0.23058 0.37932 0.0
C1384 C 0.15017 0.31294 0.38668 0.0
C1385 C 0.14294 0.27319 0.38485 0.0
C1386 C 0.14267 0.33387 0.39138 0.0
C1387 C 0.12092 0.33789 0.39639 0.0
C1388 C 0.13586 0.29588 0.38741 0.0
C1389 C 0.10721 0.32034 0.39555 0.0
C1390 C 0.12901 0.2566 0.39356 0.0
C1391 C 0.16996 0.24765 0.37098 0.0
N1392 N 0.11488 0.30029 0.39147 0.0
N1393 N 0.16301 0.26814 0.37401 0.0
H1394 H 0.94656 0.86053 0.57967 0.0
H1395 H 0.0177 0.96387 0.59114 0.0
H1396 H 0.92214 0.91455 0.63871 0.0
H1397 H 0.04054 0.89959 0.60269 0.0
H1398 H 0.98099 0.95033 0.59258 0.0
H1399 H 0.97929 0.87967 0.56862 0.0
C1400 C 0.94791 0.87664 0.5897 0.0
C1401 C 0.93163 0.88586 0.61043 0.0
C1402 C 0.99418 0.93934 0.59472 0.0
C1403 C 0.96933 0.90785 0.59808 0.0
C1404 C 0.01507 0.947 0.59375 0.0
C1405 C 0.03233 0.93285 0.59664 0.0
C1406 C 0.99073 0.91741 0.59758 0.0
C1407 C 0.02794 0.91116 0.60033 0.0
C1408 C 0.96664 0.88751 0.58347 0.0
C1409 C 0.93424 0.90689 0.62242 0.0
N1410 N 0.00771 0.90416 0.60036 0.0
N1411 N 0.95294 0.91716 0.61649 0.0
H1412 H 0.34318 0.67631 0.85747 0.0
H1413 H 0.37295 0.797 0.90491 0.0
H1414 H 0.40251 0.69691 0.90296 0.0
H1415 H 0.31686 0.78087 0.84404 0.0
H1416 H 0.38129 0.75947 0.91085 0.0
H1417 H 0.33052 0.71349 0.85875 0.0
C1418 C 0.35337 0.68855 0.86824 0.0
C1419 C 0.37395 0.68356 0.87997 0.0
C1420 C 0.3671 0.76405 0.89625 0.0
C1421 C 0.35974 0.72587 0.88138 0.0
C1422 C 0.3623 0.78559 0.89286 0.0
C1423 C 0.34425 0.79225 0.87368 0.0
C1424 C 0.35382 0.74881 0.88034 0.0
C1425 C 0.33103 0.77652 0.8589 0.0
C1426 C 0.34623 0.70975 0.86873 0.0
C1427 C 0.38661 0.70005 0.89329 0.0
N1428 N 0.33613 0.75554 0.86237 0.0
N1429 N 0.37935 0.72033 0.89355 0.0
H1430 H 0.48514 0.06029 0.10546 0.0
H1431 H 0.55886 0.16225 0.11689 0.0
H1432 H 0.46234 0.12354 0.12894 0.0
H1433 H 0.58384 0.09966 0.13875 0.0
H1434 H 0.52376 0.14723 0.10997 0.0
H1435 H 0.52166 0.07345 0.10836 0.0
C1436 C 0.48778 0.07691 0.11135 0.0
C1437 C 0.4706 0.09084 0.11704 0.0
C1438 C 0.53693 0.13671 0.11599 0.0
C1439 C 0.51225 0.10595 0.11968 0.0
C1440 C 0.55705 0.14526 0.11979 0.0
C1441 C 0.57447 0.13225 0.12843 0.0
C1442 C 0.53396 0.11488 0.12071 0.0
C1443 C 0.57105 0.1103 0.13153 0.0
C1444 C 0.50862 0.08436 0.11299 0.0
C1445 C 0.47501 0.11218 0.12455 0.0
N1446 N 0.55112 0.10229 0.12783 0.0
N1447 N 0.49534 0.11907 0.12537 0.0
H1448 H 0.15936 0.67867 0.18155 0.0
H1449 H 0.14074 0.7997 0.12055 0.0
H1450 H 0.10164 0.70393 0.13577 0.0
H1451 H 0.19481 0.7804 0.18461 0.0
H1452 H 0.12914 0.76304 0.11857 0.0
H1453 H 0.17543 0.71418 0.17599 0.0
C1454 C 0.15021 0.69156 0.16991 0.0
C1455 C 0.12912 0.68841 0.15929 0.0
C1456 C 0.1436 0.76673 0.13299 0.0
C1457 C 0.14722 0.72879 0.15288 0.0
C1458 C 0.15028 0.78775 0.13407 0.0
C1459 C 0.16871 0.79329 0.15305 0.0
C1460 C 0.15533 0.75091 0.15107 0.0
C1461 C 0.18043 0.77691 0.16982 0.0
C1462 C 0.1593 0.71181 0.16695 0.0
C1463 C 0.11787 0.70568 0.1447 0.0
N1464 N 0.17347 0.75647 0.16864 0.0
N1465 N 0.12702 0.72501 0.14199 0.0
H1466 H 0.49799 0.94139 0.41767 0.0
H1467 H 0.572 0.83848 0.40447 0.0
H1468 H 0.47535 0.87895 0.39021 0.0
H1469 H 0.59754 0.90138 0.39117 0.0
H1470 H 0.53664 0.8537 0.40826 0.0
H1471 H 0.5345 0.92772 0.41541 0.0
C1472 C 0.50064 0.92484 0.41099 0.0
C1473 C 0.48342 0.91132 0.40411 0.0
C1474 C 0.54998 0.86423 0.40475 0.0
C1475 C 0.52525 0.89554 0.40217 0.0
C1476 C 0.57031 0.85556 0.40272 0.0
C1477 C 0.58811 0.86855 0.39758 0.0
C1478 C 0.54707 0.88622 0.40189 0.0
C1479 C 0.5846 0.89061 0.39579 0.0
C1480 C 0.52151 0.91708 0.40973 0.0
C1481 C 0.48797 0.89004 0.39564 0.0
N1482 N 0.5645 0.89874 0.39788 0.0
N1483 N 0.50833 0.88282 0.39522 0.0
H1484 H 0.39646 0.31735 0.59518 0.0
H1485 H 0.31734 0.23839 0.69743 0.0
H1486 H 0.36114 0.33689 0.69012 0.0
H1487 H 0.36491 0.21931 0.61936 0.0
H1488 H 0.32888 0.27537 0.69069 0.0
H1489 H 0.38018 0.28266 0.59852 0.0
C1490 C 0.38509 0.31439 0.61668 0.0
C1491 C 0.38031 0.33009 0.64258 0.0
C1492 C 0.33669 0.26306 0.67499 0.0
C1493 C 0.36157 0.2899 0.64678 0.0
C1494 C 0.3301 0.24195 0.67872 0.0
C1495 C 0.34022 0.22562 0.65901 0.0
C1496 C 0.35333 0.26792 0.65107 0.0
C1497 C 0.35667 0.23124 0.63526 0.0
C1498 C 0.37581 0.29448 0.61859 0.0
C1499 C 0.36521 0.32534 0.66945 0.0
N1500 N 0.36265 0.25182 0.63199 0.0
N1501 N 0.35648 0.30556 0.67109 0.0
H1502 H 0.92156 0.09395 0.93778 0.0
H1503 H 0.04161 0.12388 0.88795 0.0
H1504 H 0.94258 0.15525 0.90076 0.0
H1505 H 0.02563 0.0655 0.94271 0.0
H1506 H 1.00424 0.13325 0.88587 0.0
H1507 H 0.95844 0.0809 0.93348 0.0
C1508 C 0.93382 0.10455 0.92836 0.0
C1509 C 0.92902 0.12574 0.91979 0.0
C1510 C 0.00883 0.11834 0.8983 0.0
C1511 C 0.97098 0.11106 0.91486 0.0
C1512 C 0.03025 0.11295 0.89945 0.0
C1513 C 0.0369 0.09394 0.91578 0.0
C1514 C 0.99372 0.10468 0.9136 0.0
C1515 C 0.02127 0.0804 0.93002 0.0
C1516 C 0.95485 0.09716 0.92613 0.0
C1517 C 0.94556 0.13887 0.90808 0.0
N1518 N 1.00041 0.08607 0.92876 0.0
N1519 N 0.96566 0.13135 0.906 0.0
H1520 H 0.82242 0.76612 0.67662 0.0
H1521 H 0.92202 0.68814 0.65479 0.0
H1522 H 0.88553 0.78677 0.64955 0.0
H1523 H 0.8579 0.6653 0.64713 0.0
H1524 H 0.9085 0.72407 0.66195 0.0
H1525 H 0.83469 0.72913 0.67344 0.0
C1526 C 0.83884 0.76293 0.66994 0.0
C1527 C 0.85295 0.77971 0.66327 0.0
C1528 C 0.89733 0.71122 0.65899 0.0
C1529 C 0.86711 0.73729 0.66014 0.0
C1530 C 0.90503 0.69058 0.65504 0.0
C1531 C 0.89115 0.67342 0.65038 0.0
C1532 C 0.87544 0.71507 0.65842 0.0
C1533 C 0.86928 0.6778 0.65122 0.0
C1534 C 0.8458 0.74177 0.66813 0.0
C1535 C 0.87403 0.77448 0.65476 0.0
N1536 N 0.8621 0.6982 0.65499 0.0
N1537 N 0.88044 0.75383 0.65366 0.0
H1538 H 0.9704 0.10936 0.46616 0.0
H1539 H 0.08777 0.09561 0.39687 0.0
H1540 H 0.99268 0.04761 0.43265 0.0
H1541 H 0.06709 0.14523 0.46966 0.0
H1542 H 0.05473 0.0763 0.40972 0.0
H1543 H 0.00663 0.122 0.46673 0.0
C1544 C 0.98303 0.09842 0.45897 0.0
C1545 C 0.97854 0.0775 0.44896 0.0
C1546 C 0.05774 0.09116 0.42351 0.0
C1547 C 0.0204 0.09195 0.44923 0.0
C1548 C 0.07666 0.10209 0.41643 0.0
C1549 C 0.08013 0.1221 0.43215 0.0
C1550 C 0.04227 0.10051 0.44609 0.0
C1551 C 0.06498 0.12997 0.45667 0.0
C1552 C 1.00379 0.1056 0.45953 0.0
C1553 C 0.99556 0.0639 0.44045 0.0
N1554 N 0.04669 0.11933 0.46247 0.0
N1555 N 0.01581 0.07146 0.44015 0.0
H1556 H 0.60449 0.31624 0.13491 0.0
H1557 H 0.69756 0.235 0.18502 0.0
H1558 H 0.66526 0.33749 0.17335 0.0
H1559 H 0.63841 0.21732 0.13497 0.0
H1560 H 0.68733 0.27246 0.17926 0.0
H1561 H 0.61788 0.28009 0.13281 0.0
C1562 C 0.62078 0.31329 0.14275 0.0
C1563 C 0.63375 0.32993 0.15445 0.0
C1564 C 0.6767 0.26037 0.1693 0.0
C1565 C 0.64928 0.28817 0.15246 0.0
C1566 C 0.6825 0.23895 0.17259 0.0
C1567 C 0.66877 0.22288 0.16065 0.0
C1568 C 0.65699 0.26578 0.1541 0.0
C1569 C 0.6495 0.22904 0.14471 0.0
C1570 C 0.62845 0.29257 0.14147 0.0
C1571 C 0.65477 0.32515 0.16393 0.0
N1572 N 0.64419 0.24991 0.14214 0.0
N1573 N 0.66185 0.30462 0.16311 0.0
H1574 H 0.4502 0.8578 0.87959 0.0
H1575 H 0.53104 0.94824 0.93948 0.0
H1576 H 0.42893 0.91583 0.93025 0.0
H1577 H 0.54798 0.89254 0.87724 0.0
H1578 H 0.49365 0.93815 0.93499 0.0
H1579 H 0.4859 0.87171 0.87682 0.0
C1580 C 0.45307 0.8736 0.89001 0.0
C1581 C 0.4366 0.88564 0.90536 0.0
C1582 C 0.50557 0.92827 0.92211 0.0
C1583 C 0.47781 0.90175 0.90263 0.0
C1584 C 0.52694 0.93398 0.92466 0.0
C1585 C 0.54279 0.92113 0.90893 0.0
C1586 C 0.50003 0.90955 0.9038 0.0
C1587 C 0.53645 0.90291 0.89001 0.0
C1588 C 0.47352 0.88158 0.88836 0.0
C1589 C 0.4412 0.9061 0.91807 0.0
N1590 N 0.51567 0.89765 0.8882 0.0
N1591 N 0.46149 0.91346 0.91681 0.0
H1592 H 0.84921 0.33486 0.89621 0.0
H1593 H 0.87465 0.21238 0.8895 0.0
H1594 H 0.90748 0.30914 0.8526 0.0
H1595 H 0.81084 0.23337 0.8666 0.0
H1596 H 0.88634 0.24914 0.88745 0.0
H1597 H 0.83378 0.29917 0.89372 0.0
C1598 C 0.85862 0.32199 0.88526 0.0
C1599 C 0.87977 0.32518 0.87459 0.0
C1600 C 0.86976 0.24571 0.88296 0.0
C1601 C 0.86246 0.28427 0.87327 0.0
C1602 C 0.86302 0.22473 0.88441 0.0
C1603 C 0.84172 0.21973 0.87815 0.0
C1604 C 0.8551 0.26201 0.87584 0.0
C1605 C 0.82743 0.23652 0.87146 0.0
C1606 C 0.84983 0.30156 0.88424 0.0
C1607 C 0.89123 0.30755 0.86157 0.0
N1608 N 0.83435 0.25699 0.87067 0.0
N1609 N 0.88257 0.28793 0.8618 0.0
H1610 H 0.42285 0.10027 0.64213 0.0
H1611 H 0.54417 0.13005 0.63455 0.0
H1612 H 0.44609 0.15906 0.59751 0.0
H1613 H 0.52621 0.06499 0.61592 0.0
H1614 H 0.50695 0.14042 0.63192 0.0
H1615 H 0.45924 0.08597 0.64037 0.0
C1616 C 0.43534 0.11 0.6311 0.0
C1617 C 0.43125 0.13099 0.62 0.0
C1618 C 0.51113 0.12385 0.62849 0.0
C1619 C 0.47292 0.11501 0.61944 0.0
C1620 C 0.5324 0.11787 0.63027 0.0
C1621 C 0.53842 0.0966 0.62539 0.0
C1622 C 0.49553 0.10847 0.62239 0.0
C1623 C 0.5223 0.08159 0.6197 0.0
C1624 C 0.45616 0.10188 0.63049 0.0
C1625 C 0.44838 0.14291 0.6068 0.0
N1626 N 0.50154 0.08778 0.61855 0.0
N1627 N 0.46836 0.13491 0.60742 0.0
H1628 H 0.66919 0.78712 0.40997 0.0
H1629 H 0.65999 0.66975 0.32964 0.0
H1630 H 0.7035 0.76797 0.31369 0.0
H1631 H 0.6318 0.69154 0.42979 0.0
H1632 H 0.67943 0.70358 0.3252 0.0
H1633 H 0.65845 0.75071 0.41942 0.0
C1634 C 0.67456 0.77518 0.39079 0.0
C1635 C 0.68713 0.78071 0.3608 0.0
C1636 C 0.6693 0.70075 0.34847 0.0
C1637 C 0.67459 0.73849 0.37132 0.0
C1638 C 0.65838 0.68141 0.35113 0.0
C1639 C 0.64431 0.67797 0.38011 0.0
C1640 C 0.66598 0.71657 0.37499 0.0
C1641 C 0.64246 0.69364 0.40696 0.0
C1642 C 0.66845 0.75426 0.39627 0.0
C1643 C 0.6938 0.7644 0.33719 0.0
N1644 N 0.65298 0.71222 0.4036 0.0
N1645 N 0.68721 0.74402 0.34267 0.0
H1646 H 0.96644 0.88538 0.14465 0.0
H1647 H 0.08684 0.91852 0.10302 0.0
H1648 H 0.98342 0.94664 0.10128 0.0
H1649 H 0.06659 0.8553 0.13075 0.0
H1650 H 0.04984 0.93074 0.10853 0.0
H1651 H 1.00392 0.87567 0.14618 0.0
C1652 C 0.97803 0.89685 0.13564 0.0
C1653 C 0.97166 0.9168 0.1226 0.0
C1654 C 0.0536 0.91423 0.11359 0.0
C1655 C 0.0148 0.90575 0.12417 0.0
C1656 C 0.07473 0.9073 0.11068 0.0
C1657 C 0.07984 0.88585 0.11634 0.0
C1658 C 0.03761 0.89961 0.1225 0.0
C1659 C 0.0634 0.87194 0.12571 0.0
C1660 C 0.99947 0.89128 0.13644 0.0
C1661 C 0.98752 0.93101 0.11136 0.0
N1662 N 0.04315 0.87903 0.12846 0.0
N1663 N 0.00832 0.92519 0.11227 0.0
H1664 H 0.69771 0.73331 0.84023 0.0
H1665 H 0.61109 0.81832 0.90577 0.0
H1666 H 0.64176 0.7187 0.90281 0.0
H1667 H 0.66647 0.83655 0.84499 0.0
H1668 H 0.62439 0.78213 0.9087 0.0
H1669 H 0.68869 0.77119 0.84461 0.0
C1670 C 0.68362 0.73802 0.85506 0.0
C1671 C 0.67039 0.72269 0.87096 0.0
C1672 C 0.63383 0.79394 0.89487 0.0
C1673 C 0.66006 0.76602 0.8761 0.0
C1674 C 0.62622 0.81466 0.89324 0.0
C1675 C 0.63764 0.83039 0.87491 0.0
C1676 C 0.65298 0.78862 0.87761 0.0
C1677 C 0.65723 0.82484 0.85945 0.0
C1678 C 0.6785 0.75966 0.85754 0.0
C1679 C 0.65239 0.72981 0.88988 0.0
N1680 N 0.66421 0.80428 0.86076 0.0
N1681 N 0.64776 0.75084 0.89176 0.0
H1682 H 0.45017 0.35372 0.09416 0.0
H1683 H 0.52804 0.45179 0.11001 0.0
H1684 H 0.42768 0.41206 0.14246 0.0
H1685 H 0.54706 0.38641 0.12414 0.0
H1686 H 0.49073 0.44042 0.10874 0.0
H1687 H 0.48533 0.36895 0.08891 0.0
C1688 C 0.45251 0.36992 0.10305 0.0
C1689 C 0.4359 0.38156 0.11896 0.0
C1690 C 0.50317 0.42869 0.11222 0.0
C1691 C 0.47637 0.39906 0.1132 0.0
C1692 C 0.52439 0.43511 0.11295 0.0
C1693 C 0.5407 0.42002 0.11735 0.0
C1694 C 0.49838 0.40704 0.11491 0.0
C1695 C 0.53508 0.39863 0.12095 0.0
C1696 C 0.47264 0.37854 0.10021 0.0
C1697 C 0.43991 0.40257 0.12967 0.0
N1698 N 0.51446 0.39279 0.11931 0.0
N1699 N 0.45987 0.41065 0.12689 0.0
H1700 H 0.86718 0.16678 0.36379 0.0
H1701 H 0.88332 0.2899 0.4131 0.0
H1702 H 0.91618 0.19073 0.43434 0.0
H1703 H 0.82939 0.26734 0.3526 0.0
H1704 H 0.89543 0.25328 0.42033 0.0
H1705 H 0.85269 0.20292 0.35892 0.0
C1706 C 0.87474 0.17941 0.37872 0.0
C1707 C 0.89293 0.17543 0.39976 0.0
C1708 C 0.88089 0.25628 0.40555 0.0
C1709 C 0.87665 0.21706 0.39356 0.0
C1710 C 0.87396 0.27727 0.40142 0.0
C1711 C 0.85528 0.28186 0.38222 0.0
C1712 C 0.8692 0.23956 0.39023 0.0
C1713 C 0.84389 0.26466 0.36767 0.0
C1714 C 0.86654 0.20015 0.37564 0.0
C1715 C 0.90225 0.19282 0.41756 0.0
N1716 N 0.85105 0.24434 0.37184 0.0
N1717 N 0.89409 0.21269 0.41399 0.0
H1718 H 0.96826 0.60942 0.62299 0.0
H1719 H 0.08961 0.5939 0.63663 0.0
H1720 H 0.99151 0.54871 0.58508 0.0
H1721 H 0.06104 0.64995 0.58989 0.0
H1722 H 0.05612 0.57475 0.6264 0.0
H1723 H 1.00411 0.62268 0.62323 0.0
C1724 C 0.98086 0.59875 0.61474 0.0
C1725 C 0.97664 0.5779 0.60357 0.0
C1726 C 0.05753 0.59108 0.61763 0.0
C1727 C 0.01822 0.59322 0.60434 0.0
C1728 C 0.07664 0.60199 0.62322 0.0
C1729 C 0.0781 0.62365 0.61434 0.0
C1730 C 0.0399 0.60211 0.60375 0.0
C1731 C 0.06058 0.63339 0.59769 0.0
C1732 C 1.0014 0.60645 0.6148 0.0
C1733 C 0.99398 0.56494 0.59361 0.0
N1734 N 0.04219 0.62271 0.59359 0.0
N1735 N 0.01415 0.57278 0.59442 0.0
H1736 H 0.64701 0.29688 0.6252 0.0
H1737 H 0.66484 0.17572 0.68541 0.0
H1738 H 0.7001 0.27736 0.69147 0.0
H1739 H 0.60826 0.20093 0.6355 0.0
H1740 H 0.68092 0.21126 0.68138 0.0
H1741 H 0.63565 0.26022 0.62178 0.0
C1742 C 0.65638 0.28488 0.63894 0.0
C1743 C 0.67444 0.29034 0.65897 0.0
C1744 C 0.66505 0.20887 0.67111 0.0
C1745 C 0.66133 0.24797 0.65534 0.0
C1746 C 0.65595 0.18861 0.6732 0.0
C1747 C 0.63517 0.18543 0.66093 0.0
C1748 C 0.65328 0.22584 0.6563 0.0
C1749 C 0.62423 0.2027 0.6457 0.0
C1750 C 0.64984 0.26385 0.63701 0.0
C1751 C 0.68599 0.27391 0.67588 0.0
N1752 N 0.63338 0.22205 0.64388 0.0
N1753 N 0.67916 0.25346 0.67392 0.0
H1754 H 0.06835 0.35666 0.89277 0.0
H1755 H 0.98425 0.44724 0.94333 0.0
H1756 H 0.08742 0.41629 0.93949 0.0
H1757 H 0.96945 0.3894 0.88602 0.0
H1758 H 0.02197 0.43766 0.94064 0.0
H1759 H 0.03225 0.36979 0.88826 0.0
C1760 C 0.06491 0.37265 0.90196 0.0
C1761 C 0.08091 0.38536 0.91673 0.0
C1762 C 0.01045 0.42718 0.92845 0.0
C1763 C 0.03919 0.4006 0.91197 0.0
C1764 C 0.98889 0.43261 0.92997 0.0
C1765 C 0.97353 0.41903 0.91511 0.0
C1766 C 0.0167 0.40801 0.91203 0.0
C1767 C 0.98057 0.40034 0.89809 0.0
C1768 C 0.04423 0.38018 0.89931 0.0
C1769 C 0.07556 0.40602 0.92781 0.0
N1770 N 1.00153 0.39538 0.89723 0.0
N1771 N 0.05504 0.41296 0.92558 0.0
H1772 H 0.87601 0.81981 0.10126 0.0
H1773 H 0.80594 0.74161 0.2238 0.0
H1774 H 0.85231 0.83889 0.20635 0.0
H1775 H 0.84178 0.72372 0.12844 0.0
H1776 H 0.81697 0.77872 0.21453 0.0
H1777 H 0.85708 0.78649 0.1067 0.0
C1778 C 0.86649 0.81705 0.12535 0.0
C1779 C 0.86579 0.83205 0.15345 0.0
C1780 C 0.82222 0.76664 0.19556 0.0
C1781 C 0.84434 0.79344 0.16049 0.0
C1782 C 0.81586 0.74549 0.20071 0.0
C1783 C 0.82303 0.72946 0.17697 0.0
C1784 C 0.83562 0.77173 0.16623 0.0
C1785 C 0.836 0.73541 0.14769 0.0
C1786 C 0.85574 0.79794 0.12858 0.0
C1787 C 0.85315 0.82771 0.18402 0.0
N1788 N 0.84184 0.75591 0.14328 0.0
N1789 N 0.8431 0.80862 0.18701 0.0
H1790 H 0.54102 0.63148 0.39674 0.0
H1791 H 0.41859 0.60052 0.40047 0.0
H1792 H 0.52108 0.56797 0.42351 0.0
H1793 H 0.44197 0.66422 0.41407 0.0
H1794 H 0.45521 0.58718 0.40507 0.0
H1795 H 0.50398 0.64279 0.39641 0.0
C1796 C 0.52887 0.61986 0.40225 0.0
C1797 C 0.53426 0.59875 0.41019 0.0
C1798 C 0.45218 0.60405 0.40747 0.0
C1799 C 0.49162 0.61165 0.41001 0.0
C1800 C 0.43123 0.61166 0.40529 0.0
C1801 C 0.42708 0.63356 0.40694 0.0
C1802 C 0.469 0.61849 0.41078 0.0
C1803 C 0.44433 0.64722 0.41228 0.0
C1804 C 0.50769 0.62636 0.40234 0.0
C1805 C 0.5177 0.58443 0.41731 0.0
N1806 N 0.46441 0.63952 0.41362 0.0
N1807 N 0.49713 0.59112 0.41696 0.0
H1808 H 0.34565 0.17144 0.15098 0.0
H1809 H 0.37796 0.29329 0.14961 0.0
H1810 H 0.40969 0.19421 0.16046 0.0
H1811 H 0.31568 0.27493 0.18588 0.0
H1812 H 0.38824 0.25611 0.14713 0.0
H1813 H 0.33271 0.20811 0.16022 0.0
C1814 C 0.35695 0.18395 0.15589 0.0
C1815 C 0.37883 0.17968 0.15483 0.0
C1816 C 0.37231 0.26014 0.15573 0.0
C1817 C 0.36419 0.22156 0.16414 0.0
C1818 C 0.36637 0.28146 0.15696 0.0
C1819 C 0.34592 0.2874 0.16813 0.0
C1820 C 0.3577 0.24435 0.16525 0.0
C1821 C 0.33165 0.27112 0.17724 0.0
C1822 C 0.34956 0.20489 0.16078 0.0
C1823 C 0.39271 0.19669 0.16061 0.0
N1824 N 0.33776 0.25031 0.17545 0.0
N1825 N 0.38521 0.21675 0.16457 0.0
H1826 H 0.58351 0.60105 0.8977 0.0
H1827 H 0.46114 0.62941 0.90696 0.0
H1828 H 0.55916 0.66264 0.92848 0.0
H1829 H 0.48253 0.56549 0.92878 0.0
H1830 H 0.49785 0.64109 0.90656 0.0
H1831 H 0.54758 0.58666 0.90354 0.0
C1832 C 0.57086 0.61145 0.90657 0.0
C1833 C 0.5745 0.63315 0.91269 0.0
C1834 C 0.49454 0.6245 0.91146 0.0
C1835 C 0.53332 0.61693 0.9179 0.0
C1836 C 0.47355 0.61778 0.91141 0.0
C1837 C 0.46869 0.59643 0.91794 0.0
C1838 C 0.51095 0.60978 0.91753 0.0
C1839 C 0.48556 0.58212 0.92373 0.0
C1840 C 0.55029 0.60325 0.9095 0.0
C1841 C 0.55718 0.64588 0.92312 0.0
N1842 N 0.50598 0.58903 0.9232 0.0
N1843 N 0.53742 0.63767 0.92494 0.0
H1844 H 0.14177 0.8447 0.6767 0.0
H1845 H 0.13069 0.72183 0.6228 0.0
H1846 H 0.10291 0.82139 0.58884 0.0
H1847 H 0.18059 0.7444 0.69276 0.0
H1848 H 0.1192 0.75849 0.61318 0.0
H1849 H 0.15557 0.80855 0.68553 0.0
C1850 C 0.13633 0.83225 0.65887 0.0
C1851 C 0.12114 0.83644 0.63176 0.0
C1852 C 0.13272 0.75547 0.63059 0.0
C1853 C 0.13651 0.79473 0.64251 0.0
C1854 C 0.13927 0.73446 0.63613 0.0
C1855 C 0.15669 0.72988 0.65856 0.0
C1856 C 0.14346 0.7722 0.64783 0.0
C1857 C 0.16712 0.74709 0.67512 0.0
C1858 C 0.14411 0.81149 0.66418 0.0
C1859 C 0.11444 0.81919 0.61031 0.0
N1860 N 0.16031 0.76742 0.66956 0.0
N1861 N 0.12203 0.79929 0.61624 0.0
H1862 H 0.94989 0.35992 0.45285 0.0
H1863 H 0.02014 0.46428 0.45196 0.0
H1864 H 0.92391 0.41684 0.40496 0.0
H1865 H 0.04318 0.40072 0.43176 0.0
H1866 H 0.98352 0.45049 0.45104 0.0
H1867 H 0.98273 0.37861 0.46493 0.0
C1868 C 0.95095 0.37653 0.44551 0.0
C1869 C 0.93419 0.38677 0.42757 0.0
C1870 C 0.99673 0.43973 0.44685 0.0
C1871 C 0.97202 0.40825 0.441 0.0
C1872 C 0.01757 0.44752 0.44744 0.0
C1873 C 0.03484 0.43365 0.44186 0.0
C1874 C 0.99336 0.41792 0.44165 0.0
C1875 C 0.03054 0.41209 0.4361 0.0
C1876 C 0.96974 0.38715 0.45231 0.0
C1877 C 0.93641 0.40839 0.41902 0.0
N1878 N 0.01036 0.40495 0.43642 0.0
N1879 N 0.95519 0.41843 0.42536 0.0
H1880 H 0.36028 0.71611 0.4168 0.0
H1881 H 0.36016 0.83514 0.34179 0.0
H1882 H 0.31359 0.73814 0.33955 0.0
H1883 H 0.39678 0.81282 0.43331 0.0
H1884 H 0.34161 0.8008 0.34064 0.0
H1885 H 0.3731 0.75222 0.42294 0.0
C1886 C 0.35263 0.72857 0.40122 0.0
C1887 C 0.33587 0.724 0.37754 0.0
C1888 C 0.35354 0.80361 0.36121 0.0
C1889 C 0.35067 0.7657 0.38421 0.0
C1890 C 0.36399 0.82325 0.36202 0.0
C1891 C 0.38015 0.82679 0.38749 0.0
C1892 C 0.3594 0.78757 0.386 0.0
C1893 C 0.38467 0.8107 0.41279 0.0
C1894 C 0.35994 0.74928 0.40478 0.0
C1895 C 0.32657 0.74093 0.35815 0.0
N1896 N 0.37453 0.79186 0.41121 0.0
N1897 N 0.33422 0.76101 0.36165 0.0
H1898 H 0.01593 0.57896 0.09513 0.0
H1899 H 0.93698 0.66418 0.1848 0.0
H1900 H 0.03528 0.63099 0.16359 0.0
H1901 H 0.91594 0.61952 0.1036 0.0
H1902 H 0.97245 0.64969 0.18022 0.0
H1903 H 0.97902 0.5911 0.10066 0.0
C1904 C 0.01247 0.59287 0.11144 0.0
C1905 C 0.02889 0.60398 0.12889 0.0
C1906 C 0.96014 0.64292 0.16341 0.0
C1907 C 0.98656 0.61789 0.13534 0.0
C1908 C 0.93972 0.65124 0.16593 0.0
C1909 C 0.92314 0.64314 0.14459 0.0
C1910 C 0.96444 0.62624 0.13923 0.0
C1911 C 0.92795 0.62615 0.12106 0.0
C1912 C 0.99137 0.5998 0.11448 0.0
C1913 C 0.02332 0.6219 0.14955 0.0
N1914 N 0.94817 0.61831 0.11892 0.0
N1915 N 1.00274 0.62823 0.15217 0.0
H1916 H 0.19739 0.27794 0.85448 0.0
H1917 H 0.10278 0.19949 0.90456 0.0
H1918 H 0.14015 0.29662 0.91062 0.0
H1919 H 0.16227 0.1764 0.86206 0.0
H1920 H 0.11728 0.23499 0.90777 0.0
H1921 H 0.186 0.24081 0.85768 0.0
C1922 C 0.18251 0.27428 0.86769 0.0
C1923 C 0.16966 0.29056 0.88215 0.0
C1924 C 0.12733 0.22225 0.89794 0.0
C1925 C 0.15656 0.24804 0.88576 0.0
C1926 C 0.11902 0.20189 0.89602 0.0
C1927 C 0.1313 0.1849 0.88293 0.0
C1928 C 0.14814 0.22597 0.88624 0.0
C1929 C 0.1523 0.189 0.87258 0.0
C1930 C 0.17605 0.25305 0.86951 0.0
C1931 C 0.15059 0.28475 0.89896 0.0
N1932 N 0.16002 0.2092 0.8741 0.0
N1933 N 0.14462 0.26409 0.90009 0.0
H1934 H 0.59386 0.41784 0.61763 0.0
H1935 H 0.47175 0.38936 0.65402 0.0
H1936 H 0.57075 0.35534 0.64325 0.0
H1937 H 0.49172 0.44993 0.61165 0.0
H1938 H 0.5088 0.37836 0.65788 0.0
H1939 H 0.55737 0.4316 0.62268 0.0
C1940 C 0.58122 0.4071 0.62481 0.0
C1941 C 0.58537 0.38541 0.62994 0.0
C1942 C 0.50511 0.39411 0.64791 0.0
C1943 C 0.54372 0.40092 0.63556 0.0
C1944 C 0.4839 0.40043 0.6458 0.0
C1945 C 0.4785 0.42056 0.63224 0.0
C1946 C 0.52117 0.40798 0.63643 0.0
C1947 C 0.49507 0.4342 0.62208 0.0
C1948 C 0.56039 0.41491 0.62745 0.0
C1949 C 0.5683 0.37214 0.63867 0.0
N1950 N 0.51562 0.42764 0.6242 0.0
N1951 N 0.54834 0.38007 0.64115 0.0
H1952 H 0.2525 0.23103 0.36339 0.0
H1953 H 0.2465 0.30033 0.18197 0.0
H1954 H 0.22912 0.20756 0.26055 0.0
H1955 H 0.27169 0.32333 0.28383 0.0
H1956 H 0.23682 0.26734 0.212 0.0
H1957 H 0.25922 0.26523 0.33492 0.0
C1958 C 0.24914 0.23293 0.33466 0.0
C1959 C 0.24001 0.21651 0.31441 0.0
C1960 C 0.24425 0.27971 0.22787 0.0
C1961 C 0.24717 0.2557 0.28195 0.0
C1962 C 0.24953 0.29867 0.21085 0.0
C1963 C 0.26038 0.31438 0.23025 0.0
C1964 C 0.24983 0.27655 0.26445 0.0
C1965 C 0.26369 0.31146 0.26769 0.0
C1966 C 0.25274 0.25255 0.31854 0.0
C1967 C 0.23604 0.21985 0.27726 0.0
N1968 N 0.25875 0.2927 0.28347 0.0
N1969 N 0.23947 0.23917 0.26229 0.0
H1970 H 0.05988 0.01782 0.47222 0.0
H1971 H 0.94785 0.99492 0.56614 0.0
H1972 H 0.05293 0.99785 0.58373 0.0
H1973 H 0.95472 0.01331 0.45382 0.0
H1974 H 0.98634 0.99581 0.5731 0.0
H1975 H 0.0214 0.0166 0.4649 0.0
C1976 C 0.05019 0.01289 0.49502 0.0
C1977 C 0.05948 0.00729 0.52832 0.0
C1978 C 0.97948 0.99991 0.54701 0.0
C1979 C 0.01555 1.00616 0.52043 0.0
C1980 C 0.95754 0.99943 0.54306 0.0
C1981 C 0.94821 1.00474 0.50966 0.0
C1982 C 0.99217 1.00556 0.51719 0.0
C1983 C 0.96136 0.01002 0.4804 0.0
C1984 C 0.02826 0.01222 0.49087 0.0
C1985 C 0.04634 1.00142 0.55723 0.0
N1986 N 0.98272 0.01037 0.48484 0.0
N1987 N 0.02499 1.00102 0.55264 0.0
H1988 H 0.27639 0.82413 0.74954 0.0
H1989 H 0.23218 0.7071 0.77934 0.0
H1990 H 0.25015 0.80155 0.85097 0.0
H1991 H 0.25288 0.731 0.67504 0.0
H1992 H 0.2409 0.7411 0.80678 0.0
H1993 H 0.26753 0.79034 0.72127 0.0
C1994 C 0.26836 0.81225 0.76568 0.0
C1995 C 0.26429 0.81553 0.80283 0.0
C1996 C 0.24367 0.73886 0.77793 0.0
C1997 C 0.25461 0.77674 0.7709 0.0
C1998 C 0.23893 0.71936 0.76232 0.0
C1999 C 0.24151 0.71633 0.72474 0.0
C2000 C 0.25106 0.75539 0.7558 0.0
C2001 C 0.25045 0.73272 0.70407 0.0
C2002 C 0.26352 0.79288 0.74961 0.0
C2003 C 0.25377 0.79963 0.82235 0.0
N2004 N 0.25469 0.75167 0.71984 0.0
N2005 N 0.24955 0.78079 0.80625 0.0
H2006 H 0.54539 0.0129 0.93315 0.0
H2007 H 0.47295 0.99609 0.10893 0.0
H2008 H 0.56807 0.98386 0.03236 0.0
H2009 H 0.4494 0.01825 1.00523 0.0
H2010 H 0.50791 0.99131 0.08173 0.0
H2011 H 0.51061 0.01716 0.96098 0.0
C2012 C 0.54319 0.00778 0.96104 0.0
C2013 C 0.55962 0.99777 0.98028 0.0
C2014 C 0.49503 0.99702 0.06486 0.0
C2015 C 0.5197 1.0022 1.01203 0.0
C2016 C 0.475 0.99954 0.08026 0.0
C2017 C 0.45827 0.00786 0.05946 0.0
C2018 C 0.49833 1.00289 0.02845 0.0
C2019 C 0.46186 0.01197 0.02241 0.0
C2020 C 0.52323 0.00999 0.97677 0.0
C2021 C 0.55583 0.99154 1.0164 0.0
N2022 N 0.48157 0.0097 1.00821 0.0
N2023 N 0.53618 0.99367 0.03101 0.0
H2024 H 0.26101 0.69667 0.261 0.0
H2025 H 0.23466 0.82038 0.27775 0.0
H2026 H 0.24511 0.72741 0.36262 0.0
H2027 H 0.25719 0.79016 0.17938 0.0
H2028 H 0.23763 0.78646 0.3094 0.0
H2029 H 0.25634 0.73044 0.2297 0.0
C2030 C 0.25611 0.71041 0.27665 0.0
C2031 C 0.25381 0.70928 0.31461 0.0
C2032 C 0.24208 0.78731 0.28097 0.0
C2033 C 0.2489 0.74806 0.27904 0.0
C2034 C 0.24062 0.80672 0.26296 0.0
C2035 C 0.24549 0.80807 0.22574 0.0
C2036 C 0.2484 0.76916 0.26156 0.0
C2037 C 0.25314 0.78985 0.20802 0.0
C2038 C 0.2537 0.72976 0.25881 0.0
C2039 C 0.24728 0.72758 0.33339 0.0
N2040 N 0.25414 0.77109 0.22601 0.0
N2041 N 0.24532 0.74631 0.31546 0.0
H2042 H 0.48443 1.00624 0.41646 0.0
H2043 H 0.5432 1.00286 0.60845 0.0
H2044 H 0.45356 0.99142 0.51828 0.0
H2045 H 0.57306 0.02404 0.5091 0.0
H2046 H 0.51081 0.99623 0.57455 0.0
H2047 H 0.51699 0.01348 0.44969 0.0
C2048 C 0.48434 1.00498 0.44587 0.0
C2049 C 0.46639 0.99782 0.46459 0.0
C2050 C 0.52451 1.00218 0.56012 0.0
C2051 C 0.50364 1.00552 0.50253 0.0
C2052 C 0.54311 1.00569 0.57936 0.0
C2053 C 0.56073 0.01435 0.56167 0.0
C2054 C 0.5236 0.0073 0.52296 0.0
C2055 C 0.55973 0.01759 0.5239 0.0
C2056 C 0.50301 0.00886 0.46477 0.0
C2057 C 0.46714 0.99659 0.5027 0.0
N2058 N 0.54135 0.0143 0.50583 0.0
N2059 N 0.4856 1.00009 0.52039 0.0
H2060 H 0.2464 0.22372 0.67696 0.0
H2061 H 0.26204 0.29063 0.85943 0.0
H2062 H 0.27042 0.19731 0.77741 0.0
H2063 H 0.2357 0.31673 0.76046 0.0
H2064 H 0.26637 0.25657 0.82892 0.0
H2065 H 0.24101 0.2576 0.70768 0.0
C2066 C 0.25012 0.2249 0.70567 0.0
C2067 C 0.2592 0.20775 0.72449 0.0
C2068 C 0.25978 0.26979 0.8138 0.0
C2069 C 0.25354 0.24659 0.75951 0.0
C2070 C 0.25754 0.28933 0.83107 0.0
C2071 C 0.24826 0.3065 0.8126 0.0
C2072 C 0.25273 0.26743 0.77781 0.0
C2073 C 0.2428 0.30388 0.77584 0.0
C2074 C 0.24727 0.24433 0.72308 0.0
C2075 C 0.26359 0.21017 0.76171 0.0
N2076 N 0.24492 0.28462 0.75974 0.0
N2077 N 0.26098 0.22935 0.77789 0.0
H2078 H 0.04093 0.99993 0.93125 0.0
H2079 H 0.9712 0.01082 0.11189 0.0
H2080 H 0.06434 0.02663 0.03166 0.0
H2081 H 0.9471 0.98776 1.00932 0.0
H2082 H 1.00531 0.01727 0.08292 0.0
H2083 H 0.00696 0.99362 0.96064 0.0
C2084 C 0.03908 1.0041 0.95969 0.0
C2085 C 0.05544 0.01405 0.97889 0.0
C2086 C 0.9925 0.01098 0.06668 0.0
C2087 C 0.01643 0.00728 1.01245 0.0
C2088 C 0.97293 0.0075 0.08311 0.0
C2089 C 0.95633 0.9985 0.06311 0.0
C2090 C 0.99546 1.00539 0.03003 0.0
C2091 C 0.95949 0.99458 0.02588 0.0
C2092 C 0.01958 1.00071 0.97634 0.0
C2093 C 0.05213 0.01903 1.01573 0.0
N2094 N 0.97877 0.99783 1.01064 0.0
N2095 N 0.0329 0.01579 0.03122 0.0
H2096 H 0.76469 0.71131 0.85991 0.0
H2097 H 0.75836 0.77771 0.67518 0.0
H2098 H 0.74198 0.68575 0.75812 0.0
H2099 H 0.77986 0.80355 0.77755 0.0
H2100 H 0.75225 0.74381 0.70513 0.0
H2101 H 0.77296 0.74442 0.82898 0.0
C2102 C 0.76188 0.71246 0.83089 0.0
C2103 C 0.75222 0.69589 0.81172 0.0
C2104 C 0.75817 0.75694 0.72109 0.0
C2105 C 0.76119 0.73388 0.77641 0.0
C2106 C 0.76143 0.77639 0.70411 0.0
C2107 C 0.76985 0.79342 0.72381 0.0
C2108 C 0.76336 0.75455 0.75801 0.0
C2109 C 0.77347 0.7908 0.76124 0.0
C2110 C 0.76638 0.73148 0.81334 0.0
C2111 C 0.74913 0.69824 0.77409 0.0
N2112 N 0.7704 0.77163 0.77706 0.0
N2113 N 0.75331 0.71704 0.75776 0.0
H2114 H 0.74613 0.18573 0.27686 0.0
H2115 H 0.77805 0.30768 0.26184 0.0
H2116 H 0.76058 0.21714 0.17536 0.0
H2117 H 0.76402 0.27609 0.36337 0.0
H2118 H 0.77134 0.27465 0.22953 0.0
H2119 H 0.75506 0.21811 0.30945 0.0
C2120 C 0.75165 0.19928 0.26147 0.0
C2121 C 0.75221 0.19889 0.22329 0.0
C2122 C 0.7696 0.27499 0.25886 0.0
C2123 C 0.76193 0.23607 0.26031 0.0
C2124 C 0.77317 0.2939 0.27729 0.0
C2125 C 0.77183 0.29456 0.31541 0.0
C2126 C 0.76463 0.25665 0.27871 0.0
C2127 C 0.76537 0.27627 0.33399 0.0
C2128 C 0.75651 0.21784 0.28008 0.0
C2129 C 0.75967 0.21681 0.20479 0.0
N2130 N 0.76221 0.25797 0.31545 0.0
N2131 N 0.76393 0.23483 0.22348 0.0
H2132 H 0.76697 0.2896 0.68117 0.0
H2133 H 0.74636 0.21846 0.8575 0.0
H2134 H 0.73917 0.31348 0.78068 0.0
H2135 H 0.776 0.19486 0.75936 0.0
H2136 H 0.74183 0.25292 0.82841 0.0
H2137 H 0.77092 0.25487 0.70962 0.0
C2138 C 0.76206 0.28767 0.70923 0.0
C2139 C 0.75251 0.30443 0.72843 0.0
C2140 C 0.74916 0.24015 0.81313 0.0
C2141 C 0.75656 0.2646 0.76085 0.0
C2142 C 0.75154 0.22038 0.82958 0.0
C2143 C 0.76184 0.20382 0.81102 0.0
C2144 C 0.75712 0.24337 0.77788 0.0
C2145 C 0.76812 0.20722 0.77482 0.0
C2146 C 0.76412 0.26776 0.72533 0.0
C2147 C 0.74651 0.30099 0.76476 0.0
N2148 N 0.76588 0.22671 0.75957 0.0
N2149 N 0.74843 0.28138 0.77966 0.0
H2150 H 0.74866 0.80358 0.33759 0.0
H2151 H 0.76169 0.70542 0.20032 0.0
H2152 H 0.7655 0.81031 0.22452 0.0
H2153 H 0.74613 0.69865 0.31392 0.0
H2154 H 0.76301 0.744 0.20836 0.0
H2155 H 0.7469 0.76504 0.32932 0.0
C2156 C 0.75148 0.79689 0.31085 0.0
C2157 C 0.75655 0.80999 0.28143 0.0
C2158 C 0.75948 0.73409 0.23164 0.0
C2159 C 0.75543 0.76612 0.27191 0.0
C2160 C 0.75904 0.71212 0.22711 0.0
C2161 C 0.75449 0.699 0.25675 0.0
C2162 C 0.75515 0.74289 0.26605 0.0
C2163 C 0.75 0.70833 0.29053 0.0
C2164 C 0.7508 0.77494 0.30621 0.0
C2165 C 0.76124 0.80064 0.24774 0.0
N2166 N 0.75052 0.72974 0.29432 0.0
N2167 N 0.7605 0.77925 0.24384 0.0
H2168 H 0.56601 0.48823 1.00405 0.0
H2169 H 0.44647 0.52707 0.03352 0.0
H2170 H 0.54218 0.51386 0.10528 0.0
H2171 H 0.47036 0.50171 0.93213 0.0
H2172 H 0.48117 0.52117 0.06094 0.0
H2173 H 0.53134 0.49418 0.97658 0.0
C2174 C 0.55363 0.4955 0.02032 0.0
C2175 C 0.55695 0.50035 0.05716 0.0
C2176 C 0.47876 0.51674 0.03277 0.0
C2177 C 0.51711 0.50671 0.02612 0.0
C2178 C 0.45888 0.51988 1.0172 0.0
C2179 C 0.45556 0.51509 0.98034 0.0
C2180 C 0.49543 0.50877 1.01133 0.0
C2181 C 0.47224 0.5058 0.96057 0.0
C2182 C 0.53375 0.49866 1.00472 0.0
C2183 C 0.5403 0.50973 0.07687 0.0
N2184 N 0.49152 0.50314 0.97621 0.0
N2185 N 0.52103 0.5124 0.0612 0.0
H2186 H 0.05474 0.54343 0.49405 0.0
H2187 H 0.95538 0.46977 0.5394 0.0
H2188 H 0.05979 0.47664 0.51759 0.0
H2189 H 0.95047 0.53724 0.5223 0.0
H2190 H 0.99355 0.47176 0.52936 0.0
H2191 H 0.01642 0.54145 0.5029 0.0
C2192 C 0.04771 0.52826 0.50057 0.0
C2193 C 0.06034 0.50999 0.50401 0.0
C2194 C 0.9842 0.48621 0.52825 0.0
C2195 C 0.01661 0.50764 0.5146 0.0
C2196 C 0.96243 0.48508 0.53399 0.0
C2197 C 0.94992 0.50351 0.53276 0.0
C2198 C 0.99351 0.50591 0.52087 0.0
C2199 C 0.95971 0.52285 0.525 0.0
C2200 C 0.02586 0.52715 0.50568 0.0
C2201 C 0.05055 0.49086 0.51314 0.0
N2202 N 0.98097 0.52357 0.51935 0.0
N2203 N 0.02924 0.49016 0.5181 0.0
H2204 H 0.93639 0.49275 0.02928 0.0
H2205 H 0.05588 0.53168 1.00967 0.0
H2206 H 0.96427 0.51282 0.92758 0.0
H2207 H 0.02815 0.51013 0.1106 0.0
H2208 H 0.02242 0.52486 0.97894 0.0
H2209 H 0.96918 0.50173 0.06038 0.0
C2210 C 0.94924 0.49949 1.0136 0.0
C2211 C 0.94776 0.50165 0.97567 0.0
C2212 C 0.02371 0.52149 1.00776 0.0
C2213 C 0.98543 0.51146 1.01092 0.0
C2214 C 0.04289 0.52513 0.02524 0.0
C2215 C 0.04472 0.52169 0.06286 0.0
C2216 C 0.00631 0.51435 0.02805 0.0
C2217 C 0.0274 0.51316 0.08162 0.0
C2218 C 0.96805 0.50438 0.03131 0.0
C2219 C 0.96482 0.51064 0.9568 0.0
N2220 N 0.00883 0.50998 0.06406 0.0
N2221 N 0.9831 0.51492 0.97457 0.0
H2222 H 0.42965 0.50316 0.48266 0.0
H2223 H 0.54984 0.53327 0.52236 0.0
H2224 H 0.45319 0.52231 0.58758 0.0
H2225 H 0.52704 0.51257 0.41743 0.0
H2226 H 0.5136 0.53305 0.54512 0.0
H2227 H 0.46366 0.51291 0.45542 0.0
C2228 C 0.44162 0.51044 0.49958 0.0
C2229 C 0.43879 0.51198 0.53729 0.0
C2230 C 0.51652 0.52853 0.51711 0.0
C2231 C 0.47781 0.52211 0.507 0.0
C2232 C 0.53727 0.52836 0.50423 0.0
C2233 C 0.54153 0.52286 0.46794 0.0
C2234 C 0.49988 0.52305 0.49362 0.0
C2235 C 0.52452 0.51684 0.44565 0.0
C2236 C 0.46118 0.51557 0.48424 0.0
C2237 C 0.45489 0.52097 0.55832 0.0
N2238 N 0.50444 0.51714 0.45884 0.0
N2239 N 0.4739 0.52533 0.54302 0.0
H2240 H 0.19016 0.14303 0.48833 0.0
H2241 H 0.31372 0.14362 0.54384 0.0
H2242 H 0.24127 0.14874 0.41101 0.0
H2243 H 0.26255 0.14021 0.62142 0.0
H2244 H 0.28767 0.14091 0.49427 0.0
H2245 H 0.21647 0.13755 0.53686 0.0
C2246 C 0.20682 0.1428 0.48138 0.0
C2247 C 0.21336 0.14652 0.44538 0.0
C2248 C 0.28218 0.14049 0.52219 0.0
C2249 C 0.24374 0.14044 0.50101 0.0
C2250 C 0.29713 0.14185 0.55054 0.0
C2251 C 0.29044 0.14227 0.58702 0.0
C2252 C 0.26035 0.13949 0.53029 0.0
C2253 C 0.26856 0.14015 0.5938 0.0
C2254 C 0.2219 0.13978 0.50917 0.0
C2255 C 0.23533 0.14614 0.4383 0.0
N2256 N 0.2544 0.13904 0.56591 0.0
N2257 N 0.24961 0.14335 0.46569 0.0
H2258 H 0.11933 0.07044 0.79943 0.0
H2259 H 0.11648 0.95021 0.72425 0.0
H2260 H 0.11939 0.01535 0.86912 0.0
H2261 H 0.11407 1.00572 0.65565 0.0
H2262 H 0.12142 0.9735 0.77738 0.0
H2263 H 0.12146 0.04686 0.74629 0.0
C2264 C 0.12018 0.05346 0.80369 0.0
C2265 C 0.11908 0.04502 0.83905 0.0
C2266 C 0.11999 0.98055 0.7506 0.0
C2267 C 0.12122 0.01772 0.77799 0.0
C2268 C 0.11727 0.9672 0.7202 0.0
C2269 C 0.11469 0.97588 0.68523 0.0
C2270 C 0.12021 1.00279 0.74612 0.0
C2271 C 0.11577 0.99816 0.68195 0.0
C2272 C 0.12124 0.03993 0.77325 0.0
C2273 C 0.12006 0.02273 0.84253 0.0
N2274 N 0.1183 0.01071 0.71179 0.0
N2275 N 0.12091 0.00996 0.8126 0.0
H2276 H 0.25005 0.87705 0.11986 0.0
H2277 H 0.26869 0.88202 0.90466 0.0
H2278 H 0.19914 0.87869 0.04166 0.0
H2279 H 0.31946 0.87694 0.98272 0.0
H2280 H 0.24343 0.88586 0.95448 0.0
H2281 H 0.27545 0.8819 0.07065 0.0
C2282 C 0.24411 0.87869 0.09234 0.0
C2283 C 0.22226 0.87727 0.08507 0.0
C2284 C 0.26009 0.88418 0.96083 0.0
C2285 C 0.25168 0.88272 0.02803 0.0
C2286 C 0.27464 0.88205 0.93231 0.0
C2287 C 0.29638 0.879 0.93931 0.0
C2288 C 0.26713 0.88317 0.997 0.0
C2289 C 0.30295 0.87929 0.97584 0.0
C2290 C 0.25874 0.88144 0.06416 0.0
C2291 C 0.21573 0.87969 0.04873 0.0
N2292 N 0.28838 0.88108 1.00325 0.0
N2293 N 0.23037 0.88206 0.02161 0.0
H2294 H 0.39695 0.99253 0.37052 0.0
H2295 H 0.38615 0.01048 0.15574 0.0
H2296 H 0.3946 0.94114 0.29313 0.0
H2297 H 0.39052 0.06175 0.23304 0.0
H2298 H 0.38453 0.98521 0.2059 0.0
H2299 H 0.39012 0.01769 0.32155 0.0
C2300 C 0.39475 0.98642 0.34323 0.0
C2301 C 0.39654 0.9645 0.33615 0.0
C2302 C 0.38556 1.00197 0.21206 0.0
C2303 C 0.38879 0.99372 0.27924 0.0
C2304 C 0.3864 0.01653 0.18334 0.0
C2305 C 0.38857 0.03844 0.18995 0.0
C2306 C 0.38701 0.00914 0.24811 0.0
C2307 C 0.38874 0.04512 0.22645 0.0
C2308 C 0.39086 1.00093 0.31517 0.0
C2309 C 0.39334 0.95778 0.30009 0.0
N2310 N 0.38824 0.03054 0.25405 0.0
N2311 N 0.38985 0.97232 0.27302 0.0
H2312 H 0.82339 0.86555 0.54916 0.0
H2313 H 0.70232 0.86363 0.47986 0.0
H2314 H 0.7695 0.86026 0.6208 0.0
H2315 H 0.75644 0.86516 0.40818 0.0
H2316 H 0.72639 0.86701 0.53214 0.0
H2317 H 0.79898 0.87001 0.49759 0.0
C2318 C 0.80649 0.86566 0.55421 0.0
C2319 C 0.79862 0.86236 0.58953 0.0
C2320 C 0.73296 0.86684 0.5049 0.0
C2321 C 0.77044 0.86727 0.53039 0.0
C2322 C 0.71917 0.86505 0.475 0.0
C2323 C 0.72726 0.86394 0.43941 0.0
C2324 C 0.75505 0.8676 0.49927 0.0
C2325 C 0.74937 0.86572 0.43503 0.0
C2326 C 0.79251 0.86809 0.52468 0.0
C2327 C 0.77644 0.86256 0.59414 0.0
N2328 N 0.76239 0.8673 0.46441 0.0
N2329 N 0.76323 0.86479 0.56507 0.0
H2330 H 0.89635 0.06174 0.31202 0.0
H2331 H 0.88866 0.94168 0.23776 0.0
H2332 H 0.8958 1.00638 0.3811 0.0
H2333 H 0.89047 0.99662 0.1678 0.0
H2334 H 0.8872 0.96541 0.29077 0.0
H2335 H 0.89047 0.03858 0.25906 0.0
C2336 C 0.89475 0.04482 0.31619 0.0
C2337 C 0.89677 0.03612 0.35125 0.0
C2338 C 0.88767 0.97227 0.26377 0.0
C2339 C 0.89012 0.00938 0.2906 0.0
C2340 C 0.88833 0.95867 0.23342 0.0
C2341 C 0.88981 0.96703 0.19806 0.0
C2342 C 0.88849 0.99445 0.25888 0.0
C2343 C 0.88951 0.98932 0.19442 0.0
C2344 C 0.89147 0.03155 0.2859 0.0
C2345 C 0.89459 0.01395 0.35472 0.0
N2346 N 0.88907 1.00215 0.22426 0.0
N2347 N 0.89154 1.00145 0.32498 0.0
H2348 H 0.81123 0.13271 0.99176 0.0
H2349 H 0.68878 0.13718 0.05045 0.0
H2350 H 0.75952 0.1373 0.91538 0.0
H2351 H 0.74042 0.12987 0.12626 0.0
H2352 H 0.71404 0.13257 1.00002 0.0
H2353 H 0.78539 0.12726 0.04087 0.0
C2354 C 0.79453 0.13223 0.98516 0.0
C2355 C 0.78765 0.1357 0.94931 0.0
C2356 C 0.71978 0.13165 0.02775 0.0
C2357 C 0.75786 0.12969 1.00552 0.0
C2358 C 0.70528 0.13409 0.05655 0.0
C2359 C 0.71244 0.13411 0.09271 0.0
C2360 C 0.74158 0.12924 0.03516 0.0
C2361 C 0.73415 0.13023 0.09884 0.0
C2362 C 0.77973 0.12921 1.01325 0.0
C2363 C 0.76568 0.13496 0.94258 0.0
N2364 N 0.74789 0.12822 0.07052 0.0
N2365 N 0.75166 0.13227 0.97032 0.0
H2366 H 0.62411 0.0705 0.7422 0.0
H2367 H 0.62859 0.94771 0.79991 0.0
H2368 H 0.62726 0.01866 0.66563 0.0
H2369 H 0.62804 0.99945 0.87685 0.0
H2370 H 0.63255 0.97354 0.75038 0.0
H2371 H 0.62992 0.04503 0.79194 0.0
C2372 C 0.62641 0.05388 0.73574 0.0
C2373 C 0.62496 0.04678 0.69962 0.0
C2374 C 0.63184 0.97921 0.77818 0.0
C2375 C 0.63135 0.01742 0.75644 0.0
C2376 C 0.62972 0.96441 0.80651 0.0
C2377 C 0.62776 0.97132 0.84269 0.0
C2378 C 0.63197 1.00111 0.78602 0.0
C2379 C 0.62923 0.99329 0.84941 0.0
C2380 C 0.62961 0.03929 0.76417 0.0
C2381 C 0.62798 0.02494 0.69303 0.0
N2382 N 0.631 0.00733 0.82146 0.0
N2383 N 0.63079 0.01111 0.72104 0.0
H2384 H 0.68718 0.64095 0.98948 0.0
H2385 H 0.80796 0.64049 0.05903 0.0
H2386 H 0.74117 0.63359 0.91842 0.0
H2387 H 0.75381 0.64664 0.13012 0.0
H2388 H 0.78374 0.63413 1.00787 0.0
H2389 H 0.71112 0.63887 0.04209 0.0
C2390 C 0.70395 0.63843 0.98489 0.0
C2391 C 0.71208 0.6376 0.94932 0.0
C2392 C 0.77719 0.63668 0.03478 0.0
C2393 C 0.73974 0.63561 1.00949 0.0
C2394 C 0.79106 0.64025 0.06405 0.0
C2395 C 0.78304 0.64432 0.09905 0.0
C2396 C 0.7551 0.63717 0.04045 0.0
C2397 C 0.76087 0.64382 0.10367 0.0
C2398 C 0.71769 0.63743 1.01496 0.0
C2399 C 0.7341 0.63452 0.94524 0.0
N2400 N 0.74778 0.64051 0.07485 0.0
N2401 N 0.74709 0.63386 0.97477 0.0
H2402 H 0.62171 0.44623 0.23577 0.0
H2403 H 0.62196 0.56817 0.30067 0.0
H2404 H 0.62583 0.49942 0.16224 0.0
H2405 H 0.61691 0.51492 0.37393 0.0
H2406 H 0.62794 0.54321 0.25021 0.0
H2407 H 0.62459 0.47093 0.28727 0.0
C2408 C 0.62364 0.463 0.23037 0.0
C2409 C 0.62335 0.47066 0.19448 0.0
C2410 C 0.62575 0.53701 0.27744 0.0
C2411 C 0.62636 0.49918 0.25341 0.0
C2412 C 0.62245 0.55131 0.30631 0.0
C2413 C 0.61872 0.54375 0.34169 0.0
C2414 C 0.62535 0.51496 0.28391 0.0
C2415 C 0.61947 0.52161 0.34715 0.0
C2416 C 0.62513 0.47716 0.25982 0.0
C2417 C 0.62576 0.49269 0.18935 0.0
N2418 N 0.6225 0.50809 0.31869 0.0
N2419 N 0.62695 0.5061 0.21832 0.0
H2420 H 0.75443 0.37683 0.62601 0.0
H2421 H 0.77175 0.36569 0.41141 0.0
H2422 H 0.70316 0.37175 0.54907 0.0
H2423 H 0.82323 0.37089 0.48795 0.0
H2424 H 0.74663 0.37234 0.4605 0.0
H2425 H 0.77945 0.37932 0.57559 0.0
C2426 C 0.74833 0.37659 0.59846 0.0
C2427 C 0.72653 0.37393 0.59195 0.0
C2428 C 0.7634 0.37227 0.46664 0.0
C2429 C 0.75546 0.3765 0.53362 0.0
C2430 C 0.77786 0.36847 0.43853 0.0
C2431 C 0.79978 0.36752 0.44543 0.0
C2432 C 0.7707 0.37503 0.50237 0.0
C2433 C 0.80655 0.37146 0.48121 0.0
C2434 C 0.76273 0.37796 0.5696 0.0
C2435 C 0.71973 0.37384 0.55555 0.0
N2436 N 0.79208 0.37479 0.50835 0.0
N2437 N 0.73415 0.37482 0.52783 0.0
H2438 H 0.88396 0.49171 0.87078 0.0
H2439 H 0.89429 0.50396 0.65482 0.0
H2440 H 0.89156 0.43867 0.79763 0.0
H2441 H 0.89107 0.55733 0.72824 0.0
H2442 H 0.88863 0.48006 0.70587 0.0
H2443 H 0.88155 0.51553 0.81865 0.0
C2444 C 0.88477 0.48495 0.84369 0.0
C2445 C 0.88811 0.46301 0.83879 0.0
C2446 C 0.88898 0.49698 0.71092 0.0
C2447 C 0.8856 0.49059 0.77848 0.0
C2448 C 0.89222 0.51076 0.68168 0.0
C2449 C 0.89339 0.53286 0.68705 0.0
C2450 C 0.8869 0.50513 0.74625 0.0
C2451 C 0.89033 0.5405 0.72263 0.0
C2452 C 0.88347 0.49868 0.81386 0.0
C2453 C 0.88892 0.45537 0.80289 0.0
N2454 N 0.88743 0.52666 0.75085 0.0
N2455 N 0.88792 0.46914 0.7742 0.0
H2456 H 0.32186 0.37264 0.05143 0.0
H2457 H 0.19894 0.37591 0.99413 0.0
H2458 H 0.27021 0.37586 0.12825 0.0
H2459 H 0.25051 0.37385 0.91704 0.0
H2460 H 0.22485 0.38011 0.04345 0.0
H2461 H 0.29623 0.37734 1.00165 0.0
C2462 C 0.30525 0.37475 0.05794 0.0
C2463 C 0.29828 0.37366 0.0942 0.0
C2464 C 0.23047 0.37899 1.01565 0.0
C2465 C 0.26871 0.37875 0.03727 0.0
C2466 C 0.21562 0.37672 0.98743 0.0
C2467 C 0.22243 0.37434 0.95125 0.0
C2468 C 0.25234 0.37888 1.00773 0.0
C2469 C 0.24439 0.3754 0.94445 0.0
C2470 C 0.29056 0.37728 0.02947 0.0
C2471 C 0.27642 0.37635 0.10078 0.0
N2472 N 0.25846 0.37738 0.97228 0.0
N2473 N 0.2625 0.37854 0.07276 0.0
H2474 H 0.38571 0.56627 0.80255 0.0
H2475 H 0.39034 0.44403 0.73928 0.0
H2476 H 0.3876 0.51339 0.87709 0.0
H2477 H 0.38949 0.49704 0.66504 0.0
H2478 H 0.38452 0.46889 0.79001 0.0
H2479 H 0.38238 0.54108 0.75183 0.0
C2480 C 0.38504 0.54944 0.80839 0.0
C2481 C 0.38711 0.54206 0.8443 0.0
C2482 C 0.38533 0.47504 0.76253 0.0
C2483 C 0.38356 0.51298 0.78617 0.0
C2484 C 0.38849 0.46078 0.73351 0.0
C2485 C 0.39059 0.46836 0.69774 0.0
C2486 C 0.38423 0.49706 0.7558 0.0
C2487 C 0.38821 0.49038 0.69212 0.0
C2488 C 0.38327 0.53501 0.77936 0.0
C2489 C 0.38627 0.51994 0.84994 0.0
N2490 N 0.38538 0.50387 0.72068 0.0
N2491 N 0.38476 0.50629 0.82135 0.0
H2492 H 0.25799 0.63806 0.41523 0.0
H2493 H 0.241 0.64846 0.63027 0.0
H2494 H 0.30965 0.64269 0.49141 0.0
H2495 H 0.18956 0.64104 0.55425 0.0
H2496 H 0.26623 0.64287 0.58083 0.0
H2497 H 0.23321 0.63541 0.46597 0.0
C2498 C 0.26423 0.63817 0.4427 0.0
C2499 C 0.28609 0.64068 0.44884 0.0
C2500 C 0.24945 0.64222 0.57489 0.0
C2501 C 0.25737 0.63798 0.50769 0.0
C2502 C 0.23492 0.6454 0.60322 0.0
C2503 C 0.21293 0.64537 0.59663 0.0
C2504 C 0.24217 0.6391 0.53922 0.0
C2505 C 0.20625 0.64119 0.56085 0.0
C2506 C 0.24996 0.63672 0.47176 0.0
C2507 C 0.29304 0.64066 0.48519 0.0
N2508 N 0.22078 0.63847 0.53354 0.0
N2509 N 0.27873 0.63962 0.51315 0.0
H2510 H 0.11813 0.50733 0.38433 0.0
H2511 H 0.10935 0.52025 0.16794 0.0
H2512 H 0.11282 0.45411 0.3112 0.0
H2513 H 0.11476 0.57321 0.24166 0.0
H2514 H 0.11391 0.49593 0.219 0.0
H2515 H 0.12034 0.53114 0.33224 0.0
C2516 C 0.11767 0.50053 0.35726 0.0
C2517 C 0.11516 0.4785 0.35244 0.0
C2518 C 0.11431 0.51284 0.2241 0.0
C2519 C 0.1175 0.50616 0.29192 0.0
C2520 C 0.11174 0.52687 0.19483 0.0
C2521 C 0.11155 0.54902 0.20022 0.0
C2522 C 0.11667 0.52079 0.25953 0.0
C2523 C 0.11482 0.55637 0.23592 0.0
C2524 C 0.1189 0.51427 0.3274 0.0
C2525 C 0.11481 0.47087 0.31646 0.0
N2526 N 0.11704 0.54233 0.26411 0.0
N2527 N 0.11574 0.48466 0.28769 0.0
loop_
_geom_bond_atom_site_label_1
_geom_bond_atom_site_label_2
_geom_bond_distance
_geom_bond_site_symmetry_2
_ccdc_geom_bond_type
Co0 O3 1.970 . S
Co0 N17 1.989 . S
Co0 O25 1.967 . S
Co0 O32 1.920 . S
Co1 O4 1.966 . S
Co1 N10 2.022 . S
Co1 N18 1.993 . S
Co1 O26 1.941 . S
C2 O3 1.258 . S
C2 O4 1.263 . S
O3 Co0 1.970 . S
O3 C2 1.258 . S
O4 Co1 1.966 . S
O4 C2 1.263 . S
C5 O6 1.235 . S
C5 O32 1.289 . S
O6 C5 1.235 . S
C7 C9 1.400 . S
C7 N10 1.351 . S
C7 C12 1.501 . S
C8 C9 1.387 . S
C8 N11 1.341 . S
C9 C7 1.400 . S
C9 C8 1.387 . S
N10 Co1 2.022 . S
N10 C7 1.351 . S
N10 N11 1.365 . S
N11 C8 1.341 . S
N11 N10 1.365 . S
N11 H31 0.862 . S
C12 C7 1.501 . S
C12 H13 0.961 . S
C12 H14 0.961 . S
C12 H15 0.960 . S
H13 C12 0.961 . S
H14 C12 0.961 . S
H15 C12 0.960 . S
C16 N17 1.342 . S
C16 C20 1.401 . S
C16 C21 1.499 . S
N17 Co0 1.989 . S
N17 C16 1.342 . S
N17 N18 1.388 . S
N18 Co1 1.993 . S
N18 N17 1.388 . S
N18 C19 1.346 . S
C19 N18 1.346 . S
C19 C20 1.396 . S
C19 C29 1.510 . S
C20 C16 1.401 . S
C20 C19 1.396 . S
C21 C16 1.499 . S
C21 H22 0.959 . S
C21 H23 0.960 . S
C21 H24 0.961 . S
H22 C21 0.959 . S
H23 C21 0.960 . S
H24 C21 0.961 . S
O25 Co0 1.967 . S
O25 C33 1.258 . S
O26 Co1 1.941 . S
O26 C33 1.266 . S
H27 C29 0.959 . S
H28 C29 0.961 . S
C29 C19 1.510 . S
C29 H27 0.959 . S
C29 H28 0.961 . S
C29 H30 0.960 . S
H30 C29 0.960 . S
H31 N11 0.862 . S
O32 Co0 1.920 . S
O32 C5 1.289 . S
C33 O25 1.258 . S
C33 O26 1.266 . S
Co34 O37 1.970 . S
Co34 N51 1.989 . S
Co34 O59 1.967 . S
Co34 O66 1.920 . S
Co35 O38 1.966 . S
Co35 N44 2.022 . S
Co35 N52 1.993 . S
Co35 O60 1.941 . S
C36 O37 1.258 . S
C36 O38 1.263 . S
O37 Co34 1.970 . S
O37 C36 1.258 . S
O38 Co35 1.966 . S
O38 C36 1.263 . S
C39 O40 1.235 . S
C39 O66 1.289 . S
O40 C39 1.235 . S
C41 C43 1.400 . S
C41 N44 1.351 . S
C41 C46 1.501 . S
C42 C43 1.387 . S
C42 N45 1.341 . S
C43 C41 1.400 . S
C43 C42 1.387 . S
N44 Co35 2.022 . S
N44 C41 1.351 . S
N44 N45 1.365 . S
N45 C42 1.341 . S
N45 N44 1.365 . S
N45 H65 0.862 . S
C46 C41 1.501 . S
C46 H47 0.961 . S
C46 H48 0.961 . S
C46 H49 0.960 . S
H47 C46 0.961 . S
H48 C46 0.961 . S
H49 C46 0.960 . S
C50 N51 1.342 . S
C50 C54 1.401 . S
C50 C55 1.499 . S
N51 Co34 1.989 . S
N51 C50 1.342 . S
N51 N52 1.388 . S
N52 Co35 1.993 . S
N52 N51 1.388 . S
N52 C53 1.346 . S
C53 N52 1.346 . S
C53 C54 1.396 . S
C53 C63 1.510 . S
C54 C50 1.401 . S
C54 C53 1.396 . S
C55 C50 1.499 . S
C55 H56 0.959 . S
C55 H57 0.960 . S
C55 H58 0.961 . S
H56 C55 0.959 . S
H57 C55 0.960 . S
H58 C55 0.961 . S
O59 Co34 1.967 . S
O59 C67 1.258 . S
O60 Co35 1.941 . S
O60 C67 1.266 . S
H61 C63 0.959 . S
H62 C63 0.961 . S
C63 C53 1.510 . S
C63 H61 0.959 . S
C63 H62 0.961 . S
C63 H64 0.960 . S
H64 C63 0.960 . S
H65 N45 0.862 . S
O66 Co34 1.920 . S
O66 C39 1.289 . S
C67 O59 1.258 . S
C67 O60 1.266 . S
Co68 O71 1.970 . S
Co68 N85 1.989 . S
Co68 O93 1.967 . S
Co68 O100 1.920 . S
Co69 O72 1.966 . S
Co69 N78 2.022 . S
Co69 N86 1.993 . S
Co69 O94 1.941 . S
C70 O71 1.258 . S
C70 O72 1.263 . S
O71 Co68 1.970 . S
O71 C70 1.258 . S
O72 Co69 1.966 . S
O72 C70 1.263 . S
C73 O74 1.235 . S
C73 O100 1.289 . S
O74 C73 1.235 . S
C75 C77 1.400 . S
C75 N78 1.351 . S
C75 C80 1.501 . S
C76 C77 1.387 . S
C76 N79 1.341 . S
C77 C75 1.400 . S
C77 C76 1.387 . S
N78 Co69 2.022 . S
N78 C75 1.351 . S
N78 N79 1.365 . S
N79 C76 1.341 . S
N79 N78 1.365 . S
N79 H99 0.862 . S
C80 C75 1.501 . S
C80 H81 0.961 . S
C80 H82 0.961 . S
C80 H83 0.960 . S
H81 C80 0.961 . S
H82 C80 0.961 . S
H83 C80 0.960 . S
C84 N85 1.342 . S
C84 C88 1.401 . S
C84 C89 1.499 . S
N85 Co68 1.989 . S
N85 C84 1.342 . S
N85 N86 1.388 . S
N86 Co69 1.993 . S
N86 N85 1.388 . S
N86 C87 1.346 . S
C87 N86 1.346 . S
C87 C88 1.396 . S
C87 C97 1.510 . S
C88 C84 1.401 . S
C88 C87 1.396 . S
C89 C84 1.499 . S
C89 H90 0.959 . S
C89 H91 0.960 . S
C89 H92 0.961 . S
H90 C89 0.959 . S
H91 C89 0.960 . S
H92 C89 0.961 . S
O93 Co68 1.967 . S
O93 C101 1.258 . S
O94 Co69 1.941 . S
O94 C101 1.266 . S
H95 C97 0.959 . S
H96 C97 0.961 . S
C97 C87 1.510 . S
C97 H95 0.959 . S
C97 H96 0.961 . S
C97 H98 0.960 . S
H98 C97 0.960 . S
H99 N79 0.862 . S
O100 Co68 1.920 . S
O100 C73 1.289 . S
C101 O93 1.258 . S
C101 O94 1.266 . S
Co102 O105 1.970 . S
Co102 N119 1.989 . S
Co102 O127 1.967 . S
Co102 O134 1.920 . S
Co103 O106 1.966 . S
Co103 N112 2.022 . S
Co103 N120 1.993 . S
Co103 O128 1.941 . S
C104 O105 1.258 . S
C104 O106 1.263 . S
O105 Co102 1.970 . S
O105 C104 1.258 . S
O106 Co103 1.966 . S
O106 C104 1.263 . S
C107 O108 1.235 . S
C107 O134 1.289 . S
O108 C107 1.235 . S
C109 C111 1.400 . S
C109 N112 1.351 . S
C109 C114 1.501 . S
C110 C111 1.387 . S
C110 N113 1.341 . S
C111 C109 1.400 . S
C111 C110 1.387 . S
N112 Co103 2.022 . S
N112 C109 1.351 . S
N112 N113 1.365 . S
N113 C110 1.341 . S
N113 N112 1.365 . S
N113 H133 0.862 . S
C114 C109 1.501 . S
C114 H115 0.961 . S
C114 H116 0.961 . S
C114 H117 0.960 . S
H115 C114 0.961 . S
H116 C114 0.961 . S
H117 C114 0.960 . S
C118 N119 1.342 . S
C118 C122 1.401 1_554 S
C118 C123 1.499 1_554 S
N119 Co102 1.989 . S
N119 C118 1.342 . S
N119 N120 1.388 . S
N120 Co103 1.993 . S
N120 N119 1.388 . S
N120 C121 1.346 . S
C121 N120 1.346 . S
C121 C122 1.396 1_554 S
C121 C131 1.510 . S
C122 C118 1.401 1_556 S
C122 C121 1.396 1_556 S
C123 C118 1.499 1_556 S
C123 H124 0.959 . S
C123 H125 0.960 . S
C123 H126 0.961 . S
H124 C123 0.959 . S
H125 C123 0.960 . S
H126 C123 0.961 . S
O127 Co102 1.967 . S
O127 C135 1.258 . S
O128 Co103 1.941 . S
O128 C135 1.266 . S
H129 C131 0.959 . S
H130 C131 0.961 . S
C131 C121 1.510 . S
C131 H129 0.959 . S
C131 H130 0.961 . S
C131 H132 0.960 . S
H132 C131 0.960 . S
H133 N113 0.862 . S
O134 Co102 1.920 . S
O134 C107 1.289 . S
C135 O127 1.258 . S
C135 O128 1.266 . S
Co136 O139 1.970 . S
Co136 N153 1.989 . S
Co136 O161 1.967 . S
Co136 O168 1.920 . S
Co137 O140 1.966 . S
Co137 N146 2.022 . S
Co137 N154 1.993 . S
Co137 O162 1.941 . S
C138 O139 1.258 . S
C138 O140 1.263 . S
O139 Co136 1.970 . S
O139 C138 1.258 . S
O140 Co137 1.966 . S
O140 C138 1.263 . S
C141 O142 1.235 . S
C141 O168 1.289 . S
O142 C141 1.235 . S
C143 C145 1.400 . S
C143 N146 1.351 . S
C143 C148 1.501 . S
C144 C145 1.387 . S
C144 N147 1.341 . S
C145 C143 1.400 . S
C145 C144 1.387 . S
N146 Co137 2.022 . S
N146 C143 1.351 . S
N146 N147 1.365 . S
N147 C144 1.341 . S
N147 N146 1.365 . S
N147 H167 0.862 . S
C148 C143 1.501 . S
C148 H149 0.961 . S
C148 H150 0.961 . S
C148 H151 0.960 . S
H149 C148 0.961 . S
H150 C148 0.961 . S
H151 C148 0.960 . S
C152 N153 1.342 . S
C152 C156 1.401 . S
C152 C157 1.499 . S
N153 Co136 1.989 . S
N153 C152 1.342 . S
N153 N154 1.388 . S
N154 Co137 1.993 . S
N154 N153 1.388 . S
N154 C155 1.346 . S
C155 N154 1.346 . S
C155 C156 1.396 . S
C155 C165 1.510 . S
C156 C152 1.401 . S
C156 C155 1.396 . S
C157 C152 1.499 . S
C157 H158 0.959 . S
C157 H159 0.960 . S
C157 H160 0.961 . S
H158 C157 0.959 . S
H159 C157 0.960 . S
H160 C157 0.961 . S
O161 Co136 1.967 . S
O161 C169 1.258 . S
O162 Co137 1.941 . S
O162 C169 1.266 . S
H163 C165 0.959 . S
H164 C165 0.961 . S
C165 C155 1.510 . S
C165 H163 0.959 . S
C165 H164 0.961 . S
C165 H166 0.960 . S
H166 C165 0.960 . S
H167 N147 0.862 . S
O168 Co136 1.920 . S
O168 C141 1.289 . S
C169 O161 1.258 . S
C169 O162 1.266 . S
Co170 O173 1.970 . S
Co170 N187 1.989 . S
Co170 O195 1.967 . S
Co170 O202 1.920 . S
Co171 O174 1.966 . S
Co171 N180 2.022 . S
Co171 N188 1.993 . S
Co171 O196 1.941 . S
C172 O173 1.258 . S
C172 O174 1.263 . S
O173 Co170 1.970 . S
O173 C172 1.258 . S
O174 Co171 1.966 . S
O174 C172 1.263 . S
C175 O176 1.235 . S
C175 O202 1.289 . S
O176 C175 1.235 . S
C177 C179 1.400 . S
C177 N180 1.351 . S
C177 C182 1.501 . S
C178 C179 1.387 . S
C178 N181 1.341 . S
C179 C177 1.400 . S
C179 C178 1.387 . S
N180 Co171 2.022 . S
N180 C177 1.351 . S
N180 N181 1.365 . S
N181 C178 1.341 . S
N181 N180 1.365 . S
N181 H201 0.862 . S
C182 C177 1.501 . S
C182 H183 0.961 . S
C182 H184 0.961 . S
C182 H185 0.960 . S
H183 C182 0.961 . S
H184 C182 0.961 . S
H185 C182 0.960 . S
C186 N187 1.342 . S
C186 C190 1.401 . S
C186 C191 1.499 . S
N187 Co170 1.989 . S
N187 C186 1.342 . S
N187 N188 1.388 . S
N188 Co171 1.993 . S
N188 N187 1.388 . S
N188 C189 1.346 . S
C189 N188 1.346 . S
C189 C190 1.396 . S
C189 C199 1.510 . S
C190 C186 1.401 . S
C190 C189 1.396 . S
C191 C186 1.499 . S
C191 H192 0.959 . S
C191 H193 0.960 . S
C191 H194 0.961 . S
H192 C191 0.959 . S
H193 C191 0.960 . S
H194 C191 0.961 . S
O195 Co170 1.967 . S
O195 C203 1.258 . S
O196 Co171 1.941 . S
O196 C203 1.266 . S
H197 C199 0.959 . S
H198 C199 0.961 . S
C199 C189 1.510 . S
C199 H197 0.959 . S
C199 H198 0.961 . S
C199 H200 0.960 . S
H200 C199 0.960 . S
H201 N181 0.862 . S
O202 Co170 1.920 . S
O202 C175 1.289 . S
C203 O195 1.258 . S
C203 O196 1.266 . S
Co204 O207 1.970 . S
Co204 N221 1.989 . S
Co204 O229 1.967 . S
Co204 O236 1.920 . S
Co205 O208 1.966 . S
Co205 N214 2.022 . S
Co205 N222 1.993 . S
Co205 O230 1.941 . S
C206 O207 1.258 . S
C206 O208 1.263 . S
O207 Co204 1.970 . S
O207 C206 1.258 . S
O208 Co205 1.966 . S
O208 C206 1.263 . S
C209 O210 1.235 . S
C209 O236 1.289 . S
O210 C209 1.235 . S
C211 C213 1.400 . S
C211 N214 1.351 . S
C211 C216 1.501 . S
C212 C213 1.387 . S
C212 N215 1.341 . S
C213 C211 1.400 . S
C213 C212 1.387 . S
N214 Co205 2.022 . S
N214 C211 1.351 . S
N214 N215 1.365 . S
N215 C212 1.341 . S
N215 N214 1.365 . S
N215 H235 0.862 . S
C216 C211 1.501 . S
C216 H217 0.961 . S
C216 H218 0.961 . S
C216 H219 0.960 . S
H217 C216 0.961 . S
H218 C216 0.961 . S
H219 C216 0.960 . S
C220 N221 1.342 . S
C220 C224 1.401 . S
C220 C225 1.499 . S
N221 Co204 1.989 . S
N221 C220 1.342 . S
N221 N222 1.388 . S
N222 Co205 1.993 . S
N222 N221 1.388 . S
N222 C223 1.346 . S
C223 N222 1.346 . S
C223 C224 1.396 . S
C223 C233 1.510 . S
C224 C220 1.401 . S
C224 C223 1.396 . S
C225 C220 1.499 . S
C225 H226 0.959 . S
C225 H227 0.960 . S
C225 H228 0.961 . S
H226 C225 0.959 . S
H227 C225 0.960 . S
H228 C225 0.961 . S
O229 Co204 1.967 . S
O229 C237 1.258 . S
O230 Co205 1.941 . S
O230 C237 1.266 . S
H231 C233 0.959 . S
H232 C233 0.961 . S
C233 C223 1.510 . S
C233 H231 0.959 . S
C233 H232 0.961 . S
C233 H234 0.960 . S
H234 C233 0.960 . S
H235 N215 0.862 . S
O236 Co204 1.920 . S
O236 C209 1.289 . S
C237 O229 1.258 . S
C237 O230 1.266 . S
Co238 O241 1.970 . S
Co238 N255 1.989 . S
Co238 O263 1.967 . S
Co238 O270 1.920 . S
Co239 O242 1.966 . S
Co239 N248 2.022 . S
Co239 N256 1.993 . S
Co239 O264 1.941 . S
C240 O241 1.258 . S
C240 O242 1.263 . S
O241 Co238 1.970 . S
O241 C240 1.258 . S
O242 Co239 1.966 . S
O242 C240 1.263 . S
C243 O244 1.235 . S
C243 O270 1.289 . S
O244 C243 1.235 . S
C245 C247 1.400 . S
C245 N248 1.351 . S
C245 C250 1.501 . S
C246 C247 1.387 . S
C246 N249 1.341 . S
C247 C245 1.400 . S
C247 C246 1.387 . S
N248 Co239 2.022 . S
N248 C245 1.351 . S
N248 N249 1.365 . S
N249 C246 1.341 . S
N249 N248 1.365 . S
N249 H269 0.862 . S
C250 C245 1.501 . S
C250 H251 0.961 . S
C250 H252 0.961 . S
C250 H253 0.960 . S
H251 C250 0.961 . S
H252 C250 0.961 . S
H253 C250 0.960 . S
C254 N255 1.342 . S
C254 C258 1.401 1_556 S
C254 C259 1.499 1_556 S
N255 Co238 1.989 . S
N255 C254 1.342 . S
N255 N256 1.388 . S
N256 Co239 1.993 . S
N256 N255 1.388 . S
N256 C257 1.346 . S
C257 N256 1.346 . S
C257 C258 1.396 1_556 S
C257 C267 1.510 . S
C258 C254 1.401 1_554 S
C258 C257 1.396 1_554 S
C259 C254 1.499 1_554 S
C259 H260 0.959 . S
C259 H261 0.960 . S
C259 H262 0.961 . S
H260 C259 0.959 . S
H261 C259 0.960 . S
H262 C259 0.961 . S
O263 Co238 1.967 . S
O263 C271 1.258 . S
O264 Co239 1.941 . S
O264 C271 1.266 . S
H265 C267 0.959 . S
H266 C267 0.961 . S
C267 C257 1.510 . S
C267 H265 0.959 . S
C267 H266 0.961 . S
C267 H268 0.960 . S
H268 C267 0.960 . S
H269 N249 0.862 . S
O270 Co238 1.920 . S
O270 C243 1.289 . S
C271 O263 1.258 . S
C271 O264 1.266 . S
Co272 O275 1.970 . S
Co272 N289 1.989 . S
Co272 O297 1.967 . S
Co272 O304 1.920 . S
Co273 O276 1.966 . S
Co273 N282 2.022 . S
Co273 N290 1.993 . S
Co273 O298 1.941 . S
C274 O275 1.258 . S
C274 O276 1.263 . S
O275 Co272 1.970 . S
O275 C274 1.258 . S
O276 Co273 1.966 . S
O276 C274 1.263 . S
C277 O278 1.235 . S
C277 O304 1.289 . S
O278 C277 1.235 . S
C279 C281 1.400 . S
C279 N282 1.351 . S
C279 C284 1.501 . S
C280 C281 1.387 . S
C280 N283 1.341 . S
C281 C279 1.400 . S
C281 C280 1.387 . S
N282 Co273 2.022 . S
N282 C279 1.351 . S
N282 N283 1.365 . S
N283 C280 1.341 . S
N283 N282 1.365 . S
N283 H303 0.862 . S
C284 C279 1.501 . S
C284 H285 0.961 . S
C284 H286 0.961 . S
C284 H287 0.960 . S
H285 C284 0.961 . S
H286 C284 0.961 . S
H287 C284 0.960 . S
C288 N289 1.342 . S
C288 C292 1.401 . S
C288 C293 1.499 . S
N289 Co272 1.989 . S
N289 C288 1.342 . S
N289 N290 1.388 . S
N290 Co273 1.993 . S
N290 N289 1.388 . S
N290 C291 1.346 . S
C291 N290 1.346 . S
C291 C292 1.396 . S
C291 C301 1.510 . S
C292 C288 1.401 . S
C292 C291 1.396 . S
C293 C288 1.499 . S
C293 H294 0.959 . S
C293 H295 0.960 . S
C293 H296 0.961 . S
H294 C293 0.959 . S
H295 C293 0.960 . S
H296 C293 0.961 . S
O297 Co272 1.967 . S
O297 C305 1.258 . S
O298 Co273 1.941 . S
O298 C305 1.266 . S
H299 C301 0.959 . S
H300 C301 0.961 . S
C301 C291 1.510 . S
C301 H299 0.959 . S
C301 H300 0.961 . S
C301 H302 0.960 . S
H302 C301 0.960 . S
H303 N283 0.862 . S
O304 Co272 1.920 . S
O304 C277 1.289 . S
C305 O297 1.258 . S
C305 O298 1.266 . S
Co306 O309 1.970 . S
Co306 N323 1.989 . S
Co306 O331 1.967 . S
Co306 O338 1.920 . S
Co307 O310 1.966 . S
Co307 N316 2.022 . S
Co307 N324 1.993 . S
Co307 O332 1.941 . S
C308 O309 1.258 . S
C308 O310 1.263 . S
O309 Co306 1.970 . S
O309 C308 1.258 . S
O310 Co307 1.966 . S
O310 C308 1.263 . S
C311 O312 1.235 . S
C311 O338 1.289 . S
O312 C311 1.235 . S
C313 C315 1.400 . S
C313 N316 1.351 . S
C313 C318 1.501 . S
C314 C315 1.387 . S
C314 N317 1.341 . S
C315 C313 1.400 . S
C315 C314 1.387 . S
N316 Co307 2.022 . S
N316 C313 1.351 . S
N316 N317 1.365 . S
N317 C314 1.341 . S
N317 N316 1.365 . S
N317 H337 0.862 . S
C318 C313 1.501 . S
C318 H319 0.961 . S
C318 H320 0.961 . S
C318 H321 0.960 . S
H319 C318 0.961 . S
H320 C318 0.961 . S
H321 C318 0.960 . S
C322 N323 1.342 . S
C322 C326 1.401 . S
C322 C327 1.499 . S
N323 Co306 1.989 . S
N323 C322 1.342 . S
N323 N324 1.388 . S
N324 Co307 1.993 . S
N324 N323 1.388 . S
N324 C325 1.346 . S
C325 N324 1.346 . S
C325 C326 1.396 . S
C325 C335 1.510 . S
C326 C322 1.401 . S
C326 C325 1.396 . S
C327 C322 1.499 . S
C327 H328 0.959 . S
C327 H329 0.960 . S
C327 H330 0.961 . S
H328 C327 0.959 . S
H329 C327 0.960 . S
H330 C327 0.961 . S
O331 Co306 1.967 . S
O331 C339 1.258 . S
O332 Co307 1.941 . S
O332 C339 1.266 . S
H333 C335 0.959 . S
H334 C335 0.961 . S
C335 C325 1.510 . S
C335 H333 0.959 . S
C335 H334 0.961 . S
C335 H336 0.960 . S
H336 C335 0.960 . S
H337 N317 0.862 . S
O338 Co306 1.920 . S
O338 C311 1.289 . S
C339 O331 1.258 . S
C339 O332 1.266 . S
Co340 O343 1.970 . S
Co340 N357 1.989 . S
Co340 O365 1.967 . S
Co340 O372 1.920 . S
Co341 O344 1.966 . S
Co341 N350 2.022 . S
Co341 N358 1.993 . S
Co341 O366 1.941 . S
C342 O343 1.258 . S
C342 O344 1.263 . S
O343 Co340 1.970 . S
O343 C342 1.258 . S
O344 Co341 1.966 . S
O344 C342 1.263 . S
C345 O346 1.235 . S
C345 O372 1.289 . S
O346 C345 1.235 . S
C347 C349 1.400 . S
C347 N350 1.351 . S
C347 C352 1.501 . S
C348 C349 1.387 . S
C348 N351 1.341 . S
C349 C347 1.400 . S
C349 C348 1.387 . S
N350 Co341 2.022 . S
N350 C347 1.351 . S
N350 N351 1.365 . S
N351 C348 1.341 . S
N351 N350 1.365 . S
N351 H371 0.862 . S
C352 C347 1.501 . S
C352 H353 0.961 . S
C352 H354 0.961 . S
C352 H355 0.960 . S
H353 C352 0.961 . S
H354 C352 0.961 . S
H355 C352 0.960 . S
C356 N357 1.342 . S
C356 C360 1.401 . S
C356 C361 1.499 . S
N357 Co340 1.989 . S
N357 C356 1.342 . S
N357 N358 1.388 . S
N358 Co341 1.993 . S
N358 N357 1.388 . S
N358 C359 1.346 . S
C359 N358 1.346 . S
C359 C360 1.396 . S
C359 C369 1.510 . S
C360 C356 1.401 . S
C360 C359 1.396 . S
C361 C356 1.499 . S
C361 H362 0.959 . S
C361 H363 0.960 . S
C361 H364 0.961 . S
H362 C361 0.959 . S
H363 C361 0.960 . S
H364 C361 0.961 . S
O365 Co340 1.967 . S
O365 C373 1.258 . S
O366 Co341 1.941 . S
O366 C373 1.266 . S
H367 C369 0.959 . S
H368 C369 0.961 . S
C369 C359 1.510 . S
C369 H367 0.959 . S
C369 H368 0.961 . S
C369 H370 0.960 . S
H370 C369 0.960 . S
H371 N351 0.862 . S
O372 Co340 1.920 . S
O372 C345 1.289 . S
C373 O365 1.258 . S
C373 O366 1.266 . S
Co374 O377 1.970 . S
Co374 N391 1.989 . S
Co374 O399 1.967 . S
Co374 O406 1.920 . S
Co375 O378 1.966 . S
Co375 N384 2.022 . S
Co375 N392 1.993 . S
Co375 O400 1.941 . S
C376 O377 1.258 . S
C376 O378 1.263 . S
O377 Co374 1.970 . S
O377 C376 1.258 . S
O378 Co375 1.966 . S
O378 C376 1.263 . S
C379 O380 1.235 . S
C379 O406 1.289 . S
O380 C379 1.235 . S
C381 C383 1.400 . S
C381 N384 1.351 . S
C381 C386 1.501 . S
C382 C383 1.387 . S
C382 N385 1.341 . S
C383 C381 1.400 . S
C383 C382 1.387 . S
N384 Co375 2.022 . S
N384 C381 1.351 . S
N384 N385 1.365 . S
N385 C382 1.341 . S
N385 N384 1.365 . S
N385 H405 0.862 . S
C386 C381 1.501 . S
C386 H387 0.961 . S
C386 H388 0.961 . S
C386 H389 0.960 . S
H387 C386 0.961 . S
H388 C386 0.961 . S
H389 C386 0.960 . S
C390 N391 1.342 . S
C390 C394 1.401 1_556 S
C390 C395 1.499 1_556 S
N391 Co374 1.989 . S
N391 C390 1.342 . S
N391 N392 1.388 . S
N392 Co375 1.993 . S
N392 N391 1.388 . S
N392 C393 1.346 . S
C393 N392 1.346 . S
C393 C394 1.396 1_556 S
C393 C403 1.510 . S
C394 C390 1.401 1_554 S
C394 C393 1.396 1_554 S
C395 C390 1.499 1_554 S
C395 H396 0.959 . S
C395 H397 0.960 . S
C395 H398 0.961 . S
H396 C395 0.959 . S
H397 C395 0.960 . S
H398 C395 0.961 . S
O399 Co374 1.967 . S
O399 C407 1.258 . S
O400 Co375 1.941 . S
O400 C407 1.266 . S
H401 C403 0.959 . S
H402 C403 0.961 . S
C403 C393 1.510 . S
C403 H401 0.959 . S
C403 H402 0.961 . S
C403 H404 0.960 . S
H404 C403 0.960 . S
H405 N385 0.862 . S
O406 Co374 1.920 . S
O406 C379 1.289 . S
C407 O399 1.258 . S
C407 O400 1.266 . S
Co408 O411 1.970 . S
Co408 N425 1.989 . S
Co408 O433 1.967 . S
Co408 O440 1.920 . S
Co409 O412 1.966 . S
Co409 N418 2.022 . S
Co409 N426 1.993 . S
Co409 O434 1.941 . S
C410 O411 1.258 . S
C410 O412 1.263 . S
O411 Co408 1.970 . S
O411 C410 1.258 . S
O412 Co409 1.966 . S
O412 C410 1.263 . S
C413 O414 1.235 . S
C413 O440 1.289 . S
O414 C413 1.235 . S
C415 C417 1.400 . S
C415 N418 1.351 . S
C415 C420 1.501 . S
C416 C417 1.387 . S
C416 N419 1.341 . S
C417 C415 1.400 . S
C417 C416 1.387 . S
N418 Co409 2.022 . S
N418 C415 1.351 . S
N418 N419 1.365 . S
N419 C416 1.341 . S
N419 N418 1.365 . S
N419 H439 0.862 . S
C420 C415 1.501 . S
C420 H421 0.961 . S
C420 H422 0.961 . S
C420 H423 0.960 . S
H421 C420 0.961 . S
H422 C420 0.961 . S
H423 C420 0.960 . S
C424 N425 1.342 . S
C424 C428 1.401 . S
C424 C429 1.499 . S
N425 Co408 1.989 . S
N425 C424 1.342 . S
N425 N426 1.388 . S
N426 Co409 1.993 . S
N426 N425 1.388 . S
N426 C427 1.346 . S
C427 N426 1.346 . S
C427 C428 1.396 . S
C427 C437 1.510 . S
C428 C424 1.401 . S
C428 C427 1.396 . S
C429 C424 1.499 . S
C429 H430 0.959 . S
C429 H431 0.960 . S
C429 H432 0.961 . S
H430 C429 0.959 . S
H431 C429 0.960 . S
H432 C429 0.961 . S
O433 Co408 1.967 . S
O433 C441 1.258 . S
O434 Co409 1.941 . S
O434 C441 1.266 . S
H435 C437 0.959 . S
H436 C437 0.961 . S
C437 C427 1.510 . S
C437 H435 0.959 . S
C437 H436 0.961 . S
C437 H438 0.960 . S
H438 C437 0.960 . S
H439 N419 0.862 . S
O440 Co408 1.920 . S
O440 C413 1.289 . S
C441 O433 1.258 . S
C441 O434 1.266 . S
Co442 O445 1.970 . S
Co442 N459 1.989 . S
Co442 O467 1.967 . S
Co442 O474 1.920 . S
Co443 O446 1.966 . S
Co443 N452 2.022 . S
Co443 N460 1.993 . S
Co443 O468 1.941 . S
C444 O445 1.258 . S
C444 O446 1.263 . S
O445 Co442 1.970 . S
O445 C444 1.258 . S
O446 Co443 1.966 . S
O446 C444 1.263 . S
C447 O448 1.235 . S
C447 O474 1.289 . S
O448 C447 1.235 . S
C449 C451 1.400 . S
C449 N452 1.351 . S
C449 C454 1.501 . S
C450 C451 1.387 . S
C450 N453 1.341 . S
C451 C449 1.400 . S
C451 C450 1.387 . S
N452 Co443 2.022 . S
N452 C449 1.351 . S
N452 N453 1.365 . S
N453 C450 1.341 . S
N453 N452 1.365 . S
N453 H473 0.862 . S
C454 C449 1.501 . S
C454 H455 0.961 . S
C454 H456 0.961 . S
C454 H457 0.960 . S
H455 C454 0.961 . S
H456 C454 0.961 . S
H457 C454 0.960 . S
C458 N459 1.342 . S
C458 C462 1.401 . S
C458 C463 1.499 . S
N459 Co442 1.989 . S
N459 C458 1.342 . S
N459 N460 1.388 . S
N460 Co443 1.993 . S
N460 N459 1.388 . S
N460 C461 1.346 . S
C461 N460 1.346 . S
C461 C462 1.396 . S
C461 C471 1.510 . S
C462 C458 1.401 . S
C462 C461 1.396 . S
C463 C458 1.499 . S
C463 H464 0.959 . S
C463 H465 0.960 . S
C463 H466 0.961 . S
H464 C463 0.959 . S
H465 C463 0.960 . S
H466 C463 0.961 . S
O467 Co442 1.967 . S
O467 C475 1.258 . S
O468 Co443 1.941 . S
O468 C475 1.266 . S
H469 C471 0.959 . S
H470 C471 0.961 . S
C471 C461 1.510 . S
C471 H469 0.959 . S
C471 H470 0.961 . S
C471 H472 0.960 . S
H472 C471 0.960 . S
H473 N453 0.862 . S
O474 Co442 1.920 . S
O474 C447 1.289 . S
C475 O467 1.258 . S
C475 O468 1.266 . S
Co476 O479 1.970 . S
Co476 N493 1.989 . S
Co476 O501 1.967 . S
Co476 O508 1.920 . S
Co477 O480 1.966 . S
Co477 N486 2.022 . S
Co477 N494 1.993 . S
Co477 O502 1.941 . S
C478 O479 1.258 . S
C478 O480 1.263 . S
O479 Co476 1.970 . S
O479 C478 1.258 . S
O480 Co477 1.966 . S
O480 C478 1.263 . S
C481 O482 1.235 . S
C481 O508 1.289 . S
O482 C481 1.235 . S
C483 C485 1.400 . S
C483 N486 1.351 . S
C483 C488 1.501 . S
C484 C485 1.387 . S
C484 N487 1.341 . S
C485 C483 1.400 . S
C485 C484 1.387 . S
N486 Co477 2.022 . S
N486 C483 1.351 . S
N486 N487 1.365 . S
N487 C484 1.341 . S
N487 N486 1.365 . S
N487 H507 0.862 . S
C488 C483 1.501 . S
C488 H489 0.961 . S
C488 H490 0.961 . S
C488 H491 0.960 . S
H489 C488 0.961 . S
H490 C488 0.961 . S
H491 C488 0.960 . S
C492 N493 1.342 . S
C492 C496 1.401 . S
C492 C497 1.499 . S
N493 Co476 1.989 . S
N493 C492 1.342 . S
N493 N494 1.388 . S
N494 Co477 1.993 . S
N494 N493 1.388 . S
N494 C495 1.346 . S
C495 N494 1.346 . S
C495 C496 1.396 . S
C495 C505 1.510 . S
C496 C492 1.401 . S
C496 C495 1.396 . S
C497 C492 1.499 . S
C497 H498 0.959 . S
C497 H499 0.960 . S
C497 H500 0.961 . S
H498 C497 0.959 . S
H499 C497 0.960 . S
H500 C497 0.961 . S
O501 Co476 1.967 . S
O501 C509 1.258 . S
O502 Co477 1.941 . S
O502 C509 1.266 . S
H503 C505 0.959 . S
H504 C505 0.961 . S
C505 C495 1.510 . S
C505 H503 0.959 . S
C505 H504 0.961 . S
C505 H506 0.960 . S
H506 C505 0.960 . S
H507 N487 0.862 . S
O508 Co476 1.920 . S
O508 C481 1.289 . S
C509 O501 1.258 . S
C509 O502 1.266 . S
Co510 O513 1.970 . S
Co510 N527 1.989 . S
Co510 O535 1.967 . S
Co510 O542 1.920 . S
Co511 O514 1.966 . S
Co511 N520 2.022 . S
Co511 N528 1.993 . S
Co511 O536 1.941 . S
C512 O513 1.258 . S
C512 O514 1.263 . S
O513 Co510 1.970 . S
O513 C512 1.258 . S
O514 Co511 1.966 . S
O514 C512 1.263 . S
C515 O516 1.235 . S
C515 O542 1.289 . S
O516 C515 1.235 . S
C517 C519 1.400 . S
C517 N520 1.351 . S
C517 C522 1.501 . S
C518 C519 1.387 . S
C518 N521 1.341 . S
C519 C517 1.400 . S
C519 C518 1.387 . S
N520 Co511 2.022 . S
N520 C517 1.351 . S
N520 N521 1.365 . S
N521 C518 1.341 . S
N521 N520 1.365 . S
N521 H541 0.862 . S
C522 C517 1.501 . S
C522 H523 0.961 . S
C522 H524 0.961 . S
C522 H525 0.960 . S
H523 C522 0.961 . S
H524 C522 0.961 . S
H525 C522 0.960 . S
C526 N527 1.342 . S
C526 C530 1.401 1_554 S
C526 C531 1.499 1_554 S
N527 Co510 1.989 . S
N527 C526 1.342 . S
N527 N528 1.388 . S
N528 Co511 1.993 . S
N528 N527 1.388 . S
N528 C529 1.346 . S
C529 N528 1.346 . S
C529 C530 1.396 1_554 S
C529 C539 1.510 . S
C530 C526 1.401 1_556 S
C530 C529 1.396 1_556 S
C531 C526 1.499 1_556 S
C531 H532 0.959 . S
C531 H533 0.960 . S
C531 H534 0.961 . S
H532 C531 0.959 . S
H533 C531 0.960 . S
H534 C531 0.961 . S
O535 Co510 1.967 . S
O535 C543 1.258 . S
O536 Co511 1.941 . S
O536 C543 1.266 . S
H537 C539 0.959 . S
H538 C539 0.961 . S
C539 C529 1.510 . S
C539 H537 0.959 . S
C539 H538 0.961 . S
C539 H540 0.960 . S
H540 C539 0.960 . S
H541 N521 0.862 . S
O542 Co510 1.920 . S
O542 C515 1.289 . S
C543 O535 1.258 . S
C543 O536 1.266 . S
Co544 O547 1.970 . S
Co544 N561 1.989 . S
Co544 O569 1.967 . S
Co544 O576 1.920 . S
Co545 O548 1.966 . S
Co545 N554 2.022 . S
Co545 N562 1.993 . S
Co545 O570 1.941 . S
C546 O547 1.258 . S
C546 O548 1.263 . S
O547 Co544 1.970 . S
O547 C546 1.258 . S
O548 Co545 1.966 . S
O548 C546 1.263 . S
C549 O550 1.235 . S
C549 O576 1.289 . S
O550 C549 1.235 . S
C551 C553 1.400 . S
C551 N554 1.351 . S
C551 C556 1.501 . S
C552 C553 1.387 . S
C552 N555 1.341 . S
C553 C551 1.400 . S
C553 C552 1.387 . S
N554 Co545 2.022 . S
N554 C551 1.351 . S
N554 N555 1.365 . S
N555 C552 1.341 . S
N555 N554 1.365 . S
N555 H575 0.862 . S
C556 C551 1.501 . S
C556 H557 0.961 . S
C556 H558 0.961 . S
C556 H559 0.960 . S
H557 C556 0.961 . S
H558 C556 0.961 . S
H559 C556 0.960 . S
C560 N561 1.342 . S
C560 C564 1.401 . S
C560 C565 1.499 . S
N561 Co544 1.989 . S
N561 C560 1.342 . S
N561 N562 1.388 . S
N562 Co545 1.993 . S
N562 N561 1.388 . S
N562 C563 1.346 . S
C563 N562 1.346 . S
C563 C564 1.396 . S
C563 C573 1.510 . S
C564 C560 1.401 . S
C564 C563 1.396 . S
C565 C560 1.499 . S
C565 H566 0.959 . S
C565 H567 0.960 . S
C565 H568 0.961 . S
H566 C565 0.959 . S
H567 C565 0.960 . S
H568 C565 0.961 . S
O569 Co544 1.967 . S
O569 C577 1.258 . S
O570 Co545 1.941 . S
O570 C577 1.266 . S
H571 C573 0.959 . S
H572 C573 0.961 . S
C573 C563 1.510 . S
C573 H571 0.959 . S
C573 H572 0.961 . S
C573 H574 0.960 . S
H574 C573 0.960 . S
H575 N555 0.862 . S
O576 Co544 1.920 . S
O576 C549 1.289 . S
C577 O569 1.258 . S
C577 O570 1.266 . S
Co578 O581 1.970 . S
Co578 N595 1.989 . S
Co578 O603 1.967 . S
Co578 O610 1.920 . S
Co579 O582 1.966 . S
Co579 N588 2.022 . S
Co579 N596 1.993 . S
Co579 O604 1.941 . S
C580 O581 1.258 . S
C580 O582 1.263 . S
O581 Co578 1.970 . S
O581 C580 1.258 . S
O582 Co579 1.966 . S
O582 C580 1.263 . S
C583 O584 1.235 . S
C583 O610 1.289 . S
O584 C583 1.235 . S
C585 C587 1.400 . S
C585 N588 1.351 . S
C585 C590 1.501 . S
C586 C587 1.387 . S
C586 N589 1.341 . S
C587 C585 1.400 . S
C587 C586 1.387 . S
N588 Co579 2.022 . S
N588 C585 1.351 . S
N588 N589 1.365 . S
N589 C586 1.341 . S
N589 N588 1.365 . S
N589 H609 0.862 . S
C590 C585 1.501 . S
C590 H591 0.961 . S
C590 H592 0.961 . S
C590 H593 0.960 . S
H591 C590 0.961 . S
H592 C590 0.961 . S
H593 C590 0.960 . S
C594 N595 1.342 . S
C594 C598 1.401 1_554 S
C594 C599 1.499 1_554 S
N595 Co578 1.989 . S
N595 C594 1.342 . S
N595 N596 1.388 . S
N596 Co579 1.993 . S
N596 N595 1.388 . S
N596 C597 1.346 . S
C597 N596 1.346 . S
C597 C598 1.396 1_554 S
C597 C607 1.510 . S
C598 C594 1.401 1_556 S
C598 C597 1.396 1_556 S
C599 C594 1.499 1_556 S
C599 H600 0.959 . S
C599 H601 0.960 . S
C599 H602 0.961 . S
H600 C599 0.959 . S
H601 C599 0.960 . S
H602 C599 0.961 . S
O603 Co578 1.967 . S
O603 C611 1.258 . S
O604 Co579 1.941 . S
O604 C611 1.266 . S
H605 C607 0.959 . S
H606 C607 0.961 . S
C607 C597 1.510 . S
C607 H605 0.959 . S
C607 H606 0.961 . S
C607 H608 0.960 . S
H608 C607 0.960 . S
H609 N589 0.862 . S
O610 Co578 1.920 . S
O610 C583 1.289 . S
C611 O603 1.258 . S
C611 O604 1.266 . S
Co612 O615 1.970 . S
Co612 N629 1.989 . S
Co612 O637 1.967 . S
Co612 O644 1.920 . S
Co613 O616 1.966 . S
Co613 N622 2.022 . S
Co613 N630 1.993 . S
Co613 O638 1.941 . S
C614 O615 1.258 . S
C614 O616 1.263 . S
O615 Co612 1.970 . S
O615 C614 1.258 . S
O616 Co613 1.966 . S
O616 C614 1.263 . S
C617 O618 1.235 . S
C617 O644 1.289 . S
O618 C617 1.235 . S
C619 C621 1.400 . S
C619 N622 1.351 . S
C619 C624 1.501 . S
C620 C621 1.387 . S
C620 N623 1.341 . S
C621 C619 1.400 . S
C621 C620 1.387 . S
N622 Co613 2.022 . S
N622 C619 1.351 . S
N622 N623 1.365 . S
N623 C620 1.341 . S
N623 N622 1.365 . S
N623 H643 0.862 . S
C624 C619 1.501 . S
C624 H625 0.961 . S
C624 H626 0.961 . S
C624 H627 0.960 . S
H625 C624 0.961 . S
H626 C624 0.961 . S
H627 C624 0.960 . S
C628 N629 1.342 . S
C628 C632 1.401 . S
C628 C633 1.499 . S
N629 Co612 1.989 . S
N629 C628 1.342 . S
N629 N630 1.388 . S
N630 Co613 1.993 . S
N630 N629 1.388 . S
N630 C631 1.346 . S
C631 N630 1.346 . S
C631 C632 1.396 . S
C631 C641 1.510 . S
C632 C628 1.401 . S
C632 C631 1.396 . S
C633 C628 1.499 . S
C633 H634 0.959 . S
C633 H635 0.960 . S
C633 H636 0.961 . S
H634 C633 0.959 . S
H635 C633 0.960 . S
H636 C633 0.961 . S
O637 Co612 1.967 . S
O637 C645 1.258 . S
O638 Co613 1.941 . S
O638 C645 1.266 . S
H639 C641 0.959 . S
H640 C641 0.961 . S
C641 C631 1.510 . S
C641 H639 0.959 . S
C641 H640 0.961 . S
C641 H642 0.960 . S
H642 C641 0.960 . S
H643 N623 0.862 . S
O644 Co612 1.920 . S
O644 C617 1.289 . S
C645 O637 1.258 . S
C645 O638 1.266 . S
Co646 O649 1.970 . S
Co646 N663 1.989 . S
Co646 O671 1.967 . S
Co646 O678 1.920 . S
Co647 O650 1.966 . S
Co647 N656 2.022 . S
Co647 N664 1.993 . S
Co647 O672 1.941 . S
C648 O649 1.258 . S
C648 O650 1.263 . S
O649 Co646 1.970 . S
O649 C648 1.258 . S
O650 Co647 1.966 . S
O650 C648 1.263 . S
C651 O652 1.235 . S
C651 O678 1.289 . S
O652 C651 1.235 . S
C653 C655 1.400 . S
C653 N656 1.351 . S
C653 C658 1.501 . S
C654 C655 1.387 . S
C654 N657 1.341 . S
C655 C653 1.400 . S
C655 C654 1.387 . S
N656 Co647 2.022 . S
N656 C653 1.351 . S
N656 N657 1.365 . S
N657 C654 1.341 . S
N657 N656 1.365 . S
N657 H677 0.862 . S
C658 C653 1.501 . S
C658 H659 0.961 . S
C658 H660 0.961 . S
C658 H661 0.960 . S
H659 C658 0.961 . S
H660 C658 0.961 . S
H661 C658 0.960 . S
C662 N663 1.342 . S
C662 C666 1.401 . S
C662 C667 1.499 . S
N663 Co646 1.989 . S
N663 C662 1.342 . S
N663 N664 1.388 . S
N664 Co647 1.993 . S
N664 N663 1.388 . S
N664 C665 1.346 . S
C665 N664 1.346 . S
C665 C666 1.396 . S
C665 C675 1.510 . S
C666 C662 1.401 . S
C666 C665 1.396 . S
C667 C662 1.499 . S
C667 H668 0.959 . S
C667 H669 0.960 . S
C667 H670 0.961 . S
H668 C667 0.959 . S
H669 C667 0.960 . S
H670 C667 0.961 . S
O671 Co646 1.967 . S
O671 C679 1.258 . S
O672 Co647 1.941 . S
O672 C679 1.266 . S
H673 C675 0.959 . S
H674 C675 0.961 . S
C675 C665 1.510 . S
C675 H673 0.959 . S
C675 H674 0.961 . S
C675 H676 0.960 . S
H676 C675 0.960 . S
H677 N657 0.862 . S
O678 Co646 1.920 . S
O678 C651 1.289 . S
C679 O671 1.258 . S
C679 O672 1.266 . S
Co680 O683 1.970 . S
Co680 N697 1.989 . S
Co680 O705 1.967 . S
Co680 O712 1.920 . S
Co681 O684 1.966 . S
Co681 N690 2.022 . S
Co681 N698 1.993 . S
Co681 O706 1.941 . S
C682 O683 1.258 . S
C682 O684 1.263 . S
O683 Co680 1.970 . S
O683 C682 1.258 . S
O684 Co681 1.966 . S
O684 C682 1.263 . S
C685 O686 1.235 . S
C685 O712 1.289 . S
O686 C685 1.235 . S
C687 C689 1.400 . S
C687 N690 1.351 . S
C687 C692 1.501 . S
C688 C689 1.387 . S
C688 N691 1.341 . S
C689 C687 1.400 . S
C689 C688 1.387 . S
N690 Co681 2.022 . S
N690 C687 1.351 . S
N690 N691 1.365 . S
N691 C688 1.341 . S
N691 N690 1.365 . S
N691 H711 0.862 . S
C692 C687 1.501 . S
C692 H693 0.961 . S
C692 H694 0.961 . S
C692 H695 0.960 . S
H693 C692 0.961 . S
H694 C692 0.961 . S
H695 C692 0.960 . S
C696 N697 1.342 . S
C696 C700 1.401 . S
C696 C701 1.499 . S
N697 Co680 1.989 . S
N697 C696 1.342 . S
N697 N698 1.388 . S
N698 Co681 1.993 . S
N698 N697 1.388 . S
N698 C699 1.346 . S
C699 N698 1.346 . S
C699 C700 1.396 . S
C699 C709 1.510 . S
C700 C696 1.401 . S
C700 C699 1.396 . S
C701 C696 1.499 . S
C701 H702 0.959 . S
C701 H703 0.960 . S
C701 H704 0.961 . S
H702 C701 0.959 . S
H703 C701 0.960 . S
H704 C701 0.961 . S
O705 Co680 1.967 . S
O705 C713 1.258 . S
O706 Co681 1.941 . S
O706 C713 1.266 . S
H707 C709 0.959 . S
H708 C709 0.961 . S
C709 C699 1.510 . S
C709 H707 0.959 . S
C709 H708 0.961 . S
C709 H710 0.960 . S
H710 C709 0.960 . S
H711 N691 0.862 . S
O712 Co680 1.920 . S
O712 C685 1.289 . S
C713 O705 1.258 . S
C713 O706 1.266 . S
Co714 O717 1.970 . S
Co714 N731 1.989 . S
Co714 O739 1.967 . S
Co714 O746 1.920 . S
Co715 O718 1.966 . S
Co715 N724 2.022 . S
Co715 N732 1.993 . S
Co715 O740 1.941 . S
C716 O717 1.258 . S
C716 O718 1.263 . S
O717 Co714 1.970 . S
O717 C716 1.258 . S
O718 Co715 1.966 . S
O718 C716 1.263 . S
C719 O720 1.235 . S
C719 O746 1.289 . S
O720 C719 1.235 . S
C721 C723 1.400 . S
C721 N724 1.351 . S
C721 C726 1.501 . S
C722 C723 1.387 . S
C722 N725 1.341 . S
C723 C721 1.400 . S
C723 C722 1.387 . S
N724 Co715 2.022 . S
N724 C721 1.351 . S
N724 N725 1.365 . S
N725 C722 1.341 . S
N725 N724 1.365 . S
N725 H745 0.862 . S
C726 C721 1.501 . S
C726 H727 0.961 . S
C726 H728 0.961 . S
C726 H729 0.960 . S
H727 C726 0.961 . S
H728 C726 0.961 . S
H729 C726 0.960 . S
C730 N731 1.342 . S
C730 C734 1.401 1_556 S
C730 C735 1.499 1_556 S
N731 Co714 1.989 . S
N731 C730 1.342 . S
N731 N732 1.388 . S
N732 Co715 1.993 . S
N732 N731 1.388 . S
N732 C733 1.346 . S
C733 N732 1.346 . S
C733 C734 1.396 1_556 S
C733 C743 1.510 . S
C734 C730 1.401 1_554 S
C734 C733 1.396 1_554 S
C735 C730 1.499 1_554 S
C735 H736 0.959 . S
C735 H737 0.960 . S
C735 H738 0.961 . S
H736 C735 0.959 . S
H737 C735 0.960 . S
H738 C735 0.961 . S
O739 Co714 1.967 . S
O739 C747 1.258 . S
O740 Co715 1.941 . S
O740 C747 1.266 . S
H741 C743 0.959 . S
H742 C743 0.961 . S
C743 C733 1.510 . S
C743 H741 0.959 . S
C743 H742 0.961 . S
C743 H744 0.960 . S
H744 C743 0.960 . S
H745 N725 0.862 . S
O746 Co714 1.920 . S
O746 C719 1.289 . S
C747 O739 1.258 . S
C747 O740 1.266 . S
Co748 O751 1.970 . S
Co748 N765 1.989 . S
Co748 O773 1.967 . S
Co748 O780 1.920 . S
Co749 O752 1.966 . S
Co749 N758 2.022 . S
Co749 N766 1.993 . S
Co749 O774 1.941 . S
C750 O751 1.258 . S
C750 O752 1.263 . S
O751 Co748 1.970 . S
O751 C750 1.258 . S
O752 Co749 1.966 . S
O752 C750 1.263 . S
C753 O754 1.235 . S
C753 O780 1.289 . S
O754 C753 1.235 . S
C755 C757 1.400 . S
C755 N758 1.351 . S
C755 C760 1.501 . S
C756 C757 1.387 . S
C756 N759 1.341 . S
C757 C755 1.400 . S
C757 C756 1.387 . S
N758 Co749 2.022 . S
N758 C755 1.351 . S
N758 N759 1.365 . S
N759 C756 1.341 . S
N759 N758 1.365 . S
N759 H779 0.862 . S
C760 C755 1.501 . S
C760 H761 0.961 . S
C760 H762 0.961 . S
C760 H763 0.960 . S
H761 C760 0.961 . S
H762 C760 0.961 . S
H763 C760 0.960 . S
C764 N765 1.342 . S
C764 C768 1.401 . S
C764 C769 1.499 . S
N765 Co748 1.989 . S
N765 C764 1.342 . S
N765 N766 1.388 . S
N766 Co749 1.993 . S
N766 N765 1.388 . S
N766 C767 1.346 . S
C767 N766 1.346 . S
C767 C768 1.396 . S
C767 C777 1.510 . S
C768 C764 1.401 . S
C768 C767 1.396 . S
C769 C764 1.499 . S
C769 H770 0.959 . S
C769 H771 0.960 . S
C769 H772 0.961 . S
H770 C769 0.959 . S
H771 C769 0.960 . S
H772 C769 0.961 . S
O773 Co748 1.967 . S
O773 C781 1.258 . S
O774 Co749 1.941 . S
O774 C781 1.266 . S
H775 C777 0.959 . S
H776 C777 0.961 . S
C777 C767 1.510 . S
C777 H775 0.959 . S
C777 H776 0.961 . S
C777 H778 0.960 . S
H778 C777 0.960 . S
H779 N759 0.862 . S
O780 Co748 1.920 . S
O780 C753 1.289 . S
C781 O773 1.258 . S
C781 O774 1.266 . S
Co782 O785 1.970 . S
Co782 N799 1.989 . S
Co782 O807 1.967 . S
Co782 O814 1.920 . S
Co783 O786 1.966 . S
Co783 N792 2.022 . S
Co783 N800 1.993 . S
Co783 O808 1.941 . S
C784 O785 1.258 . S
C784 O786 1.263 . S
O785 Co782 1.970 . S
O785 C784 1.258 . S
O786 Co783 1.966 . S
O786 C784 1.263 . S
C787 O788 1.235 . S
C787 O814 1.289 . S
O788 C787 1.235 . S
C789 C791 1.400 . S
C789 N792 1.351 . S
C789 C794 1.501 . S
C790 C791 1.387 . S
C790 N793 1.341 . S
C791 C789 1.400 . S
C791 C790 1.387 . S
N792 Co783 2.022 . S
N792 C789 1.351 . S
N792 N793 1.365 . S
N793 C790 1.341 . S
N793 N792 1.365 . S
N793 H813 0.862 . S
C794 C789 1.501 . S
C794 H795 0.961 . S
C794 H796 0.961 . S
C794 H797 0.960 . S
H795 C794 0.961 . S
H796 C794 0.961 . S
H797 C794 0.960 . S
C798 N799 1.342 . S
C798 C802 1.401 . S
C798 C803 1.499 . S
N799 Co782 1.989 . S
N799 C798 1.342 . S
N799 N800 1.388 . S
N800 Co783 1.993 . S
N800 N799 1.388 . S
N800 C801 1.346 . S
C801 N800 1.346 . S
C801 C802 1.396 . S
C801 C811 1.510 . S
C802 C798 1.401 . S
C802 C801 1.396 . S
C803 C798 1.499 . S
C803 H804 0.959 . S
C803 H805 0.960 . S
C803 H806 0.961 . S
H804 C803 0.959 . S
H805 C803 0.960 . S
H806 C803 0.961 . S
O807 Co782 1.967 . S
O807 C815 1.258 . S
O808 Co783 1.941 . S
O808 C815 1.266 . S
H809 C811 0.959 . S
H810 C811 0.961 . S
C811 C801 1.510 . S
C811 H809 0.959 . S
C811 H810 0.961 . S
C811 H812 0.960 . S
H812 C811 0.960 . S
H813 N793 0.862 . S
O814 Co782 1.920 . S
O814 C787 1.289 . S
C815 O807 1.258 . S
C815 O808 1.266 . S
Co816 O819 1.970 . S
Co816 N833 1.989 . S
Co816 O841 1.967 . S
Co816 O848 1.920 . S
Co817 O820 1.966 . S
Co817 N826 2.022 . S
Co817 N834 1.993 . S
Co817 O842 1.941 . S
C818 O819 1.258 . S
C818 O820 1.263 . S
O819 Co816 1.970 . S
O819 C818 1.258 . S
O820 Co817 1.966 . S
O820 C818 1.263 . S
C821 O822 1.235 . S
C821 O848 1.289 . S
O822 C821 1.235 . S
C823 C825 1.400 . S
C823 N826 1.351 . S
C823 C828 1.501 . S
C824 C825 1.387 . S
C824 N827 1.341 . S
C825 C823 1.400 . S
C825 C824 1.387 . S
N826 Co817 2.022 . S
N826 C823 1.351 . S
N826 N827 1.365 . S
N827 C824 1.341 . S
N827 N826 1.365 . S
N827 H847 0.862 . S
C828 C823 1.501 . S
C828 H829 0.961 . S
C828 H830 0.961 . S
C828 H831 0.960 . S
H829 C828 0.961 . S
H830 C828 0.961 . S
H831 C828 0.960 . S
C832 N833 1.342 . S
C832 C836 1.401 . S
C832 C837 1.499 . S
N833 Co816 1.989 . S
N833 C832 1.342 . S
N833 N834 1.388 . S
N834 Co817 1.993 . S
N834 N833 1.388 . S
N834 C835 1.346 . S
C835 N834 1.346 . S
C835 C836 1.396 . S
C835 C845 1.510 . S
C836 C832 1.401 . S
C836 C835 1.396 . S
C837 C832 1.499 . S
C837 H838 0.959 . S
C837 H839 0.960 . S
C837 H840 0.961 . S
H838 C837 0.959 . S
H839 C837 0.960 . S
H840 C837 0.961 . S
O841 Co816 1.967 . S
O841 C849 1.258 . S
O842 Co817 1.941 . S
O842 C849 1.266 . S
H843 C845 0.959 . S
H844 C845 0.961 . S
C845 C835 1.510 . S
C845 H843 0.959 . S
C845 H844 0.961 . S
C845 H846 0.960 . S
H846 C845 0.960 . S
H847 N827 0.862 . S
O848 Co816 1.920 . S
O848 C821 1.289 . S
C849 O841 1.258 . S
C849 O842 1.266 . S
Co850 O853 1.970 . S
Co850 N867 1.989 . S
Co850 O875 1.967 . S
Co850 O882 1.920 . S
Co851 O854 1.966 . S
Co851 N860 2.022 . S
Co851 N868 1.993 . S
Co851 O876 1.941 . S
C852 O853 1.258 . S
C852 O854 1.263 . S
O853 Co850 1.970 . S
O853 C852 1.258 . S
O854 Co851 1.966 . S
O854 C852 1.263 . S
C855 O856 1.235 . S
C855 O882 1.289 . S
O856 C855 1.235 . S
C857 C859 1.400 . S
C857 N860 1.351 . S
C857 C862 1.501 . S
C858 C859 1.387 . S
C858 N861 1.341 . S
C859 C857 1.400 . S
C859 C858 1.387 . S
N860 Co851 2.022 . S
N860 C857 1.351 . S
N860 N861 1.365 . S
N861 C858 1.341 . S
N861 N860 1.365 . S
N861 H881 0.862 . S
C862 C857 1.501 . S
C862 H863 0.961 . S
C862 H864 0.961 . S
C862 H865 0.960 . S
H863 C862 0.961 . S
H864 C862 0.961 . S
H865 C862 0.960 . S
C866 N867 1.342 . S
C866 C870 1.401 1_556 S
C866 C871 1.499 1_556 S
N867 Co850 1.989 . S
N867 C866 1.342 . S
N867 N868 1.388 . S
N868 Co851 1.993 . S
N868 N867 1.388 . S
N868 C869 1.346 . S
C869 N868 1.346 . S
C869 C870 1.396 1_556 S
C869 C879 1.510 . S
C870 C866 1.401 1_554 S
C870 C869 1.396 1_554 S
C871 C866 1.499 1_554 S
C871 H872 0.959 . S
C871 H873 0.960 . S
C871 H874 0.961 . S
H872 C871 0.959 . S
H873 C871 0.960 . S
H874 C871 0.961 . S
O875 Co850 1.967 . S
O875 C883 1.258 . S
O876 Co851 1.941 . S
O876 C883 1.266 . S
H877 C879 0.959 . S
H878 C879 0.961 . S
C879 C869 1.510 . S
C879 H877 0.959 . S
C879 H878 0.961 . S
C879 H880 0.960 . S
H880 C879 0.960 . S
H881 N861 0.862 . S
O882 Co850 1.920 . S
O882 C855 1.289 . S
C883 O875 1.258 . S
C883 O876 1.266 . S
Co884 O887 1.970 . S
Co884 N901 1.989 . S
Co884 O909 1.967 . S
Co884 O916 1.920 . S
Co885 O888 1.966 . S
Co885 N894 2.022 . S
Co885 N902 1.993 . S
Co885 O910 1.941 . S
C886 O887 1.258 . S
C886 O888 1.263 . S
O887 Co884 1.970 . S
O887 C886 1.258 . S
O888 Co885 1.966 . S
O888 C886 1.263 . S
C889 O890 1.235 . S
C889 O916 1.289 . S
O890 C889 1.235 . S
C891 C893 1.400 . S
C891 N894 1.351 . S
C891 C896 1.501 . S
C892 C893 1.387 . S
C892 N895 1.341 . S
C893 C891 1.400 . S
C893 C892 1.387 . S
N894 Co885 2.022 . S
N894 C891 1.351 . S
N894 N895 1.365 . S
N895 C892 1.341 . S
N895 N894 1.365 . S
N895 H915 0.862 . S
C896 C891 1.501 . S
C896 H897 0.961 . S
C896 H898 0.961 . S
C896 H899 0.960 . S
H897 C896 0.961 . S
H898 C896 0.961 . S
H899 C896 0.960 . S
C900 N901 1.342 . S
C900 C904 1.401 . S
C900 C905 1.499 . S
N901 Co884 1.989 . S
N901 C900 1.342 . S
N901 N902 1.388 . S
N902 Co885 1.993 . S
N902 N901 1.388 . S
N902 C903 1.346 . S
C903 N902 1.346 . S
C903 C904 1.396 . S
C903 C913 1.510 . S
C904 C900 1.401 . S
C904 C903 1.396 . S
C905 C900 1.499 . S
C905 H906 0.959 . S
C905 H907 0.960 . S
C905 H908 0.961 . S
H906 C905 0.959 . S
H907 C905 0.960 . S
H908 C905 0.961 . S
O909 Co884 1.967 . S
O909 C917 1.258 . S
O910 Co885 1.941 . S
O910 C917 1.266 . S
H911 C913 0.959 . S
H912 C913 0.961 . S
C913 C903 1.510 . S
C913 H911 0.959 . S
C913 H912 0.961 . S
C913 H914 0.960 . S
H914 C913 0.960 . S
H915 N895 0.862 . S
O916 Co884 1.920 . S
O916 C889 1.289 . S
C917 O909 1.258 . S
C917 O910 1.266 . S
Co918 O921 1.970 . S
Co918 N935 1.989 . S
Co918 O943 1.967 . S
Co918 O950 1.920 . S
Co919 O922 1.966 . S
Co919 N928 2.022 . S
Co919 N936 1.993 . S
Co919 O944 1.941 . S
C920 O921 1.258 . S
C920 O922 1.263 . S
O921 Co918 1.970 . S
O921 C920 1.258 . S
O922 Co919 1.966 . S
O922 C920 1.263 . S
C923 O924 1.235 . S
C923 O950 1.289 . S
O924 C923 1.235 . S
C925 C927 1.400 . S
C925 N928 1.351 . S
C925 C930 1.501 . S
C926 C927 1.387 . S
C926 N929 1.341 . S
C927 C925 1.400 . S
C927 C926 1.387 . S
N928 Co919 2.022 . S
N928 C925 1.351 . S
N928 N929 1.365 . S
N929 C926 1.341 . S
N929 N928 1.365 . S
N929 H949 0.862 . S
C930 C925 1.501 . S
C930 H931 0.961 . S
C930 H932 0.961 . S
C930 H933 0.960 . S
H931 C930 0.961 . S
H932 C930 0.961 . S
H933 C930 0.960 . S
C934 N935 1.342 . S
C934 C938 1.401 . S
C934 C939 1.499 . S
N935 Co918 1.989 . S
N935 C934 1.342 . S
N935 N936 1.388 . S
N936 Co919 1.993 . S
N936 N935 1.388 . S
N936 C937 1.346 . S
C937 N936 1.346 . S
C937 C938 1.396 . S
C937 C947 1.510 . S
C938 C934 1.401 . S
C938 C937 1.396 . S
C939 C934 1.499 . S
C939 H940 0.959 . S
C939 H941 0.960 . S
C939 H942 0.961 . S
H940 C939 0.959 . S
H941 C939 0.960 . S
H942 C939 0.961 . S
O943 Co918 1.967 . S
O943 C951 1.258 . S
O944 Co919 1.941 . S
O944 C951 1.266 . S
H945 C947 0.959 . S
H946 C947 0.961 . S
C947 C937 1.510 . S
C947 H945 0.959 . S
C947 H946 0.961 . S
C947 H948 0.960 . S
H948 C947 0.960 . S
H949 N929 0.862 . S
O950 Co918 1.920 . S
O950 C923 1.289 . S
C951 O943 1.258 . S
C951 O944 1.266 . S
Co952 O955 1.970 . S
Co952 N969 1.989 . S
Co952 O977 1.967 . S
Co952 O984 1.920 . S
Co953 O956 1.966 . S
Co953 N962 2.022 . S
Co953 N970 1.993 . S
Co953 O978 1.941 . S
C954 O955 1.258 . S
C954 O956 1.263 . S
O955 Co952 1.970 . S
O955 C954 1.258 . S
O956 Co953 1.966 . S
O956 C954 1.263 . S
C957 O958 1.235 . S
C957 O984 1.289 . S
O958 C957 1.235 . S
C959 C961 1.400 . S
C959 N962 1.351 . S
C959 C964 1.501 . S
C960 C961 1.387 . S
C960 N963 1.341 . S
C961 C959 1.400 . S
C961 C960 1.387 . S
N962 Co953 2.022 . S
N962 C959 1.351 . S
N962 N963 1.365 . S
N963 C960 1.341 . S
N963 N962 1.365 . S
N963 H983 0.862 . S
C964 C959 1.501 . S
C964 H965 0.961 . S
C964 H966 0.961 . S
C964 H967 0.960 . S
H965 C964 0.961 . S
H966 C964 0.961 . S
H967 C964 0.960 . S
C968 N969 1.342 . S
C968 C972 1.401 . S
C968 C973 1.499 . S
N969 Co952 1.989 . S
N969 C968 1.342 . S
N969 N970 1.388 . S
N970 Co953 1.993 . S
N970 N969 1.388 . S
N970 C971 1.346 . S
C971 N970 1.346 . S
C971 C972 1.396 . S
C971 C981 1.510 . S
C972 C968 1.401 . S
C972 C971 1.396 . S
C973 C968 1.499 . S
C973 H974 0.959 . S
C973 H975 0.960 . S
C973 H976 0.961 . S
H974 C973 0.959 . S
H975 C973 0.960 . S
H976 C973 0.961 . S
O977 Co952 1.967 . S
O977 C985 1.258 . S
O978 Co953 1.941 . S
O978 C985 1.266 . S
H979 C981 0.959 . S
H980 C981 0.961 . S
C981 C971 1.510 . S
C981 H979 0.959 . S
C981 H980 0.961 . S
C981 H982 0.960 . S
H982 C981 0.960 . S
H983 N963 0.862 . S
O984 Co952 1.920 . S
O984 C957 1.289 . S
C985 O977 1.258 . S
C985 O978 1.266 . S
Co986 O989 1.970 . S
Co986 N1003 1.989 . S
Co986 O1011 1.967 . S
Co986 O1018 1.920 . S
Co987 O990 1.966 . S
Co987 N996 2.022 . S
Co987 N1004 1.993 . S
Co987 O1012 1.941 . S
C988 O989 1.258 . S
C988 O990 1.263 . S
O989 Co986 1.970 . S
O989 C988 1.258 . S
O990 Co987 1.966 . S
O990 C988 1.263 . S
C991 O992 1.235 . S
C991 O1018 1.289 . S
O992 C991 1.235 . S
C993 C995 1.400 . S
C993 N996 1.351 . S
C993 C998 1.501 . S
C994 C995 1.387 . S
C994 N997 1.341 . S
C995 C993 1.400 . S
C995 C994 1.387 . S
N996 Co987 2.022 . S
N996 C993 1.351 . S
N996 N997 1.365 . S
N997 C994 1.341 . S
N997 N996 1.365 . S
N997 H1017 0.862 . S
C998 C993 1.501 . S
C998 H999 0.961 . S
C998 H1000 0.961 . S
C998 H1001 0.960 . S
H999 C998 0.961 . S
H1000 C998 0.961 . S
H1001 C998 0.960 . S
C1002 N1003 1.342 . S
C1002 C1006 1.401 1_554 S
C1002 C1007 1.499 1_554 S
N1003 Co986 1.989 . S
N1003 C1002 1.342 . S
N1003 N1004 1.388 . S
N1004 Co987 1.993 . S
N1004 N1003 1.388 . S
N1004 C1005 1.346 . S
C1005 N1004 1.346 . S
C1005 C1006 1.396 1_554 S
C1005 C1015 1.510 . S
C1006 C1002 1.401 1_556 S
C1006 C1005 1.396 1_556 S
C1007 C1002 1.499 1_556 S
C1007 H1008 0.959 . S
C1007 H1009 0.960 . S
C1007 H1010 0.961 . S
H1008 C1007 0.959 . S
H1009 C1007 0.960 . S
H1010 C1007 0.961 . S
O1011 Co986 1.967 . S
O1011 C1019 1.258 . S
O1012 Co987 1.941 . S
O1012 C1019 1.266 . S
H1013 C1015 0.959 . S
H1014 C1015 0.961 . S
C1015 C1005 1.510 . S
C1015 H1013 0.959 . S
C1015 H1014 0.961 . S
C1015 H1016 0.960 . S
H1016 C1015 0.960 . S
H1017 N997 0.862 . S
O1018 Co986 1.920 . S
O1018 C991 1.289 . S
C1019 O1011 1.258 . S
C1019 O1012 1.266 . S
Co1020 O1023 1.970 . S
Co1020 N1037 1.989 . S
Co1020 O1045 1.967 . S
Co1020 O1052 1.920 . S
Co1021 O1024 1.966 . S
Co1021 N1030 2.022 . S
Co1021 N1038 1.993 . S
Co1021 O1046 1.941 . S
C1022 O1023 1.258 . S
C1022 O1024 1.263 . S
O1023 Co1020 1.970 . S
O1023 C1022 1.258 . S
O1024 Co1021 1.966 . S
O1024 C1022 1.263 . S
C1025 O1026 1.235 . S
C1025 O1052 1.289 . S
O1026 C1025 1.235 . S
C1027 C1029 1.400 . S
C1027 N1030 1.351 . S
C1027 C1032 1.501 . S
C1028 C1029 1.387 . S
C1028 N1031 1.341 . S
C1029 C1027 1.400 . S
C1029 C1028 1.387 . S
N1030 Co1021 2.022 . S
N1030 C1027 1.351 . S
N1030 N1031 1.365 . S
N1031 C1028 1.341 . S
N1031 N1030 1.365 . S
N1031 H1051 0.862 . S
C1032 C1027 1.501 . S
C1032 H1033 0.961 . S
C1032 H1034 0.961 . S
C1032 H1035 0.960 . S
H1033 C1032 0.961 . S
H1034 C1032 0.961 . S
H1035 C1032 0.960 . S
C1036 N1037 1.342 . S
C1036 C1040 1.401 . S
C1036 C1041 1.499 . S
N1037 Co1020 1.989 . S
N1037 C1036 1.342 . S
N1037 N1038 1.388 . S
N1038 Co1021 1.993 . S
N1038 N1037 1.388 . S
N1038 C1039 1.346 . S
C1039 N1038 1.346 . S
C1039 C1040 1.396 . S
C1039 C1049 1.510 . S
C1040 C1036 1.401 . S
C1040 C1039 1.396 . S
C1041 C1036 1.499 . S
C1041 H1042 0.959 . S
C1041 H1043 0.960 . S
C1041 H1044 0.961 . S
H1042 C1041 0.959 . S
H1043 C1041 0.960 . S
H1044 C1041 0.961 . S
O1045 Co1020 1.967 . S
O1045 C1053 1.258 . S
O1046 Co1021 1.941 . S
O1046 C1053 1.266 . S
H1047 C1049 0.959 . S
H1048 C1049 0.961 . S
C1049 C1039 1.510 . S
C1049 H1047 0.959 . S
C1049 H1048 0.961 . S
C1049 H1050 0.960 . S
H1050 C1049 0.960 . S
H1051 N1031 0.862 . S
O1052 Co1020 1.920 . S
O1052 C1025 1.289 . S
C1053 O1045 1.258 . S
C1053 O1046 1.266 . S
Co1054 O1057 1.970 . S
Co1054 N1071 1.989 . S
Co1054 O1079 1.967 . S
Co1054 O1086 1.920 . S
Co1055 O1058 1.966 . S
Co1055 N1064 2.022 . S
Co1055 N1072 1.993 . S
Co1055 O1080 1.941 . S
C1056 O1057 1.258 . S
C1056 O1058 1.263 . S
O1057 Co1054 1.970 . S
O1057 C1056 1.258 . S
O1058 Co1055 1.966 . S
O1058 C1056 1.263 . S
C1059 O1060 1.235 . S
C1059 O1086 1.289 . S
O1060 C1059 1.235 . S
C1061 C1063 1.400 . S
C1061 N1064 1.351 . S
C1061 C1066 1.501 . S
C1062 C1063 1.387 . S
C1062 N1065 1.341 . S
C1063 C1061 1.400 . S
C1063 C1062 1.387 . S
N1064 Co1055 2.022 . S
N1064 C1061 1.351 . S
N1064 N1065 1.365 . S
N1065 C1062 1.341 . S
N1065 N1064 1.365 . S
N1065 H1085 0.862 . S
C1066 C1061 1.501 . S
C1066 H1067 0.961 . S
C1066 H1068 0.961 . S
C1066 H1069 0.960 . S
H1067 C1066 0.961 . S
H1068 C1066 0.961 . S
H1069 C1066 0.960 . S
C1070 N1071 1.342 . S
C1070 C1074 1.401 . S
C1070 C1075 1.499 . S
N1071 Co1054 1.989 . S
N1071 C1070 1.342 . S
N1071 N1072 1.388 . S
N1072 Co1055 1.993 . S
N1072 N1071 1.388 . S
N1072 C1073 1.346 . S
C1073 N1072 1.346 . S
C1073 C1074 1.396 . S
C1073 C1083 1.510 . S
C1074 C1070 1.401 . S
C1074 C1073 1.396 . S
C1075 C1070 1.499 . S
C1075 H1076 0.959 . S
C1075 H1077 0.960 . S
C1075 H1078 0.961 . S
H1076 C1075 0.959 . S
H1077 C1075 0.960 . S
H1078 C1075 0.961 . S
O1079 Co1054 1.967 . S
O1079 C1087 1.258 . S
O1080 Co1055 1.941 . S
O1080 C1087 1.266 . S
H1081 C1083 0.959 . S
H1082 C1083 0.961 . S
C1083 C1073 1.510 . S
C1083 H1081 0.959 . S
C1083 H1082 0.961 . S
C1083 H1084 0.960 . S
H1084 C1083 0.960 . S
H1085 N1065 0.862 . S
O1086 Co1054 1.920 . S
O1086 C1059 1.289 . S
C1087 O1079 1.258 . S
C1087 O1080 1.266 . S
H1088 C1094 0.930 . S
H1089 C1098 0.930 . S
H1090 C1103 0.929 . S
H1091 C1101 0.929 . S
H1092 C1096 0.929 . S
H1093 C1102 0.929 . S
C1094 H1088 0.930 . S
C1094 C1095 1.367 . S
C1094 C1102 1.378 . S
C1095 C1094 1.367 . S
C1095 C1103 1.433 . S
C1096 H1092 0.929 . S
C1096 C1098 1.378 . S
C1096 C1100 1.350 . S
C1097 C1100 1.463 . S
C1097 C1102 1.350 . S
C1097 N1105 1.427 . S
C1098 H1089 0.930 . S
C1098 C1096 1.378 . S
C1098 C1099 1.367 . S
C1099 C1098 1.367 . S
C1099 C1101 1.433 . S
C1100 C1096 1.350 . S
C1100 C1097 1.463 . S
C1100 N1104 1.427 . S
C1101 H1091 0.929 . S
C1101 C1099 1.433 . S
C1101 N1104 1.384 . S
C1102 H1093 0.929 . S
C1102 C1094 1.378 . S
C1102 C1097 1.350 . S
C1103 H1090 0.929 . S
C1103 C1095 1.433 . S
C1103 N1105 1.384 . S
N1104 C1100 1.427 . S
N1104 C1101 1.384 . S
N1105 C1097 1.427 . S
N1105 C1103 1.384 . S
H1106 C1112 0.930 . S
H1107 C1116 0.930 . S
H1108 C1121 0.929 . S
H1109 C1119 0.929 . S
H1110 C1114 0.929 . S
H1111 C1120 0.929 . S
C1112 H1106 0.930 . S
C1112 C1113 1.367 . S
C1112 C1120 1.378 . S
C1113 C1112 1.367 . S
C1113 C1121 1.433 . S
C1114 H1110 0.929 . S
C1114 C1116 1.378 . S
C1114 C1118 1.350 . S
C1115 C1118 1.463 . S
C1115 C1120 1.350 . S
C1115 N1123 1.427 . S
C1116 H1107 0.930 . S
C1116 C1114 1.378 . S
C1116 C1117 1.367 . S
C1117 C1116 1.367 . S
C1117 C1119 1.433 . S
C1118 C1114 1.350 . S
C1118 C1115 1.463 . S
C1118 N1122 1.427 . S
C1119 H1109 0.929 . S
C1119 C1117 1.433 . S
C1119 N1122 1.384 . S
C1120 H1111 0.929 . S
C1120 C1112 1.378 . S
C1120 C1115 1.350 . S
C1121 H1108 0.929 . S
C1121 C1113 1.433 . S
C1121 N1123 1.384 . S
N1122 C1118 1.427 . S
N1122 C1119 1.384 . S
N1123 C1115 1.427 . S
N1123 C1121 1.384 . S
H1124 C1130 0.930 . S
H1125 C1134 0.930 . S
H1126 C1139 0.929 . S
H1127 C1137 0.929 . S
H1128 C1132 0.929 . S
H1129 C1138 0.929 . S
C1130 H1124 0.930 . S
C1130 C1131 1.367 . S
C1130 C1138 1.378 . S
C1131 C1130 1.367 . S
C1131 C1139 1.433 . S
C1132 H1128 0.929 . S
C1132 C1134 1.378 . S
C1132 C1136 1.350 . S
C1133 C1136 1.463 . S
C1133 C1138 1.350 . S
C1133 N1141 1.427 . S
C1134 H1125 0.930 . S
C1134 C1132 1.378 . S
C1134 C1135 1.367 . S
C1135 C1134 1.367 . S
C1135 C1137 1.433 . S
C1136 C1132 1.350 . S
C1136 C1133 1.463 . S
C1136 N1140 1.427 . S
C1137 H1127 0.929 . S
C1137 C1135 1.433 . S
C1137 N1140 1.384 . S
C1138 H1129 0.929 . S
C1138 C1130 1.378 . S
C1138 C1133 1.350 . S
C1139 H1126 0.929 . S
C1139 C1131 1.433 . S
C1139 N1141 1.384 . S
N1140 C1136 1.427 . S
N1140 C1137 1.384 . S
N1141 C1133 1.427 . S
N1141 C1139 1.384 . S
H1142 C1148 0.930 . S
H1143 C1152 0.930 . S
H1144 C1157 0.929 . S
H1145 C1155 0.929 . S
H1146 C1150 0.929 . S
H1147 C1156 0.929 . S
C1148 H1142 0.930 . S
C1148 C1149 1.367 . S
C1148 C1156 1.378 . S
C1149 C1148 1.367 . S
C1149 C1157 1.433 . S
C1150 H1146 0.929 . S
C1150 C1152 1.378 . S
C1150 C1154 1.350 . S
C1151 C1154 1.463 . S
C1151 C1156 1.350 . S
C1151 N1159 1.427 . S
C1152 H1143 0.930 . S
C1152 C1150 1.378 . S
C1152 C1153 1.367 . S
C1153 C1152 1.367 . S
C1153 C1155 1.433 . S
C1154 C1150 1.350 . S
C1154 C1151 1.463 . S
C1154 N1158 1.427 . S
C1155 H1145 0.929 . S
C1155 C1153 1.433 . S
C1155 N1158 1.384 . S
C1156 H1147 0.929 . S
C1156 C1148 1.378 . S
C1156 C1151 1.350 . S
C1157 H1144 0.929 . S
C1157 C1149 1.433 . S
C1157 N1159 1.384 . S
N1158 C1154 1.427 . S
N1158 C1155 1.384 . S
N1159 C1151 1.427 . S
N1159 C1157 1.384 . S
H1160 C1166 0.930 . S
H1161 C1170 0.930 . S
H1162 C1175 0.929 . S
H1163 C1173 0.929 . S
H1164 C1168 0.929 . S
H1165 C1174 0.929 . S
C1166 H1160 0.930 . S
C1166 C1167 1.367 . S
C1166 C1174 1.378 . S
C1167 C1166 1.367 . S
C1167 C1175 1.433 . S
C1168 H1164 0.929 . S
C1168 C1170 1.378 . S
C1168 C1172 1.350 . S
C1169 C1172 1.463 . S
C1169 C1174 1.350 . S
C1169 N1177 1.427 . S
C1170 H1161 0.930 . S
C1170 C1168 1.378 . S
C1170 C1171 1.367 . S
C1171 C1170 1.367 . S
C1171 C1173 1.433 . S
C1172 C1168 1.350 . S
C1172 C1169 1.463 . S
C1172 N1176 1.427 . S
C1173 H1163 0.929 . S
C1173 C1171 1.433 . S
C1173 N1176 1.384 . S
C1174 H1165 0.929 . S
C1174 C1166 1.378 . S
C1174 C1169 1.350 . S
C1175 H1162 0.929 . S
C1175 C1167 1.433 . S
C1175 N1177 1.384 . S
N1176 C1172 1.427 . S
N1176 C1173 1.384 . S
N1177 C1169 1.427 . S
N1177 C1175 1.384 . S
H1178 C1184 0.930 . S
H1179 C1188 0.930 . S
H1180 C1193 0.929 . S
H1181 C1191 0.929 . S
H1182 C1186 0.929 . S
H1183 C1192 0.929 . S
C1184 H1178 0.930 . S
C1184 C1185 1.367 . S
C1184 C1192 1.378 . S
C1185 C1184 1.367 . S
C1185 C1193 1.433 . S
C1186 H1182 0.929 . S
C1186 C1188 1.378 . S
C1186 C1190 1.350 . S
C1187 C1190 1.463 . S
C1187 C1192 1.350 . S
C1187 N1195 1.427 . S
C1188 H1179 0.930 . S
C1188 C1186 1.378 . S
C1188 C1189 1.367 . S
C1189 C1188 1.367 . S
C1189 C1191 1.433 . S
C1190 C1186 1.350 . S
C1190 C1187 1.463 . S
C1190 N1194 1.427 . S
C1191 H1181 0.929 . S
C1191 C1189 1.433 . S
C1191 N1194 1.384 . S
C1192 H1183 0.929 . S
C1192 C1184 1.378 . S
C1192 C1187 1.350 . S
C1193 H1180 0.929 . S
C1193 C1185 1.433 . S
C1193 N1195 1.384 . S
N1194 C1190 1.427 . S
N1194 C1191 1.384 . S
N1195 C1187 1.427 . S
N1195 C1193 1.384 . S
H1196 C1202 0.930 . S
H1197 C1206 0.930 . S
H1198 C1211 0.929 . S
H1199 C1209 0.929 . S
H1200 C1204 0.929 . S
H1201 C1210 0.929 . S
C1202 H1196 0.930 . S
C1202 C1203 1.367 . S
C1202 C1210 1.378 . S
C1203 C1202 1.367 . S
C1203 C1211 1.433 . S
C1204 H1200 0.929 . S
C1204 C1206 1.378 . S
C1204 C1208 1.350 . S
C1205 C1208 1.463 . S
C1205 C1210 1.350 . S
C1205 N1213 1.427 . S
C1206 H1197 0.930 . S
C1206 C1204 1.378 . S
C1206 C1207 1.367 . S
C1207 C1206 1.367 . S
C1207 C1209 1.433 . S
C1208 C1204 1.350 . S
C1208 C1205 1.463 . S
C1208 N1212 1.427 . S
C1209 H1199 0.929 . S
C1209 C1207 1.433 . S
C1209 N1212 1.384 . S
C1210 H1201 0.929 . S
C1210 C1202 1.378 . S
C1210 C1205 1.350 . S
C1211 H1198 0.929 . S
C1211 C1203 1.433 . S
C1211 N1213 1.384 . S
N1212 C1208 1.427 . S
N1212 C1209 1.384 . S
N1213 C1205 1.427 . S
N1213 C1211 1.384 . S
H1214 C1220 0.930 . S
H1215 C1224 0.930 . S
H1216 C1229 0.929 . S
H1217 C1227 0.929 . S
H1218 C1222 0.929 . S
H1219 C1228 0.929 . S
C1220 H1214 0.930 . S
C1220 C1221 1.367 . S
C1220 C1228 1.378 . S
C1221 C1220 1.367 . S
C1221 C1229 1.433 . S
C1222 H1218 0.929 . S
C1222 C1224 1.378 . S
C1222 C1226 1.350 . S
C1223 C1226 1.463 . S
C1223 C1228 1.350 . S
C1223 N1231 1.427 . S
C1224 H1215 0.930 . S
C1224 C1222 1.378 . S
C1224 C1225 1.367 . S
C1225 C1224 1.367 . S
C1225 C1227 1.433 . S
C1226 C1222 1.350 . S
C1226 C1223 1.463 . S
C1226 N1230 1.427 . S
C1227 H1217 0.929 . S
C1227 C1225 1.433 . S
C1227 N1230 1.384 . S
C1228 H1219 0.929 . S
C1228 C1220 1.378 . S
C1228 C1223 1.350 . S
C1229 H1216 0.929 . S
C1229 C1221 1.433 . S
C1229 N1231 1.384 . S
N1230 C1226 1.427 . S
N1230 C1227 1.384 . S
N1231 C1223 1.427 . S
N1231 C1229 1.384 . S
H1232 C1238 0.930 . S
H1233 C1242 0.930 . S
H1234 C1247 0.929 . S
H1235 C1245 0.929 . S
H1236 C1240 0.929 . S
H1237 C1246 0.929 . S
C1238 H1232 0.930 . S
C1238 C1239 1.367 . S
C1238 C1246 1.378 . S
C1239 C1238 1.367 . S
C1239 C1247 1.433 . S
C1240 H1236 0.929 . S
C1240 C1242 1.378 . S
C1240 C1244 1.350 . S
C1241 C1244 1.463 . S
C1241 C1246 1.350 . S
C1241 N1249 1.427 . S
C1242 H1233 0.930 . S
C1242 C1240 1.378 . S
C1242 C1243 1.367 . S
C1243 C1242 1.367 . S
C1243 C1245 1.433 . S
C1244 C1240 1.350 . S
C1244 C1241 1.463 . S
C1244 N1248 1.427 . S
C1245 H1235 0.929 . S
C1245 C1243 1.433 . S
C1245 N1248 1.384 . S
C1246 H1237 0.929 . S
C1246 C1238 1.378 . S
C1246 C1241 1.350 . S
C1247 H1234 0.929 . S
C1247 C1239 1.433 . S
C1247 N1249 1.384 . S
N1248 C1244 1.427 . S
N1248 C1245 1.384 . S
N1249 C1241 1.427 . S
N1249 C1247 1.384 . S
H1250 C1256 0.930 . S
H1251 C1260 0.930 . S
H1252 C1265 0.929 . S
H1253 C1263 0.929 . S
H1254 C1258 0.929 . S
H1255 C1264 0.929 . S
C1256 H1250 0.930 . S
C1256 C1257 1.367 . S
C1256 C1264 1.378 . S
C1257 C1256 1.367 . S
C1257 C1265 1.433 . S
C1258 H1254 0.929 . S
C1258 C1260 1.378 . S
C1258 C1262 1.350 . S
C1259 C1262 1.463 . S
C1259 C1264 1.350 . S
C1259 N1267 1.427 . S
C1260 H1251 0.930 . S
C1260 C1258 1.378 . S
C1260 C1261 1.367 . S
C1261 C1260 1.367 . S
C1261 C1263 1.433 . S
C1262 C1258 1.350 . S
C1262 C1259 1.463 . S
C1262 N1266 1.427 . S
C1263 H1253 0.929 . S
C1263 C1261 1.433 . S
C1263 N1266 1.384 . S
C1264 H1255 0.929 . S
C1264 C1256 1.378 . S
C1264 C1259 1.350 . S
C1265 H1252 0.929 . S
C1265 C1257 1.433 . S
C1265 N1267 1.384 . S
N1266 C1262 1.427 . S
N1266 C1263 1.384 . S
N1267 C1259 1.427 . S
N1267 C1265 1.384 . S
H1268 C1274 0.930 . S
H1269 C1278 0.930 . S
H1270 C1283 0.929 . S
H1271 C1281 0.929 . S
H1272 C1276 0.929 . S
H1273 C1282 0.929 . S
C1274 H1268 0.930 . S
C1274 C1275 1.367 . S
C1274 C1282 1.378 . S
C1275 C1274 1.367 . S
C1275 C1283 1.433 . S
C1276 H1272 0.929 . S
C1276 C1278 1.378 . S
C1276 C1280 1.350 . S
C1277 C1280 1.463 . S
C1277 C1282 1.350 . S
C1277 N1285 1.427 . S
C1278 H1269 0.930 . S
C1278 C1276 1.378 . S
C1278 C1279 1.367 . S
C1279 C1278 1.367 . S
C1279 C1281 1.433 . S
C1280 C1276 1.350 . S
C1280 C1277 1.463 . S
C1280 N1284 1.427 . S
C1281 H1271 0.929 . S
C1281 C1279 1.433 . S
C1281 N1284 1.384 . S
C1282 H1273 0.929 . S
C1282 C1274 1.378 . S
C1282 C1277 1.350 . S
C1283 H1270 0.929 . S
C1283 C1275 1.433 . S
C1283 N1285 1.384 . S
N1284 C1280 1.427 . S
N1284 C1281 1.384 . S
N1285 C1277 1.427 . S
N1285 C1283 1.384 . S
H1286 C1292 0.930 . S
H1287 C1296 0.930 . S
H1288 C1301 0.929 . S
H1289 C1299 0.929 . S
H1290 C1294 0.929 . S
H1291 C1300 0.929 . S
C1292 H1286 0.930 . S
C1292 C1293 1.367 . S
C1292 C1300 1.378 . S
C1293 C1292 1.367 . S
C1293 C1301 1.433 . S
C1294 H1290 0.929 . S
C1294 C1296 1.378 . S
C1294 C1298 1.350 . S
C1295 C1298 1.463 . S
C1295 C1300 1.350 . S
C1295 N1303 1.427 . S
C1296 H1287 0.930 . S
C1296 C1294 1.378 . S
C1296 C1297 1.367 . S
C1297 C1296 1.367 . S
C1297 C1299 1.433 . S
C1298 C1294 1.350 . S
C1298 C1295 1.463 . S
C1298 N1302 1.427 . S
C1299 H1289 0.929 . S
C1299 C1297 1.433 . S
C1299 N1302 1.384 . S
C1300 H1291 0.929 . S
C1300 C1292 1.378 . S
C1300 C1295 1.350 . S
C1301 H1288 0.929 . S
C1301 C1293 1.433 . S
C1301 N1303 1.384 . S
N1302 C1298 1.427 . S
N1302 C1299 1.384 . S
N1303 C1295 1.427 . S
N1303 C1301 1.384 . S
H1304 C1310 0.930 . S
H1305 C1314 0.930 . S
H1306 C1319 0.929 . S
H1307 C1317 0.929 . S
H1308 C1312 0.929 . S
H1309 C1318 0.929 . S
C1310 H1304 0.930 . S
C1310 C1311 1.367 . S
C1310 C1318 1.378 . S
C1311 C1310 1.367 . S
C1311 C1319 1.433 . S
C1312 H1308 0.929 . S
C1312 C1314 1.378 . S
C1312 C1316 1.350 . S
C1313 C1316 1.463 . S
C1313 C1318 1.350 . S
C1313 N1321 1.427 . S
C1314 H1305 0.930 . S
C1314 C1312 1.378 . S
C1314 C1315 1.367 . S
C1315 C1314 1.367 . S
C1315 C1317 1.433 . S
C1316 C1312 1.350 . S
C1316 C1313 1.463 . S
C1316 N1320 1.427 . S
C1317 H1307 0.929 . S
C1317 C1315 1.433 . S
C1317 N1320 1.384 . S
C1318 H1309 0.929 . S
C1318 C1310 1.378 . S
C1318 C1313 1.350 . S
C1319 H1306 0.929 . S
C1319 C1311 1.433 . S
C1319 N1321 1.384 . S
N1320 C1316 1.427 . S
N1320 C1317 1.384 . S
N1321 C1313 1.427 . S
N1321 C1319 1.384 . S
H1322 C1328 0.930 . S
H1323 C1332 0.930 . S
H1324 C1337 0.929 . S
H1325 C1335 0.929 . S
H1326 C1330 0.929 . S
H1327 C1336 0.929 . S
C1328 H1322 0.930 . S
C1328 C1329 1.367 . S
C1328 C1336 1.378 . S
C1329 C1328 1.367 . S
C1329 C1337 1.433 . S
C1330 H1326 0.929 . S
C1330 C1332 1.378 . S
C1330 C1334 1.350 . S
C1331 C1334 1.463 . S
C1331 C1336 1.350 . S
C1331 N1339 1.427 . S
C1332 H1323 0.930 . S
C1332 C1330 1.378 . S
C1332 C1333 1.367 . S
C1333 C1332 1.367 . S
C1333 C1335 1.433 . S
C1334 C1330 1.350 . S
C1334 C1331 1.463 . S
C1334 N1338 1.427 . S
C1335 H1325 0.929 . S
C1335 C1333 1.433 . S
C1335 N1338 1.384 . S
C1336 H1327 0.929 . S
C1336 C1328 1.378 . S
C1336 C1331 1.350 . S
C1337 H1324 0.929 . S
C1337 C1329 1.433 . S
C1337 N1339 1.384 . S
N1338 C1334 1.427 . S
N1338 C1335 1.384 . S
N1339 C1331 1.427 . S
N1339 C1337 1.384 . S
H1340 C1346 0.930 . S
H1341 C1350 0.930 . S
H1342 C1355 0.929 . S
H1343 C1353 0.929 . S
H1344 C1348 0.929 . S
H1345 C1354 0.929 . S
C1346 H1340 0.930 . S
C1346 C1347 1.367 . S
C1346 C1354 1.378 . S
C1347 C1346 1.367 . S
C1347 C1355 1.433 . S
C1348 H1344 0.929 . S
C1348 C1350 1.378 . S
C1348 C1352 1.350 . S
C1349 C1352 1.463 . S
C1349 C1354 1.350 . S
C1349 N1357 1.427 . S
C1350 H1341 0.930 . S
C1350 C1348 1.378 . S
C1350 C1351 1.367 . S
C1351 C1350 1.367 . S
C1351 C1353 1.433 . S
C1352 C1348 1.350 . S
C1352 C1349 1.463 . S
C1352 N1356 1.427 . S
C1353 H1343 0.929 . S
C1353 C1351 1.433 . S
C1353 N1356 1.384 . S
C1354 H1345 0.929 . S
C1354 C1346 1.378 . S
C1354 C1349 1.350 . S
C1355 H1342 0.929 . S
C1355 C1347 1.433 . S
C1355 N1357 1.384 . S
N1356 C1352 1.427 . S
N1356 C1353 1.384 . S
N1357 C1349 1.427 . S
N1357 C1355 1.384 . S
H1358 C1364 0.930 . S
H1359 C1368 0.930 . S
H1360 C1373 0.929 . S
H1361 C1371 0.929 . S
H1362 C1366 0.929 . S
H1363 C1372 0.929 . S
C1364 H1358 0.930 . S
C1364 C1365 1.367 . S
C1364 C1372 1.378 . S
C1365 C1364 1.367 . S
C1365 C1373 1.433 . S
C1366 H1362 0.929 . S
C1366 C1368 1.378 . S
C1366 C1370 1.350 . S
C1367 C1370 1.463 . S
C1367 C1372 1.350 . S
C1367 N1375 1.427 . S
C1368 H1359 0.930 . S
C1368 C1366 1.378 . S
C1368 C1369 1.367 . S
C1369 C1368 1.367 . S
C1369 C1371 1.433 . S
C1370 C1366 1.350 . S
C1370 C1367 1.463 . S
C1370 N1374 1.427 . S
C1371 H1361 0.929 . S
C1371 C1369 1.433 . S
C1371 N1374 1.384 . S
C1372 H1363 0.929 . S
C1372 C1364 1.378 . S
C1372 C1367 1.350 . S
C1373 H1360 0.929 . S
C1373 C1365 1.433 . S
C1373 N1375 1.384 . S
N1374 C1370 1.427 . S
N1374 C1371 1.384 . S
N1375 C1367 1.427 . S
N1375 C1373 1.384 . S
H1376 C1382 0.930 . S
H1377 C1386 0.930 . S
H1378 C1391 0.929 . S
H1379 C1389 0.929 . S
H1380 C1384 0.929 . S
H1381 C1390 0.929 . S
C1382 H1376 0.930 . S
C1382 C1383 1.367 . S
C1382 C1390 1.378 . S
C1383 C1382 1.367 . S
C1383 C1391 1.433 . S
C1384 H1380 0.929 . S
C1384 C1386 1.378 . S
C1384 C1388 1.350 . S
C1385 C1388 1.463 . S
C1385 C1390 1.350 . S
C1385 N1393 1.427 . S
C1386 H1377 0.930 . S
C1386 C1384 1.378 . S
C1386 C1387 1.367 . S
C1387 C1386 1.367 . S
C1387 C1389 1.433 . S
C1388 C1384 1.350 . S
C1388 C1385 1.463 . S
C1388 N1392 1.427 . S
C1389 H1379 0.929 . S
C1389 C1387 1.433 . S
C1389 N1392 1.384 . S
C1390 H1381 0.929 . S
C1390 C1382 1.378 . S
C1390 C1385 1.350 . S
C1391 H1378 0.929 . S
C1391 C1383 1.433 . S
C1391 N1393 1.384 . S
N1392 C1388 1.427 . S
N1392 C1389 1.384 . S
N1393 C1385 1.427 . S
N1393 C1391 1.384 . S
H1394 C1400 0.930 . S
H1395 C1404 0.930 . S
H1396 C1409 0.929 . S
H1397 C1407 0.929 . S
H1398 C1402 0.929 . S
H1399 C1408 0.929 . S
C1400 H1394 0.930 . S
C1400 C1401 1.367 . S
C1400 C1408 1.378 . S
C1401 C1400 1.367 . S
C1401 C1409 1.433 . S
C1402 H1398 0.929 . S
C1402 C1404 1.378 1_655 S
C1402 C1406 1.350 . S
C1403 C1406 1.463 . S
C1403 C1408 1.350 . S
C1403 N1411 1.427 . S
C1404 H1395 0.930 . S
C1404 C1402 1.378 1_455 S
C1404 C1405 1.367 . S
C1405 C1404 1.367 . S
C1405 C1407 1.433 . S
C1406 C1402 1.350 . S
C1406 C1403 1.463 . S
C1406 N1410 1.427 . S
C1407 H1397 0.929 . S
C1407 C1405 1.433 . S
C1407 N1410 1.384 1_455 S
C1408 H1399 0.929 . S
C1408 C1400 1.378 . S
C1408 C1403 1.350 . S
C1409 H1396 0.929 . S
C1409 C1401 1.433 . S
C1409 N1411 1.384 . S
N1410 C1406 1.427 . S
N1410 C1407 1.384 1_655 S
N1411 C1403 1.427 . S
N1411 C1409 1.384 . S
H1412 C1418 0.930 . S
H1413 C1422 0.930 . S
H1414 C1427 0.929 . S
H1415 C1425 0.929 . S
H1416 C1420 0.929 . S
H1417 C1426 0.929 . S
C1418 H1412 0.930 . S
C1418 C1419 1.367 . S
C1418 C1426 1.378 . S
C1419 C1418 1.367 . S
C1419 C1427 1.433 . S
C1420 H1416 0.929 . S
C1420 C1422 1.378 . S
C1420 C1424 1.350 . S
C1421 C1424 1.463 . S
C1421 C1426 1.350 . S
C1421 N1429 1.427 . S
C1422 H1413 0.930 . S
C1422 C1420 1.378 . S
C1422 C1423 1.367 . S
C1423 C1422 1.367 . S
C1423 C1425 1.433 . S
C1424 C1420 1.350 . S
C1424 C1421 1.463 . S
C1424 N1428 1.427 . S
C1425 H1415 0.929 . S
C1425 C1423 1.433 . S
C1425 N1428 1.384 . S
C1426 H1417 0.929 . S
C1426 C1418 1.378 . S
C1426 C1421 1.350 . S
C1427 H1414 0.929 . S
C1427 C1419 1.433 . S
C1427 N1429 1.384 . S
N1428 C1424 1.427 . S
N1428 C1425 1.384 . S
N1429 C1421 1.427 . S
N1429 C1427 1.384 . S
H1430 C1436 0.930 . S
H1431 C1440 0.930 . S
H1432 C1445 0.929 . S
H1433 C1443 0.929 . S
H1434 C1438 0.929 . S
H1435 C1444 0.929 . S
C1436 H1430 0.930 . S
C1436 C1437 1.367 . S
C1436 C1444 1.378 . S
C1437 C1436 1.367 . S
C1437 C1445 1.433 . S
C1438 H1434 0.929 . S
C1438 C1440 1.378 . S
C1438 C1442 1.350 . S
C1439 C1442 1.463 . S
C1439 C1444 1.350 . S
C1439 N1447 1.427 . S
C1440 H1431 0.930 . S
C1440 C1438 1.378 . S
C1440 C1441 1.367 . S
C1441 C1440 1.367 . S
C1441 C1443 1.433 . S
C1442 C1438 1.350 . S
C1442 C1439 1.463 . S
C1442 N1446 1.427 . S
C1443 H1433 0.929 . S
C1443 C1441 1.433 . S
C1443 N1446 1.384 . S
C1444 H1435 0.929 . S
C1444 C1436 1.378 . S
C1444 C1439 1.350 . S
C1445 H1432 0.929 . S
C1445 C1437 1.433 . S
C1445 N1447 1.384 . S
N1446 C1442 1.427 . S
N1446 C1443 1.384 . S
N1447 C1439 1.427 . S
N1447 C1445 1.384 . S
H1448 C1454 0.930 . S
H1449 C1458 0.930 . S
H1450 C1463 0.929 . S
H1451 C1461 0.929 . S
H1452 C1456 0.929 . S
H1453 C1462 0.929 . S
C1454 H1448 0.930 . S
C1454 C1455 1.367 . S
C1454 C1462 1.378 . S
C1455 C1454 1.367 . S
C1455 C1463 1.433 . S
C1456 H1452 0.929 . S
C1456 C1458 1.378 . S
C1456 C1460 1.350 . S
C1457 C1460 1.463 . S
C1457 C1462 1.350 . S
C1457 N1465 1.427 . S
C1458 H1449 0.930 . S
C1458 C1456 1.378 . S
C1458 C1459 1.367 . S
C1459 C1458 1.367 . S
C1459 C1461 1.433 . S
C1460 C1456 1.350 . S
C1460 C1457 1.463 . S
C1460 N1464 1.427 . S
C1461 H1451 0.929 . S
C1461 C1459 1.433 . S
C1461 N1464 1.384 . S
C1462 H1453 0.929 . S
C1462 C1454 1.378 . S
C1462 C1457 1.350 . S
C1463 H1450 0.929 . S
C1463 C1455 1.433 . S
C1463 N1465 1.384 . S
N1464 C1460 1.427 . S
N1464 C1461 1.384 . S
N1465 C1457 1.427 . S
N1465 C1463 1.384 . S
H1466 C1472 0.930 . S
H1467 C1476 0.930 . S
H1468 C1481 0.929 . S
H1469 C1479 0.929 . S
H1470 C1474 0.929 . S
H1471 C1480 0.929 . S
C1472 H1466 0.930 . S
C1472 C1473 1.367 . S
C1472 C1480 1.378 . S
C1473 C1472 1.367 . S
C1473 C1481 1.433 . S
C1474 H1470 0.929 . S
C1474 C1476 1.378 . S
C1474 C1478 1.350 . S
C1475 C1478 1.463 . S
C1475 C1480 1.350 . S
C1475 N1483 1.427 . S
C1476 H1467 0.930 . S
C1476 C1474 1.378 . S
C1476 C1477 1.367 . S
C1477 C1476 1.367 . S
C1477 C1479 1.433 . S
C1478 C1474 1.350 . S
C1478 C1475 1.463 . S
C1478 N1482 1.427 . S
C1479 H1469 0.929 . S
C1479 C1477 1.433 . S
C1479 N1482 1.384 . S
C1480 H1471 0.929 . S
C1480 C1472 1.378 . S
C1480 C1475 1.350 . S
C1481 H1468 0.929 . S
C1481 C1473 1.433 . S
C1481 N1483 1.384 . S
N1482 C1478 1.427 . S
N1482 C1479 1.384 . S
N1483 C1475 1.427 . S
N1483 C1481 1.384 . S
H1484 C1490 0.930 . S
H1485 C1494 0.930 . S
H1486 C1499 0.929 . S
H1487 C1497 0.929 . S
H1488 C1492 0.929 . S
H1489 C1498 0.929 . S
C1490 H1484 0.930 . S
C1490 C1491 1.367 . S
C1490 C1498 1.378 . S
C1491 C1490 1.367 . S
C1491 C1499 1.433 . S
C1492 H1488 0.929 . S
C1492 C1494 1.378 . S
C1492 C1496 1.350 . S
C1493 C1496 1.463 . S
C1493 C1498 1.350 . S
C1493 N1501 1.427 . S
C1494 H1485 0.930 . S
C1494 C1492 1.378 . S
C1494 C1495 1.367 . S
C1495 C1494 1.367 . S
C1495 C1497 1.433 . S
C1496 C1492 1.350 . S
C1496 C1493 1.463 . S
C1496 N1500 1.427 . S
C1497 H1487 0.929 . S
C1497 C1495 1.433 . S
C1497 N1500 1.384 . S
C1498 H1489 0.929 . S
C1498 C1490 1.378 . S
C1498 C1493 1.350 . S
C1499 H1486 0.929 . S
C1499 C1491 1.433 . S
C1499 N1501 1.384 . S
N1500 C1496 1.427 . S
N1500 C1497 1.384 . S
N1501 C1493 1.427 . S
N1501 C1499 1.384 . S
H1502 C1508 0.930 . S
H1503 C1512 0.930 . S
H1504 C1517 0.929 . S
H1505 C1515 0.929 . S
H1506 C1510 0.929 . S
H1507 C1516 0.929 . S
C1508 H1502 0.930 . S
C1508 C1509 1.367 . S
C1508 C1516 1.378 . S
C1509 C1508 1.367 . S
C1509 C1517 1.433 . S
C1510 H1506 0.929 . S
C1510 C1512 1.378 1_655 S
C1510 C1514 1.350 . S
C1511 C1514 1.463 . S
C1511 C1516 1.350 . S
C1511 N1519 1.427 . S
C1512 H1503 0.930 . S
C1512 C1510 1.378 1_455 S
C1512 C1513 1.367 . S
C1513 C1512 1.367 . S
C1513 C1515 1.433 . S
C1514 C1510 1.350 . S
C1514 C1511 1.463 . S
C1514 N1518 1.427 . S
C1515 H1505 0.929 . S
C1515 C1513 1.433 . S
C1515 N1518 1.384 1_455 S
C1516 H1507 0.929 . S
C1516 C1508 1.378 . S
C1516 C1511 1.350 . S
C1517 H1504 0.929 . S
C1517 C1509 1.433 . S
C1517 N1519 1.384 . S
N1518 C1514 1.427 . S
N1518 C1515 1.384 1_655 S
N1519 C1511 1.427 . S
N1519 C1517 1.384 . S
H1520 C1526 0.930 . S
H1521 C1530 0.930 . S
H1522 C1535 0.929 . S
H1523 C1533 0.929 . S
H1524 C1528 0.929 . S
H1525 C1534 0.929 . S
C1526 H1520 0.930 . S
C1526 C1527 1.367 . S
C1526 C1534 1.378 . S
C1527 C1526 1.367 . S
C1527 C1535 1.433 . S
C1528 H1524 0.929 . S
C1528 C1530 1.378 . S
C1528 C1532 1.350 . S
C1529 C1532 1.463 . S
C1529 C1534 1.350 . S
C1529 N1537 1.427 . S
C1530 H1521 0.930 . S
C1530 C1528 1.378 . S
C1530 C1531 1.367 . S
C1531 C1530 1.367 . S
C1531 C1533 1.433 . S
C1532 C1528 1.350 . S
C1532 C1529 1.463 . S
C1532 N1536 1.427 . S
C1533 H1523 0.929 . S
C1533 C1531 1.433 . S
C1533 N1536 1.384 . S
C1534 H1525 0.929 . S
C1534 C1526 1.378 . S
C1534 C1529 1.350 . S
C1535 H1522 0.929 . S
C1535 C1527 1.433 . S
C1535 N1537 1.384 . S
N1536 C1532 1.427 . S
N1536 C1533 1.384 . S
N1537 C1529 1.427 . S
N1537 C1535 1.384 . S
H1538 C1544 0.930 . S
H1539 C1548 0.930 . S
H1540 C1553 0.929 . S
H1541 C1551 0.929 . S
H1542 C1546 0.929 . S
H1543 C1552 0.929 . S
C1544 H1538 0.930 . S
C1544 C1545 1.367 . S
C1544 C1552 1.378 1_655 S
C1545 C1544 1.367 . S
C1545 C1553 1.433 . S
C1546 H1542 0.929 . S
C1546 C1548 1.378 . S
C1546 C1550 1.350 . S
C1547 C1550 1.463 . S
C1547 C1552 1.350 . S
C1547 N1555 1.427 . S
C1548 H1539 0.930 . S
C1548 C1546 1.378 . S
C1548 C1549 1.367 . S
C1549 C1548 1.367 . S
C1549 C1551 1.433 . S
C1550 C1546 1.350 . S
C1550 C1547 1.463 . S
C1550 N1554 1.427 . S
C1551 H1541 0.929 . S
C1551 C1549 1.433 . S
C1551 N1554 1.384 . S
C1552 H1543 0.929 . S
C1552 C1544 1.378 1_455 S
C1552 C1547 1.350 . S
C1553 H1540 0.929 . S
C1553 C1545 1.433 . S
C1553 N1555 1.384 1_655 S
N1554 C1550 1.427 . S
N1554 C1551 1.384 . S
N1555 C1547 1.427 . S
N1555 C1553 1.384 1_455 S
H1556 C1562 0.930 . S
H1557 C1566 0.930 . S
H1558 C1571 0.929 . S
H1559 C1569 0.929 . S
H1560 C1564 0.929 . S
H1561 C1570 0.929 . S
C1562 H1556 0.930 . S
C1562 C1563 1.367 . S
C1562 C1570 1.378 . S
C1563 C1562 1.367 . S
C1563 C1571 1.433 . S
C1564 H1560 0.929 . S
C1564 C1566 1.378 . S
C1564 C1568 1.350 . S
C1565 C1568 1.463 . S
C1565 C1570 1.350 . S
C1565 N1573 1.427 . S
C1566 H1557 0.930 . S
C1566 C1564 1.378 . S
C1566 C1567 1.367 . S
C1567 C1566 1.367 . S
C1567 C1569 1.433 . S
C1568 C1564 1.350 . S
C1568 C1565 1.463 . S
C1568 N1572 1.427 . S
C1569 H1559 0.929 . S
C1569 C1567 1.433 . S
C1569 N1572 1.384 . S
C1570 H1561 0.929 . S
C1570 C1562 1.378 . S
C1570 C1565 1.350 . S
C1571 H1558 0.929 . S
C1571 C1563 1.433 . S
C1571 N1573 1.384 . S
N1572 C1568 1.427 . S
N1572 C1569 1.384 . S
N1573 C1565 1.427 . S
N1573 C1571 1.384 . S
H1574 C1580 0.930 . S
H1575 C1584 0.930 . S
H1576 C1589 0.929 . S
H1577 C1587 0.929 . S
H1578 C1582 0.929 . S
H1579 C1588 0.929 . S
C1580 H1574 0.930 . S
C1580 C1581 1.367 . S
C1580 C1588 1.378 . S
C1581 C1580 1.367 . S
C1581 C1589 1.433 . S
C1582 H1578 0.929 . S
C1582 C1584 1.378 . S
C1582 C1586 1.350 . S
C1583 C1586 1.463 . S
C1583 C1588 1.350 . S
C1583 N1591 1.427 . S
C1584 H1575 0.930 . S
C1584 C1582 1.378 . S
C1584 C1585 1.367 . S
C1585 C1584 1.367 . S
C1585 C1587 1.433 . S
C1586 C1582 1.350 . S
C1586 C1583 1.463 . S
C1586 N1590 1.427 . S
C1587 H1577 0.929 . S
C1587 C1585 1.433 . S
C1587 N1590 1.384 . S
C1588 H1579 0.929 . S
C1588 C1580 1.378 . S
C1588 C1583 1.350 . S
C1589 H1576 0.929 . S
C1589 C1581 1.433 . S
C1589 N1591 1.384 . S
N1590 C1586 1.427 . S
N1590 C1587 1.384 . S
N1591 C1583 1.427 . S
N1591 C1589 1.384 . S
H1592 C1598 0.930 . S
H1593 C1602 0.930 . S
H1594 C1607 0.929 . S
H1595 C1605 0.929 . S
H1596 C1600 0.929 . S
H1597 C1606 0.929 . S
C1598 H1592 0.930 . S
C1598 C1599 1.367 . S
C1598 C1606 1.378 . S
C1599 C1598 1.367 . S
C1599 C1607 1.433 . S
C1600 H1596 0.929 . S
C1600 C1602 1.378 . S
C1600 C1604 1.350 . S
C1601 C1604 1.463 . S
C1601 C1606 1.350 . S
C1601 N1609 1.427 . S
C1602 H1593 0.930 . S
C1602 C1600 1.378 . S
C1602 C1603 1.367 . S
C1603 C1602 1.367 . S
C1603 C1605 1.433 . S
C1604 C1600 1.350 . S
C1604 C1601 1.463 . S
C1604 N1608 1.427 . S
C1605 H1595 0.929 . S
C1605 C1603 1.433 . S
C1605 N1608 1.384 . S
C1606 H1597 0.929 . S
C1606 C1598 1.378 . S
C1606 C1601 1.350 . S
C1607 H1594 0.929 . S
C1607 C1599 1.433 . S
C1607 N1609 1.384 . S
N1608 C1604 1.427 . S
N1608 C1605 1.384 . S
N1609 C1601 1.427 . S
N1609 C1607 1.384 . S
H1610 C1616 0.930 . S
H1611 C1620 0.930 . S
H1612 C1625 0.929 . S
H1613 C1623 0.929 . S
H1614 C1618 0.929 . S
H1615 C1624 0.929 . S
C1616 H1610 0.930 . S
C1616 C1617 1.367 . S
C1616 C1624 1.378 . S
C1617 C1616 1.367 . S
C1617 C1625 1.433 . S
C1618 H1614 0.929 . S
C1618 C1620 1.378 . S
C1618 C1622 1.350 . S
C1619 C1622 1.463 . S
C1619 C1624 1.350 . S
C1619 N1627 1.427 . S
C1620 H1611 0.930 . S
C1620 C1618 1.378 . S
C1620 C1621 1.367 . S
C1621 C1620 1.367 . S
C1621 C1623 1.433 . S
C1622 C1618 1.350 . S
C1622 C1619 1.463 . S
C1622 N1626 1.427 . S
C1623 H1613 0.929 . S
C1623 C1621 1.433 . S
C1623 N1626 1.384 . S
C1624 H1615 0.929 . S
C1624 C1616 1.378 . S
C1624 C1619 1.350 . S
C1625 H1612 0.929 . S
C1625 C1617 1.433 . S
C1625 N1627 1.384 . S
N1626 C1622 1.427 . S
N1626 C1623 1.384 . S
N1627 C1619 1.427 . S
N1627 C1625 1.384 . S
H1628 C1634 0.930 . S
H1629 C1638 0.930 . S
H1630 C1643 0.929 . S
H1631 C1641 0.929 . S
H1632 C1636 0.929 . S
H1633 C1642 0.929 . S
C1634 H1628 0.930 . S
C1634 C1635 1.367 . S
C1634 C1642 1.378 . S
C1635 C1634 1.367 . S
C1635 C1643 1.433 . S
C1636 H1632 0.929 . S
C1636 C1638 1.378 . S
C1636 C1640 1.350 . S
C1637 C1640 1.463 . S
C1637 C1642 1.350 . S
C1637 N1645 1.427 . S
C1638 H1629 0.930 . S
C1638 C1636 1.378 . S
C1638 C1639 1.367 . S
C1639 C1638 1.367 . S
C1639 C1641 1.433 . S
C1640 C1636 1.350 . S
C1640 C1637 1.463 . S
C1640 N1644 1.427 . S
C1641 H1631 0.929 . S
C1641 C1639 1.433 . S
C1641 N1644 1.384 . S
C1642 H1633 0.929 . S
C1642 C1634 1.378 . S
C1642 C1637 1.350 . S
C1643 H1630 0.929 . S
C1643 C1635 1.433 . S
C1643 N1645 1.384 . S
N1644 C1640 1.427 . S
N1644 C1641 1.384 . S
N1645 C1637 1.427 . S
N1645 C1643 1.384 . S
H1646 C1652 0.930 . S
H1647 C1656 0.930 . S
H1648 C1661 0.929 . S
H1649 C1659 0.929 . S
H1650 C1654 0.929 . S
H1651 C1660 0.929 . S
C1652 H1646 0.930 . S
C1652 C1653 1.367 . S
C1652 C1660 1.378 1_655 S
C1653 C1652 1.367 . S
C1653 C1661 1.433 . S
C1654 H1650 0.929 . S
C1654 C1656 1.378 . S
C1654 C1658 1.350 . S
C1655 C1658 1.463 . S
C1655 C1660 1.350 . S
C1655 N1663 1.427 . S
C1656 H1647 0.930 . S
C1656 C1654 1.378 . S
C1656 C1657 1.367 . S
C1657 C1656 1.367 . S
C1657 C1659 1.433 . S
C1658 C1654 1.350 . S
C1658 C1655 1.463 . S
C1658 N1662 1.427 . S
C1659 H1649 0.929 . S
C1659 C1657 1.433 . S
C1659 N1662 1.384 . S
C1660 H1651 0.929 . S
C1660 C1652 1.378 1_455 S
C1660 C1655 1.350 . S
C1661 H1648 0.929 . S
C1661 C1653 1.433 . S
C1661 N1663 1.384 1_655 S
N1662 C1658 1.427 . S
N1662 C1659 1.384 . S
N1663 C1655 1.427 . S
N1663 C1661 1.384 1_455 S
H1664 C1670 0.930 . S
H1665 C1674 0.930 . S
H1666 C1679 0.929 . S
H1667 C1677 0.929 . S
H1668 C1672 0.929 . S
H1669 C1678 0.929 . S
C1670 H1664 0.930 . S
C1670 C1671 1.367 . S
C1670 C1678 1.378 . S
C1671 C1670 1.367 . S
C1671 C1679 1.433 . S
C1672 H1668 0.929 . S
C1672 C1674 1.378 . S
C1672 C1676 1.350 . S
C1673 C1676 1.463 . S
C1673 C1678 1.350 . S
C1673 N1681 1.427 . S
C1674 H1665 0.930 . S
C1674 C1672 1.378 . S
C1674 C1675 1.367 . S
C1675 C1674 1.367 . S
C1675 C1677 1.433 . S
C1676 C1672 1.350 . S
C1676 C1673 1.463 . S
C1676 N1680 1.427 . S
C1677 H1667 0.929 . S
C1677 C1675 1.433 . S
C1677 N1680 1.384 . S
C1678 H1669 0.929 . S
C1678 C1670 1.378 . S
C1678 C1673 1.350 . S
C1679 H1666 0.929 . S
C1679 C1671 1.433 . S
C1679 N1681 1.384 . S
N1680 C1676 1.427 . S
N1680 C1677 1.384 . S
N1681 C1673 1.427 . S
N1681 C1679 1.384 . S
H1682 C1688 0.930 . S
H1683 C1692 0.930 . S
H1684 C1697 0.929 . S
H1685 C1695 0.929 . S
H1686 C1690 0.929 . S
H1687 C1696 0.929 . S
C1688 H1682 0.930 . S
C1688 C1689 1.367 . S
C1688 C1696 1.378 . S
C1689 C1688 1.367 . S
C1689 C1697 1.433 . S
C1690 H1686 0.929 . S
C1690 C1692 1.378 . S
C1690 C1694 1.350 . S
C1691 C1694 1.463 . S
C1691 C1696 1.350 . S
C1691 N1699 1.427 . S
C1692 H1683 0.930 . S
C1692 C1690 1.378 . S
C1692 C1693 1.367 . S
C1693 C1692 1.367 . S
C1693 C1695 1.433 . S
C1694 C1690 1.350 . S
C1694 C1691 1.463 . S
C1694 N1698 1.427 . S
C1695 H1685 0.929 . S
C1695 C1693 1.433 . S
C1695 N1698 1.384 . S
C1696 H1687 0.929 . S
C1696 C1688 1.378 . S
C1696 C1691 1.350 . S
C1697 H1684 0.929 . S
C1697 C1689 1.433 . S
C1697 N1699 1.384 . S
N1698 C1694 1.427 . S
N1698 C1695 1.384 . S
N1699 C1691 1.427 . S
N1699 C1697 1.384 . S
H1700 C1706 0.930 . S
H1701 C1710 0.930 . S
H1702 C1715 0.929 . S
H1703 C1713 0.929 . S
H1704 C1708 0.929 . S
H1705 C1714 0.929 . S
C1706 H1700 0.930 . S
C1706 C1707 1.367 . S
C1706 C1714 1.378 . S
C1707 C1706 1.367 . S
C1707 C1715 1.433 . S
C1708 H1704 0.929 . S
C1708 C1710 1.378 . S
C1708 C1712 1.350 . S
C1709 C1712 1.463 . S
C1709 C1714 1.350 . S
C1709 N1717 1.427 . S
C1710 H1701 0.930 . S
C1710 C1708 1.378 . S
C1710 C1711 1.367 . S
C1711 C1710 1.367 . S
C1711 C1713 1.433 . S
C1712 C1708 1.350 . S
C1712 C1709 1.463 . S
C1712 N1716 1.427 . S
C1713 H1703 0.929 . S
C1713 C1711 1.433 . S
C1713 N1716 1.384 . S
C1714 H1705 0.929 . S
C1714 C1706 1.378 . S
C1714 C1709 1.350 . S
C1715 H1702 0.929 . S
C1715 C1707 1.433 . S
C1715 N1717 1.384 . S
N1716 C1712 1.427 . S
N1716 C1713 1.384 . S
N1717 C1709 1.427 . S
N1717 C1715 1.384 . S
H1718 C1724 0.930 . S
H1719 C1728 0.930 . S
H1720 C1733 0.929 . S
H1721 C1731 0.929 . S
H1722 C1726 0.929 . S
H1723 C1732 0.929 . S
C1724 H1718 0.930 . S
C1724 C1725 1.367 . S
C1724 C1732 1.378 1_655 S
C1725 C1724 1.367 . S
C1725 C1733 1.433 . S
C1726 H1722 0.929 . S
C1726 C1728 1.378 . S
C1726 C1730 1.350 . S
C1727 C1730 1.463 . S
C1727 C1732 1.350 . S
C1727 N1735 1.427 . S
C1728 H1719 0.930 . S
C1728 C1726 1.378 . S
C1728 C1729 1.367 . S
C1729 C1728 1.367 . S
C1729 C1731 1.433 . S
C1730 C1726 1.350 . S
C1730 C1727 1.463 . S
C1730 N1734 1.427 . S
C1731 H1721 0.929 . S
C1731 C1729 1.433 . S
C1731 N1734 1.384 . S
C1732 H1723 0.929 . S
C1732 C1724 1.378 1_455 S
C1732 C1727 1.350 . S
C1733 H1720 0.929 . S
C1733 C1725 1.433 . S
C1733 N1735 1.384 1_655 S
N1734 C1730 1.427 . S
N1734 C1731 1.384 . S
N1735 C1727 1.427 . S
N1735 C1733 1.384 1_455 S
H1736 C1742 0.930 . S
H1737 C1746 0.930 . S
H1738 C1751 0.929 . S
H1739 C1749 0.929 . S
H1740 C1744 0.929 . S
H1741 C1750 0.929 . S
C1742 H1736 0.930 . S
C1742 C1743 1.367 . S
C1742 C1750 1.378 . S
C1743 C1742 1.367 . S
C1743 C1751 1.433 . S
C1744 H1740 0.929 . S
C1744 C1746 1.378 . S
C1744 C1748 1.350 . S
C1745 C1748 1.463 . S
C1745 C1750 1.350 . S
C1745 N1753 1.427 . S
C1746 H1737 0.930 . S
C1746 C1744 1.378 . S
C1746 C1747 1.367 . S
C1747 C1746 1.367 . S
C1747 C1749 1.433 . S
C1748 C1744 1.350 . S
C1748 C1745 1.463 . S
C1748 N1752 1.427 . S
C1749 H1739 0.929 . S
C1749 C1747 1.433 . S
C1749 N1752 1.384 . S
C1750 H1741 0.929 . S
C1750 C1742 1.378 . S
C1750 C1745 1.350 . S
C1751 H1738 0.929 . S
C1751 C1743 1.433 . S
C1751 N1753 1.384 . S
N1752 C1748 1.427 . S
N1752 C1749 1.384 . S
N1753 C1745 1.427 . S
N1753 C1751 1.384 . S
H1754 C1760 0.930 . S
H1755 C1764 0.930 . S
H1756 C1769 0.929 . S
H1757 C1767 0.929 . S
H1758 C1762 0.929 . S
H1759 C1768 0.929 . S
C1760 H1754 0.930 . S
C1760 C1761 1.367 . S
C1760 C1768 1.378 . S
C1761 C1760 1.367 . S
C1761 C1769 1.433 . S
C1762 H1758 0.929 . S
C1762 C1764 1.378 1_455 S
C1762 C1766 1.350 . S
C1763 C1766 1.463 . S
C1763 C1768 1.350 . S
C1763 N1771 1.427 . S
C1764 H1755 0.930 . S
C1764 C1762 1.378 1_655 S
C1764 C1765 1.367 . S
C1765 C1764 1.367 . S
C1765 C1767 1.433 . S
C1766 C1762 1.350 . S
C1766 C1763 1.463 . S
C1766 N1770 1.427 . S
C1767 H1757 0.929 . S
C1767 C1765 1.433 . S
C1767 N1770 1.384 1_655 S
C1768 H1759 0.929 . S
C1768 C1760 1.378 . S
C1768 C1763 1.350 . S
C1769 H1756 0.929 . S
C1769 C1761 1.433 . S
C1769 N1771 1.384 . S
N1770 C1766 1.427 . S
N1770 C1767 1.384 1_455 S
N1771 C1763 1.427 . S
N1771 C1769 1.384 . S
H1772 C1778 0.930 . S
H1773 C1782 0.930 . S
H1774 C1787 0.929 . S
H1775 C1785 0.929 . S
H1776 C1780 0.929 . S
H1777 C1786 0.929 . S
C1778 H1772 0.930 . S
C1778 C1779 1.367 . S
C1778 C1786 1.378 . S
C1779 C1778 1.367 . S
C1779 C1787 1.433 . S
C1780 H1776 0.929 . S
C1780 C1782 1.378 . S
C1780 C1784 1.350 . S
C1781 C1784 1.463 . S
C1781 C1786 1.350 . S
C1781 N1789 1.427 . S
C1782 H1773 0.930 . S
C1782 C1780 1.378 . S
C1782 C1783 1.367 . S
C1783 C1782 1.367 . S
C1783 C1785 1.433 . S
C1784 C1780 1.350 . S
C1784 C1781 1.463 . S
C1784 N1788 1.427 . S
C1785 H1775 0.929 . S
C1785 C1783 1.433 . S
C1785 N1788 1.384 . S
C1786 H1777 0.929 . S
C1786 C1778 1.378 . S
C1786 C1781 1.350 . S
C1787 H1774 0.929 . S
C1787 C1779 1.433 . S
C1787 N1789 1.384 . S
N1788 C1784 1.427 . S
N1788 C1785 1.384 . S
N1789 C1781 1.427 . S
N1789 C1787 1.384 . S
H1790 C1796 0.930 . S
H1791 C1800 0.930 . S
H1792 C1805 0.929 . S
H1793 C1803 0.929 . S
H1794 C1798 0.929 . S
H1795 C1804 0.929 . S
C1796 H1790 0.930 . S
C1796 C1797 1.367 . S
C1796 C1804 1.378 . S
C1797 C1796 1.367 . S
C1797 C1805 1.433 . S
C1798 H1794 0.929 . S
C1798 C1800 1.378 . S
C1798 C1802 1.350 . S
C1799 C1802 1.463 . S
C1799 C1804 1.350 . S
C1799 N1807 1.427 . S
C1800 H1791 0.930 . S
C1800 C1798 1.378 . S
C1800 C1801 1.367 . S
C1801 C1800 1.367 . S
C1801 C1803 1.433 . S
C1802 C1798 1.350 . S
C1802 C1799 1.463 . S
C1802 N1806 1.427 . S
C1803 H1793 0.929 . S
C1803 C1801 1.433 . S
C1803 N1806 1.384 . S
C1804 H1795 0.929 . S
C1804 C1796 1.378 . S
C1804 C1799 1.350 . S
C1805 H1792 0.929 . S
C1805 C1797 1.433 . S
C1805 N1807 1.384 . S
N1806 C1802 1.427 . S
N1806 C1803 1.384 . S
N1807 C1799 1.427 . S
N1807 C1805 1.384 . S
H1808 C1814 0.930 . S
H1809 C1818 0.930 . S
H1810 C1823 0.929 . S
H1811 C1821 0.929 . S
H1812 C1816 0.929 . S
H1813 C1822 0.929 . S
C1814 H1808 0.930 . S
C1814 C1815 1.367 . S
C1814 C1822 1.378 . S
C1815 C1814 1.367 . S
C1815 C1823 1.433 . S
C1816 H1812 0.929 . S
C1816 C1818 1.378 . S
C1816 C1820 1.350 . S
C1817 C1820 1.463 . S
C1817 C1822 1.350 . S
C1817 N1825 1.427 . S
C1818 H1809 0.930 . S
C1818 C1816 1.378 . S
C1818 C1819 1.367 . S
C1819 C1818 1.367 . S
C1819 C1821 1.433 . S
C1820 C1816 1.350 . S
C1820 C1817 1.463 . S
C1820 N1824 1.427 . S
C1821 H1811 0.929 . S
C1821 C1819 1.433 . S
C1821 N1824 1.384 . S
C1822 H1813 0.929 . S
C1822 C1814 1.378 . S
C1822 C1817 1.350 . S
C1823 H1810 0.929 . S
C1823 C1815 1.433 . S
C1823 N1825 1.384 . S
N1824 C1820 1.427 . S
N1824 C1821 1.384 . S
N1825 C1817 1.427 . S
N1825 C1823 1.384 . S
H1826 C1832 0.930 . S
H1827 C1836 0.930 . S
H1828 C1841 0.929 . S
H1829 C1839 0.929 . S
H1830 C1834 0.929 . S
H1831 C1840 0.929 . S
C1832 H1826 0.930 . S
C1832 C1833 1.367 . S
C1832 C1840 1.378 . S
C1833 C1832 1.367 . S
C1833 C1841 1.433 . S
C1834 H1830 0.929 . S
C1834 C1836 1.378 . S
C1834 C1838 1.350 . S
C1835 C1838 1.463 . S
C1835 C1840 1.350 . S
C1835 N1843 1.427 . S
C1836 H1827 0.930 . S
C1836 C1834 1.378 . S
C1836 C1837 1.367 . S
C1837 C1836 1.367 . S
C1837 C1839 1.433 . S
C1838 C1834 1.350 . S
C1838 C1835 1.463 . S
C1838 N1842 1.427 . S
C1839 H1829 0.929 . S
C1839 C1837 1.433 . S
C1839 N1842 1.384 . S
C1840 H1831 0.929 . S
C1840 C1832 1.378 . S
C1840 C1835 1.350 . S
C1841 H1828 0.929 . S
C1841 C1833 1.433 . S
C1841 N1843 1.384 . S
N1842 C1838 1.427 . S
N1842 C1839 1.384 . S
N1843 C1835 1.427 . S
N1843 C1841 1.384 . S
H1844 C1850 0.930 . S
H1845 C1854 0.930 . S
H1846 C1859 0.929 . S
H1847 C1857 0.929 . S
H1848 C1852 0.929 . S
H1849 C1858 0.929 . S
C1850 H1844 0.930 . S
C1850 C1851 1.367 . S
C1850 C1858 1.378 . S
C1851 C1850 1.367 . S
C1851 C1859 1.433 . S
C1852 H1848 0.929 . S
C1852 C1854 1.378 . S
C1852 C1856 1.350 . S
C1853 C1856 1.463 . S
C1853 C1858 1.350 . S
C1853 N1861 1.427 . S
C1854 H1845 0.930 . S
C1854 C1852 1.378 . S
C1854 C1855 1.367 . S
C1855 C1854 1.367 . S
C1855 C1857 1.433 . S
C1856 C1852 1.350 . S
C1856 C1853 1.463 . S
C1856 N1860 1.427 . S
C1857 H1847 0.929 . S
C1857 C1855 1.433 . S
C1857 N1860 1.384 . S
C1858 H1849 0.929 . S
C1858 C1850 1.378 . S
C1858 C1853 1.350 . S
C1859 H1846 0.929 . S
C1859 C1851 1.433 . S
C1859 N1861 1.384 . S
N1860 C1856 1.427 . S
N1860 C1857 1.384 . S
N1861 C1853 1.427 . S
N1861 C1859 1.384 . S
H1862 C1868 0.930 . S
H1863 C1872 0.930 . S
H1864 C1877 0.929 . S
H1865 C1875 0.929 . S
H1866 C1870 0.929 . S
H1867 C1876 0.929 . S
C1868 H1862 0.930 . S
C1868 C1869 1.367 . S
C1868 C1876 1.378 . S
C1869 C1868 1.367 . S
C1869 C1877 1.433 . S
C1870 H1866 0.929 . S
C1870 C1872 1.378 1_655 S
C1870 C1874 1.350 . S
C1871 C1874 1.463 . S
C1871 C1876 1.350 . S
C1871 N1879 1.427 . S
C1872 H1863 0.930 . S
C1872 C1870 1.378 1_455 S
C1872 C1873 1.367 . S
C1873 C1872 1.367 . S
C1873 C1875 1.433 . S
C1874 C1870 1.350 . S
C1874 C1871 1.463 . S
C1874 N1878 1.427 . S
C1875 H1865 0.929 . S
C1875 C1873 1.433 . S
C1875 N1878 1.384 1_455 S
C1876 H1867 0.929 . S
C1876 C1868 1.378 . S
C1876 C1871 1.350 . S
C1877 H1864 0.929 . S
C1877 C1869 1.433 . S
C1877 N1879 1.384 . S
N1878 C1874 1.427 . S
N1878 C1875 1.384 1_655 S
N1879 C1871 1.427 . S
N1879 C1877 1.384 . S
H1880 C1886 0.930 . S
H1881 C1890 0.930 . S
H1882 C1895 0.929 . S
H1883 C1893 0.929 . S
H1884 C1888 0.929 . S
H1885 C1894 0.929 . S
C1886 H1880 0.930 . S
C1886 C1887 1.367 . S
C1886 C1894 1.378 . S
C1887 C1886 1.367 . S
C1887 C1895 1.433 . S
C1888 H1884 0.929 . S
C1888 C1890 1.378 . S
C1888 C1892 1.350 . S
C1889 C1892 1.463 . S
C1889 C1894 1.350 . S
C1889 N1897 1.427 . S
C1890 H1881 0.930 . S
C1890 C1888 1.378 . S
C1890 C1891 1.367 . S
C1891 C1890 1.367 . S
C1891 C1893 1.433 . S
C1892 C1888 1.350 . S
C1892 C1889 1.463 . S
C1892 N1896 1.427 . S
C1893 H1883 0.929 . S
C1893 C1891 1.433 . S
C1893 N1896 1.384 . S
C1894 H1885 0.929 . S
C1894 C1886 1.378 . S
C1894 C1889 1.350 . S
C1895 H1882 0.929 . S
C1895 C1887 1.433 . S
C1895 N1897 1.384 . S
N1896 C1892 1.427 . S
N1896 C1893 1.384 . S
N1897 C1889 1.427 . S
N1897 C1895 1.384 . S
H1898 C1904 0.930 . S
H1899 C1908 0.930 . S
H1900 C1913 0.929 . S
H1901 C1911 0.929 . S
H1902 C1906 0.929 . S
H1903 C1912 0.929 . S
C1904 H1898 0.930 . S
C1904 C1905 1.367 . S
C1904 C1912 1.378 1_455 S
C1905 C1904 1.367 . S
C1905 C1913 1.433 . S
C1906 H1902 0.929 . S
C1906 C1908 1.378 . S
C1906 C1910 1.350 . S
C1907 C1910 1.463 . S
C1907 C1912 1.350 . S
C1907 N1915 1.427 . S
C1908 H1899 0.930 . S
C1908 C1906 1.378 . S
C1908 C1909 1.367 . S
C1909 C1908 1.367 . S
C1909 C1911 1.433 . S
C1910 C1906 1.350 . S
C1910 C1907 1.463 . S
C1910 N1914 1.427 . S
C1911 H1901 0.929 . S
C1911 C1909 1.433 . S
C1911 N1914 1.384 . S
C1912 H1903 0.929 . S
C1912 C1904 1.378 1_655 S
C1912 C1907 1.350 . S
C1913 H1900 0.929 . S
C1913 C1905 1.433 . S
C1913 N1915 1.384 1_455 S
N1914 C1910 1.427 . S
N1914 C1911 1.384 . S
N1915 C1907 1.427 . S
N1915 C1913 1.384 1_655 S
H1916 C1922 0.930 . S
H1917 C1926 0.930 . S
H1918 C1931 0.929 . S
H1919 C1929 0.929 . S
H1920 C1924 0.929 . S
H1921 C1930 0.929 . S
C1922 H1916 0.930 . S
C1922 C1923 1.367 . S
C1922 C1930 1.378 . S
C1923 C1922 1.367 . S
C1923 C1931 1.433 . S
C1924 H1920 0.929 . S
C1924 C1926 1.378 . S
C1924 C1928 1.350 . S
C1925 C1928 1.463 . S
C1925 C1930 1.350 . S
C1925 N1933 1.427 . S
C1926 H1917 0.930 . S
C1926 C1924 1.378 . S
C1926 C1927 1.367 . S
C1927 C1926 1.367 . S
C1927 C1929 1.433 . S
C1928 C1924 1.350 . S
C1928 C1925 1.463 . S
C1928 N1932 1.427 . S
C1929 H1919 0.929 . S
C1929 C1927 1.433 . S
C1929 N1932 1.384 . S
C1930 H1921 0.929 . S
C1930 C1922 1.378 . S
C1930 C1925 1.350 . S
C1931 H1918 0.929 . S
C1931 C1923 1.433 . S
C1931 N1933 1.384 . S
N1932 C1928 1.427 . S
N1932 C1929 1.384 . S
N1933 C1925 1.427 . S
N1933 C1931 1.384 . S
H1934 C1940 0.930 . S
H1935 C1944 0.930 . S
H1936 C1949 0.929 . S
H1937 C1947 0.929 . S
H1938 C1942 0.929 . S
H1939 C1948 0.929 . S
C1940 H1934 0.930 . S
C1940 C1941 1.367 . S
C1940 C1948 1.378 . S
C1941 C1940 1.367 . S
C1941 C1949 1.433 . S
C1942 H1938 0.929 . S
C1942 C1944 1.378 . S
C1942 C1946 1.350 . S
C1943 C1946 1.463 . S
C1943 C1948 1.350 . S
C1943 N1951 1.427 . S
C1944 H1935 0.930 . S
C1944 C1942 1.378 . S
C1944 C1945 1.367 . S
C1945 C1944 1.367 . S
C1945 C1947 1.433 . S
C1946 C1942 1.350 . S
C1946 C1943 1.463 . S
C1946 N1950 1.427 . S
C1947 H1937 0.929 . S
C1947 C1945 1.433 . S
C1947 N1950 1.384 . S
C1948 H1939 0.929 . S
C1948 C1940 1.378 . S
C1948 C1943 1.350 . S
C1949 H1936 0.929 . S
C1949 C1941 1.433 . S
C1949 N1951 1.384 . S
N1950 C1946 1.427 . S
N1950 C1947 1.384 . S
N1951 C1943 1.427 . S
N1951 C1949 1.384 . S
H1952 C1958 0.930 . S
H1953 C1962 0.930 . S
H1954 C1967 0.929 . S
H1955 C1965 0.929 . S
H1956 C1960 0.929 . S
H1957 C1966 0.929 . S
C1958 H1952 0.930 . S
C1958 C1959 1.367 . S
C1958 C1966 1.378 . S
C1959 C1958 1.367 . S
C1959 C1967 1.433 . S
C1960 H1956 0.929 . S
C1960 C1962 1.378 . S
C1960 C1964 1.350 . S
C1961 C1964 1.463 . S
C1961 C1966 1.350 . S
C1961 N1969 1.427 . S
C1962 H1953 0.930 . S
C1962 C1960 1.378 . S
C1962 C1963 1.367 . S
C1963 C1962 1.367 . S
C1963 C1965 1.433 . S
C1964 C1960 1.350 . S
C1964 C1961 1.463 . S
C1964 N1968 1.427 . S
C1965 H1955 0.929 . S
C1965 C1963 1.433 . S
C1965 N1968 1.384 . S
C1966 H1957 0.929 . S
C1966 C1958 1.378 . S
C1966 C1961 1.350 . S
C1967 H1954 0.929 . S
C1967 C1959 1.433 . S
C1967 N1969 1.384 . S
N1968 C1964 1.427 . S
N1968 C1965 1.384 . S
N1969 C1961 1.427 . S
N1969 C1967 1.384 . S
H1970 C1976 0.930 . S
H1971 C1980 0.930 . S
H1972 C1985 0.929 . S
H1973 C1983 0.929 . S
H1974 C1978 0.929 . S
H1975 C1984 0.929 . S
C1976 H1970 0.930 . S
C1976 C1977 1.367 1_545 S
C1976 C1984 1.378 . S
C1977 C1976 1.367 1_565 S
C1977 C1985 1.433 . S
C1978 H1974 0.929 . S
C1978 C1980 1.378 . S
C1978 C1982 1.350 1_565 S
C1979 C1982 1.463 1_465 S
C1979 C1984 1.350 1_565 S
C1979 N1987 1.427 . S
C1980 H1971 0.930 . S
C1980 C1978 1.378 . S
C1980 C1981 1.367 1_565 S
C1981 C1980 1.367 1_545 S
C1981 C1983 1.433 . S
C1982 C1978 1.350 1_545 S
C1982 C1979 1.463 1_645 S
C1982 N1986 1.427 . S
C1983 H1973 0.929 . S
C1983 C1981 1.433 . S
C1983 N1986 1.384 . S
C1984 H1975 0.929 . S
C1984 C1976 1.378 . S
C1984 C1979 1.350 1_545 S
C1985 H1972 0.929 . S
C1985 C1977 1.433 . S
C1985 N1987 1.384 . S
N1986 C1982 1.427 . S
N1986 C1983 1.384 . S
N1987 C1979 1.427 . S
N1987 C1985 1.384 . S
H1988 C1994 0.930 . S
H1989 C1998 0.930 . S
H1990 C2003 0.929 . S
H1991 C2001 0.929 . S
H1992 C1996 0.929 . S
H1993 C2002 0.929 . S
C1994 H1988 0.930 . S
C1994 C1995 1.367 . S
C1994 C2002 1.378 . S
C1995 C1994 1.367 . S
C1995 C2003 1.433 . S
C1996 H1992 0.929 . S
C1996 C1998 1.378 . S
C1996 C2000 1.350 . S
C1997 C2000 1.463 . S
C1997 C2002 1.350 . S
C1997 N2005 1.427 . S
C1998 H1989 0.930 . S
C1998 C1996 1.378 . S
C1998 C1999 1.367 . S
C1999 C1998 1.367 . S
C1999 C2001 1.433 . S
C2000 C1996 1.350 . S
C2000 C1997 1.463 . S
C2000 N2004 1.427 . S
C2001 H1991 0.929 . S
C2001 C1999 1.433 . S
C2001 N2004 1.384 . S
C2002 H1993 0.929 . S
C2002 C1994 1.378 . S
C2002 C1997 1.350 . S
C2003 H1990 0.929 . S
C2003 C1995 1.433 . S
C2003 N2005 1.384 . S
N2004 C2000 1.427 . S
N2004 C2001 1.384 . S
N2005 C1997 1.427 . S
N2005 C2003 1.384 . S
H2006 C2012 0.930 . S
H2007 C2016 0.930 . S
H2008 C2021 0.929 . S
H2009 C2019 0.929 . S
H2010 C2014 0.929 . S
H2011 C2020 0.929 . S
C2012 H2006 0.930 . S
C2012 C2013 1.367 1_545 S
C2012 C2020 1.378 . S
C2013 C2012 1.367 1_565 S
C2013 C2021 1.433 1_556 S
C2014 H2010 0.929 . S
C2014 C2016 1.378 . S
C2014 C2018 1.350 1_565 S
C2015 C2018 1.463 1_566 S
C2015 C2020 1.350 1_565 S
C2015 N2023 1.427 1_556 S
C2016 H2007 0.930 . S
C2016 C2014 1.378 . S
C2016 C2017 1.367 1_565 S
C2017 C2016 1.367 1_545 S
C2017 C2019 1.433 1_554 S
C2018 C2014 1.350 1_545 S
C2018 C2015 1.463 1_544 S
C2018 N2022 1.427 1_554 S
C2019 H2009 0.929 . S
C2019 C2017 1.433 1_556 S
C2019 N2022 1.384 . S
C2020 H2011 0.929 . S
C2020 C2012 1.378 . S
C2020 C2015 1.350 1_545 S
C2021 H2008 0.929 . S
C2021 C2013 1.433 1_554 S
C2021 N2023 1.384 . S
N2022 C2018 1.427 1_556 S
N2022 C2019 1.384 . S
N2023 C2015 1.427 1_554 S
N2023 C2021 1.384 . S
H2024 C2030 0.930 . S
H2025 C2034 0.930 . S
H2026 C2039 0.929 . S
H2027 C2037 0.929 . S
H2028 C2032 0.929 . S
H2029 C2038 0.929 . S
C2030 H2024 0.930 . S
C2030 C2031 1.367 . S
C2030 C2038 1.378 . S
C2031 C2030 1.367 . S
C2031 C2039 1.433 . S
C2032 H2028 0.929 . S
C2032 C2034 1.378 . S
C2032 C2036 1.350 . S
C2033 C2036 1.463 . S
C2033 C2038 1.350 . S
C2033 N2041 1.427 . S
C2034 H2025 0.930 . S
C2034 C2032 1.378 . S
C2034 C2035 1.367 . S
C2035 C2034 1.367 . S
C2035 C2037 1.433 . S
C2036 C2032 1.350 . S
C2036 C2033 1.463 . S
C2036 N2040 1.427 . S
C2037 H2027 0.929 . S
C2037 C2035 1.433 . S
C2037 N2040 1.384 . S
C2038 H2029 0.929 . S
C2038 C2030 1.378 . S
C2038 C2033 1.350 . S
C2039 H2026 0.929 . S
C2039 C2031 1.433 . S
C2039 N2041 1.384 . S
N2040 C2036 1.427 . S
N2040 C2037 1.384 . S
N2041 C2033 1.427 . S
N2041 C2039 1.384 . S
H2042 C2048 0.933 . S
H2043 C2052 0.933 . S
H2044 C2057 0.929 . S
H2045 C2055 0.929 . S
H2046 C2050 0.929 . S
H2047 C2056 0.929 . S
C2048 H2042 0.933 . S
C2048 C2049 1.362 1_545 S
C2048 C2056 1.380 . S
C2049 C2048 1.362 1_565 S
C2049 C2057 1.433 . S
C2050 H2046 0.929 . S
C2050 C2052 1.380 . S
C2050 C2054 1.350 1_565 S
C2051 C2054 1.463 1_565 S
C2051 C2056 1.350 1_565 S
C2051 N2059 1.427 . S
C2052 H2043 0.933 . S
C2052 C2050 1.380 . S
C2052 C2053 1.362 1_565 S
C2053 C2052 1.362 1_545 S
C2053 C2055 1.433 . S
C2054 C2050 1.350 1_545 S
C2054 C2051 1.463 1_545 S
C2054 N2058 1.427 . S
C2055 H2045 0.929 . S
C2055 C2053 1.433 . S
C2055 N2058 1.384 . S
C2056 H2047 0.929 . S
C2056 C2048 1.380 . S
C2056 C2051 1.350 1_545 S
C2057 H2044 0.929 . S
C2057 C2049 1.433 . S
C2057 N2059 1.384 . S
N2058 C2054 1.427 . S
N2058 C2055 1.384 . S
N2059 C2051 1.427 . S
N2059 C2057 1.384 . S
H2060 C2066 0.930 . S
H2061 C2070 0.930 . S
H2062 C2075 0.929 . S
H2063 C2073 0.929 . S
H2064 C2068 0.929 . S
H2065 C2074 0.929 . S
C2066 H2060 0.930 . S
C2066 C2067 1.367 . S
C2066 C2074 1.378 . S
C2067 C2066 1.367 . S
C2067 C2075 1.433 . S
C2068 H2064 0.929 . S
C2068 C2070 1.378 . S
C2068 C2072 1.350 . S
C2069 C2072 1.463 . S
C2069 C2074 1.350 . S
C2069 N2077 1.427 . S
C2070 H2061 0.930 . S
C2070 C2068 1.378 . S
C2070 C2071 1.367 . S
C2071 C2070 1.367 . S
C2071 C2073 1.433 . S
C2072 C2068 1.350 . S
C2072 C2069 1.463 . S
C2072 N2076 1.427 . S
C2073 H2063 0.929 . S
C2073 C2071 1.433 . S
C2073 N2076 1.384 . S
C2074 H2065 0.929 . S
C2074 C2066 1.378 . S
C2074 C2069 1.350 . S
C2075 H2062 0.929 . S
C2075 C2067 1.433 . S
C2075 N2077 1.384 . S
N2076 C2072 1.427 . S
N2076 C2073 1.384 . S
N2077 C2069 1.427 . S
N2077 C2075 1.384 . S
H2078 C2084 0.930 . S
H2079 C2088 0.930 . S
H2080 C2093 0.929 . S
H2081 C2091 0.929 . S
H2082 C2086 0.929 . S
H2083 C2092 0.929 . S
C2084 H2078 0.930 . S
C2084 C2085 1.367 . S
C2084 C2092 1.378 . S
C2085 C2084 1.367 . S
C2085 C2093 1.433 1_556 S
C2086 H2082 0.929 . S
C2086 C2088 1.378 . S
C2086 C2090 1.350 . S
C2087 C2090 1.463 1_446 S
C2087 C2092 1.350 . S
C2087 N2095 1.427 1_556 S
C2088 H2079 0.930 . S
C2088 C2086 1.378 . S
C2088 C2089 1.367 . S
C2089 C2088 1.367 . S
C2089 C2091 1.433 1_554 S
C2090 C2086 1.350 . S
C2090 C2087 1.463 1_664 S
C2090 N2094 1.427 1_554 S
C2091 H2081 0.929 . S
C2091 C2089 1.433 1_556 S
C2091 N2094 1.384 . S
C2092 H2083 0.929 . S
C2092 C2084 1.378 . S
C2092 C2087 1.350 . S
C2093 H2080 0.929 . S
C2093 C2085 1.433 1_554 S
C2093 N2095 1.384 . S
N2094 C2090 1.427 1_556 S
N2094 C2091 1.384 . S
N2095 C2087 1.427 1_554 S
N2095 C2093 1.384 . S
H2096 C2102 0.930 . S
H2097 C2106 0.930 . S
H2098 C2111 0.929 . S
H2099 C2109 0.929 . S
H2100 C2104 0.929 . S
H2101 C2110 0.929 . S
C2102 H2096 0.930 . S
C2102 C2103 1.367 . S
C2102 C2110 1.378 . S
C2103 C2102 1.367 . S
C2103 C2111 1.433 . S
C2104 H2100 0.929 . S
C2104 C2106 1.378 . S
C2104 C2108 1.350 . S
C2105 C2108 1.463 . S
C2105 C2110 1.350 . S
C2105 N2113 1.427 . S
C2106 H2097 0.930 . S
C2106 C2104 1.378 . S
C2106 C2107 1.367 . S
C2107 C2106 1.367 . S
C2107 C2109 1.433 . S
C2108 C2104 1.350 . S
C2108 C2105 1.463 . S
C2108 N2112 1.427 . S
C2109 H2099 0.929 . S
C2109 C2107 1.433 . S
C2109 N2112 1.384 . S
C2110 H2101 0.929 . S
C2110 C2102 1.378 . S
C2110 C2105 1.350 . S
C2111 H2098 0.929 . S
C2111 C2103 1.433 . S
C2111 N2113 1.384 . S
N2112 C2108 1.427 . S
N2112 C2109 1.384 . S
N2113 C2105 1.427 . S
N2113 C2111 1.384 . S
H2114 C2120 0.930 . S
H2115 C2124 0.930 . S
H2116 C2129 0.929 . S
H2117 C2127 0.929 . S
H2118 C2122 0.929 . S
H2119 C2128 0.929 . S
C2120 H2114 0.930 . S
C2120 C2121 1.367 . S
C2120 C2128 1.378 . S
C2121 C2120 1.367 . S
C2121 C2129 1.433 . S
C2122 H2118 0.929 . S
C2122 C2124 1.378 . S
C2122 C2126 1.350 . S
C2123 C2126 1.463 . S
C2123 C2128 1.350 . S
C2123 N2131 1.427 . S
C2124 H2115 0.930 . S
C2124 C2122 1.378 . S
C2124 C2125 1.367 . S
C2125 C2124 1.367 . S
C2125 C2127 1.433 . S
C2126 C2122 1.350 . S
C2126 C2123 1.463 . S
C2126 N2130 1.427 . S
C2127 H2117 0.929 . S
C2127 C2125 1.433 . S
C2127 N2130 1.384 . S
C2128 H2119 0.929 . S
C2128 C2120 1.378 . S
C2128 C2123 1.350 . S
C2129 H2116 0.929 . S
C2129 C2121 1.433 . S
C2129 N2131 1.384 . S
N2130 C2126 1.427 . S
N2130 C2127 1.384 . S
N2131 C2123 1.427 . S
N2131 C2129 1.384 . S
H2132 C2138 0.930 . S
H2133 C2142 0.930 . S
H2134 C2147 0.929 . S
H2135 C2145 0.929 . S
H2136 C2140 0.929 . S
H2137 C2146 0.929 . S
C2138 H2132 0.930 . S
C2138 C2139 1.367 . S
C2138 C2146 1.378 . S
C2139 C2138 1.367 . S
C2139 C2147 1.433 . S
C2140 H2136 0.929 . S
C2140 C2142 1.378 . S
C2140 C2144 1.350 . S
C2141 C2144 1.463 . S
C2141 C2146 1.350 . S
C2141 N2149 1.427 . S
C2142 H2133 0.930 . S
C2142 C2140 1.378 . S
C2142 C2143 1.367 . S
C2143 C2142 1.367 . S
C2143 C2145 1.433 . S
C2144 C2140 1.350 . S
C2144 C2141 1.463 . S
C2144 N2148 1.427 . S
C2145 H2135 0.929 . S
C2145 C2143 1.433 . S
C2145 N2148 1.384 . S
C2146 H2137 0.929 . S
C2146 C2138 1.378 . S
C2146 C2141 1.350 . S
C2147 H2134 0.929 . S
C2147 C2139 1.433 . S
C2147 N2149 1.384 . S
N2148 C2144 1.427 . S
N2148 C2145 1.384 . S
N2149 C2141 1.427 . S
N2149 C2147 1.384 . S
H2150 C2156 0.930 . S
H2151 C2160 0.930 . S
H2152 C2165 0.929 . S
H2153 C2163 0.929 . S
H2154 C2158 0.929 . S
H2155 C2164 0.929 . S
C2156 H2150 0.930 . S
C2156 C2157 1.367 . S
C2156 C2164 1.378 . S
C2157 C2156 1.367 . S
C2157 C2165 1.433 . S
C2158 H2154 0.929 . S
C2158 C2160 1.378 . S
C2158 C2162 1.350 . S
C2159 C2162 1.463 . S
C2159 C2164 1.350 . S
C2159 N2167 1.427 . S
C2160 H2151 0.930 . S
C2160 C2158 1.378 . S
C2160 C2161 1.367 . S
C2161 C2160 1.367 . S
C2161 C2163 1.433 . S
C2162 C2158 1.350 . S
C2162 C2159 1.463 . S
C2162 N2166 1.427 . S
C2163 H2153 0.929 . S
C2163 C2161 1.433 . S
C2163 N2166 1.384 . S
C2164 H2155 0.929 . S
C2164 C2156 1.378 . S
C2164 C2159 1.350 . S
C2165 H2152 0.929 . S
C2165 C2157 1.433 . S
C2165 N2167 1.384 . S
N2166 C2162 1.427 . S
N2166 C2163 1.384 . S
N2167 C2159 1.427 . S
N2167 C2165 1.384 . S
H2168 C2174 0.930 . S
H2169 C2178 0.930 . S
H2170 C2183 0.929 . S
H2171 C2181 0.929 . S
H2172 C2176 0.937 . S
H2173 C2182 0.937 . S
C2174 H2168 0.930 . S
C2174 C2175 1.367 . S
C2174 C2182 1.373 1_554 S
C2175 C2174 1.367 . S
C2175 C2183 1.433 . S
C2176 H2172 0.937 . S
C2176 C2178 1.373 1_554 S
C2176 C2180 1.347 1_554 S
C2177 C2180 1.463 1_554 S
C2177 C2182 1.347 1_554 S
C2177 N2185 1.427 . S
C2178 H2169 0.930 . S
C2178 C2176 1.373 1_556 S
C2178 C2179 1.367 . S
C2179 C2178 1.367 . S
C2179 C2181 1.433 . S
C2180 C2176 1.347 1_556 S
C2180 C2177 1.463 1_556 S
C2180 N2184 1.427 . S
C2181 H2171 0.929 . S
C2181 C2179 1.433 . S
C2181 N2184 1.384 . S
C2182 H2173 0.937 . S
C2182 C2174 1.373 1_556 S
C2182 C2177 1.347 1_556 S
C2183 H2170 0.929 . S
C2183 C2175 1.433 . S
C2183 N2185 1.384 . S
N2184 C2180 1.427 . S
N2184 C2181 1.384 . S
N2185 C2177 1.427 . S
N2185 C2183 1.384 . S
H2186 C2192 0.930 . S
H2187 C2196 0.930 . S
H2188 C2201 0.929 . S
H2189 C2199 0.929 . S
H2190 C2194 0.929 . S
H2191 C2200 0.929 . S
C2192 H2186 0.930 . S
C2192 C2193 1.367 . S
C2192 C2200 1.378 . S
C2193 C2192 1.367 . S
C2193 C2201 1.433 . S
C2194 H2190 0.929 . S
C2194 C2196 1.378 . S
C2194 C2198 1.350 . S
C2195 C2198 1.463 1_455 S
C2195 C2200 1.350 . S
C2195 N2203 1.427 . S
C2196 H2187 0.930 . S
C2196 C2194 1.378 . S
C2196 C2197 1.367 . S
C2197 C2196 1.367 . S
C2197 C2199 1.433 . S
C2198 C2194 1.350 . S
C2198 C2195 1.463 1_655 S
C2198 N2202 1.427 . S
C2199 H2189 0.929 . S
C2199 C2197 1.433 . S
C2199 N2202 1.384 . S
C2200 H2191 0.929 . S
C2200 C2192 1.378 . S
C2200 C2195 1.350 . S
C2201 H2188 0.929 . S
C2201 C2193 1.433 . S
C2201 N2203 1.384 . S
N2202 C2198 1.427 . S
N2202 C2199 1.384 . S
N2203 C2195 1.427 . S
N2203 C2201 1.384 . S
H2204 C2210 0.930 . S
H2205 C2214 0.930 . S
H2206 C2219 0.929 . S
H2207 C2217 0.929 . S
H2208 C2212 0.929 . S
H2209 C2218 0.929 . S
C2210 H2204 0.930 . S
C2210 C2211 1.367 1_554 S
C2210 C2218 1.378 . S
C2211 C2210 1.367 1_556 S
C2211 C2219 1.433 . S
C2212 H2208 0.929 . S
C2212 C2214 1.378 . S
C2212 C2216 1.350 1_556 S
C2213 C2216 1.463 1_656 S
C2213 C2218 1.350 1_556 S
C2213 N2221 1.427 . S
C2214 H2205 0.930 . S
C2214 C2212 1.378 . S
C2214 C2215 1.367 1_556 S
C2215 C2214 1.367 1_554 S
C2215 C2217 1.433 . S
C2216 C2212 1.350 1_554 S
C2216 C2213 1.463 1_454 S
C2216 N2220 1.427 . S
C2217 H2207 0.929 . S
C2217 C2215 1.433 . S
C2217 N2220 1.384 . S
C2218 H2209 0.929 . S
C2218 C2210 1.378 . S
C2218 C2213 1.350 1_554 S
C2219 H2206 0.929 . S
C2219 C2211 1.433 . S
C2219 N2221 1.384 . S
N2220 C2216 1.427 . S
N2220 C2217 1.384 . S
N2221 C2213 1.427 . S
N2221 C2219 1.384 . S
H2222 C2228 0.930 . S
H2223 C2232 0.930 . S
H2224 C2237 0.929 . S
H2225 C2235 0.929 . S
H2226 C2230 0.929 . S
H2227 C2236 0.929 . S
C2228 H2222 0.930 . S
C2228 C2229 1.367 . S
C2228 C2236 1.378 . S
C2229 C2228 1.367 . S
C2229 C2237 1.433 . S
C2230 H2226 0.929 . S
C2230 C2232 1.378 . S
C2230 C2234 1.350 . S
C2231 C2234 1.463 . S
C2231 C2236 1.350 . S
C2231 N2239 1.427 . S
C2232 H2223 0.930 . S
C2232 C2230 1.378 . S
C2232 C2233 1.367 . S
C2233 C2232 1.367 . S
C2233 C2235 1.433 . S
C2234 C2230 1.350 . S
C2234 C2231 1.463 . S
C2234 N2238 1.427 . S
C2235 H2225 0.929 . S
C2235 C2233 1.433 . S
C2235 N2238 1.384 . S
C2236 H2227 0.929 . S
C2236 C2228 1.378 . S
C2236 C2231 1.350 . S
C2237 H2224 0.929 . S
C2237 C2229 1.433 . S
C2237 N2239 1.384 . S
N2238 C2234 1.427 . S
N2238 C2235 1.384 . S
N2239 C2231 1.427 . S
N2239 C2237 1.384 . S
H2240 C2246 0.930 . S
H2241 C2250 0.930 . S
H2242 C2255 0.929 . S
H2243 C2253 0.929 . S
H2244 C2248 0.929 . S
H2245 C2254 0.929 . S
C2246 H2240 0.930 . S
C2246 C2247 1.367 . S
C2246 C2254 1.378 . S
C2247 C2246 1.367 . S
C2247 C2255 1.433 . S
C2248 H2244 0.929 . S
C2248 C2250 1.378 . S
C2248 C2252 1.350 . S
C2249 C2252 1.463 . S
C2249 C2254 1.350 . S
C2249 N2257 1.427 . S
C2250 H2241 0.930 . S
C2250 C2248 1.378 . S
C2250 C2251 1.367 . S
C2251 C2250 1.367 . S
C2251 C2253 1.433 . S
C2252 C2248 1.350 . S
C2252 C2249 1.463 . S
C2252 N2256 1.427 . S
C2253 H2243 0.929 . S
C2253 C2251 1.433 . S
C2253 N2256 1.384 . S
C2254 H2245 0.929 . S
C2254 C2246 1.378 . S
C2254 C2249 1.350 . S
C2255 H2242 0.929 . S
C2255 C2247 1.433 . S
C2255 N2257 1.384 . S
N2256 C2252 1.427 . S
N2256 C2253 1.384 . S
N2257 C2249 1.427 . S
N2257 C2255 1.384 . S
H2258 C2264 0.930 . S
H2259 C2268 0.930 . S
H2260 C2273 0.929 . S
H2261 C2271 0.929 . S
H2262 C2266 0.929 . S
H2263 C2272 0.929 . S
C2264 H2258 0.930 . S
C2264 C2265 1.367 . S
C2264 C2272 1.378 . S
C2265 C2264 1.367 . S
C2265 C2273 1.433 . S
C2266 H2262 0.929 . S
C2266 C2268 1.378 . S
C2266 C2270 1.350 . S
C2267 C2270 1.463 1_545 S
C2267 C2272 1.350 . S
C2267 N2275 1.427 . S
C2268 H2259 0.930 . S
C2268 C2266 1.378 . S
C2268 C2269 1.367 . S
C2269 C2268 1.367 . S
C2269 C2271 1.433 . S
C2270 C2266 1.350 . S
C2270 C2267 1.463 1_565 S
C2270 N2274 1.427 . S
C2271 H2261 0.929 . S
C2271 C2269 1.433 . S
C2271 N2274 1.384 . S
C2272 H2263 0.929 . S
C2272 C2264 1.378 . S
C2272 C2267 1.350 . S
C2273 H2260 0.929 . S
C2273 C2265 1.433 . S
C2273 N2275 1.384 . S
N2274 C2270 1.427 . S
N2274 C2271 1.384 . S
N2275 C2267 1.427 . S
N2275 C2273 1.384 . S
H2276 C2282 0.930 . S
H2277 C2286 0.930 . S
H2278 C2291 0.929 . S
H2279 C2289 0.929 . S
H2280 C2284 0.929 . S
H2281 C2290 0.929 . S
C2282 H2276 0.930 . S
C2282 C2283 1.367 . S
C2282 C2290 1.378 . S
C2283 C2282 1.367 . S
C2283 C2291 1.433 . S
C2284 H2280 0.929 . S
C2284 C2286 1.378 . S
C2284 C2288 1.350 . S
C2285 C2288 1.463 1_554 S
C2285 C2290 1.350 . S
C2285 N2293 1.427 . S
C2286 H2277 0.930 . S
C2286 C2284 1.378 . S
C2286 C2287 1.367 . S
C2287 C2286 1.367 . S
C2287 C2289 1.433 . S
C2288 C2284 1.350 . S
C2288 C2285 1.463 1_556 S
C2288 N2292 1.427 . S
C2289 H2279 0.929 . S
C2289 C2287 1.433 . S
C2289 N2292 1.384 . S
C2290 H2281 0.929 . S
C2290 C2282 1.378 . S
C2290 C2285 1.350 . S
C2291 H2278 0.929 . S
C2291 C2283 1.433 . S
C2291 N2293 1.384 . S
N2292 C2288 1.427 . S
N2292 C2289 1.384 . S
N2293 C2285 1.427 . S
N2293 C2291 1.384 . S
H2294 C2300 0.930 . S
H2295 C2304 0.930 . S
H2296 C2309 0.929 . S
H2297 C2307 0.929 . S
H2298 C2302 0.929 1_565 S
H2299 C2308 0.929 1_545 S
C2300 H2294 0.930 . S
C2300 C2301 1.367 . S
C2300 C2308 1.378 . S
C2301 C2300 1.367 . S
C2301 C2309 1.433 . S
C2302 H2298 0.929 1_545 S
C2302 C2304 1.378 . S
C2302 C2306 1.350 . S
C2303 C2306 1.463 1_565 S
C2303 C2308 1.350 . S
C2303 N2311 1.427 . S
C2304 H2295 0.930 . S
C2304 C2302 1.378 . S
C2304 C2305 1.367 . S
C2305 C2304 1.367 . S
C2305 C2307 1.433 . S
C2306 C2302 1.350 . S
C2306 C2303 1.463 1_545 S
C2306 N2310 1.427 . S
C2307 H2297 0.929 . S
C2307 C2305 1.433 . S
C2307 N2310 1.384 . S
C2308 H2299 0.929 1_565 S
C2308 C2300 1.378 . S
C2308 C2303 1.350 . S
C2309 H2296 0.929 . S
C2309 C2301 1.433 . S
C2309 N2311 1.384 . S
N2310 C2306 1.427 . S
N2310 C2307 1.384 . S
N2311 C2303 1.427 . S
N2311 C2309 1.384 . S
H2312 C2318 0.930 . S
H2313 C2322 0.930 . S
H2314 C2327 0.929 . S
H2315 C2325 0.929 . S
H2316 C2320 0.929 . S
H2317 C2326 0.929 . S
C2318 H2312 0.930 . S
C2318 C2319 1.367 . S
C2318 C2326 1.378 . S
C2319 C2318 1.367 . S
C2319 C2327 1.433 . S
C2320 H2316 0.929 . S
C2320 C2322 1.378 . S
C2320 C2324 1.350 . S
C2321 C2324 1.463 . S
C2321 C2326 1.350 . S
C2321 N2329 1.427 . S
C2322 H2313 0.930 . S
C2322 C2320 1.378 . S
C2322 C2323 1.367 . S
C2323 C2322 1.367 . S
C2323 C2325 1.433 . S
C2324 C2320 1.350 . S
C2324 C2321 1.463 . S
C2324 N2328 1.427 . S
C2325 H2315 0.929 . S
C2325 C2323 1.433 . S
C2325 N2328 1.384 . S
C2326 H2317 0.929 . S
C2326 C2318 1.378 . S
C2326 C2321 1.350 . S
C2327 H2314 0.929 . S
C2327 C2319 1.433 . S
C2327 N2329 1.384 . S
N2328 C2324 1.427 . S
N2328 C2325 1.384 . S
N2329 C2321 1.427 . S
N2329 C2327 1.384 . S
H2330 C2336 0.930 . S
H2331 C2340 0.930 . S
H2332 C2345 0.929 . S
H2333 C2343 0.929 . S
H2334 C2338 0.929 . S
H2335 C2344 0.929 . S
C2336 H2330 0.930 . S
C2336 C2337 1.367 . S
C2336 C2344 1.378 . S
C2337 C2336 1.367 . S
C2337 C2345 1.433 . S
C2338 H2334 0.929 . S
C2338 C2340 1.378 . S
C2338 C2342 1.350 . S
C2339 C2342 1.463 1_545 S
C2339 C2344 1.350 . S
C2339 N2347 1.427 . S
C2340 H2331 0.930 . S
C2340 C2338 1.378 . S
C2340 C2341 1.367 . S
C2341 C2340 1.367 . S
C2341 C2343 1.433 . S
C2342 C2338 1.350 . S
C2342 C2339 1.463 1_565 S
C2342 N2346 1.427 . S
C2343 H2333 0.929 . S
C2343 C2341 1.433 . S
C2343 N2346 1.384 . S
C2344 H2335 0.929 . S
C2344 C2336 1.378 . S
C2344 C2339 1.350 . S
C2345 H2332 0.929 . S
C2345 C2337 1.433 . S
C2345 N2347 1.384 . S
N2346 C2342 1.427 . S
N2346 C2343 1.384 . S
N2347 C2339 1.427 . S
N2347 C2345 1.384 . S
H2348 C2354 0.930 . S
H2349 C2358 0.930 . S
H2350 C2363 0.929 . S
H2351 C2361 0.929 . S
H2352 C2356 0.929 . S
H2353 C2362 0.929 . S
C2354 H2348 0.930 . S
C2354 C2355 1.367 . S
C2354 C2362 1.378 . S
C2355 C2354 1.367 . S
C2355 C2363 1.433 . S
C2356 H2352 0.929 . S
C2356 C2358 1.378 . S
C2356 C2360 1.350 . S
C2357 C2360 1.463 1_556 S
C2357 C2362 1.350 . S
C2357 N2365 1.427 . S
C2358 H2349 0.930 . S
C2358 C2356 1.378 . S
C2358 C2359 1.367 . S
C2359 C2358 1.367 . S
C2359 C2361 1.433 . S
C2360 C2356 1.350 . S
C2360 C2357 1.463 1_554 S
C2360 N2364 1.427 . S
C2361 H2351 0.929 . S
C2361 C2359 1.433 . S
C2361 N2364 1.384 . S
C2362 H2353 0.929 . S
C2362 C2354 1.378 . S
C2362 C2357 1.350 . S
C2363 H2350 0.929 . S
C2363 C2355 1.433 . S
C2363 N2365 1.384 . S
N2364 C2360 1.427 . S
N2364 C2361 1.384 . S
N2365 C2357 1.427 . S
N2365 C2363 1.384 . S
H2366 C2372 0.930 . S
H2367 C2376 0.930 . S
H2368 C2381 0.929 . S
H2369 C2379 0.929 . S
H2370 C2374 0.929 . S
H2371 C2380 0.929 . S
C2372 H2366 0.930 . S
C2372 C2373 1.367 . S
C2372 C2380 1.378 . S
C2373 C2372 1.367 . S
C2373 C2381 1.433 . S
C2374 H2370 0.929 . S
C2374 C2376 1.378 . S
C2374 C2378 1.350 . S
C2375 C2378 1.463 1_545 S
C2375 C2380 1.350 . S
C2375 N2383 1.427 . S
C2376 H2367 0.930 . S
C2376 C2374 1.378 . S
C2376 C2377 1.367 . S
C2377 C2376 1.367 . S
C2377 C2379 1.433 . S
C2378 C2374 1.350 . S
C2378 C2375 1.463 1_565 S
C2378 N2382 1.427 . S
C2379 H2369 0.929 . S
C2379 C2377 1.433 . S
C2379 N2382 1.384 . S
C2380 H2371 0.929 . S
C2380 C2372 1.378 . S
C2380 C2375 1.350 . S
C2381 H2368 0.929 . S
C2381 C2373 1.433 . S
C2381 N2383 1.384 . S
N2382 C2378 1.427 . S
N2382 C2379 1.384 . S
N2383 C2375 1.427 . S
N2383 C2381 1.384 . S
H2384 C2390 0.930 . S
H2385 C2394 0.930 . S
H2386 C2399 0.929 . S
H2387 C2397 0.929 . S
H2388 C2392 0.929 . S
H2389 C2398 0.929 . S
C2390 H2384 0.930 . S
C2390 C2391 1.367 . S
C2390 C2398 1.378 . S
C2391 C2390 1.367 . S
C2391 C2399 1.433 . S
C2392 H2388 0.929 . S
C2392 C2394 1.378 . S
C2392 C2396 1.350 . S
C2393 C2396 1.463 1_556 S
C2393 C2398 1.350 . S
C2393 N2401 1.427 . S
C2394 H2385 0.930 . S
C2394 C2392 1.378 . S
C2394 C2395 1.367 . S
C2395 C2394 1.367 . S
C2395 C2397 1.433 . S
C2396 C2392 1.350 . S
C2396 C2393 1.463 1_554 S
C2396 N2400 1.427 . S
C2397 H2387 0.929 . S
C2397 C2395 1.433 . S
C2397 N2400 1.384 . S
C2398 H2389 0.929 . S
C2398 C2390 1.378 . S
C2398 C2393 1.350 . S
C2399 H2386 0.929 . S
C2399 C2391 1.433 . S
C2399 N2401 1.384 . S
N2400 C2396 1.427 . S
N2400 C2397 1.384 . S
N2401 C2393 1.427 . S
N2401 C2399 1.384 . S
H2402 C2408 0.930 . S
H2403 C2412 0.930 . S
H2404 C2417 0.929 . S
H2405 C2415 0.929 . S
H2406 C2410 0.929 . S
H2407 C2416 0.929 . S
C2408 H2402 0.930 . S
C2408 C2409 1.367 . S
C2408 C2416 1.378 . S
C2409 C2408 1.367 . S
C2409 C2417 1.433 . S
C2410 H2406 0.929 . S
C2410 C2412 1.378 . S
C2410 C2414 1.350 . S
C2411 C2414 1.463 . S
C2411 C2416 1.350 . S
C2411 N2419 1.427 . S
C2412 H2403 0.930 . S
C2412 C2410 1.378 . S
C2412 C2413 1.367 . S
C2413 C2412 1.367 . S
C2413 C2415 1.433 . S
C2414 C2410 1.350 . S
C2414 C2411 1.463 . S
C2414 N2418 1.427 . S
C2415 H2405 0.929 . S
C2415 C2413 1.433 . S
C2415 N2418 1.384 . S
C2416 H2407 0.929 . S
C2416 C2408 1.378 . S
C2416 C2411 1.350 . S
C2417 H2404 0.929 . S
C2417 C2409 1.433 . S
C2417 N2419 1.384 . S
N2418 C2414 1.427 . S
N2418 C2415 1.384 . S
N2419 C2411 1.427 . S
N2419 C2417 1.384 . S
H2420 C2426 0.930 . S
H2421 C2430 0.930 . S
H2422 C2435 0.929 . S
H2423 C2433 0.929 . S
H2424 C2428 0.929 . S
H2425 C2434 0.929 . S
C2426 H2420 0.930 . S
C2426 C2427 1.367 . S
C2426 C2434 1.378 . S
C2427 C2426 1.367 . S
C2427 C2435 1.433 . S
C2428 H2424 0.929 . S
C2428 C2430 1.378 . S
C2428 C2432 1.350 . S
C2429 C2432 1.463 . S
C2429 C2434 1.350 . S
C2429 N2437 1.427 . S
C2430 H2421 0.930 . S
C2430 C2428 1.378 . S
C2430 C2431 1.367 . S
C2431 C2430 1.367 . S
C2431 C2433 1.433 . S
C2432 C2428 1.350 . S
C2432 C2429 1.463 . S
C2432 N2436 1.427 . S
C2433 H2423 0.929 . S
C2433 C2431 1.433 . S
C2433 N2436 1.384 . S
C2434 H2425 0.929 . S
C2434 C2426 1.378 . S
C2434 C2429 1.350 . S
C2435 H2422 0.929 . S
C2435 C2427 1.433 . S
C2435 N2437 1.384 . S
N2436 C2432 1.427 . S
N2436 C2433 1.384 . S
N2437 C2429 1.427 . S
N2437 C2435 1.384 . S
H2438 C2444 0.930 . S
H2439 C2448 0.930 . S
H2440 C2453 0.929 . S
H2441 C2451 0.929 . S
H2442 C2446 0.929 . S
H2443 C2452 0.929 . S
C2444 H2438 0.930 . S
C2444 C2445 1.367 . S
C2444 C2452 1.378 . S
C2445 C2444 1.367 . S
C2445 C2453 1.433 . S
C2446 H2442 0.929 . S
C2446 C2448 1.378 . S
C2446 C2450 1.350 . S
C2447 C2450 1.463 . S
C2447 C2452 1.350 . S
C2447 N2455 1.427 . S
C2448 H2439 0.930 . S
C2448 C2446 1.378 . S
C2448 C2449 1.367 . S
C2449 C2448 1.367 . S
C2449 C2451 1.433 . S
C2450 C2446 1.350 . S
C2450 C2447 1.463 . S
C2450 N2454 1.427 . S
C2451 H2441 0.929 . S
C2451 C2449 1.433 . S
C2451 N2454 1.384 . S
C2452 H2443 0.929 . S
C2452 C2444 1.378 . S
C2452 C2447 1.350 . S
C2453 H2440 0.929 . S
C2453 C2445 1.433 . S
C2453 N2455 1.384 . S
N2454 C2450 1.427 . S
N2454 C2451 1.384 . S
N2455 C2447 1.427 . S
N2455 C2453 1.384 . S
H2456 C2462 0.930 . S
H2457 C2466 0.930 . S
H2458 C2471 0.929 . S
H2459 C2469 0.929 . S
H2460 C2464 0.929 . S
H2461 C2470 0.929 . S
C2462 H2456 0.930 . S
C2462 C2463 1.367 . S
C2462 C2470 1.378 . S
C2463 C2462 1.367 . S
C2463 C2471 1.433 . S
C2464 H2460 0.929 . S
C2464 C2466 1.378 . S
C2464 C2468 1.350 . S
C2465 C2468 1.463 1_554 S
C2465 C2470 1.350 . S
C2465 N2473 1.427 . S
C2466 H2457 0.930 . S
C2466 C2464 1.378 . S
C2466 C2467 1.367 . S
C2467 C2466 1.367 . S
C2467 C2469 1.433 . S
C2468 C2464 1.350 . S
C2468 C2465 1.463 1_556 S
C2468 N2472 1.427 . S
C2469 H2459 0.929 . S
C2469 C2467 1.433 . S
C2469 N2472 1.384 . S
C2470 H2461 0.929 . S
C2470 C2462 1.378 . S
C2470 C2465 1.350 . S
C2471 H2458 0.929 . S
C2471 C2463 1.433 . S
C2471 N2473 1.384 . S
N2472 C2468 1.427 . S
N2472 C2469 1.384 . S
N2473 C2465 1.427 . S
N2473 C2471 1.384 . S
H2474 C2480 0.930 . S
H2475 C2484 0.930 . S
H2476 C2489 0.929 . S
H2477 C2487 0.929 . S
H2478 C2482 0.929 . S
H2479 C2488 0.929 . S
C2480 H2474 0.930 . S
C2480 C2481 1.367 . S
C2480 C2488 1.378 . S
C2481 C2480 1.367 . S
C2481 C2489 1.433 . S
C2482 H2478 0.929 . S
C2482 C2484 1.378 . S
C2482 C2486 1.350 . S
C2483 C2486 1.463 . S
C2483 C2488 1.350 . S
C2483 N2491 1.427 . S
C2484 H2475 0.930 . S
C2484 C2482 1.378 . S
C2484 C2485 1.367 . S
C2485 C2484 1.367 . S
C2485 C2487 1.433 . S
C2486 C2482 1.350 . S
C2486 C2483 1.463 . S
C2486 N2490 1.427 . S
C2487 H2477 0.929 . S
C2487 C2485 1.433 . S
C2487 N2490 1.384 . S
C2488 H2479 0.929 . S
C2488 C2480 1.378 . S
C2488 C2483 1.350 . S
C2489 H2476 0.929 . S
C2489 C2481 1.433 . S
C2489 N2491 1.384 . S
N2490 C2486 1.427 . S
N2490 C2487 1.384 . S
N2491 C2483 1.427 . S
N2491 C2489 1.384 . S
H2492 C2498 0.930 . S
H2493 C2502 0.930 . S
H2494 C2507 0.929 . S
H2495 C2505 0.929 . S
H2496 C2500 0.929 . S
H2497 C2506 0.929 . S
C2498 H2492 0.930 . S
C2498 C2499 1.367 . S
C2498 C2506 1.378 . S
C2499 C2498 1.367 . S
C2499 C2507 1.433 . S
C2500 H2496 0.929 . S
C2500 C2502 1.378 . S
C2500 C2504 1.350 . S
C2501 C2504 1.463 . S
C2501 C2506 1.350 . S
C2501 N2509 1.427 . S
C2502 H2493 0.930 . S
C2502 C2500 1.378 . S
C2502 C2503 1.367 . S
C2503 C2502 1.367 . S
C2503 C2505 1.433 . S
C2504 C2500 1.350 . S
C2504 C2501 1.463 . S
C2504 N2508 1.427 . S
C2505 H2495 0.929 . S
C2505 C2503 1.433 . S
C2505 N2508 1.384 . S
C2506 H2497 0.929 . S
C2506 C2498 1.378 . S
C2506 C2501 1.350 . S
C2507 H2494 0.929 . S
C2507 C2499 1.433 . S
C2507 N2509 1.384 . S
N2508 C2504 1.427 . S
N2508 C2505 1.384 . S
N2509 C2501 1.427 . S
N2509 C2507 1.384 . S
H2510 C2516 0.930 . S
H2511 C2520 0.930 . S
H2512 C2525 0.929 . S
H2513 C2523 0.929 . S
H2514 C2518 0.929 . S
H2515 C2524 0.929 . S
C2516 H2510 0.930 . S
C2516 C2517 1.367 . S
C2516 C2524 1.378 . S
C2517 C2516 1.367 . S
C2517 C2525 1.433 . S
C2518 H2514 0.929 . S
C2518 C2520 1.378 . S
C2518 C2522 1.350 . S
C2519 C2522 1.463 . S
C2519 C2524 1.350 . S
C2519 N2527 1.427 . S
C2520 H2511 0.930 . S
C2520 C2518 1.378 . S
C2520 C2521 1.367 . S
C2521 C2520 1.367 . S
C2521 C2523 1.433 . S
C2522 C2518 1.350 . S
C2522 C2519 1.463 . S
C2522 N2526 1.427 . S
C2523 H2513 0.929 . S
C2523 C2521 1.433 . S
C2523 N2526 1.384 . S
C2524 H2515 0.929 . S
C2524 C2516 1.378 . S
C2524 C2519 1.350 . S
C2525 H2512 0.929 . S
C2525 C2517 1.433 . S
C2525 N2527 1.384 . S
N2526 C2522 1.427 . S
N2526 C2523 1.384 . S
N2527 C2519 1.427 . S
N2527 C2525 1.384 . S
C1095 C258 1.609 . S
C1099 C20 1.609 . S
C1113 C54 1.609 . S
C1117 C156 1.609 . S
C1131 C88 1.609 . S
C1135 C190 1.609 . S
C1149 C224 1.609 . S
C1153 C122 1.609 . S
C1167 C292 1.609 . S
C1171 C530 1.609 . S
C1185 C428 1.609 . S
C1189 C326 1.609 . S
C1203 C360 1.609 . S
C1207 C462 1.609 . S
C1221 C496 1.609 . S
C1225 C394 1.609 . S
C1239 C802 1.609 . S
C1243 C564 1.609 . S
C1257 C700 1.609 . S
C1261 C598 1.609 . S
C1275 C734 1.609 . S
C1279 C632 1.609 . S
C1293 C768 1.609 . S
C1297 C666 1.609 . S
C1311 C1074 1.609 . S
C1315 C836 1.609 . S
C1329 C870 1.609 . S
C1333 C972 1.609 . S
C1347 C1006 1.609 . S
C1351 C904 1.609 . S
C1365 C1040 1.609 . S
C1369 C938 1.609 . S
C1383 C33 1.646 . S
C1387 C927 1.355 . S
C1401 C281 1.342 . S
C1405 C67 1.644 . S
C1419 C859 1.360 . S
C1423 C101 1.648 . S
C1437 C135 1.643 . S
C1441 C349 1.340 . S
C1455 C995 1.365 . S
C1459 C169 1.649 . S
C1473 C203 1.643 . S
C1477 C485 1.341 . S
C1491 C1063 1.341 . S
C1495 C237 1.642 . S
C1509 C417 1.354 . S
C1513 C271 1.647 . S
C1527 C305 1.642 . S
C1531 C655 1.337 . S
C1545 C339 1.646 . S
C1549 C9 1.358 . S
C1563 C587 1.340 . S
C1567 C373 1.643 . S
C1581 C77 1.338 . S
C1585 C407 1.642 . S
C1599 C723 1.356 . S
C1603 C441 1.646 . S
C1617 C213 1.361 . S
C1621 C475 1.647 . S
C1635 C509 1.649 . S
C1639 C791 1.363 . S
C1653 C543 1.648 . S
C1657 C145 1.358 . S
C1671 C577 1.645 . S
C1675 C383 1.352 . S
C1689 C825 1.345 . S
C1693 C611 1.645 . S
C1707 C315 1.363 . S
C1711 C645 1.649 . S
C1725 C679 1.648 . S
C1729 C893 1.363 . S
C1743 C713 1.648 . S
C1747 C451 1.360 . S
C1761 C1029 1.341 . S
C1765 C747 1.642 . S
C1779 C519 1.338 . S
C1783 C781 1.642 . S
C1797 C815 1.649 . S
C1801 C961 1.366 . S
C1815 C111 1.355 . S
C1819 C849 1.646 . S
C1833 C553 1.358 . S
C1837 C883 1.646 . S
C1851 C43 1.357 . S
C1855 C917 1.648 . S
C1869 C621 1.338 . S
C1873 C951 1.643 . S
C1887 C985 1.649 . S
C1891 C179 1.363 . S
C1905 C1019 1.644 . S
C1909 C757 1.349 . S
C1923 C1053 1.643 . S
C1927 C247 1.344 . S
C1941 C689 1.359 . S
C1945 C1087 1.647 . S
C1959 C5 1.181 . S
C1963 C821 1.181 . S
C1977 C39 1.193 . S
C1981 C311 1.193 . S
C1995 C73 1.179 . S
C1999 C889 1.179 . S
C2013 C379 1.185 . S
C2017 C107 1.185 . S
C2031 C957 1.191 . S
C2035 C141 1.191 . S
C2049 C175 1.184 . S
C2053 C447 1.184 . S
C2067 C209 1.186 . S
C2071 C1025 1.186 . S
C2085 C243 1.177 . S
C2089 C515 1.177 . S
C2103 C549 1.177 . S
C2107 C277 1.177 . S
C2121 C345 1.191 . S
C2125 C617 1.191 . S
C2139 C685 1.184 . S
C2143 C413 1.184 . S
C2157 C481 1.174 . S
C2161 C753 1.174 . S
C2175 C583 1.175 . S
C2179 C855 1.175 . S
C2193 C923 1.193 . S
C2197 C651 1.193 . S
C2211 C719 1.179 . S
C2215 C991 1.179 . S
C2229 C1059 1.190 . S
C2233 C787 1.190 . S
C2247 C2 2.372 . S
C2251 C206 2.375 . S
C2265 C240 2.371 . S
C2269 C36 2.375 . S
C2283 C138 2.374 . S
C2287 C70 2.370 . S
C2301 C172 2.369 . S
C2305 C104 2.372 . S
C2319 C274 2.375 . S
C2323 C478 2.371 . S
C2337 C308 2.372 . S
C2341 C512 2.375 . S
C2355 C410 2.374 . S
C2359 C342 2.370 . S
C2373 C444 2.373 . S
C2377 C376 2.375 . S
C2391 C546 2.371 . S
C2395 C750 2.375 . S
C2409 C580 2.375 . S
C2413 C784 2.372 . S
C2427 C682 2.373 . S
C2431 C614 2.369 . S
C2445 C716 2.373 . S
C2449 C648 2.369 . S
C2463 C818 2.374 . S
C2467 C1022 2.370 . S
C2481 C852 2.375 . S
C2485 C1056 2.374 . S
C2499 C954 2.374 . S
C2503 C886 2.370 . S
C2517 C920 2.370 . S
C2521 C988 2.371 . S
