# Generated by pormake.
# Topology sml, (6)-cn, num edge types: 1
# Building blocks:
#     Node 0, Type 0, BuildingBlock: BETFAJ_clean_sbu_0, # of connection points: 6
#     Node 1, Type 0, BuildingBlock: BETFAJ_clean_sbu_0, # of connection points: 6
#     Node 2, Type 0, BuildingBlock: BETFAJ_clean_sbu_0, # of connection points: 6
#     Node 3, Type 0, BuildingBlock: BETFAJ_clean_sbu_0, # of connection points: 6
#     Node 4, Type 0, BuildingBlock: BETFAJ_clean_sbu_0, # of connection points: 6
#     Node 5, Type 0, BuildingBlock: BETFAJ_clean_sbu_0, # of connection points: 6
#     Edge 6, Type (0, 0), BuildingBlock: UVAHIK_clean_linker_0, # of connection points: 2
#     Edge 7, Type (0, 0), BuildingBlock: UVAHIK_clean_linker_0, # of connection points: 2
#     Edge 8, Type (0, 0), BuildingBlock: UVAHIK_clean_linker_0, # of connection points: 2
#     Edge 9, Type (0, 0), BuildingBlock: UVAHIK_clean_linker_0, # of connection points: 2
#     Edge 10, Type (0, 0), BuildingBlock: UVAHIK_clean_linker_0, # of connection points: 2
#     Edge 11, Type (0, 0), BuildingBlock: UVAHIK_clean_linker_0, # of connection points: 2
#     Edge 12, Type (0, 0), BuildingBlock: UVAHIK_clean_linker_0, # of connection points: 2
#     Edge 13, Type (0, 0), BuildingBlock: UVAHIK_clean_linker_0, # of connection points: 2
#     Edge 14, Type (0, 0), BuildingBlock: UVAHIK_clean_linker_0, # of connection points: 2
#     Edge 15, Type (0, 0), BuildingBlock: UVAHIK_clean_linker_0, # of connection points: 2
#     Edge 16, Type (0, 0), BuildingBlock: UVAHIK_clean_linker_0, # of connection points: 2
#     Edge 17, Type (0, 0), BuildingBlock: UVAHIK_clean_linker_0, # of connection points: 2
#     Edge 18, Type (0, 0), BuildingBlock: UVAHIK_clean_linker_0, # of connection points: 2
#     Edge 19, Type (0, 0), BuildingBlock: UVAHIK_clean_linker_0, # of connection points: 2
#     Edge 20, Type (0, 0), BuildingBlock: UVAHIK_clean_linker_0, # of connection points: 2
#     Edge 21, Type (0, 0), BuildingBlock: UVAHIK_clean_linker_0, # of connection points: 2
#     Edge 22, Type (0, 0), BuildingBlock: UVAHIK_clean_linker_0, # of connection points: 2
#     Edge 23, Type (0, 0), BuildingBlock: UVAHIK_clean_linker_0, # of connection points: 2
# Relax obj value: 0.154
# Max RMSD: 0.197
# Mean RMSD: 0.197
data_MOF--net-sml--node1-BETFAJ_clean_sbu_0--edge1-UVAHIK_clean_linker_0
_symmetry_space_group_name_H-M    P1
_symmetry_Int_Tables_number       1
_symmetry_cell_setting            triclinic
loop_
_symmetry_equiv_pos_as_xyz
'x, y, z'
_cell_length_a     43.392699
_cell_length_b     43.435033
_cell_length_c     29.686445
_cell_angle_alpha  90.034914
_cell_angle_beta   89.938907
_cell_angle_gamma 119.86606
loop_
_atom_site_label
_atom_site_type_symbol
_atom_site_fract_x
_atom_site_fract_y
_atom_site_fract_z
_atom_type_partial_charge
Sm0 Sm 0.22533 0.44756 0.11826 0.0
Sm1 Sm 0.23096 0.4072 0.20082 0.0
C2 C 0.23608 0.48178 0.04084 0.0
C3 C 0.23615 0.47435 0.99239 0.0
C4 C 0.24857 0.45201 0.97651 0.0
C5 C 0.24774 0.44481 0.93041 0.0
C6 C 0.23441 0.45976 0.89935 0.0
C7 C 0.22215 0.48222 0.91552 0.0
C8 C 0.22302 0.4894 0.96156 0.0
C9 C 0.16171 0.39759 0.15333 0.0
C10 C 0.23246 0.37536 0.10409 0.0
C11 C 0.22413 0.37417 0.27844 0.0
C12 C 0.22412 0.381 0.32707 0.0
C13 C 0.2109 0.4024 0.34384 0.0
C14 C 0.21163 0.40891 0.39013 0.0
C15 C 0.2256 0.39413 0.42053 0.0
C16 C 0.2387 0.37262 0.40344 0.0
C17 C 0.23798 0.36617 0.35719 0.0
C18 C 0.29382 0.45895 0.16468 0.0
C19 C 0.22061 0.47751 0.21504 0.0
O20 O 0.26179 0.48293 0.06521 0.0
O21 O 0.20519 0.46557 0.06105 0.0
O22 O 0.18852 0.39377 0.14873 0.0
O23 O 0.16709 0.42745 0.13643 0.0
O24 O 0.23696 0.40552 0.08715 0.0
O25 O 0.22502 0.36714 0.14702 0.0
O26 O 0.19709 0.37083 0.25495 0.0
O27 O 0.25451 0.39246 0.25753 0.0
O28 O 0.26644 0.46109 0.17156 0.0
O29 O 0.28921 0.42838 0.17761 0.0
O30 O 0.21645 0.44741 0.23183 0.0
O31 O 0.22951 0.48655 0.17255 0.0
H32 H 0.25876 0.44 0.99972 0.0
H33 H 0.25702 0.42709 0.9192 0.0
H34 H 0.2122 0.49458 0.89252 0.0
H35 H 0.21337 0.50674 0.97314 0.0
H36 H 0.2001 0.41413 0.32116 0.0
H37 H 0.2017 0.42593 0.40201 0.0
H38 H 0.24917 0.36039 0.42586 0.0
H39 H 0.24825 0.34953 0.3449 0.0
Sm40 Sm 0.78404 0.20401 0.43914 0.0
Sm41 Sm 0.76179 0.15984 0.3507 0.0
C42 C 0.78937 0.23968 0.51397 0.0
C43 C 0.7847 0.23142 0.56239 0.0
C44 C 0.76862 0.19615 0.57745 0.0
C45 C 0.76558 0.18863 0.6236 0.0
C46 C 0.77861 0.21627 0.65555 0.0
C47 C 0.79445 0.25156 0.64011 0.0
C48 C 0.79747 0.25903 0.59395 0.0
C49 C 0.8388 0.20726 0.38907 0.0
C50 C 0.77106 0.12459 0.4452 0.0
C51 C 0.75545 0.12402 0.27566 0.0
C52 C 0.75994 0.13205 0.22716 0.0
C53 C 0.77613 0.16725 0.21179 0.0
C54 C 0.77887 0.17451 0.16557 0.0
C55 C 0.7654 0.14669 0.13386 0.0
C56 C 0.74947 0.11147 0.14961 0.0
C57 C 0.74675 0.10426 0.19582 0.0
C58 C 0.70749 0.15759 0.40064 0.0
C59 C 0.7755 0.23973 0.34542 0.0
O60 O 0.76059 0.22446 0.48927 0.0
O61 O 0.81642 0.23942 0.49493 0.0
O62 O 0.81202 0.20761 0.37356 0.0
O63 O 0.8388 0.2078 0.43279 0.0
O64 O 0.77078 0.1505 0.46797 0.0
O65 O 0.77089 0.12383 0.40053 0.0
O66 O 0.78438 0.13878 0.30014 0.0
O67 O 0.72881 0.12497 0.2949 0.0
O68 O 0.73385 0.15635 0.41596 0.0
O69 O 0.70798 0.15832 0.35691 0.0
O70 O 0.77711 0.2146 0.32223 0.0
O71 O 0.77356 0.23898 0.38992 0.0
H72 H 0.75863 0.17446 0.55351 0.0
H73 H 0.75285 0.16116 0.63425 0.0
H74 H 0.80522 0.27351 0.66367 0.0
H75 H 0.81017 0.28642 0.58288 0.0
H76 H 0.78642 0.18908 0.23555 0.0
H77 H 0.79167 0.20193 0.15467 0.0
H78 H 0.73838 0.08939 0.12624 0.0
H79 H 0.73394 0.07693 0.20712 0.0
Sm80 Sm 0.55792 0.75667 0.75769 0.0
Sm81 Sm 0.59194 0.81059 0.84482 0.0
C82 C 0.52173 0.72994 0.68259 0.0
C83 C 0.53001 0.73407 0.63398 0.0
C84 C 0.55583 0.76691 0.61635 0.0
C85 C 0.56266 0.77108 0.57008 0.0
C86 C 0.54391 0.74243 0.54035 0.0
C87 C 0.51838 0.7094 0.55829 0.0
C88 C 0.51151 0.7053 0.60467 0.0
C89 C 0.62023 0.76122 0.78747 0.0
C90 C 0.62424 0.83986 0.7454 0.0
C91 C 0.61825 0.8415 0.92348 0.0
C92 C 0.61589 0.83109 0.97109 0.0
C93 C 0.59625 0.79534 0.98406 0.0
C94 C 0.59177 0.78606 0.02973 0.0
C95 C 0.60708 0.81241 0.06323 0.0
C96 C 0.62747 0.84814 0.04989 0.0
C97 C 0.63171 0.85737 1.00424 0.0
C98 C 0.53666 0.80967 0.79944 0.0
C99 C 0.53384 0.72384 0.85836 0.0
O100 O 0.52418 0.7579 0.7029 0.0
O101 O 0.53454 0.71343 0.7065 0.0
O102 O 0.6049 0.77735 0.80138 0.0
O103 O 0.60215 0.74092 0.75392 0.0
O104 O 0.59651 0.81154 0.72784 0.0
O105 O 0.6306 0.84464 0.78927 0.0
O106 O 0.63505 0.83117 0.89612 0.0
O107 O 0.58911 0.8383 0.90603 0.0
O108 O 0.53997 0.78314 0.80823 0.0
O109 O 0.56275 0.83862 0.81625 0.0
O110 O 0.55843 0.75458 0.87561 0.0
O111 O 0.52639 0.71852 0.81477 0.0
H112 H 0.57039 0.78957 0.63827 0.0
H113 H 0.5821 0.79702 0.55756 0.0
H114 H 0.5038 0.68663 0.53654 0.0
H115 H 0.49156 0.67971 0.61761 0.0
H116 H 0.58401 0.77467 0.95893 0.0
H117 H 0.57628 0.75828 0.03882 0.0
H118 H 0.63929 0.86911 0.07479 0.0
H119 H 0.64679 0.88513 0.99485 0.0
Sm120 Sm 0.74278 0.56718 0.15549 0.0
Sm121 Sm 0.79493 0.59404 0.07317 0.0
C122 C 0.71016 0.54539 0.23432 0.0
C123 C 0.71971 0.54565 0.28189 0.0
C124 C 0.75493 0.55728 0.29474 0.0
C125 C 0.76384 0.55937 0.34042 0.0
C126 C 0.73761 0.54967 0.37395 0.0
C127 C 0.70226 0.53745 0.36064 0.0
C128 C 0.69345 0.53554 0.31505 0.0
C129 C 0.73957 0.61639 0.10134 0.0
C130 C 0.82633 0.62987 0.16864 0.0
C131 C 0.82638 0.61914 0.99434 0.0
C132 C 0.81894 0.61169 0.94593 0.0
C133 C 0.78406 0.59499 0.92918 0.0
C134 C 0.77778 0.58889 0.88287 0.0
C135 C 0.80627 0.59936 0.8525 0.0
C136 C 0.84109 0.61568 0.86972 0.0
C137 C 0.84732 0.62179 0.91594 0.0
C138 C 0.79944 0.54494 0.12624 0.0
C139 C 0.71094 0.53013 0.05981 0.0
O140 O 0.71574 0.52496 0.20709 0.0
O141 O 0.71914 0.57635 0.21677 0.0
O142 O 0.76748 0.61676 0.11356 0.0
O143 O 0.71166 0.59011 0.11957 0.0
O144 O 0.7984 0.60206 0.18654 0.0
O145 O 0.82921 0.63597 0.12485 0.0
O146 O 0.80813 0.63115 0.01572 0.0
O147 O 0.83043 0.59591 0.01775 0.0
O148 O 0.77093 0.54432 0.11586 0.0
O149 O 0.82651 0.57009 0.10509 0.0
O150 O 0.74087 0.55492 0.04142 0.0
O151 O 0.70581 0.52667 0.10381 0.0
H152 H 0.77553 0.56504 0.26951 0.0
H153 H 0.79124 0.56853 0.34948 0.0
H154 H 0.6815 0.53023 0.38551 0.0
H155 H 0.66616 0.52667 0.3057 0.0
H156 H 0.76174 0.58694 0.95181 0.0
H157 H 0.75067 0.57658 0.87081 0.0
H158 H 0.86361 0.62354 0.84752 0.0
H159 H 0.8744 0.63454 0.92828 0.0
Sm160 Sm 0.20109 0.78469 0.4591 0.0
Sm161 Sm 0.15662 0.76159 0.5475 0.0
C162 C 0.23681 0.78983 0.38431 0.0
C163 C 0.22892 0.78549 0.33579 0.0
C164 C 0.19382 0.77044 0.32025 0.0
C165 C 0.18673 0.76761 0.27399 0.0
C166 C 0.21464 0.77991 0.24243 0.0
C167 C 0.24975 0.79469 0.25835 0.0
C168 C 0.25678 0.79745 0.30461 0.0
C169 C 0.20401 0.83897 0.50954 0.0
C170 C 0.1218 0.77259 0.45384 0.0
C171 C 0.12067 0.75477 0.62262 0.0
C172 C 0.1286 0.75867 0.67113 0.0
C173 C 0.16374 0.7739 0.68655 0.0
C174 C 0.1709 0.77623 0.73278 0.0
C175 C 0.14301 0.76327 0.76443 0.0
C176 C 0.10785 0.74831 0.74863 0.0
C177 C 0.10075 0.74601 0.70241 0.0
C178 C 0.15461 0.70787 0.49668 0.0
C179 C 0.23706 0.77636 0.55306 0.0
O180 O 0.22109 0.76097 0.40878 0.0
O181 O 0.23683 0.81697 0.40343 0.0
O182 O 0.20431 0.81214 0.52493 0.0
O183 O 0.20492 0.83931 0.46581 0.0
O184 O 0.14793 0.77314 0.43048 0.0
O185 O 0.12053 0.77092 0.4984 0.0
O186 O 0.13578 0.78394 0.59865 0.0
O187 O 0.12135 0.72821 0.60282 0.0
O188 O 0.15337 0.73433 0.48177 0.0
O189 O 0.1552 0.70796 0.54041 0.0
O190 O 0.21111 0.77648 0.57618 0.0
O191 O 0.23696 0.77551 0.50848 0.0
H192 H 0.17196 0.76123 0.34391 0.0
H193 H 0.15945 0.75648 0.26296 0.0
H194 H 0.27182 0.80397 0.23504 0.0
H195 H 0.28403 0.80913 0.31604 0.0
H196 H 0.1856 0.78364 0.66283 0.0
H197 H 0.19823 0.78752 0.74368 0.0
H198 H 0.08578 0.73853 0.772 0.0
H199 H 0.07346 0.73416 0.69107 0.0
Sm200 Sm 0.44715 0.22453 0.78193 0.0
Sm201 Sm 0.40662 0.23203 0.70019 0.0
C202 C 0.4807 0.23366 0.85963 0.0
C203 C 0.47322 0.234 0.90805 0.0
C204 C 0.45016 0.24568 0.92354 0.0
C205 C 0.44336 0.24562 0.96968 0.0
C206 C 0.45947 0.23386 1.00125 0.0
C207 C 0.48241 0.22206 0.98538 0.0
C208 C 0.48919 0.22215 0.9393 0.0
C209 C 0.39813 0.16197 0.74378 0.0
C210 C 0.37443 0.23075 0.79778 0.0
C211 C 0.37413 0.22685 0.62254 0.0
C212 C 0.38048 0.22585 0.57388 0.0
C213 C 0.40147 0.21202 0.55749 0.0
C214 C 0.40765 0.21196 0.51117 0.0
C215 C 0.39281 0.2256 0.48035 0.0
C216 C 0.37171 0.23931 0.49708 0.0
C217 C 0.36568 0.23947 0.54336 0.0
C218 C 0.45712 0.29382 0.73965 0.0
C219 C 0.47773 0.22289 0.68449 0.0
O220 O 0.48308 0.25991 0.83532 0.0
O221 O 0.46357 0.20293 0.83924 0.0
O222 O 0.39378 0.18828 0.75009 0.0
O223 O 0.42805 0.16719 0.76047 0.0
O224 O 0.4043 0.2342 0.81427 0.0
O225 O 0.3665 0.22544 0.75452 0.0
O226 O 0.36887 0.19931 0.64648 0.0
O227 O 0.39419 0.25706 0.64298 0.0
O228 O 0.45996 0.26707 0.73098 0.0
O229 O 0.42651 0.28914 0.7266 0.0
O230 O 0.44754 0.21891 0.66812 0.0
O231 O 0.48658 0.23056 0.72725 0.0
H232 H 0.4375 0.25495 0.90001 0.0
H233 H 0.42585 0.25523 0.98064 0.0
H234 H 0.49482 0.21226 0.00854 0.0
H235 H 0.50689 0.21284 0.928 0.0
H236 H 0.41301 0.20123 0.58049 0.0
H237 H 0.4237 0.20085 0.49947 0.0
H238 H 0.36029 0.25048 0.47444 0.0
H239 H 0.34954 0.25042 0.55536 0.0
C240 C 0.35039 0.22639 0.87511 0.0
C241 C 0.34994 0.23396 0.82924 0.0
C242 C 0.33025 0.23306 0.90606 0.0
C243 C 0.26019 0.25884 0.91641 0.0
H244 H 0.31041 0.30201 0.02732 0.0
C245 C 0.23631 0.35429 0.02706 0.0
C246 C 0.23677 0.35069 0.07406 0.0
C247 C 0.24351 0.33307 0.9986 0.0
C248 C 0.29576 0.28946 0.99687 0.0
H249 H 0.32717 0.25316 0.77935 0.0
H250 H 0.29305 0.26628 0.83357 0.0
H251 H 0.33538 0.27761 0.97463 0.0
H252 H 0.24371 0.32107 0.1281 0.0
H253 H 0.25683 0.28431 0.0782 0.0
H254 H 0.22157 0.27282 0.93814 0.0
C255 C 0.30816 0.25428 0.84567 0.0
C256 C 0.30998 0.27531 0.96662 0.0
C257 C 0.32785 0.24696 0.81455 0.0
C258 C 0.24323 0.32452 0.09202 0.0
C259 C 0.25084 0.30356 0.06354 0.0
C260 C 0.24619 0.27348 0.94651 0.0
C261 C 0.30977 0.24818 0.89198 0.0
C262 C 0.29264 0.2602 0.92571 0.0
C263 C 0.25165 0.30809 0.01663 0.0
C264 C 0.26411 0.28928 0.98674 0.0
H265 H 0.36679 0.2158 0.88725 0.0
H266 H 0.33141 0.2271 0.94122 0.0
H267 H 0.24581 0.24689 0.88562 0.0
H268 H 0.23103 0.37396 0.01221 0.0
H269 H 0.24424 0.33728 0.96256 0.0
C270 C 0.10133 0.37992 0.18131 0.0
C271 C 0.12787 0.37113 0.17363 0.0
C272 C 0.06906 0.35529 0.20049 0.0
C273 C 0.02631 0.2739 0.26904 0.0
H274 H 0.94168 0.27535 0.23078 0.0
C275 C 0.90287 0.22545 0.38144 0.0
C276 C 0.86973 0.21429 0.36137 0.0
C277 C 0.93313 0.23667 0.35474 0.0
C278 C 0.96471 0.2738 0.24143 0.0
H279 H 0.14187 0.32988 0.17988 0.0
H280 H 0.08481 0.28622 0.21282 0.0
H281 H -0.00342 0.30971 0.18975 0.0
H282 H 0.84153 0.20361 0.29797 0.0
H283 H 0.89378 0.22115 0.25133 0.0
H284 H -0.00588 0.23741 0.32037 0.0
C285 C 0.08915 0.31235 0.2045 0.0
C286 C -0.00353 0.2941 0.21826 0.0
C287 C 0.1217 0.33723 0.18553 0.0
C288 C 0.86685 0.21226 0.31428 0.0
C289 C 0.89691 0.22269 0.28759 0.0
C290 C -0.00568 0.25312 0.29195 0.0
C291 C 0.06242 0.32112 0.212 0.0
C292 C 0.02791 0.29541 0.23274 0.0
C293 C 0.93066 0.23632 0.30743 0.0
C294 C 0.96335 0.25368 0.27927 0.0
H295 H 0.10557 0.40602 0.17288 0.0
H296 H 0.04948 0.3633 0.20689 0.0
H297 H 0.05005 0.27428 0.28105 0.0
H298 H 0.90575 0.22723 0.41775 0.0
H299 H 0.95862 0.24735 0.37135 0.0
C300 C 0.77416 0.09786 0.51794 0.0
C301 C 0.76861 0.09449 0.47114 0.0
C302 C 0.76736 0.06854 0.54406 0.0
C303 C 0.70857 0.97319 0.54368 0.0
H304 H 0.75814 0.97775 0.65438 0.0
C305 C 0.671 0.90235 0.72714 0.0
C306 C 0.64898 0.86701 0.71358 0.0
C307 C 0.69204 0.92822 0.69548 0.0
C308 C 0.74404 0.97612 0.62359 0.0
H309 H 0.7539 0.05827 0.41456 0.0
H310 H 0.74194 0.00671 0.46048 0.0
H311 H 0.78535 0.02667 0.60042 0.0
H312 H 0.63378 0.83049 0.65716 0.0
H313 H 0.67052 0.87538 0.60233 0.0
H314 H 0.66669 0.92347 0.56735 0.0
C315 C 0.75123 0.03211 0.47687 0.0
C316 C 0.75963 0.00402 0.59267 0.0
C317 C 0.7582 0.06162 0.45058 0.0
C318 C 0.64977 0.85769 0.66843 0.0
C319 C 0.67088 0.88338 0.63699 0.0
C320 C 0.69302 0.94537 0.57451 0.0
C321 C 0.75481 0.03512 0.52402 0.0
C322 C 0.74162 0.00322 0.55293 0.0
C323 C 0.69157 0.91907 0.64988 0.0
C324 C 0.71019 0.94689 0.61527 0.0
H325 H 0.78255 0.12293 0.53482 0.0
H326 H 0.77003 0.07172 0.58029 0.0
H327 H 0.69371 0.97202 0.51381 0.0
H328 H 0.67098 0.91024 0.76175 0.0
H329 H 0.70748 0.95558 0.70638 0.0
C330 C 0.65688 0.76974 0.85545 0.0
C331 C 0.64964 0.76004 0.81008 0.0
C332 C 0.68059 0.76308 0.87926 0.0
C333 C 0.70673 0.69617 0.87924 0.0
H334 H 0.75862 0.74706 0.98598 0.0
C335 C 0.70646 0.62569 0.03987 0.0
C336 C 0.73816 0.63764 0.0639 0.0
C337 C 0.70533 0.64468 1.00277 0.0
C338 C 0.74487 0.73282 0.95581 0.0
H339 H 0.66295 0.738 0.75279 0.0
H340 H 0.70476 0.72638 0.79437 0.0
H341 H 0.743 0.77765 0.92908 0.0
H342 H 0.79339 0.67881 0.06901 0.0
H343 H 0.79119 0.71268 1.00412 0.0
H344 H 0.70721 0.65096 0.90688 0.0
C345 C 0.69194 0.73894 0.81169 0.0
C346 C 0.73574 0.75021 0.92344 0.0
C347 C 0.66808 0.74556 0.78794 0.0
C348 C 0.76865 0.66915 0.05077 0.0
C349 C 0.76743 0.68843 0.01381 0.0
C350 C 0.71578 0.67883 0.91156 0.0
C351 C 0.69739 0.74641 0.85803 0.0
C352 C 0.71518 0.73156 0.88586 0.0
C353 C 0.73579 0.67613 0.98931 0.0
C354 C 0.73345 0.69654 0.95106 0.0
H355 H 0.64227 0.77999 0.87343 0.0
H356 H 0.68358 0.7685 0.91509 0.0
H357 H 0.6907 0.68092 0.85088 0.0
H358 H 0.68265 0.60139 0.0493 0.0
H359 H 0.68041 0.63501 0.98497 0.0
C360 C 0.05738 0.75339 0.44585 0.0
C361 C 0.09206 0.77124 0.42852 0.0
C362 C 0.02867 0.74723 0.41848 0.0
C363 C 0.00688 0.73671 0.29816 0.0
H364 H 0.91707 0.7257 0.33916 0.0
C365 C 0.88677 0.68249 0.18048 0.0
C366 C 0.85555 0.65419 0.19853 0.0
C367 C 0.91527 0.70399 0.20853 0.0
C368 C 0.94206 0.72877 0.32731 0.0
H369 H 0.1245 0.79969 0.37088 0.0
H370 H 0.07469 0.79011 0.32375 0.0
H371 H 0.96857 0.75211 0.38941 0.0
H372 H 0.8291 0.62737 0.26044 0.0
H373 H 0.87906 0.66456 0.30915 0.0
H374 H 0.98039 0.71268 0.23665 0.0
C375 C 0.06936 0.77964 0.35773 0.0
C376 C 0.97148 0.7438 0.35603 0.0
C377 C 0.09789 0.78525 0.38476 0.0
C378 C 0.85288 0.64876 0.24538 0.0
C379 C 0.88137 0.6703 0.27341 0.0
C380 C 0.97764 0.72195 0.26949 0.0
C381 C 0.03433 0.75928 0.3736 0.0
C382 C 0.00405 0.74734 0.342 0.0
C383 C 0.91309 0.69766 0.25514 0.0
C384 C 0.94479 0.71722 0.28402 0.0
H385 H 0.05224 0.74233 0.47954 0.0
H386 H 0.00202 0.73125 0.43168 0.0
H387 H 0.03127 0.73825 0.28652 0.0
H388 H 0.88957 0.68761 0.14458 0.0
H389 H 0.93932 0.72516 0.19364 0.0
C390 C 0.38087 0.10229 0.71372 0.0
C391 C 0.37177 0.12842 0.72286 0.0
C392 C 0.35614 0.0701 0.69452 0.0
C393 C 0.29479 -0.00268 0.67812 0.0
H394 H 0.23555 0.99441 0.57873 0.0
C395 C 0.21007 0.86727 0.58441 0.0
C396 C 0.21145 0.86996 0.53729 0.0
C397 C 0.22121 0.89748 0.61097 0.0
C398 C 0.25195 -0.00523 0.60642 0.0
H399 H 0.32997 0.14183 0.71898 0.0
H400 H 0.28618 0.08494 0.68595 0.0
H401 H 0.2733 0.05049 0.61719 0.0
H402 H 0.22377 0.90575 0.48077 0.0
H403 H 0.2449 0.9588 0.52688 0.0
H404 H 0.27568 0.94249 0.66571 0.0
C405 C 0.3126 0.08954 0.69318 0.0
C406 C 0.27327 0.02685 0.62882 0.0
C407 C 0.33755 0.12199 0.71219 0.0
C408 C 0.22252 0.90302 0.51709 0.0
C409 C 0.23432 0.93339 0.54363 0.0
C410 C 0.2739 0.96547 0.65549 0.0
C411 C 0.32161 0.06316 0.68442 0.0
C412 C 0.29565 0.02862 0.66411 0.0
C413 C 0.23475 0.93113 0.5909 0.0
C414 C 0.25282 0.96392 0.61866 0.0
H415 H 0.40722 0.10676 0.72118 0.0
H416 H 0.3643 0.05079 0.68711 0.0
H417 H 0.31111 -0.00241 0.70587 0.0
H418 H 0.20145 0.842 0.60081 0.0
H419 H 0.22031 0.89458 0.64725 0.0
C420 C 0.20373 0.44605 0.82414 0.0
C421 C 0.23321 0.45201 0.85028 0.0
C422 C 0.20279 0.43943 0.77792 0.0
C423 C 0.24334 0.41056 0.68953 0.0
H424 H 0.20598 0.45414 0.60871 0.0
C425 C 0.25609 0.40705 0.4959 0.0
C426 C 0.22655 0.40105 0.46983 0.0
C427 C 0.25686 0.41315 0.54226 0.0
C428 C 0.21613 0.44143 0.63083 0.0
H429 H 0.28494 0.4558 0.84806 0.0
H430 H 0.28336 0.44432 0.7674 0.0
H431 H 0.20739 0.46472 0.68951 0.0
H432 H 0.17446 0.39645 0.47244 0.0
H433 H 0.17584 0.40717 0.55326 0.0
H434 H 0.25215 0.38733 0.63079 0.0
C435 C 0.26071 0.44427 0.7828 0.0
C436 C 0.21693 0.44749 0.67721 0.0
C437 C 0.26162 0.45087 0.82907 0.0
C438 C 0.19786 0.40149 0.49132 0.0
C439 C 0.19865 0.40762 0.5377 0.0
C440 C 0.24256 0.40451 0.64314 0.0
C441 C 0.23133 0.43861 0.75659 0.0
C442 C 0.23052 0.43212 0.70718 0.0
C443 C 0.22813 0.41347 0.56377 0.0
C444 C 0.22894 0.41987 0.61319 0.0
H445 H 0.1811 0.4461 0.83951 0.0
H446 H 0.17947 0.43454 0.75897 0.0
H447 H 0.25349 0.39785 0.71166 0.0
H448 H 0.27891 0.40751 0.48037 0.0
H449 H 0.28024 0.41815 0.56115 0.0
C450 C 0.76093 0.18087 0.06811 0.0
C451 C 0.7674 0.15426 0.08463 0.0
C452 C 0.76212 0.18753 0.02185 0.0
C453 C 0.75648 0.14635 0.91057 0.0
H454 H 0.79901 0.24319 0.86713 0.0
C455 C 0.78276 0.18183 0.72122 0.0
C456 C 0.77626 0.20843 0.70473 0.0
C457 C 0.78133 0.17499 0.76746 0.0
C458 C 0.78666 0.21596 0.8787 0.0
H459 H 0.78095 0.1143 0.0652 0.0
H460 H 0.78306 0.12593 0.9846 0.0
H461 H 0.7976 0.23196 0.94776 0.0
H462 H 0.76233 0.24811 0.72414 0.0
H463 H 0.75986 0.23622 0.8047 0.0
H464 H 0.74558 0.13035 0.84148 0.0
C465 C 0.77647 0.14127 0.00739 0.0
C466 C 0.78585 0.20952 0.92498 0.0
C467 C 0.77528 0.13462 0.05366 0.0
C468 C 0.76805 0.22784 0.73567 0.0
C469 C 0.76664 0.22102 0.78191 0.0
C470 C 0.75729 0.15279 0.86428 0.0
C471 C 0.76982 0.16775 0.99086 0.0
C472 C 0.77076 0.17463 0.94153 0.0
C473 C 0.77338 0.19459 0.79842 0.0
C474 C 0.77239 0.18768 0.84774 0.0
H475 H 0.75422 0.19613 0.09089 0.0
H476 H 0.75633 0.20775 0.01031 0.0
H477 H 0.74413 0.11912 0.92213 0.0
H478 H 0.78971 0.16674 0.69847 0.0
H479 H 0.78717 0.1548 0.77901 0.0
C480 C 0.58512 0.76891 0.47394 0.0
C481 C 0.55054 0.74729 0.49084 0.0
C482 C 0.59117 0.7745 0.42759 0.0
C483 C 0.545 0.76948 0.32035 0.0
H484 H 0.62948 0.77613 0.26622 0.0
C485 C 0.56693 0.77779 0.12751 0.0
C486 C 0.60094 0.80286 0.11188 0.0
C487 C 0.56076 0.76989 0.17345 0.0
C488 C 0.60591 0.77463 0.2809 0.0
H489 H 0.49522 0.71456 0.47177 0.0
H490 H 0.50589 0.72344 0.39103 0.0
H491 H 0.61862 0.76405 0.34665 0.0
H492 H 0.65532 0.83867 0.13228 0.0
H493 H 0.64452 0.82499 0.2125 0.0
H494 H 0.53225 0.7799 0.25449 0.0
C495 C 0.52832 0.73656 0.41368 0.0
C496 C 0.59969 0.76776 0.32706 0.0
C497 C 0.52225 0.73105 0.46005 0.0
C498 C 0.62875 0.81945 0.14325 0.0
C499 C 0.62263 0.81136 0.18917 0.0
C500 C 0.55114 0.77617 0.27417 0.0
C501 C 0.56284 0.75854 0.39682 0.0
C502 C 0.5692 0.7652 0.34745 0.0
C503 C 0.58849 0.78669 0.20487 0.0
C504 C 0.58172 0.77894 0.2539 0.0
H505 H 0.60763 0.78152 0.49655 0.0
H506 H 0.61806 0.79189 0.41598 0.0
H507 H 0.52158 0.76836 0.33494 0.0
H508 H 0.54484 0.76478 0.10432 0.0
H509 H 0.53423 0.7505 0.18438 0.0
C510 C 0.82275 0.61967 0.77224 0.0
C511 C 0.79987 0.59368 0.80304 0.0
C512 C 0.817 0.61442 0.72584 0.0
C513 C 0.77056 0.54419 0.63979 0.0
H514 H 0.78507 0.62322 0.56445 0.0
C515 C 0.72474 0.52715 0.45374 0.0
C516 C 0.74703 0.55325 0.42266 0.0
C517 C 0.73247 0.53148 0.49982 0.0
C518 C 0.78134 0.60097 0.58489 0.0
H519 H 0.75302 0.54155 0.80883 0.0
H520 H 0.74251 0.53271 0.72792 0.0
H521 H 0.79544 0.63196 0.64526 0.0
H522 H 0.79523 0.6042 0.4158 0.0
H523 H 0.80896 0.61152 0.49613 0.0
H524 H 0.75613 0.51315 0.57931 0.0
C525 C 0.76522 0.55703 0.73969 0.0
C526 C 0.78728 0.60597 0.6313 0.0
C527 C 0.771 0.56229 0.78616 0.0
C528 C 0.77763 0.58345 0.43874 0.0
C529 C 0.78529 0.58784 0.48486 0.0
C530 C 0.76455 0.53917 0.59335 0.0
C531 C 0.78815 0.58304 0.70891 0.0
C532 C 0.78193 0.57765 0.6594 0.0
C533 C 0.76262 0.56207 0.51603 0.0
C534 C 0.76981 0.56749 0.56532 0.0
H535 H 0.84501 0.64436 0.78397 0.0
H536 H 0.83543 0.63487 0.7032 0.0
H537 H 0.76673 0.52191 0.66024 0.0
H538 H 0.70117 0.50338 0.44245 0.0
H539 H 0.71429 0.51122 0.52287 0.0
C540 C 0.12849 0.7364 0.84206 0.0
C541 C 0.15046 0.76495 0.81366 0.0
C542 C 0.13544 0.73789 0.88825 0.0
C543 C 0.20694 0.78409 0.97249 0.0
H544 H 0.12871 0.74803 0.0575 0.0
C545 C 0.22939 0.80612 0.1645 0.0
C546 C 0.20728 0.77785 0.19316 0.0
C547 C 0.22247 0.80435 0.11828 0.0
C548 C 0.15084 0.75783 0.03423 0.0
H549 H 0.19679 0.81768 0.81195 0.0
H550 H 0.20891 0.82026 0.89249 0.0
H551 H 0.1167 0.74545 0.97697 0.0
H552 H 0.16077 0.72527 0.19534 0.0
H553 H 0.14872 0.72214 0.11471 0.0
H554 H 0.24109 0.79646 0.02973 0.0
C555 C 0.18657 0.79648 0.87889 0.0
C556 C 0.14395 0.75637 0.988 0.0
C557 C 0.17961 0.795 0.83267 0.0
C558 C 0.17805 0.74774 0.17438 0.0
C559 C 0.17114 0.74595 0.12812 0.0
C560 C 0.21383 0.78554 0.01871 0.0
C561 C 0.16456 0.76794 0.90729 0.0
C562 C 0.17191 0.7695 0.95653 0.0
C563 C 0.19326 0.77425 0.09946 0.0
C564 C 0.18588 0.77246 0.0502 0.0
H565 H 0.10618 0.71259 0.82848 0.0
H566 H 0.11827 0.71519 0.90895 0.0
H567 H 0.22907 0.79392 0.94921 0.0
H568 H 0.25177 0.82997 0.1779 0.0
H569 H 0.23971 0.82689 0.09739 0.0
C570 C 0.43331 0.23483 0.41461 0.0
C571 C 0.3994 0.22577 0.43101 0.0
C572 C 0.43964 0.23575 0.36824 0.0
C573 C 0.39403 0.2026 0.25873 0.0
H574 H 0.48113 0.27964 0.20934 0.0
C575 C 0.41817 0.22381 0.06647 0.0
C576 C 0.45244 0.23382 0.05049 0.0
C577 C 0.41155 0.22316 0.11275 0.0
C578 C 0.45685 0.2577 0.22258 0.0
H579 H 0.34539 0.20986 0.41126 0.0
H580 H 0.35652 0.2119 0.33049 0.0
H581 H 0.47 0.27734 0.2901 0.0
H582 H 0.50676 0.25173 0.07099 0.0
H583 H 0.49507 0.24981 0.15145 0.0
H584 H 0.38094 0.18284 0.19128 0.0
C585 C 0.37821 0.21812 0.35349 0.0
C586 C 0.45047 0.25639 0.26896 0.0
C587 C 0.37192 0.21733 0.39984 0.0
C588 C 0.47994 0.24344 0.08201 0.0
C589 C 0.47333 0.24277 0.12824 0.0
C590 C 0.40045 0.20386 0.21236 0.0
C591 C 0.41219 0.22748 0.33707 0.0
C592 C 0.41899 0.22881 0.28765 0.0
C593 C 0.43903 0.23253 0.14427 0.0
C594 C 0.43196 0.23141 0.19364 0.0
H595 H 0.45517 0.24179 0.43761 0.0
H596 H 0.46603 0.2427 0.35681 0.0
H597 H 0.36973 0.18071 0.27203 0.0
H598 H 0.39627 0.21592 0.04326 0.0
H599 H 0.3849 0.21554 0.12378 0.0
C600 C 0.21178 0.49643 0.29144 0.0
C601 C 0.21479 0.50155 0.24457 0.0
C602 C 0.2052 0.51855 0.31912 0.0
C603 C 0.20933 0.60586 0.32087 0.0
H604 H 0.14419 0.56484 0.42141 0.0
C605 C 0.15736 0.68433 0.42105 0.0
C606 C 0.15858 0.68233 0.46815 0.0
C607 C 0.16346 0.66166 0.39388 0.0
C608 C 0.16264 0.57668 0.39365 0.0
H609 H 0.21324 0.53394 0.18996 0.0
H610 H 0.20113 0.57204 0.23803 0.0
H611 H 0.15705 0.52681 0.37378 0.0
H612 H 0.16589 0.65448 0.52396 0.0
H613 H 0.17621 0.6145 0.47642 0.0
H614 H 0.21452 0.65565 0.34051 0.0
C615 C 0.20452 0.55138 0.2536 0.0
C616 C 0.17012 0.55495 0.36644 0.0
C617 C 0.21133 0.52942 0.22598 0.0
C618 C 0.16484 0.65655 0.48769 0.0
C619 C 0.17065 0.63365 0.46052 0.0
C620 C 0.20166 0.62751 0.34788 0.0
C621 C 0.20128 0.54617 0.30049 0.0
C622 C 0.19357 0.56929 0.32972 0.0
C623 C 0.17045 0.63628 0.41335 0.0
C624 C 0.17824 0.61314 0.38453 0.0
H625 H 0.21466 0.47544 0.30688 0.0
H626 H 0.20347 0.51416 0.35516 0.0
H627 H 0.22799 0.6179 0.29338 0.0
H628 H 0.15215 0.70373 0.40516 0.0
H629 H 0.16266 0.66394 0.35762 0.0
C630 C 0.68349 0.16039 0.47588 0.0
C631 C 0.68177 0.1616 0.42877 0.0
C632 C 0.66055 0.16632 0.50274 0.0
C633 C 0.60337 0.20702 0.49947 0.0
H634 H 0.5652 0.15402 0.61015 0.0
C635 C 0.49646 0.21517 0.60739 0.0
C636 C 0.50182 0.21768 0.65424 0.0
C637 C 0.51827 0.20857 0.5791 0.0
C638 C 0.57592 0.16923 0.57951 0.0
H639 H 0.65414 0.16876 0.37259 0.0
H640 H 0.6133 0.17819 0.41946 0.0
H641 H 0.60246 0.14061 0.56186 0.0
H642 H 0.53463 0.21574 0.70808 0.0
H643 H 0.57264 0.20424 0.65865 0.0
H644 H 0.57646 0.2354 0.51712 0.0
C645 C 0.63294 0.17356 0.43574 0.0
C646 C 0.59729 0.16159 0.55187 0.0
C647 C 0.65609 0.16786 0.40889 0.0
C648 C 0.52976 0.21396 0.67214 0.0
C649 C 0.55138 0.20711 0.64389 0.0
C650 C 0.5818 0.2145 0.52701 0.0
C651 C 0.63513 0.1732 0.483 0.0
C652 C 0.61146 0.18054 0.51166 0.0
C653 C 0.5457 0.2041 0.59714 0.0
C654 C 0.56807 0.19584 0.56744 0.0
H655 H 0.70298 0.15543 0.49205 0.0
H656 H 0.66328 0.16627 0.539 0.0
H657 H 0.61431 0.22251 0.46909 0.0
H658 H 0.47533 0.21814 0.5925 0.0
H659 H 0.51318 0.2062 0.54319 0.0
C660 C 0.33169 0.52057 0.13822 0.0
C661 C 0.32364 0.4851 0.13746 0.0
C662 C 0.35692 0.54522 0.10883 0.0
C663 C 0.42876 0.56023 0.0278 0.0
H664 H 0.40786 0.63163 0.98246 0.0
C665 C 0.49627 0.65904 0.87613 0.0
C666 C 0.51259 0.69468 0.89005 0.0
C667 C 0.47513 0.63173 0.90615 0.0
C668 C 0.41393 0.61179 0.99491 0.0
H669 H 0.33571 0.44728 0.1063 0.0
H670 H 0.3791 0.49017 0.05325 0.0
H671 H 0.36691 0.58684 0.03483 0.0
H672 H 0.51963 0.72969 0.94612 0.0
H673 H 0.48191 0.68199 0.99792 0.0
H674 H 0.47538 0.58509 0.98592 0.0
C675 C 0.36671 0.49929 0.07741 0.0
C676 C 0.39073 0.58631 0.02526 0.0
C677 C 0.34189 0.4747 0.10769 0.0
C678 C 0.50769 0.70249 0.93453 0.0
C679 C 0.48606 0.6753 0.96413 0.0
C680 C 0.45168 0.58545 0.9966 0.0
C681 C 0.374 0.53474 0.07705 0.0
C682 C 0.39815 0.5606 0.04288 0.0
C683 C 0.46951 0.63981 0.95007 0.0
C684 C 0.44461 0.61167 0.9806 0.0
H685 H 0.31803 0.52917 0.16118 0.0
H686 H 0.3626 0.57245 0.11067 0.0
H687 H 0.43548 0.54104 0.04082 0.0
H688 H 0.49975 0.6523 0.84208 0.0
H689 H 0.46234 0.60442 0.89473 0.0
C690 C 0.7924 0.27915 0.27775 0.0
C691 C 0.77817 0.27069 0.32145 0.0
C692 C 0.79666 0.3096 0.25615 0.0
C693 C 0.80048 0.39548 0.2804 0.0
H694 H 0.78552 0.39551 0.15163 0.0
C695 C 0.78008 0.50079 0.18827 0.0
C696 C 0.80054 0.51572 0.14949 0.0
C697 C 0.77999 0.47212 0.20954 0.0
C698 C 0.7901 0.39589 0.18754 0.0
H699 H 0.75605 0.28663 0.37621 0.0
H700 H 0.76211 0.33883 0.33801 0.0
H701 H 0.7787 0.34202 0.18779 0.0
H702 H 0.83748 0.51324 0.10254 0.0
H703 H 0.83664 0.46216 0.13917 0.0
H704 H 0.81046 0.44901 0.2801 0.0
C705 C 0.77123 0.32282 0.32089 0.0
C706 C 0.78632 0.36534 0.2083 0.0
C707 C 0.76748 0.29271 0.34271 0.0
C708 C 0.82144 0.502 0.13249 0.0
C709 C 0.82082 0.47281 0.1532 0.0
C710 C 0.80369 0.42578 0.25974 0.0
C711 C 0.7863 0.33193 0.27756 0.0
C712 C 0.79124 0.36467 0.25507 0.0
C713 C 0.79999 0.4576 0.19182 0.0
C714 C 0.79836 0.42616 0.21322 0.0
H715 H 0.80109 0.26275 0.26064 0.0
H716 H 0.80877 0.31597 0.22305 0.0
H717 H 0.80534 0.3963 0.31626 0.0
H718 H 0.76454 0.51154 0.20243 0.0
H719 H 0.76372 0.46082 0.2393 0.0
C720 C 0.2962 0.77939 0.55423 0.0
C721 C 0.26813 0.77961 0.57761 0.0
C722 C 0.32604 0.78358 0.57738 0.0
C723 C 0.37497 0.77129 0.6386 0.0
H724 H 0.41584 0.8415 0.73387 0.0
C725 C 0.47745 0.77442 0.7634 0.0
C726 C 0.50677 0.80766 0.77377 0.0
C727 C 0.44917 0.77207 0.73848 0.0
C728 C 0.40489 0.82201 0.70709 0.0
H729 H 0.24926 0.7841 0.64375 0.0
H730 H 0.30121 0.79112 0.68404 0.0
H731 H 0.36486 0.83544 0.69159 0.0
H732 H 0.52942 0.86456 0.76722 0.0
H733 H 0.4797 0.86052 0.72349 0.0
H734 H 0.4151 0.758 0.65388 0.0
C735 C 0.3003 0.78815 0.64776 0.0
C736 C 0.3755 0.81827 0.68325 0.0
C737 C 0.27043 0.78386 0.62466 0.0
C738 C 0.5071 0.83861 0.75952 0.0
C739 C 0.47866 0.83629 0.73468 0.0
C740 C 0.40425 0.77494 0.66254 0.0
C741 C 0.32845 0.78817 0.62434 0.0
C742 C 0.36014 0.79274 0.64893 0.0
C743 C 0.44952 0.80296 0.72372 0.0
C744 C 0.41936 0.80016 0.69722 0.0
H745 H 0.2953 0.77621 0.51798 0.0
H746 H 0.34747 0.78378 0.55841 0.0
H747 H 0.36354 0.75122 0.61256 0.0
H748 H 0.47637 0.75014 0.77451 0.0
H749 H 0.42681 0.74605 0.73123 0.0
C750 C 0.64667 0.48837 0.04292 0.0
C751 C 0.68246 0.50552 0.02937 0.0
C752 C 0.61989 0.46578 0.01318 0.0
C753 C 0.60236 0.40532 0.92234 0.0
H754 H 0.53102 0.4266 0.87779 0.0
C755 C 0.51745 0.33095 0.77066 0.0
C756 C 0.48166 0.32194 0.77014 0.0
C757 C 0.54045 0.35422 0.80303 0.0
C758 C 0.55033 0.4199 0.89044 0.0
H759 H 0.71838 0.51234 0.97442 0.0
H760 H 0.67167 0.47196 0.92325 0.0
H761 H 0.5732 0.46454 0.93551 0.0
H762 H 0.44155 0.33022 0.8022 0.0
H763 H 0.48156 0.37023 0.86019 0.0
H764 H 0.5795 0.36037 0.87876 0.0
C765 C 0.66441 0.47642 0.95656 0.0
C766 C 0.57446 0.44168 0.92332 0.0
C767 C 0.69103 0.49952 0.9858 0.0
C768 C 0.46926 0.33725 0.80174 0.0
C769 C 0.49219 0.36011 0.83488 0.0
C770 C 0.57795 0.38323 0.89024 0.0
C771 C 0.6287 0.45949 0.96998 0.0
C772 C 0.60101 0.43486 0.93875 0.0
C773 C 0.52795 0.36834 0.83638 0.0
C774 C 0.55215 0.39068 0.873 0.0
H775 H 0.63935 0.49278 0.0762 0.0
H776 H 0.59241 0.45283 0.02406 0.0
H777 H 0.62248 0.39946 0.93425 0.0
H778 H 0.52754 0.31948 0.74639 0.0
H779 H 0.568 0.36076 0.80217 0.0
loop_
_geom_bond_atom_site_label_1
_geom_bond_atom_site_label_2
_geom_bond_distance
_geom_bond_site_symmetry_2
_ccdc_geom_bond_type
Sm0 C2 2.846 . S
Sm0 O20 2.543 . S
Sm0 O21 2.450 . S
Sm0 O22 2.681 . S
Sm0 O23 2.464 . S
Sm0 O24 2.396 . S
Sm0 O28 2.386 . S
Sm0 O31 2.408 . S
Sm1 C11 2.846 . S
Sm1 O22 2.386 . S
Sm1 O25 2.408 . S
Sm1 O26 2.543 . S
Sm1 O27 2.450 . S
Sm1 O28 2.681 . S
Sm1 O29 2.464 . S
Sm1 O30 2.396 . S
C2 Sm0 2.846 . S
C2 C3 1.506 . S
C2 O20 1.261 . S
C2 O21 1.242 . S
C3 C2 1.506 . S
C3 C4 1.358 1_554 S
C3 C8 1.382 1_554 S
C4 C3 1.358 1_556 S
C4 C5 1.385 . S
C4 H32 0.930 . S
C5 C4 1.385 . S
C5 C6 1.395 . S
C5 H33 0.929 . S
C6 C5 1.395 . S
C6 C7 1.335 . S
C7 C6 1.335 . S
C7 C8 1.398 . S
C7 H34 0.930 . S
C8 C3 1.382 1_556 S
C8 C7 1.398 . S
C8 H35 0.929 1_556 S
C9 O22 1.271 . S
C9 O23 1.251 . S
C10 O24 1.252 . S
C10 O25 1.272 . S
C11 Sm1 2.846 . S
C11 C12 1.506 . S
C11 O26 1.261 . S
C11 O27 1.242 . S
C12 C11 1.506 . S
C12 C13 1.358 . S
C12 C17 1.382 . S
C13 C12 1.358 . S
C13 C14 1.385 . S
C13 H36 0.930 . S
C14 C13 1.385 . S
C14 C15 1.395 . S
C14 H37 0.929 . S
C15 C14 1.395 . S
C15 C16 1.335 . S
C16 C15 1.335 . S
C16 C17 1.398 . S
C16 H38 0.930 . S
C17 C12 1.382 . S
C17 C16 1.398 . S
C17 H39 0.929 . S
C18 O28 1.271 . S
C18 O29 1.251 . S
C19 O30 1.252 . S
C19 O31 1.272 . S
O20 Sm0 2.543 . S
O20 C2 1.261 . S
O21 Sm0 2.450 . S
O21 C2 1.242 . S
O22 Sm0 2.681 . S
O22 Sm1 2.386 . S
O22 C9 1.271 . S
O23 Sm0 2.464 . S
O23 C9 1.251 . S
O24 Sm0 2.396 . S
O24 C10 1.252 . S
O25 Sm1 2.408 . S
O25 C10 1.272 . S
O26 Sm1 2.543 . S
O26 C11 1.261 . S
O27 Sm1 2.450 . S
O27 C11 1.242 . S
O28 Sm0 2.386 . S
O28 Sm1 2.681 . S
O28 C18 1.271 . S
O29 Sm1 2.464 . S
O29 C18 1.251 . S
O30 Sm1 2.396 . S
O30 C19 1.252 . S
O31 Sm0 2.408 . S
O31 C19 1.272 . S
H32 C4 0.930 . S
H33 C5 0.929 . S
H34 C7 0.930 . S
H35 C8 0.929 1_554 S
H36 C13 0.930 . S
H37 C14 0.929 . S
H38 C16 0.930 . S
H39 C17 0.929 . S
Sm40 C42 2.846 . S
Sm40 O60 2.543 . S
Sm40 O61 2.450 . S
Sm40 O62 2.681 . S
Sm40 O63 2.464 . S
Sm40 O64 2.396 . S
Sm40 O68 2.386 . S
Sm40 O71 2.408 . S
Sm41 C51 2.846 . S
Sm41 O62 2.386 . S
Sm41 O65 2.408 . S
Sm41 O66 2.543 . S
Sm41 O67 2.450 . S
Sm41 O68 2.681 . S
Sm41 O69 2.464 . S
Sm41 O70 2.396 . S
C42 Sm40 2.846 . S
C42 C43 1.506 . S
C42 O60 1.261 . S
C42 O61 1.242 . S
C43 C42 1.506 . S
C43 C44 1.358 . S
C43 C48 1.382 . S
C44 C43 1.358 . S
C44 C45 1.385 . S
C44 H72 0.930 . S
C45 C44 1.385 . S
C45 C46 1.395 . S
C45 H73 0.929 . S
C46 C45 1.395 . S
C46 C47 1.335 . S
C47 C46 1.335 . S
C47 C48 1.398 . S
C47 H74 0.930 . S
C48 C43 1.382 . S
C48 C47 1.398 . S
C48 H75 0.929 . S
C49 O62 1.271 . S
C49 O63 1.251 . S
C50 O64 1.252 . S
C50 O65 1.272 . S
C51 Sm41 2.846 . S
C51 C52 1.506 . S
C51 O66 1.261 . S
C51 O67 1.242 . S
C52 C51 1.506 . S
C52 C53 1.358 . S
C52 C57 1.382 . S
C53 C52 1.358 . S
C53 C54 1.385 . S
C53 H76 0.930 . S
C54 C53 1.385 . S
C54 C55 1.395 . S
C54 H77 0.929 . S
C55 C54 1.395 . S
C55 C56 1.335 . S
C56 C55 1.335 . S
C56 C57 1.398 . S
C56 H78 0.930 . S
C57 C52 1.382 . S
C57 C56 1.398 . S
C57 H79 0.929 . S
C58 O68 1.271 . S
C58 O69 1.251 . S
C59 O70 1.252 . S
C59 O71 1.272 . S
O60 Sm40 2.543 . S
O60 C42 1.261 . S
O61 Sm40 2.450 . S
O61 C42 1.242 . S
O62 Sm40 2.681 . S
O62 Sm41 2.386 . S
O62 C49 1.271 . S
O63 Sm40 2.464 . S
O63 C49 1.251 . S
O64 Sm40 2.396 . S
O64 C50 1.252 . S
O65 Sm41 2.408 . S
O65 C50 1.272 . S
O66 Sm41 2.543 . S
O66 C51 1.261 . S
O67 Sm41 2.450 . S
O67 C51 1.242 . S
O68 Sm40 2.386 . S
O68 Sm41 2.681 . S
O68 C58 1.271 . S
O69 Sm41 2.464 . S
O69 C58 1.251 . S
O70 Sm41 2.396 . S
O70 C59 1.252 . S
O71 Sm40 2.408 . S
O71 C59 1.272 . S
H72 C44 0.930 . S
H73 C45 0.929 . S
H74 C47 0.930 . S
H75 C48 0.929 . S
H76 C53 0.930 . S
H77 C54 0.929 . S
H78 C56 0.930 . S
H79 C57 0.929 . S
Sm80 C82 2.846 . S
Sm80 O100 2.543 . S
Sm80 O101 2.450 . S
Sm80 O102 2.681 . S
Sm80 O103 2.464 . S
Sm80 O104 2.396 . S
Sm80 O108 2.386 . S
Sm80 O111 2.408 . S
Sm81 C91 2.846 1_556 S
Sm81 O102 2.386 . S
Sm81 O105 2.408 . S
Sm81 O106 2.543 . S
Sm81 O107 2.450 . S
Sm81 O108 2.681 . S
Sm81 O109 2.464 . S
Sm81 O110 2.396 . S
C82 Sm80 2.846 . S
C82 C83 1.506 . S
C82 O100 1.261 . S
C82 O101 1.242 . S
C83 C82 1.506 . S
C83 C84 1.358 . S
C83 C88 1.382 . S
C84 C83 1.358 . S
C84 C85 1.385 . S
C84 H112 0.930 . S
C85 C84 1.385 . S
C85 C86 1.395 . S
C85 H113 0.929 . S
C86 C85 1.395 . S
C86 C87 1.335 . S
C87 C86 1.335 . S
C87 C88 1.398 . S
C87 H114 0.930 . S
C88 C83 1.382 . S
C88 C87 1.398 . S
C88 H115 0.929 . S
C89 O102 1.271 . S
C89 O103 1.251 . S
C90 O104 1.252 . S
C90 O105 1.272 . S
C91 Sm81 2.846 1_554 S
C91 C92 1.506 . S
C91 O106 1.261 1_554 S
C91 O107 1.242 1_554 S
C92 C91 1.506 . S
C92 C93 1.358 . S
C92 C97 1.382 . S
C93 C92 1.358 . S
C93 C94 1.385 . S
C93 H116 0.930 . S
C94 C93 1.385 . S
C94 C95 1.395 . S
C94 H117 0.929 . S
C95 C94 1.395 . S
C95 C96 1.335 . S
C96 C95 1.335 . S
C96 C97 1.398 . S
C96 H118 0.930 . S
C97 C92 1.382 . S
C97 C96 1.398 . S
C97 H119 0.929 . S
C98 O108 1.271 . S
C98 O109 1.251 . S
C99 O110 1.252 . S
C99 O111 1.272 . S
O100 Sm80 2.543 . S
O100 C82 1.261 . S
O101 Sm80 2.450 . S
O101 C82 1.242 . S
O102 Sm80 2.681 . S
O102 Sm81 2.386 . S
O102 C89 1.271 . S
O103 Sm80 2.464 . S
O103 C89 1.251 . S
O104 Sm80 2.396 . S
O104 C90 1.252 . S
O105 Sm81 2.408 . S
O105 C90 1.272 . S
O106 Sm81 2.543 . S
O106 C91 1.261 1_556 S
O107 Sm81 2.450 . S
O107 C91 1.242 1_556 S
O108 Sm80 2.386 . S
O108 Sm81 2.681 . S
O108 C98 1.271 . S
O109 Sm81 2.464 . S
O109 C98 1.251 . S
O110 Sm81 2.396 . S
O110 C99 1.252 . S
O111 Sm80 2.408 . S
O111 C99 1.272 . S
H112 C84 0.930 . S
H113 C85 0.929 . S
H114 C87 0.930 . S
H115 C88 0.929 . S
H116 C93 0.930 . S
H117 C94 0.929 . S
H118 C96 0.930 . S
H119 C97 0.929 . S
Sm120 C122 2.846 . S
Sm120 O140 2.543 . S
Sm120 O141 2.450 . S
Sm120 O142 2.681 1_554 S
Sm120 O143 2.464 . S
Sm120 O144 2.396 . S
Sm120 O148 2.386 . S
Sm120 O151 2.408 . S
Sm121 C131 2.846 . S
Sm121 O142 2.386 . S
Sm121 O145 2.408 1_556 S
Sm121 O146 2.543 . S
Sm121 O147 2.450 . S
Sm121 O148 2.681 1_556 S
Sm121 O149 2.464 . S
Sm121 O150 2.396 . S
C122 Sm120 2.846 . S
C122 C123 1.506 . S
C122 O140 1.261 . S
C122 O141 1.242 . S
C123 C122 1.506 . S
C123 C124 1.358 . S
C123 C128 1.382 . S
C124 C123 1.358 . S
C124 C125 1.385 . S
C124 H152 0.930 . S
C125 C124 1.385 . S
C125 C126 1.395 . S
C125 H153 0.929 . S
C126 C125 1.395 . S
C126 C127 1.335 . S
C127 C126 1.335 . S
C127 C128 1.398 . S
C127 H154 0.930 . S
C128 C123 1.382 . S
C128 C127 1.398 . S
C128 H155 0.929 . S
C129 O142 1.271 1_554 S
C129 O143 1.251 . S
C130 O144 1.252 . S
C130 O145 1.272 . S
C131 Sm121 2.846 . S
C131 C132 1.506 . S
C131 O146 1.261 . S
C131 O147 1.242 . S
C132 C131 1.506 . S
C132 C133 1.358 . S
C132 C137 1.382 . S
C133 C132 1.358 . S
C133 C134 1.385 . S
C133 H156 0.930 . S
C134 C133 1.385 . S
C134 C135 1.395 . S
C134 H157 0.929 . S
C135 C134 1.395 . S
C135 C136 1.335 . S
C136 C135 1.335 . S
C136 C137 1.398 . S
C136 H158 0.930 . S
C137 C132 1.382 . S
C137 C136 1.398 . S
C137 H159 0.929 . S
C138 O148 1.271 . S
C138 O149 1.251 1_554 S
C139 O150 1.252 . S
C139 O151 1.272 1_556 S
O140 Sm120 2.543 . S
O140 C122 1.261 . S
O141 Sm120 2.450 . S
O141 C122 1.242 . S
O142 Sm120 2.681 1_556 S
O142 Sm121 2.386 . S
O142 C129 1.271 1_556 S
O143 Sm120 2.464 . S
O143 C129 1.251 . S
O144 Sm120 2.396 . S
O144 C130 1.252 . S
O145 Sm121 2.408 1_554 S
O145 C130 1.272 . S
O146 Sm121 2.543 . S
O146 C131 1.261 . S
O147 Sm121 2.450 . S
O147 C131 1.242 . S
O148 Sm120 2.386 . S
O148 Sm121 2.681 1_554 S
O148 C138 1.271 . S
O149 Sm121 2.464 . S
O149 C138 1.251 1_556 S
O150 Sm121 2.396 . S
O150 C139 1.252 . S
O151 Sm120 2.408 . S
O151 C139 1.272 1_554 S
H152 C124 0.930 . S
H153 C125 0.929 . S
H154 C127 0.930 . S
H155 C128 0.929 . S
H156 C133 0.930 . S
H157 C134 0.929 . S
H158 C136 0.930 . S
H159 C137 0.929 . S
Sm160 C162 2.846 . S
Sm160 O180 2.543 . S
Sm160 O181 2.450 . S
Sm160 O182 2.681 . S
Sm160 O183 2.464 . S
Sm160 O184 2.396 . S
Sm160 O188 2.386 . S
Sm160 O191 2.408 . S
Sm161 C171 2.846 . S
Sm161 O182 2.386 . S
Sm161 O185 2.408 . S
Sm161 O186 2.543 . S
Sm161 O187 2.450 . S
Sm161 O188 2.681 . S
Sm161 O189 2.464 . S
Sm161 O190 2.396 . S
C162 Sm160 2.846 . S
C162 C163 1.506 . S
C162 O180 1.261 . S
C162 O181 1.242 . S
C163 C162 1.506 . S
C163 C164 1.358 . S
C163 C168 1.382 . S
C164 C163 1.358 . S
C164 C165 1.385 . S
C164 H192 0.930 . S
C165 C164 1.385 . S
C165 C166 1.395 . S
C165 H193 0.929 . S
C166 C165 1.395 . S
C166 C167 1.335 . S
C167 C166 1.335 . S
C167 C168 1.398 . S
C167 H194 0.930 . S
C168 C163 1.382 . S
C168 C167 1.398 . S
C168 H195 0.929 . S
C169 O182 1.271 . S
C169 O183 1.251 . S
C170 O184 1.252 . S
C170 O185 1.272 . S
C171 Sm161 2.846 . S
C171 C172 1.506 . S
C171 O186 1.261 . S
C171 O187 1.242 . S
C172 C171 1.506 . S
C172 C173 1.358 . S
C172 C177 1.382 . S
C173 C172 1.358 . S
C173 C174 1.385 . S
C173 H196 0.930 . S
C174 C173 1.385 . S
C174 C175 1.395 . S
C174 H197 0.929 . S
C175 C174 1.395 . S
C175 C176 1.335 . S
C176 C175 1.335 . S
C176 C177 1.398 . S
C176 H198 0.930 . S
C177 C172 1.382 . S
C177 C176 1.398 . S
C177 H199 0.929 . S
C178 O188 1.271 . S
C178 O189 1.251 . S
C179 O190 1.252 . S
C179 O191 1.272 . S
O180 Sm160 2.543 . S
O180 C162 1.261 . S
O181 Sm160 2.450 . S
O181 C162 1.242 . S
O182 Sm160 2.681 . S
O182 Sm161 2.386 . S
O182 C169 1.271 . S
O183 Sm160 2.464 . S
O183 C169 1.251 . S
O184 Sm160 2.396 . S
O184 C170 1.252 . S
O185 Sm161 2.408 . S
O185 C170 1.272 . S
O186 Sm161 2.543 . S
O186 C171 1.261 . S
O187 Sm161 2.450 . S
O187 C171 1.242 . S
O188 Sm160 2.386 . S
O188 Sm161 2.681 . S
O188 C178 1.271 . S
O189 Sm161 2.464 . S
O189 C178 1.251 . S
O190 Sm161 2.396 . S
O190 C179 1.252 . S
O191 Sm160 2.408 . S
O191 C179 1.272 . S
H192 C164 0.930 . S
H193 C165 0.929 . S
H194 C167 0.930 . S
H195 C168 0.929 . S
H196 C173 0.930 . S
H197 C174 0.929 . S
H198 C176 0.930 . S
H199 C177 0.929 . S
Sm200 C202 2.846 . S
Sm200 O220 2.543 . S
Sm200 O221 2.450 . S
Sm200 O222 2.681 . S
Sm200 O223 2.464 . S
Sm200 O224 2.396 . S
Sm200 O228 2.386 . S
Sm200 O231 2.408 . S
Sm201 C211 2.846 . S
Sm201 O222 2.386 . S
Sm201 O225 2.408 . S
Sm201 O226 2.543 . S
Sm201 O227 2.450 . S
Sm201 O228 2.681 . S
Sm201 O229 2.464 . S
Sm201 O230 2.396 . S
C202 Sm200 2.846 . S
C202 C203 1.506 . S
C202 O220 1.261 . S
C202 O221 1.242 . S
C203 C202 1.506 . S
C203 C204 1.358 . S
C203 C208 1.382 . S
C204 C203 1.358 . S
C204 C205 1.385 . S
C204 H232 0.930 . S
C205 C204 1.385 . S
C205 C206 1.395 . S
C205 H233 0.929 . S
C206 C205 1.395 . S
C206 C207 1.335 . S
C207 C206 1.335 . S
C207 C208 1.398 . S
C207 H234 0.930 . S
C208 C203 1.382 . S
C208 C207 1.398 . S
C208 H235 0.929 . S
C209 O222 1.271 . S
C209 O223 1.251 . S
C210 O224 1.252 . S
C210 O225 1.272 . S
C211 Sm201 2.846 . S
C211 C212 1.506 . S
C211 O226 1.261 . S
C211 O227 1.242 . S
C212 C211 1.506 . S
C212 C213 1.358 . S
C212 C217 1.382 . S
C213 C212 1.358 . S
C213 C214 1.385 . S
C213 H236 0.930 . S
C214 C213 1.385 . S
C214 C215 1.395 . S
C214 H237 0.929 . S
C215 C214 1.395 . S
C215 C216 1.335 . S
C216 C215 1.335 . S
C216 C217 1.398 . S
C216 H238 0.930 . S
C217 C212 1.382 . S
C217 C216 1.398 . S
C217 H239 0.929 . S
C218 O228 1.271 . S
C218 O229 1.251 . S
C219 O230 1.252 . S
C219 O231 1.272 . S
O220 Sm200 2.543 . S
O220 C202 1.261 . S
O221 Sm200 2.450 . S
O221 C202 1.242 . S
O222 Sm200 2.681 . S
O222 Sm201 2.386 . S
O222 C209 1.271 . S
O223 Sm200 2.464 . S
O223 C209 1.251 . S
O224 Sm200 2.396 . S
O224 C210 1.252 . S
O225 Sm201 2.408 . S
O225 C210 1.272 . S
O226 Sm201 2.543 . S
O226 C211 1.261 . S
O227 Sm201 2.450 . S
O227 C211 1.242 . S
O228 Sm200 2.386 . S
O228 Sm201 2.681 . S
O228 C218 1.271 . S
O229 Sm201 2.464 . S
O229 C218 1.251 . S
O230 Sm201 2.396 . S
O230 C219 1.252 . S
O231 Sm200 2.408 . S
O231 C219 1.272 . S
H232 C204 0.930 . S
H233 C205 0.929 . S
H234 C207 0.930 . S
H235 C208 0.929 . S
H236 C213 0.930 . S
H237 C214 0.929 . S
H238 C216 0.930 . S
H239 C217 0.929 . S
C240 C241 1.349 . S
C240 C242 1.327 . S
C240 H265 0.950 . S
C241 C240 1.349 . S
C241 C257 1.349 . S
C242 C240 1.327 . S
C242 C261 1.429 . S
C242 H266 0.950 . S
C243 C260 1.574 . S
C243 C262 1.368 . S
C243 H267 0.949 . S
H244 C248 0.949 1_554 S
C245 C246 1.349 . S
C245 C247 1.327 . S
C245 H268 0.950 . S
C246 C245 1.349 . S
C246 C258 1.349 . S
C247 C245 1.327 . S
C247 C263 1.429 . S
C247 H269 0.950 . S
C248 H244 0.949 1_556 S
C248 C256 1.574 . S
C248 C264 1.368 . S
H249 C257 0.950 . S
H250 C255 0.950 . S
H251 C256 0.949 . S
H252 C258 0.950 . S
H253 C259 0.950 . S
H254 C260 0.949 . S
C255 H250 0.950 . S
C255 C257 1.327 . S
C255 C261 1.429 . S
C256 C248 1.574 . S
C256 H251 0.949 . S
C256 C262 1.368 . S
C257 C241 1.349 . S
C257 H249 0.950 . S
C257 C255 1.327 . S
C258 C246 1.349 . S
C258 H252 0.950 . S
C258 C259 1.327 . S
C259 H253 0.950 . S
C259 C258 1.327 . S
C259 C263 1.429 . S
C260 C243 1.574 . S
C260 H254 0.949 . S
C260 C264 1.368 . S
C261 C242 1.429 . S
C261 C255 1.429 . S
C261 C262 1.523 . S
C262 C243 1.368 . S
C262 C256 1.368 . S
C262 C261 1.523 . S
C263 C247 1.429 . S
C263 C259 1.429 . S
C263 C264 1.523 1_554 S
C264 C248 1.368 . S
C264 C260 1.368 . S
C264 C263 1.523 1_556 S
H265 C240 0.950 . S
H266 C242 0.950 . S
H267 C243 0.949 . S
H268 C245 0.950 . S
H269 C247 0.950 . S
C270 C271 1.349 . S
C270 C272 1.327 . S
C270 H295 0.950 . S
C271 C270 1.349 . S
C271 C287 1.349 . S
C272 C270 1.327 . S
C272 C291 1.429 . S
C272 H296 0.950 . S
C273 C290 1.574 1_455 S
C273 C292 1.368 . S
C273 H297 0.949 . S
H274 C278 0.949 . S
C275 C276 1.349 . S
C275 C277 1.327 . S
C275 H298 0.950 . S
C276 C275 1.349 . S
C276 C288 1.349 . S
C277 C275 1.327 . S
C277 C293 1.429 . S
C277 H299 0.950 . S
C278 H274 0.949 . S
C278 C286 1.574 1_655 S
C278 C294 1.368 . S
H279 C287 0.950 . S
H280 C285 0.950 . S
H281 C286 0.949 . S
H282 C288 0.950 . S
H283 C289 0.950 . S
H284 C290 0.949 . S
C285 H280 0.950 . S
C285 C287 1.327 . S
C285 C291 1.429 . S
C286 C278 1.574 1_455 S
C286 H281 0.949 . S
C286 C292 1.368 . S
C287 C271 1.349 . S
C287 H279 0.950 . S
C287 C285 1.327 . S
C288 C276 1.349 . S
C288 H282 0.950 . S
C288 C289 1.327 . S
C289 H283 0.950 . S
C289 C288 1.327 . S
C289 C293 1.429 . S
C290 C273 1.574 1_655 S
C290 H284 0.949 . S
C290 C294 1.368 . S
C291 C272 1.429 . S
C291 C285 1.429 . S
C291 C292 1.523 . S
C292 C273 1.368 . S
C292 C286 1.368 . S
C292 C291 1.523 . S
C293 C277 1.429 . S
C293 C289 1.429 . S
C293 C294 1.523 . S
C294 C278 1.368 . S
C294 C290 1.368 . S
C294 C293 1.523 . S
H295 C270 0.950 . S
H296 C272 0.950 . S
H297 C273 0.949 . S
H298 C275 0.950 . S
H299 C277 0.950 . S
C300 C301 1.349 . S
C300 C302 1.327 . S
C300 H325 0.950 . S
C301 C300 1.349 . S
C301 C317 1.349 . S
C302 C300 1.327 . S
C302 C321 1.429 . S
C302 H326 0.950 . S
C303 C320 1.574 1_545 S
C303 C322 1.368 . S
C303 H327 0.949 . S
H304 C308 0.949 . S
C305 C306 1.349 . S
C305 C307 1.327 . S
C305 H328 0.950 . S
C306 C305 1.349 . S
C306 C318 1.349 . S
C307 C305 1.327 . S
C307 C323 1.429 . S
C307 H329 0.950 . S
C308 H304 0.949 . S
C308 C316 1.574 1_565 S
C308 C324 1.368 . S
H309 C317 0.950 . S
H310 C315 0.950 . S
H311 C316 0.949 . S
H312 C318 0.950 . S
H313 C319 0.950 . S
H314 C320 0.949 . S
C315 H310 0.950 . S
C315 C317 1.327 . S
C315 C321 1.429 . S
C316 C308 1.574 1_545 S
C316 H311 0.949 . S
C316 C322 1.368 . S
C317 C301 1.349 . S
C317 H309 0.950 . S
C317 C315 1.327 . S
C318 C306 1.349 . S
C318 H312 0.950 . S
C318 C319 1.327 . S
C319 H313 0.950 . S
C319 C318 1.327 . S
C319 C323 1.429 . S
C320 C303 1.574 1_565 S
C320 H314 0.949 . S
C320 C324 1.368 . S
C321 C302 1.429 . S
C321 C315 1.429 . S
C321 C322 1.523 . S
C322 C303 1.368 . S
C322 C316 1.368 . S
C322 C321 1.523 . S
C323 C307 1.429 . S
C323 C319 1.429 . S
C323 C324 1.523 . S
C324 C308 1.368 . S
C324 C320 1.368 . S
C324 C323 1.523 . S
H325 C300 0.950 . S
H326 C302 0.950 . S
H327 C303 0.949 . S
H328 C305 0.950 . S
H329 C307 0.950 . S
C330 C331 1.349 . S
C330 C332 1.327 . S
C330 H355 0.950 . S
C331 C330 1.349 . S
C331 C347 1.349 . S
C332 C330 1.327 . S
C332 C351 1.429 . S
C332 H356 0.950 . S
C333 C350 1.574 . S
C333 C352 1.368 . S
C333 H357 0.949 . S
H334 C338 0.949 1_554 S
C335 C336 1.349 . S
C335 C337 1.327 . S
C335 H358 0.950 . S
C336 C335 1.349 . S
C336 C348 1.349 1_556 S
C337 C335 1.327 . S
C337 C353 1.429 . S
C337 H359 0.950 . S
C338 H334 0.949 1_556 S
C338 C346 1.574 . S
C338 C354 1.368 . S
H339 C347 0.950 . S
H340 C345 0.950 . S
H341 C346 0.958 . S
H342 C348 0.950 . S
H343 C349 0.950 . S
H344 C350 0.949 . S
C345 H340 0.950 . S
C345 C347 1.327 . S
C345 C351 1.429 . S
C346 C338 1.574 . S
C346 H341 0.958 . S
C346 C352 1.368 . S
C347 C331 1.349 . S
C347 H339 0.950 . S
C347 C345 1.327 . S
C348 C336 1.349 1_554 S
C348 H342 0.950 . S
C348 C349 1.327 . S
C349 H343 0.950 . S
C349 C348 1.327 . S
C349 C353 1.429 1_554 S
C350 C333 1.574 . S
C350 H344 0.949 . S
C350 C354 1.368 . S
C351 C332 1.429 . S
C351 C345 1.429 . S
C351 C352 1.523 . S
C352 C333 1.368 . S
C352 C346 1.368 . S
C352 C351 1.523 . S
C353 C337 1.429 . S
C353 C349 1.429 1_556 S
C353 C354 1.523 . S
C354 C338 1.368 . S
C354 C350 1.368 . S
C354 C353 1.523 . S
H355 C330 0.950 . S
H356 C332 0.950 . S
H357 C333 0.949 . S
H358 C335 0.950 . S
H359 C337 0.950 . S
C360 C361 1.349 . S
C360 C362 1.327 . S
C360 H385 0.950 . S
C361 C360 1.349 . S
C361 C377 1.349 . S
C362 C360 1.327 . S
C362 C381 1.429 . S
C362 H386 0.950 . S
C363 C380 1.574 . S
C363 C382 1.368 . S
C363 H387 0.949 . S
H364 C368 0.949 . S
C365 C366 1.349 . S
C365 C367 1.327 . S
C365 H388 0.950 . S
C366 C365 1.349 . S
C366 C378 1.349 . S
C367 C365 1.327 . S
C367 C383 1.429 . S
C367 H389 0.950 . S
C368 H364 0.949 . S
C368 C376 1.574 . S
C368 C384 1.368 . S
H369 C377 0.950 . S
H370 C375 0.950 . S
H371 C376 0.949 . S
H372 C378 0.950 . S
H373 C379 0.950 . S
H374 C380 0.949 . S
C375 H370 0.950 . S
C375 C377 1.327 . S
C375 C381 1.429 . S
C376 C368 1.574 . S
C376 H371 0.949 . S
C376 C382 1.368 1_655 S
C377 C361 1.349 . S
C377 H369 0.950 . S
C377 C375 1.327 . S
C378 C366 1.349 . S
C378 H372 0.950 . S
C378 C379 1.327 . S
C379 H373 0.950 . S
C379 C378 1.327 . S
C379 C383 1.429 . S
C380 C363 1.574 . S
C380 H374 0.949 . S
C380 C384 1.368 1_455 S
C381 C362 1.429 . S
C381 C375 1.429 . S
C381 C382 1.523 . S
C382 C363 1.368 . S
C382 C376 1.368 1_455 S
C382 C381 1.523 . S
C383 C367 1.429 . S
C383 C379 1.429 . S
C383 C384 1.523 . S
C384 C368 1.368 . S
C384 C380 1.368 1_655 S
C384 C383 1.523 . S
H385 C360 0.950 . S
H386 C362 0.950 . S
H387 C363 0.949 . S
H388 C365 0.950 . S
H389 C367 0.950 . S
C390 C391 1.349 . S
C390 C392 1.327 . S
C390 H415 0.950 . S
C391 C390 1.349 . S
C391 C407 1.349 . S
C392 C390 1.327 . S
C392 C411 1.429 . S
C392 H416 0.950 . S
C393 C410 1.574 1_545 S
C393 C412 1.368 . S
C393 H417 0.949 . S
H394 C398 0.949 . S
C395 C396 1.349 . S
C395 C397 1.327 . S
C395 H418 0.950 . S
C396 C395 1.349 . S
C396 C408 1.349 . S
C397 C395 1.327 . S
C397 C413 1.429 . S
C397 H419 0.950 . S
C398 H394 0.949 . S
C398 C406 1.574 1_565 S
C398 C414 1.368 . S
H399 C407 0.950 . S
H400 C405 0.950 . S
H401 C406 0.949 . S
H402 C408 0.950 . S
H403 C409 0.950 . S
H404 C410 0.949 . S
C405 H400 0.950 . S
C405 C407 1.327 . S
C405 C411 1.429 . S
C406 C398 1.574 1_545 S
C406 H401 0.949 . S
C406 C412 1.368 . S
C407 C391 1.349 . S
C407 H399 0.950 . S
C407 C405 1.327 . S
C408 C396 1.349 . S
C408 H402 0.950 . S
C408 C409 1.327 . S
C409 H403 0.950 . S
C409 C408 1.327 . S
C409 C413 1.429 . S
C410 C393 1.574 1_565 S
C410 H404 0.949 . S
C410 C414 1.368 . S
C411 C392 1.429 . S
C411 C405 1.429 . S
C411 C412 1.523 . S
C412 C393 1.368 . S
C412 C406 1.368 . S
C412 C411 1.523 . S
C413 C397 1.429 . S
C413 C409 1.429 . S
C413 C414 1.523 . S
C414 C398 1.368 . S
C414 C410 1.368 . S
C414 C413 1.523 . S
H415 C390 0.950 . S
H416 C392 0.950 . S
H417 C393 0.949 . S
H418 C395 0.950 . S
H419 C397 0.950 . S
C420 C421 1.349 . S
C420 C422 1.327 . S
C420 H445 0.950 . S
C421 C420 1.349 . S
C421 C437 1.349 . S
C422 C420 1.327 . S
C422 C441 1.429 . S
C422 H446 0.950 . S
C423 C440 1.574 . S
C423 C442 1.368 . S
C423 H447 0.949 . S
H424 C428 0.949 . S
C425 C426 1.349 . S
C425 C427 1.327 . S
C425 H448 0.950 . S
C426 C425 1.349 . S
C426 C438 1.349 . S
C427 C425 1.327 . S
C427 C443 1.429 . S
C427 H449 0.950 . S
C428 H424 0.949 . S
C428 C436 1.574 . S
C428 C444 1.368 . S
H429 C437 0.950 . S
H430 C435 0.950 . S
H431 C436 0.949 . S
H432 C438 0.950 . S
H433 C439 0.950 . S
H434 C440 0.949 . S
C435 H430 0.950 . S
C435 C437 1.327 . S
C435 C441 1.429 . S
C436 C428 1.574 . S
C436 H431 0.949 . S
C436 C442 1.368 . S
C437 C421 1.349 . S
C437 H429 0.950 . S
C437 C435 1.327 . S
C438 C426 1.349 . S
C438 H432 0.950 . S
C438 C439 1.327 . S
C439 H433 0.950 . S
C439 C438 1.327 . S
C439 C443 1.429 . S
C440 C423 1.574 . S
C440 H434 0.949 . S
C440 C444 1.368 . S
C441 C422 1.429 . S
C441 C435 1.429 . S
C441 C442 1.523 . S
C442 C423 1.368 . S
C442 C436 1.368 . S
C442 C441 1.523 . S
C443 C427 1.429 . S
C443 C439 1.429 . S
C443 C444 1.523 . S
C444 C428 1.368 . S
C444 C440 1.368 . S
C444 C443 1.523 . S
H445 C420 0.950 . S
H446 C422 0.950 . S
H447 C423 0.949 . S
H448 C425 0.950 . S
H449 C427 0.950 . S
C450 C451 1.349 . S
C450 C452 1.327 1_554 S
C450 H475 0.950 . S
C451 C450 1.349 . S
C451 C467 1.349 . S
C452 C450 1.327 1_556 S
C452 C471 1.429 . S
C452 H476 0.950 . S
C453 C470 1.574 . S
C453 C472 1.368 . S
C453 H477 0.949 . S
H454 C458 0.949 . S
C455 C456 1.349 . S
C455 C457 1.327 . S
C455 H478 0.950 . S
C456 C455 1.349 . S
C456 C468 1.349 . S
C457 C455 1.327 . S
C457 C473 1.429 . S
C457 H479 0.950 . S
C458 H454 0.949 . S
C458 C466 1.574 . S
C458 C474 1.368 . S
H459 C467 0.950 . S
H460 C465 0.950 . S
H461 C466 0.949 . S
H462 C468 0.950 . S
H463 C469 0.950 . S
H464 C470 0.949 . S
C465 H460 0.950 . S
C465 C467 1.327 1_556 S
C465 C471 1.429 . S
C466 C458 1.574 . S
C466 H461 0.949 . S
C466 C472 1.368 . S
C467 C451 1.349 . S
C467 H459 0.950 . S
C467 C465 1.327 1_554 S
C468 C456 1.349 . S
C468 H462 0.950 . S
C468 C469 1.327 . S
C469 H463 0.950 . S
C469 C468 1.327 . S
C469 C473 1.429 . S
C470 C453 1.574 . S
C470 H464 0.949 . S
C470 C474 1.368 . S
C471 C452 1.429 . S
C471 C465 1.429 . S
C471 C472 1.523 . S
C472 C453 1.368 . S
C472 C466 1.368 . S
C472 C471 1.523 . S
C473 C457 1.429 . S
C473 C469 1.429 . S
C473 C474 1.523 . S
C474 C458 1.368 . S
C474 C470 1.368 . S
C474 C473 1.523 . S
H475 C450 0.950 . S
H476 C452 0.950 . S
H477 C453 0.949 . S
H478 C455 0.950 . S
H479 C457 0.950 . S
C480 C481 1.349 . S
C480 C482 1.327 . S
C480 H505 0.950 . S
C481 C480 1.349 . S
C481 C497 1.349 . S
C482 C480 1.327 . S
C482 C501 1.429 . S
C482 H506 0.950 . S
C483 C500 1.574 . S
C483 C502 1.368 . S
C483 H507 0.949 . S
H484 C488 0.949 . S
C485 C486 1.349 . S
C485 C487 1.327 . S
C485 H508 0.950 . S
C486 C485 1.349 . S
C486 C498 1.349 . S
C487 C485 1.327 . S
C487 C503 1.429 . S
C487 H509 0.950 . S
C488 H484 0.949 . S
C488 C496 1.574 . S
C488 C504 1.368 . S
H489 C497 0.950 . S
H490 C495 0.950 . S
H491 C496 0.949 . S
H492 C498 0.950 . S
H493 C499 0.950 . S
H494 C500 0.949 . S
C495 H490 0.950 . S
C495 C497 1.327 . S
C495 C501 1.429 . S
C496 C488 1.574 . S
C496 H491 0.949 . S
C496 C502 1.368 . S
C497 C481 1.349 . S
C497 H489 0.950 . S
C497 C495 1.327 . S
C498 C486 1.349 . S
C498 H492 0.950 . S
C498 C499 1.327 . S
C499 H493 0.950 . S
C499 C498 1.327 . S
C499 C503 1.429 . S
C500 C483 1.574 . S
C500 H494 0.949 . S
C500 C504 1.368 . S
C501 C482 1.429 . S
C501 C495 1.429 . S
C501 C502 1.523 . S
C502 C483 1.368 . S
C502 C496 1.368 . S
C502 C501 1.523 . S
C503 C487 1.429 . S
C503 C499 1.429 . S
C503 C504 1.523 . S
C504 C488 1.368 . S
C504 C500 1.368 . S
C504 C503 1.523 . S
H505 C480 0.950 . S
H506 C482 0.950 . S
H507 C483 0.949 . S
H508 C485 0.950 . S
H509 C487 0.950 . S
C510 C511 1.349 . S
C510 C512 1.327 . S
C510 H535 0.950 . S
C511 C510 1.349 . S
C511 C527 1.349 . S
C512 C510 1.327 . S
C512 C531 1.429 . S
C512 H536 0.950 . S
C513 C530 1.574 . S
C513 C532 1.368 . S
C513 H537 0.949 . S
H514 C518 0.949 . S
C515 C516 1.349 . S
C515 C517 1.327 . S
C515 H538 0.950 . S
C516 C515 1.349 . S
C516 C528 1.349 . S
C517 C515 1.327 . S
C517 C533 1.429 . S
C517 H539 0.950 . S
C518 H514 0.949 . S
C518 C526 1.574 . S
C518 C534 1.368 . S
H519 C527 0.950 . S
H520 C525 0.950 . S
H521 C526 0.949 . S
H522 C528 0.950 . S
H523 C529 0.950 . S
H524 C530 0.949 . S
C525 H520 0.950 . S
C525 C527 1.327 . S
C525 C531 1.429 . S
C526 C518 1.574 . S
C526 H521 0.949 . S
C526 C532 1.368 . S
C527 C511 1.349 . S
C527 H519 0.950 . S
C527 C525 1.327 . S
C528 C516 1.349 . S
C528 H522 0.950 . S
C528 C529 1.327 . S
C529 H523 0.950 . S
C529 C528 1.327 . S
C529 C533 1.429 . S
C530 C513 1.574 . S
C530 H524 0.949 . S
C530 C534 1.368 . S
C531 C512 1.429 . S
C531 C525 1.429 . S
C531 C532 1.523 . S
C532 C513 1.368 . S
C532 C526 1.368 . S
C532 C531 1.523 . S
C533 C517 1.429 . S
C533 C529 1.429 . S
C533 C534 1.523 . S
C534 C518 1.368 . S
C534 C530 1.368 . S
C534 C533 1.523 . S
H535 C510 0.950 . S
H536 C512 0.950 . S
H537 C513 0.949 . S
H538 C515 0.950 . S
H539 C517 0.950 . S
C540 C541 1.349 . S
C540 C542 1.327 . S
C540 H565 0.950 . S
C541 C540 1.349 . S
C541 C557 1.349 . S
C542 C540 1.327 . S
C542 C561 1.429 . S
C542 H566 0.950 . S
C543 C560 1.561 1_556 S
C543 C562 1.371 . S
C543 H567 0.958 . S
H544 C548 0.949 . S
C545 C546 1.349 . S
C545 C547 1.327 . S
C545 H568 0.950 . S
C546 C545 1.349 . S
C546 C558 1.349 . S
C547 C545 1.327 . S
C547 C563 1.429 . S
C547 H569 0.950 . S
C548 H544 0.949 . S
C548 C556 1.574 . S
C548 C564 1.368 . S
H549 C557 0.950 . S
H550 C555 0.950 . S
H551 C556 0.949 . S
H552 C558 0.950 . S
H553 C559 0.950 . S
H554 C560 0.949 . S
C555 H550 0.950 . S
C555 C557 1.327 . S
C555 C561 1.429 . S
C556 C548 1.574 . S
C556 H551 0.949 . S
C556 C562 1.368 1_554 S
C557 C541 1.349 . S
C557 H549 0.950 . S
C557 C555 1.327 . S
C558 C546 1.349 . S
C558 H552 0.950 . S
C558 C559 1.327 . S
C559 H553 0.950 . S
C559 C558 1.327 . S
C559 C563 1.429 . S
C560 C543 1.561 1_554 S
C560 H554 0.949 . S
C560 C564 1.368 . S
C561 C542 1.429 . S
C561 C555 1.429 . S
C561 C562 1.523 . S
C562 C543 1.371 . S
C562 C556 1.368 1_556 S
C562 C561 1.523 . S
C563 C547 1.429 . S
C563 C559 1.429 . S
C563 C564 1.523 . S
C564 C548 1.368 . S
C564 C560 1.368 . S
C564 C563 1.523 . S
H565 C540 0.950 . S
H566 C542 0.950 . S
H567 C543 0.958 . S
H568 C545 0.950 . S
H569 C547 0.950 . S
C570 C571 1.349 . S
C570 C572 1.327 . S
C570 H595 0.950 . S
C571 C570 1.349 . S
C571 C587 1.349 . S
C572 C570 1.327 . S
C572 C591 1.429 . S
C572 H596 0.950 . S
C573 C590 1.574 . S
C573 C592 1.368 . S
C573 H597 0.949 . S
H574 C578 0.949 . S
C575 C576 1.349 . S
C575 C577 1.327 . S
C575 H598 0.950 . S
C576 C575 1.349 . S
C576 C588 1.349 . S
C577 C575 1.327 . S
C577 C593 1.429 . S
C577 H599 0.950 . S
C578 H574 0.949 . S
C578 C586 1.574 . S
C578 C594 1.368 . S
H579 C587 0.950 . S
H580 C585 0.950 . S
H581 C586 0.949 . S
H582 C588 0.950 . S
H583 C589 0.950 . S
H584 C590 0.949 . S
C585 H580 0.950 . S
C585 C587 1.327 . S
C585 C591 1.429 . S
C586 C578 1.574 . S
C586 H581 0.949 . S
C586 C592 1.368 . S
C587 C571 1.349 . S
C587 H579 0.950 . S
C587 C585 1.327 . S
C588 C576 1.349 . S
C588 H582 0.950 . S
C588 C589 1.327 . S
C589 H583 0.950 . S
C589 C588 1.327 . S
C589 C593 1.429 . S
C590 C573 1.574 . S
C590 H584 0.949 . S
C590 C594 1.368 . S
C591 C572 1.429 . S
C591 C585 1.429 . S
C591 C592 1.523 . S
C592 C573 1.368 . S
C592 C586 1.368 . S
C592 C591 1.523 . S
C593 C577 1.429 . S
C593 C589 1.429 . S
C593 C594 1.523 . S
C594 C578 1.368 . S
C594 C590 1.368 . S
C594 C593 1.523 . S
H595 C570 0.950 . S
H596 C572 0.950 . S
H597 C573 0.949 . S
H598 C575 0.950 . S
H599 C577 0.950 . S
C600 C601 1.349 . S
C600 C602 1.327 . S
C600 H625 0.950 . S
C601 C600 1.349 . S
C601 C617 1.349 . S
C602 C600 1.327 . S
C602 C621 1.429 . S
C602 H626 0.950 . S
C603 C620 1.574 . S
C603 C622 1.368 . S
C603 H627 0.949 . S
H604 C608 0.949 . S
C605 C606 1.349 . S
C605 C607 1.327 . S
C605 H628 0.950 . S
C606 C605 1.349 . S
C606 C618 1.349 . S
C607 C605 1.327 . S
C607 C623 1.429 . S
C607 H629 0.950 . S
C608 H604 0.949 . S
C608 C616 1.574 . S
C608 C624 1.368 . S
H609 C617 0.950 . S
H610 C615 0.950 . S
H611 C616 0.949 . S
H612 C618 0.950 . S
H613 C619 0.950 . S
H614 C620 0.949 . S
C615 H610 0.950 . S
C615 C617 1.327 . S
C615 C621 1.429 . S
C616 C608 1.574 . S
C616 H611 0.949 . S
C616 C622 1.368 . S
C617 C601 1.349 . S
C617 H609 0.950 . S
C617 C615 1.327 . S
C618 C606 1.349 . S
C618 H612 0.950 . S
C618 C619 1.327 . S
C619 H613 0.950 . S
C619 C618 1.327 . S
C619 C623 1.429 . S
C620 C603 1.574 . S
C620 H614 0.949 . S
C620 C624 1.368 . S
C621 C602 1.429 . S
C621 C615 1.429 . S
C621 C622 1.523 . S
C622 C603 1.368 . S
C622 C616 1.368 . S
C622 C621 1.523 . S
C623 C607 1.429 . S
C623 C619 1.429 . S
C623 C624 1.523 . S
C624 C608 1.368 . S
C624 C620 1.368 . S
C624 C623 1.523 . S
H625 C600 0.950 . S
H626 C602 0.950 . S
H627 C603 0.949 . S
H628 C605 0.950 . S
H629 C607 0.950 . S
C630 C631 1.349 . S
C630 C632 1.327 . S
C630 H655 0.950 . S
C631 C630 1.349 . S
C631 C647 1.349 . S
C632 C630 1.327 . S
C632 C651 1.429 . S
C632 H656 0.950 . S
C633 C650 1.574 . S
C633 C652 1.368 . S
C633 H657 0.949 . S
H634 C638 0.949 . S
C635 C636 1.349 . S
C635 C637 1.327 . S
C635 H658 0.950 . S
C636 C635 1.349 . S
C636 C648 1.349 . S
C637 C635 1.327 . S
C637 C653 1.429 . S
C637 H659 0.950 . S
C638 H634 0.949 . S
C638 C646 1.574 . S
C638 C654 1.368 . S
H639 C647 0.950 . S
H640 C645 0.950 . S
H641 C646 0.949 . S
H642 C648 0.950 . S
H643 C649 0.950 . S
H644 C650 0.949 . S
C645 H640 0.950 . S
C645 C647 1.327 . S
C645 C651 1.429 . S
C646 C638 1.574 . S
C646 H641 0.949 . S
C646 C652 1.368 . S
C647 C631 1.349 . S
C647 H639 0.950 . S
C647 C645 1.327 . S
C648 C636 1.349 . S
C648 H642 0.950 . S
C648 C649 1.327 . S
C649 H643 0.950 . S
C649 C648 1.327 . S
C649 C653 1.429 . S
C650 C633 1.574 . S
C650 H644 0.949 . S
C650 C654 1.368 . S
C651 C632 1.429 . S
C651 C645 1.429 . S
C651 C652 1.523 . S
C652 C633 1.368 . S
C652 C646 1.368 . S
C652 C651 1.523 . S
C653 C637 1.429 . S
C653 C649 1.429 . S
C653 C654 1.523 . S
C654 C638 1.368 . S
C654 C650 1.368 . S
C654 C653 1.523 . S
H655 C630 0.950 . S
H656 C632 0.950 . S
H657 C633 0.949 . S
H658 C635 0.950 . S
H659 C637 0.950 . S
C660 C661 1.349 . S
C660 C662 1.327 . S
C660 H685 0.950 . S
C661 C660 1.349 . S
C661 C677 1.349 . S
C662 C660 1.327 . S
C662 C681 1.429 . S
C662 H686 0.950 . S
C663 C680 1.574 . S
C663 C682 1.368 . S
C663 H687 0.949 . S
H664 C668 0.949 . S
C665 C666 1.349 . S
C665 C667 1.327 . S
C665 H688 0.950 . S
C666 C665 1.349 . S
C666 C678 1.349 . S
C667 C665 1.327 . S
C667 C683 1.429 1_556 S
C667 H689 0.950 . S
C668 H664 0.949 . S
C668 C676 1.574 . S
C668 C684 1.368 . S
H669 C677 0.950 . S
H670 C675 0.950 . S
H671 C676 0.949 . S
H672 C678 0.950 1_554 S
H673 C679 0.950 . S
H674 C680 0.949 1_556 S
C675 H670 0.950 . S
C675 C677 1.327 . S
C675 C681 1.429 . S
C676 C668 1.574 . S
C676 H671 0.949 . S
C676 C682 1.368 . S
C677 C661 1.349 . S
C677 H669 0.950 . S
C677 C675 1.327 . S
C678 C666 1.349 . S
C678 H672 0.950 1_556 S
C678 C679 1.327 1_556 S
C679 H673 0.950 . S
C679 C678 1.327 1_554 S
C679 C683 1.429 . S
C680 C663 1.574 . S
C680 H674 0.949 1_554 S
C680 C684 1.368 . S
C681 C662 1.429 . S
C681 C675 1.429 . S
C681 C682 1.523 . S
C682 C663 1.368 . S
C682 C676 1.368 . S
C682 C681 1.523 . S
C683 C667 1.429 1_554 S
C683 C679 1.429 . S
C683 C684 1.523 . S
C684 C668 1.368 . S
C684 C680 1.368 . S
C684 C683 1.523 . S
H685 C660 0.950 . S
H686 C662 0.950 . S
H687 C663 0.949 . S
H688 C665 0.950 . S
H689 C667 0.950 . S
C690 C691 1.349 . S
C690 C692 1.327 . S
C690 H715 0.950 . S
C691 C690 1.349 . S
C691 C707 1.349 . S
C692 C690 1.327 . S
C692 C711 1.429 . S
C692 H716 0.950 . S
C693 C710 1.574 . S
C693 C712 1.368 . S
C693 H717 0.949 . S
H694 C698 0.949 . S
C695 C696 1.349 . S
C695 C697 1.327 . S
C695 H718 0.950 . S
C696 C695 1.349 . S
C696 C708 1.349 . S
C697 C695 1.327 . S
C697 C713 1.429 . S
C697 H719 0.950 . S
C698 H694 0.949 . S
C698 C706 1.574 . S
C698 C714 1.368 . S
H699 C707 0.950 . S
H700 C705 0.950 . S
H701 C706 0.949 . S
H702 C708 0.950 . S
H703 C709 0.950 . S
H704 C710 0.949 . S
C705 H700 0.950 . S
C705 C707 1.327 . S
C705 C711 1.429 . S
C706 C698 1.574 . S
C706 H701 0.949 . S
C706 C712 1.368 . S
C707 C691 1.349 . S
C707 H699 0.950 . S
C707 C705 1.327 . S
C708 C696 1.349 . S
C708 H702 0.950 . S
C708 C709 1.327 . S
C709 H703 0.950 . S
C709 C708 1.327 . S
C709 C713 1.429 . S
C710 C693 1.574 . S
C710 H704 0.949 . S
C710 C714 1.368 . S
C711 C692 1.429 . S
C711 C705 1.429 . S
C711 C712 1.523 . S
C712 C693 1.368 . S
C712 C706 1.368 . S
C712 C711 1.523 . S
C713 C697 1.429 . S
C713 C709 1.429 . S
C713 C714 1.523 . S
C714 C698 1.368 . S
C714 C710 1.368 . S
C714 C713 1.523 . S
H715 C690 0.950 . S
H716 C692 0.950 . S
H717 C693 0.949 . S
H718 C695 0.950 . S
H719 C697 0.950 . S
C720 C721 1.349 . S
C720 C722 1.327 . S
C720 H745 0.950 . S
C721 C720 1.349 . S
C721 C737 1.349 . S
C722 C720 1.327 . S
C722 C741 1.429 . S
C722 H746 0.950 . S
C723 C740 1.574 . S
C723 C742 1.368 . S
C723 H747 0.949 . S
H724 C728 0.949 . S
C725 C726 1.349 . S
C725 C727 1.327 . S
C725 H748 0.950 . S
C726 C725 1.349 . S
C726 C738 1.349 . S
C727 C725 1.327 . S
C727 C743 1.429 . S
C727 H749 0.950 . S
C728 H724 0.949 . S
C728 C736 1.574 . S
C728 C744 1.368 . S
H729 C737 0.950 . S
H730 C735 0.950 . S
H731 C736 0.949 . S
H732 C738 0.950 . S
H733 C739 0.950 . S
H734 C740 0.949 . S
C735 H730 0.950 . S
C735 C737 1.327 . S
C735 C741 1.429 . S
C736 C728 1.574 . S
C736 H731 0.949 . S
C736 C742 1.368 . S
C737 C721 1.349 . S
C737 H729 0.950 . S
C737 C735 1.327 . S
C738 C726 1.349 . S
C738 H732 0.950 . S
C738 C739 1.327 . S
C739 H733 0.950 . S
C739 C738 1.327 . S
C739 C743 1.429 . S
C740 C723 1.574 . S
C740 H734 0.949 . S
C740 C744 1.368 . S
C741 C722 1.429 . S
C741 C735 1.429 . S
C741 C742 1.523 . S
C742 C723 1.368 . S
C742 C736 1.368 . S
C742 C741 1.523 . S
C743 C727 1.429 . S
C743 C739 1.429 . S
C743 C744 1.523 . S
C744 C728 1.368 . S
C744 C740 1.368 . S
C744 C743 1.523 . S
H745 C720 0.950 . S
H746 C722 0.950 . S
H747 C723 0.949 . S
H748 C725 0.950 . S
H749 C727 0.950 . S
C750 C751 1.349 . S
C750 C752 1.327 . S
C750 H775 0.950 . S
C751 C750 1.349 . S
C751 C767 1.349 . S
C752 C750 1.327 . S
C752 C771 1.429 . S
C752 H776 0.950 . S
C753 C770 1.574 . S
C753 C772 1.368 . S
C753 H777 0.949 . S
H754 C758 0.949 . S
C755 C756 1.349 . S
C755 C757 1.327 . S
C755 H778 0.950 . S
C756 C755 1.349 . S
C756 C768 1.349 . S
C757 C755 1.327 . S
C757 C773 1.429 . S
C757 H779 0.950 . S
C758 H754 0.949 . S
C758 C766 1.574 . S
C758 C774 1.368 . S
H759 C767 0.950 . S
H760 C765 0.950 . S
H761 C766 0.949 . S
H762 C768 0.950 . S
H763 C769 0.950 . S
H764 C770 0.949 . S
C765 H760 0.950 . S
C765 C767 1.327 . S
C765 C771 1.429 . S
C766 C758 1.574 . S
C766 H761 0.949 . S
C766 C772 1.368 . S
C767 C751 1.349 . S
C767 H759 0.950 . S
C767 C765 1.327 . S
C768 C756 1.349 . S
C768 H762 0.950 . S
C768 C769 1.327 . S
C769 H763 0.950 . S
C769 C768 1.327 . S
C769 C773 1.429 . S
C770 C753 1.574 . S
C770 H764 0.949 . S
C770 C774 1.368 . S
C771 C752 1.429 . S
C771 C765 1.429 . S
C771 C772 1.523 . S
C772 C753 1.368 . S
C772 C766 1.368 . S
C772 C771 1.523 . S
C773 C757 1.429 . S
C773 C769 1.429 . S
C773 C774 1.523 . S
C774 C758 1.368 . S
C774 C770 1.368 . S
C774 C773 1.523 . S
H775 C750 0.950 . S
H776 C752 0.950 . S
H777 C753 0.949 . S
H778 C755 0.950 . S
H779 C757 0.950 . S
C241 C210 1.669 . S
C246 C10 1.669 . S
C271 C9 1.385 . S
C276 C49 1.385 . S
C301 C50 1.668 . S
C306 C90 1.668 . S
C331 C89 1.385 . S
C336 C129 1.385 1_556 S
C361 C170 1.668 . S
C366 C130 1.668 . S
C391 C209 1.386 . S
C396 C169 1.386 . S
C421 C6 1.061 . S
C426 C15 1.061 . S
C451 C55 1.061 . S
C456 C46 1.061 . S
C481 C86 1.061 . S
C486 C95 1.061 . S
C511 C135 1.061 . S
C516 C126 1.061 . S
C541 C175 1.061 . S
C546 C166 1.061 . S
C571 C215 1.061 . S
C576 C206 1.061 1_554 S
C601 C19 1.777 . S
C606 C178 1.799 . S
C631 C58 1.798 . S
C636 C219 1.777 . S
C661 C18 1.798 . S
C666 C99 1.777 . S
C691 C59 1.777 . S
C696 C138 1.799 . S
C721 C179 1.777 . S
C726 C98 1.798 . S
C751 C139 1.777 . S
C756 C218 1.798 . S
