# Generated by pormake.
# Topology snx, (6)-cn, num edge types: 1
# Building blocks:
#     Node 0, Type 0, BuildingBlock: OJICUG_clean_sbu_0, # of connection points: 6
#     Node 1, Type 0, BuildingBlock: OJICUG_clean_sbu_0, # of connection points: 6
#     Node 2, Type 0, BuildingBlock: OJICUG_clean_sbu_0, # of connection points: 6
#     Node 3, Type 0, BuildingBlock: OJICUG_clean_sbu_0, # of connection points: 6
#     Node 4, Type 0, BuildingBlock: OJICUG_clean_sbu_0, # of connection points: 6
#     Node 5, Type 0, BuildingBlock: OJICUG_clean_sbu_0, # of connection points: 6
#     Edge 6, Type (0, 0), BuildingBlock: OJICUG_clean_linker_0, # of connection points: 2
#     Edge 7, Type (0, 0), BuildingBlock: OJICUG_clean_linker_0, # of connection points: 2
#     Edge 8, Type (0, 0), BuildingBlock: OJICUG_clean_linker_0, # of connection points: 2
#     Edge 9, Type (0, 0), BuildingBlock: OJICUG_clean_linker_0, # of connection points: 2
#     Edge 10, Type (0, 0), BuildingBlock: OJICUG_clean_linker_0, # of connection points: 2
#     Edge 11, Type (0, 0), BuildingBlock: OJICUG_clean_linker_0, # of connection points: 2
#     Edge 12, Type (0, 0), BuildingBlock: OJICUG_clean_linker_0, # of connection points: 2
#     Edge 13, Type (0, 0), BuildingBlock: OJICUG_clean_linker_0, # of connection points: 2
#     Edge 14, Type (0, 0), BuildingBlock: OJICUG_clean_linker_0, # of connection points: 2
#     Edge 15, Type (0, 0), BuildingBlock: OJICUG_clean_linker_0, # of connection points: 2
#     Edge 16, Type (0, 0), BuildingBlock: OJICUG_clean_linker_0, # of connection points: 2
#     Edge 17, Type (0, 0), BuildingBlock: OJICUG_clean_linker_0, # of connection points: 2
#     Edge 18, Type (0, 0), BuildingBlock: OJICUG_clean_linker_0, # of connection points: 2
#     Edge 19, Type (0, 0), BuildingBlock: OJICUG_clean_linker_0, # of connection points: 2
#     Edge 20, Type (0, 0), BuildingBlock: OJICUG_clean_linker_0, # of connection points: 2
#     Edge 21, Type (0, 0), BuildingBlock: OJICUG_clean_linker_0, # of connection points: 2
#     Edge 22, Type (0, 0), BuildingBlock: OJICUG_clean_linker_0, # of connection points: 2
#     Edge 23, Type (0, 0), BuildingBlock: OJICUG_clean_linker_0, # of connection points: 2
# Relax obj value: 0.060
# Max RMSD: 0.112
# Mean RMSD: 0.112
data_MOF--net-snx--node1-OJICUG_clean_sbu_0--edge1-OJICUG_clean_linker_0
_symmetry_space_group_name_H-M    P1
_symmetry_Int_Tables_number       1
_symmetry_cell_setting            triclinic
loop_
_symmetry_equiv_pos_as_xyz
'x, y, z'
_cell_length_a     28.982534
_cell_length_b     29.07653
_cell_length_c     16.352587
_cell_angle_alpha  89.959294
_cell_angle_beta   89.859377
_cell_angle_gamma 119.92912
loop_
_atom_site_label
_atom_site_type_symbol
_atom_site_fract_x
_atom_site_fract_y
_atom_site_fract_z
_atom_type_partial_charge
Sc0 Sc 0.20059 0.41295 0.12412 0.0
Sc1 Sc 0.19825 0.41109 0.34059 0.0
Sc2 Sc 0.13885 0.29124 0.23071 0.0
O3 O 0.17932 0.37189 0.23181 0.0
C4 C 0.08347 0.31855 0.08517 0.0
C5 C 0.16674 0.48296 0.23253 0.0
C6 C 0.08145 0.31476 0.37811 0.0
C7 C 0.30314 0.48292 0.23487 0.0
C8 C 0.22154 0.3177 0.08413 0.0
C9 C 0.21965 0.31523 0.37721 0.0
O10 O 0.12307 0.36422 0.07029 0.0
O11 O 0.1728 0.46573 0.30093 0.0
O12 O 0.08334 0.28509 0.32289 0.0
O13 O 0.28046 0.46684 0.16587 0.0
O14 O 0.19038 0.28732 0.13943 0.0
O15 O 0.22736 0.36152 0.39198 0.0
O16 O 0.22924 0.36405 0.07063 0.0
O17 O 0.2786 0.46585 0.30248 0.0
O18 O 0.18896 0.28571 0.3212 0.0
O19 O 0.17476 0.46705 0.16433 0.0
O20 O 0.08335 0.2882 0.14113 0.0
O21 O 0.11935 0.3616 0.39147 0.0
Sc22 Sc 0.84384 0.1427 0.73927 0.0
Sc23 Sc 0.78035 0.19964 0.63062 0.0
Sc24 Sc 0.77748 0.19726 0.84615 0.0
O25 O 0.80034 0.17982 0.7385 0.0
C26 C 0.76255 0.085 0.8879 0.0
C27 C 0.76219 0.08278 0.59672 0.0
C28 C 0.67504 0.16501 0.73412 0.0
C29 C 0.89643 0.22189 0.5881 0.0
C30 C 0.89709 0.22416 0.88273 0.0
C31 C 0.81018 0.30161 0.74221 0.0
O32 O 0.80027 0.09154 0.84066 0.0
O33 O 0.75681 0.12244 0.57794 0.0
O34 O 0.69886 0.17509 0.80258 0.0
O35 O 0.89386 0.18769 0.63883 0.0
O36 O 0.8538 0.22222 0.90375 0.0
O37 O 0.80081 0.27783 0.67362 0.0
O38 O 0.90139 0.20089 0.81997 0.0
O39 O 0.86014 0.23399 0.58128 0.0
O40 O 0.80618 0.27845 0.81014 0.0
O41 O 0.79021 0.08279 0.6565 0.0
O42 O 0.74546 0.11755 0.89173 0.0
O43 O 0.69862 0.16918 0.66656 0.0
Sc44 Sc 0.69339 0.84092 0.24283 0.0
Sc45 Sc 0.57324 0.78458 0.13312 0.0
Sc46 Sc 0.57149 0.78413 0.34895 0.0
O47 O 0.61258 0.80326 0.24154 0.0
C48 C 0.66531 0.75921 0.38784 0.0
C49 C 0.66734 0.76176 0.09268 0.0
C50 C 0.50078 0.68102 0.24165 0.0
C51 C 0.6721 0.90103 0.09858 0.0
C52 C 0.66828 0.89762 0.39044 0.0
C53 C 0.50148 0.8173 0.23821 0.0
O54 O 0.69383 0.78438 0.32666 0.0
O55 O 0.61967 0.75159 0.08286 0.0
O56 O 0.51903 0.70324 0.31043 0.0
O57 O 0.70048 0.90018 0.15712 0.0
O58 O 0.6191 0.8634 0.39672 0.0
O59 O 0.52101 0.81378 0.17032 0.0
O60 O 0.69968 0.89278 0.34143 0.0
O61 O 0.62628 0.86216 0.08149 0.0
O62 O 0.51531 0.80683 0.3063 0.0
O63 O 0.69833 0.79445 0.14543 0.0
O64 O 0.62229 0.75849 0.40651 0.0
O65 O 0.51593 0.70583 0.1739 0.0
Sc66 Sc 0.83884 0.69077 0.73829 0.0
Sc67 Sc 0.78033 0.57102 0.63112 0.0
Sc68 Sc 0.77724 0.57097 0.84652 0.0
O69 O 0.79866 0.61062 0.73867 0.0
C70 C 0.89577 0.66645 0.88109 0.0
C71 C 0.89431 0.66551 0.58931 0.0
C72 C 0.81083 0.49975 0.74396 0.0
C73 C 0.75762 0.66661 0.59562 0.0
C74 C 0.75834 0.66583 0.88769 0.0
C75 C 0.67534 0.50015 0.73412 0.0
O76 O 0.89901 0.69283 0.81714 0.0
O77 O 0.86106 0.61613 0.58617 0.0
O78 O 0.80874 0.52026 0.8117 0.0
O79 O 0.78076 0.69297 0.65943 0.0
O80 O 0.74205 0.61643 0.89128 0.0
O81 O 0.69812 0.52074 0.66637 0.0
O82 O 0.79606 0.69726 0.84102 0.0
O83 O 0.75862 0.62499 0.57388 0.0
O84 O 0.69971 0.513 0.80222 0.0
O85 O 0.88807 0.69705 0.63553 0.0
O86 O 0.85314 0.62482 0.90316 0.0
O87 O 0.79948 0.51287 0.67589 0.0
Sc88 Sc 0.13443 0.84067 0.23365 0.0
Sc89 Sc 0.1981 0.78343 0.34185 0.0
Sc90 Sc 0.19976 0.78489 0.12588 0.0
O91 O 0.17761 0.80305 0.23389 0.0
C92 C 0.08095 0.75985 0.08774 0.0
C93 C 0.08108 0.76056 0.38309 0.0
C94 C 0.16705 0.68085 0.23187 0.0
C95 C 0.21591 0.89955 0.3782 0.0
C96 C 0.21637 0.89874 0.08624 0.0
C97 C 0.30284 0.81717 0.23601 0.0
O98 O 0.07778 0.78515 0.1487 0.0
O99 O 0.11878 0.75071 0.39309 0.0
O100 O 0.17192 0.70397 0.16354 0.0
O101 O 0.1861 0.89883 0.32069 0.0
O102 O 0.23076 0.86422 0.07844 0.0
O103 O 0.27939 0.81226 0.30403 0.0
O104 O 0.1806 0.8938 0.13639 0.0
O105 O 0.22342 0.86089 0.3941 0.0
O106 O 0.27888 0.808 0.1678 0.0
O107 O 0.08258 0.79308 0.33003 0.0
O108 O 0.12312 0.75889 0.06911 0.0
O109 O 0.17592 0.70475 0.30019 0.0
Sc110 Sc 0.2853 0.1424 0.73203 0.0
Sc111 Sc 0.40614 0.19827 0.83933 0.0
Sc112 Sc 0.40652 0.19904 0.62354 0.0
O113 O 0.3661 0.17985 0.73148 0.0
C114 C 0.30773 0.08291 0.58807 0.0
C115 C 0.30901 0.08464 0.87967 0.0
C116 C 0.47691 0.1654 0.72957 0.0
C117 C 0.31243 0.22341 0.87734 0.0
C118 C 0.31284 0.22214 0.58205 0.0
C119 C 0.47793 0.30193 0.73299 0.0
O120 O 0.2788 0.08363 0.64611 0.0
O121 O 0.35808 0.11891 0.88654 0.0
O122 O 0.4583 0.16949 0.6613 0.0
O123 O 0.28432 0.19869 0.81588 0.0
O124 O 0.36059 0.23238 0.5727 0.0
O125 O 0.45888 0.2792 0.80138 0.0
O126 O 0.28133 0.18929 0.63448 0.0
O127 O 0.35512 0.22373 0.89643 0.0
O128 O 0.4636 0.27763 0.66491 0.0
O129 O 0.27806 0.08981 0.83034 0.0
O130 O 0.35381 0.12166 0.57145 0.0
O131 O 0.46238 0.17557 0.79734 0.0
C132 C 0.15357 0.55129 0.30612 0.0
C133 C 0.15605 0.52786 0.23227 0.0
H134 H 0.15442 0.61755 0.36406 0.0
C135 C 0.15434 0.55158 0.15813 0.0
H136 H 0.15424 0.53394 0.36442 0.0
C137 C 0.15447 0.59972 0.1579 0.0
C138 C 0.15634 0.6253 0.2318 0.0
H139 H 0.15561 0.53442 0.09999 0.0
H140 H 0.15588 0.61812 0.09963 0.0
C141 C 0.15372 0.59943 0.30589 0.0
C142 C 0.59436 0.15247 0.65785 0.0
C143 C 0.61924 0.15416 0.73249 0.0
H144 H 0.52963 0.15419 0.59811 0.0
C145 C 0.59257 0.15154 0.80581 0.0
H146 H 0.61345 0.15396 0.6001 0.0
C147 C 0.54443 0.15163 0.80463 0.0
C148 C 0.52173 0.15437 0.73012 0.0
H149 H 0.61011 0.15208 0.86447 0.0
H150 H 0.52644 0.1522 0.86248 0.0
C151 C 0.54616 0.1526 0.65667 0.0
C152 C 0.38555 0.55229 0.16374 0.0
C153 C 0.35876 0.52791 0.23677 0.0
H154 H 0.45164 0.61927 0.10788 0.0
C155 C 0.38331 0.55077 0.31169 0.0
H156 H 0.36823 0.53563 0.10489 0.0
C157 C 0.43131 0.59898 0.31345 0.0
C158 C 0.4559 0.62546 0.24034 0.0
H159 H 0.36418 0.53289 0.36926 0.0
H160 H 0.4476 0.61672 0.37224 0.0
C161 C 0.43352 0.60045 0.1655 0.0
C162 C 0.82418 0.43171 0.67032 0.0
C163 C 0.82116 0.45462 0.74446 0.0
H164 H 0.8238 0.36599 0.61134 0.0
C165 C 0.82209 0.43026 0.81828 0.0
H166 H 0.82427 0.44966 0.61221 0.0
C167 C 0.82184 0.38201 0.81775 0.0
C168 C 0.82065 0.35707 0.74339 0.0
H169 H 0.82016 0.44692 0.87655 0.0
H170 H 0.81982 0.36304 0.87571 0.0
C171 C 0.82392 0.38356 0.66979 0.0
C172 C 0.43316 0.83023 0.16331 0.0
C173 C 0.45638 0.82797 0.23753 0.0
H174 H 0.36686 0.82921 0.10443 0.0
C175 C 0.43227 0.82994 0.31126 0.0
H176 H 0.45075 0.82925 0.10529 0.0
C177 C 0.38403 0.82996 0.31078 0.0
C178 C 0.35864 0.82791 0.23657 0.0
H179 H 0.44925 0.82887 0.36966 0.0
H180 H 0.36539 0.82881 0.36882 0.0
C181 C 0.38486 0.83015 0.16283 0.0
C182 C 0.59486 0.43136 0.65916 0.0
C183 C 0.61981 0.45509 0.7333 0.0
H184 H 0.53024 0.36467 0.60073 0.0
C185 C 0.59351 0.43157 0.80713 0.0
H186 H 0.61368 0.44852 0.60109 0.0
C187 C 0.54556 0.38338 0.80697 0.0
C188 C 0.52279 0.35748 0.73297 0.0
H189 H 0.61117 0.44904 0.86546 0.0
H190 H 0.52786 0.36522 0.86514 0.0
C191 C 0.54693 0.38308 0.65899 0.0
C192 C 0.29323 0.24575 0.01583 0.0
C193 C 0.29321 0.25118 0.93054 0.0
H194 H 0.26919 0.26183 0.13153 0.0
C195 C 0.27191 0.28087 0.89633 0.0
H196 H 0.30914 0.22271 0.04343 0.0
C197 C 0.2506 0.30452 0.94668 0.0
C198 C 0.24861 0.29722 0.03174 0.0
H199 H 0.27156 0.28556 0.83063 0.0
H200 H 0.23384 0.32677 0.91898 0.0
C201 C 0.27026 0.26785 0.06599 0.0
C202 C 0.9638 0.21555 0.50231 0.0
C203 C 0.94294 0.24652 0.53288 0.0
H204 H 0.02333 0.21286 0.4285 0.0
C205 C 0.96767 0.30056 0.51184 0.0
H206 H 0.94534 0.17374 0.51736 0.0
C207 C 0.01342 0.32343 0.46237 0.0
C208 C 0.03387 0.29209 0.43132 0.0
H209 H 0.95237 0.32525 0.53508 0.0
H210 H 0.03235 0.36528 0.44753 0.0
C211 C 0.0083 0.2379 0.45125 0.0
C212 C 0.68416 0.0113 0.96041 0.0
C213 C 0.73889 0.03824 0.94233 0.0
H214 H 0.61967 0.94562 0.02301 0.0
C215 C 0.7713 0.02016 0.97672 0.0
H216 H 0.65835 0.02447 0.93441 0.0
C217 C 0.74957 0.97623 0.02883 0.0
C218 C 0.69472 0.94858 0.04575 0.0
H219 H 0.81367 0.04044 0.96412 0.0
H220 H 0.77557 0.96323 0.05463 0.0
C221 C 0.66207 0.96625 0.01072 0.0
C222 C 0.68052 0.73308 0.52646 0.0
C223 C 0.6846 0.73143 0.44107 0.0
H224 H 0.70161 0.71463 0.64264 0.0
C225 C 0.71039 0.70591 0.40691 0.0
H226 H 0.66112 0.75286 0.55419 0.0
C227 C 0.73231 0.68295 0.45729 0.0
C228 C 0.73025 0.68657 0.5427 0.0
H229 H 0.71395 0.70407 0.34117 0.0
H230 H 0.75261 0.66411 0.42944 0.0
C231 C 0.70389 0.71154 0.5769 0.0
C232 C 0.93752 0.68346 0.01927 0.0
C233 C 0.94313 0.68652 0.93383 0.0
H234 H 0.97715 0.7053 0.13512 0.0
C235 C -0.00556 0.71122 0.89934 0.0
H236 H 0.89839 0.66485 0.04732 0.0
C237 C 0.03943 0.73306 0.94952 0.0
C238 C 0.03378 0.73198 0.0349 0.0
H239 H -0.00025 0.71389 0.83355 0.0
H240 H 0.07859 0.75259 0.92155 0.0
C241 C 0.98247 0.70672 0.06937 0.0
C242 C 0.31594 0.01393 0.50761 0.0
C243 C 0.28507 0.0359 0.53471 0.0
H244 H 0.31753 0.952 0.43799 0.0
C245 C 0.23178 0.01285 0.5099 0.0
H246 H 0.35713 0.03109 0.52618 0.0
C247 C 0.20985 0.96906 0.45788 0.0
C248 C 0.24027 0.94645 0.43176 0.0
H249 H 0.20731 0.02932 0.52963 0.0
H250 H 0.16873 0.95228 0.43912 0.0
C251 C 0.29336 0.96882 0.4576 0.0
C252 C 0.74346 0.76423 0.01867 0.0
C253 C 0.68918 0.73625 0.03936 0.0
H254 H 0.80741 0.7639 0.95413 0.0
C255 C 0.65729 0.68422 0.01035 0.0
H256 H 0.76895 0.80446 0.0399 0.0
C257 C 0.67976 0.66039 0.96235 0.0
C258 C 0.73401 0.6889 0.94101 0.0
H259 H 0.61538 0.66175 0.0259 0.0
H260 H 0.65463 0.6202 0.94077 0.0
C261 C 0.76545 0.74105 0.96938 0.0
C262 C 0.96714 0.65957 0.51449 0.0
C263 C 0.94178 0.68838 0.53592 0.0
H264 H 0.03254 0.66046 0.45047 0.0
C265 C 0.96288 0.74062 0.50741 0.0
H266 H 0.95177 0.6193 0.53618 0.0
C267 C 0.008 0.76355 0.45782 0.0
C268 C 0.03387 0.73525 0.43692 0.0
H269 H 0.9441 0.76371 0.52272 0.0
H270 H 0.02303 0.80385 0.43646 0.0
C271 C 0.0134 0.68316 0.46616 0.0
C272 C 0.2939 0.96876 0.00676 0.0
C273 C 0.2408 0.9462 0.03324 0.0
H274 H 0.35774 0.03138 0.93844 0.0
C275 C 0.21066 0.96948 0.00887 0.0
H276 H 0.31801 0.95162 0.02499 0.0
C277 C 0.23287 0.01409 0.9583 0.0
C278 C 0.28611 0.03717 0.93262 0.0
H279 H 0.16954 0.95275 0.028 0.0
H280 H 0.20851 0.03098 0.9402 0.0
C281 C 0.31663 0.0144 0.95773 0.0
C282 C 0.32015 0.30119 0.50768 0.0
C283 C 0.29112 0.24696 0.52755 0.0
H284 H 0.31947 0.36618 0.44571 0.0
C285 C 0.23922 0.21593 0.49758 0.0
H286 H 0.36016 0.32587 0.5307 0.0
C287 C 0.21664 0.23842 0.44826 0.0
C288 C 0.24492 0.29278 0.42948 0.0
H289 H 0.21611 0.17399 0.51194 0.0
H290 H 0.17652 0.21332 0.42587 0.0
C291 C 0.29682 0.3242 0.45986 0.0
C292 C -0.005 0.28283 0.89976 0.0
C293 C 0.94424 0.25275 0.93507 0.0
H294 H 0.07915 0.32875 0.92044 0.0
C295 C 0.93935 0.24726 0.02038 0.0
H296 H -0.0004 0.28761 0.834 0.0
C297 C 0.98479 0.26941 0.06942 0.0
C298 C 0.03561 0.2988 0.03402 0.0
H299 H 0.9006 0.22394 0.0488 0.0
H300 H 0.98029 0.2632 0.13497 0.0
C301 C 0.04033 0.30644 0.94902 0.0
C302 C 0.74166 0.96288 0.4781 0.0
C303 C 0.691 0.94443 0.44424 0.0
H304 H 0.80324 0.02055 0.55421 0.0
C305 C 0.66325 0.97148 0.46129 0.0
H306 H 0.76372 0.94253 0.46613 0.0
C307 C 0.68653 0.01713 0.5101 0.0
C308 C 0.73705 0.03514 0.54458 0.0
H309 H 0.62417 0.95801 0.4355 0.0
H310 H 0.66486 0.03789 0.52177 0.0
C311 C 0.76413 0.00732 0.52871 0.0
loop_
_geom_bond_atom_site_label_1
_geom_bond_atom_site_label_2
_geom_bond_distance
_geom_bond_site_symmetry_2
_ccdc_geom_bond_type
Sc0 O3 2.025 . S
Sc0 O10 2.105 . S
Sc0 O13 2.105 . S
Sc0 O16 2.105 . S
Sc0 O19 2.105 . S
Sc1 O3 2.025 . S
Sc1 O11 2.105 . S
Sc1 O15 2.105 . S
Sc1 O17 2.105 . S
Sc1 O21 2.105 . S
Sc2 O3 2.025 . S
Sc2 O12 2.105 . S
Sc2 O14 2.105 . S
Sc2 O18 2.105 . S
Sc2 O20 2.105 . S
O3 Sc0 2.025 . S
O3 Sc1 2.025 . S
O3 Sc2 2.025 . S
C4 O10 1.268 . S
C4 O20 1.268 . S
C5 O11 1.268 . S
C5 O19 1.268 . S
C6 O12 1.268 . S
C6 O21 1.268 . S
C7 O13 1.268 . S
C7 O17 1.268 . S
C8 O14 1.268 . S
C8 O16 1.268 . S
C9 O15 1.268 . S
C9 O18 1.268 . S
O10 Sc0 2.105 . S
O10 C4 1.268 . S
O11 Sc1 2.105 . S
O11 C5 1.268 . S
O12 Sc2 2.105 . S
O12 C6 1.268 . S
O13 Sc0 2.105 . S
O13 C7 1.268 . S
O14 Sc2 2.105 . S
O14 C8 1.268 . S
O15 Sc1 2.105 . S
O15 C9 1.268 . S
O16 Sc0 2.105 . S
O16 C8 1.268 . S
O17 Sc1 2.105 . S
O17 C7 1.268 . S
O18 Sc2 2.105 . S
O18 C9 1.268 . S
O19 Sc0 2.105 . S
O19 C5 1.268 . S
O20 Sc2 2.105 . S
O20 C4 1.268 . S
O21 Sc1 2.105 . S
O21 C6 1.268 . S
Sc22 O25 2.025 . S
Sc22 O32 2.105 . S
Sc22 O35 2.105 . S
Sc22 O38 2.105 . S
Sc22 O41 2.105 . S
Sc23 O25 2.025 . S
Sc23 O33 2.105 . S
Sc23 O37 2.105 . S
Sc23 O39 2.105 . S
Sc23 O43 2.105 . S
Sc24 O25 2.025 . S
Sc24 O34 2.105 . S
Sc24 O36 2.105 . S
Sc24 O40 2.105 . S
Sc24 O42 2.105 . S
O25 Sc22 2.025 . S
O25 Sc23 2.025 . S
O25 Sc24 2.025 . S
C26 O32 1.268 . S
C26 O42 1.268 . S
C27 O33 1.268 . S
C27 O41 1.268 . S
C28 O34 1.268 . S
C28 O43 1.268 . S
C29 O35 1.268 . S
C29 O39 1.268 . S
C30 O36 1.268 . S
C30 O38 1.268 . S
C31 O37 1.268 . S
C31 O40 1.268 . S
O32 Sc22 2.105 . S
O32 C26 1.268 . S
O33 Sc23 2.105 . S
O33 C27 1.268 . S
O34 Sc24 2.105 . S
O34 C28 1.268 . S
O35 Sc22 2.105 . S
O35 C29 1.268 . S
O36 Sc24 2.105 . S
O36 C30 1.268 . S
O37 Sc23 2.105 . S
O37 C31 1.268 . S
O38 Sc22 2.105 . S
O38 C30 1.268 . S
O39 Sc23 2.105 . S
O39 C29 1.268 . S
O40 Sc24 2.105 . S
O40 C31 1.268 . S
O41 Sc22 2.105 . S
O41 C27 1.268 . S
O42 Sc24 2.105 . S
O42 C26 1.268 . S
O43 Sc23 2.105 . S
O43 C28 1.268 . S
Sc44 O47 2.025 . S
Sc44 O54 2.105 . S
Sc44 O57 2.105 . S
Sc44 O60 2.105 . S
Sc44 O63 2.105 . S
Sc45 O47 2.025 . S
Sc45 O55 2.105 . S
Sc45 O59 2.105 . S
Sc45 O61 2.105 . S
Sc45 O65 2.105 . S
Sc46 O47 2.025 . S
Sc46 O56 2.105 . S
Sc46 O58 2.105 . S
Sc46 O62 2.105 . S
Sc46 O64 2.105 . S
O47 Sc44 2.025 . S
O47 Sc45 2.025 . S
O47 Sc46 2.025 . S
C48 O54 1.268 . S
C48 O64 1.268 . S
C49 O55 1.268 . S
C49 O63 1.268 . S
C50 O56 1.268 . S
C50 O65 1.268 . S
C51 O57 1.268 . S
C51 O61 1.268 . S
C52 O58 1.268 . S
C52 O60 1.268 . S
C53 O59 1.268 . S
C53 O62 1.268 . S
O54 Sc44 2.105 . S
O54 C48 1.268 . S
O55 Sc45 2.105 . S
O55 C49 1.268 . S
O56 Sc46 2.105 . S
O56 C50 1.268 . S
O57 Sc44 2.105 . S
O57 C51 1.268 . S
O58 Sc46 2.105 . S
O58 C52 1.268 . S
O59 Sc45 2.105 . S
O59 C53 1.268 . S
O60 Sc44 2.105 . S
O60 C52 1.268 . S
O61 Sc45 2.105 . S
O61 C51 1.268 . S
O62 Sc46 2.105 . S
O62 C53 1.268 . S
O63 Sc44 2.105 . S
O63 C49 1.268 . S
O64 Sc46 2.105 . S
O64 C48 1.268 . S
O65 Sc45 2.105 . S
O65 C50 1.268 . S
Sc66 O69 2.025 . S
Sc66 O76 2.105 . S
Sc66 O79 2.105 . S
Sc66 O82 2.105 . S
Sc66 O85 2.105 . S
Sc67 O69 2.025 . S
Sc67 O77 2.105 . S
Sc67 O81 2.105 . S
Sc67 O83 2.105 . S
Sc67 O87 2.105 . S
Sc68 O69 2.025 . S
Sc68 O78 2.105 . S
Sc68 O80 2.105 . S
Sc68 O84 2.105 . S
Sc68 O86 2.105 . S
O69 Sc66 2.025 . S
O69 Sc67 2.025 . S
O69 Sc68 2.025 . S
C70 O76 1.268 . S
C70 O86 1.268 . S
C71 O77 1.268 . S
C71 O85 1.268 . S
C72 O78 1.268 . S
C72 O87 1.268 . S
C73 O79 1.268 . S
C73 O83 1.268 . S
C74 O80 1.268 . S
C74 O82 1.268 . S
C75 O81 1.268 . S
C75 O84 1.268 . S
O76 Sc66 2.105 . S
O76 C70 1.268 . S
O77 Sc67 2.105 . S
O77 C71 1.268 . S
O78 Sc68 2.105 . S
O78 C72 1.268 . S
O79 Sc66 2.105 . S
O79 C73 1.268 . S
O80 Sc68 2.105 . S
O80 C74 1.268 . S
O81 Sc67 2.105 . S
O81 C75 1.268 . S
O82 Sc66 2.105 . S
O82 C74 1.268 . S
O83 Sc67 2.105 . S
O83 C73 1.268 . S
O84 Sc68 2.105 . S
O84 C75 1.268 . S
O85 Sc66 2.105 . S
O85 C71 1.268 . S
O86 Sc68 2.105 . S
O86 C70 1.268 . S
O87 Sc67 2.105 . S
O87 C72 1.268 . S
Sc88 O91 2.025 . S
Sc88 O98 2.105 . S
Sc88 O101 2.105 . S
Sc88 O104 2.105 . S
Sc88 O107 2.105 . S
Sc89 O91 2.025 . S
Sc89 O99 2.105 . S
Sc89 O103 2.105 . S
Sc89 O105 2.105 . S
Sc89 O109 2.105 . S
Sc90 O91 2.025 . S
Sc90 O100 2.105 . S
Sc90 O102 2.105 . S
Sc90 O106 2.105 . S
Sc90 O108 2.105 . S
O91 Sc88 2.025 . S
O91 Sc89 2.025 . S
O91 Sc90 2.025 . S
C92 O98 1.268 . S
C92 O108 1.268 . S
C93 O99 1.268 . S
C93 O107 1.268 . S
C94 O100 1.268 . S
C94 O109 1.268 . S
C95 O101 1.268 . S
C95 O105 1.268 . S
C96 O102 1.268 . S
C96 O104 1.268 . S
C97 O103 1.268 . S
C97 O106 1.268 . S
O98 Sc88 2.105 . S
O98 C92 1.268 . S
O99 Sc89 2.105 . S
O99 C93 1.268 . S
O100 Sc90 2.105 . S
O100 C94 1.268 . S
O101 Sc88 2.105 . S
O101 C95 1.268 . S
O102 Sc90 2.105 . S
O102 C96 1.268 . S
O103 Sc89 2.105 . S
O103 C97 1.268 . S
O104 Sc88 2.105 . S
O104 C96 1.268 . S
O105 Sc89 2.105 . S
O105 C95 1.268 . S
O106 Sc90 2.105 . S
O106 C97 1.268 . S
O107 Sc88 2.105 . S
O107 C93 1.268 . S
O108 Sc90 2.105 . S
O108 C92 1.268 . S
O109 Sc89 2.105 . S
O109 C94 1.268 . S
Sc110 O113 2.025 . S
Sc110 O120 2.105 . S
Sc110 O123 2.105 . S
Sc110 O126 2.105 . S
Sc110 O129 2.105 . S
Sc111 O113 2.025 . S
Sc111 O121 2.105 . S
Sc111 O125 2.105 . S
Sc111 O127 2.105 . S
Sc111 O131 2.105 . S
Sc112 O113 2.025 . S
Sc112 O122 2.105 . S
Sc112 O124 2.105 . S
Sc112 O128 2.105 . S
Sc112 O130 2.105 . S
O113 Sc110 2.025 . S
O113 Sc111 2.025 . S
O113 Sc112 2.025 . S
C114 O120 1.268 . S
C114 O130 1.268 . S
C115 O121 1.268 . S
C115 O129 1.268 . S
C116 O122 1.268 . S
C116 O131 1.268 . S
C117 O123 1.268 . S
C117 O127 1.268 . S
C118 O124 1.268 . S
C118 O126 1.268 . S
C119 O125 1.268 . S
C119 O128 1.268 . S
O120 Sc110 2.105 . S
O120 C114 1.268 . S
O121 Sc111 2.105 . S
O121 C115 1.268 . S
O122 Sc112 2.105 . S
O122 C116 1.268 . S
O123 Sc110 2.105 . S
O123 C117 1.268 . S
O124 Sc112 2.105 . S
O124 C118 1.268 . S
O125 Sc111 2.105 . S
O125 C119 1.268 . S
O126 Sc110 2.105 . S
O126 C118 1.268 . S
O127 Sc111 2.105 . S
O127 C117 1.268 . S
O128 Sc112 2.105 . S
O128 C119 1.268 . S
O129 Sc110 2.105 . S
O129 C115 1.268 . S
O130 Sc112 2.105 . S
O130 C114 1.268 . S
O131 Sc111 2.105 . S
O131 C116 1.268 . S
C132 C133 1.387 . S
C132 H136 0.950 . S
C132 C141 1.390 . S
C133 C132 1.387 . S
C133 C135 1.387 . S
H134 C141 0.950 . S
C135 C133 1.387 . S
C135 C137 1.390 . S
C135 H139 0.950 . S
H136 C132 0.950 . S
C137 C135 1.390 . S
C137 C138 1.387 . S
C137 H140 0.950 . S
C138 C137 1.387 . S
C138 C141 1.387 . S
H139 C135 0.950 . S
H140 C137 0.950 . S
C141 C132 1.390 . S
C141 H134 0.950 . S
C141 C138 1.387 . S
C142 C143 1.387 . S
C142 H146 0.950 . S
C142 C151 1.390 . S
C143 C142 1.387 . S
C143 C145 1.387 . S
H144 C151 0.950 . S
C145 C143 1.387 . S
C145 C147 1.390 . S
C145 H149 0.950 . S
H146 C142 0.950 . S
C147 C145 1.390 . S
C147 C148 1.387 . S
C147 H150 0.950 . S
C148 C147 1.387 . S
C148 C151 1.387 . S
H149 C145 0.950 . S
H150 C147 0.950 . S
C151 C142 1.390 . S
C151 H144 0.950 . S
C151 C148 1.387 . S
C152 C153 1.387 . S
C152 H156 0.950 . S
C152 C161 1.390 . S
C153 C152 1.387 . S
C153 C155 1.387 . S
H154 C161 0.950 . S
C155 C153 1.387 . S
C155 C157 1.390 . S
C155 H159 0.950 . S
H156 C152 0.950 . S
C157 C155 1.390 . S
C157 C158 1.387 . S
C157 H160 0.950 . S
C158 C157 1.387 . S
C158 C161 1.387 . S
H159 C155 0.950 . S
H160 C157 0.950 . S
C161 C152 1.390 . S
C161 H154 0.950 . S
C161 C158 1.387 . S
C162 C163 1.387 . S
C162 H166 0.950 . S
C162 C171 1.390 . S
C163 C162 1.387 . S
C163 C165 1.387 . S
H164 C171 0.950 . S
C165 C163 1.387 . S
C165 C167 1.390 . S
C165 H169 0.950 . S
H166 C162 0.950 . S
C167 C165 1.390 . S
C167 C168 1.387 . S
C167 H170 0.950 . S
C168 C167 1.387 . S
C168 C171 1.387 . S
H169 C165 0.950 . S
H170 C167 0.950 . S
C171 C162 1.390 . S
C171 H164 0.950 . S
C171 C168 1.387 . S
C172 C173 1.387 . S
C172 H176 0.950 . S
C172 C181 1.390 . S
C173 C172 1.387 . S
C173 C175 1.387 . S
H174 C181 0.950 . S
C175 C173 1.387 . S
C175 C177 1.390 . S
C175 H179 0.950 . S
H176 C172 0.950 . S
C177 C175 1.390 . S
C177 C178 1.387 . S
C177 H180 0.950 . S
C178 C177 1.387 . S
C178 C181 1.387 . S
H179 C175 0.950 . S
H180 C177 0.950 . S
C181 C172 1.390 . S
C181 H174 0.950 . S
C181 C178 1.387 . S
C182 C183 1.387 . S
C182 H186 0.950 . S
C182 C191 1.390 . S
C183 C182 1.387 . S
C183 C185 1.387 . S
H184 C191 0.950 . S
C185 C183 1.387 . S
C185 C187 1.390 . S
C185 H189 0.950 . S
H186 C182 0.950 . S
C187 C185 1.390 . S
C187 C188 1.387 . S
C187 H190 0.950 . S
C188 C187 1.387 . S
C188 C191 1.387 . S
H189 C185 0.950 . S
H190 C187 0.950 . S
C191 C182 1.390 . S
C191 H184 0.950 . S
C191 C188 1.387 . S
C192 C193 1.387 1_554 S
C192 H196 0.950 . S
C192 C201 1.390 . S
C193 C192 1.387 1_556 S
C193 C195 1.387 . S
H194 C201 0.950 . S
C195 C193 1.387 . S
C195 C197 1.390 . S
C195 H199 0.950 . S
H196 C192 0.950 . S
C197 C195 1.390 . S
C197 C198 1.387 1_556 S
C197 H200 0.950 . S
C198 C197 1.387 1_554 S
C198 C201 1.387 . S
H199 C195 0.950 . S
H200 C197 0.950 . S
C201 C192 1.390 . S
C201 H194 0.950 . S
C201 C198 1.387 . S
C202 C203 1.387 . S
C202 H206 0.950 . S
C202 C211 1.390 1_655 S
C203 C202 1.387 . S
C203 C205 1.387 . S
H204 C211 0.950 . S
C205 C203 1.387 . S
C205 C207 1.390 1_655 S
C205 H209 0.950 . S
H206 C202 0.950 . S
C207 C205 1.390 1_455 S
C207 C208 1.387 . S
C207 H210 0.950 . S
C208 C207 1.387 . S
C208 C211 1.387 . S
H209 C205 0.950 . S
H210 C207 0.950 . S
C211 C202 1.390 1_455 S
C211 H204 0.950 . S
C211 C208 1.387 . S
C212 C213 1.387 . S
C212 H216 0.950 . S
C212 C221 1.390 1_546 S
C213 C212 1.387 . S
C213 C215 1.387 . S
H214 C221 0.950 . S
C215 C213 1.387 . S
C215 C217 1.390 1_546 S
C215 H219 0.950 . S
H216 C212 0.950 . S
C217 C215 1.390 1_564 S
C217 C218 1.387 . S
C217 H220 0.950 . S
C218 C217 1.387 . S
C218 C221 1.387 . S
H219 C215 0.950 . S
H220 C217 0.950 . S
C221 C212 1.390 1_564 S
C221 H214 0.950 . S
C221 C218 1.387 . S
C222 C223 1.387 . S
C222 H226 0.950 . S
C222 C231 1.390 . S
C223 C222 1.387 . S
C223 C225 1.387 . S
H224 C231 0.950 . S
C225 C223 1.387 . S
C225 C227 1.390 . S
C225 H229 0.950 . S
H226 C222 0.950 . S
C227 C225 1.390 . S
C227 C228 1.387 . S
C227 H230 0.950 . S
C228 C227 1.387 . S
C228 C231 1.387 . S
H229 C225 0.950 . S
H230 C227 0.950 . S
C231 C222 1.390 . S
C231 H224 0.950 . S
C231 C228 1.387 . S
C232 C233 1.387 1_554 S
C232 H236 0.950 . S
C232 C241 1.390 . S
C233 C232 1.387 1_556 S
C233 C235 1.387 1_655 S
H234 C241 0.950 . S
C235 C233 1.387 1_455 S
C235 C237 1.390 . S
C235 H239 0.950 . S
H236 C232 0.950 . S
C237 C235 1.390 . S
C237 C238 1.387 1_556 S
C237 H240 0.950 . S
C238 C237 1.387 1_554 S
C238 C241 1.387 1_455 S
H239 C235 0.950 . S
H240 C237 0.950 . S
C241 C232 1.390 . S
C241 H234 0.950 . S
C241 C238 1.387 1_655 S
C242 C243 1.387 . S
C242 H246 0.950 . S
C242 C251 1.390 1_545 S
C243 C242 1.387 . S
C243 C245 1.387 . S
H244 C251 0.950 . S
C245 C243 1.387 . S
C245 C247 1.390 1_545 S
C245 H249 0.950 . S
H246 C242 0.950 . S
C247 C245 1.390 1_565 S
C247 C248 1.387 . S
C247 H250 0.950 . S
C248 C247 1.387 . S
C248 C251 1.387 . S
H249 C245 0.950 . S
H250 C247 0.950 . S
C251 C242 1.390 1_565 S
C251 H244 0.950 . S
C251 C248 1.387 . S
C252 C253 1.387 . S
C252 H256 0.950 . S
C252 C261 1.390 1_554 S
C253 C252 1.387 . S
C253 C255 1.387 . S
H254 C261 0.950 . S
C255 C253 1.387 . S
C255 C257 1.390 1_554 S
C255 H259 0.950 . S
H256 C252 0.950 . S
C257 C255 1.390 1_556 S
C257 C258 1.387 . S
C257 H260 0.950 . S
C258 C257 1.387 . S
C258 C261 1.387 . S
H259 C255 0.950 . S
H260 C257 0.950 . S
C261 C252 1.390 1_556 S
C261 H254 0.950 . S
C261 C258 1.387 . S
C262 C263 1.387 . S
C262 H266 0.950 . S
C262 C271 1.390 1_655 S
C263 C262 1.387 . S
C263 C265 1.387 . S
H264 C271 0.950 . S
C265 C263 1.387 . S
C265 C267 1.390 1_655 S
C265 H269 0.950 . S
H266 C262 0.950 . S
C267 C265 1.390 1_455 S
C267 C268 1.387 . S
C267 H270 0.950 . S
C268 C267 1.387 . S
C268 C271 1.387 . S
H269 C265 0.950 . S
H270 C267 0.950 . S
C271 C262 1.390 1_455 S
C271 H264 0.950 . S
C271 C268 1.387 . S
C272 C273 1.387 . S
C272 H276 0.950 . S
C272 C281 1.390 1_564 S
C273 C272 1.387 . S
C273 C275 1.387 . S
H274 C281 0.950 . S
C275 C273 1.387 . S
C275 C277 1.390 1_564 S
C275 H279 0.950 . S
H276 C272 0.950 . S
C277 C275 1.390 1_546 S
C277 C278 1.387 . S
C277 H280 0.950 . S
C278 C277 1.387 . S
C278 C281 1.387 . S
H279 C275 0.950 . S
H280 C277 0.950 . S
C281 C272 1.390 1_546 S
C281 H274 0.950 . S
C281 C278 1.387 . S
C282 C283 1.387 . S
C282 H286 0.950 . S
C282 C291 1.390 . S
C283 C282 1.387 . S
C283 C285 1.387 . S
H284 C291 0.950 . S
C285 C283 1.387 . S
C285 C287 1.390 . S
C285 H289 0.950 . S
H286 C282 0.950 . S
C287 C285 1.390 . S
C287 C288 1.387 . S
C287 H290 0.950 . S
C288 C287 1.387 . S
C288 C291 1.387 . S
H289 C285 0.950 . S
H290 C287 0.950 . S
C291 C282 1.390 . S
C291 H284 0.950 . S
C291 C288 1.387 . S
C292 C293 1.395 . S
C292 H296 0.956 . S
C292 C301 1.376 1_655 S
C293 C292 1.395 . S
C293 C295 1.387 1_556 S
H294 C301 0.950 . S
C295 C293 1.387 1_554 S
C295 C297 1.376 1_655 S
C295 H299 0.950 . S
H296 C292 0.956 . S
C297 C295 1.376 1_455 S
C297 C298 1.395 . S
C297 H300 0.956 . S
C298 C297 1.395 . S
C298 C301 1.387 1_554 S
H299 C295 0.950 . S
H300 C297 0.956 . S
C301 C292 1.376 1_455 S
C301 H294 0.950 . S
C301 C298 1.387 1_556 S
C302 C303 1.387 . S
C302 H306 0.950 . S
C302 C311 1.390 1_565 S
C303 C302 1.387 . S
C303 C305 1.387 . S
H304 C311 0.950 . S
C305 C303 1.387 . S
C305 C307 1.390 1_565 S
C305 H309 0.950 . S
H306 C302 0.950 . S
C307 C305 1.390 1_545 S
C307 C308 1.387 . S
C307 H310 0.950 . S
C308 C307 1.387 . S
C308 C311 1.387 . S
H309 C305 0.950 . S
H310 C307 0.950 . S
C311 C302 1.390 1_545 S
C311 H304 0.950 . S
C311 C308 1.387 . S
C133 C5 1.390 . S
C138 C94 1.387 . S
C143 C28 1.387 . S
C148 C116 1.390 . S
C153 C7 1.390 . S
C158 C50 1.387 . S
C163 C72 1.387 . S
C168 C31 1.390 . S
C173 C53 1.390 . S
C178 C97 1.387 . S
C183 C75 1.390 . S
C188 C119 1.387 . S
C193 C117 1.540 . S
C198 C8 1.541 . S
C203 C29 1.540 . S
C208 C6 1.541 . S
C213 C26 1.539 . S
C218 C51 1.539 . S
C223 C48 1.539 . S
C228 C73 1.541 . S
C233 C70 1.539 . S
C238 C92 1.540 . S
C243 C114 1.539 . S
C248 C95 1.539 . S
C253 C49 1.539 . S
C258 C74 1.539 . S
C263 C71 1.541 . S
C268 C93 1.540 . S
C273 C96 1.541 . S
C278 C115 1.541 . S
C283 C118 1.540 . S
C288 C9 1.541 . S
C293 C30 1.540 . S
C298 C4 1.541 . S
C303 C52 1.539 . S
C308 C27 1.539 . S
