# Generated by pormake.
# Topology uof, (4)-cn, num edge types: 1
# Building blocks:
#     Node 0, Type 0, BuildingBlock: QUQFOY_clean_sbu_1, # of connection points: 4
#     Node 1, Type 0, BuildingBlock: QUQFOY_clean_sbu_1, # of connection points: 4
#     Node 2, Type 0, BuildingBlock: QUQFOY_clean_sbu_1, # of connection points: 4
#     Node 3, Type 0, BuildingBlock: QUQFOY_clean_sbu_1, # of connection points: 4
#     Node 4, Type 0, BuildingBlock: QUQFOY_clean_sbu_1, # of connection points: 4
#     Node 5, Type 0, BuildingBlock: QUQFOY_clean_sbu_1, # of connection points: 4
#     Node 6, Type 0, BuildingBlock: QUQFOY_clean_sbu_1, # of connection points: 4
#     Node 7, Type 0, BuildingBlock: QUQFOY_clean_sbu_1, # of connection points: 4
#     Node 8, Type 0, BuildingBlock: QUQFOY_clean_sbu_1, # of connection points: 4
#     Node 9, Type 0, BuildingBlock: QUQFOY_clean_sbu_1, # of connection points: 4
#     Node 10, Type 0, BuildingBlock: QUQFOY_clean_sbu_1, # of connection points: 4
#     Node 11, Type 0, BuildingBlock: QUQFOY_clean_sbu_1, # of connection points: 4
#     Edge 12, Type (0, 0), BuildingBlock: ZUJKAS_clean_linker_0, # of connection points: 2
#     Edge 13, Type (0, 0), BuildingBlock: ZUJKAS_clean_linker_0, # of connection points: 2
#     Edge 14, Type (0, 0), BuildingBlock: ZUJKAS_clean_linker_0, # of connection points: 2
#     Edge 15, Type (0, 0), BuildingBlock: ZUJKAS_clean_linker_0, # of connection points: 2
#     Edge 16, Type (0, 0), BuildingBlock: ZUJKAS_clean_linker_0, # of connection points: 2
#     Edge 17, Type (0, 0), BuildingBlock: ZUJKAS_clean_linker_0, # of connection points: 2
#     Edge 18, Type (0, 0), BuildingBlock: ZUJKAS_clean_linker_0, # of connection points: 2
#     Edge 19, Type (0, 0), BuildingBlock: ZUJKAS_clean_linker_0, # of connection points: 2
#     Edge 20, Type (0, 0), BuildingBlock: ZUJKAS_clean_linker_0, # of connection points: 2
#     Edge 21, Type (0, 0), BuildingBlock: ZUJKAS_clean_linker_0, # of connection points: 2
#     Edge 22, Type (0, 0), BuildingBlock: ZUJKAS_clean_linker_0, # of connection points: 2
#     Edge 23, Type (0, 0), BuildingBlock: ZUJKAS_clean_linker_0, # of connection points: 2
#     Edge 24, Type (0, 0), BuildingBlock: ZUJKAS_clean_linker_0, # of connection points: 2
#     Edge 25, Type (0, 0), BuildingBlock: ZUJKAS_clean_linker_0, # of connection points: 2
#     Edge 26, Type (0, 0), BuildingBlock: ZUJKAS_clean_linker_0, # of connection points: 2
#     Edge 27, Type (0, 0), BuildingBlock: ZUJKAS_clean_linker_0, # of connection points: 2
#     Edge 28, Type (0, 0), BuildingBlock: ZUJKAS_clean_linker_0, # of connection points: 2
#     Edge 29, Type (0, 0), BuildingBlock: ZUJKAS_clean_linker_0, # of connection points: 2
#     Edge 30, Type (0, 0), BuildingBlock: ZUJKAS_clean_linker_0, # of connection points: 2
#     Edge 31, Type (0, 0), BuildingBlock: ZUJKAS_clean_linker_0, # of connection points: 2
#     Edge 32, Type (0, 0), BuildingBlock: ZUJKAS_clean_linker_0, # of connection points: 2
#     Edge 33, Type (0, 0), BuildingBlock: ZUJKAS_clean_linker_0, # of connection points: 2
#     Edge 34, Type (0, 0), BuildingBlock: ZUJKAS_clean_linker_0, # of connection points: 2
#     Edge 35, Type (0, 0), BuildingBlock: ZUJKAS_clean_linker_0, # of connection points: 2
# Relax obj value: 0.166
# Max RMSD: 0.164
# Mean RMSD: 0.164
data_MOF--net-uof--node1-QUQFOY_clean_sbu_1--edge1-ZUJKAS_clean_linker_0
_symmetry_space_group_name_H-M    P1
_symmetry_Int_Tables_number       1
_symmetry_cell_setting            triclinic
loop_
_symmetry_equiv_pos_as_xyz
'x, y, z'
_cell_length_a     41.452082
_cell_length_b     41.453878
_cell_length_c     93.539147
_cell_angle_alpha  90.007321
_cell_angle_beta   89.990504
_cell_angle_gamma 119.9715
loop_
_atom_site_label
_atom_site_type_symbol
_atom_site_fract_x
_atom_site_fract_y
_atom_site_fract_z
_atom_type_partial_charge
O0 O 0.29381 0.35091 0.23045 0.0
Cd1 Cd 0.24421 0.30271 0.23467 0.0
Cd2 Cd 0.22961 0.33335 0.20838 0.0
O3 O 0.28201 0.37826 0.2125 0.0
O4 O 0.26078 0.28268 0.25071 0.0
O5 O 0.21725 0.29778 0.25344 0.0
C6 C 0.23744 0.28531 0.25895 0.0
C7 C 0.17772 0.33694 0.20073 0.0
C8 C 0.30436 0.37799 0.22177 0.0
C9 C 0.22444 0.25836 0.20716 0.0
O10 O 0.22815 0.28657 0.20042 0.0
O11 O 0.22656 0.2586 0.22071 0.0
O12 O 0.20622 0.34688 0.19255 0.0
O13 O 0.18006 0.32807 0.21378 0.0
O14 O 0.94399 0.29133 0.56515 0.0
Cd15 Cd 0.94446 0.24253 0.5691 0.0
Cd16 Cd 0.89653 0.22637 0.54339 0.0
O17 O 0.90296 0.27823 0.5478 0.0
O18 O 0.98307 0.26032 0.58443 0.0
O19 O 0.92508 0.21647 0.58822 0.0
C20 C 0.9583 0.2373 0.59313 0.0
C21 C 0.84115 0.17337 0.53648 0.0
C22 C 0.92604 0.30104 0.55685 0.0
C23 C 0.9669 0.22272 0.541 0.0
O24 O 0.94165 0.22601 0.53465 0.0
O25 O 0.96988 0.22501 0.55453 0.0
O26 O 0.85773 0.20202 0.52822 0.0
O27 O 0.85425 0.17611 0.54924 0.0
O28 O 0.66058 0.95038 0.89867 0.0
Cd29 Cd 0.70619 0.94369 0.90169 0.0
Cd30 Cd 0.66973 0.8977 0.87796 0.0
O31 O 0.62525 0.90433 0.88404 0.0
O32 O 0.73146 0.9805 0.91738 0.0
O33 O 0.71036 0.92052 0.92026 0.0
C34 C 0.72633 0.95359 0.92565 0.0
C35 C 0.6698 0.84255 0.87333 0.0
C36 C 0.63011 0.93138 0.89197 0.0
C37 C 0.7435 0.96427 0.87302 0.0
O38 O 0.71229 0.94186 0.8674 0.0
O39 O 0.74764 0.96538 0.8865 0.0
O40 O 0.65295 0.85404 0.8649 0.0
O41 O 0.68361 0.8606 0.88511 0.0
O42 O 0.70974 0.65358 0.23233 0.0
Cd43 Cd 0.75859 0.70227 0.23685 0.0
Cd44 Cd 0.77577 0.67073 0.21081 0.0
O45 O 0.72305 0.62615 0.21483 0.0
O46 O 0.74024 0.72234 0.25229 0.0
O47 O 0.784 0.70806 0.25608 0.0
C48 C 0.76303 0.72027 0.26102 0.0
C49 C 0.8264 0.66576 0.20237 0.0
C50 C 0.70001 0.6264 0.22377 0.0
C51 C 0.78045 0.74583 0.20911 0.0
O52 O 0.77791 0.71766 0.20271 0.0
O53 O 0.77681 0.74587 0.22259 0.0
O54 O 0.79722 0.65597 0.19464 0.0
O55 O 0.82553 0.67528 0.21546 0.0
O56 O 0.05577 0.70861 0.56424 0.0
Cd57 Cd 0.06127 0.76034 0.5685 0.0
Cd58 Cd 0.1046 0.77004 0.54263 0.0
O59 O 0.09841 0.71902 0.54788 0.0
O60 O 0.02252 0.74528 0.58369 0.0
O61 O 0.08187 0.78409 0.58789 0.0
C62 C 0.04815 0.76585 0.59261 0.0
C63 C 0.15921 0.82196 0.53443 0.0
C64 C 0.07322 0.69707 0.5565 0.0
C65 C 0.03828 0.77912 0.54079 0.0
O66 O 0.05798 0.76818 0.53435 0.0
O67 O 0.04044 0.78361 0.55425 0.0
O68 O 0.14141 0.79237 0.52672 0.0
O69 O 0.14768 0.82093 0.54736 0.0
O70 O 0.34286 0.05116 0.89873 0.0
Cd71 Cd 0.2963 0.05625 0.90178 0.0
Cd72 Cd 0.3338 0.10452 0.87834 0.0
O73 O 0.37837 0.09813 0.88448 0.0
O74 O 0.27052 0.01727 0.91674 0.0
O75 O 0.2903 0.07656 0.92079 0.0
C76 C 0.27449 0.04283 0.92552 0.0
C77 C 0.33315 0.15936 0.87365 0.0
C78 C 0.37355 0.07083 0.89224 0.0
C79 C 0.26048 0.03788 0.87276 0.0
O80 O 0.29194 0.06067 0.86742 0.0
O81 O 0.2557 0.03578 0.88622 0.0
O82 O 0.35068 0.14837 0.86536 0.0
O83 O 0.31914 0.14113 0.88539 0.0
O84 O 0.6565 0.70916 0.43779 0.0
Cd85 Cd 0.70227 0.76159 0.43422 0.0
Cd86 Cd 0.66768 0.76949 0.45939 0.0
O87 O 0.62278 0.71903 0.4536 0.0
O88 O 0.72681 0.74909 0.41851 0.0
O89 O 0.70499 0.7873 0.41537 0.0
C90 C 0.72104 0.77014 0.41008 0.0
C91 C 0.66686 0.8232 0.46629 0.0
C92 C 0.62679 0.69733 0.4451 0.0
C93 C 0.74241 0.77848 0.4622 0.0
O94 O 0.71122 0.76658 0.46833 0.0
O95 O 0.74563 0.78413 0.4488 0.0
O96 O 0.65281 0.79398 0.47432 0.0
O97 O 0.67851 0.82077 0.45372 0.0
O98 O 0.93967 0.64767 0.77044 0.0
Cd99 Cd 0.94105 0.69702 0.76572 0.0
Cd100 Cd 0.89813 0.67151 0.79318 0.0
O101 O 0.90387 0.62528 0.78962 0.0
O102 O 0.97739 0.7142 0.74957 0.0
O103 O 0.91985 0.70256 0.74683 0.0
C104 C 0.95209 0.71295 0.74129 0.0
C105 C 0.84365 0.67031 0.80057 0.0
C106 C 0.9239 0.62252 0.77991 0.0
C107 C 0.9693 0.74486 0.79264 0.0
O108 O 0.94474 0.71853 0.80015 0.0
O109 O 0.96991 0.742 0.77913 0.0
O110 O 0.8609 0.65911 0.80888 0.0
O111 O 0.85566 0.67945 0.78761 0.0
O112 O 0.29269 0.94219 0.10268 0.0
Cd113 Cd 0.24333 0.94142 0.09859 0.0
Cd114 Cd 0.22799 0.89502 0.12469 0.0
O115 O 0.2805 0.90269 0.12053 0.0
O116 O 0.25957 0.9776 0.08241 0.0
O117 O 0.21554 0.91908 0.08001 0.0
C118 C 0.23573 0.95151 0.07433 0.0
C119 C 0.17643 0.83944 0.13249 0.0
C120 C 0.303 0.92536 0.1113 0.0
C121 C 0.22337 0.96531 0.12622 0.0
O122 O 0.22621 0.94004 0.13277 0.0
O123 O 0.22631 0.96815 0.11271 0.0
O124 O 0.20512 0.85808 0.14055 0.0
O125 O 0.17838 0.85061 0.11945 0.0
O126 O 0.35221 0.2909 0.4357 0.0
Cd127 Cd 0.30273 0.24236 0.43167 0.0
Cd128 Cd 0.33323 0.22696 0.45825 0.0
O129 O 0.37866 0.27884 0.45392 0.0
O130 O 0.28275 0.26069 0.41622 0.0
O131 O 0.29577 0.21599 0.41258 0.0
C132 C 0.28388 0.23718 0.4076 0.0
C133 C 0.33601 0.17472 0.46601 0.0
C134 C 0.37917 0.30107 0.4444 0.0
C135 C 0.25892 0.22326 0.45946 0.0
O136 O 0.28689 0.22638 0.4662 0.0
O137 O 0.25925 0.22552 0.44591 0.0
O138 O 0.34643 0.20341 0.47412 0.0
O139 O 0.32709 0.177 0.45296 0.0
O140 O 0.06387 0.35749 0.77056 0.0
Cd141 Cd 0.06227 0.30785 0.76625 0.0
Cd142 Cd 0.10604 0.33445 0.79317 0.0
O143 O 0.10083 0.38091 0.78939 0.0
O144 O 0.02632 0.29005 0.74997 0.0
O145 O 0.08395 0.30163 0.7476 0.0
C146 C 0.05185 0.29103 0.74189 0.0
C147 C 0.16004 0.33445 0.80036 0.0
C148 C 0.08029 0.3832 0.77978 0.0
C149 C 0.03421 0.26174 0.79348 0.0
O150 O 0.05936 0.28842 0.80067 0.0
O151 O 0.03306 0.26361 0.77995 0.0
O152 O 0.14385 0.34694 0.80864 0.0
O153 O 0.14741 0.3249 0.7875 0.0
O154 O 0.70958 0.05676 0.10276 0.0
Cd155 Cd 0.75902 0.05767 0.09862 0.0
Cd156 Cd 0.77416 0.10481 0.12481 0.0
O157 O 0.72148 0.09647 0.12053 0.0
O158 O 0.74177 0.01949 0.08313 0.0
O159 O 0.78531 0.07769 0.07957 0.0
C160 C 0.76492 0.04452 0.07454 0.0
C161 C 0.82492 0.1607 0.13286 0.0
C162 C 0.69909 0.07355 0.11133 0.0
C163 C 0.78009 0.03536 0.12647 0.0
O164 O 0.7765 0.0602 0.13301 0.0
O165 O 0.77727 0.03249 0.11295 0.0
O166 O 0.79594 0.14164 0.14074 0.0
O167 O 0.82371 0.14974 0.11983 0.0
H168 H 0.83597 0.18649 0.1603 0.0
H169 H 0.89539 0.22653 0.17214 0.0
H170 H 0.95293 0.24202 0.13213 0.0
H171 H 0.89345 0.20181 0.12014 0.0
H172 H 0.95237 0.20642 0.17204 0.0
H173 H 0.0034 0.3484 0.15017 0.0
H174 H 0.95484 0.31269 0.14975 0.0
H175 H 0.98702 0.31139 0.13724 0.0
C176 C 0.86111 0.19911 0.15391 0.0
C177 C 0.85988 0.19079 0.13925 0.0
C178 C 0.8951 0.22197 0.16072 0.0
C179 C 0.92859 0.23739 0.15302 0.0
C180 C 0.92738 0.23085 0.13824 0.0
H181 H 0.16235 0.34364 0.17285 0.0
H182 H 0.10134 0.32242 0.16214 0.0
C183 C 0.89333 0.20779 0.13141 0.0
C184 C 0.96474 0.25651 0.16075 0.0
H185 H 0.04623 0.33917 0.16396 0.0
C186 C 0.97278 0.23556 0.1704 0.0
C187 C 0.9914 0.29437 0.15847 0.0
C188 C 0.98381 0.31825 0.14843 0.0
C189 C 0.00713 0.25108 0.17754 0.0
C190 C 0.03389 0.28909 0.17534 0.0
C191 C 0.02567 0.31017 0.16577 0.0
C192 C 0.07133 0.3066 0.1822 0.0
C193 C 0.01493 0.22605 0.18689 0.0
C194 C 0.07518 0.3064 0.19713 0.0
C195 C 0.11014 0.31822 0.20332 0.0
C196 C 0.14203 0.33106 0.19469 0.0
C197 C 0.13842 0.33383 0.17984 0.0
C198 C 0.10347 0.32166 0.17367 0.0
H199 H 0.99592 0.19613 0.18444 0.0
H200 H 0.04407 0.23218 0.18556 0.0
H201 H 0.0107 0.23067 0.19825 0.0
H202 H 0.05095 0.2959 0.20399 0.0
H203 H 0.11194 0.31596 0.21479 0.0
H204 H 0.80534 0.16033 0.51076 0.0
H205 H 0.76617 0.10005 0.49931 0.0
H206 H 0.77188 0.04411 0.53724 0.0
H207 H 0.81118 0.10437 0.54881 0.0
H208 H 0.79525 0.02472 0.51166 0.0
H209 H 0.65738 0.01453 0.50477 0.0
H210 H 0.69664 0.05784 0.49911 0.0
H211 H 0.69126 0.04525 0.51768 0.0
C212 C 0.79749 0.13522 0.51683 0.0
C213 C 0.81148 0.13723 0.53072 0.0
C214 C 0.77496 0.10073 0.51026 0.0
C215 C 0.76592 0.06754 0.51743 0.0
C216 C 0.77839 0.06938 0.53153 0.0
H217 H 0.64083 0.83585 0.49132 0.0
H218 H 0.66206 0.89587 0.50313 0.0
C219 C 0.80073 0.10388 0.53816 0.0
C220 C 0.74716 0.03137 0.5097 0.0
H221 H 0.66722 0.97024 0.49214 0.0
C222 C 0.76719 0.01274 0.50747 0.0
C223 C 0.71056 0.01579 0.5042 0.0
C224 C 0.68748 0.03414 0.50663 0.0
C225 C 0.75187 0.97928 0.49972 0.0
C226 C 0.71558 0.96405 0.49401 0.0
C227 C 0.6952 0.98225 0.49641 0.0
C228 C 0.69838 0.92858 0.48587 0.0
C229 C 0.77449 0.96023 0.49773 0.0
C230 C 0.7108 0.92724 0.47204 0.0
C231 C 0.69853 0.89299 0.4652 0.0
C232 C 0.67384 0.85945 0.47214 0.0
C233 C 0.65988 0.86112 0.48567 0.0
C234 C 0.67195 0.89539 0.49245 0.0
H235 H 0.8 0.97287 0.50445 0.0
H236 H 0.7575 0.93019 0.50041 0.0
H237 H 0.78297 0.96238 0.48636 0.0
H238 H 0.73117 0.95262 0.46678 0.0
H239 H 0.70995 0.89274 0.45481 0.0
H240 H 0.62736 0.78279 0.85606 0.0
H241 H 0.64592 0.74103 0.84493 0.0
H242 H 0.75158 0.79878 0.86685 0.0
H243 H 0.73178 0.83818 0.8788 0.0
H244 H 0.69395 0.75415 0.82676 0.0
H245 H 0.73581 0.69909 0.87211 0.0
H246 H 0.71123 0.72422 0.87475 0.0
H247 H 0.76138 0.74881 0.87308 0.0
C248 C 0.65399 0.78556 0.85886 0.0
C249 C 0.67787 0.81331 0.86847 0.0
C250 C 0.66478 0.7619 0.85241 0.0
C251 C 0.70009 0.76609 0.85513 0.0
C252 C 0.72367 0.79363 0.86491 0.0
H253 H 0.83034 0.72612 0.79347 0.0
H254 H 0.79133 0.74515 0.80625 0.0
C255 C 0.71239 0.81642 0.87172 0.0
C256 C 0.7137 0.74443 0.84675 0.0
H257 H 0.76569 0.70169 0.84945 0.0
C258 C 0.70898 0.74203 0.83181 0.0
C259 C 0.73262 0.72758 0.85317 0.0
C260 C 0.7351 0.7247 0.86917 0.0
C261 C 0.7239 0.72493 0.82316 0.0
C262 C 0.74613 0.71159 0.82945 0.0
C263 C 0.74939 0.71245 0.84444 0.0
C264 C 0.76747 0.69811 0.82079 0.0
C265 C 0.715 0.721 0.80739 0.0
C266 C 0.76822 0.66574 0.82479 0.0
C267 C 0.79179 0.65565 0.81781 0.0
C268 C 0.8144 0.67713 0.80642 0.0
C269 C 0.81252 0.70851 0.80199 0.0
C270 C 0.78992 0.71929 0.80927 0.0
H271 H 0.68712 0.71784 0.80544 0.0
H272 H 0.7357 0.74662 0.80176 0.0
H273 H 0.71542 0.69663 0.80268 0.0
H274 H 0.75134 0.64877 0.83361 0.0
H275 H 0.79294 0.6315 0.82152 0.0
H276 H 0.89588 0.69522 0.21447 0.0
H277 H 0.95481 0.71453 0.20197 0.0
H278 H 0.89491 0.66824 0.16272 0.0
H279 H 0.83603 0.64885 0.17505 0.0
H280 H 0.98176 0.67352 0.18287 0.0
H281 H 0.9647 0.7836 0.15577 0.0
H282 H 0.93913 0.7602 0.17171 0.0
H283 H 0.92582 0.73693 0.15474 0.0
C284 C 0.89515 0.68835 0.20326 0.0
C285 C 0.8612 0.67075 0.19575 0.0
C286 C 0.92888 0.69947 0.19613 0.0
C287 C 0.92922 0.69329 0.18138 0.0
C288 C 0.89527 0.67363 0.17407 0.0
H289 H 0.10925 0.79722 0.11899 0.0
H290 H 0.04893 0.75627 0.13024 0.0
C291 C 0.86161 0.66246 0.18117 0.0
C292 C 0.96496 0.71011 0.17339 0.0
H293 H 0.01701 0.77887 0.14943 0.0
C294 C 0.98952 0.6965 0.17553 0.0
C295 C 0.97491 0.73998 0.16378 0.0
C296 C 0.94999 0.75636 0.16138 0.0
C297 C 0.02375 0.71186 0.16821 0.0
C298 C 0.03403 0.74223 0.15877 0.0
C299 C 0.00915 0.75548 0.15657 0.0
C300 C 0.07114 0.76225 0.15164 0.0
C301 C 0.04826 0.69502 0.17051 0.0
C302 C 0.10392 0.77868 0.15982 0.0
C303 C 0.13845 0.80178 0.15339 0.0
C304 C 0.14099 0.80947 0.13865 0.0
C305 C 0.10836 0.7918 0.13035 0.0
C306 C 0.0738 0.76848 0.13679 0.0
H307 H 0.03167 0.66542 0.17389 0.0
H308 H 0.06396 0.69657 0.16067 0.0
H309 H 0.06853 0.71048 0.17915 0.0
H310 H 0.10268 0.77519 0.17132 0.0
H311 H 0.16291 0.81512 0.16015 0.0
H312 H 0.31444 0.10867 0.45206 0.0
H313 H 0.29391 0.0477 0.46297 0.0
H314 H 0.32073 0.09848 0.50474 0.0
H315 H 0.34244 0.15947 0.49393 0.0
H316 H 0.33701 0.04314 0.50307 0.0
H317 H 0.19414 0.99323 0.48249 0.0
H318 H 0.22868 0.00767 0.46869 0.0
H319 H 0.23036 0.0413 0.48129 0.0
C320 C 0.31665 0.10695 0.46354 0.0
C321 C 0.32974 0.13895 0.47212 0.0
C322 C 0.30456 0.072 0.46978 0.0
C323 C 0.30472 0.06829 0.48473 0.0
C324 C 0.32 0.10051 0.49321 0.0
H325 H 0.19907 0.89088 0.54696 0.0
H326 H 0.23896 0.95034 0.5349 0.0
C327 C 0.33244 0.13545 0.48698 0.0
C328 C 0.28703 0.03091 0.49164 0.0
H329 H 0.20416 0.94959 0.49498 0.0
C330 C 0.30799 0.02266 0.50127 0.0
C331 C 0.24899 0.00424 0.48944 0.0
C332 C 0.22409 0.01209 0.48003 0.0
C333 C 0.29203 0.98846 0.50862 0.0
C334 C 0.25415 0.96189 0.50632 0.0
C335 C 0.23331 0.96994 0.49663 0.0
C336 C 0.23493 0.92582 0.51409 0.0
C337 C 0.31576 0.98083 0.51873 0.0
C338 C 0.2199 0.89226 0.50646 0.0
C339 C 0.19724 0.85828 0.51332 0.0
C340 C 0.18872 0.85714 0.52794 0.0
C341 C 0.2052 0.8907 0.53572 0.0
C342 C 0.22808 0.92473 0.52884 0.0
H343 H 0.34594 1.00049 0.51708 0.0
H344 H 0.30865 0.98387 0.5299 0.0
H345 H 0.31027 0.9519 0.51738 0.0
H346 H 0.2247 0.89247 0.49506 0.0
H347 H 0.18502 0.83305 0.50697 0.0
H348 H 0.27 0.16194 0.87874 0.0
H349 H 0.2488 0.19964 0.86626 0.0
H350 H 0.3552 0.25992 0.845 0.0
H351 H 0.37526 0.21989 0.85663 0.0
H352 H 0.26357 0.2656 0.86429 0.0
H353 H 0.29308 0.22965 0.81072 0.0
H354 H 0.29831 0.20881 0.82678 0.0
H355 H 0.33455 0.25432 0.8212 0.0
C356 C 0.28908 0.18361 0.87156 0.0
C357 C 0.3242 0.18784 0.86859 0.0
C358 C 0.27689 0.20515 0.86435 0.0
C359 C 0.29983 0.23201 0.85424 0.0
C360 C 0.33621 0.23836 0.85221 0.0
H361 H 0.2125 0.37298 0.82086 0.0
H362 H 0.25185 0.35323 0.83322 0.0
C363 C 0.34795 0.21591 0.85905 0.0
C364 C 0.28494 0.25216 0.84562 0.0
H365 H 0.27328 0.27403 0.81146 0.0
C366 C 0.26565 0.26731 0.85272 0.0
C367 C 0.28698 0.25405 0.83047 0.0
C368 C 0.30398 0.2355 0.82184 0.0
C369 C 0.24769 0.28328 0.8452 0.0
C370 C 0.25094 0.28645 0.83009 0.0
C371 C 0.271 0.27211 0.82302 0.0
C372 C 0.23144 0.30178 0.82132 0.0
C373 C 0.22379 0.29459 0.8536 0.0
C374 C 0.20925 0.28137 0.80962 0.0
C375 C 0.18825 0.29367 0.80208 0.0
C376 C 0.18829 0.32622 0.80625 0.0
C377 C 0.21177 0.34763 0.81748 0.0
C378 C 0.2338 0.33598 0.82471 0.0
H379 H 0.21507 0.27983 0.86402 0.0
H380 H 0.24003 0.32487 0.8559 0.0
H381 H 0.19833 0.28863 0.84757 0.0
H382 H 0.20693 0.25504 0.80665 0.0
H383 H 0.17014 0.2764 0.79356 0.0
H384 H 0.66286 0.57296 0.20318 0.0
H385 H 0.59535 0.53091 0.20133 0.0
H386 H 0.57972 0.57135 0.24171 0.0
H387 H 0.64666 0.61348 0.24361 0.0
H388 H 0.54332 0.47452 0.21919 0.0
H389 H 0.51342 0.59028 0.21454 0.0
H390 H 0.55971 0.59699 0.21254 0.0
H391 H 0.54048 0.5939 0.23007 0.0
C392 C 0.64509 0.57254 0.21175 0.0
C393 C 0.66019 0.5969 0.22347 0.0
C394 C 0.60651 0.54863 0.21064 0.0
C395 C 0.58246 0.54878 0.2212 0.0
C396 C 0.59766 0.57155 0.23325 0.0
H397 H 0.35657 0.3896 0.24194 0.0
H398 H 0.42358 0.43175 0.24068 0.0
C399 C 0.63603 0.59544 0.23435 0.0
C400 C 0.54144 0.52546 0.21968 0.0
H401 H 0.4613 0.52996 0.21932 0.0
C402 C 0.5254 0.48663 0.21908 0.0
C403 C 0.51809 0.54133 0.21927 0.0
C404 C 0.53377 0.58293 0.21899 0.0
C405 C 0.48657 0.46319 0.21873 0.0
C406 C 0.46319 0.47902 0.21921 0.0
C407 C 0.47924 0.51787 0.21916 0.0
C408 C 0.4221 0.45557 0.2203 0.0
C409 C 0.47089 0.42164 0.2179 0.0
C410 C 0.39872 0.45632 0.20959 0.0
C411 C 0.36008 0.43235 0.21032 0.0
C412 C 0.34425 0.40734 0.22181 0.0
C413 C 0.36774 0.40815 0.23285 0.0
C414 C 0.40617 0.43206 0.23211 0.0
H415 H 0.49159 0.41467 0.21353 0.0
H416 H 0.46321 0.40961 0.2288 0.0
H417 H 0.44552 0.40825 0.21112 0.0
H418 H 0.41047 0.47462 0.20045 0.0
H419 H 0.34284 0.43246 0.20164 0.0
H420 H 0.09212 0.65788 0.53786 0.0
H421 H 0.06569 0.59018 0.53683 0.0
H422 H 1.00089 0.5776 0.57464 0.0
H423 H 0.02655 0.64482 0.57564 0.0
H424 H 0.0659 0.5397 0.55585 0.0
H425 H 0.9214 0.50905 0.54639 0.0
H426 H 0.96109 0.55538 0.5449 0.0
H427 H 0.94166 0.53649 0.56216 0.0
C428 C 0.0725 0.64074 0.54603 0.0
C429 C 0.06122 0.65681 0.55675 0.0
C430 C 0.05731 0.60204 0.54539 0.0
C431 C 0.03055 0.57877 0.55543 0.0
C432 C 0.02063 0.5949 0.56652 0.0
H433 H 0.96294 0.35254 0.57766 0.0
H434 H 0.98678 0.41946 0.57658 0.0
C435 C 0.03562 0.63343 0.56714 0.0
C436 C 0.01307 0.53764 0.55444 0.0
H437 H 0.92884 0.45728 0.55281 0.0
C438 C 0.03596 0.5217 0.55507 0.0
C439 C 0.97403 0.51414 0.55315 0.0
C440 C 0.94813 0.52961 0.55145 0.0
C441 C 0.0208 0.48289 0.555 0.0
C442 C 0.98162 0.45938 0.55456 0.0
C443 C 0.9588 0.47531 0.55336 0.0
C444 C 0.96398 0.41827 0.55566 0.0
C445 C 0.04694 0.46746 0.55532 0.0
C446 C 0.94135 0.39501 0.54461 0.0
C447 C 0.92716 0.35644 0.54526 0.0
C448 C 0.93542 0.34058 0.557 0.0
C449 C 0.9564 0.36384 0.56838 0.0
C450 C 0.97032 0.40219 0.56774 0.0
H451 H 0.07515 0.48815 0.55141 0.0
H452 H 0.04979 0.46025 0.5665 0.0
H453 H 0.03615 0.44188 0.54871 0.0
H454 H 0.93576 0.40684 0.53525 0.0
H455 H 0.91114 0.33934 0.53632 0.0
H456 H 0.4432 0.10381 0.87972 0.0
H457 H 0.48743 0.08075 0.87987 0.0
H458 H 0.41185 0.9878 0.90607 0.0
H459 H 0.36845 0.01103 0.90638 0.0
H460 H 0.48054 0.01574 0.91549 0.0
H461 H 0.47897 0.99451 0.85688 0.0
H462 H 0.49325 0.04158 0.86187 0.0
H463 H 0.44656 0.00503 0.86565 0.0
C464 C 0.43619 0.07864 0.8856 0.0
C465 C 0.40216 0.05927 0.89298 0.0
C466 C 0.46131 0.06525 0.88555 0.0
C467 C 0.45262 0.03204 0.89272 0.0
C468 C 0.41915 0.01333 0.90038 0.0
H469 H 0.55974 0.89783 0.8801 0.0
H470 H 0.5153 0.92067 0.88065 0.0
C471 C 0.3943 0.02677 0.90054 0.0
C472 C 0.47816 0.01653 0.89249 0.0
H473 H 0.52204 0.98496 0.87035 0.0
C474 C 0.48955 0.00898 0.9056 0.0
C475 C 0.48932 0.00694 0.87962 0.0
C476 C 0.47613 0.01205 0.8652 0.0
C477 C 0.51199 0.99251 0.90621 0.0
C478 C 0.52443 0.98433 0.89334 0.0
C479 C 0.5127 0.99143 0.88022 0.0
C480 C 0.5506 0.9696 0.89329 0.0
C481 C 0.52145 0.98334 0.92068 0.0
C482 C 0.5852 0.98954 0.90013 0.0
C483 C 0.61027 0.97638 0.89999 0.0
C484 C 0.60173 0.94322 0.89278 0.0
C485 C 0.56711 0.9233 0.88583 0.0
C486 C 0.54177 0.93641 0.88609 0.0
H487 H 0.50044 0.97973 0.92885 0.0
H488 H 0.52326 0.95751 0.9203 0.0
H489 H 0.54877 0.00662 0.92422 0.0
H490 H 0.59313 0.01571 0.90541 0.0
H491 H 0.6368 0.99281 0.90532 0.0
H492 H 0.62326 0.64584 0.42604 0.0
H493 H 0.58121 0.57865 0.42635 0.0
H494 H 0.52523 0.58982 0.46327 0.0
H495 H 0.56697 0.65744 0.46292 0.0
H496 H 0.57344 0.53021 0.4479 0.0
H497 H 0.43871 0.52387 0.43694 0.0
H498 H 0.48302 0.56556 0.43414 0.0
H499 H 0.46407 0.55269 0.45186 0.0
C500 C 0.60171 0.63417 0.43413 0.0
C501 C 0.59848 0.65713 0.44445 0.0
C502 C 0.57776 0.59568 0.43432 0.0
C503 C 0.54997 0.57918 0.44478 0.0
C504 C 0.5461 0.60199 0.45495 0.0
H505 H 0.43118 0.34047 0.46516 0.0
H506 H 0.47448 0.40783 0.46573 0.0
C507 C 0.57001 0.64065 0.45474 0.0
C508 C 0.52615 0.53799 0.44528 0.0
H509 H 0.43617 0.46709 0.44274 0.0
C510 C 0.54341 0.51637 0.44678 0.0
C511 C 0.48702 0.52 0.44371 0.0
C512 C 0.46704 0.54163 0.44144 0.0
C513 C 0.52263 0.47725 0.4467 0.0
C514 C 0.48347 0.45928 0.44531 0.0
C515 C 0.46621 0.48092 0.44388 0.0
C516 C 0.45979 0.41809 0.44468 0.0
C517 C 0.54288 0.45555 0.44769 0.0
C518 C 0.43733 0.40144 0.43266 0.0
C519 C 0.41251 0.36315 0.43234 0.0
C520 C 0.4095 0.34053 0.44407 0.0
C521 C 0.43305 0.35701 0.45591 0.0
C522 C 0.45783 0.39552 0.45624 0.0
H523 H 0.57299 0.47318 0.4452 0.0
H524 H 0.54035 0.44477 0.45873 0.0
H525 H 0.53059 0.43142 0.44027 0.0
H526 H 0.43846 0.41826 0.4236 0.0
H527 H 0.39492 0.35143 0.42302 0.0
H528 H 0.94966 0.59811 0.75805 0.0
H529 H 0.97452 0.55574 0.75952 0.0
H530 H 0.94553 0.53706 0.80418 0.0
H531 H 0.92008 0.57932 0.80282 0.0
H532 H 0.03081 0.56706 0.7915 0.0
H533 H 0.91284 0.43454 0.77072 0.0
H534 H 0.92236 0.47786 0.76256 0.0
H535 H 0.90542 0.46782 0.78057 0.0
C536 C 0.9479 0.5845 0.76814 0.0
C537 C 0.9329 0.59212 0.78033 0.0
C538 C 0.96219 0.56037 0.76896 0.0
C539 C 0.96199 0.54354 0.78196 0.0
C540 C 0.94586 0.54987 0.79405 0.0
H541 H 0.08232 0.42523 0.80276 0.0
H542 H 0.05533 0.46592 0.80415 0.0
C543 C 0.93113 0.57378 0.79322 0.0
C544 C 0.98069 0.52117 0.78295 0.0
H545 H 0.97017 0.43662 0.7742 0.0
C546 C 0.01757 0.53839 0.78787 0.0
C547 C 0.96333 0.48407 0.77805 0.0
C548 C 0.92373 0.46467 0.7727 0.0
C549 C 0.03803 0.51968 0.78764 0.0
C550 C 0.02075 0.48248 0.78264 0.0
C551 C 0.9835 0.46514 0.77799 0.0
C552 C 0.04077 0.46111 0.7817 0.0
C553 C 0.07832 0.54044 0.7922 0.0
C554 C 0.04181 0.44496 0.76864 0.0
C555 C 0.05674 0.42136 0.76788 0.0
C556 C 0.07122 0.41353 0.78015 0.0
C557 C 0.07189 0.43115 0.79308 0.0
C558 C 0.05645 0.45445 0.79388 0.0
H559 H 0.09 0.57109 0.79184 0.0
H560 H 0.08049 0.53275 0.80337 0.0
H561 H 0.0956 0.53322 0.7853 0.0
H562 H 0.03004 0.44976 0.75909 0.0
H563 H 0.05581 0.40824 0.75775 0.0
H564 H 0.35521 0.96535 0.09106 0.0
H565 H 0.42212 0.98944 0.09221 0.0
H566 H 0.40881 0.93422 0.13265 0.0
H567 H 0.34133 0.9095 0.13154 0.0
H568 H 0.46931 0.03644 0.11352 0.0
H569 H 0.47579 0.90592 0.10976 0.0
H570 H 0.43467 0.908 0.10498 0.0
H571 H 0.44574 0.90667 0.12346 0.0
C572 C 0.3663 0.95778 0.10013 0.0
C573 C 0.34279 0.93546 0.11123 0.0
C574 C 0.40465 0.97174 0.10078 0.0
C575 C 0.42049 0.96365 0.1125 0.0
C576 C 0.39712 0.94045 0.12342 0.0
H577 H 0.66051 0.08914 0.13155 0.0
H578 H 0.593 0.06409 0.13265 0.0
C579 C 0.35855 0.92633 0.12276 0.0
C580 C 0.46162 0.98107 0.11343 0.0
H581 H 0.53261 0.96176 0.1134 0.0
C582 C 0.4832 0.02014 0.11356 0.0
C583 C 0.47961 0.95974 0.1134 0.0
C584 C 0.4579 0.91776 0.11278 0.0
C585 C 0.52231 0.03846 0.11346 0.0
C586 C 0.54031 0.01713 0.11343 0.0
C587 C 0.51872 0.97806 0.11349 0.0
C588 C 0.58145 0.03459 0.11252 0.0
C589 C 0.54399 0.08045 0.11291 0.0
C590 C 0.59738 0.02652 0.10083 0.0
C591 C 0.63577 0.04065 0.10018 0.0
C592 C 0.65921 0.06314 0.11126 0.0
C593 C 0.64335 0.0722 0.12278 0.0
C594 C 0.60475 0.05789 0.12343 0.0
H595 H 0.52612 0.09228 0.10985 0.0
H596 H 0.55592 0.09144 0.12362 0.0
H597 H 0.56737 0.09033 0.10517 0.0
H598 H 0.57997 0.00874 0.09226 0.0
H599 H 0.64695 0.03312 0.09113 0.0
H600 H 0.21466 0.96675 0.15512 0.0
H601 H 0.20884 0.01346 0.16899 0.0
H602 H 0.21425 0.07223 0.13022 0.0
H603 H 0.21971 0.02544 0.11617 0.0
H604 H 0.26208 0.08962 0.16934 0.0
H605 H 0.12394 0.06536 0.1514 0.0
H606 H 0.13883 0.03158 0.14879 0.0
H607 H 0.15571 0.07137 0.13722 0.0
C608 C 0.21423 0.98937 0.1495 0.0
C609 C 0.2177 0.9924 0.13453 0.0
C610 C 0.21087 0.01599 0.15745 0.0
C611 C 0.21069 0.04595 0.1506 0.0
C612 C 0.21361 0.04886 0.13566 0.0
H613 H 0.22116 0.24913 0.17816 0.0
H614 H 0.21627 0.19621 0.16482 0.0
C615 C 0.21696 0.02222 0.12767 0.0
C616 C 0.21007 0.0755 0.15917 0.0
H617 H 0.16069 0.11978 0.16527 0.0
C618 C 0.23979 0.09607 0.16856 0.0
C619 C 0.18101 0.08381 0.15801 0.0
C620 C 0.14786 0.0617 0.14841 0.0
C621 C 0.24166 0.12538 0.17664 0.0
C622 C 0.21262 0.13375 0.17548 0.0
C623 C 0.1828 0.1131 0.16613 0.0
C624 C 0.21331 0.16454 0.18364 0.0
C625 C 0.27517 0.14779 0.18606 0.0
C626 C 0.21243 0.16373 0.19862 0.0
C627 C 0.21537 0.19395 0.2063 0.0
C628 C 0.219 0.22537 0.19909 0.0
C629 C 0.21859 0.22546 0.18405 0.0
C630 C 0.21572 0.19525 0.1764 0.0
H631 H 0.29876 0.14348 0.18318 0.0
H632 H 0.28469 0.17798 0.18532 0.0
H633 H 0.26752 0.13904 0.19735 0.0
H634 H 0.2099 0.13989 0.20437 0.0
H635 H 0.21529 0.19286 0.21787 0.0
H636 H 0.96841 0.21573 0.51199 0.0
H637 H 0.01471 0.20983 0.49784 0.0
H638 H 0.07282 0.21209 0.5364 0.0
H639 H 0.02647 0.21759 0.55071 0.0
H640 H 0.09107 0.26197 0.49762 0.0
H641 H 0.06454 0.1223 0.51443 0.0
H642 H 0.03137 0.13783 0.51736 0.0
H643 H 0.07105 0.15346 0.52891 0.0
C644 C 0.9908 0.21459 0.5175 0.0
C645 C 0.99377 0.21717 0.53249 0.0
C646 C 0.01719 0.21119 0.50939 0.0
C647 C 0.04682 0.21007 0.51611 0.0
C648 C 0.04968 0.21216 0.53105 0.0
H649 H 0.24928 0.21928 0.48845 0.0
H650 H 0.19637 0.21454 0.50176 0.0
C651 C 0.02329 0.21554 0.53919 0.0
C652 C 0.07615 0.20933 0.50741 0.0
H653 H 0.1196 0.15933 0.5009 0.0
C654 C 0.09714 0.2394 0.49822 0.0
C655 C 0.08398 0.17989 0.50834 0.0
C656 C 0.06137 0.14635 0.51769 0.0
C657 C 0.12644 0.24128 0.49012 0.0
C658 C 0.13439 0.21192 0.49108 0.0
C659 C 0.11327 0.18171 0.50021 0.0
C660 C 0.16521 0.21264 0.48293 0.0
C661 C 0.14932 0.27514 0.48093 0.0
C662 C 0.16469 0.21233 0.46794 0.0
C663 C 0.1949 0.21517 0.46028 0.0
C664 C 0.22602 0.21813 0.46751 0.0
C665 C 0.22584 0.21723 0.48255 0.0
C666 C 0.19564 0.21444 0.49018 0.0
H667 H 0.14519 0.29876 0.48394 0.0
H668 H 0.17943 0.28437 0.48176 0.0
H669 H 0.14086 0.26803 0.46959 0.0
H670 H 0.14107 0.21029 0.46218 0.0
H671 H 0.19401 0.2155 0.44871 0.0
H672 H 0.97248 0.20215 0.78198 0.0
H673 H 0.9232 0.14868 0.79472 0.0
H674 H 0.98162 0.19203 0.83451 0.0
H675 H 0.03074 0.24581 0.82196 0.0
H676 H 0.92641 0.09477 0.81229 0.0
H677 H 0.87802 0.1786 0.84207 0.0
H678 H 0.90852 0.19648 0.82678 0.0
H679 H 0.92688 0.19494 0.84402 0.0
C680 C 0.97492 0.20029 0.79344 0.0
C681 C 0.00534 0.22844 0.80099 0.0
C682 C 0.94677 0.16971 0.80068 0.0
C683 C 0.94859 0.16687 0.81555 0.0
C684 C 0.97944 0.19422 0.82305 0.0
H685 H 0.81288 0.01735 0.88166 0.0
H686 H 0.86298 0.06413 0.86691 0.0
C687 C 0.00751 0.22485 0.81585 0.0
C688 C 0.91797 0.13559 0.8233 0.0
H689 H 0.8532 0.11571 0.84937 0.0
C690 C 0.91019 0.09921 0.82034 0.0
C691 C 0.89682 0.14166 0.8337 0.0
C692 C 0.90267 0.17998 0.83676 0.0
C693 C 0.88241 0.06868 0.82787 0.0
C694 C 0.86191 0.07493 0.83849 0.0
C695 C 0.8693 0.11122 0.84128 0.0
C696 C 0.8328 0.04435 0.84701 0.0
C697 C 0.87576 0.03014 0.82471 0.0
C698 C 0.79945 0.01768 0.84062 0.0
C699 C 0.77065 0.9909 0.84902 0.0
C700 C 0.77481 0.99057 0.86394 0.0
C701 C 0.80872 0.01684 0.87022 0.0
C702 C 0.83739 0.04358 0.86182 0.0
H703 H 0.89861 0.0309 0.81824 0.0
H704 H 0.87293 0.01479 0.8348 0.0
H705 H 0.84939 0.01438 0.81864 0.0
H706 H 0.79529 0.01828 0.82921 0.0
H707 H 0.74487 0.97106 0.84386 0.0
H708 H 0.78676 0.03266 0.15546 0.0
H709 H 0.79302 0.98607 0.16922 0.0
H710 H 0.79399 0.93119 0.13019 0.0
H711 H 0.78726 0.97738 0.11627 0.0
H712 H 0.74259 0.88411 0.1505 0.0
H713 H 0.88251 0.97054 0.17466 0.0
H714 H 0.8515 0.98857 0.17719 0.0
H715 H 0.86672 0.98579 0.15947 0.0
C716 C 0.7887 0.01093 0.14976 0.0
C717 C 0.78642 0.00869 0.13476 0.0
C718 C 0.79255 0.98451 0.15766 0.0
C719 C 0.79447 0.95558 0.15069 0.0
C720 C 0.79279 0.95353 0.13573 0.0
H721 H 0.79089 0.75573 0.18027 0.0
H722 H 0.79633 0.80756 0.16603 0.0
C723 C 0.78893 0.97993 0.12781 0.0
C724 C 0.79533 0.92586 0.15907 0.0
H725 H 0.84532 0.90931 0.18405 0.0
C726 C 0.76519 0.8895 0.15774 0.0
C727 C 0.82477 0.93321 0.16855 0.0
C728 C 0.8584 0.97158 0.17 0.0
C729 C 0.76332 0.86028 0.16588 0.0
C730 C 0.79268 0.86762 0.1754 0.0
C731 C 0.82291 0.90393 0.17671 0.0
C732 C 0.7922 0.83778 0.18413 0.0
C733 C 0.72951 0.82196 0.16449 0.0
C734 C 0.78933 0.83839 0.19904 0.0
C735 C 0.78632 0.80887 0.20725 0.0
C736 C 0.78627 0.77837 0.20063 0.0
C737 C 0.79049 0.77861 0.1857 0.0
C738 C 0.79351 0.80812 0.17753 0.0
H739 H 0.70589 0.82284 0.15926 0.0
H740 H 0.73671 0.80422 0.15789 0.0
H741 H 0.72024 0.8086 0.17514 0.0
H742 H 0.78845 0.86124 0.20429 0.0
H743 H 0.78327 0.80962 0.21872 0.0
H744 H 0.81507 0.83158 0.45831 0.0
H745 H 0.86888 0.83991 0.47215 0.0
H746 H 0.79626 0.74484 0.49815 0.0
H747 H 0.74239 0.73826 0.48503 0.0
H748 H 0.84508 0.79484 0.51425 0.0
H749 H 0.91952 0.78165 0.46738 0.0
H750 H 0.91209 0.82053 0.46585 0.0
H751 H 0.87281 0.77383 0.46613 0.0
C752 C 0.81077 0.81264 0.46703 0.0
C753 C 0.77479 0.78418 0.4706 0.0
C754 C 0.84149 0.8172 0.47485 0.0
C755 C 0.83679 0.79239 0.48596 0.0
C756 C 0.80066 0.76429 0.48962 0.0
H757 H 0.99892 0.74018 0.51764 0.0
H758 H 0.95111 0.74644 0.50481 0.0
C759 C 0.76991 0.76048 0.48211 0.0
C760 C 0.86921 0.79526 0.4938 0.0
H761 H 0.95183 0.79717 0.48939 0.0
C762 C 0.86839 0.79523 0.50881 0.0
C763 C 0.89946 0.79541 0.4867 0.0
C764 C 0.90091 0.79246 0.47064 0.0
C765 C 0.89629 0.79421 0.51693 0.0
C766 C 0.92704 0.79537 0.50983 0.0
C767 C 0.92841 0.79654 0.49483 0.0
C768 C 0.9567 0.79256 0.51762 0.0
C769 C 0.89137 0.79001 0.53295 0.0
C770 C 0.97613 0.81662 0.52901 0.0
C771 C 0.00265 0.81222 0.53665 0.0
C772 C 0.01116 0.78469 0.53264 0.0
C773 C 0.99291 0.76171 0.52089 0.0
C774 C 0.96564 0.76533 0.51356 0.0
H775 H 0.86176 0.77844 0.53609 0.0
H776 H 0.90122 0.77147 0.53725 0.0
H777 H 0.90763 0.81777 0.53805 0.0
H778 H 0.97073 0.83868 0.53203 0.0
H779 H 0.0168 0.83058 0.54557 0.0
H780 H 0.2602 0.03451 0.84353 0.0
H781 H 0.20955 0.99058 0.82812 0.0
H782 H 0.14051 0.94017 0.86518 0.0
H783 H 0.19059 0.98412 0.88066 0.0
H784 H 0.1777 0.91388 0.82909 0.0
H785 H 0.07107 0.95491 0.83849 0.0
H786 H 0.11949 0.98455 0.84313 0.0
H787 H 0.08908 0.94684 0.85471 0.0
C788 C 0.23409 0.01436 0.8484 0.0
C789 C 0.22942 0.01279 0.86332 0.0
C790 C 0.20522 0.98935 0.83957 0.0
C791 C 0.17119 0.96259 0.84552 0.0
C792 C 0.16629 0.96121 0.86038 0.0
H793 H 0.97589 0.76168 0.82114 0.0
H794 H 0.02538 0.81693 0.8329 0.0
C795 C 0.19507 0.98619 0.8692 0.0
C796 C 0.14175 0.93415 0.83634 0.0
H797 H 0.04971 0.89499 0.82784 0.0
C798 C 0.14985 0.91004 0.82862 0.0
C799 C 0.10551 0.92931 0.83583 0.0
C800 C 0.0958 0.9555 0.84337 0.0
C801 C 0.12216 0.88014 0.82084 0.0
C802 C 0.08567 0.87469 0.82066 0.0
C803 C 0.07777 0.89932 0.82808 0.0
C804 C 0.05499 0.8425 0.81334 0.0
C805 C 0.13174 0.85376 0.81335 0.0
C806 C 0.05511 0.8391 0.79844 0.0
C807 C 0.02694 0.80758 0.79167 0.0
C808 C 0.99817 0.77901 0.79972 0.0
C809 C 0.99772 0.78306 0.81463 0.0
C810 C 0.02588 0.81461 0.82138 0.0
H811 H 0.15915 0.85777 0.81681 0.0
H812 H 0.11006 0.82439 0.81539 0.0
H813 H 0.13292 0.85863 0.80165 0.0
H814 H 0.07717 0.86068 0.79208 0.0
H815 H 0.02801 0.80545 0.78016 0.0
H816 H 0.24595 0.2687 0.39615 0.0
H817 H 0.23082 0.27071 0.37111 0.0
H818 H 0.2823 0.20602 0.35964 0.0
H819 H 0.2967 0.20302 0.38488 0.0
H820 H 0.27941 0.3026 0.34981 0.0
H821 H 0.18644 0.15328 0.33717 0.0
H822 H 0.19858 0.17015 0.35527 0.0
H823 H 0.23045 0.16308 0.34447 0.0
C824 C 0.25368 0.25446 0.38834 0.0
C825 C 0.27259 0.23572 0.39249 0.0
C826 C 0.24497 0.25564 0.37401 0.0
C827 C 0.25504 0.23823 0.36348 0.0
C828 C 0.27345 0.21896 0.3676 0.0
H829 H 0.27004 0.25015 0.27196 0.0
H830 H 0.27066 0.2373 0.29738 0.0
C831 C 0.28189 0.21744 0.38201 0.0
C832 C 0.24862 0.24277 0.34817 0.0
H833 H 0.20883 0.19518 0.31733 0.0
C834 C 0.26363 0.27909 0.34275 0.0
C835 C 0.22803 0.21208 0.33896 0.0
C836 C 0.20963 0.17245 0.34428 0.0
C837 C 0.25939 0.28558 0.32834 0.0
C838 C 0.23934 0.25493 0.3191 0.0
C839 C 0.22407 0.2186 0.32449 0.0
C840 C 0.23604 0.26027 0.30362 0.0
C841 C 0.27736 0.32517 0.32298 0.0
C842 C 0.21568 0.2768 0.29868 0.0
C843 C 0.21516 0.28415 0.28408 0.0
C844 C 0.23514 0.2752 0.27425 0.0
C845 C 0.25454 0.25764 0.27925 0.0
C846 C 0.25485 0.25013 0.29377 0.0
H847 H 0.29713 0.34539 0.33089 0.0
H848 H 0.29254 0.3282 0.31283 0.0
H849 H 0.25545 0.33244 0.3208 0.0
H850 H 0.20068 0.28451 0.30614 0.0
H851 H 0.19989 0.2976 0.28056 0.0
H852 H 0.0277 0.26763 0.60456 0.0
H853 H 0.04476 0.27074 0.62967 0.0
H854 H 0.92853 0.20942 0.64125 0.0
H855 H 0.9112 0.20527 0.61597 0.0
H856 H 0.02966 0.30503 0.65045 0.0
H857 H 0.96913 0.1561 0.66471 0.0
H858 H 0.97414 0.17178 0.64642 0.0
H859 H 0.93572 0.16662 0.6571 0.0
C860 C 0.0057 0.25432 0.61242 0.0
C861 C 0.96806 0.2362 0.60828 0.0
C862 C 0.01554 0.25614 0.62678 0.0
C863 C 0.98801 0.24001 0.63737 0.0
C864 C 0.95032 0.22133 0.63327 0.0
H865 H 0.98451 0.25887 0.7286 0.0
H866 H 0.97127 0.24523 0.7032 0.0
C867 C 0.94042 0.21915 0.61882 0.0
C868 C 0.99896 0.24531 0.65269 0.0
H869 H 0.98926 0.19934 0.68414 0.0
C870 C 0.02115 0.28187 0.65777 0.0
C871 C 0.98787 0.2151 0.66225 0.0
C872 C 0.96571 0.17518 0.65733 0.0
C873 C 0.03177 0.28907 0.67218 0.0
C874 C 0.02012 0.25893 0.68177 0.0
C875 C 0.99823 0.22236 0.67672 0.0
C876 C 0.02855 0.2651 0.69724 0.0
C877 C 0.05443 0.32891 0.67717 0.0
C878 C 0.06517 0.28024 0.70234 0.0
C879 C 0.0729 0.288 0.71693 0.0
C880 C 0.04411 0.28089 0.72659 0.0
C881 C 0.00739 0.26491 0.72144 0.0
C882 C 0.9997 0.25695 0.70693 0.0
H883 H 0.05615 0.349 0.66893 0.0
H884 H 0.04224 0.33324 0.68706 0.0
H885 H 0.08314 0.33518 0.67971 0.0
H886 H 0.08777 0.28643 0.69501 0.0
H887 H 0.10143 0.30022 0.72057 0.0
H888 H 0.73169 0.97544 0.06265 0.0
H889 H 0.73131 0.959 0.03761 0.0
H890 H 0.80096 0.0751 0.02698 0.0
H891 H 0.80214 0.09183 0.05222 0.0
H892 H 0.70343 0.97955 0.01559 0.0
H893 H 0.85281 0.02811 0.00583 0.0
H894 H 0.83376 0.02299 0.02359 0.0
H895 H 0.84427 0.06331 0.01302 0.0
C896 C 0.74731 0.99755 0.05504 0.0
C897 C 0.76694 0.035 0.05943 0.0
C898 C 0.74706 0.98805 0.04071 0.0
C899 C 0.7664 0.01572 0.03042 0.0
C900 C 0.78648 0.05317 0.03477 0.0
H901 H 0.76713 0.02098 0.9386 0.0
H902 H 0.77846 0.03387 0.96412 0.0
C903 C 0.78695 0.06273 0.04918 0.0
C904 C 0.7632 0.00527 0.01508 0.0
H905 H 0.81342 0.01044 0.98533 0.0
C906 C 0.72747 0.98601 0.00901 0.0
C907 C 0.7946 0.01374 0.00651 0.0
C908 C 0.83351 0.03287 0.01258 0.0
C909 C 0.7223 0.97571 0.99454 0.0
C910 C 0.75367 0.98448 0.98594 0.0
C911 C 0.78942 0.00358 0.99199 0.0
C912 C 0.74985 0.97596 0.97044 0.0
C913 C 0.68336 0.95651 0.98846 0.0
C914 C 0.73088 0.93902 0.96549 0.0
C915 C 0.72436 0.93147 0.95085 0.0
C916 C 0.73667 0.96081 0.94095 0.0
C917 C 0.75703 0.99772 0.94594 0.0
C918 C 0.76366 0.00519 0.96053 0.0
H919 H 0.66315 0.9582 0.99578 0.0
H920 H 0.68276 0.96894 0.97802 0.0
H921 H 0.67406 0.92666 0.98665 0.0
H922 H 0.7204 0.91606 0.97299 0.0
H923 H 0.70868 0.90277 0.94733 0.0
H924 H 0.79856 0.70864 0.28359 0.0
H925 H 0.79518 0.72222 0.30894 0.0
H926 H 0.72677 0.76987 0.29795 0.0
H927 H 0.72933 0.75581 0.27282 0.0
H928 H 0.815 0.78855 0.32357 0.0
H929 H 0.6628 0.69098 0.32716 0.0
H930 H 0.69038 0.69107 0.31223 0.0
H931 H 0.67555 0.72505 0.31326 0.0
C932 C 0.78294 0.72214 0.28659 0.0
C933 C 0.76385 0.73073 0.27622 0.0
C934 C 0.78104 0.72989 0.30106 0.0
C935 C 0.76004 0.74633 0.30536 0.0
C936 C 0.74232 0.75631 0.29493 0.0
H937 H 0.70093 0.80027 0.38805 0.0
H938 H 0.71324 0.79855 0.36245 0.0
C939 C 0.74398 0.74838 0.28054 0.0
C940 C 0.75598 0.75254 0.32072 0.0
H941 H 0.69116 0.73072 0.34706 0.0
C942 C 0.78796 0.77583 0.32873 0.0
C943 C 0.72063 0.73591 0.32743 0.0
C944 C 0.68541 0.70907 0.31963 0.0
C945 C 0.78547 0.78332 0.34322 0.0
C946 C 0.75012 0.76681 0.34988 0.0
C947 C 0.71818 0.74366 0.34187 0.0
C948 C 0.74567 0.77124 0.36536 0.0
C949 C 0.82059 0.80914 0.35127 0.0
C950 C 0.7599 0.75658 0.37543 0.0
C951 C 0.75276 0.75733 0.38998 0.0
C952 C 0.7312 0.77277 0.39477 0.0
C953 C 0.71776 0.78836 0.3847 0.0
C954 C 0.72472 0.78734 0.37009 0.0
H955 H 0.84382 0.82686 0.3439 0.0
H956 H 0.81588 0.82741 0.35863 0.0
H957 H 0.82923 0.79236 0.35777 0.0
H958 H 0.77555 0.74343 0.37201 0.0
H959 H 0.76352 0.74505 0.39745 0.0
H960 H 0.97912 0.74005 0.60392 0.0
H961 H 0.96209 0.73696 0.62904 0.0
H962 H 0.07799 0.78941 0.64093 0.0
H963 H 0.09539 0.79348 0.61566 0.0
H964 H 0.97325 0.69862 0.64957 0.0
H965 H 0.04344 0.84773 0.66478 0.0
H966 H 0.0374 0.8326 0.64639 0.0
H967 H 0.07442 0.83418 0.65696 0.0
C968 C 0.0011 0.75142 0.61185 0.0
C969 C 0.03865 0.76702 0.6078 0.0
C970 C 0.99128 0.7496 0.62622 0.0
C971 C 0.01872 0.76326 0.63689 0.0
C972 C 0.05635 0.77944 0.63288 0.0
H973 H 0.01949 0.74264 0.72813 0.0
H974 H 0.03345 0.75595 0.70277 0.0
C975 C 0.06627 0.78157 0.61844 0.0
C976 C 0.0075 0.758 0.65218 0.0
H977 H 0.01993 0.80366 0.68391 0.0
C978 C 0.98316 0.72166 0.65704 0.0
C979 C 0.02042 0.78805 0.66193 0.0
C980 C 0.04508 0.82787 0.65725 0.0
C981 C 0.97215 0.71444 0.67142 0.0
C982 C 0.98556 0.74439 0.68119 0.0
C983 C 0.00961 0.78077 0.67635 0.0
C984 C 0.9767 0.73812 0.69664 0.0
C985 C 0.9472 0.67469 0.67615 0.0
C986 C 0.94014 0.72421 0.70165 0.0
C987 C 0.93198 0.71658 0.71622 0.0
C988 C 0.96029 0.72266 0.72597 0.0
C989 C 0.99696 0.7374 0.72091 0.0
C990 C 0.00508 0.74517 0.70641 0.0
H991 H 0.94473 0.65437 0.66786 0.0
H992 H 0.9579 0.66896 0.68615 0.0
H993 H 0.91893 0.67014 0.67837 0.0
H994 H 0.91791 0.71897 0.69427 0.0
H995 H 0.90351 0.70537 0.71979 0.0
H996 H 0.19569 0.90135 0.05314 0.0
H997 H 0.19478 0.91452 0.02757 0.0
H998 H 0.26831 0.03149 0.03551 0.0
H999 H 0.26933 0.01875 0.06092 0.0
H1000 H 0.20603 0.01398 0.01663 0.0
H1001 H 0.28691 0.94526 0.00116 0.0
H1002 H 0.2458 0.91801 0.01173 0.0
H1003 H 0.28469 0.95848 0.01936 0.0
C1004 C 0.21143 0.92987 0.04944 0.0
C1005 C 0.23279 0.95895 0.05904 0.0
C1006 C 0.21099 0.93733 0.03484 0.0
C1007 C 0.2318 0.97394 0.02966 0.0
C1008 C 0.25213 0.00306 0.03929 0.0
H1009 H 0.29115 0.09028 0.94834 0.0
H1010 H 0.27742 0.07317 0.97362 0.0
C1011 C 0.25275 0.99565 0.05381 0.0
C1012 C 0.23374 0.98211 0.01416 0.0
H1013 H 0.26866 0.9711 0.98267 0.0
C1014 C 0.21953 0.00448 0.00916 0.0
C1015 C 0.25151 0.96979 0.00449 0.0
C1016 C 0.2684 0.94677 0.0094 0.0
C1017 C 0.22241 0.01467 0.99468 0.0
C1018 C 0.24074 0.00284 0.98504 0.0
C1019 C 0.25459 0.98014 0.99005 0.0
C1020 C 0.2463 0.01373 0.96972 0.0
C1021 C 0.20538 0.03756 0.98981 0.0
C1022 C 0.23362 0.98611 0.95913 0.0
C1023 C 0.24179 0.99579 0.94475 0.0
C1024 C 0.26286 0.03336 0.94062 0.0
C1025 C 0.27463 0.06112 0.95118 0.0
C1026 C 0.26663 0.05137 0.96562 0.0
H1027 H 0.18349 0.03507 0.99734 0.0
H1028 H 0.22737 0.06732 0.98936 0.0
H1029 H 0.19296 0.02897 0.97899 0.0
H1030 H 0.21796 0.95692 0.96203 0.0
H1031 H 0.23219 0.97369 0.9369 0.0
loop_
_geom_bond_atom_site_label_1
_geom_bond_atom_site_label_2
_geom_bond_distance
_geom_bond_site_symmetry_2
_ccdc_geom_bond_type
O0 Cd1 2.223 . S
O0 C8 1.315 . S
Cd1 O0 2.223 . S
Cd1 O4 2.297 . S
Cd1 O5 2.439 . S
Cd1 O11 2.240 . S
Cd2 O3 2.240 . S
Cd2 O10 2.223 . S
Cd2 O12 2.297 . S
Cd2 O13 2.439 . S
O3 Cd2 2.240 . S
O3 C8 1.279 . S
O4 Cd1 2.297 . S
O4 C6 1.247 . S
O5 Cd1 2.439 . S
O5 C6 1.208 . S
C6 O4 1.247 . S
C6 O5 1.208 . S
C7 O12 1.247 . S
C7 O13 1.208 . S
C8 O0 1.315 . S
C8 O3 1.279 . S
C9 O10 1.315 . S
C9 O11 1.279 . S
O10 Cd2 2.223 . S
O10 C9 1.315 . S
O11 Cd1 2.240 . S
O11 C9 1.279 . S
O12 Cd2 2.297 . S
O12 C7 1.247 . S
O13 Cd2 2.439 . S
O13 C7 1.208 . S
O14 Cd15 2.223 . S
O14 C22 1.315 1_455 S
Cd15 O14 2.223 . S
Cd15 O18 2.297 1_455 S
Cd15 O19 2.439 1_455 S
Cd15 O25 2.240 1_455 S
Cd16 O17 2.240 . S
Cd16 O24 2.223 . S
Cd16 O26 2.297 . S
Cd16 O27 2.439 . S
O17 Cd16 2.240 . S
O17 C22 1.279 . S
O18 Cd15 2.297 1_655 S
O18 C20 1.247 . S
O19 Cd15 2.439 1_655 S
O19 C20 1.208 . S
C20 O18 1.247 . S
C20 O19 1.208 . S
C21 O26 1.247 . S
C21 O27 1.208 . S
C22 O14 1.315 1_655 S
C22 O17 1.279 . S
C23 O24 1.315 1_455 S
C23 O25 1.279 1_455 S
O24 Cd16 2.223 . S
O24 C23 1.315 1_655 S
O25 Cd15 2.240 1_655 S
O25 C23 1.279 1_655 S
O26 Cd16 2.297 . S
O26 C21 1.247 . S
O27 Cd16 2.439 . S
O27 C21 1.208 . S
O28 Cd29 2.223 . S
O28 C36 1.315 1_545 S
Cd29 O28 2.223 . S
Cd29 O32 2.297 1_545 S
Cd29 O33 2.439 1_545 S
Cd29 O39 2.240 1_545 S
Cd30 O31 2.240 . S
Cd30 O38 2.223 . S
Cd30 O40 2.297 . S
Cd30 O41 2.439 . S
O31 Cd30 2.240 . S
O31 C36 1.279 . S
O32 Cd29 2.297 1_565 S
O32 C34 1.247 . S
O33 Cd29 2.439 1_565 S
O33 C34 1.208 . S
C34 O32 1.247 . S
C34 O33 1.208 . S
C35 O40 1.247 . S
C35 O41 1.208 . S
C36 O28 1.315 1_565 S
C36 O31 1.279 . S
C37 O38 1.315 1_545 S
C37 O39 1.279 1_545 S
O38 Cd30 2.223 . S
O38 C37 1.315 1_565 S
O39 Cd29 2.240 1_565 S
O39 C37 1.279 1_565 S
O40 Cd30 2.297 . S
O40 C35 1.247 . S
O41 Cd30 2.439 . S
O41 C35 1.208 . S
O42 Cd43 2.223 . S
O42 C50 1.315 . S
Cd43 O42 2.223 . S
Cd43 O46 2.297 . S
Cd43 O47 2.439 . S
Cd43 O53 2.240 . S
Cd44 O45 2.240 . S
Cd44 O52 2.223 . S
Cd44 O54 2.297 . S
Cd44 O55 2.439 . S
O45 Cd44 2.240 . S
O45 C50 1.279 . S
O46 Cd43 2.297 . S
O46 C48 1.247 . S
O47 Cd43 2.439 . S
O47 C48 1.208 . S
C48 O46 1.247 . S
C48 O47 1.208 . S
C49 O54 1.247 . S
C49 O55 1.208 . S
C50 O42 1.315 . S
C50 O45 1.279 . S
C51 O52 1.315 . S
C51 O53 1.279 . S
O52 Cd44 2.223 . S
O52 C51 1.315 . S
O53 Cd43 2.240 . S
O53 C51 1.279 . S
O54 Cd44 2.297 . S
O54 C49 1.247 . S
O55 Cd44 2.439 . S
O55 C49 1.208 . S
O56 Cd57 2.223 . S
O56 C64 1.315 1_655 S
Cd57 O56 2.223 . S
Cd57 O60 2.297 1_655 S
Cd57 O61 2.439 1_655 S
Cd57 O67 2.240 1_655 S
Cd58 O59 2.240 . S
Cd58 O66 2.223 . S
Cd58 O68 2.297 . S
Cd58 O69 2.439 . S
O59 Cd58 2.240 . S
O59 C64 1.279 . S
O60 Cd57 2.297 1_455 S
O60 C62 1.247 . S
O61 Cd57 2.439 1_455 S
O61 C62 1.208 . S
C62 O60 1.247 . S
C62 O61 1.208 . S
C63 O68 1.247 . S
C63 O69 1.208 . S
C64 O56 1.315 1_455 S
C64 O59 1.279 . S
C65 O66 1.315 1_655 S
C65 O67 1.279 1_655 S
O66 Cd58 2.223 . S
O66 C65 1.315 1_455 S
O67 Cd57 2.240 1_455 S
O67 C65 1.279 1_455 S
O68 Cd58 2.297 . S
O68 C63 1.247 . S
O69 Cd58 2.439 . S
O69 C63 1.208 . S
O70 Cd71 2.223 . S
O70 C78 1.315 1_565 S
Cd71 O70 2.223 . S
Cd71 O74 2.297 1_565 S
Cd71 O75 2.439 1_565 S
Cd71 O81 2.240 1_565 S
Cd72 O73 2.240 . S
Cd72 O80 2.223 . S
Cd72 O82 2.297 . S
Cd72 O83 2.439 . S
O73 Cd72 2.240 . S
O73 C78 1.279 . S
O74 Cd71 2.297 1_545 S
O74 C76 1.247 . S
O75 Cd71 2.439 1_545 S
O75 C76 1.208 . S
C76 O74 1.247 . S
C76 O75 1.208 . S
C77 O82 1.247 . S
C77 O83 1.208 . S
C78 O70 1.315 1_545 S
C78 O73 1.279 . S
C79 O80 1.315 1_565 S
C79 O81 1.279 1_565 S
O80 Cd72 2.223 . S
O80 C79 1.315 1_545 S
O81 Cd71 2.240 1_545 S
O81 C79 1.279 1_545 S
O82 Cd72 2.297 . S
O82 C77 1.247 . S
O83 Cd72 2.439 . S
O83 C77 1.208 . S
O84 Cd85 2.223 . S
O84 C92 1.315 . S
Cd85 O84 2.223 . S
Cd85 O88 2.297 . S
Cd85 O89 2.439 . S
Cd85 O95 2.240 . S
Cd86 O87 2.240 . S
Cd86 O94 2.223 . S
Cd86 O96 2.297 . S
Cd86 O97 2.439 . S
O87 Cd86 2.240 . S
O87 C92 1.279 . S
O88 Cd85 2.297 . S
O88 C90 1.247 . S
O89 Cd85 2.439 . S
O89 C90 1.208 . S
C90 O88 1.247 . S
C90 O89 1.208 . S
C91 O96 1.247 . S
C91 O97 1.208 . S
C92 O84 1.315 . S
C92 O87 1.279 . S
C93 O94 1.315 . S
C93 O95 1.279 . S
O94 Cd86 2.223 . S
O94 C93 1.315 . S
O95 Cd85 2.240 . S
O95 C93 1.279 . S
O96 Cd86 2.297 . S
O96 C91 1.247 . S
O97 Cd86 2.439 . S
O97 C91 1.208 . S
O98 Cd99 2.223 . S
O98 C106 1.315 1_455 S
Cd99 O98 2.223 . S
Cd99 O102 2.297 1_455 S
Cd99 O103 2.439 1_455 S
Cd99 O109 2.240 1_455 S
Cd100 O101 2.240 . S
Cd100 O108 2.223 . S
Cd100 O110 2.297 . S
Cd100 O111 2.439 . S
O101 Cd100 2.240 . S
O101 C106 1.279 . S
O102 Cd99 2.297 1_655 S
O102 C104 1.247 . S
O103 Cd99 2.439 1_655 S
O103 C104 1.208 . S
C104 O102 1.247 . S
C104 O103 1.208 . S
C105 O110 1.247 . S
C105 O111 1.208 . S
C106 O98 1.315 1_655 S
C106 O101 1.279 . S
C107 O108 1.315 1_455 S
C107 O109 1.279 1_455 S
O108 Cd100 2.223 . S
O108 C107 1.315 1_655 S
O109 Cd99 2.240 1_655 S
O109 C107 1.279 1_655 S
O110 Cd100 2.297 . S
O110 C105 1.247 . S
O111 Cd100 2.439 . S
O111 C105 1.208 . S
O112 Cd113 2.223 . S
O112 C120 1.315 1_545 S
Cd113 O112 2.223 . S
Cd113 O116 2.297 1_545 S
Cd113 O117 2.439 1_545 S
Cd113 O123 2.240 1_545 S
Cd114 O115 2.240 . S
Cd114 O122 2.223 . S
Cd114 O124 2.297 . S
Cd114 O125 2.439 . S
O115 Cd114 2.240 . S
O115 C120 1.279 . S
O116 Cd113 2.297 1_565 S
O116 C118 1.247 . S
O117 Cd113 2.439 1_565 S
O117 C118 1.208 . S
C118 O116 1.247 . S
C118 O117 1.208 . S
C119 O124 1.247 . S
C119 O125 1.208 . S
C120 O112 1.315 1_565 S
C120 O115 1.279 . S
C121 O122 1.315 1_545 S
C121 O123 1.279 1_545 S
O122 Cd114 2.223 . S
O122 C121 1.315 1_565 S
O123 Cd113 2.240 1_565 S
O123 C121 1.279 1_565 S
O124 Cd114 2.297 . S
O124 C119 1.247 . S
O125 Cd114 2.439 . S
O125 C119 1.208 . S
O126 Cd127 2.223 . S
O126 C134 1.315 . S
Cd127 O126 2.223 . S
Cd127 O130 2.297 . S
Cd127 O131 2.439 . S
Cd127 O137 2.240 . S
Cd128 O129 2.240 . S
Cd128 O136 2.223 . S
Cd128 O138 2.297 . S
Cd128 O139 2.439 . S
O129 Cd128 2.240 . S
O129 C134 1.279 . S
O130 Cd127 2.297 . S
O130 C132 1.247 . S
O131 Cd127 2.439 . S
O131 C132 1.208 . S
C132 O130 1.247 . S
C132 O131 1.208 . S
C133 O138 1.247 . S
C133 O139 1.208 . S
C134 O126 1.315 . S
C134 O129 1.279 . S
C135 O136 1.315 . S
C135 O137 1.279 . S
O136 Cd128 2.223 . S
O136 C135 1.315 . S
O137 Cd127 2.240 . S
O137 C135 1.279 . S
O138 Cd128 2.297 . S
O138 C133 1.247 . S
O139 Cd128 2.439 . S
O139 C133 1.208 . S
O140 Cd141 2.223 . S
O140 C148 1.315 1_655 S
Cd141 O140 2.223 . S
Cd141 O144 2.297 1_655 S
Cd141 O145 2.439 1_655 S
Cd141 O151 2.240 1_655 S
Cd142 O143 2.240 . S
Cd142 O150 2.223 . S
Cd142 O152 2.297 . S
Cd142 O153 2.439 . S
O143 Cd142 2.240 . S
O143 C148 1.279 . S
O144 Cd141 2.297 1_455 S
O144 C146 1.247 . S
O145 Cd141 2.439 1_455 S
O145 C146 1.208 . S
C146 O144 1.247 . S
C146 O145 1.208 . S
C147 O152 1.247 . S
C147 O153 1.208 . S
C148 O140 1.315 1_455 S
C148 O143 1.279 . S
C149 O150 1.315 1_655 S
C149 O151 1.279 1_655 S
O150 Cd142 2.223 . S
O150 C149 1.315 1_455 S
O151 Cd141 2.240 1_455 S
O151 C149 1.279 1_455 S
O152 Cd142 2.297 . S
O152 C147 1.247 . S
O153 Cd142 2.439 . S
O153 C147 1.208 . S
O154 Cd155 2.223 . S
O154 C162 1.315 1_565 S
Cd155 O154 2.223 . S
Cd155 O158 2.297 1_565 S
Cd155 O159 2.439 1_565 S
Cd155 O165 2.240 1_565 S
Cd156 O157 2.240 . S
Cd156 O164 2.223 . S
Cd156 O166 2.297 . S
Cd156 O167 2.439 . S
O157 Cd156 2.240 . S
O157 C162 1.279 . S
O158 Cd155 2.297 1_545 S
O158 C160 1.247 . S
O159 Cd155 2.439 1_545 S
O159 C160 1.208 . S
C160 O158 1.247 . S
C160 O159 1.208 . S
C161 O166 1.247 . S
C161 O167 1.208 . S
C162 O154 1.315 1_545 S
C162 O157 1.279 . S
C163 O164 1.315 1_565 S
C163 O165 1.279 1_565 S
O164 Cd156 2.223 . S
O164 C163 1.315 1_545 S
O165 Cd155 2.240 1_545 S
O165 C163 1.279 1_545 S
O166 Cd156 2.297 . S
O166 C161 1.247 . S
O167 Cd156 2.439 . S
O167 C161 1.208 . S
H168 C176 0.929 . S
H169 C178 0.930 . S
H170 C180 0.930 . S
H171 C183 0.929 . S
H172 C186 0.930 . S
H173 C188 0.960 . S
H174 C188 0.960 1_655 S
H175 C188 0.960 1_655 S
C176 H168 0.929 . S
C176 C177 1.377 . S
C176 C178 1.384 . S
C177 C176 1.377 . S
C177 C183 1.390 . S
C178 H169 0.930 . S
C178 C176 1.384 . S
C178 C179 1.372 . S
C179 C178 1.372 . S
C179 C180 1.400 . S
C179 C184 1.490 . S
C180 H170 0.930 . S
C180 C179 1.400 . S
C180 C183 1.386 . S
H181 C197 0.930 . S
H182 C198 0.931 . S
C183 H171 0.929 . S
C183 C177 1.390 . S
C183 C180 1.386 . S
C184 C179 1.490 . S
C184 C186 1.395 . S
C184 C187 1.378 1_655 S
H185 C191 0.930 . S
C186 H172 0.930 . S
C186 C184 1.395 . S
C186 C189 1.403 . S
C187 C184 1.378 1_455 S
C187 C188 1.525 . S
C187 C191 1.425 . S
C188 H173 0.960 . S
C188 H174 0.960 1_455 S
C188 H175 0.960 1_455 S
C188 C187 1.525 . S
C189 C186 1.403 . S
C189 C190 1.392 1_655 S
C189 C193 1.495 . S
C190 C189 1.392 1_455 S
C190 C191 1.385 . S
C190 C192 1.478 . S
C191 H185 0.930 . S
C191 C187 1.425 . S
C191 C190 1.385 . S
C192 C190 1.478 . S
C192 C194 1.381 . S
C192 C198 1.383 . S
C193 C189 1.495 . S
C193 H199 0.959 . S
C193 H200 0.961 1_655 S
C193 H201 0.961 1_655 S
C194 C192 1.381 . S
C194 C195 1.394 . S
C194 H202 0.930 . S
C195 C194 1.394 . S
C195 C196 1.383 . S
C195 H203 0.929 . S
C196 C195 1.383 . S
C196 C197 1.377 . S
C197 H181 0.930 . S
C197 C196 1.377 . S
C197 C198 1.379 . S
C198 H182 0.931 . S
C198 C192 1.383 . S
C198 C197 1.379 . S
H199 C193 0.959 . S
H200 C193 0.961 1_455 S
H201 C193 0.961 1_455 S
H202 C194 0.930 . S
H203 C195 0.929 . S
H204 C212 0.929 . S
H205 C214 0.930 . S
H206 C216 0.930 . S
H207 C219 0.929 . S
H208 C222 0.930 . S
H209 C224 0.960 . S
H210 C224 0.960 . S
H211 C224 0.960 . S
C212 H204 0.929 . S
C212 C213 1.377 . S
C212 C214 1.384 . S
C213 C212 1.377 . S
C213 C219 1.390 . S
C214 H205 0.930 . S
C214 C212 1.384 . S
C214 C215 1.372 . S
C215 C214 1.372 . S
C215 C216 1.400 . S
C215 C220 1.490 . S
C216 H206 0.930 . S
C216 C215 1.400 . S
C216 C219 1.386 . S
H217 C233 0.930 . S
H218 C234 0.931 . S
C219 H207 0.929 . S
C219 C213 1.390 . S
C219 C216 1.386 . S
C220 C215 1.490 . S
C220 C222 1.395 . S
C220 C223 1.403 . S
H221 C227 0.930 . S
C222 H208 0.930 . S
C222 C220 1.395 . S
C222 C225 1.403 1_545 S
C223 C220 1.403 . S
C223 C224 1.524 . S
C223 C227 1.400 1_545 S
C224 H209 0.960 . S
C224 H210 0.960 . S
C224 H211 0.960 . S
C224 C223 1.524 . S
C225 C222 1.403 1_565 S
C225 C226 1.392 . S
C225 C229 1.495 . S
C226 C225 1.392 . S
C226 C227 1.385 . S
C226 C228 1.478 . S
C227 H221 0.930 . S
C227 C223 1.400 1_565 S
C227 C226 1.385 . S
C228 C226 1.478 . S
C228 C230 1.381 . S
C228 C234 1.383 . S
C229 C225 1.495 . S
C229 H235 0.959 . S
C229 H236 0.961 . S
C229 H237 0.960 . S
C230 C228 1.381 . S
C230 C231 1.394 . S
C230 H238 0.930 . S
C231 C230 1.394 . S
C231 C232 1.383 . S
C231 H239 0.929 . S
C232 C231 1.383 . S
C232 C233 1.377 . S
C233 H217 0.930 . S
C233 C232 1.377 . S
C233 C234 1.379 . S
C234 H218 0.931 . S
C234 C228 1.383 . S
C234 C233 1.379 . S
H235 C229 0.959 . S
H236 C229 0.961 . S
H237 C229 0.960 . S
H238 C230 0.930 . S
H239 C231 0.929 . S
H240 C248 0.929 . S
H241 C250 0.930 . S
H242 C252 0.930 . S
H243 C255 0.929 . S
H244 C258 0.930 . S
H245 C260 0.960 . S
H246 C260 0.960 . S
H247 C260 0.960 . S
C248 H240 0.929 . S
C248 C249 1.377 . S
C248 C250 1.384 . S
C249 C248 1.377 . S
C249 C255 1.390 . S
C250 H241 0.930 . S
C250 C248 1.384 . S
C250 C251 1.372 . S
C251 C250 1.372 . S
C251 C252 1.400 . S
C251 C256 1.490 . S
C252 H242 0.930 . S
C252 C251 1.400 . S
C252 C255 1.386 . S
H253 C269 0.930 . S
H254 C270 0.931 . S
C255 H243 0.929 . S
C255 C249 1.390 . S
C255 C252 1.386 . S
C256 C251 1.490 . S
C256 C258 1.395 . S
C256 C259 1.403 . S
H257 C263 0.930 . S
C258 H244 0.930 . S
C258 C256 1.395 . S
C258 C261 1.403 . S
C259 C256 1.403 . S
C259 C260 1.524 . S
C259 C263 1.400 . S
C260 H245 0.960 . S
C260 H246 0.960 . S
C260 H247 0.960 . S
C260 C259 1.524 . S
C261 C258 1.403 . S
C261 C262 1.392 . S
C261 C265 1.495 . S
C262 C261 1.392 . S
C262 C263 1.385 . S
C262 C264 1.478 . S
C263 H257 0.930 . S
C263 C259 1.400 . S
C263 C262 1.385 . S
C264 C262 1.478 . S
C264 C266 1.381 . S
C264 C270 1.383 . S
C265 C261 1.495 . S
C265 H271 0.959 . S
C265 H272 0.961 . S
C265 H273 0.960 . S
C266 C264 1.381 . S
C266 C267 1.394 . S
C266 H274 0.930 . S
C267 C266 1.394 . S
C267 C268 1.383 . S
C267 H275 0.929 . S
C268 C267 1.383 . S
C268 C269 1.377 . S
C269 H253 0.930 . S
C269 C268 1.377 . S
C269 C270 1.379 . S
C270 H254 0.931 . S
C270 C264 1.383 . S
C270 C269 1.379 . S
H271 C265 0.959 . S
H272 C265 0.961 . S
H273 C265 0.960 . S
H274 C266 0.930 . S
H275 C267 0.929 . S
H276 C284 0.929 . S
H277 C286 0.930 . S
H278 C288 0.930 . S
H279 C291 0.929 . S
H280 C294 0.930 . S
H281 C296 0.960 . S
H282 C296 0.960 . S
H283 C296 0.960 . S
C284 H276 0.929 . S
C284 C285 1.377 . S
C284 C286 1.384 . S
C285 C284 1.377 . S
C285 C291 1.390 . S
C286 H277 0.930 . S
C286 C284 1.384 . S
C286 C287 1.372 . S
C287 C286 1.372 . S
C287 C288 1.400 . S
C287 C292 1.490 . S
C288 H278 0.930 . S
C288 C287 1.400 . S
C288 C291 1.386 . S
H289 C305 0.930 . S
H290 C306 0.931 . S
C291 H279 0.929 . S
C291 C285 1.390 . S
C291 C288 1.386 . S
C292 C287 1.490 . S
C292 C294 1.395 . S
C292 C295 1.403 . S
H293 C299 0.930 . S
C294 H280 0.930 . S
C294 C292 1.395 . S
C294 C297 1.403 1_655 S
C295 C292 1.403 . S
C295 C296 1.524 . S
C295 C299 1.400 1_655 S
C296 H281 0.960 . S
C296 H282 0.960 . S
C296 H283 0.960 . S
C296 C295 1.524 . S
C297 C294 1.403 1_455 S
C297 C298 1.392 . S
C297 C301 1.495 . S
C298 C297 1.392 . S
C298 C299 1.385 . S
C298 C300 1.478 . S
C299 H293 0.930 . S
C299 C295 1.400 1_455 S
C299 C298 1.385 . S
C300 C298 1.478 . S
C300 C302 1.381 . S
C300 C306 1.383 . S
C301 C297 1.495 . S
C301 H307 0.959 . S
C301 H308 0.961 . S
C301 H309 0.960 . S
C302 C300 1.381 . S
C302 C303 1.394 . S
C302 H310 0.930 . S
C303 C302 1.394 . S
C303 C304 1.383 . S
C303 H311 0.929 . S
C304 C303 1.383 . S
C304 C305 1.377 . S
C305 H289 0.930 . S
C305 C304 1.377 . S
C305 C306 1.379 . S
C306 H290 0.931 . S
C306 C300 1.383 . S
C306 C305 1.379 . S
H307 C301 0.959 . S
H308 C301 0.961 . S
H309 C301 0.960 . S
H310 C302 0.930 . S
H311 C303 0.929 . S
H312 C320 0.929 . S
H313 C322 0.930 . S
H314 C324 0.930 . S
H315 C327 0.929 . S
H316 C330 0.930 . S
H317 C332 0.960 1_565 S
H318 C332 0.960 . S
H319 C332 0.960 . S
C320 H312 0.929 . S
C320 C321 1.377 . S
C320 C322 1.384 . S
C321 C320 1.377 . S
C321 C327 1.390 . S
C322 H313 0.930 . S
C322 C320 1.384 . S
C322 C323 1.372 . S
C323 C322 1.372 . S
C323 C324 1.400 . S
C323 C328 1.490 . S
C324 H314 0.930 . S
C324 C323 1.400 . S
C324 C327 1.386 . S
H325 C341 0.930 . S
H326 C342 0.931 . S
C327 H315 0.929 . S
C327 C321 1.390 . S
C327 C324 1.386 . S
C328 C323 1.490 . S
C328 C330 1.395 . S
C328 C331 1.403 . S
H329 C335 0.930 . S
C330 H316 0.930 . S
C330 C328 1.395 . S
C330 C333 1.403 1_545 S
C331 C328 1.403 . S
C331 C332 1.524 . S
C331 C335 1.400 1_545 S
C332 H317 0.960 1_545 S
C332 H318 0.960 . S
C332 H319 0.960 . S
C332 C331 1.524 . S
C333 C330 1.403 1_565 S
C333 C334 1.392 . S
C333 C337 1.495 . S
C334 C333 1.392 . S
C334 C335 1.385 . S
C334 C336 1.478 . S
C335 H329 0.930 . S
C335 C331 1.400 1_565 S
C335 C334 1.385 . S
C336 C334 1.478 . S
C336 C338 1.381 . S
C336 C342 1.383 . S
C337 C333 1.495 . S
C337 H343 0.959 1_565 S
C337 H344 0.961 . S
C337 H345 0.960 . S
C338 C336 1.381 . S
C338 C339 1.394 . S
C338 H346 0.930 . S
C339 C338 1.394 . S
C339 C340 1.383 . S
C339 H347 0.929 . S
C340 C339 1.383 . S
C340 C341 1.377 . S
C341 H325 0.930 . S
C341 C340 1.377 . S
C341 C342 1.379 . S
C342 H326 0.931 . S
C342 C336 1.383 . S
C342 C341 1.379 . S
H343 C337 0.959 1_545 S
H344 C337 0.961 . S
H345 C337 0.960 . S
H346 C338 0.930 . S
H347 C339 0.929 . S
H348 C356 0.929 . S
H349 C358 0.930 . S
H350 C360 0.930 . S
H351 C363 0.929 . S
H352 C366 0.930 . S
H353 C368 0.960 . S
H354 C368 0.960 . S
H355 C368 0.960 . S
C356 H348 0.929 . S
C356 C357 1.377 . S
C356 C358 1.384 . S
C357 C356 1.377 . S
C357 C363 1.390 . S
C358 H349 0.930 . S
C358 C356 1.384 . S
C358 C359 1.372 . S
C359 C358 1.372 . S
C359 C360 1.400 . S
C359 C364 1.490 . S
C360 H350 0.930 . S
C360 C359 1.400 . S
C360 C363 1.386 . S
H361 C377 0.930 . S
H362 C378 0.931 . S
C363 H351 0.929 . S
C363 C357 1.390 . S
C363 C360 1.386 . S
C364 C359 1.490 . S
C364 C366 1.395 . S
C364 C367 1.403 . S
H365 C371 0.930 . S
C366 H352 0.930 . S
C366 C364 1.395 . S
C366 C369 1.403 . S
C367 C364 1.403 . S
C367 C368 1.524 . S
C367 C371 1.400 . S
C368 H353 0.960 . S
C368 H354 0.960 . S
C368 H355 0.960 . S
C368 C367 1.524 . S
C369 C366 1.403 . S
C369 C370 1.392 . S
C369 C373 1.495 . S
C370 C369 1.392 . S
C370 C371 1.385 . S
C370 C372 1.478 . S
C371 H365 0.930 . S
C371 C367 1.400 . S
C371 C370 1.385 . S
C372 C370 1.478 . S
C372 C374 1.381 . S
C372 C378 1.383 . S
C373 C369 1.495 . S
C373 H379 0.959 . S
C373 H380 0.961 . S
C373 H381 0.960 . S
C374 C372 1.381 . S
C374 C375 1.394 . S
C374 H382 0.930 . S
C375 C374 1.394 . S
C375 C376 1.383 . S
C375 H383 0.929 . S
C376 C375 1.383 . S
C376 C377 1.377 . S
C377 H361 0.930 . S
C377 C376 1.377 . S
C377 C378 1.379 . S
C378 H362 0.931 . S
C378 C372 1.383 . S
C378 C377 1.379 . S
H379 C373 0.959 . S
H380 C373 0.961 . S
H381 C373 0.960 . S
H382 C374 0.930 . S
H383 C375 0.929 . S
H384 C392 0.929 . S
H385 C394 0.930 . S
H386 C396 0.930 . S
H387 C399 0.929 . S
H388 C402 0.930 . S
H389 C404 0.960 . S
H390 C404 0.960 . S
H391 C404 0.960 . S
C392 H384 0.929 . S
C392 C393 1.377 . S
C392 C394 1.384 . S
C393 C392 1.377 . S
C393 C399 1.390 . S
C394 H385 0.930 . S
C394 C392 1.384 . S
C394 C395 1.372 . S
C395 C394 1.372 . S
C395 C396 1.400 . S
C395 C400 1.490 . S
C396 H386 0.930 . S
C396 C395 1.400 . S
C396 C399 1.386 . S
H397 C413 0.930 . S
H398 C414 0.931 . S
C399 H387 0.929 . S
C399 C393 1.390 . S
C399 C396 1.386 . S
C400 C395 1.490 . S
C400 C402 1.395 . S
C400 C403 1.403 . S
H401 C407 0.930 . S
C402 H388 0.930 . S
C402 C400 1.395 . S
C402 C405 1.403 . S
C403 C400 1.403 . S
C403 C404 1.524 . S
C403 C407 1.400 . S
C404 H389 0.960 . S
C404 H390 0.960 . S
C404 H391 0.960 . S
C404 C403 1.524 . S
C405 C402 1.403 . S
C405 C406 1.392 . S
C405 C409 1.495 . S
C406 C405 1.392 . S
C406 C407 1.385 . S
C406 C408 1.478 . S
C407 H401 0.930 . S
C407 C403 1.400 . S
C407 C406 1.385 . S
C408 C406 1.478 . S
C408 C410 1.381 . S
C408 C414 1.383 . S
C409 C405 1.495 . S
C409 H415 0.959 . S
C409 H416 0.961 . S
C409 H417 0.960 . S
C410 C408 1.381 . S
C410 C411 1.394 . S
C410 H418 0.930 . S
C411 C410 1.394 . S
C411 C412 1.383 . S
C411 H419 0.929 . S
C412 C411 1.383 . S
C412 C413 1.377 . S
C413 H397 0.930 . S
C413 C412 1.377 . S
C413 C414 1.379 . S
C414 H398 0.931 . S
C414 C408 1.383 . S
C414 C413 1.379 . S
H415 C409 0.959 . S
H416 C409 0.961 . S
H417 C409 0.960 . S
H418 C410 0.930 . S
H419 C411 0.929 . S
H420 C428 0.929 . S
H421 C430 0.930 . S
H422 C432 0.930 . S
H423 C435 0.929 . S
H424 C438 0.930 . S
H425 C440 0.960 . S
H426 C440 0.960 . S
H427 C440 0.960 . S
C428 H420 0.929 . S
C428 C429 1.377 . S
C428 C430 1.384 . S
C429 C428 1.377 . S
C429 C435 1.390 1_455 S
C430 H421 0.930 . S
C430 C428 1.384 . S
C430 C431 1.372 . S
C431 C430 1.372 . S
C431 C432 1.400 1_455 S
C431 C436 1.490 . S
C432 H422 0.930 . S
C432 C431 1.400 1_655 S
C432 C435 1.386 . S
H433 C449 0.930 . S
H434 C450 0.931 . S
C435 H423 0.929 . S
C435 C429 1.390 1_655 S
C435 C432 1.386 . S
C436 C431 1.490 . S
C436 C438 1.395 . S
C436 C439 1.403 1_455 S
H437 C443 0.930 . S
C438 H424 0.930 . S
C438 C436 1.395 . S
C438 C441 1.403 . S
C439 C436 1.403 1_655 S
C439 C440 1.524 . S
C439 C443 1.400 . S
C440 H425 0.960 . S
C440 H426 0.960 . S
C440 H427 0.960 . S
C440 C439 1.524 . S
C441 C438 1.403 . S
C441 C442 1.392 . S
C441 C445 1.495 . S
C442 C441 1.392 . S
C442 C443 1.385 1_455 S
C442 C444 1.478 1_455 S
C443 H437 0.930 . S
C443 C439 1.400 . S
C443 C442 1.385 1_655 S
C444 C442 1.478 1_655 S
C444 C446 1.381 1_655 S
C444 C450 1.383 . S
C445 C441 1.495 . S
C445 H451 0.959 . S
C445 H452 0.961 . S
C445 H453 0.960 . S
C446 C444 1.381 1_455 S
C446 C447 1.394 . S
C446 H454 0.930 . S
C447 C446 1.394 . S
C447 C448 1.383 1_455 S
C447 H455 0.929 . S
C448 C447 1.383 1_655 S
C448 C449 1.377 . S
C449 H433 0.930 . S
C449 C448 1.377 . S
C449 C450 1.379 . S
C450 H434 0.931 . S
C450 C444 1.383 . S
C450 C449 1.379 . S
H451 C445 0.959 . S
H452 C445 0.961 . S
H453 C445 0.960 . S
H454 C446 0.930 . S
H455 C447 0.929 . S
H456 C464 0.929 . S
H457 C466 0.930 . S
H458 C468 0.930 . S
H459 C471 0.929 . S
H460 C474 0.930 . S
H461 C476 0.960 . S
H462 C476 0.960 . S
H463 C476 0.960 . S
C464 H456 0.929 . S
C464 C465 1.377 . S
C464 C466 1.384 . S
C465 C464 1.377 . S
C465 C471 1.390 1_545 S
C466 H457 0.930 . S
C466 C464 1.384 . S
C466 C467 1.372 . S
C467 C466 1.372 . S
C467 C468 1.400 1_545 S
C467 C472 1.490 . S
C468 H458 0.930 . S
C468 C467 1.400 1_565 S
C468 C471 1.386 . S
H469 C485 0.930 . S
H470 C486 0.931 . S
C471 H459 0.929 . S
C471 C465 1.390 1_565 S
C471 C468 1.386 . S
C472 C467 1.490 . S
C472 C474 1.395 . S
C472 C475 1.403 1_545 S
H473 C479 0.930 . S
C474 H460 0.930 . S
C474 C472 1.395 . S
C474 C477 1.403 . S
C475 C472 1.403 1_565 S
C475 C476 1.524 . S
C475 C479 1.400 . S
C476 H461 0.960 . S
C476 H462 0.960 . S
C476 H463 0.960 . S
C476 C475 1.524 . S
C477 C474 1.403 . S
C477 C478 1.392 1_545 S
C477 C481 1.495 . S
C478 C477 1.392 1_565 S
C478 C479 1.385 . S
C478 C480 1.478 . S
C479 H473 0.930 . S
C479 C475 1.400 . S
C479 C478 1.385 . S
C480 C478 1.478 . S
C480 C482 1.381 1_565 S
C480 C486 1.383 . S
C481 C477 1.495 . S
C481 H487 0.959 . S
C481 H488 0.961 . S
C481 H489 0.960 . S
C482 C480 1.381 1_545 S
C482 C483 1.394 . S
C482 H490 0.930 . S
C483 C482 1.394 . S
C483 C484 1.383 1_545 S
C483 H491 0.929 . S
C484 C483 1.383 1_565 S
C484 C485 1.377 . S
C485 H469 0.930 . S
C485 C484 1.377 . S
C485 C486 1.379 . S
C486 H470 0.931 . S
C486 C480 1.383 . S
C486 C485 1.379 . S
H487 C481 0.959 . S
H488 C481 0.961 . S
H489 C481 0.960 . S
H490 C482 0.930 . S
H491 C483 0.929 . S
H492 C500 0.929 . S
H493 C502 0.930 . S
H494 C504 0.930 . S
H495 C507 0.929 . S
H496 C510 0.930 . S
H497 C512 0.960 . S
H498 C512 0.960 . S
H499 C512 0.960 . S
C500 H492 0.929 . S
C500 C501 1.377 . S
C500 C502 1.384 . S
C501 C500 1.377 . S
C501 C507 1.390 . S
C502 H493 0.930 . S
C502 C500 1.384 . S
C502 C503 1.372 . S
C503 C502 1.372 . S
C503 C504 1.400 . S
C503 C508 1.490 . S
C504 H494 0.930 . S
C504 C503 1.400 . S
C504 C507 1.386 . S
H505 C521 0.930 . S
H506 C522 0.931 . S
C507 H495 0.929 . S
C507 C501 1.390 . S
C507 C504 1.386 . S
C508 C503 1.490 . S
C508 C510 1.395 . S
C508 C511 1.403 . S
H509 C515 0.930 . S
C510 H496 0.930 . S
C510 C508 1.395 . S
C510 C513 1.403 . S
C511 C508 1.403 . S
C511 C512 1.524 . S
C511 C515 1.400 . S
C512 H497 0.960 . S
C512 H498 0.960 . S
C512 H499 0.960 . S
C512 C511 1.524 . S
C513 C510 1.403 . S
C513 C514 1.392 . S
C513 C517 1.495 . S
C514 C513 1.392 . S
C514 C515 1.385 . S
C514 C516 1.478 . S
C515 H509 0.930 . S
C515 C511 1.400 . S
C515 C514 1.385 . S
C516 C514 1.478 . S
C516 C518 1.381 . S
C516 C522 1.383 . S
C517 C513 1.495 . S
C517 H523 0.959 . S
C517 H524 0.961 . S
C517 H525 0.960 . S
C518 C516 1.381 . S
C518 C519 1.394 . S
C518 H526 0.930 . S
C519 C518 1.394 . S
C519 C520 1.383 . S
C519 H527 0.929 . S
C520 C519 1.383 . S
C520 C521 1.377 . S
C521 H505 0.930 . S
C521 C520 1.377 . S
C521 C522 1.379 . S
C522 H506 0.931 . S
C522 C516 1.383 . S
C522 C521 1.379 . S
H523 C517 0.959 . S
H524 C517 0.961 . S
H525 C517 0.960 . S
H526 C518 0.930 . S
H527 C519 0.929 . S
H528 C536 0.929 . S
H529 C538 0.930 . S
H530 C540 0.930 . S
H531 C543 0.929 . S
H532 C546 0.930 . S
H533 C548 0.960 . S
H534 C548 0.960 . S
H535 C548 0.960 . S
C536 H528 0.929 . S
C536 C537 1.377 1_455 S
C536 C538 1.384 . S
C537 C536 1.377 1_655 S
C537 C543 1.390 . S
C538 H529 0.930 . S
C538 C536 1.384 . S
C538 C539 1.372 1_455 S
C539 C538 1.372 1_655 S
C539 C540 1.400 . S
C539 C544 1.490 . S
C540 H530 0.930 . S
C540 C539 1.400 . S
C540 C543 1.386 . S
H541 C557 0.930 . S
H542 C558 0.931 . S
C543 H531 0.929 . S
C543 C537 1.390 . S
C543 C540 1.386 . S
C544 C539 1.490 . S
C544 C546 1.395 1_655 S
C544 C547 1.403 . S
H545 C551 0.930 . S
C546 H532 0.930 . S
C546 C544 1.395 1_455 S
C546 C549 1.403 . S
C547 C544 1.403 . S
C547 C548 1.524 . S
C547 C551 1.400 . S
C548 H533 0.960 . S
C548 H534 0.960 . S
C548 H535 0.960 . S
C548 C547 1.524 . S
C549 C546 1.403 . S
C549 C550 1.392 . S
C549 C553 1.495 . S
C550 C549 1.392 . S
C550 C551 1.385 1_455 S
C550 C552 1.478 . S
C551 H545 0.930 . S
C551 C547 1.400 . S
C551 C550 1.385 1_655 S
C552 C550 1.478 . S
C552 C554 1.381 . S
C552 C558 1.383 1_455 S
C553 C549 1.495 . S
C553 H559 0.959 . S
C553 H560 0.961 . S
C553 H561 0.960 . S
C554 C552 1.381 . S
C554 C555 1.394 . S
C554 H562 0.930 . S
C555 C554 1.394 . S
C555 C556 1.383 . S
C555 H563 0.929 . S
C556 C555 1.383 . S
C556 C557 1.377 1_455 S
C557 H541 0.930 . S
C557 C556 1.377 1_655 S
C557 C558 1.379 . S
C558 H542 0.931 . S
C558 C552 1.383 1_655 S
C558 C557 1.379 . S
H559 C553 0.959 . S
H560 C553 0.961 . S
H561 C553 0.960 . S
H562 C554 0.930 . S
H563 C555 0.929 . S
H564 C572 0.927 1_545 S
H565 C574 0.930 . S
H566 C576 0.930 . S
H567 C579 0.929 . S
H568 C582 0.930 . S
H569 C584 0.960 . S
H570 C584 0.960 . S
H571 C584 0.960 . S
C572 H564 0.927 1_565 S
C572 C573 1.379 . S
C572 C574 1.385 1_565 S
C573 C572 1.379 . S
C573 C579 1.390 . S
C574 H565 0.930 . S
C574 C572 1.385 1_545 S
C574 C575 1.372 1_545 S
C575 C574 1.372 1_565 S
C575 C576 1.400 . S
C575 C580 1.490 . S
C576 H566 0.930 . S
C576 C575 1.400 . S
C576 C579 1.386 . S
H577 C593 0.930 1_565 S
H578 C594 0.931 1_565 S
C579 H567 0.929 . S
C579 C573 1.390 . S
C579 C576 1.386 . S
C580 C575 1.490 . S
C580 C582 1.395 1_565 S
C580 C583 1.403 . S
H581 C587 0.930 . S
C582 H568 0.930 . S
C582 C580 1.395 1_545 S
C582 C585 1.403 . S
C583 C580 1.403 . S
C583 C584 1.524 . S
C583 C587 1.400 . S
C584 H569 0.960 . S
C584 H570 0.960 . S
C584 H571 0.960 . S
C584 C583 1.524 . S
C585 C582 1.403 . S
C585 C586 1.392 . S
C585 C589 1.495 . S
C586 C585 1.392 . S
C586 C587 1.385 1_545 S
C586 C588 1.478 . S
C587 H581 0.930 . S
C587 C583 1.400 . S
C587 C586 1.385 1_565 S
C588 C586 1.478 . S
C588 C590 1.381 . S
C588 C594 1.383 . S
C589 C585 1.495 . S
C589 H595 0.959 . S
C589 H596 0.961 . S
C589 H597 0.960 . S
C590 C588 1.381 . S
C590 C591 1.394 . S
C590 H598 0.930 . S
C591 C590 1.394 . S
C591 C592 1.383 . S
C591 H599 0.929 . S
C592 C591 1.383 . S
C592 C593 1.377 . S
C593 H577 0.930 1_545 S
C593 C592 1.377 . S
C593 C594 1.379 . S
C594 H578 0.931 1_545 S
C594 C588 1.383 . S
C594 C593 1.379 . S
H595 C589 0.959 . S
H596 C589 0.961 . S
H597 C589 0.960 . S
H598 C590 0.930 . S
H599 C591 0.929 . S
H600 C608 0.929 1_565 S
H601 C610 0.930 . S
H602 C612 0.930 . S
H603 C615 0.929 . S
H604 C618 0.930 . S
H605 C620 0.960 . S
H606 C620 0.960 . S
H607 C620 0.960 . S
C608 H600 0.929 1_545 S
C608 C609 1.377 . S
C608 C610 1.384 . S
C609 C608 1.377 . S
C609 C615 1.390 . S
C610 H601 0.930 . S
C610 C608 1.384 . S
C610 C611 1.372 . S
C611 C610 1.372 . S
C611 C612 1.400 . S
C611 C616 1.490 . S
C612 H602 0.930 . S
C612 C611 1.400 . S
C612 C615 1.386 . S
H613 C629 0.930 . S
H614 C630 0.931 . S
C615 H603 0.929 . S
C615 C609 1.390 . S
C615 C612 1.386 . S
C616 C611 1.490 . S
C616 C618 1.395 . S
C616 C619 1.403 . S
H617 C623 0.930 . S
C618 H604 0.930 . S
C618 C616 1.395 . S
C618 C621 1.403 . S
C619 C616 1.403 . S
C619 C620 1.524 . S
C619 C623 1.400 . S
C620 H605 0.960 . S
C620 H606 0.960 . S
C620 H607 0.960 . S
C620 C619 1.524 . S
C621 C618 1.403 . S
C621 C622 1.392 . S
C621 C625 1.495 . S
C622 C621 1.392 . S
C622 C623 1.385 . S
C622 C624 1.478 . S
C623 H617 0.930 . S
C623 C619 1.400 . S
C623 C622 1.385 . S
C624 C622 1.478 . S
C624 C626 1.381 . S
C624 C630 1.383 . S
C625 C621 1.495 . S
C625 H631 0.959 . S
C625 H632 0.961 . S
C625 H633 0.960 . S
C626 C624 1.381 . S
C626 C627 1.394 . S
C626 H634 0.930 . S
C627 C626 1.394 . S
C627 C628 1.383 . S
C627 H635 0.929 . S
C628 C627 1.383 . S
C628 C629 1.377 . S
C629 H613 0.930 . S
C629 C628 1.377 . S
C629 C630 1.379 . S
C630 H614 0.931 . S
C630 C624 1.383 . S
C630 C629 1.379 . S
H631 C625 0.959 . S
H632 C625 0.961 . S
H633 C625 0.960 . S
H634 C626 0.930 . S
H635 C627 0.929 . S
H636 C644 0.929 1_655 S
H637 C646 0.930 . S
H638 C648 0.930 . S
H639 C651 0.929 . S
H640 C654 0.930 . S
H641 C656 0.960 . S
H642 C656 0.960 . S
H643 C656 0.960 . S
C644 H636 0.929 1_455 S
C644 C645 1.377 . S
C644 C646 1.384 . S
C645 C644 1.377 . S
C645 C651 1.390 . S
C646 H637 0.930 . S
C646 C644 1.384 . S
C646 C647 1.372 . S
C647 C646 1.372 . S
C647 C648 1.400 . S
C647 C652 1.490 . S
C648 H638 0.930 . S
C648 C647 1.400 . S
C648 C651 1.386 . S
H649 C665 0.930 . S
H650 C666 0.931 . S
C651 H639 0.929 . S
C651 C645 1.390 . S
C651 C648 1.386 . S
C652 C647 1.490 . S
C652 C654 1.395 . S
C652 C655 1.403 . S
H653 C659 0.930 . S
C654 H640 0.930 . S
C654 C652 1.395 . S
C654 C657 1.403 . S
C655 C652 1.403 . S
C655 C656 1.524 . S
C655 C659 1.400 . S
C656 H641 0.960 . S
C656 H642 0.960 . S
C656 H643 0.960 . S
C656 C655 1.524 . S
C657 C654 1.403 . S
C657 C658 1.392 . S
C657 C661 1.495 . S
C658 C657 1.392 . S
C658 C659 1.385 . S
C658 C660 1.478 . S
C659 H653 0.930 . S
C659 C655 1.400 . S
C659 C658 1.385 . S
C660 C658 1.478 . S
C660 C662 1.381 . S
C660 C666 1.383 . S
C661 C657 1.495 . S
C661 H667 0.959 . S
C661 H668 0.961 . S
C661 H669 0.960 . S
C662 C660 1.381 . S
C662 C663 1.394 . S
C662 H670 0.930 . S
C663 C662 1.394 . S
C663 C664 1.383 . S
C663 H671 0.929 . S
C664 C663 1.383 . S
C664 C665 1.377 . S
C665 H649 0.930 . S
C665 C664 1.377 . S
C665 C666 1.379 . S
C666 H650 0.931 . S
C666 C660 1.383 . S
C666 C665 1.379 . S
H667 C661 0.959 . S
H668 C661 0.961 . S
H669 C661 0.960 . S
H670 C662 0.930 . S
H671 C663 0.929 . S
H672 C680 0.929 . S
H673 C682 0.930 . S
H674 C684 0.930 . S
H675 C687 0.929 1_455 S
H676 C690 0.930 . S
H677 C692 0.960 . S
H678 C692 0.960 . S
H679 C692 0.960 . S
C680 H672 0.929 . S
C680 C681 1.377 . S
C680 C682 1.384 . S
C681 C680 1.377 . S
C681 C687 1.390 . S
C682 H673 0.930 . S
C682 C680 1.384 . S
C682 C683 1.372 . S
C683 C682 1.372 . S
C683 C684 1.400 . S
C683 C688 1.490 . S
C684 H674 0.930 . S
C684 C683 1.400 . S
C684 C687 1.386 . S
H685 C701 0.930 . S
H686 C702 0.931 . S
C687 H675 0.929 1_655 S
C687 C681 1.390 . S
C687 C684 1.386 . S
C688 C683 1.490 . S
C688 C690 1.395 . S
C688 C691 1.403 . S
H689 C695 0.930 . S
C690 H676 0.930 . S
C690 C688 1.395 . S
C690 C693 1.403 . S
C691 C688 1.403 . S
C691 C692 1.524 . S
C691 C695 1.400 . S
C692 H677 0.960 . S
C692 H678 0.960 . S
C692 H679 0.960 . S
C692 C691 1.524 . S
C693 C690 1.403 . S
C693 C694 1.392 . S
C693 C697 1.495 . S
C694 C693 1.392 . S
C694 C695 1.385 . S
C694 C696 1.478 . S
C695 H689 0.930 . S
C695 C691 1.400 . S
C695 C694 1.385 . S
C696 C694 1.478 . S
C696 C698 1.381 . S
C696 C702 1.383 . S
C697 C693 1.495 . S
C697 H703 0.959 . S
C697 H704 0.961 . S
C697 H705 0.960 . S
C698 C696 1.381 . S
C698 C699 1.394 . S
C698 H706 0.930 . S
C699 C698 1.394 . S
C699 C700 1.383 . S
C699 H707 0.929 . S
C700 C699 1.383 . S
C700 C701 1.377 . S
C701 H685 0.930 . S
C701 C700 1.377 . S
C701 C702 1.379 . S
C702 H686 0.931 . S
C702 C696 1.383 . S
C702 C701 1.379 . S
H703 C697 0.959 . S
H704 C697 0.961 . S
H705 C697 0.960 . S
H706 C698 0.930 . S
H707 C699 0.929 . S
H708 C716 0.929 . S
H709 C718 0.930 . S
H710 C720 0.930 . S
H711 C723 0.929 . S
H712 C726 0.930 . S
H713 C728 0.960 . S
H714 C728 0.960 . S
H715 C728 0.960 . S
C716 H708 0.929 . S
C716 C717 1.377 . S
C716 C718 1.384 . S
C717 C716 1.377 . S
C717 C723 1.390 . S
C718 H709 0.930 . S
C718 C716 1.384 . S
C718 C719 1.372 . S
C719 C718 1.372 . S
C719 C720 1.400 . S
C719 C724 1.490 . S
C720 H710 0.930 . S
C720 C719 1.400 . S
C720 C723 1.386 . S
H721 C737 0.930 . S
H722 C738 0.931 . S
C723 H711 0.929 . S
C723 C717 1.390 . S
C723 C720 1.386 . S
C724 C719 1.490 . S
C724 C726 1.395 . S
C724 C727 1.403 . S
H725 C731 0.930 . S
C726 H712 0.930 . S
C726 C724 1.395 . S
C726 C729 1.403 . S
C727 C724 1.403 . S
C727 C728 1.524 . S
C727 C731 1.400 . S
C728 H713 0.960 . S
C728 H714 0.960 . S
C728 H715 0.960 . S
C728 C727 1.524 . S
C729 C726 1.403 . S
C729 C730 1.392 . S
C729 C733 1.495 . S
C730 C729 1.392 . S
C730 C731 1.385 . S
C730 C732 1.478 . S
C731 H725 0.930 . S
C731 C727 1.400 . S
C731 C730 1.385 . S
C732 C730 1.478 . S
C732 C734 1.381 . S
C732 C738 1.383 . S
C733 C729 1.495 . S
C733 H739 0.959 . S
C733 H740 0.961 . S
C733 H741 0.960 . S
C734 C732 1.381 . S
C734 C735 1.394 . S
C734 H742 0.930 . S
C735 C734 1.394 . S
C735 C736 1.383 . S
C735 H743 0.929 . S
C736 C735 1.383 . S
C736 C737 1.377 . S
C737 H721 0.930 . S
C737 C736 1.377 . S
C737 C738 1.379 . S
C738 H722 0.931 . S
C738 C732 1.383 . S
C738 C737 1.379 . S
H739 C733 0.959 . S
H740 C733 0.961 . S
H741 C733 0.960 . S
H742 C734 0.930 . S
H743 C735 0.929 . S
H744 C752 0.929 . S
H745 C754 0.930 . S
H746 C756 0.930 . S
H747 C759 0.929 . S
H748 C762 0.930 . S
H749 C764 0.960 . S
H750 C764 0.960 . S
H751 C764 0.960 . S
C752 H744 0.929 . S
C752 C753 1.377 . S
C752 C754 1.384 . S
C753 C752 1.377 . S
C753 C759 1.390 . S
C754 H745 0.930 . S
C754 C752 1.384 . S
C754 C755 1.372 . S
C755 C754 1.372 . S
C755 C756 1.400 . S
C755 C760 1.490 . S
C756 H746 0.930 . S
C756 C755 1.400 . S
C756 C759 1.386 . S
H757 C773 0.930 . S
H758 C774 0.931 . S
C759 H747 0.929 . S
C759 C753 1.390 . S
C759 C756 1.386 . S
C760 C755 1.490 . S
C760 C762 1.395 . S
C760 C763 1.403 . S
H761 C767 0.930 . S
C762 H748 0.930 . S
C762 C760 1.395 . S
C762 C765 1.403 . S
C763 C760 1.403 . S
C763 C764 1.524 . S
C763 C767 1.400 . S
C764 H749 0.960 . S
C764 H750 0.960 . S
C764 H751 0.960 . S
C764 C763 1.524 . S
C765 C762 1.403 . S
C765 C766 1.392 . S
C765 C769 1.495 . S
C766 C765 1.392 . S
C766 C767 1.385 . S
C766 C768 1.478 . S
C767 H761 0.930 . S
C767 C763 1.400 . S
C767 C766 1.385 . S
C768 C766 1.478 . S
C768 C770 1.381 . S
C768 C774 1.383 . S
C769 C765 1.495 . S
C769 H775 0.959 . S
C769 H776 0.961 . S
C769 H777 0.960 . S
C770 C768 1.381 . S
C770 C771 1.394 . S
C770 H778 0.930 . S
C771 C770 1.394 . S
C771 C772 1.383 . S
C771 H779 0.929 1_655 S
C772 C771 1.383 . S
C772 C773 1.377 . S
C773 H757 0.930 . S
C773 C772 1.377 . S
C773 C774 1.379 . S
C774 H758 0.931 . S
C774 C768 1.383 . S
C774 C773 1.379 . S
H775 C769 0.959 . S
H776 C769 0.961 . S
H777 C769 0.960 . S
H778 C770 0.930 . S
H779 C771 0.929 1_455 S
H780 C788 0.929 . S
H781 C790 0.930 . S
H782 C792 0.930 . S
H783 C795 0.929 . S
H784 C798 0.930 . S
H785 C800 0.960 . S
H786 C800 0.960 . S
H787 C800 0.960 . S
C788 H780 0.929 . S
C788 C789 1.377 . S
C788 C790 1.384 . S
C789 C788 1.377 . S
C789 C795 1.390 . S
C790 H781 0.930 . S
C790 C788 1.384 . S
C790 C791 1.372 . S
C791 C790 1.372 . S
C791 C792 1.400 . S
C791 C796 1.490 . S
C792 H782 0.930 . S
C792 C791 1.400 . S
C792 C795 1.386 . S
H793 C809 0.930 . S
H794 C810 0.931 . S
C795 H783 0.929 . S
C795 C789 1.390 . S
C795 C792 1.386 . S
C796 C791 1.490 . S
C796 C798 1.395 . S
C796 C799 1.403 . S
H797 C803 0.930 . S
C798 H784 0.930 . S
C798 C796 1.395 . S
C798 C801 1.403 . S
C799 C796 1.403 . S
C799 C800 1.524 . S
C799 C803 1.400 . S
C800 H785 0.960 . S
C800 H786 0.960 . S
C800 H787 0.960 . S
C800 C799 1.524 . S
C801 C798 1.403 . S
C801 C802 1.392 . S
C801 C805 1.495 . S
C802 C801 1.392 . S
C802 C803 1.385 . S
C802 C804 1.478 . S
C803 H797 0.930 . S
C803 C799 1.400 . S
C803 C802 1.385 . S
C804 C802 1.478 . S
C804 C806 1.381 . S
C804 C810 1.383 . S
C805 C801 1.495 . S
C805 H811 0.959 . S
C805 H812 0.961 . S
C805 H813 0.960 . S
C806 C804 1.381 . S
C806 C807 1.394 . S
C806 H814 0.930 . S
C807 C806 1.394 . S
C807 C808 1.383 . S
C807 H815 0.929 . S
C808 C807 1.383 . S
C808 C809 1.377 . S
C809 H793 0.930 . S
C809 C808 1.377 . S
C809 C810 1.379 . S
C810 H794 0.931 . S
C810 C804 1.383 . S
C810 C809 1.379 . S
H811 C805 0.959 . S
H812 C805 0.961 . S
H813 C805 0.960 . S
H814 C806 0.930 . S
H815 C807 0.929 . S
H816 C824 0.929 . S
H817 C826 0.930 . S
H818 C828 0.930 . S
H819 C831 0.929 . S
H820 C834 0.930 . S
H821 C836 0.960 . S
H822 C836 0.960 . S
H823 C836 0.960 . S
C824 H816 0.929 . S
C824 C825 1.377 . S
C824 C826 1.384 . S
C825 C824 1.377 . S
C825 C831 1.390 . S
C826 H817 0.930 . S
C826 C824 1.384 . S
C826 C827 1.372 . S
C827 C826 1.372 . S
C827 C828 1.400 . S
C827 C832 1.490 . S
C828 H818 0.930 . S
C828 C827 1.400 . S
C828 C831 1.386 . S
H829 C845 0.930 . S
H830 C846 0.931 . S
C831 H819 0.929 . S
C831 C825 1.390 . S
C831 C828 1.386 . S
C832 C827 1.490 . S
C832 C834 1.395 . S
C832 C835 1.403 . S
H833 C839 0.930 . S
C834 H820 0.930 . S
C834 C832 1.395 . S
C834 C837 1.403 . S
C835 C832 1.403 . S
C835 C836 1.524 . S
C835 C839 1.400 . S
C836 H821 0.960 . S
C836 H822 0.960 . S
C836 H823 0.960 . S
C836 C835 1.524 . S
C837 C834 1.403 . S
C837 C838 1.392 . S
C837 C841 1.495 . S
C838 C837 1.392 . S
C838 C839 1.385 . S
C838 C840 1.478 . S
C839 H833 0.930 . S
C839 C835 1.400 . S
C839 C838 1.385 . S
C840 C838 1.478 . S
C840 C842 1.381 . S
C840 C846 1.383 . S
C841 C837 1.495 . S
C841 H847 0.959 . S
C841 H848 0.961 . S
C841 H849 0.960 . S
C842 C840 1.381 . S
C842 C843 1.394 . S
C842 H850 0.930 . S
C843 C842 1.394 . S
C843 C844 1.383 . S
C843 H851 0.929 . S
C844 C843 1.383 . S
C844 C845 1.377 . S
C845 H829 0.930 . S
C845 C844 1.377 . S
C845 C846 1.379 . S
C846 H830 0.931 . S
C846 C840 1.383 . S
C846 C845 1.379 . S
H847 C841 0.959 . S
H848 C841 0.961 . S
H849 C841 0.960 . S
H850 C842 0.930 . S
H851 C843 0.929 . S
H852 C860 0.929 1_455 S
H853 C862 0.930 . S
H854 C864 0.930 . S
H855 C867 0.929 . S
H856 C870 0.930 . S
H857 C872 0.960 . S
H858 C872 0.960 . S
H859 C872 0.960 . S
C860 H852 0.929 1_655 S
C860 C861 1.377 . S
C860 C862 1.384 1_655 S
C861 C860 1.377 . S
C861 C867 1.390 . S
C862 H853 0.930 . S
C862 C860 1.384 1_455 S
C862 C863 1.372 1_455 S
C863 C862 1.372 1_655 S
C863 C864 1.400 . S
C863 C868 1.490 . S
C864 H854 0.930 . S
C864 C863 1.400 . S
C864 C867 1.386 . S
H865 C881 0.930 . S
H866 C882 0.931 1_655 S
C867 H855 0.929 . S
C867 C861 1.390 . S
C867 C864 1.386 . S
C868 C863 1.490 . S
C868 C870 1.395 1_655 S
C868 C871 1.403 . S
H869 C875 0.930 . S
C870 H856 0.930 . S
C870 C868 1.395 1_455 S
C870 C873 1.403 . S
C871 C868 1.403 . S
C871 C872 1.524 . S
C871 C875 1.400 . S
C872 H857 0.960 . S
C872 H858 0.960 . S
C872 H859 0.960 . S
C872 C871 1.524 . S
C873 C870 1.403 . S
C873 C874 1.392 . S
C873 C877 1.495 . S
C874 C873 1.392 . S
C874 C875 1.385 1_455 S
C874 C876 1.478 . S
C875 H869 0.930 . S
C875 C871 1.400 . S
C875 C874 1.385 1_655 S
C876 C874 1.478 . S
C876 C878 1.381 . S
C876 C882 1.383 . S
C877 C873 1.495 . S
C877 H883 0.959 . S
C877 H884 0.961 . S
C877 H885 0.960 . S
C878 C876 1.381 . S
C878 C879 1.394 . S
C878 H886 0.930 . S
C879 C878 1.394 . S
C879 C880 1.383 . S
C879 H887 0.929 . S
C880 C879 1.383 . S
C880 C881 1.377 . S
C881 H865 0.930 . S
C881 C880 1.377 . S
C881 C882 1.379 . S
C882 H866 0.931 1_455 S
C882 C876 1.383 . S
C882 C881 1.379 . S
H883 C877 0.959 . S
H884 C877 0.961 . S
H885 C877 0.960 . S
H886 C878 0.930 . S
H887 C879 0.929 . S
H888 C896 0.929 1_565 S
H889 C898 0.930 . S
H890 C900 0.930 . S
H891 C903 0.929 . S
H892 C906 0.930 . S
H893 C908 0.960 . S
H894 C908 0.960 . S
H895 C908 0.960 . S
C896 H888 0.929 1_545 S
C896 C897 1.377 . S
C896 C898 1.384 1_545 S
C897 C896 1.377 . S
C897 C903 1.390 . S
C898 H889 0.930 . S
C898 C896 1.384 1_565 S
C898 C899 1.372 1_565 S
C899 C898 1.372 1_545 S
C899 C900 1.400 . S
C899 C904 1.490 . S
C900 H890 0.930 . S
C900 C899 1.400 . S
C900 C903 1.386 . S
H901 C917 0.930 1_545 S
H902 C918 0.931 . S
C903 H891 0.929 . S
C903 C897 1.390 . S
C903 C900 1.386 . S
C904 C899 1.490 . S
C904 C906 1.395 1_545 S
C904 C907 1.403 . S
H905 C911 0.930 . S
C906 H892 0.930 . S
C906 C904 1.395 1_565 S
C906 C909 1.403 1_554 S
C907 C904 1.403 . S
C907 C908 1.524 . S
C907 C911 1.400 1_554 S
C908 H893 0.960 . S
C908 H894 0.960 . S
C908 H895 0.960 . S
C908 C907 1.524 . S
C909 C906 1.403 1_556 S
C909 C910 1.392 . S
C909 C913 1.495 . S
C910 C909 1.392 . S
C910 C911 1.385 1_565 S
C910 C912 1.478 . S
C911 H905 0.930 . S
C911 C907 1.400 1_556 S
C911 C910 1.385 1_545 S
C912 C910 1.478 . S
C912 C914 1.381 . S
C912 C918 1.383 1_565 S
C913 C909 1.495 . S
C913 H919 0.959 . S
C913 H920 0.961 . S
C913 H921 0.960 . S
C914 C912 1.381 . S
C914 C915 1.394 . S
C914 H922 0.930 . S
C915 C914 1.394 . S
C915 C916 1.383 . S
C915 H923 0.929 . S
C916 C915 1.383 . S
C916 C917 1.377 . S
C917 H901 0.930 1_565 S
C917 C916 1.377 . S
C917 C918 1.379 1_565 S
C918 H902 0.931 . S
C918 C912 1.383 1_545 S
C918 C917 1.379 1_545 S
H919 C913 0.959 . S
H920 C913 0.961 . S
H921 C913 0.960 . S
H922 C914 0.930 . S
H923 C915 0.929 . S
H924 C932 0.929 . S
H925 C934 0.930 . S
H926 C936 0.930 . S
H927 C939 0.929 . S
H928 C942 0.930 . S
H929 C944 0.960 . S
H930 C944 0.960 . S
H931 C944 0.960 . S
C932 H924 0.929 . S
C932 C933 1.377 . S
C932 C934 1.384 . S
C933 C932 1.377 . S
C933 C939 1.390 . S
C934 H925 0.930 . S
C934 C932 1.384 . S
C934 C935 1.372 . S
C935 C934 1.372 . S
C935 C936 1.400 . S
C935 C940 1.490 . S
C936 H926 0.930 . S
C936 C935 1.400 . S
C936 C939 1.386 . S
H937 C953 0.930 . S
H938 C954 0.931 . S
C939 H927 0.929 . S
C939 C933 1.390 . S
C939 C936 1.386 . S
C940 C935 1.490 . S
C940 C942 1.395 . S
C940 C943 1.403 . S
H941 C947 0.930 . S
C942 H928 0.930 . S
C942 C940 1.395 . S
C942 C945 1.403 . S
C943 C940 1.403 . S
C943 C944 1.524 . S
C943 C947 1.400 . S
C944 H929 0.960 . S
C944 H930 0.960 . S
C944 H931 0.960 . S
C944 C943 1.524 . S
C945 C942 1.403 . S
C945 C946 1.392 . S
C945 C949 1.495 . S
C946 C945 1.392 . S
C946 C947 1.385 . S
C946 C948 1.478 . S
C947 H941 0.930 . S
C947 C943 1.400 . S
C947 C946 1.385 . S
C948 C946 1.478 . S
C948 C950 1.381 . S
C948 C954 1.383 . S
C949 C945 1.495 . S
C949 H955 0.959 . S
C949 H956 0.961 . S
C949 H957 0.960 . S
C950 C948 1.381 . S
C950 C951 1.394 . S
C950 H958 0.930 . S
C951 C950 1.394 . S
C951 C952 1.383 . S
C951 H959 0.929 . S
C952 C951 1.383 . S
C952 C953 1.377 . S
C953 H937 0.930 . S
C953 C952 1.377 . S
C953 C954 1.379 . S
C954 H938 0.931 . S
C954 C948 1.383 . S
C954 C953 1.379 . S
H955 C949 0.959 . S
H956 C949 0.961 . S
H957 C949 0.960 . S
H958 C950 0.930 . S
H959 C951 0.929 . S
H960 C968 0.929 1_655 S
H961 C970 0.930 . S
H962 C972 0.930 . S
H963 C975 0.929 . S
H964 C978 0.930 . S
H965 C980 0.960 . S
H966 C980 0.960 . S
H967 C980 0.960 . S
C968 H960 0.929 1_455 S
C968 C969 1.377 . S
C968 C970 1.384 1_455 S
C969 C968 1.377 . S
C969 C975 1.390 . S
C970 H961 0.930 . S
C970 C968 1.384 1_655 S
C970 C971 1.372 1_655 S
C971 C970 1.372 1_455 S
C971 C972 1.400 . S
C971 C976 1.490 . S
C972 H962 0.930 . S
C972 C971 1.400 . S
C972 C975 1.386 . S
H973 C989 0.930 1_455 S
H974 C990 0.931 1_455 S
C975 H963 0.929 . S
C975 C969 1.390 . S
C975 C972 1.386 . S
C976 C971 1.490 . S
C976 C978 1.395 1_455 S
C976 C979 1.403 . S
H977 C983 0.930 . S
C978 H964 0.930 . S
C978 C976 1.395 1_655 S
C978 C981 1.403 . S
C979 C976 1.403 . S
C979 C980 1.524 . S
C979 C983 1.400 . S
C980 H965 0.960 . S
C980 H966 0.960 . S
C980 H967 0.960 . S
C980 C979 1.524 . S
C981 C978 1.403 . S
C981 C982 1.392 . S
C981 C985 1.495 . S
C982 C981 1.392 . S
C982 C983 1.385 1_655 S
C982 C984 1.478 . S
C983 H977 0.930 . S
C983 C979 1.400 . S
C983 C982 1.385 1_455 S
C984 C982 1.478 . S
C984 C986 1.381 . S
C984 C990 1.383 . S
C985 C981 1.495 . S
C985 H991 0.959 . S
C985 H992 0.961 . S
C985 H993 0.960 . S
C986 C984 1.381 . S
C986 C987 1.394 . S
C986 H994 0.930 . S
C987 C986 1.394 . S
C987 C988 1.383 . S
C987 H995 0.929 . S
C988 C987 1.383 . S
C988 C989 1.377 . S
C989 H973 0.930 1_655 S
C989 C988 1.377 . S
C989 C990 1.379 . S
C990 H974 0.931 1_655 S
C990 C984 1.383 . S
C990 C989 1.379 . S
H991 C985 0.959 . S
H992 C985 0.961 . S
H993 C985 0.960 . S
H994 C986 0.930 . S
H995 C987 0.929 . S
H996 C1004 0.929 . S
H997 C1006 0.930 . S
H998 C1008 0.930 1_545 S
H999 C1011 0.929 . S
H1000 C1014 0.930 . S
H1001 C1016 0.960 . S
H1002 C1016 0.960 . S
H1003 C1016 0.960 . S
C1004 H996 0.929 . S
C1004 C1005 1.377 . S
C1004 C1006 1.384 . S
C1005 C1004 1.377 . S
C1005 C1011 1.390 . S
C1006 H997 0.930 . S
C1006 C1004 1.384 . S
C1006 C1007 1.372 . S
C1007 C1006 1.372 . S
C1007 C1008 1.400 . S
C1007 C1012 1.490 . S
C1008 H998 0.930 1_565 S
C1008 C1007 1.400 . S
C1008 C1011 1.386 . S
H1009 C1025 0.930 . S
H1010 C1026 0.931 . S
C1011 H999 0.929 . S
C1011 C1005 1.390 . S
C1011 C1008 1.386 . S
C1012 C1007 1.490 . S
C1012 C1014 1.395 1_565 S
C1012 C1015 1.403 . S
H1013 C1019 0.930 . S
C1014 H1000 0.930 . S
C1014 C1012 1.395 1_545 S
C1014 C1017 1.403 1_554 S
C1015 C1012 1.403 . S
C1015 C1016 1.524 . S
C1015 C1019 1.400 1_554 S
C1016 H1001 0.960 . S
C1016 H1002 0.960 . S
C1016 H1003 0.960 . S
C1016 C1015 1.524 . S
C1017 C1014 1.403 1_556 S
C1017 C1018 1.392 . S
C1017 C1021 1.495 . S
C1018 C1017 1.392 . S
C1018 C1019 1.385 1_545 S
C1018 C1020 1.478 . S
C1019 H1013 0.930 . S
C1019 C1015 1.400 1_556 S
C1019 C1018 1.385 1_565 S
C1020 C1018 1.478 . S
C1020 C1022 1.381 . S
C1020 C1026 1.383 . S
C1021 C1017 1.495 . S
C1021 H1027 0.959 . S
C1021 H1028 0.961 . S
C1021 H1029 0.960 . S
C1022 C1020 1.381 . S
C1022 C1023 1.394 . S
C1022 H1030 0.930 1_545 S
C1023 C1022 1.394 . S
C1023 C1024 1.383 . S
C1023 H1031 0.929 . S
C1024 C1023 1.383 . S
C1024 C1025 1.377 . S
C1025 H1009 0.930 . S
C1025 C1024 1.377 . S
C1025 C1026 1.379 . S
C1026 H1010 0.931 . S
C1026 C1020 1.383 . S
C1026 C1025 1.379 . S
H1027 C1021 0.959 . S
H1028 C1021 0.961 . S
H1029 C1021 0.960 . S
H1030 C1022 0.930 1_565 S
H1031 C1023 0.929 . S
C177 C161 1.566 . S
C196 C7 1.583 . S
C213 C21 1.560 . S
C232 C91 1.551 . S
C249 C35 1.569 . S
C268 C105 1.580 . S
C285 C49 1.568 . S
C304 C119 1.552 . S
C321 C133 1.569 . S
C340 C63 1.577 . S
C357 C77 1.560 . S
C376 C147 1.544 . S
C393 C50 1.052 . S
C412 C8 1.076 . S
C429 C64 1.061 . S
C448 C22 1.028 . S
C465 C78 1.063 . S
C484 C36 1.022 . S
C501 C92 1.052 . S
C520 C134 1.078 . S
C537 C106 1.050 . S
C556 C148 1.084 . S
C573 C120 1.051 . S
C592 C162 1.079 . S
C609 C121 0.711 . S
C628 C9 0.718 . S
C645 C23 0.709 . S
C664 C135 0.731 . S
C681 C149 0.723 . S
C700 C37 0.697 . S
C717 C163 0.715 . S
C736 C51 0.742 . S
C753 C93 0.712 . S
C772 C65 0.709 . S
C789 C79 0.709 . S
C808 C107 0.752 . S
C825 C132 1.672 . S
C844 C6 1.690 . S
C861 C20 1.673 . S
C880 C146 1.694 . S
C897 C160 1.670 . S
C916 C34 1.680 . S
C933 C48 1.675 . S
C952 C90 1.651 . S
C969 C62 1.672 . S
C988 C104 1.692 . S
C1005 C118 1.679 . S
C1024 C76 1.683 . S
