# Generated by pormake.
# Topology smu, (6)-cn, num edge types: 1
# Building blocks:
#     Node 0, Type 0, BuildingBlock: MIFKUJ_clean_sbu_0, # of connection points: 6
#     Node 1, Type 0, BuildingBlock: MIFKUJ_clean_sbu_0, # of connection points: 6
#     Node 2, Type 0, BuildingBlock: MIFKUJ_clean_sbu_0, # of connection points: 6
#     Node 3, Type 0, BuildingBlock: MIFKUJ_clean_sbu_0, # of connection points: 6
#     Node 4, Type 0, BuildingBlock: MIFKUJ_clean_sbu_0, # of connection points: 6
#     Node 5, Type 0, BuildingBlock: MIFKUJ_clean_sbu_0, # of connection points: 6
#     Edge 6, Type (0, 0), BuildingBlock: FUNLAD_clean_linker_0, # of connection points: 2
#     Edge 7, Type (0, 0), BuildingBlock: FUNLAD_clean_linker_0, # of connection points: 2
#     Edge 8, Type (0, 0), BuildingBlock: FUNLAD_clean_linker_0, # of connection points: 2
#     Edge 9, Type (0, 0), BuildingBlock: FUNLAD_clean_linker_0, # of connection points: 2
#     Edge 10, Type (0, 0), BuildingBlock: FUNLAD_clean_linker_0, # of connection points: 2
#     Edge 11, Type (0, 0), BuildingBlock: FUNLAD_clean_linker_0, # of connection points: 2
#     Edge 12, Type (0, 0), BuildingBlock: FUNLAD_clean_linker_0, # of connection points: 2
#     Edge 13, Type (0, 0), BuildingBlock: FUNLAD_clean_linker_0, # of connection points: 2
#     Edge 14, Type (0, 0), BuildingBlock: FUNLAD_clean_linker_0, # of connection points: 2
#     Edge 15, Type (0, 0), BuildingBlock: FUNLAD_clean_linker_0, # of connection points: 2
#     Edge 16, Type (0, 0), BuildingBlock: FUNLAD_clean_linker_0, # of connection points: 2
#     Edge 17, Type (0, 0), BuildingBlock: FUNLAD_clean_linker_0, # of connection points: 2
#     Edge 18, Type (0, 0), BuildingBlock: FUNLAD_clean_linker_0, # of connection points: 2
#     Edge 19, Type (0, 0), BuildingBlock: FUNLAD_clean_linker_0, # of connection points: 2
#     Edge 20, Type (0, 0), BuildingBlock: FUNLAD_clean_linker_0, # of connection points: 2
#     Edge 21, Type (0, 0), BuildingBlock: FUNLAD_clean_linker_0, # of connection points: 2
#     Edge 22, Type (0, 0), BuildingBlock: FUNLAD_clean_linker_0, # of connection points: 2
#     Edge 23, Type (0, 0), BuildingBlock: FUNLAD_clean_linker_0, # of connection points: 2
# Relax obj value: 0.227
# Max RMSD: 0.288
# Mean RMSD: 0.288
data_MOF--net-smu--node1-MIFKUJ_clean_sbu_0--edge1-FUNLAD_clean_linker_0
_symmetry_space_group_name_H-M    P1
_symmetry_Int_Tables_number       1
_symmetry_cell_setting            triclinic
loop_
_symmetry_equiv_pos_as_xyz
'x, y, z'
_cell_length_a     38.33422
_cell_length_b     38.524709
_cell_length_c     32.11455
_cell_angle_alpha  89.992349
_cell_angle_beta   90.198052
_cell_angle_gamma 120.45004
loop_
_atom_site_label
_atom_site_type_symbol
_atom_site_fract_x
_atom_site_fract_y
_atom_site_fract_z
_atom_type_partial_charge
Zn0 Zn 0.28022 0.04332 0.24375 0.0
Zn1 Zn 0.37851 0.12966 0.24186 0.0
C2 C 0.24619 0.08589 0.28032 0.0
O3 O 0.2393 0.05949 0.30975 0.0
C4 C 0.45233 0.13121 0.2235 0.0
O5 O 0.44784 0.14581 0.18821 0.0
O6 O 0.22626 0.99204 0.24997 0.0
O7 O 0.30082 0.04409 0.18755 0.0
O8 O 0.3568 0.10418 0.18486 0.0
C9 C 0.19834 0.98486 0.22389 0.0
O10 O 0.20647 0.00966 0.19249 0.0
O11 O 0.26702 0.08734 0.24897 0.0
C12 C 0.42412 0.21044 0.26949 0.0
O13 O 0.4265 0.19114 0.30211 0.0
O14 O 0.40321 0.19009 0.23828 0.0
O15 O 0.34569 0.11011 0.2951 0.0
O16 O 0.31627 0.04445 0.28884 0.0
O17 O 0.42585 0.12157 0.25175 0.0
C18 C 0.33003 0.07182 0.16733 0.0
C19 C 0.33716 0.07618 0.31005 0.0
Zn20 Zn 0.7445 0.71497 0.25113 0.0
Zn21 Zn 0.75352 0.63694 0.25279 0.0
C22 C 0.82981 0.76204 0.26811 0.0
O23 O 0.81645 0.77312 0.30013 0.0
C24 C 0.68615 0.56496 0.2231 0.0
O25 O 0.71203 0.57353 0.1926 0.0
O26 O 0.73721 0.76281 0.24596 0.0
O27 O 0.71197 0.67701 0.20584 0.0
O28 O 0.7615 0.66504 0.197 0.0
C29 C 0.75002 0.78442 0.21344 0.0
O30 O 0.76665 0.77414 0.18384 0.0
O31 O 0.80435 0.73626 0.24271 0.0
C32 C 0.78423 0.58801 0.2801 0.0
O33 O 0.76132 0.58449 0.31205 0.0
O34 O 0.78731 0.61099 0.25024 0.0
O35 O 0.76571 0.66488 0.30947 0.0
O36 O 0.72932 0.69459 0.30849 0.0
O37 O 0.69629 0.58935 0.25358 0.0
C38 C 0.73369 0.66996 0.18169 0.0
C39 C 0.74847 0.68107 0.32849 0.0
Zn40 Zn 0.93133 0.20313 0.23887 0.0
Zn41 Zn 0.87911 0.26067 0.23697 0.0
C42 C 0.86091 0.13072 0.26467 0.0
O43 O 0.8769 0.1449 0.30146 0.0
C44 C 0.85528 0.31715 0.20896 0.0
O45 O 0.84225 0.29418 0.17563 0.0
O46 O 0.97409 0.18784 0.24351 0.0
O47 O 0.94622 0.23741 0.18782 0.0
O48 O 0.91314 0.27078 0.18612 0.0
C49 C 0.98594 0.17546 0.21306 0.0
O50 O 0.96842 0.17039 0.17654 0.0
O51 O 0.87791 0.15186 0.23261 0.0
C52 C 0.79961 0.20654 0.2623 0.0
O53 O 0.81473 0.22872 0.29594 0.0
O54 O 0.8231 0.21233 0.23191 0.0
O55 O 0.90509 0.26522 0.29242 0.0
O56 O 0.93693 0.23076 0.2931 0.0
O57 O 0.8712 0.30801 0.23849 0.0
C58 C 0.93764 0.26161 0.17006 0.0
C59 C 0.92628 0.25323 0.31102 0.0
Zn60 Zn 0.08882 0.40313 0.73997 0.0
Zn61 Zn 0.07836 0.3053 0.74687 0.0
C62 C 0.17046 0.43673 0.76903 0.0
O63 O 0.15715 0.45111 0.79806 0.0
C64 C 0.0124 0.2267 0.73443 0.0
O65 O 0.03038 0.2343 0.69805 0.0
O66 O 0.092 0.45705 0.74132 0.0
O67 O 0.06348 0.37724 0.68586 0.0
O68 O 0.06626 0.32135 0.69138 0.0
C69 C 0.11115 0.48214 0.71249 0.0
O70 O 0.12784 0.47191 0.6829 0.0
O71 O 0.14603 0.41393 0.74108 0.0
C72 C 0.12399 0.26962 0.76954 0.0
O73 O 0.10644 0.26828 0.80506 0.0
O74 O 0.11868 0.28715 0.73872 0.0
O75 O 0.09475 0.34318 0.79596 0.0
O76 O 0.05808 0.37206 0.79027 0.0
O77 O 0.02704 0.25393 0.76235 0.0
C78 C 0.05963 0.34526 0.67011 0.0
C79 C 0.0699 0.35213 0.81152 0.0
Zn80 Zn 0.29835 0.90566 0.7358 0.0
Zn81 Zn 0.24163 0.9562 0.73272 0.0
C82 C 0.22895 0.83496 0.76441 0.0
O83 O 0.24852 0.84913 0.79974 0.0
C84 C 0.20558 0.0037 0.70575 0.0
O85 O 0.18823 0.97616 0.67658 0.0
O86 O 0.33627 0.88394 0.74118 0.0
O87 O 0.31408 0.9394 0.68374 0.0
O88 O 0.27635 0.96795 0.68261 0.0
C89 C 0.36472 0.89088 0.71615 0.0
O90 O 0.37055 0.91335 0.6832 0.0
O91 O 0.24286 0.85627 0.73177 0.0
C92 C 0.16322 0.90125 0.75725 0.0
O93 O 0.17557 0.9296 0.78574 0.0
O94 O 0.18835 0.90383 0.72994 0.0
O95 O 0.27041 0.96539 0.78697 0.0
O96 O 0.30748 0.93622 0.78923 0.0
O97 O 0.22842 1.00052 0.73234 0.0
C98 C 0.3029 0.96182 0.66636 0.0
C99 C 0.29488 0.95774 0.80579 0.0
Zn100 Zn 0.6197 0.69995 0.74302 0.0
Zn101 Zn 0.73988 0.7817 0.73741 0.0
C102 C 0.58795 0.74955 0.76538 0.0
O103 O 0.58112 0.72881 0.79992 0.0
C104 C 0.80044 0.75723 0.72766 0.0
O105 O 0.77766 0.72806 0.75354 0.0
O106 O 0.56692 0.65053 0.75847 0.0
O107 O 0.63801 0.69014 0.68719 0.0
O108 O 0.68868 0.74361 0.71159 0.0
C109 C 0.53913 0.63779 0.73101 0.0
O110 O 0.5474 0.6558 0.69462 0.0
O111 O 0.60646 0.74381 0.73587 0.0
C112 C 0.77888 0.86261 0.76299 0.0
O113 O 0.79345 0.84718 0.78958 0.0
O114 O 0.75247 0.83933 0.73665 0.0
O115 O 0.72827 0.76001 0.79555 0.0
O116 O 0.66181 0.71522 0.79078 0.0
O117 O 0.78874 0.78109 0.71548 0.0
C118 C 0.67438 0.71776 0.68282 0.0
C119 C 0.69512 0.73246 0.81143 0.0
C120 C 0.30084 0.00352 0.86391 0.0
C121 C 0.30813 0.97369 0.84833 0.0
C122 C 0.31092 0.01698 0.90489 0.0
C123 C 0.32847 1.00081 0.93123 0.0
C124 C 0.33639 0.97152 0.9155 0.0
C125 C 0.32668 0.95832 0.8743 0.0
C126 C 0.33466 0.01071 0.97617 0.0
C127 C 0.34061 0.04567 0.99196 0.0
C128 C 0.33934 0.05195 0.03726 0.0
C129 C 0.3623 0.09076 0.05417 0.0
C130 C 0.35983 0.09739 0.09662 0.0
C131 C 0.33357 0.06536 0.12258 0.0
H132 H 0.29402 0.98991 0.051 0.0
C133 C 0.31031 0.02663 0.1054 0.0
C134 C 0.31318 0.01997 0.06328 0.0
H135 H 0.28971 0.00129 0.12447 0.0
H136 H 0.28661 0.016 0.84469 0.0
H137 H 0.30327 0.03874 0.91621 0.0
H138 H 0.34948 0.95831 0.93535 0.0
H139 H 0.33256 0.93521 0.86325 0.0
H140 H 0.33334 0.98788 -0.00293 0.0
H141 H 0.34613 0.07027 0.97131 0.0
H142 H 0.38222 0.11595 0.03454 0.0
H143 H 0.37799 0.12761 0.10892 0.0
C144 C 0.68608 0.68185 0.62503 0.0
C145 C 0.69892 0.71743 0.64779 0.0
C146 C 0.70533 0.68239 0.58807 0.0
C147 C 0.73785 0.7187 0.57298 0.0
C148 C 0.75186 0.7539 0.59684 0.0
C149 C 0.73269 0.75327 0.63405 0.0
C150 C 0.75326 0.72191 0.52997 0.0
C151 C 0.74865 0.69012 0.50788 0.0
C152 C 0.75299 0.69119 0.46194 0.0
C153 C 0.76222 0.66429 0.44227 0.0
C154 C 0.76189 0.66163 0.39879 0.0
C155 C 0.75137 0.68521 0.37429 0.0
H156 H 0.73493 0.73564 0.45123 0.0
C157 C 0.74264 0.71245 0.39401 0.0
C158 C 0.74348 0.71547 0.43728 0.0
H159 H 0.73457 0.73116 0.37601 0.0
H160 H 0.66003 0.65379 0.63489 0.0
H161 H 0.69284 0.65477 0.57028 0.0
H162 H 0.77654 0.78234 0.58574 0.0
H163 H 0.7428 0.78124 0.6507 0.0
H164 H 0.76644 0.7512 0.51507 0.0
H165 H 0.7394 0.66171 0.52336 0.0
H166 H 0.76908 0.64486 0.4606 0.0
H167 H 0.7687 0.6403 0.38444 0.0
C168 C 0.98436 0.27043 0.1115 0.0
C169 C 0.95589 0.27876 0.12917 0.0
C170 C 1.00044 0.28523 0.07221 0.0
C171 C 0.98805 0.30838 0.04946 0.0
C172 C 0.96063 0.31779 0.06768 0.0
C173 C 0.94459 0.30305 0.10705 0.0
C174 C 0.00312 0.32333 0.00688 0.0
C175 C 0.01618 0.30489 0.98093 0.0
C176 C 0.03028 0.31868 0.93788 0.0
C177 C 0.05617 0.30748 0.91928 0.0
C178 C 0.06937 0.31874 0.87846 0.0
C179 C 0.05658 0.34115 0.8551 0.0
H180 H 0.99635 0.34921 0.9272 0.0
C181 C 0.03044 0.35222 0.87357 0.0
C182 C 0.01733 0.34106 0.91452 0.0
H183 H 0.01975 0.36919 0.85629 0.0
H184 H 0.99422 0.25233 0.12795 0.0
H185 H 0.02276 0.27866 0.0601 0.0
H186 H 0.95096 0.33597 0.05105 0.0
H187 H 0.92292 0.31029 0.11984 0.0
H188 H 0.00219 0.34965 -0.00354 0.0
H189 H 0.01687 0.27845 0.99135 0.0
H190 H 0.06633 0.28998 0.93644 0.0
H191 H 0.08942 0.30962 0.86519 0.0
C192 C 0.33839 0.03505 0.36933 0.0
C193 C 0.34634 0.07249 0.35397 0.0
C194 C 0.34395 0.03025 0.41136 0.0
C195 C 0.35793 0.06294 0.43909 0.0
C196 C 0.36701 0.10068 0.42353 0.0
C197 C 0.36154 0.10553 0.38129 0.0
C198 C 0.35843 0.05735 0.48476 0.0
C199 C 0.35945 0.02602 0.50207 0.0
C200 C 0.34903 0.01399 0.54623 0.0
C201 C 0.3599 0.98754 0.56417 0.0
C202 C 0.34594 0.97132 0.60371 0.0
C203 C 0.32044 0.98098 0.62591 0.0
H204 H 0.3142 0.0437 0.55602 0.0
C205 C 0.31046 0.00829 0.60838 0.0
C206 C 0.32444 0.02449 0.56902 0.0
H207 H 0.2909 0.01645 0.62458 0.0
H208 H 0.32677 0.00899 0.34909 0.0
H209 H 0.33535 1.00035 0.42206 0.0
H210 H 0.37739 0.12625 0.44428 0.0
H211 H 0.36805 0.13481 0.37036 0.0
H212 H 0.35588 0.07883 0.50449 0.0
H213 H 0.36624 0.00702 0.48286 0.0
H214 H 0.37842 0.97859 0.54711 0.0
H215 H 0.35419 0.95038 0.61629 0.0
C216 C 0.73152 0.73727 0.87803 0.0
C217 C 0.69518 0.72048 0.8552 0.0
C218 C 0.73162 0.72636 0.91946 0.0
C219 C 0.69534 0.69817 0.93895 0.0
C220 C 0.65904 0.68158 0.91624 0.0
C221 C 0.65893 0.6924 0.87475 0.0
C222 C 0.69394 0.68732 0.98349 0.0
C223 C 0.72593 0.69023 0.00422 0.0
C224 C 0.72549 0.68249 0.04955 0.0
C225 C 0.75361 0.67296 0.06593 0.0
C226 C 0.75572 0.66792 0.10879 0.0
C227 C 0.72995 0.67271 0.13616 0.0
H228 H 0.67827 0.69558 0.06587 0.0
C229 C 0.70157 0.68192 0.11974 0.0
C230 C 0.69946 0.68694 0.07697 0.0
H231 H 0.68149 0.68616 0.13999 0.0
H232 H 0.75997 0.75917 0.86405 0.0
H233 H 0.76006 0.74089 0.93625 0.0
H234 H 0.63062 0.66015 0.93065 0.0
H235 H 0.63034 0.67898 0.85816 0.0
H236 H 0.66516 0.67571 -0.0007 0.0
H237 H 0.75346 0.69794 0.98741 0.0
H238 H 0.77426 0.66973 0.04555 0.0
H239 H 0.77799 0.66091 0.12047 0.0
C240 C 0.95789 0.24866 0.37739 0.0
C241 C 0.93912 0.26582 0.35454 0.0
C242 C 0.97068 0.2608 0.41823 0.0
C243 C 0.96552 0.29091 0.43704 0.0
C244 C 0.9459 0.30738 0.41454 0.0
C245 C 0.93288 0.29505 0.37368 0.0
C246 C 0.97925 0.30504 0.48026 0.0
C247 C 0.00881 0.30173 0.49919 0.0
C248 C 0.0214 0.31383 0.54292 0.0
C249 C 0.03711 0.29356 0.56533 0.0
C250 C 0.04928 0.3037 0.60663 0.0
C251 C 0.0466 0.33486 0.62629 0.0
H252 H 0.00811 0.36235 0.54556 0.0
C253 C 0.03159 0.35577 0.60364 0.0
C254 C 0.019 0.3453 0.56231 0.0
H255 H 0.02943 0.38011 0.61783 0.0
H256 H 0.96253 0.22556 0.36385 0.0
H257 H 0.98397 0.24593 0.43492 0.0
H258 H 0.94105 0.33021 0.42846 0.0
H259 H 0.91828 0.30871 0.357 0.0
H260 H 0.96448 0.31866 0.49676 0.0
H261 H 0.02381 0.28835 0.48277 0.0
H262 H 0.03958 0.26944 0.55096 0.0
H263 H 0.06105 0.28721 0.62302 0.0
C264 C 0.51929 0.14139 0.20075 0.0
C265 C 0.48882 0.12817 0.23103 0.0
C266 C 0.55504 0.14118 0.20877 0.0
C267 C 0.56102 0.12734 0.24725 0.0
C268 C 0.53012 0.11331 0.27711 0.0
C269 C 0.49438 0.11359 0.26911 0.0
C270 C 0.60034 0.13088 0.25894 0.0
C271 C 0.62878 0.13572 0.23113 0.0
C272 C 0.67114 0.14744 0.24244 0.0
C273 C 0.69657 0.14708 0.2112 0.0
C274 C 0.7381 0.16396 0.21834 0.0
C275 C 0.75516 0.18173 0.25694 0.0
H276 H 0.67012 0.16474 0.30691 0.0
C277 C 0.72943 0.17982 0.28903 0.0
C278 C 0.688 0.16311 0.2819 0.0
H279 H 0.74155 0.19315 0.3192 0.0
H280 H 0.51606 0.15297 0.17115 0.0
H281 H 0.57834 0.15343 0.18525 0.0
H282 H 0.53395 0.10282 0.30714 0.0
H283 H 0.47149 0.10315 0.29312 0.0
H284 H 0.60604 0.13037 0.29195 0.0
H285 H 0.62147 0.13257 0.19816 0.0
H286 H 0.68459 0.13526 0.18052 0.0
H287 H 0.75704 0.16481 0.19295 0.0
C288 C 0.62253 0.51293 0.25865 0.0
C289 C 0.6478 0.52565 0.22353 0.0
C290 C 0.5884 0.47417 0.26016 0.0
C291 C 0.57896 0.44725 0.22656 0.0
C292 C 0.60322 0.46078 0.19082 0.0
C293 C 0.63728 0.49938 0.18934 0.0
C294 C 0.54491 0.40469 0.2276 0.0
C295 C 0.52919 0.38387 0.26309 0.0
C296 C 0.49957 0.33973 0.2643 0.0
C297 C 0.49693 0.31856 0.30085 0.0
C298 C 0.47172 0.27679 0.30276 0.0
C299 C 0.44818 0.25507 0.26818 0.0
H300 H 0.47471 0.33342 0.20186 0.0
C301 C 0.44943 0.27632 0.23209 0.0
C302 C 0.47474 0.31822 0.23016 0.0
H303 H 0.43135 0.26054 0.20505 0.0
H304 H 0.62957 0.53258 0.28536 0.0
H305 H 0.56977 0.46553 0.28775 0.0
H306 H 0.59652 0.44098 0.16427 0.0
H307 H 0.65585 0.50827 0.16163 0.0
H308 H 0.53537 0.38908 0.19794 0.0
H309 H 0.54115 0.39867 0.2928 0.0
H310 H 0.5153 0.33425 0.3278 0.0
H311 H 0.47132 0.26148 0.3312 0.0
C312 C 0.86948 0.37981 0.24641 0.0
C313 C 0.85181 0.35352 0.21243 0.0
C314 C 0.86579 0.41384 0.25049 0.0
C315 C 0.84384 0.42209 0.22089 0.0
C316 C 0.82716 0.39645 0.18632 0.0
C317 C 0.831 0.36241 0.18213 0.0
C318 C 0.83762 0.45695 0.22515 0.0
C319 C 0.83822 0.47372 0.26218 0.0
C320 C 0.82783 0.50569 0.267 0.0
C321 C 0.81106 0.50841 0.30475 0.0
C322 C 0.79805 0.53609 0.30952 0.0
C323 C 0.80201 0.56194 0.2767 0.0
H324 H 0.84786 0.53269 0.20587 0.0
C325 C 0.82081 0.56072 0.23967 0.0
C326 C 0.83365 0.5329 0.23485 0.0
H327 H 0.82471 0.58056 0.21396 0.0
H328 H 0.88631 0.37419 0.26997 0.0
H329 H 0.88046 0.43362 0.27673 0.0
H330 H 0.81046 0.40234 0.16283 0.0
H331 H 0.81729 0.34289 0.15544 0.0
H332 H 0.82908 0.46685 0.19726 0.0
H333 H 0.8428 0.46124 0.29058 0.0
H334 H 0.80676 0.48817 0.33021 0.0
H335 H 0.78402 0.53651 0.33858 0.0
C336 C 0.09742 0.53387 0.7437 0.0
C337 C 0.11589 0.52279 0.71284 0.0
C338 C 0.10346 0.57289 0.74484 0.0
C339 C 0.12848 0.60184 0.71527 0.0
C340 C 0.1458 0.59019 0.68374 0.0
C341 C 0.13966 0.55124 0.68253 0.0
C342 C 0.13863 0.64467 0.71652 0.0
C343 C 0.13358 0.66268 0.75014 0.0
C344 C 0.1516 0.70711 0.75325 0.0
C345 C 0.16304 0.72527 0.79267 0.0
C346 C 0.18588 0.76715 0.79656 0.0
C347 C 0.19751 0.79181 0.76105 0.0
H348 H 0.15017 0.71906 0.68727 0.0
C349 C 0.18284 0.77382 0.72191 0.0
C350 C 0.16004 0.73187 0.71802 0.0
H351 H 0.19065 0.79198 0.69398 0.0
H352 H 0.0785 0.51249 0.76722 0.0
H353 H 0.08845 0.57994 0.76899 0.0
H354 H 0.16497 0.6116 0.66034 0.0
H355 H 0.15415 0.5437 0.65815 0.0
H356 H 0.15467 0.663 0.68976 0.0
H357 H 0.12038 0.64544 0.77826 0.0
H358 H 0.15633 0.707 0.82044 0.0
H359 H 0.19618 0.78002 0.82727 0.0
C360 C 0.42241 0.88092 0.69683 0.0
C361 C 0.3915 0.8744 0.72471 0.0
C362 C 0.44786 0.86556 0.70519 0.0
C363 C 0.44305 0.84351 0.74187 0.0
C364 C 0.4119 0.83678 0.76944 0.0
C365 C 0.38648 0.85208 0.76108 0.0
C366 C 0.46855 0.82566 0.75202 0.0
C367 C 0.50473 0.83707 0.73455 0.0
C368 C 0.52835 0.81717 0.74438 0.0
C369 C 0.55355 0.81564 0.71373 0.0
C370 C 0.57402 0.79475 0.72091 0.0
C371 C 0.57001 0.77532 0.75915 0.0
H372 H 0.50819 0.80138 0.80841 0.0
C373 C 0.54648 0.77866 0.7906 0.0
C374 C 0.52595 0.79943 0.78338 0.0
H375 H 0.54317 0.76451 0.82062 0.0
H376 H 0.42686 0.89772 0.66835 0.0
H377 H 0.47058 0.87051 0.68237 0.0
H378 H 0.40722 0.81967 0.79776 0.0
H379 H 0.36293 0.84642 0.78323 0.0
H380 H 0.45652 0.80171 0.775 0.0
H381 H 0.51697 0.86046 0.71104 0.0
H382 H 0.55639 0.82954 0.68363 0.0
H383 H 0.59216 0.79301 0.69611 0.0
C384 C 0.24184 0.47914 0.79442 0.0
C385 C 0.21411 0.45037 0.76628 0.0
C386 C 0.28347 0.49542 0.78919 0.0
C387 C 0.29831 0.48298 0.75578 0.0
C388 C 0.27045 0.45319 0.72857 0.0
C389 C 0.22884 0.43695 0.73379 0.0
C390 C 0.34221 0.50309 0.74576 0.0
C391 C 0.37212 0.5259 0.7729 0.0
C392 C 0.41533 0.5511 0.76057 0.0
C393 C 0.44557 0.56419 0.79134 0.0
C394 C 0.4861 0.59121 0.78159 0.0
C395 C 0.49716 0.60605 0.74085 0.0
H396 H 0.40435 0.55703 0.69511 0.0
C397 C 0.46706 0.59226 0.70988 0.0
C398 C 0.42665 0.56525 0.71958 0.0
H399 H 0.47448 0.60322 0.67822 0.0
H400 H 0.23152 0.49024 0.81972 0.0
H401 H 0.30366 0.51895 0.81036 0.0
H402 H 0.28093 0.44315 0.70245 0.0
H403 H 0.20831 0.41475 0.71158 0.0
H404 H 0.34994 0.49932 0.71425 0.0
H405 H 0.365 0.52675 0.80542 0.0
H406 H 0.43772 0.55411 0.82324 0.0
H407 H 0.50854 0.60136 0.80623 0.0
C408 C 0.22354 0.12879 0.24414 0.0
C409 C 0.22347 0.10752 0.27975 0.0
C410 C 0.19696 0.14351 0.24095 0.0
C411 C 0.16968 0.13713 0.27333 0.0
C412 C 0.17165 0.11836 0.31 0.0
C413 C 0.19809 0.10352 0.31313 0.0
C414 C 0.1381 0.14852 0.26969 0.0
C415 C 0.12178 0.15006 0.23294 0.0
C416 C 0.08719 0.15719 0.22886 0.0
C417 C 0.06515 0.14661 0.19134 0.0
C418 C 0.03213 0.15228 0.18618 0.0
C419 C 0.02042 0.16873 0.2185 0.0
H420 H 0.09253 0.18416 0.28991 0.0
C421 C 0.04266 0.17971 0.2559 0.0
C422 C 0.07581 0.1743 0.26097 0.0
H423 H 0.0348 0.19301 0.28124 0.0
H424 H 0.24304 0.1328 0.21803 0.0
H425 H 0.19751 0.1593 0.21287 0.0
H426 H 0.15146 0.11363 0.33569 0.0
H427 H 0.19752 0.0876 0.34116 0.0
H428 H 0.12554 0.15193 0.29856 0.0
H429 H 0.13226 0.14307 0.20451 0.0
H430 H 0.07331 0.13363 0.16594 0.0
H431 H 0.01578 0.14369 0.15689 0.0
C432 C 0.90181 0.80905 0.28917 0.0
C433 C 0.87387 0.78146 0.26031 0.0
C434 C 0.94328 0.82964 0.2807 0.0
C435 C 0.95783 0.823 0.24311 0.0
C436 C 0.92992 0.79497 0.21457 0.0
C437 C 0.88843 0.77421 0.22314 0.0
C438 C 1.00129 0.84707 0.23129 0.0
C439 C 0.03173 0.86522 0.2592 0.0
C440 C 0.0747 0.89308 0.2475 0.0
C441 C 0.10538 0.90052 0.27632 0.0
C442 C 0.14577 0.92926 0.26809 0.0
C443 C 0.15633 0.9516 0.23096 0.0
H444 H 0.06273 0.91088 0.18727 0.0
C445 C 0.12577 0.94361 0.20172 0.0
C446 C 0.08543 0.91478 0.20987 0.0
H447 H 0.13281 0.9604 0.17289 0.0
H448 H 0.89163 0.81548 0.31803 0.0
H449 H 0.96352 0.85178 0.30304 0.0
H450 H 0.9402 0.78948 0.18524 0.0
H451 H 0.86773 0.75323 0.20017 0.0
H452 H 0.00823 0.8496 0.19829 0.0
H453 H 0.02518 0.85949 0.29218 0.0
H454 H 0.09801 0.88452 0.30569 0.0
H455 H 0.16852 0.93475 0.29138 0.0
C456 C 0.81487 0.07129 0.22023 0.0
C457 C 0.82886 0.08801 0.25997 0.0
C458 C 0.79063 0.02961 0.21516 0.0
C459 C 0.78026 0.00383 0.24978 0.0
C460 C 0.7912 0.02089 0.28974 0.0
C461 C 0.81531 0.06252 0.29482 0.0
C462 C 0.76122 0.9594 0.24564 0.0
C463 C 0.7654 0.94153 0.2114 0.0
C464 C 0.75634 0.89908 0.21023 0.0
C465 C 0.77398 0.88796 0.17855 0.0
C466 C 0.7707 0.85016 0.17873 0.0
C467 C 0.74965 0.82255 0.21069 0.0
H468 H 0.71758 0.87686 0.2649 0.0
C469 C 0.73003 0.83267 0.24112 0.0
C470 C 0.73306 0.8704 0.24078 0.0
H471 H 0.71294 0.81172 0.26574 0.0
H472 H 0.82408 0.0902 0.19279 0.0
H473 H 0.78124 0.01782 0.18399 0.0
H474 H 0.78306 0.00185 0.31704 0.0
H475 H 0.82506 0.07445 0.32594 0.0
H476 H 0.74847 0.94196 0.27374 0.0
H477 H 0.78074 0.95983 0.18442 0.0
H478 H 0.79173 0.90914 0.15434 0.0
H479 H 0.78588 0.8432 0.15459 0.0
C480 C 0.15382 0.23822 0.72426 0.0
C481 C 0.14423 0.24587 0.76416 0.0
C482 C 0.16807 0.21149 0.71899 0.0
C483 C 0.17299 0.1919 0.75359 0.0
C484 C 0.16552 0.20133 0.79355 0.0
C485 C 0.15106 0.22779 0.7988 0.0
C486 C 0.1853 0.16115 0.74947 0.0
C487 C 0.17766 0.13798 0.7153 0.0
C488 C 0.18622 0.1044 0.71283 0.0
C489 C 0.1648 0.07338 0.68375 0.0
C490 C 0.17108 0.04069 0.68124 0.0
C491 C 0.19909 0.03841 0.70774 0.0
H492 H 0.23332 0.12644 0.76037 0.0
C493 C 0.22117 0.06986 0.73622 0.0
C494 C 0.21504 0.10258 0.73858 0.0
H495 H 0.24343 0.06936 0.75668 0.0
H496 H 0.14915 0.2519 0.69695 0.0
H497 H 0.17488 0.20611 0.68781 0.0
H498 H 0.16959 0.18712 0.82079 0.0
H499 H 0.14428 0.23328 0.83 0.0
H500 H 0.19776 0.15516 0.77709 0.0
H501 H 0.16176 0.1416 0.68915 0.0
H502 H 0.14268 0.07412 0.66325 0.0
H503 H 0.15374 0.01708 0.65879 0.0
C504 C 0.09136 0.87772 0.77461 0.0
C505 C 0.11953 0.87144 0.75304 0.0
C506 C 0.05003 0.8532 0.76714 0.0
C507 C 0.03578 0.82146 0.73831 0.0
C508 C 0.06356 0.81342 0.71857 0.0
C509 C 0.10525 0.83857 0.72547 0.0
C510 C 0.992 0.79762 0.72834 0.0
C511 C 0.97106 0.81636 0.72068 0.0
C512 C 0.92646 0.79589 0.71583 0.0
C513 C 0.91005 0.81659 0.69539 0.0
C514 C 0.86859 0.80237 0.69672 0.0
C515 C 0.84256 0.76736 0.7192 0.0
H516 H 0.91183 0.74281 0.75239 0.0
C517 C 0.85856 0.74516 0.73747 0.0
C518 C 0.90017 0.75927 0.73579 0.0
H519 H 0.83933 0.71803 0.75495 0.0
H520 H 0.10121 0.90259 0.7962 0.0
H521 H 0.02914 0.85944 0.78353 0.0
H522 H 0.05312 0.78876 0.69658 0.0
H523 H 0.12626 0.83281 0.70864 0.0
H524 H 0.97736 0.76504 0.72671 0.0
H525 H 0.98759 0.84908 0.71871 0.0
H526 H 0.92963 0.84486 0.67978 0.0
H527 H 0.85734 0.82011 0.682 0.0
C528 C 0.96131 0.15705 0.71135 0.0
C529 C 0.97762 0.18605 0.74323 0.0
C530 C 0.93073 0.11764 0.71979 0.0
C531 C 0.91545 0.10625 0.76041 0.0
C532 C 0.93121 0.13548 0.79212 0.0
C533 C 0.96181 0.17503 0.78363 0.0
C534 C 0.88611 0.06358 0.7714 0.0
C535 C 0.8616 0.03561 0.74337 0.0
C536 C 0.83727 0.99164 0.75232 0.0
C537 C 0.8062 0.96649 0.72454 0.0
C538 C 0.78591 0.92457 0.72889 0.0
C539 C 0.79654 0.90685 0.761 0.0
H540 H 0.8712 0.99175 0.80689 0.0
C541 C 0.82664 0.932 0.78965 0.0
C542 C 0.84688 0.97384 0.78533 0.0
H543 H 0.83566 0.91937 0.81472 0.0
H544 H 0.97287 0.16445 0.67989 0.0
H545 H 0.9205 0.096 0.69462 0.0
H546 H 0.92034 0.12752 0.82377 0.0
H547 H 0.9738 0.19661 0.80893 0.0
H548 H 0.88533 0.0551 0.80376 0.0
H549 H 0.85964 0.04497 0.71199 0.0
H550 H 0.79828 0.97927 0.69867 0.0
H551 H 0.76289 0.90608 0.70626 0.0
loop_
_geom_bond_atom_site_label_1
_geom_bond_atom_site_label_2
_geom_bond_distance
_geom_bond_site_symmetry_2
_ccdc_geom_bond_type
Zn0 O6 1.969 . S
Zn0 O7 1.965 . S
Zn0 O11 2.024 . S
Zn0 O16 1.969 . S
Zn1 O8 1.969 . S
Zn1 O14 1.969 . S
Zn1 O15 1.965 . S
Zn1 O17 2.024 . S
C2 O3 1.229 . S
C2 O11 1.058 . S
O3 C2 1.229 . S
C4 O5 1.229 . S
C4 O17 1.058 . S
O5 C4 1.229 . S
O6 Zn0 1.969 . S
O6 C9 1.267 1_545 S
O7 Zn0 1.965 . S
O7 C18 1.260 . S
O8 Zn1 1.969 . S
O8 C18 1.258 . S
C9 O6 1.267 1_565 S
C9 O10 1.228 1_565 S
O10 C9 1.228 1_545 S
O11 Zn0 2.024 . S
O11 C2 1.058 . S
C12 O13 1.228 . S
C12 O14 1.267 . S
O13 C12 1.228 . S
O14 Zn1 1.969 . S
O14 C12 1.267 . S
O15 Zn1 1.965 . S
O15 C19 1.260 . S
O16 Zn0 1.969 . S
O16 C19 1.258 . S
O17 Zn1 2.024 . S
O17 C4 1.058 . S
C18 O7 1.260 . S
C18 O8 1.258 . S
C19 O15 1.260 . S
C19 O16 1.258 . S
Zn20 O26 1.969 . S
Zn20 O27 1.965 . S
Zn20 O31 2.024 . S
Zn20 O36 1.969 . S
Zn21 O28 1.969 . S
Zn21 O34 1.969 . S
Zn21 O35 1.965 . S
Zn21 O37 2.024 . S
C22 O23 1.229 . S
C22 O31 1.058 . S
O23 C22 1.229 . S
C24 O25 1.229 . S
C24 O37 1.058 . S
O25 C24 1.229 . S
O26 Zn20 1.969 . S
O26 C29 1.267 . S
O27 Zn20 1.965 . S
O27 C38 1.260 . S
O28 Zn21 1.969 . S
O28 C38 1.258 . S
C29 O26 1.267 . S
C29 O30 1.228 . S
O30 C29 1.228 . S
O31 Zn20 2.024 . S
O31 C22 1.058 . S
C32 O33 1.228 . S
C32 O34 1.267 . S
O33 C32 1.228 . S
O34 Zn21 1.969 . S
O34 C32 1.267 . S
O35 Zn21 1.965 . S
O35 C39 1.260 . S
O36 Zn20 1.969 . S
O36 C39 1.258 . S
O37 Zn21 2.024 . S
O37 C24 1.058 . S
C38 O27 1.260 . S
C38 O28 1.258 . S
C39 O35 1.260 . S
C39 O36 1.258 . S
Zn40 O46 1.969 . S
Zn40 O47 1.965 . S
Zn40 O51 2.024 . S
Zn40 O56 1.969 . S
Zn41 O48 1.969 . S
Zn41 O54 1.969 . S
Zn41 O55 1.965 . S
Zn41 O57 2.024 . S
C42 O43 1.229 . S
C42 O51 1.058 . S
O43 C42 1.229 . S
C44 O45 1.229 . S
C44 O57 1.058 . S
O45 C44 1.229 . S
O46 Zn40 1.969 . S
O46 C49 1.267 1_655 S
O47 Zn40 1.965 . S
O47 C58 1.260 . S
O48 Zn41 1.969 . S
O48 C58 1.258 . S
C49 O46 1.267 1_455 S
C49 O50 1.228 1_455 S
O50 C49 1.228 1_655 S
O51 Zn40 2.024 . S
O51 C42 1.058 . S
C52 O53 1.228 . S
C52 O54 1.267 . S
O53 C52 1.228 . S
O54 Zn41 1.969 . S
O54 C52 1.267 . S
O55 Zn41 1.965 . S
O55 C59 1.260 . S
O56 Zn40 1.969 . S
O56 C59 1.258 . S
O57 Zn41 2.024 . S
O57 C44 1.058 . S
C58 O47 1.260 . S
C58 O48 1.258 . S
C59 O55 1.260 . S
C59 O56 1.258 . S
Zn60 O66 1.969 . S
Zn60 O67 1.965 . S
Zn60 O71 2.024 . S
Zn60 O76 1.969 . S
Zn61 O68 1.969 . S
Zn61 O74 1.969 . S
Zn61 O75 1.965 . S
Zn61 O77 2.024 . S
C62 O63 1.229 . S
C62 O71 1.058 . S
O63 C62 1.229 . S
C64 O65 1.229 . S
C64 O77 1.058 . S
O65 C64 1.229 . S
O66 Zn60 1.969 . S
O66 C69 1.267 . S
O67 Zn60 1.965 . S
O67 C78 1.260 . S
O68 Zn61 1.969 . S
O68 C78 1.258 . S
C69 O66 1.267 . S
C69 O70 1.228 . S
O70 C69 1.228 . S
O71 Zn60 2.024 . S
O71 C62 1.058 . S
C72 O73 1.228 . S
C72 O74 1.267 . S
O73 C72 1.228 . S
O74 Zn61 1.969 . S
O74 C72 1.267 . S
O75 Zn61 1.965 . S
O75 C79 1.260 . S
O76 Zn60 1.969 . S
O76 C79 1.258 . S
O77 Zn61 2.024 . S
O77 C64 1.058 . S
C78 O67 1.260 . S
C78 O68 1.258 . S
C79 O75 1.260 . S
C79 O76 1.258 . S
Zn80 O86 1.969 . S
Zn80 O87 1.965 . S
Zn80 O91 2.024 . S
Zn80 O96 1.969 . S
Zn81 O88 1.969 . S
Zn81 O94 1.969 . S
Zn81 O95 1.965 . S
Zn81 O97 2.024 . S
C82 O83 1.229 . S
C82 O91 1.058 . S
O83 C82 1.229 . S
C84 O85 1.229 . S
C84 O97 1.058 . S
O85 C84 1.229 . S
O86 Zn80 1.969 . S
O86 C89 1.267 . S
O87 Zn80 1.965 . S
O87 C98 1.260 . S
O88 Zn81 1.969 . S
O88 C98 1.258 . S
C89 O86 1.267 . S
C89 O90 1.228 . S
O90 C89 1.228 . S
O91 Zn80 2.024 . S
O91 C82 1.058 . S
C92 O93 1.228 . S
C92 O94 1.267 . S
O93 C92 1.228 . S
O94 Zn81 1.969 . S
O94 C92 1.267 . S
O95 Zn81 1.965 . S
O95 C99 1.260 . S
O96 Zn80 1.969 . S
O96 C99 1.258 . S
O97 Zn81 2.024 . S
O97 C84 1.058 . S
C98 O87 1.260 . S
C98 O88 1.258 . S
C99 O95 1.260 . S
C99 O96 1.258 . S
Zn100 O106 1.969 . S
Zn100 O107 1.965 . S
Zn100 O111 2.024 . S
Zn100 O116 1.969 . S
Zn101 O108 1.969 . S
Zn101 O114 1.969 . S
Zn101 O115 1.965 . S
Zn101 O117 2.024 . S
C102 O103 1.229 . S
C102 O111 1.058 . S
O103 C102 1.229 . S
C104 O105 1.229 . S
C104 O117 1.058 . S
O105 C104 1.229 . S
O106 Zn100 1.969 . S
O106 C109 1.267 . S
O107 Zn100 1.965 . S
O107 C118 1.260 . S
O108 Zn101 1.969 . S
O108 C118 1.258 . S
C109 O106 1.267 . S
C109 O110 1.228 . S
O110 C109 1.228 . S
O111 Zn100 2.024 . S
O111 C102 1.058 . S
C112 O113 1.228 . S
C112 O114 1.267 . S
O113 C112 1.228 . S
O114 Zn101 1.969 . S
O114 C112 1.267 . S
O115 Zn101 1.965 . S
O115 C119 1.260 . S
O116 Zn100 1.969 . S
O116 C119 1.258 . S
O117 Zn101 2.024 . S
O117 C104 1.058 . S
C118 O107 1.260 . S
C118 O108 1.258 . S
C119 O115 1.260 . S
C119 O116 1.258 . S
C120 C121 1.386 . S
C120 C122 1.383 . S
C120 H136 0.951 . S
C121 C120 1.386 . S
C121 C125 1.383 . S
C122 C120 1.383 . S
C122 C123 1.402 . S
C122 H137 0.951 . S
C123 C122 1.402 . S
C123 C124 1.375 . S
C123 C126 1.490 . S
C124 C123 1.375 . S
C124 C125 1.367 . S
C124 H138 0.951 . S
C125 C121 1.383 . S
C125 C124 1.367 . S
C125 H139 0.950 . S
C126 C123 1.490 . S
C126 C127 1.292 1_556 S
C126 H140 0.945 1_556 S
C127 C126 1.292 1_554 S
C127 C128 1.479 1_565 S
C127 H141 0.950 . S
C128 C127 1.479 1_545 S
C128 C129 1.375 . S
C128 C134 1.404 . S
C129 C128 1.375 . S
C129 C130 1.369 . S
C129 H142 0.950 . S
C130 C129 1.369 . S
C130 C131 1.392 . S
C130 H143 0.951 . S
C131 C130 1.392 . S
C131 C133 1.384 . S
H132 C134 0.949 1_565 S
C133 C131 1.384 . S
C133 C134 1.385 . S
C133 H135 0.950 . S
C134 C128 1.404 . S
C134 H132 0.949 1_545 S
C134 C133 1.385 . S
H135 C133 0.950 . S
H136 C120 0.951 . S
H137 C122 0.951 . S
H138 C124 0.951 . S
H139 C125 0.950 . S
H140 C126 0.945 1_554 S
H141 C127 0.950 . S
H142 C129 0.950 . S
H143 C130 0.951 . S
C144 C145 1.386 . S
C144 C146 1.383 . S
C144 H160 0.951 . S
C145 C144 1.386 . S
C145 C149 1.383 . S
C146 C144 1.383 . S
C146 C147 1.402 . S
C146 H161 0.951 . S
C147 C146 1.402 . S
C147 C148 1.375 . S
C147 C150 1.481 . S
C148 C147 1.375 . S
C148 C149 1.367 . S
C148 H162 0.951 . S
C149 C145 1.383 . S
C149 C148 1.367 . S
C149 H163 0.950 . S
C150 C147 1.481 . S
C150 C151 1.297 . S
C150 H164 0.950 . S
C151 C150 1.297 . S
C151 C152 1.479 . S
C151 H165 0.950 . S
C152 C151 1.479 . S
C152 C153 1.375 . S
C152 C158 1.404 . S
C153 C152 1.375 . S
C153 C154 1.369 . S
C153 H166 0.950 . S
C154 C153 1.369 . S
C154 C155 1.392 . S
C154 H167 0.951 . S
C155 C154 1.392 . S
C155 C157 1.384 . S
H156 C158 0.949 . S
C157 C155 1.384 . S
C157 C158 1.385 . S
C157 H159 0.950 . S
C158 C152 1.404 . S
C158 H156 0.949 . S
C158 C157 1.385 . S
H159 C157 0.950 . S
H160 C144 0.951 . S
H161 C146 0.951 . S
H162 C148 0.951 . S
H163 C149 0.950 . S
H164 C150 0.950 . S
H165 C151 0.950 . S
H166 C153 0.950 . S
H167 C154 0.951 . S
C168 C169 1.386 . S
C168 C170 1.383 . S
C168 H184 0.951 . S
C169 C168 1.386 . S
C169 C173 1.383 . S
C170 C168 1.383 . S
C170 C171 1.402 . S
C170 H185 0.951 1_655 S
C171 C170 1.402 . S
C171 C172 1.375 . S
C171 C174 1.481 . S
C172 C171 1.375 . S
C172 C173 1.367 . S
C172 H186 0.951 . S
C173 C169 1.383 . S
C173 C172 1.367 . S
C173 H187 0.950 . S
C174 C171 1.481 . S
C174 C175 1.297 1_654 S
C174 H188 0.950 1_554 S
C175 C174 1.297 1_456 S
C175 C176 1.479 . S
C175 H189 0.950 1_556 S
C176 C175 1.479 . S
C176 C177 1.375 . S
C176 C182 1.404 . S
C177 C176 1.375 . S
C177 C178 1.369 . S
C177 H190 0.950 . S
C178 C177 1.369 . S
C178 C179 1.392 . S
C178 H191 0.951 . S
C179 C178 1.392 . S
C179 C181 1.384 . S
H180 C182 0.949 1_655 S
C181 C179 1.384 . S
C181 C182 1.385 . S
C181 H183 0.950 . S
C182 C176 1.404 . S
C182 H180 0.949 1_455 S
C182 C181 1.385 . S
H183 C181 0.950 . S
H184 C168 0.951 . S
H185 C170 0.951 1_455 S
H186 C172 0.951 . S
H187 C173 0.950 . S
H188 C174 0.950 1_556 S
H189 C175 0.950 1_554 S
H190 C177 0.950 . S
H191 C178 0.951 . S
C192 C193 1.386 . S
C192 C194 1.383 . S
C192 H208 0.951 . S
C193 C192 1.386 . S
C193 C197 1.383 . S
C194 C192 1.383 . S
C194 C195 1.402 . S
C194 H209 0.951 . S
C195 C194 1.402 . S
C195 C196 1.375 . S
C195 C198 1.481 . S
C196 C195 1.375 . S
C196 C197 1.367 . S
C196 H210 0.951 . S
C197 C193 1.383 . S
C197 C196 1.367 . S
C197 H211 0.950 . S
C198 C195 1.481 . S
C198 C199 1.297 . S
C198 H212 0.950 . S
C199 C198 1.297 . S
C199 C200 1.479 1_545 S
C199 H213 0.950 . S
C200 C199 1.479 1_565 S
C200 C201 1.375 . S
C200 C206 1.404 . S
C201 C200 1.375 . S
C201 C202 1.369 . S
C201 H214 0.950 . S
C202 C201 1.369 . S
C202 C203 1.392 . S
C202 H215 0.951 . S
C203 C202 1.392 . S
C203 C205 1.384 . S
H204 C206 0.949 1_545 S
C205 C203 1.384 . S
C205 C206 1.385 . S
C205 H207 0.950 . S
C206 C200 1.404 . S
C206 H204 0.949 1_565 S
C206 C205 1.385 . S
H207 C205 0.950 . S
H208 C192 0.951 . S
H209 C194 0.951 . S
H210 C196 0.951 . S
H211 C197 0.950 . S
H212 C198 0.950 . S
H213 C199 0.950 . S
H214 C201 0.950 . S
H215 C202 0.951 . S
C216 C217 1.386 . S
C216 C218 1.383 . S
C216 H232 0.951 . S
C217 C216 1.386 . S
C217 C221 1.383 . S
C218 C216 1.383 . S
C218 C219 1.402 . S
C218 H233 0.951 . S
C219 C218 1.402 . S
C219 C220 1.375 . S
C219 C222 1.481 . S
C220 C219 1.375 . S
C220 C221 1.367 . S
C220 H234 0.951 . S
C221 C217 1.383 . S
C221 C220 1.367 . S
C221 H235 0.950 . S
C222 C219 1.481 . S
C222 C223 1.297 1_556 S
C222 H236 0.950 1_556 S
C223 C222 1.297 1_554 S
C223 C224 1.479 . S
C223 H237 0.950 . S
C224 C223 1.479 . S
C224 C225 1.375 . S
C224 C230 1.404 . S
C225 C224 1.375 . S
C225 C226 1.369 . S
C225 H238 0.950 . S
C226 C225 1.369 . S
C226 C227 1.392 . S
C226 H239 0.951 . S
C227 C226 1.392 . S
C227 C229 1.384 . S
H228 C230 0.949 . S
C229 C227 1.384 . S
C229 C230 1.385 . S
C229 H231 0.950 . S
C230 C224 1.404 . S
C230 H228 0.949 . S
C230 C229 1.385 . S
H231 C229 0.950 . S
H232 C216 0.951 . S
H233 C218 0.951 . S
H234 C220 0.951 . S
H235 C221 0.950 . S
H236 C222 0.950 1_554 S
H237 C223 0.950 . S
H238 C225 0.950 . S
H239 C226 0.951 . S
C240 C241 1.386 . S
C240 C242 1.383 . S
C240 H256 0.951 . S
C241 C240 1.386 . S
C241 C245 1.383 . S
C242 C240 1.383 . S
C242 C243 1.402 . S
C242 H257 0.951 1_655 S
C243 C242 1.402 . S
C243 C244 1.375 . S
C243 C246 1.481 . S
C244 C243 1.375 . S
C244 C245 1.367 . S
C244 H258 0.951 . S
C245 C241 1.383 . S
C245 C244 1.367 . S
C245 H259 0.950 . S
C246 C243 1.481 . S
C246 C247 1.297 1_655 S
C246 H260 0.950 . S
C247 C246 1.297 1_455 S
C247 C248 1.479 . S
C247 H261 0.950 . S
C248 C247 1.479 . S
C248 C249 1.375 . S
C248 C254 1.404 . S
C249 C248 1.375 . S
C249 C250 1.369 . S
C249 H262 0.950 . S
C250 C249 1.369 . S
C250 C251 1.392 . S
C250 H263 0.951 . S
C251 C250 1.392 . S
C251 C253 1.384 . S
H252 C254 0.949 1_655 S
C253 C251 1.384 . S
C253 C254 1.385 . S
C253 H255 0.950 . S
C254 C248 1.404 . S
C254 H252 0.949 1_455 S
C254 C253 1.385 . S
H255 C253 0.950 . S
H256 C240 0.951 . S
H257 C242 0.951 1_455 S
H258 C244 0.951 . S
H259 C245 0.950 . S
H260 C246 0.950 . S
H261 C247 0.950 . S
H262 C249 0.950 . S
H263 C250 0.951 . S
C264 C265 1.386 . S
C264 C266 1.383 . S
C264 H280 0.951 . S
C265 C264 1.386 . S
C265 C269 1.383 . S
C266 C264 1.383 . S
C266 C267 1.402 . S
C266 H281 0.951 . S
C267 C266 1.402 . S
C267 C268 1.375 . S
C267 C270 1.481 . S
C268 C267 1.375 . S
C268 C269 1.367 . S
C268 H282 0.951 . S
C269 C265 1.383 . S
C269 C268 1.367 . S
C269 H283 0.950 . S
C270 C267 1.481 . S
C270 C271 1.297 . S
C270 H284 0.950 . S
C271 C270 1.297 . S
C271 C272 1.479 . S
C271 H285 0.950 . S
C272 C271 1.479 . S
C272 C273 1.375 . S
C272 C278 1.404 . S
C273 C272 1.375 . S
C273 C274 1.369 . S
C273 H286 0.950 . S
C274 C273 1.369 . S
C274 C275 1.392 . S
C274 H287 0.951 . S
C275 C274 1.392 . S
C275 C277 1.384 . S
H276 C278 0.949 . S
C277 C275 1.384 . S
C277 C278 1.385 . S
C277 H279 0.950 . S
C278 C272 1.404 . S
C278 H276 0.949 . S
C278 C277 1.385 . S
H279 C277 0.950 . S
H280 C264 0.951 . S
H281 C266 0.951 . S
H282 C268 0.951 . S
H283 C269 0.950 . S
H284 C270 0.950 . S
H285 C271 0.950 . S
H286 C273 0.950 . S
H287 C274 0.951 . S
C288 C289 1.386 . S
C288 C290 1.383 . S
C288 H304 0.951 . S
C289 C288 1.386 . S
C289 C293 1.383 . S
C290 C288 1.383 . S
C290 C291 1.402 . S
C290 H305 0.951 . S
C291 C290 1.402 . S
C291 C292 1.375 . S
C291 C294 1.481 . S
C292 C291 1.375 . S
C292 C293 1.367 . S
C292 H306 0.951 . S
C293 C289 1.383 . S
C293 C292 1.367 . S
C293 H307 0.950 . S
C294 C291 1.481 . S
C294 C295 1.297 . S
C294 H308 0.950 . S
C295 C294 1.297 . S
C295 C296 1.479 . S
C295 H309 0.950 . S
C296 C295 1.479 . S
C296 C297 1.375 . S
C296 C302 1.404 . S
C297 C296 1.375 . S
C297 C298 1.369 . S
C297 H310 0.950 . S
C298 C297 1.369 . S
C298 C299 1.392 . S
C298 H311 0.951 . S
C299 C298 1.392 . S
C299 C301 1.384 . S
H300 C302 0.949 . S
C301 C299 1.384 . S
C301 C302 1.385 . S
C301 H303 0.950 . S
C302 C296 1.404 . S
C302 H300 0.949 . S
C302 C301 1.385 . S
H303 C301 0.950 . S
H304 C288 0.951 . S
H305 C290 0.951 . S
H306 C292 0.951 . S
H307 C293 0.950 . S
H308 C294 0.950 . S
H309 C295 0.950 . S
H310 C297 0.950 . S
H311 C298 0.951 . S
C312 C313 1.386 . S
C312 C314 1.383 . S
C312 H328 0.951 . S
C313 C312 1.386 . S
C313 C317 1.383 . S
C314 C312 1.383 . S
C314 C315 1.402 . S
C314 H329 0.951 . S
C315 C314 1.402 . S
C315 C316 1.375 . S
C315 C318 1.481 . S
C316 C315 1.375 . S
C316 C317 1.367 . S
C316 H330 0.951 . S
C317 C313 1.383 . S
C317 C316 1.367 . S
C317 H331 0.950 . S
C318 C315 1.481 . S
C318 C319 1.297 . S
C318 H332 0.950 . S
C319 C318 1.297 . S
C319 C320 1.479 . S
C319 H333 0.950 . S
C320 C319 1.479 . S
C320 C321 1.375 . S
C320 C326 1.404 . S
C321 C320 1.375 . S
C321 C322 1.369 . S
C321 H334 0.950 . S
C322 C321 1.369 . S
C322 C323 1.392 . S
C322 H335 0.951 . S
C323 C322 1.392 . S
C323 C325 1.384 . S
H324 C326 0.949 . S
C325 C323 1.384 . S
C325 C326 1.385 . S
C325 H327 0.950 . S
C326 C320 1.404 . S
C326 H324 0.949 . S
C326 C325 1.385 . S
H327 C325 0.950 . S
H328 C312 0.951 . S
H329 C314 0.951 . S
H330 C316 0.951 . S
H331 C317 0.950 . S
H332 C318 0.950 . S
H333 C319 0.950 . S
H334 C321 0.950 . S
H335 C322 0.951 . S
C336 C337 1.386 . S
C336 C338 1.383 . S
C336 H352 0.951 . S
C337 C336 1.386 . S
C337 C341 1.383 . S
C338 C336 1.383 . S
C338 C339 1.402 . S
C338 H353 0.951 . S
C339 C338 1.402 . S
C339 C340 1.375 . S
C339 C342 1.481 . S
C340 C339 1.375 . S
C340 C341 1.367 . S
C340 H354 0.951 . S
C341 C337 1.383 . S
C341 C340 1.367 . S
C341 H355 0.950 . S
C342 C339 1.481 . S
C342 C343 1.297 . S
C342 H356 0.950 . S
C343 C342 1.297 . S
C343 C344 1.479 . S
C343 H357 0.950 . S
C344 C343 1.479 . S
C344 C345 1.375 . S
C344 C350 1.404 . S
C345 C344 1.375 . S
C345 C346 1.369 . S
C345 H358 0.950 . S
C346 C345 1.369 . S
C346 C347 1.392 . S
C346 H359 0.951 . S
C347 C346 1.392 . S
C347 C349 1.384 . S
H348 C350 0.949 . S
C349 C347 1.384 . S
C349 C350 1.385 . S
C349 H351 0.950 . S
C350 C344 1.404 . S
C350 H348 0.949 . S
C350 C349 1.385 . S
H351 C349 0.950 . S
H352 C336 0.951 . S
H353 C338 0.951 . S
H354 C340 0.951 . S
H355 C341 0.950 . S
H356 C342 0.950 . S
H357 C343 0.950 . S
H358 C345 0.950 . S
H359 C346 0.951 . S
C360 C361 1.386 . S
C360 C362 1.383 . S
C360 H376 0.951 . S
C361 C360 1.386 . S
C361 C365 1.383 . S
C362 C360 1.383 . S
C362 C363 1.402 . S
C362 H377 0.951 . S
C363 C362 1.402 . S
C363 C364 1.375 . S
C363 C366 1.481 . S
C364 C363 1.375 . S
C364 C365 1.367 . S
C364 H378 0.951 . S
C365 C361 1.383 . S
C365 C364 1.367 . S
C365 H379 0.950 . S
C366 C363 1.481 . S
C366 C367 1.297 . S
C366 H380 0.950 . S
C367 C366 1.297 . S
C367 C368 1.479 . S
C367 H381 0.950 . S
C368 C367 1.479 . S
C368 C369 1.375 . S
C368 C374 1.404 . S
C369 C368 1.375 . S
C369 C370 1.369 . S
C369 H382 0.950 . S
C370 C369 1.369 . S
C370 C371 1.392 . S
C370 H383 0.951 . S
C371 C370 1.392 . S
C371 C373 1.384 . S
H372 C374 0.949 . S
C373 C371 1.384 . S
C373 C374 1.385 . S
C373 H375 0.950 . S
C374 C368 1.404 . S
C374 H372 0.949 . S
C374 C373 1.385 . S
H375 C373 0.950 . S
H376 C360 0.951 . S
H377 C362 0.951 . S
H378 C364 0.951 . S
H379 C365 0.950 . S
H380 C366 0.950 . S
H381 C367 0.950 . S
H382 C369 0.950 . S
H383 C370 0.951 . S
C384 C385 1.386 . S
C384 C386 1.383 . S
C384 H400 0.951 . S
C385 C384 1.386 . S
C385 C389 1.383 . S
C386 C384 1.383 . S
C386 C387 1.402 . S
C386 H401 0.951 . S
C387 C386 1.402 . S
C387 C388 1.375 . S
C387 C390 1.481 . S
C388 C387 1.375 . S
C388 C389 1.367 . S
C388 H402 0.951 . S
C389 C385 1.383 . S
C389 C388 1.367 . S
C389 H403 0.950 . S
C390 C387 1.481 . S
C390 C391 1.297 . S
C390 H404 0.950 . S
C391 C390 1.297 . S
C391 C392 1.479 . S
C391 H405 0.950 . S
C392 C391 1.479 . S
C392 C393 1.375 . S
C392 C398 1.404 . S
C393 C392 1.375 . S
C393 C394 1.369 . S
C393 H406 0.950 . S
C394 C393 1.369 . S
C394 C395 1.392 . S
C394 H407 0.951 . S
C395 C394 1.392 . S
C395 C397 1.384 . S
H396 C398 0.949 . S
C397 C395 1.384 . S
C397 C398 1.385 . S
C397 H399 0.950 . S
C398 C392 1.404 . S
C398 H396 0.949 . S
C398 C397 1.385 . S
H399 C397 0.950 . S
H400 C384 0.951 . S
H401 C386 0.951 . S
H402 C388 0.951 . S
H403 C389 0.950 . S
H404 C390 0.950 . S
H405 C391 0.950 . S
H406 C393 0.950 . S
H407 C394 0.951 . S
C408 C409 1.386 . S
C408 C410 1.383 . S
C408 H424 0.951 . S
C409 C408 1.386 . S
C409 C413 1.383 . S
C410 C408 1.383 . S
C410 C411 1.402 . S
C410 H425 0.951 . S
C411 C410 1.402 . S
C411 C412 1.375 . S
C411 C414 1.481 . S
C412 C411 1.375 . S
C412 C413 1.367 . S
C412 H426 0.951 . S
C413 C409 1.383 . S
C413 C412 1.367 . S
C413 H427 0.950 . S
C414 C411 1.481 . S
C414 C415 1.297 . S
C414 H428 0.950 . S
C415 C414 1.297 . S
C415 C416 1.479 . S
C415 H429 0.950 . S
C416 C415 1.479 . S
C416 C417 1.375 . S
C416 C422 1.404 . S
C417 C416 1.375 . S
C417 C418 1.369 . S
C417 H430 0.950 . S
C418 C417 1.369 . S
C418 C419 1.392 . S
C418 H431 0.951 . S
C419 C418 1.392 . S
C419 C421 1.384 . S
H420 C422 0.949 . S
C421 C419 1.384 . S
C421 C422 1.385 . S
C421 H423 0.950 . S
C422 C416 1.404 . S
C422 H420 0.949 . S
C422 C421 1.385 . S
H423 C421 0.950 . S
H424 C408 0.951 . S
H425 C410 0.951 . S
H426 C412 0.951 . S
H427 C413 0.950 . S
H428 C414 0.950 . S
H429 C415 0.950 . S
H430 C417 0.950 . S
H431 C418 0.951 . S
C432 C433 1.386 . S
C432 C434 1.383 . S
C432 H448 0.951 . S
C433 C432 1.386 . S
C433 C437 1.383 . S
C434 C432 1.383 . S
C434 C435 1.402 . S
C434 H449 0.951 . S
C435 C434 1.402 . S
C435 C436 1.375 . S
C435 C438 1.481 1_655 S
C436 C435 1.375 . S
C436 C437 1.367 . S
C436 H450 0.951 . S
C437 C433 1.383 . S
C437 C436 1.367 . S
C437 H451 0.950 . S
C438 C435 1.481 1_455 S
C438 C439 1.297 . S
C438 H452 0.950 . S
C439 C438 1.297 . S
C439 C440 1.479 . S
C439 H453 0.950 . S
C440 C439 1.479 . S
C440 C441 1.375 . S
C440 C446 1.404 . S
C441 C440 1.375 . S
C441 C442 1.369 . S
C441 H454 0.950 . S
C442 C441 1.369 . S
C442 C443 1.392 . S
C442 H455 0.951 . S
C443 C442 1.392 . S
C443 C445 1.384 . S
H444 C446 0.949 . S
C445 C443 1.384 . S
C445 C446 1.385 . S
C445 H447 0.950 . S
C446 C440 1.404 . S
C446 H444 0.949 . S
C446 C445 1.385 . S
H447 C445 0.950 . S
H448 C432 0.951 . S
H449 C434 0.951 . S
H450 C436 0.951 . S
H451 C437 0.950 . S
H452 C438 0.950 . S
H453 C439 0.950 . S
H454 C441 0.950 . S
H455 C442 0.951 . S
C456 C457 1.386 . S
C456 C458 1.383 . S
C456 H472 0.951 . S
C457 C456 1.386 . S
C457 C461 1.383 . S
C458 C456 1.383 . S
C458 C459 1.402 . S
C458 H473 0.951 . S
C459 C458 1.402 . S
C459 C460 1.375 . S
C459 C462 1.481 1_545 S
C460 C459 1.375 . S
C460 C461 1.367 . S
C460 H474 0.951 . S
C461 C457 1.383 . S
C461 C460 1.367 . S
C461 H475 0.950 . S
C462 C459 1.481 1_565 S
C462 C463 1.297 . S
C462 H476 0.950 . S
C463 C462 1.297 . S
C463 C464 1.479 . S
C463 H477 0.950 . S
C464 C463 1.479 . S
C464 C465 1.375 . S
C464 C470 1.404 . S
C465 C464 1.375 . S
C465 C466 1.369 . S
C465 H478 0.950 . S
C466 C465 1.369 . S
C466 C467 1.392 . S
C466 H479 0.951 . S
C467 C466 1.392 . S
C467 C469 1.384 . S
H468 C470 0.949 . S
C469 C467 1.384 . S
C469 C470 1.385 . S
C469 H471 0.950 . S
C470 C464 1.404 . S
C470 H468 0.949 . S
C470 C469 1.385 . S
H471 C469 0.950 . S
H472 C456 0.951 . S
H473 C458 0.951 . S
H474 C460 0.951 . S
H475 C461 0.950 . S
H476 C462 0.950 . S
H477 C463 0.950 . S
H478 C465 0.950 . S
H479 C466 0.951 . S
C480 C481 1.386 . S
C480 C482 1.383 . S
C480 H496 0.951 . S
C481 C480 1.386 . S
C481 C485 1.383 . S
C482 C480 1.383 . S
C482 C483 1.402 . S
C482 H497 0.951 . S
C483 C482 1.402 . S
C483 C484 1.375 . S
C483 C486 1.481 . S
C484 C483 1.375 . S
C484 C485 1.367 . S
C484 H498 0.951 . S
C485 C481 1.383 . S
C485 C484 1.367 . S
C485 H499 0.950 . S
C486 C483 1.481 . S
C486 C487 1.297 . S
C486 H500 0.950 . S
C487 C486 1.297 . S
C487 C488 1.479 . S
C487 H501 0.950 . S
C488 C487 1.479 . S
C488 C489 1.375 . S
C488 C494 1.404 . S
C489 C488 1.375 . S
C489 C490 1.369 . S
C489 H502 0.950 . S
C490 C489 1.369 . S
C490 C491 1.392 . S
C490 H503 0.951 . S
C491 C490 1.392 . S
C491 C493 1.384 . S
H492 C494 0.949 . S
C493 C491 1.384 . S
C493 C494 1.385 . S
C493 H495 0.950 . S
C494 C488 1.404 . S
C494 H492 0.949 . S
C494 C493 1.385 . S
H495 C493 0.950 . S
H496 C480 0.951 . S
H497 C482 0.951 . S
H498 C484 0.951 . S
H499 C485 0.950 . S
H500 C486 0.950 . S
H501 C487 0.950 . S
H502 C489 0.950 . S
H503 C490 0.951 . S
C504 C505 1.386 . S
C504 C506 1.383 . S
C504 H520 0.951 . S
C505 C504 1.386 . S
C505 C509 1.383 . S
C506 C504 1.383 . S
C506 C507 1.402 1_455 S
C506 H521 0.951 . S
C507 C506 1.402 1_655 S
C507 C508 1.375 1_655 S
C507 C510 1.481 . S
C508 C507 1.375 1_455 S
C508 C509 1.367 . S
C508 H522 0.951 . S
C509 C505 1.383 . S
C509 C508 1.367 . S
C509 H523 0.950 . S
C510 C507 1.481 . S
C510 C511 1.297 . S
C510 H524 0.950 . S
C511 C510 1.297 . S
C511 C512 1.479 . S
C511 H525 0.950 . S
C512 C511 1.479 . S
C512 C513 1.375 . S
C512 C518 1.404 . S
C513 C512 1.375 . S
C513 C514 1.369 . S
C513 H526 0.950 . S
C514 C513 1.369 . S
C514 C515 1.392 . S
C514 H527 0.951 . S
C515 C514 1.392 . S
C515 C517 1.384 . S
H516 C518 0.949 . S
C517 C515 1.384 . S
C517 C518 1.385 . S
C517 H519 0.950 . S
C518 C512 1.404 . S
C518 H516 0.949 . S
C518 C517 1.385 . S
H519 C517 0.950 . S
H520 C504 0.951 . S
H521 C506 0.951 . S
H522 C508 0.951 . S
H523 C509 0.950 . S
H524 C510 0.950 . S
H525 C511 0.950 . S
H526 C513 0.950 . S
H527 C514 0.951 . S
C528 C529 1.386 . S
C528 C530 1.383 . S
C528 H544 0.951 . S
C529 C528 1.386 . S
C529 C533 1.383 . S
C530 C528 1.383 . S
C530 C531 1.402 . S
C530 H545 0.951 . S
C531 C530 1.402 . S
C531 C532 1.375 . S
C531 C534 1.481 . S
C532 C531 1.375 . S
C532 C533 1.367 . S
C532 H546 0.951 . S
C533 C529 1.383 . S
C533 C532 1.367 . S
C533 H547 0.949 . S
C534 C531 1.481 . S
C534 C535 1.297 . S
C534 H548 0.950 . S
C535 C534 1.297 . S
C535 C536 1.504 . S
C535 H549 0.950 . S
C536 C535 1.504 . S
C536 C537 1.369 1_545 S
C536 C542 1.388 1_545 S
C537 C536 1.369 1_565 S
C537 C538 1.369 . S
C537 H550 0.950 . S
C538 C537 1.369 . S
C538 C539 1.392 . S
C538 H551 0.951 . S
C539 C538 1.392 . S
C539 C541 1.384 . S
H540 C542 0.949 . S
C541 C539 1.384 . S
C541 C542 1.385 . S
C541 H543 0.950 . S
C542 C536 1.388 1_565 S
C542 H540 0.949 . S
C542 C541 1.385 . S
H543 C541 0.950 . S
H544 C528 0.951 . S
H545 C530 0.951 . S
H546 C532 0.951 . S
H547 C533 0.949 . S
H548 C534 0.950 . S
H549 C535 0.950 . S
H550 C537 0.950 . S
H551 C538 0.951 . S
C121 C99 2.196 . S
C131 C18 2.110 . S
C145 C118 2.114 . S
C155 C39 2.139 . S
C169 C58 2.155 . S
C179 C79 2.197 . S
C193 C19 2.205 . S
C203 C98 2.075 . S
C217 C119 2.194 . S
C227 C38 2.103 . S
C241 C59 2.213 . S
C251 C78 2.140 . S
C265 C4 1.356 . S
C275 C52 1.617 . S
C289 C24 1.406 . S
C299 C12 1.633 . S
C313 C44 1.412 . S
C323 C32 1.633 . S
C337 C69 1.517 . S
C347 C82 1.611 . S
C361 C89 1.512 . S
C371 C102 1.640 . S
C385 C62 1.626 . S
C395 C109 1.544 . S
C409 C2 0.857 . S
C419 C49 0.705 . S
C433 C22 0.903 . S
C443 C9 0.920 . S
C457 C42 0.865 . S
C467 C29 0.718 . S
C481 C72 0.872 . S
C491 C84 0.957 1_545 S
C505 C92 0.880 . S
C515 C104 0.832 . S
C529 C64 0.738 1_655 S
C539 C112 0.857 . S
