# Generated by pormake.
# Topology npo, (4)-cn, num edge types: 1
# Building blocks:
#     Node 0, Type 0, BuildingBlock: UXUYUI_clean_sbu_0, # of connection points: 4
#     Node 1, Type 0, BuildingBlock: UXUYUI_clean_sbu_0, # of connection points: 4
#     Node 2, Type 0, BuildingBlock: UXUYUI_clean_sbu_0, # of connection points: 4
#     Node 3, Type 0, BuildingBlock: UXUYUI_clean_sbu_0, # of connection points: 4
#     Node 4, Type 0, BuildingBlock: UXUYUI_clean_sbu_0, # of connection points: 4
#     Node 5, Type 0, BuildingBlock: UXUYUI_clean_sbu_0, # of connection points: 4
#     Edge 6, Type (0, 0), BuildingBlock: EYOCIG_clean_linker_4, # of connection points: 2
#     Edge 7, Type (0, 0), BuildingBlock: EYOCIG_clean_linker_4, # of connection points: 2
#     Edge 8, Type (0, 0), BuildingBlock: EYOCIG_clean_linker_4, # of connection points: 2
#     Edge 9, Type (0, 0), BuildingBlock: EYOCIG_clean_linker_4, # of connection points: 2
#     Edge 10, Type (0, 0), BuildingBlock: EYOCIG_clean_linker_4, # of connection points: 2
#     Edge 11, Type (0, 0), BuildingBlock: EYOCIG_clean_linker_4, # of connection points: 2
#     Edge 12, Type (0, 0), BuildingBlock: EYOCIG_clean_linker_4, # of connection points: 2
#     Edge 13, Type (0, 0), BuildingBlock: EYOCIG_clean_linker_4, # of connection points: 2
#     Edge 14, Type (0, 0), BuildingBlock: EYOCIG_clean_linker_4, # of connection points: 2
#     Edge 15, Type (0, 0), BuildingBlock: EYOCIG_clean_linker_4, # of connection points: 2
#     Edge 16, Type (0, 0), BuildingBlock: EYOCIG_clean_linker_4, # of connection points: 2
#     Edge 17, Type (0, 0), BuildingBlock: EYOCIG_clean_linker_4, # of connection points: 2
# Relax obj value: 0.320
# Max RMSD: 0.247
# Mean RMSD: 0.247
data_MOF--net-npo--node1-UXUYUI_clean_sbu_0--edge1-EYOCIG_clean_linker_4
_symmetry_space_group_name_H-M    P1
_symmetry_Int_Tables_number       1
_symmetry_cell_setting            triclinic
loop_
_symmetry_equiv_pos_as_xyz
'x, y, z'
_cell_length_a     53.435353
_cell_length_b     53.244155
_cell_length_c     32.514662
_cell_angle_alpha  90.008161
_cell_angle_beta   89.996116
_cell_angle_gamma 120.12053
loop_
_atom_site_label
_atom_site_type_symbol
_atom_site_fract_x
_atom_site_fract_y
_atom_site_fract_z
_atom_type_partial_charge
Li0 Li 0.5256 0.11848 0.24784 0.0
Li1 Li 0.57183 0.11853 0.25063 0.0
Li2 Li 0.52887 0.07978 0.21153 0.0
Li3 Li 0.52992 0.07989 0.28719 0.0
C4 C 0.55168 0.13948 0.17077 0.0
N5 N 0.55186 0.17401 0.10721 0.0
C6 C 0.57585 0.16691 0.16419 0.0
C7 C 0.52773 0.1295 0.14478 0.0
C8 C 0.57548 0.18409 0.13198 0.0
C9 C 0.52821 0.14731 0.11287 0.0
C10 C 0.56672 0.13955 0.32781 0.0
C11 C 0.59794 0.14727 0.38576 0.0
N12 N 0.60087 0.17391 0.39164 0.0
C13 C 0.56985 0.16691 0.33461 0.0
C14 C 0.58071 0.12955 0.35372 0.0
C15 C 0.5873 0.184 0.36695 0.0
C16 C 0.48215 0.13413 0.25774 0.0
N17 N 0.51027 0.14371 0.24788 0.0
C18 C 0.51966 0.19226 0.24046 0.0
C19 C 0.52903 0.17213 0.23953 0.0
C20 C 0.49085 0.18297 0.25043 0.0
C21 C 0.47183 0.15363 0.25906 0.0
H22 H 0.46788 0.11152 0.26517 0.0
H23 H 0.55144 0.17925 0.23302 0.0
C24 C 0.63088 0.13422 0.2401 0.0
N25 N 0.61239 0.14376 0.25043 0.0
C26 C 0.66069 0.15371 0.23861 0.0
C27 C 0.6516 0.19228 0.25803 0.0
C28 C 0.6221 0.17215 0.25911 0.0
C29 C 0.67106 0.18302 0.24757 0.0
H30 H 0.62249 0.11163 0.23242 0.0
H31 H 0.60684 0.17926 0.26599 0.0
C32 C 0.47086 0.0573 0.23753 0.0
N33 N 0.415 0.0196 0.21175 0.0
C34 C 0.45502 0.02977 0.25528 0.0
C35 C 0.45822 0.06577 0.207 0.0
C36 C 0.42682 0.01098 0.24173 0.0
C37 C 0.42998 0.04637 0.19428 0.0
C38 C 0.56559 0.05748 0.26118 0.0
C39 C 0.55391 0.0299 0.24361 0.0
C40 C 0.58691 0.06617 0.29145 0.0
C41 C 0.56353 0.01126 0.25709 0.0
C42 C 0.59594 0.04691 0.30411 0.0
N43 N 0.58415 0.02008 0.28683 0.0
C44 C 0.53457 0.06927 0.12896 0.0
C45 C 0.49488 0.02945 0.16192 0.0
C46 C 0.52746 0.05432 0.09165 0.0
N47 N 0.51803 0.05688 0.16292 0.0
C48 C 0.48697 0.01372 0.12517 0.0
C49 C 0.50331 0.02639 0.08967 0.0
H50 H 0.55321 0.09086 0.13082 0.0
H51 H 0.48258 0.01975 0.18953 0.0
C52 C 0.51369 0.06953 0.36978 0.0
N53 N 0.51796 0.05714 0.33593 0.0
C54 C 0.50591 0.05467 0.40717 0.0
C55 C 0.50613 0.01415 0.37393 0.0
C56 C 0.51388 0.02979 0.33711 0.0
C57 C 0.50233 0.02683 0.40932 0.0
H58 H 0.51649 0.09106 0.36778 0.0
H59 H 0.51658 0.02007 0.30958 0.0
O60 O 0.55182 0.12228 0.20193 0.0
O61 O 0.54947 0.12244 0.29651 0.0
O62 O 0.49833 0.07608 0.25086 0.0
O63 O 0.55671 0.07612 0.24789 0.0
H64 H 0.59468 0.17487 0.18377 0.0
H65 H 0.50912 0.10812 0.14888 0.0
H66 H 0.59401 0.2054 0.12663 0.0
H67 H 0.50981 0.13984 0.09251 0.0
H68 H 0.60889 0.13979 0.40606 0.0
H69 H 0.55896 0.17488 0.3151 0.0
H70 H 0.57802 0.10822 0.34944 0.0
H71 H 0.59 0.20526 0.37248 0.0
H72 H 0.53486 0.21492 0.23406 0.0
H73 H 0.44949 0.14598 0.26725 0.0
H74 H 0.67534 0.14609 0.23005 0.0
H75 H 0.65909 0.21491 0.26468 0.0
H76 H 0.46445 0.02298 0.27919 0.0
H77 H 0.46994 0.0872 0.19357 0.0
H78 H 0.41432 0.98957 0.25508 0.0
H79 H 0.41992 0.05264 0.17066 0.0
H80 H 0.53755 0.02295 0.21989 0.0
H81 H 0.59661 0.08765 0.30472 0.0
H82 H 0.55463 0.98981 0.24388 0.0
H83 H 0.61242 0.05334 0.32754 0.0
H84 H 0.54058 0.0645 0.06466 0.0
H85 H 0.46832 -0.008 0.12447 0.0
H86 H 0.50287 0.06486 0.43407 0.0
H87 H 0.50322 -0.0075 0.37477 0.0
Li88 Li 0.44134 0.53645 0.78985 0.0
Li89 Li 0.44717 0.57865 0.75055 0.0
Li90 Li 0.39942 0.53138 0.75147 0.0
Li91 Li 0.44097 0.53628 0.712 0.0
C92 C 0.41254 0.56024 0.83594 0.0
N93 N 0.39501 0.56418 0.91441 0.0
C94 C 0.42624 0.58671 0.85694 0.0
C95 C 0.38979 0.53584 0.85466 0.0
C96 C 0.4171 0.58824 0.89665 0.0
C97 C 0.38128 0.53825 0.89441 0.0
C98 C 0.50126 0.58239 0.74778 0.0
C99 C 0.54186 0.61763 0.70801 0.0
N100 N 0.55895 0.62453 0.74195 0.0
C101 C 0.51926 0.58967 0.78221 0.0
C102 C 0.51266 0.59631 0.71031 0.0
C103 C 0.54835 0.6111 0.77866 0.0
C104 C 0.45003 0.49882 0.84174 0.0
N105 N 0.45295 0.52563 0.83853 0.0
C106 C 0.47155 0.53759 0.90694 0.0
C107 C 0.46382 0.5451 0.86992 0.0
C108 C 0.4682 0.50993 0.9112 0.0
C109 C 0.45754 0.49041 0.87824 0.0
H110 H 0.44172 0.48394 0.81605 0.0
H111 H 0.46647 0.56647 0.86618 0.0
C112 C 0.44692 0.62927 0.73186 0.0
N113 N 0.46308 0.6195 0.75083 0.0
C114 C 0.45579 0.65875 0.73229 0.0
C115 C 0.49774 0.6677 0.77203 0.0
C116 C 0.488 0.63794 0.77095 0.0
C117 C 0.48135 0.67811 0.75269 0.0
H118 H 0.4268 0.61406 0.7171 0.0
H119 H 0.49994 0.62956 0.78701 0.0
C120 C 0.39474 0.47633 0.75434 0.0
N121 N 0.35268 0.4185 0.76087 0.0
C122 C 0.38686 0.45822 0.7199 0.0
C123 C 0.38149 0.46497 0.79219 0.0
C124 C 0.36547 0.42906 0.7238 0.0
C125 C 0.3602 0.43569 0.79484 0.0
C126 C 0.41778 0.56505 0.66566 0.0
C127 C 0.39127 0.55065 0.64508 0.0
C128 C 0.44191 0.58744 0.64596 0.0
C129 C 0.38943 0.55871 0.6048 0.0
C130 C 0.4392 0.59486 0.60567 0.0
N131 N 0.41324 0.58046 0.58608 0.0
C132 C 0.35005 0.53388 0.76906 0.0
C133 C 0.3397 0.49085 0.73337 0.0
C134 C 0.32087 0.52575 0.76903 0.0
N135 N 0.35886 0.51641 0.7516 0.0
C136 C 0.31021 0.48183 0.73273 0.0
C137 C 0.30079 0.49956 0.75057 0.0
H138 H 0.36582 0.55442 0.78238 0.0
H139 H 0.34728 0.4778 0.7185 0.0
C140 C 0.47823 0.52772 0.65944 0.0
N141 N 0.45136 0.52435 0.66317 0.0
C142 C 0.48645 0.52015 0.62282 0.0
C143 C 0.43897 0.50512 0.59509 0.0
C144 C 0.43165 0.51293 0.63222 0.0
C145 C 0.46669 0.50896 0.59028 0.0
H146 H 0.49331 0.53644 0.68479 0.0
H147 H 0.41025 0.5099 0.63637 0.0
O148 O 0.42088 0.55854 0.79677 0.0
O149 O 0.47281 0.56126 0.75065 0.0
O150 O 0.41583 0.50485 0.75111 0.0
O151 O 0.4198 0.55776 0.70535 0.0
H152 H 0.44374 0.60585 0.84268 0.0
H153 H 0.37857 0.51537 0.83851 0.0
H154 H 0.42752 0.60857 0.9133 0.0
H155 H 0.36368 0.51954 0.90927 0.0
H156 H 0.55097 0.6286 0.6792 0.0
H157 H 0.51083 0.57892 0.81136 0.0
H158 H 0.49917 0.59056 0.68321 0.0
H159 H 0.56251 0.61704 0.80508 0.0
H160 H 0.47993 0.55313 0.93194 0.0
H161 H 0.45492 0.46892 0.88077 0.0
H162 H 0.44254 0.66624 0.71753 0.0
H163 H 0.5174 0.68225 0.78851 0.0
H164 H 0.39709 0.4666 0.69046 0.0
H165 H 0.38773 0.47852 0.81931 0.0
H166 H 0.35906 0.41481 0.69737 0.0
H167 H 0.34974 0.42661 0.82394 0.0
H168 H 0.37233 0.53342 0.66009 0.0
H169 H 0.46241 0.59919 0.66176 0.0
H170 H 0.36907 0.54772 0.58844 0.0
H171 H 0.4577 0.61217 0.59004 0.0
H172 H 0.31414 0.54001 0.78262 0.0
H173 H 0.29509 0.46162 0.71778 0.0
H174 H 0.50798 0.52314 0.61988 0.0
H175 H 0.42324 0.49632 0.57043 0.0
Li176 Li 0.85961 0.45182 0.24711 0.0
Li177 Li 0.89622 0.44686 0.28656 0.0
Li178 Li 0.89646 0.44675 0.20871 0.0
Li179 Li 0.86005 0.40453 0.24795 0.0
C180 C 0.90999 0.50685 0.24425 0.0
N181 N 0.92577 0.56468 0.23768 0.0
C182 C 0.92024 0.52498 0.27867 0.0
C183 C 0.90808 0.51819 0.2064 0.0
C184 C 0.92802 0.55414 0.27475 0.0
C185 C 0.91608 0.54747 0.20373 0.0
C186 C 0.84428 0.4181 0.33288 0.0
C187 C 0.83584 0.38825 0.39284 0.0
N188 N 0.82433 0.40269 0.41246 0.0
C189 C 0.8322 0.43253 0.35349 0.0
C190 C 0.84596 0.39567 0.35254 0.0
C191 C 0.82231 0.42447 0.39378 0.0
C192 C 0.80775 0.44932 0.22955 0.0
N193 N 0.83402 0.46679 0.247 0.0
C194 C 0.81996 0.50138 0.26587 0.0
C195 C 0.84043 0.49236 0.26523 0.0
C196 C 0.79281 0.48365 0.24804 0.0
C197 C 0.7867 0.45745 0.22959 0.0
H198 H 0.80297 0.42878 0.21623 0.0
H199 H 0.86107 0.50542 0.28008 0.0
C200 C 0.94199 0.45532 0.33915 0.0
N201 N 0.91853 0.45875 0.3354 0.0
C202 C 0.95778 0.46287 0.37578 0.0
C203 C 0.92539 0.47799 0.40348 0.0
C204 C 0.91027 0.47021 0.36634 0.0
C205 C 0.94922 0.47409 0.40831 0.0
H206 H 0.94833 0.44657 0.31381 0.0
H207 H 0.89193 0.47328 0.36218 0.0
C208 C 0.8439 0.423 0.16258 0.0
N209 N 0.82247 0.41906 0.08409 0.0
C210 C 0.83118 0.39654 0.14155 0.0
C211 C 0.84551 0.44738 0.14388 0.0
C212 C 0.82054 0.39501 0.10183 0.0
C213 C 0.83462 0.44498 0.10412 0.0
C214 C 0.91037 0.40074 0.25069 0.0
C215 C 0.92109 0.39348 0.21626 0.0
C216 C 0.9078 0.38677 0.28814 0.0
C217 C 0.92871 0.37201 0.21976 0.0
C218 C 0.91565 0.36543 0.29039 0.0
N219 N 0.92584 0.35853 0.25644 0.0
C220 C 0.94281 0.48442 0.15688 0.0
C221 C 0.91033 0.43815 0.12864 0.0
C222 C 0.95875 0.49285 0.12039 0.0
N223 N 0.91892 0.4576 0.16005 0.0
C224 C 0.92559 0.44569 0.09164 0.0
C225 C 0.94991 0.47335 0.0874 0.0
H226 H 0.94937 0.49928 0.18259 0.0
H227 H 0.89162 0.41678 0.13235 0.0
C228 C 0.80915 0.35392 0.26656 0.0
N229 N 0.83508 0.36368 0.24759 0.0
C230 C 0.78852 0.32445 0.26608 0.0
C231 C 0.8215 0.31548 0.2263 0.0
C232 C 0.84155 0.34524 0.22744 0.0
C233 C 0.79469 0.30508 0.24564 0.0
H234 H 0.80427 0.36914 0.28135 0.0
H235 H 0.86187 0.35361 0.21139 0.0
O236 O 0.90255 0.47832 0.24751 0.0
O237 O 0.85357 0.42539 0.29319 0.0
O238 O 0.85391 0.42469 0.20177 0.0
O239 O 0.90309 0.4219 0.24788 0.0
H240 H 0.9221 0.51661 0.30811 0.0
H241 H 0.90075 0.50462 0.17929 0.0
H242 H 0.93587 0.56839 0.30117 0.0
H243 H 0.91468 0.55653 0.17462 0.0
H244 H 0.837 0.37092 0.40844 0.0
H245 H 0.83052 0.44978 0.33852 0.0
H246 H 0.85468 0.3839 0.33671 0.0
H247 H 0.81298 0.43548 0.41017 0.0
H248 H 0.82505 0.52159 0.28081 0.0
H249 H 0.76571 0.4432 0.216 0.0
H250 H 0.97628 0.45983 0.37874 0.0
H251 H 0.91848 0.48683 0.42813 0.0
H252 H 0.82957 0.3774 0.1558 0.0
H253 H 0.85472 0.46784 0.16006 0.0
H254 H 0.81068 0.37469 0.08515 0.0
H255 H 0.83569 0.46367 0.08927 0.0
H256 H 0.92345 0.40426 0.18713 0.0
H257 H 0.90006 0.3925 0.31525 0.0
H258 H 0.93694 0.36609 0.19333 0.0
H259 H 0.91375 0.35442 0.31918 0.0
H260 H 0.97762 0.51433 0.11789 0.0
H261 H 0.91844 0.43016 0.06662 0.0
H262 H 0.76777 0.31696 0.28083 0.0
H263 H 0.8266 0.30094 0.2098 0.0
Li264 Li 0.44175 0.9033 0.71149 0.0
Li265 Li 0.44072 0.90324 0.78715 0.0
Li266 Li 0.44503 0.86462 0.74786 0.0
Li267 Li 0.3988 0.86458 0.75065 0.0
C268 C 0.49977 0.92573 0.73748 0.0
N269 N 0.55568 0.96328 0.71172 0.0
C270 C 0.51568 0.95328 0.75518 0.0
C271 C 0.51239 0.91716 0.70701 0.0
C272 C 0.5439 0.97198 0.74164 0.0
C273 C 0.54065 0.93649 0.69431 0.0
C274 C 0.40509 0.92567 0.76114 0.0
C275 C 0.37486 0.93636 0.80416 0.0
N276 N 0.38666 0.96317 0.78683 0.0
C277 C 0.41678 0.95324 0.74353 0.0
C278 C 0.38382 0.91705 0.79149 0.0
C279 C 0.40723 0.97192 0.75703 0.0
C280 C 0.43602 0.91379 0.62891 0.0
N281 N 0.45258 0.92617 0.66286 0.0
C282 C 0.48367 0.96931 0.62511 0.0
C283 C 0.47575 0.95359 0.66185 0.0
C284 C 0.4673 0.95665 0.58962 0.0
C285 C 0.44313 0.92874 0.5916 0.0
H286 H 0.41736 0.89221 0.63078 0.0
H287 H 0.48807 0.96328 0.68946 0.0
C288 C 0.45698 0.91361 0.86972 0.0
N289 N 0.45269 0.92601 0.83588 0.0
C290 C 0.46475 0.92846 0.90711 0.0
C291 C 0.46452 0.96899 0.87393 0.0
C292 C 0.45677 0.95336 0.83709 0.0
C293 C 0.46832 0.9563 0.9093 0.0
H294 H 0.45417 0.89208 0.86769 0.0
H295 H 0.45407 0.96308 0.80958 0.0
C296 C 0.41892 0.84359 0.67076 0.0
N297 N 0.41871 0.80908 0.60713 0.0
C298 C 0.39474 0.81617 0.66415 0.0
C299 C 0.44286 0.85358 0.64475 0.0
C300 C 0.39509 0.79901 0.63191 0.0
C301 C 0.44237 0.83578 0.61281 0.0
C302 C 0.40392 0.84358 0.8278 0.0
C303 C 0.40078 0.81622 0.83457 0.0
C304 C 0.38993 0.85358 0.85373 0.0
C305 C 0.38333 0.79912 0.8669 0.0
C306 C 0.3727 0.83585 0.88576 0.0
N307 N 0.36975 0.8092 0.8916 0.0
C308 C 0.48847 0.849 0.75805 0.0
C309 C 0.44167 0.811 0.7395 0.0
C310 C 0.4988 0.82953 0.75948 0.0
N311 N 0.46038 0.83942 0.74797 0.0
C312 C 0.45106 0.79088 0.74053 0.0
C313 C 0.47984 0.80019 0.75073 0.0
H314 H 0.50269 0.87161 0.76558 0.0
H315 H 0.41928 0.80387 0.73283 0.0
C316 C 0.33972 0.84888 0.74034 0.0
N317 N 0.35824 0.83934 0.75052 0.0
C318 C 0.30992 0.82939 0.73895 0.0
C319 C 0.31905 0.79081 0.75813 0.0
C320 C 0.34855 0.81094 0.75913 0.0
C321 C 0.29956 0.80008 0.74783 0.0
H322 H 0.3481 0.87147 0.73272 0.0
H323 H 0.36382 0.80384 0.76589 0.0
O324 O 0.47229 0.90703 0.75081 0.0
O325 O 0.41391 0.90699 0.74785 0.0
O326 O 0.4188 0.86078 0.70195 0.0
O327 O 0.42117 0.86071 0.79653 0.0
H328 H 0.50628 0.96014 0.77904 0.0
H329 H 0.50061 0.89572 0.69363 0.0
H330 H 0.55644 -0.0066 0.75495 0.0
H331 H 0.55067 0.93015 0.67073 0.0
H332 H 0.35842 0.92998 0.82765 0.0
H333 H 0.43311 0.96014 0.71975 0.0
H334 H 0.37411 0.89559 0.80481 0.0
H335 H 0.41614 -0.00664 0.74378 0.0
H336 H 0.50234 0.99101 0.6244 0.0
H337 H 0.42999 0.91857 0.56462 0.0
H338 H 0.4678 0.91827 0.934 0.0
H339 H 0.46742 0.99064 0.87479 0.0
H340 H 0.37591 0.80821 0.68374 0.0
H341 H 0.46148 0.87495 0.64887 0.0
H342 H 0.37656 0.7777 0.62653 0.0
H343 H 0.46076 0.84325 0.59244 0.0
H344 H 0.41167 0.80825 0.81504 0.0
H345 H 0.39262 0.87491 0.84948 0.0
H346 H 0.38063 0.77786 0.8724 0.0
H347 H 0.36175 0.84332 0.90607 0.0
H348 H 0.52111 0.83717 0.76784 0.0
H349 H 0.4359 0.76823 0.73404 0.0
H350 H 0.29524 0.83701 0.73051 0.0
H351 H 0.31157 0.76818 0.76474 0.0
Li352 Li 0.52907 0.44664 0.28983 0.0
Li353 Li 0.52333 0.40448 0.25042 0.0
Li354 Li 0.57105 0.45177 0.25153 0.0
Li355 Li 0.52953 0.44689 0.21196 0.0
C356 C 0.55793 0.42285 0.33586 0.0
N357 N 0.57561 0.4189 0.41422 0.0
C358 C 0.54439 0.39633 0.35674 0.0
C359 C 0.5806 0.44729 0.35464 0.0
C360 C 0.5536 0.3948 0.3964 0.0
C361 C 0.58918 0.44487 0.39433 0.0
C362 C 0.46919 0.40076 0.24764 0.0
C363 C 0.42854 0.36566 0.2078 0.0
N364 N 0.41147 0.35871 0.24177 0.0
C365 C 0.45122 0.39344 0.28209 0.0
C366 C 0.45776 0.38693 0.21011 0.0
C367 C 0.42211 0.37205 0.27852 0.0
C368 C 0.52021 0.48418 0.34166 0.0
N369 N 0.51741 0.45741 0.33851 0.0
C370 C 0.49894 0.4455 0.40697 0.0
C371 C 0.50666 0.43798 0.36995 0.0
C372 C 0.50217 0.47311 0.41119 0.0
C373 C 0.5127 0.49258 0.37817 0.0
H374 H 0.52843 0.49902 0.31593 0.0
H375 H 0.50411 0.41665 0.36626 0.0
C376 C 0.52378 0.35396 0.23182 0.0
N377 N 0.50748 0.36364 0.25058 0.0
C378 C 0.51496 0.3245 0.23217 0.0
C379 C 0.47275 0.31536 0.27139 0.0
C380 C 0.48244 0.34512 0.27041 0.0
C381 C 0.4893 0.30505 0.25227 0.0
H382 H 0.54397 0.36924 0.21729 0.0
H383 H 0.47038 0.35342 0.2863 0.0
C384 C 0.57565 0.50681 0.2544 0.0
N385 N 0.61761 0.56469 0.26091 0.0
C386 C 0.58355 0.52489 0.21993 0.0
C387 C 0.58883 0.51823 0.29227 0.0
C388 C 0.60488 0.55407 0.22381 0.0
C389 C 0.61007 0.54753 0.29491 0.0
C390 C 0.55275 0.41805 0.16569 0.0
C391 C 0.57928 0.43228 0.14515 0.0
C392 C 0.52858 0.39568 0.14602 0.0
C393 C 0.5811 0.42409 0.10493 0.0
C394 C 0.53127 0.38813 0.1058 0.0
N395 N 0.55725 0.40238 0.08625 0.0
C396 C 0.62037 0.4492 0.26912 0.0
C397 C 0.63082 0.49239 0.23382 0.0
C398 C 0.64955 0.45733 0.26919 0.0
N399 N 0.61161 0.46675 0.25181 0.0
C400 C 0.66032 0.50142 0.2333 0.0
C401 C 0.66968 0.48361 0.251 0.0
H402 H 0.60456 0.4286 0.28224 0.0
H403 H 0.62328 0.50552 0.21907 0.0
C404 C 0.49234 0.4556 0.1595 0.0
N405 N 0.51916 0.45883 0.16314 0.0
C406 C 0.48411 0.46316 0.12289 0.0
C407 C 0.53148 0.4779 0.09498 0.0
C408 C 0.53881 0.47011 0.1321 0.0
C409 C 0.50381 0.4742 0.09026 0.0
H410 H 0.47731 0.44698 0.18492 0.0
H411 H 0.56018 0.47302 0.13617 0.0
O412 O 0.54952 0.42455 0.29674 0.0
O413 O 0.49766 0.42185 0.25052 0.0
O414 O 0.5546 0.47827 0.25118 0.0
O415 O 0.55075 0.42546 0.20531 0.0
H416 H 0.52695 0.37716 0.34244 0.0
H417 H 0.59169 0.46779 0.33857 0.0
H418 H 0.54329 0.37443 0.41297 0.0
H419 H 0.60672 0.46361 0.40923 0.0
H420 H 0.41941 0.35475 0.17896 0.0
H421 H 0.45967 0.40412 0.31127 0.0
H422 H 0.47123 0.39271 0.183 0.0
H423 H 0.40796 0.36609 0.30496 0.0
H424 H 0.49066 0.42999 0.43202 0.0
H425 H 0.51522 0.51403 0.38066 0.0
H426 H 0.52833 0.31707 0.21758 0.0
H427 H 0.453 0.30075 0.28763 0.0
H428 H 0.57337 0.51646 0.19047 0.0
H429 H 0.58258 0.50471 0.31941 0.0
H430 H 0.6113 0.56829 0.19736 0.0
H431 H 0.62048 0.55665 0.32402 0.0
H432 H 0.59826 0.44949 0.16013 0.0
H433 H 0.50805 0.38407 0.1618 0.0
H434 H 0.60148 0.43495 0.0886 0.0
H435 H 0.51274 0.37084 0.0902 0.0
H436 H 0.65624 0.44301 0.28268 0.0
H437 H 0.67548 0.5217 0.21856 0.0
H438 H 0.46261 0.46027 0.12001 0.0
H439 H 0.54717 0.48659 0.07024 0.0
Li440 Li 0.07423 0.53625 0.78658 0.0
Li441 Li 0.11083 0.53132 0.74701 0.0
Li442 Li 0.11042 0.57862 0.74805 0.0
Li443 Li 0.07398 0.53643 0.70871 0.0
C444 C 0.12626 0.56503 0.83283 0.0
N445 N 0.14638 0.5806 0.91231 0.0
C446 C 0.13849 0.55073 0.85336 0.0
C447 C 0.1245 0.58742 0.85252 0.0
C448 C 0.14847 0.55887 0.8936 0.0
C449 C 0.13472 0.59492 0.89277 0.0
C450 C 0.06037 0.47628 0.74422 0.0
C451 C 0.05402 0.43553 0.70375 0.0
N452 N 0.04443 0.4184 0.73779 0.0
C453 C 0.05022 0.45823 0.77873 0.0
C454 C 0.0621 0.46483 0.70635 0.0
C455 C 0.04236 0.42904 0.77487 0.0
C456 C 0.0284 0.52768 0.8391 0.0
N457 N 0.05193 0.52435 0.83542 0.0
C458 C 0.04516 0.50527 0.90358 0.0
C459 C 0.06027 0.51303 0.86644 0.0
C460 C 0.02125 0.50906 0.90834 0.0
C461 C 0.01262 0.52015 0.87574 0.0
H462 H 0.02201 0.53633 0.81371 0.0
H463 H 0.07868 0.51005 0.86233 0.0
C464 C 0.16275 0.53393 0.7295 0.0
N465 N 0.13643 0.51635 0.74675 0.0
C466 C 0.18381 0.52582 0.72943 0.0
C467 C 0.15046 0.48168 0.76521 0.0
C468 C 0.12998 0.49069 0.76468 0.0
C469 C 0.17766 0.49952 0.74757 0.0
H470 H 0.16755 0.55454 0.71642 0.0
H471 H 0.10931 0.47753 0.77938 0.0
C472 C 0.06007 0.5824 0.75082 0.0
N473 N 0.04451 0.62454 0.75659 0.0
C474 C 0.0494 0.58969 0.71636 0.0
C475 C 0.06254 0.5963 0.7883 0.0
C476 C 0.04173 0.61112 0.71988 0.0
C477 C 0.05465 0.61761 0.79057 0.0
C478 C 0.12664 0.56016 0.66266 0.0
C479 C 0.13965 0.58665 0.64173 0.0
C480 C 0.12485 0.53569 0.64395 0.0
C481 C 0.15042 0.58814 0.60209 0.0
C482 C 0.13587 0.53805 0.60429 0.0
N483 N 0.14831 0.56401 0.58435 0.0
C484 C 0.16139 0.62915 0.76663 0.0
C485 C 0.12895 0.63796 0.72787 0.0
C486 C 0.18205 0.65861 0.76623 0.0
N487 N 0.13543 0.61946 0.74781 0.0
C488 C 0.14903 0.66771 0.72682 0.0
C489 C 0.17588 0.67804 0.74601 0.0
H490 H 0.16628 0.61388 0.78126 0.0
H491 H 0.1086 0.62965 0.71194 0.0
C492 C 0.02754 0.49889 0.65693 0.0
N493 N 0.05153 0.52564 0.66004 0.0
C494 C 0.01161 0.49047 0.62043 0.0
C495 C 0.04498 0.53751 0.59155 0.0
C496 C 0.06023 0.54504 0.62857 0.0
C497 C 0.02057 0.50991 0.58738 0.0
H498 H 0.02091 0.48406 0.68268 0.0
H499 H 0.07904 0.56636 0.63222 0.0
O500 O 0.11687 0.55767 0.79319 0.0
O501 O 0.06788 0.50483 0.74741 0.0
O502 O 0.06739 0.56126 0.74798 0.0
O503 O 0.11651 0.5585 0.70176 0.0
H504 H 0.14023 0.53351 0.83836 0.0
H505 H 0.11565 0.59909 0.83676 0.0
H506 H 0.15793 0.54795 0.90993 0.0
H507 H 0.1335 0.61221 0.9084 0.0
H508 H 0.05528 0.42638 0.67464 0.0
H509 H 0.0485 0.46668 0.80818 0.0
H510 H 0.06935 0.47833 0.67919 0.0
H511 H 0.03458 0.41485 0.80135 0.0
H512 H 0.05213 0.49654 0.92829 0.0
H513 H -0.00594 0.5231 0.87864 0.0
H514 H 0.20483 0.54016 0.716 0.0
H515 H 0.14535 0.46139 0.7799 0.0
H516 H 0.04712 0.57896 0.68721 0.0
H517 H 0.07024 0.59054 0.81542 0.0
H518 H 0.03354 0.61707 0.69344 0.0
H519 H 0.05648 0.62857 0.81938 0.0
H520 H 0.14141 0.60585 0.65598 0.0
H521 H 0.1154 0.51519 0.66007 0.0
H522 H 0.16052 0.60849 0.58548 0.0
H523 H 0.13465 0.51929 0.58944 0.0
H524 H 0.20283 0.66604 0.78086 0.0
H525 H 0.14392 0.68231 0.71049 0.0
H526 H -0.00733 0.46903 0.61798 0.0
H527 H 0.05222 0.553 0.56648 0.0
C528 C 0.47743 0.22424 0.25378 0.0
C529 C 0.48158 0.20402 0.25296 0.0
C530 C 0.47729 0.25063 0.25452 0.0
C531 C 0.48119 0.27495 0.25484 0.0
C532 C 0.24681 0.48833 0.74877 0.0
C533 C 0.27093 0.49197 0.74845 0.0
C534 C 0.22044 0.48832 0.74923 0.0
C535 C 0.19994 0.49194 0.7496 0.0
C536 C 0.72576 0.22429 0.24397 0.0
C537 C 0.70138 0.20407 0.24487 0.0
C538 C 0.75228 0.25067 0.24321 0.0
C539 C 0.7727 0.27499 0.24294 0.0
C540 C 0.49328 0.75893 0.75427 0.0
C541 C 0.48912 0.77915 0.75338 0.0
C542 C 0.4934 0.73254 0.75504 0.0
C543 C 0.48948 0.70822 0.75534 0.0
C544 C 0.72368 0.49485 0.24937 0.0
C545 C 0.69955 0.49121 0.24899 0.0
C546 C 0.75005 0.49486 0.24984 0.0
C547 C 0.77055 0.49124 0.25016 0.0
C548 C 0.24486 0.75881 0.74439 0.0
C549 C 0.26924 0.77902 0.74523 0.0
C550 C 0.21832 0.73244 0.74367 0.0
C551 C 0.19789 0.70813 0.74338 0.0
C552 C 0.48192 0.98409 0.9804 0.0
C553 C 0.47572 0.97164 0.94782 0.0
C554 C 0.48909 -0.00154 0.01869 0.0
C555 C 0.49533 0.01095 0.05123 0.0
C556 C 0.48859 0.48794 0.48168 0.0
C557 C 0.49485 0.48142 0.44941 0.0
C558 C 0.48125 0.49533 0.51962 0.0
C559 C 0.4748 0.50161 0.55193 0.0
C560 C -0.00691 0.49553 0.97902 0.0
C561 C 0.00579 0.50175 0.94669 0.0
C562 C 0.97835 0.48817 0.01695 0.0
C563 C 0.96556 0.48166 0.04921 0.0
C564 C 0.48871 -0.001 0.48039 0.0
C565 C 0.49492 0.01148 0.44783 0.0
C566 C 0.48153 0.98461 0.51865 0.0
C567 C 0.47528 0.9721 0.55118 0.0
C568 C 0.48182 0.49513 0.98167 0.0
C569 C 0.47554 0.50164 0.94941 0.0
C570 C 0.4892 0.48777 0.0196 0.0
C571 C 0.49567 0.48153 0.05192 0.0
C572 C -0.00785 0.49508 0.51691 0.0
C573 C 0.00493 0.5016 0.54917 0.0
C574 C 0.97741 0.48769 0.47898 0.0
C575 C 0.96469 0.48143 0.44666 0.0
loop_
_geom_bond_atom_site_label_1
_geom_bond_atom_site_label_2
_geom_bond_distance
_geom_bond_site_symmetry_2
_ccdc_geom_bond_type
Li0 N17 1.990 . S
Li0 O60 1.956 . S
Li0 O61 1.970 . S
Li0 O62 1.961 . S
Li1 N25 1.990 . S
Li1 O60 1.970 . S
Li1 O61 1.956 . S
Li1 O63 1.961 . S
Li2 N47 1.990 . S
Li2 O60 1.961 . S
Li2 O62 1.956 . S
Li2 O63 1.970 . S
Li3 N53 1.990 . S
Li3 O61 1.961 . S
Li3 O62 1.970 . S
Li3 O63 1.956 . S
C4 C6 1.348 . S
C4 C7 1.356 . S
C4 O60 1.325 . S
N5 C8 1.314 . S
N5 C9 1.279 . S
C6 C4 1.348 . S
C6 C8 1.353 . S
C6 H64 0.929 . S
C7 C4 1.356 . S
C7 C9 1.358 . S
C7 H65 0.930 . S
C8 N5 1.314 . S
C8 C6 1.353 . S
C8 H66 0.930 . S
C9 N5 1.279 . S
C9 C7 1.358 . S
C9 H67 0.930 . S
C10 C13 1.348 . S
C10 C14 1.356 . S
C10 O61 1.325 . S
C11 N12 1.279 . S
C11 C14 1.358 . S
C11 H68 0.930 . S
N12 C11 1.279 . S
N12 C15 1.314 . S
C13 C10 1.348 . S
C13 C15 1.353 . S
C13 H69 0.929 . S
C14 C10 1.356 . S
C14 C11 1.358 . S
C14 H70 0.930 . S
C15 N12 1.314 . S
C15 C13 1.353 . S
C15 H71 0.930 . S
C16 N17 1.314 . S
C16 C21 1.353 . S
C16 H22 0.930 . S
N17 Li0 1.990 . S
N17 C16 1.314 . S
N17 C19 1.279 . S
C18 C19 1.358 . S
C18 C20 1.356 . S
C18 H72 0.930 . S
C19 N17 1.279 . S
C19 C18 1.358 . S
C19 H23 0.930 . S
C20 C18 1.356 . S
C20 C21 1.348 . S
C21 C16 1.353 . S
C21 C20 1.348 . S
C21 H73 0.929 . S
H22 C16 0.930 . S
H23 C19 0.930 . S
C24 N25 1.314 . S
C24 C26 1.353 . S
C24 H30 0.930 . S
N25 Li1 1.990 . S
N25 C24 1.314 . S
N25 C28 1.279 . S
C26 C24 1.353 . S
C26 C29 1.348 . S
C26 H74 0.929 . S
C27 C28 1.358 . S
C27 C29 1.356 . S
C27 H75 0.930 . S
C28 N25 1.279 . S
C28 C27 1.358 . S
C28 H31 0.930 . S
C29 C26 1.348 . S
C29 C27 1.356 . S
H30 C24 0.930 . S
H31 C28 0.930 . S
C32 C34 1.348 . S
C32 C35 1.356 . S
C32 O62 1.325 . S
N33 C36 1.314 . S
N33 C37 1.279 . S
C34 C32 1.348 . S
C34 C36 1.353 . S
C34 H76 0.929 . S
C35 C32 1.356 . S
C35 C37 1.358 . S
C35 H77 0.930 . S
C36 N33 1.314 . S
C36 C34 1.353 . S
C36 H78 0.930 . S
C37 N33 1.279 . S
C37 C35 1.358 . S
C37 H79 0.930 . S
C38 C39 1.348 . S
C38 C40 1.356 . S
C38 O63 1.325 . S
C39 C38 1.348 . S
C39 C41 1.353 . S
C39 H80 0.929 . S
C40 C38 1.356 . S
C40 C42 1.358 . S
C40 H81 0.930 . S
C41 C39 1.353 . S
C41 N43 1.314 . S
C41 H82 0.930 . S
C42 C40 1.358 . S
C42 N43 1.279 . S
C42 H83 0.930 . S
N43 C41 1.314 . S
N43 C42 1.279 . S
C44 C46 1.353 . S
C44 N47 1.314 . S
C44 H50 0.930 . S
C45 N47 1.279 . S
C45 C48 1.358 . S
C45 H51 0.930 . S
C46 C44 1.353 . S
C46 C49 1.348 . S
C46 H84 0.929 . S
N47 Li2 1.990 . S
N47 C44 1.314 . S
N47 C45 1.279 . S
C48 C45 1.358 . S
C48 C49 1.356 . S
C48 H85 0.930 . S
C49 C46 1.348 . S
C49 C48 1.356 . S
H50 C44 0.930 . S
H51 C45 0.930 . S
C52 N53 1.314 . S
C52 C54 1.353 . S
C52 H58 0.930 . S
N53 Li3 1.990 . S
N53 C52 1.314 . S
N53 C56 1.279 . S
C54 C52 1.353 . S
C54 C57 1.348 . S
C54 H86 0.929 . S
C55 C56 1.358 . S
C55 C57 1.356 . S
C55 H87 0.930 . S
C56 N53 1.279 . S
C56 C55 1.358 . S
C56 H59 0.930 . S
C57 C54 1.348 . S
C57 C55 1.356 . S
H58 C52 0.930 . S
H59 C56 0.930 . S
O60 Li0 1.956 . S
O60 Li1 1.970 . S
O60 Li2 1.961 . S
O60 C4 1.325 . S
O61 Li0 1.970 . S
O61 Li1 1.956 . S
O61 Li3 1.961 . S
O61 C10 1.325 . S
O62 Li0 1.961 . S
O62 Li2 1.956 . S
O62 Li3 1.970 . S
O62 C32 1.325 . S
O63 Li1 1.961 . S
O63 Li2 1.970 . S
O63 Li3 1.956 . S
O63 C38 1.325 . S
H64 C6 0.929 . S
H65 C7 0.930 . S
H66 C8 0.930 . S
H67 C9 0.930 . S
H68 C11 0.930 . S
H69 C13 0.929 . S
H70 C14 0.930 . S
H71 C15 0.930 . S
H72 C18 0.930 . S
H73 C21 0.929 . S
H74 C26 0.929 . S
H75 C27 0.930 . S
H76 C34 0.929 . S
H77 C35 0.930 . S
H78 C36 0.930 . S
H79 C37 0.930 . S
H80 C39 0.929 . S
H81 C40 0.930 . S
H82 C41 0.930 . S
H83 C42 0.930 . S
H84 C46 0.929 . S
H85 C48 0.930 . S
H86 C54 0.929 . S
H87 C55 0.930 . S
Li88 N105 1.990 . S
Li88 O148 1.956 . S
Li88 O149 1.970 . S
Li88 O150 1.961 . S
Li89 N113 1.990 . S
Li89 O148 1.970 . S
Li89 O149 1.956 . S
Li89 O151 1.961 . S
Li90 N135 1.990 . S
Li90 O148 1.961 . S
Li90 O150 1.956 . S
Li90 O151 1.970 . S
Li91 N141 1.990 . S
Li91 O149 1.961 . S
Li91 O150 1.970 . S
Li91 O151 1.956 . S
C92 C94 1.348 . S
C92 C95 1.356 . S
C92 O148 1.325 . S
N93 C96 1.314 . S
N93 C97 1.279 . S
C94 C92 1.348 . S
C94 C96 1.353 . S
C94 H152 0.929 . S
C95 C92 1.356 . S
C95 C97 1.358 . S
C95 H153 0.930 . S
C96 N93 1.314 . S
C96 C94 1.353 . S
C96 H154 0.930 . S
C97 N93 1.279 . S
C97 C95 1.358 . S
C97 H155 0.930 . S
C98 C101 1.348 . S
C98 C102 1.356 . S
C98 O149 1.325 . S
C99 N100 1.279 . S
C99 C102 1.358 . S
C99 H156 0.930 . S
N100 C99 1.279 . S
N100 C103 1.314 . S
C101 C98 1.348 . S
C101 C103 1.353 . S
C101 H157 0.929 . S
C102 C98 1.356 . S
C102 C99 1.358 . S
C102 H158 0.930 . S
C103 N100 1.314 . S
C103 C101 1.353 . S
C103 H159 0.930 . S
C104 N105 1.314 . S
C104 C109 1.353 . S
C104 H110 0.930 . S
N105 Li88 1.990 . S
N105 C104 1.314 . S
N105 C107 1.279 . S
C106 C107 1.358 . S
C106 C108 1.356 . S
C106 H160 0.930 . S
C107 N105 1.279 . S
C107 C106 1.358 . S
C107 H111 0.930 . S
C108 C106 1.356 . S
C108 C109 1.348 . S
C109 C104 1.353 . S
C109 C108 1.348 . S
C109 H161 0.929 . S
H110 C104 0.930 . S
H111 C107 0.930 . S
C112 N113 1.314 . S
C112 C114 1.353 . S
C112 H118 0.930 . S
N113 Li89 1.990 . S
N113 C112 1.314 . S
N113 C116 1.279 . S
C114 C112 1.353 . S
C114 C117 1.348 . S
C114 H162 0.929 . S
C115 C116 1.358 . S
C115 C117 1.356 . S
C115 H163 0.930 . S
C116 N113 1.279 . S
C116 C115 1.358 . S
C116 H119 0.930 . S
C117 C114 1.348 . S
C117 C115 1.356 . S
H118 C112 0.930 . S
H119 C116 0.930 . S
C120 C122 1.348 . S
C120 C123 1.356 . S
C120 O150 1.325 . S
N121 C124 1.314 . S
N121 C125 1.279 . S
C122 C120 1.348 . S
C122 C124 1.353 . S
C122 H164 0.929 . S
C123 C120 1.356 . S
C123 C125 1.358 . S
C123 H165 0.930 . S
C124 N121 1.314 . S
C124 C122 1.353 . S
C124 H166 0.930 . S
C125 N121 1.279 . S
C125 C123 1.358 . S
C125 H167 0.930 . S
C126 C127 1.348 . S
C126 C128 1.356 . S
C126 O151 1.325 . S
C127 C126 1.348 . S
C127 C129 1.353 . S
C127 H168 0.929 . S
C128 C126 1.356 . S
C128 C130 1.358 . S
C128 H169 0.930 . S
C129 C127 1.353 . S
C129 N131 1.314 . S
C129 H170 0.930 . S
C130 C128 1.358 . S
C130 N131 1.279 . S
C130 H171 0.930 . S
N131 C129 1.314 . S
N131 C130 1.279 . S
C132 C134 1.353 . S
C132 N135 1.314 . S
C132 H138 0.930 . S
C133 N135 1.279 . S
C133 C136 1.358 . S
C133 H139 0.930 . S
C134 C132 1.353 . S
C134 C137 1.348 . S
C134 H172 0.929 . S
N135 Li90 1.990 . S
N135 C132 1.314 . S
N135 C133 1.279 . S
C136 C133 1.358 . S
C136 C137 1.356 . S
C136 H173 0.930 . S
C137 C134 1.348 . S
C137 C136 1.356 . S
H138 C132 0.930 . S
H139 C133 0.930 . S
C140 N141 1.314 . S
C140 C142 1.353 . S
C140 H146 0.930 . S
N141 Li91 1.990 . S
N141 C140 1.314 . S
N141 C144 1.279 . S
C142 C140 1.353 . S
C142 C145 1.348 . S
C142 H174 0.929 . S
C143 C144 1.358 . S
C143 C145 1.356 . S
C143 H175 0.930 . S
C144 N141 1.279 . S
C144 C143 1.358 . S
C144 H147 0.930 . S
C145 C142 1.348 . S
C145 C143 1.356 . S
H146 C140 0.930 . S
H147 C144 0.930 . S
O148 Li88 1.956 . S
O148 Li89 1.970 . S
O148 Li90 1.961 . S
O148 C92 1.325 . S
O149 Li88 1.970 . S
O149 Li89 1.956 . S
O149 Li91 1.961 . S
O149 C98 1.325 . S
O150 Li88 1.961 . S
O150 Li90 1.956 . S
O150 Li91 1.970 . S
O150 C120 1.325 . S
O151 Li89 1.961 . S
O151 Li90 1.970 . S
O151 Li91 1.956 . S
O151 C126 1.325 . S
H152 C94 0.929 . S
H153 C95 0.930 . S
H154 C96 0.930 . S
H155 C97 0.930 . S
H156 C99 0.930 . S
H157 C101 0.929 . S
H158 C102 0.930 . S
H159 C103 0.930 . S
H160 C106 0.930 . S
H161 C109 0.929 . S
H162 C114 0.929 . S
H163 C115 0.930 . S
H164 C122 0.929 . S
H165 C123 0.930 . S
H166 C124 0.930 . S
H167 C125 0.930 . S
H168 C127 0.929 . S
H169 C128 0.930 . S
H170 C129 0.930 . S
H171 C130 0.930 . S
H172 C134 0.929 . S
H173 C136 0.930 . S
H174 C142 0.929 . S
H175 C143 0.930 . S
Li176 N193 1.990 . S
Li176 O236 1.956 . S
Li176 O237 1.970 . S
Li176 O238 1.961 . S
Li177 N201 1.990 . S
Li177 O236 1.970 . S
Li177 O237 1.956 . S
Li177 O239 1.961 . S
Li178 N223 1.990 . S
Li178 O236 1.961 . S
Li178 O238 1.956 . S
Li178 O239 1.970 . S
Li179 N229 1.990 . S
Li179 O237 1.961 . S
Li179 O238 1.970 . S
Li179 O239 1.956 . S
C180 C182 1.348 . S
C180 C183 1.356 . S
C180 O236 1.325 . S
N181 C184 1.314 . S
N181 C185 1.279 . S
C182 C180 1.348 . S
C182 C184 1.353 . S
C182 H240 0.929 . S
C183 C180 1.356 . S
C183 C185 1.358 . S
C183 H241 0.930 . S
C184 N181 1.314 . S
C184 C182 1.353 . S
C184 H242 0.930 . S
C185 N181 1.279 . S
C185 C183 1.358 . S
C185 H243 0.930 . S
C186 C189 1.348 . S
C186 C190 1.356 . S
C186 O237 1.325 . S
C187 N188 1.279 . S
C187 C190 1.358 . S
C187 H244 0.930 . S
N188 C187 1.279 . S
N188 C191 1.314 . S
C189 C186 1.348 . S
C189 C191 1.353 . S
C189 H245 0.929 . S
C190 C186 1.356 . S
C190 C187 1.358 . S
C190 H246 0.930 . S
C191 N188 1.314 . S
C191 C189 1.353 . S
C191 H247 0.930 . S
C192 N193 1.314 . S
C192 C197 1.353 . S
C192 H198 0.930 . S
N193 Li176 1.990 . S
N193 C192 1.314 . S
N193 C195 1.279 . S
C194 C195 1.358 . S
C194 C196 1.356 . S
C194 H248 0.930 . S
C195 N193 1.279 . S
C195 C194 1.358 . S
C195 H199 0.930 . S
C196 C194 1.356 . S
C196 C197 1.348 . S
C197 C192 1.353 . S
C197 C196 1.348 . S
C197 H249 0.929 . S
H198 C192 0.930 . S
H199 C195 0.930 . S
C200 N201 1.314 . S
C200 C202 1.353 . S
C200 H206 0.930 . S
N201 Li177 1.990 . S
N201 C200 1.314 . S
N201 C204 1.279 . S
C202 C200 1.353 . S
C202 C205 1.348 . S
C202 H250 0.964 . S
C203 C204 1.358 . S
C203 C205 1.356 . S
C203 H251 0.930 . S
C204 N201 1.279 . S
C204 C203 1.358 . S
C204 H207 0.930 . S
C205 C202 1.348 . S
C205 C203 1.356 . S
H206 C200 0.930 . S
H207 C204 0.930 . S
C208 C210 1.348 . S
C208 C211 1.356 . S
C208 O238 1.325 . S
N209 C212 1.314 . S
N209 C213 1.279 . S
C210 C208 1.348 . S
C210 C212 1.353 . S
C210 H252 0.929 . S
C211 C208 1.356 . S
C211 C213 1.358 . S
C211 H253 0.930 . S
C212 N209 1.314 . S
C212 C210 1.353 . S
C212 H254 0.930 . S
C213 N209 1.279 . S
C213 C211 1.358 . S
C213 H255 0.930 . S
C214 C215 1.348 . S
C214 C216 1.356 . S
C214 O239 1.325 . S
C215 C214 1.348 . S
C215 C217 1.353 . S
C215 H256 0.929 . S
C216 C214 1.356 . S
C216 C218 1.358 . S
C216 H257 0.930 . S
C217 C215 1.353 . S
C217 N219 1.314 . S
C217 H258 0.930 . S
C218 C216 1.358 . S
C218 N219 1.279 . S
C218 H259 0.930 . S
N219 C217 1.314 . S
N219 C218 1.279 . S
C220 C222 1.353 . S
C220 N223 1.314 . S
C220 H226 0.930 . S
C221 N223 1.279 . S
C221 C224 1.358 . S
C221 H227 0.930 . S
C222 C220 1.353 . S
C222 C225 1.348 . S
C222 H260 0.929 . S
N223 Li178 1.990 . S
N223 C220 1.314 . S
N223 C221 1.279 . S
C224 C221 1.358 . S
C224 C225 1.356 . S
C224 H261 0.930 . S
C225 C222 1.348 . S
C225 C224 1.356 . S
H226 C220 0.930 . S
H227 C221 0.930 . S
C228 N229 1.314 . S
C228 C230 1.353 . S
C228 H234 0.930 . S
N229 Li179 1.990 . S
N229 C228 1.314 . S
N229 C232 1.279 . S
C230 C228 1.353 . S
C230 C233 1.348 . S
C230 H262 0.929 . S
C231 C232 1.358 . S
C231 C233 1.356 . S
C231 H263 0.930 . S
C232 N229 1.279 . S
C232 C231 1.358 . S
C232 H235 0.930 . S
C233 C230 1.348 . S
C233 C231 1.356 . S
H234 C228 0.930 . S
H235 C232 0.930 . S
O236 Li176 1.956 . S
O236 Li177 1.970 . S
O236 Li178 1.961 . S
O236 C180 1.325 . S
O237 Li176 1.970 . S
O237 Li177 1.956 . S
O237 Li179 1.961 . S
O237 C186 1.325 . S
O238 Li176 1.961 . S
O238 Li178 1.956 . S
O238 Li179 1.970 . S
O238 C208 1.325 . S
O239 Li177 1.961 . S
O239 Li178 1.970 . S
O239 Li179 1.956 . S
O239 C214 1.325 . S
H240 C182 0.929 . S
H241 C183 0.930 . S
H242 C184 0.930 . S
H243 C185 0.930 . S
H244 C187 0.930 . S
H245 C189 0.929 . S
H246 C190 0.930 . S
H247 C191 0.930 . S
H248 C194 0.930 . S
H249 C197 0.929 . S
H250 C202 0.964 . S
H251 C203 0.930 . S
H252 C210 0.929 . S
H253 C211 0.930 . S
H254 C212 0.930 . S
H255 C213 0.930 . S
H256 C215 0.929 . S
H257 C216 0.930 . S
H258 C217 0.930 . S
H259 C218 0.930 . S
H260 C222 0.929 . S
H261 C224 0.930 . S
H262 C230 0.929 . S
H263 C231 0.930 . S
Li264 N281 1.990 . S
Li264 O324 1.956 . S
Li264 O325 1.970 . S
Li264 O326 1.961 . S
Li265 N289 1.990 . S
Li265 O324 1.970 . S
Li265 O325 1.956 . S
Li265 O327 1.961 . S
Li266 N311 1.990 . S
Li266 O324 1.961 . S
Li266 O326 1.956 . S
Li266 O327 1.970 . S
Li267 N317 1.990 . S
Li267 O325 1.961 . S
Li267 O326 1.970 . S
Li267 O327 1.956 . S
C268 C270 1.348 . S
C268 C271 1.356 . S
C268 O324 1.325 . S
N269 C272 1.314 . S
N269 C273 1.279 . S
C270 C268 1.348 . S
C270 C272 1.353 . S
C270 H328 0.929 . S
C271 C268 1.356 . S
C271 C273 1.358 . S
C271 H329 0.930 . S
C272 N269 1.314 . S
C272 C270 1.353 . S
C272 H330 0.930 . S
C273 N269 1.279 . S
C273 C271 1.358 . S
C273 H331 0.930 . S
C274 C277 1.348 . S
C274 C278 1.356 . S
C274 O325 1.325 . S
C275 N276 1.279 . S
C275 C278 1.358 . S
C275 H332 0.930 . S
N276 C275 1.279 . S
N276 C279 1.314 . S
C277 C274 1.348 . S
C277 C279 1.353 . S
C277 H333 0.929 . S
C278 C274 1.356 . S
C278 C275 1.358 . S
C278 H334 0.930 . S
C279 N276 1.314 . S
C279 C277 1.353 . S
C279 H335 0.930 . S
C280 N281 1.314 . S
C280 C285 1.353 . S
C280 H286 0.930 . S
N281 Li264 1.990 . S
N281 C280 1.314 . S
N281 C283 1.279 . S
C282 C283 1.358 . S
C282 C284 1.356 . S
C282 H336 0.930 . S
C283 N281 1.279 . S
C283 C282 1.358 . S
C283 H287 0.930 . S
C284 C282 1.356 . S
C284 C285 1.348 . S
C285 C280 1.353 . S
C285 C284 1.348 . S
C285 H337 0.929 . S
H286 C280 0.930 . S
H287 C283 0.930 . S
C288 N289 1.314 . S
C288 C290 1.353 . S
C288 H294 0.930 . S
N289 Li265 1.990 . S
N289 C288 1.314 . S
N289 C292 1.279 . S
C290 C288 1.353 . S
C290 C293 1.348 . S
C290 H338 0.929 . S
C291 C292 1.358 . S
C291 C293 1.356 . S
C291 H339 0.930 . S
C292 N289 1.279 . S
C292 C291 1.358 . S
C292 H295 0.930 . S
C293 C290 1.348 . S
C293 C291 1.356 . S
H294 C288 0.930 . S
H295 C292 0.930 . S
C296 C298 1.348 . S
C296 C299 1.356 . S
C296 O326 1.325 . S
N297 C300 1.314 . S
N297 C301 1.279 . S
C298 C296 1.348 . S
C298 C300 1.353 . S
C298 H340 0.929 . S
C299 C296 1.356 . S
C299 C301 1.358 . S
C299 H341 0.930 . S
C300 N297 1.314 . S
C300 C298 1.353 . S
C300 H342 0.930 . S
C301 N297 1.279 . S
C301 C299 1.358 . S
C301 H343 0.930 . S
C302 C303 1.348 . S
C302 C304 1.356 . S
C302 O327 1.325 . S
C303 C302 1.348 . S
C303 C305 1.353 . S
C303 H344 0.929 . S
C304 C302 1.356 . S
C304 C306 1.358 . S
C304 H345 0.930 . S
C305 C303 1.353 . S
C305 N307 1.314 . S
C305 H346 0.930 . S
C306 C304 1.358 . S
C306 N307 1.279 . S
C306 H347 0.930 . S
N307 C305 1.314 . S
N307 C306 1.279 . S
C308 C310 1.353 . S
C308 N311 1.314 . S
C308 H314 0.930 . S
C309 N311 1.279 . S
C309 C312 1.358 . S
C309 H315 0.930 . S
C310 C308 1.353 . S
C310 C313 1.348 . S
C310 H348 0.929 . S
N311 Li266 1.990 . S
N311 C308 1.314 . S
N311 C309 1.279 . S
C312 C309 1.358 . S
C312 C313 1.356 . S
C312 H349 0.930 . S
C313 C310 1.348 . S
C313 C312 1.356 . S
H314 C308 0.930 . S
H315 C309 0.930 . S
C316 N317 1.314 . S
C316 C318 1.353 . S
C316 H322 0.930 . S
N317 Li267 1.990 . S
N317 C316 1.314 . S
N317 C320 1.279 . S
C318 C316 1.353 . S
C318 C321 1.348 . S
C318 H350 0.929 . S
C319 C320 1.358 . S
C319 C321 1.356 . S
C319 H351 0.930 . S
C320 N317 1.279 . S
C320 C319 1.358 . S
C320 H323 0.930 . S
C321 C318 1.348 . S
C321 C319 1.356 . S
H322 C316 0.930 . S
H323 C320 0.930 . S
O324 Li264 1.956 . S
O324 Li265 1.970 . S
O324 Li266 1.961 . S
O324 C268 1.325 . S
O325 Li264 1.970 . S
O325 Li265 1.956 . S
O325 Li267 1.961 . S
O325 C274 1.325 . S
O326 Li264 1.961 . S
O326 Li266 1.956 . S
O326 Li267 1.970 . S
O326 C296 1.325 . S
O327 Li265 1.961 . S
O327 Li266 1.970 . S
O327 Li267 1.956 . S
O327 C302 1.325 . S
H328 C270 0.929 . S
H329 C271 0.930 . S
H330 C272 0.930 . S
H331 C273 0.930 . S
H332 C275 0.930 . S
H333 C277 0.929 . S
H334 C278 0.930 . S
H335 C279 0.930 . S
H336 C282 0.930 . S
H337 C285 0.929 . S
H338 C290 0.929 . S
H339 C291 0.930 . S
H340 C298 0.929 . S
H341 C299 0.930 . S
H342 C300 0.930 . S
H343 C301 0.930 . S
H344 C303 0.929 . S
H345 C304 0.930 . S
H346 C305 0.930 . S
H347 C306 0.930 . S
H348 C310 0.929 . S
H349 C312 0.930 . S
H350 C318 0.929 . S
H351 C319 0.930 . S
Li352 N369 1.990 . S
Li352 O412 1.956 . S
Li352 O413 1.970 . S
Li352 O414 1.961 . S
Li353 N377 1.990 . S
Li353 O412 1.970 . S
Li353 O413 1.956 . S
Li353 O415 1.961 . S
Li354 N399 1.990 . S
Li354 O412 1.961 . S
Li354 O414 1.956 . S
Li354 O415 1.970 . S
Li355 N405 1.990 . S
Li355 O413 1.961 . S
Li355 O414 1.970 . S
Li355 O415 1.956 . S
C356 C358 1.348 . S
C356 C359 1.356 . S
C356 O412 1.325 . S
N357 C360 1.314 . S
N357 C361 1.279 . S
C358 C356 1.348 . S
C358 C360 1.353 . S
C358 H416 0.929 . S
C359 C356 1.356 . S
C359 C361 1.358 . S
C359 H417 0.930 . S
C360 N357 1.314 . S
C360 C358 1.353 . S
C360 H418 0.930 . S
C361 N357 1.279 . S
C361 C359 1.358 . S
C361 H419 0.930 . S
C362 C365 1.348 . S
C362 C366 1.356 . S
C362 O413 1.325 . S
C363 N364 1.279 . S
C363 C366 1.358 . S
C363 H420 0.930 . S
N364 C363 1.279 . S
N364 C367 1.314 . S
C365 C362 1.348 . S
C365 C367 1.353 . S
C365 H421 0.929 . S
C366 C362 1.356 . S
C366 C363 1.358 . S
C366 H422 0.930 . S
C367 N364 1.314 . S
C367 C365 1.353 . S
C367 H423 0.930 . S
C368 N369 1.314 . S
C368 C373 1.353 . S
C368 H374 0.930 . S
N369 Li352 1.990 . S
N369 C368 1.314 . S
N369 C371 1.279 . S
C370 C371 1.358 . S
C370 C372 1.356 . S
C370 H424 0.930 . S
C371 N369 1.279 . S
C371 C370 1.358 . S
C371 H375 0.930 . S
C372 C370 1.356 . S
C372 C373 1.348 . S
C373 C368 1.353 . S
C373 C372 1.348 . S
C373 H425 0.929 . S
H374 C368 0.930 . S
H375 C371 0.930 . S
C376 N377 1.314 . S
C376 C378 1.353 . S
C376 H382 0.930 . S
N377 Li353 1.990 . S
N377 C376 1.314 . S
N377 C380 1.279 . S
C378 C376 1.353 . S
C378 C381 1.348 . S
C378 H426 0.929 . S
C379 C380 1.358 . S
C379 C381 1.356 . S
C379 H427 0.930 . S
C380 N377 1.279 . S
C380 C379 1.358 . S
C380 H383 0.930 . S
C381 C378 1.348 . S
C381 C379 1.356 . S
H382 C376 0.930 . S
H383 C380 0.930 . S
C384 C386 1.348 . S
C384 C387 1.356 . S
C384 O414 1.325 . S
N385 C388 1.314 . S
N385 C389 1.279 . S
C386 C384 1.348 . S
C386 C388 1.353 . S
C386 H428 0.929 . S
C387 C384 1.356 . S
C387 C389 1.358 . S
C387 H429 0.930 . S
C388 N385 1.314 . S
C388 C386 1.353 . S
C388 H430 0.930 . S
C389 N385 1.279 . S
C389 C387 1.358 . S
C389 H431 0.930 . S
C390 C391 1.348 . S
C390 C392 1.356 . S
C390 O415 1.325 . S
C391 C390 1.348 . S
C391 C393 1.353 . S
C391 H432 0.929 . S
C392 C390 1.356 . S
C392 C394 1.358 . S
C392 H433 0.930 . S
C393 C391 1.353 . S
C393 N395 1.314 . S
C393 H434 0.930 . S
C394 C392 1.358 . S
C394 N395 1.279 . S
C394 H435 0.930 . S
N395 C393 1.314 . S
N395 C394 1.279 . S
C396 C398 1.353 . S
C396 N399 1.314 . S
C396 H402 0.930 . S
C397 N399 1.279 . S
C397 C400 1.358 . S
C397 H403 0.930 . S
C398 C396 1.353 . S
C398 C401 1.348 . S
C398 H436 0.929 . S
N399 Li354 1.990 . S
N399 C396 1.314 . S
N399 C397 1.279 . S
C400 C397 1.358 . S
C400 C401 1.356 . S
C400 H437 0.930 . S
C401 C398 1.348 . S
C401 C400 1.356 . S
H402 C396 0.930 . S
H403 C397 0.930 . S
C404 N405 1.314 . S
C404 C406 1.353 . S
C404 H410 0.930 . S
N405 Li355 1.990 . S
N405 C404 1.314 . S
N405 C408 1.279 . S
C406 C404 1.353 . S
C406 C409 1.348 . S
C406 H438 0.929 . S
C407 C408 1.358 . S
C407 C409 1.356 . S
C407 H439 0.930 . S
C408 N405 1.279 . S
C408 C407 1.358 . S
C408 H411 0.930 . S
C409 C406 1.348 . S
C409 C407 1.356 . S
H410 C404 0.930 . S
H411 C408 0.930 . S
O412 Li352 1.956 . S
O412 Li353 1.970 . S
O412 Li354 1.961 . S
O412 C356 1.325 . S
O413 Li352 1.970 . S
O413 Li353 1.956 . S
O413 Li355 1.961 . S
O413 C362 1.325 . S
O414 Li352 1.961 . S
O414 Li354 1.956 . S
O414 Li355 1.970 . S
O414 C384 1.325 . S
O415 Li353 1.961 . S
O415 Li354 1.970 . S
O415 Li355 1.956 . S
O415 C390 1.325 . S
H416 C358 0.929 . S
H417 C359 0.930 . S
H418 C360 0.930 . S
H419 C361 0.930 . S
H420 C363 0.930 . S
H421 C365 0.929 . S
H422 C366 0.930 . S
H423 C367 0.930 . S
H424 C370 0.930 . S
H425 C373 0.929 . S
H426 C378 0.929 . S
H427 C379 0.930 . S
H428 C386 0.929 . S
H429 C387 0.930 . S
H430 C388 0.930 . S
H431 C389 0.930 . S
H432 C391 0.929 . S
H433 C392 0.930 . S
H434 C393 0.930 . S
H435 C394 0.930 . S
H436 C398 0.929 . S
H437 C400 0.930 . S
H438 C406 0.929 . S
H439 C407 0.930 . S
Li440 N457 1.990 . S
Li440 O500 1.956 . S
Li440 O501 1.970 . S
Li440 O502 1.961 . S
Li441 N465 1.990 . S
Li441 O500 1.970 . S
Li441 O501 1.956 . S
Li441 O503 1.961 . S
Li442 N487 1.990 . S
Li442 O500 1.961 . S
Li442 O502 1.956 . S
Li442 O503 1.970 . S
Li443 N493 1.990 . S
Li443 O501 1.961 . S
Li443 O502 1.970 . S
Li443 O503 1.956 . S
C444 C446 1.348 . S
C444 C447 1.356 . S
C444 O500 1.325 . S
N445 C448 1.314 . S
N445 C449 1.279 . S
C446 C444 1.348 . S
C446 C448 1.353 . S
C446 H504 0.929 . S
C447 C444 1.356 . S
C447 C449 1.358 . S
C447 H505 0.930 . S
C448 N445 1.314 . S
C448 C446 1.353 . S
C448 H506 0.930 . S
C449 N445 1.279 . S
C449 C447 1.358 . S
C449 H507 0.930 . S
C450 C453 1.348 . S
C450 C454 1.356 . S
C450 O501 1.325 . S
C451 N452 1.279 . S
C451 C454 1.358 . S
C451 H508 0.930 . S
N452 C451 1.279 . S
N452 C455 1.314 . S
C453 C450 1.348 . S
C453 C455 1.353 . S
C453 H509 0.929 . S
C454 C450 1.356 . S
C454 C451 1.358 . S
C454 H510 0.930 . S
C455 N452 1.314 . S
C455 C453 1.353 . S
C455 H511 0.930 . S
C456 N457 1.314 . S
C456 C461 1.353 . S
C456 H462 0.930 . S
N457 Li440 1.990 . S
N457 C456 1.314 . S
N457 C459 1.279 . S
C458 C459 1.358 . S
C458 C460 1.356 . S
C458 H512 0.930 . S
C459 N457 1.279 . S
C459 C458 1.358 . S
C459 H463 0.930 . S
C460 C458 1.356 . S
C460 C461 1.348 . S
C461 C456 1.353 . S
C461 C460 1.348 . S
C461 H513 0.964 . S
H462 C456 0.930 . S
H463 C459 0.930 . S
C464 N465 1.314 . S
C464 C466 1.353 . S
C464 H470 0.930 . S
N465 Li441 1.990 . S
N465 C464 1.314 . S
N465 C468 1.279 . S
C466 C464 1.353 . S
C466 C469 1.348 . S
C466 H514 0.929 . S
C467 C468 1.358 . S
C467 C469 1.356 . S
C467 H515 0.930 . S
C468 N465 1.279 . S
C468 C467 1.358 . S
C468 H471 0.930 . S
C469 C466 1.348 . S
C469 C467 1.356 . S
H470 C464 0.930 . S
H471 C468 0.930 . S
C472 C474 1.348 . S
C472 C475 1.356 . S
C472 O502 1.325 . S
N473 C476 1.314 . S
N473 C477 1.279 . S
C474 C472 1.348 . S
C474 C476 1.353 . S
C474 H516 0.929 . S
C475 C472 1.356 . S
C475 C477 1.358 . S
C475 H517 0.930 . S
C476 N473 1.314 . S
C476 C474 1.353 . S
C476 H518 0.930 . S
C477 N473 1.279 . S
C477 C475 1.358 . S
C477 H519 0.930 . S
C478 C479 1.348 . S
C478 C480 1.356 . S
C478 O503 1.325 . S
C479 C478 1.348 . S
C479 C481 1.353 . S
C479 H520 0.929 . S
C480 C478 1.356 . S
C480 C482 1.358 . S
C480 H521 0.930 . S
C481 C479 1.353 . S
C481 N483 1.314 . S
C481 H522 0.930 . S
C482 C480 1.358 . S
C482 N483 1.279 . S
C482 H523 0.930 . S
N483 C481 1.314 . S
N483 C482 1.279 . S
C484 C486 1.353 . S
C484 N487 1.314 . S
C484 H490 0.930 . S
C485 N487 1.279 . S
C485 C488 1.358 . S
C485 H491 0.930 . S
C486 C484 1.353 . S
C486 C489 1.348 . S
C486 H524 0.929 . S
N487 Li442 1.990 . S
N487 C484 1.314 . S
N487 C485 1.279 . S
C488 C485 1.358 . S
C488 C489 1.356 . S
C488 H525 0.930 . S
C489 C486 1.348 . S
C489 C488 1.356 . S
H490 C484 0.930 . S
H491 C485 0.930 . S
C492 N493 1.314 . S
C492 C494 1.353 . S
C492 H498 0.930 . S
N493 Li443 1.990 . S
N493 C492 1.314 . S
N493 C496 1.279 . S
C494 C492 1.353 . S
C494 C497 1.348 . S
C494 H526 0.929 . S
C495 C496 1.358 . S
C495 C497 1.356 . S
C495 H527 0.930 . S
C496 N493 1.279 . S
C496 C495 1.358 . S
C496 H499 0.930 . S
C497 C494 1.348 . S
C497 C495 1.356 . S
H498 C492 0.930 . S
H499 C496 0.930 . S
O500 Li440 1.956 . S
O500 Li441 1.970 . S
O500 Li442 1.961 . S
O500 C444 1.325 . S
O501 Li440 1.970 . S
O501 Li441 1.956 . S
O501 Li443 1.961 . S
O501 C450 1.325 . S
O502 Li440 1.961 . S
O502 Li442 1.956 . S
O502 Li443 1.970 . S
O502 C472 1.325 . S
O503 Li441 1.961 . S
O503 Li442 1.970 . S
O503 Li443 1.956 . S
O503 C478 1.325 . S
H504 C446 0.929 . S
H505 C447 0.930 . S
H506 C448 0.930 . S
H507 C449 0.930 . S
H508 C451 0.930 . S
H509 C453 0.929 . S
H510 C454 0.930 . S
H511 C455 0.930 . S
H512 C458 0.930 . S
H513 C461 0.964 . S
H514 C466 0.929 . S
H515 C467 0.930 . S
H516 C474 0.929 . S
H517 C475 0.930 . S
H518 C476 0.930 . S
H519 C477 0.930 . S
H520 C479 0.929 . S
H521 C480 0.930 . S
H522 C481 0.930 . S
H523 C482 0.930 . S
H524 C486 0.929 . S
H525 C488 0.930 . S
H526 C494 0.929 . S
H527 C495 0.930 . S
C528 C529 1.170 . S
C528 C530 1.380 . S
C529 C528 1.170 . S
C530 C528 1.380 . S
C530 C531 1.170 . S
C531 C530 1.170 . S
C532 C533 1.170 . S
C532 C534 1.380 . S
C533 C532 1.170 . S
C534 C532 1.380 . S
C534 C535 1.170 . S
C535 C534 1.170 . S
C536 C537 1.170 . S
C536 C538 1.380 . S
C537 C536 1.170 . S
C538 C536 1.380 . S
C538 C539 1.170 . S
C539 C538 1.170 . S
C540 C541 1.170 . S
C540 C542 1.380 . S
C541 C540 1.170 . S
C542 C540 1.380 . S
C542 C543 1.170 . S
C543 C542 1.170 . S
C544 C545 1.170 . S
C544 C546 1.380 . S
C545 C544 1.170 . S
C546 C544 1.380 . S
C546 C547 1.170 . S
C547 C546 1.170 . S
C548 C549 1.170 . S
C548 C550 1.380 . S
C549 C548 1.170 . S
C550 C548 1.380 . S
C550 C551 1.170 . S
C551 C550 1.170 . S
C552 C553 1.170 . S
C552 C554 1.380 1_566 S
C553 C552 1.170 . S
C554 C552 1.380 1_544 S
C554 C555 1.170 . S
C555 C554 1.170 . S
C556 C557 1.170 . S
C556 C558 1.380 . S
C557 C556 1.170 . S
C558 C556 1.380 . S
C558 C559 1.170 . S
C559 C558 1.170 . S
C560 C561 1.170 . S
C560 C562 1.380 1_456 S
C561 C560 1.170 . S
C562 C560 1.380 1_654 S
C562 C563 1.170 . S
C563 C562 1.170 . S
C564 C565 1.170 . S
C564 C566 1.380 1_545 S
C565 C564 1.170 . S
C566 C564 1.380 1_565 S
C566 C567 1.170 . S
C567 C566 1.170 . S
C568 C569 1.170 . S
C568 C570 1.380 1_556 S
C569 C568 1.170 . S
C570 C568 1.380 1_554 S
C570 C571 1.170 . S
C571 C570 1.170 . S
C572 C573 1.170 . S
C572 C574 1.380 1_455 S
C573 C572 1.170 . S
C574 C572 1.380 1_655 S
C574 C575 1.170 . S
C575 C574 1.170 . S
C529 C20 1.038 . S
C531 C381 1.028 . S
C533 C137 1.046 . S
C535 C469 1.031 . S
C537 C29 1.031 . S
C539 C233 1.045 . S
C541 C313 1.042 . S
C543 C117 1.053 . S
C545 C401 1.045 . S
C547 C196 1.056 . S
C549 C321 1.020 . S
C551 C489 1.015 . S
C553 C293 1.301 . S
C555 C49 1.319 . S
C557 C372 1.317 . S
C559 C145 1.308 . S
C561 C460 1.304 . S
C563 C225 1.326 . S
C565 C57 1.300 . S
C567 C284 1.309 . S
C569 C108 1.313 . S
C571 C409 1.312 . S
C573 C497 1.308 . S
C575 C205 1.317 . S
