# Generated by pormake.
# Topology umr, (4)-cn, num edge types: 1
# Building blocks:
#     Node 0, Type 0, BuildingBlock: QUQFOY_clean_sbu_1, # of connection points: 4
#     Node 1, Type 0, BuildingBlock: QUQFOY_clean_sbu_1, # of connection points: 4
#     Node 2, Type 0, BuildingBlock: QUQFOY_clean_sbu_1, # of connection points: 4
#     Node 3, Type 0, BuildingBlock: QUQFOY_clean_sbu_1, # of connection points: 4
#     Node 4, Type 0, BuildingBlock: QUQFOY_clean_sbu_1, # of connection points: 4
#     Node 5, Type 0, BuildingBlock: QUQFOY_clean_sbu_1, # of connection points: 4
#     Node 6, Type 0, BuildingBlock: QUQFOY_clean_sbu_1, # of connection points: 4
#     Node 7, Type 0, BuildingBlock: QUQFOY_clean_sbu_1, # of connection points: 4
#     Node 8, Type 0, BuildingBlock: QUQFOY_clean_sbu_1, # of connection points: 4
#     Node 9, Type 0, BuildingBlock: QUQFOY_clean_sbu_1, # of connection points: 4
#     Node 10, Type 0, BuildingBlock: QUQFOY_clean_sbu_1, # of connection points: 4
#     Node 11, Type 0, BuildingBlock: QUQFOY_clean_sbu_1, # of connection points: 4
#     Node 12, Type 0, BuildingBlock: QUQFOY_clean_sbu_1, # of connection points: 4
#     Node 13, Type 0, BuildingBlock: QUQFOY_clean_sbu_1, # of connection points: 4
#     Node 14, Type 0, BuildingBlock: QUQFOY_clean_sbu_1, # of connection points: 4
#     Node 15, Type 0, BuildingBlock: QUQFOY_clean_sbu_1, # of connection points: 4
#     Node 16, Type 0, BuildingBlock: QUQFOY_clean_sbu_1, # of connection points: 4
#     Node 17, Type 0, BuildingBlock: QUQFOY_clean_sbu_1, # of connection points: 4
#     Node 18, Type 0, BuildingBlock: QUQFOY_clean_sbu_1, # of connection points: 4
#     Node 19, Type 0, BuildingBlock: QUQFOY_clean_sbu_1, # of connection points: 4
#     Node 20, Type 0, BuildingBlock: QUQFOY_clean_sbu_1, # of connection points: 4
#     Node 21, Type 0, BuildingBlock: QUQFOY_clean_sbu_1, # of connection points: 4
#     Node 22, Type 0, BuildingBlock: QUQFOY_clean_sbu_1, # of connection points: 4
#     Node 23, Type 0, BuildingBlock: QUQFOY_clean_sbu_1, # of connection points: 4
#     Node 24, Type 0, BuildingBlock: QUQFOY_clean_sbu_1, # of connection points: 4
#     Node 25, Type 0, BuildingBlock: QUQFOY_clean_sbu_1, # of connection points: 4
#     Node 26, Type 0, BuildingBlock: QUQFOY_clean_sbu_1, # of connection points: 4
#     Node 27, Type 0, BuildingBlock: QUQFOY_clean_sbu_1, # of connection points: 4
#     Node 28, Type 0, BuildingBlock: QUQFOY_clean_sbu_1, # of connection points: 4
#     Node 29, Type 0, BuildingBlock: QUQFOY_clean_sbu_1, # of connection points: 4
#     Node 30, Type 0, BuildingBlock: QUQFOY_clean_sbu_1, # of connection points: 4
#     Node 31, Type 0, BuildingBlock: QUQFOY_clean_sbu_1, # of connection points: 4
#     Edge 32, Type (0, 0), BuildingBlock: OJICUG_clean_linker_0, # of connection points: 2
#     Edge 33, Type (0, 0), BuildingBlock: OJICUG_clean_linker_0, # of connection points: 2
#     Edge 34, Type (0, 0), BuildingBlock: OJICUG_clean_linker_0, # of connection points: 2
#     Edge 35, Type (0, 0), BuildingBlock: OJICUG_clean_linker_0, # of connection points: 2
#     Edge 36, Type (0, 0), BuildingBlock: OJICUG_clean_linker_0, # of connection points: 2
#     Edge 37, Type (0, 0), BuildingBlock: OJICUG_clean_linker_0, # of connection points: 2
#     Edge 38, Type (0, 0), BuildingBlock: OJICUG_clean_linker_0, # of connection points: 2
#     Edge 39, Type (0, 0), BuildingBlock: OJICUG_clean_linker_0, # of connection points: 2
#     Edge 40, Type (0, 0), BuildingBlock: OJICUG_clean_linker_0, # of connection points: 2
#     Edge 41, Type (0, 0), BuildingBlock: OJICUG_clean_linker_0, # of connection points: 2
#     Edge 42, Type (0, 0), BuildingBlock: OJICUG_clean_linker_0, # of connection points: 2
#     Edge 43, Type (0, 0), BuildingBlock: OJICUG_clean_linker_0, # of connection points: 2
#     Edge 44, Type (0, 0), BuildingBlock: OJICUG_clean_linker_0, # of connection points: 2
#     Edge 45, Type (0, 0), BuildingBlock: OJICUG_clean_linker_0, # of connection points: 2
#     Edge 46, Type (0, 0), BuildingBlock: OJICUG_clean_linker_0, # of connection points: 2
#     Edge 47, Type (0, 0), BuildingBlock: OJICUG_clean_linker_0, # of connection points: 2
#     Edge 48, Type (0, 0), BuildingBlock: OJICUG_clean_linker_0, # of connection points: 2
#     Edge 49, Type (0, 0), BuildingBlock: OJICUG_clean_linker_0, # of connection points: 2
#     Edge 50, Type (0, 0), BuildingBlock: OJICUG_clean_linker_0, # of connection points: 2
#     Edge 51, Type (0, 0), BuildingBlock: OJICUG_clean_linker_0, # of connection points: 2
#     Edge 52, Type (0, 0), BuildingBlock: OJICUG_clean_linker_0, # of connection points: 2
#     Edge 53, Type (0, 0), BuildingBlock: OJICUG_clean_linker_0, # of connection points: 2
#     Edge 54, Type (0, 0), BuildingBlock: OJICUG_clean_linker_0, # of connection points: 2
#     Edge 55, Type (0, 0), BuildingBlock: OJICUG_clean_linker_0, # of connection points: 2
#     Edge 56, Type (0, 0), BuildingBlock: OJICUG_clean_linker_0, # of connection points: 2
#     Edge 57, Type (0, 0), BuildingBlock: OJICUG_clean_linker_0, # of connection points: 2
#     Edge 58, Type (0, 0), BuildingBlock: OJICUG_clean_linker_0, # of connection points: 2
#     Edge 59, Type (0, 0), BuildingBlock: OJICUG_clean_linker_0, # of connection points: 2
#     Edge 60, Type (0, 0), BuildingBlock: OJICUG_clean_linker_0, # of connection points: 2
#     Edge 61, Type (0, 0), BuildingBlock: OJICUG_clean_linker_0, # of connection points: 2
#     Edge 62, Type (0, 0), BuildingBlock: OJICUG_clean_linker_0, # of connection points: 2
#     Edge 63, Type (0, 0), BuildingBlock: OJICUG_clean_linker_0, # of connection points: 2
#     Edge 64, Type (0, 0), BuildingBlock: OJICUG_clean_linker_0, # of connection points: 2
#     Edge 65, Type (0, 0), BuildingBlock: OJICUG_clean_linker_0, # of connection points: 2
#     Edge 66, Type (0, 0), BuildingBlock: OJICUG_clean_linker_0, # of connection points: 2
#     Edge 67, Type (0, 0), BuildingBlock: OJICUG_clean_linker_0, # of connection points: 2
#     Edge 68, Type (0, 0), BuildingBlock: OJICUG_clean_linker_0, # of connection points: 2
#     Edge 69, Type (0, 0), BuildingBlock: OJICUG_clean_linker_0, # of connection points: 2
#     Edge 70, Type (0, 0), BuildingBlock: OJICUG_clean_linker_0, # of connection points: 2
#     Edge 71, Type (0, 0), BuildingBlock: OJICUG_clean_linker_0, # of connection points: 2
#     Edge 72, Type (0, 0), BuildingBlock: OJICUG_clean_linker_0, # of connection points: 2
#     Edge 73, Type (0, 0), BuildingBlock: OJICUG_clean_linker_0, # of connection points: 2
#     Edge 74, Type (0, 0), BuildingBlock: OJICUG_clean_linker_0, # of connection points: 2
#     Edge 75, Type (0, 0), BuildingBlock: OJICUG_clean_linker_0, # of connection points: 2
#     Edge 76, Type (0, 0), BuildingBlock: OJICUG_clean_linker_0, # of connection points: 2
#     Edge 77, Type (0, 0), BuildingBlock: OJICUG_clean_linker_0, # of connection points: 2
#     Edge 78, Type (0, 0), BuildingBlock: OJICUG_clean_linker_0, # of connection points: 2
#     Edge 79, Type (0, 0), BuildingBlock: OJICUG_clean_linker_0, # of connection points: 2
#     Edge 80, Type (0, 0), BuildingBlock: OJICUG_clean_linker_0, # of connection points: 2
#     Edge 81, Type (0, 0), BuildingBlock: OJICUG_clean_linker_0, # of connection points: 2
#     Edge 82, Type (0, 0), BuildingBlock: OJICUG_clean_linker_0, # of connection points: 2
#     Edge 83, Type (0, 0), BuildingBlock: OJICUG_clean_linker_0, # of connection points: 2
#     Edge 84, Type (0, 0), BuildingBlock: OJICUG_clean_linker_0, # of connection points: 2
#     Edge 85, Type (0, 0), BuildingBlock: OJICUG_clean_linker_0, # of connection points: 2
#     Edge 86, Type (0, 0), BuildingBlock: OJICUG_clean_linker_0, # of connection points: 2
#     Edge 87, Type (0, 0), BuildingBlock: OJICUG_clean_linker_0, # of connection points: 2
#     Edge 88, Type (0, 0), BuildingBlock: OJICUG_clean_linker_0, # of connection points: 2
#     Edge 89, Type (0, 0), BuildingBlock: OJICUG_clean_linker_0, # of connection points: 2
#     Edge 90, Type (0, 0), BuildingBlock: OJICUG_clean_linker_0, # of connection points: 2
#     Edge 91, Type (0, 0), BuildingBlock: OJICUG_clean_linker_0, # of connection points: 2
#     Edge 92, Type (0, 0), BuildingBlock: OJICUG_clean_linker_0, # of connection points: 2
#     Edge 93, Type (0, 0), BuildingBlock: OJICUG_clean_linker_0, # of connection points: 2
#     Edge 94, Type (0, 0), BuildingBlock: OJICUG_clean_linker_0, # of connection points: 2
#     Edge 95, Type (0, 0), BuildingBlock: OJICUG_clean_linker_0, # of connection points: 2
# Relax obj value: 0.049
# Max RMSD: 0.109
# Mean RMSD: 0.109
data_MOF--net-umr--node1-QUQFOY_clean_sbu_1--edge1-OJICUG_clean_linker_0
_symmetry_space_group_name_H-M    P1
_symmetry_Int_Tables_number       1
_symmetry_cell_setting            triclinic
loop_
_symmetry_equiv_pos_as_xyz
'x, y, z'
_cell_length_a     64.123252
_cell_length_b     64.144168
_cell_length_c     20.57298
_cell_angle_alpha  90.001909
_cell_angle_beta   89.998559
_cell_angle_gamma 89.965571
loop_
_atom_site_label
_atom_site_type_symbol
_atom_site_fract_x
_atom_site_fract_y
_atom_site_fract_z
_atom_type_partial_charge
O0 O 0.16528 0.28876 0.21882 0.0
Cd1 Cd 0.16985 0.30572 0.13484 0.0
Cd2 Cd 0.16682 0.26631 0.08661 0.0
O3 O 0.1548 0.25895 0.17717 0.0
O4 O 0.16402 0.3345 0.16575 0.0
O5 O 0.14472 0.31823 0.09196 0.0
C6 C 0.14784 0.33429 0.12864 0.0
C7 C 0.1537 0.253 0.98952 0.0
C8 C 0.15756 0.27068 0.22619 0.0
C9 C 0.20768 0.28868 0.07164 0.0
O10 O 0.1984 0.27126 0.07689 0.0
O11 O 0.19838 0.30542 0.08753 0.0
O12 O 0.16274 0.2412 0.0317 0.0
O13 O 0.15035 0.27223 1.00511 0.0
O14 O 0.95881 0.91532 0.4733 0.0
Cd15 Cd 0.94172 0.9206 0.38999 0.0
Cd16 Cd 0.98134 0.91797 0.34101 0.0
O17 O 0.98884 0.90563 0.43103 0.0
O18 O 0.91296 0.91482 0.42124 0.0
O19 O 0.92886 0.89589 0.34573 0.0
C20 C 0.91292 0.89891 0.383 0.0
C21 C 0.99475 0.90526 0.24347 0.0
C22 C 0.97702 0.90782 0.48016 0.0
C23 C 0.95867 0.95883 0.32843 0.0
O24 O 0.97613 0.94954 0.33239 0.0
O25 O 0.94201 0.94945 0.34465 0.0
O26 O 0.00647 0.91429 0.28586 0.0
O27 O 0.97555 0.9017 0.25903 0.0
O28 O 0.33268 0.70747 0.71901 0.0
Cd29 Cd 0.32822 0.69068 0.63461 0.0
Cd30 Cd 0.33104 0.73001 0.58705 0.0
O31 O 0.34305 0.73736 0.67763 0.0
O32 O 0.33457 0.66187 0.66417 0.0
O33 O 0.35346 0.67878 0.59071 0.0
C34 C 0.35067 0.66251 0.62673 0.0
C35 C 0.34417 0.74328 0.48995 0.0
C36 C 0.34032 0.72558 0.72656 0.0
C37 C 0.29024 0.70758 0.572 0.0
O38 O 0.29947 0.72501 0.57738 0.0
O39 O 0.29962 0.69084 0.58761 0.0
O40 O 0.33513 0.7551 0.53208 0.0
O41 O 0.34751 0.72405 0.50559 0.0
O42 O 0.5427 0.07766 0.97419 0.0
Cd43 Cd 0.55779 0.07617 0.88564 0.0
Cd44 Cd 0.51911 0.07955 0.84438 0.0
O45 O 0.51362 0.0913 0.93646 0.0
O46 O 0.58746 0.08287 0.90407 0.0
O47 O 0.56612 0.10402 0.85049 0.0
C48 C 0.58417 0.10062 0.87641 0.0
C49 C 0.50631 0.09373 0.74843 0.0
C50 C 0.52529 0.08661 0.98423 0.0
C51 C 0.54024 0.03941 0.81909 0.0
O52 O 0.5229 0.04793 0.83258 0.0
O53 O 0.55711 0.04918 0.83002 0.0
O54 O 0.49408 0.08529 0.79066 0.0
O55 O 0.52572 0.09605 0.76381 0.0
O56 O 0.1665 0.70632 0.304 0.0
Cd57 Cd 0.17093 0.68959 0.38849 0.0
Cd58 Cd 0.16729 0.72874 0.43625 0.0
O59 O 0.15531 0.73592 0.34544 0.0
O60 O 0.16489 0.66072 0.35891 0.0
O61 O 0.14565 0.67755 0.43172 0.0
C62 C 0.14866 0.6613 0.39578 0.0
C63 C 0.15371 0.74177 0.53311 0.0
C64 C 0.15845 0.72426 0.29645 0.0
C65 C 0.20844 0.70695 0.45212 0.0
O66 O 0.19893 0.72424 0.44657 0.0
O67 O 0.19938 0.69008 0.43624 0.0
O68 O 0.16262 0.75374 0.49117 0.0
O69 O 0.15076 0.72249 0.5174 0.0
O70 O 0.53989 0.91529 0.54958 0.0
Cd71 Cd 0.55665 0.92014 0.63379 0.0
Cd72 Cd 0.51729 0.91733 0.68154 0.0
O73 O 0.51 0.90501 0.59132 0.0
O74 O 0.58549 0.91366 0.6047 0.0
O75 O 0.56852 0.89507 0.67873 0.0
C76 C 0.58482 0.8977 0.6427 0.0
C77 C 0.50401 0.90447 0.779 0.0
C78 C 0.52179 0.90757 0.54232 0.0
C79 C 0.53961 0.95826 0.69522 0.0
O80 O 0.52221 0.94893 0.69033 0.0
O81 O 0.55637 0.9489 0.6797 0.0
O82 O 0.4922 0.91337 0.73659 0.0
O83 O 0.52325 0.9011 0.76346 0.0
O84 O 0.33156 0.28986 0.80375 0.0
Cd85 Cd 0.32696 0.30667 0.88803 0.0
Cd86 Cd 0.33056 0.26739 0.93592 0.0
O87 O 0.3426 0.26021 0.8452 0.0
O88 O 0.33265 0.33553 0.85778 0.0
O89 O 0.35208 0.31914 0.93105 0.0
C90 C 0.34887 0.33527 0.89477 0.0
C91 C 0.34397 0.25429 0.0329 0.0
C92 C 0.33955 0.27189 0.79623 0.0
C93 C 0.28941 0.28921 0.95143 0.0
O94 O 0.29892 0.27192 0.94593 0.0
O95 O 0.29849 0.30608 0.93562 0.0
O96 O 0.3351 0.24235 0.9908 0.0
O97 O 0.347 0.27357 0.01728 0.0
O98 O 0.95409 0.07796 0.04925 0.0
Cd99 Cd 0.93913 0.07651 0.13802 0.0
Cd100 Cd 0.97771 0.08027 0.17878 0.0
O101 O 0.98302 0.09201 0.0866 0.0
O102 O 0.90941 0.08318 0.1202 0.0
O103 O 0.93085 0.10439 0.1731 0.0
C104 C 0.91274 0.10096 0.1476 0.0
C105 C 0.99026 0.0946 0.27476 0.0
C106 C 0.97139 0.08709 0.03896 0.0
C107 C 0.9571 0.03996 0.2046 0.0
O108 O 0.97433 0.04861 0.19067 0.0
O109 O 0.94012 0.04961 0.19397 0.0
O110 O 0.00263 0.08635 0.23256 0.0
O111 O 0.97082 0.09667 0.25932 0.0
O112 O 0.8327 0.70946 0.80084 0.0
Cd113 Cd 0.82738 0.6924 0.88417 0.0
Cd114 Cd 0.83008 0.73198 0.93312 0.0
O115 O 0.84246 0.73944 0.84309 0.0
O116 O 0.83315 0.66363 0.85302 0.0
O117 O 0.85206 0.67951 0.92856 0.0
C118 C 0.84904 0.66357 0.89132 0.0
C119 C 0.8428 0.74533 0.03072 0.0
C120 C 0.84022 0.72764 0.79397 0.0
C121 C 0.78914 0.70948 0.94541 0.0
O122 O 0.79849 0.7269 0.94156 0.0
O123 O 0.79849 0.69279 0.9293 0.0
O124 O 0.83382 0.75709 0.98831 0.0
O125 O 0.84631 0.72612 0.01517 0.0
O126 O 0.03722 0.08248 0.54614 0.0
Cd127 Cd 0.05417 0.07762 0.63016 0.0
Cd128 Cd 0.01403 0.07938 0.67722 0.0
O129 O 0.00683 0.09165 0.58701 0.0
O130 O 0.08296 0.08346 0.59924 0.0
O131 O 0.06679 0.1026 0.67364 0.0
C132 C 0.08284 0.0995 0.63692 0.0
C133 C -0.00013 0.09166 0.77411 0.0
C134 C 0.01891 0.08966 0.53846 0.0
C135 C 0.03764 0.03924 0.69242 0.0
O136 O 0.01997 0.04799 0.68629 0.0
O137 O 0.05417 0.04902 0.67724 0.0
O138 O 0.98855 0.08235 0.73126 0.0
O139 O 0.01901 0.09581 0.75921 0.0
O140 O 0.66645 0.28978 0.29519 0.0
Cd141 Cd 0.67057 0.30627 0.38051 0.0
Cd142 Cd 0.66777 0.26657 0.42607 0.0
O143 O 0.65584 0.25977 0.33517 0.0
O144 O 0.66424 0.33523 0.35225 0.0
O145 O 0.64504 0.3178 0.42374 0.0
C146 C 0.64796 0.33431 0.38888 0.0
C147 C 0.65478 0.25266 0.52225 0.0
C148 C 0.6587 0.27174 0.2868 0.0
C149 C 0.70819 0.28918 0.44504 0.0
O150 O 0.69925 0.27171 0.43699 0.0
O151 O 0.69876 0.30595 0.43009 0.0
O152 O 0.66393 0.24114 0.47958 0.0
O153 O 0.65113 0.27191 0.50738 0.0
O154 O 0.45706 0.91735 0.05077 0.0
Cd155 Cd 0.4404 0.9214 0.13565 0.0
Cd156 Cd 0.4795 0.91715 0.18294 0.0
O157 O 0.48648 0.90548 0.09163 0.0
O158 O 0.41145 0.91557 0.10644 0.0
O159 O 0.42846 0.89592 0.1778 0.0
C160 C 0.4121 0.89915 0.1425 0.0
C161 C 0.4925 0.90319 0.27921 0.0
C162 C 0.47487 0.90905 0.04281 0.0
C163 C 0.45809 0.9583 0.20172 0.0
O164 O 0.47531 0.94875 0.19487 0.0
O165 O 0.44112 0.94946 0.18555 0.0
O166 O 0.50453 0.91208 0.23737 0.0
O167 O 0.47318 0.90041 0.26354 0.0
O168 O 0.82931 0.29012 0.72881 0.0
Cd169 Cd 0.82527 0.30655 0.64337 0.0
Cd170 Cd 0.82838 0.26697 0.59786 0.0
O171 O 0.8403 0.26024 0.68885 0.0
O172 O 0.83155 0.33552 0.67152 0.0
O173 O 0.85087 0.31802 0.60045 0.0
C174 C 0.8479 0.33454 0.6352 0.0
C175 C 0.8416 0.25317 0.50181 0.0
C176 C 0.83724 0.27216 0.73723 0.0
C177 C 0.78784 0.28936 0.57839 0.0
O178 O 0.79688 0.27193 0.5866 0.0
O179 O 0.79716 0.30617 0.59342 0.0
O180 O 0.83249 0.24157 0.54436 0.0
O181 O 0.84508 0.27243 0.51674 0.0
O182 O 0.45947 0.08154 0.47665 0.0
Cd183 Cd 0.44274 0.07698 0.39206 0.0
Cd184 Cd 0.48269 0.07905 0.34579 0.0
O185 O 0.48971 0.09132 0.43611 0.0
O186 O 0.41388 0.08307 0.42187 0.0
O187 O 0.43058 0.10219 0.34859 0.0
C188 C 0.41434 0.09921 0.3846 0.0
C189 C 0.49673 0.09144 0.24893 0.0
C190 C 0.47766 0.08898 0.4846 0.0
C191 C 0.45949 0.0388 0.32962 0.0
O192 O 0.47709 0.04761 0.33661 0.0
O193 O 0.44285 0.04851 0.34426 0.0
O194 O 0.50814 0.08227 0.29186 0.0
O195 O 0.47755 0.09541 0.26377 0.0
O196 O 0.66953 0.7055 0.22273 0.0
Cd197 Cd 0.67113 0.6904 0.13423 0.0
Cd198 Cd 0.6674 0.72905 0.09298 0.0
O199 O 0.65562 0.73447 0.18507 0.0
O200 O 0.66487 0.66067 0.15309 0.0
O201 O 0.64336 0.68162 0.09939 0.0
C202 C 0.64705 0.66366 0.12553 0.0
C203 C 0.65312 0.74166 0.99696 0.0
C204 C 0.66044 0.72284 0.23282 0.0
C205 C 0.70775 0.70829 0.06778 0.0
O206 O 0.69908 0.72555 0.08128 0.0
O207 O 0.6981 0.69134 0.0786 0.0
O208 O 0.66143 0.75399 0.03916 0.0
O209 O 0.65099 0.72223 0.0124 0.0
O210 O 0.04149 0.91816 0.97122 0.0
Cd211 Cd 0.05796 0.92197 0.8859 0.0
Cd212 Cd 0.01908 0.91739 0.83933 0.0
O213 O 0.01227 0.90573 0.93076 0.0
O214 O 0.08697 0.9159 0.91412 0.0
O215 O 0.0695 0.89629 0.84378 0.0
C216 C 0.08602 0.8994 0.87847 0.0
C217 C 0.00634 0.90324 0.74305 0.0
C218 C 0.02381 0.90963 0.97947 0.0
C219 C 0.04001 0.95868 0.81977 0.0
O220 O 0.02288 0.94904 0.82726 0.0
O221 O 0.05708 0.94993 0.83547 0.0
O222 O 0.99416 0.91196 0.78483 0.0
O223 O 0.0257 0.90072 0.75882 0.0
O224 O 0.66509 0.78863 0.72547 0.0
Cd225 Cd 0.66985 0.80543 0.64113 0.0
Cd226 Cd 0.66808 0.76545 0.59449 0.0
O227 O 0.65581 0.75828 0.68471 0.0
O228 O 0.66361 0.83425 0.67101 0.0
O229 O 0.64476 0.8176 0.59695 0.0
C230 C 0.6476 0.83381 0.63318 0.0
C231 C 0.65577 0.75137 0.49756 0.0
C232 C 0.65787 0.77035 0.73325 0.0
C233 C 0.70829 0.78891 0.57936 0.0
O234 O 0.6995 0.77127 0.58553 0.0
O235 O 0.69851 0.80547 0.5943 0.0
O236 O 0.66504 0.74001 0.54041 0.0
O237 O 0.65168 0.77052 0.51248 0.0
O238 O 0.4565 0.41726 0.97129 0.0
Cd239 Cd 0.43986 0.42128 0.88639 0.0
Cd240 Cd 0.47893 0.41697 0.83907 0.0
O241 O 0.4859 0.40533 0.93042 0.0
O242 O 0.41091 0.41537 0.91549 0.0
O243 O 0.428 0.39576 0.84423 0.0
C244 C 0.41162 0.39894 0.87948 0.0
C245 C 0.49192 0.40296 0.74285 0.0
C246 C 0.47431 0.40894 0.97925 0.0
C247 C 0.45754 0.45815 0.82023 0.0
O248 O 0.47475 0.44858 0.82702 0.0
O249 O 0.44057 0.44933 0.83646 0.0
O250 O 0.50395 0.41185 0.78464 0.0
O251 O 0.47259 0.4002 0.75853 0.0
O252 O 0.82813 0.20711 0.22796 0.0
Cd253 Cd 0.82601 0.1919 0.1398 0.0
Cd254 Cd 0.82888 0.23081 0.09811 0.0
O255 O 0.84107 0.23642 0.18954 0.0
O256 O 0.83227 0.16219 0.15912 0.0
O257 O 0.85353 0.18286 0.10357 0.0
C258 C 0.84993 0.16499 0.13038 0.0
C259 C 0.84245 0.24375 1.0015 0.0
C260 C 0.83688 0.22464 0.23749 0.0
C261 C 0.78873 0.20941 0.07532 0.0
O262 O 0.79723 0.22681 0.08795 0.0
O263 O 0.79866 0.19261 0.08598 0.0
O264 O 0.83407 0.25589 0.04413 0.0
O265 O 0.84506 0.22437 0.01675 0.0
O266 O 0.03928 0.58136 0.47142 0.0
Cd267 Cd 0.05622 0.57675 0.38736 0.0
Cd268 Cd 0.0168 0.58001 0.33915 0.0
O269 O 0.00951 0.59203 0.4298 0.0
O270 O 0.08505 0.58249 0.41803 0.0
O271 O 0.06874 0.60185 0.34441 0.0
C272 C 0.08483 0.59867 0.38091 0.0
C273 C 0.0035 0.59321 0.24213 0.0
C274 C 0.02123 0.58917 0.47881 0.0
C275 C 0.03902 0.53907 0.32386 0.0
O276 O 0.02164 0.54843 0.32924 0.0
O277 O 0.05581 0.54827 0.33982 0.0
O278 O 0.99168 0.58423 0.28434 0.0
O279 O 0.02276 0.59647 0.25767 0.0
O280 O 0.66867 0.2067 0.7962 0.0
Cd281 Cd 0.6708 0.19153 0.88443 0.0
Cd282 Cd 0.66763 0.23039 0.92611 0.0
O283 O 0.65549 0.23591 0.83455 0.0
O284 O 0.66459 0.1618 0.86534 0.0
O285 O 0.64327 0.18252 0.9206 0.0
C286 C 0.64692 0.16463 0.89395 0.0
C287 C 0.65387 0.24325 0.02259 0.0
C288 C 0.6598 0.22417 0.78661 0.0
C289 C 0.70792 0.2092 0.94918 0.0
O290 O 0.69931 0.22656 0.93657 0.0
O291 O 0.69811 0.19235 0.9384 0.0
O292 O 0.6622 0.25543 0.98004 0.0
O293 O 0.65142 0.22384 1.00732 0.0
O294 O 0.03968 0.4157 0.05383 0.0
Cd295 Cd 0.05649 0.42004 0.13821 0.0
Cd296 Cd 0.01721 0.41663 0.18598 0.0
O297 O 0.01002 0.40466 0.0952 0.0
O298 O 0.08534 0.4141 0.1081 0.0
O299 O 0.06869 0.39474 0.18092 0.0
C300 C 0.08488 0.39783 0.14479 0.0
C301 C 0.00403 0.40325 0.28288 0.0
C302 C 0.0217 0.40774 0.04624 0.0
C303 C 0.03923 0.4576 0.20208 0.0
O304 O 0.02188 0.44823 0.19622 0.0
O305 O 0.05607 0.44842 0.18633 0.0
O306 O 0.99214 0.41221 0.24079 0.0
O307 O 0.02331 0.40012 0.26727 0.0
O308 O 0.83 0.79223 0.30278 0.0
Cd309 Cd 0.82604 0.80872 0.38801 0.0
Cd310 Cd 0.83047 0.7698 0.4348 0.0
O311 O 0.84212 0.76289 0.3434 0.0
O312 O 0.83221 0.83771 0.35991 0.0
O313 O 0.85163 0.82021 0.43074 0.0
C314 C 0.84862 0.83673 0.396 0.0
C315 C 0.8446 0.757 0.53108 0.0
C316 C 0.8384 0.77447 0.29464 0.0
C317 C 0.78917 0.79091 0.45371 0.0
O318 O 0.79883 0.77376 0.44678 0.0
O319 O 0.79794 0.80794 0.43778 0.0
O320 O 0.83581 0.74486 0.48936 0.0
O321 O 0.84718 0.77633 0.5153 0.0
O322 O 0.45911 0.58141 0.5457 0.0
Cd323 Cd 0.4424 0.57694 0.63038 0.0
Cd324 Cd 0.4823 0.5789 0.6765 0.0
O325 O 0.48935 0.59118 0.58621 0.0
O326 O 0.41355 0.58322 0.60081 0.0
O327 O 0.43045 0.60223 0.67397 0.0
C328 C 0.41416 0.59935 0.63807 0.0
C329 C 0.49635 0.59123 0.77341 0.0
C330 C 0.4773 0.58884 0.53772 0.0
C331 C 0.45904 0.5387 0.69264 0.0
O332 O 0.47665 0.54746 0.68555 0.0
O333 O 0.44241 0.54845 0.67815 0.0
O334 O 0.50775 0.58206 0.73045 0.0
O335 O 0.47717 0.59524 0.75856 0.0
O336 O 0.33222 0.20674 0.30371 0.0
Cd337 Cd 0.32781 0.18995 0.38813 0.0
Cd338 Cd 0.3307 0.22923 0.43584 0.0
O339 O 0.34268 0.23659 0.34519 0.0
O340 O 0.33429 0.16115 0.35873 0.0
O341 O 0.35311 0.17819 0.43209 0.0
C342 C 0.3504 0.16189 0.39614 0.0
C343 C 0.3439 0.2425 0.53287 0.0
C344 C 0.3399 0.22484 0.29622 0.0
C345 C 0.28987 0.20681 0.45092 0.0
O346 O 0.29913 0.22423 0.44568 0.0
O347 O 0.29922 0.19007 0.43514 0.0
O348 O 0.33484 0.25432 0.49079 0.0
O349 O 0.34723 0.22327 0.51722 0.0
O350 O 0.54227 0.57727 0.04809 0.0
Cd351 Cd 0.55742 0.57576 0.13653 0.0
Cd352 Cd 0.51873 0.57925 0.17798 0.0
O353 O 0.51324 0.591 0.08589 0.0
O354 O 0.5871 0.58226 0.11763 0.0
O355 O 0.56597 0.60358 0.17136 0.0
C356 C 0.58396 0.60005 0.14519 0.0
C357 C 0.50596 0.59347 0.27389 0.0
C358 C 0.52489 0.58626 0.0381 0.0
C359 C 0.5398 0.53907 0.20332 0.0
O360 O 0.52247 0.54763 0.18986 0.0
O361 O 0.55669 0.54881 0.19228 0.0
O362 O 0.49372 0.58504 0.23169 0.0
O363 O 0.52538 0.59576 0.25851 0.0
O364 O 0.16529 0.78936 0.80364 0.0
Cd365 Cd 0.16999 0.80635 0.8875 0.0
Cd366 Cd 0.16696 0.76689 0.93588 0.0
O367 O 0.15492 0.7595 0.84535 0.0
O368 O 0.16434 0.83514 0.85637 0.0
O369 O 0.14498 0.81909 0.93049 0.0
C370 C 0.1482 0.83509 0.89368 0.0
C371 C 0.15386 0.75361 0.03304 0.0
C372 C 0.15762 0.77125 0.79632 0.0
C373 C 0.20784 0.78923 0.95059 0.0
O374 O 0.19853 0.77183 0.94551 0.0
O375 O 0.19856 0.80598 0.93461 0.0
O376 O 0.16287 0.7418 0.99084 0.0
O377 O 0.15051 0.77284 0.01744 0.0
O378 O 0.95655 0.41526 0.5538 0.0
Cd379 Cd 0.93979 0.41976 0.63826 0.0
Cd380 Cd 0.97911 0.41666 0.68583 0.0
O381 O 0.98638 0.40465 0.59516 0.0
O382 O 0.91093 0.41359 0.60879 0.0
O383 O 0.92779 0.39457 0.68206 0.0
C384 C 0.91151 0.39748 0.64615 0.0
C385 C 0.99235 0.4034 0.78283 0.0
C386 C 0.97462 0.40749 0.54624 0.0
C387 C 0.95686 0.45755 0.70133 0.0
O388 O 0.97426 0.44824 0.69579 0.0
O389 O 0.94008 0.44829 0.68558 0.0
O390 O 0.0042 0.41239 0.7407 0.0
O391 O 0.9731 0.40017 0.76721 0.0
O392 O 0.3316 0.79051 0.21891 0.0
Cd393 Cd 0.32706 0.80725 0.13447 0.0
Cd394 Cd 0.33069 0.76801 0.08681 0.0
O395 O 0.34271 0.76087 0.17757 0.0
O396 O 0.33283 0.83613 0.16439 0.0
O397 O 0.35223 0.81957 0.09139 0.0
C398 C 0.34906 0.83576 0.12747 0.0
C399 C 0.34421 0.75497 0.98991 0.0
C400 C 0.33963 0.77256 0.2265 0.0
C401 C 0.28954 0.78978 0.07098 0.0
O402 O 0.29905 0.77249 0.07661 0.0
O403 O 0.29861 0.80666 0.08676 0.0
O404 O 0.33533 0.743 0.0319 0.0
O405 O 0.34717 0.77426 1.0056 0.0
O406 O 0.9561 0.58096 0.97106 0.0
Cd407 Cd 0.93939 0.57669 0.88642 0.0
Cd408 Cd 0.97859 0.58005 0.83894 0.0
O409 O 0.98577 0.59199 0.92978 0.0
O410 O 0.91051 0.58302 0.91552 0.0
O411 O 0.92765 0.60207 0.84296 0.0
C412 C 0.91129 0.59923 0.87858 0.0
C413 C 0.99176 0.59346 0.74207 0.0
C414 C 0.97408 0.5889 0.97872 0.0
C415 C 0.95658 0.53909 0.82277 0.0
O416 O 0.97393 0.54846 0.82864 0.0
O417 O 0.93974 0.54827 0.83847 0.0
O418 O 0.00366 0.58451 0.78415 0.0
O419 O 0.97248 0.59657 0.75768 0.0
O420 O 0.16611 0.20571 0.71831 0.0
Cd421 Cd 0.17035 0.18912 0.63344 0.0
Cd422 Cd 0.16694 0.22819 0.58635 0.0
O423 O 0.15494 0.23535 0.67714 0.0
O424 O 0.16377 0.16026 0.66189 0.0
O425 O 0.1449 0.17772 0.58956 0.0
C426 C 0.14758 0.16127 0.62491 0.0
C427 C 0.15346 0.24126 0.48944 0.0
C428 C 0.15809 0.22366 0.72605 0.0
C429 C 0.208 0.20629 0.57035 0.0
O430 O 0.19857 0.22361 0.57622 0.0
O431 O 0.19883 0.18943 0.5858 0.0
O432 O 0.16236 0.25321 0.53145 0.0
O433 O 0.15045 0.22198 0.50512 0.0
O434 O 0.53937 0.41482 0.47252 0.0
Cd435 Cd 0.55617 0.41977 0.38842 0.0
Cd436 Cd 0.51675 0.41702 0.34061 0.0
O437 O 0.50944 0.40468 0.43078 0.0
O438 O 0.58502 0.41345 0.4178 0.0
O439 O 0.56825 0.3948 0.34346 0.0
C440 C 0.5845 0.39752 0.37966 0.0
C441 C 0.50345 0.40424 0.24308 0.0
C442 C 0.52125 0.40716 0.47977 0.0
C443 C 0.5391 0.45793 0.32719 0.0
O444 O 0.52169 0.44861 0.33199 0.0
O445 O 0.55586 0.44857 0.3427 0.0
O446 O 0.49165 0.41313 0.28555 0.0
O447 O 0.52269 0.40082 0.25858 0.0
C448 C 0.25839 0.27057 0.99631 0.0
C449 C 0.26825 0.28947 0.98055 0.0
H450 H 0.23189 0.25552 0.0378 0.0
C451 C 0.25818 0.3083 0.99622 0.0
H452 H 0.26569 0.25575 0.9853 0.0
C453 C 0.23867 0.30817 0.02705 0.0
C454 C 0.22885 0.28921 0.04263 0.0
H455 H 0.26542 0.32314 0.98518 0.0
H456 H 0.23123 0.32291 0.03812 0.0
C457 C 0.23898 0.27044 0.02684 0.0
C458 C 0.97656 0.98998 0.28138 0.0
C459 C 0.95794 0.98005 0.29982 0.0
H460 H 0.99088 0.01634 0.23664 0.0
C461 C 0.93886 0.99004 0.28673 0.0
H462 H 0.99157 0.98277 0.29046 0.0
C463 C 0.93846 0.00943 0.25529 0.0
C464 C 0.95714 0.0192 0.23631 0.0
H465 H 0.92422 0.98277 0.29996 0.0
H466 H 0.92353 0.01673 0.24581 0.0
C467 C 0.97617 0.00925 0.25007 0.0
C468 C 0.23974 0.68789 0.49667 0.0
C469 C 0.2296 0.70672 0.48127 0.0
H470 H 0.26676 0.67331 0.53823 0.0
C471 C 0.23942 0.72562 0.49724 0.0
H472 H 0.23254 0.67305 0.48546 0.0
C473 C 0.25884 0.72577 0.52768 0.0
C474 C 0.26904 0.70701 0.54315 0.0
H475 H 0.23208 0.74044 0.48645 0.0
H476 H 0.26589 0.74069 0.53878 0.0
C477 C 0.25927 0.68804 0.52739 0.0
C478 C 0.52153 0.00857 0.77314 0.0
C479 C 0.54045 0.01862 0.78748 0.0
H480 H 0.50645 0.982 0.73225 0.0
C481 C 0.55926 0.00895 0.76914 0.0
H482 H 0.50674 0.01558 0.78606 0.0
C483 C 0.5591 0.98955 0.73772 0.0
C484 C 0.54012 0.97946 0.72398 0.0
H485 H 0.57411 0.01634 0.77909 0.0
H486 H 0.57382 0.98236 0.72496 0.0
C487 C 0.52137 0.98929 0.74183 0.0
C488 C 0.73859 0.72722 0.0227 0.0
C489 C 0.72858 0.70823 0.03643 0.0
H490 H 0.76519 0.74249 0.98269 0.0
C491 C 0.73835 0.68952 0.01782 0.0
H492 H 0.73149 0.74195 0.03585 0.0
C493 C 0.75781 0.68982 0.98676 0.0
C494 C 0.76786 0.70886 0.97369 0.0
H495 H 0.73099 0.67462 0.0273 0.0
H496 H 0.76507 0.67516 0.9738 0.0
C497 C 0.75793 0.72752 0.99177 0.0
C498 C 0.05843 0.98988 0.77212 0.0
C499 C 0.03981 0.9795 0.78837 0.0
H500 H 0.07243 0.01681 0.72823 0.0
C501 C 0.0207 0.98869 0.77105 0.0
H502 H 0.07342 0.98315 0.78429 0.0
C503 C 0.02014 0.00776 0.73863 0.0
C504 C 0.03868 0.01825 0.72253 0.0
H505 H 0.00604 0.98113 0.78234 0.0
H506 H 0.00507 0.01436 0.72667 0.0
C507 C 0.05786 0.00907 0.73948 0.0
C508 C 0.7387 0.27087 0.49452 0.0
C509 C 0.72892 0.28968 0.47714 0.0
H510 H 0.76453 0.25605 0.54061 0.0
C511 C 0.73849 0.3086 0.49464 0.0
H512 H 0.73178 0.25598 0.48229 0.0
C513 C 0.75743 0.30864 0.5288 0.0
C514 C 0.76714 0.28976 0.54613 0.0
H515 H 0.73129 0.32337 0.48246 0.0
H516 H 0.76452 0.32344 0.54115 0.0
C517 C 0.7575 0.27091 0.52852 0.0
C518 C 0.43931 0.9894 0.24881 0.0
C519 C 0.45804 0.97913 0.23309 0.0
H520 H 0.42497 0.01621 0.29247 0.0
C521 C 0.47703 0.98843 0.25101 0.0
H522 H 0.4244 0.98258 0.23616 0.0
C523 C 0.47735 0.00748 0.28358 0.0
C524 C 0.45869 0.01784 0.29922 0.0
H525 H 0.49178 0.98097 0.24013 0.0
H526 H 0.49235 0.01415 0.29605 0.0
C527 C 0.43963 0.00857 0.28159 0.0
C528 C 0.73985 0.77128 0.534 0.0
C529 C 0.72935 0.78986 0.54961 0.0
H530 H 0.76658 0.75706 0.49111 0.0
C531 C 0.73859 0.80899 0.53261 0.0
H532 H 0.73322 0.75624 0.54603 0.0
C533 C 0.75787 0.80946 0.5004 0.0
C534 C 0.76827 0.79081 0.48466 0.0
H535 H 0.73084 0.82359 0.54349 0.0
H536 H 0.76465 0.82442 0.48817 0.0
C537 C 0.75901 0.77175 0.50202 0.0
C538 C 0.47651 0.48825 0.77089 0.0
C539 C 0.45751 0.47899 0.78891 0.0
H540 H 0.49185 0.51396 0.72586 0.0
C541 C 0.43879 0.4893 0.77336 0.0
H542 H 0.49125 0.48075 0.78164 0.0
C543 C 0.43913 0.50849 0.74066 0.0
C544 C 0.4582 0.51773 0.72295 0.0
H545 H 0.42388 0.48251 0.78609 0.0
H546 H 0.42448 0.51617 0.72993 0.0
C547 C 0.47685 0.50732 0.73841 0.0
C548 C 0.73864 0.2278 0.99649 0.0
C549 C 0.7288 0.20893 0.98018 0.0
H550 H 0.76495 0.24272 0.03967 0.0
C551 C 0.73871 0.19006 0.99639 0.0
H552 H 0.73144 0.24264 0.98513 0.0
C553 C 0.75806 0.19011 0.02809 0.0
C554 C 0.76784 0.20903 0.0444 0.0
H555 H 0.73151 0.17525 0.9848 0.0
H556 H 0.76537 0.17534 0.03957 0.0
C557 C 0.75786 0.22785 0.02822 0.0
C558 C 0.05846 0.48862 0.24757 0.0
C559 C 0.03957 0.47869 0.23162 0.0
H560 H 0.07318 0.51539 0.29005 0.0
C561 C 0.02071 0.48863 0.24751 0.0
H562 H 0.07326 0.48132 0.23643 0.0
C563 C 0.02066 0.50796 0.27845 0.0
C564 C 0.03947 0.51795 0.29451 0.0
H565 H 0.00585 0.48144 0.23631 0.0
H566 H 0.00577 0.51511 0.28949 0.0
C567 C 0.0584 0.50806 0.27879 0.0
C568 C 0.25853 0.22503 0.49552 0.0
C569 C 0.26866 0.20627 0.47972 0.0
H570 H 0.23181 0.23973 0.53687 0.0
C571 C 0.2588 0.1873 0.49506 0.0
H572 H 0.26565 0.23995 0.48476 0.0
C573 C 0.23925 0.18717 0.52565 0.0
C574 C 0.22918 0.20601 0.54135 0.0
H575 H 0.26624 0.17256 0.48397 0.0
H576 H 0.23198 0.17234 0.53652 0.0
C577 C 0.23909 0.22491 0.52584 0.0
C578 C 0.52089 0.48901 0.28076 0.0
C579 C 0.53963 0.47915 0.2985 0.0
H580 H 0.50627 0.51532 0.23658 0.0
C581 C 0.55861 0.4892 0.28468 0.0
H582 H 0.50596 0.48175 0.2904 0.0
C583 C 0.55879 0.5086 0.25324 0.0
C584 C 0.53999 0.5183 0.23498 0.0
H585 H 0.57333 0.48199 0.29736 0.0
H586 H 0.57364 0.51596 0.24321 0.0
C587 C 0.52107 0.50828 0.24944 0.0
C588 C 0.25833 0.80886 0.026 0.0
C589 C 0.2684 0.79003 0.04176 0.0
H590 H 0.23139 0.82346 0.984 0.0
C591 C 0.25854 0.77113 0.02602 0.0
H592 H 0.26557 0.8237 0.03702 0.0
C593 C 0.23914 0.77099 0.99543 0.0
C594 C 0.22902 0.78976 0.97957 0.0
H595 H 0.26583 0.75631 0.03709 0.0
H596 H 0.23205 0.75608 0.98451 0.0
C597 C 0.23883 0.80873 0.99512 0.0
C598 C 0.93745 0.48856 0.74635 0.0
C599 C 0.95639 0.47869 0.73059 0.0
H600 H 0.92257 0.51529 0.78865 0.0
C601 C 0.97519 0.48871 0.74651 0.0
H602 H 0.92268 0.48119 0.73519 0.0
C603 C 0.97512 0.50806 0.77736 0.0
C604 C 0.95625 0.51798 0.7933 0.0
H605 H 0.99009 0.48158 0.73543 0.0
H606 H 0.98998 0.51527 0.78846 0.0
C607 C 0.93738 0.50801 0.77748 0.0
C608 C 0.15321 0.22396 0.90913 0.0
C609 C 0.15032 0.24523 0.92257 0.0
H610 H 0.15779 0.20053 0.8369 0.0
C611 C 0.14749 0.25913 0.8704 0.0
H612 H 0.1553 0.21281 0.94814 0.0
C613 C 0.14903 0.25206 0.80604 0.0
C614 C 0.15345 0.23099 0.7929 0.0
H615 H 0.1453 0.27564 0.87919 0.0
H616 H 0.14777 0.26326 0.76683 0.0
C617 C 0.15476 0.21694 0.84517 0.0
C618 C 0.03066 0.90709 0.09872 0.0
C619 C 0.01662 0.90517 0.04658 0.0
H620 H 0.03484 0.90805 0.20162 0.0
C621 C 0.99569 0.90023 0.06001 0.0
H622 H 0.04697 0.91054 0.09023 0.0
C623 C 0.9887 0.8987 0.12446 0.0
C624 C 0.00255 0.90206 0.17645 0.0
H625 H 0.98451 0.8985 0.02091 0.0
H626 H 0.97227 0.89605 0.13342 0.0
C627 C 0.02372 0.90553 0.16276 0.0
C628 C 0.34472 0.7723 0.40951 0.0
C629 C 0.34755 0.75102 0.42298 0.0
H630 H 0.34015 0.79573 0.33728 0.0
C631 C 0.35029 0.7371 0.37081 0.0
H632 H 0.3427 0.78347 0.44852 0.0
C633 C 0.34871 0.74416 0.30645 0.0
C634 C 0.34434 0.76524 0.2933 0.0
H635 H 0.35243 0.72059 0.37962 0.0
H636 H 0.34989 0.73295 0.26725 0.0
C637 C 0.34313 0.77931 0.34556 0.0
C638 C 0.47747 0.09504 0.66737 0.0
C639 C 0.49879 0.09729 0.68131 0.0
H640 H 0.45413 0.09076 0.59463 0.0
C641 C 0.51292 0.09941 0.62943 0.0
H642 H 0.46614 0.09348 0.70615 0.0
C643 C 0.50601 0.09772 0.56497 0.0
C644 C 0.48486 0.09386 0.55141 0.0
H645 H 0.52947 0.10109 0.63858 0.0
H646 H 0.51738 0.0984 0.52608 0.0
C647 C 0.47059 0.09333 0.60327 0.0
C648 C 0.15371 0.77788 0.67733 0.0
C649 C 0.15294 0.76379 0.72963 0.0
H650 H 0.15398 0.782 0.57434 0.0
C651 C 0.14914 0.7426 0.71658 0.0
H652 H 0.15624 0.79437 0.68553 0.0
C653 C 0.14772 0.73548 0.65225 0.0
C654 C 0.15007 0.74945 0.60002 0.0
H655 H 0.14832 0.73137 0.75582 0.0
H656 H 0.14606 0.71892 0.6435 0.0
C657 C 0.15228 0.7708 0.6134 0.0
C658 C 0.46806 0.90604 0.92365 0.0
C659 C 0.48213 0.90449 0.97583 0.0
H660 H 0.46387 0.90667 0.82073 0.0
C661 C 0.50315 0.89983 0.96253 0.0
H662 H 0.45169 0.90926 0.93205 0.0
C663 C 0.51016 0.89824 0.89812 0.0
C664 C 0.49626 0.90125 0.84604 0.0
H665 H 0.51435 0.89838 1.00167 0.0
H666 H 0.52663 0.89584 0.88922 0.0
C667 C 0.47503 0.90442 0.85964 0.0
C668 C 0.34997 0.26053 0.15207 0.0
C669 C 0.34751 0.24658 0.09985 0.0
H670 H 0.34944 0.26464 0.25564 0.0
C671 C 0.3451 0.22525 0.11323 0.0
H672 H 0.35177 0.27708 0.14332 0.0
C673 C 0.34363 0.21818 0.17716 0.0
C674 C 0.34453 0.23226 0.22947 0.0
H675 H 0.34331 0.21406 0.07417 0.0
H676 H 0.34097 0.20172 0.18537 0.0
C677 C 0.3485 0.25342 0.21641 0.0
C678 C 0.02593 0.09458 0.41999 0.0
C679 C 0.01164 0.09466 0.47181 0.0
H680 H 0.03042 0.09511 0.31714 0.0
C681 C 0.99042 0.09815 0.45829 0.0
H682 H 0.04244 0.0923 0.42862 0.0
C683 C 0.9835 0.0999 0.39385 0.0
C684 C 0.99769 0.09819 0.34196 0.0
H685 H 0.97903 0.09848 0.49715 0.0
H686 H 0.96692 0.10127 0.38469 0.0
C687 C 0.01905 0.09633 0.35591 0.0
C688 C 0.84266 0.77431 0.11138 0.0
C689 C 0.84601 0.75312 0.09775 0.0
H690 H 0.83775 0.79761 0.18383 0.0
C691 C 0.84923 0.73926 0.14981 0.0
H692 H 0.84025 0.78544 0.07248 0.0
C693 C 0.8477 0.74627 0.21423 0.0
C694 C 0.84288 0.76724 0.22758 0.0
H695 H 0.85178 0.72281 0.14089 0.0
H696 H 0.84932 0.73509 0.25336 0.0
C697 C 0.8411 0.78128 0.1754 0.0
C698 C 0.99857 0.09777 0.95714 0.0
C699 C 0.97813 0.09119 0.97122 0.0
H700 H 0.0215 0.10341 0.8833 0.0
C701 C 0.96429 0.08759 0.91946 0.0
H702 H 0.00957 0.10084 0.99592 0.0
C703 C 0.97105 0.08926 0.8552 0.0
C704 C 0.99184 0.09449 0.84102 0.0
H705 H 0.94835 0.08282 0.92845 0.0
H706 H 0.96017 0.08548 0.81668 0.0
C707 C 0.00537 0.09938 0.89259 0.0
C708 C 0.6563 0.22376 0.60314 0.0
C709 C 0.65175 0.24472 0.58914 0.0
H710 H 0.66238 0.20089 0.67614 0.0
C711 C 0.64759 0.25843 0.64088 0.0
H712 H 0.65948 0.21275 0.56447 0.0
C713 C 0.64934 0.25161 0.70538 0.0
C714 C 0.65534 0.23098 0.71918 0.0
H715 H 0.6441 0.27469 0.63172 0.0
H716 H 0.64691 0.26274 0.74425 0.0
C717 C 0.6581 0.21699 0.66732 0.0
C718 C 0.5215 0.90168 0.35958 0.0
C719 C 0.50014 0.89951 0.34613 0.0
H720 H 0.54503 0.90578 0.43179 0.0
C721 C 0.48613 0.89731 0.3983 0.0
H722 H 0.53273 0.90327 0.32056 0.0
C723 C 0.49321 0.89888 0.46264 0.0
C724 C 0.5144 0.90268 0.47573 0.0
H725 H 0.46956 0.89569 0.38949 0.0
H726 H 0.48194 0.89819 0.50181 0.0
C727 C 0.52854 0.90325 0.42352 0.0
C728 C 0.83873 0.21746 0.35675 0.0
C729 C 0.84132 0.23148 0.30491 0.0
H730 H 0.8374 0.2132 0.4596 0.0
C731 C 0.84709 0.25217 0.31872 0.0
H732 H 0.83463 0.20132 0.34792 0.0
C733 C 0.84877 0.25901 0.38322 0.0
C734 C 0.84476 0.24525 0.43494 0.0
H735 H 0.84938 0.26333 0.27984 0.0
H736 H 0.85205 0.27531 0.39239 0.0
C737 C 0.84046 0.22425 0.42094 0.0
C738 C 0.52559 0.08925 0.16792 0.0
C739 C 0.50473 0.09425 0.18198 0.0
H740 H 0.54838 0.08293 0.09483 0.0
C741 C 0.49113 0.09884 0.1303 0.0
H742 H 0.53652 0.08572 0.20654 0.0
C743 C 0.49795 0.09715 0.06578 0.0
C744 C 0.51848 0.0908 0.05187 0.0
H745 H 0.47494 0.10267 0.1395 0.0
H746 H 0.48691 0.09997 0.02693 0.0
C747 C 0.53237 0.08752 0.10371 0.0
C748 C 0.65144 0.77047 0.91589 0.0
C749 C 0.64951 0.74912 0.9298 0.0
H750 H 0.65547 0.79386 0.8432 0.0
C751 C 0.64768 0.73496 0.87789 0.0
H752 H 0.65276 0.78181 0.95468 0.0
C753 C 0.64937 0.74189 0.81345 0.0
C754 C 0.65293 0.76309 0.79994 0.0
H755 H 0.64625 0.71839 0.88703 0.0
H756 H 0.64895 0.73052 0.77456 0.0
C757 C 0.65314 0.77736 0.85181 0.0
C758 C 0.00578 0.89939 0.55956 0.0
C759 C 0.98451 0.90279 0.54654 0.0
H760 H 0.02948 0.8965 0.63267 0.0
C761 C 0.97035 0.90285 0.59871 0.0
H762 H 0.01707 0.8991 0.5204 0.0
C763 C 0.9774 0.90122 0.66262 0.0
C764 C -0.0012 0.8995 0.67606 0.0
H765 H 0.95381 0.90504 0.59048 0.0
H766 H 0.96613 0.90244 0.70166 0.0
C767 C 0.01288 0.89777 0.62387 0.0
C768 C 0.65802 0.72253 0.41653 0.0
C769 C 0.65293 0.74336 0.43064 0.0
H770 H 0.66437 0.69978 0.34337 0.0
C771 C 0.6482 0.75693 0.37901 0.0
H772 H 0.66166 0.71163 0.4551 0.0
C773 C 0.64983 0.75011 0.31447 0.0
C774 C 0.65628 0.72962 0.30049 0.0
H775 H 0.64429 0.77309 0.38825 0.0
H776 H 0.6469 0.76113 0.27565 0.0
C777 C 0.65971 0.71576 0.3523 0.0
C778 C 0.48555 0.39704 0.62378 0.0
C779 C 0.49956 0.39922 0.67596 0.0
H780 H 0.48137 0.39788 0.52027 0.0
C781 C 0.52093 0.40132 0.66251 0.0
H782 H 0.46897 0.39547 0.63259 0.0
C783 C 0.52798 0.40284 0.59857 0.0
C784 C 0.51384 0.40229 0.54636 0.0
H785 H 0.53216 0.40289 0.70155 0.0
H786 H 0.54448 0.40531 0.59031 0.0
C787 C 0.49264 0.39855 0.55944 0.0
C788 C 0.84649 0.24408 0.81796 0.0
C789 C 0.84201 0.2651 0.80425 0.0
H790 H 0.8505 0.22077 0.8917 0.0
C791 C 0.84092 0.27935 0.85605 0.0
H792 H 0.84761 0.23274 0.77912 0.0
C793 C 0.84275 0.27256 0.9202 0.0
C794 C 0.84568 0.25133 0.93427 0.0
H795 H 0.83786 0.29572 0.84729 0.0
H796 H 0.84081 0.28385 0.95889 0.0
C797 C 0.84829 0.23725 0.88247 0.0
C798 C 0.00962 0.59937 0.12298 0.0
C799 C 0.99572 0.59662 0.17519 0.0
H800 H 0.01373 0.59905 0.01941 0.0
C801 C 0.97443 0.59382 0.1618 0.0
H802 H 0.02614 0.60149 0.13173 0.0
C803 C 0.96739 0.59228 0.09786 0.0
C804 C 0.98144 0.59352 0.04555 0.0
H805 H 0.96328 0.59178 0.20084 0.0
H806 H 0.95097 0.58933 0.08963 0.0
C807 C 0.00253 0.59785 0.05864 0.0
C808 C 0.64974 0.24357 0.2061 0.0
C809 C 0.65398 0.26464 0.2198 0.0
H810 H 0.64601 0.22021 0.13239 0.0
C811 C 0.65493 0.27889 0.16798 0.0
H812 H 0.64874 0.23222 0.24495 0.0
C813 C 0.65319 0.27207 0.10383 0.0
C814 C 0.65051 0.25081 0.08978 0.0
H815 H 0.65781 0.29529 0.17672 0.0
H816 H 0.65503 0.28337 0.06512 0.0
C817 C 0.64804 0.23671 0.1416 0.0
C818 C 0.96793 0.40384 0.42717 0.0
C819 C 0.98201 0.40282 0.47946 0.0
H820 H 0.9638 0.4042 0.32419 0.0
C821 C 0.00315 0.39871 0.46637 0.0
H822 H 0.95148 0.40662 0.43541 0.0
C823 C 0.01025 0.3972 0.40202 0.0
C824 C 0.9963 0.39976 0.34982 0.0
H825 H 0.01438 0.39768 0.50558 0.0
H826 H 0.02679 0.39527 0.39326 0.0
C827 C 0.97498 0.40232 0.36323 0.0
C828 C 0.84507 0.72098 0.67535 0.0
C829 C 0.84523 0.73512 0.72756 0.0
H830 H 0.84535 0.71678 0.57239 0.0
C831 C 0.84865 0.75638 0.71455 0.0
H832 H 0.84286 0.70445 0.68357 0.0
C833 C 0.85021 0.76348 0.65023 0.0
C834 C 0.84838 0.74943 0.59802 0.0
H835 H 0.84901 0.76765 0.75372 0.0
H836 H 0.8515 0.78008 0.64144 0.0
C837 C 0.84663 0.72804 0.61144 0.0
C838 C 0.49756 0.59687 0.95658 0.0
C839 C 0.51808 0.59048 0.97048 0.0
H840 H 0.47457 0.60245 0.88287 0.0
C841 C 0.53197 0.58719 0.91863 0.0
H842 H 0.48652 0.59969 0.99543 0.0
C843 C 0.5252 0.58897 0.85442 0.0
C844 C 0.50435 0.59401 0.84037 0.0
H845 H 0.54797 0.58258 0.9275 0.0
H846 H 0.53613 0.58544 0.8158 0.0
C847 C 0.49075 0.59859 0.89206 0.0
C848 C 0.35007 0.23635 0.652 0.0
C849 C 0.34734 0.25026 0.5998 0.0
H850 H 0.3497 0.23223 0.75557 0.0
C851 C 0.3446 0.27155 0.6132 0.0
H852 H 0.35214 0.21983 0.64323 0.0
C853 C 0.34306 0.27859 0.67715 0.0
C854 C 0.34424 0.26453 0.72944 0.0
H855 H 0.34259 0.28271 0.57417 0.0
H856 H 0.34014 0.29502 0.68539 0.0
C857 C 0.34854 0.24343 0.71635 0.0
C858 C 0.47024 0.59318 0.41905 0.0
C859 C 0.48451 0.59369 0.47091 0.0
H860 H 0.46579 0.59331 0.31618 0.0
C861 C 0.50567 0.59752 0.45734 0.0
H862 H 0.45377 0.59064 0.42771 0.0
C863 C 0.51258 0.59918 0.39288 0.0
C864 C 0.49844 0.59706 0.341 0.0
H865 H 0.51703 0.59818 0.49623 0.0
H866 H 0.52913 0.60083 0.38373 0.0
C867 C 0.47712 0.59486 0.35495 0.0
C868 C 0.15496 0.71755 0.17737 0.0
C869 C 0.15374 0.73161 0.22966 0.0
H870 H 0.15538 0.71342 0.0744 0.0
C871 C 0.14936 0.75269 0.21657 0.0
H872 H 0.15795 0.70114 0.18561 0.0
C873 C 0.14777 0.75976 0.15222 0.0
C874 C 0.15051 0.74585 0.10002 0.0
H875 H 0.14817 0.76389 0.25579 0.0
H876 H 0.14562 0.77627 0.14345 0.0
C877 C 0.15335 0.72458 0.11343 0.0
C878 C 0.02139 0.4027 0.86322 0.0
C879 C 0.0001 0.39997 0.84978 0.0
H880 H 0.04485 0.40715 0.93543 0.0
C881 C 0.98617 0.39728 0.90196 0.0
H882 H 0.03256 0.40468 0.8242 0.0
C883 C 0.99324 0.39882 0.96632 0.0
C884 C 0.01435 0.40309 0.97944 0.0
H885 H 0.96965 0.39522 0.89317 0.0
H886 H 0.98203 0.39768 1.00552 0.0
C887 C 0.02842 0.40424 0.92717 0.0
C888 C 0.35025 0.76126 0.8708 0.0
C889 C 0.34782 0.74729 0.92298 0.0
H890 H 0.34973 0.76541 0.76725 0.0
C891 C 0.34551 0.72596 0.90953 0.0
H892 H 0.35199 0.77782 0.8796 0.0
C893 C 0.34408 0.7189 0.84558 0.0
C894 C 0.34494 0.733 0.79332 0.0
H895 H 0.34374 0.71475 0.94855 0.0
H896 H 0.34148 0.70243 0.83731 0.0
C897 C 0.34882 0.75417 0.80644 0.0
C898 C 0.98555 0.59946 0.6229 0.0
C899 C -0.00051 0.59696 0.67513 0.0
H900 H 0.98144 0.59891 0.51933 0.0
C901 C 0.02082 0.59446 0.66177 0.0
H902 H 0.969 0.60134 0.63163 0.0
C903 C 0.02789 0.59293 0.59785 0.0
C904 C 0.01381 0.59388 0.54553 0.0
H905 H 0.032 0.59263 0.70084 0.0
H906 H 0.04435 0.59019 0.58965 0.0
C907 C 0.99265 0.59794 0.55857 0.0
C908 C 0.14898 0.24208 0.30595 0.0
C909 C 0.15288 0.26325 0.29289 0.0
H910 H 0.14575 0.21842 0.37905 0.0
C911 C 0.15369 0.27734 0.34518 0.0
H912 H 0.1481 0.23085 0.26673 0.0
C913 C 0.15221 0.27028 0.40911 0.0
C914 C 0.14989 0.24894 0.4225 0.0
H915 H 0.15631 0.29381 0.33695 0.0
H916 H 0.15395 0.28148 0.44815 0.0
C917 C 0.1475 0.23498 0.37029 0.0
C918 C 0.47447 0.40431 0.16242 0.0
C919 C 0.49568 0.40107 0.17601 0.0
H920 H 0.45114 0.40922 0.09004 0.0
C921 C 0.50958 0.39803 0.12392 0.0
H922 H 0.46331 0.40657 0.20135 0.0
C923 C 0.50257 0.39965 0.05951 0.0
C924 C 0.48156 0.40437 0.04623 0.0
H925 H 0.52604 0.39558 0.1328 0.0
H926 H 0.51377 0.39818 0.02036 0.0
C927 C 0.4675 0.40595 0.09842 0.0
C928 C 0.12397 0.3599 0.07573 0.0
C929 C 0.13247 0.35123 0.13233 0.0
H930 H 0.10257 0.3822 0.03587 0.0
C931 C 0.12563 0.35831 0.19336 0.0
H932 H 0.12902 0.35459 0.02827 0.0
C933 C 0.11003 0.37347 0.19776 0.0
C934 C 0.1017 0.38232 0.14116 0.0
H935 H 0.13191 0.35165 0.23763 0.0
H936 H 0.10457 0.37837 0.2452 0.0
C937 C 0.10897 0.37566 0.08015 0.0
C938 C 0.87095 0.86098 0.33261 0.0
C939 C 0.86433 0.85336 0.39322 0.0
H940 H 0.89218 0.8811 0.28173 0.0
C941 C 0.87341 0.86113 0.45021 0.0
H942 H 0.86423 0.855 0.28802 0.0
C943 C 0.88877 0.87655 0.44661 0.0
C944 C 0.89581 0.88373 0.38594 0.0
H945 H 0.86854 0.85539 0.49735 0.0
H946 H 0.8956 0.8824 0.49118 0.0
C947 C 0.88691 0.87577 0.32893 0.0
C948 C 0.37336 0.63844 0.68966 0.0
C949 C 0.36628 0.64576 0.62918 0.0
H950 H 0.39472 0.61827 0.73992 0.0
C951 C 0.37471 0.63746 0.57192 0.0
H952 H 0.36714 0.64481 0.73442 0.0
C953 C 0.38985 0.6218 0.57515 0.0
C954 C 0.39734 0.61488 0.63562 0.0
H955 H 0.36947 0.64295 0.52487 0.0
H956 H 0.39616 0.61552 0.53038 0.0
C957 C 0.38911 0.62339 0.69287 0.0
C958 C 0.63664 0.12716 0.8876 0.0
C959 C 0.63085 0.14823 0.8919 0.0
H960 H 0.62629 0.09549 0.87994 0.0
C961 C 0.60962 0.15357 0.88951 0.0
H962 H 0.65293 0.12266 0.88898 0.0
C963 C 0.59445 0.13811 0.88205 0.0
C964 C 0.60024 0.11701 0.87867 0.0
H965 H 0.60478 0.16974 0.89189 0.0
H966 H 0.57817 0.14261 0.88038 0.0
C967 C 0.62145 0.11166 0.88208 0.0
C968 C 0.11047 0.62237 0.32753 0.0
C969 C 0.10184 0.61395 0.3843 0.0
H970 H 0.13282 0.64361 0.28722 0.0
C971 C 0.10903 0.6208 0.44519 0.0
H972 H 0.10508 0.61731 0.28017 0.0
C973 C 0.12427 0.63632 0.44927 0.0
C974 C 0.13308 0.64456 0.3925 0.0
H975 H 0.1024 0.61459 0.48959 0.0
H976 H 0.12925 0.64179 0.49661 0.0
C977 C 0.12631 0.63728 0.33163 0.0
C978 C 0.62397 0.85909 0.57772 0.0
C979 C 0.63219 0.85075 0.63521 0.0
H980 H 0.60286 0.88123 0.53554 0.0
C981 C 0.62511 0.85825 0.69548 0.0
H982 H 0.62922 0.85347 0.53082 0.0
C983 C 0.60956 0.87351 0.69825 0.0
C984 C 0.60153 0.88204 0.64076 0.0
H985 H 0.63118 0.85187 0.74043 0.0
H986 H 0.60392 0.87875 0.74514 0.0
C987 C 0.60903 0.87494 0.5805 0.0
C988 C 0.38757 0.37669 0.94383 0.0
C989 C 0.39486 0.3834 0.88291 0.0
H990 H 0.36755 0.35554 0.99543 0.0
C991 C 0.38661 0.37457 0.8262 0.0
H992 H 0.39392 0.38322 0.98819 0.0
C993 C 0.37104 0.35938 0.83039 0.0
C994 C 0.36418 0.35225 0.89132 0.0
H995 H 0.39209 0.37951 0.77883 0.0
H996 H 0.36482 0.35273 0.78603 0.0
C997 C 0.37262 0.36089 0.94805 0.0
C998 C 0.86023 0.12752 0.13702 0.0
C999 C 0.86601 0.14858 0.13241 0.0
H1000 H 0.87062 0.09585 0.14482 0.0
C1001 C 0.88723 0.15392 0.13444 0.0
H1002 H 0.84395 0.12303 0.13592 0.0
C1003 C 0.90242 0.13844 0.14181 0.0
C1004 C 0.89665 0.11736 0.14547 0.0
H1005 H 0.89206 0.17008 0.13182 0.0
H1006 H 0.9187 0.14294 0.14318 0.0
C1007 C 0.87545 0.11201 0.14245 0.0
C1008 C 0.87231 0.63767 0.94553 0.0
C1009 C 0.86422 0.64643 0.88847 0.0
H1010 H 0.89322 0.61512 0.98656 0.0
C1011 C 0.87129 0.63923 0.82783 0.0
H1012 H 0.86708 0.64306 0.99271 0.0
C1013 C 0.88672 0.62387 0.82428 0.0
C1014 C 0.89464 0.61494 0.88132 0.0
H1015 H 0.86533 0.64595 0.78321 0.0
H1016 H 0.89237 0.61889 0.77714 0.0
C1017 C 0.88713 0.62172 0.94193 0.0
C1018 C 0.12481 0.13733 0.68795 0.0
C1019 C 0.1317 0.1448 0.62742 0.0
H1020 H 0.10331 0.11742 0.73847 0.0
C1021 C 0.12273 0.13701 0.57028 0.0
H1022 H 0.13144 0.14333 0.73265 0.0
C1023 C 0.10725 0.1217 0.57364 0.0
C1024 C 0.09998 0.11466 0.6342 0.0
H1025 H 0.12779 0.14263 0.5232 0.0
H1026 H 0.10053 0.11581 0.52896 0.0
C1027 C 0.10875 0.12265 0.69136 0.0
C1028 C 0.60965 0.37378 0.32402 0.0
C1029 C 0.60133 0.38199 0.38156 0.0
H1030 H 0.63169 0.35256 0.28177 0.0
C1031 C 0.60871 0.37475 0.44179 0.0
H1032 H 0.60412 0.37914 0.27715 0.0
C1033 C 0.62383 0.35907 0.44448 0.0
C1034 C 0.63236 0.35106 0.38696 0.0
H1035 H 0.60232 0.3808 0.48677 0.0
H1036 H 0.62899 0.35333 0.49134 0.0
C1037 C 0.62539 0.3587 0.32674 0.0
C1038 C 0.37129 0.85985 0.19173 0.0
C1039 C 0.36445 0.85267 0.13083 0.0
H1040 H 0.39238 0.87995 0.24321 0.0
C1041 C 0.37299 0.86119 0.07407 0.0
H1042 H 0.36499 0.8533 0.23612 0.0
C1043 C 0.38802 0.87692 0.07821 0.0
C1044 C 0.39528 0.88367 0.13911 0.0
H1045 H 0.36794 0.8558 0.02671 0.0
H1046 H 0.39444 0.88335 0.03383 0.0
C1047 C 0.38693 0.87497 0.19586 0.0
C1048 C 0.88733 0.3749 0.58335 0.0
C1049 C 0.89466 0.382 0.64379 0.0
H1050 H 0.86703 0.35365 0.53323 0.0
C1051 C 0.88626 0.37372 0.70109 0.0
H1052 H 0.89378 0.38101 0.53855 0.0
C1053 C 0.87049 0.35872 0.69796 0.0
C1054 C 0.86355 0.35122 0.63753 0.0
H1055 H 0.89176 0.37898 0.74811 0.0
H1056 H 0.86412 0.35252 0.74275 0.0
C1057 C 0.87216 0.35928 0.58023 0.0
C1058 C 0.37466 0.13705 0.45089 0.0
C1059 C 0.3661 0.14523 0.39366 0.0
H1060 H 0.39633 0.11532 0.49237 0.0
C1061 C 0.37318 0.13792 0.33316 0.0
H1062 H 0.36943 0.14254 0.49795 0.0
C1063 C 0.38904 0.12299 0.32989 0.0
C1064 C 0.3974 0.1146 0.38712 0.0
H1065 H 0.36686 0.14421 0.28841 0.0
H1066 H 0.39464 0.11788 0.28283 0.0
C1067 C 0.38992 0.12151 0.44762 0.0
C1068 C 0.63656 0.62626 0.13229 0.0
C1069 C 0.63089 0.64736 0.1282 0.0
H1070 H 0.62603 0.59465 0.14029 0.0
C1071 C 0.6097 0.65284 0.13137 0.0
H1072 H 0.65281 0.62165 0.13031 0.0
C1073 C 0.59446 0.63747 0.13933 0.0
C1074 C 0.60013 0.61635 0.14247 0.0
H1075 H 0.60496 0.66904 0.12916 0.0
H1076 H 0.57822 0.64208 0.14157 0.0
C1077 C 0.62129 0.61085 0.13833 0.0
C1078 C 0.11054 0.87452 0.82511 0.0
C1079 C 0.10264 0.88369 0.8818 0.0
H1080 H 0.13192 0.85226 0.78491 0.0
C1081 C 0.11012 0.87713 0.94267 0.0
H1082 H 0.10491 0.87934 0.77778 0.0
C1083 C 0.12491 0.86117 0.94689 0.0
C1084 C 0.133 0.85219 0.89017 0.0
H1085 H 0.10403 0.88392 0.98703 0.0
H1086 H 0.13013 0.85596 0.99427 0.0
C1087 C 0.12596 0.85916 0.82925 0.0
loop_
_geom_bond_atom_site_label_1
_geom_bond_atom_site_label_2
_geom_bond_distance
_geom_bond_site_symmetry_2
_ccdc_geom_bond_type
O0 Cd1 2.223 . S
O0 C8 1.315 . S
Cd1 O0 2.223 . S
Cd1 O4 2.297 . S
Cd1 O5 2.439 . S
Cd1 O11 2.240 . S
Cd2 O3 2.246 . S
Cd2 O10 2.225 . S
Cd2 O12 2.290 1_554 S
Cd2 O13 2.433 1_554 S
O3 Cd2 2.246 . S
O3 C8 1.279 . S
O4 Cd1 2.297 . S
O4 C6 1.247 . S
O5 Cd1 2.439 . S
O5 C6 1.208 . S
C6 O4 1.247 . S
C6 O5 1.208 . S
C7 O12 1.247 . S
C7 O13 1.208 . S
C8 O0 1.315 . S
C8 O3 1.279 . S
C9 O10 1.315 . S
C9 O11 1.279 . S
O10 Cd2 2.225 . S
O10 C9 1.315 . S
O11 Cd1 2.240 . S
O11 C9 1.279 . S
O12 Cd2 2.290 1_556 S
O12 C7 1.247 . S
O13 Cd2 2.433 1_556 S
O13 C7 1.208 . S
O14 Cd15 2.223 . S
O14 C22 1.315 . S
Cd15 O14 2.223 . S
Cd15 O18 2.297 . S
Cd15 O19 2.439 . S
Cd15 O25 2.240 . S
Cd16 O17 2.240 . S
Cd16 O24 2.223 . S
Cd16 O26 2.297 1_655 S
Cd16 O27 2.439 . S
O17 Cd16 2.240 . S
O17 C22 1.279 . S
O18 Cd15 2.297 . S
O18 C20 1.247 . S
O19 Cd15 2.439 . S
O19 C20 1.208 . S
C20 O18 1.247 . S
C20 O19 1.208 . S
C21 O26 1.247 1_655 S
C21 O27 1.208 . S
C22 O14 1.315 . S
C22 O17 1.279 . S
C23 O24 1.315 . S
C23 O25 1.279 . S
O24 Cd16 2.223 . S
O24 C23 1.315 . S
O25 Cd15 2.240 . S
O25 C23 1.279 . S
O26 Cd16 2.297 1_455 S
O26 C21 1.247 1_455 S
O27 Cd16 2.439 . S
O27 C21 1.208 . S
O28 Cd29 2.223 . S
O28 C36 1.315 . S
Cd29 O28 2.223 . S
Cd29 O32 2.297 . S
Cd29 O33 2.439 . S
Cd29 O39 2.240 . S
Cd30 O31 2.240 . S
Cd30 O38 2.223 . S
Cd30 O40 2.297 . S
Cd30 O41 2.439 . S
O31 Cd30 2.240 . S
O31 C36 1.279 . S
O32 Cd29 2.297 . S
O32 C34 1.247 . S
O33 Cd29 2.439 . S
O33 C34 1.208 . S
C34 O32 1.247 . S
C34 O33 1.208 . S
C35 O40 1.247 . S
C35 O41 1.208 . S
C36 O28 1.315 . S
C36 O31 1.279 . S
C37 O38 1.315 . S
C37 O39 1.279 . S
O38 Cd30 2.223 . S
O38 C37 1.315 . S
O39 Cd29 2.240 . S
O39 C37 1.279 . S
O40 Cd30 2.297 . S
O40 C35 1.247 . S
O41 Cd30 2.439 . S
O41 C35 1.208 . S
O42 Cd43 2.223 . S
O42 C50 1.315 . S
Cd43 O42 2.223 . S
Cd43 O46 2.297 . S
Cd43 O47 2.439 . S
Cd43 O53 2.240 . S
Cd44 O45 2.240 . S
Cd44 O52 2.223 . S
Cd44 O54 2.297 . S
Cd44 O55 2.439 . S
O45 Cd44 2.240 . S
O45 C50 1.279 . S
O46 Cd43 2.297 . S
O46 C48 1.247 . S
O47 Cd43 2.439 . S
O47 C48 1.208 . S
C48 O46 1.247 . S
C48 O47 1.208 . S
C49 O54 1.247 . S
C49 O55 1.208 . S
C50 O42 1.315 . S
C50 O45 1.279 . S
C51 O52 1.315 . S
C51 O53 1.279 . S
O52 Cd44 2.223 . S
O52 C51 1.315 . S
O53 Cd43 2.240 . S
O53 C51 1.279 . S
O54 Cd44 2.297 . S
O54 C49 1.247 . S
O55 Cd44 2.439 . S
O55 C49 1.208 . S
O56 Cd57 2.223 . S
O56 C64 1.315 . S
Cd57 O56 2.223 . S
Cd57 O60 2.297 . S
Cd57 O61 2.439 . S
Cd57 O67 2.240 . S
Cd58 O59 2.240 . S
Cd58 O66 2.223 . S
Cd58 O68 2.297 . S
Cd58 O69 2.439 . S
O59 Cd58 2.240 . S
O59 C64 1.279 . S
O60 Cd57 2.297 . S
O60 C62 1.247 . S
O61 Cd57 2.439 . S
O61 C62 1.208 . S
C62 O60 1.247 . S
C62 O61 1.208 . S
C63 O68 1.247 . S
C63 O69 1.208 . S
C64 O56 1.315 . S
C64 O59 1.279 . S
C65 O66 1.315 . S
C65 O67 1.279 . S
O66 Cd58 2.223 . S
O66 C65 1.315 . S
O67 Cd57 2.240 . S
O67 C65 1.279 . S
O68 Cd58 2.297 . S
O68 C63 1.247 . S
O69 Cd58 2.439 . S
O69 C63 1.208 . S
O70 Cd71 2.223 . S
O70 C78 1.315 . S
Cd71 O70 2.223 . S
Cd71 O74 2.297 . S
Cd71 O75 2.439 . S
Cd71 O81 2.240 . S
Cd72 O73 2.240 . S
Cd72 O80 2.223 . S
Cd72 O82 2.297 . S
Cd72 O83 2.439 . S
O73 Cd72 2.240 . S
O73 C78 1.279 . S
O74 Cd71 2.297 . S
O74 C76 1.247 . S
O75 Cd71 2.439 . S
O75 C76 1.208 . S
C76 O74 1.247 . S
C76 O75 1.208 . S
C77 O82 1.247 . S
C77 O83 1.208 . S
C78 O70 1.315 . S
C78 O73 1.279 . S
C79 O80 1.315 . S
C79 O81 1.279 . S
O80 Cd72 2.223 . S
O80 C79 1.315 . S
O81 Cd71 2.240 . S
O81 C79 1.279 . S
O82 Cd72 2.297 . S
O82 C77 1.247 . S
O83 Cd72 2.439 . S
O83 C77 1.208 . S
O84 Cd85 2.223 . S
O84 C92 1.315 . S
Cd85 O84 2.223 . S
Cd85 O88 2.297 . S
Cd85 O89 2.439 . S
Cd85 O95 2.240 . S
Cd86 O87 2.247 . S
Cd86 O94 2.225 . S
Cd86 O96 2.290 1_556 S
Cd86 O97 2.433 1_556 S
O87 Cd86 2.247 . S
O87 C92 1.279 . S
O88 Cd85 2.297 . S
O88 C90 1.247 . S
O89 Cd85 2.439 . S
O89 C90 1.208 . S
C90 O88 1.247 . S
C90 O89 1.208 . S
C91 O96 1.247 . S
C91 O97 1.208 . S
C92 O84 1.315 . S
C92 O87 1.279 . S
C93 O94 1.315 . S
C93 O95 1.279 . S
O94 Cd86 2.225 . S
O94 C93 1.315 . S
O95 Cd85 2.240 . S
O95 C93 1.279 . S
O96 Cd86 2.290 1_554 S
O96 C91 1.247 . S
O97 Cd86 2.433 1_554 S
O97 C91 1.208 . S
O98 Cd99 2.223 . S
O98 C106 1.315 . S
Cd99 O98 2.223 . S
Cd99 O102 2.297 . S
Cd99 O103 2.439 . S
Cd99 O109 2.240 . S
Cd100 O101 2.240 . S
Cd100 O108 2.223 . S
Cd100 O110 2.297 1_655 S
Cd100 O111 2.439 . S
O101 Cd100 2.240 . S
O101 C106 1.279 . S
O102 Cd99 2.297 . S
O102 C104 1.247 . S
O103 Cd99 2.439 . S
O103 C104 1.208 . S
C104 O102 1.247 . S
C104 O103 1.208 . S
C105 O110 1.247 1_655 S
C105 O111 1.208 . S
C106 O98 1.315 . S
C106 O101 1.279 . S
C107 O108 1.315 . S
C107 O109 1.279 . S
O108 Cd100 2.223 . S
O108 C107 1.315 . S
O109 Cd99 2.240 . S
O109 C107 1.279 . S
O110 Cd100 2.297 1_455 S
O110 C105 1.247 1_455 S
O111 Cd100 2.439 . S
O111 C105 1.208 . S
O112 Cd113 2.223 . S
O112 C120 1.315 . S
Cd113 O112 2.223 . S
Cd113 O116 2.297 . S
Cd113 O117 2.439 . S
Cd113 O123 2.240 . S
Cd114 O115 2.246 . S
Cd114 O122 2.225 . S
Cd114 O124 2.290 1_556 S
Cd114 O125 2.433 1_556 S
O115 Cd114 2.246 . S
O115 C120 1.279 . S
O116 Cd113 2.297 . S
O116 C118 1.247 . S
O117 Cd113 2.439 . S
O117 C118 1.208 . S
C118 O116 1.247 . S
C118 O117 1.208 . S
C119 O124 1.247 . S
C119 O125 1.208 . S
C120 O112 1.315 . S
C120 O115 1.279 . S
C121 O122 1.315 . S
C121 O123 1.279 . S
O122 Cd114 2.225 . S
O122 C121 1.315 . S
O123 Cd113 2.240 . S
O123 C121 1.279 . S
O124 Cd114 2.290 1_554 S
O124 C119 1.247 . S
O125 Cd114 2.433 1_554 S
O125 C119 1.208 . S
O126 Cd127 2.223 . S
O126 C134 1.315 . S
Cd127 O126 2.223 . S
Cd127 O130 2.297 . S
Cd127 O131 2.439 . S
Cd127 O137 2.240 . S
Cd128 O129 2.240 . S
Cd128 O136 2.223 . S
Cd128 O138 2.297 1_455 S
Cd128 O139 2.439 . S
O129 Cd128 2.240 . S
O129 C134 1.279 . S
O130 Cd127 2.297 . S
O130 C132 1.247 . S
O131 Cd127 2.439 . S
O131 C132 1.208 . S
C132 O130 1.247 . S
C132 O131 1.208 . S
C133 O138 1.247 1_455 S
C133 O139 1.208 . S
C134 O126 1.315 . S
C134 O129 1.279 . S
C135 O136 1.315 . S
C135 O137 1.279 . S
O136 Cd128 2.223 . S
O136 C135 1.315 . S
O137 Cd127 2.240 . S
O137 C135 1.279 . S
O138 Cd128 2.297 1_655 S
O138 C133 1.247 1_655 S
O139 Cd128 2.439 . S
O139 C133 1.208 . S
O140 Cd141 2.223 . S
O140 C148 1.315 . S
Cd141 O140 2.223 . S
Cd141 O144 2.297 . S
Cd141 O145 2.439 . S
Cd141 O151 2.240 . S
Cd142 O143 2.240 . S
Cd142 O150 2.223 . S
Cd142 O152 2.297 . S
Cd142 O153 2.439 . S
O143 Cd142 2.240 . S
O143 C148 1.279 . S
O144 Cd141 2.297 . S
O144 C146 1.247 . S
O145 Cd141 2.439 . S
O145 C146 1.208 . S
C146 O144 1.247 . S
C146 O145 1.208 . S
C147 O152 1.247 . S
C147 O153 1.208 . S
C148 O140 1.315 . S
C148 O143 1.279 . S
C149 O150 1.315 . S
C149 O151 1.279 . S
O150 Cd142 2.223 . S
O150 C149 1.315 . S
O151 Cd141 2.240 . S
O151 C149 1.279 . S
O152 Cd142 2.297 . S
O152 C147 1.247 . S
O153 Cd142 2.439 . S
O153 C147 1.208 . S
O154 Cd155 2.223 . S
O154 C162 1.315 . S
Cd155 O154 2.223 . S
Cd155 O158 2.297 . S
Cd155 O159 2.439 . S
Cd155 O165 2.240 . S
Cd156 O157 2.240 . S
Cd156 O164 2.223 . S
Cd156 O166 2.297 . S
Cd156 O167 2.439 . S
O157 Cd156 2.240 . S
O157 C162 1.279 . S
O158 Cd155 2.297 . S
O158 C160 1.247 . S
O159 Cd155 2.439 . S
O159 C160 1.208 . S
C160 O158 1.247 . S
C160 O159 1.208 . S
C161 O166 1.247 . S
C161 O167 1.208 . S
C162 O154 1.315 . S
C162 O157 1.279 . S
C163 O164 1.315 . S
C163 O165 1.279 . S
O164 Cd156 2.223 . S
O164 C163 1.315 . S
O165 Cd155 2.240 . S
O165 C163 1.279 . S
O166 Cd156 2.297 . S
O166 C161 1.247 . S
O167 Cd156 2.439 . S
O167 C161 1.208 . S
O168 Cd169 2.223 . S
O168 C176 1.315 . S
Cd169 O168 2.223 . S
Cd169 O172 2.297 . S
Cd169 O173 2.439 . S
Cd169 O179 2.240 . S
Cd170 O171 2.240 . S
Cd170 O178 2.223 . S
Cd170 O180 2.297 . S
Cd170 O181 2.439 . S
O171 Cd170 2.240 . S
O171 C176 1.279 . S
O172 Cd169 2.297 . S
O172 C174 1.247 . S
O173 Cd169 2.439 . S
O173 C174 1.208 . S
C174 O172 1.247 . S
C174 O173 1.208 . S
C175 O180 1.247 . S
C175 O181 1.208 . S
C176 O168 1.315 . S
C176 O171 1.279 . S
C177 O178 1.315 . S
C177 O179 1.279 . S
O178 Cd170 2.223 . S
O178 C177 1.315 . S
O179 Cd169 2.240 . S
O179 C177 1.279 . S
O180 Cd170 2.297 . S
O180 C175 1.247 . S
O181 Cd170 2.439 . S
O181 C175 1.208 . S
O182 Cd183 2.223 . S
O182 C190 1.315 . S
Cd183 O182 2.223 . S
Cd183 O186 2.297 . S
Cd183 O187 2.439 . S
Cd183 O193 2.240 . S
Cd184 O185 2.240 . S
Cd184 O192 2.223 . S
Cd184 O194 2.297 . S
Cd184 O195 2.439 . S
O185 Cd184 2.240 . S
O185 C190 1.279 . S
O186 Cd183 2.297 . S
O186 C188 1.247 . S
O187 Cd183 2.439 . S
O187 C188 1.208 . S
C188 O186 1.247 . S
C188 O187 1.208 . S
C189 O194 1.247 . S
C189 O195 1.208 . S
C190 O182 1.315 . S
C190 O185 1.279 . S
C191 O192 1.315 . S
C191 O193 1.279 . S
O192 Cd184 2.223 . S
O192 C191 1.315 . S
O193 Cd183 2.240 . S
O193 C191 1.279 . S
O194 Cd184 2.297 . S
O194 C189 1.247 . S
O195 Cd184 2.439 . S
O195 C189 1.208 . S
O196 Cd197 2.223 . S
O196 C204 1.315 . S
Cd197 O196 2.223 . S
Cd197 O200 2.297 . S
Cd197 O201 2.439 . S
Cd197 O207 2.240 . S
Cd198 O199 2.247 . S
Cd198 O206 2.225 . S
Cd198 O208 2.290 1_554 S
Cd198 O209 2.433 1_554 S
O199 Cd198 2.247 . S
O199 C204 1.279 . S
O200 Cd197 2.297 . S
O200 C202 1.247 . S
O201 Cd197 2.439 . S
O201 C202 1.208 . S
C202 O200 1.247 . S
C202 O201 1.208 . S
C203 O208 1.247 . S
C203 O209 1.208 . S
C204 O196 1.315 . S
C204 O199 1.279 . S
C205 O206 1.315 . S
C205 O207 1.279 . S
O206 Cd198 2.225 . S
O206 C205 1.315 . S
O207 Cd197 2.240 . S
O207 C205 1.279 . S
O208 Cd198 2.290 1_556 S
O208 C203 1.247 . S
O209 Cd198 2.433 1_556 S
O209 C203 1.208 . S
O210 Cd211 2.223 . S
O210 C218 1.315 . S
Cd211 O210 2.223 . S
Cd211 O214 2.297 . S
Cd211 O215 2.439 . S
Cd211 O221 2.240 . S
Cd212 O213 2.240 . S
Cd212 O220 2.223 . S
Cd212 O222 2.297 1_455 S
Cd212 O223 2.439 . S
O213 Cd212 2.240 . S
O213 C218 1.279 . S
O214 Cd211 2.297 . S
O214 C216 1.247 . S
O215 Cd211 2.439 . S
O215 C216 1.208 . S
C216 O214 1.247 . S
C216 O215 1.208 . S
C217 O222 1.247 1_455 S
C217 O223 1.208 . S
C218 O210 1.315 . S
C218 O213 1.279 . S
C219 O220 1.315 . S
C219 O221 1.279 . S
O220 Cd212 2.223 . S
O220 C219 1.315 . S
O221 Cd211 2.240 . S
O221 C219 1.279 . S
O222 Cd212 2.297 1_655 S
O222 C217 1.247 1_655 S
O223 Cd212 2.439 . S
O223 C217 1.208 . S
O224 Cd225 2.223 . S
O224 C232 1.315 . S
Cd225 O224 2.223 . S
Cd225 O228 2.297 . S
Cd225 O229 2.439 . S
Cd225 O235 2.240 . S
Cd226 O227 2.240 . S
Cd226 O234 2.223 . S
Cd226 O236 2.297 . S
Cd226 O237 2.439 . S
O227 Cd226 2.240 . S
O227 C232 1.279 . S
O228 Cd225 2.297 . S
O228 C230 1.247 . S
O229 Cd225 2.439 . S
O229 C230 1.208 . S
C230 O228 1.247 . S
C230 O229 1.208 . S
C231 O236 1.247 . S
C231 O237 1.208 . S
C232 O224 1.315 . S
C232 O227 1.279 . S
C233 O234 1.315 . S
C233 O235 1.279 . S
O234 Cd226 2.223 . S
O234 C233 1.315 . S
O235 Cd225 2.240 . S
O235 C233 1.279 . S
O236 Cd226 2.297 . S
O236 C231 1.247 . S
O237 Cd226 2.439 . S
O237 C231 1.208 . S
O238 Cd239 2.223 . S
O238 C246 1.315 . S
Cd239 O238 2.223 . S
Cd239 O242 2.297 . S
Cd239 O243 2.439 . S
Cd239 O249 2.240 . S
Cd240 O241 2.240 . S
Cd240 O248 2.223 . S
Cd240 O250 2.297 . S
Cd240 O251 2.439 . S
O241 Cd240 2.240 . S
O241 C246 1.279 . S
O242 Cd239 2.297 . S
O242 C244 1.247 . S
O243 Cd239 2.439 . S
O243 C244 1.208 . S
C244 O242 1.247 . S
C244 O243 1.208 . S
C245 O250 1.247 . S
C245 O251 1.208 . S
C246 O238 1.315 . S
C246 O241 1.279 . S
C247 O248 1.315 . S
C247 O249 1.279 . S
O248 Cd240 2.223 . S
O248 C247 1.315 . S
O249 Cd239 2.240 . S
O249 C247 1.279 . S
O250 Cd240 2.297 . S
O250 C245 1.247 . S
O251 Cd240 2.439 . S
O251 C245 1.208 . S
O252 Cd253 2.223 . S
O252 C260 1.315 . S
Cd253 O252 2.223 . S
Cd253 O256 2.297 . S
Cd253 O257 2.439 . S
Cd253 O263 2.240 . S
Cd254 O255 2.246 . S
Cd254 O262 2.225 . S
Cd254 O264 2.290 1_554 S
Cd254 O265 2.433 1_554 S
O255 Cd254 2.246 . S
O255 C260 1.279 . S
O256 Cd253 2.297 . S
O256 C258 1.247 . S
O257 Cd253 2.439 . S
O257 C258 1.208 . S
C258 O256 1.247 . S
C258 O257 1.208 . S
C259 O264 1.247 . S
C259 O265 1.208 . S
C260 O252 1.315 . S
C260 O255 1.279 . S
C261 O262 1.315 . S
C261 O263 1.279 . S
O262 Cd254 2.225 . S
O262 C261 1.315 . S
O263 Cd253 2.240 . S
O263 C261 1.279 . S
O264 Cd254 2.290 1_556 S
O264 C259 1.247 . S
O265 Cd254 2.433 1_556 S
O265 C259 1.208 . S
O266 Cd267 2.223 . S
O266 C274 1.315 . S
Cd267 O266 2.223 . S
Cd267 O270 2.297 . S
Cd267 O271 2.439 . S
Cd267 O277 2.240 . S
Cd268 O269 2.240 . S
Cd268 O276 2.223 . S
Cd268 O278 2.297 1_455 S
Cd268 O279 2.439 . S
O269 Cd268 2.240 . S
O269 C274 1.279 . S
O270 Cd267 2.297 . S
O270 C272 1.247 . S
O271 Cd267 2.439 . S
O271 C272 1.208 . S
C272 O270 1.247 . S
C272 O271 1.208 . S
C273 O278 1.247 1_455 S
C273 O279 1.208 . S
C274 O266 1.315 . S
C274 O269 1.279 . S
C275 O276 1.315 . S
C275 O277 1.279 . S
O276 Cd268 2.223 . S
O276 C275 1.315 . S
O277 Cd267 2.240 . S
O277 C275 1.279 . S
O278 Cd268 2.297 1_655 S
O278 C273 1.247 1_655 S
O279 Cd268 2.439 . S
O279 C273 1.208 . S
O280 Cd281 2.223 . S
O280 C288 1.315 . S
Cd281 O280 2.223 . S
Cd281 O284 2.297 . S
Cd281 O285 2.439 . S
Cd281 O291 2.240 . S
Cd282 O283 2.247 . S
Cd282 O290 2.225 . S
Cd282 O292 2.290 1_556 S
Cd282 O293 2.433 1_556 S
O283 Cd282 2.247 . S
O283 C288 1.279 . S
O284 Cd281 2.297 . S
O284 C286 1.247 . S
O285 Cd281 2.439 . S
O285 C286 1.208 . S
C286 O284 1.247 . S
C286 O285 1.208 . S
C287 O292 1.247 . S
C287 O293 1.208 . S
C288 O280 1.315 . S
C288 O283 1.279 . S
C289 O290 1.315 . S
C289 O291 1.279 . S
O290 Cd282 2.225 . S
O290 C289 1.315 . S
O291 Cd281 2.240 . S
O291 C289 1.279 . S
O292 Cd282 2.290 1_554 S
O292 C287 1.247 . S
O293 Cd282 2.433 1_554 S
O293 C287 1.208 . S
O294 Cd295 2.223 . S
O294 C302 1.315 . S
Cd295 O294 2.223 . S
Cd295 O298 2.297 . S
Cd295 O299 2.439 . S
Cd295 O305 2.240 . S
Cd296 O297 2.240 . S
Cd296 O304 2.223 . S
Cd296 O306 2.297 1_455 S
Cd296 O307 2.439 . S
O297 Cd296 2.240 . S
O297 C302 1.279 . S
O298 Cd295 2.297 . S
O298 C300 1.247 . S
O299 Cd295 2.439 . S
O299 C300 1.208 . S
C300 O298 1.247 . S
C300 O299 1.208 . S
C301 O306 1.247 1_455 S
C301 O307 1.208 . S
C302 O294 1.315 . S
C302 O297 1.279 . S
C303 O304 1.315 . S
C303 O305 1.279 . S
O304 Cd296 2.223 . S
O304 C303 1.315 . S
O305 Cd295 2.240 . S
O305 C303 1.279 . S
O306 Cd296 2.297 1_655 S
O306 C301 1.247 1_655 S
O307 Cd296 2.439 . S
O307 C301 1.208 . S
O308 Cd309 2.223 . S
O308 C316 1.315 . S
Cd309 O308 2.223 . S
Cd309 O312 2.297 . S
Cd309 O313 2.439 . S
Cd309 O319 2.240 . S
Cd310 O311 2.240 . S
Cd310 O318 2.223 . S
Cd310 O320 2.297 . S
Cd310 O321 2.439 . S
O311 Cd310 2.240 . S
O311 C316 1.279 . S
O312 Cd309 2.297 . S
O312 C314 1.247 . S
O313 Cd309 2.439 . S
O313 C314 1.208 . S
C314 O312 1.247 . S
C314 O313 1.208 . S
C315 O320 1.247 . S
C315 O321 1.208 . S
C316 O308 1.315 . S
C316 O311 1.279 . S
C317 O318 1.315 . S
C317 O319 1.279 . S
O318 Cd310 2.223 . S
O318 C317 1.315 . S
O319 Cd309 2.240 . S
O319 C317 1.279 . S
O320 Cd310 2.297 . S
O320 C315 1.247 . S
O321 Cd310 2.439 . S
O321 C315 1.208 . S
O322 Cd323 2.223 . S
O322 C330 1.315 . S
Cd323 O322 2.223 . S
Cd323 O326 2.297 . S
Cd323 O327 2.439 . S
Cd323 O333 2.240 . S
Cd324 O325 2.240 . S
Cd324 O332 2.223 . S
Cd324 O334 2.297 . S
Cd324 O335 2.439 . S
O325 Cd324 2.240 . S
O325 C330 1.279 . S
O326 Cd323 2.297 . S
O326 C328 1.247 . S
O327 Cd323 2.439 . S
O327 C328 1.208 . S
C328 O326 1.247 . S
C328 O327 1.208 . S
C329 O334 1.247 . S
C329 O335 1.208 . S
C330 O322 1.315 . S
C330 O325 1.279 . S
C331 O332 1.315 . S
C331 O333 1.279 . S
O332 Cd324 2.223 . S
O332 C331 1.315 . S
O333 Cd323 2.240 . S
O333 C331 1.279 . S
O334 Cd324 2.297 . S
O334 C329 1.247 . S
O335 Cd324 2.439 . S
O335 C329 1.208 . S
O336 Cd337 2.223 . S
O336 C344 1.315 . S
Cd337 O336 2.223 . S
Cd337 O340 2.297 . S
Cd337 O341 2.439 . S
Cd337 O347 2.240 . S
Cd338 O339 2.240 . S
Cd338 O346 2.223 . S
Cd338 O348 2.297 . S
Cd338 O349 2.439 . S
O339 Cd338 2.240 . S
O339 C344 1.279 . S
O340 Cd337 2.297 . S
O340 C342 1.247 . S
O341 Cd337 2.439 . S
O341 C342 1.208 . S
C342 O340 1.247 . S
C342 O341 1.208 . S
C343 O348 1.247 . S
C343 O349 1.208 . S
C344 O336 1.315 . S
C344 O339 1.279 . S
C345 O346 1.315 . S
C345 O347 1.279 . S
O346 Cd338 2.223 . S
O346 C345 1.315 . S
O347 Cd337 2.240 . S
O347 C345 1.279 . S
O348 Cd338 2.297 . S
O348 C343 1.247 . S
O349 Cd338 2.439 . S
O349 C343 1.208 . S
O350 Cd351 2.223 . S
O350 C358 1.315 . S
Cd351 O350 2.223 . S
Cd351 O354 2.297 . S
Cd351 O355 2.439 . S
Cd351 O361 2.240 . S
Cd352 O353 2.240 . S
Cd352 O360 2.223 . S
Cd352 O362 2.297 . S
Cd352 O363 2.439 . S
O353 Cd352 2.240 . S
O353 C358 1.279 . S
O354 Cd351 2.297 . S
O354 C356 1.247 . S
O355 Cd351 2.439 . S
O355 C356 1.208 . S
C356 O354 1.247 . S
C356 O355 1.208 . S
C357 O362 1.247 . S
C357 O363 1.208 . S
C358 O350 1.315 . S
C358 O353 1.279 . S
C359 O360 1.315 . S
C359 O361 1.279 . S
O360 Cd352 2.223 . S
O360 C359 1.315 . S
O361 Cd351 2.240 . S
O361 C359 1.279 . S
O362 Cd352 2.297 . S
O362 C357 1.247 . S
O363 Cd352 2.439 . S
O363 C357 1.208 . S
O364 Cd365 2.223 . S
O364 C372 1.315 . S
Cd365 O364 2.223 . S
Cd365 O368 2.297 . S
Cd365 O369 2.439 . S
Cd365 O375 2.240 . S
Cd366 O367 2.246 . S
Cd366 O374 2.225 . S
Cd366 O376 2.290 1_556 S
Cd366 O377 2.433 1_556 S
O367 Cd366 2.246 . S
O367 C372 1.279 . S
O368 Cd365 2.297 . S
O368 C370 1.247 . S
O369 Cd365 2.439 . S
O369 C370 1.208 . S
C370 O368 1.247 . S
C370 O369 1.208 . S
C371 O376 1.247 . S
C371 O377 1.208 . S
C372 O364 1.315 . S
C372 O367 1.279 . S
C373 O374 1.315 . S
C373 O375 1.279 . S
O374 Cd366 2.225 . S
O374 C373 1.315 . S
O375 Cd365 2.240 . S
O375 C373 1.279 . S
O376 Cd366 2.290 1_554 S
O376 C371 1.247 . S
O377 Cd366 2.433 1_554 S
O377 C371 1.208 . S
O378 Cd379 2.223 . S
O378 C386 1.315 . S
Cd379 O378 2.223 . S
Cd379 O382 2.297 . S
Cd379 O383 2.439 . S
Cd379 O389 2.240 . S
Cd380 O381 2.240 . S
Cd380 O388 2.223 . S
Cd380 O390 2.297 1_655 S
Cd380 O391 2.439 . S
O381 Cd380 2.240 . S
O381 C386 1.279 . S
O382 Cd379 2.297 . S
O382 C384 1.247 . S
O383 Cd379 2.439 . S
O383 C384 1.208 . S
C384 O382 1.247 . S
C384 O383 1.208 . S
C385 O390 1.247 1_655 S
C385 O391 1.208 . S
C386 O378 1.315 . S
C386 O381 1.279 . S
C387 O388 1.315 . S
C387 O389 1.279 . S
O388 Cd380 2.223 . S
O388 C387 1.315 . S
O389 Cd379 2.240 . S
O389 C387 1.279 . S
O390 Cd380 2.297 1_455 S
O390 C385 1.247 1_455 S
O391 Cd380 2.439 . S
O391 C385 1.208 . S
O392 Cd393 2.223 . S
O392 C400 1.315 . S
Cd393 O392 2.223 . S
Cd393 O396 2.297 . S
Cd393 O397 2.439 . S
Cd393 O403 2.240 . S
Cd394 O395 2.247 . S
Cd394 O402 2.225 . S
Cd394 O404 2.290 1_554 S
Cd394 O405 2.433 1_554 S
O395 Cd394 2.247 . S
O395 C400 1.279 . S
O396 Cd393 2.297 . S
O396 C398 1.247 . S
O397 Cd393 2.439 . S
O397 C398 1.208 . S
C398 O396 1.247 . S
C398 O397 1.208 . S
C399 O404 1.247 . S
C399 O405 1.208 . S
C400 O392 1.315 . S
C400 O395 1.279 . S
C401 O402 1.315 . S
C401 O403 1.279 . S
O402 Cd394 2.225 . S
O402 C401 1.315 . S
O403 Cd393 2.240 . S
O403 C401 1.279 . S
O404 Cd394 2.290 1_556 S
O404 C399 1.247 . S
O405 Cd394 2.433 1_556 S
O405 C399 1.208 . S
O406 Cd407 2.223 . S
O406 C414 1.315 . S
Cd407 O406 2.223 . S
Cd407 O410 2.297 . S
Cd407 O411 2.439 . S
Cd407 O417 2.240 . S
Cd408 O409 2.240 . S
Cd408 O416 2.223 . S
Cd408 O418 2.297 1_655 S
Cd408 O419 2.439 . S
O409 Cd408 2.240 . S
O409 C414 1.279 . S
O410 Cd407 2.297 . S
O410 C412 1.247 . S
O411 Cd407 2.439 . S
O411 C412 1.208 . S
C412 O410 1.247 . S
C412 O411 1.208 . S
C413 O418 1.247 1_655 S
C413 O419 1.208 . S
C414 O406 1.315 . S
C414 O409 1.279 . S
C415 O416 1.315 . S
C415 O417 1.279 . S
O416 Cd408 2.223 . S
O416 C415 1.315 . S
O417 Cd407 2.240 . S
O417 C415 1.279 . S
O418 Cd408 2.297 1_455 S
O418 C413 1.247 1_455 S
O419 Cd408 2.439 . S
O419 C413 1.208 . S
O420 Cd421 2.223 . S
O420 C428 1.315 . S
Cd421 O420 2.223 . S
Cd421 O424 2.297 . S
Cd421 O425 2.439 . S
Cd421 O431 2.240 . S
Cd422 O423 2.240 . S
Cd422 O430 2.223 . S
Cd422 O432 2.297 . S
Cd422 O433 2.439 . S
O423 Cd422 2.240 . S
O423 C428 1.279 . S
O424 Cd421 2.297 . S
O424 C426 1.247 . S
O425 Cd421 2.439 . S
O425 C426 1.208 . S
C426 O424 1.247 . S
C426 O425 1.208 . S
C427 O432 1.247 . S
C427 O433 1.208 . S
C428 O420 1.315 . S
C428 O423 1.279 . S
C429 O430 1.315 . S
C429 O431 1.279 . S
O430 Cd422 2.223 . S
O430 C429 1.315 . S
O431 Cd421 2.240 . S
O431 C429 1.279 . S
O432 Cd422 2.297 . S
O432 C427 1.247 . S
O433 Cd422 2.439 . S
O433 C427 1.208 . S
O434 Cd435 2.223 . S
O434 C442 1.315 . S
Cd435 O434 2.223 . S
Cd435 O438 2.297 . S
Cd435 O439 2.439 . S
Cd435 O445 2.240 . S
Cd436 O437 2.240 . S
Cd436 O444 2.223 . S
Cd436 O446 2.297 . S
Cd436 O447 2.439 . S
O437 Cd436 2.240 . S
O437 C442 1.279 . S
O438 Cd435 2.297 . S
O438 C440 1.247 . S
O439 Cd435 2.439 . S
O439 C440 1.208 . S
C440 O438 1.247 . S
C440 O439 1.208 . S
C441 O446 1.247 . S
C441 O447 1.208 . S
C442 O434 1.315 . S
C442 O437 1.279 . S
C443 O444 1.315 . S
C443 O445 1.279 . S
O444 Cd436 2.223 . S
O444 C443 1.315 . S
O445 Cd435 2.240 . S
O445 C443 1.279 . S
O446 Cd436 2.297 . S
O446 C441 1.247 . S
O447 Cd436 2.439 . S
O447 C441 1.208 . S
C448 C449 1.387 . S
C448 H452 0.950 . S
C448 C457 1.390 1_556 S
C449 C448 1.387 . S
C449 C451 1.387 . S
H450 C457 0.950 . S
C451 C449 1.387 . S
C451 C453 1.390 1_556 S
C451 H455 0.950 . S
H452 C448 0.950 . S
C453 C451 1.390 1_554 S
C453 C454 1.387 . S
C453 H456 0.950 . S
C454 C453 1.387 . S
C454 C457 1.387 . S
H455 C451 0.950 . S
H456 C453 0.950 . S
C457 C448 1.390 1_554 S
C457 H450 0.950 . S
C457 C454 1.387 . S
C458 C459 1.387 . S
C458 H462 0.995 . S
C458 C467 1.390 1_565 S
C459 C458 1.387 . S
C459 C461 1.387 . S
H460 C467 0.996 . S
C461 C459 1.387 . S
C461 C463 1.390 1_565 S
C461 H465 0.950 . S
H462 C458 0.995 . S
C463 C461 1.390 1_545 S
C463 C464 1.387 . S
C463 H466 0.950 . S
C464 C463 1.387 . S
C464 C467 1.387 . S
H465 C461 0.950 . S
H466 C463 0.950 . S
C467 C458 1.390 1_545 S
C467 H460 0.996 . S
C467 C464 1.387 . S
C468 C469 1.387 . S
C468 H472 0.950 . S
C468 C477 1.390 . S
C469 C468 1.387 . S
C469 C471 1.387 . S
H470 C477 0.950 . S
C471 C469 1.387 . S
C471 C473 1.390 . S
C471 H475 0.950 . S
H472 C468 0.950 . S
C473 C471 1.390 . S
C473 C474 1.387 . S
C473 H476 0.950 . S
C474 C473 1.387 . S
C474 C477 1.387 . S
H475 C471 0.950 . S
H476 C473 0.950 . S
C477 C468 1.390 . S
C477 H470 0.950 . S
C477 C474 1.387 . S
C478 C479 1.387 . S
C478 H482 0.950 . S
C478 C487 1.390 1_545 S
C479 C478 1.387 . S
C479 C481 1.387 . S
H480 C487 0.950 . S
C481 C479 1.387 . S
C481 C483 1.390 1_545 S
C481 H485 0.950 . S
H482 C478 0.950 . S
C483 C481 1.390 1_565 S
C483 C484 1.387 . S
C483 H486 0.950 . S
C484 C483 1.387 . S
C484 C487 1.387 . S
H485 C481 0.950 . S
H486 C483 0.950 . S
C487 C478 1.390 1_565 S
C487 H480 0.950 . S
C487 C484 1.387 . S
C488 C489 1.387 . S
C488 H492 0.950 . S
C488 C497 1.390 1_554 S
C489 C488 1.387 . S
C489 C491 1.387 . S
H490 C497 0.950 . S
C491 C489 1.387 . S
C491 C493 1.390 1_554 S
C491 H495 0.950 . S
H492 C488 0.950 . S
C493 C491 1.390 1_556 S
C493 C494 1.387 . S
C493 H496 0.950 . S
C494 C493 1.387 . S
C494 C497 1.387 . S
H495 C491 0.950 . S
H496 C493 0.950 . S
C497 C488 1.390 1_556 S
C497 H490 0.950 . S
C497 C494 1.387 . S
C498 C499 1.387 . S
C498 H502 0.950 . S
C498 C507 1.390 1_565 S
C499 C498 1.387 . S
C499 C501 1.387 . S
H500 C507 0.950 . S
C501 C499 1.387 . S
C501 C503 1.390 1_565 S
C501 H505 0.996 . S
H502 C498 0.950 . S
C503 C501 1.390 1_545 S
C503 C504 1.387 . S
C503 H506 0.995 . S
C504 C503 1.387 . S
C504 C507 1.387 . S
H505 C501 0.996 . S
H506 C503 0.995 . S
C507 C498 1.390 1_545 S
C507 H500 0.950 . S
C507 C504 1.387 . S
C508 C509 1.387 . S
C508 H512 0.950 . S
C508 C517 1.390 . S
C509 C508 1.387 . S
C509 C511 1.387 . S
H510 C517 0.950 . S
C511 C509 1.387 . S
C511 C513 1.390 . S
C511 H515 0.950 . S
H512 C508 0.950 . S
C513 C511 1.390 . S
C513 C514 1.387 . S
C513 H516 0.950 . S
C514 C513 1.387 . S
C514 C517 1.387 . S
H515 C511 0.950 . S
H516 C513 0.950 . S
C517 C508 1.390 . S
C517 H510 0.950 . S
C517 C514 1.387 . S
C518 C519 1.387 . S
C518 H522 0.950 . S
C518 C527 1.390 1_565 S
C519 C518 1.387 . S
C519 C521 1.387 . S
H520 C527 0.950 . S
C521 C519 1.387 . S
C521 C523 1.390 1_565 S
C521 H525 0.950 . S
H522 C518 0.950 . S
C523 C521 1.390 1_545 S
C523 C524 1.387 . S
C523 H526 0.950 . S
C524 C523 1.387 . S
C524 C527 1.387 . S
H525 C521 0.950 . S
H526 C523 0.950 . S
C527 C518 1.390 1_545 S
C527 H520 0.950 . S
C527 C524 1.387 . S
C528 C529 1.387 . S
C528 H532 0.950 . S
C528 C537 1.390 . S
C529 C528 1.387 . S
C529 C531 1.387 . S
H530 C537 0.950 . S
C531 C529 1.387 . S
C531 C533 1.390 . S
C531 H535 0.950 . S
H532 C528 0.950 . S
C533 C531 1.390 . S
C533 C534 1.387 . S
C533 H536 0.950 . S
C534 C533 1.387 . S
C534 C537 1.387 . S
H535 C531 0.950 . S
H536 C533 0.950 . S
C537 C528 1.390 . S
C537 H530 0.950 . S
C537 C534 1.387 . S
C538 C539 1.387 . S
C538 H542 0.950 . S
C538 C547 1.390 . S
C539 C538 1.387 . S
C539 C541 1.387 . S
H540 C547 0.950 . S
C541 C539 1.387 . S
C541 C543 1.390 . S
C541 H545 0.950 . S
H542 C538 0.950 . S
C543 C541 1.390 . S
C543 C544 1.387 . S
C543 H546 0.950 . S
C544 C543 1.387 . S
C544 C547 1.387 . S
H545 C541 0.950 . S
H546 C543 0.950 . S
C547 C538 1.390 . S
C547 H540 0.950 . S
C547 C544 1.387 . S
C548 C549 1.387 . S
C548 H552 0.950 . S
C548 C557 1.390 1_556 S
C549 C548 1.387 . S
C549 C551 1.387 . S
H550 C557 0.950 . S
C551 C549 1.387 . S
C551 C553 1.390 1_556 S
C551 H555 0.950 . S
H552 C548 0.950 . S
C553 C551 1.390 1_554 S
C553 C554 1.387 . S
C553 H556 0.950 . S
C554 C553 1.387 . S
C554 C557 1.387 . S
H555 C551 0.950 . S
H556 C553 0.950 . S
C557 C548 1.390 1_554 S
C557 H550 0.950 . S
C557 C554 1.387 . S
C558 C559 1.387 . S
C558 H562 0.950 . S
C558 C567 1.390 . S
C559 C558 1.387 . S
C559 C561 1.387 . S
H560 C567 0.950 . S
C561 C559 1.387 . S
C561 C563 1.390 . S
C561 H565 0.996 . S
H562 C558 0.950 . S
C563 C561 1.390 . S
C563 C564 1.387 . S
C563 H566 0.995 . S
C564 C563 1.387 . S
C564 C567 1.387 . S
H565 C561 0.996 . S
H566 C563 0.995 . S
C567 C558 1.390 . S
C567 H560 0.950 . S
C567 C564 1.387 . S
C568 C569 1.387 . S
C568 H572 0.950 . S
C568 C577 1.390 . S
C569 C568 1.387 . S
C569 C571 1.387 . S
H570 C577 0.950 . S
C571 C569 1.387 . S
C571 C573 1.390 . S
C571 H575 0.950 . S
H572 C568 0.950 . S
C573 C571 1.390 . S
C573 C574 1.387 . S
C573 H576 0.950 . S
C574 C573 1.387 . S
C574 C577 1.387 . S
H575 C571 0.950 . S
H576 C573 0.950 . S
C577 C568 1.390 . S
C577 H570 0.950 . S
C577 C574 1.387 . S
C578 C579 1.387 . S
C578 H582 0.950 . S
C578 C587 1.390 . S
C579 C578 1.387 . S
C579 C581 1.387 . S
H580 C587 0.950 . S
C581 C579 1.387 . S
C581 C583 1.390 . S
C581 H585 0.950 . S
H582 C578 0.950 . S
C583 C581 1.390 . S
C583 C584 1.387 . S
C583 H586 0.950 . S
C584 C583 1.387 . S
C584 C587 1.387 . S
H585 C581 0.950 . S
H586 C583 0.950 . S
C587 C578 1.390 . S
C587 H580 0.950 . S
C587 C584 1.387 . S
C588 C589 1.387 . S
C588 H592 0.950 . S
C588 C597 1.390 1_554 S
C589 C588 1.387 . S
C589 C591 1.387 . S
H590 C597 0.950 . S
C591 C589 1.387 . S
C591 C593 1.390 1_554 S
C591 H595 0.950 . S
H592 C588 0.950 . S
C593 C591 1.390 1_556 S
C593 C594 1.387 . S
C593 H596 0.950 . S
C594 C593 1.387 . S
C594 C597 1.387 . S
H595 C591 0.950 . S
H596 C593 0.950 . S
C597 C588 1.390 1_556 S
C597 H590 0.950 . S
C597 C594 1.387 . S
C598 C599 1.387 . S
C598 H602 0.950 . S
C598 C607 1.390 . S
C599 C598 1.387 . S
C599 C601 1.387 . S
H600 C607 0.950 . S
C601 C599 1.387 . S
C601 C603 1.390 . S
C601 H605 0.995 . S
H602 C598 0.950 . S
C603 C601 1.390 . S
C603 C604 1.387 . S
C603 H606 0.996 . S
C604 C603 1.387 . S
C604 C607 1.387 . S
H605 C601 0.995 . S
H606 C603 0.996 . S
C607 C598 1.390 . S
C607 H600 0.950 . S
C607 C604 1.387 . S
C608 C609 1.387 . S
C608 H612 0.950 . S
C608 C617 1.390 . S
C609 C608 1.387 . S
C609 C611 1.387 . S
H610 C617 0.950 . S
C611 C609 1.387 . S
C611 C613 1.390 . S
C611 H615 0.950 . S
H612 C608 0.950 . S
C613 C611 1.390 . S
C613 C614 1.387 . S
C613 H616 0.950 . S
C614 C613 1.387 . S
C614 C617 1.387 . S
H615 C611 0.950 . S
H616 C613 0.950 . S
C617 C608 1.390 . S
C617 H610 0.950 . S
C617 C614 1.387 . S
C618 C619 1.406 . S
C618 H622 0.950 . S
C618 C627 1.374 1_456 S
C619 C618 1.406 . S
C619 C621 1.387 . S
H620 C627 0.950 . S
C621 C619 1.387 . S
C621 C623 1.390 1_556 S
C621 H625 0.950 . S
H622 C618 0.950 . S
C623 C621 1.390 1_554 S
C623 C624 1.387 1_455 S
C623 H626 0.950 . S
C624 C623 1.387 1_655 S
C624 C627 1.387 . S
H625 C621 0.950 . S
H626 C623 0.950 . S
C627 C618 1.374 1_654 S
C627 H620 0.950 . S
C627 C624 1.387 . S
C628 C629 1.387 . S
C628 H632 0.950 . S
C628 C637 1.390 . S
C629 C628 1.387 . S
C629 C631 1.387 . S
H630 C637 0.950 . S
C631 C629 1.387 . S
C631 C633 1.390 . S
C631 H635 0.950 . S
H632 C628 0.950 . S
C633 C631 1.390 . S
C633 C634 1.387 . S
C633 H636 0.950 . S
C634 C633 1.387 . S
C634 C637 1.387 . S
H635 C631 0.950 . S
H636 C633 0.950 . S
C637 C628 1.390 . S
C637 H630 0.950 . S
C637 C634 1.387 . S
C638 C639 1.387 . S
C638 H642 0.950 . S
C638 C647 1.390 . S
C639 C638 1.387 . S
C639 C641 1.387 . S
H640 C647 0.950 . S
C641 C639 1.387 . S
C641 C643 1.390 . S
C641 H645 0.950 . S
H642 C638 0.950 . S
C643 C641 1.390 . S
C643 C644 1.387 . S
C643 H646 0.950 . S
C644 C643 1.387 . S
C644 C647 1.387 . S
H645 C641 0.950 . S
H646 C643 0.950 . S
C647 C638 1.390 . S
C647 H640 0.950 . S
C647 C644 1.387 . S
C648 C649 1.387 . S
C648 H652 0.950 . S
C648 C657 1.390 . S
C649 C648 1.387 . S
C649 C651 1.387 . S
H650 C657 0.950 . S
C651 C649 1.387 . S
C651 C653 1.390 . S
C651 H655 0.950 . S
H652 C648 0.950 . S
C653 C651 1.390 . S
C653 C654 1.387 . S
C653 H656 0.950 . S
C654 C653 1.387 . S
C654 C657 1.387 . S
H655 C651 0.950 . S
H656 C653 0.950 . S
C657 C648 1.390 . S
C657 H650 0.950 . S
C657 C654 1.387 . S
C658 C659 1.387 . S
C658 H662 0.950 . S
C658 C667 1.390 1_554 S
C659 C658 1.387 . S
C659 C661 1.387 . S
H660 C667 0.950 . S
C661 C659 1.387 . S
C661 C663 1.390 1_554 S
C661 H665 0.950 . S
H662 C658 0.950 . S
C663 C661 1.390 1_556 S
C663 C664 1.387 . S
C663 H666 0.950 . S
C664 C663 1.387 . S
C664 C667 1.387 . S
H665 C661 0.950 . S
H666 C663 0.950 . S
C667 C658 1.390 1_556 S
C667 H660 0.950 . S
C667 C664 1.387 . S
C668 C669 1.387 . S
C668 H672 0.950 . S
C668 C677 1.390 . S
C669 C668 1.387 . S
C669 C671 1.387 . S
H670 C677 0.950 . S
C671 C669 1.387 . S
C671 C673 1.390 . S
C671 H675 0.950 . S
H672 C668 0.950 . S
C673 C671 1.390 . S
C673 C674 1.387 . S
C673 H676 0.950 . S
C674 C673 1.387 . S
C674 C677 1.387 . S
H675 C671 0.950 . S
H676 C673 0.950 . S
C677 C668 1.390 . S
C677 H670 0.950 . S
C677 C674 1.387 . S
C678 C679 1.387 . S
C678 H682 0.950 . S
C678 C687 1.390 . S
C679 C678 1.387 . S
C679 C681 1.387 1_455 S
H680 C687 0.950 . S
C681 C679 1.387 1_655 S
C681 C683 1.390 . S
C681 H685 0.950 . S
H682 C678 0.950 . S
C683 C681 1.390 . S
C683 C684 1.387 . S
C683 H686 0.950 . S
C684 C683 1.387 . S
C684 C687 1.387 1_655 S
H685 C681 0.950 . S
H686 C683 0.950 . S
C687 C678 1.390 . S
C687 H680 0.950 . S
C687 C684 1.387 1_455 S
C688 C689 1.387 . S
C688 H692 0.950 . S
C688 C697 1.390 . S
C689 C688 1.387 . S
C689 C691 1.387 . S
H690 C697 0.950 . S
C691 C689 1.387 . S
C691 C693 1.390 . S
C691 H695 0.950 . S
H692 C688 0.950 . S
C693 C691 1.390 . S
C693 C694 1.387 . S
C693 H696 0.950 . S
C694 C693 1.387 . S
C694 C697 1.387 . S
H695 C691 0.950 . S
H696 C693 0.950 . S
C697 C688 1.390 . S
C697 H690 0.950 . S
C697 C694 1.387 . S
C698 C699 1.387 . S
C698 H702 0.950 . S
C698 C707 1.390 1_654 S
C699 C698 1.387 . S
C699 C701 1.387 . S
H700 C707 0.950 . S
C701 C699 1.387 . S
C701 C703 1.390 1_654 S
C701 H705 0.950 . S
H702 C698 0.950 . S
C703 C701 1.390 1_456 S
C703 C704 1.387 . S
C703 H706 0.950 . S
C704 C703 1.387 . S
C704 C707 1.387 . S
H705 C701 0.950 . S
H706 C703 0.950 . S
C707 C698 1.390 1_456 S
C707 H700 0.950 . S
C707 C704 1.387 . S
C708 C709 1.387 . S
C708 H712 0.950 . S
C708 C717 1.390 . S
C709 C708 1.387 . S
C709 C711 1.387 . S
H710 C717 0.950 . S
C711 C709 1.387 . S
C711 C713 1.390 . S
C711 H715 0.950 . S
H712 C708 0.950 . S
C713 C711 1.390 . S
C713 C714 1.387 . S
C713 H716 0.950 . S
C714 C713 1.387 . S
C714 C717 1.387 . S
H715 C711 0.950 . S
H716 C713 0.950 . S
C717 C708 1.390 . S
C717 H710 0.950 . S
C717 C714 1.387 . S
C718 C719 1.387 . S
C718 H722 0.950 . S
C718 C727 1.390 . S
C719 C718 1.387 . S
C719 C721 1.387 . S
H720 C727 0.950 . S
C721 C719 1.387 . S
C721 C723 1.390 . S
C721 H725 0.950 . S
H722 C718 0.950 . S
C723 C721 1.390 . S
C723 C724 1.387 . S
C723 H726 0.950 . S
C724 C723 1.387 . S
C724 C727 1.387 . S
H725 C721 0.950 . S
H726 C723 0.950 . S
C727 C718 1.390 . S
C727 H720 0.950 . S
C727 C724 1.387 . S
C728 C729 1.387 . S
C728 H732 0.950 . S
C728 C737 1.390 . S
C729 C728 1.387 . S
C729 C731 1.387 . S
H730 C737 0.950 . S
C731 C729 1.387 . S
C731 C733 1.390 . S
C731 H735 0.950 . S
H732 C728 0.950 . S
C733 C731 1.390 . S
C733 C734 1.387 . S
C733 H736 0.950 . S
C734 C733 1.387 . S
C734 C737 1.387 . S
H735 C731 0.950 . S
H736 C733 0.950 . S
C737 C728 1.390 . S
C737 H730 0.950 . S
C737 C734 1.387 . S
C738 C739 1.387 . S
C738 H742 0.950 . S
C738 C747 1.390 1_554 S
C739 C738 1.387 . S
C739 C741 1.387 . S
H740 C747 0.950 . S
C741 C739 1.387 . S
C741 C743 1.390 1_554 S
C741 H745 0.950 . S
H742 C738 0.950 . S
C743 C741 1.390 1_556 S
C743 C744 1.387 . S
C743 H746 0.950 . S
C744 C743 1.387 . S
C744 C747 1.387 . S
H745 C741 0.950 . S
H746 C743 0.950 . S
C747 C738 1.390 1_556 S
C747 H740 0.950 . S
C747 C744 1.387 . S
C748 C749 1.387 . S
C748 H752 0.950 . S
C748 C757 1.390 . S
C749 C748 1.387 . S
C749 C751 1.387 . S
H750 C757 0.950 . S
C751 C749 1.387 . S
C751 C753 1.390 . S
C751 H755 0.950 . S
H752 C748 0.950 . S
C753 C751 1.390 . S
C753 C754 1.387 . S
C753 H756 0.950 . S
C754 C753 1.387 . S
C754 C757 1.387 . S
H755 C751 0.950 . S
H756 C753 0.950 . S
C757 C748 1.390 . S
C757 H750 0.950 . S
C757 C754 1.387 . S
C758 C759 1.387 . S
C758 H762 0.950 . S
C758 C767 1.390 1_655 S
C759 C758 1.387 . S
C759 C761 1.387 . S
H760 C767 0.950 . S
C761 C759 1.387 . S
C761 C763 1.390 1_655 S
C761 H765 0.950 . S
H762 C758 0.950 . S
C763 C761 1.390 1_455 S
C763 C764 1.387 . S
C763 H766 0.950 . S
C764 C763 1.387 . S
C764 C767 1.387 . S
H765 C761 0.950 . S
H766 C763 0.950 . S
C767 C758 1.390 1_455 S
C767 H760 0.950 . S
C767 C764 1.387 . S
C768 C769 1.387 . S
C768 H772 0.950 . S
C768 C777 1.390 . S
C769 C768 1.387 . S
C769 C771 1.387 . S
H770 C777 0.950 . S
C771 C769 1.387 . S
C771 C773 1.390 . S
C771 H775 0.950 . S
H772 C768 0.950 . S
C773 C771 1.390 . S
C773 C774 1.387 . S
C773 H776 0.950 . S
C774 C773 1.387 . S
C774 C777 1.387 . S
H775 C771 0.950 . S
H776 C773 0.950 . S
C777 C768 1.390 . S
C777 H770 0.950 . S
C777 C774 1.387 . S
C778 C779 1.387 . S
C778 H782 0.950 . S
C778 C787 1.390 . S
C779 C778 1.387 . S
C779 C781 1.387 . S
H780 C787 0.950 . S
C781 C779 1.387 . S
C781 C783 1.390 . S
C781 H785 0.950 . S
H782 C778 0.950 . S
C783 C781 1.390 . S
C783 C784 1.387 . S
C783 H786 0.950 . S
C784 C783 1.387 . S
C784 C787 1.387 . S
H785 C781 0.950 . S
H786 C783 0.950 . S
C787 C778 1.390 . S
C787 H780 0.950 . S
C787 C784 1.387 . S
C788 C789 1.387 . S
C788 H792 0.950 . S
C788 C797 1.390 . S
C789 C788 1.387 . S
C789 C791 1.387 . S
H790 C797 0.950 . S
C791 C789 1.387 . S
C791 C793 1.390 . S
C791 H795 0.950 . S
H792 C788 0.950 . S
C793 C791 1.390 . S
C793 C794 1.387 . S
C793 H796 0.950 . S
C794 C793 1.387 . S
C794 C797 1.387 . S
H795 C791 0.950 . S
H796 C793 0.950 . S
C797 C788 1.390 . S
C797 H790 0.950 . S
C797 C794 1.387 . S
C798 C799 1.387 . S
C798 H802 0.950 . S
C798 C807 1.390 1_454 S
C799 C798 1.387 . S
C799 C801 1.387 . S
H800 C807 0.950 . S
C801 C799 1.387 . S
C801 C803 1.390 1_454 S
C801 H805 0.950 . S
H802 C798 0.950 . S
C803 C801 1.390 1_656 S
C803 C804 1.387 . S
C803 H806 0.950 . S
C804 C803 1.387 . S
C804 C807 1.387 . S
H805 C801 0.950 . S
H806 C803 0.950 . S
C807 C798 1.390 1_656 S
C807 H800 0.950 . S
C807 C804 1.387 . S
C808 C809 1.387 . S
C808 H812 0.950 . S
C808 C817 1.390 . S
C809 C808 1.387 . S
C809 C811 1.387 . S
H810 C817 0.950 . S
C811 C809 1.387 . S
C811 C813 1.390 . S
C811 H815 0.950 . S
H812 C808 0.950 . S
C813 C811 1.390 . S
C813 C814 1.387 . S
C813 H816 0.950 . S
C814 C813 1.387 . S
C814 C817 1.387 . S
H815 C811 0.950 . S
H816 C813 0.950 . S
C817 C808 1.390 . S
C817 H810 0.950 . S
C817 C814 1.387 . S
C818 C819 1.387 . S
C818 H822 0.950 . S
C818 C827 1.390 1_655 S
C819 C818 1.387 . S
C819 C821 1.387 . S
H820 C827 0.950 . S
C821 C819 1.387 . S
C821 C823 1.390 1_655 S
C821 H825 0.950 . S
H822 C818 0.950 . S
C823 C821 1.390 1_455 S
C823 C824 1.387 . S
C823 H826 0.950 . S
C824 C823 1.387 . S
C824 C827 1.387 . S
H825 C821 0.950 . S
H826 C823 0.950 . S
C827 C818 1.390 1_455 S
C827 H820 0.950 . S
C827 C824 1.387 . S
C828 C829 1.387 . S
C828 H832 0.950 . S
C828 C837 1.390 . S
C829 C828 1.387 . S
C829 C831 1.387 . S
H830 C837 0.950 . S
C831 C829 1.387 . S
C831 C833 1.390 . S
C831 H835 0.950 . S
H832 C828 0.950 . S
C833 C831 1.390 . S
C833 C834 1.387 . S
C833 H836 0.950 . S
C834 C833 1.387 . S
C834 C837 1.387 . S
H835 C831 0.950 . S
H836 C833 0.950 . S
C837 C828 1.390 . S
C837 H830 0.950 . S
C837 C834 1.387 . S
C838 C839 1.387 . S
C838 H842 0.950 . S
C838 C847 1.390 1_554 S
C839 C838 1.387 . S
C839 C841 1.387 . S
H840 C847 0.950 . S
C841 C839 1.387 . S
C841 C843 1.390 1_554 S
C841 H845 0.950 . S
H842 C838 0.950 . S
C843 C841 1.390 1_556 S
C843 C844 1.387 . S
C843 H846 0.950 . S
C844 C843 1.387 . S
C844 C847 1.387 . S
H845 C841 0.950 . S
H846 C843 0.950 . S
C847 C838 1.390 1_556 S
C847 H840 0.950 . S
C847 C844 1.387 . S
C848 C849 1.387 . S
C848 H852 0.950 . S
C848 C857 1.390 . S
C849 C848 1.387 . S
C849 C851 1.387 . S
H850 C857 0.950 . S
C851 C849 1.387 . S
C851 C853 1.390 . S
C851 H855 0.950 . S
H852 C848 0.950 . S
C853 C851 1.390 . S
C853 C854 1.387 . S
C853 H856 0.950 . S
C854 C853 1.387 . S
C854 C857 1.387 . S
H855 C851 0.950 . S
H856 C853 0.950 . S
C857 C848 1.390 . S
C857 H850 0.950 . S
C857 C854 1.387 . S
C858 C859 1.387 . S
C858 H862 0.950 . S
C858 C867 1.390 . S
C859 C858 1.387 . S
C859 C861 1.387 . S
H860 C867 0.950 . S
C861 C859 1.387 . S
C861 C863 1.390 . S
C861 H865 0.950 . S
H862 C858 0.950 . S
C863 C861 1.390 . S
C863 C864 1.387 . S
C863 H866 0.950 . S
C864 C863 1.387 . S
C864 C867 1.387 . S
H865 C861 0.950 . S
H866 C863 0.950 . S
C867 C858 1.390 . S
C867 H860 0.950 . S
C867 C864 1.387 . S
C868 C869 1.387 . S
C868 H872 0.950 . S
C868 C877 1.390 . S
C869 C868 1.387 . S
C869 C871 1.387 . S
H870 C877 0.950 . S
C871 C869 1.387 . S
C871 C873 1.390 . S
C871 H875 0.950 . S
H872 C868 0.950 . S
C873 C871 1.390 . S
C873 C874 1.387 . S
C873 H876 0.950 . S
C874 C873 1.387 . S
C874 C877 1.387 . S
H875 C871 0.950 . S
H876 C873 0.950 . S
C877 C868 1.390 . S
C877 H870 0.950 . S
C877 C874 1.387 . S
C878 C879 1.382 1_455 S
C878 H882 0.949 1_455 S
C878 C887 1.397 1_556 S
C879 C878 1.382 1_655 S
C879 C881 1.387 . S
H880 C887 0.950 . S
C881 C879 1.387 . S
C881 C883 1.390 1_656 S
C881 H885 0.950 . S
H882 C878 0.949 1_655 S
C883 C881 1.390 1_454 S
C883 C884 1.387 . S
C883 H886 0.950 . S
C884 C883 1.387 . S
C884 C887 1.387 . S
H885 C881 0.950 . S
H886 C883 0.950 . S
C887 C878 1.397 1_554 S
C887 H880 0.950 . S
C887 C884 1.387 . S
C888 C889 1.387 . S
C888 H892 0.950 . S
C888 C897 1.390 . S
C889 C888 1.387 . S
C889 C891 1.387 . S
H890 C897 0.950 . S
C891 C889 1.387 . S
C891 C893 1.390 . S
C891 H895 0.950 . S
H892 C888 0.950 . S
C893 C891 1.390 . S
C893 C894 1.387 . S
C893 H896 0.950 . S
C894 C893 1.387 . S
C894 C897 1.387 . S
H895 C891 0.950 . S
H896 C893 0.950 . S
C897 C888 1.390 . S
C897 H890 0.950 . S
C897 C894 1.387 . S
C898 C899 1.387 . S
C898 H902 0.950 . S
C898 C907 1.390 . S
C899 C898 1.387 . S
C899 C901 1.387 1_655 S
H900 C907 0.950 . S
C901 C899 1.387 1_455 S
C901 C903 1.390 . S
C901 H905 0.950 . S
H902 C898 0.950 . S
C903 C901 1.390 . S
C903 C904 1.387 . S
C903 H906 0.950 . S
C904 C903 1.387 . S
C904 C907 1.387 1_455 S
H905 C901 0.950 . S
H906 C903 0.950 . S
C907 C898 1.390 . S
C907 H900 0.950 . S
C907 C904 1.387 1_655 S
C908 C909 1.387 . S
C908 H912 0.950 . S
C908 C917 1.390 . S
C909 C908 1.387 . S
C909 C911 1.387 . S
H910 C917 0.950 . S
C911 C909 1.387 . S
C911 C913 1.390 . S
C911 H915 0.950 . S
H912 C908 0.950 . S
C913 C911 1.390 . S
C913 C914 1.387 . S
C913 H916 0.950 . S
C914 C913 1.387 . S
C914 C917 1.387 . S
H915 C911 0.950 . S
H916 C913 0.950 . S
C917 C908 1.390 . S
C917 H910 0.950 . S
C917 C914 1.387 . S
C918 C919 1.387 . S
C918 H922 0.950 . S
C918 C927 1.390 1_554 S
C919 C918 1.387 . S
C919 C921 1.387 . S
H920 C927 0.950 . S
C921 C919 1.387 . S
C921 C923 1.390 1_554 S
C921 H925 0.950 . S
H922 C918 0.950 . S
C923 C921 1.390 1_556 S
C923 C924 1.387 . S
C923 H926 0.950 . S
C924 C923 1.387 . S
C924 C927 1.387 . S
H925 C921 0.950 . S
H926 C923 0.950 . S
C927 C918 1.390 1_556 S
C927 H920 0.950 . S
C927 C924 1.387 . S
C928 C929 1.387 . S
C928 H932 0.950 . S
C928 C937 1.390 . S
C929 C928 1.387 . S
C929 C931 1.387 . S
H930 C937 0.950 . S
C931 C929 1.387 . S
C931 C933 1.390 . S
C931 H935 0.950 . S
H932 C928 0.950 . S
C933 C931 1.390 . S
C933 C934 1.387 . S
C933 H936 0.950 . S
C934 C933 1.387 . S
C934 C937 1.387 . S
H935 C931 0.950 . S
H936 C933 0.950 . S
C937 C928 1.390 . S
C937 H930 0.950 . S
C937 C934 1.387 . S
C938 C939 1.387 . S
C938 H942 0.950 . S
C938 C947 1.390 . S
C939 C938 1.387 . S
C939 C941 1.387 . S
H940 C947 0.950 . S
C941 C939 1.387 . S
C941 C943 1.390 . S
C941 H945 0.950 . S
H942 C938 0.950 . S
C943 C941 1.390 . S
C943 C944 1.387 . S
C943 H946 0.950 . S
C944 C943 1.387 . S
C944 C947 1.387 . S
H945 C941 0.950 . S
H946 C943 0.950 . S
C947 C938 1.390 . S
C947 H940 0.950 . S
C947 C944 1.387 . S
C948 C949 1.387 . S
C948 H952 0.950 . S
C948 C957 1.390 . S
C949 C948 1.387 . S
C949 C951 1.387 . S
H950 C957 0.950 . S
C951 C949 1.387 . S
C951 C953 1.390 . S
C951 H955 0.950 . S
H952 C948 0.950 . S
C953 C951 1.390 . S
C953 C954 1.387 . S
C953 H956 0.950 . S
C954 C953 1.387 . S
C954 C957 1.387 . S
H955 C951 0.950 . S
H956 C953 0.950 . S
C957 C948 1.390 . S
C957 H950 0.950 . S
C957 C954 1.387 . S
C958 C959 1.387 . S
C958 H962 0.950 . S
C958 C967 1.390 . S
C959 C958 1.387 . S
C959 C961 1.387 . S
H960 C967 0.950 . S
C961 C959 1.387 . S
C961 C963 1.390 . S
C961 H965 0.950 . S
H962 C958 0.950 . S
C963 C961 1.390 . S
C963 C964 1.387 . S
C963 H966 0.950 . S
C964 C963 1.387 . S
C964 C967 1.387 . S
H965 C961 0.950 . S
H966 C963 0.950 . S
C967 C958 1.390 . S
C967 H960 0.950 . S
C967 C964 1.387 . S
C968 C969 1.387 . S
C968 H972 0.950 . S
C968 C977 1.390 . S
C969 C968 1.387 . S
C969 C971 1.387 . S
H970 C977 0.950 . S
C971 C969 1.387 . S
C971 C973 1.390 . S
C971 H975 0.950 . S
H972 C968 0.950 . S
C973 C971 1.390 . S
C973 C974 1.387 . S
C973 H976 0.950 . S
C974 C973 1.387 . S
C974 C977 1.387 . S
H975 C971 0.950 . S
H976 C973 0.950 . S
C977 C968 1.390 . S
C977 H970 0.950 . S
C977 C974 1.387 . S
C978 C979 1.387 . S
C978 H982 0.950 . S
C978 C987 1.390 . S
C979 C978 1.387 . S
C979 C981 1.387 . S
H980 C987 0.950 . S
C981 C979 1.387 . S
C981 C983 1.390 . S
C981 H985 0.950 . S
H982 C978 0.950 . S
C983 C981 1.390 . S
C983 C984 1.387 . S
C983 H986 0.950 . S
C984 C983 1.387 . S
C984 C987 1.387 . S
H985 C981 0.950 . S
H986 C983 0.950 . S
C987 C978 1.390 . S
C987 H980 0.950 . S
C987 C984 1.387 . S
C988 C989 1.387 . S
C988 H992 0.950 . S
C988 C997 1.390 . S
C989 C988 1.387 . S
C989 C991 1.387 . S
H990 C997 0.950 . S
C991 C989 1.387 . S
C991 C993 1.390 . S
C991 H995 0.950 . S
H992 C988 0.950 . S
C993 C991 1.390 . S
C993 C994 1.387 . S
C993 H996 0.950 . S
C994 C993 1.387 . S
C994 C997 1.387 . S
H995 C991 0.950 . S
H996 C993 0.950 . S
C997 C988 1.390 . S
C997 H990 0.950 . S
C997 C994 1.387 . S
C998 C999 1.387 . S
C998 H1002 0.950 . S
C998 C1007 1.390 . S
C999 C998 1.387 . S
C999 C1001 1.387 . S
H1000 C1007 0.950 . S
C1001 C999 1.387 . S
C1001 C1003 1.390 . S
C1001 H1005 0.950 . S
H1002 C998 0.950 . S
C1003 C1001 1.390 . S
C1003 C1004 1.387 . S
C1003 H1006 0.950 . S
C1004 C1003 1.387 . S
C1004 C1007 1.387 . S
H1005 C1001 0.950 . S
H1006 C1003 0.950 . S
C1007 C998 1.390 . S
C1007 H1000 0.950 . S
C1007 C1004 1.387 . S
C1008 C1009 1.387 . S
C1008 H1012 0.950 . S
C1008 C1017 1.390 . S
C1009 C1008 1.387 . S
C1009 C1011 1.387 . S
H1010 C1017 0.950 . S
C1011 C1009 1.387 . S
C1011 C1013 1.390 . S
C1011 H1015 0.950 . S
H1012 C1008 0.950 . S
C1013 C1011 1.390 . S
C1013 C1014 1.387 . S
C1013 H1016 0.950 . S
C1014 C1013 1.387 . S
C1014 C1017 1.387 . S
H1015 C1011 0.950 . S
H1016 C1013 0.950 . S
C1017 C1008 1.390 . S
C1017 H1010 0.950 . S
C1017 C1014 1.387 . S
C1018 C1019 1.387 . S
C1018 H1022 0.950 . S
C1018 C1027 1.390 . S
C1019 C1018 1.387 . S
C1019 C1021 1.387 . S
H1020 C1027 0.950 . S
C1021 C1019 1.387 . S
C1021 C1023 1.390 . S
C1021 H1025 0.950 . S
H1022 C1018 0.950 . S
C1023 C1021 1.390 . S
C1023 C1024 1.387 . S
C1023 H1026 0.950 . S
C1024 C1023 1.387 . S
C1024 C1027 1.387 . S
H1025 C1021 0.950 . S
H1026 C1023 0.950 . S
C1027 C1018 1.390 . S
C1027 H1020 0.950 . S
C1027 C1024 1.387 . S
C1028 C1029 1.387 . S
C1028 H1032 0.950 . S
C1028 C1037 1.390 . S
C1029 C1028 1.387 . S
C1029 C1031 1.387 . S
H1030 C1037 0.950 . S
C1031 C1029 1.387 . S
C1031 C1033 1.390 . S
C1031 H1035 0.950 . S
H1032 C1028 0.950 . S
C1033 C1031 1.390 . S
C1033 C1034 1.387 . S
C1033 H1036 0.950 . S
C1034 C1033 1.387 . S
C1034 C1037 1.387 . S
H1035 C1031 0.950 . S
H1036 C1033 0.950 . S
C1037 C1028 1.390 . S
C1037 H1030 0.950 . S
C1037 C1034 1.387 . S
C1038 C1039 1.387 . S
C1038 H1042 0.950 . S
C1038 C1047 1.390 . S
C1039 C1038 1.387 . S
C1039 C1041 1.387 . S
H1040 C1047 0.950 . S
C1041 C1039 1.387 . S
C1041 C1043 1.390 . S
C1041 H1045 0.950 . S
H1042 C1038 0.950 . S
C1043 C1041 1.390 . S
C1043 C1044 1.387 . S
C1043 H1046 0.950 . S
C1044 C1043 1.387 . S
C1044 C1047 1.387 . S
H1045 C1041 0.950 . S
H1046 C1043 0.950 . S
C1047 C1038 1.390 . S
C1047 H1040 0.950 . S
C1047 C1044 1.387 . S
C1048 C1049 1.387 . S
C1048 H1052 0.950 . S
C1048 C1057 1.390 . S
C1049 C1048 1.387 . S
C1049 C1051 1.387 . S
H1050 C1057 0.950 . S
C1051 C1049 1.387 . S
C1051 C1053 1.390 . S
C1051 H1055 0.950 . S
H1052 C1048 0.950 . S
C1053 C1051 1.390 . S
C1053 C1054 1.387 . S
C1053 H1056 0.950 . S
C1054 C1053 1.387 . S
C1054 C1057 1.387 . S
H1055 C1051 0.950 . S
H1056 C1053 0.950 . S
C1057 C1048 1.390 . S
C1057 H1050 0.950 . S
C1057 C1054 1.387 . S
C1058 C1059 1.387 . S
C1058 H1062 0.950 . S
C1058 C1067 1.390 . S
C1059 C1058 1.387 . S
C1059 C1061 1.387 . S
H1060 C1067 0.950 . S
C1061 C1059 1.387 . S
C1061 C1063 1.390 . S
C1061 H1065 0.950 . S
H1062 C1058 0.950 . S
C1063 C1061 1.390 . S
C1063 C1064 1.387 . S
C1063 H1066 0.950 . S
C1064 C1063 1.387 . S
C1064 C1067 1.387 . S
H1065 C1061 0.950 . S
H1066 C1063 0.950 . S
C1067 C1058 1.390 . S
C1067 H1060 0.950 . S
C1067 C1064 1.387 . S
C1068 C1069 1.387 . S
C1068 H1072 0.950 . S
C1068 C1077 1.390 . S
C1069 C1068 1.387 . S
C1069 C1071 1.387 . S
H1070 C1077 0.950 . S
C1071 C1069 1.387 . S
C1071 C1073 1.390 . S
C1071 H1075 0.950 . S
H1072 C1068 0.950 . S
C1073 C1071 1.390 . S
C1073 C1074 1.387 . S
C1073 H1076 0.950 . S
C1074 C1073 1.387 . S
C1074 C1077 1.387 . S
H1075 C1071 0.950 . S
H1076 C1073 0.950 . S
C1077 C1068 1.390 . S
C1077 H1070 0.950 . S
C1077 C1074 1.387 . S
C1078 C1079 1.387 . S
C1078 H1082 0.950 . S
C1078 C1087 1.390 . S
C1079 C1078 1.387 . S
C1079 C1081 1.387 . S
H1080 C1087 0.950 . S
C1081 C1079 1.387 . S
C1081 C1083 1.390 . S
C1081 H1085 0.950 . S
H1082 C1078 0.950 . S
C1083 C1081 1.390 . S
C1083 C1084 1.387 . S
C1083 H1086 0.950 . S
C1084 C1083 1.387 . S
C1084 C1087 1.387 . S
H1085 C1081 0.950 . S
H1086 C1083 0.950 . S
C1087 C1078 1.390 . S
C1087 H1080 0.950 . S
C1087 C1084 1.387 . S
C449 C93 1.520 . S
C454 C9 1.520 . S
C459 C23 1.520 . S
C464 C107 1.520 . S
C469 C65 1.518 . S
C474 C37 1.518 . S
C479 C51 1.520 . S
C484 C79 1.520 . S
C489 C205 1.518 . S
C494 C121 1.518 . S
C499 C219 1.520 . S
C504 C135 1.520 . S
C509 C149 1.518 . S
C514 C177 1.518 . S
C519 C163 1.520 . S
C524 C191 1.520 . S
C529 C233 1.520 . S
C534 C317 1.520 . S
C539 C247 1.520 . S
C544 C331 1.520 . S
C549 C289 1.520 . S
C554 C261 1.520 . S
C559 C303 1.518 . S
C564 C275 1.518 . S
C569 C345 1.518 . S
C574 C429 1.518 . S
C579 C443 1.518 . S
C584 C359 1.518 . S
C589 C401 1.520 . S
C594 C373 1.520 . S
C599 C387 1.520 . S
C604 C415 1.520 . S
C609 C7 1.348 . S
C614 C428 1.375 . S
C619 C218 1.375 . S
C624 C21 1.348 . S
C629 C35 1.346 . S
C634 C400 1.375 . S
C639 C49 1.348 . S
C644 C190 1.375 . S
C649 C372 1.375 . S
C654 C63 1.346 . S
C659 C162 1.375 . S
C664 C77 1.347 . S
C669 C91 1.346 . S
C674 C344 1.377 . S
C679 C134 1.377 . S
C684 C105 1.345 . S
C689 C119 1.348 . S
C694 C316 1.376 . S
C699 C106 1.375 . S
C704 C133 1.348 . S
C709 C147 1.345 . S
C714 C288 1.377 . S
C719 C161 1.345 . S
C724 C78 1.377 . S
C729 C260 1.377 . S
C734 C175 1.346 . S
C739 C189 1.345 . S
C744 C50 1.377 . S
C749 C203 1.348 . S
C754 C232 1.376 . S
C759 C22 1.375 . S
C764 C217 1.348 . S
C769 C231 1.347 . S
C774 C204 1.375 . S
C779 C245 1.346 . S
C784 C442 1.377 . S
C789 C176 1.377 . S
C794 C259 1.345 . S
C799 C273 1.345 . S
C804 C414 1.377 . S
C809 C148 1.377 . S
C814 C287 1.347 . S
C819 C386 1.375 . S
C824 C301 1.348 . S
C829 C120 1.376 . S
C834 C315 1.345 . S
C839 C358 1.377 . S
C844 C329 1.345 . S
C849 C343 1.345 . S
C854 C92 1.376 . S
C859 C330 1.377 . S
C864 C357 1.345 . S
C869 C64 1.377 . S
C874 C371 1.346 . S
C879 C385 1.345 . S
C884 C302 1.377 . S
C889 C399 1.345 . S
C894 C36 1.376 . S
C899 C413 1.347 . S
C904 C274 1.375 . S
C909 C8 1.376 . S
C914 C427 1.345 . S
C919 C441 1.345 . S
C924 C246 1.377 . S
C929 C6 1.483 . S
C934 C300 1.485 . S
C939 C314 1.486 . S
C944 C20 1.484 . S
C949 C34 1.486 . S
C954 C328 1.485 . S
C959 C286 1.483 . S
C964 C48 1.484 . S
C969 C272 1.484 . S
C974 C62 1.486 . S
C979 C230 1.484 . S
C984 C76 1.486 . S
C989 C244 1.485 . S
C994 C90 1.483 . S
C999 C258 1.483 . S
C1004 C104 1.484 . S
C1009 C118 1.486 . S
C1014 C412 1.484 . S
C1019 C426 1.483 . S
C1024 C132 1.485 . S
C1029 C440 1.485 . S
C1034 C146 1.483 . S
C1039 C398 1.483 . S
C1044 C160 1.486 . S
C1049 C384 1.484 . S
C1054 C174 1.486 . S
C1059 C342 1.486 . S
C1064 C188 1.484 . S
C1069 C202 1.486 . S
C1074 C356 1.485 . S
C1079 C216 1.486 . S
C1084 C370 1.483 . S
