# Generated by pormake.
# Topology qtz-a, (4)-cn, num edge types: 1
# Building blocks:
#     Node 0, Type 0, BuildingBlock: KUFVIS_clean_sbu_0, # of connection points: 4
#     Node 1, Type 0, BuildingBlock: KUFVIS_clean_sbu_0, # of connection points: 4
#     Node 2, Type 0, BuildingBlock: KUFVIS_clean_sbu_0, # of connection points: 4
#     Node 3, Type 0, BuildingBlock: KUFVIS_clean_sbu_0, # of connection points: 4
#     Node 4, Type 0, BuildingBlock: KUFVIS_clean_sbu_0, # of connection points: 4
#     Node 5, Type 0, BuildingBlock: KUFVIS_clean_sbu_0, # of connection points: 4
#     Node 6, Type 0, BuildingBlock: KUFVIS_clean_sbu_0, # of connection points: 4
#     Node 7, Type 0, BuildingBlock: KUFVIS_clean_sbu_0, # of connection points: 4
#     Node 8, Type 0, BuildingBlock: KUFVIS_clean_sbu_0, # of connection points: 4
#     Node 9, Type 0, BuildingBlock: KUFVIS_clean_sbu_0, # of connection points: 4
#     Node 10, Type 0, BuildingBlock: KUFVIS_clean_sbu_0, # of connection points: 4
#     Node 11, Type 0, BuildingBlock: KUFVIS_clean_sbu_0, # of connection points: 4
#     Edge 12, Type (0, 0), BuildingBlock: UVAHIK_clean_linker_0, # of connection points: 2
#     Edge 13, Type (0, 0), BuildingBlock: UVAHIK_clean_linker_0, # of connection points: 2
#     Edge 14, Type (0, 0), BuildingBlock: UVAHIK_clean_linker_0, # of connection points: 2
#     Edge 15, Type (0, 0), BuildingBlock: UVAHIK_clean_linker_0, # of connection points: 2
#     Edge 16, Type (0, 0), BuildingBlock: UVAHIK_clean_linker_0, # of connection points: 2
#     Edge 17, Type (0, 0), BuildingBlock: UVAHIK_clean_linker_0, # of connection points: 2
#     Edge 18, Type (0, 0), BuildingBlock: UVAHIK_clean_linker_0, # of connection points: 2
#     Edge 19, Type (0, 0), BuildingBlock: UVAHIK_clean_linker_0, # of connection points: 2
#     Edge 20, Type (0, 0), BuildingBlock: UVAHIK_clean_linker_0, # of connection points: 2
#     Edge 21, Type (0, 0), BuildingBlock: UVAHIK_clean_linker_0, # of connection points: 2
#     Edge 22, Type (0, 0), BuildingBlock: UVAHIK_clean_linker_0, # of connection points: 2
#     Edge 23, Type (0, 0), BuildingBlock: UVAHIK_clean_linker_0, # of connection points: 2
#     Edge 24, Type (0, 0), BuildingBlock: UVAHIK_clean_linker_0, # of connection points: 2
#     Edge 25, Type (0, 0), BuildingBlock: UVAHIK_clean_linker_0, # of connection points: 2
#     Edge 26, Type (0, 0), BuildingBlock: UVAHIK_clean_linker_0, # of connection points: 2
#     Edge 27, Type (0, 0), BuildingBlock: UVAHIK_clean_linker_0, # of connection points: 2
#     Edge 28, Type (0, 0), BuildingBlock: UVAHIK_clean_linker_0, # of connection points: 2
#     Edge 29, Type (0, 0), BuildingBlock: UVAHIK_clean_linker_0, # of connection points: 2
#     Edge 30, Type (0, 0), BuildingBlock: UVAHIK_clean_linker_0, # of connection points: 2
#     Edge 31, Type (0, 0), BuildingBlock: UVAHIK_clean_linker_0, # of connection points: 2
#     Edge 32, Type (0, 0), BuildingBlock: UVAHIK_clean_linker_0, # of connection points: 2
#     Edge 33, Type (0, 0), BuildingBlock: UVAHIK_clean_linker_0, # of connection points: 2
#     Edge 34, Type (0, 0), BuildingBlock: UVAHIK_clean_linker_0, # of connection points: 2
#     Edge 35, Type (0, 0), BuildingBlock: UVAHIK_clean_linker_0, # of connection points: 2
# Relax obj value: 0.797
# Max RMSD: 0.774
# Mean RMSD: 0.771
data_MOF--net-qtz-a--node1-KUFVIS_clean_sbu_0--edge1-UVAHIK_clean_linker_0
_symmetry_space_group_name_H-M    P1
_symmetry_Int_Tables_number       1
_symmetry_cell_setting            triclinic
loop_
_symmetry_equiv_pos_as_xyz
'x, y, z'
_cell_length_a     43.638167
_cell_length_b     42.0212
_cell_length_c     72.338756
_cell_angle_alpha  89.997692
_cell_angle_beta   89.968829
_cell_angle_gamma 121.237
loop_
_atom_site_label
_atom_site_type_symbol
_atom_site_fract_x
_atom_site_fract_y
_atom_site_fract_z
_atom_type_partial_charge
Mn0 Mn 0.44328 0.0071 0.11823 0.0
Mn1 Mn 0.48759 0.96291 0.12834 0.0
C2 C 0.41127 0.94771 0.12972 0.0
C3 C 0.42922 0.05162 0.12636 0.0
C4 C 0.46862 0.97254 0.08927 0.0
O5 O 0.49495 0.04743 0.11815 0.0
O6 O 0.52304 0.01803 0.12762 0.0
C7 C 0.50837 0.98891 0.16686 0.0
N8 N 0.49176 0.9605 0.15451 0.0
C9 C 0.47715 0.91481 0.17833 0.0
C10 C 0.49429 0.9436 0.19132 0.0
C11 C 0.50981 0.9808 0.18556 0.0
C12 C 0.47636 0.92461 0.15992 0.0
H13 H 0.52047 0.01751 0.16243 0.0
C14 C 0.52284 0.04737 0.12296 0.0
O15 O 0.43037 0.0433 0.10919 0.0
O16 O 0.4344 0.03266 0.13885 0.0
N17 N 0.45801 0.90981 0.12934 0.0
C18 C 0.44142 0.88532 0.11519 0.0
C19 C 0.42444 0.84695 0.1186 0.0
C20 C 0.42503 0.83413 0.13644 0.0
C21 C 0.44228 0.85983 0.15078 0.0
C22 C 0.45894 0.89776 0.14653 0.0
H23 H 0.44112 0.89497 0.10141 0.0
O24 O 0.39525 0.96239 0.12129 0.0
O25 O 0.44594 0.96905 0.13193 0.0
O26 O 0.45068 0.98776 0.09352 0.0
O27 O 0.48402 0.96308 0.10118 0.0
C28 C 0.44337 0.84933 0.16915 0.0
C29 C 0.46064 0.87679 0.18294 0.0
H30 H 0.49554 0.93747 0.20574 0.0
H31 H 0.52297 0.00315 0.19551 0.0
H32 H 0.41113 0.82732 0.10747 0.0
H33 H 0.41215 0.8045 0.13895 0.0
H34 H 0.43072 0.82021 0.17287 0.0
H35 H 0.46099 0.86835 0.19705 0.0
Mn36 Mn 0.46444 0.49503 0.463 0.0
Mn37 Mn 0.4993 0.53975 0.50312 0.0
C38 C 0.46589 0.54931 0.46892 0.0
C39 C 0.47418 0.48456 0.43259 0.0
C40 C 0.42378 0.47273 0.49966 0.0
O41 O 0.48906 0.46954 0.47321 0.0
O42 O 0.51536 0.50342 0.49877 0.0
C43 C 0.57549 0.58165 0.4917 0.0
N44 N 0.54596 0.58146 0.49798 0.0
C45 C 0.57725 0.64838 0.4976 0.0
C46 C 0.60808 0.6493 0.49128 0.0
C47 C 0.60718 0.61578 0.48831 0.0
C48 C 0.54649 0.61353 0.5008 0.0
H49 H 0.57482 0.55597 0.48921 0.0
C50 C 0.50866 0.47702 0.48749 0.0
O51 O 0.44543 0.4604 0.44144 0.0
O52 O 0.49751 0.51387 0.44156 0.0
N53 N 0.48647 0.57576 0.50897 0.0
C54 C 0.45464 0.57004 0.51541 0.0
C55 C 0.45107 0.60076 0.51913 0.0
C56 C 0.48031 0.63701 0.51632 0.0
C57 C 0.51304 0.64221 0.51008 0.0
C58 C 0.51509 0.61054 0.50676 0.0
H59 H 0.43203 0.54223 0.51754 0.0
O60 O 0.44524 0.52674 0.45616 0.0
O61 O 0.48689 0.54032 0.47722 0.0
O62 O 0.42458 0.46846 0.4822 0.0
O63 O 0.4505 0.49772 0.50893 0.0
C64 C 0.54369 0.67757 0.50699 0.0
C65 C 0.57575 0.68065 0.50073 0.0
H66 H 0.63255 0.67557 0.48858 0.0
H67 H 0.63081 0.61625 0.48333 0.0
H68 H 0.42579 0.59652 0.52406 0.0
H69 H 0.47738 0.66063 0.51908 0.0
H70 H 0.54289 0.70257 0.50937 0.0
H71 H 0.59912 0.70799 0.49835 0.0
Mn72 Mn 0.91852 0.52406 0.78771 0.0
Mn73 Mn 0.93859 0.58743 0.82098 0.0
C74 C 0.88482 0.55132 0.79032 0.0
C75 C 0.93357 0.51384 0.75857 0.0
C76 C 0.89853 0.50404 0.82817 0.0
O77 O 0.96714 0.53677 0.79646 0.0
O78 O 0.98191 0.58313 0.81679 0.0
C79 C 0.99293 0.65426 0.80067 0.0
N80 N 0.96092 0.6355 0.80969 0.0
C81 C 0.94887 0.6842 0.80337 0.0
C82 C 0.98187 0.70421 0.79417 0.0
C83 C 0.00398 0.68915 0.79282 0.0
C84 C 0.93943 0.64972 0.81107 0.0
H85 H 0.0098 0.64257 0.79939 0.0
C86 C 0.98889 0.56157 0.80756 0.0
O87 O 0.91847 0.48678 0.77051 0.0
O88 O 0.93838 0.54576 0.76332 0.0
N89 N 0.89945 0.59446 0.82611 0.0
C90 C 0.86783 0.57094 0.83476 0.0
C91 C 0.84236 0.58154 0.83695 0.0
C92 C 0.84963 0.61614 0.83021 0.0
C93 C 0.88244 0.63995 0.82144 0.0
C94 C 0.90697 0.62808 0.81985 0.0
H95 H 0.86197 0.54419 0.83983 0.0
O96 O 0.87261 0.52031 0.78129 0.0
O97 O 0.91698 0.5656 0.79709 0.0
O98 O 0.89632 0.49386 0.81133 0.0
O99 O 0.91455 0.53815 0.83332 0.0
C100 C 0.89153 0.67473 0.81396 0.0
C101 C 0.92472 0.69684 0.80492 0.0
H102 H 0.99037 0.73101 0.78797 0.0
H103 H 0.02937 0.7043 0.78563 0.0
H104 H 0.81707 0.56297 0.84369 0.0
H105 H 0.82977 0.62404 0.83175 0.0
H106 H 0.87307 0.68461 0.81493 0.0
H107 H 0.93127 0.72338 0.79908 0.0
Mn108 Mn 0.41095 0.76311 0.07113 0.0
Mn109 Mn 0.34695 0.70838 0.04039 0.0
C110 C 0.35201 0.73095 0.08007 0.0
C111 C 0.45173 0.77006 0.09391 0.0
C112 C 0.3796 0.79186 0.04208 0.0
O113 O 0.44001 0.75968 0.05024 0.0
O114 O 0.39535 0.72294 0.03073 0.0
C115 C 0.3564 0.64385 0.04431 0.0
N116 N 0.33512 0.65863 0.04555 0.0
C117 C 0.28589 0.60097 0.05717 0.0
C118 C 0.30723 0.58507 0.05592 0.0
C119 C 0.34264 0.60663 0.04948 0.0
C120 C 0.30112 0.63824 0.0519 0.0
H121 H 0.38372 0.66038 0.03949 0.0
C122 C 0.42868 0.74242 0.03495 0.0
O123 O 0.45513 0.7989 0.08529 0.0
O124 O 0.42634 0.73767 0.08838 0.0
N125 N 0.29881 0.69182 0.04765 0.0
C126 C 0.28077 0.71018 0.04617 0.0
C127 C 0.24464 0.69225 0.05158 0.0
C128 C 0.22725 0.65536 0.05801 0.0
C129 C 0.24587 0.63641 0.05847 0.0
C130 C 0.28177 0.65569 0.05283 0.0
H131 H 0.29402 0.73847 0.04115 0.0
O132 O 0.37586 0.75904 0.08955 0.0
O133 O 0.36362 0.72117 0.06586 0.0
O134 O 0.40136 0.79764 0.05533 0.0
O135 O 0.35788 0.7596 0.03528 0.0
C136 C 0.23005 0.59895 0.06397 0.0
C137 C 0.25009 0.58128 0.06339 0.0
H138 H 0.2967 0.55635 0.05987 0.0
H139 H 0.35932 0.59459 0.04853 0.0
H140 H 0.23027 0.70684 0.05083 0.0
H141 H 0.19942 0.64164 0.0622 0.0
H142 H 0.20239 0.58338 0.06851 0.0
H143 H 0.23759 0.55243 0.06758 0.0
Mn144 Mn 0.62497 0.42601 0.36718 0.0
Mn145 Mn 0.7053 0.43282 0.36623 0.0
C146 C 0.6671 0.46332 0.34563 0.0
C147 C 0.56474 0.39805 0.35888 0.0
C148 C 0.688 0.47496 0.39349 0.0
O149 O 0.61588 0.38162 0.38238 0.0
O150 O 0.67205 0.3926 0.38355 0.0
C151 C 0.67966 0.36081 0.34738 0.0
N152 N 0.70191 0.39846 0.34785 0.0
C153 C 0.72814 0.39831 0.31861 0.0
C154 C 0.70566 0.35949 0.31786 0.0
C155 C 0.6813 0.34067 0.33231 0.0
C156 C 0.72543 0.41684 0.33402 0.0
H157 H 0.66074 0.3463 0.3584 0.0
C158 C 0.63925 0.3751 0.38884 0.0
O159 O 0.57704 0.41749 0.37392 0.0
O160 O 0.58721 0.39398 0.3489 0.0
N161 N 0.74043 0.47064 0.35041 0.0
C162 C 0.75987 0.50813 0.35317 0.0
C163 C 0.78519 0.53113 0.33986 0.0
C164 C 0.7905 0.51531 0.32399 0.0
C165 C 0.77071 0.47656 0.32167 0.0
C166 C 0.74607 0.45504 0.33546 0.0
H167 H 0.75572 0.52038 0.36532 0.0
O168 O 0.6418 0.46926 0.35036 0.0
O169 O 0.66679 0.4353 0.35356 0.0
O170 O 0.65535 0.4603 0.38844 0.0
O171 O 0.71054 0.46903 0.38525 0.0
C172 C 0.7741 0.45848 0.30609 0.0
C173 C 0.7528 0.41939 0.30455 0.0
H174 H 0.70672 0.34388 0.30622 0.0
H175 H 0.66375 0.31074 0.3318 0.0
H176 H 0.80043 0.561 0.34178 0.0
H177 H 0.8098 0.53316 0.31367 0.0
H178 H 0.79281 0.4744 0.29514 0.0
H179 H 0.75546 0.40583 0.29245 0.0
Mn180 Mn 0.18752 0.4914 0.67795 0.0
Mn181 Mn 0.2467 0.46923 0.69189 0.0
C182 C 0.23595 0.50675 0.65985 0.0
C183 C 0.13371 0.47768 0.6643 0.0
C184 C 0.2532 0.53924 0.70344 0.0
O185 O 0.1605 0.45358 0.69786 0.0
O186 O 0.2085 0.4573 0.71086 0.0
C187 C 0.19337 0.38842 0.68875 0.0
N188 N 0.22522 0.41878 0.68364 0.0
C189 C 0.23627 0.38244 0.66191 0.0
C190 C 0.2035 0.35088 0.66687 0.0
C191 C 0.182 0.35389 0.68038 0.0
C192 C 0.24611 0.41615 0.67065 0.0
H193 H 0.17672 0.39044 0.69913 0.0
C194 C 0.17631 0.45044 0.71178 0.0
O195 O 0.14877 0.50291 0.67707 0.0
O196 O 0.14994 0.46052 0.6593 0.0
N197 N 0.28541 0.47932 0.67574 0.0
C198 C 0.31805 0.51122 0.67425 0.0
C199 C 0.34335 0.5127 0.66171 0.0
C200 C 0.33526 0.48101 0.65134 0.0
C201 C 0.30228 0.44786 0.65395 0.0
C202 C 0.27811 0.44816 0.66658 0.0
H203 H 0.32434 0.53551 0.6823 0.0
O204 O 0.21893 0.52436 0.65815 0.0
O205 O 0.22291 0.47901 0.67154 0.0
O206 O 0.22152 0.52921 0.69778 0.0
O207 O 0.26888 0.52129 0.69979 0.0
C208 C 0.29272 0.41439 0.64478 0.0
C209 C 0.25969 0.38171 0.64872 0.0
H210 H 0.19468 0.32417 0.66049 0.0
H211 H 0.15673 0.32963 0.68433 0.0
H212 H 0.369 0.53819 0.66005 0.0
H213 H 0.35483 0.48224 0.64168 0.0
H214 H 0.31075 0.41336 0.63482 0.0
H215 H 0.25275 0.35607 0.64169 0.0
Mn216 Mn 0.80309 0.53433 0.60908 0.0
Mn217 Mn 0.71558 0.48442 0.61841 0.0
C218 C 0.78128 0.55329 0.63311 0.0
C219 C 0.85694 0.53623 0.61306 0.0
C220 C 0.74801 0.53255 0.58387 0.0
O221 O 0.78403 0.48581 0.59549 0.0
O222 O 0.73013 0.44931 0.60892 0.0
C223 C 0.71151 0.43581 0.6491 0.0
N224 N 0.70618 0.46298 0.64259 0.0
C225 C 0.68384 0.46848 0.67209 0.0
C226 C 0.68902 0.4405 0.6791 0.0
C227 C 0.70289 0.42408 0.66755 0.0
C228 C 0.69248 0.47869 0.65352 0.0
H229 H 0.72251 0.42337 0.64033 0.0
C230 C 0.75626 0.4542 0.59869 0.0
O231 O 0.85191 0.55154 0.59866 0.0
O232 O 0.83167 0.52182 0.6253 0.0
N233 N 0.69985 0.51603 0.62811 0.0
C234 C 0.69876 0.54436 0.61961 0.0
C235 C 0.68681 0.56464 0.6295 0.0
C236 C 0.67619 0.55568 0.64804 0.0
C237 C 0.67754 0.52642 0.6565 0.0
C238 C 0.68934 0.50694 0.6459 0.0
H239 H 0.70706 0.55157 0.60541 0.0
O240 O 0.8124 0.57643 0.62589 0.0
O241 O 0.76467 0.52031 0.62579 0.0
O242 O 0.78047 0.55059 0.58944 0.0
O243 O 0.72257 0.50595 0.59314 0.0
C244 C 0.66832 0.51635 0.67516 0.0
C245 C 0.67144 0.48737 0.68295 0.0
H246 H 0.68283 0.43171 0.69339 0.0
H247 H 0.70715 0.40262 0.67289 0.0
H248 H 0.68595 0.58727 0.62289 0.0
H249 H 0.66731 0.57162 0.65567 0.0
H250 H 0.65921 0.53099 0.68371 0.0
H251 H 0.66474 0.48022 0.69737 0.0
Mn252 Mn 0.47421 0.87864 0.85734 0.0
Mn253 Mn 0.54676 0.96231 0.86654 0.0
C254 C 0.47332 0.93113 0.8499 0.0
C255 C 0.44348 0.82662 0.8384 0.0
C256 C 0.49054 0.92108 0.89476 0.0
O257 O 0.51135 0.8653 0.86309 0.0
O258 O 0.55314 0.92046 0.87426 0.0
C259 C 0.58857 0.95261 0.83718 0.0
N260 N 0.57521 0.97263 0.84473 0.0
C261 C 0.60122 0.0184 0.82051 0.0
C262 C 0.61528 0.99827 0.81249 0.0
C263 C 0.60884 0.96518 0.82085 0.0
C264 C 0.58069 0.00414 0.83662 0.0
H265 H 0.58383 0.92723 0.84356 0.0
C266 C 0.53973 0.88545 0.87228 0.0
O267 O 0.43659 0.82467 0.85598 0.0
O268 O 0.46833 0.85851 0.83196 0.0
N269 N 0.54664 0.0066 0.86071 0.0
C270 C 0.53602 0.02545 0.87173 0.0
C271 C 0.54245 0.06037 0.86608 0.0
C272 C 0.56075 0.07608 0.84945 0.0
C273 C 0.57317 0.0571 0.83885 0.0
C274 C 0.5661 0.02247 0.84525 0.0
H275 H 0.52268 0.01382 0.88473 0.0
O276 O 0.44393 0.89906 0.85099 0.0
O277 O 0.5033 0.93137 0.85184 0.0
O278 O 0.47352 0.89087 0.88525 0.0
O279 O 0.51678 0.95178 0.88858 0.0
C280 C 0.59342 0.07182 0.82256 0.0
C281 C 0.6072 0.05232 0.8133 0.0
H282 H 0.63122 0.00808 0.79999 0.0
H283 H 0.61961 0.94948 0.81475 0.0
H284 H 0.53349 0.07522 0.87456 0.0
H285 H 0.56592 0.10314 0.84518 0.0
H286 H 0.59904 0.09838 0.81718 0.0
H287 H 0.62297 0.06405 0.80087 0.0
Mn288 Mn 0.51602 0.46241 0.20552 0.0
Mn289 Mn 0.55286 0.49801 0.16404 0.0
C290 C 0.57479 0.48095 0.19991 0.0
C291 C 0.50247 0.47013 0.23572 0.0
C292 C 0.50453 0.41521 0.17105 0.0
O293 O 0.48075 0.47411 0.1943 0.0
O294 O 0.50742 0.49868 0.16694 0.0
C295 C 0.57151 0.57557 0.17079 0.0
N296 N 0.5818 0.55095 0.16636 0.0
C297 C 0.64367 0.60013 0.16444 0.0
C298 C 0.63366 0.62603 0.16875 0.0
C299 C 0.59742 0.61367 0.17197 0.0
C300 C 0.61661 0.56254 0.16328 0.0
H301 H 0.54378 0.56621 0.17352 0.0
C302 C 0.4819 0.48869 0.17867 0.0
O303 O 0.48492 0.43806 0.22747 0.0
O304 O 0.5266 0.49799 0.22615 0.0
N305 N 0.59703 0.49977 0.15971 0.0
C306 C 0.60253 0.47108 0.15675 0.0
C307 C 0.63751 0.47864 0.15386 0.0
C308 C 0.66646 0.51558 0.15404 0.0
C309 C 0.66015 0.54466 0.15706 0.0
C310 C 0.62467 0.53546 0.15969 0.0
H311 H 0.58049 0.44261 0.15688 0.0
O312 O 0.55683 0.45742 0.21297 0.0
O313 O 0.55785 0.49377 0.19066 0.0
O314 O 0.49857 0.41816 0.18803 0.0
O315 O 0.52446 0.44318 0.16069 0.0
C316 C 0.68775 0.58236 0.15791 0.0
C317 C 0.67952 0.61007 0.16159 0.0
H318 H 0.6536 0.65541 0.16981 0.0
H319 H 0.5895 0.63345 0.17546 0.0
H320 H 0.64217 0.45602 0.15164 0.0
H321 H 0.69344 0.52128 0.15198 0.0
H322 H 0.71544 0.59031 0.15595 0.0
H323 H 0.70101 0.63892 0.16241 0.0
Mn324 Mn 0.13341 0.52159 0.57181 0.0
Mn325 Mn 0.12198 0.50761 0.5256 0.0
C326 C 0.18272 0.5519 0.55287 0.0
C327 C 0.12891 0.54966 0.59845 0.0
C328 C 0.13048 0.45574 0.55121 0.0
O329 O 0.07972 0.49304 0.56894 0.0
O330 O 0.07464 0.48704 0.53816 0.0
C331 C 0.09659 0.56012 0.52041 0.0
N332 N 0.12074 0.54972 0.51655 0.0
C333 C 0.15633 0.60472 0.49818 0.0
C334 C 0.13174 0.61589 0.50188 0.0
C335 C 0.10176 0.59349 0.51306 0.0
C336 C 0.14994 0.57133 0.50602 0.0
H337 H 0.07368 0.54324 0.52914 0.0
C338 C 0.06098 0.4819 0.55433 0.0
O339 O 0.12803 0.51838 0.59896 0.0
O340 O 0.13232 0.56495 0.58237 0.0
N341 N 0.16432 0.5259 0.51088 0.0
C342 C 0.18133 0.50774 0.50578 0.0
C343 C 0.21139 0.52557 0.49412 0.0
C344 C 0.22235 0.561 0.48698 0.0
C345 C 0.20234 0.5776 0.49104 0.0
C346 C 0.17287 0.55857 0.50289 0.0
H347 H 0.17247 0.48017 0.51093 0.0
O348 O 0.18614 0.55143 0.57063 0.0
O349 O 0.14994 0.53814 0.54678 0.0
O350 O 0.13376 0.47394 0.56606 0.0
O351 O 0.12529 0.46524 0.53515 0.0
C352 C 0.20968 0.61158 0.48324 0.0
C353 C 0.18678 0.62523 0.48688 0.0
H354 H 0.13556 0.64154 0.49617 0.0
H355 H 0.08271 0.60197 0.51603 0.0
H356 H 0.22587 0.51193 0.49053 0.0
H357 H 0.24538 0.57459 0.47788 0.0
H358 H 0.23247 0.62709 0.47415 0.0
H359 H 0.19247 0.6512 0.48066 0.0
Mn360 Mn 0.56344 0.21863 0.9516 0.0
Mn361 Mn 0.48646 0.21479 0.96259 0.0
C362 C 0.52204 0.2047 0.92886 0.0
C363 C 0.62385 0.25619 0.94399 0.0
C364 C 0.49571 0.14917 0.96779 0.0
O365 O 0.57328 0.24006 0.97723 0.0
O366 O 0.52009 0.23291 0.98414 0.0
C367 C 0.52154 0.29682 0.96409 0.0
N368 N 0.4965 0.26362 0.95658 0.0
C369 C 0.47891 0.29411 0.93455 0.0
C370 C 0.5044 0.32861 0.9421 0.0
C371 C 0.52581 0.32996 0.95693 0.0
C372 C 0.47608 0.26206 0.94216 0.0
H373 H 0.53826 0.29803 0.97539 0.0
C374 C 0.552 0.24183 0.9885 0.0
O375 O 0.61167 0.2234 0.9512 0.0
O376 O 0.60113 0.26681 0.9415 0.0
N377 N 0.45042 0.19792 0.94387 0.0
C378 C 0.42286 0.16255 0.94067 0.0
C379 C 0.39802 0.15604 0.92664 0.0
C380 C 0.40066 0.18618 0.91679 0.0
C381 C 0.42731 0.22259 0.92154 0.0
C382 C 0.45147 0.22723 0.93552 0.0
H383 H 0.42046 0.13945 0.94848 0.0
O384 O 0.54856 0.19966 0.92631 0.0
O385 O 0.52226 0.22104 0.94432 0.0
O386 O 0.5288 0.16582 0.96256 0.0
O387 O 0.47669 0.16443 0.96784 0.0
C388 C 0.43006 0.25447 0.91343 0.0
C389 C 0.45596 0.29022 0.91988 0.0
H390 H 0.50767 0.35423 0.93667 0.0
H391 H 0.5456 0.35648 0.96282 0.0
H392 H 0.37679 0.12791 0.92351 0.0
H393 H 0.38133 0.1811 0.90606 0.0
H394 H 0.41195 0.25178 0.90248 0.0
H395 H 0.45758 0.31452 0.91368 0.0
Mn396 Mn 0.39644 0.60386 0.29392 0.0
Mn397 Mn 0.36433 0.66103 0.29837 0.0
C398 C 0.41007 0.64024 0.31986 0.0
C399 C 0.39013 0.54536 0.29723 0.0
C400 C 0.42807 0.68036 0.27469 0.0
O401 O 0.35677 0.5836 0.27521 0.0
O402 O 0.3411 0.6268 0.27676 0.0
C403 C 0.29099 0.60309 0.30971 0.0
N404 N 0.32202 0.63574 0.3132 0.0
C405 C 0.29913 0.64298 0.34215 0.0
C406 C 0.26682 0.60954 0.33881 0.0
C407 C 0.26276 0.5895 0.32252 0.0
C408 C 0.32619 0.6553 0.3288 0.0
H409 H 0.28783 0.58752 0.29725 0.0
C410 C 0.33925 0.59808 0.2694 0.0
O411 O 0.41167 0.5691 0.28499 0.0
O412 O 0.37238 0.55567 0.30746 0.0
N413 N 0.38419 0.69585 0.3183 0.0
C414 C 0.41769 0.72649 0.31986 0.0
C415 C 0.42661 0.74898 0.33567 0.0
C416 C 0.40091 0.73992 0.34961 0.0
C417 C 0.36646 0.7085 0.34757 0.0
C418 C 0.35907 0.68726 0.33145 0.0
H419 H 0.43754 0.73342 0.30921 0.0
O420 O 0.43044 0.62783 0.31462 0.0
O421 O 0.3819 0.63078 0.30966 0.0
O422 O 0.42672 0.64948 0.27712 0.0
O423 O 0.40769 0.68901 0.28316 0.0
C424 C 0.33944 0.69693 0.36107 0.0
C425 C 0.3058 0.6642 0.35836 0.0
H426 H 0.24507 0.59883 0.34872 0.0
H427 H 0.23796 0.56358 0.31989 0.0
H428 H 0.45326 0.77316 0.33716 0.0
H429 H 0.40799 0.75715 0.36186 0.0
H430 H 0.34439 0.71275 0.37369 0.0
H431 H 0.28538 0.65536 0.36894 0.0
C432 C 0.56057 0.11446 0.12918 0.0
C433 C 0.55641 0.0829 0.12015 0.0
C434 C 0.57862 0.14921 0.12049 0.0
C435 C 0.62076 0.19504 0.07495 0.0
H436 H 0.55253 0.22757 0.0787 0.0
C437 C 0.5993 0.26457 0.01294 0.0
C438 C 0.56291 0.24799 0.00817 0.0
C439 C 0.60925 0.26058 0.03077 0.0
C440 C 0.57194 0.21899 0.07745 0.0
H441 H 0.57169 0.06343 0.09628 0.0
H442 H 0.60238 0.12326 0.08088 0.0
H443 H 0.55555 0.18989 0.10305 0.0
H444 H 0.50867 0.21746 0.01886 0.0
H445 H 0.52568 0.20961 0.04962 0.0
H446 H 0.63438 0.22085 0.0484 0.0
C447 C 0.59247 0.12205 0.09473 0.0
C448 C 0.5742 0.19778 0.09166 0.0
C449 C 0.57504 0.08751 0.10364 0.0
C450 C 0.53693 0.23067 0.02208 0.0
C451 C 0.54683 0.22623 0.03983 0.0
C452 C 0.61808 0.21576 0.0606 0.0
C453 C 0.59191 0.15263 0.1024 0.0
C454 C 0.59735 0.18383 0.09017 0.0
C455 C 0.58301 0.23949 0.04414 0.0
C456 C 0.59231 0.22637 0.06124 0.0
H457 H 0.54616 0.11147 0.1419 0.0
H458 H 0.57882 0.17239 0.12714 0.0
H459 H 0.63959 0.18572 0.0735 0.0
H460 H 0.62001 0.27855 0.00257 0.0
H461 H 0.63741 0.27215 0.03371 0.0
C462 C 0.38456 0.63921 0.35085 0.0
C463 C 0.41418 0.65422 0.33896 0.0
C464 C 0.38929 0.64577 0.36987 0.0
C465 C 0.46073 0.69014 0.40706 0.0
H466 H 0.39571 0.59706 0.43158 0.0
C467 C 0.4979 0.61496 0.45952 0.0
C468 C 0.46966 0.58606 0.46955 0.0
C469 C 0.49229 0.64021 0.44968 0.0
C470 C 0.41377 0.62384 0.42531 0.0
H471 H 0.47198 0.68788 0.3375 0.0
H472 H 0.48071 0.69691 0.37067 0.0
H473 H 0.38154 0.60811 0.40123 0.0
H474 H 0.41613 0.56486 0.48007 0.0
H475 H 0.40725 0.61043 0.46416 0.0
H476 H 0.49457 0.70372 0.43096 0.0
C477 C 0.45353 0.68203 0.36548 0.0
C478 C 0.40552 0.63032 0.40765 0.0
C479 C 0.44862 0.67659 0.34638 0.0
C480 C 0.43842 0.58707 0.4725 0.0
C481 C 0.43315 0.61286 0.46311 0.0
C482 C 0.46931 0.68329 0.42474 0.0
C483 C 0.42396 0.66536 0.37761 0.0
C484 C 0.42945 0.66291 0.39789 0.0
C485 C 0.45849 0.63695 0.45005 0.0
C486 C 0.44644 0.64943 0.4338 0.0
H487 H 0.35783 0.62053 0.34562 0.0
H488 H 0.36567 0.63335 0.37856 0.0
H489 H 0.47948 0.71605 0.40027 0.0
H490 H 0.52214 0.61451 0.45693 0.0
H491 H 0.51261 0.65866 0.43991 0.0
C492 C 0.77151 0.53368 0.66574 0.0
C493 C 0.7745 0.55922 0.65236 0.0
C494 C 0.77136 0.5411 0.68446 0.0
C495 C 0.76357 0.55666 0.72377 0.0
H496 H 0.84665 0.65109 0.73774 0.0
C497 C 0.83184 0.55815 0.78885 0.0
C498 C 0.86866 0.57361 0.78605 0.0
C499 C 0.81271 0.5694 0.77792 0.0
C500 C 0.8233 0.62452 0.73418 0.0
H501 H 0.78069 0.61315 0.64792 0.0
H502 H 0.78076 0.62667 0.68107 0.0
H503 H 0.82431 0.64176 0.7062 0.0
H504 H 0.91523 0.61566 0.77129 0.0
H505 H 0.88226 0.63379 0.75154 0.0
H506 H 0.76458 0.53751 0.75073 0.0
C507 C 0.77758 0.60034 0.67696 0.0
C508 C 0.81008 0.61941 0.71608 0.0
C509 C 0.77739 0.59261 0.65805 0.0
C510 C 0.88681 0.60354 0.7738 0.0
C511 C 0.86758 0.6139 0.76239 0.0
C512 C 0.77716 0.56143 0.74167 0.0
C513 C 0.77517 0.57484 0.69039 0.0
C514 C 0.78152 0.58455 0.71039 0.0
C515 C 0.8298 0.59476 0.76326 0.0
C516 C 0.80875 0.59462 0.74682 0.0
H517 H 0.77112 0.50863 0.66175 0.0
H518 H 0.7706 0.52125 0.69428 0.0
H519 H 0.74076 0.52982 0.71997 0.0
H520 H 0.81733 0.53503 0.79831 0.0
H521 H 0.78398 0.55538 0.77979 0.0
C522 C 0.49112 0.77804 0.02205 0.0
C523 C 0.45526 0.74874 0.0204 0.0
C524 C 0.51422 0.7892 0.00684 0.0
C525 C 0.52402 0.76563 0.95834 0.0
H526 H 0.56098 0.87043 0.94976 0.0
C527 C 0.53048 0.82774 0.88755 0.0
C528 C 0.55187 0.8665 0.88504 0.0
C529 C 0.53259 0.81131 0.90391 0.0
C530 C 0.55203 0.84139 0.95198 0.0
H531 H 0.41675 0.70584 0.00197 0.0
H532 H 0.45691 0.72542 0.97552 0.0
H533 H 0.53801 0.84419 0.97995 0.0
H534 H 0.59673 0.91721 0.89629 0.0
H535 H 0.6012 0.88831 0.9245 0.0
H536 H 0.53665 0.76264 0.93001 0.0
C537 C 0.46721 0.73982 0.98853 0.0
C538 C 0.53867 0.82626 0.96939 0.0
C539 C 0.44405 0.72878 0.0037 0.0
C540 C 0.57924 0.88741 0.89792 0.0
C541 C 0.58159 0.87088 0.91422 0.0
C542 C 0.5377 0.78086 0.9409 0.0
C543 C 0.50206 0.77114 0.98971 0.0
C544 C 0.52321 0.78796 0.97258 0.0
C545 C 0.55651 0.83321 0.91799 0.0
C546 C 0.55051 0.81866 0.93728 0.0
H547 H 0.5008 0.79391 0.03473 0.0
H548 H 0.54109 0.81313 0.00823 0.0
H549 H 0.51269 0.73608 0.96047 0.0
H550 H 0.50942 0.81054 0.87782 0.0
H551 H 0.51292 0.78218 0.90617 0.0
C552 C 0.68601 0.45921 0.31381 0.0
C553 C 0.68775 0.48123 0.32878 0.0
C554 C 0.69877 0.47522 0.29645 0.0
C555 C 0.72722 0.51423 0.25982 0.0
H556 H 0.67906 0.56812 0.25004 0.0
C557 C 0.62862 0.47681 0.20368 0.0
C558 C 0.61401 0.49918 0.20057 0.0
C559 C 0.6606 0.49078 0.21346 0.0
C560 C 0.6939 0.55429 0.25222 0.0
H561 H 0.70508 0.53716 0.33776 0.0
H562 H 0.72801 0.56552 0.30745 0.0
H563 H 0.69316 0.56148 0.28129 0.0
H564 H 0.62383 0.55509 0.20251 0.0
H565 H 0.68084 0.58029 0.21858 0.0
H566 H 0.72555 0.50496 0.23062 0.0
C567 C 0.71689 0.53589 0.30905 0.0
C568 C 0.70196 0.55035 0.2704 0.0
C569 C 0.70386 0.51976 0.32638 0.0
C570 C 0.6347 0.5373 0.20458 0.0
C571 C 0.66711 0.55153 0.21412 0.0
C572 C 0.71932 0.51838 0.24153 0.0
C573 C 0.71298 0.51356 0.29367 0.0
C574 C 0.71638 0.52806 0.27453 0.0
C575 C 0.67836 0.52743 0.22038 0.0
C576 C 0.70001 0.53601 0.23765 0.0
H577 H 0.67272 0.42926 0.31524 0.0
H578 H 0.69468 0.45696 0.28494 0.0
H579 H 0.73933 0.49779 0.26252 0.0
H580 H 0.61305 0.44728 0.20065 0.0
H581 H 0.66833 0.47121 0.21768 0.0
C582 C 0.22028 0.52866 0.5419 0.0
C583 C 0.2139 0.5581 0.54206 0.0
C584 C 0.2548 0.53522 0.54369 0.0
C585 C 0.31978 0.60253 0.57507 0.0
H586 H 0.3238 0.51404 0.58427 0.0
C587 C 0.29476 0.55314 0.64659 0.0
C588 C 0.26572 0.51638 0.64712 0.0
C589 C 0.3176 0.56611 0.6313 0.0
C590 C 0.32343 0.53929 0.58194 0.0
H591 H 0.23947 0.61791 0.5408 0.0
H592 H 0.30022 0.62983 0.54389 0.0
H593 H 0.31465 0.52853 0.55294 0.0
H594 H 0.2388 0.46355 0.6329 0.0
H595 H 0.27654 0.48651 0.60556 0.0
H596 H 0.32588 0.61232 0.60391 0.0
C597 C 0.27833 0.60126 0.54272 0.0
C598 C 0.31828 0.54775 0.56389 0.0
C599 C 0.24345 0.59451 0.54067 0.0
C600 C 0.26135 0.49195 0.63281 0.0
C601 C 0.28337 0.50525 0.61717 0.0
C602 C 0.32519 0.59435 0.593 0.0
C603 C 0.28366 0.5716 0.54685 0.0
C604 C 0.3113 0.57656 0.56076 0.0
C605 C 0.31026 0.54327 0.61566 0.0
C606 C 0.32287 0.56034 0.59694 0.0
H607 H 0.19845 0.50031 0.54311 0.0
H608 H 0.25718 0.51114 0.54595 0.0
H609 H 0.31651 0.62618 0.57339 0.0
H610 H 0.29859 0.57239 0.65758 0.0
H611 H 0.33886 0.59508 0.63105 0.0
C612 C 0.47028 0.98812 0.05567 0.0
C613 C 0.47292 0.96627 0.06953 0.0
C614 C 0.47596 0.98317 0.03714 0.0
C615 C 0.47044 0.91203 0.00526 0.0
H616 H 0.51824 0.99566 0.97167 0.0
C617 C 0.4823 0.89381 0.92628 0.0
C618 C 0.48244 0.92046 0.91454 0.0
C619 C 0.48273 0.8981 0.94551 0.0
C620 C 0.50424 0.97189 0.98077 0.0
H621 H 0.48381 0.92218 0.07477 0.0
H622 H 0.49233 0.91266 0.04239 0.0
H623 H 0.51797 0.0069 0.00456 0.0
H624 H 0.48123 0.97123 0.91339 0.0
H625 H 0.47959 0.97759 0.94674 0.0
H626 H 0.4553 0.87697 0.98143 0.0
C627 C 0.48624 0.93386 0.04586 0.0
C628 C 0.50434 0.9784 -0.00031 0.0
C629 C 0.48132 0.93933 0.06443 0.0
C630 C 0.48104 0.95029 0.92223 0.0
C631 C 0.48071 0.95418 0.94136 0.0
C632 C 0.46984 0.90548 0.98626 0.0
C633 C 0.48348 0.95561 0.03198 0.0
C634 C 0.48671 0.94859 0.01213 0.0
C635 C 0.4828 0.92888 0.95331 0.0
C636 C 0.48588 0.93537 0.97369 0.0
H637 H 0.4643 0.0094 0.05915 0.0
H638 H 0.47362 0.00039 0.0268 0.0
H639 H 0.45653 0.88838 0.01446 0.0
H640 H 0.48421 0.87102 0.92062 0.0
H641 H 0.48466 0.8782 0.95417 0.0
C642 C 0.507 0.50823 0.26341 0.0
C643 C 0.49872 0.47393 0.25573 0.0
C644 C 0.50702 0.5125 0.28263 0.0
C645 C 0.48279 0.50331 0.32332 0.0
H646 H 0.52617 0.46108 0.3537 0.0
C647 C 0.44972 0.46913 0.40066 0.0
C648 C 0.47889 0.48139 0.41268 0.0
C649 C 0.45503 0.47163 0.38154 0.0
C650 C 0.5141 0.47315 0.3454 0.0
H651 H 0.48457 0.41751 0.26202 0.0
H652 H 0.48628 0.42555 0.29536 0.0
H653 H 0.53082 0.4604 0.32005 0.0
H654 H 0.53622 0.50479 0.41437 0.0
H655 H 0.54516 0.5067 0.38082 0.0
H656 H 0.46513 0.51504 0.34869 0.0
C657 C 0.49172 0.44875 0.28666 0.0
C658 C 0.51654 0.47255 0.32615 0.0
C659 C 0.49048 0.44408 0.26754 0.0
C660 C 0.51326 0.49484 0.40531 0.0
C661 C 0.51837 0.49606 0.38618 0.0
C662 C 0.47971 0.50324 0.34257 0.0
C663 C 0.49989 0.48287 0.29447 0.0
C664 C 0.50026 0.48691 0.31489 0.0
C665 C 0.48938 0.48508 0.37409 0.0
C666 C 0.49481 0.48758 0.35378 0.0
H667 H 0.51373 0.53178 0.25457 0.0
H668 H 0.5135 0.53918 0.28823 0.0
H669 H 0.47035 0.515 0.31505 0.0
H670 H 0.42308 0.4593 0.40602 0.0
H671 H 0.43222 0.46313 0.37262 0.0
C672 C 0.1378 0.56224 0.63211 0.0
C673 C 0.12297 0.56484 0.61545 0.0
C674 C 0.12559 0.56783 0.64892 0.0
C675 C 0.05411 0.58342 0.66934 0.0
H676 H 0.05021 0.5125 0.70489 0.0
C677 C 0.94369 0.52114 0.72477 0.0
C678 C 0.95171 0.512 0.74198 0.0
C679 C 0.96736 0.53031 0.70993 0.0
C680 C 0.05117 0.53292 0.69541 0.0
H681 H 0.08624 0.57844 0.60293 0.0
H682 H 0.06225 0.58462 0.632 0.0
H683 H 0.09293 0.53352 0.68035 0.0
H684 H 0.99042 0.50553 0.75752 0.0
H685 H 0.03256 0.52308 0.73215 0.0
H686 H 0.01361 0.58451 0.68542 0.0
C687 C 0.08442 0.58002 0.63253 0.0
C688 C 0.07576 0.54483 0.68094 0.0
C689 C 0.09803 0.57629 0.61569 0.0
C690 C 0.98315 0.51116 0.74411 0.0
C691 C 0.00741 0.5215 0.7295 0.0
C692 C 0.03012 0.57234 0.68419 0.0
C693 C 0.09675 0.57399 0.64946 0.0
C694 C 0.07637 0.56862 0.66704 0.0
C695 C 0.00028 0.53207 0.71228 0.0
C696 C 0.02739 0.54584 0.69708 0.0
H697 H 0.15771 0.55418 0.63219 0.0
H698 H 0.1376 0.56513 0.66143 0.0
H699 H 0.05476 0.60331 0.65961 0.0
H700 H 0.91985 0.52271 0.72302 0.0
H701 H 0.96023 0.53709 0.69681 0.0
C702 C 0.39297 0.85726 0.04438 0.0
C703 C 0.3799 0.82443 0.03405 0.0
C704 C 0.3954 0.88881 0.03651 0.0
C705 C 0.40752 0.93195 0.99052 0.0
H706 H 0.408 0.00958 0.01963 0.0
C707 C 0.44339 0.09331 0.98234 0.0
C708 C 0.47755 0.10983 0.97408 0.0
C709 C 0.42578 0.0565 0.98844 0.0
C710 C 0.40771 0.98809 0.01123 0.0
H711 H 0.35749 0.79844 0.00761 0.0
H712 H 0.36257 0.85386 0.99369 0.0
H713 H 0.38269 0.94751 0.03266 0.0
H714 H 0.51959 0.1 0.96554 0.0
H715 H 0.48862 0.03537 0.97625 0.0
H716 H 0.43317 0.97296 0.96923 0.0
C717 C 0.37106 0.8553 0.00788 0.0
C718 C 0.39342 0.95251 0.01876 0.0
C719 C 0.36801 0.82345 0.01588 0.0
C720 C 0.49344 0.08828 0.97189 0.0
C721 C 0.47558 0.05118 0.97789 0.0
C722 C 0.42216 0.96764 0.98308 0.0
C723 C 0.38568 0.88874 0.01794 0.0
C724 C 0.3944 0.92431 0.00877 0.0
C725 C 0.44166 0.03503 0.98635 0.0
C726 C 0.42335 0.99635 0.99355 0.0
H727 H 0.40188 0.85881 0.05851 0.0
H728 H 0.40663 0.91378 0.0448 0.0
H729 H 0.40832 0.91097 0.98223 0.0
H730 H 0.43014 0.10886 0.98426 0.0
H731 H 0.39957 0.04475 0.99473 0.0
C732 C 0.40724 0.49827 0.28946 0.0
C733 C 0.38724 0.509 0.3002 0.0
C734 C 0.40811 0.46635 0.29403 0.0
C735 C 0.40436 0.41847 0.3367 0.0
H736 H 0.43025 0.36264 0.30452 0.0
C737 C 0.50134 0.3803 0.36488 0.0
C738 C 0.52797 0.38502 0.3524 0.0
C739 C 0.46883 0.37512 0.35844 0.0
C740 C 0.42356 0.37831 0.31381 0.0
H741 H 0.34971 0.49266 0.323 0.0
H742 H 0.35165 0.43754 0.33109 0.0
H743 H 0.40137 0.39405 0.29164 0.0
H744 H 0.54028 0.38442 0.32347 0.0
H745 H 0.48518 0.37746 0.31218 0.0
H746 H 0.42885 0.4063 0.35851 0.0
C747 C 0.36708 0.45394 0.3193 0.0
C748 C 0.40657 0.39604 0.30635 0.0
C749 C 0.36599 0.48562 0.31466 0.0
C750 C 0.52034 0.38127 0.33343 0.0
C751 C 0.48827 0.37711 0.32696 0.0
C752 C 0.42211 0.40173 0.34403 0.0
C753 C 0.38952 0.4449 0.30962 0.0
C754 C 0.39855 0.41804 0.3176 0.0
C755 C 0.46281 0.37629 0.33933 0.0
C756 C 0.43433 0.3835 0.33252 0.0
H757 H 0.42355 0.51542 0.27806 0.0
H758 H 0.42554 0.46022 0.28618 0.0
H759 H 0.39828 0.4348 0.34587 0.0
H760 H 0.50617 0.38208 0.37964 0.0
H761 H 0.44941 0.37224 0.36862 0.0
C762 C 0.07217 0.46618 0.66722 0.0
C763 C 0.09954 0.46913 0.65593 0.0
C764 C 0.04193 0.46407 0.65944 0.0
C765 C 0.01641 0.49379 0.61727 0.0
H766 H 0.92627 0.45174 0.64355 0.0
C767 C 0.90358 0.52513 0.59942 0.0
C768 C 0.88769 0.53095 0.61495 0.0
C769 C 0.92771 0.51277 0.60167 0.0
C770 C 0.95141 0.46386 0.6361 0.0
H771 H 0.11553 0.46816 0.62774 0.0
H772 H 0.0623 0.46426 0.61392 0.0
H773 H 0.96883 0.43341 0.65207 0.0
H774 H 0.88587 0.53044 0.64487 0.0
H775 H 0.92865 0.51042 0.64882 0.0
H776 H 0.99918 0.52507 0.60162 0.0
C777 C 0.0646 0.46467 0.62882 0.0
C778 C 0.97582 0.4533 0.64097 0.0
C779 C 0.09488 0.46658 0.63669 0.0
C780 C 0.89763 0.52605 0.63267 0.0
C781 C 0.92179 0.51411 0.63491 0.0
C782 C 0.99201 0.50457 0.61243 0.0
C783 C 0.03835 0.46476 0.64013 0.0
C784 C 0.00939 0.46946 0.63222 0.0
C785 C 0.93631 0.50624 0.61947 0.0
C786 C 0.95989 0.49085 0.62234 0.0
H787 H 0.07491 0.46724 0.68214 0.0
H788 H 0.02253 0.46432 0.66868 0.0
H789 H 0.04155 0.50609 0.60991 0.0
H790 H 0.89589 0.52812 0.58559 0.0
H791 H 0.93846 0.5069 0.58951 0.0
C792 C 0.29698 0.72818 0.08888 0.0
C793 C 0.31596 0.70973 0.08798 0.0
C794 C 0.27787 0.72581 0.10474 0.0
C795 C 0.31615 0.73946 0.14807 0.0
H796 H 0.26719 0.79414 0.14803 0.0
C797 C 0.38999 0.8993 0.15484 0.0
C798 C 0.38929 0.90916 0.13633 0.0
C799 C 0.36616 0.86276 0.16094 0.0
C800 C 0.28053 0.77849 0.14906 0.0
H801 H 0.32479 0.66925 0.10142 0.0
H802 H 0.29353 0.66712 0.12981 0.0
H803 H 0.23716 0.73123 0.13567 0.0
H804 H 0.36195 0.88999 0.1101 0.0
H805 H 0.32044 0.8269 0.12061 0.0
H806 H 0.36092 0.78837 0.15965 0.0
C807 C 0.29237 0.68258 0.11812 0.0
C808 C 0.26329 0.74231 0.14196 0.0
C809 C 0.31019 0.68367 0.10178 0.0
C810 C 0.36345 0.8828 0.12433 0.0
C811 C 0.33938 0.84691 0.13043 0.0
C812 C 0.33314 0.77537 0.15549 0.0
C813 C 0.27974 0.70709 0.12046 0.0
C814 C 0.28321 0.72517 0.13871 0.0
C815 C 0.34038 0.83645 0.14876 0.0
C816 C 0.31711 0.79669 0.15362 0.0
H817 H 0.30178 0.74929 0.07876 0.0
H818 H 0.26794 0.74462 0.10569 0.0
H819 H 0.33193 0.72646 0.14663 0.0
H820 H 0.40878 0.91977 0.16452 0.0
H821 H 0.36777 0.8551 0.17504 0.0
C822 C 0.65788 0.36517 0.41978 0.0
C823 C 0.63048 0.35473 0.40663 0.0
C824 C 0.64998 0.36227 0.43866 0.0
C825 C 0.57551 0.33882 0.47205 0.0
H826 H 0.62818 0.44575 0.47891 0.0
C827 C 0.50676 0.41733 0.4837 0.0
C828 C 0.52452 0.45379 0.49064 0.0
C829 C 0.52346 0.39673 0.48359 0.0
C830 C 0.61369 0.41573 0.47786 0.0
H831 H 0.57293 0.32537 0.40285 0.0
H832 H 0.55913 0.32 0.43554 0.0
H833 H 0.65257 0.41798 0.45923 0.0
H834 H 0.5725 0.49615 0.5045 0.0
H835 H 0.6022 0.46004 0.50419 0.0
H836 H 0.53535 0.3372 0.4897 0.0
C837 C 0.58679 0.33129 0.4315 0.0
C838 C 0.62781 0.39961 0.4665 0.0
C839 C 0.59469 0.33448 0.41264 0.0
C840 C 0.55831 0.46818 0.49891 0.0
C841 C 0.5753 0.44752 0.49869 0.0
C842 C 0.56156 0.35496 0.48361 0.0
C843 C 0.6146 0.34842 0.44458 0.0
C844 C 0.60747 0.3614 0.46227 0.0
C845 C 0.55855 0.41205 0.49036 0.0
C846 C 0.57907 0.39396 0.48529 0.0
H847 H 0.6858 0.38027 0.41566 0.0
H848 H 0.6719 0.37491 0.44846 0.0
H849 H 0.5596 0.30919 0.46937 0.0
H850 H 0.48043 0.40523 0.4775 0.0
H851 H 0.50971 0.36986 0.47682 0.0
C852 C 0.1242 0.43675 0.7318 0.0
C853 C 0.161 0.45012 0.73011 0.0
C854 C 0.11117 0.44705 0.74688 0.0
C855 C 0.08861 0.46761 0.78262 0.0
H856 H 0.14176 0.57517 0.78739 0.0
C857 C 0.04892 0.58178 0.79522 0.0
C858 C 0.02354 0.56405 0.80933 0.0
C859 C 0.07386 0.57124 0.79141 0.0
C860 C 0.12684 0.54509 0.78641 0.0
H861 H 0.21259 0.48245 0.74371 0.0
H862 H 0.18978 0.50042 0.77 0.0
H863 H 0.16738 0.54478 0.76985 0.0
H864 H 0.00565 0.52345 0.83134 0.0
H865 H 0.04979 0.50555 0.82503 0.0
H866 H 0.0472 0.46795 0.79824 0.0
C867 C 0.17105 0.48204 0.75962 0.0
C868 C 0.14161 0.52762 0.77649 0.0
C869 C 0.18401 0.47129 0.74466 0.0
C870 C 0.02559 0.53816 0.82068 0.0
C871 C 0.05045 0.52749 0.81685 0.0
C872 C 0.07397 0.48502 0.79266 0.0
C873 C 0.13474 0.47127 0.76049 0.0
C874 C 0.12213 0.48877 0.77397 0.0
C875 C 0.07351 0.54244 0.80153 0.0
C876 C 0.0924 0.52407 0.79417 0.0
H877 H 0.10585 0.4206 0.72078 0.0
H878 H 0.08308 0.43841 0.74708 0.0
H879 H 0.07305 0.43764 0.78101 0.0
H880 H 0.04708 0.60098 0.78595 0.0
H881 H 0.09096 0.58309 0.7794 0.0
C882 C 0.77558 0.41007 0.60464 0.0
C883 C 0.75907 0.42267 0.5925 0.0
C884 C 0.7986 0.39904 0.59777 0.0
C885 C 0.85961 0.43025 0.55866 0.0
H886 H 0.89715 0.37535 0.58293 0.0
C887 C -0.00026 0.45796 0.5409 0.0
C888 C 0.02152 0.46297 0.55625 0.0
C889 C 0.96283 0.4425 0.5431 0.0
C890 C 0.88694 0.3908 0.57599 0.0
H891 H 0.74867 0.42797 0.56382 0.0
H892 H 0.78683 0.40628 0.5517 0.0
H893 H 0.8366 0.3612 0.59025 0.0
H894 H 0.0212 0.45357 0.58576 0.0
H895 H 0.95719 0.4277 0.58967 0.0
H896 H 0.91022 0.46098 0.54505 0.0
C897 C 0.78339 0.40635 0.56653 0.0
C898 C 0.85222 0.38259 0.58013 0.0
C899 C 0.76088 0.41801 0.57343 0.0
C900 C 0.00532 0.45076 0.5737 0.0
C901 C 0.96849 0.43538 0.5759 0.0
C902 C 0.89413 0.43835 0.55451 0.0
C903 C 0.80491 0.40001 0.57863 0.0
C904 C 0.83844 0.40284 0.57182 0.0
C905 C 0.94689 0.43165 0.56068 0.0
C906 C 0.90855 0.41937 0.56343 0.0
H907 H 0.77504 0.41407 0.61942 0.0
H908 H 0.81459 0.39426 0.60754 0.0
H909 H 0.85047 0.44722 0.55233 0.0
H910 H 0.01129 0.46684 0.52724 0.0
H911 H 0.94684 0.43957 0.53105 0.0
C912 C 0.4813 0.98917 0.83519 0.0
C913 C 0.46999 0.9641 0.85007 0.0
C914 C 0.47426 0.01824 0.83523 0.0
C915 C 0.48075 0.09069 0.84989 0.0
H916 H 0.39646 0.07492 0.87613 0.0
C917 C 0.47055 0.14664 0.91799 0.0
C918 C 0.49202 0.18534 0.91601 0.0
C919 C 0.45287 0.12413 0.90287 0.0
C920 C 0.41973 0.08004 0.86826 0.0
H921 H 0.44067 0.94774 0.87587 0.0
H922 H 0.42922 0.99836 0.87628 0.0
H923 H 0.3954 0.02273 0.86073 0.0
H924 H 0.51192 0.231 0.89662 0.0
H925 H 0.48249 0.19116 0.86962 0.0
H926 H 0.50621 0.14723 0.85896 0.0
C927 C 0.4432 0.99594 0.86449 0.0
C928 C 0.41928 0.05013 0.85958 0.0
C929 C 0.4503 0.96731 0.86446 0.0
C930 C 0.49416 0.20133 0.89864 0.0
C931 C 0.47756 0.17858 0.88321 0.0
C932 C 0.4812 0.12068 0.85856 0.0
C933 C 0.45513 0.02189 0.84995 0.0
C934 C 0.45082 0.05458 0.85178 0.0
C935 C 0.45815 0.13963 0.88511 0.0
C936 C 0.45167 0.11482 0.86916 0.0
H937 H 0.49551 0.98629 0.82365 0.0
H938 H 0.48396 0.03795 0.82391 0.0
H939 H 0.50523 0.09518 0.84367 0.0
H940 H 0.46993 0.13342 0.93095 0.0
H941 H 0.43881 0.09423 0.90478 0.0
C942 C 0.45921 0.52673 0.16383 0.0
C943 C 0.45292 0.49609 0.17463 0.0
C944 C 0.43383 0.53765 0.16327 0.0
C945 C 0.3415 0.51058 0.17911 0.0
H946 H 0.39033 0.6107 0.19886 0.0
C947 C 0.3326 0.61206 0.23688 0.0
C948 C 0.32289 0.58556 0.251 0.0
C949 C 0.33334 0.60216 0.21847 0.0
C950 C 0.37573 0.58314 0.19282 0.0
H951 H 0.4137 0.45055 0.19161 0.0
H952 H 0.36982 0.46934 0.19066 0.0
H953 H 0.42384 0.58985 0.18141 0.0
H954 H 0.30036 0.52711 0.25686 0.0
H955 H 0.30115 0.50967 0.22506 0.0
H956 H 0.29396 0.50302 0.192 0.0
C957 C 0.39413 0.48517 0.18262 0.0
C958 C 0.39517 0.5711 0.18276 0.0
C959 C 0.41954 0.47461 0.18338 0.0
C960 C 0.30815 0.54806 0.2462 0.0
C961 C 0.30862 0.53812 0.22785 0.0
C962 C 0.322 0.52266 0.18915 0.0
C963 C 0.40155 0.51773 0.17325 0.0
C964 C 0.37883 0.53384 0.17705 0.0
C965 C 0.32422 0.56564 0.21403 0.0
C966 C 0.33956 0.55814 0.19737 0.0
H967 H 0.48461 0.54366 0.15682 0.0
H968 H 0.44023 0.56274 0.15584 0.0
H969 H 0.32796 0.48196 0.17443 0.0
H970 H 0.34413 0.64123 0.24021 0.0
H971 H 0.34474 0.62386 0.20808 0.0
C972 C 0.46117 0.34633 0.17251 0.0
C973 C 0.48961 0.3772 0.16346 0.0
C974 C 0.44987 0.31012 0.16675 0.0
C975 C 0.48604 0.25775 0.14764 0.0
H976 H 0.38776 0.17892 0.13853 0.0
C977 C 0.44116 0.10266 0.14827 0.0
C978 C 0.42732 0.08468 0.13128 0.0
C979 C 0.44518 0.13732 0.15177 0.0
C980 C 0.41526 0.20076 0.14105 0.0
H981 H 0.52729 0.39409 0.14066 0.0
H982 H 0.50826 0.33071 0.13105 0.0
H983 H 0.40158 0.24275 0.14433 0.0
H984 H 0.40501 0.08783 0.10505 0.0
H985 H 0.41088 0.14806 0.11153 0.0
H986 H 0.49964 0.21574 0.14499 0.0
C987 C 0.49467 0.33477 0.14252 0.0
C988 C 0.42313 0.23709 0.14437 0.0
C989 C 0.50548 0.37102 0.14802 0.0
C990 C 0.41569 0.10105 0.11828 0.0
C991 C 0.41902 0.13541 0.12196 0.0
C992 C 0.47808 0.22139 0.14474 0.0
C993 C 0.4672 0.30404 0.15204 0.0
C994 C 0.45862 0.26587 0.14766 0.0
C995 C 0.43472 0.15425 0.13852 0.0
C996 C 0.44265 0.1926 0.14147 0.0
H997 H 0.44817 0.3501 0.18435 0.0
H998 H 0.4287 0.28684 0.17434 0.0
H999 H 0.51355 0.27941 0.15032 0.0
H1000 H 0.45061 0.09089 0.1585 0.0
H1001 H 0.45724 0.15136 0.16467 0.0
C1002 C 0.14512 0.41208 0.53559 0.0
C1003 C 0.14201 0.42817 0.55199 0.0
C1004 C 0.16836 0.39858 0.53472 0.0
C1005 C 0.25409 0.42787 0.55515 0.0
H1006 H 0.25463 0.35796 0.52039 0.0
C1007 C 0.38734 0.45136 0.52881 0.0
C1008 C 0.38914 0.4501 0.50944 0.0
C1009 C 0.35422 0.43525 0.53778 0.0
C1010 C 0.25491 0.37756 0.53021 0.0
H1011 H 0.15582 0.43632 0.58119 0.0
H1012 H 0.19597 0.41249 0.57961 0.0
H1013 H 0.19758 0.35062 0.53003 0.0
H1014 H 0.35738 0.42846 0.48444 0.0
H1015 H 0.29994 0.40148 0.49995 0.0
H1016 H 0.3111 0.45653 0.5544 0.0
C1017 C 0.18136 0.41145 0.5673 0.0
C1018 C 0.22224 0.37322 0.53578 0.0
C1019 C 0.15813 0.42495 0.56818 0.0
C1020 C 0.35706 0.43009 0.49938 0.0
C1021 C 0.32397 0.4143 0.50833 0.0
C1022 C 0.28664 0.43235 0.5495 0.0
C1023 C 0.1886 0.40062 0.55027 0.0
C1024 C 0.22159 0.39913 0.5478 0.0
C1025 C 0.32215 0.41784 0.52757 0.0
C1026 C 0.28754 0.4081 0.53641 0.0
H1027 H 0.13254 0.41334 0.52293 0.0
H1028 H 0.17314 0.3902 0.52139 0.0
H1029 H 0.25467 0.44877 0.56416 0.0
H1030 H 0.41152 0.46608 0.53703 0.0
H1031 H 0.35379 0.4378 0.55267 0.0
C1032 C 0.67386 0.31791 0.9339 0.0
C1033 C 0.66135 0.28042 0.93787 0.0
C1034 C 0.70728 0.34045 0.92579 0.0
C1035 C 0.7837 0.38789 0.91379 0.0
H1036 H 0.8023 0.34548 0.87078 0.0
C1037 C 0.89036 0.48313 0.86117 0.0
C1038 C 0.88025 0.47504 0.84252 0.0
C1039 C 0.87104 0.45693 0.87495 0.0
C1040 C 0.79751 0.35781 0.88273 0.0
H1041 H 0.67473 0.23747 0.93727 0.0
H1042 H 0.73381 0.27723 0.92297 0.0
H1043 H 0.75474 0.30495 0.8922 0.0
H1044 H 0.84273 0.43262 0.82364 0.0
H1045 H 0.80814 0.38758 0.84764 0.0
H1046 H 0.82424 0.44094 0.90372 0.0
C1047 C 0.71741 0.28898 0.92608 0.0
C1048 C 0.77058 0.33445 0.89519 0.0
C1049 C 0.68376 0.26631 0.93436 0.0
C1050 C 0.85127 0.43967 0.83788 0.0
C1051 C 0.83157 0.41368 0.85169 0.0
C1052 C 0.81028 0.41124 0.90128 0.0
C1053 C 0.72922 0.32615 0.9214 0.0
C1054 C 0.76247 0.34942 0.91048 0.0
C1055 C 0.84073 0.42225 0.87046 0.0
C1056 C 0.81674 0.39668 0.88523 0.0
H1057 H 0.6573 0.32969 0.93651 0.0
H1058 H 0.7151 0.36867 0.92213 0.0
H1059 H 0.77862 0.40026 0.92564 0.0
H1060 H 0.91293 0.50996 0.86517 0.0
H1061 H 0.87946 0.46426 0.88918 0.0
C1062 C 0.44083 0.72902 0.25111 0.0
C1063 C 0.45037 0.70512 0.2594 0.0
C1064 C 0.45645 0.74699 0.2345 0.0
C1065 C 0.50288 0.73619 0.19397 0.0
H1066 H 0.49107 0.81596 0.17589 0.0
C1067 C 0.49001 0.80668 0.121 0.0
C1068 C 0.47151 0.77313 0.11107 0.0
C1069 C 0.50165 0.80703 0.13912 0.0
C1070 C 0.49547 0.79422 0.18061 0.0
H1071 H 0.4863 0.68412 0.25758 0.0
H1072 H 0.5154 0.7174 0.22916 0.0
H1073 H 0.48817 0.80418 0.20873 0.0
H1074 H 0.45293 0.71427 0.11186 0.0
H1075 H 0.47169 0.71442 0.14312 0.0
H1076 H 0.512 0.72748 0.16597 0.0
C1077 C 0.49446 0.72087 0.23498 0.0
C1078 C 0.49302 0.78686 0.19959 0.0
C1079 C 0.47807 0.70202 0.25143 0.0
C1080 C 0.46707 0.74062 0.11911 0.0
C1081 C 0.47828 0.74085 0.13716 0.0
C1082 C 0.50649 0.74433 0.17509 0.0
C1083 C 0.48282 0.74241 0.22582 0.0
C1084 C 0.49448 0.75626 0.20647 0.0
C1085 C 0.49478 0.77378 0.1477 0.0
C1086 C 0.50057 0.7719 0.16798 0.0
H1087 H 0.41942 0.73196 0.25675 0.0
H1088 H 0.44594 0.76254 0.22799 0.0
H1089 H 0.50446 0.71252 0.19844 0.0
H1090 H 0.49373 0.83221 0.11518 0.0
H1091 H 0.51483 0.83313 0.14659 0.0
C1092 C 0.76571 0.57048 0.55463 0.0
C1093 C 0.73998 0.53976 0.56491 0.0
C1094 C 0.76017 0.57385 0.53585 0.0
C1095 C 0.75556 0.55788 0.49489 0.0
H1096 H 0.66111 0.51332 0.47298 0.0
C1097 C 0.72781 0.49926 0.42123 0.0
C1098 C 0.69895 0.49614 0.41108 0.0
C1099 C 0.73452 0.51329 0.43923 0.0
C1100 C 0.68783 0.52644 0.47874 0.0
H1101 H 0.68731 0.48953 0.56366 0.0
H1102 H 0.67823 0.49468 0.53105 0.0
H1103 H 0.66795 0.52325 0.50613 0.0
H1104 H 0.65588 0.50758 0.41147 0.0
H1105 H 0.66857 0.53368 0.44257 0.0
H1106 H 0.77556 0.56177 0.46751 0.0
C1107 C 0.70243 0.51673 0.53743 0.0
C1108 C 0.69169 0.53169 0.49788 0.0
C1109 C 0.70776 0.51363 0.55622 0.0
C1110 C 0.67822 0.50941 0.41896 0.0
C1111 C 0.68531 0.52405 0.4369 0.0
C1112 C 0.75175 0.55305 0.47574 0.0
C1113 C 0.72898 0.54633 0.52683 0.0
C1114 C 0.72545 0.54632 0.5063 0.0
C1115 C 0.71294 0.52523 0.44749 0.0
C1116 C 0.71768 0.53597 0.46744 0.0
H1117 H 0.79067 0.59136 0.56092 0.0
H1118 H 0.78086 0.59754 0.52829 0.0
H1119 H 0.78202 0.56906 0.50075 0.0
H1120 H 0.74408 0.4889 0.4157 0.0
H1121 H 0.7556 0.51296 0.44693 0.0
C1122 C 0.30892 0.5931 0.71644 0.0
C1123 C 0.27141 0.57091 0.71629 0.0
C1124 C 0.32649 0.62049 0.72992 0.0
C1125 C 0.31162 0.67324 0.76688 0.0
H1126 H 0.40325 0.69075 0.78417 0.0
C1127 C 0.38867 0.76552 0.83038 0.0
C1128 C 0.4235 0.79447 0.82595 0.0
C1129 C 0.36897 0.73668 0.81776 0.0
C1130 C 0.37766 0.68605 0.77946 0.0
H1131 H 0.2227 0.55983 0.73003 0.0
H1132 H 0.25328 0.60663 0.75402 0.0
H1133 H 0.37065 0.64394 0.76048 0.0
H1134 H 0.4655 0.81544 0.80524 0.0
H1135 H 0.43152 0.76442 0.78353 0.0
H1136 H 0.31861 0.71492 0.78643 0.0
C1137 C 0.26928 0.60391 0.74342 0.0
C1138 C 0.35907 0.65952 0.76574 0.0
C1139 C 0.25168 0.57702 0.72967 0.0
C1140 C 0.43867 0.79351 0.80898 0.0
C1141 C 0.41933 0.76432 0.7966 0.0
C1142 C 0.32997 0.69932 0.78087 0.0
C1143 C 0.30699 0.62572 0.74387 0.0
C1144 C 0.32605 0.65314 0.75902 0.0
C1145 C 0.38417 0.73594 0.80076 0.0
C1146 C 0.36335 0.70628 0.78707 0.0
H1147 H 0.32472 0.58904 0.7062 0.0
H1148 H 0.35546 0.63736 0.72943 0.0
H1149 H 0.28655 0.66955 0.76195 0.0
H1150 H 0.37632 0.76573 0.84333 0.0
H1151 H 0.34191 0.71496 0.82126 0.0
loop_
_geom_bond_atom_site_label_1
_geom_bond_atom_site_label_2
_geom_bond_distance
_geom_bond_site_symmetry_2
_ccdc_geom_bond_type
Mn0 O5 2.095 . S
Mn0 O15 2.162 . S
Mn0 O16 2.297 . S
Mn0 O24 2.385 . S
Mn0 O25 2.209 . S
Mn0 O26 2.094 . S
Mn1 O6 2.121 . S
Mn1 N8 2.257 . S
Mn1 N17 2.282 . S
Mn1 O25 2.215 . S
Mn1 O27 2.117 . S
C2 O24 1.234 . S
C2 O25 1.283 . S
C3 O15 1.281 . S
C3 O16 1.236 . S
C4 O26 1.240 . S
C4 O27 1.264 . S
O5 Mn0 2.095 . S
O5 C14 1.250 . S
O6 Mn1 2.121 . S
O6 C14 1.258 . S
C7 N8 1.326 . S
C7 C11 1.460 . S
C7 H13 0.929 . S
N8 Mn1 2.257 . S
N8 C7 1.326 . S
N8 C12 1.362 . S
C9 C10 1.258 . S
C9 C12 1.431 . S
C9 C29 1.449 . S
C10 C9 1.258 . S
C10 C11 1.477 . S
C10 H30 0.931 . S
C11 C7 1.460 . S
C11 C10 1.477 . S
C11 H31 0.930 . S
C12 N8 1.362 . S
C12 C9 1.431 . S
C12 C22 1.476 . S
H13 C7 0.929 . S
C14 O5 1.250 . S
C14 O6 1.258 . S
O15 Mn0 2.162 . S
O15 C3 1.281 . S
O16 Mn0 2.297 . S
O16 C3 1.236 . S
N17 Mn1 2.282 . S
N17 C18 1.328 . S
N17 C22 1.318 . S
C18 N17 1.328 . S
C18 C19 1.457 1_545 S
C18 H23 0.929 . S
C19 C18 1.457 1_565 S
C19 C20 1.291 . S
C19 H32 0.931 . S
C20 C19 1.291 . S
C20 C21 1.373 1_565 S
C20 H33 0.929 . S
C21 C20 1.373 1_545 S
C21 C22 1.396 . S
C21 C28 1.403 . S
C22 C12 1.476 . S
C22 N17 1.318 . S
C22 C21 1.396 . S
H23 C18 0.929 . S
O24 Mn0 2.385 . S
O24 C2 1.234 . S
O25 Mn0 2.209 . S
O25 Mn1 2.215 . S
O25 C2 1.283 . S
O26 Mn0 2.094 . S
O26 C4 1.240 . S
O27 Mn1 2.117 . S
O27 C4 1.264 . S
C28 C21 1.403 . S
C28 C29 1.399 . S
C28 H34 0.929 1_545 S
C29 C9 1.449 . S
C29 C28 1.399 . S
C29 H35 0.930 . S
H30 C10 0.931 . S
H31 C11 0.930 . S
H32 C19 0.931 . S
H33 C20 0.929 . S
H34 C28 0.929 1_565 S
H35 C29 0.930 . S
Mn36 O41 2.095 . S
Mn36 O51 2.162 . S
Mn36 O52 2.297 . S
Mn36 O60 2.385 . S
Mn36 O61 2.209 . S
Mn36 O62 2.094 . S
Mn37 O42 2.121 . S
Mn37 N44 2.257 . S
Mn37 N53 2.282 . S
Mn37 O61 2.215 . S
Mn37 O63 2.117 . S
C38 O60 1.234 . S
C38 O61 1.283 . S
C39 O51 1.281 . S
C39 O52 1.236 . S
C40 O62 1.240 . S
C40 O63 1.264 . S
O41 Mn36 2.095 . S
O41 C50 1.250 . S
O42 Mn37 2.121 . S
O42 C50 1.258 . S
C43 N44 1.326 . S
C43 C47 1.460 . S
C43 H49 0.929 . S
N44 Mn37 2.257 . S
N44 C43 1.326 . S
N44 C48 1.362 . S
C45 C46 1.258 . S
C45 C48 1.431 . S
C45 C65 1.449 . S
C46 C45 1.258 . S
C46 C47 1.477 . S
C46 H66 0.931 . S
C47 C43 1.460 . S
C47 C46 1.477 . S
C47 H67 0.930 . S
C48 N44 1.362 . S
C48 C45 1.431 . S
C48 C58 1.476 . S
H49 C43 0.929 . S
C50 O41 1.250 . S
C50 O42 1.258 . S
O51 Mn36 2.162 . S
O51 C39 1.281 . S
O52 Mn36 2.297 . S
O52 C39 1.236 . S
N53 Mn37 2.282 . S
N53 C54 1.328 . S
N53 C58 1.318 . S
C54 N53 1.328 . S
C54 C55 1.457 . S
C54 H59 0.929 . S
C55 C54 1.457 . S
C55 C56 1.291 . S
C55 H68 0.931 . S
C56 C55 1.291 . S
C56 C57 1.373 . S
C56 H69 0.929 . S
C57 C56 1.373 . S
C57 C58 1.396 . S
C57 C64 1.403 . S
C58 C48 1.476 . S
C58 N53 1.318 . S
C58 C57 1.396 . S
H59 C54 0.929 . S
O60 Mn36 2.385 . S
O60 C38 1.234 . S
O61 Mn36 2.209 . S
O61 Mn37 2.215 . S
O61 C38 1.283 . S
O62 Mn36 2.094 . S
O62 C40 1.240 . S
O63 Mn37 2.117 . S
O63 C40 1.264 . S
C64 C57 1.403 . S
C64 C65 1.399 . S
C64 H70 0.929 . S
C65 C45 1.449 . S
C65 C64 1.399 . S
C65 H71 0.930 . S
H66 C46 0.931 . S
H67 C47 0.930 . S
H68 C55 0.931 . S
H69 C56 0.929 . S
H70 C64 0.929 . S
H71 C65 0.930 . S
Mn72 O77 2.095 . S
Mn72 O87 2.162 . S
Mn72 O88 2.297 . S
Mn72 O96 2.385 . S
Mn72 O97 2.209 . S
Mn72 O98 2.094 . S
Mn73 O78 2.121 . S
Mn73 N80 2.257 . S
Mn73 N89 2.282 . S
Mn73 O97 2.215 . S
Mn73 O99 2.117 . S
C74 O96 1.234 . S
C74 O97 1.283 . S
C75 O87 1.281 . S
C75 O88 1.236 . S
C76 O98 1.240 . S
C76 O99 1.264 . S
O77 Mn72 2.095 . S
O77 C86 1.250 . S
O78 Mn73 2.121 . S
O78 C86 1.258 . S
C79 N80 1.326 . S
C79 C83 1.460 . S
C79 H85 0.929 . S
N80 Mn73 2.257 . S
N80 C79 1.326 . S
N80 C84 1.362 . S
C81 C82 1.258 . S
C81 C84 1.431 . S
C81 C101 1.449 . S
C82 C81 1.258 . S
C82 C83 1.477 . S
C82 H102 0.931 . S
C83 C79 1.460 . S
C83 C82 1.477 . S
C83 H103 0.930 . S
C84 N80 1.362 . S
C84 C81 1.431 . S
C84 C94 1.476 . S
H85 C79 0.929 . S
C86 O77 1.250 . S
C86 O78 1.258 . S
O87 Mn72 2.162 . S
O87 C75 1.281 . S
O88 Mn72 2.297 . S
O88 C75 1.236 . S
N89 Mn73 2.282 . S
N89 C90 1.328 . S
N89 C94 1.318 . S
C90 N89 1.328 . S
C90 C91 1.457 . S
C90 H95 0.929 . S
C91 C90 1.457 . S
C91 C92 1.291 . S
C91 H104 0.931 . S
C92 C91 1.291 . S
C92 C93 1.373 . S
C92 H105 0.929 . S
C93 C92 1.373 . S
C93 C94 1.396 . S
C93 C100 1.403 . S
C94 C84 1.476 . S
C94 N89 1.318 . S
C94 C93 1.396 . S
H95 C90 0.929 . S
O96 Mn72 2.385 . S
O96 C74 1.234 . S
O97 Mn72 2.209 . S
O97 Mn73 2.215 . S
O97 C74 1.283 . S
O98 Mn72 2.094 . S
O98 C76 1.240 . S
O99 Mn73 2.117 . S
O99 C76 1.264 . S
C100 C93 1.403 . S
C100 C101 1.399 . S
C100 H106 0.929 . S
C101 C81 1.449 . S
C101 C100 1.399 . S
C101 H107 0.930 . S
H102 C82 0.931 . S
H103 C83 0.930 . S
H104 C91 0.931 . S
H105 C92 0.929 . S
H106 C100 0.929 . S
H107 C101 0.930 . S
Mn108 O113 2.095 . S
Mn108 O123 2.162 . S
Mn108 O124 2.297 . S
Mn108 O132 2.385 . S
Mn108 O133 2.209 . S
Mn108 O134 2.094 . S
Mn109 O114 2.121 . S
Mn109 N116 2.257 . S
Mn109 N125 2.282 . S
Mn109 O133 2.215 . S
Mn109 O135 2.117 . S
C110 O132 1.234 . S
C110 O133 1.283 . S
C111 O123 1.281 . S
C111 O124 1.236 . S
C112 O134 1.240 . S
C112 O135 1.264 . S
O113 Mn108 2.095 . S
O113 C122 1.250 . S
O114 Mn109 2.121 . S
O114 C122 1.258 . S
C115 N116 1.326 . S
C115 C119 1.460 . S
C115 H121 0.929 . S
N116 Mn109 2.257 . S
N116 C115 1.326 . S
N116 C120 1.362 . S
C117 C118 1.258 . S
C117 C120 1.431 . S
C117 C137 1.449 . S
C118 C117 1.258 . S
C118 C119 1.477 . S
C118 H138 0.931 . S
C119 C115 1.460 . S
C119 C118 1.477 . S
C119 H139 0.930 . S
C120 N116 1.362 . S
C120 C117 1.431 . S
C120 C130 1.476 . S
H121 C115 0.929 . S
C122 O113 1.250 . S
C122 O114 1.258 . S
O123 Mn108 2.162 . S
O123 C111 1.281 . S
O124 Mn108 2.297 . S
O124 C111 1.236 . S
N125 Mn109 2.282 . S
N125 C126 1.328 . S
N125 C130 1.318 . S
C126 N125 1.328 . S
C126 C127 1.457 1_565 S
C126 H131 0.929 . S
C127 C126 1.457 1_545 S
C127 C128 1.291 . S
C127 H140 0.931 . S
C128 C127 1.291 . S
C128 C129 1.373 1_545 S
C128 H141 0.929 . S
C129 C128 1.373 1_565 S
C129 C130 1.396 . S
C129 C136 1.403 . S
C130 C120 1.476 . S
C130 N125 1.318 . S
C130 C129 1.396 . S
H131 C126 0.929 . S
O132 Mn108 2.385 . S
O132 C110 1.234 . S
O133 Mn108 2.209 . S
O133 Mn109 2.215 . S
O133 C110 1.283 . S
O134 Mn108 2.094 . S
O134 C112 1.240 . S
O135 Mn109 2.117 . S
O135 C112 1.264 . S
C136 C129 1.403 . S
C136 C137 1.399 . S
C136 H142 0.929 1_565 S
C137 C117 1.449 . S
C137 C136 1.399 . S
C137 H143 0.930 . S
H138 C118 0.931 . S
H139 C119 0.930 . S
H140 C127 0.931 . S
H141 C128 0.929 . S
H142 C136 0.929 1_545 S
H143 C137 0.930 . S
Mn144 O149 2.095 . S
Mn144 O159 2.162 . S
Mn144 O160 2.297 . S
Mn144 O168 2.385 . S
Mn144 O169 2.209 . S
Mn144 O170 2.094 . S
Mn145 O150 2.121 . S
Mn145 N152 2.257 . S
Mn145 N161 2.282 . S
Mn145 O169 2.215 . S
Mn145 O171 2.117 . S
C146 O168 1.234 . S
C146 O169 1.283 . S
C147 O159 1.281 . S
C147 O160 1.236 . S
C148 O170 1.240 . S
C148 O171 1.264 . S
O149 Mn144 2.095 . S
O149 C158 1.250 . S
O150 Mn145 2.121 . S
O150 C158 1.258 . S
C151 N152 1.326 . S
C151 C155 1.460 . S
C151 H157 0.929 . S
N152 Mn145 2.257 . S
N152 C151 1.326 . S
N152 C156 1.362 . S
C153 C154 1.258 . S
C153 C156 1.431 . S
C153 C173 1.449 . S
C154 C153 1.258 . S
C154 C155 1.477 . S
C154 H174 0.931 . S
C155 C151 1.460 . S
C155 C154 1.477 . S
C155 H175 0.930 . S
C156 N152 1.362 . S
C156 C153 1.431 . S
C156 C166 1.476 . S
H157 C151 0.929 . S
C158 O149 1.250 . S
C158 O150 1.258 . S
O159 Mn144 2.162 . S
O159 C147 1.281 . S
O160 Mn144 2.297 . S
O160 C147 1.236 . S
N161 Mn145 2.282 . S
N161 C162 1.328 . S
N161 C166 1.318 . S
C162 N161 1.328 . S
C162 C163 1.457 . S
C162 H167 0.929 . S
C163 C162 1.457 . S
C163 C164 1.291 . S
C163 H176 0.931 . S
C164 C163 1.291 . S
C164 C165 1.373 . S
C164 H177 0.929 . S
C165 C164 1.373 . S
C165 C166 1.396 . S
C165 C172 1.403 . S
C166 C156 1.476 . S
C166 N161 1.318 . S
C166 C165 1.396 . S
H167 C162 0.929 . S
O168 Mn144 2.385 . S
O168 C146 1.234 . S
O169 Mn144 2.209 . S
O169 Mn145 2.215 . S
O169 C146 1.283 . S
O170 Mn144 2.094 . S
O170 C148 1.240 . S
O171 Mn145 2.117 . S
O171 C148 1.264 . S
C172 C165 1.403 . S
C172 C173 1.399 . S
C172 H178 0.929 . S
C173 C153 1.449 . S
C173 C172 1.399 . S
C173 H179 0.930 . S
H174 C154 0.931 . S
H175 C155 0.930 . S
H176 C163 0.931 . S
H177 C164 0.929 . S
H178 C172 0.929 . S
H179 C173 0.930 . S
Mn180 O185 2.095 . S
Mn180 O195 2.162 . S
Mn180 O196 2.297 . S
Mn180 O204 2.385 . S
Mn180 O205 2.209 . S
Mn180 O206 2.094 . S
Mn181 O186 2.121 . S
Mn181 N188 2.257 . S
Mn181 N197 2.282 . S
Mn181 O205 2.215 . S
Mn181 O207 2.117 . S
C182 O204 1.234 . S
C182 O205 1.283 . S
C183 O195 1.281 . S
C183 O196 1.236 . S
C184 O206 1.240 . S
C184 O207 1.264 . S
O185 Mn180 2.095 . S
O185 C194 1.250 . S
O186 Mn181 2.121 . S
O186 C194 1.258 . S
C187 N188 1.326 . S
C187 C191 1.460 . S
C187 H193 0.929 . S
N188 Mn181 2.257 . S
N188 C187 1.326 . S
N188 C192 1.362 . S
C189 C190 1.258 . S
C189 C192 1.431 . S
C189 C209 1.449 . S
C190 C189 1.258 . S
C190 C191 1.477 . S
C190 H210 0.931 . S
C191 C187 1.460 . S
C191 C190 1.477 . S
C191 H211 0.930 . S
C192 N188 1.362 . S
C192 C189 1.431 . S
C192 C202 1.476 . S
H193 C187 0.929 . S
C194 O185 1.250 . S
C194 O186 1.258 . S
O195 Mn180 2.162 . S
O195 C183 1.281 . S
O196 Mn180 2.297 . S
O196 C183 1.236 . S
N197 Mn181 2.282 . S
N197 C198 1.328 . S
N197 C202 1.318 . S
C198 N197 1.328 . S
C198 C199 1.457 . S
C198 H203 0.929 . S
C199 C198 1.457 . S
C199 C200 1.291 . S
C199 H212 0.931 . S
C200 C199 1.291 . S
C200 C201 1.373 . S
C200 H213 0.929 . S
C201 C200 1.373 . S
C201 C202 1.396 . S
C201 C208 1.403 . S
C202 C192 1.476 . S
C202 N197 1.318 . S
C202 C201 1.396 . S
H203 C198 0.929 . S
O204 Mn180 2.385 . S
O204 C182 1.234 . S
O205 Mn180 2.209 . S
O205 Mn181 2.215 . S
O205 C182 1.283 . S
O206 Mn180 2.094 . S
O206 C184 1.240 . S
O207 Mn181 2.117 . S
O207 C184 1.264 . S
C208 C201 1.403 . S
C208 C209 1.399 . S
C208 H214 0.929 . S
C209 C189 1.449 . S
C209 C208 1.399 . S
C209 H215 0.930 . S
H210 C190 0.931 . S
H211 C191 0.930 . S
H212 C199 0.931 . S
H213 C200 0.929 . S
H214 C208 0.929 . S
H215 C209 0.930 . S
Mn216 O221 2.095 . S
Mn216 O231 2.162 . S
Mn216 O232 2.297 . S
Mn216 O240 2.385 . S
Mn216 O241 2.209 . S
Mn216 O242 2.094 . S
Mn217 O222 2.121 . S
Mn217 N224 2.257 . S
Mn217 N233 2.282 . S
Mn217 O241 2.215 . S
Mn217 O243 2.117 . S
C218 O240 1.234 . S
C218 O241 1.283 . S
C219 O231 1.281 . S
C219 O232 1.236 . S
C220 O242 1.240 . S
C220 O243 1.264 . S
O221 Mn216 2.095 . S
O221 C230 1.250 . S
O222 Mn217 2.121 . S
O222 C230 1.258 . S
C223 N224 1.326 . S
C223 C227 1.460 . S
C223 H229 0.929 . S
N224 Mn217 2.257 . S
N224 C223 1.326 . S
N224 C228 1.362 . S
C225 C226 1.258 . S
C225 C228 1.431 . S
C225 C245 1.449 . S
C226 C225 1.258 . S
C226 C227 1.477 . S
C226 H246 0.931 . S
C227 C223 1.460 . S
C227 C226 1.477 . S
C227 H247 0.930 . S
C228 N224 1.362 . S
C228 C225 1.431 . S
C228 C238 1.476 . S
H229 C223 0.929 . S
C230 O221 1.250 . S
C230 O222 1.258 . S
O231 Mn216 2.162 . S
O231 C219 1.281 . S
O232 Mn216 2.297 . S
O232 C219 1.236 . S
N233 Mn217 2.282 . S
N233 C234 1.328 . S
N233 C238 1.318 . S
C234 N233 1.328 . S
C234 C235 1.457 . S
C234 H239 0.929 . S
C235 C234 1.457 . S
C235 C236 1.291 . S
C235 H248 0.931 . S
C236 C235 1.291 . S
C236 C237 1.373 . S
C236 H249 0.929 . S
C237 C236 1.373 . S
C237 C238 1.396 . S
C237 C244 1.403 . S
C238 C228 1.476 . S
C238 N233 1.318 . S
C238 C237 1.396 . S
H239 C234 0.929 . S
O240 Mn216 2.385 . S
O240 C218 1.234 . S
O241 Mn216 2.209 . S
O241 Mn217 2.215 . S
O241 C218 1.283 . S
O242 Mn216 2.094 . S
O242 C220 1.240 . S
O243 Mn217 2.117 . S
O243 C220 1.264 . S
C244 C237 1.403 . S
C244 C245 1.399 . S
C244 H250 0.929 . S
C245 C225 1.449 . S
C245 C244 1.399 . S
C245 H251 0.930 . S
H246 C226 0.931 . S
H247 C227 0.930 . S
H248 C235 0.931 . S
H249 C236 0.929 . S
H250 C244 0.929 . S
H251 C245 0.930 . S
Mn252 O257 2.095 . S
Mn252 O267 2.162 . S
Mn252 O268 2.297 . S
Mn252 O276 2.385 . S
Mn252 O277 2.209 . S
Mn252 O278 2.094 . S
Mn253 O258 2.121 . S
Mn253 N260 2.257 . S
Mn253 N269 2.282 . S
Mn253 O277 2.215 . S
Mn253 O279 2.117 . S
C254 O276 1.234 . S
C254 O277 1.283 . S
C255 O267 1.281 . S
C255 O268 1.236 . S
C256 O278 1.240 . S
C256 O279 1.264 . S
O257 Mn252 2.095 . S
O257 C266 1.250 . S
O258 Mn253 2.121 . S
O258 C266 1.258 . S
C259 N260 1.326 . S
C259 C263 1.460 . S
C259 H265 0.929 . S
N260 Mn253 2.257 . S
N260 C259 1.326 . S
N260 C264 1.362 . S
C261 C262 1.258 . S
C261 C264 1.431 . S
C261 C281 1.449 . S
C262 C261 1.258 . S
C262 C263 1.477 . S
C262 H282 0.931 . S
C263 C259 1.460 . S
C263 C262 1.477 . S
C263 H283 0.930 . S
C264 N260 1.362 . S
C264 C261 1.431 . S
C264 C274 1.476 . S
H265 C259 0.929 . S
C266 O257 1.250 . S
C266 O258 1.258 . S
O267 Mn252 2.162 . S
O267 C255 1.281 . S
O268 Mn252 2.297 . S
O268 C255 1.236 . S
N269 Mn253 2.282 . S
N269 C270 1.328 . S
N269 C274 1.318 . S
C270 N269 1.328 . S
C270 C271 1.457 1_565 S
C270 H275 0.929 . S
C271 C270 1.457 1_545 S
C271 C272 1.291 . S
C271 H284 0.931 . S
C272 C271 1.291 . S
C272 C273 1.373 1_545 S
C272 H285 0.929 . S
C273 C272 1.373 1_565 S
C273 C274 1.396 . S
C273 C280 1.403 . S
C274 C264 1.476 . S
C274 N269 1.318 . S
C274 C273 1.396 . S
H275 C270 0.929 . S
O276 Mn252 2.385 . S
O276 C254 1.234 . S
O277 Mn252 2.209 . S
O277 Mn253 2.215 . S
O277 C254 1.283 . S
O278 Mn252 2.094 . S
O278 C256 1.240 . S
O279 Mn253 2.117 . S
O279 C256 1.264 . S
C280 C273 1.403 . S
C280 C281 1.399 . S
C280 H286 0.929 1_565 S
C281 C261 1.449 . S
C281 C280 1.399 . S
C281 H287 0.930 . S
H282 C262 0.931 . S
H283 C263 0.930 . S
H284 C271 0.931 . S
H285 C272 0.929 . S
H286 C280 0.929 1_545 S
H287 C281 0.930 . S
Mn288 O293 2.095 . S
Mn288 O303 2.162 . S
Mn288 O304 2.297 . S
Mn288 O312 2.385 . S
Mn288 O313 2.209 . S
Mn288 O314 2.094 . S
Mn289 O294 2.121 . S
Mn289 N296 2.257 . S
Mn289 N305 2.282 . S
Mn289 O313 2.215 . S
Mn289 O315 2.117 . S
C290 O312 1.234 . S
C290 O313 1.283 . S
C291 O303 1.281 . S
C291 O304 1.236 . S
C292 O314 1.240 . S
C292 O315 1.264 . S
O293 Mn288 2.095 . S
O293 C302 1.250 . S
O294 Mn289 2.121 . S
O294 C302 1.258 . S
C295 N296 1.326 . S
C295 C299 1.460 . S
C295 H301 0.929 . S
N296 Mn289 2.257 . S
N296 C295 1.326 . S
N296 C300 1.362 . S
C297 C298 1.258 . S
C297 C300 1.431 . S
C297 C317 1.449 . S
C298 C297 1.258 . S
C298 C299 1.477 . S
C298 H318 0.931 . S
C299 C295 1.460 . S
C299 C298 1.477 . S
C299 H319 0.930 . S
C300 N296 1.362 . S
C300 C297 1.431 . S
C300 C310 1.476 . S
H301 C295 0.929 . S
C302 O293 1.250 . S
C302 O294 1.258 . S
O303 Mn288 2.162 . S
O303 C291 1.281 . S
O304 Mn288 2.297 . S
O304 C291 1.236 . S
N305 Mn289 2.282 . S
N305 C306 1.328 . S
N305 C310 1.318 . S
C306 N305 1.328 . S
C306 C307 1.457 . S
C306 H311 0.929 . S
C307 C306 1.457 . S
C307 C308 1.291 . S
C307 H320 0.931 . S
C308 C307 1.291 . S
C308 C309 1.373 . S
C308 H321 0.929 . S
C309 C308 1.373 . S
C309 C310 1.396 . S
C309 C316 1.403 . S
C310 C300 1.476 . S
C310 N305 1.318 . S
C310 C309 1.396 . S
H311 C306 0.929 . S
O312 Mn288 2.385 . S
O312 C290 1.234 . S
O313 Mn288 2.209 . S
O313 Mn289 2.215 . S
O313 C290 1.283 . S
O314 Mn288 2.094 . S
O314 C292 1.240 . S
O315 Mn289 2.117 . S
O315 C292 1.264 . S
C316 C309 1.403 . S
C316 C317 1.399 . S
C316 H322 0.929 . S
C317 C297 1.449 . S
C317 C316 1.399 . S
C317 H323 0.930 . S
H318 C298 0.931 . S
H319 C299 0.930 . S
H320 C307 0.931 . S
H321 C308 0.929 . S
H322 C316 0.929 . S
H323 C317 0.930 . S
Mn324 O329 2.095 . S
Mn324 O339 2.162 . S
Mn324 O340 2.297 . S
Mn324 O348 2.385 . S
Mn324 O349 2.209 . S
Mn324 O350 2.094 . S
Mn325 O330 2.121 . S
Mn325 N332 2.257 . S
Mn325 N341 2.282 . S
Mn325 O349 2.215 . S
Mn325 O351 2.117 . S
C326 O348 1.234 . S
C326 O349 1.283 . S
C327 O339 1.281 . S
C327 O340 1.236 . S
C328 O350 1.240 . S
C328 O351 1.264 . S
O329 Mn324 2.095 . S
O329 C338 1.250 . S
O330 Mn325 2.121 . S
O330 C338 1.258 . S
C331 N332 1.326 . S
C331 C335 1.460 . S
C331 H337 0.929 . S
N332 Mn325 2.257 . S
N332 C331 1.326 . S
N332 C336 1.362 . S
C333 C334 1.258 . S
C333 C336 1.431 . S
C333 C353 1.449 . S
C334 C333 1.258 . S
C334 C335 1.477 . S
C334 H354 0.931 . S
C335 C331 1.460 . S
C335 C334 1.477 . S
C335 H355 0.930 . S
C336 N332 1.362 . S
C336 C333 1.431 . S
C336 C346 1.476 . S
H337 C331 0.929 . S
C338 O329 1.250 . S
C338 O330 1.258 . S
O339 Mn324 2.162 . S
O339 C327 1.281 . S
O340 Mn324 2.297 . S
O340 C327 1.236 . S
N341 Mn325 2.282 . S
N341 C342 1.328 . S
N341 C346 1.318 . S
C342 N341 1.328 . S
C342 C343 1.457 . S
C342 H347 0.929 . S
C343 C342 1.457 . S
C343 C344 1.291 . S
C343 H356 0.931 . S
C344 C343 1.291 . S
C344 C345 1.373 . S
C344 H357 0.929 . S
C345 C344 1.373 . S
C345 C346 1.396 . S
C345 C352 1.403 . S
C346 C336 1.476 . S
C346 N341 1.318 . S
C346 C345 1.396 . S
H347 C342 0.929 . S
O348 Mn324 2.385 . S
O348 C326 1.234 . S
O349 Mn324 2.209 . S
O349 Mn325 2.215 . S
O349 C326 1.283 . S
O350 Mn324 2.094 . S
O350 C328 1.240 . S
O351 Mn325 2.117 . S
O351 C328 1.264 . S
C352 C345 1.403 . S
C352 C353 1.399 . S
C352 H358 0.929 . S
C353 C333 1.449 . S
C353 C352 1.399 . S
C353 H359 0.930 . S
H354 C334 0.931 . S
H355 C335 0.930 . S
H356 C343 0.931 . S
H357 C344 0.929 . S
H358 C352 0.929 . S
H359 C353 0.930 . S
Mn360 O365 2.095 . S
Mn360 O375 2.162 . S
Mn360 O376 2.297 . S
Mn360 O384 2.385 . S
Mn360 O385 2.209 . S
Mn360 O386 2.094 . S
Mn361 O366 2.121 . S
Mn361 N368 2.257 . S
Mn361 N377 2.282 . S
Mn361 O385 2.215 . S
Mn361 O387 2.117 . S
C362 O384 1.234 . S
C362 O385 1.283 . S
C363 O375 1.281 . S
C363 O376 1.236 . S
C364 O386 1.240 . S
C364 O387 1.264 . S
O365 Mn360 2.095 . S
O365 C374 1.250 . S
O366 Mn361 2.121 . S
O366 C374 1.258 . S
C367 N368 1.326 . S
C367 C371 1.460 . S
C367 H373 0.929 . S
N368 Mn361 2.257 . S
N368 C367 1.326 . S
N368 C372 1.362 . S
C369 C370 1.258 . S
C369 C372 1.431 . S
C369 C389 1.449 . S
C370 C369 1.258 . S
C370 C371 1.477 . S
C370 H390 0.931 . S
C371 C367 1.460 . S
C371 C370 1.477 . S
C371 H391 0.930 . S
C372 N368 1.362 . S
C372 C369 1.431 . S
C372 C382 1.476 . S
H373 C367 0.929 . S
C374 O365 1.250 . S
C374 O366 1.258 . S
O375 Mn360 2.162 . S
O375 C363 1.281 . S
O376 Mn360 2.297 . S
O376 C363 1.236 . S
N377 Mn361 2.282 . S
N377 C378 1.328 . S
N377 C382 1.318 . S
C378 N377 1.328 . S
C378 C379 1.457 1_545 S
C378 H383 0.929 . S
C379 C378 1.457 1_565 S
C379 C380 1.291 . S
C379 H392 0.931 . S
C380 C379 1.291 . S
C380 C381 1.373 1_565 S
C380 H393 0.929 . S
C381 C380 1.373 1_545 S
C381 C382 1.396 . S
C381 C388 1.403 . S
C382 C372 1.476 . S
C382 N377 1.318 . S
C382 C381 1.396 . S
H383 C378 0.929 . S
O384 Mn360 2.385 . S
O384 C362 1.234 . S
O385 Mn360 2.209 . S
O385 Mn361 2.215 . S
O385 C362 1.283 . S
O386 Mn360 2.094 . S
O386 C364 1.240 . S
O387 Mn361 2.117 . S
O387 C364 1.264 . S
C388 C381 1.403 . S
C388 C389 1.399 . S
C388 H394 0.929 1_545 S
C389 C369 1.449 . S
C389 C388 1.399 . S
C389 H395 0.930 . S
H390 C370 0.931 . S
H391 C371 0.930 . S
H392 C379 0.931 . S
H393 C380 0.929 . S
H394 C388 0.929 1_565 S
H395 C389 0.930 . S
Mn396 O401 2.095 . S
Mn396 O411 2.162 . S
Mn396 O412 2.297 . S
Mn396 O420 2.385 . S
Mn396 O421 2.209 . S
Mn396 O422 2.094 . S
Mn397 O402 2.121 . S
Mn397 N404 2.257 . S
Mn397 N413 2.282 . S
Mn397 O421 2.215 . S
Mn397 O423 2.117 . S
C398 O420 1.234 . S
C398 O421 1.283 . S
C399 O411 1.281 . S
C399 O412 1.236 . S
C400 O422 1.240 . S
C400 O423 1.264 . S
O401 Mn396 2.095 . S
O401 C410 1.250 . S
O402 Mn397 2.121 . S
O402 C410 1.258 . S
C403 N404 1.326 . S
C403 C407 1.460 . S
C403 H409 0.929 . S
N404 Mn397 2.257 . S
N404 C403 1.326 . S
N404 C408 1.362 . S
C405 C406 1.258 . S
C405 C408 1.431 . S
C405 C425 1.449 . S
C406 C405 1.258 . S
C406 C407 1.477 . S
C406 H426 0.931 . S
C407 C403 1.460 . S
C407 C406 1.477 . S
C407 H427 0.930 . S
C408 N404 1.362 . S
C408 C405 1.431 . S
C408 C418 1.476 . S
H409 C403 0.929 . S
C410 O401 1.250 . S
C410 O402 1.258 . S
O411 Mn396 2.162 . S
O411 C399 1.281 . S
O412 Mn396 2.297 . S
O412 C399 1.236 . S
N413 Mn397 2.282 . S
N413 C414 1.328 . S
N413 C418 1.318 . S
C414 N413 1.328 . S
C414 C415 1.457 . S
C414 H419 0.929 . S
C415 C414 1.457 . S
C415 C416 1.291 . S
C415 H428 0.931 . S
C416 C415 1.291 . S
C416 C417 1.373 . S
C416 H429 0.929 . S
C417 C416 1.373 . S
C417 C418 1.396 . S
C417 C424 1.403 . S
C418 C408 1.476 . S
C418 N413 1.318 . S
C418 C417 1.396 . S
H419 C414 0.929 . S
O420 Mn396 2.385 . S
O420 C398 1.234 . S
O421 Mn396 2.209 . S
O421 Mn397 2.215 . S
O421 C398 1.283 . S
O422 Mn396 2.094 . S
O422 C400 1.240 . S
O423 Mn397 2.117 . S
O423 C400 1.264 . S
C424 C417 1.403 . S
C424 C425 1.399 . S
C424 H430 0.929 . S
C425 C405 1.449 . S
C425 C424 1.399 . S
C425 H431 0.930 . S
H426 C406 0.931 . S
H427 C407 0.930 . S
H428 C415 0.931 . S
H429 C416 0.929 . S
H430 C424 0.929 . S
H431 C425 0.930 . S
C432 C433 1.349 . S
C432 C434 1.327 . S
C432 H457 0.950 . S
C433 C432 1.349 . S
C433 C449 1.349 . S
C434 C432 1.327 . S
C434 C453 1.429 . S
C434 H458 0.950 . S
C435 C452 1.574 . S
C435 C454 1.368 1_556 S
C435 H459 0.949 . S
H436 C440 0.949 . S
C437 C438 1.349 . S
C437 C439 1.327 . S
C437 H460 0.950 . S
C438 C437 1.349 . S
C438 C450 1.349 . S
C439 C437 1.327 . S
C439 C455 1.429 . S
C439 H461 0.950 . S
C440 H436 0.949 . S
C440 C448 1.574 . S
C440 C456 1.368 1_554 S
H441 C449 0.950 . S
H442 C447 0.950 . S
H443 C448 0.949 . S
H444 C450 0.950 . S
H445 C451 0.950 . S
H446 C452 0.949 . S
C447 H442 0.950 . S
C447 C449 1.327 . S
C447 C453 1.429 . S
C448 C440 1.574 . S
C448 H443 0.949 . S
C448 C454 1.368 . S
C449 C433 1.349 . S
C449 H441 0.950 . S
C449 C447 1.327 . S
C450 C438 1.349 . S
C450 H444 0.950 . S
C450 C451 1.327 . S
C451 H445 0.950 . S
C451 C450 1.327 . S
C451 C455 1.429 . S
C452 C435 1.574 . S
C452 H446 0.949 . S
C452 C456 1.368 . S
C453 C434 1.429 . S
C453 C447 1.429 . S
C453 C454 1.523 . S
C454 C435 1.368 1_554 S
C454 C448 1.368 . S
C454 C453 1.523 . S
C455 C439 1.429 . S
C455 C451 1.429 . S
C455 C456 1.523 . S
C456 C440 1.368 1_556 S
C456 C452 1.368 . S
C456 C455 1.523 . S
H457 C432 0.950 . S
H458 C434 0.950 . S
H459 C435 0.949 . S
H460 C437 0.950 . S
H461 C439 0.950 . S
C462 C463 1.349 . S
C462 C464 1.327 . S
C462 H487 0.950 . S
C463 C462 1.349 . S
C463 C479 1.349 . S
C464 C462 1.327 . S
C464 C483 1.429 . S
C464 H488 0.950 . S
C465 C482 1.574 . S
C465 C484 1.368 . S
C465 H489 0.949 . S
H466 C470 0.949 . S
C467 C468 1.349 . S
C467 C469 1.327 . S
C467 H490 0.950 . S
C468 C467 1.349 . S
C468 C480 1.349 . S
C469 C467 1.327 . S
C469 C485 1.429 . S
C469 H491 0.950 . S
C470 H466 0.949 . S
C470 C478 1.574 . S
C470 C486 1.368 . S
H471 C479 0.950 . S
H472 C477 0.950 . S
H473 C478 0.949 . S
H474 C480 0.950 . S
H475 C481 0.950 . S
H476 C482 0.949 . S
C477 H472 0.950 . S
C477 C479 1.327 . S
C477 C483 1.429 . S
C478 C470 1.574 . S
C478 H473 0.949 . S
C478 C484 1.368 . S
C479 C463 1.349 . S
C479 H471 0.950 . S
C479 C477 1.327 . S
C480 C468 1.349 . S
C480 H474 0.950 . S
C480 C481 1.327 . S
C481 H475 0.950 . S
C481 C480 1.327 . S
C481 C485 1.429 . S
C482 C465 1.574 . S
C482 H476 0.949 . S
C482 C486 1.368 . S
C483 C464 1.429 . S
C483 C477 1.429 . S
C483 C484 1.523 . S
C484 C465 1.368 . S
C484 C478 1.368 . S
C484 C483 1.523 . S
C485 C469 1.429 . S
C485 C481 1.429 . S
C485 C486 1.523 . S
C486 C470 1.368 . S
C486 C482 1.368 . S
C486 C485 1.523 . S
H487 C462 0.950 . S
H488 C464 0.950 . S
H489 C465 0.949 . S
H490 C467 0.950 . S
H491 C469 0.950 . S
C492 C493 1.349 . S
C492 C494 1.327 . S
C492 H517 0.950 . S
C493 C492 1.349 . S
C493 C509 1.349 . S
C494 C492 1.327 . S
C494 C513 1.429 . S
C494 H518 0.950 . S
C495 C512 1.574 . S
C495 C514 1.368 . S
C495 H519 0.949 . S
H496 C500 0.949 . S
C497 C498 1.349 . S
C497 C499 1.327 . S
C497 H520 0.950 . S
C498 C497 1.349 . S
C498 C510 1.349 . S
C499 C497 1.327 . S
C499 C515 1.429 . S
C499 H521 0.950 . S
C500 H496 0.949 . S
C500 C508 1.574 . S
C500 C516 1.368 . S
H501 C509 0.950 . S
H502 C507 0.950 . S
H503 C508 0.949 . S
H504 C510 0.950 . S
H505 C511 0.950 . S
H506 C512 0.949 . S
C507 H502 0.950 . S
C507 C509 1.327 . S
C507 C513 1.429 . S
C508 C500 1.574 . S
C508 H503 0.949 . S
C508 C514 1.368 . S
C509 C493 1.349 . S
C509 H501 0.950 . S
C509 C507 1.327 . S
C510 C498 1.349 . S
C510 H504 0.950 . S
C510 C511 1.327 . S
C511 H505 0.950 . S
C511 C510 1.327 . S
C511 C515 1.429 . S
C512 C495 1.574 . S
C512 H506 0.949 . S
C512 C516 1.368 . S
C513 C494 1.429 . S
C513 C507 1.429 . S
C513 C514 1.523 . S
C514 C495 1.368 . S
C514 C508 1.368 . S
C514 C513 1.523 . S
C515 C499 1.429 . S
C515 C511 1.429 . S
C515 C516 1.523 . S
C516 C500 1.368 . S
C516 C512 1.368 . S
C516 C515 1.523 . S
H517 C492 0.950 . S
H518 C494 0.950 . S
H519 C495 0.949 . S
H520 C497 0.950 . S
H521 C499 0.950 . S
C522 C523 1.349 . S
C522 C524 1.327 . S
C522 H547 0.950 . S
C523 C522 1.349 . S
C523 C539 1.349 . S
C524 C522 1.327 . S
C524 C543 1.429 . S
C524 H548 0.950 . S
C525 C542 1.574 . S
C525 C544 1.368 1_556 S
C525 H549 0.949 . S
H526 C530 0.949 . S
C527 C528 1.349 . S
C527 C529 1.327 . S
C527 H550 0.950 . S
C528 C527 1.349 . S
C528 C540 1.349 . S
C529 C527 1.327 . S
C529 C545 1.429 . S
C529 H551 0.950 . S
C530 H526 0.949 . S
C530 C538 1.574 . S
C530 C546 1.368 1_554 S
H531 C539 0.950 . S
H532 C537 0.950 . S
H533 C538 0.949 . S
H534 C540 0.950 . S
H535 C541 0.950 . S
H536 C542 0.949 . S
C537 H532 0.950 . S
C537 C539 1.327 . S
C537 C543 1.429 . S
C538 C530 1.574 . S
C538 H533 0.949 . S
C538 C544 1.368 . S
C539 C523 1.349 . S
C539 H531 0.950 . S
C539 C537 1.327 . S
C540 C528 1.349 . S
C540 H534 0.950 . S
C540 C541 1.327 . S
C541 H535 0.950 . S
C541 C540 1.327 . S
C541 C545 1.429 . S
C542 C525 1.574 . S
C542 H536 0.949 . S
C542 C546 1.368 . S
C543 C524 1.429 . S
C543 C537 1.429 . S
C543 C544 1.523 . S
C544 C525 1.368 1_554 S
C544 C538 1.368 . S
C544 C543 1.523 . S
C545 C529 1.429 . S
C545 C541 1.429 . S
C545 C546 1.523 . S
C546 C530 1.368 1_556 S
C546 C542 1.368 . S
C546 C545 1.523 . S
H547 C522 0.950 . S
H548 C524 0.950 . S
H549 C525 0.949 . S
H550 C527 0.950 . S
H551 C529 0.950 . S
C552 C553 1.349 . S
C552 C554 1.327 . S
C552 H577 0.950 . S
C553 C552 1.349 . S
C553 C569 1.349 . S
C554 C552 1.327 . S
C554 C573 1.429 . S
C554 H578 0.950 . S
C555 C572 1.574 . S
C555 C574 1.368 . S
C555 H579 0.949 . S
H556 C560 0.949 . S
C557 C558 1.349 . S
C557 C559 1.327 . S
C557 H580 0.950 . S
C558 C557 1.349 . S
C558 C570 1.349 . S
C559 C557 1.327 . S
C559 C575 1.429 . S
C559 H581 0.950 . S
C560 H556 0.949 . S
C560 C568 1.574 . S
C560 C576 1.368 . S
H561 C569 0.950 . S
H562 C567 0.950 . S
H563 C568 0.949 . S
H564 C570 0.950 . S
H565 C571 0.950 . S
H566 C572 0.949 . S
C567 H562 0.950 . S
C567 C569 1.327 . S
C567 C573 1.429 . S
C568 C560 1.574 . S
C568 H563 0.949 . S
C568 C574 1.368 . S
C569 C553 1.349 . S
C569 H561 0.950 . S
C569 C567 1.327 . S
C570 C558 1.349 . S
C570 H564 0.950 . S
C570 C571 1.327 . S
C571 H565 0.950 . S
C571 C570 1.327 . S
C571 C575 1.429 . S
C572 C555 1.574 . S
C572 H566 0.949 . S
C572 C576 1.368 . S
C573 C554 1.429 . S
C573 C567 1.429 . S
C573 C574 1.523 . S
C574 C555 1.368 . S
C574 C568 1.368 . S
C574 C573 1.523 . S
C575 C559 1.429 . S
C575 C571 1.429 . S
C575 C576 1.523 . S
C576 C560 1.368 . S
C576 C572 1.368 . S
C576 C575 1.523 . S
H577 C552 0.950 . S
H578 C554 0.950 . S
H579 C555 0.949 . S
H580 C557 0.950 . S
H581 C559 0.950 . S
C582 C583 1.349 . S
C582 C584 1.327 . S
C582 H607 0.950 . S
C583 C582 1.349 . S
C583 C599 1.349 . S
C584 C582 1.327 . S
C584 C603 1.429 . S
C584 H608 0.950 . S
C585 C602 1.574 . S
C585 C604 1.368 . S
C585 H609 0.949 . S
H586 C590 0.949 . S
C587 C588 1.349 . S
C587 C589 1.327 . S
C587 H610 0.950 . S
C588 C587 1.349 . S
C588 C600 1.349 . S
C589 C587 1.327 . S
C589 C605 1.429 . S
C589 H611 0.950 . S
C590 H586 0.949 . S
C590 C598 1.574 . S
C590 C606 1.368 . S
H591 C599 0.950 . S
H592 C597 0.950 . S
H593 C598 0.949 . S
H594 C600 0.950 . S
H595 C601 0.950 . S
H596 C602 0.949 . S
C597 H592 0.950 . S
C597 C599 1.327 . S
C597 C603 1.429 . S
C598 C590 1.574 . S
C598 H593 0.949 . S
C598 C604 1.368 . S
C599 C583 1.349 . S
C599 H591 0.950 . S
C599 C597 1.327 . S
C600 C588 1.349 . S
C600 H594 0.950 . S
C600 C601 1.327 . S
C601 H595 0.950 . S
C601 C600 1.327 . S
C601 C605 1.429 . S
C602 C585 1.574 . S
C602 H596 0.949 . S
C602 C606 1.368 . S
C603 C584 1.429 . S
C603 C597 1.429 . S
C603 C604 1.523 . S
C604 C585 1.368 . S
C604 C598 1.368 . S
C604 C603 1.523 . S
C605 C589 1.429 . S
C605 C601 1.429 . S
C605 C606 1.523 . S
C606 C590 1.368 . S
C606 C602 1.368 . S
C606 C605 1.523 . S
H607 C582 0.950 . S
H608 C584 0.950 . S
H609 C585 0.949 . S
H610 C587 0.950 . S
H611 C589 0.950 . S
C612 C613 1.349 . S
C612 C614 1.327 . S
C612 H637 0.950 . S
C613 C612 1.349 . S
C613 C629 1.349 . S
C614 C612 1.327 . S
C614 C633 1.429 . S
C614 H638 0.950 . S
C615 C632 1.574 . S
C615 C634 1.368 1_565 S
C615 H639 0.949 . S
H616 C620 0.949 . S
C617 C618 1.349 . S
C617 C619 1.327 . S
C617 H640 0.950 . S
C618 C617 1.349 . S
C618 C630 1.349 . S
C619 C617 1.327 . S
C619 C635 1.429 . S
C619 H641 0.950 . S
C620 H616 0.949 . S
C620 C628 1.574 . S
C620 C636 1.368 1_545 S
H621 C629 0.950 . S
H622 C627 0.950 . S
H623 C628 0.949 . S
H624 C630 0.950 . S
H625 C631 0.950 . S
H626 C632 0.949 . S
C627 H622 0.950 . S
C627 C629 1.327 . S
C627 C633 1.429 . S
C628 C620 1.574 . S
C628 H623 0.949 . S
C628 C634 1.368 1_556 S
C629 C613 1.349 . S
C629 H621 0.950 . S
C629 C627 1.327 . S
C630 C618 1.349 . S
C630 H624 0.950 . S
C630 C631 1.327 . S
C631 H625 0.950 . S
C631 C630 1.327 . S
C631 C635 1.429 . S
C632 C615 1.574 . S
C632 H626 0.949 . S
C632 C636 1.368 1_554 S
C633 C614 1.429 . S
C633 C627 1.429 . S
C633 C634 1.523 . S
C634 C615 1.368 1_545 S
C634 C628 1.368 1_554 S
C634 C633 1.523 . S
C635 C619 1.429 . S
C635 C631 1.429 . S
C635 C636 1.523 . S
C636 C620 1.368 1_565 S
C636 C632 1.368 1_556 S
C636 C635 1.523 . S
H637 C612 0.950 . S
H638 C614 0.950 . S
H639 C615 0.949 . S
H640 C617 0.950 . S
H641 C619 0.950 . S
C642 C643 1.349 . S
C642 C644 1.327 . S
C642 H667 0.950 . S
C643 C642 1.349 . S
C643 C659 1.349 . S
C644 C642 1.327 . S
C644 C663 1.429 . S
C644 H668 0.950 . S
C645 C662 1.574 . S
C645 C664 1.368 . S
C645 H669 0.949 . S
H646 C650 0.949 . S
C647 C648 1.349 . S
C647 C649 1.327 . S
C647 H670 0.950 . S
C648 C647 1.349 . S
C648 C660 1.349 . S
C649 C647 1.327 . S
C649 C665 1.429 . S
C649 H671 0.950 . S
C650 H646 0.949 . S
C650 C658 1.574 . S
C650 C666 1.368 . S
H651 C659 0.950 . S
H652 C657 0.950 . S
H653 C658 0.949 . S
H654 C660 0.950 . S
H655 C661 0.950 . S
H656 C662 0.949 . S
C657 H652 0.950 . S
C657 C659 1.327 . S
C657 C663 1.429 . S
C658 C650 1.574 . S
C658 H653 0.949 . S
C658 C664 1.368 . S
C659 C643 1.349 . S
C659 H651 0.950 . S
C659 C657 1.327 . S
C660 C648 1.349 . S
C660 H654 0.950 . S
C660 C661 1.327 . S
C661 H655 0.950 . S
C661 C660 1.327 . S
C661 C665 1.429 . S
C662 C645 1.574 . S
C662 H656 0.949 . S
C662 C666 1.368 . S
C663 C644 1.429 . S
C663 C657 1.429 . S
C663 C664 1.523 . S
C664 C645 1.368 . S
C664 C658 1.368 . S
C664 C663 1.523 . S
C665 C649 1.429 . S
C665 C661 1.429 . S
C665 C666 1.523 . S
C666 C650 1.368 . S
C666 C662 1.368 . S
C666 C665 1.523 . S
H667 C642 0.950 . S
H668 C644 0.950 . S
H669 C645 0.949 . S
H670 C647 0.950 . S
H671 C649 0.950 . S
C672 C673 1.349 . S
C672 C674 1.327 . S
C672 H697 0.950 . S
C673 C672 1.349 . S
C673 C689 1.349 . S
C674 C672 1.327 . S
C674 C693 1.429 . S
C674 H698 0.950 . S
C675 C692 1.574 . S
C675 C694 1.368 1_655 S
C675 H699 0.949 . S
H676 C680 0.949 . S
C677 C678 1.349 . S
C677 C679 1.327 . S
C677 H700 0.950 . S
C678 C677 1.349 . S
C678 C690 1.349 . S
C679 C677 1.327 . S
C679 C695 1.429 . S
C679 H701 0.950 . S
C680 H676 0.949 . S
C680 C688 1.574 . S
C680 C696 1.368 1_455 S
H681 C689 0.950 . S
H682 C687 0.950 . S
H683 C688 0.949 . S
H684 C690 0.950 . S
H685 C691 0.950 . S
H686 C692 0.949 . S
C687 H682 0.950 . S
C687 C689 1.327 . S
C687 C693 1.429 . S
C688 C680 1.574 . S
C688 H683 0.949 . S
C688 C694 1.368 . S
C689 C673 1.349 . S
C689 H681 0.950 . S
C689 C687 1.327 . S
C690 C678 1.349 . S
C690 H684 0.950 . S
C690 C691 1.327 . S
C691 H685 0.950 . S
C691 C690 1.327 . S
C691 C695 1.429 . S
C692 C675 1.574 . S
C692 H686 0.949 . S
C692 C696 1.368 . S
C693 C674 1.429 . S
C693 C687 1.429 . S
C693 C694 1.523 . S
C694 C675 1.368 1_455 S
C694 C688 1.368 . S
C694 C693 1.523 . S
C695 C679 1.429 . S
C695 C691 1.429 . S
C695 C696 1.523 . S
C696 C680 1.368 1_655 S
C696 C692 1.368 . S
C696 C695 1.523 . S
H697 C672 0.950 . S
H698 C674 0.950 . S
H699 C675 0.949 . S
H700 C677 0.950 . S
H701 C679 0.950 . S
C702 C703 1.349 . S
C702 C704 1.327 . S
C702 H727 0.950 . S
C703 C702 1.349 . S
C703 C719 1.349 . S
C704 C702 1.327 . S
C704 C723 1.429 . S
C704 H728 0.950 . S
C705 C722 1.573 1_554 S
C705 C724 1.369 . S
C705 H729 0.949 . S
H706 C710 0.949 . S
C707 C708 1.349 . S
C707 C709 1.327 . S
C707 H730 0.950 . S
C708 C707 1.349 . S
C708 C720 1.349 . S
C709 C707 1.327 . S
C709 C725 1.429 . S
C709 H731 0.950 . S
C710 H706 0.949 . S
C710 C718 1.571 1_556 S
C710 C726 1.371 . S
H711 C719 0.950 . S
H712 C717 0.950 . S
H713 C718 0.949 . S
H714 C720 0.950 . S
H715 C721 0.950 . S
H716 C722 0.949 . S
C717 H712 0.950 . S
C717 C719 1.327 . S
C717 C723 1.429 . S
C718 C710 1.571 1_554 S
C718 H713 0.949 . S
C718 C724 1.368 1_545 S
C719 C703 1.349 . S
C719 H711 0.950 . S
C719 C717 1.327 . S
C720 C708 1.349 . S
C720 H714 0.950 . S
C720 C721 1.327 . S
C721 H715 0.950 . S
C721 C720 1.327 . S
C721 C725 1.429 . S
C722 C705 1.573 1_556 S
C722 H716 0.949 . S
C722 C726 1.368 1_565 S
C723 C704 1.429 . S
C723 C717 1.429 . S
C723 C724 1.523 . S
C724 C705 1.369 . S
C724 C718 1.368 1_565 S
C724 C723 1.523 . S
C725 C709 1.429 . S
C725 C721 1.429 . S
C725 C726 1.523 . S
C726 C710 1.371 . S
C726 C722 1.368 1_545 S
C726 C725 1.523 . S
H727 C702 0.950 . S
H728 C704 0.950 . S
H729 C705 0.949 . S
H730 C707 0.950 . S
H731 C709 0.950 . S
C732 C733 1.349 . S
C732 C734 1.327 . S
C732 H757 0.950 . S
C733 C732 1.349 . S
C733 C749 1.349 . S
C734 C732 1.327 . S
C734 C753 1.429 . S
C734 H758 0.950 . S
C735 C752 1.574 . S
C735 C754 1.368 . S
C735 H759 0.949 . S
H736 C740 0.949 . S
C737 C738 1.349 . S
C737 C739 1.327 . S
C737 H760 0.950 . S
C738 C737 1.349 . S
C738 C750 1.349 . S
C739 C737 1.327 . S
C739 C755 1.429 . S
C739 H761 0.950 . S
C740 H736 0.949 . S
C740 C748 1.574 . S
C740 C756 1.368 . S
H741 C749 0.950 . S
H742 C747 0.950 . S
H743 C748 0.949 . S
H744 C750 0.950 . S
H745 C751 0.950 . S
H746 C752 0.949 . S
C747 H742 0.950 . S
C747 C749 1.327 . S
C747 C753 1.429 . S
C748 C740 1.574 . S
C748 H743 0.949 . S
C748 C754 1.368 . S
C749 C733 1.349 . S
C749 H741 0.950 . S
C749 C747 1.327 . S
C750 C738 1.349 . S
C750 H744 0.950 . S
C750 C751 1.327 . S
C751 H745 0.950 . S
C751 C750 1.327 . S
C751 C755 1.429 . S
C752 C735 1.574 . S
C752 H746 0.949 . S
C752 C756 1.368 . S
C753 C734 1.429 . S
C753 C747 1.429 . S
C753 C754 1.523 . S
C754 C735 1.368 . S
C754 C748 1.368 . S
C754 C753 1.523 . S
C755 C739 1.429 . S
C755 C751 1.429 . S
C755 C756 1.523 . S
C756 C740 1.368 . S
C756 C752 1.368 . S
C756 C755 1.523 . S
H757 C732 0.950 . S
H758 C734 0.950 . S
H759 C735 0.949 . S
H760 C737 0.950 . S
H761 C739 0.950 . S
C762 C763 1.349 . S
C762 C764 1.327 . S
C762 H787 0.950 . S
C763 C762 1.349 . S
C763 C779 1.349 . S
C764 C762 1.327 . S
C764 C783 1.429 . S
C764 H788 0.950 . S
C765 C782 1.574 1_455 S
C765 C784 1.368 . S
C765 H789 0.949 . S
H766 C770 0.949 . S
C767 C768 1.349 . S
C767 C769 1.327 . S
C767 H790 0.950 . S
C768 C767 1.349 . S
C768 C780 1.349 . S
C769 C767 1.327 . S
C769 C785 1.429 . S
C769 H791 0.950 . S
C770 H766 0.949 . S
C770 C778 1.574 . S
C770 C786 1.368 . S
H771 C779 0.950 . S
H772 C777 0.950 . S
H773 C778 0.943 1_455 S
H774 C780 0.950 . S
H775 C781 0.950 . S
H776 C782 0.949 . S
C777 H772 0.950 . S
C777 C779 1.327 . S
C777 C783 1.429 . S
C778 C770 1.574 . S
C778 H773 0.943 1_655 S
C778 C784 1.368 1_655 S
C779 C763 1.349 . S
C779 H771 0.950 . S
C779 C777 1.327 . S
C780 C768 1.349 . S
C780 H774 0.950 . S
C780 C781 1.327 . S
C781 H775 0.950 . S
C781 C780 1.327 . S
C781 C785 1.429 . S
C782 C765 1.574 1_655 S
C782 H776 0.949 . S
C782 C786 1.368 . S
C783 C764 1.429 . S
C783 C777 1.429 . S
C783 C784 1.523 . S
C784 C765 1.368 . S
C784 C778 1.368 1_455 S
C784 C783 1.523 . S
C785 C769 1.429 . S
C785 C781 1.429 . S
C785 C786 1.523 . S
C786 C770 1.368 . S
C786 C782 1.368 . S
C786 C785 1.523 . S
H787 C762 0.950 . S
H788 C764 0.950 . S
H789 C765 0.949 . S
H790 C767 0.950 . S
H791 C769 0.950 . S
C792 C793 1.349 . S
C792 C794 1.327 . S
C792 H817 0.950 . S
C793 C792 1.349 . S
C793 C809 1.349 . S
C794 C792 1.327 . S
C794 C813 1.429 . S
C794 H818 0.950 . S
C795 C812 1.574 . S
C795 C814 1.368 . S
C795 H819 0.949 . S
H796 C800 0.949 . S
C797 C798 1.349 . S
C797 C799 1.327 . S
C797 H820 0.950 . S
C798 C797 1.349 . S
C798 C810 1.349 . S
C799 C797 1.327 . S
C799 C815 1.429 . S
C799 H821 0.950 . S
C800 H796 0.949 . S
C800 C808 1.574 . S
C800 C816 1.368 . S
H801 C809 0.950 . S
H802 C807 0.950 . S
H803 C808 0.949 . S
H804 C810 0.950 . S
H805 C811 0.950 . S
H806 C812 0.949 . S
C807 H802 0.950 . S
C807 C809 1.327 . S
C807 C813 1.429 . S
C808 C800 1.574 . S
C808 H803 0.949 . S
C808 C814 1.368 1_545 S
C809 C793 1.349 . S
C809 H801 0.950 . S
C809 C807 1.327 . S
C810 C798 1.349 . S
C810 H804 0.950 . S
C810 C811 1.327 . S
C811 H805 0.950 . S
C811 C810 1.327 . S
C811 C815 1.429 . S
C812 C795 1.574 . S
C812 H806 0.949 . S
C812 C816 1.368 1_565 S
C813 C794 1.429 . S
C813 C807 1.429 . S
C813 C814 1.523 . S
C814 C795 1.368 . S
C814 C808 1.368 1_565 S
C814 C813 1.523 . S
C815 C799 1.429 . S
C815 C811 1.429 . S
C815 C816 1.523 . S
C816 C800 1.368 . S
C816 C812 1.368 1_545 S
C816 C815 1.523 . S
H817 C792 0.950 . S
H818 C794 0.950 . S
H819 C795 0.949 . S
H820 C797 0.950 . S
H821 C799 0.950 . S
C822 C823 1.349 . S
C822 C824 1.327 . S
C822 H847 0.950 . S
C823 C822 1.349 . S
C823 C839 1.349 . S
C824 C822 1.327 . S
C824 C843 1.429 . S
C824 H848 0.950 . S
C825 C842 1.574 . S
C825 C844 1.368 . S
C825 H849 0.949 . S
H826 C830 0.949 . S
C827 C828 1.349 . S
C827 C829 1.327 . S
C827 H850 0.950 . S
C828 C827 1.349 . S
C828 C840 1.349 . S
C829 C827 1.327 . S
C829 C845 1.429 . S
C829 H851 0.950 . S
C830 H826 0.949 . S
C830 C838 1.574 . S
C830 C846 1.368 . S
H831 C839 0.950 . S
H832 C837 0.950 . S
H833 C838 0.949 . S
H834 C840 0.950 . S
H835 C841 0.950 . S
H836 C842 0.949 . S
C837 H832 0.950 . S
C837 C839 1.327 . S
C837 C843 1.429 . S
C838 C830 1.574 . S
C838 H833 0.949 . S
C838 C844 1.368 . S
C839 C823 1.349 . S
C839 H831 0.950 . S
C839 C837 1.327 . S
C840 C828 1.349 . S
C840 H834 0.950 . S
C840 C841 1.327 . S
C841 H835 0.950 . S
C841 C840 1.327 . S
C841 C845 1.429 . S
C842 C825 1.574 . S
C842 H836 0.949 . S
C842 C846 1.368 . S
C843 C824 1.429 . S
C843 C837 1.429 . S
C843 C844 1.523 . S
C844 C825 1.368 . S
C844 C838 1.368 . S
C844 C843 1.523 . S
C845 C829 1.429 . S
C845 C841 1.429 . S
C845 C846 1.523 . S
C846 C830 1.368 . S
C846 C842 1.368 . S
C846 C845 1.523 . S
H847 C822 0.950 . S
H848 C824 0.950 . S
H849 C825 0.949 . S
H850 C827 0.950 . S
H851 C829 0.950 . S
C852 C853 1.349 . S
C852 C854 1.327 . S
C852 H877 0.950 . S
C853 C852 1.349 . S
C853 C869 1.349 . S
C854 C852 1.327 . S
C854 C873 1.429 . S
C854 H878 0.950 . S
C855 C872 1.574 . S
C855 C874 1.368 1_655 S
C855 H879 0.949 . S
H856 C860 0.949 . S
C857 C858 1.349 . S
C857 C859 1.327 . S
C857 H880 0.950 . S
C858 C857 1.349 . S
C858 C870 1.349 . S
C859 C857 1.327 . S
C859 C875 1.429 . S
C859 H881 0.950 . S
C860 H856 0.949 . S
C860 C868 1.574 . S
C860 C876 1.368 1_455 S
H861 C869 0.950 . S
H862 C867 0.950 . S
H863 C868 0.949 . S
H864 C870 0.950 . S
H865 C871 0.950 . S
H866 C872 0.949 . S
C867 H862 0.950 . S
C867 C869 1.327 . S
C867 C873 1.429 . S
C868 C860 1.574 . S
C868 H863 0.949 . S
C868 C874 1.368 . S
C869 C853 1.349 . S
C869 H861 0.950 . S
C869 C867 1.327 . S
C870 C858 1.349 . S
C870 H864 0.950 . S
C870 C871 1.327 . S
C871 H865 0.950 . S
C871 C870 1.327 . S
C871 C875 1.429 . S
C872 C855 1.574 . S
C872 H866 0.949 . S
C872 C876 1.368 . S
C873 C854 1.429 . S
C873 C867 1.429 . S
C873 C874 1.523 . S
C874 C855 1.368 1_455 S
C874 C868 1.368 . S
C874 C873 1.523 . S
C875 C859 1.429 . S
C875 C871 1.429 . S
C875 C876 1.523 . S
C876 C860 1.368 1_655 S
C876 C872 1.368 . S
C876 C875 1.523 . S
H877 C852 0.950 . S
H878 C854 0.950 . S
H879 C855 0.949 . S
H880 C857 0.950 . S
H881 C859 0.950 . S
C882 C883 1.349 . S
C882 C884 1.327 . S
C882 H907 0.950 . S
C883 C882 1.349 . S
C883 C899 1.349 . S
C884 C882 1.327 . S
C884 C903 1.429 . S
C884 H908 0.950 . S
C885 C902 1.574 . S
C885 C904 1.368 . S
C885 H909 0.949 . S
H886 C890 0.949 . S
C887 C888 1.349 . S
C887 C889 1.327 . S
C887 H910 0.950 . S
C888 C887 1.349 . S
C888 C900 1.349 . S
C889 C887 1.327 . S
C889 C905 1.429 . S
C889 H911 0.950 . S
C890 H886 0.949 . S
C890 C898 1.574 . S
C890 C906 1.368 . S
H891 C899 0.950 . S
H892 C897 0.950 . S
H893 C898 0.949 . S
H894 C900 0.950 . S
H895 C901 0.950 . S
H896 C902 0.949 . S
C897 H892 0.950 . S
C897 C899 1.327 . S
C897 C903 1.429 . S
C898 C890 1.574 . S
C898 H893 0.949 . S
C898 C904 1.368 1_455 S
C899 C883 1.349 . S
C899 H891 0.950 . S
C899 C897 1.327 . S
C900 C888 1.349 . S
C900 H894 0.950 . S
C900 C901 1.327 . S
C901 H895 0.950 . S
C901 C900 1.327 . S
C901 C905 1.429 . S
C902 C885 1.574 . S
C902 H896 0.949 . S
C902 C906 1.368 1_655 S
C903 C884 1.429 . S
C903 C897 1.429 . S
C903 C904 1.523 . S
C904 C885 1.368 . S
C904 C898 1.368 1_655 S
C904 C903 1.523 . S
C905 C889 1.429 . S
C905 C901 1.429 . S
C905 C906 1.523 . S
C906 C890 1.368 . S
C906 C902 1.368 1_455 S
C906 C905 1.523 . S
H907 C882 0.950 . S
H908 C884 0.950 . S
H909 C885 0.949 . S
H910 C887 0.950 . S
H911 C889 0.950 . S
C912 C913 1.349 . S
C912 C914 1.327 . S
C912 H937 0.950 . S
C913 C912 1.349 . S
C913 C929 1.349 . S
C914 C912 1.327 . S
C914 C933 1.429 . S
C914 H938 0.950 . S
C915 C932 1.574 . S
C915 C934 1.368 1_545 S
C915 H939 0.949 . S
H916 C920 0.949 . S
C917 C918 1.349 . S
C917 C919 1.327 . S
C917 H940 0.950 . S
C918 C917 1.349 . S
C918 C930 1.349 . S
C919 C917 1.327 . S
C919 C935 1.429 . S
C919 H941 0.950 . S
C920 H916 0.949 . S
C920 C928 1.574 . S
C920 C936 1.368 1_565 S
H921 C929 0.950 . S
H922 C927 0.950 . S
H923 C928 0.949 . S
H924 C930 0.950 . S
H925 C931 0.950 . S
H926 C932 0.949 . S
C927 H922 0.950 . S
C927 C929 1.327 . S
C927 C933 1.429 . S
C928 C920 1.574 . S
C928 H923 0.949 . S
C928 C934 1.368 . S
C929 C913 1.349 . S
C929 H921 0.950 . S
C929 C927 1.327 . S
C930 C918 1.349 . S
C930 H924 0.950 . S
C930 C931 1.327 . S
C931 H925 0.950 . S
C931 C930 1.327 . S
C931 C935 1.429 . S
C932 C915 1.574 . S
C932 H926 0.949 . S
C932 C936 1.368 . S
C933 C914 1.429 . S
C933 C927 1.429 . S
C933 C934 1.523 . S
C934 C915 1.368 1_565 S
C934 C928 1.368 . S
C934 C933 1.523 . S
C935 C919 1.429 . S
C935 C931 1.429 . S
C935 C936 1.523 . S
C936 C920 1.368 1_545 S
C936 C932 1.368 . S
C936 C935 1.523 . S
H937 C912 0.950 . S
H938 C914 0.950 . S
H939 C915 0.949 . S
H940 C917 0.950 . S
H941 C919 0.950 . S
C942 C943 1.349 . S
C942 C944 1.327 . S
C942 H967 0.950 . S
C943 C942 1.349 . S
C943 C959 1.349 . S
C944 C942 1.327 . S
C944 C963 1.429 . S
C944 H968 0.950 . S
C945 C962 1.574 . S
C945 C964 1.368 . S
C945 H969 0.949 . S
H946 C950 0.949 . S
C947 C948 1.349 . S
C947 C949 1.327 . S
C947 H970 0.950 . S
C948 C947 1.349 . S
C948 C960 1.349 . S
C949 C947 1.327 . S
C949 C965 1.429 . S
C949 H971 0.950 . S
C950 H946 0.949 . S
C950 C958 1.574 . S
C950 C966 1.368 . S
H951 C959 0.950 . S
H952 C957 0.950 . S
H953 C958 0.949 . S
H954 C960 0.950 . S
H955 C961 0.950 . S
H956 C962 0.949 . S
C957 H952 0.950 . S
C957 C959 1.327 . S
C957 C963 1.429 . S
C958 C950 1.574 . S
C958 H953 0.949 . S
C958 C964 1.368 . S
C959 C943 1.349 . S
C959 H951 0.950 . S
C959 C957 1.327 . S
C960 C948 1.349 . S
C960 H954 0.950 . S
C960 C961 1.327 . S
C961 H955 0.950 . S
C961 C960 1.327 . S
C961 C965 1.429 . S
C962 C945 1.574 . S
C962 H956 0.949 . S
C962 C966 1.368 . S
C963 C944 1.429 . S
C963 C957 1.429 . S
C963 C964 1.523 . S
C964 C945 1.368 . S
C964 C958 1.368 . S
C964 C963 1.523 . S
C965 C949 1.429 . S
C965 C961 1.429 . S
C965 C966 1.523 . S
C966 C950 1.368 . S
C966 C962 1.368 . S
C966 C965 1.523 . S
H967 C942 0.950 . S
H968 C944 0.950 . S
H969 C945 0.949 . S
H970 C947 0.950 . S
H971 C949 0.950 . S
C972 C973 1.349 . S
C972 C974 1.327 . S
C972 H997 0.950 . S
C973 C972 1.349 . S
C973 C989 1.349 . S
C974 C972 1.327 . S
C974 C993 1.429 . S
C974 H998 0.950 . S
C975 C992 1.574 . S
C975 C994 1.368 . S
C975 H999 0.949 . S
H976 C980 0.949 . S
C977 C978 1.349 . S
C977 C979 1.327 . S
C977 H1000 0.950 . S
C978 C977 1.349 . S
C978 C990 1.349 . S
C979 C977 1.327 . S
C979 C995 1.429 . S
C979 H1001 0.950 . S
C980 H976 0.949 . S
C980 C988 1.574 . S
C980 C996 1.368 . S
H981 C989 0.950 . S
H982 C987 0.950 . S
H983 C988 0.949 . S
H984 C990 0.950 . S
H985 C991 0.950 . S
H986 C992 0.949 . S
C987 H982 0.950 . S
C987 C989 1.327 . S
C987 C993 1.429 . S
C988 C980 1.574 . S
C988 H983 0.949 . S
C988 C994 1.368 . S
C989 C973 1.349 . S
C989 H981 0.950 . S
C989 C987 1.327 . S
C990 C978 1.349 . S
C990 H984 0.950 . S
C990 C991 1.327 . S
C991 H985 0.950 . S
C991 C990 1.327 . S
C991 C995 1.429 . S
C992 C975 1.574 . S
C992 H986 0.949 . S
C992 C996 1.368 . S
C993 C974 1.429 . S
C993 C987 1.429 . S
C993 C994 1.523 . S
C994 C975 1.368 . S
C994 C988 1.368 . S
C994 C993 1.523 . S
C995 C979 1.429 . S
C995 C991 1.429 . S
C995 C996 1.523 . S
C996 C980 1.368 . S
C996 C992 1.368 . S
C996 C995 1.523 . S
H997 C972 0.950 . S
H998 C974 0.950 . S
H999 C975 0.949 . S
H1000 C977 0.950 . S
H1001 C979 0.950 . S
C1002 C1003 1.349 . S
C1002 C1004 1.327 . S
C1002 H1027 0.950 . S
C1003 C1002 1.349 . S
C1003 C1019 1.349 . S
C1004 C1002 1.327 . S
C1004 C1023 1.429 . S
C1004 H1028 0.950 . S
C1005 C1022 1.574 . S
C1005 C1024 1.368 . S
C1005 H1029 0.949 . S
H1006 C1010 0.949 . S
C1007 C1008 1.349 . S
C1007 C1009 1.327 . S
C1007 H1030 0.950 . S
C1008 C1007 1.349 . S
C1008 C1020 1.349 . S
C1009 C1007 1.327 . S
C1009 C1025 1.429 . S
C1009 H1031 0.950 . S
C1010 H1006 0.949 . S
C1010 C1018 1.574 . S
C1010 C1026 1.368 . S
H1011 C1019 0.950 . S
H1012 C1017 0.950 . S
H1013 C1018 0.949 . S
H1014 C1020 0.950 . S
H1015 C1021 0.950 . S
H1016 C1022 0.949 . S
C1017 H1012 0.950 . S
C1017 C1019 1.327 . S
C1017 C1023 1.429 . S
C1018 C1010 1.574 . S
C1018 H1013 0.949 . S
C1018 C1024 1.368 . S
C1019 C1003 1.349 . S
C1019 H1011 0.950 . S
C1019 C1017 1.327 . S
C1020 C1008 1.349 . S
C1020 H1014 0.950 . S
C1020 C1021 1.327 . S
C1021 H1015 0.950 . S
C1021 C1020 1.327 . S
C1021 C1025 1.429 . S
C1022 C1005 1.574 . S
C1022 H1016 0.949 . S
C1022 C1026 1.368 . S
C1023 C1004 1.429 . S
C1023 C1017 1.429 . S
C1023 C1024 1.523 . S
C1024 C1005 1.368 . S
C1024 C1018 1.368 . S
C1024 C1023 1.523 . S
C1025 C1009 1.429 . S
C1025 C1021 1.429 . S
C1025 C1026 1.523 . S
C1026 C1010 1.368 . S
C1026 C1022 1.368 . S
C1026 C1025 1.523 . S
H1027 C1002 0.950 . S
H1028 C1004 0.950 . S
H1029 C1005 0.949 . S
H1030 C1007 0.950 . S
H1031 C1009 0.950 . S
C1032 C1033 1.349 . S
C1032 C1034 1.327 . S
C1032 H1057 0.950 . S
C1033 C1032 1.349 . S
C1033 C1049 1.349 . S
C1034 C1032 1.327 . S
C1034 C1053 1.429 . S
C1034 H1058 0.950 . S
C1035 C1052 1.574 . S
C1035 C1054 1.368 . S
C1035 H1059 0.949 . S
H1036 C1040 0.949 . S
C1037 C1038 1.349 . S
C1037 C1039 1.327 . S
C1037 H1060 0.950 . S
C1038 C1037 1.349 . S
C1038 C1050 1.349 . S
C1039 C1037 1.327 . S
C1039 C1055 1.429 . S
C1039 H1061 0.950 . S
C1040 H1036 0.949 . S
C1040 C1048 1.574 . S
C1040 C1056 1.368 . S
H1041 C1049 0.950 . S
H1042 C1047 0.950 . S
H1043 C1048 0.949 . S
H1044 C1050 0.950 . S
H1045 C1051 0.950 . S
H1046 C1052 0.949 . S
C1047 H1042 0.950 . S
C1047 C1049 1.327 . S
C1047 C1053 1.429 . S
C1048 C1040 1.574 . S
C1048 H1043 0.949 . S
C1048 C1054 1.368 . S
C1049 C1033 1.349 . S
C1049 H1041 0.950 . S
C1049 C1047 1.327 . S
C1050 C1038 1.349 . S
C1050 H1044 0.950 . S
C1050 C1051 1.327 . S
C1051 H1045 0.950 . S
C1051 C1050 1.327 . S
C1051 C1055 1.429 . S
C1052 C1035 1.574 . S
C1052 H1046 0.949 . S
C1052 C1056 1.368 . S
C1053 C1034 1.429 . S
C1053 C1047 1.429 . S
C1053 C1054 1.523 . S
C1054 C1035 1.368 . S
C1054 C1048 1.368 . S
C1054 C1053 1.523 . S
C1055 C1039 1.429 . S
C1055 C1051 1.429 . S
C1055 C1056 1.523 . S
C1056 C1040 1.368 . S
C1056 C1052 1.368 . S
C1056 C1055 1.523 . S
H1057 C1032 0.950 . S
H1058 C1034 0.950 . S
H1059 C1035 0.949 . S
H1060 C1037 0.950 . S
H1061 C1039 0.950 . S
C1062 C1063 1.349 . S
C1062 C1064 1.327 . S
C1062 H1087 0.950 . S
C1063 C1062 1.349 . S
C1063 C1079 1.349 . S
C1064 C1062 1.327 . S
C1064 C1083 1.429 . S
C1064 H1088 0.950 . S
C1065 C1082 1.574 . S
C1065 C1084 1.368 . S
C1065 H1089 0.949 . S
H1066 C1070 0.949 . S
C1067 C1068 1.349 . S
C1067 C1069 1.327 . S
C1067 H1090 0.950 . S
C1068 C1067 1.349 . S
C1068 C1080 1.349 . S
C1069 C1067 1.327 . S
C1069 C1085 1.429 . S
C1069 H1091 0.950 . S
C1070 H1066 0.949 . S
C1070 C1078 1.574 . S
C1070 C1086 1.368 . S
H1071 C1079 0.950 . S
H1072 C1077 0.950 . S
H1073 C1078 0.949 . S
H1074 C1080 0.950 . S
H1075 C1081 0.950 . S
H1076 C1082 0.949 . S
C1077 H1072 0.950 . S
C1077 C1079 1.327 . S
C1077 C1083 1.429 . S
C1078 C1070 1.574 . S
C1078 H1073 0.949 . S
C1078 C1084 1.368 . S
C1079 C1063 1.349 . S
C1079 H1071 0.950 . S
C1079 C1077 1.327 . S
C1080 C1068 1.349 . S
C1080 H1074 0.950 . S
C1080 C1081 1.327 . S
C1081 H1075 0.950 . S
C1081 C1080 1.327 . S
C1081 C1085 1.429 . S
C1082 C1065 1.574 . S
C1082 H1076 0.949 . S
C1082 C1086 1.368 . S
C1083 C1064 1.429 . S
C1083 C1077 1.429 . S
C1083 C1084 1.523 . S
C1084 C1065 1.368 . S
C1084 C1078 1.368 . S
C1084 C1083 1.523 . S
C1085 C1069 1.429 . S
C1085 C1081 1.429 . S
C1085 C1086 1.523 . S
C1086 C1070 1.368 . S
C1086 C1082 1.368 . S
C1086 C1085 1.523 . S
H1087 C1062 0.950 . S
H1088 C1064 0.950 . S
H1089 C1065 0.949 . S
H1090 C1067 0.950 . S
H1091 C1069 0.950 . S
C1092 C1093 1.349 . S
C1092 C1094 1.327 . S
C1092 H1117 0.950 . S
C1093 C1092 1.349 . S
C1093 C1109 1.349 . S
C1094 C1092 1.327 . S
C1094 C1113 1.429 . S
C1094 H1118 0.950 . S
C1095 C1112 1.574 . S
C1095 C1114 1.368 . S
C1095 H1119 0.949 . S
H1096 C1100 0.949 . S
C1097 C1098 1.349 . S
C1097 C1099 1.327 . S
C1097 H1120 0.950 . S
C1098 C1097 1.349 . S
C1098 C1110 1.349 . S
C1099 C1097 1.327 . S
C1099 C1115 1.429 . S
C1099 H1121 0.950 . S
C1100 H1096 0.949 . S
C1100 C1108 1.574 . S
C1100 C1116 1.368 . S
H1101 C1109 0.950 . S
H1102 C1107 0.950 . S
H1103 C1108 0.949 . S
H1104 C1110 0.950 . S
H1105 C1111 0.950 . S
H1106 C1112 0.949 . S
C1107 H1102 0.950 . S
C1107 C1109 1.327 . S
C1107 C1113 1.429 . S
C1108 C1100 1.574 . S
C1108 H1103 0.949 . S
C1108 C1114 1.368 . S
C1109 C1093 1.349 . S
C1109 H1101 0.950 . S
C1109 C1107 1.327 . S
C1110 C1098 1.349 . S
C1110 H1104 0.950 . S
C1110 C1111 1.327 . S
C1111 H1105 0.950 . S
C1111 C1110 1.327 . S
C1111 C1115 1.429 . S
C1112 C1095 1.574 . S
C1112 H1106 0.949 . S
C1112 C1116 1.368 . S
C1113 C1094 1.429 . S
C1113 C1107 1.429 . S
C1113 C1114 1.523 . S
C1114 C1095 1.368 . S
C1114 C1108 1.368 . S
C1114 C1113 1.523 . S
C1115 C1099 1.429 . S
C1115 C1111 1.429 . S
C1115 C1116 1.523 . S
C1116 C1100 1.368 . S
C1116 C1112 1.368 . S
C1116 C1115 1.523 . S
H1117 C1092 0.950 . S
H1118 C1094 0.950 . S
H1119 C1095 0.949 . S
H1120 C1097 0.950 . S
H1121 C1099 0.950 . S
C1122 C1123 1.349 . S
C1122 C1124 1.327 . S
C1122 H1147 0.950 . S
C1123 C1122 1.349 . S
C1123 C1139 1.349 . S
C1124 C1122 1.327 . S
C1124 C1143 1.429 . S
C1124 H1148 0.950 . S
C1125 C1142 1.574 . S
C1125 C1144 1.368 . S
C1125 H1149 0.949 . S
H1126 C1130 0.949 . S
C1127 C1128 1.349 . S
C1127 C1129 1.327 . S
C1127 H1150 0.950 . S
C1128 C1127 1.349 . S
C1128 C1140 1.349 . S
C1129 C1127 1.327 . S
C1129 C1145 1.429 . S
C1129 H1151 0.950 . S
C1130 H1126 0.949 . S
C1130 C1138 1.574 . S
C1130 C1146 1.368 . S
H1131 C1139 0.950 . S
H1132 C1137 0.950 . S
H1133 C1138 0.949 . S
H1134 C1140 0.950 . S
H1135 C1141 0.950 . S
H1136 C1142 0.949 . S
C1137 H1132 0.950 . S
C1137 C1139 1.327 . S
C1137 C1143 1.429 . S
C1138 C1130 1.574 . S
C1138 H1133 0.949 . S
C1138 C1144 1.368 . S
C1139 C1123 1.349 . S
C1139 H1131 0.950 . S
C1139 C1137 1.327 . S
C1140 C1128 1.349 . S
C1140 H1134 0.950 . S
C1140 C1141 1.327 . S
C1141 H1135 0.950 . S
C1141 C1140 1.327 . S
C1141 C1145 1.429 . S
C1142 C1125 1.574 . S
C1142 H1136 0.949 . S
C1142 C1146 1.368 . S
C1143 C1124 1.429 . S
C1143 C1137 1.429 . S
C1143 C1144 1.523 . S
C1144 C1125 1.368 . S
C1144 C1138 1.368 . S
C1144 C1143 1.523 . S
C1145 C1129 1.429 . S
C1145 C1141 1.429 . S
C1145 C1146 1.523 . S
C1146 C1130 1.368 . S
C1146 C1142 1.368 . S
C1146 C1145 1.523 . S
H1147 C1122 0.950 . S
H1148 C1124 0.950 . S
H1149 C1125 0.949 . S
H1150 C1127 0.950 . S
H1151 C1129 0.950 . S
C433 C14 1.914 . S
C438 C374 1.914 . S
C463 C398 1.762 . S
C468 C38 1.767 . S
C493 C218 1.767 . S
C498 C74 1.762 . S
C523 C122 1.914 . S
C528 C266 1.914 . S
C553 C146 1.767 . S
C558 C290 1.762 . S
C583 C326 1.767 . S
C588 C182 1.762 . S
C613 C4 0.507 . S
C618 C256 0.507 . S
C643 C291 0.440 . S
C648 C39 0.438 . S
C673 C327 0.438 . S
C678 C75 0.440 . S
C703 C112 0.507 . S
C708 C364 0.507 . S
C733 C399 0.440 . S
C738 C147 0.438 . S
C763 C183 0.440 . S
C768 C219 0.438 . S
C793 C110 1.534 . S
C798 C2 1.534 . S
C823 C158 1.960 . S
C828 C50 1.960 . S
C853 C194 1.921 . S
C858 C86 1.921 . S
C883 C230 1.960 . S
C888 C338 1.960 . S
C913 C254 1.534 . S
C918 C362 1.534 . S
C943 C302 1.921 . S
C948 C410 1.921 . S
C973 C292 1.251 . S
C978 C3 1.256 . S
C1003 C328 1.253 . S
C1008 C40 1.253 . S
C1033 C363 1.256 . S
C1038 C76 1.251 . S
C1063 C400 1.251 . S
C1068 C111 1.256 . S
C1093 C220 1.253 . S
C1098 C148 1.253 . S
C1123 C184 1.251 . S
C1128 C255 1.256 . S
