# Generated by pormake.
# Topology swd, (7)-cn, num edge types: 1
# Building blocks:
#     Node 0, Type 0, BuildingBlock: HICVOG_clean_sbu_0, # of connection points: 7
#     Node 1, Type 0, BuildingBlock: HICVOG_clean_sbu_0, # of connection points: 7
#     Node 2, Type 0, BuildingBlock: HICVOG_clean_sbu_0, # of connection points: 7
#     Node 3, Type 0, BuildingBlock: HICVOG_clean_sbu_0, # of connection points: 7
#     Node 4, Type 0, BuildingBlock: HICVOG_clean_sbu_0, # of connection points: 7
#     Node 5, Type 0, BuildingBlock: HICVOG_clean_sbu_0, # of connection points: 7
#     Node 6, Type 0, BuildingBlock: HICVOG_clean_sbu_0, # of connection points: 7
#     Node 7, Type 0, BuildingBlock: HICVOG_clean_sbu_0, # of connection points: 7
#     Node 8, Type 0, BuildingBlock: HICVOG_clean_sbu_0, # of connection points: 7
#     Node 9, Type 0, BuildingBlock: HICVOG_clean_sbu_0, # of connection points: 7
#     Node 10, Type 0, BuildingBlock: HICVOG_clean_sbu_0, # of connection points: 7
#     Node 11, Type 0, BuildingBlock: HICVOG_clean_sbu_0, # of connection points: 7
#     Node 12, Type 0, BuildingBlock: HICVOG_clean_sbu_0, # of connection points: 7
#     Node 13, Type 0, BuildingBlock: HICVOG_clean_sbu_0, # of connection points: 7
#     Node 14, Type 0, BuildingBlock: HICVOG_clean_sbu_0, # of connection points: 7
#     Node 15, Type 0, BuildingBlock: HICVOG_clean_sbu_0, # of connection points: 7
#     Node 16, Type 0, BuildingBlock: HICVOG_clean_sbu_0, # of connection points: 7
#     Node 17, Type 0, BuildingBlock: HICVOG_clean_sbu_0, # of connection points: 7
#     Edge 18, Type (0, 0), BuildingBlock: XIVTED_clean_linker_0, # of connection points: 2
#     Edge 19, Type (0, 0), BuildingBlock: XIVTED_clean_linker_0, # of connection points: 2
#     Edge 20, Type (0, 0), BuildingBlock: XIVTED_clean_linker_0, # of connection points: 2
#     Edge 21, Type (0, 0), BuildingBlock: XIVTED_clean_linker_0, # of connection points: 2
#     Edge 22, Type (0, 0), BuildingBlock: XIVTED_clean_linker_0, # of connection points: 2
#     Edge 23, Type (0, 0), BuildingBlock: XIVTED_clean_linker_0, # of connection points: 2
#     Edge 24, Type (0, 0), BuildingBlock: XIVTED_clean_linker_0, # of connection points: 2
#     Edge 25, Type (0, 0), BuildingBlock: XIVTED_clean_linker_0, # of connection points: 2
#     Edge 26, Type (0, 0), BuildingBlock: XIVTED_clean_linker_0, # of connection points: 2
#     Edge 27, Type (0, 0), BuildingBlock: XIVTED_clean_linker_0, # of connection points: 2
#     Edge 28, Type (0, 0), BuildingBlock: XIVTED_clean_linker_0, # of connection points: 2
#     Edge 29, Type (0, 0), BuildingBlock: XIVTED_clean_linker_0, # of connection points: 2
#     Edge 30, Type (0, 0), BuildingBlock: XIVTED_clean_linker_0, # of connection points: 2
#     Edge 31, Type (0, 0), BuildingBlock: XIVTED_clean_linker_0, # of connection points: 2
#     Edge 32, Type (0, 0), BuildingBlock: XIVTED_clean_linker_0, # of connection points: 2
#     Edge 33, Type (0, 0), BuildingBlock: XIVTED_clean_linker_0, # of connection points: 2
#     Edge 34, Type (0, 0), BuildingBlock: XIVTED_clean_linker_0, # of connection points: 2
#     Edge 35, Type (0, 0), BuildingBlock: XIVTED_clean_linker_0, # of connection points: 2
#     Edge 36, Type (0, 0), BuildingBlock: XIVTED_clean_linker_0, # of connection points: 2
#     Edge 37, Type (0, 0), BuildingBlock: XIVTED_clean_linker_0, # of connection points: 2
#     Edge 38, Type (0, 0), BuildingBlock: XIVTED_clean_linker_0, # of connection points: 2
#     Edge 39, Type (0, 0), BuildingBlock: XIVTED_clean_linker_0, # of connection points: 2
#     Edge 40, Type (0, 0), BuildingBlock: XIVTED_clean_linker_0, # of connection points: 2
#     Edge 41, Type (0, 0), BuildingBlock: XIVTED_clean_linker_0, # of connection points: 2
#     Edge 42, Type (0, 0), BuildingBlock: XIVTED_clean_linker_0, # of connection points: 2
#     Edge 43, Type (0, 0), BuildingBlock: XIVTED_clean_linker_0, # of connection points: 2
#     Edge 44, Type (0, 0), BuildingBlock: XIVTED_clean_linker_0, # of connection points: 2
#     Edge 45, Type (0, 0), BuildingBlock: XIVTED_clean_linker_0, # of connection points: 2
#     Edge 46, Type (0, 0), BuildingBlock: XIVTED_clean_linker_0, # of connection points: 2
#     Edge 47, Type (0, 0), BuildingBlock: XIVTED_clean_linker_0, # of connection points: 2
#     Edge 48, Type (0, 0), BuildingBlock: XIVTED_clean_linker_0, # of connection points: 2
#     Edge 49, Type (0, 0), BuildingBlock: XIVTED_clean_linker_0, # of connection points: 2
#     Edge 50, Type (0, 0), BuildingBlock: XIVTED_clean_linker_0, # of connection points: 2
#     Edge 51, Type (0, 0), BuildingBlock: XIVTED_clean_linker_0, # of connection points: 2
#     Edge 52, Type (0, 0), BuildingBlock: XIVTED_clean_linker_0, # of connection points: 2
#     Edge 53, Type (0, 0), BuildingBlock: XIVTED_clean_linker_0, # of connection points: 2
#     Edge 54, Type (0, 0), BuildingBlock: XIVTED_clean_linker_0, # of connection points: 2
#     Edge 55, Type (0, 0), BuildingBlock: XIVTED_clean_linker_0, # of connection points: 2
#     Edge 56, Type (0, 0), BuildingBlock: XIVTED_clean_linker_0, # of connection points: 2
#     Edge 57, Type (0, 0), BuildingBlock: XIVTED_clean_linker_0, # of connection points: 2
#     Edge 58, Type (0, 0), BuildingBlock: XIVTED_clean_linker_0, # of connection points: 2
#     Edge 59, Type (0, 0), BuildingBlock: XIVTED_clean_linker_0, # of connection points: 2
#     Edge 60, Type (0, 0), BuildingBlock: XIVTED_clean_linker_0, # of connection points: 2
#     Edge 61, Type (0, 0), BuildingBlock: XIVTED_clean_linker_0, # of connection points: 2
#     Edge 62, Type (0, 0), BuildingBlock: XIVTED_clean_linker_0, # of connection points: 2
#     Edge 63, Type (0, 0), BuildingBlock: XIVTED_clean_linker_0, # of connection points: 2
#     Edge 64, Type (0, 0), BuildingBlock: XIVTED_clean_linker_0, # of connection points: 2
#     Edge 65, Type (0, 0), BuildingBlock: XIVTED_clean_linker_0, # of connection points: 2
#     Edge 66, Type (0, 0), BuildingBlock: XIVTED_clean_linker_0, # of connection points: 2
#     Edge 67, Type (0, 0), BuildingBlock: XIVTED_clean_linker_0, # of connection points: 2
#     Edge 68, Type (0, 0), BuildingBlock: XIVTED_clean_linker_0, # of connection points: 2
#     Edge 69, Type (0, 0), BuildingBlock: XIVTED_clean_linker_0, # of connection points: 2
#     Edge 70, Type (0, 0), BuildingBlock: XIVTED_clean_linker_0, # of connection points: 2
#     Edge 71, Type (0, 0), BuildingBlock: XIVTED_clean_linker_0, # of connection points: 2
#     Edge 72, Type (0, 0), BuildingBlock: XIVTED_clean_linker_0, # of connection points: 2
#     Edge 73, Type (0, 0), BuildingBlock: XIVTED_clean_linker_0, # of connection points: 2
#     Edge 74, Type (0, 0), BuildingBlock: XIVTED_clean_linker_0, # of connection points: 2
#     Edge 75, Type (0, 0), BuildingBlock: XIVTED_clean_linker_0, # of connection points: 2
#     Edge 76, Type (0, 0), BuildingBlock: XIVTED_clean_linker_0, # of connection points: 2
#     Edge 77, Type (0, 0), BuildingBlock: XIVTED_clean_linker_0, # of connection points: 2
#     Edge 78, Type (0, 0), BuildingBlock: XIVTED_clean_linker_0, # of connection points: 2
#     Edge 79, Type (0, 0), BuildingBlock: XIVTED_clean_linker_0, # of connection points: 2
#     Edge 80, Type (0, 0), BuildingBlock: XIVTED_clean_linker_0, # of connection points: 2
# Relax obj value: 0.426
# Max RMSD: 0.306
# Mean RMSD: 0.304
data_MOF--net-swd--node1-HICVOG_clean_sbu_0--edge1-XIVTED_clean_linker_0
_symmetry_space_group_name_H-M    P1
_symmetry_Int_Tables_number       1
_symmetry_cell_setting            triclinic
loop_
_symmetry_equiv_pos_as_xyz
'x, y, z'
_cell_length_a     50.020762
_cell_length_b     50.125519
_cell_length_c     34.173578
_cell_angle_alpha  89.918538
_cell_angle_beta   90.035559
_cell_angle_gamma 120.02858
loop_
_atom_site_label
_atom_site_type_symbol
_atom_site_fract_x
_atom_site_fract_y
_atom_site_fract_z
_atom_type_partial_charge
Zn0 Zn 0.22269 0.15212 0.34982 0.0
C1 C 0.2035 0.09453 0.43995 0.0
N2 N 0.20369 0.11768 0.45987 0.0
C3 C 0.21397 0.1404 0.43337 0.0
N4 N 0.21963 0.13182 0.39861 0.0
N5 N 0.21417 0.10328 0.40281 0.0
C6 C 0.19134 0.03033 0.3256 0.0
O7 O 0.20396 0.04802 0.29487 0.0
O8 O 0.23852 0.19726 0.35711 0.0
Zn9 Zn 0.23319 0.08611 0.36983 0.0
N10 N 0.18226 0.13233 0.32658 0.0
C11 C 0.14485 0.08988 0.28959 0.0
C12 C 0.17351 0.10528 0.30792 0.0
C13 C 0.16336 0.14454 0.32826 0.0
N14 N 0.126 0.10205 0.291 0.0
C15 C 0.13426 0.12895 0.31003 0.0
O16 O 0.25225 0.10689 0.31744 0.0
C17 C 0.25929 0.13144 0.29853 0.0
O18 O 0.25066 0.14998 0.3101 0.0
H19 H 0.18882 0.0959 0.30718 0.0
H20 H 0.17119 0.16629 0.343 0.0
C21 C 0.28735 0.08273 0.38352 0.0
C22 C 0.31521 0.08987 0.40202 0.0
C23 C 0.30453 0.11571 0.45219 0.0
C24 C 0.27748 0.10954 0.433 0.0
N25 N 0.26908 0.09262 0.39941 0.0
N26 N 0.32282 0.10582 0.43625 0.0
H27 H 0.28019 0.06971 0.35655 0.0
C28 C 0.26697 0.21318 0.36573 0.0
O29 O 0.28262 0.19895 0.3721 0.0
O30 O 0.20119 0.04119 0.35952 0.0
H31 H 0.26381 0.11874 0.44474 0.0
H32 H 0.1376 0.0684 0.2744 0.0
H33 H 0.31127 0.1288 0.47911 0.0
Zn34 Zn 0.89965 0.14491 0.38186 0.0
C35 C 0.8464 0.06912 0.4413 0.0
N36 N 0.86908 0.08213 0.46793 0.0
C37 C 0.89205 0.10486 0.44744 0.0
N38 N 0.88333 0.10646 0.41041 0.0
N39 N 0.85491 0.08307 0.40616 0.0
C40 C 0.77309 0.0506 0.36807 0.0
O41 O 0.78713 0.08056 0.37341 0.0
O42 O 0.94489 0.16126 0.37073 0.0
Zn43 Zn 0.83502 0.06689 0.35656 0.0
N44 N 0.89383 0.17252 0.4156 0.0
C45 C 0.87364 0.18444 0.47188 0.0
C46 C 0.87873 0.16372 0.45055 0.0
C47 C 0.90277 0.20073 0.40051 0.0
N48 N 0.88252 0.21266 0.45664 0.0
C49 C 0.8965 0.22117 0.42106 0.0
O50 O 0.83899 0.09867 0.31777 0.0
C51 C 0.85588 0.12696 0.30907 0.0
O52 O 0.87866 0.14502 0.33044 0.0
H53 H 0.86995 0.14073 0.46166 0.0
H54 H 0.91427 0.2068 0.37238 0.0
C55 C 0.84215 0.01508 0.33294 0.0
C56 C 0.85816 0.00203 0.31479 0.0
C57 C 0.8981 0.05218 0.29711 0.0
C58 C 0.88234 0.06497 0.31552 0.0
N59 N 0.85469 0.04626 0.33284 0.0
N60 N 0.8857 0.02114 0.29716 0.0
H61 H 0.81985 0.00075 0.34638 0.0
C62 C 0.95396 0.15982 0.33645 0.0
O63 O 0.93398 0.15024 0.30756 0.0
O64 O 0.78932 0.03802 0.36198 0.0
H65 H 0.89191 0.08965 0.31593 0.0
H66 H 0.86202 0.17788 0.49988 0.0
H67 H 0.92007 0.06678 0.28301 0.0
Zn68 Zn 0.91488 0.76095 0.35559 0.0
C69 C 0.87345 0.77618 0.44621 0.0
N70 N 0.89687 0.77712 0.4665 0.0
C71 C 0.91047 0.76806 0.44011 0.0
N72 N 0.8966 0.76222 0.40494 0.0
N73 N 0.87236 0.76597 0.40911 0.0
C74 C 0.8236 0.78881 0.33202 0.0
O75 O 0.83157 0.77814 0.30183 0.0
O76 O 0.94476 0.74548 0.36136 0.0
Zn77 Zn 0.83625 0.74637 0.37613 0.0
N78 N 0.93474 0.80201 0.33377 0.0
C79 C 0.92669 0.83979 0.30246 0.0
C80 C 0.91502 0.81086 0.31953 0.0
C81 C 0.96591 0.82112 0.33211 0.0
N82 N 0.95769 0.85885 0.30062 0.0
C83 C 0.97787 0.85055 0.31514 0.0
O84 O 0.83902 0.7281 0.32421 0.0
C85 C 0.85738 0.72289 0.30429 0.0
O86 O 0.88514 0.73319 0.31493 0.0
H87 H 0.89039 0.79538 0.32138 0.0
H88 H 0.98106 0.81327 0.34322 0.0
C89 C 0.77991 0.69084 0.3869 0.0
C90 C 0.75917 0.66261 0.40444 0.0
C91 C 0.79345 0.67446 0.45783 0.0
C92 C 0.81442 0.702 0.43968 0.0
N93 N 0.80697 0.70995 0.40489 0.0
N94 N 0.76631 0.65537 0.43984 0.0
H95 H 0.7749 0.69768 0.35904 0.0
C96 C 0.93241 0.71677 0.36804 0.0
O97 O 0.90242 0.70067 0.3737 0.0
O98 O 0.82222 0.7774 0.3657 0.0
H99 H 0.83652 0.71646 0.4532 0.0
H100 H 0.91125 0.84708 0.29081 0.0
H101 H 0.79891 0.66805 0.48568 0.0
Zn102 Zn 0.15128 0.22118 0.67883 0.0
C103 C 0.09038 0.19773 0.59134 0.0
N104 N 0.11347 0.19917 0.56979 0.0
C105 C 0.13683 0.20968 0.59554 0.0
N106 N 0.12862 0.21458 0.63105 0.0
N107 N 0.09963 0.20812 0.62821 0.0
C108 C 0.02863 0.18555 0.70035 0.0
O109 O 0.04898 0.19144 0.72815 0.0
O110 O 0.19673 0.23881 0.66932 0.0
Zn111 Zn 0.08292 0.22933 0.6577 0.0
N112 N 0.13482 0.18211 0.70553 0.0
C113 C 0.09826 0.14743 0.7515 0.0
C114 C 0.11095 0.17482 0.73037 0.0
C115 C 0.14649 0.16293 0.70055 0.0
N116 N 0.10994 0.12837 0.74685 0.0
C117 C 0.13371 0.13514 0.72183 0.0
O118 O 0.10455 0.25104 0.70853 0.0
C119 C 0.12962 0.25914 0.72695 0.0
O120 O 0.14813 0.25011 0.71636 0.0
H121 H 0.10205 0.19035 0.73389 0.0
H122 H 0.1658 0.16962 0.68097 0.0
C123 C 0.07733 0.28053 0.63994 0.0
C124 C 0.0825 0.30713 0.62002 0.0
C125 C 0.10747 0.29589 0.56921 0.0
C126 C 0.10344 0.27017 0.58998 0.0
N127 N 0.0878 0.26263 0.62457 0.0
N128 N 0.09701 0.31388 0.58472 0.0
H129 H 0.06548 0.27414 0.66783 0.0
C130 C 0.21227 0.26747 0.66194 0.0
O131 O 0.19759 0.2829 0.65762 0.0
O132 O 0.03763 0.20023 0.66825 0.0
H133 H 0.11333 0.25696 0.57875 0.0
H134 H 0.07932 0.14137 0.77153 0.0
H135 H 0.11947 0.30194 0.54145 0.0
Zn136 Zn 0.75042 0.83886 0.66285 0.0
C137 C 0.74143 0.89259 0.58213 0.0
N138 N 0.74489 0.87374 0.55724 0.0
C139 C 0.75099 0.85638 0.5814 0.0
N140 N 0.75067 0.86379 0.61921 0.0
N141 N 0.7457 0.88735 0.61981 0.0
C142 C 0.70638 0.92953 0.66282 0.0
O143 O 0.68924 0.89935 0.66408 0.0
O144 O 0.79133 0.84049 0.6695 0.0
Zn145 Zn 0.75193 0.91222 0.66627 0.0
N146 N 0.72065 0.79696 0.65132 0.0
C147 C 0.67593 0.75771 0.61946 0.0
C148 C 0.70004 0.78812 0.62131 0.0
C149 C 0.71796 0.77684 0.67969 0.0
N150 N 0.67262 0.7379 0.64864 0.0
C151 C 0.69309 0.74682 0.67877 0.0
O152 O 0.72917 0.88655 0.71289 0.0
C153 C 0.72457 0.86194 0.72957 0.0
O154 O 0.7334 0.84458 0.7141 0.0
H155 H 0.70126 0.80453 0.59998 0.0
H156 H 0.73378 0.7849 0.70423 0.0
C157 C 0.8139 0.96465 0.68275 0.0
C158 C 0.84442 0.97669 0.69633 0.0
C159 C 0.83597 0.92584 0.70235 0.0
C160 C 0.80579 0.91407 0.68942 0.0
N161 N 0.79528 0.93348 0.68 0.0
N162 N 0.85443 0.95674 0.70573 0.0
H163 H 0.80479 0.97964 0.67572 0.0
C164 C 0.80389 0.84097 0.70201 0.0
O165 O 0.7904 0.84139 0.73479 0.0
O166 O 0.73556 0.9416 0.66127 0.0
H167 H 0.79045 0.88958 0.68754 0.0
H168 H 0.65922 0.75027 0.59596 0.0
H169 H 0.84459 0.9106 0.71014 0.0
Zn170 Zn 0.15455 0.90127 0.64901 0.0
C171 C 0.08784 0.84717 0.57735 0.0
N172 N 0.10402 0.87022 0.55189 0.0
C173 C 0.12364 0.89297 0.57547 0.0
N174 N 0.12018 0.88405 0.61323 0.0
N175 N 0.09677 0.85554 0.61473 0.0
C176 C 0.05464 0.77537 0.65316 0.0
O177 O 0.08461 0.78809 0.64811 0.0
O178 O 0.16816 0.94633 0.65742 0.0
Zn179 Zn 0.07528 0.83761 0.66296 0.0
N180 N 0.18601 0.89561 0.62386 0.0
C181 C 0.20219 0.87201 0.5761 0.0
C182 C 0.18008 0.87846 0.5907 0.0
C183 C 0.21275 0.90543 0.6438 0.0
N184 N 0.22883 0.88171 0.59616 0.0
C185 C 0.23458 0.89786 0.63009 0.0
O186 O 0.10248 0.83834 0.70642 0.0
C187 C 0.12941 0.85573 0.71993 0.0
O188 O 0.14896 0.8798 0.70167 0.0
H189 H 0.15815 0.86878 0.57612 0.0
H190 H 0.21644 0.91849 0.67041 0.0
C191 C 0.02758 0.85273 0.68281 0.0
C192 C 0.01794 0.87272 0.6978 0.0
C193 C 0.0704 0.91107 0.70756 0.0
C194 C 0.07979 0.89126 0.69272 0.0
N195 N 0.05832 0.8625 0.68094 0.0
N196 N 0.03981 0.90134 0.7099 0.0
H197 H 0.01104 0.82959 0.67351 0.0
C198 C 0.16843 0.95689 0.69132 0.0
O199 O 0.16257 0.93886 0.72187 0.0
O200 O 0.04325 0.79279 0.65809 0.0
H201 H 0.10405 0.89856 0.69081 0.0
H202 H 0.19787 0.85866 0.54962 0.0
H203 H 0.08726 0.93398 0.71726 0.0
Zn204 Zn 0.89272 0.48718 0.69636 0.0
C205 C 0.88316 0.43198 0.78618 0.0
N206 N 0.88548 0.45495 0.80861 0.0
C207 C 0.89228 0.47739 0.78222 0.0
N208 N 0.89364 0.46851 0.7454 0.0
N209 N 0.88899 0.44023 0.74819 0.0
C210 C 0.86421 0.36681 0.67082 0.0
O211 O 0.87749 0.38453 0.64032 0.0
O212 O 0.90829 0.53257 0.70114 0.0
Zn213 Zn 0.90582 0.42201 0.71383 0.0
N214 N 0.85104 0.46502 0.67667 0.0
C215 C 0.81235 0.41805 0.64863 0.0
C216 C 0.84167 0.43585 0.66456 0.0
C217 C 0.8321 0.47719 0.67398 0.0
N218 N 0.79349 0.43014 0.64562 0.0
C219 C 0.80234 0.45923 0.65799 0.0
O220 O 0.92409 0.44331 0.66169 0.0
C221 C 0.92927 0.46722 0.64254 0.0
O222 O 0.91943 0.48474 0.65444 0.0
H223 H 0.85708 0.42665 0.66707 0.0
H224 H 0.84038 0.50062 0.68345 0.0
C225 C 0.95565 0.41167 0.72414 0.0
C226 C 0.98358 0.41635 0.73987 0.0
C227 C 0.98009 0.44688 0.79023 0.0
C228 C 0.95314 0.44335 0.77345 0.0
N229 N 0.94105 0.42522 0.74123 0.0
N230 N -0.00521 0.43347 0.77299 0.0
H231 H 0.94571 0.39796 0.69811 0.0
C232 C 0.93707 0.54863 0.70784 0.0
O233 O 0.95269 0.5344 0.71441 0.0
O234 O 0.87343 0.37756 0.70493 0.0
H235 H 0.94272 0.45578 0.78563 0.0
H236 H 0.80463 0.39483 0.63867 0.0
H237 H 0.98976 0.46091 0.8161 0.0
Zn238 Zn 0.56908 0.48439 0.70121 0.0
C239 C 0.51433 0.4144 0.76888 0.0
N240 N 0.5357 0.43162 0.79567 0.0
C241 C 0.5588 0.4525 0.77351 0.0
N242 N 0.55163 0.44874 0.735 0.0
N243 N 0.52381 0.42416 0.73197 0.0
C244 C 0.44231 0.38804 0.69427 0.0
O245 O 0.4561 0.41813 0.69815 0.0
O246 O 0.61377 0.49791 0.69006 0.0
Zn247 Zn 0.50437 0.40492 0.68319 0.0
N248 N 0.56525 0.51302 0.73444 0.0
C249 C 0.53251 0.51931 0.77918 0.0
C250 C 0.53652 0.50304 0.74906 0.0
C251 C 0.59019 0.53887 0.74815 0.0
N252 N 0.55734 0.54526 0.79286 0.0
C253 C 0.58629 0.55577 0.77832 0.0
O254 O 0.50731 0.43482 0.64174 0.0
C255 C 0.52344 0.46271 0.63076 0.0
O256 O 0.54668 0.4822 0.65042 0.0
H257 H 0.51714 0.48184 0.73844 0.0
H258 H 0.61245 0.54574 0.7354 0.0
C259 C 0.51209 0.35291 0.6617 0.0
C260 C 0.52903 0.34005 0.64558 0.0
C261 C 0.57079 0.39054 0.63314 0.0
C262 C 0.554 0.40307 0.64928 0.0
N263 N 0.52504 0.38413 0.66296 0.0
N264 N 0.55795 0.35947 0.63161 0.0
H265 H 0.48883 0.33847 0.67249 0.0
C266 C 0.62326 0.49427 0.65711 0.0
O267 O 0.60401 0.48404 0.62742 0.0
O268 O 0.45878 0.37558 0.68921 0.0
H269 H 0.56379 0.42775 0.65083 0.0
H270 H 0.50988 0.51145 0.79158 0.0
H271 H 0.59384 0.40534 0.62193 0.0
Zn272 Zn 0.58746 0.09874 0.68028 0.0
C273 C 0.55262 0.12872 0.76375 0.0
N274 N 0.57761 0.13297 0.78358 0.0
C275 C 0.59025 0.1213 0.7593 0.0
N276 N 0.57358 0.10997 0.72644 0.0
N277 N 0.54948 0.11399 0.72939 0.0
C278 C 0.50018 0.12979 0.65737 0.0
O279 O 0.51755 0.12435 0.63364 0.0
O280 O 0.61492 0.08129 0.69273 0.0
Zn281 Zn 0.51024 0.08859 0.70367 0.0
N282 N 0.6101 0.1354 0.64904 0.0
C283 C 0.60972 0.16565 0.59566 0.0
C284 C 0.59447 0.13985 0.61961 0.0
C285 C 0.64043 0.1559 0.65587 0.0
N286 N 0.63998 0.18605 0.60225 0.0
C287 C 0.65596 0.18212 0.63182 0.0
O288 O 0.50917 0.06513 0.65433 0.0
C289 C 0.5263 0.05742 0.63576 0.0
O290 O 0.55434 0.06783 0.64524 0.0
H291 H 0.57039 0.12336 0.61466 0.0
H292 H 0.65222 0.1514 0.67925 0.0
C293 C 0.45717 0.03488 0.72795 0.0
C294 C 0.43878 0.00923 0.75151 0.0
C295 C 0.47706 0.02926 0.80081 0.0
C296 C 0.49588 0.05406 0.77653 0.0
N297 N 0.48518 0.05682 0.74096 0.0
N298 N 0.44892 0.00732 0.78777 0.0
H299 H 0.44965 0.03728 0.6991 0.0
C300 C 0.60177 0.05338 0.70387 0.0
O301 O 0.57191 0.03886 0.71068 0.0
O302 O 0.49179 0.11522 0.68965 0.0
H303 H 0.51897 0.07034 0.78587 0.0
H304 H 0.59763 0.16947 0.572 0.0
H305 H 0.48509 0.02706 0.82938 0.0
Zn306 Zn 0.74085 0.5714 0.99104 0.0
C307 C 0.802 0.57461 0.91146 0.0
N308 N 0.78099 0.5731 0.88569 0.0
C309 C 0.75757 0.56888 0.90885 0.0
N310 N 0.76424 0.56856 0.9472 0.0
N311 N 0.79195 0.57128 0.9488 0.0
C312 C 0.87297 0.61081 0.98851 0.0
O313 O 0.85919 0.62723 0.98628 0.0
O314 O 0.70124 0.53151 1.00073 0.0
Zn315 Zn 0.81054 0.56523 0.99579 0.0
N316 N 0.73001 0.60185 0.97779 0.0
C317 C 0.73823 0.64716 0.94478 0.0
C318 C 0.74347 0.62244 0.94806 0.0
C319 C 0.71199 0.60519 1.00465 0.0
N320 N 0.72116 0.65114 0.97253 0.0
C321 C 0.70797 0.63074 1.00249 0.0
O322 O 0.80848 0.58849 0.04223 0.0
C323 C 0.78986 0.59549 0.05805 0.0
O324 O 0.76438 0.58881 0.04182 0.0
H325 H 0.75923 0.62073 0.92813 0.0
H326 H 0.70301 0.5894 0.02917 0.0
C327 C 0.80114 0.50354 1.01225 0.0
C328 C 0.7827 0.47289 0.02517 0.0
C329 C 0.74011 0.48116 0.03171 0.0
C330 C 0.75845 0.51143 0.01919 0.0
N331 N 0.78846 0.52207 1.00983 0.0
N332 N 0.75265 0.46273 0.03457 0.0
H333 H 0.82529 0.51281 1.00526 0.0
C334 C 0.68954 0.51913 0.03343 0.0
O335 O 0.70412 0.5324 0.06596 0.0
O336 O 0.85643 0.58167 0.99081 0.0
H337 H 0.74917 0.5267 0.01742 0.0
H338 H 0.7488 0.66383 0.92144 0.0
H339 H 0.71617 0.47243 0.03944 0.0
Zn340 Zn 0.41714 0.24535 0.99094 0.0
C341 C 0.42241 0.19545 0.90249 0.0
N342 N 0.41845 0.21481 0.8794 0.0
C343 C 0.41335 0.23194 0.90523 0.0
N344 N 0.4145 0.22377 0.94262 0.0
N345 N 0.41899 0.19992 0.94077 0.0
C346 C 0.45816 0.16627 0.0316 0.0
O347 O 0.4391 0.16114 0.0608 0.0
O348 O 0.40269 0.27619 0.98564 0.0
Zn349 Zn 0.41223 0.17102 0.98298 0.0
N350 N 0.45878 0.26374 1.01093 0.0
C351 C 0.49499 0.25341 0.04261 0.0
C352 C 0.4662 0.24312 0.02565 0.0
C353 C 0.47916 0.2946 1.01229 0.0
N354 N 0.51526 0.28409 0.04434 0.0
C355 C 0.50834 0.30518 0.02961 0.0
O356 O 0.39092 0.17416 0.03227 0.0
C357 C 0.38243 0.19165 0.04814 0.0
O358 O 0.38985 0.21776 0.03358 0.0
H359 H 0.44955 0.21887 0.02466 0.0
H360 H 0.47239 0.31052 1.00101 0.0
C361 C 0.37483 0.10863 0.99264 0.0
C362 C 0.349 0.07961 0.98691 0.0
C363 C 0.34166 0.09513 0.92424 0.0
C364 C 0.36658 0.12458 0.93084 0.0
N365 N 0.38277 0.13063 0.96487 0.0
N366 N 0.333 0.07349 0.95275 0.0
H367 H 0.38707 0.11461 0.02025 0.0
C368 C 0.37396 0.26419 0.97887 0.0
O369 O 0.35774 0.23442 0.97217 0.0
O370 O 0.45123 0.17104 0.99755 0.0
H371 H 0.37171 0.14249 0.90977 0.0
H372 H 0.50112 0.2372 0.0546 0.0
H373 H 0.32842 0.08993 0.89747 0.0
Zn374 Zn 0.73309 0.17309 0.02023 0.0
C375 C 0.76349 0.2355 0.93353 0.0
N376 N 0.73701 0.21409 0.91698 0.0
C377 C 0.72624 0.19057 0.94232 0.0
N378 N 0.74502 0.19709 0.97324 0.0
N379 N 0.76892 0.22509 0.96784 0.0
C380 C 0.813 0.29183 0.03334 0.0
O381 O 0.79302 0.26939 0.05577 0.0
O382 O 0.70395 0.1282 1.00942 0.0
Zn383 Zn 0.80824 0.23971 0.99434 0.0
N384 N 0.71267 0.18838 0.05358 0.0
C385 C 0.71429 0.21779 0.109 0.0
C386 C 0.7286 0.20665 0.0843 0.0
C387 C 0.68297 0.18082 0.04641 0.0
N388 N 0.68467 0.21034 0.10184 0.0
C389 C 0.66845 0.19221 0.07104 0.0
O390 O 0.81077 0.21903 0.0454 0.0
C391 C 0.79465 0.19309 0.06236 0.0
O392 O 0.76705 0.17459 0.05208 0.0
H393 H 0.75217 0.21244 0.08967 0.0
H394 H 0.67087 0.16571 0.02219 0.0
C395 C 0.86155 0.24945 0.94945 0.0
C396 C 0.87635 0.24176 0.92033 0.0
C397 C 0.82939 0.19573 0.90745 0.0
C398 C 0.81482 0.20345 0.93633 0.0
N399 N 0.83111 0.23025 0.95655 0.0
N400 N 0.85985 0.21489 0.90031 0.0
H401 H 0.87398 0.27015 0.96682 0.0
C402 C 0.71582 0.11214 0.99871 0.0
O403 O 0.74565 0.12606 0.9918 0.0
O404 O 0.82542 0.2853 1.00536 0.0
H405 H 0.79066 0.18815 0.94256 0.0
H406 H 0.72662 0.2323 0.13363 0.0
H407 H 0.8167 0.17451 0.89115 0.0
Zn408 Zn 0.55529 0.82085 0.02237 0.0
C409 C 0.54264 0.76374 0.11073 0.0
N410 N 0.54983 0.78788 0.13403 0.0
C411 C 0.55711 0.81064 0.10796 0.0
N412 N 0.55419 0.80081 0.07068 0.0
N413 N 0.54603 0.77139 0.07249 0.0
C414 C 0.51682 0.69722 0.99948 0.0
O415 O 0.52526 0.71564 0.96897 0.0
O416 O 0.57305 0.86666 0.02788 0.0
Zn417 Zn 0.56326 0.75225 0.04042 0.0
N418 N 0.51399 0.80137 1.0013 0.0
C419 C 0.47576 0.75866 0.96546 0.0
C420 C 0.50485 0.77428 0.9826 0.0
C421 C 0.49502 0.81348 1.00416 0.0
N422 N 0.4569 0.77077 0.96786 0.0
C423 C 0.46551 0.79776 0.98687 0.0
O424 O 0.58473 0.77381 0.98949 0.0
C425 C 0.59138 0.79845 0.9709 0.0
O426 O 0.58184 0.81636 0.98223 0.0
H427 H 0.52026 0.76508 0.98088 0.0
H428 H 0.50308 0.83525 0.01898 0.0
C429 C 0.5971 0.73034 0.08549 0.0
C430 C 0.61868 0.73356 0.11432 0.0
C431 C 0.63444 0.78671 0.11987 0.0
C432 C 0.61379 0.78351 0.09056 0.0
N433 N 0.59528 0.75536 0.07441 0.0
N434 N 0.63659 0.76185 0.13076 0.0
H435 H 0.58223 0.70866 0.07118 0.0
C436 C 0.60221 0.88253 0.03148 0.0
O437 O 0.61803 0.86814 0.03447 0.0
O438 O 0.53082 0.70751 0.03178 0.0
H439 H 0.61178 0.80311 0.08151 0.0
H440 H 0.46821 0.73712 0.95029 0.0
H441 H 0.64895 0.80883 0.13354 0.0
Zn442 Zn 0.22897 0.81519 0.04784 0.0
C443 C 0.17226 0.74844 0.11417 0.0
N444 N 0.19483 0.76414 0.14043 0.0
C445 C 0.21878 0.78244 0.11742 0.0
N446 N 0.21116 0.77857 0.0792 0.0
N447 N 0.18202 0.75646 0.07695 0.0
C448 C 0.10127 0.71971 0.0377 0.0
O449 O 0.11517 0.74958 0.04387 0.0
O450 O 0.27411 0.82915 0.0389 0.0
Zn451 Zn 0.16339 0.73748 0.02788 0.0
N452 N 0.22357 0.84274 0.08171 0.0
C453 C 0.19051 0.8486 0.12658 0.0
C454 C 0.19536 0.8312 0.09882 0.0
C455 C 0.24698 0.87132 0.09047 0.0
N456 N 0.21367 0.87744 0.13482 0.0
C457 C 0.24188 0.88952 0.11743 0.0
O458 O 0.16663 0.76783 0.98709 0.0
C459 C 0.18409 0.7956 0.97642 0.0
O460 O 0.20777 0.81406 0.99627 0.0
H461 H 0.17689 0.80841 0.09138 0.0
H462 H 0.26871 0.87991 0.07524 0.0
C463 C 0.17562 0.68791 1.00764 0.0
C464 C 0.19408 0.67694 0.99105 0.0
C465 C 0.23236 0.72841 0.97579 0.0
C466 C 0.21408 0.7391 0.99224 0.0
N467 N 0.18606 0.71876 1.00748 0.0
N468 N 0.22193 0.6977 0.97545 0.0
H469 H 0.15313 0.67227 0.01984 0.0
C470 C 0.28448 0.82902 1.00499 0.0
O471 O 0.26605 0.82224 0.97467 0.0
O472 O 0.11774 0.70733 0.03192 0.0
H473 H 0.222 0.76349 0.99277 0.0
H474 H 0.16832 0.83956 0.1408 0.0
H475 H 0.25466 0.74435 0.96336 0.0
Zn476 Zn 0.16551 0.41325 0.03703 0.0
C477 C 0.22298 0.41031 0.11616 0.0
N478 N 0.20472 0.41446 0.14137 0.0
C479 C 0.18702 0.42023 0.11738 0.0
N480 N 0.19358 0.41889 0.07942 0.0
N481 N 0.21715 0.41393 0.07851 0.0
C482 C 0.25973 0.37628 0.03783 0.0
O483 O 0.22947 0.35966 0.03969 0.0
O484 O 0.16126 0.451 0.02995 0.0
Zn485 Zn 0.24209 0.42085 0.03194 0.0
N486 N 0.12615 0.37884 0.05134 0.0
C487 C 0.09402 0.33329 0.08778 0.0
C488 C 0.12165 0.36099 0.08351 0.0
C489 C 0.10431 0.36986 0.02308 0.0
N490 N 0.07254 0.32397 0.05901 0.0
C491 C 0.07705 0.34151 0.02658 0.0
O492 O 0.21704 0.39799 0.98495 0.0
C493 C 0.19168 0.39163 0.96873 0.0
O494 O 0.17284 0.39817 0.98505 0.0
H495 H 0.13959 0.36711 0.10487 0.0
H496 H 0.10917 0.3838 0.99696 0.0
C497 C 0.29331 0.48372 0.01696 0.0
C498 C 0.30464 0.5144 1.00468 0.0
C499 C 0.25311 0.50435 0.99834 0.0
C500 C 0.24205 0.47407 1.01014 0.0
N501 N 0.26218 0.46425 0.01899 0.0
N502 N 0.284 0.52366 0.99565 0.0
H503 H 0.30885 0.4752 0.0237 0.0
C504 C 0.16296 0.46369 0.99714 0.0
O505 O 0.16704 0.4516 0.9652 0.0
O506 O 0.27226 0.40545 0.03673 0.0
H507 H 0.21754 0.4582 1.0118 0.0
H508 H 0.09012 0.31878 0.11307 0.0
H509 H 0.23729 0.5124 0.991 0.0
Zn510 Zn 0.41599 0.90432 0.31856 0.0
C511 C 0.47087 0.8868 0.25395 0.0
N512 N 0.44789 0.8763 0.22776 0.0
C513 C 0.42451 0.87511 0.24846 0.0
N514 N 0.43335 0.88539 0.28565 0.0
N515 N 0.46218 0.89143 0.28928 0.0
C516 C 0.54396 0.93856 0.3264 0.0
O517 O 0.52989 0.95451 0.32129 0.0
O518 O 0.37086 0.87269 0.32802 0.0
Zn519 Zn 0.48207 0.89311 0.33811 0.0
N520 N 0.4225 0.94011 0.28891 0.0
C521 C 0.44551 0.97549 0.23603 0.0
C522 C 0.43947 0.94856 0.2553 0.0
C523 C 0.41241 0.95823 0.30471 0.0
N524 N 0.43544 -0.00637 0.25189 0.0
C525 C 0.41942 0.98597 0.28612 0.0
O526 O 0.4788 0.91974 0.37856 0.0
C527 C 0.4608 0.92899 0.39036 0.0
O528 O 0.43654 0.92302 0.37134 0.0
H529 H 0.44885 0.93505 0.24361 0.0
H530 H 0.39934 0.95104 0.33168 0.0
C531 C 0.47402 0.83317 0.35831 0.0
C532 C 0.45763 0.80362 0.37519 0.0
C533 C 0.41802 0.81394 0.39423 0.0
C534 C 0.43417 0.84299 0.37713 0.0
N535 N 0.46184 0.8521 0.35978 0.0
N536 N 0.43009 0.79501 0.3929 0.0
H537 H 0.49631 0.84124 0.34479 0.0
C538 C 0.36065 0.8607 0.36141 0.0
O539 O 0.37918 0.87097 0.39179 0.0
O540 O 0.52774 0.90975 0.33245 0.0
H541 H 0.42488 0.85835 0.37775 0.0
H542 H 0.45865 0.98226 0.20911 0.0
H543 H 0.39602 0.80642 0.40834 0.0
Zn544 Zn 0.08974 0.5837 0.33936 0.0
C545 C 0.10372 0.54134 0.24892 0.0
N546 N 0.10276 0.56355 0.2281 0.0
C547 C 0.094 0.57727 0.25465 0.0
N548 N 0.09021 0.56467 0.29042 0.0
N549 N 0.09492 0.54105 0.28664 0.0
C550 C 0.12158 0.49551 0.36511 0.0
O551 O 0.11054 0.50294 0.39542 0.0
O552 O 0.07366 0.61306 0.33357 0.0
Zn553 Zn 0.07732 0.50592 0.32162 0.0
N554 N 0.13121 0.60426 0.36 0.0
C555 C 0.16959 0.59765 0.39238 0.0
C556 C 0.1404 0.58524 0.37569 0.0
C557 C 0.15025 0.6354 0.35974 0.0
N558 N 0.18856 0.62865 0.39239 0.0
C559 C 0.17991 0.64808 0.37633 0.0
O560 O 0.05953 0.50911 0.37414 0.0
C561 C 0.05376 0.52747 0.39313 0.0
O562 O 0.06296 0.55464 0.38101 0.0
H563 H 0.12496 0.56061 0.37537 0.0
H564 H 0.14217 0.65001 0.34749 0.0
C565 C 0.02325 0.44769 0.31293 0.0
C566 C -0.00541 0.42617 0.29693 0.0
C567 C 0.00286 0.46039 0.24445 0.0
C568 C 0.03072 0.48208 0.26119 0.0
N569 N 0.04067 0.4751 0.29475 0.0
N570 N 0.98539 0.433 0.26272 0.0
H571 H 0.03171 0.44311 0.33979 0.0
C572 C 0.04486 0.60053 0.32712 0.0
O573 O 0.02885 0.57056 0.32181 0.0
O574 O 0.10981 0.49366 0.33154 0.0
H575 H 0.04372 0.50441 0.24772 0.0
H576 H 0.17714 0.58279 0.4052 0.0
H577 H -0.00517 0.46551 0.21762 0.0
Zn578 Zn 0.4764 0.56838 0.3108 0.0
C579 C 0.40113 0.5123 0.25025 0.0
N580 N 0.41299 0.53434 0.22285 0.0
C581 C 0.43641 0.55795 0.24169 0.0
N582 N 0.4393 0.55005 0.2789 0.0
N583 N 0.41603 0.52175 0.2846 0.0
C584 C 0.38173 0.44175 0.3258 0.0
O585 O 0.41171 0.45539 0.32024 0.0
O586 O 0.48846 0.61278 0.32195 0.0
Zn587 Zn 0.39911 0.50371 0.33481 0.0
N588 N 0.5067 0.5639 0.28029 0.0
C589 C 0.52156 0.54528 0.22506 0.0
C590 C 0.49995 0.55026 0.24437 0.0
C591 C 0.53376 0.57157 0.2982 0.0
N592 N 0.5486 0.55292 0.24305 0.0
C593 C 0.55512 0.56551 0.27947 0.0
O594 O 0.42994 0.50702 0.37411 0.0
C595 C 0.45797 0.52436 0.38359 0.0
O596 O 0.47594 0.54765 0.36287 0.0
H597 H 0.47793 0.5427 0.23077 0.0
H598 H 0.53823 0.58196 0.32694 0.0
C599 C 0.3482 0.51277 0.35725 0.0
C600 C 0.33573 0.53004 0.37331 0.0
C601 C 0.38651 0.57062 0.38726 0.0
C602 C 0.3987 0.55361 0.37082 0.0
N603 N 0.37939 0.52507 0.35634 0.0
N604 N 0.35543 0.5585 0.38811 0.0
H605 H 0.33339 0.48976 0.34616 0.0
C606 C 0.48882 0.62298 0.35609 0.0
O607 O 0.48335 0.60482 0.3864 0.0
O608 O 0.3694 0.45827 0.33121 0.0
H609 H 0.42339 0.56295 0.36963 0.0
H610 H 0.51663 0.53481 0.19635 0.0
H611 H 0.4016 0.59334 0.39909 0.0
H612 H 0.28202 0.09799 0.26096 0.0
H613 H 0.35948 0.22272 0.08877 0.0
H614 H 0.2786 0.18218 0.25206 0.0
H615 H 0.363 0.13839 0.09135 0.0
H616 H 0.32993 0.20744 0.14918 0.0
H617 H 0.31186 0.11163 0.19977 0.0
C618 C 0.2875 0.11929 0.24626 0.0
C619 C 0.27766 0.1389 0.26181 0.0
C620 C 0.33709 0.19217 0.13666 0.0
C621 C 0.31177 0.1546 0.19186 0.0
C622 C 0.35404 0.20092 0.10199 0.0
C623 C 0.36388 0.18187 0.08478 0.0
C624 C 0.32975 0.1641 0.15466 0.0
C625 C 0.35595 0.15384 0.10352 0.0
C626 C 0.30452 0.12704 0.21132 0.0
C627 C 0.28553 0.16623 0.24139 0.0
N628 N 0.33938 0.14581 0.13747 0.0
N629 N 0.30202 0.17318 0.20768 0.0
H630 H 0.88583 0.18597 0.27789 0.0
H631 H 0.77154 0.13581 0.09352 0.0
H632 H 0.81004 0.09413 0.25624 0.0
H633 H 0.84525 0.22954 0.10955 0.0
H634 H 0.78781 0.12086 0.1523 0.0
H635 H 0.87341 0.20313 0.21647 0.0
C636 C 0.86663 0.16942 0.26035 0.0
C637 C 0.84897 0.1385 0.27244 0.0
C638 C 0.80063 0.14473 0.14313 0.0
C639 C 0.83478 0.15799 0.20214 0.0
C640 C 0.79131 0.15335 0.10935 0.0
C641 C 0.80689 0.1841 0.09651 0.0
C642 C 0.82576 0.16692 0.16485 0.0
C643 C 0.83256 0.20558 0.1183 0.0
C644 C 0.8596 0.17925 0.22527 0.0
C645 C 0.82438 0.11817 0.2484 0.0
N646 N 0.8411 0.19663 0.1516 0.0
N647 N 0.81811 0.12826 0.21466 0.0
H648 H 0.79988 0.69718 0.26975 0.0
H649 H 0.84358 0.61597 0.0992 0.0
H650 H 0.88931 0.70481 0.25654 0.0
H651 H 0.75691 0.61526 0.10222 0.0
H652 H 0.85917 0.6463 0.15904 0.0
H653 H 0.78241 0.66535 0.21052 0.0
C654 C 0.81587 0.69226 0.25444 0.0
C655 C 0.84619 0.70385 0.26822 0.0
C656 C 0.8367 0.63951 0.14673 0.0
C657 C 0.82624 0.66726 0.20051 0.0
C658 C 0.82771 0.62205 0.11249 0.0
C659 C 0.79884 0.61296 0.09545 0.0
C660 C 0.81675 0.64806 0.16442 0.0
C661 C 0.77938 0.62171 0.11423 0.0
C662 C 0.80585 0.67406 0.22062 0.0
C663 C 0.86578 0.69655 0.24712 0.0
N664 N 0.7887 0.63878 0.14767 0.0
N665 N 0.85547 0.67877 0.2145 0.0
H666 H 0.09617 0.28273 0.76243 0.0
H667 H 0.22616 0.37404 0.92523 0.0
H668 H 0.18239 0.28284 0.77066 0.0
H669 H 0.13766 0.36955 0.92641 0.0
H670 H 0.21102 0.34313 0.86588 0.0
H671 H 0.11126 0.31654 0.81997 0.0
C672 C 0.11822 0.2898 0.77624 0.0
C673 C 0.13794 0.27972 0.76163 0.0
C674 C 0.19488 0.34894 0.87896 0.0
C675 C 0.15538 0.31854 0.82735 0.0
C676 C 0.20357 0.36673 0.91293 0.0
C677 C 0.18319 0.37447 0.93107 0.0
C678 C 0.1655 0.33862 0.86269 0.0
C679 C 0.15419 0.3642 0.91351 0.0
C680 C 0.12682 0.30912 0.80909 0.0
C681 C 0.16628 0.2898 0.78077 0.0
N682 N 0.14618 0.34674 0.88038 0.0
N683 N 0.17407 0.30854 0.81246 0.0
H684 H 0.70565 0.8087 0.77225 0.0
H685 H 0.61203 0.8506 0.92685 0.0
H686 H 0.7025 0.89326 0.77155 0.0
H687 H 0.6165 0.76688 0.93419 0.0
H688 H 0.64524 0.8659 0.86969 0.0
H689 H 0.67368 0.79266 0.83147 0.0
C690 C 0.69846 0.82401 0.78463 0.0
C691 C 0.70684 0.85243 0.76676 0.0
C692 C 0.63904 0.84416 0.88369 0.0
C693 C 0.67007 0.83404 0.83439 0.0
C694 C 0.61992 0.83531 0.91644 0.0
C695 C 0.6113 0.8073 0.93552 0.0
C696 C 0.64979 0.82496 0.86952 0.0
C697 C 0.62249 0.78865 0.92047 0.0
C698 C 0.68014 0.81476 0.8184 0.0
C699 C 0.69668 0.87117 0.78412 0.0
N700 N 0.64114 0.7978 0.88832 0.0
N701 N 0.67884 0.86161 0.81678 0.0
H702 H 0.21882 0.85059 0.93704 0.0
H703 H 0.0944 0.80471 0.76488 0.0
H704 H 0.13256 0.76452 0.93088 0.0
H705 H 0.18357 0.88778 0.762 0.0
H706 H 0.10789 0.79115 0.82721 0.0
H707 H 0.20615 0.86613 0.87475 0.0
C708 C 0.1972 0.83501 0.92275 0.0
C709 C 0.17677 0.80615 0.93933 0.0
C710 C 0.12458 0.81236 0.81306 0.0
C711 C 0.16218 0.82381 0.86804 0.0
C712 C 0.11687 0.82019 0.77732 0.0
C713 C 0.13785 0.8475 0.75798 0.0
C714 C 0.15353 0.83194 0.82998 0.0
C715 C 0.16664 0.86649 0.77579 0.0
C716 C 0.19004 0.84388 0.88713 0.0
C717 C 0.14913 0.78692 0.91932 0.0
N718 N 0.17362 0.85838 0.8108 0.0
N719 N 0.14271 0.7961 0.8849 0.0
H720 H 0.03122 0.47197 0.43233 0.0
H721 H 0.94782 0.51845 0.59709 0.0
H722 H 0.03445 0.5596 0.43825 0.0
H723 H 0.95236 0.43476 0.6035 0.0
H724 H 0.97776 0.53216 0.53698 0.0
H725 H 0.00083 0.45636 0.49308 0.0
C726 C 0.02563 0.48794 0.44633 0.0
C727 C 0.03554 0.51721 0.43003 0.0
C728 C 0.97228 0.51077 0.55143 0.0
C729 C 0.00067 0.4994 0.49942 0.0
C730 C 0.95505 0.50285 0.58587 0.0
C731 C 0.94744 0.47534 0.60559 0.0
C732 C 0.98208 0.49109 0.53612 0.0
C733 C 0.95766 0.4562 0.58938 0.0
C734 C 0.00829 0.479 0.48102 0.0
C735 C 0.02749 0.53685 0.44955 0.0
N736 N 0.97442 0.46441 0.55557 0.0
N737 N 0.01057 0.52758 0.48298 0.0
H738 H 0.47171 0.42926 0.58638 0.0
H739 H 0.51495 0.55743 0.41983 0.0
H740 H 0.55488 0.51819 0.59121 0.0
H741 H 0.42704 0.47341 0.42975 0.0
H742 H 0.532 0.54327 0.47998 0.0
H743 H 0.45707 0.44478 0.52641 0.0
C744 C 0.48699 0.4521 0.57485 0.0
C745 C 0.51461 0.47242 0.59409 0.0
C746 C 0.50899 0.52804 0.46889 0.0
C747 C 0.49782 0.49048 0.52478 0.0
C748 C 0.49925 0.53607 0.43454 0.0
C749 C 0.46944 0.51667 0.41964 0.0
C750 C 0.48885 0.50033 0.48826 0.0
C751 C 0.45016 0.48925 0.44001 0.0
C752 C 0.47854 0.461 0.54049 0.0
C753 C 0.53332 0.50177 0.57751 0.0
N754 N 0.46019 0.48196 0.47304 0.0
N755 N 0.52462 0.50991 0.54377 0.0
H756 H 0.47005 0.03536 0.59826 0.0
H757 H 0.51136 0.94608 0.43633 0.0
H758 H 0.55488 0.03254 0.59381 0.0
H759 H 0.42896 0.95324 0.42904 0.0
H760 H 0.52541 0.97568 0.49632 0.0
H761 H 0.45244 0.00331 0.53897 0.0
C762 C 0.48491 0.02794 0.58502 0.0
C763 C 0.51409 0.03684 0.60109 0.0
C764 C 0.50421 0.97086 0.48178 0.0
C765 C 0.49407 0.00023 0.53335 0.0
C766 C 0.49609 0.95384 0.44732 0.0
C767 C 0.46886 0.94706 0.42733 0.0
C768 C 0.48509 0.98143 0.49689 0.0
C769 C 0.45017 0.95791 0.44338 0.0
C770 C 0.47486 0.00972 0.55113 0.0
C771 C 0.5323 0.02649 0.58258 0.0
N772 N 0.45864 0.97459 0.47724 0.0
N773 N 0.52201 0.00888 0.54988 0.0
H774 H 0.16627 0.07166 0.50276 0.0
H775 H 0.1606 0.91067 0.51116 0.0
H776 H 0.22028 0.04973 0.42498 0.0
H777 H 0.12906 0.94568 0.60453 0.0
H778 H 0.18347 0.9611 0.47869 0.0
H779 H 0.1522 0.02502 0.53951 0.0
C780 C 0.17513 0.057 0.49301 0.0
C781 C 0.1942 0.0647 0.45982 0.0
C782 C 0.17223 0.958 0.50675 0.0
C783 C 0.17796 0.01074 0.50227 0.0
C784 C 0.1594 0.92936 0.52534 0.0
C785 C 0.14371 0.92445 0.56096 0.0
C786 C 0.16851 0.98151 0.52349 0.0
C787 C 0.14193 0.94894 0.57777 0.0
C788 C 0.1671 0.03033 0.51425 0.0
C789 C 0.2048 0.0446 0.44905 0.0
N790 N 0.15386 0.97633 0.55865 0.0
N791 N 0.19642 0.01846 0.47005 0.0
H792 H 0.03199 0.1603 0.61949 0.0
H793 H 0.95007 0.1263 0.41804 0.0
H794 H 0.08172 0.21557 0.51984 0.0
H795 H 0.90135 0.12812 0.52092 0.0
H796 H -0.00102 0.15482 0.45395 0.0
H797 H 0.98325 0.14328 0.58411 0.0
C798 C 0.03251 0.16994 0.59096 0.0
C799 C 0.06069 0.19042 0.57325 0.0
C800 C 0.97761 0.14977 0.46819 0.0
C801 C 0.00561 0.16955 0.53177 0.0
C802 C 0.94985 0.1341 0.44747 0.0
C803 C 0.92189 0.12624 0.46595 0.0
C804 C 0.97714 0.15651 0.50798 0.0
C805 C 0.92256 0.13434 0.50543 0.0
C806 C 0.00484 0.15986 0.57056 0.0
C807 C 0.06035 0.20017 0.53477 0.0
N808 N 0.94971 0.14872 0.52532 0.0
N809 N 0.03327 0.18941 0.51512 0.0
H810 H 0.80598 0.86334 0.60254 0.0
H811 H 0.81116 0.7575 0.43154 0.0
H812 H 0.72986 0.81275 0.52377 0.0
H813 H 0.88815 0.81629 0.50559 0.0
H814 H 0.77939 0.77387 0.46638 0.0
H815 H 0.83407 0.84125 0.57095 0.0
C816 C 0.79461 0.84632 0.5798 0.0
C817 C 0.76508 0.83863 0.56694 0.0
C818 C 0.8033 0.78322 0.47484 0.0
C819 C 0.7978 0.81471 0.52866 0.0
C820 C 0.82169 0.77413 0.45442 0.0
C821 C 0.8527 0.78576 0.46482 0.0
C822 C 0.816 0.80393 0.50621 0.0
C823 C 0.86438 0.80655 0.49627 0.0
C824 C 0.81092 0.83426 0.56104 0.0
C825 C 0.75237 0.81856 0.53505 0.0
N826 N 0.84612 0.81491 0.51572 0.0
N827 N 0.76882 0.80723 0.51688 0.0
H828 H 0.81247 0.01084 0.41214 0.0
H829 H 0.77443 0.95184 0.6077 0.0
H830 H 0.81207 0.07294 0.49868 0.0
H831 H 0.70944 0.89443 0.51961 0.0
H832 H 0.78471 -0.00272 0.56997 0.0
H833 H 0.77038 0.96759 0.44735 0.0
C834 C 0.80238 0.01542 0.43737 0.0
C835 C 0.81539 0.04517 0.45261 0.0
C836 C 0.76712 0.97481 0.55973 0.0
C837 C 0.76898 -0.00368 0.49396 0.0
C838 C 0.76093 0.94891 0.58165 0.0
C839 C 0.74052 0.91953 0.56719 0.0
C840 C 0.75407 0.97099 0.52228 0.0
C841 C 0.72526 0.91689 0.53168 0.0
C842 C 0.77854 0.99085 0.45763 0.0
C843 C 0.80247 0.05007 0.4863 0.0
N844 N 0.7331 0.9423 0.50966 0.0
N845 N 0.78055 0.02574 0.50667 0.0
H846 H 0.08898 0.81208 0.5189 0.0
H847 H 0.96879 0.7944 0.41022 0.0
H848 H 0.02819 0.81866 0.60262 0.0
H849 H 0.90883 0.73173 0.49856 0.0
H850 H 0.01318 0.79726 0.44437 0.0
H851 H 0.04405 0.77658 0.47975 0.0
C852 C 0.06603 0.80475 0.52998 0.0
C853 C 0.06199 0.818 0.56396 0.0
C854 C 0.99017 0.78165 0.45523 0.0
C855 C 0.01118 0.77819 0.51952 0.0
C856 C 0.96494 0.78 0.4356 0.0
C857 C 0.93543 0.76257 0.4515 0.0
C858 C 0.98559 0.76682 0.49165 0.0
C859 C 0.93149 0.74537 0.48556 0.0
C860 C 0.04059 0.78472 0.5076 0.0
C861 C 0.03207 0.80834 0.57704 0.0
N862 N 0.95646 0.74873 0.50536 0.0
N863 N 0.00764 0.78924 0.55435 0.0
H864 H 0.1686 0.25729 0.54696 0.0
H865 H 0.18797 0.17497 0.41305 0.0
H866 H 0.17486 0.18654 0.61085 0.0
H867 H 0.25917 0.17489 0.48372 0.0
H868 H 0.1885 0.21423 0.4558 0.0
H869 H 0.20749 0.26035 0.50083 0.0
C870 C 0.1795 0.24363 0.55244 0.0
C871 C 0.16842 0.22126 0.58209 0.0
C872 C 0.2053 0.20698 0.46078 0.0
C873 C 0.21202 0.22429 0.52963 0.0
C874 C 0.20497 0.18461 0.43622 0.0
C875 C 0.2234 0.17183 0.44527 0.0
C876 C 0.22311 0.21515 0.49529 0.0
C877 C 0.24449 0.1843 0.47626 0.0
C878 C 0.20148 0.24531 0.52606 0.0
C879 C 0.18285 0.20392 0.58814 0.0
N880 N 0.24287 0.20439 0.5013 0.0
N881 N 0.20358 0.2053 0.56141 0.0
H882 H 0.74597 0.2613 0.87699 0.0
H883 H 0.90406 0.41609 0.8506 0.0
H884 H 0.82737 0.27611 0.93833 0.0
H885 H 0.83513 0.37831 0.75993 0.0
H886 H 0.8769 0.36676 0.88582 0.0
H887 H 0.77785 0.30641 0.83705 0.0
C888 C 0.77059 0.27408 0.88256 0.0
C889 C 0.78382 0.2648 0.91212 0.0
C890 C 0.86817 0.36902 0.85774 0.0
C891 C 0.82067 0.31698 0.86598 0.0
C892 C 0.88372 0.39701 0.83758 0.0
C893 C 0.8721 0.40086 0.80198 0.0
C894 C 0.84027 0.34518 0.84272 0.0
C895 C 0.84528 0.37588 0.78672 0.0
C896 C 0.78879 0.29982 0.85943 0.0
C897 C 0.81585 0.28255 0.9174 0.0
N898 N 0.82997 0.34922 0.80748 0.0
N899 N 0.8332 0.30791 0.89484 0.0
H900 H 0.74535 0.59159 0.84306 0.0
H901 H 0.56445 0.4847 0.83987 0.0
H902 H 0.70136 0.52322 0.93297 0.0
H903 H 0.61809 0.47358 0.74964 0.0
H904 H 0.61257 0.51994 0.87444 0.0
H905 H 0.69576 0.56894 0.80781 0.0
C906 C 0.72495 0.57277 0.85635 0.0
C907 C 0.727 0.56025 0.8923 0.0
C908 C 0.61365 0.51059 0.84631 0.0
C909 C 0.67077 0.53468 0.85245 0.0
C910 C 0.5864 0.49053 0.82666 0.0
C911 C 0.58749 0.47729 0.79096 0.0
C912 C 0.64205 0.5176 0.82987 0.0
C913 C 0.6164 0.48499 0.77552 0.0
C914 C 0.69689 0.5599 0.83619 0.0
C915 C 0.70019 0.53521 0.90752 0.0
N916 N 0.64267 0.50472 0.79507 0.0
N917 N 0.67311 0.52319 0.88756 0.0
H918 H 0.4685 0.18768 0.93236 0.0
H919 H 0.52305 0.15822 0.7355 0.0
H920 H 0.40811 0.165 0.83313 0.0
H921 H 0.53092 0.11239 0.83773 0.0
H922 H 0.48526 0.16727 0.77044 0.0
H923 H 0.4956 0.16473 0.89956 0.0
C924 C 0.45967 0.17605 0.90488 0.0
C925 C 0.43487 0.1765 0.8866 0.0
C926 C 0.49458 0.15436 0.78463 0.0
C927 C 0.46781 0.15344 0.84692 0.0
C928 C 0.51566 0.14879 0.76453 0.0
C929 C 0.52857 0.13295 0.78294 0.0
C930 C 0.48744 0.14504 0.82381 0.0
C931 C 0.52079 0.12401 0.82218 0.0
C932 C 0.47573 0.16384 0.88556 0.0
C933 C 0.42672 0.16443 0.84859 0.0
N934 N 0.50087 0.13034 0.84145 0.0
N935 N 0.44348 0.15383 0.82969 0.0
H936 H 0.47772 0.41594 0.82508 0.0
H937 H 0.44534 0.29026 0.93439 0.0
H938 H 0.48485 0.35487 0.74257 0.0
H939 H 0.38257 0.2356 0.84284 0.0
H940 H 0.45614 0.33692 0.89877 0.0
H941 H 0.43911 0.37121 0.86187 0.0
C942 C 0.47009 0.39303 0.81381 0.0
C943 C 0.48435 0.38881 0.78095 0.0
C944 C 0.43886 0.31473 0.8874 0.0
C945 C 0.44082 0.33815 0.82274 0.0
C946 C 0.43244 0.28817 0.90802 0.0
C947 C 0.41245 0.25926 0.89198 0.0
C948 C 0.42623 0.31204 0.84986 0.0
C949 C 0.39792 0.25768 0.8562 0.0
C950 C 0.44825 0.36771 0.83485 0.0
C951 C 0.47403 0.3589 0.76751 0.0
N952 N 0.4059 0.28374 0.83558 0.0
N953 N 0.45307 0.33449 0.78893 0.0
H954 H 0.57505 0.07146 0.80321 0.0
H955 H 0.66382 0.15816 0.95183 0.0
H956 H 0.65307 0.15205 0.75451 0.0
H957 H 0.74001 0.15537 0.89757 0.0
H958 H 0.62909 0.12152 0.90308 0.0
H959 H 0.60819 0.07078 0.85566 0.0
C960 C 0.59962 0.0878 0.80218 0.0
C961 C 0.61155 0.11198 0.77489 0.0
C962 C 0.65315 0.12758 0.90313 0.0
C963 C 0.64907 0.11132 0.83425 0.0
C964 C 0.67286 0.1483 0.93118 0.0
C965 C 0.70459 0.15946 0.92866 0.0
C966 C 0.66573 0.11948 0.87161 0.0
C967 C 0.71549 0.14698 0.90033 0.0
C968 C 0.61833 0.08749 0.83222 0.0
C969 C 0.64321 0.13303 0.77504 0.0
N970 N 0.69631 0.12875 0.87161 0.0
N971 N 0.66091 0.13259 0.80493 0.0
H972 H 0.82591 0.54028 0.93993 0.0
H973 H 0.92694 0.51342 0.84117 0.0
H974 H 0.8376 0.60505 0.84929 0.0
H975 H 0.8622 0.50569 0.75249 0.0
H976 H 0.91794 0.55093 0.87593 0.0
H977 H 0.86382 0.53092 0.90737 0.0
C978 C 0.83778 0.5538 0.91442 0.0
C979 C 0.82959 0.57424 0.89802 0.0
C980 C 0.90679 0.54198 0.84799 0.0
C981 C 0.87104 0.5621 0.8591 0.0
C982 C 0.91191 0.52077 0.82815 0.0
C983 C 0.89526 0.50673 0.79402 0.0
C984 C 0.88478 0.54887 0.83348 0.0
C985 C 0.8758 0.51651 0.77836 0.0
C986 C 0.85916 0.54826 0.89556 0.0
C987 C 0.8438 0.58941 0.86303 0.0
N988 N 0.87065 0.53679 0.79865 0.0
N989 N 0.86321 0.58232 0.84397 0.0
H990 H 0.41825 0.57883 0.18046 0.0
H991 H 0.56551 0.74717 0.17283 0.0
H992 H 0.49719 0.60576 0.25503 0.0
H993 H 0.49401 0.71033 0.08525 0.0
H994 H 0.54214 0.69603 0.20373 0.0
H995 H 0.44658 0.62712 0.14551 0.0
C996 C 0.44158 0.59493 0.18985 0.0
C997 C 0.45496 0.58821 0.2218 0.0
C998 C 0.53189 0.69902 0.17736 0.0
C999 C 0.48777 0.64427 0.18149 0.0
C1000 C 0.5452 0.72809 0.15978 0.0
C1001 C 0.53189 0.73259 0.12611 0.0
C1002 C 0.50468 0.67462 0.1616 0.0
C1003 C 0.50543 0.70749 0.11052 0.0
C1004 C 0.45778 0.62263 0.16969 0.0
C1005 C 0.4853 0.61017 0.2321 0.0
N1006 N 0.49253 0.67965 0.12858 0.0
N1007 N 0.50066 0.63734 0.2122 0.0
H1008 H 0.2355 0.81984 0.18154 0.0
H1009 H 0.40023 0.83297 0.19125 0.0
H1010 H 0.27227 0.78818 0.09037 0.0
H1011 H 0.37904 0.89145 0.26122 0.0
H1012 H 0.35179 0.81454 0.15664 0.0
H1013 H 0.28642 0.84532 0.2135 0.0
C1014 C 0.25454 0.81889 0.16787 0.0
C1015 C 0.25004 0.80247 0.13297 0.0
C1016 C 0.3576 0.83132 0.17975 0.0
C1017 C 0.30768 0.83048 0.16972 0.0
C1018 C 0.38529 0.84185 0.19973 0.0
C1019 C 0.39369 0.86343 0.23012 0.0
C1020 C 0.33768 0.84221 0.19017 0.0
C1021 C 0.37328 0.87403 0.23943 0.0
C1022 C 0.28348 0.83332 0.1861 0.0
C1023 C 0.2751 0.80136 0.11667 0.0
N1024 N 0.34608 0.86318 0.21969 0.0
N1025 N 0.30275 0.81488 0.13539 0.0
H1026 H 0.14556 0.3989 0.17757 0.0
H1027 H 0.14151 0.55597 0.18689 0.0
H1028 H 0.18892 0.47257 0.09369 0.0
H1029 H 0.0888 0.48044 0.26595 0.0
H1030 H 0.15756 0.52437 0.15197 0.0
H1031 H 0.12258 0.42658 0.20968 0.0
C1032 C 0.14936 0.42044 0.16522 0.0
C1033 C 0.16804 0.43296 0.132 0.0
C1034 C 0.14254 0.5146 0.1771 0.0
C1035 C 0.14299 0.46519 0.16915 0.0
C1036 C 0.13331 0.5327 0.19725 0.0
C1037 C 0.11396 0.52117 0.23016 0.0
C1038 C 0.13253 0.48445 0.18976 0.0
C1039 C 0.10432 0.49083 0.24183 0.0
C1040 C 0.13647 0.4363 0.18364 0.0
C1041 C 0.17323 0.46134 0.11782 0.0
N1042 N 0.11376 0.47351 0.22174 0.0
N1043 N 0.16094 0.47656 0.13657 0.0
H1044 H 0.12056 0.63611 0.28207 0.0
H1045 H 0.13729 0.75261 0.17077 0.0
H1046 H 0.05511 0.57344 0.19818 0.0
H1047 H 0.14047 0.68894 0.08898 0.0
H1048 H 0.10051 0.70908 0.21086 0.0
H1049 H 0.12169 0.67915 0.24685 0.0
C1050 C 0.10517 0.63139 0.25752 0.0
C1051 C 0.08746 0.60148 0.24314 0.0
C1052 C 0.10815 0.7047 0.18318 0.0
C1053 C 0.0898 0.65016 0.20157 0.0
C1054 C 0.12892 0.72936 0.16025 0.0
C1055 C 0.14187 0.72407 0.12683 0.0
C1056 C 0.10062 0.67483 0.17238 0.0
C1057 C 0.13067 0.6938 0.11434 0.0
C1058 C 0.10582 0.65586 0.23726 0.0
C1059 C 0.06898 0.59643 0.21001 0.0
N1060 N 0.11101 0.67013 0.13768 0.0
N1061 N 0.07144 0.62068 0.18942 0.0
H1062 H 0.34329 0.48102 0.28126 0.0
H1063 H 0.22271 0.37475 0.17547 0.0
H1064 H 0.40281 0.47564 0.19465 0.0
H1065 H 0.28284 0.44338 0.09242 0.0
H1066 H 0.26793 0.38499 0.21477 0.0
H1067 H 0.29876 0.43831 0.24907 0.0
C1068 C 0.34704 0.46962 0.25683 0.0
C1069 C 0.37646 0.48127 0.24081 0.0
C1070 C 0.27117 0.3966 0.18694 0.0
C1071 C 0.3261 0.4341 0.20264 0.0
C1072 C 0.24558 0.3908 0.16451 0.0
C1073 C 0.24932 0.40808 0.13053 0.0
C1074 C 0.30043 0.41973 0.17496 0.0
C1075 C 0.27915 0.42895 0.11772 0.0
C1076 C 0.32173 0.44537 0.2383 0.0
C1077 C 0.38024 0.46692 0.20779 0.0
N1078 N 0.3037 0.43451 0.14032 0.0
N1079 N 0.35516 0.44473 0.18885 0.0
H1080 H 0.50579 0.86266 0.27994 0.0
H1081 H 0.59933 0.8444 0.16257 0.0
H1082 H 0.50471 0.92772 0.19858 0.0
H1083 H 0.53171 0.84516 0.08519 0.0
H1084 H 0.5964 0.8827 0.20397 0.0
H1085 H 0.54802 0.86361 0.24307 0.0
C1086 C 0.51571 0.87845 0.2556 0.0
C1087 C 0.50216 0.89523 0.24222 0.0
C1088 C 0.58338 0.87558 0.17692 0.0
C1089 C 0.54897 0.89531 0.19873 0.0
C1090 C 0.58508 0.8539 0.15326 0.0
C1091 C 0.56543 0.8416 0.12086 0.0
C1092 C 0.56163 0.88445 0.168 0.0
C1093 C 0.54731 0.85433 0.10984 0.0
C1094 C 0.53978 0.87904 0.23439 0.0
C1095 C 0.51479 0.91443 0.20951 0.0
N1096 N 0.54532 0.87473 0.13398 0.0
N1097 N 0.53681 0.91311 0.18792 0.0
H1098 H 0.0933 0.12282 0.25366 0.0
H1099 H 0.00186 0.1798 0.38889 0.0
H1100 H 0.12433 0.16069 0.36907 0.0
H1101 H 0.97675 0.14845 0.26989 0.0
H1102 H 0.04955 0.17795 0.38067 0.0
H1103 H 0.05318 0.13673 0.25745 0.0
C1104 C 0.09184 0.13433 0.2797 0.0
C1105 C 0.11221 0.14054 0.31107 0.0
C1106 C 0.03376 0.17182 0.35623 0.0
C1107 C 0.06597 0.15633 0.31586 0.0
C1108 C 0.0065 0.1728 0.36095 0.0
C1109 C 0.98499 0.16369 0.3303 0.0
C1110 C 0.03948 0.16163 0.3206 0.0
C1111 C -0.00754 0.15539 0.29448 0.0
C1112 C 0.06895 0.14236 0.28182 0.0
C1113 C 0.10936 0.15572 0.34399 0.0
N1114 N 0.01888 0.15424 0.29079 0.0
N1115 N 0.08641 0.16278 0.3457 0.0
H1116 H 0.80924 0.81853 0.3886 0.0
H1117 H 0.86512 0.96852 0.25744 0.0
H1118 H 0.83288 0.82353 0.26626 0.0
H1119 H 0.82542 0.95906 0.37225 0.0
H1120 H 0.85099 0.91441 0.25953 0.0
H1121 H 0.81211 0.86858 0.38271 0.0
C1122 C 0.81462 0.82993 0.36038 0.0
C1123 C 0.82108 0.81689 0.32793 0.0
C1124 C 0.84499 0.924 0.28411 0.0
C1125 C 0.82472 0.87431 0.32115 0.0
C1126 C 0.85314 0.95495 0.28296 0.0
C1127 C 0.84644 0.96838 0.31466 0.0
C1128 C 0.83046 0.9063 0.31752 0.0
C1129 C 0.83075 0.94963 0.34693 0.0
C1130 C 0.81628 0.85852 0.35706 0.0
C1131 C 0.82787 0.83271 0.29212 0.0
N1132 N 0.82361 0.91961 0.34773 0.0
N1133 N 0.82984 0.86069 0.28982 0.0
H1134 H 0.0079 0.89253 0.25769 0.0
H1135 H 0.16308 0.00077 0.25768 0.0
H1136 H 0.02414 0.8606 0.36766 0.0
H1137 H 0.15528 0.99003 0.38325 0.0
H1138 H 0.11347 0.95351 0.25087 0.0
H1139 H 0.06163 0.93331 0.25647 0.0
C1140 C 0.02297 0.89377 0.28128 0.0
C1141 C 0.01147 0.87293 0.31265 0.0
C1142 C 0.1224 0.96158 0.27995 0.0
C1143 C 0.07359 0.9196 0.31125 0.0
C1144 C 0.15097 0.98845 0.28385 0.0
C1145 C 0.16316 -0.00026 0.32111 0.0
C1146 C 0.10566 0.94596 0.31357 0.0
C1147 C 0.14661 0.98241 0.35393 0.0
C1148 C 0.05386 0.91694 0.28035 0.0
C1149 C 0.03207 0.87581 0.34254 0.0
N1150 N 0.11858 0.95651 0.3494 0.0
N1151 N 0.06205 0.89901 0.34136 0.0
H1152 H 0.13499 0.09783 0.77854 0.0
H1153 H 0.17885 0.00017 0.63469 0.0
H1154 H 0.15765 0.12137 0.65682 0.0
H1155 H 0.16246 0.98283 0.75856 0.0
H1156 H 0.17524 0.04685 0.64235 0.0
H1157 H 0.14882 0.05789 0.77203 0.0
C1158 C 0.14311 0.09474 0.75045 0.0
C1159 C 0.14512 0.11302 0.71822 0.0
C1160 C 0.17275 0.03298 0.66789 0.0
C1161 C 0.16082 0.0669 0.71037 0.0
C1162 C 0.17476 0.00628 0.66353 0.0
C1163 C 0.17052 0.98727 0.69593 0.0
C1164 C 0.16642 0.04068 0.70493 0.0
C1165 C 0.16568 -0.00341 0.73268 0.0
C1166 C 0.15109 0.07193 0.74676 0.0
C1167 C 0.15603 0.10808 0.6826 0.0
N1168 N 0.16349 0.02242 0.73607 0.0
N1169 N 0.16318 0.08527 0.67954 0.0
H1170 H 0.88494 0.00372 0.75563 0.0
H1171 H 0.98015 0.1662 0.64881 0.0
H1172 H 0.85373 0.02539 0.64889 0.0
H1173 H 0.00484 0.14379 0.7601 0.0
H1174 H 0.93104 0.11741 0.65095 0.0
H1175 H 0.92583 0.05722 0.76071 0.0
C1176 C 0.88653 0.01991 0.73343 0.0
C1177 C 0.86603 0.01007 0.7017 0.0
C1178 C 0.94705 0.12338 0.67511 0.0
C1179 C 0.91331 0.07157 0.70692 0.0
C1180 C 0.97514 0.15118 0.67386 0.0
C1181 C -0.00305 0.15882 0.70393 0.0
C1182 C 0.94074 0.10312 0.70672 0.0
C1183 C 0.98895 0.13878 0.73603 0.0
C1184 C 0.9099 0.05052 0.73635 0.0
C1185 C 0.86899 0.03208 0.67395 0.0
N1186 N 0.9617 0.11177 0.73633 0.0
N1187 N 0.89254 0.06178 0.67688 0.0
H1188 H -0.00876 0.88948 0.75451 0.0
H1189 H 0.83141 0.82717 0.64254 0.0
H1190 H 0.96982 0.83667 0.64784 0.0
H1191 H 0.84495 0.8575 0.76269 0.0
H1192 H 0.88237 0.8316 0.64288 0.0
H1193 H 0.93809 0.87899 0.75725 0.0
C1194 C 0.97526 0.87545 0.7318 0.0
C1195 C 0.98498 0.86385 0.70099 0.0
C1196 C 0.87412 0.8371 0.66924 0.0
C1197 C 0.92409 0.85204 0.7037 0.0
C1198 C 0.84513 0.83477 0.66899 0.0
C1199 C 0.83405 0.84222 0.70254 0.0
C1200 C 0.89234 0.84729 0.70317 0.0
C1201 C 0.85259 0.85153 0.73618 0.0
C1202 C 0.94489 0.8694 0.73346 0.0
C1203 C 0.96325 0.84574 0.67241 0.0
N1204 N 0.88095 0.85405 0.73553 0.0
N1205 N 0.93388 0.84065 0.67426 0.0
H1206 H 0.66976 0.51619 0.71178 0.0
H1207 H 0.76011 0.44581 0.60035 0.0
H1208 H 0.64645 0.47712 0.59579 0.0
H1209 H 0.79357 0.49791 0.7073 0.0
H1210 H 0.72001 0.4598 0.59691 0.0
H1211 H 0.7169 0.51284 0.70944 0.0
C1212 C 0.67471 0.50724 0.68564 0.0
C1213 C 0.65391 0.4966 0.65408 0.0
C1214 C 0.7363 0.46852 0.62093 0.0
C1215 C 0.70774 0.49254 0.65135 0.0
C1216 C 0.75918 0.46045 0.62296 0.0
C1217 C 0.78026 0.47067 0.65414 0.0
C1218 C 0.73401 0.48659 0.65065 0.0
C1219 C 0.77804 0.48975 0.6825 0.0
C1220 C 0.70166 0.50536 0.68432 0.0
C1221 C 0.66168 0.48547 0.62088 0.0
N1222 N 0.75508 0.4968 0.68032 0.0
N1223 N 0.68775 0.48342 0.62058 0.0
H1224 H 0.48926 0.29403 0.6964 0.0
H1225 H 0.52065 0.1689 0.59478 0.0
H1226 H 0.5418 0.30918 0.59029 0.0
H1227 H 0.46958 0.15156 0.70252 0.0
H1228 H 0.52122 0.21748 0.58794 0.0
H1229 H 0.47519 0.23966 0.69489 0.0
C1230 C 0.49734 0.28588 0.67236 0.0
C1231 C 0.51687 0.30631 0.64345 0.0
C1232 C 0.50967 0.20303 0.61301 0.0
C1233 C 0.50114 0.2442 0.64188 0.0
C1234 C 0.50923 0.17513 0.61687 0.0
C1235 C 0.49571 0.15643 0.64983 0.0
C1236 C 0.49667 0.21255 0.64242 0.0
C1237 C 0.48094 0.16565 0.67716 0.0
C1238 C 0.48944 0.25483 0.67167 0.0
C1239 C 0.527 0.29441 0.61344 0.0
N1240 N 0.48221 0.1933 0.67319 0.0
N1241 N 0.51919 0.26429 0.61359 0.0
H1242 H 0.82937 0.32464 0.72742 0.0
H1243 H 0.69711 0.21771 0.576 0.0
H1244 H 0.83568 0.33896 0.60238 0.0
H1245 H 0.68989 0.20073 0.70052 0.0
H1246 H 0.74986 0.25959 0.58513 0.0
H1247 H 0.78046 0.27662 0.71819 0.0
C1248 C 0.82063 0.31759 0.69801 0.0
C1249 C 0.8365 0.33608 0.66565 0.0
C1250 C 0.7369 0.24655 0.61047 0.0
C1251 C 0.78054 0.28116 0.65491 0.0
C1252 C 0.70669 0.22263 0.60528 0.0
C1253 C 0.68894 0.20559 0.63749 0.0
C1254 C 0.74954 0.25388 0.64826 0.0
C1255 C 0.70274 0.21292 0.67472 0.0
C1256 C 0.7927 0.29015 0.69277 0.0
C1257 C 0.82419 0.32561 0.62822 0.0
N1258 N 0.73214 0.23671 0.67911 0.0
N1259 N 0.79686 0.29902 0.62393 0.0
H1260 H 0.82474 0.46659 0.97897 0.0
H1261 H 0.79422 0.31424 0.09338 0.0
H1262 H 0.76721 0.42943 0.08135 0.0
H1263 H 0.83945 0.34008 0.98091 0.0
H1264 H 0.79295 0.36216 0.09477 0.0
H1265 H 0.83853 0.42602 0.9843 0.0
C1266 C 0.81548 0.4503 1.00295 0.0
C1267 C 0.79467 0.4513 0.0297 0.0
C1268 C 0.80344 0.35757 0.0699 0.0
C1269 C 0.8102 0.40492 0.0358 0.0
C1270 C 0.80425 0.33019 0.06915 0.0
C1271 C 0.81668 0.32296 0.03683 0.0
C1272 C 0.81493 0.37793 0.03795 0.0
C1273 C 0.82957 0.34469 1.0064 0.0
C1274 C 0.8232 0.42705 1.00582 0.0
C1275 C 0.78307 0.42935 0.05985 0.0
N1276 N 0.82803 0.37107 1.00748 0.0
N1277 N 0.79088 0.40709 0.06198 0.0
H1278 H 0.64873 0.49106 0.97347 0.0
H1279 H 0.54951 0.3333 0.08846 0.0
H1280 H 0.66391 0.4791 0.09503 0.0
H1281 H 0.52114 0.3523 0.97752 0.0
H1282 H 0.59149 0.38663 0.0913 0.0
H1283 H 0.60205 0.44043 0.97411 0.0
C1284 C 0.6422 0.47782 1.00037 0.0
C1285 C 0.66037 0.48926 0.03423 0.0
C1286 C 0.5759 0.37928 0.06653 0.0
C1287 C 0.60696 0.43119 0.03506 0.0
C1288 C 0.55197 0.34879 0.06482 0.0
C1289 C 0.53174 0.33831 0.03275 0.0
C1290 C 0.58005 0.39944 0.03561 0.0
C1291 C 0.53594 0.35944 1.00303 0.0
C1292 C 0.61545 0.44896 1.00072 0.0
C1293 C 0.65062 0.4712 0.06827 0.0
N1294 N 0.55985 0.38895 1.005 0.0
N1295 N 0.62472 0.44294 0.06772 0.0
H1296 H 0.63663 0.18109 1.00124 0.0
H1297 H 0.48451 0.16493 0.10142 0.0
H1298 H 0.6271 0.18838 0.1258 0.0
H1299 H 0.49981 0.17058 0.97662 0.0
H1300 H 0.53477 0.16877 0.11121 0.0
H1301 H 0.58444 0.17212 0.99203 0.0
C1302 C 0.62347 0.18033 0.02677 0.0
C1303 C 0.63628 0.18524 0.06448 0.0
C1304 C 0.52707 0.1691 0.08168 0.0
C1305 C 0.57657 0.17556 0.05392 0.0
C1306 C 0.49836 0.16685 0.07608 0.0
C1307 C 0.48799 0.16757 0.03816 0.0
C1308 C 0.54547 0.17194 0.04912 0.0
C1309 C 0.50693 0.17011 1.00639 0.0
C1310 C 0.59371 0.1755 0.02141 0.0
C1311 C 0.61824 0.18482 0.09621 0.0
N1312 N 0.53474 0.17223 1.01259 0.0
N1313 N 0.58933 0.18008 0.09023 0.0
H1314 H 0.31011 0.82175 0.9382 0.0
H1315 H 0.45573 0.82918 0.04658 0.0
H1316 H 0.32899 0.84258 0.06107 0.0
H1317 H 0.42441 0.79199 0.93097 0.0
H1318 H 0.41499 0.8428 0.04962 0.0
H1319 H 0.35769 0.81989 0.93233 0.0
C1320 C 0.32441 0.82627 0.96392 0.0
C1321 C 0.31526 0.83189 1.00032 0.0
C1322 C 0.41731 0.83197 0.02345 0.0
C1323 C 0.36985 0.82954 0.99383 0.0
C1324 C 0.4407 0.82439 0.02157 0.0
C1325 C 0.44346 0.80937 0.98844 0.0
C1326 C 0.39676 0.82466 0.99189 0.0
C1327 C 0.42298 0.80329 0.95721 0.0
C1328 C 0.35157 0.82508 0.96056 0.0
C1329 C 0.33491 0.83772 0.03255 0.0
N1330 N 0.40052 0.81087 0.95975 0.0
N1331 N 0.36117 0.83614 0.02863 0.0
H1332 H 0.14998 0.49258 0.05615 0.0
H1333 H 0.20621 0.64703 0.93383 0.0
H1334 H 0.1761 0.5022 0.93435 0.0
H1335 H 0.161 0.63156 0.04588 0.0
H1336 H 0.19512 0.59382 0.9339 0.0
H1337 H 0.1536 0.54308 0.05357 0.0
C1338 C 0.15631 0.50521 0.0288 0.0
C1339 C 0.16292 0.49319 0.99544 0.0
C1340 C 0.1873 0.60189 0.95832 0.0
C1341 C 0.1672 0.55104 0.99237 0.0
C1342 C 0.1937 0.63232 0.95834 0.0
C1343 C 0.18447 0.64377 0.98983 0.0
C1344 C 0.17196 0.58273 0.99035 0.0
C1345 C 0.16823 0.62362 0.02076 0.0
C1346 C 0.15828 0.53401 0.02734 0.0
C1347 C 0.17083 0.51053 0.96079 0.0
N1348 N 0.16276 0.59413 0.02043 0.0
N1349 N 0.17298 0.53864 0.96026 0.0
H1350 H 0.49356 0.65187 0.05584 0.0
H1351 H 0.33171 0.55724 0.94765 0.0
H1352 H 0.47558 0.67227 0.93927 0.0
H1353 H 0.35331 0.52354 0.05225 0.0
H1354 H 0.38526 0.5985 0.94369 0.0
H1355 H 0.44359 0.60395 0.05497 0.0
C1356 C 0.47927 0.64617 0.02993 0.0
C1357 C 0.48865 0.66636 0.99775 0.0
C1358 C 0.37851 0.58195 0.96732 0.0
C1359 C 0.43147 0.61157 0.99658 0.0
C1360 C 0.34787 0.55838 0.96963 0.0
C1361 C 0.33801 0.53694 1.00032 0.0
C1362 C 0.39958 0.58461 0.99635 0.0
C1363 C 0.36 0.53945 0.02791 0.0
C1364 C 0.45078 0.61875 0.02943 0.0
C1365 C 0.46931 0.65757 0.96484 0.0
N1366 N 0.38973 0.56315 0.02556 0.0
N1367 N 0.44158 0.63106 0.96529 0.0
H1368 H 0.48195 0.64831 0.42345 0.0
H1369 H 0.49027 0.79455 0.31658 0.0
H1370 H 0.5007 0.66689 0.30005 0.0
H1371 H 0.45006 0.76149 0.43062 0.0
H1372 H 0.50364 0.75377 0.31358 0.0
H1373 H 0.47989 0.69573 0.42986 0.0
C1374 C 0.48601 0.66253 0.39777 0.0
C1375 C 0.49122 0.65343 0.36109 0.0
C1376 C 0.4922 0.75571 0.33941 0.0
C1377 C 0.48875 0.70776 0.36824 0.0
C1378 C 0.48477 0.77913 0.3413 0.0
C1379 C 0.46901 0.78144 0.37397 0.0
C1380 C 0.484 0.73465 0.37049 0.0
C1381 C 0.46199 0.76042 0.40477 0.0
C1382 C 0.48471 0.68957 0.40144 0.0
C1383 C 0.49638 0.67289 0.32886 0.0
N1384 N 0.46946 0.73791 0.40224 0.0
N1385 N 0.49482 0.69905 0.33314 0.0
H1386 H 0.31678 0.83147 0.3042 0.0
H1387 H 0.22108 0.68074 0.43346 0.0
H1388 H 0.33455 0.82555 0.42665 0.0
H1389 H 0.19007 0.69168 0.31985 0.0
H1390 H 0.26165 0.73468 0.43181 0.0
H1391 H 0.26913 0.7816 0.30946 0.0
C1392 C 0.3105 0.81991 0.3323 0.0
C1393 C 0.32987 0.83264 0.36499 0.0
C1394 C 0.24579 0.72547 0.40739 0.0
C1395 C 0.27554 0.77544 0.37104 0.0
C1396 C 0.22264 0.69462 0.40829 0.0
C1397 C 0.20214 0.68166 0.37679 0.0
C1398 C 0.24895 0.74355 0.37439 0.0
C1399 C 0.20517 0.70079 0.34498 0.0
C1400 C 0.28327 0.79143 0.33526 0.0
C1401 C 0.32049 0.81661 0.40062 0.0
N1402 N 0.22842 0.7307 0.34437 0.0
N1403 N 0.29421 0.78876 0.40257 0.0
H1404 H 0.29131 0.49386 0.31903 0.0
H1405 H 0.15732 0.50665 0.43032 0.0
H1406 H 0.30358 0.54096 0.42896 0.0
H1407 H 0.15137 0.48098 0.3087 0.0
H1408 H 0.20758 0.50995 0.43441 0.0
H1409 H 0.23685 0.47997 0.31908 0.0
C1410 C 0.28247 0.5008 0.34353 0.0
C1411 C 0.30205 0.51859 0.37413 0.0
C1412 C 0.19517 0.50334 0.40691 0.0
C1413 C 0.23989 0.50299 0.3741 0.0
C1414 C 0.16638 0.50132 0.40457 0.0
C1415 C 0.15017 0.49377 0.36902 0.0
C1416 C 0.20792 0.49768 0.37351 0.0
C1417 C 0.16313 0.48707 0.33666 0.0
C1418 C 0.25144 0.49307 0.34336 0.0
C1419 C 0.28938 0.52741 0.40468 0.0
N1420 N 0.19134 0.48937 0.33961 0.0
N1421 N 0.25918 0.51957 0.40385 0.0
H1422 H 0.3518 0.07316 0.44123 0.0
H1423 H 0.40246 0.0223 0.24682 0.0
H1424 H 0.32733 0.08644 0.32449 0.0
H1425 H 0.41593 -0.00192 0.36361 0.0
H1426 H 0.3832 0.05425 0.27489 0.0
H1427 H 0.3838 0.05394 0.41309 0.0
C1428 C 0.35329 0.07214 0.40969 0.0
C1429 C 0.33617 0.0804 0.38515 0.0
C1430 C 0.39047 0.042 0.29434 0.0
C1431 C 0.37261 0.05865 0.35287 0.0
C1432 C 0.40147 0.02383 0.27835 0.0
C1433 C 0.40981 0.0068 0.30293 0.0
C1434 C 0.38803 0.0432 0.33513 0.0
C1435 C 0.40856 0.00989 0.34357 0.0
C1436 C 0.37149 0.06116 0.39367 0.0
C1437 C 0.33921 0.07913 0.3445 0.0
N1438 N 0.39754 0.02753 0.35843 0.0
N1439 N 0.35687 0.06812 0.3296 0.0
H1440 H 0.95457 0.37198 0.26201 0.0
H1441 H 0.91725 0.27537 0.45997 0.0
H1442 H 0.98754 0.41293 0.37575 0.0
H1443 H 0.89281 0.23518 0.34462 0.0
H1444 H 0.93508 0.32622 0.43099 0.0
H1445 H 0.92374 0.32194 0.29337 0.0
C1446 C 0.95525 0.37045 0.29359 0.0
C1447 C 0.97444 0.39642 0.31617 0.0
C1448 C 0.92565 0.30621 0.4121 0.0
C1449 C 0.93929 0.33939 0.3522 0.0
C1450 C 0.91547 0.27728 0.4286 0.0
C1451 C 0.90457 0.25134 0.40447 0.0
C1452 C 0.92464 0.30898 0.37129 0.0
C1453 C 0.90222 0.25482 0.36411 0.0
C1454 C 0.93767 0.34191 0.31147 0.0
C1455 C 0.97409 0.39328 0.35703 0.0
N1456 N 0.9125 0.28321 0.34873 0.0
N1457 N 0.95702 0.36515 0.37373 0.0
H1458 H 0.56619 0.56176 0.35747 0.0
H1459 H 0.74781 0.64969 0.3263 0.0
H1460 H 0.61035 0.5843 0.24413 0.0
H1461 H 0.70391 0.62608 0.43972 0.0
H1462 H 0.69754 0.61876 0.29554 0.0
H1463 H 0.6161 0.5783 0.38791 0.0
C1464 C 0.58643 0.57035 0.33899 0.0
C1465 C 0.58441 0.57272 0.29832 0.0
C1466 C 0.69889 0.62012 0.32717 0.0
C1467 C 0.64137 0.59109 0.33288 0.0
C1468 C 0.72753 0.638 0.34471 0.0
C1469 C 0.72973 0.64121 0.38553 0.0
C1470 C 0.67234 0.60558 0.35063 0.0
C1471 C 0.70302 0.62453 0.40809 0.0
C1472 C 0.61486 0.57945 0.35636 0.0
C1473 C 0.61106 0.58261 0.27567 0.0
N1474 N 0.67526 0.60778 0.39029 0.0
N1475 N 0.63859 0.59189 0.29333 0.0
H1476 H 0.08557 0.3238 0.69667 0.0
H1477 H 0.98906 0.40863 0.66124 0.0
H1478 H 0.05841 0.33815 0.58217 0.0
H1479 H 0.01963 0.39699 0.77497 0.0
H1480 H 0.01745 0.38627 0.63115 0.0
H1481 H 0.06519 0.35443 0.72521 0.0
C1482 C 0.07515 0.33333 0.67756 0.0
C1483 C 0.07278 0.32778 0.63715 0.0
C1484 C 0.01798 0.38864 0.66267 0.0
C1485 C 0.0498 0.36312 0.66952 0.0
C1486 C 0.00146 0.40105 0.67995 0.0
C1487 C 0.00129 0.4038 0.72081 0.0
C1488 C 0.03439 0.37894 0.68643 0.0
C1489 C 0.01889 0.39491 0.7434 0.0
C1490 C 0.06375 0.35101 0.69383 0.0
C1491 C 0.06026 0.34164 0.61354 0.0
N1492 N 0.03452 0.38258 0.72591 0.0
N1493 N 0.04882 0.35842 0.63017 0.0
H1494 H 0.58084 0.60015 0.81769 0.0
H1495 H 0.72783 0.72243 0.70537 0.0
H1496 H 0.65034 0.58245 0.76947 0.0
H1497 H 0.64438 0.72504 0.72737 0.0
H1498 H 0.71154 0.68105 0.75432 0.0
H1499 H 0.6175 0.65494 0.81499 0.0
C1500 C 0.60393 0.60756 0.80714 0.0
C1501 C 0.6115 0.58663 0.79037 0.0
C1502 C 0.69728 0.69134 0.7492 0.0
C1503 C 0.65331 0.6494 0.78677 0.0
C1504 C 0.70644 0.71466 0.72125 0.0
C1505 C 0.68678 0.72607 0.71192 0.0
C1506 C 0.66851 0.67988 0.76773 0.0
C1507 C 0.6596 0.71596 0.73327 0.0
C1508 C 0.6249 0.639 0.80566 0.0
C1509 C 0.64239 0.59778 0.7793 0.0
N1510 N 0.65104 0.69311 0.75992 0.0
N1511 N 0.66192 0.6286 0.77625 0.0
H1512 H 0.42634 0.98255 0.67959 0.0
H1513 H 0.24536 0.90526 0.70966 0.0
H1514 H 0.38412 0.97959 0.79076 0.0
H1515 H 0.28944 0.90982 0.59917 0.0
H1516 H 0.29494 0.92457 0.74243 0.0
H1517 H 0.3756 0.9473 0.65266 0.0
C1518 C 0.40626 0.97427 0.69834 0.0
C1519 C 0.40904 0.98456 0.73701 0.0
C1520 C 0.29368 0.92114 0.71106 0.0
C1521 C 0.35106 0.94443 0.70652 0.0
C1522 C 0.26547 0.91052 0.69221 0.0
C1523 C 0.26354 0.90706 0.65135 0.0
C1524 C 0.32003 0.92831 0.68887 0.0
C1525 C 0.29001 0.91268 0.63061 0.0
C1526 C 0.37734 0.95405 0.68306 0.0
C1527 C 0.38266 0.97244 0.76057 0.0
N1528 N 0.31727 0.92344 0.64955 0.0
N1529 N 0.35452 0.95337 0.7447 0.0
H1530 H 0.7342 0.99272 0.66047 0.0
H1531 H 0.57896 0.99227 0.71922 0.0
H1532 H 0.64578 0.91041 0.67716 0.0
H1533 H 0.6627 0.07487 0.68559 0.0
H1534 H 0.605 0.96268 0.70971 0.0
H1535 H 0.7099 0.02386 0.67347 0.0
C1536 C 0.70968 0.9812 0.66666 0.0
C1537 C 0.692 0.9489 0.66774 0.0
C1538 C 0.61777 0.9873 0.70455 0.0
C1539 C 0.6642 0.98434 0.68305 0.0
C1540 C 0.60294 0.00427 0.71021 0.0
C1541 C 0.61859 0.03609 0.70293 0.0
C1542 C 0.64854 0.0022 0.69157 0.0
C1543 C 0.6497 0.05035 0.69138 0.0
C1544 C 0.69586 -0.00102 0.67417 0.0
C1545 C 0.66034 0.93521 0.67593 0.0
N1546 N 0.66362 0.03328 0.68586 0.0
N1547 N 0.64752 0.95299 0.68341 0.0
H1548 H -0.00088 0.58814 0.71157 0.0
H1549 H -0.00822 0.74048 0.66405 0.0
H1550 H 0.9128 0.58623 0.69275 0.0
H1551 H 0.07414 0.73348 0.65487 0.0
H1552 H 0.96204 0.68516 0.67893 0.0
H1553 H 0.02676 0.64307 0.69731 0.0
C1554 C 0.98592 0.59931 0.70473 0.0
C1555 C 0.95358 0.58249 0.70312 0.0
C1556 C 0.98659 0.6958 0.67343 0.0
C1557 C 0.98524 0.64558 0.68642 0.0
C1558 C 0.00355 0.7273 0.66486 0.0
C1559 C 0.03552 0.74165 0.65835 0.0
C1560 C 0.00182 0.67871 0.67585 0.0
C1561 C 0.04958 0.72348 0.65973 0.0
C1562 C 0.00177 0.6307 0.69634 0.0
C1563 C 0.93777 0.59831 0.69415 0.0
N1564 N 0.0327 0.69307 0.66858 0.0
N1565 N 0.95378 0.62903 0.68604 0.0
H1566 H 0.25062 0.24327 0.67021 0.0
H1567 H 0.40151 0.4091 0.69482 0.0
H1568 H 0.2517 0.32951 0.65752 0.0
H1569 H 0.40553 0.32521 0.68702 0.0
H1570 H 0.34585 0.37934 0.68531 0.0
H1571 H 0.30682 0.27199 0.67877 0.0
C1572 C 0.26267 0.2682 0.66892 0.0
C1573 C 0.2464 0.28402 0.66331 0.0
C1574 C 0.35884 0.36737 0.68569 0.0
C1575 C 0.31053 0.31693 0.67351 0.0
C1576 C 0.39067 0.38436 0.69135 0.0
C1577 C 0.40826 0.36965 0.69157 0.0
C1578 C 0.34432 0.33534 0.68038 0.0
C1579 C 0.39286 0.3375 0.68692 0.0
C1580 C 0.29473 0.28456 0.67389 0.0
C1581 C 0.26322 0.31632 0.66184 0.0
N1582 N 0.36173 0.32139 0.68147 0.0
N1583 N 0.29427 0.33167 0.66716 0.0
H1584 H 0.98291 0.57895 0.32409 0.0
H1585 H -0.00485 0.74247 0.35872 0.0
H1586 H 0.07033 0.66301 0.3374 0.0
H1587 H 0.9108 0.65493 0.36888 0.0
H1588 H 0.02348 0.71496 0.34726 0.0
H1589 H 0.95634 0.60781 0.3349 0.0
C1590 C -0.00343 0.60355 0.32902 0.0
C1591 C 0.02891 0.61855 0.33009 0.0
C1592 C -0.0012 0.70185 0.35218 0.0
C1593 C -0.00149 0.6518 0.3428 0.0
C1594 C 0.98263 0.71751 0.35879 0.0
C1595 C 0.95053 0.70096 0.36461 0.0
C1596 C 0.98267 0.66949 0.35109 0.0
C1597 C 0.9355 0.66867 0.3645 0.0
C1598 C 0.98134 0.62002 0.33543 0.0
C1599 C 0.04534 0.65051 0.33655 0.0
N1600 N 0.95166 0.65404 0.3576 0.0
N1601 N 0.02994 0.66611 0.34276 0.0
H1602 H 0.32863 0.25323 0.37434 0.0
H1603 H 0.31876 0.40507 0.33215 0.0
H1604 H 0.24229 0.25055 0.3524 0.0
H1605 H 0.4032 0.40146 0.3298 0.0
H1606 H 0.28983 0.34934 0.34419 0.0
H1607 H 0.35588 0.30881 0.36464 0.0
C1608 C 0.31534 0.26436 0.36777 0.0
C1609 C 0.28314 0.24717 0.36387 0.0
C1610 C 0.31468 0.3608 0.34089 0.0
C1611 C 0.31431 0.31094 0.35241 0.0
C1612 C 0.33118 0.39255 0.33398 0.0
C1613 C 0.36344 0.40792 0.33006 0.0
C1614 C 0.33064 0.34447 0.34423 0.0
C1615 C 0.37836 0.3906 0.33258 0.0
C1616 C 0.33097 0.29612 0.36201 0.0
C1617 C 0.26717 0.26291 0.35544 0.0
N1618 N 0.36186 0.35987 0.33971 0.0
N1619 N 0.28295 0.29396 0.34985 0.0
H1620 H 0.58426 0.00046 0.32401 0.0
H1621 H 0.73579 0.98799 0.35922 0.0
H1622 H 0.5812 0.91324 0.33652 0.0
H1623 H 0.73294 0.07245 0.36798 0.0
H1624 H 0.6799 0.95987 0.34763 0.0
H1625 H 0.63978 0.02701 0.335 0.0
C1626 C 0.59529 0.98685 0.3288 0.0
C1627 C 0.57799 0.95456 0.32957 0.0
C1628 C 0.69155 0.98453 0.35226 0.0
C1629 C 0.64176 0.98494 0.34249 0.0
C1630 C 0.72341 0.00059 0.35894 0.0
C1631 C 0.73908 0.03265 0.36444 0.0
C1632 C 0.67536 0.00073 0.35079 0.0
C1633 C 0.72188 0.04777 0.36388 0.0
C1634 C 0.62703 0.00206 0.33531 0.0
C1635 C 0.59363 0.93819 0.33588 0.0
N1636 N 0.69104 0.03172 0.35694 0.0
N1637 N 0.62466 0.95357 0.34219 0.0
H1638 H 0.67059 0.73967 0.14898 0.0
H1639 H 0.64964 0.59506 0.03179 0.0
H1640 H 0.58355 0.67008 0.10031 0.0
H1641 H 0.73349 0.68217 0.04623 0.0
H1642 H 0.6244 0.61107 0.0809 0.0
H1643 H 0.69091 0.70518 0.14004 0.0
C1644 C 0.6554 0.71696 0.1371 0.0
C1645 C 0.6261 0.70887 0.12231 0.0
C1646 C 0.64853 0.62627 0.07393 0.0
C1647 C 0.64954 0.66954 0.11178 0.0
C1648 C 0.66276 0.61729 0.0459 0.0
C1649 C 0.69322 0.63785 0.03455 0.0
C1650 C 0.66525 0.65567 0.0908 0.0
C1651 C 0.70965 0.66614 0.05368 0.0
C1652 C 0.66714 0.69727 0.13202 0.0
C1653 C 0.6072 0.67848 0.10907 0.0
N1654 N 0.69535 0.67436 0.08069 0.0
N1655 N 0.61963 0.66021 0.10278 0.0
H1656 H 0.30572 0.92064 0.11097 0.0
H1657 H 0.29066 0.04985 1.01426 0.0
H1658 H 0.22873 0.93477 0.13341 0.0
H1659 H 0.38044 0.05972 0.03276 0.0
H1660 H 0.26969 0.01091 0.06563 0.0
H1661 H 0.337 0.97491 0.09329 0.0
C1662 C 0.29554 0.93523 0.11291 0.0
C1663 C 0.26402 0.9228 0.12122 0.0
C1664 C 0.29411 0.02188 0.05903 0.0
C1665 C 0.29959 0.9846 0.10145 0.0
C1666 C 0.30589 0.04372 0.02935 0.0
C1667 C 0.337 0.05723 0.01896 0.0
C1668 C 0.31342 0.01285 0.07754 0.0
C1669 C 0.35615 0.04929 0.03982 0.0
C1670 C 0.31351 0.9663 0.10317 0.0
C1671 C 0.25261 0.94311 0.12567 0.0
N1672 N 0.34387 0.02697 0.06767 0.0
N1673 N 0.27012 0.97289 0.11446 0.0
H1674 H 0.91316 0.30477 0.92186 0.0
H1675 H 0.04623 0.28332 0.99841 0.0
H1676 H 0.91598 0.22084 0.90581 0.0
H1677 H 0.05566 0.37311 0.9836 0.0
H1678 H 0.00295 0.26203 0.95287 0.0
H1679 H 0.96903 0.33278 0.93098 0.0
C1680 C 0.92567 0.29237 0.9196 0.0
C1681 C 0.90997 0.26029 0.91487 0.0
C1682 C 0.01482 0.28653 0.95884 0.0
C1683 C 0.97353 0.29196 0.92538 0.0
C1684 C 0.0393 0.29857 0.98512 0.0
C1685 C 0.05391 0.32976 0.99523 0.0
C1686 C 0.00434 0.30571 0.9436 0.0
C1687 C 0.04468 0.34881 0.97672 0.0
C1688 C 0.95758 0.30838 0.9245 0.0
C1689 C 0.92723 0.24549 0.91044 0.0
N1690 N 0.01993 0.33631 0.95239 0.0
N1691 N 0.95809 0.26132 0.91693 0.0
H1692 H 0.31239 0.24357 0.97214 0.0
H1693 H 0.32288 0.40285 0.03158 0.0
H1694 H 0.39918 0.32559 0.99753 0.0
H1695 H 0.2385 0.31485 0.02938 0.0
H1696 H 0.35185 0.37669 1.01537 0.0
H1697 H 0.2855 0.27147 0.98716 0.0
C1698 C 0.32587 0.26756 0.98058 0.0
C1699 C 0.35811 0.28219 0.98382 0.0
C1700 C 0.32701 0.36318 0.01864 0.0
C1701 C 0.32728 0.31434 1.00145 0.0
C1702 C 0.31048 0.37805 0.02799 0.0
C1703 C 0.27819 0.36102 0.03175 0.0
C1704 C 0.31106 0.33114 1.01271 0.0
C1705 C 0.26333 0.32897 0.02676 0.0
C1706 C 0.31044 0.28346 0.9894 0.0
C1707 C 0.37428 0.31338 0.9948 0.0
N1708 N 0.27984 0.31515 0.01729 0.0
N1709 N 0.35867 0.32843 1.00337 0.0
H1710 H 0.66436 0.92193 0.02773 0.0
H1711 H 0.65345 0.0753 1.01113 0.0
H1712 H 0.57736 0.92054 0.02711 0.0
H1713 H 0.73639 0.07138 0.98902 0.0
H1714 H 0.62495 0.01918 0.01932 0.0
H1715 H 0.69114 0.97746 0.01759 0.0
C1716 C 0.65085 0.93332 0.02571 0.0
C1717 C 0.61853 0.91651 0.02818 0.0
C1718 C 0.64934 0.03063 1.01242 0.0
C1719 C 0.64917 0.9803 0.01628 0.0
C1720 C 0.66561 0.06264 1.00766 0.0
C1721 C 0.69741 0.07809 0.99956 0.0
C1722 C 0.66505 0.01405 1.00938 0.0
C1723 C 0.71194 0.06051 0.99532 0.0
C1724 C 0.66619 0.96507 0.01966 0.0
C1725 C 0.60231 0.9326 0.02527 0.0
N1726 N 0.69571 0.02951 1.00056 0.0
N1727 N 0.61781 0.96364 0.01947 0.0
H1728 H 0.91353 0.67254 0.99245 0.0
H1729 H 0.06418 0.65767 0.02315 0.0
H1730 H 0.9098 0.58462 0.99517 0.0
H1731 H 0.061 0.74132 0.04075 0.0
H1732 H 0.00848 0.63025 1.00982 0.0
H1733 H 0.96872 0.69809 1.0053 0.0
C1734 C 0.92435 0.65857 0.99549 0.0
C1735 C 0.90693 0.62635 0.99291 0.0
C1736 C 0.02002 0.65457 0.01679 0.0
C1737 C 0.9704 0.6556 1.00798 0.0
C1738 C 0.05177 0.67021 0.02449 0.0
C1739 C 0.06732 0.70188 0.03296 0.0
C1740 C 0.00384 0.67079 0.01731 0.0
C1741 C 0.05008 0.71695 0.0343 0.0
C1742 C 0.95591 0.6732 1.00306 0.0
C1743 C 0.92233 0.60952 0.99708 0.0
N1744 N 0.01939 0.70133 0.02635 0.0
N1745 N 0.95323 0.62435 1.0045 0.0
loop_
_geom_bond_atom_site_label_1
_geom_bond_atom_site_label_2
_geom_bond_distance
_geom_bond_site_symmetry_2
_ccdc_geom_bond_type
Zn0 N4 2.020 . S
Zn0 O8 2.019 . S
Zn0 N10 2.119 . S
Zn0 O18 1.975 . S
C1 N2 1.334 . S
C1 N5 1.336 . S
N2 C1 1.334 . S
N2 C3 1.334 . S
C3 N2 1.334 . S
C3 N4 1.336 . S
N4 Zn0 2.020 . S
N4 C3 1.336 . S
N4 N5 1.354 . S
N5 C1 1.336 . S
N5 N4 1.354 . S
N5 Zn9 2.020 . S
C6 O7 1.244 . S
C6 O30 1.257 . S
O7 C6 1.244 . S
O8 Zn0 2.019 . S
O8 C28 1.257 . S
Zn9 N5 2.020 . S
Zn9 O16 1.975 . S
Zn9 N25 2.119 . S
Zn9 O30 2.019 . S
N10 Zn0 2.119 . S
N10 C12 1.334 . S
N10 C13 1.328 . S
C11 C12 1.391 . S
C11 N14 1.329 . S
C11 H32 0.930 . S
C12 N10 1.334 . S
C12 C11 1.391 . S
C12 H19 0.930 . S
C13 N10 1.328 . S
C13 C15 1.392 . S
C13 H20 0.930 . S
N14 C11 1.329 . S
N14 C15 1.331 . S
C15 C13 1.392 . S
C15 N14 1.331 . S
O16 Zn9 1.975 . S
O16 C17 1.252 . S
C17 O16 1.252 . S
C17 O18 1.252 . S
O18 Zn0 1.975 . S
O18 C17 1.252 . S
H19 C12 0.930 . S
H20 C13 0.930 . S
C21 C22 1.392 . S
C21 N25 1.328 . S
C21 H27 0.930 . S
C22 C21 1.392 . S
C22 N26 1.331 . S
C23 C24 1.391 . S
C23 N26 1.329 . S
C23 H33 0.930 . S
C24 C23 1.391 . S
C24 N25 1.334 . S
C24 H31 0.930 . S
N25 Zn9 2.119 . S
N25 C21 1.328 . S
N25 C24 1.334 . S
N26 C22 1.331 . S
N26 C23 1.329 . S
H27 C21 0.930 . S
C28 O8 1.257 . S
C28 O29 1.244 . S
O29 C28 1.244 . S
O30 C6 1.257 . S
O30 Zn9 2.019 . S
H31 C24 0.930 . S
H32 C11 0.930 . S
H33 C23 0.930 . S
Zn34 N38 2.020 . S
Zn34 O42 2.019 . S
Zn34 N44 2.119 . S
Zn34 O52 1.975 . S
C35 N36 1.334 . S
C35 N39 1.336 . S
N36 C35 1.334 . S
N36 C37 1.334 . S
C37 N36 1.334 . S
C37 N38 1.336 . S
N38 Zn34 2.020 . S
N38 C37 1.336 . S
N38 N39 1.354 . S
N39 C35 1.336 . S
N39 N38 1.354 . S
N39 Zn43 2.020 . S
C40 O41 1.244 . S
C40 O64 1.257 . S
O41 C40 1.244 . S
O42 Zn34 2.019 . S
O42 C62 1.257 . S
Zn43 N39 2.020 . S
Zn43 O50 1.975 . S
Zn43 N59 2.119 . S
Zn43 O64 2.019 . S
N44 Zn34 2.119 . S
N44 C46 1.334 . S
N44 C47 1.328 . S
C45 C46 1.391 . S
C45 N48 1.329 . S
C45 H66 0.930 . S
C46 N44 1.334 . S
C46 C45 1.391 . S
C46 H53 0.930 . S
C47 N44 1.328 . S
C47 C49 1.392 . S
C47 H54 0.930 . S
N48 C45 1.329 . S
N48 C49 1.331 . S
C49 C47 1.392 . S
C49 N48 1.331 . S
O50 Zn43 1.975 . S
O50 C51 1.252 . S
C51 O50 1.252 . S
C51 O52 1.252 . S
O52 Zn34 1.975 . S
O52 C51 1.252 . S
H53 C46 0.930 . S
H54 C47 0.930 . S
C55 C56 1.392 1_545 S
C55 N59 1.328 . S
C55 H61 0.930 . S
C56 C55 1.392 1_565 S
C56 N60 1.331 . S
C57 C58 1.391 . S
C57 N60 1.329 1_545 S
C57 H67 0.930 . S
C58 C57 1.391 . S
C58 N59 1.334 . S
C58 H65 0.930 . S
N59 Zn43 2.119 . S
N59 C55 1.328 . S
N59 C58 1.334 . S
N60 C56 1.331 . S
N60 C57 1.329 1_565 S
H61 C55 0.930 . S
C62 O42 1.257 . S
C62 O63 1.244 . S
O63 C62 1.244 . S
O64 C40 1.257 . S
O64 Zn43 2.019 . S
H65 C58 0.930 . S
H66 C45 0.930 . S
H67 C57 0.930 . S
Zn68 N72 2.020 . S
Zn68 O76 2.019 . S
Zn68 N78 2.119 . S
Zn68 O86 1.975 . S
C69 N70 1.334 . S
C69 N73 1.336 . S
N70 C69 1.334 . S
N70 C71 1.334 . S
C71 N70 1.334 . S
C71 N72 1.336 . S
N72 Zn68 2.020 . S
N72 C71 1.336 . S
N72 N73 1.354 . S
N73 C69 1.336 . S
N73 N72 1.354 . S
N73 Zn77 2.020 . S
C74 O75 1.244 . S
C74 O98 1.257 . S
O75 C74 1.244 . S
O76 Zn68 2.019 . S
O76 C96 1.257 . S
Zn77 N73 2.020 . S
Zn77 O84 1.975 . S
Zn77 N93 2.119 . S
Zn77 O98 2.019 . S
N78 Zn68 2.119 . S
N78 C80 1.334 . S
N78 C81 1.328 . S
C79 C80 1.391 . S
C79 N82 1.329 1_655 S
C79 H100 0.930 . S
C80 N78 1.334 . S
C80 C79 1.391 . S
C80 H87 0.930 . S
C81 N78 1.328 . S
C81 C83 1.392 1_655 S
C81 H88 0.930 . S
N82 C79 1.329 1_455 S
N82 C83 1.331 . S
C83 C81 1.392 1_455 S
C83 N82 1.331 . S
O84 Zn77 1.975 . S
O84 C85 1.252 . S
C85 O84 1.252 . S
C85 O86 1.252 . S
O86 Zn68 1.975 . S
O86 C85 1.252 . S
H87 C80 0.930 . S
H88 C81 0.930 . S
C89 C90 1.392 . S
C89 N93 1.328 . S
C89 H95 0.930 . S
C90 C89 1.392 . S
C90 N94 1.331 . S
C91 C92 1.391 . S
C91 N94 1.329 . S
C91 H101 0.930 . S
C92 C91 1.391 . S
C92 N93 1.334 . S
C92 H99 0.930 . S
N93 Zn77 2.119 . S
N93 C89 1.328 . S
N93 C92 1.334 . S
N94 C90 1.331 . S
N94 C91 1.329 . S
H95 C89 0.930 . S
C96 O76 1.257 . S
C96 O97 1.244 . S
O97 C96 1.244 . S
O98 C74 1.257 . S
O98 Zn77 2.019 . S
H99 C92 0.930 . S
H100 C79 0.930 . S
H101 C91 0.930 . S
Zn102 N106 2.020 . S
Zn102 O110 2.019 . S
Zn102 N112 2.119 . S
Zn102 O120 1.975 . S
C103 N104 1.334 . S
C103 N107 1.336 . S
N104 C103 1.334 . S
N104 C105 1.334 . S
C105 N104 1.334 . S
C105 N106 1.336 . S
N106 Zn102 2.020 . S
N106 C105 1.336 . S
N106 N107 1.354 . S
N107 C103 1.336 . S
N107 N106 1.354 . S
N107 Zn111 2.020 . S
C108 O109 1.244 . S
C108 O132 1.257 . S
O109 C108 1.244 . S
O110 Zn102 2.019 . S
O110 C130 1.257 . S
Zn111 N107 2.020 . S
Zn111 O118 1.975 . S
Zn111 N127 2.119 . S
Zn111 O132 2.019 . S
N112 Zn102 2.119 . S
N112 C114 1.334 . S
N112 C115 1.328 . S
C113 C114 1.391 . S
C113 N116 1.329 . S
C113 H134 0.930 . S
C114 N112 1.334 . S
C114 C113 1.391 . S
C114 H121 0.930 . S
C115 N112 1.328 . S
C115 C117 1.392 . S
C115 H122 0.930 . S
N116 C113 1.329 . S
N116 C117 1.331 . S
C117 C115 1.392 . S
C117 N116 1.331 . S
O118 Zn111 1.975 . S
O118 C119 1.252 . S
C119 O118 1.252 . S
C119 O120 1.252 . S
O120 Zn102 1.975 . S
O120 C119 1.252 . S
H121 C114 0.930 . S
H122 C115 0.930 . S
C123 C124 1.392 . S
C123 N127 1.328 . S
C123 H129 0.930 . S
C124 C123 1.392 . S
C124 N128 1.331 . S
C125 C126 1.391 . S
C125 N128 1.329 . S
C125 H135 0.930 . S
C126 C125 1.391 . S
C126 N127 1.334 . S
C126 H133 0.930 . S
N127 Zn111 2.119 . S
N127 C123 1.328 . S
N127 C126 1.334 . S
N128 C124 1.331 . S
N128 C125 1.329 . S
H129 C123 0.930 . S
C130 O110 1.257 . S
C130 O131 1.244 . S
O131 C130 1.244 . S
O132 C108 1.257 . S
O132 Zn111 2.019 . S
H133 C126 0.930 . S
H134 C113 0.930 . S
H135 C125 0.930 . S
Zn136 N140 2.020 . S
Zn136 O144 2.019 . S
Zn136 N146 2.119 . S
Zn136 O154 1.975 . S
C137 N138 1.334 . S
C137 N141 1.336 . S
N138 C137 1.334 . S
N138 C139 1.334 . S
C139 N138 1.334 . S
C139 N140 1.336 . S
N140 Zn136 2.020 . S
N140 C139 1.336 . S
N140 N141 1.354 . S
N141 C137 1.336 . S
N141 N140 1.354 . S
N141 Zn145 2.020 . S
C142 O143 1.244 . S
C142 O166 1.257 . S
O143 C142 1.244 . S
O144 Zn136 2.019 . S
O144 C164 1.257 . S
Zn145 N141 2.020 . S
Zn145 O152 1.975 . S
Zn145 N161 2.119 . S
Zn145 O166 2.019 . S
N146 Zn136 2.119 . S
N146 C148 1.334 . S
N146 C149 1.328 . S
C147 C148 1.391 . S
C147 N150 1.329 . S
C147 H168 0.930 . S
C148 N146 1.334 . S
C148 C147 1.391 . S
C148 H155 0.930 . S
C149 N146 1.328 . S
C149 C151 1.392 . S
C149 H156 0.930 . S
N150 C147 1.329 . S
N150 C151 1.331 . S
C151 C149 1.392 . S
C151 N150 1.331 . S
O152 Zn145 1.975 . S
O152 C153 1.252 . S
C153 O152 1.252 . S
C153 O154 1.252 . S
O154 Zn136 1.975 . S
O154 C153 1.252 . S
H155 C148 0.930 . S
H156 C149 0.930 . S
C157 C158 1.392 1_565 S
C157 N161 1.328 . S
C157 H163 0.930 . S
C158 C157 1.392 1_545 S
C158 N162 1.331 . S
C159 C160 1.391 . S
C159 N162 1.329 1_565 S
C159 H169 0.930 . S
C160 C159 1.391 . S
C160 N161 1.334 . S
C160 H167 0.930 . S
N161 Zn145 2.119 . S
N161 C157 1.328 . S
N161 C160 1.334 . S
N162 C158 1.331 . S
N162 C159 1.329 1_545 S
H163 C157 0.930 . S
C164 O144 1.257 . S
C164 O165 1.244 . S
O165 C164 1.244 . S
O166 C142 1.257 . S
O166 Zn145 2.019 . S
H167 C160 0.930 . S
H168 C147 0.930 . S
H169 C159 0.930 . S
Zn170 N174 2.020 . S
Zn170 O178 2.019 . S
Zn170 N180 2.119 . S
Zn170 O188 1.975 . S
C171 N172 1.334 . S
C171 N175 1.336 . S
N172 C171 1.334 . S
N172 C173 1.334 . S
C173 N172 1.334 . S
C173 N174 1.336 . S
N174 Zn170 2.020 . S
N174 C173 1.336 . S
N174 N175 1.354 . S
N175 C171 1.336 . S
N175 N174 1.354 . S
N175 Zn179 2.020 . S
C176 O177 1.244 . S
C176 O200 1.257 . S
O177 C176 1.244 . S
O178 Zn170 2.019 . S
O178 C198 1.257 . S
Zn179 N175 2.020 . S
Zn179 O186 1.975 . S
Zn179 N195 2.119 . S
Zn179 O200 2.019 . S
N180 Zn170 2.119 . S
N180 C182 1.334 . S
N180 C183 1.328 . S
C181 C182 1.391 . S
C181 N184 1.329 . S
C181 H202 0.930 . S
C182 N180 1.334 . S
C182 C181 1.391 . S
C182 H189 0.930 . S
C183 N180 1.328 . S
C183 C185 1.392 . S
C183 H190 0.930 . S
N184 C181 1.329 . S
N184 C185 1.331 . S
C185 C183 1.392 . S
C185 N184 1.331 . S
O186 Zn179 1.975 . S
O186 C187 1.252 . S
C187 O186 1.252 . S
C187 O188 1.252 . S
O188 Zn170 1.975 . S
O188 C187 1.252 . S
H189 C182 0.930 . S
H190 C183 0.930 . S
C191 C192 1.392 1_455 S
C191 N195 1.328 . S
C191 H197 0.930 . S
C192 C191 1.392 1_655 S
C192 N196 1.331 . S
C193 C194 1.391 . S
C193 N196 1.329 1_455 S
C193 H203 0.930 . S
C194 C193 1.391 . S
C194 N195 1.334 . S
C194 H201 0.930 . S
N195 Zn179 2.119 . S
N195 C191 1.328 . S
N195 C194 1.334 . S
N196 C192 1.331 . S
N196 C193 1.329 1_655 S
H197 C191 0.930 . S
C198 O178 1.257 . S
C198 O199 1.244 . S
O199 C198 1.244 . S
O200 C176 1.257 . S
O200 Zn179 2.019 . S
H201 C194 0.930 . S
H202 C181 0.930 . S
H203 C193 0.930 . S
Zn204 N208 2.020 . S
Zn204 O212 2.019 . S
Zn204 N214 2.119 . S
Zn204 O222 1.975 . S
C205 N206 1.334 . S
C205 N209 1.336 . S
N206 C205 1.334 . S
N206 C207 1.334 . S
C207 N206 1.334 . S
C207 N208 1.336 . S
N208 Zn204 2.020 . S
N208 C207 1.336 . S
N208 N209 1.354 . S
N209 C205 1.336 . S
N209 N208 1.354 . S
N209 Zn213 2.020 . S
C210 O211 1.244 . S
C210 O234 1.257 . S
O211 C210 1.244 . S
O212 Zn204 2.019 . S
O212 C232 1.257 . S
Zn213 N209 2.020 . S
Zn213 O220 1.975 . S
Zn213 N229 2.119 . S
Zn213 O234 2.019 . S
N214 Zn204 2.119 . S
N214 C216 1.334 . S
N214 C217 1.328 . S
C215 C216 1.391 . S
C215 N218 1.329 . S
C215 H236 0.930 . S
C216 N214 1.334 . S
C216 C215 1.391 . S
C216 H223 0.930 . S
C217 N214 1.328 . S
C217 C219 1.392 . S
C217 H224 0.930 . S
N218 C215 1.329 . S
N218 C219 1.331 . S
C219 C217 1.392 . S
C219 N218 1.331 . S
O220 Zn213 1.975 . S
O220 C221 1.252 . S
C221 O220 1.252 . S
C221 O222 1.252 . S
O222 Zn204 1.975 . S
O222 C221 1.252 . S
H223 C216 0.930 . S
H224 C217 0.930 . S
C225 C226 1.392 . S
C225 N229 1.328 . S
C225 H231 0.930 . S
C226 C225 1.392 . S
C226 N230 1.331 1_655 S
C227 C228 1.391 1_455 S
C227 N230 1.329 . S
C227 H237 0.930 . S
C228 C227 1.391 1_655 S
C228 N229 1.334 . S
C228 H235 0.930 . S
N229 Zn213 2.119 . S
N229 C225 1.328 . S
N229 C228 1.334 . S
N230 C226 1.331 1_455 S
N230 C227 1.329 . S
H231 C225 0.930 . S
C232 O212 1.257 . S
C232 O233 1.244 . S
O233 C232 1.244 . S
O234 C210 1.257 . S
O234 Zn213 2.019 . S
H235 C228 0.930 . S
H236 C215 0.930 . S
H237 C227 0.930 . S
Zn238 N242 2.020 . S
Zn238 O246 2.019 . S
Zn238 N248 2.119 . S
Zn238 O256 1.975 . S
C239 N240 1.334 . S
C239 N243 1.336 . S
N240 C239 1.334 . S
N240 C241 1.334 . S
C241 N240 1.334 . S
C241 N242 1.336 . S
N242 Zn238 2.020 . S
N242 C241 1.336 . S
N242 N243 1.354 . S
N243 C239 1.336 . S
N243 N242 1.354 . S
N243 Zn247 2.020 . S
C244 O245 1.244 . S
C244 O268 1.257 . S
O245 C244 1.244 . S
O246 Zn238 2.019 . S
O246 C266 1.257 . S
Zn247 N243 2.020 . S
Zn247 O254 1.975 . S
Zn247 N263 2.119 . S
Zn247 O268 2.019 . S
N248 Zn238 2.119 . S
N248 C250 1.334 . S
N248 C251 1.328 . S
C249 C250 1.391 . S
C249 N252 1.329 . S
C249 H270 0.930 . S
C250 N248 1.334 . S
C250 C249 1.391 . S
C250 H257 0.930 . S
C251 N248 1.328 . S
C251 C253 1.392 . S
C251 H258 0.930 . S
N252 C249 1.329 . S
N252 C253 1.331 . S
C253 C251 1.392 . S
C253 N252 1.331 . S
O254 Zn247 1.975 . S
O254 C255 1.252 . S
C255 O254 1.252 . S
C255 O256 1.252 . S
O256 Zn238 1.975 . S
O256 C255 1.252 . S
H257 C250 0.930 . S
H258 C251 0.930 . S
C259 C260 1.392 . S
C259 N263 1.328 . S
C259 H265 0.930 . S
C260 C259 1.392 . S
C260 N264 1.331 . S
C261 C262 1.391 . S
C261 N264 1.329 . S
C261 H271 0.930 . S
C262 C261 1.391 . S
C262 N263 1.334 . S
C262 H269 0.930 . S
N263 Zn247 2.119 . S
N263 C259 1.328 . S
N263 C262 1.334 . S
N264 C260 1.331 . S
N264 C261 1.329 . S
H265 C259 0.930 . S
C266 O246 1.257 . S
C266 O267 1.244 . S
O267 C266 1.244 . S
O268 C244 1.257 . S
O268 Zn247 2.019 . S
H269 C262 0.930 . S
H270 C249 0.930 . S
H271 C261 0.930 . S
Zn272 N276 2.020 . S
Zn272 O280 2.019 . S
Zn272 N282 2.119 . S
Zn272 O290 1.975 . S
C273 N274 1.334 . S
C273 N277 1.336 . S
N274 C273 1.334 . S
N274 C275 1.334 . S
C275 N274 1.334 . S
C275 N276 1.336 . S
N276 Zn272 2.020 . S
N276 C275 1.336 . S
N276 N277 1.354 . S
N277 C273 1.336 . S
N277 N276 1.354 . S
N277 Zn281 2.020 . S
C278 O279 1.244 . S
C278 O302 1.257 . S
O279 C278 1.244 . S
O280 Zn272 2.019 . S
O280 C300 1.257 . S
Zn281 N277 2.020 . S
Zn281 O288 1.975 . S
Zn281 N297 2.119 . S
Zn281 O302 2.019 . S
N282 Zn272 2.119 . S
N282 C284 1.334 . S
N282 C285 1.328 . S
C283 C284 1.391 . S
C283 N286 1.329 . S
C283 H304 0.930 . S
C284 N282 1.334 . S
C284 C283 1.391 . S
C284 H291 0.930 . S
C285 N282 1.328 . S
C285 C287 1.392 . S
C285 H292 0.930 . S
N286 C283 1.329 . S
N286 C287 1.331 . S
C287 C285 1.392 . S
C287 N286 1.331 . S
O288 Zn281 1.975 . S
O288 C289 1.252 . S
C289 O288 1.252 . S
C289 O290 1.252 . S
O290 Zn272 1.975 . S
O290 C289 1.252 . S
H291 C284 0.930 . S
H292 C285 0.930 . S
C293 C294 1.392 . S
C293 N297 1.328 . S
C293 H299 0.930 . S
C294 C293 1.392 . S
C294 N298 1.331 1_545 S
C295 C296 1.391 1_565 S
C295 N298 1.329 . S
C295 H305 0.930 . S
C296 C295 1.391 1_545 S
C296 N297 1.334 . S
C296 H303 0.930 . S
N297 Zn281 2.119 . S
N297 C293 1.328 . S
N297 C296 1.334 . S
N298 C294 1.331 1_565 S
N298 C295 1.329 . S
H299 C293 0.930 . S
C300 O280 1.257 . S
C300 O301 1.244 . S
O301 C300 1.244 . S
O302 C278 1.257 . S
O302 Zn281 2.019 . S
H303 C296 0.930 . S
H304 C283 0.930 . S
H305 C295 0.930 . S
Zn306 N310 2.020 1_554 S
Zn306 O314 2.019 . S
Zn306 N316 2.118 1_554 S
Zn306 O324 1.975 . S
C307 N308 1.334 . S
C307 N311 1.336 . S
N308 C307 1.334 . S
N308 C309 1.334 . S
C309 N308 1.334 . S
C309 N310 1.336 . S
N310 Zn306 2.020 1_556 S
N310 C309 1.336 . S
N310 N311 1.354 . S
N311 C307 1.336 . S
N311 N310 1.354 . S
N311 Zn315 2.020 1_556 S
C312 O313 1.244 . S
C312 O336 1.257 1_556 S
O313 C312 1.244 . S
O314 Zn306 2.019 . S
O314 C334 1.257 . S
Zn315 N311 2.020 1_554 S
Zn315 O322 1.975 . S
Zn315 N331 2.119 . S
Zn315 O336 2.019 . S
N316 Zn306 2.118 1_556 S
N316 C318 1.335 . S
N316 C319 1.328 . S
C317 C318 1.391 . S
C317 N320 1.329 . S
C317 H338 0.930 . S
C318 N316 1.335 . S
C318 C317 1.391 . S
C318 H325 0.930 . S
C319 N316 1.328 . S
C319 C321 1.393 . S
C319 H326 0.929 1_556 S
N320 C317 1.329 . S
N320 C321 1.331 . S
C321 C319 1.393 . S
C321 N320 1.331 . S
O322 Zn315 1.975 . S
O322 C323 1.252 . S
C323 O322 1.252 . S
C323 O324 1.252 . S
O324 Zn306 1.975 . S
O324 C323 1.252 . S
H325 C318 0.930 . S
H326 C319 0.929 1_554 S
C327 C328 1.392 . S
C327 N331 1.328 . S
C327 H333 0.930 . S
C328 C327 1.392 . S
C328 N332 1.331 . S
C329 C330 1.391 . S
C329 N332 1.329 . S
C329 H339 0.930 . S
C330 C329 1.391 . S
C330 N331 1.334 . S
C330 H337 0.930 . S
N331 Zn315 2.119 . S
N331 C327 1.328 . S
N331 C330 1.334 . S
N332 C328 1.331 . S
N332 C329 1.329 . S
H333 C327 0.930 . S
C334 O314 1.257 . S
C334 O335 1.244 . S
O335 C334 1.244 . S
O336 C312 1.257 1_554 S
O336 Zn315 2.019 . S
H337 C330 0.930 . S
H338 C317 0.930 . S
H339 C329 0.930 . S
Zn340 N344 2.020 1_554 S
Zn340 O348 2.019 . S
Zn340 N350 2.119 . S
Zn340 O358 1.975 . S
C341 N342 1.334 . S
C341 N345 1.336 . S
N342 C341 1.334 . S
N342 C343 1.334 . S
C343 N342 1.334 . S
C343 N344 1.336 . S
N344 Zn340 2.020 1_556 S
N344 C343 1.336 . S
N344 N345 1.354 . S
N345 C341 1.336 . S
N345 N344 1.354 . S
N345 Zn349 2.020 1_556 S
C346 O347 1.244 . S
C346 O370 1.257 . S
O347 C346 1.244 . S
O348 Zn340 2.019 . S
O348 C368 1.257 1_554 S
Zn349 N345 2.020 1_554 S
Zn349 O356 1.975 . S
Zn349 N365 2.118 1_554 S
Zn349 O370 2.019 . S
N350 Zn340 2.119 . S
N350 C352 1.334 . S
N350 C353 1.328 . S
C351 C352 1.391 . S
C351 N354 1.329 . S
C351 H372 0.930 . S
C352 N350 1.334 . S
C352 C351 1.391 . S
C352 H359 0.930 . S
C353 N350 1.328 . S
C353 C355 1.392 . S
C353 H360 0.930 . S
N354 C351 1.329 . S
N354 C355 1.331 . S
C355 C353 1.392 . S
C355 N354 1.331 . S
O356 Zn349 1.975 . S
O356 C357 1.252 . S
C357 O356 1.252 . S
C357 O358 1.252 . S
O358 Zn340 1.975 . S
O358 C357 1.252 . S
H359 C352 0.930 . S
H360 C353 0.930 . S
C361 C362 1.393 . S
C361 N365 1.328 . S
C361 H367 0.929 1_556 S
C362 C361 1.393 . S
C362 N366 1.331 . S
C363 C364 1.391 . S
C363 N366 1.329 . S
C363 H373 0.930 . S
C364 C363 1.391 . S
C364 N365 1.335 . S
C364 H371 0.930 . S
N365 Zn349 2.118 1_556 S
N365 C361 1.328 . S
N365 C364 1.335 . S
N366 C362 1.331 . S
N366 C363 1.329 . S
H367 C361 0.929 1_554 S
C368 O348 1.257 1_556 S
C368 O369 1.244 . S
O369 C368 1.244 . S
O370 C346 1.257 . S
O370 Zn349 2.019 . S
H371 C364 0.930 . S
H372 C351 0.930 . S
H373 C363 0.930 . S
Zn374 N378 2.020 1_554 S
Zn374 O382 2.019 . S
Zn374 N384 2.119 . S
Zn374 O392 1.975 . S
C375 N376 1.334 . S
C375 N379 1.336 . S
N376 C375 1.334 . S
N376 C377 1.334 . S
C377 N376 1.334 . S
C377 N378 1.336 . S
N378 Zn374 2.020 1_556 S
N378 C377 1.336 . S
N378 N379 1.354 . S
N379 C375 1.336 . S
N379 N378 1.354 . S
N379 Zn383 2.020 1_556 S
C380 O381 1.244 . S
C380 O404 1.257 . S
O381 C380 1.244 . S
O382 Zn374 2.019 . S
O382 C402 1.257 1_554 S
Zn383 N379 2.020 1_554 S
Zn383 O390 1.975 . S
Zn383 N399 2.118 1_554 S
Zn383 O404 2.019 . S
N384 Zn374 2.119 . S
N384 C386 1.334 . S
N384 C387 1.328 . S
C385 C386 1.391 . S
C385 N388 1.329 . S
C385 H406 0.930 . S
C386 N384 1.334 . S
C386 C385 1.391 . S
C386 H393 0.930 . S
C387 N384 1.328 . S
C387 C389 1.392 . S
C387 H394 0.930 . S
N388 C385 1.329 . S
N388 C389 1.331 . S
C389 C387 1.392 . S
C389 N388 1.331 . S
O390 Zn383 1.975 . S
O390 C391 1.252 . S
C391 O390 1.252 . S
C391 O392 1.252 . S
O392 Zn374 1.975 . S
O392 C391 1.252 . S
H393 C386 0.930 . S
H394 C387 0.930 . S
C395 C396 1.393 . S
C395 N399 1.328 . S
C395 H401 0.929 1_556 S
C396 C395 1.393 . S
C396 N400 1.331 . S
C397 C398 1.391 . S
C397 N400 1.329 . S
C397 H407 0.930 . S
C398 C397 1.391 . S
C398 N399 1.335 . S
C398 H405 0.930 . S
N399 Zn383 2.118 1_556 S
N399 C395 1.328 . S
N399 C398 1.335 . S
N400 C396 1.331 . S
N400 C397 1.329 . S
H401 C395 0.929 1_554 S
C402 O382 1.257 1_556 S
C402 O403 1.244 . S
O403 C402 1.244 . S
O404 C380 1.257 . S
O404 Zn383 2.019 . S
H405 C398 0.930 . S
H406 C385 0.930 . S
H407 C397 0.930 . S
Zn408 N412 2.020 1_556 S
Zn408 O416 2.019 . S
Zn408 N418 2.119 . S
Zn408 O426 1.975 . S
C409 N410 1.334 . S
C409 N413 1.336 . S
N410 C409 1.334 . S
N410 C411 1.334 . S
C411 N410 1.334 . S
C411 N412 1.336 . S
N412 Zn408 2.020 1_554 S
N412 C411 1.336 . S
N412 N413 1.354 . S
N413 C409 1.336 . S
N413 N412 1.354 . S
N413 Zn417 2.020 1_554 S
C414 O415 1.244 . S
C414 O438 1.257 . S
O415 C414 1.244 . S
O416 Zn408 2.019 . S
O416 C436 1.257 1_556 S
Zn417 N413 2.020 1_556 S
Zn417 O424 1.975 . S
Zn417 N433 2.118 1_556 S
Zn417 O438 2.019 . S
N418 Zn408 2.119 . S
N418 C420 1.334 . S
N418 C421 1.328 . S
C419 C420 1.391 . S
C419 N422 1.329 . S
C419 H440 0.930 . S
C420 N418 1.334 . S
C420 C419 1.391 . S
C420 H427 0.930 . S
C421 N418 1.328 . S
C421 C423 1.392 . S
C421 H428 0.930 . S
N422 C419 1.329 . S
N422 C423 1.331 . S
C423 C421 1.392 . S
C423 N422 1.331 . S
O424 Zn417 1.975 . S
O424 C425 1.252 . S
C425 O424 1.252 . S
C425 O426 1.252 . S
O426 Zn408 1.975 . S
O426 C425 1.252 . S
H427 C420 0.930 . S
H428 C421 0.930 . S
C429 C430 1.393 . S
C429 N433 1.328 . S
C429 H435 0.929 1_554 S
C430 C429 1.393 . S
C430 N434 1.331 . S
C431 C432 1.391 . S
C431 N434 1.329 . S
C431 H441 0.930 . S
C432 C431 1.391 . S
C432 N433 1.335 . S
C432 H439 0.930 . S
N433 Zn417 2.118 1_554 S
N433 C429 1.328 . S
N433 C432 1.335 . S
N434 C430 1.331 . S
N434 C431 1.329 . S
H435 C429 0.929 1_556 S
C436 O416 1.257 1_554 S
C436 O437 1.244 . S
O437 C436 1.244 . S
O438 C414 1.257 . S
O438 Zn417 2.019 . S
H439 C432 0.930 . S
H440 C419 0.930 . S
H441 C431 0.930 . S
Zn442 N446 2.020 1_556 S
Zn442 O450 2.019 . S
Zn442 N452 2.118 1_556 S
Zn442 O460 1.975 . S
C443 N444 1.334 . S
C443 N447 1.336 . S
N444 C443 1.334 . S
N444 C445 1.334 . S
C445 N444 1.334 . S
C445 N446 1.336 . S
N446 Zn442 2.020 1_554 S
N446 C445 1.336 . S
N446 N447 1.354 . S
N447 C443 1.336 . S
N447 N446 1.354 . S
N447 Zn451 2.020 1_554 S
C448 O449 1.244 . S
C448 O472 1.257 1_554 S
O449 C448 1.244 . S
O450 Zn442 2.019 . S
O450 C470 1.257 . S
Zn451 N447 2.020 1_556 S
Zn451 O458 1.975 . S
Zn451 N467 2.119 . S
Zn451 O472 2.019 . S
N452 Zn442 2.118 1_554 S
N452 C454 1.335 . S
N452 C455 1.328 . S
C453 C454 1.391 . S
C453 N456 1.329 . S
C453 H474 0.930 . S
C454 N452 1.335 . S
C454 C453 1.391 . S
C454 H461 0.930 . S
C455 N452 1.328 . S
C455 C457 1.393 . S
C455 H462 0.929 1_554 S
N456 C453 1.329 . S
N456 C457 1.331 . S
C457 C455 1.393 . S
C457 N456 1.331 . S
O458 Zn451 1.975 . S
O458 C459 1.252 . S
C459 O458 1.252 . S
C459 O460 1.252 . S
O460 Zn442 1.975 . S
O460 C459 1.252 . S
H461 C454 0.930 . S
H462 C455 0.929 1_556 S
C463 C464 1.392 . S
C463 N467 1.328 . S
C463 H469 0.930 . S
C464 C463 1.392 . S
C464 N468 1.331 . S
C465 C466 1.391 . S
C465 N468 1.329 . S
C465 H475 0.930 . S
C466 C465 1.391 . S
C466 N467 1.334 . S
C466 H473 0.930 . S
N467 Zn451 2.119 . S
N467 C463 1.328 . S
N467 C466 1.334 . S
N468 C464 1.331 . S
N468 C465 1.329 . S
H469 C463 0.930 . S
C470 O450 1.257 . S
C470 O471 1.244 . S
O471 C470 1.244 . S
O472 C448 1.257 1_556 S
O472 Zn451 2.019 . S
H473 C466 0.930 . S
H474 C453 0.930 . S
H475 C465 0.930 . S
Zn476 N480 2.020 1_556 S
Zn476 O484 2.019 . S
Zn476 N486 2.118 1_556 S
Zn476 O494 1.975 . S
C477 N478 1.334 . S
C477 N481 1.336 . S
N478 C477 1.334 . S
N478 C479 1.334 . S
C479 N478 1.334 . S
C479 N480 1.336 . S
N480 Zn476 2.020 1_554 S
N480 C479 1.336 . S
N480 N481 1.354 . S
N481 C477 1.336 . S
N481 N480 1.354 . S
N481 Zn485 2.020 1_554 S
C482 O483 1.244 . S
C482 O506 1.257 1_554 S
O483 C482 1.244 . S
O484 Zn476 2.019 . S
O484 C504 1.257 . S
Zn485 N481 2.020 1_556 S
Zn485 O492 1.975 . S
Zn485 N501 2.119 . S
Zn485 O506 2.019 . S
N486 Zn476 2.118 1_554 S
N486 C488 1.335 . S
N486 C489 1.328 . S
C487 C488 1.391 . S
C487 N490 1.329 . S
C487 H508 0.930 . S
C488 N486 1.335 . S
C488 C487 1.391 . S
C488 H495 0.930 . S
C489 N486 1.328 . S
C489 C491 1.393 . S
C489 H496 0.929 1_554 S
N490 C487 1.329 . S
N490 C491 1.331 . S
C491 C489 1.393 . S
C491 N490 1.331 . S
O492 Zn485 1.975 . S
O492 C493 1.252 . S
C493 O492 1.252 . S
C493 O494 1.252 . S
O494 Zn476 1.975 . S
O494 C493 1.252 . S
H495 C488 0.930 . S
H496 C489 0.929 1_556 S
C497 C498 1.392 . S
C497 N501 1.328 . S
C497 H503 0.930 . S
C498 C497 1.392 . S
C498 N502 1.331 . S
C499 C500 1.391 . S
C499 N502 1.329 . S
C499 H509 0.930 . S
C500 C499 1.391 . S
C500 N501 1.334 . S
C500 H507 0.930 . S
N501 Zn485 2.119 . S
N501 C497 1.328 . S
N501 C500 1.334 . S
N502 C498 1.331 . S
N502 C499 1.329 . S
H503 C497 0.930 . S
C504 O484 1.257 . S
C504 O505 1.244 . S
O505 C504 1.244 . S
O506 C482 1.257 1_556 S
O506 Zn485 2.019 . S
H507 C500 0.930 . S
H508 C487 0.930 . S
H509 C499 0.930 . S
Zn510 N514 2.020 . S
Zn510 O518 2.019 . S
Zn510 N520 2.119 . S
Zn510 O528 1.975 . S
C511 N512 1.334 . S
C511 N515 1.336 . S
N512 C511 1.334 . S
N512 C513 1.334 . S
C513 N512 1.334 . S
C513 N514 1.336 . S
N514 Zn510 2.020 . S
N514 C513 1.336 . S
N514 N515 1.354 . S
N515 C511 1.336 . S
N515 N514 1.354 . S
N515 Zn519 2.020 . S
C516 O517 1.244 . S
C516 O540 1.257 . S
O517 C516 1.244 . S
O518 Zn510 2.019 . S
O518 C538 1.257 . S
Zn519 N515 2.020 . S
Zn519 O526 1.975 . S
Zn519 N535 2.119 . S
Zn519 O540 2.019 . S
N520 Zn510 2.119 . S
N520 C522 1.334 . S
N520 C523 1.328 . S
C521 C522 1.391 1_545 S
C521 N524 1.329 . S
C521 H542 0.930 . S
C522 N520 1.334 . S
C522 C521 1.391 1_565 S
C522 H529 0.930 . S
C523 N520 1.328 . S
C523 C525 1.392 . S
C523 H530 0.930 . S
N524 C521 1.329 . S
N524 C525 1.331 1_545 S
C525 C523 1.392 . S
C525 N524 1.331 1_565 S
O526 Zn519 1.975 . S
O526 C527 1.252 . S
C527 O526 1.252 . S
C527 O528 1.252 . S
O528 Zn510 1.975 . S
O528 C527 1.252 . S
H529 C522 0.930 . S
H530 C523 0.930 . S
C531 C532 1.392 . S
C531 N535 1.328 . S
C531 H537 0.930 . S
C532 C531 1.392 . S
C532 N536 1.331 . S
C533 C534 1.391 . S
C533 N536 1.329 . S
C533 H543 0.930 . S
C534 C533 1.391 . S
C534 N535 1.334 . S
C534 H541 0.930 . S
N535 Zn519 2.119 . S
N535 C531 1.328 . S
N535 C534 1.334 . S
N536 C532 1.331 . S
N536 C533 1.329 . S
H537 C531 0.930 . S
C538 O518 1.257 . S
C538 O539 1.244 . S
O539 C538 1.244 . S
O540 C516 1.257 . S
O540 Zn519 2.019 . S
H541 C534 0.930 . S
H542 C521 0.930 . S
H543 C533 0.930 . S
Zn544 N548 2.020 . S
Zn544 O552 2.019 . S
Zn544 N554 2.119 . S
Zn544 O562 1.975 . S
C545 N546 1.334 . S
C545 N549 1.336 . S
N546 C545 1.334 . S
N546 C547 1.334 . S
C547 N546 1.334 . S
C547 N548 1.336 . S
N548 Zn544 2.020 . S
N548 C547 1.336 . S
N548 N549 1.354 . S
N549 C545 1.336 . S
N549 N548 1.354 . S
N549 Zn553 2.020 . S
C550 O551 1.244 . S
C550 O574 1.257 . S
O551 C550 1.244 . S
O552 Zn544 2.019 . S
O552 C572 1.257 . S
Zn553 N549 2.020 . S
Zn553 O560 1.975 . S
Zn553 N569 2.119 . S
Zn553 O574 2.019 . S
N554 Zn544 2.119 . S
N554 C556 1.334 . S
N554 C557 1.328 . S
C555 C556 1.391 . S
C555 N558 1.329 . S
C555 H576 0.930 . S
C556 N554 1.334 . S
C556 C555 1.391 . S
C556 H563 0.930 . S
C557 N554 1.328 . S
C557 C559 1.392 . S
C557 H564 0.930 . S
N558 C555 1.329 . S
N558 C559 1.331 . S
C559 C557 1.392 . S
C559 N558 1.331 . S
O560 Zn553 1.975 . S
O560 C561 1.252 . S
C561 O560 1.252 . S
C561 O562 1.252 . S
O562 Zn544 1.975 . S
O562 C561 1.252 . S
H563 C556 0.930 . S
H564 C557 0.930 . S
C565 C566 1.392 . S
C565 N569 1.328 . S
C565 H571 0.930 . S
C566 C565 1.392 . S
C566 N570 1.331 1_455 S
C567 C568 1.391 1_655 S
C567 N570 1.329 . S
C567 H577 0.930 . S
C568 C567 1.391 1_455 S
C568 N569 1.334 . S
C568 H575 0.930 . S
N569 Zn553 2.119 . S
N569 C565 1.328 . S
N569 C568 1.334 . S
N570 C566 1.331 1_655 S
N570 C567 1.329 . S
H571 C565 0.930 . S
C572 O552 1.257 . S
C572 O573 1.244 . S
O573 C572 1.244 . S
O574 C550 1.257 . S
O574 Zn553 2.019 . S
H575 C568 0.930 . S
H576 C555 0.930 . S
H577 C567 0.930 . S
Zn578 N582 2.020 . S
Zn578 O586 2.019 . S
Zn578 N588 2.119 . S
Zn578 O596 1.975 . S
C579 N580 1.334 . S
C579 N583 1.336 . S
N580 C579 1.334 . S
N580 C581 1.334 . S
C581 N580 1.334 . S
C581 N582 1.336 . S
N582 Zn578 2.020 . S
N582 C581 1.336 . S
N582 N583 1.354 . S
N583 C579 1.336 . S
N583 N582 1.354 . S
N583 Zn587 2.020 . S
C584 O585 1.244 . S
C584 O608 1.257 . S
O585 C584 1.244 . S
O586 Zn578 2.019 . S
O586 C606 1.257 . S
Zn587 N583 2.020 . S
Zn587 O594 1.975 . S
Zn587 N603 2.119 . S
Zn587 O608 2.019 . S
N588 Zn578 2.119 . S
N588 C590 1.334 . S
N588 C591 1.328 . S
C589 C590 1.391 . S
C589 N592 1.329 . S
C589 H610 0.930 . S
C590 N588 1.334 . S
C590 C589 1.391 . S
C590 H597 0.930 . S
C591 N588 1.328 . S
C591 C593 1.392 . S
C591 H598 0.930 . S
N592 C589 1.329 . S
N592 C593 1.331 . S
C593 C591 1.392 . S
C593 N592 1.331 . S
O594 Zn587 1.975 . S
O594 C595 1.252 . S
C595 O594 1.252 . S
C595 O596 1.252 . S
O596 Zn578 1.975 . S
O596 C595 1.252 . S
H597 C590 0.930 . S
H598 C591 0.930 . S
C599 C600 1.392 . S
C599 N603 1.328 . S
C599 H605 0.930 . S
C600 C599 1.392 . S
C600 N604 1.331 . S
C601 C602 1.391 . S
C601 N604 1.329 . S
C601 H611 0.930 . S
C602 C601 1.391 . S
C602 N603 1.334 . S
C602 H609 0.930 . S
N603 Zn587 2.119 . S
N603 C599 1.328 . S
N603 C602 1.334 . S
N604 C600 1.331 . S
N604 C601 1.329 . S
H605 C599 0.930 . S
C606 O586 1.257 . S
C606 O607 1.244 . S
O607 C606 1.244 . S
O608 C584 1.257 . S
O608 Zn587 2.019 . S
H609 C602 0.930 . S
H610 C589 0.930 . S
H611 C601 0.930 . S
H612 C618 0.930 . S
H613 C622 0.930 . S
H614 C627 0.929 . S
H615 C625 0.929 . S
H616 C620 0.929 . S
H617 C626 0.929 . S
C618 H612 0.930 . S
C618 C619 1.367 . S
C618 C626 1.378 . S
C619 C618 1.367 . S
C619 C627 1.433 . S
C620 H616 0.929 . S
C620 C622 1.378 . S
C620 C624 1.350 . S
C621 C624 1.463 . S
C621 C626 1.350 . S
C621 N629 1.427 . S
C622 H613 0.930 . S
C622 C620 1.378 . S
C622 C623 1.367 . S
C623 C622 1.367 . S
C623 C625 1.433 . S
C624 C620 1.350 . S
C624 C621 1.463 . S
C624 N628 1.427 . S
C625 H615 0.929 . S
C625 C623 1.433 . S
C625 N628 1.384 . S
C626 H617 0.929 . S
C626 C618 1.378 . S
C626 C621 1.350 . S
C627 H614 0.929 . S
C627 C619 1.433 . S
C627 N629 1.384 . S
N628 C624 1.427 . S
N628 C625 1.384 . S
N629 C621 1.427 . S
N629 C627 1.384 . S
H630 C636 0.930 . S
H631 C640 0.930 . S
H632 C645 0.929 . S
H633 C643 0.929 . S
H634 C638 0.929 . S
H635 C644 0.929 . S
C636 H630 0.930 . S
C636 C637 1.367 . S
C636 C644 1.378 . S
C637 C636 1.367 . S
C637 C645 1.433 . S
C638 H634 0.929 . S
C638 C640 1.378 . S
C638 C642 1.350 . S
C639 C642 1.463 . S
C639 C644 1.350 . S
C639 N647 1.427 . S
C640 H631 0.930 . S
C640 C638 1.378 . S
C640 C641 1.367 . S
C641 C640 1.367 . S
C641 C643 1.433 . S
C642 C638 1.350 . S
C642 C639 1.463 . S
C642 N646 1.427 . S
C643 H633 0.929 . S
C643 C641 1.433 . S
C643 N646 1.384 . S
C644 H635 0.929 . S
C644 C636 1.378 . S
C644 C639 1.350 . S
C645 H632 0.929 . S
C645 C637 1.433 . S
C645 N647 1.384 . S
N646 C642 1.427 . S
N646 C643 1.384 . S
N647 C639 1.427 . S
N647 C645 1.384 . S
H648 C654 0.930 . S
H649 C658 0.930 . S
H650 C663 0.929 . S
H651 C661 0.929 . S
H652 C656 0.929 . S
H653 C662 0.929 . S
C654 H648 0.930 . S
C654 C655 1.367 . S
C654 C662 1.378 . S
C655 C654 1.367 . S
C655 C663 1.433 . S
C656 H652 0.929 . S
C656 C658 1.378 . S
C656 C660 1.350 . S
C657 C660 1.463 . S
C657 C662 1.350 . S
C657 N665 1.427 . S
C658 H649 0.930 . S
C658 C656 1.378 . S
C658 C659 1.367 . S
C659 C658 1.367 . S
C659 C661 1.433 . S
C660 C656 1.350 . S
C660 C657 1.463 . S
C660 N664 1.427 . S
C661 H651 0.929 . S
C661 C659 1.433 . S
C661 N664 1.384 . S
C662 H653 0.929 . S
C662 C654 1.378 . S
C662 C657 1.350 . S
C663 H650 0.929 . S
C663 C655 1.433 . S
C663 N665 1.384 . S
N664 C660 1.427 . S
N664 C661 1.384 . S
N665 C657 1.427 . S
N665 C663 1.384 . S
H666 C672 0.930 . S
H667 C676 0.930 . S
H668 C681 0.929 . S
H669 C679 0.929 . S
H670 C674 0.929 . S
H671 C680 0.929 . S
C672 H666 0.930 . S
C672 C673 1.367 . S
C672 C680 1.378 . S
C673 C672 1.367 . S
C673 C681 1.433 . S
C674 H670 0.929 . S
C674 C676 1.378 . S
C674 C678 1.350 . S
C675 C678 1.463 . S
C675 C680 1.350 . S
C675 N683 1.427 . S
C676 H667 0.930 . S
C676 C674 1.378 . S
C676 C677 1.367 . S
C677 C676 1.367 . S
C677 C679 1.433 . S
C678 C674 1.350 . S
C678 C675 1.463 . S
C678 N682 1.427 . S
C679 H669 0.929 . S
C679 C677 1.433 . S
C679 N682 1.384 . S
C680 H671 0.929 . S
C680 C672 1.378 . S
C680 C675 1.350 . S
C681 H668 0.929 . S
C681 C673 1.433 . S
C681 N683 1.384 . S
N682 C678 1.427 . S
N682 C679 1.384 . S
N683 C675 1.427 . S
N683 C681 1.384 . S
H684 C690 0.930 . S
H685 C694 0.930 . S
H686 C699 0.929 . S
H687 C697 0.929 . S
H688 C692 0.929 . S
H689 C698 0.929 . S
C690 H684 0.930 . S
C690 C691 1.367 . S
C690 C698 1.378 . S
C691 C690 1.367 . S
C691 C699 1.433 . S
C692 H688 0.929 . S
C692 C694 1.378 . S
C692 C696 1.350 . S
C693 C696 1.463 . S
C693 C698 1.350 . S
C693 N701 1.427 . S
C694 H685 0.930 . S
C694 C692 1.378 . S
C694 C695 1.367 . S
C695 C694 1.367 . S
C695 C697 1.433 . S
C696 C692 1.350 . S
C696 C693 1.463 . S
C696 N700 1.427 . S
C697 H687 0.929 . S
C697 C695 1.433 . S
C697 N700 1.384 . S
C698 H689 0.929 . S
C698 C690 1.378 . S
C698 C693 1.350 . S
C699 H686 0.929 . S
C699 C691 1.433 . S
C699 N701 1.384 . S
N700 C696 1.427 . S
N700 C697 1.384 . S
N701 C693 1.427 . S
N701 C699 1.384 . S
H702 C708 0.930 . S
H703 C712 0.930 . S
H704 C717 0.929 . S
H705 C715 0.929 . S
H706 C710 0.929 . S
H707 C716 0.929 . S
C708 H702 0.930 . S
C708 C709 1.367 . S
C708 C716 1.378 . S
C709 C708 1.367 . S
C709 C717 1.433 . S
C710 H706 0.929 . S
C710 C712 1.378 . S
C710 C714 1.350 . S
C711 C714 1.463 . S
C711 C716 1.350 . S
C711 N719 1.427 . S
C712 H703 0.930 . S
C712 C710 1.378 . S
C712 C713 1.367 . S
C713 C712 1.367 . S
C713 C715 1.433 . S
C714 C710 1.350 . S
C714 C711 1.463 . S
C714 N718 1.427 . S
C715 H705 0.929 . S
C715 C713 1.433 . S
C715 N718 1.384 . S
C716 H707 0.929 . S
C716 C708 1.378 . S
C716 C711 1.350 . S
C717 H704 0.929 . S
C717 C709 1.433 . S
C717 N719 1.384 . S
N718 C714 1.427 . S
N718 C715 1.384 . S
N719 C711 1.427 . S
N719 C717 1.384 . S
H720 C726 0.930 . S
H721 C730 0.930 . S
H722 C735 0.929 . S
H723 C733 0.929 . S
H724 C728 0.929 1_455 S
H725 C734 0.929 1_655 S
C726 H720 0.930 . S
C726 C727 1.367 . S
C726 C734 1.378 . S
C727 C726 1.367 . S
C727 C735 1.433 . S
C728 H724 0.929 1_655 S
C728 C730 1.378 . S
C728 C732 1.350 . S
C729 C732 1.463 1_455 S
C729 C734 1.350 . S
C729 N737 1.427 . S
C730 H721 0.930 . S
C730 C728 1.378 . S
C730 C731 1.367 . S
C731 C730 1.367 . S
C731 C733 1.433 . S
C732 C728 1.350 . S
C732 C729 1.463 1_655 S
C732 N736 1.427 . S
C733 H723 0.929 . S
C733 C731 1.433 . S
C733 N736 1.384 . S
C734 H725 0.929 1_455 S
C734 C726 1.378 . S
C734 C729 1.350 . S
C735 H722 0.929 . S
C735 C727 1.433 . S
C735 N737 1.384 . S
N736 C732 1.427 . S
N736 C733 1.384 . S
N737 C729 1.427 . S
N737 C735 1.384 . S
H738 C744 0.930 . S
H739 C748 0.930 . S
H740 C753 0.929 . S
H741 C751 0.929 . S
H742 C746 0.929 . S
H743 C752 0.929 . S
C744 H738 0.930 . S
C744 C745 1.367 . S
C744 C752 1.378 . S
C745 C744 1.367 . S
C745 C753 1.433 . S
C746 H742 0.929 . S
C746 C748 1.378 . S
C746 C750 1.350 . S
C747 C750 1.463 . S
C747 C752 1.350 . S
C747 N755 1.427 . S
C748 H739 0.930 . S
C748 C746 1.378 . S
C748 C749 1.367 . S
C749 C748 1.367 . S
C749 C751 1.433 . S
C750 C746 1.350 . S
C750 C747 1.463 . S
C750 N754 1.427 . S
C751 H741 0.929 . S
C751 C749 1.433 . S
C751 N754 1.384 . S
C752 H743 0.929 . S
C752 C744 1.378 . S
C752 C747 1.350 . S
C753 H740 0.929 . S
C753 C745 1.433 . S
C753 N755 1.384 . S
N754 C750 1.427 . S
N754 C751 1.384 . S
N755 C747 1.427 . S
N755 C753 1.384 . S
H756 C762 0.930 . S
H757 C766 0.930 . S
H758 C771 0.929 . S
H759 C769 0.929 . S
H760 C764 0.929 1_545 S
H761 C770 0.929 1_565 S
C762 H756 0.930 . S
C762 C763 1.367 . S
C762 C770 1.378 . S
C763 C762 1.367 . S
C763 C771 1.433 . S
C764 H760 0.929 1_565 S
C764 C766 1.378 . S
C764 C768 1.350 . S
C765 C768 1.463 1_545 S
C765 C770 1.350 . S
C765 N773 1.427 . S
C766 H757 0.930 . S
C766 C764 1.378 . S
C766 C767 1.367 . S
C767 C766 1.367 . S
C767 C769 1.433 . S
C768 C764 1.350 . S
C768 C765 1.463 1_565 S
C768 N772 1.427 . S
C769 H759 0.929 . S
C769 C767 1.433 . S
C769 N772 1.384 . S
C770 H761 0.929 1_545 S
C770 C762 1.378 . S
C770 C765 1.350 . S
C771 H758 0.929 . S
C771 C763 1.433 . S
C771 N773 1.384 . S
N772 C768 1.427 . S
N772 C769 1.384 . S
N773 C765 1.427 . S
N773 C771 1.384 . S
H774 C780 0.930 . S
H775 C784 0.930 . S
H776 C789 0.929 . S
H777 C787 0.929 . S
H778 C782 0.929 . S
H779 C788 0.929 . S
C780 H774 0.930 . S
C780 C781 1.367 . S
C780 C788 1.378 . S
C781 C780 1.367 . S
C781 C789 1.433 . S
C782 H778 0.929 . S
C782 C784 1.378 . S
C782 C786 1.350 . S
C783 C786 1.463 1_545 S
C783 C788 1.350 . S
C783 N791 1.427 . S
C784 H775 0.930 . S
C784 C782 1.378 . S
C784 C785 1.367 . S
C785 C784 1.367 . S
C785 C787 1.433 . S
C786 C782 1.350 . S
C786 C783 1.463 1_565 S
C786 N790 1.427 . S
C787 H777 0.929 . S
C787 C785 1.433 . S
C787 N790 1.384 . S
C788 H779 0.929 . S
C788 C780 1.378 . S
C788 C783 1.350 . S
C789 H776 0.929 . S
C789 C781 1.433 . S
C789 N791 1.384 . S
N790 C786 1.427 . S
N790 C787 1.384 . S
N791 C783 1.427 . S
N791 C789 1.384 . S
H792 C798 0.930 . S
H793 C802 0.930 . S
H794 C807 0.929 . S
H795 C805 0.929 . S
H796 C800 0.929 1_455 S
H797 C806 0.929 1_655 S
C798 H792 0.930 . S
C798 C799 1.367 . S
C798 C806 1.378 . S
C799 C798 1.367 . S
C799 C807 1.433 . S
C800 H796 0.929 1_655 S
C800 C802 1.378 . S
C800 C804 1.350 . S
C801 C804 1.463 1_455 S
C801 C806 1.350 . S
C801 N809 1.427 . S
C802 H793 0.930 . S
C802 C800 1.378 . S
C802 C803 1.367 . S
C803 C802 1.367 . S
C803 C805 1.433 . S
C804 C800 1.350 . S
C804 C801 1.463 1_655 S
C804 N808 1.427 . S
C805 H795 0.929 . S
C805 C803 1.433 . S
C805 N808 1.384 . S
C806 H797 0.929 1_455 S
C806 C798 1.378 . S
C806 C801 1.350 . S
C807 H794 0.929 . S
C807 C799 1.433 . S
C807 N809 1.384 . S
N808 C804 1.427 . S
N808 C805 1.384 . S
N809 C801 1.427 . S
N809 C807 1.384 . S
H810 C816 0.930 . S
H811 C820 0.930 . S
H812 C825 0.929 . S
H813 C823 0.929 . S
H814 C818 0.929 . S
H815 C824 0.929 . S
C816 H810 0.930 . S
C816 C817 1.367 . S
C816 C824 1.378 . S
C817 C816 1.367 . S
C817 C825 1.433 . S
C818 H814 0.929 . S
C818 C820 1.378 . S
C818 C822 1.350 . S
C819 C822 1.463 . S
C819 C824 1.350 . S
C819 N827 1.427 . S
C820 H811 0.930 . S
C820 C818 1.378 . S
C820 C821 1.367 . S
C821 C820 1.367 . S
C821 C823 1.433 . S
C822 C818 1.350 . S
C822 C819 1.463 . S
C822 N826 1.427 . S
C823 H813 0.929 . S
C823 C821 1.433 . S
C823 N826 1.384 . S
C824 H815 0.929 . S
C824 C816 1.378 . S
C824 C819 1.350 . S
C825 H812 0.929 . S
C825 C817 1.433 . S
C825 N827 1.384 . S
N826 C822 1.427 . S
N826 C823 1.384 . S
N827 C819 1.427 . S
N827 C825 1.384 . S
H828 C834 0.930 . S
H829 C838 0.930 . S
H830 C843 0.929 . S
H831 C841 0.929 . S
H832 C836 0.929 1_545 S
H833 C842 0.929 1_565 S
C834 H828 0.930 . S
C834 C835 1.367 . S
C834 C842 1.378 . S
C835 C834 1.367 . S
C835 C843 1.433 . S
C836 H832 0.929 1_565 S
C836 C838 1.378 . S
C836 C840 1.350 . S
C837 C840 1.463 1_545 S
C837 C842 1.350 . S
C837 N845 1.427 . S
C838 H829 0.930 . S
C838 C836 1.378 . S
C838 C839 1.367 . S
C839 C838 1.367 . S
C839 C841 1.433 . S
C840 C836 1.350 . S
C840 C837 1.463 1_565 S
C840 N844 1.427 . S
C841 H831 0.929 . S
C841 C839 1.433 . S
C841 N844 1.384 . S
C842 H833 0.929 1_545 S
C842 C834 1.378 . S
C842 C837 1.350 . S
C843 H830 0.929 . S
C843 C835 1.433 . S
C843 N845 1.384 . S
N844 C840 1.427 . S
N844 C841 1.384 . S
N845 C837 1.427 . S
N845 C843 1.384 . S
H846 C852 0.930 . S
H847 C856 0.930 . S
H848 C861 0.929 . S
H849 C859 0.929 . S
H850 C854 0.929 . S
H851 C860 0.929 . S
C852 H846 0.930 . S
C852 C853 1.367 . S
C852 C860 1.378 . S
C853 C852 1.367 . S
C853 C861 1.433 . S
C854 H850 0.929 . S
C854 C856 1.378 . S
C854 C858 1.350 . S
C855 C858 1.463 1_455 S
C855 C860 1.350 . S
C855 N863 1.427 . S
C856 H847 0.930 . S
C856 C854 1.378 . S
C856 C857 1.367 . S
C857 C856 1.367 . S
C857 C859 1.433 . S
C858 C854 1.350 . S
C858 C855 1.463 1_655 S
C858 N862 1.427 . S
C859 H849 0.929 . S
C859 C857 1.433 . S
C859 N862 1.384 . S
C860 H851 0.929 . S
C860 C852 1.378 . S
C860 C855 1.350 . S
C861 H848 0.929 . S
C861 C853 1.433 . S
C861 N863 1.384 . S
N862 C858 1.427 . S
N862 C859 1.384 . S
N863 C855 1.427 . S
N863 C861 1.384 . S
H864 C870 0.930 . S
H865 C874 0.930 . S
H866 C879 0.929 . S
H867 C877 0.929 . S
H868 C872 0.929 . S
H869 C878 0.929 . S
C870 H864 0.930 . S
C870 C871 1.367 . S
C870 C878 1.378 . S
C871 C870 1.367 . S
C871 C879 1.433 . S
C872 H868 0.929 . S
C872 C874 1.378 . S
C872 C876 1.350 . S
C873 C876 1.463 . S
C873 C878 1.350 . S
C873 N881 1.427 . S
C874 H865 0.930 . S
C874 C872 1.378 . S
C874 C875 1.367 . S
C875 C874 1.367 . S
C875 C877 1.433 . S
C876 C872 1.350 . S
C876 C873 1.463 . S
C876 N880 1.427 . S
C877 H867 0.929 . S
C877 C875 1.433 . S
C877 N880 1.384 . S
C878 H869 0.929 . S
C878 C870 1.378 . S
C878 C873 1.350 . S
C879 H866 0.929 . S
C879 C871 1.433 . S
C879 N881 1.384 . S
N880 C876 1.427 . S
N880 C877 1.384 . S
N881 C873 1.427 . S
N881 C879 1.384 . S
H882 C888 0.930 . S
H883 C892 0.930 . S
H884 C897 0.929 . S
H885 C895 0.929 . S
H886 C890 0.929 . S
H887 C896 0.929 . S
C888 H882 0.930 . S
C888 C889 1.367 . S
C888 C896 1.378 . S
C889 C888 1.367 . S
C889 C897 1.433 . S
C890 H886 0.929 . S
C890 C892 1.378 . S
C890 C894 1.350 . S
C891 C894 1.463 . S
C891 C896 1.350 . S
C891 N899 1.427 . S
C892 H883 0.930 . S
C892 C890 1.378 . S
C892 C893 1.367 . S
C893 C892 1.367 . S
C893 C895 1.433 . S
C894 C890 1.350 . S
C894 C891 1.463 . S
C894 N898 1.427 . S
C895 H885 0.929 . S
C895 C893 1.433 . S
C895 N898 1.384 . S
C896 H887 0.929 . S
C896 C888 1.378 . S
C896 C891 1.350 . S
C897 H884 0.929 . S
C897 C889 1.433 . S
C897 N899 1.384 . S
N898 C894 1.427 . S
N898 C895 1.384 . S
N899 C891 1.427 . S
N899 C897 1.384 . S
H900 C906 0.930 . S
H901 C910 0.930 . S
H902 C915 0.929 . S
H903 C913 0.929 . S
H904 C908 0.929 . S
H905 C914 0.929 . S
C906 H900 0.930 . S
C906 C907 1.367 . S
C906 C914 1.378 . S
C907 C906 1.367 . S
C907 C915 1.433 . S
C908 H904 0.929 . S
C908 C910 1.378 . S
C908 C912 1.350 . S
C909 C912 1.463 . S
C909 C914 1.350 . S
C909 N917 1.427 . S
C910 H901 0.930 . S
C910 C908 1.378 . S
C910 C911 1.367 . S
C911 C910 1.367 . S
C911 C913 1.433 . S
C912 C908 1.350 . S
C912 C909 1.463 . S
C912 N916 1.427 . S
C913 H903 0.929 . S
C913 C911 1.433 . S
C913 N916 1.384 . S
C914 H905 0.929 . S
C914 C906 1.378 . S
C914 C909 1.350 . S
C915 H902 0.929 . S
C915 C907 1.433 . S
C915 N917 1.384 . S
N916 C912 1.427 . S
N916 C913 1.384 . S
N917 C909 1.427 . S
N917 C915 1.384 . S
H918 C924 0.930 . S
H919 C928 0.930 . S
H920 C933 0.929 . S
H921 C931 0.929 . S
H922 C926 0.929 . S
H923 C932 0.929 . S
C924 H918 0.930 . S
C924 C925 1.367 . S
C924 C932 1.378 . S
C925 C924 1.367 . S
C925 C933 1.433 . S
C926 H922 0.929 . S
C926 C928 1.378 . S
C926 C930 1.350 . S
C927 C930 1.463 . S
C927 C932 1.350 . S
C927 N935 1.427 . S
C928 H919 0.930 . S
C928 C926 1.378 . S
C928 C929 1.367 . S
C929 C928 1.367 . S
C929 C931 1.433 . S
C930 C926 1.350 . S
C930 C927 1.463 . S
C930 N934 1.427 . S
C931 H921 0.929 . S
C931 C929 1.433 . S
C931 N934 1.384 . S
C932 H923 0.929 . S
C932 C924 1.378 . S
C932 C927 1.350 . S
C933 H920 0.929 . S
C933 C925 1.433 . S
C933 N935 1.384 . S
N934 C930 1.427 . S
N934 C931 1.384 . S
N935 C927 1.427 . S
N935 C933 1.384 . S
H936 C942 0.930 . S
H937 C946 0.930 . S
H938 C951 0.929 . S
H939 C949 0.929 . S
H940 C944 0.929 . S
H941 C950 0.929 . S
C942 H936 0.930 . S
C942 C943 1.367 . S
C942 C950 1.378 . S
C943 C942 1.367 . S
C943 C951 1.433 . S
C944 H940 0.929 . S
C944 C946 1.378 . S
C944 C948 1.350 . S
C945 C948 1.463 . S
C945 C950 1.350 . S
C945 N953 1.427 . S
C946 H937 0.930 . S
C946 C944 1.378 . S
C946 C947 1.367 . S
C947 C946 1.367 . S
C947 C949 1.433 . S
C948 C944 1.350 . S
C948 C945 1.463 . S
C948 N952 1.427 . S
C949 H939 0.929 . S
C949 C947 1.433 . S
C949 N952 1.384 . S
C950 H941 0.929 . S
C950 C942 1.378 . S
C950 C945 1.350 . S
C951 H938 0.929 . S
C951 C943 1.433 . S
C951 N953 1.384 . S
N952 C948 1.427 . S
N952 C949 1.384 . S
N953 C945 1.427 . S
N953 C951 1.384 . S
H954 C960 0.930 . S
H955 C964 0.930 . S
H956 C969 0.929 . S
H957 C967 0.929 . S
H958 C962 0.929 . S
H959 C968 0.929 . S
C960 H954 0.930 . S
C960 C961 1.367 . S
C960 C968 1.378 . S
C961 C960 1.367 . S
C961 C969 1.433 . S
C962 H958 0.929 . S
C962 C964 1.378 . S
C962 C966 1.350 . S
C963 C966 1.463 . S
C963 C968 1.350 . S
C963 N971 1.427 . S
C964 H955 0.930 . S
C964 C962 1.378 . S
C964 C965 1.367 . S
C965 C964 1.367 . S
C965 C967 1.433 . S
C966 C962 1.350 . S
C966 C963 1.463 . S
C966 N970 1.427 . S
C967 H957 0.929 . S
C967 C965 1.433 . S
C967 N970 1.384 . S
C968 H959 0.929 . S
C968 C960 1.378 . S
C968 C963 1.350 . S
C969 H956 0.929 . S
C969 C961 1.433 . S
C969 N971 1.384 . S
N970 C966 1.427 . S
N970 C967 1.384 . S
N971 C963 1.427 . S
N971 C969 1.384 . S
H972 C978 0.930 . S
H973 C982 0.930 . S
H974 C987 0.929 . S
H975 C985 0.929 . S
H976 C980 0.929 . S
H977 C986 0.929 . S
C978 H972 0.930 . S
C978 C979 1.367 . S
C978 C986 1.378 . S
C979 C978 1.367 . S
C979 C987 1.433 . S
C980 H976 0.929 . S
C980 C982 1.378 . S
C980 C984 1.350 . S
C981 C984 1.463 . S
C981 C986 1.350 . S
C981 N989 1.427 . S
C982 H973 0.930 . S
C982 C980 1.378 . S
C982 C983 1.367 . S
C983 C982 1.367 . S
C983 C985 1.433 . S
C984 C980 1.350 . S
C984 C981 1.463 . S
C984 N988 1.427 . S
C985 H975 0.929 . S
C985 C983 1.433 . S
C985 N988 1.384 . S
C986 H977 0.929 . S
C986 C978 1.378 . S
C986 C981 1.350 . S
C987 H974 0.929 . S
C987 C979 1.433 . S
C987 N989 1.384 . S
N988 C984 1.427 . S
N988 C985 1.384 . S
N989 C981 1.427 . S
N989 C987 1.384 . S
H990 C996 0.930 . S
H991 C1000 0.930 . S
H992 C1005 0.929 . S
H993 C1003 0.929 . S
H994 C998 0.929 . S
H995 C1004 0.929 . S
C996 H990 0.930 . S
C996 C997 1.367 . S
C996 C1004 1.378 . S
C997 C996 1.367 . S
C997 C1005 1.433 . S
C998 H994 0.929 . S
C998 C1000 1.378 . S
C998 C1002 1.350 . S
C999 C1002 1.463 . S
C999 C1004 1.350 . S
C999 N1007 1.427 . S
C1000 H991 0.930 . S
C1000 C998 1.378 . S
C1000 C1001 1.367 . S
C1001 C1000 1.367 . S
C1001 C1003 1.433 . S
C1002 C998 1.350 . S
C1002 C999 1.463 . S
C1002 N1006 1.427 . S
C1003 H993 0.929 . S
C1003 C1001 1.433 . S
C1003 N1006 1.384 . S
C1004 H995 0.929 . S
C1004 C996 1.378 . S
C1004 C999 1.350 . S
C1005 H992 0.929 . S
C1005 C997 1.433 . S
C1005 N1007 1.384 . S
N1006 C1002 1.427 . S
N1006 C1003 1.384 . S
N1007 C999 1.427 . S
N1007 C1005 1.384 . S
H1008 C1014 0.930 . S
H1009 C1018 0.930 . S
H1010 C1023 0.929 . S
H1011 C1021 0.929 . S
H1012 C1016 0.929 . S
H1013 C1022 0.929 . S
C1014 H1008 0.930 . S
C1014 C1015 1.367 . S
C1014 C1022 1.378 . S
C1015 C1014 1.367 . S
C1015 C1023 1.433 . S
C1016 H1012 0.929 . S
C1016 C1018 1.378 . S
C1016 C1020 1.350 . S
C1017 C1020 1.463 . S
C1017 C1022 1.350 . S
C1017 N1025 1.427 . S
C1018 H1009 0.930 . S
C1018 C1016 1.378 . S
C1018 C1019 1.367 . S
C1019 C1018 1.367 . S
C1019 C1021 1.433 . S
C1020 C1016 1.350 . S
C1020 C1017 1.463 . S
C1020 N1024 1.427 . S
C1021 H1011 0.929 . S
C1021 C1019 1.433 . S
C1021 N1024 1.384 . S
C1022 H1013 0.929 . S
C1022 C1014 1.378 . S
C1022 C1017 1.350 . S
C1023 H1010 0.929 . S
C1023 C1015 1.433 . S
C1023 N1025 1.384 . S
N1024 C1020 1.427 . S
N1024 C1021 1.384 . S
N1025 C1017 1.427 . S
N1025 C1023 1.384 . S
H1026 C1032 0.930 . S
H1027 C1036 0.930 . S
H1028 C1041 0.929 . S
H1029 C1039 0.929 . S
H1030 C1034 0.929 . S
H1031 C1040 0.929 . S
C1032 H1026 0.930 . S
C1032 C1033 1.367 . S
C1032 C1040 1.378 . S
C1033 C1032 1.367 . S
C1033 C1041 1.433 . S
C1034 H1030 0.929 . S
C1034 C1036 1.378 . S
C1034 C1038 1.350 . S
C1035 C1038 1.463 . S
C1035 C1040 1.350 . S
C1035 N1043 1.427 . S
C1036 H1027 0.930 . S
C1036 C1034 1.378 . S
C1036 C1037 1.367 . S
C1037 C1036 1.367 . S
C1037 C1039 1.433 . S
C1038 C1034 1.350 . S
C1038 C1035 1.463 . S
C1038 N1042 1.427 . S
C1039 H1029 0.929 . S
C1039 C1037 1.433 . S
C1039 N1042 1.384 . S
C1040 H1031 0.929 . S
C1040 C1032 1.378 . S
C1040 C1035 1.350 . S
C1041 H1028 0.929 . S
C1041 C1033 1.433 . S
C1041 N1043 1.384 . S
N1042 C1038 1.427 . S
N1042 C1039 1.384 . S
N1043 C1035 1.427 . S
N1043 C1041 1.384 . S
H1044 C1050 0.930 . S
H1045 C1054 0.930 . S
H1046 C1059 0.929 . S
H1047 C1057 0.929 . S
H1048 C1052 0.929 . S
H1049 C1058 0.929 . S
C1050 H1044 0.930 . S
C1050 C1051 1.367 . S
C1050 C1058 1.378 . S
C1051 C1050 1.367 . S
C1051 C1059 1.433 . S
C1052 H1048 0.929 . S
C1052 C1054 1.378 . S
C1052 C1056 1.350 . S
C1053 C1056 1.463 . S
C1053 C1058 1.350 . S
C1053 N1061 1.427 . S
C1054 H1045 0.930 . S
C1054 C1052 1.378 . S
C1054 C1055 1.367 . S
C1055 C1054 1.367 . S
C1055 C1057 1.433 . S
C1056 C1052 1.350 . S
C1056 C1053 1.463 . S
C1056 N1060 1.427 . S
C1057 H1047 0.929 . S
C1057 C1055 1.433 . S
C1057 N1060 1.384 . S
C1058 H1049 0.929 . S
C1058 C1050 1.378 . S
C1058 C1053 1.350 . S
C1059 H1046 0.929 . S
C1059 C1051 1.433 . S
C1059 N1061 1.384 . S
N1060 C1056 1.427 . S
N1060 C1057 1.384 . S
N1061 C1053 1.427 . S
N1061 C1059 1.384 . S
H1062 C1068 0.930 . S
H1063 C1072 0.930 . S
H1064 C1077 0.929 . S
H1065 C1075 0.929 . S
H1066 C1070 0.929 . S
H1067 C1076 0.929 . S
C1068 H1062 0.930 . S
C1068 C1069 1.367 . S
C1068 C1076 1.378 . S
C1069 C1068 1.367 . S
C1069 C1077 1.433 . S
C1070 H1066 0.929 . S
C1070 C1072 1.378 . S
C1070 C1074 1.350 . S
C1071 C1074 1.463 . S
C1071 C1076 1.350 . S
C1071 N1079 1.427 . S
C1072 H1063 0.930 . S
C1072 C1070 1.378 . S
C1072 C1073 1.367 . S
C1073 C1072 1.367 . S
C1073 C1075 1.433 . S
C1074 C1070 1.350 . S
C1074 C1071 1.463 . S
C1074 N1078 1.427 . S
C1075 H1065 0.929 . S
C1075 C1073 1.433 . S
C1075 N1078 1.384 . S
C1076 H1067 0.929 . S
C1076 C1068 1.378 . S
C1076 C1071 1.350 . S
C1077 H1064 0.929 . S
C1077 C1069 1.433 . S
C1077 N1079 1.384 . S
N1078 C1074 1.427 . S
N1078 C1075 1.384 . S
N1079 C1071 1.427 . S
N1079 C1077 1.384 . S
H1080 C1086 0.930 . S
H1081 C1090 0.930 . S
H1082 C1095 0.929 . S
H1083 C1093 0.929 . S
H1084 C1088 0.929 . S
H1085 C1094 0.929 . S
C1086 H1080 0.930 . S
C1086 C1087 1.367 . S
C1086 C1094 1.378 . S
C1087 C1086 1.367 . S
C1087 C1095 1.433 . S
C1088 H1084 0.929 . S
C1088 C1090 1.378 . S
C1088 C1092 1.350 . S
C1089 C1092 1.463 . S
C1089 C1094 1.350 . S
C1089 N1097 1.427 . S
C1090 H1081 0.930 . S
C1090 C1088 1.378 . S
C1090 C1091 1.367 . S
C1091 C1090 1.367 . S
C1091 C1093 1.433 . S
C1092 C1088 1.350 . S
C1092 C1089 1.463 . S
C1092 N1096 1.427 . S
C1093 H1083 0.929 . S
C1093 C1091 1.433 . S
C1093 N1096 1.384 . S
C1094 H1085 0.929 . S
C1094 C1086 1.378 . S
C1094 C1089 1.350 . S
C1095 H1082 0.929 . S
C1095 C1087 1.433 . S
C1095 N1097 1.384 . S
N1096 C1092 1.427 . S
N1096 C1093 1.384 . S
N1097 C1089 1.427 . S
N1097 C1095 1.384 . S
H1098 C1104 0.930 . S
H1099 C1108 0.930 1_655 S
H1100 C1113 0.929 . S
H1101 C1111 0.929 . S
H1102 C1106 0.929 . S
H1103 C1112 0.929 . S
C1104 H1098 0.930 . S
C1104 C1105 1.367 . S
C1104 C1112 1.378 . S
C1105 C1104 1.367 . S
C1105 C1113 1.433 . S
C1106 H1102 0.929 . S
C1106 C1108 1.378 . S
C1106 C1110 1.350 . S
C1107 C1110 1.463 . S
C1107 C1112 1.350 . S
C1107 N1115 1.427 . S
C1108 H1099 0.930 1_455 S
C1108 C1106 1.378 . S
C1108 C1109 1.375 . S
C1109 C1108 1.375 . S
C1109 C1111 1.439 . S
C1110 C1106 1.350 . S
C1110 C1107 1.463 . S
C1110 N1114 1.427 . S
C1111 H1101 0.929 . S
C1111 C1109 1.439 . S
C1111 N1114 1.384 . S
C1112 H1103 0.929 . S
C1112 C1104 1.378 . S
C1112 C1107 1.350 . S
C1113 H1100 0.929 . S
C1113 C1105 1.433 . S
C1113 N1115 1.384 . S
N1114 C1110 1.427 . S
N1114 C1111 1.384 . S
N1115 C1107 1.427 . S
N1115 C1113 1.384 . S
H1116 C1122 0.930 . S
H1117 C1126 0.930 . S
H1118 C1131 0.929 . S
H1119 C1129 0.929 . S
H1120 C1124 0.929 . S
H1121 C1130 0.929 . S
C1122 H1116 0.930 . S
C1122 C1123 1.367 . S
C1122 C1130 1.378 . S
C1123 C1122 1.367 . S
C1123 C1131 1.433 . S
C1124 H1120 0.929 . S
C1124 C1126 1.378 . S
C1124 C1128 1.350 . S
C1125 C1128 1.463 . S
C1125 C1130 1.350 . S
C1125 N1133 1.427 . S
C1126 H1117 0.930 . S
C1126 C1124 1.378 . S
C1126 C1127 1.367 . S
C1127 C1126 1.367 . S
C1127 C1129 1.433 . S
C1128 C1124 1.350 . S
C1128 C1125 1.463 . S
C1128 N1132 1.427 . S
C1129 H1119 0.929 . S
C1129 C1127 1.433 . S
C1129 N1132 1.384 . S
C1130 H1121 0.929 . S
C1130 C1122 1.378 . S
C1130 C1125 1.350 . S
C1131 H1118 0.929 . S
C1131 C1123 1.433 . S
C1131 N1133 1.384 . S
N1132 C1128 1.427 . S
N1132 C1129 1.384 . S
N1133 C1125 1.427 . S
N1133 C1131 1.384 . S
H1134 C1140 0.930 . S
H1135 C1144 0.930 1_545 S
H1136 C1149 0.929 . S
H1137 C1147 0.929 . S
H1138 C1142 0.929 . S
H1139 C1148 0.929 . S
C1140 H1134 0.930 . S
C1140 C1141 1.367 . S
C1140 C1148 1.378 . S
C1141 C1140 1.367 . S
C1141 C1149 1.433 . S
C1142 H1138 0.929 . S
C1142 C1144 1.378 . S
C1142 C1146 1.350 . S
C1143 C1146 1.463 . S
C1143 C1148 1.350 . S
C1143 N1151 1.427 . S
C1144 H1135 0.930 1_565 S
C1144 C1142 1.378 . S
C1144 C1145 1.364 . S
C1145 C1144 1.364 . S
C1145 C1147 1.441 . S
C1146 C1142 1.350 . S
C1146 C1143 1.463 . S
C1146 N1150 1.427 . S
C1147 H1137 0.929 . S
C1147 C1145 1.441 . S
C1147 N1150 1.384 . S
C1148 H1139 0.929 . S
C1148 C1140 1.378 . S
C1148 C1143 1.350 . S
C1149 H1136 0.929 . S
C1149 C1141 1.433 . S
C1149 N1151 1.384 . S
N1150 C1146 1.427 . S
N1150 C1147 1.384 . S
N1151 C1143 1.427 . S
N1151 C1149 1.384 . S
H1152 C1158 0.930 . S
H1153 C1162 0.930 . S
H1154 C1167 0.929 . S
H1155 C1165 0.929 1_565 S
H1156 C1160 0.929 . S
H1157 C1166 0.929 . S
C1158 H1152 0.930 . S
C1158 C1159 1.367 . S
C1158 C1166 1.378 . S
C1159 C1158 1.367 . S
C1159 C1167 1.433 . S
C1160 H1156 0.929 . S
C1160 C1162 1.378 . S
C1160 C1164 1.350 . S
C1161 C1164 1.463 . S
C1161 C1166 1.350 . S
C1161 N1169 1.427 . S
C1162 H1153 0.930 . S
C1162 C1160 1.378 . S
C1162 C1163 1.380 . S
C1163 C1162 1.380 . S
C1163 C1165 1.445 . S
C1164 C1160 1.350 . S
C1164 C1161 1.463 . S
C1164 N1168 1.427 . S
C1165 H1155 0.929 1_545 S
C1165 C1163 1.445 . S
C1165 N1168 1.384 . S
C1166 H1157 0.929 . S
C1166 C1158 1.378 . S
C1166 C1161 1.350 . S
C1167 H1154 0.929 . S
C1167 C1159 1.433 . S
C1167 N1169 1.384 . S
N1168 C1164 1.427 . S
N1168 C1165 1.384 . S
N1169 C1161 1.427 . S
N1169 C1167 1.384 . S
H1170 C1176 0.930 . S
H1171 C1180 0.930 . S
H1172 C1185 0.929 . S
H1173 C1183 0.929 1_455 S
H1174 C1178 0.929 . S
H1175 C1184 0.929 . S
C1176 H1170 0.930 . S
C1176 C1177 1.367 . S
C1176 C1184 1.378 . S
C1177 C1176 1.367 . S
C1177 C1185 1.433 . S
C1178 H1174 0.929 . S
C1178 C1180 1.378 . S
C1178 C1182 1.350 . S
C1179 C1182 1.463 . S
C1179 C1184 1.350 . S
C1179 N1187 1.427 . S
C1180 H1171 0.930 . S
C1180 C1178 1.378 . S
C1180 C1181 1.399 . S
C1181 C1180 1.399 . S
C1181 C1183 1.420 . S
C1182 C1178 1.350 . S
C1182 C1179 1.463 . S
C1182 N1186 1.427 . S
C1183 H1173 0.929 1_655 S
C1183 C1181 1.420 . S
C1183 N1186 1.384 . S
C1184 H1175 0.929 . S
C1184 C1176 1.378 . S
C1184 C1179 1.350 . S
C1185 H1172 0.929 . S
C1185 C1177 1.433 . S
C1185 N1187 1.384 . S
N1186 C1182 1.427 . S
N1186 C1183 1.384 . S
N1187 C1179 1.427 . S
N1187 C1185 1.384 . S
H1188 C1194 0.930 . S
H1189 C1198 0.930 . S
H1190 C1203 0.929 . S
H1191 C1201 0.929 . S
H1192 C1196 0.929 . S
H1193 C1202 0.929 . S
C1194 H1188 0.930 . S
C1194 C1195 1.367 . S
C1194 C1202 1.378 . S
C1195 C1194 1.367 . S
C1195 C1203 1.433 . S
C1196 H1192 0.929 . S
C1196 C1198 1.378 . S
C1196 C1200 1.350 . S
C1197 C1200 1.463 . S
C1197 C1202 1.350 . S
C1197 N1205 1.427 . S
C1198 H1189 0.930 . S
C1198 C1196 1.378 . S
C1198 C1199 1.367 . S
C1199 C1198 1.367 . S
C1199 C1201 1.433 . S
C1200 C1196 1.350 . S
C1200 C1197 1.463 . S
C1200 N1204 1.427 . S
C1201 H1191 0.929 . S
C1201 C1199 1.433 . S
C1201 N1204 1.384 . S
C1202 H1193 0.929 . S
C1202 C1194 1.378 . S
C1202 C1197 1.350 . S
C1203 H1190 0.929 . S
C1203 C1195 1.433 . S
C1203 N1205 1.384 . S
N1204 C1200 1.427 . S
N1204 C1201 1.384 . S
N1205 C1197 1.427 . S
N1205 C1203 1.384 . S
H1206 C1212 0.930 . S
H1207 C1216 0.930 . S
H1208 C1221 0.929 . S
H1209 C1219 0.929 . S
H1210 C1214 0.929 . S
H1211 C1220 0.929 . S
C1212 H1206 0.930 . S
C1212 C1213 1.367 . S
C1212 C1220 1.378 . S
C1213 C1212 1.367 . S
C1213 C1221 1.433 . S
C1214 H1210 0.929 . S
C1214 C1216 1.378 . S
C1214 C1218 1.350 . S
C1215 C1218 1.463 . S
C1215 C1220 1.350 . S
C1215 N1223 1.427 . S
C1216 H1207 0.930 . S
C1216 C1214 1.378 . S
C1216 C1217 1.367 . S
C1217 C1216 1.367 . S
C1217 C1219 1.433 . S
C1218 C1214 1.350 . S
C1218 C1215 1.463 . S
C1218 N1222 1.427 . S
C1219 H1209 0.929 . S
C1219 C1217 1.433 . S
C1219 N1222 1.384 . S
C1220 H1211 0.929 . S
C1220 C1212 1.378 . S
C1220 C1215 1.350 . S
C1221 H1208 0.929 . S
C1221 C1213 1.433 . S
C1221 N1223 1.384 . S
N1222 C1218 1.427 . S
N1222 C1219 1.384 . S
N1223 C1215 1.427 . S
N1223 C1221 1.384 . S
H1224 C1230 0.930 . S
H1225 C1234 0.930 . S
H1226 C1239 0.929 . S
H1227 C1237 0.929 . S
H1228 C1232 0.929 . S
H1229 C1238 0.929 . S
C1230 H1224 0.930 . S
C1230 C1231 1.367 . S
C1230 C1238 1.378 . S
C1231 C1230 1.367 . S
C1231 C1239 1.433 . S
C1232 H1228 0.929 . S
C1232 C1234 1.378 . S
C1232 C1236 1.350 . S
C1233 C1236 1.463 . S
C1233 C1238 1.350 . S
C1233 N1241 1.427 . S
C1234 H1225 0.930 . S
C1234 C1232 1.378 . S
C1234 C1235 1.367 . S
C1235 C1234 1.367 . S
C1235 C1237 1.433 . S
C1236 C1232 1.350 . S
C1236 C1233 1.463 . S
C1236 N1240 1.427 . S
C1237 H1227 0.929 . S
C1237 C1235 1.433 . S
C1237 N1240 1.384 . S
C1238 H1229 0.929 . S
C1238 C1230 1.378 . S
C1238 C1233 1.350 . S
C1239 H1226 0.929 . S
C1239 C1231 1.433 . S
C1239 N1241 1.384 . S
N1240 C1236 1.427 . S
N1240 C1237 1.384 . S
N1241 C1233 1.427 . S
N1241 C1239 1.384 . S
H1242 C1248 0.930 . S
H1243 C1252 0.930 . S
H1244 C1257 0.929 . S
H1245 C1255 0.929 . S
H1246 C1250 0.929 . S
H1247 C1256 0.929 . S
C1248 H1242 0.930 . S
C1248 C1249 1.367 . S
C1248 C1256 1.378 . S
C1249 C1248 1.367 . S
C1249 C1257 1.433 . S
C1250 H1246 0.929 . S
C1250 C1252 1.378 . S
C1250 C1254 1.350 . S
C1251 C1254 1.463 . S
C1251 C1256 1.350 . S
C1251 N1259 1.427 . S
C1252 H1243 0.930 . S
C1252 C1250 1.378 . S
C1252 C1253 1.367 . S
C1253 C1252 1.367 . S
C1253 C1255 1.433 . S
C1254 C1250 1.350 . S
C1254 C1251 1.463 . S
C1254 N1258 1.427 . S
C1255 H1245 0.929 . S
C1255 C1253 1.433 . S
C1255 N1258 1.384 . S
C1256 H1247 0.929 . S
C1256 C1248 1.378 . S
C1256 C1251 1.350 . S
C1257 H1244 0.929 . S
C1257 C1249 1.433 . S
C1257 N1259 1.384 . S
N1258 C1254 1.427 . S
N1258 C1255 1.384 . S
N1259 C1251 1.427 . S
N1259 C1257 1.384 . S
H1260 C1266 0.946 . S
H1261 C1270 0.930 . S
H1262 C1275 0.929 . S
H1263 C1273 0.929 1_556 S
H1264 C1268 0.929 . S
H1265 C1274 0.929 1_556 S
C1266 H1260 0.946 . S
C1266 C1267 1.367 . S
C1266 C1274 1.378 . S
C1267 C1266 1.367 . S
C1267 C1275 1.433 . S
C1268 H1264 0.929 . S
C1268 C1270 1.378 . S
C1268 C1272 1.350 . S
C1269 C1272 1.463 . S
C1269 C1274 1.350 . S
C1269 N1277 1.427 . S
C1270 H1261 0.930 . S
C1270 C1268 1.378 . S
C1270 C1271 1.367 . S
C1271 C1270 1.367 . S
C1271 C1273 1.433 . S
C1272 C1268 1.350 . S
C1272 C1269 1.463 . S
C1272 N1276 1.427 . S
C1273 H1263 0.929 1_554 S
C1273 C1271 1.433 . S
C1273 N1276 1.384 . S
C1274 H1265 0.929 1_554 S
C1274 C1266 1.378 . S
C1274 C1269 1.350 . S
C1275 H1262 0.929 . S
C1275 C1267 1.433 . S
C1275 N1277 1.384 . S
N1276 C1272 1.427 . S
N1276 C1273 1.384 . S
N1277 C1269 1.427 . S
N1277 C1275 1.384 . S
H1278 C1284 0.930 1_556 S
H1279 C1288 0.930 . S
H1280 C1293 0.929 . S
H1281 C1291 0.929 1_556 S
H1282 C1286 0.929 . S
H1283 C1292 0.929 1_556 S
C1284 H1278 0.930 1_554 S
C1284 C1285 1.367 . S
C1284 C1292 1.378 . S
C1285 C1284 1.367 . S
C1285 C1293 1.433 . S
C1286 H1282 0.929 . S
C1286 C1288 1.378 . S
C1286 C1290 1.350 . S
C1287 C1290 1.463 . S
C1287 C1292 1.350 . S
C1287 N1295 1.427 . S
C1288 H1279 0.930 . S
C1288 C1286 1.378 . S
C1288 C1289 1.367 . S
C1289 C1288 1.367 . S
C1289 C1291 1.433 . S
C1290 C1286 1.350 . S
C1290 C1287 1.463 . S
C1290 N1294 1.427 . S
C1291 H1281 0.929 1_554 S
C1291 C1289 1.433 . S
C1291 N1294 1.384 . S
C1292 H1283 0.929 1_554 S
C1292 C1284 1.378 . S
C1292 C1287 1.350 . S
C1293 H1280 0.929 . S
C1293 C1285 1.433 . S
C1293 N1295 1.384 . S
N1294 C1290 1.427 . S
N1294 C1291 1.384 . S
N1295 C1287 1.427 . S
N1295 C1293 1.384 . S
H1296 C1302 0.930 1_556 S
H1297 C1306 0.930 . S
H1298 C1311 0.929 . S
H1299 C1309 0.929 1_556 S
H1300 C1304 0.929 . S
H1301 C1310 0.929 1_556 S
C1302 H1296 0.930 1_554 S
C1302 C1303 1.367 . S
C1302 C1310 1.378 . S
C1303 C1302 1.367 . S
C1303 C1311 1.433 . S
C1304 H1300 0.929 . S
C1304 C1306 1.378 . S
C1304 C1308 1.350 . S
C1305 C1308 1.463 . S
C1305 C1310 1.350 . S
C1305 N1313 1.427 . S
C1306 H1297 0.930 . S
C1306 C1304 1.378 . S
C1306 C1307 1.367 . S
C1307 C1306 1.367 . S
C1307 C1309 1.433 . S
C1308 C1304 1.350 . S
C1308 C1305 1.463 . S
C1308 N1312 1.427 . S
C1309 H1299 0.929 1_554 S
C1309 C1307 1.433 . S
C1309 N1312 1.384 . S
C1310 H1301 0.929 1_554 S
C1310 C1302 1.378 . S
C1310 C1305 1.350 . S
C1311 H1298 0.929 . S
C1311 C1303 1.433 . S
C1311 N1313 1.384 . S
N1312 C1308 1.427 . S
N1312 C1309 1.384 . S
N1313 C1305 1.427 . S
N1313 C1311 1.384 . S
H1314 C1320 0.930 . S
H1315 C1324 0.930 1_554 S
H1316 C1329 0.929 1_554 S
H1317 C1327 0.929 . S
H1318 C1322 0.929 1_554 S
H1319 C1328 0.929 . S
C1320 H1314 0.930 . S
C1320 C1321 1.367 . S
C1320 C1328 1.378 . S
C1321 C1320 1.367 . S
C1321 C1329 1.433 . S
C1322 H1318 0.929 1_556 S
C1322 C1324 1.378 . S
C1322 C1326 1.350 . S
C1323 C1326 1.463 . S
C1323 C1328 1.350 . S
C1323 N1331 1.427 . S
C1324 H1315 0.930 1_556 S
C1324 C1322 1.378 . S
C1324 C1325 1.367 . S
C1325 C1324 1.367 . S
C1325 C1327 1.433 . S
C1326 C1322 1.350 . S
C1326 C1323 1.463 . S
C1326 N1330 1.427 . S
C1327 H1317 0.929 . S
C1327 C1325 1.433 . S
C1327 N1330 1.384 . S
C1328 H1319 0.929 . S
C1328 C1320 1.378 . S
C1328 C1323 1.350 . S
C1329 H1316 0.929 1_556 S
C1329 C1321 1.433 . S
C1329 N1331 1.384 . S
N1330 C1326 1.427 . S
N1330 C1327 1.384 . S
N1331 C1323 1.427 . S
N1331 C1329 1.384 . S
H1332 C1338 0.930 1_554 S
H1333 C1342 0.930 . S
H1334 C1347 0.929 . S
H1335 C1345 0.929 1_554 S
H1336 C1340 0.929 . S
H1337 C1346 0.929 1_554 S
C1338 H1332 0.930 1_556 S
C1338 C1339 1.367 . S
C1338 C1346 1.378 . S
C1339 C1338 1.367 . S
C1339 C1347 1.433 . S
C1340 H1336 0.929 . S
C1340 C1342 1.378 . S
C1340 C1344 1.350 . S
C1341 C1344 1.463 . S
C1341 C1346 1.350 . S
C1341 N1349 1.427 . S
C1342 H1333 0.930 . S
C1342 C1340 1.378 . S
C1342 C1343 1.367 . S
C1343 C1342 1.367 . S
C1343 C1345 1.433 . S
C1344 C1340 1.350 . S
C1344 C1341 1.463 . S
C1344 N1348 1.427 . S
C1345 H1335 0.929 1_556 S
C1345 C1343 1.433 . S
C1345 N1348 1.384 . S
C1346 H1337 0.929 1_556 S
C1346 C1338 1.378 . S
C1346 C1341 1.350 . S
C1347 H1334 0.929 . S
C1347 C1339 1.433 . S
C1347 N1349 1.384 . S
N1348 C1344 1.427 . S
N1348 C1345 1.384 . S
N1349 C1341 1.427 . S
N1349 C1347 1.384 . S
H1350 C1356 0.928 1_554 S
H1351 C1360 0.930 . S
H1352 C1365 0.929 . S
H1353 C1363 0.929 . S
H1354 C1358 0.929 . S
H1355 C1364 0.929 . S
C1356 H1350 0.928 1_556 S
C1356 C1357 1.367 . S
C1356 C1364 1.378 . S
C1357 C1356 1.367 . S
C1357 C1365 1.433 . S
C1358 H1354 0.929 . S
C1358 C1360 1.378 . S
C1358 C1362 1.350 . S
C1359 C1362 1.463 . S
C1359 C1364 1.350 . S
C1359 N1367 1.427 . S
C1360 H1351 0.930 . S
C1360 C1358 1.378 . S
C1360 C1361 1.367 . S
C1361 C1360 1.367 . S
C1361 C1363 1.433 . S
C1362 C1358 1.350 . S
C1362 C1359 1.463 . S
C1362 N1366 1.427 . S
C1363 H1353 0.929 . S
C1363 C1361 1.433 . S
C1363 N1366 1.384 . S
C1364 H1355 0.929 . S
C1364 C1356 1.378 . S
C1364 C1359 1.350 . S
C1365 H1352 0.929 . S
C1365 C1357 1.433 . S
C1365 N1367 1.384 . S
N1366 C1362 1.427 . S
N1366 C1363 1.384 . S
N1367 C1359 1.427 . S
N1367 C1365 1.384 . S
H1368 C1374 0.930 . S
H1369 C1378 0.930 . S
H1370 C1383 0.929 . S
H1371 C1381 0.929 . S
H1372 C1376 0.929 . S
H1373 C1382 0.929 . S
C1374 H1368 0.930 . S
C1374 C1375 1.367 . S
C1374 C1382 1.378 . S
C1375 C1374 1.367 . S
C1375 C1383 1.433 . S
C1376 H1372 0.929 . S
C1376 C1378 1.378 . S
C1376 C1380 1.350 . S
C1377 C1380 1.463 . S
C1377 C1382 1.350 . S
C1377 N1385 1.427 . S
C1378 H1369 0.930 . S
C1378 C1376 1.378 . S
C1378 C1379 1.367 . S
C1379 C1378 1.367 . S
C1379 C1381 1.433 . S
C1380 C1376 1.350 . S
C1380 C1377 1.463 . S
C1380 N1384 1.427 . S
C1381 H1371 0.929 . S
C1381 C1379 1.433 . S
C1381 N1384 1.384 . S
C1382 H1373 0.929 . S
C1382 C1374 1.378 . S
C1382 C1377 1.350 . S
C1383 H1370 0.929 . S
C1383 C1375 1.433 . S
C1383 N1385 1.384 . S
N1384 C1380 1.427 . S
N1384 C1381 1.384 . S
N1385 C1377 1.427 . S
N1385 C1383 1.384 . S
H1386 C1392 0.930 . S
H1387 C1396 0.930 . S
H1388 C1401 0.929 . S
H1389 C1399 0.929 . S
H1390 C1394 0.929 . S
H1391 C1400 0.929 . S
C1392 H1386 0.930 . S
C1392 C1393 1.367 . S
C1392 C1400 1.378 . S
C1393 C1392 1.367 . S
C1393 C1401 1.433 . S
C1394 H1390 0.929 . S
C1394 C1396 1.378 . S
C1394 C1398 1.350 . S
C1395 C1398 1.463 . S
C1395 C1400 1.350 . S
C1395 N1403 1.427 . S
C1396 H1387 0.930 . S
C1396 C1394 1.378 . S
C1396 C1397 1.367 . S
C1397 C1396 1.367 . S
C1397 C1399 1.433 . S
C1398 C1394 1.350 . S
C1398 C1395 1.463 . S
C1398 N1402 1.427 . S
C1399 H1389 0.929 . S
C1399 C1397 1.433 . S
C1399 N1402 1.384 . S
C1400 H1391 0.929 . S
C1400 C1392 1.378 . S
C1400 C1395 1.350 . S
C1401 H1388 0.929 . S
C1401 C1393 1.433 . S
C1401 N1403 1.384 . S
N1402 C1398 1.427 . S
N1402 C1399 1.384 . S
N1403 C1395 1.427 . S
N1403 C1401 1.384 . S
H1404 C1410 0.930 . S
H1405 C1414 0.930 . S
H1406 C1419 0.929 . S
H1407 C1417 0.929 . S
H1408 C1412 0.929 . S
H1409 C1418 0.929 . S
C1410 H1404 0.930 . S
C1410 C1411 1.367 . S
C1410 C1418 1.378 . S
C1411 C1410 1.367 . S
C1411 C1419 1.433 . S
C1412 H1408 0.929 . S
C1412 C1414 1.378 . S
C1412 C1416 1.350 . S
C1413 C1416 1.463 . S
C1413 C1418 1.350 . S
C1413 N1421 1.427 . S
C1414 H1405 0.930 . S
C1414 C1412 1.378 . S
C1414 C1415 1.367 . S
C1415 C1414 1.367 . S
C1415 C1417 1.433 . S
C1416 C1412 1.350 . S
C1416 C1413 1.463 . S
C1416 N1420 1.427 . S
C1417 H1407 0.929 . S
C1417 C1415 1.433 . S
C1417 N1420 1.384 . S
C1418 H1409 0.929 . S
C1418 C1410 1.378 . S
C1418 C1413 1.350 . S
C1419 H1406 0.929 . S
C1419 C1411 1.433 . S
C1419 N1421 1.384 . S
N1420 C1416 1.427 . S
N1420 C1417 1.384 . S
N1421 C1413 1.427 . S
N1421 C1419 1.384 . S
H1422 C1428 0.930 . S
H1423 C1432 0.930 . S
H1424 C1437 0.929 . S
H1425 C1435 0.929 . S
H1426 C1430 0.929 . S
H1427 C1436 0.929 . S
C1428 H1422 0.930 . S
C1428 C1429 1.367 . S
C1428 C1436 1.378 . S
C1429 C1428 1.367 . S
C1429 C1437 1.433 . S
C1430 H1426 0.929 . S
C1430 C1432 1.378 . S
C1430 C1434 1.350 1_565 S
C1431 C1434 1.463 . S
C1431 C1436 1.350 . S
C1431 N1439 1.427 . S
C1432 H1423 0.930 . S
C1432 C1430 1.378 . S
C1432 C1433 1.367 . S
C1433 C1432 1.367 . S
C1433 C1435 1.433 1_565 S
C1434 C1430 1.350 1_545 S
C1434 C1431 1.463 . S
C1434 N1438 1.427 . S
C1435 H1425 0.929 . S
C1435 C1433 1.433 1_545 S
C1435 N1438 1.384 . S
C1436 H1427 0.929 . S
C1436 C1428 1.378 . S
C1436 C1431 1.350 . S
C1437 H1424 0.929 . S
C1437 C1429 1.433 . S
C1437 N1439 1.384 . S
N1438 C1434 1.427 . S
N1438 C1435 1.384 . S
N1439 C1431 1.427 . S
N1439 C1437 1.384 . S
H1440 C1446 0.930 . S
H1441 C1450 0.930 . S
H1442 C1455 0.929 . S
H1443 C1453 0.929 . S
H1444 C1448 0.929 . S
H1445 C1454 0.929 . S
C1446 H1440 0.930 . S
C1446 C1447 1.367 . S
C1446 C1454 1.378 . S
C1447 C1446 1.367 . S
C1447 C1455 1.433 1_455 S
C1448 H1444 0.929 . S
C1448 C1450 1.378 . S
C1448 C1452 1.350 . S
C1449 C1452 1.463 . S
C1449 C1454 1.350 1_655 S
C1449 N1457 1.427 . S
C1450 H1441 0.930 . S
C1450 C1448 1.378 . S
C1450 C1451 1.367 . S
C1451 C1450 1.367 . S
C1451 C1453 1.433 . S
C1452 C1448 1.350 . S
C1452 C1449 1.463 . S
C1452 N1456 1.427 . S
C1453 H1443 0.929 . S
C1453 C1451 1.433 . S
C1453 N1456 1.384 . S
C1454 H1445 0.929 . S
C1454 C1446 1.378 . S
C1454 C1449 1.350 1_455 S
C1455 H1442 0.929 . S
C1455 C1447 1.433 1_655 S
C1455 N1457 1.384 . S
N1456 C1452 1.427 . S
N1456 C1453 1.384 . S
N1457 C1449 1.427 . S
N1457 C1455 1.384 . S
H1458 C1464 0.930 . S
H1459 C1468 0.930 . S
H1460 C1473 0.929 . S
H1461 C1471 0.929 . S
H1462 C1466 0.929 . S
H1463 C1472 0.929 . S
C1464 H1458 0.930 . S
C1464 C1465 1.367 . S
C1464 C1472 1.378 . S
C1465 C1464 1.367 . S
C1465 C1473 1.433 . S
C1466 H1462 0.929 . S
C1466 C1468 1.378 . S
C1466 C1470 1.350 . S
C1467 C1470 1.463 . S
C1467 C1472 1.350 . S
C1467 N1475 1.427 . S
C1468 H1459 0.930 . S
C1468 C1466 1.378 . S
C1468 C1469 1.367 . S
C1469 C1468 1.367 . S
C1469 C1471 1.433 . S
C1470 C1466 1.350 . S
C1470 C1467 1.463 . S
C1470 N1474 1.427 . S
C1471 H1461 0.929 . S
C1471 C1469 1.433 . S
C1471 N1474 1.384 . S
C1472 H1463 0.929 . S
C1472 C1464 1.378 . S
C1472 C1467 1.350 . S
C1473 H1460 0.929 . S
C1473 C1465 1.433 . S
C1473 N1475 1.384 . S
N1474 C1470 1.427 . S
N1474 C1471 1.384 . S
N1475 C1467 1.427 . S
N1475 C1473 1.384 . S
H1476 C1482 0.930 . S
H1477 C1486 0.930 . S
H1478 C1491 0.929 . S
H1479 C1489 0.919 1_655 S
H1480 C1484 0.929 . S
H1481 C1490 0.929 . S
C1482 H1476 0.930 . S
C1482 C1483 1.367 . S
C1482 C1490 1.378 . S
C1483 C1482 1.367 . S
C1483 C1491 1.433 . S
C1484 H1480 0.929 . S
C1484 C1486 1.378 1_455 S
C1484 C1488 1.350 . S
C1485 C1488 1.463 . S
C1485 C1490 1.350 . S
C1485 N1493 1.427 . S
C1486 H1477 0.930 . S
C1486 C1484 1.378 1_655 S
C1486 C1487 1.367 . S
C1487 C1486 1.367 . S
C1487 C1489 1.420 1_655 S
C1488 C1484 1.350 . S
C1488 C1485 1.463 . S
C1488 N1492 1.427 . S
C1489 H1479 0.919 1_455 S
C1489 C1487 1.420 1_455 S
C1489 N1492 1.408 . S
C1490 H1481 0.929 . S
C1490 C1482 1.378 . S
C1490 C1485 1.350 . S
C1491 H1478 0.929 . S
C1491 C1483 1.433 . S
C1491 N1493 1.384 . S
N1492 C1488 1.427 . S
N1492 C1489 1.408 . S
N1493 C1485 1.427 . S
N1493 C1491 1.384 . S
H1494 C1500 0.930 . S
H1495 C1504 0.930 . S
H1496 C1509 0.929 . S
H1497 C1507 0.929 . S
H1498 C1502 0.929 . S
H1499 C1508 0.929 . S
C1500 H1494 0.930 . S
C1500 C1501 1.367 . S
C1500 C1508 1.378 . S
C1501 C1500 1.367 . S
C1501 C1509 1.433 . S
C1502 H1498 0.929 . S
C1502 C1504 1.378 . S
C1502 C1506 1.350 . S
C1503 C1506 1.463 . S
C1503 C1508 1.350 . S
C1503 N1511 1.427 . S
C1504 H1495 0.930 . S
C1504 C1502 1.378 . S
C1504 C1505 1.367 . S
C1505 C1504 1.367 . S
C1505 C1507 1.433 . S
C1506 C1502 1.350 . S
C1506 C1503 1.463 . S
C1506 N1510 1.427 . S
C1507 H1497 0.929 . S
C1507 C1505 1.433 . S
C1507 N1510 1.384 . S
C1508 H1499 0.929 . S
C1508 C1500 1.378 . S
C1508 C1503 1.350 . S
C1509 H1496 0.929 . S
C1509 C1501 1.433 . S
C1509 N1511 1.384 . S
N1510 C1506 1.427 . S
N1510 C1507 1.384 . S
N1511 C1503 1.427 . S
N1511 C1509 1.384 . S
H1512 C1518 0.930 . S
H1513 C1522 0.930 . S
H1514 C1527 0.929 . S
H1515 C1525 0.929 . S
H1516 C1520 0.929 . S
H1517 C1526 0.929 . S
C1518 H1512 0.930 . S
C1518 C1519 1.367 . S
C1518 C1526 1.378 1_545 S
C1519 C1518 1.367 . S
C1519 C1527 1.433 . S
C1520 H1516 0.929 . S
C1520 C1522 1.378 . S
C1520 C1524 1.350 . S
C1521 C1524 1.463 . S
C1521 C1526 1.350 . S
C1521 N1529 1.427 . S
C1522 H1513 0.930 . S
C1522 C1520 1.378 . S
C1522 C1523 1.367 . S
C1523 C1522 1.367 . S
C1523 C1525 1.433 . S
C1524 C1520 1.350 . S
C1524 C1521 1.463 . S
C1524 N1528 1.427 . S
C1525 H1515 0.929 . S
C1525 C1523 1.433 . S
C1525 N1528 1.384 . S
C1526 H1517 0.929 . S
C1526 C1518 1.378 1_565 S
C1526 C1521 1.350 . S
C1527 H1514 0.929 . S
C1527 C1519 1.433 . S
C1527 N1529 1.384 1_545 S
N1528 C1524 1.427 . S
N1528 C1525 1.384 . S
N1529 C1521 1.427 . S
N1529 C1527 1.384 1_565 S
H1530 C1536 0.930 . S
H1531 C1540 0.930 1_565 S
H1532 C1545 0.929 . S
H1533 C1543 0.929 . S
H1534 C1538 0.929 . S
H1535 C1544 0.929 1_545 S
C1536 H1530 0.930 . S
C1536 C1537 1.367 . S
C1536 C1544 1.378 . S
C1537 C1536 1.367 . S
C1537 C1545 1.433 . S
C1538 H1534 0.929 . S
C1538 C1540 1.378 1_565 S
C1538 C1542 1.350 . S
C1539 C1542 1.463 . S
C1539 C1544 1.350 . S
C1539 N1547 1.427 . S
C1540 H1531 0.930 1_545 S
C1540 C1538 1.378 1_545 S
C1540 C1541 1.367 . S
C1541 C1540 1.367 . S
C1541 C1543 1.433 . S
C1542 C1538 1.350 . S
C1542 C1539 1.463 . S
C1542 N1546 1.427 1_565 S
C1543 H1533 0.929 . S
C1543 C1541 1.433 . S
C1543 N1546 1.384 . S
C1544 H1535 0.929 1_565 S
C1544 C1536 1.378 . S
C1544 C1539 1.350 . S
C1545 H1532 0.929 . S
C1545 C1537 1.433 . S
C1545 N1547 1.384 . S
N1546 C1542 1.427 1_545 S
N1546 C1543 1.384 . S
N1547 C1539 1.427 . S
N1547 C1545 1.384 . S
H1548 C1554 0.930 . S
H1549 C1558 0.930 . S
H1550 C1563 0.929 . S
H1551 C1561 0.929 . S
H1552 C1556 0.929 . S
H1553 C1562 0.929 . S
C1554 H1548 0.930 . S
C1554 C1555 1.367 . S
C1554 C1562 1.378 1_655 S
C1555 C1554 1.367 . S
C1555 C1563 1.433 . S
C1556 H1552 0.929 . S
C1556 C1558 1.378 . S
C1556 C1560 1.350 . S
C1557 C1560 1.463 . S
C1557 C1562 1.350 . S
C1557 N1565 1.427 1_455 S
C1558 H1549 0.930 . S
C1558 C1556 1.378 . S
C1558 C1559 1.367 . S
C1559 C1558 1.367 . S
C1559 C1561 1.433 . S
C1560 C1556 1.350 . S
C1560 C1557 1.463 . S
C1560 N1564 1.427 . S
C1561 H1551 0.929 . S
C1561 C1559 1.433 . S
C1561 N1564 1.384 . S
C1562 H1553 0.929 . S
C1562 C1554 1.378 1_455 S
C1562 C1557 1.350 . S
C1563 H1550 0.929 . S
C1563 C1555 1.433 . S
C1563 N1565 1.384 . S
N1564 C1560 1.427 . S
N1564 C1561 1.384 . S
N1565 C1557 1.427 1_655 S
N1565 C1563 1.384 . S
H1566 C1572 0.930 . S
H1567 C1576 0.930 . S
H1568 C1581 0.929 . S
H1569 C1579 0.929 . S
H1570 C1574 0.929 . S
H1571 C1580 0.929 . S
C1572 H1566 0.930 . S
C1572 C1573 1.367 . S
C1572 C1580 1.378 . S
C1573 C1572 1.367 . S
C1573 C1581 1.433 . S
C1574 H1570 0.929 . S
C1574 C1576 1.378 . S
C1574 C1578 1.350 . S
C1575 C1578 1.463 . S
C1575 C1580 1.350 . S
C1575 N1583 1.427 . S
C1576 H1567 0.930 . S
C1576 C1574 1.378 . S
C1576 C1577 1.367 . S
C1577 C1576 1.367 . S
C1577 C1579 1.433 . S
C1578 C1574 1.350 . S
C1578 C1575 1.463 . S
C1578 N1582 1.427 . S
C1579 H1569 0.929 . S
C1579 C1577 1.433 . S
C1579 N1582 1.384 . S
C1580 H1571 0.929 . S
C1580 C1572 1.378 . S
C1580 C1575 1.350 . S
C1581 H1568 0.929 . S
C1581 C1573 1.433 . S
C1581 N1583 1.384 . S
N1582 C1578 1.427 . S
N1582 C1579 1.384 . S
N1583 C1575 1.427 . S
N1583 C1581 1.384 . S
H1584 C1590 0.930 . S
H1585 C1594 0.930 . S
H1586 C1599 0.929 . S
H1587 C1597 0.929 . S
H1588 C1592 0.929 . S
H1589 C1598 0.929 . S
C1590 H1584 0.930 . S
C1590 C1591 1.367 . S
C1590 C1598 1.378 1_455 S
C1591 C1590 1.367 . S
C1591 C1599 1.433 . S
C1592 H1588 0.929 . S
C1592 C1594 1.378 . S
C1592 C1596 1.350 . S
C1593 C1596 1.463 . S
C1593 C1598 1.350 . S
C1593 N1601 1.427 1_655 S
C1594 H1585 0.930 . S
C1594 C1592 1.378 . S
C1594 C1595 1.367 . S
C1595 C1594 1.367 . S
C1595 C1597 1.433 . S
C1596 C1592 1.350 . S
C1596 C1593 1.463 . S
C1596 N1600 1.427 . S
C1597 H1587 0.929 . S
C1597 C1595 1.433 . S
C1597 N1600 1.384 . S
C1598 H1589 0.929 . S
C1598 C1590 1.378 1_655 S
C1598 C1593 1.350 . S
C1599 H1586 0.929 . S
C1599 C1591 1.433 . S
C1599 N1601 1.384 . S
N1600 C1596 1.427 . S
N1600 C1597 1.384 . S
N1601 C1593 1.427 1_455 S
N1601 C1599 1.384 . S
H1602 C1608 0.930 . S
H1603 C1612 0.930 . S
H1604 C1617 0.929 . S
H1605 C1615 0.929 . S
H1606 C1610 0.929 . S
H1607 C1616 0.929 . S
C1608 H1602 0.930 . S
C1608 C1609 1.367 . S
C1608 C1616 1.378 . S
C1609 C1608 1.367 . S
C1609 C1617 1.433 . S
C1610 H1606 0.929 . S
C1610 C1612 1.378 . S
C1610 C1614 1.350 . S
C1611 C1614 1.463 . S
C1611 C1616 1.350 . S
C1611 N1619 1.427 . S
C1612 H1603 0.930 . S
C1612 C1610 1.378 . S
C1612 C1613 1.367 . S
C1613 C1612 1.367 . S
C1613 C1615 1.433 . S
C1614 C1610 1.350 . S
C1614 C1611 1.463 . S
C1614 N1618 1.427 . S
C1615 H1605 0.929 . S
C1615 C1613 1.433 . S
C1615 N1618 1.384 . S
C1616 H1607 0.929 . S
C1616 C1608 1.378 . S
C1616 C1611 1.350 . S
C1617 H1604 0.929 . S
C1617 C1609 1.433 . S
C1617 N1619 1.384 . S
N1618 C1614 1.427 . S
N1618 C1615 1.384 . S
N1619 C1611 1.427 . S
N1619 C1617 1.384 . S
H1620 C1626 0.930 1_545 S
H1621 C1630 0.930 . S
H1622 C1635 0.929 . S
H1623 C1633 0.929 . S
H1624 C1628 0.929 1_565 S
H1625 C1634 0.929 . S
C1626 H1620 0.930 1_565 S
C1626 C1627 1.367 . S
C1626 C1634 1.378 1_565 S
C1627 C1626 1.367 . S
C1627 C1635 1.433 . S
C1628 H1624 0.929 1_545 S
C1628 C1630 1.378 . S
C1628 C1632 1.350 . S
C1629 C1632 1.463 . S
C1629 C1634 1.350 . S
C1629 N1637 1.427 1_545 S
C1630 H1621 0.930 . S
C1630 C1628 1.378 . S
C1630 C1631 1.367 . S
C1631 C1630 1.367 . S
C1631 C1633 1.433 . S
C1632 C1628 1.350 . S
C1632 C1629 1.463 . S
C1632 N1636 1.427 . S
C1633 H1623 0.929 . S
C1633 C1631 1.433 . S
C1633 N1636 1.384 . S
C1634 H1625 0.929 . S
C1634 C1626 1.378 1_545 S
C1634 C1629 1.350 . S
C1635 H1622 0.929 . S
C1635 C1627 1.433 . S
C1635 N1637 1.384 . S
N1636 C1632 1.427 . S
N1636 C1633 1.384 . S
N1637 C1629 1.427 1_565 S
N1637 C1635 1.384 . S
H1638 C1644 0.930 . S
H1639 C1648 0.930 . S
H1640 C1653 0.929 . S
H1641 C1651 0.929 . S
H1642 C1646 0.929 . S
H1643 C1652 0.929 . S
C1644 H1638 0.930 . S
C1644 C1645 1.367 1_556 S
C1644 C1652 1.378 . S
C1645 C1644 1.367 1_554 S
C1645 C1653 1.433 . S
C1646 H1642 0.929 . S
C1646 C1648 1.378 . S
C1646 C1650 1.348 . S
C1647 C1650 1.462 . S
C1647 C1652 1.348 1_554 S
C1647 N1655 1.429 . S
C1648 H1639 0.930 . S
C1648 C1646 1.378 . S
C1648 C1649 1.367 1_554 S
C1649 C1648 1.367 1_556 S
C1649 C1651 1.433 . S
C1650 C1646 1.348 . S
C1650 C1647 1.462 . S
C1650 N1654 1.429 1_554 S
C1651 H1641 0.929 . S
C1651 C1649 1.433 . S
C1651 N1654 1.384 . S
C1652 H1643 0.929 . S
C1652 C1644 1.378 . S
C1652 C1647 1.348 1_556 S
C1653 H1640 0.929 . S
C1653 C1645 1.433 . S
C1653 N1655 1.384 . S
N1654 C1650 1.429 1_556 S
N1654 C1651 1.384 . S
N1655 C1647 1.429 . S
N1655 C1653 1.384 . S
H1656 C1662 0.930 . S
H1657 C1666 0.930 . S
H1658 C1671 0.929 . S
H1659 C1669 0.929 . S
H1660 C1664 0.929 . S
H1661 C1670 0.929 . S
C1662 H1656 0.930 . S
C1662 C1663 1.367 . S
C1662 C1670 1.378 . S
C1663 C1662 1.367 . S
C1663 C1671 1.433 1_554 S
C1664 H1660 0.929 . S
C1664 C1666 1.378 . S
C1664 C1668 1.350 . S
C1665 C1668 1.463 1_564 S
C1665 C1670 1.350 . S
C1665 N1673 1.427 1_554 S
C1666 H1657 0.930 . S
C1666 C1664 1.378 . S
C1666 C1667 1.367 . S
C1667 C1666 1.367 . S
C1667 C1669 1.433 1_556 S
C1668 C1664 1.350 . S
C1668 C1665 1.463 1_546 S
C1668 N1672 1.427 1_556 S
C1669 H1659 0.929 . S
C1669 C1667 1.433 1_554 S
C1669 N1672 1.384 . S
C1670 H1661 0.929 . S
C1670 C1662 1.378 . S
C1670 C1665 1.350 . S
C1671 H1658 0.929 . S
C1671 C1663 1.433 1_556 S
C1671 N1673 1.384 . S
N1672 C1668 1.427 1_554 S
N1672 C1669 1.384 . S
N1673 C1665 1.427 1_556 S
N1673 C1671 1.384 . S
H1674 C1680 0.930 . S
H1675 C1684 0.930 . S
H1676 C1689 0.929 . S
H1677 C1687 0.929 . S
H1678 C1682 0.929 . S
H1679 C1688 0.929 . S
C1680 H1674 0.930 . S
C1680 C1681 1.367 . S
C1680 C1688 1.378 . S
C1681 C1680 1.367 . S
C1681 C1689 1.433 1_556 S
C1682 H1678 0.929 . S
C1682 C1684 1.378 . S
C1682 C1686 1.350 . S
C1683 C1686 1.463 1_656 S
C1683 C1688 1.350 . S
C1683 N1691 1.427 1_556 S
C1684 H1675 0.930 . S
C1684 C1682 1.378 . S
C1684 C1685 1.367 . S
C1685 C1684 1.367 . S
C1685 C1687 1.433 1_554 S
C1686 C1682 1.350 . S
C1686 C1683 1.463 1_454 S
C1686 N1690 1.427 1_554 S
C1687 H1677 0.929 . S
C1687 C1685 1.433 1_556 S
C1687 N1690 1.384 . S
C1688 H1679 0.929 . S
C1688 C1680 1.378 . S
C1688 C1683 1.350 . S
C1689 H1676 0.929 . S
C1689 C1681 1.433 1_554 S
C1689 N1691 1.384 . S
N1690 C1686 1.427 1_556 S
N1690 C1687 1.384 . S
N1691 C1683 1.427 1_554 S
N1691 C1689 1.384 . S
H1692 C1698 0.930 . S
H1693 C1702 0.930 . S
H1694 C1707 0.929 . S
H1695 C1705 0.929 . S
H1696 C1700 0.929 . S
H1697 C1706 0.929 . S
C1698 H1692 0.930 . S
C1698 C1699 1.367 1_554 S
C1698 C1706 1.378 . S
C1699 C1698 1.367 1_556 S
C1699 C1707 1.433 . S
C1700 H1696 0.929 . S
C1700 C1702 1.378 . S
C1700 C1704 1.356 . S
C1701 C1704 1.462 1_554 S
C1701 C1706 1.351 . S
C1701 N1709 1.426 1_554 S
C1702 H1693 0.930 . S
C1702 C1700 1.378 . S
C1702 C1703 1.367 1_556 S
C1703 C1702 1.367 1_554 S
C1703 C1705 1.433 . S
C1704 C1700 1.356 . S
C1704 C1701 1.462 1_556 S
C1704 N1708 1.421 1_556 S
C1705 H1695 0.929 . S
C1705 C1703 1.433 . S
C1705 N1708 1.384 . S
C1706 H1697 0.929 . S
C1706 C1698 1.378 . S
C1706 C1701 1.351 . S
C1707 H1694 0.929 . S
C1707 C1699 1.433 . S
C1707 N1709 1.384 . S
N1708 C1704 1.421 1_554 S
N1708 C1705 1.384 . S
N1709 C1701 1.426 1_556 S
N1709 C1707 1.384 . S
H1710 C1716 0.930 . S
H1711 C1720 0.930 . S
H1712 C1725 0.929 . S
H1713 C1723 0.929 . S
H1714 C1718 0.929 . S
H1715 C1724 0.929 . S
C1716 H1710 0.930 . S
C1716 C1717 1.367 . S
C1716 C1724 1.378 . S
C1717 C1716 1.367 . S
C1717 C1725 1.433 1_554 S
C1718 H1714 0.929 . S
C1718 C1720 1.378 . S
C1718 C1722 1.350 . S
C1719 C1722 1.463 1_564 S
C1719 C1724 1.350 . S
C1719 N1727 1.427 1_554 S
C1720 H1711 0.930 . S
C1720 C1718 1.378 . S
C1720 C1721 1.367 . S
C1721 C1720 1.367 . S
C1721 C1723 1.433 1_556 S
C1722 C1718 1.350 . S
C1722 C1719 1.463 1_546 S
C1722 N1726 1.427 1_556 S
C1723 H1713 0.929 . S
C1723 C1721 1.433 1_554 S
C1723 N1726 1.384 . S
C1724 H1715 0.929 . S
C1724 C1716 1.378 . S
C1724 C1719 1.350 . S
C1725 H1712 0.929 . S
C1725 C1717 1.433 1_556 S
C1725 N1727 1.384 . S
N1726 C1722 1.427 1_554 S
N1726 C1723 1.384 . S
N1727 C1719 1.427 1_556 S
N1727 C1725 1.384 . S
H1728 C1734 0.930 . S
H1729 C1738 0.930 . S
H1730 C1743 0.929 . S
H1731 C1741 0.929 . S
H1732 C1736 0.929 . S
H1733 C1742 0.929 . S
C1734 H1728 0.930 . S
C1734 C1735 1.367 1_554 S
C1734 C1742 1.378 . S
C1735 C1734 1.367 1_556 S
C1735 C1743 1.433 . S
C1736 H1732 0.929 . S
C1736 C1738 1.378 . S
C1736 C1740 1.364 . S
C1737 C1740 1.462 1_654 S
C1737 C1742 1.358 . S
C1737 N1745 1.419 1_554 S
C1738 H1729 0.930 . S
C1738 C1736 1.378 . S
C1738 C1739 1.367 1_556 S
C1739 C1738 1.367 1_554 S
C1739 C1741 1.433 . S
C1740 C1736 1.364 . S
C1740 C1737 1.462 1_456 S
C1740 N1744 1.413 1_556 S
C1741 H1731 0.929 . S
C1741 C1739 1.433 . S
C1741 N1744 1.384 . S
C1742 H1733 0.929 . S
C1742 C1734 1.378 . S
C1742 C1737 1.358 . S
C1743 H1730 0.929 . S
C1743 C1735 1.433 . S
C1743 N1745 1.384 . S
N1744 C1740 1.413 1_554 S
N1744 C1741 1.384 . S
N1745 C1737 1.419 1_556 S
N1745 C1743 1.384 . S
C619 C17 1.496 . S
C623 C357 1.498 . S
C637 C51 1.494 . S
C641 C391 1.495 . S
C655 C85 1.486 . S
C659 C323 1.487 . S
C673 C119 1.490 . S
C677 C493 1.492 . S
C691 C153 1.497 . S
C695 C425 1.499 . S
C709 C459 1.485 . S
C713 C187 1.490 . S
C727 C561 1.353 . S
C731 C221 1.353 . S
C745 C255 1.354 . S
C749 C595 1.354 . S
C763 C289 1.352 . S
C767 C527 1.352 . S
C781 C1 2.083 . S
C785 C173 2.088 . S
C799 C103 2.094 . S
C803 C37 2.094 . S
C817 C139 2.093 . S
C821 C69 2.094 . S
C835 C35 1.617 . S
C839 C137 1.624 . S
C853 C171 1.620 . S
C857 C71 1.608 . S
C871 C105 1.624 . S
C875 C3 1.610 . S
C889 C375 2.040 . S
C893 C205 2.044 . S
C907 C309 2.040 . S
C911 C241 2.038 . S
C925 C341 2.048 . S
C929 C273 2.049 . S
C943 C239 1.575 . S
C947 C343 1.557 . S
C961 C275 1.575 . S
C965 C377 1.557 . S
C979 C307 1.559 . S
C983 C207 1.569 . S
C997 C581 2.040 . S
C1001 C409 2.039 . S
C1015 C445 2.044 . S
C1019 C513 2.038 . S
C1033 C479 2.043 . S
C1037 C545 2.038 . S
C1051 C547 1.567 . S
C1055 C443 1.573 . S
C1069 C579 1.561 . S
C1073 C477 1.568 . S
C1087 C511 1.565 . S
C1091 C411 1.574 . S
C1105 C15 1.294 . S
C1109 C62 1.418 1_455 S
C1123 C74 1.431 . S
C1127 C56 1.296 . S
C1141 C83 1.299 . S
C1145 C6 1.426 1_565 S
C1159 C117 1.282 . S
C1163 C198 1.410 1_545 S
C1177 C158 1.272 . S
C1181 C108 1.416 1_655 S
C1195 C192 1.274 . S
C1199 C164 1.438 . S
C1213 C266 1.430 . S
C1217 C219 1.287 . S
C1231 C260 1.295 . S
C1235 C278 1.430 . S
C1249 C210 1.429 . S
C1253 C287 1.288 . S
C1267 C328 1.283 . S
C1271 C380 1.425 . S
C1285 C334 1.421 . S
C1289 C355 1.281 . S
C1303 C389 1.276 . S
C1307 C346 1.428 . S
C1321 C470 1.431 . S
C1325 C423 1.266 . S
C1339 C504 1.422 . S
C1343 C464 1.279 . S
C1357 C414 1.427 . S
C1361 C498 1.265 . S
C1375 C606 1.439 . S
C1379 C532 1.275 . S
C1393 C538 1.428 . S
C1397 C559 1.294 . S
C1411 C600 1.295 . S
C1415 C550 1.431 . S
C1429 C22 0.715 . S
C1433 C525 0.726 . S
C1447 C566 0.728 . S
C1451 C49 0.713 . S
C1465 C593 0.725 . S
C1469 C90 0.717 . S
C1483 C124 0.719 . S
C1487 C226 0.723 . S
C1501 C253 0.715 . S
C1505 C151 0.727 . S
C1519 C294 0.720 . S
C1523 C185 0.723 . S
C1537 C142 1.079 . S
C1541 C300 1.083 . S
C1555 C232 1.083 . S
C1559 C176 1.081 . S
C1573 C130 1.080 . S
C1577 C244 1.081 . S
C1591 C572 1.083 . S
C1595 C96 1.081 . S
C1609 C28 1.083 . S
C1613 C584 1.080 . S
C1627 C516 1.083 . S
C1631 C40 1.079 . S
C1645 C430 0.716 . S
C1649 C321 0.729 . S
C1663 C457 0.729 . S
C1667 C362 0.721 . S
C1681 C396 0.733 . S
C1685 C491 0.715 . S
C1699 C368 1.078 . S
C1703 C482 1.076 . S
C1717 C436 1.081 . S
C1721 C402 1.078 . S
C1735 C312 1.076 . S
C1739 C448 1.076 . S
