# Generated by pormake.
# Topology sxg, (6)-cn, num edge types: 1
# Building blocks:
#     Node 0, Type 0, BuildingBlock: PAMTUU_clean_sbu_0, # of connection points: 6
#     Node 1, Type 0, BuildingBlock: PAMTUU_clean_sbu_0, # of connection points: 6
#     Node 2, Type 0, BuildingBlock: PAMTUU_clean_sbu_0, # of connection points: 6
#     Node 3, Type 0, BuildingBlock: PAMTUU_clean_sbu_0, # of connection points: 6
#     Node 4, Type 0, BuildingBlock: PAMTUU_clean_sbu_0, # of connection points: 6
#     Node 5, Type 0, BuildingBlock: PAMTUU_clean_sbu_0, # of connection points: 6
#     Node 6, Type 0, BuildingBlock: PAMTUU_clean_sbu_0, # of connection points: 6
#     Node 7, Type 0, BuildingBlock: PAMTUU_clean_sbu_0, # of connection points: 6
#     Node 8, Type 0, BuildingBlock: PAMTUU_clean_sbu_0, # of connection points: 6
#     Node 9, Type 0, BuildingBlock: PAMTUU_clean_sbu_0, # of connection points: 6
#     Node 10, Type 0, BuildingBlock: PAMTUU_clean_sbu_0, # of connection points: 6
#     Node 11, Type 0, BuildingBlock: PAMTUU_clean_sbu_0, # of connection points: 6
#     Node 12, Type 0, BuildingBlock: PAMTUU_clean_sbu_0, # of connection points: 6
#     Node 13, Type 0, BuildingBlock: PAMTUU_clean_sbu_0, # of connection points: 6
#     Node 14, Type 0, BuildingBlock: PAMTUU_clean_sbu_0, # of connection points: 6
#     Node 15, Type 0, BuildingBlock: PAMTUU_clean_sbu_0, # of connection points: 6
#     Node 16, Type 0, BuildingBlock: PAMTUU_clean_sbu_0, # of connection points: 6
#     Node 17, Type 0, BuildingBlock: PAMTUU_clean_sbu_0, # of connection points: 6
#     Node 18, Type 0, BuildingBlock: PAMTUU_clean_sbu_0, # of connection points: 6
#     Node 19, Type 0, BuildingBlock: PAMTUU_clean_sbu_0, # of connection points: 6
#     Node 20, Type 0, BuildingBlock: PAMTUU_clean_sbu_0, # of connection points: 6
#     Node 21, Type 0, BuildingBlock: PAMTUU_clean_sbu_0, # of connection points: 6
#     Node 22, Type 0, BuildingBlock: PAMTUU_clean_sbu_0, # of connection points: 6
#     Node 23, Type 0, BuildingBlock: PAMTUU_clean_sbu_0, # of connection points: 6
#     Edge 24, Type (0, 0), BuildingBlock: TEMPAE_clean_linker_10, # of connection points: 2
#     Edge 25, Type (0, 0), BuildingBlock: TEMPAE_clean_linker_10, # of connection points: 2
#     Edge 26, Type (0, 0), BuildingBlock: TEMPAE_clean_linker_10, # of connection points: 2
#     Edge 27, Type (0, 0), BuildingBlock: TEMPAE_clean_linker_10, # of connection points: 2
#     Edge 28, Type (0, 0), BuildingBlock: TEMPAE_clean_linker_10, # of connection points: 2
#     Edge 29, Type (0, 0), BuildingBlock: TEMPAE_clean_linker_10, # of connection points: 2
#     Edge 30, Type (0, 0), BuildingBlock: TEMPAE_clean_linker_10, # of connection points: 2
#     Edge 31, Type (0, 0), BuildingBlock: TEMPAE_clean_linker_10, # of connection points: 2
#     Edge 32, Type (0, 0), BuildingBlock: TEMPAE_clean_linker_10, # of connection points: 2
#     Edge 33, Type (0, 0), BuildingBlock: TEMPAE_clean_linker_10, # of connection points: 2
#     Edge 34, Type (0, 0), BuildingBlock: TEMPAE_clean_linker_10, # of connection points: 2
#     Edge 35, Type (0, 0), BuildingBlock: TEMPAE_clean_linker_10, # of connection points: 2
#     Edge 36, Type (0, 0), BuildingBlock: TEMPAE_clean_linker_10, # of connection points: 2
#     Edge 37, Type (0, 0), BuildingBlock: TEMPAE_clean_linker_10, # of connection points: 2
#     Edge 38, Type (0, 0), BuildingBlock: TEMPAE_clean_linker_10, # of connection points: 2
#     Edge 39, Type (0, 0), BuildingBlock: TEMPAE_clean_linker_10, # of connection points: 2
#     Edge 40, Type (0, 0), BuildingBlock: TEMPAE_clean_linker_10, # of connection points: 2
#     Edge 41, Type (0, 0), BuildingBlock: TEMPAE_clean_linker_10, # of connection points: 2
#     Edge 42, Type (0, 0), BuildingBlock: TEMPAE_clean_linker_10, # of connection points: 2
#     Edge 43, Type (0, 0), BuildingBlock: TEMPAE_clean_linker_10, # of connection points: 2
#     Edge 44, Type (0, 0), BuildingBlock: TEMPAE_clean_linker_10, # of connection points: 2
#     Edge 45, Type (0, 0), BuildingBlock: TEMPAE_clean_linker_10, # of connection points: 2
#     Edge 46, Type (0, 0), BuildingBlock: TEMPAE_clean_linker_10, # of connection points: 2
#     Edge 47, Type (0, 0), BuildingBlock: TEMPAE_clean_linker_10, # of connection points: 2
#     Edge 48, Type (0, 0), BuildingBlock: TEMPAE_clean_linker_10, # of connection points: 2
#     Edge 49, Type (0, 0), BuildingBlock: TEMPAE_clean_linker_10, # of connection points: 2
#     Edge 50, Type (0, 0), BuildingBlock: TEMPAE_clean_linker_10, # of connection points: 2
#     Edge 51, Type (0, 0), BuildingBlock: TEMPAE_clean_linker_10, # of connection points: 2
#     Edge 52, Type (0, 0), BuildingBlock: TEMPAE_clean_linker_10, # of connection points: 2
#     Edge 53, Type (0, 0), BuildingBlock: TEMPAE_clean_linker_10, # of connection points: 2
#     Edge 54, Type (0, 0), BuildingBlock: TEMPAE_clean_linker_10, # of connection points: 2
#     Edge 55, Type (0, 0), BuildingBlock: TEMPAE_clean_linker_10, # of connection points: 2
#     Edge 56, Type (0, 0), BuildingBlock: TEMPAE_clean_linker_10, # of connection points: 2
#     Edge 57, Type (0, 0), BuildingBlock: TEMPAE_clean_linker_10, # of connection points: 2
#     Edge 58, Type (0, 0), BuildingBlock: TEMPAE_clean_linker_10, # of connection points: 2
#     Edge 59, Type (0, 0), BuildingBlock: TEMPAE_clean_linker_10, # of connection points: 2
#     Edge 60, Type (0, 0), BuildingBlock: TEMPAE_clean_linker_10, # of connection points: 2
#     Edge 61, Type (0, 0), BuildingBlock: TEMPAE_clean_linker_10, # of connection points: 2
#     Edge 62, Type (0, 0), BuildingBlock: TEMPAE_clean_linker_10, # of connection points: 2
#     Edge 63, Type (0, 0), BuildingBlock: TEMPAE_clean_linker_10, # of connection points: 2
#     Edge 64, Type (0, 0), BuildingBlock: TEMPAE_clean_linker_10, # of connection points: 2
#     Edge 65, Type (0, 0), BuildingBlock: TEMPAE_clean_linker_10, # of connection points: 2
#     Edge 66, Type (0, 0), BuildingBlock: TEMPAE_clean_linker_10, # of connection points: 2
#     Edge 67, Type (0, 0), BuildingBlock: TEMPAE_clean_linker_10, # of connection points: 2
#     Edge 68, Type (0, 0), BuildingBlock: TEMPAE_clean_linker_10, # of connection points: 2
#     Edge 69, Type (0, 0), BuildingBlock: TEMPAE_clean_linker_10, # of connection points: 2
#     Edge 70, Type (0, 0), BuildingBlock: TEMPAE_clean_linker_10, # of connection points: 2
#     Edge 71, Type (0, 0), BuildingBlock: TEMPAE_clean_linker_10, # of connection points: 2
#     Edge 72, Type (0, 0), BuildingBlock: TEMPAE_clean_linker_10, # of connection points: 2
#     Edge 73, Type (0, 0), BuildingBlock: TEMPAE_clean_linker_10, # of connection points: 2
#     Edge 74, Type (0, 0), BuildingBlock: TEMPAE_clean_linker_10, # of connection points: 2
#     Edge 75, Type (0, 0), BuildingBlock: TEMPAE_clean_linker_10, # of connection points: 2
#     Edge 76, Type (0, 0), BuildingBlock: TEMPAE_clean_linker_10, # of connection points: 2
#     Edge 77, Type (0, 0), BuildingBlock: TEMPAE_clean_linker_10, # of connection points: 2
#     Edge 78, Type (0, 0), BuildingBlock: TEMPAE_clean_linker_10, # of connection points: 2
#     Edge 79, Type (0, 0), BuildingBlock: TEMPAE_clean_linker_10, # of connection points: 2
#     Edge 80, Type (0, 0), BuildingBlock: TEMPAE_clean_linker_10, # of connection points: 2
#     Edge 81, Type (0, 0), BuildingBlock: TEMPAE_clean_linker_10, # of connection points: 2
#     Edge 82, Type (0, 0), BuildingBlock: TEMPAE_clean_linker_10, # of connection points: 2
#     Edge 83, Type (0, 0), BuildingBlock: TEMPAE_clean_linker_10, # of connection points: 2
#     Edge 84, Type (0, 0), BuildingBlock: TEMPAE_clean_linker_10, # of connection points: 2
#     Edge 85, Type (0, 0), BuildingBlock: TEMPAE_clean_linker_10, # of connection points: 2
#     Edge 86, Type (0, 0), BuildingBlock: TEMPAE_clean_linker_10, # of connection points: 2
#     Edge 87, Type (0, 0), BuildingBlock: TEMPAE_clean_linker_10, # of connection points: 2
#     Edge 88, Type (0, 0), BuildingBlock: TEMPAE_clean_linker_10, # of connection points: 2
#     Edge 89, Type (0, 0), BuildingBlock: TEMPAE_clean_linker_10, # of connection points: 2
#     Edge 90, Type (0, 0), BuildingBlock: TEMPAE_clean_linker_10, # of connection points: 2
#     Edge 91, Type (0, 0), BuildingBlock: TEMPAE_clean_linker_10, # of connection points: 2
#     Edge 92, Type (0, 0), BuildingBlock: TEMPAE_clean_linker_10, # of connection points: 2
#     Edge 93, Type (0, 0), BuildingBlock: TEMPAE_clean_linker_10, # of connection points: 2
#     Edge 94, Type (0, 0), BuildingBlock: TEMPAE_clean_linker_10, # of connection points: 2
#     Edge 95, Type (0, 0), BuildingBlock: TEMPAE_clean_linker_10, # of connection points: 2
# Relax obj value: 0.209
# Max RMSD: 0.270
# Mean RMSD: 0.244
data_MOF--net-sxg--node1-PAMTUU_clean_sbu_0--edge1-TEMPAE_clean_linker_10
_symmetry_space_group_name_H-M    P1
_symmetry_Int_Tables_number       1
_symmetry_cell_setting            triclinic
loop_
_symmetry_equiv_pos_as_xyz
'x, y, z'
_cell_length_a     50.512929
_cell_length_b     56.197109
_cell_length_c     50.61822
_cell_angle_alpha  86.352578
_cell_angle_beta   98.244431
_cell_angle_gamma 86.098291
loop_
_atom_site_label
_atom_site_type_symbol
_atom_site_fract_x
_atom_site_fract_y
_atom_site_fract_z
_atom_type_partial_charge
Tb0 Tb 1.02406 0.26272 0.24349 0.0
Tb1 Tb 1.01478 0.3215 0.23423 0.0
C2 C 0.98317 0.28895 0.19613 0.0
C3 C 0.05601 0.20262 0.26654 0.0
C4 C 0.10015 0.17404 0.29577 0.0
C5 C 0.07514 0.16456 0.28919 0.0
C6 C 0.05327 0.17875 0.27479 0.0
C7 C 0.08092 0.21217 0.27291 0.0
C8 C 0.10276 0.19805 0.28742 0.0
C9 C 0.03261 0.21783 0.25256 0.0
O10 O 0.05985 0.27424 0.22832 0.0
O11 O 0.04308 0.31086 0.20733 0.0
O12 O 0.05321 0.31457 0.2595 0.0
O13 O 0.05038 0.27584 0.2763 0.0
O14 O 0.99821 0.35179 0.20904 0.0
O15 O 1.01965 0.35541 0.24831 0.0
O16 O 0.99869 0.31169 0.27061 0.0
O17 O 0.98874 0.27362 0.26196 0.0
O18 O 1.00162 0.2712 0.20333 0.0
O19 O 0.98052 0.30635 0.21189 0.0
C20 C 0.06176 0.29288 0.21172 0.0
O21 O 1.02057 0.23158 0.26762 0.0
O22 O 0.03581 0.2294 0.23025 0.0
C23 C 0.06157 0.29627 0.27685 0.0
C24 C 0.98301 0.38321 0.23324 0.0
C25 C 0.94238 0.41612 0.24487 0.0
C26 C 0.95841 0.42225 0.2253 0.0
C27 C 0.97861 0.40593 0.2196 0.0
C28 C 0.967 0.37695 0.25271 0.0
C29 C 0.94693 0.39331 0.25856 0.0
C30 C 1.00467 0.36639 0.22747 0.0
C31 C 0.98701 0.29227 0.27635 0.0
H32 H 0.07235 0.14624 0.29553 0.0
H33 H 0.03414 0.17114 0.27028 0.0
H34 H 0.08343 0.23057 0.26668 0.0
H35 H 0.12178 0.20585 0.29179 0.0
H36 H 0.95545 0.43974 0.21454 0.0
H37 H 0.99085 0.41107 0.20459 0.0
H38 H 0.97003 0.35943 0.26341 0.0
H39 H 0.93464 0.38795 0.27343 0.0
Tb40 Tb 0.42718 0.73497 0.78342 0.0
Tb41 Tb 0.44583 0.69827 0.74066 0.0
C42 C 0.45763 0.7506 0.73573 0.0
C43 C 0.40196 0.78958 0.81796 0.0
C44 C 0.3824 0.8358 0.8298 0.0
C45 C 0.40736 0.8323 0.82065 0.0
C46 C 0.41709 0.80945 0.81492 0.0
C47 C 0.37678 0.79322 0.82643 0.0
C48 C 0.36711 0.81596 0.8322 0.0
C49 C 0.41293 0.76467 0.81553 0.0
O50 O 0.39948 0.74253 0.74622 0.0
O51 O 0.40243 0.70566 0.72913 0.0
O52 O 0.43138 0.67453 0.76961 0.0
O53 O 0.40956 0.70118 0.79372 0.0
O54 O 0.45436 0.69376 0.70174 0.0
O55 O 0.46186 0.66463 0.7321 0.0
O56 O 0.48115 0.70522 0.76909 0.0
O57 O 0.45959 0.71089 0.80502 0.0
O58 O 0.45707 0.75176 0.76157 0.0
O59 O 0.44542 0.73415 0.72305 0.0
C60 C 0.38945 0.72672 0.73025 0.0
O61 O 0.39697 0.75039 0.80307 0.0
O62 O 0.43743 0.76106 0.81046 0.0
C63 C 0.41591 0.67915 0.78763 0.0
C64 C 0.49414 0.66912 0.7039 0.0
C65 C 0.54898 0.65944 0.70077 0.0
C66 C 0.52979 0.6447 0.68907 0.0
C67 C 0.50257 0.64948 0.6907 0.0
C68 C 0.51307 0.68436 0.7148 0.0
C69 C 0.54028 0.67955 0.71328 0.0
C70 C 0.46616 0.67251 0.7085 0.0
C71 C 0.48164 0.7053 0.79517 0.0
H72 H 0.41978 0.8471 0.81872 0.0
H73 H 0.43672 0.80728 0.80875 0.0
H74 H 0.36476 0.77827 0.82924 0.0
H75 H 0.34762 0.81796 0.8387 0.0
H76 H 0.53591 0.62889 0.67962 0.0
H77 H 0.48824 0.63744 0.68241 0.0
H78 H 0.50689 0.69967 0.72506 0.0
H79 H 0.55453 0.69136 0.72222 0.0
Tb80 Tb 0.60071 0.20919 0.77683 0.0
Tb81 Tb 0.5887 0.16357 0.81434 0.0
C82 C 0.56694 0.21396 0.82295 0.0
C83 C 0.62233 0.26745 0.75051 0.0
C84 C 0.64154 0.31316 0.75182 0.0
C85 C 0.62986 0.30363 0.77335 0.0
C86 C 0.62041 0.28083 0.77277 0.0
C87 C 0.635 0.27648 0.72963 0.0
C88 C 0.64456 0.29912 0.73026 0.0
C89 C 0.60979 0.24483 0.74763 0.0
O90 O 0.63742 0.20199 0.80463 0.0
O91 O 0.62163 0.18043 0.83844 0.0
O92 O 0.62147 0.15168 0.794 0.0
O93 O 0.60912 0.17678 0.75639 0.0
O94 O 0.57889 0.1502 0.85112 0.0
O95 O 0.58294 0.12695 0.81937 0.0
O96 O 0.56024 0.1631 0.77709 0.0
O97 O 0.55996 0.20235 0.76162 0.0
O98 O 0.58774 0.2222 0.81344 0.0
O99 O 0.55955 0.19294 0.81685 0.0
C100 C 0.64006 0.1932 0.82954 0.0
O101 O 0.62575 0.22536 0.75237 0.0
O102 O 0.58767 0.24294 0.75781 0.0
C103 C 0.62138 0.15668 0.76834 0.0
C104 C 0.54677 0.12194 0.84293 0.0
C105 C 0.49407 0.10721 0.83964 0.0
C106 C 0.51645 0.09038 0.84577 0.0
C107 C 0.54257 0.0977 0.84736 0.0
C108 C 0.52451 0.13879 0.83704 0.0
C109 C 0.49848 0.13153 0.83556 0.0
C110 C 0.57405 0.12946 0.84204 0.0
C111 C 0.54934 0.18175 0.76119 0.0
H112 H 0.62745 0.31403 0.79026 0.0
H113 H 0.61086 0.274 0.78923 0.0
H114 H 0.63662 0.26635 0.71233 0.0
H115 H 0.65307 0.30611 0.71317 0.0
H116 H 0.51379 0.07149 0.84875 0.0
H117 H 0.55947 0.08439 0.85153 0.0
H118 H 0.5272 0.15759 0.83321 0.0
H119 H 0.48179 0.14504 0.83125 0.0
Tb120 Tb 1.00278 0.77773 0.28049 0.0
Tb121 Tb 0.02959 0.82854 0.29801 0.0
C122 C 0.04548 0.78146 0.332 0.0
C123 C 0.96079 0.72494 0.26 0.0
C124 C 0.91974 0.69355 0.24659 0.0
C125 C 0.93865 0.69805 0.22934 0.0
C126 C 0.95889 0.71346 0.236 0.0
C127 C 0.94144 0.72109 0.27692 0.0
C128 C 0.92116 0.70564 0.27027 0.0
C129 C 0.98499 0.73795 0.2684 0.0
O130 O 0.97185 0.79732 0.29752 0.0
O131 O 0.99775 0.82258 0.32284 0.0
O132 O 0.99294 0.8401 0.27144 0.0
O133 O 0.98097 0.80562 0.25146 0.0
O134 O 0.0512 0.84728 0.32774 0.0
O135 O 0.03773 0.86388 0.28807 0.0
O136 O 0.04851 0.81772 0.2642 0.0
O137 O 0.04175 0.7776 0.26642 0.0
O138 O 1.02281 0.77291 0.3222 0.0
O139 O 0.0552 0.79851 0.31838 0.0
C140 C 0.9752 0.81207 0.31667 0.0
O141 O 0.9924 0.75346 0.25118 0.0
O142 O 0.98886 0.74494 0.29262 0.0
C143 C 0.97832 0.82905 0.25315 0.0
C144 C 0.07821 0.87656 0.31059 0.0
C145 C 0.12655 0.89967 0.31061 0.0
C146 C 0.10255 0.90942 0.29493 0.0
C147 C 0.07874 0.89807 0.29499 0.0
C148 C 0.10223 0.8665 0.32604 0.0
C149 C 0.12612 0.87796 0.32607 0.0
C150 C 0.05213 0.8659 0.31119 0.0
C151 C 0.05376 0.79589 0.25748 0.0
H152 H 0.93851 0.68893 0.21111 0.0
H153 H 0.97374 0.71571 0.22276 0.0
H154 H 0.94235 0.72949 0.29567 0.0
H155 H 0.90675 0.70297 0.28388 0.0
H156 H 0.10191 0.92629 0.28316 0.0
H157 H 0.06052 0.90638 0.28311 0.0
H158 H 0.10255 0.84996 0.33833 0.0
H159 H 0.14425 0.86983 0.33825 0.0
Tb160 Tb 0.31796 0.04593 0.34801 0.0
Tb161 Tb 0.29649 0.02177 0.40232 0.0
C162 C 0.27253 1.00957 0.3448 0.0
C163 C 0.34053 0.08541 0.29132 0.0
C164 C 0.34977 0.12439 0.25581 0.0
C165 C 0.37103 0.10808 0.26814 0.0
C166 C 0.36645 0.08891 0.28557 0.0
C167 C 0.31925 0.10191 0.27954 0.0
C168 C 0.32383 0.12117 0.26204 0.0
C169 C 0.33619 0.06313 0.30717 0.0
O170 O 0.28008 0.06565 0.3502 0.0
O171 O 0.27199 0.05586 0.39351 0.0
O172 O 0.3265 0.04613 0.41657 0.0
O173 O 0.32572 0.07138 0.37881 0.0
O174 O 0.26674 1.01068 0.42472 0.0
O175 O 0.30873 1.00233 0.43944 0.0
O176 O 0.31875 0.99395 0.38441 0.0
O177 O 0.34749 0.01752 0.36664 0.0
O178 O 0.29424 0.01592 0.33526 0.0
O179 O 0.26769 0.01461 0.36862 0.0
C180 C 0.26648 0.06872 0.37026 0.0
O181 O 0.35049 0.05853 0.33075 0.0
O182 O 0.31176 0.05684 0.30687 0.0
C183 C 0.33107 0.06683 0.40499 0.0
C184 C 0.27884 0.97287 0.44945 0.0
C185 C 0.26835 0.92521 0.46526 0.0
C186 C 0.24776 0.9439 0.46132 0.0
C187 C 0.25297 0.96736 0.45365 0.0
C188 C 0.29937 0.95417 0.45292 0.0
C189 C 0.29419 0.9307 0.4607 0.0
C190 C 0.28424 0.99816 0.44261 0.0
C191 C 0.34101 0.99627 0.37436 0.0
H192 H 0.3912 0.10964 0.26365 0.0
H193 H 0.38318 0.07631 0.294 0.0
H194 H 0.29899 0.09972 0.28343 0.0
H195 H 0.30698 0.13349 0.2533 0.0
H196 H 0.22748 0.94042 0.4641 0.0
H197 H 0.23671 0.98129 0.45119 0.0
H198 H 0.31961 0.95767 0.44998 0.0
H199 H 0.31066 0.91697 0.46375 0.0
Tb200 Tb 0.25231 0.03715 0.83637 0.0
Tb201 Tb 0.2812 0.04177 0.89702 0.0
C202 C 0.30647 0.06078 0.84836 0.0
C203 C 0.20368 0.02077 0.78139 0.0
C204 C 0.16512 0.98959 0.76317 0.0
C205 C 0.17575 1.00485 0.74489 0.0
C206 C 0.19495 0.02034 0.75398 0.0
C207 C 0.19246 1.00619 0.79971 0.0
C208 C 0.17335 0.99066 0.7907 0.0
C209 C 0.22462 0.03616 0.79103 0.0
O210 O 0.27195 1.00189 0.84741 0.0
O211 O 0.30291 1.01058 0.88295 0.0
O212 O 0.25789 1.01154 0.90082 0.0
O213 O 0.22698 0.02043 0.86299 0.0
O214 O 0.31586 0.04692 0.92368 0.0
O215 O 0.27758 0.04452 0.93748 0.0
O216 O 0.24536 0.06723 0.88895 0.0
O217 O 0.24841 0.07422 0.8452 0.0
O218 O 0.29305 0.04637 0.83294 0.0
O219 O 0.29884 0.0663 0.87104 0.0
C220 C 0.29395 0.99616 0.86449 0.0
O221 O 0.21842 0.05004 0.80924 0.0
O222 O 0.24876 0.02568 0.79736 0.0
C223 C 0.23501 1.0084 0.88629 0.0
C224 C 0.30506 0.07278 0.95576 0.0
C225 C 0.30787 0.11664 0.9795 0.0
C226 C 0.3156 0.09492 0.99499 0.0
C227 C 0.31415 0.07312 0.98318 0.0
C228 C 0.29742 0.09437 0.94022 0.0
C229 C 0.29886 0.11611 0.95196 0.0
C230 C 0.30225 0.05006 0.94339 0.0
C231 C 0.239 0.08076 0.86651 0.0
H232 H 0.17018 1.00403 0.72351 0.0
H233 H 0.20339 0.03155 0.73962 0.0
H234 H 0.1988 1.00658 0.82097 0.0
H235 H 0.1655 0.9791 0.80518 0.0
H236 H 0.32242 0.09477 1.01629 0.0
H237 H 0.31988 0.05656 0.99545 0.0
H238 H 0.29022 0.09437 0.91899 0.0
H239 H 0.29318 0.13252 0.93942 0.0
Tb240 Tb 0.79059 0.56867 0.69331 0.0
Tb241 Tb 0.74113 0.54678 0.65711 0.0
C242 C 0.79909 0.53306 0.65037 0.0
C243 C 0.8358 0.61138 0.72379 0.0
C244 C 0.85264 0.65767 0.72866 0.0
C245 C 0.86489 0.63841 0.74638 0.0
C246 C 0.85649 0.61549 0.74397 0.0
C247 C 0.82303 0.63048 0.7063 0.0
C248 C 0.83149 0.65354 0.70865 0.0
C249 C 0.82815 0.58699 0.72098 0.0
O250 O 0.78446 0.59089 0.65578 0.0
O251 O 0.74086 0.58368 0.64069 0.0
O252 O 0.72828 0.55852 0.69339 0.0
O253 O 0.75363 0.59012 0.69621 0.0
O254 O 0.72647 0.5202 0.63293 0.0
O255 O 0.70027 0.55009 0.64092 0.0
O256 O 0.75666 0.51775 0.68739 0.0
O257 O 0.78042 0.53906 0.71876 0.0
O258 O 0.80626 0.53747 0.67541 0.0
O259 O 0.77617 0.54252 0.63726 0.0
C260 C 0.7614 0.59685 0.64045 0.0
O261 O 0.8058 0.58225 0.72954 0.0
O262 O 0.83008 0.57861 0.69782 0.0
C263 C 0.7315 0.58035 0.69993 0.0
C264 C 0.68472 0.51151 0.64394 0.0
C265 C 0.66479 0.47383 0.67257 0.0
C266 C 0.66576 0.4965 0.68266 0.0
C267 C 0.67576 0.51515 0.66855 0.0
C268 C 0.68188 0.48943 0.6329 0.0
C269 C 0.67207 0.47071 0.64711 0.0
C270 C 0.70168 0.52856 0.63268 0.0
C271 C 0.76966 0.51935 0.71161 0.0
H272 H 0.88171 0.64084 0.76156 0.0
H273 H 0.86652 0.60088 0.75754 0.0
H274 H 0.80687 0.62747 0.69063 0.0
H275 H 0.82176 0.66801 0.69473 0.0
H276 H 0.65986 0.49956 0.70198 0.0
H277 H 0.67789 0.53195 0.67771 0.0
H278 H 0.68899 0.48617 0.61415 0.0
H279 H 0.67183 0.45339 0.63887 0.0
Tb280 Tb 0.72851 0.5542 0.23204 0.0
Tb281 Tb 0.75798 0.52456 0.1864 0.0
C282 C 0.77428 0.51381 0.2458 0.0
C283 C 0.70595 0.5958 0.28482 0.0
C284 C 0.69894 0.63184 0.32129 0.0
C285 C 0.72369 0.61823 0.32255 0.0
C286 C 0.72712 0.60047 0.30466 0.0
C287 C 0.6815 0.60983 0.28304 0.0
C288 C 0.67807 0.62761 0.30089 0.0
C289 C 0.70752 0.57435 0.26877 0.0
O290 O 0.75732 0.57808 0.22007 0.0
O291 O 0.78497 0.55203 0.20033 0.0
O292 O 0.73836 0.55652 0.16411 0.0
O293 O 0.70945 0.57044 0.19253 0.0
O294 O 0.79209 0.5032 0.17958 0.0
O295 O 0.75802 0.51134 0.14853 0.0
O296 O 0.71945 0.50968 0.18734 0.0
O297 O 0.71067 0.51961 0.22888 0.0
O298 O 0.76749 0.53611 0.24973 0.0
O299 O 0.76263 0.50451 0.22471 0.0
C300 C 0.77982 0.57269 0.21063 0.0
O301 O 0.69695 0.57618 0.24361 0.0
O302 O 0.72946 0.56023 0.27279 0.0
C303 C 0.71817 0.57071 0.16905 0.0
C304 C 0.78367 0.47411 0.14735 0.0
C305 C 0.78984 0.42887 0.1255 0.0
C306 C 0.76418 0.4394 0.12777 0.0
C307 C 0.76113 0.46172 0.13854 0.0
C308 C 0.80927 0.46324 0.14604 0.0
C309 C 0.81235 0.44094 0.1354 0.0
C310 C 0.78113 0.49909 0.1555 0.0
C311 C 0.70752 0.50593 0.20853 0.0
H312 H 0.74045 0.62112 0.33759 0.0
H313 H 0.74619 0.58996 0.30692 0.0
H314 H 0.66458 0.60645 0.2684 0.0
H315 H 0.65862 0.6374 0.2993 0.0
H316 H 0.74631 0.43088 0.12026 0.0
H317 H 0.74107 0.46957 0.13921 0.0
H318 H 0.827 0.47237 0.15258 0.0
H319 H 0.83247 0.43331 0.13461 0.0
Tb320 Tb 0.35338 0.31123 0.09585 0.0
Tb321 Tb 0.40492 0.28294 0.07263 0.0
C322 C 0.3469 0.27283 0.05435 0.0
C323 C 0.28723 0.32342 0.12192 0.0
C324 C 0.2386 0.31392 0.1416 0.0
C325 C 0.23927 0.31762 0.11395 0.0
C326 C 0.26317 0.32239 0.10427 0.0
C327 C 0.28668 0.31945 0.14957 0.0
C328 C 0.26272 0.31472 0.15927 0.0
C329 C 0.31201 0.33054 0.11154 0.0
O330 O 0.36586 0.28069 0.12454 0.0
O331 O 0.39276 0.25672 0.10192 0.0
O332 O 0.42027 0.29655 0.11032 0.0
O333 O 0.38947 0.32843 0.1117 0.0
O334 O 0.42003 0.25392 0.05346 0.0
O335 O 0.44534 0.28167 0.0666 0.0
O336 O 0.39969 0.31823 0.0511 0.0
O337 O 0.35668 0.33032 0.0575 0.0
O338 O 0.34033 0.27937 0.07711 0.0
O339 O 0.3681 0.28065 0.04561 0.0
C340 C 0.37902 0.26012 0.12194 0.0
O341 O 0.33505 0.32565 0.12688 0.0
O342 O 0.31387 0.32689 0.08666 0.0
C343 C 0.41353 0.3173 0.11896 0.0
C344 C 0.4559 0.26189 1.02902 0.0
C345 C 0.48101 0.2587 0.98256 0.0
C346 C 0.49601 0.25449 1.0083 0.0
C347 C 0.48359 0.25605 1.03119 0.0
C348 C 0.4408 0.26669 1.00344 0.0
C349 C 0.45325 0.26512 0.98042 0.0
C350 C 0.44355 0.26229 0.05381 0.0
C351 C 0.37743 0.33225 0.04461 0.0
H352 H 0.2211 0.31753 0.09971 0.0
H353 H 0.26264 0.32576 0.08288 0.0
H354 H 0.30469 0.32034 0.16381 0.0
H355 H 0.26311 0.31172 0.18067 0.0
H356 H 0.51745 0.24994 1.01081 0.0
H357 H 0.49566 0.25243 0.05071 0.0
H358 H 0.41938 0.27133 1.00125 0.0
H359 H 0.44101 0.26832 0.96096 0.0
Tb360 Tb 0.84672 0.24827 0.98843 0.0
Tb361 Tb 0.83563 0.30232 0.95666 0.0
C362 C 0.87139 0.26104 0.93497 0.0
C363 C 0.86144 0.19521 0.04048 0.0
C364 C 0.8681 0.16569 0.0886 0.0
C365 C 0.88132 0.15927 0.06716 0.0
C366 C 0.87796 0.17386 0.04336 0.0
C367 C 0.84975 0.20262 0.06248 0.0
C368 C 0.85304 0.18795 0.08634 0.0
C369 C 0.85409 0.20741 1.01349 0.0
O370 O 0.88159 0.26731 1.00089 0.0
O371 O 0.86226 0.30556 0.99504 0.0
O372 O 0.80711 0.29818 0.98462 0.0
O373 O 0.83196 0.27247 1.01659 0.0
O374 O 0.85 0.33336 0.93994 0.0
O375 O 0.80803 0.33173 0.94301 0.0
O376 O 0.80999 0.27982 0.93146 0.0
O377 O 0.80854 0.24831 0.96256 0.0
O378 O 0.86275 0.24449 0.95065 0.0
O379 O 0.86553 0.28406 0.93644 0.0
C380 C 0.88046 0.28928 1.008 0.0
O381 O 0.83101 0.21989 1.00833 0.0
O382 O 0.87273 0.21781 1.0029 0.0
C383 C 0.81408 0.29081 1.00989 0.0
C384 C 0.81857 0.35875 0.90897 0.0
C385 C 0.8029 0.38763 0.86053 0.0
C386 C 0.79998 0.39659 0.88537 0.0
C387 C 0.80768 0.38232 0.90922 0.0
C388 C 0.82163 0.34953 0.88434 0.0
C389 C 0.81394 0.3639 0.8603 0.0
C390 C 0.82617 0.34458 0.93487 0.0
C391 C 0.79954 0.26013 0.93944 0.0
H392 H 0.89279 0.14217 0.06802 0.0
H393 H 0.88709 0.16778 1.02662 0.0
H394 H 0.83707 0.21915 0.06082 0.0
H395 H 0.84287 0.19354 0.10262 0.0
H396 H 0.79212 0.41486 0.88649 0.0
H397 H 0.8052 0.3898 0.92801 0.0
H398 H 0.82991 0.33132 0.88371 0.0
H399 H 0.81636 0.35637 0.84155 0.0
Tb400 Tb 0.71652 0.79546 0.48892 0.0
Tb401 Tb 0.66045 0.77859 0.50926 0.0
C402 C 0.71541 0.7521 0.5294 0.0
C403 C 0.77975 0.80646 0.45634 0.0
C404 C 0.8205 0.80926 0.42319 0.0
C405 C 0.82399 0.79333 0.44624 0.0
C406 C 0.80394 0.79199 0.46255 0.0
C407 C 0.77588 0.82206 0.43301 0.0
C408 C 0.79599 0.82337 0.41658 0.0
C409 C 0.76095 0.80728 0.47637 0.0
O410 O 0.70705 0.7648 0.4662 0.0
O411 O 0.66322 0.75915 0.47276 0.0
O412 O 0.64908 0.80997 0.48157 0.0
O413 O 0.68351 0.80702 0.45654 0.0
O414 O 0.64531 0.75734 0.53818 0.0
O415 O 0.61824 0.77932 0.50815 0.0
O416 O 0.67769 0.80282 0.53864 0.0
O417 O 0.70492 0.82313 0.5139 0.0
O418 O 0.72606 0.77258 0.52641 0.0
O419 O 0.69123 0.74948 0.51768 0.0
C420 C 0.68437 0.75458 0.4604 0.0
O421 O 0.73859 0.82092 0.47101 0.0
O422 O 0.75779 0.78726 0.48961 0.0
C423 C 0.6586 0.81418 0.45901 0.0
C424 C 0.60371 0.77045 0.55073 0.0
C425 C 0.57431 0.77341 0.59451 0.0
C426 C 0.564 0.76267 0.57119 0.0
C427 C 0.57852 0.76119 0.54966 0.0
C428 C 0.6137 0.78209 0.57346 0.0
C429 C 0.59911 0.78364 0.59508 0.0
C430 C 0.62042 0.76484 0.5297 0.0
C431 C 0.69245 0.82088 0.53483 0.0
H432 H 0.84267 0.78247 0.45231 0.0
H433 H 0.80783 0.78018 0.48068 0.0
H434 H 0.75764 0.83369 0.42779 0.0
H435 H 0.79242 0.83564 0.39884 0.0
H436 H 0.54478 0.75502 0.56971 0.0
H437 H 0.57042 0.75203 0.53246 0.0
H438 H 0.63321 0.78924 0.57492 0.0
H439 H 0.60779 0.79197 0.61266 0.0
Tb440 Tb 0.1825 0.73064 0.56665 0.0
Tb441 Tb 0.16055 0.78574 0.56979 0.0
C442 C 0.14958 0.74691 0.61268 0.0
C443 C 0.19817 0.67094 0.54018 0.0
C444 C 0.2015 0.6377 0.50094 0.0
C445 C 0.1862 0.6336 0.52164 0.0
C446 C 0.18463 0.64999 0.54105 0.0
C447 C 0.21313 0.6754 0.51925 0.0
C448 C 0.21486 0.65885 0.49986 0.0
C449 C 0.19656 0.68734 0.56168 0.0
O450 O 0.15704 0.74025 0.52884 0.0
O451 O 0.12992 0.76912 0.54322 0.0
O452 O 0.17755 0.78505 0.53337 0.0
O453 O 0.20921 0.7544 0.54782 0.0
O454 O 0.1272 0.80947 0.57108 0.0
O455 O 0.16636 0.82245 0.56919 0.0
O456 O 0.20157 0.78104 0.59309 0.0
O457 O 0.20466 0.74035 0.60339 0.0
O458 O 0.15328 0.73051 0.59565 0.0
O459 O 0.15519 0.76893 0.60781 0.0
C460 C 0.13497 0.75435 0.52508 0.0
O461 O 0.21328 0.70408 0.56405 0.0
O462 O 0.17242 0.69516 0.56489 0.0
C463 C 0.20099 0.77422 0.53248 0.0
C464 C 0.1381 0.84257 0.59495 0.0
C465 C 0.13237 0.87113 0.63748 0.0
C466 C 0.13547 0.88162 0.61226 0.0
C467 C 0.13826 0.86741 0.5911 0.0
C468 C 0.13471 0.83201 0.62005 0.0
C469 C 0.13168 0.84625 0.64116 0.0
C470 C 0.14162 0.82785 0.57274 0.0
C471 C 0.21314 0.76152 0.60736 0.0
H472 H 0.17606 0.61732 0.52334 0.0
H473 H 0.17307 0.64612 0.55704 0.0
H474 H 0.22367 0.69149 0.518 0.0
H475 H 0.22671 0.66255 0.48407 0.0
H476 H 0.13594 0.90082 0.609 0.0
H477 H 0.14081 0.87577 0.57184 0.0
H478 H 0.13465 0.81279 0.6234 0.0
H479 H 0.12962 0.8378 0.66053 0.0
Tb480 Tb 0.04536 0.70761 0.82541 0.0
Tb481 Tb 0.03625 0.76601 0.82492 0.0
C482 C 1.00358 0.73729 0.78178 0.0
C483 C 0.07252 0.64597 0.81397 0.0
C484 C 0.10908 0.61282 0.79601 0.0
C485 C 0.08926 0.60496 0.81066 0.0
C486 C 0.07119 0.62141 0.81961 0.0
C487 C 0.09107 0.65391 0.79788 0.0
C488 C 0.10923 0.63744 0.78892 0.0
C489 C 0.05643 0.66291 0.82728 0.0
O490 O 0.07732 0.72212 0.80595 0.0
O491 O 0.05524 0.75797 0.78989 0.0
O492 O 0.06999 0.75429 0.85649 0.0
O493 O 0.05467 0.71812 0.86615 0.0
O494 O 0.04546 0.79965 0.80956 0.0
O495 O 1.01903 0.797 0.83906 0.0
O496 O 1.00647 0.75234 0.84848 0.0
O497 O 1.00604 0.71295 0.8379 0.0
O498 O 1.02218 0.71936 0.78672 0.0
O499 O 1.0034 0.75551 0.79678 0.0
C500 C 0.07327 0.74041 0.78797 0.0
O501 O 0.07001 0.67737 0.84209 0.0
O502 O 0.03514 0.67394 0.8129 0.0
C503 C 0.06943 0.73556 0.87334 0.0
C504 C 1.0079 0.82784 0.80481 0.0
C505 C 0.96693 0.85902 0.77396 0.0
C506 C 0.98288 0.86679 0.79648 0.0
C507 C 1.00312 0.85132 0.81175 0.0
C508 C 0.99234 0.82009 0.78217 0.0
C509 C 0.97209 0.83549 0.76691 0.0
C510 C 0.0282 0.81119 0.82181 0.0
C511 C 0.99538 0.7317 0.84807 0.0
H512 H 0.08841 0.5861 0.81611 0.0
H513 H 0.05692 0.61499 0.83193 0.0
H514 H 0.09231 0.67284 0.79332 0.0
H515 H 0.12436 0.64409 0.77784 0.0
H516 H 0.9797 0.88484 0.80234 0.0
H517 H 1.01488 0.85765 0.82916 0.0
H518 H 0.99562 0.80199 0.77648 0.0
H519 H 0.96001 0.82874 0.74998 0.0
Tb520 Tb 0.61242 0.33513 0.30814 0.0
Tb521 Tb 0.62885 0.29299 0.27021 0.0
C522 C 0.64539 0.34586 0.26373 0.0
C523 C 0.5694 0.3742 0.34235 0.0
C524 C 0.51685 0.38993 0.34943 0.0
C525 C 0.53489 0.40644 0.34258 0.0
C526 C 0.56098 0.39864 0.33918 0.0
C527 C 0.55136 0.35765 0.34922 0.0
C528 C 0.52539 0.36547 0.35289 0.0
C529 C 0.59648 0.36612 0.33721 0.0
O530 O 0.58342 0.34141 0.27108 0.0
O531 O 0.58729 0.30415 0.25502 0.0
O532 O 0.61495 0.27624 0.30608 0.0
O533 O 0.5852 0.30753 0.3104 0.0
O534 O 0.65514 0.27898 0.24511 0.0
O535 O 0.61913 0.26205 0.25091 0.0
O536 O 0.66453 0.29399 0.29945 0.0
O537 O 0.64646 0.31357 0.33215 0.0
O538 O 0.64561 0.34659 0.28948 0.0
O539 O 0.63368 0.3287 0.25094 0.0
C540 C 0.57424 0.32511 0.25527 0.0
O541 O 0.60522 0.34427 0.34609 0.0
O542 O 0.60158 0.37124 0.31301 0.0
C543 C 0.59337 0.28497 0.31524 0.0
C544 C 0.65455 0.23719 0.23721 0.0
C545 C 0.67615 0.19218 0.22381 0.0
C546 C 0.65378 0.19375 0.23751 0.0
C547 C 0.64309 0.21593 0.24407 0.0
C548 C 0.67737 0.23557 0.22425 0.0
C549 C 0.68811 0.21338 0.21774 0.0
C550 C 0.64069 0.26108 0.2395 0.0
C551 C 0.66624 0.30084 0.32393 0.0
H552 H 0.52888 0.42542 0.34005 0.0
H553 H 0.5745 0.41167 0.33379 0.0
H554 H 0.55714 0.33862 0.35149 0.0
H555 H 0.51182 0.35235 0.35793 0.0
H556 H 0.64429 0.1778 0.24293 0.0
H557 H 0.62532 0.21644 0.25378 0.0
H558 H 0.68637 0.25161 0.21819 0.0
H559 H 0.70517 0.21297 0.20699 0.0
Tb560 Tb 0.47052 0.85439 0.2502 0.0
Tb561 Tb 0.45888 0.80855 0.28674 0.0
C562 C 0.43587 0.86046 0.29444 0.0
C563 C 0.5099 0.89814 0.22054 0.0
C564 C 0.56173 0.91234 0.21632 0.0
C565 C 0.54127 0.91537 0.19406 0.0
C566 C 0.51556 0.90831 0.19618 0.0
C567 C 0.53021 0.89519 0.2428 0.0
C568 C 0.55579 0.90234 0.24076 0.0
C569 C 0.48344 0.88922 0.22232 0.0
O570 O 0.49896 0.85404 0.28789 0.0
O571 O 0.50003 0.81424 0.30099 0.0
O572 O 0.47243 0.79652 0.24987 0.0
O573 O 0.50033 0.82598 0.24653 0.0
O574 O 0.4435 0.79448 0.32018 0.0
O575 O 0.46351 0.7713 0.2956 0.0
O576 O 0.42131 0.81707 0.26071 0.0
O577 O 0.43814 0.83667 0.22633 0.0
O578 O 0.43635 0.86539 0.26893 0.0
O579 O 0.44943 0.84109 0.30679 0.0
C580 C 0.5103 0.83492 0.30291 0.0
O581 O 0.48002 0.8682 0.21342 0.0
O582 O 0.47465 0.89121 0.24517 0.0
C583 C 0.49326 0.80488 0.24054 0.0
C584 C 0.42885 0.75547 0.31647 0.0
C585 C 0.39315 0.72113 0.32735 0.0
C586 C 0.41796 0.71412 0.3196 0.0
C587 C 0.43569 0.73115 0.31433 0.0
C588 C 0.40328 0.76266 0.32241 0.0
C589 C 0.38559 0.74559 0.32788 0.0
C590 C 0.44963 0.77248 0.3153 0.0
C591 C 0.41904 0.82498 0.23554 0.0
H592 H 0.54526 0.92272 0.17486 0.0
H593 H 0.50023 0.91044 0.1787 0.0
H594 H 0.5264 0.88717 0.26178 0.0
H595 H 0.57091 0.90008 0.2584 0.0
H596 H 0.42448 0.69537 0.31941 0.0
H597 H 0.45532 0.72518 0.30989 0.0
H598 H 0.39737 0.78134 0.32405 0.0
H599 H 0.3665 0.75141 0.33369 0.0
Tb600 Tb 0.03121 0.19831 0.76401 0.0
Tb601 Tb 0.0541 0.24982 0.7821 0.0
C602 C 0.08223 0.19939 0.80884 0.0
C603 C 0.98913 0.14674 0.74636 0.0
C604 C 0.94378 0.11976 0.7434 0.0
C605 C 0.96662 0.11182 0.73248 0.0
C606 C 0.98901 0.12519 0.73394 0.0
C607 C 0.96643 0.15497 0.75719 0.0
C608 C 0.9439 0.14156 0.75572 0.0
C609 C 1.01378 0.15942 0.749 0.0
O610 O 1.01009 0.20732 0.79733 0.0
O611 O 1.01587 0.24762 0.79727 0.0
O612 O 0.03342 0.25417 0.74038 0.0
O613 O 1.0029 0.22678 0.74421 0.0
O614 O 0.06319 0.27403 0.81171 0.0
O615 O 0.06505 0.28384 0.77017 0.0
O616 O 0.08639 0.23296 0.76467 0.0
O617 O 0.06231 0.20696 0.73909 0.0
O618 O 0.06811 0.188 0.79058 0.0
O619 O 0.07835 0.22272 0.81065 0.0
C620 C 1.00438 0.22868 0.80532 0.0
O621 O 1.01409 0.17843 0.7329 0.0
O622 O 1.02466 0.16253 0.77334 0.0
C623 C 1.01116 0.24477 0.7308 0.0
C624 C 0.09332 0.30354 0.80268 0.0
C625 C 0.13484 0.33428 0.81613 0.0
C626 C 0.13328 0.32219 0.79246 0.0
C627 C 0.11278 0.30701 0.7858 0.0
C628 C 0.09529 0.31508 0.82663 0.0
C629 C 0.1158 0.33018 0.83332 0.0
C630 C 0.06929 0.29033 0.79459 0.0
C631 C 0.08398 0.21871 0.74505 0.0
H632 H 0.96743 0.09497 0.72325 0.0
H633 H 1.00648 0.11847 0.72571 0.0
H634 H 0.96625 0.17157 0.76697 0.0
H635 H 0.92655 0.14832 0.76409 0.0
H636 H 0.14781 0.32463 0.77892 0.0
H637 H 0.11185 0.29845 0.76714 0.0
H638 H 0.08039 0.31301 0.83985 0.0
H639 H 0.11613 0.33933 0.85155 0.0
Tb640 Tb 0.76384 1.00405 0.65677 0.0
Tb641 Tb 0.75212 0.97459 0.71261 0.0
C642 C 0.73276 0.95647 0.65444 0.0
C643 C 0.78091 0.05421 0.61144 0.0
C644 C 0.79419 0.10163 0.59981 0.0
C645 C 0.78916 0.08595 0.57934 0.0
C646 C 0.78264 0.06254 0.58511 0.0
C647 C 0.78533 0.06987 0.63195 0.0
C648 C 0.79185 0.09336 0.62619 0.0
C649 C 0.77611 0.02884 0.61728 0.0
O650 O 0.72564 0.02041 0.66543 0.0
O651 O 0.73154 1.00997 0.71053 0.0
O652 O 0.78655 0.996 0.72263 0.0
O653 O 0.77527 0.02597 0.68934 0.0
O654 O 0.7239 0.96454 0.73701 0.0
O655 O 0.76656 0.95713 0.75051 0.0
O656 O 0.78008 0.95091 0.69654 0.0
O657 O 0.79938 0.97991 0.67353 0.0
O658 O 0.74701 0.97163 0.64268 0.0
O659 O 0.72938 0.9571 0.67987 0.0
C660 C 0.71986 0.02355 0.68955 0.0
O661 O 0.79344 0.01701 0.63579 0.0
O662 O 0.75165 0.02401 0.6197 0.0
C663 C 0.78897 0.01775 0.71238 0.0
C664 C 0.73714 0.93314 0.77169 0.0
C665 C 0.72329 0.89618 0.80667 0.0
C666 C 0.74589 0.90891 0.81407 0.0
C667 C 0.75269 0.92715 0.79679 0.0
C668 C 0.71503 0.91999 0.76377 0.0
C669 C 0.70821 0.90165 0.78108 0.0
C670 C 0.74239 0.95513 0.75625 0.0
C671 C 0.80046 0.95838 0.68591 0.0
H672 H 0.7903 0.09176 0.55874 0.0
H673 H 0.77933 0.05079 0.56899 0.0
H674 H 0.78424 0.0638 0.65249 0.0
H675 H 0.79575 0.10483 0.64249 0.0
H676 H 0.75778 0.90547 0.83368 0.0
H677 H 0.76958 0.93726 0.80354 0.0
H678 H 0.70256 0.92429 0.74458 0.0
H679 H 0.69093 0.89197 0.77455 0.0
Tb680 Tb 0.77838 0.98436 0.1602 0.0
Tb681 Tb 0.79706 0.99039 0.22409 0.0
C682 C 0.82224 0.01865 0.17909 0.0
C683 C 0.76185 0.95207 0.10005 0.0
C684 C 0.75764 0.90809 0.0765 0.0
C685 C 0.74956 0.92983 0.06116 0.0
C686 C 0.75166 0.95166 0.07287 0.0
C687 C 0.77012 0.93048 0.1154 0.0
C688 C 0.76805 0.90869 0.10374 0.0
C689 C 0.76367 0.9749 0.11253 0.0
O690 O 0.81483 0.96039 0.17243 0.0
O691 O 0.8124 0.95486 0.21713 0.0
O692 O 0.75512 0.98292 0.21753 0.0
O693 O 0.75947 0.95899 0.18395 0.0
O694 O 0.82117 1.00435 0.25571 0.0
O695 O 0.79235 0.97913 0.26344 0.0
O696 O 0.77344 0.02338 0.21119 0.0
O697 O 0.75396 0.01664 0.16826 0.0
O698 O 0.80191 0.01479 0.16113 0.0
O699 O 0.82679 1.00716 0.20304 0.0
C700 C 0.82208 0.94837 0.19582 0.0
O701 O 0.74714 0.97875 0.12966 0.0
O702 O 0.78791 0.98005 0.12169 0.0
C703 C 0.74635 0.96595 0.20288 0.0
C704 C 0.79628 1.01131 0.29054 0.0
C705 C 0.77673 0.04445 0.32366 0.0
C706 C 0.78692 0.02136 0.33427 0.0
C707 C 0.79667 1.00488 0.31777 0.0
C708 C 0.78456 0.03383 0.27962 0.0
C709 C 0.77487 0.05028 0.29605 0.0
C710 C 0.80813 0.99467 0.27353 0.0
C711 C 0.7565 0.02964 0.18932 0.0
H712 H 0.7417 0.92998 0.04008 0.0
H713 H 0.74526 0.96819 0.06074 0.0
H714 H 0.77797 0.9305 0.13648 0.0
H715 H 0.77409 0.89229 0.1162 0.0
H716 H 0.78892 0.01657 0.35558 0.0
H717 H 0.80535 0.98746 0.32642 0.0
H718 H 0.78381 0.03907 0.25858 0.0
H719 H 0.76713 0.06797 0.28743 0.0
Tb720 Tb 0.30713 0.4835 0.42297 0.0
Tb721 Tb 0.272 0.45594 0.37745 0.0
C722 C 0.33468 0.45412 0.38374 0.0
C723 C 0.34243 0.53141 0.45217 0.0
C724 C 0.35275 0.57669 0.43121 0.0
C725 C 0.36619 0.55606 0.4238 0.0
C726 C 0.36096 0.53355 0.43407 0.0
C727 C 0.33091 0.55216 0.4614 0.0
C728 C 0.33581 0.57468 0.45076 0.0
C729 C 0.33076 0.50852 0.4569 0.0
O730 O 0.29418 0.51064 0.3894 0.0
O731 O 0.28371 0.48658 0.35475 0.0
O732 O 0.24783 0.48615 0.38909 0.0
O733 O 0.26712 0.47883 0.43147 0.0
O734 O 0.26809 0.43593 0.34352 0.0
O735 O 0.23398 0.4456 0.36303 0.0
O736 O 0.27442 0.43344 0.41457 0.0
O737 O 0.31247 0.44604 0.4383 0.0
O738 O 0.33366 0.47467 0.39457 0.0
O739 O 0.3136 0.44152 0.38042 0.0
C740 C 0.28853 0.50763 0.36356 0.0
O741 O 0.30475 0.50959 0.45046 0.0
O742 O 0.34237 0.48961 0.44834 0.0
C743 C 0.24759 0.48952 0.41436 0.0
C744 C 0.23645 0.40694 0.34729 0.0
C745 C 0.22102 0.35957 0.34785 0.0
C746 C 0.20844 0.37675 0.36192 0.0
C747 C 0.21602 0.4001 0.36162 0.0
C748 C 0.24983 0.38962 0.33405 0.0
C749 C 0.24224 0.36612 0.33439 0.0
C750 C 0.24331 0.43211 0.3459 0.0
C751 C 0.29495 0.42991 0.43394 0.0
H752 H 0.37932 0.55726 0.4087 0.0
H753 H 0.37007 0.51791 0.42642 0.0
H754 H 0.31663 0.55088 0.47538 0.0
H755 H 0.32558 0.59047 0.45696 0.0
H756 H 0.19157 0.37263 0.37193 0.0
H757 H 0.20521 0.41293 0.37203 0.0
H758 H 0.26574 0.39435 0.32293 0.0
H759 H 0.25236 0.3533 0.32339 0.0
Tb760 Tb 0.30024 0.50069 0.87292 0.0
Tb761 Tb 0.32399 0.47229 0.82329 0.0
C762 C 0.3403 0.45375 0.88541 0.0
C763 C 0.27818 0.54654 0.9197 0.0
C764 C 0.27088 0.59131 0.94179 0.0
C765 C 0.26843 0.56972 0.95664 0.0
C766 C 0.27199 0.5477 0.94571 0.0
C767 C 0.28106 0.56791 0.90473 0.0
C768 C 0.27749 0.59011 0.91571 0.0
C769 C 0.28128 0.52271 0.90913 0.0
O770 O 0.33653 0.51781 0.86638 0.0
O771 O 0.33957 0.50781 0.82347 0.0
O772 O 0.28559 0.49272 0.80791 0.0
O773 O 0.28907 0.52279 0.83615 0.0
O774 O 0.35631 0.45881 0.80447 0.0
O775 O 0.3152 0.45917 0.7854 0.0
O776 O 0.2984 0.44765 0.83957 0.0
O777 O 0.27187 0.47415 0.85956 0.0
O778 O 0.3218 0.46845 0.89265 0.0
O779 O 0.34614 0.45397 0.86069 0.0
C780 C 0.34499 0.52181 0.8432 0.0
O781 O 0.26758 0.5195 0.88592 0.0
O782 O 0.30551 0.51237 0.91188 0.0
C783 C 0.27851 0.51447 0.81386 0.0
C784 C 0.34672 0.4314 0.7697 0.0
C785 C 0.35712 0.39533 0.73435 0.0
C786 C 0.33201 0.39837 0.74334 0.0
C787 C 0.32686 0.41615 0.7607 0.0
C788 C 0.37209 0.4278 0.76157 0.0
C789 C 0.37726 0.41 0.74426 0.0
C790 C 0.34024 0.45336 0.7835 0.0
C791 C 0.27644 0.45323 0.8497 0.0
H792 H 0.26399 0.56976 0.97694 0.0
H793 H 0.26985 0.53145 0.95769 0.0
H794 H 0.28591 0.56742 0.88459 0.0
H795 H 0.27947 0.60632 0.90364 0.0
H796 H 0.31609 0.38721 0.73663 0.0
H797 H 0.307 0.41844 0.76631 0.0
H798 H 0.38768 0.43949 0.76769 0.0
H799 H 0.39676 0.40847 0.73773 0.0
Tb800 Tb 0.65396 0.74331 0.98676 0.0
Tb801 Tb 0.70285 0.71486 0.95989 0.0
C802 C 0.64247 0.71542 0.93497 0.0
C803 C 0.60696 0.76376 0.03473 0.0
C804 C 0.58162 0.76585 0.0812 0.0
C805 C 0.58707 0.7438 0.07051 0.0
C806 C 0.59957 0.74275 0.0475 0.0
C807 C 0.60224 0.78561 0.04582 0.0
C808 C 0.58983 0.78666 0.06876 0.0
C809 C 0.61765 0.76383 1.0089 0.0
O810 O 0.65719 0.70658 1.00427 0.0
O811 O 0.70017 0.69506 0.99784 0.0
O812 O 0.7184 0.74548 0.97958 0.0
O813 O 0.69209 0.74385 1.01236 0.0
O814 O 0.71955 0.70181 0.92727 0.0
O815 O 0.74127 0.69661 0.96728 0.0
O816 O 0.69137 0.74698 0.93363 0.0
O817 O 0.66635 0.77039 0.95876 0.0
O818 O 0.63752 0.73501 0.94683 0.0
O819 O 0.66468 0.70138 0.94267 0.0
C820 C 0.67937 0.69248 1.0104 0.0
O821 O 0.64126 0.77179 1.00831 0.0
O822 O 0.61431 0.74525 0.99491 0.0
C823 C 0.71285 0.75181 1.00282 0.0
C824 C 0.76747 0.70046 0.93223 0.0
C825 C 0.81675 0.71092 0.91474 0.0
C826 C 0.81395 0.68865 0.92805 0.0
C827 C 0.78966 0.68353 0.93664 0.0
C828 C 0.77002 0.72277 0.91898 0.0
C829 C 0.79438 0.7279 0.91023 0.0
C830 C 0.74227 0.6943 0.94201 0.0
C831 C 0.67898 0.76743 0.93791 0.0
H832 H 0.58097 0.72742 0.07945 0.0
H833 H 0.60294 0.7256 0.03942 0.0
H834 H 0.60773 0.80205 0.0364 0.0
H835 H 0.58656 0.80389 0.0767 0.0
H836 H 0.83048 0.67497 0.93155 0.0
H837 H 0.78821 0.6662 0.94679 0.0
H838 H 0.75326 0.73624 0.91549 0.0
H839 H 0.79581 0.74531 0.90028 0.0
Tb840 Tb 0.22158 0.71828 0.10996 0.0
Tb841 Tb 0.21222 0.77217 0.07739 0.0
C842 C 0.24252 0.72833 0.0557 0.0
C843 C 0.23401 0.66451 0.16168 0.0
C844 C 0.2456 0.63692 0.2117 0.0
C845 C 0.22705 0.62984 0.19069 0.0
C846 C 0.22139 0.64343 0.16607 0.0
C847 C 0.2521 0.67204 0.18274 0.0
C848 C 0.25784 0.65839 0.20745 0.0
C849 C 0.22959 0.6769 0.13437 0.0
O850 O 0.24717 0.74112 0.13464 0.0
O851 O 0.25117 0.77049 0.10203 0.0
O852 O 0.19777 0.77673 0.11575 0.0
O853 O 0.19161 0.7376 0.12883 0.0
O854 O 0.22862 0.79951 0.05641 0.0
O855 O 0.18769 0.80383 0.06423 0.0
O856 O 0.17606 0.75444 0.06624 0.0
O857 O 0.19397 0.7156 0.07205 0.0
O858 O 0.24918 0.7202 0.08082 0.0
O859 O 0.22514 0.74711 0.04917 0.0
C860 C 0.25905 0.75963 0.12584 0.0
O861 O 0.20584 0.68734 0.1255 0.0
O862 O 0.2485 0.68956 0.12746 0.0
C863 C 0.18756 0.76072 0.13078 0.0
C864 C 0.19876 0.82741 1.02703 0.0
C865 C 0.19194 0.86034 0.98148 0.0
C866 C 0.1797 0.86534 1.004 0.0
C867 C 0.1831 0.84906 1.02648 0.0
C868 C 0.20963 0.82158 1.00401 0.0
C869 C 0.20619 0.83789 0.98141 0.0
C870 C 0.20647 0.81337 0.05299 0.0
C871 C 0.1756 0.73222 0.05994 0.0
H872 H 0.2175 0.6133 0.1929 0.0
H873 H 0.20759 0.63708 0.15013 0.0
H874 H 0.26219 0.68822 0.17998 0.0
H875 H 0.27198 0.6646 0.22318 0.0
H876 H 0.16891 0.88249 1.00504 0.0
H877 H 0.1747 0.85402 0.04408 0.0
H878 H 0.22176 0.80495 1.00388 0.0
H879 H 0.21555 0.83329 0.96426 0.0
Tb880 Tb 0.4004 0.24428 0.55118 0.0
Tb881 Tb 0.34789 0.22545 0.57744 0.0
C882 C 0.40761 0.2095 0.60274 0.0
C883 C 0.45236 0.25606 0.50452 0.0
C884 C 0.48247 0.25596 0.46099 0.0
C885 C 0.48388 0.23578 0.47926 0.0
C886 C 0.46911 0.23585 0.50075 0.0
C887 C 0.45038 0.27598 0.48588 0.0
C888 C 0.46512 0.27591 0.46438 0.0
C889 C 0.43973 0.25761 0.52936 0.0
O890 O 0.39306 0.20956 0.53481 0.0
O891 O 0.34914 0.20705 0.54101 0.0
O892 O 0.3365 0.26075 0.55629 0.0
O893 O 0.3636 0.25565 0.52458 0.0
O894 O 0.33199 0.20778 0.60877 0.0
O895 O 0.30656 0.22032 0.57189 0.0
O896 O 0.36221 0.25215 0.60385 0.0
O897 O 0.39148 0.27119 0.57967 0.0
O898 O 0.41562 0.22856 0.59091 0.0
O899 O 0.38347 0.2023 0.59569 0.0
C900 C 0.3699 0.2 0.52973 0.0
O901 O 0.41699 0.27048 0.52807 0.0
O902 O 0.4404 0.23811 0.54493 0.0
C903 C 0.34355 0.2674 0.53305 0.0
C904 C 0.28511 0.21539 0.61115 0.0
C905 C 0.24019 0.21722 0.63918 0.0
C906 C 0.23703 0.22355 0.61148 0.0
C907 C 0.25918 0.22253 0.59763 0.0
C908 C 0.28838 0.20988 0.63899 0.0
C909 C 0.26624 0.21085 0.65281 0.0
C910 C 0.30759 0.20998 0.59586 0.0
C911 C 0.37766 0.26967 0.60012 0.0
H912 H 0.49718 0.22018 0.4776 0.0
H913 H 0.47153 0.22028 0.51487 0.0
H914 H 0.43794 0.29194 0.48829 0.0
H915 H 0.46309 0.29165 0.45053 0.0
H916 H 0.21727 0.22834 0.60026 0.0
H917 H 0.25581 0.22643 0.57613 0.0
H918 H 0.30794 0.20397 0.65004 0.0
H919 H 0.26952 0.20621 0.67419 0.0
Tb920 Tb 0.89155 0.24015 0.48644 0.0
Tb921 Tb 0.87703 0.29557 0.49714 0.0
C922 C 0.84981 0.25291 0.52196 0.0
C923 C 0.88096 0.17866 0.47332 0.0
C924 C 0.84276 0.14688 0.45559 0.0
C925 C 0.83552 0.16626 0.46993 0.0
C926 C 0.85446 0.18208 0.47864 0.0
C927 C 0.88847 0.15904 0.45972 0.0
C928 C 0.86952 0.14328 0.45086 0.0
C929 C 0.9001 0.1965 0.48018 0.0
O930 O 0.8578 0.25166 0.45451 0.0
O931 O 0.84338 0.28825 0.46805 0.0
O932 O 0.892 0.29402 0.45839 0.0
O933 O 0.92044 0.26075 0.46925 0.0
O934 O 0.85038 0.32272 0.50685 0.0
O935 O 0.88946 0.33053 0.49705 0.0
O936 O 0.91417 0.28567 0.52412 0.0
O937 O 0.91224 0.24502 0.52673 0.0
O938 O 0.85322 0.24262 0.50026 0.0
O939 O 0.8622 0.27222 0.52785 0.0
C940 C 0.84063 0.27081 0.45204 0.0
O941 O 0.90091 0.21335 0.46141 0.0
O942 O 0.89948 0.205 0.50347 0.0
C943 C 0.91225 0.2799 0.45333 0.0
C944 C 0.86966 0.35657 0.52498 0.0
C945 C 0.86786 0.39257 0.56117 0.0
C946 C 0.87176 0.3982 0.53461 0.0
C947 C 0.87264 0.38037 0.51674 0.0
C948 C 0.86696 0.35056 0.55176 0.0
C949 C 0.86604 0.36846 0.56973 0.0
C950 C 0.86728 0.33905 0.50458 0.0
C951 C 0.92118 0.26454 0.53667 0.0
H952 H 0.81516 0.16943 0.47402 0.0
H953 H 0.84825 0.19724 0.48908 0.0
H954 H 0.90874 0.15632 0.45522 0.0
H955 H 0.87563 0.12885 0.43931 0.0
H956 H 0.87284 0.41657 0.52721 0.0
H957 H 0.87466 0.38533 0.49612 0.0
H958 H 0.86479 0.33222 0.55855 0.0
H959 H 0.86331 0.36352 0.59014 0.0
C960 C 0.1044 0.27757 0.3033 0.0
C961 C 0.08671 0.29789 0.29512 0.0
C962 C 0.13049 0.27977 0.31639 0.0
C963 C 0.13874 0.30282 0.32145 0.0
C964 C 0.12011 0.32314 0.31509 0.0
C965 C 0.09439 0.3204 0.30189 0.0
C966 C 0.14944 0.25758 0.32296 0.0
C967 C 0.12777 0.3481 0.32066 0.0
C968 C 0.19641 0.32558 0.36395 0.0
C969 C 0.20859 0.33666 0.34365 0.0
C970 C 0.1756 0.3107 0.35758 0.0
C971 C 0.16723 0.30682 0.33045 0.0
C972 C 0.18307 0.31395 0.31089 0.0
C973 C 0.20351 0.32906 0.31767 0.0
C974 C 0.16012 0.30221 0.37925 0.0
C975 C 0.17572 0.30893 0.28193 0.0
H976 H 0.09848 0.26008 0.29815 0.0
H977 H 0.08056 0.33606 0.29595 0.0
H978 H 0.15947 0.25403 0.30533 0.0
H979 H 0.16518 0.25954 0.34019 0.0
H980 H 0.13838 0.24174 0.32746 0.0
H981 H 0.11035 0.36163 0.3161 0.0
H982 H 0.13649 0.3487 0.34198 0.0
H983 H 0.1432 0.35326 0.30829 0.0
H984 H 0.20115 0.33054 0.38434 0.0
H985 H 0.21314 0.33705 0.30186 0.0
H986 H 0.15256 0.28448 0.37542 0.0
H987 H 0.14254 0.3151 0.37959 0.0
H988 H 0.17266 0.30102 0.39928 0.0
H989 H 0.19294 0.31076 0.27074 0.0
H990 H 0.15899 0.3219 0.27239 0.0
H991 H 0.16891 0.29067 0.28017 0.0
C992 C 0.35882 0.55317 0.81117 0.0
C993 C 0.35722 0.54485 0.83764 0.0
C994 C 0.36772 0.57583 0.80509 0.0
C995 C 0.37572 0.59069 0.82595 0.0
C996 C 0.37455 0.58231 0.85277 0.0
C997 C 0.36513 0.55967 0.85826 0.0
C998 C 0.36832 0.58398 0.77619 0.0
C999 C 0.3833 0.59726 0.8757 0.0
C1000 C 0.42315 0.63705 0.80765 0.0
C1001 C 0.40595 0.65797 0.80132 0.0
C1002 C 0.41387 0.61549 0.817 0.0
C1003 C 0.38641 0.61444 0.81956 0.0
C1004 C 0.36905 0.63574 0.81409 0.0
C1005 C 0.37909 0.65732 0.80531 0.0
C1006 C 0.43334 0.59357 0.82311 0.0
C1007 C 0.33958 0.63545 0.81617 0.0
H1008 H 0.35247 0.54218 0.79495 0.0
H1009 H 0.36388 0.55362 0.87877 0.0
H1010 H 0.35623 0.60131 0.77096 0.0
H1011 H 0.3892 0.58689 0.77312 0.0
H1012 H 0.36041 0.57081 0.7622 0.0
H1013 H 0.38124 0.58827 0.89541 0.0
H1014 H 0.40457 0.60112 0.8758 0.0
H1015 H 0.37118 0.61469 0.87314 0.0
H1016 H 0.44398 0.63743 0.80475 0.0
H1017 H 0.36562 0.67332 0.80019 0.0
H1018 H 0.42829 0.58037 0.80815 0.0
H1019 H 0.43179 0.5849 0.84309 0.0
H1020 H 0.45444 0.59785 0.82274 0.0
H1021 H 0.3299 0.62436 0.80075 0.0
H1022 H 0.32916 0.65369 0.81328 0.0
H1023 H 0.33678 0.62721 0.83597 0.0
C1024 C 0.63749 0.11449 0.76278 0.0
C1025 C 0.63396 0.13855 0.7528 0.0
C1026 C 0.64982 0.09691 0.74906 0.0
C1027 C 0.65945 0.10347 0.7249 0.0
C1028 C 0.65556 0.12769 0.71441 0.0
C1029 C 0.6426 0.1449 0.72834 0.0
C1030 C 0.65309 0.07131 0.76085 0.0
C1031 C 0.66592 0.13555 0.689 0.0
C1032 C 0.71741 0.06079 0.713 0.0
C1033 C 0.70479 0.04585 0.6948 0.0
C1034 C 0.70325 0.08054 0.7215 0.0
C1035 C 0.67547 0.08519 0.71214 0.0
C1036 C 0.66281 0.07067 0.69287 0.0
C1037 C 0.67773 0.05124 0.6842 0.0
C1038 C 0.71784 0.09568 0.74159 0.0
C1039 C 0.6332 0.07479 0.6826 0.0
H1040 H 0.63053 0.10929 0.78144 0.0
H1041 H 0.63994 0.16345 0.72048 0.0
H1042 H 0.64525 0.05922 0.74559 0.0
H1043 H 0.6747 0.06578 0.76713 0.0
H1044 H 0.64253 0.06879 0.77851 0.0
H1045 H 0.65963 0.15458 0.68241 0.0
H1046 H 0.68817 0.13319 0.69223 0.0
H1047 H 0.65869 0.12426 0.67268 0.0
H1048 H 0.7384 0.05666 0.72112 0.0
H1049 H 0.66794 0.03957 0.67026 0.0
H1050 H 0.71094 0.09245 0.76126 0.0
H1051 H 0.71326 0.11496 0.73524 0.0
H1052 H 0.73993 0.09159 0.74426 0.0
H1053 H 0.62164 0.07008 0.69899 0.0
H1054 H 0.62702 0.06385 0.66558 0.0
H1055 H 0.62774 0.09393 0.67612 0.0
C1056 C 0.93189 0.83421 0.22633 0.0
C1057 C 0.95593 0.84389 0.23618 0.0
C1058 C 0.90896 0.84922 0.21513 0.0
C1059 C 0.91013 0.87442 0.21384 0.0
C1060 C 0.93493 0.88407 0.22194 0.0
C1061 C 0.95742 0.86874 0.23292 0.0
C1062 C 0.88305 0.83814 0.20642 0.0
C1063 C 0.93728 0.91076 0.22097 0.0
C1064 C 0.85529 0.92024 0.17775 0.0
C1065 C 0.84263 0.92761 0.19915 0.0
C1066 C 0.87635 0.90193 0.18179 0.0
C1067 C 0.88511 0.8909 0.20786 0.0
C1068 C 0.87158 0.89754 0.22922 0.0
C1069 C 0.85057 0.91565 0.2246 0.0
C1070 C 0.88989 0.89507 0.15839 0.0
C1071 C 0.88015 0.88635 0.25738 0.0
H1072 H 0.9305 0.81506 0.22881 0.0
H1073 H 0.976 0.87639 0.24014 0.0
H1074 H 0.86971 0.84017 0.22187 0.0
H1075 H 0.87238 0.84731 0.18742 0.0
H1076 H 0.88649 0.81877 0.20369 0.0
H1077 H 0.95844 0.91531 0.22539 0.0
H1078 H 0.92846 0.91926 0.20099 0.0
H1079 H 0.92589 0.91865 0.2359 0.0
H1080 H 0.84921 0.92914 0.15796 0.0
H1081 H 0.84087 0.92091 0.24132 0.0
H1082 H 0.89246 0.87532 0.15812 0.0
H1083 H 0.91019 0.90176 0.16043 0.0
H1084 H 0.87839 0.90262 0.13897 0.0
H1085 H 0.88082 0.86658 0.25756 0.0
H1086 H 0.86648 0.89236 0.27141 0.0
H1087 H 0.90069 0.89113 0.26495 0.0
C1088 C 0.38813 0.17023 0.49964 0.0
C1089 C 0.36641 0.18074 0.51048 0.0
C1090 C 0.38462 0.15178 0.48195 0.0
C1091 C 0.35877 0.1436 0.47465 0.0
C1092 C 0.33679 0.15435 0.48529 0.0
C1093 C 0.34087 0.17258 0.50298 0.0
C1094 C 0.40868 0.14084 0.47127 0.0
C1095 C 0.30882 0.14649 0.47808 0.0
C1096 C 0.34085 0.10985 0.41168 0.0
C1097 C 0.34081 0.08612 0.42236 0.0
C1098 C 0.34749 0.12854 0.42825 0.0
C1099 C 0.35447 0.12357 0.45633 0.0
C1100 C 0.35539 0.09955 0.4671 0.0
C1101 C 0.34849 0.08125 0.45011 0.0
C1102 C 0.34604 0.15379 0.41577 0.0
C1103 C 0.36286 0.09323 0.49679 0.0
H1104 H 0.40796 0.17626 0.50517 0.0
H1105 H 0.32379 0.18047 0.51096 0.0
H1106 H 0.41169 0.12146 0.47759 0.0
H1107 H 0.40518 0.14254 0.44906 0.0
H1108 H 0.42734 0.14937 0.47838 0.0
H1109 H 0.29372 0.15697 0.48749 0.0
H1110 H 0.30281 0.14844 0.45604 0.0
H1111 H 0.30844 0.1273 0.48456 0.0
H1112 H 0.3349 0.11401 0.39036 0.0
H1113 H 0.34868 0.06308 0.45875 0.0
H1114 H 0.36501 0.1621 0.4221 0.0
H1115 H 0.32967 0.16473 0.4228 0.0
H1116 H 0.34225 0.15457 0.39355 0.0
H1117 H 0.38215 0.10054 0.50429 0.0
H1118 H 0.36473 0.0736 0.50184 0.0
H1119 H 0.34735 0.10145 0.50757 0.0
C1120 C 0.22066 0.984 0.92344 0.0
C1121 C 0.21975 0.9889 0.89583 0.0
C1122 C 0.21178 0.96274 0.93377 0.0
C1123 C 0.20191 0.94578 0.91605 0.0
C1124 C 0.19929 0.95132 0.88803 0.0
C1125 C 0.20827 0.97289 0.87822 0.0
C1126 C 0.21468 0.95779 0.96378 0.0
C1127 C 0.18882 0.93382 0.86842 0.0
C1128 C 0.21652 0.8833 0.94986 0.0
C1129 C 0.19252 0.87965 0.95994 0.0
C1130 C 0.21911 0.90395 0.93359 0.0
C1131 C 0.19723 0.92152 0.92734 0.0
C1132 C 0.17232 0.91706 0.93562 0.0
C1133 C 0.17024 0.89618 0.9518 0.0
C1134 C 0.24599 0.90782 0.92493 0.0
C1135 C 0.14839 0.93512 0.92902 0.0
H1136 H 0.22951 0.99638 0.93709 0.0
H1137 H 0.20802 0.97636 0.8569 0.0
H1138 H 0.19558 0.95222 0.96969 0.0
H1139 H 0.23026 0.94286 0.97029 0.0
H1140 H 0.22052 0.97363 0.97467 0.0
H1141 H 0.18293 0.94255 0.8479 0.0
H1142 H 0.20472 0.91935 0.86771 0.0
H1143 H 0.1713 0.92539 0.87478 0.0
H1144 H 0.23394 0.87082 0.95609 0.0
H1145 H 0.15143 0.89328 0.95898 0.0
H1146 H 0.25552 0.92201 0.93635 0.0
H1147 H 0.24346 0.91395 0.90339 0.0
H1148 H 0.25982 0.89132 0.92839 0.0
H1149 H 0.15156 0.95054 0.94145 0.0
H1150 H 0.12952 0.92742 0.93295 0.0
H1151 H 0.14599 0.94208 0.90774 0.0
C1152 C 0.87815 0.43232 0.57853 0.0
C1153 C 0.86322 0.41215 0.57881 0.0
C1154 C 0.87122 0.45249 0.59184 0.0
C1155 C 0.84886 0.45246 0.60578 0.0
C1156 C 0.83468 0.43165 0.60742 0.0
C1157 C 0.84201 0.41176 0.5939 0.0
C1158 C 0.88697 0.47425 0.58982 0.0
C1159 C 0.81078 0.43086 0.62219 0.0
C1160 C 0.83497 0.49945 0.65389 0.0
C1161 C 0.81452 0.51444 0.63815 0.0
C1162 C 0.84711 0.47963 0.64339 0.0
C1163 C 0.83864 0.47478 0.61652 0.0
C1164 C 0.81895 0.49051 0.6002 0.0
C1165 C 0.80713 0.51012 0.61121 0.0
C1166 C 0.86807 0.4633 0.66139 0.0
C1167 C 0.80952 0.48607 0.57137 0.0
H1168 H 0.89483 0.43259 0.56725 0.0
H1169 H 0.83019 0.39638 0.594 0.0
H1170 H 0.87433 0.48883 0.57723 0.0
H1171 H 0.89259 0.48089 0.60988 0.0
H1172 H 0.9055 0.47051 0.58084 0.0
H1173 H 0.80347 0.41269 0.62366 0.0
H1174 H 0.81593 0.43671 0.6427 0.0
H1175 H 0.79414 0.44341 0.61163 0.0
H1176 H 0.84079 0.50262 0.67475 0.0
H1177 H 0.79147 0.52167 0.59885 0.0
H1178 H 0.88598 0.45979 0.65143 0.0
H1179 H 0.85988 0.44583 0.66543 0.0
H1180 H 0.87445 0.47088 0.68083 0.0
H1181 H 0.8269 0.48393 0.56035 0.0
H1182 H 0.79535 0.50082 0.56091 0.0
H1183 H 0.79933 0.4692 0.5705 0.0
C1184 C 0.70219 0.58142 0.12054 0.0
C1185 C 0.70582 0.58836 0.14687 0.0
C1186 C 0.69466 0.59829 0.09856 0.0
C1187 C 0.69143 0.62292 0.10285 0.0
C1188 C 0.69409 0.62996 0.1295 0.0
C1189 C 0.70094 0.61255 0.15123 0.0
C1190 C 0.69142 0.58979 0.07066 0.0
C1191 C 0.69137 0.65601 0.13505 0.0
C1192 C 0.70756 0.66513 0.04629 0.0
C1193 C 0.682 0.67435 0.03369 0.0
C1194 C 0.7108 0.64894 0.0691 0.0
C1195 C 0.68794 0.64122 0.07944 0.0
C1196 C 0.66203 0.65031 0.06673 0.0
C1197 C 0.65938 0.66694 0.04422 0.0
C1198 C 0.73883 0.64011 0.08217 0.0
C1199 C 0.63712 0.64222 0.07671 0.0
H1200 H 0.7059 0.56272 0.11709 0.0
H1201 H 0.70409 0.61803 0.17152 0.0
H1202 H 0.67246 0.59797 0.05875 0.0
H1203 H 0.70815 0.59547 0.06035 0.0
H1204 H 0.69135 0.57002 0.07081 0.0
H1205 H 0.69143 0.65844 0.15667 0.0
H1206 H 0.7083 0.66514 0.12834 0.0
H1207 H 0.67258 0.66496 0.12361 0.0
H1208 H 0.72522 0.67092 0.03864 0.0
H1209 H 0.63955 0.67396 0.03471 0.0
H1210 H 0.74191 0.6205 0.08101 0.0
H1211 H 0.74157 0.6436 0.10369 0.0
H1212 H 0.75452 0.6488 0.0726 0.0
H1213 H 0.63655 0.62259 0.07567 0.0
H1214 H 0.61846 0.65116 0.06489 0.0
H1215 H 0.63748 0.64598 0.098 0.0
C1216 C 0.46088 0.32565 0.13292 0.0
C1217 C 0.43424 0.32742 0.13787 0.0
C1218 C 0.48214 0.33016 0.15255 0.0
C1219 C 0.47681 0.33611 0.17815 0.0
C1220 C 0.44974 0.33953 0.18269 0.0
C1221 C 0.42869 0.33529 0.16237 0.0
C1222 C 0.51051 0.32666 0.1465 0.0
C1223 C 0.44309 0.34577 0.20964 0.0
C1224 C 0.53256 0.30971 0.23249 0.0
C1225 C 0.54771 0.32931 0.23799 0.0
C1226 C 0.50863 0.31213 0.21435 0.0
C1227 C 0.49958 0.3347 0.20085 0.0
C1228 C 0.51412 0.35486 0.20719 0.0
C1229 C 0.53796 0.35196 0.22589 0.0
C1230 C 0.49371 0.29016 0.20871 0.0
C1231 C 0.50529 0.3792 0.19322 0.0
H1232 H 0.46521 0.31967 0.11392 0.0
H1233 H 0.40814 0.33648 0.16634 0.0
H1234 H 0.52232 0.34161 0.15343 0.0
H1235 H 0.52045 0.30991 0.15739 0.0
H1236 H 0.51113 0.3254 0.12478 0.0
H1237 H 0.42159 0.35201 0.20862 0.0
H1238 H 0.44747 0.32971 0.22394 0.0
H1239 H 0.45563 0.35985 0.21775 0.0
H1240 H 0.53969 0.29221 0.24214 0.0
H1241 H 0.54955 0.36718 0.23009 0.0
H1242 H 0.49512 0.28538 0.18799 0.0
H1243 H 0.47213 0.29378 0.2102 0.0
H1244 H 0.50188 0.27451 0.22272 0.0
H1245 H 0.50899 0.37931 0.17213 0.0
H1246 H 0.51629 0.39354 0.20298 0.0
H1247 H 0.48345 0.38335 0.19287 0.0
C1248 C 0.90874 0.23466 0.92103 0.0
C1249 C 0.88898 0.25381 0.91496 0.0
C1250 C 0.92722 0.22936 0.90331 0.0
C1251 C 0.92545 0.24298 0.87839 0.0
C1252 C 0.90474 0.26165 0.87174 0.0
C1253 C 0.88718 0.2671 0.89023 0.0
C1254 C 0.94937 0.20982 0.91176 0.0
C1255 C 0.90132 0.27619 0.84519 0.0
C1256 C 0.98722 0.24899 0.84309 0.0
C1257 C 0.98429 0.23179 0.82415 0.0
C1258 C 0.96873 0.25227 0.86121 0.0
C1259 C 0.946 0.23864 0.85993 0.0
C1260 C 0.94279 0.22137 0.84063 0.0
C1261 C 0.96217 0.21786 0.82336 0.0
C1262 C 0.97363 0.27035 0.88185 0.0
C1263 C 0.91854 0.20696 0.83781 0.0
H1264 H 0.9105 0.22446 0.94019 0.0
H1265 H 0.8719 0.28184 0.88526 0.0
H1266 H 0.94911 0.19648 0.89651 0.0
H1267 H 0.96911 0.21758 0.91325 0.0
H1268 H 0.94767 0.20045 0.93137 0.0
H1269 H 0.88276 0.28846 0.84193 0.0
H1270 H 0.91876 0.28702 0.84422 0.0
H1271 H 0.90063 0.26417 0.82857 0.0
H1272 H 1.00436 0.25969 0.84408 0.0
H1273 H 0.95961 0.20463 0.8087 0.0
H1274 H 0.97345 0.26176 0.90218 0.0
H1275 H 0.95732 0.28493 0.87829 0.0
H1276 H 0.99309 0.27836 0.88144 0.0
H1277 H 0.91751 0.19654 0.85694 0.0
H1278 H 0.91878 0.19441 0.82173 0.0
H1279 H 0.9 0.21918 0.83323 0.0
C1280 C 0.5468 0.81454 0.33713 0.0
C1281 C 0.53481 0.83592 0.32315 0.0
C1282 C 0.5685 0.81443 0.35781 0.0
C1283 C 0.57897 0.83624 0.36493 0.0
C1284 C 0.56775 0.85788 0.35032 0.0
C1285 C 0.54574 0.8575 0.32964 0.0
C1286 C 0.57965 0.79086 0.37265 0.0
C1287 C 0.57854 0.88149 0.357 0.0
C1288 C 0.61266 0.8311 0.43743 0.0
C1289 C 0.6395 0.82446 0.43502 0.0
C1290 C 0.59313 0.83678 0.41474 0.0
C1291 C 0.60044 0.83597 0.38879 0.0
C1292 C 0.62784 0.83106 0.38622 0.0
C1293 C 0.647 0.8253 0.40931 0.0
C1294 C 0.56424 0.84184 0.4186 0.0
C1295 C 0.63668 0.8303 0.35904 0.0
H1296 H 0.53891 0.79764 0.33229 0.0
H1297 H 0.53681 0.8741 0.31897 0.0
H1298 H 0.60152 0.78812 0.37216 0.0
H1299 H 0.57679 0.79103 0.39397 0.0
H1300 H 0.56986 0.77538 0.36408 0.0
H1301 H 0.57001 0.89621 0.34184 0.0
H1302 H 0.57356 0.88613 0.37678 0.0
H1303 H 0.60073 0.88021 0.35847 0.0
H1304 H 0.60652 0.83077 0.45709 0.0
H1305 H 0.66763 0.82035 0.40707 0.0
H1306 H 0.55268 0.82649 0.41252 0.0
H1307 H 0.555 0.85785 0.40579 0.0
H1308 H 0.56225 0.84475 0.43976 0.0
H1309 H 0.63054 0.81369 0.34999 0.0
H1310 H 0.65879 0.83056 0.36026 0.0
H1311 H 0.6269 0.84564 0.34542 0.0
C1312 C 0.15201 0.75293 0.6613 0.0
C1313 C 0.14086 0.74111 0.63918 0.0
C1314 C 0.14242 0.75079 0.68602 0.0
C1315 C 0.12063 0.73675 0.68892 0.0
C1316 C 0.10985 0.72401 0.66695 0.0
C1317 C 0.12025 0.72616 0.64241 0.0
C1318 C 0.15502 0.76439 0.70875 0.0
C1319 C 0.0865 0.70899 0.669 0.0
C1320 C 0.10619 0.72169 0.76038 0.0
C1321 C 0.08635 0.73978 0.76317 0.0
C1322 C 0.11718 0.72015 0.73631 0.0
C1323 C 0.10812 0.73703 0.71425 0.0
C1324 C 0.08808 0.75528 0.71696 0.0
C1325 C 0.07759 0.75647 0.74125 0.0
C1326 C 0.13871 0.70057 0.7346 0.0
C1327 C 0.07767 0.77367 0.69413 0.0
H1328 H 0.16815 0.76435 0.65912 0.0
H1329 H 0.11139 0.7171 0.62542 0.0
H1330 H 0.14044 0.77883 0.71291 0.0
H1331 H 0.16029 0.75236 0.72728 0.0
H1332 H 0.17341 0.77258 0.70418 0.0
H1333 H 0.08177 0.69869 0.65112 0.0
H1334 H 0.09079 0.69633 0.68708 0.0
H1335 H 0.06847 0.72074 0.67113 0.0
H1336 H 0.11321 0.70867 0.77705 0.0
H1337 H 0.06213 0.77042 0.74287 0.0
H1338 H 0.15764 0.70858 0.73161 0.0
H1339 H 0.13284 0.69016 0.71708 0.0
H1340 H 0.14263 0.68811 0.75291 0.0
H1341 H 0.09417 0.78445 0.68926 0.0
H1342 H 0.06113 0.78599 0.69887 0.0
H1343 H 0.07027 0.76465 0.67593 0.0
C1344 C 0.95853 0.75268 0.75719 0.0
C1345 C 0.97985 0.73482 0.76175 0.0
C1346 C 0.93314 0.74773 0.74455 0.0
C1347 C 0.92907 0.72429 0.73708 0.0
C1348 C 0.95136 0.70726 0.7385 0.0
C1349 C 0.97659 0.71289 0.75051 0.0
C1350 C 0.91037 0.76696 0.74162 0.0
C1351 C 0.94811 0.68204 0.73045 0.0
C1352 C 0.87345 0.68922 0.75495 0.0
C1353 C 0.86414 0.68117 0.72994 0.0
C1354 C 0.89267 0.706 0.75742 0.0
C1355 C 0.90191 0.71549 0.7341 0.0
C1356 C 0.88885 0.71076 0.70857 0.0
C1357 C 0.87032 0.69321 0.70672 0.0
C1358 C 0.90556 0.71096 0.78515 0.0
C1359 C 0.89655 0.72212 0.68327 0.0
H1360 H 0.96107 0.77 0.76507 0.0
H1361 H 0.99314 0.69921 0.75328 0.0
H1362 H 0.89395 0.7637 0.72552 0.0
H1363 H 0.9021 0.76754 0.76074 0.0
H1364 H 0.91767 0.78479 0.73721 0.0
H1365 H 0.96769 0.67148 0.73146 0.0
H1366 H 0.93604 0.67267 0.74394 0.0
H1367 H 0.93732 0.6823 0.70977 0.0
H1368 H 0.86771 0.68064 0.77285 0.0
H1369 H 0.86268 0.68751 0.68721 0.0
H1370 H 0.90538 0.73049 0.78715 0.0
H1371 H 0.92682 0.70355 0.78872 0.0
H1372 H 0.89516 0.70288 0.80098 0.0
H1373 H 0.90376 0.74011 0.68637 0.0
H1374 H 0.87927 0.72376 0.66682 0.0
H1375 H 0.91289 0.71073 0.67681 0.0
C1376 C 0.63913 0.37974 0.22784 0.0
C1377 C 0.65523 0.36675 0.24959 0.0
C1378 C 0.64582 0.40243 0.21829 0.0
C1379 C 0.66946 0.41212 0.23041 0.0
C1380 C 0.68646 0.39833 0.25141 0.0
C1381 C 0.67893 0.3761 0.26096 0.0
C1382 C 0.62684 0.41659 0.19623 0.0
C1383 C 0.7122 0.40745 0.26453 0.0
C1384 C 0.70063 0.4638 0.19644 0.0
C1385 C 0.69431 0.48304 0.21151 0.0
C1386 C 0.69197 0.44089 0.2017 0.0
C1387 C 0.67605 0.437 0.22222 0.0
C1388 C 0.6684 0.45664 0.23654 0.0
C1389 C 0.67786 0.47928 0.23127 0.0
C1390 C 0.70119 0.42054 0.18627 0.0
C1391 C 0.65101 0.45354 0.25821 0.0
H1392 H 0.62048 0.37286 0.21939 0.0
H1393 H 0.69133 0.3662 0.27793 0.0
H1394 H 0.61786 0.43267 0.20426 0.0
H1395 H 0.63783 0.42292 0.18 0.0
H1396 H 0.61039 0.40598 0.18757 0.0
H1397 H 0.72433 0.39374 0.27889 0.0
H1398 H 0.72453 0.41315 0.24914 0.0
H1399 H 0.70754 0.42334 0.27546 0.0
H1400 H 0.71357 0.46628 0.18132 0.0
H1401 H 0.6728 0.49392 0.24304 0.0
H1402 H 0.68388 0.41079 0.17798 0.0
H1403 H 0.7151 0.40759 0.19998 0.0
H1404 H 0.71169 0.42678 0.16957 0.0
H1405 H 0.63302 0.44426 0.25075 0.0
H1406 H 0.64437 0.47091 0.26541 0.0
H1407 H 0.66234 0.44223 0.27545 0.0
C1408 C 0.4024 0.89533 0.29475 0.0
C1409 C 0.42128 0.87801 0.30915 0.0
C1410 C 0.38964 0.9133 0.30761 0.0
C1411 C 0.39603 0.91429 0.33567 0.0
C1412 C 0.41467 0.89658 0.35047 0.0
C1413 C 0.42696 0.87856 0.33706 0.0
C1414 C 0.36964 0.93152 0.291 0.0
C1415 C 0.42215 0.89705 0.38037 0.0
C1416 C 0.38191 0.97633 0.35942 0.0
C1417 C 0.35676 0.97457 0.36782 0.0
C1418 C 0.39554 0.95651 0.35025 0.0
C1419 C 0.38365 0.93438 0.34907 0.0
C1420 C 0.35872 0.93227 0.35843 0.0
C1421 C 0.34568 0.9523 0.36781 0.0
C1422 C 0.42219 0.95955 0.34076 0.0
C1423 C 0.34508 0.9092 0.35724 0.0
H1424 H 0.39766 0.89499 0.27321 0.0
H1425 H 0.44159 0.86534 0.34835 0.0
H1426 H 0.35024 0.93203 0.2989 0.0
H1427 H 0.37707 0.9496 0.29229 0.0
H1428 H 0.36597 0.92765 0.26959 0.0
H1429 H 0.43609 0.88151 0.38916 0.0
H1430 H 0.43185 0.91373 0.38502 0.0
H1431 H 0.40387 0.89713 0.39018 0.0
H1432 H 0.39072 0.99338 0.35944 0.0
H1433 H 0.32621 0.9507 0.37409 0.0
H1434 H 0.41997 0.95826 0.31878 0.0
H1435 H 0.43725 0.94505 0.35014 0.0
H1436 H 0.42999 0.97706 0.34541 0.0
H1437 H 0.33859 0.90578 0.33603 0.0
H1438 H 0.3272 0.90969 0.36772 0.0
H1439 H 0.35925 0.89393 0.36628 0.0
C1440 C 0.21224 0.11499 0.83868 0.0
C1441 C 0.21922 0.10212 0.86375 0.0
C1442 C 0.19127 0.13316 0.83406 0.0
C1443 C 0.17683 0.13904 0.85506 0.0
C1444 C 0.18486 0.12725 0.88091 0.0
C1445 C 0.20584 0.10882 0.88492 0.0
C1446 C 0.1835 0.14503 0.80611 0.0
C1447 C 0.17047 0.1333 0.90402 0.0
C1448 C 0.1285 0.19502 0.83654 0.0
C1449 C 0.105 0.18491 0.82588 0.0
C1450 C 0.1517 0.18037 0.84801 0.0
C1451 C 0.1514 0.15508 0.84867 0.0
C1452 C 0.12712 0.14495 0.83964 0.0
C1453 C 0.10435 0.15992 0.82855 0.0
C1454 C 0.17696 0.19196 0.85789 0.0
C1455 C 0.12564 0.11818 0.8398 0.0
H1456 H 0.2225 0.11025 0.82214 0.0
H1457 H 0.21115 0.09919 0.90442 0.0
H1458 H 0.16335 0.13999 0.79755 0.0
H1459 H 0.18226 0.16477 0.80663 0.0
H1460 H 0.19795 0.13979 0.79251 0.0
H1461 H 0.18188 0.12584 0.92353 0.0
H1462 H 0.16699 0.15297 0.90452 0.0
H1463 H 0.15056 0.12584 0.90149 0.0
H1464 H 0.12928 0.21427 0.83461 0.0
H1465 H 0.08621 0.15186 0.82077 0.0
H1466 H 0.19097 0.19062 0.84297 0.0
H1467 H 0.18725 0.18265 0.87697 0.0
H1468 H 0.17275 0.21117 0.86096 0.0
H1469 H 0.13807 0.11093 0.82533 0.0
H1470 H 0.10478 0.11314 0.83427 0.0
H1471 H 0.1338 0.10947 0.85985 0.0
C1472 C 0.71355 0.94036 0.61101 0.0
C1473 C 0.72205 0.93662 0.63871 0.0
C1474 C 0.70612 0.9213 0.59534 0.0
C1475 C 0.70816 0.89758 0.60733 0.0
C1476 C 0.71628 0.89378 0.63542 0.0
C1477 C 0.7227 0.91333 0.65077 0.0
C1478 C 0.69683 0.92651 0.56572 0.0
C1479 C 0.71965 0.86888 0.64908 0.0
C1480 C 0.67537 0.84802 0.56794 0.0
C1481 C 0.69636 0.83922 0.55495 0.0
C1482 C 0.67881 0.86692 0.58507 0.0
C1483 C 0.7041 0.87675 0.59011 0.0
C1484 C 0.72558 0.86713 0.57784 0.0
C1485 C 0.72133 0.84891 0.56017 0.0
C1486 C 0.6551 0.87695 0.597 0.0
C1487 C 0.75313 0.87628 0.58313 0.0
H1488 H 0.71292 0.95826 0.60149 0.0
H1489 H 0.72961 0.91017 0.67207 0.0
H1490 H 0.71223 0.91904 0.55432 0.0
H1491 H 0.67807 0.9178 0.55958 0.0
H1492 H 0.69318 0.946 0.56002 0.0
H1493 H 0.72429 0.86898 0.6712 0.0
H1494 H 0.7012 0.85947 0.64404 0.0
H1495 H 0.73623 0.85842 0.6418 0.0
H1496 H 0.65597 0.84079 0.56389 0.0
H1497 H 0.73776 0.8421 0.55043 0.0
H1498 H 0.65013 0.89594 0.58946 0.0
H1499 H 0.66012 0.87657 0.61909 0.0
H1500 H 0.63707 0.86691 0.59198 0.0
H1501 H 0.75234 0.89516 0.57501 0.0
H1502 H 0.76822 0.86563 0.57388 0.0
H1503 H 0.75998 0.87585 0.605 0.0
C1504 C 0.8423 0.14348 0.11947 0.0
C1505 C 0.86704 0.14766 0.11123 0.0
C1506 C 0.83944 0.12312 0.13604 0.0
C1507 C 0.86189 0.10651 0.14461 0.0
C1508 C 0.88745 0.11187 0.13861 0.0
C1509 C 0.88971 0.13235 0.12188 0.0
C1510 C 0.81181 0.11824 0.14216 0.0
C1511 C 0.91199 0.09499 0.14796 0.0
C1512 C 0.84739 0.0544 0.19091 0.0
C1513 C 0.83859 0.03827 0.17213 0.0
C1514 C 0.85683 0.07628 0.18261 0.0
C1515 C 0.8574 0.08193 0.155 0.0
C1516 C 0.85058 0.06475 0.13641 0.0
C1517 C 0.84127 0.04319 0.14521 0.0
C1518 C 0.86428 0.09393 0.20312 0.0
C1519 C 0.85111 0.06982 0.10681 0.0
H1520 H 0.82463 0.1551 0.1113 0.0
H1521 H 0.90902 0.13572 0.11605 0.0
H1522 H 0.80417 0.10353 0.13032 0.0
H1523 H 0.8126 0.11242 0.16362 0.0
H1524 H 0.79731 0.13421 0.13719 0.0
H1525 H 0.9308 0.10383 0.14651 0.0
H1526 H 0.91222 0.08788 0.16895 0.0
H1527 H 0.91165 0.07956 0.13532 0.0
H1528 H 0.84515 0.05072 0.21173 0.0
H1529 H 0.83468 0.03063 0.1307 0.0
H1530 H 0.84723 0.10756 0.20266 0.0
H1531 H 0.88187 0.10341 0.19865 0.0
H1532 H 0.86886 0.08505 0.22367 0.0
H1533 H 0.8356 0.08441 0.0987 0.0
H1534 H 0.8472 0.05388 0.09535 0.0
H1535 H 0.87084 0.0759 0.10335 0.0
C1536 C 0.23034 0.61195 0.47604 0.0
C1537 C 0.20477 0.61908 0.48178 0.0
C1538 C 0.23439 0.59201 0.46132 0.0
C1539 C 0.21233 0.57895 0.45201 0.0
C1540 C 0.18621 0.58705 0.45616 0.0
C1541 C 0.18275 0.60696 0.4711 0.0
C1542 C 0.26258 0.58399 0.4573 0.0
C1543 C 0.16212 0.57391 0.4461 0.0
C1544 C 0.22625 0.53129 0.40446 0.0
C1545 C 0.23331 0.51107 0.42248 0.0
C1546 C 0.21826 0.55345 0.4135 0.0
C1547 C 0.21719 0.55528 0.44113 0.0
C1548 C 0.22277 0.53455 0.45905 0.0
C1549 C 0.23079 0.51274 0.4495 0.0
C1550 C 0.2126 0.57509 0.39374 0.0
C1551 C 0.22184 0.53565 0.48865 0.0
H1552 H 0.24746 0.62114 0.48433 0.0
H1553 H 0.16285 0.61267 0.47507 0.0
H1554 H 0.26881 0.56653 0.46874 0.0
H1555 H 0.2634 0.58135 0.43589 0.0
H1556 H 0.27721 0.59702 0.46407 0.0
H1557 H 0.14294 0.58417 0.44788 0.0
H1558 H 0.1622 0.57018 0.42485 0.0
H1559 H 0.16298 0.55644 0.45783 0.0
H1560 H 0.22853 0.5302 0.38359 0.0
H1561 H 0.23627 0.49715 0.46346 0.0
H1562 H 0.22969 0.58654 0.39648 0.0
H1563 H 0.19441 0.58597 0.39718 0.0
H1564 H 0.20984 0.57005 0.3727 0.0
H1565 H 0.23761 0.54687 0.49742 0.0
H1566 H 0.22505 0.51767 0.49958 0.0
H1567 H 0.20221 0.54409 0.49198 0.0
C1568 C 0.39735 0.3549 1.00833 0.0
C1569 C 0.37495 0.3499 1.02074 0.0
C1570 C 0.39495 0.37098 0.98535 0.0
C1571 C 0.36947 0.38221 0.97412 0.0
C1572 C 0.34676 0.37702 0.98638 0.0
C1573 C 0.34979 0.36115 1.00951 0.0
C1574 C 0.41975 0.37618 0.97326 0.0
C1575 C 0.31915 0.38832 0.97509 0.0
C1576 C 0.36038 0.44208 0.93274 0.0
C1577 C 0.35337 0.43534 0.90657 0.0
C1578 C 0.36723 0.42495 0.95458 0.0
C1579 C 0.3665 0.40029 0.95044 0.0
C1580 C 0.36063 0.39332 0.92385 0.0
C1581 C 0.35433 0.41093 0.9022 0.0
C1582 C 0.37382 0.43337 0.98234 0.0
C1583 C 0.3593 0.36731 0.91843 0.0
H1584 H 0.4169 0.34634 1.01668 0.0
H1585 H 0.33224 0.35733 1.0186 0.0
H1586 H 0.41706 0.37218 0.9519 0.0
H1587 H 0.42302 0.39547 0.97393 0.0
H1588 H 0.43799 0.3656 0.98388 0.0
H1589 H 0.30334 0.38159 0.98612 0.0
H1590 H 0.31875 0.40801 0.97598 0.0
H1591 H 0.31419 0.38469 0.95372 0.0
H1592 H 0.35952 0.46093 0.93626 0.0
H1593 H 0.34842 0.40561 0.88212 0.0
H1594 H 0.39242 0.4235 0.9931 0.0
H1595 H 0.35737 0.42966 0.994 0.0
H1596 H 0.3765 0.45284 0.98192 0.0
H1597 H 0.37747 0.3566 0.92889 0.0
H1598 H 0.35735 0.36462 0.8967 0.0
H1599 H 0.34175 0.36029 0.92633 0.0
C1600 C 0.50732 0.69859 0.84159 0.0
C1601 C 0.50751 0.70135 0.81385 0.0
C1602 C 0.53119 0.69747 0.85989 0.0
C1603 C 0.55609 0.69929 0.8504 0.0
C1604 C 0.5566 0.70078 0.82237 0.0
C1605 C 0.53234 0.70176 0.80444 0.0
C1606 C 0.52952 0.69571 0.8895 0.0
C1607 C 0.5826 0.7027 0.81126 0.0
C1608 C 0.6061 0.72989 0.89762 0.0
C1609 C 0.62259 0.7106 0.91151 0.0
C1610 C 0.58539 0.72643 0.87694 0.0
C1611 C 0.58063 0.70299 0.86979 0.0
C1612 C 0.5979 0.68342 0.88289 0.0
C1613 C 0.6188 0.68746 0.90353 0.0
C1614 C 0.56787 0.74793 0.86347 0.0
C1615 C 0.5936 0.65816 0.87584 0.0
H1616 H 0.48835 0.69793 0.84915 0.0
H1617 H 0.53279 0.7038 0.78307 0.0
H1618 H 0.5443 0.68153 0.90008 0.0
H1619 H 0.53451 0.71287 0.89797 0.0
H1620 H 0.5092 0.69179 0.89368 0.0
H1621 H 0.5803 0.69977 0.78957 0.0
H1622 H 0.58959 0.7208 0.81404 0.0
H1623 H 0.59843 0.68955 0.82215 0.0
H1624 H 0.60913 0.74793 0.90319 0.0
H1625 H 0.63146 0.67246 0.91405 0.0
H1626 H 0.54718 0.747 0.86825 0.0
H1627 H 0.56667 0.74801 0.84141 0.0
H1628 H 0.57541 0.76507 0.86994 0.0
H1629 H 0.57474 0.65271 0.88244 0.0
H1630 H 0.61038 0.64527 0.88549 0.0
H1631 H 0.59138 0.65705 0.85384 0.0
C1632 C 0.09612 0.80582 0.23988 0.0
C1633 C 0.07415 0.79176 0.23936 0.0
C1634 C 0.11563 0.80198 0.22294 0.0
C1635 C 0.11268 0.78419 0.2043 0.0
C1636 C 0.0902 0.77027 0.20338 0.0
C1637 C 0.07152 0.77393 0.22119 0.0
C1638 C 0.13967 0.81668 0.22534 0.0
C1639 C 0.08574 0.75158 0.18339 0.0
C1640 C 0.15021 0.7874 0.14367 0.0
C1641 C 0.17023 0.7686 0.1505 0.0
C1642 C 0.13146 0.79282 0.16101 0.0
C1643 C 0.13332 0.77967 0.1862 0.0
C1644 C 0.15436 0.76142 0.19362 0.0
C1645 C 0.17217 0.75583 0.17552 0.0
C1646 C 0.10896 0.81191 0.15187 0.0
C1647 C 0.1578 0.74747 0.22055 0.0
H1648 H 0.09839 0.81954 0.25399 0.0
H1649 H 0.05446 0.76316 0.22048 0.0
H1650 H 0.15837 0.8047 0.23011 0.0
H1651 H 0.1405 0.82683 0.206 0.0
H1652 H 0.13928 0.82952 0.24111 0.0
H1653 H 0.0665 0.74326 0.18413 0.0
H1654 H 0.08573 0.75972 0.16283 0.0
H1655 H 0.10236 0.73729 0.18736 0.0
H1656 H 0.14841 0.7971 0.1242 0.0
H1657 H 0.18767 0.74132 0.18093 0.0
H1658 H 0.10875 0.82561 0.16668 0.0
H1659 H 0.08942 0.8038 0.15046 0.0
H1660 H 0.11065 0.82092 0.13206 0.0
H1661 H 0.15806 0.75989 0.23676 0.0
H1662 H 0.17659 0.7355 0.22429 0.0
H1663 H 0.14059 0.73641 0.2217 0.0
C1664 C 0.50778 0.20109 0.73352 0.0
C1665 C 0.52462 0.18023 0.74168 0.0
C1666 C 0.48653 0.20159 0.71232 0.0
C1667 C 0.48196 0.18077 0.69852 0.0
C1668 C 0.49784 0.1592 0.70769 0.0
C1669 C 0.51895 0.15915 0.7293 0.0
C1670 C 0.47 0.22494 0.70365 0.0
C1671 C 0.49364 0.13658 0.69367 0.0
C1672 C 0.41715 0.18746 0.6485 0.0
C1673 C 0.42637 0.19717 0.62559 0.0
C1674 C 0.43521 0.18035 0.67211 0.0
C1675 C 0.46307 0.18284 0.67264 0.0
C1676 C 0.4725 0.19084 0.64883 0.0
C1677 C 0.45408 0.19802 0.62577 0.0
C1678 C 0.42426 0.17186 0.69695 0.0
C1679 C 0.50195 0.19354 0.64819 0.0
H1680 H 0.51175 0.21738 0.74326 0.0
H1681 H 0.53186 0.14296 0.7355 0.0
H1682 H 0.47447 0.23188 0.68388 0.0
H1683 H 0.44828 0.22218 0.70135 0.0
H1684 H 0.4742 0.23876 0.71811 0.0
H1685 H 0.50424 0.12062 0.70572 0.0
H1686 H 0.47196 0.13379 0.68931 0.0
H1687 H 0.50138 0.13814 0.67424 0.0
H1688 H 0.39575 0.18684 0.64855 0.0
H1689 H 0.46138 0.20527 0.60803 0.0
H1690 H 0.42439 0.18642 0.71076 0.0
H1691 H 0.43699 0.15635 0.70766 0.0
H1692 H 0.40334 0.16672 0.69223 0.0
H1693 H 0.50839 0.2086 0.66011 0.0
H1694 H 0.50636 0.19717 0.6275 0.0
H1695 H 0.51417 0.17714 0.65732 0.0
C1696 C 0.94792 0.27186 0.42415 0.0
C1697 C 0.9231 0.28327 0.42742 0.0
C1698 C 0.95755 0.27344 0.3993 0.0
C1699 C 0.94178 0.28628 0.37676 0.0
C1700 C 0.91665 0.29778 0.37991 0.0
C1701 C 0.90777 0.29635 0.40516 0.0
C1702 C 0.98471 0.26135 0.39721 0.0
C1703 C 0.89889 0.31131 0.35648 0.0
C1704 C 0.97727 0.30898 0.31922 0.0
C1705 C 0.97359 0.29117 0.30097 0.0
C1706 C 0.96695 0.30766 0.34365 0.0
C1707 C 0.95199 0.28825 0.35017 0.0
C1708 C 0.94751 0.27052 0.33156 0.0
C1709 C 0.95855 0.27206 0.30738 0.0
C1710 C 0.97272 0.32679 0.36286 0.0
C1711 C 0.93126 0.24976 0.33733 0.0
H1712 H 0.95993 0.26167 0.44112 0.0
H1713 H 0.88839 0.30494 0.40725 0.0
H1714 H 0.98259 0.24777 0.38224 0.0
H1715 H 0.99786 0.27469 0.39016 0.0
H1716 H 0.99476 0.25245 0.41663 0.0
H1717 H 0.87961 0.3187 0.36195 0.0
H1718 H 0.9094 0.32628 0.34853 0.0
H1719 H 0.89448 0.29933 0.34006 0.0
H1720 H 0.98895 0.32381 0.31479 0.0
H1721 H 0.9555 0.25818 0.29358 0.0
H1722 H 0.98419 0.3186 0.382 0.0
H1723 H 0.95368 0.33538 0.36752 0.0
H1724 H 0.98441 0.34087 0.35477 0.0
H1725 H 0.94159 0.23862 0.3552 0.0
H1726 H 0.92816 0.23827 0.32026 0.0
H1727 H 0.91138 0.25643 0.34197 0.0
C1728 C 0.22122 0.08543 0.37916 0.0
C1729 C 0.24308 0.0868 0.36503 0.0
C1730 C 0.19743 0.10034 0.37112 0.0
C1731 C 0.19555 0.11695 0.34848 0.0
C1732 C 0.21812 0.11923 0.33513 0.0
C1733 C 0.24151 0.10422 0.34358 0.0
C1734 C 0.1739 0.09752 0.38604 0.0
C1735 C 0.21716 0.13673 0.31101 0.0
C1736 C 0.12894 0.13529 0.3043 0.0
C1737 C 0.12357 0.15886 0.3108 0.0
C1738 C 0.15171 0.12115 0.31721 0.0
C1739 C 0.1696 0.13073 0.33725 0.0
C1740 C 0.16384 0.15423 0.34456 0.0
C1741 C 0.14097 0.16804 0.33119 0.0
C1742 C 0.15719 0.09627 0.3086 0.0
C1743 C 0.18224 0.16506 0.36595 0.0
H1744 H 0.2222 0.072 0.39569 0.0
H1745 H 0.2584 0.10568 0.33271 0.0
H1746 H 0.16548 0.11524 0.39075 0.0
H1747 H 0.15779 0.08936 0.37322 0.0
H1748 H 0.17951 0.08601 0.40495 0.0
H1749 H 0.23694 0.13736 0.30393 0.0
H1750 H 0.20236 0.13156 0.29438 0.0
H1751 H 0.21048 0.15497 0.31576 0.0
H1752 H 0.1158 0.12811 0.28841 0.0
H1753 H 0.13676 0.1861 0.33665 0.0
H1754 H 0.16065 0.08309 0.32624 0.0
H1755 H 0.1757 0.09548 0.29912 0.0
H1756 H 0.14043 0.09085 0.2941 0.0
H1757 H 0.18631 0.1528 0.38438 0.0
H1758 H 0.1737 0.18264 0.37103 0.0
H1759 H 0.20178 0.16759 0.359 0.0
C1760 C 0.33506 0.96676 0.87486 0.0
C1761 C 0.30856 0.97251 0.86232 0.0
C1762 C 0.34903 0.94484 0.87119 0.0
C1763 C 0.33618 0.92823 0.8547 0.0
C1764 C 0.30929 0.9338 0.84247 0.0
C1765 C 0.29591 0.95573 0.8464 0.0
C1766 C 0.37765 0.93958 0.88467 0.0
C1767 C 0.29462 0.91666 0.82491 0.0
C1768 C 0.37509 0.88077 0.82149 0.0
C1769 C 0.37235 0.85983 0.83723 0.0
C1770 C 0.36436 0.90326 0.82754 0.0
C1771 C 0.35056 0.90499 0.84994 0.0
C1772 C 0.3485 0.88405 0.8664 0.0
C1773 C 0.35937 0.86182 0.85986 0.0
C1774 C 0.36692 0.92506 0.80935 0.0
C1775 C 0.33408 0.88499 0.89051 0.0
H1776 H 0.34507 0.97956 0.88713 0.0
H1777 H 0.27536 0.95973 0.83676 0.0
H1778 H 0.37964 0.9225 0.8973 0.0
H1779 H 0.39108 0.93739 0.86932 0.0
H1780 H 0.38461 0.954 0.89738 0.0
H1781 H 0.27366 0.92357 0.81702 0.0
H1782 H 0.30538 0.91325 0.80773 0.0
H1783 H 0.29415 0.89924 0.83638 0.0
H1784 H 0.3849 0.87951 0.80389 0.0
H1785 H 0.35758 0.84588 0.87251 0.0
H1786 H 0.37519 0.9395 0.82122 0.0
H1787 H 0.34678 0.93196 0.79889 0.0
H1788 H 0.38004 0.92113 0.79408 0.0
H1789 H 0.34212 0.8987 0.90364 0.0
H1790 H 0.33596 0.8675 0.90242 0.0
H1791 H 0.31246 0.89028 0.88392 0.0
C1792 C 0.66989 0.44979 0.71664 0.0
C1793 C 0.65878 0.45293 0.68945 0.0
C1794 C 0.66713 0.42872 0.73205 0.0
C1795 C 0.65341 0.41027 0.7198 0.0
C1796 C 0.64119 0.41374 0.69271 0.0
C1797 C 0.64385 0.43513 0.67793 0.0
C1798 C 0.67973 0.42582 0.76109 0.0
C1799 C 0.62637 0.39442 0.67892 0.0
C1800 C 0.67098 0.34479 0.73977 0.0
C1801 C 0.64785 0.33849 0.74997 0.0
C1802 C 0.67409 0.36862 0.73177 0.0
C1803 C 0.65362 0.38647 0.73424 0.0
C1804 C 0.63157 0.38055 0.74703 0.0
C1805 C 0.62887 0.35652 0.75468 0.0
C1806 C 0.6981 0.3743 0.71852 0.0
C1807 C 0.60964 0.3992 0.75052 0.0
H1808 H 0.68175 0.46335 0.72564 0.0
H1809 H 0.63482 0.43765 0.65709 0.0
H1810 H 0.66496 0.41982 0.77382 0.0
H1811 H 0.69668 0.41184 0.76385 0.0
H1812 H 0.68732 0.44272 0.76824 0.0
H1813 H 0.61707 0.40038 0.65811 0.0
H1814 H 0.64047 0.3785 0.67828 0.0
H1815 H 0.6104 0.38874 0.69031 0.0
H1816 H 0.68593 0.33089 0.73663 0.0
H1817 H 0.61092 0.35174 0.76253 0.0
H1818 H 0.7074 0.39002 0.72693 0.0
H1819 H 0.69152 0.37888 0.69681 0.0
H1820 H 0.71359 0.35899 0.7209 0.0
H1821 H 0.61814 0.416 0.75677 0.0
H1822 H 0.59721 0.39282 0.76555 0.0
H1823 H 0.59634 0.40346 0.73113 0.0
C1824 C 0.8276 0.58386 0.21135 0.0
C1825 C 0.80066 0.59041 0.21335 0.0
C1826 C 0.84752 0.6002 0.21591 0.0
C1827 C 0.8404 0.62375 0.22248 0.0
C1828 C 0.81317 0.63055 0.22396 0.0
C1829 C 0.79375 0.61388 0.21945 0.0
C1830 C 0.87629 0.59212 0.21421 0.0
C1831 C 0.80454 0.6554 0.23079 0.0
C1832 C 0.89281 0.65989 0.26067 0.0
C1833 C 0.89932 0.67569 0.24033 0.0
C1834 C 0.87408 0.64274 0.25508 0.0
C1835 C 0.86136 0.64118 0.22846 0.0
C1836 C 0.8679 0.65696 0.20781 0.0
C1837 C 0.88672 0.67396 0.21396 0.0
C1838 C 0.86779 0.62631 0.27775 0.0
C1839 C 0.85478 0.65608 0.17919 0.0
H1840 H 0.83327 0.56578 0.20687 0.0
H1841 H 0.77304 0.61929 0.22094 0.0
H1842 H 0.88425 0.60418 0.19953 0.0
H1843 H 0.88884 0.59317 0.2339 0.0
H1844 H 0.8785 0.5735 0.20821 0.0
H1845 H 0.78249 0.65814 0.23038 0.0
H1846 H 0.81459 0.65868 0.25106 0.0
H1847 H 0.81074 0.66895 0.21648 0.0
H1848 H 0.90269 0.66067 0.28103 0.0
H1849 H 0.89127 0.68616 0.19808 0.0
H1850 H 0.8717 0.60738 0.27346 0.0
H1851 H 0.84621 0.62907 0.27965 0.0
H1852 H 0.87985 0.62934 0.29722 0.0
H1853 H 0.85804 0.63782 0.17253 0.0
H1854 H 0.86265 0.66899 0.16529 0.0
H1855 H 0.83279 0.66015 0.17773 0.0
C1856 C 0.33623 0.15056 0.21273 0.0
C1857 C 0.35466 0.14419 0.23608 0.0
C1858 C 0.34086 0.16877 0.19381 0.0
C1859 C 0.36453 0.18105 0.19816 0.0
C1860 C 0.38326 0.17467 0.2216 0.0
C1861 C 0.37811 0.15643 0.2402 0.0
C1862 C 0.32029 0.17494 0.16918 0.0
C1863 C 0.40869 0.1873 0.2272 0.0
C1864 C 0.38652 0.21633 0.13867 0.0
C1865 C 0.37668 0.23979 0.14191 0.0
C1866 C 0.38289 0.19708 0.15682 0.0
C1867 C 0.3691 0.20128 0.17883 0.0
C1868 C 0.35941 0.22494 0.18234 0.0
C1869 C 0.36331 0.24378 0.16397 0.0
C1870 C 0.39356 0.17217 0.15228 0.0
C1871 C 0.3446 0.23038 0.20541 0.0
H1872 H 0.31827 0.14106 0.20899 0.0
H1873 H 0.39239 0.15199 0.25824 0.0
H1874 H 0.3123 0.19387 0.16879 0.0
H1875 H 0.32979 0.17307 0.1509 0.0
H1876 H 0.30323 0.1634 0.16835 0.0
H1877 H 0.42172 0.17969 0.24578 0.0
H1878 H 0.42023 0.1861 0.2102 0.0
H1879 H 0.40363 0.20656 0.2292 0.0
H1880 H 0.39675 0.21291 0.12172 0.0
H1881 H 0.35556 0.26173 0.16688 0.0
H1882 H 0.37679 0.1604 0.14931 0.0
H1883 H 0.40754 0.1645 0.17018 0.0
H1884 H 0.40425 0.17186 0.13458 0.0
H1885 H 0.32632 0.22038 0.20431 0.0
H1886 H 0.33856 0.24974 0.20554 0.0
H1887 H 0.35741 0.22439 0.22468 0.0
C1888 C 0.15576 0.94673 0.76295 0.0
C1889 C 0.1485 0.97053 0.75312 0.0
C1890 C 0.14652 0.92787 0.74831 0.0
C1891 C 0.1299 0.93317 0.72339 0.0
C1892 C 0.11911 0.9569 0.71574 0.0
C1893 C 0.12871 0.97544 0.7307 0.0
C1894 C 0.15769 0.90267 0.7576 0.0
C1895 C 0.10044 0.96309 0.68981 0.0
C1896 C 0.15158 0.90201 0.66545 0.0
C1897 C 0.13174 0.8861 0.66024 0.0
C1898 C 0.15137 0.91696 0.68639 0.0
C1899 C 0.13061 0.91603 0.70246 0.0
C1900 C 0.11082 0.89953 0.69776 0.0
C1901 C 0.11165 0.88463 0.6766 0.0
C1902 C 0.17325 0.93397 0.69101 0.0
C1903 C 0.08835 0.89807 0.71435 0.0
H1904 H 0.17081 0.94282 0.78052 0.0
H1905 H 0.12247 0.99386 0.72359 0.0
H1906 H 0.14251 0.88966 0.75259 0.0
H1907 H 0.1751 0.898 0.74729 0.0
H1908 H 0.16463 0.9008 0.77953 0.0
H1909 H 0.08959 0.981 0.68954 0.0
H1910 H 0.11226 0.96324 0.67294 0.0
H1911 H 0.08557 0.94955 0.68644 0.0
H1912 H 0.1674 0.90272 0.65307 0.0
H1913 H 0.09629 0.87225 0.67245 0.0
H1914 H 0.1839 0.93095 0.71183 0.0
H1915 H 0.16435 0.95272 0.68826 0.0
H1916 H 0.18826 0.93186 0.67711 0.0
H1917 H 0.09534 0.90076 0.73567 0.0
H1918 H 0.07936 0.8806 0.71312 0.0
H1919 H 0.07237 0.91238 0.70671 0.0
C1920 C 0.78834 0.49937 0.75677 0.0
C1921 C 0.77273 0.49833 0.73164 0.0
C1922 C 0.79195 0.47981 0.77596 0.0
C1923 C 0.77964 0.45848 0.77008 0.0
C1924 C 0.76364 0.45727 0.74484 0.0
C1925 C 0.76047 0.47716 0.72588 0.0
C1926 C 0.80892 0.48204 0.80267 0.0
C1927 C 0.75003 0.43496 0.73774 0.0
C1928 C 0.81145 0.40404 0.81517 0.0
C1929 C 0.79502 0.40347 0.83532 0.0
C1930 C 0.80583 0.42097 0.79296 0.0
C1931 C 0.78329 0.43783 0.79081 0.0
C1932 C 0.7658 0.43643 0.81026 0.0
C1933 C 0.77185 0.41932 0.83219 0.0
C1934 C 0.82478 0.4216 0.77248 0.0
C1935 C 0.74146 0.45387 0.80883 0.0
H1936 H 0.79796 0.51554 0.76155 0.0
H1937 H 0.74834 0.47609 0.70658 0.0
H1938 H 0.79674 0.47929 0.81904 0.0
H1939 H 0.82583 0.468 0.80605 0.0
H1940 H 0.81725 0.49979 0.80409 0.0
H1941 H 0.7351 0.43806 0.71924 0.0
H1942 H 0.76535 0.42073 0.73461 0.0
H1943 H 0.73977 0.42821 0.75433 0.0
H1944 H 0.82942 0.39196 0.81735 0.0
H1945 H 0.75865 0.41873 0.84728 0.0
H1946 H 0.8357 0.43806 0.77388 0.0
H1947 H 0.8134 0.42219 0.75197 0.0
H1948 H 0.83972 0.40586 0.7754 0.0
H1949 H 0.74797 0.47129 0.81539 0.0
H1950 H 0.72712 0.44751 0.82192 0.0
H1951 H 0.73085 0.45704 0.78802 0.0
C1952 C 0.70588 0.64501 0.36867 0.0
C1953 C 0.6947 0.64977 0.34159 0.0
C1954 C 0.70226 0.66161 0.38791 0.0
C1955 C 0.68709 0.68377 0.38016 0.0
C1956 C 0.67539 0.68857 0.35296 0.0
C1957 C 0.67929 0.67161 0.33413 0.0
C1958 C 0.71509 0.65556 0.41658 0.0
C1959 C 0.65924 0.71192 0.34359 0.0
C1960 C 0.66348 0.721 0.43506 0.0
C1961 C 0.68361 0.73703 0.43911 0.0
C1962 C 0.66409 0.70376 0.41584 0.0
C1963 C 0.68521 0.70252 0.40005 0.0
C1964 C 0.70518 0.719 0.40371 0.0
C1965 C 0.70416 0.73585 0.42304 0.0
C1966 C 0.64237 0.68659 0.41271 0.0
C1967 C 0.72799 0.71867 0.38739 0.0
H1968 H 0.71737 0.62812 0.37498 0.0
H1969 H 0.6707 0.67575 0.31334 0.0
H1970 H 0.73028 0.66838 0.42238 0.0
H1971 H 0.69977 0.65726 0.43015 0.0
H1972 H 0.72506 0.63715 0.41978 0.0
H1973 H 0.65004 0.71241 0.32225 0.0
H1974 H 0.64309 0.71501 0.35598 0.0
H1975 H 0.67236 0.72692 0.34607 0.0
H1976 H 0.64751 0.7216 0.44725 0.0
H1977 H 0.71979 0.74816 0.42558 0.0
H1978 H 0.65135 0.668 0.41777 0.0
H1979 H 0.63249 0.68764 0.39159 0.0
H1980 H 0.62687 0.69027 0.42573 0.0
H1981 H 0.74004 0.70122 0.39131 0.0
H1982 H 0.7415 0.73313 0.392 0.0
H1983 H 0.71997 0.72068 0.36572 0.0
C1984 C 0.19403 0.29555 0.1387 0.0
C1985 C 0.21271 0.30987 0.1519 0.0
C1986 C 0.16933 0.29217 0.14772 0.0
C1987 C 0.16293 0.30336 0.17056 0.0
C1988 C 0.18177 0.31767 0.18413 0.0
C1989 C 0.2063 0.32078 0.17465 0.0
C1990 C 0.15 0.27663 0.13274 0.0
C1991 C 0.17581 0.33017 0.20839 0.0
C1992 C 0.0895 0.31345 0.18077 0.0
C1993 C 0.08708 0.29479 0.19989 0.0
C1994 C 0.11388 0.31626 0.17083 0.0
C1995 C 0.13658 0.30012 0.18027 0.0
C1996 C 0.1342 0.28115 0.1994 0.0
C1997 C 0.10957 0.27867 0.20888 0.0
C1998 C 0.11546 0.33675 0.15049 0.0
C1999 C 0.15792 0.26378 0.21043 0.0
H2000 H 0.19882 0.28676 0.12134 0.0
H2001 H 0.22026 0.33222 0.1848 0.0
H2002 H 0.14575 0.26158 0.14639 0.0
H2003 H 0.13065 0.28715 0.12547 0.0
H2004 H 0.15788 0.26919 0.11534 0.0
H2005 H 0.19393 0.33739 0.21915 0.0
H2006 H 0.16038 0.34522 0.20203 0.0
H2007 H 0.16756 0.3178 0.2225 0.0
H2008 H 0.07238 0.32607 0.17369 0.0
H2009 H 0.10816 0.26432 0.22385 0.0
H2010 H 0.12231 0.32989 0.13233 0.0
H2011 H 0.13044 0.34887 0.15885 0.0
H2012 H 0.09586 0.34729 0.1445 0.0
H2013 H 0.16632 0.25544 0.19383 0.0
H2014 H 0.15256 0.24941 0.22434 0.0
H2015 H 0.17398 0.27351 0.22132 0.0
C2016 C 0.75804 0.26483 0.904 0.0
C2017 C 0.77658 0.25027 0.92251 0.0
C2018 C 0.73541 0.25537 0.88971 0.0
C2019 C 0.73142 0.23064 0.89352 0.0
C2020 C 0.75043 0.21586 0.91178 0.0
C2021 C 0.77247 0.22583 0.9261 0.0
C2022 C 0.71555 0.2719 0.87072 0.0
C2023 C 0.74763 0.18937 0.9161 0.0
C2024 C 0.66204 0.2073 0.87326 0.0
C2025 C 0.66403 0.19982 0.84765 0.0
C2026 C 0.68363 0.21755 0.88832 0.0
C2027 C 0.70804 0.21994 0.87782 0.0
C2028 C 0.71034 0.21159 0.85235 0.0
C2029 C 0.68833 0.20198 0.83755 0.0
C2030 C 0.68004 0.22649 0.91516 0.0
C2031 C 0.73602 0.21306 0.8405 0.0
H2032 H 0.76083 0.28373 0.90118 0.0
H2033 H 0.7867 0.21428 0.94015 0.0
H2034 H 0.71452 0.26605 0.8501 0.0
H2035 H 0.6952 0.27108 0.87643 0.0
H2036 H 0.7209 0.29075 0.87058 0.0
H2037 H 0.76423 0.18024 0.93081 0.0
H2038 H 0.72834 0.18633 0.92333 0.0
H2039 H 0.74733 0.1809 0.89685 0.0
H2040 H 0.64318 0.2062 0.88098 0.0
H2041 H 0.69002 0.19636 0.81772 0.0
H2042 H 0.68284 0.24592 0.91492 0.0
H2043 H 0.6955 0.21737 0.93101 0.0
H2044 H 0.65989 0.2235 0.92052 0.0
H2045 H 0.74042 0.23203 0.8375 0.0
H2046 H 0.73498 0.20493 0.82098 0.0
H2047 H 0.75307 0.20382 0.8545 0.0
C2048 C 0.85894 0.79127 0.40241 0.0
C2049 C 0.84276 0.81156 0.4068 0.0
C2050 C 0.88068 0.79318 0.3881 0.0
C2051 C 0.88643 0.81591 0.3776 0.0
C2052 C 0.8701 0.83646 0.38171 0.0
C2053 C 0.84855 0.83405 0.39629 0.0
C2054 C 0.89746 0.77077 0.3841 0.0
C2055 C 0.87539 0.86099 0.3707 0.0
C2056 C 0.95681 0.82021 0.35915 0.0
C2057 C 0.95247 0.81622 0.33187 0.0
C2058 C 0.93537 0.8209 0.3742 0.0
C2059 C 0.90898 0.81789 0.36156 0.0
C2060 C 0.9044 0.81514 0.3337 0.0
C2061 C 0.92617 0.81416 0.3193 0.0
C2062 C 0.94115 0.82375 0.40386 0.0
C2063 C 0.87663 0.8123 0.31923 0.0
H2064 H 0.85448 0.77376 0.41002 0.0
H2065 H 0.83651 0.8499 0.39985 0.0
H2066 H 0.89618 0.76819 0.36242 0.0
H2067 H 0.91885 0.77255 0.39192 0.0
H2068 H 0.89093 0.75455 0.39426 0.0
H2069 H 0.86088 0.87519 0.3756 0.0
H2070 H 0.89597 0.8652 0.37887 0.0
H2071 H 0.87424 0.86137 0.34862 0.0
H2072 H 0.97709 0.8217 0.36899 0.0
H2073 H 0.92263 0.81136 0.29812 0.0
H2074 H 0.93721 0.80707 0.41509 0.0
H2075 H 0.92763 0.83838 0.40943 0.0
H2076 H 0.96227 0.82766 0.41032 0.0
H2077 H 0.86959 0.79509 0.32634 0.0
H2078 H 0.87608 0.81257 0.29719 0.0
H2079 H 0.86225 0.82679 0.32368 0.0
C2080 C 0.3475 0.75405 0.71679 0.0
C2081 C 0.36349 0.73361 0.71239 0.0
C2082 C 0.32301 0.76108 0.70023 0.0
C2083 C 0.31422 0.74757 0.67843 0.0
C2084 C 0.33041 0.72709 0.67364 0.0
C2085 C 0.3547 0.72028 0.69073 0.0
C2086 C 0.30629 0.78276 0.70642 0.0
C2087 C 0.32194 0.71223 0.65053 0.0
C2088 C 0.23992 0.74727 0.65125 0.0
C2089 C 0.2374 0.76215 0.62756 0.0
C2090 C 0.26446 0.74324 0.66846 0.0
C2091 C 0.28739 0.75393 0.66161 0.0
C2092 C 0.2847 0.76981 0.63822 0.0
C2093 C 0.25964 0.7739 0.62156 0.0
C2094 C 0.26605 0.72665 0.69341 0.0
C2095 C 0.30861 0.78146 0.63003 0.0
H2096 H 0.35394 0.7645 0.73348 0.0
H2097 H 0.3669 0.70459 0.68698 0.0
H2098 H 0.30203 0.79578 0.68864 0.0
H2099 H 0.2867 0.77737 0.71123 0.0
H2100 H 0.31632 0.79185 0.72354 0.0
H2101 H 0.33738 0.69767 0.64856 0.0
H2102 H 0.30301 0.70414 0.65332 0.0
H2103 H 0.31792 0.72375 0.63153 0.0
H2104 H 0.22274 0.73812 0.65591 0.0
H2105 H 0.25789 0.78508 0.60304 0.0
H2106 H 0.27545 0.73528 0.71115 0.0
H2107 H 0.27887 0.7102 0.69154 0.0
H2108 H 0.246 0.72142 0.69706 0.0
H2109 H 0.31877 0.79079 0.64683 0.0
H2110 H 0.30292 0.79451 0.61236 0.0
H2111 H 0.32337 0.76753 0.62507 0.0
C2112 C 0.85085 0.9543 0.69421 0.0
C2113 C 0.8264 0.94363 0.69249 0.0
C2114 C 0.87515 0.94126 0.70524 0.0
C2115 C 0.875 0.91694 0.71459 0.0
C2116 C 0.85054 0.90579 0.7115 0.0
C2117 C 0.82659 0.91926 0.70059 0.0
C2118 C 0.90073 0.95387 0.70822 0.0
C2119 C 0.84941 0.87989 0.72098 0.0
C2120 C 0.9391 0.87544 0.7304 0.0
C2121 C 0.94441 0.87504 0.75845 0.0
C2122 C 0.91708 0.88952 0.71575 0.0
C2123 C 0.89986 0.90354 0.72943 0.0
C2124 C 0.90547 0.90366 0.75766 0.0
C2125 C 0.92761 0.88943 0.77179 0.0
C2126 C 0.91191 0.889 0.68568 0.0
C2127 C 0.88761 0.91827 0.77308 0.0
H2128 H 0.85087 0.97318 0.68828 0.0
H2129 H 0.8078 0.91085 0.69924 0.0
H2130 H 0.90747 0.95601 0.72973 0.0
H2131 H 0.91693 0.94308 0.70075 0.0
H2132 H 0.89807 0.97186 0.69731 0.0
H2133 H 0.82925 0.87339 0.71523 0.0
H2134 H 0.86439 0.86842 0.71257 0.0
H2135 H 0.85453 0.87769 0.7431 0.0
H2136 H 0.95216 0.86467 0.71985 0.0
H2137 H 0.93126 0.88905 0.79344 0.0
H2138 H 0.91023 0.90745 0.67609 0.0
H2139 H 0.89254 0.88124 0.6796 0.0
H2140 H 0.92801 0.87829 0.6779 0.0
H2141 H 0.88543 0.93725 0.76506 0.0
H2142 H 0.89551 0.91745 0.79479 0.0
H2143 H 0.86727 0.91164 0.77065 0.0
C2144 C 0.73469 0.06943 0.16799 0.0
C2145 C 0.7398 0.05236 0.18988 0.0
C2146 C 0.723 0.09257 0.17077 0.0
C2147 C 0.7162 0.0986 0.19594 0.0
C2148 C 0.72025 0.08095 0.21765 0.0
C2149 C 0.73192 0.05819 0.21433 0.0
C2150 C 0.71906 0.11084 0.14713 0.0
C2151 C 0.71334 0.08634 0.24483 0.0
C2152 C 0.71418 0.16255 0.2173 0.0
C2153 C 0.68649 0.16866 0.21528 0.0
C2154 C 0.72409 0.14024 0.20999 0.0
C2155 C 0.70594 0.1235 0.20034 0.0
C2156 C 0.67799 0.12982 0.19752 0.0
C2157 C 0.66863 0.15222 0.20503 0.0
C2158 C 0.75404 0.13426 0.21348 0.0
C2159 C 0.65792 0.11262 0.18724 0.0
H2160 H 0.74103 0.06514 0.14917 0.0
H2161 H 0.73562 0.04499 0.2313 0.0
H2162 H 0.69853 0.11988 0.14438 0.0
H2163 H 0.73339 0.12479 0.15088 0.0
H2164 H 0.72235 0.10272 0.12831 0.0
H2165 H 0.71609 0.0702 0.25911 0.0
H2166 H 0.72631 0.09995 0.2534 0.0
H2167 H 0.69223 0.09389 0.24301 0.0
H2168 H 0.7282 0.17497 0.22532 0.0
H2169 H 0.64722 0.15687 0.20283 0.0
H2170 H 0.76006 0.12808 0.19467 0.0
H2171 H 0.75981 0.11941 0.22922 0.0
H2172 H 0.76549 0.14979 0.21927 0.0
H2173 H 0.66254 0.10615 0.16802 0.0
H2174 H 0.63699 0.12086 0.18416 0.0
H2175 H 0.6593 0.09675 0.20173 0.0
C2176 C 0.37379 0.68137 0.32673 0.0
C2177 C 0.37759 0.70282 0.33892 0.0
C2178 C 0.36494 0.66177 0.34059 0.0
C2179 C 0.36021 0.66373 0.36729 0.0
C2180 C 0.36174 0.68597 0.37878 0.0
C2181 C 0.37036 0.70533 0.36437 0.0
C2182 C 0.36286 0.63845 0.32747 0.0
C2183 C 0.35679 0.68876 0.40718 0.0
C2184 C 0.33107 0.61287 0.40354 0.0
C2185 C 0.3545 0.59988 0.41657 0.0
C2186 C 0.33248 0.6338 0.38734 0.0
C2187 C 0.3579 0.64187 0.38448 0.0
C2188 C 0.38157 0.62901 0.39809 0.0
C2189 C 0.37956 0.60802 0.41384 0.0
C2190 C 0.30692 0.64688 0.3728 0.0
C2191 C 0.40905 0.63725 0.39576 0.0
H2192 H 0.37908 0.67954 0.3069 0.0
H2193 H 0.37347 0.72184 0.37394 0.0
H2194 H 0.38033 0.62589 0.33602 0.0
H2195 H 0.34448 0.62997 0.33143 0.0
H2196 H 0.36258 0.64094 0.30548 0.0
H2197 H 0.35487 0.70784 0.41167 0.0
H2198 H 0.33832 0.68037 0.41101 0.0
H2199 H 0.3738 0.67952 0.42125 0.0
H2200 H 0.3117 0.60621 0.40534 0.0
H2201 H 0.39759 0.59785 0.42394 0.0
H2202 H 0.30642 0.64609 0.35089 0.0
H2203 H 0.30618 0.66604 0.37695 0.0
H2204 H 0.28873 0.63913 0.37857 0.0
H2205 H 0.41256 0.63746 0.37461 0.0
H2206 H 0.42535 0.62555 0.40826 0.0
H2207 H 0.41032 0.65578 0.40196 0.0
C2208 C 0.16189 0.36775 0.80223 0.0
C2209 C 0.15558 0.35174 0.82243 0.0
C2210 C 0.18096 0.38457 0.80787 0.0
C2211 C 0.19423 0.38549 0.83439 0.0
C2212 C 0.1879 0.36946 0.85491 0.0
C2213 C 0.16869 0.35284 0.84872 0.0
C2214 C 0.18699 0.40133 0.78536 0.0
C2215 C 0.20168 0.36966 0.88339 0.0
C2216 C 0.26208 0.41209 0.84178 0.0
C2217 C 0.25561 0.43555 0.84818 0.0
C2218 C 0.24247 0.39557 0.83788 0.0
C2219 C 0.21551 0.40253 0.84032 0.0
C2220 C 0.20891 0.42598 0.84746 0.0
C2221 C 0.22902 0.44218 0.85138 0.0
C2222 C 0.25054 0.37077 0.83047 0.0
C2223 C 0.18043 0.43416 0.85026 0.0
H2224 H 0.1516 0.36739 0.78196 0.0
H2225 H 0.1642 0.34044 0.86445 0.0
H2226 H 0.18354 0.42016 0.79021 0.0
H2227 H 0.20843 0.39841 0.78293 0.0
H2228 H 0.17446 0.39881 0.76599 0.0
H2229 H 0.19392 0.3566 0.89721 0.0
H2230 H 0.22357 0.36535 0.8843 0.0
H2231 H 0.19892 0.38777 0.89059 0.0
H2232 H 0.28256 0.40662 0.83943 0.0
H2233 H 0.22372 0.46025 0.85619 0.0
H2234 H 0.24016 0.36793 0.8102 0.0
H2235 H 0.24429 0.3571 0.84462 0.0
H2236 H 0.27252 0.36777 0.83056 0.0
H2237 H 0.16737 0.43394 0.8307 0.0
H2238 H 0.17875 0.45251 0.85716 0.0
H2239 H 0.17265 0.42171 0.86466 0.0
C2240 C 0.68233 0.78389 0.89185 0.0
C2241 C 0.68086 0.78796 0.91867 0.0
C2242 C 0.68738 0.80228 0.87364 0.0
C2243 C 0.69151 0.82531 0.88251 0.0
C2244 C 0.68931 0.82973 0.90944 0.0
C2245 C 0.68378 0.811 0.92719 0.0
C2246 C 0.68922 0.79681 0.84509 0.0
C2247 C 0.69394 0.85393 0.91979 0.0
C2248 C 0.73442 0.86251 0.84265 0.0
C2249 C 0.71505 0.87795 0.82604 0.0
C2250 C 0.72705 0.84577 0.86155 0.0
C2251 C 0.6996 0.84421 0.86385 0.0
C2252 C 0.67993 0.85973 0.84724 0.0
C2253 C 0.68787 0.87643 0.8286 0.0
C2254 C 0.74868 0.82949 0.87881 0.0
C2255 C 0.65045 0.85856 0.849 0.0
H2256 H 0.67993 0.7661 0.88517 0.0
H2257 H 0.68301 0.8141 0.948 0.0
H2258 H 0.67585 0.80984 0.83097 0.0
H2259 H 0.71001 0.79854 0.84095 0.0
H2260 H 0.68367 0.77847 0.84095 0.0
H2261 H 0.68978 0.8549 0.94068 0.0
H2262 H 0.71509 0.85783 0.91919 0.0
H2263 H 0.68104 0.8681 0.9068 0.0
H2264 H 0.75542 0.86331 0.84067 0.0
H2265 H 0.67277 0.88852 0.81624 0.0
H2266 H 0.74613 0.81063 0.87435 0.0
H2267 H 0.74694 0.83084 0.90028 0.0
H2268 H 0.76916 0.8338 0.87557 0.0
H2269 H 0.64415 0.84064 0.84404 0.0
H2270 H 0.6377 0.87231 0.83521 0.0
H2271 H 0.64673 0.86107 0.86975 0.0
C2272 C 0.75945 0.05988 0.36386 0.0
C2273 C 0.77317 0.06347 0.34193 0.0
C2274 C 0.76174 0.07542 0.38457 0.0
C2275 C 0.77902 0.09415 0.38361 0.0
C2276 C 0.79069 0.09915 0.36024 0.0
C2277 C 0.78736 0.08384 0.33954 0.0
C2278 C 0.74742 0.07058 0.40829 0.0
C2279 C 0.80924 0.11899 0.35824 0.0
C2280 C 0.79747 0.14194 0.4299 0.0
C2281 C 0.82229 0.13164 0.44328 0.0
C2282 C 0.78086 0.12875 0.41271 0.0
C2283 C 0.7898 0.10514 0.40834 0.0
C2284 C 0.81323 0.09388 0.42422 0.0
C2285 C 0.82899 0.10724 0.4418 0.0
C2286 C 0.75515 0.14091 0.39743 0.0
C2287 C 0.8234 0.06858 0.42046 0.0
H2288 H 0.74803 0.04433 0.36542 0.0
H2289 H 0.79799 0.08663 0.32259 0.0
H2290 H 0.76042 0.05816 0.42342 0.0
H2291 H 0.74264 0.08727 0.41783 0.0
H2292 H 0.72854 0.06198 0.40226 0.0
H2293 H 0.81538 0.12129 0.33807 0.0
H2294 H 0.7994 0.13619 0.36269 0.0
H2295 H 0.8276 0.11498 0.3732 0.0
H2296 H 0.79188 0.16075 0.43118 0.0
H2297 H 0.84765 0.099 0.45295 0.0
H2298 H 0.74649 0.1547 0.40921 0.0
H2299 H 0.74004 0.12787 0.39222 0.0
H2300 H 0.75936 0.15005 0.37857 0.0
H2301 H 0.80732 0.05628 0.42162 0.0
H2302 H 0.84087 0.062 0.43569 0.0
H2303 H 0.82958 0.0678 0.40033 0.0
C2304 C 0.23305 0.60917 0.24839 0.0
C2305 C 0.25275 0.62136 0.23735 0.0
C2306 C 0.23977 0.59266 0.27089 0.0
C2307 C 0.26692 0.58807 0.28287 0.0
C2308 C 0.28676 0.60115 0.27268 0.0
C2309 C 0.27948 0.61754 0.25009 0.0
C2310 C 0.21785 0.57942 0.28119 0.0
C2311 C 0.31593 0.59699 0.28482 0.0
C2312 C 0.28104 0.55211 0.35107 0.0
C2313 C 0.28544 0.5287 0.34353 0.0
C2314 C 0.2756 0.57174 0.33172 0.0
C2315 C 0.2747 0.56794 0.30415 0.0
C2316 C 0.28007 0.54444 0.29661 0.0
C2317 C 0.28522 0.52521 0.31628 0.0
C2318 C 0.26997 0.59641 0.34074 0.0
C2319 C 0.27969 0.53946 0.26759 0.0
H2320 H 0.21226 0.61229 0.23919 0.0
H2321 H 0.29498 0.62665 0.24176 0.0
H2322 H 0.22069 0.56018 0.27768 0.0
H2323 H 0.2189 0.58068 0.30309 0.0
H2324 H 0.19753 0.58644 0.27124 0.0
H2325 H 0.32824 0.61083 0.27728 0.0
H2326 H 0.31816 0.59685 0.30696 0.0
H2327 H 0.32401 0.57923 0.27987 0.0
H2328 H 0.28099 0.55505 0.37203 0.0
H2329 H 0.28879 0.50727 0.31018 0.0
H2330 H 0.24865 0.60265 0.33379 0.0
H2331 H 0.28244 0.60928 0.33174 0.0
H2332 H 0.27391 0.59675 0.36288 0.0
H2333 H 0.25926 0.54407 0.2564 0.0
H2334 H 0.2856 0.52042 0.26511 0.0
H2335 H 0.29354 0.5508 0.25835 0.0
C2336 C 0.34179 0.3743 0.69266 0.0
C2337 C 0.36194 0.3776 0.71406 0.0
C2338 C 0.34588 0.35779 0.67348 0.0
C2339 C 0.37076 0.34399 0.67551 0.0
C2340 C 0.39135 0.34745 0.6968 0.0
C2341 C 0.38673 0.36414 0.7157 0.0
C2342 C 0.32331 0.35484 0.6512 0.0
C2343 C 0.41812 0.33311 0.69999 0.0
C2344 C 0.36891 0.2838 0.6444 0.0
C2345 C 0.37821 0.28856 0.61982 0.0
C2346 C 0.36698 0.30143 0.66271 0.0
C2347 C 0.37443 0.32476 0.65657 0.0
C2348 C 0.38445 0.32965 0.6321 0.0
C2349 C 0.38631 0.31152 0.61408 0.0
C2350 C 0.35636 0.29515 0.68848 0.0
C2351 C 0.39261 0.35422 0.62466 0.0
H2352 H 0.32273 0.38483 0.6907 0.0
H2353 H 0.40245 0.36627 0.73215 0.0
H2354 H 0.33035 0.35735 0.6315 0.0
H2355 H 0.31678 0.33643 0.65296 0.0
H2356 H 0.30569 0.36772 0.65151 0.0
H2357 H 0.43263 0.33888 0.71653 0.0
H2358 H 0.41534 0.31389 0.70413 0.0
H2359 H 0.42689 0.33481 0.68114 0.0
H2360 H 0.3628 0.26615 0.64936 0.0
H2361 H 0.39341 0.31553 0.5952 0.0
H2362 H 0.33742 0.30619 0.68909 0.0
H2363 H 0.37092 0.29921 0.70587 0.0
H2364 H 0.35238 0.27599 0.6908 0.0
H2365 H 0.37491 0.36739 0.62246 0.0
H2366 H 0.40121 0.35494 0.60564 0.0
H2367 H 0.40764 0.3598 0.64082 0.0
C2368 C 0.95497 0.70925 0.85447 0.0
C2369 C 0.9693 0.72963 0.85853 0.0
C2370 C 0.93002 0.70718 0.86341 0.0
C2371 C 0.91895 0.72583 0.87703 0.0
C2372 C 0.93325 0.74647 0.88119 0.0
C2373 C 0.95812 0.74816 0.87183 0.0
C2374 C 0.91566 0.6848 0.85855 0.0
C2375 C 0.92229 0.76676 0.89563 0.0
C2376 C 0.84355 0.72779 0.88034 0.0
C2377 C 0.8429 0.7161 0.90559 0.0
C2378 C 0.86807 0.73152 0.87102 0.0
C2379 C 0.8927 0.72345 0.88729 0.0
C2380 C 0.89217 0.71219 0.91305 0.0
C2381 C 0.8674 0.70865 0.92183 0.0
C2382 C 0.86758 0.74343 0.84336 0.0
C2383 C 0.91782 0.70355 0.93126 0.0
H2384 H 0.96314 0.69484 0.84406 0.0
H2385 H 0.96883 0.76403 0.87505 0.0
H2386 H 0.91586 0.67427 0.87788 0.0
H2387 H 0.89435 0.68942 0.84987 0.0
H2388 H 0.92516 0.67332 0.84489 0.0
H2389 H 0.93569 0.78165 0.89717 0.0
H2390 H 0.90229 0.77386 0.88503 0.0
H2391 H 0.91955 0.76015 0.91611 0.0
H2392 H 0.82484 0.73342 0.86748 0.0
H2393 H 0.86723 0.69999 0.94155 0.0
H2394 H 0.87522 0.7303 0.83028 0.0
H2395 H 0.88095 0.75831 0.84405 0.0
H2396 H 0.84705 0.75055 0.83412 0.0
H2397 H 0.92888 0.68943 0.92188 0.0
H2398 H 0.91409 0.69617 0.95116 0.0
H2399 H 0.93102 0.71844 0.9342 0.0
C2400 C 0.28712 0.79341 0.13826 0.0
C2401 C 0.28206 0.76928 0.14271 0.0
C2402 C 0.30922 0.80314 0.15269 0.0
C2403 C 0.32731 0.78838 0.17185 0.0
C2404 C 0.32237 0.76397 0.17651 0.0
C2405 C 0.29965 0.75479 0.16212 0.0
C2406 C 0.31306 0.82936 0.14752 0.0
C2407 C 0.3413 0.74749 0.19646 0.0
C2408 C 0.39731 0.81002 0.19238 0.0
C2409 C 0.39509 0.81842 0.21753 0.0
C2410 C 0.37557 0.79997 0.1774 0.0
C2411 C 0.35081 0.7988 0.18752 0.0
C2412 C 0.34831 0.80809 0.21249 0.0
C2413 C 0.37049 0.81743 0.22727 0.0
C2414 C 0.37934 0.78994 0.15113 0.0
C2415 C 0.32223 0.80795 0.2238 0.0
H2416 H 0.27356 0.80488 0.12349 0.0
H2417 H 0.29606 0.73612 0.16558 0.0
H2418 H 0.31332 0.83847 0.16637 0.0
H2419 H 0.33268 0.83149 0.14059 0.0
H2420 H 0.29699 0.83853 0.13226 0.0
H2421 H 0.33522 0.72885 0.19719 0.0
H2422 H 0.3619 0.74738 0.19122 0.0
H2423 H 0.34209 0.75406 0.21674 0.0
H2424 H 0.41641 0.81025 0.18499 0.0
H2425 H 0.36868 0.8238 0.24676 0.0
H2426 H 0.36453 0.79909 0.13472 0.0
H2427 H 0.37568 0.77067 0.15198 0.0
H2428 H 0.39983 0.79191 0.14615 0.0
H2429 H 0.3057 0.81724 0.20919 0.0
H2430 H 0.3232 0.81677 0.24291 0.0
H2431 H 0.31707 0.78927 0.22743 0.0
C2432 C 0.21472 0.19745 0.67269 0.0
C2433 C 0.21637 0.21638 0.65362 0.0
C2434 C 0.19262 0.19645 0.68667 0.0
C2435 C 0.17154 0.21484 0.68157 0.0
C2436 C 0.17283 0.23379 0.66204 0.0
C2437 C 0.19516 0.23432 0.6483 0.0
C2438 C 0.19206 0.17588 0.70723 0.0
C2439 C 0.15092 0.25386 0.65612 0.0
C2440 C 0.10415 0.20494 0.70514 0.0
C2441 C 0.10647 0.21664 0.72896 0.0
C2442 C 0.12516 0.20407 0.68953 0.0
C2443 C 0.14908 0.21511 0.69794 0.0
C2444 C 0.15161 0.22664 0.72212 0.0
C2445 C 0.1304 0.22725 0.73726 0.0
C2446 C 0.12168 0.19155 0.6639 0.0
C2447 C 0.17672 0.23856 0.73197 0.0
H2448 H 0.23071 0.18325 0.6766 0.0
H2449 H 0.19628 0.2491 0.63378 0.0
H2450 H 0.19247 0.18269 0.72737 0.0
H2451 H 0.17319 0.16692 0.7028 0.0
H2452 H 0.20932 0.16239 0.7079 0.0
H2453 H 0.15414 0.26658 0.63937 0.0
H2454 H 0.13115 0.24651 0.65099 0.0
H2455 H 0.15001 0.26388 0.6742 0.0
H2456 H 0.08579 0.19674 0.69848 0.0
H2457 H 0.13263 0.23625 0.75567 0.0
H2458 H 0.13808 0.17728 0.66445 0.0
H2459 H 0.12299 0.20444 0.64668 0.0
H2460 H 0.10214 0.18345 0.66036 0.0
H2461 H 0.1944 0.22534 0.73468 0.0
H2462 H 0.1756 0.2467 0.75126 0.0
H2463 H 0.18016 0.25277 0.71687 0.0
C2464 C 0.71542 0.28764 0.3324 0.0
C2465 C 0.6917 0.29418 0.34257 0.0
C2466 C 0.73994 0.28211 0.34942 0.0
C2467 C 0.74088 0.28268 0.37747 0.0
C2468 C 0.71687 0.28857 0.38794 0.0
C2469 C 0.69266 0.29448 0.3704 0.0
C2470 C 0.76504 0.27646 0.33727 0.0
C2471 C 0.71683 0.28902 0.41772 0.0
C2472 C 0.80259 0.25309 0.42393 0.0
C2473 C 0.81646 0.27302 0.43123 0.0
C2474 C 0.77795 0.25585 0.40647 0.0
C2475 C 0.76727 0.27903 0.39562 0.0
C2476 C 0.78181 0.29905 0.40224 0.0
C2477 C 0.80596 0.29582 0.42012 0.0
C2478 C 0.76296 0.23407 0.40027 0.0
C2479 C 0.77168 0.324 0.39071 0.0
H2480 H 0.71501 0.28743 0.31095 0.0
H2481 H 0.67446 0.29928 0.3785 0.0
H2482 H 0.77926 0.29039 0.34173 0.0
H2483 H 0.77525 0.25912 0.34624 0.0
H2484 H 0.76078 0.27561 0.31521 0.0
H2485 H 0.69624 0.29189 0.42282 0.0
H2486 H 0.72639 0.27196 0.42816 0.0
H2487 H 0.72879 0.30358 0.42552 0.0
H2488 H 0.81045 0.23546 0.43269 0.0
H2489 H 0.81667 0.31129 0.42554 0.0
H2490 H 0.75894 0.23268 0.37832 0.0
H2491 H 0.74323 0.23583 0.40748 0.0
H2492 H 0.77418 0.21727 0.40975 0.0
H2493 H 0.76808 0.32456 0.36852 0.0
H2494 H 0.78598 0.3375 0.39685 0.0
H2495 H 0.75224 0.32915 0.39737 0.0
C2496 C 0.94331 0.30574 0.16248 0.0
C2497 C 0.96688 0.29048 0.16883 0.0
C2498 C 0.92851 0.30801 0.13643 0.0
C2499 C 0.9376 0.29494 0.1159 0.0
C2500 C 0.96175 0.27994 0.12212 0.0
C2501 C 0.97584 0.27769 0.14841 0.0
C2502 C 0.90263 0.32373 0.13159 0.0
C2503 C 0.97277 0.26616 0.10091 0.0
C2504 C 0.89061 0.27593 0.05643 0.0
C2505 C 0.89386 0.29273 0.03559 0.0
C2506 C 0.90347 0.27732 0.08274 0.0
C2507 C 0.92121 0.29537 0.08849 0.0
C2508 C 0.92422 0.31276 0.06765 0.0
C2509 C 0.91014 0.31148 0.04151 0.0
C2510 C 0.89823 0.25923 0.10437 0.0
C2511 C 0.94277 0.33238 0.0729 0.0
H2512 H 0.93614 0.31578 0.17799 0.0
H2513 H 0.99426 0.26617 0.15285 0.0
H2514 H 0.89699 0.33054 0.11034 0.0
H2515 H 0.88638 0.31312 0.13742 0.0
H2516 H 0.90392 0.33921 0.14419 0.0
H2517 H 0.99289 0.25696 0.10827 0.0
H2518 H 0.95892 0.25254 0.09416 0.0
H2519 H 0.97428 0.27841 0.08319 0.0
H2520 H 0.87776 0.26153 0.05216 0.0
H2521 H 0.91265 0.32456 1.02556 0.0
H2522 H 0.89224 0.26855 0.12153 0.0
H2523 H 0.91684 0.24772 0.11188 0.0
H2524 H 0.8822 0.24759 0.09713 0.0
H2525 H 0.93667 0.34294 0.08913 0.0
H2526 H 0.94284 0.34464 0.05481 0.0
H2527 H 0.96353 0.32442 0.07982 0.0
C2528 C 0.55763 0.79295 0.63355 0.0
C2529 C 0.55963 0.77299 0.61834 0.0
C2530 C 0.54299 0.79278 0.65534 0.0
C2531 C 0.53004 0.77215 0.66227 0.0
C2532 C 0.53269 0.75173 0.64749 0.0
C2533 C 0.54734 0.75242 0.62583 0.0
C2534 C 0.54081 0.81488 0.67054 0.0
C2535 C 0.51954 0.72922 0.65418 0.0
C2536 C 0.50412 0.75907 0.72876 0.0
C2537 C 0.47634 0.7634 0.72097 0.0
C2538 C 0.52217 0.76327 0.71038 0.0
C2539 C 0.51219 0.77215 0.68364 0.0
C2540 C 0.48429 0.77832 0.67648 0.0
C2541 C 0.46677 0.77367 0.6951 0.0
C2542 C 0.55165 0.75624 0.71898 0.0
C2543 C 0.47258 0.7879 0.64839 0.0
H2544 H 0.56693 0.80897 0.628 0.0
H2545 H 0.54921 0.73667 0.61473 0.0
H2546 H 0.51966 0.82251 0.6675 0.0
H2547 H 0.54673 0.81024 0.69233 0.0
H2548 H 0.55357 0.82882 0.66405 0.0
H2549 H 0.5251 0.71431 0.64214 0.0
H2550 H 0.5253 0.72337 0.67568 0.0
H2551 H 0.4974 0.73285 0.6505 0.0
H2552 H 0.51158 0.75039 0.74843 0.0
H2553 H 0.44527 0.77653 0.68881 0.0
H2554 H 0.56397 0.77022 0.71182 0.0
H2555 H 0.55722 0.73948 0.70994 0.0
H2556 H 0.55675 0.75318 0.74108 0.0
H2557 H 0.48406 0.80263 0.64149 0.0
H2558 H 0.45117 0.79461 0.64692 0.0
H2559 H 0.47399 0.77348 0.63455 0.0
C2560 C 0.51345 0.23626 0.95793 0.0
C2561 C 0.49425 0.2555 0.95822 0.0
C2562 C 0.52571 0.23246 0.93516 0.0
C2563 C 0.51867 0.24823 0.91185 0.0
C2564 C 0.49969 0.26797 0.91211 0.0
C2565 C 0.48767 0.27133 0.93522 0.0
C2566 C 0.54561 0.21105 0.93579 0.0
C2567 C 0.49168 0.28526 0.88776 0.0
C2568 C 0.56586 0.24254 0.8594 0.0
C2569 C 0.55314 0.22628 0.84292 0.0
C2570 C 0.55433 0.25081 0.88127 0.0
C2571 C 0.52951 0.24267 0.8867 0.0
C2572 C 0.51598 0.22732 0.86916 0.0
C2573 C 0.52791 0.21936 0.8476 0.0
C2574 C 0.56938 0.26725 0.89939 0.0
C2575 C 0.4895 0.21817 0.87398 0.0
H2576 H 0.51843 0.22369 0.97537 0.0
H2577 H 0.47314 0.28643 0.93529 0.0
H2578 H 0.5375 0.19845 0.92123 0.0
H2579 H 0.56462 0.21672 0.92975 0.0
H2580 H 0.55018 0.20134 0.95592 0.0
H2581 H 0.47822 0.30066 0.89176 0.0
H2582 H 0.50977 0.29212 0.88081 0.0
H2583 H 0.48118 0.27587 0.87118 0.0
H2584 H 0.58541 0.24787 0.85603 0.0
H2585 H 0.51777 0.20695 0.83486 0.0
H2586 H 0.57712 0.2574 0.91896 0.0
H2587 H 0.55578 0.28256 0.90327 0.0
H2588 H 0.5866 0.27424 0.89077 0.0
H2589 H 0.49247 0.20641 0.89279 0.0
H2590 H 0.48059 0.20783 0.85739 0.0
H2591 H 0.47496 0.23327 0.87642 0.0
C2592 C 0.09845 0.77481 0.48995 0.0
C2593 C 0.11786 0.75571 0.49828 0.0
C2594 C 0.08518 0.77789 0.4633 0.0
C2595 C 0.0914 0.7615 0.44445 0.0
C2596 C 0.11008 0.74163 0.45309 0.0
C2597 C 0.123 0.73899 0.47976 0.0
C2598 C 0.0653 0.79926 0.45504 0.0
C2599 C 0.11734 0.72365 0.43386 0.0
C2600 C 0.04511 0.76063 0.37762 0.0
C2601 C 0.05816 0.77461 0.36023 0.0
C2602 C 0.0556 0.75622 0.40501 0.0
C2603 C 0.07981 0.76591 0.41538 0.0
C2604 C 0.09331 0.77966 0.39782 0.0
C2605 C 0.08235 0.78385 0.3706 0.0
C2606 C 0.04052 0.74151 0.42295 0.0
C2607 C 0.11926 0.79022 0.40785 0.0
H2608 H 0.09435 0.78791 0.50395 0.0
H2609 H 0.13783 0.72407 0.48587 0.0
H2610 H 0.07336 0.81163 0.44074 0.0
H2611 H 0.0462 0.79354 0.4446 0.0
H2612 H 0.06096 0.80921 0.4724 0.0
H2613 H 0.13072 0.70827 0.44407 0.0
H2614 H 0.09895 0.71675 0.42331 0.0
H2615 H 0.12767 0.73246 0.41841 0.0
H2616 H 1.02631 0.75356 0.36999 0.0
H2617 H 0.09263 0.79474 0.35749 0.0
H2618 H 0.03459 0.75238 0.439 0.0
H2619 H 0.05367 0.7259 0.43285 0.0
H2620 H 1.0222 0.73494 0.41182 0.0
H2621 H 0.11606 0.80239 0.42371 0.0
H2622 H 0.12736 0.8004 0.39166 0.0
H2623 H 0.13455 0.77579 0.41692 0.0
C2624 C 0.2258 1.00082 0.32938 0.0
C2625 C 0.25326 0.99459 0.33025 0.0
C2626 C 0.20664 0.9844 0.32282 0.0
C2627 C 0.21511 0.96091 0.31731 0.0
C2628 C 0.24276 0.95495 0.31657 0.0
C2629 C 0.26158 0.97193 0.32302 0.0
C2630 C 0.17746 0.99175 0.32365 0.0
C2631 C 0.2527 0.93017 0.3108 0.0
C2632 C 0.16764 0.91501 0.33628 0.0
C2633 C 0.15142 0.91288 0.31173 0.0
C2634 C 0.18934 0.92957 0.33811 0.0
C2635 C 0.19512 0.94236 0.31481 0.0
C2636 C 0.17969 0.93934 0.28976 0.0
C2637 C 0.15805 0.9247 0.28853 0.0
C2638 C 0.20521 0.93223 0.36526 0.0
C2639 C 0.18525 0.95242 0.26441 0.0
H2640 H 0.21941 0.01827 0.33528 0.0
H2641 H 0.28286 0.96689 0.32432 0.0
H2642 H 0.16482 0.98726 0.30512 0.0
H2643 H 0.17069 0.98175 0.34076 0.0
H2644 H 0.17393 1.0112 0.32589 0.0
H2645 H 0.27392 0.92935 0.30721 0.0
H2646 H 0.25122 0.91744 0.3281 0.0
H2647 H 0.24007 0.9241 0.29309 0.0
H2648 H 0.16265 0.90616 0.35437 0.0
H2649 H 0.14599 0.92286 0.26937 0.0
H2650 H 0.20129 0.95068 0.37118 0.0
H2651 H 0.22704 0.92941 0.36452 0.0
H2652 H 0.19993 0.91944 0.38097 0.0
H2653 H 0.17986 0.97183 0.26495 0.0
H2654 H 0.17363 0.94605 0.24623 0.0
H2655 H 0.20694 0.95019 0.2628 0.0
C2656 C 0.44595 0.11039 0.81756 0.0
C2657 C 0.46618 0.0996 0.83751 0.0
C2658 C 0.41927 0.10439 0.81624 0.0
C2659 C 0.41262 0.08706 0.83522 0.0
C2660 C 0.43307 0.07553 0.85486 0.0
C2661 C 0.45956 0.08198 0.85582 0.0
C2662 C 0.39807 0.11708 0.79499 0.0
C2663 C 0.42684 0.05688 0.87542 0.0
C2664 C 0.34288 0.08864 0.8549 0.0
C2665 C 0.33189 0.06957 0.8417 0.0
C2666 C 0.3687 0.0951 0.85205 0.0
C2667 C 0.3841 0.08205 0.83579 0.0
C2668 C 0.37272 0.06343 0.82149 0.0
C2669 C 0.34666 0.05747 0.82451 0.0
C2670 C 0.3799 0.1153 0.86736 0.0
C2671 C 0.38854 0.04904 0.80404 0.0
H2672 H 0.45095 0.12368 0.80298 0.0
H2673 H 0.47495 0.07369 0.87144 0.0
H2674 H 0.38671 0.10387 0.78359 0.0
H2675 H 0.3835 0.12797 0.80458 0.0
H2676 H 0.40676 0.12903 0.78072 0.0
H2677 H 0.44523 0.04845 0.88819 0.0
H2678 H 0.41357 0.06521 0.88851 0.0
H2679 H 0.4159 0.04268 0.86538 0.0
H2680 H 0.33152 0.09818 0.86809 0.0
H2681 H 0.33838 0.04261 0.8144 0.0
H2682 H 0.38761 0.12846 0.85366 0.0
H2683 H 0.39703 0.10816 0.88267 0.0
H2684 H 0.36468 0.12475 0.87758 0.0
H2685 H 0.39721 0.06108 0.78989 0.0
H2686 H 0.37607 0.03665 0.79241 0.0
H2687 H 0.40553 0.03837 0.81673 0.0
C2688 C 0.68603 0.5836 0.71334 0.0
C2689 C 0.70793 0.59496 0.70581 0.0
C2690 C 0.66157 0.59658 0.71435 0.0
C2691 C 0.65891 0.62154 0.70754 0.0
C2692 C 0.6814 0.63335 0.70135 0.0
C2693 C 0.70574 0.61989 0.70063 0.0
C2694 C 0.63815 0.58331 0.72125 0.0
C2695 C 0.67933 0.65992 0.69395 0.0
C2696 C 0.58763 0.64428 0.67892 0.0
C2697 C 0.57804 0.65278 0.70149 0.0
C2698 C 0.6144 0.63523 0.68027 0.0
C2699 C 0.63198 0.63465 0.70481 0.0
C2700 C 0.62281 0.64438 0.72727 0.0
C2701 C 0.59592 0.65333 0.72535 0.0
C2702 C 0.62349 0.62522 0.65578 0.0
C2703 C 0.64097 0.64416 0.75372 0.0
H2704 H 0.68768 0.56435 0.71751 0.0
H2705 H 0.72257 0.62874 0.69459 0.0
H2706 H 0.62906 0.59195 0.73727 0.0
H2707 H 0.62244 0.584 0.70343 0.0
H2708 H 0.6441 0.56425 0.72801 0.0
H2709 H 0.69933 0.66685 0.69331 0.0
H2710 H 0.66711 0.6638 0.67391 0.0
H2711 H 0.66908 0.66978 0.70839 0.0
H2712 H 0.574 0.64421 0.66033 0.0
H2713 H 0.58859 0.65973 0.74293 0.0
H2714 H 0.62791 0.60557 0.6594 0.0
H2715 H 0.64226 0.63292 0.65167 0.0
H2716 H 0.60809 0.62888 0.63771 0.0
H2717 H 0.64522 0.6255 0.76263 0.0
H2718 H 0.63183 0.655 0.76818 0.0
H2719 H 0.66046 0.65111 0.75079 0.0
C2720 C 0.91606 0.43666 0.27657 0.0
C2721 C 0.92027 0.43309 0.25024 0.0
C2722 C 0.89416 0.45155 0.28171 0.0
C2723 C 0.8759 0.46285 0.25999 0.0
C2724 C 0.88052 0.45983 0.2334 0.0
C2725 C 0.90268 0.44506 0.22887 0.0
C2726 C 0.89007 0.45457 0.31029 0.0
C2727 C 0.86139 0.47134 0.20961 0.0
C2728 C 0.80204 0.47637 0.26116 0.0
C2729 C 0.79988 0.50141 0.25875 0.0
C2730 C 0.8271 0.46345 0.26411 0.0
C2731 C 0.85054 0.47595 0.26455 0.0
C2732 C 0.84864 0.50121 0.26496 0.0
C2733 C 0.82318 0.51372 0.26209 0.0
C2734 C 0.82813 0.43654 0.26376 0.0
C2735 C 0.87315 0.5152 0.26563 0.0
H2736 H 0.92982 0.42766 0.29317 0.0
H2737 H 0.90568 0.44217 0.2085 0.0
H2738 H 0.88638 0.4738 0.31348 0.0
H2739 H 0.8721 0.44558 0.31456 0.0
H2740 H 0.9076 0.44686 0.32484 0.0
H2741 H 0.86887 0.46856 0.19035 0.0
H2742 H 0.84164 0.46369 0.20897 0.0
H2743 H 0.85806 0.49084 0.21143 0.0
H2744 H 0.78394 0.46689 0.25852 0.0
H2745 H 0.82153 0.53311 0.25989 0.0
H2746 H 0.80882 0.42943 0.26723 0.0
H2747 H 0.84434 0.42795 0.2792 0.0
H2748 H 0.83258 0.43131 0.24399 0.0
H2749 H 0.89013 0.50624 0.27995 0.0
H2750 H 0.86911 0.53375 0.27124 0.0
H2751 H 0.87945 0.51616 0.2455 0.0
C2752 C 0.34032 0.24669 1.01639 0.0
C2753 C 0.33429 0.25274 0.04142 0.0
C2754 C 0.33284 0.22522 1.00599 0.0
C2755 C 0.31905 0.20942 1.02103 0.0
C2756 C 0.31143 0.2161 0.04553 0.0
C2757 C 0.31909 0.23777 0.05542 0.0
C2758 C 0.34113 0.21881 0.97966 0.0
C2759 C 0.29669 0.19973 0.0621 0.0
C2760 C 0.28922 0.15828 0.98465 0.0
C2761 C 0.30969 0.13987 0.99176 0.0
C2762 C 0.29155 0.18087 0.99467 0.0
C2763 C 0.3149 0.18509 1.0122 0.0
C2764 C 0.33525 0.16636 1.02012 0.0
C2765 C 0.3324 0.14397 1.00978 0.0
C2766 C 0.26939 0.20039 0.98595 0.0
C2767 C 0.36047 0.1702 0.03883 0.0
H2768 H 0.35189 0.25827 1.00537 0.0
H2769 H 0.31441 0.2423 0.07483 0.0
H2770 H 0.35655 0.20347 0.98321 0.0
H2771 H 0.32375 0.21321 0.96615 0.0
H2772 H 0.34956 0.23395 0.96933 0.0
H2773 H 0.2892 0.20881 0.07876 0.0
H2774 H 0.27947 0.1929 0.04945 0.0
H2775 H 0.31041 0.18403 0.07077 0.0
H2776 H 0.27141 0.15507 0.97106 0.0
H2777 H 0.34839 0.1299 1.01513 0.0
H2778 H 0.27701 0.21497 0.97402 0.0
H2779 H 0.26273 0.20825 1.00367 0.0
H2780 H 0.25177 0.19376 0.97365 0.0
H2781 H 0.37194 0.18361 1.02927 0.0
H2782 H 0.37366 0.15344 0.04417 0.0
H2783 H 0.35527 0.17737 0.05751 0.0
C2784 C 0.8199 0.30465 0.0568 0.0
C2785 C 0.80641 0.30698 1.03038 0.0
C2786 C 0.81652 0.32263 0.07458 0.0
C2787 C 0.79913 0.34343 0.0659 0.0
C2788 C 0.78432 0.34516 0.03977 0.0
C2789 C 0.78809 0.327 1.02246 0.0
C2790 C 0.83237 0.31979 0.10234 0.0
C2791 C 0.76553 0.36687 1.02951 0.0
C2792 C 0.77612 0.38759 0.1143 0.0
C2793 C 0.79313 0.40614 0.11166 0.0
C2794 C 0.7783 0.36678 0.10025 0.0
C2795 C 0.79796 0.3643 0.08302 0.0
C2796 C 0.81559 0.38265 0.08077 0.0
C2797 C 0.81293 0.40324 0.09496 0.0
C2798 C 0.75918 0.34767 0.10343 0.0
C2799 C 0.83693 0.38084 0.06276 0.0
H2800 H 0.83403 0.28931 0.06325 0.0
H2801 H 0.77741 0.32906 1.00219 0.0
H2802 H 0.84474 0.33519 0.10568 0.0
H2803 H 0.81847 0.31974 0.11743 0.0
H2804 H 0.84573 0.303 0.10577 0.0
H2805 H 0.7539 0.3647 1.00956 0.0
H2806 H 0.75125 0.37056 0.04375 0.0
H2807 H 0.77724 0.38277 1.02785 0.0
H2808 H 0.761 0.38931 0.12738 0.0
H2809 H 0.82598 0.41745 0.09228 0.0
H2810 H 0.77053 0.33006 0.10915 0.0
H2811 H 0.74626 0.34613 0.08404 0.0
H2812 H 0.74611 0.35153 0.11875 0.0
H2813 H 0.84985 0.36396 0.06809 0.0
H2814 H 0.84985 0.39607 0.06409 0.0
H2815 H 0.82735 0.38039 0.04167 0.0
C2816 C 0.73138 0.70926 0.53366 0.0
C2817 C 0.73012 0.73116 0.54534 0.0
C2818 C 0.73986 0.68781 0.54923 0.0
C2819 C 0.74648 0.68817 0.57734 0.0
C2820 C 0.74642 0.71045 0.5891 0.0
C2821 C 0.73844 0.73179 0.57286 0.0
C2822 C 0.74018 0.66463 0.5357 0.0
C2823 C 0.75291 0.71163 0.619 0.0
C2824 C 0.73212 0.63163 0.61659 0.0
C2825 C 0.75783 0.62004 0.62405 0.0
C2826 C 0.72833 0.6541 0.60215 0.0
C2827 C 0.75074 0.66512 0.5944 0.0
C2828 C 0.77677 0.6535 0.60186 0.0
C2829 C 0.78004 0.63124 0.61686 0.0
C2830 C 0.70026 0.66602 0.59512 0.0
C2831 C 0.80111 0.66441 0.59363 0.0
H2832 H 0.72474 0.70882 0.51236 0.0
H2833 H 0.73694 0.7487 0.58192 0.0
H2834 H 0.75925 0.65359 0.54273 0.0
H2835 H 0.72358 0.65419 0.54102 0.0
H2836 H 0.73777 0.66765 0.51355 0.0
H2837 H 0.75492 0.73026 0.62471 0.0
H2838 H 0.73668 0.70412 0.62877 0.0
H2839 H 0.77179 0.70067 0.62698 0.0
H2840 H 0.71489 0.62334 0.62249 0.0
H2841 H 0.79999 0.62244 0.62265 0.0
H2842 H 0.69439 0.66773 0.57307 0.0
H2843 H 0.69954 0.68434 0.6021 0.0
H2844 H 0.68524 0.65586 0.60414 0.0
H2845 H 0.79916 0.66636 0.57147 0.0
H2846 H 0.82003 0.65342 0.60156 0.0
H2847 H 0.80251 0.68258 0.60083 0.0
C2848 C 0.24322 0.79489 0.53149 0.0
C2849 C 0.21899 0.78818 0.51795 0.0
C2850 C 0.25523 0.81511 0.522 0.0
C2851 C 0.24269 0.82884 0.49843 0.0
C2852 C 0.21963 0.82064 0.48345 0.0
C2853 C 0.20809 0.80052 0.49342 0.0
C2854 C 0.27996 0.82293 0.5385 0.0
C2855 C 0.20554 0.83443 0.45818 0.0
C2856 C 0.24527 0.89668 0.49328 0.0
C2857 C 0.26289 0.9003 0.47454 0.0
C2858 C 0.2392 0.87357 0.50166 0.0
C2859 C 0.25113 0.85328 0.49131 0.0
C2860 C 0.26948 0.85668 0.47294 0.0
C2861 C 0.27506 0.88007 0.46473 0.0
C2862 C 0.21949 0.87093 0.52127 0.0
C2863 C 0.28274 0.83564 0.46146 0.0
H2864 H 0.25146 0.78573 0.55071 0.0
H2865 H 0.18918 0.79555 0.48304 0.0
H2866 H 0.29465 0.82854 0.52547 0.0
H2867 H 0.2743 0.83859 0.54937 0.0
H2868 H 0.28978 0.8085 0.55343 0.0
H2869 H 0.19012 0.82412 0.44708 0.0
H2870 H 0.19552 0.85132 0.46339 0.0
H2871 H 0.22015 0.83928 0.44474 0.0
H2872 H 0.23617 0.91199 0.50154 0.0
H2873 H 0.28853 0.88249 0.4501 0.0
H2874 H 0.22872 0.85901 0.53897 0.0
H2875 H 0.20163 0.86251 0.51176 0.0
H2876 H 0.2127 0.88837 0.52821 0.0
H2877 H 0.29213 0.82227 0.47777 0.0
H2878 H 0.29832 0.84105 0.44936 0.0
H2879 H 0.26741 0.82668 0.44853 0.0
C2880 C 0.0776 0.71779 0.92095 0.0
C2881 C 0.08457 0.73397 0.90118 0.0
C2882 C 0.09144 0.71565 0.94732 0.0
C2883 C 0.11326 0.72971 0.9543 0.0
C2884 C 0.12064 0.74589 0.93439 0.0
C2885 C 0.10608 0.74801 0.90821 0.0
C2886 C 0.08237 0.69858 0.96785 0.0
C2887 C 0.14399 0.76099 0.94077 0.0
C2888 C 0.13417 0.74364 1.02692 0.0
C2889 C 0.15726 0.72801 0.03504 0.0
C2890 C 0.11932 0.74385 1.00115 0.0
C2891 C 0.12771 0.72816 0.98262 0.0
C2892 C 0.15024 0.71151 0.99105 0.0
C2893 C 0.16474 0.71159 1.01714 0.0
C2894 C 0.09517 0.76156 0.99344 0.0
C2895 C 0.15961 0.69426 0.97209 0.0
H2896 H 0.06094 0.70692 0.91592 0.0
H2897 H 0.11179 0.76042 0.89314 0.0
H2898 H 0.09923 0.68555 0.97683 0.0
H2899 H 0.07598 0.70862 0.98434 0.0
H2900 H 0.06541 0.68855 0.95917 0.0
H2901 H 0.14787 0.77205 0.92295 0.0
H2902 H 0.14001 0.77303 0.95653 0.0
H2903 H 0.1624 0.74935 0.94875 0.0
H2904 H 0.12817 0.75642 0.04054 0.0
H2905 H 0.18272 0.69968 1.02296 0.0
H2906 H 0.07749 0.75228 0.9851 0.0
H2907 H 0.09915 0.77484 0.9776 0.0
H2908 H 0.09005 0.77129 1.01069 0.0
H2909 H 0.14304 0.68344 0.96435 0.0
H2910 H 0.17683 0.68196 0.98177 0.0
H2911 H 0.16553 0.70434 0.95458 0.0
C2912 C 0.55045 0.27382 0.32872 0.0
C2913 C 0.57858 0.27108 0.33336 0.0
C2914 C 0.53515 0.26802 0.34898 0.0
C2915 C 0.54827 0.25954 0.37482 0.0
C2916 C 0.57666 0.25513 0.37909 0.0
C2917 C 0.59151 0.26092 0.35825 0.0
C2918 C 0.50504 0.27288 0.34324 0.0
C2919 C 0.59152 0.24613 0.40626 0.0
C2920 C 0.5117 0.27751 0.43237 0.0
C2921 C 0.49971 0.25656 0.43913 0.0
C2922 C 0.52789 0.27849 0.41194 0.0
C2923 C 0.53248 0.258 0.39777 0.0
C2924 C 0.52075 0.23669 0.40465 0.0
C2925 C 0.50455 0.23622 0.42517 0.0
C2926 C 0.53985 0.30166 0.40529 0.0
C2927 C 0.52486 0.21452 0.38995 0.0
H2928 H 0.54041 0.28202 0.30959 0.0
H2929 H 0.61326 0.25935 0.36215 0.0
H2930 H 0.49498 0.25758 0.35112 0.0
H2931 H 0.49893 0.28881 0.35345 0.0
H2932 H 0.49771 0.27629 0.32147 0.0
H2933 H 0.61288 0.24049 0.40548 0.0
H2934 H 0.59078 0.26057 0.42018 0.0
H2935 H 0.58185 0.23083 0.41469 0.0
H2936 H 0.50864 0.29321 0.44325 0.0
H2937 H 0.49525 0.21999 0.42992 0.0
H2938 H 0.53197 0.30843 0.38438 0.0
H2939 H 0.56196 0.2986 0.40672 0.0
H2940 H 0.53525 0.31573 0.41878 0.0
H2941 H 0.5159 0.21805 0.36861 0.0
H2942 H 0.51566 0.19899 0.39861 0.0
H2943 H 0.5466 0.2097 0.39045 0.0
C2944 C 0.5725 0.75037 0.12683 0.0
C2945 C 0.56701 0.76746 0.10486 0.0
C2946 C 0.55988 0.75268 0.14974 0.0
C2947 C 0.54136 0.77258 0.15083 0.0
C2948 C 0.53503 0.78938 0.12834 0.0
C2949 C 0.54781 0.78658 0.10571 0.0
C2950 C 0.56714 0.73431 0.17319 0.0
C2951 C 0.51541 0.81088 0.12852 0.0
C2952 C 0.49389 0.77737 0.20309 0.0
C2953 C 0.50701 0.79279 0.2204 0.0
C2954 C 0.50537 0.76958 0.18097 0.0
C2955 C 0.53055 0.77735 0.1762 0.0
C2956 C 0.54448 0.79175 0.19461 0.0
C2957 C 0.53257 0.79927 0.21636 0.0
C2958 C 0.48989 0.75415 0.16193 0.0
C2959 C 0.57137 0.80042 0.19053 0.0
H2960 H 0.58734 0.73556 0.1265 0.0
H2961 H 0.54287 0.79958 0.08865 0.0
H2962 H 0.57864 0.74252 0.19014 0.0
H2963 H 0.54874 0.7281 0.18013 0.0
H2964 H 0.57947 0.71856 0.16817 0.0
H2965 H 0.51131 0.82142 0.10885 0.0
H2966 H 0.49616 0.80515 0.13388 0.0
H2967 H 0.52356 0.82273 0.14392 0.0
H2968 H 0.47407 0.77241 0.20596 0.0
H2969 H 0.54297 0.81104 0.22977 0.0
H2970 H 0.50313 0.73892 0.15722 0.0
H2971 H 0.48229 0.76484 0.14284 0.0
H2972 H 0.47252 0.74706 0.17019 0.0
H2973 H 0.58543 0.78519 0.18735 0.0
H2974 H 0.5806 0.80979 0.2078 0.0
H2975 H 0.56888 0.81294 0.17233 0.0
C2976 C 0.94982 0.2413 0.57626 0.0
C2977 C 0.9369 0.26305 0.56424 0.0
C2978 C 0.96282 0.2394 0.60303 0.0
C2979 C 0.96239 0.25955 0.61857 0.0
C2980 C 0.94952 0.28158 0.60646 0.0
C2981 C 0.93726 0.28312 0.57949 0.0
C2982 C 0.97671 0.21567 0.61481 0.0
C2983 C 0.9479 0.30339 0.62226 0.0
C2984 C 0.97116 0.24628 0.69464 0.0
C2985 C 0.99791 0.25117 0.70265 0.0
C2986 C 0.95921 0.24957 0.66758 0.0
C2987 C 0.9745 0.25734 0.6477 0.0
C2988 C 1.00145 0.26256 0.65571 0.0
C2989 C 1.0127 0.25969 0.68304 0.0
C2990 C 0.93027 0.24431 0.66022 0.0
C2991 C 1.01875 0.27036 0.6353 0.0
H2992 H 0.94967 0.22567 0.56477 0.0
H2993 H 0.92705 0.29995 0.57065 0.0
H2994 H 0.99767 0.21804 0.62372 0.0
H2995 H 0.96633 0.2085 0.63112 0.0
H2996 H 0.97703 0.20224 0.59965 0.0
H2997 H 0.93757 0.31929 0.6099 0.0
H2998 H 0.93689 0.29963 0.63934 0.0
H2999 H 0.96832 0.30776 0.63075 0.0
H3000 H 0.95957 0.23963 0.70958 0.0
H3001 H 0.0335 0.26312 0.68889 0.0
H3002 H 0.929 0.22903 0.64738 0.0
H3003 H 0.91869 0.25996 0.64848 0.0
H3004 H 0.92061 0.23991 0.67811 0.0
H3005 H 1.02071 0.25616 0.62127 0.0
H3006 H 0.03915 0.27411 0.6447 0.0
H3007 H 1.00919 0.28667 0.62324 0.0
C3008 C 0.8059 0.05761 0.7198 0.0
C3009 C 0.80965 0.03267 0.72466 0.0
C3010 C 0.82705 0.07212 0.72614 0.0
C3011 C 0.85272 0.06142 0.7373 0.0
C3012 C 0.85623 0.03635 0.74372 0.0
C3013 C 0.83453 0.02224 0.73747 0.0
C3014 C 0.82228 0.09875 0.71917 0.0
C3015 C 0.88333 0.02421 0.75537 0.0
C3016 C 0.91172 0.09382 0.71861 0.0
C3017 C 0.92014 0.10513 0.74196 0.0
C3018 C 0.8901 0.07931 0.71707 0.0
C3019 C 0.87632 0.07611 0.73935 0.0
C3020 C 0.88452 0.0876 0.76292 0.0
C3021 C 0.90635 0.10195 0.76397 0.0
C3022 C 0.8819 0.06753 0.69145 0.0
C3023 C 0.87017 0.08476 0.78698 0.0
H3024 H 0.78663 0.06573 0.70994 0.0
H3025 H 0.83756 1.00295 0.74094 0.0
H3026 H 0.83122 0.10878 0.73597 0.0
H3027 H 0.83211 0.10367 0.70156 0.0
H3028 H 0.80057 0.10458 0.71424 0.0
H3029 H 0.88208 1.00515 0.76207 0.0
H3030 H 0.89694 0.02497 0.74002 0.0
H3031 H 0.8925 0.03361 0.7726 0.0
H3032 H 0.92193 0.09648 0.70135 0.0
H3033 H 0.91289 0.11039 0.78219 0.0
H3034 H 0.86108 0.0741 0.68268 0.0
H3035 H 0.88214 0.0479 0.69569 0.0
H3036 H 0.89529 0.07113 0.67631 0.0
H3037 H 0.84874 0.0913 0.78142 0.0
H3038 H 0.87914 0.09471 0.80389 0.0
H3039 H 0.87076 0.06557 0.79387 0.0
C3040 C 0.70868 0.94109 0.18743 0.0
C3041 C 0.72037 0.95625 0.206 0.0
C3042 C 0.68316 0.93317 0.18899 0.0
C3043 C 0.66907 0.94047 0.20971 0.0
C3044 C 0.68102 0.95529 0.22889 0.0
C3045 C 0.7065 0.96307 0.22676 0.0
C3046 C 0.67102 0.91744 0.16811 0.0
C3047 C 0.6667 0.96327 0.25141 0.0
C3048 C 0.59308 0.94057 0.19951 0.0
C3049 C 0.58925 0.91935 0.21413 0.0
C3050 C 0.61896 0.94755 0.19771 0.0
C3051 C 0.64156 0.93303 0.211 0.0
C3052 C 0.63788 0.91153 0.22567 0.0
C3053 C 0.61179 0.9049 0.22695 0.0
C3054 C 0.62211 0.97056 0.18178 0.0
C3055 C 0.66149 0.8956 0.24013 0.0
H3056 H 0.71922 0.93579 0.17127 0.0
H3057 H 0.71541 0.97473 0.24122 0.0
H3058 H 0.6655 0.90063 0.17788 0.0
H3059 H 0.65232 0.92667 0.15677 0.0
H3060 H 0.6849 0.91283 0.15373 0.0
H3061 H 0.67915 0.97409 0.26522 0.0
H3062 H 0.64783 0.97412 0.24308 0.0
H3063 H 0.66113 0.94748 0.26309 0.0
H3064 H 0.5758 0.95198 0.18981 0.0
H3065 H 0.60905 0.88826 0.2379 0.0
H3066 H 0.63472 0.96696 0.16603 0.0
H3067 H 0.63253 0.98306 0.19505 0.0
H3068 H 0.60253 0.97953 0.1721 0.0
H3069 H 0.67473 0.88972 0.2257 0.0
H3070 H 0.65519 0.8795 0.25073 0.0
H3071 H 0.67361 0.90572 0.25495 0.0
C3072 C 0.47371 0.41473 0.33401 0.0
C3073 C 0.48917 0.3982 0.35296 0.0
C3074 C 0.44771 0.42315 0.33743 0.0
C3075 C 0.4371 0.41504 0.3605 0.0
C3076 C 0.45248 0.39806 0.37949 0.0
C3077 C 0.47829 0.38975 0.37541 0.0
C3078 C 0.43178 0.441 0.31657 0.0
C3079 C 0.44196 0.38919 0.40449 0.0
C3080 C 0.3841 0.45565 0.38487 0.0
C3081 C 0.36058 0.44448 0.37673 0.0
C3082 C 0.40907 0.44627 0.37959 0.0
C3083 C 0.41057 0.42534 0.36558 0.0
C3084 C 0.38688 0.41419 0.35688 0.0
C3085 C 0.36215 0.42382 0.36268 0.0
C3086 C 0.43391 0.45859 0.3894 0.0
C3087 C 0.38771 0.39198 0.34162 0.0
H3088 H 0.48195 0.42101 0.31644 0.0
H3089 H 0.49029 0.37709 0.39017 0.0
H3090 H 0.41191 0.43451 0.30957 0.0
H3091 H 0.42811 0.45823 0.3255 0.0
H3092 H 0.44226 0.44436 0.299 0.0
H3093 H 0.45596 0.37523 0.41668 0.0
H3094 H 0.43869 0.40435 0.41697 0.0
H3095 H 0.4223 0.38172 0.39915 0.0
H3096 H 0.38315 0.47156 0.39583 0.0
H3097 H 0.34406 0.41513 0.35626 0.0
H3098 H 0.44428 0.4639 0.37231 0.0
H3099 H 0.44813 0.44606 0.40332 0.0
H3100 H 0.42927 0.47478 0.3999 0.0
H3101 H 0.39726 0.39539 0.32347 0.0
H3102 H 0.3674 0.38595 0.33547 0.0
H3103 H 0.40013 0.37725 0.35418 0.0
C3104 C 0.25273 0.55348 0.8006 0.0
C3105 C 0.25501 0.5287 0.79852 0.0
C3106 C 0.22798 0.56678 0.79369 0.0
C3107 C 0.20496 0.555 0.78432 0.0
C3108 C 0.20777 0.53051 0.7792 0.0
C3109 C 0.23289 0.51755 0.78644 0.0
C3110 C 0.22606 0.59286 0.79938 0.0
C3111 C 0.18383 0.51744 0.7686 0.0
C3112 C 0.14408 0.57967 0.81218 0.0
C3113 C 0.13143 0.59582 0.79119 0.0
C3114 C 0.16721 0.56537 0.80956 0.0
C3115 C 0.17799 0.56709 0.78523 0.0
C3116 C 0.16454 0.5824 0.76341 0.0
C3117 C 0.14152 0.59681 0.76674 0.0
C3118 C 0.18102 0.54948 0.8335 0.0
C3119 C 0.17508 0.58436 0.73701 0.0
H3120 H 0.26995 0.56221 0.80958 0.0
H3121 H 0.23457 0.49839 0.78475 0.0
H3122 H 0.2136 0.60379 0.78251 0.0
H3123 H 0.21626 0.59495 0.81746 0.0
H3124 H 0.24611 0.60006 0.80298 0.0
H3125 H 0.19 0.50056 0.76004 0.0
H3126 H 0.17246 0.51289 0.78518 0.0
H3127 H 0.17011 0.52883 0.75302 0.0
H3128 H 0.13667 0.57906 0.83126 0.0
H3129 H 0.13167 0.60913 0.75037 0.0
H3130 H 0.20088 0.55598 0.84062 0.0
H3131 H 0.18457 0.53091 0.82785 0.0
H3132 H 0.16917 0.54912 0.85037 0.0
H3133 H 0.19286 0.59501 0.73894 0.0
H3134 H 0.15981 0.59325 0.72076 0.0
H3135 H 0.18156 0.56642 0.73117 0.0
C3136 C 0.7208 0.77814 0.04062 0.0
C3137 C 0.72573 0.77209 1.01522 0.0
C3138 C 0.72869 0.79963 0.05074 0.0
C3139 C 0.74178 0.81552 0.03506 0.0
C3140 C 0.74808 0.80895 1.01 0.0
C3141 C 0.74004 0.78726 1.0004 0.0
C3142 C 0.7217 0.80592 0.07761 0.0
C3143 C 0.76191 0.82542 0.99262 0.0
C3144 C 0.73085 0.88112 0.04744 0.0
C3145 C 0.75446 0.8848 0.06444 0.0
C3146 C 0.72683 0.85883 0.03716 0.0
C3147 C 0.7469 0.83971 0.04406 0.0
C3148 C 0.77108 0.84346 0.06061 0.0
C3149 C 0.77456 0.86595 0.07064 0.0
C3150 C 0.70074 0.85554 1.01954 0.0
C3151 C 0.79302 0.82358 0.06816 0.0
H3152 H 0.70984 0.76647 0.05222 0.0
H3153 H 0.74377 0.78284 0.98066 0.0
H3154 H 0.7397 0.81113 0.09054 0.0
H3155 H 0.70659 0.8215 0.07482 0.0
H3156 H 0.71341 0.79086 0.08821 0.0
H3157 H 0.76855 0.81641 0.97552 0.0
H3158 H 0.7479 0.8411 0.98452 0.0
H3159 H 0.7796 0.83225 1.00453 0.0
H3160 H 0.71511 0.89549 0.0428 0.0
H3161 H 0.79303 0.86878 0.08343 0.0
H3162 H 0.68959 0.84213 1.02954 0.0
H3163 H 0.70476 0.84859 1.00036 0.0
H3164 H 0.68772 0.87247 1.01508 0.0
H3165 H 0.7856 0.80888 0.08009 0.0
H3166 H 0.81119 0.82974 0.08002 0.0
H3167 H 0.79877 0.81601 0.04988 0.0
C3168 C 0.24618 0.61797 0.96981 0.0
C3169 C 0.26654 0.6147 0.95387 0.0
C3170 C 0.24319 0.63873 0.98352 0.0
C3171 C 0.2609 0.65704 0.98126 0.0
C3172 C 0.2808 0.65437 0.96431 0.0
C3173 C 0.28338 0.63328 0.95083 0.0
C3174 C 0.22193 0.64005 1.00166 0.0
C3175 C 0.30024 0.67326 0.96143 0.0
C3176 C 0.23827 0.71599 1.00817 0.0
C3177 C 0.25096 0.71297 0.03487 0.0
C3178 C 0.24255 0.69864 0.98989 0.0
C3179 C 0.25984 0.67776 0.99849 0.0
C3180 C 0.2739 0.67543 1.02492 0.0
C3181 C 0.26941 0.69302 0.04264 0.0
C3182 C 0.22765 0.70211 0.96172 0.0
C3183 C 0.29245 0.65354 0.0351 0.0
H3184 H 0.23269 0.60401 0.972 0.0
H3185 H 0.29931 0.63096 0.93876 0.0
H3186 H 0.21505 0.65867 1.0047 0.0
H3187 H 0.20425 0.63058 0.9936 0.0
H3188 H 0.23038 0.63105 1.02152 0.0
H3189 H 0.31261 0.6698 0.94542 0.0
H3190 H 0.28932 0.69118 0.9569 0.0
H3191 H 0.31384 0.67377 0.98062 0.0
H3192 H 0.224 0.73127 1.00187 0.0
H3193 H 0.27954 0.69048 0.06311 0.0
H3194 H 0.21618 0.68638 0.95697 0.0
H3195 H 0.2422 0.70349 0.94735 0.0
H3196 H 0.21361 0.71848 0.95859 0.0
H3197 H 0.28048 0.63781 0.03675 0.0
H3198 H 0.30411 0.65559 0.05506 0.0
H3199 H 0.30669 0.6497 1.02087 0.0
C3200 C 0.33952 0.2968 0.49306 0.0
C3201 C 0.33183 0.2902 0.51794 0.0
C3202 C 0.33157 0.31945 0.47986 0.0
C3203 C 0.31543 0.33609 0.4917 0.0
C3204 C 0.30677 0.32929 0.51633 0.0
C3205 C 0.31506 0.30644 0.52916 0.0
C3206 C 0.34124 0.32585 0.45362 0.0
C3207 C 0.28947 0.34643 0.52958 0.0
C3208 C 0.32127 0.40161 0.4704 0.0
C3209 C 0.2989 0.40663 0.45043 0.0
C3210 C 0.32637 0.379 0.48456 0.0
C3211 C 0.30871 0.36086 0.4787 0.0
C3212 C 0.28566 0.36603 0.45915 0.0
C3213 C 0.28105 0.38878 0.44528 0.0
C3214 C 0.35121 0.37428 0.50521 0.0
C3215 C 0.26628 0.34727 0.45226 0.0
H3216 H 0.35242 0.28444 0.48412 0.0
H3217 H 0.3091 0.30162 0.54841 0.0
H3218 H 0.32396 0.33196 0.43801 0.0
H3219 H 0.35436 0.34087 0.45593 0.0
H3220 H 0.35268 0.31057 0.44648 0.0
H3221 H 0.28284 0.33791 0.54767 0.0
H3222 H 0.30086 0.36192 0.53553 0.0
H3223 H 0.27149 0.35351 0.51532 0.0
H3224 H 0.33521 0.41519 0.47461 0.0
H3225 H 0.26367 0.39236 0.42993 0.0
H3226 H 0.36506 0.36046 0.49858 0.0
H3227 H 0.34582 0.36722 0.52454 0.0
H3228 H 0.36206 0.39062 0.50861 0.0
H3229 H 0.27652 0.33235 0.44334 0.0
H3230 H 0.24842 0.35453 0.43787 0.0
H3231 H 0.25943 0.33966 0.47066 0.0
C3232 C 0.81286 0.22863 0.53139 0.0
C3233 C 0.83653 0.23884 0.5412 0.0
C3234 C 0.8046 0.20839 0.54475 0.0
C3235 C 0.8206 0.19782 0.56841 0.0
C3236 C 0.84333 0.2093 0.57964 0.0
C3237 C 0.85101 0.22976 0.56589 0.0
C3238 C 0.78017 0.19702 0.53198 0.0
C3239 C 0.86101 0.19873 0.60477 0.0
C3240 C 0.79161 0.14621 0.605 0.0
C3241 C 0.80227 0.12628 0.59348 0.0
C3242 C 0.79806 0.16957 0.59784 0.0
C3243 C 0.81567 0.17315 0.57877 0.0
C3244 C 0.82717 0.153 0.5678 0.0
C3245 C 0.82037 0.12994 0.57527 0.0
C3246 C 0.78529 0.19049 0.60995 0.0
C3247 C 0.8461 0.15585 0.54747 0.0
H3248 H 0.80191 0.23536 0.51205 0.0
H3249 H 0.86971 0.23721 0.57318 0.0
H3250 H 0.78665 0.18068 0.52264 0.0
H3251 H 0.76759 0.19155 0.54722 0.0
H3252 H 0.76769 0.20927 0.51623 0.0
H3253 H 0.87484 0.21171 0.61343 0.0
H3254 H 0.84875 0.19268 0.62006 0.0
H3255 H 0.87324 0.18284 0.60001 0.0
H3256 H 0.77752 0.14365 0.619 0.0
H3257 H 0.8292 0.11468 0.56667 0.0
H3258 H 0.77116 0.20135 0.59422 0.0
H3259 H 0.80079 0.20227 0.618 0.0
H3260 H 0.77409 0.18468 0.62628 0.0
H3261 H 0.83544 0.16627 0.52926 0.0
H3262 H 0.85416 0.1384 0.54158 0.0
H3263 H 0.86316 0.166 0.55556 0.0
loop_
_geom_bond_atom_site_label_1
_geom_bond_atom_site_label_2
_geom_bond_distance
_geom_bond_site_symmetry_2
_ccdc_geom_bond_type
Tb0 C9 2.764 . S
Tb0 O10 2.325 . S
Tb0 O13 2.303 . S
Tb0 O17 2.322 1_455 S
Tb0 O18 2.349 1_455 S
Tb0 O21 2.415 . S
Tb0 O22 2.399 . S
Tb1 O11 2.322 1_655 S
Tb1 O12 2.349 1_655 S
Tb1 O14 2.415 . S
Tb1 O15 2.399 . S
Tb1 O16 2.325 . S
Tb1 O19 2.303 . S
Tb1 C30 2.764 . S
C2 O18 1.261 . S
C2 O19 1.257 . S
C3 C6 1.358 . S
C3 C7 1.332 . S
C3 C9 1.504 . S
C4 C5 1.373 . S
C4 C8 1.308 . S
C5 C4 1.373 . S
C5 C6 1.429 . S
C5 H32 0.932 . S
C6 C3 1.358 . S
C6 C5 1.429 . S
C6 H33 0.930 . S
C7 C3 1.332 . S
C7 C8 1.394 . S
C7 H34 0.932 . S
C8 C4 1.308 . S
C8 C7 1.394 . S
C8 H35 0.929 . S
C9 Tb0 2.764 . S
C9 C3 1.504 . S
C9 O21 1.239 . S
C9 O22 1.263 . S
O10 Tb0 2.325 . S
O10 C20 1.236 . S
O11 Tb1 2.322 1_455 S
O11 C20 1.257 . S
O12 Tb1 2.349 1_455 S
O12 C23 1.261 . S
O13 Tb0 2.303 . S
O13 C23 1.257 . S
O14 Tb1 2.415 . S
O14 C30 1.239 . S
O15 Tb1 2.399 . S
O15 C30 1.263 . S
O16 Tb1 2.325 . S
O16 C31 1.236 . S
O17 Tb0 2.322 1_655 S
O17 C31 1.257 . S
O18 Tb0 2.349 1_655 S
O18 C2 1.261 . S
O19 Tb1 2.303 . S
O19 C2 1.257 . S
C20 O10 1.236 . S
C20 O11 1.257 . S
O21 Tb0 2.415 . S
O21 C9 1.239 . S
O22 Tb0 2.399 . S
O22 C9 1.263 . S
C23 O12 1.261 . S
C23 O13 1.257 . S
C24 C27 1.358 . S
C24 C28 1.332 . S
C24 C30 1.504 . S
C25 C26 1.373 . S
C25 C29 1.308 . S
C26 C25 1.373 . S
C26 C27 1.429 . S
C26 H36 0.932 . S
C27 C24 1.358 . S
C27 C26 1.429 . S
C27 H37 0.930 . S
C28 C24 1.332 . S
C28 C29 1.394 . S
C28 H38 0.932 . S
C29 C25 1.308 . S
C29 C28 1.394 . S
C29 H39 0.929 . S
C30 Tb1 2.764 . S
C30 O14 1.239 . S
C30 O15 1.263 . S
C30 C24 1.504 . S
C31 O16 1.236 . S
C31 O17 1.257 . S
H32 C5 0.932 . S
H33 C6 0.930 . S
H34 C7 0.932 . S
H35 C8 0.929 . S
H36 C26 0.932 . S
H37 C27 0.930 . S
H38 C28 0.932 . S
H39 C29 0.929 . S
Tb40 C49 2.764 . S
Tb40 O50 2.325 . S
Tb40 O53 2.303 . S
Tb40 O57 2.322 . S
Tb40 O58 2.349 . S
Tb40 O61 2.415 . S
Tb40 O62 2.399 . S
Tb41 O51 2.322 . S
Tb41 O52 2.349 . S
Tb41 O54 2.415 . S
Tb41 O55 2.399 . S
Tb41 O56 2.325 . S
Tb41 O59 2.303 . S
Tb41 C70 2.764 . S
C42 O58 1.261 . S
C42 O59 1.257 . S
C43 C46 1.358 . S
C43 C47 1.332 . S
C43 C49 1.504 . S
C44 C45 1.373 . S
C44 C48 1.308 . S
C45 C44 1.373 . S
C45 C46 1.429 . S
C45 H72 0.932 . S
C46 C43 1.358 . S
C46 C45 1.429 . S
C46 H73 0.930 . S
C47 C43 1.332 . S
C47 C48 1.394 . S
C47 H74 0.932 . S
C48 C44 1.308 . S
C48 C47 1.394 . S
C48 H75 0.929 . S
C49 Tb40 2.764 . S
C49 C43 1.504 . S
C49 O61 1.239 . S
C49 O62 1.263 . S
O50 Tb40 2.325 . S
O50 C60 1.236 . S
O51 Tb41 2.322 . S
O51 C60 1.257 . S
O52 Tb41 2.349 . S
O52 C63 1.261 . S
O53 Tb40 2.303 . S
O53 C63 1.257 . S
O54 Tb41 2.415 . S
O54 C70 1.239 . S
O55 Tb41 2.399 . S
O55 C70 1.263 . S
O56 Tb41 2.325 . S
O56 C71 1.236 . S
O57 Tb40 2.322 . S
O57 C71 1.257 . S
O58 Tb40 2.349 . S
O58 C42 1.261 . S
O59 Tb41 2.303 . S
O59 C42 1.257 . S
C60 O50 1.236 . S
C60 O51 1.257 . S
O61 Tb40 2.415 . S
O61 C49 1.239 . S
O62 Tb40 2.399 . S
O62 C49 1.263 . S
C63 O52 1.261 . S
C63 O53 1.257 . S
C64 C67 1.358 . S
C64 C68 1.332 . S
C64 C70 1.504 . S
C65 C66 1.373 . S
C65 C69 1.308 . S
C66 C65 1.373 . S
C66 C67 1.429 . S
C66 H76 0.932 . S
C67 C64 1.358 . S
C67 C66 1.429 . S
C67 H77 0.930 . S
C68 C64 1.332 . S
C68 C69 1.394 . S
C68 H78 0.932 . S
C69 C65 1.308 . S
C69 C68 1.394 . S
C69 H79 0.929 . S
C70 Tb41 2.764 . S
C70 O54 1.239 . S
C70 O55 1.263 . S
C70 C64 1.504 . S
C71 O56 1.236 . S
C71 O57 1.257 . S
H72 C45 0.932 . S
H73 C46 0.930 . S
H74 C47 0.932 . S
H75 C48 0.929 . S
H76 C66 0.932 . S
H77 C67 0.930 . S
H78 C68 0.932 . S
H79 C69 0.929 . S
Tb80 C89 2.764 . S
Tb80 O90 2.325 . S
Tb80 O93 2.303 . S
Tb80 O97 2.322 . S
Tb80 O98 2.349 . S
Tb80 O101 2.415 . S
Tb80 O102 2.399 . S
Tb81 O91 2.322 . S
Tb81 O92 2.349 . S
Tb81 O94 2.415 . S
Tb81 O95 2.399 . S
Tb81 O96 2.325 . S
Tb81 O99 2.303 . S
Tb81 C110 2.764 . S
C82 O98 1.261 . S
C82 O99 1.257 . S
C83 C86 1.358 . S
C83 C87 1.332 . S
C83 C89 1.504 . S
C84 C85 1.373 . S
C84 C88 1.308 . S
C85 C84 1.373 . S
C85 C86 1.429 . S
C85 H112 0.932 . S
C86 C83 1.358 . S
C86 C85 1.429 . S
C86 H113 0.930 . S
C87 C83 1.332 . S
C87 C88 1.394 . S
C87 H114 0.932 . S
C88 C84 1.308 . S
C88 C87 1.394 . S
C88 H115 0.929 . S
C89 Tb80 2.764 . S
C89 C83 1.504 . S
C89 O101 1.239 . S
C89 O102 1.263 . S
O90 Tb80 2.325 . S
O90 C100 1.236 . S
O91 Tb81 2.322 . S
O91 C100 1.257 . S
O92 Tb81 2.349 . S
O92 C103 1.261 . S
O93 Tb80 2.303 . S
O93 C103 1.257 . S
O94 Tb81 2.415 . S
O94 C110 1.239 . S
O95 Tb81 2.399 . S
O95 C110 1.263 . S
O96 Tb81 2.325 . S
O96 C111 1.236 . S
O97 Tb80 2.322 . S
O97 C111 1.257 . S
O98 Tb80 2.349 . S
O98 C82 1.261 . S
O99 Tb81 2.303 . S
O99 C82 1.257 . S
C100 O90 1.236 . S
C100 O91 1.257 . S
O101 Tb80 2.415 . S
O101 C89 1.239 . S
O102 Tb80 2.399 . S
O102 C89 1.263 . S
C103 O92 1.261 . S
C103 O93 1.257 . S
C104 C107 1.358 . S
C104 C108 1.332 . S
C104 C110 1.504 . S
C105 C106 1.373 . S
C105 C109 1.308 . S
C106 C105 1.373 . S
C106 C107 1.429 . S
C106 H116 0.932 . S
C107 C104 1.358 . S
C107 C106 1.429 . S
C107 H117 0.930 . S
C108 C104 1.332 . S
C108 C109 1.394 . S
C108 H118 0.932 . S
C109 C105 1.308 . S
C109 C108 1.394 . S
C109 H119 0.929 . S
C110 Tb81 2.764 . S
C110 O94 1.239 . S
C110 O95 1.263 . S
C110 C104 1.504 . S
C111 O96 1.236 . S
C111 O97 1.257 . S
H112 C85 0.932 . S
H113 C86 0.930 . S
H114 C87 0.932 . S
H115 C88 0.929 . S
H116 C106 0.932 . S
H117 C107 0.930 . S
H118 C108 0.932 . S
H119 C109 0.929 . S
Tb120 C129 2.764 . S
Tb120 O130 2.325 . S
Tb120 O133 2.303 . S
Tb120 O137 2.322 1_655 S
Tb120 O138 2.349 1_655 S
Tb120 O141 2.415 . S
Tb120 O142 2.399 . S
Tb121 O131 2.322 1_455 S
Tb121 O132 2.349 1_455 S
Tb121 O134 2.415 . S
Tb121 O135 2.399 . S
Tb121 O136 2.325 . S
Tb121 O139 2.303 . S
Tb121 C150 2.764 . S
C122 O138 1.261 . S
C122 O139 1.257 . S
C123 C126 1.358 . S
C123 C127 1.332 . S
C123 C129 1.504 . S
C124 C125 1.373 . S
C124 C128 1.308 . S
C125 C124 1.373 . S
C125 C126 1.429 . S
C125 H152 0.932 . S
C126 C123 1.358 . S
C126 C125 1.429 . S
C126 H153 0.930 . S
C127 C123 1.332 . S
C127 C128 1.394 . S
C127 H154 0.932 . S
C128 C124 1.308 . S
C128 C127 1.394 . S
C128 H155 0.929 . S
C129 Tb120 2.764 . S
C129 C123 1.504 . S
C129 O141 1.239 . S
C129 O142 1.263 . S
O130 Tb120 2.325 . S
O130 C140 1.236 . S
O131 Tb121 2.322 1_655 S
O131 C140 1.257 . S
O132 Tb121 2.349 1_655 S
O132 C143 1.261 . S
O133 Tb120 2.303 . S
O133 C143 1.257 . S
O134 Tb121 2.415 . S
O134 C150 1.239 . S
O135 Tb121 2.399 . S
O135 C150 1.263 . S
O136 Tb121 2.325 . S
O136 C151 1.236 . S
O137 Tb120 2.322 1_455 S
O137 C151 1.257 . S
O138 Tb120 2.349 1_455 S
O138 C122 1.261 . S
O139 Tb121 2.303 . S
O139 C122 1.257 . S
C140 O130 1.236 . S
C140 O131 1.257 . S
O141 Tb120 2.415 . S
O141 C129 1.239 . S
O142 Tb120 2.399 . S
O142 C129 1.263 . S
C143 O132 1.261 . S
C143 O133 1.257 . S
C144 C147 1.358 . S
C144 C148 1.332 . S
C144 C150 1.504 . S
C145 C146 1.373 . S
C145 C149 1.308 . S
C146 C145 1.373 . S
C146 C147 1.429 . S
C146 H156 0.932 . S
C147 C144 1.358 . S
C147 C146 1.429 . S
C147 H157 0.930 . S
C148 C144 1.332 . S
C148 C149 1.394 . S
C148 H158 0.932 . S
C149 C145 1.308 . S
C149 C148 1.394 . S
C149 H159 0.929 . S
C150 Tb121 2.764 . S
C150 O134 1.239 . S
C150 O135 1.263 . S
C150 C144 1.504 . S
C151 O136 1.236 . S
C151 O137 1.257 . S
H152 C125 0.932 . S
H153 C126 0.930 . S
H154 C127 0.932 . S
H155 C128 0.929 . S
H156 C146 0.932 . S
H157 C147 0.930 . S
H158 C148 0.932 . S
H159 C149 0.929 . S
Tb160 C169 2.764 . S
Tb160 O170 2.325 . S
Tb160 O173 2.303 . S
Tb160 O177 2.322 1_545 S
Tb160 O178 2.349 1_545 S
Tb160 O181 2.415 . S
Tb160 O182 2.399 . S
Tb161 O171 2.322 1_565 S
Tb161 O172 2.349 1_565 S
Tb161 O174 2.415 . S
Tb161 O175 2.399 . S
Tb161 O176 2.325 . S
Tb161 O179 2.303 . S
Tb161 C190 2.764 . S
C162 O178 1.261 . S
C162 O179 1.257 . S
C163 C166 1.358 . S
C163 C167 1.332 . S
C163 C169 1.504 . S
C164 C165 1.373 . S
C164 C168 1.308 . S
C165 C164 1.373 . S
C165 C166 1.429 . S
C165 H192 0.932 . S
C166 C163 1.358 . S
C166 C165 1.429 . S
C166 H193 0.930 . S
C167 C163 1.332 . S
C167 C168 1.394 . S
C167 H194 0.932 . S
C168 C164 1.308 . S
C168 C167 1.394 . S
C168 H195 0.929 . S
C169 Tb160 2.764 . S
C169 C163 1.504 . S
C169 O181 1.239 . S
C169 O182 1.263 . S
O170 Tb160 2.325 . S
O170 C180 1.236 . S
O171 Tb161 2.322 1_545 S
O171 C180 1.257 . S
O172 Tb161 2.349 1_545 S
O172 C183 1.261 . S
O173 Tb160 2.303 . S
O173 C183 1.257 . S
O174 Tb161 2.415 . S
O174 C190 1.239 . S
O175 Tb161 2.399 . S
O175 C190 1.263 . S
O176 Tb161 2.325 . S
O176 C191 1.236 . S
O177 Tb160 2.322 1_565 S
O177 C191 1.257 . S
O178 Tb160 2.349 1_565 S
O178 C162 1.261 . S
O179 Tb161 2.303 . S
O179 C162 1.257 . S
C180 O170 1.236 . S
C180 O171 1.257 . S
O181 Tb160 2.415 . S
O181 C169 1.239 . S
O182 Tb160 2.399 . S
O182 C169 1.263 . S
C183 O172 1.261 . S
C183 O173 1.257 . S
C184 C187 1.358 . S
C184 C188 1.332 . S
C184 C190 1.504 . S
C185 C186 1.373 . S
C185 C189 1.308 . S
C186 C185 1.373 . S
C186 C187 1.429 . S
C186 H196 0.932 . S
C187 C184 1.358 . S
C187 C186 1.429 . S
C187 H197 0.930 . S
C188 C184 1.332 . S
C188 C189 1.394 . S
C188 H198 0.932 . S
C189 C185 1.308 . S
C189 C188 1.394 . S
C189 H199 0.929 . S
C190 Tb161 2.764 . S
C190 O174 1.239 . S
C190 O175 1.263 . S
C190 C184 1.504 . S
C191 O176 1.236 . S
C191 O177 1.257 . S
H192 C165 0.932 . S
H193 C166 0.930 . S
H194 C167 0.932 . S
H195 C168 0.929 . S
H196 C186 0.932 . S
H197 C187 0.930 . S
H198 C188 0.932 . S
H199 C189 0.929 . S
Tb200 C209 2.764 . S
Tb200 O210 2.325 . S
Tb200 O213 2.303 . S
Tb200 O217 2.322 1_565 S
Tb200 O218 2.349 1_565 S
Tb200 O221 2.415 . S
Tb200 O222 2.399 . S
Tb201 O211 2.322 1_545 S
Tb201 O212 2.349 1_545 S
Tb201 O214 2.415 . S
Tb201 O215 2.399 . S
Tb201 O216 2.325 . S
Tb201 O219 2.303 . S
Tb201 C230 2.764 . S
C202 O218 1.261 . S
C202 O219 1.257 . S
C203 C206 1.358 . S
C203 C207 1.332 . S
C203 C209 1.504 . S
C204 C205 1.373 . S
C204 C208 1.308 . S
C205 C204 1.373 . S
C205 C206 1.429 . S
C205 H232 0.932 . S
C206 C203 1.358 . S
C206 C205 1.429 . S
C206 H233 0.930 . S
C207 C203 1.332 . S
C207 C208 1.394 . S
C207 H234 0.932 . S
C208 C204 1.308 . S
C208 C207 1.394 . S
C208 H235 0.929 . S
C209 Tb200 2.764 . S
C209 C203 1.504 . S
C209 O221 1.239 . S
C209 O222 1.263 . S
O210 Tb200 2.325 . S
O210 C220 1.236 . S
O211 Tb201 2.322 1_565 S
O211 C220 1.257 . S
O212 Tb201 2.349 1_565 S
O212 C223 1.261 . S
O213 Tb200 2.303 . S
O213 C223 1.257 . S
O214 Tb201 2.415 . S
O214 C230 1.239 . S
O215 Tb201 2.399 . S
O215 C230 1.263 . S
O216 Tb201 2.325 . S
O216 C231 1.236 . S
O217 Tb200 2.322 1_545 S
O217 C231 1.257 . S
O218 Tb200 2.349 1_545 S
O218 C202 1.261 . S
O219 Tb201 2.303 . S
O219 C202 1.257 . S
C220 O210 1.236 . S
C220 O211 1.257 . S
O221 Tb200 2.415 . S
O221 C209 1.239 . S
O222 Tb200 2.399 . S
O222 C209 1.263 . S
C223 O212 1.261 . S
C223 O213 1.257 . S
C224 C227 1.358 . S
C224 C228 1.332 . S
C224 C230 1.504 . S
C225 C226 1.373 . S
C225 C229 1.308 . S
C226 C225 1.373 . S
C226 C227 1.429 . S
C226 H236 0.932 . S
C227 C224 1.358 . S
C227 C226 1.429 . S
C227 H237 0.930 . S
C228 C224 1.332 . S
C228 C229 1.394 . S
C228 H238 0.932 . S
C229 C225 1.308 . S
C229 C228 1.394 . S
C229 H239 0.929 . S
C230 Tb201 2.764 . S
C230 O214 1.239 . S
C230 O215 1.263 . S
C230 C224 1.504 . S
C231 O216 1.236 . S
C231 O217 1.257 . S
H232 C205 0.932 . S
H233 C206 0.930 . S
H234 C207 0.932 . S
H235 C208 0.929 . S
H236 C226 0.932 . S
H237 C227 0.930 . S
H238 C228 0.932 . S
H239 C229 0.929 . S
Tb240 C249 2.764 . S
Tb240 O250 2.325 . S
Tb240 O253 2.303 . S
Tb240 O257 2.322 . S
Tb240 O258 2.349 . S
Tb240 O261 2.415 . S
Tb240 O262 2.399 . S
Tb241 O251 2.322 . S
Tb241 O252 2.349 . S
Tb241 O254 2.415 . S
Tb241 O255 2.399 . S
Tb241 O256 2.325 . S
Tb241 O259 2.303 . S
Tb241 C270 2.764 . S
C242 O258 1.261 . S
C242 O259 1.257 . S
C243 C246 1.358 . S
C243 C247 1.332 . S
C243 C249 1.504 . S
C244 C245 1.373 . S
C244 C248 1.308 . S
C245 C244 1.373 . S
C245 C246 1.429 . S
C245 H272 0.932 . S
C246 C243 1.358 . S
C246 C245 1.429 . S
C246 H273 0.930 . S
C247 C243 1.332 . S
C247 C248 1.394 . S
C247 H274 0.932 . S
C248 C244 1.308 . S
C248 C247 1.394 . S
C248 H275 0.929 . S
C249 Tb240 2.764 . S
C249 C243 1.504 . S
C249 O261 1.239 . S
C249 O262 1.263 . S
O250 Tb240 2.325 . S
O250 C260 1.236 . S
O251 Tb241 2.322 . S
O251 C260 1.257 . S
O252 Tb241 2.349 . S
O252 C263 1.261 . S
O253 Tb240 2.303 . S
O253 C263 1.257 . S
O254 Tb241 2.415 . S
O254 C270 1.239 . S
O255 Tb241 2.399 . S
O255 C270 1.263 . S
O256 Tb241 2.325 . S
O256 C271 1.236 . S
O257 Tb240 2.322 . S
O257 C271 1.257 . S
O258 Tb240 2.349 . S
O258 C242 1.261 . S
O259 Tb241 2.303 . S
O259 C242 1.257 . S
C260 O250 1.236 . S
C260 O251 1.257 . S
O261 Tb240 2.415 . S
O261 C249 1.239 . S
O262 Tb240 2.399 . S
O262 C249 1.263 . S
C263 O252 1.261 . S
C263 O253 1.257 . S
C264 C267 1.358 . S
C264 C268 1.332 . S
C264 C270 1.504 . S
C265 C266 1.373 . S
C265 C269 1.308 . S
C266 C265 1.373 . S
C266 C267 1.429 . S
C266 H276 0.932 . S
C267 C264 1.358 . S
C267 C266 1.429 . S
C267 H277 0.930 . S
C268 C264 1.332 . S
C268 C269 1.394 . S
C268 H278 0.932 . S
C269 C265 1.308 . S
C269 C268 1.394 . S
C269 H279 0.929 . S
C270 Tb241 2.764 . S
C270 O254 1.239 . S
C270 O255 1.263 . S
C270 C264 1.504 . S
C271 O256 1.236 . S
C271 O257 1.257 . S
H272 C245 0.932 . S
H273 C246 0.930 . S
H274 C247 0.932 . S
H275 C248 0.929 . S
H276 C266 0.932 . S
H277 C267 0.930 . S
H278 C268 0.932 . S
H279 C269 0.929 . S
Tb280 C289 2.764 . S
Tb280 O290 2.325 . S
Tb280 O293 2.303 . S
Tb280 O297 2.322 . S
Tb280 O298 2.349 . S
Tb280 O301 2.415 . S
Tb280 O302 2.399 . S
Tb281 O291 2.322 . S
Tb281 O292 2.349 . S
Tb281 O294 2.415 . S
Tb281 O295 2.399 . S
Tb281 O296 2.325 . S
Tb281 O299 2.303 . S
Tb281 C310 2.764 . S
C282 O298 1.261 . S
C282 O299 1.257 . S
C283 C286 1.358 . S
C283 C287 1.332 . S
C283 C289 1.504 . S
C284 C285 1.373 . S
C284 C288 1.308 . S
C285 C284 1.373 . S
C285 C286 1.429 . S
C285 H312 0.932 . S
C286 C283 1.358 . S
C286 C285 1.429 . S
C286 H313 0.930 . S
C287 C283 1.332 . S
C287 C288 1.394 . S
C287 H314 0.932 . S
C288 C284 1.308 . S
C288 C287 1.394 . S
C288 H315 0.929 . S
C289 Tb280 2.764 . S
C289 C283 1.504 . S
C289 O301 1.239 . S
C289 O302 1.263 . S
O290 Tb280 2.325 . S
O290 C300 1.236 . S
O291 Tb281 2.322 . S
O291 C300 1.257 . S
O292 Tb281 2.349 . S
O292 C303 1.261 . S
O293 Tb280 2.303 . S
O293 C303 1.257 . S
O294 Tb281 2.415 . S
O294 C310 1.239 . S
O295 Tb281 2.399 . S
O295 C310 1.263 . S
O296 Tb281 2.325 . S
O296 C311 1.236 . S
O297 Tb280 2.322 . S
O297 C311 1.257 . S
O298 Tb280 2.349 . S
O298 C282 1.261 . S
O299 Tb281 2.303 . S
O299 C282 1.257 . S
C300 O290 1.236 . S
C300 O291 1.257 . S
O301 Tb280 2.415 . S
O301 C289 1.239 . S
O302 Tb280 2.399 . S
O302 C289 1.263 . S
C303 O292 1.261 . S
C303 O293 1.257 . S
C304 C307 1.358 . S
C304 C308 1.332 . S
C304 C310 1.504 . S
C305 C306 1.373 . S
C305 C309 1.308 . S
C306 C305 1.373 . S
C306 C307 1.429 . S
C306 H316 0.932 . S
C307 C304 1.358 . S
C307 C306 1.429 . S
C307 H317 0.930 . S
C308 C304 1.332 . S
C308 C309 1.394 . S
C308 H318 0.932 . S
C309 C305 1.308 . S
C309 C308 1.394 . S
C309 H319 0.929 . S
C310 Tb281 2.764 . S
C310 O294 1.239 . S
C310 O295 1.263 . S
C310 C304 1.504 . S
C311 O296 1.236 . S
C311 O297 1.257 . S
H312 C285 0.932 . S
H313 C286 0.930 . S
H314 C287 0.932 . S
H315 C288 0.929 . S
H316 C306 0.932 . S
H317 C307 0.930 . S
H318 C308 0.932 . S
H319 C309 0.929 . S
Tb320 C329 2.764 . S
Tb320 O330 2.325 . S
Tb320 O333 2.303 . S
Tb320 O337 2.322 . S
Tb320 O338 2.349 . S
Tb320 O341 2.415 . S
Tb320 O342 2.399 . S
Tb321 O331 2.322 . S
Tb321 O332 2.349 . S
Tb321 O334 2.415 1_554 S
Tb321 O335 2.399 . S
Tb321 O336 2.325 . S
Tb321 O339 2.303 . S
Tb321 C350 2.764 1_554 S
C322 O338 1.261 . S
C322 O339 1.257 . S
C323 C326 1.358 . S
C323 C327 1.332 . S
C323 C329 1.504 . S
C324 C325 1.373 . S
C324 C328 1.308 . S
C325 C324 1.373 . S
C325 C326 1.429 . S
C325 H352 0.932 . S
C326 C323 1.358 . S
C326 C325 1.429 . S
C326 H353 0.930 . S
C327 C323 1.332 . S
C327 C328 1.394 . S
C327 H354 0.932 . S
C328 C324 1.308 . S
C328 C327 1.394 . S
C328 H355 0.929 . S
C329 Tb320 2.764 . S
C329 C323 1.504 . S
C329 O341 1.239 . S
C329 O342 1.263 . S
O330 Tb320 2.325 . S
O330 C340 1.236 . S
O331 Tb321 2.322 . S
O331 C340 1.257 . S
O332 Tb321 2.349 . S
O332 C343 1.261 . S
O333 Tb320 2.303 . S
O333 C343 1.257 . S
O334 Tb321 2.415 1_556 S
O334 C350 1.239 . S
O335 Tb321 2.399 . S
O335 C350 1.263 1_554 S
O336 Tb321 2.325 . S
O336 C351 1.231 1_554 S
O337 Tb320 2.322 . S
O337 C351 1.235 1_554 S
O338 Tb320 2.349 . S
O338 C322 1.261 . S
O339 Tb321 2.303 . S
O339 C322 1.257 . S
C340 O330 1.236 . S
C340 O331 1.257 . S
O341 Tb320 2.415 . S
O341 C329 1.239 . S
O342 Tb320 2.399 . S
O342 C329 1.263 . S
C343 O332 1.261 . S
C343 O333 1.257 . S
C344 C347 1.358 . S
C344 C348 1.332 . S
C344 C350 1.504 . S
C345 C346 1.373 . S
C345 C349 1.308 . S
C346 C345 1.373 . S
C346 C347 1.429 . S
C346 H356 0.932 . S
C347 C344 1.358 . S
C347 C346 1.429 . S
C347 H357 0.930 . S
C348 C344 1.332 . S
C348 C349 1.394 . S
C348 H358 0.932 . S
C349 C345 1.308 . S
C349 C348 1.394 . S
C349 H359 0.929 . S
C350 Tb321 2.764 1_556 S
C350 O334 1.239 . S
C350 O335 1.263 1_556 S
C350 C344 1.504 . S
C351 O336 1.231 1_556 S
C351 O337 1.235 1_556 S
H352 C325 0.932 . S
H353 C326 0.930 . S
H354 C327 0.932 . S
H355 C328 0.929 . S
H356 C346 0.932 . S
H357 C347 0.930 . S
H358 C348 0.932 . S
H359 C349 0.929 . S
Tb360 C369 2.764 . S
Tb360 O370 2.325 . S
Tb360 O373 2.303 . S
Tb360 O377 2.322 . S
Tb360 O378 2.349 . S
Tb360 O381 2.415 . S
Tb360 O382 2.399 . S
Tb361 O371 2.322 . S
Tb361 O372 2.349 . S
Tb361 O374 2.415 . S
Tb361 O375 2.399 . S
Tb361 O376 2.325 . S
Tb361 O379 2.303 . S
Tb361 C390 2.764 . S
C362 O378 1.261 . S
C362 O379 1.257 . S
C363 C366 1.358 . S
C363 C367 1.332 . S
C363 C369 1.504 1_554 S
C364 C365 1.373 . S
C364 C368 1.308 . S
C365 C364 1.373 . S
C365 C366 1.429 . S
C365 H392 0.932 . S
C366 C363 1.358 . S
C366 C365 1.429 . S
C366 H393 0.930 . S
C367 C363 1.332 . S
C367 C368 1.394 . S
C367 H394 0.932 . S
C368 C364 1.308 . S
C368 C367 1.394 . S
C368 H395 0.929 . S
C369 Tb360 2.764 . S
C369 C363 1.504 1_556 S
C369 O381 1.239 . S
C369 O382 1.263 . S
O370 Tb360 2.325 . S
O370 C380 1.236 . S
O371 Tb361 2.322 . S
O371 C380 1.257 . S
O372 Tb361 2.349 . S
O372 C383 1.261 . S
O373 Tb360 2.303 . S
O373 C383 1.257 . S
O374 Tb361 2.415 . S
O374 C390 1.239 . S
O375 Tb361 2.399 . S
O375 C390 1.263 . S
O376 Tb361 2.325 . S
O376 C391 1.236 . S
O377 Tb360 2.322 . S
O377 C391 1.257 . S
O378 Tb360 2.349 . S
O378 C362 1.261 . S
O379 Tb361 2.303 . S
O379 C362 1.257 . S
C380 O370 1.236 . S
C380 O371 1.257 . S
O381 Tb360 2.415 . S
O381 C369 1.239 . S
O382 Tb360 2.399 . S
O382 C369 1.263 . S
C383 O372 1.261 . S
C383 O373 1.257 . S
C384 C387 1.358 . S
C384 C388 1.332 . S
C384 C390 1.504 . S
C385 C386 1.373 . S
C385 C389 1.308 . S
C386 C385 1.373 . S
C386 C387 1.429 . S
C386 H396 0.932 . S
C387 C384 1.358 . S
C387 C386 1.429 . S
C387 H397 0.930 . S
C388 C384 1.332 . S
C388 C389 1.394 . S
C388 H398 0.932 . S
C389 C385 1.308 . S
C389 C388 1.394 . S
C389 H399 0.929 . S
C390 Tb361 2.764 . S
C390 O374 1.239 . S
C390 O375 1.263 . S
C390 C384 1.504 . S
C391 O376 1.236 . S
C391 O377 1.257 . S
H392 C365 0.932 . S
H393 C366 0.930 . S
H394 C367 0.932 . S
H395 C368 0.929 . S
H396 C386 0.932 . S
H397 C387 0.930 . S
H398 C388 0.932 . S
H399 C389 0.929 . S
Tb400 C409 2.764 . S
Tb400 O410 2.325 . S
Tb400 O413 2.303 . S
Tb400 O417 2.322 . S
Tb400 O418 2.349 . S
Tb400 O421 2.415 . S
Tb400 O422 2.399 . S
Tb401 O411 2.322 . S
Tb401 O412 2.349 . S
Tb401 O414 2.415 . S
Tb401 O415 2.399 . S
Tb401 O416 2.325 . S
Tb401 O419 2.303 . S
Tb401 C430 2.764 . S
C402 O418 1.261 . S
C402 O419 1.257 . S
C403 C406 1.358 . S
C403 C407 1.332 . S
C403 C409 1.504 . S
C404 C405 1.373 . S
C404 C408 1.308 . S
C405 C404 1.373 . S
C405 C406 1.429 . S
C405 H432 0.932 . S
C406 C403 1.358 . S
C406 C405 1.429 . S
C406 H433 0.930 . S
C407 C403 1.332 . S
C407 C408 1.394 . S
C407 H434 0.932 . S
C408 C404 1.308 . S
C408 C407 1.394 . S
C408 H435 0.929 . S
C409 Tb400 2.764 . S
C409 C403 1.504 . S
C409 O421 1.239 . S
C409 O422 1.263 . S
O410 Tb400 2.325 . S
O410 C420 1.236 . S
O411 Tb401 2.322 . S
O411 C420 1.257 . S
O412 Tb401 2.349 . S
O412 C423 1.261 . S
O413 Tb400 2.303 . S
O413 C423 1.257 . S
O414 Tb401 2.415 . S
O414 C430 1.239 . S
O415 Tb401 2.399 . S
O415 C430 1.263 . S
O416 Tb401 2.325 . S
O416 C431 1.236 . S
O417 Tb400 2.322 . S
O417 C431 1.257 . S
O418 Tb400 2.349 . S
O418 C402 1.261 . S
O419 Tb401 2.303 . S
O419 C402 1.257 . S
C420 O410 1.236 . S
C420 O411 1.257 . S
O421 Tb400 2.415 . S
O421 C409 1.239 . S
O422 Tb400 2.399 . S
O422 C409 1.263 . S
C423 O412 1.261 . S
C423 O413 1.257 . S
C424 C427 1.358 . S
C424 C428 1.332 . S
C424 C430 1.504 . S
C425 C426 1.373 . S
C425 C429 1.308 . S
C426 C425 1.373 . S
C426 C427 1.429 . S
C426 H436 0.932 . S
C427 C424 1.358 . S
C427 C426 1.429 . S
C427 H437 0.930 . S
C428 C424 1.332 . S
C428 C429 1.394 . S
C428 H438 0.932 . S
C429 C425 1.308 . S
C429 C428 1.394 . S
C429 H439 0.929 . S
C430 Tb401 2.764 . S
C430 O414 1.239 . S
C430 O415 1.263 . S
C430 C424 1.504 . S
C431 O416 1.236 . S
C431 O417 1.257 . S
H432 C405 0.932 . S
H433 C406 0.930 . S
H434 C407 0.932 . S
H435 C408 0.929 . S
H436 C426 0.932 . S
H437 C427 0.930 . S
H438 C428 0.932 . S
H439 C429 0.929 . S
Tb440 C449 2.764 . S
Tb440 O450 2.325 . S
Tb440 O453 2.303 . S
Tb440 O457 2.322 . S
Tb440 O458 2.349 . S
Tb440 O461 2.415 . S
Tb440 O462 2.399 . S
Tb441 O451 2.322 . S
Tb441 O452 2.349 . S
Tb441 O454 2.415 . S
Tb441 O455 2.399 . S
Tb441 O456 2.325 . S
Tb441 O459 2.303 . S
Tb441 C470 2.764 . S
C442 O458 1.261 . S
C442 O459 1.257 . S
C443 C446 1.358 . S
C443 C447 1.332 . S
C443 C449 1.504 . S
C444 C445 1.373 . S
C444 C448 1.308 . S
C445 C444 1.373 . S
C445 C446 1.429 . S
C445 H472 0.932 . S
C446 C443 1.358 . S
C446 C445 1.429 . S
C446 H473 0.930 . S
C447 C443 1.332 . S
C447 C448 1.394 . S
C447 H474 0.932 . S
C448 C444 1.308 . S
C448 C447 1.394 . S
C448 H475 0.929 . S
C449 Tb440 2.764 . S
C449 C443 1.504 . S
C449 O461 1.239 . S
C449 O462 1.263 . S
O450 Tb440 2.325 . S
O450 C460 1.236 . S
O451 Tb441 2.322 . S
O451 C460 1.257 . S
O452 Tb441 2.349 . S
O452 C463 1.261 . S
O453 Tb440 2.303 . S
O453 C463 1.257 . S
O454 Tb441 2.415 . S
O454 C470 1.239 . S
O455 Tb441 2.399 . S
O455 C470 1.263 . S
O456 Tb441 2.325 . S
O456 C471 1.236 . S
O457 Tb440 2.322 . S
O457 C471 1.257 . S
O458 Tb440 2.349 . S
O458 C442 1.261 . S
O459 Tb441 2.303 . S
O459 C442 1.257 . S
C460 O450 1.236 . S
C460 O451 1.257 . S
O461 Tb440 2.415 . S
O461 C449 1.239 . S
O462 Tb440 2.399 . S
O462 C449 1.263 . S
C463 O452 1.261 . S
C463 O453 1.257 . S
C464 C467 1.358 . S
C464 C468 1.332 . S
C464 C470 1.504 . S
C465 C466 1.373 . S
C465 C469 1.308 . S
C466 C465 1.373 . S
C466 C467 1.429 . S
C466 H476 0.932 . S
C467 C464 1.358 . S
C467 C466 1.429 . S
C467 H477 0.930 . S
C468 C464 1.332 . S
C468 C469 1.394 . S
C468 H478 0.932 . S
C469 C465 1.308 . S
C469 C468 1.394 . S
C469 H479 0.929 . S
C470 Tb441 2.764 . S
C470 O454 1.239 . S
C470 O455 1.263 . S
C470 C464 1.504 . S
C471 O456 1.236 . S
C471 O457 1.257 . S
H472 C445 0.932 . S
H473 C446 0.930 . S
H474 C447 0.932 . S
H475 C448 0.929 . S
H476 C466 0.932 . S
H477 C467 0.930 . S
H478 C468 0.932 . S
H479 C469 0.929 . S
Tb480 C489 2.764 . S
Tb480 O490 2.325 . S
Tb480 O493 2.303 . S
Tb480 O497 2.322 1_455 S
Tb480 O498 2.349 1_455 S
Tb480 O501 2.415 . S
Tb480 O502 2.399 . S
Tb481 O491 2.322 1_655 S
Tb481 O492 2.349 1_655 S
Tb481 O494 2.415 . S
Tb481 O495 2.399 . S
Tb481 O496 2.325 . S
Tb481 O499 2.303 . S
Tb481 C510 2.764 . S
C482 O498 1.261 . S
C482 O499 1.257 . S
C483 C486 1.358 . S
C483 C487 1.332 . S
C483 C489 1.504 . S
C484 C485 1.373 . S
C484 C488 1.308 . S
C485 C484 1.373 . S
C485 C486 1.429 . S
C485 H512 0.932 . S
C486 C483 1.358 . S
C486 C485 1.429 . S
C486 H513 0.930 . S
C487 C483 1.332 . S
C487 C488 1.394 . S
C487 H514 0.932 . S
C488 C484 1.308 . S
C488 C487 1.394 . S
C488 H515 0.929 . S
C489 Tb480 2.764 . S
C489 C483 1.504 . S
C489 O501 1.239 . S
C489 O502 1.263 . S
O490 Tb480 2.325 . S
O490 C500 1.236 . S
O491 Tb481 2.322 1_455 S
O491 C500 1.257 . S
O492 Tb481 2.349 1_455 S
O492 C503 1.261 . S
O493 Tb480 2.303 . S
O493 C503 1.257 . S
O494 Tb481 2.415 . S
O494 C510 1.239 . S
O495 Tb481 2.399 . S
O495 C510 1.263 . S
O496 Tb481 2.325 . S
O496 C511 1.236 . S
O497 Tb480 2.322 1_655 S
O497 C511 1.257 . S
O498 Tb480 2.349 1_655 S
O498 C482 1.261 . S
O499 Tb481 2.303 . S
O499 C482 1.257 . S
C500 O490 1.236 . S
C500 O491 1.257 . S
O501 Tb480 2.415 . S
O501 C489 1.239 . S
O502 Tb480 2.399 . S
O502 C489 1.263 . S
C503 O492 1.261 . S
C503 O493 1.257 . S
C504 C507 1.358 . S
C504 C508 1.332 . S
C504 C510 1.504 . S
C505 C506 1.373 . S
C505 C509 1.308 . S
C506 C505 1.373 . S
C506 C507 1.429 . S
C506 H516 0.932 . S
C507 C504 1.358 . S
C507 C506 1.429 . S
C507 H517 0.930 . S
C508 C504 1.332 . S
C508 C509 1.394 . S
C508 H518 0.932 . S
C509 C505 1.308 . S
C509 C508 1.394 . S
C509 H519 0.929 . S
C510 Tb481 2.764 . S
C510 O494 1.239 . S
C510 O495 1.263 . S
C510 C504 1.504 . S
C511 O496 1.236 . S
C511 O497 1.257 . S
H512 C485 0.932 . S
H513 C486 0.930 . S
H514 C487 0.932 . S
H515 C488 0.929 . S
H516 C506 0.932 . S
H517 C507 0.930 . S
H518 C508 0.932 . S
H519 C509 0.929 . S
Tb520 C529 2.764 . S
Tb520 O530 2.325 . S
Tb520 O533 2.303 . S
Tb520 O537 2.322 . S
Tb520 O538 2.349 . S
Tb520 O541 2.415 . S
Tb520 O542 2.399 . S
Tb521 O531 2.322 . S
Tb521 O532 2.349 . S
Tb521 O534 2.415 . S
Tb521 O535 2.399 . S
Tb521 O536 2.325 . S
Tb521 O539 2.303 . S
Tb521 C550 2.764 . S
C522 O538 1.261 . S
C522 O539 1.257 . S
C523 C526 1.358 . S
C523 C527 1.332 . S
C523 C529 1.504 . S
C524 C525 1.373 . S
C524 C528 1.308 . S
C525 C524 1.373 . S
C525 C526 1.429 . S
C525 H552 0.932 . S
C526 C523 1.358 . S
C526 C525 1.429 . S
C526 H553 0.930 . S
C527 C523 1.332 . S
C527 C528 1.394 . S
C527 H554 0.932 . S
C528 C524 1.308 . S
C528 C527 1.394 . S
C528 H555 0.929 . S
C529 Tb520 2.764 . S
C529 C523 1.504 . S
C529 O541 1.239 . S
C529 O542 1.263 . S
O530 Tb520 2.325 . S
O530 C540 1.236 . S
O531 Tb521 2.322 . S
O531 C540 1.257 . S
O532 Tb521 2.349 . S
O532 C543 1.261 . S
O533 Tb520 2.303 . S
O533 C543 1.257 . S
O534 Tb521 2.415 . S
O534 C550 1.239 . S
O535 Tb521 2.399 . S
O535 C550 1.263 . S
O536 Tb521 2.325 . S
O536 C551 1.236 . S
O537 Tb520 2.322 . S
O537 C551 1.257 . S
O538 Tb520 2.349 . S
O538 C522 1.261 . S
O539 Tb521 2.303 . S
O539 C522 1.257 . S
C540 O530 1.236 . S
C540 O531 1.257 . S
O541 Tb520 2.415 . S
O541 C529 1.239 . S
O542 Tb520 2.399 . S
O542 C529 1.263 . S
C543 O532 1.261 . S
C543 O533 1.257 . S
C544 C547 1.358 . S
C544 C548 1.332 . S
C544 C550 1.504 . S
C545 C546 1.373 . S
C545 C549 1.308 . S
C546 C545 1.373 . S
C546 C547 1.429 . S
C546 H556 0.932 . S
C547 C544 1.358 . S
C547 C546 1.429 . S
C547 H557 0.930 . S
C548 C544 1.332 . S
C548 C549 1.394 . S
C548 H558 0.932 . S
C549 C545 1.308 . S
C549 C548 1.394 . S
C549 H559 0.929 . S
C550 Tb521 2.764 . S
C550 O534 1.239 . S
C550 O535 1.263 . S
C550 C544 1.504 . S
C551 O536 1.236 . S
C551 O537 1.257 . S
H552 C525 0.932 . S
H553 C526 0.930 . S
H554 C527 0.932 . S
H555 C528 0.929 . S
H556 C546 0.932 . S
H557 C547 0.930 . S
H558 C548 0.932 . S
H559 C549 0.929 . S
Tb560 C569 2.764 . S
Tb560 O570 2.325 . S
Tb560 O573 2.303 . S
Tb560 O577 2.322 . S
Tb560 O578 2.349 . S
Tb560 O581 2.415 . S
Tb560 O582 2.399 . S
Tb561 O571 2.322 . S
Tb561 O572 2.349 . S
Tb561 O574 2.415 . S
Tb561 O575 2.399 . S
Tb561 O576 2.325 . S
Tb561 O579 2.303 . S
Tb561 C590 2.764 . S
C562 O578 1.261 . S
C562 O579 1.257 . S
C563 C566 1.358 . S
C563 C567 1.332 . S
C563 C569 1.504 . S
C564 C565 1.373 . S
C564 C568 1.308 . S
C565 C564 1.373 . S
C565 C566 1.429 . S
C565 H592 0.932 . S
C566 C563 1.358 . S
C566 C565 1.429 . S
C566 H593 0.930 . S
C567 C563 1.332 . S
C567 C568 1.394 . S
C567 H594 0.932 . S
C568 C564 1.308 . S
C568 C567 1.394 . S
C568 H595 0.929 . S
C569 Tb560 2.764 . S
C569 C563 1.504 . S
C569 O581 1.239 . S
C569 O582 1.263 . S
O570 Tb560 2.325 . S
O570 C580 1.236 . S
O571 Tb561 2.322 . S
O571 C580 1.257 . S
O572 Tb561 2.349 . S
O572 C583 1.261 . S
O573 Tb560 2.303 . S
O573 C583 1.257 . S
O574 Tb561 2.415 . S
O574 C590 1.239 . S
O575 Tb561 2.399 . S
O575 C590 1.263 . S
O576 Tb561 2.325 . S
O576 C591 1.236 . S
O577 Tb560 2.322 . S
O577 C591 1.257 . S
O578 Tb560 2.349 . S
O578 C562 1.261 . S
O579 Tb561 2.303 . S
O579 C562 1.257 . S
C580 O570 1.236 . S
C580 O571 1.257 . S
O581 Tb560 2.415 . S
O581 C569 1.239 . S
O582 Tb560 2.399 . S
O582 C569 1.263 . S
C583 O572 1.261 . S
C583 O573 1.257 . S
C584 C587 1.358 . S
C584 C588 1.332 . S
C584 C590 1.504 . S
C585 C586 1.373 . S
C585 C589 1.308 . S
C586 C585 1.373 . S
C586 C587 1.429 . S
C586 H596 0.932 . S
C587 C584 1.358 . S
C587 C586 1.429 . S
C587 H597 0.930 . S
C588 C584 1.332 . S
C588 C589 1.394 . S
C588 H598 0.932 . S
C589 C585 1.308 . S
C589 C588 1.394 . S
C589 H599 0.929 . S
C590 Tb561 2.764 . S
C590 O574 1.239 . S
C590 O575 1.263 . S
C590 C584 1.504 . S
C591 O576 1.236 . S
C591 O577 1.257 . S
H592 C565 0.932 . S
H593 C566 0.930 . S
H594 C567 0.932 . S
H595 C568 0.929 . S
H596 C586 0.932 . S
H597 C587 0.930 . S
H598 C588 0.932 . S
H599 C589 0.929 . S
Tb600 C609 2.764 . S
Tb600 O610 2.325 . S
Tb600 O613 2.303 . S
Tb600 O617 2.322 1_655 S
Tb600 O618 2.349 1_655 S
Tb600 O621 2.415 . S
Tb600 O622 2.399 . S
Tb601 O611 2.322 1_455 S
Tb601 O612 2.349 1_455 S
Tb601 O614 2.415 . S
Tb601 O615 2.399 . S
Tb601 O616 2.325 . S
Tb601 O619 2.303 . S
Tb601 C630 2.764 . S
C602 O618 1.261 . S
C602 O619 1.257 . S
C603 C606 1.358 . S
C603 C607 1.332 . S
C603 C609 1.504 . S
C604 C605 1.373 . S
C604 C608 1.308 . S
C605 C604 1.373 . S
C605 C606 1.429 . S
C605 H632 0.932 . S
C606 C603 1.358 . S
C606 C605 1.429 . S
C606 H633 0.930 . S
C607 C603 1.332 . S
C607 C608 1.394 . S
C607 H634 0.932 . S
C608 C604 1.308 . S
C608 C607 1.394 . S
C608 H635 0.929 . S
C609 Tb600 2.764 . S
C609 C603 1.504 . S
C609 O621 1.239 . S
C609 O622 1.263 . S
O610 Tb600 2.325 . S
O610 C620 1.236 . S
O611 Tb601 2.322 1_655 S
O611 C620 1.257 . S
O612 Tb601 2.349 1_655 S
O612 C623 1.261 . S
O613 Tb600 2.303 . S
O613 C623 1.257 . S
O614 Tb601 2.415 . S
O614 C630 1.239 . S
O615 Tb601 2.399 . S
O615 C630 1.263 . S
O616 Tb601 2.325 . S
O616 C631 1.236 . S
O617 Tb600 2.322 1_455 S
O617 C631 1.257 . S
O618 Tb600 2.349 1_455 S
O618 C602 1.261 . S
O619 Tb601 2.303 . S
O619 C602 1.257 . S
C620 O610 1.236 . S
C620 O611 1.257 . S
O621 Tb600 2.415 . S
O621 C609 1.239 . S
O622 Tb600 2.399 . S
O622 C609 1.263 . S
C623 O612 1.261 . S
C623 O613 1.257 . S
C624 C627 1.358 . S
C624 C628 1.332 . S
C624 C630 1.504 . S
C625 C626 1.373 . S
C625 C629 1.308 . S
C626 C625 1.373 . S
C626 C627 1.429 . S
C626 H636 0.932 . S
C627 C624 1.358 . S
C627 C626 1.429 . S
C627 H637 0.930 . S
C628 C624 1.332 . S
C628 C629 1.394 . S
C628 H638 0.932 . S
C629 C625 1.308 . S
C629 C628 1.394 . S
C629 H639 0.929 . S
C630 Tb601 2.764 . S
C630 O614 1.239 . S
C630 O615 1.263 . S
C630 C624 1.504 . S
C631 O616 1.236 . S
C631 O617 1.257 . S
H632 C605 0.932 . S
H633 C606 0.930 . S
H634 C607 0.932 . S
H635 C608 0.929 . S
H636 C626 0.932 . S
H637 C627 0.930 . S
H638 C628 0.932 . S
H639 C629 0.929 . S
Tb640 C649 2.764 . S
Tb640 O650 2.325 . S
Tb640 O653 2.303 . S
Tb640 O657 2.322 1_545 S
Tb640 O658 2.349 1_545 S
Tb640 O661 2.415 . S
Tb640 O662 2.399 . S
Tb641 O651 2.322 1_565 S
Tb641 O652 2.349 1_565 S
Tb641 O654 2.415 . S
Tb641 O655 2.399 . S
Tb641 O656 2.325 . S
Tb641 O659 2.303 . S
Tb641 C670 2.764 . S
C642 O658 1.261 . S
C642 O659 1.257 . S
C643 C646 1.358 . S
C643 C647 1.332 . S
C643 C649 1.504 . S
C644 C645 1.373 . S
C644 C648 1.308 . S
C645 C644 1.373 . S
C645 C646 1.429 . S
C645 H672 0.932 . S
C646 C643 1.358 . S
C646 C645 1.429 . S
C646 H673 0.930 . S
C647 C643 1.332 . S
C647 C648 1.394 . S
C647 H674 0.932 . S
C648 C644 1.308 . S
C648 C647 1.394 . S
C648 H675 0.929 . S
C649 Tb640 2.764 . S
C649 C643 1.504 . S
C649 O661 1.239 . S
C649 O662 1.263 . S
O650 Tb640 2.325 . S
O650 C660 1.236 . S
O651 Tb641 2.322 1_545 S
O651 C660 1.257 . S
O652 Tb641 2.349 1_545 S
O652 C663 1.261 . S
O653 Tb640 2.303 . S
O653 C663 1.257 . S
O654 Tb641 2.415 . S
O654 C670 1.239 . S
O655 Tb641 2.399 . S
O655 C670 1.263 . S
O656 Tb641 2.325 . S
O656 C671 1.236 . S
O657 Tb640 2.322 1_565 S
O657 C671 1.257 . S
O658 Tb640 2.349 1_565 S
O658 C642 1.261 . S
O659 Tb641 2.303 . S
O659 C642 1.257 . S
C660 O650 1.236 . S
C660 O651 1.257 . S
O661 Tb640 2.415 . S
O661 C649 1.239 . S
O662 Tb640 2.399 . S
O662 C649 1.263 . S
C663 O652 1.261 . S
C663 O653 1.257 . S
C664 C667 1.358 . S
C664 C668 1.332 . S
C664 C670 1.504 . S
C665 C666 1.373 . S
C665 C669 1.308 . S
C666 C665 1.373 . S
C666 C667 1.429 . S
C666 H676 0.932 . S
C667 C664 1.358 . S
C667 C666 1.429 . S
C667 H677 0.930 . S
C668 C664 1.332 . S
C668 C669 1.394 . S
C668 H678 0.932 . S
C669 C665 1.308 . S
C669 C668 1.394 . S
C669 H679 0.929 . S
C670 Tb641 2.764 . S
C670 O654 1.239 . S
C670 O655 1.263 . S
C670 C664 1.504 . S
C671 O656 1.236 . S
C671 O657 1.257 . S
H672 C645 0.932 . S
H673 C646 0.930 . S
H674 C647 0.932 . S
H675 C648 0.929 . S
H676 C666 0.932 . S
H677 C667 0.930 . S
H678 C668 0.932 . S
H679 C669 0.929 . S
Tb680 C689 2.764 . S
Tb680 O690 2.325 . S
Tb680 O693 2.303 . S
Tb680 O697 2.322 1_565 S
Tb680 O698 2.349 1_565 S
Tb680 O701 2.415 . S
Tb680 O702 2.399 . S
Tb681 O691 2.322 1_545 S
Tb681 O692 2.349 1_545 S
Tb681 O694 2.415 . S
Tb681 O695 2.399 . S
Tb681 O696 2.325 . S
Tb681 O699 2.303 . S
Tb681 C710 2.764 . S
C682 O698 1.261 . S
C682 O699 1.257 . S
C683 C686 1.358 . S
C683 C687 1.332 . S
C683 C689 1.504 . S
C684 C685 1.373 . S
C684 C688 1.308 . S
C685 C684 1.373 . S
C685 C686 1.429 . S
C685 H712 0.932 . S
C686 C683 1.358 . S
C686 C685 1.429 . S
C686 H713 0.930 . S
C687 C683 1.332 . S
C687 C688 1.394 . S
C687 H714 0.932 . S
C688 C684 1.308 . S
C688 C687 1.394 . S
C688 H715 0.929 . S
C689 Tb680 2.764 . S
C689 C683 1.504 . S
C689 O701 1.239 . S
C689 O702 1.263 . S
O690 Tb680 2.325 . S
O690 C700 1.236 . S
O691 Tb681 2.322 1_565 S
O691 C700 1.257 . S
O692 Tb681 2.349 1_565 S
O692 C703 1.261 . S
O693 Tb680 2.303 . S
O693 C703 1.257 . S
O694 Tb681 2.415 . S
O694 C710 1.239 . S
O695 Tb681 2.399 . S
O695 C710 1.263 . S
O696 Tb681 2.325 . S
O696 C711 1.236 . S
O697 Tb680 2.322 1_545 S
O697 C711 1.257 . S
O698 Tb680 2.349 1_545 S
O698 C682 1.261 . S
O699 Tb681 2.303 . S
O699 C682 1.257 . S
C700 O690 1.236 . S
C700 O691 1.257 . S
O701 Tb680 2.415 . S
O701 C689 1.239 . S
O702 Tb680 2.399 . S
O702 C689 1.263 . S
C703 O692 1.261 . S
C703 O693 1.257 . S
C704 C707 1.358 . S
C704 C708 1.332 . S
C704 C710 1.504 . S
C705 C706 1.373 . S
C705 C709 1.308 . S
C706 C705 1.373 . S
C706 C707 1.429 . S
C706 H716 0.932 . S
C707 C704 1.358 . S
C707 C706 1.429 . S
C707 H717 0.930 . S
C708 C704 1.332 . S
C708 C709 1.394 . S
C708 H718 0.932 . S
C709 C705 1.308 . S
C709 C708 1.394 . S
C709 H719 0.929 . S
C710 Tb681 2.764 . S
C710 O694 1.239 . S
C710 O695 1.263 . S
C710 C704 1.504 . S
C711 O696 1.236 . S
C711 O697 1.257 . S
H712 C685 0.932 . S
H713 C686 0.930 . S
H714 C687 0.932 . S
H715 C688 0.929 . S
H716 C706 0.932 . S
H717 C707 0.930 . S
H718 C708 0.932 . S
H719 C709 0.929 . S
Tb720 C729 2.764 . S
Tb720 O730 2.325 . S
Tb720 O733 2.303 . S
Tb720 O737 2.322 . S
Tb720 O738 2.349 . S
Tb720 O741 2.415 . S
Tb720 O742 2.399 . S
Tb721 O731 2.322 . S
Tb721 O732 2.349 . S
Tb721 O734 2.415 . S
Tb721 O735 2.399 . S
Tb721 O736 2.325 . S
Tb721 O739 2.303 . S
Tb721 C750 2.764 . S
C722 O738 1.261 . S
C722 O739 1.257 . S
C723 C726 1.358 . S
C723 C727 1.332 . S
C723 C729 1.504 . S
C724 C725 1.373 . S
C724 C728 1.308 . S
C725 C724 1.373 . S
C725 C726 1.429 . S
C725 H752 0.932 . S
C726 C723 1.358 . S
C726 C725 1.429 . S
C726 H753 0.930 . S
C727 C723 1.332 . S
C727 C728 1.394 . S
C727 H754 0.932 . S
C728 C724 1.308 . S
C728 C727 1.394 . S
C728 H755 0.929 . S
C729 Tb720 2.764 . S
C729 C723 1.504 . S
C729 O741 1.239 . S
C729 O742 1.263 . S
O730 Tb720 2.325 . S
O730 C740 1.236 . S
O731 Tb721 2.322 . S
O731 C740 1.257 . S
O732 Tb721 2.349 . S
O732 C743 1.261 . S
O733 Tb720 2.303 . S
O733 C743 1.257 . S
O734 Tb721 2.415 . S
O734 C750 1.239 . S
O735 Tb721 2.399 . S
O735 C750 1.263 . S
O736 Tb721 2.325 . S
O736 C751 1.236 . S
O737 Tb720 2.322 . S
O737 C751 1.257 . S
O738 Tb720 2.349 . S
O738 C722 1.261 . S
O739 Tb721 2.303 . S
O739 C722 1.257 . S
C740 O730 1.236 . S
C740 O731 1.257 . S
O741 Tb720 2.415 . S
O741 C729 1.239 . S
O742 Tb720 2.399 . S
O742 C729 1.263 . S
C743 O732 1.261 . S
C743 O733 1.257 . S
C744 C747 1.358 . S
C744 C748 1.332 . S
C744 C750 1.504 . S
C745 C746 1.373 . S
C745 C749 1.308 . S
C746 C745 1.373 . S
C746 C747 1.429 . S
C746 H756 0.932 . S
C747 C744 1.358 . S
C747 C746 1.429 . S
C747 H757 0.930 . S
C748 C744 1.332 . S
C748 C749 1.394 . S
C748 H758 0.932 . S
C749 C745 1.308 . S
C749 C748 1.394 . S
C749 H759 0.929 . S
C750 Tb721 2.764 . S
C750 O734 1.239 . S
C750 O735 1.263 . S
C750 C744 1.504 . S
C751 O736 1.236 . S
C751 O737 1.257 . S
H752 C725 0.932 . S
H753 C726 0.930 . S
H754 C727 0.932 . S
H755 C728 0.929 . S
H756 C746 0.932 . S
H757 C747 0.930 . S
H758 C748 0.932 . S
H759 C749 0.929 . S
Tb760 C769 2.764 . S
Tb760 O770 2.325 . S
Tb760 O773 2.303 . S
Tb760 O777 2.322 . S
Tb760 O778 2.349 . S
Tb760 O781 2.415 . S
Tb760 O782 2.399 . S
Tb761 O771 2.322 . S
Tb761 O772 2.349 . S
Tb761 O774 2.415 . S
Tb761 O775 2.399 . S
Tb761 O776 2.325 . S
Tb761 O779 2.303 . S
Tb761 C790 2.764 . S
C762 O778 1.261 . S
C762 O779 1.257 . S
C763 C766 1.358 . S
C763 C767 1.332 . S
C763 C769 1.504 . S
C764 C765 1.373 . S
C764 C768 1.308 . S
C765 C764 1.373 . S
C765 C766 1.429 . S
C765 H792 0.932 . S
C766 C763 1.358 . S
C766 C765 1.429 . S
C766 H793 0.930 . S
C767 C763 1.332 . S
C767 C768 1.394 . S
C767 H794 0.932 . S
C768 C764 1.308 . S
C768 C767 1.394 . S
C768 H795 0.929 . S
C769 Tb760 2.764 . S
C769 C763 1.504 . S
C769 O781 1.239 . S
C769 O782 1.263 . S
O770 Tb760 2.325 . S
O770 C780 1.236 . S
O771 Tb761 2.322 . S
O771 C780 1.257 . S
O772 Tb761 2.349 . S
O772 C783 1.261 . S
O773 Tb760 2.303 . S
O773 C783 1.257 . S
O774 Tb761 2.415 . S
O774 C790 1.239 . S
O775 Tb761 2.399 . S
O775 C790 1.263 . S
O776 Tb761 2.325 . S
O776 C791 1.236 . S
O777 Tb760 2.322 . S
O777 C791 1.257 . S
O778 Tb760 2.349 . S
O778 C762 1.261 . S
O779 Tb761 2.303 . S
O779 C762 1.257 . S
C780 O770 1.236 . S
C780 O771 1.257 . S
O781 Tb760 2.415 . S
O781 C769 1.239 . S
O782 Tb760 2.399 . S
O782 C769 1.263 . S
C783 O772 1.261 . S
C783 O773 1.257 . S
C784 C787 1.358 . S
C784 C788 1.332 . S
C784 C790 1.504 . S
C785 C786 1.373 . S
C785 C789 1.308 . S
C786 C785 1.373 . S
C786 C787 1.429 . S
C786 H796 0.932 . S
C787 C784 1.358 . S
C787 C786 1.429 . S
C787 H797 0.930 . S
C788 C784 1.332 . S
C788 C789 1.394 . S
C788 H798 0.932 . S
C789 C785 1.308 . S
C789 C788 1.394 . S
C789 H799 0.929 . S
C790 Tb761 2.764 . S
C790 O774 1.239 . S
C790 O775 1.263 . S
C790 C784 1.504 . S
C791 O776 1.236 . S
C791 O777 1.257 . S
H792 C765 0.932 . S
H793 C766 0.930 . S
H794 C767 0.932 . S
H795 C768 0.929 . S
H796 C786 0.932 . S
H797 C787 0.930 . S
H798 C788 0.932 . S
H799 C789 0.929 . S
Tb800 C809 2.764 1_556 S
Tb800 O810 2.325 . S
Tb800 O813 2.303 . S
Tb800 O817 2.322 . S
Tb800 O818 2.349 . S
Tb800 O821 2.415 1_556 S
Tb800 O822 2.399 . S
Tb801 O811 2.322 . S
Tb801 O812 2.349 . S
Tb801 O814 2.415 . S
Tb801 O815 2.399 . S
Tb801 O816 2.325 . S
Tb801 O819 2.303 . S
Tb801 C830 2.764 . S
C802 O818 1.261 . S
C802 O819 1.257 . S
C803 C806 1.358 . S
C803 C807 1.332 . S
C803 C809 1.504 . S
C804 C805 1.373 . S
C804 C808 1.308 . S
C805 C804 1.373 . S
C805 C806 1.429 . S
C805 H832 0.932 . S
C806 C803 1.358 . S
C806 C805 1.429 . S
C806 H833 0.930 . S
C807 C803 1.332 . S
C807 C808 1.394 . S
C807 H834 0.932 . S
C808 C804 1.308 . S
C808 C807 1.394 . S
C808 H835 0.929 . S
C809 Tb800 2.764 1_554 S
C809 C803 1.504 . S
C809 O821 1.239 . S
C809 O822 1.263 1_554 S
O810 Tb800 2.325 . S
O810 C820 1.231 1_556 S
O811 Tb801 2.322 . S
O811 C820 1.235 1_556 S
O812 Tb801 2.349 . S
O812 C823 1.261 . S
O813 Tb800 2.303 . S
O813 C823 1.257 . S
O814 Tb801 2.415 . S
O814 C830 1.239 . S
O815 Tb801 2.399 . S
O815 C830 1.263 . S
O816 Tb801 2.325 . S
O816 C831 1.236 . S
O817 Tb800 2.322 . S
O817 C831 1.257 . S
O818 Tb800 2.349 . S
O818 C802 1.261 . S
O819 Tb801 2.303 . S
O819 C802 1.257 . S
C820 O810 1.231 1_554 S
C820 O811 1.235 1_554 S
O821 Tb800 2.415 1_554 S
O821 C809 1.239 . S
O822 Tb800 2.399 . S
O822 C809 1.263 1_556 S
C823 O812 1.261 . S
C823 O813 1.257 . S
C824 C827 1.358 . S
C824 C828 1.332 . S
C824 C830 1.504 . S
C825 C826 1.373 . S
C825 C829 1.308 . S
C826 C825 1.373 . S
C826 C827 1.429 . S
C826 H836 0.932 . S
C827 C824 1.358 . S
C827 C826 1.429 . S
C827 H837 0.930 . S
C828 C824 1.332 . S
C828 C829 1.394 . S
C828 H838 0.932 . S
C829 C825 1.308 . S
C829 C828 1.394 . S
C829 H839 0.929 . S
C830 Tb801 2.764 . S
C830 O814 1.239 . S
C830 O815 1.263 . S
C830 C824 1.504 . S
C831 O816 1.236 . S
C831 O817 1.257 . S
H832 C805 0.932 . S
H833 C806 0.930 . S
H834 C807 0.932 . S
H835 C808 0.929 . S
H836 C826 0.932 . S
H837 C827 0.930 . S
H838 C828 0.932 . S
H839 C829 0.929 . S
Tb840 C849 2.764 . S
Tb840 O850 2.325 . S
Tb840 O853 2.303 . S
Tb840 O857 2.322 . S
Tb840 O858 2.349 . S
Tb840 O861 2.415 . S
Tb840 O862 2.399 . S
Tb841 O851 2.322 . S
Tb841 O852 2.349 . S
Tb841 O854 2.415 . S
Tb841 O855 2.399 . S
Tb841 O856 2.325 . S
Tb841 O859 2.303 . S
Tb841 C870 2.764 . S
C842 O858 1.261 . S
C842 O859 1.257 . S
C843 C846 1.358 . S
C843 C847 1.332 . S
C843 C849 1.504 . S
C844 C845 1.373 . S
C844 C848 1.308 . S
C845 C844 1.373 . S
C845 C846 1.429 . S
C845 H872 0.932 . S
C846 C843 1.358 . S
C846 C845 1.429 . S
C846 H873 0.930 . S
C847 C843 1.332 . S
C847 C848 1.394 . S
C847 H874 0.932 . S
C848 C844 1.308 . S
C848 C847 1.394 . S
C848 H875 0.929 . S
C849 Tb840 2.764 . S
C849 C843 1.504 . S
C849 O861 1.239 . S
C849 O862 1.263 . S
O850 Tb840 2.325 . S
O850 C860 1.236 . S
O851 Tb841 2.322 . S
O851 C860 1.257 . S
O852 Tb841 2.349 . S
O852 C863 1.261 . S
O853 Tb840 2.303 . S
O853 C863 1.257 . S
O854 Tb841 2.415 . S
O854 C870 1.239 . S
O855 Tb841 2.399 . S
O855 C870 1.263 . S
O856 Tb841 2.325 . S
O856 C871 1.236 . S
O857 Tb840 2.322 . S
O857 C871 1.257 . S
O858 Tb840 2.349 . S
O858 C842 1.261 . S
O859 Tb841 2.303 . S
O859 C842 1.257 . S
C860 O850 1.236 . S
C860 O851 1.257 . S
O861 Tb840 2.415 . S
O861 C849 1.239 . S
O862 Tb840 2.399 . S
O862 C849 1.263 . S
C863 O852 1.261 . S
C863 O853 1.257 . S
C864 C867 1.358 . S
C864 C868 1.332 . S
C864 C870 1.504 1_556 S
C865 C866 1.373 . S
C865 C869 1.308 . S
C866 C865 1.373 . S
C866 C867 1.429 . S
C866 H876 0.932 . S
C867 C864 1.358 . S
C867 C866 1.429 . S
C867 H877 0.930 . S
C868 C864 1.332 . S
C868 C869 1.394 . S
C868 H878 0.932 . S
C869 C865 1.308 . S
C869 C868 1.394 . S
C869 H879 0.929 . S
C870 Tb841 2.764 . S
C870 O854 1.239 . S
C870 O855 1.263 . S
C870 C864 1.504 1_554 S
C871 O856 1.236 . S
C871 O857 1.257 . S
H872 C845 0.932 . S
H873 C846 0.930 . S
H874 C847 0.932 . S
H875 C848 0.929 . S
H876 C866 0.932 . S
H877 C867 0.930 . S
H878 C868 0.932 . S
H879 C869 0.929 . S
Tb880 C889 2.764 . S
Tb880 O890 2.325 . S
Tb880 O893 2.303 . S
Tb880 O897 2.322 . S
Tb880 O898 2.349 . S
Tb880 O901 2.415 . S
Tb880 O902 2.399 . S
Tb881 O891 2.322 . S
Tb881 O892 2.349 . S
Tb881 O894 2.415 . S
Tb881 O895 2.399 . S
Tb881 O896 2.325 . S
Tb881 O899 2.303 . S
Tb881 C910 2.764 . S
C882 O898 1.261 . S
C882 O899 1.257 . S
C883 C886 1.358 . S
C883 C887 1.332 . S
C883 C889 1.504 . S
C884 C885 1.373 . S
C884 C888 1.308 . S
C885 C884 1.373 . S
C885 C886 1.429 . S
C885 H912 0.932 . S
C886 C883 1.358 . S
C886 C885 1.429 . S
C886 H913 0.930 . S
C887 C883 1.332 . S
C887 C888 1.394 . S
C887 H914 0.932 . S
C888 C884 1.308 . S
C888 C887 1.394 . S
C888 H915 0.929 . S
C889 Tb880 2.764 . S
C889 C883 1.504 . S
C889 O901 1.239 . S
C889 O902 1.263 . S
O890 Tb880 2.325 . S
O890 C900 1.236 . S
O891 Tb881 2.322 . S
O891 C900 1.257 . S
O892 Tb881 2.349 . S
O892 C903 1.261 . S
O893 Tb880 2.303 . S
O893 C903 1.257 . S
O894 Tb881 2.415 . S
O894 C910 1.239 . S
O895 Tb881 2.399 . S
O895 C910 1.263 . S
O896 Tb881 2.325 . S
O896 C911 1.236 . S
O897 Tb880 2.322 . S
O897 C911 1.257 . S
O898 Tb880 2.349 . S
O898 C882 1.261 . S
O899 Tb881 2.303 . S
O899 C882 1.257 . S
C900 O890 1.236 . S
C900 O891 1.257 . S
O901 Tb880 2.415 . S
O901 C889 1.239 . S
O902 Tb880 2.399 . S
O902 C889 1.263 . S
C903 O892 1.261 . S
C903 O893 1.257 . S
C904 C907 1.358 . S
C904 C908 1.332 . S
C904 C910 1.504 . S
C905 C906 1.373 . S
C905 C909 1.308 . S
C906 C905 1.373 . S
C906 C907 1.429 . S
C906 H916 0.932 . S
C907 C904 1.358 . S
C907 C906 1.429 . S
C907 H917 0.930 . S
C908 C904 1.332 . S
C908 C909 1.394 . S
C908 H918 0.932 . S
C909 C905 1.308 . S
C909 C908 1.394 . S
C909 H919 0.929 . S
C910 Tb881 2.764 . S
C910 O894 1.239 . S
C910 O895 1.263 . S
C910 C904 1.504 . S
C911 O896 1.236 . S
C911 O897 1.257 . S
H912 C885 0.932 . S
H913 C886 0.930 . S
H914 C887 0.932 . S
H915 C888 0.929 . S
H916 C906 0.932 . S
H917 C907 0.930 . S
H918 C908 0.932 . S
H919 C909 0.929 . S
Tb920 C929 2.764 . S
Tb920 O930 2.325 . S
Tb920 O933 2.303 . S
Tb920 O937 2.322 . S
Tb920 O938 2.349 . S
Tb920 O941 2.415 . S
Tb920 O942 2.399 . S
Tb921 O931 2.322 . S
Tb921 O932 2.349 . S
Tb921 O934 2.415 . S
Tb921 O935 2.399 . S
Tb921 O936 2.325 . S
Tb921 O939 2.303 . S
Tb921 C950 2.764 . S
C922 O938 1.261 . S
C922 O939 1.257 . S
C923 C926 1.358 . S
C923 C927 1.332 . S
C923 C929 1.504 . S
C924 C925 1.373 . S
C924 C928 1.308 . S
C925 C924 1.373 . S
C925 C926 1.429 . S
C925 H952 0.932 . S
C926 C923 1.358 . S
C926 C925 1.429 . S
C926 H953 0.930 . S
C927 C923 1.332 . S
C927 C928 1.394 . S
C927 H954 0.932 . S
C928 C924 1.308 . S
C928 C927 1.394 . S
C928 H955 0.929 . S
C929 Tb920 2.764 . S
C929 C923 1.504 . S
C929 O941 1.239 . S
C929 O942 1.263 . S
O930 Tb920 2.325 . S
O930 C940 1.236 . S
O931 Tb921 2.322 . S
O931 C940 1.257 . S
O932 Tb921 2.349 . S
O932 C943 1.261 . S
O933 Tb920 2.303 . S
O933 C943 1.257 . S
O934 Tb921 2.415 . S
O934 C950 1.239 . S
O935 Tb921 2.399 . S
O935 C950 1.263 . S
O936 Tb921 2.325 . S
O936 C951 1.236 . S
O937 Tb920 2.322 . S
O937 C951 1.257 . S
O938 Tb920 2.349 . S
O938 C922 1.261 . S
O939 Tb921 2.303 . S
O939 C922 1.257 . S
C940 O930 1.236 . S
C940 O931 1.257 . S
O941 Tb920 2.415 . S
O941 C929 1.239 . S
O942 Tb920 2.399 . S
O942 C929 1.263 . S
C943 O932 1.261 . S
C943 O933 1.257 . S
C944 C947 1.358 . S
C944 C948 1.332 . S
C944 C950 1.504 . S
C945 C946 1.373 . S
C945 C949 1.308 . S
C946 C945 1.373 . S
C946 C947 1.429 . S
C946 H956 0.932 . S
C947 C944 1.358 . S
C947 C946 1.429 . S
C947 H957 0.930 . S
C948 C944 1.332 . S
C948 C949 1.394 . S
C948 H958 0.932 . S
C949 C945 1.308 . S
C949 C948 1.394 . S
C949 H959 0.929 . S
C950 Tb921 2.764 . S
C950 O934 1.239 . S
C950 O935 1.263 . S
C950 C944 1.504 . S
C951 O936 1.236 . S
C951 O937 1.257 . S
H952 C925 0.932 . S
H953 C926 0.930 . S
H954 C927 0.932 . S
H955 C928 0.929 . S
H956 C946 0.932 . S
H957 C947 0.930 . S
H958 C948 0.932 . S
H959 C949 0.929 . S
C960 C961 1.391 . S
C960 C962 1.394 . S
C960 H976 0.931 . S
C961 C960 1.391 . S
C961 C965 1.376 . S
C962 C960 1.394 . S
C962 C963 1.369 . S
C962 C966 1.531 . S
C963 C962 1.369 . S
C963 C964 1.410 . S
C963 C971 1.503 . S
C964 C963 1.410 . S
C964 C965 1.392 . S
C964 C967 1.511 . S
C965 C961 1.376 . S
C965 C964 1.392 . S
C965 H977 0.929 . S
C966 C962 1.531 . S
C966 H978 0.960 . S
C966 H979 0.962 . S
C966 H980 0.960 . S
C967 C964 1.511 . S
C967 H981 0.961 . S
C967 H982 0.961 . S
C967 H983 0.961 . S
C968 C969 1.370 . S
C968 C970 1.363 . S
C968 H984 0.931 . S
C969 C968 1.370 . S
C969 C973 1.408 . S
C970 C968 1.363 . S
C970 C971 1.370 . S
C970 C974 1.524 . S
C971 C963 1.503 . S
C971 C970 1.370 . S
C971 C972 1.403 . S
C972 C971 1.403 . S
C972 C973 1.404 . S
C972 C975 1.539 . S
C973 C969 1.408 . S
C973 C972 1.404 . S
C973 H985 0.930 . S
C974 C970 1.524 . S
C974 H986 0.956 . S
C974 H987 0.961 . S
C974 H988 0.961 . S
C975 C972 1.539 . S
C975 H989 0.958 . S
C975 H990 0.961 . S
C975 H991 0.960 . S
H976 C960 0.931 . S
H977 C965 0.929 . S
H978 C966 0.960 . S
H979 C966 0.962 . S
H980 C966 0.960 . S
H981 C967 0.961 . S
H982 C967 0.961 . S
H983 C967 0.961 . S
H984 C968 0.931 . S
H985 C973 0.930 . S
H986 C974 0.956 . S
H987 C974 0.961 . S
H988 C974 0.961 . S
H989 C975 0.958 . S
H990 C975 0.961 . S
H991 C975 0.960 . S
C992 C993 1.391 . S
C992 C994 1.394 . S
C992 H1008 0.931 . S
C993 C992 1.391 . S
C993 C997 1.376 . S
C994 C992 1.394 . S
C994 C995 1.369 . S
C994 C998 1.531 . S
C995 C994 1.369 . S
C995 C996 1.410 . S
C995 C1003 1.503 . S
C996 C995 1.410 . S
C996 C997 1.392 . S
C996 C999 1.511 . S
C997 C993 1.376 . S
C997 C996 1.392 . S
C997 H1009 0.929 . S
C998 C994 1.531 . S
C998 H1010 0.960 . S
C998 H1011 0.962 . S
C998 H1012 0.960 . S
C999 C996 1.511 . S
C999 H1013 0.961 . S
C999 H1014 0.961 . S
C999 H1015 0.961 . S
C1000 C1001 1.370 . S
C1000 C1002 1.363 . S
C1000 H1016 0.931 . S
C1001 C1000 1.370 . S
C1001 C1005 1.408 . S
C1002 C1000 1.363 . S
C1002 C1003 1.370 . S
C1002 C1006 1.524 . S
C1003 C995 1.503 . S
C1003 C1002 1.370 . S
C1003 C1004 1.403 . S
C1004 C1003 1.403 . S
C1004 C1005 1.404 . S
C1004 C1007 1.539 . S
C1005 C1001 1.408 . S
C1005 C1004 1.404 . S
C1005 H1017 0.930 . S
C1006 C1002 1.524 . S
C1006 H1018 0.956 . S
C1006 H1019 0.961 . S
C1006 H1020 0.961 . S
C1007 C1004 1.539 . S
C1007 H1021 0.958 . S
C1007 H1022 0.961 . S
C1007 H1023 0.960 . S
H1008 C992 0.931 . S
H1009 C997 0.929 . S
H1010 C998 0.960 . S
H1011 C998 0.962 . S
H1012 C998 0.960 . S
H1013 C999 0.961 . S
H1014 C999 0.961 . S
H1015 C999 0.961 . S
H1016 C1000 0.931 . S
H1017 C1005 0.930 . S
H1018 C1006 0.956 . S
H1019 C1006 0.961 . S
H1020 C1006 0.961 . S
H1021 C1007 0.958 . S
H1022 C1007 0.961 . S
H1023 C1007 0.960 . S
C1024 C1025 1.391 . S
C1024 C1026 1.394 . S
C1024 H1040 0.931 . S
C1025 C1024 1.391 . S
C1025 C1029 1.376 . S
C1026 C1024 1.394 . S
C1026 C1027 1.369 . S
C1026 C1030 1.531 . S
C1027 C1026 1.369 . S
C1027 C1028 1.410 . S
C1027 C1035 1.503 . S
C1028 C1027 1.410 . S
C1028 C1029 1.392 . S
C1028 C1031 1.511 . S
C1029 C1025 1.376 . S
C1029 C1028 1.392 . S
C1029 H1041 0.929 . S
C1030 C1026 1.531 . S
C1030 H1042 0.960 . S
C1030 H1043 0.962 . S
C1030 H1044 0.960 . S
C1031 C1028 1.511 . S
C1031 H1045 0.961 . S
C1031 H1046 0.961 . S
C1031 H1047 0.961 . S
C1032 C1033 1.370 . S
C1032 C1034 1.363 . S
C1032 H1048 0.931 . S
C1033 C1032 1.370 . S
C1033 C1037 1.408 . S
C1034 C1032 1.363 . S
C1034 C1035 1.370 . S
C1034 C1038 1.524 . S
C1035 C1027 1.503 . S
C1035 C1034 1.370 . S
C1035 C1036 1.403 . S
C1036 C1035 1.403 . S
C1036 C1037 1.404 . S
C1036 C1039 1.539 . S
C1037 C1033 1.408 . S
C1037 C1036 1.404 . S
C1037 H1049 0.930 . S
C1038 C1034 1.524 . S
C1038 H1050 0.956 . S
C1038 H1051 0.961 . S
C1038 H1052 0.961 . S
C1039 C1036 1.539 . S
C1039 H1053 0.958 . S
C1039 H1054 0.961 . S
C1039 H1055 0.960 . S
H1040 C1024 0.931 . S
H1041 C1029 0.929 . S
H1042 C1030 0.960 . S
H1043 C1030 0.962 . S
H1044 C1030 0.960 . S
H1045 C1031 0.961 . S
H1046 C1031 0.961 . S
H1047 C1031 0.961 . S
H1048 C1032 0.931 . S
H1049 C1037 0.930 . S
H1050 C1038 0.956 . S
H1051 C1038 0.961 . S
H1052 C1038 0.961 . S
H1053 C1039 0.958 . S
H1054 C1039 0.961 . S
H1055 C1039 0.960 . S
C1056 C1057 1.391 . S
C1056 C1058 1.394 . S
C1056 H1072 0.931 . S
C1057 C1056 1.391 . S
C1057 C1061 1.376 . S
C1058 C1056 1.394 . S
C1058 C1059 1.369 . S
C1058 C1062 1.531 . S
C1059 C1058 1.369 . S
C1059 C1060 1.410 . S
C1059 C1067 1.503 . S
C1060 C1059 1.410 . S
C1060 C1061 1.392 . S
C1060 C1063 1.511 . S
C1061 C1057 1.376 . S
C1061 C1060 1.392 . S
C1061 H1073 0.929 . S
C1062 C1058 1.531 . S
C1062 H1074 0.960 . S
C1062 H1075 0.962 . S
C1062 H1076 0.960 . S
C1063 C1060 1.511 . S
C1063 H1077 0.961 . S
C1063 H1078 0.961 . S
C1063 H1079 0.961 . S
C1064 C1065 1.370 . S
C1064 C1066 1.363 . S
C1064 H1080 0.931 . S
C1065 C1064 1.370 . S
C1065 C1069 1.408 . S
C1066 C1064 1.363 . S
C1066 C1067 1.370 . S
C1066 C1070 1.524 . S
C1067 C1059 1.503 . S
C1067 C1066 1.370 . S
C1067 C1068 1.403 . S
C1068 C1067 1.403 . S
C1068 C1069 1.404 . S
C1068 C1071 1.539 . S
C1069 C1065 1.408 . S
C1069 C1068 1.404 . S
C1069 H1081 0.930 . S
C1070 C1066 1.524 . S
C1070 H1082 0.956 . S
C1070 H1083 0.961 . S
C1070 H1084 0.961 . S
C1071 C1068 1.539 . S
C1071 H1085 0.958 . S
C1071 H1086 0.961 . S
C1071 H1087 0.960 . S
H1072 C1056 0.931 . S
H1073 C1061 0.929 . S
H1074 C1062 0.960 . S
H1075 C1062 0.962 . S
H1076 C1062 0.960 . S
H1077 C1063 0.961 . S
H1078 C1063 0.961 . S
H1079 C1063 0.961 . S
H1080 C1064 0.931 . S
H1081 C1069 0.930 . S
H1082 C1070 0.956 . S
H1083 C1070 0.961 . S
H1084 C1070 0.961 . S
H1085 C1071 0.958 . S
H1086 C1071 0.961 . S
H1087 C1071 0.960 . S
C1088 C1089 1.391 . S
C1088 C1090 1.394 . S
C1088 H1104 0.931 . S
C1089 C1088 1.391 . S
C1089 C1093 1.376 . S
C1090 C1088 1.394 . S
C1090 C1091 1.369 . S
C1090 C1094 1.531 . S
C1091 C1090 1.369 . S
C1091 C1092 1.410 . S
C1091 C1099 1.503 . S
C1092 C1091 1.410 . S
C1092 C1093 1.392 . S
C1092 C1095 1.511 . S
C1093 C1089 1.376 . S
C1093 C1092 1.392 . S
C1093 H1105 0.929 . S
C1094 C1090 1.531 . S
C1094 H1106 0.960 . S
C1094 H1107 0.962 . S
C1094 H1108 0.960 . S
C1095 C1092 1.511 . S
C1095 H1109 0.961 . S
C1095 H1110 0.961 . S
C1095 H1111 0.961 . S
C1096 C1097 1.370 . S
C1096 C1098 1.363 . S
C1096 H1112 0.931 . S
C1097 C1096 1.370 . S
C1097 C1101 1.408 . S
C1098 C1096 1.363 . S
C1098 C1099 1.370 . S
C1098 C1102 1.524 . S
C1099 C1091 1.503 . S
C1099 C1098 1.370 . S
C1099 C1100 1.403 . S
C1100 C1099 1.403 . S
C1100 C1101 1.404 . S
C1100 C1103 1.539 . S
C1101 C1097 1.408 . S
C1101 C1100 1.404 . S
C1101 H1113 0.930 . S
C1102 C1098 1.524 . S
C1102 H1114 0.956 . S
C1102 H1115 0.961 . S
C1102 H1116 0.961 . S
C1103 C1100 1.539 . S
C1103 H1117 0.958 . S
C1103 H1118 0.961 . S
C1103 H1119 0.960 . S
H1104 C1088 0.931 . S
H1105 C1093 0.929 . S
H1106 C1094 0.960 . S
H1107 C1094 0.962 . S
H1108 C1094 0.960 . S
H1109 C1095 0.961 . S
H1110 C1095 0.961 . S
H1111 C1095 0.961 . S
H1112 C1096 0.931 . S
H1113 C1101 0.930 . S
H1114 C1102 0.956 . S
H1115 C1102 0.961 . S
H1116 C1102 0.961 . S
H1117 C1103 0.958 . S
H1118 C1103 0.961 . S
H1119 C1103 0.960 . S
C1120 C1121 1.391 . S
C1120 C1122 1.394 . S
C1120 H1136 0.931 . S
C1121 C1120 1.391 . S
C1121 C1125 1.376 . S
C1122 C1120 1.394 . S
C1122 C1123 1.369 . S
C1122 C1126 1.531 . S
C1123 C1122 1.369 . S
C1123 C1124 1.410 . S
C1123 C1131 1.503 . S
C1124 C1123 1.410 . S
C1124 C1125 1.392 . S
C1124 C1127 1.511 . S
C1125 C1121 1.376 . S
C1125 C1124 1.392 . S
C1125 H1137 0.929 . S
C1126 C1122 1.531 . S
C1126 H1138 0.960 . S
C1126 H1139 0.962 . S
C1126 H1140 0.960 . S
C1127 C1124 1.511 . S
C1127 H1141 0.961 . S
C1127 H1142 0.961 . S
C1127 H1143 0.961 . S
C1128 C1129 1.370 . S
C1128 C1130 1.363 . S
C1128 H1144 0.931 . S
C1129 C1128 1.370 . S
C1129 C1133 1.408 . S
C1130 C1128 1.363 . S
C1130 C1131 1.370 . S
C1130 C1134 1.524 . S
C1131 C1123 1.503 . S
C1131 C1130 1.370 . S
C1131 C1132 1.403 . S
C1132 C1131 1.403 . S
C1132 C1133 1.404 . S
C1132 C1135 1.539 . S
C1133 C1129 1.408 . S
C1133 C1132 1.404 . S
C1133 H1145 0.930 . S
C1134 C1130 1.524 . S
C1134 H1146 0.956 . S
C1134 H1147 0.961 . S
C1134 H1148 0.961 . S
C1135 C1132 1.539 . S
C1135 H1149 0.958 . S
C1135 H1150 0.961 . S
C1135 H1151 0.960 . S
H1136 C1120 0.931 . S
H1137 C1125 0.929 . S
H1138 C1126 0.960 . S
H1139 C1126 0.962 . S
H1140 C1126 0.960 . S
H1141 C1127 0.961 . S
H1142 C1127 0.961 . S
H1143 C1127 0.961 . S
H1144 C1128 0.931 . S
H1145 C1133 0.930 . S
H1146 C1134 0.956 . S
H1147 C1134 0.961 . S
H1148 C1134 0.961 . S
H1149 C1135 0.958 . S
H1150 C1135 0.961 . S
H1151 C1135 0.960 . S
C1152 C1153 1.391 . S
C1152 C1154 1.394 . S
C1152 H1168 0.931 . S
C1153 C1152 1.391 . S
C1153 C1157 1.376 . S
C1154 C1152 1.394 . S
C1154 C1155 1.369 . S
C1154 C1158 1.531 . S
C1155 C1154 1.369 . S
C1155 C1156 1.410 . S
C1155 C1163 1.503 . S
C1156 C1155 1.410 . S
C1156 C1157 1.392 . S
C1156 C1159 1.511 . S
C1157 C1153 1.376 . S
C1157 C1156 1.392 . S
C1157 H1169 0.929 . S
C1158 C1154 1.531 . S
C1158 H1170 0.960 . S
C1158 H1171 0.962 . S
C1158 H1172 0.960 . S
C1159 C1156 1.511 . S
C1159 H1173 0.961 . S
C1159 H1174 0.961 . S
C1159 H1175 0.961 . S
C1160 C1161 1.370 . S
C1160 C1162 1.363 . S
C1160 H1176 0.931 . S
C1161 C1160 1.370 . S
C1161 C1165 1.408 . S
C1162 C1160 1.363 . S
C1162 C1163 1.370 . S
C1162 C1166 1.524 . S
C1163 C1155 1.503 . S
C1163 C1162 1.370 . S
C1163 C1164 1.403 . S
C1164 C1163 1.403 . S
C1164 C1165 1.404 . S
C1164 C1167 1.539 . S
C1165 C1161 1.408 . S
C1165 C1164 1.404 . S
C1165 H1177 0.930 . S
C1166 C1162 1.524 . S
C1166 H1178 0.956 . S
C1166 H1179 0.961 . S
C1166 H1180 0.961 . S
C1167 C1164 1.539 . S
C1167 H1181 0.958 . S
C1167 H1182 0.961 . S
C1167 H1183 0.960 . S
H1168 C1152 0.931 . S
H1169 C1157 0.929 . S
H1170 C1158 0.960 . S
H1171 C1158 0.962 . S
H1172 C1158 0.960 . S
H1173 C1159 0.961 . S
H1174 C1159 0.961 . S
H1175 C1159 0.961 . S
H1176 C1160 0.931 . S
H1177 C1165 0.930 . S
H1178 C1166 0.956 . S
H1179 C1166 0.961 . S
H1180 C1166 0.961 . S
H1181 C1167 0.958 . S
H1182 C1167 0.961 . S
H1183 C1167 0.960 . S
C1184 C1185 1.391 . S
C1184 C1186 1.394 . S
C1184 H1200 0.931 . S
C1185 C1184 1.391 . S
C1185 C1189 1.376 . S
C1186 C1184 1.394 . S
C1186 C1187 1.369 . S
C1186 C1190 1.531 . S
C1187 C1186 1.369 . S
C1187 C1188 1.410 . S
C1187 C1195 1.503 . S
C1188 C1187 1.410 . S
C1188 C1189 1.392 . S
C1188 C1191 1.511 . S
C1189 C1185 1.376 . S
C1189 C1188 1.392 . S
C1189 H1201 0.929 . S
C1190 C1186 1.531 . S
C1190 H1202 0.960 . S
C1190 H1203 0.962 . S
C1190 H1204 0.960 . S
C1191 C1188 1.511 . S
C1191 H1205 0.961 . S
C1191 H1206 0.961 . S
C1191 H1207 0.961 . S
C1192 C1193 1.370 . S
C1192 C1194 1.363 . S
C1192 H1208 0.931 . S
C1193 C1192 1.370 . S
C1193 C1197 1.408 . S
C1194 C1192 1.363 . S
C1194 C1195 1.370 . S
C1194 C1198 1.524 . S
C1195 C1187 1.503 . S
C1195 C1194 1.370 . S
C1195 C1196 1.403 . S
C1196 C1195 1.403 . S
C1196 C1197 1.404 . S
C1196 C1199 1.539 . S
C1197 C1193 1.408 . S
C1197 C1196 1.404 . S
C1197 H1209 0.930 . S
C1198 C1194 1.524 . S
C1198 H1210 0.956 . S
C1198 H1211 0.961 . S
C1198 H1212 0.961 . S
C1199 C1196 1.539 . S
C1199 H1213 0.958 . S
C1199 H1214 0.961 . S
C1199 H1215 0.960 . S
H1200 C1184 0.931 . S
H1201 C1189 0.929 . S
H1202 C1190 0.960 . S
H1203 C1190 0.962 . S
H1204 C1190 0.960 . S
H1205 C1191 0.961 . S
H1206 C1191 0.961 . S
H1207 C1191 0.961 . S
H1208 C1192 0.931 . S
H1209 C1197 0.930 . S
H1210 C1198 0.956 . S
H1211 C1198 0.961 . S
H1212 C1198 0.961 . S
H1213 C1199 0.958 . S
H1214 C1199 0.961 . S
H1215 C1199 0.960 . S
C1216 C1217 1.391 . S
C1216 C1218 1.394 . S
C1216 H1232 0.931 . S
C1217 C1216 1.391 . S
C1217 C1221 1.376 . S
C1218 C1216 1.394 . S
C1218 C1219 1.369 . S
C1218 C1222 1.531 . S
C1219 C1218 1.369 . S
C1219 C1220 1.410 . S
C1219 C1227 1.503 . S
C1220 C1219 1.410 . S
C1220 C1221 1.392 . S
C1220 C1223 1.511 . S
C1221 C1217 1.376 . S
C1221 C1220 1.392 . S
C1221 H1233 0.929 . S
C1222 C1218 1.531 . S
C1222 H1234 0.960 . S
C1222 H1235 0.962 . S
C1222 H1236 0.960 . S
C1223 C1220 1.511 . S
C1223 H1237 0.961 . S
C1223 H1238 0.961 . S
C1223 H1239 0.961 . S
C1224 C1225 1.370 . S
C1224 C1226 1.363 . S
C1224 H1240 0.931 . S
C1225 C1224 1.370 . S
C1225 C1229 1.408 . S
C1226 C1224 1.363 . S
C1226 C1227 1.370 . S
C1226 C1230 1.524 . S
C1227 C1219 1.503 . S
C1227 C1226 1.370 . S
C1227 C1228 1.403 . S
C1228 C1227 1.403 . S
C1228 C1229 1.404 . S
C1228 C1231 1.539 . S
C1229 C1225 1.408 . S
C1229 C1228 1.404 . S
C1229 H1241 0.930 . S
C1230 C1226 1.524 . S
C1230 H1242 0.956 . S
C1230 H1243 0.961 . S
C1230 H1244 0.961 . S
C1231 C1228 1.539 . S
C1231 H1245 0.958 . S
C1231 H1246 0.961 . S
C1231 H1247 0.960 . S
H1232 C1216 0.931 . S
H1233 C1221 0.929 . S
H1234 C1222 0.960 . S
H1235 C1222 0.962 . S
H1236 C1222 0.960 . S
H1237 C1223 0.961 . S
H1238 C1223 0.961 . S
H1239 C1223 0.961 . S
H1240 C1224 0.931 . S
H1241 C1229 0.930 . S
H1242 C1230 0.956 . S
H1243 C1230 0.961 . S
H1244 C1230 0.961 . S
H1245 C1231 0.958 . S
H1246 C1231 0.961 . S
H1247 C1231 0.960 . S
C1248 C1249 1.391 . S
C1248 C1250 1.394 . S
C1248 H1264 0.931 . S
C1249 C1248 1.391 . S
C1249 C1253 1.376 . S
C1250 C1248 1.394 . S
C1250 C1251 1.369 . S
C1250 C1254 1.531 . S
C1251 C1250 1.369 . S
C1251 C1252 1.410 . S
C1251 C1259 1.503 . S
C1252 C1251 1.410 . S
C1252 C1253 1.392 . S
C1252 C1255 1.511 . S
C1253 C1249 1.376 . S
C1253 C1252 1.392 . S
C1253 H1265 0.929 . S
C1254 C1250 1.531 . S
C1254 H1266 0.960 . S
C1254 H1267 0.962 . S
C1254 H1268 0.960 . S
C1255 C1252 1.511 . S
C1255 H1269 0.961 . S
C1255 H1270 0.961 . S
C1255 H1271 0.961 . S
C1256 C1257 1.370 . S
C1256 C1258 1.363 . S
C1256 H1272 0.931 . S
C1257 C1256 1.370 . S
C1257 C1261 1.408 . S
C1258 C1256 1.363 . S
C1258 C1259 1.370 . S
C1258 C1262 1.524 . S
C1259 C1251 1.503 . S
C1259 C1258 1.370 . S
C1259 C1260 1.403 . S
C1260 C1259 1.403 . S
C1260 C1261 1.404 . S
C1260 C1263 1.539 . S
C1261 C1257 1.408 . S
C1261 C1260 1.404 . S
C1261 H1273 0.930 . S
C1262 C1258 1.524 . S
C1262 H1274 0.956 . S
C1262 H1275 0.961 . S
C1262 H1276 0.961 . S
C1263 C1260 1.539 . S
C1263 H1277 0.958 . S
C1263 H1278 0.961 . S
C1263 H1279 0.960 . S
H1264 C1248 0.931 . S
H1265 C1253 0.929 . S
H1266 C1254 0.960 . S
H1267 C1254 0.962 . S
H1268 C1254 0.960 . S
H1269 C1255 0.961 . S
H1270 C1255 0.961 . S
H1271 C1255 0.961 . S
H1272 C1256 0.931 . S
H1273 C1261 0.930 . S
H1274 C1262 0.956 . S
H1275 C1262 0.961 . S
H1276 C1262 0.961 . S
H1277 C1263 0.958 . S
H1278 C1263 0.961 . S
H1279 C1263 0.960 . S
C1280 C1281 1.391 . S
C1280 C1282 1.394 . S
C1280 H1296 0.931 . S
C1281 C1280 1.391 . S
C1281 C1285 1.376 . S
C1282 C1280 1.394 . S
C1282 C1283 1.369 . S
C1282 C1286 1.531 . S
C1283 C1282 1.369 . S
C1283 C1284 1.410 . S
C1283 C1291 1.503 . S
C1284 C1283 1.410 . S
C1284 C1285 1.392 . S
C1284 C1287 1.511 . S
C1285 C1281 1.376 . S
C1285 C1284 1.392 . S
C1285 H1297 0.929 . S
C1286 C1282 1.531 . S
C1286 H1298 0.960 . S
C1286 H1299 0.962 . S
C1286 H1300 0.960 . S
C1287 C1284 1.511 . S
C1287 H1301 0.961 . S
C1287 H1302 0.961 . S
C1287 H1303 0.961 . S
C1288 C1289 1.370 . S
C1288 C1290 1.363 . S
C1288 H1304 0.931 . S
C1289 C1288 1.370 . S
C1289 C1293 1.408 . S
C1290 C1288 1.363 . S
C1290 C1291 1.370 . S
C1290 C1294 1.524 . S
C1291 C1283 1.503 . S
C1291 C1290 1.370 . S
C1291 C1292 1.403 . S
C1292 C1291 1.403 . S
C1292 C1293 1.404 . S
C1292 C1295 1.539 . S
C1293 C1289 1.408 . S
C1293 C1292 1.404 . S
C1293 H1305 0.930 . S
C1294 C1290 1.524 . S
C1294 H1306 0.956 . S
C1294 H1307 0.961 . S
C1294 H1308 0.961 . S
C1295 C1292 1.539 . S
C1295 H1309 0.958 . S
C1295 H1310 0.961 . S
C1295 H1311 0.960 . S
H1296 C1280 0.931 . S
H1297 C1285 0.929 . S
H1298 C1286 0.960 . S
H1299 C1286 0.962 . S
H1300 C1286 0.960 . S
H1301 C1287 0.961 . S
H1302 C1287 0.961 . S
H1303 C1287 0.961 . S
H1304 C1288 0.931 . S
H1305 C1293 0.930 . S
H1306 C1294 0.956 . S
H1307 C1294 0.961 . S
H1308 C1294 0.961 . S
H1309 C1295 0.958 . S
H1310 C1295 0.961 . S
H1311 C1295 0.960 . S
C1312 C1313 1.391 . S
C1312 C1314 1.394 . S
C1312 H1328 0.931 . S
C1313 C1312 1.391 . S
C1313 C1317 1.376 . S
C1314 C1312 1.394 . S
C1314 C1315 1.369 . S
C1314 C1318 1.531 . S
C1315 C1314 1.369 . S
C1315 C1316 1.410 . S
C1315 C1323 1.503 . S
C1316 C1315 1.410 . S
C1316 C1317 1.392 . S
C1316 C1319 1.511 . S
C1317 C1313 1.376 . S
C1317 C1316 1.392 . S
C1317 H1329 0.929 . S
C1318 C1314 1.531 . S
C1318 H1330 0.960 . S
C1318 H1331 0.962 . S
C1318 H1332 0.960 . S
C1319 C1316 1.511 . S
C1319 H1333 0.961 . S
C1319 H1334 0.961 . S
C1319 H1335 0.961 . S
C1320 C1321 1.370 . S
C1320 C1322 1.363 . S
C1320 H1336 0.931 . S
C1321 C1320 1.370 . S
C1321 C1325 1.408 . S
C1322 C1320 1.363 . S
C1322 C1323 1.370 . S
C1322 C1326 1.524 . S
C1323 C1315 1.503 . S
C1323 C1322 1.370 . S
C1323 C1324 1.403 . S
C1324 C1323 1.403 . S
C1324 C1325 1.404 . S
C1324 C1327 1.539 . S
C1325 C1321 1.408 . S
C1325 C1324 1.404 . S
C1325 H1337 0.930 . S
C1326 C1322 1.524 . S
C1326 H1338 0.956 . S
C1326 H1339 0.961 . S
C1326 H1340 0.961 . S
C1327 C1324 1.539 . S
C1327 H1341 0.958 . S
C1327 H1342 0.961 . S
C1327 H1343 0.960 . S
H1328 C1312 0.931 . S
H1329 C1317 0.929 . S
H1330 C1318 0.960 . S
H1331 C1318 0.962 . S
H1332 C1318 0.960 . S
H1333 C1319 0.961 . S
H1334 C1319 0.961 . S
H1335 C1319 0.961 . S
H1336 C1320 0.931 . S
H1337 C1325 0.930 . S
H1338 C1326 0.956 . S
H1339 C1326 0.961 . S
H1340 C1326 0.961 . S
H1341 C1327 0.958 . S
H1342 C1327 0.961 . S
H1343 C1327 0.960 . S
C1344 C1345 1.391 . S
C1344 C1346 1.394 . S
C1344 H1360 0.931 . S
C1345 C1344 1.391 . S
C1345 C1349 1.376 . S
C1346 C1344 1.394 . S
C1346 C1347 1.369 . S
C1346 C1350 1.531 . S
C1347 C1346 1.369 . S
C1347 C1348 1.410 . S
C1347 C1355 1.503 . S
C1348 C1347 1.410 . S
C1348 C1349 1.392 . S
C1348 C1351 1.511 . S
C1349 C1345 1.376 . S
C1349 C1348 1.392 . S
C1349 H1361 0.929 . S
C1350 C1346 1.531 . S
C1350 H1362 0.960 . S
C1350 H1363 0.962 . S
C1350 H1364 0.960 . S
C1351 C1348 1.511 . S
C1351 H1365 0.961 . S
C1351 H1366 0.961 . S
C1351 H1367 0.961 . S
C1352 C1353 1.370 . S
C1352 C1354 1.363 . S
C1352 H1368 0.931 . S
C1353 C1352 1.370 . S
C1353 C1357 1.408 . S
C1354 C1352 1.363 . S
C1354 C1355 1.370 . S
C1354 C1358 1.524 . S
C1355 C1347 1.503 . S
C1355 C1354 1.370 . S
C1355 C1356 1.403 . S
C1356 C1355 1.403 . S
C1356 C1357 1.404 . S
C1356 C1359 1.539 . S
C1357 C1353 1.408 . S
C1357 C1356 1.404 . S
C1357 H1369 0.930 . S
C1358 C1354 1.524 . S
C1358 H1370 0.956 . S
C1358 H1371 0.961 . S
C1358 H1372 0.961 . S
C1359 C1356 1.539 . S
C1359 H1373 0.958 . S
C1359 H1374 0.961 . S
C1359 H1375 0.960 . S
H1360 C1344 0.931 . S
H1361 C1349 0.929 . S
H1362 C1350 0.960 . S
H1363 C1350 0.962 . S
H1364 C1350 0.960 . S
H1365 C1351 0.961 . S
H1366 C1351 0.961 . S
H1367 C1351 0.961 . S
H1368 C1352 0.931 . S
H1369 C1357 0.930 . S
H1370 C1358 0.956 . S
H1371 C1358 0.961 . S
H1372 C1358 0.961 . S
H1373 C1359 0.958 . S
H1374 C1359 0.961 . S
H1375 C1359 0.960 . S
C1376 C1377 1.391 . S
C1376 C1378 1.394 . S
C1376 H1392 0.931 . S
C1377 C1376 1.391 . S
C1377 C1381 1.376 . S
C1378 C1376 1.394 . S
C1378 C1379 1.369 . S
C1378 C1382 1.531 . S
C1379 C1378 1.369 . S
C1379 C1380 1.410 . S
C1379 C1387 1.503 . S
C1380 C1379 1.410 . S
C1380 C1381 1.392 . S
C1380 C1383 1.511 . S
C1381 C1377 1.376 . S
C1381 C1380 1.392 . S
C1381 H1393 0.929 . S
C1382 C1378 1.531 . S
C1382 H1394 0.960 . S
C1382 H1395 0.962 . S
C1382 H1396 0.960 . S
C1383 C1380 1.511 . S
C1383 H1397 0.961 . S
C1383 H1398 0.961 . S
C1383 H1399 0.961 . S
C1384 C1385 1.370 . S
C1384 C1386 1.363 . S
C1384 H1400 0.931 . S
C1385 C1384 1.370 . S
C1385 C1389 1.408 . S
C1386 C1384 1.363 . S
C1386 C1387 1.370 . S
C1386 C1390 1.524 . S
C1387 C1379 1.503 . S
C1387 C1386 1.370 . S
C1387 C1388 1.403 . S
C1388 C1387 1.403 . S
C1388 C1389 1.404 . S
C1388 C1391 1.539 . S
C1389 C1385 1.408 . S
C1389 C1388 1.404 . S
C1389 H1401 0.930 . S
C1390 C1386 1.524 . S
C1390 H1402 0.956 . S
C1390 H1403 0.961 . S
C1390 H1404 0.961 . S
C1391 C1388 1.539 . S
C1391 H1405 0.958 . S
C1391 H1406 0.961 . S
C1391 H1407 0.960 . S
H1392 C1376 0.931 . S
H1393 C1381 0.929 . S
H1394 C1382 0.960 . S
H1395 C1382 0.962 . S
H1396 C1382 0.960 . S
H1397 C1383 0.961 . S
H1398 C1383 0.961 . S
H1399 C1383 0.961 . S
H1400 C1384 0.931 . S
H1401 C1389 0.930 . S
H1402 C1390 0.956 . S
H1403 C1390 0.961 . S
H1404 C1390 0.961 . S
H1405 C1391 0.958 . S
H1406 C1391 0.961 . S
H1407 C1391 0.960 . S
C1408 C1409 1.391 . S
C1408 C1410 1.394 . S
C1408 H1424 0.931 . S
C1409 C1408 1.391 . S
C1409 C1413 1.376 . S
C1410 C1408 1.394 . S
C1410 C1411 1.369 . S
C1410 C1414 1.531 . S
C1411 C1410 1.369 . S
C1411 C1412 1.410 . S
C1411 C1419 1.503 . S
C1412 C1411 1.410 . S
C1412 C1413 1.392 . S
C1412 C1415 1.511 . S
C1413 C1409 1.376 . S
C1413 C1412 1.392 . S
C1413 H1425 0.929 . S
C1414 C1410 1.531 . S
C1414 H1426 0.960 . S
C1414 H1427 0.962 . S
C1414 H1428 0.960 . S
C1415 C1412 1.511 . S
C1415 H1429 0.961 . S
C1415 H1430 0.961 . S
C1415 H1431 0.961 . S
C1416 C1417 1.370 . S
C1416 C1418 1.363 . S
C1416 H1432 0.931 . S
C1417 C1416 1.370 . S
C1417 C1421 1.408 . S
C1418 C1416 1.363 . S
C1418 C1419 1.370 . S
C1418 C1422 1.524 . S
C1419 C1411 1.503 . S
C1419 C1418 1.370 . S
C1419 C1420 1.403 . S
C1420 C1419 1.403 . S
C1420 C1421 1.404 . S
C1420 C1423 1.539 . S
C1421 C1417 1.408 . S
C1421 C1420 1.404 . S
C1421 H1433 0.930 . S
C1422 C1418 1.524 . S
C1422 H1434 0.956 . S
C1422 H1435 0.961 . S
C1422 H1436 0.961 . S
C1423 C1420 1.539 . S
C1423 H1437 0.958 . S
C1423 H1438 0.961 . S
C1423 H1439 0.960 . S
H1424 C1408 0.931 . S
H1425 C1413 0.929 . S
H1426 C1414 0.960 . S
H1427 C1414 0.962 . S
H1428 C1414 0.960 . S
H1429 C1415 0.961 . S
H1430 C1415 0.961 . S
H1431 C1415 0.961 . S
H1432 C1416 0.931 . S
H1433 C1421 0.930 . S
H1434 C1422 0.956 . S
H1435 C1422 0.961 . S
H1436 C1422 0.961 . S
H1437 C1423 0.958 . S
H1438 C1423 0.961 . S
H1439 C1423 0.960 . S
C1440 C1441 1.391 . S
C1440 C1442 1.394 . S
C1440 H1456 0.931 . S
C1441 C1440 1.391 . S
C1441 C1445 1.376 . S
C1442 C1440 1.394 . S
C1442 C1443 1.369 . S
C1442 C1446 1.531 . S
C1443 C1442 1.369 . S
C1443 C1444 1.410 . S
C1443 C1451 1.503 . S
C1444 C1443 1.410 . S
C1444 C1445 1.392 . S
C1444 C1447 1.511 . S
C1445 C1441 1.376 . S
C1445 C1444 1.392 . S
C1445 H1457 0.929 . S
C1446 C1442 1.531 . S
C1446 H1458 0.960 . S
C1446 H1459 0.962 . S
C1446 H1460 0.960 . S
C1447 C1444 1.511 . S
C1447 H1461 0.961 . S
C1447 H1462 0.961 . S
C1447 H1463 0.961 . S
C1448 C1449 1.370 . S
C1448 C1450 1.363 . S
C1448 H1464 0.931 . S
C1449 C1448 1.370 . S
C1449 C1453 1.408 . S
C1450 C1448 1.363 . S
C1450 C1451 1.370 . S
C1450 C1454 1.524 . S
C1451 C1443 1.503 . S
C1451 C1450 1.370 . S
C1451 C1452 1.403 . S
C1452 C1451 1.403 . S
C1452 C1453 1.404 . S
C1452 C1455 1.539 . S
C1453 C1449 1.408 . S
C1453 C1452 1.404 . S
C1453 H1465 0.930 . S
C1454 C1450 1.524 . S
C1454 H1466 0.956 . S
C1454 H1467 0.961 . S
C1454 H1468 0.961 . S
C1455 C1452 1.539 . S
C1455 H1469 0.958 . S
C1455 H1470 0.961 . S
C1455 H1471 0.960 . S
H1456 C1440 0.931 . S
H1457 C1445 0.929 . S
H1458 C1446 0.960 . S
H1459 C1446 0.962 . S
H1460 C1446 0.960 . S
H1461 C1447 0.961 . S
H1462 C1447 0.961 . S
H1463 C1447 0.961 . S
H1464 C1448 0.931 . S
H1465 C1453 0.930 . S
H1466 C1454 0.956 . S
H1467 C1454 0.961 . S
H1468 C1454 0.961 . S
H1469 C1455 0.958 . S
H1470 C1455 0.961 . S
H1471 C1455 0.960 . S
C1472 C1473 1.391 . S
C1472 C1474 1.394 . S
C1472 H1488 0.931 . S
C1473 C1472 1.391 . S
C1473 C1477 1.376 . S
C1474 C1472 1.394 . S
C1474 C1475 1.369 . S
C1474 C1478 1.531 . S
C1475 C1474 1.369 . S
C1475 C1476 1.410 . S
C1475 C1483 1.503 . S
C1476 C1475 1.410 . S
C1476 C1477 1.392 . S
C1476 C1479 1.511 . S
C1477 C1473 1.376 . S
C1477 C1476 1.392 . S
C1477 H1489 0.929 . S
C1478 C1474 1.531 . S
C1478 H1490 0.960 . S
C1478 H1491 0.962 . S
C1478 H1492 0.960 . S
C1479 C1476 1.511 . S
C1479 H1493 0.961 . S
C1479 H1494 0.961 . S
C1479 H1495 0.961 . S
C1480 C1481 1.370 . S
C1480 C1482 1.363 . S
C1480 H1496 0.931 . S
C1481 C1480 1.370 . S
C1481 C1485 1.408 . S
C1482 C1480 1.363 . S
C1482 C1483 1.370 . S
C1482 C1486 1.524 . S
C1483 C1475 1.503 . S
C1483 C1482 1.370 . S
C1483 C1484 1.403 . S
C1484 C1483 1.403 . S
C1484 C1485 1.404 . S
C1484 C1487 1.539 . S
C1485 C1481 1.408 . S
C1485 C1484 1.404 . S
C1485 H1497 0.930 . S
C1486 C1482 1.524 . S
C1486 H1498 0.956 . S
C1486 H1499 0.961 . S
C1486 H1500 0.961 . S
C1487 C1484 1.539 . S
C1487 H1501 0.958 . S
C1487 H1502 0.961 . S
C1487 H1503 0.960 . S
H1488 C1472 0.931 . S
H1489 C1477 0.929 . S
H1490 C1478 0.960 . S
H1491 C1478 0.962 . S
H1492 C1478 0.960 . S
H1493 C1479 0.961 . S
H1494 C1479 0.961 . S
H1495 C1479 0.961 . S
H1496 C1480 0.931 . S
H1497 C1485 0.930 . S
H1498 C1486 0.956 . S
H1499 C1486 0.961 . S
H1500 C1486 0.961 . S
H1501 C1487 0.958 . S
H1502 C1487 0.961 . S
H1503 C1487 0.960 . S
C1504 C1505 1.391 . S
C1504 C1506 1.394 . S
C1504 H1520 0.931 . S
C1505 C1504 1.391 . S
C1505 C1509 1.376 . S
C1506 C1504 1.394 . S
C1506 C1507 1.369 . S
C1506 C1510 1.531 . S
C1507 C1506 1.369 . S
C1507 C1508 1.410 . S
C1507 C1515 1.503 . S
C1508 C1507 1.410 . S
C1508 C1509 1.392 . S
C1508 C1511 1.511 . S
C1509 C1505 1.376 . S
C1509 C1508 1.392 . S
C1509 H1521 0.929 . S
C1510 C1506 1.531 . S
C1510 H1522 0.960 . S
C1510 H1523 0.962 . S
C1510 H1524 0.960 . S
C1511 C1508 1.511 . S
C1511 H1525 0.961 . S
C1511 H1526 0.961 . S
C1511 H1527 0.961 . S
C1512 C1513 1.370 . S
C1512 C1514 1.363 . S
C1512 H1528 0.931 . S
C1513 C1512 1.370 . S
C1513 C1517 1.408 . S
C1514 C1512 1.363 . S
C1514 C1515 1.370 . S
C1514 C1518 1.524 . S
C1515 C1507 1.503 . S
C1515 C1514 1.370 . S
C1515 C1516 1.403 . S
C1516 C1515 1.403 . S
C1516 C1517 1.404 . S
C1516 C1519 1.539 . S
C1517 C1513 1.408 . S
C1517 C1516 1.404 . S
C1517 H1529 0.930 . S
C1518 C1514 1.524 . S
C1518 H1530 0.956 . S
C1518 H1531 0.961 . S
C1518 H1532 0.961 . S
C1519 C1516 1.539 . S
C1519 H1533 0.958 . S
C1519 H1534 0.961 . S
C1519 H1535 0.960 . S
H1520 C1504 0.931 . S
H1521 C1509 0.929 . S
H1522 C1510 0.960 . S
H1523 C1510 0.962 . S
H1524 C1510 0.960 . S
H1525 C1511 0.961 . S
H1526 C1511 0.961 . S
H1527 C1511 0.961 . S
H1528 C1512 0.931 . S
H1529 C1517 0.930 . S
H1530 C1518 0.956 . S
H1531 C1518 0.961 . S
H1532 C1518 0.961 . S
H1533 C1519 0.958 . S
H1534 C1519 0.961 . S
H1535 C1519 0.960 . S
C1536 C1537 1.391 . S
C1536 C1538 1.394 . S
C1536 H1552 0.931 . S
C1537 C1536 1.391 . S
C1537 C1541 1.376 . S
C1538 C1536 1.394 . S
C1538 C1539 1.369 . S
C1538 C1542 1.531 . S
C1539 C1538 1.369 . S
C1539 C1540 1.410 . S
C1539 C1547 1.503 . S
C1540 C1539 1.410 . S
C1540 C1541 1.392 . S
C1540 C1543 1.511 . S
C1541 C1537 1.376 . S
C1541 C1540 1.392 . S
C1541 H1553 0.929 . S
C1542 C1538 1.531 . S
C1542 H1554 0.960 . S
C1542 H1555 0.962 . S
C1542 H1556 0.960 . S
C1543 C1540 1.511 . S
C1543 H1557 0.961 . S
C1543 H1558 0.961 . S
C1543 H1559 0.961 . S
C1544 C1545 1.370 . S
C1544 C1546 1.363 . S
C1544 H1560 0.931 . S
C1545 C1544 1.370 . S
C1545 C1549 1.408 . S
C1546 C1544 1.363 . S
C1546 C1547 1.370 . S
C1546 C1550 1.524 . S
C1547 C1539 1.503 . S
C1547 C1546 1.370 . S
C1547 C1548 1.403 . S
C1548 C1547 1.403 . S
C1548 C1549 1.404 . S
C1548 C1551 1.539 . S
C1549 C1545 1.408 . S
C1549 C1548 1.404 . S
C1549 H1561 0.930 . S
C1550 C1546 1.524 . S
C1550 H1562 0.956 . S
C1550 H1563 0.961 . S
C1550 H1564 0.961 . S
C1551 C1548 1.539 . S
C1551 H1565 0.958 . S
C1551 H1566 0.961 . S
C1551 H1567 0.960 . S
H1552 C1536 0.931 . S
H1553 C1541 0.929 . S
H1554 C1542 0.960 . S
H1555 C1542 0.962 . S
H1556 C1542 0.960 . S
H1557 C1543 0.961 . S
H1558 C1543 0.961 . S
H1559 C1543 0.961 . S
H1560 C1544 0.931 . S
H1561 C1549 0.930 . S
H1562 C1550 0.956 . S
H1563 C1550 0.961 . S
H1564 C1550 0.961 . S
H1565 C1551 0.958 . S
H1566 C1551 0.961 . S
H1567 C1551 0.960 . S
C1568 C1569 1.391 . S
C1568 C1570 1.394 . S
C1568 H1584 0.931 . S
C1569 C1568 1.391 . S
C1569 C1573 1.376 . S
C1570 C1568 1.394 . S
C1570 C1571 1.369 . S
C1570 C1574 1.531 . S
C1571 C1570 1.369 . S
C1571 C1572 1.410 . S
C1571 C1579 1.503 . S
C1572 C1571 1.410 . S
C1572 C1573 1.392 . S
C1572 C1575 1.511 . S
C1573 C1569 1.376 . S
C1573 C1572 1.392 . S
C1573 H1585 0.929 . S
C1574 C1570 1.531 . S
C1574 H1586 0.960 . S
C1574 H1587 0.962 . S
C1574 H1588 0.960 . S
C1575 C1572 1.511 . S
C1575 H1589 0.961 . S
C1575 H1590 0.961 . S
C1575 H1591 0.961 . S
C1576 C1577 1.370 . S
C1576 C1578 1.363 . S
C1576 H1592 0.931 . S
C1577 C1576 1.370 . S
C1577 C1581 1.408 . S
C1578 C1576 1.363 . S
C1578 C1579 1.370 . S
C1578 C1582 1.524 . S
C1579 C1571 1.503 . S
C1579 C1578 1.370 . S
C1579 C1580 1.403 . S
C1580 C1579 1.403 . S
C1580 C1581 1.404 . S
C1580 C1583 1.539 . S
C1581 C1577 1.408 . S
C1581 C1580 1.404 . S
C1581 H1593 0.930 . S
C1582 C1578 1.524 . S
C1582 H1594 0.956 . S
C1582 H1595 0.961 . S
C1582 H1596 0.961 . S
C1583 C1580 1.539 . S
C1583 H1597 0.958 . S
C1583 H1598 0.961 . S
C1583 H1599 0.960 . S
H1584 C1568 0.931 . S
H1585 C1573 0.929 . S
H1586 C1574 0.960 . S
H1587 C1574 0.962 . S
H1588 C1574 0.960 . S
H1589 C1575 0.961 . S
H1590 C1575 0.961 . S
H1591 C1575 0.961 . S
H1592 C1576 0.931 . S
H1593 C1581 0.930 . S
H1594 C1582 0.956 . S
H1595 C1582 0.961 . S
H1596 C1582 0.961 . S
H1597 C1583 0.958 . S
H1598 C1583 0.961 . S
H1599 C1583 0.960 . S
C1600 C1601 1.391 . S
C1600 C1602 1.394 . S
C1600 H1616 0.931 . S
C1601 C1600 1.391 . S
C1601 C1605 1.376 . S
C1602 C1600 1.394 . S
C1602 C1603 1.369 . S
C1602 C1606 1.531 . S
C1603 C1602 1.369 . S
C1603 C1604 1.410 . S
C1603 C1611 1.503 . S
C1604 C1603 1.410 . S
C1604 C1605 1.392 . S
C1604 C1607 1.511 . S
C1605 C1601 1.376 . S
C1605 C1604 1.392 . S
C1605 H1617 0.929 . S
C1606 C1602 1.531 . S
C1606 H1618 0.960 . S
C1606 H1619 0.962 . S
C1606 H1620 0.960 . S
C1607 C1604 1.511 . S
C1607 H1621 0.961 . S
C1607 H1622 0.961 . S
C1607 H1623 0.961 . S
C1608 C1609 1.370 . S
C1608 C1610 1.363 . S
C1608 H1624 0.931 . S
C1609 C1608 1.370 . S
C1609 C1613 1.408 . S
C1610 C1608 1.363 . S
C1610 C1611 1.370 . S
C1610 C1614 1.524 . S
C1611 C1603 1.503 . S
C1611 C1610 1.370 . S
C1611 C1612 1.403 . S
C1612 C1611 1.403 . S
C1612 C1613 1.404 . S
C1612 C1615 1.539 . S
C1613 C1609 1.408 . S
C1613 C1612 1.404 . S
C1613 H1625 0.930 . S
C1614 C1610 1.524 . S
C1614 H1626 0.956 . S
C1614 H1627 0.961 . S
C1614 H1628 0.961 . S
C1615 C1612 1.539 . S
C1615 H1629 0.958 . S
C1615 H1630 0.961 . S
C1615 H1631 0.960 . S
H1616 C1600 0.931 . S
H1617 C1605 0.929 . S
H1618 C1606 0.960 . S
H1619 C1606 0.962 . S
H1620 C1606 0.960 . S
H1621 C1607 0.961 . S
H1622 C1607 0.961 . S
H1623 C1607 0.961 . S
H1624 C1608 0.931 . S
H1625 C1613 0.930 . S
H1626 C1614 0.956 . S
H1627 C1614 0.961 . S
H1628 C1614 0.961 . S
H1629 C1615 0.958 . S
H1630 C1615 0.961 . S
H1631 C1615 0.960 . S
C1632 C1633 1.391 . S
C1632 C1634 1.394 . S
C1632 H1648 0.931 . S
C1633 C1632 1.391 . S
C1633 C1637 1.376 . S
C1634 C1632 1.394 . S
C1634 C1635 1.369 . S
C1634 C1638 1.531 . S
C1635 C1634 1.369 . S
C1635 C1636 1.410 . S
C1635 C1643 1.503 . S
C1636 C1635 1.410 . S
C1636 C1637 1.392 . S
C1636 C1639 1.511 . S
C1637 C1633 1.376 . S
C1637 C1636 1.392 . S
C1637 H1649 0.929 . S
C1638 C1634 1.531 . S
C1638 H1650 0.960 . S
C1638 H1651 0.962 . S
C1638 H1652 0.960 . S
C1639 C1636 1.511 . S
C1639 H1653 0.961 . S
C1639 H1654 0.961 . S
C1639 H1655 0.961 . S
C1640 C1641 1.370 . S
C1640 C1642 1.363 . S
C1640 H1656 0.931 . S
C1641 C1640 1.370 . S
C1641 C1645 1.408 . S
C1642 C1640 1.363 . S
C1642 C1643 1.370 . S
C1642 C1646 1.524 . S
C1643 C1635 1.503 . S
C1643 C1642 1.370 . S
C1643 C1644 1.403 . S
C1644 C1643 1.403 . S
C1644 C1645 1.404 . S
C1644 C1647 1.539 . S
C1645 C1641 1.408 . S
C1645 C1644 1.404 . S
C1645 H1657 0.930 . S
C1646 C1642 1.524 . S
C1646 H1658 0.956 . S
C1646 H1659 0.961 . S
C1646 H1660 0.961 . S
C1647 C1644 1.539 . S
C1647 H1661 0.958 . S
C1647 H1662 0.961 . S
C1647 H1663 0.960 . S
H1648 C1632 0.931 . S
H1649 C1637 0.929 . S
H1650 C1638 0.960 . S
H1651 C1638 0.962 . S
H1652 C1638 0.960 . S
H1653 C1639 0.961 . S
H1654 C1639 0.961 . S
H1655 C1639 0.961 . S
H1656 C1640 0.931 . S
H1657 C1645 0.930 . S
H1658 C1646 0.956 . S
H1659 C1646 0.961 . S
H1660 C1646 0.961 . S
H1661 C1647 0.958 . S
H1662 C1647 0.961 . S
H1663 C1647 0.960 . S
C1664 C1665 1.391 . S
C1664 C1666 1.394 . S
C1664 H1680 0.931 . S
C1665 C1664 1.391 . S
C1665 C1669 1.376 . S
C1666 C1664 1.394 . S
C1666 C1667 1.369 . S
C1666 C1670 1.531 . S
C1667 C1666 1.369 . S
C1667 C1668 1.410 . S
C1667 C1675 1.503 . S
C1668 C1667 1.410 . S
C1668 C1669 1.392 . S
C1668 C1671 1.511 . S
C1669 C1665 1.376 . S
C1669 C1668 1.392 . S
C1669 H1681 0.929 . S
C1670 C1666 1.531 . S
C1670 H1682 0.960 . S
C1670 H1683 0.962 . S
C1670 H1684 0.960 . S
C1671 C1668 1.511 . S
C1671 H1685 0.961 . S
C1671 H1686 0.961 . S
C1671 H1687 0.961 . S
C1672 C1673 1.370 . S
C1672 C1674 1.363 . S
C1672 H1688 0.931 . S
C1673 C1672 1.370 . S
C1673 C1677 1.408 . S
C1674 C1672 1.363 . S
C1674 C1675 1.370 . S
C1674 C1678 1.524 . S
C1675 C1667 1.503 . S
C1675 C1674 1.370 . S
C1675 C1676 1.403 . S
C1676 C1675 1.403 . S
C1676 C1677 1.404 . S
C1676 C1679 1.539 . S
C1677 C1673 1.408 . S
C1677 C1676 1.404 . S
C1677 H1689 0.930 . S
C1678 C1674 1.524 . S
C1678 H1690 0.956 . S
C1678 H1691 0.961 . S
C1678 H1692 0.961 . S
C1679 C1676 1.539 . S
C1679 H1693 0.958 . S
C1679 H1694 0.961 . S
C1679 H1695 0.960 . S
H1680 C1664 0.931 . S
H1681 C1669 0.929 . S
H1682 C1670 0.960 . S
H1683 C1670 0.962 . S
H1684 C1670 0.960 . S
H1685 C1671 0.961 . S
H1686 C1671 0.961 . S
H1687 C1671 0.961 . S
H1688 C1672 0.931 . S
H1689 C1677 0.930 . S
H1690 C1678 0.956 . S
H1691 C1678 0.961 . S
H1692 C1678 0.961 . S
H1693 C1679 0.958 . S
H1694 C1679 0.961 . S
H1695 C1679 0.960 . S
C1696 C1697 1.391 . S
C1696 C1698 1.394 . S
C1696 H1712 0.931 . S
C1697 C1696 1.391 . S
C1697 C1701 1.376 . S
C1698 C1696 1.394 . S
C1698 C1699 1.369 . S
C1698 C1702 1.531 . S
C1699 C1698 1.369 . S
C1699 C1700 1.410 . S
C1699 C1707 1.503 . S
C1700 C1699 1.410 . S
C1700 C1701 1.392 . S
C1700 C1703 1.511 . S
C1701 C1697 1.376 . S
C1701 C1700 1.392 . S
C1701 H1713 0.929 . S
C1702 C1698 1.531 . S
C1702 H1714 0.960 . S
C1702 H1715 0.962 . S
C1702 H1716 0.960 . S
C1703 C1700 1.511 . S
C1703 H1717 0.961 . S
C1703 H1718 0.961 . S
C1703 H1719 0.961 . S
C1704 C1705 1.370 . S
C1704 C1706 1.363 . S
C1704 H1720 0.931 . S
C1705 C1704 1.370 . S
C1705 C1709 1.408 . S
C1706 C1704 1.363 . S
C1706 C1707 1.370 . S
C1706 C1710 1.524 . S
C1707 C1699 1.503 . S
C1707 C1706 1.370 . S
C1707 C1708 1.403 . S
C1708 C1707 1.403 . S
C1708 C1709 1.404 . S
C1708 C1711 1.539 . S
C1709 C1705 1.408 . S
C1709 C1708 1.404 . S
C1709 H1721 0.930 . S
C1710 C1706 1.524 . S
C1710 H1722 0.956 . S
C1710 H1723 0.961 . S
C1710 H1724 0.961 . S
C1711 C1708 1.539 . S
C1711 H1725 0.958 . S
C1711 H1726 0.961 . S
C1711 H1727 0.960 . S
H1712 C1696 0.931 . S
H1713 C1701 0.929 . S
H1714 C1702 0.960 . S
H1715 C1702 0.962 . S
H1716 C1702 0.960 . S
H1717 C1703 0.961 . S
H1718 C1703 0.961 . S
H1719 C1703 0.961 . S
H1720 C1704 0.931 . S
H1721 C1709 0.930 . S
H1722 C1710 0.956 . S
H1723 C1710 0.961 . S
H1724 C1710 0.961 . S
H1725 C1711 0.958 . S
H1726 C1711 0.961 . S
H1727 C1711 0.960 . S
C1728 C1729 1.391 . S
C1728 C1730 1.394 . S
C1728 H1744 0.931 . S
C1729 C1728 1.391 . S
C1729 C1733 1.376 . S
C1730 C1728 1.394 . S
C1730 C1731 1.369 . S
C1730 C1734 1.531 . S
C1731 C1730 1.369 . S
C1731 C1732 1.410 . S
C1731 C1739 1.503 . S
C1732 C1731 1.410 . S
C1732 C1733 1.392 . S
C1732 C1735 1.511 . S
C1733 C1729 1.376 . S
C1733 C1732 1.392 . S
C1733 H1745 0.929 . S
C1734 C1730 1.531 . S
C1734 H1746 0.960 . S
C1734 H1747 0.962 . S
C1734 H1748 0.960 . S
C1735 C1732 1.511 . S
C1735 H1749 0.961 . S
C1735 H1750 0.961 . S
C1735 H1751 0.961 . S
C1736 C1737 1.370 . S
C1736 C1738 1.363 . S
C1736 H1752 0.931 . S
C1737 C1736 1.370 . S
C1737 C1741 1.408 . S
C1738 C1736 1.363 . S
C1738 C1739 1.370 . S
C1738 C1742 1.524 . S
C1739 C1731 1.503 . S
C1739 C1738 1.370 . S
C1739 C1740 1.403 . S
C1740 C1739 1.403 . S
C1740 C1741 1.404 . S
C1740 C1743 1.539 . S
C1741 C1737 1.408 . S
C1741 C1740 1.404 . S
C1741 H1753 0.930 . S
C1742 C1738 1.524 . S
C1742 H1754 0.956 . S
C1742 H1755 0.961 . S
C1742 H1756 0.961 . S
C1743 C1740 1.539 . S
C1743 H1757 0.958 . S
C1743 H1758 0.961 . S
C1743 H1759 0.960 . S
H1744 C1728 0.931 . S
H1745 C1733 0.929 . S
H1746 C1734 0.960 . S
H1747 C1734 0.962 . S
H1748 C1734 0.960 . S
H1749 C1735 0.961 . S
H1750 C1735 0.961 . S
H1751 C1735 0.961 . S
H1752 C1736 0.931 . S
H1753 C1741 0.930 . S
H1754 C1742 0.956 . S
H1755 C1742 0.961 . S
H1756 C1742 0.961 . S
H1757 C1743 0.958 . S
H1758 C1743 0.961 . S
H1759 C1743 0.960 . S
C1760 C1761 1.391 . S
C1760 C1762 1.394 . S
C1760 H1776 0.931 . S
C1761 C1760 1.391 . S
C1761 C1765 1.376 . S
C1762 C1760 1.394 . S
C1762 C1763 1.369 . S
C1762 C1766 1.531 . S
C1763 C1762 1.369 . S
C1763 C1764 1.410 . S
C1763 C1771 1.503 . S
C1764 C1763 1.410 . S
C1764 C1765 1.392 . S
C1764 C1767 1.511 . S
C1765 C1761 1.376 . S
C1765 C1764 1.392 . S
C1765 H1777 0.929 . S
C1766 C1762 1.531 . S
C1766 H1778 0.960 . S
C1766 H1779 0.962 . S
C1766 H1780 0.960 . S
C1767 C1764 1.511 . S
C1767 H1781 0.961 . S
C1767 H1782 0.961 . S
C1767 H1783 0.961 . S
C1768 C1769 1.370 . S
C1768 C1770 1.363 . S
C1768 H1784 0.931 . S
C1769 C1768 1.370 . S
C1769 C1773 1.408 . S
C1770 C1768 1.363 . S
C1770 C1771 1.370 . S
C1770 C1774 1.524 . S
C1771 C1763 1.503 . S
C1771 C1770 1.370 . S
C1771 C1772 1.403 . S
C1772 C1771 1.403 . S
C1772 C1773 1.404 . S
C1772 C1775 1.539 . S
C1773 C1769 1.408 . S
C1773 C1772 1.404 . S
C1773 H1785 0.930 . S
C1774 C1770 1.524 . S
C1774 H1786 0.956 . S
C1774 H1787 0.961 . S
C1774 H1788 0.961 . S
C1775 C1772 1.539 . S
C1775 H1789 0.958 . S
C1775 H1790 0.961 . S
C1775 H1791 0.960 . S
H1776 C1760 0.931 . S
H1777 C1765 0.929 . S
H1778 C1766 0.960 . S
H1779 C1766 0.962 . S
H1780 C1766 0.960 . S
H1781 C1767 0.961 . S
H1782 C1767 0.961 . S
H1783 C1767 0.961 . S
H1784 C1768 0.931 . S
H1785 C1773 0.930 . S
H1786 C1774 0.956 . S
H1787 C1774 0.961 . S
H1788 C1774 0.961 . S
H1789 C1775 0.958 . S
H1790 C1775 0.961 . S
H1791 C1775 0.960 . S
C1792 C1793 1.391 . S
C1792 C1794 1.394 . S
C1792 H1808 0.931 . S
C1793 C1792 1.391 . S
C1793 C1797 1.376 . S
C1794 C1792 1.394 . S
C1794 C1795 1.369 . S
C1794 C1798 1.531 . S
C1795 C1794 1.369 . S
C1795 C1796 1.410 . S
C1795 C1803 1.503 . S
C1796 C1795 1.410 . S
C1796 C1797 1.392 . S
C1796 C1799 1.511 . S
C1797 C1793 1.376 . S
C1797 C1796 1.392 . S
C1797 H1809 0.929 . S
C1798 C1794 1.531 . S
C1798 H1810 0.960 . S
C1798 H1811 0.962 . S
C1798 H1812 0.960 . S
C1799 C1796 1.511 . S
C1799 H1813 0.961 . S
C1799 H1814 0.961 . S
C1799 H1815 0.961 . S
C1800 C1801 1.370 . S
C1800 C1802 1.363 . S
C1800 H1816 0.931 . S
C1801 C1800 1.370 . S
C1801 C1805 1.408 . S
C1802 C1800 1.363 . S
C1802 C1803 1.370 . S
C1802 C1806 1.524 . S
C1803 C1795 1.503 . S
C1803 C1802 1.370 . S
C1803 C1804 1.403 . S
C1804 C1803 1.403 . S
C1804 C1805 1.404 . S
C1804 C1807 1.539 . S
C1805 C1801 1.408 . S
C1805 C1804 1.404 . S
C1805 H1817 0.930 . S
C1806 C1802 1.524 . S
C1806 H1818 0.956 . S
C1806 H1819 0.961 . S
C1806 H1820 0.961 . S
C1807 C1804 1.539 . S
C1807 H1821 0.958 . S
C1807 H1822 0.961 . S
C1807 H1823 0.960 . S
H1808 C1792 0.931 . S
H1809 C1797 0.929 . S
H1810 C1798 0.960 . S
H1811 C1798 0.962 . S
H1812 C1798 0.960 . S
H1813 C1799 0.961 . S
H1814 C1799 0.961 . S
H1815 C1799 0.961 . S
H1816 C1800 0.931 . S
H1817 C1805 0.930 . S
H1818 C1806 0.956 . S
H1819 C1806 0.961 . S
H1820 C1806 0.961 . S
H1821 C1807 0.958 . S
H1822 C1807 0.961 . S
H1823 C1807 0.960 . S
C1824 C1825 1.391 . S
C1824 C1826 1.394 . S
C1824 H1840 0.931 . S
C1825 C1824 1.391 . S
C1825 C1829 1.376 . S
C1826 C1824 1.394 . S
C1826 C1827 1.369 . S
C1826 C1830 1.531 . S
C1827 C1826 1.369 . S
C1827 C1828 1.410 . S
C1827 C1835 1.503 . S
C1828 C1827 1.410 . S
C1828 C1829 1.392 . S
C1828 C1831 1.511 . S
C1829 C1825 1.376 . S
C1829 C1828 1.392 . S
C1829 H1841 0.929 . S
C1830 C1826 1.531 . S
C1830 H1842 0.960 . S
C1830 H1843 0.962 . S
C1830 H1844 0.960 . S
C1831 C1828 1.511 . S
C1831 H1845 0.961 . S
C1831 H1846 0.961 . S
C1831 H1847 0.961 . S
C1832 C1833 1.370 . S
C1832 C1834 1.363 . S
C1832 H1848 0.931 . S
C1833 C1832 1.370 . S
C1833 C1837 1.408 . S
C1834 C1832 1.363 . S
C1834 C1835 1.370 . S
C1834 C1838 1.524 . S
C1835 C1827 1.503 . S
C1835 C1834 1.370 . S
C1835 C1836 1.403 . S
C1836 C1835 1.403 . S
C1836 C1837 1.404 . S
C1836 C1839 1.539 . S
C1837 C1833 1.408 . S
C1837 C1836 1.404 . S
C1837 H1849 0.930 . S
C1838 C1834 1.524 . S
C1838 H1850 0.956 . S
C1838 H1851 0.961 . S
C1838 H1852 0.961 . S
C1839 C1836 1.539 . S
C1839 H1853 0.958 . S
C1839 H1854 0.961 . S
C1839 H1855 0.960 . S
H1840 C1824 0.931 . S
H1841 C1829 0.929 . S
H1842 C1830 0.960 . S
H1843 C1830 0.962 . S
H1844 C1830 0.960 . S
H1845 C1831 0.961 . S
H1846 C1831 0.961 . S
H1847 C1831 0.961 . S
H1848 C1832 0.931 . S
H1849 C1837 0.930 . S
H1850 C1838 0.956 . S
H1851 C1838 0.961 . S
H1852 C1838 0.961 . S
H1853 C1839 0.958 . S
H1854 C1839 0.961 . S
H1855 C1839 0.960 . S
C1856 C1857 1.391 . S
C1856 C1858 1.394 . S
C1856 H1872 0.931 . S
C1857 C1856 1.391 . S
C1857 C1861 1.376 . S
C1858 C1856 1.394 . S
C1858 C1859 1.369 . S
C1858 C1862 1.531 . S
C1859 C1858 1.369 . S
C1859 C1860 1.410 . S
C1859 C1867 1.503 . S
C1860 C1859 1.410 . S
C1860 C1861 1.392 . S
C1860 C1863 1.511 . S
C1861 C1857 1.376 . S
C1861 C1860 1.392 . S
C1861 H1873 0.929 . S
C1862 C1858 1.531 . S
C1862 H1874 0.960 . S
C1862 H1875 0.962 . S
C1862 H1876 0.960 . S
C1863 C1860 1.511 . S
C1863 H1877 0.961 . S
C1863 H1878 0.961 . S
C1863 H1879 0.961 . S
C1864 C1865 1.370 . S
C1864 C1866 1.363 . S
C1864 H1880 0.931 . S
C1865 C1864 1.370 . S
C1865 C1869 1.408 . S
C1866 C1864 1.363 . S
C1866 C1867 1.370 . S
C1866 C1870 1.524 . S
C1867 C1859 1.503 . S
C1867 C1866 1.370 . S
C1867 C1868 1.403 . S
C1868 C1867 1.403 . S
C1868 C1869 1.404 . S
C1868 C1871 1.539 . S
C1869 C1865 1.408 . S
C1869 C1868 1.404 . S
C1869 H1881 0.930 . S
C1870 C1866 1.524 . S
C1870 H1882 0.956 . S
C1870 H1883 0.961 . S
C1870 H1884 0.961 . S
C1871 C1868 1.539 . S
C1871 H1885 0.958 . S
C1871 H1886 0.961 . S
C1871 H1887 0.960 . S
H1872 C1856 0.931 . S
H1873 C1861 0.929 . S
H1874 C1862 0.960 . S
H1875 C1862 0.962 . S
H1876 C1862 0.960 . S
H1877 C1863 0.961 . S
H1878 C1863 0.961 . S
H1879 C1863 0.961 . S
H1880 C1864 0.931 . S
H1881 C1869 0.930 . S
H1882 C1870 0.956 . S
H1883 C1870 0.961 . S
H1884 C1870 0.961 . S
H1885 C1871 0.958 . S
H1886 C1871 0.961 . S
H1887 C1871 0.960 . S
C1888 C1889 1.391 . S
C1888 C1890 1.394 . S
C1888 H1904 0.931 . S
C1889 C1888 1.391 . S
C1889 C1893 1.376 . S
C1890 C1888 1.394 . S
C1890 C1891 1.369 . S
C1890 C1894 1.531 . S
C1891 C1890 1.369 . S
C1891 C1892 1.410 . S
C1891 C1899 1.503 . S
C1892 C1891 1.410 . S
C1892 C1893 1.392 . S
C1892 C1895 1.511 . S
C1893 C1889 1.376 . S
C1893 C1892 1.392 . S
C1893 H1905 0.929 . S
C1894 C1890 1.531 . S
C1894 H1906 0.960 . S
C1894 H1907 0.962 . S
C1894 H1908 0.960 . S
C1895 C1892 1.511 . S
C1895 H1909 0.961 . S
C1895 H1910 0.961 . S
C1895 H1911 0.961 . S
C1896 C1897 1.370 . S
C1896 C1898 1.363 . S
C1896 H1912 0.931 . S
C1897 C1896 1.370 . S
C1897 C1901 1.408 . S
C1898 C1896 1.363 . S
C1898 C1899 1.370 . S
C1898 C1902 1.524 . S
C1899 C1891 1.503 . S
C1899 C1898 1.370 . S
C1899 C1900 1.403 . S
C1900 C1899 1.403 . S
C1900 C1901 1.404 . S
C1900 C1903 1.539 . S
C1901 C1897 1.408 . S
C1901 C1900 1.404 . S
C1901 H1913 0.930 . S
C1902 C1898 1.524 . S
C1902 H1914 0.956 . S
C1902 H1915 0.961 . S
C1902 H1916 0.961 . S
C1903 C1900 1.539 . S
C1903 H1917 0.958 . S
C1903 H1918 0.961 . S
C1903 H1919 0.960 . S
H1904 C1888 0.931 . S
H1905 C1893 0.929 . S
H1906 C1894 0.960 . S
H1907 C1894 0.962 . S
H1908 C1894 0.960 . S
H1909 C1895 0.961 . S
H1910 C1895 0.961 . S
H1911 C1895 0.961 . S
H1912 C1896 0.931 . S
H1913 C1901 0.930 . S
H1914 C1902 0.956 . S
H1915 C1902 0.961 . S
H1916 C1902 0.961 . S
H1917 C1903 0.958 . S
H1918 C1903 0.961 . S
H1919 C1903 0.960 . S
C1920 C1921 1.391 . S
C1920 C1922 1.394 . S
C1920 H1936 0.931 . S
C1921 C1920 1.391 . S
C1921 C1925 1.376 . S
C1922 C1920 1.394 . S
C1922 C1923 1.369 . S
C1922 C1926 1.531 . S
C1923 C1922 1.369 . S
C1923 C1924 1.410 . S
C1923 C1931 1.503 . S
C1924 C1923 1.410 . S
C1924 C1925 1.392 . S
C1924 C1927 1.511 . S
C1925 C1921 1.376 . S
C1925 C1924 1.392 . S
C1925 H1937 0.929 . S
C1926 C1922 1.531 . S
C1926 H1938 0.960 . S
C1926 H1939 0.962 . S
C1926 H1940 0.960 . S
C1927 C1924 1.511 . S
C1927 H1941 0.961 . S
C1927 H1942 0.961 . S
C1927 H1943 0.961 . S
C1928 C1929 1.370 . S
C1928 C1930 1.363 . S
C1928 H1944 0.931 . S
C1929 C1928 1.370 . S
C1929 C1933 1.408 . S
C1930 C1928 1.363 . S
C1930 C1931 1.370 . S
C1930 C1934 1.524 . S
C1931 C1923 1.503 . S
C1931 C1930 1.370 . S
C1931 C1932 1.403 . S
C1932 C1931 1.403 . S
C1932 C1933 1.404 . S
C1932 C1935 1.539 . S
C1933 C1929 1.408 . S
C1933 C1932 1.404 . S
C1933 H1945 0.930 . S
C1934 C1930 1.524 . S
C1934 H1946 0.956 . S
C1934 H1947 0.961 . S
C1934 H1948 0.961 . S
C1935 C1932 1.539 . S
C1935 H1949 0.958 . S
C1935 H1950 0.961 . S
C1935 H1951 0.960 . S
H1936 C1920 0.931 . S
H1937 C1925 0.929 . S
H1938 C1926 0.960 . S
H1939 C1926 0.962 . S
H1940 C1926 0.960 . S
H1941 C1927 0.961 . S
H1942 C1927 0.961 . S
H1943 C1927 0.961 . S
H1944 C1928 0.931 . S
H1945 C1933 0.930 . S
H1946 C1934 0.956 . S
H1947 C1934 0.961 . S
H1948 C1934 0.961 . S
H1949 C1935 0.958 . S
H1950 C1935 0.961 . S
H1951 C1935 0.960 . S
C1952 C1953 1.391 . S
C1952 C1954 1.394 . S
C1952 H1968 0.931 . S
C1953 C1952 1.391 . S
C1953 C1957 1.376 . S
C1954 C1952 1.394 . S
C1954 C1955 1.369 . S
C1954 C1958 1.531 . S
C1955 C1954 1.369 . S
C1955 C1956 1.410 . S
C1955 C1963 1.503 . S
C1956 C1955 1.410 . S
C1956 C1957 1.392 . S
C1956 C1959 1.511 . S
C1957 C1953 1.376 . S
C1957 C1956 1.392 . S
C1957 H1969 0.929 . S
C1958 C1954 1.531 . S
C1958 H1970 0.960 . S
C1958 H1971 0.962 . S
C1958 H1972 0.960 . S
C1959 C1956 1.511 . S
C1959 H1973 0.961 . S
C1959 H1974 0.961 . S
C1959 H1975 0.961 . S
C1960 C1961 1.370 . S
C1960 C1962 1.363 . S
C1960 H1976 0.931 . S
C1961 C1960 1.370 . S
C1961 C1965 1.408 . S
C1962 C1960 1.363 . S
C1962 C1963 1.370 . S
C1962 C1966 1.524 . S
C1963 C1955 1.503 . S
C1963 C1962 1.370 . S
C1963 C1964 1.403 . S
C1964 C1963 1.403 . S
C1964 C1965 1.404 . S
C1964 C1967 1.539 . S
C1965 C1961 1.408 . S
C1965 C1964 1.404 . S
C1965 H1977 0.930 . S
C1966 C1962 1.524 . S
C1966 H1978 0.956 . S
C1966 H1979 0.961 . S
C1966 H1980 0.961 . S
C1967 C1964 1.539 . S
C1967 H1981 0.958 . S
C1967 H1982 0.961 . S
C1967 H1983 0.960 . S
H1968 C1952 0.931 . S
H1969 C1957 0.929 . S
H1970 C1958 0.960 . S
H1971 C1958 0.962 . S
H1972 C1958 0.960 . S
H1973 C1959 0.961 . S
H1974 C1959 0.961 . S
H1975 C1959 0.961 . S
H1976 C1960 0.931 . S
H1977 C1965 0.930 . S
H1978 C1966 0.956 . S
H1979 C1966 0.961 . S
H1980 C1966 0.961 . S
H1981 C1967 0.958 . S
H1982 C1967 0.961 . S
H1983 C1967 0.960 . S
C1984 C1985 1.391 . S
C1984 C1986 1.394 . S
C1984 H2000 0.931 . S
C1985 C1984 1.391 . S
C1985 C1989 1.376 . S
C1986 C1984 1.394 . S
C1986 C1987 1.369 . S
C1986 C1990 1.531 . S
C1987 C1986 1.369 . S
C1987 C1988 1.410 . S
C1987 C1995 1.503 . S
C1988 C1987 1.410 . S
C1988 C1989 1.392 . S
C1988 C1991 1.511 . S
C1989 C1985 1.376 . S
C1989 C1988 1.392 . S
C1989 H2001 0.929 . S
C1990 C1986 1.531 . S
C1990 H2002 0.960 . S
C1990 H2003 0.962 . S
C1990 H2004 0.960 . S
C1991 C1988 1.511 . S
C1991 H2005 0.961 . S
C1991 H2006 0.961 . S
C1991 H2007 0.961 . S
C1992 C1993 1.370 . S
C1992 C1994 1.363 . S
C1992 H2008 0.931 . S
C1993 C1992 1.370 . S
C1993 C1997 1.408 . S
C1994 C1992 1.363 . S
C1994 C1995 1.370 . S
C1994 C1998 1.524 . S
C1995 C1987 1.503 . S
C1995 C1994 1.370 . S
C1995 C1996 1.403 . S
C1996 C1995 1.403 . S
C1996 C1997 1.404 . S
C1996 C1999 1.539 . S
C1997 C1993 1.408 . S
C1997 C1996 1.404 . S
C1997 H2009 0.930 . S
C1998 C1994 1.524 . S
C1998 H2010 0.956 . S
C1998 H2011 0.961 . S
C1998 H2012 0.961 . S
C1999 C1996 1.539 . S
C1999 H2013 0.958 . S
C1999 H2014 0.961 . S
C1999 H2015 0.960 . S
H2000 C1984 0.931 . S
H2001 C1989 0.929 . S
H2002 C1990 0.960 . S
H2003 C1990 0.962 . S
H2004 C1990 0.960 . S
H2005 C1991 0.961 . S
H2006 C1991 0.961 . S
H2007 C1991 0.961 . S
H2008 C1992 0.931 . S
H2009 C1997 0.930 . S
H2010 C1998 0.956 . S
H2011 C1998 0.961 . S
H2012 C1998 0.961 . S
H2013 C1999 0.958 . S
H2014 C1999 0.961 . S
H2015 C1999 0.960 . S
C2016 C2017 1.391 . S
C2016 C2018 1.394 . S
C2016 H2032 0.931 . S
C2017 C2016 1.391 . S
C2017 C2021 1.376 . S
C2018 C2016 1.394 . S
C2018 C2019 1.369 . S
C2018 C2022 1.531 . S
C2019 C2018 1.369 . S
C2019 C2020 1.410 . S
C2019 C2027 1.503 . S
C2020 C2019 1.410 . S
C2020 C2021 1.392 . S
C2020 C2023 1.511 . S
C2021 C2017 1.376 . S
C2021 C2020 1.392 . S
C2021 H2033 0.929 . S
C2022 C2018 1.531 . S
C2022 H2034 0.960 . S
C2022 H2035 0.962 . S
C2022 H2036 0.960 . S
C2023 C2020 1.511 . S
C2023 H2037 0.961 . S
C2023 H2038 0.961 . S
C2023 H2039 0.961 . S
C2024 C2025 1.370 . S
C2024 C2026 1.363 . S
C2024 H2040 0.931 . S
C2025 C2024 1.370 . S
C2025 C2029 1.408 . S
C2026 C2024 1.363 . S
C2026 C2027 1.370 . S
C2026 C2030 1.524 . S
C2027 C2019 1.503 . S
C2027 C2026 1.370 . S
C2027 C2028 1.403 . S
C2028 C2027 1.403 . S
C2028 C2029 1.404 . S
C2028 C2031 1.539 . S
C2029 C2025 1.408 . S
C2029 C2028 1.404 . S
C2029 H2041 0.930 . S
C2030 C2026 1.524 . S
C2030 H2042 0.956 . S
C2030 H2043 0.961 . S
C2030 H2044 0.961 . S
C2031 C2028 1.539 . S
C2031 H2045 0.958 . S
C2031 H2046 0.961 . S
C2031 H2047 0.960 . S
H2032 C2016 0.931 . S
H2033 C2021 0.929 . S
H2034 C2022 0.960 . S
H2035 C2022 0.962 . S
H2036 C2022 0.960 . S
H2037 C2023 0.961 . S
H2038 C2023 0.961 . S
H2039 C2023 0.961 . S
H2040 C2024 0.931 . S
H2041 C2029 0.930 . S
H2042 C2030 0.956 . S
H2043 C2030 0.961 . S
H2044 C2030 0.961 . S
H2045 C2031 0.958 . S
H2046 C2031 0.961 . S
H2047 C2031 0.960 . S
C2048 C2049 1.391 . S
C2048 C2050 1.394 . S
C2048 H2064 0.931 . S
C2049 C2048 1.391 . S
C2049 C2053 1.376 . S
C2050 C2048 1.394 . S
C2050 C2051 1.369 . S
C2050 C2054 1.531 . S
C2051 C2050 1.369 . S
C2051 C2052 1.410 . S
C2051 C2059 1.503 . S
C2052 C2051 1.410 . S
C2052 C2053 1.392 . S
C2052 C2055 1.511 . S
C2053 C2049 1.376 . S
C2053 C2052 1.392 . S
C2053 H2065 0.929 . S
C2054 C2050 1.531 . S
C2054 H2066 0.960 . S
C2054 H2067 0.962 . S
C2054 H2068 0.960 . S
C2055 C2052 1.511 . S
C2055 H2069 0.961 . S
C2055 H2070 0.961 . S
C2055 H2071 0.961 . S
C2056 C2057 1.370 . S
C2056 C2058 1.363 . S
C2056 H2072 0.931 . S
C2057 C2056 1.370 . S
C2057 C2061 1.408 . S
C2058 C2056 1.363 . S
C2058 C2059 1.370 . S
C2058 C2062 1.524 . S
C2059 C2051 1.503 . S
C2059 C2058 1.370 . S
C2059 C2060 1.403 . S
C2060 C2059 1.403 . S
C2060 C2061 1.404 . S
C2060 C2063 1.539 . S
C2061 C2057 1.408 . S
C2061 C2060 1.404 . S
C2061 H2073 0.930 . S
C2062 C2058 1.524 . S
C2062 H2074 0.956 . S
C2062 H2075 0.961 . S
C2062 H2076 0.961 . S
C2063 C2060 1.539 . S
C2063 H2077 0.958 . S
C2063 H2078 0.961 . S
C2063 H2079 0.960 . S
H2064 C2048 0.931 . S
H2065 C2053 0.929 . S
H2066 C2054 0.960 . S
H2067 C2054 0.962 . S
H2068 C2054 0.960 . S
H2069 C2055 0.961 . S
H2070 C2055 0.961 . S
H2071 C2055 0.961 . S
H2072 C2056 0.931 . S
H2073 C2061 0.930 . S
H2074 C2062 0.956 . S
H2075 C2062 0.961 . S
H2076 C2062 0.961 . S
H2077 C2063 0.958 . S
H2078 C2063 0.961 . S
H2079 C2063 0.960 . S
C2080 C2081 1.391 . S
C2080 C2082 1.394 . S
C2080 H2096 0.931 . S
C2081 C2080 1.391 . S
C2081 C2085 1.376 . S
C2082 C2080 1.394 . S
C2082 C2083 1.369 . S
C2082 C2086 1.531 . S
C2083 C2082 1.369 . S
C2083 C2084 1.410 . S
C2083 C2091 1.503 . S
C2084 C2083 1.410 . S
C2084 C2085 1.392 . S
C2084 C2087 1.511 . S
C2085 C2081 1.376 . S
C2085 C2084 1.392 . S
C2085 H2097 0.929 . S
C2086 C2082 1.531 . S
C2086 H2098 0.960 . S
C2086 H2099 0.962 . S
C2086 H2100 0.960 . S
C2087 C2084 1.511 . S
C2087 H2101 0.961 . S
C2087 H2102 0.961 . S
C2087 H2103 0.961 . S
C2088 C2089 1.370 . S
C2088 C2090 1.363 . S
C2088 H2104 0.931 . S
C2089 C2088 1.370 . S
C2089 C2093 1.408 . S
C2090 C2088 1.363 . S
C2090 C2091 1.370 . S
C2090 C2094 1.524 . S
C2091 C2083 1.503 . S
C2091 C2090 1.370 . S
C2091 C2092 1.403 . S
C2092 C2091 1.403 . S
C2092 C2093 1.404 . S
C2092 C2095 1.539 . S
C2093 C2089 1.408 . S
C2093 C2092 1.404 . S
C2093 H2105 0.930 . S
C2094 C2090 1.524 . S
C2094 H2106 0.956 . S
C2094 H2107 0.961 . S
C2094 H2108 0.961 . S
C2095 C2092 1.539 . S
C2095 H2109 0.958 . S
C2095 H2110 0.961 . S
C2095 H2111 0.960 . S
H2096 C2080 0.931 . S
H2097 C2085 0.929 . S
H2098 C2086 0.960 . S
H2099 C2086 0.962 . S
H2100 C2086 0.960 . S
H2101 C2087 0.961 . S
H2102 C2087 0.961 . S
H2103 C2087 0.961 . S
H2104 C2088 0.931 . S
H2105 C2093 0.930 . S
H2106 C2094 0.956 . S
H2107 C2094 0.961 . S
H2108 C2094 0.961 . S
H2109 C2095 0.958 . S
H2110 C2095 0.961 . S
H2111 C2095 0.960 . S
C2112 C2113 1.391 . S
C2112 C2114 1.394 . S
C2112 H2128 0.931 . S
C2113 C2112 1.391 . S
C2113 C2117 1.376 . S
C2114 C2112 1.394 . S
C2114 C2115 1.369 . S
C2114 C2118 1.531 . S
C2115 C2114 1.369 . S
C2115 C2116 1.410 . S
C2115 C2123 1.503 . S
C2116 C2115 1.410 . S
C2116 C2117 1.392 . S
C2116 C2119 1.511 . S
C2117 C2113 1.376 . S
C2117 C2116 1.392 . S
C2117 H2129 0.929 . S
C2118 C2114 1.531 . S
C2118 H2130 0.960 . S
C2118 H2131 0.962 . S
C2118 H2132 0.960 . S
C2119 C2116 1.511 . S
C2119 H2133 0.961 . S
C2119 H2134 0.961 . S
C2119 H2135 0.961 . S
C2120 C2121 1.370 . S
C2120 C2122 1.363 . S
C2120 H2136 0.931 . S
C2121 C2120 1.370 . S
C2121 C2125 1.408 . S
C2122 C2120 1.363 . S
C2122 C2123 1.370 . S
C2122 C2126 1.524 . S
C2123 C2115 1.503 . S
C2123 C2122 1.370 . S
C2123 C2124 1.403 . S
C2124 C2123 1.403 . S
C2124 C2125 1.404 . S
C2124 C2127 1.539 . S
C2125 C2121 1.408 . S
C2125 C2124 1.404 . S
C2125 H2137 0.930 . S
C2126 C2122 1.524 . S
C2126 H2138 0.956 . S
C2126 H2139 0.961 . S
C2126 H2140 0.961 . S
C2127 C2124 1.539 . S
C2127 H2141 0.958 . S
C2127 H2142 0.961 . S
C2127 H2143 0.960 . S
H2128 C2112 0.931 . S
H2129 C2117 0.929 . S
H2130 C2118 0.960 . S
H2131 C2118 0.962 . S
H2132 C2118 0.960 . S
H2133 C2119 0.961 . S
H2134 C2119 0.961 . S
H2135 C2119 0.961 . S
H2136 C2120 0.931 . S
H2137 C2125 0.930 . S
H2138 C2126 0.956 . S
H2139 C2126 0.961 . S
H2140 C2126 0.961 . S
H2141 C2127 0.958 . S
H2142 C2127 0.961 . S
H2143 C2127 0.960 . S
C2144 C2145 1.391 . S
C2144 C2146 1.394 . S
C2144 H2160 0.931 . S
C2145 C2144 1.391 . S
C2145 C2149 1.376 . S
C2146 C2144 1.394 . S
C2146 C2147 1.369 . S
C2146 C2150 1.531 . S
C2147 C2146 1.369 . S
C2147 C2148 1.410 . S
C2147 C2155 1.503 . S
C2148 C2147 1.410 . S
C2148 C2149 1.392 . S
C2148 C2151 1.511 . S
C2149 C2145 1.376 . S
C2149 C2148 1.392 . S
C2149 H2161 0.929 . S
C2150 C2146 1.531 . S
C2150 H2162 0.960 . S
C2150 H2163 0.962 . S
C2150 H2164 0.960 . S
C2151 C2148 1.511 . S
C2151 H2165 0.961 . S
C2151 H2166 0.961 . S
C2151 H2167 0.961 . S
C2152 C2153 1.370 . S
C2152 C2154 1.363 . S
C2152 H2168 0.931 . S
C2153 C2152 1.370 . S
C2153 C2157 1.408 . S
C2154 C2152 1.363 . S
C2154 C2155 1.370 . S
C2154 C2158 1.524 . S
C2155 C2147 1.503 . S
C2155 C2154 1.370 . S
C2155 C2156 1.403 . S
C2156 C2155 1.403 . S
C2156 C2157 1.404 . S
C2156 C2159 1.539 . S
C2157 C2153 1.408 . S
C2157 C2156 1.404 . S
C2157 H2169 0.930 . S
C2158 C2154 1.524 . S
C2158 H2170 0.956 . S
C2158 H2171 0.961 . S
C2158 H2172 0.961 . S
C2159 C2156 1.539 . S
C2159 H2173 0.958 . S
C2159 H2174 0.961 . S
C2159 H2175 0.960 . S
H2160 C2144 0.931 . S
H2161 C2149 0.929 . S
H2162 C2150 0.960 . S
H2163 C2150 0.962 . S
H2164 C2150 0.960 . S
H2165 C2151 0.961 . S
H2166 C2151 0.961 . S
H2167 C2151 0.961 . S
H2168 C2152 0.931 . S
H2169 C2157 0.930 . S
H2170 C2158 0.956 . S
H2171 C2158 0.961 . S
H2172 C2158 0.961 . S
H2173 C2159 0.958 . S
H2174 C2159 0.961 . S
H2175 C2159 0.960 . S
C2176 C2177 1.391 . S
C2176 C2178 1.394 . S
C2176 H2192 0.931 . S
C2177 C2176 1.391 . S
C2177 C2181 1.376 . S
C2178 C2176 1.394 . S
C2178 C2179 1.369 . S
C2178 C2182 1.531 . S
C2179 C2178 1.369 . S
C2179 C2180 1.410 . S
C2179 C2187 1.503 . S
C2180 C2179 1.410 . S
C2180 C2181 1.392 . S
C2180 C2183 1.511 . S
C2181 C2177 1.376 . S
C2181 C2180 1.392 . S
C2181 H2193 0.929 . S
C2182 C2178 1.531 . S
C2182 H2194 0.960 . S
C2182 H2195 0.962 . S
C2182 H2196 0.960 . S
C2183 C2180 1.511 . S
C2183 H2197 0.961 . S
C2183 H2198 0.961 . S
C2183 H2199 0.961 . S
C2184 C2185 1.370 . S
C2184 C2186 1.363 . S
C2184 H2200 0.931 . S
C2185 C2184 1.370 . S
C2185 C2189 1.408 . S
C2186 C2184 1.363 . S
C2186 C2187 1.370 . S
C2186 C2190 1.524 . S
C2187 C2179 1.503 . S
C2187 C2186 1.370 . S
C2187 C2188 1.403 . S
C2188 C2187 1.403 . S
C2188 C2189 1.404 . S
C2188 C2191 1.539 . S
C2189 C2185 1.408 . S
C2189 C2188 1.404 . S
C2189 H2201 0.930 . S
C2190 C2186 1.524 . S
C2190 H2202 0.956 . S
C2190 H2203 0.961 . S
C2190 H2204 0.961 . S
C2191 C2188 1.539 . S
C2191 H2205 0.958 . S
C2191 H2206 0.961 . S
C2191 H2207 0.960 . S
H2192 C2176 0.931 . S
H2193 C2181 0.929 . S
H2194 C2182 0.960 . S
H2195 C2182 0.962 . S
H2196 C2182 0.960 . S
H2197 C2183 0.961 . S
H2198 C2183 0.961 . S
H2199 C2183 0.961 . S
H2200 C2184 0.931 . S
H2201 C2189 0.930 . S
H2202 C2190 0.956 . S
H2203 C2190 0.961 . S
H2204 C2190 0.961 . S
H2205 C2191 0.958 . S
H2206 C2191 0.961 . S
H2207 C2191 0.960 . S
C2208 C2209 1.391 . S
C2208 C2210 1.394 . S
C2208 H2224 0.931 . S
C2209 C2208 1.391 . S
C2209 C2213 1.376 . S
C2210 C2208 1.394 . S
C2210 C2211 1.369 . S
C2210 C2214 1.531 . S
C2211 C2210 1.369 . S
C2211 C2212 1.410 . S
C2211 C2219 1.503 . S
C2212 C2211 1.410 . S
C2212 C2213 1.392 . S
C2212 C2215 1.511 . S
C2213 C2209 1.376 . S
C2213 C2212 1.392 . S
C2213 H2225 0.929 . S
C2214 C2210 1.531 . S
C2214 H2226 0.960 . S
C2214 H2227 0.962 . S
C2214 H2228 0.960 . S
C2215 C2212 1.511 . S
C2215 H2229 0.961 . S
C2215 H2230 0.961 . S
C2215 H2231 0.961 . S
C2216 C2217 1.370 . S
C2216 C2218 1.363 . S
C2216 H2232 0.931 . S
C2217 C2216 1.370 . S
C2217 C2221 1.408 . S
C2218 C2216 1.363 . S
C2218 C2219 1.370 . S
C2218 C2222 1.524 . S
C2219 C2211 1.503 . S
C2219 C2218 1.370 . S
C2219 C2220 1.403 . S
C2220 C2219 1.403 . S
C2220 C2221 1.404 . S
C2220 C2223 1.539 . S
C2221 C2217 1.408 . S
C2221 C2220 1.404 . S
C2221 H2233 0.930 . S
C2222 C2218 1.524 . S
C2222 H2234 0.956 . S
C2222 H2235 0.961 . S
C2222 H2236 0.961 . S
C2223 C2220 1.539 . S
C2223 H2237 0.958 . S
C2223 H2238 0.961 . S
C2223 H2239 0.960 . S
H2224 C2208 0.931 . S
H2225 C2213 0.929 . S
H2226 C2214 0.960 . S
H2227 C2214 0.962 . S
H2228 C2214 0.960 . S
H2229 C2215 0.961 . S
H2230 C2215 0.961 . S
H2231 C2215 0.961 . S
H2232 C2216 0.931 . S
H2233 C2221 0.930 . S
H2234 C2222 0.956 . S
H2235 C2222 0.961 . S
H2236 C2222 0.961 . S
H2237 C2223 0.958 . S
H2238 C2223 0.961 . S
H2239 C2223 0.960 . S
C2240 C2241 1.391 . S
C2240 C2242 1.394 . S
C2240 H2256 0.931 . S
C2241 C2240 1.391 . S
C2241 C2245 1.376 . S
C2242 C2240 1.394 . S
C2242 C2243 1.369 . S
C2242 C2246 1.531 . S
C2243 C2242 1.369 . S
C2243 C2244 1.410 . S
C2243 C2251 1.503 . S
C2244 C2243 1.410 . S
C2244 C2245 1.392 . S
C2244 C2247 1.511 . S
C2245 C2241 1.376 . S
C2245 C2244 1.392 . S
C2245 H2257 0.929 . S
C2246 C2242 1.531 . S
C2246 H2258 0.960 . S
C2246 H2259 0.962 . S
C2246 H2260 0.960 . S
C2247 C2244 1.511 . S
C2247 H2261 0.961 . S
C2247 H2262 0.961 . S
C2247 H2263 0.961 . S
C2248 C2249 1.370 . S
C2248 C2250 1.363 . S
C2248 H2264 0.931 . S
C2249 C2248 1.370 . S
C2249 C2253 1.408 . S
C2250 C2248 1.363 . S
C2250 C2251 1.370 . S
C2250 C2254 1.524 . S
C2251 C2243 1.503 . S
C2251 C2250 1.370 . S
C2251 C2252 1.403 . S
C2252 C2251 1.403 . S
C2252 C2253 1.404 . S
C2252 C2255 1.539 . S
C2253 C2249 1.408 . S
C2253 C2252 1.404 . S
C2253 H2265 0.930 . S
C2254 C2250 1.524 . S
C2254 H2266 0.956 . S
C2254 H2267 0.961 . S
C2254 H2268 0.961 . S
C2255 C2252 1.539 . S
C2255 H2269 0.958 . S
C2255 H2270 0.961 . S
C2255 H2271 0.960 . S
H2256 C2240 0.931 . S
H2257 C2245 0.929 . S
H2258 C2246 0.960 . S
H2259 C2246 0.962 . S
H2260 C2246 0.960 . S
H2261 C2247 0.961 . S
H2262 C2247 0.961 . S
H2263 C2247 0.961 . S
H2264 C2248 0.931 . S
H2265 C2253 0.930 . S
H2266 C2254 0.956 . S
H2267 C2254 0.961 . S
H2268 C2254 0.961 . S
H2269 C2255 0.958 . S
H2270 C2255 0.961 . S
H2271 C2255 0.960 . S
C2272 C2273 1.391 . S
C2272 C2274 1.394 . S
C2272 H2288 0.931 . S
C2273 C2272 1.391 . S
C2273 C2277 1.376 . S
C2274 C2272 1.394 . S
C2274 C2275 1.369 . S
C2274 C2278 1.531 . S
C2275 C2274 1.369 . S
C2275 C2276 1.410 . S
C2275 C2283 1.503 . S
C2276 C2275 1.410 . S
C2276 C2277 1.392 . S
C2276 C2279 1.511 . S
C2277 C2273 1.376 . S
C2277 C2276 1.392 . S
C2277 H2289 0.929 . S
C2278 C2274 1.531 . S
C2278 H2290 0.960 . S
C2278 H2291 0.962 . S
C2278 H2292 0.960 . S
C2279 C2276 1.511 . S
C2279 H2293 0.961 . S
C2279 H2294 0.961 . S
C2279 H2295 0.961 . S
C2280 C2281 1.370 . S
C2280 C2282 1.363 . S
C2280 H2296 0.931 . S
C2281 C2280 1.370 . S
C2281 C2285 1.408 . S
C2282 C2280 1.363 . S
C2282 C2283 1.370 . S
C2282 C2286 1.524 . S
C2283 C2275 1.503 . S
C2283 C2282 1.370 . S
C2283 C2284 1.403 . S
C2284 C2283 1.403 . S
C2284 C2285 1.404 . S
C2284 C2287 1.539 . S
C2285 C2281 1.408 . S
C2285 C2284 1.404 . S
C2285 H2297 0.930 . S
C2286 C2282 1.524 . S
C2286 H2298 0.956 . S
C2286 H2299 0.961 . S
C2286 H2300 0.961 . S
C2287 C2284 1.539 . S
C2287 H2301 0.958 . S
C2287 H2302 0.961 . S
C2287 H2303 0.960 . S
H2288 C2272 0.931 . S
H2289 C2277 0.929 . S
H2290 C2278 0.960 . S
H2291 C2278 0.962 . S
H2292 C2278 0.960 . S
H2293 C2279 0.961 . S
H2294 C2279 0.961 . S
H2295 C2279 0.961 . S
H2296 C2280 0.931 . S
H2297 C2285 0.930 . S
H2298 C2286 0.956 . S
H2299 C2286 0.961 . S
H2300 C2286 0.961 . S
H2301 C2287 0.958 . S
H2302 C2287 0.961 . S
H2303 C2287 0.960 . S
C2304 C2305 1.391 . S
C2304 C2306 1.394 . S
C2304 H2320 0.931 . S
C2305 C2304 1.391 . S
C2305 C2309 1.376 . S
C2306 C2304 1.394 . S
C2306 C2307 1.369 . S
C2306 C2310 1.531 . S
C2307 C2306 1.369 . S
C2307 C2308 1.410 . S
C2307 C2315 1.503 . S
C2308 C2307 1.410 . S
C2308 C2309 1.392 . S
C2308 C2311 1.511 . S
C2309 C2305 1.376 . S
C2309 C2308 1.392 . S
C2309 H2321 0.929 . S
C2310 C2306 1.531 . S
C2310 H2322 0.960 . S
C2310 H2323 0.962 . S
C2310 H2324 0.960 . S
C2311 C2308 1.511 . S
C2311 H2325 0.961 . S
C2311 H2326 0.961 . S
C2311 H2327 0.961 . S
C2312 C2313 1.370 . S
C2312 C2314 1.363 . S
C2312 H2328 0.931 . S
C2313 C2312 1.370 . S
C2313 C2317 1.408 . S
C2314 C2312 1.363 . S
C2314 C2315 1.370 . S
C2314 C2318 1.524 . S
C2315 C2307 1.503 . S
C2315 C2314 1.370 . S
C2315 C2316 1.403 . S
C2316 C2315 1.403 . S
C2316 C2317 1.404 . S
C2316 C2319 1.539 . S
C2317 C2313 1.408 . S
C2317 C2316 1.404 . S
C2317 H2329 0.930 . S
C2318 C2314 1.524 . S
C2318 H2330 0.956 . S
C2318 H2331 0.961 . S
C2318 H2332 0.961 . S
C2319 C2316 1.539 . S
C2319 H2333 0.958 . S
C2319 H2334 0.961 . S
C2319 H2335 0.960 . S
H2320 C2304 0.931 . S
H2321 C2309 0.929 . S
H2322 C2310 0.960 . S
H2323 C2310 0.962 . S
H2324 C2310 0.960 . S
H2325 C2311 0.961 . S
H2326 C2311 0.961 . S
H2327 C2311 0.961 . S
H2328 C2312 0.931 . S
H2329 C2317 0.930 . S
H2330 C2318 0.956 . S
H2331 C2318 0.961 . S
H2332 C2318 0.961 . S
H2333 C2319 0.958 . S
H2334 C2319 0.961 . S
H2335 C2319 0.960 . S
C2336 C2337 1.391 . S
C2336 C2338 1.394 . S
C2336 H2352 0.931 . S
C2337 C2336 1.391 . S
C2337 C2341 1.376 . S
C2338 C2336 1.394 . S
C2338 C2339 1.369 . S
C2338 C2342 1.531 . S
C2339 C2338 1.369 . S
C2339 C2340 1.410 . S
C2339 C2347 1.503 . S
C2340 C2339 1.410 . S
C2340 C2341 1.392 . S
C2340 C2343 1.511 . S
C2341 C2337 1.376 . S
C2341 C2340 1.392 . S
C2341 H2353 0.929 . S
C2342 C2338 1.531 . S
C2342 H2354 0.960 . S
C2342 H2355 0.962 . S
C2342 H2356 0.960 . S
C2343 C2340 1.511 . S
C2343 H2357 0.961 . S
C2343 H2358 0.961 . S
C2343 H2359 0.961 . S
C2344 C2345 1.370 . S
C2344 C2346 1.363 . S
C2344 H2360 0.931 . S
C2345 C2344 1.370 . S
C2345 C2349 1.408 . S
C2346 C2344 1.363 . S
C2346 C2347 1.370 . S
C2346 C2350 1.524 . S
C2347 C2339 1.503 . S
C2347 C2346 1.370 . S
C2347 C2348 1.403 . S
C2348 C2347 1.403 . S
C2348 C2349 1.404 . S
C2348 C2351 1.539 . S
C2349 C2345 1.408 . S
C2349 C2348 1.404 . S
C2349 H2361 0.930 . S
C2350 C2346 1.524 . S
C2350 H2362 0.956 . S
C2350 H2363 0.961 . S
C2350 H2364 0.961 . S
C2351 C2348 1.539 . S
C2351 H2365 0.958 . S
C2351 H2366 0.961 . S
C2351 H2367 0.960 . S
H2352 C2336 0.931 . S
H2353 C2341 0.929 . S
H2354 C2342 0.960 . S
H2355 C2342 0.962 . S
H2356 C2342 0.960 . S
H2357 C2343 0.961 . S
H2358 C2343 0.961 . S
H2359 C2343 0.961 . S
H2360 C2344 0.931 . S
H2361 C2349 0.930 . S
H2362 C2350 0.956 . S
H2363 C2350 0.961 . S
H2364 C2350 0.961 . S
H2365 C2351 0.958 . S
H2366 C2351 0.961 . S
H2367 C2351 0.960 . S
C2368 C2369 1.391 . S
C2368 C2370 1.394 . S
C2368 H2384 0.931 . S
C2369 C2368 1.391 . S
C2369 C2373 1.376 . S
C2370 C2368 1.394 . S
C2370 C2371 1.369 . S
C2370 C2374 1.531 . S
C2371 C2370 1.369 . S
C2371 C2372 1.410 . S
C2371 C2379 1.503 . S
C2372 C2371 1.410 . S
C2372 C2373 1.392 . S
C2372 C2375 1.511 . S
C2373 C2369 1.376 . S
C2373 C2372 1.392 . S
C2373 H2385 0.929 . S
C2374 C2370 1.531 . S
C2374 H2386 0.960 . S
C2374 H2387 0.962 . S
C2374 H2388 0.960 . S
C2375 C2372 1.511 . S
C2375 H2389 0.961 . S
C2375 H2390 0.961 . S
C2375 H2391 0.961 . S
C2376 C2377 1.370 . S
C2376 C2378 1.363 . S
C2376 H2392 0.931 . S
C2377 C2376 1.370 . S
C2377 C2381 1.408 . S
C2378 C2376 1.363 . S
C2378 C2379 1.370 . S
C2378 C2382 1.524 . S
C2379 C2371 1.503 . S
C2379 C2378 1.370 . S
C2379 C2380 1.403 . S
C2380 C2379 1.403 . S
C2380 C2381 1.404 . S
C2380 C2383 1.539 . S
C2381 C2377 1.408 . S
C2381 C2380 1.404 . S
C2381 H2393 0.930 . S
C2382 C2378 1.524 . S
C2382 H2394 0.956 . S
C2382 H2395 0.961 . S
C2382 H2396 0.961 . S
C2383 C2380 1.539 . S
C2383 H2397 0.958 . S
C2383 H2398 0.961 . S
C2383 H2399 0.960 . S
H2384 C2368 0.931 . S
H2385 C2373 0.929 . S
H2386 C2374 0.960 . S
H2387 C2374 0.962 . S
H2388 C2374 0.960 . S
H2389 C2375 0.961 . S
H2390 C2375 0.961 . S
H2391 C2375 0.961 . S
H2392 C2376 0.931 . S
H2393 C2381 0.930 . S
H2394 C2382 0.956 . S
H2395 C2382 0.961 . S
H2396 C2382 0.961 . S
H2397 C2383 0.958 . S
H2398 C2383 0.961 . S
H2399 C2383 0.960 . S
C2400 C2401 1.391 . S
C2400 C2402 1.394 . S
C2400 H2416 0.931 . S
C2401 C2400 1.391 . S
C2401 C2405 1.376 . S
C2402 C2400 1.394 . S
C2402 C2403 1.369 . S
C2402 C2406 1.531 . S
C2403 C2402 1.369 . S
C2403 C2404 1.410 . S
C2403 C2411 1.503 . S
C2404 C2403 1.410 . S
C2404 C2405 1.392 . S
C2404 C2407 1.511 . S
C2405 C2401 1.376 . S
C2405 C2404 1.392 . S
C2405 H2417 0.929 . S
C2406 C2402 1.531 . S
C2406 H2418 0.960 . S
C2406 H2419 0.962 . S
C2406 H2420 0.960 . S
C2407 C2404 1.511 . S
C2407 H2421 0.961 . S
C2407 H2422 0.961 . S
C2407 H2423 0.961 . S
C2408 C2409 1.370 . S
C2408 C2410 1.363 . S
C2408 H2424 0.931 . S
C2409 C2408 1.370 . S
C2409 C2413 1.408 . S
C2410 C2408 1.363 . S
C2410 C2411 1.370 . S
C2410 C2414 1.524 . S
C2411 C2403 1.503 . S
C2411 C2410 1.370 . S
C2411 C2412 1.403 . S
C2412 C2411 1.403 . S
C2412 C2413 1.404 . S
C2412 C2415 1.539 . S
C2413 C2409 1.408 . S
C2413 C2412 1.404 . S
C2413 H2425 0.930 . S
C2414 C2410 1.524 . S
C2414 H2426 0.956 . S
C2414 H2427 0.961 . S
C2414 H2428 0.961 . S
C2415 C2412 1.539 . S
C2415 H2429 0.958 . S
C2415 H2430 0.961 . S
C2415 H2431 0.960 . S
H2416 C2400 0.931 . S
H2417 C2405 0.929 . S
H2418 C2406 0.960 . S
H2419 C2406 0.962 . S
H2420 C2406 0.960 . S
H2421 C2407 0.961 . S
H2422 C2407 0.961 . S
H2423 C2407 0.961 . S
H2424 C2408 0.931 . S
H2425 C2413 0.930 . S
H2426 C2414 0.956 . S
H2427 C2414 0.961 . S
H2428 C2414 0.961 . S
H2429 C2415 0.958 . S
H2430 C2415 0.961 . S
H2431 C2415 0.960 . S
C2432 C2433 1.391 . S
C2432 C2434 1.394 . S
C2432 H2448 0.931 . S
C2433 C2432 1.391 . S
C2433 C2437 1.376 . S
C2434 C2432 1.394 . S
C2434 C2435 1.369 . S
C2434 C2438 1.531 . S
C2435 C2434 1.369 . S
C2435 C2436 1.410 . S
C2435 C2443 1.503 . S
C2436 C2435 1.410 . S
C2436 C2437 1.392 . S
C2436 C2439 1.511 . S
C2437 C2433 1.376 . S
C2437 C2436 1.392 . S
C2437 H2449 0.929 . S
C2438 C2434 1.531 . S
C2438 H2450 0.960 . S
C2438 H2451 0.962 . S
C2438 H2452 0.960 . S
C2439 C2436 1.511 . S
C2439 H2453 0.961 . S
C2439 H2454 0.961 . S
C2439 H2455 0.961 . S
C2440 C2441 1.370 . S
C2440 C2442 1.363 . S
C2440 H2456 0.931 . S
C2441 C2440 1.370 . S
C2441 C2445 1.408 . S
C2442 C2440 1.363 . S
C2442 C2443 1.370 . S
C2442 C2446 1.524 . S
C2443 C2435 1.503 . S
C2443 C2442 1.370 . S
C2443 C2444 1.403 . S
C2444 C2443 1.403 . S
C2444 C2445 1.404 . S
C2444 C2447 1.539 . S
C2445 C2441 1.408 . S
C2445 C2444 1.404 . S
C2445 H2457 0.930 . S
C2446 C2442 1.524 . S
C2446 H2458 0.956 . S
C2446 H2459 0.961 . S
C2446 H2460 0.961 . S
C2447 C2444 1.539 . S
C2447 H2461 0.958 . S
C2447 H2462 0.961 . S
C2447 H2463 0.960 . S
H2448 C2432 0.931 . S
H2449 C2437 0.929 . S
H2450 C2438 0.960 . S
H2451 C2438 0.962 . S
H2452 C2438 0.960 . S
H2453 C2439 0.961 . S
H2454 C2439 0.961 . S
H2455 C2439 0.961 . S
H2456 C2440 0.931 . S
H2457 C2445 0.930 . S
H2458 C2446 0.956 . S
H2459 C2446 0.961 . S
H2460 C2446 0.961 . S
H2461 C2447 0.958 . S
H2462 C2447 0.961 . S
H2463 C2447 0.960 . S
C2464 C2465 1.391 . S
C2464 C2466 1.394 . S
C2464 H2480 0.931 . S
C2465 C2464 1.391 . S
C2465 C2469 1.376 . S
C2466 C2464 1.394 . S
C2466 C2467 1.369 . S
C2466 C2470 1.531 . S
C2467 C2466 1.369 . S
C2467 C2468 1.410 . S
C2467 C2475 1.503 . S
C2468 C2467 1.410 . S
C2468 C2469 1.392 . S
C2468 C2471 1.511 . S
C2469 C2465 1.376 . S
C2469 C2468 1.392 . S
C2469 H2481 0.929 . S
C2470 C2466 1.531 . S
C2470 H2482 0.960 . S
C2470 H2483 0.962 . S
C2470 H2484 0.960 . S
C2471 C2468 1.511 . S
C2471 H2485 0.961 . S
C2471 H2486 0.961 . S
C2471 H2487 0.961 . S
C2472 C2473 1.370 . S
C2472 C2474 1.363 . S
C2472 H2488 0.931 . S
C2473 C2472 1.370 . S
C2473 C2477 1.408 . S
C2474 C2472 1.363 . S
C2474 C2475 1.370 . S
C2474 C2478 1.524 . S
C2475 C2467 1.503 . S
C2475 C2474 1.370 . S
C2475 C2476 1.403 . S
C2476 C2475 1.403 . S
C2476 C2477 1.404 . S
C2476 C2479 1.539 . S
C2477 C2473 1.408 . S
C2477 C2476 1.404 . S
C2477 H2489 0.930 . S
C2478 C2474 1.524 . S
C2478 H2490 0.956 . S
C2478 H2491 0.961 . S
C2478 H2492 0.961 . S
C2479 C2476 1.539 . S
C2479 H2493 0.958 . S
C2479 H2494 0.961 . S
C2479 H2495 0.960 . S
H2480 C2464 0.931 . S
H2481 C2469 0.929 . S
H2482 C2470 0.960 . S
H2483 C2470 0.962 . S
H2484 C2470 0.960 . S
H2485 C2471 0.961 . S
H2486 C2471 0.961 . S
H2487 C2471 0.961 . S
H2488 C2472 0.931 . S
H2489 C2477 0.930 . S
H2490 C2478 0.956 . S
H2491 C2478 0.961 . S
H2492 C2478 0.961 . S
H2493 C2479 0.958 . S
H2494 C2479 0.961 . S
H2495 C2479 0.960 . S
C2496 C2497 1.391 . S
C2496 C2498 1.394 . S
C2496 H2512 0.931 . S
C2497 C2496 1.391 . S
C2497 C2501 1.376 . S
C2498 C2496 1.394 . S
C2498 C2499 1.369 . S
C2498 C2502 1.531 . S
C2499 C2498 1.369 . S
C2499 C2500 1.410 . S
C2499 C2507 1.503 . S
C2500 C2499 1.410 . S
C2500 C2501 1.392 . S
C2500 C2503 1.511 . S
C2501 C2497 1.376 . S
C2501 C2500 1.392 . S
C2501 H2513 0.929 . S
C2502 C2498 1.531 . S
C2502 H2514 0.960 . S
C2502 H2515 0.962 . S
C2502 H2516 0.960 . S
C2503 C2500 1.511 . S
C2503 H2517 0.961 . S
C2503 H2518 0.961 . S
C2503 H2519 0.961 . S
C2504 C2505 1.370 . S
C2504 C2506 1.363 . S
C2504 H2520 0.931 . S
C2505 C2504 1.370 . S
C2505 C2509 1.408 . S
C2506 C2504 1.363 . S
C2506 C2507 1.370 . S
C2506 C2510 1.524 . S
C2507 C2499 1.503 . S
C2507 C2506 1.370 . S
C2507 C2508 1.403 . S
C2508 C2507 1.403 . S
C2508 C2509 1.404 . S
C2508 C2511 1.539 . S
C2509 C2505 1.408 . S
C2509 C2508 1.404 . S
C2509 H2521 0.930 . S
C2510 C2506 1.524 . S
C2510 H2522 0.956 . S
C2510 H2523 0.961 . S
C2510 H2524 0.961 . S
C2511 C2508 1.539 . S
C2511 H2525 0.958 . S
C2511 H2526 0.961 . S
C2511 H2527 0.960 . S
H2512 C2496 0.931 . S
H2513 C2501 0.929 . S
H2514 C2502 0.960 . S
H2515 C2502 0.962 . S
H2516 C2502 0.960 . S
H2517 C2503 0.961 . S
H2518 C2503 0.961 . S
H2519 C2503 0.961 . S
H2520 C2504 0.931 . S
H2521 C2509 0.930 . S
H2522 C2510 0.956 . S
H2523 C2510 0.961 . S
H2524 C2510 0.961 . S
H2525 C2511 0.958 . S
H2526 C2511 0.961 . S
H2527 C2511 0.960 . S
C2528 C2529 1.391 . S
C2528 C2530 1.394 . S
C2528 H2544 0.931 . S
C2529 C2528 1.391 . S
C2529 C2533 1.376 . S
C2530 C2528 1.394 . S
C2530 C2531 1.369 . S
C2530 C2534 1.531 . S
C2531 C2530 1.369 . S
C2531 C2532 1.410 . S
C2531 C2539 1.503 . S
C2532 C2531 1.410 . S
C2532 C2533 1.392 . S
C2532 C2535 1.511 . S
C2533 C2529 1.376 . S
C2533 C2532 1.392 . S
C2533 H2545 0.929 . S
C2534 C2530 1.531 . S
C2534 H2546 0.960 . S
C2534 H2547 0.962 . S
C2534 H2548 0.960 . S
C2535 C2532 1.511 . S
C2535 H2549 0.961 . S
C2535 H2550 0.961 . S
C2535 H2551 0.961 . S
C2536 C2537 1.370 . S
C2536 C2538 1.363 . S
C2536 H2552 0.931 . S
C2537 C2536 1.370 . S
C2537 C2541 1.408 . S
C2538 C2536 1.363 . S
C2538 C2539 1.370 . S
C2538 C2542 1.524 . S
C2539 C2531 1.503 . S
C2539 C2538 1.370 . S
C2539 C2540 1.403 . S
C2540 C2539 1.403 . S
C2540 C2541 1.404 . S
C2540 C2543 1.539 . S
C2541 C2537 1.408 . S
C2541 C2540 1.404 . S
C2541 H2553 0.930 . S
C2542 C2538 1.524 . S
C2542 H2554 0.956 . S
C2542 H2555 0.961 . S
C2542 H2556 0.961 . S
C2543 C2540 1.539 . S
C2543 H2557 0.958 . S
C2543 H2558 0.961 . S
C2543 H2559 0.960 . S
H2544 C2528 0.931 . S
H2545 C2533 0.929 . S
H2546 C2534 0.960 . S
H2547 C2534 0.962 . S
H2548 C2534 0.960 . S
H2549 C2535 0.961 . S
H2550 C2535 0.961 . S
H2551 C2535 0.961 . S
H2552 C2536 0.931 . S
H2553 C2541 0.930 . S
H2554 C2542 0.956 . S
H2555 C2542 0.961 . S
H2556 C2542 0.961 . S
H2557 C2543 0.958 . S
H2558 C2543 0.961 . S
H2559 C2543 0.960 . S
C2560 C2561 1.391 . S
C2560 C2562 1.394 . S
C2560 H2576 0.931 . S
C2561 C2560 1.391 . S
C2561 C2565 1.376 . S
C2562 C2560 1.394 . S
C2562 C2563 1.369 . S
C2562 C2566 1.531 . S
C2563 C2562 1.369 . S
C2563 C2564 1.410 . S
C2563 C2571 1.503 . S
C2564 C2563 1.410 . S
C2564 C2565 1.392 . S
C2564 C2567 1.511 . S
C2565 C2561 1.376 . S
C2565 C2564 1.392 . S
C2565 H2577 0.929 . S
C2566 C2562 1.531 . S
C2566 H2578 0.960 . S
C2566 H2579 0.962 . S
C2566 H2580 0.960 . S
C2567 C2564 1.511 . S
C2567 H2581 0.961 . S
C2567 H2582 0.961 . S
C2567 H2583 0.961 . S
C2568 C2569 1.370 . S
C2568 C2570 1.363 . S
C2568 H2584 0.931 . S
C2569 C2568 1.370 . S
C2569 C2573 1.408 . S
C2570 C2568 1.363 . S
C2570 C2571 1.370 . S
C2570 C2574 1.524 . S
C2571 C2563 1.503 . S
C2571 C2570 1.370 . S
C2571 C2572 1.403 . S
C2572 C2571 1.403 . S
C2572 C2573 1.404 . S
C2572 C2575 1.539 . S
C2573 C2569 1.408 . S
C2573 C2572 1.404 . S
C2573 H2585 0.930 . S
C2574 C2570 1.524 . S
C2574 H2586 0.956 . S
C2574 H2587 0.961 . S
C2574 H2588 0.961 . S
C2575 C2572 1.539 . S
C2575 H2589 0.958 . S
C2575 H2590 0.961 . S
C2575 H2591 0.960 . S
H2576 C2560 0.931 . S
H2577 C2565 0.929 . S
H2578 C2566 0.960 . S
H2579 C2566 0.962 . S
H2580 C2566 0.960 . S
H2581 C2567 0.961 . S
H2582 C2567 0.961 . S
H2583 C2567 0.961 . S
H2584 C2568 0.931 . S
H2585 C2573 0.930 . S
H2586 C2574 0.956 . S
H2587 C2574 0.961 . S
H2588 C2574 0.961 . S
H2589 C2575 0.958 . S
H2590 C2575 0.961 . S
H2591 C2575 0.960 . S
C2592 C2593 1.391 . S
C2592 C2594 1.394 . S
C2592 H2608 0.931 . S
C2593 C2592 1.391 . S
C2593 C2597 1.376 . S
C2594 C2592 1.394 . S
C2594 C2595 1.369 . S
C2594 C2598 1.531 . S
C2595 C2594 1.369 . S
C2595 C2596 1.410 . S
C2595 C2603 1.503 . S
C2596 C2595 1.410 . S
C2596 C2597 1.392 . S
C2596 C2599 1.511 . S
C2597 C2593 1.376 . S
C2597 C2596 1.392 . S
C2597 H2609 0.929 . S
C2598 C2594 1.531 . S
C2598 H2610 0.960 . S
C2598 H2611 0.962 . S
C2598 H2612 0.960 . S
C2599 C2596 1.511 . S
C2599 H2613 0.961 . S
C2599 H2614 0.961 . S
C2599 H2615 0.961 . S
C2600 C2601 1.370 . S
C2600 C2602 1.363 . S
C2600 H2616 0.931 . S
C2601 C2600 1.370 . S
C2601 C2605 1.408 . S
C2602 C2600 1.363 . S
C2602 C2603 1.370 . S
C2602 C2606 1.524 . S
C2603 C2595 1.503 . S
C2603 C2602 1.370 . S
C2603 C2604 1.403 . S
C2604 C2603 1.403 . S
C2604 C2605 1.404 . S
C2604 C2607 1.539 . S
C2605 C2601 1.408 . S
C2605 C2604 1.404 . S
C2605 H2617 0.930 . S
C2606 C2602 1.524 . S
C2606 H2618 0.956 . S
C2606 H2619 0.961 . S
C2606 H2620 0.961 . S
C2607 C2604 1.539 . S
C2607 H2621 0.958 . S
C2607 H2622 0.961 . S
C2607 H2623 0.960 . S
H2608 C2592 0.931 . S
H2609 C2597 0.929 . S
H2610 C2598 0.960 . S
H2611 C2598 0.962 . S
H2612 C2598 0.960 . S
H2613 C2599 0.961 . S
H2614 C2599 0.961 . S
H2615 C2599 0.961 . S
H2616 C2600 0.931 . S
H2617 C2605 0.930 . S
H2618 C2606 0.956 . S
H2619 C2606 0.961 . S
H2620 C2606 0.961 . S
H2621 C2607 0.958 . S
H2622 C2607 0.961 . S
H2623 C2607 0.960 . S
C2624 C2625 1.391 . S
C2624 C2626 1.394 . S
C2624 H2640 0.931 . S
C2625 C2624 1.391 . S
C2625 C2629 1.376 . S
C2626 C2624 1.394 . S
C2626 C2627 1.369 . S
C2626 C2630 1.531 . S
C2627 C2626 1.369 . S
C2627 C2628 1.410 . S
C2627 C2635 1.503 . S
C2628 C2627 1.410 . S
C2628 C2629 1.392 . S
C2628 C2631 1.511 . S
C2629 C2625 1.376 . S
C2629 C2628 1.392 . S
C2629 H2641 0.929 . S
C2630 C2626 1.531 . S
C2630 H2642 0.960 . S
C2630 H2643 0.962 . S
C2630 H2644 0.960 . S
C2631 C2628 1.511 . S
C2631 H2645 0.961 . S
C2631 H2646 0.961 . S
C2631 H2647 0.961 . S
C2632 C2633 1.370 . S
C2632 C2634 1.363 . S
C2632 H2648 0.931 . S
C2633 C2632 1.370 . S
C2633 C2637 1.408 . S
C2634 C2632 1.363 . S
C2634 C2635 1.370 . S
C2634 C2638 1.524 . S
C2635 C2627 1.503 . S
C2635 C2634 1.370 . S
C2635 C2636 1.403 . S
C2636 C2635 1.403 . S
C2636 C2637 1.404 . S
C2636 C2639 1.539 . S
C2637 C2633 1.408 . S
C2637 C2636 1.404 . S
C2637 H2649 0.930 . S
C2638 C2634 1.524 . S
C2638 H2650 0.956 . S
C2638 H2651 0.961 . S
C2638 H2652 0.961 . S
C2639 C2636 1.539 . S
C2639 H2653 0.958 . S
C2639 H2654 0.961 . S
C2639 H2655 0.960 . S
H2640 C2624 0.931 . S
H2641 C2629 0.929 . S
H2642 C2630 0.960 . S
H2643 C2630 0.962 . S
H2644 C2630 0.960 . S
H2645 C2631 0.961 . S
H2646 C2631 0.961 . S
H2647 C2631 0.961 . S
H2648 C2632 0.931 . S
H2649 C2637 0.930 . S
H2650 C2638 0.956 . S
H2651 C2638 0.961 . S
H2652 C2638 0.961 . S
H2653 C2639 0.958 . S
H2654 C2639 0.961 . S
H2655 C2639 0.960 . S
C2656 C2657 1.391 . S
C2656 C2658 1.394 . S
C2656 H2672 0.931 . S
C2657 C2656 1.391 . S
C2657 C2661 1.376 . S
C2658 C2656 1.394 . S
C2658 C2659 1.369 . S
C2658 C2662 1.531 . S
C2659 C2658 1.369 . S
C2659 C2660 1.410 . S
C2659 C2667 1.503 . S
C2660 C2659 1.410 . S
C2660 C2661 1.392 . S
C2660 C2663 1.511 . S
C2661 C2657 1.376 . S
C2661 C2660 1.392 . S
C2661 H2673 0.929 . S
C2662 C2658 1.531 . S
C2662 H2674 0.960 . S
C2662 H2675 0.962 . S
C2662 H2676 0.960 . S
C2663 C2660 1.511 . S
C2663 H2677 0.961 . S
C2663 H2678 0.961 . S
C2663 H2679 0.961 . S
C2664 C2665 1.370 . S
C2664 C2666 1.363 . S
C2664 H2680 0.931 . S
C2665 C2664 1.370 . S
C2665 C2669 1.408 . S
C2666 C2664 1.363 . S
C2666 C2667 1.370 . S
C2666 C2670 1.524 . S
C2667 C2659 1.503 . S
C2667 C2666 1.370 . S
C2667 C2668 1.403 . S
C2668 C2667 1.403 . S
C2668 C2669 1.404 . S
C2668 C2671 1.539 . S
C2669 C2665 1.408 . S
C2669 C2668 1.404 . S
C2669 H2681 0.930 . S
C2670 C2666 1.524 . S
C2670 H2682 0.956 . S
C2670 H2683 0.961 . S
C2670 H2684 0.961 . S
C2671 C2668 1.539 . S
C2671 H2685 0.958 . S
C2671 H2686 0.950 1_545 S
C2671 H2687 0.960 . S
H2672 C2656 0.931 . S
H2673 C2661 0.929 . S
H2674 C2662 0.960 . S
H2675 C2662 0.962 . S
H2676 C2662 0.960 . S
H2677 C2663 0.961 . S
H2678 C2663 0.961 . S
H2679 C2663 0.961 . S
H2680 C2664 0.931 . S
H2681 C2669 0.930 . S
H2682 C2670 0.956 . S
H2683 C2670 0.961 . S
H2684 C2670 0.961 . S
H2685 C2671 0.958 . S
H2686 C2671 0.950 1_565 S
H2687 C2671 0.960 . S
C2688 C2689 1.391 . S
C2688 C2690 1.394 . S
C2688 H2704 0.931 . S
C2689 C2688 1.391 . S
C2689 C2693 1.376 . S
C2690 C2688 1.394 . S
C2690 C2691 1.369 . S
C2690 C2694 1.531 . S
C2691 C2690 1.369 . S
C2691 C2692 1.410 . S
C2691 C2699 1.503 . S
C2692 C2691 1.410 . S
C2692 C2693 1.392 . S
C2692 C2695 1.511 . S
C2693 C2689 1.376 . S
C2693 C2692 1.392 . S
C2693 H2705 0.929 . S
C2694 C2690 1.531 . S
C2694 H2706 0.960 . S
C2694 H2707 0.962 . S
C2694 H2708 0.960 . S
C2695 C2692 1.511 . S
C2695 H2709 0.961 . S
C2695 H2710 0.961 . S
C2695 H2711 0.961 . S
C2696 C2697 1.370 . S
C2696 C2698 1.363 . S
C2696 H2712 0.931 . S
C2697 C2696 1.370 . S
C2697 C2701 1.408 . S
C2698 C2696 1.363 . S
C2698 C2699 1.370 . S
C2698 C2702 1.524 . S
C2699 C2691 1.503 . S
C2699 C2698 1.370 . S
C2699 C2700 1.403 . S
C2700 C2699 1.403 . S
C2700 C2701 1.404 . S
C2700 C2703 1.539 . S
C2701 C2697 1.408 . S
C2701 C2700 1.404 . S
C2701 H2713 0.930 . S
C2702 C2698 1.524 . S
C2702 H2714 0.956 . S
C2702 H2715 0.961 . S
C2702 H2716 0.961 . S
C2703 C2700 1.539 . S
C2703 H2717 0.958 . S
C2703 H2718 0.961 . S
C2703 H2719 0.960 . S
H2704 C2688 0.931 . S
H2705 C2693 0.929 . S
H2706 C2694 0.960 . S
H2707 C2694 0.962 . S
H2708 C2694 0.960 . S
H2709 C2695 0.961 . S
H2710 C2695 0.961 . S
H2711 C2695 0.961 . S
H2712 C2696 0.931 . S
H2713 C2701 0.930 . S
H2714 C2702 0.956 . S
H2715 C2702 0.961 . S
H2716 C2702 0.961 . S
H2717 C2703 0.958 . S
H2718 C2703 0.961 . S
H2719 C2703 0.960 . S
C2720 C2721 1.391 . S
C2720 C2722 1.394 . S
C2720 H2736 0.931 . S
C2721 C2720 1.391 . S
C2721 C2725 1.376 . S
C2722 C2720 1.394 . S
C2722 C2723 1.369 . S
C2722 C2726 1.531 . S
C2723 C2722 1.369 . S
C2723 C2724 1.410 . S
C2723 C2731 1.503 . S
C2724 C2723 1.410 . S
C2724 C2725 1.392 . S
C2724 C2727 1.511 . S
C2725 C2721 1.376 . S
C2725 C2724 1.392 . S
C2725 H2737 0.929 . S
C2726 C2722 1.531 . S
C2726 H2738 0.960 . S
C2726 H2739 0.962 . S
C2726 H2740 0.960 . S
C2727 C2724 1.511 . S
C2727 H2741 0.961 . S
C2727 H2742 0.961 . S
C2727 H2743 0.961 . S
C2728 C2729 1.370 . S
C2728 C2730 1.363 . S
C2728 H2744 0.931 . S
C2729 C2728 1.370 . S
C2729 C2733 1.408 . S
C2730 C2728 1.363 . S
C2730 C2731 1.370 . S
C2730 C2734 1.524 . S
C2731 C2723 1.503 . S
C2731 C2730 1.370 . S
C2731 C2732 1.403 . S
C2732 C2731 1.403 . S
C2732 C2733 1.404 . S
C2732 C2735 1.539 . S
C2733 C2729 1.408 . S
C2733 C2732 1.404 . S
C2733 H2745 0.930 . S
C2734 C2730 1.524 . S
C2734 H2746 0.956 . S
C2734 H2747 0.961 . S
C2734 H2748 0.961 . S
C2735 C2732 1.539 . S
C2735 H2749 0.958 . S
C2735 H2750 0.961 . S
C2735 H2751 0.960 . S
H2736 C2720 0.931 . S
H2737 C2725 0.929 . S
H2738 C2726 0.960 . S
H2739 C2726 0.962 . S
H2740 C2726 0.960 . S
H2741 C2727 0.961 . S
H2742 C2727 0.961 . S
H2743 C2727 0.961 . S
H2744 C2728 0.931 . S
H2745 C2733 0.930 . S
H2746 C2734 0.956 . S
H2747 C2734 0.961 . S
H2748 C2734 0.961 . S
H2749 C2735 0.958 . S
H2750 C2735 0.961 . S
H2751 C2735 0.960 . S
C2752 C2753 1.391 . S
C2752 C2754 1.394 . S
C2752 H2768 0.931 . S
C2753 C2752 1.391 . S
C2753 C2757 1.376 1_556 S
C2754 C2752 1.394 . S
C2754 C2755 1.369 . S
C2754 C2758 1.531 . S
C2755 C2754 1.369 . S
C2755 C2756 1.407 . S
C2755 C2763 1.503 . S
C2756 C2755 1.407 . S
C2756 C2757 1.393 1_556 S
C2756 C2759 1.513 1_556 S
C2757 C2753 1.376 1_554 S
C2757 C2756 1.393 1_554 S
C2757 H2769 0.929 . S
C2758 C2754 1.531 . S
C2758 H2770 0.960 . S
C2758 H2771 0.962 . S
C2758 H2772 0.960 . S
C2759 C2756 1.513 1_554 S
C2759 H2773 0.961 . S
C2759 H2774 0.961 . S
C2759 H2775 0.961 . S
C2760 C2761 1.370 . S
C2760 C2762 1.363 . S
C2760 H2776 0.931 . S
C2761 C2760 1.370 . S
C2761 C2765 1.408 . S
C2762 C2760 1.363 . S
C2762 C2763 1.370 . S
C2762 C2766 1.524 . S
C2763 C2755 1.503 . S
C2763 C2762 1.370 . S
C2763 C2764 1.403 . S
C2764 C2763 1.403 . S
C2764 C2765 1.404 . S
C2764 C2767 1.539 . S
C2765 C2761 1.408 . S
C2765 C2764 1.404 . S
C2765 H2777 0.930 . S
C2766 C2762 1.524 . S
C2766 H2778 0.956 . S
C2766 H2779 0.961 . S
C2766 H2780 0.961 . S
C2767 C2764 1.539 . S
C2767 H2781 0.958 . S
C2767 H2782 0.961 . S
C2767 H2783 0.960 . S
H2768 C2752 0.931 . S
H2769 C2757 0.929 . S
H2770 C2758 0.960 . S
H2771 C2758 0.962 . S
H2772 C2758 0.960 . S
H2773 C2759 0.961 . S
H2774 C2759 0.961 . S
H2775 C2759 0.961 . S
H2776 C2760 0.931 . S
H2777 C2765 0.930 . S
H2778 C2766 0.956 . S
H2779 C2766 0.961 . S
H2780 C2766 0.961 . S
H2781 C2767 0.958 . S
H2782 C2767 0.961 . S
H2783 C2767 0.960 . S
C2784 C2785 1.391 1_554 S
C2784 C2786 1.394 . S
C2784 H2800 0.931 . S
C2785 C2784 1.391 1_556 S
C2785 C2789 1.376 . S
C2786 C2784 1.394 . S
C2786 C2787 1.369 . S
C2786 C2790 1.531 . S
C2787 C2786 1.369 . S
C2787 C2788 1.410 1_554 S
C2787 C2795 1.503 . S
C2788 C2787 1.410 1_556 S
C2788 C2789 1.392 . S
C2788 C2791 1.511 . S
C2789 C2785 1.376 . S
C2789 C2788 1.392 . S
C2789 H2801 0.929 . S
C2790 C2786 1.531 . S
C2790 H2802 0.960 . S
C2790 H2803 0.962 . S
C2790 H2804 0.960 . S
C2791 C2788 1.511 . S
C2791 H2805 0.961 . S
C2791 H2806 0.961 . S
C2791 H2807 0.961 . S
C2792 C2793 1.370 . S
C2792 C2794 1.363 . S
C2792 H2808 0.931 . S
C2793 C2792 1.370 . S
C2793 C2797 1.408 . S
C2794 C2792 1.363 . S
C2794 C2795 1.370 . S
C2794 C2798 1.524 1_554 S
C2795 C2787 1.503 . S
C2795 C2794 1.370 . S
C2795 C2796 1.403 . S
C2796 C2795 1.403 . S
C2796 C2797 1.404 . S
C2796 C2799 1.539 . S
C2797 C2793 1.408 . S
C2797 C2796 1.404 . S
C2797 H2809 0.930 . S
C2798 C2794 1.524 1_556 S
C2798 H2810 0.956 . S
C2798 H2811 0.961 . S
C2798 H2812 0.961 . S
C2799 C2796 1.539 . S
C2799 H2813 0.958 . S
C2799 H2814 0.961 . S
C2799 H2815 0.960 . S
H2800 C2784 0.931 . S
H2801 C2789 0.929 . S
H2802 C2790 0.960 . S
H2803 C2790 0.962 . S
H2804 C2790 0.960 . S
H2805 C2791 0.961 . S
H2806 C2791 0.961 . S
H2807 C2791 0.961 . S
H2808 C2792 0.931 . S
H2809 C2797 0.930 . S
H2810 C2798 0.956 . S
H2811 C2798 0.961 . S
H2812 C2798 0.961 . S
H2813 C2799 0.958 . S
H2814 C2799 0.961 . S
H2815 C2799 0.960 . S
C2816 C2817 1.391 . S
C2816 C2818 1.394 . S
C2816 H2832 0.931 . S
C2817 C2816 1.391 . S
C2817 C2821 1.376 . S
C2818 C2816 1.394 . S
C2818 C2819 1.369 . S
C2818 C2822 1.531 . S
C2819 C2818 1.369 . S
C2819 C2820 1.410 . S
C2819 C2827 1.503 . S
C2820 C2819 1.410 . S
C2820 C2821 1.392 . S
C2820 C2823 1.511 . S
C2821 C2817 1.376 . S
C2821 C2820 1.392 . S
C2821 H2833 0.929 . S
C2822 C2818 1.531 . S
C2822 H2834 0.960 . S
C2822 H2835 0.962 . S
C2822 H2836 0.960 . S
C2823 C2820 1.511 . S
C2823 H2837 0.961 . S
C2823 H2838 0.961 . S
C2823 H2839 0.961 . S
C2824 C2825 1.370 . S
C2824 C2826 1.363 . S
C2824 H2840 0.931 . S
C2825 C2824 1.370 . S
C2825 C2829 1.408 . S
C2826 C2824 1.363 . S
C2826 C2827 1.370 . S
C2826 C2830 1.524 . S
C2827 C2819 1.503 . S
C2827 C2826 1.370 . S
C2827 C2828 1.403 . S
C2828 C2827 1.403 . S
C2828 C2829 1.404 . S
C2828 C2831 1.539 . S
C2829 C2825 1.408 . S
C2829 C2828 1.404 . S
C2829 H2841 0.930 . S
C2830 C2826 1.524 . S
C2830 H2842 0.956 . S
C2830 H2843 0.961 . S
C2830 H2844 0.961 . S
C2831 C2828 1.539 . S
C2831 H2845 0.958 . S
C2831 H2846 0.961 . S
C2831 H2847 0.960 . S
H2832 C2816 0.931 . S
H2833 C2821 0.929 . S
H2834 C2822 0.960 . S
H2835 C2822 0.962 . S
H2836 C2822 0.960 . S
H2837 C2823 0.961 . S
H2838 C2823 0.961 . S
H2839 C2823 0.961 . S
H2840 C2824 0.931 . S
H2841 C2829 0.930 . S
H2842 C2830 0.956 . S
H2843 C2830 0.961 . S
H2844 C2830 0.961 . S
H2845 C2831 0.958 . S
H2846 C2831 0.961 . S
H2847 C2831 0.960 . S
C2848 C2849 1.391 . S
C2848 C2850 1.394 . S
C2848 H2864 0.931 . S
C2849 C2848 1.391 . S
C2849 C2853 1.376 . S
C2850 C2848 1.394 . S
C2850 C2851 1.369 . S
C2850 C2854 1.531 . S
C2851 C2850 1.369 . S
C2851 C2852 1.410 . S
C2851 C2859 1.503 . S
C2852 C2851 1.410 . S
C2852 C2853 1.392 . S
C2852 C2855 1.511 . S
C2853 C2849 1.376 . S
C2853 C2852 1.392 . S
C2853 H2865 0.929 . S
C2854 C2850 1.531 . S
C2854 H2866 0.960 . S
C2854 H2867 0.962 . S
C2854 H2868 0.960 . S
C2855 C2852 1.511 . S
C2855 H2869 0.961 . S
C2855 H2870 0.961 . S
C2855 H2871 0.961 . S
C2856 C2857 1.370 . S
C2856 C2858 1.363 . S
C2856 H2872 0.931 . S
C2857 C2856 1.370 . S
C2857 C2861 1.408 . S
C2858 C2856 1.363 . S
C2858 C2859 1.370 . S
C2858 C2862 1.524 . S
C2859 C2851 1.503 . S
C2859 C2858 1.370 . S
C2859 C2860 1.403 . S
C2860 C2859 1.403 . S
C2860 C2861 1.404 . S
C2860 C2863 1.539 . S
C2861 C2857 1.408 . S
C2861 C2860 1.404 . S
C2861 H2873 0.930 . S
C2862 C2858 1.524 . S
C2862 H2874 0.956 . S
C2862 H2875 0.961 . S
C2862 H2876 0.961 . S
C2863 C2860 1.539 . S
C2863 H2877 0.958 . S
C2863 H2878 0.961 . S
C2863 H2879 0.960 . S
H2864 C2848 0.931 . S
H2865 C2853 0.929 . S
H2866 C2854 0.960 . S
H2867 C2854 0.962 . S
H2868 C2854 0.960 . S
H2869 C2855 0.961 . S
H2870 C2855 0.961 . S
H2871 C2855 0.961 . S
H2872 C2856 0.931 . S
H2873 C2861 0.930 . S
H2874 C2862 0.956 . S
H2875 C2862 0.961 . S
H2876 C2862 0.961 . S
H2877 C2863 0.958 . S
H2878 C2863 0.961 . S
H2879 C2863 0.960 . S
C2880 C2881 1.391 . S
C2880 C2882 1.394 . S
C2880 H2896 0.931 . S
C2881 C2880 1.391 . S
C2881 C2885 1.376 . S
C2882 C2880 1.394 . S
C2882 C2883 1.369 . S
C2882 C2886 1.531 . S
C2883 C2882 1.369 . S
C2883 C2884 1.410 . S
C2883 C2891 1.503 . S
C2884 C2883 1.410 . S
C2884 C2885 1.392 . S
C2884 C2887 1.511 . S
C2885 C2881 1.376 . S
C2885 C2884 1.392 . S
C2885 H2897 0.929 . S
C2886 C2882 1.531 . S
C2886 H2898 0.960 . S
C2886 H2899 0.962 . S
C2886 H2900 0.960 . S
C2887 C2884 1.511 . S
C2887 H2901 0.961 . S
C2887 H2902 0.961 . S
C2887 H2903 0.961 . S
C2888 C2889 1.370 . S
C2888 C2890 1.363 . S
C2888 H2904 0.931 . S
C2889 C2888 1.370 . S
C2889 C2893 1.408 . S
C2890 C2888 1.363 . S
C2890 C2891 1.370 . S
C2890 C2894 1.524 . S
C2891 C2883 1.503 . S
C2891 C2890 1.370 . S
C2891 C2892 1.403 . S
C2892 C2891 1.403 . S
C2892 C2893 1.404 . S
C2892 C2895 1.539 . S
C2893 C2889 1.408 . S
C2893 C2892 1.404 . S
C2893 H2905 0.930 . S
C2894 C2890 1.524 . S
C2894 H2906 0.956 . S
C2894 H2907 0.961 . S
C2894 H2908 0.961 . S
C2895 C2892 1.539 . S
C2895 H2909 0.958 . S
C2895 H2910 0.961 . S
C2895 H2911 0.960 . S
H2896 C2880 0.931 . S
H2897 C2885 0.929 . S
H2898 C2886 0.960 . S
H2899 C2886 0.962 . S
H2900 C2886 0.960 . S
H2901 C2887 0.961 . S
H2902 C2887 0.961 . S
H2903 C2887 0.961 . S
H2904 C2888 0.931 . S
H2905 C2893 0.930 . S
H2906 C2894 0.956 . S
H2907 C2894 0.961 . S
H2908 C2894 0.961 . S
H2909 C2895 0.958 . S
H2910 C2895 0.961 . S
H2911 C2895 0.960 . S
C2912 C2913 1.391 . S
C2912 C2914 1.394 . S
C2912 H2928 0.931 . S
C2913 C2912 1.391 . S
C2913 C2917 1.376 . S
C2914 C2912 1.394 . S
C2914 C2915 1.369 . S
C2914 C2918 1.531 . S
C2915 C2914 1.369 . S
C2915 C2916 1.410 . S
C2915 C2923 1.503 . S
C2916 C2915 1.410 . S
C2916 C2917 1.392 . S
C2916 C2919 1.511 . S
C2917 C2913 1.376 . S
C2917 C2916 1.392 . S
C2917 H2929 0.929 . S
C2918 C2914 1.531 . S
C2918 H2930 0.960 . S
C2918 H2931 0.962 . S
C2918 H2932 0.960 . S
C2919 C2916 1.511 . S
C2919 H2933 0.961 . S
C2919 H2934 0.961 . S
C2919 H2935 0.961 . S
C2920 C2921 1.370 . S
C2920 C2922 1.363 . S
C2920 H2936 0.931 . S
C2921 C2920 1.370 . S
C2921 C2925 1.408 . S
C2922 C2920 1.363 . S
C2922 C2923 1.370 . S
C2922 C2926 1.524 . S
C2923 C2915 1.503 . S
C2923 C2922 1.370 . S
C2923 C2924 1.403 . S
C2924 C2923 1.403 . S
C2924 C2925 1.404 . S
C2924 C2927 1.539 . S
C2925 C2921 1.408 . S
C2925 C2924 1.404 . S
C2925 H2937 0.930 . S
C2926 C2922 1.524 . S
C2926 H2938 0.956 . S
C2926 H2939 0.961 . S
C2926 H2940 0.961 . S
C2927 C2924 1.539 . S
C2927 H2941 0.958 . S
C2927 H2942 0.961 . S
C2927 H2943 0.960 . S
H2928 C2912 0.931 . S
H2929 C2917 0.929 . S
H2930 C2918 0.960 . S
H2931 C2918 0.962 . S
H2932 C2918 0.960 . S
H2933 C2919 0.961 . S
H2934 C2919 0.961 . S
H2935 C2919 0.961 . S
H2936 C2920 0.931 . S
H2937 C2925 0.930 . S
H2938 C2926 0.956 . S
H2939 C2926 0.961 . S
H2940 C2926 0.961 . S
H2941 C2927 0.958 . S
H2942 C2927 0.961 . S
H2943 C2927 0.960 . S
C2944 C2945 1.391 . S
C2944 C2946 1.394 . S
C2944 H2960 0.931 . S
C2945 C2944 1.391 . S
C2945 C2949 1.376 . S
C2946 C2944 1.394 . S
C2946 C2947 1.369 . S
C2946 C2950 1.531 . S
C2947 C2946 1.369 . S
C2947 C2948 1.410 . S
C2947 C2955 1.503 . S
C2948 C2947 1.410 . S
C2948 C2949 1.392 . S
C2948 C2951 1.511 . S
C2949 C2945 1.376 . S
C2949 C2948 1.392 . S
C2949 H2961 0.929 . S
C2950 C2946 1.531 . S
C2950 H2962 0.960 . S
C2950 H2963 0.962 . S
C2950 H2964 0.960 . S
C2951 C2948 1.511 . S
C2951 H2965 0.961 . S
C2951 H2966 0.961 . S
C2951 H2967 0.961 . S
C2952 C2953 1.370 . S
C2952 C2954 1.363 . S
C2952 H2968 0.931 . S
C2953 C2952 1.370 . S
C2953 C2957 1.408 . S
C2954 C2952 1.363 . S
C2954 C2955 1.370 . S
C2954 C2958 1.524 . S
C2955 C2947 1.503 . S
C2955 C2954 1.370 . S
C2955 C2956 1.403 . S
C2956 C2955 1.403 . S
C2956 C2957 1.404 . S
C2956 C2959 1.539 . S
C2957 C2953 1.408 . S
C2957 C2956 1.404 . S
C2957 H2969 0.930 . S
C2958 C2954 1.524 . S
C2958 H2970 0.956 . S
C2958 H2971 0.961 . S
C2958 H2972 0.961 . S
C2959 C2956 1.539 . S
C2959 H2973 0.958 . S
C2959 H2974 0.961 . S
C2959 H2975 0.960 . S
H2960 C2944 0.931 . S
H2961 C2949 0.929 . S
H2962 C2950 0.960 . S
H2963 C2950 0.962 . S
H2964 C2950 0.960 . S
H2965 C2951 0.961 . S
H2966 C2951 0.961 . S
H2967 C2951 0.961 . S
H2968 C2952 0.931 . S
H2969 C2957 0.930 . S
H2970 C2958 0.956 . S
H2971 C2958 0.961 . S
H2972 C2958 0.961 . S
H2973 C2959 0.958 . S
H2974 C2959 0.961 . S
H2975 C2959 0.960 . S
C2976 C2977 1.391 . S
C2976 C2978 1.394 . S
C2976 H2992 0.931 . S
C2977 C2976 1.391 . S
C2977 C2981 1.376 . S
C2978 C2976 1.394 . S
C2978 C2979 1.369 . S
C2978 C2982 1.531 . S
C2979 C2978 1.369 . S
C2979 C2980 1.410 . S
C2979 C2987 1.503 . S
C2980 C2979 1.410 . S
C2980 C2981 1.392 . S
C2980 C2983 1.511 . S
C2981 C2977 1.376 . S
C2981 C2980 1.392 . S
C2981 H2993 0.929 . S
C2982 C2978 1.531 . S
C2982 H2994 0.960 . S
C2982 H2995 0.962 . S
C2982 H2996 0.960 . S
C2983 C2980 1.511 . S
C2983 H2997 0.961 . S
C2983 H2998 0.961 . S
C2983 H2999 0.961 . S
C2984 C2985 1.370 . S
C2984 C2986 1.363 . S
C2984 H3000 0.931 . S
C2985 C2984 1.370 . S
C2985 C2989 1.408 . S
C2986 C2984 1.363 . S
C2986 C2987 1.370 . S
C2986 C2990 1.524 . S
C2987 C2979 1.503 . S
C2987 C2986 1.370 . S
C2987 C2988 1.403 . S
C2988 C2987 1.403 . S
C2988 C2989 1.404 . S
C2988 C2991 1.539 . S
C2989 C2985 1.408 . S
C2989 C2988 1.404 . S
C2989 H3001 0.930 . S
C2990 C2986 1.524 . S
C2990 H3002 0.956 . S
C2990 H3003 0.961 . S
C2990 H3004 0.961 . S
C2991 C2988 1.539 . S
C2991 H3005 0.958 . S
C2991 H3006 0.961 . S
C2991 H3007 0.960 . S
H2992 C2976 0.931 . S
H2993 C2981 0.929 . S
H2994 C2982 0.960 . S
H2995 C2982 0.962 . S
H2996 C2982 0.960 . S
H2997 C2983 0.961 . S
H2998 C2983 0.961 . S
H2999 C2983 0.961 . S
H3000 C2984 0.931 . S
H3001 C2989 0.930 . S
H3002 C2990 0.956 . S
H3003 C2990 0.961 . S
H3004 C2990 0.961 . S
H3005 C2991 0.958 . S
H3006 C2991 0.961 . S
H3007 C2991 0.960 . S
C3008 C3009 1.391 . S
C3008 C3010 1.394 . S
C3008 H3024 0.931 . S
C3009 C3008 1.391 . S
C3009 C3013 1.376 . S
C3010 C3008 1.394 . S
C3010 C3011 1.369 . S
C3010 C3014 1.531 . S
C3011 C3010 1.369 . S
C3011 C3012 1.410 . S
C3011 C3019 1.503 . S
C3012 C3011 1.410 . S
C3012 C3013 1.392 . S
C3012 C3015 1.511 . S
C3013 C3009 1.376 . S
C3013 C3012 1.392 . S
C3013 H3025 0.929 . S
C3014 C3010 1.531 . S
C3014 H3026 0.960 . S
C3014 H3027 0.962 . S
C3014 H3028 0.960 . S
C3015 C3012 1.511 . S
C3015 H3029 0.961 . S
C3015 H3030 0.961 . S
C3015 H3031 0.961 . S
C3016 C3017 1.370 . S
C3016 C3018 1.363 . S
C3016 H3032 0.931 . S
C3017 C3016 1.370 . S
C3017 C3021 1.408 . S
C3018 C3016 1.363 . S
C3018 C3019 1.370 . S
C3018 C3022 1.524 . S
C3019 C3011 1.503 . S
C3019 C3018 1.370 . S
C3019 C3020 1.403 . S
C3020 C3019 1.403 . S
C3020 C3021 1.404 . S
C3020 C3023 1.539 . S
C3021 C3017 1.408 . S
C3021 C3020 1.404 . S
C3021 H3033 0.930 . S
C3022 C3018 1.524 . S
C3022 H3034 0.956 . S
C3022 H3035 0.961 . S
C3022 H3036 0.961 . S
C3023 C3020 1.539 . S
C3023 H3037 0.958 . S
C3023 H3038 0.961 . S
C3023 H3039 0.960 . S
H3024 C3008 0.931 . S
H3025 C3013 0.929 . S
H3026 C3014 0.960 . S
H3027 C3014 0.962 . S
H3028 C3014 0.960 . S
H3029 C3015 0.961 . S
H3030 C3015 0.961 . S
H3031 C3015 0.961 . S
H3032 C3016 0.931 . S
H3033 C3021 0.930 . S
H3034 C3022 0.956 . S
H3035 C3022 0.961 . S
H3036 C3022 0.961 . S
H3037 C3023 0.958 . S
H3038 C3023 0.961 . S
H3039 C3023 0.960 . S
C3040 C3041 1.391 . S
C3040 C3042 1.394 . S
C3040 H3056 0.931 . S
C3041 C3040 1.391 . S
C3041 C3045 1.376 . S
C3042 C3040 1.394 . S
C3042 C3043 1.369 . S
C3042 C3046 1.531 . S
C3043 C3042 1.369 . S
C3043 C3044 1.410 . S
C3043 C3051 1.503 . S
C3044 C3043 1.410 . S
C3044 C3045 1.392 . S
C3044 C3047 1.511 . S
C3045 C3041 1.376 . S
C3045 C3044 1.392 . S
C3045 H3057 0.929 . S
C3046 C3042 1.531 . S
C3046 H3058 0.960 . S
C3046 H3059 0.962 . S
C3046 H3060 0.960 . S
C3047 C3044 1.511 . S
C3047 H3061 0.961 . S
C3047 H3062 0.961 . S
C3047 H3063 0.961 . S
C3048 C3049 1.370 . S
C3048 C3050 1.363 . S
C3048 H3064 0.931 . S
C3049 C3048 1.370 . S
C3049 C3053 1.408 . S
C3050 C3048 1.363 . S
C3050 C3051 1.370 . S
C3050 C3054 1.524 . S
C3051 C3043 1.503 . S
C3051 C3050 1.370 . S
C3051 C3052 1.403 . S
C3052 C3051 1.403 . S
C3052 C3053 1.404 . S
C3052 C3055 1.539 . S
C3053 C3049 1.408 . S
C3053 C3052 1.404 . S
C3053 H3065 0.930 . S
C3054 C3050 1.524 . S
C3054 H3066 0.956 . S
C3054 H3067 0.961 . S
C3054 H3068 0.961 . S
C3055 C3052 1.539 . S
C3055 H3069 0.958 . S
C3055 H3070 0.961 . S
C3055 H3071 0.960 . S
H3056 C3040 0.931 . S
H3057 C3045 0.929 . S
H3058 C3046 0.960 . S
H3059 C3046 0.962 . S
H3060 C3046 0.960 . S
H3061 C3047 0.961 . S
H3062 C3047 0.961 . S
H3063 C3047 0.961 . S
H3064 C3048 0.931 . S
H3065 C3053 0.930 . S
H3066 C3054 0.956 . S
H3067 C3054 0.961 . S
H3068 C3054 0.961 . S
H3069 C3055 0.958 . S
H3070 C3055 0.961 . S
H3071 C3055 0.960 . S
C3072 C3073 1.391 . S
C3072 C3074 1.394 . S
C3072 H3088 0.931 . S
C3073 C3072 1.391 . S
C3073 C3077 1.376 . S
C3074 C3072 1.394 . S
C3074 C3075 1.369 . S
C3074 C3078 1.531 . S
C3075 C3074 1.369 . S
C3075 C3076 1.410 . S
C3075 C3083 1.503 . S
C3076 C3075 1.410 . S
C3076 C3077 1.392 . S
C3076 C3079 1.511 . S
C3077 C3073 1.376 . S
C3077 C3076 1.392 . S
C3077 H3089 0.929 . S
C3078 C3074 1.531 . S
C3078 H3090 0.960 . S
C3078 H3091 0.962 . S
C3078 H3092 0.960 . S
C3079 C3076 1.511 . S
C3079 H3093 0.961 . S
C3079 H3094 0.961 . S
C3079 H3095 0.961 . S
C3080 C3081 1.370 . S
C3080 C3082 1.363 . S
C3080 H3096 0.931 . S
C3081 C3080 1.370 . S
C3081 C3085 1.408 . S
C3082 C3080 1.363 . S
C3082 C3083 1.370 . S
C3082 C3086 1.524 . S
C3083 C3075 1.503 . S
C3083 C3082 1.370 . S
C3083 C3084 1.403 . S
C3084 C3083 1.403 . S
C3084 C3085 1.404 . S
C3084 C3087 1.539 . S
C3085 C3081 1.408 . S
C3085 C3084 1.404 . S
C3085 H3097 0.930 . S
C3086 C3082 1.524 . S
C3086 H3098 0.956 . S
C3086 H3099 0.961 . S
C3086 H3100 0.961 . S
C3087 C3084 1.539 . S
C3087 H3101 0.958 . S
C3087 H3102 0.961 . S
C3087 H3103 0.960 . S
H3088 C3072 0.931 . S
H3089 C3077 0.929 . S
H3090 C3078 0.960 . S
H3091 C3078 0.962 . S
H3092 C3078 0.960 . S
H3093 C3079 0.961 . S
H3094 C3079 0.961 . S
H3095 C3079 0.961 . S
H3096 C3080 0.931 . S
H3097 C3085 0.930 . S
H3098 C3086 0.956 . S
H3099 C3086 0.961 . S
H3100 C3086 0.961 . S
H3101 C3087 0.958 . S
H3102 C3087 0.961 . S
H3103 C3087 0.960 . S
C3104 C3105 1.391 . S
C3104 C3106 1.394 . S
C3104 H3120 0.931 . S
C3105 C3104 1.391 . S
C3105 C3109 1.376 . S
C3106 C3104 1.394 . S
C3106 C3107 1.369 . S
C3106 C3110 1.531 . S
C3107 C3106 1.369 . S
C3107 C3108 1.410 . S
C3107 C3115 1.503 . S
C3108 C3107 1.410 . S
C3108 C3109 1.392 . S
C3108 C3111 1.511 . S
C3109 C3105 1.376 . S
C3109 C3108 1.392 . S
C3109 H3121 0.929 . S
C3110 C3106 1.531 . S
C3110 H3122 0.960 . S
C3110 H3123 0.962 . S
C3110 H3124 0.960 . S
C3111 C3108 1.511 . S
C3111 H3125 0.961 . S
C3111 H3126 0.961 . S
C3111 H3127 0.961 . S
C3112 C3113 1.370 . S
C3112 C3114 1.363 . S
C3112 H3128 0.931 . S
C3113 C3112 1.370 . S
C3113 C3117 1.408 . S
C3114 C3112 1.363 . S
C3114 C3115 1.370 . S
C3114 C3118 1.524 . S
C3115 C3107 1.503 . S
C3115 C3114 1.370 . S
C3115 C3116 1.403 . S
C3116 C3115 1.403 . S
C3116 C3117 1.404 . S
C3116 C3119 1.539 . S
C3117 C3113 1.408 . S
C3117 C3116 1.404 . S
C3117 H3129 0.930 . S
C3118 C3114 1.524 . S
C3118 H3130 0.956 . S
C3118 H3131 0.961 . S
C3118 H3132 0.961 . S
C3119 C3116 1.539 . S
C3119 H3133 0.958 . S
C3119 H3134 0.961 . S
C3119 H3135 0.960 . S
H3120 C3104 0.931 . S
H3121 C3109 0.929 . S
H3122 C3110 0.960 . S
H3123 C3110 0.962 . S
H3124 C3110 0.960 . S
H3125 C3111 0.961 . S
H3126 C3111 0.961 . S
H3127 C3111 0.961 . S
H3128 C3112 0.931 . S
H3129 C3117 0.930 . S
H3130 C3118 0.956 . S
H3131 C3118 0.961 . S
H3132 C3118 0.961 . S
H3133 C3119 0.958 . S
H3134 C3119 0.961 . S
H3135 C3119 0.960 . S
C3136 C3137 1.391 . S
C3136 C3138 1.394 . S
C3136 H3152 0.931 . S
C3137 C3136 1.391 . S
C3137 C3141 1.376 . S
C3138 C3136 1.394 . S
C3138 C3139 1.369 . S
C3138 C3142 1.531 . S
C3139 C3138 1.369 . S
C3139 C3140 1.410 . S
C3139 C3147 1.503 . S
C3140 C3139 1.410 . S
C3140 C3141 1.392 . S
C3140 C3143 1.511 . S
C3141 C3137 1.376 . S
C3141 C3140 1.392 . S
C3141 H3153 0.929 1_554 S
C3142 C3138 1.531 . S
C3142 H3154 0.960 . S
C3142 H3155 0.962 . S
C3142 H3156 0.960 . S
C3143 C3140 1.511 . S
C3143 H3157 0.961 1_554 S
C3143 H3158 0.961 . S
C3143 H3159 0.961 . S
C3144 C3145 1.370 . S
C3144 C3146 1.363 . S
C3144 H3160 0.931 . S
C3145 C3144 1.370 . S
C3145 C3149 1.408 . S
C3146 C3144 1.363 . S
C3146 C3147 1.370 . S
C3146 C3150 1.524 1_554 S
C3147 C3139 1.503 . S
C3147 C3146 1.370 . S
C3147 C3148 1.403 . S
C3148 C3147 1.403 . S
C3148 C3149 1.404 . S
C3148 C3151 1.539 . S
C3149 C3145 1.408 . S
C3149 C3148 1.404 . S
C3149 H3161 0.930 . S
C3150 C3146 1.524 1_556 S
C3150 H3162 0.956 1_556 S
C3150 H3163 0.961 . S
C3150 H3164 0.961 . S
C3151 C3148 1.539 . S
C3151 H3165 0.958 . S
C3151 H3166 0.961 . S
C3151 H3167 0.960 . S
H3152 C3136 0.931 . S
H3153 C3141 0.929 1_556 S
H3154 C3142 0.960 . S
H3155 C3142 0.962 . S
H3156 C3142 0.960 . S
H3157 C3143 0.961 1_556 S
H3158 C3143 0.961 . S
H3159 C3143 0.961 . S
H3160 C3144 0.931 . S
H3161 C3149 0.930 . S
H3162 C3150 0.956 1_554 S
H3163 C3150 0.961 . S
H3164 C3150 0.961 . S
H3165 C3151 0.958 . S
H3166 C3151 0.961 . S
H3167 C3151 0.960 . S
C3168 C3169 1.391 . S
C3168 C3170 1.394 . S
C3168 H3184 0.931 . S
C3169 C3168 1.391 . S
C3169 C3173 1.376 . S
C3170 C3168 1.394 . S
C3170 C3171 1.369 . S
C3170 C3174 1.531 1_556 S
C3171 C3170 1.369 . S
C3171 C3172 1.410 . S
C3171 C3179 1.503 . S
C3172 C3171 1.410 . S
C3172 C3173 1.392 . S
C3172 C3175 1.511 . S
C3173 C3169 1.376 . S
C3173 C3172 1.392 . S
C3173 H3185 0.929 . S
C3174 C3170 1.531 1_554 S
C3174 H3186 0.960 . S
C3174 H3187 0.962 . S
C3174 H3188 0.960 . S
C3175 C3172 1.511 . S
C3175 H3189 0.961 . S
C3175 H3190 0.961 . S
C3175 H3191 0.961 . S
C3176 C3177 1.370 1_556 S
C3176 C3178 1.363 . S
C3176 H3192 0.931 . S
C3177 C3176 1.370 1_554 S
C3177 C3181 1.408 . S
C3178 C3176 1.363 . S
C3178 C3179 1.370 . S
C3178 C3182 1.524 . S
C3179 C3171 1.503 . S
C3179 C3178 1.370 . S
C3179 C3180 1.403 1_556 S
C3180 C3179 1.403 1_554 S
C3180 C3181 1.404 . S
C3180 C3183 1.539 . S
C3181 C3177 1.408 . S
C3181 C3180 1.404 . S
C3181 H3193 0.930 . S
C3182 C3178 1.524 . S
C3182 H3194 0.956 . S
C3182 H3195 0.961 . S
C3182 H3196 0.961 . S
C3183 C3180 1.539 . S
C3183 H3197 0.958 . S
C3183 H3198 0.961 . S
C3183 H3199 0.960 . S
H3184 C3168 0.931 . S
H3185 C3173 0.929 . S
H3186 C3174 0.960 . S
H3187 C3174 0.962 . S
H3188 C3174 0.960 . S
H3189 C3175 0.961 . S
H3190 C3175 0.961 . S
H3191 C3175 0.961 . S
H3192 C3176 0.931 . S
H3193 C3181 0.930 . S
H3194 C3182 0.956 . S
H3195 C3182 0.961 . S
H3196 C3182 0.961 . S
H3197 C3183 0.958 . S
H3198 C3183 0.961 . S
H3199 C3183 0.960 . S
C3200 C3201 1.391 . S
C3200 C3202 1.394 . S
C3200 H3216 0.931 . S
C3201 C3200 1.391 . S
C3201 C3205 1.376 . S
C3202 C3200 1.394 . S
C3202 C3203 1.369 . S
C3202 C3206 1.531 . S
C3203 C3202 1.369 . S
C3203 C3204 1.410 . S
C3203 C3211 1.503 . S
C3204 C3203 1.410 . S
C3204 C3205 1.392 . S
C3204 C3207 1.511 . S
C3205 C3201 1.376 . S
C3205 C3204 1.392 . S
C3205 H3217 0.929 . S
C3206 C3202 1.531 . S
C3206 H3218 0.960 . S
C3206 H3219 0.962 . S
C3206 H3220 0.960 . S
C3207 C3204 1.511 . S
C3207 H3221 0.961 . S
C3207 H3222 0.961 . S
C3207 H3223 0.961 . S
C3208 C3209 1.370 . S
C3208 C3210 1.363 . S
C3208 H3224 0.931 . S
C3209 C3208 1.370 . S
C3209 C3213 1.408 . S
C3210 C3208 1.363 . S
C3210 C3211 1.370 . S
C3210 C3214 1.524 . S
C3211 C3203 1.503 . S
C3211 C3210 1.370 . S
C3211 C3212 1.403 . S
C3212 C3211 1.403 . S
C3212 C3213 1.404 . S
C3212 C3215 1.539 . S
C3213 C3209 1.408 . S
C3213 C3212 1.404 . S
C3213 H3225 0.930 . S
C3214 C3210 1.524 . S
C3214 H3226 0.956 . S
C3214 H3227 0.961 . S
C3214 H3228 0.961 . S
C3215 C3212 1.539 . S
C3215 H3229 0.958 . S
C3215 H3230 0.961 . S
C3215 H3231 0.960 . S
H3216 C3200 0.931 . S
H3217 C3205 0.929 . S
H3218 C3206 0.960 . S
H3219 C3206 0.962 . S
H3220 C3206 0.960 . S
H3221 C3207 0.961 . S
H3222 C3207 0.961 . S
H3223 C3207 0.961 . S
H3224 C3208 0.931 . S
H3225 C3213 0.930 . S
H3226 C3214 0.956 . S
H3227 C3214 0.961 . S
H3228 C3214 0.961 . S
H3229 C3215 0.958 . S
H3230 C3215 0.961 . S
H3231 C3215 0.960 . S
C3232 C3233 1.391 . S
C3232 C3234 1.394 . S
C3232 H3248 0.931 . S
C3233 C3232 1.391 . S
C3233 C3237 1.376 . S
C3234 C3232 1.394 . S
C3234 C3235 1.369 . S
C3234 C3238 1.531 . S
C3235 C3234 1.369 . S
C3235 C3236 1.410 . S
C3235 C3243 1.503 . S
C3236 C3235 1.410 . S
C3236 C3237 1.392 . S
C3236 C3239 1.511 . S
C3237 C3233 1.376 . S
C3237 C3236 1.392 . S
C3237 H3249 0.929 . S
C3238 C3234 1.531 . S
C3238 H3250 0.960 . S
C3238 H3251 0.962 . S
C3238 H3252 0.960 . S
C3239 C3236 1.511 . S
C3239 H3253 0.961 . S
C3239 H3254 0.961 . S
C3239 H3255 0.961 . S
C3240 C3241 1.370 . S
C3240 C3242 1.363 . S
C3240 H3256 0.931 . S
C3241 C3240 1.370 . S
C3241 C3245 1.408 . S
C3242 C3240 1.363 . S
C3242 C3243 1.370 . S
C3242 C3246 1.524 . S
C3243 C3235 1.503 . S
C3243 C3242 1.370 . S
C3243 C3244 1.403 . S
C3244 C3243 1.403 . S
C3244 C3245 1.404 . S
C3244 C3247 1.539 . S
C3245 C3241 1.408 . S
C3245 C3244 1.404 . S
C3245 H3257 0.930 . S
C3246 C3242 1.524 . S
C3246 H3258 0.956 . S
C3246 H3259 0.961 . S
C3246 H3260 0.961 . S
C3247 C3244 1.539 . S
C3247 H3261 0.958 . S
C3247 H3262 0.961 . S
C3247 H3263 0.960 . S
H3248 C3232 0.931 . S
H3249 C3237 0.929 . S
H3250 C3238 0.960 . S
H3251 C3238 0.962 . S
H3252 C3238 0.960 . S
H3253 C3239 0.961 . S
H3254 C3239 0.961 . S
H3255 C3239 0.961 . S
H3256 C3240 0.931 . S
H3257 C3245 0.930 . S
H3258 C3246 0.956 . S
H3259 C3246 0.961 . S
H3260 C3246 0.961 . S
H3261 C3247 0.958 . S
H3262 C3247 0.961 . S
H3263 C3247 0.960 . S
C961 C23 0.411 . S
C969 C745 0.224 . S
C993 C780 2.726 . S
C1001 C63 2.546 . S
C1025 C103 1.908 . S
C1033 C660 2.025 . S
C1057 C143 1.961 . S
C1065 C700 2.169 . S
C1089 C900 3.004 . S
C1097 C183 2.867 . S
C1121 C223 0.751 . S
C1129 C865 0.675 . S
C1153 C945 0.824 . S
C1161 C242 0.849 . S
C1185 C303 2.048 . S
C1193 C820 2.274 . S
C1217 C343 1.687 . S
C1225 C540 1.855 . S
C1249 C362 2.218 . S
C1257 C620 2.223 . S
C1281 C580 1.357 . S
C1289 C423 1.243 . S
C1313 C442 2.357 . S
C1321 C500 2.351 . S
C1345 C482 0.532 . S
C1353 C244 0.296 . S
C1377 C522 2.527 . S
C1385 C311 2.735 . S
C1409 C562 1.915 . S
C1417 C191 2.023 . S
C1441 C231 2.157 . S
C1449 C602 1.985 . S
C1473 C642 2.837 . S
C1481 C431 3.007 . S
C1505 C364 0.660 . S
C1513 C682 0.690 . S
C1537 C444 0.833 . S
C1545 C743 0.847 . S
C1569 C351 2.279 . S
C1577 C762 2.031 . S
C1601 C71 1.854 . S
C1609 C802 1.712 . S
C1633 C151 2.211 . S
C1641 C863 2.211 . S
C1665 C111 1.328 . S
C1673 C882 1.230 . S
C1697 C943 2.357 . S
C1705 C31 2.356 . S
C1729 C180 1.094 . S
C1737 C4 1.071 . S
C1761 C220 1.631 . S
C1769 C44 1.624 . S
C1793 C265 0.639 . S
C1801 C84 0.491 . S
C1825 C300 1.823 . S
C1833 C124 1.823 . S
C1857 C164 1.479 . S
C1865 C340 1.483 . S
C1889 C204 0.539 . S
C1897 C465 0.539 . S
C1921 C271 1.089 . S
C1929 C385 1.092 . S
C1953 C284 1.952 . S
C1961 C420 1.951 . S
C1985 C324 1.586 . S
C1993 C20 1.581 . S
C2017 C391 2.967 . S
C2025 C100 2.991 . S
C2049 C404 1.545 . S
C2057 C140 1.542 . S
C2081 C60 2.490 . S
C2089 C471 2.466 . S
C2113 C671 1.054 . S
C2121 C505 1.080 . S
C2145 C711 1.645 . S
C2153 C545 1.610 . S
C2177 C585 0.456 . S
C2185 C724 0.589 . S
C2209 C625 1.820 . S
C2217 C791 1.824 . S
C2241 C831 1.489 . S
C2249 C665 1.485 . S
C2273 C705 0.576 . S
C2281 C924 0.534 . S
C2305 C844 1.084 . S
C2313 C740 1.094 . S
C2337 C785 1.951 . S
C2345 C911 1.955 . S
C2369 C511 1.592 . S
C2377 C825 1.562 . S
C2401 C860 2.943 . S
C2409 C591 2.995 . S
C2433 C905 1.547 . S
C2441 C631 1.544 . S
C2465 C551 2.492 . S
C2473 C940 2.473 . S
C2497 C2 3.206 . S
C2505 C380 3.279 1_554 S
C2529 C425 1.695 . S
C2537 C42 1.689 . S
C2561 C345 1.783 . S
C2569 C82 1.806 . S
C2593 C460 2.851 . S
C2601 C122 2.814 . S
C2625 C162 1.380 . S
C2633 C145 1.416 . S
C2657 C105 1.657 . S
C2665 C202 1.614 . S
C2689 C263 1.131 . S
C2697 C65 1.159 . S
C2721 C25 1.111 . S
C2729 C282 1.113 . S
C2753 C322 1.299 1_556 S
C2761 C225 1.346 . S
C2785 C383 1.630 . S
C2793 C305 1.775 . S
C2817 C402 2.435 . S
C2825 C260 2.505 . S
C2849 C463 1.646 . S
C2857 C185 1.772 . S
C2881 C503 3.224 . S
C2889 C871 3.274 1_556 S
C2913 C543 1.682 . S
C2921 C884 1.697 . S
C2945 C804 1.783 . S
C2953 C583 1.806 . S
C2977 C951 2.862 . S
C2985 C623 2.805 . S
C3009 C663 1.416 . S
C3017 C604 1.407 . S
C3041 C703 1.649 . S
C3049 C564 1.627 . S
C3073 C524 1.155 . S
C3081 C722 1.092 . S
C3105 C783 1.132 . S
C3113 C484 1.114 . S
C3137 C823 1.336 1_554 S
C3145 C684 1.333 . S
C3169 C764 1.791 . S
C3177 C842 1.634 . S
C3201 C903 2.459 . S
C3209 C751 2.503 . S
C3233 C922 1.572 . S
C3241 C644 1.790 . S
