# Generated by pormake.
# Topology wjh, (4)-cn, num edge types: 1
# Building blocks:
#     Node 0, Type 0, BuildingBlock: ICAMEG_clean_sbu_1, # of connection points: 4
#     Node 1, Type 0, BuildingBlock: ICAMEG_clean_sbu_1, # of connection points: 4
#     Node 2, Type 0, BuildingBlock: ICAMEG_clean_sbu_1, # of connection points: 4
#     Node 3, Type 0, BuildingBlock: ICAMEG_clean_sbu_1, # of connection points: 4
#     Node 4, Type 0, BuildingBlock: ICAMEG_clean_sbu_1, # of connection points: 4
#     Node 5, Type 0, BuildingBlock: ICAMEG_clean_sbu_1, # of connection points: 4
#     Node 6, Type 0, BuildingBlock: ICAMEG_clean_sbu_1, # of connection points: 4
#     Node 7, Type 0, BuildingBlock: ICAMEG_clean_sbu_1, # of connection points: 4
#     Node 8, Type 0, BuildingBlock: ICAMEG_clean_sbu_1, # of connection points: 4
#     Node 9, Type 0, BuildingBlock: ICAMEG_clean_sbu_1, # of connection points: 4
#     Node 10, Type 0, BuildingBlock: ICAMEG_clean_sbu_1, # of connection points: 4
#     Node 11, Type 0, BuildingBlock: ICAMEG_clean_sbu_1, # of connection points: 4
#     Edge 12, Type (0, 0), BuildingBlock: XUDNAN_clean_linker_2, # of connection points: 2
#     Edge 13, Type (0, 0), BuildingBlock: XUDNAN_clean_linker_2, # of connection points: 2
#     Edge 14, Type (0, 0), BuildingBlock: XUDNAN_clean_linker_2, # of connection points: 2
#     Edge 15, Type (0, 0), BuildingBlock: XUDNAN_clean_linker_2, # of connection points: 2
#     Edge 16, Type (0, 0), BuildingBlock: XUDNAN_clean_linker_2, # of connection points: 2
#     Edge 17, Type (0, 0), BuildingBlock: XUDNAN_clean_linker_2, # of connection points: 2
#     Edge 18, Type (0, 0), BuildingBlock: XUDNAN_clean_linker_2, # of connection points: 2
#     Edge 19, Type (0, 0), BuildingBlock: XUDNAN_clean_linker_2, # of connection points: 2
#     Edge 20, Type (0, 0), BuildingBlock: XUDNAN_clean_linker_2, # of connection points: 2
#     Edge 21, Type (0, 0), BuildingBlock: XUDNAN_clean_linker_2, # of connection points: 2
#     Edge 22, Type (0, 0), BuildingBlock: XUDNAN_clean_linker_2, # of connection points: 2
#     Edge 23, Type (0, 0), BuildingBlock: XUDNAN_clean_linker_2, # of connection points: 2
#     Edge 24, Type (0, 0), BuildingBlock: XUDNAN_clean_linker_2, # of connection points: 2
#     Edge 25, Type (0, 0), BuildingBlock: XUDNAN_clean_linker_2, # of connection points: 2
#     Edge 26, Type (0, 0), BuildingBlock: XUDNAN_clean_linker_2, # of connection points: 2
#     Edge 27, Type (0, 0), BuildingBlock: XUDNAN_clean_linker_2, # of connection points: 2
#     Edge 28, Type (0, 0), BuildingBlock: XUDNAN_clean_linker_2, # of connection points: 2
#     Edge 29, Type (0, 0), BuildingBlock: XUDNAN_clean_linker_2, # of connection points: 2
#     Edge 30, Type (0, 0), BuildingBlock: XUDNAN_clean_linker_2, # of connection points: 2
#     Edge 31, Type (0, 0), BuildingBlock: XUDNAN_clean_linker_2, # of connection points: 2
#     Edge 32, Type (0, 0), BuildingBlock: XUDNAN_clean_linker_2, # of connection points: 2
#     Edge 33, Type (0, 0), BuildingBlock: XUDNAN_clean_linker_2, # of connection points: 2
#     Edge 34, Type (0, 0), BuildingBlock: XUDNAN_clean_linker_2, # of connection points: 2
#     Edge 35, Type (0, 0), BuildingBlock: XUDNAN_clean_linker_2, # of connection points: 2
# Relax obj value: 0.058
# Max RMSD: 0.097
# Mean RMSD: 0.097
data_MOF--net-wjh--node1-ICAMEG_clean_sbu_1--edge1-XUDNAN_clean_linker_2
_symmetry_space_group_name_H-M    P1
_symmetry_Int_Tables_number       1
_symmetry_cell_setting            triclinic
loop_
_symmetry_equiv_pos_as_xyz
'x, y, z'
_cell_length_a     63.420104
_cell_length_b     63.509216
_cell_length_c     29.648777
_cell_angle_alpha  90.010098
_cell_angle_beta   89.998138
_cell_angle_gamma 119.95087
loop_
_atom_site_label
_atom_site_type_symbol
_atom_site_fract_x
_atom_site_fract_y
_atom_site_fract_z
_atom_type_partial_charge
Co0 Co 0.49619 0.14038 0.06361 0.0
Co1 Co 0.54881 0.13683 0.05407 0.0
O2 O 0.52882 0.1516 0.03876 0.0
C3 C 0.52045 0.19351 0.08835 0.0
O4 O 0.54015 0.19334 0.10144 0.0
C5 C 0.54571 0.1326 0.95503 0.0
O6 O 0.52255 0.12588 0.9583 0.0
O7 O 0.52122 0.1032 0.04312 0.0
O8 O 0.48783 0.10573 0.05713 0.0
H9 H 0.56698 0.07771 0.13317 0.0
H10 H 0.51425 0.17469 0.98698 0.0
O11 O 0.50277 0.17462 0.07076 0.0
H12 H 0.43996 0.10291 0.93071 0.0
H13 H 0.41709 0.14023 0.08126 0.0
H14 H 0.46523 0.10281 0.13016 0.0
H15 H 0.45348 0.10451 0.00922 0.0
H16 H 0.45789 0.15407 0.04958 0.0
O17 O 0.55904 0.13856 0.99001 0.0
H18 H 0.54207 0.09616 0.11287 0.0
H19 H 0.59841 0.14688 0.02761 0.0
H20 H 0.42438 0.08824 0.16239 0.0
H21 H 0.50127 0.17405 0.90829 0.0
H22 H 0.40003 0.10702 0.13797 0.0
H23 H 0.46395 0.1379 0.87962 0.0
O24 O 0.50818 0.14156 0.12643 0.0
H25 H 0.60417 0.22487 0.01651 0.0
H26 H 0.58478 0.16039 0.12865 0.0
H27 H 0.61832 0.20192 0.1436 0.0
H28 H 0.62824 0.23451 0.08725 0.0
H29 H 0.57061 0.18309 0.00311 0.0
H30 H 0.62384 0.12881 0.04662 0.0
H31 H 0.6082 0.09405 0.09993 0.0
O32 O 0.53939 0.13466 0.11809 0.0
C33 C 0.49826 0.09353 0.04783 0.0
C34 C 0.57403 0.09289 0.10998 0.0
C35 C 0.60593 0.12155 0.06137 0.0
N36 N 0.56883 0.12268 0.06932 0.0
C37 C 0.56003 0.10345 0.09844 0.0
C38 C 0.59142 0.13167 0.05064 0.0
C39 C 0.59714 0.10205 0.0913 0.0
C40 C 0.4979 0.15897 0.97481 0.0
N41 N 0.48472 0.13957 0.00258 0.0
C42 C 0.49068 0.15868 0.9302 0.0
C43 C 0.46975 0.13838 0.91412 0.0
C44 C 0.45631 0.11873 0.94274 0.0
C45 C 0.46412 0.11965 0.98711 0.0
C46 C 0.42751 0.1319 0.09216 0.0
C47 C 0.45469 0.11099 0.11923 0.0
C48 C 0.45067 0.13971 0.07445 0.0
N49 N 0.46391 0.12921 0.08794 0.0
C50 C 0.43159 0.1027 0.13766 0.0
C51 C 0.41795 0.11325 0.12396 0.0
C52 C 0.52473 0.13786 0.14244 0.0
C53 C 0.60006 0.21082 0.04127 0.0
C54 C 0.58892 0.17447 0.10403 0.0
C55 C 0.60798 0.19795 0.11264 0.0
C56 C 0.61354 0.21622 0.08099 0.0
N57 N 0.5758 0.16931 0.06496 0.0
C58 C 0.58114 0.18712 0.03379 0.0
Co59 Co 0.38169 0.5174 0.24455 0.0
Co60 Co 0.43184 0.57421 0.2253 0.0
O61 O 0.39842 0.54883 0.21357 0.0
C62 C 0.35394 0.54181 0.26717 0.0
O63 O 0.3754 0.56071 0.27521 0.0
C64 C 0.43382 0.56516 0.1278 0.0
O65 O 0.42355 0.54185 0.13678 0.0
O66 O 0.44317 0.55013 0.22257 0.0
O67 O 0.41086 0.51298 0.23555 0.0
H68 H 0.51319 0.61105 0.30234 0.0
H69 H 0.35734 0.5274 0.16889 0.0
O70 O 0.35244 0.52186 0.25443 0.0
H71 H 0.36403 0.45664 0.12063 0.0
H72 H 0.30866 0.43635 0.2811 0.0
H73 H 0.39593 0.49168 0.31064 0.0
H74 H 0.37918 0.47533 0.19523 0.0
H75 H 0.3307 0.47613 0.24295 0.0
O76 O 0.43771 0.58036 0.15914 0.0
H77 H 0.47088 0.57917 0.28703 0.0
H78 H 0.46449 0.62345 0.1868 0.0
H79 H 0.37467 0.45197 0.34918 0.0
H80 H 0.34175 0.50914 0.09414 0.0
H81 H 0.33072 0.42402 0.3345 0.0
H82 H 0.3451 0.47353 0.06956 0.0
O83 O 0.3946 0.53237 0.30479 0.0
H84 H 0.38472 0.61373 0.17186 0.0
H85 H 0.43929 0.61339 0.28998 0.0
H86 H 0.42406 0.64223 0.29552 0.0
H87 H 0.39657 0.64252 0.23615 0.0
H88 H 0.40022 0.58504 0.16784 0.0
H89 H 0.50685 0.65569 0.20062 0.0
H90 H 0.53145 0.64964 0.25893 0.0
O91 O 0.42706 0.56897 0.29121 0.0
C92 C 0.43357 0.52717 0.22771 0.0
C93 C 0.50264 0.61393 0.27692 0.0
C94 C 0.49908 0.63897 0.21979 0.0
N95 N 0.46516 0.59952 0.23631 0.0
C96 C 0.47864 0.59597 0.26819 0.0
C97 C 0.47513 0.62062 0.21203 0.0
C98 C 0.51288 0.63556 0.25253 0.0
C99 C 0.35868 0.51179 0.15855 0.0
N100 N 0.36903 0.50236 0.18645 0.0
C101 C 0.3499 0.50158 0.11614 0.0
C102 C 0.35181 0.48162 0.10235 0.0
C103 C 0.36244 0.47214 0.13098 0.0
C104 C 0.37104 0.48283 0.17313 0.0
C105 C 0.32782 0.44836 0.28772 0.0
C106 C 0.37684 0.47953 0.30386 0.0
C107 C 0.34038 0.47092 0.26631 0.0
N108 N 0.3646 0.4861 0.27435 0.0
C109 C 0.36488 0.45711 0.32588 0.0
C110 C 0.34021 0.44144 0.31766 0.0
C111 C 0.4126 0.55241 0.31801 0.0
C112 C 0.39676 0.61384 0.19785 0.0
C113 C 0.42733 0.61339 0.26403 0.0
C114 C 0.41879 0.62979 0.26731 0.0
C115 C 0.40339 0.62996 0.23397 0.0
N116 N 0.42074 0.59763 0.22849 0.0
C117 C 0.40567 0.59771 0.19565 0.0
Co118 Co 0.86794 0.35925 0.4118 0.0
Co119 Co 0.87363 0.41162 0.36335 0.0
O120 O 0.86071 0.37628 0.36405 0.0
C121 C 0.81309 0.33164 0.42053 0.0
O122 O 0.8129 0.35177 0.42977 0.0
C123 C 0.88165 0.40017 0.26756 0.0
O124 O 0.87461 0.37736 0.27628 0.0
O125 O 0.90733 0.41811 0.37526 0.0
O126 O 0.90301 0.38525 0.41185 0.0
H127 H 0.92306 0.49634 0.42469 0.0
H128 H 0.84225 0.3322 0.32933 0.0
O129 O 0.83307 0.33218 0.41208 0.0
H130 H 0.91802 0.32845 0.33433 0.0
H131 H 0.86161 0.2856 0.48883 0.0
H132 H 0.89748 0.3746 0.49536 0.0
H133 H 0.90871 0.34957 0.39406 0.0
H134 H 0.85322 0.30733 0.42886 0.0
O135 O 0.88118 0.41419 0.29763 0.0
H136 H 0.90607 0.45192 0.42415 0.0
H137 H 0.86893 0.44627 0.30155 0.0
H138 H 0.90644 0.35362 0.55595 0.0
H139 H 0.8506 0.31047 0.26928 0.0
H140 H 0.88845 0.30879 0.5529 0.0
H141 H 0.88879 0.30862 0.27141 0.0
O142 O 0.8607 0.3765 0.46063 0.0
H143 H 0.79233 0.36978 0.28547 0.0
H144 H 0.84263 0.43099 0.39922 0.0
H145 H 0.80079 0.42244 0.38522 0.0
H146 H 0.77533 0.39168 0.32782 0.0
H147 H 0.83413 0.3787 0.30103 0.0
H148 H 0.8857 0.49065 0.30056 0.0
H149 H 0.9129 0.51599 0.36255 0.0
O150 O 0.8671 0.41119 0.42867 0.0
C151 C 0.91615 0.40648 0.39538 0.0
C152 C 0.91116 0.48549 0.39758 0.0
C153 C 0.89022 0.48229 0.32788 0.0
N154 N 0.88634 0.44648 0.36311 0.0
C155 C 0.90141 0.46032 0.39718 0.0
C156 C 0.88081 0.45718 0.32858 0.0
C157 C 0.90547 0.4965 0.36268 0.0
C158 C 0.85882 0.3313 0.3307 0.0
N159 N 0.87505 0.34228 0.36506 0.0
C160 C 0.86349 0.31905 0.29651 0.0
C161 C 0.88493 0.31804 0.29769 0.0
C162 C 0.90136 0.3292 0.33293 0.0
C163 C 0.89607 0.34129 0.36652 0.0
C164 C 0.86958 0.30514 0.4905 0.0
C165 C 0.88969 0.35511 0.49368 0.0
C166 C 0.86486 0.31754 0.45669 0.0
N167 N 0.87496 0.34223 0.45848 0.0
C168 C 0.89478 0.34332 0.52814 0.0
C169 C 0.88465 0.31817 0.52643 0.0
C170 C 0.86194 0.39716 0.46247 0.0
C171 C 0.80326 0.38327 0.3105 0.0
C172 C 0.83165 0.41747 0.37449 0.0
C173 C 0.80798 0.41277 0.36654 0.0
C174 C 0.79371 0.39553 0.33431 0.0
N175 N 0.84093 0.40544 0.35092 0.0
C176 C 0.82701 0.38847 0.31934 0.0
Co177 Co 0.50145 0.87733 0.57734 0.0
Co178 Co 0.44756 0.86246 0.52218 0.0
O179 O 0.47711 0.8603 0.53022 0.0
C180 C 0.48654 0.82511 0.59383 0.0
O181 O 0.46365 0.81929 0.58955 0.0
C182 C 0.4724 0.87884 0.43408 0.0
O183 O 0.49323 0.89084 0.45548 0.0
O184 O 0.46612 0.89864 0.52815 0.0
O185 O 0.50057 0.90794 0.56551 0.0
H186 H 0.38849 0.89079 0.55997 0.0
H187 H 0.51095 0.8514 0.50407 0.0
O188 O 0.50339 0.8472 0.5898 0.0
H189 H 0.57712 0.93661 0.49339 0.0
H190 H 0.57793 0.8995 0.66456 0.0
H191 H 0.50719 0.91157 0.65049 0.0
H192 H 0.54593 0.92392 0.55286 0.0
H193 H 0.54748 0.87875 0.60459 0.0
O194 O 0.45274 0.86595 0.45568 0.0
H195 H 0.42543 0.88766 0.57019 0.0
H196 H 0.4068 0.84152 0.45569 0.0
H197 H 0.53727 0.93278 0.7108 0.0
H198 H 0.54196 0.8632 0.44439 0.0
H199 H 0.57296 0.92681 0.7181 0.0
H200 H 0.57527 0.90611 0.43865 0.0
O201 O 0.47572 0.86752 0.62464 0.0
H202 H 0.43263 0.78212 0.4626 0.0
H203 H 0.40177 0.82273 0.5626 0.0
H204 H 0.37941 0.77801 0.55712 0.0
H205 H 0.39484 0.75742 0.50681 0.0
H206 H 0.45451 0.82681 0.46939 0.0
H207 H 0.36982 0.84438 0.44393 0.0
H208 H 0.36041 0.86907 0.49641 0.0
O209 O 0.44144 0.8592 0.58795 0.0
C210 C 0.48636 0.91393 0.54614 0.0
C211 C 0.39235 0.87991 0.53695 0.0
C212 C 0.38189 0.85389 0.4718 0.0
N213 N 0.41819 0.8643 0.51376 0.0
C214 C 0.4132 0.87801 0.54265 0.0
C215 C 0.40289 0.85239 0.47857 0.0
C216 C 0.37662 0.86774 0.50126 0.0
C217 C 0.5255 0.87007 0.50198 0.0
N218 N 0.52658 0.88698 0.5318 0.0
C219 C 0.54296 0.87666 0.46804 0.0
C220 C 0.56163 0.90074 0.4648 0.0
C221 C 0.56267 0.91787 0.49546 0.0
C222 C 0.54488 0.91061 0.52893 0.0
C223 C 0.56248 0.90228 0.66169 0.0
C224 C 0.52275 0.90898 0.65331 0.0
C225 C 0.54515 0.89053 0.62787 0.0
N226 N 0.52566 0.89406 0.6239 0.0
C227 C 0.53968 0.921 0.68759 0.0
C228 C 0.55968 0.91761 0.6917 0.0
C229 C 0.45325 0.86144 0.62399 0.0
C230 C 0.4257 0.79089 0.48458 0.0
C231 C 0.40863 0.8139 0.54076 0.0
C232 C 0.39586 0.78858 0.5377 0.0
C233 C 0.40452 0.77703 0.50943 0.0
N234 N 0.4294 0.82736 0.51629 0.0
C235 C 0.43797 0.81618 0.48844 0.0
Co236 Co 0.64559 0.50079 0.75473 0.0
Co237 Co 0.59859 0.4536 0.69628 0.0
O238 O 0.63314 0.4751 0.7089 0.0
C239 C 0.66638 0.46992 0.77995 0.0
O240 O 0.64401 0.45169 0.7765 0.0
C241 C 0.6182 0.47393 0.60645 0.0
O242 O 0.63148 0.49534 0.62522 0.0
O243 O 0.59368 0.482 0.69004 0.0
O244 O 0.62091 0.51055 0.73706 0.0
H245 H 0.5092 0.42396 0.71235 0.0
H246 H 0.67964 0.49851 0.68896 0.0
O247 O 0.67065 0.49152 0.7729 0.0
H248 H 0.68657 0.57861 0.66557 0.0
H249 H 0.71185 0.56901 0.84452 0.0
H250 H 0.62327 0.51863 0.82132 0.0
H251 H 0.65905 0.55063 0.72377 0.0
H252 H 0.6954 0.53709 0.78605 0.0
O253 O 0.60532 0.45527 0.63051 0.0
H254 H 0.55287 0.45029 0.7291 0.0
H255 H 0.57083 0.41154 0.63437 0.0
H256 H 0.63893 0.55042 0.87998 0.0
H257 H 0.70757 0.52603 0.6307 0.0
H258 H 0.68352 0.57588 0.89187 0.0
H259 H 0.7111 0.56637 0.61862 0.0
O260 O 0.62268 0.47821 0.80103 0.0
H261 H 0.64273 0.40762 0.66838 0.0
H262 H 0.5733 0.40634 0.74587 0.0
H263 H 0.58061 0.37195 0.75564 0.0
H264 H 0.61555 0.37246 0.71673 0.0
H265 H 0.63483 0.44172 0.65982 0.0
H266 H 0.52741 0.38501 0.61615 0.0
H267 H 0.49624 0.39106 0.65544 0.0
O268 O 0.59038 0.45107 0.76132 0.0
C269 C 0.6028 0.50248 0.71001 0.0
C270 C 0.52261 0.42108 0.69512 0.0
C271 C 0.53282 0.39923 0.6411 0.0
N272 N 0.56436 0.43234 0.68302 0.0
C273 C 0.54734 0.43589 0.70457 0.0
C274 C 0.55739 0.41435 0.6515 0.0
C275 C 0.51535 0.40264 0.66315 0.0
C276 C 0.68126 0.51613 0.6842 0.0
N277 N 0.66783 0.52301 0.70989 0.0
C278 C 0.69702 0.53159 0.65103 0.0
C279 C 0.69897 0.55421 0.64423 0.0
C280 C 0.6852 0.56108 0.67054 0.0
C281 C 0.66961 0.54514 0.70337 0.0
C282 C 0.69239 0.55807 0.83959 0.0
C283 C 0.6427 0.52974 0.8261 0.0
C284 C 0.68297 0.53996 0.8066 0.0
N285 N 0.65842 0.52616 0.80007 0.0
C286 C 0.65146 0.54767 0.85946 0.0
C287 C 0.67648 0.56192 0.86614 0.0
C288 C 0.60098 0.46036 0.79844 0.0
C289 C 0.62741 0.40716 0.68542 0.0
C290 C 0.58856 0.40672 0.72891 0.0
C291 C 0.59258 0.38717 0.73448 0.0
C292 C 0.61218 0.38746 0.71261 0.0
N293 N 0.6036 0.42599 0.70221 0.0
C294 C 0.6228 0.42637 0.68056 0.0
Co295 Co 0.13189 0.62632 0.91347 0.0
Co296 Co 0.14528 0.58602 0.85935 0.0
O297 O 0.14923 0.61836 0.86766 0.0
C298 C 0.18448 0.65914 0.93394 0.0
O299 O 0.18799 0.64091 0.92487 0.0
C300 C 0.13117 0.59366 0.76788 0.0
O301 O 0.1175 0.60149 0.78615 0.0
O302 O 0.10914 0.57076 0.8605 0.0
O303 O 0.10033 0.59649 0.89705 0.0
H304 H 0.10916 0.49703 0.89268 0.0
H305 H 0.16268 0.66309 0.84538 0.0
O306 O 0.16318 0.65647 0.93089 0.0
H307 H 0.08003 0.65027 0.82285 0.0
H308 H 0.11269 0.68303 -0.00038 0.0
H309 H 0.09361 0.59813 0.98111 0.0
H310 H 0.08807 0.62811 0.88243 0.0
H311 H 0.13392 0.67231 0.9422 0.0
O312 O 0.14473 0.58892 0.79232 0.0
H313 H 0.11506 0.53815 0.90318 0.0
H314 H 0.16673 0.56494 0.79664 0.0
H315 H 0.07181 0.608 0.03872 0.0
H316 H 0.15551 0.68584 0.78565 0.0
H317 H 0.08133 0.65072 0.04825 0.0
H318 H 0.11392 0.67944 0.77403 0.0
O319 O 0.13795 0.60793 0.9617 0.0
H320 H 0.22954 0.64824 0.81025 0.0
H321 H 0.18137 0.57624 0.90578 0.0
H322 H 0.22616 0.59615 0.90651 0.0
H323 H 0.25056 0.63245 0.85854 0.0
H324 H 0.18468 0.62785 0.8108 0.0
H325 H 0.16122 0.52406 0.78473 0.0
H326 H 0.13232 0.48977 0.83306 0.0
O327 O 0.14561 0.58156 0.92539 0.0
C328 C 0.09396 0.57653 0.87635 0.0
C329 C 0.12187 0.51184 0.87151 0.0
C330 C 0.15107 0.527 0.81089 0.0
N331 N 0.14139 0.55398 0.85085 0.0
C332 C 0.12535 0.53518 0.87739 0.0
C333 C 0.15409 0.55011 0.81777 0.0
C334 C 0.13485 0.50777 0.83802 0.0
C335 C 0.14457 0.66034 0.84072 0.0
N336 N 0.12584 0.64436 0.86745 0.0
C337 C 0.1406 0.67322 0.80676 0.0
C338 C 0.11726 0.6696 0.80023 0.0
C339 C 0.09824 0.65323 0.82758 0.0
C340 C 0.10288 0.64067 0.86118 0.0
C341 C 0.10836 0.66434 0.99574 0.0
C342 C 0.09773 0.61673 0.98488 0.0
C343 C 0.12035 0.65817 0.96335 0.0
N344 N 0.11488 0.63459 0.95813 0.0
C345 C 0.08538 0.62222 0.01764 0.0
C346 C 0.09075 0.6462 0.023 0.0
C347 C 0.14265 0.59062 0.96141 0.0
C348 C 0.21911 0.63241 0.83121 0.0
C349 C 0.19185 0.59203 0.88485 0.0
C350 C 0.21721 0.6032 0.88533 0.0
C351 C 0.23089 0.62356 0.85837 0.0
N352 N 0.18044 0.60086 0.85819 0.0
C353 C 0.19372 0.62073 0.83151 0.0
Co354 Co 0.8707 0.49025 0.84172 0.0
Co355 Co 0.86755 0.43524 0.86474 0.0
O356 O 0.859 0.46033 0.87662 0.0
C357 C 0.81731 0.46373 0.83007 0.0
O358 O 0.81968 0.44452 0.82471 0.0
C359 C 0.88554 0.45187 0.95658 0.0
O360 O 0.89437 0.47404 0.94105 0.0
O361 O 0.90247 0.46005 0.85638 0.0
O362 O 0.90513 0.49638 0.84486 0.0
H363 H 0.90747 0.39597 0.77993 0.0
H364 H 0.84068 0.48242 0.92335 0.0
O365 O 0.83619 0.48436 0.83764 0.0
H366 H 0.91888 0.55678 0.95377 0.0
H367 H 0.87329 0.56816 0.79868 0.0
H368 H 0.90602 0.51367 0.76719 0.0
H369 H 0.91176 0.53522 0.88124 0.0
H370 H 0.85934 0.53045 0.84249 0.0
O371 O 0.87358 0.43373 0.93066 0.0
H372 H 0.89663 0.42758 0.79505 0.0
H373 H 0.85672 0.38928 0.91122 0.0
H374 H 0.92065 0.5513 0.72281 0.0
H375 H 0.84692 0.50354 0.9962 0.0
H376 H 0.90425 0.57883 0.73847 0.0
H377 H 0.88628 0.54096 0.01182 0.0
O378 O 0.8656 0.47263 0.78351 0.0
H379 H 0.78663 0.39674 0.94345 0.0
H380 H 0.83178 0.39203 0.81204 0.0
H381 H 0.78817 0.36194 0.82032 0.0
H382 H 0.7653 0.3642 0.88641 0.0
H383 H 0.83022 0.42658 0.93367 0.0
H384 H 0.86737 0.35739 0.89769 0.0
H385 H 0.89282 0.36056 0.83151 0.0
O386 O 0.86201 0.43634 0.799 0.0
C387 C 0.91476 0.48293 0.84943 0.0
C388 C 0.89631 0.39434 0.80882 0.0
C389 C 0.87383 0.37271 0.87494 0.0
N390 N 0.8759 0.41018 0.85376 0.0
C391 C 0.89006 0.41215 0.81747 0.0
C392 C 0.86791 0.39085 0.88249 0.0
C393 C 0.8881 0.37449 0.83779 0.0
C394 C 0.85776 0.49882 0.92977 0.0
N395 N 0.87578 0.50765 0.89804 0.0
C396 C 0.86123 0.51065 0.97113 0.0
C397 C 0.88334 0.53162 0.97989 0.0
C398 C 0.90164 0.54051 0.94735 0.0
C399 C 0.89753 0.52819 0.90639 0.0
C400 C 0.88062 0.55634 0.7916 0.0
C401 C 0.89893 0.52566 0.77438 0.0
C402 C 0.87275 0.53495 0.81623 0.0
N403 N 0.88201 0.52001 0.8076 0.0
C404 C 0.90722 0.54689 0.74906 0.0
C405 C 0.89799 0.56232 0.75784 0.0
C406 C 0.86235 0.45191 0.77152 0.0
C407 C 0.79641 0.39553 0.91458 0.0
C408 C 0.82195 0.39313 0.84089 0.0
C409 C 0.79727 0.37603 0.84543 0.0
C410 C 0.78445 0.37729 0.88253 0.0
N411 N 0.83355 0.41096 0.87249 0.0
C412 C 0.82112 0.4123 0.90897 0.0
Co413 Co 0.36756 0.86555 0.00819 0.0
Co414 Co 0.4254 0.8739 0.02001 0.0
O415 O 0.39077 0.85779 0.03673 0.0
C416 C 0.33838 0.81141 0.99123 0.0
O417 O 0.35623 0.81226 0.96733 0.0
C418 C 0.42718 0.88077 0.11875 0.0
O419 O 0.40978 0.88614 0.11472 0.0
O420 O 0.42905 0.9068 0.02725 0.0
O421 O 0.39266 0.90089 0.0054 0.0
H422 H 0.50012 0.93392 0.93537 0.0
H423 H 0.35445 0.83761 0.09339 0.0
O424 O 0.34103 0.83046 0.0109 0.0
H425 H 0.35007 0.91132 0.12753 0.0
H426 H 0.28583 0.85943 0.98718 0.0
H427 H 0.37026 0.89683 0.93172 0.0
H428 H 0.36059 0.9043 0.0511 0.0
H429 H 0.3153 0.85032 0.02372 0.0
O430 O 0.43498 0.8748 0.08437 0.0
H431 H 0.45682 0.91358 0.95709 0.0
H432 H 0.46743 0.86815 0.04835 0.0
H433 H 0.34146 0.90664 0.89447 0.0
H434 H 0.34358 0.84374 0.17025 0.0
H435 H 0.29889 0.88786 0.92217 0.0
H436 H 0.34145 0.88088 0.18776 0.0
O437 O 0.37731 0.8604 0.94701 0.0
H438 H 0.39843 0.78814 0.06702 0.0
H439 H 0.43959 0.85003 0.94878 0.0
H440 H 0.43439 0.80918 0.93862 0.0
H441 H 0.41372 0.77791 -0.00193 0.0
H442 H 0.40383 0.82921 0.0756 0.0
H443 H 0.51091 0.88817 0.02796 0.0
H444 H 0.52749 0.92123 0.97093 0.0
O445 O 0.41714 0.87344 0.95535 0.0
C446 C 0.41486 0.91479 0.01649 0.0
C447 C 0.4931 0.9195 0.96018 0.0
C448 C 0.49916 0.89384 0.01219 0.0
N449 N 0.45957 0.88958 0.0037 0.0
C450 C 0.46858 0.90787 0.97253 0.0
C451 C 0.47454 0.88261 0.02368 0.0
C452 C 0.50845 0.91238 0.98017 0.0
C453 C 0.35335 0.85371 0.10068 0.0
N454 N 0.35821 0.87061 0.0678 0.0
C455 C 0.34727 0.85713 0.14429 0.0
C456 C 0.34611 0.87799 0.15411 0.0
C457 C 0.35098 0.89509 0.12035 0.0
C458 C 0.35705 0.89108 0.07715 0.0
C459 C 0.30433 0.86773 0.97481 0.0
C460 C 0.3518 0.88867 0.9441 0.0
C461 C 0.32108 0.86257 0.99526 0.0
N462 N 0.3445 0.87308 0.97995 0.0
C463 C 0.33556 0.89426 0.92281 0.0
C464 C 0.31167 0.8837 0.93835 0.0
C465 C 0.39821 0.86618 0.93105 0.0
C466 C 0.4075 0.80163 0.04092 0.0
C467 C 0.43048 0.83651 0.97471 0.0
C468 C 0.42765 0.81342 0.96883 0.0
C469 C 0.41606 0.79589 0.0022 0.0
N470 N 0.42207 0.84201 0.01282 0.0
C471 C 0.41067 0.82492 0.04566 0.0
Co472 Co 0.50666 0.38186 0.18354 0.0
Co473 Co 0.56573 0.42969 0.19447 0.0
O474 O 0.53956 0.39689 0.20931 0.0
C475 C 0.52382 0.34731 0.1592 0.0
O476 O 0.54506 0.36615 0.14935 0.0
C477 C 0.56327 0.43133 0.29395 0.0
O478 O 0.53942 0.4188 0.29141 0.0
O479 O 0.54383 0.44331 0.2047 0.0
O480 O 0.50574 0.41282 0.19195 0.0
H481 H 0.60204 0.51039 0.1157 0.0
H482 H 0.517 0.3575 0.25848 0.0
O483 O 0.50668 0.35043 0.1742 0.0
H484 H 0.45354 0.37368 0.31627 0.0
H485 H 0.42057 0.31377 0.16187 0.0
H486 H 0.48131 0.39773 0.11979 0.0
H487 H 0.46899 0.38514 0.23861 0.0
H488 H 0.46206 0.33329 0.19358 0.0
O489 O 0.57621 0.43627 0.25863 0.0
H490 H 0.56941 0.46916 0.13573 0.0
H491 H 0.61777 0.46006 0.22196 0.0
H492 H 0.43995 0.37901 0.08768 0.0
H493 H 0.50191 0.34554 0.33629 0.0
H494 H 0.40926 0.33672 0.10869 0.0
H495 H 0.47001 0.3537 0.36569 0.0
O496 O 0.51952 0.39183 0.12097 0.0
H497 H 0.60299 0.37841 0.23363 0.0
H498 H 0.59988 0.43389 0.12094 0.0
H499 H 0.62579 0.41582 0.10686 0.0
H500 H 0.62747 0.38784 0.16345 0.0
H501 H 0.57713 0.39674 0.24616 0.0
H502 H 0.65083 0.50132 0.20332 0.0
H503 H 0.6431 0.52673 0.14963 0.0
O504 O 0.55647 0.42449 0.13029 0.0
C505 C 0.52095 0.43503 0.20095 0.0
C506 C 0.60565 0.49947 0.13907 0.0
C507 C 0.63303 0.49439 0.18827 0.0
N508 N 0.59172 0.46215 0.17974 0.0
C509 C 0.58727 0.47609 0.15045 0.0
C510 C 0.61421 0.47106 0.1988 0.0
C511 C 0.62868 0.50863 0.15814 0.0
C512 C 0.50296 0.3609 0.27093 0.0
N513 N 0.49384 0.37193 0.24401 0.0
C514 C 0.49455 0.35418 0.31505 0.0
C515 C 0.47668 0.3588 0.33155 0.0
C516 C 0.46744 0.37002 0.30385 0.0
C517 C 0.47631 0.37653 0.25994 0.0
C518 C 0.43377 0.33222 0.15251 0.0
C519 C 0.46801 0.37937 0.1293 0.0
C520 C 0.45731 0.34334 0.17025 0.0
N521 N 0.47403 0.36667 0.15874 0.0
C522 C 0.44464 0.36885 0.11091 0.0
C523 C 0.42744 0.34511 0.12268 0.0
C524 C 0.53912 0.40954 0.10548 0.0
C525 C 0.60246 0.39062 0.20877 0.0
C526 C 0.60046 0.4217 0.14569 0.0
C527 C 0.61522 0.41156 0.13757 0.0
C528 C 0.61616 0.39589 0.16936 0.0
N529 N 0.58705 0.41642 0.18441 0.0
C530 C 0.58794 0.40113 0.21578 0.0
Co531 Co 0.14412 0.50045 0.34238 0.0
Co532 Co 0.13564 0.54945 0.36411 0.0
O533 O 0.15214 0.53066 0.37386 0.0
C534 C 0.19597 0.53347 0.31922 0.0
O535 O 0.19013 0.55042 0.31343 0.0
C536 C 0.12677 0.53587 0.45997 0.0
O537 O 0.12136 0.514 0.44684 0.0
O538 O 0.10279 0.51958 0.36535 0.0
O539 O 0.10851 0.48786 0.35259 0.0
H540 H 0.07606 0.56888 0.29031 0.0
H541 H 0.17923 0.51788 0.4181 0.0
O542 O 0.17975 0.51226 0.33166 0.0
H543 H 0.11387 0.4366 0.46397 0.0
H544 H 0.15563 0.42987 0.30153 0.0
H545 H 0.10671 0.46944 0.27552 0.0
H546 H 0.11258 0.45357 0.38986 0.0
H547 H 0.16508 0.46755 0.34189 0.0
O548 O 0.1336 0.55291 0.43111 0.0
H549 H 0.0969 0.54535 0.30258 0.0
H550 H 0.13976 0.5939 0.40663 0.0
H551 H 0.09646 0.43163 0.23475 0.0
H552 H 0.18145 0.50153 0.49235 0.0
H553 H 0.12103 0.41161 0.24765 0.0
H554 H 0.14854 0.46065 0.51577 0.0
O555 O 0.1426 0.51453 0.28317 0.0
H556 H 0.22022 0.60573 0.42089 0.0
H557 H 0.16019 0.59203 0.30221 0.0
H558 H 0.20095 0.62854 0.29894 0.0
H559 H 0.23128 0.63558 0.35861 0.0
H560 H 0.17931 0.56934 0.42263 0.0
H561 H 0.11923 0.61784 0.39577 0.0
H562 H 0.0872 0.60541 0.33712 0.0
O563 O 0.13726 0.54633 0.29748 0.0
C564 C 0.09481 0.49686 0.36065 0.0
C565 C 0.09004 0.57452 0.31587 0.0
C566 C 0.11425 0.60199 0.3751 0.0
N567 N 0.11965 0.56836 0.35504 0.0
C568 C 0.10195 0.56132 0.32288 0.0
C569 C 0.12577 0.58833 0.38117 0.0
C570 C 0.09628 0.595 0.34218 0.0
C571 C 0.16493 0.50002 0.42798 0.0
N572 N 0.14575 0.48671 0.39979 0.0
C573 C 0.16625 0.49088 0.47009 0.0
C574 C 0.14776 0.46795 0.48323 0.0
C575 C 0.1283 0.45446 0.45421 0.0
C576 C 0.12759 0.46419 0.41238 0.0
C577 C 0.14476 0.43839 0.29569 0.0
C578 C 0.11736 0.46072 0.28154 0.0
C579 C 0.15006 0.45976 0.31836 0.0
N580 N 0.13633 0.47056 0.31131 0.0
C581 C 0.11152 0.43937 0.25826 0.0
C582 C 0.12533 0.42815 0.26548 0.0
C583 C 0.13992 0.53225 0.27035 0.0
C584 C 0.20714 0.60289 0.39476 0.0
C585 C 0.17331 0.59494 0.32826 0.0
C586 C 0.19634 0.61567 0.32627 0.0
C587 C 0.21334 0.61962 0.35977 0.0
N588 N 0.16736 0.57863 0.3627 0.0
C589 C 0.18392 0.58238 0.39568 0.0
Co590 Co 0.62012 0.13131 0.49491 0.0
Co591 Co 0.5795 0.14338 0.55166 0.0
O592 O 0.61212 0.14798 0.54177 0.0
C593 C 0.65449 0.18416 0.4762 0.0
O594 O 0.63706 0.18894 0.48536 0.0
C595 C 0.59171 0.13086 0.64037 0.0
O596 O 0.60171 0.11971 0.61976 0.0
O597 O 0.56422 0.10723 0.54857 0.0
O598 O 0.5903 0.09973 0.50995 0.0
H599 H 0.4902 0.10781 0.52043 0.0
H600 H 0.65645 0.1607 0.5647 0.0
O601 O 0.65054 0.16243 0.47882 0.0
H602 H 0.6442 0.07801 0.58031 0.0
H603 H 0.67634 0.11262 0.40547 0.0
H604 H 0.59172 0.09463 0.42503 0.0
H605 H 0.62243 0.0872 0.5216 0.0
H606 H 0.66592 0.13299 0.46506 0.0
O607 O 0.58305 0.14187 0.61802 0.0
H608 H 0.53138 0.11404 0.50779 0.0
H609 H 0.55857 0.16334 0.61792 0.0
H610 H 0.6013 0.07372 0.3652 0.0
H611 H 0.67888 0.15243 0.62354 0.0
H612 H 0.64388 0.08268 0.35513 0.0
H613 H 0.67272 0.1108 0.63175 0.0
O614 O 0.60172 0.13834 0.44824 0.0
H615 H 0.64159 0.22702 0.60384 0.0
H616 H 0.56891 0.17977 0.5092 0.0
H617 H 0.58832 0.22444 0.51122 0.0
H618 H 0.62494 0.24838 0.55882 0.0
H619 H 0.62171 0.18231 0.60052 0.0
H620 H 0.51765 0.15743 0.63208 0.0
H621 H 0.48313 0.12957 0.583 0.0
O622 O 0.57472 0.14464 0.48608 0.0
C623 C 0.57027 0.09269 0.53082 0.0
C624 C 0.50511 0.12005 0.54196 0.0
C625 C 0.5205 0.14788 0.60465 0.0
N626 N 0.54739 0.13914 0.56189 0.0
C627 C 0.52848 0.1237 0.53488 0.0
C628 C 0.54363 0.15111 0.59652 0.0
C629 C 0.50115 0.13225 0.5771 0.0
C630 C 0.65382 0.14259 0.56787 0.0
N631 N 0.63809 0.12443 0.53985 0.0
C632 C 0.66651 0.13799 0.60133 0.0
C633 C 0.66302 0.11463 0.60595 0.0
C634 C 0.647 0.09622 0.57714 0.0
C635 C 0.63462 0.10148 0.54411 0.0
C636 C 0.65771 0.10854 0.40956 0.0
C637 C 0.61026 0.09852 0.42102 0.0
C638 C 0.65171 0.12006 0.44317 0.0
N639 N 0.62821 0.11489 0.44867 0.0
C640 C 0.61559 0.08667 0.38701 0.0
C641 C 0.63949 0.09173 0.38135 0.0
C642 C 0.5841 0.14265 0.44963 0.0
C643 C 0.62562 0.21679 0.58305 0.0
C644 C 0.58487 0.19005 0.52987 0.0
C645 C 0.59575 0.21534 0.53099 0.0
C646 C 0.61628 0.22876 0.55773 0.0
N647 N 0.59415 0.17844 0.55478 0.0
C648 C 0.61423 0.19147 0.58117 0.0
Co649 Co 0.52611 0.6496 0.65713 0.0
Co650 Co 0.48172 0.6046 0.72214 0.0
O651 O 0.5051 0.63879 0.71033 0.0
C652 C 0.50277 0.68045 0.65094 0.0
O653 O 0.4814 0.66061 0.6533 0.0
C654 C 0.49222 0.59779 0.81581 0.0
O655 O 0.49487 0.57983 0.80053 0.0
O656 O 0.50823 0.59646 0.7172 0.0
O657 O 0.53081 0.62057 0.66031 0.0
H658 H 0.44329 0.51456 0.69734 0.0
H659 H 0.53705 0.68332 0.73401 0.0
O660 O 0.52218 0.67911 0.65272 0.0
H661 H 0.61007 0.67539 0.71583 0.0
H662 H 0.59166 0.71208 0.55709 0.0
H663 H 0.53049 0.6254 0.57505 0.0
H664 H 0.57485 0.6535 0.66511 0.0
H665 H 0.56584 0.69772 0.62508 0.0
O666 O 0.48832 0.61095 0.78836 0.0
H667 H 0.4722 0.55785 0.68237 0.0
H668 H 0.44131 0.57844 0.7887 0.0
H669 H 0.55596 0.63894 0.5066 0.0
H670 H 0.57198 0.70574 0.78523 0.0
H671 H 0.58683 0.68258 0.49731 0.0
H672 H 0.6088 0.7018 0.77631 0.0
O673 O 0.49765 0.63137 0.61677 0.0
H674 H 0.44568 0.65514 0.7743 0.0
H675 H 0.43188 0.58456 0.68274 0.0
H676 H 0.40019 0.59618 0.68585 0.0
H677 H 0.40697 0.63169 0.73197 0.0
H678 H 0.47701 0.64303 0.76985 0.0
H679 H 0.41213 0.53538 0.80492 0.0
H680 H 0.41301 0.5031 0.75904 0.0
O681 O 0.4744 0.59752 0.65658 0.0
C682 C 0.52489 0.60287 0.68752 0.0
C683 C 0.44272 0.52847 0.71753 0.0
C684 C 0.42521 0.54015 0.77789 0.0
N685 N 0.45843 0.57067 0.73454 0.0
C686 C 0.45903 0.55301 0.70919 0.0
C687 C 0.44177 0.5645 0.76852 0.0
C688 C 0.42573 0.52204 0.75216 0.0
C689 C 0.55308 0.68165 0.72977 0.0
N690 N 0.55396 0.66723 0.6965 0.0
C691 C 0.57277 0.69433 0.75894 0.0
C692 C 0.59342 0.69209 0.75394 0.0
C693 C 0.59414 0.67727 0.72003 0.0
C694 C 0.57411 0.66487 0.69149 0.0
C695 C 0.57832 0.69301 0.5608 0.0
C696 C 0.54399 0.64438 0.5714 0.0
C697 C 0.56363 0.68478 0.5992 0.0
N698 N 0.54683 0.66071 0.6042 0.0
C699 C 0.55831 0.65196 0.5325 0.0
C700 C 0.57561 0.67645 0.52728 0.0
C701 C 0.47991 0.60969 0.62004 0.0
C702 C 0.44248 0.63959 0.75419 0.0
C703 C 0.43504 0.60009 0.70271 0.0
C704 C 0.41698 0.60654 0.70447 0.0
C705 C 0.42078 0.62645 0.73038 0.0
N706 N 0.45626 0.61304 0.72624 0.0
C707 C 0.46012 0.63259 0.75169 0.0
H708 H 0.55632 0.12775 0.18679 0.0
H709 H 0.50228 0.14964 0.20973 0.0
H710 H 0.51189 0.15356 0.29136 0.0
H711 H 0.54584 0.09303 0.28843 0.0
H712 H 0.57763 0.10276 0.29581 0.0
H713 H 0.56553 0.10071 0.24 0.0
H714 H 0.59789 0.14572 0.22539 0.0
H715 H 0.60999 0.14802 0.28127 0.0
H716 H 0.60015 0.16888 0.26348 0.0
H717 H 0.52843 0.15608 0.36981 0.0
H718 H 0.54919 0.15568 0.43954 0.0
H719 H 0.59308 0.13305 0.36342 0.0
C720 C 0.54628 0.13325 0.20874 0.0
C721 C 0.52853 0.13845 0.19173 0.0
C722 C 0.51589 0.14549 0.22197 0.0
C723 C 0.52129 0.14784 0.2683 0.0
C724 C 0.53932 0.14307 0.28354 0.0
C725 C 0.55149 0.13579 0.25462 0.0
C726 C 0.5704 0.13216 0.27899 0.0
C727 C 0.56448 0.10558 0.27561 0.0
C728 C 0.59613 0.14975 0.26122 0.0
C729 C 0.56703 0.13857 0.32646 0.0
C730 C 0.54902 0.14479 0.32839 0.0
C731 C 0.54254 0.15124 0.36868 0.0
C732 C 0.55455 0.151 0.40813 0.0
C733 C 0.57292 0.14442 0.40706 0.0
C734 C 0.5793 0.13834 0.36545 0.0
H735 H 0.44874 0.59336 0.35819 0.0
H736 H 0.38767 0.52179 0.38858 0.0
H737 H 0.39737 0.52933 0.46982 0.0
H738 H 0.48918 0.59259 0.43898 0.0
H739 H 0.50278 0.62438 0.45274 0.0
H740 H 0.49022 0.61381 0.39742 0.0
H741 H 0.46245 0.63266 0.40696 0.0
H742 H 0.47499 0.64339 0.46229 0.0
H743 H 0.44256 0.62447 0.45518 0.0
H744 H 0.41505 0.54406 0.54717 0.0
H745 H 0.4388 0.56482 0.61495 0.0
H746 H 0.488 0.62687 0.53299 0.0
C747 C 0.43717 0.57926 0.38176 0.0
C748 C 0.41736 0.55697 0.36689 0.0
C749 C 0.40288 0.53904 0.39911 0.0
C750 C 0.40825 0.54316 0.4453 0.0
C751 C 0.42807 0.56528 0.45859 0.0
C752 C 0.44223 0.58304 0.42773 0.0
C753 C 0.46292 0.60498 0.45041 0.0
C754 C 0.48774 0.60917 0.4339 0.0
C755 C 0.46058 0.62772 0.44329 0.0
C756 C 0.45834 0.59672 0.499 0.0
C757 C 0.43814 0.57381 0.50303 0.0
C758 C 0.43077 0.56209 0.54448 0.0
C759 C 0.44442 0.57408 0.5828 0.0
C760 C 0.46522 0.59761 0.57946 0.0
C761 C 0.4721 0.60903 0.53688 0.0
H762 H 0.86219 0.41314 0.72979 0.0
H763 H 0.85471 0.47644 0.70343 0.0
H764 H 0.85046 0.46688 0.62231 0.0
H765 H 0.8986 0.41998 0.6351 0.0
H766 H 0.88512 0.38792 0.62378 0.0
H767 H 0.88539 0.3983 0.68041 0.0
H768 H 0.83855 0.37088 0.6848 0.0
H769 H 0.83812 0.36039 0.62812 0.0
H770 H 0.8197 0.37372 0.64249 0.0
H771 H 0.84996 0.45267 0.54491 0.0
H772 H 0.85377 0.43505 0.47423 0.0
H773 H 0.86141 0.38035 0.54895 0.0
C774 C 0.85934 0.42483 0.70708 0.0
C775 C 0.85872 0.44554 0.72308 0.0
C776 C 0.85525 0.4605 0.69208 0.0
C777 C 0.85272 0.45517 0.64594 0.0
C778 C 0.85367 0.43482 0.63134 0.0
C779 C 0.85689 0.41985 0.66083 0.0
C780 C 0.85867 0.39994 0.63579 0.0
C781 C 0.88342 0.40165 0.64428 0.0
C782 C 0.83749 0.37474 0.64857 0.0
C783 C 0.85641 0.40639 0.58749 0.0
C784 C 0.85333 0.42646 0.58599 0.0
C785 C 0.85204 0.43677 0.54557 0.0
C786 C 0.85424 0.42653 0.50546 0.0
C787 C 0.85765 0.40608 0.50575 0.0
C788 C 0.85843 0.39571 0.54749 0.0
H789 H 0.47244 0.87319 0.70962 0.0
H790 H 0.40422 0.84242 0.63578 0.0
H791 H 0.38252 0.83988 0.70608 0.0
H792 H 0.44752 0.83757 0.81246 0.0
H793 H 0.46716 0.86254 0.8487 0.0
H794 H 0.47712 0.86045 0.79282 0.0
H795 H 0.48494 0.90373 0.77493 0.0
H796 H 0.47481 0.90585 0.83061 0.0
H797 H 0.46057 0.91032 0.78177 0.0
H798 H 0.36824 0.8422 0.78431 0.0
H799 H 0.36276 0.84814 0.8651 0.0
H800 H 0.44041 0.87822 0.88624 0.0
C801 C 0.45289 0.86554 0.70828 0.0
C802 C 0.4401 0.8579 0.66708 0.0
C803 C 0.41452 0.84834 0.66685 0.0
C804 C 0.40195 0.84683 0.70665 0.0
C805 C 0.41518 0.85497 0.74648 0.0
C806 C 0.44005 0.86402 0.74766 0.0
C807 C 0.45007 0.8723 0.79462 0.0
C808 C 0.46111 0.85731 0.81324 0.0
C809 C 0.46869 0.89967 0.79551 0.0
C810 C 0.42698 0.86665 0.81942 0.0
C811 C 0.40701 0.85659 0.79124 0.0
C812 C 0.38375 0.84999 0.80681 0.0
C813 C 0.38081 0.85351 0.85267 0.0
C814 C 0.40108 0.86358 0.88218 0.0
C815 C 0.42443 0.87038 0.86488 0.0
H816 H 0.57878 0.44555 0.06266 0.0
H817 H 0.50806 0.38211 0.0367 0.0
H818 H 0.51585 0.38871 0.95455 0.0
H819 H 0.57869 0.48211 0.97086 0.0
H820 H 0.61076 0.49496 0.96007 0.0
H821 H 0.59905 0.4855 0.01628 0.0
H822 H 0.61804 0.45763 0.01909 0.0
H823 H 0.62982 0.46696 0.96292 0.0
H824 H 0.61064 0.43515 0.97562 0.0
H825 H 0.53207 0.40225 0.8755 0.0
H826 H 0.55503 0.42094 0.80598 0.0
H827 H 0.61539 0.47492 0.88579 0.0
C828 C 0.56476 0.43294 0.04002 0.0
C829 C 0.54277 0.41322 0.05625 0.0
C830 C 0.52504 0.39732 0.02507 0.0
C831 C 0.52931 0.40094 0.97843 0.0
C832 C 0.55135 0.42049 0.96384 0.0
C833 C 0.56874 0.43619 0.99382 0.0
C834 C 0.59117 0.45551 0.97003 0.0
C835 C 0.59514 0.48102 0.97989 0.0
C836 C 0.61375 0.45369 0.98266 0.0
C837 C 0.5838 0.44824 0.92162 0.0
C838 C 0.56076 0.42808 0.9187 0.0
C839 C 0.55011 0.41801 0.87741 0.0
C840 C 0.56339 0.4288 0.83809 0.0
C841 C 0.58716 0.44939 0.84033 0.0
C842 C 0.59736 0.45919 0.88281 0.0
H843 H 0.13322 0.56717 0.22818 0.0
H844 H 0.14889 0.50904 0.20137 0.0
H845 H 0.15184 0.51835 0.1202 0.0
H846 H 0.09628 0.5576 0.12935 0.0
H847 H 0.10751 0.58952 0.12019 0.0
H848 H 0.10656 0.57834 0.17644 0.0
H849 H 0.1526 0.60886 0.18584 0.0
H850 H 0.15372 0.62009 0.12957 0.0
H851 H 0.17383 0.60893 0.14533 0.0
H852 H 0.15365 0.53396 0.04275 0.0
H853 H 0.15278 0.55386 0.97251 0.0
H854 H 0.13564 0.60204 0.04836 0.0
C855 C 0.13723 0.55633 0.20532 0.0
C856 C 0.14086 0.53736 0.22136 0.0
C857 C 0.14601 0.52364 0.1901 0.0
C858 C 0.14778 0.52882 0.14387 0.0
C859 C 0.1443 0.54771 0.12935 0.0
C860 C 0.13901 0.5612 0.159 0.0
C861 C 0.13595 0.58045 0.13432 0.0
C862 C 0.11003 0.57621 0.14044 0.0
C863 C 0.15518 0.6061 0.14968 0.0
C864 C 0.14037 0.57564 0.08611 0.0
C865 C 0.14522 0.55672 0.08423 0.0
C866 C 0.14987 0.54879 0.04373 0.0
C867 C 0.14935 0.56032 0.00393 0.0
C868 C 0.14418 0.57965 0.00464 0.0
C869 C 0.13974 0.58743 0.04653 0.0
H870 H 0.55718 0.33189 0.14547 0.0
H871 H 0.47963 0.30601 0.15257 0.0
H872 H 0.47099 0.26458 0.13477 0.0
H873 H 0.55505 0.29375 0.05388 0.0
H874 H 0.57797 0.28794 0.07683 0.0
H875 H 0.57846 0.31586 0.09015 0.0
H876 H 0.57768 0.30672 0.17541 0.0
H877 H 0.5773 0.27882 0.16237 0.0
H878 H 0.55382 0.27828 0.19747 0.0
H879 H 0.47034 0.2266 0.11306 0.0
H880 H 0.47745 0.19299 0.09467 0.0
H881 H 0.55548 0.24174 0.10494 0.0
C882 C 0.53839 0.31747 0.14334 0.0
C883 C 0.51906 0.32228 0.1503 0.0
C884 C 0.49474 0.30286 0.14756 0.0
C885 C 0.48964 0.27923 0.13729 0.0
C886 C 0.50902 0.27514 0.13033 0.0
C887 C 0.53292 0.29357 0.13373 0.0
C888 C 0.55023 0.28388 0.12553 0.0
C889 C 0.56638 0.29609 0.08413 0.0
C890 C 0.56567 0.28712 0.16771 0.0
C891 C 0.53227 0.25718 0.1166 0.0
C892 C 0.50863 0.25274 0.11922 0.0
C893 C 0.48876 0.22981 0.11116 0.0
C894 C 0.49305 0.21082 0.10045 0.0
C895 C 0.51704 0.2146 0.09823 0.0
C896 C 0.53693 0.23819 0.10657 0.0
H897 H 0.30551 0.50587 0.2781 0.0
H898 H 0.35295 0.58402 0.26819 0.0
H899 H 0.31789 0.58997 0.27946 0.0
H900 H 0.25304 0.50317 0.22158 0.0
H901 H 0.23107 0.48008 0.25848 0.0
H902 H 0.25975 0.48157 0.24775 0.0
H903 H 0.26825 0.48435 0.3336 0.0
H904 H 0.23964 0.48297 0.34456 0.0
H905 H 0.2675 0.50796 0.36612 0.0
H906 H 0.27825 0.58805 0.29237 0.0
H907 H 0.23607 0.5782 0.30738 0.0
H908 H 0.21343 0.50141 0.31173 0.0
C909 C 0.30842 0.52419 0.27791 0.0
C910 C 0.33206 0.54448 0.27216 0.0
C911 C 0.33512 0.56817 0.27265 0.0
C912 C 0.31527 0.57178 0.27895 0.0
C913 C 0.29232 0.55154 0.28507 0.0
C914 C 0.2887 0.52819 0.28472 0.0
C915 C 0.26208 0.50975 0.29348 0.0
C916 C 0.25082 0.49263 0.2529 0.0
C917 C 0.25921 0.49541 0.33703 0.0
C918 C 0.25147 0.52644 0.29881 0.0
C919 C 0.26929 0.55046 0.29354 0.0
C920 C 0.2641 0.5693 0.29658 0.0
C921 C 0.24005 0.56351 0.3051 0.0
C922 C 0.22137 0.53906 0.31083 0.0
C923 C 0.22729 0.52031 0.30776 0.0
H924 H 0.67434 0.23409 0.48382 0.0
H925 H 0.69044 0.17875 0.43737 0.0
H926 H 0.73154 0.21055 0.41532 0.0
H927 H 0.70866 0.27902 0.39658 0.0
H928 H 0.71963 0.30457 0.43444 0.0
H929 H 0.69081 0.27759 0.44503 0.0
H930 H 0.70539 0.27427 0.52491 0.0
H931 H 0.73423 0.30125 0.51461 0.0
H932 H 0.73326 0.27347 0.53113 0.0
H933 H 0.771 0.24761 0.39979 0.0
H934 H 0.80738 0.28804 0.39373 0.0
H935 H 0.76718 0.32057 0.45081 0.0
C936 C 0.68645 0.2287 0.46863 0.0
C937 C 0.67904 0.20383 0.46227 0.0
C938 C 0.6956 0.19759 0.44277 0.0
C939 C 0.71902 0.21555 0.42993 0.0
C940 C 0.72581 0.2398 0.43685 0.0
C941 C 0.71013 0.2465 0.45583 0.0
C942 C 0.72258 0.27398 0.46096 0.0
C943 C 0.70965 0.2844 0.43255 0.0
C944 C 0.72395 0.28116 0.51087 0.0
C945 C 0.74769 0.28155 0.44215 0.0
C946 C 0.74898 0.26146 0.42824 0.0
C947 C 0.77023 0.2635 0.41047 0.0
C948 C 0.79085 0.28664 0.40723 0.0
C949 C 0.79028 0.30763 0.42179 0.0
C950 C 0.76823 0.30497 0.4391 0.0
H951 H 0.45621 0.77529 0.60285 0.0
H952 H 0.53221 0.832 0.60669 0.0
H953 H 0.54408 0.80136 0.62279 0.0
H954 H 0.45977 0.73871 0.69314 0.0
H955 H 0.43925 0.71012 0.66664 0.0
H956 H 0.43635 0.73645 0.65564 0.0
H957 H 0.44013 0.73136 0.56986 0.0
H958 H 0.44298 0.70497 0.5806 0.0
H959 H 0.4661 0.73005 0.5487 0.0
H960 H 0.54818 0.76499 0.63788 0.0
H961 H 0.54424 0.72486 0.65032 0.0
H962 H 0.46571 0.69089 0.63721 0.0
C963 C 0.47534 0.78127 0.60717 0.0
C964 C 0.49324 0.80618 0.60353 0.0
C965 C 0.51808 0.81313 0.6093 0.0
C966 C 0.52506 0.79583 0.61852 0.0
C967 C 0.50705 0.77152 0.62193 0.0
C968 C 0.48269 0.76416 0.61642 0.0
C969 C 0.46712 0.73674 0.62145 0.0
C970 C 0.44959 0.73012 0.66161 0.0
C971 C 0.45327 0.7251 0.57754 0.0
C972 C 0.48655 0.72994 0.63058 0.0
C973 C 0.50944 0.75035 0.63071 0.0
C974 C 0.53035 0.74887 0.63791 0.0
C975 C 0.5279 0.72592 0.64495 0.0
C976 C 0.50467 0.7046 0.64481 0.0
C977 C 0.48373 0.70678 0.63771 0.0
H978 H 0.7159 0.50271 0.78768 0.0
H979 H 0.6624 0.42582 0.79631 0.0
H980 H 0.695 0.41668 0.81261 0.0
H981 H 0.76227 0.49532 0.73295 0.0
H982 H 0.78724 0.51969 0.76301 0.0
H983 H 0.75968 0.52065 0.75351 0.0
H984 H 0.75566 0.52526 0.83936 0.0
H985 H 0.78322 0.52429 0.84913 0.0
H986 H 0.7555 0.50309 0.87755 0.0
H987 H 0.73286 0.41522 0.82557 0.0
H988 H 0.77414 0.42147 0.83431 0.0
H989 H 0.80438 0.4993 0.81829 0.0
C990 C 0.71104 0.48398 0.79329 0.0
C991 C 0.68645 0.465 0.79083 0.0
C992 C 0.68097 0.44073 0.79812 0.0
C993 C 0.6994 0.43531 0.80745 0.0
C994 C 0.72336 0.45433 0.80953 0.0
C995 C 0.72932 0.47819 0.80273 0.0
C996 C 0.75673 0.49503 0.806 0.0
C997 C 0.76709 0.50846 0.7612 0.0
C998 C 0.76315 0.51298 0.84536 0.0
C999 C 0.76516 0.47683 0.81531 0.0
C1000 C 0.7455 0.45349 0.81725 0.0
C1001 C 0.7484 0.43342 0.82429 0.0
C1002 C 0.772 0.43719 0.82912 0.0
C1003 C 0.7926 0.46087 0.82702 0.0
C1004 C 0.78903 0.481 0.82043 0.0
H1005 H 0.23339 0.67779 0.91704 0.0
H1006 H 0.18231 0.69415 0.98368 0.0
H1007 H 0.21643 0.7335 0.0091 0.0
H1008 H 0.28249 0.70631 -0.00119 0.0
H1009 H 0.3062 0.71834 0.9568 0.0
H1010 H 0.27796 0.69078 0.94571 0.0
H1011 H 0.272 0.7098 0.87303 0.0
H1012 H 0.30026 0.73737 0.88374 0.0
H1013 H 0.2726 0.73844 0.87634 0.0
H1014 H 0.25574 0.77074 0.02785 0.0
H1015 H 0.29731 0.8055 0.03277 0.0
H1016 H 0.32358 0.76679 0.95031 0.0
C1017 C 0.22944 0.6896 0.9373 0.0
C1018 C 0.20517 0.68281 0.94871 0.0
C1019 C 0.20072 0.69895 0.97455 0.0
C1020 C 0.22 0.72129 0.98933 0.0
C1021 C 0.24368 0.72744 0.97758 0.0
C1022 C 0.24851 0.71225 0.9517 0.0
C1023 C 0.27557 0.72397 0.94171 0.0
C1024 C 0.28618 0.70895 0.96198 0.0
C1025 C 0.28038 0.72761 0.89068 0.0
C1026 C 0.28517 0.74813 0.96599 0.0
C1027 C 0.26643 0.74952 0.9869 0.0
C1028 C 0.27055 0.76991 0.01145 0.0
C1029 C 0.29434 0.78961 0.01404 0.0
C1030 C 0.31388 0.78911 0.99172 0.0
C1031 C 0.30915 0.76784 0.96782 0.0
H1032 H 0.55695 0.13423 0.68776 0.0
H1033 H 0.61953 0.12445 0.70403 0.0
H1034 H 0.61462 0.12393 0.78717 0.0
H1035 H 0.56787 0.17324 0.78142 0.0
H1036 H 0.53617 0.15982 0.79627 0.0
H1037 H 0.54476 0.15938 0.73853 0.0
H1038 H 0.51737 0.11254 0.73659 0.0
H1039 H 0.50861 0.11279 0.79429 0.0
H1040 H 0.52164 0.09433 0.77828 0.0
H1041 H 0.60383 0.12667 0.86819 0.0
H1042 H 0.5862 0.12887 0.94103 0.0
H1043 H 0.52929 0.13459 0.87049 0.0
C1044 C 0.5697 0.13205 0.70877 0.0
C1045 C 0.5888 0.12963 0.68972 0.0
C1046 C 0.60482 0.12635 0.71818 0.0
C1047 C 0.60219 0.12611 0.76527 0.0
C1048 C 0.58325 0.12879 0.78293 0.0
C1049 C 0.56711 0.13137 0.75547 0.0
C1050 C 0.54795 0.13337 0.78252 0.0
C1051 C 0.54928 0.15791 0.77419 0.0
C1052 C 0.52238 0.11198 0.77231 0.0
C1053 C 0.55596 0.1318 0.82978 0.0
C1054 C 0.57646 0.12936 0.82931 0.0
C1055 C 0.58768 0.12837 0.86894 0.0
C1056 C 0.57759 0.12975 0.9101 0.0
C1057 C 0.55633 0.1318 0.91128 0.0
C1058 C 0.5454 0.13279 0.87055 0.0
H1059 H 0.47987 0.56217 0.87892 0.0
H1060 H 0.4932 0.63569 0.86159 0.0
H1061 H 0.48021 0.63551 0.94029 0.0
H1062 H 0.42597 0.5409 0.94111 0.0
H1063 H 0.4314 0.52145 0.97775 0.0
H1064 H 0.44418 0.52814 0.92185 0.0
H1065 H 0.48742 0.54431 0.95479 0.0
H1066 H 0.47475 0.53731 0.01081 0.0
H1067 H 0.49854 0.56768 -0.00259 0.0
H1068 H 0.46405 0.62659 0.01944 0.0
H1069 H 0.44652 0.60994 0.09416 0.0
H1070 H 0.44191 0.54147 0.0583 0.0
C1071 C 0.48068 0.57848 0.89199 0.0
C1072 C 0.48786 0.59909 0.86437 0.0
C1073 C 0.48797 0.61981 0.88236 0.0
C1074 C 0.48058 0.61984 0.92693 0.0
C1075 C 0.47297 0.59896 0.95284 0.0
C1076 C 0.47305 0.5787 0.93612 0.0
C1077 C 0.46271 0.55811 0.97002 0.0
C1078 C 0.4397 0.53584 0.95157 0.0
C1079 C 0.48201 0.55147 0.98409 0.0
C1080 C 0.45667 0.56991 0.00839 0.0
C1081 C 0.46288 0.59353 -0.0021 0.0
C1082 C 0.45916 0.60815 0.02808 0.0
C1083 C 0.44915 0.5985 0.07038 0.0
C1084 C 0.44276 0.57438 0.08195 0.0
C1085 C 0.44638 0.55988 0.05027 0.0
H1086 H 0.86509 0.40882 0.00353 0.0
H1087 H 0.91616 0.48615 0.01653 0.0
H1088 H 0.92388 0.47994 0.09548 0.0
H1089 H 0.8388 0.40138 0.11146 0.0
H1090 H 0.83496 0.37164 0.12119 0.0
H1091 H 0.83502 0.38176 0.06448 0.0
H1092 H 0.86997 0.37357 0.04371 0.0
H1093 H 0.87013 0.36357 0.10056 0.0
H1094 H 0.89769 0.38769 0.07623 0.0
H1095 H 0.9242 0.4663 0.17322 0.0
H1096 H 0.91544 0.44635 0.24744 0.0
H1097 H 0.86425 0.37754 0.18562 0.0
C1098 C 0.8781 0.4244 0.02286 0.0
C1099 C 0.89012 0.44798 0.00382 0.0
C1100 C 0.90675 0.46794 0.03036 0.0
C1101 C 0.91138 0.46458 0.07516 0.0
C1102 C 0.89925 0.44115 0.09288 0.0
C1103 C 0.88287 0.42139 0.06776 0.0
C1104 C 0.87107 0.39843 0.09606 0.0
C1105 C 0.84332 0.38768 0.09844 0.0
C1106 C 0.87761 0.37971 0.07806 0.0
C1107 C 0.88302 0.4085 0.1413 0.0
C1108 C 0.89943 0.43315 0.13835 0.0
C1109 C 0.91165 0.44698 0.17591 0.0
C1110 C 0.90653 0.43548 0.21787 0.0
C1111 C 0.88934 0.4104 0.22203 0.0
C1112 C 0.87787 0.3966 0.18311 0.0
H1113 H 0.43327 0.8728 0.38595 0.0
H1114 H 0.50844 0.89044 0.37145 0.0
H1115 H 0.50516 0.8933 0.28857 0.0
H1116 H 0.40967 0.83644 0.28747 0.0
H1117 H 0.38928 0.84759 0.27395 0.0
H1118 H 0.3977 0.84696 0.33173 0.0
H1119 H 0.41292 0.893 0.33915 0.0
H1120 H 0.40454 0.89381 0.28139 0.0
H1121 H 0.43527 0.91399 0.29996 0.0
H1122 H 0.49266 0.89189 0.20735 0.0
H1123 H 0.47318 0.88951 0.13398 0.0
H1124 H 0.40696 0.87538 0.2027 0.0
C1125 C 0.44905 0.8772 0.36535 0.0
C1126 C 0.47107 0.88117 0.38486 0.0
C1127 C 0.49142 0.88731 0.35698 0.0
C1128 C 0.48969 0.88891 0.31001 0.0
C1129 C 0.46762 0.88473 0.29185 0.0
C1130 C 0.44776 0.87929 0.31875 0.0
C1131 C 0.42627 0.87609 0.29116 0.0
C1132 C 0.40444 0.85023 0.29639 0.0
C1133 C 0.41936 0.89538 0.30366 0.0
C1134 C 0.43698 0.88025 0.24427 0.0
C1135 C 0.46079 0.88502 0.24538 0.0
C1136 C 0.47414 0.88842 0.20611 0.0
C1137 C 0.46289 0.88694 0.16465 0.0
C1138 C 0.43864 0.88242 0.16283 0.0
C1139 C 0.42562 0.87918 0.20321 0.0
H1140 H 0.57971 0.43864 0.56052 0.0
H1141 H 0.64964 0.50399 0.54131 0.0
H1142 H 0.64338 0.49972 0.45847 0.0
H1143 H 0.58169 0.40521 0.46435 0.0
H1144 H 0.54977 0.39237 0.45196 0.0
H1145 H 0.56044 0.40011 0.50917 0.0
H1146 H 0.54081 0.42731 0.51475 0.0
H1147 H 0.53013 0.41976 0.45753 0.0
H1148 H 0.54872 0.45113 0.4739 0.0
H1149 H 0.62951 0.48768 0.37827 0.0
H1150 H 0.60831 0.47058 0.30636 0.0
H1151 H 0.54628 0.41444 0.37918 0.0
C1152 C 0.59391 0.45192 0.53896 0.0
C1153 C 0.61536 0.47149 0.55713 0.0
C1154 C 0.63317 0.48881 0.52788 0.0
C1155 C 0.62977 0.4865 0.48094 0.0
C1156 C 0.60832 0.46697 0.46422 0.0
C1157 C 0.59062 0.45012 0.4924 0.0
C1158 C 0.56873 0.43142 0.46628 0.0
C1159 C 0.56495 0.40576 0.47336 0.0
C1160 C 0.54575 0.43249 0.47886 0.0
C1161 C 0.57688 0.44028 0.41871 0.0
C1162 C 0.59986 0.46066 0.41826 0.0
C1163 C 0.61149 0.47181 0.37823 0.0
C1164 C 0.59931 0.4619 0.3376 0.0
C1165 C 0.57563 0.44122 0.33733 0.0
C1166 C 0.56427 0.43037 0.37846 0.0
H1167 H 0.14294 0.57988 0.50268 0.0
H1168 H 0.10398 0.50192 0.52575 0.0
H1169 H 0.09822 0.5088 0.60543 0.0
H1170 H 0.17486 0.59569 0.60767 0.0
H1171 H 0.17334 0.62305 0.61542 0.0
H1172 H 0.17321 0.61206 0.55938 0.0
H1173 H 0.13293 0.61159 0.54218 0.0
H1174 H 0.13284 0.62242 0.59834 0.0
H1175 H 0.10698 0.59475 0.57843 0.0
H1176 H 0.09759 0.52358 0.68231 0.0
H1177 H 0.10452 0.54579 0.75413 0.0
H1178 H 0.14436 0.61439 0.68333 0.0
C1179 C 0.13307 0.56427 0.52446 0.0
C1180 C 0.12381 0.54033 0.5079 0.0
C1181 C 0.11125 0.5204 0.5376 0.0
C1182 C 0.10776 0.52411 0.58289 0.0
C1183 C 0.11702 0.54786 0.5981 0.0
C1184 C 0.12959 0.56764 0.57002 0.0
C1185 C 0.13874 0.5913 0.59578 0.0
C1186 C 0.1667 0.60641 0.59449 0.0
C1187 C 0.12718 0.60587 0.57759 0.0
C1188 C 0.12955 0.58167 0.64282 0.0
C1189 C 0.11684 0.55652 0.64307 0.0
C1190 C 0.10729 0.54325 0.68252 0.0
C1191 C 0.11122 0.55597 0.72301 0.0
C1192 C 0.12456 0.58165 0.72375 0.0
C1193 C 0.13364 0.59474 0.6832 0.0
H1194 H 0.51128 0.05767 0.04629 0.0
H1195 H 0.44902 0.06857 0.03601 0.0
H1196 H 0.42222 0.02496 0.02392 0.0
H1197 H 0.4913 0.00898 0.96394 0.0
H1198 H 0.5017 0.9918 0.99602 0.0
H1199 H 0.51688 0.0244 0.00158 0.0
H1200 H 0.50975 0.02007 0.08787 0.0
H1201 H 0.49461 0.98748 0.08261 0.0
H1202 H 0.47927 1.00161 0.1093 0.0
H1203 H 0.40195 0.9809 0.01099 0.0
H1204 H 0.38828 0.93749 0.00525 0.0
H1205 H 0.46219 0.95273 0.03 0.0
C1206 C 0.49204 0.05089 0.04113 0.0
C1207 C 0.48245 0.06686 0.04123 0.0
C1208 C 0.45705 0.05705 0.03535 0.0
C1209 C 0.44156 0.03217 0.02848 0.0
C1210 C 0.45153 0.01703 0.02832 0.0
C1211 C 0.47607 0.02582 0.03508 0.0
C1212 C 0.48156 0.00506 0.03563 0.0
C1213 C 0.49889 0.00773 -0.00302 0.0
C1214 C 0.49191 1.00347 0.08159 0.0
C1215 C 0.45625 0.9834 0.02802 0.0
C1216 C 0.43937 0.99093 0.02337 0.0
C1217 C 0.41492 0.97468 0.01507 0.0
C1218 C 0.40733 0.94994 0.01199 0.0
C1219 C 0.42399 0.94141 0.01795 0.0
C1220 C 0.44889 0.95853 0.02577 0.0
H1221 H 0.47309 0.42513 0.20432 0.0
H1222 H 0.54795 0.48446 0.20996 0.0
H1223 H 0.5334 0.51363 0.2176 0.0
H1224 H 0.44924 0.45664 0.14006 0.0
H1225 H 0.42078 0.44365 0.17017 0.0
H1226 H 0.43682 0.42699 0.16541 0.0
H1227 H 0.43685 0.42325 0.25237 0.0
H1228 H 0.42079 0.43987 0.2574 0.0
H1229 H 0.44926 0.45032 0.28653 0.0
H1230 H 0.51142 0.53666 0.22272 0.0
H1231 H 0.48321 0.55243 0.22764 0.0
H1232 H 0.42184 0.47874 0.22082 0.0
C1233 C 0.48644 0.44424 0.2073 0.0
C1234 C 0.51176 0.45237 0.20656 0.0
C1235 C 0.52852 0.47761 0.21056 0.0
C1236 C 0.52043 0.49441 0.21485 0.0
C1237 C 0.49549 0.48582 0.21536 0.0
C1238 C 0.47868 0.46136 0.21195 0.0
C1239 C 0.45287 0.45714 0.21366 0.0
C1240 C 0.43912 0.44541 0.16971 0.0
C1241 C 0.43913 0.44173 0.25495 0.0
C1242 C 0.45788 0.48309 0.21833 0.0
C1243 C 0.48263 0.49925 0.21907 0.0
C1244 C 0.492 0.5242 0.22234 0.0
C1245 C 0.47571 0.53297 0.22502 0.0
C1246 C 0.45016 0.51691 0.22465 0.0
C1247 C 0.4412 0.49155 0.22138 0.0
H1248 H 0.05638 0.50506 0.34743 0.0
H1249 H 0.07362 0.45026 0.3918 0.0
H1250 H 0.03037 0.42242 0.4087 0.0
H1251 H 0.00893 0.49218 0.42833 0.0
H1252 H 0.98973 0.49643 0.38892 0.0
H1253 H 0.02227 0.51265 0.38133 0.0
H1254 H 0.01703 0.49517 0.30058 0.0
H1255 H 0.98447 0.47905 0.30778 0.0
H1256 H 0.99987 0.46273 0.29227 0.0
H1257 H 0.98576 0.40105 0.42372 0.0
H1258 H 0.94169 0.38527 0.42725 0.0
H1259 H 0.95196 0.45238 0.36808 0.0
C1260 C 0.05102 0.4872 0.36072 0.0
C1261 C 0.06849 0.47989 0.36842 0.0
C1262 C 0.06068 0.45627 0.38536 0.0
C1263 C 0.03612 0.44035 0.39538 0.0
C1264 C 0.01942 0.44813 0.38771 0.0
C1265 C 0.02641 0.47082 0.3701 0.0
C1266 C 1.00447 0.4741 0.36314 0.0
C1267 C 1.00648 0.49509 0.39217 0.0
C1268 C 1.00128 0.47799 0.31296 0.0
C1269 C 0.98414 0.44972 0.37974 0.0
C1270 C 0.99331 0.43522 0.39433 0.0
C1271 C 0.97832 0.41212 0.41192 0.0
C1272 C 0.95321 0.40331 0.41374 0.0
C1273 C 0.94309 0.41734 0.39731 0.0
C1274 C 0.95896 0.44105 0.38064 0.0
H1275 H 0.53286 0.95266 0.54285 0.0
H1276 H 0.45725 0.93451 0.54395 0.0
H1277 H 0.47028 0.97834 0.54183 0.0
H1278 H 0.55709 0.00637 0.61111 0.0
H1279 H 0.58462 0.02263 0.57849 0.0
H1280 H 0.56924 0.98995 0.58157 0.0
H1281 H 0.56679 0.98739 0.49434 0.0
H1282 H 0.58219 0.02005 0.49099 0.0
H1283 H 0.553 1.0021 0.46421 0.0
H1284 H 0.49211 0.02471 0.54267 0.0
H1285 H 0.52051 0.0691 0.53884 0.0
H1286 H 0.58141 0.05615 0.5316 0.0
C1287 C 0.51902 0.95785 0.54294 0.0
C1288 C 0.49403 0.94014 0.54406 0.0
C1289 C 0.4765 0.94776 0.54317 0.0
C1290 C 0.48374 0.97261 0.54213 0.0
C1291 C 0.50856 0.98961 0.54121 0.0
C1292 C 0.52591 0.98249 0.54096 0.0
C1293 C 0.55138 0.00421 0.53789 0.0
C1294 C 0.56646 0.00588 0.57976 0.0
C1295 C 0.56408 1.00338 0.49426 0.0
C1296 C 0.54572 0.02472 0.5368 0.0
C1297 C 0.52096 0.016 0.5393 0.0
C1298 C 0.51152 0.03169 0.5403 0.0
C1299 C 0.52779 0.05688 0.53828 0.0
C1300 C 0.5532 0.06614 0.53453 0.0
C1301 C 0.56212 0.04971 0.53385 0.0
H1302 H 0.5865 0.52513 0.76806 0.0
H1303 H 0.59553 0.51461 0.62642 0.0
H1304 H 0.57777 0.54018 0.60559 0.0
H1305 H 0.5278 0.5204 0.75417 0.0
H1306 H 0.53278 0.54269 0.79675 0.0
H1307 H 0.54787 0.5251 0.80091 0.0
H1308 H 0.58966 0.56473 0.80491 0.0
H1309 H 0.57468 0.58243 0.80087 0.0
H1310 H 0.59811 0.58717 0.76102 0.0
H1311 H 0.56022 0.56768 0.60005 0.0
H1312 H 0.53998 0.59203 0.60961 0.0
H1313 H 0.53812 0.58159 0.75446 0.0
C1314 C 0.58491 0.52849 0.73275 0.0
C1315 C 0.59261 0.51824 0.69871 0.0
C1316 C 0.58981 0.52246 0.65284 0.0
C1317 C 0.57981 0.53698 0.64075 0.0
C1318 C 0.57222 0.54674 0.67495 0.0
C1319 C 0.57428 0.54243 0.72001 0.0
C1320 C 0.56321 0.55385 0.74982 0.0
C1321 C 0.54163 0.53434 0.77701 0.0
C1322 C 0.58257 0.5732 0.781 0.0
C1323 C 0.55477 0.56534 0.71448 0.0
C1324 C 0.56053 0.56131 0.67158 0.0
C1325 C 0.55542 0.57079 0.63344 0.0
C1326 C 0.54399 0.58464 0.6392 0.0
C1327 C 0.53731 0.5885 0.68267 0.0
C1328 C 0.54274 0.57864 0.72078 0.0
H1329 H 0.05486 0.58383 0.89121 0.0
H1330 H 0.07301 0.52986 0.8449 0.0
H1331 H 0.02962 0.50107 0.83152 0.0
H1332 H 0.99911 0.54233 0.94808 0.0
H1333 H 0.98323 0.55798 0.9313 0.0
H1334 H 0.01584 0.57459 0.9376 0.0
H1335 H 0.02028 0.59042 0.85568 0.0
H1336 H 0.98767 0.57377 0.84909 0.0
H1337 H 0.00669 0.56899 0.81009 0.0
H1338 H 0.98455 0.47759 0.82492 0.0
H1339 H 0.94021 0.46087 0.8242 0.0
H1340 H 0.95024 0.52997 0.87166 0.0
C1341 C 0.04974 0.56595 0.87831 0.0
C1342 C 0.06754 0.55921 0.86922 0.0
C1343 C 0.0599 0.5356 0.85217 0.0
C1344 C 0.03523 0.51905 0.84441 0.0
C1345 C 0.01825 0.52631 0.85348 0.0
C1346 C 0.0251 0.54919 0.86991 0.0
C1347 C 1.003 0.55227 0.87648 0.0
C1348 C 1.00013 0.55707 0.92633 0.0
C1349 C 1.00451 0.57257 0.84602 0.0
C1350 C 0.9827 0.52747 0.86147 0.0
C1351 C 0.99202 0.51283 0.84851 0.0
C1352 C 0.97703 0.48891 0.83473 0.0
C1353 C 0.95182 0.47957 0.83452 0.0
C1354 C 0.94167 0.49409 0.84764 0.0
C1355 C 0.95743 0.5185 0.86085 0.0
loop_
_geom_bond_atom_site_label_1
_geom_bond_atom_site_label_2
_geom_bond_distance
_geom_bond_site_symmetry_2
_ccdc_geom_bond_type
Co0 O2 2.143 . S
Co0 O8 2.074 . S
Co0 O11 2.093 . S
Co0 O24 2.097 . S
Co0 N41 2.151 . S
Co0 N49 2.214 . S
Co1 O2 2.160 . S
Co1 O7 2.058 . S
Co1 O17 2.057 1_554 S
Co1 O32 2.037 . S
Co1 N36 2.145 . S
Co1 N57 2.257 . S
O2 Co0 2.143 . S
O2 Co1 2.160 . S
C3 O4 1.278 . S
C3 O11 1.224 . S
O4 C3 1.278 . S
C5 O6 1.245 . S
C5 O17 1.232 . S
O6 C5 1.245 . S
O7 Co1 2.058 . S
O7 C33 1.269 . S
O8 Co0 2.074 . S
O8 C33 1.257 . S
H9 C34 0.930 . S
H10 C40 0.930 . S
O11 Co0 2.093 . S
O11 C3 1.224 . S
H12 C44 0.929 . S
H13 C46 0.930 . S
H14 C47 0.930 . S
H15 C45 0.929 . S
H16 C48 0.928 . S
O17 Co1 2.057 1_556 S
O17 C5 1.232 . S
H18 C37 0.929 . S
H19 C38 0.913 1_556 S
H20 C50 0.931 . S
H21 C42 0.929 . S
H22 C51 0.930 . S
H23 C43 0.931 . S
O24 Co0 2.097 . S
O24 C52 1.214 . S
H25 C53 0.929 . S
H26 C54 0.929 . S
H27 C55 0.930 . S
H28 C56 0.929 . S
H29 C58 0.930 1_556 S
H30 C35 0.930 . S
H31 C39 0.930 . S
O32 Co1 2.037 . S
O32 C52 1.234 . S
C33 O7 1.269 . S
C33 O8 1.257 . S
C34 H9 0.930 . S
C34 C37 1.388 . S
C34 C39 1.418 . S
C35 H30 0.930 . S
C35 C38 1.403 1_556 S
C35 C39 1.353 1_556 S
N36 Co1 2.145 . S
N36 C37 1.397 . S
N36 C38 1.351 . S
C37 H18 0.929 . S
C37 C34 1.388 . S
C37 N36 1.397 . S
C38 H19 0.913 1_554 S
C38 C35 1.403 1_554 S
C38 N36 1.351 . S
C39 H31 0.930 . S
C39 C34 1.418 . S
C39 C35 1.353 1_554 S
C40 H10 0.930 . S
C40 N41 1.330 . S
C40 C42 1.446 1_554 S
N41 Co0 2.151 . S
N41 C40 1.330 . S
N41 C45 1.418 . S
C42 H21 0.929 . S
C42 C40 1.446 1_556 S
C42 C43 1.332 . S
C43 H23 0.931 . S
C43 C42 1.332 . S
C43 C44 1.267 1_556 S
C44 H12 0.929 . S
C44 C43 1.267 1_554 S
C44 C45 1.251 . S
C45 H15 0.929 . S
C45 N41 1.418 . S
C45 C44 1.251 . S
C46 H13 0.930 . S
C46 C48 1.406 . S
C46 C51 1.261 . S
C47 H14 0.930 . S
C47 N49 1.325 . S
C47 C50 1.357 . S
C48 H16 0.928 . S
C48 C46 1.406 . S
C48 N49 1.261 . S
N49 Co0 2.214 . S
N49 C47 1.325 . S
N49 C48 1.261 . S
C50 H20 0.931 . S
C50 C47 1.357 . S
C50 C51 1.312 . S
C51 H22 0.930 . S
C51 C46 1.261 . S
C51 C50 1.312 . S
C52 O24 1.214 . S
C52 O32 1.234 . S
C53 H25 0.929 . S
C53 C56 1.391 . S
C53 C58 1.391 . S
C54 H26 0.929 . S
C54 C55 1.390 . S
C54 N57 1.391 . S
C55 H27 0.930 . S
C55 C54 1.390 . S
C55 C56 1.392 . S
C56 H28 0.929 . S
C56 C53 1.391 . S
C56 C55 1.392 . S
N57 Co1 2.257 . S
N57 C54 1.391 . S
N57 C58 1.388 . S
C58 H29 0.930 1_554 S
C58 C53 1.391 . S
C58 N57 1.388 . S
Co59 O61 2.143 . S
Co59 O67 2.074 . S
Co59 O70 2.093 . S
Co59 O83 2.097 . S
Co59 N100 2.151 . S
Co59 N108 2.214 . S
Co60 O61 2.160 . S
Co60 O66 2.058 . S
Co60 O76 2.057 . S
Co60 O91 2.037 . S
Co60 N95 2.145 . S
Co60 N116 2.257 . S
O61 Co59 2.143 . S
O61 Co60 2.160 . S
C62 O63 1.278 . S
C62 O70 1.224 . S
O63 C62 1.278 . S
C64 O65 1.245 . S
C64 O76 1.232 . S
O65 C64 1.245 . S
O66 Co60 2.058 . S
O66 C92 1.269 . S
O67 Co59 2.074 . S
O67 C92 1.257 . S
H68 C93 0.930 . S
H69 C99 0.930 . S
O70 Co59 2.093 . S
O70 C62 1.224 . S
H71 C103 0.929 . S
H72 C105 0.930 . S
H73 C106 0.930 . S
H74 C104 0.929 . S
H75 C107 0.928 . S
O76 Co60 2.057 . S
O76 C64 1.232 . S
H77 C96 0.929 . S
H78 C97 0.929 . S
H79 C109 0.931 . S
H80 C101 0.929 . S
H81 C110 0.930 . S
H82 C102 0.931 . S
O83 Co59 2.097 . S
O83 C111 1.214 . S
H84 C112 0.929 . S
H85 C113 0.929 . S
H86 C114 0.930 . S
H87 C115 0.929 . S
H88 C117 0.930 . S
H89 C94 0.930 . S
H90 C98 0.930 . S
O91 Co60 2.037 . S
O91 C111 1.234 . S
C92 O66 1.269 . S
C92 O67 1.257 . S
C93 H68 0.930 . S
C93 C96 1.388 . S
C93 C98 1.418 . S
C94 H89 0.930 . S
C94 C97 1.404 . S
C94 C98 1.353 . S
N95 Co60 2.145 . S
N95 C96 1.397 . S
N95 C97 1.334 . S
C96 H77 0.929 . S
C96 C93 1.388 . S
C96 N95 1.397 . S
C97 H78 0.929 . S
C97 C94 1.404 . S
C97 N95 1.334 . S
C98 H90 0.930 . S
C98 C93 1.418 . S
C98 C94 1.353 . S
C99 H69 0.930 . S
C99 N100 1.330 . S
C99 C101 1.446 . S
N100 Co59 2.151 . S
N100 C99 1.330 . S
N100 C104 1.418 . S
C101 H80 0.929 . S
C101 C99 1.446 . S
C101 C102 1.332 . S
C102 H82 0.931 . S
C102 C101 1.332 . S
C102 C103 1.267 . S
C103 H71 0.929 . S
C103 C102 1.267 . S
C103 C104 1.251 . S
C104 H74 0.929 . S
C104 N100 1.418 . S
C104 C103 1.251 . S
C105 H72 0.930 . S
C105 C107 1.406 . S
C105 C110 1.261 . S
C106 H73 0.930 . S
C106 N108 1.325 . S
C106 C109 1.357 . S
C107 H75 0.928 . S
C107 C105 1.406 . S
C107 N108 1.261 . S
N108 Co59 2.214 . S
N108 C106 1.325 . S
N108 C107 1.261 . S
C109 H79 0.931 . S
C109 C106 1.357 . S
C109 C110 1.312 . S
C110 H81 0.930 . S
C110 C105 1.261 . S
C110 C109 1.312 . S
C111 O83 1.214 . S
C111 O91 1.234 . S
C112 H84 0.929 . S
C112 C115 1.391 . S
C112 C117 1.391 . S
C113 H85 0.929 . S
C113 C114 1.390 . S
C113 N116 1.391 . S
C114 H86 0.930 . S
C114 C113 1.390 . S
C114 C115 1.392 . S
C115 H87 0.929 . S
C115 C112 1.391 . S
C115 C114 1.392 . S
N116 Co60 2.257 . S
N116 C113 1.391 . S
N116 C117 1.388 . S
C117 H88 0.930 . S
C117 C112 1.391 . S
C117 N116 1.388 . S
Co118 O120 2.143 . S
Co118 O126 2.074 . S
Co118 O129 2.093 . S
Co118 O142 2.097 . S
Co118 N159 2.151 . S
Co118 N167 2.214 . S
Co119 O120 2.160 . S
Co119 O125 2.058 . S
Co119 O135 2.057 . S
Co119 O150 2.037 . S
Co119 N154 2.145 . S
Co119 N175 2.257 . S
O120 Co118 2.143 . S
O120 Co119 2.160 . S
C121 O122 1.278 . S
C121 O129 1.224 . S
O122 C121 1.278 . S
C123 O124 1.245 . S
C123 O135 1.232 . S
O124 C123 1.245 . S
O125 Co119 2.058 . S
O125 C151 1.269 . S
O126 Co118 2.074 . S
O126 C151 1.257 . S
H127 C152 0.930 . S
H128 C158 0.930 . S
O129 Co118 2.093 . S
O129 C121 1.224 . S
H130 C162 0.929 . S
H131 C164 0.930 . S
H132 C165 0.930 . S
H133 C163 0.929 . S
H134 C166 0.928 . S
O135 Co119 2.057 . S
O135 C123 1.232 . S
H136 C155 0.929 . S
H137 C156 0.929 . S
H138 C168 0.931 . S
H139 C160 0.929 . S
H140 C169 0.930 . S
H141 C161 0.931 . S
O142 Co118 2.097 . S
O142 C170 1.214 . S
H143 C171 0.929 . S
H144 C172 0.929 . S
H145 C173 0.930 . S
H146 C174 0.929 . S
H147 C176 0.930 . S
H148 C153 0.930 . S
H149 C157 0.930 . S
O150 Co119 2.037 . S
O150 C170 1.234 . S
C151 O125 1.269 . S
C151 O126 1.257 . S
C152 H127 0.930 . S
C152 C155 1.388 . S
C152 C157 1.418 . S
C153 H148 0.930 . S
C153 C156 1.404 . S
C153 C157 1.353 . S
N154 Co119 2.145 . S
N154 C155 1.397 . S
N154 C156 1.334 . S
C155 H136 0.929 . S
C155 C152 1.388 . S
C155 N154 1.397 . S
C156 H137 0.929 . S
C156 C153 1.404 . S
C156 N154 1.334 . S
C157 H149 0.930 . S
C157 C152 1.418 . S
C157 C153 1.353 . S
C158 H128 0.930 . S
C158 N159 1.330 . S
C158 C160 1.446 . S
N159 Co118 2.151 . S
N159 C158 1.330 . S
N159 C163 1.418 . S
C160 H139 0.929 . S
C160 C158 1.446 . S
C160 C161 1.332 . S
C161 H141 0.931 . S
C161 C160 1.332 . S
C161 C162 1.267 . S
C162 H130 0.929 . S
C162 C161 1.267 . S
C162 C163 1.251 . S
C163 H133 0.929 . S
C163 N159 1.418 . S
C163 C162 1.251 . S
C164 H131 0.930 . S
C164 C166 1.406 . S
C164 C169 1.261 . S
C165 H132 0.930 . S
C165 N167 1.325 . S
C165 C168 1.357 . S
C166 H134 0.928 . S
C166 C164 1.406 . S
C166 N167 1.261 . S
N167 Co118 2.214 . S
N167 C165 1.325 . S
N167 C166 1.261 . S
C168 H138 0.931 . S
C168 C165 1.357 . S
C168 C169 1.312 . S
C169 H140 0.930 . S
C169 C164 1.261 . S
C169 C168 1.312 . S
C170 O142 1.214 . S
C170 O150 1.234 . S
C171 H143 0.929 . S
C171 C174 1.391 . S
C171 C176 1.391 . S
C172 H144 0.929 . S
C172 C173 1.390 . S
C172 N175 1.391 . S
C173 H145 0.930 . S
C173 C172 1.390 . S
C173 C174 1.392 . S
C174 H146 0.929 . S
C174 C171 1.391 . S
C174 C173 1.392 . S
N175 Co119 2.257 . S
N175 C172 1.391 . S
N175 C176 1.388 . S
C176 H147 0.930 . S
C176 C171 1.391 . S
C176 N175 1.388 . S
Co177 O179 2.143 . S
Co177 O185 2.074 . S
Co177 O188 2.093 . S
Co177 O201 2.097 . S
Co177 N218 2.151 . S
Co177 N226 2.214 . S
Co178 O179 2.160 . S
Co178 O184 2.058 . S
Co178 O194 2.057 . S
Co178 O209 2.037 . S
Co178 N213 2.145 . S
Co178 N234 2.257 . S
O179 Co177 2.143 . S
O179 Co178 2.160 . S
C180 O181 1.278 . S
C180 O188 1.224 . S
O181 C180 1.278 . S
C182 O183 1.245 . S
C182 O194 1.232 . S
O183 C182 1.245 . S
O184 Co178 2.058 . S
O184 C210 1.269 . S
O185 Co177 2.074 . S
O185 C210 1.257 . S
H186 C211 0.930 . S
H187 C217 0.930 . S
O188 Co177 2.093 . S
O188 C180 1.224 . S
H189 C221 0.929 . S
H190 C223 0.930 . S
H191 C224 0.930 . S
H192 C222 0.929 . S
H193 C225 0.928 . S
O194 Co178 2.057 . S
O194 C182 1.232 . S
H195 C214 0.929 . S
H196 C215 0.929 . S
H197 C227 0.931 . S
H198 C219 0.929 . S
H199 C228 0.930 . S
H200 C220 0.931 . S
O201 Co177 2.097 . S
O201 C229 1.214 . S
H202 C230 0.929 . S
H203 C231 0.929 . S
H204 C232 0.930 . S
H205 C233 0.929 . S
H206 C235 0.930 . S
H207 C212 0.930 . S
H208 C216 0.930 . S
O209 Co178 2.037 . S
O209 C229 1.234 . S
C210 O184 1.269 . S
C210 O185 1.257 . S
C211 H186 0.930 . S
C211 C214 1.388 . S
C211 C216 1.418 . S
C212 H207 0.930 . S
C212 C215 1.404 . S
C212 C216 1.353 . S
N213 Co178 2.145 . S
N213 C214 1.397 . S
N213 C215 1.334 . S
C214 H195 0.929 . S
C214 C211 1.388 . S
C214 N213 1.397 . S
C215 H196 0.929 . S
C215 C212 1.404 . S
C215 N213 1.334 . S
C216 H208 0.930 . S
C216 C211 1.418 . S
C216 C212 1.353 . S
C217 H187 0.930 . S
C217 N218 1.330 . S
C217 C219 1.446 . S
N218 Co177 2.151 . S
N218 C217 1.330 . S
N218 C222 1.418 . S
C219 H198 0.929 . S
C219 C217 1.446 . S
C219 C220 1.332 . S
C220 H200 0.931 . S
C220 C219 1.332 . S
C220 C221 1.267 . S
C221 H189 0.929 . S
C221 C220 1.267 . S
C221 C222 1.251 . S
C222 H192 0.929 . S
C222 N218 1.418 . S
C222 C221 1.251 . S
C223 H190 0.930 . S
C223 C225 1.406 . S
C223 C228 1.261 . S
C224 H191 0.930 . S
C224 N226 1.325 . S
C224 C227 1.357 . S
C225 H193 0.928 . S
C225 C223 1.406 . S
C225 N226 1.261 . S
N226 Co177 2.214 . S
N226 C224 1.325 . S
N226 C225 1.261 . S
C227 H197 0.931 . S
C227 C224 1.357 . S
C227 C228 1.312 . S
C228 H199 0.930 . S
C228 C223 1.261 . S
C228 C227 1.312 . S
C229 O201 1.214 . S
C229 O209 1.234 . S
C230 H202 0.929 . S
C230 C233 1.391 . S
C230 C235 1.391 . S
C231 H203 0.929 . S
C231 C232 1.390 . S
C231 N234 1.391 . S
C232 H204 0.930 . S
C232 C231 1.390 . S
C232 C233 1.392 . S
C233 H205 0.929 . S
C233 C230 1.391 . S
C233 C232 1.392 . S
N234 Co178 2.257 . S
N234 C231 1.391 . S
N234 C235 1.388 . S
C235 H206 0.930 . S
C235 C230 1.391 . S
C235 N234 1.388 . S
Co236 O238 2.143 . S
Co236 O244 2.074 . S
Co236 O247 2.093 . S
Co236 O260 2.097 . S
Co236 N277 2.151 . S
Co236 N285 2.214 . S
Co237 O238 2.160 . S
Co237 O243 2.058 . S
Co237 O253 2.057 . S
Co237 O268 2.037 . S
Co237 N272 2.145 . S
Co237 N293 2.257 . S
O238 Co236 2.143 . S
O238 Co237 2.160 . S
C239 O240 1.278 . S
C239 O247 1.224 . S
O240 C239 1.278 . S
C241 O242 1.245 . S
C241 O253 1.232 . S
O242 C241 1.245 . S
O243 Co237 2.058 . S
O243 C269 1.269 . S
O244 Co236 2.074 . S
O244 C269 1.257 . S
H245 C270 0.930 . S
H246 C276 0.930 . S
O247 Co236 2.093 . S
O247 C239 1.224 . S
H248 C280 0.929 . S
H249 C282 0.930 . S
H250 C283 0.930 . S
H251 C281 0.929 . S
H252 C284 0.928 . S
O253 Co237 2.057 . S
O253 C241 1.232 . S
H254 C273 0.929 . S
H255 C274 0.929 . S
H256 C286 0.931 . S
H257 C278 0.929 . S
H258 C287 0.930 . S
H259 C279 0.931 . S
O260 Co236 2.097 . S
O260 C288 1.214 . S
H261 C289 0.929 . S
H262 C290 0.929 . S
H263 C291 0.930 . S
H264 C292 0.929 . S
H265 C294 0.930 . S
H266 C271 0.930 . S
H267 C275 0.930 . S
O268 Co237 2.037 . S
O268 C288 1.234 . S
C269 O243 1.269 . S
C269 O244 1.257 . S
C270 H245 0.930 . S
C270 C273 1.388 . S
C270 C275 1.418 . S
C271 H266 0.930 . S
C271 C274 1.404 . S
C271 C275 1.353 . S
N272 Co237 2.145 . S
N272 C273 1.397 . S
N272 C274 1.334 . S
C273 H254 0.929 . S
C273 C270 1.388 . S
C273 N272 1.397 . S
C274 H255 0.929 . S
C274 C271 1.404 . S
C274 N272 1.334 . S
C275 H267 0.930 . S
C275 C270 1.418 . S
C275 C271 1.353 . S
C276 H246 0.930 . S
C276 N277 1.330 . S
C276 C278 1.446 . S
N277 Co236 2.151 . S
N277 C276 1.330 . S
N277 C281 1.418 . S
C278 H257 0.929 . S
C278 C276 1.446 . S
C278 C279 1.332 . S
C279 H259 0.931 . S
C279 C278 1.332 . S
C279 C280 1.267 . S
C280 H248 0.929 . S
C280 C279 1.267 . S
C280 C281 1.251 . S
C281 H251 0.929 . S
C281 N277 1.418 . S
C281 C280 1.251 . S
C282 H249 0.930 . S
C282 C284 1.406 . S
C282 C287 1.261 . S
C283 H250 0.930 . S
C283 N285 1.325 . S
C283 C286 1.357 . S
C284 H252 0.928 . S
C284 C282 1.406 . S
C284 N285 1.261 . S
N285 Co236 2.214 . S
N285 C283 1.325 . S
N285 C284 1.261 . S
C286 H256 0.931 . S
C286 C283 1.357 . S
C286 C287 1.312 . S
C287 H258 0.930 . S
C287 C282 1.261 . S
C287 C286 1.312 . S
C288 O260 1.214 . S
C288 O268 1.234 . S
C289 H261 0.929 . S
C289 C292 1.391 . S
C289 C294 1.391 . S
C290 H262 0.929 . S
C290 C291 1.390 . S
C290 N293 1.391 . S
C291 H263 0.930 . S
C291 C290 1.390 . S
C291 C292 1.392 . S
C292 H264 0.929 . S
C292 C289 1.391 . S
C292 C291 1.392 . S
N293 Co237 2.257 . S
N293 C290 1.391 . S
N293 C294 1.388 . S
C294 H265 0.930 . S
C294 C289 1.391 . S
C294 N293 1.388 . S
Co295 O297 2.143 . S
Co295 O303 2.074 . S
Co295 O306 2.093 . S
Co295 O319 2.097 . S
Co295 N336 2.151 . S
Co295 N344 2.214 . S
Co296 O297 2.160 . S
Co296 O302 2.058 . S
Co296 O312 2.057 . S
Co296 O327 2.037 . S
Co296 N331 2.145 . S
Co296 N352 2.257 . S
O297 Co295 2.143 . S
O297 Co296 2.160 . S
C298 O299 1.278 . S
C298 O306 1.224 . S
O299 C298 1.278 . S
C300 O301 1.245 . S
C300 O312 1.232 . S
O301 C300 1.245 . S
O302 Co296 2.058 . S
O302 C328 1.269 . S
O303 Co295 2.074 . S
O303 C328 1.257 . S
H304 C329 0.930 . S
H305 C335 0.930 . S
O306 Co295 2.093 . S
O306 C298 1.224 . S
H307 C339 0.929 . S
H308 C341 0.930 . S
H309 C342 0.930 . S
H310 C340 0.929 . S
H311 C343 0.928 . S
O312 Co296 2.057 . S
O312 C300 1.232 . S
H313 C332 0.929 . S
H314 C333 0.929 . S
H315 C345 0.931 . S
H316 C337 0.929 . S
H317 C346 0.930 . S
H318 C338 0.931 . S
O319 Co295 2.097 . S
O319 C347 1.214 . S
H320 C348 0.929 . S
H321 C349 0.929 . S
H322 C350 0.930 . S
H323 C351 0.929 . S
H324 C353 0.930 . S
H325 C330 0.930 . S
H326 C334 0.930 . S
O327 Co296 2.037 . S
O327 C347 1.234 . S
C328 O302 1.269 . S
C328 O303 1.257 . S
C329 H304 0.930 . S
C329 C332 1.388 . S
C329 C334 1.418 . S
C330 H325 0.930 . S
C330 C333 1.404 . S
C330 C334 1.353 . S
N331 Co296 2.145 . S
N331 C332 1.397 . S
N331 C333 1.334 . S
C332 H313 0.929 . S
C332 C329 1.388 . S
C332 N331 1.397 . S
C333 H314 0.929 . S
C333 C330 1.404 . S
C333 N331 1.334 . S
C334 H326 0.930 . S
C334 C329 1.418 . S
C334 C330 1.353 . S
C335 H305 0.930 . S
C335 N336 1.330 . S
C335 C337 1.446 . S
N336 Co295 2.151 . S
N336 C335 1.330 . S
N336 C340 1.418 . S
C337 H316 0.929 . S
C337 C335 1.446 . S
C337 C338 1.332 . S
C338 H318 0.931 . S
C338 C337 1.332 . S
C338 C339 1.267 . S
C339 H307 0.929 . S
C339 C338 1.267 . S
C339 C340 1.251 . S
C340 H310 0.929 . S
C340 N336 1.418 . S
C340 C339 1.251 . S
C341 H308 0.930 . S
C341 C343 1.406 1_554 S
C341 C346 1.261 . S
C342 H309 0.930 . S
C342 N344 1.325 1_554 S
C342 C345 1.357 . S
C343 H311 0.928 . S
C343 C341 1.406 1_556 S
C343 N344 1.261 . S
N344 Co295 2.214 . S
N344 C342 1.325 1_556 S
N344 C343 1.261 . S
C345 H315 0.931 . S
C345 C342 1.357 . S
C345 C346 1.312 . S
C346 H317 0.930 . S
C346 C341 1.261 . S
C346 C345 1.312 . S
C347 O319 1.214 . S
C347 O327 1.234 . S
C348 H320 0.929 . S
C348 C351 1.391 . S
C348 C353 1.391 . S
C349 H321 0.929 . S
C349 C350 1.390 . S
C349 N352 1.391 . S
C350 H322 0.930 . S
C350 C349 1.390 . S
C350 C351 1.392 . S
C351 H323 0.929 . S
C351 C348 1.391 . S
C351 C350 1.392 . S
N352 Co296 2.257 . S
N352 C349 1.391 . S
N352 C353 1.388 . S
C353 H324 0.930 . S
C353 C348 1.391 . S
C353 N352 1.388 . S
Co354 O356 2.143 . S
Co354 O362 2.074 . S
Co354 O365 2.093 . S
Co354 O378 2.097 . S
Co354 N395 2.151 . S
Co354 N403 2.214 . S
Co355 O356 2.160 . S
Co355 O361 2.058 . S
Co355 O371 2.057 . S
Co355 O386 2.037 . S
Co355 N390 2.145 . S
Co355 N411 2.257 . S
O356 Co354 2.143 . S
O356 Co355 2.160 . S
C357 O358 1.278 . S
C357 O365 1.224 . S
O358 C357 1.278 . S
C359 O360 1.245 . S
C359 O371 1.232 . S
O360 C359 1.245 . S
O361 Co355 2.058 . S
O361 C387 1.269 . S
O362 Co354 2.074 . S
O362 C387 1.257 . S
H363 C388 0.930 . S
H364 C394 0.930 . S
O365 Co354 2.093 . S
O365 C357 1.224 . S
H366 C398 0.929 . S
H367 C400 0.930 . S
H368 C401 0.930 . S
H369 C399 0.929 . S
H370 C402 0.928 . S
O371 Co355 2.057 . S
O371 C359 1.232 . S
H372 C391 0.929 . S
H373 C392 0.929 . S
H374 C404 0.931 . S
H375 C396 0.929 . S
H376 C405 0.930 . S
H377 C397 0.931 . S
O378 Co354 2.097 . S
O378 C406 1.214 . S
H379 C407 0.929 . S
H380 C408 0.929 . S
H381 C409 0.930 . S
H382 C410 0.929 . S
H383 C412 0.930 . S
H384 C389 0.930 . S
H385 C393 0.930 . S
O386 Co355 2.037 . S
O386 C406 1.234 . S
C387 O361 1.269 . S
C387 O362 1.257 . S
C388 H363 0.930 . S
C388 C391 1.388 . S
C388 C393 1.418 . S
C389 H384 0.930 . S
C389 C392 1.404 . S
C389 C393 1.353 . S
N390 Co355 2.145 . S
N390 C391 1.397 . S
N390 C392 1.334 . S
C391 H372 0.929 . S
C391 C388 1.388 . S
C391 N390 1.397 . S
C392 H373 0.929 . S
C392 C389 1.404 . S
C392 N390 1.334 . S
C393 H385 0.930 . S
C393 C388 1.418 . S
C393 C389 1.353 . S
C394 H364 0.930 . S
C394 N395 1.330 . S
C394 C396 1.446 . S
N395 Co354 2.151 . S
N395 C394 1.330 . S
N395 C399 1.418 . S
C396 H375 0.929 . S
C396 C394 1.446 . S
C396 C397 1.332 . S
C397 H377 0.931 . S
C397 C396 1.332 . S
C397 C398 1.267 . S
C398 H366 0.929 . S
C398 C397 1.267 . S
C398 C399 1.251 . S
C399 H369 0.929 . S
C399 N395 1.418 . S
C399 C398 1.251 . S
C400 H367 0.930 . S
C400 C402 1.406 . S
C400 C405 1.261 . S
C401 H368 0.930 . S
C401 N403 1.325 . S
C401 C404 1.357 . S
C402 H370 0.928 . S
C402 C400 1.406 . S
C402 N403 1.261 . S
N403 Co354 2.214 . S
N403 C401 1.325 . S
N403 C402 1.261 . S
C404 H374 0.931 . S
C404 C401 1.357 . S
C404 C405 1.312 . S
C405 H376 0.930 . S
C405 C400 1.261 . S
C405 C404 1.312 . S
C406 O378 1.214 . S
C406 O386 1.234 . S
C407 H379 0.929 . S
C407 C410 1.391 . S
C407 C412 1.391 . S
C408 H380 0.929 . S
C408 C409 1.390 . S
C408 N411 1.391 . S
C409 H381 0.930 . S
C409 C408 1.390 . S
C409 C410 1.392 . S
C410 H382 0.929 . S
C410 C407 1.391 . S
C410 C409 1.392 . S
N411 Co355 2.257 . S
N411 C408 1.391 . S
N411 C412 1.388 . S
C412 H383 0.930 . S
C412 C407 1.391 . S
C412 N411 1.388 . S
Co413 O415 2.143 1_556 S
Co413 O421 2.074 . S
Co413 O424 2.093 . S
Co413 O437 2.097 . S
Co413 N454 2.151 1_556 S
Co413 N462 2.214 . S
Co414 O415 2.160 . S
Co414 O420 2.058 . S
Co414 O430 2.057 . S
Co414 O445 2.037 1_554 S
Co414 N449 2.145 . S
Co414 N470 2.257 . S
O415 Co413 2.143 1_554 S
O415 Co414 2.160 . S
C416 O417 1.278 . S
C416 O424 1.224 1_554 S
O417 C416 1.278 . S
C418 O419 1.245 . S
C418 O430 1.232 . S
O419 C418 1.245 . S
O420 Co414 2.058 . S
O420 C446 1.269 . S
O421 Co413 2.074 . S
O421 C446 1.257 1_556 S
H422 C447 0.930 1_556 S
H423 C453 0.930 . S
O424 Co413 2.093 . S
O424 C416 1.224 1_556 S
H425 C457 0.929 . S
H426 C459 0.930 . S
H427 C460 0.930 . S
H428 C458 0.929 . S
H429 C461 0.928 . S
O430 Co414 2.057 . S
O430 C418 1.232 . S
H431 C450 0.929 1_556 S
H432 C451 0.929 . S
H433 C463 0.931 . S
H434 C455 0.929 . S
H435 C464 0.930 . S
H436 C456 0.931 . S
O437 Co413 2.097 . S
O437 C465 1.214 . S
H438 C466 0.929 . S
H439 C467 0.934 . S
H440 C468 0.930 . S
H441 C469 0.929 . S
H442 C471 0.930 . S
H443 C448 0.930 . S
H444 C452 0.930 . S
O445 Co414 2.037 1_556 S
O445 C465 1.234 . S
C446 O420 1.269 . S
C446 O421 1.257 1_554 S
C447 H422 0.930 1_554 S
C447 C450 1.388 . S
C447 C452 1.418 . S
C448 H443 0.930 . S
C448 C451 1.404 . S
C448 C452 1.353 . S
N449 Co414 2.145 . S
N449 C450 1.397 . S
N449 C451 1.334 . S
C450 H431 0.929 1_554 S
C450 C447 1.388 . S
C450 N449 1.397 . S
C451 H432 0.929 . S
C451 C448 1.404 . S
C451 N449 1.334 . S
C452 H444 0.930 . S
C452 C447 1.418 . S
C452 C448 1.353 . S
C453 H423 0.930 . S
C453 N454 1.330 . S
C453 C455 1.446 . S
N454 Co413 2.151 1_554 S
N454 C453 1.330 . S
N454 C458 1.418 . S
C455 H434 0.929 . S
C455 C453 1.446 . S
C455 C456 1.332 . S
C456 H436 0.931 . S
C456 C455 1.332 . S
C456 C457 1.267 . S
C457 H425 0.929 . S
C457 C456 1.267 . S
C457 C458 1.251 . S
C458 H428 0.929 . S
C458 N454 1.418 . S
C458 C457 1.251 . S
C459 H426 0.930 . S
C459 C461 1.406 . S
C459 C464 1.261 . S
C460 H427 0.930 . S
C460 N462 1.325 . S
C460 C463 1.357 . S
C461 H429 0.928 . S
C461 C459 1.406 . S
C461 N462 1.261 . S
N462 Co413 2.214 . S
N462 C460 1.325 . S
N462 C461 1.261 . S
C463 H433 0.931 . S
C463 C460 1.357 . S
C463 C464 1.312 . S
C464 H435 0.930 . S
C464 C459 1.261 . S
C464 C463 1.312 . S
C465 O437 1.214 . S
C465 O445 1.234 . S
C466 H438 0.929 . S
C466 C469 1.391 . S
C466 C471 1.391 . S
C467 H439 0.934 . S
C467 C468 1.391 . S
C467 N470 1.385 1_556 S
C468 H440 0.930 . S
C468 C467 1.391 . S
C468 C469 1.392 1_556 S
C469 H441 0.929 . S
C469 C466 1.391 . S
C469 C468 1.392 1_554 S
N470 Co414 2.257 . S
N470 C467 1.385 1_554 S
N470 C471 1.388 . S
C471 H442 0.930 . S
C471 C466 1.391 . S
C471 N470 1.388 . S
Co472 O474 2.143 . S
Co472 O480 2.074 . S
Co472 O483 2.093 . S
Co472 O496 2.097 . S
Co472 N513 2.151 . S
Co472 N521 2.214 . S
Co473 O474 2.160 . S
Co473 O479 2.058 . S
Co473 O489 2.057 . S
Co473 O504 2.037 . S
Co473 N508 2.145 . S
Co473 N529 2.257 . S
O474 Co472 2.143 . S
O474 Co473 2.160 . S
C475 O476 1.278 . S
C475 O483 1.224 . S
O476 C475 1.278 . S
C477 O478 1.245 . S
C477 O489 1.232 . S
O478 C477 1.245 . S
O479 Co473 2.058 . S
O479 C505 1.269 . S
O480 Co472 2.074 . S
O480 C505 1.257 . S
H481 C506 0.930 . S
H482 C512 0.930 . S
O483 Co472 2.093 . S
O483 C475 1.224 . S
H484 C516 0.929 . S
H485 C518 0.930 . S
H486 C519 0.930 . S
H487 C517 0.929 . S
H488 C520 0.928 . S
O489 Co473 2.057 . S
O489 C477 1.232 . S
H490 C509 0.929 . S
H491 C510 0.929 . S
H492 C522 0.931 . S
H493 C514 0.929 . S
H494 C523 0.930 . S
H495 C515 0.931 . S
O496 Co472 2.097 . S
O496 C524 1.214 . S
H497 C525 0.929 . S
H498 C526 0.929 . S
H499 C527 0.930 . S
H500 C528 0.929 . S
H501 C530 0.930 . S
H502 C507 0.930 . S
H503 C511 0.930 . S
O504 Co473 2.037 . S
O504 C524 1.234 . S
C505 O479 1.269 . S
C505 O480 1.257 . S
C506 H481 0.930 . S
C506 C509 1.388 . S
C506 C511 1.418 . S
C507 H502 0.930 . S
C507 C510 1.404 . S
C507 C511 1.353 . S
N508 Co473 2.145 . S
N508 C509 1.397 . S
N508 C510 1.334 . S
C509 H490 0.929 . S
C509 C506 1.388 . S
C509 N508 1.397 . S
C510 H491 0.929 . S
C510 C507 1.404 . S
C510 N508 1.334 . S
C511 H503 0.930 . S
C511 C506 1.418 . S
C511 C507 1.353 . S
C512 H482 0.930 . S
C512 N513 1.330 . S
C512 C514 1.446 . S
N513 Co472 2.151 . S
N513 C512 1.330 . S
N513 C517 1.418 . S
C514 H493 0.929 . S
C514 C512 1.446 . S
C514 C515 1.332 . S
C515 H495 0.931 . S
C515 C514 1.332 . S
C515 C516 1.267 . S
C516 H484 0.929 . S
C516 C515 1.267 . S
C516 C517 1.251 . S
C517 H487 0.929 . S
C517 N513 1.418 . S
C517 C516 1.251 . S
C518 H485 0.930 . S
C518 C520 1.406 . S
C518 C523 1.261 . S
C519 H486 0.930 . S
C519 N521 1.325 . S
C519 C522 1.357 . S
C520 H488 0.928 . S
C520 C518 1.406 . S
C520 N521 1.261 . S
N521 Co472 2.214 . S
N521 C519 1.325 . S
N521 C520 1.261 . S
C522 H492 0.931 . S
C522 C519 1.357 . S
C522 C523 1.312 . S
C523 H494 0.930 . S
C523 C518 1.261 . S
C523 C522 1.312 . S
C524 O496 1.214 . S
C524 O504 1.234 . S
C525 H497 0.929 . S
C525 C528 1.391 . S
C525 C530 1.391 . S
C526 H498 0.929 . S
C526 C527 1.390 . S
C526 N529 1.391 . S
C527 H499 0.930 . S
C527 C526 1.390 . S
C527 C528 1.392 . S
C528 H500 0.929 . S
C528 C525 1.391 . S
C528 C527 1.392 . S
N529 Co473 2.257 . S
N529 C526 1.391 . S
N529 C530 1.388 . S
C530 H501 0.930 . S
C530 C525 1.391 . S
C530 N529 1.388 . S
Co531 O533 2.143 . S
Co531 O539 2.074 . S
Co531 O542 2.093 . S
Co531 O555 2.097 . S
Co531 N572 2.151 . S
Co531 N580 2.214 . S
Co532 O533 2.160 . S
Co532 O538 2.058 . S
Co532 O548 2.057 . S
Co532 O563 2.037 . S
Co532 N567 2.145 . S
Co532 N588 2.257 . S
O533 Co531 2.143 . S
O533 Co532 2.160 . S
C534 O535 1.278 . S
C534 O542 1.224 . S
O535 C534 1.278 . S
C536 O537 1.245 . S
C536 O548 1.232 . S
O537 C536 1.245 . S
O538 Co532 2.058 . S
O538 C564 1.269 . S
O539 Co531 2.074 . S
O539 C564 1.257 . S
H540 C565 0.930 . S
H541 C571 0.930 . S
O542 Co531 2.093 . S
O542 C534 1.224 . S
H543 C575 0.929 . S
H544 C577 0.930 . S
H545 C578 0.930 . S
H546 C576 0.929 . S
H547 C579 0.928 . S
O548 Co532 2.057 . S
O548 C536 1.232 . S
H549 C568 0.929 . S
H550 C569 0.929 . S
H551 C581 0.931 . S
H552 C573 0.929 . S
H553 C582 0.930 . S
H554 C574 0.931 . S
O555 Co531 2.097 . S
O555 C583 1.214 . S
H556 C584 0.929 . S
H557 C585 0.929 . S
H558 C586 0.930 . S
H559 C587 0.929 . S
H560 C589 0.930 . S
H561 C566 0.930 . S
H562 C570 0.930 . S
O563 Co532 2.037 . S
O563 C583 1.234 . S
C564 O538 1.269 . S
C564 O539 1.257 . S
C565 H540 0.930 . S
C565 C568 1.388 . S
C565 C570 1.418 . S
C566 H561 0.930 . S
C566 C569 1.404 . S
C566 C570 1.353 . S
N567 Co532 2.145 . S
N567 C568 1.397 . S
N567 C569 1.334 . S
C568 H549 0.929 . S
C568 C565 1.388 . S
C568 N567 1.397 . S
C569 H550 0.929 . S
C569 C566 1.404 . S
C569 N567 1.334 . S
C570 H562 0.930 . S
C570 C565 1.418 . S
C570 C566 1.353 . S
C571 H541 0.930 . S
C571 N572 1.330 . S
C571 C573 1.446 . S
N572 Co531 2.151 . S
N572 C571 1.330 . S
N572 C576 1.418 . S
C573 H552 0.929 . S
C573 C571 1.446 . S
C573 C574 1.332 . S
C574 H554 0.931 . S
C574 C573 1.332 . S
C574 C575 1.267 . S
C575 H543 0.929 . S
C575 C574 1.267 . S
C575 C576 1.251 . S
C576 H546 0.929 . S
C576 N572 1.418 . S
C576 C575 1.251 . S
C577 H544 0.930 . S
C577 C579 1.406 . S
C577 C582 1.261 . S
C578 H545 0.930 . S
C578 N580 1.325 . S
C578 C581 1.357 . S
C579 H547 0.928 . S
C579 C577 1.406 . S
C579 N580 1.261 . S
N580 Co531 2.214 . S
N580 C578 1.325 . S
N580 C579 1.261 . S
C581 H551 0.931 . S
C581 C578 1.357 . S
C581 C582 1.312 . S
C582 H553 0.930 . S
C582 C577 1.261 . S
C582 C581 1.312 . S
C583 O555 1.214 . S
C583 O563 1.234 . S
C584 H556 0.929 . S
C584 C587 1.391 . S
C584 C589 1.391 . S
C585 H557 0.929 . S
C585 C586 1.390 . S
C585 N588 1.391 . S
C586 H558 0.930 . S
C586 C585 1.390 . S
C586 C587 1.392 . S
C587 H559 0.929 . S
C587 C584 1.391 . S
C587 C586 1.392 . S
N588 Co532 2.257 . S
N588 C585 1.391 . S
N588 C589 1.388 . S
C589 H560 0.930 . S
C589 C584 1.391 . S
C589 N588 1.388 . S
Co590 O592 2.143 . S
Co590 O598 2.074 . S
Co590 O601 2.093 . S
Co590 O614 2.097 . S
Co590 N631 2.151 . S
Co590 N639 2.214 . S
Co591 O592 2.160 . S
Co591 O597 2.058 . S
Co591 O607 2.057 . S
Co591 O622 2.037 . S
Co591 N626 2.145 . S
Co591 N647 2.257 . S
O592 Co590 2.143 . S
O592 Co591 2.160 . S
C593 O594 1.278 . S
C593 O601 1.224 . S
O594 C593 1.278 . S
C595 O596 1.245 . S
C595 O607 1.232 . S
O596 C595 1.245 . S
O597 Co591 2.058 . S
O597 C623 1.269 . S
O598 Co590 2.074 . S
O598 C623 1.257 . S
H599 C624 0.930 . S
H600 C630 0.930 . S
O601 Co590 2.093 . S
O601 C593 1.224 . S
H602 C634 0.929 . S
H603 C636 0.930 . S
H604 C637 0.930 . S
H605 C635 0.929 . S
H606 C638 0.928 . S
O607 Co591 2.057 . S
O607 C595 1.232 . S
H608 C627 0.929 . S
H609 C628 0.929 . S
H610 C640 0.931 . S
H611 C632 0.929 . S
H612 C641 0.930 . S
H613 C633 0.931 . S
O614 Co590 2.097 . S
O614 C642 1.214 . S
H615 C643 0.929 . S
H616 C644 0.929 . S
H617 C645 0.930 . S
H618 C646 0.929 . S
H619 C648 0.930 . S
H620 C625 0.930 . S
H621 C629 0.930 . S
O622 Co591 2.037 . S
O622 C642 1.234 . S
C623 O597 1.269 . S
C623 O598 1.257 . S
C624 H599 0.930 . S
C624 C627 1.388 . S
C624 C629 1.418 . S
C625 H620 0.930 . S
C625 C628 1.404 . S
C625 C629 1.353 . S
N626 Co591 2.145 . S
N626 C627 1.397 . S
N626 C628 1.334 . S
C627 H608 0.929 . S
C627 C624 1.388 . S
C627 N626 1.397 . S
C628 H609 0.929 . S
C628 C625 1.404 . S
C628 N626 1.334 . S
C629 H621 0.930 . S
C629 C624 1.418 . S
C629 C625 1.353 . S
C630 H600 0.930 . S
C630 N631 1.330 . S
C630 C632 1.446 . S
N631 Co590 2.151 . S
N631 C630 1.330 . S
N631 C635 1.418 . S
C632 H611 0.929 . S
C632 C630 1.446 . S
C632 C633 1.332 . S
C633 H613 0.931 . S
C633 C632 1.332 . S
C633 C634 1.267 . S
C634 H602 0.929 . S
C634 C633 1.267 . S
C634 C635 1.251 . S
C635 H605 0.929 . S
C635 N631 1.418 . S
C635 C634 1.251 . S
C636 H603 0.930 . S
C636 C638 1.406 . S
C636 C641 1.261 . S
C637 H604 0.930 . S
C637 N639 1.325 . S
C637 C640 1.357 . S
C638 H606 0.928 . S
C638 C636 1.406 . S
C638 N639 1.261 . S
N639 Co590 2.214 . S
N639 C637 1.325 . S
N639 C638 1.261 . S
C640 H610 0.931 . S
C640 C637 1.357 . S
C640 C641 1.312 . S
C641 H612 0.930 . S
C641 C636 1.261 . S
C641 C640 1.312 . S
C642 O614 1.214 . S
C642 O622 1.234 . S
C643 H615 0.929 . S
C643 C646 1.391 . S
C643 C648 1.391 . S
C644 H616 0.929 . S
C644 C645 1.390 . S
C644 N647 1.391 . S
C645 H617 0.930 . S
C645 C644 1.390 . S
C645 C646 1.392 . S
C646 H618 0.929 . S
C646 C643 1.391 . S
C646 C645 1.392 . S
N647 Co591 2.257 . S
N647 C644 1.391 . S
N647 C648 1.388 . S
C648 H619 0.930 . S
C648 C643 1.391 . S
C648 N647 1.388 . S
Co649 O651 2.143 . S
Co649 O657 2.074 . S
Co649 O660 2.093 . S
Co649 O673 2.097 . S
Co649 N690 2.151 . S
Co649 N698 2.214 . S
Co650 O651 2.160 . S
Co650 O656 2.058 . S
Co650 O666 2.057 . S
Co650 O681 2.037 . S
Co650 N685 2.145 . S
Co650 N706 2.257 . S
O651 Co649 2.143 . S
O651 Co650 2.160 . S
C652 O653 1.278 . S
C652 O660 1.224 . S
O653 C652 1.278 . S
C654 O655 1.245 . S
C654 O666 1.232 . S
O655 C654 1.245 . S
O656 Co650 2.058 . S
O656 C682 1.269 . S
O657 Co649 2.074 . S
O657 C682 1.257 . S
H658 C683 0.930 . S
H659 C689 0.930 . S
O660 Co649 2.093 . S
O660 C652 1.224 . S
H661 C693 0.929 . S
H662 C695 0.930 . S
H663 C696 0.930 . S
H664 C694 0.929 . S
H665 C697 0.928 . S
O666 Co650 2.057 . S
O666 C654 1.232 . S
H667 C686 0.929 . S
H668 C687 0.929 . S
H669 C699 0.931 . S
H670 C691 0.929 . S
H671 C700 0.930 . S
H672 C692 0.931 . S
O673 Co649 2.097 . S
O673 C701 1.214 . S
H674 C702 0.929 . S
H675 C703 0.929 . S
H676 C704 0.930 . S
H677 C705 0.929 . S
H678 C707 0.930 . S
H679 C684 0.930 . S
H680 C688 0.930 . S
O681 Co650 2.037 . S
O681 C701 1.234 . S
C682 O656 1.269 . S
C682 O657 1.257 . S
C683 H658 0.930 . S
C683 C686 1.388 . S
C683 C688 1.418 . S
C684 H679 0.930 . S
C684 C687 1.404 . S
C684 C688 1.353 . S
N685 Co650 2.145 . S
N685 C686 1.397 . S
N685 C687 1.334 . S
C686 H667 0.929 . S
C686 C683 1.388 . S
C686 N685 1.397 . S
C687 H668 0.929 . S
C687 C684 1.404 . S
C687 N685 1.334 . S
C688 H680 0.930 . S
C688 C683 1.418 . S
C688 C684 1.353 . S
C689 H659 0.930 . S
C689 N690 1.330 . S
C689 C691 1.446 . S
N690 Co649 2.151 . S
N690 C689 1.330 . S
N690 C694 1.418 . S
C691 H670 0.929 . S
C691 C689 1.446 . S
C691 C692 1.332 . S
C692 H672 0.931 . S
C692 C691 1.332 . S
C692 C693 1.267 . S
C693 H661 0.929 . S
C693 C692 1.267 . S
C693 C694 1.251 . S
C694 H664 0.929 . S
C694 N690 1.418 . S
C694 C693 1.251 . S
C695 H662 0.930 . S
C695 C697 1.406 . S
C695 C700 1.261 . S
C696 H663 0.930 . S
C696 N698 1.325 . S
C696 C699 1.357 . S
C697 H665 0.928 . S
C697 C695 1.406 . S
C697 N698 1.261 . S
N698 Co649 2.214 . S
N698 C696 1.325 . S
N698 C697 1.261 . S
C699 H669 0.931 . S
C699 C696 1.357 . S
C699 C700 1.312 . S
C700 H671 0.930 . S
C700 C695 1.261 . S
C700 C699 1.312 . S
C701 O673 1.214 . S
C701 O681 1.234 . S
C702 H674 0.929 . S
C702 C705 1.391 . S
C702 C707 1.391 . S
C703 H675 0.929 . S
C703 C704 1.390 . S
C703 N706 1.391 . S
C704 H676 0.930 . S
C704 C703 1.390 . S
C704 C705 1.392 . S
C705 H677 0.929 . S
C705 C702 1.391 . S
C705 C704 1.392 . S
N706 Co650 2.257 . S
N706 C703 1.391 . S
N706 C707 1.388 . S
C707 H678 0.930 . S
C707 C702 1.391 . S
C707 N706 1.388 . S
H708 C720 0.930 . S
H709 C722 0.930 . S
H710 C723 0.930 . S
H711 C727 0.959 . S
H712 C727 0.959 . S
H713 C727 0.961 . S
H714 C728 0.960 . S
H715 C728 0.961 . S
H716 C728 0.959 . S
H717 C731 0.929 . S
H718 C732 0.931 . S
H719 C734 0.930 . S
C720 H708 0.930 . S
C720 C721 1.399 . S
C720 C725 1.399 . S
C721 C720 1.399 . S
C721 C722 1.376 . S
C722 H709 0.930 . S
C722 C721 1.376 . S
C722 C723 1.388 . S
C723 H710 0.930 . S
C723 C722 1.388 . S
C723 C724 1.390 . S
C724 C723 1.390 . S
C724 C725 1.394 . S
C724 C730 1.465 . S
C725 C720 1.399 . S
C725 C724 1.394 . S
C725 C726 1.516 . S
C726 C725 1.516 . S
C726 C727 1.502 . S
C726 C728 1.561 . S
C726 C729 1.526 . S
C727 H711 0.959 . S
C727 H712 0.959 . S
C727 H713 0.961 . S
C727 C726 1.502 . S
C728 H714 0.960 . S
C728 H715 0.961 . S
C728 H716 0.959 . S
C728 C726 1.561 . S
C729 C726 1.526 . S
C729 C730 1.396 . S
C729 C734 1.390 . S
C730 C724 1.465 . S
C730 C729 1.396 . S
C730 C731 1.399 . S
C731 H717 0.929 . S
C731 C730 1.399 . S
C731 C732 1.385 . S
C732 H718 0.931 . S
C732 C731 1.385 . S
C732 C733 1.389 . S
C733 C732 1.389 . S
C733 C734 1.387 . S
C734 H719 0.930 . S
C734 C729 1.390 . S
C734 C733 1.387 . S
H735 C747 0.930 . S
H736 C749 0.930 . S
H737 C750 0.930 . S
H738 C754 0.959 . S
H739 C754 0.959 . S
H740 C754 0.961 . S
H741 C755 0.960 . S
H742 C755 0.961 . S
H743 C755 0.959 . S
H744 C758 0.929 . S
H745 C759 0.931 . S
H746 C761 0.930 . S
C747 H735 0.930 . S
C747 C748 1.399 . S
C747 C752 1.399 . S
C748 C747 1.399 . S
C748 C749 1.376 . S
C749 H736 0.930 . S
C749 C748 1.376 . S
C749 C750 1.388 . S
C750 H737 0.930 . S
C750 C749 1.388 . S
C750 C751 1.390 . S
C751 C750 1.390 . S
C751 C752 1.394 . S
C751 C757 1.465 . S
C752 C747 1.399 . S
C752 C751 1.394 . S
C752 C753 1.516 . S
C753 C752 1.516 . S
C753 C754 1.502 . S
C753 C755 1.561 . S
C753 C756 1.526 . S
C754 H738 0.959 . S
C754 H739 0.959 . S
C754 H740 0.961 . S
C754 C753 1.502 . S
C755 H741 0.960 . S
C755 H742 0.961 . S
C755 H743 0.959 . S
C755 C753 1.561 . S
C756 C753 1.526 . S
C756 C757 1.396 . S
C756 C761 1.390 . S
C757 C751 1.465 . S
C757 C756 1.396 . S
C757 C758 1.399 . S
C758 H744 0.929 . S
C758 C757 1.399 . S
C758 C759 1.385 . S
C759 H745 0.931 . S
C759 C758 1.385 . S
C759 C760 1.389 . S
C760 C759 1.389 . S
C760 C761 1.387 . S
C761 H746 0.930 . S
C761 C756 1.390 . S
C761 C760 1.387 . S
H762 C774 0.930 . S
H763 C776 0.930 . S
H764 C777 0.930 . S
H765 C781 0.959 . S
H766 C781 0.959 . S
H767 C781 0.961 . S
H768 C782 0.960 . S
H769 C782 0.961 . S
H770 C782 0.959 . S
H771 C785 0.929 . S
H772 C786 0.931 . S
H773 C788 0.930 . S
C774 H762 0.930 . S
C774 C775 1.399 . S
C774 C779 1.399 . S
C775 C774 1.399 . S
C775 C776 1.376 . S
C776 H763 0.930 . S
C776 C775 1.376 . S
C776 C777 1.388 . S
C777 H764 0.930 . S
C777 C776 1.388 . S
C777 C778 1.390 . S
C778 C777 1.390 . S
C778 C779 1.394 . S
C778 C784 1.465 . S
C779 C774 1.399 . S
C779 C778 1.394 . S
C779 C780 1.516 . S
C780 C779 1.516 . S
C780 C781 1.502 . S
C780 C782 1.561 . S
C780 C783 1.526 . S
C781 H765 0.959 . S
C781 H766 0.959 . S
C781 H767 0.961 . S
C781 C780 1.502 . S
C782 H768 0.960 . S
C782 H769 0.961 . S
C782 H770 0.959 . S
C782 C780 1.561 . S
C783 C780 1.526 . S
C783 C784 1.396 . S
C783 C788 1.390 . S
C784 C778 1.465 . S
C784 C783 1.396 . S
C784 C785 1.399 . S
C785 H771 0.929 . S
C785 C784 1.399 . S
C785 C786 1.385 . S
C786 H772 0.931 . S
C786 C785 1.385 . S
C786 C787 1.389 . S
C787 C786 1.389 . S
C787 C788 1.387 . S
C788 H773 0.930 . S
C788 C783 1.390 . S
C788 C787 1.387 . S
H789 C801 0.930 . S
H790 C803 0.930 . S
H791 C804 0.930 . S
H792 C808 0.959 . S
H793 C808 0.959 . S
H794 C808 0.961 . S
H795 C809 0.960 . S
H796 C809 0.961 . S
H797 C809 0.959 . S
H798 C812 0.929 . S
H799 C813 0.931 . S
H800 C815 0.930 . S
C801 H789 0.930 . S
C801 C802 1.399 . S
C801 C806 1.399 . S
C802 C801 1.399 . S
C802 C803 1.376 . S
C803 H790 0.930 . S
C803 C802 1.376 . S
C803 C804 1.388 . S
C804 H791 0.930 . S
C804 C803 1.388 . S
C804 C805 1.390 . S
C805 C804 1.390 . S
C805 C806 1.394 . S
C805 C811 1.465 . S
C806 C801 1.399 . S
C806 C805 1.394 . S
C806 C807 1.516 . S
C807 C806 1.516 . S
C807 C808 1.502 . S
C807 C809 1.561 . S
C807 C810 1.526 . S
C808 H792 0.959 . S
C808 H793 0.959 . S
C808 H794 0.961 . S
C808 C807 1.502 . S
C809 H795 0.960 . S
C809 H796 0.961 . S
C809 H797 0.959 . S
C809 C807 1.561 . S
C810 C807 1.526 . S
C810 C811 1.396 . S
C810 C815 1.390 . S
C811 C805 1.465 . S
C811 C810 1.396 . S
C811 C812 1.399 . S
C812 H798 0.929 . S
C812 C811 1.399 . S
C812 C813 1.385 . S
C813 H799 0.931 . S
C813 C812 1.385 . S
C813 C814 1.389 . S
C814 C813 1.389 . S
C814 C815 1.387 . S
C815 H800 0.930 . S
C815 C810 1.390 . S
C815 C814 1.387 . S
H816 C828 0.930 . S
H817 C830 0.930 . S
H818 C831 0.930 . S
H819 C835 0.959 . S
H820 C835 0.959 . S
H821 C835 0.961 . S
H822 C836 0.960 1_554 S
H823 C836 0.961 . S
H824 C836 0.959 . S
H825 C839 0.929 . S
H826 C840 0.931 . S
H827 C842 0.930 . S
C828 H816 0.930 . S
C828 C829 1.399 . S
C828 C833 1.401 . S
C829 C828 1.399 . S
C829 C830 1.376 . S
C830 H817 0.930 . S
C830 C829 1.376 . S
C830 C831 1.388 1_554 S
C831 H818 0.930 . S
C831 C830 1.388 1_556 S
C831 C832 1.390 . S
C832 C831 1.390 . S
C832 C833 1.393 1_556 S
C832 C838 1.465 . S
C833 C828 1.401 . S
C833 C832 1.393 1_554 S
C833 C834 1.515 1_554 S
C834 C833 1.515 1_556 S
C834 C835 1.502 . S
C834 C836 1.561 . S
C834 C837 1.526 . S
C835 H819 0.959 . S
C835 H820 0.959 . S
C835 H821 0.961 . S
C835 C834 1.502 . S
C836 H822 0.960 1_556 S
C836 H823 0.961 . S
C836 H824 0.959 . S
C836 C834 1.561 . S
C837 C834 1.526 . S
C837 C838 1.396 . S
C837 C842 1.390 . S
C838 C832 1.465 . S
C838 C837 1.396 . S
C838 C839 1.399 . S
C839 H825 0.929 . S
C839 C838 1.399 . S
C839 C840 1.385 . S
C840 H826 0.931 . S
C840 C839 1.385 . S
C840 C841 1.389 . S
C841 C840 1.389 . S
C841 C842 1.387 . S
C842 H827 0.930 . S
C842 C837 1.390 . S
C842 C841 1.387 . S
H843 C855 0.930 . S
H844 C857 0.930 . S
H845 C858 0.930 . S
H846 C862 0.959 . S
H847 C862 0.959 . S
H848 C862 0.961 . S
H849 C863 0.960 . S
H850 C863 0.961 . S
H851 C863 0.959 . S
H852 C866 0.929 . S
H853 C867 0.931 1_556 S
H854 C869 0.930 . S
C855 H843 0.930 . S
C855 C856 1.399 . S
C855 C860 1.399 . S
C856 C855 1.399 . S
C856 C857 1.376 . S
C857 H844 0.930 . S
C857 C856 1.376 . S
C857 C858 1.388 . S
C858 H845 0.930 . S
C858 C857 1.388 . S
C858 C859 1.390 . S
C859 C858 1.390 . S
C859 C860 1.394 . S
C859 C865 1.465 . S
C860 C855 1.399 . S
C860 C859 1.394 . S
C860 C861 1.516 . S
C861 C860 1.516 . S
C861 C862 1.502 . S
C861 C863 1.561 . S
C861 C864 1.526 . S
C862 H846 0.959 . S
C862 H847 0.959 . S
C862 H848 0.961 . S
C862 C861 1.502 . S
C863 H849 0.960 . S
C863 H850 0.961 . S
C863 H851 0.959 . S
C863 C861 1.561 . S
C864 C861 1.526 . S
C864 C865 1.396 . S
C864 C869 1.390 . S
C865 C859 1.465 . S
C865 C864 1.396 . S
C865 C866 1.399 . S
C866 H852 0.929 . S
C866 C865 1.399 . S
C866 C867 1.385 . S
C867 H853 0.931 1_554 S
C867 C866 1.385 . S
C867 C868 1.389 . S
C868 C867 1.389 . S
C868 C869 1.387 . S
C869 H854 0.930 . S
C869 C864 1.390 . S
C869 C868 1.387 . S
H870 C882 0.930 . S
H871 C884 0.930 . S
H872 C885 0.930 . S
H873 C889 0.959 . S
H874 C889 0.959 . S
H875 C889 0.961 . S
H876 C890 0.960 . S
H877 C890 0.961 . S
H878 C890 0.959 . S
H879 C893 0.929 . S
H880 C894 0.931 . S
H881 C896 0.930 . S
C882 H870 0.930 . S
C882 C883 1.399 . S
C882 C887 1.399 . S
C883 C882 1.399 . S
C883 C884 1.376 . S
C884 H871 0.930 . S
C884 C883 1.376 . S
C884 C885 1.388 . S
C885 H872 0.930 . S
C885 C884 1.388 . S
C885 C886 1.390 . S
C886 C885 1.390 . S
C886 C887 1.394 . S
C886 C892 1.465 . S
C887 C882 1.399 . S
C887 C886 1.394 . S
C887 C888 1.516 . S
C888 C887 1.516 . S
C888 C889 1.502 . S
C888 C890 1.561 . S
C888 C891 1.526 . S
C889 H873 0.959 . S
C889 H874 0.959 . S
C889 H875 0.961 . S
C889 C888 1.502 . S
C890 H876 0.960 . S
C890 H877 0.961 . S
C890 H878 0.959 . S
C890 C888 1.561 . S
C891 C888 1.526 . S
C891 C892 1.396 . S
C891 C896 1.390 . S
C892 C886 1.465 . S
C892 C891 1.396 . S
C892 C893 1.399 . S
C893 H879 0.929 . S
C893 C892 1.399 . S
C893 C894 1.385 . S
C894 H880 0.931 . S
C894 C893 1.385 . S
C894 C895 1.389 . S
C895 C894 1.389 . S
C895 C896 1.387 . S
C896 H881 0.930 . S
C896 C891 1.390 . S
C896 C895 1.387 . S
H897 C909 0.930 . S
H898 C911 0.930 . S
H899 C912 0.930 . S
H900 C916 0.959 . S
H901 C916 0.959 . S
H902 C916 0.961 . S
H903 C917 0.960 . S
H904 C917 0.961 . S
H905 C917 0.959 . S
H906 C920 0.929 . S
H907 C921 0.931 . S
H908 C923 0.930 . S
C909 H897 0.930 . S
C909 C910 1.399 . S
C909 C914 1.399 . S
C910 C909 1.399 . S
C910 C911 1.376 . S
C911 H898 0.930 . S
C911 C910 1.376 . S
C911 C912 1.388 . S
C912 H899 0.930 . S
C912 C911 1.388 . S
C912 C913 1.390 . S
C913 C912 1.390 . S
C913 C914 1.394 . S
C913 C919 1.465 . S
C914 C909 1.399 . S
C914 C913 1.394 . S
C914 C915 1.516 . S
C915 C914 1.516 . S
C915 C916 1.502 . S
C915 C917 1.561 . S
C915 C918 1.526 . S
C916 H900 0.959 . S
C916 H901 0.959 . S
C916 H902 0.961 . S
C916 C915 1.502 . S
C917 H903 0.960 . S
C917 H904 0.961 . S
C917 H905 0.959 . S
C917 C915 1.561 . S
C918 C915 1.526 . S
C918 C919 1.396 . S
C918 C923 1.390 . S
C919 C913 1.465 . S
C919 C918 1.396 . S
C919 C920 1.399 . S
C920 H906 0.929 . S
C920 C919 1.399 . S
C920 C921 1.385 . S
C921 H907 0.931 . S
C921 C920 1.385 . S
C921 C922 1.389 . S
C922 C921 1.389 . S
C922 C923 1.387 . S
C923 H908 0.930 . S
C923 C918 1.390 . S
C923 C922 1.387 . S
H924 C936 0.930 . S
H925 C938 0.930 . S
H926 C939 0.930 . S
H927 C943 0.959 . S
H928 C943 0.959 . S
H929 C943 0.961 . S
H930 C944 0.960 . S
H931 C944 0.961 . S
H932 C944 0.959 . S
H933 C947 0.929 . S
H934 C948 0.931 . S
H935 C950 0.930 . S
C936 H924 0.930 . S
C936 C937 1.399 . S
C936 C941 1.399 . S
C937 C936 1.399 . S
C937 C938 1.376 . S
C938 H925 0.930 . S
C938 C937 1.376 . S
C938 C939 1.388 . S
C939 H926 0.930 . S
C939 C938 1.388 . S
C939 C940 1.390 . S
C940 C939 1.390 . S
C940 C941 1.394 . S
C940 C946 1.465 . S
C941 C936 1.399 . S
C941 C940 1.394 . S
C941 C942 1.516 . S
C942 C941 1.516 . S
C942 C943 1.502 . S
C942 C944 1.561 . S
C942 C945 1.526 . S
C943 H927 0.959 . S
C943 H928 0.959 . S
C943 H929 0.961 . S
C943 C942 1.502 . S
C944 H930 0.960 . S
C944 H931 0.961 . S
C944 H932 0.959 . S
C944 C942 1.561 . S
C945 C942 1.526 . S
C945 C946 1.396 . S
C945 C950 1.390 . S
C946 C940 1.465 . S
C946 C945 1.396 . S
C946 C947 1.399 . S
C947 H933 0.929 . S
C947 C946 1.399 . S
C947 C948 1.385 . S
C948 H934 0.931 . S
C948 C947 1.385 . S
C948 C949 1.389 . S
C949 C948 1.389 . S
C949 C950 1.387 . S
C950 H935 0.930 . S
C950 C945 1.390 . S
C950 C949 1.387 . S
H951 C963 0.930 . S
H952 C965 0.930 . S
H953 C966 0.930 . S
H954 C970 0.959 . S
H955 C970 0.959 . S
H956 C970 0.961 . S
H957 C971 0.960 . S
H958 C971 0.961 . S
H959 C971 0.959 . S
H960 C974 0.929 . S
H961 C975 0.931 . S
H962 C977 0.930 . S
C963 H951 0.930 . S
C963 C964 1.399 . S
C963 C968 1.399 . S
C964 C963 1.399 . S
C964 C965 1.376 . S
C965 H952 0.930 . S
C965 C964 1.376 . S
C965 C966 1.388 . S
C966 H953 0.930 . S
C966 C965 1.388 . S
C966 C967 1.390 . S
C967 C966 1.390 . S
C967 C968 1.394 . S
C967 C973 1.465 . S
C968 C963 1.399 . S
C968 C967 1.394 . S
C968 C969 1.516 . S
C969 C968 1.516 . S
C969 C970 1.502 . S
C969 C971 1.561 . S
C969 C972 1.526 . S
C970 H954 0.959 . S
C970 H955 0.959 . S
C970 H956 0.961 . S
C970 C969 1.502 . S
C971 H957 0.960 . S
C971 H958 0.961 . S
C971 H959 0.959 . S
C971 C969 1.561 . S
C972 C969 1.526 . S
C972 C973 1.396 . S
C972 C977 1.390 . S
C973 C967 1.465 . S
C973 C972 1.396 . S
C973 C974 1.399 . S
C974 H960 0.929 . S
C974 C973 1.399 . S
C974 C975 1.385 . S
C975 H961 0.931 . S
C975 C974 1.385 . S
C975 C976 1.389 . S
C976 C975 1.389 . S
C976 C977 1.387 . S
C977 H962 0.930 . S
C977 C972 1.390 . S
C977 C976 1.387 . S
H978 C990 0.930 . S
H979 C992 0.930 . S
H980 C993 0.930 . S
H981 C997 0.959 . S
H982 C997 0.959 . S
H983 C997 0.961 . S
H984 C998 0.960 . S
H985 C998 0.961 . S
H986 C998 0.959 . S
H987 C1001 0.929 . S
H988 C1002 0.931 . S
H989 C1004 0.930 . S
C990 H978 0.930 . S
C990 C991 1.399 . S
C990 C995 1.399 . S
C991 C990 1.399 . S
C991 C992 1.376 . S
C992 H979 0.930 . S
C992 C991 1.376 . S
C992 C993 1.388 . S
C993 H980 0.930 . S
C993 C992 1.388 . S
C993 C994 1.390 . S
C994 C993 1.390 . S
C994 C995 1.394 . S
C994 C1000 1.465 . S
C995 C990 1.399 . S
C995 C994 1.394 . S
C995 C996 1.516 . S
C996 C995 1.516 . S
C996 C997 1.502 . S
C996 C998 1.561 . S
C996 C999 1.526 . S
C997 H981 0.959 . S
C997 H982 0.959 . S
C997 H983 0.961 . S
C997 C996 1.502 . S
C998 H984 0.960 . S
C998 H985 0.961 . S
C998 H986 0.959 . S
C998 C996 1.561 . S
C999 C996 1.526 . S
C999 C1000 1.396 . S
C999 C1004 1.390 . S
C1000 C994 1.465 . S
C1000 C999 1.396 . S
C1000 C1001 1.399 . S
C1001 H987 0.929 . S
C1001 C1000 1.399 . S
C1001 C1002 1.385 . S
C1002 H988 0.931 . S
C1002 C1001 1.385 . S
C1002 C1003 1.389 . S
C1003 C1002 1.389 . S
C1003 C1004 1.387 . S
C1004 H989 0.930 . S
C1004 C999 1.390 . S
C1004 C1003 1.387 . S
H1005 C1017 0.930 . S
H1006 C1019 0.930 . S
H1007 C1020 0.948 . S
H1008 C1024 0.959 . S
H1009 C1024 0.959 . S
H1010 C1024 0.961 . S
H1011 C1025 0.960 . S
H1012 C1025 0.961 . S
H1013 C1025 0.959 . S
H1014 C1028 0.929 . S
H1015 C1029 0.931 . S
H1016 C1031 0.930 . S
C1017 H1005 0.930 . S
C1017 C1018 1.399 . S
C1017 C1022 1.399 . S
C1018 C1017 1.399 . S
C1018 C1019 1.376 . S
C1019 H1006 0.930 . S
C1019 C1018 1.376 . S
C1019 C1020 1.388 . S
C1020 H1007 0.948 . S
C1020 C1019 1.388 . S
C1020 C1021 1.390 . S
C1021 C1020 1.390 . S
C1021 C1022 1.394 . S
C1021 C1027 1.465 . S
C1022 C1017 1.399 . S
C1022 C1021 1.394 . S
C1022 C1023 1.516 . S
C1023 C1022 1.516 . S
C1023 C1024 1.502 . S
C1023 C1025 1.561 . S
C1023 C1026 1.526 . S
C1024 H1008 0.959 . S
C1024 H1009 0.959 . S
C1024 H1010 0.961 . S
C1024 C1023 1.502 . S
C1025 H1011 0.960 . S
C1025 H1012 0.961 . S
C1025 H1013 0.959 . S
C1025 C1023 1.561 . S
C1026 C1023 1.526 . S
C1026 C1027 1.396 . S
C1026 C1031 1.390 . S
C1027 C1021 1.465 . S
C1027 C1026 1.396 . S
C1027 C1028 1.399 1_556 S
C1028 H1014 0.929 . S
C1028 C1027 1.399 1_554 S
C1028 C1029 1.385 . S
C1029 H1015 0.931 . S
C1029 C1028 1.385 . S
C1029 C1030 1.389 . S
C1030 C1029 1.389 . S
C1030 C1031 1.387 1_554 S
C1031 H1016 0.930 . S
C1031 C1026 1.390 . S
C1031 C1030 1.387 1_556 S
H1032 C1044 0.930 . S
H1033 C1046 0.930 . S
H1034 C1047 0.930 . S
H1035 C1051 0.959 . S
H1036 C1051 0.959 . S
H1037 C1051 0.961 . S
H1038 C1052 0.960 . S
H1039 C1052 0.961 . S
H1040 C1052 0.959 . S
H1041 C1055 0.929 . S
H1042 C1056 0.931 . S
H1043 C1058 0.930 . S
C1044 H1032 0.930 . S
C1044 C1045 1.399 . S
C1044 C1049 1.399 . S
C1045 C1044 1.399 . S
C1045 C1046 1.376 . S
C1046 H1033 0.930 . S
C1046 C1045 1.376 . S
C1046 C1047 1.388 . S
C1047 H1034 0.930 . S
C1047 C1046 1.388 . S
C1047 C1048 1.390 . S
C1048 C1047 1.390 . S
C1048 C1049 1.394 . S
C1048 C1054 1.465 . S
C1049 C1044 1.399 . S
C1049 C1048 1.394 . S
C1049 C1050 1.516 . S
C1050 C1049 1.516 . S
C1050 C1051 1.502 . S
C1050 C1052 1.561 . S
C1050 C1053 1.526 . S
C1051 H1035 0.959 . S
C1051 H1036 0.959 . S
C1051 H1037 0.961 . S
C1051 C1050 1.502 . S
C1052 H1038 0.960 . S
C1052 H1039 0.961 . S
C1052 H1040 0.959 . S
C1052 C1050 1.561 . S
C1053 C1050 1.526 . S
C1053 C1054 1.396 . S
C1053 C1058 1.390 . S
C1054 C1048 1.465 . S
C1054 C1053 1.396 . S
C1054 C1055 1.399 . S
C1055 H1041 0.929 . S
C1055 C1054 1.399 . S
C1055 C1056 1.385 . S
C1056 H1042 0.931 . S
C1056 C1055 1.385 . S
C1056 C1057 1.389 . S
C1057 C1056 1.389 . S
C1057 C1058 1.387 . S
C1058 H1043 0.930 . S
C1058 C1053 1.390 . S
C1058 C1057 1.387 . S
H1059 C1071 0.930 . S
H1060 C1073 0.930 . S
H1061 C1074 0.930 . S
H1062 C1078 0.959 . S
H1063 C1078 0.959 1_554 S
H1064 C1078 0.961 . S
H1065 C1079 0.960 . S
H1066 C1079 0.961 1_554 S
H1067 C1079 0.959 . S
H1068 C1082 0.929 . S
H1069 C1083 0.931 . S
H1070 C1085 0.930 . S
C1071 H1059 0.930 . S
C1071 C1072 1.399 . S
C1071 C1076 1.399 . S
C1072 C1071 1.399 . S
C1072 C1073 1.376 . S
C1073 H1060 0.930 . S
C1073 C1072 1.376 . S
C1073 C1074 1.388 . S
C1074 H1061 0.930 . S
C1074 C1073 1.388 . S
C1074 C1075 1.390 . S
C1075 C1074 1.390 . S
C1075 C1076 1.394 . S
C1075 C1081 1.465 . S
C1076 C1071 1.399 . S
C1076 C1075 1.394 . S
C1076 C1077 1.516 . S
C1077 C1076 1.516 . S
C1077 C1078 1.502 . S
C1077 C1079 1.561 . S
C1077 C1080 1.526 1_556 S
C1078 H1062 0.959 . S
C1078 H1063 0.959 1_556 S
C1078 H1064 0.961 . S
C1078 C1077 1.502 . S
C1079 H1065 0.960 . S
C1079 H1066 0.961 1_556 S
C1079 H1067 0.959 . S
C1079 C1077 1.561 . S
C1080 C1077 1.526 1_554 S
C1080 C1081 1.396 1_554 S
C1080 C1085 1.390 . S
C1081 C1075 1.465 . S
C1081 C1080 1.396 1_556 S
C1081 C1082 1.399 . S
C1082 H1068 0.929 . S
C1082 C1081 1.399 . S
C1082 C1083 1.385 1_556 S
C1083 H1069 0.931 . S
C1083 C1082 1.385 1_554 S
C1083 C1084 1.389 . S
C1084 C1083 1.389 . S
C1084 C1085 1.387 . S
C1085 H1070 0.930 . S
C1085 C1080 1.390 . S
C1085 C1084 1.387 . S
H1086 C1098 0.930 . S
H1087 C1100 0.930 . S
H1088 C1101 0.930 . S
H1089 C1105 0.959 . S
H1090 C1105 0.959 . S
H1091 C1105 0.961 . S
H1092 C1106 0.960 . S
H1093 C1106 0.961 . S
H1094 C1106 0.959 . S
H1095 C1109 0.929 . S
H1096 C1110 0.931 . S
H1097 C1112 0.930 . S
C1098 H1086 0.930 . S
C1098 C1099 1.399 . S
C1098 C1103 1.399 . S
C1099 C1098 1.399 . S
C1099 C1100 1.376 . S
C1100 H1087 0.930 . S
C1100 C1099 1.376 . S
C1100 C1101 1.388 . S
C1101 H1088 0.930 . S
C1101 C1100 1.388 . S
C1101 C1102 1.390 . S
C1102 C1101 1.390 . S
C1102 C1103 1.394 . S
C1102 C1108 1.465 . S
C1103 C1098 1.399 . S
C1103 C1102 1.394 . S
C1103 C1104 1.516 . S
C1104 C1103 1.516 . S
C1104 C1105 1.502 . S
C1104 C1106 1.561 . S
C1104 C1107 1.526 . S
C1105 H1089 0.959 . S
C1105 H1090 0.959 . S
C1105 H1091 0.961 . S
C1105 C1104 1.502 . S
C1106 H1092 0.960 . S
C1106 H1093 0.961 . S
C1106 H1094 0.959 . S
C1106 C1104 1.561 . S
C1107 C1104 1.526 . S
C1107 C1108 1.396 . S
C1107 C1112 1.390 . S
C1108 C1102 1.465 . S
C1108 C1107 1.396 . S
C1108 C1109 1.399 . S
C1109 H1095 0.929 . S
C1109 C1108 1.399 . S
C1109 C1110 1.385 . S
C1110 H1096 0.931 . S
C1110 C1109 1.385 . S
C1110 C1111 1.389 . S
C1111 C1110 1.389 . S
C1111 C1112 1.387 . S
C1112 H1097 0.930 . S
C1112 C1107 1.390 . S
C1112 C1111 1.387 . S
H1113 C1125 0.930 . S
H1114 C1127 0.930 . S
H1115 C1128 0.930 . S
H1116 C1132 0.959 . S
H1117 C1132 0.959 . S
H1118 C1132 0.961 . S
H1119 C1133 0.960 . S
H1120 C1133 0.961 . S
H1121 C1133 0.959 . S
H1122 C1136 0.929 . S
H1123 C1137 0.931 . S
H1124 C1139 0.930 . S
C1125 H1113 0.930 . S
C1125 C1126 1.399 . S
C1125 C1130 1.399 . S
C1126 C1125 1.399 . S
C1126 C1127 1.376 . S
C1127 H1114 0.930 . S
C1127 C1126 1.376 . S
C1127 C1128 1.388 . S
C1128 H1115 0.930 . S
C1128 C1127 1.388 . S
C1128 C1129 1.390 . S
C1129 C1128 1.390 . S
C1129 C1130 1.394 . S
C1129 C1135 1.465 . S
C1130 C1125 1.399 . S
C1130 C1129 1.394 . S
C1130 C1131 1.516 . S
C1131 C1130 1.516 . S
C1131 C1132 1.502 . S
C1131 C1133 1.561 . S
C1131 C1134 1.526 . S
C1132 H1116 0.959 . S
C1132 H1117 0.959 . S
C1132 H1118 0.961 . S
C1132 C1131 1.502 . S
C1133 H1119 0.960 . S
C1133 H1120 0.961 . S
C1133 H1121 0.959 . S
C1133 C1131 1.561 . S
C1134 C1131 1.526 . S
C1134 C1135 1.396 . S
C1134 C1139 1.390 . S
C1135 C1129 1.465 . S
C1135 C1134 1.396 . S
C1135 C1136 1.399 . S
C1136 H1122 0.929 . S
C1136 C1135 1.399 . S
C1136 C1137 1.385 . S
C1137 H1123 0.931 . S
C1137 C1136 1.385 . S
C1137 C1138 1.389 . S
C1138 C1137 1.389 . S
C1138 C1139 1.387 . S
C1139 H1124 0.930 . S
C1139 C1134 1.390 . S
C1139 C1138 1.387 . S
H1140 C1152 0.930 . S
H1141 C1154 0.930 . S
H1142 C1155 0.930 . S
H1143 C1159 0.959 . S
H1144 C1159 0.959 . S
H1145 C1159 0.961 . S
H1146 C1160 0.960 . S
H1147 C1160 0.961 . S
H1148 C1160 0.959 . S
H1149 C1163 0.929 . S
H1150 C1164 0.931 . S
H1151 C1166 0.930 . S
C1152 H1140 0.930 . S
C1152 C1153 1.399 . S
C1152 C1157 1.399 . S
C1153 C1152 1.399 . S
C1153 C1154 1.376 . S
C1154 H1141 0.930 . S
C1154 C1153 1.376 . S
C1154 C1155 1.388 . S
C1155 H1142 0.930 . S
C1155 C1154 1.388 . S
C1155 C1156 1.390 . S
C1156 C1155 1.390 . S
C1156 C1157 1.394 . S
C1156 C1162 1.465 . S
C1157 C1152 1.399 . S
C1157 C1156 1.394 . S
C1157 C1158 1.516 . S
C1158 C1157 1.516 . S
C1158 C1159 1.502 . S
C1158 C1160 1.561 . S
C1158 C1161 1.526 . S
C1159 H1143 0.959 . S
C1159 H1144 0.959 . S
C1159 H1145 0.961 . S
C1159 C1158 1.502 . S
C1160 H1146 0.960 . S
C1160 H1147 0.961 . S
C1160 H1148 0.959 . S
C1160 C1158 1.561 . S
C1161 C1158 1.526 . S
C1161 C1162 1.396 . S
C1161 C1166 1.390 . S
C1162 C1156 1.465 . S
C1162 C1161 1.396 . S
C1162 C1163 1.399 . S
C1163 H1149 0.929 . S
C1163 C1162 1.399 . S
C1163 C1164 1.385 . S
C1164 H1150 0.931 . S
C1164 C1163 1.385 . S
C1164 C1165 1.389 . S
C1165 C1164 1.389 . S
C1165 C1166 1.387 . S
C1166 H1151 0.930 . S
C1166 C1161 1.390 . S
C1166 C1165 1.387 . S
H1167 C1179 0.930 . S
H1168 C1181 0.930 . S
H1169 C1182 0.930 . S
H1170 C1186 0.959 . S
H1171 C1186 0.959 . S
H1172 C1186 0.961 . S
H1173 C1187 0.960 . S
H1174 C1187 0.961 . S
H1175 C1187 0.959 . S
H1176 C1190 0.929 . S
H1177 C1191 0.931 . S
H1178 C1193 0.930 . S
C1179 H1167 0.930 . S
C1179 C1180 1.399 . S
C1179 C1184 1.399 . S
C1180 C1179 1.399 . S
C1180 C1181 1.376 . S
C1181 H1168 0.930 . S
C1181 C1180 1.376 . S
C1181 C1182 1.388 . S
C1182 H1169 0.930 . S
C1182 C1181 1.388 . S
C1182 C1183 1.390 . S
C1183 C1182 1.390 . S
C1183 C1184 1.394 . S
C1183 C1189 1.465 . S
C1184 C1179 1.399 . S
C1184 C1183 1.394 . S
C1184 C1185 1.516 . S
C1185 C1184 1.516 . S
C1185 C1186 1.502 . S
C1185 C1187 1.561 . S
C1185 C1188 1.526 . S
C1186 H1170 0.959 . S
C1186 H1171 0.959 . S
C1186 H1172 0.961 . S
C1186 C1185 1.502 . S
C1187 H1173 0.960 . S
C1187 H1174 0.961 . S
C1187 H1175 0.959 . S
C1187 C1185 1.561 . S
C1188 C1185 1.526 . S
C1188 C1189 1.396 . S
C1188 C1193 1.390 . S
C1189 C1183 1.465 . S
C1189 C1188 1.396 . S
C1189 C1190 1.399 . S
C1190 H1176 0.929 . S
C1190 C1189 1.399 . S
C1190 C1191 1.385 . S
C1191 H1177 0.931 . S
C1191 C1190 1.385 . S
C1191 C1192 1.389 . S
C1192 C1191 1.389 . S
C1192 C1193 1.387 . S
C1193 H1178 0.930 . S
C1193 C1188 1.390 . S
C1193 C1192 1.387 . S
H1194 C1206 0.930 . S
H1195 C1208 0.930 1_556 S
H1196 C1209 0.930 . S
H1197 C1213 0.959 . S
H1198 C1213 0.959 . S
H1199 C1213 0.961 1_545 S
H1200 C1214 0.960 1_545 S
H1201 C1214 0.961 . S
H1202 C1214 0.959 . S
H1203 C1217 0.929 . S
H1204 C1218 0.931 . S
H1205 C1220 0.930 . S
C1206 H1194 0.930 . S
C1206 C1207 1.399 . S
C1206 C1211 1.399 . S
C1207 C1206 1.399 . S
C1207 C1208 1.376 . S
C1208 H1195 0.930 1_554 S
C1208 C1207 1.376 . S
C1208 C1209 1.388 1_554 S
C1209 H1196 0.930 . S
C1209 C1208 1.388 1_556 S
C1209 C1210 1.390 1_556 S
C1210 C1209 1.390 1_554 S
C1210 C1211 1.394 . S
C1210 C1216 1.465 1_545 S
C1211 C1206 1.399 . S
C1211 C1210 1.394 . S
C1211 C1212 1.516 1_545 S
C1212 C1211 1.516 1_565 S
C1212 C1213 1.502 . S
C1212 C1214 1.561 . S
C1212 C1215 1.526 . S
C1213 H1197 0.959 . S
C1213 H1198 0.959 . S
C1213 H1199 0.961 1_565 S
C1213 C1212 1.502 . S
C1214 H1200 0.960 1_565 S
C1214 H1201 0.961 . S
C1214 H1202 0.959 . S
C1214 C1212 1.561 . S
C1215 C1212 1.526 . S
C1215 C1216 1.396 . S
C1215 C1220 1.390 . S
C1216 C1210 1.465 1_565 S
C1216 C1215 1.396 . S
C1216 C1217 1.399 1_554 S
C1217 H1203 0.929 . S
C1217 C1216 1.399 1_556 S
C1217 C1218 1.385 . S
C1218 H1204 0.931 . S
C1218 C1217 1.385 . S
C1218 C1219 1.389 1_556 S
C1219 C1218 1.389 1_554 S
C1219 C1220 1.387 . S
C1220 H1205 0.930 . S
C1220 C1215 1.390 . S
C1220 C1219 1.387 . S
H1221 C1233 0.930 . S
H1222 C1235 0.930 . S
H1223 C1236 0.930 . S
H1224 C1240 0.959 . S
H1225 C1240 0.959 . S
H1226 C1240 0.961 . S
H1227 C1241 0.960 . S
H1228 C1241 0.961 . S
H1229 C1241 0.959 . S
H1230 C1244 0.929 . S
H1231 C1245 0.931 . S
H1232 C1247 0.930 . S
C1233 H1221 0.930 . S
C1233 C1234 1.399 . S
C1233 C1238 1.399 . S
C1234 C1233 1.399 . S
C1234 C1235 1.376 . S
C1235 H1222 0.930 . S
C1235 C1234 1.376 . S
C1235 C1236 1.388 . S
C1236 H1223 0.930 . S
C1236 C1235 1.388 . S
C1236 C1237 1.390 . S
C1237 C1236 1.390 . S
C1237 C1238 1.394 . S
C1237 C1243 1.465 . S
C1238 C1233 1.399 . S
C1238 C1237 1.394 . S
C1238 C1239 1.516 . S
C1239 C1238 1.516 . S
C1239 C1240 1.502 . S
C1239 C1241 1.561 . S
C1239 C1242 1.526 . S
C1240 H1224 0.959 . S
C1240 H1225 0.959 . S
C1240 H1226 0.961 . S
C1240 C1239 1.502 . S
C1241 H1227 0.960 . S
C1241 H1228 0.961 . S
C1241 H1229 0.959 . S
C1241 C1239 1.561 . S
C1242 C1239 1.526 . S
C1242 C1243 1.396 . S
C1242 C1247 1.390 . S
C1243 C1237 1.465 . S
C1243 C1242 1.396 . S
C1243 C1244 1.399 . S
C1244 H1230 0.929 . S
C1244 C1243 1.399 . S
C1244 C1245 1.385 . S
C1245 H1231 0.931 . S
C1245 C1244 1.385 . S
C1245 C1246 1.389 . S
C1246 C1245 1.389 . S
C1246 C1247 1.387 . S
C1247 H1232 0.930 . S
C1247 C1242 1.390 . S
C1247 C1246 1.387 . S
H1248 C1260 0.930 . S
H1249 C1262 0.930 . S
H1250 C1263 0.930 . S
H1251 C1267 0.959 . S
H1252 C1267 0.959 . S
H1253 C1267 0.961 1_455 S
H1254 C1268 0.960 1_455 S
H1255 C1268 0.961 . S
H1256 C1268 0.959 . S
H1257 C1271 0.929 . S
H1258 C1272 0.931 . S
H1259 C1274 0.930 . S
C1260 H1248 0.930 . S
C1260 C1261 1.399 . S
C1260 C1265 1.399 . S
C1261 C1260 1.399 . S
C1261 C1262 1.376 . S
C1262 H1249 0.930 . S
C1262 C1261 1.376 . S
C1262 C1263 1.388 . S
C1263 H1250 0.930 . S
C1263 C1262 1.388 . S
C1263 C1264 1.390 . S
C1264 C1263 1.390 . S
C1264 C1265 1.394 . S
C1264 C1270 1.465 1_455 S
C1265 C1260 1.399 . S
C1265 C1264 1.394 . S
C1265 C1266 1.516 1_455 S
C1266 C1265 1.516 1_655 S
C1266 C1267 1.502 . S
C1266 C1268 1.561 . S
C1266 C1269 1.526 . S
C1267 H1251 0.959 . S
C1267 H1252 0.959 . S
C1267 H1253 0.961 1_655 S
C1267 C1266 1.502 . S
C1268 H1254 0.960 1_655 S
C1268 H1255 0.961 . S
C1268 H1256 0.959 . S
C1268 C1266 1.561 . S
C1269 C1266 1.526 . S
C1269 C1270 1.396 . S
C1269 C1274 1.390 . S
C1270 C1264 1.465 1_655 S
C1270 C1269 1.396 . S
C1270 C1271 1.399 . S
C1271 H1257 0.929 . S
C1271 C1270 1.399 . S
C1271 C1272 1.385 . S
C1272 H1258 0.931 . S
C1272 C1271 1.385 . S
C1272 C1273 1.389 . S
C1273 C1272 1.389 . S
C1273 C1274 1.387 . S
C1274 H1259 0.930 . S
C1274 C1269 1.390 . S
C1274 C1273 1.387 . S
H1275 C1287 0.930 . S
H1276 C1289 0.930 . S
H1277 C1290 0.930 . S
H1278 C1294 0.959 . S
H1279 C1294 0.959 . S
H1280 C1294 0.961 1_565 S
H1281 C1295 0.960 1_565 S
H1282 C1295 0.961 . S
H1283 C1295 0.959 . S
H1284 C1298 0.929 . S
H1285 C1299 0.931 . S
H1286 C1301 0.930 . S
C1287 H1275 0.930 . S
C1287 C1288 1.399 . S
C1287 C1292 1.399 . S
C1288 C1287 1.399 . S
C1288 C1289 1.376 . S
C1289 H1276 0.930 . S
C1289 C1288 1.376 . S
C1289 C1290 1.388 . S
C1290 H1277 0.930 . S
C1290 C1289 1.388 . S
C1290 C1291 1.390 . S
C1291 C1290 1.390 . S
C1291 C1292 1.394 . S
C1291 C1297 1.465 1_565 S
C1292 C1287 1.399 . S
C1292 C1291 1.394 . S
C1292 C1293 1.516 1_565 S
C1293 C1292 1.516 1_545 S
C1293 C1294 1.502 . S
C1293 C1295 1.561 . S
C1293 C1296 1.526 . S
C1294 H1278 0.959 . S
C1294 H1279 0.959 . S
C1294 H1280 0.961 1_545 S
C1294 C1293 1.502 . S
C1295 H1281 0.960 1_545 S
C1295 H1282 0.961 . S
C1295 H1283 0.959 . S
C1295 C1293 1.561 . S
C1296 C1293 1.526 . S
C1296 C1297 1.396 . S
C1296 C1301 1.390 . S
C1297 C1291 1.465 1_545 S
C1297 C1296 1.396 . S
C1297 C1298 1.399 . S
C1298 H1284 0.929 . S
C1298 C1297 1.399 . S
C1298 C1299 1.385 . S
C1299 H1285 0.931 . S
C1299 C1298 1.385 . S
C1299 C1300 1.389 . S
C1300 C1299 1.389 . S
C1300 C1301 1.387 . S
C1301 H1286 0.930 . S
C1301 C1296 1.390 . S
C1301 C1300 1.387 . S
H1302 C1314 0.930 . S
H1303 C1316 0.930 . S
H1304 C1317 0.930 . S
H1305 C1321 0.959 . S
H1306 C1321 0.959 . S
H1307 C1321 0.961 . S
H1308 C1322 0.960 . S
H1309 C1322 0.961 . S
H1310 C1322 0.959 . S
H1311 C1325 0.929 . S
H1312 C1326 0.931 . S
H1313 C1328 0.930 . S
C1314 H1302 0.930 . S
C1314 C1315 1.399 . S
C1314 C1319 1.399 . S
C1315 C1314 1.399 . S
C1315 C1316 1.376 . S
C1316 H1303 0.930 . S
C1316 C1315 1.376 . S
C1316 C1317 1.388 . S
C1317 H1304 0.930 . S
C1317 C1316 1.388 . S
C1317 C1318 1.390 . S
C1318 C1317 1.390 . S
C1318 C1319 1.394 . S
C1318 C1324 1.465 . S
C1319 C1314 1.399 . S
C1319 C1318 1.394 . S
C1319 C1320 1.516 . S
C1320 C1319 1.516 . S
C1320 C1321 1.502 . S
C1320 C1322 1.561 . S
C1320 C1323 1.526 . S
C1321 H1305 0.959 . S
C1321 H1306 0.959 . S
C1321 H1307 0.961 . S
C1321 C1320 1.502 . S
C1322 H1308 0.960 . S
C1322 H1309 0.961 . S
C1322 H1310 0.959 . S
C1322 C1320 1.561 . S
C1323 C1320 1.526 . S
C1323 C1324 1.396 . S
C1323 C1328 1.390 . S
C1324 C1318 1.465 . S
C1324 C1323 1.396 . S
C1324 C1325 1.399 . S
C1325 H1311 0.929 . S
C1325 C1324 1.399 . S
C1325 C1326 1.385 . S
C1326 H1312 0.931 . S
C1326 C1325 1.385 . S
C1326 C1327 1.389 . S
C1327 C1326 1.389 . S
C1327 C1328 1.387 . S
C1328 H1313 0.930 . S
C1328 C1323 1.390 . S
C1328 C1327 1.387 . S
H1329 C1341 0.930 . S
H1330 C1343 0.930 . S
H1331 C1344 0.930 . S
H1332 C1348 0.959 . S
H1333 C1348 0.959 . S
H1334 C1348 0.961 1_455 S
H1335 C1349 0.960 1_455 S
H1336 C1349 0.961 . S
H1337 C1349 0.959 . S
H1338 C1352 0.929 . S
H1339 C1353 0.931 . S
H1340 C1355 0.930 . S
C1341 H1329 0.930 . S
C1341 C1342 1.399 . S
C1341 C1346 1.399 . S
C1342 C1341 1.399 . S
C1342 C1343 1.376 . S
C1343 H1330 0.930 . S
C1343 C1342 1.376 . S
C1343 C1344 1.388 . S
C1344 H1331 0.930 . S
C1344 C1343 1.388 . S
C1344 C1345 1.390 . S
C1345 C1344 1.390 . S
C1345 C1346 1.394 . S
C1345 C1351 1.465 1_455 S
C1346 C1341 1.399 . S
C1346 C1345 1.394 . S
C1346 C1347 1.516 1_455 S
C1347 C1346 1.516 1_655 S
C1347 C1348 1.502 . S
C1347 C1349 1.561 . S
C1347 C1350 1.526 . S
C1348 H1332 0.959 . S
C1348 H1333 0.959 . S
C1348 H1334 0.961 1_655 S
C1348 C1347 1.502 . S
C1349 H1335 0.960 1_655 S
C1349 H1336 0.961 . S
C1349 H1337 0.959 . S
C1349 C1347 1.561 . S
C1350 C1347 1.526 . S
C1350 C1351 1.396 . S
C1350 C1355 1.390 . S
C1351 C1345 1.465 1_655 S
C1351 C1350 1.396 . S
C1351 C1352 1.399 . S
C1352 H1338 0.929 . S
C1352 C1351 1.399 . S
C1352 C1353 1.385 . S
C1353 H1339 0.931 . S
C1353 C1352 1.385 . S
C1353 C1354 1.389 . S
C1354 C1353 1.389 . S
C1354 C1355 1.387 . S
C1355 H1340 0.930 . S
C1355 C1350 1.390 . S
C1355 C1354 1.387 . S
C721 C52 1.380 . S
C733 C642 1.382 . S
C748 C111 1.365 . S
C760 C701 1.370 . S
C775 C406 1.371 . S
C787 C170 1.376 . S
C802 C229 1.369 . S
C814 C465 1.365 . S
C829 C524 1.361 . S
C841 C288 1.363 . S
C856 C583 1.368 . S
C868 C347 1.372 1_554 S
C883 C475 1.395 . S
C895 C3 1.451 . S
C910 C62 1.394 . S
C922 C534 1.418 . S
C937 C593 1.415 . S
C949 C121 1.443 . S
C964 C180 1.406 . S
C976 C652 1.447 . S
C991 C239 1.383 . S
C1003 C357 1.444 . S
C1018 C298 1.412 . S
C1030 C416 1.445 . S
C1045 C595 1.436 . S
C1057 C5 1.431 . S
C1072 C654 1.425 . S
C1084 C64 1.433 . S
C1099 C359 1.408 1_554 S
C1111 C123 1.409 . S
C1126 C182 1.408 . S
C1138 C418 1.411 . S
C1153 C241 1.413 . S
C1165 C477 1.409 . S
C1180 C536 1.414 . S
C1192 C300 1.409 . S
C1207 C33 1.408 . S
C1219 C446 1.419 . S
C1234 C505 1.397 . S
C1246 C92 1.391 . S
C1261 C564 1.401 . S
C1273 C151 1.416 . S
C1288 C210 1.407 . S
C1300 C623 1.419 . S
C1315 C269 1.401 . S
C1327 C682 1.416 . S
C1342 C328 1.406 . S
C1354 C387 1.418 . S
