# Generated by pormake.
# Topology uot, (4)-cn, num edge types: 1
# Building blocks:
#     Node 0, Type 0, BuildingBlock: ESEHIV_clean_sbu_0, # of connection points: 4
#     Node 1, Type 0, BuildingBlock: ESEHIV_clean_sbu_0, # of connection points: 4
#     Node 2, Type 0, BuildingBlock: ESEHIV_clean_sbu_0, # of connection points: 4
#     Node 3, Type 0, BuildingBlock: ESEHIV_clean_sbu_0, # of connection points: 4
#     Node 4, Type 0, BuildingBlock: ESEHIV_clean_sbu_0, # of connection points: 4
#     Node 5, Type 0, BuildingBlock: ESEHIV_clean_sbu_0, # of connection points: 4
#     Node 6, Type 0, BuildingBlock: ESEHIV_clean_sbu_0, # of connection points: 4
#     Node 7, Type 0, BuildingBlock: ESEHIV_clean_sbu_0, # of connection points: 4
#     Node 8, Type 0, BuildingBlock: ESEHIV_clean_sbu_0, # of connection points: 4
#     Node 9, Type 0, BuildingBlock: ESEHIV_clean_sbu_0, # of connection points: 4
#     Node 10, Type 0, BuildingBlock: ESEHIV_clean_sbu_0, # of connection points: 4
#     Node 11, Type 0, BuildingBlock: ESEHIV_clean_sbu_0, # of connection points: 4
#     Node 12, Type 0, BuildingBlock: ESEHIV_clean_sbu_0, # of connection points: 4
#     Node 13, Type 0, BuildingBlock: ESEHIV_clean_sbu_0, # of connection points: 4
#     Node 14, Type 0, BuildingBlock: ESEHIV_clean_sbu_0, # of connection points: 4
#     Node 15, Type 0, BuildingBlock: ESEHIV_clean_sbu_0, # of connection points: 4
#     Edge 16, Type (0, 0), BuildingBlock: MIFKUJ_clean_linker_0, # of connection points: 2
#     Edge 17, Type (0, 0), BuildingBlock: MIFKUJ_clean_linker_0, # of connection points: 2
#     Edge 18, Type (0, 0), BuildingBlock: MIFKUJ_clean_linker_0, # of connection points: 2
#     Edge 19, Type (0, 0), BuildingBlock: MIFKUJ_clean_linker_0, # of connection points: 2
#     Edge 20, Type (0, 0), BuildingBlock: MIFKUJ_clean_linker_0, # of connection points: 2
#     Edge 21, Type (0, 0), BuildingBlock: MIFKUJ_clean_linker_0, # of connection points: 2
#     Edge 22, Type (0, 0), BuildingBlock: MIFKUJ_clean_linker_0, # of connection points: 2
#     Edge 23, Type (0, 0), BuildingBlock: MIFKUJ_clean_linker_0, # of connection points: 2
#     Edge 24, Type (0, 0), BuildingBlock: MIFKUJ_clean_linker_0, # of connection points: 2
#     Edge 25, Type (0, 0), BuildingBlock: MIFKUJ_clean_linker_0, # of connection points: 2
#     Edge 26, Type (0, 0), BuildingBlock: MIFKUJ_clean_linker_0, # of connection points: 2
#     Edge 27, Type (0, 0), BuildingBlock: MIFKUJ_clean_linker_0, # of connection points: 2
#     Edge 28, Type (0, 0), BuildingBlock: MIFKUJ_clean_linker_0, # of connection points: 2
#     Edge 29, Type (0, 0), BuildingBlock: MIFKUJ_clean_linker_0, # of connection points: 2
#     Edge 30, Type (0, 0), BuildingBlock: MIFKUJ_clean_linker_0, # of connection points: 2
#     Edge 31, Type (0, 0), BuildingBlock: MIFKUJ_clean_linker_0, # of connection points: 2
#     Edge 32, Type (0, 0), BuildingBlock: MIFKUJ_clean_linker_0, # of connection points: 2
#     Edge 33, Type (0, 0), BuildingBlock: MIFKUJ_clean_linker_0, # of connection points: 2
#     Edge 34, Type (0, 0), BuildingBlock: MIFKUJ_clean_linker_0, # of connection points: 2
#     Edge 35, Type (0, 0), BuildingBlock: MIFKUJ_clean_linker_0, # of connection points: 2
#     Edge 36, Type (0, 0), BuildingBlock: MIFKUJ_clean_linker_0, # of connection points: 2
#     Edge 37, Type (0, 0), BuildingBlock: MIFKUJ_clean_linker_0, # of connection points: 2
#     Edge 38, Type (0, 0), BuildingBlock: MIFKUJ_clean_linker_0, # of connection points: 2
#     Edge 39, Type (0, 0), BuildingBlock: MIFKUJ_clean_linker_0, # of connection points: 2
#     Edge 40, Type (0, 0), BuildingBlock: MIFKUJ_clean_linker_0, # of connection points: 2
#     Edge 41, Type (0, 0), BuildingBlock: MIFKUJ_clean_linker_0, # of connection points: 2
#     Edge 42, Type (0, 0), BuildingBlock: MIFKUJ_clean_linker_0, # of connection points: 2
#     Edge 43, Type (0, 0), BuildingBlock: MIFKUJ_clean_linker_0, # of connection points: 2
#     Edge 44, Type (0, 0), BuildingBlock: MIFKUJ_clean_linker_0, # of connection points: 2
#     Edge 45, Type (0, 0), BuildingBlock: MIFKUJ_clean_linker_0, # of connection points: 2
#     Edge 46, Type (0, 0), BuildingBlock: MIFKUJ_clean_linker_0, # of connection points: 2
#     Edge 47, Type (0, 0), BuildingBlock: MIFKUJ_clean_linker_0, # of connection points: 2
# Relax obj value: 0.101
# Max RMSD: 0.254
# Mean RMSD: 0.254
data_MOF--net-uot--node1-ESEHIV_clean_sbu_0--edge1-MIFKUJ_clean_linker_0
_symmetry_space_group_name_H-M    P1
_symmetry_Int_Tables_number       1
_symmetry_cell_setting            triclinic
loop_
_symmetry_equiv_pos_as_xyz
'x, y, z'
_cell_length_a     61.224659
_cell_length_b     61.267778
_cell_length_c     60.407726
_cell_angle_alpha  89.984449
_cell_angle_beta   90.045615
_cell_angle_gamma 89.973628
loop_
_atom_site_label
_atom_site_type_symbol
_atom_site_fract_x
_atom_site_fract_y
_atom_site_fract_z
_atom_type_partial_charge
Cu0 Cu 0.20411 0.45487 0.356 0.0
N1 N 0.20641 0.4806 0.33958 0.0
N2 N 0.1996 0.50811 0.3162 0.0
C3 C 0.19254 0.48877 0.32432 0.0
C4 C 0.21856 0.51217 0.32688 0.0
C5 C 0.22266 0.49524 0.34127 0.0
O6 O 0.17743 0.44039 0.34626 0.0
C7 C 0.1993 0.4531 0.40399 0.0
O8 O 0.19546 0.43209 0.40208 0.0
H9 H 0.17768 0.48062 0.31924 0.0
H10 H 0.23647 0.49373 0.35235 0.0
N11 N 0.22905 0.43806 0.34971 0.0
N12 N 0.25688 0.4143 0.35024 0.0
C13 C 0.23854 0.42125 0.36064 0.0
C14 C 0.24172 0.44158 0.33189 0.0
C15 C 0.25884 0.4271 0.3322 0.0
C16 C 0.17531 0.41983 0.34414 0.0
O17 O 0.19129 0.40696 0.35046 0.0
H18 H 0.23234 0.41444 0.37593 0.0
H19 H 0.23869 0.45391 0.31944 0.0
O20 O 0.20318 0.46437 0.38675 0.0
H21 H 0.22856 0.52659 0.32485 0.0
H22 H 0.27161 0.42586 0.31988 0.0
Cu23 Cu 0.45222 0.82819 0.6611 0.0
N24 N 0.48049 0.82772 0.67288 0.0
N25 N 0.50955 0.83517 0.69413 0.0
C26 C 0.48813 0.83919 0.69029 0.0
C27 C 0.51548 0.82061 0.67845 0.0
C28 C 0.49758 0.81608 0.66542 0.0
O29 O 0.43778 0.85344 0.67413 0.0
C30 C 0.46077 0.81521 0.61701 0.0
O31 O 0.46258 0.79579 0.62606 0.0
H32 H 0.47808 0.85011 0.7 0.0
H33 H 0.49714 0.80517 0.65138 0.0
N34 N 0.43813 0.80217 0.6693 0.0
N35 N 0.41494 0.77398 0.67268 0.0
C36 C 0.41981 0.79253 0.66144 0.0
C37 C 0.44513 0.78918 0.68577 0.0
C38 C 0.43101 0.77189 0.68787 0.0
C39 C 0.41725 0.85533 0.67676 0.0
O40 O 0.40428 0.83989 0.66939 0.0
H41 H 0.41009 0.79919 0.64808 0.0
H42 H 0.45956 0.79216 0.69566 0.0
O43 O 0.45511 0.83127 0.6291 0.0
H44 H 0.5317 0.81398 0.67619 0.0
H45 H 0.43269 0.75865 0.69961 0.0
Cu46 Cu 0.81459 0.56944 0.35712 0.0
N47 N 0.81504 0.5442 0.33979 0.0
N48 N 0.82392 0.51889 0.31468 0.0
C49 C 0.82832 0.53901 0.32277 0.0
C50 C 0.80734 0.51122 0.32719 0.0
C51 C 0.80198 0.5268 0.34265 0.0
O52 O 0.83788 0.5883 0.3468 0.0
C53 C 0.82199 0.57083 0.40469 0.0
O54 O 0.82404 0.5921 0.40291 0.0
H55 H 0.84088 0.54975 0.31644 0.0
H56 H 0.78953 0.52552 0.35528 0.0
N57 N 0.7875 0.58317 0.35288 0.0
N58 N 0.75916 0.60637 0.35369 0.0
C59 C 0.77933 0.60173 0.36174 0.0
C60 C 0.77212 0.57605 0.33873 0.0
C61 C 0.75473 0.59019 0.33919 0.0
C62 C 0.85793 0.58317 0.34875 0.0
O63 O 0.86321 0.5656 0.36002 0.0
H64 H 0.78797 0.61155 0.37377 0.0
H65 H 0.7736 0.56171 0.32842 0.0
O66 O 0.81814 0.55948 0.38749 0.0
H67 H 0.79996 0.49524 0.32568 0.0
H68 H 0.74019 0.58892 0.32908 0.0
Cu69 Cu 0.5678 0.18486 0.67068 0.0
N70 N 0.54111 0.18859 0.68508 0.0
N71 N 0.51136 0.18213 0.70558 0.0
C72 C 0.53025 0.17389 0.6975 0.0
C73 C 0.51043 0.20283 0.69788 0.0
C74 C 0.52878 0.20674 0.68528 0.0
O75 O 0.57926 0.15661 0.67958 0.0
C76 C 0.55223 0.17164 0.62912 0.0
O77 O 0.54661 0.15423 0.64049 0.0
H78 H 0.53606 0.15745 0.70035 0.0
H79 H 0.53295 0.2218 0.67695 0.0
N80 N 0.58708 0.20641 0.68078 0.0
N81 N 0.61319 0.23187 0.6837 0.0
C82 C 0.60118 0.2194 0.6697 0.0
C83 C 0.5902 0.21092 0.70232 0.0
C84 C 0.60619 0.22655 0.70419 0.0
C85 C 0.59902 0.15106 0.67636 0.0
O86 O 0.61186 0.16414 0.66507 0.0
H87 H 0.60298 0.21931 0.65188 0.0
H88 H 0.58152 0.20315 0.71576 0.0
O89 O 0.56258 0.18686 0.63893 0.0
H90 H 0.49765 0.21451 0.70141 0.0
H91 H 0.61211 0.23357 0.7195 0.0
Cu92 Cu 0.20398 0.56344 0.66302 0.0
N93 N 0.20369 0.53767 0.67975 0.0
N94 N 0.19355 0.5103 0.70215 0.0
C95 C 0.18944 0.53101 0.6954 0.0
C96 C 0.21112 0.50391 0.69028 0.0
C97 C 0.21715 0.52066 0.67644 0.0
O98 O 0.1808 0.58247 0.67363 0.0
C99 C 0.20347 0.56435 0.61487 0.0
O100 O 0.2104 0.58461 0.61608 0.0
H101 H 0.17588 0.54084 0.70107 0.0
H102 H 0.23021 0.52034 0.6644 0.0
N103 N 0.23127 0.57716 0.66674 0.0
N104 N 0.25835 0.60176 0.66866 0.0
C105 C 0.23769 0.59772 0.66168 0.0
C106 C 0.24849 0.56807 0.67709 0.0
C107 C 0.2651 0.58306 0.67826 0.0
C108 C 0.16075 0.57712 0.67231 0.0
O109 O 0.15547 0.55892 0.66214 0.0
H110 H 0.22725 0.60964 0.65374 0.0
H111 H 0.24887 0.55175 0.68383 0.0
O112 O 0.19958 0.55383 0.63259 0.0
H113 H 0.21906 0.48817 0.69125 0.0
H114 H 0.28097 0.58041 0.68572 0.0
Cu115 Cu 0.56668 0.83238 0.35748 0.0
N116 N 0.53921 0.83197 0.34408 0.0
N117 N 0.51028 0.84128 0.32349 0.0
C118 C 0.53109 0.84618 0.32914 0.0
C119 C 0.50525 0.82325 0.33532 0.0
C120 C 0.52311 0.81758 0.34798 0.0
O121 O 0.58135 0.85867 0.34729 0.0
C122 C 0.55129 0.8468 0.3989 0.0
O123 O 0.54513 0.86386 0.38728 0.0
H124 H 0.54013 0.86005 0.32293 0.0
H125 H 0.52429 0.80396 0.35932 0.0
N126 N 0.58206 0.8075 0.34839 0.0
N127 N 0.60467 0.7788 0.34704 0.0
C128 C 0.59862 0.79681 0.35848 0.0
C129 C 0.57765 0.79595 0.33 0.0
C130 C 0.59148 0.77827 0.32914 0.0
C131 C 0.60184 0.86189 0.34841 0.0
O132 O 0.61426 0.84738 0.35832 0.0
H133 H 0.60571 0.80184 0.37409 0.0
H134 H 0.56505 0.80003 0.31814 0.0
O135 O 0.56199 0.83168 0.38933 0.0
H136 H 0.48985 0.81462 0.33475 0.0
H137 H 0.59188 0.76601 0.31624 0.0
Cu138 Cu 0.81573 0.44801 0.65746 0.0
N139 N 0.81169 0.46937 0.67911 0.0
N140 N 0.81922 0.49447 0.70492 0.0
C141 C 0.8275 0.48014 0.69012 0.0
C142 C 0.79731 0.49256 0.70307 0.0
C143 C 0.79273 0.47706 0.68717 0.0
O144 O 0.83763 0.42796 0.66885 0.0
C145 C 0.82402 0.45313 0.61156 0.0
O146 O 0.81871 0.43237 0.61076 0.0
H147 H 0.84474 0.47765 0.6871 0.0
H148 H 0.77671 0.47168 0.68195 0.0
N149 N 0.78918 0.43376 0.65201 0.0
N150 N 0.76228 0.40908 0.64957 0.0
C151 C 0.78253 0.41345 0.65752 0.0
C152 C 0.77262 0.44249 0.64037 0.0
C153 C 0.75607 0.4274 0.63884 0.0
C154 C 0.85795 0.43212 0.66743 0.0
O155 O 0.86432 0.44918 0.65595 0.0
H156 H 0.79248 0.40202 0.66675 0.0
H157 H 0.77269 0.45875 0.63338 0.0
O158 O 0.82471 0.46264 0.63028 0.0
H159 H 0.78538 0.50145 0.71273 0.0
H160 H 0.74054 0.42986 0.63064 0.0
Cu161 Cu 0.45359 0.19136 0.36541 0.0
N162 N 0.4813 0.19034 0.35231 0.0
N163 N 0.50996 0.18092 0.33133 0.0
C164 C 0.48879 0.17684 0.33636 0.0
C165 C 0.51583 0.19767 0.34459 0.0
C166 C 0.49821 0.20337 0.35746 0.0
O167 O 0.43549 0.16881 0.35212 0.0
C168 C 0.46453 0.20271 0.40925 0.0
O169 O 0.4668 0.22213 0.40031 0.0
H170 H 0.479 0.16413 0.32886 0.0
H171 H 0.49772 0.21627 0.36964 0.0
N172 N 0.44115 0.21877 0.35941 0.0
N173 N 0.41937 0.2482 0.35865 0.0
C174 C 0.42246 0.22788 0.36697 0.0
C175 C 0.44995 0.23371 0.34578 0.0
C176 C 0.43667 0.25178 0.34528 0.0
C177 C 0.43877 0.1485 0.35512 0.0
O178 O 0.45435 0.14224 0.36868 0.0
H179 H 0.41152 0.21987 0.37846 0.0
H180 H 0.46498 0.23154 0.33665 0.0
O181 O 0.45777 0.18703 0.39719 0.0
H182 H 0.53164 0.20555 0.34481 0.0
H183 H 0.43936 0.26628 0.33543 0.0
Cu184 Cu 0.69773 0.94444 0.86493 0.0
N185 N 0.70345 0.96571 0.84355 0.0
N186 N 0.69825 0.99036 0.81667 0.0
C187 C 0.68889 0.97512 0.82978 0.0
C188 C 0.71958 0.99043 0.82247 0.0
C189 C 0.72271 0.97524 0.83903 0.0
O190 O 0.67549 0.9251 0.85303 0.0
C191 C 0.68519 0.94877 0.90978 0.0
O192 O 0.68784 0.92749 0.90992 0.0
H193 H 0.67179 0.97078 0.82935 0.0
H194 H 0.7379 0.97158 0.8474 0.0
N195 N 0.72354 0.9295 0.87193 0.0
N196 N 0.7507 0.90514 0.8745 0.0
C197 C 0.73181 0.91054 0.86415 0.0
C198 C 0.73774 0.93631 0.88744 0.0
C199 C 0.75442 0.92139 0.8891 0.0
C200 C 0.65567 0.93138 0.8527 0.0
O201 O 0.65054 0.94993 0.8623 0.0
H202 H 0.72396 0.90075 0.85153 0.0
H203 H 0.73596 0.95113 0.897 0.0
O204 O 0.68787 0.95913 0.89172 0.0
H205 H 0.73199 1.00104 0.81566 0.0
H206 H 0.76837 0.92255 0.90006 0.0
Cu207 Cu 0.95361 0.32682 0.16752 0.0
N208 N 0.98053 0.3232 0.18155 0.0
N209 N 0.00967 0.32846 0.20331 0.0
C210 C 0.98994 0.33618 0.19685 0.0
C211 C 0.01264 0.30995 0.19151 0.0
C212 C 0.99469 0.30679 0.17815 0.0
O213 O 0.94207 0.3551 0.17636 0.0
C214 C 0.96127 0.34156 0.12371 0.0
O215 O 0.95901 0.36095 0.13271 0.0
H216 H 0.98235 0.35084 0.20322 0.0
H217 H 0.99214 0.29351 0.16664 0.0
N218 N 0.93474 0.305 0.17782 0.0
N219 N 0.90832 0.27991 0.18106 0.0
C220 C 0.91963 0.29294 0.16702 0.0
C221 C 0.933 0.29929 0.19923 0.0
C222 C 0.9168 0.28389 0.2013 0.0
C223 C 0.92176 0.35948 0.17587 0.0
O224 O 0.90812 0.34495 0.16784 0.0
H225 H 0.91659 0.29416 0.14941 0.0
H226 H 0.94272 0.30613 0.21248 0.0
O227 O 0.95862 0.32467 0.13569 0.0
H228 H 0.02695 0.2996 0.19212 0.0
H229 H 0.91175 0.27613 0.21656 0.0
Cu230 Cu 0.31402 0.06535 0.8633 0.0
N231 N 0.31446 0.03852 0.84842 0.0
N232 N 0.32257 0.01127 0.82519 0.0
C233 C 0.32663 0.03222 0.83092 0.0
C234 C 0.30734 1.00422 0.83967 0.0
C235 C 0.30243 0.021 0.85394 0.0
O236 O 0.33669 0.08403 0.85087 0.0
C237 C 0.32944 0.04362 0.90176 0.0
O238 O 0.34014 0.0319 0.88716 0.0
H239 H 0.33813 0.04278 0.82254 0.0
H240 H 0.29104 0.02045 0.86761 0.0
N241 N 0.28663 0.07824 0.85818 0.0
N242 N 0.25887 0.10192 0.85496 0.0
C243 C 0.27956 0.09876 0.86233 0.0
C244 C 0.26984 0.06821 0.84805 0.0
C245 C 0.2528 0.08265 0.84607 0.0
C246 C 0.35675 0.07853 0.85069 0.0
O247 O 0.36269 0.06039 0.86056 0.0
H248 H 0.28951 0.11122 0.87005 0.0
H249 H 0.27002 0.05154 0.8422 0.0
O250 O 0.31772 0.05955 0.89504 0.0
H251 H 0.30058 0.98791 0.84029 0.0
H252 H 0.23706 0.07915 0.83871 0.0
Cu253 Cu 0.06137 0.69197 0.15993 0.0
N254 N 0.03358 0.69177 0.17274 0.0
N255 N 1.00507 0.68268 0.19402 0.0
C256 C 0.02593 0.678 0.18832 0.0
C257 C 0.99954 0.70012 0.18153 0.0
C258 C 0.01711 0.70567 0.16847 0.0
O259 O 0.07701 0.66721 0.17241 0.0
C260 C 0.05115 0.70526 0.11627 0.0
O261 O 0.04912 0.72449 0.12565 0.0
H262 H 0.03544 0.66471 0.19515 0.0
H263 H 0.0179 0.71906 0.15685 0.0
N264 N 0.07509 0.71824 0.16787 0.0
N265 N 0.09701 0.74745 0.16996 0.0
C266 C 0.0926 0.72858 0.15914 0.0
C267 C 0.06841 0.7309 0.18473 0.0
C268 C 0.08179 0.74884 0.18605 0.0
C269 C 0.09769 0.6652 0.17273 0.0
O270 O 0.10983 0.68011 0.16311 0.0
H271 H 0.10173 0.72255 0.14508 0.0
H272 H 0.05476 0.72723 0.19544 0.0
O273 O 0.05746 0.68915 0.12799 0.0
H274 H 0.98404 0.7086 0.18204 0.0
H275 H 0.08065 0.76172 0.19826 0.0
Cu276 Cu 0.69832 0.07047 0.16063 0.0
N277 N 0.70453 0.0484 0.18101 0.0
N278 N 0.70004 0.02278 0.20707 0.0
C279 C 0.69044 0.03884 0.19513 0.0
C280 C 0.721 0.02235 0.20006 0.0
C281 C 0.72369 0.03812 0.18403 0.0
O282 O 0.67685 0.08969 0.17413 0.0
C283 C 0.68566 0.06676 0.11556 0.0
O284 O 0.68974 0.08781 0.11507 0.0
H285 H 0.67349 0.04363 0.19655 0.0
H286 H 0.73849 0.04163 0.17495 0.0
N287 N 0.72419 0.08511 0.15326 0.0
N288 N 0.75118 0.10951 0.14937 0.0
C289 C 0.73184 0.10494 0.15927 0.0
C290 C 0.73918 0.07693 0.1393 0.0
C291 C 0.75577 0.09182 0.13688 0.0
C292 C 0.65656 0.08523 0.17314 0.0
O293 O 0.65014 0.0685 0.16119 0.0
H294 H 0.72326 0.11588 0.17032 0.0
H295 H 0.73802 0.06114 0.13137 0.0
O296 O 0.68747 0.05654 0.13382 0.0
H297 H 0.73345 0.01108 0.20564 0.0
H298 H 0.77027 0.08961 0.12689 0.0
Cu299 Cu 0.06042 0.32415 0.85942 0.0
N300 N 0.03284 0.3249 0.84598 0.0
N301 N 1.00422 0.3337 0.82462 0.0
C302 C 0.02538 0.33792 0.82961 0.0
C303 C 0.99835 0.31733 0.83838 0.0
C304 C 0.01594 0.31202 0.85149 0.0
O305 O 0.07886 0.34686 0.84662 0.0
C306 C 0.04142 0.33914 0.89947 0.0
O307 O 0.02948 0.35099 0.88597 0.0
H308 H 0.03519 0.35043 0.82181 0.0
H309 H 0.01646 0.29957 0.86418 0.0
N310 N 0.07314 0.29699 0.85309 0.0
N311 N 0.09651 0.26893 0.85017 0.0
C312 C 0.09292 0.28899 0.85892 0.0
C313 C 0.06399 0.28147 0.84038 0.0
C314 C 0.07823 0.26423 0.83859 0.0
C315 C 0.07459 0.3672 0.84733 0.0
O316 O 0.05738 0.37394 0.85832 0.0
H317 H 0.10457 0.29788 0.86894 0.0
H318 H 0.04807 0.28268 0.83272 0.0
O319 O 0.05633 0.32692 0.89146 0.0
H320 H 0.98254 0.30947 0.83885 0.0
H321 H 0.07523 0.24928 0.82956 0.0
Cu322 Cu 0.31223 0.95304 0.16859 0.0
N323 N 0.31313 0.97918 0.18451 0.0
N324 N 0.32309 1.00585 0.20771 0.0
C325 C 0.32688 0.98516 0.20089 0.0
C326 C 0.3062 0.01296 0.19523 0.0
C327 C 0.30014 0.99652 0.18098 0.0
O328 O 0.33686 0.9354 0.17811 0.0
C329 C 0.32436 0.95266 0.12224 0.0
O330 O 0.33739 0.93631 0.12711 0.0
H331 H 0.33972 0.97477 0.20726 0.0
H332 H 0.28725 0.99716 0.16874 0.0
N333 N 0.28616 0.93865 0.17568 0.0
N334 N 0.25784 0.91548 0.17664 0.0
C335 C 0.27696 0.92068 0.16663 0.0
C336 C 0.27254 0.94483 0.19196 0.0
C337 C 0.25516 0.93068 0.19259 0.0
C338 C 0.35656 0.94177 0.17624 0.0
O339 O 0.36073 0.95997 0.16553 0.0
H340 H 0.28403 0.91178 0.15292 0.0
H341 H 0.27518 0.95865 0.20277 0.0
O342 O 0.31253 0.96101 0.13734 0.0
H343 H 0.29866 0.0289 0.19632 0.0
H344 H 0.24177 0.93133 0.20426 0.0
Cu345 Cu 0.9517 0.68788 0.85328 0.0
N346 N 0.9797 0.68742 0.84082 0.0
N347 N 1.00841 0.68074 0.81889 0.0
C348 C 0.98654 0.67866 0.82153 0.0
C349 C 0.0154 0.69137 0.83715 0.0
C350 C 0.99772 0.69545 0.85056 0.0
O351 O 0.9348 0.6626 0.84358 0.0
C352 C 0.96472 0.67417 0.89611 0.0
O353 O 0.97058 0.6564 0.88552 0.0
H354 H 0.97574 0.67075 0.80985 0.0
H355 H 0.99801 0.70332 0.86659 0.0
N356 N 0.93704 0.71276 0.84314 0.0
N357 N 0.9127 0.7398 0.83932 0.0
C358 C 0.9203 0.72367 0.85259 0.0
C359 C 0.94016 0.72235 0.82337 0.0
C360 C 0.92522 0.73899 0.82096 0.0
C361 C 0.94275 0.6439 0.83906 0.0
O362 O 0.96363 0.64024 0.84242 0.0
H363 H 0.9134 0.71941 0.86851 0.0
H364 H 0.95223 0.71728 0.81135 0.0
O365 O 0.95527 0.68941 0.8854 0.0
H366 H 0.03222 0.69526 0.841 0.0
H367 H 0.92371 0.74967 0.80677 0.0
H368 H 0.24655 0.37481 0.36797 0.0
H369 H 0.27152 0.34369 0.37315 0.0
H370 H 0.3254 0.38361 0.35129 0.0
H371 H 0.30057 0.41425 0.34577 0.0
H372 H 0.32541 0.34698 0.32948 0.0
H373 H 0.31762 0.36681 0.40672 0.0
H374 H 0.29707 0.37366 0.44113 0.0
H375 H 0.27261 0.30799 0.43998 0.0
H376 H 0.29281 0.30085 0.40539 0.0
H377 H 0.42083 0.29228 0.3568 0.0
H378 H 0.39022 0.31758 0.35888 0.0
H379 H 0.34635 0.26401 0.37152 0.0
H380 H 0.37717 0.23831 0.36919 0.0
H381 H 0.33709 0.30269 0.39723 0.0
H382 H 0.34729 0.28225 0.32156 0.0
H383 H 0.3684 0.27541 0.28751 0.0
H384 H 0.3882 0.34262 0.28582 0.0
H385 H 0.36747 0.34978 0.32006 0.0
C386 C 0.26379 0.37694 0.36469 0.0
C387 C 0.2716 0.39688 0.35628 0.0
C388 C 0.27807 0.35918 0.36763 0.0
C389 C 0.30042 0.3612 0.36253 0.0
C390 C 0.30825 0.38147 0.35511 0.0
C391 C 0.29404 0.39901 0.35197 0.0
C392 C 0.31569 0.34219 0.36342 0.0
C393 C 0.32803 0.33747 0.34441 0.0
C394 C 0.31861 0.32909 0.38255 0.0
C395 C 0.30651 0.33338 0.40334 0.0
C396 C 0.30771 0.35389 0.4137 0.0
C397 C 0.29616 0.35782 0.43326 0.0
C398 C 0.28349 0.34129 0.4427 0.0
C399 C 0.2824 0.32079 0.43263 0.0
C400 C 0.2939 0.31679 0.41306 0.0
C401 C 0.40471 0.28578 0.36001 0.0
C402 C 0.40145 0.26316 0.3624 0.0
C403 C 0.38721 0.30032 0.36132 0.0
C404 C 0.36592 0.29269 0.36501 0.0
C405 C 0.36264 0.27026 0.3686 0.0
C406 C 0.38027 0.25559 0.36728 0.0
C407 C 0.34725 0.30823 0.36359 0.0
C408 C 0.33424 0.31215 0.38232 0.0
C409 C 0.34362 0.3207 0.3442 0.0
C410 C 0.35594 0.31651 0.32347 0.0
C411 C 0.35626 0.29554 0.31401 0.0
C412 C 0.36815 0.29161 0.29467 0.0
C413 C 0.37966 0.30856 0.28453 0.0
C414 C 0.37928 0.3295 0.2937 0.0
C415 C 0.36744 0.33351 0.31306 0.0
H416 H 0.38886 0.30549 0.26956 0.0
H417 H 0.27456 0.34436 0.45784 0.0
H418 H 0.39749 0.74674 0.70333 0.0
H419 H 0.36892 0.71976 0.69788 0.0
H420 H 0.36095 0.74085 0.6303 0.0
H421 H 0.39022 0.76787 0.63546 0.0
H422 H 0.32003 0.73194 0.65435 0.0
H423 H 0.38766 0.69712 0.63623 0.0
H424 H 0.42625 0.687 0.64187 0.0
H425 H 0.40949 0.65422 0.70234 0.0
H426 H 0.37083 0.66444 0.69725 0.0
H427 H 0.25798 0.63193 0.63551 0.0
H428 H 0.28233 0.66371 0.63193 0.0
H429 H 0.31112 0.64841 0.69528 0.0
H430 H 0.2872 0.61686 0.6987 0.0
H431 H 0.342 0.65487 0.66621 0.0
H432 H 0.27544 0.69248 0.68658 0.0
H433 H 0.23688 0.7033 0.68217 0.0
H434 H 0.25127 0.73087 0.61847 0.0
H435 H 0.28989 0.71995 0.62239 0.0
C436 C 0.38989 0.74568 0.68721 0.0
C437 C 0.3966 0.75931 0.66971 0.0
C438 C 0.37336 0.73028 0.68418 0.0
C439 C 0.36295 0.72808 0.66362 0.0
C440 C 0.36879 0.74226 0.64632 0.0
C441 C 0.38552 0.7577 0.6493 0.0
C442 C 0.34692 0.71008 0.66031 0.0
C443 C 0.32484 0.71503 0.65649 0.0
C444 C 0.35315 0.68804 0.66339 0.0
C445 C 0.37636 0.68168 0.66642 0.0
C446 C 0.39222 0.68789 0.65081 0.0
C447 C 0.4141 0.68211 0.6539 0.0
C448 C 0.42032 0.67 0.67247 0.0
C449 C 0.40465 0.6636 0.68797 0.0
C450 C 0.38274 0.66936 0.68498 0.0
C451 C 0.26931 0.6356 0.64875 0.0
C452 C 0.27085 0.62173 0.66726 0.0
C453 C 0.28324 0.65375 0.64671 0.0
C454 C 0.29871 0.65848 0.6633 0.0
C455 C 0.29958 0.64504 0.68211 0.0
C456 C 0.28589 0.62694 0.68405 0.0
C457 C 0.31483 0.67666 0.66103 0.0
C458 C 0.33709 0.67171 0.66374 0.0
C459 C 0.30867 0.69862 0.65702 0.0
C460 C 0.28548 0.70516 0.65465 0.0
C461 C 0.27034 0.70068 0.67155 0.0
C462 C 0.24848 0.70686 0.66915 0.0
C463 C 0.24161 0.7177 0.65002 0.0
C464 C 0.2566 0.72243 0.63326 0.0
C465 C 0.27848 0.71626 0.63556 0.0
H466 H 0.22468 0.72248 0.6482 0.0
H467 H 0.43727 0.66555 0.67483 0.0
H468 H 0.60361 0.7355 0.33884 0.0
H469 H 0.63225 0.70877 0.34635 0.0
H470 H 0.67226 0.75915 0.37531 0.0
H471 H 0.6434 0.78616 0.36774 0.0
H472 H 0.69478 0.73235 0.34452 0.0
H473 H 0.65078 0.72357 0.40894 0.0
H474 H 0.61663 0.71874 0.42998 0.0
H475 H 0.60529 0.65753 0.39733 0.0
H476 H 0.63921 0.66215 0.37585 0.0
H477 H 0.77119 0.64665 0.36876 0.0
H478 H 0.74731 0.67837 0.3742 0.0
H479 H 0.69172 0.63987 0.35422 0.0
H480 H 0.71512 0.60816 0.3498 0.0
H481 H 0.68029 0.66459 0.387 0.0
H482 H 0.71983 0.67615 0.31838 0.0
H483 H 0.75291 0.68081 0.29558 0.0
H484 H 0.77167 0.73633 0.33458 0.0
H485 H 0.7388 0.73181 0.35778 0.0
C486 C 0.61848 0.74092 0.34681 0.0
C487 C 0.62126 0.76297 0.35264 0.0
C488 C 0.6348 0.72559 0.35124 0.0
C489 C 0.65437 0.73191 0.36152 0.0
C490 C 0.65726 0.7539 0.36743 0.0
C491 C 0.64074 0.76927 0.36324 0.0
C492 C 0.67184 0.71542 0.36534 0.0
C493 C 0.69184 0.71774 0.35423 0.0
C494 C 0.66788 0.6962 0.3777 0.0
C495 C 0.6475 0.69328 0.39068 0.0
C496 C 0.64093 0.70916 0.40612 0.0
C497 C 0.62162 0.70644 0.41815 0.0
C498 C 0.60879 0.68785 0.41497 0.0
C499 C 0.61525 0.67192 0.39978 0.0
C500 C 0.63454 0.67457 0.38769 0.0
C501 C 0.75384 0.64487 0.36586 0.0
C502 C 0.74519 0.62485 0.35852 0.0
C503 C 0.74021 0.6631 0.36877 0.0
C504 C 0.71769 0.66169 0.36426 0.0
C505 C 0.709 0.64151 0.35773 0.0
C506 C 0.72251 0.62336 0.35496 0.0
C507 C 0.703 0.68112 0.36555 0.0
C508 C 0.68347 0.67936 0.37765 0.0
C509 C 0.70732 0.70075 0.35391 0.0
C510 C 0.72703 0.70348 0.33997 0.0
C511 C 0.7311 0.68925 0.32219 0.0
C512 C 0.74979 0.69188 0.30918 0.0
C513 C 0.76442 0.70881 0.31368 0.0
C514 C 0.76035 0.72319 0.33115 0.0
C515 C 0.7417 0.7206 0.34423 0.0
H516 H 0.77888 0.71082 0.30359 0.0
H517 H 0.59384 0.68578 0.4243 0.0
H518 H 0.64833 0.24225 0.70876 0.0
H519 H 0.67528 0.27068 0.70167 0.0
H520 H 0.64365 0.28575 0.6397 0.0
H521 H 0.61656 0.25702 0.64672 0.0
H522 H 0.6875 0.28727 0.63536 0.0
H523 H 0.63514 0.31734 0.68583 0.0
H524 H 0.6126 0.31854 0.71961 0.0
H525 H 0.67049 0.31819 0.75979 0.0
H526 H 0.69339 0.31668 0.72623 0.0
H527 H 0.73143 0.39377 0.62135 0.0
H528 H 0.70816 0.36186 0.62629 0.0
H529 H 0.74101 0.34701 0.68765 0.0
H530 H 0.76412 0.3794 0.68303 0.0
H531 H 0.69721 0.34487 0.69226 0.0
H532 H 0.74963 0.31618 0.64123 0.0
H533 H 0.7718 0.31545 0.60718 0.0
H534 H 0.71346 0.31389 0.56771 0.0
H535 H 0.69092 0.31493 0.60153 0.0
C536 C 0.64702 0.25163 0.69364 0.0
C537 C 0.63005 0.24756 0.67846 0.0
C538 C 0.6625 0.2679 0.68958 0.0
C539 C 0.66128 0.28074 0.67037 0.0
C540 C 0.64489 0.27616 0.65471 0.0
C541 C 0.62942 0.25971 0.65871 0.0
C542 C 0.67677 0.29925 0.66704 0.0
C543 C 0.68942 0.30002 0.64767 0.0
C544 C 0.6797 0.31567 0.68331 0.0
C545 C 0.66597 0.31668 0.70352 0.0
C546 C 0.64306 0.31735 0.70187 0.0
C547 C 0.63022 0.31811 0.72098 0.0
C548 C 0.6401 0.31839 0.74183 0.0
C549 C 0.66285 0.31795 0.74362 0.0
C550 C 0.67577 0.31716 0.72456 0.0
C551 C 0.73373 0.38378 0.63594 0.0
C552 C 0.7496 0.38929 0.65187 0.0
C553 C 0.72052 0.36536 0.63862 0.0
C554 C 0.7229 0.35186 0.65725 0.0
C555 C 0.7389 0.35713 0.6731 0.0
C556 C 0.75221 0.37557 0.67037 0.0
C557 C 0.708 0.33289 0.66061 0.0
C558 C 0.69539 0.33208 0.67998 0.0
C559 C 0.70507 0.31651 0.6443 0.0
C560 C 0.71858 0.31583 0.62392 0.0
C561 C 0.74152 0.31586 0.62529 0.0
C562 C 0.75416 0.31536 0.60603 0.0
C563 C 0.74404 0.31468 0.58529 0.0
C564 C 0.72127 0.31444 0.58378 0.0
C565 C 0.70856 0.31496 0.60299 0.0
H566 H 0.75386 0.31429 0.5704 0.0
H567 H 0.63013 0.31898 0.75661 0.0
H568 H 0.77523 0.88443 0.90522 0.0
H569 H 0.80097 0.85464 0.89919 0.0
H570 H 0.78347 0.85304 0.83003 0.0
H571 H 0.75733 0.88289 0.83613 0.0
H572 H 0.78904 0.81235 0.8456 0.0
H573 H 0.8304 0.87849 0.84758 0.0
H574 H 0.84291 0.91368 0.86276 0.0
H575 H 0.8674 0.88113 0.92065 0.0
H576 H 0.85475 0.84576 0.90594 0.0
H577 H 0.88542 0.75747 0.80886 0.0
H578 H 0.85605 0.78373 0.81538 0.0
H579 H 0.8695 0.7819 0.88544 0.0
H580 H 0.89912 0.75566 0.87895 0.0
H581 H 0.86582 0.824 0.86915 0.0
H582 H 0.82488 0.75737 0.86587 0.0
H583 H 0.81274 0.72252 0.8496 0.0
H584 H 0.78819 0.7565 0.79259 0.0
H585 H 0.80048 0.79155 0.80838 0.0
C586 C 0.77685 0.87777 0.88871 0.0
C587 C 0.76445 0.88626 0.87108 0.0
C588 C 0.79159 0.86071 0.88528 0.0
C589 C 0.79459 0.85188 0.86405 0.0
C590 C 0.78156 0.85966 0.84655 0.0
C591 C 0.7666 0.87669 0.85003 0.0
C592 C 0.81175 0.83501 0.86019 0.0
C593 C 0.80588 0.81502 0.85048 0.0
C594 C 0.83371 0.83826 0.86689 0.0
C595 C 0.84144 0.8595 0.87575 0.0
C596 C 0.83831 0.87885 0.86362 0.0
C597 C 0.84545 0.89883 0.87213 0.0
C598 C 0.8559 0.89965 0.89268 0.0
C599 C 0.85928 0.88048 0.90474 0.0
C600 C 0.85214 0.86045 0.89632 0.0
C601 C 0.88217 0.76266 0.82566 0.0
C602 C 0.8947 0.75453 0.84339 0.0
C603 C 0.86523 0.77755 0.82938 0.0
C604 C 0.86046 0.78471 0.85091 0.0
C605 C 0.87285 0.77656 0.86868 0.0
C606 C 0.88968 0.76147 0.86499 0.0
C607 C 0.84309 0.80132 0.85471 0.0
C608 C 0.84896 0.82131 0.86433 0.0
C609 C 0.82122 0.79811 0.84774 0.0
C610 C 0.8138 0.77707 0.83821 0.0
C611 C 0.81707 0.7574 0.84977 0.0
C612 C 0.81012 0.73761 0.84065 0.0
C613 C 0.79975 0.73729 0.82004 0.0
C614 C 0.79626 0.75677 0.80853 0.0
C615 C 0.80319 0.7766 0.81757 0.0
H616 H 0.79438 0.72195 0.81302 0.0
H617 H 0.86142 0.91513 0.89924 0.0
H618 H 0.7791 0.1259 0.11883 0.0
H619 H 0.80407 0.15655 0.12323 0.0
H620 H 0.77886 0.16819 0.1888 0.0
H621 H 0.75372 0.13725 0.18451 0.0
H622 H 0.78576 0.20645 0.16633 0.0
H623 H 0.82676 0.14162 0.18212 0.0
H624 H 0.84101 0.10463 0.17504 0.0
H625 H 0.87321 0.12756 0.11635 0.0
H626 H 0.85887 0.16465 0.12291 0.0
H627 H 0.87485 0.26846 0.20797 0.0
H628 H 0.84651 0.24141 0.20077 0.0
H629 H 0.87291 0.23045 0.13554 0.0
H630 H 0.90172 0.25737 0.14287 0.0
H631 H 0.86504 0.19231 0.15702 0.0
H632 H 0.82506 0.25769 0.14216 0.0
H633 H 0.81086 0.29463 0.14958 0.0
H634 H 0.77698 0.27082 0.20691 0.0
H635 H 0.79123 0.23377 0.20003 0.0
C636 C 0.77887 0.13487 0.13426 0.0
C637 C 0.7646 0.12884 0.15147 0.0
C638 C 0.79316 0.15248 0.13672 0.0
C639 C 0.79368 0.16446 0.1565 0.0
C640 C 0.77883 0.15912 0.17341 0.0
C641 C 0.76443 0.14146 0.17093 0.0
C642 C 0.81019 0.18207 0.15963 0.0
C643 C 0.80311 0.20331 0.16459 0.0
C644 C 0.83284 0.17813 0.15683 0.0
C645 C 0.84156 0.15586 0.15289 0.0
C646 C 0.83674 0.13874 0.16761 0.0
C647 C 0.84485 0.11776 0.16371 0.0
C648 C 0.85796 0.11373 0.14523 0.0
C649 C 0.86302 0.1307 0.13064 0.0
C650 C 0.85492 0.1517 0.13445 0.0
C651 C 0.87469 0.26031 0.19208 0.0
C652 C 0.89069 0.265 0.17604 0.0
C653 C 0.8583 0.24497 0.1879 0.0
C654 C 0.85743 0.23396 0.16755 0.0
C655 C 0.8732 0.23877 0.15136 0.0
C656 C 0.88958 0.25426 0.1555 0.0
C657 C 0.84065 0.21674 0.16369 0.0
C658 C 0.84769 0.19552 0.15867 0.0
C659 C 0.818 0.22072 0.16649 0.0
C660 C 0.80939 0.24298 0.17069 0.0
C661 C 0.81473 0.26036 0.15646 0.0
C662 C 0.80664 0.28132 0.16055 0.0
C663 C 0.79307 0.28508 0.17874 0.0
C664 C 0.78752 0.26788 0.19285 0.0
C665 C 0.79558 0.2469 0.18885 0.0
H666 H 0.78682 0.30132 0.18187 0.0
H667 H 0.86423 0.09748 0.14224 0.0
H668 H 0.11076 0.23885 0.82071 0.0
H669 H 0.14074 0.21317 0.82531 0.0
H670 H 0.15638 0.24183 0.88852 0.0
H671 H 0.12594 0.26771 0.88411 0.0
H672 H 0.19397 0.23099 0.86286 0.0
H673 H 0.12924 0.19617 0.88912 0.0
H674 H 0.09072 0.18452 0.88777 0.0
H675 H 0.10369 0.14693 0.82925 0.0
H676 H 0.14224 0.15863 0.83006 0.0
H677 H 0.25961 0.13411 0.88611 0.0
H678 H 0.23456 0.16543 0.88867 0.0
H679 H 0.20338 0.14524 0.82799 0.0
H680 H 0.22813 0.11426 0.82541 0.0
H681 H 0.17378 0.15266 0.85909 0.0
H682 H 0.23766 0.19012 0.83103 0.0
H683 H 0.27607 0.20217 0.83194 0.0
H684 H 0.26488 0.23455 0.89394 0.0
H685 H 0.22644 0.22244 0.89353 0.0
C686 C 0.12044 0.23973 0.83567 0.0
C687 C 0.11561 0.25514 0.85223 0.0
C688 C 0.13771 0.22507 0.83821 0.0
C689 C 0.15061 0.2253 0.85742 0.0
C690 C 0.14659 0.2413 0.87359 0.0
C691 C 0.1292 0.25609 0.87104 0.0
C692 C 0.16744 0.20803 0.86072 0.0
C693 C 0.18957 0.21384 0.86246 0.0
C694 C 0.16174 0.18565 0.86002 0.0
C695 C 0.1386 0.1784 0.85958 0.0
C696 C 0.12385 0.18554 0.87588 0.0
C697 C 0.10201 0.17891 0.87522 0.0
C698 C 0.09476 0.16502 0.85841 0.0
C699 C 0.10934 0.1577 0.84226 0.0
C700 C 0.13119 0.1643 0.84282 0.0
C701 C 0.2476 0.13658 0.87319 0.0
C702 C 0.24569 0.1215 0.85572 0.0
C703 C 0.23328 0.15447 0.87467 0.0
C704 C 0.21696 0.15768 0.85856 0.0
C705 C 0.21562 0.14303 0.84076 0.0
C706 C 0.22977 0.12523 0.83935 0.0
C707 C 0.20046 0.17553 0.86042 0.0
C708 C 0.17827 0.16978 0.85977 0.0
C709 C 0.20618 0.19788 0.86214 0.0
C710 C 0.22926 0.20515 0.86238 0.0
C711 C 0.24344 0.19964 0.84495 0.0
C712 C 0.26521 0.20652 0.84535 0.0
C713 C 0.27294 0.21905 0.86302 0.0
C714 C 0.25889 0.2248 0.88029 0.0
C715 C 0.23711 0.21795 0.87997 0.0
H716 H 0.28979 0.22437 0.8633 0.0
H717 H 0.07784 0.15991 0.85793 0.0
H718 H 0.26796 0.87588 0.15866 0.0
H719 H 0.24322 0.84465 0.15389 0.0
H720 H 0.18992 0.88313 0.17946 0.0
H721 H 0.21428 0.91417 0.18401 0.0
H722 H 0.19271 0.8443 0.20016 0.0
H723 H 0.19418 0.8705 0.12442 0.0
H724 H 0.21209 0.88034 0.08925 0.0
H725 H 0.23693 0.81507 0.08307 0.0
H726 H 0.2194 0.80493 0.11838 0.0
H727 H 0.09575 0.79088 0.17736 0.0
H728 H 0.12599 0.81661 0.17511 0.0
H729 H 0.16824 0.7654 0.15139 0.0
H730 H 0.13774 0.73932 0.1537 0.0
H731 H 0.17565 0.8058 0.13 0.0
H732 H 0.17196 0.77858 0.20375 0.0
H733 H 0.15418 0.76828 0.23883 0.0
H734 H 0.13466 0.83481 0.24919 0.0
H735 H 0.15203 0.84547 0.21398 0.0
C736 C 0.25091 0.87776 0.16294 0.0
C737 C 0.24321 0.8975 0.17199 0.0
C738 C 0.23678 0.85987 0.16024 0.0
C739 C 0.21469 0.86148 0.16642 0.0
C740 C 0.20692 0.88137 0.17479 0.0
C741 C 0.22094 0.89913 0.17748 0.0
C742 C 0.19961 0.84241 0.16527 0.0
C743 C 0.1889 0.83601 0.18477 0.0
C744 C 0.19522 0.83094 0.14538 0.0
C745 C 0.20571 0.83704 0.12416 0.0
C746 C 0.20363 0.8583 0.11566 0.0
C747 C 0.21367 0.86392 0.09568 0.0
C748 C 0.2257 0.84836 0.08397 0.0
C749 C 0.22765 0.82712 0.09218 0.0
C750 C 0.21765 0.82143 0.11217 0.0
C751 C 0.11144 0.78503 0.17164 0.0
C752 C 0.1144 0.76294 0.16608 0.0
C753 C 0.12872 0.7998 0.17028 0.0
C754 C 0.14952 0.79288 0.16349 0.0
C755 C 0.15236 0.77109 0.15677 0.0
C756 C 0.13492 0.75622 0.15807 0.0
C757 C 0.16825 0.80835 0.16475 0.0
C758 C 0.17968 0.81395 0.14541 0.0
C759 C 0.17349 0.81908 0.18482 0.0
C760 C 0.16318 0.81279 0.20614 0.0
C761 C 0.16375 0.79099 0.21343 0.0
C762 C 0.15376 0.78509 0.23335 0.0
C763 C 0.14327 0.80087 0.24622 0.0
C764 C 0.14279 0.8226 0.2392 0.0
C765 C 0.15273 0.82859 0.21928 0.0
H766 H 0.13554 0.79627 0.26163 0.0
H767 H 0.23347 0.85274 0.0685 0.0
H768 H 0.15623 0.51032 0.30653 0.0
H769 H 0.13844 0.53527 0.2805 0.0
H770 H 0.20112 0.56252 0.26331 0.0
H771 H 0.21896 0.53764 0.28913 0.0
H772 H 0.17222 0.59409 0.2714 0.0
H773 H 0.17351 0.52834 0.22799 0.0
H774 H 0.16639 0.48946 0.2203 0.0
H775 H 0.09746 0.50037 0.22731 0.0
H776 H 0.10419 0.53927 0.23535 0.0
H777 H 0.1413 0.65715 0.17878 0.0
H778 H 0.15805 0.62878 0.20165 0.0
H779 H 0.09424 0.60401 0.21838 0.0
H780 H 0.07733 0.63219 0.19535 0.0
H781 H 0.12282 0.5709 0.21066 0.0
H782 H 0.12124 0.63617 0.2543 0.0
H783 H 0.12794 0.67503 0.26247 0.0
H784 H 0.19701 0.66487 0.25566 0.0
H785 H 0.19069 0.62599 0.24714 0.0
C786 C 0.16626 0.5214 0.297 0.0
C787 C 0.18905 0.522 0.30006 0.0
C788 C 0.15606 0.53569 0.28212 0.0
C789 C 0.16844 0.55074 0.26985 0.0
C790 C 0.19119 0.55115 0.27266 0.0
C791 C 0.20138 0.53693 0.28752 0.0
C792 C 0.15776 0.56662 0.25465 0.0
C793 C 0.16167 0.58897 0.25793 0.0
C794 C 0.14348 0.56003 0.23745 0.0
C795 C 0.13938 0.53667 0.2325 0.0
C796 C 0.15685 0.52241 0.22807 0.0
C797 C 0.15288 0.50038 0.22361 0.0
C798 C 0.13149 0.49244 0.22338 0.0
C799 C 0.11402 0.50653 0.22753 0.0
C800 C 0.1179 0.52858 0.23202 0.0
C801 C 0.1308 0.64558 0.18717 0.0
C802 C 0.10795 0.64706 0.18532 0.0
C803 C 0.14042 0.6294 0.20031 0.0
C804 C 0.1274 0.61444 0.21199 0.0
C805 C 0.10461 0.6154 0.20957 0.0
C806 C 0.09498 0.63158 0.19643 0.0
C807 C 0.13752 0.5983 0.22729 0.0
C808 C 0.13342 0.57597 0.22411 0.0
C809 C 0.1516 0.60487 0.24466 0.0
C810 C 0.15547 0.62822 0.24986 0.0
C811 C 0.13784 0.64226 0.25437 0.0
C812 C 0.14158 0.66428 0.25909 0.0
C813 C 0.16289 0.67243 0.25952 0.0
C814 C 0.18051 0.65855 0.25529 0.0
C815 C 0.17686 0.63651 0.25053 0.0
H816 H 0.16574 0.68948 0.26318 0.0
H817 H 0.12845 0.47537 0.21993 0.0
H818 H 0.50341 0.87337 0.7164 0.0
H819 H 0.52712 0.88916 0.74472 0.0
H820 H 0.57122 0.83461 0.73831 0.0
H821 H 0.54722 0.81831 0.71072 0.0
H822 H 0.56595 0.84379 0.78021 0.0
H823 H 0.58147 0.88532 0.71498 0.0
H824 H 0.5743 0.90898 0.68277 0.0
H825 H 0.55033 0.95936 0.72577 0.0
H826 H 0.55693 0.93584 0.75823 0.0
H827 H 0.66015 0.89233 0.83088 0.0
H828 H 0.63393 0.87519 0.80564 0.0
H829 H 0.58798 0.9271 0.81815 0.0
H830 H 0.61398 0.94429 0.84335 0.0
H831 H 0.59375 0.91955 0.77386 0.0
H832 H 0.5789 0.87743 0.83918 0.0
H833 H 0.58819 0.85405 0.87106 0.0
H834 H 0.61313 0.80497 0.82708 0.0
H835 H 0.60426 0.82821 0.79493 0.0
C836 C 0.51802 0.86458 0.72114 0.0
C837 C 0.52337 0.84455 0.71109 0.0
C838 C 0.53171 0.87378 0.7372 0.0
C839 C 0.55116 0.86325 0.74347 0.0
C840 C 0.55637 0.84313 0.73371 0.0
C841 C 0.54268 0.8339 0.71773 0.0
C842 C 0.56602 0.87301 0.76031 0.0
C843 C 0.5722 0.86028 0.77865 0.0
C844 C 0.57391 0.8947 0.7586 0.0
C845 C 0.56939 0.90866 0.73903 0.0
C846 C 0.57438 0.90132 0.71756 0.0
C847 C 0.57047 0.91474 0.69925 0.0
C848 C 0.56177 0.93562 0.70221 0.0
C849 C 0.55697 0.94314 0.72349 0.0
C850 C 0.56077 0.92976 0.74185 0.0
C851 C 0.64436 0.89995 0.82847 0.0
C852 C 0.63919 0.91969 0.83914 0.0
C853 C 0.62938 0.89011 0.81407 0.0
C854 C 0.60897 0.89985 0.81004 0.0
C855 C 0.60363 0.91932 0.82099 0.0
C856 C 0.61851 0.92907 0.83548 0.0
C857 C 0.59358 0.89033 0.79365 0.0
C858 C 0.58736 0.9031 0.77541 0.0
C859 C 0.5858 0.86867 0.79536 0.0
C860 C 0.59111 0.85466 0.81466 0.0
C861 C 0.58654 0.86174 0.83631 0.0
C862 C 0.59169 0.84849 0.85443 0.0
C863 C 0.60129 0.82807 0.8511 0.0
C864 C 0.60571 0.82081 0.82964 0.0
C865 C 0.60061 0.834 0.81146 0.0
H866 H 0.60527 0.81784 0.86515 0.0
H867 H 0.55882 0.946 0.68802 0.0
H868 H 0.87919 0.37152 0.18192 0.0
H869 H 0.86535 0.40332 0.20168 0.0
H870 H 0.93131 0.42559 0.21273 0.0
H871 H 0.94534 0.39341 0.1934 0.0
H872 H 0.90938 0.42794 0.24962 0.0
H873 H 0.89599 0.45227 0.17621 0.0
H874 H 0.8828 0.45031 0.13769 0.0
H875 H 0.81691 0.443 0.16078 0.0
H876 H 0.82971 0.44461 0.19946 0.0
H877 H 0.86625 0.52342 0.30177 0.0
H878 H 0.88557 0.50135 0.27415 0.0
H879 H 0.82621 0.46588 0.26061 0.0
H880 H 0.80679 0.48809 0.28774 0.0
H881 H 0.84886 0.47481 0.22266 0.0
H882 H 0.86397 0.44561 0.2959 0.0
H883 H 0.87758 0.44769 0.33429 0.0
H884 H 0.94133 0.46508 0.31052 0.0
H885 H 0.92799 0.46339 0.27198 0.0
C886 C 0.89079 0.38328 0.18831 0.0
C887 C 0.91339 0.37987 0.18607 0.0
C888 C 0.88282 0.40158 0.19952 0.0
C889 C 0.89725 0.41707 0.20851 0.0
C890 C 0.91983 0.41392 0.20592 0.0
C891 C 0.92783 0.39553 0.19481 0.0
C892 C 0.8887 0.43569 0.2218 0.0
C893 C 0.89649 0.4385 0.24349 0.0
C894 C 0.87167 0.44935 0.21402 0.0
C895 C 0.86385 0.44841 0.19076 0.0
C896 C 0.8787 0.45009 0.17308 0.0
C897 C 0.87129 0.44907 0.15121 0.0
C898 C 0.84904 0.4465 0.14679 0.0
C899 C 0.83414 0.44499 0.16423 0.0
C900 C 0.84147 0.44598 0.18614 0.0
C901 C 0.85724 0.51116 0.29266 0.0
C902 C 0.83503 0.50732 0.29718 0.0
C903 C 0.86834 0.49847 0.27698 0.0
C904 C 0.85739 0.48176 0.26552 0.0
C905 C 0.83501 0.47861 0.26929 0.0
C906 C 0.82398 0.49118 0.28498 0.0
C907 C 0.86926 0.46666 0.25048 0.0
C908 C 0.86205 0.4645 0.22853 0.0
C909 C 0.88692 0.45367 0.25796 0.0
C910 C 0.89492 0.45464 0.2811 0.0
C911 C 0.88084 0.45005 0.29888 0.0
C912 C 0.88851 0.45113 0.32066 0.0
C913 C 0.91029 0.45659 0.32484 0.0
C914 C 0.92445 0.46091 0.30725 0.0
C915 C 0.91685 0.45989 0.28544 0.0
H916 H 0.9162 0.4574 0.34171 0.0
H917 H 0.84333 0.44571 0.12985 0.0
H918 H 0.46832 0.19196 0.7102 0.0
H919 H 0.44209 0.17471 0.73503 0.0
H920 H 0.49197 0.13035 0.7578 0.0
H921 H 0.51843 0.14767 0.73313 0.0
H922 H 0.45345 0.10929 0.75066 0.0
H923 H 0.47721 0.17368 0.78911 0.0
H924 H 0.48449 0.21302 0.79359 0.0
H925 H 0.41654 0.22712 0.78321 0.0
H926 H 0.4089 0.18787 0.77836 0.0
H927 H 0.40047 0.0706 0.84656 0.0
H928 H 0.42646 0.08889 0.82222 0.0
H929 H 0.37575 0.13259 0.79997 0.0
H930 H 0.34959 0.11452 0.82455 0.0
H931 H 0.41423 0.15397 0.80647 0.0
H932 H 0.39024 0.08927 0.76913 0.0
H933 H 0.38286 0.04979 0.76644 0.0
H934 H 0.45112 0.03608 0.77492 0.0
H935 H 0.45887 0.07546 0.7782 0.0
C936 C 0.47383 0.17866 0.72058 0.0
C937 C 0.49563 0.17138 0.71972 0.0
C938 C 0.45874 0.16875 0.73475 0.0
C939 C 0.4651 0.1514 0.7485 0.0
C940 C 0.48668 0.14372 0.74734 0.0
C941 C 0.5018 0.15363 0.73316 0.0
C942 C 0.44931 0.1415 0.76431 0.0
C943 C 0.44507 0.11901 0.76303 0.0
C944 C 0.43799 0.15425 0.78015 0.0
C945 C 0.44253 0.17786 0.78315 0.0
C946 C 0.46385 0.18519 0.78761 0.0
C947 C 0.46803 0.20746 0.79025 0.0
C948 C 0.451 0.22256 0.78863 0.0
C949 C 0.42973 0.21541 0.78443 0.0
C950 C 0.42546 0.19315 0.78175 0.0
C951 C 0.39483 0.08422 0.83665 0.0
C952 C 0.37288 0.09098 0.83741 0.0
C953 C 0.40972 0.0946 0.82266 0.0
C954 C 0.40297 0.11186 0.80897 0.0
C955 C 0.38129 0.11924 0.81031 0.0
C956 C 0.36636 0.10887 0.82436 0.0
C957 C 0.41842 0.12177 0.79286 0.0
C958 C 0.42257 0.14426 0.79406 0.0
C959 C 0.42962 0.10901 0.77693 0.0
C960 C 0.42511 0.08534 0.77414 0.0
C961 C 0.40368 0.07784 0.77055 0.0
C962 C 0.39942 0.05547 0.76893 0.0
C963 C 0.4165 0.04044 0.77059 0.0
C964 C 0.4379 0.04775 0.7737 0.0
C965 C 0.44224 0.07009 0.77545 0.0
H966 H 0.41316 0.02313 0.76944 0.0
H967 H 0.45427 0.2398 0.79068 0.0
H968 H 0.19349 0.46599 0.70561 0.0
H969 H 0.173 0.44376 0.73147 0.0
H970 H 0.14375 0.50159 0.75932 0.0
H971 H 0.16514 0.52428 0.73398 0.0
H972 H 0.15469 0.47376 0.79145 0.0
H973 H 0.11497 0.4683 0.72386 0.0
H974 H 0.10949 0.46218 0.6839 0.0
H975 H 0.13211 0.39618 0.69077 0.0
H976 H 0.13803 0.40199 0.73073 0.0
H977 H 0.07122 0.41178 0.84671 0.0
H978 H 0.09124 0.43749 0.8233 0.0
H979 H 0.12755 0.38414 0.79478 0.0
H980 H 0.10759 0.35831 0.81808 0.0
H981 H 0.11087 0.41159 0.76324 0.0
H982 H 0.15148 0.41833 0.83133 0.0
H983 H 0.15597 0.42512 0.87131 0.0
H984 H 0.12982 0.4897 0.86337 0.0
H985 H 0.12489 0.48318 0.82337 0.0
C986 C 0.18298 0.47418 0.71732 0.0
C987 C 0.18112 0.49711 0.71756 0.0
C988 C 0.17099 0.46132 0.73201 0.0
C989 C 0.15651 0.47091 0.74714 0.0
C990 C 0.15473 0.49377 0.7477 0.0
C991 C 0.16686 0.50674 0.73305 0.0
C992 C 0.1434 0.45692 0.76231 0.0
C993 C 0.14482 0.46039 0.78525 0.0
C994 C 0.13072 0.43925 0.7543 0.0
C995 C 0.12711 0.43565 0.73027 0.0
C996 C 0.11893 0.45253 0.71682 0.0
C997 C 0.11572 0.44911 0.69418 0.0
C998 C 0.12049 0.42882 0.68479 0.0
C999 C 0.12844 0.41189 0.69805 0.0
C1000 C 0.1317 0.41523 0.72071 0.0
C1001 C 0.08359 0.40551 0.8356 0.0
C1002 C 0.08778 0.38295 0.83429 0.0
C1003 C 0.09507 0.42026 0.82226 0.0
C1004 C 0.11097 0.41277 0.80734 0.0
C1005 C 0.11535 0.39029 0.80617 0.0
C1006 C 0.10398 0.37555 0.81958 0.0
C1007 C 0.12249 0.4282 0.79234 0.0
C1008 C 0.12068 0.42502 0.76941 0.0
C1009 C 0.1346 0.44622 0.80037 0.0
C1010 C 0.1376 0.45018 0.8244 0.0
C1011 C 0.14651 0.43391 0.83814 0.0
C1012 C 0.14917 0.43773 0.8608 0.0
C1013 C 0.14313 0.45781 0.86989 0.0
C1014 C 0.13446 0.47414 0.85632 0.0
C1015 C 0.13175 0.4704 0.83365 0.0
H1016 H 0.1452 0.46073 0.88743 0.0
H1017 H 0.118 0.4262 0.66725 0.0
H1018 H 0.35204 0.91108 0.20871 0.0
H1019 H 0.38064 0.8957 0.23224 0.0
H1020 H 0.42944 0.93157 0.19595 0.0
H1021 H 0.40082 0.9474 0.17242 0.0
H1022 H 0.44061 0.88623 0.20633 0.0
H1023 H 0.4166 0.95198 0.24066 0.0
H1024 H 0.3891 0.978 0.25446 0.0
H1025 H 0.36719 0.93083 0.30206 0.0
H1026 H 0.39409 0.90422 0.28806 0.0
H1027 H 0.52251 0.86626 0.28841 0.0
H1028 H 0.4985 0.88518 0.26227 0.0
H1029 H 0.44215 0.8612 0.29748 0.0
H1030 H 0.466 0.84276 0.32394 0.0
H1031 H 0.43726 0.90378 0.28647 0.0
H1032 H 0.45911 0.83723 0.24963 0.0
H1033 H 0.48562 0.81074 0.23469 0.0
H1034 H 0.51182 0.86003 0.1917 0.0
H1035 H 0.48563 0.88689 0.20661 0.0
C1036 C 0.36887 0.91552 0.20549 0.0
C1037 C 0.37414 0.93054 0.18872 0.0
C1038 C 0.38518 0.90676 0.21902 0.0
C1039 C 0.4071 0.91265 0.21593 0.0
C1040 C 0.4126 0.92686 0.19859 0.0
C1041 C 0.39622 0.9359 0.18521 0.0
C1042 C 0.42401 0.90465 0.23154 0.0
C1043 C 0.44016 0.89033 0.22379 0.0
C1044 C 0.42319 0.90989 0.25434 0.0
C1045 C 0.40725 0.926 0.26314 0.0
C1046 C 0.40579 0.94706 0.25393 0.0
C1047 C 0.39032 0.96193 0.2618 0.0
C1048 C 0.37642 0.95609 0.27913 0.0
C1049 C 0.37797 0.93534 0.28862 0.0
C1050 C 0.39331 0.92033 0.2807 0.0
C1051 C 0.50503 0.86519 0.29074 0.0
C1052 C 0.49622 0.85285 0.30824 0.0
C1053 C 0.4913 0.87589 0.27567 0.0
C1054 C 0.46849 0.87444 0.27777 0.0
C1055 C 0.45968 0.86252 0.29548 0.0
C1056 C 0.47337 0.85179 0.31049 0.0
C1057 C 0.45369 0.88495 0.26138 0.0
C1058 C 0.43791 0.89981 0.26899 0.0
C1059 C 0.4549 0.88027 0.23844 0.0
C1060 C 0.47059 0.86412 0.22941 0.0
C1061 C 0.47064 0.84246 0.23712 0.0
C1062 C 0.48559 0.82737 0.22863 0.0
C1063 C 0.50044 0.83372 0.2123 0.0
C1064 C 0.50033 0.85515 0.20438 0.0
C1065 C 0.48544 0.87031 0.21283 0.0
H1066 H 0.51199 0.82201 0.20575 0.0
H1067 H 0.36448 0.96765 0.28522 0.0
H1068 H 0.86068 0.48908 0.72021 0.0
H1069 H 0.88105 0.51366 0.74441 0.0
H1070 H 0.8254 0.5567 0.74775 0.0
H1071 H 0.80516 0.53258 0.72295 0.0
H1072 H 0.86208 0.5793 0.74101 0.0
H1073 H 0.83916 0.52278 0.79119 0.0
H1074 H 0.8353 0.48488 0.80435 0.0
H1075 H 0.90507 0.47808 0.80657 0.0
H1076 H 0.90935 0.51588 0.79315 0.0
H1077 H 0.89936 0.64646 0.82812 0.0
H1078 H 0.8778 0.62002 0.80712 0.0
H1079 H 0.93356 0.57714 0.80351 0.0
H1080 H 0.95517 0.60334 0.82478 0.0
H1081 H 0.89676 0.5542 0.8108 0.0
H1082 H 0.92015 0.60953 0.76005 0.0
H1083 H 0.92492 0.64711 0.74625 0.0
H1084 H 0.85532 0.65563 0.74421 0.0
H1085 H 0.85015 0.61818 0.75831 0.0
C1086 C 0.85278 0.50383 0.72592 0.0
C1087 C 0.83121 0.50879 0.71957 0.0
C1088 C 0.8644 0.51778 0.73999 0.0
C1089 C 0.85468 0.53693 0.74815 0.0
C1090 C 0.83322 0.54198 0.74176 0.0
C1091 C 0.82159 0.52805 0.72769 0.0
C1092 C 0.86703 0.55198 0.7629 0.0
C1093 C 0.86936 0.57387 0.75644 0.0
C1094 C 0.8771 0.54479 0.78274 0.0
C1095 C 0.87457 0.5221 0.79096 0.0
C1096 C 0.85368 0.51316 0.79433 0.0
C1097 C 0.85141 0.4917 0.80186 0.0
C1098 C 0.86993 0.47906 0.80623 0.0
C1099 C 0.89074 0.48788 0.80315 0.0
C1100 C 0.8931 0.50933 0.7956 0.0
C1101 C 0.90701 0.63132 0.82306 0.0
C1102 C 0.92906 0.62711 0.82802 0.0
C1103 C 0.89467 0.61625 0.81095 0.0
C1104 C 0.90415 0.59673 0.80341 0.0
C1105 C 0.92591 0.59211 0.80908 0.0
C1106 C 0.93825 0.60715 0.82122 0.0
C1107 C 0.89164 0.58153 0.78897 0.0
C1108 C 0.88937 0.55963 0.79542 0.0
C1109 C 0.88172 0.58865 0.76904 0.0
C1110 C 0.88477 0.61113 0.76045 0.0
C1111 C 0.90587 0.61948 0.75682 0.0
C1112 C 0.90864 0.64074 0.74892 0.0
C1113 C 0.89043 0.65377 0.74441 0.0
C1114 C 0.86941 0.64553 0.74774 0.0
C1115 C 0.86655 0.62428 0.75567 0.0
H1116 H 0.89261 0.67023 0.7383 0.0
H1117 H 0.86814 0.46244 0.81206 0.0
H1118 H 0.61197 0.08291 0.17176 0.0
H1119 H 0.58589 0.09925 0.19758 0.0
H1120 H 0.63893 0.12965 0.23301 0.0
H1121 H 0.66514 0.11349 0.20719 0.0
H1122 H 0.61008 0.10677 0.26035 0.0
H1123 H 0.60657 0.16018 0.20173 0.0
H1124 H 0.60127 0.17252 0.16324 0.0
H1125 H 0.53596 0.147 0.16361 0.0
H1126 H 0.54098 0.13423 0.20202 0.0
H1127 H 0.55424 0.17861 0.33123 0.0
H1128 H 0.57748 0.16175 0.30344 0.0
H1129 H 0.5205 0.14059 0.26735 0.0
H1130 H 0.49698 0.15827 0.2948 0.0
H1131 H 0.54975 0.15687 0.23962 0.0
H1132 H 0.55162 0.10439 0.29747 0.0
H1133 H 0.55604 0.08998 0.33531 0.0
H1134 H 0.62297 0.11086 0.33594 0.0
H1135 H 0.61887 0.12571 0.29821 0.0
C1136 C 0.61809 0.09329 0.18488 0.0
C1137 C 0.64066 0.09689 0.1874 0.0
C1138 C 0.60314 0.10264 0.19961 0.0
C1139 C 0.61046 0.11568 0.21721 0.0
C1140 C 0.63294 0.11962 0.21955 0.0
C1141 C 0.64788 0.11046 0.2047 0.0
C1142 C 0.5948 0.12446 0.23374 0.0
C1143 C 0.59707 0.11798 0.2559 0.0
C1144 C 0.57728 0.13833 0.22774 0.0
C1145 C 0.57423 0.14605 0.20467 0.0
C1146 C 0.59114 0.15703 0.19354 0.0
C1147 C 0.58818 0.16414 0.17175 0.0
C1148 C 0.56831 0.16049 0.16096 0.0
C1149 C 0.55135 0.14978 0.17197 0.0
C1150 C 0.55424 0.14262 0.19375 0.0
C1151 C 0.54654 0.17054 0.31735 0.0
C1152 C 0.52364 0.16995 0.31529 0.0
C1153 C 0.55992 0.16064 0.30155 0.0
C1154 C 0.55079 0.14964 0.28339 0.0
C1155 C 0.52794 0.14891 0.28125 0.0
C1156 C 0.5145 0.15888 0.29708 0.0
C1157 C 0.56523 0.1395 0.26641 0.0
C1158 C 0.56271 0.14563 0.24413 0.0
C1159 C 0.58238 0.12505 0.27225 0.0
C1160 C 0.58486 0.11637 0.29507 0.0
C1161 C 0.56723 0.10611 0.30575 0.0
C1162 C 0.56969 0.09782 0.32717 0.0
C1163 C 0.58976 0.09955 0.33804 0.0
C1164 C 0.60742 0.10956 0.32751 0.0
C1165 C 0.60504 0.1179 0.3061 0.0
H1166 H 0.59164 0.09311 0.35462 0.0
H1167 H 0.56605 0.16601 0.14409 0.0
H1168 H 0.65521 1.00149 0.8148 0.0
H1169 H 0.63768 0.02587 0.78823 0.0
H1170 H 0.69939 0.03544 0.75528 0.0
H1171 H 0.71703 0.01089 0.78163 0.0
H1172 H 0.6795 0.07358 0.76324 0.0
H1173 H 0.65878 1.00456 0.73214 0.0
H1174 H 0.64278 0.96764 0.73208 0.0
H1175 H 0.58017 0.99429 0.74917 0.0
H1176 H 0.59587 0.03138 0.7497 0.0
H1177 H 0.6403 0.13424 0.67277 0.0
H1178 H 0.65629 0.10425 0.69398 0.0
H1179 H 0.59459 0.09367 0.72668 0.0
H1180 H 0.57834 0.12338 0.7052 0.0
H1181 H 0.61431 0.05528 0.71808 0.0
H1182 H 0.63465 0.12329 0.75152 0.0
H1183 H 0.64992 0.16051 0.75245 0.0
H1184 H 0.71244 0.13577 0.73228 0.0
H1185 H 0.69745 0.09841 0.73091 0.0
C1186 C 0.66505 0.00846 0.80173 0.0
C1187 C 0.68763 1.00417 0.80048 0.0
C1188 C 0.65496 0.02244 0.78651 0.0
C1189 C 0.66717 0.03238 0.76962 0.0
C1190 C 0.68963 0.028 0.76818 0.0
C1191 C 0.69973 0.01401 0.78337 0.0
C1192 C 0.65681 0.04825 0.75418 0.0
C1193 C 0.66548 0.06943 0.75309 0.0
C1194 C 0.63807 0.04307 0.74144 0.0
C1195 C 0.62858 0.02076 0.74118 0.0
C1196 C 0.64165 1.00255 0.73609 0.0
C1197 C 0.63262 0.98158 0.73594 0.0
C1198 C 0.61049 0.97861 0.74069 0.0
C1199 C 0.59732 0.99661 0.74554 0.0
C1200 C 0.60628 0.01761 0.74576 0.0
C1201 C 0.63004 0.12539 0.68427 0.0
C1202 C 0.60808 0.13138 0.68742 0.0
C1203 C 0.63923 0.10827 0.69646 0.0
C1204 C 0.62676 0.09694 0.71224 0.0
C1205 C 0.60457 0.1022 0.71466 0.0
C1206 C 0.59532 0.11926 0.70239 0.0
C1207 C 0.63716 0.0805 0.72705 0.0
C1208 C 0.62844 0.05932 0.72813 0.0
C1209 C 0.65577 0.08566 0.73996 0.0
C1210 C 0.66487 0.10809 0.74089 0.0
C1211 C 0.65161 0.12581 0.74712 0.0
C1212 C 0.66022 0.14693 0.74775 0.0
C1213 C 0.68212 0.15051 0.74237 0.0
C1214 C 0.69547 0.13297 0.73641 0.0
C1215 C 0.68693 0.11182 0.73571 0.0
H1216 H 0.68876 0.16688 0.74287 0.0
H1217 H 0.60353 0.96237 0.74055 0.0
H1218 H 0.16651 0.37694 0.33522 0.0
H1219 H 0.13667 0.36216 0.31296 0.0
H1220 H 0.11076 0.42701 0.30385 0.0
H1221 H 0.14048 0.44196 0.32632 0.0
H1222 H 0.07815 0.39739 0.31061 0.0
H1223 H 0.14064 0.40404 0.26359 0.0
H1224 H 0.17904 0.3989 0.25246 0.0
H1225 H 0.17036 0.32936 0.25331 0.0
H1226 H 0.13197 0.33408 0.26476 0.0
H1227 H 0.0124 0.37106 0.21589 0.0
H1228 H 0.03874 0.38712 0.24161 0.0
H1229 H 0.06756 0.32374 0.25221 0.0
H1230 H 0.04124 0.30756 0.22676 0.0
H1231 H 0.09834 0.35391 0.24443 0.0
H1232 H 0.03527 0.34774 0.29149 0.0
H1233 H 0.99682 0.35354 0.30207 0.0
H1234 H 1.00639 0.42294 0.30028 0.0
H1235 H 0.04486 0.41756 0.28939 0.0
C1236 C 0.15437 0.38807 0.32869 0.0
C1237 C 0.15602 0.41067 0.33246 0.0
C1238 C 0.13734 0.37959 0.31588 0.0
C1239 C 0.12165 0.3935 0.30642 0.0
C1240 C 0.12271 0.41596 0.3109 0.0
C1241 C 0.13975 0.42448 0.32374 0.0
C1242 C 0.10473 0.38467 0.29116 0.0
C1243 C 0.08255 0.3881 0.29599 0.0
C1244 C 0.11043 0.37233 0.2722 0.0
C1245 C 0.13349 0.36942 0.26525 0.0
C1246 C 0.14697 0.38765 0.26158 0.0
C1247 C 0.16872 0.38481 0.25518 0.0
C1248 C 0.17715 0.36381 0.25224 0.0
C1249 C 0.16382 0.34561 0.25563 0.0
C1250 C 0.14206 0.34836 0.26206 0.0
C1251 C 0.02413 0.36047 0.22389 0.0
C1252 C 0.02467 0.33797 0.21911 0.0
C1253 C 0.03922 0.3697 0.2386 0.0
C1254 C 0.0551 0.35663 0.24895 0.0
C1255 C 0.05555 0.33418 0.24436 0.0
C1256 C 0.0405 0.32495 0.22969 0.0
C1257 C 0.07172 0.36633 0.26402 0.0
C1258 C 0.0939 0.36315 0.25907 0.0
C1259 C 0.06598 0.37898 0.28276 0.0
C1260 C 0.04289 0.38225 0.2894 0.0
C1261 C 0.02913 0.36424 0.29318 0.0
C1262 C 1.00734 0.36745 0.29926 0.0
C1263 C 0.99915 0.3886 0.30178 0.0
C1264 C 0.01275 0.40657 0.29828 0.0
C1265 C 0.03456 0.40345 0.29218 0.0
H1266 H 0.98227 0.39105 0.30649 0.0
H1267 H 0.194 0.36165 0.24728 0.0
H1268 H 0.36353 0.01587 0.80826 0.0
H1269 H 0.38131 0.992 0.78111 0.0
H1270 H 0.3222 0.95403 0.77575 0.0
H1271 H 0.30451 0.97765 0.80277 0.0
H1272 H 0.35599 0.92818 0.78208 0.0
H1273 H 0.34001 0.98973 0.73502 0.0
H1274 H 0.34137 0.02823 0.72325 0.0
H1275 H 0.41126 0.02475 0.71861 0.0
H1276 H 0.41037 0.98634 0.73084 0.0
H1277 H 0.37486 0.86205 0.68931 0.0
H1278 H 0.36054 0.89109 0.7129 0.0
H1279 H 0.4247 0.91975 0.71713 0.0
H1280 H 0.43924 0.89072 0.69346 0.0
H1281 H 0.39175 0.95106 0.71217 0.0
H1282 H 0.40802 0.89012 0.75875 0.0
H1283 H 0.40729 0.8516 0.77053 0.0
H1284 H 0.33744 0.85429 0.77626 0.0
H1285 H 0.33772 0.89277 0.76418 0.0
C1286 C 0.35425 1.00262 0.80104 0.0
C1287 C 0.33265 0.99852 0.80788 0.0
C1288 C 0.36443 0.98897 0.78552 0.0
C1289 C 0.35311 0.97115 0.77637 0.0
C1290 C 0.33136 0.96752 0.7827 0.0
C1291 C 0.32127 0.98102 0.79823 0.0
C1292 C 0.36397 0.95548 0.76109 0.0
C1293 C 0.36356 0.93322 0.76667 0.0
C1294 C 0.37459 0.96206 0.74134 0.0
C1295 C 0.37514 0.9852 0.7341 0.0
C1296 C 0.3557 0.99722 0.73172 0.0
C1297 C 0.35638 0.01903 0.72493 0.0
C1298 C 0.37639 0.02893 0.72021 0.0
C1299 C 0.39576 0.01704 0.72225 0.0
C1300 C 0.39518 0.99527 0.72916 0.0
C1301 C 0.38593 0.87461 0.69506 0.0
C1302 C 0.40824 0.87394 0.68959 0.0
C1303 C 0.37771 0.89119 0.7086 0.0
C1304 C 0.3916 0.90745 0.71698 0.0
C1305 C 0.41371 0.90736 0.71087 0.0
C1306 C 0.42199 0.89069 0.6974 0.0
C1307 C 0.38314 0.92385 0.73296 0.0
C1308 C 0.38418 0.94614 0.72761 0.0
C1309 C 0.37312 0.91739 0.753 0.0
C1310 C 0.37288 0.89427 0.76035 0.0
C1311 C 0.39249 0.88245 0.76234 0.0
C1312 C 0.39216 0.86063 0.7691 0.0
C1313 C 0.37233 0.85049 0.77409 0.0
C1314 C 0.35279 0.86216 0.77237 0.0
C1315 C 0.35302 0.88398 0.76558 0.0
H1316 H 0.3721 0.83359 0.77933 0.0
H1317 H 0.37689 0.04582 0.71499 0.0
H1318 H 0.85133 0.61401 0.31673 0.0
H1319 H 0.87851 0.63007 0.29206 0.0
H1320 H 0.92964 0.59504 0.32597 0.0
H1321 H 0.90246 0.57863 0.35072 0.0
H1322 H 0.94028 0.63964 0.31507 0.0
H1323 H 0.91418 0.57443 0.28077 0.0
H1324 H 0.88605 0.54866 0.26776 0.0
H1325 H 0.86087 0.59731 0.22337 0.0
H1326 H 0.88866 0.62351 0.23638 0.0
H1327 H 0.01844 0.65843 0.22932 0.0
H1328 H 0.99531 0.64044 0.2568 0.0
H1329 H 0.93785 0.66437 0.22331 0.0
H1330 H 0.96077 0.6817 0.19541 0.0
H1331 H 0.93244 0.62284 0.23508 0.0
H1332 H 0.95765 0.6886 0.27097 0.0
H1333 H 0.98539 0.71443 0.28473 0.0
H1334 H 0.01239 0.66447 0.32646 0.0
H1335 H 0.98496 0.63825 0.31272 0.0
C1336 C 0.86837 0.6099 0.31919 0.0
C1337 C 0.8747 0.59492 0.33565 0.0
C1338 C 0.88388 0.61906 0.30501 0.0
C1339 C 0.90604 0.61356 0.30705 0.0
C1340 C 0.9126 0.59945 0.32411 0.0
C1341 C 0.89704 0.59007 0.33819 0.0
C1342 C 0.92206 0.62175 0.29061 0.0
C1343 C 0.93882 0.63573 0.29761 0.0
C1344 C 0.91994 0.6168 0.26783 0.0
C1345 C 0.90338 0.60101 0.2597 0.0
C1346 C 0.90254 0.5797 0.26836 0.0
C1347 C 0.88667 0.565 0.26097 0.0
C1348 C 0.87164 0.57136 0.24479 0.0
C1349 C 0.87251 0.59242 0.23592 0.0
C1350 C 0.88833 0.60719 0.24328 0.0
C1351 C 1.00089 0.65969 0.22764 0.0
C1352 C 0.99153 0.67168 0.21015 0.0
C1353 C 0.98767 0.64955 0.24351 0.0
C1354 C 0.96481 0.65127 0.24232 0.0
C1355 C 0.95543 0.66287 0.22467 0.0
C1356 C 0.96861 0.67297 0.2088 0.0
C1357 C 0.95054 0.64114 0.25941 0.0
C1358 C 0.93406 0.6267 0.25253 0.0
C1359 C 0.95298 0.64565 0.2823 0.0
C1360 C 0.96941 0.66141 0.29063 0.0
C1361 C 0.96961 0.68308 0.28295 0.0
C1362 C 0.98526 0.6978 0.29077 0.0
C1363 C 1.00069 0.69108 0.30641 0.0
C1364 C 1.00046 0.66964 0.31432 0.0
C1365 C 0.98486 0.65485 0.30653 0.0
H1366 H 0.01279 0.7025 0.31245 0.0
H1367 H 0.85936 0.55996 0.2391 0.0
H1368 H 0.65667 0.0138 0.21196 0.0
H1369 H 0.64004 0.98874 0.23843 0.0
H1370 H 0.70358 0.97372 0.26519 0.0
H1371 H 0.72037 0.99903 0.23911 0.0
H1372 H 0.68015 0.93705 0.25642 0.0
H1373 H 0.66829 1.00512 0.29395 0.0
H1374 H 0.65546 0.04309 0.29772 0.0
H1375 H 0.58961 0.02255 0.28493 0.0
H1376 H 0.60209 0.98447 0.28076 0.0
H1377 H 0.64492 0.874 0.34735 0.0
H1378 H 0.66146 0.90333 0.32565 0.0
H1379 H 0.59793 0.92159 0.30089 0.0
H1380 H 0.5812 0.89259 0.32288 0.0
H1381 H 0.62155 0.95723 0.30929 0.0
H1382 H 0.63273 0.89023 0.26996 0.0
H1383 H 0.6447 0.85211 0.26502 0.0
H1384 H 0.7108 0.87059 0.27963 0.0
H1385 H 0.69916 0.9088 0.28497 0.0
C1386 C 0.66716 1.00549 0.22365 0.0
C1387 C 0.68997 0.00851 0.22322 0.0
C1388 C 0.65757 0.99109 0.23879 0.0
C1389 C 0.67054 0.97942 0.25389 0.0
C1390 C 0.69325 0.9825 0.25365 0.0
C1391 C 0.70284 0.99694 0.2386 0.0
C1392 C 0.66058 0.96334 0.26932 0.0
C1393 C 0.66759 0.94155 0.26823 0.0
C1394 C 0.64372 0.96906 0.28428 0.0
C1395 C 0.63617 0.99195 0.28682 0.0
C1396 C 0.6511 0.00871 0.29175 0.0
C1397 C 0.64388 0.03026 0.294 0.0
C1398 C 0.62174 0.03524 0.29151 0.0
C1399 C 0.60676 0.01867 0.28682 0.0
C1400 C 0.6139 0.9971 0.28453 0.0
C1401 C 0.63442 0.88437 0.33746 0.0
C1402 C 0.61174 0.8808 0.33675 0.0
C1403 C 0.64392 0.9011 0.32497 0.0
C1404 C 0.63099 0.91447 0.31131 0.0
C1405 C 0.60826 0.91148 0.31124 0.0
C1406 C 0.59873 0.89482 0.3238 0.0
C1407 C 0.64122 0.93096 0.29646 0.0
C1408 C 0.63421 0.95278 0.29757 0.0
C1409 C 0.65796 0.92527 0.28135 0.0
C1410 C 0.66503 0.90232 0.2781 0.0
C1411 C 0.64979 0.88613 0.27229 0.0
C1412 C 0.65652 0.86452 0.26939 0.0
C1413 C 0.67849 0.85892 0.27207 0.0
C1414 C 0.69378 0.87495 0.2776 0.0
C1415 C 0.68713 0.89659 0.28055 0.0
H1416 H 0.68367 0.84218 0.26981 0.0
H1417 H 0.61619 0.05193 0.29327 0.0
H1418 H 0.90259 0.43474 0.66629 0.0
H1419 H 0.92869 0.41757 0.69162 0.0
H1420 H 0.87574 0.38515 0.72523 0.0
H1421 H 0.84954 0.40214 0.69995 0.0
H1422 H 0.9037 0.40727 0.75376 0.0
H1423 H 0.90917 0.35635 0.6931 0.0
H1424 H 0.91536 0.34564 0.65427 0.0
H1425 H 0.98021 0.37216 0.65701 0.0
H1426 H 0.97429 0.38331 0.69579 0.0
H1427 H 0.95983 0.33477 0.82351 0.0
H1428 H 0.9367 0.35154 0.7956 0.0
H1429 H 0.99375 0.37466 0.76096 0.0
H1430 H 0.0172 0.35697 0.78844 0.0
H1431 H 0.96526 0.35909 0.73226 0.0
H1432 H 0.9614 0.40933 0.79207 0.0
H1433 H 0.95605 0.42214 0.83037 0.0
H1434 H 0.88958 0.39986 0.82888 0.0
H1435 H 0.89462 0.3866 0.79067 0.0
C1436 C 0.89651 0.42372 0.67887 0.0
C1437 C 0.87395 0.41984 0.68109 0.0
C1438 C 0.91146 0.4139 0.69332 0.0
C1439 C 0.90417 0.40007 0.71031 0.0
C1440 C 0.88172 0.39579 0.71225 0.0
C1441 C 0.86678 0.40544 0.6977 0.0
C1442 C 0.91975 0.39094 0.72677 0.0
C1443 C 0.91699 0.39648 0.74912 0.0
C1444 C 0.93761 0.37761 0.72057 0.0
C1445 C 0.9412 0.37087 0.69728 0.0
C1446 C 0.92468 0.36008 0.68537 0.0
C1447 C 0.92815 0.35388 0.66338 0.0
C1448 C 0.94814 0.35827 0.65316 0.0
C1449 C 0.96472 0.36881 0.66493 0.0
C1450 C 0.96132 0.37505 0.68693 0.0
C1451 C 0.9676 0.3432 0.80991 0.0
C1452 C 0.99052 0.34437 0.80833 0.0
C1453 C 0.95426 0.35307 0.79403 0.0
C1454 C 0.96341 0.36467 0.77628 0.0
C1455 C 0.98627 0.36588 0.77455 0.0
C1456 C 0.99968 0.35589 0.79042 0.0
C1457 C 0.94901 0.37511 0.75941 0.0
C1458 C 0.95203 0.36991 0.73696 0.0
C1459 C 0.93151 0.38903 0.76547 0.0
C1460 C 0.92846 0.39677 0.78856 0.0
C1461 C 0.9457 0.40697 0.79997 0.0
C1462 C 0.94271 0.41435 0.82166 0.0
C1463 C 0.92251 0.41177 0.83207 0.0
C1464 C 0.90524 0.40182 0.8208 0.0
C1465 C 0.90815 0.39438 0.79913 0.0
H1466 H 0.92022 0.41752 0.84885 0.0
H1467 H 0.9508 0.35346 0.63613 0.0
H1468 H 0.41032 0.15594 0.32103 0.0
H1469 H 0.39065 0.12909 0.29891 0.0
H1470 H 0.41845 0.0771 0.33804 0.0
H1471 H 0.43877 0.10396 0.3599 0.0
H1472 H 0.41946 0.06597 0.29623 0.0
H1473 H 0.36408 0.09306 0.34397 0.0
H1474 H 0.34172 0.12063 0.36319 0.0
H1475 H 0.31826 0.14456 0.30073 0.0
H1476 H 0.34072 0.11732 0.2811 0.0
H1477 H 0.34573 0.99017 0.24317 0.0
H1478 H 0.36527 0.01159 0.27117 0.0
H1479 H 0.34709 0.07093 0.2374 0.0
H1480 H 0.32766 0.04977 0.20957 0.0
H1481 H 0.34033 0.07459 0.28089 0.0
H1482 H 0.399 0.04805 0.23371 0.0
H1483 H 0.42093 0.0193 0.21574 0.0
H1484 H 0.43723 0.99251 0.27933 0.0
H1485 H 0.41511 0.02092 0.29767 0.0
C1486 C 0.41217 0.13881 0.32507 0.0
C1487 C 0.42605 0.13214 0.34235 0.0
C1488 C 0.40082 0.12343 0.31243 0.0
C1489 C 0.40273 0.10101 0.31699 0.0
C1490 C 0.41663 0.09428 0.33421 0.0
C1491 C 0.42817 0.10967 0.34676 0.0
C1492 C 0.39052 0.08473 0.30343 0.0
C1493 C 0.40207 0.06765 0.2932 0.0
C1494 C 0.36783 0.08685 0.29933 0.0
C1495 C 0.35422 0.10323 0.31106 0.0
C1496 C 0.35427 0.10429 0.33432 0.0
C1497 C 0.34156 0.11985 0.34529 0.0
C1498 C 0.32861 0.13437 0.33319 0.0
C1499 C 0.32831 0.13332 0.31008 0.0
C1500 C 0.341 0.1178 0.29903 0.0
C1501 C 0.34604 1.00776 0.24163 0.0
C1502 C 0.33499 0.01823 0.22413 0.0
C1503 C 0.35721 0.02 0.25766 0.0
C1504 C 0.35774 0.0429 0.25636 0.0
C1505 C 0.3468 0.0533 0.23887 0.0
C1506 C 0.33561 0.04115 0.22296 0.0
C1507 C 0.36939 0.05634 0.27317 0.0
C1508 C 0.35768 0.07282 0.2841 0.0
C1509 C 0.39184 0.05347 0.27808 0.0
C1510 C 0.40524 0.03649 0.26704 0.0
C1511 C 0.40714 0.03594 0.24385 0.0
C1512 C 0.41963 0.01973 0.23361 0.0
C1513 C 0.43048 1.0041 0.24639 0.0
C1514 C 0.42887 1.00466 0.26946 0.0
C1515 C 0.41634 0.0208 0.27978 0.0
H1516 H 0.4401 0.99153 0.23843 0.0
H1517 H 0.31878 0.1464 0.34171 0.0
H1518 H 0.11706 0.56824 0.67595 0.0
H1519 H 0.08996 0.58744 0.69835 0.0
H1520 H 0.1389 0.63415 0.71819 0.0
H1521 H 0.16619 0.61482 0.69609 0.0
H1522 H 0.11714 0.61982 0.75313 0.0
H1523 H 0.09736 0.64754 0.6817 0.0
H1524 H 0.08688 0.64543 0.64234 0.0
H1525 H 0.02905 0.60971 0.65971 0.0
H1526 H 0.03934 0.61134 0.69917 0.0
H1527 H 0.04817 0.69548 0.80596 0.0
H1528 H 0.07256 0.67895 0.77883 0.0
H1529 H 0.02404 0.63003 0.76431 0.0
H1530 H 0.99954 0.64633 0.79175 0.0
H1531 H 0.04486 0.64534 0.72638 0.0
H1532 H 0.06503 0.61722 0.79762 0.0
H1533 H 0.07538 0.61959 0.837 0.0
H1534 H 0.13264 0.65623 0.8197 0.0
H1535 H 0.12246 0.65436 0.78021 0.0
C1536 C 0.12203 0.58274 0.68486 0.0
C1537 C 0.14385 0.58995 0.68422 0.0
C1538 C 0.10646 0.59377 0.69762 0.0
C1539 C 0.11231 0.61236 0.70988 0.0
C1540 C 0.13398 0.61984 0.70891 0.0
C1541 C 0.14956 0.6088 0.69619 0.0
C1542 C 0.09619 0.62329 0.72467 0.0
C1543 C 0.10149 0.6257 0.74715 0.0
C1544 C 0.07546 0.63041 0.71709 0.0
C1545 C 0.06924 0.62937 0.69337 0.0
C1546 C 0.0825 0.63907 0.67711 0.0
C1547 C 0.07658 0.63799 0.65478 0.0
C1548 C 0.05734 0.62739 0.64852 0.0
C1549 C 0.04396 0.61789 0.66458 0.0
C1550 C 0.04982 0.6189 0.68693 0.0
C1551 C 0.04264 0.68118 0.79709 0.0
C1552 C 0.02194 0.6721 0.80134 0.0
C1553 C 0.0566 0.67179 0.78149 0.0
C1554 C 0.05027 0.65306 0.76976 0.0
C1555 C 0.02928 0.64447 0.77319 0.0
C1556 C 0.01526 0.65385 0.78887 0.0
C1557 C 0.06597 0.64202 0.75468 0.0
C1558 C 0.06056 0.6395 0.73224 0.0
C1559 C 0.08663 0.63478 0.76226 0.0
C1560 C 0.09287 0.63583 0.78598 0.0
C1561 C 0.07974 0.62593 0.80223 0.0
C1562 C 0.08559 0.62716 0.82457 0.0
C1563 C 0.10462 0.6381 0.83085 0.0
C1564 C 0.11789 0.64779 0.8148 0.0
C1565 C 0.1121 0.64663 0.79244 0.0
H1566 H 0.10913 0.63903 0.84816 0.0
H1567 H 0.05277 0.62658 0.63123 0.0
H1568 H 0.19403 0.52137 0.60714 0.0
H1569 H 0.19228 0.50246 0.57161 0.0
H1570 H 0.20649 0.5627 0.53766 0.0
H1571 H 0.20825 0.58186 0.57325 0.0
H1572 H 0.17361 0.53923 0.51715 0.0
H1573 H 0.24602 0.52576 0.54456 0.0
H1574 H 0.27343 0.51396 0.57199 0.0
H1575 H 0.24638 0.44931 0.5717 0.0
H1576 H 0.21859 0.46082 0.54448 0.0
H1577 H 0.20444 0.49655 0.41293 0.0
H1578 H 0.20374 0.51471 0.44883 0.0
H1579 H 0.1925 0.45291 0.48103 0.0
H1580 H 0.19336 0.43446 0.44501 0.0
H1581 H 0.22298 0.47654 0.50286 0.0
H1582 H 0.15114 0.48938 0.47499 0.0
H1583 H 0.12333 0.50094 0.44788 0.0
H1584 H 0.1486 0.56628 0.44931 0.0
H1585 H 0.17679 0.55505 0.47622 0.0
C1586 C 0.1967 0.53069 0.59214 0.0
C1587 C 0.20138 0.55317 0.59311 0.0
C1588 C 0.19577 0.51979 0.57181 0.0
C1589 C 0.1995 0.53108 0.55195 0.0
C1590 C 0.20361 0.55363 0.55277 0.0
C1591 C 0.20466 0.56455 0.57315 0.0
C1592 C 0.19943 0.51926 0.5304 0.0
C1593 C 0.1846 0.52571 0.51391 0.0
C1594 C 0.21334 0.50121 0.52636 0.0
C1595 C 0.23009 0.49422 0.54265 0.0
C1596 C 0.24581 0.50908 0.55048 0.0
C1597 C 0.26143 0.50243 0.56596 0.0
C1598 C 0.26161 0.48091 0.57363 0.0
C1599 C 0.2462 0.46598 0.56577 0.0
C1600 C 0.23052 0.47255 0.5503 0.0
C1601 C 0.20179 0.48674 0.42761 0.0
C1602 C 0.19889 0.46399 0.42601 0.0
C1603 C 0.20129 0.49721 0.44816 0.0
C1604 C 0.19779 0.48525 0.46767 0.0
C1605 C 0.19515 0.4625 0.46621 0.0
C1606 C 0.1956 0.45198 0.44559 0.0
C1607 C 0.19721 0.49655 0.48953 0.0
C1608 C 0.21193 0.49002 0.50609 0.0
C1609 C 0.18314 0.51448 0.49365 0.0
C1610 C 0.16622 0.52131 0.47747 0.0
C1611 C 0.15089 0.50617 0.46939 0.0
C1612 C 0.13504 0.51268 0.45408 0.0
C1613 C 0.13424 0.53432 0.44683 0.0
C1614 C 0.14926 0.54952 0.45492 0.0
C1615 C 0.16517 0.5431 0.47021 0.0
H1616 H 0.12194 0.53932 0.43498 0.0
H1617 H 0.27372 0.47579 0.58562 0.0
H1618 H 0.53251 0.87761 0.42556 0.0
H1619 H 0.51734 0.8726 0.46267 0.0
H1620 H 0.53723 0.80508 0.46182 0.0
H1621 H 0.55255 0.80998 0.42471 0.0
H1622 H 0.49411 0.81056 0.47492 0.0
H1623 H 0.56438 0.84021 0.4933 0.0
H1624 H 0.59448 0.86687 0.49159 0.0
H1625 H 0.55163 0.91721 0.51525 0.0
H1626 H 0.52117 0.8909 0.5168 0.0
H1627 H 0.47624 0.78475 0.58789 0.0
H1628 H 0.49098 0.79078 0.5509 0.0
H1629 H 0.47628 0.85944 0.55615 0.0
H1630 H 0.46184 0.8536 0.59348 0.0
H1631 H 0.51632 0.85398 0.54048 0.0
H1632 H 0.44613 0.82504 0.52251 0.0
H1633 H 0.41548 0.79898 0.52389 0.0
H1634 H 0.45711 0.74822 0.49895 0.0
H1635 H 0.4881 0.77391 0.49771 0.0
C1636 C 0.53387 0.86174 0.43334 0.0
C1637 C 0.54379 0.8442 0.42214 0.0
C1638 C 0.52521 0.85891 0.45458 0.0
C1639 C 0.52618 0.83847 0.46507 0.0
C1640 C 0.53628 0.82099 0.45405 0.0
C1641 C 0.54514 0.82386 0.43288 0.0
C1642 C 0.51604 0.83519 0.48721 0.0
C1643 C 0.49917 0.81983 0.48934 0.0
C1644 C 0.52216 0.84777 0.50586 0.0
C1645 C 0.54044 0.86363 0.50494 0.0
C1646 C 0.56132 0.85701 0.49794 0.0
C1647 C 0.57846 0.87205 0.49704 0.0
C1648 C 0.57496 0.89374 0.50325 0.0
C1649 C 0.55431 0.90042 0.51042 0.0
C1650 C 0.53711 0.88544 0.51133 0.0
C1651 C 0.4759 0.80113 0.58114 0.0
C1652 C 0.4678 0.81868 0.59371 0.0
C1653 C 0.4843 0.80454 0.55989 0.0
C1654 C 0.48461 0.82554 0.55057 0.0
C1655 C 0.47625 0.84308 0.56295 0.0
C1656 C 0.46788 0.83969 0.58427 0.0
C1657 C 0.49438 0.82926 0.52827 0.0
C1658 C 0.51119 0.84472 0.52608 0.0
C1659 C 0.4881 0.81686 0.50951 0.0
C1660 C 0.4695 0.80136 0.51022 0.0
C1661 C 0.4488 0.80828 0.51749 0.0
C1662 C 0.43135 0.79358 0.51822 0.0
C1663 C 0.43436 0.77195 0.51157 0.0
C1664 C 0.45481 0.76498 0.50413 0.0
C1665 C 0.47232 0.7796 0.50339 0.0
H1666 H 0.42083 0.7606 0.51213 0.0
H1667 H 0.58825 0.90536 0.50255 0.0
H1668 H 0.81961 0.52713 0.41333 0.0
H1669 H 0.82158 0.5088 0.44907 0.0
H1670 H 0.83022 0.57084 0.48162 0.0
H1671 H 0.82856 0.58943 0.44566 0.0
H1672 H 0.85727 0.5399 0.49901 0.0
H1673 H 0.78103 0.54563 0.48284 0.0
H1674 H 0.74768 0.54193 0.46024 0.0
H1675 H 0.7566 0.47245 0.45781 0.0
H1676 H 0.79019 0.47576 0.48014 0.0
H1677 H 0.83223 0.49697 0.60686 0.0
H1678 H 0.83371 0.51805 0.57247 0.0
H1679 H 0.82372 0.45912 0.53478 0.0
H1680 H 0.82196 0.438 0.56902 0.0
H1681 H 0.79685 0.49054 0.52104 0.0
H1682 H 0.87369 0.48505 0.53664 0.0
H1683 H 0.90703 0.48895 0.55922 0.0
H1684 H 0.89676 0.55817 0.56312 0.0
H1685 H 0.86317 0.55465 0.5408 0.0
C1686 C 0.82196 0.53696 0.42803 0.0
C1687 C 0.82377 0.55982 0.42657 0.0
C1688 C 0.82302 0.52642 0.44852 0.0
C1689 C 0.82572 0.53844 0.46812 0.0
C1690 C 0.82805 0.56122 0.46673 0.0
C1691 C 0.82702 0.57183 0.44617 0.0
C1692 C 0.82575 0.52709 0.48995 0.0
C1693 C 0.84391 0.52936 0.504 0.0
C1694 C 0.8085 0.51304 0.49634 0.0
C1695 C 0.78824 0.51097 0.48301 0.0
C1696 C 0.77597 0.52957 0.47735 0.0
C1697 C 0.75701 0.52755 0.46461 0.0
C1698 C 0.75005 0.50697 0.45755 0.0
C1699 C 0.76202 0.48838 0.46327 0.0
C1700 C 0.78101 0.49032 0.47599 0.0
C1701 C 0.83059 0.48845 0.59125 0.0
C1702 C 0.82694 0.46577 0.59075 0.0
C1703 C 0.8315 0.50054 0.57157 0.0
C1704 C 0.82891 0.49019 0.55097 0.0
C1705 C 0.8257 0.4675 0.55044 0.0
C1706 C 0.82478 0.45542 0.57007 0.0
C1707 C 0.82852 0.50303 0.52999 0.0
C1708 C 0.81021 0.5011 0.51611 0.0
C1709 C 0.8456 0.5174 0.52384 0.0
C1710 C 0.86579 0.51955 0.53725 0.0
C1711 C 0.87843 0.50108 0.54247 0.0
C1712 C 0.8974 0.50323 0.55519 0.0
C1713 C 0.90397 0.52379 0.56265 0.0
C1714 C 0.89162 0.54225 0.55736 0.0
C1715 C 0.87263 0.5402 0.54466 0.0
H1716 H 0.91866 0.52541 0.5725 0.0
H1717 H 0.73537 0.50544 0.44769 0.0
H1718 H 0.46553 0.16412 0.43261 0.0
H1719 H 0.48039 0.15803 0.4698 0.0
H1720 H 0.4952 0.22662 0.47537 0.0
H1721 H 0.48061 0.2328 0.43831 0.0
H1722 H 0.52945 0.20221 0.48802 0.0
H1723 H 0.45226 0.20381 0.50334 0.0
H1724 H 0.41388 0.1924 0.49894 0.0
H1725 H 0.43091 0.12698 0.51777 0.0
H1726 H 0.46946 0.13794 0.522 0.0
H1727 H 0.55321 0.2084 0.60313 0.0
H1728 H 0.53849 0.21282 0.56574 0.0
H1729 H 0.52017 0.14483 0.56477 0.0
H1730 H 0.53425 0.14048 0.60235 0.0
H1731 H 0.48802 0.16781 0.54928 0.0
H1732 H 0.56482 0.16567 0.53458 0.0
H1733 H 0.60345 0.17637 0.5386 0.0
H1734 H 0.58776 0.24163 0.51805 0.0
H1735 H 0.54898 0.23138 0.51419 0.0
C1736 C 0.47175 0.17794 0.44183 0.0
C1737 C 0.47185 0.19896 0.43242 0.0
C1738 C 0.48023 0.17444 0.46312 0.0
C1739 C 0.48888 0.19189 0.47546 0.0
C1740 C 0.48871 0.21289 0.46619 0.0
C1741 C 0.48024 0.2164 0.44498 0.0
C1742 C 0.49864 0.18832 0.4978 0.0
C1743 C 0.5203 0.19492 0.5015 0.0
C1744 C 0.48696 0.17824 0.51524 0.0
C1745 C 0.46378 0.17165 0.51276 0.0
C1746 C 0.44785 0.18695 0.50637 0.0
C1747 C 0.42606 0.18058 0.50394 0.0
C1748 C 0.41997 0.15897 0.50801 0.0
C1749 C 0.43565 0.1437 0.51458 0.0
C1750 C 0.45747 0.14999 0.51702 0.0
C1751 C 0.54624 0.19433 0.59488 0.0
C1752 C 0.54495 0.17408 0.60576 0.0
C1753 C 0.53787 0.19686 0.57343 0.0
C1754 C 0.52836 0.17911 0.56222 0.0
C1755 C 0.52735 0.15881 0.57299 0.0
C1756 C 0.53551 0.15633 0.5945 0.0
C1757 C 0.51887 0.1818 0.5396 0.0
C1758 C 0.49724 0.17503 0.53582 0.0
C1759 C 0.53064 0.1916 0.52203 0.0
C1760 C 0.55396 0.1978 0.5243 0.0
C1761 C 0.56958 0.18234 0.53108 0.0
C1762 C 0.59151 0.18832 0.5333 0.0
C1763 C 0.59804 0.20968 0.52864 0.0
C1764 C 0.58267 0.22509 0.52168 0.0
C1765 C 0.56072 0.21921 0.51946 0.0
H1766 H 0.61503 0.21428 0.53036 0.0
H1767 H 0.40309 0.15406 0.50612 0.0
H1768 H 0.67981 0.02272 0.11015 0.0
H1769 H 0.67623 1.00259 0.0754 0.0
H1770 H 0.67858 0.06304 0.03889 0.0
H1771 H 0.68196 0.08334 0.07359 0.0
H1772 H 0.64855 0.03506 0.02129 0.0
H1773 H 0.72373 0.03212 0.04388 0.0
H1774 H 0.75418 0.02487 0.0696 0.0
H1775 H 0.73614 0.95722 0.07255 0.0
H1776 H 0.70536 0.96413 0.04709 0.0
H1777 H 0.68086 0.99295 0.91593 0.0
H1778 H 0.6774 0.01258 0.95101 0.0
H1779 H 0.67726 0.9514 0.98636 0.0
H1780 H 0.68098 0.93168 0.95141 0.0
H1781 H 0.70511 0.97936 1.00488 0.0
H1782 H 0.63061 0.98211 0.98087 0.0
H1783 H 0.60028 0.9896 0.95507 0.0
H1784 H 0.61711 0.05762 0.95442 0.0
H1785 H 0.64774 0.05049 0.97998 0.0
C1786 C 0.67934 0.03178 0.09476 0.0
C1787 C 0.68135 0.05466 0.09469 0.0
C1788 C 0.67737 0.02023 0.07488 0.0
C1789 C 0.67746 0.03126 0.05449 0.0
C1790 C 0.67853 0.05415 0.0544 0.0
C1791 C 0.68052 0.06574 0.07428 0.0
C1792 C 0.67748 0.01891 0.03326 0.0
C1793 C 0.66103 0.02303 0.01759 0.0
C1794 C 0.69354 1.00292 0.02857 0.0
C1795 C 0.71211 0.99869 0.04377 0.0
C1796 C 0.72616 0.01573 0.05015 0.0
C1797 C 0.74349 0.01168 0.06466 0.0
C1798 C 0.74706 0.99061 0.07275 0.0
C1799 C 0.73333 0.97354 0.0663 0.0
C1800 C 0.71595 0.97751 0.05182 0.0
C1801 C 0.67987 0.98364 0.93114 0.0
C1802 C 0.68123 0.96071 0.93082 0.0
C1803 C 0.6778 0.9949 0.95121 0.0
C1804 C 0.67693 0.98348 0.97137 0.0
C1805 C 0.67792 0.96059 0.97104 0.0
C1806 C 0.67997 0.94932 0.951 0.0
C1807 C 0.67611 0.9954 0.99286 0.0
C1808 C 0.69251 0.99126 1.00858 0.0
C1809 C 0.66002 0.01138 0.99754 0.0
C1810 C 0.64161 0.01573 0.98218 0.0
C1811 C 0.62796 0.99864 0.97508 0.0
C1812 C 0.61069 1.00282 0.96053 0.0
C1813 C 0.60681 0.02406 0.95307 0.0
C1814 C 0.62016 0.04117 0.96019 0.0
C1815 C 0.63746 0.03707 0.97473 0.0
H1816 H 0.59343 0.02727 0.9418 0.0
H1817 H 0.76049 0.9875 0.08398 0.0
H1818 H 0.0184 0.3696 0.92253 0.0
H1819 H 1.00704 0.36831 0.96126 0.0
H1820 H 0.0403 0.3068 0.96945 0.0
H1821 H 0.05204 0.3081 0.93056 0.0
H1822 H 0.99614 0.30752 0.9857 0.0
H1823 H 0.06233 0.34877 0.99254 0.0
H1824 H 0.08817 0.37826 0.98333 0.0
H1825 H 0.04005 0.42622 1.00086 0.0
H1826 H 0.0138 0.39701 1.00988 0.0
H1827 H 0.97848 0.30569 0.10281 0.0
H1828 H 0.99367 0.30374 0.06541 0.0
H1829 H 0.97585 0.37103 0.05434 0.0
H1830 H 0.96141 0.37326 0.09193 0.0
H1831 H 0.01482 0.36533 0.03997 0.0
H1832 H 0.94778 0.3258 0.0305 0.0
H1833 H 0.92039 0.29736 0.03841 0.0
H1834 H 0.96776 0.2475 0.02458 0.0
H1835 H 0.99553 0.27567 0.01685 0.0
C1836 C 0.0235 0.35587 0.93259 0.0
C1837 C 0.03617 0.33897 0.92346 0.0
C1838 C 0.017 0.35518 0.95475 0.0
C1839 C 0.02284 0.33749 0.96827 0.0
C1840 C 0.03562 0.32061 0.9593 0.0
C1841 C 0.04243 0.32145 0.93714 0.0
C1842 C 0.01503 0.33655 0.99157 0.0
C1843 C 1.00051 0.31991 0.99774 0.0
C1844 C 0.02025 0.35308 1.00703 0.0
C1845 C 0.03603 0.37069 1.00171 0.0
C1846 C 0.05719 0.36561 0.99426 0.0
C1847 C 0.07193 0.38227 0.9891 0.0
C1848 C 0.06574 0.4041 0.99146 0.0
C1849 C 0.04481 0.40931 0.99903 0.0
C1850 C 0.03001 0.3927 1.00419 0.0
C1851 C 0.9776 0.32 0.09232 0.0
C1852 C 0.96871 0.33963 0.10038 0.0
C1853 C 0.98625 0.31886 0.07087 0.0
C1854 C 0.9858 0.33719 0.05684 0.0
C1855 C 0.97653 0.35666 0.06478 0.0
C1856 C 0.96817 0.3579 0.08629 0.0
C1857 C 0.99554 0.33644 0.03418 0.0
C1858 C 0.01048 0.35279 0.02807 0.0
C1859 C 0.99045 0.3198 0.01869 0.0
C1860 C 0.9738 0.30284 0.02334 0.0
C1861 C 0.95241 0.30877 0.02932 0.0
C1862 C 0.9368 0.2927 0.03374 0.0
C1863 C 0.94235 0.27064 0.03207 0.0
C1864 C 0.9635 0.2646 0.02591 0.0
C1865 C 0.97917 0.28061 0.02149 0.0
H1866 H 0.93024 0.25822 0.03549 0.0
H1867 H 0.07717 0.41698 0.98746 0.0
H1868 H 0.30389 0.05861 0.93612 0.0
H1869 H 0.3026 0.04449 0.97411 0.0
H1870 H 0.35438 0.99921 0.9587 0.0
H1871 H 0.35552 0.01292 0.92087 0.0
H1872 H 0.32236 0.9787 0.97914 0.0
H1873 H 0.36274 0.045 0.99139 0.0
H1874 H 0.36934 0.08468 0.98994 0.0
H1875 H 0.31159 0.09603 0.02855 0.0
H1876 H 0.30449 0.05641 0.02999 0.0
H1877 H 0.34997 0.9415 0.08676 0.0
H1878 H 0.35032 0.95808 0.04995 0.0
H1879 H 0.29855 1.00179 0.06943 0.0
H1880 H 0.29839 0.9856 0.10641 0.0
H1881 H 0.32887 0.02357 0.04714 0.0
H1882 H 0.2889 0.95728 0.03558 0.0
H1883 H 0.28229 0.9176 0.0371 0.0
H1884 H 0.33907 0.90626 0.99703 0.0
H1885 H 0.34619 0.94586 0.99552 0.0
C1886 C 0.31516 0.04583 0.94092 0.0
C1887 C 0.32976 0.03687 0.9254 0.0
C1888 C 0.31444 0.03777 0.96267 0.0
C1889 C 0.32843 0.02077 0.96934 0.0
C1890 C 0.34333 0.01222 0.95397 0.0
C1891 C 0.344 0.02017 0.93231 0.0
C1892 C 0.32714 0.01115 0.99199 0.0
C1893 C 0.32405 0.98851 0.994 0.0
C1894 C 0.32872 0.02395 0.01144 0.0
C1895 C 0.33296 0.04776 1.01059 0.0
C1896 C 0.35135 0.05597 0.99941 0.0
C1897 C 0.3552 0.07844 0.99862 0.0
C1898 C 0.34085 0.09287 1.00909 0.0
C1899 C 0.32266 0.08484 0.02042 0.0
C1900 C 0.31873 0.06238 0.02124 0.0
C1901 C 0.33857 0.95457 0.08321 0.0
C1902 C 0.32409 0.96213 0.09957 0.0
C1903 C 0.33875 0.96401 0.06209 0.0
C1904 C 0.32429 0.98107 0.05676 0.0
C1905 C 0.30986 0.98868 0.07309 0.0
C1906 C 0.30973 0.97931 0.09423 0.0
C1907 C 0.32435 0.99109 0.03426 0.0
C1908 C 0.32713 0.01378 0.03228 0.0
C1909 C 0.32248 0.97835 0.01479 0.0
C1910 C 0.31819 0.95453 0.01561 0.0
C1911 C 0.30007 0.94631 0.02723 0.0
C1912 C 0.29621 0.92384 0.02807 0.0
C1913 C 0.31028 0.90942 0.01722 0.0
C1914 C 0.3282 0.91745 1.00545 0.0
C1915 C 0.33214 0.93991 1.00458 0.0
H1916 H 0.30727 0.89202 0.01788 0.0
H1917 H 0.34387 0.11027 1.00846 0.0
H1918 H 0.96455 0.71193 0.92062 0.0
H1919 H 0.9788 0.71716 0.95817 0.0
H1920 H 0.99423 0.64861 0.96219 0.0
H1921 H 0.98008 0.64323 0.92473 0.0
H1922 H 0.97606 0.66414 1.00094 0.0
H1923 H 0.03362 0.68394 0.95077 0.0
H1924 H 0.05001 0.7039 0.91948 0.0
H1925 H 0.03779 0.76481 0.95239 0.0
H1926 H 0.021 0.7452 0.98374 0.0
H1927 H 0.0485 0.66695 0.09274 0.0
H1928 H 0.03368 0.66171 0.05546 0.0
H1929 H 0.02214 0.73094 0.04996 0.0
H1930 H 0.03715 0.73636 0.08703 0.0
H1931 H 0.03804 0.71518 0.01193 0.0
H1932 H 0.98062 0.69583 0.06208 0.0
H1933 H 0.96373 0.67623 0.09333 0.0
H1934 H 0.97504 0.61504 0.06063 0.0
H1935 H 0.99231 0.63428 0.0293 0.0
C1936 C 0.97074 0.69791 0.92959 0.0
C1937 C 0.97125 0.67717 0.91961 0.0
C1938 C 0.97899 0.70096 0.95101 0.0
C1939 C 0.98783 0.68332 0.96292 0.0
C1940 C 0.98756 0.66246 0.95333 0.0
C1941 C 0.97949 0.65944 0.93186 0.0
C1942 C 0.99802 0.68666 0.98506 0.0
C1943 C 0.98977 0.67511 1.0033 0.0
C1944 C 0.01564 0.70129 0.98826 0.0
C1945 C 0.02584 0.71311 0.96949 0.0
C1946 C 0.03426 0.7016 0.95125 0.0
C1947 C 0.04365 0.71285 0.93352 0.0
C1948 C 0.04489 0.73561 0.93392 0.0
C1949 C 0.03678 0.74717 0.95208 0.0
C1950 C 0.02734 0.736 0.96985 0.0
C1951 C 0.043 0.6811 0.08353 0.0
C1952 C 0.04394 0.70207 0.09297 0.0
C1953 C 0.0344 0.67805 0.06225 0.0
C1954 C 0.02646 0.69589 0.04998 0.0
C1955 C 0.02808 0.71691 0.05908 0.0
C1956 C 0.03665 0.71996 0.08034 0.0
C1957 C 0.0161 0.69266 0.02788 0.0
C1958 C 0.02431 0.70422 1.00961 0.0
C1959 C 0.99839 0.6781 0.02468 0.0
C1960 C 0.98797 0.66648 0.04346 0.0
C1961 C 0.97967 0.67818 0.06163 0.0
C1962 C 0.97 0.66714 0.07935 0.0
C1963 C 0.96837 0.6444 0.079 0.0
C1964 C 0.97635 0.63265 0.0609 0.0
C1965 C 0.98607 0.64362 0.04315 0.0
H1966 H 0.96087 0.63588 0.09272 0.0
H1967 H 0.05217 0.7443 0.92017 0.0
loop_
_geom_bond_atom_site_label_1
_geom_bond_atom_site_label_2
_geom_bond_distance
_geom_bond_site_symmetry_2
_ccdc_geom_bond_type
Cu0 N1 1.999 . S
Cu0 O6 1.974 . S
Cu0 N11 1.985 . S
Cu0 O20 1.959 . S
N1 Cu0 1.999 . S
N1 C3 1.263 . S
N1 C5 1.389 . S
N2 C3 1.358 . S
N2 C4 1.400 . S
C3 N1 1.263 . S
C3 N2 1.358 . S
C3 H9 0.930 . S
C4 N2 1.400 . S
C4 C5 1.351 . S
C4 H21 0.930 . S
C5 N1 1.389 . S
C5 C4 1.351 . S
C5 H10 0.930 . S
O6 Cu0 1.974 . S
O6 C16 1.282 . S
C7 O8 1.261 . S
C7 O20 1.251 . S
O8 C7 1.261 . S
H9 C3 0.930 . S
H10 C5 0.930 . S
N11 Cu0 1.985 . S
N11 C13 1.335 . S
N11 C14 1.390 . S
N12 C13 1.345 . S
N12 C15 1.336 . S
C13 N11 1.335 . S
C13 N12 1.345 . S
C13 H18 0.930 . S
C14 N11 1.390 . S
C14 C15 1.346 . S
C14 H19 0.930 . S
C15 N12 1.336 . S
C15 C14 1.346 . S
C15 H22 0.929 . S
C16 O6 1.282 . S
C16 O17 1.216 . S
O17 C16 1.216 . S
H18 C13 0.930 . S
H19 C14 0.930 . S
O20 Cu0 1.959 . S
O20 C7 1.251 . S
H21 C4 0.930 . S
H22 C15 0.929 . S
Cu23 N24 1.999 . S
Cu23 O29 1.974 . S
Cu23 N34 1.985 . S
Cu23 O43 1.959 . S
N24 Cu23 1.999 . S
N24 C26 1.263 . S
N24 C28 1.389 . S
N25 C26 1.358 . S
N25 C27 1.400 . S
C26 N24 1.263 . S
C26 N25 1.358 . S
C26 H32 0.930 . S
C27 N25 1.400 . S
C27 C28 1.351 . S
C27 H44 0.930 . S
C28 N24 1.389 . S
C28 C27 1.351 . S
C28 H33 0.930 . S
O29 Cu23 1.974 . S
O29 C39 1.282 . S
C30 O31 1.261 . S
C30 O43 1.251 . S
O31 C30 1.261 . S
H32 C26 0.930 . S
H33 C28 0.930 . S
N34 Cu23 1.985 . S
N34 C36 1.335 . S
N34 C37 1.390 . S
N35 C36 1.345 . S
N35 C38 1.336 . S
C36 N34 1.335 . S
C36 N35 1.345 . S
C36 H41 0.930 . S
C37 N34 1.390 . S
C37 C38 1.346 . S
C37 H42 0.930 . S
C38 N35 1.336 . S
C38 C37 1.346 . S
C38 H45 0.929 . S
C39 O29 1.282 . S
C39 O40 1.216 . S
O40 C39 1.216 . S
H41 C36 0.930 . S
H42 C37 0.930 . S
O43 Cu23 1.959 . S
O43 C30 1.251 . S
H44 C27 0.930 . S
H45 C38 0.929 . S
Cu46 N47 1.999 . S
Cu46 O52 1.974 . S
Cu46 N57 1.985 . S
Cu46 O66 1.959 . S
N47 Cu46 1.999 . S
N47 C49 1.263 . S
N47 C51 1.389 . S
N48 C49 1.358 . S
N48 C50 1.400 . S
C49 N47 1.263 . S
C49 N48 1.358 . S
C49 H55 0.930 . S
C50 N48 1.400 . S
C50 C51 1.351 . S
C50 H67 0.930 . S
C51 N47 1.389 . S
C51 C50 1.351 . S
C51 H56 0.930 . S
O52 Cu46 1.974 . S
O52 C62 1.282 . S
C53 O54 1.261 . S
C53 O66 1.251 . S
O54 C53 1.261 . S
H55 C49 0.930 . S
H56 C51 0.930 . S
N57 Cu46 1.985 . S
N57 C59 1.335 . S
N57 C60 1.390 . S
N58 C59 1.345 . S
N58 C61 1.336 . S
C59 N57 1.335 . S
C59 N58 1.345 . S
C59 H64 0.930 . S
C60 N57 1.390 . S
C60 C61 1.346 . S
C60 H65 0.930 . S
C61 N58 1.336 . S
C61 C60 1.346 . S
C61 H68 0.929 . S
C62 O52 1.282 . S
C62 O63 1.216 . S
O63 C62 1.216 . S
H64 C59 0.930 . S
H65 C60 0.930 . S
O66 Cu46 1.959 . S
O66 C53 1.251 . S
H67 C50 0.930 . S
H68 C61 0.929 . S
Cu69 N70 1.999 . S
Cu69 O75 1.974 . S
Cu69 N80 1.985 . S
Cu69 O89 1.959 . S
N70 Cu69 1.999 . S
N70 C72 1.263 . S
N70 C74 1.389 . S
N71 C72 1.358 . S
N71 C73 1.400 . S
C72 N70 1.263 . S
C72 N71 1.358 . S
C72 H78 0.930 . S
C73 N71 1.400 . S
C73 C74 1.351 . S
C73 H90 0.930 . S
C74 N70 1.389 . S
C74 C73 1.351 . S
C74 H79 0.930 . S
O75 Cu69 1.974 . S
O75 C85 1.282 . S
C76 O77 1.261 . S
C76 O89 1.251 . S
O77 C76 1.261 . S
H78 C72 0.930 . S
H79 C74 0.930 . S
N80 Cu69 1.985 . S
N80 C82 1.335 . S
N80 C83 1.390 . S
N81 C82 1.345 . S
N81 C84 1.336 . S
C82 N80 1.335 . S
C82 N81 1.345 . S
C82 H87 0.930 . S
C83 N80 1.390 . S
C83 C84 1.346 . S
C83 H88 0.930 . S
C84 N81 1.336 . S
C84 C83 1.346 . S
C84 H91 0.929 . S
C85 O75 1.282 . S
C85 O86 1.216 . S
O86 C85 1.216 . S
H87 C82 0.930 . S
H88 C83 0.930 . S
O89 Cu69 1.959 . S
O89 C76 1.251 . S
H90 C73 0.930 . S
H91 C84 0.929 . S
Cu92 N93 1.999 . S
Cu92 O98 1.974 . S
Cu92 N103 1.985 . S
Cu92 O112 1.959 . S
N93 Cu92 1.999 . S
N93 C95 1.263 . S
N93 C97 1.389 . S
N94 C95 1.358 . S
N94 C96 1.400 . S
C95 N93 1.263 . S
C95 N94 1.358 . S
C95 H101 0.930 . S
C96 N94 1.400 . S
C96 C97 1.351 . S
C96 H113 0.930 . S
C97 N93 1.389 . S
C97 C96 1.351 . S
C97 H102 0.930 . S
O98 Cu92 1.974 . S
O98 C108 1.282 . S
C99 O100 1.261 . S
C99 O112 1.251 . S
O100 C99 1.261 . S
H101 C95 0.930 . S
H102 C97 0.930 . S
N103 Cu92 1.985 . S
N103 C105 1.335 . S
N103 C106 1.390 . S
N104 C105 1.345 . S
N104 C107 1.336 . S
C105 N103 1.335 . S
C105 N104 1.345 . S
C105 H110 0.930 . S
C106 N103 1.390 . S
C106 C107 1.346 . S
C106 H111 0.930 . S
C107 N104 1.336 . S
C107 C106 1.346 . S
C107 H114 0.929 . S
C108 O98 1.282 . S
C108 O109 1.216 . S
O109 C108 1.216 . S
H110 C105 0.930 . S
H111 C106 0.930 . S
O112 Cu92 1.959 . S
O112 C99 1.251 . S
H113 C96 0.930 . S
H114 C107 0.929 . S
Cu115 N116 1.999 . S
Cu115 O121 1.974 . S
Cu115 N126 1.985 . S
Cu115 O135 1.959 . S
N116 Cu115 1.999 . S
N116 C118 1.263 . S
N116 C120 1.389 . S
N117 C118 1.358 . S
N117 C119 1.400 . S
C118 N116 1.263 . S
C118 N117 1.358 . S
C118 H124 0.930 . S
C119 N117 1.400 . S
C119 C120 1.351 . S
C119 H136 0.930 . S
C120 N116 1.389 . S
C120 C119 1.351 . S
C120 H125 0.930 . S
O121 Cu115 1.974 . S
O121 C131 1.282 . S
C122 O123 1.261 . S
C122 O135 1.251 . S
O123 C122 1.261 . S
H124 C118 0.930 . S
H125 C120 0.930 . S
N126 Cu115 1.985 . S
N126 C128 1.335 . S
N126 C129 1.390 . S
N127 C128 1.345 . S
N127 C130 1.336 . S
C128 N126 1.335 . S
C128 N127 1.345 . S
C128 H133 0.930 . S
C129 N126 1.390 . S
C129 C130 1.346 . S
C129 H134 0.930 . S
C130 N127 1.336 . S
C130 C129 1.346 . S
C130 H137 0.929 . S
C131 O121 1.282 . S
C131 O132 1.216 . S
O132 C131 1.216 . S
H133 C128 0.930 . S
H134 C129 0.930 . S
O135 Cu115 1.959 . S
O135 C122 1.251 . S
H136 C119 0.930 . S
H137 C130 0.929 . S
Cu138 N139 1.999 . S
Cu138 O144 1.974 . S
Cu138 N149 1.985 . S
Cu138 O158 1.959 . S
N139 Cu138 1.999 . S
N139 C141 1.263 . S
N139 C143 1.389 . S
N140 C141 1.358 . S
N140 C142 1.400 . S
C141 N139 1.263 . S
C141 N140 1.358 . S
C141 H147 0.930 . S
C142 N140 1.400 . S
C142 C143 1.351 . S
C142 H159 0.930 . S
C143 N139 1.389 . S
C143 C142 1.351 . S
C143 H148 0.930 . S
O144 Cu138 1.974 . S
O144 C154 1.282 . S
C145 O146 1.261 . S
C145 O158 1.251 . S
O146 C145 1.261 . S
H147 C141 0.930 . S
H148 C143 0.930 . S
N149 Cu138 1.985 . S
N149 C151 1.335 . S
N149 C152 1.390 . S
N150 C151 1.345 . S
N150 C153 1.336 . S
C151 N149 1.335 . S
C151 N150 1.345 . S
C151 H156 0.930 . S
C152 N149 1.390 . S
C152 C153 1.346 . S
C152 H157 0.930 . S
C153 N150 1.336 . S
C153 C152 1.346 . S
C153 H160 0.929 . S
C154 O144 1.282 . S
C154 O155 1.216 . S
O155 C154 1.216 . S
H156 C151 0.930 . S
H157 C152 0.930 . S
O158 Cu138 1.959 . S
O158 C145 1.251 . S
H159 C142 0.930 . S
H160 C153 0.929 . S
Cu161 N162 1.999 . S
Cu161 O167 1.974 . S
Cu161 N172 1.985 . S
Cu161 O181 1.959 . S
N162 Cu161 1.999 . S
N162 C164 1.263 . S
N162 C166 1.389 . S
N163 C164 1.358 . S
N163 C165 1.400 . S
C164 N162 1.263 . S
C164 N163 1.358 . S
C164 H170 0.930 . S
C165 N163 1.400 . S
C165 C166 1.351 . S
C165 H182 0.930 . S
C166 N162 1.389 . S
C166 C165 1.351 . S
C166 H171 0.930 . S
O167 Cu161 1.974 . S
O167 C177 1.282 . S
C168 O169 1.261 . S
C168 O181 1.251 . S
O169 C168 1.261 . S
H170 C164 0.930 . S
H171 C166 0.930 . S
N172 Cu161 1.985 . S
N172 C174 1.335 . S
N172 C175 1.390 . S
N173 C174 1.345 . S
N173 C176 1.336 . S
C174 N172 1.335 . S
C174 N173 1.345 . S
C174 H179 0.930 . S
C175 N172 1.390 . S
C175 C176 1.346 . S
C175 H180 0.930 . S
C176 N173 1.336 . S
C176 C175 1.346 . S
C176 H183 0.929 . S
C177 O167 1.282 . S
C177 O178 1.216 . S
O178 C177 1.216 . S
H179 C174 0.930 . S
H180 C175 0.930 . S
O181 Cu161 1.959 . S
O181 C168 1.251 . S
H182 C165 0.930 . S
H183 C176 0.929 . S
Cu184 N185 1.999 . S
Cu184 O190 1.974 . S
Cu184 N195 1.985 . S
Cu184 O204 1.959 . S
N185 Cu184 1.999 . S
N185 C187 1.263 . S
N185 C189 1.389 1_565 S
N186 C187 1.358 1_545 S
N186 C188 1.400 . S
C187 N185 1.263 . S
C187 N186 1.358 1_565 S
C187 H193 0.930 . S
C188 N186 1.400 . S
C188 C189 1.351 . S
C188 H205 0.930 . S
C189 N185 1.389 1_545 S
C189 C188 1.351 . S
C189 H194 0.930 . S
O190 Cu184 1.974 . S
O190 C200 1.282 . S
C191 O192 1.261 . S
C191 O204 1.251 . S
O192 C191 1.261 . S
H193 C187 0.930 . S
H194 C189 0.930 . S
N195 Cu184 1.985 . S
N195 C197 1.335 . S
N195 C198 1.390 . S
N196 C197 1.345 . S
N196 C199 1.336 . S
C197 N195 1.335 . S
C197 N196 1.345 . S
C197 H202 0.930 . S
C198 N195 1.390 . S
C198 C199 1.346 . S
C198 H203 0.930 . S
C199 N196 1.336 . S
C199 C198 1.346 . S
C199 H206 0.929 . S
C200 O190 1.282 . S
C200 O201 1.216 . S
O201 C200 1.216 . S
H202 C197 0.930 . S
H203 C198 0.930 . S
O204 Cu184 1.959 . S
O204 C191 1.251 . S
H205 C188 0.930 . S
H206 C199 0.929 . S
Cu207 N208 1.999 . S
Cu207 O213 1.974 . S
Cu207 N218 1.985 . S
Cu207 O227 1.959 . S
N208 Cu207 1.999 . S
N208 C210 1.263 . S
N208 C212 1.389 1_655 S
N209 C210 1.358 1_455 S
N209 C211 1.400 . S
C210 N208 1.263 . S
C210 N209 1.358 1_655 S
C210 H216 0.930 . S
C211 N209 1.400 . S
C211 C212 1.351 . S
C211 H228 0.930 . S
C212 N208 1.389 1_455 S
C212 C211 1.351 . S
C212 H217 0.930 . S
O213 Cu207 1.974 . S
O213 C223 1.282 . S
C214 O215 1.261 . S
C214 O227 1.251 . S
O215 C214 1.261 . S
H216 C210 0.930 . S
H217 C212 0.930 . S
N218 Cu207 1.985 . S
N218 C220 1.335 . S
N218 C221 1.390 . S
N219 C220 1.345 . S
N219 C222 1.336 . S
C220 N218 1.335 . S
C220 N219 1.345 . S
C220 H225 0.930 . S
C221 N218 1.390 . S
C221 C222 1.346 . S
C221 H226 0.930 . S
C222 N219 1.336 . S
C222 C221 1.346 . S
C222 H229 0.929 . S
C223 O213 1.282 . S
C223 O224 1.216 . S
O224 C223 1.216 . S
H225 C220 0.930 . S
H226 C221 0.930 . S
O227 Cu207 1.959 . S
O227 C214 1.251 . S
H228 C211 0.930 . S
H229 C222 0.929 . S
Cu230 N231 1.999 . S
Cu230 O236 1.974 . S
Cu230 N241 1.985 . S
Cu230 O250 1.959 . S
N231 Cu230 1.999 . S
N231 C233 1.263 . S
N231 C235 1.389 1_545 S
N232 C233 1.358 1_565 S
N232 C234 1.400 . S
C233 N231 1.263 . S
C233 N232 1.358 1_545 S
C233 H239 0.930 . S
C234 N232 1.400 . S
C234 C235 1.351 . S
C234 H251 0.930 . S
C235 N231 1.389 1_565 S
C235 C234 1.351 . S
C235 H240 0.930 . S
O236 Cu230 1.974 . S
O236 C246 1.282 . S
C237 O238 1.261 . S
C237 O250 1.251 . S
O238 C237 1.261 . S
H239 C233 0.930 . S
H240 C235 0.930 . S
N241 Cu230 1.985 . S
N241 C243 1.335 . S
N241 C244 1.390 . S
N242 C243 1.345 . S
N242 C245 1.336 . S
C243 N241 1.335 . S
C243 N242 1.345 . S
C243 H248 0.930 . S
C244 N241 1.390 . S
C244 C245 1.346 . S
C244 H249 0.930 . S
C245 N242 1.336 . S
C245 C244 1.346 . S
C245 H252 0.929 . S
C246 O236 1.282 . S
C246 O247 1.216 . S
O247 C246 1.216 . S
H248 C243 0.930 . S
H249 C244 0.930 . S
O250 Cu230 1.959 . S
O250 C237 1.251 . S
H251 C234 0.930 . S
H252 C245 0.929 . S
Cu253 N254 1.999 . S
Cu253 O259 1.974 . S
Cu253 N264 1.985 . S
Cu253 O273 1.959 . S
N254 Cu253 1.999 . S
N254 C256 1.263 . S
N254 C258 1.389 1_455 S
N255 C256 1.358 1_655 S
N255 C257 1.400 . S
C256 N254 1.263 . S
C256 N255 1.358 1_455 S
C256 H262 0.930 . S
C257 N255 1.400 . S
C257 C258 1.351 . S
C257 H274 0.930 . S
C258 N254 1.389 1_655 S
C258 C257 1.351 . S
C258 H263 0.930 . S
O259 Cu253 1.974 . S
O259 C269 1.282 . S
C260 O261 1.261 . S
C260 O273 1.251 . S
O261 C260 1.261 . S
H262 C256 0.930 . S
H263 C258 0.930 . S
N264 Cu253 1.985 . S
N264 C266 1.335 . S
N264 C267 1.390 . S
N265 C266 1.345 . S
N265 C268 1.336 . S
C266 N264 1.335 . S
C266 N265 1.345 . S
C266 H271 0.930 . S
C267 N264 1.390 . S
C267 C268 1.346 . S
C267 H272 0.930 . S
C268 N265 1.336 . S
C268 C267 1.346 . S
C268 H275 0.929 . S
C269 O259 1.282 . S
C269 O270 1.216 . S
O270 C269 1.216 . S
H271 C266 0.930 . S
H272 C267 0.930 . S
O273 Cu253 1.959 . S
O273 C260 1.251 . S
H274 C257 0.930 . S
H275 C268 0.929 . S
Cu276 N277 1.999 . S
Cu276 O282 1.974 . S
Cu276 N287 1.985 . S
Cu276 O296 1.959 . S
N277 Cu276 1.999 . S
N277 C279 1.263 . S
N277 C281 1.389 1_545 S
N278 C279 1.358 1_565 S
N278 C280 1.400 . S
C279 N277 1.263 . S
C279 N278 1.358 1_545 S
C279 H285 0.930 . S
C280 N278 1.400 . S
C280 C281 1.351 . S
C280 H297 0.930 . S
C281 N277 1.389 1_565 S
C281 C280 1.351 . S
C281 H286 0.930 . S
O282 Cu276 1.974 . S
O282 C292 1.282 . S
C283 O284 1.261 . S
C283 O296 1.251 . S
O284 C283 1.261 . S
H285 C279 0.930 . S
H286 C281 0.930 . S
N287 Cu276 1.985 . S
N287 C289 1.335 . S
N287 C290 1.390 . S
N288 C289 1.345 . S
N288 C291 1.336 . S
C289 N287 1.335 . S
C289 N288 1.345 . S
C289 H294 0.930 . S
C290 N287 1.390 . S
C290 C291 1.346 . S
C290 H295 0.930 . S
C291 N288 1.336 . S
C291 C290 1.346 . S
C291 H298 0.929 . S
C292 O282 1.282 . S
C292 O293 1.216 . S
O293 C292 1.216 . S
H294 C289 0.930 . S
H295 C290 0.930 . S
O296 Cu276 1.959 . S
O296 C283 1.251 . S
H297 C280 0.930 . S
H298 C291 0.929 . S
Cu299 N300 1.999 . S
Cu299 O305 1.974 . S
Cu299 N310 1.985 . S
Cu299 O319 1.959 . S
N300 Cu299 1.999 . S
N300 C302 1.263 . S
N300 C304 1.389 1_455 S
N301 C302 1.358 1_655 S
N301 C303 1.400 . S
C302 N300 1.263 . S
C302 N301 1.358 1_455 S
C302 H308 0.930 . S
C303 N301 1.400 . S
C303 C304 1.351 . S
C303 H320 0.930 . S
C304 N300 1.389 1_655 S
C304 C303 1.351 . S
C304 H309 0.930 . S
O305 Cu299 1.974 . S
O305 C315 1.282 . S
C306 O307 1.261 . S
C306 O319 1.251 . S
O307 C306 1.261 . S
H308 C302 0.930 . S
H309 C304 0.930 . S
N310 Cu299 1.985 . S
N310 C312 1.335 . S
N310 C313 1.390 . S
N311 C312 1.345 . S
N311 C314 1.336 . S
C312 N310 1.335 . S
C312 N311 1.345 . S
C312 H317 0.930 . S
C313 N310 1.390 . S
C313 C314 1.346 . S
C313 H318 0.930 . S
C314 N311 1.336 . S
C314 C313 1.346 . S
C314 H321 0.929 . S
C315 O305 1.282 . S
C315 O316 1.216 . S
O316 C315 1.216 . S
H317 C312 0.930 . S
H318 C313 0.930 . S
O319 Cu299 1.959 . S
O319 C306 1.251 . S
H320 C303 0.930 . S
H321 C314 0.929 . S
Cu322 N323 1.999 . S
Cu322 O328 1.974 . S
Cu322 N333 1.985 . S
Cu322 O342 1.959 . S
N323 Cu322 1.999 . S
N323 C325 1.263 . S
N323 C327 1.389 1_565 S
N324 C325 1.358 1_545 S
N324 C326 1.400 . S
C325 N323 1.263 . S
C325 N324 1.358 1_565 S
C325 H331 0.930 . S
C326 N324 1.400 . S
C326 C327 1.351 . S
C326 H343 0.930 . S
C327 N323 1.389 1_545 S
C327 C326 1.351 . S
C327 H332 0.930 . S
O328 Cu322 1.974 . S
O328 C338 1.282 . S
C329 O330 1.261 . S
C329 O342 1.251 . S
O330 C329 1.261 . S
H331 C325 0.930 . S
H332 C327 0.930 . S
N333 Cu322 1.985 . S
N333 C335 1.335 . S
N333 C336 1.390 . S
N334 C335 1.345 . S
N334 C337 1.336 . S
C335 N333 1.335 . S
C335 N334 1.345 . S
C335 H340 0.930 . S
C336 N333 1.390 . S
C336 C337 1.346 . S
C336 H341 0.930 . S
C337 N334 1.336 . S
C337 C336 1.346 . S
C337 H344 0.929 . S
C338 O328 1.282 . S
C338 O339 1.216 . S
O339 C338 1.216 . S
H340 C335 0.930 . S
H341 C336 0.930 . S
O342 Cu322 1.959 . S
O342 C329 1.251 . S
H343 C326 0.930 . S
H344 C337 0.929 . S
Cu345 N346 1.999 . S
Cu345 O351 1.974 . S
Cu345 N356 1.985 . S
Cu345 O365 1.959 . S
N346 Cu345 1.999 . S
N346 C348 1.263 . S
N346 C350 1.389 1_655 S
N347 C348 1.358 1_455 S
N347 C349 1.400 . S
C348 N346 1.263 . S
C348 N347 1.358 1_655 S
C348 H354 0.930 . S
C349 N347 1.400 . S
C349 C350 1.351 . S
C349 H366 0.930 . S
C350 N346 1.389 1_455 S
C350 C349 1.351 . S
C350 H355 0.930 . S
O351 Cu345 1.974 . S
O351 C361 1.282 . S
C352 O353 1.261 . S
C352 O365 1.251 . S
O353 C352 1.261 . S
H354 C348 0.930 . S
H355 C350 0.930 . S
N356 Cu345 1.985 . S
N356 C358 1.335 . S
N356 C359 1.390 . S
N357 C358 1.345 . S
N357 C360 1.336 . S
C358 N356 1.335 . S
C358 N357 1.345 . S
C358 H363 0.930 . S
C359 N356 1.390 . S
C359 C360 1.346 . S
C359 H364 0.930 . S
C360 N357 1.336 . S
C360 C359 1.346 . S
C360 H367 0.929 . S
C361 O351 1.282 . S
C361 O362 1.216 . S
O362 C361 1.216 . S
H363 C358 0.930 . S
H364 C359 0.930 . S
O365 Cu345 1.959 . S
O365 C352 1.251 . S
H366 C349 0.930 . S
H367 C360 0.929 . S
H368 C386 0.951 . S
H369 C388 0.951 . S
H370 C390 0.950 . S
H371 C391 0.950 . S
H372 C393 0.950 . S
H373 C396 0.950 . S
H374 C397 0.950 . S
H375 C399 0.950 . S
H376 C400 0.950 . S
H377 C401 0.951 . S
H378 C403 0.951 . S
H379 C405 0.950 . S
H380 C406 0.950 . S
H381 C408 0.950 . S
H382 C411 0.950 . S
H383 C412 0.950 . S
H384 C414 0.950 . S
H385 C415 0.950 . S
C386 H368 0.951 . S
C386 C387 1.366 . S
C386 C388 1.388 . S
C387 C386 1.366 . S
C387 C391 1.385 . S
C388 H369 0.951 . S
C388 C386 1.388 . S
C388 C389 1.366 . S
C389 C388 1.366 . S
C389 C390 1.414 . S
C389 C392 1.499 . S
C390 H370 0.950 . S
C390 C389 1.414 . S
C390 C391 1.374 . S
C391 H371 0.950 . S
C391 C387 1.385 . S
C391 C390 1.374 . S
C392 C389 1.499 . S
C392 C393 1.373 . S
C392 C394 1.389 . S
C393 H372 0.950 . S
C393 C392 1.373 . S
C393 C409 1.377 . S
C394 C392 1.389 . S
C394 C395 1.524 . S
C394 C408 1.377 . S
C395 C394 1.524 . S
C395 C396 1.397 . S
C395 C400 1.363 . S
C396 H373 0.950 . S
C396 C395 1.397 . S
C396 C397 1.334 . S
C397 H374 0.950 . S
C397 C396 1.334 . S
C397 C398 1.287 . S
C398 C397 1.287 . S
C398 C399 1.524 . S
C398 H417 0.913 . S
C399 H375 0.950 . S
C399 C398 1.524 . S
C399 C400 1.415 . S
C400 H376 0.950 . S
C400 C395 1.363 . S
C400 C399 1.415 . S
C401 H377 0.951 . S
C401 C402 1.366 . S
C401 C403 1.388 . S
C402 C401 1.366 . S
C402 C406 1.385 . S
C403 H378 0.951 . S
C403 C401 1.388 . S
C403 C404 1.366 . S
C404 C403 1.366 . S
C404 C405 1.414 . S
C404 C407 1.499 . S
C405 H379 0.950 . S
C405 C404 1.414 . S
C405 C406 1.374 . S
C406 H380 0.950 . S
C406 C402 1.385 . S
C406 C405 1.374 . S
C407 C404 1.499 . S
C407 C408 1.373 . S
C407 C409 1.389 . S
C408 H381 0.950 . S
C408 C394 1.377 . S
C408 C407 1.373 . S
C409 C393 1.377 . S
C409 C407 1.389 . S
C409 C410 1.524 . S
C410 C409 1.524 . S
C410 C411 1.397 . S
C410 C415 1.363 . S
C411 H382 0.950 . S
C411 C410 1.397 . S
C411 C412 1.334 . S
C412 H383 0.950 . S
C412 C411 1.334 . S
C412 C413 1.287 . S
C413 C412 1.287 . S
C413 C414 1.524 . S
C413 H416 0.999 . S
C414 H384 0.950 . S
C414 C413 1.524 . S
C414 C415 1.415 . S
C415 H385 0.950 . S
C415 C410 1.363 . S
C415 C414 1.415 . S
H416 C413 0.999 . S
H417 C398 0.913 . S
H418 C436 0.951 . S
H419 C438 0.951 . S
H420 C440 0.950 . S
H421 C441 0.950 . S
H422 C443 0.950 . S
H423 C446 0.950 . S
H424 C447 0.950 . S
H425 C449 0.950 . S
H426 C450 0.950 . S
H427 C451 0.951 . S
H428 C453 0.951 . S
H429 C455 0.950 . S
H430 C456 0.950 . S
H431 C458 0.950 . S
H432 C461 0.950 . S
H433 C462 0.950 . S
H434 C464 0.950 . S
H435 C465 0.950 . S
C436 H418 0.951 . S
C436 C437 1.366 . S
C436 C438 1.388 . S
C437 C436 1.366 . S
C437 C441 1.385 . S
C438 H419 0.951 . S
C438 C436 1.388 . S
C438 C439 1.366 . S
C439 C438 1.366 . S
C439 C440 1.414 . S
C439 C442 1.499 . S
C440 H420 0.950 . S
C440 C439 1.414 . S
C440 C441 1.374 . S
C441 H421 0.950 . S
C441 C437 1.385 . S
C441 C440 1.374 . S
C442 C439 1.499 . S
C442 C443 1.373 . S
C442 C444 1.389 . S
C443 H422 0.950 . S
C443 C442 1.373 . S
C443 C459 1.377 . S
C444 C442 1.389 . S
C444 C445 1.524 . S
C444 C458 1.377 . S
C445 C444 1.524 . S
C445 C446 1.397 . S
C445 C450 1.363 . S
C446 H423 0.950 . S
C446 C445 1.397 . S
C446 C447 1.334 . S
C447 H424 0.950 . S
C447 C446 1.334 . S
C447 C448 1.287 . S
C448 C447 1.287 . S
C448 C449 1.524 . S
C448 H467 0.913 . S
C449 H425 0.950 . S
C449 C448 1.524 . S
C449 C450 1.415 . S
C450 H426 0.950 . S
C450 C445 1.363 . S
C450 C449 1.415 . S
C451 H427 0.951 . S
C451 C452 1.366 . S
C451 C453 1.388 . S
C452 C451 1.366 . S
C452 C456 1.385 . S
C453 H428 0.951 . S
C453 C451 1.388 . S
C453 C454 1.366 . S
C454 C453 1.366 . S
C454 C455 1.414 . S
C454 C457 1.499 . S
C455 H429 0.950 . S
C455 C454 1.414 . S
C455 C456 1.374 . S
C456 H430 0.950 . S
C456 C452 1.385 . S
C456 C455 1.374 . S
C457 C454 1.499 . S
C457 C458 1.373 . S
C457 C459 1.389 . S
C458 H431 0.950 . S
C458 C444 1.377 . S
C458 C457 1.373 . S
C459 C443 1.377 . S
C459 C457 1.389 . S
C459 C460 1.524 . S
C460 C459 1.524 . S
C460 C461 1.397 . S
C460 C465 1.363 . S
C461 H432 0.950 . S
C461 C460 1.397 . S
C461 C462 1.334 . S
C462 H433 0.950 . S
C462 C461 1.334 . S
C462 C463 1.287 . S
C463 C462 1.287 . S
C463 C464 1.524 . S
C463 H466 0.999 . S
C464 H434 0.950 . S
C464 C463 1.524 . S
C464 C465 1.415 . S
C465 H435 0.950 . S
C465 C460 1.363 . S
C465 C464 1.415 . S
H466 C463 0.999 . S
H467 C448 0.913 . S
H468 C486 0.951 . S
H469 C488 0.951 . S
H470 C490 0.950 . S
H471 C491 0.950 . S
H472 C493 0.950 . S
H473 C496 0.950 . S
H474 C497 0.950 . S
H475 C499 0.950 . S
H476 C500 0.950 . S
H477 C501 0.951 . S
H478 C503 0.951 . S
H479 C505 0.950 . S
H480 C506 0.950 . S
H481 C508 0.950 . S
H482 C511 0.950 . S
H483 C512 0.950 . S
H484 C514 0.950 . S
H485 C515 0.950 . S
C486 H468 0.951 . S
C486 C487 1.366 . S
C486 C488 1.388 . S
C487 C486 1.366 . S
C487 C491 1.385 . S
C488 H469 0.951 . S
C488 C486 1.388 . S
C488 C489 1.366 . S
C489 C488 1.366 . S
C489 C490 1.414 . S
C489 C492 1.499 . S
C490 H470 0.950 . S
C490 C489 1.414 . S
C490 C491 1.374 . S
C491 H471 0.950 . S
C491 C487 1.385 . S
C491 C490 1.374 . S
C492 C489 1.499 . S
C492 C493 1.373 . S
C492 C494 1.389 . S
C493 H472 0.950 . S
C493 C492 1.373 . S
C493 C509 1.377 . S
C494 C492 1.389 . S
C494 C495 1.524 . S
C494 C508 1.377 . S
C495 C494 1.524 . S
C495 C496 1.397 . S
C495 C500 1.363 . S
C496 H473 0.950 . S
C496 C495 1.397 . S
C496 C497 1.334 . S
C497 H474 0.950 . S
C497 C496 1.334 . S
C497 C498 1.287 . S
C498 C497 1.287 . S
C498 C499 1.524 . S
C498 H517 0.913 . S
C499 H475 0.950 . S
C499 C498 1.524 . S
C499 C500 1.415 . S
C500 H476 0.950 . S
C500 C495 1.363 . S
C500 C499 1.415 . S
C501 H477 0.951 . S
C501 C502 1.366 . S
C501 C503 1.388 . S
C502 C501 1.366 . S
C502 C506 1.385 . S
C503 H478 0.951 . S
C503 C501 1.388 . S
C503 C504 1.366 . S
C504 C503 1.366 . S
C504 C505 1.414 . S
C504 C507 1.499 . S
C505 H479 0.950 . S
C505 C504 1.414 . S
C505 C506 1.374 . S
C506 H480 0.950 . S
C506 C502 1.385 . S
C506 C505 1.374 . S
C507 C504 1.499 . S
C507 C508 1.373 . S
C507 C509 1.389 . S
C508 H481 0.950 . S
C508 C494 1.377 . S
C508 C507 1.373 . S
C509 C493 1.377 . S
C509 C507 1.389 . S
C509 C510 1.524 . S
C510 C509 1.524 . S
C510 C511 1.397 . S
C510 C515 1.363 . S
C511 H482 0.950 . S
C511 C510 1.397 . S
C511 C512 1.334 . S
C512 H483 0.950 . S
C512 C511 1.334 . S
C512 C513 1.287 . S
C513 C512 1.287 . S
C513 C514 1.524 . S
C513 H516 0.999 . S
C514 H484 0.950 . S
C514 C513 1.524 . S
C514 C515 1.415 . S
C515 H485 0.950 . S
C515 C510 1.363 . S
C515 C514 1.415 . S
H516 C513 0.999 . S
H517 C498 0.913 . S
H518 C536 0.951 . S
H519 C538 0.951 . S
H520 C540 0.950 . S
H521 C541 0.950 . S
H522 C543 0.950 . S
H523 C546 0.950 . S
H524 C547 0.950 . S
H525 C549 0.950 . S
H526 C550 0.950 . S
H527 C551 0.951 . S
H528 C553 0.951 . S
H529 C555 0.950 . S
H530 C556 0.950 . S
H531 C558 0.950 . S
H532 C561 0.950 . S
H533 C562 0.950 . S
H534 C564 0.950 . S
H535 C565 0.950 . S
C536 H518 0.951 . S
C536 C537 1.366 . S
C536 C538 1.388 . S
C537 C536 1.366 . S
C537 C541 1.385 . S
C538 H519 0.951 . S
C538 C536 1.388 . S
C538 C539 1.366 . S
C539 C538 1.366 . S
C539 C540 1.414 . S
C539 C542 1.499 . S
C540 H520 0.950 . S
C540 C539 1.414 . S
C540 C541 1.374 . S
C541 H521 0.950 . S
C541 C537 1.385 . S
C541 C540 1.374 . S
C542 C539 1.499 . S
C542 C543 1.373 . S
C542 C544 1.389 . S
C543 H522 0.950 . S
C543 C542 1.373 . S
C543 C559 1.377 . S
C544 C542 1.389 . S
C544 C545 1.524 . S
C544 C558 1.377 . S
C545 C544 1.524 . S
C545 C546 1.397 . S
C545 C550 1.363 . S
C546 H523 0.950 . S
C546 C545 1.397 . S
C546 C547 1.334 . S
C547 H524 0.950 . S
C547 C546 1.334 . S
C547 C548 1.287 . S
C548 C547 1.287 . S
C548 C549 1.524 . S
C548 H567 0.913 . S
C549 H525 0.950 . S
C549 C548 1.524 . S
C549 C550 1.415 . S
C550 H526 0.950 . S
C550 C545 1.363 . S
C550 C549 1.415 . S
C551 H527 0.951 . S
C551 C552 1.366 . S
C551 C553 1.388 . S
C552 C551 1.366 . S
C552 C556 1.385 . S
C553 H528 0.951 . S
C553 C551 1.388 . S
C553 C554 1.366 . S
C554 C553 1.366 . S
C554 C555 1.414 . S
C554 C557 1.499 . S
C555 H529 0.950 . S
C555 C554 1.414 . S
C555 C556 1.374 . S
C556 H530 0.950 . S
C556 C552 1.385 . S
C556 C555 1.374 . S
C557 C554 1.499 . S
C557 C558 1.373 . S
C557 C559 1.389 . S
C558 H531 0.950 . S
C558 C544 1.377 . S
C558 C557 1.373 . S
C559 C543 1.377 . S
C559 C557 1.389 . S
C559 C560 1.524 . S
C560 C559 1.524 . S
C560 C561 1.397 . S
C560 C565 1.363 . S
C561 H532 0.950 . S
C561 C560 1.397 . S
C561 C562 1.334 . S
C562 H533 0.950 . S
C562 C561 1.334 . S
C562 C563 1.287 . S
C563 C562 1.287 . S
C563 C564 1.524 . S
C563 H566 0.999 . S
C564 H534 0.950 . S
C564 C563 1.524 . S
C564 C565 1.415 . S
C565 H535 0.950 . S
C565 C560 1.363 . S
C565 C564 1.415 . S
H566 C563 0.999 . S
H567 C548 0.913 . S
H568 C586 0.951 . S
H569 C588 0.951 . S
H570 C590 0.950 . S
H571 C591 0.950 . S
H572 C593 0.950 . S
H573 C596 0.950 . S
H574 C597 0.950 . S
H575 C599 0.950 . S
H576 C600 0.950 . S
H577 C601 0.951 . S
H578 C603 0.951 . S
H579 C605 0.950 . S
H580 C606 0.950 . S
H581 C608 0.950 . S
H582 C611 0.950 . S
H583 C612 0.950 . S
H584 C614 0.950 . S
H585 C615 0.950 . S
C586 H568 0.951 . S
C586 C587 1.366 . S
C586 C588 1.388 . S
C587 C586 1.366 . S
C587 C591 1.385 . S
C588 H569 0.951 . S
C588 C586 1.388 . S
C588 C589 1.366 . S
C589 C588 1.366 . S
C589 C590 1.414 . S
C589 C592 1.499 . S
C590 H570 0.950 . S
C590 C589 1.414 . S
C590 C591 1.374 . S
C591 H571 0.950 . S
C591 C587 1.385 . S
C591 C590 1.374 . S
C592 C589 1.499 . S
C592 C593 1.373 . S
C592 C594 1.389 . S
C593 H572 0.950 . S
C593 C592 1.373 . S
C593 C609 1.377 . S
C594 C592 1.389 . S
C594 C595 1.524 . S
C594 C608 1.377 . S
C595 C594 1.524 . S
C595 C596 1.397 . S
C595 C600 1.363 . S
C596 H573 0.950 . S
C596 C595 1.397 . S
C596 C597 1.334 . S
C597 H574 0.950 . S
C597 C596 1.334 . S
C597 C598 1.287 . S
C598 C597 1.287 . S
C598 C599 1.524 . S
C598 H617 0.913 . S
C599 H575 0.950 . S
C599 C598 1.524 . S
C599 C600 1.415 . S
C600 H576 0.950 . S
C600 C595 1.363 . S
C600 C599 1.415 . S
C601 H577 0.951 . S
C601 C602 1.366 . S
C601 C603 1.388 . S
C602 C601 1.366 . S
C602 C606 1.385 . S
C603 H578 0.951 . S
C603 C601 1.388 . S
C603 C604 1.366 . S
C604 C603 1.366 . S
C604 C605 1.414 . S
C604 C607 1.499 . S
C605 H579 0.950 . S
C605 C604 1.414 . S
C605 C606 1.374 . S
C606 H580 0.950 . S
C606 C602 1.385 . S
C606 C605 1.374 . S
C607 C604 1.499 . S
C607 C608 1.373 . S
C607 C609 1.389 . S
C608 H581 0.950 . S
C608 C594 1.377 . S
C608 C607 1.373 . S
C609 C593 1.377 . S
C609 C607 1.389 . S
C609 C610 1.524 . S
C610 C609 1.524 . S
C610 C611 1.397 . S
C610 C615 1.363 . S
C611 H582 0.950 . S
C611 C610 1.397 . S
C611 C612 1.334 . S
C612 H583 0.950 . S
C612 C611 1.334 . S
C612 C613 1.287 . S
C613 C612 1.287 . S
C613 C614 1.524 . S
C613 H616 0.999 . S
C614 H584 0.950 . S
C614 C613 1.524 . S
C614 C615 1.415 . S
C615 H585 0.950 . S
C615 C610 1.363 . S
C615 C614 1.415 . S
H616 C613 0.999 . S
H617 C598 0.913 . S
H618 C636 0.951 . S
H619 C638 0.951 . S
H620 C640 0.950 . S
H621 C641 0.950 . S
H622 C643 0.950 . S
H623 C646 0.950 . S
H624 C647 0.950 . S
H625 C649 0.950 . S
H626 C650 0.950 . S
H627 C651 0.951 . S
H628 C653 0.951 . S
H629 C655 0.950 . S
H630 C656 0.950 . S
H631 C658 0.950 . S
H632 C661 0.950 . S
H633 C662 0.950 . S
H634 C664 0.950 . S
H635 C665 0.950 . S
C636 H618 0.951 . S
C636 C637 1.366 . S
C636 C638 1.388 . S
C637 C636 1.366 . S
C637 C641 1.385 . S
C638 H619 0.951 . S
C638 C636 1.388 . S
C638 C639 1.366 . S
C639 C638 1.366 . S
C639 C640 1.414 . S
C639 C642 1.499 . S
C640 H620 0.950 . S
C640 C639 1.414 . S
C640 C641 1.374 . S
C641 H621 0.950 . S
C641 C637 1.385 . S
C641 C640 1.374 . S
C642 C639 1.499 . S
C642 C643 1.373 . S
C642 C644 1.389 . S
C643 H622 0.950 . S
C643 C642 1.373 . S
C643 C659 1.377 . S
C644 C642 1.389 . S
C644 C645 1.524 . S
C644 C658 1.377 . S
C645 C644 1.524 . S
C645 C646 1.397 . S
C645 C650 1.363 . S
C646 H623 0.950 . S
C646 C645 1.397 . S
C646 C647 1.334 . S
C647 H624 0.950 . S
C647 C646 1.334 . S
C647 C648 1.287 . S
C648 C647 1.287 . S
C648 C649 1.524 . S
C648 H667 0.913 . S
C649 H625 0.950 . S
C649 C648 1.524 . S
C649 C650 1.415 . S
C650 H626 0.950 . S
C650 C645 1.363 . S
C650 C649 1.415 . S
C651 H627 0.951 . S
C651 C652 1.366 . S
C651 C653 1.388 . S
C652 C651 1.366 . S
C652 C656 1.385 . S
C653 H628 0.951 . S
C653 C651 1.388 . S
C653 C654 1.366 . S
C654 C653 1.366 . S
C654 C655 1.414 . S
C654 C657 1.499 . S
C655 H629 0.950 . S
C655 C654 1.414 . S
C655 C656 1.374 . S
C656 H630 0.950 . S
C656 C652 1.385 . S
C656 C655 1.374 . S
C657 C654 1.499 . S
C657 C658 1.373 . S
C657 C659 1.389 . S
C658 H631 0.950 . S
C658 C644 1.377 . S
C658 C657 1.373 . S
C659 C643 1.377 . S
C659 C657 1.389 . S
C659 C660 1.524 . S
C660 C659 1.524 . S
C660 C661 1.397 . S
C660 C665 1.363 . S
C661 H632 0.950 . S
C661 C660 1.397 . S
C661 C662 1.334 . S
C662 H633 0.950 . S
C662 C661 1.334 . S
C662 C663 1.287 . S
C663 C662 1.287 . S
C663 C664 1.524 . S
C663 H666 0.999 . S
C664 H634 0.950 . S
C664 C663 1.524 . S
C664 C665 1.415 . S
C665 H635 0.950 . S
C665 C660 1.363 . S
C665 C664 1.415 . S
H666 C663 0.999 . S
H667 C648 0.913 . S
H668 C686 0.951 . S
H669 C688 0.951 . S
H670 C690 0.950 . S
H671 C691 0.950 . S
H672 C693 0.950 . S
H673 C696 0.950 . S
H674 C697 0.950 . S
H675 C699 0.950 . S
H676 C700 0.950 . S
H677 C701 0.951 . S
H678 C703 0.951 . S
H679 C705 0.950 . S
H680 C706 0.950 . S
H681 C708 0.950 . S
H682 C711 0.950 . S
H683 C712 0.950 . S
H684 C714 0.950 . S
H685 C715 0.950 . S
C686 H668 0.951 . S
C686 C687 1.366 . S
C686 C688 1.388 . S
C687 C686 1.366 . S
C687 C691 1.385 . S
C688 H669 0.951 . S
C688 C686 1.388 . S
C688 C689 1.366 . S
C689 C688 1.366 . S
C689 C690 1.414 . S
C689 C692 1.499 . S
C690 H670 0.950 . S
C690 C689 1.414 . S
C690 C691 1.374 . S
C691 H671 0.950 . S
C691 C687 1.385 . S
C691 C690 1.374 . S
C692 C689 1.499 . S
C692 C693 1.373 . S
C692 C694 1.389 . S
C693 H672 0.950 . S
C693 C692 1.373 . S
C693 C709 1.377 . S
C694 C692 1.389 . S
C694 C695 1.524 . S
C694 C708 1.377 . S
C695 C694 1.524 . S
C695 C696 1.397 . S
C695 C700 1.363 . S
C696 H673 0.950 . S
C696 C695 1.397 . S
C696 C697 1.334 . S
C697 H674 0.950 . S
C697 C696 1.334 . S
C697 C698 1.287 . S
C698 C697 1.287 . S
C698 C699 1.524 . S
C698 H717 0.913 . S
C699 H675 0.950 . S
C699 C698 1.524 . S
C699 C700 1.415 . S
C700 H676 0.950 . S
C700 C695 1.363 . S
C700 C699 1.415 . S
C701 H677 0.951 . S
C701 C702 1.366 . S
C701 C703 1.388 . S
C702 C701 1.366 . S
C702 C706 1.385 . S
C703 H678 0.951 . S
C703 C701 1.388 . S
C703 C704 1.366 . S
C704 C703 1.366 . S
C704 C705 1.414 . S
C704 C707 1.499 . S
C705 H679 0.950 . S
C705 C704 1.414 . S
C705 C706 1.374 . S
C706 H680 0.950 . S
C706 C702 1.385 . S
C706 C705 1.374 . S
C707 C704 1.499 . S
C707 C708 1.373 . S
C707 C709 1.389 . S
C708 H681 0.950 . S
C708 C694 1.377 . S
C708 C707 1.373 . S
C709 C693 1.377 . S
C709 C707 1.389 . S
C709 C710 1.524 . S
C710 C709 1.524 . S
C710 C711 1.397 . S
C710 C715 1.363 . S
C711 H682 0.950 . S
C711 C710 1.397 . S
C711 C712 1.334 . S
C712 H683 0.950 . S
C712 C711 1.334 . S
C712 C713 1.287 . S
C713 C712 1.287 . S
C713 C714 1.524 . S
C713 H716 0.999 . S
C714 H684 0.950 . S
C714 C713 1.524 . S
C714 C715 1.415 . S
C715 H685 0.950 . S
C715 C710 1.363 . S
C715 C714 1.415 . S
H716 C713 0.999 . S
H717 C698 0.913 . S
H718 C736 0.951 . S
H719 C738 0.951 . S
H720 C740 0.950 . S
H721 C741 0.950 . S
H722 C743 0.950 . S
H723 C746 0.950 . S
H724 C747 0.950 . S
H725 C749 0.950 . S
H726 C750 0.950 . S
H727 C751 0.951 . S
H728 C753 0.951 . S
H729 C755 0.950 . S
H730 C756 0.950 . S
H731 C758 0.950 . S
H732 C761 0.950 . S
H733 C762 0.950 . S
H734 C764 0.950 . S
H735 C765 0.950 . S
C736 H718 0.951 . S
C736 C737 1.366 . S
C736 C738 1.388 . S
C737 C736 1.366 . S
C737 C741 1.385 . S
C738 H719 0.951 . S
C738 C736 1.388 . S
C738 C739 1.366 . S
C739 C738 1.366 . S
C739 C740 1.414 . S
C739 C742 1.499 . S
C740 H720 0.950 . S
C740 C739 1.414 . S
C740 C741 1.374 . S
C741 H721 0.950 . S
C741 C737 1.385 . S
C741 C740 1.374 . S
C742 C739 1.499 . S
C742 C743 1.373 . S
C742 C744 1.389 . S
C743 H722 0.950 . S
C743 C742 1.373 . S
C743 C759 1.377 . S
C744 C742 1.389 . S
C744 C745 1.524 . S
C744 C758 1.377 . S
C745 C744 1.524 . S
C745 C746 1.397 . S
C745 C750 1.363 . S
C746 H723 0.950 . S
C746 C745 1.397 . S
C746 C747 1.334 . S
C747 H724 0.950 . S
C747 C746 1.334 . S
C747 C748 1.287 . S
C748 C747 1.287 . S
C748 C749 1.524 . S
C748 H767 0.913 . S
C749 H725 0.950 . S
C749 C748 1.524 . S
C749 C750 1.415 . S
C750 H726 0.950 . S
C750 C745 1.363 . S
C750 C749 1.415 . S
C751 H727 0.951 . S
C751 C752 1.366 . S
C751 C753 1.388 . S
C752 C751 1.366 . S
C752 C756 1.385 . S
C753 H728 0.951 . S
C753 C751 1.388 . S
C753 C754 1.366 . S
C754 C753 1.366 . S
C754 C755 1.414 . S
C754 C757 1.499 . S
C755 H729 0.950 . S
C755 C754 1.414 . S
C755 C756 1.374 . S
C756 H730 0.950 . S
C756 C752 1.385 . S
C756 C755 1.374 . S
C757 C754 1.499 . S
C757 C758 1.373 . S
C757 C759 1.389 . S
C758 H731 0.950 . S
C758 C744 1.377 . S
C758 C757 1.373 . S
C759 C743 1.377 . S
C759 C757 1.389 . S
C759 C760 1.524 . S
C760 C759 1.524 . S
C760 C761 1.397 . S
C760 C765 1.363 . S
C761 H732 0.950 . S
C761 C760 1.397 . S
C761 C762 1.334 . S
C762 H733 0.950 . S
C762 C761 1.334 . S
C762 C763 1.287 . S
C763 C762 1.287 . S
C763 C764 1.524 . S
C763 H766 0.999 . S
C764 H734 0.950 . S
C764 C763 1.524 . S
C764 C765 1.415 . S
C765 H735 0.950 . S
C765 C760 1.363 . S
C765 C764 1.415 . S
H766 C763 0.999 . S
H767 C748 0.913 . S
H768 C786 0.951 . S
H769 C788 0.951 . S
H770 C790 0.950 . S
H771 C791 0.950 . S
H772 C793 0.950 . S
H773 C796 0.950 . S
H774 C797 0.950 . S
H775 C799 0.950 . S
H776 C800 0.950 . S
H777 C801 0.951 . S
H778 C803 0.951 . S
H779 C805 0.950 . S
H780 C806 0.950 . S
H781 C808 0.950 . S
H782 C811 0.950 . S
H783 C812 0.950 . S
H784 C814 0.950 . S
H785 C815 0.950 . S
C786 H768 0.951 . S
C786 C787 1.366 . S
C786 C788 1.388 . S
C787 C786 1.366 . S
C787 C791 1.385 . S
C788 H769 0.951 . S
C788 C786 1.388 . S
C788 C789 1.366 . S
C789 C788 1.366 . S
C789 C790 1.414 . S
C789 C792 1.499 . S
C790 H770 0.950 . S
C790 C789 1.414 . S
C790 C791 1.374 . S
C791 H771 0.950 . S
C791 C787 1.385 . S
C791 C790 1.374 . S
C792 C789 1.499 . S
C792 C793 1.373 . S
C792 C794 1.389 . S
C793 H772 0.950 . S
C793 C792 1.373 . S
C793 C809 1.377 . S
C794 C792 1.389 . S
C794 C795 1.524 . S
C794 C808 1.377 . S
C795 C794 1.524 . S
C795 C796 1.397 . S
C795 C800 1.363 . S
C796 H773 0.950 . S
C796 C795 1.397 . S
C796 C797 1.334 . S
C797 H774 0.950 . S
C797 C796 1.334 . S
C797 C798 1.287 . S
C798 C797 1.287 . S
C798 C799 1.524 . S
C798 H817 0.913 . S
C799 H775 0.950 . S
C799 C798 1.524 . S
C799 C800 1.415 . S
C800 H776 0.950 . S
C800 C795 1.363 . S
C800 C799 1.415 . S
C801 H777 0.951 . S
C801 C802 1.366 . S
C801 C803 1.388 . S
C802 C801 1.366 . S
C802 C806 1.385 . S
C803 H778 0.951 . S
C803 C801 1.388 . S
C803 C804 1.366 . S
C804 C803 1.366 . S
C804 C805 1.414 . S
C804 C807 1.499 . S
C805 H779 0.950 . S
C805 C804 1.414 . S
C805 C806 1.374 . S
C806 H780 0.950 . S
C806 C802 1.385 . S
C806 C805 1.374 . S
C807 C804 1.499 . S
C807 C808 1.373 . S
C807 C809 1.389 . S
C808 H781 0.950 . S
C808 C794 1.377 . S
C808 C807 1.373 . S
C809 C793 1.377 . S
C809 C807 1.389 . S
C809 C810 1.524 . S
C810 C809 1.524 . S
C810 C811 1.397 . S
C810 C815 1.363 . S
C811 H782 0.950 . S
C811 C810 1.397 . S
C811 C812 1.334 . S
C812 H783 0.950 . S
C812 C811 1.334 . S
C812 C813 1.287 . S
C813 C812 1.287 . S
C813 C814 1.524 . S
C813 H816 0.999 . S
C814 H784 0.950 . S
C814 C813 1.524 . S
C814 C815 1.415 . S
C815 H785 0.950 . S
C815 C810 1.363 . S
C815 C814 1.415 . S
H816 C813 0.999 . S
H817 C798 0.913 . S
H818 C836 0.951 . S
H819 C838 0.951 . S
H820 C840 0.950 . S
H821 C841 0.950 . S
H822 C843 0.950 . S
H823 C846 0.950 . S
H824 C847 0.950 . S
H825 C849 0.950 . S
H826 C850 0.950 . S
H827 C851 0.951 . S
H828 C853 0.951 . S
H829 C855 0.950 . S
H830 C856 0.950 . S
H831 C858 0.950 . S
H832 C861 0.950 . S
H833 C862 0.950 . S
H834 C864 0.950 . S
H835 C865 0.950 . S
C836 H818 0.951 . S
C836 C837 1.366 . S
C836 C838 1.388 . S
C837 C836 1.366 . S
C837 C841 1.385 . S
C838 H819 0.951 . S
C838 C836 1.388 . S
C838 C839 1.366 . S
C839 C838 1.366 . S
C839 C840 1.414 . S
C839 C842 1.499 . S
C840 H820 0.950 . S
C840 C839 1.414 . S
C840 C841 1.374 . S
C841 H821 0.950 . S
C841 C837 1.385 . S
C841 C840 1.374 . S
C842 C839 1.499 . S
C842 C843 1.373 . S
C842 C844 1.389 . S
C843 H822 0.950 . S
C843 C842 1.373 . S
C843 C859 1.377 . S
C844 C842 1.389 . S
C844 C845 1.524 . S
C844 C858 1.377 . S
C845 C844 1.524 . S
C845 C846 1.397 . S
C845 C850 1.363 . S
C846 H823 0.950 . S
C846 C845 1.397 . S
C846 C847 1.334 . S
C847 H824 0.950 . S
C847 C846 1.334 . S
C847 C848 1.287 . S
C848 C847 1.287 . S
C848 C849 1.524 . S
C848 H867 0.913 . S
C849 H825 0.950 . S
C849 C848 1.524 . S
C849 C850 1.415 . S
C850 H826 0.950 . S
C850 C845 1.363 . S
C850 C849 1.415 . S
C851 H827 0.951 . S
C851 C852 1.366 . S
C851 C853 1.388 . S
C852 C851 1.366 . S
C852 C856 1.385 . S
C853 H828 0.951 . S
C853 C851 1.388 . S
C853 C854 1.366 . S
C854 C853 1.366 . S
C854 C855 1.414 . S
C854 C857 1.499 . S
C855 H829 0.950 . S
C855 C854 1.414 . S
C855 C856 1.374 . S
C856 H830 0.950 . S
C856 C852 1.385 . S
C856 C855 1.374 . S
C857 C854 1.499 . S
C857 C858 1.373 . S
C857 C859 1.389 . S
C858 H831 0.950 . S
C858 C844 1.377 . S
C858 C857 1.373 . S
C859 C843 1.377 . S
C859 C857 1.389 . S
C859 C860 1.524 . S
C860 C859 1.524 . S
C860 C861 1.397 . S
C860 C865 1.363 . S
C861 H832 0.950 . S
C861 C860 1.397 . S
C861 C862 1.334 . S
C862 H833 0.950 . S
C862 C861 1.334 . S
C862 C863 1.287 . S
C863 C862 1.287 . S
C863 C864 1.524 . S
C863 H866 0.999 . S
C864 H834 0.950 . S
C864 C863 1.524 . S
C864 C865 1.415 . S
C865 H835 0.950 . S
C865 C860 1.363 . S
C865 C864 1.415 . S
H866 C863 0.999 . S
H867 C848 0.913 . S
H868 C886 0.951 . S
H869 C888 0.951 . S
H870 C890 0.950 . S
H871 C891 0.950 . S
H872 C893 0.950 . S
H873 C896 0.950 . S
H874 C897 0.950 . S
H875 C899 0.950 . S
H876 C900 0.950 . S
H877 C901 0.951 . S
H878 C903 0.951 . S
H879 C905 0.950 . S
H880 C906 0.950 . S
H881 C908 0.950 . S
H882 C911 0.950 . S
H883 C912 0.950 . S
H884 C914 0.950 . S
H885 C915 0.950 . S
C886 H868 0.951 . S
C886 C887 1.366 . S
C886 C888 1.388 . S
C887 C886 1.366 . S
C887 C891 1.385 . S
C888 H869 0.951 . S
C888 C886 1.388 . S
C888 C889 1.366 . S
C889 C888 1.366 . S
C889 C890 1.414 . S
C889 C892 1.499 . S
C890 H870 0.950 . S
C890 C889 1.414 . S
C890 C891 1.374 . S
C891 H871 0.950 . S
C891 C887 1.385 . S
C891 C890 1.374 . S
C892 C889 1.499 . S
C892 C893 1.373 . S
C892 C894 1.389 . S
C893 H872 0.950 . S
C893 C892 1.373 . S
C893 C909 1.377 . S
C894 C892 1.389 . S
C894 C895 1.524 . S
C894 C908 1.377 . S
C895 C894 1.524 . S
C895 C896 1.397 . S
C895 C900 1.363 . S
C896 H873 0.950 . S
C896 C895 1.397 . S
C896 C897 1.334 . S
C897 H874 0.950 . S
C897 C896 1.334 . S
C897 C898 1.287 . S
C898 C897 1.287 . S
C898 C899 1.524 . S
C898 H917 0.913 . S
C899 H875 0.950 . S
C899 C898 1.524 . S
C899 C900 1.415 . S
C900 H876 0.950 . S
C900 C895 1.363 . S
C900 C899 1.415 . S
C901 H877 0.951 . S
C901 C902 1.366 . S
C901 C903 1.388 . S
C902 C901 1.366 . S
C902 C906 1.385 . S
C903 H878 0.951 . S
C903 C901 1.388 . S
C903 C904 1.366 . S
C904 C903 1.366 . S
C904 C905 1.414 . S
C904 C907 1.499 . S
C905 H879 0.950 . S
C905 C904 1.414 . S
C905 C906 1.374 . S
C906 H880 0.950 . S
C906 C902 1.385 . S
C906 C905 1.374 . S
C907 C904 1.499 . S
C907 C908 1.373 . S
C907 C909 1.389 . S
C908 H881 0.950 . S
C908 C894 1.377 . S
C908 C907 1.373 . S
C909 C893 1.377 . S
C909 C907 1.389 . S
C909 C910 1.524 . S
C910 C909 1.524 . S
C910 C911 1.397 . S
C910 C915 1.363 . S
C911 H882 0.950 . S
C911 C910 1.397 . S
C911 C912 1.334 . S
C912 H883 0.950 . S
C912 C911 1.334 . S
C912 C913 1.287 . S
C913 C912 1.287 . S
C913 C914 1.524 . S
C913 H916 0.999 . S
C914 H884 0.950 . S
C914 C913 1.524 . S
C914 C915 1.415 . S
C915 H885 0.950 . S
C915 C910 1.363 . S
C915 C914 1.415 . S
H916 C913 0.999 . S
H917 C898 0.913 . S
H918 C936 0.951 . S
H919 C938 0.951 . S
H920 C940 0.950 . S
H921 C941 0.950 . S
H922 C943 0.950 . S
H923 C946 0.950 . S
H924 C947 0.950 . S
H925 C949 0.950 . S
H926 C950 0.950 . S
H927 C951 0.951 . S
H928 C953 0.951 . S
H929 C955 0.950 . S
H930 C956 0.950 . S
H931 C958 0.950 . S
H932 C961 0.950 . S
H933 C962 0.950 . S
H934 C964 0.950 . S
H935 C965 0.950 . S
C936 H918 0.951 . S
C936 C937 1.366 . S
C936 C938 1.388 . S
C937 C936 1.366 . S
C937 C941 1.385 . S
C938 H919 0.951 . S
C938 C936 1.388 . S
C938 C939 1.366 . S
C939 C938 1.366 . S
C939 C940 1.414 . S
C939 C942 1.499 . S
C940 H920 0.950 . S
C940 C939 1.414 . S
C940 C941 1.374 . S
C941 H921 0.950 . S
C941 C937 1.385 . S
C941 C940 1.374 . S
C942 C939 1.499 . S
C942 C943 1.373 . S
C942 C944 1.389 . S
C943 H922 0.950 . S
C943 C942 1.373 . S
C943 C959 1.377 . S
C944 C942 1.389 . S
C944 C945 1.524 . S
C944 C958 1.377 . S
C945 C944 1.524 . S
C945 C946 1.397 . S
C945 C950 1.363 . S
C946 H923 0.950 . S
C946 C945 1.397 . S
C946 C947 1.334 . S
C947 H924 0.950 . S
C947 C946 1.334 . S
C947 C948 1.287 . S
C948 C947 1.287 . S
C948 C949 1.524 . S
C948 H967 0.913 . S
C949 H925 0.950 . S
C949 C948 1.524 . S
C949 C950 1.415 . S
C950 H926 0.950 . S
C950 C945 1.363 . S
C950 C949 1.415 . S
C951 H927 0.951 . S
C951 C952 1.366 . S
C951 C953 1.388 . S
C952 C951 1.366 . S
C952 C956 1.385 . S
C953 H928 0.951 . S
C953 C951 1.388 . S
C953 C954 1.366 . S
C954 C953 1.366 . S
C954 C955 1.414 . S
C954 C957 1.499 . S
C955 H929 0.950 . S
C955 C954 1.414 . S
C955 C956 1.374 . S
C956 H930 0.950 . S
C956 C952 1.385 . S
C956 C955 1.374 . S
C957 C954 1.499 . S
C957 C958 1.373 . S
C957 C959 1.389 . S
C958 H931 0.950 . S
C958 C944 1.377 . S
C958 C957 1.373 . S
C959 C943 1.377 . S
C959 C957 1.389 . S
C959 C960 1.524 . S
C960 C959 1.524 . S
C960 C961 1.397 . S
C960 C965 1.363 . S
C961 H932 0.950 . S
C961 C960 1.397 . S
C961 C962 1.334 . S
C962 H933 0.950 . S
C962 C961 1.334 . S
C962 C963 1.287 . S
C963 C962 1.287 . S
C963 C964 1.524 . S
C963 H966 0.999 . S
C964 H934 0.950 . S
C964 C963 1.524 . S
C964 C965 1.415 . S
C965 H935 0.950 . S
C965 C960 1.363 . S
C965 C964 1.415 . S
H966 C963 0.999 . S
H967 C948 0.913 . S
H968 C986 0.951 . S
H969 C988 0.951 . S
H970 C990 0.950 . S
H971 C991 0.950 . S
H972 C993 0.950 . S
H973 C996 0.950 . S
H974 C997 0.950 . S
H975 C999 0.950 . S
H976 C1000 0.950 . S
H977 C1001 0.951 . S
H978 C1003 0.951 . S
H979 C1005 0.950 . S
H980 C1006 0.950 . S
H981 C1008 0.950 . S
H982 C1011 0.950 . S
H983 C1012 0.950 . S
H984 C1014 0.950 . S
H985 C1015 0.950 . S
C986 H968 0.951 . S
C986 C987 1.366 . S
C986 C988 1.388 . S
C987 C986 1.366 . S
C987 C991 1.385 . S
C988 H969 0.951 . S
C988 C986 1.388 . S
C988 C989 1.366 . S
C989 C988 1.366 . S
C989 C990 1.414 . S
C989 C992 1.499 . S
C990 H970 0.950 . S
C990 C989 1.414 . S
C990 C991 1.374 . S
C991 H971 0.950 . S
C991 C987 1.385 . S
C991 C990 1.374 . S
C992 C989 1.499 . S
C992 C993 1.373 . S
C992 C994 1.389 . S
C993 H972 0.950 . S
C993 C992 1.373 . S
C993 C1009 1.377 . S
C994 C992 1.389 . S
C994 C995 1.524 . S
C994 C1008 1.377 . S
C995 C994 1.524 . S
C995 C996 1.397 . S
C995 C1000 1.363 . S
C996 H973 0.950 . S
C996 C995 1.397 . S
C996 C997 1.334 . S
C997 H974 0.950 . S
C997 C996 1.334 . S
C997 C998 1.287 . S
C998 C997 1.287 . S
C998 C999 1.524 . S
C998 H1017 0.913 . S
C999 H975 0.950 . S
C999 C998 1.524 . S
C999 C1000 1.415 . S
C1000 H976 0.950 . S
C1000 C995 1.363 . S
C1000 C999 1.415 . S
C1001 H977 0.951 . S
C1001 C1002 1.366 . S
C1001 C1003 1.388 . S
C1002 C1001 1.366 . S
C1002 C1006 1.385 . S
C1003 H978 0.951 . S
C1003 C1001 1.388 . S
C1003 C1004 1.366 . S
C1004 C1003 1.366 . S
C1004 C1005 1.414 . S
C1004 C1007 1.499 . S
C1005 H979 0.950 . S
C1005 C1004 1.414 . S
C1005 C1006 1.374 . S
C1006 H980 0.950 . S
C1006 C1002 1.385 . S
C1006 C1005 1.374 . S
C1007 C1004 1.499 . S
C1007 C1008 1.373 . S
C1007 C1009 1.389 . S
C1008 H981 0.950 . S
C1008 C994 1.377 . S
C1008 C1007 1.373 . S
C1009 C993 1.377 . S
C1009 C1007 1.389 . S
C1009 C1010 1.524 . S
C1010 C1009 1.524 . S
C1010 C1011 1.397 . S
C1010 C1015 1.363 . S
C1011 H982 0.950 . S
C1011 C1010 1.397 . S
C1011 C1012 1.334 . S
C1012 H983 0.950 . S
C1012 C1011 1.334 . S
C1012 C1013 1.287 . S
C1013 C1012 1.287 . S
C1013 C1014 1.524 . S
C1013 H1016 0.999 . S
C1014 H984 0.950 . S
C1014 C1013 1.524 . S
C1014 C1015 1.415 . S
C1015 H985 0.950 . S
C1015 C1010 1.363 . S
C1015 C1014 1.415 . S
H1016 C1013 0.999 . S
H1017 C998 0.913 . S
H1018 C1036 0.951 . S
H1019 C1038 0.951 . S
H1020 C1040 0.950 . S
H1021 C1041 0.950 . S
H1022 C1043 0.950 . S
H1023 C1046 0.950 . S
H1024 C1047 0.950 . S
H1025 C1049 0.950 . S
H1026 C1050 0.950 . S
H1027 C1051 0.951 . S
H1028 C1053 0.951 . S
H1029 C1055 0.950 . S
H1030 C1056 0.950 . S
H1031 C1058 0.950 . S
H1032 C1061 0.950 . S
H1033 C1062 0.950 . S
H1034 C1064 0.950 . S
H1035 C1065 0.950 . S
C1036 H1018 0.951 . S
C1036 C1037 1.366 . S
C1036 C1038 1.388 . S
C1037 C1036 1.366 . S
C1037 C1041 1.385 . S
C1038 H1019 0.951 . S
C1038 C1036 1.388 . S
C1038 C1039 1.366 . S
C1039 C1038 1.366 . S
C1039 C1040 1.414 . S
C1039 C1042 1.499 . S
C1040 H1020 0.950 . S
C1040 C1039 1.414 . S
C1040 C1041 1.374 . S
C1041 H1021 0.950 . S
C1041 C1037 1.385 . S
C1041 C1040 1.374 . S
C1042 C1039 1.499 . S
C1042 C1043 1.373 . S
C1042 C1044 1.389 . S
C1043 H1022 0.950 . S
C1043 C1042 1.373 . S
C1043 C1059 1.377 . S
C1044 C1042 1.389 . S
C1044 C1045 1.524 . S
C1044 C1058 1.377 . S
C1045 C1044 1.524 . S
C1045 C1046 1.397 . S
C1045 C1050 1.363 . S
C1046 H1023 0.950 . S
C1046 C1045 1.397 . S
C1046 C1047 1.334 . S
C1047 H1024 0.950 . S
C1047 C1046 1.334 . S
C1047 C1048 1.287 . S
C1048 C1047 1.287 . S
C1048 C1049 1.524 . S
C1048 H1067 0.913 . S
C1049 H1025 0.950 . S
C1049 C1048 1.524 . S
C1049 C1050 1.415 . S
C1050 H1026 0.950 . S
C1050 C1045 1.363 . S
C1050 C1049 1.415 . S
C1051 H1027 0.951 . S
C1051 C1052 1.366 . S
C1051 C1053 1.388 . S
C1052 C1051 1.366 . S
C1052 C1056 1.385 . S
C1053 H1028 0.951 . S
C1053 C1051 1.388 . S
C1053 C1054 1.366 . S
C1054 C1053 1.366 . S
C1054 C1055 1.414 . S
C1054 C1057 1.499 . S
C1055 H1029 0.950 . S
C1055 C1054 1.414 . S
C1055 C1056 1.374 . S
C1056 H1030 0.950 . S
C1056 C1052 1.385 . S
C1056 C1055 1.374 . S
C1057 C1054 1.499 . S
C1057 C1058 1.373 . S
C1057 C1059 1.389 . S
C1058 H1031 0.950 . S
C1058 C1044 1.377 . S
C1058 C1057 1.373 . S
C1059 C1043 1.377 . S
C1059 C1057 1.389 . S
C1059 C1060 1.524 . S
C1060 C1059 1.524 . S
C1060 C1061 1.397 . S
C1060 C1065 1.363 . S
C1061 H1032 0.950 . S
C1061 C1060 1.397 . S
C1061 C1062 1.334 . S
C1062 H1033 0.950 . S
C1062 C1061 1.334 . S
C1062 C1063 1.287 . S
C1063 C1062 1.287 . S
C1063 C1064 1.524 . S
C1063 H1066 0.999 . S
C1064 H1034 0.950 . S
C1064 C1063 1.524 . S
C1064 C1065 1.415 . S
C1065 H1035 0.950 . S
C1065 C1060 1.363 . S
C1065 C1064 1.415 . S
H1066 C1063 0.999 . S
H1067 C1048 0.913 . S
H1068 C1086 0.951 . S
H1069 C1088 0.951 . S
H1070 C1090 0.950 . S
H1071 C1091 0.950 . S
H1072 C1093 0.950 . S
H1073 C1096 0.950 . S
H1074 C1097 0.950 . S
H1075 C1099 0.950 . S
H1076 C1100 0.950 . S
H1077 C1101 0.951 . S
H1078 C1103 0.951 . S
H1079 C1105 0.950 . S
H1080 C1106 0.950 . S
H1081 C1108 0.950 . S
H1082 C1111 0.950 . S
H1083 C1112 0.950 . S
H1084 C1114 0.950 . S
H1085 C1115 0.950 . S
C1086 H1068 0.951 . S
C1086 C1087 1.366 . S
C1086 C1088 1.388 . S
C1087 C1086 1.366 . S
C1087 C1091 1.385 . S
C1088 H1069 0.951 . S
C1088 C1086 1.388 . S
C1088 C1089 1.366 . S
C1089 C1088 1.366 . S
C1089 C1090 1.414 . S
C1089 C1092 1.499 . S
C1090 H1070 0.950 . S
C1090 C1089 1.414 . S
C1090 C1091 1.374 . S
C1091 H1071 0.950 . S
C1091 C1087 1.385 . S
C1091 C1090 1.374 . S
C1092 C1089 1.499 . S
C1092 C1093 1.373 . S
C1092 C1094 1.389 . S
C1093 H1072 0.950 . S
C1093 C1092 1.373 . S
C1093 C1109 1.377 . S
C1094 C1092 1.389 . S
C1094 C1095 1.524 . S
C1094 C1108 1.377 . S
C1095 C1094 1.524 . S
C1095 C1096 1.397 . S
C1095 C1100 1.363 . S
C1096 H1073 0.950 . S
C1096 C1095 1.397 . S
C1096 C1097 1.334 . S
C1097 H1074 0.950 . S
C1097 C1096 1.334 . S
C1097 C1098 1.287 . S
C1098 C1097 1.287 . S
C1098 C1099 1.524 . S
C1098 H1117 0.913 . S
C1099 H1075 0.950 . S
C1099 C1098 1.524 . S
C1099 C1100 1.415 . S
C1100 H1076 0.950 . S
C1100 C1095 1.363 . S
C1100 C1099 1.415 . S
C1101 H1077 0.951 . S
C1101 C1102 1.366 . S
C1101 C1103 1.388 . S
C1102 C1101 1.366 . S
C1102 C1106 1.385 . S
C1103 H1078 0.951 . S
C1103 C1101 1.388 . S
C1103 C1104 1.366 . S
C1104 C1103 1.366 . S
C1104 C1105 1.414 . S
C1104 C1107 1.499 . S
C1105 H1079 0.950 . S
C1105 C1104 1.414 . S
C1105 C1106 1.374 . S
C1106 H1080 0.950 . S
C1106 C1102 1.385 . S
C1106 C1105 1.374 . S
C1107 C1104 1.499 . S
C1107 C1108 1.373 . S
C1107 C1109 1.389 . S
C1108 H1081 0.950 . S
C1108 C1094 1.377 . S
C1108 C1107 1.373 . S
C1109 C1093 1.377 . S
C1109 C1107 1.389 . S
C1109 C1110 1.524 . S
C1110 C1109 1.524 . S
C1110 C1111 1.397 . S
C1110 C1115 1.363 . S
C1111 H1082 0.950 . S
C1111 C1110 1.397 . S
C1111 C1112 1.334 . S
C1112 H1083 0.950 . S
C1112 C1111 1.334 . S
C1112 C1113 1.287 . S
C1113 C1112 1.287 . S
C1113 C1114 1.524 . S
C1113 H1116 0.999 . S
C1114 H1084 0.950 . S
C1114 C1113 1.524 . S
C1114 C1115 1.415 . S
C1115 H1085 0.950 . S
C1115 C1110 1.363 . S
C1115 C1114 1.415 . S
H1116 C1113 0.999 . S
H1117 C1098 0.913 . S
H1118 C1136 0.951 . S
H1119 C1138 0.951 . S
H1120 C1140 0.950 . S
H1121 C1141 0.950 . S
H1122 C1143 0.950 . S
H1123 C1146 0.950 . S
H1124 C1147 0.950 . S
H1125 C1149 0.950 . S
H1126 C1150 0.950 . S
H1127 C1151 0.951 . S
H1128 C1153 0.951 . S
H1129 C1155 0.950 . S
H1130 C1156 0.950 . S
H1131 C1158 0.950 . S
H1132 C1161 0.950 . S
H1133 C1162 0.950 . S
H1134 C1164 0.950 . S
H1135 C1165 0.950 . S
C1136 H1118 0.951 . S
C1136 C1137 1.366 . S
C1136 C1138 1.388 . S
C1137 C1136 1.366 . S
C1137 C1141 1.385 . S
C1138 H1119 0.951 . S
C1138 C1136 1.388 . S
C1138 C1139 1.366 . S
C1139 C1138 1.366 . S
C1139 C1140 1.414 . S
C1139 C1142 1.499 . S
C1140 H1120 0.950 . S
C1140 C1139 1.414 . S
C1140 C1141 1.374 . S
C1141 H1121 0.950 . S
C1141 C1137 1.385 . S
C1141 C1140 1.374 . S
C1142 C1139 1.499 . S
C1142 C1143 1.373 . S
C1142 C1144 1.389 . S
C1143 H1122 0.950 . S
C1143 C1142 1.373 . S
C1143 C1159 1.377 . S
C1144 C1142 1.389 . S
C1144 C1145 1.524 . S
C1144 C1158 1.377 . S
C1145 C1144 1.524 . S
C1145 C1146 1.397 . S
C1145 C1150 1.363 . S
C1146 H1123 0.950 . S
C1146 C1145 1.397 . S
C1146 C1147 1.334 . S
C1147 H1124 0.950 . S
C1147 C1146 1.334 . S
C1147 C1148 1.287 . S
C1148 C1147 1.287 . S
C1148 C1149 1.524 . S
C1148 H1167 0.913 . S
C1149 H1125 0.950 . S
C1149 C1148 1.524 . S
C1149 C1150 1.415 . S
C1150 H1126 0.950 . S
C1150 C1145 1.363 . S
C1150 C1149 1.415 . S
C1151 H1127 0.951 . S
C1151 C1152 1.366 . S
C1151 C1153 1.388 . S
C1152 C1151 1.366 . S
C1152 C1156 1.385 . S
C1153 H1128 0.951 . S
C1153 C1151 1.388 . S
C1153 C1154 1.366 . S
C1154 C1153 1.366 . S
C1154 C1155 1.414 . S
C1154 C1157 1.499 . S
C1155 H1129 0.950 . S
C1155 C1154 1.414 . S
C1155 C1156 1.374 . S
C1156 H1130 0.950 . S
C1156 C1152 1.385 . S
C1156 C1155 1.374 . S
C1157 C1154 1.499 . S
C1157 C1158 1.373 . S
C1157 C1159 1.389 . S
C1158 H1131 0.950 . S
C1158 C1144 1.377 . S
C1158 C1157 1.373 . S
C1159 C1143 1.377 . S
C1159 C1157 1.389 . S
C1159 C1160 1.524 . S
C1160 C1159 1.524 . S
C1160 C1161 1.397 . S
C1160 C1165 1.363 . S
C1161 H1132 0.950 . S
C1161 C1160 1.397 . S
C1161 C1162 1.334 . S
C1162 H1133 0.950 . S
C1162 C1161 1.334 . S
C1162 C1163 1.287 . S
C1163 C1162 1.287 . S
C1163 C1164 1.524 . S
C1163 H1166 0.999 . S
C1164 H1134 0.950 . S
C1164 C1163 1.524 . S
C1164 C1165 1.415 . S
C1165 H1135 0.950 . S
C1165 C1160 1.363 . S
C1165 C1164 1.415 . S
H1166 C1163 0.999 . S
H1167 C1148 0.913 . S
H1168 C1186 0.951 . S
H1169 C1188 0.951 . S
H1170 C1190 0.950 . S
H1171 C1191 0.950 . S
H1172 C1193 0.950 . S
H1173 C1196 0.950 . S
H1174 C1197 0.950 . S
H1175 C1199 0.950 . S
H1176 C1200 0.950 . S
H1177 C1201 0.951 . S
H1178 C1203 0.951 . S
H1179 C1205 0.950 . S
H1180 C1206 0.950 . S
H1181 C1208 0.950 . S
H1182 C1211 0.950 . S
H1183 C1212 0.950 . S
H1184 C1214 0.950 . S
H1185 C1215 0.950 . S
C1186 H1168 0.951 . S
C1186 C1187 1.366 . S
C1186 C1188 1.388 . S
C1187 C1186 1.366 . S
C1187 C1191 1.385 . S
C1188 H1169 0.951 . S
C1188 C1186 1.388 . S
C1188 C1189 1.366 . S
C1189 C1188 1.366 . S
C1189 C1190 1.414 . S
C1189 C1192 1.499 . S
C1190 H1170 0.950 . S
C1190 C1189 1.414 . S
C1190 C1191 1.374 . S
C1191 H1171 0.950 . S
C1191 C1187 1.385 . S
C1191 C1190 1.374 . S
C1192 C1189 1.499 . S
C1192 C1193 1.373 . S
C1192 C1194 1.389 . S
C1193 H1172 0.950 . S
C1193 C1192 1.373 . S
C1193 C1209 1.377 . S
C1194 C1192 1.389 . S
C1194 C1195 1.524 . S
C1194 C1208 1.377 . S
C1195 C1194 1.524 . S
C1195 C1196 1.397 . S
C1195 C1200 1.363 . S
C1196 H1173 0.950 . S
C1196 C1195 1.397 . S
C1196 C1197 1.334 . S
C1197 H1174 0.950 . S
C1197 C1196 1.334 . S
C1197 C1198 1.287 . S
C1198 C1197 1.287 . S
C1198 C1199 1.524 . S
C1198 H1217 0.913 . S
C1199 H1175 0.950 . S
C1199 C1198 1.524 . S
C1199 C1200 1.415 . S
C1200 H1176 0.950 . S
C1200 C1195 1.363 . S
C1200 C1199 1.415 . S
C1201 H1177 0.951 . S
C1201 C1202 1.366 . S
C1201 C1203 1.388 . S
C1202 C1201 1.366 . S
C1202 C1206 1.385 . S
C1203 H1178 0.951 . S
C1203 C1201 1.388 . S
C1203 C1204 1.366 . S
C1204 C1203 1.366 . S
C1204 C1205 1.414 . S
C1204 C1207 1.499 . S
C1205 H1179 0.950 . S
C1205 C1204 1.414 . S
C1205 C1206 1.374 . S
C1206 H1180 0.950 . S
C1206 C1202 1.385 . S
C1206 C1205 1.374 . S
C1207 C1204 1.499 . S
C1207 C1208 1.373 . S
C1207 C1209 1.389 . S
C1208 H1181 0.950 . S
C1208 C1194 1.377 . S
C1208 C1207 1.373 . S
C1209 C1193 1.377 . S
C1209 C1207 1.389 . S
C1209 C1210 1.524 . S
C1210 C1209 1.524 . S
C1210 C1211 1.397 . S
C1210 C1215 1.363 . S
C1211 H1182 0.950 . S
C1211 C1210 1.397 . S
C1211 C1212 1.334 . S
C1212 H1183 0.950 . S
C1212 C1211 1.334 . S
C1212 C1213 1.287 . S
C1213 C1212 1.287 . S
C1213 C1214 1.524 . S
C1213 H1216 0.999 . S
C1214 H1184 0.950 . S
C1214 C1213 1.524 . S
C1214 C1215 1.415 . S
C1215 H1185 0.950 . S
C1215 C1210 1.363 . S
C1215 C1214 1.415 . S
H1216 C1213 0.999 . S
H1217 C1198 0.913 . S
H1218 C1236 0.951 . S
H1219 C1238 0.951 . S
H1220 C1240 0.950 . S
H1221 C1241 0.950 . S
H1222 C1243 0.950 . S
H1223 C1246 0.950 . S
H1224 C1247 0.950 . S
H1225 C1249 0.950 . S
H1226 C1250 0.950 . S
H1227 C1251 0.951 . S
H1228 C1253 0.951 . S
H1229 C1255 0.950 . S
H1230 C1256 0.950 . S
H1231 C1258 0.950 . S
H1232 C1261 0.950 . S
H1233 C1262 0.950 . S
H1234 C1264 0.950 . S
H1235 C1265 0.950 . S
C1236 H1218 0.951 . S
C1236 C1237 1.366 . S
C1236 C1238 1.388 . S
C1237 C1236 1.366 . S
C1237 C1241 1.385 . S
C1238 H1219 0.951 . S
C1238 C1236 1.388 . S
C1238 C1239 1.366 . S
C1239 C1238 1.366 . S
C1239 C1240 1.414 . S
C1239 C1242 1.499 . S
C1240 H1220 0.950 . S
C1240 C1239 1.414 . S
C1240 C1241 1.374 . S
C1241 H1221 0.950 . S
C1241 C1237 1.385 . S
C1241 C1240 1.374 . S
C1242 C1239 1.499 . S
C1242 C1243 1.373 . S
C1242 C1244 1.389 . S
C1243 H1222 0.950 . S
C1243 C1242 1.373 . S
C1243 C1259 1.377 . S
C1244 C1242 1.389 . S
C1244 C1245 1.524 . S
C1244 C1258 1.377 . S
C1245 C1244 1.524 . S
C1245 C1246 1.397 . S
C1245 C1250 1.363 . S
C1246 H1223 0.950 . S
C1246 C1245 1.397 . S
C1246 C1247 1.334 . S
C1247 H1224 0.950 . S
C1247 C1246 1.334 . S
C1247 C1248 1.287 . S
C1248 C1247 1.287 . S
C1248 C1249 1.524 . S
C1248 H1267 0.913 . S
C1249 H1225 0.950 . S
C1249 C1248 1.524 . S
C1249 C1250 1.415 . S
C1250 H1226 0.950 . S
C1250 C1245 1.363 . S
C1250 C1249 1.415 . S
C1251 H1227 0.951 . S
C1251 C1252 1.366 . S
C1251 C1253 1.388 . S
C1252 C1251 1.366 . S
C1252 C1256 1.385 . S
C1253 H1228 0.951 . S
C1253 C1251 1.388 . S
C1253 C1254 1.366 . S
C1254 C1253 1.366 . S
C1254 C1255 1.414 . S
C1254 C1257 1.499 . S
C1255 H1229 0.950 . S
C1255 C1254 1.414 . S
C1255 C1256 1.374 . S
C1256 H1230 0.950 . S
C1256 C1252 1.385 . S
C1256 C1255 1.374 . S
C1257 C1254 1.499 . S
C1257 C1258 1.373 . S
C1257 C1259 1.389 . S
C1258 H1231 0.950 . S
C1258 C1244 1.377 . S
C1258 C1257 1.373 . S
C1259 C1243 1.377 . S
C1259 C1257 1.389 . S
C1259 C1260 1.524 . S
C1260 C1259 1.524 . S
C1260 C1261 1.397 . S
C1260 C1265 1.363 . S
C1261 H1232 0.950 . S
C1261 C1260 1.397 . S
C1261 C1262 1.334 . S
C1262 H1233 0.950 . S
C1262 C1261 1.334 . S
C1262 C1263 1.287 . S
C1263 C1262 1.287 . S
C1263 C1264 1.524 . S
C1263 H1266 0.999 . S
C1264 H1234 0.950 . S
C1264 C1263 1.524 . S
C1264 C1265 1.415 . S
C1265 H1235 0.950 . S
C1265 C1260 1.363 . S
C1265 C1264 1.415 . S
H1266 C1263 0.999 . S
H1267 C1248 0.913 . S
H1268 C1286 0.951 . S
H1269 C1288 0.951 . S
H1270 C1290 0.950 . S
H1271 C1291 0.950 . S
H1272 C1293 0.950 . S
H1273 C1296 0.950 . S
H1274 C1297 0.950 . S
H1275 C1299 0.950 . S
H1276 C1300 0.950 . S
H1277 C1301 0.951 . S
H1278 C1303 0.951 . S
H1279 C1305 0.950 . S
H1280 C1306 0.950 . S
H1281 C1308 0.950 . S
H1282 C1311 0.950 . S
H1283 C1312 0.950 . S
H1284 C1314 0.950 . S
H1285 C1315 0.950 . S
C1286 H1268 0.951 . S
C1286 C1287 1.366 . S
C1286 C1288 1.388 . S
C1287 C1286 1.366 . S
C1287 C1291 1.385 . S
C1288 H1269 0.951 . S
C1288 C1286 1.388 . S
C1288 C1289 1.366 . S
C1289 C1288 1.366 . S
C1289 C1290 1.414 . S
C1289 C1292 1.499 . S
C1290 H1270 0.950 . S
C1290 C1289 1.414 . S
C1290 C1291 1.374 . S
C1291 H1271 0.950 . S
C1291 C1287 1.385 . S
C1291 C1290 1.374 . S
C1292 C1289 1.499 . S
C1292 C1293 1.373 . S
C1292 C1294 1.389 . S
C1293 H1272 0.950 . S
C1293 C1292 1.373 . S
C1293 C1309 1.377 . S
C1294 C1292 1.389 . S
C1294 C1295 1.524 . S
C1294 C1308 1.377 . S
C1295 C1294 1.524 . S
C1295 C1296 1.397 . S
C1295 C1300 1.363 . S
C1296 H1273 0.950 . S
C1296 C1295 1.397 . S
C1296 C1297 1.334 . S
C1297 H1274 0.950 . S
C1297 C1296 1.334 . S
C1297 C1298 1.287 . S
C1298 C1297 1.287 . S
C1298 C1299 1.524 . S
C1298 H1317 0.913 . S
C1299 H1275 0.950 . S
C1299 C1298 1.524 . S
C1299 C1300 1.415 . S
C1300 H1276 0.950 . S
C1300 C1295 1.363 . S
C1300 C1299 1.415 . S
C1301 H1277 0.951 . S
C1301 C1302 1.366 . S
C1301 C1303 1.388 . S
C1302 C1301 1.366 . S
C1302 C1306 1.385 . S
C1303 H1278 0.951 . S
C1303 C1301 1.388 . S
C1303 C1304 1.366 . S
C1304 C1303 1.366 . S
C1304 C1305 1.414 . S
C1304 C1307 1.499 . S
C1305 H1279 0.950 . S
C1305 C1304 1.414 . S
C1305 C1306 1.374 . S
C1306 H1280 0.950 . S
C1306 C1302 1.385 . S
C1306 C1305 1.374 . S
C1307 C1304 1.499 . S
C1307 C1308 1.373 . S
C1307 C1309 1.389 . S
C1308 H1281 0.950 . S
C1308 C1294 1.377 . S
C1308 C1307 1.373 . S
C1309 C1293 1.377 . S
C1309 C1307 1.389 . S
C1309 C1310 1.524 . S
C1310 C1309 1.524 . S
C1310 C1311 1.397 . S
C1310 C1315 1.363 . S
C1311 H1282 0.950 . S
C1311 C1310 1.397 . S
C1311 C1312 1.334 . S
C1312 H1283 0.950 . S
C1312 C1311 1.334 . S
C1312 C1313 1.287 . S
C1313 C1312 1.287 . S
C1313 C1314 1.524 . S
C1313 H1316 0.999 . S
C1314 H1284 0.950 . S
C1314 C1313 1.524 . S
C1314 C1315 1.415 . S
C1315 H1285 0.950 . S
C1315 C1310 1.363 . S
C1315 C1314 1.415 . S
H1316 C1313 0.999 . S
H1317 C1298 0.913 . S
H1318 C1336 0.951 . S
H1319 C1338 0.951 . S
H1320 C1340 0.950 . S
H1321 C1341 0.950 . S
H1322 C1343 0.950 . S
H1323 C1346 0.950 . S
H1324 C1347 0.950 . S
H1325 C1349 0.950 . S
H1326 C1350 0.950 . S
H1327 C1351 0.951 . S
H1328 C1353 0.951 . S
H1329 C1355 0.950 . S
H1330 C1356 0.950 . S
H1331 C1358 0.950 . S
H1332 C1361 0.950 . S
H1333 C1362 0.950 . S
H1334 C1364 0.950 . S
H1335 C1365 0.950 . S
C1336 H1318 0.951 . S
C1336 C1337 1.366 . S
C1336 C1338 1.388 . S
C1337 C1336 1.366 . S
C1337 C1341 1.385 . S
C1338 H1319 0.951 . S
C1338 C1336 1.388 . S
C1338 C1339 1.366 . S
C1339 C1338 1.366 . S
C1339 C1340 1.414 . S
C1339 C1342 1.499 . S
C1340 H1320 0.950 . S
C1340 C1339 1.414 . S
C1340 C1341 1.374 . S
C1341 H1321 0.950 . S
C1341 C1337 1.385 . S
C1341 C1340 1.374 . S
C1342 C1339 1.499 . S
C1342 C1343 1.373 . S
C1342 C1344 1.389 . S
C1343 H1322 0.950 . S
C1343 C1342 1.373 . S
C1343 C1359 1.377 . S
C1344 C1342 1.389 . S
C1344 C1345 1.524 . S
C1344 C1358 1.377 . S
C1345 C1344 1.524 . S
C1345 C1346 1.397 . S
C1345 C1350 1.363 . S
C1346 H1323 0.950 . S
C1346 C1345 1.397 . S
C1346 C1347 1.334 . S
C1347 H1324 0.950 . S
C1347 C1346 1.334 . S
C1347 C1348 1.287 . S
C1348 C1347 1.287 . S
C1348 C1349 1.524 . S
C1348 H1367 0.913 . S
C1349 H1325 0.950 . S
C1349 C1348 1.524 . S
C1349 C1350 1.415 . S
C1350 H1326 0.950 . S
C1350 C1345 1.363 . S
C1350 C1349 1.415 . S
C1351 H1327 0.951 . S
C1351 C1352 1.366 . S
C1351 C1353 1.388 . S
C1352 C1351 1.366 . S
C1352 C1356 1.385 . S
C1353 H1328 0.951 . S
C1353 C1351 1.388 . S
C1353 C1354 1.366 . S
C1354 C1353 1.366 . S
C1354 C1355 1.414 . S
C1354 C1357 1.499 . S
C1355 H1329 0.950 . S
C1355 C1354 1.414 . S
C1355 C1356 1.374 . S
C1356 H1330 0.950 . S
C1356 C1352 1.385 . S
C1356 C1355 1.374 . S
C1357 C1354 1.499 . S
C1357 C1358 1.373 . S
C1357 C1359 1.389 . S
C1358 H1331 0.950 . S
C1358 C1344 1.377 . S
C1358 C1357 1.373 . S
C1359 C1343 1.377 . S
C1359 C1357 1.389 . S
C1359 C1360 1.524 . S
C1360 C1359 1.524 . S
C1360 C1361 1.397 . S
C1360 C1365 1.363 . S
C1361 H1332 0.950 . S
C1361 C1360 1.397 . S
C1361 C1362 1.334 . S
C1362 H1333 0.950 . S
C1362 C1361 1.334 . S
C1362 C1363 1.287 . S
C1363 C1362 1.287 . S
C1363 C1364 1.524 . S
C1363 H1366 0.999 . S
C1364 H1334 0.950 . S
C1364 C1363 1.524 . S
C1364 C1365 1.415 . S
C1365 H1335 0.950 . S
C1365 C1360 1.363 . S
C1365 C1364 1.415 . S
H1366 C1363 0.999 . S
H1367 C1348 0.913 . S
H1368 C1386 0.951 . S
H1369 C1388 0.951 . S
H1370 C1390 0.950 . S
H1371 C1391 0.950 . S
H1372 C1393 0.950 . S
H1373 C1396 0.950 . S
H1374 C1397 0.950 . S
H1375 C1399 0.950 . S
H1376 C1400 0.950 . S
H1377 C1401 0.951 . S
H1378 C1403 0.951 . S
H1379 C1405 0.950 . S
H1380 C1406 0.950 . S
H1381 C1408 0.950 . S
H1382 C1411 0.950 . S
H1383 C1412 0.950 . S
H1384 C1414 0.950 . S
H1385 C1415 0.950 . S
C1386 H1368 0.951 . S
C1386 C1387 1.366 . S
C1386 C1388 1.388 . S
C1387 C1386 1.366 . S
C1387 C1391 1.385 . S
C1388 H1369 0.951 . S
C1388 C1386 1.388 . S
C1388 C1389 1.366 . S
C1389 C1388 1.366 . S
C1389 C1390 1.414 . S
C1389 C1392 1.499 . S
C1390 H1370 0.950 . S
C1390 C1389 1.414 . S
C1390 C1391 1.374 . S
C1391 H1371 0.950 . S
C1391 C1387 1.385 . S
C1391 C1390 1.374 . S
C1392 C1389 1.499 . S
C1392 C1393 1.373 . S
C1392 C1394 1.389 . S
C1393 H1372 0.950 . S
C1393 C1392 1.373 . S
C1393 C1409 1.377 . S
C1394 C1392 1.389 . S
C1394 C1395 1.524 . S
C1394 C1408 1.377 . S
C1395 C1394 1.524 . S
C1395 C1396 1.397 . S
C1395 C1400 1.363 . S
C1396 H1373 0.950 . S
C1396 C1395 1.397 . S
C1396 C1397 1.334 . S
C1397 H1374 0.950 . S
C1397 C1396 1.334 . S
C1397 C1398 1.287 . S
C1398 C1397 1.287 . S
C1398 C1399 1.524 . S
C1398 H1417 0.913 . S
C1399 H1375 0.950 . S
C1399 C1398 1.524 . S
C1399 C1400 1.415 . S
C1400 H1376 0.950 . S
C1400 C1395 1.363 . S
C1400 C1399 1.415 . S
C1401 H1377 0.951 . S
C1401 C1402 1.366 . S
C1401 C1403 1.388 . S
C1402 C1401 1.366 . S
C1402 C1406 1.385 . S
C1403 H1378 0.951 . S
C1403 C1401 1.388 . S
C1403 C1404 1.366 . S
C1404 C1403 1.366 . S
C1404 C1405 1.414 . S
C1404 C1407 1.499 . S
C1405 H1379 0.950 . S
C1405 C1404 1.414 . S
C1405 C1406 1.374 . S
C1406 H1380 0.950 . S
C1406 C1402 1.385 . S
C1406 C1405 1.374 . S
C1407 C1404 1.499 . S
C1407 C1408 1.373 . S
C1407 C1409 1.389 . S
C1408 H1381 0.950 . S
C1408 C1394 1.377 . S
C1408 C1407 1.373 . S
C1409 C1393 1.377 . S
C1409 C1407 1.389 . S
C1409 C1410 1.524 . S
C1410 C1409 1.524 . S
C1410 C1411 1.397 . S
C1410 C1415 1.363 . S
C1411 H1382 0.950 . S
C1411 C1410 1.397 . S
C1411 C1412 1.334 . S
C1412 H1383 0.950 . S
C1412 C1411 1.334 . S
C1412 C1413 1.287 . S
C1413 C1412 1.287 . S
C1413 C1414 1.524 . S
C1413 H1416 0.999 . S
C1414 H1384 0.950 . S
C1414 C1413 1.524 . S
C1414 C1415 1.415 . S
C1415 H1385 0.950 . S
C1415 C1410 1.363 . S
C1415 C1414 1.415 . S
H1416 C1413 0.999 . S
H1417 C1398 0.913 . S
H1418 C1436 0.951 . S
H1419 C1438 0.951 . S
H1420 C1440 0.950 . S
H1421 C1441 0.950 . S
H1422 C1443 0.950 . S
H1423 C1446 0.950 . S
H1424 C1447 0.950 . S
H1425 C1449 0.950 . S
H1426 C1450 0.950 . S
H1427 C1451 0.951 . S
H1428 C1453 0.951 . S
H1429 C1455 0.950 . S
H1430 C1456 0.950 . S
H1431 C1458 0.950 . S
H1432 C1461 0.950 . S
H1433 C1462 0.950 . S
H1434 C1464 0.950 . S
H1435 C1465 0.950 . S
C1436 H1418 0.951 . S
C1436 C1437 1.366 . S
C1436 C1438 1.388 . S
C1437 C1436 1.366 . S
C1437 C1441 1.385 . S
C1438 H1419 0.951 . S
C1438 C1436 1.388 . S
C1438 C1439 1.366 . S
C1439 C1438 1.366 . S
C1439 C1440 1.414 . S
C1439 C1442 1.499 . S
C1440 H1420 0.950 . S
C1440 C1439 1.414 . S
C1440 C1441 1.374 . S
C1441 H1421 0.950 . S
C1441 C1437 1.385 . S
C1441 C1440 1.374 . S
C1442 C1439 1.499 . S
C1442 C1443 1.373 . S
C1442 C1444 1.389 . S
C1443 H1422 0.950 . S
C1443 C1442 1.373 . S
C1443 C1459 1.377 . S
C1444 C1442 1.389 . S
C1444 C1445 1.524 . S
C1444 C1458 1.377 . S
C1445 C1444 1.524 . S
C1445 C1446 1.397 . S
C1445 C1450 1.363 . S
C1446 H1423 0.950 . S
C1446 C1445 1.397 . S
C1446 C1447 1.334 . S
C1447 H1424 0.950 . S
C1447 C1446 1.334 . S
C1447 C1448 1.287 . S
C1448 C1447 1.287 . S
C1448 C1449 1.524 . S
C1448 H1467 0.913 . S
C1449 H1425 0.950 . S
C1449 C1448 1.524 . S
C1449 C1450 1.415 . S
C1450 H1426 0.950 . S
C1450 C1445 1.363 . S
C1450 C1449 1.415 . S
C1451 H1427 0.951 . S
C1451 C1452 1.366 . S
C1451 C1453 1.388 . S
C1452 C1451 1.366 . S
C1452 C1456 1.385 . S
C1453 H1428 0.951 . S
C1453 C1451 1.388 . S
C1453 C1454 1.366 . S
C1454 C1453 1.366 . S
C1454 C1455 1.414 . S
C1454 C1457 1.499 . S
C1455 H1429 0.950 . S
C1455 C1454 1.414 . S
C1455 C1456 1.374 . S
C1456 H1430 0.950 . S
C1456 C1452 1.385 . S
C1456 C1455 1.374 . S
C1457 C1454 1.499 . S
C1457 C1458 1.373 . S
C1457 C1459 1.389 . S
C1458 H1431 0.950 . S
C1458 C1444 1.377 . S
C1458 C1457 1.373 . S
C1459 C1443 1.377 . S
C1459 C1457 1.389 . S
C1459 C1460 1.524 . S
C1460 C1459 1.524 . S
C1460 C1461 1.397 . S
C1460 C1465 1.363 . S
C1461 H1432 0.950 . S
C1461 C1460 1.397 . S
C1461 C1462 1.334 . S
C1462 H1433 0.950 . S
C1462 C1461 1.334 . S
C1462 C1463 1.287 . S
C1463 C1462 1.287 . S
C1463 C1464 1.524 . S
C1463 H1466 0.999 . S
C1464 H1434 0.950 . S
C1464 C1463 1.524 . S
C1464 C1465 1.415 . S
C1465 H1435 0.950 . S
C1465 C1460 1.363 . S
C1465 C1464 1.415 . S
H1466 C1463 0.999 . S
H1467 C1448 0.913 . S
H1468 C1486 0.951 . S
H1469 C1488 0.951 . S
H1470 C1490 0.950 . S
H1471 C1491 0.950 . S
H1472 C1493 0.950 . S
H1473 C1496 0.950 . S
H1474 C1497 0.950 . S
H1475 C1499 0.950 . S
H1476 C1500 0.950 . S
H1477 C1501 0.951 . S
H1478 C1503 0.951 . S
H1479 C1505 0.950 . S
H1480 C1506 0.950 . S
H1481 C1508 0.950 . S
H1482 C1511 0.950 . S
H1483 C1512 0.950 . S
H1484 C1514 0.950 . S
H1485 C1515 0.950 . S
C1486 H1468 0.951 . S
C1486 C1487 1.366 . S
C1486 C1488 1.388 . S
C1487 C1486 1.366 . S
C1487 C1491 1.385 . S
C1488 H1469 0.951 . S
C1488 C1486 1.388 . S
C1488 C1489 1.366 . S
C1489 C1488 1.366 . S
C1489 C1490 1.414 . S
C1489 C1492 1.499 . S
C1490 H1470 0.950 . S
C1490 C1489 1.414 . S
C1490 C1491 1.374 . S
C1491 H1471 0.950 . S
C1491 C1487 1.385 . S
C1491 C1490 1.374 . S
C1492 C1489 1.499 . S
C1492 C1493 1.373 . S
C1492 C1494 1.389 . S
C1493 H1472 0.950 . S
C1493 C1492 1.373 . S
C1493 C1509 1.377 . S
C1494 C1492 1.389 . S
C1494 C1495 1.524 . S
C1494 C1508 1.377 . S
C1495 C1494 1.524 . S
C1495 C1496 1.397 . S
C1495 C1500 1.363 . S
C1496 H1473 0.950 . S
C1496 C1495 1.397 . S
C1496 C1497 1.334 . S
C1497 H1474 0.950 . S
C1497 C1496 1.334 . S
C1497 C1498 1.287 . S
C1498 C1497 1.287 . S
C1498 C1499 1.524 . S
C1498 H1517 0.913 . S
C1499 H1475 0.950 . S
C1499 C1498 1.524 . S
C1499 C1500 1.415 . S
C1500 H1476 0.950 . S
C1500 C1495 1.363 . S
C1500 C1499 1.415 . S
C1501 H1477 0.951 . S
C1501 C1502 1.366 . S
C1501 C1503 1.388 . S
C1502 C1501 1.366 . S
C1502 C1506 1.385 . S
C1503 H1478 0.951 . S
C1503 C1501 1.388 . S
C1503 C1504 1.366 . S
C1504 C1503 1.366 . S
C1504 C1505 1.414 . S
C1504 C1507 1.499 . S
C1505 H1479 0.950 . S
C1505 C1504 1.414 . S
C1505 C1506 1.374 . S
C1506 H1480 0.950 . S
C1506 C1502 1.385 . S
C1506 C1505 1.374 . S
C1507 C1504 1.499 . S
C1507 C1508 1.373 . S
C1507 C1509 1.389 . S
C1508 H1481 0.950 . S
C1508 C1494 1.377 . S
C1508 C1507 1.373 . S
C1509 C1493 1.377 . S
C1509 C1507 1.389 . S
C1509 C1510 1.524 . S
C1510 C1509 1.524 . S
C1510 C1511 1.397 . S
C1510 C1515 1.363 . S
C1511 H1482 0.950 . S
C1511 C1510 1.397 . S
C1511 C1512 1.334 . S
C1512 H1483 0.950 . S
C1512 C1511 1.334 . S
C1512 C1513 1.287 . S
C1513 C1512 1.287 . S
C1513 C1514 1.524 . S
C1513 H1516 0.999 . S
C1514 H1484 0.950 . S
C1514 C1513 1.524 . S
C1514 C1515 1.415 . S
C1515 H1485 0.950 . S
C1515 C1510 1.363 . S
C1515 C1514 1.415 . S
H1516 C1513 0.999 . S
H1517 C1498 0.913 . S
H1518 C1536 0.951 . S
H1519 C1538 0.951 . S
H1520 C1540 0.950 . S
H1521 C1541 0.950 . S
H1522 C1543 0.950 . S
H1523 C1546 0.950 . S
H1524 C1547 0.950 . S
H1525 C1549 0.950 . S
H1526 C1550 0.950 . S
H1527 C1551 0.951 . S
H1528 C1553 0.951 . S
H1529 C1555 0.950 . S
H1530 C1556 0.950 . S
H1531 C1558 0.950 . S
H1532 C1561 0.950 . S
H1533 C1562 0.950 . S
H1534 C1564 0.950 . S
H1535 C1565 0.950 . S
C1536 H1518 0.951 . S
C1536 C1537 1.366 . S
C1536 C1538 1.388 . S
C1537 C1536 1.366 . S
C1537 C1541 1.385 . S
C1538 H1519 0.951 . S
C1538 C1536 1.388 . S
C1538 C1539 1.366 . S
C1539 C1538 1.366 . S
C1539 C1540 1.414 . S
C1539 C1542 1.499 . S
C1540 H1520 0.950 . S
C1540 C1539 1.414 . S
C1540 C1541 1.374 . S
C1541 H1521 0.950 . S
C1541 C1537 1.385 . S
C1541 C1540 1.374 . S
C1542 C1539 1.499 . S
C1542 C1543 1.373 . S
C1542 C1544 1.389 . S
C1543 H1522 0.950 . S
C1543 C1542 1.373 . S
C1543 C1559 1.377 . S
C1544 C1542 1.389 . S
C1544 C1545 1.524 . S
C1544 C1558 1.377 . S
C1545 C1544 1.524 . S
C1545 C1546 1.397 . S
C1545 C1550 1.363 . S
C1546 H1523 0.950 . S
C1546 C1545 1.397 . S
C1546 C1547 1.334 . S
C1547 H1524 0.950 . S
C1547 C1546 1.334 . S
C1547 C1548 1.287 . S
C1548 C1547 1.287 . S
C1548 C1549 1.524 . S
C1548 H1567 0.913 . S
C1549 H1525 0.950 . S
C1549 C1548 1.524 . S
C1549 C1550 1.415 . S
C1550 H1526 0.950 . S
C1550 C1545 1.363 . S
C1550 C1549 1.415 . S
C1551 H1527 0.951 . S
C1551 C1552 1.366 . S
C1551 C1553 1.388 . S
C1552 C1551 1.366 . S
C1552 C1556 1.385 . S
C1553 H1528 0.951 . S
C1553 C1551 1.388 . S
C1553 C1554 1.366 . S
C1554 C1553 1.366 . S
C1554 C1555 1.414 . S
C1554 C1557 1.499 . S
C1555 H1529 0.950 . S
C1555 C1554 1.414 . S
C1555 C1556 1.374 . S
C1556 H1530 0.950 . S
C1556 C1552 1.385 . S
C1556 C1555 1.374 . S
C1557 C1554 1.499 . S
C1557 C1558 1.373 . S
C1557 C1559 1.389 . S
C1558 H1531 0.950 . S
C1558 C1544 1.377 . S
C1558 C1557 1.373 . S
C1559 C1543 1.377 . S
C1559 C1557 1.389 . S
C1559 C1560 1.524 . S
C1560 C1559 1.524 . S
C1560 C1561 1.397 . S
C1560 C1565 1.363 . S
C1561 H1532 0.950 . S
C1561 C1560 1.397 . S
C1561 C1562 1.334 . S
C1562 H1533 0.950 . S
C1562 C1561 1.334 . S
C1562 C1563 1.287 . S
C1563 C1562 1.287 . S
C1563 C1564 1.524 . S
C1563 H1566 0.999 . S
C1564 H1534 0.950 . S
C1564 C1563 1.524 . S
C1564 C1565 1.415 . S
C1565 H1535 0.950 . S
C1565 C1560 1.363 . S
C1565 C1564 1.415 . S
H1566 C1563 0.999 . S
H1567 C1548 0.913 . S
H1568 C1586 0.951 . S
H1569 C1588 0.951 . S
H1570 C1590 0.950 . S
H1571 C1591 0.950 . S
H1572 C1593 0.950 . S
H1573 C1596 0.950 . S
H1574 C1597 0.950 . S
H1575 C1599 0.950 . S
H1576 C1600 0.950 . S
H1577 C1601 0.951 . S
H1578 C1603 0.951 . S
H1579 C1605 0.950 . S
H1580 C1606 0.950 . S
H1581 C1608 0.950 . S
H1582 C1611 0.950 . S
H1583 C1612 0.950 . S
H1584 C1614 0.950 . S
H1585 C1615 0.950 . S
C1586 H1568 0.951 . S
C1586 C1587 1.366 . S
C1586 C1588 1.388 . S
C1587 C1586 1.366 . S
C1587 C1591 1.385 . S
C1588 H1569 0.951 . S
C1588 C1586 1.388 . S
C1588 C1589 1.366 . S
C1589 C1588 1.366 . S
C1589 C1590 1.414 . S
C1589 C1592 1.499 . S
C1590 H1570 0.950 . S
C1590 C1589 1.414 . S
C1590 C1591 1.374 . S
C1591 H1571 0.950 . S
C1591 C1587 1.385 . S
C1591 C1590 1.374 . S
C1592 C1589 1.499 . S
C1592 C1593 1.373 . S
C1592 C1594 1.389 . S
C1593 H1572 0.950 . S
C1593 C1592 1.373 . S
C1593 C1609 1.377 . S
C1594 C1592 1.389 . S
C1594 C1595 1.524 . S
C1594 C1608 1.377 . S
C1595 C1594 1.524 . S
C1595 C1596 1.397 . S
C1595 C1600 1.363 . S
C1596 H1573 0.950 . S
C1596 C1595 1.397 . S
C1596 C1597 1.334 . S
C1597 H1574 0.950 . S
C1597 C1596 1.334 . S
C1597 C1598 1.287 . S
C1598 C1597 1.287 . S
C1598 C1599 1.524 . S
C1598 H1617 0.913 . S
C1599 H1575 0.950 . S
C1599 C1598 1.524 . S
C1599 C1600 1.415 . S
C1600 H1576 0.950 . S
C1600 C1595 1.363 . S
C1600 C1599 1.415 . S
C1601 H1577 0.951 . S
C1601 C1602 1.366 . S
C1601 C1603 1.388 . S
C1602 C1601 1.366 . S
C1602 C1606 1.385 . S
C1603 H1578 0.951 . S
C1603 C1601 1.388 . S
C1603 C1604 1.366 . S
C1604 C1603 1.366 . S
C1604 C1605 1.414 . S
C1604 C1607 1.499 . S
C1605 H1579 0.950 . S
C1605 C1604 1.414 . S
C1605 C1606 1.374 . S
C1606 H1580 0.950 . S
C1606 C1602 1.385 . S
C1606 C1605 1.374 . S
C1607 C1604 1.499 . S
C1607 C1608 1.373 . S
C1607 C1609 1.389 . S
C1608 H1581 0.950 . S
C1608 C1594 1.377 . S
C1608 C1607 1.373 . S
C1609 C1593 1.377 . S
C1609 C1607 1.389 . S
C1609 C1610 1.524 . S
C1610 C1609 1.524 . S
C1610 C1611 1.397 . S
C1610 C1615 1.363 . S
C1611 H1582 0.950 . S
C1611 C1610 1.397 . S
C1611 C1612 1.334 . S
C1612 H1583 0.950 . S
C1612 C1611 1.334 . S
C1612 C1613 1.287 . S
C1613 C1612 1.287 . S
C1613 C1614 1.524 . S
C1613 H1616 0.999 . S
C1614 H1584 0.950 . S
C1614 C1613 1.524 . S
C1614 C1615 1.415 . S
C1615 H1585 0.950 . S
C1615 C1610 1.363 . S
C1615 C1614 1.415 . S
H1616 C1613 0.999 . S
H1617 C1598 0.913 . S
H1618 C1636 0.951 . S
H1619 C1638 0.951 . S
H1620 C1640 0.950 . S
H1621 C1641 0.950 . S
H1622 C1643 0.950 . S
H1623 C1646 0.950 . S
H1624 C1647 0.950 . S
H1625 C1649 0.950 . S
H1626 C1650 0.950 . S
H1627 C1651 0.951 . S
H1628 C1653 0.951 . S
H1629 C1655 0.950 . S
H1630 C1656 0.950 . S
H1631 C1658 0.950 . S
H1632 C1661 0.950 . S
H1633 C1662 0.950 . S
H1634 C1664 0.950 . S
H1635 C1665 0.950 . S
C1636 H1618 0.951 . S
C1636 C1637 1.366 . S
C1636 C1638 1.388 . S
C1637 C1636 1.366 . S
C1637 C1641 1.385 . S
C1638 H1619 0.951 . S
C1638 C1636 1.388 . S
C1638 C1639 1.366 . S
C1639 C1638 1.366 . S
C1639 C1640 1.414 . S
C1639 C1642 1.499 . S
C1640 H1620 0.950 . S
C1640 C1639 1.414 . S
C1640 C1641 1.374 . S
C1641 H1621 0.950 . S
C1641 C1637 1.385 . S
C1641 C1640 1.374 . S
C1642 C1639 1.499 . S
C1642 C1643 1.373 . S
C1642 C1644 1.389 . S
C1643 H1622 0.950 . S
C1643 C1642 1.373 . S
C1643 C1659 1.377 . S
C1644 C1642 1.389 . S
C1644 C1645 1.524 . S
C1644 C1658 1.377 . S
C1645 C1644 1.524 . S
C1645 C1646 1.397 . S
C1645 C1650 1.363 . S
C1646 H1623 0.950 . S
C1646 C1645 1.397 . S
C1646 C1647 1.334 . S
C1647 H1624 0.950 . S
C1647 C1646 1.334 . S
C1647 C1648 1.287 . S
C1648 C1647 1.287 . S
C1648 C1649 1.524 . S
C1648 H1667 0.913 . S
C1649 H1625 0.950 . S
C1649 C1648 1.524 . S
C1649 C1650 1.415 . S
C1650 H1626 0.950 . S
C1650 C1645 1.363 . S
C1650 C1649 1.415 . S
C1651 H1627 0.951 . S
C1651 C1652 1.366 . S
C1651 C1653 1.388 . S
C1652 C1651 1.366 . S
C1652 C1656 1.385 . S
C1653 H1628 0.951 . S
C1653 C1651 1.388 . S
C1653 C1654 1.366 . S
C1654 C1653 1.366 . S
C1654 C1655 1.414 . S
C1654 C1657 1.499 . S
C1655 H1629 0.950 . S
C1655 C1654 1.414 . S
C1655 C1656 1.374 . S
C1656 H1630 0.950 . S
C1656 C1652 1.385 . S
C1656 C1655 1.374 . S
C1657 C1654 1.499 . S
C1657 C1658 1.373 . S
C1657 C1659 1.389 . S
C1658 H1631 0.950 . S
C1658 C1644 1.377 . S
C1658 C1657 1.373 . S
C1659 C1643 1.377 . S
C1659 C1657 1.389 . S
C1659 C1660 1.524 . S
C1660 C1659 1.524 . S
C1660 C1661 1.397 . S
C1660 C1665 1.363 . S
C1661 H1632 0.950 . S
C1661 C1660 1.397 . S
C1661 C1662 1.334 . S
C1662 H1633 0.950 . S
C1662 C1661 1.334 . S
C1662 C1663 1.287 . S
C1663 C1662 1.287 . S
C1663 C1664 1.524 . S
C1663 H1666 0.999 . S
C1664 H1634 0.950 . S
C1664 C1663 1.524 . S
C1664 C1665 1.415 . S
C1665 H1635 0.950 . S
C1665 C1660 1.363 . S
C1665 C1664 1.415 . S
H1666 C1663 0.999 . S
H1667 C1648 0.913 . S
H1668 C1686 0.951 . S
H1669 C1688 0.951 . S
H1670 C1690 0.950 . S
H1671 C1691 0.950 . S
H1672 C1693 0.950 . S
H1673 C1696 0.950 . S
H1674 C1697 0.950 . S
H1675 C1699 0.950 . S
H1676 C1700 0.950 . S
H1677 C1701 0.951 . S
H1678 C1703 0.951 . S
H1679 C1705 0.950 . S
H1680 C1706 0.950 . S
H1681 C1708 0.950 . S
H1682 C1711 0.950 . S
H1683 C1712 0.950 . S
H1684 C1714 0.950 . S
H1685 C1715 0.950 . S
C1686 H1668 0.951 . S
C1686 C1687 1.366 . S
C1686 C1688 1.388 . S
C1687 C1686 1.366 . S
C1687 C1691 1.385 . S
C1688 H1669 0.951 . S
C1688 C1686 1.388 . S
C1688 C1689 1.366 . S
C1689 C1688 1.366 . S
C1689 C1690 1.414 . S
C1689 C1692 1.499 . S
C1690 H1670 0.950 . S
C1690 C1689 1.414 . S
C1690 C1691 1.374 . S
C1691 H1671 0.950 . S
C1691 C1687 1.385 . S
C1691 C1690 1.374 . S
C1692 C1689 1.499 . S
C1692 C1693 1.373 . S
C1692 C1694 1.389 . S
C1693 H1672 0.950 . S
C1693 C1692 1.373 . S
C1693 C1709 1.377 . S
C1694 C1692 1.389 . S
C1694 C1695 1.524 . S
C1694 C1708 1.377 . S
C1695 C1694 1.524 . S
C1695 C1696 1.397 . S
C1695 C1700 1.363 . S
C1696 H1673 0.950 . S
C1696 C1695 1.397 . S
C1696 C1697 1.334 . S
C1697 H1674 0.950 . S
C1697 C1696 1.334 . S
C1697 C1698 1.287 . S
C1698 C1697 1.287 . S
C1698 C1699 1.524 . S
C1698 H1717 0.913 . S
C1699 H1675 0.950 . S
C1699 C1698 1.524 . S
C1699 C1700 1.415 . S
C1700 H1676 0.950 . S
C1700 C1695 1.363 . S
C1700 C1699 1.415 . S
C1701 H1677 0.951 . S
C1701 C1702 1.366 . S
C1701 C1703 1.388 . S
C1702 C1701 1.366 . S
C1702 C1706 1.385 . S
C1703 H1678 0.951 . S
C1703 C1701 1.388 . S
C1703 C1704 1.366 . S
C1704 C1703 1.366 . S
C1704 C1705 1.414 . S
C1704 C1707 1.499 . S
C1705 H1679 0.950 . S
C1705 C1704 1.414 . S
C1705 C1706 1.374 . S
C1706 H1680 0.950 . S
C1706 C1702 1.385 . S
C1706 C1705 1.374 . S
C1707 C1704 1.499 . S
C1707 C1708 1.373 . S
C1707 C1709 1.389 . S
C1708 H1681 0.950 . S
C1708 C1694 1.377 . S
C1708 C1707 1.373 . S
C1709 C1693 1.377 . S
C1709 C1707 1.389 . S
C1709 C1710 1.524 . S
C1710 C1709 1.524 . S
C1710 C1711 1.397 . S
C1710 C1715 1.363 . S
C1711 H1682 0.950 . S
C1711 C1710 1.397 . S
C1711 C1712 1.334 . S
C1712 H1683 0.950 . S
C1712 C1711 1.334 . S
C1712 C1713 1.287 . S
C1713 C1712 1.287 . S
C1713 C1714 1.524 . S
C1713 H1716 0.999 . S
C1714 H1684 0.950 . S
C1714 C1713 1.524 . S
C1714 C1715 1.415 . S
C1715 H1685 0.950 . S
C1715 C1710 1.363 . S
C1715 C1714 1.415 . S
H1716 C1713 0.999 . S
H1717 C1698 0.913 . S
H1718 C1736 0.951 . S
H1719 C1738 0.951 . S
H1720 C1740 0.950 . S
H1721 C1741 0.950 . S
H1722 C1743 0.950 . S
H1723 C1746 0.950 . S
H1724 C1747 0.950 . S
H1725 C1749 0.950 . S
H1726 C1750 0.950 . S
H1727 C1751 0.951 . S
H1728 C1753 0.951 . S
H1729 C1755 0.950 . S
H1730 C1756 0.950 . S
H1731 C1758 0.950 . S
H1732 C1761 0.950 . S
H1733 C1762 0.950 . S
H1734 C1764 0.950 . S
H1735 C1765 0.950 . S
C1736 H1718 0.951 . S
C1736 C1737 1.366 . S
C1736 C1738 1.388 . S
C1737 C1736 1.366 . S
C1737 C1741 1.385 . S
C1738 H1719 0.951 . S
C1738 C1736 1.388 . S
C1738 C1739 1.366 . S
C1739 C1738 1.366 . S
C1739 C1740 1.414 . S
C1739 C1742 1.499 . S
C1740 H1720 0.950 . S
C1740 C1739 1.414 . S
C1740 C1741 1.374 . S
C1741 H1721 0.950 . S
C1741 C1737 1.385 . S
C1741 C1740 1.374 . S
C1742 C1739 1.499 . S
C1742 C1743 1.373 . S
C1742 C1744 1.389 . S
C1743 H1722 0.950 . S
C1743 C1742 1.373 . S
C1743 C1759 1.377 . S
C1744 C1742 1.389 . S
C1744 C1745 1.524 . S
C1744 C1758 1.377 . S
C1745 C1744 1.524 . S
C1745 C1746 1.397 . S
C1745 C1750 1.363 . S
C1746 H1723 0.950 . S
C1746 C1745 1.397 . S
C1746 C1747 1.334 . S
C1747 H1724 0.950 . S
C1747 C1746 1.334 . S
C1747 C1748 1.287 . S
C1748 C1747 1.287 . S
C1748 C1749 1.524 . S
C1748 H1767 0.913 . S
C1749 H1725 0.950 . S
C1749 C1748 1.524 . S
C1749 C1750 1.415 . S
C1750 H1726 0.950 . S
C1750 C1745 1.363 . S
C1750 C1749 1.415 . S
C1751 H1727 0.951 . S
C1751 C1752 1.366 . S
C1751 C1753 1.388 . S
C1752 C1751 1.366 . S
C1752 C1756 1.385 . S
C1753 H1728 0.951 . S
C1753 C1751 1.388 . S
C1753 C1754 1.366 . S
C1754 C1753 1.366 . S
C1754 C1755 1.414 . S
C1754 C1757 1.499 . S
C1755 H1729 0.950 . S
C1755 C1754 1.414 . S
C1755 C1756 1.374 . S
C1756 H1730 0.950 . S
C1756 C1752 1.385 . S
C1756 C1755 1.374 . S
C1757 C1754 1.499 . S
C1757 C1758 1.373 . S
C1757 C1759 1.389 . S
C1758 H1731 0.950 . S
C1758 C1744 1.377 . S
C1758 C1757 1.373 . S
C1759 C1743 1.377 . S
C1759 C1757 1.389 . S
C1759 C1760 1.524 . S
C1760 C1759 1.524 . S
C1760 C1761 1.397 . S
C1760 C1765 1.363 . S
C1761 H1732 0.950 . S
C1761 C1760 1.397 . S
C1761 C1762 1.334 . S
C1762 H1733 0.950 . S
C1762 C1761 1.334 . S
C1762 C1763 1.287 . S
C1763 C1762 1.287 . S
C1763 C1764 1.524 . S
C1763 H1766 0.999 . S
C1764 H1734 0.950 . S
C1764 C1763 1.524 . S
C1764 C1765 1.415 . S
C1765 H1735 0.950 . S
C1765 C1760 1.363 . S
C1765 C1764 1.415 . S
H1766 C1763 0.999 . S
H1767 C1748 0.913 . S
H1768 C1786 0.971 . S
H1769 C1788 0.951 . S
H1770 C1790 0.950 . S
H1771 C1791 0.950 . S
H1772 C1793 0.950 . S
H1773 C1796 0.950 . S
H1774 C1797 0.950 . S
H1775 C1799 0.950 . S
H1776 C1800 0.950 1_565 S
H1777 C1801 0.971 . S
H1778 C1803 0.951 . S
H1779 C1805 0.950 . S
H1780 C1806 0.950 . S
H1781 C1808 0.950 . S
H1782 C1811 0.950 . S
H1783 C1812 0.950 . S
H1784 C1814 0.950 . S
H1785 C1815 0.950 1_545 S
C1786 H1768 0.971 . S
C1786 C1787 1.343 1_565 S
C1786 C1788 1.393 . S
C1787 C1786 1.343 1_545 S
C1787 C1791 1.385 . S
C1788 H1769 0.951 . S
C1788 C1786 1.393 . S
C1788 C1789 1.366 1_565 S
C1789 C1788 1.366 1_545 S
C1789 C1790 1.414 . S
C1789 C1792 1.499 . S
C1790 H1770 0.950 . S
C1790 C1789 1.414 . S
C1790 C1791 1.374 . S
C1791 H1771 0.950 . S
C1791 C1787 1.385 . S
C1791 C1790 1.374 . S
C1792 C1789 1.499 . S
C1792 C1793 1.373 1_545 S
C1792 C1794 1.389 . S
C1793 H1772 0.950 . S
C1793 C1792 1.373 1_565 S
C1793 C1809 1.377 1_554 S
C1794 C1792 1.389 . S
C1794 C1795 1.524 . S
C1794 C1808 1.377 1_554 S
C1795 C1794 1.524 . S
C1795 C1796 1.397 . S
C1795 C1800 1.363 . S
C1796 H1773 0.950 . S
C1796 C1795 1.397 . S
C1796 C1797 1.334 . S
C1797 H1774 0.950 . S
C1797 C1796 1.334 . S
C1797 C1798 1.287 . S
C1798 C1797 1.287 . S
C1798 C1799 1.524 . S
C1798 H1817 0.913 . S
C1799 H1775 0.950 . S
C1799 C1798 1.524 . S
C1799 C1800 1.415 . S
C1800 H1776 0.950 1_545 S
C1800 C1795 1.363 . S
C1800 C1799 1.415 . S
C1801 H1777 0.971 . S
C1801 C1802 1.343 1_545 S
C1801 C1803 1.393 . S
C1802 C1801 1.343 1_565 S
C1802 C1806 1.385 . S
C1803 H1778 0.951 . S
C1803 C1801 1.393 . S
C1803 C1804 1.366 1_545 S
C1804 C1803 1.366 1_565 S
C1804 C1805 1.414 . S
C1804 C1807 1.499 . S
C1805 H1779 0.950 . S
C1805 C1804 1.414 . S
C1805 C1806 1.374 . S
C1806 H1780 0.950 . S
C1806 C1802 1.385 . S
C1806 C1805 1.374 . S
C1807 C1804 1.499 . S
C1807 C1808 1.373 1_565 S
C1807 C1809 1.389 . S
C1808 H1781 0.950 . S
C1808 C1794 1.377 1_556 S
C1808 C1807 1.373 1_545 S
C1809 C1793 1.377 1_556 S
C1809 C1807 1.389 . S
C1809 C1810 1.524 . S
C1810 C1809 1.524 . S
C1810 C1811 1.397 . S
C1810 C1815 1.363 . S
C1811 H1782 0.950 . S
C1811 C1810 1.397 . S
C1811 C1812 1.334 . S
C1812 H1783 0.950 . S
C1812 C1811 1.334 . S
C1812 C1813 1.287 . S
C1813 C1812 1.287 . S
C1813 C1814 1.524 . S
C1813 H1816 0.999 . S
C1814 H1784 0.950 . S
C1814 C1813 1.524 . S
C1814 C1815 1.415 . S
C1815 H1785 0.950 1_565 S
C1815 C1810 1.363 . S
C1815 C1814 1.415 . S
H1816 C1813 0.999 . S
H1817 C1798 0.913 . S
H1818 C1836 0.951 . S
H1819 C1838 0.948 1_655 S
H1820 C1840 0.950 . S
H1821 C1841 0.950 . S
H1822 C1843 0.950 . S
H1823 C1846 0.950 . S
H1824 C1847 0.950 . S
H1825 C1849 0.950 . S
H1826 C1850 0.950 . S
H1827 C1851 0.951 . S
H1828 C1853 0.948 1_455 S
H1829 C1855 0.950 . S
H1830 C1856 0.950 . S
H1831 C1858 0.950 . S
H1832 C1861 0.950 . S
H1833 C1862 0.950 . S
H1834 C1864 0.950 . S
H1835 C1865 0.950 . S
C1836 H1818 0.951 . S
C1836 C1837 1.366 . S
C1836 C1838 1.388 . S
C1837 C1836 1.366 . S
C1837 C1841 1.385 . S
C1838 H1819 0.948 1_455 S
C1838 C1836 1.388 . S
C1838 C1839 1.366 . S
C1839 C1838 1.366 . S
C1839 C1840 1.414 . S
C1839 C1842 1.499 . S
C1840 H1820 0.950 . S
C1840 C1839 1.414 . S
C1840 C1841 1.374 . S
C1841 H1821 0.950 . S
C1841 C1837 1.385 . S
C1841 C1840 1.374 . S
C1842 C1839 1.499 . S
C1842 C1843 1.373 1_455 S
C1842 C1844 1.389 . S
C1843 H1822 0.950 . S
C1843 C1842 1.373 1_655 S
C1843 C1859 1.377 1_556 S
C1844 C1842 1.389 . S
C1844 C1845 1.524 . S
C1844 C1858 1.377 1_556 S
C1845 C1844 1.524 . S
C1845 C1846 1.397 . S
C1845 C1850 1.363 . S
C1846 H1823 0.950 . S
C1846 C1845 1.397 . S
C1846 C1847 1.334 . S
C1847 H1824 0.950 . S
C1847 C1846 1.334 . S
C1847 C1848 1.287 . S
C1848 C1847 1.287 . S
C1848 C1849 1.524 . S
C1848 H1867 0.913 . S
C1849 H1825 0.950 . S
C1849 C1848 1.524 . S
C1849 C1850 1.415 . S
C1850 H1826 0.950 . S
C1850 C1845 1.363 . S
C1850 C1849 1.415 . S
C1851 H1827 0.951 . S
C1851 C1852 1.366 . S
C1851 C1853 1.388 . S
C1852 C1851 1.366 . S
C1852 C1856 1.385 . S
C1853 H1828 0.948 1_655 S
C1853 C1851 1.388 . S
C1853 C1854 1.366 . S
C1854 C1853 1.366 . S
C1854 C1855 1.414 . S
C1854 C1857 1.499 . S
C1855 H1829 0.950 . S
C1855 C1854 1.414 . S
C1855 C1856 1.374 . S
C1856 H1830 0.950 . S
C1856 C1852 1.385 . S
C1856 C1855 1.374 . S
C1857 C1854 1.499 . S
C1857 C1858 1.373 1_655 S
C1857 C1859 1.389 . S
C1858 H1831 0.950 . S
C1858 C1844 1.377 1_554 S
C1858 C1857 1.373 1_455 S
C1859 C1843 1.377 1_554 S
C1859 C1857 1.389 . S
C1859 C1860 1.524 . S
C1860 C1859 1.524 . S
C1860 C1861 1.397 . S
C1860 C1865 1.363 . S
C1861 H1832 0.950 . S
C1861 C1860 1.397 . S
C1861 C1862 1.334 . S
C1862 H1833 0.950 . S
C1862 C1861 1.334 . S
C1862 C1863 1.287 . S
C1863 C1862 1.287 . S
C1863 C1864 1.524 . S
C1863 H1866 0.999 . S
C1864 H1834 0.950 . S
C1864 C1863 1.524 . S
C1864 C1865 1.415 . S
C1865 H1835 0.950 . S
C1865 C1860 1.363 . S
C1865 C1864 1.415 . S
H1866 C1863 0.999 . S
H1867 C1848 0.913 . S
H1868 C1886 0.951 . S
H1869 C1888 0.951 . S
H1870 C1890 0.950 . S
H1871 C1891 0.950 . S
H1872 C1893 0.950 . S
H1873 C1896 0.950 . S
H1874 C1897 0.950 . S
H1875 C1899 0.950 . S
H1876 C1900 0.950 1_554 S
H1877 C1901 0.951 . S
H1878 C1903 0.951 . S
H1879 C1905 0.950 . S
H1880 C1906 0.950 . S
H1881 C1908 0.950 . S
H1882 C1911 0.950 . S
H1883 C1912 0.950 . S
H1884 C1914 0.950 . S
H1885 C1915 0.950 1_556 S
C1886 H1868 0.951 . S
C1886 C1887 1.366 . S
C1886 C1888 1.388 . S
C1887 C1886 1.366 . S
C1887 C1891 1.385 1_545 S
C1888 H1869 0.951 . S
C1888 C1886 1.388 . S
C1888 C1889 1.366 . S
C1889 C1888 1.366 . S
C1889 C1890 1.414 1_545 S
C1889 C1892 1.499 . S
C1890 H1870 0.950 . S
C1890 C1889 1.414 1_565 S
C1890 C1891 1.374 . S
C1891 H1871 0.950 . S
C1891 C1887 1.385 1_565 S
C1891 C1890 1.374 . S
C1892 C1889 1.499 . S
C1892 C1893 1.373 1_545 S
C1892 C1894 1.389 . S
C1893 H1872 0.950 . S
C1893 C1892 1.373 1_565 S
C1893 C1909 1.377 1_556 S
C1894 C1892 1.389 . S
C1894 C1895 1.524 . S
C1894 C1908 1.377 1_556 S
C1895 C1894 1.524 . S
C1895 C1896 1.397 . S
C1895 C1900 1.363 . S
C1896 H1873 0.950 . S
C1896 C1895 1.397 . S
C1896 C1897 1.334 . S
C1897 H1874 0.950 . S
C1897 C1896 1.334 . S
C1897 C1898 1.287 . S
C1898 C1897 1.287 . S
C1898 C1899 1.524 . S
C1898 H1917 0.913 . S
C1899 H1875 0.950 . S
C1899 C1898 1.524 . S
C1899 C1900 1.415 . S
C1900 H1876 0.950 1_556 S
C1900 C1895 1.363 . S
C1900 C1899 1.415 . S
C1901 H1877 0.951 . S
C1901 C1902 1.366 . S
C1901 C1903 1.388 . S
C1902 C1901 1.366 . S
C1902 C1906 1.385 1_565 S
C1903 H1878 0.951 . S
C1903 C1901 1.388 . S
C1903 C1904 1.366 . S
C1904 C1903 1.366 . S
C1904 C1905 1.414 1_565 S
C1904 C1907 1.499 . S
C1905 H1879 0.950 . S
C1905 C1904 1.414 1_545 S
C1905 C1906 1.374 . S
C1906 H1880 0.950 . S
C1906 C1902 1.385 1_545 S
C1906 C1905 1.374 . S
C1907 C1904 1.499 . S
C1907 C1908 1.373 1_565 S
C1907 C1909 1.389 . S
C1908 H1881 0.950 . S
C1908 C1894 1.377 1_554 S
C1908 C1907 1.373 1_545 S
C1909 C1893 1.377 1_554 S
C1909 C1907 1.389 . S
C1909 C1910 1.524 . S
C1910 C1909 1.524 . S
C1910 C1911 1.397 . S
C1910 C1915 1.363 . S
C1911 H1882 0.950 . S
C1911 C1910 1.397 . S
C1911 C1912 1.334 . S
C1912 H1883 0.950 . S
C1912 C1911 1.334 . S
C1912 C1913 1.287 . S
C1913 C1912 1.287 . S
C1913 C1914 1.524 . S
C1913 H1916 0.999 . S
C1914 H1884 0.950 . S
C1914 C1913 1.524 . S
C1914 C1915 1.415 . S
C1915 H1885 0.950 1_554 S
C1915 C1910 1.363 . S
C1915 C1914 1.415 . S
H1916 C1913 0.999 . S
H1917 C1898 0.913 . S
H1918 C1936 0.951 . S
H1919 C1938 0.951 . S
H1920 C1940 0.950 . S
H1921 C1941 0.950 . S
H1922 C1943 0.950 . S
H1923 C1946 0.950 . S
H1924 C1947 0.950 . S
H1925 C1949 0.950 . S
H1926 C1950 0.950 . S
H1927 C1951 0.951 . S
H1928 C1953 0.951 . S
H1929 C1955 0.950 . S
H1930 C1956 0.950 . S
H1931 C1958 0.950 . S
H1932 C1961 0.950 . S
H1933 C1962 0.950 . S
H1934 C1964 0.950 . S
H1935 C1965 0.950 . S
C1936 H1918 0.951 . S
C1936 C1937 1.366 1_455 S
C1936 C1938 1.388 . S
C1937 C1936 1.366 1_655 S
C1937 C1941 1.385 . S
C1938 H1919 0.951 . S
C1938 C1936 1.388 . S
C1938 C1939 1.366 1_455 S
C1939 C1938 1.366 1_655 S
C1939 C1940 1.414 . S
C1939 C1942 1.499 . S
C1940 H1920 0.950 . S
C1940 C1939 1.414 . S
C1940 C1941 1.374 . S
C1941 H1921 0.950 . S
C1941 C1937 1.385 . S
C1941 C1940 1.374 . S
C1942 C1939 1.499 . S
C1942 C1943 1.373 . S
C1942 C1944 1.389 1_655 S
C1943 H1922 0.950 . S
C1943 C1942 1.373 . S
C1943 C1959 1.377 1_556 S
C1944 C1942 1.389 1_455 S
C1944 C1945 1.524 . S
C1944 C1958 1.377 1_556 S
C1945 C1944 1.524 . S
C1945 C1946 1.397 . S
C1945 C1950 1.363 . S
C1946 H1923 0.950 . S
C1946 C1945 1.397 . S
C1946 C1947 1.334 . S
C1947 H1924 0.950 . S
C1947 C1946 1.334 . S
C1947 C1948 1.287 . S
C1948 C1947 1.287 . S
C1948 C1949 1.524 . S
C1948 H1967 0.913 . S
C1949 H1925 0.950 . S
C1949 C1948 1.524 . S
C1949 C1950 1.415 . S
C1950 H1926 0.950 . S
C1950 C1945 1.363 . S
C1950 C1949 1.415 . S
C1951 H1927 0.951 . S
C1951 C1952 1.366 1_655 S
C1951 C1953 1.388 . S
C1952 C1951 1.366 1_455 S
C1952 C1956 1.385 . S
C1953 H1928 0.951 . S
C1953 C1951 1.388 . S
C1953 C1954 1.366 1_655 S
C1954 C1953 1.366 1_455 S
C1954 C1955 1.414 . S
C1954 C1957 1.499 . S
C1955 H1929 0.950 . S
C1955 C1954 1.414 . S
C1955 C1956 1.374 . S
C1956 H1930 0.950 . S
C1956 C1952 1.385 . S
C1956 C1955 1.374 . S
C1957 C1954 1.499 . S
C1957 C1958 1.373 . S
C1957 C1959 1.389 1_455 S
C1958 H1931 0.950 . S
C1958 C1944 1.377 1_554 S
C1958 C1957 1.373 . S
C1959 C1943 1.377 1_554 S
C1959 C1957 1.389 1_655 S
C1959 C1960 1.524 . S
C1960 C1959 1.524 . S
C1960 C1961 1.397 . S
C1960 C1965 1.363 . S
C1961 H1932 0.950 . S
C1961 C1960 1.397 . S
C1961 C1962 1.334 . S
C1962 H1933 0.950 . S
C1962 C1961 1.334 . S
C1962 C1963 1.287 . S
C1963 C1962 1.287 . S
C1963 C1964 1.524 . S
C1963 H1966 0.999 . S
C1964 H1934 0.950 . S
C1964 C1963 1.524 . S
C1964 C1965 1.415 . S
C1965 H1935 0.950 . S
C1965 C1960 1.363 . S
C1965 C1964 1.415 . S
H1966 C1963 0.999 . S
H1967 C1948 0.913 . S
C387 N12 1.739 . S
C402 N173 1.740 . S
C437 N35 1.739 . S
C452 N104 1.739 . S
C487 N127 1.739 . S
C502 N58 1.739 . S
C537 N81 1.740 . S
C552 N150 1.739 . S
C587 N196 1.739 . S
C602 N357 1.739 . S
C637 N288 1.740 . S
C652 N219 1.739 . S
C687 N311 1.739 . S
C702 N242 1.740 . S
C737 N334 1.739 . S
C752 N265 1.740 . S
C787 N2 1.832 . S
C802 C269 1.828 . S
C837 N25 1.833 . S
C852 C200 1.829 . S
C887 C223 1.829 . S
C902 N48 1.833 . S
C937 N71 1.833 . S
C952 C246 1.828 . S
C987 N94 1.833 . S
C1002 C315 1.829 . S
C1037 C338 1.828 . S
C1052 N117 1.833 . S
C1087 N140 1.833 . S
C1102 C361 1.828 . S
C1137 C292 1.828 . S
C1152 N163 1.832 . S
C1187 N186 1.833 . S
C1202 C85 1.828 . S
C1237 C16 1.828 . S
C1252 N209 1.833 . S
C1287 N232 1.833 . S
C1302 C39 1.828 . S
C1337 C62 1.828 . S
C1352 N255 1.833 . S
C1387 N278 1.832 . S
C1402 C131 1.828 . S
C1437 C154 1.828 . S
C1452 N301 1.832 . S
C1487 C177 1.828 . S
C1502 N324 1.832 . S
C1537 C108 1.829 . S
C1552 N347 1.833 . S
C1587 C99 1.996 . S
C1602 C7 1.997 . S
C1637 C122 1.996 . S
C1652 C30 1.997 . S
C1687 C53 1.996 . S
C1702 C145 1.997 . S
C1737 C168 1.997 . S
C1752 C76 1.996 . S
C1787 C283 1.996 . S
C1802 C191 1.997 . S
C1837 C306 1.997 . S
C1852 C214 1.996 . S
C1887 C237 1.997 . S
C1902 C329 1.996 . S
C1937 C352 1.997 . S
C1952 C260 1.996 . S
