# Generated by pormake.
# Topology zni, (4)-cn, num edge types: 1
# Building blocks:
#     Node 0, Type 0, BuildingBlock: QUQFOY_clean_sbu_1, # of connection points: 4
#     Node 1, Type 0, BuildingBlock: QUQFOY_clean_sbu_1, # of connection points: 4
#     Node 2, Type 0, BuildingBlock: QUQFOY_clean_sbu_1, # of connection points: 4
#     Node 3, Type 0, BuildingBlock: QUQFOY_clean_sbu_1, # of connection points: 4
#     Node 4, Type 0, BuildingBlock: QUQFOY_clean_sbu_1, # of connection points: 4
#     Node 5, Type 0, BuildingBlock: QUQFOY_clean_sbu_1, # of connection points: 4
#     Node 6, Type 0, BuildingBlock: QUQFOY_clean_sbu_1, # of connection points: 4
#     Node 7, Type 0, BuildingBlock: QUQFOY_clean_sbu_1, # of connection points: 4
#     Node 8, Type 0, BuildingBlock: QUQFOY_clean_sbu_1, # of connection points: 4
#     Node 9, Type 0, BuildingBlock: QUQFOY_clean_sbu_1, # of connection points: 4
#     Node 10, Type 0, BuildingBlock: QUQFOY_clean_sbu_1, # of connection points: 4
#     Node 11, Type 0, BuildingBlock: QUQFOY_clean_sbu_1, # of connection points: 4
#     Node 12, Type 0, BuildingBlock: QUQFOY_clean_sbu_1, # of connection points: 4
#     Node 13, Type 0, BuildingBlock: QUQFOY_clean_sbu_1, # of connection points: 4
#     Node 14, Type 0, BuildingBlock: QUQFOY_clean_sbu_1, # of connection points: 4
#     Node 15, Type 0, BuildingBlock: QUQFOY_clean_sbu_1, # of connection points: 4
#     Node 16, Type 0, BuildingBlock: QUQFOY_clean_sbu_1, # of connection points: 4
#     Node 17, Type 0, BuildingBlock: QUQFOY_clean_sbu_1, # of connection points: 4
#     Node 18, Type 0, BuildingBlock: QUQFOY_clean_sbu_1, # of connection points: 4
#     Node 19, Type 0, BuildingBlock: QUQFOY_clean_sbu_1, # of connection points: 4
#     Node 20, Type 0, BuildingBlock: QUQFOY_clean_sbu_1, # of connection points: 4
#     Node 21, Type 0, BuildingBlock: QUQFOY_clean_sbu_1, # of connection points: 4
#     Node 22, Type 0, BuildingBlock: QUQFOY_clean_sbu_1, # of connection points: 4
#     Node 23, Type 0, BuildingBlock: QUQFOY_clean_sbu_1, # of connection points: 4
#     Node 24, Type 0, BuildingBlock: QUQFOY_clean_sbu_1, # of connection points: 4
#     Node 25, Type 0, BuildingBlock: QUQFOY_clean_sbu_1, # of connection points: 4
#     Node 26, Type 0, BuildingBlock: QUQFOY_clean_sbu_1, # of connection points: 4
#     Node 27, Type 0, BuildingBlock: QUQFOY_clean_sbu_1, # of connection points: 4
#     Node 28, Type 0, BuildingBlock: QUQFOY_clean_sbu_1, # of connection points: 4
#     Node 29, Type 0, BuildingBlock: QUQFOY_clean_sbu_1, # of connection points: 4
#     Node 30, Type 0, BuildingBlock: QUQFOY_clean_sbu_1, # of connection points: 4
#     Node 31, Type 0, BuildingBlock: QUQFOY_clean_sbu_1, # of connection points: 4
#     Edge 32, Type (0, 0), BuildingBlock: XUDNAN_clean_linker_2, # of connection points: 2
#     Edge 33, Type (0, 0), BuildingBlock: XUDNAN_clean_linker_2, # of connection points: 2
#     Edge 34, Type (0, 0), BuildingBlock: XUDNAN_clean_linker_2, # of connection points: 2
#     Edge 35, Type (0, 0), BuildingBlock: XUDNAN_clean_linker_2, # of connection points: 2
#     Edge 36, Type (0, 0), BuildingBlock: XUDNAN_clean_linker_2, # of connection points: 2
#     Edge 37, Type (0, 0), BuildingBlock: XUDNAN_clean_linker_2, # of connection points: 2
#     Edge 38, Type (0, 0), BuildingBlock: XUDNAN_clean_linker_2, # of connection points: 2
#     Edge 39, Type (0, 0), BuildingBlock: XUDNAN_clean_linker_2, # of connection points: 2
#     Edge 40, Type (0, 0), BuildingBlock: XUDNAN_clean_linker_2, # of connection points: 2
#     Edge 41, Type (0, 0), BuildingBlock: XUDNAN_clean_linker_2, # of connection points: 2
#     Edge 42, Type (0, 0), BuildingBlock: XUDNAN_clean_linker_2, # of connection points: 2
#     Edge 43, Type (0, 0), BuildingBlock: XUDNAN_clean_linker_2, # of connection points: 2
#     Edge 44, Type (0, 0), BuildingBlock: XUDNAN_clean_linker_2, # of connection points: 2
#     Edge 45, Type (0, 0), BuildingBlock: XUDNAN_clean_linker_2, # of connection points: 2
#     Edge 46, Type (0, 0), BuildingBlock: XUDNAN_clean_linker_2, # of connection points: 2
#     Edge 47, Type (0, 0), BuildingBlock: XUDNAN_clean_linker_2, # of connection points: 2
#     Edge 48, Type (0, 0), BuildingBlock: XUDNAN_clean_linker_2, # of connection points: 2
#     Edge 49, Type (0, 0), BuildingBlock: XUDNAN_clean_linker_2, # of connection points: 2
#     Edge 50, Type (0, 0), BuildingBlock: XUDNAN_clean_linker_2, # of connection points: 2
#     Edge 51, Type (0, 0), BuildingBlock: XUDNAN_clean_linker_2, # of connection points: 2
#     Edge 52, Type (0, 0), BuildingBlock: XUDNAN_clean_linker_2, # of connection points: 2
#     Edge 53, Type (0, 0), BuildingBlock: XUDNAN_clean_linker_2, # of connection points: 2
#     Edge 54, Type (0, 0), BuildingBlock: XUDNAN_clean_linker_2, # of connection points: 2
#     Edge 55, Type (0, 0), BuildingBlock: XUDNAN_clean_linker_2, # of connection points: 2
#     Edge 56, Type (0, 0), BuildingBlock: XUDNAN_clean_linker_2, # of connection points: 2
#     Edge 57, Type (0, 0), BuildingBlock: XUDNAN_clean_linker_2, # of connection points: 2
#     Edge 58, Type (0, 0), BuildingBlock: XUDNAN_clean_linker_2, # of connection points: 2
#     Edge 59, Type (0, 0), BuildingBlock: XUDNAN_clean_linker_2, # of connection points: 2
#     Edge 60, Type (0, 0), BuildingBlock: XUDNAN_clean_linker_2, # of connection points: 2
#     Edge 61, Type (0, 0), BuildingBlock: XUDNAN_clean_linker_2, # of connection points: 2
#     Edge 62, Type (0, 0), BuildingBlock: XUDNAN_clean_linker_2, # of connection points: 2
#     Edge 63, Type (0, 0), BuildingBlock: XUDNAN_clean_linker_2, # of connection points: 2
#     Edge 64, Type (0, 0), BuildingBlock: XUDNAN_clean_linker_2, # of connection points: 2
#     Edge 65, Type (0, 0), BuildingBlock: XUDNAN_clean_linker_2, # of connection points: 2
#     Edge 66, Type (0, 0), BuildingBlock: XUDNAN_clean_linker_2, # of connection points: 2
#     Edge 67, Type (0, 0), BuildingBlock: XUDNAN_clean_linker_2, # of connection points: 2
#     Edge 68, Type (0, 0), BuildingBlock: XUDNAN_clean_linker_2, # of connection points: 2
#     Edge 69, Type (0, 0), BuildingBlock: XUDNAN_clean_linker_2, # of connection points: 2
#     Edge 70, Type (0, 0), BuildingBlock: XUDNAN_clean_linker_2, # of connection points: 2
#     Edge 71, Type (0, 0), BuildingBlock: XUDNAN_clean_linker_2, # of connection points: 2
#     Edge 72, Type (0, 0), BuildingBlock: XUDNAN_clean_linker_2, # of connection points: 2
#     Edge 73, Type (0, 0), BuildingBlock: XUDNAN_clean_linker_2, # of connection points: 2
#     Edge 74, Type (0, 0), BuildingBlock: XUDNAN_clean_linker_2, # of connection points: 2
#     Edge 75, Type (0, 0), BuildingBlock: XUDNAN_clean_linker_2, # of connection points: 2
#     Edge 76, Type (0, 0), BuildingBlock: XUDNAN_clean_linker_2, # of connection points: 2
#     Edge 77, Type (0, 0), BuildingBlock: XUDNAN_clean_linker_2, # of connection points: 2
#     Edge 78, Type (0, 0), BuildingBlock: XUDNAN_clean_linker_2, # of connection points: 2
#     Edge 79, Type (0, 0), BuildingBlock: XUDNAN_clean_linker_2, # of connection points: 2
#     Edge 80, Type (0, 0), BuildingBlock: XUDNAN_clean_linker_2, # of connection points: 2
#     Edge 81, Type (0, 0), BuildingBlock: XUDNAN_clean_linker_2, # of connection points: 2
#     Edge 82, Type (0, 0), BuildingBlock: XUDNAN_clean_linker_2, # of connection points: 2
#     Edge 83, Type (0, 0), BuildingBlock: XUDNAN_clean_linker_2, # of connection points: 2
#     Edge 84, Type (0, 0), BuildingBlock: XUDNAN_clean_linker_2, # of connection points: 2
#     Edge 85, Type (0, 0), BuildingBlock: XUDNAN_clean_linker_2, # of connection points: 2
#     Edge 86, Type (0, 0), BuildingBlock: XUDNAN_clean_linker_2, # of connection points: 2
#     Edge 87, Type (0, 0), BuildingBlock: XUDNAN_clean_linker_2, # of connection points: 2
#     Edge 88, Type (0, 0), BuildingBlock: XUDNAN_clean_linker_2, # of connection points: 2
#     Edge 89, Type (0, 0), BuildingBlock: XUDNAN_clean_linker_2, # of connection points: 2
#     Edge 90, Type (0, 0), BuildingBlock: XUDNAN_clean_linker_2, # of connection points: 2
#     Edge 91, Type (0, 0), BuildingBlock: XUDNAN_clean_linker_2, # of connection points: 2
#     Edge 92, Type (0, 0), BuildingBlock: XUDNAN_clean_linker_2, # of connection points: 2
#     Edge 93, Type (0, 0), BuildingBlock: XUDNAN_clean_linker_2, # of connection points: 2
#     Edge 94, Type (0, 0), BuildingBlock: XUDNAN_clean_linker_2, # of connection points: 2
#     Edge 95, Type (0, 0), BuildingBlock: XUDNAN_clean_linker_2, # of connection points: 2
# Relax obj value: 0.190
# Max RMSD: 0.171
# Mean RMSD: 0.171
data_MOF--net-zni--node1-QUQFOY_clean_sbu_1--edge1-XUDNAN_clean_linker_2
_symmetry_space_group_name_H-M    P1
_symmetry_Int_Tables_number       1
_symmetry_cell_setting            triclinic
loop_
_symmetry_equiv_pos_as_xyz
'x, y, z'
_cell_length_a     59.931046
_cell_length_b     59.911232
_cell_length_c     34.318613
_cell_angle_alpha  90.008132
_cell_angle_beta   89.995
_cell_angle_gamma 89.981196
loop_
_atom_site_label
_atom_site_type_symbol
_atom_site_fract_x
_atom_site_fract_y
_atom_site_fract_z
_atom_type_partial_charge
O0 O 0.06608 0.11096 0.34827 0.0
Cd1 Cd 0.0996 0.11154 0.335 0.0
Cd2 Cd 0.10353 0.10884 0.42123 0.0
O3 O 0.07012 0.1024 0.41053 0.0
O4 O 0.10393 0.09965 0.28135 0.0
O5 O 0.11548 0.08206 0.33454 0.0
C6 C 0.11328 0.08243 0.29704 0.0
C7 C 0.11313 0.10375 0.48719 0.0
C8 C 0.05771 0.10556 0.38098 0.0
C9 C 0.12204 0.1493 0.3733 0.0
O10 O 0.11807 0.13848 0.40432 0.0
O11 O 0.11623 0.14156 0.3404 0.0
O12 O 0.09904 0.11845 0.47582 0.0
O13 O 0.12146 0.09072 0.46106 0.0
O14 O 0.14937 0.81491 0.60142 0.0
Cd15 Cd 0.14815 0.84912 0.59481 0.0
Cd16 Cd 0.13351 0.84602 0.67275 0.0
O17 O 0.14172 0.81288 0.66427 0.0
O18 O 0.1678 0.85573 0.54947 0.0
O19 O 0.17568 0.86612 0.60984 0.0
C20 C 0.18153 0.86488 0.57363 0.0
C21 C 0.13603 0.86023 0.73621 0.0
C22 C 0.14701 0.8035 0.63238 0.0
C23 C 0.10226 0.8654 0.61077 0.0
O24 O 0.10576 0.85847 0.64518 0.0
O25 O 0.11752 0.86415 0.58514 0.0
O26 O 0.12168 0.84526 0.72665 0.0
O27 O 0.15004 0.86662 0.70993 0.0
O28 O 0.43566 0.904 0.84708 0.0
Cd29 Cd 0.40122 0.90338 0.84405 0.0
Cd30 Cd 0.40697 0.89191 0.92441 0.0
O31 O 0.43967 0.89895 0.91042 0.0
O32 O 0.39417 0.91652 0.79218 0.0
O33 O 0.38522 0.93298 0.84772 0.0
C34 C 0.38557 0.93334 0.81008 0.0
C35 C 0.39643 0.89868 0.98908 0.0
C36 C 0.44807 0.90259 0.87704 0.0
C37 C 0.38477 0.85841 0.87033 0.0
O38 O 0.3932 0.86288 0.90334 0.0
O39 O 0.38522 0.87275 0.84304 0.0
O40 O 0.41064 0.88351 0.97983 0.0
O41 O 0.38834 0.91081 0.96141 0.0
O42 O 0.35594 0.17956 0.10835 0.0
Cd43 Cd 0.35659 0.14648 0.09106 0.0
Cd44 Cd 0.36471 0.14019 0.17415 0.0
O45 O 0.35721 0.1738 0.17191 0.0
O46 O 0.34355 0.14546 0.03772 0.0
O47 O 0.32749 0.1297 0.08891 0.0
C48 C 0.32713 0.13428 0.05212 0.0
C49 C 0.36101 0.1242 0.23636 0.0
C50 C 0.35545 0.18699 0.14307 0.0
C51 C 0.40012 0.12621 0.11391 0.0
O52 O 0.3939 0.12921 0.14886 0.0
O53 O 0.38725 0.13109 0.08578 0.0
O54 O 0.37591 0.13886 0.22835 0.0
O55 O 0.34718 0.11884 0.20916 0.0
O56 O 0.06699 0.9017 0.15292 0.0
Cd57 Cd 0.10125 0.90314 0.15263 0.0
Cd58 Cd 0.09474 0.89602 0.07136 0.0
O59 O 0.06199 0.90052 0.08918 0.0
O60 O 0.11045 0.92257 0.19687 0.0
O61 O 0.1147 0.93195 0.13481 0.0
C62 C 0.11628 0.93725 0.17126 0.0
C63 C 0.10216 0.90182 0.00503 0.0
C64 C 0.05409 0.90158 0.12352 0.0
C65 C 0.12097 0.86192 0.12131 0.0
O66 O 0.11245 0.86846 0.08944 0.0
O67 O 0.11889 0.87345 0.15216 0.0
O68 O 0.08925 0.88618 0.01709 0.0
O69 O 0.11016 0.91537 0.03069 0.0
O70 O 0.35554 0.81497 0.39359 0.0
Cd71 Cd 0.35583 0.84833 0.40917 0.0
Cd72 Cd 0.36558 0.85302 0.3256 0.0
O73 O 0.35741 0.81961 0.32977 0.0
O74 O 0.34211 0.85023 0.46195 0.0
O75 O 0.32663 0.86503 0.40937 0.0
C76 C 0.32585 0.86113 0.44638 0.0
C77 C 0.3637 0.86742 0.26196 0.0
C78 C 0.35529 0.80695 0.35926 0.0
C79 C 0.39967 0.86838 0.38725 0.0
O80 O 0.39418 0.86455 0.35217 0.0
O81 O 0.38631 0.864 0.41491 0.0
O82 O 0.378 0.85259 0.27214 0.0
O83 O 0.34946 0.87387 0.2878 0.0
O84 O 0.43416 0.10993 0.64587 0.0
Cd85 Cd 0.40032 0.10952 0.65618 0.0
Cd86 Cd 0.39649 0.10727 0.57402 0.0
O87 O 0.43024 0.10226 0.58341 0.0
O88 O 0.39333 0.0916 0.70349 0.0
O89 O 0.38461 0.08113 0.64331 0.0
C90 C 0.385 0.07679 0.68025 0.0
C91 C 0.38597 0.09715 0.51042 0.0
C92 C 0.44266 0.10529 0.61295 0.0
C93 C 0.37769 0.14768 0.6202 0.0
O94 O 0.38177 0.13731 0.5887 0.0
O95 O 0.38339 0.13942 0.6528 0.0
O96 O 0.3995 0.1132 0.51755 0.0
O97 O 0.37815 0.08617 0.53969 0.0
O98 O 0.15145 0.18458 0.89732 0.0
Cd99 Cd 0.15074 0.15018 0.90042 0.0
Cd100 Cd 0.1378 0.1551 0.82307 0.0
O101 O 0.14524 0.18813 0.83424 0.0
O102 O 0.16997 0.14219 0.9456 0.0
O103 O 0.17861 0.13403 0.88447 0.0
C104 C 0.18403 0.13402 0.92095 0.0
C105 C 0.14261 0.14235 0.75913 0.0
C106 C 0.1496 0.19677 0.86717 0.0
C107 C 0.10539 0.13383 0.88072 0.0
O108 O 0.10935 0.14187 0.84722 0.0
O109 O 0.12026 0.13438 0.90711 0.0
O110 O 0.12777 0.15693 0.76827 0.0
O111 O 0.15579 0.13545 0.78631 0.0
O112 O 0.9343 0.89491 0.63667 0.0
Cd113 Cd 0.90106 0.89631 0.65218 0.0
Cd114 Cd 0.89515 0.88376 0.57283 0.0
O115 O 0.92889 0.89099 0.57342 0.0
O116 O 0.89837 0.91701 0.69735 0.0
O117 O 0.88425 0.92421 0.63898 0.0
C118 C 0.88795 0.93055 0.67444 0.0
C119 C 0.87882 0.88442 0.51054 0.0
C120 C 0.94196 0.89371 0.60218 0.0
C121 C 0.88038 0.85226 0.63926 0.0
O122 O 0.88371 0.85645 0.60347 0.0
O123 O 0.88525 0.86663 0.66511 0.0
O124 O 0.89338 0.86982 0.52056 0.0
O125 O 0.87371 0.89958 0.5357 0.0
O126 O 0.85291 0.18729 0.40246 0.0
Cd127 Cd 0.85273 0.15285 0.40208 0.0
Cd128 Cd 0.86457 0.15988 0.32492 0.0
O129 O 0.85708 0.19249 0.33926 0.0
O130 O 0.83373 0.14408 0.4471 0.0
O131 O 0.82422 0.1381 0.38561 0.0
C132 C 0.81913 0.13723 0.42221 0.0
C133 C 0.85861 0.14901 0.2602 0.0
C134 C 0.85386 0.20028 0.37322 0.0
C135 C 0.89756 0.13663 0.37916 0.0
O136 O 0.8934 0.14605 0.34683 0.0
O137 O 0.88286 0.13612 0.40584 0.0
O138 O 0.87364 0.16329 0.26978 0.0
O139 O 0.846 0.14125 0.28751 0.0
O140 O 0.56906 0.10536 0.14822 0.0
Cd141 Cd 0.6023 0.10579 0.16317 0.0
Cd142 Cd 0.60843 0.10506 0.07674 0.0
O143 O 0.57461 0.0997 0.08533 0.0
O144 O 0.60585 0.09323 0.21645 0.0
O145 O 0.61819 0.07636 0.16304 0.0
C146 C 0.61551 0.07628 0.20044 0.0
C147 C 0.61819 0.1009 0.01063 0.0
C148 C 0.56149 0.10156 0.11427 0.0
C149 C 0.62673 0.14378 0.12875 0.0
O150 O 0.62399 0.13359 0.09668 0.0
O151 O 0.61908 0.13576 0.16027 0.0
O152 O 0.60502 0.11622 0.02285 0.0
O153 O 0.62574 0.08694 0.036 0.0
O154 O 0.65004 0.82157 0.90495 0.0
Cd155 Cd 0.64831 0.85568 0.91212 0.0
Cd156 Cd 0.64599 0.85329 0.82638 0.0
O157 O 0.65075 0.82003 0.84052 0.0
O158 O 0.66002 0.86215 0.96519 0.0
O159 O 0.67749 0.87218 0.91105 0.0
C160 C 0.67712 0.87118 0.94868 0.0
C161 C 0.65232 0.86272 0.76099 0.0
C162 C 0.65142 0.81041 0.87352 0.0
C163 C 0.6083 0.87548 0.87495 0.0
O164 O 0.61736 0.86956 0.8432 0.0
O165 O 0.61768 0.87146 0.90736 0.0
O166 O 0.63673 0.84937 0.77159 0.0
O167 O 0.66577 0.8699 0.7875 0.0
O168 O 0.93697 0.10602 0.85181 0.0
Cd169 Cd 0.90351 0.10609 0.83727 0.0
Cd170 Cd 0.89941 0.11559 0.92121 0.0
O171 O 0.93261 0.10692 0.91573 0.0
O172 O 0.90115 0.09219 0.78468 0.0
O173 O 0.88724 0.07666 0.83797 0.0
C174 C 0.89078 0.07578 0.80086 0.0
C175 C 0.88655 0.11396 0.98595 0.0
C176 C 0.94513 0.10522 0.88599 0.0
C177 C 0.88366 0.1499 0.86004 0.0
O178 O 0.88784 0.14433 0.89498 0.0
O179 O 0.88765 0.13654 0.83217 0.0
O180 O 0.90132 0.12801 0.97461 0.0
O181 O 0.87904 0.10002 0.96051 0.0
O182 O 0.64613 0.18973 0.60438 0.0
Cd183 Cd 0.64629 0.1561 0.59054 0.0
Cd184 Cd 0.63843 0.15236 0.67348 0.0
O185 O 0.64615 0.18581 0.66836 0.0
O186 O 0.65913 0.15362 0.53719 0.0
O187 O 0.67571 0.13981 0.58957 0.0
C188 C 0.6758 0.14316 0.55237 0.0
C189 C 0.64324 0.1379 0.73661 0.0
C190 C 0.64715 0.19817 0.63834 0.0
C191 C 0.60299 0.13615 0.61562 0.0
O192 O 0.60887 0.14087 0.65017 0.0
O193 O 0.61606 0.13977 0.58721 0.0
O194 O 0.62856 0.15278 0.72848 0.0
O195 O 0.65611 0.13131 0.70877 0.0
O196 O 0.56824 0.89578 0.35745 0.0
Cd197 Cd 0.60201 0.89691 0.34571 0.0
Cd198 Cd 0.60652 0.88827 0.42453 0.0
O199 O 0.57301 0.89606 0.42108 0.0
O200 O 0.60705 0.91735 0.30094 0.0
O201 O 0.61818 0.92472 0.36125 0.0
C202 C 0.61628 0.93095 0.32529 0.0
C203 C 0.62097 0.89311 0.48753 0.0
C204 C 0.56019 0.89685 0.39165 0.0
C205 C 0.62218 0.85343 0.36509 0.0
O206 O 0.6177 0.85885 0.40001 0.0
O207 O 0.61847 0.86704 0.33744 0.0
O208 O 0.60616 0.87838 0.47944 0.0
O209 O 0.62794 0.90567 0.45957 0.0
O210 O 0.85456 0.81769 0.09222 0.0
Cd211 Cd 0.85413 0.852 0.09457 0.0
Cd212 Cd 0.8576 0.84469 0.17461 0.0
O213 O 0.85358 0.8121 0.15577 0.0
O214 O 0.83588 0.86307 0.05016 0.0
O215 O 0.82561 0.86612 0.11205 0.0
C216 C 0.82105 0.86892 0.07551 0.0
C217 C 0.84713 0.85219 0.23912 0.0
C218 C 0.85355 0.80451 0.12118 0.0
C219 C 0.89469 0.87005 0.13109 0.0
O220 O 0.88668 0.86144 0.16187 0.0
O221 O 0.88424 0.86867 0.09898 0.0
O222 O 0.86321 0.83889 0.23057 0.0
O223 O 0.83595 0.86078 0.21071 0.0
O224 O 0.57051 0.61214 0.84735 0.0
Cd225 Cd 0.60358 0.61213 0.83096 0.0
Cd226 Cd 0.61032 0.61047 0.91704 0.0
O227 O 0.57632 0.60555 0.90993 0.0
O228 O 0.60614 0.59977 0.77727 0.0
O229 O 0.61902 0.58242 0.82976 0.0
C230 C 0.61574 0.58256 0.7925 0.0
C231 C 0.62201 0.60549 0.98205 0.0
C232 C 0.56307 0.60806 0.88131 0.0
C233 C 0.62834 0.64969 0.86564 0.0
O234 O 0.62549 0.63922 0.8974 0.0
O235 O 0.62079 0.64193 0.83385 0.0
O236 O 0.60846 0.62092 0.97166 0.0
O237 O 0.62855 0.59169 0.95558 0.0
O238 O 0.6489 0.31631 0.09552 0.0
Cd239 Cd 0.64696 0.35058 0.08932 0.0
Cd240 Cd 0.63467 0.34621 0.17086 0.0
O241 O 0.64329 0.31358 0.159 0.0
O242 O 0.66074 0.35671 0.03756 0.0
O243 O 0.67599 0.3675 0.09316 0.0
C244 C 0.67704 0.36615 0.05563 0.0
C245 C 0.63833 0.35784 0.23578 0.0
C246 C 0.6477 0.30461 0.12636 0.0
C247 C 0.60134 0.36624 0.11319 0.0
O248 O 0.60591 0.3588 0.14687 0.0
O249 O 0.61578 0.3655 0.08608 0.0
O250 O 0.62412 0.34297 0.22526 0.0
O251 O 0.65147 0.36579 0.20943 0.0
O252 O 0.92943 0.40241 0.3484 0.0
Cd253 Cd 0.89518 0.4017 0.34412 0.0
Cd254 Cd 0.89937 0.3992 0.42812 0.0
O255 O 0.93233 0.40441 0.41253 0.0
O256 O 0.88794 0.41323 0.29121 0.0
O257 O 0.87973 0.43149 0.34551 0.0
C258 C 0.88 0.43083 0.30785 0.0
C259 C 0.8899 0.40823 0.49256 0.0
C260 C 0.94127 0.40429 0.37895 0.0
C261 C 0.87699 0.36107 0.38221 0.0
O262 O 0.88421 0.36957 0.41364 0.0
O263 O 0.87915 0.37129 0.35001 0.0
O264 O 0.90409 0.39292 0.48415 0.0
O265 O 0.88152 0.41956 0.46415 0.0
O266 O 0.85313 0.68397 0.61794 0.0
Cd267 Cd 0.85207 0.65066 0.60247 0.0
Cd268 Cd 0.86238 0.64473 0.68099 0.0
O269 O 0.8559 0.6786 0.68136 0.0
O270 O 0.83197 0.6477 0.5566 0.0
O271 O 0.82412 0.63376 0.61487 0.0
C272 C 0.81822 0.63727 0.57912 0.0
C273 C 0.85879 0.62646 0.74109 0.0
C274 C 0.85382 0.69169 0.65245 0.0
C275 C 0.89584 0.63019 0.61788 0.0
O276 O 0.8908 0.63364 0.65329 0.0
O277 O 0.88199 0.63482 0.59106 0.0
O278 O 0.87404 0.641 0.73449 0.0
O279 O 0.84441 0.62274 0.71391 0.0
O280 O 0.56313 0.40333 0.64804 0.0
Cd281 Cd 0.59758 0.40323 0.64928 0.0
Cd282 Cd 0.59136 0.38907 0.57239 0.0
O283 O 0.55858 0.39671 0.58529 0.0
O284 O 0.60601 0.42323 0.69326 0.0
O285 O 0.61295 0.43119 0.63142 0.0
C286 C 0.61349 0.43712 0.66766 0.0
C287 C 0.60266 0.39274 0.50738 0.0
C288 C 0.55045 0.40121 0.61856 0.0
C289 C 0.61416 0.35777 0.63036 0.0
O290 O 0.60536 0.36115 0.59724 0.0
O291 O 0.61399 0.37303 0.65612 0.0
O292 O 0.58839 0.378 0.51827 0.0
O293 O 0.61007 0.40643 0.53338 0.0
O294 O 0.8569 0.31819 0.89377 0.0
Cd295 Cd 0.85606 0.35135 0.90926 0.0
Cd296 Cd 0.85887 0.35827 0.82599 0.0
O297 O 0.85414 0.32404 0.83039 0.0
O298 O 0.83631 0.35593 0.95525 0.0
O299 O 0.82825 0.36799 0.89573 0.0
C300 C 0.8225 0.36571 0.93187 0.0
C301 C 0.85567 0.37217 0.76211 0.0
C302 C 0.85497 0.31074 0.85925 0.0
C303 C 0.89536 0.3759 0.88346 0.0
O304 O 0.88654 0.37331 0.85015 0.0
O305 O 0.88604 0.36807 0.91371 0.0
O306 O 0.87104 0.35851 0.77238 0.0
O307 O 0.84084 0.37736 0.78779 0.0
O308 O 0.93768 0.60609 0.14199 0.0
Cd309 Cd 0.90363 0.60554 0.15051 0.0
Cd310 Cd 0.9014 0.60312 0.06969 0.0
O311 O 0.93508 0.59791 0.07953 0.0
O312 O 0.8957 0.5877 0.19747 0.0
O313 O 0.88801 0.57718 0.1369 0.0
C314 C 0.88763 0.57293 0.17387 0.0
C315 C 0.88976 0.59147 0.00762 0.0
C316 C 0.94689 0.60131 0.1097 0.0
C317 C 0.88244 0.64409 0.11339 0.0
O318 O 0.88744 0.63382 0.0822 0.0
O319 O 0.88683 0.6355 0.14636 0.0
O320 O 0.90408 0.6071 0.01268 0.0
O321 O 0.88197 0.58164 0.03814 0.0
O322 O 0.64604 0.68445 0.39354 0.0
Cd323 Cd 0.64588 0.65105 0.40755 0.0
Cd324 Cd 0.64671 0.64592 0.32175 0.0
O325 O 0.65199 0.67975 0.33052 0.0
O326 O 0.65781 0.64738 0.46129 0.0
O327 O 0.67553 0.6355 0.40843 0.0
C328 C 0.67508 0.63801 0.44586 0.0
C329 C 0.65308 0.63515 0.25666 0.0
C330 C 0.64988 0.6925 0.35993 0.0
C331 C 0.60756 0.62751 0.37204 0.0
O332 O 0.61754 0.6309 0.33996 0.0
O333 O 0.61598 0.63416 0.40393 0.0
O334 O 0.63761 0.6488 0.26653 0.0
O335 O 0.66592 0.62771 0.28387 0.0
O336 O 0.4328 0.39259 0.14704 0.0
Cd337 Cd 0.39958 0.3922 0.16337 0.0
Cd338 Cd 0.39423 0.38268 0.0799 0.0
O339 O 0.42761 0.39106 0.08333 0.0
O340 O 0.39804 0.406 0.21614 0.0
O341 O 0.38281 0.42138 0.16387 0.0
C342 C 0.38704 0.42225 0.20076 0.0
C343 C 0.37934 0.38484 0.01657 0.0
C344 C 0.44051 0.39304 0.11252 0.0
C345 C 0.37974 0.34823 0.14164 0.0
O346 O 0.38322 0.35388 0.10652 0.0
O347 O 0.38418 0.36157 0.16933 0.0
O348 O 0.39435 0.3706 0.02614 0.0
O349 O 0.3729 0.39879 0.0429 0.0
O350 O 0.35835 0.68938 0.89893 0.0
Cd351 Cd 0.35868 0.65571 0.91217 0.0
Cd352 Cd 0.36673 0.65277 0.82775 0.0
O353 O 0.35774 0.6858 0.83485 0.0
O354 O 0.34573 0.65285 0.96543 0.0
O355 O 0.32928 0.63937 0.91267 0.0
C356 C 0.32903 0.6426 0.94991 0.0
C357 C 0.36367 0.64011 0.76305 0.0
C358 C 0.35668 0.69794 0.86515 0.0
C359 C 0.4022 0.6365 0.88628 0.0
O360 O 0.39613 0.64135 0.85187 0.0
O361 O 0.38917 0.63975 0.91492 0.0
O362 O 0.37776 0.65508 0.77344 0.0
O363 O 0.35046 0.63235 0.78944 0.0
O364 O 0.06432 0.60462 0.64585 0.0
Cd365 Cd 0.09746 0.60479 0.66172 0.0
Cd366 Cd 0.10363 0.60692 0.57437 0.0
O367 O 0.06967 0.60201 0.58224 0.0
O368 O 0.1002 0.59218 0.71517 0.0
O369 O 0.11357 0.57538 0.66253 0.0
C370 C 0.1104 0.57537 0.6998 0.0
C371 C 0.11399 0.60478 0.50826 0.0
C372 C 0.05664 0.60257 0.61149 0.0
C373 C 0.12245 0.64345 0.63052 0.0
O374 O 0.11984 0.63421 0.59755 0.0
O375 O 0.11428 0.63481 0.66111 0.0
O376 O 0.10095 0.61993 0.52155 0.0
O377 O 0.12088 0.58979 0.53237 0.0
O378 O 0.14213 0.32193 0.41434 0.0
Cd379 Cd 0.14096 0.35619 0.41981 0.0
Cd380 Cd 0.13887 0.35256 0.33431 0.0
O381 O 0.14411 0.31963 0.35008 0.0
O382 O 0.15315 0.36351 0.47225 0.0
O383 O 0.17041 0.37214 0.41718 0.0
C384 C 0.1703 0.37187 0.45486 0.0
C385 C 0.1457 0.36122 0.2687 0.0
C386 C 0.14411 0.3104 0.38342 0.0
C387 C 0.10105 0.37544 0.38142 0.0
O388 O 0.10999 0.3686 0.35011 0.0
O389 O 0.11056 0.37236 0.41405 0.0
O390 O 0.13049 0.34741 0.27927 0.0
O391 O 0.15835 0.36945 0.29549 0.0
O392 O 0.43442 0.60115 0.34669 0.0
Cd393 Cd 0.40002 0.6013 0.34479 0.0
Cd394 Cd 0.40553 0.61474 0.42258 0.0
O395 O 0.43843 0.60765 0.4096 0.0
O396 O 0.39188 0.58156 0.3003 0.0
O397 O 0.38459 0.57325 0.36189 0.0
C398 C 0.38433 0.5675 0.32555 0.0
C399 C 0.39474 0.61024 0.48779 0.0
C400 C 0.44684 0.60329 0.37648 0.0
C401 C 0.38305 0.64649 0.3648 0.0
O402 O 0.39125 0.64271 0.39827 0.0
O403 O 0.3838 0.6316 0.33841 0.0
O404 O 0.40857 0.62541 0.47697 0.0
O405 O 0.38729 0.59676 0.46151 0.0
O406 O 0.15085 0.69005 0.09999 0.0
Cd407 Cd 0.15099 0.65557 0.09808 0.0
Cd408 Cd 0.1379 0.66117 0.17476 0.0
O409 O 0.14544 0.6941 0.16317 0.0
O410 O 0.17043 0.64764 0.05307 0.0
O411 O 0.17931 0.64034 0.1144 0.0
C412 C 0.18474 0.64012 0.07792 0.0
C413 C 0.14344 0.64808 0.23827 0.0
C414 C 0.14929 0.70251 0.12987 0.0
C415 C 0.10573 0.63897 0.1182 0.0
O416 O 0.10929 0.648 0.15107 0.0
O417 O 0.1209 0.63883 0.0923 0.0
O418 O 0.12862 0.66286 0.23001 0.0
O419 O 0.15618 0.6412 0.21041 0.0
O420 O 0.06746 0.39805 0.85515 0.0
Cd421 Cd 0.10165 0.39787 0.85001 0.0
Cd422 Cd 0.09868 0.3902 0.93243 0.0
O423 O 0.06531 0.39536 0.9193 0.0
O424 O 0.10926 0.41693 0.80442 0.0
O425 O 0.11693 0.42619 0.86553 0.0
C426 C 0.11682 0.43143 0.82895 0.0
C427 C 0.10911 0.39505 0.99769 0.0
C428 C 0.05598 0.39762 0.88628 0.0
C429 C 0.12206 0.35617 0.87803 0.0
O430 O 0.11538 0.36283 0.91112 0.0
O431 O 0.11838 0.36765 0.84759 0.0
O432 O 0.09571 0.37955 0.98674 0.0
O433 O 0.11584 0.40906 0.97167 0.0
O434 O 0.34996 0.32106 0.595 0.0
Cd435 Cd 0.34948 0.35538 0.59538 0.0
Cd436 Cd 0.35542 0.34925 0.67644 0.0
O437 O 0.35141 0.31642 0.65878 0.0
O438 O 0.33048 0.36536 0.55112 0.0
O439 O 0.32113 0.36976 0.61318 0.0
C440 C 0.31598 0.37169 0.57671 0.0
C441 C 0.34757 0.35645 0.74224 0.0
C442 C 0.35015 0.30833 0.62461 0.0
C443 C 0.39063 0.37468 0.62806 0.0
O444 O 0.38343 0.36679 0.66001 0.0
O445 O 0.37961 0.3722 0.59673 0.0
O446 O 0.36375 0.34383 0.73148 0.0
O447 O 0.33484 0.36458 0.71544 0.0
H448 H 0.1178 0.03882 0.31963 0.0
H449 H 0.12242 0.08243 0.21911 0.0
H450 H 0.12898 0.04973 0.17678 0.0
H451 H 0.15882 0.99583 0.28653 0.0
H452 H 0.14219 0.97331 0.30574 0.0
H453 H 0.14167 1.00029 0.32899 0.0
H454 H 0.09865 0.00157 0.32167 0.0
H455 H 0.09905 0.97469 0.29839 0.0
H456 H 0.0864 0.99816 0.27405 0.0
H457 H 0.13092 0.01224 0.14447 0.0
H458 H 0.12629 0.97293 0.12439 0.0
H459 H 0.11928 0.95363 0.24568 0.0
C460 C 0.12089 0.04152 0.2889 0.0
C461 C 0.1199 0.06316 0.27269 0.0
C462 C 0.12327 0.06598 0.23215 0.0
C463 C 0.1271 0.04752 0.2079 0.0
C464 C 0.12744 0.02632 0.22462 0.0
C465 C 0.12442 0.02322 0.26421 0.0
C466 C 0.12302 0.99862 0.27421 0.0
C467 C 0.1426 0.9916 0.30042 0.0
C468 C 0.10044 0.99294 0.29318 0.0
C469 C 0.12505 0.98841 0.23396 0.0
C470 C 0.12801 0.00464 0.20583 0.0
C471 C 0.12893 0.99935 0.16629 0.0
C472 C 0.12628 0.97696 0.15516 0.0
C473 C 0.12252 0.96016 0.18343 0.0
C474 C 0.1224 0.96601 0.22336 0.0
H475 H 0.19734 0.86661 0.49881 0.0
H476 H 0.21702 0.87721 0.61909 0.0
H477 H 0.25613 0.88202 0.59809 0.0
H478 H 0.24167 0.83404 0.47233 0.0
H479 H 0.24493 0.84505 0.4238 0.0
H480 H 0.21812 0.84602 0.44719 0.0
H481 H 0.21638 0.88883 0.43701 0.0
H482 H 0.24318 0.88799 0.41319 0.0
H483 H 0.23889 0.9061 0.45447 0.0
H484 H 0.29344 0.87913 0.5657 0.0
H485 H 0.32602 0.87163 0.52354 0.0
H486 H 0.28221 0.86482 0.42373 0.0
C487 C 0.20976 0.87059 0.52064 0.0
C488 C 0.20411 0.87159 0.56061 0.0
C489 C 0.22091 0.87654 0.5883 0.0
C490 C 0.24319 0.87928 0.57663 0.0
C491 C 0.24832 0.87741 0.53713 0.0
C492 C 0.23202 0.87356 0.50945 0.0
C493 C 0.24212 0.87063 0.46926 0.0
C494 C 0.23637 0.84757 0.45217 0.0
C495 C 0.2347 0.88952 0.44187 0.0
C496 C 0.26671 0.87245 0.47889 0.0
C497 C 0.26992 0.87649 0.51819 0.0
C498 C 0.29115 0.87655 0.53475 0.0
C499 C 0.30953 0.87218 0.51064 0.0
C500 C 0.3066 0.86801 0.47036 0.0
C501 C 0.28494 0.86857 0.45423 0.0
H502 H 0.38678 0.06156 0.7556 0.0
H503 H 0.3678 0.04187 0.63847 0.0
H504 H 0.36076 0.00355 0.66173 0.0
H505 H 0.41682 0.01451 0.77759 0.0
H506 H 0.40856 0.01265 0.828 0.0
H507 H 0.40859 0.03926 0.80382 0.0
H508 H 0.36699 0.04493 0.82183 0.0
H509 H 0.36685 0.0183 0.84629 0.0
H510 H 0.34681 0.02399 0.80839 0.0
H511 H 0.36164 0.96655 0.69487 0.0
H512 H 0.36913 0.93365 0.7362 0.0
H513 H 0.38621 0.97718 0.83261 0.0
C514 C 0.38054 0.04936 0.73504 0.0
C515 C 0.37776 0.05476 0.69521 0.0
C516 C 0.36995 0.03818 0.66914 0.0
C517 C 0.36585 0.01636 0.68211 0.0
C518 C 0.36938 0.01143 0.72132 0.0
C519 C 0.37631 0.02751 0.74754 0.0
C520 C 0.38074 0.01744 0.78733 0.0
C521 C 0.40512 0.02119 0.79989 0.0
C522 C 0.36436 0.02672 0.81776 0.0
C523 C 0.37614 0.99303 0.77897 0.0
C524 C 0.36939 0.98998 0.7408 0.0
C525 C 0.36637 0.96876 0.72505 0.0
C526 C 0.37073 0.95018 0.74869 0.0
C527 C 0.37788 0.95293 0.7877 0.0
C528 C 0.38011 0.97464 0.80323 0.0
H529 H 0.19917 0.13019 0.99593 0.0
H530 H 0.21994 0.12293 0.87544 0.0
H531 H 0.25884 0.1174 0.89708 0.0
H532 H 0.24325 0.16191 0.02625 0.0
H533 H 0.24607 0.14959 0.07391 0.0
H534 H 0.21947 0.14931 0.04973 0.0
H535 H 0.21763 0.10627 0.05634 0.0
H536 H 0.24422 0.10642 0.08092 0.0
H537 H 0.24029 0.08945 0.03809 0.0
H538 H 0.29583 0.11926 0.93068 0.0
H539 H 0.32802 0.12565 0.97425 0.0
H540 H 0.28333 0.1299 0.07331 0.0
C541 C 0.21179 0.12679 0.97413 0.0
C542 C 0.2065 0.12693 0.93397 0.0
C543 C 0.22355 0.12273 0.90636 0.0
C544 C 0.24571 0.11958 0.91839 0.0
C545 C 0.25047 0.12032 0.95814 0.0
C546 C 0.23393 0.12345 0.98567 0.0
C547 C 0.24366 0.12528 0.02632 0.0
C548 C 0.23776 0.14786 0.04512 0.0
C549 C 0.23599 0.10568 0.05192 0.0
C550 C 0.26833 0.12367 0.01721 0.0
C551 C 0.27189 0.12066 0.97772 0.0
C552 C 0.29327 0.12102 0.96174 0.0
C553 C 0.31143 0.12476 0.98666 0.0
C554 C 0.30813 0.1279 0.02713 0.0
C555 C 0.28634 0.12691 0.04262 0.0
H556 H 0.88922 0.94685 0.74904 0.0
H557 H 0.87394 0.96582 0.62995 0.0
H558 H 0.86893 0.00491 0.65104 0.0
H559 H 0.84995 0.98689 0.7966 0.0
H560 H 0.86901 0.99205 0.83622 0.0
H561 H 0.86868 0.96518 0.81256 0.0
H562 H 0.911 0.96875 0.79847 0.0
H563 H 0.91145 0.99561 0.82183 0.0
H564 H 0.92118 0.9928 0.77237 0.0
H565 H 0.87135 0.04243 0.68303 0.0
H566 H 0.87833 0.07539 0.72461 0.0
H567 H 0.88979 0.03205 0.82374 0.0
C568 C 0.88431 0.95913 0.72753 0.0
C569 C 0.88194 0.95328 0.68782 0.0
C570 C 0.8757 0.96987 0.66055 0.0
C571 C 0.87283 0.99213 0.67226 0.0
C572 C 0.87588 0.99745 0.71146 0.0
C573 C 0.88113 0.98136 0.73882 0.0
C574 C 0.88476 0.99164 0.77868 0.0
C575 C 0.86704 0.98345 0.80773 0.0
C576 C 0.90851 0.98692 0.79369 0.0
C577 C 0.88158 0.01613 0.76919 0.0
C578 C 0.87639 0.0191 0.73026 0.0
C579 C 0.87485 0.0403 0.71374 0.0
C580 C 0.87891 0.0589 0.73751 0.0
C581 C 0.8842 0.05621 0.77743 0.0
C582 C 0.88514 0.03456 0.79356 0.0
H583 H 0.80376 0.13429 0.49718 0.0
H584 H 0.78297 0.12692 0.37672 0.0
H585 H 0.74388 0.12284 0.39825 0.0
H586 H 0.76112 0.09546 0.54024 0.0
H587 H 0.75772 0.11298 0.58253 0.0
H588 H 0.78433 0.1116 0.55814 0.0
H589 H 0.78407 0.15461 0.55026 0.0
H590 H 0.75744 0.15612 0.5742 0.0
H591 H 0.76083 0.16785 0.5262 0.0
H592 H 0.70692 0.12604 0.43158 0.0
H593 H 0.67487 0.13384 0.47471 0.0
H594 H 0.7195 0.13778 0.57392 0.0
C595 C 0.79109 0.13113 0.47537 0.0
C596 C 0.79645 0.13084 0.43523 0.0
C597 C 0.77932 0.12704 0.40762 0.0
C598 C 0.75705 0.1247 0.41959 0.0
C599 C 0.75224 0.12589 0.4593 0.0
C600 C 0.76882 0.12867 0.48685 0.0
C601 C 0.75908 0.13126 0.52737 0.0
C602 C 0.76597 0.11165 0.55362 0.0
C603 C 0.76575 0.1538 0.54554 0.0
C604 C 0.73438 0.13048 0.51812 0.0
C605 C 0.7308 0.12719 0.47872 0.0
C606 C 0.70949 0.12807 0.46259 0.0
C607 C 0.69141 0.13262 0.48727 0.0
C608 C 0.69472 0.13612 0.52766 0.0
C609 C 0.71645 0.13461 0.54331 0.0
H610 H 0.61757 0.94741 0.25089 0.0
H611 H 0.62885 0.96607 0.37149 0.0
H612 H 0.63436 0.00525 0.35128 0.0
H613 H 0.65787 0.98806 0.20733 0.0
H614 H 0.6399 0.99312 0.16615 0.0
H615 H 0.63993 0.96617 0.18951 0.0
H616 H 0.5972 0.96912 0.1999 0.0
H617 H 0.59704 0.99606 0.17686 0.0
H618 H 0.58595 0.99292 0.22537 0.0
H619 H 0.63266 0.04289 0.31943 0.0
H620 H 0.62625 0.07589 0.27769 0.0
H621 H 0.61795 0.03268 0.17738 0.0
C622 C 0.62176 0.95963 0.27297 0.0
C623 C 0.62282 0.95367 0.31278 0.0
C624 C 0.6281 0.9702 0.3408 0.0
C625 C 0.63126 0.99251 0.32959 0.0
C626 C 0.62945 0.99793 0.2902 0.0
C627 C 0.62516 0.9819 0.26224 0.0
C628 C 0.62253 0.99228 0.22224 0.0
C629 C 0.64117 0.98444 0.19468 0.0
C630 C 0.5993 0.9873 0.20511 0.0
C631 C 0.62509 0.01675 0.23229 0.0
C632 C 0.6292 0.01965 0.27162 0.0
C633 C 0.63 0.04081 0.28845 0.0
C634 C 0.62626 0.05945 0.26457 0.0
C635 C 0.62196 0.0568 0.22427 0.0
C636 C 0.62181 0.03519 0.2079 0.0
H637 H 0.72073 0.87444 0.92585 0.0
H638 H 0.6771 0.88261 0.02563 0.0
H639 H 0.70988 0.88879 0.06784 0.0
H640 H 0.75942 0.84224 0.97272 0.0
H641 H 0.78366 0.85332 0.94839 0.0
H642 H 0.75695 0.85412 0.92464 0.0
H643 H 0.7605 0.89694 0.91595 0.0
H644 H 0.78737 0.89625 0.93956 0.0
H645 H 0.7657 0.9143 0.95787 0.0
H646 H 0.74712 0.88881 0.10058 0.0
H647 H 0.78587 0.88163 0.12153 0.0
H648 H 0.80541 0.87255 0.00077 0.0
C649 C 0.71807 0.87835 0.95631 0.0
C650 C 0.69639 0.87836 0.97242 0.0
C651 C 0.69358 0.88272 0.01267 0.0
C652 C 0.71209 0.88633 0.03684 0.0
C653 C 0.73333 0.8855 0.02033 0.0
C654 C 0.73642 0.88169 0.98094 0.0
C655 C 0.76094 0.87884 0.97135 0.0
C656 C 0.7655 0.85576 0.95323 0.0
C657 C 0.76911 0.89771 0.9446 0.0
C658 C 0.77105 0.88078 0.01167 0.0
C659 C 0.7549 0.88506 0.03942 0.0
C660 C 0.75998 0.88585 0.07905 0.0
C661 C 0.78205 0.88172 0.09069 0.0
C662 C 0.79872 0.87664 0.06281 0.0
C663 C 0.79315 0.87671 0.02277 0.0
H664 H 0.6175 0.45358 0.74179 0.0
H665 H 0.62423 0.47234 0.62021 0.0
H666 H 0.63005 0.51158 0.63984 0.0
H667 H 0.5862 0.49867 0.77043 0.0
H668 H 0.59882 0.502 0.81775 0.0
H669 H 0.59859 0.47505 0.79475 0.0
H670 H 0.64161 0.47266 0.80081 0.0
H671 H 0.64198 0.49962 0.82415 0.0
H672 H 0.65865 0.49478 0.78124 0.0
H673 H 0.62919 0.54923 0.67191 0.0
H674 H 0.6239 0.58218 0.71425 0.0
H675 H 0.61925 0.5389 0.81519 0.0
C676 C 0.6208 0.46582 0.7193 0.0
C677 C 0.62048 0.45986 0.67943 0.0
C678 C 0.62456 0.47646 0.65093 0.0
C679 C 0.62789 0.49881 0.66182 0.0
C680 C 0.62739 0.50423 0.70133 0.0
C681 C 0.62428 0.48815 0.72969 0.0
C682 C 0.62282 0.49852 0.76989 0.0
C683 C 0.60027 0.49325 0.78932 0.0
C684 C 0.64244 0.49095 0.79554 0.0
C685 C 0.62472 0.52303 0.75962 0.0
C686 C 0.6275 0.52597 0.71994 0.0
C687 C 0.62755 0.54713 0.7031 0.0
C688 C 0.62445 0.56574 0.72734 0.0
C689 C 0.62149 0.56308 0.76801 0.0
C690 C 0.62206 0.54146 0.78433 0.0
H691 H 0.80594 0.36378 0.00635 0.0
H692 H 0.78815 0.38254 0.88819 0.0
H693 H 0.74944 0.38949 0.90947 0.0
H694 H 0.7583 0.33393 0.02683 0.0
H695 H 0.75584 0.34254 0.07698 0.0
H696 H 0.78275 0.34215 0.05387 0.0
H697 H 0.78847 0.38384 0.07132 0.0
H698 H 0.76151 0.38435 0.09465 0.0
H699 H 0.76787 0.40409 0.0566 0.0
H700 H 0.71185 0.3887 0.94098 0.0
H701 H 0.67837 0.38182 0.98125 0.0
H702 H 0.72051 0.36541 0.07981 0.0
C703 C 0.79404 0.36989 0.98512 0.0
C704 C 0.80011 0.37267 0.94559 0.0
C705 C 0.78396 0.3804 0.91866 0.0
C706 C 0.76191 0.38443 0.93049 0.0
C707 C 0.75635 0.38097 0.96947 0.0
C708 C 0.77201 0.37414 0.99651 0.0
C709 C 0.76136 0.37006 0.03596 0.0
C710 C 0.76476 0.34573 0.04915 0.0
C711 C 0.77034 0.38657 0.06643 0.0
C712 C 0.73712 0.37478 0.0265 0.0
C713 C 0.73462 0.38121 0.98803 0.0
C714 C 0.71363 0.38424 0.97137 0.0
C715 C 0.69472 0.38025 0.99441 0.0
C716 C 0.69692 0.37351 0.03374 0.0
C717 C 0.71839 0.37124 0.05016 0.0
H718 H 0.88115 0.47484 0.32887 0.0
H719 H 0.86564 0.43072 0.23247 0.0
H720 H 0.86067 0.46335 0.18935 0.0
H721 H 0.8442 0.52267 0.29919 0.0
H722 H 0.86467 0.54294 0.31428 0.0
H723 H 0.86266 0.51654 0.33926 0.0
H724 H 0.90458 0.50923 0.32579 0.0
H725 H 0.90668 0.53544 0.3006 0.0
H726 H 0.9147 0.50999 0.27633 0.0
H727 H 0.86222 0.50007 0.15491 0.0
H728 H 0.87109 0.53796 0.13134 0.0
H729 H 0.88689 0.55824 0.2496 0.0
C730 C 0.87588 0.47213 0.29906 0.0
C731 C 0.87342 0.45031 0.28409 0.0
C732 C 0.86738 0.44733 0.24456 0.0
C733 C 0.86446 0.46577 0.21989 0.0
C734 C 0.86773 0.48707 0.23518 0.0
C735 C 0.87325 0.49036 0.2739 0.0
C736 C 0.87852 0.51468 0.28187 0.0
C737 C 0.86149 0.5248 0.31033 0.0
C738 C 0.90254 0.51749 0.29702 0.0
C739 C 0.87586 0.52439 0.24137 0.0
C740 C 0.86922 0.50827 0.21501 0.0
C741 C 0.86708 0.51292 0.17538 0.0
C742 C 0.8722 0.53449 0.16225 0.0
C743 C 0.87961 0.55111 0.1886 0.0
C744 C 0.88102 0.546 0.22876 0.0
H745 H 0.71913 0.63735 0.42531 0.0
H746 H 0.67431 0.62571 0.52234 0.0
H747 H 0.70666 0.61933 0.56564 0.0
H748 H 0.76427 0.59809 0.4552 0.0
H749 H 0.78588 0.61705 0.43972 0.0
H750 H 0.75932 0.61685 0.41504 0.0
H751 H 0.75496 0.65921 0.42828 0.0
H752 H 0.78139 0.65953 0.45304 0.0
H753 H 0.7567 0.66939 0.47763 0.0
H754 H 0.74374 0.6176 0.59954 0.0
H755 H 0.78245 0.62317 0.62232 0.0
H756 H 0.803 0.63802 0.50386 0.0
C757 C 0.71616 0.63277 0.4554 0.0
C758 C 0.69427 0.63164 0.47044 0.0
C759 C 0.69099 0.62644 0.51025 0.0
C760 C 0.70924 0.6227 0.53499 0.0
C761 C 0.73068 0.62444 0.51951 0.0
C762 C 0.73422 0.62944 0.48065 0.0
C763 C 0.7588 0.63294 0.47232 0.0
C764 C 0.76758 0.61517 0.44389 0.0
C765 C 0.76321 0.65668 0.45693 0.0
C766 C 0.76845 0.62972 0.51273 0.0
C767 C 0.75202 0.62436 0.53938 0.0
C768 C 0.75678 0.62156 0.57886 0.0
C769 C 0.77882 0.62474 0.59153 0.0
C770 C 0.79575 0.63101 0.5649 0.0
C771 C 0.79046 0.63312 0.52492 0.0
H772 H 0.38254 0.46576 0.17756 0.0
H773 H 0.37801 0.4225 0.27851 0.0
H774 H 0.37117 0.45529 0.32051 0.0
H775 H 0.41391 0.5065 0.22317 0.0
H776 H 0.40138 0.52994 0.19856 0.0
H777 H 0.40177 0.50301 0.17548 0.0
H778 H 0.35877 0.50442 0.16781 0.0
H779 H 0.35826 0.53144 0.19092 0.0
H780 H 0.34152 0.509 0.2101 0.0
H781 H 0.36874 0.49277 0.35243 0.0
H782 H 0.37354 0.53207 0.3724 0.0
H783 H 0.38133 0.55114 0.25115 0.0
C784 C 0.3794 0.46319 0.20832 0.0
C785 C 0.38045 0.44162 0.22479 0.0
C786 C 0.37709 0.43891 0.26534 0.0
C787 C 0.37308 0.45741 0.28937 0.0
C788 C 0.37265 0.47855 0.27244 0.0
C789 C 0.37579 0.48155 0.23285 0.0
C790 C 0.37728 0.50613 0.22272 0.0
C791 C 0.39993 0.51171 0.20389 0.0
C792 C 0.35779 0.51315 0.19633 0.0
C793 C 0.37518 0.51642 0.2629 0.0
C794 C 0.37202 0.50026 0.29108 0.0
C795 C 0.37091 0.50561 0.33058 0.0
C796 C 0.37364 0.528 0.34166 0.0
C797 C 0.37774 0.54471 0.31337 0.0
C798 C 0.37799 0.53881 0.27346 0.0
H799 H 0.20054 0.63768 0.00313 0.0
H800 H 0.22044 0.62872 0.12371 0.0
H801 H 0.25953 0.6237 0.10271 0.0
H802 H 0.24202 0.59785 0.95997 0.0
H803 H 0.24626 0.61548 0.91807 0.0
H804 H 0.21949 0.61495 0.94204 0.0
H805 H 0.22127 0.65786 0.95083 0.0
H806 H 0.24803 0.65853 0.92722 0.0
H807 H 0.24488 0.67009 0.97541 0.0
H808 H 0.29679 0.62583 0.06995 0.0
H809 H 0.32931 0.63268 0.02737 0.0
H810 H 0.28531 0.63874 0.92764 0.0
C811 C 0.21301 0.63403 0.02506 0.0
C812 C 0.2074 0.63352 0.06509 0.0
C813 C 0.22428 0.62903 0.09288 0.0
C814 C 0.24655 0.62616 0.08122 0.0
C815 C 0.25161 0.6275 0.04162 0.0
C816 C 0.23527 0.631 0.01389 0.0
C817 C 0.2453 0.63347 0.97355 0.0
C818 C 0.23782 0.61429 0.94683 0.0
C819 C 0.23953 0.65634 0.95574 0.0
C820 C 0.26991 0.63173 0.98312 0.0
C821 C 0.27318 0.62812 0.02252 0.0
C822 C 0.29445 0.6281 0.03894 0.0
C823 C 0.3128 0.6321 0.01457 0.0
C824 C 0.30981 0.63591 0.97419 0.0
C825 C 0.28811 0.63528 0.95823 0.0
H826 H 0.11856 0.44705 0.75394 0.0
H827 H 0.12777 0.46747 0.87422 0.0
H828 H 0.13159 0.50663 0.8529 0.0
H829 H 0.15702 0.48954 0.70983 0.0
H830 H 0.13903 0.4932 0.66822 0.0
H831 H 0.14047 0.46651 0.69233 0.0
H832 H 0.09759 0.46711 0.70182 0.0
H833 H 0.09602 0.49383 0.67814 0.0
H834 H 0.08484 0.49041 0.72654 0.0
H835 H 0.12812 0.54376 0.82002 0.0
H836 H 0.12029 0.57602 0.77732 0.0
H837 H 0.11492 0.53163 0.67796 0.0
C838 C 0.12204 0.45965 0.77572 0.0
C839 C 0.12294 0.45416 0.81577 0.0
C840 C 0.12718 0.47122 0.84337 0.0
C841 C 0.12936 0.49354 0.83153 0.0
C842 C 0.12759 0.49847 0.79194 0.0
C843 C 0.12439 0.48197 0.76436 0.0
C844 C 0.12141 0.49186 0.72403 0.0
C845 C 0.14063 0.48486 0.69701 0.0
C846 C 0.09861 0.48542 0.70664 0.0
C847 C 0.1225 0.51653 0.73345 0.0
C848 C 0.12622 0.51998 0.77276 0.0
C849 C 0.12575 0.54129 0.78906 0.0
C850 C 0.12119 0.55949 0.76463 0.0
C851 C 0.11732 0.55631 0.72431 0.0
C852 C 0.11839 0.53458 0.7085 0.0
H853 H 0.21372 0.37452 0.43052 0.0
H854 H 0.17124 0.38419 0.53141 0.0
H855 H 0.20451 0.39079 0.57224 0.0
H856 H 0.25306 0.3429 0.47756 0.0
H857 H 0.27697 0.35366 0.45183 0.0
H858 H 0.24997 0.35404 0.42906 0.0
H859 H 0.25331 0.39671 0.41824 0.0
H860 H 0.28045 0.39645 0.44089 0.0
H861 H 0.25896 0.41473 0.45915 0.0
H862 H 0.24219 0.39138 0.60365 0.0
H863 H 0.28126 0.38484 0.62343 0.0
H864 H 0.29934 0.37391 0.50244 0.0
C865 C 0.21142 0.37881 0.46091 0.0
C866 C 0.18991 0.37914 0.47773 0.0
C867 C 0.18757 0.38403 0.5179 0.0
C868 C 0.20637 0.38788 0.54129 0.0
C869 C 0.22741 0.38676 0.5241 0.0
C870 C 0.23005 0.38241 0.48478 0.0
C871 C 0.25446 0.37947 0.47444 0.0
C872 C 0.25886 0.35613 0.45723 0.0
C873 C 0.26225 0.39795 0.44653 0.0
C874 C 0.26505 0.38204 0.51427 0.0
C875 C 0.24922 0.38666 0.54241 0.0
C876 C 0.2548 0.38815 0.58178 0.0
C877 C 0.27705 0.38438 0.59275 0.0
C878 C 0.29341 0.37898 0.5645 0.0
C879 C 0.28731 0.37831 0.52471 0.0
H880 H 0.12042 0.18437 0.32111 0.0
H881 H 0.14552 0.16529 0.43503 0.0
H882 H 0.15703 0.20404 0.44725 0.0
H883 H 0.16383 0.22813 0.3009 0.0
H884 H 0.14387 0.24619 0.27745 0.0
H885 H 0.14045 0.21632 0.27508 0.0
H886 H 0.10067 0.22026 0.3038 0.0
H887 H 0.10403 0.25004 0.30666 0.0
H888 H 0.0969 0.23438 0.34973 0.0
H889 H 0.16082 0.24513 0.45155 0.0
H890 H 0.15916 0.28614 0.4454 0.0
H891 H 0.1328 0.27923 0.32823 0.0
C892 C 0.12898 0.18824 0.34806 0.0
C893 C 0.1321 0.17177 0.37705 0.0
C894 C 0.14291 0.17761 0.41237 0.0
C895 C 0.14957 0.19959 0.4196 0.0
C896 C 0.14551 0.21559 0.39113 0.0
C897 C 0.13576 0.21022 0.35583 0.0
C898 C 0.13184 0.23102 0.33153 0.0
C899 C 0.14584 0.23037 0.29402 0.0
C900 C 0.10688 0.23409 0.32242 0.0
C901 C 0.14022 0.24886 0.35927 0.0
C902 C 0.14814 0.23955 0.39339 0.0
C903 C 0.1551 0.25264 0.42467 0.0
C904 C 0.15397 0.27591 0.42101 0.0
C905 C 0.14606 0.28585 0.38625 0.0
C906 C 0.13933 0.27209 0.35488 0.0
H907 H 0.97519 0.89108 0.65684 0.0
H908 H 0.96398 0.8964 0.53222 0.0
H909 H 0.00455 0.89336 0.52078 0.0
H910 H 0.02882 0.92144 0.6597 0.0
H911 H 0.04013 0.903 0.6962 0.0
H912 H 0.01056 0.90837 0.69465 0.0
H913 H 0.00294 0.86585 0.68998 0.0
H914 H 0.03243 0.86038 0.69138 0.0
H915 H 0.01586 0.8499 0.65155 0.0
H916 H 0.04627 0.88642 0.52277 0.0
H917 H 0.08513 0.87547 0.53826 0.0
H918 H 0.0683 0.87438 0.66131 0.0
C919 C 0.98126 0.89211 0.62717 0.0
C920 C 0.96638 0.8941 0.59546 0.0
C921 C 0.97505 0.89494 0.55703 0.0
C922 C 0.99809 0.8933 0.55022 0.0
C923 C 0.01226 0.89087 0.58213 0.0
C924 C 0.00415 0.89036 0.61985 0.0
C925 C 0.02258 0.88589 0.6489 0.0
C926 C 0.0257 0.90587 0.67649 0.0
C927 C 0.01819 0.86422 0.67177 0.0
C928 C 0.04223 0.88341 0.62159 0.0
C929 C 0.03608 0.88661 0.58322 0.0
C930 C 0.05133 0.88411 0.55277 0.0
C931 C 0.07336 0.8779 0.56182 0.0
C932 C 0.07979 0.87404 0.60096 0.0
C933 C 0.064 0.87722 0.63106 0.0
H934 H 0.38224 0.82377 0.92221 0.0
H935 H 0.36657 0.84178 0.80273 0.0
H936 H 0.35396 0.80316 0.79032 0.0
H937 H 0.4049 0.77169 0.90178 0.0
H938 H 0.394 0.75808 0.94457 0.0
H939 H 0.39928 0.78762 0.94527 0.0
H940 H 0.35829 0.79497 0.96564 0.0
H941 H 0.35287 0.76538 0.96507 0.0
H942 H 0.3359 0.78397 0.93629 0.0
H943 H 0.34673 0.76184 0.78921 0.0
H944 H 0.34529 0.7211 0.79935 0.0
H945 H 0.36534 0.73026 0.91985 0.0
C946 C 0.37579 0.81976 0.89358 0.0
C947 C 0.37536 0.83587 0.86345 0.0
C948 C 0.367 0.82978 0.82632 0.0
C949 C 0.35976 0.80789 0.81902 0.0
C950 C 0.36081 0.79235 0.84922 0.0
C951 C 0.3685 0.79806 0.88583 0.0
C952 C 0.36935 0.77795 0.91255 0.0
C953 C 0.3933 0.77358 0.92686 0.0
C954 C 0.35313 0.78074 0.94692 0.0
C955 C 0.36155 0.75988 0.88494 0.0
C956 C 0.3565 0.76856 0.84866 0.0
C957 C 0.35033 0.7549 0.81764 0.0
C958 C 0.34962 0.73177 0.82369 0.0
C959 C 0.35508 0.72247 0.86048 0.0
C960 C 0.36071 0.73684 0.8916 0.0
H961 H 0.43378 0.12133 0.16701 0.0
H962 H 0.41877 0.11373 0.04393 0.0
H963 H 0.45807 0.10324 0.03161 0.0
H964 H 0.48547 0.14707 0.15451 0.0
H965 H 0.49857 0.13386 0.19578 0.0
H966 H 0.46888 0.13822 0.19551 0.0
H967 H 0.46248 0.09597 0.20724 0.0
H968 H 0.49221 0.09146 0.20765 0.0
H969 H 0.47481 0.07593 0.17449 0.0
H970 H 0.49949 0.09625 0.03223 0.0
H971 H 0.53991 0.09433 0.04502 0.0
H972 H 0.52774 0.10728 0.16774 0.0
C973 C 0.43858 0.11706 0.13751 0.0
C974 C 0.42312 0.11821 0.10644 0.0
C975 C 0.43028 0.11287 0.06822 0.0
C976 C 0.45254 0.10684 0.06097 0.0
C977 C 0.4674 0.10623 0.09225 0.0
C978 C 0.4607 0.11118 0.12976 0.0
C979 C 0.48019 0.11087 0.15785 0.0
C980 C 0.48346 0.13387 0.17702 0.0
C981 C 0.47724 0.09246 0.18862 0.0
C982 C 0.49905 0.10543 0.13014 0.0
C983 C 0.4913 0.10254 0.09253 0.0
C984 C 0.50572 0.09829 0.06161 0.0
C985 C 0.52868 0.09725 0.06923 0.0
C986 C 0.53707 0.10063 0.10745 0.0
C987 C 0.52192 0.10446 0.13828 0.0
H988 H 0.13595 0.73501 0.18143 0.0
H989 H 0.1665 0.72539 0.06795 0.0
H990 H 0.16733 0.76614 0.05821 0.0
H991 H 0.09993 0.77735 0.15301 0.0
H992 H 0.10172 0.79321 0.19754 0.0
H993 H 0.10649 0.76358 0.1983 0.0
H994 H 0.14518 0.76998 0.23005 0.0
H995 H 0.14054 0.79971 0.2293 0.0
H996 H 0.16506 0.78812 0.2066 0.0
H997 H 0.16093 0.80685 0.057 0.0
H998 H 0.14664 0.84524 0.06347 0.0
H999 H 0.12039 0.8294 0.17792 0.0
C1000 C 0.1433 0.74151 0.15494 0.0
C1001 C 0.1513 0.72701 0.12553 0.0
C1002 C 0.16031 0.73615 0.09089 0.0
C1003 C 0.16098 0.75929 0.08519 0.0
C1004 C 0.15263 0.7731 0.11443 0.0
C1005 C 0.14396 0.76461 0.14866 0.0
C1006 C 0.13411 0.78304 0.1737 0.0
C1007 C 0.10908 0.77905 0.18104 0.0
C1008 C 0.147 0.78534 0.2122 0.0
C1009 C 0.13793 0.80309 0.14757 0.0
C1010 C 0.14894 0.79694 0.11379 0.0
C1011 C 0.15269 0.81197 0.08359 0.0
C1012 C 0.14448 0.83371 0.08751 0.0
C1013 C 0.13271 0.84029 0.12139 0.0
C1014 C 0.12989 0.82494 0.15223 0.0
H1015 H 0.527 0.89201 0.33698 0.0
H1016 H 0.53803 0.90249 0.4607 0.0
H1017 H 0.49757 0.89961 0.47245 0.0
H1018 H 0.47308 0.92218 0.331 0.0
H1019 H 0.46173 0.90244 0.29667 0.0
H1020 H 0.4913 0.90791 0.29741 0.0
H1021 H 0.49901 0.86566 0.30665 0.0
H1022 H 0.46953 0.8601 0.30614 0.0
H1023 H 0.48625 0.85112 0.34688 0.0
H1024 H 0.45635 0.89181 0.47176 0.0
H1025 H 0.41751 0.88031 0.45815 0.0
H1026 H 0.4335 0.87524 0.33502 0.0
C1027 C 0.52088 0.8942 0.36643 0.0
C1028 C 0.53573 0.89754 0.39786 0.0
C1029 C 0.52702 0.89995 0.43607 0.0
C1030 C 0.50403 0.89839 0.44308 0.0
C1031 C 0.48991 0.89455 0.41158 0.0
C1032 C 0.49797 0.89265 0.37397 0.0
C1033 C 0.47944 0.88711 0.34562 0.0
C1034 C 0.4762 0.90604 0.31592 0.0
C1035 C 0.48383 0.86466 0.32514 0.0
C1036 C 0.45984 0.88558 0.37332 0.0
C1037 C 0.46615 0.89013 0.41119 0.0
C1038 C 0.45113 0.88852 0.44212 0.0
C1039 C 0.42912 0.88193 0.43413 0.0
C1040 C 0.42238 0.87695 0.39553 0.0
C1041 C 0.43798 0.87913 0.36483 0.0
H1042 H 0.37808 0.18135 0.6751 0.0
H1043 H 0.355 0.16506 0.55858 0.0
H1044 H 0.34251 0.20382 0.54948 0.0
H1045 H 0.3333 0.22285 0.69783 0.0
H1046 H 0.35235 0.24082 0.72366 0.0
H1047 H 0.35687 0.21107 0.7232 0.0
H1048 H 0.39673 0.21734 0.69614 0.0
H1049 H 0.39228 0.24703 0.69617 0.0
H1050 H 0.40039 0.23309 0.65183 0.0
H1051 H 0.33681 0.24482 0.5494 0.0
H1052 H 0.3365 0.28555 0.55989 0.0
H1053 H 0.36252 0.27578 0.67672 0.0
C1054 C 0.36982 0.18581 0.64814 0.0
C1055 C 0.36747 0.17013 0.61761 0.0
C1056 C 0.35701 0.17675 0.5824 0.0
C1057 C 0.34979 0.19874 0.57694 0.0
C1058 C 0.35299 0.21395 0.60703 0.0
C1059 C 0.36253 0.2078 0.64212 0.0
C1060 C 0.36544 0.22788 0.66856 0.0
C1061 C 0.35113 0.22551 0.7055 0.0
C1062 C 0.39018 0.23154 0.67875 0.0
C1063 C 0.35666 0.24628 0.64236 0.0
C1064 C 0.34944 0.23782 0.60711 0.0
C1065 C 0.34204 0.25164 0.57713 0.0
C1066 C 0.34204 0.27476 0.58328 0.0
C1067 C 0.34933 0.28384 0.61918 0.0
C1068 C 0.35651 0.26932 0.64919 0.0
H1069 H 0.07113 0.12874 0.82899 0.0
H1070 H 0.08848 0.11869 0.95057 0.0
H1071 H 0.04978 0.10649 0.96395 0.0
H1072 H 0.01893 0.15206 0.84503 0.0
H1073 H 0.00573 0.13918 0.80354 0.0
H1074 H 0.03524 0.14457 0.80287 0.0
H1075 H 0.04295 0.10282 0.78841 0.0
H1076 H 0.01339 0.09727 0.78897 0.0
H1077 H 0.0318 0.08175 0.82047 0.0
H1078 H 0.00831 0.09908 0.965 0.0
H1079 H 0.96769 0.09693 0.9539 0.0
H1080 H 0.97793 0.11156 0.83131 0.0
C1081 C 0.06698 0.12364 0.85838 0.0
C1082 C 0.08289 0.12466 0.88876 0.0
C1083 C 0.07662 0.11797 0.9268 0.0
C1084 C 0.05469 0.11098 0.93464 0.0
C1085 C 0.03934 0.1106 0.90407 0.0
C1086 C 0.04528 0.11662 0.86664 0.0
C1087 C 0.02544 0.11615 0.83937 0.0
C1088 C 0.02108 0.13937 0.82169 0.0
C1089 C 0.02859 0.09844 0.80742 0.0
C1090 C 0.00718 0.10953 0.8675 0.0
C1091 C 0.01556 0.10619 0.9046 0.0
C1092 C 0.00163 0.10134 0.93597 0.0
C1093 C 0.97856 0.10021 0.92936 0.0
C1094 C 0.9696 0.10396 0.89166 0.0
C1095 C 0.98424 0.10826 0.86031 0.0
H1096 H 0.85389 0.72486 0.59736 0.0
H1097 H 0.85384 0.71392 0.72242 0.0
H1098 H 0.85699 0.75454 0.73316 0.0
H1099 H 0.89458 0.76615 0.59683 0.0
H1100 H 0.88212 0.78247 0.55845 0.0
H1101 H 0.87717 0.7529 0.56076 0.0
H1102 H 0.83448 0.75993 0.56182 0.0
H1103 H 0.83932 0.78958 0.55941 0.0
H1104 H 0.82274 0.77808 0.59835 0.0
H1105 H 0.8638 0.79623 0.73003 0.0
H1106 H 0.87376 0.83512 0.71296 0.0
H1107 H 0.86907 0.81822 0.59018 0.0
C1108 C 0.85408 0.73099 0.62704 0.0
C1109 C 0.85354 0.71616 0.65902 0.0
C1110 C 0.85416 0.72493 0.6974 0.0
C1111 C 0.8559 0.748 0.70383 0.0
C1112 C 0.85686 0.76212 0.67161 0.0
C1113 C 0.85585 0.75392 0.63398 0.0
C1114 C 0.85873 0.77237 0.60433 0.0
C1115 C 0.87938 0.76822 0.5786 0.0
C1116 C 0.83755 0.77515 0.57952 0.0
C1117 C 0.86213 0.79212 0.63113 0.0
C1118 C 0.86077 0.78599 0.66984 0.0
C1119 C 0.8646 0.80128 0.69979 0.0
C1120 C 0.87026 0.82333 0.68983 0.0
C1121 C 0.87214 0.8298 0.65026 0.0
C1122 C 0.86762 0.81396 0.62074 0.0
H1123 H 0.93241 0.13588 0.3278 0.0
H1124 H 0.9139 0.11618 0.4452 0.0
H1125 H 0.95241 0.10274 0.45645 0.0
H1126 H 0.97137 0.08985 0.30862 0.0
H1127 H 0.99024 0.10755 0.28184 0.0
H1128 H 0.96076 0.11351 0.28197 0.0
H1129 H 0.9688 0.15351 0.30708 0.0
H1130 H 0.99824 0.1477 0.30706 0.0
H1131 H 0.98483 0.15718 0.35107 0.0
H1132 H 0.99373 0.09435 0.45637 0.0
H1133 H 0.03436 0.09213 0.44558 0.0
H1134 H 0.02544 0.11746 0.32804 0.0
C1135 C 0.93627 0.12844 0.35575 0.0
C1136 C 0.92007 0.12704 0.38562 0.0
C1137 C 0.92598 0.11736 0.42183 0.0
C1138 C 0.9478 0.10964 0.42845 0.0
C1139 C 0.96343 0.11161 0.39849 0.0
C1140 C 0.95787 0.1207 0.36281 0.0
C1141 C 0.97796 0.12222 0.33619 0.0
C1142 C 0.97489 0.10739 0.30002 0.0
C1143 C 0.98273 0.1466 0.3247 0.0
C1144 C 0.99588 0.11307 0.36278 0.0
C1145 C 0.98714 0.10682 0.39844 0.0
C1146 C 0.00069 0.09896 0.42841 0.0
C1147 C 0.02378 0.09779 0.42197 0.0
C1148 C 0.03315 0.10455 0.38588 0.0
C1149 C 0.01885 0.11192 0.35578 0.0
H1150 H 0.63364 0.27294 0.1786 0.0
H1151 H 0.66806 0.28098 0.0682 0.0
H1152 H 0.67096 0.24005 0.06197 0.0
H1153 H 0.6636 0.22194 0.21162 0.0
H1154 H 0.63868 0.20994 0.23222 0.0
H1155 H 0.64208 0.23983 0.23096 0.0
H1156 H 0.60459 0.2437 0.19398 0.0
H1157 H 0.60105 0.21391 0.19522 0.0
H1158 H 0.60049 0.22845 0.14925 0.0
H1159 H 0.66691 0.19887 0.06419 0.0
H1160 H 0.65439 0.16005 0.07269 0.0
H1161 H 0.62201 0.1782 0.18132 0.0
C1162 C 0.64225 0.26609 0.15356 0.0
C1163 C 0.6508 0.28015 0.12401 0.0
C1164 C 0.66144 0.27054 0.09122 0.0
C1165 C 0.6633 0.24731 0.08755 0.0
C1166 C 0.65441 0.23392 0.1169 0.0
C1167 C 0.64404 0.24292 0.14925 0.0
C1168 C 0.63392 0.2248 0.17458 0.0
C1169 C 0.64525 0.22409 0.21473 0.0
C1170 C 0.60851 0.22791 0.17845 0.0
C1171 C 0.63961 0.20427 0.15075 0.0
C1172 C 0.65178 0.20993 0.11796 0.0
C1173 C 0.65766 0.19418 0.09 0.0
C1174 C 0.65043 0.17216 0.09508 0.0
C1175 C 0.63732 0.16607 0.12778 0.0
C1176 C 0.63238 0.18226 0.15647 0.0
H1177 H 0.57462 0.87476 0.92968 0.0
H1178 H 0.59162 0.89951 0.81461 0.0
H1179 H 0.55308 0.91276 0.80572 0.0
H1180 H 0.5232 0.85318 0.90413 0.0
H1181 H 0.50887 0.86042 0.94856 0.0
H1182 H 0.53856 0.85602 0.94903 0.0
H1183 H 0.54449 0.89539 0.97852 0.0
H1184 H 0.51474 0.89984 0.97846 0.0
H1185 H 0.53289 0.91941 0.95422 0.0
H1186 H 0.51219 0.91886 0.80526 0.0
H1187 H 0.47137 0.91845 0.81435 0.0
H1188 H 0.48023 0.88998 0.92969 0.0
C1189 C 0.57036 0.88362 0.9032 0.0
C1190 C 0.58613 0.88625 0.87295 0.0
C1191 C 0.5798 0.89736 0.8382 0.0
C1192 C 0.55796 0.90502 0.8329 0.0
C1193 C 0.54259 0.90152 0.86264 0.0
C1194 C 0.54847 0.89127 0.89727 0.0
C1195 C 0.52818 0.88782 0.92299 0.0
C1196 C 0.52449 0.86288 0.93166 0.0
C1197 C 0.5302 0.90143 0.96079 0.0
C1198 C 0.50999 0.89707 0.89684 0.0
C1199 C 0.51873 0.90509 0.86235 0.0
C1200 C 0.50515 0.913 0.83243 0.0
C1201 C 0.48197 0.9126 0.83779 0.0
C1202 C 0.47259 0.90433 0.8728 0.0
C1203 C 0.48688 0.89675 0.90284 0.0
H1204 H 0.86069 0.27707 0.9127 0.0
H1205 H 0.84977 0.2891 0.78938 0.0
H1206 H 0.85296 0.24871 0.77659 0.0
H1207 H 0.90182 0.23628 0.90136 0.0
H1208 H 0.8929 0.21939 0.94194 0.0
H1209 H 0.88749 0.24893 0.94195 0.0
H1210 H 0.84527 0.24137 0.95162 0.0
H1211 H 0.85058 0.21176 0.95176 0.0
H1212 H 0.83077 0.22343 0.91788 0.0
H1213 H 0.86058 0.20726 0.77648 0.0
H1214 H 0.87168 0.16819 0.78946 0.0
H1215 H 0.87725 0.18358 0.91275 0.0
C1216 C 0.85856 0.27122 0.88308 0.0
C1217 C 0.85492 0.28632 0.85209 0.0
C1218 C 0.85252 0.27791 0.81368 0.0
C1219 C 0.85427 0.25496 0.80609 0.0
C1220 C 0.85828 0.24059 0.83721 0.0
C1221 C 0.86026 0.24839 0.87498 0.0
C1222 C 0.86581 0.22967 0.90294 0.0
C1223 C 0.88834 0.23382 0.92322 0.0
C1224 C 0.84698 0.22636 0.93281 0.0
C1225 C 0.86714 0.21022 0.87489 0.0
C1226 C 0.86259 0.21678 0.83715 0.0
C1227 C 0.86391 0.20187 0.80601 0.0
C1228 C 0.87026 0.17972 0.81365 0.0
C1229 C 0.87526 0.17274 0.85212 0.0
C1230 C 0.87335 0.18824 0.88303 0.0
H1231 H 0.5685 0.13375 0.66777 0.0
H1232 H 0.58589 0.11897 0.54765 0.0
H1233 H 0.54727 0.10621 0.53568 0.0
H1234 H 0.52928 0.08741 0.68218 0.0
H1235 H 0.51061 0.1041 0.7113 0.0
H1236 H 0.54011 0.10996 0.71138 0.0
H1237 H 0.53208 0.15085 0.69114 0.0
H1238 H 0.50261 0.14514 0.69098 0.0
H1239 H 0.51582 0.15625 0.64796 0.0
H1240 H 0.50633 0.09744 0.53575 0.0
H1241 H 0.46583 0.09453 0.54685 0.0
H1242 H 0.47509 0.11566 0.66685 0.0
C1243 C 0.56435 0.12748 0.63907 0.0
C1244 C 0.58029 0.12723 0.60868 0.0
C1245 C 0.57399 0.11926 0.57141 0.0
C1246 C 0.55213 0.1119 0.56438 0.0
C1247 C 0.53678 0.11263 0.59491 0.0
C1248 C 0.54261 0.12023 0.63151 0.0
C1249 C 0.52265 0.12078 0.65859 0.0
C1250 C 0.52586 0.10459 0.69289 0.0
C1251 C 0.51802 0.14467 0.67299 0.0
C1252 C 0.50454 0.11273 0.63127 0.0
C1253 C 0.5131 0.10787 0.59483 0.0
C1254 C 0.49947 0.10102 0.56425 0.0
C1255 C 0.47646 0.09944 0.57089 0.0
C1256 C 0.46722 0.10484 0.60777 0.0
C1257 C 0.48159 0.11123 0.63844 0.0
H1258 H 0.64248 0.72537 0.41435 0.0
H1259 H 0.65806 0.71518 0.29203 0.0
H1260 H 0.65555 0.75574 0.28082 0.0
H1261 H 0.60212 0.76655 0.40034 0.0
H1262 H 0.60957 0.78282 0.44257 0.0
H1263 H 0.61488 0.75327 0.44189 0.0
H1264 H 0.65669 0.76047 0.45657 0.0
H1265 H 0.65148 0.79009 0.45746 0.0
H1266 H 0.67245 0.77882 0.42534 0.0
H1267 H 0.64785 0.79713 0.28162 0.0
H1268 H 0.63639 0.83606 0.29507 0.0
H1269 H 0.62642 0.81897 0.41681 0.0
C1270 C 0.64579 0.73166 0.38534 0.0
C1271 C 0.65051 0.71702 0.35413 0.0
C1272 C 0.65446 0.72601 0.3165 0.0
C1273 C 0.6531 0.74906 0.3098 0.0
C1274 C 0.64794 0.76297 0.34104 0.0
C1275 C 0.64452 0.75462 0.37813 0.0
C1276 C 0.63801 0.77297 0.40624 0.0
C1277 C 0.61477 0.76864 0.42377 0.0
C1278 C 0.65572 0.77575 0.43829 0.0
C1279 C 0.63778 0.79282 0.37898 0.0
C1280 C 0.64369 0.78679 0.34154 0.0
C1281 C 0.64348 0.80212 0.31095 0.0
C1282 C 0.63691 0.82418 0.31884 0.0
C1283 C 0.63061 0.83065 0.357 0.0
C1284 C 0.63136 0.81471 0.38738 0.0
H1285 H 0.92709 0.87324 0.07437 0.0
H1286 H 0.91226 0.89062 0.19436 0.0
H1287 H 0.95066 0.90431 0.20299 0.0
H1288 H 0.9796 0.85158 0.09259 0.0
H1289 H 0.99272 0.8617 0.04876 0.0
H1290 H 0.96316 0.85657 0.04947 0.0
H1291 H 0.95563 0.89724 0.02747 0.0
H1292 H 0.98525 0.90247 0.02637 0.0
H1293 H 0.96722 0.92006 0.0551 0.0
H1294 H 0.99123 0.9116 0.20173 0.0
H1295 H 0.03177 0.91296 0.19 0.0
H1296 H 0.02115 0.89089 0.07089 0.0
C1297 C 0.93179 0.8806 0.102 0.0
C1298 C 0.91669 0.88104 0.13362 0.0
C1299 C 0.92357 0.89017 0.16975 0.0
C1300 C 0.94533 0.89806 0.17491 0.0
C1301 C 0.96005 0.89674 0.14366 0.0
C1302 C 0.95362 0.88839 0.1078 0.0
C1303 C 0.97338 0.88698 0.08028 0.0
C1304 C 0.97745 0.86277 0.06702 0.0
C1305 C 0.97018 0.90262 0.04523 0.0
C1306 C 0.99194 0.89516 0.10672 0.0
C1307 C 0.98379 0.90092 0.14299 0.0
C1308 C 0.99781 0.9075 0.17325 0.0
C1309 C 0.02083 0.90811 0.16636 0.0
C1310 C 0.02964 0.90215 0.1295 0.0
C1311 C 0.0149 0.89587 0.0992 0.0
H1312 H 0.63748 0.77955 0.81965 0.0
H1313 H 0.66969 0.78593 0.93233 0.0
H1314 H 0.67185 0.7449 0.9375 0.0
H1315 H 0.60298 0.73505 0.84625 0.0
H1316 H 0.60411 0.72096 0.79987 0.0
H1317 H 0.60798 0.7507 0.80223 0.0
H1318 H 0.64598 0.7467 0.76691 0.0
H1319 H 0.64225 0.71687 0.76459 0.0
H1320 H 0.66697 0.72838 0.78674 0.0
H1321 H 0.66794 0.70389 0.93331 0.0
H1322 H 0.65545 0.66526 0.92296 0.0
H1323 H 0.62447 0.68472 0.81376 0.0
C1324 C 0.64542 0.77227 0.84499 0.0
C1325 C 0.65363 0.78588 0.87546 0.0
C1326 C 0.66335 0.77579 0.90866 0.0
C1327 C 0.6648 0.75252 0.9117 0.0
C1328 C 0.65633 0.73956 0.88141 0.0
C1329 C 0.64668 0.74901 0.84878 0.0
C1330 C 0.63675 0.73125 0.82243 0.0
C1331 C 0.61146 0.7347 0.81743 0.0
C1332 C 0.64871 0.73078 0.78282 0.0
C1333 C 0.64182 0.7104 0.84589 0.0
C1334 C 0.65351 0.71563 0.87941 0.0
C1335 C 0.65899 0.69954 0.907 0.0
C1336 C 0.65177 0.67763 0.90084 0.0
C1337 C 0.63903 0.67194 0.86748 0.0
C1338 C 0.63452 0.68847 0.83915 0.0
H1339 H 0.47399 0.38737 0.16619 0.0
H1340 H 0.46227 0.40066 0.04354 0.0
H1341 H 0.50278 0.39865 0.03112 0.0
H1342 H 0.52762 0.41772 0.17427 0.0
H1343 H 0.53921 0.39711 0.20675 0.0
H1344 H 0.5096 0.40238 0.20671 0.0
H1345 H 0.50219 0.36039 0.19387 0.0
H1346 H 0.53172 0.35503 0.19366 0.0
H1347 H 0.51495 0.3471 0.15232 0.0
H1348 H 0.54435 0.39178 0.03102 0.0
H1349 H 0.58337 0.38034 0.0435 0.0
H1350 H 0.56748 0.37123 0.16594 0.0
C1351 C 0.47995 0.39039 0.13688 0.0
C1352 C 0.46493 0.3943 0.10591 0.0
C1353 C 0.47344 0.3977 0.0678 0.0
C1354 C 0.49645 0.39665 0.06044 0.0
C1355 C 0.51076 0.39224 0.09147 0.0
C1356 C 0.50284 0.38927 0.12897 0.0
C1357 C 0.52149 0.38306 0.15665 0.0
C1358 C 0.52467 0.40115 0.18794 0.0
C1359 C 0.51733 0.36003 0.17519 0.0
C1360 C 0.54102 0.38246 0.12871 0.0
C1361 C 0.53459 0.38806 0.09133 0.0
C1362 C 0.54963 0.38762 0.06029 0.0
C1363 C 0.57176 0.38108 0.06764 0.0
C1364 C 0.57856 0.3749 0.10567 0.0
C1365 C 0.56293 0.37594 0.13653 0.0
H1366 H 0.86433 0.2337 0.32146 0.0
H1367 H 0.83928 0.22204 0.43845 0.0
H1368 H 0.83817 0.26263 0.44996 0.0
H1369 H 0.90062 0.2768 0.34633 0.0
H1370 H 0.89626 0.29302 0.30274 0.0
H1371 H 0.89238 0.26326 0.30167 0.0
H1372 H 0.85214 0.26872 0.27576 0.0
H1373 H 0.8559 0.29857 0.2768 0.0
H1374 H 0.83289 0.28602 0.30256 0.0
H1375 H 0.84336 0.30361 0.45155 0.0
H1376 H 0.85539 0.34266 0.44379 0.0
H1377 H 0.87695 0.32847 0.32564 0.0
C1378 C 0.85817 0.2397 0.34922 0.0
C1379 C 0.85179 0.22467 0.37901 0.0
C1380 C 0.84424 0.2332 0.41518 0.0
C1381 C 0.84343 0.25624 0.42193 0.0
C1382 C 0.85015 0.27056 0.3922 0.0
C1383 C 0.85736 0.26268 0.35653 0.0
C1384 C 0.86543 0.28161 0.33076 0.0
C1385 C 0.89014 0.27848 0.31975 0.0
C1386 C 0.85071 0.28386 0.29431 0.0
C1387 C 0.86226 0.30128 0.358 0.0
C1388 C 0.85315 0.2945 0.39309 0.0
C1389 C 0.85016 0.3092 0.42403 0.0
C1390 C 0.85711 0.33133 0.41936 0.0
C1391 C 0.86692 0.3386 0.38401 0.0
C1392 C 0.86904 0.32347 0.35264 0.0
H1393 H 0.92978 0.62218 0.66909 0.0
H1394 H 0.91361 0.62021 0.5458 0.0
H1395 H 0.95262 0.60948 0.53112 0.0
H1396 H 0.98178 0.64734 0.65893 0.0
H1397 H 0.99485 0.63209 0.69802 0.0
H1398 H 0.96526 0.63702 0.69896 0.0
H1399 H 0.95806 0.59452 0.7051 0.0
H1400 H 0.98769 0.58942 0.70429 0.0
H1401 H 0.96979 0.57575 0.6695 0.0
H1402 H 0.99414 0.60189 0.52991 0.0
H1403 H 0.03462 0.59876 0.54172 0.0
H1404 H 0.02323 0.60633 0.66601 0.0
C1405 C 0.93424 0.61913 0.63897 0.0
C1406 C 0.91855 0.62195 0.60857 0.0
C1407 C 0.92528 0.61806 0.56959 0.0
C1408 C 0.94739 0.61192 0.561 0.0
C1409 C 0.96249 0.60969 0.59173 0.0
C1410 C 0.95615 0.61313 0.62994 0.0
C1411 C 0.97578 0.6112 0.65749 0.0
C1412 C 0.97964 0.63322 0.67963 0.0
C1413 C 0.97264 0.59155 0.68576 0.0
C1414 C 0.99436 0.60664 0.62876 0.0
C1415 C 0.98634 0.60557 0.59102 0.0
C1416 C 1.00055 0.60248 0.55937 0.0
C1417 C 0.02355 0.60075 0.56643 0.0
C1418 C 0.03218 0.60226 0.60485 0.0
C1419 C 0.01723 0.60492 0.63635 0.0
H1420 H 0.63916 0.23038 0.58323 0.0
H1421 H 0.65562 0.22151 0.70543 0.0
H1422 H 0.65236 0.26215 0.71573 0.0
H1423 H 0.66716 0.28501 0.57005 0.0
H1424 H 0.64539 0.29515 0.53843 0.0
H1425 H 0.65187 0.26578 0.53973 0.0
H1426 H 0.61055 0.25694 0.55591 0.0
H1427 H 0.60399 0.28623 0.55488 0.0
H1428 H 0.59769 0.26994 0.59764 0.0
H1429 H 0.64382 0.30348 0.71399 0.0
H1430 H 0.63051 0.34179 0.70009 0.0
H1431 H 0.61931 0.3231 0.57941 0.0
C1432 C 0.64263 0.23701 0.61195 0.0
C1433 C 0.64778 0.22274 0.64344 0.0
C1434 C 0.65172 0.2321 0.68078 0.0
C1435 C 0.64996 0.25519 0.68693 0.0
C1436 C 0.64429 0.26874 0.65546 0.0
C1437 C 0.6408 0.25999 0.61866 0.0
C1438 C 0.63321 0.27784 0.59042 0.0
C1439 C 0.65044 0.28114 0.55773 0.0
C1440 C 0.60999 0.27241 0.57376 0.0
C1441 C 0.63243 0.29785 0.61729 0.0
C1442 C 0.63913 0.29239 0.65458 0.0
C1443 C 0.63878 0.30801 0.68476 0.0
C1444 C 0.63118 0.32972 0.67662 0.0
C1445 C 0.62386 0.33551 0.63869 0.0
C1446 C 0.62484 0.31932 0.60871 0.0
H1447 H 0.02436 0.38092 0.93641 0.0
H1448 H 0.03239 0.41939 0.8302 0.0
H1449 H 0.9915 0.42255 0.82425 0.0
H1450 H 0.97961 0.3489 0.90248 0.0
H1451 H 0.96504 0.34757 0.94838 0.0
H1452 H 0.99484 0.35106 0.94762 0.0
H1453 H 0.991 0.38689 0.9894 0.0
H1454 H 0.9611 0.38357 0.99005 0.0
H1455 H 0.97325 0.40925 0.97279 0.0
H1456 H 0.95055 0.4191 0.82631 0.0
H1457 H 0.91171 0.40636 0.83261 0.0
H1458 H 0.92928 0.36898 0.9365 0.0
C1459 C 0.01746 0.39039 0.91238 0.0
C1460 C 0.03149 0.40009 0.88391 0.0
C1461 C 0.02192 0.41185 0.85231 0.0
C1462 C 0.99873 0.4139 0.84888 0.0
C1463 C 0.98533 0.40398 0.87716 0.0
C1464 C 0.99427 0.39229 0.90816 0.0
C1465 C 0.97606 0.38119 0.93204 0.0
C1466 C 0.97907 0.35567 0.93264 0.0
C1467 C 0.97531 0.3908 0.97353 0.0
C1468 C 0.95556 0.38795 0.90892 0.0
C1469 C 0.96136 0.40149 0.87788 0.0
C1470 C 0.94574 0.40873 0.85074 0.0
C1471 C 0.92372 0.40138 0.85456 0.0
C1472 C 0.91747 0.38678 0.88516 0.0
C1473 C 0.93349 0.38051 0.91335 0.0
H1474 H 0.86373 0.77128 0.17334 0.0
H1475 H 0.84277 0.78264 0.05387 0.0
H1476 H 0.84405 0.74209 0.04154 0.0
H1477 H 0.90302 0.72987 0.15167 0.0
H1478 H 0.89782 0.71325 0.1945 0.0
H1479 H 0.89265 0.74283 0.19551 0.0
H1480 H 0.85184 0.73559 0.21697 0.0
H1481 H 0.85689 0.70593 0.216 0.0
H1482 H 0.83432 0.71765 0.18794 0.0
H1483 H 0.85035 0.70117 0.04041 0.0
H1484 H 0.86277 0.66238 0.04944 0.0
H1485 H 0.88035 0.67707 0.1695 0.0
C1486 C 0.85897 0.76519 0.14481 0.0
C1487 C 0.85299 0.78011 0.11461 0.0
C1488 C 0.84737 0.77153 0.07744 0.0
C1489 C 0.84793 0.74852 0.07022 0.0
C1490 C 0.85418 0.73431 0.10044 0.0
C1491 C 0.85965 0.74226 0.13699 0.0
C1492 C 0.86758 0.72354 0.16336 0.0
C1493 C 0.8917 0.72762 0.17704 0.0
C1494 C 0.85171 0.7205 0.19813 0.0
C1495 C 0.86622 0.70391 0.1356 0.0
C1496 C 0.85815 0.71051 0.09965 0.0
C1497 C 0.85647 0.69574 0.06852 0.0
C1498 C 0.86364 0.67373 0.07396 0.0
C1499 C 0.8725 0.66665 0.11022 0.0
C1500 C 0.87337 0.68188 0.14165 0.0
H1501 H 0.57376 0.63093 0.4261 0.0
H1502 H 0.59055 0.60144 0.31433 0.0
H1503 H 0.55175 0.58873 0.30665 0.0
H1504 H 0.53125 0.58815 0.45541 0.0
H1505 H 0.51347 0.60893 0.4773 0.0
H1506 H 0.5433 0.61279 0.47698 0.0
H1507 H 0.53812 0.65108 0.44309 0.0
H1508 H 0.50836 0.64726 0.44295 0.0
H1509 H 0.52287 0.65255 0.39788 0.0
H1510 H 0.51068 0.58361 0.30656 0.0
H1511 H 0.46987 0.58504 0.31555 0.0
H1512 H 0.47918 0.61749 0.42752 0.0
C1513 C 0.5694 0.62118 0.40064 0.0
C1514 C 0.58521 0.61707 0.37092 0.0
C1515 C 0.57874 0.60477 0.33751 0.0
C1516 C 0.55674 0.59741 0.3329 0.0
C1517 C 0.54137 0.60239 0.36203 0.0
C1518 C 0.5474 0.61379 0.39545 0.0
C1519 C 0.52717 0.61859 0.42065 0.0
C1520 C 0.5289 0.60638 0.45991 0.0
C1521 C 0.52395 0.64387 0.42646 0.0
C1522 C 0.50883 0.60875 0.39552 0.0
C1523 C 0.51744 0.59931 0.36202 0.0
C1524 C 0.50373 0.59058 0.333 0.0
C1525 C 0.48057 0.59158 0.33827 0.0
C1526 C 0.47133 0.60124 0.37232 0.0
C1527 C 0.48574 0.60968 0.40146 0.0
H1528 H 0.37217 0.31477 0.08902 0.0
H1529 H 0.36976 0.32954 0.21284 0.0
H1530 H 0.35959 0.29028 0.22617 0.0
H1531 H 0.32623 0.27391 0.08733 0.0
H1532 H 0.34022 0.25657 0.05201 0.0
H1533 H 0.34477 0.28631 0.05207 0.0
H1534 H 0.38738 0.2798 0.05796 0.0
H1535 H 0.383 0.25011 0.05804 0.0
H1536 H 0.39801 0.26309 0.09751 0.0
H1537 H 0.35307 0.24873 0.22623 0.0
H1538 H 0.35107 0.20828 0.21337 0.0
H1539 H 0.358 0.22092 0.08936 0.0
C1540 C 0.3691 0.30994 0.11894 0.0
C1541 C 0.37168 0.32532 0.14989 0.0
C1542 C 0.3678 0.31812 0.18863 0.0
C1543 C 0.36197 0.29586 0.19647 0.0
C1544 C 0.36 0.28106 0.16526 0.0
C1545 C 0.36336 0.28785 0.12725 0.0
C1546 C 0.36179 0.26843 0.09914 0.0
C1547 C 0.34207 0.27149 0.07098 0.0
C1548 C 0.38386 0.26517 0.07688 0.0
C1549 C 0.35757 0.2495 0.12734 0.0
C1550 C 0.35634 0.25715 0.16529 0.0
C1551 C 0.35374 0.24259 0.19659 0.0
C1552 C 0.35266 0.21961 0.18895 0.0
C1553 C 0.3543 0.21136 0.15031 0.0
C1554 C 0.35642 0.22664 0.11916 0.0
H1555 H 0.4357 0.63287 0.83246 0.0
H1556 H 0.42088 0.62153 0.95473 0.0
H1557 H 0.45998 0.6099 0.96557 0.0
H1558 H 0.47547 0.58683 0.82012 0.0
H1559 H 0.49318 0.6029 0.78826 0.0
H1560 H 0.46358 0.60821 0.78951 0.0
H1561 H 0.4712 0.64983 0.80523 0.0
H1562 H 0.50076 0.64466 0.80409 0.0
H1563 H 0.4882 0.65691 0.84677 0.0
H1564 H 0.50129 0.60203 0.96379 0.0
H1565 H 0.54159 0.59936 0.95019 0.0
H1566 H 0.52925 0.61635 0.82905 0.0
C1567 C 0.4405 0.62759 0.86145 0.0
C1568 C 0.42514 0.62801 0.89274 0.0
C1569 C 0.4323 0.62128 0.93028 0.0
C1570 C 0.45446 0.61459 0.93669 0.0
C1571 C 0.46922 0.6147 0.90525 0.0
C1572 C 0.46251 0.621 0.86836 0.0
C1573 C 0.48188 0.62103 0.84002 0.0
C1574 C 0.47831 0.60371 0.80756 0.0
C1575 C 0.48573 0.6445 0.82305 0.0
C1576 C 0.5007 0.6142 0.8669 0.0
C1577 C 0.49302 0.61039 0.90429 0.0
C1578 C 0.50745 0.60478 0.93454 0.0
C1579 C 0.53035 0.60333 0.92648 0.0
C1580 C 0.53866 0.6076 0.88849 0.0
C1581 C 0.52348 0.6128 0.85831 0.0
H1582 H 0.11629 0.67763 0.68304 0.0
H1583 H 0.1531 0.65911 0.57905 0.0
H1584 H 0.16709 0.69758 0.57311 0.0
H1585 H 0.09757 0.72795 0.64882 0.0
H1586 H 0.09978 0.74322 0.69392 0.0
H1587 H 0.09585 0.71347 0.69478 0.0
H1588 H 0.1315 0.7088 0.73666 0.0
H1589 H 0.13544 0.73863 0.73631 0.0
H1590 H 0.15749 0.72047 0.71984 0.0
H1591 H 0.17225 0.73851 0.57197 0.0
H1592 H 0.16974 0.77947 0.57771 0.0
H1593 H 0.13007 0.77218 0.68277 0.0
C1594 C 0.12795 0.68152 0.65992 0.0
C1595 C 0.13375 0.66536 0.63168 0.0
C1596 C 0.1485 0.67122 0.60108 0.0
C1597 C 0.15659 0.69302 0.5975 0.0
C1598 C 0.14989 0.7088 0.62485 0.0
C1599 C 0.13611 0.70334 0.65576 0.0
C1600 C 0.12969 0.724 0.67875 0.0
C1601 C 0.10422 0.72735 0.67906 0.0
C1602 C 0.1391 0.72291 0.72036 0.0
C1603 C 0.14128 0.74192 0.65499 0.0
C1604 C 0.15302 0.73272 0.62429 0.0
C1605 C 0.16352 0.74592 0.59635 0.0
C1606 C 0.16188 0.76917 0.59972 0.0
C1607 C 0.14987 0.779 0.63083 0.0
C1608 C 0.13974 0.76514 0.6591 0.0
H1609 H 0.06719 0.37642 0.43597 0.0
H1610 H 0.08491 0.39832 0.31946 0.0
H1611 H 0.04661 0.41184 0.30921 0.0
H1612 H 0.01555 0.35502 0.41154 0.0
H1613 H 0.00112 0.36354 0.45517 0.0
H1614 H 0.03075 0.35878 0.45641 0.0
H1615 H 0.03708 0.39875 0.48297 0.0
H1616 H 0.00739 0.40359 0.48214 0.0
H1617 H 0.02591 0.42229 0.45672 0.0
H1618 H 0.00594 0.41801 0.30743 0.0
H1619 H 0.96506 0.41809 0.31565 0.0
H1620 H 0.97284 0.39295 0.4335 0.0
C1621 C 0.06313 0.38473 0.40886 0.0
C1622 C 0.07903 0.38643 0.37859 0.0
C1623 C 0.07298 0.39684 0.34305 0.0
C1624 C 0.05129 0.40466 0.33697 0.0
C1625 C 0.03577 0.40206 0.36674 0.0
C1626 C 0.04138 0.39256 0.40217 0.0
C1627 C 0.02092 0.39002 0.42784 0.0
C1628 C 0.01685 0.36538 0.43833 0.0
C1629 C 0.02295 0.40454 0.4646 0.0
C1630 C 0.00295 0.39885 0.40074 0.0
C1631 C 0.01198 0.40587 0.3658 0.0
C1632 C 0.99867 0.413 0.33493 0.0
C1633 C 0.97547 0.41286 0.33979 0.0
C1634 C 0.9658 0.40572 0.37528 0.0
C1635 C 0.97979 0.39892 0.4063 0.0
H1636 H 0.37681 0.68055 0.41664 0.0
H1637 H 0.36887 0.66353 0.29444 0.0
H1638 H 0.3571 0.70233 0.28069 0.0
H1639 H 0.32988 0.72038 0.4227 0.0
H1640 H 0.34497 0.73855 0.45522 0.0
H1641 H 0.35019 0.70892 0.4559 0.0
H1642 H 0.39226 0.71621 0.44402 0.0
H1643 H 0.3872 0.74579 0.44315 0.0
H1644 H 0.40074 0.73249 0.40239 0.0
H1645 H 0.35022 0.74394 0.27944 0.0
H1646 H 0.34826 0.78458 0.29067 0.0
H1647 H 0.3604 0.77393 0.41398 0.0
C1648 C 0.37223 0.68479 0.38703 0.0
C1649 C 0.37375 0.66894 0.35659 0.0
C1650 C 0.36773 0.67533 0.31827 0.0
C1651 C 0.36101 0.69733 0.3102 0.0
C1652 C 0.36019 0.71263 0.34083 0.0
C1653 C 0.36547 0.70656 0.37854 0.0
C1654 C 0.36468 0.72638 0.40589 0.0
C1655 C 0.34633 0.72337 0.43675 0.0
C1656 C 0.38758 0.73045 0.42496 0.0
C1657 C 0.3588 0.74476 0.3775 0.0
C1658 C 0.35607 0.73649 0.34018 0.0
C1659 C 0.35199 0.75053 0.30863 0.0
C1660 C 0.35097 0.77362 0.31532 0.0
C1661 C 0.35405 0.78248 0.35327 0.0
C1662 C 0.35763 0.76772 0.38475 0.0
H1663 H 0.97777 0.61512 0.16375 0.0
H1664 H 0.97176 0.58855 0.0465 0.0
H1665 H 0.01234 0.59283 0.03722 0.0
H1666 H 0.01634 0.65665 0.14138 0.0
H1667 H 0.03203 0.65424 0.18598 0.0
H1668 H 0.00298 0.64672 0.18515 0.0
H1669 H 0.01267 0.60732 0.21138 0.0
H1670 H 0.04179 0.61478 0.21257 0.0
H1671 H 0.03287 0.59045 0.18591 0.0
H1672 H 0.05318 0.6032 0.03858 0.0
H1673 H 0.091 0.61809 0.0514 0.0
H1674 H 0.06991 0.63778 0.16752 0.0
C1675 C 0.98502 0.60973 0.13643 0.0
C1676 C 0.97154 0.60142 0.10595 0.0
C1677 C 0.98171 0.59491 0.07038 0.0
C1678 C 0.00478 0.59725 0.0648 0.0
C1679 C 0.0175 0.60603 0.09509 0.0
C1680 C 0.00801 0.612 0.13032 0.0
C1681 C 0.02511 0.62227 0.15734 0.0
C1682 C 0.01873 0.6464 0.16807 0.0
C1683 C 0.0283 0.60784 0.19396 0.0
C1684 C 0.04556 0.62161 0.1315 0.0
C1685 C 0.04094 0.61203 0.09581 0.0
C1686 C 0.05707 0.6105 0.06661 0.0
C1687 C 0.07849 0.61905 0.07411 0.0
C1688 C 0.0835 0.62907 0.11046 0.0
C1689 C 0.06675 0.63012 0.13947 0.0
H1690 H 0.13418 0.22905 0.81702 0.0
H1691 H 0.16959 0.21983 0.92619 0.0
H1692 H 0.17105 0.26062 0.93517 0.0
H1693 H 0.16216 0.28209 0.78728 0.0
H1694 H 0.13668 0.29362 0.76791 0.0
H1695 H 0.14128 0.26388 0.76681 0.0
H1696 H 0.10413 0.25762 0.80386 0.0
H1697 H 0.09942 0.28725 0.80499 0.0
H1698 H 0.09965 0.27154 0.84978 0.0
H1699 H 0.16499 0.30131 0.93661 0.0
H1700 H 0.15047 0.33966 0.93188 0.0
H1701 H 0.11881 0.32349 0.82181 0.0
C1702 C 0.14272 0.23566 0.84232 0.0
C1703 C 0.15192 0.22127 0.8708 0.0
C1704 C 0.16246 0.23052 0.90399 0.0
C1705 C 0.16351 0.25368 0.90921 0.0
C1706 C 0.15396 0.26738 0.88098 0.0
C1707 C 0.14374 0.25878 0.84817 0.0
C1708 C 0.13279 0.27713 0.82439 0.0
C1709 C 0.1439 0.27931 0.78421 0.0
C1710 C 0.1075 0.27314 0.82056 0.0
C1711 C 0.13778 0.29727 0.84971 0.0
C1712 C 0.15034 0.29123 0.88185 0.0
C1713 C 0.15552 0.30635 0.91125 0.0
C1714 C 0.14715 0.32807 0.90834 0.0
C1715 C 0.13377 0.33454 0.87627 0.0
C1716 C 0.12951 0.31911 0.84606 0.0
H1717 H 0.42313 0.37386 0.57147 0.0
H1718 H 0.40787 0.39963 0.68652 0.0
H1719 H 0.44646 0.41329 0.69303 0.0
H1720 H 0.47457 0.35246 0.59555 0.0
H1721 H 0.48844 0.35902 0.55038 0.0
H1722 H 0.45872 0.35491 0.55109 0.0
H1723 H 0.45275 0.39396 0.52042 0.0
H1724 H 0.48254 0.39813 0.51924 0.0
H1725 H 0.46486 0.41816 0.54339 0.0
H1726 H 0.48726 0.41935 0.69145 0.0
H1727 H 0.52795 0.41828 0.68113 0.0
H1728 H 0.5176 0.38831 0.56732 0.0
C1729 C 0.42777 0.38311 0.59733 0.0
C1730 C 0.41252 0.38595 0.62832 0.0
C1731 C 0.41931 0.39743 0.66238 0.0
C1732 C 0.44117 0.40529 0.6663 0.0
C1733 C 0.45608 0.40154 0.63592 0.0
C1734 C 0.44971 0.39088 0.60193 0.0
C1735 C 0.46966 0.38691 0.57561 0.0
C1736 C 0.47304 0.36184 0.56772 0.0
C1737 C 0.46731 0.40008 0.5374 0.0
C1738 C 0.48825 0.3963 0.60074 0.0
C1739 C 0.47997 0.40491 0.63516 0.0
C1740 C 0.49395 0.41304 0.66431 0.0
C1741 C 0.51706 0.41224 0.65826 0.0
C1742 C 0.52598 0.40332 0.62336 0.0
C1743 C 0.51129 0.39555 0.59407 0.0
H1744 H 0.09613 0.12896 0.54535 0.0
H1745 H 0.14662 0.07879 0.52205 0.0
H1746 H 0.1603 0.0826 0.59014 0.0
H1747 H 0.13006 0.16443 0.60068 0.0
H1748 H 0.10803 0.1726 0.63347 0.0
H1749 H 0.10146 0.1644 0.58437 0.0
H1750 H 0.07431 0.13409 0.6102 0.0
H1751 H 0.08054 0.14241 0.65941 0.0
H1752 H 0.08423 0.11375 0.64482 0.0
H1753 H 0.16898 0.09384 0.66179 0.0
H1754 H 0.17079 0.1102 0.7283 0.0
H1755 H 0.11509 0.15348 0.69968 0.0
C1756 C 0.10991 0.11848 0.55446 0.0
C1757 C 0.12027 0.10351 0.52843 0.0
C1758 C 0.13833 0.09026 0.54167 0.0
C1759 C 0.14624 0.0924 0.58019 0.0
C1760 C 0.13589 0.10785 0.60479 0.0
C1761 C 0.11802 0.12053 0.59223 0.0
C1762 C 0.11005 0.13655 0.6231 0.0
C1763 C 0.11256 0.16093 0.60958 0.0
C1764 C 0.08585 0.13138 0.6351 0.0
C1765 C 0.12623 0.13108 0.65527 0.0
C1766 C 0.14104 0.11447 0.64459 0.0
C1767 C 0.15742 0.10684 0.67032 0.0
C1768 C 0.15839 0.11626 0.70793 0.0
C1769 C 0.14314 0.13317 0.71914 0.0
C1770 C 0.12708 0.14066 0.69214 0.0
H1771 H 0.10615 0.85095 0.7933 0.0
H1772 H 0.1635 0.89265 0.76774 0.0
H1773 H 0.15991 0.91029 0.83295 0.0
H1774 H 0.07444 0.89227 0.8445 0.0
H1775 H 0.06334 0.87245 0.87893 0.0
H1776 H 0.0706 0.86353 0.83045 0.0
H1777 H 0.09682 0.83314 0.85889 0.0
H1778 H 0.08941 0.84178 0.90739 0.0
H1779 H 0.11831 0.84111 0.8929 0.0
H1780 H 0.14981 0.92259 0.90297 0.0
H1781 H 0.13555 0.92674 0.97053 0.0
H1782 H 0.08453 0.87731 0.94624 0.0
C1783 C 0.11807 0.86375 0.80125 0.0
C1784 C 0.13517 0.87037 0.77548 0.0
C1785 C 0.15031 0.88726 0.78714 0.0
C1786 C 0.14832 0.89743 0.82401 0.0
C1787 C 0.13103 0.89058 0.84854 0.0
C1788 C 0.11624 0.87406 0.83746 0.0
C1789 C 0.09928 0.86923 0.86882 0.0
C1790 C 0.07552 0.87471 0.85482 0.0
C1791 C 0.10108 0.84488 0.88283 0.0
C1792 C 0.10691 0.8854 0.89973 0.0
C1793 C 0.12515 0.89773 0.88772 0.0
C1794 C 0.13544 0.91311 0.91248 0.0
C1795 C 0.12717 0.91546 0.9507 0.0
C1796 C 0.10889 0.90241 0.96359 0.0
C1797 C 0.09846 0.88763 0.93731 0.0
H1798 H 0.41602 0.87993 0.0521 0.0
H1799 H 0.35992 0.92138 0.01834 0.0
H1800 H 0.34574 0.92001 0.08633 0.0
H1801 H 0.3867 0.84385 0.11153 0.0
H1802 H 0.40867 0.84063 0.14695 0.0
H1803 H 0.41545 0.84725 0.09725 0.0
H1804 H 0.43719 0.88236 0.11992 0.0
H1805 H 0.43071 0.8757 0.16983 0.0
H1806 H 0.42347 0.90269 0.15036 0.0
H1807 H 0.33643 0.91088 0.15831 0.0
H1808 H 0.33377 0.89596 0.22577 0.0
H1809 H 0.39603 0.86035 0.20837 0.0
C1810 C 0.40093 0.88908 0.05898 0.0
C1811 C 0.38906 0.90077 0.03 0.0
C1812 C 0.36936 0.91244 0.04027 0.0
C1813 C 0.36117 0.9117 0.07874 0.0
C1814 C 0.37303 0.89937 0.1064 0.0
C1815 C 0.39263 0.88849 0.09684 0.0
C1816 C 0.40184 0.87536 0.13069 0.0
C1817 C 0.40323 0.8503 0.12101 0.0
C1818 C 0.42465 0.88459 0.14345 0.0
C1819 C 0.38412 0.88003 0.16076 0.0
C1820 C 0.36768 0.89405 0.14669 0.0
C1821 C 0.34934 0.90004 0.16961 0.0
C1822 C 0.34792 0.89146 0.20778 0.0
C1823 C 0.36462 0.87692 0.22224 0.0
C1824 C 0.3829 0.87134 0.19826 0.0
H1825 H 0.40999 0.10695 0.44647 0.0
H1826 H 0.34689 0.07845 0.48276 0.0
H1827 H 0.33419 0.07823 0.41377 0.0
H1828 H 0.38893 0.14423 0.38203 0.0
H1829 H 0.41124 0.14201 0.34702 0.0
H1830 H 0.41649 0.13601 0.39745 0.0
H1831 H 0.43126 0.09667 0.37924 0.0
H1832 H 0.42634 0.10265 0.32851 0.0
H1833 H 0.41409 0.07824 0.35052 0.0
H1834 H 0.32709 0.08635 0.34064 0.0
H1835 H 0.3269 0.1009 0.27273 0.0
H1836 H 0.3948 0.12425 0.28821 0.0
C1837 C 0.3937 0.10009 0.43986 0.0
C1838 C 0.3794 0.0927 0.46974 0.0
C1839 C 0.35817 0.08396 0.46007 0.0
C1840 C 0.35084 0.08385 0.42103 0.0
C1841 C 0.36513 0.09221 0.39231 0.0
C1842 C 0.38627 0.09984 0.40147 0.0
C1843 C 0.39792 0.10979 0.36664 0.0
C1844 C 0.40398 0.13446 0.37373 0.0
C1845 C 0.41862 0.09601 0.35557 0.0
C1846 C 0.37977 0.10747 0.33655 0.0
C1847 C 0.36104 0.09701 0.35134 0.0
C1848 C 0.34182 0.09427 0.32874 0.0
C1849 C 0.34181 0.1026 0.2903 0.0
C1850 C 0.36078 0.1138 0.27538 0.0
C1851 C 0.37998 0.11586 0.29879 0.0
H1852 H 0.86281 0.83069 0.30274 0.0
H1853 H 0.82441 0.88871 0.26801 0.0
H1854 H 0.82522 0.90244 0.33625 0.0
H1855 H 0.83899 0.82425 0.40188 0.0
H1856 H 0.86568 0.816 0.42135 0.0
H1857 H 0.85864 0.80948 0.3716 0.0
H1858 H 0.89464 0.82949 0.34843 0.0
H1859 H 0.90161 0.83639 0.3979 0.0
H1860 H 0.89926 0.8582 0.36196 0.0
H1861 H 0.83484 0.9118 0.40773 0.0
H1862 H 0.85084 0.91483 0.47434 0.0
H1863 H 0.88317 0.85066 0.4587 0.0
C1864 C 0.85402 0.846 0.30957 0.0
C1865 C 0.84349 0.85861 0.28019 0.0
C1866 C 0.83237 0.87866 0.29026 0.0
C1867 C 0.83283 0.88661 0.32889 0.0
C1868 C 0.84426 0.87415 0.35691 0.0
C1869 C 0.85437 0.85409 0.34761 0.0
C1870 C 0.86716 0.84456 0.38161 0.0
C1871 C 0.857 0.82225 0.3949 0.0
C1872 C 0.89213 0.84203 0.37187 0.0
C1873 C 0.86331 0.86267 0.41136 0.0
C1874 C 0.8499 0.87955 0.39706 0.0
C1875 C 0.84512 0.89851 0.41929 0.0
C1876 C 0.85432 0.90014 0.45699 0.0
C1877 C 0.8683 0.88303 0.47164 0.0
C1878 C 0.87258 0.86407 0.44845 0.0
H1879 H 0.90129 0.14145 0.04299 0.0
H1880 H 0.85336 0.08869 0.02081 0.0
H1881 H 0.83958 0.0922 0.08888 0.0
H1882 H 0.91483 0.12593 0.14044 0.0
H1883 H 0.91767 0.15446 0.15638 0.0
H1884 H 0.92332 0.14724 0.10645 0.0
H1885 H 0.89451 0.17679 0.08357 0.0
H1886 H 0.88862 0.18397 0.13345 0.0
H1887 H 0.86627 0.1755 0.10156 0.0
H1888 H 0.83149 0.10223 0.16109 0.0
H1889 H 0.83078 0.1168 0.22887 0.0
H1890 H 0.88388 0.16305 0.1995 0.0
C1891 C 0.88791 0.13052 0.05224 0.0
C1892 C 0.8784 0.11478 0.0266 0.0
C1893 C 0.86093 0.10084 0.04007 0.0
C1894 C 0.85298 0.10277 0.07859 0.0
C1895 C 0.86269 0.11872 0.10298 0.0
C1896 C 0.87984 0.13226 0.09011 0.0
C1897 C 0.88775 0.14807 0.12137 0.0
C1898 C 0.91234 0.14365 0.13177 0.0
C1899 C 0.88405 0.17253 0.10925 0.0
C1900 C 0.87239 0.14144 0.15414 0.0
C1901 C 0.858 0.1245 0.14334 0.0
C1902 C 0.84266 0.11554 0.16968 0.0
C1903 C 0.84231 0.12394 0.20804 0.0
C1904 C 0.85721 0.14111 0.21944 0.0
C1905 C 0.87217 0.15001 0.19181 0.0
H1906 H 0.61761 0.15011 0.79782 0.0
H1907 H 0.67054 0.10431 0.76538 0.0
H1908 H 0.66972 0.08826 0.83221 0.0
H1909 H 0.63595 0.16091 0.89461 0.0
H1910 H 0.60793 0.16245 0.9135 0.0
H1911 H 0.61338 0.16988 0.86361 0.0
H1912 H 0.58387 0.141 0.84078 0.0
H1913 H 0.57848 0.13333 0.8906 0.0
H1914 H 0.58647 0.11227 0.85577 0.0
H1915 H 0.66227 0.07758 0.90478 0.0
H1916 H 0.64994 0.07453 0.97382 0.0
H1917 H 0.60165 0.12726 0.95372 0.0
C1918 C 0.62916 0.13674 0.80454 0.0
C1919 C 0.64417 0.12848 0.77641 0.0
C1920 C 0.65894 0.11095 0.78661 0.0
C1921 C 0.65852 0.1017 0.82441 0.0
C1922 C 0.64321 0.11019 0.85134 0.0
C1923 C 0.62888 0.12739 0.84159 0.0
C1924 C 0.61393 0.13386 0.87501 0.0
C1925 C 0.61806 0.15821 0.88741 0.0
C1926 C 0.58923 0.12986 0.86492 0.0
C1927 C 0.62201 0.11767 0.90546 0.0
C1928 C 0.63888 0.10406 0.89169 0.0
C1929 C 0.64901 0.08815 0.91568 0.0
C1930 C 0.64188 0.08646 0.95475 0.0
C1931 C 0.62482 0.10063 0.96913 0.0
C1932 C 0.61471 0.11612 0.94378 0.0
H1933 H 0.60024 0.8784 0.55213 0.0
H1934 H 0.66105 0.9107 0.51352 0.0
H1935 H 0.67619 0.90814 0.58092 0.0
H1936 H 0.59815 0.90368 0.64921 0.0
H1937 H 0.58707 0.87849 0.67041 0.0
H1938 H 0.58089 0.88535 0.62047 0.0
H1939 H 0.59643 0.84686 0.59883 0.0
H1940 H 0.60296 0.84001 0.64852 0.0
H1941 H 0.62453 0.83916 0.61194 0.0
H1942 H 0.68509 0.89898 0.65366 0.0
H1943 H 0.68611 0.88539 0.72222 0.0
H1944 H 0.61937 0.85859 0.7081 0.0
C1945 C 0.61665 0.88524 0.55781 0.0
C1946 C 0.62953 0.89468 0.52774 0.0
C1947 C 0.65087 0.90353 0.53638 0.0
C1948 C 0.65959 0.90206 0.57448 0.0
C1949 C 0.64658 0.89194 0.60332 0.0
C1950 C 0.62543 0.88396 0.5952 0.0
C1951 C 0.61487 0.87296 0.63006 0.0
C1952 C 0.59402 0.8859 0.64332 0.0
C1953 C 0.60939 0.84829 0.62182 0.0
C1954 C 0.63359 0.87524 0.65902 0.0
C1955 C 0.65171 0.88647 0.64367 0.0
C1956 C 0.67091 0.89025 0.66586 0.0
C1957 C 0.6714 0.88243 0.70464 0.0
C1958 C 0.65294 0.87071 0.72029 0.0
C1959 C 0.63392 0.8672 0.69695 0.0
H1960 H 0.61213 0.63511 0.03886 0.0
H1961 H 0.65098 0.5753 0.01691 0.0
H1962 H 0.66541 0.57686 0.08485 0.0
H1963 H 0.65272 0.66323 0.09692 0.0
H1964 H 0.63204 0.67548 0.12851 0.0
H1965 H 0.62517 0.66922 0.07862 0.0
H1966 H 0.5917 0.64505 0.10145 0.0
H1967 H 0.59832 0.65143 0.15133 0.0
H1968 H 0.59638 0.62276 0.13578 0.0
H1969 H 0.67483 0.58563 0.15751 0.0
H1970 H 0.67683 0.5996 0.2257 0.0
H1971 H 0.6322 0.65382 0.19506 0.0
C1972 C 0.62362 0.6222 0.0481 0.0
C1973 C 0.63036 0.60501 0.02262 0.0
C1974 C 0.64553 0.58858 0.03607 0.0
C1975 C 0.65385 0.58941 0.07451 0.0
C1976 C 0.64693 0.60685 0.09875 0.0
C1977 C 0.63211 0.62289 0.08577 0.0
C1978 C 0.62687 0.63991 0.11676 0.0
C1979 C 0.63468 0.66334 0.10446 0.0
C1980 C 0.60184 0.63975 0.12693 0.0
C1981 C 0.6408 0.63091 0.14972 0.0
C1982 C 0.65241 0.61191 0.13914 0.0
C1983 C 0.66586 0.60056 0.16589 0.0
C1984 C 0.667 0.60864 0.20445 0.0
C1985 C 0.65468 0.62778 0.21564 0.0
C1986 C 0.64184 0.63914 0.18754 0.0
H1987 H 0.59001 0.36456 0.44965 0.0
H1988 H 0.63441 0.4201 0.47357 0.0
H1989 H 0.64957 0.41716 0.4064 0.0
H1990 H 0.62838 0.3325 0.39461 0.0
H1991 H 0.60747 0.32222 0.3614 0.0
H1992 H 0.59987 0.32948 0.41053 0.0
H1993 H 0.56977 0.35684 0.38458 0.0
H1994 H 0.5771 0.34947 0.33538 0.0
H1995 H 0.57766 0.37829 0.35043 0.0
H1996 H 0.65994 0.40709 0.33531 0.0
H1997 H 0.66335 0.39192 0.2682 0.0
H1998 H 0.61243 0.34277 0.29495 0.0
C1999 C 0.6028 0.3763 0.44088 0.0
C2000 C 0.61097 0.39263 0.46681 0.0
C2001 C 0.62782 0.40752 0.45406 0.0
C2002 C 0.63657 0.40591 0.41605 0.0
C2003 C 0.6283 0.38929 0.39143 0.0
C2004 C 0.61171 0.37484 0.40352 0.0
C2005 C 0.60564 0.35822 0.37227 0.0
C2006 C 0.61065 0.33419 0.38551 0.0
C2007 C 0.58109 0.36088 0.35993 0.0
C2008 C 0.62133 0.36552 0.3404 0.0
C2009 C 0.63435 0.38343 0.35169 0.0
C2010 C 0.64983 0.39304 0.3263 0.0
C2011 C 0.65172 0.38428 0.28834 0.0
C2012 C 0.6382 0.36613 0.27636 0.0
C2013 C 0.62309 0.3566 0.30309 0.0
H2014 H 0.88962 0.36921 0.71059 0.0
H2015 H 0.82371 0.39803 0.72486 0.0
H2016 H 0.82645 0.41438 0.65839 0.0
H2017 H 0.914 0.41518 0.65684 0.0
H2018 H 0.93046 0.3968 0.62677 0.0
H2019 H 0.92339 0.38874 0.67581 0.0
H2020 H 0.90564 0.35208 0.65008 0.0
H2021 H 0.91286 0.3599 0.60114 0.0
H2022 H 0.88429 0.35352 0.61315 0.0
H2023 H 0.83637 0.42537 0.58735 0.0
H2024 H 0.85144 0.42823 0.52009 0.0
H2025 H 0.91091 0.39275 0.55673 0.0
C2026 C 0.87569 0.37899 0.69999 0.0
C2027 C 0.85638 0.38223 0.72278 0.0
C2028 C 0.83865 0.3953 0.70777 0.0
C2029 C 0.84013 0.40471 0.67018 0.0
C2030 C 0.85955 0.4011 0.64848 0.0
C2031 C 0.87698 0.38856 0.66315 0.0
C2032 C 0.89576 0.38617 0.63423 0.0
C2033 C 0.91716 0.3974 0.64932 0.0
C2034 C 0.89986 0.36146 0.62405 0.0
C2035 C 0.88605 0.39881 0.60028 0.0
C2036 C 0.86526 0.40757 0.60883 0.0
C2037 C 0.85274 0.4188 0.58062 0.0
C2038 C 0.86146 0.42046 0.54258 0.0
C2039 C 0.88236 0.41076 0.5333 0.0
C2040 C 0.89494 0.40044 0.56293 0.0
H2041 H 0.9133 0.59674 0.94164 0.0
H2042 H 0.84823 0.57694 0.98416 0.0
H2043 H 0.83345 0.5784 0.91657 0.0
H2044 H 0.89562 0.63678 0.88172 0.0
H2045 H 0.91589 0.63238 0.84368 0.0
H2046 H 0.92235 0.62449 0.89282 0.0
H2047 H 0.9306 0.58395 0.87066 0.0
H2048 H 0.92454 0.59179 0.82107 0.0
H2049 H 0.90991 0.56878 0.84322 0.0
H2050 H 0.82477 0.58882 0.8453 0.0
H2051 H 0.82361 0.60596 0.77928 0.0
H2052 H 0.89451 0.61945 0.7869 0.0
C2053 C 0.89613 0.5919 0.93655 0.0
C2054 C 0.88189 0.58664 0.96783 0.0
C2055 C 0.85946 0.58068 0.96031 0.0
C2056 C 0.85095 0.58156 0.92207 0.0
C2057 C 0.86525 0.58804 0.89194 0.0
C2058 C 0.88752 0.59271 0.89891 0.0
C2059 C 0.89902 0.60183 0.86322 0.0
C2060 C 0.90876 0.62524 0.87084 0.0
C2061 C 0.91708 0.58561 0.84868 0.0
C2062 C 0.87956 0.60274 0.83546 0.0
C2063 C 0.86026 0.59433 0.85191 0.0
C2064 C 0.83991 0.59506 0.832 0.0
C2065 C 0.83935 0.60485 0.79464 0.0
C2066 C 0.85894 0.61413 0.77828 0.0
C2067 C 0.87924 0.61258 0.79877 0.0
H2068 H 0.36873 0.33695 0.803 0.0
H2069 H 0.32196 0.38987 0.77527 0.0
H2070 H 0.32314 0.4025 0.8442 0.0
H2071 H 0.34858 0.32508 0.90152 0.0
H2072 H 0.37645 0.32 0.91916 0.0
H2073 H 0.36958 0.31412 0.86911 0.0
H2074 H 0.40206 0.33967 0.84663 0.0
H2075 H 0.40885 0.34587 0.89649 0.0
H2076 H 0.40295 0.36826 0.86295 0.0
H2077 H 0.33261 0.41093 0.91637 0.0
H2078 H 0.34811 0.41321 0.98346 0.0
H2079 H 0.38883 0.35485 0.95991 0.0
C2080 C 0.35836 0.35096 0.81141 0.0
C2081 C 0.34522 0.36241 0.78384 0.0
C2082 C 0.33201 0.38074 0.79608 0.0
C2083 C 0.33266 0.38805 0.8351 0.0
C2084 C 0.34646 0.37674 0.8613 0.0
C2085 C 0.35887 0.35842 0.84981 0.0
C2086 C 0.37337 0.3497 0.88233 0.0
C2087 C 0.36658 0.32582 0.8937 0.0
C2088 C 0.39827 0.35097 0.87144 0.0
C2089 C 0.36758 0.36617 0.91395 0.0
C2090 C 0.35196 0.38162 0.90171 0.0
C2091 C 0.34471 0.39878 0.92624 0.0
C2092 C 0.35364 0.4 0.96419 0.0
C2093 C 0.36971 0.38425 0.97689 0.0
C2094 C 0.3766 0.3672 0.95124 0.0
H2095 H 0.38965 0.65515 0.70406 0.0
H2096 H 0.33814 0.60651 0.73008 0.0
H2097 H 0.34052 0.59244 0.66206 0.0
H2098 H 0.37224 0.66786 0.60697 0.0
H2099 H 0.40044 0.67092 0.58952 0.0
H2100 H 0.39398 0.67689 0.63967 0.0
H2101 H 0.42426 0.64862 0.66172 0.0
H2102 H 0.43069 0.64243 0.61164 0.0
H2103 H 0.42304 0.62023 0.64446 0.0
H2104 H 0.34951 0.58384 0.58966 0.0
H2105 H 0.36323 0.58249 0.52137 0.0
H2106 H 0.4089 0.63674 0.54684 0.0
C2107 C 0.37873 0.64159 0.69565 0.0
C2108 C 0.36368 0.63193 0.72237 0.0
C2109 C 0.34976 0.61419 0.70998 0.0
C2110 C 0.35105 0.60608 0.67148 0.0
C2111 C 0.36635 0.61591 0.64601 0.0
C2112 C 0.37985 0.63335 0.6578 0.0
C2113 C 0.39503 0.64121 0.62555 0.0
C2114 C 0.39012 0.66566 0.6148 0.0
C2115 C 0.41971 0.63791 0.63651 0.0
C2116 C 0.38806 0.6255 0.59348 0.0
C2117 C 0.37153 0.61097 0.60549 0.0
C2118 C 0.36248 0.59515 0.58009 0.0
C2119 C 0.3704 0.59445 0.54144 0.0
C2120 C 0.38717 0.60946 0.52879 0.0
C2121 C 0.39612 0.62496 0.55547 0.0
H2122 H 0.09972 0.6341 0.45377 0.0
H2123 H 0.14523 0.57854 0.47009 0.0
H2124 H 0.15894 0.5836 0.40227 0.0
H2125 H 0.08554 0.62308 0.35421 0.0
H2126 H 0.08424 0.65232 0.34201 0.0
H2127 H 0.07799 0.64331 0.39082 0.0
H2128 H 0.10816 0.67033 0.41758 0.0
H2129 H 0.1147 0.67921 0.36881 0.0
H2130 H 0.13639 0.66826 0.39979 0.0
H2131 H 0.16783 0.59611 0.33146 0.0
H2132 H 0.16968 0.61347 0.26578 0.0
H2133 H 0.11868 0.66091 0.3004 0.0
C2134 C 0.11247 0.6228 0.44322 0.0
C2135 C 0.12139 0.60589 0.46719 0.0
C2136 C 0.13808 0.59155 0.45208 0.0
C2137 C 0.14601 0.59437 0.41371 0.0
C2138 C 0.13706 0.6116 0.39114 0.0
C2139 C 0.12055 0.62544 0.40553 0.0
C2140 C 0.11362 0.64291 0.37632 0.0
C2141 C 0.08889 0.64023 0.36518 0.0
C2142 C 0.11852 0.66657 0.39155 0.0
C2143 C 0.12878 0.63686 0.34293 0.0
C2144 C 0.14224 0.6188 0.35167 0.0
C2145 C 0.15735 0.61027 0.32447 0.0
C2146 C 0.15837 0.62028 0.28734 0.0
C2147 C 0.14437 0.63858 0.278 0.0
C2148 C 0.12968 0.64701 0.30651 0.0
H2149 H 0.12246 0.34382 0.20832 0.0
H2150 H 0.17018 0.39579 0.23657 0.0
H2151 H 0.16659 0.41075 0.16934 0.0
H2152 H 0.13911 0.33509 0.10773 0.0
H2153 H 0.11072 0.33055 0.09232 0.0
H2154 H 0.11908 0.32332 0.14109 0.0
H2155 H 0.0874 0.34831 0.16851 0.0
H2156 H 0.07921 0.35597 0.11989 0.0
H2157 H 0.0862 0.37734 0.1548 0.0
H2158 H 0.15542 0.42092 0.09848 0.0
H2159 H 0.13947 0.42391 0.03183 0.0
H2160 H 0.09835 0.36577 0.05478 0.0
C2161 C 0.13251 0.35813 0.20038 0.0
C2162 C 0.14666 0.3686 0.22763 0.0
C2163 C 0.15937 0.38739 0.21598 0.0
C2164 C 0.15733 0.39605 0.17796 0.0
C2165 C 0.14255 0.38568 0.15221 0.0
C2166 C 0.13054 0.36699 0.16307 0.0
C2167 C 0.11506 0.35924 0.13122 0.0
C2168 C 0.12138 0.33566 0.11726 0.0
C2169 C 0.09052 0.36029 0.14441 0.0
C2170 C 0.11999 0.37655 0.10058 0.0
C2171 C 0.13592 0.39168 0.1128 0.0
C2172 C 0.14297 0.4091 0.08871 0.0
C2173 C 0.13375 0.41076 0.05103 0.0
C2174 C 0.11759 0.39515 0.03815 0.0
C2175 C 0.11058 0.37808 0.06364 0.0
loop_
_geom_bond_atom_site_label_1
_geom_bond_atom_site_label_2
_geom_bond_distance
_geom_bond_site_symmetry_2
_ccdc_geom_bond_type
O0 Cd1 2.223 . S
O0 C8 1.315 . S
Cd1 O0 2.223 . S
Cd1 O4 2.297 . S
Cd1 O5 2.439 . S
Cd1 O11 2.240 . S
Cd2 O3 2.240 . S
Cd2 O10 2.223 . S
Cd2 O12 2.297 . S
Cd2 O13 2.439 . S
O3 Cd2 2.240 . S
O3 C8 1.279 . S
O4 Cd1 2.297 . S
O4 C6 1.247 . S
O5 Cd1 2.439 . S
O5 C6 1.208 . S
C6 O4 1.247 . S
C6 O5 1.208 . S
C7 O12 1.247 . S
C7 O13 1.208 . S
C8 O0 1.315 . S
C8 O3 1.279 . S
C9 O10 1.315 . S
C9 O11 1.279 . S
O10 Cd2 2.223 . S
O10 C9 1.315 . S
O11 Cd1 2.240 . S
O11 C9 1.279 . S
O12 Cd2 2.297 . S
O12 C7 1.247 . S
O13 Cd2 2.439 . S
O13 C7 1.208 . S
O14 Cd15 2.223 . S
O14 C22 1.315 . S
Cd15 O14 2.223 . S
Cd15 O18 2.297 . S
Cd15 O19 2.439 . S
Cd15 O25 2.240 . S
Cd16 O17 2.240 . S
Cd16 O24 2.223 . S
Cd16 O26 2.297 . S
Cd16 O27 2.439 . S
O17 Cd16 2.240 . S
O17 C22 1.279 . S
O18 Cd15 2.297 . S
O18 C20 1.247 . S
O19 Cd15 2.439 . S
O19 C20 1.208 . S
C20 O18 1.247 . S
C20 O19 1.208 . S
C21 O26 1.247 . S
C21 O27 1.208 . S
C22 O14 1.315 . S
C22 O17 1.279 . S
C23 O24 1.315 . S
C23 O25 1.279 . S
O24 Cd16 2.223 . S
O24 C23 1.315 . S
O25 Cd15 2.240 . S
O25 C23 1.279 . S
O26 Cd16 2.297 . S
O26 C21 1.247 . S
O27 Cd16 2.439 . S
O27 C21 1.208 . S
O28 Cd29 2.223 . S
O28 C36 1.315 . S
Cd29 O28 2.223 . S
Cd29 O32 2.297 . S
Cd29 O33 2.439 . S
Cd29 O39 2.240 . S
Cd30 O31 2.240 . S
Cd30 O38 2.223 . S
Cd30 O40 2.297 1_556 S
Cd30 O41 2.439 . S
O31 Cd30 2.240 . S
O31 C36 1.279 . S
O32 Cd29 2.297 . S
O32 C34 1.247 . S
O33 Cd29 2.439 . S
O33 C34 1.208 . S
C34 O32 1.247 . S
C34 O33 1.208 . S
C35 O40 1.242 1_556 S
C35 O41 1.231 . S
C36 O28 1.315 . S
C36 O31 1.279 . S
C37 O38 1.315 . S
C37 O39 1.279 . S
O38 Cd30 2.223 . S
O38 C37 1.315 . S
O39 Cd29 2.240 . S
O39 C37 1.279 . S
O40 Cd30 2.297 1_554 S
O40 C35 1.242 1_554 S
O41 Cd30 2.439 . S
O41 C35 1.231 . S
O42 Cd43 2.223 . S
O42 C50 1.315 . S
Cd43 O42 2.223 . S
Cd43 O46 2.297 . S
Cd43 O47 2.439 . S
Cd43 O53 2.240 . S
Cd44 O45 2.240 . S
Cd44 O52 2.223 . S
Cd44 O54 2.297 . S
Cd44 O55 2.439 . S
O45 Cd44 2.240 . S
O45 C50 1.279 . S
O46 Cd43 2.297 . S
O46 C48 1.247 . S
O47 Cd43 2.439 . S
O47 C48 1.208 . S
C48 O46 1.247 . S
C48 O47 1.208 . S
C49 O54 1.247 . S
C49 O55 1.208 . S
C50 O42 1.315 . S
C50 O45 1.279 . S
C51 O52 1.315 . S
C51 O53 1.279 . S
O52 Cd44 2.223 . S
O52 C51 1.315 . S
O53 Cd43 2.240 . S
O53 C51 1.279 . S
O54 Cd44 2.297 . S
O54 C49 1.247 . S
O55 Cd44 2.439 . S
O55 C49 1.208 . S
O56 Cd57 2.223 . S
O56 C64 1.315 . S
Cd57 O56 2.223 . S
Cd57 O60 2.297 . S
Cd57 O61 2.439 . S
Cd57 O67 2.240 . S
Cd58 O59 2.240 . S
Cd58 O66 2.223 . S
Cd58 O68 2.297 1_554 S
Cd58 O69 2.439 . S
O59 Cd58 2.240 . S
O59 C64 1.279 . S
O60 Cd57 2.297 . S
O60 C62 1.247 . S
O61 Cd57 2.439 . S
O61 C62 1.208 . S
C62 O60 1.247 . S
C62 O61 1.208 . S
C63 O68 1.242 1_554 S
C63 O69 1.231 . S
C64 O56 1.315 . S
C64 O59 1.279 . S
C65 O66 1.315 . S
C65 O67 1.279 . S
O66 Cd58 2.223 . S
O66 C65 1.315 . S
O67 Cd57 2.240 . S
O67 C65 1.279 . S
O68 Cd58 2.297 1_556 S
O68 C63 1.242 1_556 S
O69 Cd58 2.439 . S
O69 C63 1.231 . S
O70 Cd71 2.223 . S
O70 C78 1.315 . S
Cd71 O70 2.223 . S
Cd71 O74 2.297 . S
Cd71 O75 2.439 . S
Cd71 O81 2.240 . S
Cd72 O73 2.240 . S
Cd72 O80 2.223 . S
Cd72 O82 2.297 . S
Cd72 O83 2.439 . S
O73 Cd72 2.240 . S
O73 C78 1.279 . S
O74 Cd71 2.297 . S
O74 C76 1.247 . S
O75 Cd71 2.439 . S
O75 C76 1.208 . S
C76 O74 1.247 . S
C76 O75 1.208 . S
C77 O82 1.247 . S
C77 O83 1.208 . S
C78 O70 1.315 . S
C78 O73 1.279 . S
C79 O80 1.315 . S
C79 O81 1.279 . S
O80 Cd72 2.223 . S
O80 C79 1.315 . S
O81 Cd71 2.240 . S
O81 C79 1.279 . S
O82 Cd72 2.297 . S
O82 C77 1.247 . S
O83 Cd72 2.439 . S
O83 C77 1.208 . S
O84 Cd85 2.223 . S
O84 C92 1.315 . S
Cd85 O84 2.223 . S
Cd85 O88 2.297 . S
Cd85 O89 2.439 . S
Cd85 O95 2.240 . S
Cd86 O87 2.240 . S
Cd86 O94 2.223 . S
Cd86 O96 2.297 . S
Cd86 O97 2.439 . S
O87 Cd86 2.240 . S
O87 C92 1.279 . S
O88 Cd85 2.297 . S
O88 C90 1.247 . S
O89 Cd85 2.439 . S
O89 C90 1.208 . S
C90 O88 1.247 . S
C90 O89 1.208 . S
C91 O96 1.247 . S
C91 O97 1.208 . S
C92 O84 1.315 . S
C92 O87 1.279 . S
C93 O94 1.315 . S
C93 O95 1.279 . S
O94 Cd86 2.223 . S
O94 C93 1.315 . S
O95 Cd85 2.240 . S
O95 C93 1.279 . S
O96 Cd86 2.297 . S
O96 C91 1.247 . S
O97 Cd86 2.439 . S
O97 C91 1.208 . S
O98 Cd99 2.223 . S
O98 C106 1.315 . S
Cd99 O98 2.223 . S
Cd99 O102 2.297 . S
Cd99 O103 2.439 . S
Cd99 O109 2.240 . S
Cd100 O101 2.240 . S
Cd100 O108 2.223 . S
Cd100 O110 2.297 . S
Cd100 O111 2.439 . S
O101 Cd100 2.240 . S
O101 C106 1.279 . S
O102 Cd99 2.297 . S
O102 C104 1.247 . S
O103 Cd99 2.439 . S
O103 C104 1.208 . S
C104 O102 1.247 . S
C104 O103 1.208 . S
C105 O110 1.247 . S
C105 O111 1.208 . S
C106 O98 1.315 . S
C106 O101 1.279 . S
C107 O108 1.315 . S
C107 O109 1.279 . S
O108 Cd100 2.223 . S
O108 C107 1.315 . S
O109 Cd99 2.240 . S
O109 C107 1.279 . S
O110 Cd100 2.297 . S
O110 C105 1.247 . S
O111 Cd100 2.439 . S
O111 C105 1.208 . S
O112 Cd113 2.223 . S
O112 C120 1.315 . S
Cd113 O112 2.223 . S
Cd113 O116 2.297 . S
Cd113 O117 2.439 . S
Cd113 O123 2.240 . S
Cd114 O115 2.240 . S
Cd114 O122 2.223 . S
Cd114 O124 2.297 . S
Cd114 O125 2.439 . S
O115 Cd114 2.240 . S
O115 C120 1.279 . S
O116 Cd113 2.297 . S
O116 C118 1.247 . S
O117 Cd113 2.439 . S
O117 C118 1.208 . S
C118 O116 1.247 . S
C118 O117 1.208 . S
C119 O124 1.247 . S
C119 O125 1.208 . S
C120 O112 1.315 . S
C120 O115 1.279 . S
C121 O122 1.315 . S
C121 O123 1.279 . S
O122 Cd114 2.223 . S
O122 C121 1.315 . S
O123 Cd113 2.240 . S
O123 C121 1.279 . S
O124 Cd114 2.297 . S
O124 C119 1.247 . S
O125 Cd114 2.439 . S
O125 C119 1.208 . S
O126 Cd127 2.223 . S
O126 C134 1.315 . S
Cd127 O126 2.223 . S
Cd127 O130 2.297 . S
Cd127 O131 2.439 . S
Cd127 O137 2.240 . S
Cd128 O129 2.240 . S
Cd128 O136 2.223 . S
Cd128 O138 2.297 . S
Cd128 O139 2.439 . S
O129 Cd128 2.240 . S
O129 C134 1.279 . S
O130 Cd127 2.297 . S
O130 C132 1.247 . S
O131 Cd127 2.439 . S
O131 C132 1.208 . S
C132 O130 1.247 . S
C132 O131 1.208 . S
C133 O138 1.247 . S
C133 O139 1.208 . S
C134 O126 1.315 . S
C134 O129 1.279 . S
C135 O136 1.315 . S
C135 O137 1.279 . S
O136 Cd128 2.223 . S
O136 C135 1.315 . S
O137 Cd127 2.240 . S
O137 C135 1.279 . S
O138 Cd128 2.297 . S
O138 C133 1.247 . S
O139 Cd128 2.439 . S
O139 C133 1.208 . S
O140 Cd141 2.223 . S
O140 C148 1.315 . S
Cd141 O140 2.223 . S
Cd141 O144 2.297 . S
Cd141 O145 2.439 . S
Cd141 O151 2.240 . S
Cd142 O143 2.240 . S
Cd142 O150 2.223 . S
Cd142 O152 2.297 1_554 S
Cd142 O153 2.439 . S
O143 Cd142 2.240 . S
O143 C148 1.279 . S
O144 Cd141 2.297 . S
O144 C146 1.247 . S
O145 Cd141 2.439 . S
O145 C146 1.208 . S
C146 O144 1.247 . S
C146 O145 1.208 . S
C147 O152 1.242 1_554 S
C147 O153 1.231 . S
C148 O140 1.315 . S
C148 O143 1.279 . S
C149 O150 1.315 . S
C149 O151 1.279 . S
O150 Cd142 2.223 . S
O150 C149 1.315 . S
O151 Cd141 2.240 . S
O151 C149 1.279 . S
O152 Cd142 2.297 1_556 S
O152 C147 1.242 1_556 S
O153 Cd142 2.439 . S
O153 C147 1.231 . S
O154 Cd155 2.223 . S
O154 C162 1.315 . S
Cd155 O154 2.223 . S
Cd155 O158 2.297 . S
Cd155 O159 2.439 . S
Cd155 O165 2.240 . S
Cd156 O157 2.240 . S
Cd156 O164 2.223 . S
Cd156 O166 2.297 . S
Cd156 O167 2.439 . S
O157 Cd156 2.240 . S
O157 C162 1.279 . S
O158 Cd155 2.297 . S
O158 C160 1.247 . S
O159 Cd155 2.439 . S
O159 C160 1.208 . S
C160 O158 1.247 . S
C160 O159 1.208 . S
C161 O166 1.247 . S
C161 O167 1.208 . S
C162 O154 1.315 . S
C162 O157 1.279 . S
C163 O164 1.315 . S
C163 O165 1.279 . S
O164 Cd156 2.223 . S
O164 C163 1.315 . S
O165 Cd155 2.240 . S
O165 C163 1.279 . S
O166 Cd156 2.297 . S
O166 C161 1.247 . S
O167 Cd156 2.439 . S
O167 C161 1.208 . S
O168 Cd169 2.223 . S
O168 C176 1.315 . S
Cd169 O168 2.223 . S
Cd169 O172 2.297 . S
Cd169 O173 2.439 . S
Cd169 O179 2.240 . S
Cd170 O171 2.240 . S
Cd170 O178 2.223 . S
Cd170 O180 2.297 1_556 S
Cd170 O181 2.439 . S
O171 Cd170 2.240 . S
O171 C176 1.279 . S
O172 Cd169 2.297 . S
O172 C174 1.247 . S
O173 Cd169 2.439 . S
O173 C174 1.208 . S
C174 O172 1.247 . S
C174 O173 1.208 . S
C175 O180 1.242 1_556 S
C175 O181 1.231 . S
C176 O168 1.315 . S
C176 O171 1.279 . S
C177 O178 1.315 . S
C177 O179 1.279 . S
O178 Cd170 2.223 . S
O178 C177 1.315 . S
O179 Cd169 2.240 . S
O179 C177 1.279 . S
O180 Cd170 2.297 1_554 S
O180 C175 1.242 1_554 S
O181 Cd170 2.439 . S
O181 C175 1.231 . S
O182 Cd183 2.223 . S
O182 C190 1.315 . S
Cd183 O182 2.223 . S
Cd183 O186 2.297 . S
Cd183 O187 2.439 . S
Cd183 O193 2.240 . S
Cd184 O185 2.240 . S
Cd184 O192 2.223 . S
Cd184 O194 2.297 . S
Cd184 O195 2.439 . S
O185 Cd184 2.240 . S
O185 C190 1.279 . S
O186 Cd183 2.297 . S
O186 C188 1.247 . S
O187 Cd183 2.439 . S
O187 C188 1.208 . S
C188 O186 1.247 . S
C188 O187 1.208 . S
C189 O194 1.247 . S
C189 O195 1.208 . S
C190 O182 1.315 . S
C190 O185 1.279 . S
C191 O192 1.315 . S
C191 O193 1.279 . S
O192 Cd184 2.223 . S
O192 C191 1.315 . S
O193 Cd183 2.240 . S
O193 C191 1.279 . S
O194 Cd184 2.297 . S
O194 C189 1.247 . S
O195 Cd184 2.439 . S
O195 C189 1.208 . S
O196 Cd197 2.223 . S
O196 C204 1.315 . S
Cd197 O196 2.223 . S
Cd197 O200 2.297 . S
Cd197 O201 2.439 . S
Cd197 O207 2.240 . S
Cd198 O199 2.240 . S
Cd198 O206 2.223 . S
Cd198 O208 2.297 . S
Cd198 O209 2.439 . S
O199 Cd198 2.240 . S
O199 C204 1.279 . S
O200 Cd197 2.297 . S
O200 C202 1.247 . S
O201 Cd197 2.439 . S
O201 C202 1.208 . S
C202 O200 1.247 . S
C202 O201 1.208 . S
C203 O208 1.247 . S
C203 O209 1.208 . S
C204 O196 1.315 . S
C204 O199 1.279 . S
C205 O206 1.315 . S
C205 O207 1.279 . S
O206 Cd198 2.223 . S
O206 C205 1.315 . S
O207 Cd197 2.240 . S
O207 C205 1.279 . S
O208 Cd198 2.297 . S
O208 C203 1.247 . S
O209 Cd198 2.439 . S
O209 C203 1.208 . S
O210 Cd211 2.223 . S
O210 C218 1.315 . S
Cd211 O210 2.223 . S
Cd211 O214 2.297 . S
Cd211 O215 2.439 . S
Cd211 O221 2.240 . S
Cd212 O213 2.240 . S
Cd212 O220 2.223 . S
Cd212 O222 2.297 . S
Cd212 O223 2.439 . S
O213 Cd212 2.240 . S
O213 C218 1.279 . S
O214 Cd211 2.297 . S
O214 C216 1.247 . S
O215 Cd211 2.439 . S
O215 C216 1.208 . S
C216 O214 1.247 . S
C216 O215 1.208 . S
C217 O222 1.247 . S
C217 O223 1.208 . S
C218 O210 1.315 . S
C218 O213 1.279 . S
C219 O220 1.315 . S
C219 O221 1.279 . S
O220 Cd212 2.223 . S
O220 C219 1.315 . S
O221 Cd211 2.240 . S
O221 C219 1.279 . S
O222 Cd212 2.297 . S
O222 C217 1.247 . S
O223 Cd212 2.439 . S
O223 C217 1.208 . S
O224 Cd225 2.223 . S
O224 C232 1.315 . S
Cd225 O224 2.223 . S
Cd225 O228 2.297 . S
Cd225 O229 2.439 . S
Cd225 O235 2.240 . S
Cd226 O227 2.240 . S
Cd226 O234 2.223 . S
Cd226 O236 2.297 1_556 S
Cd226 O237 2.439 . S
O227 Cd226 2.240 . S
O227 C232 1.279 . S
O228 Cd225 2.297 . S
O228 C230 1.247 . S
O229 Cd225 2.439 . S
O229 C230 1.208 . S
C230 O228 1.247 . S
C230 O229 1.208 . S
C231 O236 1.242 1_556 S
C231 O237 1.231 . S
C232 O224 1.315 . S
C232 O227 1.279 . S
C233 O234 1.315 . S
C233 O235 1.279 . S
O234 Cd226 2.223 . S
O234 C233 1.315 . S
O235 Cd225 2.240 . S
O235 C233 1.279 . S
O236 Cd226 2.297 1_554 S
O236 C231 1.242 1_554 S
O237 Cd226 2.439 . S
O237 C231 1.231 . S
O238 Cd239 2.223 . S
O238 C246 1.315 . S
Cd239 O238 2.223 . S
Cd239 O242 2.297 . S
Cd239 O243 2.439 . S
Cd239 O249 2.240 . S
Cd240 O241 2.240 . S
Cd240 O248 2.223 . S
Cd240 O250 2.297 . S
Cd240 O251 2.439 . S
O241 Cd240 2.240 . S
O241 C246 1.279 . S
O242 Cd239 2.297 . S
O242 C244 1.247 . S
O243 Cd239 2.439 . S
O243 C244 1.208 . S
C244 O242 1.247 . S
C244 O243 1.208 . S
C245 O250 1.247 . S
C245 O251 1.208 . S
C246 O238 1.315 . S
C246 O241 1.279 . S
C247 O248 1.315 . S
C247 O249 1.279 . S
O248 Cd240 2.223 . S
O248 C247 1.315 . S
O249 Cd239 2.240 . S
O249 C247 1.279 . S
O250 Cd240 2.297 . S
O250 C245 1.247 . S
O251 Cd240 2.439 . S
O251 C245 1.208 . S
O252 Cd253 2.223 . S
O252 C260 1.315 . S
Cd253 O252 2.223 . S
Cd253 O256 2.297 . S
Cd253 O257 2.439 . S
Cd253 O263 2.240 . S
Cd254 O255 2.240 . S
Cd254 O262 2.223 . S
Cd254 O264 2.297 . S
Cd254 O265 2.439 . S
O255 Cd254 2.240 . S
O255 C260 1.279 . S
O256 Cd253 2.297 . S
O256 C258 1.247 . S
O257 Cd253 2.439 . S
O257 C258 1.208 . S
C258 O256 1.247 . S
C258 O257 1.208 . S
C259 O264 1.247 . S
C259 O265 1.208 . S
C260 O252 1.315 . S
C260 O255 1.279 . S
C261 O262 1.315 . S
C261 O263 1.279 . S
O262 Cd254 2.223 . S
O262 C261 1.315 . S
O263 Cd253 2.240 . S
O263 C261 1.279 . S
O264 Cd254 2.297 . S
O264 C259 1.247 . S
O265 Cd254 2.439 . S
O265 C259 1.208 . S
O266 Cd267 2.223 . S
O266 C274 1.315 . S
Cd267 O266 2.223 . S
Cd267 O270 2.297 . S
Cd267 O271 2.439 . S
Cd267 O277 2.240 . S
Cd268 O269 2.240 . S
Cd268 O276 2.223 . S
Cd268 O278 2.297 . S
Cd268 O279 2.439 . S
O269 Cd268 2.240 . S
O269 C274 1.279 . S
O270 Cd267 2.297 . S
O270 C272 1.247 . S
O271 Cd267 2.439 . S
O271 C272 1.208 . S
C272 O270 1.247 . S
C272 O271 1.208 . S
C273 O278 1.247 . S
C273 O279 1.208 . S
C274 O266 1.315 . S
C274 O269 1.279 . S
C275 O276 1.315 . S
C275 O277 1.279 . S
O276 Cd268 2.223 . S
O276 C275 1.315 . S
O277 Cd267 2.240 . S
O277 C275 1.279 . S
O278 Cd268 2.297 . S
O278 C273 1.247 . S
O279 Cd268 2.439 . S
O279 C273 1.208 . S
O280 Cd281 2.223 . S
O280 C288 1.315 . S
Cd281 O280 2.223 . S
Cd281 O284 2.297 . S
Cd281 O285 2.439 . S
Cd281 O291 2.240 . S
Cd282 O283 2.240 . S
Cd282 O290 2.223 . S
Cd282 O292 2.297 . S
Cd282 O293 2.439 . S
O283 Cd282 2.240 . S
O283 C288 1.279 . S
O284 Cd281 2.297 . S
O284 C286 1.247 . S
O285 Cd281 2.439 . S
O285 C286 1.208 . S
C286 O284 1.247 . S
C286 O285 1.208 . S
C287 O292 1.247 . S
C287 O293 1.208 . S
C288 O280 1.315 . S
C288 O283 1.279 . S
C289 O290 1.315 . S
C289 O291 1.279 . S
O290 Cd282 2.223 . S
O290 C289 1.315 . S
O291 Cd281 2.240 . S
O291 C289 1.279 . S
O292 Cd282 2.297 . S
O292 C287 1.247 . S
O293 Cd282 2.439 . S
O293 C287 1.208 . S
O294 Cd295 2.223 . S
O294 C302 1.315 . S
Cd295 O294 2.223 . S
Cd295 O298 2.297 . S
Cd295 O299 2.439 . S
Cd295 O305 2.240 . S
Cd296 O297 2.240 . S
Cd296 O304 2.223 . S
Cd296 O306 2.297 . S
Cd296 O307 2.439 . S
O297 Cd296 2.240 . S
O297 C302 1.279 . S
O298 Cd295 2.297 . S
O298 C300 1.247 . S
O299 Cd295 2.439 . S
O299 C300 1.208 . S
C300 O298 1.247 . S
C300 O299 1.208 . S
C301 O306 1.247 . S
C301 O307 1.208 . S
C302 O294 1.315 . S
C302 O297 1.279 . S
C303 O304 1.315 . S
C303 O305 1.279 . S
O304 Cd296 2.223 . S
O304 C303 1.315 . S
O305 Cd295 2.240 . S
O305 C303 1.279 . S
O306 Cd296 2.297 . S
O306 C301 1.247 . S
O307 Cd296 2.439 . S
O307 C301 1.208 . S
O308 Cd309 2.223 . S
O308 C316 1.315 . S
Cd309 O308 2.223 . S
Cd309 O312 2.297 . S
Cd309 O313 2.439 . S
Cd309 O319 2.240 . S
Cd310 O311 2.240 . S
Cd310 O318 2.223 . S
Cd310 O320 2.297 1_554 S
Cd310 O321 2.439 . S
O311 Cd310 2.240 . S
O311 C316 1.279 . S
O312 Cd309 2.297 . S
O312 C314 1.247 . S
O313 Cd309 2.439 . S
O313 C314 1.208 . S
C314 O312 1.247 . S
C314 O313 1.208 . S
C315 O320 1.242 1_554 S
C315 O321 1.231 . S
C316 O308 1.315 . S
C316 O311 1.279 . S
C317 O318 1.315 . S
C317 O319 1.279 . S
O318 Cd310 2.223 . S
O318 C317 1.315 . S
O319 Cd309 2.240 . S
O319 C317 1.279 . S
O320 Cd310 2.297 1_556 S
O320 C315 1.242 1_556 S
O321 Cd310 2.439 . S
O321 C315 1.231 . S
O322 Cd323 2.223 . S
O322 C330 1.315 . S
Cd323 O322 2.223 . S
Cd323 O326 2.297 . S
Cd323 O327 2.439 . S
Cd323 O333 2.240 . S
Cd324 O325 2.240 . S
Cd324 O332 2.223 . S
Cd324 O334 2.297 . S
Cd324 O335 2.439 . S
O325 Cd324 2.240 . S
O325 C330 1.279 . S
O326 Cd323 2.297 . S
O326 C328 1.247 . S
O327 Cd323 2.439 . S
O327 C328 1.208 . S
C328 O326 1.247 . S
C328 O327 1.208 . S
C329 O334 1.247 . S
C329 O335 1.208 . S
C330 O322 1.315 . S
C330 O325 1.279 . S
C331 O332 1.315 . S
C331 O333 1.279 . S
O332 Cd324 2.223 . S
O332 C331 1.315 . S
O333 Cd323 2.240 . S
O333 C331 1.279 . S
O334 Cd324 2.297 . S
O334 C329 1.247 . S
O335 Cd324 2.439 . S
O335 C329 1.208 . S
O336 Cd337 2.223 . S
O336 C344 1.315 . S
Cd337 O336 2.223 . S
Cd337 O340 2.297 . S
Cd337 O341 2.439 . S
Cd337 O347 2.240 . S
Cd338 O339 2.240 . S
Cd338 O346 2.223 . S
Cd338 O348 2.297 1_554 S
Cd338 O349 2.439 . S
O339 Cd338 2.240 . S
O339 C344 1.279 . S
O340 Cd337 2.297 . S
O340 C342 1.247 . S
O341 Cd337 2.439 . S
O341 C342 1.208 . S
C342 O340 1.247 . S
C342 O341 1.208 . S
C343 O348 1.242 1_554 S
C343 O349 1.231 . S
C344 O336 1.315 . S
C344 O339 1.279 . S
C345 O346 1.315 . S
C345 O347 1.279 . S
O346 Cd338 2.223 . S
O346 C345 1.315 . S
O347 Cd337 2.240 . S
O347 C345 1.279 . S
O348 Cd338 2.297 1_556 S
O348 C343 1.242 1_556 S
O349 Cd338 2.439 . S
O349 C343 1.231 . S
O350 Cd351 2.223 . S
O350 C358 1.315 . S
Cd351 O350 2.223 . S
Cd351 O354 2.297 . S
Cd351 O355 2.439 . S
Cd351 O361 2.240 . S
Cd352 O353 2.240 . S
Cd352 O360 2.223 . S
Cd352 O362 2.297 . S
Cd352 O363 2.439 . S
O353 Cd352 2.240 . S
O353 C358 1.279 . S
O354 Cd351 2.297 . S
O354 C356 1.247 . S
O355 Cd351 2.439 . S
O355 C356 1.208 . S
C356 O354 1.247 . S
C356 O355 1.208 . S
C357 O362 1.247 . S
C357 O363 1.208 . S
C358 O350 1.315 . S
C358 O353 1.279 . S
C359 O360 1.315 . S
C359 O361 1.279 . S
O360 Cd352 2.223 . S
O360 C359 1.315 . S
O361 Cd351 2.240 . S
O361 C359 1.279 . S
O362 Cd352 2.297 . S
O362 C357 1.247 . S
O363 Cd352 2.439 . S
O363 C357 1.208 . S
O364 Cd365 2.223 . S
O364 C372 1.315 . S
Cd365 O364 2.223 . S
Cd365 O368 2.297 . S
Cd365 O369 2.439 . S
Cd365 O375 2.240 . S
Cd366 O367 2.240 . S
Cd366 O374 2.223 . S
Cd366 O376 2.297 . S
Cd366 O377 2.439 . S
O367 Cd366 2.240 . S
O367 C372 1.279 . S
O368 Cd365 2.297 . S
O368 C370 1.247 . S
O369 Cd365 2.439 . S
O369 C370 1.208 . S
C370 O368 1.247 . S
C370 O369 1.208 . S
C371 O376 1.247 . S
C371 O377 1.208 . S
C372 O364 1.315 . S
C372 O367 1.279 . S
C373 O374 1.315 . S
C373 O375 1.279 . S
O374 Cd366 2.223 . S
O374 C373 1.315 . S
O375 Cd365 2.240 . S
O375 C373 1.279 . S
O376 Cd366 2.297 . S
O376 C371 1.247 . S
O377 Cd366 2.439 . S
O377 C371 1.208 . S
O378 Cd379 2.223 . S
O378 C386 1.315 . S
Cd379 O378 2.223 . S
Cd379 O382 2.297 . S
Cd379 O383 2.439 . S
Cd379 O389 2.240 . S
Cd380 O381 2.240 . S
Cd380 O388 2.223 . S
Cd380 O390 2.297 . S
Cd380 O391 2.439 . S
O381 Cd380 2.240 . S
O381 C386 1.279 . S
O382 Cd379 2.297 . S
O382 C384 1.247 . S
O383 Cd379 2.439 . S
O383 C384 1.208 . S
C384 O382 1.247 . S
C384 O383 1.208 . S
C385 O390 1.247 . S
C385 O391 1.208 . S
C386 O378 1.315 . S
C386 O381 1.279 . S
C387 O388 1.315 . S
C387 O389 1.279 . S
O388 Cd380 2.223 . S
O388 C387 1.315 . S
O389 Cd379 2.240 . S
O389 C387 1.279 . S
O390 Cd380 2.297 . S
O390 C385 1.247 . S
O391 Cd380 2.439 . S
O391 C385 1.208 . S
O392 Cd393 2.223 . S
O392 C400 1.315 . S
Cd393 O392 2.223 . S
Cd393 O396 2.297 . S
Cd393 O397 2.439 . S
Cd393 O403 2.240 . S
Cd394 O395 2.240 . S
Cd394 O402 2.223 . S
Cd394 O404 2.297 . S
Cd394 O405 2.439 . S
O395 Cd394 2.240 . S
O395 C400 1.279 . S
O396 Cd393 2.297 . S
O396 C398 1.247 . S
O397 Cd393 2.439 . S
O397 C398 1.208 . S
C398 O396 1.247 . S
C398 O397 1.208 . S
C399 O404 1.247 . S
C399 O405 1.208 . S
C400 O392 1.315 . S
C400 O395 1.279 . S
C401 O402 1.315 . S
C401 O403 1.279 . S
O402 Cd394 2.223 . S
O402 C401 1.315 . S
O403 Cd393 2.240 . S
O403 C401 1.279 . S
O404 Cd394 2.297 . S
O404 C399 1.247 . S
O405 Cd394 2.439 . S
O405 C399 1.208 . S
O406 Cd407 2.223 . S
O406 C414 1.315 . S
Cd407 O406 2.223 . S
Cd407 O410 2.297 . S
Cd407 O411 2.439 . S
Cd407 O417 2.240 . S
Cd408 O409 2.240 . S
Cd408 O416 2.223 . S
Cd408 O418 2.297 . S
Cd408 O419 2.439 . S
O409 Cd408 2.240 . S
O409 C414 1.279 . S
O410 Cd407 2.297 . S
O410 C412 1.247 . S
O411 Cd407 2.439 . S
O411 C412 1.208 . S
C412 O410 1.247 . S
C412 O411 1.208 . S
C413 O418 1.247 . S
C413 O419 1.208 . S
C414 O406 1.315 . S
C414 O409 1.279 . S
C415 O416 1.315 . S
C415 O417 1.279 . S
O416 Cd408 2.223 . S
O416 C415 1.315 . S
O417 Cd407 2.240 . S
O417 C415 1.279 . S
O418 Cd408 2.297 . S
O418 C413 1.247 . S
O419 Cd408 2.439 . S
O419 C413 1.208 . S
O420 Cd421 2.223 . S
O420 C428 1.315 . S
Cd421 O420 2.223 . S
Cd421 O424 2.297 . S
Cd421 O425 2.439 . S
Cd421 O431 2.240 . S
Cd422 O423 2.240 . S
Cd422 O430 2.223 . S
Cd422 O432 2.297 1_556 S
Cd422 O433 2.439 . S
O423 Cd422 2.240 . S
O423 C428 1.279 . S
O424 Cd421 2.297 . S
O424 C426 1.247 . S
O425 Cd421 2.439 . S
O425 C426 1.208 . S
C426 O424 1.247 . S
C426 O425 1.208 . S
C427 O432 1.242 1_556 S
C427 O433 1.231 . S
C428 O420 1.315 . S
C428 O423 1.279 . S
C429 O430 1.315 . S
C429 O431 1.279 . S
O430 Cd422 2.223 . S
O430 C429 1.315 . S
O431 Cd421 2.240 . S
O431 C429 1.279 . S
O432 Cd422 2.297 1_554 S
O432 C427 1.242 1_554 S
O433 Cd422 2.439 . S
O433 C427 1.231 . S
O434 Cd435 2.223 . S
O434 C442 1.315 . S
Cd435 O434 2.223 . S
Cd435 O438 2.297 . S
Cd435 O439 2.439 . S
Cd435 O445 2.240 . S
Cd436 O437 2.240 . S
Cd436 O444 2.223 . S
Cd436 O446 2.297 . S
Cd436 O447 2.439 . S
O437 Cd436 2.240 . S
O437 C442 1.279 . S
O438 Cd435 2.297 . S
O438 C440 1.247 . S
O439 Cd435 2.439 . S
O439 C440 1.208 . S
C440 O438 1.247 . S
C440 O439 1.208 . S
C441 O446 1.247 . S
C441 O447 1.208 . S
C442 O434 1.315 . S
C442 O437 1.279 . S
C443 O444 1.315 . S
C443 O445 1.279 . S
O444 Cd436 2.223 . S
O444 C443 1.315 . S
O445 Cd435 2.240 . S
O445 C443 1.279 . S
O446 Cd436 2.297 . S
O446 C441 1.247 . S
O447 Cd436 2.439 . S
O447 C441 1.208 . S
H448 C460 0.930 . S
H449 C462 0.930 . S
H450 C463 0.930 . S
H451 C467 0.959 . S
H452 C467 0.959 . S
H453 C467 0.961 . S
H454 C468 0.960 . S
H455 C468 0.961 . S
H456 C468 0.959 . S
H457 C471 0.938 . S
H458 C472 0.931 . S
H459 C474 0.930 . S
C460 H448 0.930 . S
C460 C461 1.399 . S
C460 C465 1.399 . S
C461 C460 1.399 . S
C461 C462 1.376 . S
C462 H449 0.930 . S
C462 C461 1.376 . S
C462 C463 1.388 . S
C463 H450 0.930 . S
C463 C462 1.388 . S
C463 C464 1.390 . S
C464 C463 1.390 . S
C464 C465 1.394 . S
C464 C470 1.465 1_545 S
C465 C460 1.399 . S
C465 C464 1.394 . S
C465 C466 1.516 1_545 S
C466 C465 1.516 1_565 S
C466 C467 1.502 . S
C466 C468 1.561 . S
C466 C469 1.526 . S
C467 H451 0.959 . S
C467 H452 0.959 . S
C467 H453 0.961 . S
C467 C466 1.502 . S
C468 H454 0.960 . S
C468 H455 0.961 . S
C468 H456 0.959 . S
C468 C466 1.561 . S
C469 C466 1.526 . S
C469 C470 1.396 . S
C469 C474 1.390 . S
C470 C464 1.465 1_565 S
C470 C469 1.396 . S
C470 C471 1.398 1_565 S
C471 H457 0.938 . S
C471 C470 1.398 1_545 S
C471 C472 1.377 1_545 S
C472 H458 0.931 . S
C472 C471 1.377 1_565 S
C472 C473 1.389 . S
C473 C472 1.389 . S
C473 C474 1.387 . S
C474 H459 0.930 . S
C474 C469 1.390 . S
C474 C473 1.387 . S
H475 C487 0.930 . S
H476 C489 0.930 . S
H477 C490 0.930 . S
H478 C494 0.959 . S
H479 C494 0.959 . S
H480 C494 0.961 . S
H481 C495 0.960 . S
H482 C495 0.961 . S
H483 C495 0.959 . S
H484 C498 0.929 . S
H485 C499 0.931 . S
H486 C501 0.930 . S
C487 H475 0.930 . S
C487 C488 1.399 . S
C487 C492 1.399 . S
C488 C487 1.399 . S
C488 C489 1.376 . S
C489 H476 0.930 . S
C489 C488 1.376 . S
C489 C490 1.388 . S
C490 H477 0.930 . S
C490 C489 1.388 . S
C490 C491 1.390 . S
C491 C490 1.390 . S
C491 C492 1.394 . S
C491 C497 1.465 . S
C492 C487 1.399 . S
C492 C491 1.394 . S
C492 C493 1.516 . S
C493 C492 1.516 . S
C493 C494 1.502 . S
C493 C495 1.561 . S
C493 C496 1.526 . S
C494 H478 0.959 . S
C494 H479 0.959 . S
C494 H480 0.961 . S
C494 C493 1.502 . S
C495 H481 0.960 . S
C495 H482 0.961 . S
C495 H483 0.959 . S
C495 C493 1.561 . S
C496 C493 1.526 . S
C496 C497 1.396 . S
C496 C501 1.390 . S
C497 C491 1.465 . S
C497 C496 1.396 . S
C497 C498 1.399 . S
C498 H484 0.929 . S
C498 C497 1.399 . S
C498 C499 1.385 . S
C499 H485 0.931 . S
C499 C498 1.385 . S
C499 C500 1.389 . S
C500 C499 1.389 . S
C500 C501 1.387 . S
C501 H486 0.930 . S
C501 C496 1.390 . S
C501 C500 1.387 . S
H502 C514 0.930 . S
H503 C516 0.930 . S
H504 C517 0.930 1_565 S
H505 C521 0.959 . S
H506 C521 0.959 . S
H507 C521 0.961 . S
H508 C522 0.960 . S
H509 C522 0.961 . S
H510 C522 0.959 . S
H511 C525 0.929 . S
H512 C526 0.931 . S
H513 C528 0.930 . S
C514 H502 0.930 . S
C514 C515 1.399 . S
C514 C519 1.399 . S
C515 C514 1.399 . S
C515 C516 1.376 . S
C516 H503 0.930 . S
C516 C515 1.376 . S
C516 C517 1.388 . S
C517 H504 0.930 1_545 S
C517 C516 1.388 . S
C517 C518 1.390 . S
C518 C517 1.390 . S
C518 C519 1.394 . S
C518 C524 1.465 1_545 S
C519 C514 1.399 . S
C519 C518 1.394 . S
C519 C520 1.516 . S
C520 C519 1.516 . S
C520 C521 1.502 . S
C520 C522 1.561 . S
C520 C523 1.526 1_545 S
C521 H505 0.959 . S
C521 H506 0.959 . S
C521 H507 0.961 . S
C521 C520 1.502 . S
C522 H508 0.960 . S
C522 H509 0.961 . S
C522 H510 0.959 . S
C522 C520 1.561 . S
C523 C520 1.526 1_565 S
C523 C524 1.396 . S
C523 C528 1.390 . S
C524 C518 1.465 1_565 S
C524 C523 1.396 . S
C524 C525 1.399 . S
C525 H511 0.929 . S
C525 C524 1.399 . S
C525 C526 1.385 . S
C526 H512 0.931 . S
C526 C525 1.385 . S
C526 C527 1.389 . S
C527 C526 1.389 . S
C527 C528 1.387 . S
C528 H513 0.930 . S
C528 C523 1.390 . S
C528 C527 1.387 . S
H529 C541 0.930 . S
H530 C543 0.930 . S
H531 C544 0.930 . S
H532 C548 0.959 . S
H533 C548 0.959 . S
H534 C548 0.961 . S
H535 C549 0.960 . S
H536 C549 0.946 1_554 S
H537 C549 0.959 . S
H538 C552 0.929 . S
H539 C553 0.931 . S
H540 C555 0.930 . S
C541 H529 0.930 . S
C541 C542 1.399 . S
C541 C546 1.399 . S
C542 C541 1.399 . S
C542 C543 1.376 . S
C543 H530 0.930 . S
C543 C542 1.376 . S
C543 C544 1.388 . S
C544 H531 0.930 . S
C544 C543 1.388 . S
C544 C545 1.390 . S
C545 C544 1.390 . S
C545 C546 1.394 . S
C545 C551 1.465 1_556 S
C546 C541 1.399 . S
C546 C545 1.394 . S
C546 C547 1.516 1_556 S
C547 C546 1.516 1_554 S
C547 C548 1.502 . S
C547 C549 1.561 1_554 S
C547 C550 1.526 . S
C548 H532 0.959 . S
C548 H533 0.959 . S
C548 H534 0.961 . S
C548 C547 1.502 . S
C549 H535 0.960 . S
C549 H536 0.946 1_556 S
C549 H537 0.959 . S
C549 C547 1.561 1_556 S
C550 C547 1.526 . S
C550 C551 1.396 . S
C550 C555 1.390 . S
C551 C545 1.465 1_554 S
C551 C550 1.396 . S
C551 C552 1.399 . S
C552 H538 0.929 . S
C552 C551 1.399 . S
C552 C553 1.385 . S
C553 H539 0.931 . S
C553 C552 1.385 . S
C553 C554 1.389 . S
C554 C553 1.389 . S
C554 C555 1.387 . S
C555 H540 0.930 . S
C555 C550 1.390 . S
C555 C554 1.387 . S
H556 C568 0.930 . S
H557 C570 0.930 . S
H558 C571 0.922 1_545 S
H559 C575 0.959 . S
H560 C575 0.959 . S
H561 C575 0.961 . S
H562 C576 0.960 . S
H563 C576 0.961 . S
H564 C576 0.959 . S
H565 C579 0.929 . S
H566 C580 0.931 . S
H567 C582 0.930 . S
C568 H556 0.930 . S
C568 C569 1.399 . S
C568 C573 1.399 . S
C569 C568 1.399 . S
C569 C570 1.376 . S
C570 H557 0.930 . S
C570 C569 1.376 . S
C570 C571 1.396 . S
C571 H558 0.922 1_565 S
C571 C570 1.396 . S
C571 C572 1.390 . S
C572 C571 1.390 . S
C572 C573 1.394 . S
C572 C578 1.465 1_565 S
C573 C568 1.399 . S
C573 C572 1.394 . S
C573 C574 1.516 . S
C574 C573 1.516 . S
C574 C575 1.502 . S
C574 C576 1.561 . S
C574 C577 1.526 1_565 S
C575 H559 0.959 . S
C575 H560 0.959 . S
C575 H561 0.961 . S
C575 C574 1.502 . S
C576 H562 0.960 . S
C576 H563 0.961 . S
C576 H564 0.959 . S
C576 C574 1.561 . S
C577 C574 1.526 1_545 S
C577 C578 1.396 . S
C577 C582 1.390 . S
C578 C572 1.465 1_545 S
C578 C577 1.396 . S
C578 C579 1.399 . S
C579 H565 0.929 . S
C579 C578 1.399 . S
C579 C580 1.385 . S
C580 H566 0.931 . S
C580 C579 1.385 . S
C580 C581 1.389 . S
C581 C580 1.389 . S
C581 C582 1.387 . S
C582 H567 0.930 . S
C582 C577 1.390 . S
C582 C581 1.387 . S
H583 C595 0.930 . S
H584 C597 0.930 . S
H585 C598 0.930 . S
H586 C602 0.959 . S
H587 C602 0.959 . S
H588 C602 0.961 . S
H589 C603 0.960 . S
H590 C603 0.961 . S
H591 C603 0.959 . S
H592 C606 0.929 . S
H593 C607 0.931 . S
H594 C609 0.930 . S
C595 H583 0.930 . S
C595 C596 1.399 . S
C595 C600 1.399 . S
C596 C595 1.399 . S
C596 C597 1.376 . S
C597 H584 0.930 . S
C597 C596 1.376 . S
C597 C598 1.388 . S
C598 H585 0.930 . S
C598 C597 1.388 . S
C598 C599 1.390 . S
C599 C598 1.390 . S
C599 C600 1.394 . S
C599 C605 1.465 . S
C600 C595 1.399 . S
C600 C599 1.394 . S
C600 C601 1.516 . S
C601 C600 1.516 . S
C601 C602 1.502 . S
C601 C603 1.561 . S
C601 C604 1.526 . S
C602 H586 0.959 . S
C602 H587 0.959 . S
C602 H588 0.961 . S
C602 C601 1.502 . S
C603 H589 0.960 . S
C603 H590 0.961 . S
C603 H591 0.959 . S
C603 C601 1.561 . S
C604 C601 1.526 . S
C604 C605 1.396 . S
C604 C609 1.390 . S
C605 C599 1.465 . S
C605 C604 1.396 . S
C605 C606 1.399 . S
C606 H592 0.929 . S
C606 C605 1.399 . S
C606 C607 1.385 . S
C607 H593 0.931 . S
C607 C606 1.385 . S
C607 C608 1.389 . S
C608 C607 1.389 . S
C608 C609 1.387 . S
C609 H594 0.930 . S
C609 C604 1.390 . S
C609 C608 1.387 . S
H610 C622 0.930 . S
H611 C624 0.930 . S
H612 C625 0.930 . S
H613 C629 0.992 . S
H614 C629 0.973 . S
H615 C629 0.932 1_565 S
H616 C630 0.960 . S
H617 C630 0.961 . S
H618 C630 0.959 . S
H619 C633 0.929 . S
H620 C634 0.931 . S
H621 C636 0.930 . S
C622 H610 0.930 . S
C622 C623 1.399 . S
C622 C627 1.399 . S
C623 C622 1.399 . S
C623 C624 1.376 . S
C624 H611 0.930 . S
C624 C623 1.376 . S
C624 C625 1.388 . S
C625 H612 0.930 . S
C625 C624 1.388 . S
C625 C626 1.390 . S
C626 C625 1.390 . S
C626 C627 1.394 . S
C626 C632 1.465 1_565 S
C627 C622 1.399 . S
C627 C626 1.394 . S
C627 C628 1.516 . S
C628 C627 1.516 . S
C628 C629 1.488 1_565 S
C628 C630 1.561 . S
C628 C631 1.526 1_565 S
C629 H613 0.992 . S
C629 H614 0.973 . S
C629 H615 0.932 1_545 S
C629 C628 1.488 1_545 S
C630 H616 0.960 . S
C630 H617 0.961 . S
C630 H618 0.959 . S
C630 C628 1.561 . S
C631 C628 1.526 1_545 S
C631 C632 1.396 . S
C631 C636 1.390 . S
C632 C626 1.465 1_545 S
C632 C631 1.396 . S
C632 C633 1.399 . S
C633 H619 0.929 . S
C633 C632 1.399 . S
C633 C634 1.385 . S
C634 H620 0.931 . S
C634 C633 1.385 . S
C634 C635 1.389 . S
C635 C634 1.389 . S
C635 C636 1.387 . S
C636 H621 0.930 . S
C636 C631 1.390 . S
C636 C635 1.387 . S
H637 C649 0.930 . S
H638 C651 0.930 . S
H639 C652 0.930 . S
H640 C656 0.959 . S
H641 C656 0.959 . S
H642 C656 0.961 . S
H643 C657 0.960 1_556 S
H644 C657 0.961 . S
H645 C657 0.959 . S
H646 C660 0.929 . S
H647 C661 0.931 . S
H648 C663 0.930 . S
C649 H637 0.930 . S
C649 C650 1.399 . S
C649 C654 1.399 . S
C650 C649 1.399 . S
C650 C651 1.376 . S
C651 H638 0.930 . S
C651 C650 1.376 . S
C651 C652 1.388 . S
C652 H639 0.930 . S
C652 C651 1.388 . S
C652 C653 1.390 . S
C653 C652 1.390 . S
C653 C654 1.394 . S
C653 C659 1.465 1_556 S
C654 C649 1.399 . S
C654 C653 1.394 . S
C654 C655 1.516 . S
C655 C654 1.516 . S
C655 C656 1.502 . S
C655 C657 1.561 1_556 S
C655 C658 1.526 1_556 S
C656 H640 0.959 . S
C656 H641 0.959 . S
C656 H642 0.961 . S
C656 C655 1.502 . S
C657 H643 0.960 1_554 S
C657 H644 0.961 . S
C657 H645 0.959 . S
C657 C655 1.561 1_554 S
C658 C655 1.526 1_554 S
C658 C659 1.396 . S
C658 C663 1.390 . S
C659 C653 1.465 1_554 S
C659 C658 1.396 . S
C659 C660 1.399 . S
C660 H646 0.929 . S
C660 C659 1.399 . S
C660 C661 1.385 . S
C661 H647 0.931 . S
C661 C660 1.385 . S
C661 C662 1.389 . S
C662 C661 1.389 . S
C662 C663 1.387 . S
C663 H648 0.930 . S
C663 C658 1.390 . S
C663 C662 1.387 . S
H664 C676 0.930 . S
H665 C678 0.930 . S
H666 C679 0.930 . S
H667 C683 0.959 . S
H668 C683 0.959 . S
H669 C683 0.961 . S
H670 C684 0.960 . S
H671 C684 0.961 . S
H672 C684 0.959 . S
H673 C687 0.929 . S
H674 C688 0.931 . S
H675 C690 0.930 . S
C676 H664 0.930 . S
C676 C677 1.399 . S
C676 C681 1.399 . S
C677 C676 1.399 . S
C677 C678 1.376 . S
C678 H665 0.930 . S
C678 C677 1.376 . S
C678 C679 1.388 . S
C679 H666 0.930 . S
C679 C678 1.388 . S
C679 C680 1.390 . S
C680 C679 1.390 . S
C680 C681 1.394 . S
C680 C686 1.465 . S
C681 C676 1.399 . S
C681 C680 1.394 . S
C681 C682 1.516 . S
C682 C681 1.516 . S
C682 C683 1.502 . S
C682 C684 1.561 . S
C682 C685 1.526 . S
C683 H667 0.959 . S
C683 H668 0.959 . S
C683 H669 0.961 . S
C683 C682 1.502 . S
C684 H670 0.960 . S
C684 H671 0.961 . S
C684 H672 0.959 . S
C684 C682 1.561 . S
C685 C682 1.526 . S
C685 C686 1.396 . S
C685 C690 1.390 . S
C686 C680 1.465 . S
C686 C685 1.396 . S
C686 C687 1.399 . S
C687 H673 0.929 . S
C687 C686 1.399 . S
C687 C688 1.385 . S
C688 H674 0.931 . S
C688 C687 1.385 . S
C688 C689 1.389 . S
C689 C688 1.389 . S
C689 C690 1.387 . S
C690 H675 0.930 . S
C690 C685 1.390 . S
C690 C689 1.387 . S
H691 C703 0.930 . S
H692 C705 0.930 . S
H693 C706 0.930 . S
H694 C710 0.959 . S
H695 C710 0.959 . S
H696 C710 0.961 . S
H697 C711 0.960 . S
H698 C711 0.961 1_554 S
H699 C711 0.959 . S
H700 C714 0.929 . S
H701 C715 0.931 . S
H702 C717 0.930 . S
C703 H691 0.930 . S
C703 C704 1.399 . S
C703 C708 1.399 . S
C704 C703 1.399 . S
C704 C705 1.376 . S
C705 H692 0.930 . S
C705 C704 1.376 . S
C705 C706 1.388 . S
C706 H693 0.930 . S
C706 C705 1.388 . S
C706 C707 1.390 . S
C707 C706 1.390 . S
C707 C708 1.394 . S
C707 C713 1.465 1_556 S
C708 C703 1.399 . S
C708 C707 1.394 . S
C708 C709 1.516 1_556 S
C709 C708 1.516 1_554 S
C709 C710 1.502 . S
C709 C711 1.561 1_554 S
C709 C712 1.526 . S
C710 H694 0.959 . S
C710 H695 0.959 . S
C710 H696 0.961 . S
C710 C709 1.502 . S
C711 H697 0.960 . S
C711 H698 0.961 1_556 S
C711 H699 0.959 . S
C711 C709 1.561 1_556 S
C712 C709 1.526 . S
C712 C713 1.396 . S
C712 C717 1.390 . S
C713 C707 1.465 1_554 S
C713 C712 1.396 . S
C713 C714 1.399 . S
C714 H700 0.929 . S
C714 C713 1.399 . S
C714 C715 1.385 . S
C715 H701 0.931 . S
C715 C714 1.385 . S
C715 C716 1.389 . S
C716 C715 1.389 . S
C716 C717 1.387 . S
C717 H702 0.930 . S
C717 C712 1.390 . S
C717 C716 1.387 . S
H718 C730 0.930 . S
H719 C732 0.930 . S
H720 C733 0.930 . S
H721 C737 0.959 . S
H722 C737 0.959 . S
H723 C737 0.961 . S
H724 C738 0.960 . S
H725 C738 0.961 . S
H726 C738 0.959 . S
H727 C741 0.929 . S
H728 C742 0.931 . S
H729 C744 0.930 . S
C730 H718 0.930 . S
C730 C731 1.399 . S
C730 C735 1.399 . S
C731 C730 1.399 . S
C731 C732 1.376 . S
C732 H719 0.930 . S
C732 C731 1.376 . S
C732 C733 1.388 . S
C733 H720 0.930 . S
C733 C732 1.388 . S
C733 C734 1.390 . S
C734 C733 1.390 . S
C734 C735 1.394 . S
C734 C740 1.465 . S
C735 C730 1.399 . S
C735 C734 1.394 . S
C735 C736 1.516 . S
C736 C735 1.516 . S
C736 C737 1.502 . S
C736 C738 1.561 . S
C736 C739 1.526 . S
C737 H721 0.959 . S
C737 H722 0.959 . S
C737 H723 0.961 . S
C737 C736 1.502 . S
C738 H724 0.960 . S
C738 H725 0.961 . S
C738 H726 0.959 . S
C738 C736 1.561 . S
C739 C736 1.526 . S
C739 C740 1.396 . S
C739 C744 1.390 . S
C740 C734 1.465 . S
C740 C739 1.396 . S
C740 C741 1.399 . S
C741 H727 0.929 . S
C741 C740 1.399 . S
C741 C742 1.385 . S
C742 H728 0.931 . S
C742 C741 1.385 . S
C742 C743 1.389 . S
C743 C742 1.389 . S
C743 C744 1.387 . S
C744 H729 0.930 . S
C744 C739 1.390 . S
C744 C743 1.387 . S
H745 C757 0.930 . S
H746 C759 0.930 . S
H747 C760 0.930 . S
H748 C764 0.959 . S
H749 C764 0.959 . S
H750 C764 0.961 . S
H751 C765 0.960 . S
H752 C765 0.961 . S
H753 C765 0.959 . S
H754 C768 0.929 . S
H755 C769 0.931 . S
H756 C771 0.930 . S
C757 H745 0.930 . S
C757 C758 1.399 . S
C757 C762 1.399 . S
C758 C757 1.399 . S
C758 C759 1.376 . S
C759 H746 0.930 . S
C759 C758 1.376 . S
C759 C760 1.388 . S
C760 H747 0.930 . S
C760 C759 1.388 . S
C760 C761 1.390 . S
C761 C760 1.390 . S
C761 C762 1.394 . S
C761 C767 1.465 . S
C762 C757 1.399 . S
C762 C761 1.394 . S
C762 C763 1.516 . S
C763 C762 1.516 . S
C763 C764 1.502 . S
C763 C765 1.561 . S
C763 C766 1.526 . S
C764 H748 0.959 . S
C764 H749 0.959 . S
C764 H750 0.961 . S
C764 C763 1.502 . S
C765 H751 0.960 . S
C765 H752 0.961 . S
C765 H753 0.959 . S
C765 C763 1.561 . S
C766 C763 1.526 . S
C766 C767 1.396 . S
C766 C771 1.390 . S
C767 C761 1.465 . S
C767 C766 1.396 . S
C767 C768 1.399 . S
C768 H754 0.929 . S
C768 C767 1.399 . S
C768 C769 1.385 . S
C769 H755 0.931 . S
C769 C768 1.385 . S
C769 C770 1.389 . S
C770 C769 1.389 . S
C770 C771 1.387 . S
C771 H756 0.930 . S
C771 C766 1.390 . S
C771 C770 1.387 . S
H772 C784 0.930 . S
H773 C786 0.930 . S
H774 C787 0.930 . S
H775 C791 0.959 . S
H776 C791 0.959 . S
H777 C791 0.961 . S
H778 C792 0.960 . S
H779 C792 0.961 . S
H780 C792 0.959 . S
H781 C795 0.929 . S
H782 C796 0.931 . S
H783 C798 0.930 . S
C784 H772 0.930 . S
C784 C785 1.399 . S
C784 C789 1.399 . S
C785 C784 1.399 . S
C785 C786 1.376 . S
C786 H773 0.930 . S
C786 C785 1.376 . S
C786 C787 1.388 . S
C787 H774 0.930 . S
C787 C786 1.388 . S
C787 C788 1.390 . S
C788 C787 1.390 . S
C788 C789 1.394 . S
C788 C794 1.465 . S
C789 C784 1.399 . S
C789 C788 1.394 . S
C789 C790 1.516 . S
C790 C789 1.516 . S
C790 C791 1.502 . S
C790 C792 1.561 . S
C790 C793 1.526 . S
C791 H775 0.959 . S
C791 H776 0.959 . S
C791 H777 0.961 . S
C791 C790 1.502 . S
C792 H778 0.960 . S
C792 H779 0.961 . S
C792 H780 0.959 . S
C792 C790 1.561 . S
C793 C790 1.526 . S
C793 C794 1.396 . S
C793 C798 1.390 . S
C794 C788 1.465 . S
C794 C793 1.396 . S
C794 C795 1.399 . S
C795 H781 0.929 . S
C795 C794 1.399 . S
C795 C796 1.385 . S
C796 H782 0.931 . S
C796 C795 1.385 . S
C796 C797 1.389 . S
C797 C796 1.389 . S
C797 C798 1.387 . S
C798 H783 0.930 . S
C798 C793 1.390 . S
C798 C797 1.387 . S
H799 C811 0.930 . S
H800 C813 0.930 . S
H801 C814 0.930 . S
H802 C818 0.959 . S
H803 C818 0.959 . S
H804 C818 0.961 . S
H805 C819 0.960 . S
H806 C819 0.961 . S
H807 C819 0.959 . S
H808 C822 0.929 1_554 S
H809 C823 0.931 . S
H810 C825 0.930 . S
C811 H799 0.930 . S
C811 C812 1.399 . S
C811 C816 1.399 . S
C812 C811 1.399 . S
C812 C813 1.376 . S
C813 H800 0.930 . S
C813 C812 1.376 . S
C813 C814 1.388 . S
C814 H801 0.930 . S
C814 C813 1.388 . S
C814 C815 1.390 . S
C815 C814 1.390 . S
C815 C816 1.394 . S
C815 C821 1.465 1_554 S
C816 C811 1.399 . S
C816 C815 1.394 . S
C816 C817 1.516 1_554 S
C817 C816 1.516 1_556 S
C817 C818 1.502 . S
C817 C819 1.561 . S
C817 C820 1.526 . S
C818 H802 0.959 . S
C818 H803 0.959 . S
C818 H804 0.961 . S
C818 C817 1.502 . S
C819 H805 0.960 . S
C819 H806 0.961 . S
C819 H807 0.959 . S
C819 C817 1.561 . S
C820 C817 1.526 . S
C820 C821 1.396 . S
C820 C825 1.390 . S
C821 C815 1.465 1_556 S
C821 C820 1.396 . S
C821 C822 1.399 . S
C822 H808 0.929 1_556 S
C822 C821 1.399 . S
C822 C823 1.385 . S
C823 H809 0.931 . S
C823 C822 1.385 . S
C823 C824 1.389 . S
C824 C823 1.389 . S
C824 C825 1.387 . S
C825 H810 0.930 . S
C825 C820 1.390 . S
C825 C824 1.387 . S
H826 C838 0.930 . S
H827 C840 0.930 . S
H828 C841 0.930 . S
H829 C845 0.959 . S
H830 C845 0.959 . S
H831 C845 0.961 . S
H832 C846 0.960 . S
H833 C846 0.961 . S
H834 C846 0.959 . S
H835 C849 0.929 . S
H836 C850 0.931 . S
H837 C852 0.930 . S
C838 H826 0.930 . S
C838 C839 1.399 . S
C838 C843 1.399 . S
C839 C838 1.399 . S
C839 C840 1.376 . S
C840 H827 0.930 . S
C840 C839 1.376 . S
C840 C841 1.388 . S
C841 H828 0.930 . S
C841 C840 1.388 . S
C841 C842 1.390 . S
C842 C841 1.390 . S
C842 C843 1.394 . S
C842 C848 1.465 . S
C843 C838 1.399 . S
C843 C842 1.394 . S
C843 C844 1.516 . S
C844 C843 1.516 . S
C844 C845 1.502 . S
C844 C846 1.561 . S
C844 C847 1.526 . S
C845 H829 0.959 . S
C845 H830 0.959 . S
C845 H831 0.961 . S
C845 C844 1.502 . S
C846 H832 0.960 . S
C846 H833 0.961 . S
C846 H834 0.959 . S
C846 C844 1.561 . S
C847 C844 1.526 . S
C847 C848 1.396 . S
C847 C852 1.390 . S
C848 C842 1.465 . S
C848 C847 1.396 . S
C848 C849 1.399 . S
C849 H835 0.929 . S
C849 C848 1.399 . S
C849 C850 1.385 . S
C850 H836 0.931 . S
C850 C849 1.385 . S
C850 C851 1.389 . S
C851 C850 1.389 . S
C851 C852 1.387 . S
C852 H837 0.930 . S
C852 C847 1.390 . S
C852 C851 1.387 . S
H853 C865 0.930 . S
H854 C867 0.930 . S
H855 C868 0.930 . S
H856 C872 0.959 . S
H857 C872 0.959 . S
H858 C872 0.961 . S
H859 C873 0.960 . S
H860 C873 0.961 . S
H861 C873 0.959 . S
H862 C876 0.929 . S
H863 C877 0.931 . S
H864 C879 0.930 . S
C865 H853 0.930 . S
C865 C866 1.399 . S
C865 C870 1.399 . S
C866 C865 1.399 . S
C866 C867 1.376 . S
C867 H854 0.930 . S
C867 C866 1.376 . S
C867 C868 1.388 . S
C868 H855 0.930 . S
C868 C867 1.388 . S
C868 C869 1.390 . S
C869 C868 1.390 . S
C869 C870 1.394 . S
C869 C875 1.465 . S
C870 C865 1.399 . S
C870 C869 1.394 . S
C870 C871 1.516 . S
C871 C870 1.516 . S
C871 C872 1.502 . S
C871 C873 1.561 . S
C871 C874 1.526 . S
C872 H856 0.959 . S
C872 H857 0.959 . S
C872 H858 0.961 . S
C872 C871 1.502 . S
C873 H859 0.960 . S
C873 H860 0.961 . S
C873 H861 0.959 . S
C873 C871 1.561 . S
C874 C871 1.526 . S
C874 C875 1.396 . S
C874 C879 1.390 . S
C875 C869 1.465 . S
C875 C874 1.396 . S
C875 C876 1.399 . S
C876 H862 0.929 . S
C876 C875 1.399 . S
C876 C877 1.385 . S
C877 H863 0.931 . S
C877 C876 1.385 . S
C877 C878 1.389 . S
C878 C877 1.389 . S
C878 C879 1.387 . S
C879 H864 0.930 . S
C879 C874 1.390 . S
C879 C878 1.387 . S
H880 C892 0.930 . S
H881 C894 0.930 . S
H882 C895 0.930 . S
H883 C899 0.959 . S
H884 C899 0.959 . S
H885 C899 0.961 . S
H886 C900 0.960 . S
H887 C900 0.961 . S
H888 C900 0.959 . S
H889 C903 0.929 . S
H890 C904 0.931 . S
H891 C906 0.930 . S
C892 H880 0.930 . S
C892 C893 1.399 . S
C892 C897 1.399 . S
C893 C892 1.399 . S
C893 C894 1.376 . S
C894 H881 0.930 . S
C894 C893 1.376 . S
C894 C895 1.388 . S
C895 H882 0.930 . S
C895 C894 1.388 . S
C895 C896 1.390 . S
C896 C895 1.390 . S
C896 C897 1.394 . S
C896 C902 1.465 . S
C897 C892 1.399 . S
C897 C896 1.394 . S
C897 C898 1.516 . S
C898 C897 1.516 . S
C898 C899 1.502 . S
C898 C900 1.561 . S
C898 C901 1.526 . S
C899 H883 0.959 . S
C899 H884 0.959 . S
C899 H885 0.961 . S
C899 C898 1.502 . S
C900 H886 0.960 . S
C900 H887 0.961 . S
C900 H888 0.959 . S
C900 C898 1.561 . S
C901 C898 1.526 . S
C901 C902 1.396 . S
C901 C906 1.390 . S
C902 C896 1.465 . S
C902 C901 1.396 . S
C902 C903 1.399 . S
C903 H889 0.929 . S
C903 C902 1.399 . S
C903 C904 1.385 . S
C904 H890 0.931 . S
C904 C903 1.385 . S
C904 C905 1.389 . S
C905 C904 1.389 . S
C905 C906 1.387 . S
C906 H891 0.930 . S
C906 C901 1.390 . S
C906 C905 1.387 . S
H907 C919 0.930 . S
H908 C921 0.930 . S
H909 C922 0.930 . S
H910 C926 0.959 . S
H911 C926 0.959 . S
H912 C926 0.961 . S
H913 C927 0.926 1_655 S
H914 C927 0.961 . S
H915 C927 0.959 . S
H916 C930 0.929 . S
H917 C931 0.931 . S
H918 C933 0.930 . S
C919 H907 0.930 . S
C919 C920 1.399 . S
C919 C924 1.399 . S
C920 C919 1.399 . S
C920 C921 1.376 . S
C921 H908 0.930 . S
C921 C920 1.376 . S
C921 C922 1.388 . S
C922 H909 0.930 . S
C922 C921 1.388 . S
C922 C923 1.390 1_655 S
C923 C922 1.390 1_455 S
C923 C924 1.394 1_455 S
C923 C929 1.465 . S
C924 C919 1.399 . S
C924 C923 1.394 1_655 S
C924 C925 1.516 1_655 S
C925 C924 1.516 1_455 S
C925 C926 1.502 . S
C925 C927 1.561 . S
C925 C928 1.526 . S
C926 H910 0.959 . S
C926 H911 0.959 . S
C926 H912 0.961 . S
C926 C925 1.502 . S
C927 H913 0.926 1_455 S
C927 H914 0.961 . S
C927 H915 0.959 . S
C927 C925 1.561 . S
C928 C925 1.526 . S
C928 C929 1.396 . S
C928 C933 1.390 . S
C929 C923 1.465 . S
C929 C928 1.396 . S
C929 C930 1.399 . S
C930 H916 0.929 . S
C930 C929 1.399 . S
C930 C931 1.385 . S
C931 H917 0.931 . S
C931 C930 1.385 . S
C931 C932 1.389 . S
C932 C931 1.389 . S
C932 C933 1.387 . S
C933 H918 0.930 . S
C933 C928 1.390 . S
C933 C932 1.387 . S
H934 C946 0.930 . S
H935 C948 0.930 . S
H936 C949 0.930 . S
H937 C953 0.959 . S
H938 C953 0.959 . S
H939 C953 0.961 . S
H940 C954 0.960 . S
H941 C954 0.961 . S
H942 C954 0.959 . S
H943 C957 0.929 . S
H944 C958 0.931 . S
H945 C960 0.930 . S
C946 H934 0.930 . S
C946 C947 1.399 . S
C946 C951 1.399 . S
C947 C946 1.399 . S
C947 C948 1.376 . S
C948 H935 0.930 . S
C948 C947 1.376 . S
C948 C949 1.388 . S
C949 H936 0.930 . S
C949 C948 1.388 . S
C949 C950 1.390 . S
C950 C949 1.390 . S
C950 C951 1.394 . S
C950 C956 1.465 . S
C951 C946 1.399 . S
C951 C950 1.394 . S
C951 C952 1.516 . S
C952 C951 1.516 . S
C952 C953 1.502 . S
C952 C954 1.561 . S
C952 C955 1.526 . S
C953 H937 0.959 . S
C953 H938 0.959 . S
C953 H939 0.961 . S
C953 C952 1.502 . S
C954 H940 0.960 . S
C954 H941 0.961 . S
C954 H942 0.959 . S
C954 C952 1.561 . S
C955 C952 1.526 . S
C955 C956 1.396 . S
C955 C960 1.390 . S
C956 C950 1.465 . S
C956 C955 1.396 . S
C956 C957 1.399 . S
C957 H943 0.929 . S
C957 C956 1.399 . S
C957 C958 1.385 . S
C958 H944 0.931 . S
C958 C957 1.385 . S
C958 C959 1.389 . S
C959 C958 1.389 . S
C959 C960 1.387 . S
C960 H945 0.930 . S
C960 C955 1.390 . S
C960 C959 1.387 . S
H961 C973 0.930 . S
H962 C975 0.930 . S
H963 C976 0.930 . S
H964 C980 0.959 . S
H965 C980 0.959 . S
H966 C980 0.961 . S
H967 C981 0.960 . S
H968 C981 0.961 . S
H969 C981 0.959 . S
H970 C984 0.929 . S
H971 C985 0.931 . S
H972 C987 0.930 . S
C973 H961 0.930 . S
C973 C974 1.399 . S
C973 C978 1.399 . S
C974 C973 1.399 . S
C974 C975 1.376 . S
C975 H962 0.930 . S
C975 C974 1.376 . S
C975 C976 1.388 . S
C976 H963 0.930 . S
C976 C975 1.388 . S
C976 C977 1.390 . S
C977 C976 1.390 . S
C977 C978 1.394 . S
C977 C983 1.465 . S
C978 C973 1.399 . S
C978 C977 1.394 . S
C978 C979 1.516 . S
C979 C978 1.516 . S
C979 C980 1.502 . S
C979 C981 1.561 . S
C979 C982 1.526 . S
C980 H964 0.959 . S
C980 H965 0.959 . S
C980 H966 0.961 . S
C980 C979 1.502 . S
C981 H967 0.960 . S
C981 H968 0.961 . S
C981 H969 0.959 . S
C981 C979 1.561 . S
C982 C979 1.526 . S
C982 C983 1.396 . S
C982 C987 1.390 . S
C983 C977 1.465 . S
C983 C982 1.396 . S
C983 C984 1.399 . S
C984 H970 0.929 . S
C984 C983 1.399 . S
C984 C985 1.385 . S
C985 H971 0.931 . S
C985 C984 1.385 . S
C985 C986 1.389 . S
C986 C985 1.389 . S
C986 C987 1.387 . S
C987 H972 0.930 . S
C987 C982 1.390 . S
C987 C986 1.387 . S
H988 C1000 0.930 . S
H989 C1002 0.930 . S
H990 C1003 0.930 . S
H991 C1007 0.959 . S
H992 C1007 0.959 . S
H993 C1007 0.961 . S
H994 C1008 0.960 . S
H995 C1008 0.961 . S
H996 C1008 0.959 . S
H997 C1011 0.929 . S
H998 C1012 0.931 . S
H999 C1014 0.930 . S
C1000 H988 0.930 . S
C1000 C1001 1.399 . S
C1000 C1005 1.399 . S
C1001 C1000 1.399 . S
C1001 C1002 1.376 . S
C1002 H989 0.930 . S
C1002 C1001 1.376 . S
C1002 C1003 1.388 . S
C1003 H990 0.930 . S
C1003 C1002 1.388 . S
C1003 C1004 1.390 . S
C1004 C1003 1.390 . S
C1004 C1005 1.394 . S
C1004 C1010 1.465 . S
C1005 C1000 1.399 . S
C1005 C1004 1.394 . S
C1005 C1006 1.516 . S
C1006 C1005 1.516 . S
C1006 C1007 1.502 . S
C1006 C1008 1.561 . S
C1006 C1009 1.526 . S
C1007 H991 0.959 . S
C1007 H992 0.959 . S
C1007 H993 0.961 . S
C1007 C1006 1.502 . S
C1008 H994 0.960 . S
C1008 H995 0.961 . S
C1008 H996 0.959 . S
C1008 C1006 1.561 . S
C1009 C1006 1.526 . S
C1009 C1010 1.396 . S
C1009 C1014 1.390 . S
C1010 C1004 1.465 . S
C1010 C1009 1.396 . S
C1010 C1011 1.399 . S
C1011 H997 0.929 . S
C1011 C1010 1.399 . S
C1011 C1012 1.385 . S
C1012 H998 0.931 . S
C1012 C1011 1.385 . S
C1012 C1013 1.389 . S
C1013 C1012 1.389 . S
C1013 C1014 1.387 . S
C1014 H999 0.930 . S
C1014 C1009 1.390 . S
C1014 C1013 1.387 . S
H1015 C1027 0.930 . S
H1016 C1029 0.930 . S
H1017 C1030 0.930 . S
H1018 C1034 0.959 . S
H1019 C1034 0.959 . S
H1020 C1034 0.961 . S
H1021 C1035 0.960 . S
H1022 C1035 0.961 . S
H1023 C1035 0.959 . S
H1024 C1038 0.929 . S
H1025 C1039 0.931 . S
H1026 C1041 0.930 . S
C1027 H1015 0.930 . S
C1027 C1028 1.399 . S
C1027 C1032 1.399 . S
C1028 C1027 1.399 . S
C1028 C1029 1.376 . S
C1029 H1016 0.930 . S
C1029 C1028 1.376 . S
C1029 C1030 1.388 . S
C1030 H1017 0.930 . S
C1030 C1029 1.388 . S
C1030 C1031 1.390 . S
C1031 C1030 1.390 . S
C1031 C1032 1.394 . S
C1031 C1037 1.465 . S
C1032 C1027 1.399 . S
C1032 C1031 1.394 . S
C1032 C1033 1.516 . S
C1033 C1032 1.516 . S
C1033 C1034 1.502 . S
C1033 C1035 1.561 . S
C1033 C1036 1.526 . S
C1034 H1018 0.959 . S
C1034 H1019 0.959 . S
C1034 H1020 0.961 . S
C1034 C1033 1.502 . S
C1035 H1021 0.960 . S
C1035 H1022 0.961 . S
C1035 H1023 0.959 . S
C1035 C1033 1.561 . S
C1036 C1033 1.526 . S
C1036 C1037 1.396 . S
C1036 C1041 1.390 . S
C1037 C1031 1.465 . S
C1037 C1036 1.396 . S
C1037 C1038 1.399 . S
C1038 H1024 0.929 . S
C1038 C1037 1.399 . S
C1038 C1039 1.385 . S
C1039 H1025 0.931 . S
C1039 C1038 1.385 . S
C1039 C1040 1.389 . S
C1040 C1039 1.389 . S
C1040 C1041 1.387 . S
C1041 H1026 0.930 . S
C1041 C1036 1.390 . S
C1041 C1040 1.387 . S
H1042 C1054 0.930 . S
H1043 C1056 0.930 . S
H1044 C1057 0.930 . S
H1045 C1061 0.959 . S
H1046 C1061 0.959 . S
H1047 C1061 0.961 . S
H1048 C1062 0.960 . S
H1049 C1062 0.961 . S
H1050 C1062 0.959 . S
H1051 C1065 0.929 . S
H1052 C1066 0.931 . S
H1053 C1068 0.930 . S
C1054 H1042 0.930 . S
C1054 C1055 1.399 . S
C1054 C1059 1.399 . S
C1055 C1054 1.399 . S
C1055 C1056 1.376 . S
C1056 H1043 0.930 . S
C1056 C1055 1.376 . S
C1056 C1057 1.388 . S
C1057 H1044 0.930 . S
C1057 C1056 1.388 . S
C1057 C1058 1.390 . S
C1058 C1057 1.390 . S
C1058 C1059 1.394 . S
C1058 C1064 1.465 . S
C1059 C1054 1.399 . S
C1059 C1058 1.394 . S
C1059 C1060 1.516 . S
C1060 C1059 1.516 . S
C1060 C1061 1.502 . S
C1060 C1062 1.561 . S
C1060 C1063 1.526 . S
C1061 H1045 0.959 . S
C1061 H1046 0.959 . S
C1061 H1047 0.961 . S
C1061 C1060 1.502 . S
C1062 H1048 0.960 . S
C1062 H1049 0.961 . S
C1062 H1050 0.959 . S
C1062 C1060 1.561 . S
C1063 C1060 1.526 . S
C1063 C1064 1.396 . S
C1063 C1068 1.390 . S
C1064 C1058 1.465 . S
C1064 C1063 1.396 . S
C1064 C1065 1.399 . S
C1065 H1051 0.929 . S
C1065 C1064 1.399 . S
C1065 C1066 1.385 . S
C1066 H1052 0.931 . S
C1066 C1065 1.385 . S
C1066 C1067 1.389 . S
C1067 C1066 1.389 . S
C1067 C1068 1.387 . S
C1068 H1053 0.930 . S
C1068 C1063 1.390 . S
C1068 C1067 1.387 . S
H1069 C1081 0.930 . S
H1070 C1083 0.930 . S
H1071 C1084 0.930 . S
H1072 C1088 0.959 . S
H1073 C1088 1.002 . S
H1074 C1088 0.961 . S
H1075 C1089 0.960 . S
H1076 C1089 0.961 . S
H1077 C1089 0.959 . S
H1078 C1092 0.929 . S
H1079 C1093 0.931 . S
H1080 C1095 0.930 . S
C1081 H1069 0.930 . S
C1081 C1082 1.399 . S
C1081 C1086 1.399 . S
C1082 C1081 1.399 . S
C1082 C1083 1.376 . S
C1083 H1070 0.930 . S
C1083 C1082 1.376 . S
C1083 C1084 1.388 . S
C1084 H1071 0.930 . S
C1084 C1083 1.388 . S
C1084 C1085 1.390 . S
C1085 C1084 1.390 . S
C1085 C1086 1.394 . S
C1085 C1091 1.465 . S
C1086 C1081 1.399 . S
C1086 C1085 1.394 . S
C1086 C1087 1.516 . S
C1087 C1086 1.516 . S
C1087 C1088 1.502 . S
C1087 C1089 1.561 . S
C1087 C1090 1.526 1_455 S
C1088 H1072 0.959 . S
C1088 H1073 1.002 . S
C1088 H1074 0.961 . S
C1088 C1087 1.502 . S
C1089 H1075 0.960 . S
C1089 H1076 0.961 . S
C1089 H1077 0.959 . S
C1089 C1087 1.561 . S
C1090 C1087 1.526 1_655 S
C1090 C1091 1.396 1_655 S
C1090 C1095 1.390 . S
C1091 C1085 1.465 . S
C1091 C1090 1.396 1_455 S
C1091 C1092 1.399 1_455 S
C1092 H1078 0.929 . S
C1092 C1091 1.399 1_655 S
C1092 C1093 1.385 . S
C1093 H1079 0.931 . S
C1093 C1092 1.385 . S
C1093 C1094 1.389 . S
C1094 C1093 1.389 . S
C1094 C1095 1.387 . S
C1095 H1080 0.930 . S
C1095 C1090 1.390 . S
C1095 C1094 1.387 . S
H1096 C1108 0.930 . S
H1097 C1110 0.930 . S
H1098 C1111 0.930 . S
H1099 C1115 0.959 . S
H1100 C1115 0.959 . S
H1101 C1115 0.961 . S
H1102 C1116 0.960 . S
H1103 C1116 0.961 . S
H1104 C1116 0.959 . S
H1105 C1119 0.929 . S
H1106 C1120 0.931 . S
H1107 C1122 0.930 . S
C1108 H1096 0.930 . S
C1108 C1109 1.399 . S
C1108 C1113 1.399 . S
C1109 C1108 1.399 . S
C1109 C1110 1.376 . S
C1110 H1097 0.930 . S
C1110 C1109 1.376 . S
C1110 C1111 1.388 . S
C1111 H1098 0.930 . S
C1111 C1110 1.388 . S
C1111 C1112 1.390 . S
C1112 C1111 1.390 . S
C1112 C1113 1.394 . S
C1112 C1118 1.465 . S
C1113 C1108 1.399 . S
C1113 C1112 1.394 . S
C1113 C1114 1.516 . S
C1114 C1113 1.516 . S
C1114 C1115 1.502 . S
C1114 C1116 1.561 . S
C1114 C1117 1.526 . S
C1115 H1099 0.959 . S
C1115 H1100 0.959 . S
C1115 H1101 0.961 . S
C1115 C1114 1.502 . S
C1116 H1102 0.960 . S
C1116 H1103 0.961 . S
C1116 H1104 0.959 . S
C1116 C1114 1.561 . S
C1117 C1114 1.526 . S
C1117 C1118 1.396 . S
C1117 C1122 1.390 . S
C1118 C1112 1.465 . S
C1118 C1117 1.396 . S
C1118 C1119 1.399 . S
C1119 H1105 0.929 . S
C1119 C1118 1.399 . S
C1119 C1120 1.385 . S
C1120 H1106 0.931 . S
C1120 C1119 1.385 . S
C1120 C1121 1.389 . S
C1121 C1120 1.389 . S
C1121 C1122 1.387 . S
C1122 H1107 0.930 . S
C1122 C1117 1.390 . S
C1122 C1121 1.387 . S
H1123 C1135 0.930 . S
H1124 C1137 0.930 . S
H1125 C1138 0.930 . S
H1126 C1142 0.959 . S
H1127 C1142 0.959 . S
H1128 C1142 0.961 . S
H1129 C1143 0.960 . S
H1130 C1143 0.961 . S
H1131 C1143 0.959 . S
H1132 C1146 0.929 . S
H1133 C1147 0.931 . S
H1134 C1149 0.930 . S
C1135 H1123 0.930 . S
C1135 C1136 1.399 . S
C1135 C1140 1.399 . S
C1136 C1135 1.399 . S
C1136 C1137 1.376 . S
C1137 H1124 0.930 . S
C1137 C1136 1.376 . S
C1137 C1138 1.388 . S
C1138 H1125 0.930 . S
C1138 C1137 1.388 . S
C1138 C1139 1.390 . S
C1139 C1138 1.390 . S
C1139 C1140 1.394 . S
C1139 C1145 1.465 . S
C1140 C1135 1.399 . S
C1140 C1139 1.394 . S
C1140 C1141 1.516 . S
C1141 C1140 1.516 . S
C1141 C1142 1.502 . S
C1141 C1143 1.561 . S
C1141 C1144 1.496 1_655 S
C1142 H1126 0.959 . S
C1142 H1127 0.959 . S
C1142 H1128 0.961 . S
C1142 C1141 1.502 . S
C1143 H1129 0.960 . S
C1143 H1130 0.961 . S
C1143 H1131 0.959 . S
C1143 C1141 1.561 . S
C1144 C1141 1.496 1_455 S
C1144 C1145 1.386 1_455 S
C1144 C1149 1.426 . S
C1145 C1139 1.465 . S
C1145 C1144 1.386 1_655 S
C1145 C1146 1.399 1_655 S
C1146 H1132 0.929 . S
C1146 C1145 1.399 1_455 S
C1146 C1147 1.385 . S
C1147 H1133 0.931 . S
C1147 C1146 1.385 . S
C1147 C1148 1.389 . S
C1148 C1147 1.389 . S
C1148 C1149 1.387 . S
C1149 H1134 0.930 . S
C1149 C1144 1.426 . S
C1149 C1148 1.387 . S
H1150 C1162 0.930 . S
H1151 C1164 0.930 . S
H1152 C1165 0.930 . S
H1153 C1169 0.959 . S
H1154 C1169 0.959 . S
H1155 C1169 0.961 . S
H1156 C1170 0.960 . S
H1157 C1170 0.961 . S
H1158 C1170 0.959 . S
H1159 C1173 0.929 . S
H1160 C1174 0.931 . S
H1161 C1176 0.930 . S
C1162 H1150 0.930 . S
C1162 C1163 1.399 . S
C1162 C1167 1.399 . S
C1163 C1162 1.399 . S
C1163 C1164 1.376 . S
C1164 H1151 0.930 . S
C1164 C1163 1.376 . S
C1164 C1165 1.388 . S
C1165 H1152 0.930 . S
C1165 C1164 1.388 . S
C1165 C1166 1.390 . S
C1166 C1165 1.390 . S
C1166 C1167 1.394 . S
C1166 C1172 1.465 . S
C1167 C1162 1.399 . S
C1167 C1166 1.394 . S
C1167 C1168 1.516 . S
C1168 C1167 1.516 . S
C1168 C1169 1.502 . S
C1168 C1170 1.561 . S
C1168 C1171 1.526 . S
C1169 H1153 0.959 . S
C1169 H1154 0.959 . S
C1169 H1155 0.961 . S
C1169 C1168 1.502 . S
C1170 H1156 0.960 . S
C1170 H1157 0.961 . S
C1170 H1158 0.959 . S
C1170 C1168 1.561 . S
C1171 C1168 1.526 . S
C1171 C1172 1.396 . S
C1171 C1176 1.390 . S
C1172 C1166 1.465 . S
C1172 C1171 1.396 . S
C1172 C1173 1.399 . S
C1173 H1159 0.929 . S
C1173 C1172 1.399 . S
C1173 C1174 1.385 . S
C1174 H1160 0.931 . S
C1174 C1173 1.385 . S
C1174 C1175 1.389 . S
C1175 C1174 1.389 . S
C1175 C1176 1.387 . S
C1176 H1161 0.930 . S
C1176 C1171 1.390 . S
C1176 C1175 1.387 . S
H1177 C1189 0.930 . S
H1178 C1191 0.930 . S
H1179 C1192 0.930 . S
H1180 C1196 0.959 . S
H1181 C1196 0.959 . S
H1182 C1196 0.961 . S
H1183 C1197 0.960 . S
H1184 C1197 0.961 . S
H1185 C1197 0.959 . S
H1186 C1200 0.929 . S
H1187 C1201 0.931 . S
H1188 C1203 0.930 . S
C1189 H1177 0.930 . S
C1189 C1190 1.399 . S
C1189 C1194 1.399 . S
C1190 C1189 1.399 . S
C1190 C1191 1.376 . S
C1191 H1178 0.930 . S
C1191 C1190 1.376 . S
C1191 C1192 1.388 . S
C1192 H1179 0.930 . S
C1192 C1191 1.388 . S
C1192 C1193 1.390 . S
C1193 C1192 1.390 . S
C1193 C1194 1.394 . S
C1193 C1199 1.465 . S
C1194 C1189 1.399 . S
C1194 C1193 1.394 . S
C1194 C1195 1.516 . S
C1195 C1194 1.516 . S
C1195 C1196 1.502 . S
C1195 C1197 1.561 . S
C1195 C1198 1.526 . S
C1196 H1180 0.959 . S
C1196 H1181 0.959 . S
C1196 H1182 0.961 . S
C1196 C1195 1.502 . S
C1197 H1183 0.960 . S
C1197 H1184 0.961 . S
C1197 H1185 0.959 . S
C1197 C1195 1.561 . S
C1198 C1195 1.526 . S
C1198 C1199 1.396 . S
C1198 C1203 1.390 . S
C1199 C1193 1.465 . S
C1199 C1198 1.396 . S
C1199 C1200 1.399 . S
C1200 H1186 0.929 . S
C1200 C1199 1.399 . S
C1200 C1201 1.385 . S
C1201 H1187 0.931 . S
C1201 C1200 1.385 . S
C1201 C1202 1.389 . S
C1202 C1201 1.389 . S
C1202 C1203 1.387 . S
C1203 H1188 0.930 . S
C1203 C1198 1.390 . S
C1203 C1202 1.387 . S
H1204 C1216 0.930 . S
H1205 C1218 0.930 . S
H1206 C1219 0.930 . S
H1207 C1223 0.959 . S
H1208 C1223 0.959 . S
H1209 C1223 0.961 . S
H1210 C1224 0.960 . S
H1211 C1224 0.961 . S
H1212 C1224 0.959 . S
H1213 C1227 0.929 . S
H1214 C1228 0.931 . S
H1215 C1230 0.930 . S
C1216 H1204 0.930 . S
C1216 C1217 1.399 . S
C1216 C1221 1.399 . S
C1217 C1216 1.399 . S
C1217 C1218 1.376 . S
C1218 H1205 0.930 . S
C1218 C1217 1.376 . S
C1218 C1219 1.388 . S
C1219 H1206 0.930 . S
C1219 C1218 1.388 . S
C1219 C1220 1.390 . S
C1220 C1219 1.390 . S
C1220 C1221 1.394 . S
C1220 C1226 1.465 . S
C1221 C1216 1.399 . S
C1221 C1220 1.394 . S
C1221 C1222 1.516 . S
C1222 C1221 1.516 . S
C1222 C1223 1.502 . S
C1222 C1224 1.561 . S
C1222 C1225 1.526 . S
C1223 H1207 0.959 . S
C1223 H1208 0.959 . S
C1223 H1209 0.961 . S
C1223 C1222 1.502 . S
C1224 H1210 0.960 . S
C1224 H1211 0.961 . S
C1224 H1212 0.959 . S
C1224 C1222 1.561 . S
C1225 C1222 1.526 . S
C1225 C1226 1.396 . S
C1225 C1230 1.390 . S
C1226 C1220 1.465 . S
C1226 C1225 1.396 . S
C1226 C1227 1.399 . S
C1227 H1213 0.929 . S
C1227 C1226 1.399 . S
C1227 C1228 1.385 . S
C1228 H1214 0.931 . S
C1228 C1227 1.385 . S
C1228 C1229 1.389 . S
C1229 C1228 1.389 . S
C1229 C1230 1.387 . S
C1230 H1215 0.930 . S
C1230 C1225 1.390 . S
C1230 C1229 1.387 . S
H1231 C1243 0.930 . S
H1232 C1245 0.930 . S
H1233 C1246 0.930 . S
H1234 C1250 0.959 . S
H1235 C1250 0.959 . S
H1236 C1250 0.961 . S
H1237 C1251 0.960 . S
H1238 C1251 0.961 . S
H1239 C1251 0.959 . S
H1240 C1254 0.929 . S
H1241 C1255 0.931 . S
H1242 C1257 0.930 . S
C1243 H1231 0.930 . S
C1243 C1244 1.399 . S
C1243 C1248 1.399 . S
C1244 C1243 1.399 . S
C1244 C1245 1.376 . S
C1245 H1232 0.930 . S
C1245 C1244 1.376 . S
C1245 C1246 1.388 . S
C1246 H1233 0.930 . S
C1246 C1245 1.388 . S
C1246 C1247 1.390 . S
C1247 C1246 1.390 . S
C1247 C1248 1.394 . S
C1247 C1253 1.465 . S
C1248 C1243 1.399 . S
C1248 C1247 1.394 . S
C1248 C1249 1.516 . S
C1249 C1248 1.516 . S
C1249 C1250 1.502 . S
C1249 C1251 1.561 . S
C1249 C1252 1.526 . S
C1250 H1234 0.959 . S
C1250 H1235 0.959 . S
C1250 H1236 0.961 . S
C1250 C1249 1.502 . S
C1251 H1237 0.960 . S
C1251 H1238 0.961 . S
C1251 H1239 0.959 . S
C1251 C1249 1.561 . S
C1252 C1249 1.526 . S
C1252 C1253 1.396 . S
C1252 C1257 1.390 . S
C1253 C1247 1.465 . S
C1253 C1252 1.396 . S
C1253 C1254 1.399 . S
C1254 H1240 0.929 . S
C1254 C1253 1.399 . S
C1254 C1255 1.385 . S
C1255 H1241 0.931 . S
C1255 C1254 1.385 . S
C1255 C1256 1.389 . S
C1256 C1255 1.389 . S
C1256 C1257 1.387 . S
C1257 H1242 0.930 . S
C1257 C1252 1.390 . S
C1257 C1256 1.387 . S
H1258 C1270 0.930 . S
H1259 C1272 0.930 . S
H1260 C1273 0.930 . S
H1261 C1277 0.959 . S
H1262 C1277 0.959 . S
H1263 C1277 0.961 . S
H1264 C1278 0.960 . S
H1265 C1278 0.961 . S
H1266 C1278 0.959 . S
H1267 C1281 0.929 . S
H1268 C1282 0.931 . S
H1269 C1284 0.930 . S
C1270 H1258 0.930 . S
C1270 C1271 1.399 . S
C1270 C1275 1.399 . S
C1271 C1270 1.399 . S
C1271 C1272 1.376 . S
C1272 H1259 0.930 . S
C1272 C1271 1.376 . S
C1272 C1273 1.388 . S
C1273 H1260 0.930 . S
C1273 C1272 1.388 . S
C1273 C1274 1.390 . S
C1274 C1273 1.390 . S
C1274 C1275 1.394 . S
C1274 C1280 1.465 . S
C1275 C1270 1.399 . S
C1275 C1274 1.394 . S
C1275 C1276 1.516 . S
C1276 C1275 1.516 . S
C1276 C1277 1.502 . S
C1276 C1278 1.561 . S
C1276 C1279 1.526 . S
C1277 H1261 0.959 . S
C1277 H1262 0.959 . S
C1277 H1263 0.961 . S
C1277 C1276 1.502 . S
C1278 H1264 0.960 . S
C1278 H1265 0.961 . S
C1278 H1266 0.959 . S
C1278 C1276 1.561 . S
C1279 C1276 1.526 . S
C1279 C1280 1.396 . S
C1279 C1284 1.390 . S
C1280 C1274 1.465 . S
C1280 C1279 1.396 . S
C1280 C1281 1.399 . S
C1281 H1267 0.929 . S
C1281 C1280 1.399 . S
C1281 C1282 1.385 . S
C1282 H1268 0.931 . S
C1282 C1281 1.385 . S
C1282 C1283 1.389 . S
C1283 C1282 1.389 . S
C1283 C1284 1.387 . S
C1284 H1269 0.930 . S
C1284 C1279 1.390 . S
C1284 C1283 1.387 . S
H1285 C1297 0.930 . S
H1286 C1299 0.930 . S
H1287 C1300 0.930 . S
H1288 C1304 0.959 . S
H1289 C1304 0.959 . S
H1290 C1304 0.961 . S
H1291 C1305 0.960 . S
H1292 C1305 0.961 . S
H1293 C1305 0.959 . S
H1294 C1308 0.929 . S
H1295 C1309 0.931 . S
H1296 C1311 0.930 . S
C1297 H1285 0.930 . S
C1297 C1298 1.399 . S
C1297 C1302 1.399 . S
C1298 C1297 1.399 . S
C1298 C1299 1.376 . S
C1299 H1286 0.930 . S
C1299 C1298 1.376 . S
C1299 C1300 1.388 . S
C1300 H1287 0.930 . S
C1300 C1299 1.388 . S
C1300 C1301 1.390 . S
C1301 C1300 1.390 . S
C1301 C1302 1.394 . S
C1301 C1307 1.465 . S
C1302 C1297 1.399 . S
C1302 C1301 1.394 . S
C1302 C1303 1.516 . S
C1303 C1302 1.516 . S
C1303 C1304 1.502 . S
C1303 C1305 1.561 . S
C1303 C1306 1.505 1_655 S
C1304 H1288 0.959 . S
C1304 H1289 0.959 . S
C1304 H1290 0.961 . S
C1304 C1303 1.502 . S
C1305 H1291 0.960 . S
C1305 H1292 0.961 . S
C1305 H1293 0.959 . S
C1305 C1303 1.561 . S
C1306 C1303 1.505 1_455 S
C1306 C1307 1.388 1_455 S
C1306 C1311 1.415 . S
C1307 C1301 1.465 . S
C1307 C1306 1.388 1_655 S
C1307 C1308 1.399 1_655 S
C1308 H1294 0.929 . S
C1308 C1307 1.399 1_455 S
C1308 C1309 1.385 . S
C1309 H1295 0.931 . S
C1309 C1308 1.385 . S
C1309 C1310 1.389 . S
C1310 C1309 1.389 . S
C1310 C1311 1.387 . S
C1311 H1296 0.930 . S
C1311 C1306 1.415 . S
C1311 C1310 1.387 . S
H1312 C1324 0.930 . S
H1313 C1326 0.930 . S
H1314 C1327 0.930 . S
H1315 C1331 0.959 . S
H1316 C1331 0.959 . S
H1317 C1331 0.961 . S
H1318 C1332 0.960 . S
H1319 C1332 0.961 . S
H1320 C1332 0.959 . S
H1321 C1335 0.929 . S
H1322 C1336 0.931 . S
H1323 C1338 0.930 . S
C1324 H1312 0.930 . S
C1324 C1325 1.399 . S
C1324 C1329 1.399 . S
C1325 C1324 1.399 . S
C1325 C1326 1.376 . S
C1326 H1313 0.930 . S
C1326 C1325 1.376 . S
C1326 C1327 1.388 . S
C1327 H1314 0.930 . S
C1327 C1326 1.388 . S
C1327 C1328 1.390 . S
C1328 C1327 1.390 . S
C1328 C1329 1.394 . S
C1328 C1334 1.465 . S
C1329 C1324 1.399 . S
C1329 C1328 1.394 . S
C1329 C1330 1.516 . S
C1330 C1329 1.516 . S
C1330 C1331 1.502 . S
C1330 C1332 1.561 . S
C1330 C1333 1.526 . S
C1331 H1315 0.959 . S
C1331 H1316 0.959 . S
C1331 H1317 0.961 . S
C1331 C1330 1.502 . S
C1332 H1318 0.960 . S
C1332 H1319 0.961 . S
C1332 H1320 0.959 . S
C1332 C1330 1.561 . S
C1333 C1330 1.526 . S
C1333 C1334 1.396 . S
C1333 C1338 1.390 . S
C1334 C1328 1.465 . S
C1334 C1333 1.396 . S
C1334 C1335 1.399 . S
C1335 H1321 0.929 . S
C1335 C1334 1.399 . S
C1335 C1336 1.385 . S
C1336 H1322 0.931 . S
C1336 C1335 1.385 . S
C1336 C1337 1.389 . S
C1337 C1336 1.389 . S
C1337 C1338 1.387 . S
C1338 H1323 0.930 . S
C1338 C1333 1.390 . S
C1338 C1337 1.387 . S
H1339 C1351 0.930 . S
H1340 C1353 0.930 . S
H1341 C1354 0.930 . S
H1342 C1358 0.959 . S
H1343 C1358 0.959 . S
H1344 C1358 0.961 . S
H1345 C1359 0.960 . S
H1346 C1359 0.961 . S
H1347 C1359 0.959 . S
H1348 C1362 0.929 . S
H1349 C1363 0.931 . S
H1350 C1365 0.930 . S
C1351 H1339 0.930 . S
C1351 C1352 1.399 . S
C1351 C1356 1.399 . S
C1352 C1351 1.399 . S
C1352 C1353 1.376 . S
C1353 H1340 0.930 . S
C1353 C1352 1.376 . S
C1353 C1354 1.388 . S
C1354 H1341 0.930 . S
C1354 C1353 1.388 . S
C1354 C1355 1.390 . S
C1355 C1354 1.390 . S
C1355 C1356 1.394 . S
C1355 C1361 1.465 . S
C1356 C1351 1.399 . S
C1356 C1355 1.394 . S
C1356 C1357 1.516 . S
C1357 C1356 1.516 . S
C1357 C1358 1.502 . S
C1357 C1359 1.561 . S
C1357 C1360 1.526 . S
C1358 H1342 0.959 . S
C1358 H1343 0.959 . S
C1358 H1344 0.961 . S
C1358 C1357 1.502 . S
C1359 H1345 0.960 . S
C1359 H1346 0.961 . S
C1359 H1347 0.959 . S
C1359 C1357 1.561 . S
C1360 C1357 1.526 . S
C1360 C1361 1.396 . S
C1360 C1365 1.390 . S
C1361 C1355 1.465 . S
C1361 C1360 1.396 . S
C1361 C1362 1.399 . S
C1362 H1348 0.929 . S
C1362 C1361 1.399 . S
C1362 C1363 1.385 . S
C1363 H1349 0.931 . S
C1363 C1362 1.385 . S
C1363 C1364 1.389 . S
C1364 C1363 1.389 . S
C1364 C1365 1.387 . S
C1365 H1350 0.930 . S
C1365 C1360 1.390 . S
C1365 C1364 1.387 . S
H1366 C1378 0.930 . S
H1367 C1380 0.930 . S
H1368 C1381 0.930 . S
H1369 C1385 0.959 . S
H1370 C1385 0.959 . S
H1371 C1385 0.961 . S
H1372 C1386 0.960 . S
H1373 C1386 0.961 . S
H1374 C1386 0.959 . S
H1375 C1389 0.929 . S
H1376 C1390 0.931 . S
H1377 C1392 0.930 . S
C1378 H1366 0.930 . S
C1378 C1379 1.399 . S
C1378 C1383 1.399 . S
C1379 C1378 1.399 . S
C1379 C1380 1.376 . S
C1380 H1367 0.930 . S
C1380 C1379 1.376 . S
C1380 C1381 1.388 . S
C1381 H1368 0.930 . S
C1381 C1380 1.388 . S
C1381 C1382 1.390 . S
C1382 C1381 1.390 . S
C1382 C1383 1.394 . S
C1382 C1388 1.465 . S
C1383 C1378 1.399 . S
C1383 C1382 1.394 . S
C1383 C1384 1.516 . S
C1384 C1383 1.516 . S
C1384 C1385 1.502 . S
C1384 C1386 1.561 . S
C1384 C1387 1.526 . S
C1385 H1369 0.959 . S
C1385 H1370 0.959 . S
C1385 H1371 0.961 . S
C1385 C1384 1.502 . S
C1386 H1372 0.960 . S
C1386 H1373 0.961 . S
C1386 H1374 0.959 . S
C1386 C1384 1.561 . S
C1387 C1384 1.526 . S
C1387 C1388 1.396 . S
C1387 C1392 1.390 . S
C1388 C1382 1.465 . S
C1388 C1387 1.396 . S
C1388 C1389 1.399 . S
C1389 H1375 0.929 . S
C1389 C1388 1.399 . S
C1389 C1390 1.385 . S
C1390 H1376 0.931 . S
C1390 C1389 1.385 . S
C1390 C1391 1.389 . S
C1391 C1390 1.389 . S
C1391 C1392 1.387 . S
C1392 H1377 0.930 . S
C1392 C1387 1.390 . S
C1392 C1391 1.387 . S
H1393 C1405 0.930 . S
H1394 C1407 0.930 . S
H1395 C1408 0.930 . S
H1396 C1412 0.959 . S
H1397 C1412 0.954 . S
H1398 C1412 0.961 . S
H1399 C1413 0.960 . S
H1400 C1413 0.961 . S
H1401 C1413 0.959 . S
H1402 C1416 0.930 . S
H1403 C1417 0.931 . S
H1404 C1419 0.930 . S
C1405 H1393 0.930 . S
C1405 C1406 1.399 . S
C1405 C1410 1.399 . S
C1406 C1405 1.399 . S
C1406 C1407 1.376 . S
C1407 H1394 0.930 . S
C1407 C1406 1.376 . S
C1407 C1408 1.388 . S
C1408 H1395 0.930 . S
C1408 C1407 1.388 . S
C1408 C1409 1.390 . S
C1409 C1408 1.390 . S
C1409 C1410 1.394 . S
C1409 C1415 1.465 . S
C1410 C1405 1.399 . S
C1410 C1409 1.394 . S
C1410 C1411 1.516 . S
C1411 C1410 1.516 . S
C1411 C1412 1.502 . S
C1411 C1413 1.561 . S
C1411 C1414 1.526 1_655 S
C1412 H1396 0.959 . S
C1412 H1397 0.954 . S
C1412 H1398 0.961 . S
C1412 C1411 1.502 . S
C1413 H1399 0.960 . S
C1413 H1400 0.961 . S
C1413 H1401 0.959 . S
C1413 C1411 1.561 . S
C1414 C1411 1.526 1_455 S
C1414 C1415 1.396 1_455 S
C1414 C1419 1.390 . S
C1415 C1409 1.465 . S
C1415 C1414 1.396 1_655 S
C1415 C1416 1.399 1_655 S
C1416 H1402 0.930 . S
C1416 C1415 1.399 1_455 S
C1416 C1417 1.385 . S
C1417 H1403 0.931 . S
C1417 C1416 1.385 . S
C1417 C1418 1.389 . S
C1418 C1417 1.389 . S
C1418 C1419 1.387 . S
C1419 H1404 0.930 . S
C1419 C1414 1.390 . S
C1419 C1418 1.387 . S
H1420 C1432 0.930 . S
H1421 C1434 0.930 . S
H1422 C1435 0.930 . S
H1423 C1439 0.959 . S
H1424 C1439 0.959 . S
H1425 C1439 0.961 . S
H1426 C1440 0.960 . S
H1427 C1440 0.961 . S
H1428 C1440 0.959 . S
H1429 C1443 0.929 . S
H1430 C1444 0.931 . S
H1431 C1446 0.930 . S
C1432 H1420 0.930 . S
C1432 C1433 1.399 . S
C1432 C1437 1.399 . S
C1433 C1432 1.399 . S
C1433 C1434 1.376 . S
C1434 H1421 0.930 . S
C1434 C1433 1.376 . S
C1434 C1435 1.388 . S
C1435 H1422 0.930 . S
C1435 C1434 1.388 . S
C1435 C1436 1.390 . S
C1436 C1435 1.390 . S
C1436 C1437 1.394 . S
C1436 C1442 1.465 . S
C1437 C1432 1.399 . S
C1437 C1436 1.394 . S
C1437 C1438 1.516 . S
C1438 C1437 1.516 . S
C1438 C1439 1.502 . S
C1438 C1440 1.561 . S
C1438 C1441 1.526 . S
C1439 H1423 0.959 . S
C1439 H1424 0.959 . S
C1439 H1425 0.961 . S
C1439 C1438 1.502 . S
C1440 H1426 0.960 . S
C1440 H1427 0.961 . S
C1440 H1428 0.959 . S
C1440 C1438 1.561 . S
C1441 C1438 1.526 . S
C1441 C1442 1.396 . S
C1441 C1446 1.390 . S
C1442 C1436 1.465 . S
C1442 C1441 1.396 . S
C1442 C1443 1.399 . S
C1443 H1429 0.929 . S
C1443 C1442 1.399 . S
C1443 C1444 1.385 . S
C1444 H1430 0.931 . S
C1444 C1443 1.385 . S
C1444 C1445 1.389 . S
C1445 C1444 1.389 . S
C1445 C1446 1.387 . S
C1446 H1431 0.930 . S
C1446 C1441 1.390 . S
C1446 C1445 1.387 . S
H1447 C1459 0.930 . S
H1448 C1461 0.930 . S
H1449 C1462 0.930 . S
H1450 C1466 0.959 . S
H1451 C1466 0.959 . S
H1452 C1466 0.961 . S
H1453 C1467 0.960 . S
H1454 C1467 0.961 . S
H1455 C1467 0.959 . S
H1456 C1470 0.929 . S
H1457 C1471 0.931 . S
H1458 C1473 0.930 . S
C1459 H1447 0.930 . S
C1459 C1460 1.399 . S
C1459 C1464 1.438 . S
C1460 C1459 1.399 . S
C1460 C1461 1.376 . S
C1461 H1448 0.930 . S
C1461 C1460 1.376 . S
C1461 C1462 1.388 . S
C1462 H1449 0.930 . S
C1462 C1461 1.388 . S
C1462 C1463 1.390 1_455 S
C1463 C1462 1.390 1_655 S
C1463 C1464 1.381 1_655 S
C1463 C1469 1.465 . S
C1464 C1459 1.438 . S
C1464 C1463 1.381 1_455 S
C1464 C1465 1.486 1_455 S
C1465 C1464 1.486 1_655 S
C1465 C1466 1.502 . S
C1465 C1467 1.561 . S
C1465 C1468 1.526 . S
C1466 H1450 0.959 . S
C1466 H1451 0.959 . S
C1466 H1452 0.961 . S
C1466 C1465 1.502 . S
C1467 H1453 0.960 . S
C1467 H1454 0.961 . S
C1467 H1455 0.959 . S
C1467 C1465 1.561 . S
C1468 C1465 1.526 . S
C1468 C1469 1.396 . S
C1468 C1473 1.390 . S
C1469 C1463 1.465 . S
C1469 C1468 1.396 . S
C1469 C1470 1.399 . S
C1470 H1456 0.929 . S
C1470 C1469 1.399 . S
C1470 C1471 1.385 . S
C1471 H1457 0.931 . S
C1471 C1470 1.385 . S
C1471 C1472 1.389 . S
C1472 C1471 1.389 . S
C1472 C1473 1.387 . S
C1473 H1458 0.930 . S
C1473 C1468 1.390 . S
C1473 C1472 1.387 . S
H1474 C1486 0.930 . S
H1475 C1488 0.930 . S
H1476 C1489 0.930 . S
H1477 C1493 0.959 . S
H1478 C1493 0.959 . S
H1479 C1493 0.961 . S
H1480 C1494 0.960 . S
H1481 C1494 0.961 . S
H1482 C1494 0.959 . S
H1483 C1497 0.929 . S
H1484 C1498 0.931 . S
H1485 C1500 0.930 . S
C1486 H1474 0.930 . S
C1486 C1487 1.399 . S
C1486 C1491 1.399 . S
C1487 C1486 1.399 . S
C1487 C1488 1.376 . S
C1488 H1475 0.930 . S
C1488 C1487 1.376 . S
C1488 C1489 1.388 . S
C1489 H1476 0.930 . S
C1489 C1488 1.388 . S
C1489 C1490 1.390 . S
C1490 C1489 1.390 . S
C1490 C1491 1.394 . S
C1490 C1496 1.465 . S
C1491 C1486 1.399 . S
C1491 C1490 1.394 . S
C1491 C1492 1.516 . S
C1492 C1491 1.516 . S
C1492 C1493 1.502 . S
C1492 C1494 1.561 . S
C1492 C1495 1.526 . S
C1493 H1477 0.959 . S
C1493 H1478 0.959 . S
C1493 H1479 0.961 . S
C1493 C1492 1.502 . S
C1494 H1480 0.960 . S
C1494 H1481 0.961 . S
C1494 H1482 0.959 . S
C1494 C1492 1.561 . S
C1495 C1492 1.526 . S
C1495 C1496 1.396 . S
C1495 C1500 1.390 . S
C1496 C1490 1.465 . S
C1496 C1495 1.396 . S
C1496 C1497 1.399 . S
C1497 H1483 0.929 . S
C1497 C1496 1.399 . S
C1497 C1498 1.385 . S
C1498 H1484 0.931 . S
C1498 C1497 1.385 . S
C1498 C1499 1.389 . S
C1499 C1498 1.389 . S
C1499 C1500 1.387 . S
C1500 H1485 0.930 . S
C1500 C1495 1.390 . S
C1500 C1499 1.387 . S
H1501 C1513 0.930 . S
H1502 C1515 0.930 . S
H1503 C1516 0.930 . S
H1504 C1520 0.959 . S
H1505 C1520 0.959 . S
H1506 C1520 0.961 . S
H1507 C1521 0.960 . S
H1508 C1521 0.961 . S
H1509 C1521 0.959 . S
H1510 C1524 0.929 . S
H1511 C1525 0.931 . S
H1512 C1527 0.930 . S
C1513 H1501 0.930 . S
C1513 C1514 1.399 . S
C1513 C1518 1.399 . S
C1514 C1513 1.399 . S
C1514 C1515 1.376 . S
C1515 H1502 0.930 . S
C1515 C1514 1.376 . S
C1515 C1516 1.388 . S
C1516 H1503 0.930 . S
C1516 C1515 1.388 . S
C1516 C1517 1.390 . S
C1517 C1516 1.390 . S
C1517 C1518 1.394 . S
C1517 C1523 1.465 . S
C1518 C1513 1.399 . S
C1518 C1517 1.394 . S
C1518 C1519 1.516 . S
C1519 C1518 1.516 . S
C1519 C1520 1.502 . S
C1519 C1521 1.561 . S
C1519 C1522 1.526 . S
C1520 H1504 0.959 . S
C1520 H1505 0.959 . S
C1520 H1506 0.961 . S
C1520 C1519 1.502 . S
C1521 H1507 0.960 . S
C1521 H1508 0.961 . S
C1521 H1509 0.959 . S
C1521 C1519 1.561 . S
C1522 C1519 1.526 . S
C1522 C1523 1.396 . S
C1522 C1527 1.390 . S
C1523 C1517 1.465 . S
C1523 C1522 1.396 . S
C1523 C1524 1.399 . S
C1524 H1510 0.929 . S
C1524 C1523 1.399 . S
C1524 C1525 1.385 . S
C1525 H1511 0.931 . S
C1525 C1524 1.385 . S
C1525 C1526 1.389 . S
C1526 C1525 1.389 . S
C1526 C1527 1.387 . S
C1527 H1512 0.930 . S
C1527 C1522 1.390 . S
C1527 C1526 1.387 . S
H1528 C1540 0.930 . S
H1529 C1542 0.930 . S
H1530 C1543 0.930 . S
H1531 C1547 0.959 . S
H1532 C1547 0.959 . S
H1533 C1547 0.961 . S
H1534 C1548 0.960 . S
H1535 C1548 0.961 . S
H1536 C1548 0.959 . S
H1537 C1551 0.929 . S
H1538 C1552 0.931 . S
H1539 C1554 0.930 . S
C1540 H1528 0.930 . S
C1540 C1541 1.399 . S
C1540 C1545 1.399 . S
C1541 C1540 1.399 . S
C1541 C1542 1.376 . S
C1542 H1529 0.930 . S
C1542 C1541 1.376 . S
C1542 C1543 1.388 . S
C1543 H1530 0.930 . S
C1543 C1542 1.388 . S
C1543 C1544 1.390 . S
C1544 C1543 1.390 . S
C1544 C1545 1.394 . S
C1544 C1550 1.465 . S
C1545 C1540 1.399 . S
C1545 C1544 1.394 . S
C1545 C1546 1.516 . S
C1546 C1545 1.516 . S
C1546 C1547 1.502 . S
C1546 C1548 1.561 . S
C1546 C1549 1.526 . S
C1547 H1531 0.959 . S
C1547 H1532 0.959 . S
C1547 H1533 0.961 . S
C1547 C1546 1.502 . S
C1548 H1534 0.960 . S
C1548 H1535 0.961 . S
C1548 H1536 0.959 . S
C1548 C1546 1.561 . S
C1549 C1546 1.526 . S
C1549 C1550 1.396 . S
C1549 C1554 1.390 . S
C1550 C1544 1.465 . S
C1550 C1549 1.396 . S
C1550 C1551 1.399 . S
C1551 H1537 0.929 . S
C1551 C1550 1.399 . S
C1551 C1552 1.385 . S
C1552 H1538 0.931 . S
C1552 C1551 1.385 . S
C1552 C1553 1.389 . S
C1553 C1552 1.389 . S
C1553 C1554 1.387 . S
C1554 H1539 0.930 . S
C1554 C1549 1.390 . S
C1554 C1553 1.387 . S
H1555 C1567 0.930 . S
H1556 C1569 0.930 . S
H1557 C1570 0.930 . S
H1558 C1574 0.959 . S
H1559 C1574 0.959 . S
H1560 C1574 0.961 . S
H1561 C1575 0.960 . S
H1562 C1575 0.961 . S
H1563 C1575 0.959 . S
H1564 C1578 0.929 . S
H1565 C1579 0.931 . S
H1566 C1581 0.930 . S
C1567 H1555 0.930 . S
C1567 C1568 1.399 . S
C1567 C1572 1.399 . S
C1568 C1567 1.399 . S
C1568 C1569 1.376 . S
C1569 H1556 0.930 . S
C1569 C1568 1.376 . S
C1569 C1570 1.388 . S
C1570 H1557 0.930 . S
C1570 C1569 1.388 . S
C1570 C1571 1.390 . S
C1571 C1570 1.390 . S
C1571 C1572 1.394 . S
C1571 C1577 1.465 . S
C1572 C1567 1.399 . S
C1572 C1571 1.394 . S
C1572 C1573 1.516 . S
C1573 C1572 1.516 . S
C1573 C1574 1.502 . S
C1573 C1575 1.561 . S
C1573 C1576 1.526 . S
C1574 H1558 0.959 . S
C1574 H1559 0.959 . S
C1574 H1560 0.961 . S
C1574 C1573 1.502 . S
C1575 H1561 0.960 . S
C1575 H1562 0.961 . S
C1575 H1563 0.959 . S
C1575 C1573 1.561 . S
C1576 C1573 1.526 . S
C1576 C1577 1.396 . S
C1576 C1581 1.390 . S
C1577 C1571 1.465 . S
C1577 C1576 1.396 . S
C1577 C1578 1.399 . S
C1578 H1564 0.929 . S
C1578 C1577 1.399 . S
C1578 C1579 1.385 . S
C1579 H1565 0.931 . S
C1579 C1578 1.385 . S
C1579 C1580 1.389 . S
C1580 C1579 1.389 . S
C1580 C1581 1.387 . S
C1581 H1566 0.930 . S
C1581 C1576 1.390 . S
C1581 C1580 1.387 . S
H1582 C1594 0.930 . S
H1583 C1596 0.930 . S
H1584 C1597 0.930 . S
H1585 C1601 0.959 . S
H1586 C1601 0.959 . S
H1587 C1601 0.961 . S
H1588 C1602 0.960 . S
H1589 C1602 0.961 . S
H1590 C1602 0.959 . S
H1591 C1605 0.929 . S
H1592 C1606 0.931 . S
H1593 C1608 0.930 . S
C1594 H1582 0.930 . S
C1594 C1595 1.399 . S
C1594 C1599 1.399 . S
C1595 C1594 1.399 . S
C1595 C1596 1.376 . S
C1596 H1583 0.930 . S
C1596 C1595 1.376 . S
C1596 C1597 1.388 . S
C1597 H1584 0.930 . S
C1597 C1596 1.388 . S
C1597 C1598 1.390 . S
C1598 C1597 1.390 . S
C1598 C1599 1.394 . S
C1598 C1604 1.465 . S
C1599 C1594 1.399 . S
C1599 C1598 1.394 . S
C1599 C1600 1.516 . S
C1600 C1599 1.516 . S
C1600 C1601 1.502 . S
C1600 C1602 1.561 . S
C1600 C1603 1.526 . S
C1601 H1585 0.959 . S
C1601 H1586 0.959 . S
C1601 H1587 0.961 . S
C1601 C1600 1.502 . S
C1602 H1588 0.960 . S
C1602 H1589 0.961 . S
C1602 H1590 0.959 . S
C1602 C1600 1.561 . S
C1603 C1600 1.526 . S
C1603 C1604 1.396 . S
C1603 C1608 1.390 . S
C1604 C1598 1.465 . S
C1604 C1603 1.396 . S
C1604 C1605 1.399 . S
C1605 H1591 0.929 . S
C1605 C1604 1.399 . S
C1605 C1606 1.385 . S
C1606 H1592 0.931 . S
C1606 C1605 1.385 . S
C1606 C1607 1.389 . S
C1607 C1606 1.389 . S
C1607 C1608 1.387 . S
C1608 H1593 0.930 . S
C1608 C1603 1.390 . S
C1608 C1607 1.387 . S
H1609 C1621 0.930 . S
H1610 C1623 0.930 . S
H1611 C1624 0.930 . S
H1612 C1628 0.959 . S
H1613 C1628 0.984 . S
H1614 C1628 0.961 . S
H1615 C1629 0.960 . S
H1616 C1629 0.961 . S
H1617 C1629 0.959 . S
H1618 C1632 0.943 . S
H1619 C1633 0.931 . S
H1620 C1635 0.930 . S
C1621 H1609 0.930 . S
C1621 C1622 1.399 . S
C1621 C1626 1.399 . S
C1622 C1621 1.399 . S
C1622 C1623 1.376 . S
C1623 H1610 0.930 . S
C1623 C1622 1.376 . S
C1623 C1624 1.388 . S
C1624 H1611 0.930 . S
C1624 C1623 1.388 . S
C1624 C1625 1.390 . S
C1625 C1624 1.390 . S
C1625 C1626 1.394 . S
C1625 C1631 1.465 . S
C1626 C1621 1.399 . S
C1626 C1625 1.394 . S
C1626 C1627 1.516 . S
C1627 C1626 1.516 . S
C1627 C1628 1.502 . S
C1627 C1629 1.561 . S
C1627 C1630 1.526 1_455 S
C1628 H1612 0.959 . S
C1628 H1613 0.984 . S
C1628 H1614 0.961 . S
C1628 C1627 1.502 . S
C1629 H1615 0.960 . S
C1629 H1616 0.961 . S
C1629 H1617 0.959 . S
C1629 C1627 1.561 . S
C1630 C1627 1.526 1_655 S
C1630 C1631 1.396 1_655 S
C1630 C1635 1.390 . S
C1631 C1625 1.465 . S
C1631 C1630 1.396 1_455 S
C1631 C1632 1.399 1_455 S
C1632 H1618 0.943 . S
C1632 C1631 1.399 1_655 S
C1632 C1633 1.385 . S
C1633 H1619 0.931 . S
C1633 C1632 1.385 . S
C1633 C1634 1.389 . S
C1634 C1633 1.389 . S
C1634 C1635 1.387 . S
C1635 H1620 0.930 . S
C1635 C1630 1.390 . S
C1635 C1634 1.387 . S
H1636 C1648 0.930 . S
H1637 C1650 0.930 . S
H1638 C1651 0.930 . S
H1639 C1655 0.959 . S
H1640 C1655 0.959 . S
H1641 C1655 0.961 . S
H1642 C1656 0.960 . S
H1643 C1656 0.961 . S
H1644 C1656 0.959 . S
H1645 C1659 0.929 . S
H1646 C1660 0.931 . S
H1647 C1662 0.930 . S
C1648 H1636 0.930 . S
C1648 C1649 1.399 . S
C1648 C1653 1.399 . S
C1649 C1648 1.399 . S
C1649 C1650 1.376 . S
C1650 H1637 0.930 . S
C1650 C1649 1.376 . S
C1650 C1651 1.388 . S
C1651 H1638 0.930 . S
C1651 C1650 1.388 . S
C1651 C1652 1.390 . S
C1652 C1651 1.390 . S
C1652 C1653 1.394 . S
C1652 C1658 1.465 . S
C1653 C1648 1.399 . S
C1653 C1652 1.394 . S
C1653 C1654 1.516 . S
C1654 C1653 1.516 . S
C1654 C1655 1.502 . S
C1654 C1656 1.561 . S
C1654 C1657 1.526 . S
C1655 H1639 0.959 . S
C1655 H1640 0.959 . S
C1655 H1641 0.961 . S
C1655 C1654 1.502 . S
C1656 H1642 0.960 . S
C1656 H1643 0.961 . S
C1656 H1644 0.959 . S
C1656 C1654 1.561 . S
C1657 C1654 1.526 . S
C1657 C1658 1.396 . S
C1657 C1662 1.390 . S
C1658 C1652 1.465 . S
C1658 C1657 1.396 . S
C1658 C1659 1.399 . S
C1659 H1645 0.929 . S
C1659 C1658 1.399 . S
C1659 C1660 1.385 . S
C1660 H1646 0.931 . S
C1660 C1659 1.385 . S
C1660 C1661 1.389 . S
C1661 C1660 1.389 . S
C1661 C1662 1.387 . S
C1662 H1647 0.930 . S
C1662 C1657 1.390 . S
C1662 C1661 1.387 . S
H1663 C1675 0.930 . S
H1664 C1677 0.930 . S
H1665 C1678 0.930 . S
H1666 C1682 0.959 . S
H1667 C1682 0.959 . S
H1668 C1682 0.961 . S
H1669 C1683 0.960 . S
H1670 C1683 0.961 . S
H1671 C1683 0.959 . S
H1672 C1686 0.929 . S
H1673 C1687 0.931 . S
H1674 C1689 0.930 . S
C1675 H1663 0.930 . S
C1675 C1676 1.399 . S
C1675 C1680 1.424 . S
C1676 C1675 1.399 . S
C1676 C1677 1.376 . S
C1677 H1664 0.930 . S
C1677 C1676 1.376 . S
C1677 C1678 1.388 . S
C1678 H1665 0.930 . S
C1678 C1677 1.388 . S
C1678 C1679 1.390 1_655 S
C1679 C1678 1.390 1_455 S
C1679 C1680 1.386 1_455 S
C1679 C1685 1.465 . S
C1680 C1675 1.424 . S
C1680 C1679 1.386 1_655 S
C1680 C1681 1.497 1_655 S
C1681 C1680 1.497 1_455 S
C1681 C1682 1.502 . S
C1681 C1683 1.561 . S
C1681 C1684 1.526 . S
C1682 H1666 0.959 . S
C1682 H1667 0.959 . S
C1682 H1668 0.961 . S
C1682 C1681 1.502 . S
C1683 H1669 0.960 . S
C1683 H1670 0.961 . S
C1683 H1671 0.959 . S
C1683 C1681 1.561 . S
C1684 C1681 1.526 . S
C1684 C1685 1.396 . S
C1684 C1689 1.390 . S
C1685 C1679 1.465 . S
C1685 C1684 1.396 . S
C1685 C1686 1.399 . S
C1686 H1672 0.929 . S
C1686 C1685 1.399 . S
C1686 C1687 1.385 . S
C1687 H1673 0.931 . S
C1687 C1686 1.385 . S
C1687 C1688 1.389 . S
C1688 C1687 1.389 . S
C1688 C1689 1.387 . S
C1689 H1674 0.930 . S
C1689 C1684 1.390 . S
C1689 C1688 1.387 . S
H1690 C1702 0.930 . S
H1691 C1704 0.930 . S
H1692 C1705 0.930 . S
H1693 C1709 0.959 . S
H1694 C1709 0.959 . S
H1695 C1709 0.961 . S
H1696 C1710 0.960 . S
H1697 C1710 0.961 . S
H1698 C1710 0.959 . S
H1699 C1713 0.929 . S
H1700 C1714 0.931 . S
H1701 C1716 0.930 . S
C1702 H1690 0.930 . S
C1702 C1703 1.399 . S
C1702 C1707 1.399 . S
C1703 C1702 1.399 . S
C1703 C1704 1.376 . S
C1704 H1691 0.930 . S
C1704 C1703 1.376 . S
C1704 C1705 1.388 . S
C1705 H1692 0.930 . S
C1705 C1704 1.388 . S
C1705 C1706 1.390 . S
C1706 C1705 1.390 . S
C1706 C1707 1.394 . S
C1706 C1712 1.465 . S
C1707 C1702 1.399 . S
C1707 C1706 1.394 . S
C1707 C1708 1.516 . S
C1708 C1707 1.516 . S
C1708 C1709 1.502 . S
C1708 C1710 1.561 . S
C1708 C1711 1.526 . S
C1709 H1693 0.959 . S
C1709 H1694 0.959 . S
C1709 H1695 0.961 . S
C1709 C1708 1.502 . S
C1710 H1696 0.960 . S
C1710 H1697 0.961 . S
C1710 H1698 0.959 . S
C1710 C1708 1.561 . S
C1711 C1708 1.526 . S
C1711 C1712 1.396 . S
C1711 C1716 1.390 . S
C1712 C1706 1.465 . S
C1712 C1711 1.396 . S
C1712 C1713 1.399 . S
C1713 H1699 0.929 . S
C1713 C1712 1.399 . S
C1713 C1714 1.385 . S
C1714 H1700 0.931 . S
C1714 C1713 1.385 . S
C1714 C1715 1.389 . S
C1715 C1714 1.389 . S
C1715 C1716 1.387 . S
C1716 H1701 0.930 . S
C1716 C1711 1.390 . S
C1716 C1715 1.387 . S
H1717 C1729 0.930 . S
H1718 C1731 0.930 . S
H1719 C1732 0.930 . S
H1720 C1736 0.959 . S
H1721 C1736 0.959 . S
H1722 C1736 0.961 . S
H1723 C1737 0.960 . S
H1724 C1737 0.961 . S
H1725 C1737 0.959 . S
H1726 C1740 0.929 . S
H1727 C1741 0.931 . S
H1728 C1743 0.930 . S
C1729 H1717 0.930 . S
C1729 C1730 1.399 . S
C1729 C1734 1.399 . S
C1730 C1729 1.399 . S
C1730 C1731 1.376 . S
C1731 H1718 0.930 . S
C1731 C1730 1.376 . S
C1731 C1732 1.388 . S
C1732 H1719 0.930 . S
C1732 C1731 1.388 . S
C1732 C1733 1.390 . S
C1733 C1732 1.390 . S
C1733 C1734 1.394 . S
C1733 C1739 1.465 . S
C1734 C1729 1.399 . S
C1734 C1733 1.394 . S
C1734 C1735 1.516 . S
C1735 C1734 1.516 . S
C1735 C1736 1.502 . S
C1735 C1737 1.561 . S
C1735 C1738 1.526 . S
C1736 H1720 0.959 . S
C1736 H1721 0.959 . S
C1736 H1722 0.961 . S
C1736 C1735 1.502 . S
C1737 H1723 0.960 . S
C1737 H1724 0.961 . S
C1737 H1725 0.959 . S
C1737 C1735 1.561 . S
C1738 C1735 1.526 . S
C1738 C1739 1.396 . S
C1738 C1743 1.390 . S
C1739 C1733 1.465 . S
C1739 C1738 1.396 . S
C1739 C1740 1.399 . S
C1740 H1726 0.929 . S
C1740 C1739 1.399 . S
C1740 C1741 1.385 . S
C1741 H1727 0.931 . S
C1741 C1740 1.385 . S
C1741 C1742 1.389 . S
C1742 C1741 1.389 . S
C1742 C1743 1.387 . S
C1743 H1728 0.930 . S
C1743 C1738 1.390 . S
C1743 C1742 1.387 . S
H1744 C1756 0.930 . S
H1745 C1758 0.930 . S
H1746 C1759 0.930 . S
H1747 C1763 0.959 . S
H1748 C1763 0.959 . S
H1749 C1763 0.961 . S
H1750 C1764 0.960 . S
H1751 C1764 0.961 . S
H1752 C1764 0.959 . S
H1753 C1767 0.929 . S
H1754 C1768 0.931 . S
H1755 C1770 0.930 . S
C1756 H1744 0.930 . S
C1756 C1757 1.399 . S
C1756 C1761 1.399 . S
C1757 C1756 1.399 . S
C1757 C1758 1.376 . S
C1758 H1745 0.930 . S
C1758 C1757 1.376 . S
C1758 C1759 1.388 . S
C1759 H1746 0.930 . S
C1759 C1758 1.388 . S
C1759 C1760 1.390 . S
C1760 C1759 1.390 . S
C1760 C1761 1.394 . S
C1760 C1766 1.465 . S
C1761 C1756 1.399 . S
C1761 C1760 1.394 . S
C1761 C1762 1.516 . S
C1762 C1761 1.516 . S
C1762 C1763 1.502 . S
C1762 C1764 1.561 . S
C1762 C1765 1.526 . S
C1763 H1747 0.959 . S
C1763 H1748 0.959 . S
C1763 H1749 0.961 . S
C1763 C1762 1.502 . S
C1764 H1750 0.960 . S
C1764 H1751 0.961 . S
C1764 H1752 0.959 . S
C1764 C1762 1.561 . S
C1765 C1762 1.526 . S
C1765 C1766 1.396 . S
C1765 C1770 1.390 . S
C1766 C1760 1.465 . S
C1766 C1765 1.396 . S
C1766 C1767 1.399 . S
C1767 H1753 0.929 . S
C1767 C1766 1.399 . S
C1767 C1768 1.385 . S
C1768 H1754 0.931 . S
C1768 C1767 1.385 . S
C1768 C1769 1.389 . S
C1769 C1768 1.389 . S
C1769 C1770 1.387 . S
C1770 H1755 0.930 . S
C1770 C1765 1.390 . S
C1770 C1769 1.387 . S
H1771 C1783 0.930 . S
H1772 C1785 0.930 . S
H1773 C1786 0.930 . S
H1774 C1790 0.959 . S
H1775 C1790 0.959 . S
H1776 C1790 0.961 . S
H1777 C1791 0.960 . S
H1778 C1791 0.961 . S
H1779 C1791 0.959 . S
H1780 C1794 0.929 . S
H1781 C1795 0.931 . S
H1782 C1797 0.930 . S
C1783 H1771 0.930 . S
C1783 C1784 1.399 . S
C1783 C1788 1.399 . S
C1784 C1783 1.399 . S
C1784 C1785 1.376 . S
C1785 H1772 0.930 . S
C1785 C1784 1.376 . S
C1785 C1786 1.388 . S
C1786 H1773 0.930 . S
C1786 C1785 1.388 . S
C1786 C1787 1.390 . S
C1787 C1786 1.390 . S
C1787 C1788 1.394 . S
C1787 C1793 1.465 . S
C1788 C1783 1.399 . S
C1788 C1787 1.394 . S
C1788 C1789 1.516 . S
C1789 C1788 1.516 . S
C1789 C1790 1.502 . S
C1789 C1791 1.561 . S
C1789 C1792 1.526 . S
C1790 H1774 0.959 . S
C1790 H1775 0.959 . S
C1790 H1776 0.961 . S
C1790 C1789 1.502 . S
C1791 H1777 0.960 . S
C1791 H1778 0.961 . S
C1791 H1779 0.959 . S
C1791 C1789 1.561 . S
C1792 C1789 1.526 . S
C1792 C1793 1.396 . S
C1792 C1797 1.390 . S
C1793 C1787 1.465 . S
C1793 C1792 1.396 . S
C1793 C1794 1.399 . S
C1794 H1780 0.929 . S
C1794 C1793 1.399 . S
C1794 C1795 1.385 . S
C1795 H1781 0.931 . S
C1795 C1794 1.385 . S
C1795 C1796 1.389 . S
C1796 C1795 1.389 . S
C1796 C1797 1.387 . S
C1797 H1782 0.930 . S
C1797 C1792 1.390 . S
C1797 C1796 1.387 . S
H1798 C1810 0.930 . S
H1799 C1812 0.930 . S
H1800 C1813 0.930 . S
H1801 C1817 0.959 . S
H1802 C1817 0.959 . S
H1803 C1817 0.961 . S
H1804 C1818 0.960 . S
H1805 C1818 0.961 . S
H1806 C1818 0.959 . S
H1807 C1821 0.929 . S
H1808 C1822 0.931 . S
H1809 C1824 0.930 . S
C1810 H1798 0.930 . S
C1810 C1811 1.399 . S
C1810 C1815 1.399 . S
C1811 C1810 1.399 . S
C1811 C1812 1.376 . S
C1812 H1799 0.930 . S
C1812 C1811 1.376 . S
C1812 C1813 1.388 . S
C1813 H1800 0.930 . S
C1813 C1812 1.388 . S
C1813 C1814 1.390 . S
C1814 C1813 1.390 . S
C1814 C1815 1.394 . S
C1814 C1820 1.465 . S
C1815 C1810 1.399 . S
C1815 C1814 1.394 . S
C1815 C1816 1.516 . S
C1816 C1815 1.516 . S
C1816 C1817 1.502 . S
C1816 C1818 1.561 . S
C1816 C1819 1.526 . S
C1817 H1801 0.959 . S
C1817 H1802 0.959 . S
C1817 H1803 0.961 . S
C1817 C1816 1.502 . S
C1818 H1804 0.960 . S
C1818 H1805 0.961 . S
C1818 H1806 0.959 . S
C1818 C1816 1.561 . S
C1819 C1816 1.526 . S
C1819 C1820 1.396 . S
C1819 C1824 1.390 . S
C1820 C1814 1.465 . S
C1820 C1819 1.396 . S
C1820 C1821 1.399 . S
C1821 H1807 0.929 . S
C1821 C1820 1.399 . S
C1821 C1822 1.385 . S
C1822 H1808 0.931 . S
C1822 C1821 1.385 . S
C1822 C1823 1.389 . S
C1823 C1822 1.389 . S
C1823 C1824 1.387 . S
C1824 H1809 0.930 . S
C1824 C1819 1.390 . S
C1824 C1823 1.387 . S
H1825 C1837 0.930 . S
H1826 C1839 0.930 . S
H1827 C1840 0.930 . S
H1828 C1844 0.959 . S
H1829 C1844 0.959 . S
H1830 C1844 0.961 . S
H1831 C1845 0.960 . S
H1832 C1845 0.961 . S
H1833 C1845 0.959 . S
H1834 C1848 0.929 . S
H1835 C1849 0.931 . S
H1836 C1851 0.930 . S
C1837 H1825 0.930 . S
C1837 C1838 1.399 . S
C1837 C1842 1.399 . S
C1838 C1837 1.399 . S
C1838 C1839 1.376 . S
C1839 H1826 0.930 . S
C1839 C1838 1.376 . S
C1839 C1840 1.388 . S
C1840 H1827 0.930 . S
C1840 C1839 1.388 . S
C1840 C1841 1.390 . S
C1841 C1840 1.390 . S
C1841 C1842 1.394 . S
C1841 C1847 1.465 . S
C1842 C1837 1.399 . S
C1842 C1841 1.394 . S
C1842 C1843 1.516 . S
C1843 C1842 1.516 . S
C1843 C1844 1.502 . S
C1843 C1845 1.561 . S
C1843 C1846 1.526 . S
C1844 H1828 0.959 . S
C1844 H1829 0.959 . S
C1844 H1830 0.961 . S
C1844 C1843 1.502 . S
C1845 H1831 0.960 . S
C1845 H1832 0.961 . S
C1845 H1833 0.959 . S
C1845 C1843 1.561 . S
C1846 C1843 1.526 . S
C1846 C1847 1.396 . S
C1846 C1851 1.390 . S
C1847 C1841 1.465 . S
C1847 C1846 1.396 . S
C1847 C1848 1.399 . S
C1848 H1834 0.929 . S
C1848 C1847 1.399 . S
C1848 C1849 1.385 . S
C1849 H1835 0.931 . S
C1849 C1848 1.385 . S
C1849 C1850 1.389 . S
C1850 C1849 1.389 . S
C1850 C1851 1.387 . S
C1851 H1836 0.930 . S
C1851 C1846 1.390 . S
C1851 C1850 1.387 . S
H1852 C1864 0.930 . S
H1853 C1866 0.930 . S
H1854 C1867 0.930 . S
H1855 C1871 0.959 . S
H1856 C1871 0.959 . S
H1857 C1871 0.961 . S
H1858 C1872 0.960 . S
H1859 C1872 0.961 . S
H1860 C1872 0.959 . S
H1861 C1875 0.929 . S
H1862 C1876 0.931 . S
H1863 C1878 0.930 . S
C1864 H1852 0.930 . S
C1864 C1865 1.399 . S
C1864 C1869 1.399 . S
C1865 C1864 1.399 . S
C1865 C1866 1.376 . S
C1866 H1853 0.930 . S
C1866 C1865 1.376 . S
C1866 C1867 1.388 . S
C1867 H1854 0.930 . S
C1867 C1866 1.388 . S
C1867 C1868 1.390 . S
C1868 C1867 1.390 . S
C1868 C1869 1.394 . S
C1868 C1874 1.465 . S
C1869 C1864 1.399 . S
C1869 C1868 1.394 . S
C1869 C1870 1.516 . S
C1870 C1869 1.516 . S
C1870 C1871 1.502 . S
C1870 C1872 1.561 . S
C1870 C1873 1.526 . S
C1871 H1855 0.959 . S
C1871 H1856 0.959 . S
C1871 H1857 0.961 . S
C1871 C1870 1.502 . S
C1872 H1858 0.960 . S
C1872 H1859 0.961 . S
C1872 H1860 0.959 . S
C1872 C1870 1.561 . S
C1873 C1870 1.526 . S
C1873 C1874 1.396 . S
C1873 C1878 1.390 . S
C1874 C1868 1.465 . S
C1874 C1873 1.396 . S
C1874 C1875 1.399 . S
C1875 H1861 0.929 . S
C1875 C1874 1.399 . S
C1875 C1876 1.385 . S
C1876 H1862 0.931 . S
C1876 C1875 1.385 . S
C1876 C1877 1.389 . S
C1877 C1876 1.389 . S
C1877 C1878 1.387 . S
C1878 H1863 0.930 . S
C1878 C1873 1.390 . S
C1878 C1877 1.387 . S
H1879 C1891 0.930 . S
H1880 C1893 0.930 . S
H1881 C1894 0.930 . S
H1882 C1898 0.959 . S
H1883 C1898 0.959 . S
H1884 C1898 0.961 . S
H1885 C1899 0.960 . S
H1886 C1899 0.961 . S
H1887 C1899 0.959 . S
H1888 C1902 0.929 . S
H1889 C1903 0.931 . S
H1890 C1905 0.930 . S
C1891 H1879 0.930 . S
C1891 C1892 1.399 . S
C1891 C1896 1.399 . S
C1892 C1891 1.399 . S
C1892 C1893 1.376 . S
C1893 H1880 0.930 . S
C1893 C1892 1.376 . S
C1893 C1894 1.388 . S
C1894 H1881 0.930 . S
C1894 C1893 1.388 . S
C1894 C1895 1.390 . S
C1895 C1894 1.390 . S
C1895 C1896 1.394 . S
C1895 C1901 1.465 . S
C1896 C1891 1.399 . S
C1896 C1895 1.394 . S
C1896 C1897 1.516 . S
C1897 C1896 1.516 . S
C1897 C1898 1.502 . S
C1897 C1899 1.561 . S
C1897 C1900 1.526 . S
C1898 H1882 0.959 . S
C1898 H1883 0.959 . S
C1898 H1884 0.961 . S
C1898 C1897 1.502 . S
C1899 H1885 0.960 . S
C1899 H1886 0.961 . S
C1899 H1887 0.959 . S
C1899 C1897 1.561 . S
C1900 C1897 1.526 . S
C1900 C1901 1.396 . S
C1900 C1905 1.390 . S
C1901 C1895 1.465 . S
C1901 C1900 1.396 . S
C1901 C1902 1.399 . S
C1902 H1888 0.929 . S
C1902 C1901 1.399 . S
C1902 C1903 1.385 . S
C1903 H1889 0.931 . S
C1903 C1902 1.385 . S
C1903 C1904 1.389 . S
C1904 C1903 1.389 . S
C1904 C1905 1.387 . S
C1905 H1890 0.930 . S
C1905 C1900 1.390 . S
C1905 C1904 1.387 . S
H1906 C1918 0.930 . S
H1907 C1920 0.930 . S
H1908 C1921 0.930 . S
H1909 C1925 0.959 . S
H1910 C1925 0.959 . S
H1911 C1925 0.961 . S
H1912 C1926 0.960 . S
H1913 C1926 0.961 . S
H1914 C1926 0.959 . S
H1915 C1929 0.929 . S
H1916 C1930 0.931 . S
H1917 C1932 0.930 . S
C1918 H1906 0.930 . S
C1918 C1919 1.399 . S
C1918 C1923 1.399 . S
C1919 C1918 1.399 . S
C1919 C1920 1.376 . S
C1920 H1907 0.930 . S
C1920 C1919 1.376 . S
C1920 C1921 1.388 . S
C1921 H1908 0.930 . S
C1921 C1920 1.388 . S
C1921 C1922 1.390 . S
C1922 C1921 1.390 . S
C1922 C1923 1.394 . S
C1922 C1928 1.465 . S
C1923 C1918 1.399 . S
C1923 C1922 1.394 . S
C1923 C1924 1.516 . S
C1924 C1923 1.516 . S
C1924 C1925 1.502 . S
C1924 C1926 1.561 . S
C1924 C1927 1.526 . S
C1925 H1909 0.959 . S
C1925 H1910 0.959 . S
C1925 H1911 0.961 . S
C1925 C1924 1.502 . S
C1926 H1912 0.960 . S
C1926 H1913 0.961 . S
C1926 H1914 0.959 . S
C1926 C1924 1.561 . S
C1927 C1924 1.526 . S
C1927 C1928 1.396 . S
C1927 C1932 1.390 . S
C1928 C1922 1.465 . S
C1928 C1927 1.396 . S
C1928 C1929 1.399 . S
C1929 H1915 0.929 . S
C1929 C1928 1.399 . S
C1929 C1930 1.385 . S
C1930 H1916 0.931 . S
C1930 C1929 1.385 . S
C1930 C1931 1.389 . S
C1931 C1930 1.389 . S
C1931 C1932 1.387 . S
C1932 H1917 0.930 . S
C1932 C1927 1.390 . S
C1932 C1931 1.387 . S
H1933 C1945 0.930 . S
H1934 C1947 0.930 . S
H1935 C1948 0.930 . S
H1936 C1952 0.959 . S
H1937 C1952 0.959 . S
H1938 C1952 0.961 . S
H1939 C1953 0.960 . S
H1940 C1953 0.961 . S
H1941 C1953 0.959 . S
H1942 C1956 0.929 . S
H1943 C1957 0.931 . S
H1944 C1959 0.930 . S
C1945 H1933 0.930 . S
C1945 C1946 1.399 . S
C1945 C1950 1.399 . S
C1946 C1945 1.399 . S
C1946 C1947 1.376 . S
C1947 H1934 0.930 . S
C1947 C1946 1.376 . S
C1947 C1948 1.388 . S
C1948 H1935 0.930 . S
C1948 C1947 1.388 . S
C1948 C1949 1.390 . S
C1949 C1948 1.390 . S
C1949 C1950 1.394 . S
C1949 C1955 1.465 . S
C1950 C1945 1.399 . S
C1950 C1949 1.394 . S
C1950 C1951 1.516 . S
C1951 C1950 1.516 . S
C1951 C1952 1.502 . S
C1951 C1953 1.561 . S
C1951 C1954 1.526 . S
C1952 H1936 0.959 . S
C1952 H1937 0.959 . S
C1952 H1938 0.961 . S
C1952 C1951 1.502 . S
C1953 H1939 0.960 . S
C1953 H1940 0.961 . S
C1953 H1941 0.959 . S
C1953 C1951 1.561 . S
C1954 C1951 1.526 . S
C1954 C1955 1.396 . S
C1954 C1959 1.390 . S
C1955 C1949 1.465 . S
C1955 C1954 1.396 . S
C1955 C1956 1.399 . S
C1956 H1942 0.929 . S
C1956 C1955 1.399 . S
C1956 C1957 1.385 . S
C1957 H1943 0.931 . S
C1957 C1956 1.385 . S
C1957 C1958 1.389 . S
C1958 C1957 1.389 . S
C1958 C1959 1.387 . S
C1959 H1944 0.930 . S
C1959 C1954 1.390 . S
C1959 C1958 1.387 . S
H1960 C1972 0.930 . S
H1961 C1974 0.930 . S
H1962 C1975 0.930 . S
H1963 C1979 0.959 . S
H1964 C1979 0.959 . S
H1965 C1979 0.961 . S
H1966 C1980 0.960 . S
H1967 C1980 0.961 . S
H1968 C1980 0.959 . S
H1969 C1983 0.929 . S
H1970 C1984 0.931 . S
H1971 C1986 0.930 . S
C1972 H1960 0.930 . S
C1972 C1973 1.399 . S
C1972 C1977 1.399 . S
C1973 C1972 1.399 . S
C1973 C1974 1.376 . S
C1974 H1961 0.930 . S
C1974 C1973 1.376 . S
C1974 C1975 1.388 . S
C1975 H1962 0.930 . S
C1975 C1974 1.388 . S
C1975 C1976 1.390 . S
C1976 C1975 1.390 . S
C1976 C1977 1.394 . S
C1976 C1982 1.465 . S
C1977 C1972 1.399 . S
C1977 C1976 1.394 . S
C1977 C1978 1.516 . S
C1978 C1977 1.516 . S
C1978 C1979 1.502 . S
C1978 C1980 1.561 . S
C1978 C1981 1.526 . S
C1979 H1963 0.959 . S
C1979 H1964 0.959 . S
C1979 H1965 0.961 . S
C1979 C1978 1.502 . S
C1980 H1966 0.960 . S
C1980 H1967 0.961 . S
C1980 H1968 0.959 . S
C1980 C1978 1.561 . S
C1981 C1978 1.526 . S
C1981 C1982 1.396 . S
C1981 C1986 1.390 . S
C1982 C1976 1.465 . S
C1982 C1981 1.396 . S
C1982 C1983 1.399 . S
C1983 H1969 0.929 . S
C1983 C1982 1.399 . S
C1983 C1984 1.385 . S
C1984 H1970 0.931 . S
C1984 C1983 1.385 . S
C1984 C1985 1.389 . S
C1985 C1984 1.389 . S
C1985 C1986 1.387 . S
C1986 H1971 0.930 . S
C1986 C1981 1.390 . S
C1986 C1985 1.387 . S
H1987 C1999 0.930 . S
H1988 C2001 0.930 . S
H1989 C2002 0.930 . S
H1990 C2006 0.959 . S
H1991 C2006 0.959 . S
H1992 C2006 0.961 . S
H1993 C2007 0.960 . S
H1994 C2007 0.961 . S
H1995 C2007 0.959 . S
H1996 C2010 0.929 . S
H1997 C2011 0.931 . S
H1998 C2013 0.930 . S
C1999 H1987 0.930 . S
C1999 C2000 1.399 . S
C1999 C2004 1.399 . S
C2000 C1999 1.399 . S
C2000 C2001 1.376 . S
C2001 H1988 0.930 . S
C2001 C2000 1.376 . S
C2001 C2002 1.388 . S
C2002 H1989 0.930 . S
C2002 C2001 1.388 . S
C2002 C2003 1.390 . S
C2003 C2002 1.390 . S
C2003 C2004 1.394 . S
C2003 C2009 1.465 . S
C2004 C1999 1.399 . S
C2004 C2003 1.394 . S
C2004 C2005 1.516 . S
C2005 C2004 1.516 . S
C2005 C2006 1.502 . S
C2005 C2007 1.561 . S
C2005 C2008 1.526 . S
C2006 H1990 0.959 . S
C2006 H1991 0.959 . S
C2006 H1992 0.961 . S
C2006 C2005 1.502 . S
C2007 H1993 0.960 . S
C2007 H1994 0.961 . S
C2007 H1995 0.959 . S
C2007 C2005 1.561 . S
C2008 C2005 1.526 . S
C2008 C2009 1.396 . S
C2008 C2013 1.390 . S
C2009 C2003 1.465 . S
C2009 C2008 1.396 . S
C2009 C2010 1.399 . S
C2010 H1996 0.929 . S
C2010 C2009 1.399 . S
C2010 C2011 1.385 . S
C2011 H1997 0.931 . S
C2011 C2010 1.385 . S
C2011 C2012 1.389 . S
C2012 C2011 1.389 . S
C2012 C2013 1.387 . S
C2013 H1998 0.930 . S
C2013 C2008 1.390 . S
C2013 C2012 1.387 . S
H2014 C2026 0.930 . S
H2015 C2028 0.930 . S
H2016 C2029 0.930 . S
H2017 C2033 0.959 . S
H2018 C2033 0.959 . S
H2019 C2033 0.961 . S
H2020 C2034 0.960 . S
H2021 C2034 0.961 . S
H2022 C2034 0.959 . S
H2023 C2037 0.929 . S
H2024 C2038 0.931 . S
H2025 C2040 0.930 . S
C2026 H2014 0.930 . S
C2026 C2027 1.399 . S
C2026 C2031 1.399 . S
C2027 C2026 1.399 . S
C2027 C2028 1.376 . S
C2028 H2015 0.930 . S
C2028 C2027 1.376 . S
C2028 C2029 1.388 . S
C2029 H2016 0.930 . S
C2029 C2028 1.388 . S
C2029 C2030 1.390 . S
C2030 C2029 1.390 . S
C2030 C2031 1.394 . S
C2030 C2036 1.465 . S
C2031 C2026 1.399 . S
C2031 C2030 1.394 . S
C2031 C2032 1.516 . S
C2032 C2031 1.516 . S
C2032 C2033 1.502 . S
C2032 C2034 1.561 . S
C2032 C2035 1.526 . S
C2033 H2017 0.959 . S
C2033 H2018 0.959 . S
C2033 H2019 0.961 . S
C2033 C2032 1.502 . S
C2034 H2020 0.960 . S
C2034 H2021 0.961 . S
C2034 H2022 0.959 . S
C2034 C2032 1.561 . S
C2035 C2032 1.526 . S
C2035 C2036 1.396 . S
C2035 C2040 1.390 . S
C2036 C2030 1.465 . S
C2036 C2035 1.396 . S
C2036 C2037 1.399 . S
C2037 H2023 0.929 . S
C2037 C2036 1.399 . S
C2037 C2038 1.385 . S
C2038 H2024 0.931 . S
C2038 C2037 1.385 . S
C2038 C2039 1.389 . S
C2039 C2038 1.389 . S
C2039 C2040 1.387 . S
C2040 H2025 0.930 . S
C2040 C2035 1.390 . S
C2040 C2039 1.387 . S
H2041 C2053 0.930 . S
H2042 C2055 0.930 . S
H2043 C2056 0.930 . S
H2044 C2060 0.959 . S
H2045 C2060 0.959 . S
H2046 C2060 0.961 . S
H2047 C2061 0.960 . S
H2048 C2061 0.961 . S
H2049 C2061 0.959 . S
H2050 C2064 0.929 . S
H2051 C2065 0.931 . S
H2052 C2067 0.930 . S
C2053 H2041 0.930 . S
C2053 C2054 1.399 . S
C2053 C2058 1.399 . S
C2054 C2053 1.399 . S
C2054 C2055 1.376 . S
C2055 H2042 0.930 . S
C2055 C2054 1.376 . S
C2055 C2056 1.388 . S
C2056 H2043 0.930 . S
C2056 C2055 1.388 . S
C2056 C2057 1.390 . S
C2057 C2056 1.390 . S
C2057 C2058 1.394 . S
C2057 C2063 1.465 . S
C2058 C2053 1.399 . S
C2058 C2057 1.394 . S
C2058 C2059 1.516 . S
C2059 C2058 1.516 . S
C2059 C2060 1.502 . S
C2059 C2061 1.561 . S
C2059 C2062 1.526 . S
C2060 H2044 0.959 . S
C2060 H2045 0.959 . S
C2060 H2046 0.961 . S
C2060 C2059 1.502 . S
C2061 H2047 0.960 . S
C2061 H2048 0.961 . S
C2061 H2049 0.959 . S
C2061 C2059 1.561 . S
C2062 C2059 1.526 . S
C2062 C2063 1.396 . S
C2062 C2067 1.390 . S
C2063 C2057 1.465 . S
C2063 C2062 1.396 . S
C2063 C2064 1.399 . S
C2064 H2050 0.929 . S
C2064 C2063 1.399 . S
C2064 C2065 1.385 . S
C2065 H2051 0.931 . S
C2065 C2064 1.385 . S
C2065 C2066 1.389 . S
C2066 C2065 1.389 . S
C2066 C2067 1.387 . S
C2067 H2052 0.930 . S
C2067 C2062 1.390 . S
C2067 C2066 1.387 . S
H2068 C2080 0.930 . S
H2069 C2082 0.930 . S
H2070 C2083 0.930 . S
H2071 C2087 0.959 . S
H2072 C2087 0.959 . S
H2073 C2087 0.961 . S
H2074 C2088 0.960 . S
H2075 C2088 0.961 . S
H2076 C2088 0.959 . S
H2077 C2091 0.929 . S
H2078 C2092 0.931 . S
H2079 C2094 0.930 . S
C2080 H2068 0.930 . S
C2080 C2081 1.399 . S
C2080 C2085 1.399 . S
C2081 C2080 1.399 . S
C2081 C2082 1.376 . S
C2082 H2069 0.930 . S
C2082 C2081 1.376 . S
C2082 C2083 1.388 . S
C2083 H2070 0.930 . S
C2083 C2082 1.388 . S
C2083 C2084 1.390 . S
C2084 C2083 1.390 . S
C2084 C2085 1.394 . S
C2084 C2090 1.465 . S
C2085 C2080 1.399 . S
C2085 C2084 1.394 . S
C2085 C2086 1.516 . S
C2086 C2085 1.516 . S
C2086 C2087 1.502 . S
C2086 C2088 1.561 . S
C2086 C2089 1.526 . S
C2087 H2071 0.959 . S
C2087 H2072 0.959 . S
C2087 H2073 0.961 . S
C2087 C2086 1.502 . S
C2088 H2074 0.960 . S
C2088 H2075 0.961 . S
C2088 H2076 0.959 . S
C2088 C2086 1.561 . S
C2089 C2086 1.526 . S
C2089 C2090 1.396 . S
C2089 C2094 1.390 . S
C2090 C2084 1.465 . S
C2090 C2089 1.396 . S
C2090 C2091 1.399 . S
C2091 H2077 0.929 . S
C2091 C2090 1.399 . S
C2091 C2092 1.385 . S
C2092 H2078 0.931 . S
C2092 C2091 1.385 . S
C2092 C2093 1.389 . S
C2093 C2092 1.389 . S
C2093 C2094 1.387 . S
C2094 H2079 0.930 . S
C2094 C2089 1.390 . S
C2094 C2093 1.387 . S
H2095 C2107 0.930 . S
H2096 C2109 0.930 . S
H2097 C2110 0.930 . S
H2098 C2114 0.959 . S
H2099 C2114 0.959 . S
H2100 C2114 0.961 . S
H2101 C2115 0.960 . S
H2102 C2115 0.961 . S
H2103 C2115 0.959 . S
H2104 C2118 0.929 . S
H2105 C2119 0.931 . S
H2106 C2121 0.930 . S
C2107 H2095 0.930 . S
C2107 C2108 1.399 . S
C2107 C2112 1.399 . S
C2108 C2107 1.399 . S
C2108 C2109 1.376 . S
C2109 H2096 0.930 . S
C2109 C2108 1.376 . S
C2109 C2110 1.388 . S
C2110 H2097 0.930 . S
C2110 C2109 1.388 . S
C2110 C2111 1.390 . S
C2111 C2110 1.390 . S
C2111 C2112 1.394 . S
C2111 C2117 1.465 . S
C2112 C2107 1.399 . S
C2112 C2111 1.394 . S
C2112 C2113 1.516 . S
C2113 C2112 1.516 . S
C2113 C2114 1.502 . S
C2113 C2115 1.561 . S
C2113 C2116 1.526 . S
C2114 H2098 0.959 . S
C2114 H2099 0.959 . S
C2114 H2100 0.961 . S
C2114 C2113 1.502 . S
C2115 H2101 0.960 . S
C2115 H2102 0.961 . S
C2115 H2103 0.959 . S
C2115 C2113 1.561 . S
C2116 C2113 1.526 . S
C2116 C2117 1.396 . S
C2116 C2121 1.390 . S
C2117 C2111 1.465 . S
C2117 C2116 1.396 . S
C2117 C2118 1.399 . S
C2118 H2104 0.929 . S
C2118 C2117 1.399 . S
C2118 C2119 1.385 . S
C2119 H2105 0.931 . S
C2119 C2118 1.385 . S
C2119 C2120 1.389 . S
C2120 C2119 1.389 . S
C2120 C2121 1.387 . S
C2121 H2106 0.930 . S
C2121 C2116 1.390 . S
C2121 C2120 1.387 . S
H2122 C2134 0.930 . S
H2123 C2136 0.930 . S
H2124 C2137 0.930 . S
H2125 C2141 0.959 . S
H2126 C2141 0.959 . S
H2127 C2141 0.961 . S
H2128 C2142 0.960 . S
H2129 C2142 0.961 . S
H2130 C2142 0.959 . S
H2131 C2145 0.929 . S
H2132 C2146 0.931 . S
H2133 C2148 0.930 . S
C2134 H2122 0.930 . S
C2134 C2135 1.399 . S
C2134 C2139 1.399 . S
C2135 C2134 1.399 . S
C2135 C2136 1.376 . S
C2136 H2123 0.930 . S
C2136 C2135 1.376 . S
C2136 C2137 1.388 . S
C2137 H2124 0.930 . S
C2137 C2136 1.388 . S
C2137 C2138 1.390 . S
C2138 C2137 1.390 . S
C2138 C2139 1.394 . S
C2138 C2144 1.465 . S
C2139 C2134 1.399 . S
C2139 C2138 1.394 . S
C2139 C2140 1.516 . S
C2140 C2139 1.516 . S
C2140 C2141 1.502 . S
C2140 C2142 1.561 . S
C2140 C2143 1.526 . S
C2141 H2125 0.959 . S
C2141 H2126 0.959 . S
C2141 H2127 0.961 . S
C2141 C2140 1.502 . S
C2142 H2128 0.960 . S
C2142 H2129 0.961 . S
C2142 H2130 0.959 . S
C2142 C2140 1.561 . S
C2143 C2140 1.526 . S
C2143 C2144 1.396 . S
C2143 C2148 1.390 . S
C2144 C2138 1.465 . S
C2144 C2143 1.396 . S
C2144 C2145 1.399 . S
C2145 H2131 0.929 . S
C2145 C2144 1.399 . S
C2145 C2146 1.385 . S
C2146 H2132 0.931 . S
C2146 C2145 1.385 . S
C2146 C2147 1.389 . S
C2147 C2146 1.389 . S
C2147 C2148 1.387 . S
C2148 H2133 0.930 . S
C2148 C2143 1.390 . S
C2148 C2147 1.387 . S
H2149 C2161 0.930 . S
H2150 C2163 0.930 . S
H2151 C2164 0.930 . S
H2152 C2168 0.959 . S
H2153 C2168 0.959 . S
H2154 C2168 0.961 . S
H2155 C2169 0.960 . S
H2156 C2169 0.961 . S
H2157 C2169 0.959 . S
H2158 C2172 0.929 . S
H2159 C2173 0.931 . S
H2160 C2175 0.930 . S
C2161 H2149 0.930 . S
C2161 C2162 1.399 . S
C2161 C2166 1.399 . S
C2162 C2161 1.399 . S
C2162 C2163 1.376 . S
C2163 H2150 0.930 . S
C2163 C2162 1.376 . S
C2163 C2164 1.388 . S
C2164 H2151 0.930 . S
C2164 C2163 1.388 . S
C2164 C2165 1.390 . S
C2165 C2164 1.390 . S
C2165 C2166 1.394 . S
C2165 C2171 1.465 . S
C2166 C2161 1.399 . S
C2166 C2165 1.394 . S
C2166 C2167 1.516 . S
C2167 C2166 1.516 . S
C2167 C2168 1.502 . S
C2167 C2169 1.561 . S
C2167 C2170 1.526 . S
C2168 H2152 0.959 . S
C2168 H2153 0.959 . S
C2168 H2154 0.961 . S
C2168 C2167 1.502 . S
C2169 H2155 0.960 . S
C2169 H2156 0.961 . S
C2169 H2157 0.959 . S
C2169 C2167 1.561 . S
C2170 C2167 1.526 . S
C2170 C2171 1.396 . S
C2170 C2175 1.390 . S
C2171 C2165 1.465 . S
C2171 C2170 1.396 . S
C2171 C2172 1.399 . S
C2172 H2158 0.929 . S
C2172 C2171 1.399 . S
C2172 C2173 1.385 . S
C2173 H2159 0.931 . S
C2173 C2172 1.385 . S
C2173 C2174 1.389 . S
C2174 C2173 1.389 . S
C2174 C2175 1.387 . S
C2175 H2160 0.930 . S
C2175 C2170 1.390 . S
C2175 C2174 1.387 . S
C461 C6 1.490 . S
C473 C62 1.557 . S
C488 C20 1.539 . S
C500 C76 1.510 . S
C515 C90 1.551 . S
C527 C34 1.494 . S
C542 C104 1.547 . S
C554 C48 1.501 . S
C569 C118 1.547 . S
C581 C174 1.483 . S
C596 C132 1.562 . S
C608 C188 1.502 . S
C623 C202 1.512 . S
C635 C146 1.510 . S
C650 C160 1.485 . S
C662 C216 1.542 . S
C677 C286 1.559 . S
C689 C230 1.485 . S
C704 C300 1.552 . S
C716 C244 1.496 . S
C731 C258 1.516 . S
C743 C314 1.533 . S
C758 C328 1.532 . S
C770 C272 1.517 . S
C785 C342 1.492 . S
C797 C398 1.565 . S
C812 C412 1.567 . S
C824 C356 1.488 . S
C839 C426 1.543 . S
C851 C370 1.485 . S
C866 C384 1.491 . S
C878 C440 1.533 . S
C893 C9 1.585 . S
C905 C386 1.654 . S
C920 C120 1.660 . S
C932 C23 1.638 . S
C947 C37 1.641 . S
C959 C358 1.655 . S
C974 C51 1.617 . S
C986 C148 1.647 . S
C1001 C414 1.652 . S
C1013 C65 1.584 . S
C1028 C204 1.661 . S
C1040 C79 1.632 . S
C1055 C93 1.583 . S
C1067 C442 1.653 . S
C1082 C107 1.642 . S
C1094 C176 1.657 . S
C1109 C274 1.654 . S
C1121 C121 1.641 . S
C1136 C135 1.617 . S
C1148 C8 1.661 . S
C1163 C246 1.655 . S
C1175 C149 1.582 . S
C1190 C163 1.597 . S
C1202 C36 1.647 . S
C1217 C302 1.649 . S
C1229 C177 1.639 . S
C1244 C191 1.642 . S
C1256 C92 1.653 . S
C1271 C330 1.653 . S
C1283 C205 1.642 . S
C1298 C219 1.596 . S
C1310 C64 1.647 . S
C1325 C162 1.645 . S
C1337 C233 1.593 . S
C1352 C344 1.661 . S
C1364 C247 1.636 . S
C1379 C134 1.645 . S
C1391 C261 1.592 . S
C1406 C275 1.641 . S
C1418 C372 1.656 . S
C1433 C190 1.661 . S
C1445 C289 1.617 . S
C1460 C428 1.645 . S
C1472 C303 1.596 . S
C1487 C218 1.645 . S
C1499 C317 1.594 . S
C1514 C331 1.581 . S
C1526 C400 1.650 . S
C1541 C345 1.620 . S
C1553 C50 1.661 . S
C1568 C359 1.637 . S
C1580 C232 1.658 . S
C1595 C373 1.616 . S
C1607 C22 1.646 . S
C1622 C387 1.610 . S
C1634 C260 1.646 . S
C1649 C401 1.625 . S
C1661 C78 1.660 . S
C1676 C316 1.656 . S
C1688 C415 1.639 . S
C1703 C106 1.654 . S
C1715 C429 1.582 . S
C1730 C443 1.581 . S
C1742 C288 1.654 . S
C1757 C7 1.029 . S
C1769 C105 1.102 . S
C1784 C21 1.137 . S
C1796 C63 1.091 1_556 S
C1811 C35 1.078 1_554 S
C1823 C77 1.027 . S
C1838 C91 1.098 . S
C1850 C49 1.025 . S
C1865 C217 1.079 . S
C1877 C119 1.108 . S
C1892 C175 0.972 1_554 S
C1904 C133 0.996 . S
C1919 C189 1.094 . S
C1931 C147 1.039 1_556 S
C1946 C203 0.995 . S
C1958 C161 0.997 . S
C1973 C231 1.011 1_554 S
C1985 C329 1.108 . S
C2000 C287 1.007 . S
C2012 C245 1.076 . S
C2027 C301 1.000 . S
C2039 C259 1.010 . S
C2054 C315 1.050 1_556 S
C2066 C273 1.006 . S
C2081 C441 1.041 . S
C2093 C343 1.051 1_556 S
C2108 C357 1.100 . S
C2120 C399 1.069 . S
C2135 C371 1.127 . S
C2147 C413 1.136 . S
C2162 C385 1.100 . S
C2174 C427 1.045 1_554 S
