# Generated by pormake.
# Topology yfg, (5)-cn, num edge types: 1
# Building blocks:
#     Node 0, Type 0, BuildingBlock: BEQFEK_clean_sbu_0, # of connection points: 5
#     Node 1, Type 0, BuildingBlock: BEQFEK_clean_sbu_0, # of connection points: 5
#     Node 2, Type 0, BuildingBlock: BEQFEK_clean_sbu_0, # of connection points: 5
#     Node 3, Type 0, BuildingBlock: BEQFEK_clean_sbu_0, # of connection points: 5
#     Node 4, Type 0, BuildingBlock: BEQFEK_clean_sbu_0, # of connection points: 5
#     Node 5, Type 0, BuildingBlock: BEQFEK_clean_sbu_0, # of connection points: 5
#     Node 6, Type 0, BuildingBlock: BEQFEK_clean_sbu_0, # of connection points: 5
#     Node 7, Type 0, BuildingBlock: BEQFEK_clean_sbu_0, # of connection points: 5
#     Edge 8, Type (0, 0), BuildingBlock: XIVTED_clean_linker_0, # of connection points: 2
#     Edge 9, Type (0, 0), BuildingBlock: XIVTED_clean_linker_0, # of connection points: 2
#     Edge 10, Type (0, 0), BuildingBlock: XIVTED_clean_linker_0, # of connection points: 2
#     Edge 11, Type (0, 0), BuildingBlock: XIVTED_clean_linker_0, # of connection points: 2
#     Edge 12, Type (0, 0), BuildingBlock: XIVTED_clean_linker_0, # of connection points: 2
#     Edge 13, Type (0, 0), BuildingBlock: XIVTED_clean_linker_0, # of connection points: 2
#     Edge 14, Type (0, 0), BuildingBlock: XIVTED_clean_linker_0, # of connection points: 2
#     Edge 15, Type (0, 0), BuildingBlock: XIVTED_clean_linker_0, # of connection points: 2
#     Edge 16, Type (0, 0), BuildingBlock: XIVTED_clean_linker_0, # of connection points: 2
#     Edge 17, Type (0, 0), BuildingBlock: XIVTED_clean_linker_0, # of connection points: 2
#     Edge 18, Type (0, 0), BuildingBlock: XIVTED_clean_linker_0, # of connection points: 2
#     Edge 19, Type (0, 0), BuildingBlock: XIVTED_clean_linker_0, # of connection points: 2
#     Edge 20, Type (0, 0), BuildingBlock: XIVTED_clean_linker_0, # of connection points: 2
#     Edge 21, Type (0, 0), BuildingBlock: XIVTED_clean_linker_0, # of connection points: 2
#     Edge 22, Type (0, 0), BuildingBlock: XIVTED_clean_linker_0, # of connection points: 2
#     Edge 23, Type (0, 0), BuildingBlock: XIVTED_clean_linker_0, # of connection points: 2
#     Edge 24, Type (0, 0), BuildingBlock: XIVTED_clean_linker_0, # of connection points: 2
#     Edge 25, Type (0, 0), BuildingBlock: XIVTED_clean_linker_0, # of connection points: 2
#     Edge 26, Type (0, 0), BuildingBlock: XIVTED_clean_linker_0, # of connection points: 2
#     Edge 27, Type (0, 0), BuildingBlock: XIVTED_clean_linker_0, # of connection points: 2
# Relax obj value: 0.515
# Max RMSD: 0.218
# Mean RMSD: 0.218
data_MOF--net-yfg--node1-BEQFEK_clean_sbu_0--edge1-XIVTED_clean_linker_0
_symmetry_space_group_name_H-M    P1
_symmetry_Int_Tables_number       1
_symmetry_cell_setting            triclinic
loop_
_symmetry_equiv_pos_as_xyz
'x, y, z'
_cell_length_a     33.480386
_cell_length_b     33.459862
_cell_length_c     44.950069
_cell_angle_alpha  90.025495
_cell_angle_beta   89.844932
_cell_angle_gamma 90.022995
loop_
_atom_site_label
_atom_site_type_symbol
_atom_site_fract_x
_atom_site_fract_y
_atom_site_fract_z
_atom_type_partial_charge
Co0 Co 0.22517 0.45436 0.08929 0.0
Co1 Co 0.26405 0.46241 0.02603 0.0
C2 C 0.28158 0.52134 0.07415 0.0
O3 O 0.25912 0.50204 0.09182 0.0
O4 O 0.28611 0.51018 0.04725 0.0
C5 C 0.18088 0.4869 0.13599 0.0
O6 O 0.18527 0.51891 0.11938 0.0
C7 C 0.27943 0.49939 0.9683 0.0
C8 C 0.29223 0.44754 0.93931 0.0
C9 C 0.2878 0.48872 0.93905 0.0
N10 N 0.27798 0.46599 0.98483 0.0
N11 N 0.28584 0.43509 0.96743 0.0
C12 C 0.27573 0.54048 0.98129 0.0
H13 H 0.24691 0.54307 0.99341 0.0
H14 H 0.27827 0.56446 0.96448 0.0
H15 H 0.30001 0.54496 -0.00234 0.0
C16 C 0.15151 0.45244 0.0543 0.0
N17 N 0.19142 0.4557 0.05632 0.0
N18 N 0.20699 0.45946 0.02956 0.0
C19 C 0.17697 0.45936 0.00952 0.0
C20 C 0.14101 0.45474 0.02461 0.0
C21 C 0.12408 0.44895 0.08057 0.0
H22 H 0.13557 0.42597 0.09612 0.0
H23 H 0.12316 0.47803 0.09235 0.0
H24 H 0.09314 0.44124 0.07417 0.0
O25 O 0.25975 0.40745 0.08722 0.0
O26 O 0.2905 0.41394 0.04351 0.0
H27 H 0.20408 0.43883 0.96919 0.0
H28 H 0.15399 0.45755 0.96452 0.0
C29 C 0.18254 0.46197 0.97655 0.0
H30 H 0.19488 0.49172 0.97077 0.0
H31 H 0.28639 0.40548 0.9747 0.0
O32 O 0.19471 0.45374 0.12679 0.0
C33 C 0.28509 0.39544 0.06803 0.0
Co34 Co 0.54312 0.22668 0.34261 0.0
Co35 Co 0.53018 0.26249 0.2792 0.0
C36 C 0.47103 0.27621 0.32815 0.0
O37 O 0.49237 0.25625 0.3461 0.0
O38 O 0.48152 0.2805 0.30112 0.0
C39 C 0.51624 0.17892 0.3891 0.0
O40 O 0.48453 0.17864 0.37194 0.0
C41 C 0.48648 0.27098 0.22439 0.0
C42 C 0.52929 0.30018 0.19392 0.0
C43 C 0.49023 0.28632 0.19572 0.0
N44 N 0.52128 0.27598 0.23864 0.0
N45 N 0.54691 0.29328 0.22035 0.0
C46 C 0.45154 0.24989 0.23814 0.0
H47 H 0.46166 0.2297 0.25618 0.0
H48 H 0.43508 0.23229 0.2212 0.0
H49 H 0.4311 0.27224 0.2482 0.0
C50 C 0.54904 0.15185 0.30825 0.0
N51 N 0.5437 0.19162 0.30994 0.0
N52 N 0.53892 0.20619 0.28298 0.0
C53 C 0.5412 0.1758 0.26322 0.0
C54 C 0.54715 0.14044 0.27875 0.0
C55 C 0.55789 0.12528 0.3342 0.0
H56 H 0.5779 0.14078 0.35005 0.0
H57 H 0.52956 0.11768 0.34572 0.0
H58 H 0.57231 0.09706 0.32688 0.0
O59 O 0.58678 0.26578 0.33926 0.0
O60 O 0.57626 0.29401 0.29509 0.0
H61 H 0.55395 0.20653 0.22244 0.0
H62 H 0.54704 0.15325 0.21822 0.0
C63 C 0.53671 0.18027 0.23027 0.0
H64 H 0.50481 0.18502 0.22488 0.0
H65 H 0.57617 0.30079 0.22601 0.0
O66 O 0.54739 0.19724 0.38037 0.0
C67 C 0.59575 0.29144 0.31939 0.0
Co68 Co 0.76564 0.54824 0.59143 0.0
Co69 Co 0.73155 0.53184 0.52765 0.0
C70 C 0.71626 0.47497 0.57707 0.0
O71 O 0.73561 0.49771 0.59449 0.0
O72 O 0.71247 0.48355 0.54962 0.0
C73 C 0.81238 0.52082 0.63791 0.0
O74 O 0.8132 0.48959 0.62018 0.0
C75 C 0.71456 0.4924 0.47064 0.0
C76 C 0.71162 0.54343 0.4395 0.0
C77 C 0.70964 0.50211 0.44081 0.0
N78 N 0.72016 0.52635 0.48608 0.0
N79 N 0.71821 0.55675 0.46736 0.0
C80 C 0.71102 0.45214 0.48496 0.0
H81 H 0.68665 0.45308 0.50168 0.0
H82 H 0.7392 0.44503 0.49678 0.0
H83 H 0.70387 0.42812 0.46891 0.0
C84 C 0.84125 0.5522 0.55831 0.0
N85 N 0.8014 0.5475 0.55939 0.0
N86 N 0.78792 0.53934 0.5326 0.0
C87 C 0.81929 0.53776 0.51364 0.0
C88 C 0.854 0.54572 0.52945 0.0
C89 C 0.86664 0.56444 0.58413 0.0
H90 H 0.84972 0.58464 0.5991 0.0
H91 H 0.87568 0.53745 0.59672 0.0
H92 H 0.89412 0.5799 0.57642 0.0
O93 O 0.72724 0.59199 0.5874 0.0
O94 O 0.69992 0.57833 0.54345 0.0
H95 H 0.80116 0.55049 0.46915 0.0
H96 H 0.84629 0.52116 0.47155 0.0
C97 C 0.8164 0.52629 0.48155 0.0
H98 H 0.79835 0.49867 0.47939 0.0
H99 H 0.72172 0.58659 0.47358 0.0
O100 O 0.79415 0.55215 0.62952 0.0
C101 C 0.70173 0.5993 0.56717 0.0
Co102 Co 0.44183 0.76348 0.83999 0.0
Co103 Co 0.45914 0.72965 0.77603 0.0
C104 C 0.51523 0.71411 0.82539 0.0
O105 O 0.49196 0.73293 0.84278 0.0
O106 O 0.50744 0.71098 0.79778 0.0
C107 C 0.47105 0.80844 0.88676 0.0
O108 O 0.50166 0.80892 0.86841 0.0
C109 C 0.49941 0.7157 0.71888 0.0
C110 C 0.44879 0.70609 0.68822 0.0
C111 C 0.49007 0.70864 0.6892 0.0
N112 N 0.46519 0.71811 0.73448 0.0
N113 N 0.43505 0.71223 0.71606 0.0
C114 C 0.53983 0.71663 0.73308 0.0
H115 H 0.54201 0.69144 0.74898 0.0
H116 H 0.54329 0.74479 0.74588 0.0
H117 H 0.56455 0.7135 0.7169 0.0
C118 C 0.43692 0.83918 0.80682 0.0
N119 N 0.44243 0.79938 0.80796 0.0
N120 N 0.45105 0.78587 0.78121 0.0
C121 C 0.4524 0.81712 0.76225 0.0
C122 C 0.44337 0.85181 0.77787 0.0
C123 C 0.42833 0.86476 0.83343 0.0
H124 H 0.45673 0.87122 0.84512 0.0
H125 H 0.41467 0.89368 0.82721 0.0
H126 H 0.40798 0.84885 0.8489 0.0
O127 O 0.3981 0.72503 0.83568 0.0
O128 O 0.41293 0.69771 0.79181 0.0
H129 H 0.46054 0.8433 0.71851 0.0
H130 H 0.4921 0.80091 0.72693 0.0
C131 C 0.46185 0.81385 0.72979 0.0
H132 H 0.44004 0.79356 0.71907 0.0
H133 H 0.40507 0.7126 0.72247 0.0
O134 O 0.43887 0.79152 0.87858 0.0
C135 C 0.39149 0.69938 0.81533 0.0
Co136 Co 0.2242 0.53958 0.39841 0.0
Co137 Co 0.26073 0.52818 0.46174 0.0
C138 C 0.27443 0.46823 0.41327 0.0
O139 O 0.25403 0.48898 0.39522 0.0
O140 O 0.27888 0.47932 0.44013 0.0
C141 C 0.17854 0.51219 0.35085 0.0
O142 O 0.17998 0.4795 0.36701 0.0
C143 C 0.26893 0.48477 0.51673 0.0
C144 C 0.30098 0.52648 0.5463 0.0
C145 C 0.2857 0.48791 0.54494 0.0
N146 N 0.27457 0.51938 0.50226 0.0
N147 N 0.29349 0.5444 0.52005 0.0
C148 C 0.24626 0.45048 0.50356 0.0
H149 H 0.22526 0.46134 0.48631 0.0
H150 H 0.22938 0.43415 0.52103 0.0
H151 H 0.2675 0.4297 0.49259 0.0
C152 C 0.1498 0.54677 0.43323 0.0
N153 N 0.18945 0.54072 0.43132 0.0
N154 N 0.20442 0.53677 0.45819 0.0
C155 C 0.17445 0.54024 0.47819 0.0
C156 C 0.13892 0.54658 0.46301 0.0
C157 C 0.12285 0.55042 0.40681 0.0
H158 H 0.13501 0.57306 0.39121 0.0
H159 H 0.12169 0.52127 0.39517 0.0
H160 H 0.09191 0.55861 0.41295 0.0
O161 O 0.26322 0.58344 0.40115 0.0
O162 O 0.29191 0.57422 0.44529 0.0
H163 H 0.20735 0.55617 0.51735 0.0
H164 H 0.15389 0.55345 0.52275 0.0
C165 C 0.17984 0.53971 0.51123 0.0
H166 H 0.18278 0.50836 0.51887 0.0
H167 H 0.30196 0.57334 0.51409 0.0
O168 O 0.1947 0.5439 0.36071 0.0
C169 C 0.28897 0.5931 0.42071 0.0
Co170 Co 0.46064 0.22106 0.64969 0.0
Co171 Co 0.46639 0.26046 0.7126 0.0
C172 C 0.52682 0.27716 0.66445 0.0
O173 O 0.509 0.25412 0.64643 0.0
O174 O 0.51385 0.28198 0.69084 0.0
C175 C 0.49193 0.17449 0.60384 0.0
O176 O 0.5235 0.17706 0.62104 0.0
C177 C 0.50953 0.27159 0.76705 0.0
C178 C 0.46693 0.30179 0.79711 0.0
C179 C 0.50609 0.28821 0.79533 0.0
N180 N 0.47452 0.27565 0.75294 0.0
N181 N 0.44898 0.29353 0.771 0.0
C182 C 0.5445 0.25029 0.75349 0.0
H183 H 0.53435 0.22919 0.73605 0.0
H184 H 0.56143 0.23367 0.77069 0.0
H185 H 0.5645 0.27241 0.74267 0.0
C186 C 0.45869 0.14748 0.68552 0.0
N187 N 0.46143 0.18743 0.68304 0.0
N188 N 0.46249 0.20351 0.70976 0.0
C189 C 0.46009 0.17397 0.73019 0.0
C190 C 0.45822 0.13763 0.71536 0.0
C191 C 0.45354 0.11935 0.6599 0.0
H192 H 0.43281 0.13239 0.64336 0.0
H193 H 0.48292 0.11434 0.64909 0.0
H194 H 0.44156 0.09006 0.66731 0.0
O195 O 0.41412 0.25682 0.65166 0.0
O196 O 0.41803 0.28718 0.69569 0.0
H197 H 0.44052 0.20624 0.7688 0.0
H198 H 0.44872 0.15347 0.77511 0.0
C199 C 0.45968 0.1803 0.76315 0.0
H200 H 0.49046 0.18663 0.77083 0.0
H201 H 0.41961 0.30062 0.76536 0.0
O202 O 0.45935 0.19027 0.6124 0.0
C203 C 0.40089 0.28188 0.67064 0.0
Co204 Co 0.76951 0.45949 0.89918 0.0
Co205 Co 0.73283 0.46999 0.96299 0.0
C206 C 0.71341 0.52691 0.91415 0.0
O207 O 0.73526 0.5069 0.89648 0.0
O208 O 0.70976 0.51684 0.94135 0.0
C209 C 0.81411 0.49139 0.85278 0.0
O210 O 0.81204 0.52256 0.87052 0.0
C211 C 0.71625 0.50841 0.02016 0.0
C212 C 0.71124 0.45711 0.05092 0.0
C213 C 0.71096 0.4985 0.04993 0.0
N214 N 0.72053 0.4745 0.00446 0.0
N215 N 0.71728 0.44392 0.02292 0.0
C216 C 0.71465 0.54898 0.00611 0.0
H217 H 0.74255 0.55434 0.99333 0.0
H218 H 0.70992 0.57329 0.02242 0.0
H219 H 0.68941 0.54975 0.99024 0.0
C220 C 0.84442 0.4609 0.93259 0.0
N221 N 0.80438 0.46271 0.93135 0.0
N222 N 0.78977 0.46774 0.9583 0.0
C223 C 0.82058 0.46989 0.97762 0.0
C224 C 0.85603 0.46591 0.96179 0.0
C225 C 0.87104 0.45166 0.90666 0.0
H226 H 0.85605 0.43051 0.89133 0.0
H227 H 0.8778 0.4797 0.89451 0.0
H228 H 0.89968 0.43834 0.9141 0.0
O229 O 0.73539 0.41246 0.90278 0.0
O230 O 0.70593 0.42081 0.9468 0.0
H231 H 0.7996 0.452 0.02052 0.0
H232 H 0.8458 0.47991 0.02135 0.0
C233 C 0.81634 0.4771 0.01031 0.0
H234 H 0.7992 0.50499 0.01403 0.0
H235 H 0.71976 0.41406 0.01647 0.0
O236 O 0.79865 0.45856 0.86114 0.0
C237 C 0.71058 0.40129 0.92261 0.0
Co238 Co 0.54294 0.76842 0.14904 0.0
Co239 Co 0.53065 0.73296 0.21311 0.0
C240 C 0.47333 0.71501 0.16433 0.0
O241 O 0.49428 0.73581 0.1466 0.0
O242 O 0.48299 0.71157 0.19158 0.0
C243 C 0.51104 0.81173 0.10226 0.0
O244 O 0.48032 0.8103 0.1205 0.0
C245 C 0.49203 0.72366 0.27146 0.0
C246 C 0.53961 0.69543 0.29811 0.0
C247 C 0.50036 0.70855 0.2996 0.0
N248 N 0.52487 0.71988 0.25437 0.0
N249 N 0.55331 0.70331 0.27053 0.0
C250 C 0.45278 0.73886 0.26023 0.0
H251 H 0.45349 0.74329 0.23587 0.0
H252 H 0.44608 0.76818 0.27055 0.0
H253 H 0.42849 0.71778 0.2663 0.0
C254 C 0.54725 0.8437 0.18277 0.0
N255 N 0.54195 0.80388 0.18141 0.0
N256 N 0.53701 0.78954 0.20844 0.0
C257 C 0.53898 0.82017 0.22797 0.0
C258 C 0.54538 0.85539 0.21232 0.0
C259 C 0.55225 0.86993 0.15602 0.0
H260 H 0.52323 0.87224 0.14436 0.0
H261 H 0.5619 0.90057 0.16184 0.0
H262 H 0.57431 0.85646 0.14054 0.0
O263 O 0.58846 0.7316 0.1524 0.0
O264 O 0.57789 0.70361 0.19671 0.0
H265 H 0.54834 0.84305 0.27245 0.0
H266 H 0.50615 0.81017 0.26805 0.0
C267 C 0.53741 0.81572 0.26107 0.0
H268 H 0.55596 0.78998 0.26804 0.0
H269 H 0.58181 0.69658 0.26252 0.0
O270 O 0.54416 0.79695 0.1106 0.0
C271 C 0.59777 0.70645 0.17251 0.0
H272 H 0.16928 0.57415 0.31172 0.0
H273 H 0.16321 0.42667 0.17501 0.0
H274 H 0.15277 0.44666 0.32018 0.0
H275 H 0.162 0.55516 0.16624 0.0
H276 H 0.14804 0.43382 0.22785 0.0
H277 H 0.15533 0.56879 0.25862 0.0
C278 C 0.16212 0.54511 0.30249 0.0
C279 C 0.1631 0.51066 0.32022 0.0
C280 C 0.15042 0.46046 0.21429 0.0
C281 C 0.14752 0.50424 0.2595 0.0
C282 C 0.15917 0.45638 0.18412 0.0
C283 C 0.16476 0.4904 0.1664 0.0
C284 C 0.14783 0.49884 0.22684 0.0
C285 C 0.15855 0.52813 0.17922 0.0
C286 C 0.15408 0.54206 0.27216 0.0
C287 C 0.15299 0.47392 0.30721 0.0
N288 N 0.15114 0.53137 0.20881 0.0
N289 N 0.14634 0.47156 0.27751 0.0
H290 H 0.45064 0.14914 0.41781 0.0
H291 H 0.56018 0.15214 0.5748 0.0
H292 H 0.57662 0.1716 0.42966 0.0
H293 H 0.43253 0.16156 0.56327 0.0
H294 H 0.56727 0.13878 0.52163 0.0
H295 H 0.44507 0.13334 0.47068 0.0
C296 C 0.47728 0.1501 0.43141 0.0
C297 C 0.514 0.16259 0.4195 0.0
C298 C 0.53767 0.14313 0.53086 0.0
C299 C 0.50774 0.14459 0.47988 0.0
C300 C 0.53356 0.15067 0.5612 0.0
C301 C 0.49577 0.1589 0.5733 0.0
C302 C 0.50375 0.14372 0.5126 0.0
C303 C 0.4623 0.15615 0.55472 0.0
C304 C 0.47403 0.14112 0.46158 0.0
C305 C 0.54759 0.16283 0.43807 0.0
N306 N 0.46713 0.14933 0.52516 0.0
N307 N 0.54355 0.15451 0.46748 0.0
H308 H 0.84082 0.45429 0.66595 0.0
H309 H 0.83639 0.56026 0.82462 0.0
H310 H 0.81903 0.58019 0.6795 0.0
H311 H 0.82616 0.43287 0.81118 0.0
H312 H 0.8499 0.5685 0.77157 0.0
H313 H 0.85528 0.44734 0.7189 0.0
C314 C 0.83974 0.48062 0.67995 0.0
C315 C 0.82786 0.51773 0.66847 0.0
C316 C 0.84531 0.5387 0.78035 0.0
C317 C 0.84431 0.50991 0.72894 0.0
C318 C 0.83767 0.53394 0.81062 0.0
C319 C 0.82927 0.49589 0.82217 0.0
C320 C 0.84463 0.50519 0.76159 0.0
C321 C 0.83175 0.46282 0.80307 0.0
C322 C 0.84793 0.47658 0.71017 0.0
C323 C 0.82737 0.55089 0.68756 0.0
N324 N 0.83871 0.46829 0.7736 0.0
N325 N 0.83495 0.54609 0.71699 0.0
H326 H 0.53936 0.83472 0.91344 0.0
H327 H 0.44139 0.83361 0.07534 0.0
H328 H 0.41405 0.81397 0.93046 0.0
H329 H 0.56773 0.82001 0.05858 0.0
H330 H 0.43083 0.84479 0.02229 0.0
H331 H 0.54927 0.84763 0.96636 0.0
C332 C 0.51378 0.8335 0.92822 0.0
C333 C 0.47592 0.82255 0.91763 0.0
C334 C 0.46091 0.8399 0.03031 0.0
C335 C 0.48717 0.83727 0.97813 0.0
C336 C 0.46703 0.83362 0.06059 0.0
C337 C 0.50544 0.82513 0.0713 0.0
C338 C 0.49344 0.83786 0.01065 0.0
C339 C 0.53754 0.82586 0.05119 0.0
C340 C 0.51953 0.84078 0.95842 0.0
C341 C 0.44385 0.82175 0.93776 0.0
N342 N 0.53076 0.83165 0.02173 0.0
N343 N 0.45029 0.82858 0.96714 0.0
H344 H 0.08543 0.39604 0.03025 0.0
H345 H 0.91512 0.51575 0.94403 0.0
H346 H 0.10457 0.51245 0.99186 0.0
H347 H 0.89051 0.41727 0.00301 0.0
H348 H 0.98582 0.51234 0.95766 0.0
H349 H 0.01505 0.39941 0.01563 0.0
C350 C 0.07467 0.42216 0.0185 0.0
C351 C 0.10029 0.45422 0.01244 0.0
C352 C 0.96495 0.49168 0.96783 0.0
C353 C 0.02041 0.45838 -0.0043 0.0
C354 C 0.92475 0.49372 0.96014 0.0
C355 C 0.89736 0.46691 0.97266 0.0
C356 C 0.97776 0.46223 0.98786 0.0
C357 C 0.91092 0.43869 0.99323 0.0
C358 C 0.03463 0.42418 0.01032 0.0
C359 C 0.08547 0.48721 -0.00312 0.0
N360 N 0.95038 0.43687 9e-05 0.0
N361 N 0.04632 0.48856 0.98911 0.0
H362 H 0.59875 0.10579 0.23914 0.0
H363 H 0.48999 0.89272 0.24668 0.0
H364 H 0.49581 0.08152 0.29395 0.0
H365 H 0.60452 0.91074 0.20483 0.0
H366 H 0.49042 0.96258 0.26295 0.0
H367 H 0.59963 0.03531 0.22371 0.0
C368 C 0.57611 0.08558 0.24757 0.0
C369 C 0.54694 0.09913 0.26752 0.0
C370 C 0.51554 0.9513 0.25027 0.0
C371 C 0.54798 0.01897 0.25057 0.0
C372 C 0.51533 0.91148 0.24114 0.0
C373 C 0.54701 0.89644 0.22414 0.0
C374 C 0.54765 0.97617 0.24222 0.0
C375 C 0.5792 0.92168 0.21745 0.0
C376 C 0.57678 0.04543 0.23905 0.0
C377 C 0.51866 0.07196 0.27841 0.0
N378 N 0.57861 0.96049 0.22633 0.0
N379 N 0.51981 0.03314 0.26975 0.0
H380 H 0.08395 0.6055 0.45401 0.0
H381 H 0.91404 0.50038 0.55149 0.0
H382 H 0.10177 0.49401 0.50004 0.0
H383 H 0.8885 0.5891 0.48476 0.0
H384 H 0.98459 0.50211 0.53712 0.0
H385 H 0.01385 0.60536 0.46998 0.0
C386 C 0.07298 0.58108 0.46759 0.0
C387 C 0.09817 0.54936 0.47537 0.0
C388 C 0.96359 0.52107 0.5255 0.0
C389 C 0.01864 0.54916 0.49394 0.0
C390 C 0.92345 0.52008 0.53367 0.0
C391 C 0.89577 0.54456 0.51914 0.0
C392 C 0.97612 0.54712 0.50286 0.0
C393 C 0.90912 0.56957 0.49624 0.0
C394 C 0.0331 0.58096 0.47663 0.0
C395 C 0.08308 0.5189 0.49354 0.0
N396 N 0.94853 0.57041 0.48886 0.0
N397 N 0.04415 0.51943 0.50214 0.0
H398 H 0.40064 0.10392 0.75041 0.0
H399 H 0.50702 0.88958 0.75305 0.0
H400 H 0.5127 0.07916 0.70685 0.0
H401 H 0.3845 0.90807 0.77918 0.0
H402 H 0.51173 0.96021 0.73914 0.0
H403 H 0.39665 0.03356 0.76579 0.0
C404 C 0.42466 0.08367 0.74459 0.0
C405 C 0.45721 0.09697 0.72771 0.0
C406 C 0.48376 0.94885 0.74784 0.0
C407 C 0.45269 0.01695 0.74452 0.0
C408 C 0.48106 0.90861 0.75558 0.0
C409 C 0.44541 0.89341 0.76732 0.0
C410 C 0.45058 0.97397 0.75206 0.0
C411 C 0.41263 0.91905 0.77048 0.0
C412 C 0.42225 0.04358 0.75304 0.0
C413 C 0.48728 0.06976 0.72006 0.0
N414 N 0.41602 0.95824 0.76303 0.0
N415 N 0.48432 0.03096 0.72852 0.0
H416 H 0.42016 0.66625 0.19393 0.0
H417 H 0.33344 0.57165 0.04463 0.0
H418 H 0.44944 0.71069 0.10633 0.0
H419 H 0.28325 0.54831 0.13154 0.0
H420 H 0.37592 0.62324 0.06672 0.0
H421 H 0.36925 0.62316 0.17161 0.0
C422 C 0.41566 0.66727 0.17009 0.0
C423 C 0.43939 0.69192 0.15201 0.0
C424 C 0.3553 0.60704 0.08087 0.0
C425 C 0.38152 0.64242 0.12628 0.0
C426 C 0.33104 0.57758 0.06825 0.0
C427 C 0.30487 0.55536 0.08621 0.0
C428 C 0.3537 0.61403 0.11171 0.0
C429 C 0.30308 0.56446 0.11676 0.0
C430 C 0.3866 0.64266 0.15734 0.0
C431 C 0.43209 0.69203 0.1212 0.0
N432 N 0.32742 0.59276 0.12855 0.0
N433 N 0.40415 0.66738 0.10931 0.0
H434 H 0.41656 0.32153 0.29729 0.0
H435 H 0.32152 0.41543 0.44429 0.0
H436 H 0.44474 0.28029 0.38582 0.0
H437 H 0.27821 0.44092 0.35589 0.0
H438 H 0.36422 0.36308 0.42347 0.0
H439 H 0.36318 0.36281 0.31824 0.0
C440 C 0.41129 0.32079 0.32107 0.0
C441 C 0.43551 0.29765 0.33981 0.0
C442 C 0.34503 0.37984 0.40868 0.0
C443 C 0.37463 0.34518 0.364 0.0
C444 C 0.3206 0.40975 0.42058 0.0
C445 C 0.29649 0.43297 0.40182 0.0
C446 C 0.34566 0.37332 0.37777 0.0
C447 C 0.29648 0.42405 0.37124 0.0
C448 C 0.38078 0.34439 0.33304 0.0
C449 C 0.42708 0.29782 0.37047 0.0
N450 N 0.32101 0.3953 0.36016 0.0
N451 N 0.39769 0.32154 0.38161 0.0
H452 H 0.57407 0.32916 0.69596 0.0
H453 H 0.72438 0.4441 0.63301 0.0
H454 H 0.55703 0.28076 0.60782 0.0
H455 H 0.66033 0.42592 0.55085 0.0
H456 H 0.68444 0.39192 0.65619 0.0
H457 H 0.62517 0.37375 0.67616 0.0
C458 C 0.58158 0.32738 0.67254 0.0
C459 C 0.56111 0.30116 0.65357 0.0
C460 C 0.67871 0.39953 0.63321 0.0
C461 C 0.62029 0.35185 0.63065 0.0
C462 C 0.70188 0.42912 0.61978 0.0
C463 C 0.69532 0.43996 0.58999 0.0
C464 C 0.6484 0.38071 0.61684 0.0
C465 C 0.66626 0.41885 0.57391 0.0
C466 C 0.61111 0.3527 0.66122 0.0
C467 C 0.57199 0.30044 0.62333 0.0
N468 N 0.64369 0.39041 0.58761 0.0
N469 N 0.60046 0.32573 0.61278 0.0
H470 H 0.71334 0.55437 0.8569 0.0
H471 H 0.53764 0.7117 0.88382 0.0
H472 H 0.65945 0.57592 0.94285 0.0
H473 H 0.57184 0.66797 0.79698 0.0
H474 H 0.59006 0.67104 0.90599 0.0
H475 H 0.66967 0.6047 0.8353 0.0
C476 C 0.69258 0.56991 0.87137 0.0
C477 C 0.68987 0.56051 0.9018 0.0
C478 C 0.58627 0.67056 0.88208 0.0
C479 C 0.63967 0.61838 0.87697 0.0
C480 C 0.55639 0.69387 0.86931 0.0
C481 C 0.54995 0.69301 0.83841 0.0
C482 C 0.61018 0.64631 0.86388 0.0
C483 C 0.57547 0.66945 0.82086 0.0
C484 C 0.66758 0.59862 0.85892 0.0
C485 C 0.66252 0.58196 0.91932 0.0
N486 N 0.60432 0.64686 0.83387 0.0
N487 N 0.63831 0.60976 0.9066 0.0
H488 H 0.27046 0.3356 0.10744 0.0
H489 H 0.50159 0.29277 0.13554 0.0
H490 H 0.36284 0.38335 0.05053 0.0
H491 H 0.4085 0.29376 0.20221 0.0
H492 H 0.45085 0.30686 0.09753 0.0
H493 H 0.32077 0.29705 0.134 0.0
C494 C 0.30125 0.33715 0.10003 0.0
C495 C 0.31268 0.36339 0.07723 0.0
C496 C 0.44172 0.30285 0.12047 0.0
C497 C 0.37043 0.32004 0.10794 0.0
C498 C 0.47054 0.29496 0.14219 0.0
C499 C 0.45943 0.29091 0.17225 0.0
C500 C 0.40151 0.3064 0.1289 0.0
C501 C 0.4188 0.29453 0.17951 0.0
C502 C 0.32996 0.31532 0.1153 0.0
C503 C 0.35288 0.36375 0.06822 0.0
N504 N 0.39149 0.30205 0.15805 0.0
N505 N 0.38062 0.34309 0.08409 0.0
H506 H 0.66044 0.28394 0.3556 0.0
H507 H 0.65622 0.5115 0.39568 0.0
H508 H 0.59684 0.36978 0.30211 0.0
H509 H 0.74803 0.43212 0.42743 0.0
H510 H 0.63846 0.46212 0.35765 0.0
H511 H 0.69793 0.33845 0.37838 0.0
C512 C 0.65509 0.31426 0.34815 0.0
C513 C 0.62524 0.32246 0.32721 0.0
C514 C 0.6628 0.45565 0.37272 0.0
C515 C 0.66714 0.38511 0.35379 0.0
C516 C 0.67284 0.48377 0.39444 0.0
C517 C 0.70235 0.47495 0.41549 0.0
C518 C 0.68242 0.41852 0.37221 0.0
C519 C 0.72368 0.43912 0.41252 0.0
C520 C 0.67645 0.34541 0.36118 0.0
C521 C 0.61958 0.36222 0.31824 0.0
N522 N 0.71276 0.41182 0.39171 0.0
N523 N 0.63966 0.39223 0.33212 0.0
H524 H 0.55631 0.75258 0.6742 0.0
H525 H 0.62409 0.59783 0.54843 0.0
H526 H 0.48493 0.65267 0.64532 0.0
H527 H 0.70601 0.66503 0.60297 0.0
H528 H 0.56828 0.63389 0.57147 0.0
H529 H 0.60633 0.73572 0.6363 0.0
C530 C 0.55129 0.72699 0.65992 0.0
C531 C 0.51759 0.70264 0.66382 0.0
C532 C 0.59857 0.64136 0.57782 0.0
C533 C 0.57353 0.68438 0.6197 0.0
C534 C 0.63043 0.6211 0.5645 0.0
C535 C 0.66965 0.6281 0.57416 0.0
C536 C 0.60616 0.66908 0.60058 0.0
C537 C 0.67614 0.65839 0.5952 0.0
C538 C 0.57954 0.71773 0.63812 0.0
C539 C 0.51114 0.67149 0.64352 0.0
N540 N 0.64468 0.67745 0.60798 0.0
N541 N 0.5392 0.66282 0.62257 0.0
H542 H 0.24054 0.55141 0.9218 0.0
H543 H 0.39492 0.62172 0.79668 0.0
H544 H 0.34478 0.48426 0.89577 0.0
H545 H 0.32489 0.70256 0.85041 0.0
H546 H 0.35993 0.56524 0.81969 0.0
H547 H 0.25569 0.60058 0.88294 0.0
C548 C 0.26668 0.54713 0.90792 0.0
C549 C 0.29275 0.51506 0.91293 0.0
C550 C 0.35157 0.59542 0.82582 0.0
C551 C 0.30907 0.56984 0.86774 0.0
C552 C 0.37122 0.62766 0.81253 0.0
C553 C 0.36315 0.6668 0.82204 0.0
C554 C 0.32338 0.60256 0.84837 0.0
C555 C 0.33236 0.67278 0.84279 0.0
C556 C 0.27497 0.57484 0.88557 0.0
C557 C 0.32463 0.5093 0.89311 0.0
N558 N 0.3139 0.64095 0.85555 0.0
N559 N 0.33233 0.53684 0.87162 0.0
H560 H 0.28016 0.65712 0.38391 0.0
H561 H 0.43916 0.75683 0.32002 0.0
H562 H 0.36755 0.5951 0.43696 0.0
H563 H 0.49921 0.64541 0.33785 0.0
H564 H 0.38791 0.73897 0.35639 0.0
H565 H 0.33372 0.69519 0.36041 0.0
C566 C 0.31061 0.65244 0.39125 0.0
C567 C 0.3195 0.62287 0.41231 0.0
C568 C 0.41219 0.71835 0.35219 0.0
C569 C 0.38111 0.66604 0.38533 0.0
C570 C 0.4413 0.72835 0.33119 0.0
C571 C 0.47234 0.70156 0.32465 0.0
C572 C 0.41438 0.68143 0.36692 0.0
C573 C 0.47522 0.6665 0.34164 0.0
C574 C 0.34122 0.67434 0.37793 0.0
C575 C 0.35944 0.61778 0.4209 0.0
N576 N 0.44629 0.65718 0.36174 0.0
N577 N 0.38893 0.63841 0.40678 0.0
H578 H 0.29495 0.49809 0.60498 0.0
H579 H 0.34349 0.267 0.62944 0.0
H580 H 0.29219 0.40626 0.53752 0.0
H581 H 0.38615 0.35897 0.6887 0.0
H582 H 0.30391 0.31683 0.60324 0.0
H583 H 0.31113 0.44665 0.64204 0.0
C584 C 0.29677 0.46716 0.598 0.0
C585 C 0.29112 0.45662 0.56801 0.0
C586 C 0.32135 0.32606 0.62231 0.0
C587 C 0.30924 0.39785 0.61026 0.0
C588 C 0.34379 0.29758 0.63738 0.0
C589 C 0.36878 0.30906 0.66086 0.0
C590 C 0.32424 0.36642 0.63053 0.0
C591 C 0.36753 0.34897 0.67051 0.0
C592 C 0.30589 0.4379 0.61918 0.0
C593 C 0.2943 0.4161 0.56028 0.0
N594 N 0.34629 0.37653 0.65485 0.0
N595 N 0.30318 0.38838 0.5812 0.0
H596 H 0.63285 0.39119 0.94087 0.0
H597 H 0.58747 0.29668 0.78751 0.0
H598 H 0.7237 0.33964 0.88448 0.0
H599 H 0.49624 0.29717 0.85557 0.0
H600 H 0.63727 0.3091 0.82477 0.0
H601 H 0.58212 0.35259 0.91397 0.0
C602 C 0.6423 0.37066 0.92359 0.0
C603 C 0.68238 0.36926 0.91437 0.0
C604 C 0.60652 0.30552 0.83182 0.0
C605 C 0.62474 0.32598 0.8833 0.0
C606 C 0.57777 0.29776 0.81037 0.0
C607 C 0.53739 0.29415 0.8183 0.0
C608 C 0.59498 0.31145 0.8615 0.0
C609 C 0.52707 0.29931 0.84843 0.0
C610 C 0.6133 0.34886 0.90812 0.0
C611 C 0.69298 0.34226 0.89184 0.0
N612 N 0.55562 0.30822 0.86894 0.0
N613 N 0.66426 0.32236 0.87667 0.0
H614 H 0.60147 0.62943 0.19258 0.0
H615 H 0.7531 0.56618 0.06354 0.0
H616 H 0.66112 0.71305 0.13444 0.0
H617 H 0.65749 0.49117 0.09546 0.0
H618 H 0.73602 0.61589 0.10157 0.0
H619 H 0.6393 0.57488 0.1695 0.0
C620 C 0.62346 0.63649 0.17566 0.0
C621 C 0.62776 0.67571 0.16503 0.0
C622 C 0.71907 0.58835 0.10042 0.0
C623 C 0.67081 0.61364 0.13864 0.0
C624 C 0.72847 0.56026 0.07858 0.0
C625 C 0.70525 0.52564 0.0755 0.0
C626 C 0.68677 0.58127 0.11965 0.0
C627 C 0.67534 0.51811 0.09664 0.0
C628 C 0.64475 0.60532 0.16236 0.0
C629 C 0.65652 0.68314 0.14297 0.0
N630 N 0.66648 0.54606 0.11761 0.0
N631 N 0.67664 0.6523 0.13024 0.0
loop_
_geom_bond_atom_site_label_1
_geom_bond_atom_site_label_2
_geom_bond_distance
_geom_bond_site_symmetry_2
_ccdc_geom_bond_type
Co0 O3 1.970 . S
Co0 N17 1.989 . S
Co0 O25 1.967 . S
Co0 O32 1.920 . S
Co1 O4 1.966 . S
Co1 N10 2.022 1_554 S
Co1 N18 1.993 . S
Co1 O26 1.941 . S
C2 O3 1.258 . S
C2 O4 1.263 . S
O3 Co0 1.970 . S
O3 C2 1.258 . S
O4 Co1 1.966 . S
O4 C2 1.263 . S
C5 O6 1.235 . S
C5 O32 1.289 . S
O6 C5 1.235 . S
C7 C9 1.400 . S
C7 N10 1.351 . S
C7 C12 1.501 . S
C8 C9 1.387 . S
C8 N11 1.341 . S
C9 C7 1.400 . S
C9 C8 1.387 . S
N10 Co1 2.022 1_556 S
N10 C7 1.351 . S
N10 N11 1.365 . S
N11 C8 1.341 . S
N11 N10 1.365 . S
N11 H31 0.862 . S
C12 C7 1.501 . S
C12 H13 0.961 1_556 S
C12 H14 0.961 . S
C12 H15 0.960 . S
H13 C12 0.961 1_554 S
H14 C12 0.961 . S
H15 C12 0.960 . S
C16 N17 1.342 . S
C16 C20 1.401 . S
C16 C21 1.499 . S
N17 Co0 1.989 . S
N17 C16 1.342 . S
N17 N18 1.388 . S
N18 Co1 1.993 . S
N18 N17 1.388 . S
N18 C19 1.346 . S
C19 N18 1.346 . S
C19 C20 1.396 . S
C19 C29 1.510 1_554 S
C20 C16 1.401 . S
C20 C19 1.396 . S
C21 C16 1.499 . S
C21 H22 0.959 . S
C21 H23 0.960 . S
C21 H24 0.961 . S
H22 C21 0.959 . S
H23 C21 0.960 . S
H24 C21 0.961 . S
O25 Co0 1.967 . S
O25 C33 1.258 . S
O26 Co1 1.941 . S
O26 C33 1.266 . S
H27 C29 0.959 . S
H28 C29 0.961 . S
C29 C19 1.510 1_556 S
C29 H27 0.959 . S
C29 H28 0.961 . S
C29 H30 0.960 . S
H30 C29 0.960 . S
H31 N11 0.862 . S
O32 Co0 1.920 . S
O32 C5 1.289 . S
C33 O25 1.258 . S
C33 O26 1.266 . S
Co34 O37 1.970 . S
Co34 N51 1.989 . S
Co34 O59 1.967 . S
Co34 O66 1.920 . S
Co35 O38 1.966 . S
Co35 N44 2.022 . S
Co35 N52 1.993 . S
Co35 O60 1.941 . S
C36 O37 1.258 . S
C36 O38 1.263 . S
O37 Co34 1.970 . S
O37 C36 1.258 . S
O38 Co35 1.966 . S
O38 C36 1.263 . S
C39 O40 1.235 . S
C39 O66 1.289 . S
O40 C39 1.235 . S
C41 C43 1.400 . S
C41 N44 1.351 . S
C41 C46 1.501 . S
C42 C43 1.387 . S
C42 N45 1.341 . S
C43 C41 1.400 . S
C43 C42 1.387 . S
N44 Co35 2.022 . S
N44 C41 1.351 . S
N44 N45 1.365 . S
N45 C42 1.341 . S
N45 N44 1.365 . S
N45 H65 0.862 . S
C46 C41 1.501 . S
C46 H47 0.961 . S
C46 H48 0.961 . S
C46 H49 0.960 . S
H47 C46 0.961 . S
H48 C46 0.961 . S
H49 C46 0.960 . S
C50 N51 1.342 . S
C50 C54 1.401 . S
C50 C55 1.499 . S
N51 Co34 1.989 . S
N51 C50 1.342 . S
N51 N52 1.388 . S
N52 Co35 1.993 . S
N52 N51 1.388 . S
N52 C53 1.346 . S
C53 N52 1.346 . S
C53 C54 1.396 . S
C53 C63 1.510 . S
C54 C50 1.401 . S
C54 C53 1.396 . S
C55 C50 1.499 . S
C55 H56 0.959 . S
C55 H57 0.960 . S
C55 H58 0.961 . S
H56 C55 0.959 . S
H57 C55 0.960 . S
H58 C55 0.961 . S
O59 Co34 1.967 . S
O59 C67 1.258 . S
O60 Co35 1.941 . S
O60 C67 1.266 . S
H61 C63 0.959 . S
H62 C63 0.961 . S
C63 C53 1.510 . S
C63 H61 0.959 . S
C63 H62 0.961 . S
C63 H64 0.960 . S
H64 C63 0.960 . S
H65 N45 0.862 . S
O66 Co34 1.920 . S
O66 C39 1.289 . S
C67 O59 1.258 . S
C67 O60 1.266 . S
Co68 O71 1.970 . S
Co68 N85 1.989 . S
Co68 O93 1.967 . S
Co68 O100 1.920 . S
Co69 O72 1.966 . S
Co69 N78 2.022 . S
Co69 N86 1.993 . S
Co69 O94 1.941 . S
C70 O71 1.258 . S
C70 O72 1.263 . S
O71 Co68 1.970 . S
O71 C70 1.258 . S
O72 Co69 1.966 . S
O72 C70 1.263 . S
C73 O74 1.235 . S
C73 O100 1.289 . S
O74 C73 1.235 . S
C75 C77 1.400 . S
C75 N78 1.351 . S
C75 C80 1.501 . S
C76 C77 1.387 . S
C76 N79 1.341 . S
C77 C75 1.400 . S
C77 C76 1.387 . S
N78 Co69 2.022 . S
N78 C75 1.351 . S
N78 N79 1.365 . S
N79 C76 1.341 . S
N79 N78 1.365 . S
N79 H99 0.862 . S
C80 C75 1.501 . S
C80 H81 0.961 . S
C80 H82 0.961 . S
C80 H83 0.960 . S
H81 C80 0.961 . S
H82 C80 0.961 . S
H83 C80 0.960 . S
C84 N85 1.342 . S
C84 C88 1.401 . S
C84 C89 1.499 . S
N85 Co68 1.989 . S
N85 C84 1.342 . S
N85 N86 1.388 . S
N86 Co69 1.993 . S
N86 N85 1.388 . S
N86 C87 1.346 . S
C87 N86 1.346 . S
C87 C88 1.396 . S
C87 C97 1.510 . S
C88 C84 1.401 . S
C88 C87 1.396 . S
C89 C84 1.499 . S
C89 H90 0.959 . S
C89 H91 0.960 . S
C89 H92 0.961 . S
H90 C89 0.959 . S
H91 C89 0.960 . S
H92 C89 0.961 . S
O93 Co68 1.967 . S
O93 C101 1.258 . S
O94 Co69 1.941 . S
O94 C101 1.266 . S
H95 C97 0.959 . S
H96 C97 0.961 . S
C97 C87 1.510 . S
C97 H95 0.959 . S
C97 H96 0.961 . S
C97 H98 0.960 . S
H98 C97 0.960 . S
H99 N79 0.862 . S
O100 Co68 1.920 . S
O100 C73 1.289 . S
C101 O93 1.258 . S
C101 O94 1.266 . S
Co102 O105 1.970 . S
Co102 N119 1.989 . S
Co102 O127 1.967 . S
Co102 O134 1.920 . S
Co103 O106 1.966 . S
Co103 N112 2.022 . S
Co103 N120 1.993 . S
Co103 O128 1.941 . S
C104 O105 1.258 . S
C104 O106 1.263 . S
O105 Co102 1.970 . S
O105 C104 1.258 . S
O106 Co103 1.966 . S
O106 C104 1.263 . S
C107 O108 1.235 . S
C107 O134 1.289 . S
O108 C107 1.235 . S
C109 C111 1.400 . S
C109 N112 1.351 . S
C109 C114 1.501 . S
C110 C111 1.387 . S
C110 N113 1.341 . S
C111 C109 1.400 . S
C111 C110 1.387 . S
N112 Co103 2.022 . S
N112 C109 1.351 . S
N112 N113 1.365 . S
N113 C110 1.341 . S
N113 N112 1.365 . S
N113 H133 0.862 . S
C114 C109 1.501 . S
C114 H115 0.961 . S
C114 H116 0.961 . S
C114 H117 0.960 . S
H115 C114 0.961 . S
H116 C114 0.961 . S
H117 C114 0.960 . S
C118 N119 1.342 . S
C118 C122 1.401 . S
C118 C123 1.499 . S
N119 Co102 1.989 . S
N119 C118 1.342 . S
N119 N120 1.388 . S
N120 Co103 1.993 . S
N120 N119 1.388 . S
N120 C121 1.346 . S
C121 N120 1.346 . S
C121 C122 1.396 . S
C121 C131 1.510 . S
C122 C118 1.401 . S
C122 C121 1.396 . S
C123 C118 1.499 . S
C123 H124 0.959 . S
C123 H125 0.960 . S
C123 H126 0.961 . S
H124 C123 0.959 . S
H125 C123 0.960 . S
H126 C123 0.961 . S
O127 Co102 1.967 . S
O127 C135 1.258 . S
O128 Co103 1.941 . S
O128 C135 1.266 . S
H129 C131 0.959 . S
H130 C131 0.961 . S
C131 C121 1.510 . S
C131 H129 0.959 . S
C131 H130 0.961 . S
C131 H132 0.960 . S
H132 C131 0.960 . S
H133 N113 0.862 . S
O134 Co102 1.920 . S
O134 C107 1.289 . S
C135 O127 1.258 . S
C135 O128 1.266 . S
Co136 O139 1.970 . S
Co136 N153 1.989 . S
Co136 O161 1.967 . S
Co136 O168 1.920 . S
Co137 O140 1.966 . S
Co137 N146 2.022 . S
Co137 N154 1.993 . S
Co137 O162 1.941 . S
C138 O139 1.258 . S
C138 O140 1.263 . S
O139 Co136 1.970 . S
O139 C138 1.258 . S
O140 Co137 1.966 . S
O140 C138 1.263 . S
C141 O142 1.235 . S
C141 O168 1.289 . S
O142 C141 1.235 . S
C143 C145 1.400 . S
C143 N146 1.351 . S
C143 C148 1.501 . S
C144 C145 1.387 . S
C144 N147 1.341 . S
C145 C143 1.400 . S
C145 C144 1.387 . S
N146 Co137 2.022 . S
N146 C143 1.351 . S
N146 N147 1.365 . S
N147 C144 1.341 . S
N147 N146 1.365 . S
N147 H167 0.862 . S
C148 C143 1.501 . S
C148 H149 0.961 . S
C148 H150 0.961 . S
C148 H151 0.960 . S
H149 C148 0.961 . S
H150 C148 0.961 . S
H151 C148 0.960 . S
C152 N153 1.342 . S
C152 C156 1.401 . S
C152 C157 1.499 . S
N153 Co136 1.989 . S
N153 C152 1.342 . S
N153 N154 1.388 . S
N154 Co137 1.993 . S
N154 N153 1.388 . S
N154 C155 1.346 . S
C155 N154 1.346 . S
C155 C156 1.396 . S
C155 C165 1.510 . S
C156 C152 1.401 . S
C156 C155 1.396 . S
C157 C152 1.499 . S
C157 H158 0.959 . S
C157 H159 0.960 . S
C157 H160 0.961 . S
H158 C157 0.959 . S
H159 C157 0.960 . S
H160 C157 0.961 . S
O161 Co136 1.967 . S
O161 C169 1.258 . S
O162 Co137 1.941 . S
O162 C169 1.266 . S
H163 C165 0.959 . S
H164 C165 0.961 . S
C165 C155 1.510 . S
C165 H163 0.959 . S
C165 H164 0.961 . S
C165 H166 0.960 . S
H166 C165 0.960 . S
H167 N147 0.862 . S
O168 Co136 1.920 . S
O168 C141 1.289 . S
C169 O161 1.258 . S
C169 O162 1.266 . S
Co170 O173 1.970 . S
Co170 N187 1.989 . S
Co170 O195 1.967 . S
Co170 O202 1.920 . S
Co171 O174 1.966 . S
Co171 N180 2.022 . S
Co171 N188 1.993 . S
Co171 O196 1.941 . S
C172 O173 1.258 . S
C172 O174 1.263 . S
O173 Co170 1.970 . S
O173 C172 1.258 . S
O174 Co171 1.966 . S
O174 C172 1.263 . S
C175 O176 1.235 . S
C175 O202 1.289 . S
O176 C175 1.235 . S
C177 C179 1.400 . S
C177 N180 1.351 . S
C177 C182 1.501 . S
C178 C179 1.387 . S
C178 N181 1.341 . S
C179 C177 1.400 . S
C179 C178 1.387 . S
N180 Co171 2.022 . S
N180 C177 1.351 . S
N180 N181 1.365 . S
N181 C178 1.341 . S
N181 N180 1.365 . S
N181 H201 0.862 . S
C182 C177 1.501 . S
C182 H183 0.961 . S
C182 H184 0.961 . S
C182 H185 0.960 . S
H183 C182 0.961 . S
H184 C182 0.961 . S
H185 C182 0.960 . S
C186 N187 1.342 . S
C186 C190 1.401 . S
C186 C191 1.499 . S
N187 Co170 1.989 . S
N187 C186 1.342 . S
N187 N188 1.388 . S
N188 Co171 1.993 . S
N188 N187 1.388 . S
N188 C189 1.346 . S
C189 N188 1.346 . S
C189 C190 1.396 . S
C189 C199 1.510 . S
C190 C186 1.401 . S
C190 C189 1.396 . S
C191 C186 1.499 . S
C191 H192 0.959 . S
C191 H193 0.960 . S
C191 H194 0.961 . S
H192 C191 0.959 . S
H193 C191 0.960 . S
H194 C191 0.961 . S
O195 Co170 1.967 . S
O195 C203 1.258 . S
O196 Co171 1.941 . S
O196 C203 1.266 . S
H197 C199 0.959 . S
H198 C199 0.961 . S
C199 C189 1.510 . S
C199 H197 0.959 . S
C199 H198 0.961 . S
C199 H200 0.960 . S
H200 C199 0.960 . S
H201 N181 0.862 . S
O202 Co170 1.920 . S
O202 C175 1.289 . S
C203 O195 1.258 . S
C203 O196 1.266 . S
Co204 O207 1.970 . S
Co204 N221 1.989 . S
Co204 O229 1.967 . S
Co204 O236 1.920 . S
Co205 O208 1.966 . S
Co205 N214 2.022 1_556 S
Co205 N222 1.993 . S
Co205 O230 1.941 . S
C206 O207 1.258 . S
C206 O208 1.263 . S
O207 Co204 1.970 . S
O207 C206 1.258 . S
O208 Co205 1.966 . S
O208 C206 1.263 . S
C209 O210 1.235 . S
C209 O236 1.289 . S
O210 C209 1.235 . S
C211 C213 1.400 . S
C211 N214 1.351 . S
C211 C216 1.501 . S
C212 C213 1.387 . S
C212 N215 1.341 . S
C213 C211 1.400 . S
C213 C212 1.387 . S
N214 Co205 2.022 1_554 S
N214 C211 1.351 . S
N214 N215 1.365 . S
N215 C212 1.341 . S
N215 N214 1.365 . S
N215 H235 0.862 . S
C216 C211 1.501 . S
C216 H217 0.961 1_554 S
C216 H218 0.961 . S
C216 H219 0.960 . S
H217 C216 0.961 1_556 S
H218 C216 0.961 . S
H219 C216 0.960 . S
C220 N221 1.342 . S
C220 C224 1.401 . S
C220 C225 1.499 . S
N221 Co204 1.989 . S
N221 C220 1.342 . S
N221 N222 1.388 . S
N222 Co205 1.993 . S
N222 N221 1.388 . S
N222 C223 1.346 . S
C223 N222 1.346 . S
C223 C224 1.396 . S
C223 C233 1.510 1_556 S
C224 C220 1.401 . S
C224 C223 1.396 . S
C225 C220 1.499 . S
C225 H226 0.959 . S
C225 H227 0.960 . S
C225 H228 0.961 . S
H226 C225 0.959 . S
H227 C225 0.960 . S
H228 C225 0.961 . S
O229 Co204 1.967 . S
O229 C237 1.258 . S
O230 Co205 1.941 . S
O230 C237 1.266 . S
H231 C233 0.959 . S
H232 C233 0.961 . S
C233 C223 1.510 1_554 S
C233 H231 0.959 . S
C233 H232 0.961 . S
C233 H234 0.960 . S
H234 C233 0.960 . S
H235 N215 0.862 . S
O236 Co204 1.920 . S
O236 C209 1.289 . S
C237 O229 1.258 . S
C237 O230 1.266 . S
Co238 O241 1.970 . S
Co238 N255 1.989 . S
Co238 O263 1.967 . S
Co238 O270 1.920 . S
Co239 O242 1.966 . S
Co239 N248 2.022 . S
Co239 N256 1.993 . S
Co239 O264 1.941 . S
C240 O241 1.258 . S
C240 O242 1.263 . S
O241 Co238 1.970 . S
O241 C240 1.258 . S
O242 Co239 1.966 . S
O242 C240 1.263 . S
C243 O244 1.235 . S
C243 O270 1.289 . S
O244 C243 1.235 . S
C245 C247 1.400 . S
C245 N248 1.351 . S
C245 C250 1.501 . S
C246 C247 1.387 . S
C246 N249 1.341 . S
C247 C245 1.400 . S
C247 C246 1.387 . S
N248 Co239 2.022 . S
N248 C245 1.351 . S
N248 N249 1.365 . S
N249 C246 1.341 . S
N249 N248 1.365 . S
N249 H269 0.862 . S
C250 C245 1.501 . S
C250 H251 0.961 . S
C250 H252 0.961 . S
C250 H253 0.960 . S
H251 C250 0.961 . S
H252 C250 0.961 . S
H253 C250 0.960 . S
C254 N255 1.342 . S
C254 C258 1.401 . S
C254 C259 1.499 . S
N255 Co238 1.989 . S
N255 C254 1.342 . S
N255 N256 1.388 . S
N256 Co239 1.993 . S
N256 N255 1.388 . S
N256 C257 1.346 . S
C257 N256 1.346 . S
C257 C258 1.396 . S
C257 C267 1.510 . S
C258 C254 1.401 . S
C258 C257 1.396 . S
C259 C254 1.499 . S
C259 H260 0.959 . S
C259 H261 0.960 . S
C259 H262 0.961 . S
H260 C259 0.959 . S
H261 C259 0.960 . S
H262 C259 0.961 . S
O263 Co238 1.967 . S
O263 C271 1.258 . S
O264 Co239 1.941 . S
O264 C271 1.266 . S
H265 C267 0.959 . S
H266 C267 0.961 . S
C267 C257 1.510 . S
C267 H265 0.959 . S
C267 H266 0.961 . S
C267 H268 0.960 . S
H268 C267 0.960 . S
H269 N249 0.862 . S
O270 Co238 1.920 . S
O270 C243 1.289 . S
C271 O263 1.258 . S
C271 O264 1.266 . S
H272 C278 0.930 . S
H273 C282 0.930 . S
H274 C287 0.929 . S
H275 C285 0.929 . S
H276 C280 0.929 . S
H277 C286 0.929 . S
C278 H272 0.930 . S
C278 C279 1.367 . S
C278 C286 1.378 . S
C279 C278 1.367 . S
C279 C287 1.433 . S
C280 H276 0.929 . S
C280 C282 1.378 . S
C280 C284 1.350 . S
C281 C284 1.463 . S
C281 C286 1.350 . S
C281 N289 1.427 . S
C282 H273 0.930 . S
C282 C280 1.378 . S
C282 C283 1.367 . S
C283 C282 1.367 . S
C283 C285 1.433 . S
C284 C280 1.350 . S
C284 C281 1.463 . S
C284 N288 1.427 . S
C285 H275 0.929 . S
C285 C283 1.433 . S
C285 N288 1.384 . S
C286 H277 0.929 . S
C286 C278 1.378 . S
C286 C281 1.350 . S
C287 H274 0.929 . S
C287 C279 1.433 . S
C287 N289 1.384 . S
N288 C284 1.427 . S
N288 C285 1.384 . S
N289 C281 1.427 . S
N289 C287 1.384 . S
H290 C296 0.930 . S
H291 C300 0.930 . S
H292 C305 0.929 . S
H293 C303 0.929 . S
H294 C298 0.929 . S
H295 C304 0.929 . S
C296 H290 0.930 . S
C296 C297 1.367 . S
C296 C304 1.378 . S
C297 C296 1.367 . S
C297 C305 1.433 . S
C298 H294 0.929 . S
C298 C300 1.378 . S
C298 C302 1.350 . S
C299 C302 1.463 . S
C299 C304 1.350 . S
C299 N307 1.427 . S
C300 H291 0.930 . S
C300 C298 1.378 . S
C300 C301 1.367 . S
C301 C300 1.367 . S
C301 C303 1.433 . S
C302 C298 1.350 . S
C302 C299 1.463 . S
C302 N306 1.427 . S
C303 H293 0.929 . S
C303 C301 1.433 . S
C303 N306 1.384 . S
C304 H295 0.929 . S
C304 C296 1.378 . S
C304 C299 1.350 . S
C305 H292 0.929 . S
C305 C297 1.433 . S
C305 N307 1.384 . S
N306 C302 1.427 . S
N306 C303 1.384 . S
N307 C299 1.427 . S
N307 C305 1.384 . S
H308 C314 0.930 . S
H309 C318 0.930 . S
H310 C323 0.929 . S
H311 C321 0.929 . S
H312 C316 0.929 . S
H313 C322 0.929 . S
C314 H308 0.930 . S
C314 C315 1.367 . S
C314 C322 1.378 . S
C315 C314 1.367 . S
C315 C323 1.433 . S
C316 H312 0.929 . S
C316 C318 1.378 . S
C316 C320 1.350 . S
C317 C320 1.463 . S
C317 C322 1.350 . S
C317 N325 1.427 . S
C318 H309 0.930 . S
C318 C316 1.378 . S
C318 C319 1.367 . S
C319 C318 1.367 . S
C319 C321 1.433 . S
C320 C316 1.350 . S
C320 C317 1.463 . S
C320 N324 1.427 . S
C321 H311 0.929 . S
C321 C319 1.433 . S
C321 N324 1.384 . S
C322 H313 0.929 . S
C322 C314 1.378 . S
C322 C317 1.350 . S
C323 H310 0.929 . S
C323 C315 1.433 . S
C323 N325 1.384 . S
N324 C320 1.427 . S
N324 C321 1.384 . S
N325 C317 1.427 . S
N325 C323 1.384 . S
H326 C332 0.930 . S
H327 C336 0.930 . S
H328 C341 0.929 . S
H329 C339 0.929 . S
H330 C334 0.929 . S
H331 C340 0.929 . S
C332 H326 0.930 . S
C332 C333 1.367 . S
C332 C340 1.378 . S
C333 C332 1.367 . S
C333 C341 1.433 . S
C334 H330 0.929 . S
C334 C336 1.378 . S
C334 C338 1.350 . S
C335 C338 1.463 1_556 S
C335 C340 1.350 . S
C335 N343 1.427 . S
C336 H327 0.930 . S
C336 C334 1.378 . S
C336 C337 1.367 . S
C337 C336 1.367 . S
C337 C339 1.433 . S
C338 C334 1.350 . S
C338 C335 1.463 1_554 S
C338 N342 1.427 . S
C339 H329 0.929 . S
C339 C337 1.433 . S
C339 N342 1.384 . S
C340 H331 0.929 . S
C340 C332 1.378 . S
C340 C335 1.350 . S
C341 H328 0.929 . S
C341 C333 1.433 . S
C341 N343 1.384 . S
N342 C338 1.427 . S
N342 C339 1.384 . S
N343 C335 1.427 . S
N343 C341 1.384 . S
H344 C350 0.930 . S
H345 C354 0.930 . S
H346 C359 0.932 . S
H347 C357 0.932 . S
H348 C352 0.929 . S
H349 C358 0.929 . S
C350 H344 0.930 . S
C350 C351 1.367 . S
C350 C358 1.378 . S
C351 C350 1.367 . S
C351 C359 1.429 1_554 S
C352 H348 0.929 . S
C352 C354 1.378 . S
C352 C356 1.350 . S
C353 C356 1.463 1_454 S
C353 C358 1.350 . S
C353 N361 1.427 1_554 S
C354 H345 0.930 . S
C354 C352 1.378 . S
C354 C355 1.367 . S
C355 C354 1.367 . S
C355 C357 1.428 1_556 S
C356 C352 1.350 . S
C356 C353 1.463 1_656 S
C356 N360 1.427 1_556 S
C357 H347 0.932 . S
C357 C355 1.428 1_554 S
C357 N360 1.386 . S
C358 H349 0.929 . S
C358 C350 1.378 . S
C358 C353 1.350 . S
C359 H346 0.932 . S
C359 C351 1.429 1_556 S
C359 N361 1.385 . S
N360 C356 1.427 1_554 S
N360 C357 1.386 . S
N361 C353 1.427 1_556 S
N361 C359 1.385 . S
H362 C368 0.930 . S
H363 C372 0.930 . S
H364 C377 0.929 . S
H365 C375 0.929 . S
H366 C370 0.929 . S
H367 C376 0.929 . S
C368 H362 0.930 . S
C368 C369 1.367 . S
C368 C376 1.378 . S
C369 C368 1.367 . S
C369 C377 1.433 . S
C370 H366 0.929 . S
C370 C372 1.378 . S
C370 C374 1.350 . S
C371 C374 1.463 1_545 S
C371 C376 1.350 . S
C371 N379 1.427 . S
C372 H363 0.930 . S
C372 C370 1.378 . S
C372 C373 1.367 . S
C373 C372 1.367 . S
C373 C375 1.433 . S
C374 C370 1.350 . S
C374 C371 1.463 1_565 S
C374 N378 1.427 . S
C375 H365 0.929 . S
C375 C373 1.433 . S
C375 N378 1.384 . S
C376 H367 0.929 . S
C376 C368 1.378 . S
C376 C371 1.350 . S
C377 H364 0.929 . S
C377 C369 1.433 . S
C377 N379 1.384 . S
N378 C374 1.427 . S
N378 C375 1.384 . S
N379 C371 1.427 . S
N379 C377 1.384 . S
H380 C386 0.930 . S
H381 C390 0.930 . S
H382 C395 0.929 . S
H383 C393 0.929 . S
H384 C388 0.929 . S
H385 C394 0.929 . S
C386 H380 0.930 . S
C386 C387 1.367 . S
C386 C394 1.378 . S
C387 C386 1.367 . S
C387 C395 1.433 . S
C388 H384 0.929 . S
C388 C390 1.378 . S
C388 C392 1.350 . S
C389 C392 1.463 1_455 S
C389 C394 1.350 . S
C389 N397 1.427 . S
C390 H381 0.930 . S
C390 C388 1.378 . S
C390 C391 1.367 . S
C391 C390 1.367 . S
C391 C393 1.433 . S
C392 C388 1.350 . S
C392 C389 1.463 1_655 S
C392 N396 1.427 . S
C393 H383 0.929 . S
C393 C391 1.433 . S
C393 N396 1.384 . S
C394 H385 0.929 . S
C394 C386 1.378 . S
C394 C389 1.350 . S
C395 H382 0.929 . S
C395 C387 1.433 . S
C395 N397 1.384 . S
N396 C392 1.427 . S
N396 C393 1.384 . S
N397 C389 1.427 . S
N397 C395 1.384 . S
H398 C404 0.930 . S
H399 C408 0.930 . S
H400 C413 0.929 . S
H401 C411 0.929 . S
H402 C406 0.929 . S
H403 C412 0.929 . S
C404 H398 0.930 . S
C404 C405 1.367 . S
C404 C412 1.378 . S
C405 C404 1.367 . S
C405 C413 1.433 . S
C406 H402 0.929 . S
C406 C408 1.378 . S
C406 C410 1.350 . S
C407 C410 1.463 1_545 S
C407 C412 1.350 . S
C407 N415 1.427 . S
C408 H399 0.930 . S
C408 C406 1.378 . S
C408 C409 1.367 . S
C409 C408 1.367 . S
C409 C411 1.433 . S
C410 C406 1.350 . S
C410 C407 1.463 1_565 S
C410 N414 1.427 . S
C411 H401 0.929 . S
C411 C409 1.433 . S
C411 N414 1.384 . S
C412 H403 0.929 . S
C412 C404 1.378 . S
C412 C407 1.350 . S
C413 H400 0.929 . S
C413 C405 1.433 . S
C413 N415 1.384 . S
N414 C410 1.427 . S
N414 C411 1.384 . S
N415 C407 1.427 . S
N415 C413 1.384 . S
H416 C422 0.930 . S
H417 C426 0.930 . S
H418 C431 0.929 . S
H419 C429 0.929 . S
H420 C424 0.929 . S
H421 C430 0.929 . S
C422 H416 0.930 . S
C422 C423 1.367 . S
C422 C430 1.378 . S
C423 C422 1.367 . S
C423 C431 1.433 . S
C424 H420 0.929 . S
C424 C426 1.378 . S
C424 C428 1.350 . S
C425 C428 1.463 . S
C425 C430 1.350 . S
C425 N433 1.427 . S
C426 H417 0.930 . S
C426 C424 1.378 . S
C426 C427 1.367 . S
C427 C426 1.367 . S
C427 C429 1.433 . S
C428 C424 1.350 . S
C428 C425 1.463 . S
C428 N432 1.427 . S
C429 H419 0.929 . S
C429 C427 1.433 . S
C429 N432 1.384 . S
C430 H421 0.929 . S
C430 C422 1.378 . S
C430 C425 1.350 . S
C431 H418 0.929 . S
C431 C423 1.433 . S
C431 N433 1.384 . S
N432 C428 1.427 . S
N432 C429 1.384 . S
N433 C425 1.427 . S
N433 C431 1.384 . S
H434 C440 0.930 . S
H435 C444 0.930 . S
H436 C449 0.929 . S
H437 C447 0.929 . S
H438 C442 0.929 . S
H439 C448 0.929 . S
C440 H434 0.930 . S
C440 C441 1.367 . S
C440 C448 1.378 . S
C441 C440 1.367 . S
C441 C449 1.433 . S
C442 H438 0.929 . S
C442 C444 1.378 . S
C442 C446 1.350 . S
C443 C446 1.463 . S
C443 C448 1.350 . S
C443 N451 1.427 . S
C444 H435 0.930 . S
C444 C442 1.378 . S
C444 C445 1.367 . S
C445 C444 1.367 . S
C445 C447 1.433 . S
C446 C442 1.350 . S
C446 C443 1.463 . S
C446 N450 1.427 . S
C447 H437 0.929 . S
C447 C445 1.433 . S
C447 N450 1.384 . S
C448 H439 0.929 . S
C448 C440 1.378 . S
C448 C443 1.350 . S
C449 H436 0.929 . S
C449 C441 1.433 . S
C449 N451 1.384 . S
N450 C446 1.427 . S
N450 C447 1.384 . S
N451 C443 1.427 . S
N451 C449 1.384 . S
H452 C458 0.930 . S
H453 C462 0.930 . S
H454 C467 0.929 . S
H455 C465 0.929 . S
H456 C460 0.929 . S
H457 C466 0.929 . S
C458 H452 0.930 . S
C458 C459 1.367 . S
C458 C466 1.378 . S
C459 C458 1.367 . S
C459 C467 1.433 . S
C460 H456 0.929 . S
C460 C462 1.378 . S
C460 C464 1.350 . S
C461 C464 1.463 . S
C461 C466 1.350 . S
C461 N469 1.427 . S
C462 H453 0.930 . S
C462 C460 1.378 . S
C462 C463 1.367 . S
C463 C462 1.367 . S
C463 C465 1.433 . S
C464 C460 1.350 . S
C464 C461 1.463 . S
C464 N468 1.427 . S
C465 H455 0.929 . S
C465 C463 1.433 . S
C465 N468 1.384 . S
C466 H457 0.929 . S
C466 C458 1.378 . S
C466 C461 1.350 . S
C467 H454 0.929 . S
C467 C459 1.433 . S
C467 N469 1.384 . S
N468 C464 1.427 . S
N468 C465 1.384 . S
N469 C461 1.427 . S
N469 C467 1.384 . S
H470 C476 0.930 . S
H471 C480 0.930 . S
H472 C485 0.929 . S
H473 C483 0.929 . S
H474 C478 0.929 . S
H475 C484 0.929 . S
C476 H470 0.930 . S
C476 C477 1.367 . S
C476 C484 1.378 . S
C477 C476 1.367 . S
C477 C485 1.433 . S
C478 H474 0.929 . S
C478 C480 1.378 . S
C478 C482 1.350 . S
C479 C482 1.463 . S
C479 C484 1.350 . S
C479 N487 1.427 . S
C480 H471 0.930 . S
C480 C478 1.378 . S
C480 C481 1.367 . S
C481 C480 1.367 . S
C481 C483 1.433 . S
C482 C478 1.350 . S
C482 C479 1.463 . S
C482 N486 1.427 . S
C483 H473 0.929 . S
C483 C481 1.433 . S
C483 N486 1.384 . S
C484 H475 0.929 . S
C484 C476 1.378 . S
C484 C479 1.350 . S
C485 H472 0.929 . S
C485 C477 1.433 . S
C485 N487 1.384 . S
N486 C482 1.427 . S
N486 C483 1.384 . S
N487 C479 1.427 . S
N487 C485 1.384 . S
H488 C494 0.930 . S
H489 C498 0.930 . S
H490 C503 0.929 . S
H491 C501 0.929 . S
H492 C496 0.929 . S
H493 C502 0.929 . S
C494 H488 0.930 . S
C494 C495 1.367 . S
C494 C502 1.378 . S
C495 C494 1.367 . S
C495 C503 1.433 . S
C496 H492 0.929 . S
C496 C498 1.378 . S
C496 C500 1.350 . S
C497 C500 1.463 . S
C497 C502 1.350 . S
C497 N505 1.427 . S
C498 H489 0.930 . S
C498 C496 1.378 . S
C498 C499 1.367 . S
C499 C498 1.367 . S
C499 C501 1.433 . S
C500 C496 1.350 . S
C500 C497 1.463 . S
C500 N504 1.427 . S
C501 H491 0.929 . S
C501 C499 1.433 . S
C501 N504 1.384 . S
C502 H493 0.929 . S
C502 C494 1.378 . S
C502 C497 1.350 . S
C503 H490 0.929 . S
C503 C495 1.433 . S
C503 N505 1.384 . S
N504 C500 1.427 . S
N504 C501 1.384 . S
N505 C497 1.427 . S
N505 C503 1.384 . S
H506 C512 0.930 . S
H507 C516 0.930 . S
H508 C521 0.929 . S
H509 C519 0.929 . S
H510 C514 0.929 . S
H511 C520 0.929 . S
C512 H506 0.930 . S
C512 C513 1.367 . S
C512 C520 1.378 . S
C513 C512 1.367 . S
C513 C521 1.433 . S
C514 H510 0.929 . S
C514 C516 1.378 . S
C514 C518 1.350 . S
C515 C518 1.463 . S
C515 C520 1.350 . S
C515 N523 1.427 . S
C516 H507 0.930 . S
C516 C514 1.378 . S
C516 C517 1.367 . S
C517 C516 1.367 . S
C517 C519 1.433 . S
C518 C514 1.350 . S
C518 C515 1.463 . S
C518 N522 1.427 . S
C519 H509 0.929 . S
C519 C517 1.433 . S
C519 N522 1.384 . S
C520 H511 0.929 . S
C520 C512 1.378 . S
C520 C515 1.350 . S
C521 H508 0.929 . S
C521 C513 1.433 . S
C521 N523 1.384 . S
N522 C518 1.427 . S
N522 C519 1.384 . S
N523 C515 1.427 . S
N523 C521 1.384 . S
H524 C530 0.930 . S
H525 C534 0.930 . S
H526 C539 0.929 . S
H527 C537 0.929 . S
H528 C532 0.929 . S
H529 C538 0.929 . S
C530 H524 0.930 . S
C530 C531 1.367 . S
C530 C538 1.378 . S
C531 C530 1.367 . S
C531 C539 1.433 . S
C532 H528 0.929 . S
C532 C534 1.378 . S
C532 C536 1.350 . S
C533 C536 1.463 . S
C533 C538 1.350 . S
C533 N541 1.427 . S
C534 H525 0.930 . S
C534 C532 1.378 . S
C534 C535 1.367 . S
C535 C534 1.367 . S
C535 C537 1.433 . S
C536 C532 1.350 . S
C536 C533 1.463 . S
C536 N540 1.427 . S
C537 H527 0.929 . S
C537 C535 1.433 . S
C537 N540 1.384 . S
C538 H529 0.929 . S
C538 C530 1.378 . S
C538 C533 1.350 . S
C539 H526 0.929 . S
C539 C531 1.433 . S
C539 N541 1.384 . S
N540 C536 1.427 . S
N540 C537 1.384 . S
N541 C533 1.427 . S
N541 C539 1.384 . S
H542 C548 0.930 . S
H543 C552 0.930 . S
H544 C557 0.929 . S
H545 C555 0.929 . S
H546 C550 0.929 . S
H547 C556 0.929 . S
C548 H542 0.930 . S
C548 C549 1.367 . S
C548 C556 1.378 . S
C549 C548 1.367 . S
C549 C557 1.433 . S
C550 H546 0.929 . S
C550 C552 1.378 . S
C550 C554 1.350 . S
C551 C554 1.463 . S
C551 C556 1.350 . S
C551 N559 1.427 . S
C552 H543 0.930 . S
C552 C550 1.378 . S
C552 C553 1.367 . S
C553 C552 1.367 . S
C553 C555 1.433 . S
C554 C550 1.350 . S
C554 C551 1.463 . S
C554 N558 1.427 . S
C555 H545 0.929 . S
C555 C553 1.433 . S
C555 N558 1.384 . S
C556 H547 0.929 . S
C556 C548 1.378 . S
C556 C551 1.350 . S
C557 H544 0.929 . S
C557 C549 1.433 . S
C557 N559 1.384 . S
N558 C554 1.427 . S
N558 C555 1.384 . S
N559 C551 1.427 . S
N559 C557 1.384 . S
H560 C566 0.930 . S
H561 C570 0.930 . S
H562 C575 0.929 . S
H563 C573 0.929 . S
H564 C568 0.929 . S
H565 C574 0.929 . S
C566 H560 0.930 . S
C566 C567 1.367 . S
C566 C574 1.378 . S
C567 C566 1.367 . S
C567 C575 1.433 . S
C568 H564 0.929 . S
C568 C570 1.378 . S
C568 C572 1.350 . S
C569 C572 1.463 . S
C569 C574 1.350 . S
C569 N577 1.427 . S
C570 H561 0.930 . S
C570 C568 1.378 . S
C570 C571 1.367 . S
C571 C570 1.367 . S
C571 C573 1.433 . S
C572 C568 1.350 . S
C572 C569 1.463 . S
C572 N576 1.427 . S
C573 H563 0.929 . S
C573 C571 1.433 . S
C573 N576 1.384 . S
C574 H565 0.929 . S
C574 C566 1.378 . S
C574 C569 1.350 . S
C575 H562 0.929 . S
C575 C567 1.433 . S
C575 N577 1.384 . S
N576 C572 1.427 . S
N576 C573 1.384 . S
N577 C569 1.427 . S
N577 C575 1.384 . S
H578 C584 0.930 . S
H579 C588 0.930 . S
H580 C593 0.929 . S
H581 C591 0.929 . S
H582 C586 0.929 . S
H583 C592 0.929 . S
C584 H578 0.930 . S
C584 C585 1.367 . S
C584 C592 1.378 . S
C585 C584 1.367 . S
C585 C593 1.433 . S
C586 H582 0.929 . S
C586 C588 1.378 . S
C586 C590 1.350 . S
C587 C590 1.463 . S
C587 C592 1.350 . S
C587 N595 1.427 . S
C588 H579 0.930 . S
C588 C586 1.378 . S
C588 C589 1.367 . S
C589 C588 1.367 . S
C589 C591 1.433 . S
C590 C586 1.350 . S
C590 C587 1.463 . S
C590 N594 1.427 . S
C591 H581 0.929 . S
C591 C589 1.433 . S
C591 N594 1.384 . S
C592 H583 0.929 . S
C592 C584 1.378 . S
C592 C587 1.350 . S
C593 H580 0.929 . S
C593 C585 1.433 . S
C593 N595 1.384 . S
N594 C590 1.427 . S
N594 C591 1.384 . S
N595 C587 1.427 . S
N595 C593 1.384 . S
H596 C602 0.930 . S
H597 C606 0.930 . S
H598 C611 0.929 . S
H599 C609 0.929 . S
H600 C604 0.929 . S
H601 C610 0.929 . S
C602 H596 0.930 . S
C602 C603 1.367 . S
C602 C610 1.378 . S
C603 C602 1.367 . S
C603 C611 1.433 . S
C604 H600 0.929 . S
C604 C606 1.378 . S
C604 C608 1.350 . S
C605 C608 1.463 . S
C605 C610 1.350 . S
C605 N613 1.427 . S
C606 H597 0.930 . S
C606 C604 1.378 . S
C606 C607 1.367 . S
C607 C606 1.367 . S
C607 C609 1.433 . S
C608 C604 1.350 . S
C608 C605 1.463 . S
C608 N612 1.427 . S
C609 H599 0.929 . S
C609 C607 1.433 . S
C609 N612 1.384 . S
C610 H601 0.929 . S
C610 C602 1.378 . S
C610 C605 1.350 . S
C611 H598 0.929 . S
C611 C603 1.433 . S
C611 N613 1.384 . S
N612 C608 1.427 . S
N612 C609 1.384 . S
N613 C605 1.427 . S
N613 C611 1.384 . S
H614 C620 0.930 . S
H615 C624 0.930 . S
H616 C629 0.929 . S
H617 C627 0.929 . S
H618 C622 0.929 . S
H619 C628 0.929 . S
C620 H614 0.930 . S
C620 C621 1.367 . S
C620 C628 1.378 . S
C621 C620 1.367 . S
C621 C629 1.433 . S
C622 H618 0.929 . S
C622 C624 1.378 . S
C622 C626 1.350 . S
C623 C626 1.463 . S
C623 C628 1.350 . S
C623 N631 1.427 . S
C624 H615 0.930 . S
C624 C622 1.378 . S
C624 C625 1.367 . S
C625 C624 1.367 . S
C625 C627 1.433 . S
C626 C622 1.350 . S
C626 C623 1.463 . S
C626 N630 1.427 . S
C627 H617 0.929 . S
C627 C625 1.433 . S
C627 N630 1.384 . S
C628 H619 0.929 . S
C628 C620 1.378 . S
C628 C623 1.350 . S
C629 H616 0.929 . S
C629 C621 1.433 . S
C629 N631 1.384 . S
N630 C626 1.427 . S
N630 C627 1.384 . S
N631 C623 1.427 . S
N631 C629 1.384 . S
C279 C141 1.255 . S
C283 C5 1.244 . S
C297 C39 1.253 . S
C301 C175 1.242 . S
C315 C73 1.252 . S
C319 C209 1.242 . S
C333 C107 1.244 . S
C337 C243 1.245 . S
C351 C20 1.181 . S
C355 C224 1.174 . S
C369 C54 1.185 . S
C373 C258 1.181 . S
C387 C156 1.183 . S
C391 C88 1.176 . S
C405 C190 1.185 . S
C409 C122 1.182 . S
C423 C240 0.889 . S
C427 C2 0.890 . S
C441 C36 0.892 . S
C445 C138 0.892 . S
C459 C172 0.887 . S
C463 C70 0.888 . S
C477 C206 0.881 . S
C481 C104 0.881 . S
C495 C33 1.389 . S
C499 C43 1.396 . S
C513 C67 1.392 . S
C517 C77 1.392 . S
C531 C111 1.396 . S
C535 C101 1.392 . S
C549 C9 1.398 . S
C553 C135 1.389 . S
C567 C169 1.388 . S
C571 C247 1.398 . S
C585 C145 1.398 . S
C589 C203 1.388 . S
C603 C237 1.398 . S
C607 C179 1.389 . S
C621 C271 1.388 . S
C625 C213 1.398 . S
