# Generated by pormake.
# Topology xfh, (7)-cn, num edge types: 1
# Building blocks:
#     Node 0, Type 0, BuildingBlock: NUHQUE_clean_sbu_2, # of connection points: 7
#     Node 1, Type 0, BuildingBlock: NUHQUE_clean_sbu_2, # of connection points: 7
#     Node 2, Type 0, BuildingBlock: NUHQUE_clean_sbu_2, # of connection points: 7
#     Node 3, Type 0, BuildingBlock: NUHQUE_clean_sbu_2, # of connection points: 7
#     Node 4, Type 0, BuildingBlock: NUHQUE_clean_sbu_2, # of connection points: 7
#     Node 5, Type 0, BuildingBlock: NUHQUE_clean_sbu_2, # of connection points: 7
#     Node 6, Type 0, BuildingBlock: NUHQUE_clean_sbu_2, # of connection points: 7
#     Node 7, Type 0, BuildingBlock: NUHQUE_clean_sbu_2, # of connection points: 7
#     Node 8, Type 0, BuildingBlock: NUHQUE_clean_sbu_2, # of connection points: 7
#     Node 9, Type 0, BuildingBlock: NUHQUE_clean_sbu_2, # of connection points: 7
#     Node 10, Type 0, BuildingBlock: NUHQUE_clean_sbu_2, # of connection points: 7
#     Node 11, Type 0, BuildingBlock: NUHQUE_clean_sbu_2, # of connection points: 7
#     Node 12, Type 0, BuildingBlock: NUHQUE_clean_sbu_2, # of connection points: 7
#     Node 13, Type 0, BuildingBlock: NUHQUE_clean_sbu_2, # of connection points: 7
#     Node 14, Type 0, BuildingBlock: NUHQUE_clean_sbu_2, # of connection points: 7
#     Node 15, Type 0, BuildingBlock: NUHQUE_clean_sbu_2, # of connection points: 7
#     Edge 16, Type (0, 0), BuildingBlock: UVAHIK_clean_linker_0, # of connection points: 2
#     Edge 17, Type (0, 0), BuildingBlock: UVAHIK_clean_linker_0, # of connection points: 2
#     Edge 18, Type (0, 0), BuildingBlock: UVAHIK_clean_linker_0, # of connection points: 2
#     Edge 19, Type (0, 0), BuildingBlock: UVAHIK_clean_linker_0, # of connection points: 2
#     Edge 20, Type (0, 0), BuildingBlock: UVAHIK_clean_linker_0, # of connection points: 2
#     Edge 21, Type (0, 0), BuildingBlock: UVAHIK_clean_linker_0, # of connection points: 2
#     Edge 22, Type (0, 0), BuildingBlock: UVAHIK_clean_linker_0, # of connection points: 2
#     Edge 23, Type (0, 0), BuildingBlock: UVAHIK_clean_linker_0, # of connection points: 2
#     Edge 24, Type (0, 0), BuildingBlock: UVAHIK_clean_linker_0, # of connection points: 2
#     Edge 25, Type (0, 0), BuildingBlock: UVAHIK_clean_linker_0, # of connection points: 2
#     Edge 26, Type (0, 0), BuildingBlock: UVAHIK_clean_linker_0, # of connection points: 2
#     Edge 27, Type (0, 0), BuildingBlock: UVAHIK_clean_linker_0, # of connection points: 2
#     Edge 28, Type (0, 0), BuildingBlock: UVAHIK_clean_linker_0, # of connection points: 2
#     Edge 29, Type (0, 0), BuildingBlock: UVAHIK_clean_linker_0, # of connection points: 2
#     Edge 30, Type (0, 0), BuildingBlock: UVAHIK_clean_linker_0, # of connection points: 2
#     Edge 31, Type (0, 0), BuildingBlock: UVAHIK_clean_linker_0, # of connection points: 2
#     Edge 32, Type (0, 0), BuildingBlock: UVAHIK_clean_linker_0, # of connection points: 2
#     Edge 33, Type (0, 0), BuildingBlock: UVAHIK_clean_linker_0, # of connection points: 2
#     Edge 34, Type (0, 0), BuildingBlock: UVAHIK_clean_linker_0, # of connection points: 2
#     Edge 35, Type (0, 0), BuildingBlock: UVAHIK_clean_linker_0, # of connection points: 2
#     Edge 36, Type (0, 0), BuildingBlock: UVAHIK_clean_linker_0, # of connection points: 2
#     Edge 37, Type (0, 0), BuildingBlock: UVAHIK_clean_linker_0, # of connection points: 2
#     Edge 38, Type (0, 0), BuildingBlock: UVAHIK_clean_linker_0, # of connection points: 2
#     Edge 39, Type (0, 0), BuildingBlock: UVAHIK_clean_linker_0, # of connection points: 2
#     Edge 40, Type (0, 0), BuildingBlock: UVAHIK_clean_linker_0, # of connection points: 2
#     Edge 41, Type (0, 0), BuildingBlock: UVAHIK_clean_linker_0, # of connection points: 2
#     Edge 42, Type (0, 0), BuildingBlock: UVAHIK_clean_linker_0, # of connection points: 2
#     Edge 43, Type (0, 0), BuildingBlock: UVAHIK_clean_linker_0, # of connection points: 2
#     Edge 44, Type (0, 0), BuildingBlock: UVAHIK_clean_linker_0, # of connection points: 2
#     Edge 45, Type (0, 0), BuildingBlock: UVAHIK_clean_linker_0, # of connection points: 2
#     Edge 46, Type (0, 0), BuildingBlock: UVAHIK_clean_linker_0, # of connection points: 2
#     Edge 47, Type (0, 0), BuildingBlock: UVAHIK_clean_linker_0, # of connection points: 2
#     Edge 48, Type (0, 0), BuildingBlock: UVAHIK_clean_linker_0, # of connection points: 2
#     Edge 49, Type (0, 0), BuildingBlock: UVAHIK_clean_linker_0, # of connection points: 2
#     Edge 50, Type (0, 0), BuildingBlock: UVAHIK_clean_linker_0, # of connection points: 2
#     Edge 51, Type (0, 0), BuildingBlock: UVAHIK_clean_linker_0, # of connection points: 2
#     Edge 52, Type (0, 0), BuildingBlock: UVAHIK_clean_linker_0, # of connection points: 2
#     Edge 53, Type (0, 0), BuildingBlock: UVAHIK_clean_linker_0, # of connection points: 2
#     Edge 54, Type (0, 0), BuildingBlock: UVAHIK_clean_linker_0, # of connection points: 2
#     Edge 55, Type (0, 0), BuildingBlock: UVAHIK_clean_linker_0, # of connection points: 2
#     Edge 56, Type (0, 0), BuildingBlock: UVAHIK_clean_linker_0, # of connection points: 2
#     Edge 57, Type (0, 0), BuildingBlock: UVAHIK_clean_linker_0, # of connection points: 2
#     Edge 58, Type (0, 0), BuildingBlock: UVAHIK_clean_linker_0, # of connection points: 2
#     Edge 59, Type (0, 0), BuildingBlock: UVAHIK_clean_linker_0, # of connection points: 2
#     Edge 60, Type (0, 0), BuildingBlock: UVAHIK_clean_linker_0, # of connection points: 2
#     Edge 61, Type (0, 0), BuildingBlock: UVAHIK_clean_linker_0, # of connection points: 2
#     Edge 62, Type (0, 0), BuildingBlock: UVAHIK_clean_linker_0, # of connection points: 2
#     Edge 63, Type (0, 0), BuildingBlock: UVAHIK_clean_linker_0, # of connection points: 2
#     Edge 64, Type (0, 0), BuildingBlock: UVAHIK_clean_linker_0, # of connection points: 2
#     Edge 65, Type (0, 0), BuildingBlock: UVAHIK_clean_linker_0, # of connection points: 2
#     Edge 66, Type (0, 0), BuildingBlock: UVAHIK_clean_linker_0, # of connection points: 2
#     Edge 67, Type (0, 0), BuildingBlock: UVAHIK_clean_linker_0, # of connection points: 2
#     Edge 68, Type (0, 0), BuildingBlock: UVAHIK_clean_linker_0, # of connection points: 2
#     Edge 69, Type (0, 0), BuildingBlock: UVAHIK_clean_linker_0, # of connection points: 2
#     Edge 70, Type (0, 0), BuildingBlock: UVAHIK_clean_linker_0, # of connection points: 2
#     Edge 71, Type (0, 0), BuildingBlock: UVAHIK_clean_linker_0, # of connection points: 2
# Relax obj value: 0.259
# Max RMSD: 0.281
# Mean RMSD: 0.264
data_MOF--net-xfh--node1-NUHQUE_clean_sbu_2--edge1-UVAHIK_clean_linker_0
_symmetry_space_group_name_H-M    P1
_symmetry_Int_Tables_number       1
_symmetry_cell_setting            triclinic
loop_
_symmetry_equiv_pos_as_xyz
'x, y, z'
_cell_length_a     43.478771
_cell_length_b     42.551735
_cell_length_c     85.522114
_cell_angle_alpha  90.16057
_cell_angle_beta   90.183403
_cell_angle_gamma 90.040445
loop_
_atom_site_label
_atom_site_type_symbol
_atom_site_fract_x
_atom_site_fract_y
_atom_site_fract_z
_atom_type_partial_charge
O0 O 0.25084 0.06632 0.07864 0.0
Tb1 Tb 0.23773 0.06212 0.10304 0.0
Eu2 Eu 0.31773 0.07261 0.10394 0.0
C3 C 0.24852 0.04178 0.06931 0.0
O4 O 0.23978 0.01475 0.0752 0.0
C5 C 0.2673 0.1281 0.10673 0.0
O6 O 0.3205 0.06489 0.13001 0.0
C7 C 0.37388 0.07931 0.09424 0.0
C8 C 0.2965 0.06316 0.13927 0.0
O9 O 0.26875 0.06621 0.13344 0.0
C10 C 0.28276 0.00623 0.1047 0.0
C11 C 0.4028 0.0611 0.09291 0.0
C12 C 0.41474 0.05455 0.07795 0.0
C13 C 0.44329 0.0395 0.0763 0.0
C14 C 0.45934 0.03011 0.0897 0.0
C15 C 0.44818 0.03685 0.10463 0.0
C16 C 0.41995 0.05242 0.10629 0.0
O17 O 0.24712 0.10834 0.11245 0.0
O18 O 0.29198 0.1182 0.09928 0.0
O19 O 0.19163 0.05302 0.09356 0.0
O20 O 0.19754 0.05757 0.11809 0.0
C21 C 0.17771 0.05248 0.10699 0.0
O22 O 0.30444 0.02251 0.09772 0.0
O23 O 0.25955 0.01999 0.11163 0.0
O24 O 0.36482 0.08706 0.10837 0.0
O25 O 0.35103 0.07135 0.0849 0.0
H26 H 0.40243 0.06233 0.06762 0.0
H27 H 0.48137 0.01836 0.08855 0.0
H28 H 0.41186 0.05822 0.11791 0.0
O29 O 0.7362 0.63709 0.37138 0.0
Tb30 Tb 0.73438 0.58636 0.37405 0.0
Eu31 Eu 0.74285 0.51516 0.35799 0.0
C32 C 0.75866 0.65243 0.3784 0.0
O33 O 0.77973 0.63622 0.38591 0.0
C34 C 0.79831 0.55604 0.36834 0.0
O35 O 0.74978 0.46279 0.35996 0.0
C36 C 0.74538 0.53624 0.32953 0.0
C37 C 0.72669 0.44322 0.35785 0.0
O38 O 0.69965 0.45452 0.35391 0.0
C39 C 0.67888 0.54423 0.3663 0.0
C40 C 0.72908 0.54643 0.31519 0.0
C41 C 0.73365 0.57741 0.30982 0.0
C42 C 0.7228 0.58659 0.29507 0.0
C43 C 0.70618 0.56509 0.28597 0.0
C44 C 0.7015 0.53412 0.291 0.0
C45 C 0.71312 0.52478 0.30562 0.0
O46 O 0.78117 0.58074 0.36516 0.0
O47 O 0.78553 0.52863 0.37094 0.0
O48 O 0.72355 0.60185 0.39766 0.0
O49 O 0.74191 0.55601 0.3945 0.0
C50 C 0.7322 0.57641 0.40476 0.0
O51 O 0.69643 0.51974 0.36885 0.0
O52 O 0.6912 0.57171 0.363 0.0
O53 O 0.74598 0.50613 0.333 0.0
O54 O 0.7441 0.5547 0.34185 0.0
H55 H 0.7474 0.59373 0.31666 0.0
H56 H 0.69856 0.57202 0.27439 0.0
H57 H 0.7106 0.50053 0.30923 0.0
O58 O 0.27397 0.93235 0.57733 0.0
Tb59 Tb 0.27163 0.93293 0.6028 0.0
Eu60 Eu 0.18833 0.92675 0.5995 0.0
C61 C 0.25012 0.92801 0.56808 0.0
O62 O 0.22279 0.92382 0.5741 0.0
C63 C 0.23551 0.86993 0.60524 0.0
O64 O 0.18956 0.93857 0.62518 0.0
C65 C 0.13181 0.92258 0.58958 0.0
C66 C 0.19043 0.91654 0.63593 0.0
O67 O 0.19129 0.88689 0.63165 0.0
C68 C 0.22716 0.99046 0.5985 0.0
C69 C 0.10477 0.94297 0.58634 0.0
C70 C 0.09605 0.9493 0.57073 0.0
C71 C 0.07018 0.96804 0.56745 0.0
C72 C 0.05299 0.98015 0.57989 0.0
C73 C 0.0607 0.97352 0.59545 0.0
C74 C 0.08653 0.95481 0.59866 0.0
O75 O 0.25419 0.88936 0.61259 0.0
O76 O 0.21275 0.88019 0.59645 0.0
O77 O 0.32153 0.92617 0.60078 0.0
O78 O 0.30422 0.95132 0.62021 0.0
C79 C 0.32907 0.94126 0.61346 0.0
O80 O 0.20577 0.97388 0.59138 0.0
O81 O 0.24864 0.97741 0.60717 0.0
O82 O 0.13987 0.9185 0.60427 0.0
O83 O 0.15551 0.92529 0.58016 0.0
H84 H 0.10928 0.93958 0.56115 0.0
H85 H 0.03232 0.99354 0.57743 0.0
H86 H 0.09217 0.94944 0.61071 0.0
O87 O 0.81171 0.53045 0.81246 0.0
Tb88 Tb 0.80718 0.52854 0.83764 0.0
Eu89 Eu 0.80611 0.46793 0.86424 0.0
C90 C 0.81137 0.50474 0.80392 0.0
O91 O 0.80837 0.47737 0.81081 0.0
C92 C 0.86544 0.50619 0.85527 0.0
O93 O 0.79487 0.44834 0.88793 0.0
C94 C 0.81046 0.4219 0.84428 0.0
C95 C 0.8166 0.43827 0.89737 0.0
O96 O 0.84527 0.4384 0.89256 0.0
C97 C 0.7458 0.50122 0.85133 0.0
C98 C 0.79417 0.39197 0.84083 0.0
C99 C 0.78688 0.3836 0.82525 0.0
C100 C 0.77229 0.35469 0.82192 0.0
C101 C 0.76531 0.33432 0.83426 0.0
C102 C 0.77345 0.34177 0.84965 0.0
C103 C 0.78759 0.37062 0.85296 0.0
O104 O 0.85324 0.50911 0.84125 0.0
O105 O 0.84805 0.49839 0.86715 0.0
O106 O 0.80438 0.57919 0.83413 0.0
O107 O 0.80669 0.56174 0.85738 0.0
C108 C 0.80483 0.58703 0.84883 0.0
O109 O 0.76004 0.49165 0.86401 0.0
O110 O 0.76102 0.50806 0.83847 0.0
O111 O 0.82576 0.42309 0.85756 0.0
O112 O 0.79593 0.44824 0.84108 0.0
H113 H 0.79283 0.3993 0.81576 0.0
H114 H 0.75528 0.31148 0.83177 0.0
H115 H 0.79403 0.37599 0.86493 0.0
O116 O 0.80707 0.95534 0.93108 0.0
Tb117 Tb 0.80741 0.97356 0.9074 0.0
Eu118 Eu 0.7252 0.96218 0.89658 0.0
C119 C 0.7815 0.95412 0.93919 0.0
O120 O 0.75568 0.96314 0.93261 0.0
C121 C 0.77688 0.91053 0.89758 0.0
O122 O 0.71772 0.95266 0.87105 0.0
C123 C 0.67308 0.96617 0.9111 0.0
C124 C 0.74059 0.95679 0.86128 0.0
O125 O 0.76764 0.965 0.86685 0.0
C126 C 0.76092 0.0275 0.90033 0.0
C127 C 0.64496 0.98488 0.9136 0.0
C128 C 0.6322 0.98504 0.92867 0.0
C129 C 0.60382 0.99952 0.93145 0.0
C130 C 0.58893 0.01507 0.91922 0.0
C131 C 0.60126 0.01554 0.9041 0.0
C132 C 0.62928 0.99997 0.90122 0.0
O133 O 0.79813 0.93112 0.89378 0.0
O134 O 0.75151 0.91959 0.9045 0.0
O135 O 0.8562 0.97997 0.91286 0.0
O136 O 0.83923 0.99629 0.89105 0.0
C137 C 0.86357 0.99389 0.89988 0.0
O138 O 0.74401 0.01008 0.89098 0.0
O139 O 0.77874 0.01498 0.91107 0.0
O140 O 0.67634 0.95204 0.89752 0.0
O141 O 0.69901 0.97697 0.91704 0.0
H142 H 0.64366 0.97261 0.93809 0.0
H143 H 0.56686 0.0261 0.92143 0.0
H144 H 0.63855 0.99933 0.88947 0.0
O145 O 0.29976 0.48702 0.67733 0.0
Tb146 Tb 0.28667 0.48538 0.65302 0.0
Eu147 Eu 0.2855 0.43269 0.62458 0.0
C148 C 0.29404 0.46339 0.6867 0.0
O149 O 0.27878 0.43886 0.68146 0.0
C150 C 0.34447 0.46999 0.63387 0.0
O151 O 0.27759 0.42158 0.59918 0.0
C152 C 0.29528 0.38325 0.64169 0.0
C153 C 0.26585 0.4439 0.59041 0.0
O154 O 0.25821 0.47065 0.59705 0.0
C155 C 0.22538 0.45536 0.64179 0.0
C156 C 0.27829 0.35553 0.64777 0.0
C157 C 0.27513 0.35083 0.66404 0.0
C158 C 0.25977 0.32405 0.66979 0.0
C159 C 0.24787 0.30201 0.65914 0.0
C160 C 0.25191 0.30569 0.64303 0.0
C161 C 0.2669 0.33248 0.63738 0.0
O162 O 0.3331 0.46915 0.64805 0.0
O163 O 0.32654 0.4642 0.62189 0.0
O164 O 0.27717 0.53491 0.6572 0.0
O165 O 0.28331 0.51916 0.63374 0.0
C166 C 0.27762 0.54347 0.64261 0.0
O167 O 0.23738 0.45032 0.62794 0.0
O168 O 0.24295 0.46043 0.65408 0.0
O169 O 0.30019 0.38421 0.62652 0.0
O170 O 0.28853 0.41091 0.64769 0.0
H171 H 0.28478 0.36774 0.67219 0.0
H172 H 0.23715 0.28071 0.66346 0.0
H173 H 0.27008 0.33491 0.62488 0.0
O174 O 0.74116 0.05719 0.4292 0.0
Tb175 Tb 0.74403 0.05137 0.40408 0.0
Eu176 Eu 0.80627 0.05151 0.37786 0.0
C177 C 0.76528 0.06519 0.4376 0.0
O178 O 0.79191 0.06925 0.43067 0.0
C179 C 0.76653 0.11116 0.38642 0.0
O180 O 0.82386 0.04056 0.35376 0.0
C181 C 0.85302 0.05762 0.39667 0.0
C182 C 0.80675 0.02394 0.34412 0.0
O183 O 0.77917 0.015 0.34847 0.0
C184 C 0.77462 0.98982 0.39161 0.0
C185 C 0.88141 0.04045 0.40135 0.0
C186 C 0.88642 0.03319 0.41724 0.0
C187 C 0.91357 0.01796 0.42199 0.0
C188 C 0.93586 0.01049 0.41081 0.0
C189 C 0.93188 0.01803 0.395 0.0
C190 C 0.9045 0.03299 0.39029 0.0
O191 O 0.76192 0.09879 0.4003 0.0
O192 O 0.77618 0.09383 0.37473 0.0
O193 O 0.69458 0.04736 0.40779 0.0
O194 O 0.7112 0.04669 0.38448 0.0
C195 C 0.68659 0.04523 0.39317 0.0
O196 O 0.78413 1.00406 0.37895 0.0
O197 O 0.76703 1.00569 0.40426 0.0
O198 O 0.85223 0.06912 0.38242 0.0
O199 O 0.82637 0.0461 0.40122 0.0
H200 H 0.86935 0.03954 0.42591 0.0
H201 H 0.95734 1.00008 0.41467 0.0
H202 H 0.90138 0.03896 0.37808 0.0
O203 O 0.2001 0.50161 0.18893 0.0
Tb204 Tb 0.20303 0.50729 0.16382 0.0
Eu205 Eu 0.20188 0.57081 0.13844 0.0
C206 C 0.20721 0.52432 0.19873 0.0
O207 O 0.21567 0.55181 0.19326 0.0
C208 C 0.14159 0.53168 0.14815 0.0
O209 O 0.21008 0.58443 0.11345 0.0
C210 C 0.20303 0.61977 0.15666 0.0
C211 C 0.20086 0.56456 0.10263 0.0
O212 O 0.18682 0.53869 0.107 0.0
C213 C 0.26185 0.53766 0.15039 0.0
C214 C 0.22347 0.64657 0.16074 0.0
C215 C 0.22895 0.65419 0.17657 0.0
C216 C 0.24651 0.68086 0.18063 0.0
C217 C 0.25838 0.69984 0.16871 0.0
C218 C 0.25242 0.69329 0.15292 0.0
C219 C 0.23528 0.66639 0.14899 0.0
O220 O 0.15505 0.52224 0.16115 0.0
O221 O 0.15703 0.54501 0.1368 0.0
O222 O 0.21009 0.45697 0.16652 0.0
O223 O 0.20816 0.47573 0.14354 0.0
C224 C 0.21181 0.45015 0.15173 0.0
O225 O 0.24674 0.54526 0.13769 0.0
O226 O 0.24701 0.53222 0.16349 0.0
O227 O 0.19102 0.61978 0.14251 0.0
O228 O 0.21118 0.59156 0.16146 0.0
H229 H 0.21907 0.63977 0.18571 0.0
H230 H 0.27038 0.72135 0.1718 0.0
H231 H 0.23042 0.66152 0.13678 0.0
O232 O 0.73838 0.5542 0.58158 0.0
Tb233 Tb 0.72509 0.55331 0.60602 0.0
Eu234 Eu 0.80369 0.56379 0.60286 0.0
C235 C 0.72794 0.57662 0.57247 0.0
O236 O 0.71069 0.5988 0.57858 0.0
C237 C 0.75431 0.62017 0.60756 0.0
O238 O 0.8101 0.55403 0.62867 0.0
C239 C 0.85811 0.56879 0.59071 0.0
C240 C 0.78757 0.5555 0.63886 0.0
O241 O 0.76001 0.56357 0.63417 0.0
C242 C 0.77031 0.49854 0.60684 0.0
C243 C 0.88588 0.54935 0.58806 0.0
C244 C 0.89678 0.54548 0.57269 0.0
C245 C 0.92338 0.52779 0.56977 0.0
C246 C 0.93916 0.5142 0.58232 0.0
C247 C 0.92922 0.51828 0.59776 0.0
C248 C 0.90246 0.53591 0.60061 0.0
O249 O 0.73419 0.60091 0.6138 0.0
O250 O 0.77796 0.60982 0.59942 0.0
O251 O 0.6792 0.54315 0.59657 0.0
O252 O 0.68497 0.54759 0.62112 0.0
C253 C 0.66523 0.5422 0.60999 0.0
O254 O 0.78749 0.51452 0.59706 0.0
O255 O 0.74928 0.51288 0.61515 0.0
O256 O 0.8518 0.5767 0.60521 0.0
O257 O 0.83351 0.56172 0.58241 0.0
H258 H 0.88471 0.55641 0.56302 0.0
H259 H 0.96051 0.50182 0.58008 0.0
H260 H 0.89483 0.53929 0.61255 0.0
O261 O 0.23909 0.154 0.87085 0.0
Tb262 Tb 0.23773 0.10293 0.87258 0.0
Eu263 Eu 0.24311 0.03422 0.853 0.0
C264 C 0.26337 0.16912 0.87625 0.0
O265 O 0.28655 0.15267 0.88176 0.0
C266 C 0.29902 0.06949 0.86633 0.0
O267 O 0.24389 0.98105 0.85322 0.0
C268 C 0.25043 0.06003 0.82569 0.0
C269 C 0.23774 0.96682 0.86652 0.0
O270 O 0.23099 0.98422 0.87875 0.0
C271 C 0.17895 0.06465 0.86275 0.0
C272 C 0.23634 0.06937 0.81057 0.0
C273 C 0.23919 0.10079 0.8055 0.0
C274 C 0.22859 0.10979 0.79061 0.0
C275 C 0.21555 0.08698 0.78077 0.0
C276 C 0.21303 0.05546 0.78541 0.0
C277 C 0.22319 0.04686 0.80044 0.0
O278 O 0.28369 0.0952 0.86283 0.0
O279 O 0.28401 0.04311 0.86823 0.0
O280 O 0.23553 0.11639 0.89716 0.0
O281 O 0.24079 0.06809 0.89147 0.0
C282 C 0.23855 0.08833 0.90288 0.0
O283 O 0.19522 0.03867 0.86217 0.0
O284 O 0.19214 0.09266 0.86271 0.0
O285 O 0.25472 0.0299 0.8284 0.0
O286 O 0.24298 0.07614 0.83827 0.0
H287 H 0.25012 0.11809 0.81301 0.0
H288 H 0.20905 0.09361 0.76898 0.0
H289 H 0.22152 0.02255 0.80407 0.0
O290 O 0.77305 0.43225 0.07065 0.0
Tb291 Tb 0.77012 0.45103 0.0942 0.0
Eu292 Eu 0.68531 0.4392 0.10094 0.0
C293 C 0.75026 0.43465 0.06059 0.0
O294 O 0.72414 0.44717 0.06512 0.0
C295 C 0.73725 0.38926 0.10192 0.0
O296 O 0.67944 0.4326 0.1269 0.0
C297 C 0.63261 0.4403 0.0866 0.0
C298 C 0.7017 0.44177 0.13631 0.0
O299 O 0.72707 0.45305 0.13018 0.0
C300 C 0.7212 0.50549 0.09701 0.0
C301 C 0.60386 0.45879 0.08529 0.0
C302 C 0.59305 0.46733 0.07034 0.0
C303 C 0.56482 0.48311 0.06854 0.0
C304 C 0.54756 0.49035 0.08189 0.0
C305 C 0.55769 0.48155 0.0968 0.0
C306 C 0.58586 0.46588 0.09853 0.0
O307 O 0.75624 0.41032 0.10765 0.0
O308 O 0.71374 0.39797 0.09338 0.0
O309 O 0.82 0.452 0.09109 0.0
O310 O 0.80111 0.47305 0.11141 0.0
C311 C 0.82654 0.46673 0.10402 0.0
O312 O 0.70169 0.48864 0.10518 0.0
O313 O 0.74375 0.49319 0.08878 0.0
O314 O 0.63743 0.4251 0.09976 0.0
O315 O 0.65777 0.4526 0.08063 0.0
H316 H 0.60643 0.46126 0.06009 0.0
H317 H 0.52526 0.50151 0.08067 0.0
H318 H 0.59327 0.45868 0.11009 0.0
O319 O 0.30511 0.0164 0.31367 0.0
Tb320 Tb 0.30473 0.01751 0.33899 0.0
Eu321 Eu 0.30607 0.96385 0.36781 0.0
C322 C 0.3292 0.0255 0.30562 0.0
O323 O 0.35408 0.03483 0.31306 0.0
C324 C 0.36452 1.00052 0.35676 0.0
O325 O 0.30004 0.94859 0.39284 0.0
C326 C 0.3116 0.91526 0.34954 0.0
C327 C 0.28352 0.96575 0.40247 0.0
O328 O 0.27067 0.99169 0.39734 0.0
C329 C 0.24408 0.98993 0.35335 0.0
C330 C 0.29323 0.8872 0.34507 0.0
C331 C 0.28891 0.87956 0.32913 0.0
C332 C 0.27214 0.85255 0.32478 0.0
C333 C 0.26001 0.83325 0.33649 0.0
C334 C 0.26485 0.83989 0.35235 0.0
C335 C 0.28128 0.86699 0.35661 0.0
O336 O 0.35179 1.00062 0.34277 0.0
O337 O 0.34744 0.99531 0.3691 0.0
O338 O 0.30109 0.06788 0.33473 0.0
O339 O 0.30114 0.05156 0.35824 0.0
C340 C 0.29956 0.07635 0.34933 0.0
O341 O 0.25831 0.98347 0.36649 0.0
O342 O 0.25943 0.99524 0.34037 0.0
O343 O 0.32206 0.91621 0.36398 0.0
O344 O 0.30183 0.94271 0.34452 0.0
H345 H 0.29875 0.89443 0.32017 0.0
H346 H 0.24838 0.81164 0.33321 0.0
H347 H 0.28511 0.87192 0.36891 0.0
O348 O 0.2871 0.46566 0.41494 0.0
Tb349 Tb 0.29719 0.46777 0.39013 0.0
Eu350 Eu 0.22399 0.46079 0.39905 0.0
C351 C 0.29705 0.44195 0.42338 0.0
O352 O 0.31325 0.41973 0.4166 0.0
C353 C 0.26622 0.40312 0.38903 0.0
O354 O 0.22308 0.47178 0.37337 0.0
C355 C 0.1688 0.45806 0.41031 0.0
C356 C 0.21491 0.45056 0.36298 0.0
O357 O 0.2071 0.42231 0.3677 0.0
C358 C 0.25649 0.52533 0.39475 0.0
C359 C 0.14338 0.48013 0.41387 0.0
C360 C 0.13498 0.4856 0.42954 0.0
C361 C 0.11057 0.50596 0.43317 0.0
C362 C 0.09473 0.52091 0.42101 0.0
C363 C 0.10198 0.51492 0.40536 0.0
C364 C 0.12632 0.49453 0.40179 0.0
O365 O 0.28279 0.4228 0.38072 0.0
O366 O 0.24757 0.41346 0.40003 0.0
O367 O 0.34556 0.46711 0.39732 0.0
O368 O 0.33407 0.48309 0.37455 0.0
C369 C 0.3565 0.47823 0.38433 0.0
O370 O 0.24198 0.50894 0.40542 0.0
O371 O 0.27329 0.51078 0.38428 0.0
O372 O 0.17513 0.45318 0.39547 0.0
O373 O 0.1935 0.45997 0.41922 0.0
H374 H 0.14712 0.47369 0.4389 0.0
H375 H 0.07493 0.53544 0.42369 0.0
H376 H 0.13146 0.48959 0.38964 0.0
O377 O 0.82865 0.00895 0.17566 0.0
Tb378 Tb 0.80316 0.01015 0.15389 0.0
Eu379 Eu 0.8078 0.92856 0.14112 0.0
C380 C 0.83433 0.98195 0.18244 0.0
O381 O 0.82583 0.95597 0.17537 0.0
C382 C 0.86097 0.97944 0.13947 0.0
O383 O 0.80815 0.91841 0.11527 0.0
C384 C 0.80223 0.879 0.15844 0.0
C385 C 0.80641 0.94288 0.10595 0.0
O386 O 0.80527 0.97101 0.1123 0.0
C387 C 0.74732 0.96719 0.14863 0.0
C388 C 0.78127 0.85256 0.16165 0.0
C389 C 0.77541 0.84386 0.17723 0.0
C390 C 0.75771 0.81699 0.1806 0.0
C391 C 0.74562 0.79928 0.16811 0.0
C392 C 0.75175 0.80754 0.15259 0.0
C393 C 0.76932 0.83426 0.14938 0.0
O394 O 0.84004 1.00121 0.13742 0.0
O395 O 0.85362 0.95195 0.14525 0.0
O396 O 0.79592 0.05931 0.16027 0.0
O397 O 0.78177 0.04328 0.13776 0.0
C398 C 0.78336 0.06746 0.14706 0.0
O399 O 0.76139 0.95117 0.13766 0.0
O400 O 0.76317 0.98175 0.1595 0.0
O401 O 0.81627 0.879 0.14481 0.0
O402 O 0.79323 0.90705 0.16301 0.0
H403 H 0.7853 0.85758 0.18669 0.0
H404 H 0.73332 0.7776 0.17041 0.0
H405 H 0.77459 0.83998 0.13734 0.0
O406 O 0.24049 0.56881 0.92912 0.0
Tb407 Tb 0.24308 0.56832 0.90384 0.0
Eu408 Eu 0.30588 0.57068 0.87859 0.0
C409 C 0.25984 0.58481 0.9379 0.0
O410 O 0.28184 0.60121 0.9313 0.0
C411 C 0.26557 0.63019 0.88737 0.0
O412 O 0.31951 0.55905 0.85406 0.0
C413 C 0.35476 0.57614 0.89594 0.0
C414 C 0.29774 0.54882 0.84468 0.0
O415 O 0.26929 0.54791 0.8498 0.0
C416 C 0.27513 0.50748 0.89108 0.0
C417 C 0.38297 0.5586 0.90058 0.0
C418 C 0.38751 0.5506 0.91643 0.0
C419 C 0.41457 0.5353 0.92123 0.0
C420 C 0.43725 0.52843 0.91016 0.0
C421 C 0.43374 0.53663 0.8944 0.0
C422 C 0.40648 0.55179 0.88964 0.0
O423 O 0.25918 0.61681 0.90086 0.0
O424 O 0.27678 0.61379 0.87571 0.0
O425 O 0.19354 0.56545 0.9075 0.0
O426 O 0.21047 0.56135 0.88432 0.0
C427 C 0.18573 0.56129 0.89295 0.0
O428 O 0.28515 0.52252 0.87877 0.0
O429 O 0.26635 0.52267 0.90373 0.0
O430 O 0.35312 0.58601 0.88139 0.0
O431 O 0.32809 0.5664 0.90148 0.0
H432 H 0.37015 0.55648 0.92502 0.0
H433 H 0.45865 0.51791 0.91405 0.0
H434 H 0.40379 0.55838 0.87749 0.0
O435 O 0.70898 0.99564 0.68748 0.0
Tb436 Tb 0.7044 1.00059 0.66242 0.0
Eu437 Eu 0.70133 0.06491 0.63743 0.0
C438 C 0.68636 0.98498 0.69612 0.0
O439 O 0.66007 0.97748 0.68948 0.0
C440 C 0.64338 0.02435 0.64753 0.0
O441 O 0.70958 0.07814 0.61238 0.0
C442 C 0.69903 0.11377 0.65568 0.0
C443 C 0.71525 0.05488 0.60267 0.0
O444 O 0.71495 0.02604 0.60814 0.0
C445 C 0.76333 0.03365 0.64959 0.0
C446 C 0.71856 0.14111 0.66004 0.0
C447 C 0.72243 0.14941 0.67594 0.0
C448 C 0.74007 0.17596 0.68018 0.0
C449 C 0.75345 0.1941 0.66836 0.0
C450 C 0.74922 0.18677 0.65253 0.0
C451 C 0.73191 0.16016 0.6484 0.0
O452 O 0.65761 0.01885 0.66083 0.0
O453 O 0.65819 0.03605 0.63554 0.0
O454 O 0.7018 0.94952 0.66354 0.0
O455 O 0.71325 0.97089 0.64185 0.0
C456 C 0.70881 0.94421 0.64901 0.0
O457 O 0.74842 0.04364 0.63722 0.0
O458 O 0.74893 0.0242 0.66223 0.0
O459 O 0.68804 0.11337 0.6413 0.0
O460 O 0.70783 0.08586 0.66062 0.0
H461 H 0.71158 0.13545 0.68496 0.0
H462 H 0.76575 0.21541 0.67149 0.0
H463 H 0.72848 0.15471 0.63613 0.0
C464 C 0.21837 0.41164 0.12952 0.0
C465 C 0.21795 0.41819 0.14563 0.0
C466 C 0.2241 0.38097 0.12414 0.0
C467 C 0.22186 0.29813 0.13774 0.0
H468 H 0.27173 0.28096 0.10121 0.0
C469 C 0.28507 0.18465 0.10676 0.0
C470 C 0.26164 0.16227 0.10891 0.0
C471 C 0.27971 0.21657 0.10999 0.0
C472 C 0.25791 0.28535 0.1115 0.0
H473 H 0.22391 0.39806 0.16869 0.0
H474 H 0.23433 0.34518 0.15942 0.0
H475 H 0.26294 0.33537 0.10943 0.0
H476 H 0.21376 0.15625 0.11537 0.0
H477 H 0.20434 0.21142 0.1206 0.0
H478 H 0.21749 0.24844 0.1402 0.0
C479 C 0.22958 0.36328 0.15087 0.0
C480 C 0.25257 0.31657 0.1161 0.0
C481 C 0.22376 0.39371 0.1562 0.0
C482 C 0.23252 0.17269 0.1138 0.0
C483 C 0.22713 0.20444 0.11689 0.0
C484 C 0.22724 0.26709 0.13319 0.0
C485 C 0.22953 0.35633 0.13478 0.0
C486 C 0.2346 0.32334 0.12936 0.0
C487 C 0.25077 0.22678 0.11536 0.0
C488 C 0.2453 0.26018 0.12001 0.0
H489 H 0.21403 0.43011 0.12111 0.0
H490 H 0.22368 0.37645 0.11167 0.0
H491 H 0.20754 0.30233 0.14787 0.0
H492 H 0.30776 0.17742 0.10302 0.0
H493 H 0.29853 0.23305 0.10876 0.0
C494 C 0.41205 0.47383 0.39138 0.0
C495 C 0.38911 0.48558 0.38141 0.0
C496 C 0.44296 0.48107 0.38874 0.0
C497 C 0.49416 0.53951 0.37221 0.0
H498 H 0.55314 0.47139 0.37011 0.0
C499 C 0.62445 0.5603 0.35996 0.0
C500 C 0.6452 0.54022 0.36761 0.0
C501 C 0.59267 0.55469 0.36077 0.0
C502 C 0.53714 0.49081 0.3709 0.0
H503 H 0.38022 0.51441 0.36105 0.0
H504 H 0.43442 0.52774 0.35666 0.0
H505 H 0.49883 0.45962 0.37353 0.0
H506 H 0.64894 0.49953 0.38272 0.0
H507 H 0.59416 0.49064 0.38469 0.0
H508 H 0.53253 0.57084 0.37022 0.0
C509 C 0.42843 0.5127 0.36639 0.0
C510 C 0.50598 0.48396 0.37276 0.0
C511 C 0.39753 0.50495 0.36885 0.0
C512 C 0.63359 0.51515 0.37646 0.0
C513 C 0.60205 0.50988 0.37748 0.0
C514 C 0.52551 0.54644 0.37062 0.0
C515 C 0.45142 0.50068 0.37627 0.0
C516 C 0.48424 0.50821 0.37358 0.0
C517 C 0.58109 0.52915 0.36943 0.0
C518 C 0.54748 0.52216 0.37015 0.0
H519 H 0.40613 0.45891 0.40116 0.0
H520 H 0.46027 0.47167 0.39657 0.0
H521 H 0.47778 0.55863 0.37287 0.0
H522 H 0.63279 0.57978 0.35303 0.0
H523 H 0.57729 0.56994 0.35433 0.0
C524 C 0.21569 0.81454 0.60347 0.0
C525 C 0.23933 0.83561 0.60755 0.0
C526 C 0.21919 0.78224 0.60595 0.0
C527 C 0.27718 0.72017 0.6113 0.0
H528 H 0.21204 0.67538 0.63269 0.0
C529 C 0.27846 0.5849 0.62175 0.0
C530 C 0.27223 0.57595 0.63722 0.0
C531 C 0.27384 0.61606 0.61699 0.0
C532 C 0.23038 0.68757 0.62666 0.0
H533 H 0.28544 0.83914 0.61718 0.0
H534 H 0.29161 0.78276 0.62135 0.0
H535 H 0.20544 0.73098 0.62639 0.0
H536 H 0.25598 0.59226 0.65976 0.0
H537 H 0.24745 0.64633 0.65139 0.0
H538 H 0.30221 0.67674 0.61173 0.0
C539 C 0.27037 0.79127 0.61624 0.0
C540 C 0.22652 0.71932 0.62297 0.0
C541 C 0.26672 0.82359 0.61396 0.0
C542 C 0.26097 0.59851 0.64776 0.0
C543 C 0.25593 0.62942 0.64295 0.0
C544 C 0.28086 0.68827 0.61481 0.0
C545 C 0.24657 0.77026 0.61237 0.0
C546 C 0.25003 0.73608 0.61544 0.0
C547 C 0.26242 0.6386 0.62755 0.0
C548 C 0.25767 0.67177 0.62273 0.0
H549 H 0.19429 0.823 0.59852 0.0
H550 H 0.20052 0.76658 0.60277 0.0
H551 H 0.29559 0.73245 0.60539 0.0
H552 H 0.28719 0.56794 0.61341 0.0
H553 H 0.27892 0.62249 0.60502 0.0
C554 C 0.13011 0.55282 0.89868 0.0
C555 C 0.15366 0.55586 0.88757 0.0
C556 C 0.09983 0.54673 0.89403 0.0
C557 C 0.04517 0.5529 0.86118 0.0
H558 H 0.99948 0.49079 0.88473 0.0
C559 C 0.91908 0.5172 0.84531 0.0
C560 C 0.899 0.51132 0.85784 0.0
C561 C 0.95068 0.52185 0.84795 0.0
C562 C 0.01168 0.50851 0.87812 0.0
H563 H 0.1638 0.5554 0.8628 0.0
H564 H 0.11046 0.54506 0.85458 0.0
H565 H 0.05324 0.50062 0.89101 0.0
H566 H 0.89661 0.50627 0.88305 0.0
H567 H 0.95105 0.51495 0.88765 0.0
H568 H 1.00332 0.56128 0.84851 0.0
C569 C 0.1156 0.54735 0.86693 0.0
C570 C 0.04263 0.51406 0.8817 0.0
C571 C 0.14613 0.55316 0.87163 0.0
C572 C 0.9113 0.51047 0.87307 0.0
C573 C 0.94273 0.51525 0.87571 0.0
C574 C 0.01402 0.54751 0.85765 0.0
C575 C 0.09213 0.54373 0.87812 0.0
C576 C 0.05971 0.5366 0.87344 0.0
C577 C 0.963 0.52082 0.86321 0.0
C578 C 0.99669 0.52552 0.86623 0.0
H579 H 0.13511 0.55486 0.91106 0.0
H580 H 0.08233 0.54459 0.90295 0.0
H581 H 0.0576 0.57056 0.85465 0.0
H582 H 0.91044 0.518 0.83342 0.0
H583 H 0.9655 0.52579 0.838 0.0
C584 C 0.79622 0.64415 0.84415 0.0
C585 C 0.80286 0.61973 0.85465 0.0
C586 C 0.79383 0.67516 0.84941 0.0
C587 C 0.81763 0.72925 0.88064 0.0
H588 H 0.74836 0.7791 0.8664 0.0
C589 C 0.80927 0.86507 0.88839 0.0
C590 C 0.78078 0.87681 0.89351 0.0
C591 C 0.81252 0.83328 0.88436 0.0
C592 C 0.76777 0.76546 0.87054 0.0
H593 H 0.81263 0.60859 0.87885 0.0
H594 H 0.80888 0.66318 0.88808 0.0
H595 H 0.75281 0.72428 0.85822 0.0
H596 H 0.73341 0.86421 0.89844 0.0
H597 H 0.73905 0.80909 0.89124 0.0
H598 H 0.83268 0.77068 0.89285 0.0
C599 C 0.80544 0.65819 0.87577 0.0
C600 C 0.77043 0.73414 0.86576 0.0
C601 C 0.80744 0.62698 0.87052 0.0
C602 C 0.7557 0.85603 0.89455 0.0
C603 C 0.75887 0.82442 0.89035 0.0
C604 C 0.81518 0.76079 0.88526 0.0
C605 C 0.79838 0.68258 0.86527 0.0
C606 C 0.79539 0.71567 0.87074 0.0
C607 C 0.78726 0.81268 0.88516 0.0
C608 C 0.79017 0.77922 0.88027 0.0
H609 H 0.79262 0.63927 0.83184 0.0
H610 H 0.7887 0.69345 0.84101 0.0
H611 H 0.83722 0.71566 0.88457 0.0
H612 H 0.82906 0.88041 0.88748 0.0
H613 H 0.83464 0.82496 0.88029 0.0
C614 C 0.38991 0.4776 0.61626 0.0
C615 C 0.37751 0.47709 0.63142 0.0
C616 C 0.42097 0.48466 0.61392 0.0
C617 C 0.49623 0.4871 0.63424 0.0
H618 H 0.51967 0.54085 0.59972 0.0
C619 C 0.61986 0.53485 0.62744 0.0
C620 C 0.63226 0.53537 0.61231 0.0
C621 C 0.58876 0.5279 0.62973 0.0
C622 C 0.51356 0.52552 0.60931 0.0
H623 H 0.38812 0.48367 0.65602 0.0
H624 H 0.44221 0.49622 0.65192 0.0
H625 H 0.46557 0.52831 0.60382 0.0
H626 H 0.62204 0.52913 0.5877 0.0
H627 H 0.56772 0.51669 0.59166 0.0
H628 H 0.54421 0.4843 0.63972 0.0
C629 C 0.428 0.49078 0.64184 0.0
C630 C 0.48253 0.51832 0.61166 0.0
C631 C 0.39693 0.48373 0.64419 0.0
C632 C 0.61301 0.52897 0.59949 0.0
C633 C 0.58188 0.52202 0.60176 0.0
C634 C 0.52726 0.49429 0.63188 0.0
C635 C 0.44041 0.49138 0.62667 0.0
C636 C 0.47346 0.49903 0.62416 0.0
C637 C 0.56938 0.52131 0.61692 0.0
C638 C 0.53632 0.51361 0.61939 0.0
H639 H 0.37564 0.47253 0.60616 0.0
H640 H 0.42984 0.48449 0.6021 0.0
H641 H 0.49013 0.47177 0.64383 0.0
H642 H 0.63419 0.53979 0.63753 0.0
H643 H 0.57983 0.52802 0.64153 0.0
C644 C 0.75362 0.16543 0.39628 0.0
C645 C 0.76183 0.14536 0.38388 0.0
C646 C 0.74941 0.19767 0.39372 0.0
C647 C 0.73318 0.25515 0.36233 0.0
H648 H 0.76584 0.31615 0.39178 0.0
C649 C 0.70633 0.388 0.35784 0.0
C650 C 0.73074 0.40903 0.36055 0.0
C651 C 0.70982 0.35587 0.3608 0.0
C652 C 0.75673 0.29941 0.3834 0.0
H653 H 0.77203 0.14361 0.35905 0.0
H654 H 0.76483 0.19954 0.35466 0.0
H655 H 0.77247 0.26007 0.39681 0.0
H656 H 0.77806 0.41266 0.36847 0.0
H657 H 0.78418 0.3566 0.37357 0.0
H658 H 0.71784 0.29441 0.3488 0.0
C659 C 0.76133 0.1904 0.36633 0.0
C660 C 0.76023 0.26727 0.38638 0.0
C661 C 0.76565 0.15828 0.36889 0.0
C662 C 0.75878 0.39714 0.36625 0.0
C663 C 0.76222 0.36502 0.36928 0.0
C664 C 0.72955 0.28725 0.3594 0.0
C665 C 0.75314 0.21052 0.37869 0.0
C666 C 0.74864 0.24474 0.37583 0.0
C667 C 0.73777 0.34399 0.36662 0.0
C668 C 0.74139 0.3098 0.36986 0.0
H669 H 0.75046 0.15629 0.40797 0.0
H670 H 0.74284 0.21248 0.40347 0.0
H671 H 0.72369 0.23844 0.35404 0.0
H672 H 0.68439 0.39634 0.35349 0.0
H673 H 0.69042 0.3404 0.35877 0.0
C674 C 0.88353 0.46297 0.10102 0.0
C675 C 0.85813 0.47382 0.10956 0.0
C676 C 0.91352 0.46915 0.10613 0.0
C677 C 0.9597 0.4939 0.14086 0.0
H678 H 0.02085 0.51204 0.10928 0.0
C679 C 0.09117 0.505 0.15454 0.0
C680 C 0.10797 0.527 0.14577 0.0
C681 C 0.06007 0.49904 0.15107 0.0
C682 C 1.00409 0.50736 0.11832 0.0
H683 H 0.84415 0.49954 0.13022 0.0
H684 H 0.89666 0.51104 0.13904 0.0
H685 H 0.96822 0.50152 0.10144 0.0
H686 H 0.10467 0.56119 0.12705 0.0
H687 H 0.05085 0.5515 0.12136 0.0
H688 H 0.99571 0.50068 0.15777 0.0
C689 C 0.89343 0.49728 0.1285 0.0
C690 C 0.97385 0.50083 0.11378 0.0
C691 C 0.86333 0.49091 0.1234 0.0
C692 C 0.09265 0.54372 0.13392 0.0
C693 C 0.0617 0.538 0.13056 0.0
C694 C 0.99007 0.50058 0.14543 0.0
C695 C 0.91897 0.48658 0.11988 0.0
C696 C 0.95118 0.49391 0.12495 0.0
C697 C 0.04508 0.5151 0.13883 0.0
C698 C 0.01268 0.50752 0.1342 0.0
H699 H 0.88026 0.44948 0.09038 0.0
H700 H 0.93246 0.45995 0.09933 0.0
H701 H 0.94299 0.48837 0.1498 0.0
H702 H 0.10227 0.49165 0.16372 0.0
H703 H 0.0481 0.48112 0.15765 0.0
C704 C 0.72736 0.90759 0.6279 0.0
C705 C 0.71205 0.91247 0.64214 0.0
C706 C 0.73165 0.877 0.6221 0.0
C707 C 0.70018 0.79694 0.62433 0.0
H708 H 0.78218 0.7682 0.61385 0.0
C709 C 0.72807 0.66543 0.62066 0.0
C710 C 0.7496 0.65451 0.60968 0.0
C711 C 0.72339 0.69758 0.62292 0.0
C712 C 0.75902 0.7759 0.61644 0.0
H713 H 0.68873 0.88945 0.66132 0.0
H714 H 0.69552 0.8364 0.65106 0.0
H715 H 0.77365 0.82351 0.62036 0.0
H716 H 0.78305 0.66908 0.59241 0.0
H717 H 0.77436 0.7254 0.5961 0.0
H718 H 0.68528 0.74974 0.62037 0.0
C719 C 0.70437 0.85603 0.64439 0.0
C720 C 0.75418 0.80761 0.6202 0.0
C721 C 0.70058 0.8864 0.6503 0.0
C722 C 0.76635 0.67667 0.60099 0.0
C723 C 0.76145 0.709 0.60317 0.0
C724 C 0.7049 0.76542 0.6204 0.0
C725 C 0.72012 0.85092 0.6303 0.0
C726 C 0.72482 0.81828 0.62453 0.0
C727 C 0.73983 0.71989 0.61415 0.0
C728 C 0.73452 0.75422 0.61678 0.0
H729 H 0.73653 0.92731 0.62142 0.0
H730 H 0.74381 0.87373 0.61118 0.0
H731 H 0.6772 0.8046 0.62738 0.0
H732 H 0.71497 0.64913 0.62771 0.0
H733 H 0.70713 0.70489 0.63177 0.0
C734 C 0.12638 0.08651 0.8692 0.0
C735 C 0.14501 0.06145 0.86417 0.0
C736 C 0.09498 0.08168 0.87226 0.0
C737 C 0.04207 0.0174 0.88305 0.0
H738 H 0.97684 0.07579 0.87257 0.0
C739 C 0.9009 0.01904 0.88136 0.0
C740 C 0.8949 1.00468 0.89581 0.0
C741 C 0.93088 0.02829 0.87746 0.0
C742 C 0.9948 0.05919 0.87551 0.0
H743 H 0.14467 0.01217 0.85746 0.0
H744 H 0.09045 1.00403 0.86257 0.0
H745 H 0.02998 0.08776 0.86512 0.0
H746 H 0.91531 0.98944 0.91764 0.0
H747 H 0.9674 1.00566 0.91093 0.0
H748 H 1.00722 0.98859 0.8932 0.0
C749 C 0.10007 0.0272 0.86456 0.0
C750 C 0.02527 0.0662 0.87137 0.0
C751 C 0.13123 0.03196 0.86155 0.0
C752 C 0.91927 1.00025 0.90638 0.0
C753 C 0.94916 0.00943 0.90249 0.0
C754 C 0.0118 0.0105 0.88722 0.0
C755 C 0.08167 0.05171 0.87033 0.0
C756 C 0.04924 0.04522 0.87499 0.0
C757 C 0.95546 0.02327 0.88791 0.0
C758 C 0.98772 0.03122 0.8835 0.0
H759 H 0.13625 0.1095 0.87135 0.0
H760 H 0.08144 0.10107 0.87671 0.0
H761 H 0.05997 1.0009 0.88623 0.0
H762 H 0.88251 0.02276 0.873 0.0
H763 H 0.93492 0.03863 0.86609 0.0
C764 C 0.76933 0.10749 0.1271 0.0
C765 C 0.77475 0.09973 0.14279 0.0
C766 C 0.76352 0.13859 0.12285 0.0
C767 C 0.77351 0.22014 0.13756 0.0
H768 H 0.72059 0.23997 0.1024 0.0
C769 C 0.76919 0.34477 0.1118 0.0
C770 C 0.74085 0.35593 0.10623 0.0
C771 C 0.77252 0.31336 0.11616 0.0
C772 C 0.73515 0.23496 0.11238 0.0
H773 H 0.77722 0.11779 0.16645 0.0
H774 H 0.76574 0.17192 0.15919 0.0
H775 H 0.72576 0.18576 0.11081 0.0
H776 H 0.69366 0.34313 0.10095 0.0
H777 H 0.69907 0.28865 0.10909 0.0
H778 H 0.78184 0.26942 0.1396 0.0
C779 C 0.767 0.15433 0.15005 0.0
C780 C 0.73849 0.20372 0.11706 0.0
C781 C 0.77331 0.1233 0.15425 0.0
C782 C 0.71588 0.33511 0.10509 0.0
C783 C 0.71905 0.3038 0.10968 0.0
C784 C 0.76981 0.25139 0.13303 0.0
C785 C 0.76254 0.16249 0.13426 0.0
C786 C 0.75791 0.19586 0.12964 0.0
C787 C 0.74741 0.29251 0.11529 0.0
C788 C 0.7508 0.25921 0.1203 0.0
H789 H 0.77052 0.08969 0.11804 0.0
H790 H 0.76071 0.14395 0.11056 0.0
H791 H 0.78903 0.21505 0.14715 0.0
H792 H 0.78892 0.36025 0.11267 0.0
H793 H 0.79489 0.30541 0.12008 0.0
C794 C 0.63084 0.03751 0.39878 0.0
C795 C 0.65442 0.04081 0.38771 0.0
C796 C 0.60042 0.03254 0.39406 0.0
C797 C 0.54589 0.04166 0.36117 0.0
H798 H 0.49832 0.98095 0.38465 0.0
C799 C 0.41808 0.00944 0.34606 0.0
C800 C 0.39826 1.00524 0.35888 0.0
C801 C 0.44992 0.01321 0.34837 0.0
C802 C 0.5111 0.99823 0.37804 0.0
H803 H 0.66448 0.04197 0.36294 0.0
H804 H 0.61093 0.03336 0.3546 0.0
H805 H 0.55246 0.98859 0.39076 0.0
H806 H 0.39659 1.00241 0.3842 0.0
H807 H 0.45141 0.00928 0.38817 0.0
H808 H 0.50417 0.05157 0.34861 0.0
C809 C 0.61612 0.03467 0.36697 0.0
C810 C 0.54225 1.00259 0.38155 0.0
C811 C 0.64678 0.03947 0.37174 0.0
C812 C 0.41104 1.00531 0.37401 0.0
C813 C 0.44267 0.00905 0.3763 0.0
C814 C 0.51454 0.03737 0.35769 0.0
C815 C 0.5926 0.03081 0.37811 0.0
C816 C 0.55998 0.02474 0.37337 0.0
C817 C 0.46268 0.01277 0.36354 0.0
C818 C 0.49658 0.01597 0.36628 0.0
H819 H 0.63591 0.03858 0.41118 0.0
H820 H 0.58292 0.03026 0.40297 0.0
H821 H 0.55881 0.05902 0.35468 0.0
H822 H 0.40906 0.00957 0.33425 0.0
H823 H 0.4646 0.01588 0.33826 0.0
C824 C 0.2868 0.13239 0.34399 0.0
C825 C 0.29562 0.10911 0.35471 0.0
C826 C 0.28267 0.16346 0.34888 0.0
C827 C 0.30748 0.22099 0.37762 0.0
H828 H 0.233 0.26576 0.36624 0.0
C829 C 0.29556 0.35673 0.37887 0.0
C830 C 0.26929 0.36889 0.38626 0.0
C831 C 0.29853 0.32441 0.37624 0.0
C832 C 0.25383 0.2535 0.36957 0.0
H833 H 0.30736 0.09999 0.3789 0.0
H834 H 0.30099 0.15482 0.38742 0.0
H835 H 0.23843 0.21012 0.35938 0.0
H836 H 0.22543 0.3567 0.39662 0.0
H837 H 0.2303 0.30021 0.39162 0.0
H838 H 0.32326 0.26467 0.38738 0.0
C839 C 0.29696 0.14881 0.37527 0.0
C840 C 0.257 0.22176 0.36558 0.0
C841 C 0.30051 0.11751 0.37042 0.0
C842 C 0.24599 0.34803 0.39093 0.0
C843 C 0.2487 0.31575 0.38803 0.0
C844 C 0.30455 0.25291 0.38134 0.0
C845 C 0.28782 0.17203 0.36454 0.0
C846 C 0.2839 0.20523 0.3695 0.0
C847 C 0.27504 0.30362 0.38069 0.0
C848 C 0.27774 0.2695 0.3773 0.0
H849 H 0.28285 0.12656 0.33181 0.0
H850 H 0.27588 0.18093 0.34035 0.0
H851 H 0.32852 0.20883 0.3807 0.0
H852 H 0.31398 0.37217 0.37519 0.0
H853 H 0.31896 0.31571 0.37045 0.0
C854 C 0.90172 0.01566 0.12931 0.0
C855 C 0.89326 0.98597 0.13506 0.0
C856 C 0.93229 0.02212 0.12548 0.0
C857 C 0.01145 0.99557 0.13362 0.0
H858 H 0.0316 0.04655 0.09755 0.0
C859 C 0.12556 0.03782 0.09687 0.0
C860 C 0.14485 0.04568 0.10948 0.0
C861 C 0.09466 0.03022 0.09946 0.0
C862 C 0.02639 0.03206 0.10759 0.0
H863 H 0.9103 0.93961 0.14105 0.0
H864 H 0.96355 0.95078 0.1342 0.0
H865 H 0.97808 0.03284 0.10267 0.0
H866 H 0.14712 0.05232 0.13458 0.0
H867 H 0.09323 0.03958 0.13909 0.0
H868 H 0.05972 0.99434 0.13842 0.0
C869 C 0.9466 0.96923 0.13287 0.0
C870 C 0.99568 0.02449 0.11062 0.0
C871 C 0.91603 0.96278 0.13672 0.0
C872 C 0.13274 0.04621 0.12466 0.0
C873 C 0.10192 0.03869 0.12724 0.0
C874 C 0.04211 1.00312 0.13059 0.0
C875 C 0.95514 0.99903 0.12729 0.0
C876 C 0.98783 0.00629 0.12373 0.0
C877 C 0.08255 0.03035 0.1147 0.0
C878 C 0.04995 0.02164 0.11761 0.0
H879 H 0.8848 0.03412 0.12791 0.0
H880 H 0.93813 0.04544 0.12141 0.0
H881 H 1.00621 0.98178 0.1439 0.0
H882 H 0.13442 0.03715 0.08505 0.0
H883 H 0.08045 0.02363 0.08956 0.0
C884 C 0.26849 0.67888 0.8709 0.0
C885 C 0.26135 0.66467 0.88529 0.0
C886 C 0.26501 0.71128 0.8688 0.0
C887 C 0.25952 0.78632 0.89068 0.0
H888 H 0.22866 0.81853 0.85126 0.0
C889 C 0.23129 0.9178 0.88236 0.0
C890 C 0.23914 0.93203 0.86809 0.0
C891 C 0.23333 0.88524 0.88425 0.0
C892 C 0.23766 0.80999 0.86228 0.0
H893 H 0.24467 0.67369 0.90874 0.0
H894 H 0.23836 0.73028 0.90504 0.0
H895 H 0.23293 0.76193 0.85514 0.0
H896 H 0.25505 0.9229 0.84452 0.0
H897 H 0.25893 0.86593 0.84785 0.0
H898 H 0.26439 0.83432 0.89781 0.0
C899 C 0.24703 0.7163 0.89542 0.0
C900 C 0.24008 0.77747 0.86452 0.0
C901 C 0.25048 0.68379 0.89752 0.0
C902 C 0.24876 0.91274 0.85566 0.0
C903 C 0.25085 0.88004 0.85756 0.0
C904 C 0.25713 0.81882 0.88844 0.0
C905 C 0.25428 0.73049 0.88102 0.0
C906 C 0.25108 0.76517 0.87875 0.0
C907 C 0.24335 0.86587 0.87193 0.0
C908 C 0.24614 0.83114 0.87421 0.0
H909 H 0.27699 0.66503 0.8612 0.0
H910 H 0.27127 0.72134 0.85764 0.0
H911 H 0.26859 0.7778 0.90168 0.0
H912 H 0.22358 0.93184 0.89218 0.0
H913 H 0.2268 0.87523 0.89538 0.0
C914 C 0.3664 0.97031 0.63053 0.0
C915 C 0.36086 0.948 0.61871 0.0
C916 C 0.39654 0.97819 0.63484 0.0
C917 C 0.4765 0.95 0.63447 0.0
H918 H 0.49816 0.0384 0.63619 0.0
C919 C 0.59573 0.99541 0.65589 0.0
C920 C 0.61017 0.01689 0.64582 0.0
C921 C 0.56488 0.98694 0.65356 0.0
C922 C 0.49243 0.01363 0.63579 0.0
H923 H 0.38239 0.9159 0.60238 0.0
H924 H 0.43512 0.92921 0.61013 0.0
H925 H 0.44513 0.02293 0.63037 0.0
H926 H 0.60326 0.0469 0.62565 0.0
H927 H 0.54936 0.03265 0.62183 0.0
H928 H 0.52387 0.94074 0.63986 0.0
C929 C 0.41616 0.94069 0.61602 0.0
C930 C 0.46205 1.00478 0.63255 0.0
C931 C 0.38601 0.93316 0.61154 0.0
C932 C 0.59287 0.03025 0.63362 0.0
C933 C 0.56194 0.02221 0.63146 0.0
C934 C 0.5068 0.95887 0.63795 0.0
C935 C 0.42176 0.96358 0.62758 0.0
C936 C 0.4538 0.97287 0.6317 0.0
C937 C 0.54768 1.00022 0.64129 0.0
C938 C 0.51516 0.99079 0.63848 0.0
H939 H 0.34744 0.98215 0.63623 0.0
H940 H 0.40014 0.99573 0.64386 0.0
H941 H 0.47078 0.92524 0.63397 0.0
H942 H 0.60845 0.98456 0.66535 0.0
H943 H 0.55443 0.97006 0.66138 0.0
C944 C 0.24351 0.0504 0.92519 0.0
C945 C 0.24079 0.08137 0.91974 0.0
C946 C 0.24643 0.04446 0.94125 0.0
C947 C 0.26984 0.08251 0.97831 0.0
H948 H 0.22092 0.01762 0.99798 0.0
C949 C 0.25538 0.07487 0.04533 0.0
C950 C 0.25264 0.04506 0.0522 0.0
C951 C 0.25645 0.07802 0.02906 0.0
C952 C 0.23517 0.0355 0.99267 0.0
H953 H 0.23881 0.13035 0.92671 0.0
H954 H 0.24388 0.12004 0.9546 0.0
H955 H 0.21784 0.02495 0.96975 0.0
H956 H 0.25019 0.99504 0.04738 0.0
H957 H 0.2528 1.00045 0.01907 0.0
H958 H 0.28722 0.09313 0.00116 0.0
C959 C 0.24405 0.10034 0.94655 0.0
C960 C 0.23333 0.03972 0.97647 0.0
C961 C 0.24092 0.10623 0.93058 0.0
C962 C 0.25205 0.01839 0.04246 0.0
C963 C 0.25332 0.02151 0.0262 0.0
C964 C 0.27184 0.07818 0.99448 0.0
C965 C 0.24697 0.06943 0.95209 0.0
C966 C 0.25034 0.06354 0.96914 0.0
C967 C 0.25503 0.05139 0.01926 0.0
C968 C 0.25426 0.05487 0.00192 0.0
H969 H 0.24353 0.03084 0.91706 0.0
H970 H 0.24878 0.02039 0.94516 0.0
H971 H 0.28362 0.10075 0.97297 0.0
H972 H 0.25578 0.09591 0.05249 0.0
H973 H 0.2574 0.10143 0.02416 0.0
C974 C 0.70655 0.48547 0.27479 0.0
C975 C 0.68874 0.51127 0.27958 0.0
C976 C 0.7 0.47012 0.26066 0.0
C977 C 0.67839 0.43974 0.22962 0.0
H978 H 0.6741 0.50607 0.19864 0.0
C979 C 0.67231 0.42742 0.16058 0.0
C980 C 0.69725 0.4428 0.15345 0.0
C981 C 0.66723 0.43061 0.1767 0.0
C982 C 0.6749 0.48729 0.20717 0.0
H983 H 0.64807 0.53877 0.27449 0.0
H984 H 0.63643 0.5118 0.24994 0.0
H985 H 0.66915 0.51909 0.22626 0.0
H986 H 0.73674 0.47294 0.15768 0.0
H987 H 0.7273 0.47908 0.18559 0.0
H988 H 0.68504 0.40814 0.21022 0.0
C989 C 0.65573 0.50377 0.25689 0.0
C990 C 0.67183 0.49465 0.22297 0.0
C991 C 0.66228 0.51909 0.27097 0.0
C992 C 0.71734 0.46076 0.16278 0.0
C993 C 0.71195 0.46436 0.17875 0.0
C994 C 0.68098 0.43229 0.21369 0.0
C995 C 0.67556 0.48039 0.25116 0.0
C996 C 0.67417 0.4711 0.23442 0.0
C997 C 0.6867 0.44966 0.1858 0.0
C998 C 0.68001 0.45619 0.20241 0.0
H999 H 0.72721 0.47914 0.28115 0.0
H1000 H 0.71573 0.45222 0.25653 0.0
H1001 H 0.68035 0.42116 0.2382 0.0
H1002 H 0.65651 0.41335 0.15369 0.0
H1003 H 0.64756 0.41916 0.18194 0.0
C1004 C 0.28295 0.92242 0.54426 0.0
C1005 C 0.25404 0.92819 0.55094 0.0
C1006 C 0.28658 0.92259 0.52802 0.0
C1007 C 0.24153 0.92143 0.49062 0.0
H1008 H 0.31732 0.95433 0.47333 0.0
C1009 C 0.25487 0.96819 0.42767 0.0
C1010 C 0.27986 0.95667 0.41901 0.0
C1011 C 0.25186 0.96087 0.44349 0.0
C1012 C 0.29619 0.94477 0.47803 0.0
H1013 H 0.20635 0.93907 0.54593 0.0
H1014 H 0.21285 0.94092 0.51773 0.0
H1015 H 0.31183 0.94985 0.50159 0.0
H1016 H 0.3212 0.92829 0.42004 0.0
H1017 H 0.3164 0.91629 0.44798 0.0
H1018 H 0.22548 0.91811 0.46693 0.0
C1019 C 0.2326 0.93506 0.52488 0.0
C1020 C 0.29301 0.94203 0.49422 0.0
C1021 C 0.22887 0.93427 0.54109 0.0
C1022 C 0.30167 0.93741 0.42644 0.0
C1023 C 0.29901 0.93064 0.44239 0.0
C1024 C 0.24452 0.92476 0.47445 0.0
C1025 C 0.26151 0.92916 0.51809 0.0
C1026 C 0.26551 0.93059 0.50078 0.0
C1027 C 0.27411 0.9424 0.45103 0.0
C1028 C 0.27178 0.93666 0.46803 0.0
H1029 H 0.30271 0.91737 0.55157 0.0
H1030 H 0.30906 0.91733 0.52328 0.0
H1031 H 0.22031 0.91178 0.49513 0.0
H1032 H 0.23764 0.98298 0.42223 0.0
H1033 H 0.23257 0.97036 0.44995 0.0
C1034 C 0.80991 0.47997 0.77728 0.0
C1035 C 0.81336 0.50688 0.78669 0.0
C1036 C 0.81042 0.4824 0.76097 0.0
C1037 C 0.83379 0.53472 0.72859 0.0
H1038 H 0.76902 0.49215 0.70553 0.0
C1039 C 0.82268 0.54126 0.6611 0.0
C1040 C 0.79289 0.54735 0.65545 0.0
C1041 C 0.82743 0.53375 0.67684 0.0
C1042 C 0.78725 0.50417 0.71181 0.0
H1043 H 0.82078 0.55732 0.78639 0.0
H1044 H 0.82151 0.56153 0.75802 0.0
H1045 H 0.77388 0.48397 0.73365 0.0
H1046 H 0.74469 0.55002 0.66186 0.0
H1047 H 0.753 0.53705 0.68923 0.0
H1048 H 0.84654 0.55565 0.70681 0.0
C1049 C 0.81866 0.53852 0.76321 0.0
C1050 C 0.79023 0.49923 0.72788 0.0
C1051 C 0.81801 0.53612 0.77948 0.0
C1052 C 0.76795 0.5455 0.66582 0.0
C1053 C 0.77267 0.53782 0.68149 0.0
C1054 C 0.83089 0.53954 0.7125 0.0
C1055 C 0.81457 0.51176 0.75377 0.0
C1056 C 0.81321 0.51486 0.7365 0.0
C1057 C 0.80245 0.53193 0.68719 0.0
C1058 C 0.80724 0.52474 0.70399 0.0
H1059 H 0.80638 0.45707 0.78247 0.0
H1060 H 0.80749 0.46132 0.754 0.0
H1061 H 0.85193 0.54683 0.7349 0.0
H1062 H 0.84237 0.54243 0.65339 0.0
H1063 H 0.85062 0.52913 0.68089 0.0
C1064 C 0.80219 0.96644 0.07938 0.0
C1065 C 0.80415 0.93945 0.08876 0.0
C1066 C 0.79858 0.96388 0.06323 0.0
C1067 C 0.80916 0.91109 0.02961 0.0
H1068 H 0.75236 0.96904 0.00983 0.0
C1069 C 0.75506 0.94487 0.96477 0.0
C1070 C 0.78225 0.94533 0.95593 0.0
C1071 C 0.75608 0.93938 0.98087 0.0
C1072 C 0.76799 0.95235 0.01514 0.0
H1073 H 0.80451 0.8885 0.08846 0.0
H1074 H 0.79814 0.884 0.06004 0.0
H1075 H 0.75713 0.96852 0.03815 0.0
H1076 H 0.83174 0.93908 0.95698 0.0
H1077 H 0.83356 0.92998 0.98508 0.0
H1078 H 0.82002 0.895 0.0065 0.0
C1079 C 0.79949 0.90716 0.06528 0.0
C1080 C 0.77102 0.95234 0.03138 0.0
C1081 C 0.80305 0.90973 0.08155 0.0
C1082 C 0.81036 0.93895 0.96345 0.0
C1083 C 0.81139 0.93351 0.97956 0.0
C1084 C 0.80617 0.91114 0.0133 0.0
C1085 C 0.79682 0.93426 0.05599 0.0
C1086 C 0.79201 0.93213 0.0388 0.0
C1087 C 0.78433 0.93429 0.98852 0.0
C1088 C 0.78584 0.93209 0.00586 0.0
H1089 H 0.80319 0.98973 0.0845 0.0
H1090 H 0.79726 0.98522 0.05638 0.0
H1091 H 0.82559 0.8953 0.03499 0.0
H1092 H 0.73299 0.94943 0.95932 0.0
H1093 H 0.73476 0.93961 0.98737 0.0
C1094 C 0.32805 0.4855 0.7074 0.0
C1095 C 0.30388 0.46532 0.70312 0.0
C1096 C 0.33574 0.48978 0.72308 0.0
C1097 C 0.31982 0.46042 0.76338 0.0
H1098 H 0.33265 0.54799 0.77438 0.0
C1099 C 0.28437 0.5159 0.8216 0.0
C1100 C 0.30517 0.53618 0.82913 0.0
C1101 C 0.29112 0.50366 0.80689 0.0
C1102 C 0.3297 0.52337 0.77148 0.0
H1103 H 0.26967 0.43268 0.71171 0.0
H1104 H 0.28201 0.44122 0.73919 0.0
H1105 H 0.33203 0.53248 0.74703 0.0
H1106 H 0.34947 0.55933 0.82739 0.0
H1107 H 0.36084 0.53859 0.80125 0.0
H1108 H 0.31533 0.45204 0.78797 0.0
C1109 C 0.29568 0.45314 0.73047 0.0
C1110 C 0.32944 0.51437 0.7558 0.0
C1111 C 0.28839 0.44841 0.71473 0.0
C1112 C 0.33303 0.54379 0.82178 0.0
C1113 C 0.33955 0.53195 0.8069 0.0
C1114 C 0.31963 0.46955 0.77907 0.0
C1115 C 0.31899 0.47446 0.73485 0.0
C1116 C 0.32371 0.48292 0.75153 0.0
C1117 C 0.31859 0.51182 0.79936 0.0
C1118 C 0.32383 0.50122 0.78318 0.0
H1119 H 0.34075 0.49838 0.69861 0.0
H1120 H 0.35433 0.50573 0.726 0.0
H1121 H 0.31603 0.43591 0.76053 0.0
H1122 H 0.26284 0.50941 0.82706 0.0
H1123 H 0.27443 0.48852 0.8012 0.0
C1124 C 0.72056 0.09068 0.57948 0.0
C1125 C 0.72265 0.0605 0.58604 0.0
C1126 C 0.72749 0.09542 0.56367 0.0
C1127 C 0.76902 0.05947 0.53048 0.0
H1128 H 0.71213 0.10644 0.50455 0.0
C1129 C 0.78821 0.07529 0.46412 0.0
C1130 C 0.76227 0.06942 0.4547 0.0
C1131 C 0.78521 0.07841 0.48033 0.0
C1132 C 0.72825 0.0933 0.51165 0.0
H1133 H 0.73389 0.01174 0.58121 0.0
H1134 H 0.74584 0.02001 0.55381 0.0
H1135 H 0.70383 0.10374 0.53276 0.0
H1136 H 0.71276 0.06287 0.4549 0.0
H1137 H 0.70761 0.06808 0.4831 0.0
H1138 H 0.79285 0.04808 0.50937 0.0
C1139 C 0.73914 0.04006 0.56085 0.0
C1140 C 0.72367 0.09203 0.52782 0.0
C1141 C 0.73203 0.0353 0.57654 0.0
C1142 C 0.73323 0.06732 0.4618 0.0
C1143 C 0.73023 0.07058 0.47797 0.0
C1144 C 0.77369 0.06086 0.51435 0.0
C1145 C 0.73693 0.07013 0.55421 0.0
C1146 C 0.74363 0.07451 0.53735 0.0
C1147 C 0.75619 0.07592 0.48744 0.0
C1148 C 0.753 0.07725 0.50472 0.0
H1149 H 0.71343 0.11057 0.58651 0.0
H1150 H 0.72571 0.11889 0.55888 0.0
H1151 H 0.78501 0.0461 0.53756 0.0
H1152 H 0.81089 0.07714 0.459 0.0
H1153 H 0.80561 0.08276 0.48731 0.0
C1154 C 0.2161 0.54142 0.22652 0.0
C1155 C 0.20689 0.5182 0.21576 0.0
C1156 C 0.21687 0.5349 0.24255 0.0
C1157 C 0.22155 0.46835 0.27007 0.0
H1158 H 0.19256 0.52887 0.30061 0.0
C1159 C 0.2051 0.43633 0.33496 0.0
C1160 C 0.2143 0.45864 0.34617 0.0
C1161 C 0.2044 0.44409 0.31909 0.0
C1162 C 0.20107 0.51186 0.29223 0.0
H1163 H 0.19066 0.47015 0.21342 0.0
H1164 H 0.19171 0.45898 0.24127 0.0
H1165 H 0.19081 0.54187 0.27283 0.0
H1166 H 0.23014 0.50659 0.34952 0.0
H1167 H 0.22917 0.51999 0.32184 0.0
H1168 H 0.2318 0.43834 0.28941 0.0
C1169 C 0.19883 0.48204 0.23734 0.0
C1170 C 0.20006 0.51931 0.27632 0.0
C1171 C 0.19804 0.48854 0.22137 0.0
C1172 C 0.22283 0.48887 0.34118 0.0
C1173 C 0.22211 0.49663 0.32532 0.0
C1174 C 0.22256 0.46091 0.28595 0.0
C1175 C 0.2085 0.50502 0.24812 0.0
C1176 C 0.21013 0.49756 0.26506 0.0
C1177 C 0.2129 0.47433 0.31409 0.0
C1178 C 0.2122 0.48251 0.29722 0.0
H1179 H 0.2231 0.56449 0.22257 0.0
H1180 H 0.22465 0.55303 0.25055 0.0
H1181 H 0.23002 0.45129 0.2617 0.0
H1182 H 0.1983 0.41287 0.33841 0.0
H1183 H 0.19681 0.4265 0.31076 0.0
C1184 C 0.74578 0.54645 0.42913 0.0
C1185 C 0.733 0.57305 0.42192 0.0
C1186 C 0.74811 0.54494 0.44548 0.0
C1187 C 0.75002 0.59695 0.48023 0.0
H1188 H 0.72807 0.52223 0.50352 0.0
C1189 C 0.72326 0.60055 0.5459 0.0
C1190 C 0.73347 0.57576 0.5554 0.0
C1191 C 0.72665 0.5991 0.52969 0.0
C1192 C 0.73474 0.54313 0.49717 0.0
H1193 H 0.7119 0.61845 0.42606 0.0
H1194 H 0.71556 0.61569 0.45438 0.0
H1195 H 0.72696 0.52106 0.47492 0.0
H1196 H 0.75585 0.5302 0.55533 0.0
H1197 H 0.7618 0.52771 0.52691 0.0
H1198 H 0.7573 0.61923 0.50239 0.0
C1199 C 0.72435 0.59624 0.44753 0.0
C1200 C 0.73408 0.54245 0.48079 0.0
C1201 C 0.72202 0.59771 0.43129 0.0
C1202 C 0.7477 0.54969 0.54833 0.0
C1203 C 0.75095 0.54815 0.53206 0.0
C1204 C 0.75065 0.59763 0.49655 0.0
C1205 C 0.73781 0.57008 0.45484 0.0
C1206 C 0.74109 0.56958 0.47215 0.0
C1207 C 0.74028 0.57278 0.52255 0.0
C1208 C 0.74243 0.57095 0.50522 0.0
H1209 H 0.75447 0.52715 0.42214 0.0
H1210 H 0.75864 0.52449 0.45077 0.0
H1211 H 0.75626 0.61804 0.47393 0.0
H1212 H 0.71219 0.62097 0.55095 0.0
H1213 H 0.71783 0.6183 0.5227 0.0
C1214 C 0.20034 0.90407 0.66412 0.0
C1215 C 0.18964 0.92509 0.65268 0.0
C1216 C 0.19982 0.91243 0.67996 0.0
C1217 C 0.16117 0.96246 0.70839 0.0
H1218 H 0.23851 0.96405 0.73102 0.0
C1219 C 0.17938 0.03891 0.76296 0.0
C1220 C 0.20278 0.0316 0.77372 0.0
C1221 C 0.17418 0.01992 0.74988 0.0
C1222 C 0.21648 0.96303 0.72512 0.0
H1223 H 0.16942 0.97101 0.64885 0.0
H1224 H 0.16781 0.98524 0.67655 0.0
H1225 H 0.23659 0.94223 0.70469 0.0
H1226 H 0.23714 0.99682 0.77991 0.0
H1227 H 0.22691 0.96271 0.75757 0.0
H1228 H 0.14079 0.98289 0.72872 0.0
C1229 C 0.17682 0.96245 0.67323 0.0
C1230 C 0.21551 0.95069 0.70995 0.0
C1231 C 0.17795 0.95439 0.65739 0.0
C1232 C 0.21894 1.00323 0.77186 0.0
C1233 C 0.21341 0.98391 0.75886 0.0
C1234 C 0.16196 0.97422 0.72367 0.0
C1235 C 0.18792 0.94164 0.68464 0.0
C1236 C 0.18805 0.95111 0.70131 0.0
C1237 C 0.19186 0.99269 0.74734 0.0
C1238 C 0.18983 0.97558 0.73209 0.0
H1239 H 0.20953 0.88136 0.66082 0.0
H1240 H 0.20853 0.89603 0.68857 0.0
H1241 H 0.13961 0.96264 0.702 0.0
H1242 H 0.16606 0.06028 0.7642 0.0
H1243 H 0.15748 0.02777 0.74133 0.0
C1244 C 0.77896 0.43343 0.91934 0.0
C1245 C 0.80907 0.42971 0.91369 0.0
C1246 C 0.77232 0.42817 0.9351 0.0
C1247 C 0.81048 0.42768 0.97363 0.0
H1248 H 0.7324 0.39417 0.98774 0.0
C1249 C 0.78401 0.41481 0.03907 0.0
C1250 C 0.75535 0.42646 0.04395 0.0
C1251 C 0.79014 0.41026 0.0232 0.0
C1252 C 0.75425 0.40368 0.98396 0.0
H1253 H 0.85551 0.41605 0.92 0.0
H1254 H 0.84383 0.40635 0.94744 0.0
H1255 H 0.74424 0.39461 0.95983 0.0
H1256 H 0.71014 0.44108 0.03602 0.0
H1257 H 0.72094 0.43329 0.00829 0.0
H1258 H 0.82036 0.43714 0.99768 0.0
C1259 C 0.82546 0.41401 0.93976 0.0
C1260 C 0.76104 0.40397 0.96798 0.0
C1261 C 0.83213 0.41939 0.92401 0.0
C1262 C 0.73248 0.43213 0.03265 0.0
C1263 C 0.73862 0.42753 0.01676 0.0
C1264 C 0.80374 0.42728 0.98958 0.0
C1265 C 0.7956 0.41893 0.94557 0.0
C1266 C 0.78912 0.41631 0.9626 0.0
C1267 C 0.76776 0.41719 0.01184 0.0
C1268 C 0.77544 0.41558 0.99493 0.0
H1269 H 0.76062 0.44134 0.91171 0.0
H1270 H 0.74915 0.43254 0.93917 0.0
H1271 H 0.83206 0.43792 0.96992 0.0
H1272 H 0.80208 0.40995 0.04746 0.0
H1273 H 0.81264 0.40176 0.01981 0.0
C1274 C 0.33054 0.05835 0.16281 0.0
C1275 C 0.3009 0.05771 0.1562 0.0
C1276 C 0.33474 0.05344 0.17882 0.0
C1277 C 0.29826 0.01828 0.2133 0.0
H1278 H 0.35112 0.07488 0.23675 0.0
C1279 C 0.29952 0.02101 0.28063 0.0
C1280 C 0.32757 0.02662 0.28835 0.0
C1281 C 0.29746 0.02328 0.26438 0.0
C1282 C 0.33668 0.05853 0.23035 0.0
H1283 H 0.25243 0.05111 0.1612 0.0
H1284 H 0.25982 0.04241 0.18916 0.0
H1285 H 0.34528 0.08168 0.2086 0.0
H1286 H 0.37566 0.03832 0.28504 0.0
H1287 H 0.37224 0.04162 0.25661 0.0
H1288 H 0.28975 0.99496 0.23498 0.0
C1289 C 0.2798 0.04662 0.18192 0.0
C1290 C 0.33327 0.06251 0.21423 0.0
C1291 C 0.27557 0.0518 0.16593 0.0
C1292 C 0.35367 0.03403 0.27944 0.0
C1293 C 0.35165 0.03611 0.26315 0.0
C1294 C 0.30183 0.01414 0.2294 0.0
C1295 C 0.30942 0.0475 0.18854 0.0
C1296 C 0.31382 0.0426 0.20556 0.0
C1297 C 0.32345 0.03099 0.25543 0.0
C1298 C 0.32086 0.0344 0.23816 0.0
H1299 H 0.35056 0.06281 0.15564 0.0
H1300 H 0.35786 0.05397 0.18358 0.0
H1301 H 0.28347 1.00229 0.20688 0.0
H1302 H 0.27892 0.01539 0.28714 0.0
H1303 H 0.27526 0.01968 0.25887 0.0
C1304 C 0.27303 0.46412 0.4476 0.0
C1305 C 0.29033 0.44041 0.44031 0.0
C1306 C 0.2675 0.46311 0.46368 0.0
C1307 C 0.26759 0.41002 0.49792 0.0
H1308 H 0.2781 0.48746 0.52132 0.0
C1309 C 0.27737 0.41474 0.56555 0.0
C1310 C 0.26387 0.44049 0.57322 0.0
C1311 C 0.27795 0.41334 0.5492 0.0
C1312 C 0.2746 0.46571 0.51496 0.0
H1313 H 0.31487 0.39668 0.44411 0.0
H1314 H 0.30546 0.39511 0.47217 0.0
H1315 H 0.28387 0.4878 0.49305 0.0
H1316 H 0.23906 0.48417 0.56978 0.0
H1317 H 0.23963 0.48146 0.54137 0.0
H1318 H 0.25857 0.38791 0.51992 0.0
C1319 C 0.29592 0.41433 0.46545 0.0
C1320 C 0.27793 0.46591 0.49873 0.0
C1321 C 0.30149 0.41536 0.44937 0.0
C1322 C 0.24992 0.46415 0.56424 0.0
C1323 C 0.25041 0.4627 0.54794 0.0
C1324 C 0.26421 0.40982 0.51418 0.0
C1325 C 0.2791 0.43834 0.47281 0.0
C1326 C 0.27456 0.43808 0.49002 0.0
C1327 C 0.26496 0.43763 0.54021 0.0
C1328 C 0.26774 0.43767 0.52289 0.0
H1329 H 0.26391 0.48362 0.44093 0.0
H1330 H 0.25409 0.48173 0.46897 0.0
H1331 H 0.2645 0.38825 0.49151 0.0
H1332 H 0.28833 0.39615 0.57215 0.0
H1333 H 0.28953 0.3938 0.54362 0.0
C1334 C 0.83808 0.03478 0.3203 0.0
C1335 C 0.81819 0.01498 0.32859 0.0
C1336 C 0.84656 0.02727 0.30498 0.0
C1337 C 0.8191 0.97839 0.27177 0.0
H1338 H 0.89483 0.00638 0.2524 0.0
C1339 C 0.84203 0.95328 0.20754 0.0
C1340 C 0.84476 0.98112 0.19886 0.0
C1341 C 0.84604 0.95375 0.22373 0.0
C1342 C 0.87372 0.99827 0.25775 0.0
H1343 H 0.79342 0.97083 0.32804 0.0
H1344 H 0.8095 0.95676 0.30176 0.0
H1345 H 0.88774 0.01328 0.2806 0.0
H1346 H 0.85673 0.03058 0.20006 0.0
H1347 H 0.86401 0.03124 0.22841 0.0
H1348 H 0.80522 0.96327 0.24899 0.0
C1349 C 0.81741 0.97886 0.30662 0.0
C1350 C 0.86949 1.00242 0.27384 0.0
C1351 C 0.8083 0.98678 0.32173 0.0
C1352 C 0.8542 0.00883 0.20648 0.0
C1353 C 0.85856 0.00919 0.22267 0.0
C1354 C 0.8236 0.97373 0.25583 0.0
C1355 C 0.83585 0.99945 0.29784 0.0
C1356 C 0.84189 0.99293 0.28102 0.0
C1357 C 0.85326 0.98194 0.23147 0.0
C1358 C 0.85071 0.98399 0.24864 0.0
H1359 H 0.84598 0.05669 0.32541 0.0
H1360 H 0.86049 0.04392 0.29858 0.0
H1361 H 0.79719 0.97155 0.27668 0.0
H1362 H 0.83499 0.9315 0.20201 0.0
H1363 H 0.84204 0.93241 0.2303 0.0
C1364 C 0.19502 0.54949 0.0746 0.0
C1365 C 0.20757 0.56979 0.08591 0.0
C1366 C 0.20262 0.55279 0.05887 0.0
C1367 C 0.2345 0.60775 0.02981 0.0
H1368 H 0.24745 0.53079 0.00631 0.0
C1369 C 0.27366 0.60455 0.96474 0.0
C1370 C 0.25651 0.58419 0.9551 0.0
C1371 C 0.26991 0.60395 0.98099 0.0
C1372 C 0.24379 0.55248 0.0127 0.0
H1373 H 0.23743 0.61002 0.08956 0.0
H1374 H 0.25106 0.61559 0.06196 0.0
H1375 H 0.23662 0.52809 0.03417 0.0
H1376 H 0.22211 0.54719 0.95494 0.0
H1377 H 0.21579 0.54606 0.98317 0.0
H1378 H 0.2417 0.63202 0.00817 0.0
C1379 C 0.2351 0.59726 0.0653 0.0
C1380 C 0.23749 0.55095 0.02865 0.0
C1381 C 0.22736 0.59402 0.0811 0.0
C1382 C 0.23571 0.56317 0.96202 0.0
C1383 C 0.2322 0.56238 0.97821 0.0
C1384 C 0.24099 0.60927 0.0138 0.0
C1385 C 0.22313 0.57635 0.05405 0.0
C1386 C 0.23213 0.5785 0.03734 0.0
C1387 C 0.24924 0.58272 0.98787 0.0
C1388 C 0.24509 0.58159 0.00505 0.0
H1389 H 0.17944 0.53078 0.07788 0.0
H1390 H 0.19239 0.53677 0.05047 0.0
H1391 H 0.23033 0.62938 0.03615 0.0
H1392 H 0.28982 0.62107 0.95974 0.0
H1393 H 0.28343 0.61979 0.98819 0.0
C1394 C 0.66697 0.97037 0.72274 0.0
C1395 C 0.69098 0.98095 0.71312 0.0
C1396 C 0.67169 0.96656 0.7388 0.0
C1397 C 0.72317 0.99196 0.77088 0.0
H1398 H 0.6905 0.91935 0.79256 0.0
C1399 C 0.75901 0.96304 0.83382 0.0
C1400 C 0.73524 0.95541 0.84423 0.0
C1401 C 0.75333 0.96449 0.81777 0.0
C1402 C 0.69954 0.93986 0.78667 0.0
H1403 H 0.73883 0.99553 0.7128 0.0
H1404 H 0.74711 0.98853 0.74067 0.0
H1405 H 0.68055 0.92575 0.7646 0.0
H1406 H 0.68715 0.94221 0.84594 0.0
H1407 H 0.67727 0.9448 0.81786 0.0
H1408 H 0.74227 1.00603 0.79288 0.0
C1409 C 0.72449 0.98367 0.73589 0.0
C1410 C 0.69379 0.94358 0.77069 0.0
C1411 C 0.71977 0.98752 0.71988 0.0
C1412 C 0.70594 0.9482 0.83822 0.0
C1413 C 0.7003 0.94955 0.82214 0.0
C1414 C 0.72898 0.9882 0.78681 0.0
C1415 C 0.7005 0.97326 0.74555 0.0
C1416 C 0.70571 0.96959 0.76261 0.0
C1417 C 0.72381 0.95826 0.81178 0.0
C1418 C 0.7174 0.96204 0.79486 0.0
H1419 H 0.6445 0.96515 0.71788 0.0
H1420 H 0.65267 0.9588 0.74597 0.0
H1421 H 0.73215 0.01259 0.76507 0.0
H1422 H 0.78188 0.96856 0.83807 0.0
H1423 H 0.77203 0.97076 0.81004 0.0
C1424 C 0.55737 0.98825 0.9475 0.0
C1425 C 0.58839 0.99736 0.9468 0.0
C1426 C 0.54135 0.98955 0.96157 0.0
C1427 C 0.55076 0.9966 0.00446 0.0
H1428 H 0.46914 0.03326 0.00228 0.0
C1429 C 0.48915 0.04271 0.05894 0.0
C1430 C 0.45789 0.03523 0.06081 0.0
C1431 C 0.5041 0.03654 0.0449 0.0
C1432 C 0.49171 0.0226 0.00306 0.0
H1433 H 0.62746 0.01362 0.96032 0.0
H1434 H 0.59936 0.0163 0.98506 0.0
H1435 H 0.4979 0.024 0.97828 0.0
H1436 H 0.41744 0.0165 0.04924 0.0
H1437 H 0.44369 1.00577 0.02443 0.0
H1438 H 0.54472 0.99574 0.02927 0.0
C1439 C 0.58746 0.00787 0.97472 0.0
C1440 C 0.50821 0.01725 0.98932 0.0
C1441 C 0.60357 0.0064 0.9606 0.0
C1442 C 0.44153 0.02254 0.04809 0.0
C1443 C 0.45656 0.01637 0.03394 0.0
C1444 C 0.53429 1.00203 0.01819 0.0
C1445 C 0.55598 1.00012 0.97528 0.0
C1446 C 0.53803 1.00442 0.98987 0.0
C1447 C 0.48814 0.02285 0.03232 0.0
C1448 C 0.50473 0.01541 0.01765 0.0
H1449 H 0.5453 0.98065 0.93704 0.0
H1450 H 0.51736 0.98269 0.96167 0.0
H1451 H 0.57345 0.98623 0.00527 0.0
H1452 H 0.50219 0.05321 0.06843 0.0
H1453 H 0.52822 0.04257 0.04388 0.0
C1454 C 0.72315 0.64583 0.29428 0.0
C1455 C 0.73208 0.61682 0.28791 0.0
C1456 C 0.72897 0.67383 0.28613 0.0
C1457 C 0.77506 0.70684 0.25335 0.0
H1458 H 0.70525 0.76197 0.24694 0.0
C1459 C 0.72697 0.79099 0.20181 0.0
C1460 C 0.75458 0.805 0.19689 0.0
C1461 C 0.72551 0.77475 0.21598 0.0
C1462 C 0.72502 0.74689 0.24864 0.0
H1463 H 0.75532 0.59421 0.26857 0.0
H1464 H 0.76558 0.64258 0.25446 0.0
H1465 H 0.70206 0.71986 0.26622 0.0
H1466 H 0.80185 0.81454 0.20357 0.0
H1467 H 0.79909 0.78694 0.22848 0.0
H1468 H 0.79742 0.73243 0.23519 0.0
C1469 C 0.7542 0.6441 0.26568 0.0
C1470 C 0.72332 0.72297 0.25984 0.0
C1471 C 0.74814 0.61632 0.2737 0.0
C1472 C 0.78014 0.80418 0.207 0.0
C1473 C 0.77867 0.78798 0.22122 0.0
C1474 C 0.77677 0.73068 0.24217 0.0
C1475 C 0.74422 0.67318 0.27161 0.0
C1476 C 0.74796 0.702 0.26194 0.0
C1477 C 0.75163 0.77218 0.22565 0.0
C1478 C 0.75143 0.75042 0.23932 0.0
H1479 H 0.71067 0.64673 0.30522 0.0
H1480 H 0.72115 0.69589 0.29105 0.0
H1481 H 0.79463 0.69139 0.25484 0.0
H1482 H 0.70673 0.79152 0.1944 0.0
H1483 H 0.70433 0.76275 0.2189 0.0
C1484 C 0.92297 0.03611 0.4495 0.0
C1485 C 0.92079 0.01142 0.43863 0.0
C1486 C 0.93724 0.03129 0.46403 0.0
C1487 C 0.96608 0.96981 0.49132 0.0
H1488 H 0.02677 0.03296 0.50234 0.0
C1489 C 0.05463 0.94863 0.54075 0.0
C1490 C 0.05912 0.97373 0.55121 0.0
C1491 C 0.03874 0.95327 0.52665 0.0
C1492 C 0.00975 0.01521 0.49954 0.0
H1493 H 0.92981 0.962 0.43475 0.0
H1494 H 0.95429 0.95343 0.46006 0.0
H1495 H 0.9934 0.04114 0.47978 0.0
H1496 H 0.0523 0.02371 0.55466 0.0
H1497 H 0.02454 0.03179 0.53025 0.0
H1498 H 0.9824 0.94388 0.5111 0.0
C1499 C 0.94512 0.9765 0.45748 0.0
C1500 C 0.99048 0.01998 0.48663 0.0
C1501 C 0.93109 0.98138 0.44297 0.0
C1502 C 0.04902 1.00386 0.54686 0.0
C1503 C 0.03321 0.00851 0.53281 0.0
C1504 C 0.98529 0.96507 0.50427 0.0
C1505 C 0.94936 1.00163 0.46797 0.0
C1506 C 0.96843 0.99733 0.48233 0.0
C1507 C 0.02712 0.98314 0.5227 0.0
C1508 C 1.00744 0.98768 0.50854 0.0
H1509 H 0.91548 0.05955 0.44638 0.0
H1510 H 0.9397 0.05102 0.47195 0.0
H1511 H 0.94919 0.95199 0.48842 0.0
H1512 H 0.06198 0.92512 0.54382 0.0
H1513 H 0.03497 0.93331 0.519 0.0
C1514 C 0.77187 0.19767 0.70216 0.0
C1515 C 0.74313 0.18718 0.69663 0.0
C1516 C 0.77425 0.21475 0.71609 0.0
C1517 C 0.72716 0.26546 0.742 0.0
H1518 H 0.79967 0.26257 0.76845 0.0
C1519 C 0.73799 0.33044 0.80162 0.0
C1520 C 0.76672 0.34337 0.80568 0.0
C1521 C 0.73431 0.31323 0.78777 0.0
C1522 C 0.77945 0.26397 0.76106 0.0
H1523 H 0.69456 0.18475 0.70195 0.0
H1524 H 0.69874 0.21376 0.72665 0.0
H1525 H 0.79442 0.22549 0.74686 0.0
H1526 H 0.81374 0.3496 0.79808 0.0
H1527 H 0.80733 0.31964 0.77376 0.0
H1528 H 0.71205 0.30371 0.75645 0.0
C1529 C 0.71942 0.20945 0.71997 0.0
C1530 C 0.77636 0.24261 0.74867 0.0
C1531 C 0.71704 0.19234 0.70594 0.0
C1532 C 0.79127 0.3402 0.79517 0.0
C1533 C 0.78768 0.32267 0.78137 0.0
C1534 C 0.73015 0.28668 0.75449 0.0
C1535 C 0.74795 0.22171 0.72499 0.0
C1536 C 0.75027 0.24314 0.73888 0.0
C1537 C 0.75937 0.30823 0.77772 0.0
C1538 C 0.75643 0.28634 0.76412 0.0
H1539 H 0.79242 0.19398 0.69526 0.0
H1540 H 0.79659 0.22386 0.71941 0.0
H1541 H 0.707 0.26709 0.73458 0.0
H1542 H 0.71872 0.33239 0.80956 0.0
H1543 H 0.71224 0.30238 0.78539 0.0
C1544 C 0.20846 0.15728 0.77672 0.0
C1545 C 0.23293 0.14215 0.78439 0.0
C1546 C 0.21344 0.18466 0.76809 0.0
C1547 C 0.27469 0.22327 0.74572 0.0
H1548 H 0.21283 0.28789 0.74014 0.0
C1549 C 0.28481 0.31403 0.69585 0.0
C1550 C 0.25796 0.3167 0.68677 0.0
C1551 C 0.28385 0.29977 0.71063 0.0
C1552 C 0.23038 0.27006 0.74155 0.0
H1553 H 0.28157 0.14481 0.78969 0.0
H1554 H 0.29037 0.193 0.77468 0.0
H1555 H 0.20741 0.24978 0.76123 0.0
H1556 H 0.2088 0.30868 0.68646 0.0
H1557 H 0.20697 0.28413 0.71212 0.0
H1558 H 0.29706 0.24278 0.7257 0.0
C1559 C 0.26731 0.18346 0.77524 0.0
C1560 C 0.22726 0.24817 0.75365 0.0
C1561 C 0.26223 0.15607 0.78399 0.0
C1562 C 0.22985 0.30697 0.69323 0.0
C1563 C 0.22883 0.29296 0.70798 0.0
C1564 C 0.27781 0.24517 0.73362 0.0
C1565 C 0.24311 0.19763 0.76682 0.0
C1566 C 0.24891 0.22391 0.75563 0.0
C1567 C 0.25595 0.28814 0.71667 0.0
C1568 C 0.25523 0.26831 0.73108 0.0
H1569 H 0.18562 0.14708 0.77682 0.0
H1570 H 0.19428 0.19461 0.76168 0.0
H1571 H 0.29165 0.20476 0.74674 0.0
H1572 H 0.30684 0.32108 0.69112 0.0
H1573 H 0.30512 0.29682 0.71708 0.0
C1574 C 0.22426 0.69598 0.20667 0.0
C1575 C 0.25013 0.69171 0.1971 0.0
C1576 C 0.22676 0.71267 0.22079 0.0
C1577 C 0.28285 0.74477 0.24981 0.0
H1578 H 0.21933 0.80701 0.25703 0.0
C1579 C 0.29512 0.83778 0.29885 0.0
C1580 C 0.26901 0.84205 0.30825 0.0
C1581 C 0.29293 0.82129 0.28466 0.0
C1582 C 0.23717 0.78962 0.25527 0.0
H1583 H 0.2992 0.69967 0.19529 0.0
H1584 H 0.30362 0.72858 0.21983 0.0
H1585 H 0.21501 0.77133 0.23478 0.0
H1586 H 0.21987 0.83429 0.30969 0.0
H1587 H 0.21597 0.8057 0.28506 0.0
H1588 H 0.30498 0.76302 0.27032 0.0
C1589 C 0.28138 0.71917 0.21652 0.0
C1590 C 0.23461 0.76901 0.24254 0.0
C1591 C 0.27885 0.70265 0.20242 0.0
C1592 C 0.24039 0.83132 0.30268 0.0
C1593 C 0.23817 0.81498 0.28852 0.0
C1594 C 0.2854 0.76537 0.26256 0.0
C1595 C 0.25521 0.72527 0.22566 0.0
C1596 C 0.25739 0.74628 0.23964 0.0
C1597 C 0.26455 0.80888 0.27954 0.0
C1598 C 0.26258 0.78807 0.26548 0.0
H1599 H 0.20179 0.68807 0.20282 0.0
H1600 H 0.20623 0.71645 0.22767 0.0
H1601 H 0.30068 0.72738 0.24804 0.0
H1602 H 0.31751 0.84555 0.30289 0.0
H1603 H 0.31363 0.81751 0.2779 0.0
C1604 C 0.94733 0.49595 0.54848 0.0
C1605 C 0.93687 0.52521 0.55393 0.0
C1606 C 0.96573 0.49403 0.53518 0.0
C1607 C 0.99338 0.53804 0.50064 0.0
H1608 H 0.06424 0.48322 0.50475 0.0
C1609 C 0.0896 0.53885 0.45495 0.0
C1610 C 0.09864 0.50921 0.44931 0.0
C1611 C 0.07203 0.54142 0.46852 0.0
C1612 C 0.04449 0.49847 0.50338 0.0
H1613 H 0.93601 0.5752 0.54932 0.0
H1614 H 0.96824 0.57195 0.526 0.0
H1615 H 0.02662 0.48595 0.52578 0.0
H1616 H 0.09801 0.45921 0.45399 0.0
H1617 H 0.06749 0.46366 0.47781 0.0
H1618 H 0.01128 0.55054 0.47824 0.0
C1619 C 0.96208 0.55043 0.53195 0.0
C1620 C 0.02282 0.49995 0.51539 0.0
C1621 C 0.94352 0.55232 0.54526 0.0
C1622 C 0.09166 0.48237 0.45814 0.0
C1623 C 0.07404 0.48494 0.47175 0.0
C1624 C 0.01507 0.53659 0.48864 0.0
C1625 C 0.9742 0.52135 0.52706 0.0
C1626 C 0.99694 0.51965 0.51414 0.0
C1627 C 0.06313 0.5144 0.47677 0.0
C1628 C 0.04085 0.51675 0.48986 0.0
H1629 H 0.94228 0.47465 0.5549 0.0
H1630 H 0.97402 0.47119 0.5315 0.0
H1631 H 0.97356 0.55319 0.49924 0.0
H1632 H 0.09496 0.55996 0.44844 0.0
H1633 H 0.06461 0.56451 0.4723 0.0
C1634 C 0.55122 0.46681 0.04111 0.0
C1635 C 0.55171 0.49001 0.05283 0.0
C1636 C 0.53531 0.47188 0.02708 0.0
C1637 C 0.47273 0.5208 0.01029 0.0
H1638 H 0.50339 0.48865 0.97089 0.0
C1639 C 0.4208 0.55177 0.94929 0.0
C1640 C 0.42111 0.52797 0.93788 0.0
C1641 C 0.43397 0.54654 0.96405 0.0
C1642 C 0.49427 0.49742 0.98183 0.0
H1643 H 0.53725 0.53732 0.05869 0.0
H1644 H 0.51002 0.54641 0.03414 0.0
H1645 H 0.5338 0.4818 0.99456 0.0
H1646 H 0.43298 0.47939 0.93332 0.0
H1647 H 0.45539 0.47007 0.95906 0.0
H1648 H 0.43332 0.53676 0.99741 0.0
C1649 C 0.52119 0.52396 0.03592 0.0
C1650 C 0.51176 0.49351 0.99542 0.0
C1651 C 0.53697 0.51884 0.04995 0.0
C1652 C 0.4327 0.49823 0.94187 0.0
C1653 C 0.44578 0.493 0.95656 0.0
C1654 C 0.45526 0.52483 0.99665 0.0
C1655 C 0.51965 0.50034 0.02441 0.0
C1656 C 0.50122 0.50506 0.00986 0.0
C1657 C 0.44765 0.51741 0.96762 0.0
C1658 C 0.46576 0.51303 0.98227 0.0
H1659 H 0.56196 0.44419 0.04306 0.0
H1660 H 0.53439 0.45301 0.01857 0.0
H1661 H 0.46362 0.52957 0.02123 0.0
H1662 H 0.41228 0.57499 0.94647 0.0
H1663 H 0.43505 0.56585 0.97231 0.0
C1664 C 0.2891 0.73261 0.14155 0.0
C1665 C 0.26034 0.71743 0.14108 0.0
C1666 C 0.29386 0.76053 0.1333 0.0
C1667 C 0.24854 0.82805 0.12242 0.0
H1668 H 0.32164 0.85757 0.10115 0.0
C1669 C 0.25492 0.95554 0.10247 0.0
C1670 C 0.2829 0.97156 0.10429 0.0
C1671 C 0.25364 0.92293 0.10369 0.0
C1672 C 0.30118 0.84979 0.10719 0.0
H1673 H 0.21493 0.7182 0.13059 0.0
H1674 H 0.22329 0.76684 0.11612 0.0
H1675 H 0.3173 0.80209 0.10848 0.0
H1676 H 0.33177 0.96614 0.10826 0.0
H1677 H 0.32946 0.90889 0.11127 0.0
H1678 H 0.2329 0.8754 0.12211 0.0
C1679 C 0.24206 0.75725 0.12297 0.0
C1680 C 0.29864 0.81797 0.11128 0.0
C1681 C 0.23737 0.72924 0.13112 0.0
C1682 C 0.30992 0.95424 0.10678 0.0
C1683 C 0.30854 0.92143 0.10843 0.0
C1684 C 0.25123 0.85974 0.11857 0.0
C1685 C 0.26988 0.77388 0.12451 0.0
C1686 C 0.27223 0.80682 0.11893 0.0
C1687 C 0.28017 0.90543 0.10729 0.0
C1688 C 0.27753 0.87117 0.11087 0.0
H1689 H 0.30727 0.72391 0.14907 0.0
H1690 H 0.31552 0.77282 0.13473 0.0
H1691 H 0.22827 0.82039 0.12869 0.0
H1692 H 0.23381 0.96834 0.10028 0.0
H1693 H 0.23156 0.91153 0.10215 0.0
C1694 C 0.0636 0.5051 0.38429 0.0
C1695 C 0.08071 0.52665 0.39319 0.0
C1696 C 0.03687 0.51473 0.37655 0.0
C1697 C 0.97741 0.57498 0.3822 0.0
H1698 H 0.9381 0.53022 0.34803 0.0
C1699 C 0.84982 0.53056 0.36642 0.0
C1700 C 0.83223 0.55814 0.3677 0.0
C1701 C 0.88183 0.53202 0.36586 0.0
C1702 C 0.94888 0.54309 0.35753 0.0
H1703 H 0.0855 0.5756 0.39967 0.0
H1704 H 0.03961 0.59284 0.38558 0.0
H1705 H 0.99338 0.52442 0.35228 0.0
H1706 H 0.83443 0.60896 0.36924 0.0
H1707 H 0.8908 0.61143 0.36869 0.0
H1708 H 0.93273 0.59299 0.38764 0.0
C1709 C 0.04607 0.5683 0.38498 0.0
C1710 C 0.98051 0.53971 0.36 0.0
C1711 C 0.07254 0.55856 0.39289 0.0
C1712 C 0.84738 0.58731 0.36828 0.0
C1713 C 0.87957 0.58874 0.36796 0.0
C1714 C 0.94588 0.57862 0.37961 0.0
C1715 C 0.02695 0.5462 0.37747 0.0
C1716 C 0.99499 0.55469 0.37274 0.0
C1717 C 0.89707 0.56106 0.36676 0.0
C1718 C 0.93113 0.56182 0.3676 0.0
H1719 H 0.06926 0.4803 0.3845 0.0
H1720 H 0.02276 0.49692 0.371 0.0
H1721 H 0.98749 0.58656 0.39227 0.0
H1722 H 0.83888 0.5077 0.36584 0.0
H1723 H 0.89471 0.51028 0.36519 0.0
C1724 C 0.25273 0.04287 0.59985 0.0
C1725 C 0.22573 0.0251 0.59794 0.0
C1726 C 0.25143 0.07563 0.60052 0.0
C1727 C 0.20348 0.13747 0.61454 0.0
H1728 H 0.25734 0.19303 0.59141 0.0
C1729 C 0.21375 0.26698 0.63249 0.0
C1730 C 0.24361 0.27947 0.63246 0.0
C1731 C 0.20732 0.23888 0.62462 0.0
C1732 C 0.2423 0.17789 0.59808 0.0
H1733 H 0.17625 0.0276 0.59494 0.0
H1734 H 0.17391 0.08513 0.59672 0.0
H1735 H 0.25475 0.13737 0.58451 0.0
H1736 H 0.28994 0.27324 0.62387 0.0
H1737 H 0.27934 0.22367 0.61073 0.0
H1738 H 0.19266 0.17688 0.62892 0.0
C1739 C 0.19606 0.07356 0.59741 0.0
C1740 C 0.24068 0.14608 0.59401 0.0
C1741 C 0.19743 0.04075 0.59636 0.0
C1742 C 0.26662 0.26422 0.62388 0.0
C1743 C 0.26041 0.23579 0.61628 0.0
C1744 C 0.20557 0.1691 0.61883 0.0
C1745 C 0.22304 0.09122 0.59963 0.0
C1746 C 0.22167 0.12552 0.6024 0.0
C1747 C 0.23085 0.22224 0.6169 0.0
C1748 C 0.22552 0.18968 0.61089 0.0
H1749 H 0.27486 0.03141 0.60102 0.0
H1750 H 0.27251 0.08872 0.60239 0.0
H1751 H 0.18892 0.12197 0.6213 0.0
H1752 H 0.19563 0.27848 0.63902 0.0
H1753 H 0.1841 0.22975 0.62503 0.0
C1754 C 0.69459 0.48493 0.86191 0.0
C1755 C 0.71175 0.50363 0.85158 0.0
C1756 C 0.66261 0.48791 0.86275 0.0
C1757 C 0.60083 0.54396 0.85877 0.0
H1758 H 0.54776 0.47077 0.85739 0.0
C1759 C 0.4716 0.55471 0.87398 0.0
C1760 C 0.45996 0.53074 0.88357 0.0
C1761 C 0.50004 0.55106 0.86643 0.0
C1762 C 0.56216 0.4915 0.85797 0.0
H1763 H 0.70876 0.54018 0.83405 0.0
H1764 H 0.65267 0.54613 0.83593 0.0
H1765 H 0.60244 0.46515 0.85183 0.0
H1766 H 0.46782 0.48322 0.89169 0.0
H1767 H 0.51724 0.47717 0.87911 0.0
H1768 H 0.56125 0.57009 0.86589 0.0
C1769 C 0.66411 0.52884 0.84317 0.0
C1770 C 0.59351 0.48823 0.85466 0.0
C1771 C 0.69614 0.52532 0.84205 0.0
C1772 C 0.4763 0.50231 0.88453 0.0
C1773 C 0.50468 0.49875 0.87714 0.0
C1774 C 0.56955 0.54717 0.86238 0.0
C1775 C 0.64705 0.51013 0.85354 0.0
C1776 C 0.61327 0.5143 0.85531 0.0
C1777 C 0.5175 0.52338 0.86833 0.0
C1778 C 0.54983 0.52084 0.86238 0.0
H1779 H 0.70591 0.46794 0.86938 0.0
H1780 H 0.65008 0.47337 0.87093 0.0
H1781 H 0.6156 0.56443 0.85945 0.0
H1782 H 0.45963 0.57694 0.87303 0.0
H1783 H 0.50872 0.57034 0.85949 0.0
C1784 C 0.77125 0.08216 0.91035 0.0
C1785 C 0.75963 0.06212 0.89865 0.0
C1786 C 0.77026 0.11485 0.90848 0.0
C1787 C 0.73403 0.17733 0.88382 0.0
H1788 H 0.80338 0.22727 0.89789 0.0
C1789 C 0.74152 0.30686 0.86646 0.0
C1790 C 0.7706 0.31713 0.86165 0.0
C1791 C 0.73849 0.27897 0.87494 0.0
C1792 C 0.78387 0.21371 0.89379 0.0
H1793 H 0.73817 0.06071 0.87572 0.0
H1794 H 0.73748 0.11717 0.8722 0.0
H1795 H 0.80143 0.17159 0.90407 0.0
H1796 H 0.81936 0.30738 0.86221 0.0
H1797 H 0.81428 0.25817 0.87639 0.0
H1798 H 0.71757 0.21857 0.8725 0.0
C1799 C 0.74642 0.10798 0.88309 0.0
C1800 C 0.78252 0.18174 0.89756 0.0
C1801 C 0.74704 0.07544 0.88506 0.0
C1802 C 0.79675 0.30006 0.86607 0.0
C1803 C 0.79373 0.27184 0.87424 0.0
C1804 C 0.73563 0.20908 0.87983 0.0
C1805 C 0.75795 0.12821 0.89478 0.0
C1806 C 0.75792 0.16293 0.8923 0.0
C1807 C 0.76445 0.26031 0.87834 0.0
C1808 C 0.76089 0.22764 0.88447 0.0
H1809 H 0.78097 0.07262 0.92101 0.0
H1810 H 0.779 0.1296 0.91783 0.0
H1811 H 0.71429 0.1639 0.87989 0.0
H1812 H 0.72106 0.31969 0.86306 0.0
H1813 H 0.71564 0.27143 0.87824 0.0
C1814 C 0.17263 0.44078 0.63259 0.0
C1815 C 0.19155 0.45668 0.64335 0.0
C1816 C 0.14069 0.44423 0.63314 0.0
C1817 C 0.08332 0.50184 0.64171 0.0
H1818 H 0.02559 0.43268 0.63828 0.0
C1819 C 0.95953 0.52647 0.62248 0.0
C1820 C 0.94915 0.50628 0.61056 0.0
C1821 C 0.98478 0.51803 0.63179 0.0
C1822 C 0.04133 0.45233 0.63916 0.0
H1823 H 0.19192 0.48821 0.66331 0.0
H1824 H 0.13592 0.4951 0.6639 0.0
H1825 H 0.07968 0.42202 0.64389 0.0
H1826 H 0.95465 0.46013 0.60023 0.0
H1827 H 0.99886 0.4458 0.6159 0.0
H1828 H 0.046 0.53208 0.63574 0.0
C1829 C 0.1459 0.47956 0.65525 0.0
C1830 C 0.07227 0.44616 0.64248 0.0
C1831 C 0.17786 0.47553 0.65492 0.0
C1832 C 0.96244 0.47633 0.6092 0.0
C1833 C 0.98776 0.46803 0.61835 0.0
C1834 C 0.05253 0.50801 0.63808 0.0
C1835 C 0.12708 0.46416 0.64426 0.0
C1836 C 0.09367 0.4708 0.64336 0.0
C1837 C 1.00025 0.48934 0.62928 0.0
C1838 C 0.03125 0.48325 0.63625 0.0
H1839 H 0.18255 0.42605 0.62357 0.0
H1840 H 0.1267 0.43235 0.62444 0.0
H1841 H 0.09944 0.52125 0.64222 0.0
H1842 H 0.9497 0.54971 0.62382 0.0
H1843 H 0.99316 0.53472 0.64038 0.0
C1844 C 0.78109 0.9385 0.37771 0.0
C1845 C 0.77208 0.95504 0.39121 0.0
C1846 C 0.77763 0.90598 0.37675 0.0
C1847 C 0.76905 0.83461 0.40053 0.0
H1848 H 0.74259 0.79807 0.36109 0.0
C1849 C 0.783 0.7028 0.38709 0.0
C1850 C 0.759 0.68722 0.3792 0.0
C1851 C 0.78272 0.73544 0.38879 0.0
C1852 C 0.74971 0.80786 0.37223 0.0
H1853 H 0.75257 0.95008 0.41438 0.0
H1854 H 0.74648 0.89296 0.41267 0.0
H1855 H 0.74469 0.85503 0.36401 0.0
H1856 H 0.71602 0.69383 0.36671 0.0
H1857 H 0.7155 0.751 0.3697 0.0
H1858 H 0.77387 0.78742 0.40878 0.0
C1859 C 0.7564 0.90536 0.40287 0.0
C1860 C 0.75124 0.84053 0.37386 0.0
C1861 C 0.75984 0.93809 0.40383 0.0
C1862 C 0.73491 0.70512 0.37281 0.0
C1863 C 0.73465 0.73788 0.3745 0.0
C1864 C 0.76756 0.80193 0.39889 0.0
C1865 C 0.76504 0.88899 0.38924 0.0
C1866 C 0.76135 0.8543 0.38795 0.0
C1867 C 0.75844 0.75339 0.38265 0.0
C1868 C 0.75827 0.78815 0.38466 0.0
H1869 H 0.79076 0.95066 0.36775 0.0
H1870 H 0.78512 0.89409 0.36621 0.0
H1871 H 0.77707 0.84442 0.4115 0.0
H1872 H 0.802 0.68977 0.39211 0.0
H1873 H 0.80172 0.74664 0.39485 0.0
C1874 C 0.51529 0.46288 0.11374 0.0
C1875 C 0.53667 0.48636 0.11007 0.0
C1876 C 0.48993 0.46976 0.12316 0.0
C1877 C 0.43832 0.48789 0.14517 0.0
H1878 H 0.40186 0.56741 0.13323 0.0
C1879 C 0.31318 0.52288 0.16211 0.0
C1880 C 0.29583 0.53518 0.14964 0.0
C1881 C 0.34514 0.5192 0.16073 0.0
C1882 C 0.41171 0.54513 0.13673 0.0
H1883 H 0.54979 0.53474 0.11397 0.0
H1884 H 0.50622 0.54666 0.13104 0.0
H1885 H 0.45406 0.55547 0.12536 0.0
H1886 H 0.29863 0.55376 0.12606 0.0
H1887 H 0.35368 0.54714 0.12365 0.0
H1888 H 0.39489 0.47688 0.15563 0.0
C1889 C 0.50847 0.52307 0.12641 0.0
C1890 C 0.44194 0.53842 0.13241 0.0
C1891 C 0.53364 0.51623 0.11682 0.0
C1892 C 0.31117 0.54424 0.13593 0.0
C1893 C 0.34291 0.54069 0.13458 0.0
C1894 C 0.40791 0.49457 0.14942 0.0
C1895 C 0.48553 0.50032 0.12911 0.0
C1896 C 0.45541 0.50933 0.13616 0.0
C1897 C 0.36034 0.528 0.1469 0.0
C1898 C 0.39395 0.52286 0.14479 0.0
H1899 H 0.51699 0.43983 0.10839 0.0
H1900 H 0.4727 0.45169 0.12477 0.0
H1901 H 0.44807 0.46547 0.14849 0.0
H1902 H 0.30204 0.51564 0.17282 0.0
H1903 H 0.35793 0.50947 0.17046 0.0
C1904 C 0.76325 0.44926 0.62209 0.0
C1905 C 0.77433 0.46423 0.60862 0.0
C1906 C 0.76645 0.41688 0.62393 0.0
C1907 C 0.77184 0.34312 0.60305 0.0
H1908 H 0.80129 0.31194 0.64293 0.0
C1909 C 0.79002 0.22191 0.64182 0.0
C1910 C 0.76009 0.20962 0.64072 0.0
C1911 C 0.79772 0.24967 0.6341 0.0
C1912 C 0.79354 0.32008 0.6316 0.0
H1913 H 0.79732 0.45697 0.58644 0.0
H1914 H 0.80229 0.39979 0.58955 0.0
H1915 H 0.80345 0.36795 0.63746 0.0
H1916 H 0.71569 0.2149 0.62951 0.0
H1917 H 0.72906 0.26353 0.61601 0.0
H1918 H 0.76071 0.29518 0.59748 0.0
C1919 C 0.79138 0.41341 0.5987 0.0
C1920 C 0.79453 0.35224 0.62855 0.0
C1921 C 0.78866 0.44606 0.59697 0.0
C1922 C 0.73898 0.22378 0.63047 0.0
C1923 C 0.74666 0.25168 0.62276 0.0
C1924 C 0.77052 0.31082 0.60618 0.0
C1925 C 0.78042 0.3986 0.61225 0.0
C1926 C 0.78306 0.36416 0.61441 0.0
C1927 C 0.7756 0.26577 0.62517 0.0
C1928 C 0.78086 0.29904 0.62062 0.0
H1929 H 0.75221 0.46259 0.63131 0.0
H1930 H 0.75754 0.40601 0.63443 0.0
H1931 H 0.76275 0.35179 0.59207 0.0
H1932 H 0.80679 0.21124 0.64956 0.0
H1933 H 0.82041 0.2596 0.63592 0.0
C1934 C 0.57203 0.01143 0.87889 0.0
C1935 C 0.5822 0.02977 0.89154 0.0
C1936 C 0.54584 0.02037 0.87038 0.0
C1937 C 0.48362 0.08265 0.86832 0.0
H1938 H 0.4315 0.00946 0.86334 0.0
C1939 C 0.35077 0.09195 0.85921 0.0
C1940 C 0.33307 0.06885 0.86671 0.0
C1941 C 0.38295 0.08936 0.8587 0.0
C1942 C 0.44562 0.03024 0.86478 0.0
H1943 H 0.57574 0.07373 0.90388 0.0
H1944 H 0.52996 0.08879 0.88965 0.0
H1945 H 0.48604 1.00254 0.86736 0.0
H1946 H 0.33521 0.02579 0.88015 0.0
H1947 H 0.39076 0.02196 0.87987 0.0
H1948 H 0.44244 0.11012 0.86704 0.0
C1949 C 0.5418 0.06768 0.88598 0.0
C1950 C 0.47727 0.0263 0.86676 0.0
C1951 C 0.56814 0.05899 0.89426 0.0
C1952 C 0.34815 0.04376 0.87409 0.0
C1953 C 0.38012 0.0414 0.87377 0.0
C1954 C 0.45177 0.08656 0.86662 0.0
C1955 C 0.52914 0.04757 0.87455 0.0
C1956 C 0.49671 0.05237 0.8691 0.0
C1957 C 0.39803 0.06379 0.86583 0.0
C1958 C 0.43222 0.06031 0.8654 0.0
H1959 H 0.5825 0.98884 0.87649 0.0
H1960 H 0.53754 1.0048 0.86127 0.0
H1961 H 0.49778 0.10342 0.86966 0.0
H1962 H 0.33975 0.1115 0.85337 0.0
H1963 H 0.3959 0.10702 0.85245 0.0
C1964 C 0.71371 0.77913 0.13577 0.0
C1965 C 0.74428 0.78514 0.14003 0.0
C1966 C 0.70676 0.75427 0.12562 0.0
C1967 C 0.74388 0.69007 0.10164 0.0
H1968 H 0.67224 0.64341 0.11507 0.0
C1969 C 0.72965 0.55909 0.08567 0.0
C1970 C 0.71823 0.53998 0.09769 0.0
C1971 C 0.72757 0.59184 0.08679 0.0
C1972 C 0.69252 0.65597 0.11124 0.0
H1973 H 0.79163 0.77114 0.13693 0.0
H1974 H 0.77978 0.72684 0.12008 0.0
H1975 H 0.67953 0.69664 0.12413 0.0
H1976 H 0.69563 0.54001 0.12025 0.0
H1977 H 0.69353 0.59656 0.12265 0.0
H1978 H 0.75849 0.64816 0.09013 0.0
C1979 C 0.76098 0.74169 0.1238 0.0
C1980 C 0.69641 0.68698 0.11619 0.0
C1981 C 0.7679 0.76697 0.13359 0.0
C1982 C 0.70439 0.55412 0.11072 0.0
C1983 C 0.7029 0.58671 0.112 0.0
C1984 C 0.74043 0.65873 0.09705 0.0
C1985 C 0.73023 0.73438 0.12 0.0
C1986 C 0.72282 0.70409 0.112 0.0
C1987 C 0.71461 0.60612 0.10011 0.0
C1988 C 0.71533 0.64086 0.10235 0.0
H1989 H 0.69522 0.79307 0.14065 0.0
H1990 H 0.68289 0.75001 0.12267 0.0
H1991 H 0.76396 0.70276 0.09765 0.0
H1992 H 0.74014 0.54874 0.07541 0.0
H1993 H 0.73639 0.60589 0.07727 0.0
C1994 C 0.19384 0.01021 0.34282 0.0
C1995 C 0.21 0.99069 0.35324 0.0
C1996 C 0.1617 0.01254 0.34361 0.0
C1997 C 0.0923 0.97122 0.35576 0.0
H1998 H 0.05755 0.0528 0.36547 0.0
C1999 C 0.9747 0.98389 0.38526 0.0
C2000 C 0.95784 0.01196 0.38404 0.0
C2001 C 1.00302 0.98054 0.3778 0.0
C2002 C 0.06652 0.02991 0.36235 0.0
H2003 H 0.20511 0.95755 0.37228 0.0
H2004 H 0.14901 0.96077 0.37325 0.0
H2005 H 0.11209 0.04835 0.35929 0.0
H2006 H 0.95636 0.05754 0.37287 0.0
H2007 H 1.00525 0.0512 0.35916 0.0
H2008 H 0.04703 0.95258 0.3586 0.0
C2009 C 0.16123 0.97456 0.36464 0.0
C2010 C 0.09792 0.02741 0.35891 0.0
C2011 C 0.19332 0.97284 0.36412 0.0
C2012 C 0.96877 0.03561 0.37405 0.0
C2013 C 0.9971 0.03213 0.3664 0.0
C2014 C 0.06081 0.97376 0.35887 0.0
C2015 C 0.14512 0.99472 0.35454 0.0
C2016 C 0.11124 0.99793 0.35602 0.0
C2017 C 0.0152 1.00498 0.36864 0.0
C2018 C 0.04758 1.003 0.36274 0.0
H2019 H 0.20611 0.0244 0.33439 0.0
H2020 H 0.14978 0.02826 0.33572 0.0
H2021 H 0.10198 0.94825 0.35338 0.0
H2022 H 0.96672 0.96502 0.39271 0.0
H2023 H 0.01606 0.95936 0.38002 0.0
C2024 C 0.27799 0.80245 0.37381 0.0
C2025 C 0.25569 0.81599 0.36402 0.0
C2026 C 0.27196 0.77403 0.38142 0.0
C2027 C 0.25207 0.7134 0.39786 0.0
H2028 H 0.21815 0.65601 0.36698 0.0
C2029 C 0.23986 0.57716 0.4062 0.0
C2030 C 0.25264 0.55981 0.39379 0.0
C2031 C 0.23631 0.60982 0.40499 0.0
C2032 C 0.22742 0.67177 0.37579 0.0
H2033 H 0.2086 0.81261 0.35589 0.0
H2034 H 0.19779 0.76338 0.36941 0.0
H2035 H 0.21769 0.71216 0.36193 0.0
H2036 H 0.27158 0.5631 0.3704 0.0
H2037 H 0.26497 0.61964 0.36825 0.0
H2038 H 0.26288 0.67234 0.41138 0.0
C2039 C 0.22017 0.77418 0.37093 0.0
C2040 C 0.22688 0.70402 0.37299 0.0
C2041 C 0.22626 0.80243 0.36327 0.0
C2042 C 0.2617 0.57571 0.38018 0.0
C2043 C 0.25775 0.60809 0.3789 0.0
C2044 C 0.25235 0.68098 0.40073 0.0
C2045 C 0.24348 0.75879 0.37938 0.0
C2046 C 0.23986 0.72522 0.3838 0.0
C2047 C 0.24496 0.62549 0.39124 0.0
C2048 C 0.24082 0.65986 0.38948 0.0
H2049 H 0.30094 0.81232 0.3745 0.0
H2050 H 0.29046 0.76277 0.3878 0.0
H2051 H 0.26212 0.72915 0.40644 0.0
H2052 H 0.23274 0.56554 0.41684 0.0
H2053 H 0.22636 0.62274 0.41466 0.0
C2054 C 0.47188 0.99933 0.12334 0.0
C2055 C 0.46865 0.03025 0.11798 0.0
C2056 C 0.49807 0.99051 0.13181 0.0
C2057 C 0.57189 0.02143 0.14912 0.0
H2058 H 0.6042 0.94296 0.13298 0.0
C2059 C 0.69756 0.98353 0.16105 0.0
C2060 C 0.71335 0.97008 0.14836 0.0
C2061 C 0.66568 0.98782 0.16041 0.0
C2062 C 0.59565 0.96502 0.13756 0.0
H2063 H 0.48897 0.07658 0.11781 0.0
H2064 H 0.53485 0.06142 0.13226 0.0
H2065 H 0.55133 0.95723 0.12752 0.0
H2066 H 0.70793 0.95028 0.12513 0.0
H2067 H 0.65273 0.95858 0.1238 0.0
H2068 H 0.617 0.03022 0.15816 0.0
C2069 C 0.5171 0.04392 0.13044 0.0
C2070 C 0.56499 0.97299 0.13468 0.0
C2071 C 0.49073 0.05276 0.12217 0.0
C2072 C 0.69649 0.96053 0.13515 0.0
C2073 C 0.66469 0.96512 0.13444 0.0
C2074 C 0.6027 0.01361 0.15185 0.0
C2075 C 0.52183 0.01234 0.13472 0.0
C2076 C 0.55284 1.00169 0.14008 0.0
C2077 C 0.64884 0.97904 0.14701 0.0
C2078 C 0.61521 0.98566 0.14575 0.0
H2079 H 0.45528 0.98151 0.12 0.0
H2080 H 0.50051 0.96616 0.13523 0.0
H2081 H 0.56329 0.04347 0.15371 0.0
H2082 H 0.70985 0.99095 0.17146 0.0
H2083 H 0.65427 0.99815 0.17041 0.0
C2084 C 0.28551 0.4568 0.87714 0.0
C2085 C 0.27394 0.47258 0.89036 0.0
C2086 C 0.28388 0.42413 0.87595 0.0
C2087 C 0.24261 0.35447 0.89067 0.0
H2088 H 0.31271 0.30995 0.87357 0.0
C2089 C 0.23825 0.22216 0.87327 0.0
C2090 C 0.26406 0.20396 0.87728 0.0
C2091 C 0.23887 0.25496 0.87501 0.0
C2092 C 0.29298 0.32193 0.87846 0.0
H2093 H 0.25142 0.46607 0.9127 0.0
H2094 H 0.24873 0.40865 0.91065 0.0
H2095 H 0.31532 0.36662 0.87714 0.0
H2096 H 0.3108 0.20606 0.88621 0.0
H2097 H 0.31181 0.26284 0.88925 0.0
H2098 H 0.22046 0.30951 0.89215 0.0
C2099 C 0.25891 0.42183 0.90116 0.0
C2100 C 0.29436 0.35453 0.88037 0.0
C2101 C 0.26065 0.4547 0.90239 0.0
C2102 C 0.29052 0.2193 0.88293 0.0
C2103 C 0.29117 0.25195 0.88462 0.0
C2104 C 0.24118 0.32177 0.8887 0.0
C2105 C 0.2706 0.40617 0.88792 0.0
C2106 C 0.26919 0.37126 0.88645 0.0
C2107 C 0.26536 0.27025 0.88072 0.0
C2108 C 0.26639 0.3051 0.88258 0.0
H2109 H 0.29577 0.46968 0.86758 0.0
H2110 H 0.29266 0.41296 0.86549 0.0
H2111 H 0.22271 0.36666 0.89526 0.0
H2112 H 0.21747 0.21109 0.86891 0.0
H2113 H 0.2187 0.26836 0.87173 0.0
C2114 C 0.02938 0.01574 0.60786 0.0
C2115 C 0.03959 0.98443 0.6079 0.0
C2116 C 1.00336 0.02444 0.61632 0.0
C2117 C 0.94566 1.00139 0.64566 0.0
H2118 H 0.88855 0.03808 0.61598 0.0
C2119 C 0.81366 0.0082 0.65622 0.0
C2120 C 0.79722 0.03251 0.64893 0.0
C2121 C 0.84534 1.00493 0.65371 0.0
C2122 C 0.90421 0.02859 0.62462 0.0
H2123 H 0.03248 0.93837 0.61796 0.0
H2124 H 0.98684 0.95369 0.63293 0.0
H2125 H 0.94122 0.02869 0.60829 0.0
H2126 H 0.80113 0.07386 0.63438 0.0
H2127 H 0.85636 0.06936 0.63071 0.0
H2128 H 0.90845 1.00143 0.66206 0.0
C2129 C 0.99903 0.97145 0.62634 0.0
C2130 C 0.9345 0.02307 0.62015 0.0
C2131 C 0.02516 0.96269 0.61781 0.0
C2132 C 0.81321 0.05459 0.63993 0.0
C2133 C 0.84487 0.0518 0.63773 0.0
C2134 C 0.91527 0.00739 0.65027 0.0
C2135 C 0.98704 1.00202 0.62501 0.0
C2136 C 0.95555 0.00934 0.63056 0.0
C2137 C 0.86125 0.0263 0.64411 0.0
C2138 C 0.89408 0.02099 0.63976 0.0
H2139 H 0.04028 0.03299 0.6004 0.0
H2140 H 0.99489 0.04829 0.6153 0.0
H2141 H 0.96144 0.9907 0.65389 0.0
H2142 H 0.80178 0.99078 0.66317 0.0
H2143 H 0.85699 0.98486 0.65874 0.0
loop_
_geom_bond_atom_site_label_1
_geom_bond_atom_site_label_2
_geom_bond_distance
_geom_bond_site_symmetry_2
_ccdc_geom_bond_type
O0 Tb1 2.292 . S
O0 C3 1.255 . S
Tb1 O0 2.292 . S
Tb1 O17 2.326 . S
Tb1 O19 2.500 . S
Tb1 O20 2.473 . S
Tb1 O23 2.324 . S
Eu2 O6 2.292 . S
Eu2 C7 2.852 . S
Eu2 O18 2.324 . S
Eu2 O22 2.326 . S
Eu2 O24 2.500 . S
Eu2 O25 2.473 . S
C3 O0 1.255 . S
C3 O4 1.247 . S
O4 C3 1.247 . S
C5 O17 1.242 . S
C5 O18 1.258 . S
O6 Eu2 2.292 . S
O6 C8 1.255 . S
C7 Eu2 2.852 . S
C7 C11 1.503 . S
C7 O24 1.273 . S
C7 O25 1.257 . S
C8 O6 1.255 . S
C8 O9 1.247 . S
O9 C8 1.247 . S
C10 O22 1.242 . S
C10 O23 1.258 . S
C11 C7 1.503 . S
C11 C12 1.379 . S
C11 C16 1.392 . S
C12 C11 1.379 . S
C12 C13 1.404 . S
C12 H26 0.929 . S
C13 C12 1.404 . S
C13 C14 1.389 . S
C14 C13 1.389 . S
C14 C15 1.399 . S
C14 H27 0.931 . S
C15 C14 1.399 . S
C15 C16 1.390 . S
C16 C11 1.392 . S
C16 C15 1.390 . S
C16 H28 0.929 . S
O17 Tb1 2.326 . S
O17 C5 1.242 . S
O18 Eu2 2.324 . S
O18 C5 1.258 . S
O19 Tb1 2.500 . S
O19 C21 1.273 . S
O20 Tb1 2.473 . S
O20 C21 1.257 . S
C21 O19 1.273 . S
C21 O20 1.257 . S
O22 Eu2 2.326 . S
O22 C10 1.242 . S
O23 Tb1 2.324 . S
O23 C10 1.258 . S
O24 Eu2 2.500 . S
O24 C7 1.273 . S
O25 Eu2 2.473 . S
O25 C7 1.257 . S
H26 C12 0.929 . S
H27 C14 0.931 . S
H28 C16 0.929 . S
O29 Tb30 2.292 . S
O29 C32 1.255 . S
Tb30 O29 2.292 . S
Tb30 O46 2.326 . S
Tb30 O48 2.500 . S
Tb30 O49 2.473 . S
Tb30 O52 2.324 . S
Eu31 O35 2.292 . S
Eu31 C36 2.852 . S
Eu31 O47 2.324 . S
Eu31 O51 2.326 . S
Eu31 O53 2.500 . S
Eu31 O54 2.473 . S
C32 O29 1.255 . S
C32 O33 1.247 . S
O33 C32 1.247 . S
C34 O46 1.242 . S
C34 O47 1.258 . S
O35 Eu31 2.292 . S
O35 C37 1.255 . S
C36 Eu31 2.852 . S
C36 C40 1.503 . S
C36 O53 1.273 . S
C36 O54 1.257 . S
C37 O35 1.255 . S
C37 O38 1.247 . S
O38 C37 1.247 . S
C39 O51 1.242 . S
C39 O52 1.258 . S
C40 C36 1.503 . S
C40 C41 1.379 . S
C40 C45 1.392 . S
C41 C40 1.379 . S
C41 C42 1.404 . S
C41 H55 0.929 . S
C42 C41 1.404 . S
C42 C43 1.389 . S
C43 C42 1.389 . S
C43 C44 1.399 . S
C43 H56 0.931 . S
C44 C43 1.399 . S
C44 C45 1.390 . S
C45 C40 1.392 . S
C45 C44 1.390 . S
C45 H57 0.929 . S
O46 Tb30 2.326 . S
O46 C34 1.242 . S
O47 Eu31 2.324 . S
O47 C34 1.258 . S
O48 Tb30 2.500 . S
O48 C50 1.273 . S
O49 Tb30 2.473 . S
O49 C50 1.257 . S
C50 O48 1.273 . S
C50 O49 1.257 . S
O51 Eu31 2.326 . S
O51 C39 1.242 . S
O52 Tb30 2.324 . S
O52 C39 1.258 . S
O53 Eu31 2.500 . S
O53 C36 1.273 . S
O54 Eu31 2.473 . S
O54 C36 1.257 . S
H55 C41 0.929 . S
H56 C43 0.931 . S
H57 C45 0.929 . S
O58 Tb59 2.292 . S
O58 C61 1.255 . S
Tb59 O58 2.292 . S
Tb59 O75 2.326 . S
Tb59 O77 2.500 . S
Tb59 O78 2.473 . S
Tb59 O81 2.324 . S
Eu60 O64 2.292 . S
Eu60 C65 2.852 . S
Eu60 O76 2.324 . S
Eu60 O80 2.326 . S
Eu60 O82 2.500 . S
Eu60 O83 2.473 . S
C61 O58 1.255 . S
C61 O62 1.247 . S
O62 C61 1.247 . S
C63 O75 1.242 . S
C63 O76 1.258 . S
O64 Eu60 2.292 . S
O64 C66 1.255 . S
C65 Eu60 2.852 . S
C65 C69 1.503 . S
C65 O82 1.273 . S
C65 O83 1.257 . S
C66 O64 1.255 . S
C66 O67 1.247 . S
O67 C66 1.247 . S
C68 O80 1.242 . S
C68 O81 1.258 . S
C69 C65 1.503 . S
C69 C70 1.379 . S
C69 C74 1.392 . S
C70 C69 1.379 . S
C70 C71 1.404 . S
C70 H84 0.929 . S
C71 C70 1.404 . S
C71 C72 1.389 . S
C72 C71 1.389 . S
C72 C73 1.399 . S
C72 H85 0.931 . S
C73 C72 1.399 . S
C73 C74 1.390 . S
C74 C69 1.392 . S
C74 C73 1.390 . S
C74 H86 0.929 . S
O75 Tb59 2.326 . S
O75 C63 1.242 . S
O76 Eu60 2.324 . S
O76 C63 1.258 . S
O77 Tb59 2.500 . S
O77 C79 1.273 . S
O78 Tb59 2.473 . S
O78 C79 1.257 . S
C79 O77 1.273 . S
C79 O78 1.257 . S
O80 Eu60 2.326 . S
O80 C68 1.242 . S
O81 Tb59 2.324 . S
O81 C68 1.258 . S
O82 Eu60 2.500 . S
O82 C65 1.273 . S
O83 Eu60 2.473 . S
O83 C65 1.257 . S
H84 C70 0.929 . S
H85 C72 0.931 . S
H86 C74 0.929 . S
O87 Tb88 2.292 . S
O87 C90 1.255 . S
Tb88 O87 2.292 . S
Tb88 O104 2.326 . S
Tb88 O106 2.500 . S
Tb88 O107 2.473 . S
Tb88 O110 2.324 . S
Eu89 O93 2.292 . S
Eu89 C94 2.852 . S
Eu89 O105 2.324 . S
Eu89 O109 2.326 . S
Eu89 O111 2.500 . S
Eu89 O112 2.473 . S
C90 O87 1.255 . S
C90 O91 1.247 . S
O91 C90 1.247 . S
C92 O104 1.242 . S
C92 O105 1.258 . S
O93 Eu89 2.292 . S
O93 C95 1.255 . S
C94 Eu89 2.852 . S
C94 C98 1.503 . S
C94 O111 1.273 . S
C94 O112 1.257 . S
C95 O93 1.255 . S
C95 O96 1.247 . S
O96 C95 1.247 . S
C97 O109 1.242 . S
C97 O110 1.258 . S
C98 C94 1.503 . S
C98 C99 1.379 . S
C98 C103 1.392 . S
C99 C98 1.379 . S
C99 C100 1.404 . S
C99 H113 0.929 . S
C100 C99 1.404 . S
C100 C101 1.389 . S
C101 C100 1.389 . S
C101 C102 1.399 . S
C101 H114 0.931 . S
C102 C101 1.399 . S
C102 C103 1.390 . S
C103 C98 1.392 . S
C103 C102 1.390 . S
C103 H115 0.929 . S
O104 Tb88 2.326 . S
O104 C92 1.242 . S
O105 Eu89 2.324 . S
O105 C92 1.258 . S
O106 Tb88 2.500 . S
O106 C108 1.273 . S
O107 Tb88 2.473 . S
O107 C108 1.257 . S
C108 O106 1.273 . S
C108 O107 1.257 . S
O109 Eu89 2.326 . S
O109 C97 1.242 . S
O110 Tb88 2.324 . S
O110 C97 1.258 . S
O111 Eu89 2.500 . S
O111 C94 1.273 . S
O112 Eu89 2.473 . S
O112 C94 1.257 . S
H113 C99 0.929 . S
H114 C101 0.931 . S
H115 C103 0.929 . S
O116 Tb117 2.292 . S
O116 C119 1.255 . S
Tb117 O116 2.292 . S
Tb117 O133 2.326 . S
Tb117 O135 2.500 . S
Tb117 O136 2.473 . S
Tb117 O139 2.324 1_565 S
Eu118 O122 2.292 . S
Eu118 C123 2.852 . S
Eu118 O134 2.324 . S
Eu118 O138 2.326 . S
Eu118 O140 2.500 . S
Eu118 O141 2.473 . S
C119 O116 1.255 . S
C119 O120 1.247 . S
O120 C119 1.247 . S
C121 O133 1.242 . S
C121 O134 1.258 . S
O122 Eu118 2.292 . S
O122 C124 1.255 . S
C123 Eu118 2.852 . S
C123 C127 1.503 . S
C123 O140 1.273 . S
C123 O141 1.257 . S
C124 O122 1.255 . S
C124 O125 1.247 . S
O125 C124 1.247 . S
C126 O138 1.223 1_545 S
C126 O139 1.259 . S
C127 C123 1.503 . S
C127 C128 1.379 . S
C127 C132 1.392 . S
C128 C127 1.379 . S
C128 C129 1.404 . S
C128 H142 0.929 . S
C129 C128 1.404 . S
C129 C130 1.389 . S
C130 C129 1.389 . S
C130 C131 1.399 . S
C130 H143 0.931 . S
C131 C130 1.399 . S
C131 C132 1.390 . S
C132 C127 1.392 . S
C132 C131 1.390 . S
C132 H144 0.929 . S
O133 Tb117 2.326 . S
O133 C121 1.242 . S
O134 Eu118 2.324 . S
O134 C121 1.258 . S
O135 Tb117 2.500 . S
O135 C137 1.273 . S
O136 Tb117 2.473 . S
O136 C137 1.257 . S
C137 O135 1.273 . S
C137 O136 1.257 . S
O138 Eu118 2.326 . S
O138 C126 1.223 1_565 S
O139 Tb117 2.324 1_545 S
O139 C126 1.259 . S
O140 Eu118 2.500 . S
O140 C123 1.273 . S
O141 Eu118 2.473 . S
O141 C123 1.257 . S
H142 C128 0.929 . S
H143 C130 0.931 . S
H144 C132 0.929 . S
O145 Tb146 2.292 . S
O145 C148 1.255 . S
Tb146 O145 2.292 . S
Tb146 O162 2.326 . S
Tb146 O164 2.500 . S
Tb146 O165 2.473 . S
Tb146 O168 2.324 . S
Eu147 O151 2.292 . S
Eu147 C152 2.852 . S
Eu147 O163 2.324 . S
Eu147 O167 2.326 . S
Eu147 O169 2.500 . S
Eu147 O170 2.473 . S
C148 O145 1.255 . S
C148 O149 1.247 . S
O149 C148 1.247 . S
C150 O162 1.242 . S
C150 O163 1.258 . S
O151 Eu147 2.292 . S
O151 C153 1.255 . S
C152 Eu147 2.852 . S
C152 C156 1.503 . S
C152 O169 1.273 . S
C152 O170 1.257 . S
C153 O151 1.255 . S
C153 O154 1.247 . S
O154 C153 1.247 . S
C155 O167 1.242 . S
C155 O168 1.258 . S
C156 C152 1.503 . S
C156 C157 1.379 . S
C156 C161 1.392 . S
C157 C156 1.379 . S
C157 C158 1.404 . S
C157 H171 0.929 . S
C158 C157 1.404 . S
C158 C159 1.389 . S
C159 C158 1.389 . S
C159 C160 1.399 . S
C159 H172 0.931 . S
C160 C159 1.399 . S
C160 C161 1.390 . S
C161 C156 1.392 . S
C161 C160 1.390 . S
C161 H173 0.929 . S
O162 Tb146 2.326 . S
O162 C150 1.242 . S
O163 Eu147 2.324 . S
O163 C150 1.258 . S
O164 Tb146 2.500 . S
O164 C166 1.273 . S
O165 Tb146 2.473 . S
O165 C166 1.257 . S
C166 O164 1.273 . S
C166 O165 1.257 . S
O167 Eu147 2.326 . S
O167 C155 1.242 . S
O168 Tb146 2.324 . S
O168 C155 1.258 . S
O169 Eu147 2.500 . S
O169 C152 1.273 . S
O170 Eu147 2.473 . S
O170 C152 1.257 . S
H171 C157 0.929 . S
H172 C159 0.931 . S
H173 C161 0.929 . S
O174 Tb175 2.292 . S
O174 C177 1.255 . S
Tb175 O174 2.292 . S
Tb175 O191 2.326 . S
Tb175 O193 2.500 . S
Tb175 O194 2.473 . S
Tb175 O197 2.324 . S
Eu176 O180 2.292 . S
Eu176 C181 2.852 . S
Eu176 O192 2.324 . S
Eu176 O196 2.326 . S
Eu176 O198 2.500 . S
Eu176 O199 2.473 . S
C177 O174 1.255 . S
C177 O178 1.247 . S
O178 C177 1.247 . S
C179 O191 1.242 . S
C179 O192 1.258 . S
O180 Eu176 2.292 . S
O180 C182 1.255 . S
C181 Eu176 2.852 . S
C181 C185 1.503 . S
C181 O198 1.273 . S
C181 O199 1.257 . S
C182 O180 1.255 . S
C182 O183 1.247 . S
O183 C182 1.247 . S
C184 O196 1.242 . S
C184 O197 1.258 . S
C185 C181 1.503 . S
C185 C186 1.379 . S
C185 C190 1.392 . S
C186 C185 1.379 . S
C186 C187 1.404 . S
C186 H200 0.929 . S
C187 C186 1.404 . S
C187 C188 1.389 . S
C188 C187 1.389 . S
C188 C189 1.399 . S
C188 H201 0.931 . S
C189 C188 1.399 . S
C189 C190 1.390 . S
C190 C185 1.392 . S
C190 C189 1.390 . S
C190 H202 0.929 . S
O191 Tb175 2.326 . S
O191 C179 1.242 . S
O192 Eu176 2.324 . S
O192 C179 1.258 . S
O193 Tb175 2.500 . S
O193 C195 1.273 . S
O194 Tb175 2.473 . S
O194 C195 1.257 . S
C195 O193 1.273 . S
C195 O194 1.257 . S
O196 Eu176 2.326 . S
O196 C184 1.242 . S
O197 Tb175 2.324 . S
O197 C184 1.258 . S
O198 Eu176 2.500 . S
O198 C181 1.273 . S
O199 Eu176 2.473 . S
O199 C181 1.257 . S
H200 C186 0.929 . S
H201 C188 0.931 . S
H202 C190 0.929 . S
O203 Tb204 2.292 . S
O203 C206 1.255 . S
Tb204 O203 2.292 . S
Tb204 O220 2.326 . S
Tb204 O222 2.500 . S
Tb204 O223 2.473 . S
Tb204 O226 2.324 . S
Eu205 O209 2.292 . S
Eu205 C210 2.852 . S
Eu205 O221 2.324 . S
Eu205 O225 2.326 . S
Eu205 O227 2.500 . S
Eu205 O228 2.473 . S
C206 O203 1.255 . S
C206 O207 1.247 . S
O207 C206 1.247 . S
C208 O220 1.242 . S
C208 O221 1.258 . S
O209 Eu205 2.292 . S
O209 C211 1.255 . S
C210 Eu205 2.852 . S
C210 C214 1.503 . S
C210 O227 1.273 . S
C210 O228 1.257 . S
C211 O209 1.255 . S
C211 O212 1.247 . S
O212 C211 1.247 . S
C213 O225 1.242 . S
C213 O226 1.258 . S
C214 C210 1.503 . S
C214 C215 1.379 . S
C214 C219 1.392 . S
C215 C214 1.379 . S
C215 C216 1.404 . S
C215 H229 0.929 . S
C216 C215 1.404 . S
C216 C217 1.389 . S
C217 C216 1.389 . S
C217 C218 1.399 . S
C217 H230 0.931 . S
C218 C217 1.399 . S
C218 C219 1.390 . S
C219 C214 1.392 . S
C219 C218 1.390 . S
C219 H231 0.929 . S
O220 Tb204 2.326 . S
O220 C208 1.242 . S
O221 Eu205 2.324 . S
O221 C208 1.258 . S
O222 Tb204 2.500 . S
O222 C224 1.273 . S
O223 Tb204 2.473 . S
O223 C224 1.257 . S
C224 O222 1.273 . S
C224 O223 1.257 . S
O225 Eu205 2.326 . S
O225 C213 1.242 . S
O226 Tb204 2.324 . S
O226 C213 1.258 . S
O227 Eu205 2.500 . S
O227 C210 1.273 . S
O228 Eu205 2.473 . S
O228 C210 1.257 . S
H229 C215 0.929 . S
H230 C217 0.931 . S
H231 C219 0.929 . S
O232 Tb233 2.292 . S
O232 C235 1.255 . S
Tb233 O232 2.292 . S
Tb233 O249 2.326 . S
Tb233 O251 2.500 . S
Tb233 O252 2.473 . S
Tb233 O255 2.324 . S
Eu234 O238 2.292 . S
Eu234 C239 2.852 . S
Eu234 O250 2.324 . S
Eu234 O254 2.326 . S
Eu234 O256 2.500 . S
Eu234 O257 2.473 . S
C235 O232 1.255 . S
C235 O236 1.247 . S
O236 C235 1.247 . S
C237 O249 1.242 . S
C237 O250 1.258 . S
O238 Eu234 2.292 . S
O238 C240 1.255 . S
C239 Eu234 2.852 . S
C239 C243 1.503 . S
C239 O256 1.273 . S
C239 O257 1.257 . S
C240 O238 1.255 . S
C240 O241 1.247 . S
O241 C240 1.247 . S
C242 O254 1.242 . S
C242 O255 1.258 . S
C243 C239 1.503 . S
C243 C244 1.379 . S
C243 C248 1.392 . S
C244 C243 1.379 . S
C244 C245 1.404 . S
C244 H258 0.929 . S
C245 C244 1.404 . S
C245 C246 1.389 . S
C246 C245 1.389 . S
C246 C247 1.399 . S
C246 H259 0.931 . S
C247 C246 1.399 . S
C247 C248 1.390 . S
C248 C243 1.392 . S
C248 C247 1.390 . S
C248 H260 0.929 . S
O249 Tb233 2.326 . S
O249 C237 1.242 . S
O250 Eu234 2.324 . S
O250 C237 1.258 . S
O251 Tb233 2.500 . S
O251 C253 1.273 . S
O252 Tb233 2.473 . S
O252 C253 1.257 . S
C253 O251 1.273 . S
C253 O252 1.257 . S
O254 Eu234 2.326 . S
O254 C242 1.242 . S
O255 Tb233 2.324 . S
O255 C242 1.258 . S
O256 Eu234 2.500 . S
O256 C239 1.273 . S
O257 Eu234 2.473 . S
O257 C239 1.257 . S
H258 C244 0.929 . S
H259 C246 0.931 . S
H260 C248 0.929 . S
O261 Tb262 2.292 . S
O261 C264 1.255 . S
Tb262 O261 2.292 . S
Tb262 O278 2.326 . S
Tb262 O280 2.500 . S
Tb262 O281 2.473 . S
Tb262 O284 2.324 . S
Eu263 O267 2.292 1_545 S
Eu263 C268 2.852 . S
Eu263 O279 2.324 . S
Eu263 O283 2.326 . S
Eu263 O285 2.500 . S
Eu263 O286 2.473 . S
C264 O261 1.255 . S
C264 O265 1.247 . S
O265 C264 1.247 . S
C266 O278 1.242 . S
C266 O279 1.258 . S
O267 Eu263 2.292 1_565 S
O267 C269 1.255 . S
C268 Eu263 2.852 . S
C268 C272 1.503 . S
C268 O285 1.273 . S
C268 O286 1.257 . S
C269 O267 1.255 . S
C269 O270 1.247 . S
O270 C269 1.247 . S
C271 O283 1.242 . S
C271 O284 1.258 . S
C272 C268 1.503 . S
C272 C273 1.379 . S
C272 C277 1.392 . S
C273 C272 1.379 . S
C273 C274 1.404 . S
C273 H287 0.929 . S
C274 C273 1.404 . S
C274 C275 1.389 . S
C275 C274 1.389 . S
C275 C276 1.399 . S
C275 H288 0.931 . S
C276 C275 1.399 . S
C276 C277 1.390 . S
C277 C272 1.392 . S
C277 C276 1.390 . S
C277 H289 0.929 . S
O278 Tb262 2.326 . S
O278 C266 1.242 . S
O279 Eu263 2.324 . S
O279 C266 1.258 . S
O280 Tb262 2.500 . S
O280 C282 1.273 . S
O281 Tb262 2.473 . S
O281 C282 1.257 . S
C282 O280 1.273 . S
C282 O281 1.257 . S
O283 Eu263 2.326 . S
O283 C271 1.242 . S
O284 Tb262 2.324 . S
O284 C271 1.258 . S
O285 Eu263 2.500 . S
O285 C268 1.273 . S
O286 Eu263 2.473 . S
O286 C268 1.257 . S
H287 C273 0.929 . S
H288 C275 0.931 . S
H289 C277 0.929 . S
O290 Tb291 2.292 . S
O290 C293 1.255 . S
Tb291 O290 2.292 . S
Tb291 O307 2.326 . S
Tb291 O309 2.500 . S
Tb291 O310 2.473 . S
Tb291 O313 2.324 . S
Eu292 O296 2.292 . S
Eu292 C297 2.852 . S
Eu292 O308 2.324 . S
Eu292 O312 2.326 . S
Eu292 O314 2.500 . S
Eu292 O315 2.473 . S
C293 O290 1.255 . S
C293 O294 1.247 . S
O294 C293 1.247 . S
C295 O307 1.242 . S
C295 O308 1.258 . S
O296 Eu292 2.292 . S
O296 C298 1.255 . S
C297 Eu292 2.852 . S
C297 C301 1.503 . S
C297 O314 1.273 . S
C297 O315 1.257 . S
C298 O296 1.255 . S
C298 O299 1.247 . S
O299 C298 1.247 . S
C300 O312 1.242 . S
C300 O313 1.258 . S
C301 C297 1.503 . S
C301 C302 1.379 . S
C301 C306 1.392 . S
C302 C301 1.379 . S
C302 C303 1.404 . S
C302 H316 0.929 . S
C303 C302 1.404 . S
C303 C304 1.389 . S
C304 C303 1.389 . S
C304 C305 1.399 . S
C304 H317 0.931 . S
C305 C304 1.399 . S
C305 C306 1.390 . S
C306 C301 1.392 . S
C306 C305 1.390 . S
C306 H318 0.929 . S
O307 Tb291 2.326 . S
O307 C295 1.242 . S
O308 Eu292 2.324 . S
O308 C295 1.258 . S
O309 Tb291 2.500 . S
O309 C311 1.273 . S
O310 Tb291 2.473 . S
O310 C311 1.257 . S
C311 O309 1.273 . S
C311 O310 1.257 . S
O312 Eu292 2.326 . S
O312 C300 1.242 . S
O313 Tb291 2.324 . S
O313 C300 1.258 . S
O314 Eu292 2.500 . S
O314 C297 1.273 . S
O315 Eu292 2.473 . S
O315 C297 1.257 . S
H316 C302 0.929 . S
H317 C304 0.931 . S
H318 C306 0.929 . S
O319 Tb320 2.292 . S
O319 C322 1.255 . S
Tb320 O319 2.292 . S
Tb320 O336 2.326 . S
Tb320 O338 2.500 1_565 S
Tb320 O339 2.473 1_565 S
Tb320 O342 2.324 . S
Eu321 O325 2.292 . S
Eu321 C326 2.852 . S
Eu321 O337 2.324 . S
Eu321 O341 2.326 . S
Eu321 O343 2.500 . S
Eu321 O344 2.473 . S
C322 O319 1.255 . S
C322 O323 1.247 . S
O323 C322 1.247 . S
C324 O336 1.242 . S
C324 O337 1.258 . S
O325 Eu321 2.292 . S
O325 C327 1.255 . S
C326 Eu321 2.852 . S
C326 C330 1.503 . S
C326 O343 1.273 . S
C326 O344 1.257 . S
C327 O325 1.255 . S
C327 O328 1.247 . S
O328 C327 1.247 . S
C329 O341 1.242 . S
C329 O342 1.258 . S
C330 C326 1.503 . S
C330 C331 1.379 . S
C330 C335 1.392 . S
C331 C330 1.379 . S
C331 C332 1.404 . S
C331 H345 0.929 . S
C332 C331 1.404 . S
C332 C333 1.389 . S
C333 C332 1.389 . S
C333 C334 1.399 . S
C333 H346 0.931 . S
C334 C333 1.399 . S
C334 C335 1.390 . S
C335 C330 1.392 . S
C335 C334 1.390 . S
C335 H347 0.929 . S
O336 Tb320 2.326 . S
O336 C324 1.242 . S
O337 Eu321 2.324 . S
O337 C324 1.258 . S
O338 Tb320 2.500 1_545 S
O338 C340 1.273 . S
O339 Tb320 2.473 1_545 S
O339 C340 1.257 . S
C340 O338 1.273 . S
C340 O339 1.257 . S
O341 Eu321 2.326 . S
O341 C329 1.242 . S
O342 Tb320 2.324 . S
O342 C329 1.258 . S
O343 Eu321 2.500 . S
O343 C326 1.273 . S
O344 Eu321 2.473 . S
O344 C326 1.257 . S
H345 C331 0.929 . S
H346 C333 0.931 . S
H347 C335 0.929 . S
O348 Tb349 2.292 . S
O348 C351 1.255 . S
Tb349 O348 2.292 . S
Tb349 O365 2.326 . S
Tb349 O367 2.500 . S
Tb349 O368 2.473 . S
Tb349 O371 2.324 . S
Eu350 O354 2.292 . S
Eu350 C355 2.852 . S
Eu350 O366 2.324 . S
Eu350 O370 2.326 . S
Eu350 O372 2.500 . S
Eu350 O373 2.473 . S
C351 O348 1.255 . S
C351 O352 1.247 . S
O352 C351 1.247 . S
C353 O365 1.242 . S
C353 O366 1.258 . S
O354 Eu350 2.292 . S
O354 C356 1.255 . S
C355 Eu350 2.852 . S
C355 C359 1.503 . S
C355 O372 1.273 . S
C355 O373 1.257 . S
C356 O354 1.255 . S
C356 O357 1.247 . S
O357 C356 1.247 . S
C358 O370 1.242 . S
C358 O371 1.258 . S
C359 C355 1.503 . S
C359 C360 1.379 . S
C359 C364 1.392 . S
C360 C359 1.379 . S
C360 C361 1.404 . S
C360 H374 0.929 . S
C361 C360 1.404 . S
C361 C362 1.389 . S
C362 C361 1.389 . S
C362 C363 1.399 . S
C362 H375 0.931 . S
C363 C362 1.399 . S
C363 C364 1.390 . S
C364 C359 1.392 . S
C364 C363 1.390 . S
C364 H376 0.929 . S
O365 Tb349 2.326 . S
O365 C353 1.242 . S
O366 Eu350 2.324 . S
O366 C353 1.258 . S
O367 Tb349 2.500 . S
O367 C369 1.273 . S
O368 Tb349 2.473 . S
O368 C369 1.257 . S
C369 O367 1.273 . S
C369 O368 1.257 . S
O370 Eu350 2.326 . S
O370 C358 1.242 . S
O371 Tb349 2.324 . S
O371 C358 1.258 . S
O372 Eu350 2.500 . S
O372 C355 1.273 . S
O373 Eu350 2.473 . S
O373 C355 1.257 . S
H374 C360 0.929 . S
H375 C362 0.931 . S
H376 C364 0.929 . S
O377 Tb378 2.292 . S
O377 C380 1.255 . S
Tb378 O377 2.292 . S
Tb378 O394 2.326 . S
Tb378 O396 2.500 1_565 S
Tb378 O397 2.482 . S
Tb378 O400 2.324 . S
Eu379 O383 2.292 . S
Eu379 C384 2.852 . S
Eu379 O395 2.324 . S
Eu379 O399 2.326 . S
Eu379 O401 2.500 . S
Eu379 O402 2.473 . S
C380 O377 1.255 . S
C380 O381 1.247 . S
O381 C380 1.247 . S
C382 O394 1.242 . S
C382 O395 1.258 . S
O383 Eu379 2.292 . S
O383 C385 1.255 . S
C384 Eu379 2.852 . S
C384 C388 1.503 . S
C384 O401 1.273 . S
C384 O402 1.257 . S
C385 O383 1.255 . S
C385 O386 1.247 . S
O386 C385 1.247 . S
C387 O399 1.242 . S
C387 O400 1.258 . S
C388 C384 1.503 . S
C388 C389 1.379 . S
C388 C393 1.392 . S
C389 C388 1.379 . S
C389 C390 1.404 . S
C389 H403 0.929 . S
C390 C389 1.404 . S
C390 C391 1.389 . S
C391 C390 1.389 . S
C391 C392 1.399 . S
C391 H404 0.931 . S
C392 C391 1.399 . S
C392 C393 1.390 . S
C393 C388 1.392 . S
C393 C392 1.390 . S
C393 H405 0.929 . S
O394 Tb378 2.326 . S
O394 C382 1.242 . S
O395 Eu379 2.324 . S
O395 C382 1.258 . S
O396 Tb378 2.500 1_545 S
O396 C398 1.273 . S
O397 Tb378 2.482 . S
O397 C398 1.247 1_565 S
C398 O396 1.273 . S
C398 O397 1.247 1_545 S
O399 Eu379 2.326 . S
O399 C387 1.242 . S
O400 Tb378 2.324 . S
O400 C387 1.258 . S
O401 Eu379 2.500 . S
O401 C384 1.273 . S
O402 Eu379 2.473 . S
O402 C384 1.257 . S
H403 C389 0.929 . S
H404 C391 0.931 . S
H405 C393 0.929 . S
O406 Tb407 2.292 . S
O406 C409 1.255 . S
Tb407 O406 2.292 . S
Tb407 O423 2.326 . S
Tb407 O425 2.500 . S
Tb407 O426 2.473 . S
Tb407 O429 2.324 . S
Eu408 O412 2.292 . S
Eu408 C413 2.852 . S
Eu408 O424 2.324 . S
Eu408 O428 2.326 . S
Eu408 O430 2.500 . S
Eu408 O431 2.473 . S
C409 O406 1.255 . S
C409 O410 1.247 . S
O410 C409 1.247 . S
C411 O423 1.242 . S
C411 O424 1.258 . S
O412 Eu408 2.292 . S
O412 C414 1.255 . S
C413 Eu408 2.852 . S
C413 C417 1.503 . S
C413 O430 1.273 . S
C413 O431 1.257 . S
C414 O412 1.255 . S
C414 O415 1.247 . S
O415 C414 1.247 . S
C416 O428 1.242 . S
C416 O429 1.258 . S
C417 C413 1.503 . S
C417 C418 1.379 . S
C417 C422 1.392 . S
C418 C417 1.379 . S
C418 C419 1.404 . S
C418 H432 0.929 . S
C419 C418 1.404 . S
C419 C420 1.389 . S
C420 C419 1.389 . S
C420 C421 1.399 . S
C420 H433 0.931 . S
C421 C420 1.399 . S
C421 C422 1.390 . S
C422 C417 1.392 . S
C422 C421 1.390 . S
C422 H434 0.929 . S
O423 Tb407 2.326 . S
O423 C411 1.242 . S
O424 Eu408 2.324 . S
O424 C411 1.258 . S
O425 Tb407 2.500 . S
O425 C427 1.273 . S
O426 Tb407 2.473 . S
O426 C427 1.257 . S
C427 O425 1.273 . S
C427 O426 1.257 . S
O428 Eu408 2.326 . S
O428 C416 1.242 . S
O429 Tb407 2.324 . S
O429 C416 1.258 . S
O430 Eu408 2.500 . S
O430 C413 1.273 . S
O431 Eu408 2.473 . S
O431 C413 1.257 . S
H432 C418 0.929 . S
H433 C420 0.931 . S
H434 C422 0.929 . S
O435 Tb436 2.292 . S
O435 C438 1.255 . S
Tb436 O435 2.292 . S
Tb436 O452 2.326 . S
Tb436 O454 2.500 1_545 S
Tb436 O455 2.473 1_545 S
Tb436 O458 2.324 . S
Eu437 O441 2.292 . S
Eu437 C442 2.852 . S
Eu437 O453 2.324 . S
Eu437 O457 2.326 . S
Eu437 O459 2.500 . S
Eu437 O460 2.473 . S
C438 O435 1.255 . S
C438 O439 1.247 . S
O439 C438 1.247 . S
C440 O452 1.242 . S
C440 O453 1.258 . S
O441 Eu437 2.292 . S
O441 C443 1.255 . S
C442 Eu437 2.852 . S
C442 C446 1.503 . S
C442 O459 1.273 . S
C442 O460 1.257 . S
C443 O441 1.255 . S
C443 O444 1.247 . S
O444 C443 1.247 . S
C445 O457 1.242 . S
C445 O458 1.258 . S
C446 C442 1.503 . S
C446 C447 1.379 . S
C446 C451 1.392 . S
C447 C446 1.379 . S
C447 C448 1.404 . S
C447 H461 0.929 . S
C448 C447 1.404 . S
C448 C449 1.389 . S
C449 C448 1.389 . S
C449 C450 1.399 . S
C449 H462 0.931 . S
C450 C449 1.399 . S
C450 C451 1.390 . S
C451 C446 1.392 . S
C451 C450 1.390 . S
C451 H463 0.929 . S
O452 Tb436 2.326 . S
O452 C440 1.242 . S
O453 Eu437 2.324 . S
O453 C440 1.258 . S
O454 Tb436 2.500 1_565 S
O454 C456 1.273 . S
O455 Tb436 2.473 1_565 S
O455 C456 1.257 . S
C456 O454 1.273 . S
C456 O455 1.257 . S
O457 Eu437 2.326 . S
O457 C445 1.242 . S
O458 Tb436 2.324 . S
O458 C445 1.258 . S
O459 Eu437 2.500 . S
O459 C442 1.273 . S
O460 Eu437 2.473 . S
O460 C442 1.257 . S
H461 C447 0.929 . S
H462 C449 0.931 . S
H463 C451 0.929 . S
C464 C465 1.349 . S
C464 C466 1.327 . S
C464 H489 0.950 . S
C465 C464 1.349 . S
C465 C481 1.349 . S
C466 C464 1.327 . S
C466 C485 1.429 . S
C466 H490 0.950 . S
C467 C484 1.574 . S
C467 C486 1.368 . S
C467 H491 0.949 . S
H468 C472 0.949 . S
C469 C470 1.349 . S
C469 C471 1.327 . S
C469 H492 0.950 . S
C470 C469 1.349 . S
C470 C482 1.349 . S
C471 C469 1.327 . S
C471 C487 1.429 . S
C471 H493 0.950 . S
C472 H468 0.949 . S
C472 C480 1.574 . S
C472 C488 1.368 . S
H473 C481 0.950 . S
H474 C479 0.950 . S
H475 C480 0.949 . S
H476 C482 0.950 . S
H477 C483 0.950 . S
H478 C484 0.949 . S
C479 H474 0.950 . S
C479 C481 1.327 . S
C479 C485 1.429 . S
C480 C472 1.574 . S
C480 H475 0.949 . S
C480 C486 1.368 . S
C481 C465 1.349 . S
C481 H473 0.950 . S
C481 C479 1.327 . S
C482 C470 1.349 . S
C482 H476 0.950 . S
C482 C483 1.327 . S
C483 H477 0.950 . S
C483 C482 1.327 . S
C483 C487 1.429 . S
C484 C467 1.574 . S
C484 H478 0.949 . S
C484 C488 1.368 . S
C485 C466 1.429 . S
C485 C479 1.429 . S
C485 C486 1.523 . S
C486 C467 1.368 . S
C486 C480 1.368 . S
C486 C485 1.523 . S
C487 C471 1.429 . S
C487 C483 1.429 . S
C487 C488 1.523 . S
C488 C472 1.368 . S
C488 C484 1.368 . S
C488 C487 1.523 . S
H489 C464 0.950 . S
H490 C466 0.950 . S
H491 C467 0.949 . S
H492 C469 0.950 . S
H493 C471 0.950 . S
C494 C495 1.349 . S
C494 C496 1.327 . S
C494 H519 0.950 . S
C495 C494 1.349 . S
C495 C511 1.349 . S
C496 C494 1.327 . S
C496 C515 1.429 . S
C496 H520 0.950 . S
C497 C514 1.574 . S
C497 C516 1.368 . S
C497 H521 0.949 . S
H498 C502 0.949 . S
C499 C500 1.349 . S
C499 C501 1.327 . S
C499 H522 0.950 . S
C500 C499 1.349 . S
C500 C512 1.349 . S
C501 C499 1.327 . S
C501 C517 1.429 . S
C501 H523 0.950 . S
C502 H498 0.949 . S
C502 C510 1.574 . S
C502 C518 1.368 . S
H503 C511 0.950 . S
H504 C509 0.950 . S
H505 C510 0.949 . S
H506 C512 0.950 . S
H507 C513 0.950 . S
H508 C514 0.949 . S
C509 H504 0.950 . S
C509 C511 1.327 . S
C509 C515 1.429 . S
C510 C502 1.574 . S
C510 H505 0.949 . S
C510 C516 1.368 . S
C511 C495 1.349 . S
C511 H503 0.950 . S
C511 C509 1.327 . S
C512 C500 1.349 . S
C512 H506 0.950 . S
C512 C513 1.327 . S
C513 H507 0.950 . S
C513 C512 1.327 . S
C513 C517 1.429 . S
C514 C497 1.574 . S
C514 H508 0.949 . S
C514 C518 1.368 . S
C515 C496 1.429 . S
C515 C509 1.429 . S
C515 C516 1.523 . S
C516 C497 1.368 . S
C516 C510 1.368 . S
C516 C515 1.523 . S
C517 C501 1.429 . S
C517 C513 1.429 . S
C517 C518 1.523 . S
C518 C502 1.368 . S
C518 C514 1.368 . S
C518 C517 1.523 . S
H519 C494 0.950 . S
H520 C496 0.950 . S
H521 C497 0.949 . S
H522 C499 0.950 . S
H523 C501 0.950 . S
C524 C525 1.349 . S
C524 C526 1.327 . S
C524 H549 0.950 . S
C525 C524 1.349 . S
C525 C541 1.349 . S
C526 C524 1.327 . S
C526 C545 1.429 . S
C526 H550 0.950 . S
C527 C544 1.574 . S
C527 C546 1.368 . S
C527 H551 0.949 . S
H528 C532 0.949 . S
C529 C530 1.349 . S
C529 C531 1.327 . S
C529 H552 0.950 . S
C530 C529 1.349 . S
C530 C542 1.349 . S
C531 C529 1.327 . S
C531 C547 1.429 . S
C531 H553 0.950 . S
C532 H528 0.949 . S
C532 C540 1.574 . S
C532 C548 1.368 . S
H533 C541 0.950 . S
H534 C539 0.950 . S
H535 C540 0.949 . S
H536 C542 0.950 . S
H537 C543 0.950 . S
H538 C544 0.949 . S
C539 H534 0.950 . S
C539 C541 1.327 . S
C539 C545 1.429 . S
C540 C532 1.574 . S
C540 H535 0.949 . S
C540 C546 1.368 . S
C541 C525 1.349 . S
C541 H533 0.950 . S
C541 C539 1.327 . S
C542 C530 1.349 . S
C542 H536 0.950 . S
C542 C543 1.327 . S
C543 H537 0.950 . S
C543 C542 1.327 . S
C543 C547 1.429 . S
C544 C527 1.574 . S
C544 H538 0.949 . S
C544 C548 1.368 . S
C545 C526 1.429 . S
C545 C539 1.429 . S
C545 C546 1.523 . S
C546 C527 1.368 . S
C546 C540 1.368 . S
C546 C545 1.523 . S
C547 C531 1.429 . S
C547 C543 1.429 . S
C547 C548 1.523 . S
C548 C532 1.368 . S
C548 C544 1.368 . S
C548 C547 1.523 . S
H549 C524 0.950 . S
H550 C526 0.950 . S
H551 C527 0.949 . S
H552 C529 0.950 . S
H553 C531 0.950 . S
C554 C555 1.349 . S
C554 C556 1.327 . S
C554 H579 0.950 . S
C555 C554 1.349 . S
C555 C571 1.349 . S
C556 C554 1.327 . S
C556 C575 1.429 . S
C556 H580 0.950 . S
C557 C574 1.574 . S
C557 C576 1.368 . S
C557 H581 0.949 . S
H558 C562 0.949 . S
C559 C560 1.349 . S
C559 C561 1.327 . S
C559 H582 0.950 . S
C560 C559 1.349 . S
C560 C572 1.349 . S
C561 C559 1.327 . S
C561 C577 1.429 . S
C561 H583 0.950 . S
C562 H558 0.949 . S
C562 C570 1.574 . S
C562 C578 1.368 . S
H563 C571 0.950 . S
H564 C569 0.950 . S
H565 C570 0.949 . S
H566 C572 0.950 . S
H567 C573 0.950 . S
H568 C574 0.949 . S
C569 H564 0.950 . S
C569 C571 1.327 . S
C569 C575 1.429 . S
C570 C562 1.574 . S
C570 H565 0.949 . S
C570 C576 1.368 . S
C571 C555 1.349 . S
C571 H563 0.950 . S
C571 C569 1.327 . S
C572 C560 1.349 . S
C572 H566 0.950 . S
C572 C573 1.327 . S
C573 H567 0.950 . S
C573 C572 1.327 . S
C573 C577 1.429 . S
C574 C557 1.574 . S
C574 H568 0.949 . S
C574 C578 1.368 . S
C575 C556 1.429 . S
C575 C569 1.429 . S
C575 C576 1.523 . S
C576 C557 1.368 . S
C576 C570 1.368 . S
C576 C575 1.523 . S
C577 C561 1.429 . S
C577 C573 1.429 . S
C577 C578 1.523 1_655 S
C578 C562 1.368 . S
C578 C574 1.368 . S
C578 C577 1.523 1_455 S
H579 C554 0.950 . S
H580 C556 0.950 . S
H581 C557 0.949 . S
H582 C559 0.950 . S
H583 C561 0.950 . S
C584 C585 1.349 . S
C584 C586 1.327 . S
C584 H609 0.950 . S
C585 C584 1.349 . S
C585 C601 1.349 . S
C586 C584 1.327 . S
C586 C605 1.429 . S
C586 H610 0.950 . S
C587 C604 1.574 . S
C587 C606 1.368 . S
C587 H611 0.949 . S
H588 C592 0.949 . S
C589 C590 1.349 . S
C589 C591 1.327 . S
C589 H612 0.950 . S
C590 C589 1.349 . S
C590 C602 1.349 . S
C591 C589 1.327 . S
C591 C607 1.429 . S
C591 H613 0.950 . S
C592 H588 0.949 . S
C592 C600 1.574 . S
C592 C608 1.368 . S
H593 C601 0.950 . S
H594 C599 0.950 . S
H595 C600 0.949 . S
H596 C602 0.950 . S
H597 C603 0.950 . S
H598 C604 0.949 . S
C599 H594 0.950 . S
C599 C601 1.327 . S
C599 C605 1.429 . S
C600 C592 1.574 . S
C600 H595 0.949 . S
C600 C606 1.368 . S
C601 C585 1.349 . S
C601 H593 0.950 . S
C601 C599 1.327 . S
C602 C590 1.349 . S
C602 H596 0.950 . S
C602 C603 1.327 . S
C603 H597 0.950 . S
C603 C602 1.327 . S
C603 C607 1.429 . S
C604 C587 1.574 . S
C604 H598 0.949 . S
C604 C608 1.368 . S
C605 C586 1.429 . S
C605 C599 1.429 . S
C605 C606 1.523 . S
C606 C587 1.368 . S
C606 C600 1.368 . S
C606 C605 1.523 . S
C607 C591 1.429 . S
C607 C603 1.429 . S
C607 C608 1.523 . S
C608 C592 1.368 . S
C608 C604 1.368 . S
C608 C607 1.523 . S
H609 C584 0.950 . S
H610 C586 0.950 . S
H611 C587 0.949 . S
H612 C589 0.950 . S
H613 C591 0.950 . S
C614 C615 1.349 . S
C614 C616 1.327 . S
C614 H639 0.950 . S
C615 C614 1.349 . S
C615 C631 1.349 . S
C616 C614 1.327 . S
C616 C635 1.429 . S
C616 H640 0.950 . S
C617 C634 1.574 . S
C617 C636 1.368 . S
C617 H641 0.949 . S
H618 C622 0.949 . S
C619 C620 1.349 . S
C619 C621 1.327 . S
C619 H642 0.950 . S
C620 C619 1.349 . S
C620 C632 1.349 . S
C621 C619 1.327 . S
C621 C637 1.429 . S
C621 H643 0.950 . S
C622 H618 0.949 . S
C622 C630 1.574 . S
C622 C638 1.368 . S
H623 C631 0.950 . S
H624 C629 0.950 . S
H625 C630 0.949 . S
H626 C632 0.950 . S
H627 C633 0.950 . S
H628 C634 0.949 . S
C629 H624 0.950 . S
C629 C631 1.327 . S
C629 C635 1.429 . S
C630 C622 1.574 . S
C630 H625 0.949 . S
C630 C636 1.368 . S
C631 C615 1.349 . S
C631 H623 0.950 . S
C631 C629 1.327 . S
C632 C620 1.349 . S
C632 H626 0.950 . S
C632 C633 1.327 . S
C633 H627 0.950 . S
C633 C632 1.327 . S
C633 C637 1.429 . S
C634 C617 1.574 . S
C634 H628 0.949 . S
C634 C638 1.368 . S
C635 C616 1.429 . S
C635 C629 1.429 . S
C635 C636 1.523 . S
C636 C617 1.368 . S
C636 C630 1.368 . S
C636 C635 1.523 . S
C637 C621 1.429 . S
C637 C633 1.429 . S
C637 C638 1.523 . S
C638 C622 1.368 . S
C638 C634 1.368 . S
C638 C637 1.523 . S
H639 C614 0.950 . S
H640 C616 0.950 . S
H641 C617 0.949 . S
H642 C619 0.950 . S
H643 C621 0.950 . S
C644 C645 1.349 . S
C644 C646 1.327 . S
C644 H669 0.950 . S
C645 C644 1.349 . S
C645 C661 1.349 . S
C646 C644 1.327 . S
C646 C665 1.429 . S
C646 H670 0.950 . S
C647 C664 1.574 . S
C647 C666 1.368 . S
C647 H671 0.949 . S
H648 C652 0.949 . S
C649 C650 1.349 . S
C649 C651 1.327 . S
C649 H672 0.950 . S
C650 C649 1.349 . S
C650 C662 1.349 . S
C651 C649 1.327 . S
C651 C667 1.429 . S
C651 H673 0.950 . S
C652 H648 0.949 . S
C652 C660 1.574 . S
C652 C668 1.368 . S
H653 C661 0.950 . S
H654 C659 0.950 . S
H655 C660 0.949 . S
H656 C662 0.950 . S
H657 C663 0.950 . S
H658 C664 0.949 . S
C659 H654 0.950 . S
C659 C661 1.327 . S
C659 C665 1.429 . S
C660 C652 1.574 . S
C660 H655 0.949 . S
C660 C666 1.368 . S
C661 C645 1.349 . S
C661 H653 0.950 . S
C661 C659 1.327 . S
C662 C650 1.349 . S
C662 H656 0.950 . S
C662 C663 1.327 . S
C663 H657 0.950 . S
C663 C662 1.327 . S
C663 C667 1.429 . S
C664 C647 1.574 . S
C664 H658 0.949 . S
C664 C668 1.368 . S
C665 C646 1.429 . S
C665 C659 1.429 . S
C665 C666 1.523 . S
C666 C647 1.368 . S
C666 C660 1.368 . S
C666 C665 1.523 . S
C667 C651 1.429 . S
C667 C663 1.429 . S
C667 C668 1.523 . S
C668 C652 1.368 . S
C668 C664 1.368 . S
C668 C667 1.523 . S
H669 C644 0.950 . S
H670 C646 0.950 . S
H671 C647 0.949 . S
H672 C649 0.950 . S
H673 C651 0.950 . S
C674 C675 1.349 . S
C674 C676 1.327 . S
C674 H699 0.950 . S
C675 C674 1.349 . S
C675 C691 1.349 . S
C676 C674 1.327 . S
C676 C695 1.429 . S
C676 H700 0.950 . S
C677 C694 1.574 . S
C677 C696 1.368 . S
C677 H701 0.949 . S
H678 C682 0.949 . S
C679 C680 1.349 . S
C679 C681 1.327 . S
C679 H702 0.950 . S
C680 C679 1.349 . S
C680 C692 1.349 . S
C681 C679 1.327 . S
C681 C697 1.429 . S
C681 H703 0.950 . S
C682 H678 0.949 . S
C682 C690 1.574 . S
C682 C698 1.368 . S
H683 C691 0.950 . S
H684 C689 0.950 . S
H685 C690 0.949 . S
H686 C692 0.950 . S
H687 C693 0.950 . S
H688 C694 0.949 . S
C689 H684 0.950 . S
C689 C691 1.327 . S
C689 C695 1.429 . S
C690 C682 1.574 . S
C690 H685 0.949 . S
C690 C696 1.368 . S
C691 C675 1.349 . S
C691 H683 0.950 . S
C691 C689 1.327 . S
C692 C680 1.349 . S
C692 H686 0.950 . S
C692 C693 1.327 . S
C693 H687 0.950 . S
C693 C692 1.327 . S
C693 C697 1.429 . S
C694 C677 1.574 . S
C694 H688 0.949 . S
C694 C698 1.368 . S
C695 C676 1.429 . S
C695 C689 1.429 . S
C695 C696 1.523 . S
C696 C677 1.368 . S
C696 C690 1.368 . S
C696 C695 1.523 . S
C697 C681 1.429 . S
C697 C693 1.429 . S
C697 C698 1.523 1_455 S
C698 C682 1.368 . S
C698 C694 1.368 . S
C698 C697 1.523 1_655 S
H699 C674 0.950 . S
H700 C676 0.950 . S
H701 C677 0.949 . S
H702 C679 0.950 . S
H703 C681 0.950 . S
C704 C705 1.349 . S
C704 C706 1.327 . S
C704 H729 0.950 . S
C705 C704 1.349 . S
C705 C721 1.349 . S
C706 C704 1.327 . S
C706 C725 1.429 . S
C706 H730 0.950 . S
C707 C724 1.574 . S
C707 C726 1.368 . S
C707 H731 0.949 . S
H708 C712 0.949 . S
C709 C710 1.349 . S
C709 C711 1.327 . S
C709 H732 0.950 . S
C710 C709 1.349 . S
C710 C722 1.349 . S
C711 C709 1.327 . S
C711 C727 1.429 . S
C711 H733 0.950 . S
C712 H708 0.949 . S
C712 C720 1.574 . S
C712 C728 1.368 . S
H713 C721 0.950 . S
H714 C719 0.950 . S
H715 C720 0.949 . S
H716 C722 0.950 . S
H717 C723 0.950 . S
H718 C724 0.949 . S
C719 H714 0.950 . S
C719 C721 1.327 . S
C719 C725 1.429 . S
C720 C712 1.574 . S
C720 H715 0.949 . S
C720 C726 1.368 . S
C721 C705 1.349 . S
C721 H713 0.950 . S
C721 C719 1.327 . S
C722 C710 1.349 . S
C722 H716 0.950 . S
C722 C723 1.327 . S
C723 H717 0.950 . S
C723 C722 1.327 . S
C723 C727 1.429 . S
C724 C707 1.574 . S
C724 H718 0.949 . S
C724 C728 1.368 . S
C725 C706 1.429 . S
C725 C719 1.429 . S
C725 C726 1.523 . S
C726 C707 1.368 . S
C726 C720 1.368 . S
C726 C725 1.523 . S
C727 C711 1.429 . S
C727 C723 1.429 . S
C727 C728 1.523 . S
C728 C712 1.368 . S
C728 C724 1.368 . S
C728 C727 1.523 . S
H729 C704 0.950 . S
H730 C706 0.950 . S
H731 C707 0.949 . S
H732 C709 0.950 . S
H733 C711 0.950 . S
C734 C735 1.349 . S
C734 C736 1.327 . S
C734 H759 0.950 . S
C735 C734 1.349 . S
C735 C751 1.349 . S
C736 C734 1.327 . S
C736 C755 1.429 . S
C736 H760 0.950 . S
C737 C754 1.574 . S
C737 C756 1.368 1_565 S
C737 H761 0.949 1_655 S
H738 C742 0.949 . S
C739 C740 1.349 . S
C739 C741 1.327 . S
C739 H762 0.950 . S
C740 C739 1.349 . S
C740 C752 1.349 . S
C741 C739 1.327 . S
C741 C757 1.429 . S
C741 H763 0.950 . S
C742 H738 0.949 . S
C742 C750 1.574 . S
C742 C758 1.368 1_545 S
H743 C751 0.950 1_565 S
H744 C749 0.950 . S
H745 C750 0.949 . S
H746 C752 0.950 . S
H747 C753 0.950 1_545 S
H748 C754 0.949 . S
C749 H744 0.950 . S
C749 C751 1.327 1_565 S
C749 C755 1.429 1_565 S
C750 C742 1.574 . S
C750 H745 0.949 . S
C750 C756 1.368 . S
C751 C735 1.349 . S
C751 H743 0.950 1_545 S
C751 C749 1.327 1_545 S
C752 C740 1.349 . S
C752 H746 0.950 . S
C752 C753 1.327 . S
C753 H747 0.950 1_565 S
C753 C752 1.327 . S
C753 C757 1.429 . S
C754 C737 1.574 . S
C754 H748 0.949 . S
C754 C758 1.368 . S
C755 C736 1.429 . S
C755 C749 1.429 1_545 S
C755 C756 1.523 1_455 S
C756 C737 1.368 1_545 S
C756 C750 1.368 . S
C756 C755 1.523 1_655 S
C757 C741 1.429 . S
C757 C753 1.429 . S
C757 C758 1.523 . S
C758 C742 1.368 1_565 S
C758 C754 1.368 . S
C758 C757 1.523 . S
H759 C734 0.950 . S
H760 C736 0.950 . S
H761 C737 0.949 1_455 S
H762 C739 0.950 . S
H763 C741 0.950 . S
C764 C765 1.349 . S
C764 C766 1.327 . S
C764 H789 0.950 . S
C765 C764 1.349 . S
C765 C781 1.349 . S
C766 C764 1.327 . S
C766 C785 1.429 . S
C766 H790 0.950 . S
C767 C784 1.574 . S
C767 C786 1.368 . S
C767 H791 0.949 . S
H768 C772 0.949 . S
C769 C770 1.349 . S
C769 C771 1.327 . S
C769 H792 0.950 . S
C770 C769 1.349 . S
C770 C782 1.349 . S
C771 C769 1.327 . S
C771 C787 1.429 . S
C771 H793 0.950 . S
C772 H768 0.949 . S
C772 C780 1.574 . S
C772 C788 1.368 . S
H773 C781 0.950 . S
H774 C779 0.950 . S
H775 C780 0.949 . S
H776 C782 0.950 . S
H777 C783 0.950 . S
H778 C784 0.949 . S
C779 H774 0.950 . S
C779 C781 1.327 . S
C779 C785 1.429 . S
C780 C772 1.574 . S
C780 H775 0.949 . S
C780 C786 1.368 . S
C781 C765 1.349 . S
C781 H773 0.950 . S
C781 C779 1.327 . S
C782 C770 1.349 . S
C782 H776 0.950 . S
C782 C783 1.327 . S
C783 H777 0.950 . S
C783 C782 1.327 . S
C783 C787 1.429 . S
C784 C767 1.574 . S
C784 H778 0.949 . S
C784 C788 1.368 . S
C785 C766 1.429 . S
C785 C779 1.429 . S
C785 C786 1.523 . S
C786 C767 1.368 . S
C786 C780 1.368 . S
C786 C785 1.523 . S
C787 C771 1.429 . S
C787 C783 1.429 . S
C787 C788 1.523 . S
C788 C772 1.368 . S
C788 C784 1.368 . S
C788 C787 1.523 . S
H789 C764 0.950 . S
H790 C766 0.950 . S
H791 C767 0.949 . S
H792 C769 0.950 . S
H793 C771 0.950 . S
C794 C795 1.349 . S
C794 C796 1.327 . S
C794 H819 0.950 . S
C795 C794 1.349 . S
C795 C811 1.349 . S
C796 C794 1.327 . S
C796 C815 1.429 . S
C796 H820 0.950 . S
C797 C814 1.574 . S
C797 C816 1.368 . S
C797 H821 0.949 . S
H798 C802 0.949 . S
C799 C800 1.349 1_545 S
C799 C801 1.327 . S
C799 H822 0.950 . S
C800 C799 1.349 1_565 S
C800 C812 1.349 . S
C801 C799 1.327 . S
C801 C817 1.429 1_545 S
C801 H823 0.950 . S
C802 H798 0.949 . S
C802 C810 1.573 1_565 S
C802 C818 1.368 1_565 S
H803 C811 0.950 . S
H804 C809 0.950 . S
H805 C810 0.948 1_565 S
H806 C812 0.950 . S
H807 C813 0.950 . S
H808 C814 0.949 . S
C809 H804 0.950 . S
C809 C811 1.327 . S
C809 C815 1.429 . S
C810 C802 1.573 1_545 S
C810 H805 0.948 1_545 S
C810 C816 1.370 . S
C811 C795 1.349 . S
C811 H803 0.950 . S
C811 C809 1.327 . S
C812 C800 1.349 . S
C812 H806 0.950 . S
C812 C813 1.327 . S
C813 H807 0.950 . S
C813 C812 1.327 . S
C813 C817 1.427 . S
C814 C797 1.574 . S
C814 H808 0.949 . S
C814 C818 1.368 . S
C815 C796 1.429 . S
C815 C809 1.429 . S
C815 C816 1.523 . S
C816 C797 1.368 . S
C816 C810 1.370 . S
C816 C815 1.523 . S
C817 C801 1.429 1_565 S
C817 C813 1.427 . S
C817 C818 1.523 1_565 S
C818 C802 1.368 1_545 S
C818 C814 1.368 . S
C818 C817 1.523 1_545 S
H819 C794 0.950 . S
H820 C796 0.950 . S
H821 C797 0.949 . S
H822 C799 0.950 . S
H823 C801 0.950 . S
C824 C825 1.349 . S
C824 C826 1.327 . S
C824 H849 0.950 . S
C825 C824 1.349 . S
C825 C841 1.349 . S
C826 C824 1.327 . S
C826 C845 1.429 . S
C826 H850 0.950 . S
C827 C844 1.574 . S
C827 C846 1.368 . S
C827 H851 0.949 . S
H828 C832 0.949 . S
C829 C830 1.349 . S
C829 C831 1.327 . S
C829 H852 0.950 . S
C830 C829 1.349 . S
C830 C842 1.349 . S
C831 C829 1.327 . S
C831 C847 1.429 . S
C831 H853 0.950 . S
C832 H828 0.949 . S
C832 C840 1.574 . S
C832 C848 1.368 . S
H833 C841 0.950 . S
H834 C839 0.950 . S
H835 C840 0.949 . S
H836 C842 0.950 . S
H837 C843 0.950 . S
H838 C844 0.949 . S
C839 H834 0.950 . S
C839 C841 1.327 . S
C839 C845 1.429 . S
C840 C832 1.574 . S
C840 H835 0.949 . S
C840 C846 1.368 . S
C841 C825 1.349 . S
C841 H833 0.950 . S
C841 C839 1.327 . S
C842 C830 1.349 . S
C842 H836 0.950 . S
C842 C843 1.327 . S
C843 H837 0.950 . S
C843 C842 1.327 . S
C843 C847 1.429 . S
C844 C827 1.574 . S
C844 H838 0.949 . S
C844 C848 1.368 . S
C845 C826 1.429 . S
C845 C839 1.429 . S
C845 C846 1.523 . S
C846 C827 1.368 . S
C846 C840 1.368 . S
C846 C845 1.523 . S
C847 C831 1.429 . S
C847 C843 1.429 . S
C847 C848 1.523 . S
C848 C832 1.368 . S
C848 C844 1.368 . S
C848 C847 1.523 . S
H849 C824 0.950 . S
H850 C826 0.950 . S
H851 C827 0.949 . S
H852 C829 0.950 . S
H853 C831 0.950 . S
C854 C855 1.349 . S
C854 C856 1.327 1_565 S
C854 H879 0.950 1_565 S
C855 C854 1.349 . S
C855 C871 1.349 . S
C856 C854 1.327 1_545 S
C856 C875 1.429 1_545 S
C856 H880 0.950 . S
C857 C874 1.574 . S
C857 C876 1.349 1_565 S
C857 H881 0.949 . S
H858 C862 0.949 . S
C859 C860 1.349 . S
C859 C861 1.327 . S
C859 H882 0.950 . S
C860 C859 1.349 . S
C860 C872 1.349 . S
C861 C859 1.327 . S
C861 C877 1.429 . S
C861 H883 0.950 . S
C862 H858 0.949 . S
C862 C870 1.574 . S
C862 C878 1.368 . S
H863 C871 0.950 . S
H864 C869 0.950 . S
H865 C870 0.949 . S
H866 C872 0.950 . S
H867 C873 0.950 . S
H868 C874 0.949 . S
C869 H864 0.950 . S
C869 C871 1.327 . S
C869 C875 1.429 . S
C870 C862 1.574 . S
C870 H865 0.949 . S
C870 C876 1.397 . S
C871 C855 1.349 . S
C871 H863 0.950 . S
C871 C869 1.327 . S
C872 C860 1.349 . S
C872 H866 0.950 . S
C872 C873 1.327 . S
C873 H867 0.950 . S
C873 C872 1.327 . S
C873 C877 1.429 . S
C874 C857 1.574 . S
C874 H868 0.949 . S
C874 C878 1.368 1_565 S
C875 C856 1.429 1_565 S
C875 C869 1.429 . S
C875 C876 1.511 1_665 S
C876 C857 1.349 1_545 S
C876 C870 1.397 . S
C876 C875 1.511 1_445 S
C877 C861 1.429 . S
C877 C873 1.429 . S
C877 C878 1.523 . S
C878 C862 1.368 . S
C878 C874 1.368 1_545 S
C878 C877 1.523 . S
H879 C854 0.950 1_545 S
H880 C856 0.950 . S
H881 C857 0.949 . S
H882 C859 0.950 . S
H883 C861 0.950 . S
C884 C885 1.349 . S
C884 C886 1.327 . S
C884 H909 0.950 . S
C885 C884 1.349 . S
C885 C901 1.349 . S
C886 C884 1.327 . S
C886 C905 1.429 . S
C886 H910 0.950 . S
C887 C904 1.574 . S
C887 C906 1.368 . S
C887 H911 0.949 . S
H888 C892 0.949 . S
C889 C890 1.349 . S
C889 C891 1.327 . S
C889 H912 0.950 . S
C890 C889 1.349 . S
C890 C902 1.349 . S
C891 C889 1.327 . S
C891 C907 1.429 . S
C891 H913 0.950 . S
C892 H888 0.949 . S
C892 C900 1.574 . S
C892 C908 1.368 . S
H893 C901 0.950 . S
H894 C899 0.950 . S
H895 C900 0.949 . S
H896 C902 0.950 . S
H897 C903 0.950 . S
H898 C904 0.949 . S
C899 H894 0.950 . S
C899 C901 1.327 . S
C899 C905 1.429 . S
C900 C892 1.574 . S
C900 H895 0.949 . S
C900 C906 1.368 . S
C901 C885 1.349 . S
C901 H893 0.950 . S
C901 C899 1.327 . S
C902 C890 1.349 . S
C902 H896 0.950 . S
C902 C903 1.327 . S
C903 H897 0.950 . S
C903 C902 1.327 . S
C903 C907 1.429 . S
C904 C887 1.574 . S
C904 H898 0.949 . S
C904 C908 1.368 . S
C905 C886 1.429 . S
C905 C899 1.429 . S
C905 C906 1.523 . S
C906 C887 1.368 . S
C906 C900 1.368 . S
C906 C905 1.523 . S
C907 C891 1.429 . S
C907 C903 1.429 . S
C907 C908 1.523 . S
C908 C892 1.368 . S
C908 C904 1.368 . S
C908 C907 1.523 . S
H909 C884 0.950 . S
H910 C886 0.950 . S
H911 C887 0.949 . S
H912 C889 0.950 . S
H913 C891 0.950 . S
C914 C915 1.349 . S
C914 C916 1.327 . S
C914 H939 0.950 . S
C915 C914 1.349 . S
C915 C931 1.349 . S
C916 C914 1.327 . S
C916 C935 1.429 . S
C916 H940 0.950 1_565 S
C917 C934 1.574 . S
C917 C936 1.368 . S
C917 H941 0.949 . S
H918 C922 0.949 . S
C919 C920 1.349 1_565 S
C919 C921 1.327 . S
C919 H942 0.950 . S
C920 C919 1.349 1_545 S
C920 C932 1.349 . S
C921 C919 1.327 . S
C921 C937 1.429 1_565 S
C921 H943 0.950 . S
C922 H918 0.949 . S
C922 C930 1.574 . S
C922 C938 1.368 1_545 S
H923 C931 0.950 . S
H924 C929 0.950 . S
H925 C930 0.949 . S
H926 C932 0.950 . S
H927 C933 0.950 . S
H928 C934 0.949 . S
C929 H924 0.950 . S
C929 C931 1.327 . S
C929 C935 1.429 . S
C930 C922 1.574 . S
C930 H925 0.949 . S
C930 C936 1.368 1_545 S
C931 C915 1.349 . S
C931 H923 0.950 . S
C931 C929 1.327 . S
C932 C920 1.349 . S
C932 H926 0.950 . S
C932 C933 1.327 . S
C933 H927 0.950 . S
C933 C932 1.327 . S
C933 C937 1.429 . S
C934 C917 1.574 . S
C934 H928 0.949 . S
C934 C938 1.368 . S
C935 C916 1.429 . S
C935 C929 1.429 . S
C935 C936 1.523 . S
C936 C917 1.368 . S
C936 C930 1.368 1_565 S
C936 C935 1.523 . S
C937 C921 1.429 1_545 S
C937 C933 1.429 . S
C937 C938 1.523 1_545 S
C938 C922 1.368 1_565 S
C938 C934 1.368 . S
C938 C937 1.523 1_565 S
H939 C914 0.950 . S
H940 C916 0.950 1_545 S
H941 C917 0.949 . S
H942 C919 0.950 . S
H943 C921 0.950 . S
C944 C945 1.349 . S
C944 C946 1.327 . S
C944 H969 0.950 . S
C945 C944 1.349 . S
C945 C961 1.349 . S
C946 C944 1.327 . S
C946 C965 1.429 . S
C946 H970 0.950 . S
C947 C964 1.574 . S
C947 C966 1.368 . S
C947 H971 0.949 . S
H948 C952 0.949 . S
C949 C950 1.349 . S
C949 C951 1.327 . S
C949 H972 0.950 . S
C950 C949 1.349 . S
C950 C962 1.349 . S
C951 C949 1.327 . S
C951 C967 1.429 . S
C951 H973 0.950 . S
C952 H948 0.949 . S
C952 C960 1.574 . S
C952 C968 1.351 1_556 S
H953 C961 0.950 . S
H954 C959 0.950 . S
H955 C960 0.949 . S
H956 C962 0.950 . S
H957 C963 0.950 . S
H958 C964 0.949 1_554 S
C959 H954 0.950 . S
C959 C961 1.327 . S
C959 C965 1.429 . S
C960 C952 1.574 . S
C960 H955 0.949 . S
C960 C966 1.368 . S
C961 C945 1.349 . S
C961 H953 0.950 . S
C961 C959 1.327 . S
C962 C950 1.349 . S
C962 H956 0.950 . S
C962 C963 1.327 . S
C963 H957 0.950 . S
C963 C962 1.327 . S
C963 C967 1.429 . S
C964 C947 1.574 . S
C964 H958 0.949 1_556 S
C964 C968 1.356 1_556 S
C965 C946 1.429 . S
C965 C959 1.429 . S
C965 C966 1.523 . S
C966 C947 1.368 . S
C966 C960 1.368 . S
C966 C965 1.523 . S
C967 C951 1.429 . S
C967 C963 1.429 . S
C967 C968 1.563 . S
C968 C952 1.351 1_554 S
C968 C964 1.356 1_554 S
C968 C967 1.563 . S
H969 C944 0.950 . S
H970 C946 0.950 . S
H971 C947 0.949 . S
H972 C949 0.950 . S
H973 C951 0.950 . S
C974 C975 1.349 . S
C974 C976 1.327 . S
C974 H999 0.950 . S
C975 C974 1.349 . S
C975 C991 1.349 . S
C976 C974 1.327 . S
C976 C995 1.429 . S
C976 H1000 0.950 . S
C977 C994 1.574 . S
C977 C996 1.368 . S
C977 H1001 0.949 . S
H978 C982 0.949 . S
C979 C980 1.349 . S
C979 C981 1.327 . S
C979 H1002 0.950 . S
C980 C979 1.349 . S
C980 C992 1.349 . S
C981 C979 1.327 . S
C981 C997 1.429 . S
C981 H1003 0.950 . S
C982 H978 0.949 . S
C982 C990 1.574 . S
C982 C998 1.368 . S
H983 C991 0.950 . S
H984 C989 0.950 . S
H985 C990 0.949 . S
H986 C992 0.950 . S
H987 C993 0.950 . S
H988 C994 0.949 . S
C989 H984 0.950 . S
C989 C991 1.327 . S
C989 C995 1.429 . S
C990 C982 1.574 . S
C990 H985 0.949 . S
C990 C996 1.368 . S
C991 C975 1.349 . S
C991 H983 0.950 . S
C991 C989 1.327 . S
C992 C980 1.349 . S
C992 H986 0.950 . S
C992 C993 1.327 . S
C993 H987 0.950 . S
C993 C992 1.327 . S
C993 C997 1.429 . S
C994 C977 1.574 . S
C994 H988 0.949 . S
C994 C998 1.368 . S
C995 C976 1.429 . S
C995 C989 1.429 . S
C995 C996 1.523 . S
C996 C977 1.368 . S
C996 C990 1.368 . S
C996 C995 1.523 . S
C997 C981 1.429 . S
C997 C993 1.429 . S
C997 C998 1.523 . S
C998 C982 1.368 . S
C998 C994 1.368 . S
C998 C997 1.523 . S
H999 C974 0.950 . S
H1000 C976 0.950 . S
H1001 C977 0.949 . S
H1002 C979 0.950 . S
H1003 C981 0.950 . S
C1004 C1005 1.349 . S
C1004 C1006 1.327 . S
C1004 H1029 0.950 . S
C1005 C1004 1.349 . S
C1005 C1021 1.349 . S
C1006 C1004 1.327 . S
C1006 C1025 1.429 . S
C1006 H1030 0.950 . S
C1007 C1024 1.574 . S
C1007 C1026 1.368 . S
C1007 H1031 0.949 . S
H1008 C1012 0.949 . S
C1009 C1010 1.349 . S
C1009 C1011 1.327 . S
C1009 H1032 0.950 . S
C1010 C1009 1.349 . S
C1010 C1022 1.349 . S
C1011 C1009 1.327 . S
C1011 C1027 1.429 . S
C1011 H1033 0.950 . S
C1012 H1008 0.949 . S
C1012 C1020 1.574 . S
C1012 C1028 1.368 . S
H1013 C1021 0.950 . S
H1014 C1019 0.950 . S
H1015 C1020 0.949 . S
H1016 C1022 0.950 . S
H1017 C1023 0.950 . S
H1018 C1024 0.949 . S
C1019 H1014 0.950 . S
C1019 C1021 1.327 . S
C1019 C1025 1.429 . S
C1020 C1012 1.574 . S
C1020 H1015 0.949 . S
C1020 C1026 1.368 . S
C1021 C1005 1.349 . S
C1021 H1013 0.950 . S
C1021 C1019 1.327 . S
C1022 C1010 1.349 . S
C1022 H1016 0.950 . S
C1022 C1023 1.327 . S
C1023 H1017 0.950 . S
C1023 C1022 1.327 . S
C1023 C1027 1.429 . S
C1024 C1007 1.574 . S
C1024 H1018 0.949 . S
C1024 C1028 1.368 . S
C1025 C1006 1.429 . S
C1025 C1019 1.429 . S
C1025 C1026 1.523 . S
C1026 C1007 1.368 . S
C1026 C1020 1.368 . S
C1026 C1025 1.523 . S
C1027 C1011 1.429 . S
C1027 C1023 1.429 . S
C1027 C1028 1.523 . S
C1028 C1012 1.368 . S
C1028 C1024 1.368 . S
C1028 C1027 1.523 . S
H1029 C1004 0.950 . S
H1030 C1006 0.950 . S
H1031 C1007 0.949 . S
H1032 C1009 0.950 . S
H1033 C1011 0.950 . S
C1034 C1035 1.349 . S
C1034 C1036 1.327 . S
C1034 H1059 0.950 . S
C1035 C1034 1.349 . S
C1035 C1051 1.349 . S
C1036 C1034 1.327 . S
C1036 C1055 1.429 . S
C1036 H1060 0.950 . S
C1037 C1054 1.574 . S
C1037 C1056 1.368 . S
C1037 H1061 0.949 . S
H1038 C1042 0.949 . S
C1039 C1040 1.349 . S
C1039 C1041 1.327 . S
C1039 H1062 0.950 . S
C1040 C1039 1.349 . S
C1040 C1052 1.349 . S
C1041 C1039 1.327 . S
C1041 C1057 1.429 . S
C1041 H1063 0.950 . S
C1042 H1038 0.949 . S
C1042 C1050 1.574 . S
C1042 C1058 1.368 . S
H1043 C1051 0.950 . S
H1044 C1049 0.950 . S
H1045 C1050 0.949 . S
H1046 C1052 0.950 . S
H1047 C1053 0.950 . S
H1048 C1054 0.949 . S
C1049 H1044 0.950 . S
C1049 C1051 1.327 . S
C1049 C1055 1.429 . S
C1050 C1042 1.574 . S
C1050 H1045 0.949 . S
C1050 C1056 1.368 . S
C1051 C1035 1.349 . S
C1051 H1043 0.950 . S
C1051 C1049 1.327 . S
C1052 C1040 1.349 . S
C1052 H1046 0.950 . S
C1052 C1053 1.327 . S
C1053 H1047 0.950 . S
C1053 C1052 1.327 . S
C1053 C1057 1.429 . S
C1054 C1037 1.574 . S
C1054 H1048 0.949 . S
C1054 C1058 1.368 . S
C1055 C1036 1.429 . S
C1055 C1049 1.429 . S
C1055 C1056 1.523 . S
C1056 C1037 1.368 . S
C1056 C1050 1.368 . S
C1056 C1055 1.523 . S
C1057 C1041 1.429 . S
C1057 C1053 1.429 . S
C1057 C1058 1.523 . S
C1058 C1042 1.368 . S
C1058 C1054 1.368 . S
C1058 C1057 1.523 . S
H1059 C1034 0.950 . S
H1060 C1036 0.950 . S
H1061 C1037 0.949 . S
H1062 C1039 0.950 . S
H1063 C1041 0.950 . S
C1064 C1065 1.349 . S
C1064 C1066 1.327 . S
C1064 H1089 0.950 . S
C1065 C1064 1.349 . S
C1065 C1081 1.349 . S
C1066 C1064 1.327 . S
C1066 C1085 1.429 . S
C1066 H1090 0.950 . S
C1067 C1084 1.574 . S
C1067 C1086 1.368 . S
C1067 H1091 0.949 . S
H1068 C1072 0.923 1_556 S
C1069 C1070 1.349 . S
C1069 C1071 1.327 . S
C1069 H1092 0.950 . S
C1070 C1069 1.349 . S
C1070 C1082 1.349 . S
C1071 C1069 1.327 . S
C1071 C1087 1.429 . S
C1071 H1093 0.950 . S
C1072 H1068 0.923 1_554 S
C1072 C1080 1.574 . S
C1072 C1088 1.368 . S
H1073 C1081 0.950 . S
H1074 C1079 0.950 . S
H1075 C1080 0.949 . S
H1076 C1082 0.950 . S
H1077 C1083 0.950 . S
H1078 C1084 0.949 . S
C1079 H1074 0.950 . S
C1079 C1081 1.327 . S
C1079 C1085 1.429 . S
C1080 C1072 1.574 . S
C1080 H1075 0.949 . S
C1080 C1086 1.368 . S
C1081 C1065 1.349 . S
C1081 H1073 0.950 . S
C1081 C1079 1.327 . S
C1082 C1070 1.349 . S
C1082 H1076 0.950 . S
C1082 C1083 1.327 . S
C1083 H1077 0.950 . S
C1083 C1082 1.327 . S
C1083 C1087 1.429 . S
C1084 C1067 1.574 . S
C1084 H1078 0.949 . S
C1084 C1088 1.368 . S
C1085 C1066 1.429 . S
C1085 C1079 1.429 . S
C1085 C1086 1.523 . S
C1086 C1067 1.368 . S
C1086 C1080 1.368 . S
C1086 C1085 1.523 . S
C1087 C1071 1.429 . S
C1087 C1083 1.429 . S
C1087 C1088 1.523 1_556 S
C1088 C1072 1.368 . S
C1088 C1084 1.368 . S
C1088 C1087 1.523 1_554 S
H1089 C1064 0.950 . S
H1090 C1066 0.950 . S
H1091 C1067 0.949 . S
H1092 C1069 0.950 . S
H1093 C1071 0.950 . S
C1094 C1095 1.349 . S
C1094 C1096 1.327 . S
C1094 H1119 0.950 . S
C1095 C1094 1.349 . S
C1095 C1111 1.349 . S
C1096 C1094 1.327 . S
C1096 C1115 1.429 . S
C1096 H1120 0.950 . S
C1097 C1114 1.574 . S
C1097 C1116 1.368 . S
C1097 H1121 0.949 . S
H1098 C1102 0.949 . S
C1099 C1100 1.349 . S
C1099 C1101 1.327 . S
C1099 H1122 0.950 . S
C1100 C1099 1.349 . S
C1100 C1112 1.349 . S
C1101 C1099 1.327 . S
C1101 C1117 1.429 . S
C1101 H1123 0.950 . S
C1102 H1098 0.949 . S
C1102 C1110 1.574 . S
C1102 C1118 1.368 . S
H1103 C1111 0.950 . S
H1104 C1109 0.950 . S
H1105 C1110 0.949 . S
H1106 C1112 0.950 . S
H1107 C1113 0.950 . S
H1108 C1114 0.949 . S
C1109 H1104 0.950 . S
C1109 C1111 1.327 . S
C1109 C1115 1.429 . S
C1110 C1102 1.574 . S
C1110 H1105 0.949 . S
C1110 C1116 1.368 . S
C1111 C1095 1.349 . S
C1111 H1103 0.950 . S
C1111 C1109 1.327 . S
C1112 C1100 1.349 . S
C1112 H1106 0.950 . S
C1112 C1113 1.327 . S
C1113 H1107 0.950 . S
C1113 C1112 1.327 . S
C1113 C1117 1.429 . S
C1114 C1097 1.574 . S
C1114 H1108 0.949 . S
C1114 C1118 1.368 . S
C1115 C1096 1.429 . S
C1115 C1109 1.429 . S
C1115 C1116 1.523 . S
C1116 C1097 1.368 . S
C1116 C1110 1.368 . S
C1116 C1115 1.523 . S
C1117 C1101 1.429 . S
C1117 C1113 1.429 . S
C1117 C1118 1.523 . S
C1118 C1102 1.368 . S
C1118 C1114 1.368 . S
C1118 C1117 1.523 . S
H1119 C1094 0.950 . S
H1120 C1096 0.950 . S
H1121 C1097 0.949 . S
H1122 C1099 0.950 . S
H1123 C1101 0.950 . S
C1124 C1125 1.349 . S
C1124 C1126 1.327 . S
C1124 H1149 0.950 . S
C1125 C1124 1.349 . S
C1125 C1141 1.349 . S
C1126 C1124 1.327 . S
C1126 C1145 1.429 . S
C1126 H1150 0.950 . S
C1127 C1144 1.574 . S
C1127 C1146 1.368 . S
C1127 H1151 0.949 . S
H1128 C1132 0.949 . S
C1129 C1130 1.349 . S
C1129 C1131 1.327 . S
C1129 H1152 0.950 . S
C1130 C1129 1.349 . S
C1130 C1142 1.349 . S
C1131 C1129 1.327 . S
C1131 C1147 1.429 . S
C1131 H1153 0.950 . S
C1132 H1128 0.949 . S
C1132 C1140 1.574 . S
C1132 C1148 1.368 . S
H1133 C1141 0.950 . S
H1134 C1139 0.950 . S
H1135 C1140 0.949 . S
H1136 C1142 0.950 . S
H1137 C1143 0.950 . S
H1138 C1144 0.949 . S
C1139 H1134 0.950 . S
C1139 C1141 1.327 . S
C1139 C1145 1.429 . S
C1140 C1132 1.574 . S
C1140 H1135 0.949 . S
C1140 C1146 1.368 . S
C1141 C1125 1.349 . S
C1141 H1133 0.950 . S
C1141 C1139 1.327 . S
C1142 C1130 1.349 . S
C1142 H1136 0.950 . S
C1142 C1143 1.327 . S
C1143 H1137 0.950 . S
C1143 C1142 1.327 . S
C1143 C1147 1.429 . S
C1144 C1127 1.574 . S
C1144 H1138 0.949 . S
C1144 C1148 1.368 . S
C1145 C1126 1.429 . S
C1145 C1139 1.429 . S
C1145 C1146 1.523 . S
C1146 C1127 1.368 . S
C1146 C1140 1.368 . S
C1146 C1145 1.523 . S
C1147 C1131 1.429 . S
C1147 C1143 1.429 . S
C1147 C1148 1.523 . S
C1148 C1132 1.368 . S
C1148 C1144 1.368 . S
C1148 C1147 1.523 . S
H1149 C1124 0.950 . S
H1150 C1126 0.950 . S
H1151 C1127 0.949 . S
H1152 C1129 0.950 . S
H1153 C1131 0.950 . S
C1154 C1155 1.349 . S
C1154 C1156 1.327 . S
C1154 H1179 0.950 . S
C1155 C1154 1.349 . S
C1155 C1171 1.349 . S
C1156 C1154 1.327 . S
C1156 C1175 1.429 . S
C1156 H1180 0.950 . S
C1157 C1174 1.574 . S
C1157 C1176 1.368 . S
C1157 H1181 0.949 . S
H1158 C1162 0.949 . S
C1159 C1160 1.349 . S
C1159 C1161 1.327 . S
C1159 H1182 0.950 . S
C1160 C1159 1.349 . S
C1160 C1172 1.349 . S
C1161 C1159 1.327 . S
C1161 C1177 1.429 . S
C1161 H1183 0.950 . S
C1162 H1158 0.949 . S
C1162 C1170 1.574 . S
C1162 C1178 1.368 . S
H1163 C1171 0.950 . S
H1164 C1169 0.950 . S
H1165 C1170 0.949 . S
H1166 C1172 0.950 . S
H1167 C1173 0.950 . S
H1168 C1174 0.949 . S
C1169 H1164 0.950 . S
C1169 C1171 1.327 . S
C1169 C1175 1.429 . S
C1170 C1162 1.574 . S
C1170 H1165 0.949 . S
C1170 C1176 1.368 . S
C1171 C1155 1.349 . S
C1171 H1163 0.950 . S
C1171 C1169 1.327 . S
C1172 C1160 1.349 . S
C1172 H1166 0.950 . S
C1172 C1173 1.327 . S
C1173 H1167 0.950 . S
C1173 C1172 1.327 . S
C1173 C1177 1.429 . S
C1174 C1157 1.574 . S
C1174 H1168 0.949 . S
C1174 C1178 1.368 . S
C1175 C1156 1.429 . S
C1175 C1169 1.429 . S
C1175 C1176 1.523 . S
C1176 C1157 1.368 . S
C1176 C1170 1.368 . S
C1176 C1175 1.523 . S
C1177 C1161 1.429 . S
C1177 C1173 1.429 . S
C1177 C1178 1.523 . S
C1178 C1162 1.368 . S
C1178 C1174 1.368 . S
C1178 C1177 1.523 . S
H1179 C1154 0.950 . S
H1180 C1156 0.950 . S
H1181 C1157 0.949 . S
H1182 C1159 0.950 . S
H1183 C1161 0.950 . S
C1184 C1185 1.349 . S
C1184 C1186 1.327 . S
C1184 H1209 0.950 . S
C1185 C1184 1.349 . S
C1185 C1201 1.349 . S
C1186 C1184 1.327 . S
C1186 C1205 1.429 . S
C1186 H1210 0.950 . S
C1187 C1204 1.574 . S
C1187 C1206 1.368 . S
C1187 H1211 0.949 . S
H1188 C1192 0.949 . S
C1189 C1190 1.349 . S
C1189 C1191 1.327 . S
C1189 H1212 0.950 . S
C1190 C1189 1.349 . S
C1190 C1202 1.349 . S
C1191 C1189 1.327 . S
C1191 C1207 1.429 . S
C1191 H1213 0.950 . S
C1192 H1188 0.949 . S
C1192 C1200 1.574 . S
C1192 C1208 1.368 . S
H1193 C1201 0.950 . S
H1194 C1199 0.950 . S
H1195 C1200 0.949 . S
H1196 C1202 0.950 . S
H1197 C1203 0.950 . S
H1198 C1204 0.949 . S
C1199 H1194 0.950 . S
C1199 C1201 1.327 . S
C1199 C1205 1.429 . S
C1200 C1192 1.574 . S
C1200 H1195 0.949 . S
C1200 C1206 1.368 . S
C1201 C1185 1.349 . S
C1201 H1193 0.950 . S
C1201 C1199 1.327 . S
C1202 C1190 1.349 . S
C1202 H1196 0.950 . S
C1202 C1203 1.327 . S
C1203 H1197 0.950 . S
C1203 C1202 1.327 . S
C1203 C1207 1.429 . S
C1204 C1187 1.574 . S
C1204 H1198 0.949 . S
C1204 C1208 1.368 . S
C1205 C1186 1.429 . S
C1205 C1199 1.429 . S
C1205 C1206 1.523 . S
C1206 C1187 1.368 . S
C1206 C1200 1.368 . S
C1206 C1205 1.523 . S
C1207 C1191 1.429 . S
C1207 C1203 1.429 . S
C1207 C1208 1.523 . S
C1208 C1192 1.368 . S
C1208 C1204 1.368 . S
C1208 C1207 1.523 . S
H1209 C1184 0.950 . S
H1210 C1186 0.950 . S
H1211 C1187 0.949 . S
H1212 C1189 0.950 . S
H1213 C1191 0.950 . S
C1214 C1215 1.349 . S
C1214 C1216 1.327 . S
C1214 H1239 0.950 . S
C1215 C1214 1.349 . S
C1215 C1231 1.349 . S
C1216 C1214 1.327 . S
C1216 C1235 1.429 . S
C1216 H1240 0.950 . S
C1217 C1234 1.574 . S
C1217 C1236 1.368 . S
C1217 H1241 0.949 . S
H1218 C1222 0.949 1_565 S
C1219 C1220 1.349 . S
C1219 C1221 1.327 . S
C1219 H1242 0.950 . S
C1220 C1219 1.349 . S
C1220 C1232 1.349 . S
C1221 C1219 1.327 . S
C1221 C1237 1.429 . S
C1221 H1243 0.950 . S
C1222 H1218 0.949 1_545 S
C1222 C1230 1.574 1_545 S
C1222 C1238 1.368 . S
H1223 C1231 0.950 1_545 S
H1224 C1229 0.950 . S
H1225 C1230 0.949 . S
H1226 C1232 0.950 . S
H1227 C1233 0.950 . S
H1228 C1234 0.949 . S
C1229 H1224 0.950 . S
C1229 C1231 1.327 1_545 S
C1229 C1235 1.429 1_545 S
C1230 C1222 1.574 1_565 S
C1230 H1225 0.949 . S
C1230 C1236 1.368 1_565 S
C1231 C1215 1.349 . S
C1231 H1223 0.950 1_565 S
C1231 C1229 1.327 1_565 S
C1232 C1220 1.349 . S
C1232 H1226 0.950 . S
C1232 C1233 1.327 . S
C1233 H1227 0.950 . S
C1233 C1232 1.327 . S
C1233 C1237 1.429 . S
C1234 C1217 1.574 . S
C1234 H1228 0.949 . S
C1234 C1238 1.368 . S
C1235 C1216 1.429 . S
C1235 C1229 1.429 1_565 S
C1235 C1236 1.523 1_565 S
C1236 C1217 1.368 . S
C1236 C1230 1.368 1_545 S
C1236 C1235 1.523 1_545 S
C1237 C1221 1.429 . S
C1237 C1233 1.429 . S
C1237 C1238 1.523 . S
C1238 C1222 1.368 . S
C1238 C1234 1.368 . S
C1238 C1237 1.523 . S
H1239 C1214 0.950 . S
H1240 C1216 0.950 . S
H1241 C1217 0.949 . S
H1242 C1219 0.950 . S
H1243 C1221 0.950 . S
C1244 C1245 1.349 . S
C1244 C1246 1.327 . S
C1244 H1269 0.950 . S
C1245 C1244 1.349 . S
C1245 C1261 1.349 . S
C1246 C1244 1.327 . S
C1246 C1265 1.429 . S
C1246 H1270 0.950 . S
C1247 C1264 1.574 . S
C1247 C1266 1.368 . S
C1247 H1271 0.949 . S
H1248 C1252 0.949 . S
C1249 C1250 1.349 . S
C1249 C1251 1.327 . S
C1249 H1272 0.950 . S
C1250 C1249 1.349 . S
C1250 C1262 1.349 . S
C1251 C1249 1.327 . S
C1251 C1267 1.429 . S
C1251 H1273 0.950 . S
C1252 H1248 0.949 . S
C1252 C1260 1.574 . S
C1252 C1268 1.368 . S
H1253 C1261 0.950 . S
H1254 C1259 0.950 . S
H1255 C1260 0.949 . S
H1256 C1262 0.950 . S
H1257 C1263 0.950 . S
H1258 C1264 0.957 . S
C1259 H1254 0.950 . S
C1259 C1261 1.327 . S
C1259 C1265 1.429 . S
C1260 C1252 1.574 . S
C1260 H1255 0.949 . S
C1260 C1266 1.368 . S
C1261 C1245 1.349 . S
C1261 H1253 0.950 . S
C1261 C1259 1.327 . S
C1262 C1250 1.349 . S
C1262 H1256 0.950 . S
C1262 C1263 1.327 . S
C1263 H1257 0.950 . S
C1263 C1262 1.327 . S
C1263 C1267 1.429 . S
C1264 C1247 1.574 . S
C1264 H1258 0.957 . S
C1264 C1268 1.368 . S
C1265 C1246 1.429 . S
C1265 C1259 1.429 . S
C1265 C1266 1.523 . S
C1266 C1247 1.368 . S
C1266 C1260 1.368 . S
C1266 C1265 1.523 . S
C1267 C1251 1.429 . S
C1267 C1263 1.429 . S
C1267 C1268 1.523 1_554 S
C1268 C1252 1.368 . S
C1268 C1264 1.368 . S
C1268 C1267 1.523 1_556 S
H1269 C1244 0.950 . S
H1270 C1246 0.950 . S
H1271 C1247 0.949 . S
H1272 C1249 0.950 . S
H1273 C1251 0.950 . S
C1274 C1275 1.349 . S
C1274 C1276 1.325 1_545 S
C1274 H1299 0.950 1_545 S
C1275 C1274 1.349 . S
C1275 C1291 1.349 . S
C1276 C1274 1.325 1_565 S
C1276 C1295 1.422 1_565 S
C1276 H1300 0.959 . S
C1277 C1294 1.574 . S
C1277 C1296 1.368 . S
C1277 H1301 0.949 . S
H1278 C1282 0.949 . S
C1279 C1280 1.349 1_545 S
C1279 C1281 1.327 . S
C1279 H1302 0.950 . S
C1280 C1279 1.349 1_565 S
C1280 C1292 1.349 . S
C1281 C1279 1.327 . S
C1281 C1297 1.429 1_545 S
C1281 H1303 0.950 . S
C1282 H1278 0.949 . S
C1282 C1290 1.574 . S
C1282 C1298 1.368 1_565 S
H1283 C1291 0.950 . S
H1284 C1289 0.950 . S
H1285 C1290 0.949 . S
H1286 C1292 0.950 . S
H1287 C1293 0.950 . S
H1288 C1294 0.949 . S
C1289 H1284 0.950 . S
C1289 C1291 1.327 . S
C1289 C1295 1.429 . S
C1290 C1282 1.574 . S
C1290 H1285 0.949 . S
C1290 C1296 1.368 1_565 S
C1291 C1275 1.349 . S
C1291 H1283 0.950 . S
C1291 C1289 1.327 . S
C1292 C1280 1.349 . S
C1292 H1286 0.950 . S
C1292 C1293 1.327 . S
C1293 H1287 0.950 . S
C1293 C1292 1.327 . S
C1293 C1297 1.429 . S
C1294 C1277 1.574 . S
C1294 H1288 0.949 . S
C1294 C1298 1.368 . S
C1295 C1276 1.422 1_545 S
C1295 C1289 1.429 . S
C1295 C1296 1.523 . S
C1296 C1277 1.368 . S
C1296 C1290 1.368 1_545 S
C1296 C1295 1.523 . S
C1297 C1281 1.429 1_565 S
C1297 C1293 1.429 . S
C1297 C1298 1.523 1_565 S
C1298 C1282 1.368 1_545 S
C1298 C1294 1.368 . S
C1298 C1297 1.523 1_545 S
H1299 C1274 0.950 1_565 S
H1300 C1276 0.959 . S
H1301 C1277 0.949 . S
H1302 C1279 0.950 . S
H1303 C1281 0.950 . S
C1304 C1305 1.349 . S
C1304 C1306 1.327 . S
C1304 H1329 0.950 . S
C1305 C1304 1.349 . S
C1305 C1321 1.349 . S
C1306 C1304 1.327 . S
C1306 C1325 1.429 . S
C1306 H1330 0.950 . S
C1307 C1324 1.574 . S
C1307 C1326 1.368 . S
C1307 H1331 0.949 . S
H1308 C1312 0.949 . S
C1309 C1310 1.349 . S
C1309 C1311 1.327 . S
C1309 H1332 0.950 . S
C1310 C1309 1.349 . S
C1310 C1322 1.349 . S
C1311 C1309 1.327 . S
C1311 C1327 1.429 . S
C1311 H1333 0.950 . S
C1312 H1308 0.949 . S
C1312 C1320 1.574 . S
C1312 C1328 1.368 . S
H1313 C1321 0.950 . S
H1314 C1319 0.950 . S
H1315 C1320 0.949 . S
H1316 C1322 0.950 . S
H1317 C1323 0.950 . S
H1318 C1324 0.949 . S
C1319 H1314 0.950 . S
C1319 C1321 1.327 . S
C1319 C1325 1.429 . S
C1320 C1312 1.574 . S
C1320 H1315 0.949 . S
C1320 C1326 1.368 . S
C1321 C1305 1.349 . S
C1321 H1313 0.950 . S
C1321 C1319 1.327 . S
C1322 C1310 1.349 . S
C1322 H1316 0.950 . S
C1322 C1323 1.327 . S
C1323 H1317 0.950 . S
C1323 C1322 1.327 . S
C1323 C1327 1.429 . S
C1324 C1307 1.574 . S
C1324 H1318 0.949 . S
C1324 C1328 1.368 . S
C1325 C1306 1.429 . S
C1325 C1319 1.429 . S
C1325 C1326 1.523 . S
C1326 C1307 1.368 . S
C1326 C1320 1.368 . S
C1326 C1325 1.523 . S
C1327 C1311 1.429 . S
C1327 C1323 1.429 . S
C1327 C1328 1.523 . S
C1328 C1312 1.368 . S
C1328 C1324 1.368 . S
C1328 C1327 1.523 . S
H1329 C1304 0.950 . S
H1330 C1306 0.950 . S
H1331 C1307 0.949 . S
H1332 C1309 0.950 . S
H1333 C1311 0.950 . S
C1334 C1335 1.349 . S
C1334 C1336 1.327 . S
C1334 H1359 0.950 . S
C1335 C1334 1.349 . S
C1335 C1351 1.349 1_545 S
C1336 C1334 1.327 . S
C1336 C1355 1.429 . S
C1336 H1360 0.950 . S
C1337 C1354 1.574 . S
C1337 C1356 1.368 . S
C1337 H1361 0.949 . S
H1338 C1342 0.949 . S
C1339 C1340 1.349 . S
C1339 C1341 1.327 . S
C1339 H1362 0.950 . S
C1340 C1339 1.349 . S
C1340 C1352 1.349 . S
C1341 C1339 1.327 . S
C1341 C1357 1.429 . S
C1341 H1363 0.950 . S
C1342 H1338 0.949 . S
C1342 C1350 1.574 . S
C1342 C1358 1.368 1_545 S
H1343 C1351 0.950 . S
H1344 C1349 0.950 . S
H1345 C1350 0.949 . S
H1346 C1352 0.969 . S
H1347 C1353 0.950 1_545 S
H1348 C1354 0.949 . S
C1349 H1344 0.950 . S
C1349 C1351 1.327 . S
C1349 C1355 1.429 1_565 S
C1350 C1342 1.574 . S
C1350 H1345 0.949 . S
C1350 C1356 1.368 1_545 S
C1351 C1335 1.349 1_565 S
C1351 H1343 0.950 . S
C1351 C1349 1.327 . S
C1352 C1340 1.349 . S
C1352 H1346 0.969 . S
C1352 C1353 1.327 . S
C1353 H1347 0.950 1_565 S
C1353 C1352 1.327 . S
C1353 C1357 1.429 . S
C1354 C1337 1.574 . S
C1354 H1348 0.949 . S
C1354 C1358 1.368 . S
C1355 C1336 1.429 . S
C1355 C1349 1.429 1_545 S
C1355 C1356 1.523 1_545 S
C1356 C1337 1.368 . S
C1356 C1350 1.368 1_565 S
C1356 C1355 1.523 1_565 S
C1357 C1341 1.429 . S
C1357 C1353 1.429 . S
C1357 C1358 1.523 . S
C1358 C1342 1.368 1_565 S
C1358 C1354 1.368 . S
C1358 C1357 1.523 . S
H1359 C1334 0.950 . S
H1360 C1336 0.950 . S
H1361 C1337 0.949 . S
H1362 C1339 0.950 . S
H1363 C1341 0.950 . S
C1364 C1365 1.349 . S
C1364 C1366 1.327 . S
C1364 H1389 0.950 . S
C1365 C1364 1.349 . S
C1365 C1381 1.349 . S
C1366 C1364 1.327 . S
C1366 C1385 1.429 . S
C1366 H1390 0.950 . S
C1367 C1384 1.574 . S
C1367 C1386 1.368 . S
C1367 H1391 0.949 . S
H1368 C1372 0.921 1_556 S
C1369 C1370 1.349 . S
C1369 C1371 1.327 . S
C1369 H1392 0.950 . S
C1370 C1369 1.349 . S
C1370 C1382 1.349 . S
C1371 C1369 1.327 . S
C1371 C1387 1.429 . S
C1371 H1393 0.950 . S
C1372 H1368 0.921 1_554 S
C1372 C1380 1.574 . S
C1372 C1388 1.368 . S
H1373 C1381 0.950 . S
H1374 C1379 0.950 . S
H1375 C1380 0.949 . S
H1376 C1382 0.950 . S
H1377 C1383 0.950 . S
H1378 C1384 0.949 . S
C1379 H1374 0.950 . S
C1379 C1381 1.327 . S
C1379 C1385 1.429 . S
C1380 C1372 1.574 . S
C1380 H1375 0.949 . S
C1380 C1386 1.368 . S
C1381 C1365 1.349 . S
C1381 H1373 0.950 . S
C1381 C1379 1.327 . S
C1382 C1370 1.349 . S
C1382 H1376 0.950 . S
C1382 C1383 1.327 . S
C1383 H1377 0.950 . S
C1383 C1382 1.327 . S
C1383 C1387 1.429 . S
C1384 C1367 1.574 . S
C1384 H1378 0.949 . S
C1384 C1388 1.368 . S
C1385 C1366 1.429 . S
C1385 C1379 1.429 . S
C1385 C1386 1.523 . S
C1386 C1367 1.368 . S
C1386 C1380 1.368 . S
C1386 C1385 1.523 . S
C1387 C1371 1.429 . S
C1387 C1383 1.429 . S
C1387 C1388 1.523 1_556 S
C1388 C1372 1.368 . S
C1388 C1384 1.368 . S
C1388 C1387 1.523 1_554 S
H1389 C1364 0.950 . S
H1390 C1366 0.950 . S
H1391 C1367 0.949 . S
H1392 C1369 0.950 . S
H1393 C1371 0.950 . S
C1394 C1395 1.349 . S
C1394 C1396 1.327 . S
C1394 H1419 0.945 1_545 S
C1395 C1394 1.349 . S
C1395 C1411 1.349 . S
C1396 C1394 1.327 . S
C1396 C1415 1.429 . S
C1396 H1420 0.950 1_545 S
C1397 C1414 1.574 . S
C1397 C1416 1.368 . S
C1397 H1421 0.949 . S
H1398 C1402 0.949 . S
C1399 C1400 1.349 1_545 S
C1399 C1401 1.327 . S
C1399 H1422 0.950 . S
C1400 C1399 1.349 1_565 S
C1400 C1412 1.349 . S
C1401 C1399 1.327 . S
C1401 C1417 1.429 1_545 S
C1401 H1423 0.950 . S
C1402 H1398 0.949 . S
C1402 C1410 1.574 . S
C1402 C1418 1.368 1_565 S
H1403 C1411 0.950 . S
H1404 C1409 0.950 . S
H1405 C1410 0.949 . S
H1406 C1412 0.950 . S
H1407 C1413 0.950 . S
H1408 C1414 0.949 . S
C1409 H1404 0.950 . S
C1409 C1411 1.327 . S
C1409 C1415 1.429 . S
C1410 C1402 1.574 . S
C1410 H1405 0.949 . S
C1410 C1416 1.368 1_565 S
C1411 C1395 1.349 . S
C1411 H1403 0.950 . S
C1411 C1409 1.327 . S
C1412 C1400 1.349 . S
C1412 H1406 0.950 . S
C1412 C1413 1.327 . S
C1413 H1407 0.950 . S
C1413 C1412 1.327 . S
C1413 C1417 1.429 . S
C1414 C1397 1.574 . S
C1414 H1408 0.949 . S
C1414 C1418 1.368 . S
C1415 C1396 1.429 . S
C1415 C1409 1.429 . S
C1415 C1416 1.523 . S
C1416 C1397 1.368 . S
C1416 C1410 1.368 1_545 S
C1416 C1415 1.523 . S
C1417 C1401 1.429 1_565 S
C1417 C1413 1.429 . S
C1417 C1418 1.523 1_565 S
C1418 C1402 1.368 1_545 S
C1418 C1414 1.368 . S
C1418 C1417 1.523 1_545 S
H1419 C1394 0.945 1_565 S
H1420 C1396 0.950 1_565 S
H1421 C1397 0.949 . S
H1422 C1399 0.950 . S
H1423 C1401 0.950 . S
C1424 C1425 1.349 . S
C1424 C1426 1.327 . S
C1424 H1449 0.950 . S
C1425 C1424 1.349 . S
C1425 C1441 1.349 . S
C1426 C1424 1.327 . S
C1426 C1445 1.429 . S
C1426 H1450 0.950 . S
C1427 C1444 1.574 . S
C1427 C1446 1.368 1_544 S
C1427 H1451 0.949 . S
H1428 C1432 0.949 1_565 S
C1429 C1430 1.349 . S
C1429 C1431 1.327 . S
C1429 H1452 0.950 . S
C1430 C1429 1.349 . S
C1430 C1442 1.349 . S
C1431 C1429 1.327 . S
C1431 C1447 1.429 . S
C1431 H1453 0.950 . S
C1432 H1428 0.949 1_545 S
C1432 C1440 1.574 1_544 S
C1432 C1448 1.368 . S
H1433 C1441 0.950 . S
H1434 C1439 0.950 1_545 S
H1435 C1440 0.949 . S
H1436 C1442 0.950 . S
H1437 C1443 0.950 . S
H1438 C1444 0.949 . S
C1439 H1434 0.950 1_565 S
C1439 C1441 1.327 . S
C1439 C1445 1.429 . S
C1440 C1432 1.574 1_566 S
C1440 H1435 0.949 . S
C1440 C1446 1.368 . S
C1441 C1425 1.349 . S
C1441 H1433 0.950 . S
C1441 C1439 1.327 . S
C1442 C1430 1.349 . S
C1442 H1436 0.950 . S
C1442 C1443 1.327 . S
C1443 H1437 0.950 . S
C1443 C1442 1.327 . S
C1443 C1447 1.429 . S
C1444 C1427 1.574 . S
C1444 H1438 0.949 . S
C1444 C1448 1.368 . S
C1445 C1426 1.429 . S
C1445 C1439 1.429 . S
C1445 C1446 1.523 . S
C1446 C1427 1.368 1_566 S
C1446 C1440 1.368 . S
C1446 C1445 1.523 . S
C1447 C1431 1.429 . S
C1447 C1443 1.429 . S
C1447 C1448 1.523 . S
C1448 C1432 1.368 . S
C1448 C1444 1.368 . S
C1448 C1447 1.523 . S
H1449 C1424 0.950 . S
H1450 C1426 0.950 . S
H1451 C1427 0.949 . S
H1452 C1429 0.950 . S
H1453 C1431 0.950 . S
C1454 C1455 1.349 . S
C1454 C1456 1.327 . S
C1454 H1479 0.950 . S
C1455 C1454 1.349 . S
C1455 C1471 1.349 . S
C1456 C1454 1.327 . S
C1456 C1475 1.429 . S
C1456 H1480 0.950 . S
C1457 C1474 1.574 . S
C1457 C1476 1.368 . S
C1457 H1481 0.949 . S
H1458 C1462 0.949 . S
C1459 C1460 1.349 . S
C1459 C1461 1.327 . S
C1459 H1482 0.950 . S
C1460 C1459 1.349 . S
C1460 C1472 1.349 . S
C1461 C1459 1.327 . S
C1461 C1477 1.429 . S
C1461 H1483 0.950 . S
C1462 H1458 0.949 . S
C1462 C1470 1.574 . S
C1462 C1478 1.368 . S
H1463 C1471 0.950 . S
H1464 C1469 0.950 . S
H1465 C1470 0.949 . S
H1466 C1472 0.950 . S
H1467 C1473 0.950 . S
H1468 C1474 0.949 . S
C1469 H1464 0.950 . S
C1469 C1471 1.327 . S
C1469 C1475 1.429 . S
C1470 C1462 1.574 . S
C1470 H1465 0.949 . S
C1470 C1476 1.368 . S
C1471 C1455 1.349 . S
C1471 H1463 0.950 . S
C1471 C1469 1.327 . S
C1472 C1460 1.349 . S
C1472 H1466 0.950 . S
C1472 C1473 1.327 . S
C1473 H1467 0.950 . S
C1473 C1472 1.327 . S
C1473 C1477 1.429 . S
C1474 C1457 1.574 . S
C1474 H1468 0.949 . S
C1474 C1478 1.368 . S
C1475 C1456 1.429 . S
C1475 C1469 1.429 . S
C1475 C1476 1.523 . S
C1476 C1457 1.368 . S
C1476 C1470 1.368 . S
C1476 C1475 1.523 . S
C1477 C1461 1.429 . S
C1477 C1473 1.429 . S
C1477 C1478 1.523 . S
C1478 C1462 1.368 . S
C1478 C1474 1.368 . S
C1478 C1477 1.523 . S
H1479 C1454 0.950 . S
H1480 C1456 0.950 . S
H1481 C1457 0.949 . S
H1482 C1459 0.950 . S
H1483 C1461 0.950 . S
C1484 C1485 1.349 . S
C1484 C1486 1.327 . S
C1484 H1509 0.950 . S
C1485 C1484 1.349 . S
C1485 C1501 1.349 . S
C1486 C1484 1.327 . S
C1486 C1505 1.429 . S
C1486 H1510 0.950 1_655 S
C1487 C1504 1.574 . S
C1487 C1506 1.368 1_565 S
C1487 H1511 0.949 . S
H1488 C1492 0.949 . S
C1489 C1490 1.349 . S
C1489 C1491 1.327 . S
C1489 H1512 0.950 . S
C1490 C1489 1.349 . S
C1490 C1502 1.349 . S
C1491 C1489 1.327 . S
C1491 C1507 1.429 . S
C1491 H1513 0.950 1_455 S
C1492 H1488 0.949 . S
C1492 C1500 1.574 . S
C1492 C1508 1.368 1_545 S
H1493 C1501 0.950 . S
H1494 C1499 0.950 . S
H1495 C1500 0.949 . S
H1496 C1502 0.950 . S
H1497 C1503 0.950 . S
H1498 C1504 0.949 . S
C1499 H1494 0.950 . S
C1499 C1501 1.327 . S
C1499 C1505 1.429 . S
C1500 C1492 1.574 . S
C1500 H1495 0.949 . S
C1500 C1506 1.368 1_455 S
C1501 C1485 1.349 . S
C1501 H1493 0.950 . S
C1501 C1499 1.327 . S
C1502 C1490 1.349 . S
C1502 H1496 0.950 . S
C1502 C1503 1.327 . S
C1503 H1497 0.950 . S
C1503 C1502 1.327 . S
C1503 C1507 1.429 . S
C1504 C1487 1.574 . S
C1504 H1498 0.949 . S
C1504 C1508 1.368 1_655 S
C1505 C1486 1.429 . S
C1505 C1499 1.429 . S
C1505 C1506 1.523 . S
C1506 C1487 1.368 1_545 S
C1506 C1500 1.368 1_655 S
C1506 C1505 1.523 . S
C1507 C1491 1.429 . S
C1507 C1503 1.429 . S
C1507 C1508 1.523 . S
C1508 C1492 1.368 1_565 S
C1508 C1504 1.368 1_455 S
C1508 C1507 1.523 . S
H1509 C1484 0.950 . S
H1510 C1486 0.950 1_455 S
H1511 C1487 0.949 . S
H1512 C1489 0.950 . S
H1513 C1491 0.950 1_655 S
C1514 C1515 1.349 . S
C1514 C1516 1.327 . S
C1514 H1539 0.950 . S
C1515 C1514 1.349 . S
C1515 C1531 1.349 . S
C1516 C1514 1.327 . S
C1516 C1535 1.429 . S
C1516 H1540 0.950 . S
C1517 C1534 1.574 . S
C1517 C1536 1.368 . S
C1517 H1541 0.949 . S
H1518 C1522 0.949 . S
C1519 C1520 1.349 . S
C1519 C1521 1.327 . S
C1519 H1542 0.950 . S
C1520 C1519 1.349 . S
C1520 C1532 1.349 . S
C1521 C1519 1.327 . S
C1521 C1537 1.429 . S
C1521 H1543 0.950 . S
C1522 H1518 0.949 . S
C1522 C1530 1.574 . S
C1522 C1538 1.368 . S
H1523 C1531 0.950 . S
H1524 C1529 0.950 . S
H1525 C1530 0.949 . S
H1526 C1532 0.950 . S
H1527 C1533 0.950 . S
H1528 C1534 0.949 . S
C1529 H1524 0.950 . S
C1529 C1531 1.327 . S
C1529 C1535 1.429 . S
C1530 C1522 1.574 . S
C1530 H1525 0.949 . S
C1530 C1536 1.368 . S
C1531 C1515 1.349 . S
C1531 H1523 0.950 . S
C1531 C1529 1.327 . S
C1532 C1520 1.349 . S
C1532 H1526 0.950 . S
C1532 C1533 1.327 . S
C1533 H1527 0.950 . S
C1533 C1532 1.327 . S
C1533 C1537 1.429 . S
C1534 C1517 1.574 . S
C1534 H1528 0.949 . S
C1534 C1538 1.368 . S
C1535 C1516 1.429 . S
C1535 C1529 1.429 . S
C1535 C1536 1.523 . S
C1536 C1517 1.368 . S
C1536 C1530 1.368 . S
C1536 C1535 1.523 . S
C1537 C1521 1.429 . S
C1537 C1533 1.429 . S
C1537 C1538 1.523 . S
C1538 C1522 1.368 . S
C1538 C1534 1.368 . S
C1538 C1537 1.523 . S
H1539 C1514 0.950 . S
H1540 C1516 0.950 . S
H1541 C1517 0.949 . S
H1542 C1519 0.950 . S
H1543 C1521 0.950 . S
C1544 C1545 1.349 . S
C1544 C1546 1.327 . S
C1544 H1569 0.950 . S
C1545 C1544 1.349 . S
C1545 C1561 1.349 . S
C1546 C1544 1.327 . S
C1546 C1565 1.429 . S
C1546 H1570 0.950 . S
C1547 C1564 1.574 . S
C1547 C1566 1.368 . S
C1547 H1571 0.949 . S
H1548 C1552 0.949 . S
C1549 C1550 1.349 . S
C1549 C1551 1.327 . S
C1549 H1572 0.950 . S
C1550 C1549 1.349 . S
C1550 C1562 1.349 . S
C1551 C1549 1.327 . S
C1551 C1567 1.429 . S
C1551 H1573 0.950 . S
C1552 H1548 0.949 . S
C1552 C1560 1.574 . S
C1552 C1568 1.368 . S
H1553 C1561 0.950 . S
H1554 C1559 0.950 . S
H1555 C1560 0.949 . S
H1556 C1562 0.950 . S
H1557 C1563 0.950 . S
H1558 C1564 0.949 . S
C1559 H1554 0.950 . S
C1559 C1561 1.327 . S
C1559 C1565 1.429 . S
C1560 C1552 1.574 . S
C1560 H1555 0.949 . S
C1560 C1566 1.368 . S
C1561 C1545 1.349 . S
C1561 H1553 0.950 . S
C1561 C1559 1.327 . S
C1562 C1550 1.349 . S
C1562 H1556 0.950 . S
C1562 C1563 1.327 . S
C1563 H1557 0.950 . S
C1563 C1562 1.327 . S
C1563 C1567 1.429 . S
C1564 C1547 1.574 . S
C1564 H1558 0.949 . S
C1564 C1568 1.368 . S
C1565 C1546 1.429 . S
C1565 C1559 1.429 . S
C1565 C1566 1.523 . S
C1566 C1547 1.368 . S
C1566 C1560 1.368 . S
C1566 C1565 1.523 . S
C1567 C1551 1.429 . S
C1567 C1563 1.429 . S
C1567 C1568 1.523 . S
C1568 C1552 1.368 . S
C1568 C1564 1.368 . S
C1568 C1567 1.523 . S
H1569 C1544 0.950 . S
H1570 C1546 0.950 . S
H1571 C1547 0.949 . S
H1572 C1549 0.950 . S
H1573 C1551 0.950 . S
C1574 C1575 1.349 . S
C1574 C1576 1.327 . S
C1574 H1599 0.950 . S
C1575 C1574 1.349 . S
C1575 C1591 1.349 . S
C1576 C1574 1.327 . S
C1576 C1595 1.429 . S
C1576 H1600 0.950 . S
C1577 C1594 1.574 . S
C1577 C1596 1.368 . S
C1577 H1601 0.949 . S
H1578 C1582 0.949 . S
C1579 C1580 1.349 . S
C1579 C1581 1.327 . S
C1579 H1602 0.950 . S
C1580 C1579 1.349 . S
C1580 C1592 1.349 . S
C1581 C1579 1.327 . S
C1581 C1597 1.429 . S
C1581 H1603 0.950 . S
C1582 H1578 0.949 . S
C1582 C1590 1.574 . S
C1582 C1598 1.368 . S
H1583 C1591 0.950 . S
H1584 C1589 0.950 . S
H1585 C1590 0.949 . S
H1586 C1592 0.950 . S
H1587 C1593 0.950 . S
H1588 C1594 0.949 . S
C1589 H1584 0.950 . S
C1589 C1591 1.327 . S
C1589 C1595 1.429 . S
C1590 C1582 1.574 . S
C1590 H1585 0.949 . S
C1590 C1596 1.368 . S
C1591 C1575 1.349 . S
C1591 H1583 0.950 . S
C1591 C1589 1.327 . S
C1592 C1580 1.349 . S
C1592 H1586 0.950 . S
C1592 C1593 1.327 . S
C1593 H1587 0.950 . S
C1593 C1592 1.327 . S
C1593 C1597 1.429 . S
C1594 C1577 1.574 . S
C1594 H1588 0.949 . S
C1594 C1598 1.368 . S
C1595 C1576 1.429 . S
C1595 C1589 1.429 . S
C1595 C1596 1.523 . S
C1596 C1577 1.368 . S
C1596 C1590 1.368 . S
C1596 C1595 1.523 . S
C1597 C1581 1.429 . S
C1597 C1593 1.429 . S
C1597 C1598 1.523 . S
C1598 C1582 1.368 . S
C1598 C1594 1.368 . S
C1598 C1597 1.523 . S
H1599 C1574 0.950 . S
H1600 C1576 0.950 . S
H1601 C1577 0.949 . S
H1602 C1579 0.950 . S
H1603 C1581 0.950 . S
C1604 C1605 1.349 . S
C1604 C1606 1.327 . S
C1604 H1629 0.950 . S
C1605 C1604 1.349 . S
C1605 C1621 1.349 . S
C1606 C1604 1.327 . S
C1606 C1625 1.429 . S
C1606 H1630 0.950 . S
C1607 C1624 1.574 . S
C1607 C1626 1.368 . S
C1607 H1631 0.949 . S
H1608 C1612 0.949 . S
C1609 C1610 1.349 . S
C1609 C1611 1.327 . S
C1609 H1632 0.950 . S
C1610 C1609 1.349 . S
C1610 C1622 1.349 . S
C1611 C1609 1.327 . S
C1611 C1627 1.429 . S
C1611 H1633 0.950 . S
C1612 H1608 0.949 . S
C1612 C1620 1.574 . S
C1612 C1628 1.368 . S
H1613 C1621 0.950 . S
H1614 C1619 0.950 . S
H1615 C1620 0.949 . S
H1616 C1622 0.950 . S
H1617 C1623 0.950 . S
H1618 C1624 0.949 . S
C1619 H1614 0.950 . S
C1619 C1621 1.327 . S
C1619 C1625 1.429 . S
C1620 C1612 1.574 . S
C1620 H1615 0.949 . S
C1620 C1626 1.368 1_455 S
C1621 C1605 1.349 . S
C1621 H1613 0.950 . S
C1621 C1619 1.327 . S
C1622 C1610 1.349 . S
C1622 H1616 0.950 . S
C1622 C1623 1.327 . S
C1623 H1617 0.950 . S
C1623 C1622 1.327 . S
C1623 C1627 1.429 . S
C1624 C1607 1.574 . S
C1624 H1618 0.949 . S
C1624 C1628 1.368 1_655 S
C1625 C1606 1.429 . S
C1625 C1619 1.429 . S
C1625 C1626 1.523 . S
C1626 C1607 1.368 . S
C1626 C1620 1.368 1_655 S
C1626 C1625 1.523 . S
C1627 C1611 1.429 . S
C1627 C1623 1.429 . S
C1627 C1628 1.523 . S
C1628 C1612 1.368 . S
C1628 C1624 1.368 1_455 S
C1628 C1627 1.523 . S
H1629 C1604 0.950 . S
H1630 C1606 0.950 . S
H1631 C1607 0.949 . S
H1632 C1609 0.950 . S
H1633 C1611 0.950 . S
C1634 C1635 1.349 . S
C1634 C1636 1.327 . S
C1634 H1659 0.950 . S
C1635 C1634 1.349 . S
C1635 C1651 1.349 . S
C1636 C1634 1.327 . S
C1636 C1655 1.429 . S
C1636 H1660 0.950 . S
C1637 C1654 1.574 1_554 S
C1637 C1656 1.368 . S
C1637 H1661 0.949 . S
H1638 C1642 0.949 . S
C1639 C1640 1.349 . S
C1639 C1641 1.327 . S
C1639 H1662 0.950 . S
C1640 C1639 1.349 . S
C1640 C1652 1.349 . S
C1641 C1639 1.327 . S
C1641 C1657 1.429 . S
C1641 H1663 0.950 . S
C1642 H1638 0.949 . S
C1642 C1650 1.574 . S
C1642 C1658 1.368 . S
H1643 C1651 0.950 . S
H1644 C1649 0.950 . S
H1645 C1650 0.949 . S
H1646 C1652 0.950 . S
H1647 C1653 0.950 . S
H1648 C1654 0.949 . S
C1649 H1644 0.950 . S
C1649 C1651 1.327 . S
C1649 C1655 1.429 . S
C1650 C1642 1.574 . S
C1650 H1645 0.949 . S
C1650 C1656 1.368 1_556 S
C1651 C1635 1.349 . S
C1651 H1643 0.950 . S
C1651 C1649 1.327 . S
C1652 C1640 1.349 . S
C1652 H1646 0.950 . S
C1652 C1653 1.327 . S
C1653 H1647 0.950 . S
C1653 C1652 1.327 . S
C1653 C1657 1.429 . S
C1654 C1637 1.574 1_556 S
C1654 H1648 0.949 . S
C1654 C1658 1.368 . S
C1655 C1636 1.429 . S
C1655 C1649 1.429 . S
C1655 C1656 1.523 . S
C1656 C1637 1.368 . S
C1656 C1650 1.368 1_554 S
C1656 C1655 1.523 . S
C1657 C1641 1.429 . S
C1657 C1653 1.429 . S
C1657 C1658 1.523 . S
C1658 C1642 1.368 . S
C1658 C1654 1.368 . S
C1658 C1657 1.523 . S
H1659 C1634 0.950 . S
H1660 C1636 0.950 . S
H1661 C1637 0.949 . S
H1662 C1639 0.950 . S
H1663 C1641 0.950 . S
C1664 C1665 1.349 . S
C1664 C1666 1.327 . S
C1664 H1689 0.950 . S
C1665 C1664 1.349 . S
C1665 C1681 1.349 . S
C1666 C1664 1.327 . S
C1666 C1685 1.429 . S
C1666 H1690 0.950 . S
C1667 C1684 1.574 . S
C1667 C1686 1.368 . S
C1667 H1691 0.949 . S
H1668 C1672 0.949 . S
C1669 C1670 1.349 . S
C1669 C1671 1.327 . S
C1669 H1692 0.950 . S
C1670 C1669 1.349 . S
C1670 C1682 1.349 . S
C1671 C1669 1.327 . S
C1671 C1687 1.429 . S
C1671 H1693 0.950 . S
C1672 H1668 0.949 . S
C1672 C1680 1.574 . S
C1672 C1688 1.368 . S
H1673 C1681 0.950 . S
H1674 C1679 0.950 . S
H1675 C1680 0.949 . S
H1676 C1682 0.950 . S
H1677 C1683 0.950 . S
H1678 C1684 0.949 . S
C1679 H1674 0.950 . S
C1679 C1681 1.327 . S
C1679 C1685 1.429 . S
C1680 C1672 1.574 . S
C1680 H1675 0.949 . S
C1680 C1686 1.368 . S
C1681 C1665 1.349 . S
C1681 H1673 0.950 . S
C1681 C1679 1.327 . S
C1682 C1670 1.349 . S
C1682 H1676 0.950 . S
C1682 C1683 1.327 . S
C1683 H1677 0.950 . S
C1683 C1682 1.327 . S
C1683 C1687 1.429 . S
C1684 C1667 1.574 . S
C1684 H1678 0.949 . S
C1684 C1688 1.368 . S
C1685 C1666 1.429 . S
C1685 C1679 1.429 . S
C1685 C1686 1.523 . S
C1686 C1667 1.368 . S
C1686 C1680 1.368 . S
C1686 C1685 1.523 . S
C1687 C1671 1.429 . S
C1687 C1683 1.429 . S
C1687 C1688 1.523 . S
C1688 C1672 1.368 . S
C1688 C1684 1.368 . S
C1688 C1687 1.523 . S
H1689 C1664 0.950 . S
H1690 C1666 0.950 . S
H1691 C1667 0.949 . S
H1692 C1669 0.950 . S
H1693 C1671 0.950 . S
C1694 C1695 1.349 . S
C1694 C1696 1.327 1_455 S
C1694 H1719 0.950 . S
C1695 C1694 1.349 . S
C1695 C1711 1.349 . S
C1696 C1694 1.327 1_655 S
C1696 C1715 1.429 . S
C1696 H1720 0.950 . S
C1697 C1714 1.574 . S
C1697 C1716 1.368 . S
C1697 H1721 0.949 . S
H1698 C1702 0.949 . S
C1699 C1700 1.349 . S
C1699 C1701 1.327 . S
C1699 H1722 0.950 . S
C1700 C1699 1.349 . S
C1700 C1712 1.349 . S
C1701 C1699 1.327 . S
C1701 C1717 1.429 . S
C1701 H1723 0.950 . S
C1702 H1698 0.949 . S
C1702 C1710 1.574 . S
C1702 C1718 1.368 . S
H1703 C1711 0.950 . S
H1704 C1709 0.950 . S
H1705 C1710 0.949 . S
H1706 C1712 0.950 . S
H1707 C1713 0.950 . S
H1708 C1714 0.949 . S
C1709 H1704 0.950 . S
C1709 C1711 1.327 1_655 S
C1709 C1715 1.429 . S
C1710 C1702 1.574 . S
C1710 H1705 0.949 . S
C1710 C1716 1.368 . S
C1711 C1695 1.349 . S
C1711 H1703 0.950 . S
C1711 C1709 1.327 1_455 S
C1712 C1700 1.349 . S
C1712 H1706 0.950 . S
C1712 C1713 1.327 . S
C1713 H1707 0.950 . S
C1713 C1712 1.327 . S
C1713 C1717 1.429 . S
C1714 C1697 1.574 . S
C1714 H1708 0.949 . S
C1714 C1718 1.368 . S
C1715 C1696 1.429 . S
C1715 C1709 1.429 . S
C1715 C1716 1.523 . S
C1716 C1697 1.368 . S
C1716 C1710 1.368 . S
C1716 C1715 1.523 . S
C1717 C1701 1.429 . S
C1717 C1713 1.429 . S
C1717 C1718 1.523 . S
C1718 C1702 1.368 . S
C1718 C1714 1.368 . S
C1718 C1717 1.523 . S
H1719 C1694 0.950 . S
H1720 C1696 0.950 . S
H1721 C1697 0.949 . S
H1722 C1699 0.950 . S
H1723 C1701 0.950 . S
C1724 C1725 1.349 . S
C1724 C1726 1.327 . S
C1724 H1749 0.950 . S
C1725 C1724 1.349 . S
C1725 C1741 1.349 . S
C1726 C1724 1.327 . S
C1726 C1745 1.429 . S
C1726 H1750 0.950 . S
C1727 C1744 1.574 . S
C1727 C1746 1.368 . S
C1727 H1751 0.949 . S
H1728 C1732 0.949 . S
C1729 C1730 1.349 . S
C1729 C1731 1.327 . S
C1729 H1752 0.950 . S
C1730 C1729 1.349 . S
C1730 C1742 1.349 . S
C1731 C1729 1.327 . S
C1731 C1747 1.429 . S
C1731 H1753 0.950 . S
C1732 H1728 0.949 . S
C1732 C1740 1.574 . S
C1732 C1748 1.368 . S
H1733 C1741 0.950 . S
H1734 C1739 0.950 . S
H1735 C1740 0.949 . S
H1736 C1742 0.950 . S
H1737 C1743 0.950 . S
H1738 C1744 0.949 . S
C1739 H1734 0.950 . S
C1739 C1741 1.327 . S
C1739 C1745 1.429 . S
C1740 C1732 1.574 . S
C1740 H1735 0.949 . S
C1740 C1746 1.368 . S
C1741 C1725 1.349 . S
C1741 H1733 0.950 . S
C1741 C1739 1.327 . S
C1742 C1730 1.349 . S
C1742 H1736 0.950 . S
C1742 C1743 1.327 . S
C1743 H1737 0.950 . S
C1743 C1742 1.327 . S
C1743 C1747 1.429 . S
C1744 C1727 1.574 . S
C1744 H1738 0.949 . S
C1744 C1748 1.368 . S
C1745 C1726 1.429 . S
C1745 C1739 1.429 . S
C1745 C1746 1.523 . S
C1746 C1727 1.368 . S
C1746 C1740 1.368 . S
C1746 C1745 1.523 . S
C1747 C1731 1.429 . S
C1747 C1743 1.429 . S
C1747 C1748 1.523 . S
C1748 C1732 1.368 . S
C1748 C1744 1.368 . S
C1748 C1747 1.523 . S
H1749 C1724 0.950 . S
H1750 C1726 0.950 . S
H1751 C1727 0.949 . S
H1752 C1729 0.950 . S
H1753 C1731 0.950 . S
C1754 C1755 1.349 . S
C1754 C1756 1.327 . S
C1754 H1779 0.950 . S
C1755 C1754 1.349 . S
C1755 C1771 1.349 . S
C1756 C1754 1.327 . S
C1756 C1775 1.429 . S
C1756 H1780 0.950 . S
C1757 C1774 1.574 . S
C1757 C1776 1.368 . S
C1757 H1781 0.949 . S
H1758 C1762 0.949 . S
C1759 C1760 1.349 . S
C1759 C1761 1.327 . S
C1759 H1782 0.950 . S
C1760 C1759 1.349 . S
C1760 C1772 1.349 . S
C1761 C1759 1.327 . S
C1761 C1777 1.429 . S
C1761 H1783 0.950 . S
C1762 H1758 0.949 . S
C1762 C1770 1.574 . S
C1762 C1778 1.368 . S
H1763 C1771 0.950 . S
H1764 C1769 0.950 . S
H1765 C1770 0.949 . S
H1766 C1772 0.950 . S
H1767 C1773 0.950 . S
H1768 C1774 0.949 . S
C1769 H1764 0.950 . S
C1769 C1771 1.327 . S
C1769 C1775 1.429 . S
C1770 C1762 1.574 . S
C1770 H1765 0.949 . S
C1770 C1776 1.368 . S
C1771 C1755 1.349 . S
C1771 H1763 0.950 . S
C1771 C1769 1.327 . S
C1772 C1760 1.349 . S
C1772 H1766 0.950 . S
C1772 C1773 1.327 . S
C1773 H1767 0.950 . S
C1773 C1772 1.327 . S
C1773 C1777 1.429 . S
C1774 C1757 1.574 . S
C1774 H1768 0.949 . S
C1774 C1778 1.368 . S
C1775 C1756 1.429 . S
C1775 C1769 1.429 . S
C1775 C1776 1.523 . S
C1776 C1757 1.368 . S
C1776 C1770 1.368 . S
C1776 C1775 1.523 . S
C1777 C1761 1.429 . S
C1777 C1773 1.429 . S
C1777 C1778 1.523 . S
C1778 C1762 1.368 . S
C1778 C1774 1.368 . S
C1778 C1777 1.523 . S
H1779 C1754 0.950 . S
H1780 C1756 0.950 . S
H1781 C1757 0.949 . S
H1782 C1759 0.950 . S
H1783 C1761 0.950 . S
C1784 C1785 1.349 . S
C1784 C1786 1.327 . S
C1784 H1809 0.950 . S
C1785 C1784 1.349 . S
C1785 C1801 1.349 . S
C1786 C1784 1.327 . S
C1786 C1805 1.429 . S
C1786 H1810 0.950 . S
C1787 C1804 1.574 . S
C1787 C1806 1.368 . S
C1787 H1811 0.949 . S
H1788 C1792 0.949 . S
C1789 C1790 1.349 . S
C1789 C1791 1.327 . S
C1789 H1812 0.950 . S
C1790 C1789 1.349 . S
C1790 C1802 1.349 . S
C1791 C1789 1.327 . S
C1791 C1807 1.429 . S
C1791 H1813 0.950 . S
C1792 H1788 0.949 . S
C1792 C1800 1.574 . S
C1792 C1808 1.368 . S
H1793 C1801 0.950 . S
H1794 C1799 0.950 . S
H1795 C1800 0.949 . S
H1796 C1802 0.950 . S
H1797 C1803 0.950 . S
H1798 C1804 0.949 . S
C1799 H1794 0.950 . S
C1799 C1801 1.327 . S
C1799 C1805 1.429 . S
C1800 C1792 1.574 . S
C1800 H1795 0.949 . S
C1800 C1806 1.368 . S
C1801 C1785 1.349 . S
C1801 H1793 0.950 . S
C1801 C1799 1.327 . S
C1802 C1790 1.349 . S
C1802 H1796 0.950 . S
C1802 C1803 1.327 . S
C1803 H1797 0.950 . S
C1803 C1802 1.327 . S
C1803 C1807 1.429 . S
C1804 C1787 1.574 . S
C1804 H1798 0.949 . S
C1804 C1808 1.368 . S
C1805 C1786 1.429 . S
C1805 C1799 1.429 . S
C1805 C1806 1.523 . S
C1806 C1787 1.368 . S
C1806 C1800 1.368 . S
C1806 C1805 1.523 . S
C1807 C1791 1.429 . S
C1807 C1803 1.429 . S
C1807 C1808 1.523 . S
C1808 C1792 1.368 . S
C1808 C1804 1.368 . S
C1808 C1807 1.523 . S
H1809 C1784 0.950 . S
H1810 C1786 0.950 . S
H1811 C1787 0.949 . S
H1812 C1789 0.950 . S
H1813 C1791 0.950 . S
C1814 C1815 1.349 . S
C1814 C1816 1.327 . S
C1814 H1839 0.950 . S
C1815 C1814 1.349 . S
C1815 C1831 1.349 . S
C1816 C1814 1.327 . S
C1816 C1835 1.429 . S
C1816 H1840 0.950 . S
C1817 C1834 1.574 . S
C1817 C1836 1.368 . S
C1817 H1841 0.949 . S
H1818 C1822 0.949 . S
C1819 C1820 1.349 1_455 S
C1819 C1821 1.327 . S
C1819 H1842 0.950 . S
C1820 C1819 1.349 1_655 S
C1820 C1832 1.349 . S
C1821 C1819 1.327 . S
C1821 C1837 1.429 . S
C1821 H1843 0.950 . S
C1822 H1818 0.949 . S
C1822 C1830 1.574 . S
C1822 C1838 1.368 . S
H1823 C1831 0.950 . S
H1824 C1829 0.950 . S
H1825 C1830 0.949 . S
H1826 C1832 0.950 . S
H1827 C1833 0.950 . S
H1828 C1834 0.949 . S
C1829 H1824 0.950 . S
C1829 C1831 1.327 . S
C1829 C1835 1.429 . S
C1830 C1822 1.574 . S
C1830 H1825 0.949 . S
C1830 C1836 1.368 . S
C1831 C1815 1.349 . S
C1831 H1823 0.950 . S
C1831 C1829 1.327 . S
C1832 C1820 1.349 . S
C1832 H1826 0.950 . S
C1832 C1833 1.327 1_655 S
C1833 H1827 0.950 . S
C1833 C1832 1.327 1_455 S
C1833 C1837 1.429 . S
C1834 C1817 1.574 . S
C1834 H1828 0.949 . S
C1834 C1838 1.368 . S
C1835 C1816 1.429 . S
C1835 C1829 1.429 . S
C1835 C1836 1.523 . S
C1836 C1817 1.368 . S
C1836 C1830 1.368 . S
C1836 C1835 1.523 . S
C1837 C1821 1.429 . S
C1837 C1833 1.429 . S
C1837 C1838 1.523 . S
C1838 C1822 1.368 . S
C1838 C1834 1.368 . S
C1838 C1837 1.523 . S
H1839 C1814 0.950 . S
H1840 C1816 0.950 . S
H1841 C1817 0.949 . S
H1842 C1819 0.950 . S
H1843 C1821 0.950 . S
C1844 C1845 1.349 . S
C1844 C1846 1.327 . S
C1844 H1869 0.950 . S
C1845 C1844 1.349 . S
C1845 C1861 1.349 . S
C1846 C1844 1.327 . S
C1846 C1865 1.429 . S
C1846 H1870 0.950 . S
C1847 C1864 1.574 . S
C1847 C1866 1.368 . S
C1847 H1871 0.949 . S
H1848 C1852 0.949 . S
C1849 C1850 1.349 . S
C1849 C1851 1.327 . S
C1849 H1872 0.950 . S
C1850 C1849 1.349 . S
C1850 C1862 1.349 . S
C1851 C1849 1.327 . S
C1851 C1867 1.429 . S
C1851 H1873 0.950 . S
C1852 H1848 0.949 . S
C1852 C1860 1.574 . S
C1852 C1868 1.368 . S
H1853 C1861 0.950 . S
H1854 C1859 0.950 . S
H1855 C1860 0.949 . S
H1856 C1862 0.950 . S
H1857 C1863 0.950 . S
H1858 C1864 0.949 . S
C1859 H1854 0.950 . S
C1859 C1861 1.327 . S
C1859 C1865 1.429 . S
C1860 C1852 1.574 . S
C1860 H1855 0.949 . S
C1860 C1866 1.368 . S
C1861 C1845 1.349 . S
C1861 H1853 0.950 . S
C1861 C1859 1.327 . S
C1862 C1850 1.349 . S
C1862 H1856 0.950 . S
C1862 C1863 1.327 . S
C1863 H1857 0.950 . S
C1863 C1862 1.327 . S
C1863 C1867 1.429 . S
C1864 C1847 1.574 . S
C1864 H1858 0.949 . S
C1864 C1868 1.368 . S
C1865 C1846 1.429 . S
C1865 C1859 1.429 . S
C1865 C1866 1.523 . S
C1866 C1847 1.368 . S
C1866 C1860 1.368 . S
C1866 C1865 1.523 . S
C1867 C1851 1.429 . S
C1867 C1863 1.429 . S
C1867 C1868 1.523 . S
C1868 C1852 1.368 . S
C1868 C1864 1.368 . S
C1868 C1867 1.523 . S
H1869 C1844 0.950 . S
H1870 C1846 0.950 . S
H1871 C1847 0.949 . S
H1872 C1849 0.950 . S
H1873 C1851 0.950 . S
C1874 C1875 1.349 . S
C1874 C1876 1.327 . S
C1874 H1899 0.950 . S
C1875 C1874 1.349 . S
C1875 C1891 1.349 . S
C1876 C1874 1.327 . S
C1876 C1895 1.429 . S
C1876 H1900 0.950 . S
C1877 C1894 1.574 . S
C1877 C1896 1.368 . S
C1877 H1901 0.949 . S
H1878 C1882 0.949 . S
C1879 C1880 1.349 . S
C1879 C1881 1.327 . S
C1879 H1902 0.950 . S
C1880 C1879 1.349 . S
C1880 C1892 1.349 . S
C1881 C1879 1.327 . S
C1881 C1897 1.429 . S
C1881 H1903 0.950 . S
C1882 H1878 0.949 . S
C1882 C1890 1.574 . S
C1882 C1898 1.368 . S
H1883 C1891 0.950 . S
H1884 C1889 0.950 . S
H1885 C1890 0.949 . S
H1886 C1892 0.950 . S
H1887 C1893 0.950 . S
H1888 C1894 0.949 . S
C1889 H1884 0.950 . S
C1889 C1891 1.327 . S
C1889 C1895 1.429 . S
C1890 C1882 1.574 . S
C1890 H1885 0.949 . S
C1890 C1896 1.368 . S
C1891 C1875 1.349 . S
C1891 H1883 0.950 . S
C1891 C1889 1.327 . S
C1892 C1880 1.349 . S
C1892 H1886 0.950 . S
C1892 C1893 1.327 . S
C1893 H1887 0.950 . S
C1893 C1892 1.327 . S
C1893 C1897 1.429 . S
C1894 C1877 1.574 . S
C1894 H1888 0.949 . S
C1894 C1898 1.368 . S
C1895 C1876 1.429 . S
C1895 C1889 1.429 . S
C1895 C1896 1.523 . S
C1896 C1877 1.368 . S
C1896 C1890 1.368 . S
C1896 C1895 1.523 . S
C1897 C1881 1.429 . S
C1897 C1893 1.429 . S
C1897 C1898 1.523 . S
C1898 C1882 1.368 . S
C1898 C1894 1.368 . S
C1898 C1897 1.523 . S
H1899 C1874 0.950 . S
H1900 C1876 0.950 . S
H1901 C1877 0.949 . S
H1902 C1879 0.950 . S
H1903 C1881 0.950 . S
C1904 C1905 1.349 . S
C1904 C1906 1.327 . S
C1904 H1929 0.950 . S
C1905 C1904 1.349 . S
C1905 C1921 1.349 . S
C1906 C1904 1.327 . S
C1906 C1925 1.429 . S
C1906 H1930 0.950 . S
C1907 C1924 1.574 . S
C1907 C1926 1.368 . S
C1907 H1931 0.949 . S
H1908 C1912 0.949 . S
C1909 C1910 1.349 . S
C1909 C1911 1.327 . S
C1909 H1932 0.950 . S
C1910 C1909 1.349 . S
C1910 C1922 1.349 . S
C1911 C1909 1.327 . S
C1911 C1927 1.429 . S
C1911 H1933 0.950 . S
C1912 H1908 0.949 . S
C1912 C1920 1.574 . S
C1912 C1928 1.368 . S
H1913 C1921 0.950 . S
H1914 C1919 0.950 . S
H1915 C1920 0.949 . S
H1916 C1922 0.950 . S
H1917 C1923 0.950 . S
H1918 C1924 0.949 . S
C1919 H1914 0.950 . S
C1919 C1921 1.327 . S
C1919 C1925 1.429 . S
C1920 C1912 1.574 . S
C1920 H1915 0.949 . S
C1920 C1926 1.368 . S
C1921 C1905 1.349 . S
C1921 H1913 0.950 . S
C1921 C1919 1.327 . S
C1922 C1910 1.349 . S
C1922 H1916 0.950 . S
C1922 C1923 1.327 . S
C1923 H1917 0.950 . S
C1923 C1922 1.327 . S
C1923 C1927 1.429 . S
C1924 C1907 1.574 . S
C1924 H1918 0.949 . S
C1924 C1928 1.368 . S
C1925 C1906 1.429 . S
C1925 C1919 1.429 . S
C1925 C1926 1.523 . S
C1926 C1907 1.368 . S
C1926 C1920 1.368 . S
C1926 C1925 1.523 . S
C1927 C1911 1.429 . S
C1927 C1923 1.429 . S
C1927 C1928 1.523 . S
C1928 C1912 1.368 . S
C1928 C1924 1.368 . S
C1928 C1927 1.523 . S
H1929 C1904 0.950 . S
H1930 C1906 0.950 . S
H1931 C1907 0.949 . S
H1932 C1909 0.950 . S
H1933 C1911 0.950 . S
C1934 C1935 1.349 1_565 S
C1934 C1936 1.327 . S
C1934 H1959 0.950 . S
C1935 C1934 1.349 1_545 S
C1935 C1951 1.349 . S
C1936 C1934 1.327 . S
C1936 C1955 1.429 1_565 S
C1936 H1960 0.950 . S
C1937 C1954 1.574 . S
C1937 C1956 1.368 . S
C1937 H1961 0.949 . S
H1938 C1942 0.949 . S
C1939 C1940 1.349 . S
C1939 C1941 1.327 . S
C1939 H1962 0.950 . S
C1940 C1939 1.349 . S
C1940 C1952 1.349 . S
C1941 C1939 1.327 . S
C1941 C1957 1.429 . S
C1941 H1963 0.950 . S
C1942 H1938 0.949 . S
C1942 C1950 1.574 . S
C1942 C1958 1.368 . S
H1943 C1951 0.950 . S
H1944 C1949 0.950 . S
H1945 C1950 0.949 1_565 S
H1946 C1952 0.950 . S
H1947 C1953 0.950 . S
H1948 C1954 0.949 . S
C1949 H1944 0.950 . S
C1949 C1951 1.327 . S
C1949 C1955 1.429 . S
C1950 C1942 1.574 . S
C1950 H1945 0.949 1_545 S
C1950 C1956 1.368 . S
C1951 C1935 1.349 . S
C1951 H1943 0.950 . S
C1951 C1949 1.327 . S
C1952 C1940 1.349 . S
C1952 H1946 0.950 . S
C1952 C1953 1.327 . S
C1953 H1947 0.950 . S
C1953 C1952 1.327 . S
C1953 C1957 1.429 . S
C1954 C1937 1.574 . S
C1954 H1948 0.949 . S
C1954 C1958 1.368 . S
C1955 C1936 1.429 1_545 S
C1955 C1949 1.429 . S
C1955 C1956 1.523 . S
C1956 C1937 1.368 . S
C1956 C1950 1.368 . S
C1956 C1955 1.523 . S
C1957 C1941 1.429 . S
C1957 C1953 1.429 . S
C1957 C1958 1.523 . S
C1958 C1942 1.368 . S
C1958 C1954 1.368 . S
C1958 C1957 1.523 . S
H1959 C1934 0.950 . S
H1960 C1936 0.950 . S
H1961 C1937 0.949 . S
H1962 C1939 0.950 . S
H1963 C1941 0.950 . S
C1964 C1965 1.349 . S
C1964 C1966 1.327 . S
C1964 H1989 0.950 . S
C1965 C1964 1.349 . S
C1965 C1981 1.349 . S
C1966 C1964 1.327 . S
C1966 C1985 1.429 . S
C1966 H1990 0.950 . S
C1967 C1984 1.574 . S
C1967 C1986 1.368 . S
C1967 H1991 0.949 . S
H1968 C1972 0.949 . S
C1969 C1970 1.349 . S
C1969 C1971 1.327 . S
C1969 H1992 0.950 . S
C1970 C1969 1.349 . S
C1970 C1982 1.349 . S
C1971 C1969 1.327 . S
C1971 C1987 1.429 . S
C1971 H1993 0.950 . S
C1972 H1968 0.949 . S
C1972 C1980 1.574 . S
C1972 C1988 1.368 . S
H1973 C1981 0.950 . S
H1974 C1979 0.950 . S
H1975 C1980 0.949 . S
H1976 C1982 0.950 . S
H1977 C1983 0.950 . S
H1978 C1984 0.949 . S
C1979 H1974 0.950 . S
C1979 C1981 1.327 . S
C1979 C1985 1.429 . S
C1980 C1972 1.574 . S
C1980 H1975 0.949 . S
C1980 C1986 1.368 . S
C1981 C1965 1.349 . S
C1981 H1973 0.950 . S
C1981 C1979 1.327 . S
C1982 C1970 1.349 . S
C1982 H1976 0.950 . S
C1982 C1983 1.327 . S
C1983 H1977 0.950 . S
C1983 C1982 1.327 . S
C1983 C1987 1.429 . S
C1984 C1967 1.574 . S
C1984 H1978 0.949 . S
C1984 C1988 1.368 . S
C1985 C1966 1.429 . S
C1985 C1979 1.429 . S
C1985 C1986 1.523 . S
C1986 C1967 1.368 . S
C1986 C1980 1.368 . S
C1986 C1985 1.523 . S
C1987 C1971 1.429 . S
C1987 C1983 1.429 . S
C1987 C1988 1.523 . S
C1988 C1972 1.368 . S
C1988 C1984 1.368 . S
C1988 C1987 1.523 . S
H1989 C1964 0.950 . S
H1990 C1966 0.950 . S
H1991 C1967 0.949 . S
H1992 C1969 0.950 . S
H1993 C1971 0.950 . S
C1994 C1995 1.349 . S
C1994 C1996 1.327 . S
C1994 H2019 0.950 . S
C1995 C1994 1.349 . S
C1995 C2011 1.349 . S
C1996 C1994 1.327 . S
C1996 C2015 1.429 . S
C1996 H2020 0.950 . S
C1997 C2014 1.574 . S
C1997 C2016 1.368 . S
C1997 H2021 0.949 . S
H1998 C2002 0.949 . S
C1999 C2000 1.349 1_465 S
C1999 C2001 1.327 . S
C1999 H2022 0.950 1_455 S
C2000 C1999 1.349 1_645 S
C2000 C2012 1.349 1_655 S
C2001 C1999 1.327 . S
C2001 C2017 1.429 . S
C2001 H2023 0.950 . S
C2002 H1998 0.949 . S
C2002 C2010 1.574 1_545 S
C2002 C2018 1.368 1_545 S
H2003 C2011 0.950 . S
H2004 C2009 0.950 . S
H2005 C2010 0.949 1_545 S
H2006 C2012 0.950 1_655 S
H2007 C2013 0.950 . S
H2008 C2014 0.949 . S
C2009 H2004 0.950 . S
C2009 C2011 1.327 . S
C2009 C2015 1.429 . S
C2010 C2002 1.574 1_565 S
C2010 H2005 0.949 1_565 S
C2010 C2016 1.368 . S
C2011 C1995 1.349 . S
C2011 H2003 0.950 . S
C2011 C2009 1.327 . S
C2012 C2000 1.349 1_455 S
C2012 H2006 0.950 1_455 S
C2012 C2013 1.327 . S
C2013 H2007 0.950 . S
C2013 C2012 1.327 . S
C2013 C2017 1.429 1_545 S
C2014 C1997 1.574 . S
C2014 H2008 0.949 . S
C2014 C2018 1.368 . S
C2015 C1996 1.429 . S
C2015 C2009 1.429 . S
C2015 C2016 1.523 . S
C2016 C1997 1.368 . S
C2016 C2010 1.368 . S
C2016 C2015 1.523 . S
C2017 C2001 1.429 . S
C2017 C2013 1.429 1_565 S
C2017 C2018 1.523 . S
C2018 C2002 1.368 1_565 S
C2018 C2014 1.368 . S
C2018 C2017 1.523 . S
H2019 C1994 0.950 . S
H2020 C1996 0.950 . S
H2021 C1997 0.949 . S
H2022 C1999 0.950 1_655 S
H2023 C2001 0.950 . S
C2024 C2025 1.349 . S
C2024 C2026 1.327 . S
C2024 H2049 0.950 . S
C2025 C2024 1.349 . S
C2025 C2041 1.349 . S
C2026 C2024 1.327 . S
C2026 C2045 1.429 . S
C2026 H2050 0.950 . S
C2027 C2044 1.574 . S
C2027 C2046 1.368 . S
C2027 H2051 0.949 . S
H2028 C2032 0.949 . S
C2029 C2030 1.349 . S
C2029 C2031 1.327 . S
C2029 H2052 0.950 . S
C2030 C2029 1.349 . S
C2030 C2042 1.349 . S
C2031 C2029 1.327 . S
C2031 C2047 1.429 . S
C2031 H2053 0.950 . S
C2032 H2028 0.949 . S
C2032 C2040 1.574 . S
C2032 C2048 1.368 . S
H2033 C2041 0.950 . S
H2034 C2039 0.950 . S
H2035 C2040 0.949 . S
H2036 C2042 0.950 . S
H2037 C2043 0.950 . S
H2038 C2044 0.949 . S
C2039 H2034 0.950 . S
C2039 C2041 1.327 . S
C2039 C2045 1.429 . S
C2040 C2032 1.574 . S
C2040 H2035 0.949 . S
C2040 C2046 1.368 . S
C2041 C2025 1.349 . S
C2041 H2033 0.950 . S
C2041 C2039 1.327 . S
C2042 C2030 1.349 . S
C2042 H2036 0.950 . S
C2042 C2043 1.327 . S
C2043 H2037 0.950 . S
C2043 C2042 1.327 . S
C2043 C2047 1.429 . S
C2044 C2027 1.574 . S
C2044 H2038 0.949 . S
C2044 C2048 1.368 . S
C2045 C2026 1.429 . S
C2045 C2039 1.429 . S
C2045 C2046 1.523 . S
C2046 C2027 1.368 . S
C2046 C2040 1.368 . S
C2046 C2045 1.523 . S
C2047 C2031 1.429 . S
C2047 C2043 1.429 . S
C2047 C2048 1.523 . S
C2048 C2032 1.368 . S
C2048 C2044 1.368 . S
C2048 C2047 1.523 . S
H2049 C2024 0.950 . S
H2050 C2026 0.950 . S
H2051 C2027 0.949 . S
H2052 C2029 0.950 . S
H2053 C2031 0.950 . S
C2054 C2055 1.349 1_565 S
C2054 C2056 1.327 . S
C2054 H2079 0.950 . S
C2055 C2054 1.349 1_545 S
C2055 C2071 1.349 . S
C2056 C2054 1.327 . S
C2056 C2075 1.429 . S
C2056 H2080 0.950 . S
C2057 C2074 1.586 . S
C2057 C2076 1.389 . S
C2057 H2081 0.920 1_565 S
H2058 C2062 0.949 . S
C2059 C2060 1.349 . S
C2059 C2061 1.327 . S
C2059 H2082 0.950 . S
C2060 C2059 1.349 . S
C2060 C2072 1.349 . S
C2061 C2059 1.327 . S
C2061 C2077 1.429 . S
C2061 H2083 0.950 . S
C2062 H2058 0.949 . S
C2062 C2070 1.574 . S
C2062 C2078 1.368 . S
H2063 C2071 0.950 . S
H2064 C2069 0.950 . S
H2065 C2070 0.949 . S
H2066 C2072 0.950 . S
H2067 C2073 0.950 . S
H2068 C2074 0.949 . S
C2069 H2064 0.950 . S
C2069 C2071 1.327 . S
C2069 C2075 1.429 1_545 S
C2070 C2062 1.574 . S
C2070 H2065 0.949 . S
C2070 C2076 1.368 . S
C2071 C2055 1.349 . S
C2071 H2063 0.950 . S
C2071 C2069 1.327 . S
C2072 C2060 1.349 . S
C2072 H2066 0.950 . S
C2072 C2073 1.327 . S
C2073 H2067 0.950 . S
C2073 C2072 1.327 . S
C2073 C2077 1.429 . S
C2074 C2057 1.586 . S
C2074 H2068 0.949 . S
C2074 C2078 1.368 . S
C2075 C2056 1.429 . S
C2075 C2069 1.429 1_565 S
C2075 C2076 1.523 . S
C2076 C2057 1.389 . S
C2076 C2070 1.368 . S
C2076 C2075 1.523 . S
C2077 C2061 1.429 . S
C2077 C2073 1.429 . S
C2077 C2078 1.523 . S
C2078 C2062 1.368 . S
C2078 C2074 1.368 . S
C2078 C2077 1.523 . S
H2079 C2054 0.950 . S
H2080 C2056 0.950 . S
H2081 C2057 0.920 1_545 S
H2082 C2059 0.950 . S
H2083 C2061 0.950 . S
C2084 C2085 1.349 . S
C2084 C2086 1.327 . S
C2084 H2109 0.950 . S
C2085 C2084 1.349 . S
C2085 C2101 1.349 . S
C2086 C2084 1.327 . S
C2086 C2105 1.429 . S
C2086 H2110 0.950 . S
C2087 C2104 1.574 . S
C2087 C2106 1.368 . S
C2087 H2111 0.949 . S
H2088 C2092 0.949 . S
C2089 C2090 1.349 . S
C2089 C2091 1.327 . S
C2089 H2112 0.950 . S
C2090 C2089 1.349 . S
C2090 C2102 1.349 . S
C2091 C2089 1.327 . S
C2091 C2107 1.429 . S
C2091 H2113 0.950 . S
C2092 H2088 0.949 . S
C2092 C2100 1.574 . S
C2092 C2108 1.368 . S
H2093 C2101 0.950 . S
H2094 C2099 0.950 . S
H2095 C2100 0.949 . S
H2096 C2102 0.950 . S
H2097 C2103 0.950 . S
H2098 C2104 0.949 . S
C2099 H2094 0.950 . S
C2099 C2101 1.327 . S
C2099 C2105 1.429 . S
C2100 C2092 1.574 . S
C2100 H2095 0.949 . S
C2100 C2106 1.368 . S
C2101 C2085 1.349 . S
C2101 H2093 0.950 . S
C2101 C2099 1.327 . S
C2102 C2090 1.349 . S
C2102 H2096 0.950 . S
C2102 C2103 1.327 . S
C2103 H2097 0.950 . S
C2103 C2102 1.327 . S
C2103 C2107 1.429 . S
C2104 C2087 1.574 . S
C2104 H2098 0.949 . S
C2104 C2108 1.368 . S
C2105 C2086 1.429 . S
C2105 C2099 1.429 . S
C2105 C2106 1.523 . S
C2106 C2087 1.368 . S
C2106 C2100 1.368 . S
C2106 C2105 1.523 . S
C2107 C2091 1.429 . S
C2107 C2103 1.429 . S
C2107 C2108 1.523 . S
C2108 C2092 1.368 . S
C2108 C2104 1.368 . S
C2108 C2107 1.523 . S
H2109 C2084 0.950 . S
H2110 C2086 0.950 . S
H2111 C2087 0.949 . S
H2112 C2089 0.950 . S
H2113 C2091 0.950 . S
C2114 C2115 1.349 1_645 S
C2114 C2116 1.327 . S
C2114 H2139 0.950 . S
C2115 C2114 1.349 1_465 S
C2115 C2131 1.354 . S
C2116 C2114 1.327 . S
C2116 C2135 1.429 . S
C2116 H2140 0.950 . S
C2117 C2134 1.574 . S
C2117 C2136 1.368 . S
C2117 H2141 0.949 . S
H2118 C2122 0.949 . S
C2119 C2120 1.349 . S
C2119 C2121 1.327 . S
C2119 H2142 0.950 . S
C2120 C2119 1.349 . S
C2120 C2132 1.349 . S
C2121 C2119 1.327 . S
C2121 C2137 1.429 . S
C2121 H2143 0.950 . S
C2122 H2118 0.949 . S
C2122 C2130 1.574 . S
C2122 C2138 1.368 . S
H2123 C2131 0.960 . S
H2124 C2129 0.950 . S
H2125 C2130 0.949 . S
H2126 C2132 0.950 . S
H2127 C2133 0.950 . S
H2128 C2134 0.949 . S
C2129 H2124 0.950 . S
C2129 C2131 1.312 1_655 S
C2129 C2135 1.429 1_565 S
C2130 C2122 1.574 . S
C2130 H2125 0.949 . S
C2130 C2136 1.368 . S
C2131 C2115 1.354 . S
C2131 H2123 0.960 . S
C2131 C2129 1.312 1_455 S
C2132 C2120 1.349 . S
C2132 H2126 0.950 . S
C2132 C2133 1.327 . S
C2133 H2127 0.950 . S
C2133 C2132 1.327 . S
C2133 C2137 1.429 . S
C2134 C2117 1.574 . S
C2134 H2128 0.949 . S
C2134 C2138 1.368 . S
C2135 C2116 1.429 . S
C2135 C2129 1.429 1_545 S
C2135 C2136 1.523 . S
C2136 C2117 1.368 . S
C2136 C2130 1.368 . S
C2136 C2135 1.523 . S
C2137 C2121 1.429 . S
C2137 C2133 1.429 . S
C2137 C2138 1.523 . S
C2138 C2122 1.368 . S
C2138 C2134 1.368 . S
C2138 C2137 1.523 . S
H2139 C2114 0.950 . S
H2140 C2116 0.950 . S
H2141 C2117 0.949 . S
H2142 C2119 0.950 . S
H2143 C2121 0.950 . S
C465 C224 2.283 . S
C470 C5 2.337 . S
C495 C369 2.658 . S
C500 C39 2.751 . S
C525 C63 2.758 . S
C530 C166 2.723 . S
C555 C427 2.460 . S
C560 C92 2.485 . S
C585 C108 2.552 . S
C590 C121 2.582 . S
C615 C150 2.700 . S
C620 C253 2.604 . S
C645 C179 2.592 . S
C650 C37 2.393 . S
C675 C311 2.600 . S
C680 C208 2.612 . S
C705 C456 2.283 . S
C710 C237 2.337 . S
C735 C271 2.751 . S
C740 C137 2.658 . S
C765 C398 2.723 . S
C770 C295 2.758 . S
C795 C195 2.460 . S
C800 C324 2.485 . S
C825 C340 2.552 . S
C830 C353 2.582 . S
C855 C382 2.700 . S
C860 C21 2.604 . S
C885 C411 2.592 . S
C890 C269 2.393 . S
C915 C79 2.600 . S
C920 C440 2.612 . S
C945 C282 1.035 . S
C950 C3 1.028 . S
C975 C44 0.695 . S
C980 C298 0.680 . S
C1005 C61 0.572 . S
C1010 C327 0.533 . S
C1035 C90 0.816 . S
C1040 C240 0.825 . S
C1065 C385 0.442 . S
C1070 C119 0.446 . S
C1095 C148 1.315 . S
C1100 C414 1.343 . S
C1125 C443 0.802 . S
C1130 C177 0.797 . S
C1155 C206 1.126 . S
C1160 C356 1.161 . S
C1185 C50 1.035 . S
C1190 C235 1.028 . S
C1215 C66 0.680 . S
C1220 C276 0.695 . S
C1245 C95 0.533 . S
C1250 C293 0.572 . S
C1275 C8 0.825 . S
C1280 C322 0.816 . S
C1305 C351 0.446 . S
C1310 C153 0.442 . S
C1335 C182 1.343 . S
C1340 C380 1.315 . S
C1365 C211 0.802 . S
C1370 C409 0.797 . S
C1395 C438 1.126 . S
C1400 C124 1.161 . S
C1425 C129 1.856 . S
C1430 C13 1.859 . S
C1455 C42 1.781 . S
C1460 C390 1.835 . S
C1485 C187 1.539 . S
C1490 C71 1.540 . S
C1515 C448 1.948 . S
C1520 C100 1.946 . S
C1545 C274 1.781 . S
C1550 C158 1.835 . S
C1575 C216 1.948 . S
C1580 C332 1.946 . S
C1605 C245 1.859 . S
C1610 C361 1.856 . S
C1635 C303 1.540 . S
C1640 C419 1.539 . S
C1665 C218 1.384 . S
C1670 C10 1.346 1_565 S
C1695 C363 1.583 . S
C1700 C34 1.505 . S
C1725 C68 0.954 1_545 S
C1730 C160 0.973 . S
C1755 C97 1.646 . S
C1760 C421 1.671 . S
C1785 C126 1.252 . S
C1790 C102 1.260 . S
C1815 C155 1.616 . S
C1820 C247 1.681 . S
C1845 C184 1.845 1_565 S
C1850 C32 1.905 . S
C1875 C305 1.821 . S
C1880 C213 1.781 . S
C1905 C242 1.346 . S
C1910 C450 1.384 . S
C1935 C131 1.583 1_545 S
C1940 C266 1.505 . S
C1965 C392 0.973 . S
C1970 C300 0.954 . S
C1995 C329 1.646 . S
C2000 C189 1.671 . S
C2025 C334 1.260 . S
C2030 C358 1.230 . S
C2055 C15 1.681 . S
C2060 C387 1.616 . S
C2085 C416 1.845 . S
C2090 C264 1.905 . S
C2115 C73 1.821 . S
C2120 C445 1.781 . S
