# Generated by pormake.
# Topology smu, (6)-cn, num edge types: 1
# Building blocks:
#     Node 0, Type 0, BuildingBlock: BETGAK_clean_sbu_0, # of connection points: 6
#     Node 1, Type 0, BuildingBlock: BETGAK_clean_sbu_0, # of connection points: 6
#     Node 2, Type 0, BuildingBlock: BETGAK_clean_sbu_0, # of connection points: 6
#     Node 3, Type 0, BuildingBlock: BETGAK_clean_sbu_0, # of connection points: 6
#     Node 4, Type 0, BuildingBlock: BETGAK_clean_sbu_0, # of connection points: 6
#     Node 5, Type 0, BuildingBlock: BETGAK_clean_sbu_0, # of connection points: 6
#     Edge 6, Type (0, 0), BuildingBlock: KIFKEQ_clean_linker_1, # of connection points: 2
#     Edge 7, Type (0, 0), BuildingBlock: KIFKEQ_clean_linker_1, # of connection points: 2
#     Edge 8, Type (0, 0), BuildingBlock: KIFKEQ_clean_linker_1, # of connection points: 2
#     Edge 9, Type (0, 0), BuildingBlock: KIFKEQ_clean_linker_1, # of connection points: 2
#     Edge 10, Type (0, 0), BuildingBlock: KIFKEQ_clean_linker_1, # of connection points: 2
#     Edge 11, Type (0, 0), BuildingBlock: KIFKEQ_clean_linker_1, # of connection points: 2
#     Edge 12, Type (0, 0), BuildingBlock: KIFKEQ_clean_linker_1, # of connection points: 2
#     Edge 13, Type (0, 0), BuildingBlock: KIFKEQ_clean_linker_1, # of connection points: 2
#     Edge 14, Type (0, 0), BuildingBlock: KIFKEQ_clean_linker_1, # of connection points: 2
#     Edge 15, Type (0, 0), BuildingBlock: KIFKEQ_clean_linker_1, # of connection points: 2
#     Edge 16, Type (0, 0), BuildingBlock: KIFKEQ_clean_linker_1, # of connection points: 2
#     Edge 17, Type (0, 0), BuildingBlock: KIFKEQ_clean_linker_1, # of connection points: 2
#     Edge 18, Type (0, 0), BuildingBlock: KIFKEQ_clean_linker_1, # of connection points: 2
#     Edge 19, Type (0, 0), BuildingBlock: KIFKEQ_clean_linker_1, # of connection points: 2
#     Edge 20, Type (0, 0), BuildingBlock: KIFKEQ_clean_linker_1, # of connection points: 2
#     Edge 21, Type (0, 0), BuildingBlock: KIFKEQ_clean_linker_1, # of connection points: 2
#     Edge 22, Type (0, 0), BuildingBlock: KIFKEQ_clean_linker_1, # of connection points: 2
#     Edge 23, Type (0, 0), BuildingBlock: KIFKEQ_clean_linker_1, # of connection points: 2
# Relax obj value: 0.217
# Max RMSD: 0.310
# Mean RMSD: 0.310
data_MOF--net-smu--node1-BETGAK_clean_sbu_0--edge1-KIFKEQ_clean_linker_1
_symmetry_space_group_name_H-M    P1
_symmetry_Int_Tables_number       1
_symmetry_cell_setting            triclinic
loop_
_symmetry_equiv_pos_as_xyz
'x, y, z'
_cell_length_a     39.874251
_cell_length_b     39.676505
_cell_length_c     26.675551
_cell_angle_alpha  90.126706
_cell_angle_beta   89.559435
_cell_angle_gamma 119.92756
loop_
_atom_site_label
_atom_site_type_symbol
_atom_site_fract_x
_atom_site_fract_y
_atom_site_fract_z
_atom_type_partial_charge
La0 La 0.39695 0.10208 0.29603 0.0
La1 La 0.33824 0.12682 0.31194 0.0
C2 C 0.45428 0.0954 0.2662 0.0
C3 C 0.4975 0.11873 0.26869 0.0
C4 C 0.51657 0.14109 0.31115 0.0
C5 C 0.55713 0.15963 0.31507 0.0
C6 C 0.57996 0.15661 0.27655 0.0
C7 C 0.56077 0.13516 0.23344 0.0
C8 C 0.52018 0.11642 0.2297 0.0
C9 C 0.37123 0.09153 0.38935 0.0
C10 C 0.42685 0.19256 0.30866 0.0
C11 C 0.29993 0.15905 0.33877 0.0
C12 C 0.26576 0.16391 0.33118 0.0
C13 C 0.25468 0.16891 0.28304 0.0
C14 C 0.22879 0.18288 0.27711 0.0
C15 C 0.21351 0.19233 0.31916 0.0
C16 C 0.22292 0.18501 0.3672 0.0
C17 C 0.24876 0.17107 0.37308 0.0
C18 C 0.33582 0.09906 0.22015 0.0
C19 C 0.30905 0.03871 0.30787 0.0
O20 O 0.43594 0.08193 0.30859 0.0
O21 O 0.43635 0.10822 0.23796 0.0
O22 O 0.38247 0.07036 0.36589 0.0
O23 O 0.37739 0.12057 0.36186 0.0
O24 O 0.43656 0.16518 0.30664 0.0
O25 O 0.39035 0.18346 0.31001 0.0
O26 O 0.32575 0.17151 0.30275 0.0
O27 O 0.29618 0.12774 0.36064 0.0
O28 O 0.30677 0.0977 0.24381 0.0
O29 O 0.36598 0.11925 0.24621 0.0
O30 O 0.30497 0.0659 0.33122 0.0
O31 O 0.34153 0.04721 0.28278 0.0
H32 H 0.50005 0.14366 0.34185 0.0
H33 H 0.57061 0.1763 0.34852 0.0
H34 H 0.57701 0.13172 0.20311 0.0
H35 H 0.50639 0.09927 0.19666 0.0
H36 H 0.26754 0.16397 0.24994 0.0
H37 H 0.22238 0.18818 0.23954 0.0
H38 H 0.2111 0.19105 0.40047 0.0
H39 H 0.25703 0.16781 0.41058 0.0
La40 La 0.75074 0.66261 0.292 0.0
La41 La 0.83454 0.72097 0.30234 0.0
C42 C 0.68188 0.61298 0.2679 0.0
C43 C 0.65788 0.56972 0.27276 0.0
C44 C 0.66247 0.54948 0.313 0.0
C45 C 0.63969 0.50867 0.31668 0.0
C46 C 0.6117 0.48681 0.28014 0.0
C47 C 0.60773 0.50734 0.23957 0.0
C48 C 0.63042 0.54808 0.23602 0.0
C49 C 0.7744 0.67738 0.38841 0.0
C50 C 0.8086 0.63201 0.30437 0.0
C51 C 0.90577 0.75783 0.32364 0.0
C52 C 0.94547 0.7909 0.31464 0.0
C53 C 0.96444 0.79662 0.26806 0.0
C54 C 1.00428 0.82305 0.26331 0.0
C55 C 1.02616 0.8443 0.30502 0.0
C56 C 1.00666 0.83939 0.35107 0.0
C57 C 0.96694 0.81308 0.35575 0.0
C58 C 0.80781 0.71854 0.21045 0.0
C59 C 0.77888 0.75365 0.2999 0.0
O60 O 0.69104 0.6334 0.30919 0.0
O61 O 0.71139 0.62614 0.23712 0.0
O62 O 0.74945 0.64381 0.37025 0.0
O63 O 0.78551 0.70054 0.35183 0.0
O64 O 0.77594 0.62467 0.28298 0.0
O65 O 0.83096 0.66628 0.32454 0.0
O66 O 0.89051 0.73077 0.28932 0.0
O67 O 0.8799 0.76375 0.34639 0.0
O68 O 0.83651 0.74851 0.2309 0.0
O69 O 0.79799 0.68945 0.2394 0.0
O70 O 0.81193 0.75909 0.31831 0.0
O71 O 0.75202 0.71924 0.28168 0.0
H72 H 0.68362 0.56523 0.34178 0.0
H73 H 0.64361 0.49439 0.34879 0.0
H74 H 0.58728 0.49194 0.20999 0.0
H75 H 0.62651 0.56274 0.20428 0.0
H76 H 0.94883 0.77974 0.23566 0.0
H77 H 1.01803 0.8264 0.22707 0.0
H78 H 1.02236 0.85462 0.38431 0.0
H79 H 0.95333 0.80875 0.3923 0.0
La80 La 0.96016 0.31344 0.29409 0.0
La81 La 0.93079 0.22774 0.30294 0.0
C82 C 0.98156 0.38343 0.27075 0.0
C83 C 0.96298 0.4079 0.27616 0.0
C84 C 0.92831 0.39477 0.30347 0.0
C85 C 0.91031 0.41754 0.30684 0.0
C86 C 0.92643 0.45415 0.28294 0.0
C87 C 0.96118 0.46699 0.25553 0.0
C88 C 0.97911 0.44421 0.25221 0.0
C89 C 0.94941 0.28754 0.38983 0.0
C90 C 0.87096 0.2577 0.30469 0.0
C91 C 0.89472 0.15623 0.32521 0.0
C92 C 0.8884 0.11658 0.31626 0.0
C93 C 0.87766 0.09859 0.269 0.0
C94 C 0.86476 0.05875 0.26375 0.0
C95 C 0.86222 0.03598 0.30562 0.0
C96 C 0.87431 0.05452 0.35245 0.0
C97 C 0.88718 0.09422 0.35763 0.0
C98 C 0.95556 0.25542 0.21123 0.0
C99 C 1.01964 0.28106 0.29915 0.0
O100 O 0.99176 0.37322 0.31195 0.0
O101 O 0.96471 0.35412 0.23991 0.0
O102 O 0.9425 0.314 0.37261 0.0
O103 O 0.9608 0.27625 0.35266 0.0
O104 O 0.89784 0.29062 0.28468 0.0
O105 O 0.88055 0.23321 0.32404 0.0
O106 O 0.88411 0.17197 0.29019 0.0
O107 O 0.92605 0.18187 0.3484 0.0
O108 O 0.95426 0.22469 0.2297 0.0
O109 O 0.93808 0.2664 0.24161 0.0
O110 O 0.99105 0.24767 0.31625 0.0
O111 O 1.01397 0.30979 0.28309 0.0
H112 H 0.91506 0.36679 0.32215 0.0
H113 H 0.88397 0.40658 0.3288 0.0
H114 H 0.97435 0.49451 0.23577 0.0
H115 H 1.00555 0.45489 0.23044 0.0
H116 H 0.87799 0.11495 0.23637 0.0
H117 H 0.85628 0.04569 0.22699 0.0
H118 H 0.87231 0.03804 0.38575 0.0
H119 H 0.89458 0.10713 0.39462 0.0
La120 La 0.13202 0.32355 0.80242 0.0
La121 La 0.10723 0.38619 0.78657 0.0
C122 C 0.16432 0.28534 0.82825 0.0
C123 C 0.17274 0.25338 0.81869 0.0
C124 C 0.18204 0.24584 0.77047 0.0
C125 C 0.19817 0.22163 0.76411 0.0
C126 C 0.20577 0.20484 0.80586 0.0
C127 C 0.19455 0.21094 0.85367 0.0
C128 C 0.17826 0.23486 0.85994 0.0
C129 C 0.10555 0.3247 0.71091 0.0
C130 C 0.04534 0.29673 0.80595 0.0
C131 C 0.09658 0.43865 0.74881 0.0
C132 C 0.113 0.48123 0.75816 0.0
C133 C 0.08884 0.49761 0.75789 0.0
C134 C 0.10411 0.53784 0.7648 0.0
C135 C 0.14413 0.56301 0.77199 0.0
C136 C 0.1682 0.54638 0.77266 0.0
C137 C 0.15288 0.50616 0.766 0.0
C138 C 0.10774 0.3724 0.88515 0.0
C139 C 0.19661 0.41409 0.80223 0.0
O140 O 0.17922 0.31462 0.79684 0.0
O141 O 0.1303 0.27771 0.84552 0.0
O142 O 0.1059 0.29512 0.73071 0.0
O143 O 0.1244 0.3534 0.73983 0.0
O144 O 0.07291 0.29307 0.82812 0.0
O145 O 0.05286 0.32868 0.77984 0.0
O146 O 0.07416 0.41448 0.78364 0.0
O147 O 0.12036 0.42799 0.73024 0.0
O148 O 0.10078 0.39804 0.86546 0.0
O149 O 0.11788 0.35876 0.84867 0.0
O150 O 0.17062 0.42407 0.78969 0.0
O151 O 0.18654 0.37779 0.81317 0.0
H152 H 0.17848 0.26003 0.73795 0.0
H153 H 0.20643 0.21763 0.72676 0.0
H154 H 0.19922 0.19792 0.88659 0.0
H155 H 0.17173 0.24043 0.89753 0.0
H156 H 0.05806 0.47929 0.7518 0.0
H157 H 0.08454 0.5493 0.76343 0.0
H158 H 0.19899 0.5644 0.77882 0.0
H159 H 0.17241 0.49463 0.76672 0.0
La160 La 0.23416 0.92652 0.8127 0.0
La161 La 0.31447 0.94444 0.79048 0.0
C162 C 0.16674 0.90262 0.84963 0.0
C163 C 0.12489 0.88444 0.83611 0.0
C164 C 0.10336 0.84614 0.81775 0.0
C165 C 0.06306 0.82858 0.81075 0.0
C166 C 0.0431 0.84868 0.82232 0.0
C167 C 0.06504 0.88734 0.83934 0.0
C168 C 0.10515 0.90481 0.84623 0.0
C169 C 0.25457 0.94859 0.71757 0.0
C170 C 0.29642 1.01207 0.80243 0.0
C171 C 0.37406 0.94363 0.75566 0.0
C172 C 0.39565 0.92194 0.76283 0.0
C173 C 0.40219 0.91148 0.81069 0.0
C174 C 0.42566 0.89444 0.81678 0.0
C175 C 0.44334 0.88716 0.77523 0.0
C176 C 0.4359 0.89689 0.7273 0.0
C177 C 0.41256 0.91404 0.72129 0.0
C178 C 0.3076 0.96161 0.88451 0.0
C179 C 0.24886 0.85651 0.80121 0.0
O180 O 0.18358 0.88166 0.84696 0.0
O181 O 0.18998 0.93821 0.8348 0.0
O182 O 0.22803 0.9513 0.74225 0.0
O183 O 0.26504 0.9291 0.74435 0.0
O184 O 0.26804 0.98731 0.83183 0.0
O185 O 0.31611 1.00018 0.77366 0.0
O186 O 0.37453 0.96552 0.79245 0.0
O187 O 0.33992 0.92544 0.73504 0.0
O188 O 0.33839 0.9785 0.85691 0.0
O189 O 0.28109 0.93239 0.86053 0.0
O190 O 0.28591 0.88189 0.8087 0.0
O191 O 0.22375 0.86852 0.79477 0.0
H192 H 0.11745 0.82937 0.80988 0.0
H193 H 0.04737 0.79876 0.79789 0.0
H194 H 0.05118 0.90422 0.8478 0.0
H195 H 0.1207 0.93421 0.86069 0.0
H196 H 0.38964 0.91701 0.84364 0.0
H197 H 0.42992 0.88695 0.85428 0.0
H198 H 0.44909 0.89237 0.69425 0.0
H199 H 0.40844 0.92199 0.68396 0.0
La200 La 0.72977 0.8182 0.80442 0.0
La201 La 0.66845 0.7296 0.7899 0.0
C202 C 0.76698 0.88903 0.82995 0.0
C203 C 0.80026 0.92909 0.82241 0.0
C204 C 0.80897 0.94751 0.77521 0.0
C205 C 0.83505 0.98766 0.77079 0.0
C206 C 0.85307 1.01052 0.81341 0.0
C207 C 0.8453 0.99156 0.86026 0.0
C208 C 0.81929 0.95151 0.86463 0.0
C209 C 0.72903 0.78978 0.71327 0.0
C210 C 0.75858 0.75869 0.80488 0.0
C211 C 0.61549 0.66677 0.75235 0.0
C212 C 0.57269 0.64201 0.76045 0.0
C213 C 0.55529 0.63844 0.80775 0.0
C214 C 0.51481 0.61578 0.81404 0.0
C215 C 0.4904 0.59622 0.77317 0.0
C216 C 0.50809 0.60011 0.72586 0.0
C217 C 0.54852 0.62259 0.71968 0.0
C218 C 0.68389 0.74576 0.88798 0.0
C219 C 0.63878 0.79048 0.80483 0.0
O220 O 0.74059 0.87498 0.79498 0.0
O221 O 0.77202 0.86204 0.85121 0.0
O222 O 0.75809 0.82036 0.7324 0.0
O223 O 0.70034 0.77955 0.74269 0.0
O224 O 0.76291 0.79106 0.82543 0.0
O225 O 0.72594 0.73284 0.7816 0.0
O226 O 0.63845 0.6682 0.78827 0.0
O227 O 0.62735 0.7012 0.733 0.0
O228 O 0.65921 0.71227 0.86946 0.0
O229 O 0.69541 0.76885 0.85073 0.0
O230 O 0.62962 0.75409 0.79523 0.0
O231 O 0.67491 0.81799 0.81298 0.0
H232 H 0.7946 0.9312 0.74188 0.0
H233 H 0.84066 1.00087 0.73395 0.0
H234 H 0.858 1.00793 0.89416 0.0
H235 H 0.81264 0.93836 0.90158 0.0
H236 H 0.57297 0.65342 0.83987 0.0
H237 H 0.5026 0.61414 0.85095 0.0
H238 H 0.49074 0.58531 0.69347 0.0
H239 H 0.56097 0.62488 0.68274 0.0
H240 H 0.25479 0.93056 0.96598 0.0
H241 H 0.35973 0.03257 0.91724 0.0
H242 H 0.26127 0.96144 1.04876 0.0
H243 H 0.36581 0.06281 0.99749 0.0
H244 H 0.39228 0.09789 0.1595 0.0
H245 H 0.38292 0.0613 0.08181 0.0
H246 H 0.25944 1.01407 0.09438 0.0
H247 H 0.26891 0.04988 0.17231 0.0
C248 C 0.27897 0.95942 0.97259 0.0
C249 C 0.3069 0.97862 0.93473 0.0
C250 C 0.28282 0.97726 1.02009 0.0
C251 C 0.3147 1.01462 1.03075 0.0
C252 C 0.34162 0.03376 0.99204 0.0
C253 C 0.33781 1.01622 0.94535 0.0
C254 C 0.36319 0.07951 0.14592 0.0
C255 C 0.33151 0.07709 0.17242 0.0
C256 C 0.35766 0.05856 0.10098 0.0
C257 C 0.32024 0.03454 0.08101 0.0
C258 C 0.2886 0.03171 0.10826 0.0
C259 C 0.29417 0.05272 0.15295 0.0
H260 H 0.77497 0.82578 0.63302 0.0
H261 H 0.69117 0.71157 0.68553 0.0
H262 H 0.78531 0.79819 0.55746 0.0
H263 H 0.70319 0.68287 0.61119 0.0
H264 H 0.71208 0.64076 0.45331 0.0
H265 H 0.69919 0.66637 0.52952 0.0
H266 H 0.81244 0.76897 0.51678 0.0
H267 H 0.82355 0.74421 0.43866 0.0
C268 C 0.75867 0.79449 0.62839 0.0
C269 C 0.73181 0.77111 0.66541 0.0
C270 C 0.76509 0.77831 0.58493 0.0
C271 C 0.74583 0.73768 0.57707 0.0
C272 C 0.71855 0.7142 0.61434 0.0
C273 C 0.71143 0.73067 0.65748 0.0
C274 C 0.7344 0.66864 0.46712 0.0
C275 C 0.76904 0.69025 0.43958 0.0
C276 C 0.72702 0.68356 0.5114 0.0
C277 C 0.7543 0.72047 0.5305 0.0
C278 C 0.78969 0.74117 0.50361 0.0
C279 C 0.79661 0.72662 0.45878 0.0
H280 H 1.00417 0.33332 0.18857 0.0
H281 H 0.95795 0.21869 0.12635 0.0
H282 H 0.04474 0.36105 0.1145 0.0
H283 H 0.99697 0.24602 0.05073 0.0
H284 H 0.09028 0.30073 0.92869 0.0
H285 H 0.05495 0.2733 1.00767 0.0
H286 H 0.05114 0.37896 1.03357 0.0
H287 H 0.08764 0.40628 0.95753 0.0
C288 C 1.00144 0.31411 0.15822 0.0
C289 C 0.9766 0.27383 0.16311 0.0
C290 C 1.02516 0.32998 0.11528 0.0
C291 C 1.02459 0.30618 0.07514 0.0
C292 C 0.99929 0.26577 0.08029 0.0
C293 C 0.9762 0.24997 0.12363 0.0
C294 C 0.08267 0.3183 0.95201 0.0
C295 C 0.09217 0.35591 0.9364 0.0
C296 C 0.06171 0.30237 0.99727 0.0
C297 C 0.04936 0.32346 1.0281 0.0
C298 C 0.06017 0.36148 1.01255 0.0
C299 C 0.08123 0.37731 0.96812 0.0
H300 H 0.40898 0.08177 0.46646 0.0
H301 H 0.30125 0.07617 0.43082 0.0
H302 H 0.38207 0.04908 0.54599 0.0
H303 H 0.27307 0.04138 0.50919 0.0
H304 H 0.23612 0.99706 0.66876 0.0
H305 H 0.26563 0.03669 0.59479 0.0
H306 H 0.34225 0.98934 0.58206 0.0
H307 H 0.31352 0.95098 0.65824 0.0
C308 C 0.37969 0.07443 0.47634 0.0
C309 C 0.35773 0.08267 0.44262 0.0
C310 C 0.36379 0.05469 0.5217 0.0
C311 C 0.32482 0.04142 0.53467 0.0
C312 C 0.30326 0.05118 0.50164 0.0
C313 C 0.31952 0.0716 0.45645 0.0
C314 C 0.25926 0.99495 0.65017 0.0
C315 C 0.2724 0.9707 0.66989 0.0
C316 C 0.27621 1.01776 0.60715 0.0
C317 C 0.30674 1.01686 0.5814 0.0
C318 C 0.3195 0.99194 0.60083 0.0
C319 C 0.30274 0.96941 0.64449 0.0
H320 H 0.75882 0.79724 0.92299 0.0
H321 H 0.65012 0.6981 0.96686 0.0
H322 H 0.78861 0.78965 0.99912 0.0
H323 H 0.679 0.69117 1.04314 0.0
H324 H 0.74848 0.66078 0.15234 0.0
H325 H 0.71951 0.66987 0.07632 0.0
H326 H 0.79553 0.79407 0.08652 0.0
H327 H 0.82453 0.78477 0.16095 0.0
C328 C 0.74099 0.77442 0.94927 0.0
C329 C 0.70191 0.74836 0.93833 0.0
C330 C 0.7581 0.76985 0.99327 0.0
C331 C 0.73663 0.73921 1.02787 0.0
C332 C 0.69716 0.71443 1.01751 0.0
C333 C 0.6803 0.71886 0.97375 0.0
C334 C 0.75883 0.68995 0.13844 0.0
C335 C 0.78884 0.7219 0.16342 0.0
C336 C 0.74214 0.69538 0.09464 0.0
C337 C 0.75485 0.73296 0.07437 0.0
C338 C 0.78501 0.76466 0.09961 0.0
C339 C 0.80162 0.75921 0.14297 0.0
H340 H 0.97746 0.34954 0.45522 0.0
H341 H 0.96397 0.23547 0.43862 0.0
H342 H 1.01544 0.36009 0.53048 0.0
H343 H 0.99932 0.24428 0.51602 0.0
H344 H 0.09267 0.27737 0.63119 0.0
H345 H 0.05497 0.26868 0.55653 0.0
H346 H 1.02732 0.35474 0.61137 0.0
H347 H 0.06769 0.36496 0.6845 0.0
C348 C 0.98169 0.32614 0.46845 0.0
C349 C 0.96727 0.29147 0.44061 0.0
C350 C 1.00367 0.33215 0.51221 0.0
C351 C 1.01158 0.30342 0.53058 0.0
C352 C 0.99556 0.26805 0.50342 0.0
C353 C 0.9744 0.26248 0.45902 0.0
C354 C 0.07894 0.29486 0.62694 0.0
C355 C 0.08395 0.32236 0.66381 0.0
C356 C 0.0565 0.28944 0.58402 0.0
C357 C 0.03686 0.31044 0.57667 0.0
C358 C 0.04203 0.33815 0.61398 0.0
C359 C 0.06544 0.34424 0.65647 0.0
H360 H 0.63739 0.19345 0.20468 0.0
H361 H 0.62133 0.16046 0.36084 0.0
H362 H 0.70712 0.21985 0.21305 0.0
H363 H 0.69095 0.1876 0.36946 0.0
H364 H 0.80978 0.19549 0.35086 0.0
H365 H 0.74106 0.17357 0.34478 0.0
H366 H 0.76695 0.27175 0.24997 0.0
H367 H 0.83621 0.29371 0.25584 0.0
C368 C 0.64861 0.19183 0.24088 0.0
C369 C 0.62324 0.17455 0.28199 0.0
C370 C 0.68885 0.20742 0.24583 0.0
C371 C 0.70512 0.20595 0.29196 0.0
C372 C 0.67977 0.18903 0.33315 0.0
C373 C 0.63964 0.17376 0.32831 0.0
C374 C 0.80105 0.21275 0.329 0.0
C375 C 0.82896 0.24653 0.3039 0.0
C376 C 0.76137 0.20016 0.32567 0.0
C377 C 0.74796 0.22069 0.29681 0.0
C378 C 0.77589 0.25481 0.27213 0.0
C379 C 0.81577 0.26764 0.27583 0.0
H380 H 0.5353 0.44108 0.2531 0.0
H381 H 0.62977 0.43242 0.3174 0.0
H382 H 0.49404 0.37113 0.25975 0.0
H383 H 0.58757 0.36206 0.32621 0.0
H384 H 0.50641 0.22902 0.29033 0.0
H385 H 0.55224 0.29927 0.28351 0.0
H386 H 0.46022 0.32261 0.32063 0.0
H387 H 0.41504 0.25359 0.32642 0.0
C388 C 0.54753 0.4244 0.26853 0.0
C389 C 0.58628 0.4431 0.2846 0.0
C390 C 0.52347 0.38395 0.27306 0.0
C391 C 0.53701 0.36039 0.29409 0.0
C392 C 0.57591 0.37888 0.30961 0.0
C393 C 0.60009 0.41954 0.30509 0.0
C394 C 0.4961 0.24921 0.29733 0.0
C395 C 0.4567 0.23518 0.3085 0.0
C396 C 0.52244 0.28964 0.29349 0.0
C397 C 0.51008 0.31712 0.30063 0.0
C398 C 0.47096 0.30281 0.3134 0.0
C399 C 0.44488 0.2628 0.31714 0.0
H400 H 0.96118 0.53405 0.28907 0.0
H401 H 0.84826 0.43099 0.28545 0.0
H402 H 0.93118 0.57428 0.29393 0.0
H403 H 0.81809 0.47139 0.29263 0.0
H404 H 0.77761 0.56076 0.25588 0.0
H405 H 0.80456 0.51715 0.25082 0.0
H406 H 0.89738 0.5936 0.34881 0.0
H407 H 0.87117 0.63712 0.35285 0.0
C408 C 0.9299 0.51978 0.2892 0.0
C409 C 0.90744 0.47891 0.28673 0.0
C410 C 0.91252 0.54302 0.29274 0.0
C411 C 0.87193 0.52641 0.29412 0.0
C412 C 0.84936 0.48554 0.29136 0.0
C413 C 0.86679 0.46221 0.28785 0.0
C414 C 0.80359 0.56807 0.27666 0.0
C415 C 0.82215 0.60278 0.30456 0.0
C416 C 0.81911 0.54295 0.27385 0.0
C417 C 0.85368 0.5518 0.29884 0.0
C418 C 0.87137 0.58595 0.32792 0.0
C419 C 0.85599 0.61093 0.33062 0.0
H420 H 0.21321 0.6233 0.73562 0.0
H421 H 0.1128 0.60153 0.82304 0.0
H422 H 0.23914 0.69319 0.74446 0.0
H423 H 0.13875 0.67129 0.83209 0.0
H424 H 0.17408 0.79681 0.79283 0.0
H425 H 0.15021 0.72741 0.78682 0.0
H426 H 0.26696 0.74833 0.79973 0.0
H427 H 0.29108 0.81838 0.80472 0.0
C428 C 0.19676 0.63328 0.75725 0.0
C429 C 0.16063 0.60627 0.77836 0.0
C430 C 0.21175 0.67361 0.76239 0.0
C431 C 0.19117 0.68843 0.78885 0.0
C432 C 0.15529 0.66138 0.81052 0.0
C433 C 0.14029 0.6211 0.80531 0.0
C434 C 0.19484 0.78681 0.79451 0.0
C435 C 0.23467 0.81361 0.79931 0.0
C436 C 0.181 0.74667 0.7914 0.0
C437 C 0.20643 0.73167 0.79292 0.0
C438 C 0.24634 0.75849 0.79786 0.0
C439 C 0.26024 0.79881 0.80111 0.0
H440 H 0.45252 0.83543 0.71439 0.0
H441 H 0.49567 0.90106 0.85108 0.0
H442 H 0.49758 0.81104 0.72341 0.0
H443 H 0.53978 0.87576 0.86088 0.0
H444 H 0.64542 0.86031 0.83282 0.0
H445 H 0.59798 0.88158 0.82687 0.0
H446 H 0.51409 0.76891 0.76976 0.0
H447 H 0.56205 0.74762 0.77523 0.0
C448 C 0.4715 0.84474 0.74648 0.0
C449 C 0.4701 0.87057 0.78183 0.0
C450 C 0.49722 0.83027 0.75199 0.0
C451 C 0.52281 0.84126 0.79289 0.0
C452 C 0.52111 0.86677 0.82848 0.0
C453 C 0.49526 0.88104 0.82313 0.0
C454 C 0.61681 0.83976 0.8193 0.0
C455 C 0.60794 0.80202 0.80463 0.0
C456 C 0.58931 0.85204 0.8161 0.0
C457 C 0.55175 0.8272 0.79777 0.0
C458 C 0.54266 0.78924 0.78355 0.0
C459 C 0.5702 0.77682 0.78711 0.0
H460 H 0.25629 0.40531 0.83733 0.0
H461 H 0.23444 0.49004 0.76631 0.0
H462 H 0.32549 0.44996 0.83155 0.0
H463 H 0.30434 0.53539 0.7612 0.0
H464 H 0.43259 0.58774 0.70863 0.0
H465 H 0.36262 0.54634 0.71782 0.0
H466 H 0.37877 0.50838 0.86256 0.0
H467 H 0.44869 0.54876 0.85267 0.0
C468 C 0.26611 0.4337 0.82093 0.0
C469 C 0.2392 0.44376 0.80239 0.0
C470 C 0.30617 0.45961 0.81785 0.0
C471 C 0.32114 0.49667 0.79588 0.0
C472 C 0.29426 0.50707 0.7779 0.0
C473 C 0.25396 0.4811 0.78128 0.0
C474 C 0.42137 0.57041 0.74236 0.0
C475 C 0.44691 0.57176 0.77971 0.0
C476 C 0.38093 0.54689 0.74793 0.0
C477 C 0.36444 0.52359 0.79094 0.0
C478 C 0.38998 0.52533 0.82854 0.0
C479 C 0.43037 0.549 0.8231 0.0
H480 H 0.21595 0.25154 0.37525 0.0
H481 H 0.15729 0.17755 0.24904 0.0
H482 H 0.17646 0.28223 0.36734 0.0
H483 H 0.11769 0.20836 0.24111 0.0
H484 H 0.05897 0.28082 0.38034 0.0
H485 H 0.11009 0.26426 0.38259 0.0
H486 H 0.11582 0.26757 0.22072 0.0
H487 H 0.06399 0.28397 0.21896 0.0
C488 C 0.19443 0.24155 0.34598 0.0
C489 C 0.18957 0.21156 0.31324 0.0
C490 C 0.17187 0.25938 0.34127 0.0
C491 C 0.14372 0.24784 0.30363 0.0
C492 C 0.13946 0.21851 0.27008 0.0
C493 C 0.16208 0.20064 0.27479 0.0
C494 C 0.07239 0.27969 0.34535 0.0
C495 C 0.05826 0.28461 0.29956 0.0
C496 C 0.10157 0.26991 0.34654 0.0
C497 C 0.11702 0.26419 0.30182 0.0
C498 C 0.10432 0.27131 0.25588 0.0
C499 C 0.07521 0.28147 0.25478 0.0
H500 H 0.07098 0.91455 0.35125 0.0
H501 H 0.07946 0.83355 0.25072 0.0
H502 H 0.14103 0.95467 0.35109 0.0
H503 H 0.15008 0.87451 0.24991 0.0
H504 H 0.27353 0.99155 0.22671 0.0
H505 H 0.20481 0.94115 0.22342 0.0
H506 H 0.19586 0.94969 0.38383 0.0
H507 H 0.26364 1.00013 0.38665 0.0
C508 C 0.0877 0.90508 0.32926 0.0
C509 C 0.06922 0.87038 0.30149 0.0
C510 C 0.12805 0.92818 0.32919 0.0
C511 C 0.15136 0.91752 0.30117 0.0
C512 C 0.13304 0.88358 0.27193 0.0
C513 C 0.09247 0.8602 0.27226 0.0
C514 C 0.25714 0.98149 0.26134 0.0
C515 C 0.27387 0.99981 0.3069 0.0
C516 C 0.21769 0.95285 0.25948 0.0
C517 C 0.1945 0.94216 0.30322 0.0
C518 C 0.21249 0.95795 0.34924 0.0
C519 C 0.25154 0.98645 0.351 0.0
H520 H 0.80082 0.98332 0.24845 0.0
H521 H 0.8864 0.99073 0.35309 0.0
H522 H 0.77203 0.9125 0.24602 0.0
H523 H 0.85742 0.92044 0.35116 0.0
H524 H 0.78203 0.7958 0.38041 0.0
H525 H 0.79773 0.86354 0.38021 0.0
H526 H 0.78595 0.85965 0.21917 0.0
H527 H 0.76923 0.79106 0.21988 0.0
C528 C 0.81377 0.97 0.27057 0.0
C529 C 0.84584 0.99294 0.30135 0.0
C530 C 0.79709 0.92934 0.26931 0.0
C531 C 0.8119 0.91064 0.2991 0.0
C532 C 0.84451 0.9337 0.3288 0.0
C533 C 0.86124 0.97415 0.32986 0.0
C534 C 0.78118 0.80898 0.34522 0.0
C535 C 0.77405 0.78816 0.30024 0.0
C536 C 0.79083 0.84798 0.34495 0.0
C537 C 0.79415 0.86739 0.29955 0.0
C538 C 0.78371 0.84562 0.2548 0.0
C539 C 0.77378 0.80624 0.25516 0.0
H540 H 0.19616 0.15023 0.73451 0.0
H541 H 0.26411 0.20969 0.86428 0.0
H542 H 0.22838 0.11153 0.72962 0.0
H543 H 0.2967 0.17177 0.85898 0.0
H544 H 0.29617 0.05564 0.87964 0.0
H545 H 0.28 0.10693 0.8765 0.0
H546 H 0.28677 0.10747 0.71471 0.0
H547 H 0.30303 0.05537 0.71841 0.0
C548 C 0.21833 0.15545 0.76158 0.0
C549 C 0.22692 0.18262 0.80038 0.0
C550 C 0.23705 0.13339 0.75861 0.0
C551 C 0.26507 0.13812 0.79416 0.0
C552 C 0.27476 0.16656 0.83154 0.0
C553 C 0.25593 0.18832 0.83469 0.0
C554 C 0.29568 0.06772 0.84341 0.0
C555 C 0.30087 0.05142 0.79927 0.0
C556 C 0.28621 0.09718 0.84152 0.0
C557 C 0.28142 0.11124 0.7953 0.0
C558 C 0.2895 0.09694 0.751 0.0
C559 C 0.29943 0.0675 0.75302 0.0
H560 H 0.99416 0.79686 0.7508 0.0
H561 H 0.99273 0.85628 0.88584 0.0
H562 H 0.92362 0.7664 0.74568 0.0
H563 H 0.92314 0.82743 0.87968 0.0
H564 H 0.79623 0.75373 0.88584 0.0
H565 H 0.86367 0.76982 0.88949 0.0
H566 H 0.87143 0.77884 0.72797 0.0
H567 H 0.80309 0.76115 0.72475 0.0
C568 C 0.97894 0.80341 0.77953 0.0
C569 C 0.99962 0.82938 0.81864 0.0
C570 C 0.93835 0.78614 0.77632 0.0
C571 C 0.91711 0.79402 0.81239 0.0
C572 C 0.93792 0.8198 0.85155 0.0
C573 C 0.97828 0.83703 0.85467 0.0
C574 C 0.81191 0.75751 0.85102 0.0
C575 C 0.79402 0.75526 0.805 0.0
C576 C 0.85096 0.76759 0.85305 0.0
C577 C 0.87377 0.7767 0.80911 0.0
C578 C 0.85508 0.77193 0.76269 0.0
C579 C 0.81568 0.76137 0.76069 0.0
H580 H 1.00622 0.254 0.88664 0.0
H581 H 1.00046 0.25663 0.72558 0.0
H582 H 0.95654 0.18553 0.88718 0.0
H583 H 0.95093 0.18736 0.72567 0.0
H584 H 0.84557 0.06249 0.75198 0.0
H585 H 0.88596 0.13337 0.74913 0.0
H586 H 0.959 0.12813 0.8638 0.0
H587 H 0.91921 0.05773 0.86631 0.0
C588 C 0.99323 0.24017 0.85139 0.0
C589 C 1.00686 0.26087 0.80615 0.0
C590 C 0.96522 0.20065 0.85156 0.0
C591 C 0.95029 0.18039 0.80639 0.0
C592 C 0.96168 0.20187 0.76122 0.0
C593 C 0.98977 0.24174 0.76111 0.0
C594 C 0.87051 0.07636 0.77622 0.0
C595 C 0.87876 0.05397 0.80967 0.0
C596 C 0.89362 0.11717 0.77468 0.0
C597 C 0.92552 0.13682 0.80677 0.0
C598 C 0.93411 0.11433 0.83945 0.0
C599 C 0.9112 0.0737 0.84085 0.0
loop_
_geom_bond_atom_site_label_1
_geom_bond_atom_site_label_2
_geom_bond_distance
_geom_bond_site_symmetry_2
_ccdc_geom_bond_type
La0 C2 2.928 . S
La0 O20 2.521 . S
La0 O21 2.628 . S
La0 O22 2.554 . S
La0 O23 2.757 . S
La0 O24 2.470 . S
La0 O29 2.482 . S
La0 O31 2.503 . S
La1 C11 2.928 . S
La1 O23 2.482 . S
La1 O25 2.503 . S
La1 O26 2.521 . S
La1 O27 2.628 . S
La1 O28 2.554 . S
La1 O29 2.757 . S
La1 O30 2.470 . S
C2 La0 2.928 . S
C2 C3 1.503 . S
C2 O20 1.261 . S
C2 O21 1.243 . S
C3 C2 1.503 . S
C3 C4 1.394 . S
C3 C8 1.373 . S
C4 C3 1.394 . S
C4 C5 1.380 . S
C4 H32 0.930 . S
C5 C4 1.380 . S
C5 C6 1.376 . S
C5 H33 0.930 . S
C6 C5 1.376 . S
C6 C7 1.370 . S
C7 C6 1.370 . S
C7 C8 1.396 . S
C7 H34 0.929 . S
C8 C3 1.373 . S
C8 C7 1.396 . S
C8 H35 0.929 . S
C9 O22 1.240 . S
C9 O23 1.289 . S
C10 O24 1.258 . S
C10 O25 1.256 . S
C11 La1 2.928 . S
C11 C12 1.503 . S
C11 O26 1.261 . S
C11 O27 1.243 . S
C12 C11 1.503 . S
C12 C13 1.394 . S
C12 C17 1.373 . S
C13 C12 1.394 . S
C13 C14 1.380 . S
C13 H36 0.930 . S
C14 C13 1.380 . S
C14 C15 1.376 . S
C14 H37 0.930 . S
C15 C14 1.376 . S
C15 C16 1.370 . S
C16 C15 1.370 . S
C16 C17 1.396 . S
C16 H38 0.929 . S
C17 C12 1.373 . S
C17 C16 1.396 . S
C17 H39 0.929 . S
C18 O28 1.240 . S
C18 O29 1.289 . S
C19 O30 1.258 . S
C19 O31 1.256 . S
O20 La0 2.521 . S
O20 C2 1.261 . S
O21 La0 2.628 . S
O21 C2 1.243 . S
O22 La0 2.554 . S
O22 C9 1.240 . S
O23 La0 2.757 . S
O23 La1 2.482 . S
O23 C9 1.289 . S
O24 La0 2.470 . S
O24 C10 1.258 . S
O25 La1 2.503 . S
O25 C10 1.256 . S
O26 La1 2.521 . S
O26 C11 1.261 . S
O27 La1 2.628 . S
O27 C11 1.243 . S
O28 La1 2.554 . S
O28 C18 1.240 . S
O29 La0 2.482 . S
O29 La1 2.757 . S
O29 C18 1.289 . S
O30 La1 2.470 . S
O30 C19 1.258 . S
O31 La0 2.503 . S
O31 C19 1.256 . S
H32 C4 0.930 . S
H33 C5 0.930 . S
H34 C7 0.929 . S
H35 C8 0.929 . S
H36 C13 0.930 . S
H37 C14 0.930 . S
H38 C16 0.929 . S
H39 C17 0.929 . S
La40 C42 2.928 . S
La40 O60 2.521 . S
La40 O61 2.628 . S
La40 O62 2.554 . S
La40 O63 2.757 . S
La40 O64 2.470 . S
La40 O69 2.482 . S
La40 O71 2.503 . S
La41 C51 2.928 . S
La41 O63 2.482 . S
La41 O65 2.503 . S
La41 O66 2.521 . S
La41 O67 2.628 . S
La41 O68 2.554 . S
La41 O69 2.757 . S
La41 O70 2.470 . S
C42 La40 2.928 . S
C42 C43 1.503 . S
C42 O60 1.261 . S
C42 O61 1.243 . S
C43 C42 1.503 . S
C43 C44 1.394 . S
C43 C48 1.373 . S
C44 C43 1.394 . S
C44 C45 1.380 . S
C44 H72 0.930 . S
C45 C44 1.380 . S
C45 C46 1.376 . S
C45 H73 0.930 . S
C46 C45 1.376 . S
C46 C47 1.370 . S
C47 C46 1.370 . S
C47 C48 1.396 . S
C47 H74 0.929 . S
C48 C43 1.373 . S
C48 C47 1.396 . S
C48 H75 0.929 . S
C49 O62 1.240 . S
C49 O63 1.289 . S
C50 O64 1.258 . S
C50 O65 1.256 . S
C51 La41 2.928 . S
C51 C52 1.503 . S
C51 O66 1.261 . S
C51 O67 1.243 . S
C52 C51 1.503 . S
C52 C53 1.394 . S
C52 C57 1.373 . S
C53 C52 1.394 . S
C53 C54 1.380 . S
C53 H76 0.930 . S
C54 C53 1.380 . S
C54 C55 1.376 . S
C54 H77 0.930 1_655 S
C55 C54 1.376 . S
C55 C56 1.370 . S
C56 C55 1.370 . S
C56 C57 1.396 . S
C56 H78 0.929 . S
C57 C52 1.373 . S
C57 C56 1.396 . S
C57 H79 0.929 . S
C58 O68 1.240 . S
C58 O69 1.289 . S
C59 O70 1.258 . S
C59 O71 1.256 . S
O60 La40 2.521 . S
O60 C42 1.261 . S
O61 La40 2.628 . S
O61 C42 1.243 . S
O62 La40 2.554 . S
O62 C49 1.240 . S
O63 La40 2.757 . S
O63 La41 2.482 . S
O63 C49 1.289 . S
O64 La40 2.470 . S
O64 C50 1.258 . S
O65 La41 2.503 . S
O65 C50 1.256 . S
O66 La41 2.521 . S
O66 C51 1.261 . S
O67 La41 2.628 . S
O67 C51 1.243 . S
O68 La41 2.554 . S
O68 C58 1.240 . S
O69 La40 2.482 . S
O69 La41 2.757 . S
O69 C58 1.289 . S
O70 La41 2.470 . S
O70 C59 1.258 . S
O71 La40 2.503 . S
O71 C59 1.256 . S
H72 C44 0.930 . S
H73 C45 0.930 . S
H74 C47 0.929 . S
H75 C48 0.929 . S
H76 C53 0.930 . S
H77 C54 0.930 1_455 S
H78 C56 0.929 . S
H79 C57 0.929 . S
La80 C82 2.928 . S
La80 O100 2.521 . S
La80 O101 2.628 . S
La80 O102 2.554 . S
La80 O103 2.757 . S
La80 O104 2.470 . S
La80 O109 2.482 . S
La80 O111 2.503 . S
La81 C91 2.928 . S
La81 O103 2.482 . S
La81 O105 2.503 . S
La81 O106 2.521 . S
La81 O107 2.628 . S
La81 O108 2.554 . S
La81 O109 2.757 . S
La81 O110 2.470 . S
C82 La80 2.928 . S
C82 C83 1.503 . S
C82 O100 1.261 . S
C82 O101 1.243 . S
C83 C82 1.503 . S
C83 C84 1.394 . S
C83 C88 1.373 . S
C84 C83 1.394 . S
C84 C85 1.380 . S
C84 H112 0.930 . S
C85 C84 1.380 . S
C85 C86 1.376 . S
C85 H113 0.930 . S
C86 C85 1.376 . S
C86 C87 1.370 . S
C87 C86 1.370 . S
C87 C88 1.396 . S
C87 H114 0.929 . S
C88 C83 1.373 . S
C88 C87 1.396 . S
C88 H115 0.929 . S
C89 O102 1.240 . S
C89 O103 1.289 . S
C90 O104 1.258 . S
C90 O105 1.256 . S
C91 La81 2.928 . S
C91 C92 1.503 . S
C91 O106 1.261 . S
C91 O107 1.243 . S
C92 C91 1.503 . S
C92 C93 1.394 . S
C92 C97 1.373 . S
C93 C92 1.394 . S
C93 C94 1.380 . S
C93 H116 0.930 . S
C94 C93 1.380 . S
C94 C95 1.376 . S
C94 H117 0.930 1_545 S
C95 C94 1.376 . S
C95 C96 1.370 . S
C96 C95 1.370 . S
C96 C97 1.396 . S
C96 H118 0.929 . S
C97 C92 1.373 . S
C97 C96 1.396 . S
C97 H119 0.929 . S
C98 O108 1.240 . S
C98 O109 1.289 . S
C99 O110 1.258 . S
C99 O111 1.256 . S
O100 La80 2.521 . S
O100 C82 1.261 . S
O101 La80 2.628 . S
O101 C82 1.243 . S
O102 La80 2.554 . S
O102 C89 1.240 . S
O103 La80 2.757 . S
O103 La81 2.482 . S
O103 C89 1.289 . S
O104 La80 2.470 . S
O104 C90 1.258 . S
O105 La81 2.503 . S
O105 C90 1.256 . S
O106 La81 2.521 . S
O106 C91 1.261 . S
O107 La81 2.628 . S
O107 C91 1.243 . S
O108 La81 2.554 . S
O108 C98 1.240 . S
O109 La80 2.482 . S
O109 La81 2.757 . S
O109 C98 1.289 . S
O110 La81 2.470 . S
O110 C99 1.258 . S
O111 La80 2.503 . S
O111 C99 1.256 . S
H112 C84 0.930 . S
H113 C85 0.930 . S
H114 C87 0.929 . S
H115 C88 0.929 . S
H116 C93 0.930 . S
H117 C94 0.930 1_565 S
H118 C96 0.929 . S
H119 C97 0.929 . S
La120 C122 2.928 . S
La120 O140 2.521 . S
La120 O141 2.628 . S
La120 O142 2.554 . S
La120 O143 2.757 . S
La120 O144 2.470 . S
La120 O149 2.482 . S
La120 O151 2.503 . S
La121 C131 2.928 . S
La121 O143 2.482 . S
La121 O145 2.503 . S
La121 O146 2.521 . S
La121 O147 2.628 . S
La121 O148 2.554 . S
La121 O149 2.757 . S
La121 O150 2.470 . S
C122 La120 2.928 . S
C122 C123 1.503 . S
C122 O140 1.261 . S
C122 O141 1.243 . S
C123 C122 1.503 . S
C123 C124 1.394 . S
C123 C128 1.373 . S
C124 C123 1.394 . S
C124 C125 1.380 . S
C124 H152 0.930 . S
C125 C124 1.380 . S
C125 C126 1.376 . S
C125 H153 0.930 . S
C126 C125 1.376 . S
C126 C127 1.370 . S
C127 C126 1.370 . S
C127 C128 1.396 . S
C127 H154 0.929 . S
C128 C123 1.373 . S
C128 C127 1.396 . S
C128 H155 0.929 . S
C129 O142 1.240 . S
C129 O143 1.289 . S
C130 O144 1.258 . S
C130 O145 1.256 . S
C131 La121 2.928 . S
C131 C132 1.503 . S
C131 O146 1.261 . S
C131 O147 1.243 . S
C132 C131 1.503 . S
C132 C133 1.394 . S
C132 C137 1.373 . S
C133 C132 1.394 . S
C133 C134 1.380 . S
C133 H156 0.930 . S
C134 C133 1.380 . S
C134 C135 1.376 . S
C134 H157 0.930 . S
C135 C134 1.376 . S
C135 C136 1.370 . S
C136 C135 1.370 . S
C136 C137 1.396 . S
C136 H158 0.929 . S
C137 C132 1.373 . S
C137 C136 1.396 . S
C137 H159 0.929 . S
C138 O148 1.240 . S
C138 O149 1.289 . S
C139 O150 1.258 . S
C139 O151 1.256 . S
O140 La120 2.521 . S
O140 C122 1.261 . S
O141 La120 2.628 . S
O141 C122 1.243 . S
O142 La120 2.554 . S
O142 C129 1.240 . S
O143 La120 2.757 . S
O143 La121 2.482 . S
O143 C129 1.289 . S
O144 La120 2.470 . S
O144 C130 1.258 . S
O145 La121 2.503 . S
O145 C130 1.256 . S
O146 La121 2.521 . S
O146 C131 1.261 . S
O147 La121 2.628 . S
O147 C131 1.243 . S
O148 La121 2.554 . S
O148 C138 1.240 . S
O149 La120 2.482 . S
O149 La121 2.757 . S
O149 C138 1.289 . S
O150 La121 2.470 . S
O150 C139 1.258 . S
O151 La120 2.503 . S
O151 C139 1.256 . S
H152 C124 0.930 . S
H153 C125 0.930 . S
H154 C127 0.929 . S
H155 C128 0.929 . S
H156 C133 0.930 . S
H157 C134 0.930 . S
H158 C136 0.929 . S
H159 C137 0.929 . S
La160 C162 2.928 . S
La160 O180 2.521 . S
La160 O181 2.628 . S
La160 O182 2.554 . S
La160 O183 2.757 . S
La160 O184 2.470 . S
La160 O189 2.482 . S
La160 O191 2.503 . S
La161 C171 2.928 . S
La161 O183 2.482 . S
La161 O185 2.503 . S
La161 O186 2.521 . S
La161 O187 2.628 . S
La161 O188 2.554 . S
La161 O189 2.757 . S
La161 O190 2.470 . S
C162 La160 2.928 . S
C162 C163 1.503 . S
C162 O180 1.261 . S
C162 O181 1.243 . S
C163 C162 1.503 . S
C163 C164 1.394 . S
C163 C168 1.373 . S
C164 C163 1.394 . S
C164 C165 1.380 . S
C164 H192 0.930 . S
C165 C164 1.380 . S
C165 C166 1.376 . S
C165 H193 0.930 1_455 S
C166 C165 1.376 . S
C166 C167 1.370 . S
C167 C166 1.370 . S
C167 C168 1.396 . S
C167 H194 0.929 . S
C168 C163 1.373 . S
C168 C167 1.396 . S
C168 H195 0.929 . S
C169 O182 1.240 . S
C169 O183 1.289 . S
C170 O184 1.258 . S
C170 O185 1.256 . S
C171 La161 2.928 . S
C171 C172 1.503 . S
C171 O186 1.261 . S
C171 O187 1.243 . S
C172 C171 1.503 . S
C172 C173 1.394 . S
C172 C177 1.373 . S
C173 C172 1.394 . S
C173 C174 1.380 . S
C173 H196 0.930 . S
C174 C173 1.380 . S
C174 C175 1.376 . S
C174 H197 0.930 . S
C175 C174 1.376 . S
C175 C176 1.370 . S
C176 C175 1.370 . S
C176 C177 1.396 . S
C176 H198 0.929 . S
C177 C172 1.373 . S
C177 C176 1.396 . S
C177 H199 0.929 . S
C178 O188 1.240 . S
C178 O189 1.289 . S
C179 O190 1.258 . S
C179 O191 1.256 . S
O180 La160 2.521 . S
O180 C162 1.261 . S
O181 La160 2.628 . S
O181 C162 1.243 . S
O182 La160 2.554 . S
O182 C169 1.240 . S
O183 La160 2.757 . S
O183 La161 2.482 . S
O183 C169 1.289 . S
O184 La160 2.470 . S
O184 C170 1.258 . S
O185 La161 2.503 . S
O185 C170 1.256 . S
O186 La161 2.521 . S
O186 C171 1.261 . S
O187 La161 2.628 . S
O187 C171 1.243 . S
O188 La161 2.554 . S
O188 C178 1.240 . S
O189 La160 2.482 . S
O189 La161 2.757 . S
O189 C178 1.289 . S
O190 La161 2.470 . S
O190 C179 1.258 . S
O191 La160 2.503 . S
O191 C179 1.256 . S
H192 C164 0.930 . S
H193 C165 0.930 1_655 S
H194 C167 0.929 . S
H195 C168 0.929 . S
H196 C173 0.930 . S
H197 C174 0.930 . S
H198 C176 0.929 . S
H199 C177 0.929 . S
La200 C202 2.928 . S
La200 O220 2.521 . S
La200 O221 2.628 . S
La200 O222 2.554 . S
La200 O223 2.757 . S
La200 O224 2.470 . S
La200 O229 2.482 . S
La200 O231 2.503 . S
La201 C211 2.928 . S
La201 O223 2.482 . S
La201 O225 2.503 . S
La201 O226 2.521 . S
La201 O227 2.628 . S
La201 O228 2.554 . S
La201 O229 2.757 . S
La201 O230 2.470 . S
C202 La200 2.928 . S
C202 C203 1.503 . S
C202 O220 1.261 . S
C202 O221 1.243 . S
C203 C202 1.503 . S
C203 C204 1.394 . S
C203 C208 1.373 . S
C204 C203 1.394 . S
C204 C205 1.380 . S
C204 H232 0.930 . S
C205 C204 1.380 . S
C205 C206 1.376 . S
C205 H233 0.930 1_565 S
C206 C205 1.376 . S
C206 C207 1.370 . S
C207 C206 1.370 . S
C207 C208 1.396 . S
C207 H234 0.929 . S
C208 C203 1.373 . S
C208 C207 1.396 . S
C208 H235 0.929 . S
C209 O222 1.240 . S
C209 O223 1.289 . S
C210 O224 1.258 . S
C210 O225 1.256 . S
C211 La201 2.928 . S
C211 C212 1.503 . S
C211 O226 1.261 . S
C211 O227 1.243 . S
C212 C211 1.503 . S
C212 C213 1.394 . S
C212 C217 1.373 . S
C213 C212 1.394 . S
C213 C214 1.380 . S
C213 H236 0.930 . S
C214 C213 1.380 . S
C214 C215 1.376 . S
C214 H237 0.930 . S
C215 C214 1.376 . S
C215 C216 1.370 . S
C216 C215 1.370 . S
C216 C217 1.396 . S
C216 H238 0.929 . S
C217 C212 1.373 . S
C217 C216 1.396 . S
C217 H239 0.929 . S
C218 O228 1.240 . S
C218 O229 1.289 . S
C219 O230 1.258 . S
C219 O231 1.256 . S
O220 La200 2.521 . S
O220 C202 1.261 . S
O221 La200 2.628 . S
O221 C202 1.243 . S
O222 La200 2.554 . S
O222 C209 1.240 . S
O223 La200 2.757 . S
O223 La201 2.482 . S
O223 C209 1.289 . S
O224 La200 2.470 . S
O224 C210 1.258 . S
O225 La201 2.503 . S
O225 C210 1.256 . S
O226 La201 2.521 . S
O226 C211 1.261 . S
O227 La201 2.628 . S
O227 C211 1.243 . S
O228 La201 2.554 . S
O228 C218 1.240 . S
O229 La200 2.482 . S
O229 La201 2.757 . S
O229 C218 1.289 . S
O230 La201 2.470 . S
O230 C219 1.258 . S
O231 La200 2.503 . S
O231 C219 1.256 . S
H232 C204 0.930 . S
H233 C205 0.930 1_545 S
H234 C207 0.929 . S
H235 C208 0.929 . S
H236 C213 0.930 . S
H237 C214 0.930 . S
H238 C216 0.929 . S
H239 C217 0.929 . S
H240 C248 0.950 . S
H241 C253 0.950 . S
H242 C250 0.950 1_554 S
H243 C252 0.950 1_545 S
H244 C254 0.950 . S
H245 C256 0.950 1_556 S
H246 C258 0.950 1_565 S
H247 C259 0.950 . S
C248 H240 0.950 . S
C248 C249 1.386 . S
C248 C250 1.391 . S
C249 C248 1.386 . S
C249 C253 1.393 . S
C250 H242 0.950 1_556 S
C250 C248 1.391 . S
C250 C251 1.400 . S
C251 C250 1.400 . S
C251 C252 1.398 . S
C251 C257 1.491 1_566 S
C252 H243 0.950 1_565 S
C252 C251 1.398 . S
C252 C253 1.391 . S
C253 H241 0.950 . S
C253 C249 1.393 . S
C253 C252 1.391 . S
C254 H244 0.950 . S
C254 C255 1.386 . S
C254 C256 1.391 . S
C255 C254 1.386 . S
C255 C259 1.393 . S
C256 H245 0.950 1_554 S
C256 C254 1.391 . S
C256 C257 1.400 . S
C257 C251 1.491 1_544 S
C257 C256 1.400 . S
C257 C258 1.398 . S
C258 H246 0.950 1_545 S
C258 C257 1.398 . S
C258 C259 1.391 . S
C259 H247 0.950 . S
C259 C255 1.393 . S
C259 C258 1.391 . S
H260 C268 0.950 . S
H261 C273 0.950 . S
H262 C270 0.950 . S
H263 C272 0.950 . S
H264 C274 0.950 . S
H265 C276 0.950 . S
H266 C278 0.950 . S
H267 C279 0.950 . S
C268 H260 0.950 . S
C268 C269 1.386 . S
C268 C270 1.391 . S
C269 C268 1.386 . S
C269 C273 1.393 . S
C270 H262 0.950 . S
C270 C268 1.391 . S
C270 C271 1.400 . S
C271 C270 1.400 . S
C271 C272 1.398 . S
C271 C277 1.491 . S
C272 H263 0.950 . S
C272 C271 1.398 . S
C272 C273 1.391 . S
C273 H261 0.950 . S
C273 C269 1.393 . S
C273 C272 1.391 . S
C274 H264 0.950 . S
C274 C275 1.386 . S
C274 C276 1.391 . S
C275 C274 1.386 . S
C275 C279 1.393 . S
C276 H265 0.950 . S
C276 C274 1.391 . S
C276 C277 1.400 . S
C277 C271 1.491 . S
C277 C276 1.400 . S
C277 C278 1.398 . S
C278 H266 0.950 . S
C278 C277 1.398 . S
C278 C279 1.391 . S
C279 H267 0.950 . S
C279 C275 1.393 . S
C279 C278 1.391 . S
H280 C288 0.950 . S
H281 C293 0.950 . S
H282 C290 0.950 . S
H283 C292 0.950 . S
H284 C294 0.950 . S
H285 C296 0.950 . S
H286 C298 0.950 . S
H287 C299 0.950 . S
C288 H280 0.950 . S
C288 C289 1.386 . S
C288 C290 1.391 . S
C289 C288 1.386 . S
C289 C293 1.393 . S
C290 H282 0.950 . S
C290 C288 1.391 . S
C290 C291 1.400 . S
C291 C290 1.400 . S
C291 C292 1.398 . S
C291 C297 1.491 1_654 S
C292 H283 0.950 . S
C292 C291 1.398 . S
C292 C293 1.391 . S
C293 H281 0.950 . S
C293 C289 1.393 . S
C293 C292 1.391 . S
C294 H284 0.950 . S
C294 C295 1.386 . S
C294 C296 1.391 . S
C295 C294 1.386 . S
C295 C299 1.393 . S
C296 H285 0.950 . S
C296 C294 1.391 . S
C296 C297 1.400 . S
C297 C291 1.491 1_456 S
C297 C296 1.400 . S
C297 C298 1.398 . S
C298 H286 0.950 . S
C298 C297 1.398 . S
C298 C299 1.391 . S
C299 H287 0.950 . S
C299 C295 1.393 . S
C299 C298 1.391 . S
H300 C308 0.950 . S
H301 C313 0.950 . S
H302 C310 0.950 . S
H303 C312 0.947 1_565 S
H304 C314 0.950 . S
H305 C316 0.950 . S
H306 C318 0.950 . S
H307 C319 0.950 . S
C308 H300 0.950 . S
C308 C309 1.386 . S
C308 C310 1.391 . S
C309 C308 1.386 . S
C309 C313 1.393 . S
C310 H302 0.950 . S
C310 C308 1.391 . S
C310 C311 1.400 . S
C311 C310 1.400 . S
C311 C312 1.398 . S
C311 C317 1.491 1_545 S
C312 H303 0.947 1_545 S
C312 C311 1.398 . S
C312 C313 1.391 . S
C313 H301 0.950 . S
C313 C309 1.393 . S
C313 C312 1.391 . S
C314 H304 0.950 . S
C314 C315 1.386 . S
C314 C316 1.391 . S
C315 C314 1.386 . S
C315 C319 1.393 . S
C316 H305 0.950 . S
C316 C314 1.391 . S
C316 C317 1.400 . S
C317 C311 1.491 1_565 S
C317 C316 1.400 . S
C317 C318 1.398 . S
C318 H306 0.950 . S
C318 C317 1.398 . S
C318 C319 1.391 . S
C319 H307 0.950 . S
C319 C315 1.393 . S
C319 C318 1.391 . S
H320 C328 0.950 . S
H321 C333 0.950 . S
H322 C330 0.950 . S
H323 C332 0.950 . S
H324 C334 0.950 . S
H325 C336 0.950 . S
H326 C338 0.950 . S
H327 C339 0.950 . S
C328 H320 0.950 . S
C328 C329 1.386 . S
C328 C330 1.391 . S
C329 C328 1.386 . S
C329 C333 1.393 . S
C330 H322 0.950 . S
C330 C328 1.391 . S
C330 C331 1.400 . S
C331 C330 1.400 . S
C331 C332 1.398 . S
C331 C337 1.491 1_556 S
C332 H323 0.950 . S
C332 C331 1.398 . S
C332 C333 1.391 . S
C333 H321 0.950 . S
C333 C329 1.393 . S
C333 C332 1.391 . S
C334 H324 0.950 . S
C334 C335 1.386 . S
C334 C336 1.391 . S
C335 C334 1.386 . S
C335 C339 1.393 . S
C336 H325 0.950 . S
C336 C334 1.391 . S
C336 C337 1.400 . S
C337 C331 1.491 1_554 S
C337 C336 1.400 . S
C337 C338 1.398 . S
C338 H326 0.950 . S
C338 C337 1.398 . S
C338 C339 1.391 . S
C339 H327 0.950 . S
C339 C335 1.393 . S
C339 C338 1.391 . S
H340 C348 0.950 . S
H341 C353 0.950 . S
H342 C350 0.950 1_455 S
H343 C352 0.950 . S
H344 C354 0.950 . S
H345 C356 0.950 1_655 S
H346 C358 0.950 . S
H347 C359 0.950 . S
C348 H340 0.950 . S
C348 C349 1.386 . S
C348 C350 1.391 . S
C349 C348 1.386 . S
C349 C353 1.393 . S
C350 H342 0.950 1_655 S
C350 C348 1.391 . S
C350 C351 1.400 . S
C351 C350 1.400 . S
C351 C352 1.398 . S
C351 C357 1.491 1_655 S
C352 H343 0.950 . S
C352 C351 1.398 . S
C352 C353 1.391 . S
C353 H341 0.950 . S
C353 C349 1.393 . S
C353 C352 1.391 . S
C354 H344 0.950 . S
C354 C355 1.386 . S
C354 C356 1.391 . S
C355 C354 1.386 . S
C355 C359 1.393 . S
C356 H345 0.950 1_455 S
C356 C354 1.391 . S
C356 C357 1.400 . S
C357 C351 1.491 1_455 S
C357 C356 1.400 . S
C357 C358 1.398 . S
C358 H346 0.950 . S
C358 C357 1.398 . S
C358 C359 1.391 . S
C359 H347 0.950 . S
C359 C355 1.393 . S
C359 C358 1.391 . S
H360 C368 0.950 . S
H361 C373 0.950 . S
H362 C370 0.950 . S
H363 C372 0.950 . S
H364 C374 0.950 . S
H365 C376 0.950 . S
H366 C378 0.950 . S
H367 C379 0.950 . S
C368 H360 0.950 . S
C368 C369 1.386 . S
C368 C370 1.391 . S
C369 C368 1.386 . S
C369 C373 1.393 . S
C370 H362 0.950 . S
C370 C368 1.391 . S
C370 C371 1.400 . S
C371 C370 1.400 . S
C371 C372 1.398 . S
C371 C377 1.491 . S
C372 H363 0.950 . S
C372 C371 1.398 . S
C372 C373 1.391 . S
C373 H361 0.950 . S
C373 C369 1.393 . S
C373 C372 1.391 . S
C374 H364 0.950 . S
C374 C375 1.386 . S
C374 C376 1.391 . S
C375 C374 1.386 . S
C375 C379 1.393 . S
C376 H365 0.950 . S
C376 C374 1.391 . S
C376 C377 1.400 . S
C377 C371 1.491 . S
C377 C376 1.400 . S
C377 C378 1.398 . S
C378 H366 0.950 . S
C378 C377 1.398 . S
C378 C379 1.391 . S
C379 H367 0.950 . S
C379 C375 1.393 . S
C379 C378 1.391 . S
H380 C388 0.950 . S
H381 C393 0.950 . S
H382 C390 0.950 . S
H383 C392 0.950 . S
H384 C394 0.950 . S
H385 C396 0.950 . S
H386 C398 0.950 . S
H387 C399 0.950 . S
C388 H380 0.950 . S
C388 C389 1.386 . S
C388 C390 1.391 . S
C389 C388 1.386 . S
C389 C393 1.393 . S
C390 H382 0.950 . S
C390 C388 1.391 . S
C390 C391 1.400 . S
C391 C390 1.400 . S
C391 C392 1.398 . S
C391 C397 1.491 . S
C392 H383 0.950 . S
C392 C391 1.398 . S
C392 C393 1.391 . S
C393 H381 0.950 . S
C393 C389 1.393 . S
C393 C392 1.391 . S
C394 H384 0.950 . S
C394 C395 1.386 . S
C394 C396 1.391 . S
C395 C394 1.386 . S
C395 C399 1.393 . S
C396 H385 0.950 . S
C396 C394 1.391 . S
C396 C397 1.400 . S
C397 C391 1.491 . S
C397 C396 1.400 . S
C397 C398 1.398 . S
C398 H386 0.950 . S
C398 C397 1.398 . S
C398 C399 1.391 . S
C399 H387 0.950 . S
C399 C395 1.393 . S
C399 C398 1.391 . S
H400 C408 0.950 . S
H401 C413 0.950 . S
H402 C410 0.950 . S
H403 C412 0.950 . S
H404 C414 0.950 . S
H405 C416 0.950 . S
H406 C418 0.950 . S
H407 C419 0.950 . S
C408 H400 0.950 . S
C408 C409 1.386 . S
C408 C410 1.391 . S
C409 C408 1.386 . S
C409 C413 1.393 . S
C410 H402 0.950 . S
C410 C408 1.391 . S
C410 C411 1.400 . S
C411 C410 1.400 . S
C411 C412 1.398 . S
C411 C417 1.491 . S
C412 H403 0.950 . S
C412 C411 1.398 . S
C412 C413 1.391 . S
C413 H401 0.950 . S
C413 C409 1.393 . S
C413 C412 1.391 . S
C414 H404 0.950 . S
C414 C415 1.386 . S
C414 C416 1.391 . S
C415 C414 1.386 . S
C415 C419 1.393 . S
C416 H405 0.950 . S
C416 C414 1.391 . S
C416 C417 1.400 . S
C417 C411 1.491 . S
C417 C416 1.400 . S
C417 C418 1.398 . S
C418 H406 0.950 . S
C418 C417 1.398 . S
C418 C419 1.391 . S
C419 H407 0.950 . S
C419 C415 1.393 . S
C419 C418 1.391 . S
H420 C428 0.950 . S
H421 C433 0.950 . S
H422 C430 0.950 . S
H423 C432 0.950 . S
H424 C434 0.950 . S
H425 C436 0.950 . S
H426 C438 0.950 . S
H427 C439 0.950 . S
C428 H420 0.950 . S
C428 C429 1.386 . S
C428 C430 1.391 . S
C429 C428 1.386 . S
C429 C433 1.393 . S
C430 H422 0.950 . S
C430 C428 1.391 . S
C430 C431 1.400 . S
C431 C430 1.400 . S
C431 C432 1.398 . S
C431 C437 1.491 . S
C432 H423 0.950 . S
C432 C431 1.398 . S
C432 C433 1.391 . S
C433 H421 0.950 . S
C433 C429 1.393 . S
C433 C432 1.391 . S
C434 H424 0.950 . S
C434 C435 1.386 . S
C434 C436 1.391 . S
C435 C434 1.386 . S
C435 C439 1.393 . S
C436 H425 0.950 . S
C436 C434 1.391 . S
C436 C437 1.400 . S
C437 C431 1.491 . S
C437 C436 1.400 . S
C437 C438 1.398 . S
C438 H426 0.950 . S
C438 C437 1.398 . S
C438 C439 1.391 . S
C439 H427 0.950 . S
C439 C435 1.393 . S
C439 C438 1.391 . S
H440 C448 0.950 . S
H441 C453 0.950 . S
H442 C450 0.950 . S
H443 C452 0.950 . S
H444 C454 0.950 . S
H445 C456 0.950 . S
H446 C458 0.950 . S
H447 C459 0.950 . S
C448 H440 0.950 . S
C448 C449 1.386 . S
C448 C450 1.391 . S
C449 C448 1.386 . S
C449 C453 1.393 . S
C450 H442 0.950 . S
C450 C448 1.391 . S
C450 C451 1.400 . S
C451 C450 1.400 . S
C451 C452 1.398 . S
C451 C457 1.491 . S
C452 H443 0.950 . S
C452 C451 1.398 . S
C452 C453 1.391 . S
C453 H441 0.950 . S
C453 C449 1.393 . S
C453 C452 1.391 . S
C454 H444 0.950 . S
C454 C455 1.386 . S
C454 C456 1.391 . S
C455 C454 1.386 . S
C455 C459 1.393 . S
C456 H445 0.950 . S
C456 C454 1.391 . S
C456 C457 1.400 . S
C457 C451 1.491 . S
C457 C456 1.400 . S
C457 C458 1.398 . S
C458 H446 0.950 . S
C458 C457 1.398 . S
C458 C459 1.391 . S
C459 H447 0.950 . S
C459 C455 1.393 . S
C459 C458 1.391 . S
H460 C468 0.950 . S
H461 C473 0.950 . S
H462 C470 0.950 . S
H463 C472 0.950 . S
H464 C474 0.950 . S
H465 C476 0.950 . S
H466 C478 0.950 . S
H467 C479 0.950 . S
C468 H460 0.950 . S
C468 C469 1.386 . S
C468 C470 1.391 . S
C469 C468 1.386 . S
C469 C473 1.393 . S
C470 H462 0.950 . S
C470 C468 1.391 . S
C470 C471 1.400 . S
C471 C470 1.400 . S
C471 C472 1.398 . S
C471 C477 1.491 . S
C472 H463 0.950 . S
C472 C471 1.398 . S
C472 C473 1.391 . S
C473 H461 0.950 . S
C473 C469 1.393 . S
C473 C472 1.391 . S
C474 H464 0.950 . S
C474 C475 1.386 . S
C474 C476 1.391 . S
C475 C474 1.386 . S
C475 C479 1.393 . S
C476 H465 0.950 . S
C476 C474 1.391 . S
C476 C477 1.400 . S
C477 C471 1.491 . S
C477 C476 1.400 . S
C477 C478 1.398 . S
C478 H466 0.950 . S
C478 C477 1.398 . S
C478 C479 1.391 . S
C479 H467 0.950 . S
C479 C475 1.393 . S
C479 C478 1.391 . S
H480 C488 0.950 . S
H481 C493 0.950 . S
H482 C490 0.950 . S
H483 C492 0.922 1_655 S
H484 C494 0.950 . S
H485 C496 0.950 . S
H486 C498 0.950 . S
H487 C499 0.950 . S
C488 H480 0.950 . S
C488 C489 1.386 . S
C488 C490 1.391 . S
C489 C488 1.386 . S
C489 C493 1.393 . S
C490 H482 0.950 . S
C490 C488 1.391 . S
C490 C491 1.400 . S
C491 C490 1.400 . S
C491 C492 1.398 . S
C491 C497 1.491 . S
C492 H483 0.922 1_455 S
C492 C491 1.398 . S
C492 C493 1.391 . S
C493 H481 0.950 . S
C493 C489 1.393 . S
C493 C492 1.391 . S
C494 H484 0.950 . S
C494 C495 1.386 . S
C494 C496 1.391 . S
C495 C494 1.386 . S
C495 C499 1.393 1_655 S
C496 H485 0.950 . S
C496 C494 1.391 . S
C496 C497 1.400 1_655 S
C497 C491 1.491 . S
C497 C496 1.400 1_455 S
C497 C498 1.398 . S
C498 H486 0.950 . S
C498 C497 1.398 . S
C498 C499 1.391 . S
C499 H487 0.950 . S
C499 C495 1.393 1_455 S
C499 C498 1.391 . S
H500 C508 0.950 . S
H501 C513 0.950 . S
H502 C510 0.950 . S
H503 C512 0.950 . S
H504 C514 0.950 . S
H505 C516 0.950 . S
H506 C518 0.950 . S
H507 C519 0.950 . S
C508 H500 0.950 . S
C508 C509 1.386 . S
C508 C510 1.391 . S
C509 C508 1.386 . S
C509 C513 1.393 . S
C510 H502 0.950 . S
C510 C508 1.391 . S
C510 C511 1.400 . S
C511 C510 1.400 . S
C511 C512 1.398 . S
C511 C517 1.491 . S
C512 H503 0.950 . S
C512 C511 1.398 . S
C512 C513 1.391 . S
C513 H501 0.950 . S
C513 C509 1.393 . S
C513 C512 1.391 . S
C514 H504 0.950 . S
C514 C515 1.386 1_565 S
C514 C516 1.391 . S
C515 C514 1.386 1_545 S
C515 C519 1.393 . S
C516 H505 0.950 . S
C516 C514 1.391 . S
C516 C517 1.400 . S
C517 C511 1.491 . S
C517 C516 1.400 . S
C517 C518 1.398 1_565 S
C518 H506 0.950 . S
C518 C517 1.398 1_545 S
C518 C519 1.391 . S
C519 H507 0.950 . S
C519 C515 1.393 . S
C519 C518 1.391 . S
H520 C528 0.950 . S
H521 C533 0.950 . S
H522 C530 0.950 . S
H523 C532 0.950 . S
H524 C534 0.950 . S
H525 C536 0.950 . S
H526 C538 0.950 . S
H527 C539 0.950 . S
C528 H520 0.950 . S
C528 C529 1.386 . S
C528 C530 1.391 . S
C529 C528 1.386 . S
C529 C533 1.393 . S
C530 H522 0.950 . S
C530 C528 1.391 . S
C530 C531 1.400 . S
C531 C530 1.400 . S
C531 C532 1.398 . S
C531 C537 1.491 . S
C532 H523 0.950 . S
C532 C531 1.398 . S
C532 C533 1.391 . S
C533 H521 0.950 . S
C533 C529 1.393 . S
C533 C532 1.391 . S
C534 H524 0.950 . S
C534 C535 1.386 . S
C534 C536 1.391 . S
C535 C534 1.386 . S
C535 C539 1.393 . S
C536 H525 0.950 . S
C536 C534 1.391 . S
C536 C537 1.400 . S
C537 C531 1.491 . S
C537 C536 1.400 . S
C537 C538 1.398 . S
C538 H526 0.950 . S
C538 C537 1.398 . S
C538 C539 1.391 . S
C539 H527 0.950 . S
C539 C535 1.393 . S
C539 C538 1.391 . S
H540 C548 0.950 . S
H541 C553 0.950 . S
H542 C550 0.950 . S
H543 C552 0.950 . S
H544 C554 0.950 . S
H545 C556 0.950 . S
H546 C558 0.951 1_565 S
H547 C559 0.950 . S
C548 H540 0.950 . S
C548 C549 1.386 . S
C548 C550 1.391 . S
C549 C548 1.386 . S
C549 C553 1.393 . S
C550 H542 0.950 . S
C550 C548 1.391 . S
C550 C551 1.400 . S
C551 C550 1.400 . S
C551 C552 1.398 . S
C551 C557 1.491 . S
C552 H543 0.950 . S
C552 C551 1.398 . S
C552 C553 1.391 . S
C553 H541 0.950 . S
C553 C549 1.393 . S
C553 C552 1.391 . S
C554 H544 0.950 . S
C554 C555 1.386 1_545 S
C554 C556 1.391 . S
C555 C554 1.386 1_565 S
C555 C559 1.393 . S
C556 H545 0.950 . S
C556 C554 1.391 . S
C556 C557 1.400 . S
C557 C551 1.491 . S
C557 C556 1.400 . S
C557 C558 1.401 . S
C558 H546 0.951 1_545 S
C558 C557 1.401 . S
C558 C559 1.387 1_545 S
C559 H547 0.950 . S
C559 C555 1.393 . S
C559 C558 1.387 1_565 S
H560 C568 0.950 . S
H561 C573 0.950 . S
H562 C570 0.950 . S
H563 C572 0.950 . S
H564 C574 0.950 . S
H565 C576 0.950 . S
H566 C578 0.950 . S
H567 C579 0.950 . S
C568 H560 0.950 . S
C568 C569 1.386 . S
C568 C570 1.391 . S
C569 C568 1.386 . S
C569 C573 1.393 . S
C570 H562 0.950 . S
C570 C568 1.391 . S
C570 C571 1.400 . S
C571 C570 1.400 . S
C571 C572 1.398 . S
C571 C577 1.491 . S
C572 H563 0.950 . S
C572 C571 1.398 . S
C572 C573 1.391 . S
C573 H561 0.950 . S
C573 C569 1.393 . S
C573 C572 1.391 . S
C574 H564 0.950 . S
C574 C575 1.386 . S
C574 C576 1.391 . S
C575 C574 1.386 . S
C575 C579 1.393 . S
C576 H565 0.950 . S
C576 C574 1.391 . S
C576 C577 1.400 . S
C577 C571 1.491 . S
C577 C576 1.400 . S
C577 C578 1.398 . S
C578 H566 0.950 . S
C578 C577 1.398 . S
C578 C579 1.391 . S
C579 H567 0.950 . S
C579 C575 1.393 . S
C579 C578 1.391 . S
H580 C588 0.950 . S
H581 C593 0.950 . S
H582 C590 0.950 . S
H583 C592 0.950 . S
H584 C594 0.950 . S
H585 C596 0.950 . S
H586 C598 0.950 1_455 S
H587 C599 0.950 . S
C588 H580 0.950 . S
C588 C589 1.386 . S
C588 C590 1.391 . S
C589 C588 1.386 . S
C589 C593 1.393 1_455 S
C590 H582 0.950 . S
C590 C588 1.391 . S
C590 C591 1.400 1_455 S
C591 C590 1.400 1_655 S
C591 C592 1.398 . S
C591 C597 1.491 . S
C592 H583 0.950 . S
C592 C591 1.398 . S
C592 C593 1.391 . S
C593 H581 0.950 . S
C593 C589 1.393 1_655 S
C593 C592 1.391 . S
C594 H584 0.950 . S
C594 C595 1.386 . S
C594 C596 1.391 . S
C595 C594 1.386 . S
C595 C599 1.393 . S
C596 H585 0.950 . S
C596 C594 1.391 . S
C596 C597 1.400 . S
C597 C591 1.491 . S
C597 C596 1.400 . S
C597 C598 1.398 . S
C598 H586 0.950 1_655 S
C598 C597 1.398 . S
C598 C599 1.391 . S
C599 H587 0.950 . S
C599 C595 1.393 . S
C599 C598 1.391 . S
C249 C178 2.317 . S
C255 C18 2.515 . S
C269 C209 2.520 . S
C275 C49 2.314 . S
C289 C98 2.508 . S
C295 C138 2.299 . S
C309 C9 2.328 . S
C315 C169 2.525 . S
C329 C218 2.325 . S
C335 C58 2.522 . S
C349 C89 2.314 . S
C355 C129 2.514 . S
C369 C6 1.898 . S
C375 C90 1.836 . S
C389 C46 1.890 . S
C395 C10 1.815 . S
C409 C86 1.891 . S
C415 C50 1.814 . S
C429 C135 1.904 . S
C435 C179 1.836 . S
C449 C175 1.903 . S
C455 C219 1.832 . S
C469 C139 1.835 . S
C475 C215 1.897 . S
C489 C15 1.173 . S
C495 C99 1.218 . S
C509 C55 1.166 1_455 S
C515 C19 1.199 . S
C529 C95 1.181 1_565 S
C535 C59 1.222 . S
C549 C126 1.160 . S
C555 C170 1.204 . S
C569 C166 1.168 1_655 S
C575 C210 1.214 . S
C589 C130 1.222 . S
C595 C206 1.181 1_545 S
