# Generated by pormake.
# Topology pyc, (8)-cn, num edge types: 1
# Building blocks:
#     Node 0, Type 0, BuildingBlock: GIZVER_clean_sbu_0, # of connection points: 8
#     Node 1, Type 0, BuildingBlock: GIZVER_clean_sbu_0, # of connection points: 8
#     Node 2, Type 0, BuildingBlock: GIZVER_clean_sbu_0, # of connection points: 8
#     Node 3, Type 0, BuildingBlock: GIZVER_clean_sbu_0, # of connection points: 8
#     Node 4, Type 0, BuildingBlock: GIZVER_clean_sbu_0, # of connection points: 8
#     Node 5, Type 0, BuildingBlock: GIZVER_clean_sbu_0, # of connection points: 8
#     Node 6, Type 0, BuildingBlock: GIZVER_clean_sbu_0, # of connection points: 8
#     Node 7, Type 0, BuildingBlock: GIZVER_clean_sbu_0, # of connection points: 8
#     Node 8, Type 0, BuildingBlock: GIZVER_clean_sbu_0, # of connection points: 8
#     Node 9, Type 0, BuildingBlock: GIZVER_clean_sbu_0, # of connection points: 8
#     Node 10, Type 0, BuildingBlock: GIZVER_clean_sbu_0, # of connection points: 8
#     Node 11, Type 0, BuildingBlock: GIZVER_clean_sbu_0, # of connection points: 8
#     Node 12, Type 0, BuildingBlock: GIZVER_clean_sbu_0, # of connection points: 8
#     Node 13, Type 0, BuildingBlock: GIZVER_clean_sbu_0, # of connection points: 8
#     Node 14, Type 0, BuildingBlock: GIZVER_clean_sbu_0, # of connection points: 8
#     Node 15, Type 0, BuildingBlock: GIZVER_clean_sbu_0, # of connection points: 8
#     Node 16, Type 0, BuildingBlock: GIZVER_clean_sbu_0, # of connection points: 8
#     Node 17, Type 0, BuildingBlock: GIZVER_clean_sbu_0, # of connection points: 8
#     Node 18, Type 0, BuildingBlock: GIZVER_clean_sbu_0, # of connection points: 8
#     Node 19, Type 0, BuildingBlock: GIZVER_clean_sbu_0, # of connection points: 8
#     Node 20, Type 0, BuildingBlock: GIZVER_clean_sbu_0, # of connection points: 8
#     Node 21, Type 0, BuildingBlock: GIZVER_clean_sbu_0, # of connection points: 8
#     Node 22, Type 0, BuildingBlock: GIZVER_clean_sbu_0, # of connection points: 8
#     Node 23, Type 0, BuildingBlock: GIZVER_clean_sbu_0, # of connection points: 8
#     Node 24, Type 0, BuildingBlock: GIZVER_clean_sbu_0, # of connection points: 8
#     Node 25, Type 0, BuildingBlock: GIZVER_clean_sbu_0, # of connection points: 8
#     Node 26, Type 0, BuildingBlock: GIZVER_clean_sbu_0, # of connection points: 8
#     Node 27, Type 0, BuildingBlock: GIZVER_clean_sbu_0, # of connection points: 8
#     Node 28, Type 0, BuildingBlock: GIZVER_clean_sbu_0, # of connection points: 8
#     Node 29, Type 0, BuildingBlock: GIZVER_clean_sbu_0, # of connection points: 8
#     Node 30, Type 0, BuildingBlock: GIZVER_clean_sbu_0, # of connection points: 8
#     Node 31, Type 0, BuildingBlock: GIZVER_clean_sbu_0, # of connection points: 8
#     Node 32, Type 0, BuildingBlock: GIZVER_clean_sbu_0, # of connection points: 8
#     Node 33, Type 0, BuildingBlock: GIZVER_clean_sbu_0, # of connection points: 8
#     Node 34, Type 0, BuildingBlock: GIZVER_clean_sbu_0, # of connection points: 8
#     Node 35, Type 0, BuildingBlock: GIZVER_clean_sbu_0, # of connection points: 8
#     Node 36, Type 0, BuildingBlock: GIZVER_clean_sbu_0, # of connection points: 8
#     Node 37, Type 0, BuildingBlock: GIZVER_clean_sbu_0, # of connection points: 8
#     Node 38, Type 0, BuildingBlock: GIZVER_clean_sbu_0, # of connection points: 8
#     Node 39, Type 0, BuildingBlock: GIZVER_clean_sbu_0, # of connection points: 8
#     Node 40, Type 0, BuildingBlock: GIZVER_clean_sbu_0, # of connection points: 8
#     Node 41, Type 0, BuildingBlock: GIZVER_clean_sbu_0, # of connection points: 8
#     Node 42, Type 0, BuildingBlock: GIZVER_clean_sbu_0, # of connection points: 8
#     Node 43, Type 0, BuildingBlock: GIZVER_clean_sbu_0, # of connection points: 8
#     Node 44, Type 0, BuildingBlock: GIZVER_clean_sbu_0, # of connection points: 8
#     Node 45, Type 0, BuildingBlock: GIZVER_clean_sbu_0, # of connection points: 8
#     Node 46, Type 0, BuildingBlock: GIZVER_clean_sbu_0, # of connection points: 8
#     Node 47, Type 0, BuildingBlock: GIZVER_clean_sbu_0, # of connection points: 8
#     Edge 48, Type (0, 0), BuildingBlock: CIFDUS_clean_linker_0, # of connection points: 2
#     Edge 49, Type (0, 0), BuildingBlock: CIFDUS_clean_linker_0, # of connection points: 2
#     Edge 50, Type (0, 0), BuildingBlock: CIFDUS_clean_linker_0, # of connection points: 2
#     Edge 51, Type (0, 0), BuildingBlock: CIFDUS_clean_linker_0, # of connection points: 2
#     Edge 52, Type (0, 0), BuildingBlock: CIFDUS_clean_linker_0, # of connection points: 2
#     Edge 53, Type (0, 0), BuildingBlock: CIFDUS_clean_linker_0, # of connection points: 2
#     Edge 54, Type (0, 0), BuildingBlock: CIFDUS_clean_linker_0, # of connection points: 2
#     Edge 55, Type (0, 0), BuildingBlock: CIFDUS_clean_linker_0, # of connection points: 2
#     Edge 56, Type (0, 0), BuildingBlock: CIFDUS_clean_linker_0, # of connection points: 2
#     Edge 57, Type (0, 0), BuildingBlock: CIFDUS_clean_linker_0, # of connection points: 2
#     Edge 58, Type (0, 0), BuildingBlock: CIFDUS_clean_linker_0, # of connection points: 2
#     Edge 59, Type (0, 0), BuildingBlock: CIFDUS_clean_linker_0, # of connection points: 2
#     Edge 60, Type (0, 0), BuildingBlock: CIFDUS_clean_linker_0, # of connection points: 2
#     Edge 61, Type (0, 0), BuildingBlock: CIFDUS_clean_linker_0, # of connection points: 2
#     Edge 62, Type (0, 0), BuildingBlock: CIFDUS_clean_linker_0, # of connection points: 2
#     Edge 63, Type (0, 0), BuildingBlock: CIFDUS_clean_linker_0, # of connection points: 2
#     Edge 64, Type (0, 0), BuildingBlock: CIFDUS_clean_linker_0, # of connection points: 2
#     Edge 65, Type (0, 0), BuildingBlock: CIFDUS_clean_linker_0, # of connection points: 2
#     Edge 66, Type (0, 0), BuildingBlock: CIFDUS_clean_linker_0, # of connection points: 2
#     Edge 67, Type (0, 0), BuildingBlock: CIFDUS_clean_linker_0, # of connection points: 2
#     Edge 68, Type (0, 0), BuildingBlock: CIFDUS_clean_linker_0, # of connection points: 2
#     Edge 69, Type (0, 0), BuildingBlock: CIFDUS_clean_linker_0, # of connection points: 2
#     Edge 70, Type (0, 0), BuildingBlock: CIFDUS_clean_linker_0, # of connection points: 2
#     Edge 71, Type (0, 0), BuildingBlock: CIFDUS_clean_linker_0, # of connection points: 2
#     Edge 72, Type (0, 0), BuildingBlock: CIFDUS_clean_linker_0, # of connection points: 2
#     Edge 73, Type (0, 0), BuildingBlock: CIFDUS_clean_linker_0, # of connection points: 2
#     Edge 74, Type (0, 0), BuildingBlock: CIFDUS_clean_linker_0, # of connection points: 2
#     Edge 75, Type (0, 0), BuildingBlock: CIFDUS_clean_linker_0, # of connection points: 2
#     Edge 76, Type (0, 0), BuildingBlock: CIFDUS_clean_linker_0, # of connection points: 2
#     Edge 77, Type (0, 0), BuildingBlock: CIFDUS_clean_linker_0, # of connection points: 2
#     Edge 78, Type (0, 0), BuildingBlock: CIFDUS_clean_linker_0, # of connection points: 2
#     Edge 79, Type (0, 0), BuildingBlock: CIFDUS_clean_linker_0, # of connection points: 2
#     Edge 80, Type (0, 0), BuildingBlock: CIFDUS_clean_linker_0, # of connection points: 2
#     Edge 81, Type (0, 0), BuildingBlock: CIFDUS_clean_linker_0, # of connection points: 2
#     Edge 82, Type (0, 0), BuildingBlock: CIFDUS_clean_linker_0, # of connection points: 2
#     Edge 83, Type (0, 0), BuildingBlock: CIFDUS_clean_linker_0, # of connection points: 2
#     Edge 84, Type (0, 0), BuildingBlock: CIFDUS_clean_linker_0, # of connection points: 2
#     Edge 85, Type (0, 0), BuildingBlock: CIFDUS_clean_linker_0, # of connection points: 2
#     Edge 86, Type (0, 0), BuildingBlock: CIFDUS_clean_linker_0, # of connection points: 2
#     Edge 87, Type (0, 0), BuildingBlock: CIFDUS_clean_linker_0, # of connection points: 2
#     Edge 88, Type (0, 0), BuildingBlock: CIFDUS_clean_linker_0, # of connection points: 2
#     Edge 89, Type (0, 0), BuildingBlock: CIFDUS_clean_linker_0, # of connection points: 2
#     Edge 90, Type (0, 0), BuildingBlock: CIFDUS_clean_linker_0, # of connection points: 2
#     Edge 91, Type (0, 0), BuildingBlock: CIFDUS_clean_linker_0, # of connection points: 2
#     Edge 92, Type (0, 0), BuildingBlock: CIFDUS_clean_linker_0, # of connection points: 2
#     Edge 93, Type (0, 0), BuildingBlock: CIFDUS_clean_linker_0, # of connection points: 2
#     Edge 94, Type (0, 0), BuildingBlock: CIFDUS_clean_linker_0, # of connection points: 2
#     Edge 95, Type (0, 0), BuildingBlock: CIFDUS_clean_linker_0, # of connection points: 2
#     Edge 96, Type (0, 0), BuildingBlock: CIFDUS_clean_linker_0, # of connection points: 2
#     Edge 97, Type (0, 0), BuildingBlock: CIFDUS_clean_linker_0, # of connection points: 2
#     Edge 98, Type (0, 0), BuildingBlock: CIFDUS_clean_linker_0, # of connection points: 2
#     Edge 99, Type (0, 0), BuildingBlock: CIFDUS_clean_linker_0, # of connection points: 2
#     Edge 100, Type (0, 0), BuildingBlock: CIFDUS_clean_linker_0, # of connection points: 2
#     Edge 101, Type (0, 0), BuildingBlock: CIFDUS_clean_linker_0, # of connection points: 2
#     Edge 102, Type (0, 0), BuildingBlock: CIFDUS_clean_linker_0, # of connection points: 2
#     Edge 103, Type (0, 0), BuildingBlock: CIFDUS_clean_linker_0, # of connection points: 2
#     Edge 104, Type (0, 0), BuildingBlock: CIFDUS_clean_linker_0, # of connection points: 2
#     Edge 105, Type (0, 0), BuildingBlock: CIFDUS_clean_linker_0, # of connection points: 2
#     Edge 106, Type (0, 0), BuildingBlock: CIFDUS_clean_linker_0, # of connection points: 2
#     Edge 107, Type (0, 0), BuildingBlock: CIFDUS_clean_linker_0, # of connection points: 2
#     Edge 108, Type (0, 0), BuildingBlock: CIFDUS_clean_linker_0, # of connection points: 2
#     Edge 109, Type (0, 0), BuildingBlock: CIFDUS_clean_linker_0, # of connection points: 2
#     Edge 110, Type (0, 0), BuildingBlock: CIFDUS_clean_linker_0, # of connection points: 2
#     Edge 111, Type (0, 0), BuildingBlock: CIFDUS_clean_linker_0, # of connection points: 2
#     Edge 112, Type (0, 0), BuildingBlock: CIFDUS_clean_linker_0, # of connection points: 2
#     Edge 113, Type (0, 0), BuildingBlock: CIFDUS_clean_linker_0, # of connection points: 2
#     Edge 114, Type (0, 0), BuildingBlock: CIFDUS_clean_linker_0, # of connection points: 2
#     Edge 115, Type (0, 0), BuildingBlock: CIFDUS_clean_linker_0, # of connection points: 2
#     Edge 116, Type (0, 0), BuildingBlock: CIFDUS_clean_linker_0, # of connection points: 2
#     Edge 117, Type (0, 0), BuildingBlock: CIFDUS_clean_linker_0, # of connection points: 2
#     Edge 118, Type (0, 0), BuildingBlock: CIFDUS_clean_linker_0, # of connection points: 2
#     Edge 119, Type (0, 0), BuildingBlock: CIFDUS_clean_linker_0, # of connection points: 2
#     Edge 120, Type (0, 0), BuildingBlock: CIFDUS_clean_linker_0, # of connection points: 2
#     Edge 121, Type (0, 0), BuildingBlock: CIFDUS_clean_linker_0, # of connection points: 2
#     Edge 122, Type (0, 0), BuildingBlock: CIFDUS_clean_linker_0, # of connection points: 2
#     Edge 123, Type (0, 0), BuildingBlock: CIFDUS_clean_linker_0, # of connection points: 2
#     Edge 124, Type (0, 0), BuildingBlock: CIFDUS_clean_linker_0, # of connection points: 2
#     Edge 125, Type (0, 0), BuildingBlock: CIFDUS_clean_linker_0, # of connection points: 2
#     Edge 126, Type (0, 0), BuildingBlock: CIFDUS_clean_linker_0, # of connection points: 2
#     Edge 127, Type (0, 0), BuildingBlock: CIFDUS_clean_linker_0, # of connection points: 2
#     Edge 128, Type (0, 0), BuildingBlock: CIFDUS_clean_linker_0, # of connection points: 2
#     Edge 129, Type (0, 0), BuildingBlock: CIFDUS_clean_linker_0, # of connection points: 2
#     Edge 130, Type (0, 0), BuildingBlock: CIFDUS_clean_linker_0, # of connection points: 2
#     Edge 131, Type (0, 0), BuildingBlock: CIFDUS_clean_linker_0, # of connection points: 2
#     Edge 132, Type (0, 0), BuildingBlock: CIFDUS_clean_linker_0, # of connection points: 2
#     Edge 133, Type (0, 0), BuildingBlock: CIFDUS_clean_linker_0, # of connection points: 2
#     Edge 134, Type (0, 0), BuildingBlock: CIFDUS_clean_linker_0, # of connection points: 2
#     Edge 135, Type (0, 0), BuildingBlock: CIFDUS_clean_linker_0, # of connection points: 2
#     Edge 136, Type (0, 0), BuildingBlock: CIFDUS_clean_linker_0, # of connection points: 2
#     Edge 137, Type (0, 0), BuildingBlock: CIFDUS_clean_linker_0, # of connection points: 2
#     Edge 138, Type (0, 0), BuildingBlock: CIFDUS_clean_linker_0, # of connection points: 2
#     Edge 139, Type (0, 0), BuildingBlock: CIFDUS_clean_linker_0, # of connection points: 2
#     Edge 140, Type (0, 0), BuildingBlock: CIFDUS_clean_linker_0, # of connection points: 2
#     Edge 141, Type (0, 0), BuildingBlock: CIFDUS_clean_linker_0, # of connection points: 2
#     Edge 142, Type (0, 0), BuildingBlock: CIFDUS_clean_linker_0, # of connection points: 2
#     Edge 143, Type (0, 0), BuildingBlock: CIFDUS_clean_linker_0, # of connection points: 2
#     Edge 144, Type (0, 0), BuildingBlock: CIFDUS_clean_linker_0, # of connection points: 2
#     Edge 145, Type (0, 0), BuildingBlock: CIFDUS_clean_linker_0, # of connection points: 2
#     Edge 146, Type (0, 0), BuildingBlock: CIFDUS_clean_linker_0, # of connection points: 2
#     Edge 147, Type (0, 0), BuildingBlock: CIFDUS_clean_linker_0, # of connection points: 2
#     Edge 148, Type (0, 0), BuildingBlock: CIFDUS_clean_linker_0, # of connection points: 2
#     Edge 149, Type (0, 0), BuildingBlock: CIFDUS_clean_linker_0, # of connection points: 2
#     Edge 150, Type (0, 0), BuildingBlock: CIFDUS_clean_linker_0, # of connection points: 2
#     Edge 151, Type (0, 0), BuildingBlock: CIFDUS_clean_linker_0, # of connection points: 2
#     Edge 152, Type (0, 0), BuildingBlock: CIFDUS_clean_linker_0, # of connection points: 2
#     Edge 153, Type (0, 0), BuildingBlock: CIFDUS_clean_linker_0, # of connection points: 2
#     Edge 154, Type (0, 0), BuildingBlock: CIFDUS_clean_linker_0, # of connection points: 2
#     Edge 155, Type (0, 0), BuildingBlock: CIFDUS_clean_linker_0, # of connection points: 2
#     Edge 156, Type (0, 0), BuildingBlock: CIFDUS_clean_linker_0, # of connection points: 2
#     Edge 157, Type (0, 0), BuildingBlock: CIFDUS_clean_linker_0, # of connection points: 2
#     Edge 158, Type (0, 0), BuildingBlock: CIFDUS_clean_linker_0, # of connection points: 2
#     Edge 159, Type (0, 0), BuildingBlock: CIFDUS_clean_linker_0, # of connection points: 2
#     Edge 160, Type (0, 0), BuildingBlock: CIFDUS_clean_linker_0, # of connection points: 2
#     Edge 161, Type (0, 0), BuildingBlock: CIFDUS_clean_linker_0, # of connection points: 2
#     Edge 162, Type (0, 0), BuildingBlock: CIFDUS_clean_linker_0, # of connection points: 2
#     Edge 163, Type (0, 0), BuildingBlock: CIFDUS_clean_linker_0, # of connection points: 2
#     Edge 164, Type (0, 0), BuildingBlock: CIFDUS_clean_linker_0, # of connection points: 2
#     Edge 165, Type (0, 0), BuildingBlock: CIFDUS_clean_linker_0, # of connection points: 2
#     Edge 166, Type (0, 0), BuildingBlock: CIFDUS_clean_linker_0, # of connection points: 2
#     Edge 167, Type (0, 0), BuildingBlock: CIFDUS_clean_linker_0, # of connection points: 2
#     Edge 168, Type (0, 0), BuildingBlock: CIFDUS_clean_linker_0, # of connection points: 2
#     Edge 169, Type (0, 0), BuildingBlock: CIFDUS_clean_linker_0, # of connection points: 2
#     Edge 170, Type (0, 0), BuildingBlock: CIFDUS_clean_linker_0, # of connection points: 2
#     Edge 171, Type (0, 0), BuildingBlock: CIFDUS_clean_linker_0, # of connection points: 2
#     Edge 172, Type (0, 0), BuildingBlock: CIFDUS_clean_linker_0, # of connection points: 2
#     Edge 173, Type (0, 0), BuildingBlock: CIFDUS_clean_linker_0, # of connection points: 2
#     Edge 174, Type (0, 0), BuildingBlock: CIFDUS_clean_linker_0, # of connection points: 2
#     Edge 175, Type (0, 0), BuildingBlock: CIFDUS_clean_linker_0, # of connection points: 2
#     Edge 176, Type (0, 0), BuildingBlock: CIFDUS_clean_linker_0, # of connection points: 2
#     Edge 177, Type (0, 0), BuildingBlock: CIFDUS_clean_linker_0, # of connection points: 2
#     Edge 178, Type (0, 0), BuildingBlock: CIFDUS_clean_linker_0, # of connection points: 2
#     Edge 179, Type (0, 0), BuildingBlock: CIFDUS_clean_linker_0, # of connection points: 2
#     Edge 180, Type (0, 0), BuildingBlock: CIFDUS_clean_linker_0, # of connection points: 2
#     Edge 181, Type (0, 0), BuildingBlock: CIFDUS_clean_linker_0, # of connection points: 2
#     Edge 182, Type (0, 0), BuildingBlock: CIFDUS_clean_linker_0, # of connection points: 2
#     Edge 183, Type (0, 0), BuildingBlock: CIFDUS_clean_linker_0, # of connection points: 2
#     Edge 184, Type (0, 0), BuildingBlock: CIFDUS_clean_linker_0, # of connection points: 2
#     Edge 185, Type (0, 0), BuildingBlock: CIFDUS_clean_linker_0, # of connection points: 2
#     Edge 186, Type (0, 0), BuildingBlock: CIFDUS_clean_linker_0, # of connection points: 2
#     Edge 187, Type (0, 0), BuildingBlock: CIFDUS_clean_linker_0, # of connection points: 2
#     Edge 188, Type (0, 0), BuildingBlock: CIFDUS_clean_linker_0, # of connection points: 2
#     Edge 189, Type (0, 0), BuildingBlock: CIFDUS_clean_linker_0, # of connection points: 2
#     Edge 190, Type (0, 0), BuildingBlock: CIFDUS_clean_linker_0, # of connection points: 2
#     Edge 191, Type (0, 0), BuildingBlock: CIFDUS_clean_linker_0, # of connection points: 2
#     Edge 192, Type (0, 0), BuildingBlock: CIFDUS_clean_linker_0, # of connection points: 2
#     Edge 193, Type (0, 0), BuildingBlock: CIFDUS_clean_linker_0, # of connection points: 2
#     Edge 194, Type (0, 0), BuildingBlock: CIFDUS_clean_linker_0, # of connection points: 2
#     Edge 195, Type (0, 0), BuildingBlock: CIFDUS_clean_linker_0, # of connection points: 2
#     Edge 196, Type (0, 0), BuildingBlock: CIFDUS_clean_linker_0, # of connection points: 2
#     Edge 197, Type (0, 0), BuildingBlock: CIFDUS_clean_linker_0, # of connection points: 2
#     Edge 198, Type (0, 0), BuildingBlock: CIFDUS_clean_linker_0, # of connection points: 2
#     Edge 199, Type (0, 0), BuildingBlock: CIFDUS_clean_linker_0, # of connection points: 2
#     Edge 200, Type (0, 0), BuildingBlock: CIFDUS_clean_linker_0, # of connection points: 2
#     Edge 201, Type (0, 0), BuildingBlock: CIFDUS_clean_linker_0, # of connection points: 2
#     Edge 202, Type (0, 0), BuildingBlock: CIFDUS_clean_linker_0, # of connection points: 2
#     Edge 203, Type (0, 0), BuildingBlock: CIFDUS_clean_linker_0, # of connection points: 2
#     Edge 204, Type (0, 0), BuildingBlock: CIFDUS_clean_linker_0, # of connection points: 2
#     Edge 205, Type (0, 0), BuildingBlock: CIFDUS_clean_linker_0, # of connection points: 2
#     Edge 206, Type (0, 0), BuildingBlock: CIFDUS_clean_linker_0, # of connection points: 2
#     Edge 207, Type (0, 0), BuildingBlock: CIFDUS_clean_linker_0, # of connection points: 2
#     Edge 208, Type (0, 0), BuildingBlock: CIFDUS_clean_linker_0, # of connection points: 2
#     Edge 209, Type (0, 0), BuildingBlock: CIFDUS_clean_linker_0, # of connection points: 2
#     Edge 210, Type (0, 0), BuildingBlock: CIFDUS_clean_linker_0, # of connection points: 2
#     Edge 211, Type (0, 0), BuildingBlock: CIFDUS_clean_linker_0, # of connection points: 2
#     Edge 212, Type (0, 0), BuildingBlock: CIFDUS_clean_linker_0, # of connection points: 2
#     Edge 213, Type (0, 0), BuildingBlock: CIFDUS_clean_linker_0, # of connection points: 2
#     Edge 214, Type (0, 0), BuildingBlock: CIFDUS_clean_linker_0, # of connection points: 2
#     Edge 215, Type (0, 0), BuildingBlock: CIFDUS_clean_linker_0, # of connection points: 2
#     Edge 216, Type (0, 0), BuildingBlock: CIFDUS_clean_linker_0, # of connection points: 2
#     Edge 217, Type (0, 0), BuildingBlock: CIFDUS_clean_linker_0, # of connection points: 2
#     Edge 218, Type (0, 0), BuildingBlock: CIFDUS_clean_linker_0, # of connection points: 2
#     Edge 219, Type (0, 0), BuildingBlock: CIFDUS_clean_linker_0, # of connection points: 2
#     Edge 220, Type (0, 0), BuildingBlock: CIFDUS_clean_linker_0, # of connection points: 2
#     Edge 221, Type (0, 0), BuildingBlock: CIFDUS_clean_linker_0, # of connection points: 2
#     Edge 222, Type (0, 0), BuildingBlock: CIFDUS_clean_linker_0, # of connection points: 2
#     Edge 223, Type (0, 0), BuildingBlock: CIFDUS_clean_linker_0, # of connection points: 2
#     Edge 224, Type (0, 0), BuildingBlock: CIFDUS_clean_linker_0, # of connection points: 2
#     Edge 225, Type (0, 0), BuildingBlock: CIFDUS_clean_linker_0, # of connection points: 2
#     Edge 226, Type (0, 0), BuildingBlock: CIFDUS_clean_linker_0, # of connection points: 2
#     Edge 227, Type (0, 0), BuildingBlock: CIFDUS_clean_linker_0, # of connection points: 2
#     Edge 228, Type (0, 0), BuildingBlock: CIFDUS_clean_linker_0, # of connection points: 2
#     Edge 229, Type (0, 0), BuildingBlock: CIFDUS_clean_linker_0, # of connection points: 2
#     Edge 230, Type (0, 0), BuildingBlock: CIFDUS_clean_linker_0, # of connection points: 2
#     Edge 231, Type (0, 0), BuildingBlock: CIFDUS_clean_linker_0, # of connection points: 2
#     Edge 232, Type (0, 0), BuildingBlock: CIFDUS_clean_linker_0, # of connection points: 2
#     Edge 233, Type (0, 0), BuildingBlock: CIFDUS_clean_linker_0, # of connection points: 2
#     Edge 234, Type (0, 0), BuildingBlock: CIFDUS_clean_linker_0, # of connection points: 2
#     Edge 235, Type (0, 0), BuildingBlock: CIFDUS_clean_linker_0, # of connection points: 2
#     Edge 236, Type (0, 0), BuildingBlock: CIFDUS_clean_linker_0, # of connection points: 2
#     Edge 237, Type (0, 0), BuildingBlock: CIFDUS_clean_linker_0, # of connection points: 2
#     Edge 238, Type (0, 0), BuildingBlock: CIFDUS_clean_linker_0, # of connection points: 2
#     Edge 239, Type (0, 0), BuildingBlock: CIFDUS_clean_linker_0, # of connection points: 2
# Relax obj value: 0.385
# Max RMSD: 0.240
# Mean RMSD: 0.206
data_MOF--net-pyc--node1-GIZVER_clean_sbu_0--edge1-CIFDUS_clean_linker_0
_symmetry_space_group_name_H-M    P1
_symmetry_Int_Tables_number       1
_symmetry_cell_setting            triclinic
loop_
_symmetry_equiv_pos_as_xyz
'x, y, z'
_cell_length_a     58.178788
_cell_length_b     57.10777
_cell_length_c     55.860779
_cell_angle_alpha  89.708072
_cell_angle_beta   88.264171
_cell_angle_gamma 91.344979
loop_
_atom_site_label
_atom_site_type_symbol
_atom_site_fract_x
_atom_site_fract_y
_atom_site_fract_z
_atom_type_partial_charge
Co0 Co 0.18178 0.22843 0.45043 0.0
Co1 Co 0.1922 0.22169 0.48889 0.0
Co2 Co 0.17826 0.17239 0.4698 0.0
O3 O 0.17232 0.20549 0.47255 0.0
H4 H 0.15692 0.20796 0.47889 0.0
O5 O 0.1851 0.13942 0.46762 0.0
Co6 Co 0.17489 0.11719 0.4905 0.0
Co7 Co 0.16872 0.123 0.44733 0.0
H8 H 0.20118 0.13748 0.46337 0.0
O9 O 0.17908 0.23477 0.51342 0.0
O10 O 0.19166 0.25146 0.47757 0.0
O11 O 0.22104 0.20819 0.49399 0.0
O12 O 0.20574 0.1722 0.49218 0.0
O13 O 0.15575 0.16786 0.4983 0.0
O14 O 0.16821 0.09506 0.51144 0.0
O15 O 0.20144 0.10143 0.49012 0.0
O16 O 0.14504 0.13081 0.49423 0.0
O17 O 0.14713 0.17048 0.44917 0.0
O18 O 0.13941 0.13282 0.44157 0.0
O19 O 0.16312 0.097 0.46495 0.0
O20 O 0.18273 0.10207 0.42908 0.0
C21 C 0.16476 0.25316 0.43322 0.0
C22 C 0.21897 0.19571 0.43995 0.0
C23 C 0.22254 0.18629 0.49679 0.0
C24 C 0.18414 0.25312 0.50018 0.0
C25 C 0.18903 0.08909 0.50556 0.0
C26 C 0.14094 0.15121 0.50203 0.0
C27 C 0.13251 0.1534 0.44371 0.0
C28 C 0.17233 0.08877 0.44522 0.0
O29 O 0.18663 0.25035 0.42868 0.0
O30 O 0.15413 0.24125 0.45022 0.0
O31 O 0.20384 0.17834 0.44224 0.0
O32 O 0.21302 0.21622 0.44656 0.0
Co33 Co 0.88372 0.44157 0.68438 0.0
Co34 Co 0.87197 0.45001 0.72333 0.0
Co35 Co 0.92551 0.44016 0.7188 0.0
O36 O 0.89386 0.43158 0.71419 0.0
H37 H 0.89035 0.41528 0.71768 0.0
O38 O 0.95719 0.44996 0.72391 0.0
Co39 Co 0.97757 0.43509 0.74329 0.0
Co40 Co 0.97576 0.4384 0.7011 0.0
H41 H 0.95895 0.46678 0.72484 0.0
O42 O 0.84954 0.43196 0.73608 0.0
O43 O 0.8514 0.44541 0.69756 0.0
O44 O 0.88287 0.47377 0.7466 0.0
O45 O 0.91773 0.45786 0.74991 0.0
O46 O 0.92817 0.4102 0.7379 0.0
O47 O 0.99716 0.4231 0.76223 0.0
O48 O 0.99035 0.46143 0.75596 0.0
O49 O 0.9659 0.40508 0.73401 0.0
O50 O 0.93176 0.41844 0.68789 0.0
O51 O 0.96853 0.4089 0.68707 0.0
O52 O 1.00204 0.43659 0.71655 0.0
O53 O 0.99175 0.45971 0.68482 0.0
C54 C 0.87526 0.42424 0.65472 0.0
C55 C 0.90617 0.48451 0.69581 0.0
C56 C 0.90179 0.47164 0.75753 0.0
C57 C 0.84072 0.43397 0.7151 0.0
C58 C 1.00134 0.44499 0.7668 0.0
C59 C 0.94561 0.39703 0.73897 0.0
C60 C 0.94807 0.40384 0.68193 0.0
C61 C 1.00695 0.4521 0.69944 0.0
O62 O 0.87527 0.44706 0.65529 0.0
O63 O 0.87868 0.41235 0.67416 0.0
O64 O 0.92366 0.47239 0.70131 0.0
O65 O 0.8876 0.47388 0.69126 0.0
Co66 Co 0.69191 0.21236 0.97311 0.0
Co67 Co 0.67459 0.18917 1.00936 0.0
Co68 Co 0.67673 0.15524 0.96811 0.0
O69 O 0.67061 0.18726 0.97685 0.0
H70 H 0.65516 0.19149 0.97325 0.0
O71 O 0.68394 0.12329 0.95989 0.0
Co72 Co 0.66798 0.09656 0.97158 0.0
Co73 Co 0.67198 0.11686 0.93059 0.0
H74 H 0.70029 0.12111 0.95902 0.0
O75 O 0.66114 0.21183 0.02734 0.0
O76 O 0.69633 0.21344 1.00891 0.0
O77 O 0.68726 0.16273 0.02559 0.0
O78 O 0.70338 0.15241 0.99108 0.0
O79 O 0.65311 0.14454 0.99386 0.0
O80 O 0.65495 0.07024 0.98157 0.0
O81 O 0.69252 0.07779 0.97259 0.0
O82 O 0.63953 0.11342 0.97475 0.0
O83 O 0.64636 0.15733 0.947 0.0
O84 O 0.64283 0.1267 0.92301 0.0
O85 O 0.66412 0.08708 0.93763 0.0
O86 O 0.69018 0.10226 0.90975 0.0
C87 C 0.68826 0.2467 0.97228 0.0
C88 C 0.72069 0.17935 0.94878 0.0
C89 C 0.7031 0.15249 1.01402 0.0
C90 C 0.68129 0.22192 0.02433 0.0
C91 C 0.67602 0.06336 0.9799 0.0
C92 C 0.63693 0.12924 0.99081 0.0
C93 C 0.63381 0.14371 0.9335 0.0
C94 C 0.68015 0.08464 0.9209 0.0
O95 O 0.70857 0.23782 0.96977 0.0
O96 O 0.67005 0.23348 0.97602 0.0
O97 O 0.70283 0.16636 0.94297 0.0
O98 O 0.7185 0.19265 0.96706 0.0
Co99 Co 0.88493 0.95407 0.19471 0.0
Co100 Co 0.87412 0.94373 0.23361 0.0
Co101 Co 0.92877 0.94118 0.22048 0.0
O102 O 0.89657 0.9326 0.21636 0.0
H103 H 0.89406 0.91633 0.21236 0.0
O104 O 0.96104 0.95028 0.22402 0.0
Co105 Co 0.98175 0.93292 0.24108 0.0
Co106 Co 0.97816 0.93974 0.19886 0.0
H107 H 0.96314 0.96696 0.22604 0.0
O108 O 0.85012 0.92378 0.23707 0.0
O109 O 0.85403 0.95453 0.21098 0.0
O110 O 0.8846 0.96191 0.26048 0.0
O111 O 0.92265 0.96123 0.25145 0.0
O112 O 0.93161 0.91261 0.24117 0.0
O113 O 1.00147 0.91838 0.25824 0.0
O114 O 0.99652 0.95741 0.25522 0.0
O115 O 0.96768 0.90442 0.2306 0.0
O116 O 0.93366 0.91631 0.19165 0.0
O117 O 0.97058 0.91108 0.18272 0.0
O118 O 1.00499 0.93518 0.21303 0.0
O119 O 0.99467 0.96129 0.18373 0.0
C120 C 0.87337 0.95124 0.16152 0.0
C121 C 0.91126 0.98776 0.20583 0.0
C122 C 0.90535 0.96747 0.26515 0.0
C123 C 0.84154 0.93795 0.22148 0.0
C124 C 1.00626 0.93953 0.26508 0.0
C125 C 0.94765 0.89783 0.23848 0.0
C126 C 0.95007 0.90361 0.182 0.0
C127 C 1.01005 0.95113 0.19636 0.0
O128 O 0.87507 0.97166 0.17161 0.0
O129 O 0.87691 0.9323 0.1738 0.0
O130 O 0.92643 0.97233 0.20001 0.0
O131 O 0.89235 0.97974 0.21402 0.0
Co132 Co 0.12553 0.17711 0.8472 0.0
Co133 Co 0.12565 0.17995 0.80544 0.0
Co134 Co 0.1289 0.12639 0.81945 0.0
O135 O 0.13653 0.15895 0.82319 0.0
H136 H 0.15305 0.16098 0.82182 0.0
O137 O 0.12355 0.09168 0.81455 0.0
Co138 Co 0.14419 0.07639 0.79101 0.0
Co139 Co 0.13801 0.07141 0.83487 0.0
H140 H 0.10749 0.0876 0.81273 0.0
O141 O 0.14736 0.19697 0.79143 0.0
O142 O 0.12421 0.20605 0.82409 0.0
O143 O 0.10144 0.16964 0.78585 0.0
O144 O 0.10714 0.13114 0.79085 0.0
O145 O 0.15627 0.12725 0.79618 0.0
O146 O 0.16011 0.06221 0.76839 0.0
O147 O 0.12214 0.05797 0.77711 0.0
O148 O 0.17108 0.09298 0.80141 0.0
O149 O 0.15451 0.12209 0.84722 0.0
O150 O 0.16379 0.08438 0.85028 0.0
O151 O 0.15145 0.0511 0.81335 0.0
O152 O 0.12649 0.04228 0.8442 0.0
C153 C 0.14088 0.19329 0.87399 0.0
C154 C 0.08408 0.14908 0.84285 0.0
C155 C 0.09721 0.14844 0.78051 0.0
C156 C 0.1379 0.21231 0.80558 0.0
C157 C 0.1402 0.05299 0.76372 0.0
C158 C 0.17384 0.11445 0.79634 0.0
C159 C 0.16889 0.10568 0.85376 0.0
C160 C 0.14193 0.03598 0.82838 0.0
O161 O 0.11857 0.19386 0.87231 0.0
O162 O 0.15354 0.18519 0.85655 0.0
O163 O 0.09694 0.13014 0.84057 0.0
O164 O 0.09405 0.16918 0.84102 0.0
Co165 Co 0.87879 0.3942 0.11922 0.0
Co166 Co 0.8668 0.38024 0.08261 0.0
Co167 Co 0.91871 0.39099 0.07455 0.0
O168 O 0.8893 0.40036 0.08755 0.0
H169 H 0.88542 0.41579 0.08198 0.0
O170 O 0.94802 0.37994 0.06083 0.0
Co171 Co 0.96155 0.38532 0.02956 0.0
Co172 Co 0.97026 0.39949 0.0681 0.0
H173 H 0.95125 0.36436 0.06647 0.0
O174 O 0.84505 0.39418 0.06807 0.0
O175 O 0.84648 0.38468 0.10803 0.0
O176 O 0.87532 0.35008 0.06928 0.0
O177 O 0.90472 0.36882 0.05067 0.0
O178 O 0.91743 0.41913 0.05046 0.0
O179 O 0.97442 0.38789 1.00093 0.0
O180 O 0.9752 0.35693 0.02607 0.0
O181 O 0.94985 0.41602 0.02851 0.0
O182 O 0.93256 0.4163 0.09806 0.0
O183 O 0.96306 0.42987 0.07727 0.0
O184 O 0.99055 0.39738 0.04385 0.0
O185 O 0.99134 0.38535 0.08315 0.0
C186 C 0.86551 0.41493 0.14491 0.0
C187 C 0.90375 0.35033 0.1113 0.0
C188 C 0.89225 0.35024 0.05434 0.0
C189 C 0.83526 0.39173 0.08924 0.0
C190 C 0.98147 0.36707 1.0058 0.0
C191 C 0.93238 0.42765 0.03493 0.0
C192 C 0.94693 0.4335 0.09227 0.0
C193 C 1.00091 0.38763 0.06182 0.0
O194 O 0.86896 0.39285 0.14927 0.0
O195 O 0.8707 0.4237 0.12387 0.0
O196 O 0.91945 0.36132 0.09797 0.0
O197 O 0.88619 0.36144 0.11846 0.0
Co198 Co 0.63227 0.17823 0.35079 0.0
Co199 Co 0.6245 0.18389 0.31139 0.0
Co200 Co 0.63195 0.12992 0.32162 0.0
O201 O 0.64009 0.1624 0.32332 0.0
H202 H 0.65606 0.16513 0.31866 0.0
O203 O 0.62455 0.09554 0.31941 0.0
Co204 Co 0.64294 0.07683 0.29756 0.0
Co205 Co 0.63864 0.0764 0.34096 0.0
H206 H 0.60822 0.09227 0.31864 0.0
O207 O 0.64348 0.20172 0.29373 0.0
O208 O 0.6298 0.2095 0.33163 0.0
O209 O 0.59958 0.17171 0.2928 0.0
O210 O 0.61262 0.13485 0.29114 0.0
O211 O 0.66119 0.12738 0.30054 0.0
O212 O 0.65726 0.05944 0.27617 0.0
O213 O 0.61905 0.0613 0.28388 0.0
O214 O 0.6708 0.091 0.30741 0.0
O215 O 0.65594 0.12643 0.35068 0.0
O216 O 0.6656 0.08899 0.35548 0.0
O217 O 0.64666 0.0513 0.32187 0.0
O218 O 0.62386 0.05202 0.35597 0.0
C219 C 0.65179 0.19075 0.37702 0.0
C220 C 0.58779 0.15443 0.34559 0.0
C221 C 0.59974 0.15141 0.28327 0.0
C222 C 0.6405 0.21615 0.3114 0.0
C223 C 0.63637 0.05345 0.27104 0.0
C224 C 0.67648 0.11168 0.30088 0.0
C225 C 0.67038 0.11052 0.35819 0.0
C226 C 0.63595 0.04073 0.34003 0.0
O227 O 0.62941 0.19249 0.37869 0.0
O228 O 0.66146 0.18332 0.35736 0.0
O229 O 0.59929 0.13517 0.34081 0.0
O230 O 0.59934 0.17353 0.34735 0.0
Co231 Co 0.87025 0.88441 0.62232 0.0
Co232 Co 0.85539 0.89692 0.5837 0.0
Co233 Co 0.91012 0.89641 0.58017 0.0
O234 O 0.88166 0.9044 0.59736 0.0
H235 H 0.88154 0.92078 0.6016 0.0
O236 O 0.93814 0.8871 0.56269 0.0
Co237 Co 0.95297 0.90286 0.53638 0.0
Co238 Co 0.96229 0.89778 0.57941 0.0
H239 H 0.93886 0.87027 0.56116 0.0
O240 O 0.83278 0.91712 0.58846 0.0
O241 O 0.83865 0.88225 0.60759 0.0
O242 O 0.85731 0.87738 0.55535 0.0
O243 O 0.89522 0.87373 0.55786 0.0
O244 O 0.90594 0.92402 0.55595 0.0
O245 O 0.96757 0.91592 0.51195 0.0
O246 O 0.96449 0.87744 0.5208 0.0
O247 O 0.94297 0.93208 0.5486 0.0
O248 O 0.92455 0.92252 0.60227 0.0
O249 O 0.96158 0.92771 0.59313 0.0
O250 O 0.98179 0.90319 0.55476 0.0
O251 O 0.98267 0.87618 0.58493 0.0
C252 C 0.85881 0.88987 0.65588 0.0
C253 C 0.8983 0.85043 0.60815 0.0
C254 C 0.87604 0.86807 0.5487 0.0
C255 C 0.82498 0.89727 0.5975 0.0
C256 C 0.97381 0.89463 0.50795 0.0
C257 C 0.92204 0.93778 0.54679 0.0
C258 C 0.94303 0.93576 0.60132 0.0
C259 C 0.99112 0.88515 0.56499 0.0
O260 O 0.86052 0.86878 0.64751 0.0
O261 O 0.86235 0.9079 0.64169 0.0
O262 O 0.91434 0.86644 0.60314 0.0
O263 O 0.87775 0.85661 0.606 0.0
Co264 Co 0.51365 0.10415 0.11523 0.0
Co265 Co 0.46987 0.11025 0.12025 0.0
Co266 Co 0.49612 0.1632 0.12358 0.0
O267 O 0.49495 0.12786 0.13141 0.0
H268 H 0.49528 0.1255 0.14861 0.0
O269 O 0.49694 0.19946 0.11653 0.0
Co270 Co 0.48423 0.22559 0.13874 0.0
Co271 Co 0.52605 0.20997 0.12708 0.0
H272 H 0.49527 0.20293 0.09966 0.0
O273 O 0.45842 0.08079 0.13268 0.0
O274 O 0.48533 0.08626 0.10355 0.0
O275 O 0.4531 0.12738 0.09753 0.0
O276 O 0.47591 0.15966 0.09382 0.0
O277 O 0.46863 0.16829 0.14555 0.0
O278 O 0.47312 0.25033 0.15826 0.0
O279 O 0.48264 0.25407 0.11978 0.0
O280 O 0.48301 0.20114 0.16175 0.0
O281 O 0.51552 0.1651 0.15376 0.0
O282 O 0.54438 0.19056 0.14781 0.0
O283 O 0.51607 0.23456 0.14587 0.0
O284 O 0.53942 0.23604 0.11283 0.0
C285 C 0.52737 0.0723 0.12441 0.0
C286 C 0.5287 0.14233 0.08639 0.0
C287 C 0.45936 0.14611 0.08653 0.0
C288 C 0.47136 0.07193 0.11588 0.0
C289 C 0.47522 0.26412 0.13972 0.0
C290 C 0.46749 0.18493 0.16098 0.0
C291 C 0.53497 0.17387 0.1598 0.0
C292 C 0.52922 0.24652 0.13065 0.0
O293 O 0.53091 0.08139 0.10319 0.0
O294 O 0.51503 0.08358 0.14035 0.0
O295 O 0.52468 0.15873 0.10172 0.0
O296 O 0.5163 0.12349 0.08681 0.0
Co297 Co 0.89391 0.72894 0.43315 0.0
Co298 Co 0.90862 0.76623 0.41099 0.0
Co299 Co 0.9041 0.72907 0.37292 0.0
O300 O 0.9113 0.73409 0.40576 0.0
H301 H 0.92704 0.72986 0.40812 0.0
O302 O 0.89839 0.72639 0.33848 0.0
Co303 Co 0.91828 0.74755 0.31889 0.0
Co304 Co 0.91414 0.70396 0.32162 0.0
H305 H 0.88229 0.72691 0.33479 0.0
O306 O 0.92545 0.7812 0.4336 0.0
O307 O 0.89027 0.76358 0.43804 0.0
O308 O 0.88999 0.78502 0.39109 0.0
O309 O 0.87711 0.75289 0.37361 0.0
O310 O 0.92801 0.75433 0.36632 0.0
O311 O 0.93417 0.76738 0.30061 0.0
O312 O 0.89585 0.76086 0.3012 0.0
O313 O 0.94512 0.73908 0.3351 0.0
O314 O 0.93394 0.70493 0.37191 0.0
O315 O 0.94123 0.69037 0.33526 0.0
O316 O 0.9233 0.72231 0.29547 0.0
O317 O 0.89901 0.69046 0.29723 0.0
C318 C 0.90204 0.72593 0.4669 0.0
C319 C 0.86019 0.71157 0.39988 0.0
C320 C 0.87427 0.77432 0.38016 0.0
C321 C 0.90632 0.77772 0.44581 0.0
C322 C 0.91404 0.77312 0.29362 0.0
C323 C 0.94651 0.75025 0.35457 0.0
C324 C 0.9476 0.6933 0.35659 0.0
C325 C 0.9094 0.70739 0.28522 0.0
O326 O 0.88055 0.72399 0.46121 0.0
O327 O 0.91832 0.72974 0.451 0.0
O328 O 0.87583 0.70612 0.38317 0.0
O329 O 0.86568 0.72595 0.41638 0.0
Co330 Co 0.35125 0.14714 0.72355 0.0
Co331 Co 0.31371 0.15333 0.7048 0.0
Co332 Co 0.35262 0.16087 0.6638 0.0
O333 O 0.34259 0.16679 0.69778 0.0
H334 H 0.34314 0.18327 0.70159 0.0
O335 O 0.36024 0.15324 0.63057 0.0
Co336 Co 0.34199 0.16687 0.60672 0.0
Co337 Co 0.38356 0.16979 0.61649 0.0
H338 H 0.36258 0.1367 0.62814 0.0
O339 O 0.29384 0.16775 0.72482 0.0
O340 O 0.31736 0.13751 0.73308 0.0
O341 O 0.30133 0.13011 0.68354 0.0
O342 O 0.33294 0.13101 0.66033 0.0
O343 O 0.32677 0.17999 0.65369 0.0
O344 O 0.3252 0.17777 0.5839 0.0
O345 O 0.33511 0.14034 0.58985 0.0
O346 O 0.34382 0.19645 0.62195 0.0
O347 O 0.37221 0.19459 0.66385 0.0
O348 O 0.39083 0.19991 0.62834 0.0
O349 O 0.37094 0.17243 0.58707 0.0
O350 O 0.40303 0.15331 0.5989 0.0
C351 C 0.35979 0.15236 0.75776 0.0
C352 C 0.37211 0.11985 0.68769 0.0
C353 C 0.31365 0.12149 0.66695 0.0
C354 C 0.29842 0.14938 0.73755 0.0
C355 C 0.32343 0.15586 0.57824 0.0
C356 C 0.33058 0.19789 0.64049 0.0
C357 C 0.38387 0.20831 0.6481 0.0
C358 C 0.3882 0.1584 0.58281 0.0
O359 O 0.36081 0.13172 0.74825 0.0
O360 O 0.35097 0.16973 0.74618 0.0
O361 O 0.37771 0.1382 0.67461 0.0
O362 O 0.35505 0.12093 0.70262 0.0
Co363 Co 0.96434 0.56629 0.92704 0.0
Co364 Co 0.95672 0.61027 0.9251 0.0
Co365 Co 0.90523 0.58219 0.91909 0.0
O366 O 0.94049 0.58471 0.91187 0.0
H367 H 0.94335 0.58507 0.89475 0.0
O368 O 0.86913 0.58029 0.92516 0.0
Co369 Co 0.8439 0.59088 0.90153 0.0
Co370 Co 0.86173 0.55081 0.91334 0.0
H371 H 0.86467 0.58163 0.94188 0.0
O372 O 0.98475 0.62504 0.91373 0.0
O373 O 0.98157 0.59594 0.94092 0.0
O374 O 0.93784 0.62591 0.94792 0.0
O375 O 0.90738 0.60087 0.95042 0.0
O376 O 0.90045 0.61125 0.89999 0.0
O377 O 0.81984 0.60058 0.88086 0.0
O378 O 0.81363 0.58755 0.91775 0.0
O379 O 0.86978 0.5971 0.8809 0.0
O380 O 0.90378 0.56412 0.88733 0.0
O381 O 0.88487 0.53147 0.89708 0.0
O382 O 0.84065 0.55796 0.89044 0.0
O383 O 0.83606 0.53599 0.92457 0.0
C384 C 0.99627 0.55392 0.91701 0.0
C385 C 0.92521 0.54748 0.95414 0.0
C386 C 0.91961 0.6181 0.95859 0.0
C387 C 0.99449 0.61246 0.92979 0.0
C388 C 0.80475 0.59567 0.89793 0.0
C389 C 0.88445 0.61357 0.88489 0.0
C390 C 0.89774 0.54299 0.8824 0.0
C391 C 0.83004 0.54135 0.90302 0.0
O392 O 0.98689 0.54909 0.93793 0.0
O393 O 0.98535 0.56704 0.90205 0.0
O394 O 0.90974 0.55223 0.93875 0.0
O395 O 0.94381 0.56019 0.95514 0.0
Co396 Co 0.24097 0.45863 0.11875 0.0
Co397 Co 0.21897 0.4955 0.11299 0.0
Co398 Co 0.18388 0.45224 0.1163 0.0
O399 O 0.21366 0.4651 0.10477 0.0
H400 H 0.21491 0.46404 0.08753 0.0
O401 O 0.1534 0.44064 0.12784 0.0
Co402 Co 0.12778 0.45251 0.11184 0.0
Co403 Co 0.14522 0.41196 0.11623 0.0
H404 H 0.1516 0.44089 0.1451 0.0
O405 O 0.23973 0.51569 0.09711 0.0
O406 O 0.24608 0.49272 0.12929 0.0
O407 O 0.19504 0.50847 0.13298 0.0
O408 O 0.18148 0.47364 0.14557 0.0
O409 O 0.17038 0.4768 0.09671 0.0
O410 O 0.10299 0.46359 0.09949 0.0
O411 O 0.10862 0.45461 0.1382 0.0
O412 O 0.14389 0.45381 0.08191 0.0
O413 O 0.1853 0.43154 0.0851 0.0
O414 O 0.16062 0.40129 0.08792 0.0
O415 O 0.11761 0.42047 0.10495 0.0
O416 O 0.12578 0.39122 0.13158 0.0
C417 C 0.27263 0.4553 0.10504 0.0
C418 C 0.21223 0.43399 0.15347 0.0
C419 C 0.18252 0.49604 0.14734 0.0
C420 C 0.25164 0.51095 0.11577 0.0
C421 C 0.096 0.46383 0.12175 0.0
C422 C 0.15805 0.47091 0.07942 0.0
C423 C 0.17527 0.41336 0.07579 0.0
C424 C 0.11378 0.39974 0.11443 0.0
O425 O 0.2683 0.45151 0.12781 0.0
O426 O 0.2572 0.46371 0.09138 0.0
O427 O 0.19819 0.4278 0.13729 0.0
O428 O 0.22638 0.45111 0.14954 0.0
Co429 Co 0.63653 0.37276 0.17071 0.0
Co430 Co 0.62655 0.3379 0.18864 0.0
Co431 Co 0.67967 0.33938 0.17174 0.0
O432 O 0.64712 0.34209 0.16572 0.0
H433 H 0.64269 0.33525 0.15071 0.0
O434 O 0.71235 0.337 0.17695 0.0
Co435 Co 0.73471 0.32772 0.15389 0.0
Co436 Co 0.72091 0.36777 0.16878 0.0
H437 H 0.71585 0.33339 0.19335 0.0
O438 O 0.60331 0.32097 0.17868 0.0
O439 O 0.60498 0.36093 0.18242 0.0
O440 O 0.63918 0.32565 0.21748 0.0
O441 O 0.67384 0.31751 0.2008 0.0
O442 O 0.68131 0.31265 0.14927 0.0
O443 O 0.75679 0.31891 0.13414 0.0
O444 O 0.75787 0.32343 0.17418 0.0
O445 O 0.7123 0.32738 0.12926 0.0
O446 O 0.68367 0.35922 0.14057 0.0
O447 O 0.70559 0.38962 0.14735 0.0
O448 O 0.74547 0.36165 0.15005 0.0
O449 O 0.74183 0.37951 0.18699 0.0
C450 C 0.62359 0.39702 0.14915 0.0
C451 C 0.66463 0.37184 0.21065 0.0
C452 C 0.65852 0.31559 0.21807 0.0
C453 C 0.5937 0.34129 0.17814 0.0
C454 C 0.76757 0.31679 0.15398 0.0
C455 C 0.69471 0.31328 0.1306 0.0
C456 C 0.69322 0.37834 0.13309 0.0
C457 C 0.75295 0.37587 0.16684 0.0
O458 O 0.62726 0.40162 0.17153 0.0
O459 O 0.62755 0.37628 0.14064 0.0
O460 O 0.68077 0.36614 0.1959 0.0
O461 O 0.6444 0.37275 0.20327 0.0
Co462 Co 0.74561 0.87709 0.44886 0.0
Co463 Co 0.70313 0.88732 0.44138 0.0
Co464 Co 0.73058 0.88914 0.38897 0.0
O465 O 0.73044 0.89488 0.42476 0.0
H466 H 0.73337 0.91135 0.42753 0.0
O467 O 0.73153 0.88379 0.35237 0.0
Co468 Co 0.70941 0.89255 0.32687 0.0
Co469 Co 0.74416 0.91207 0.34171 0.0
H470 H 0.74121 0.87098 0.34769 0.0
O471 O 0.69351 0.89887 0.47174 0.0
O472 O 0.7146 0.86702 0.46488 0.0
O473 O 0.68023 0.87524 0.42019 0.0
O474 O 0.70467 0.86546 0.39044 0.0
O475 O 0.70698 0.91477 0.38685 0.0
O476 O 0.69022 0.89991 0.30377 0.0
O477 O 0.71949 0.87543 0.3001 0.0
O478 O 0.6965 0.91243 0.34893 0.0
O479 O 0.75626 0.91339 0.3881 0.0
O480 O 0.74411 0.93853 0.36188 0.0
O481 O 0.73054 0.9181 0.31477 0.0
O482 O 0.76798 0.90939 0.32108 0.0
C483 C 0.75755 0.88447 0.48224 0.0
C484 C 0.75855 0.84898 0.40825 0.0
C485 C 0.68435 0.86559 0.40006 0.0
C486 C 0.70293 0.88021 0.48004 0.0
C487 C 0.70371 0.88795 0.28989 0.0
C488 C 0.6946 0.92131 0.36956 0.0
C489 C 0.75385 0.93448 0.38122 0.0
C490 C 0.75161 0.91479 0.30684 0.0
O491 O 0.76013 0.86376 0.47299 0.0
O492 O 0.7476 0.90062 0.46993 0.0
O493 O 0.75476 0.86382 0.39152 0.0
O494 O 0.74717 0.84979 0.42829 0.0
Co495 Co 0.24204 0.94762 0.62379 0.0
Co496 Co 0.22648 0.98713 0.61761 0.0
Co497 Co 0.18644 0.94936 0.61411 0.0
O498 O 0.21839 0.9588 0.60692 0.0
H499 H 0.2215 0.95858 0.58984 0.0
O500 O 0.15394 0.94051 0.61963 0.0
Co501 Co 0.13252 0.95549 0.59971 0.0
Co502 Co 0.14553 0.91179 0.60595 0.0
H503 H 0.14947 0.94074 0.63642 0.0
O504 O 0.249 1.00542 0.60342 0.0
O505 O 0.25171 0.98064 0.63533 0.0
O506 O 0.2027 1.00224 0.6357 0.0
O507 O 0.18264 0.96942 0.64422 0.0
O508 O 0.17912 0.97719 0.59524 0.0
O509 O 0.1105 0.96932 0.58458 0.0
O510 O 0.1093 0.95398 0.6219 0.0
O511 O 0.15365 0.95997 0.57347 0.0
O512 O 0.18875 0.93045 0.58206 0.0
O513 O 0.16702 0.89796 0.58397 0.0
O514 O 0.12543 0.92564 0.58547 0.0
O515 O 0.11707 0.8959 0.61075 0.0
C516 C 0.27256 0.93663 0.61373 0.0
C517 C 0.2079 0.9271 0.65383 0.0
C518 C 0.18676 0.99134 0.64745 0.0
C519 C 0.25838 0.99977 0.62347 0.0
C520 C 0.10008 0.96668 0.6054 0.0
C521 C 0.16981 0.97487 0.57539 0.0
C522 C 0.18071 0.91157 0.57227 0.0
C523 C 0.11184 0.90888 0.59268 0.0
O524 O 0.26592 0.935 0.63619 0.0
O525 O 0.26151 0.94919 0.59869 0.0
O526 O 0.19517 0.92248 0.63592 0.0
O527 O 0.22336 0.94321 0.652 0.0
Co528 Co 0.61926 0.33196 0.37516 0.0
Co529 Co 0.58196 0.3471 0.38986 0.0
Co530 Co 0.61863 0.38575 0.3971 0.0
O531 O 0.61084 0.3526 0.39848 0.0
H532 H 0.61253 0.34655 0.4145 0.0
O533 O 0.62556 0.41926 0.39773 0.0
Co534 Co 0.61298 0.43733 0.42406 0.0
Co535 Co 0.65451 0.42451 0.41001 0.0
H536 H 0.62432 0.42668 0.38225 0.0
O537 O 0.56579 0.32375 0.40387 0.0
O538 O 0.58517 0.32356 0.36766 0.0
O539 O 0.5655 0.37359 0.37847 0.0
O540 O 0.59816 0.39293 0.36931 0.0
O541 O 0.59176 0.3896 0.41831 0.0
O542 O 0.6015 0.4567 0.44545 0.0
O543 O 0.61365 0.46454 0.40744 0.0
O544 O 0.60825 0.4107 0.44565 0.0
O545 O 0.63804 0.37988 0.42768 0.0
O546 O 0.67094 0.39969 0.42386 0.0
O547 O 0.6445 0.44258 0.43541 0.0
O548 O 0.66997 0.4519 0.40518 0.0
C549 C 0.63103 0.30065 0.37676 0.0
C550 C 0.63889 0.37063 0.35171 0.0
C551 C 0.57636 0.39027 0.36779 0.0
C552 C 0.5687 0.3152 0.38244 0.0
C553 C 0.60333 0.47104 0.42731 0.0
C554 C 0.59277 0.39595 0.43973 0.0
C555 C 0.6576 0.3864 0.43622 0.0
C556 C 0.66011 0.4566 0.42574 0.0
O557 O 0.62967 0.31039 0.35574 0.0
O558 O 0.61992 0.30878 0.3953 0.0
O559 O 0.64404 0.38089 0.37158 0.0
O560 O 0.62207 0.35579 0.35138 0.0
Co561 Co 0.13046 0.87362 0.17064 0.0
Co562 Co 0.12085 0.83465 0.17556 0.0
Co563 Co 0.17538 0.84304 0.16566 0.0
O564 O 0.14311 0.84593 0.15699 0.0
H565 H 0.14051 0.84392 0.14011 0.0
O566 O 0.20715 0.84104 0.1752 0.0
Co567 Co 0.23105 0.82783 0.15819 0.0
Co568 Co 0.22066 0.86897 0.16421 0.0
H569 H 0.20851 0.83934 0.19231 0.0
O570 O 0.09787 0.82265 0.15938 0.0
O571 O 0.09959 0.85861 0.17714 0.0
O572 O 0.13162 0.81767 0.20271 0.0
O573 O 0.16891 0.81666 0.19061 0.0
O574 O 0.18109 0.82046 0.13835 0.0
O575 O 0.25432 0.81551 0.14322 0.0
O576 O 0.24681 0.81673 0.18308 0.0
O577 O 0.21639 0.83521 0.12972 0.0
O578 O 0.17914 0.86827 0.13884 0.0
O579 O 0.2147 0.88163 0.13312 0.0
O580 O 0.24901 0.85847 0.16118 0.0
O581 O 0.23352 0.88586 0.18663 0.0
C582 C 0.11706 0.90285 0.15747 0.0
C583 C 0.15697 0.86645 0.20886 0.0
C584 C 0.15204 0.81062 0.20524 0.0
C585 C 0.08839 0.84219 0.16585 0.0
C586 C 0.25983 0.81041 0.16486 0.0
C587 C 0.19862 0.82316 0.12374 0.0
C588 C 0.19483 0.87822 0.12529 0.0
C589 C 0.25044 0.87284 0.17952 0.0
O590 O 0.12 0.89996 0.18022 0.0
O591 O 0.12205 0.8861 0.14251 0.0
O592 O 0.17346 0.86602 0.1934 0.0
O593 O 0.13679 0.86458 0.20175 0.0
Co594 Co 0.11436 0.33106 0.88774 0.0
Co595 Co 0.07731 0.34908 0.88284 0.0
Co596 Co 0.11466 0.38863 0.89443 0.0
O597 O 0.10153 0.35751 0.89889 0.0
H598 H 0.09707 0.35567 0.91559 0.0
O599 O 0.12594 0.42088 0.89273 0.0
Co600 Co 0.11322 0.44084 0.9179 0.0
Co601 Co 0.15455 0.42379 0.90627 0.0
H602 H 0.12588 0.42761 0.87685 0.0
O603 O 0.05518 0.33352 0.89926 0.0
O604 O 0.08328 0.31884 0.87439 0.0
O605 O 0.06848 0.37075 0.85891 0.0
O606 O 0.09754 0.39628 0.86478 0.0
O607 O 0.08743 0.3988 0.91267 0.0
O608 O 0.10211 0.46172 0.93796 0.0
O609 O 0.11547 0.46761 0.90004 0.0
O610 O 0.10627 0.41559 0.94076 0.0
O611 O 0.13195 0.38229 0.92643 0.0
O612 O 0.16701 0.39793 0.92255 0.0
O613 O 0.14445 0.44382 0.93002 0.0
O614 O 0.17262 0.44996 0.90178 0.0
C615 C 0.12208 0.3015 0.9038 0.0
C616 C 0.13667 0.3635 0.85426 0.0
C617 C 0.07978 0.38944 0.85373 0.0
C618 C 0.06307 0.31676 0.88581 0.0
C619 C 0.10432 0.4751 0.91909 0.0
C620 C 0.0893 0.40293 0.93451 0.0
C621 C 0.15193 0.38695 0.93519 0.0
C622 C 0.16121 0.45657 0.92082 0.0
O623 O 0.12768 0.30465 0.88118 0.0
O624 O 0.10873 0.31579 0.91509 0.0
O625 O 0.14041 0.37785 0.87168 0.0
O626 O 0.12312 0.34571 0.85752 0.0
Co627 Co 0.1306 0.67908 0.34772 0.0
Co628 Co 0.12461 0.68293 0.30807 0.0
Co629 Co 0.13195 0.62953 0.31999 0.0
O630 O 0.13972 0.66216 0.32176 0.0
H631 H 0.15584 0.66499 0.31792 0.0
O632 O 0.12585 0.5948 0.31688 0.0
Co633 Co 0.1456 0.57618 0.29516 0.0
Co634 Co 0.14158 0.57656 0.33766 0.0
H635 H 0.10966 0.5907 0.31644 0.0
O636 O 0.14364 0.69944 0.2896 0.0
O637 O 0.12878 0.70964 0.32655 0.0
O638 O 0.0991 0.67065 0.29069 0.0
O639 O 0.11267 0.63405 0.28928 0.0
O640 O 0.16087 0.62779 0.299 0.0
O641 O 0.16093 0.55925 0.27414 0.0
O642 O 0.12259 0.55883 0.28145 0.0
O643 O 0.17327 0.59207 0.30458 0.0
O644 O 0.15549 0.62649 0.34995 0.0
O645 O 0.16836 0.58992 0.3512 0.0
O646 O 0.1497 0.55088 0.32008 0.0
O647 O 0.12714 0.55367 0.35441 0.0
C648 C 0.14824 0.69149 0.37497 0.0
C649 C 0.0872 0.65387 0.34265 0.0
C650 C 0.09938 0.65029 0.28144 0.0
C651 C 0.13934 0.71515 0.30578 0.0
C652 C 0.14052 0.55175 0.26893 0.0
C653 C 0.17735 0.61345 0.29931 0.0
C654 C 0.17137 0.61131 0.35595 0.0
C655 C 0.13925 0.54152 0.33919 0.0
O656 O 0.12598 0.69405 0.37476 0.0
O657 O 0.15937 0.68485 0.35579 0.0
O658 O 0.09908 0.63454 0.33904 0.0
O659 O 0.09828 0.67337 0.34301 0.0
Co660 Co 0.37501 0.88614 0.12147 0.0
Co661 Co 0.36184 0.8962 0.08125 0.0
Co662 Co 0.41554 0.892 0.07728 0.0
O663 O 0.38816 0.90131 0.09479 0.0
H664 H 0.38889 0.91804 0.09728 0.0
O665 O 0.44367 0.88287 0.0586 0.0
Co666 Co 0.45729 0.9007 0.03178 0.0
Co667 Co 0.46861 0.8945 0.07363 0.0
H668 H 0.44456 0.86611 0.05656 0.0
O669 O 0.34229 0.91944 0.0848 0.0
O670 O 0.34362 0.88464 0.10544 0.0
O671 O 0.36193 0.87579 0.0538 0.0
O672 O 0.39952 0.86945 0.05568 0.0
O673 O 0.41046 0.91931 0.05327 0.0
O674 O 0.46994 0.91544 1.00691 0.0
O675 O 0.46966 0.87661 1.01411 0.0
O676 O 0.44693 0.92875 0.04588 0.0
O677 O 0.43066 0.91769 0.09936 0.0
O678 O 0.46745 0.92343 0.08948 0.0
O679 O 0.48677 0.9026 0.04825 0.0
O680 O 0.49072 0.87434 0.07668 0.0
C681 C 0.36223 0.89761 0.15293 0.0
C682 C 0.40184 0.84742 0.10828 0.0
C683 C 0.37977 0.86489 0.0472 0.0
C684 C 0.33202 0.90126 0.09495 0.0
C685 C 0.47637 0.8947 1.00086 0.0
C686 C 0.42588 0.93366 0.04415 0.0
C687 C 0.44911 0.93091 0.09875 0.0
C688 C 0.49832 0.88565 0.05764 0.0
O689 O 0.3631 0.87528 0.14838 0.0
O690 O 0.36813 0.91285 0.13634 0.0
O691 O 0.41862 0.86171 0.10033 0.0
O692 O 0.38163 0.85544 0.10983 0.0
Co693 Co 0.18031 0.72532 0.95836 0.0
Co694 Co 0.19346 0.71516 0.99505 0.0
Co695 Co 0.17614 0.66806 0.97226 0.0
O696 O 0.17166 0.70085 0.97913 0.0
H697 H 0.15684 0.70319 0.98695 0.0
O698 O 0.18127 0.63534 0.96626 0.0
Co699 Co 0.16501 0.61132 0.98296 0.0
Co700 Co 0.1675 0.62603 0.93864 0.0
H701 H 0.19751 0.63222 0.96473 0.0
O702 O 0.18218 0.72691 0.02163 0.0
O703 O 0.19219 0.74588 0.98628 0.0
O704 O 0.22196 0.69962 0.99782 0.0
O705 O 0.20401 0.66498 0.99388 0.0
O706 O 0.15448 0.66072 1.00062 0.0
O707 O 0.15189 0.58747 0.99776 0.0
O708 O 0.18882 0.59153 0.98455 0.0
O709 O 0.13739 0.62939 0.98572 0.0
O710 O 0.14411 0.66912 0.95314 0.0
O711 O 0.13916 0.63732 0.9307 0.0
O712 O 0.1575 0.59836 0.95124 0.0
O713 O 0.18271 0.60599 0.92 0.0
C714 C 0.16288 0.75174 0.94458 0.0
C715 C 0.21653 0.69293 0.94318 0.0
C716 C 0.22167 0.67748 0.9996 0.0
C717 C 0.18546 0.74605 1.00915 0.0
C718 C 0.17246 0.57929 0.99562 0.0
C719 C 0.13705 0.64664 1.00022 0.0
C720 C 0.1308 0.65493 0.94077 0.0
C721 C 0.17199 0.59135 0.93456 0.0
O722 O 0.18437 0.74879 0.93827 0.0
O723 O 0.15291 0.73868 0.96109 0.0
O724 O 0.20112 0.67578 0.94456 0.0
O725 O 0.21116 0.71296 0.95166 0.0
Co726 Co 0.38241 0.94576 0.68967 0.0
Co727 Co 0.37075 0.94293 0.72914 0.0
Co728 Co 0.42545 0.93826 0.71774 0.0
O729 O 0.3934 0.92883 0.71544 0.0
H730 H 0.39097 0.91207 0.7145 0.0
O731 O 0.45741 0.94807 0.71972 0.0
Co732 Co 0.47957 0.93115 0.73454 0.0
Co733 Co 0.47265 0.93902 0.69234 0.0
H734 H 0.45917 0.96474 0.72218 0.0
O735 O 0.34801 0.92287 0.7369 0.0
O736 O 0.35031 0.94645 0.70369 0.0
O737 O 0.38154 0.96416 0.7541 0.0
O738 O 0.41968 0.95936 0.74765 0.0
O739 O 0.42988 0.91016 0.73881 0.0
O740 O 0.50114 0.91691 0.74918 0.0
O741 O 0.4946 0.95574 0.74801 0.0
O742 O 0.46515 0.90241 0.72495 0.0
O743 O 0.42958 0.91288 0.6895 0.0
O744 O 0.46565 0.91009 0.67628 0.0
O745 O 0.50026 0.93495 0.70471 0.0
O746 O 0.48791 0.96166 0.67707 0.0
C747 C 0.37511 0.93703 0.65632 0.0
C748 C 0.40591 0.98329 0.6998 0.0
C749 C 0.40246 0.96811 0.75967 0.0
C750 C 0.33895 0.93173 0.71793 0.0
C751 C 0.50589 0.93803 0.75618 0.0
C752 C 0.44603 0.89561 0.73508 0.0
C753 C 0.4456 0.90131 0.6779 0.0
C754 C 0.50407 0.95229 0.68925 0.0
O755 O 0.37386 0.95874 0.66309 0.0
O756 O 0.37772 0.92046 0.67205 0.0
O757 O 0.42257 0.96886 0.69705 0.0
O758 O 0.38637 0.97454 0.70471 0.0
Co759 Co 0.60804 0.82815 0.89911 0.0
Co760 Co 0.5714 0.8495 0.89424 0.0
Co761 Co 0.6132 0.88629 0.89169 0.0
O762 O 0.59926 0.8577 0.90504 0.0
H763 H 0.59715 0.85984 0.9221 0.0
O764 O 0.62448 0.91643 0.87963 0.0
Co765 Co 0.6114 0.94352 0.8946 0.0
Co766 Co 0.65189 0.92569 0.89141 0.0
H767 H 0.62514 0.91739 0.86234 0.0
O768 O 0.55008 0.83296 0.91239 0.0
O769 O 0.57665 0.81877 0.88604 0.0
O770 O 0.56013 0.86931 0.8692 0.0
O771 O 0.59433 0.88689 0.86233 0.0
O772 O 0.58817 0.90146 0.90933 0.0
O773 O 0.59986 0.96951 0.90573 0.0
O774 O 0.6089 0.96078 0.86729 0.0
O775 O 0.60902 0.92878 0.92608 0.0
O776 O 0.6327 0.88644 0.92304 0.0
O777 O 0.66154 0.9128 0.9206 0.0
O778 O 0.64323 0.95526 0.89879 0.0
O779 O 0.67071 0.94288 0.87187 0.0
C780 C 0.61037 0.80026 0.92039 0.0
C781 C 0.6313 0.85211 0.85772 0.0
C782 C 0.57357 0.88279 0.85694 0.0
C783 C 0.55679 0.8167 0.89765 0.0
C784 C 0.59967 0.97479 0.88316 0.0
C785 C 0.59195 0.91432 0.92702 0.0
C786 C 0.65001 0.89744 0.93246 0.0
C787 C 0.65898 0.9594 0.88199 0.0
O788 O 0.61693 0.79921 0.89783 0.0
O789 O 0.59983 0.81829 0.92874 0.0
O790 O 0.63706 0.87003 0.87035 0.0
O791 O 0.6182 0.83609 0.86712 0.0
Co792 Co 0.12788 0.3747 0.67584 0.0
Co793 Co 0.11585 0.33594 0.67745 0.0
Co794 Co 0.17018 0.34024 0.66547 0.0
O795 O 0.13814 0.34766 0.65954 0.0
H796 H 0.13455 0.34726 0.64276 0.0
O797 O 0.2024 0.33387 0.671 0.0
Co798 Co 0.22451 0.32383 0.64852 0.0
Co799 Co 0.21536 0.36344 0.66603 0.0
H800 H 0.20491 0.3285 0.68712 0.0
O801 O 0.09202 0.32707 0.66105 0.0
O802 O 0.09631 0.36048 0.68319 0.0
O803 O 0.1255 0.31633 0.70286 0.0
O804 O 0.16261 0.31466 0.69071 0.0
O805 O 0.1705 0.31749 0.63813 0.0
O806 O 0.24634 0.31388 0.62904 0.0
O807 O 0.24514 0.3137 0.66945 0.0
O808 O 0.2045 0.33079 0.62307 0.0
O809 O 0.17593 0.3637 0.63745 0.0
O810 O 0.20576 0.38642 0.64278 0.0
O811 O 0.24051 0.35565 0.64945 0.0
O812 O 0.23568 0.37151 0.68715 0.0
C813 C 0.11519 0.40542 0.6657 0.0
C814 C 0.15705 0.36386 0.71112 0.0
C815 C 0.14561 0.30846 0.70496 0.0
C816 C 0.08354 0.34551 0.67142 0.0
C817 C 0.25557 0.30859 0.64914 0.0
C818 C 0.18517 0.31992 0.62044 0.0
C819 C 0.19016 0.37931 0.6293 0.0
C820 C 0.24778 0.36825 0.66755 0.0
O821 O 0.11924 0.40094 0.68797 0.0
O822 O 0.11845 0.38939 0.64947 0.0
O823 O 0.17253 0.36273 0.69423 0.0
O824 O 0.13626 0.36329 0.70558 0.0
Co825 Co 0.38754 0.72137 0.93313 0.0
Co826 Co 0.40349 0.75922 0.91356 0.0
Co827 Co 0.39964 0.72477 0.87345 0.0
O828 O 0.40563 0.72768 0.90669 0.0
H829 H 0.42134 0.72342 0.90927 0.0
O830 O 0.39585 0.72412 0.83837 0.0
Co831 Co 0.41764 0.7455 0.82077 0.0
Co832 Co 0.41207 0.70199 0.82171 0.0
H833 H 0.38006 0.72525 0.83369 0.0
O834 O 0.42087 0.77224 0.93671 0.0
O835 O 0.38501 0.75584 0.94035 0.0
O836 O 0.38585 0.77929 0.89392 0.0
O837 O 0.37301 0.7483 0.87432 0.0
O838 O 0.42261 0.75091 0.86961 0.0
O839 O 0.43484 0.76585 0.80389 0.0
O840 O 0.39701 0.75817 0.80038 0.0
O841 O 0.4431 0.73749 0.83992 0.0
O842 O 0.43 0.70127 0.87244 0.0
O843 O 0.43741 0.6865 0.83611 0.0
O844 O 0.42599 0.72049 0.79832 0.0
O845 O 0.40045 0.68946 0.79519 0.0
C846 C 0.39469 0.71586 0.96658 0.0
C847 C 0.35442 0.70741 0.89837 0.0
C848 C 0.3706 0.76947 0.88158 0.0
C849 C 0.4016 0.76896 0.9487 0.0
C850 C 0.41543 0.7709 0.79456 0.0
C851 C 0.44209 0.74859 0.85944 0.0
C852 C 0.44373 0.68953 0.85733 0.0
C853 C 0.41716 0.70285 0.78659 0.0
O854 O 0.37327 0.71508 0.9605 0.0
O855 O 0.41136 0.72 0.95125 0.0
O856 O 0.3704 0.70202 0.88179 0.0
O857 O 0.35995 0.72078 0.91565 0.0
Co858 Co 0.96434 0.07265 0.43096 0.0
Co859 Co 0.95654 0.11639 0.42674 0.0
Co860 Co 0.90579 0.08552 0.42219 0.0
O861 O 0.94079 0.08979 0.4146 0.0
H862 H 0.94368 0.08935 0.39749 0.0
O863 O 0.86998 0.0827 0.42898 0.0
Co864 Co 0.84413 0.09132 0.40547 0.0
Co865 Co 0.8633 0.05238 0.41933 0.0
H866 H 0.86575 0.08494 0.44565 0.0
O867 O 0.98491 0.13097 0.41481 0.0
O868 O 0.98158 0.10276 0.44271 0.0
O869 O 0.93762 0.13137 0.45025 0.0
O870 O 0.90692 0.1065 0.45209 0.0
O871 O 0.89914 0.11272 0.4006 0.0
O872 O 0.81999 0.09905 0.3844 0.0
O873 O 0.81454 0.09122 0.42291 0.0
O874 O 0.86961 0.09379 0.38388 0.0
O875 O 0.90601 0.06495 0.39169 0.0
O876 O 0.88491 0.03338 0.4007 0.0
O877 O 0.83896 0.05746 0.3998 0.0
O878 O 0.84027 0.03765 0.43523 0.0
C879 C 0.99579 0.05946 0.42193 0.0
C880 C 0.9274 0.0551 0.4599 0.0
C881 C 0.919 0.1238 0.4604 0.0
C882 C 0.99469 0.11855 0.43094 0.0
C883 C 0.80538 0.09693 0.40239 0.0
C884 C 0.88274 0.11194 0.38566 0.0
C885 C 0.89932 0.04395 0.3868 0.0
C886 C 0.82975 0.04281 0.41574 0.0
O887 O 0.98649 0.05629 0.44318 0.0
O888 O 0.98498 0.07133 0.40588 0.0
O889 O 0.91146 0.05698 0.44436 0.0
O890 O 0.94443 0.06986 0.45924 0.0
Co891 Co 0.51094 0.60573 0.61227 0.0
Co892 Co 0.46828 0.61191 0.62449 0.0
Co893 Co 0.49293 0.66375 0.62102 0.0
O894 O 0.495 0.62922 0.6303 0.0
H895 H 0.49808 0.62758 0.64711 0.0
O896 O 0.49039 0.69981 0.61376 0.0
Co897 Co 0.47557 0.72481 0.6362 0.0
Co898 Co 0.51851 0.71338 0.62397 0.0
H899 H 0.48816 0.70291 0.59699 0.0
O900 O 0.45915 0.58198 0.63743 0.0
O901 O 0.48084 0.58887 0.60418 0.0
O902 O 0.44687 0.62976 0.6072 0.0
O903 O 0.47181 0.657 0.59248 0.0
O904 O 0.46555 0.66563 0.64273 0.0
O905 O 0.46268 0.74906 0.65506 0.0
O906 O 0.47601 0.75371 0.61775 0.0
O907 O 0.47163 0.70085 0.65932 0.0
O908 O 0.51332 0.66838 0.65052 0.0
O909 O 0.54072 0.69375 0.63933 0.0
O910 O 0.50619 0.73247 0.64785 0.0
O911 O 0.52838 0.74379 0.61603 0.0
C912 C 0.52511 0.57382 0.61985 0.0
C913 C 0.52412 0.64383 0.5832 0.0
C914 C 0.45311 0.64439 0.59092 0.0
C915 C 0.46892 0.57403 0.61804 0.0
C916 C 0.46665 0.7633 0.63709 0.0
C917 C 0.46486 0.67945 0.66043 0.0
C918 C 0.53316 0.67794 0.65369 0.0
C919 C 0.51894 0.74826 0.63682 0.0
O920 O 0.52634 0.58247 0.5982 0.0
O921 O 0.51452 0.58536 0.63683 0.0
O922 O 0.5211 0.66076 0.59817 0.0
O923 O 0.51082 0.6256 0.58446 0.0
Co924 Co 0.89396 0.19956 0.93604 0.0
Co925 Co 0.89572 0.24056 0.93442 0.0
Co926 Co 0.90232 0.22274 0.88119 0.0
O927 O 0.90839 0.22055 0.91513 0.0
H928 H 0.92479 0.2212 0.91744 0.0
O929 O 0.89817 0.22564 0.84599 0.0
Co930 Co 0.91931 0.24725 0.82862 0.0
Co931 Co 0.91284 0.20319 0.82738 0.0
H932 H 0.88227 0.22736 0.84194 0.0
O933 O 0.9151 0.25511 0.95273 0.0
O934 O 0.88961 0.22483 0.96217 0.0
O935 O 0.87089 0.25758 0.92284 0.0
O936 O 0.87721 0.24909 0.88424 0.0
O937 O 0.92772 0.24726 0.8801 0.0
O938 O 0.93642 0.26796 0.81204 0.0
O939 O 0.89839 0.26118 0.80932 0.0
O940 O 0.94457 0.23735 0.84628 0.0
O941 O 0.93119 0.19786 0.87771 0.0
O942 O 0.93869 0.18673 0.83999 0.0
O943 O 0.9265 0.22309 0.80482 0.0
O944 O 0.90027 0.19376 0.79924 0.0
C945 C 0.90513 0.17609 0.95927 0.0
C946 C 0.85743 0.20049 0.90391 0.0
C947 C 0.86583 0.25997 0.90112 0.0
C948 C 0.90247 0.24311 0.96834 0.0
C949 C 0.91694 0.27356 0.80315 0.0
C950 C 0.94592 0.24587 0.86705 0.0
C951 C 0.94484 0.18749 0.86151 0.0
C952 C 0.91524 0.20911 0.79074 0.0
O953 O 0.88326 0.17809 0.95569 0.0
O954 O 0.92003 0.19038 0.9488 0.0
O955 O 0.87236 0.20006 0.88554 0.0
O956 O 0.86463 0.20597 0.92443 0.0
Co957 Co 1.00811 0.60615 0.11908 0.0
Co958 Co 0.96431 0.61171 0.12382 0.0
Co959 Co 0.99142 0.66444 0.12527 0.0
O960 O 0.98949 0.62958 0.13427 0.0
H961 H 0.98978 0.62776 0.15145 0.0
O962 O 0.99237 0.70045 0.11771 0.0
Co963 Co 0.97945 0.72671 0.13987 0.0
Co964 Co 1.02152 0.7103 0.12865 0.0
H965 H 0.99096 0.70377 0.10086 0.0
O966 O 0.95293 0.58174 0.13606 0.0
O967 O 0.98025 0.58779 0.10763 0.0
O968 O 0.94808 0.6287 0.10049 0.0
O969 O 0.97146 0.66051 0.09573 0.0
O970 O 0.96373 0.66963 0.14602 0.0
O971 O 0.9683 0.75154 0.15939 0.0
O972 O 0.97815 0.75541 0.12104 0.0
O973 O 0.97752 0.7023 0.16286 0.0
O974 O 1.01044 0.66669 0.15566 0.0
O975 O 1.04035 0.69047 0.14875 0.0
O976 O 1.01144 0.73506 0.14702 0.0
O977 O 1.03509 0.73566 0.11403 0.0
C978 C 1.02274 0.57553 0.12971 0.0
C979 C 1.02276 0.6425 0.0885 0.0
C980 C 0.95458 0.64716 0.08907 0.0
C981 C 0.96637 0.57319 0.11953 0.0
C982 C 0.97053 0.76542 0.14093 0.0
C983 C 0.96194 0.68624 0.16116 0.0
C984 C 1.03048 0.67431 0.16109 0.0
C985 C 1.02449 0.74655 0.13133 0.0
O986 O 1.02582 0.58339 0.1079 0.0
O987 O 1.00987 0.58696 0.14496 0.0
O988 O 1.02018 0.65941 0.10354 0.0
O989 O 1.00971 0.62425 0.0903 0.0
Co990 Co 0.6909 0.7265 0.45437 0.0
Co991 Co 0.68251 0.7194 0.49736 0.0
Co992 Co 0.68045 0.67121 0.4701 0.0
O993 O 0.67349 0.70428 0.47156 0.0
H994 H 0.65714 0.70641 0.47031 0.0
O995 O 0.68767 0.63822 0.46903 0.0
Co996 Co 0.6719 0.61541 0.48807 0.0
Co997 Co 0.675 0.62445 0.44267 0.0
H998 H 0.70409 0.63596 0.46847 0.0
O999 O 0.66479 0.74157 0.50974 0.0
O1000 O 0.69663 0.74612 0.48482 0.0
O1001 O 0.70333 0.70352 0.51705 0.0
O1002 O 0.70789 0.67353 0.49216 0.0
O1003 O 0.65788 0.66625 0.49844 0.0
O1004 O 0.65925 0.59293 0.50524 0.0
O1005 O 0.69638 0.59703 0.49269 0.0
O1006 O 0.64357 0.63204 0.48722 0.0
O1007 O 0.64962 0.66812 0.44963 0.0
O1008 O 0.64601 0.63306 0.43283 0.0
O1009 O 0.66585 0.59801 0.45829 0.0
O1010 O 0.69187 0.6029 0.42738 0.0
C1011 C 0.68222 0.75221 0.43318 0.0
C1012 C 0.72331 0.69246 0.44495 0.0
C1013 C 0.71412 0.68562 0.51022 0.0
C1014 C 0.68261 0.75391 0.50191 0.0
C1015 C 0.67995 0.58501 0.50391 0.0
C1016 C 0.64152 0.65075 0.49942 0.0
C1017 C 0.63708 0.65191 0.43929 0.0
C1018 C 0.68094 0.58957 0.44305 0.0
O1019 O 0.7039 0.74795 0.43575 0.0
O1020 O 0.66653 0.74284 0.44751 0.0
O1021 O 0.70635 0.6771 0.44266 0.0
O1022 O 0.7193 0.71041 0.45781 0.0
Co1023 Co 0.62126 0.68404 0.84185 0.0
Co1024 Co 0.63435 0.68444 0.8004 0.0
Co1025 Co 0.62974 0.63166 0.81793 0.0
O1026 O 0.63755 0.66427 0.82277 0.0
H1027 H 0.65374 0.66554 0.82607 0.0
O1028 O 0.62436 0.59683 0.81364 0.0
Co1029 Co 0.64534 0.58012 0.7918 0.0
Co1030 Co 0.63729 0.57698 0.83655 0.0
H1031 H 0.60835 0.59297 0.8112 0.0
O1032 O 0.65765 0.70445 0.79472 0.0
O1033 O 0.62371 0.71018 0.81588 0.0
O1034 O 0.61597 0.67372 0.77544 0.0
O1035 O 0.60857 0.63704 0.78839 0.0
O1036 O 0.65739 0.63216 0.79529 0.0
O1037 O 0.66168 0.56434 0.77054 0.0
O1038 O 0.62357 0.56084 0.77885 0.0
O1039 O 0.67176 0.59767 0.8016 0.0
O1040 O 0.65546 0.62715 0.84549 0.0
O1041 O 0.66252 0.58971 0.85393 0.0
O1042 O 0.65236 0.55652 0.81626 0.0
O1043 O 0.6256 0.54727 0.84507 0.0
C1044 C 0.62969 0.70263 0.8698 0.0
C1045 C 0.58348 0.65365 0.83727 0.0
C1046 C 0.60558 0.6541 0.77328 0.0
C1047 C 0.64152 0.71812 0.80263 0.0
C1048 C 0.64177 0.55493 0.76616 0.0
C1049 C 0.6747 0.61902 0.79596 0.0
C1050 C 0.66864 0.61105 0.85487 0.0
C1051 C 0.642 0.54109 0.83031 0.0
O1052 O 0.60855 0.70242 0.86272 0.0
O1053 O 0.64619 0.69476 0.85614 0.0
O1054 O 0.59749 0.63553 0.83854 0.0
O1055 O 0.59226 0.67333 0.83043 0.0
Co1056 Co 0.35455 0.64026 0.22534 0.0
Co1057 Co 0.31724 0.65486 0.20974 0.0
Co1058 Co 0.35342 0.6596 0.16814 0.0
O1059 O 0.34726 0.66438 0.20301 0.0
H1060 H 0.35061 0.68019 0.20817 0.0
O1061 O 0.35817 0.65317 0.13426 0.0
Co1062 Co 0.34317 0.67053 0.11081 0.0
Co1063 Co 0.38504 0.66688 0.12393 0.0
H1064 H 0.35845 0.63661 0.1308 0.0
O1065 O 0.30083 0.6668 0.23456 0.0
O1066 O 0.32012 0.63253 0.23358 0.0
O1067 O 0.30044 0.63922 0.18486 0.0
O1068 O 0.33304 0.62962 0.16649 0.0
O1069 O 0.32633 0.67814 0.16135 0.0
O1070 O 0.32944 0.68496 0.0875 0.0
O1071 O 0.33926 0.64705 0.08887 0.0
O1072 O 0.34249 0.6976 0.13088 0.0
O1073 O 0.37207 0.6939 0.16705 0.0
O1074 O 0.3973 0.69543 0.13649 0.0
O1075 O 0.37414 0.67852 0.09674 0.0
O1076 O 0.40192 0.65098 0.10322 0.0
C1077 C 0.36493 0.63967 0.25902 0.0
C1078 C 0.37495 0.6181 0.18739 0.0
C1079 C 0.31159 0.62563 0.17121 0.0
C1080 C 0.30324 0.64546 0.24223 0.0
C1081 C 0.329 0.66423 0.07819 0.0
C1082 C 0.32837 0.69666 0.14886 0.0
C1083 C 0.38671 0.70613 0.15291 0.0
C1084 C 0.39246 0.66679 0.09017 0.0
O1085 O 0.36283 0.62047 0.24692 0.0
O1086 O 0.35654 0.65915 0.25101 0.0
O1087 O 0.38006 0.6375 0.17588 0.0
O1088 O 0.35672 0.61731 0.20079 0.0
Co1089 Co 0.62656 0.87275 0.67994 0.0
Co1090 Co 0.61594 0.83604 0.6643 0.0
Co1091 Co 0.67049 0.84501 0.66602 0.0
O1092 O 0.63968 0.85313 0.65672 0.0
H1093 H 0.63871 0.85853 0.64036 0.0
O1094 O 0.70175 0.83825 0.67559 0.0
Co1095 Co 0.72647 0.82506 0.65902 0.0
Co1096 Co 0.71688 0.86449 0.66349 0.0
H1097 H 0.70299 0.8373 0.69279 0.0
O1098 O 0.59461 0.83598 0.64264 0.0
O1099 O 0.59537 0.85708 0.67735 0.0
O1100 O 0.62272 0.80921 0.68267 0.0
O1101 O 0.66061 0.81627 0.68689 0.0
O1102 O 0.67417 0.82469 0.63721 0.0
O1103 O 0.75019 0.81277 0.64499 0.0
O1104 O 0.74216 0.81516 0.6847 0.0
O1105 O 0.71191 0.83059 0.62872 0.0
O1106 O 0.67773 0.87323 0.64225 0.0
O1107 O 0.7141 0.87494 0.63183 0.0
O1108 O 0.745 0.85606 0.66249 0.0
O1109 O 0.7256 0.88395 0.68493 0.0
C1110 C 0.615 0.90531 0.67995 0.0
C1111 C 0.65217 0.85859 0.71286 0.0
C1112 C 0.64191 0.80415 0.69146 0.0
C1113 C 0.58461 0.84927 0.65856 0.0
C1114 C 0.75573 0.80888 0.66688 0.0
C1115 C 0.69164 0.8238 0.62267 0.0
C1116 C 0.69371 0.87681 0.62593 0.0
C1117 C 0.74431 0.87353 0.67801 0.0
O1118 O 0.61548 0.8932 0.69963 0.0
O1119 O 0.61979 0.89553 0.65938 0.0
O1120 O 0.66801 0.86449 0.69722 0.0
O1121 O 0.63291 0.85221 0.70497 0.0
Co1122 Co 0.7519 0.3854 0.95546 0.0
Co1123 Co 0.71054 0.39936 0.94807 0.0
Co1124 Co 0.73493 0.3923 0.89521 0.0
O1125 O 0.73834 0.40246 0.92981 0.0
H1126 H 0.74337 0.41871 0.93028 0.0
O1127 O 0.73141 0.38298 0.8598 0.0
Co1128 Co 0.72264 0.40716 0.83594 0.0
Co1129 Co 0.76162 0.38541 0.84519 0.0
H1130 H 0.72413 0.36776 0.85777 0.0
O1131 O 0.70329 0.41192 0.9794 0.0
O1132 O 0.72038 0.37808 0.97181 0.0
O1133 O 0.68605 0.38723 0.92802 0.0
O1134 O 0.71038 0.36835 0.90408 0.0
O1135 O 0.71085 0.4171 0.89154 0.0
O1136 O 0.71475 0.42757 0.81383 0.0
O1137 O 0.71493 0.38879 0.809 0.0
O1138 O 0.72892 0.42957 0.85896 0.0
O1139 O 0.75932 0.41651 0.88737 0.0
O1140 O 0.7857 0.40074 0.86333 0.0
O1141 O 0.75442 0.40932 0.82433 0.0
O1142 O 0.76877 0.37489 0.81364 0.0
C1143 C 0.76291 0.39412 0.98868 0.0
C1144 C 0.76264 0.35336 0.9163 0.0
C1145 C 0.69088 0.36956 0.91527 0.0
C1146 C 0.71041 0.39205 0.98734 0.0
C1147 C 0.71165 0.40974 0.79998 0.0
C1148 C 0.71321 0.43232 0.87476 0.0
C1149 C 0.77903 0.41721 0.87683 0.0
C1150 C 0.76281 0.39586 0.80789 0.0
O1151 O 0.76481 0.37277 0.98086 0.0
O1152 O 0.75479 0.4102 0.97483 0.0
O1153 O 0.75953 0.3674 0.89863 0.0
O1154 O 0.75249 0.35671 0.93672 0.0
Co1155 Co 0.11778 0.8278 0.37968 0.0
Co1156 Co 0.07943 0.84167 0.39305 0.0
Co1157 Co 0.11489 0.88355 0.39318 0.0
O1158 O 0.10807 0.85073 0.40055 0.0
H1159 H 0.11052 0.84726 0.41722 0.0
O1160 O 0.12063 0.91638 0.38509 0.0
Co1161 Co 0.10671 0.93999 0.40347 0.0
Co1162 Co 0.14921 0.92656 0.39439 0.0
H1163 H 0.11946 0.91929 0.36812 0.0
O1164 O 0.0645 0.8176 0.40825 0.0
O1165 O 0.08457 0.81688 0.37259 0.0
O1166 O 0.06097 0.86629 0.38051 0.0
O1167 O 0.09225 0.88517 0.36645 0.0
O1168 O 0.08978 0.89074 0.4161 0.0
O1169 O 0.09393 0.96358 0.41819 0.0
O1170 O 0.10317 0.96049 0.37886 0.0
O1171 O 0.10679 0.9214 0.43183 0.0
O1172 O 0.13655 0.88292 0.42254 0.0
O1173 O 0.16335 0.91132 0.42036 0.0
O1174 O 0.13766 0.95215 0.40934 0.0
O1175 O 0.16359 0.95125 0.37839 0.0
C1176 C 0.13185 0.79828 0.38562 0.0
C1177 C 0.13425 0.86359 0.3501 0.0
C1178 C 0.07038 0.88257 0.36785 0.0
C1179 C 0.06793 0.80865 0.38706 0.0
C1180 C 0.0935 0.97192 0.39653 0.0
C1181 C 0.09166 0.90496 0.43322 0.0
C1182 C 0.15366 0.89437 0.43165 0.0
C1183 C 0.15175 0.96283 0.39422 0.0
O1184 O 0.12959 0.80488 0.36347 0.0
O1185 O 0.11993 0.80754 0.403 0.0
O1186 O 0.13958 0.87596 0.3683 0.0
O1187 O 0.11852 0.84781 0.35244 0.0
Co1188 Co 0.37407 0.39298 0.622 0.0
Co1189 Co 0.36364 0.38159 0.58421 0.0
Co1190 Co 0.41504 0.39255 0.57751 0.0
O1191 O 0.38587 0.40129 0.59148 0.0
H1192 H 0.3821 0.41709 0.58702 0.0
O1193 O 0.44412 0.38239 0.56259 0.0
Co1194 Co 0.45682 0.38957 0.53126 0.0
Co1195 Co 0.46682 0.4009 0.57057 0.0
H1196 H 0.44732 0.36649 0.56718 0.0
O1197 O 0.34336 0.39687 0.56904 0.0
O1198 O 0.34221 0.38455 0.60842 0.0
O1199 O 0.37177 0.35128 0.57058 0.0
O1200 O 0.40118 0.37077 0.55329 0.0
O1201 O 0.41228 0.42056 0.55396 0.0
O1202 O 0.4691 0.39352 0.50245 0.0
O1203 O 0.47063 0.36157 0.52617 0.0
O1204 O 0.44484 0.42049 0.53189 0.0
O1205 O 0.4291 0.41802 0.6008 0.0
O1206 O 0.46026 0.43072 0.58052 0.0
O1207 O 0.48588 0.40108 0.54527 0.0
O1208 O 0.48874 0.38593 0.58324 0.0
C1209 C 0.35964 0.41155 0.64877 0.0
C1210 C 0.40061 0.35047 0.61269 0.0
C1211 C 0.38904 0.35194 0.55614 0.0
C1212 C 0.33223 0.39276 0.58926 0.0
C1213 C 0.47658 0.37265 0.50633 0.0
C1214 C 0.42665 0.43065 0.53893 0.0
C1215 C 0.44385 0.43486 0.59492 0.0
C1216 C 0.49729 0.39029 0.56177 0.0
O1217 O 0.36306 0.38923 0.65136 0.0
O1218 O 0.3654 0.42202 0.62866 0.0
O1219 O 0.41658 0.36254 0.60059 0.0
O1220 O 0.38219 0.36058 0.61915 0.0
Co1221 Co 0.38728 0.45776 0.20264 0.0
Co1222 Co 0.38445 0.43952 0.24255 0.0
Co1223 Co 0.43533 0.44021 0.21912 0.0
O1224 O 0.4026 0.43324 0.21754 0.0
H1225 H 0.39914 0.41788 0.21129 0.0
O1226 O 0.46823 0.44806 0.21964 0.0
Co1227 Co 0.48903 0.42946 0.23532 0.0
Co1228 Co 0.48339 0.43881 0.19259 0.0
H1229 H 0.47092 0.46457 0.22223 0.0
O1230 O 0.35943 0.42067 0.24585 0.0
O1231 O 0.36202 0.45628 0.22737 0.0
O1232 O 0.39891 0.45564 0.26861 0.0
O1233 O 0.43257 0.46255 0.24876 0.0
O1234 O 0.43819 0.41274 0.24122 0.0
O1235 O 0.50929 0.4142 0.25141 0.0
O1236 O 0.50672 0.45334 0.24625 0.0
O1237 O 0.4723 0.40176 0.22744 0.0
O1238 O 0.43787 0.41363 0.19183 0.0
O1239 O 0.47277 0.41203 0.17502 0.0
O1240 O 0.50883 0.42735 0.20534 0.0
O1241 O 0.50439 0.45846 0.17954 0.0
C1242 C 0.36831 0.46003 0.17415 0.0
C1243 C 0.41911 0.48681 0.20602 0.0
C1244 C 0.4187 0.46562 0.26711 0.0
C1245 C 0.34999 0.43781 0.23457 0.0
C1246 C 0.51598 0.4354 0.25644 0.0
C1247 C 0.45274 0.39673 0.23732 0.0
C1248 C 0.45317 0.40264 0.17862 0.0
C1249 C 0.51617 0.44123 0.18773 0.0
O1250 O 0.37288 0.47864 0.18647 0.0
O1251 O 0.37234 0.43926 0.1827 0.0
O1252 O 0.43165 0.47002 0.19758 0.0
O1253 O 0.40262 0.48073 0.22019 0.0
Co1254 Co 0.39606 0.20545 0.43202 0.0
Co1255 Co 0.39627 0.24634 0.43007 0.0
Co1256 Co 0.4041 0.22771 0.37676 0.0
O1257 O 0.41006 0.22693 0.41092 0.0
H1258 H 0.42641 0.22826 0.41335 0.0
O1259 O 0.39967 0.22886 0.34155 0.0
Co1260 Co 0.41962 0.25024 0.32294 0.0
Co1261 Co 0.41548 0.20687 0.32353 0.0
H1262 H 0.38366 0.22959 0.33753 0.0
O1263 O 0.41445 0.2621 0.44894 0.0
O1264 O 0.39062 0.23044 0.45798 0.0
O1265 O 0.37096 0.26183 0.41764 0.0
O1266 O 0.37917 0.25448 0.379 0.0
O1267 O 0.43022 0.25158 0.37415 0.0
O1268 O 0.43575 0.2706 0.30555 0.0
O1269 O 0.39752 0.26355 0.30494 0.0
O1270 O 0.44577 0.24115 0.3396 0.0
O1271 O 0.43283 0.20238 0.37441 0.0
O1272 O 0.44238 0.19266 0.33663 0.0
O1273 O 0.42571 0.22587 0.29828 0.0
O1274 O 0.4015 0.19398 0.29791 0.0
C1275 C 0.40802 0.18261 0.45544 0.0
C1276 C 0.35878 0.2066 0.40015 0.0
C1277 C 0.36672 0.26454 0.39573 0.0
C1278 C 0.40243 0.2493 0.46439 0.0
C1279 C 0.41577 0.27582 0.2977 0.0
C1280 C 0.44792 0.2499 0.36024 0.0
C1281 C 0.44756 0.19298 0.35849 0.0
C1282 C 0.41339 0.21043 0.28672 0.0
O1283 O 0.38608 0.18372 0.45177 0.0
O1284 O 0.42245 0.19726 0.44479 0.0
O1285 O 0.37362 0.20586 0.38174 0.0
O1286 O 0.36636 0.21099 0.42073 0.0
Co1287 Co 1.00832 0.10974 0.60293 0.0
Co1288 Co 0.96644 0.1151 0.61849 0.0
Co1289 Co 0.99387 0.16667 0.62177 0.0
O1290 O 0.99401 0.13077 0.62573 0.0
H1291 H 0.9979 0.12652 0.64184 0.0
O1292 O 0.99361 0.20396 0.61936 0.0
Co1293 Co 0.97104 0.22901 0.63433 0.0
Co1294 Co 1.00797 0.21209 0.64821 0.0
H1295 H 1.00253 0.20988 0.60567 0.0
O1296 O 0.95681 0.08555 0.63122 0.0
O1297 O 0.97779 0.09208 0.59735 0.0
O1298 O 0.94624 0.13399 0.6008 0.0
O1299 O 0.96885 0.16623 0.59659 0.0
O1300 O 0.97029 0.16652 0.64907 0.0
O1301 O 0.95167 0.25088 0.64829 0.0
O1302 O 0.97744 0.25961 0.61959 0.0
O1303 O 0.96121 0.20416 0.65275 0.0
O1304 O 1.02019 0.16524 0.64579 0.0
O1305 O 1.01078 0.18992 0.67419 0.0
O1306 O 0.99366 0.23768 0.65818 0.0
O1307 O 1.03055 0.23444 0.64446 0.0
C1308 C 1.02351 0.07768 0.60333 0.0
C1309 C 1.019 0.14969 0.57801 0.0
C1310 C 0.95138 0.15343 0.59059 0.0
C1311 C 0.96647 0.07728 0.61191 0.0
C1312 C 0.9621 0.26712 0.63554 0.0
C1313 C 0.95938 0.18298 0.6594 0.0
C1314 C 1.02058 0.17143 0.66784 0.0
C1315 C 1.01382 0.24706 0.65271 0.0
O1316 O 1.02206 0.08985 0.58378 0.0
O1317 O 1.01552 0.08622 0.62354 0.0
O1318 O 1.01816 0.16529 0.59456 0.0
O1319 O 1.00423 0.13268 0.57867 0.0
Co1320 Co 0.84827 0.15131 0.22781 0.0
Co1321 Co 0.81243 0.16275 0.20726 0.0
Co1322 Co 0.85161 0.16322 0.16775 0.0
O1323 O 0.84302 0.17156 0.20142 0.0
H1324 H 0.84585 0.18795 0.20472 0.0
O1325 O 0.85763 0.15352 0.13468 0.0
Co1326 Co 0.83851 0.16588 0.11032 0.0
Co1327 Co 0.88013 0.16936 0.1185 0.0
H1328 H 0.85981 0.13686 0.13324 0.0
O1329 O 0.79473 0.17895 0.22809 0.0
O1330 O 0.81319 0.14493 0.23494 0.0
O1331 O 0.79703 0.14354 0.18388 0.0
O1332 O 0.8306 0.13419 0.16716 0.0
O1333 O 0.82614 0.18275 0.15723 0.0
O1334 O 0.82066 0.17527 0.08709 0.0
O1335 O 0.83082 0.13837 0.09549 0.0
O1336 O 0.84146 0.1966 0.12341 0.0
O1337 O 0.87245 0.19604 0.16548 0.0
O1338 O 0.88828 0.20005 0.12849 0.0
O1339 O 0.86682 0.1698 0.08933 0.0
O1340 O 0.89919 0.15163 0.10203 0.0
C1341 C 0.8555 0.15609 0.26246 0.0
C1342 C 0.86973 0.12257 0.19366 0.0
C1343 C 0.80914 0.13016 0.17098 0.0
C1344 C 0.79649 0.15957 0.24019 0.0
C1345 C 0.81874 0.15299 0.08311 0.0
C1346 C 0.83008 0.19981 0.14296 0.0
C1347 C 0.8832 0.20908 0.14854 0.0
C1348 C 0.88409 0.15558 0.08583 0.0
O1349 O 0.85476 0.13525 0.25335 0.0
O1350 O 0.84869 0.17407 0.25028 0.0
O1351 O 0.87615 0.13998 0.17953 0.0
O1352 O 0.85153 0.12472 0.20699 0.0
Co1353 Co 0.46856 0.56906 0.43461 0.0
Co1354 Co 0.46188 0.61222 0.42558 0.0
Co1355 Co 0.41044 0.58293 0.42352 0.0
O1356 O 0.44558 0.58498 0.41721 0.0
H1357 H 0.44867 0.58279 0.40028 0.0
O1358 O 0.3736 0.58142 0.42634 0.0
Co1359 Co 0.3456 0.59763 0.4081 0.0
Co1360 Co 0.37205 0.56908 0.39486 0.0
H1361 H 0.3682 0.56975 0.43791 0.0
O1362 O 0.49059 0.62459 0.41277 0.0
O1363 O 0.48606 0.59988 0.44394 0.0
O1364 O 0.44297 0.63099 0.44525 0.0
O1365 O 0.41109 0.60794 0.45036 0.0
O1366 O 0.40819 0.60815 0.39823 0.0
O1367 O 0.32209 0.61229 0.39113 0.0
O1368 O 0.3141 0.58734 0.42026 0.0
O1369 O 0.37037 0.61271 0.39173 0.0
O1370 O 0.41192 0.55632 0.39832 0.0
O1371 O 0.39497 0.57196 0.36834 0.0
O1372 O 0.34326 0.57064 0.38587 0.0
O1373 O 0.36334 0.5395 0.39889 0.0
C1374 C 0.49978 0.55502 0.42642 0.0
C1375 C 0.4306 0.55454 0.46395 0.0
C1376 C 0.42405 0.62573 0.45618 0.0
C1377 C 0.49968 0.61401 0.43066 0.0
C1378 C 0.30616 0.60108 0.40338 0.0
C1379 C 0.39155 0.61805 0.38786 0.0
C1380 C 0.4091 0.55743 0.37563 0.0
C1381 C 0.34428 0.54845 0.39211 0.0
O1382 O 0.49076 0.5533 0.44798 0.0
O1383 O 0.48888 0.56603 0.40986 0.0
O1384 O 0.41389 0.55717 0.4494 0.0
O1385 O 0.44825 0.56855 0.46257 0.0
Co1386 Co 0.74255 0.45626 0.62548 0.0
Co1387 Co 0.72147 0.49312 0.61634 0.0
Co1388 Co 0.68627 0.45021 0.61719 0.0
O1389 O 0.71704 0.46246 0.60838 0.0
H1390 H 0.71989 0.46095 0.59134 0.0
O1391 O 0.65477 0.43928 0.62535 0.0
Co1392 Co 0.63108 0.45002 0.60532 0.0
Co1393 Co 0.64917 0.40906 0.61468 0.0
H1394 H 0.65095 0.4405 0.64224 0.0
O1395 O 0.74421 0.51343 0.60381 0.0
O1396 O 0.74605 0.48999 0.63641 0.0
O1397 O 0.69574 0.50641 0.63333 0.0
O1398 O 0.68201 0.47173 0.64608 0.0
O1399 O 0.67524 0.47513 0.59643 0.0
O1400 O 0.6076 0.45986 0.58932 0.0
O1401 O 0.60856 0.45107 0.62866 0.0
O1402 O 0.65088 0.45239 0.57802 0.0
O1403 O 0.68947 0.42948 0.58625 0.0
O1404 O 0.66842 0.39664 0.5897 0.0
O1405 O 0.62469 0.41763 0.59703 0.0
O1406 O 0.62504 0.39036 0.62651 0.0
C1407 C 0.77477 0.45169 0.61521 0.0
C1408 C 0.71078 0.43202 0.65725 0.0
C1409 C 0.68263 0.49416 0.64726 0.0
C1410 C 0.75302 0.50866 0.62434 0.0
C1411 C 0.59805 0.4603 0.6106 0.0
C1412 C 0.66474 0.4698 0.57773 0.0
C1413 C 0.6816 0.41011 0.57727 0.0
C1414 C 0.61539 0.39979 0.60829 0.0
O1415 O 0.76863 0.44895 0.63773 0.0
O1416 O 0.76128 0.4612 0.60012 0.0
O1417 O 0.69808 0.42561 0.63993 0.0
O1418 O 0.72511 0.44908 0.6543 0.0
Co1419 Co 0.2496 0.87157 0.94876 0.0
Co1420 Co 0.20974 0.88977 0.94229 0.0
Co1421 Co 0.23386 0.88644 0.89013 0.0
O1422 O 0.23747 0.89365 0.92546 0.0
H1423 H 0.24346 0.90937 0.92785 0.0
O1424 O 0.2306 0.87875 0.85465 0.0
Co1425 Co 0.22223 0.90244 0.83086 0.0
Co1426 Co 0.26067 0.88121 0.84105 0.0
H1427 H 0.22373 0.86345 0.85198 0.0
O1428 O 0.2037 0.90575 0.97017 0.0
O1429 O 0.21811 0.86937 0.96699 0.0
O1430 O 0.18439 0.87913 0.9234 0.0
O1431 O 0.20759 0.86363 0.89568 0.0
O1432 O 0.21182 0.91277 0.88687 0.0
O1433 O 0.21463 0.92291 0.80858 0.0
O1434 O 0.2125 0.88396 0.80496 0.0
O1435 O 0.23024 0.92477 0.85386 0.0
O1436 O 0.25941 0.90998 0.88506 0.0
O1437 O 0.28466 0.89859 0.85732 0.0
O1438 O 0.25366 0.90183 0.8171 0.0
O1439 O 0.26728 0.86542 0.81308 0.0
C1440 C 0.26516 0.8736 0.98134 0.0
C1441 C 0.25701 0.84448 0.90822 0.0
C1442 C 0.18757 0.86606 0.90533 0.0
C1443 C 0.2097 0.88642 0.98038 0.0
C1444 C 0.20996 0.90483 0.79552 0.0
C1445 C 0.2149 0.92804 0.87017 0.0
C1446 C 0.27858 0.91258 0.87374 0.0
C1447 C 0.26115 0.88499 0.80353 0.0
O1448 O 0.26161 0.85362 0.97093 0.0
O1449 O 0.25864 0.89282 0.97092 0.0
O1450 O 0.25653 0.86064 0.89237 0.0
O1451 O 0.24409 0.84573 0.92723 0.0
Co1452 Co 0.73863 0.9626 0.12124 0.0
Co1453 Co 0.7113 0.9967 0.12164 0.0
Co1454 Co 0.68192 0.95088 0.11686 0.0
O1455 O 0.71069 0.96736 0.10831 0.0
H1456 H 0.71226 0.96891 0.09112 0.0
O1457 O 0.65168 0.93644 0.12408 0.0
Co1458 Co 0.62746 0.94838 0.1047 0.0
Co1459 Co 0.64808 0.90799 0.10923 0.0
H1460 H 0.64779 0.93549 0.14098 0.0
O1461 O 0.72968 1.02118 0.11003 0.0
O1462 O 0.73849 0.99434 0.13797 0.0
O1463 O 0.68569 1.00407 0.14324 0.0
O1464 O 0.67808 0.96624 0.14948 0.0
O1465 O 0.66698 0.97777 0.10228 0.0
O1466 O 0.60368 0.95875 0.08979 0.0
O1467 O 0.60463 0.94486 0.1276 0.0
O1468 O 0.64742 0.95651 0.07795 0.0
O1469 O 0.68507 0.93511 0.08298 0.0
O1470 O 0.67009 0.89906 0.08506 0.0
O1471 O 0.62359 0.91694 0.09148 0.0
O1472 O 0.62535 0.88655 0.11768 0.0
C1473 C 0.77072 0.96731 0.10833 0.0
C1474 C 0.7115 0.92936 0.15085 0.0
C1475 C 0.67585 0.9877 0.15539 0.0
C1476 C 0.74225 1.0148 0.12766 0.0
C1477 C 0.59403 0.95621 0.11092 0.0
C1478 C 0.65972 0.97468 0.08155 0.0
C1479 C 0.67984 0.91539 0.07291 0.0
C1480 C 0.61585 0.89696 0.09991 0.0
O1481 O 0.76687 0.95833 0.12964 0.0
O1482 O 0.7541 0.97515 0.0959 0.0
O1483 O 0.69766 0.92457 0.13393 0.0
O1484 O 0.72496 0.9474 0.14931 0.0
Co1485 Co 0.46402 0.06174 0.91614 0.0
Co1486 Co 0.4589 0.10523 0.92056 0.0
Co1487 Co 0.40522 0.07868 0.91735 0.0
O1488 O 0.43968 0.08202 0.90745 0.0
H1489 H 0.44065 0.08429 0.8903 0.0
O1490 O 0.36913 0.07787 0.92494 0.0
Co1491 Co 0.3441 0.08435 0.89929 0.0
Co1492 Co 0.36117 0.04719 0.91893 0.0
H1493 H 0.36502 0.08245 0.94111 0.0
O1494 O 0.48614 0.1207 0.90767 0.0
O1495 O 0.4847 0.08828 0.93055 0.0
O1496 O 0.44352 0.11853 0.94706 0.0
O1497 O 0.40844 0.10078 0.94668 0.0
O1498 O 0.39909 0.1053 0.8951 0.0
O1499 O 0.32136 0.08969 0.87657 0.0
O1500 O 0.3132 0.08588 0.91518 0.0
O1501 O 0.37015 0.08567 0.87865 0.0
O1502 O 0.40301 0.05596 0.88843 0.0
O1503 O 0.38419 1.02627 0.90575 0.0
O1504 O 0.33977 0.04998 0.89535 0.0
O1505 O 0.33541 0.03457 0.93296 0.0
C1506 C 0.49223 0.04849 0.89849 0.0
C1507 C 0.42913 0.04592 0.9524 0.0
C1508 C 0.42353 0.11474 0.95623 0.0
C1509 C 0.49689 0.10589 0.92073 0.0
C1510 C 0.30557 0.08969 0.89349 0.0
C1511 C 0.38297 0.10404 0.88002 0.0
C1512 C 0.39621 0.03435 0.88813 0.0
C1513 C 0.32902 0.03605 0.9109 0.0
O1514 O 0.487 0.04214 0.92045 0.0
O1515 O 0.48007 0.06414 0.8879 0.0
O1516 O 0.41101 0.0509 0.94055 0.0
O1517 O 0.44889 0.05522 0.94676 0.0
Co1518 Co 0.85225 0.65115 0.72863 0.0
Co1519 Co 0.81538 0.65778 0.70753 0.0
Co1520 Co 0.85394 0.66328 0.66836 0.0
O1521 O 0.84496 0.66952 0.702 0.0
H1522 H 0.84566 0.6861 0.70532 0.0
O1523 O 0.86056 0.65642 0.63482 0.0
Co1524 Co 0.84397 0.67344 0.61191 0.0
Co1525 Co 0.88601 0.67143 0.62327 0.0
H1526 H 0.8614 0.63988 0.63143 0.0
O1527 O 0.79635 0.67173 0.72881 0.0
O1528 O 0.81836 0.63981 0.73451 0.0
O1529 O 0.80151 0.63756 0.68398 0.0
O1530 O 0.83565 0.63259 0.66641 0.0
O1531 O 0.82648 0.68025 0.65953 0.0
O1532 O 0.82869 0.68713 0.58972 0.0
O1533 O 0.83895 0.64939 0.5908 0.0
O1534 O 0.84375 0.70104 0.63113 0.0
O1535 O 0.87202 0.69776 0.66759 0.0
O1536 O 0.89715 0.69997 0.63673 0.0
O1537 O 0.87384 0.68225 0.59597 0.0
O1538 O 0.90323 0.65651 0.60189 0.0
C1539 C 0.85572 0.65776 0.76357 0.0
C1540 C 0.87553 0.62354 0.69211 0.0
C1541 C 0.8146 0.62638 0.66989 0.0
C1542 C 0.80008 0.65224 0.74008 0.0
C1543 C 0.82721 0.66614 0.58113 0.0
C1544 C 0.82888 0.69939 0.64832 0.0
C1545 C 0.88659 0.7102 0.65357 0.0
C1546 C 0.89256 0.6715 0.5889 0.0
O1547 O 0.85998 0.63713 0.75502 0.0
O1548 O 0.84769 0.67408 0.75005 0.0
O1549 O 0.88007 0.64177 0.67841 0.0
O1550 O 0.85991 0.62462 0.70874 0.0
Co1551 Co 0.24614 0.37511 0.45177 0.0
Co1552 Co 0.20557 0.3889 0.44461 0.0
Co1553 Co 0.23428 0.3944 0.39386 0.0
O1554 O 0.23326 0.39755 0.43018 0.0
H1555 H 0.23714 0.41338 0.43485 0.0
O1556 O 0.23647 0.39203 0.35705 0.0
Co1557 Co 0.21404 0.40032 0.33171 0.0
Co1558 Co 0.2443 0.42265 0.34982 0.0
H1559 H 0.24838 0.38172 0.35149 0.0
O1560 O 0.19481 0.40227 0.47267 0.0
O1561 O 0.21441 0.36861 0.4695 0.0
O1562 O 0.18381 0.3766 0.42232 0.0
O1563 O 0.20937 0.36969 0.39271 0.0
O1564 O 0.20953 0.41897 0.39266 0.0
O1565 O 0.1948 0.40701 0.30823 0.0
O1566 O 0.22737 0.38713 0.30417 0.0
O1567 O 0.19788 0.41626 0.35503 0.0
O1568 O 0.25933 0.41977 0.39492 0.0
O1569 O 0.24219 0.44614 0.3737 0.0
O1570 O 0.23086 0.43019 0.32295 0.0
O1571 O 0.26895 0.4261 0.33022 0.0
C1572 C 0.26067 0.37591 0.48461 0.0
C1573 C 0.25774 0.35128 0.41012 0.0
C1574 C 0.18905 0.36777 0.40206 0.0
C1575 C 0.20242 0.38353 0.48279 0.0
C1576 C 0.21019 0.3977 0.29418 0.0
C1577 C 0.19561 0.42411 0.37612 0.0
C1578 C 0.25619 0.44127 0.38962 0.0
C1579 C 0.25257 0.43239 0.3164 0.0
O1580 O 0.25908 0.3566 0.47253 0.0
O1581 O 0.25281 0.39523 0.47565 0.0
O1582 O 0.2585 0.36903 0.39579 0.0
O1583 O 0.24309 0.35089 0.42787 0.0
H1584 H 0.20378 1.00796 0.57505 0.0
H1585 H 0.15165 0.97684 0.53093 0.0
H1586 H 0.1581 1.00805 0.50128 0.0
H1587 H 0.17233 0.04785 0.49287 0.0
H1588 H 0.22135 0.08094 0.53869 0.0
H1589 H 0.22293 0.04491 0.56271 0.0
C1590 C 0.19408 1.00778 0.55876 0.0
C1591 C 0.17669 0.99066 0.55549 0.0
C1592 C 0.19737 1.0261 0.54226 0.0
C1593 C 0.16472 0.99021 0.53406 0.0
C1594 C 0.16841 1.008 0.51713 0.0
C1595 C 0.18401 0.04672 0.50753 0.0
C1596 C 0.19666 0.06662 0.51423 0.0
C1597 C 0.18379 1.02659 0.52173 0.0
C1598 C 0.21166 0.06552 0.5333 0.0
C1599 C 0.21228 0.04509 0.54712 0.0
H1600 H 0.04785 0.42228 0.85873 0.0
H1601 H 0.09338 0.38992 0.8072 0.0
H1602 H 0.07744 0.41299 0.77493 0.0
H1603 H 0.04527 0.43515 0.76101 0.0
H1604 H 0.99585 0.46296 0.81147 0.0
H1605 H 1.01894 0.44998 0.84482 0.0
C1606 C 0.05439 0.42071 0.84042 0.0
C1607 C 0.07155 0.40457 0.83496 0.0
C1608 C 0.0445 0.43337 0.82198 0.0
C1609 C 0.08022 0.40243 0.81149 0.0
C1610 C 0.07108 0.41555 0.79315 0.0
C1611 C 1.04033 0.43953 0.77931 0.0
C1612 C 1.01912 0.44993 0.784 0.0
C1613 C 0.0526 0.43028 0.79809 0.0
C1614 C 1.01239 0.45524 0.80762 0.0
C1615 C 1.02529 0.44729 0.82663 0.0
H1616 H 0.65304 0.24343 0.05611 0.0
H1617 H 0.72276 0.24606 0.02743 0.0
H1618 H 0.73276 0.27643 0.0565 0.0
H1619 H 0.72226 0.29961 0.09267 0.0
H1620 H 0.65255 0.29468 0.12145 0.0
H1621 H 0.64206 0.26791 0.08969 0.0
C1622 C 0.67044 0.25067 0.056 0.0
C1623 C 0.6872 0.24217 0.03978 0.0
C1624 C 0.67613 0.26765 0.07299 0.0
C1625 C 0.70955 0.25211 0.03983 0.0
C1626 C 0.71528 0.26944 0.05651 0.0
C1627 C 0.70474 0.29285 0.09179 0.0
C1628 C 0.68831 0.29892 0.10965 0.0
C1629 C 0.69882 0.27695 0.07359 0.0
C1630 C 0.66565 0.29006 0.10821 0.0
C1631 C 0.65958 0.27475 0.09001 0.0
H1632 H 0.75725 0.95315 0.2788 0.0
H1633 H 0.76019 0.87786 0.27879 0.0
H1634 H 0.78276 0.87886 0.24146 0.0
H1635 H 0.81234 0.9012 0.21922 0.0
H1636 H 0.81478 0.97638 0.22354 0.0
H1637 H 0.77888 0.97578 0.24734 0.0
C1638 C 0.76204 0.93707 0.26989 0.0
C1639 C 0.75739 0.91552 0.28129 0.0
C1640 C 0.77636 0.93789 0.24925 0.0
C1641 C 0.76364 0.89461 0.27007 0.0
C1642 C 0.77666 0.89519 0.24881 0.0
C1643 C 0.80421 0.91744 0.22429 0.0
C1644 C 0.81643 0.93863 0.2209 0.0
C1645 C 0.78479 0.91674 0.23958 0.0
C1646 C 0.80577 0.95977 0.22662 0.0
C1647 C 0.78547 0.95939 0.24064 0.0
H1648 H 0.11682 0.29909 0.74355 0.0
H1649 H 0.18346 0.28219 0.71301 0.0
H1650 H 0.18914 0.25476 0.74587 0.0
H1651 H 0.17326 0.23215 0.78004 0.0
H1652 H 0.10551 0.24652 0.80892 0.0
H1653 H 0.10269 0.27929 0.78071 0.0
C1654 C 0.13261 0.28942 0.74401 0.0
C1655 C 0.14946 0.2923 0.72537 0.0
C1656 C 0.13572 0.27354 0.76293 0.0
C1657 C 0.17004 0.28005 0.72676 0.0
C1658 C 0.17335 0.26446 0.74566 0.0
C1659 C 0.15811 0.24289 0.78065 0.0
C1660 C 0.13949 0.23672 0.7964 0.0
C1661 C 0.15608 0.26065 0.76345 0.0
C1662 C 0.12012 0.25093 0.79714 0.0
C1663 C 0.11835 0.26938 0.78065 0.0
H1664 H 0.76383 0.36416 0.02652 0.0
H1665 H 0.7737 0.43696 1.00691 0.0
H1666 H 0.78975 0.44523 0.04593 0.0
H1667 H 0.8106 0.42935 0.07945 0.0
H1668 H 0.80404 0.35619 0.09718 0.0
H1669 H 0.77549 0.35066 0.0664 0.0
C1670 C 0.76922 0.38188 0.03096 0.0
C1671 C 0.76872 0.39974 1.01354 0.0
C1672 C 0.77866 0.38644 0.05332 0.0
C1673 C 0.77466 0.42281 0.0198 0.0
C1674 C 0.78371 0.42757 0.04216 0.0
C1675 C 0.80174 0.41254 0.07756 0.0
C1676 C 0.81016 0.39294 0.08945 0.0
C1677 C 0.78711 0.40923 0.05836 0.0
C1678 C 0.79822 0.37142 0.08768 0.0
C1679 C 0.78242 0.36813 0.06952 0.0
H1680 H 0.65101 1.00967 0.26285 0.0
H1681 H 0.61682 0.06717 0.23017 0.0
H1682 H 0.6248 0.05085 0.19038 0.0
H1683 H 0.6473 1.02368 0.165 0.0
H1684 H 0.67878 0.96454 0.19778 0.0
H1685 H 0.66616 0.97788 0.23745 0.0
C1686 C 0.64447 1.01803 0.24703 0.0
C1687 C 0.63323 0.03945 0.2493 0.0
C1688 C 0.64926 1.00859 0.22427 0.0
C1689 C 0.62512 0.05042 0.22878 0.0
C1690 C 0.63003 0.04129 0.20603 0.0
C1691 C 0.65101 1.01355 0.18085 0.0
C1692 C 0.66459 0.99356 0.17863 0.0
C1693 C 0.64301 1.02096 0.20354 0.0
C1694 C 0.66881 0.98022 0.19914 0.0
C1695 C 0.66152 0.98783 0.22181 0.0
H1696 H 0.0614 0.86956 0.44459 0.0
H1697 H 0.07915 0.9412 0.46219 0.0
H1698 H 0.04348 0.94398 0.48602 0.0
H1699 H 1.00653 0.92734 0.49899 0.0
H1700 H 0.98899 0.85502 0.48458 0.0
H1701 H 1.02544 0.85136 0.46146 0.0
C1702 C 0.05758 0.88571 0.45388 0.0
C1703 C 0.07271 0.90532 0.45132 0.0
C1704 C 1.03699 0.88721 0.46744 0.0
C1705 C 0.06778 0.92594 0.46378 0.0
C1706 C 0.0473 0.9276 0.47719 0.0
C1707 C 1.01044 0.91074 0.49063 0.0
C1708 C 0.9948 0.89159 0.49291 0.0
C1709 C 1.03158 0.90859 0.47851 0.0
C1710 C 1.0006 0.87007 0.48269 0.0
C1711 C 1.02145 0.86798 0.46969 0.0
H1712 H 0.54165 0.11223 0.04982 0.0
H1713 H 0.56297 0.17665 0.08346 0.0
H1714 H 0.59753 0.17863 0.05735 0.0
H1715 H 0.62286 0.1615 0.02537 0.0
H1716 H 0.6008 0.0974 0.99151 0.0
H1717 H 0.56592 0.09612 1.01687 0.0
C1718 C 0.55372 0.12685 0.05144 0.0
C1719 C 0.5493 0.14427 0.06895 0.0
C1720 C 0.57379 0.12795 0.03617 0.0
C1721 C 0.56549 0.16295 0.07037 0.0
C1722 C 0.58547 0.16407 0.05537 0.0
C1723 C 0.61043 0.14725 0.02342 0.0
C1724 C 0.61494 0.1295 1.00627 0.0
C1725 C 0.58999 0.14658 0.03827 0.0
C1726 C 0.59823 0.11136 1.0043 0.0
C1727 C 0.5781 0.11056 1.01895 0.0
H1728 H 0.94693 0.78987 0.26284 0.0
H1729 H 0.87932 0.80503 0.29147 0.0
H1730 H 0.88312 0.8451 0.27532 0.0
H1731 H 0.90799 0.87716 0.25771 0.0
H1732 H 0.9764 0.86133 0.23121 0.0
H1733 H 0.97 0.82032 0.24207 0.0
C1734 C 0.93278 0.80179 0.26515 0.0
C1735 C 0.91291 0.79451 0.2785 0.0
C1736 C 0.93549 0.82489 0.25667 0.0
C1737 C 0.89469 0.81009 0.28111 0.0
C1738 C 0.89704 0.83312 0.27217 0.0
C1739 C 0.92147 0.86472 0.2542 0.0
C1740 C 0.94287 0.87257 0.24403 0.0
C1741 C 0.91775 0.84097 0.26072 0.0
C1742 C 0.95995 0.85604 0.23937 0.0
C1743 C 0.95627 0.83249 0.24547 0.0
H1744 H 0.32158 0.17641 0.53542 0.0
H1745 H 0.28773 0.12355 0.57987 0.0
H1746 H 0.25309 0.1259 0.55589 0.0
H1747 H 0.23024 0.14888 0.52703 0.0
H1748 H 0.26472 0.20405 0.48567 0.0
H1749 H 0.30109 0.19488 0.50335 0.0
C1750 C 0.3069 0.16475 0.53925 0.0
C1751 C 0.30717 0.14983 0.55928 0.0
C1752 C 0.28684 0.16715 0.52625 0.0
C1753 C 0.28805 0.13493 0.56428 0.0
C1754 C 0.26808 0.13663 0.55082 0.0
C1755 C 0.24583 0.15854 0.52164 0.0
C1756 C 0.24466 0.17747 0.50541 0.0
C1757 C 0.26687 0.15359 0.53253 0.0
C1758 C 0.26503 0.18976 0.4985 0.0
C1759 C 0.28591 0.18448 0.50853 0.0
H1760 H 0.90588 0.49783 0.86806 0.0
H1761 H 0.89586 0.5672 0.84016 0.0
H1762 H 0.89576 0.55178 0.7993 0.0
H1763 H 0.89677 0.5179 0.77114 0.0
H1764 H 0.91123 0.44947 0.79893 0.0
H1765 H 0.91143 0.46499 0.83968 0.0
C1766 C 0.90401 0.50963 0.85301 0.0
C1767 C 0.9009 0.53373 0.85737 0.0
C1768 C 0.90461 0.50069 0.82933 0.0
C1769 C 0.89853 0.54867 0.8375 0.0
C1770 C 0.89831 0.53979 0.81404 0.0
C1771 C 0.90017 0.50647 0.78612 0.0
C1772 C 0.90384 0.48243 0.78187 0.0
C1773 C 0.90107 0.51576 0.80967 0.0
C1774 C 0.90843 0.46798 0.80156 0.0
C1775 C 0.90846 0.47687 0.82495 0.0
H1776 H 0.56496 0.17832 0.26771 0.0
H1777 H 0.60544 0.11919 0.24658 0.0
H1778 H 0.58851 0.11992 0.20681 0.0
H1779 H 0.5641 0.13973 0.17654 0.0
H1780 H 0.5245 0.19904 0.19887 0.0
H1781 H 0.53915 0.19593 0.23927 0.0
C1782 C 0.56999 0.16533 0.25458 0.0
C1783 C 0.58669 0.14876 0.26042 0.0
C1784 C 0.56041 0.1661 0.23163 0.0
C1785 C 0.59262 0.13208 0.24293 0.0
C1786 C 0.58304 0.13264 0.22 0.0
C1787 C 0.55855 0.15177 0.19037 0.0
C1788 C 0.54317 0.1697 0.18461 0.0
C1789 C 0.56724 0.14991 0.21389 0.0
C1790 C 0.53625 0.18517 0.20276 0.0
C1791 C 0.54466 0.18339 0.22591 0.0
H1792 H 0.91206 0.84171 0.53566 0.0
H1793 H 0.84076 0.85254 0.52027 0.0
H1794 H 0.84312 0.82325 0.48832 0.0
H1795 H 0.86662 0.79667 0.46294 0.0
H1796 H 0.93831 0.78857 0.47803 0.0
H1797 H 0.9345 0.81459 0.51231 0.0
C1798 C 0.89691 0.83778 0.52542 0.0
C1799 C 0.87635 0.84963 0.53014 0.0
C1800 C 0.89849 0.82132 0.50709 0.0
C1801 C 0.85688 0.84386 0.51686 0.0
C1802 C 0.85822 0.82711 0.49862 0.0
C1803 C 0.88123 0.80038 0.47404 0.0
C1804 C 0.90274 0.79089 0.46807 0.0
C1805 C 0.87908 0.816 0.49334 0.0
C1806 C 0.92167 0.79589 0.48228 0.0
C1807 C 0.91951 0.81075 0.50182 0.0
H1808 H 0.26038 0.17216 0.75372 0.0
H1809 H 0.29212 0.10481 0.75719 0.0
H1810 H 0.25701 0.08811 0.77678 0.0
H1811 H 0.21561 0.09197 0.78974 0.0
H1812 H 0.18476 0.15982 0.78465 0.0
H1813 H 0.22092 0.17666 0.7689 0.0
C1814 C 0.25989 0.15385 0.75899 0.0
C1815 C 0.27914 0.13985 0.75375 0.0
C1816 C 0.23944 0.14426 0.76973 0.0
C1817 C 0.27785 0.11618 0.76101 0.0
C1818 C 0.25758 0.10654 0.77204 0.0
C1819 C 0.21681 0.11047 0.78532 0.0
C1820 C 0.19704 0.12443 0.78822 0.0
C1821 C 0.23798 0.12027 0.77597 0.0
C1822 C 0.1993 0.14844 0.78251 0.0
C1823 C 0.22012 0.15819 0.77347 0.0
H1824 H 0.89753 0.45086 1.0102 0.0
H1825 H 0.96672 0.4602 0.03441 0.0
H1826 H 0.97038 0.4978 1.01369 0.0
H1827 H 0.95549 0.5274 0.98583 0.0
H1828 H 0.88715 0.51769 0.95927 0.0
H1829 H 0.88193 0.48174 0.98304 0.0
C1830 C 0.9132 0.46136 1.01145 0.0
C1831 C 0.93162 0.45251 0.02477 0.0
C1832 C 0.91564 0.48312 0.9984 0.0
C1833 C 0.95198 0.46644 0.0251 0.0
C1834 C 0.95423 0.48803 1.01289 0.0
C1835 C 0.9393 0.51765 0.98533 0.0
C1836 C 0.92178 0.52586 0.97042 0.0
C1837 C 0.9364 0.49649 0.99905 0.0
C1838 C 0.9011 0.51233 0.9703 0.0
C1839 C 0.89806 0.49151 0.98403 0.0
H1840 H 0.0883 0.49473 0.15824 0.0
H1841 H 0.0573 0.46336 0.0966 0.0
H1842 H 1.02999 0.49495 0.09493 0.0
H1843 H 1.02078 0.53511 0.10563 0.0
H1844 H 0.04908 0.56653 0.16837 0.0
H1845 H 0.07211 0.53158 0.17481 0.0
C1846 C 0.07487 0.49429 0.14519 0.0
C1847 C 0.07493 0.47688 0.1274 0.0
C1848 C 0.05941 0.51294 0.14399 0.0
C1849 C 0.05763 0.47665 0.11039 0.0
C1850 C 1.04219 0.49486 0.10922 0.0
C1851 C 1.03127 0.53395 0.12121 0.0
C1852 C 1.03331 0.55327 0.13643 0.0
C1853 C 0.04382 0.5137 0.12507 0.0
C1854 C 0.04728 0.55176 0.15642 0.0
C1855 C 0.06045 0.53182 0.16005 0.0
H1856 H 0.52088 0.27259 0.17063 0.0
H1857 H 0.54644 0.27762 0.09738 0.0
H1858 H 0.56157 0.31695 0.10456 0.0
H1859 H 0.57745 0.34328 0.13428 0.0
H1860 H 0.55642 0.33579 0.20832 0.0
H1861 H 0.52818 0.30542 0.19812 0.0
C1862 C 0.52923 0.28255 0.15611 0.0
C1863 C 0.53343 0.27189 0.13382 0.0
C1864 C 0.53853 0.30496 0.16054 0.0
C1865 C 0.54377 0.28515 0.11497 0.0
C1866 C 0.55227 0.30774 0.11899 0.0
C1867 C 0.56554 0.33609 0.1479 0.0
C1868 C 0.56947 0.34091 0.17201 0.0
C1869 C 0.55119 0.31706 0.14211 0.0
C1870 C 0.55389 0.33193 0.1896 0.0
C1871 C 0.53821 0.31405 0.18383 0.0
H1872 H 0.85017 0.79039 0.41887 0.0
H1873 H 0.84556 0.78417 0.34242 0.0
H1874 H 0.80966 0.80636 0.34388 0.0
H1875 H 0.78005 0.82958 0.36721 0.0
H1876 H 0.78418 0.83196 0.44418 0.0
H1877 H 0.81927 0.80959 0.44213 0.0
C1878 C 0.84124 0.79367 0.40247 0.0
C1879 C 0.85089 0.78557 0.3805 0.0
C1880 C 0.8203 0.80604 0.40357 0.0
C1881 C 0.83874 0.78997 0.35959 0.0
C1882 C 0.81816 0.80284 0.36046 0.0
C1883 C 0.78845 0.82499 0.38358 0.0
C1884 C 0.77901 0.83281 0.40593 0.0
C1885 C 0.8088 0.81128 0.38237 0.0
C1886 C 0.79049 0.82635 0.42675 0.0
C1887 C 0.81082 0.81351 0.42561 0.0
H1888 H 0.29523 0.08198 0.68858 0.0
H1889 H 0.31556 0.11086 0.61961 0.0
H1890 H 0.30234 0.07496 0.60003 0.0
H1891 H 0.28282 0.03615 0.60237 0.0
H1892 H 0.26435 1.00613 0.67151 0.0
H1893 H 0.2795 0.04119 0.69115 0.0
C1894 C 0.29673 0.08035 0.66926 0.0
C1895 C 0.30599 0.09928 0.65546 0.0
C1896 C 0.28965 0.05927 0.65819 0.0
C1897 C 0.30836 0.09668 0.63054 0.0
C1898 C 0.30082 0.0761 0.61937 0.0
C1899 C 0.28252 0.03704 0.62177 0.0
C1900 C 0.27235 1.0184 0.63537 0.0
C1901 C 0.29122 0.05735 0.63298 0.0
C1902 C 0.27222 1.01998 0.66051 0.0
C1903 C 0.28065 0.04021 0.67178 0.0
H1904 H 0.53249 0.54508 0.45792 0.0
H1905 H 0.51745 0.54129 0.3829 0.0
H1906 H 0.55191 0.51827 0.37542 0.0
H1907 H 0.58256 0.4941 0.39165 0.0
H1908 H 0.59625 0.49728 0.46703 0.0
H1909 H 0.56664 0.52642 0.4728 0.0
C1910 C 0.53694 0.53953 0.43986 0.0
C1911 C 0.52224 0.54441 0.42107 0.0
C1912 C 0.55662 0.52629 0.43577 0.0
C1913 C 0.52842 0.53753 0.39769 0.0
C1914 C 0.54809 0.52434 0.39343 0.0
C1915 C 0.57959 0.50183 0.40914 0.0
C1916 C 0.59132 0.49342 0.42895 0.0
C1917 C 0.56186 0.51792 0.4125 0.0
C1918 C 0.58725 0.50339 0.45157 0.0
C1919 C 0.5702 0.51989 0.45492 0.0
H1920 H 0.263 0.77213 0.19267 0.0
H1921 H 0.30079 0.8158 0.14139 0.0
H1922 H 0.3269 0.784 0.13224 0.0
H1923 H 0.33402 0.74181 0.13339 0.0
H1924 H 0.29596 0.69812 0.18481 0.0
H1925 H 0.27461 0.73164 0.19889 0.0
C1926 C 0.2776 0.77492 0.18035 0.0
C1927 C 0.27997 0.79594 0.16751 0.0
C1928 C 0.29188 0.75626 0.17443 0.0
C1929 C 0.29873 0.79951 0.15136 0.0
C1930 C 0.3134 0.78126 0.14584 0.0
C1931 C 0.32126 0.73971 0.14785 0.0
C1932 C 0.31641 0.71749 0.15774 0.0
C1933 C 0.30926 0.75917 0.15625 0.0
C1934 C 0.29993 0.71504 0.17665 0.0
C1935 C 0.28776 0.73423 0.18489 0.0
H1936 H 0.81364 1.00444 0.43957 0.0
H1937 H 0.8006 0.04862 0.37864 0.0
H1938 H 0.77285 1.01949 0.36439 0.0
H1939 H 0.75755 0.97938 0.366 0.0
H1940 H 0.77431 0.93368 0.42456 0.0
H1941 H 0.79569 0.96577 0.44307 0.0
C1942 C 0.80448 1.00798 0.42336 0.0
C1943 C 0.80949 1.02841 0.40986 0.0
C1944 C 0.78967 0.99073 0.41467 0.0
C1945 C 0.79724 0.03284 0.38913 0.0
C1946 C 0.78151 1.01616 0.38093 0.0
C1947 C 0.7657 0.97644 0.38293 0.0
C1948 C 0.76484 0.95409 0.39368 0.0
C1949 C 0.77848 0.99464 0.39299 0.0
C1950 C 0.77515 0.95065 0.41576 0.0
C1951 C 0.78728 0.96897 0.42635 0.0
H1952 H 0.98742 0.25019 0.84218 0.0
H1953 H 0.95456 0.26442 0.91079 0.0
H1954 H 0.9894 0.28444 0.92373 0.0
H1955 H 1.02753 0.30142 0.91439 0.0
H1956 H 0.06066 0.28895 0.8457 0.0
H1957 H 1.02774 0.26421 0.83427 0.0
C1958 C 0.98795 0.25749 0.86004 0.0
C1959 C 0.96811 0.25612 0.8753 0.0
C1960 C 1.00816 0.26924 0.86741 0.0
C1961 C 0.96931 0.26546 0.89848 0.0
C1962 C 0.98931 0.2769 0.90596 0.0
C1963 C 1.0278 0.29295 0.89704 0.0
C1964 C 0.04652 0.29721 0.88086 0.0
C1965 C 1.00859 0.27939 0.8904 0.0
C1966 C 0.04661 0.28589 0.85858 0.0
C1967 C 1.02762 0.27196 0.85194 0.0
H1968 H 0.89375 1.01953 0.4728 0.0
H1969 H 0.96241 0.04383 0.48893 0.0
H1970 H 0.96615 1.01156 0.51677 0.0
H1971 H 0.95139 0.97521 0.53611 0.0
H1972 H 0.88255 0.95034 0.52273 0.0
H1973 H 0.87763 0.98348 0.49508 0.0
C1974 C 0.90952 1.0179 0.48244 0.0
C1975 C 0.92782 0.03471 0.47808 0.0
C1976 C 0.91167 0.99885 0.49925 0.0
C1977 C 0.94791 0.03173 0.49129 0.0
C1978 C 0.95017 1.01301 0.50746 0.0
C1979 C 0.9351 0.97699 0.52743 0.0
C1980 C 0.91739 0.95978 0.53193 0.0
C1981 C 0.93234 0.99631 0.51153 0.0
C1982 C 0.89655 0.96302 0.52015 0.0
C1983 C 0.89379 0.98207 0.50405 0.0
H1984 H 0.06482 0.64414 0.17419 0.0
H1985 H 1.01613 0.69317 0.20285 0.0
H1986 H 1.03154 0.6884 0.2428 0.0
H1987 H 0.06044 0.67254 0.26926 0.0
H1988 H 0.10893 0.62265 0.24191 0.0
H1989 H 0.09179 0.62496 0.2023 0.0
C1990 C 0.05749 0.65357 0.18927 0.0
C1991 C 1.03934 0.66916 0.18544 0.0
C1992 C 0.06637 0.65049 0.21255 0.0
C1993 C 1.03003 0.68113 0.20523 0.0
C1994 C 1.03887 0.6784 0.22813 0.0
C1995 C 0.06709 0.66181 0.25477 0.0
C1996 C 0.08612 0.64744 0.2588 0.0
C1997 C 0.05724 0.66341 0.23198 0.0
C1998 C 0.09425 0.63368 0.23964 0.0
C1999 C 0.08456 0.63523 0.21681 0.0
H2000 H 0.36399 0.79258 0.96376 0.0
H2001 H 0.4326 0.77449 0.98305 0.0
H2002 H 0.43073 0.80128 1.01689 0.0
H2003 H 0.41162 0.83253 0.03793 0.0
H2004 H 0.34405 0.85357 1.01773 0.0
H2005 H 0.34337 0.82282 0.98724 0.0
C2006 C 0.37825 0.79423 0.97577 0.0
C2007 C 0.39842 0.78177 0.97112 0.0
C2008 C 0.3774 0.81041 0.99462 0.0
C2009 C 0.417 0.78411 0.9864 0.0
C2010 C 0.41596 0.79943 1.00563 0.0
C2011 C 0.39667 0.83049 0.02691 0.0
C2012 C 0.3781 0.84563 0.02976 0.0
C2013 C 0.39659 0.81321 1.00936 0.0
C2014 C 0.35867 0.84228 1.0157 0.0
C2015 C 0.35829 0.82472 0.99829 0.0
H2016 H 0.26655 0.69086 0.99513 0.0
H2017 H 0.22129 0.63974 0.0302 0.0
H2018 H 0.25274 0.62729 0.05525 0.0
H2019 H 0.29134 0.63588 0.07168 0.0
H2020 H 0.33573 0.68777 0.03664 0.0
H2021 H 0.30684 0.69446 1.0067 0.0
C2022 C 0.2637 0.67668 1.00795 0.0
C2023 C 0.24152 0.66654 1.01112 0.0
C2024 C 0.28183 0.66971 0.02231 0.0
C2025 C 0.23817 0.64791 0.02748 0.0
C2026 C 0.25615 0.64086 0.04191 0.0
C2027 C 0.29502 0.64784 0.05684 0.0
C2028 C 0.31573 0.66117 0.05621 0.0
C2029 C 0.27785 0.65224 0.04009 0.0
C2030 C 0.32005 0.67712 0.03729 0.0
C2031 C 0.30339 0.68118 0.02035 0.0
H2032 H 0.41916 0.04277 0.84341 0.0
H2033 H 0.37778 0.99063 0.88243 0.0
H2034 H 0.37658 0.96625 0.84723 0.0
H2035 H 0.38479 0.95983 0.80448 0.0
H2036 H 0.42859 1.00888 0.76486 0.0
H2037 H 0.43115 0.03392 0.80054 0.0
C2038 C 0.41004 1.02601 0.84429 0.0
C2039 C 0.39836 1.01905 0.86601 0.0
C2040 C 0.40957 1.01136 0.82356 0.0
C2041 C 0.38686 0.99697 0.86638 0.0
C2042 C 0.38601 0.98282 0.84604 0.0
C2043 C 0.39513 0.9759 0.80368 0.0
C2044 C 0.40641 0.98239 0.78186 0.0
C2045 C 0.39693 0.98991 0.82444 0.0
C2046 C 0.41981 1.00327 0.78134 0.0
C2047 C 0.42117 1.01769 0.80182 0.0
H2048 H 0.05702 0.1803 0.57219 0.0
H2049 H 1.02801 0.1161 0.54435 0.0
H2050 H 0.06253 0.11065 0.51956 0.0
H2051 H 0.10197 0.12281 0.50664 0.0
H2052 H 0.1301 0.18874 0.53086 0.0
H2053 H 0.09542 0.19455 0.55592 0.0
C2054 C 0.0581 0.1652 0.56057 0.0
C2055 C 1.03968 0.14843 0.56083 0.0
C2056 C 0.07815 0.1623 0.54562 0.0
C2057 C 1.04172 0.12918 0.54521 0.0
C2058 C 0.06161 0.126 0.53083 0.0
C2059 C 0.10051 0.13865 0.51709 0.0
C2060 C 0.119 0.15526 0.51661 0.0
C2061 C 0.0801 0.14224 0.53107 0.0
C2062 C 0.11642 0.17555 0.53064 0.0
C2063 C 0.09647 0.1789 0.54509 0.0
H2064 H 0.54912 0.9292 0.92415 0.0
H2065 H 0.59435 0.89329 0.97067 0.0
H2066 H 0.56112 0.8783 0.99477 0.0
H2067 H 0.51865 0.875 1.00195 0.0
H2068 H 0.47439 0.91391 0.95687 0.0
H2069 H 0.50739 0.92651 0.93157 0.0
C2070 C 0.5517 0.91894 0.94022 0.0
C2071 C 0.57419 0.91327 0.94633 0.0
C2072 C 0.53253 0.9099 0.95342 0.0
C2073 C 0.57729 0.89888 0.96638 0.0
C2074 C 0.55824 0.88982 0.97974 0.0
C2075 C 0.51633 0.88609 0.98651 0.0
C2076 C 0.49414 0.89367 0.98143 0.0
C2077 C 0.53571 0.89496 0.97323 0.0
C2078 C 0.49125 0.9076 0.96099 0.0
C2079 C 0.51019 0.9153 0.94688 0.0
H2080 H 0.77523 0.85375 0.514 0.0
H2081 H 0.75407 0.92537 0.50697 0.0
H2082 H 0.76687 0.93376 0.54725 0.0
H2083 H 0.78983 0.92256 0.5812 0.0
H2084 H 0.81323 0.85172 0.58714 0.0
H2085 H 0.79228 0.84082 0.55157 0.0
C2086 C 0.77333 0.87118 0.5213 0.0
C2087 C 0.76437 0.88911 0.50716 0.0
C2088 C 0.78068 0.8759 0.54456 0.0
C2089 C 0.76142 0.91139 0.51719 0.0
C2090 C 0.76854 0.91616 0.54034 0.0
C2091 C 0.78961 0.90449 0.57526 0.0
C2092 C 0.80378 0.88825 0.58632 0.0
C2093 C 0.77891 0.89877 0.55383 0.0
C2094 C 0.80278 0.86476 0.57884 0.0
C2095 C 0.79121 0.85861 0.5581 0.0
H2096 H 0.16534 0.47808 0.19054 0.0
H2097 H 0.17123 0.54176 0.14854 0.0
H2098 H 0.15412 0.56372 0.18136 0.0
H2099 H 0.1421 0.56614 0.22353 0.0
H2100 H 0.13833 0.50389 0.26721 0.0
H2101 H 0.1493 0.48006 0.23238 0.0
C2102 C 0.16256 0.49668 0.18849 0.0
C2103 C 0.16996 0.50825 0.16712 0.0
C2104 C 0.15291 0.5095 0.2078 0.0
C2105 C 0.16615 0.5324 0.16484 0.0
C2106 C 0.15623 0.54503 0.1836 0.0
C2107 C 0.14274 0.54721 0.22513 0.0
C2108 C 0.13878 0.53667 0.24767 0.0
C2109 C 0.1501 0.53393 0.20534 0.0
C2110 C 0.14057 0.51227 0.24984 0.0
C2111 C 0.14724 0.49873 0.22998 0.0
H2112 H 0.54792 0.92037 0.75624 0.0
H2113 H 0.49939 0.95893 0.79927 0.0
H2114 H 0.5171 0.94514 0.83583 0.0
H2115 H 0.54143 0.91585 0.85505 0.0
H2116 H 0.58943 0.87689 0.81164 0.0
H2117 H 0.57661 0.89657 0.7755 0.0
C2118 C 0.54196 0.92655 0.77366 0.0
C2119 C 0.5224 0.94039 0.77528 0.0
C2120 C 0.55138 0.91752 0.79439 0.0
C2121 C 0.51464 0.94844 0.79772 0.0
C2122 C 0.52439 0.94008 0.8186 0.0
C2123 C 0.54888 0.91171 0.83759 0.0
C2124 C 0.56548 0.89435 0.83553 0.0
C2125 C 0.54179 0.92346 0.81708 0.0
C2126 C 0.576 0.88969 0.81322 0.0
C2127 C 0.56889 0.90109 0.79271 0.0
H2128 H 0.21186 0.32207 0.57912 0.0
H2129 H 0.14469 0.29956 0.60663 0.0
H2130 H 0.13621 0.28213 0.56805 0.0
H2131 H 0.15016 0.26765 0.5293 0.0
H2132 H 0.21809 0.28723 0.50246 0.0
H2133 H 0.22348 0.31269 0.53726 0.0
C2134 C 0.19519 0.31373 0.57659 0.0
C2135 C 0.1791 0.31177 0.59606 0.0
C2136 C 0.19048 0.30346 0.5543 0.0
C2137 C 0.15757 0.30102 0.59225 0.0
C2138 C 0.15265 0.29111 0.5701 0.0
C2139 C 0.1658 0.27825 0.53061 0.0
C2140 C 0.18373 0.27551 0.5134 0.0
C2141 C 0.16927 0.2915 0.55135 0.0
C2142 C 0.20394 0.28923 0.51528 0.0
C2143 C 0.20719 0.30336 0.5355 0.0
H2144 H 0.19491 0.49571 0.06205 0.0
H2145 H 0.12419 0.47772 0.04774 0.0
H2146 H 0.12383 0.5084 1.01707 0.0
H2147 H 0.14122 0.54452 1.00073 0.0
H2148 H 0.21209 0.56253 1.01387 0.0
H2149 H 0.2149 0.52738 0.03901 0.0
C2150 C 0.17958 0.49824 0.05185 0.0
C2151 C 0.15938 0.48508 0.05746 0.0
C2152 C 0.17947 0.51598 0.03452 0.0
C2153 C 0.1398 0.48792 0.04383 0.0
C2154 C 0.13956 0.50551 0.02646 0.0
C2155 C 0.15752 0.54037 1.00848 0.0
C2156 C 0.17636 0.55607 1.00581 0.0
C2157 C 0.15893 0.5203 0.0226 0.0
C2158 C 0.19739 0.5506 1.0158 0.0
C2159 C 0.19893 0.53064 0.03022 0.0
H2160 H 0.08091 0.49456 0.88248 0.0
H2161 H 0.09759 0.50415 0.95655 0.0
H2162 H 0.06667 0.5319 0.96158 0.0
H2163 H 1.03076 0.54733 0.94725 0.0
H2164 H 1.01315 0.53869 0.87343 0.0
H2165 H 0.04833 0.5165 0.86596 0.0
C2166 C 0.07834 0.50347 0.89941 0.0
C2167 C 0.09151 0.49723 0.91916 0.0
C2168 C 0.05987 0.51896 0.90243 0.0
C2169 C 0.08773 0.50865 0.9411 0.0
C2170 C 0.06986 0.52433 0.94407 0.0
C2171 C 1.0349 0.54114 0.92935 0.0
C2172 C 1.01927 0.54443 0.91098 0.0
C2173 C 0.05513 0.52865 0.92523 0.0
C2174 C 1.0249 0.53635 0.88788 0.0
C2175 C 0.04498 0.52359 0.88365 0.0
H2176 H 0.51314 0.81087 0.91506 0.0
H2177 H 0.56118 0.78221 0.86336 0.0
H2178 H 0.53025 0.75762 0.84712 0.0
H2179 H 0.48837 0.74676 0.8456 0.0
H2180 H 0.44142 0.77872 0.89633 0.0
H2181 H 0.47294 0.79943 0.91466 0.0
C2182 C 0.51707 0.79907 0.90042 0.0
C2183 C 0.53952 0.7986 0.89042 0.0
C2184 C 0.49917 0.78568 0.8907 0.0
C2185 C 0.54408 0.78301 0.87149 0.0
C2186 C 0.52632 0.76907 0.86203 0.0
C2187 C 0.48512 0.75822 0.86068 0.0
C2188 C 0.46239 0.76086 0.86969 0.0
C2189 C 0.50359 0.7707 0.87109 0.0
C2190 C 0.45861 0.77586 0.88926 0.0
C2191 C 0.47669 0.7879 0.89975 0.0
H2192 H 0.33018 0.23918 0.61566 0.0
H2193 H 0.30866 0.20676 0.68296 0.0
H2194 H 0.28733 0.24122 0.6941 0.0
H2195 H 0.26936 0.27742 0.68189 0.0
H2196 H 0.28867 0.30903 0.61375 0.0
H2197 H 0.31678 0.27863 0.60622 0.0
C2198 C 0.32106 0.23982 0.63286 0.0
C2199 C 0.32046 0.22018 0.64807 0.0
C2200 C 0.30839 0.25962 0.63909 0.0
C2201 C 0.30895 0.22142 0.67057 0.0
C2202 C 0.29678 0.24118 0.67708 0.0
C2203 C 0.28026 0.27804 0.66578 0.0
C2204 C 0.27672 0.29503 0.64822 0.0
C2205 C 0.29559 0.25996 0.66107 0.0
C2206 C 0.29091 0.29576 0.62737 0.0
C2207 C 0.30686 0.27833 0.62297 0.0
H2208 H 0.52629 0.53603 0.59086 0.0
H2209 H 0.54723 0.56027 0.65994 0.0
H2210 H 0.56892 0.52441 0.66558 0.0
H2211 H 0.58617 0.48872 0.64801 0.0
H2212 H 0.56385 0.46462 0.57927 0.0
H2213 H 0.53767 0.49722 0.57683 0.0
C2214 C 0.53526 0.53326 0.60734 0.0
C2215 C 0.5355 0.5509 0.62479 0.0
C2216 C 0.54731 0.51248 0.61059 0.0
C2217 C 0.54693 0.54697 0.64619 0.0
C2218 C 0.55935 0.52648 0.64939 0.0
C2219 C 0.57488 0.49009 0.63299 0.0
C2220 C 0.57708 0.47434 0.61377 0.0
C2221 C 0.5602 0.50936 0.6314 0.0
C2222 C 0.56254 0.47655 0.59426 0.0
C2223 C 0.54775 0.49536 0.59271 0.0
H2224 H 0.82868 0.26708 0.93054 0.0
H2225 H 0.85784 0.29011 0.86241 0.0
H2226 H 0.82821 0.32023 0.86017 0.0
H2227 H 0.79518 0.34231 0.87956 0.0
H2228 H 0.76741 0.31746 0.94793 0.0
H2229 H 0.79505 0.28631 0.94791 0.0
C2230 C 0.82859 0.2785 0.91497 0.0
C2231 C 0.84589 0.27611 0.89673 0.0
C2232 C 0.81162 0.29589 0.91396 0.0
C2233 C 0.84492 0.29114 0.87671 0.0
C2234 C 0.82797 0.30861 0.87557 0.0
C2235 C 0.79496 0.32994 0.89434 0.0
C2236 C 0.77888 0.33281 0.91388 0.0
C2237 C 0.81137 0.31153 0.89435 0.0
C2238 C 0.77931 0.31628 0.93272 0.0
C2239 C 0.79526 0.29825 0.93276 0.0
H2240 H 0.0663 0.84571 0.12489 0.0
H2241 H 0.05483 0.8397 0.2009 0.0
H2242 H 1.02612 0.8085 0.19537 0.0
H2243 H 1.01803 0.77396 0.1704 0.0
H2244 H 1.03643 0.77642 0.09497 0.0
H2245 H 0.04911 0.81713 0.09843 0.0
C2246 C 0.05635 0.83847 0.14006 0.0
C2247 C 0.06359 0.84337 0.16317 0.0
C2248 C 1.04237 0.81861 0.13673 0.0
C2249 C 0.05007 0.83524 0.18285 0.0
C2250 C 1.03419 0.81686 0.1797 0.0
C2251 C 1.02425 0.78365 0.15466 0.0
C2252 C 1.02727 0.77211 0.13272 0.0
C2253 C 1.03241 0.80676 0.15697 0.0
C2254 C 1.03486 0.78483 0.11227 0.0
C2255 C 1.04187 0.80816 0.11416 0.0
H2256 H 0.99367 0.93042 0.30996 0.0
H2257 H 0.05213 0.95071 0.26494 0.0
H2258 H 0.07823 0.93699 0.29549 0.0
H2259 H 0.08358 0.9123 0.33117 0.0
H2260 H 1.02417 0.88774 0.37303 0.0
H2261 H 0.99918 0.90999 0.34768 0.0
C2262 C 1.01217 0.93281 0.30742 0.0
C2263 C 1.02111 0.94185 0.28562 0.0
C2264 C 1.02678 0.92329 0.32414 0.0
C2265 C 0.04499 0.94432 0.28195 0.0
C2266 C 0.05983 0.93602 0.29919 0.0
C2267 C 0.06522 0.91193 0.33483 0.0
C2268 C 0.05574 0.89776 0.35351 0.0
C2269 C 0.05084 0.92428 0.31972 0.0
C2270 C 1.03189 0.89794 0.35835 0.0
C2271 C 1.01758 0.9108 0.34398 0.0
H2272 H 0.72306 0.80883 0.58825 0.0
H2273 H 0.65076 0.8216 0.60035 0.0
H2274 H 0.64237 0.80539 0.56136 0.0
H2275 H 0.65446 0.78279 0.52639 0.0
H2276 H 0.72616 0.76836 0.5139 0.0
H2277 H 0.73593 0.79077 0.5497 0.0
C2278 C 0.70551 0.80828 0.58223 0.0
C2279 C 0.68753 0.81597 0.59763 0.0
C2280 C 0.70066 0.79873 0.55954 0.0
C2281 C 0.66494 0.81537 0.58928 0.0
C2282 C 0.66008 0.80621 0.56684 0.0
C2283 C 0.67233 0.78514 0.53108 0.0
C2284 C 0.6895 0.77377 0.51751 0.0
C2285 C 0.67766 0.79719 0.55216 0.0
C2286 C 0.71258 0.77707 0.52382 0.0
C2287 C 0.71812 0.78955 0.54459 0.0
H2288 H 0.80184 0.45648 0.72449 0.0
H2289 H 0.82798 0.38978 0.70323 0.0
H2290 H 0.79963 0.36966 0.7296 0.0
H2291 H 0.77822 0.37261 0.76819 0.0
H2292 H 0.75647 0.44049 0.79247 0.0
H2293 H 0.77179 0.45849 0.75575 0.0
C2294 C 0.80022 0.4375 0.72451 0.0
C2295 C 0.81735 0.42456 0.71293 0.0
C2296 C 0.78538 0.42633 0.74139 0.0
C2297 C 0.81508 0.40005 0.71249 0.0
C2298 C 0.79927 0.38857 0.72809 0.0
C2299 C 0.77635 0.39123 0.76516 0.0
C2300 C 0.76706 0.40529 0.78342 0.0
C2301 C 0.78606 0.40172 0.74432 0.0
C2302 C 0.76412 0.4293 0.77898 0.0
C2303 C 0.77284 0.43967 0.75791 0.0
H2304 H 0.17557 0.73144 0.27906 0.0
H2305 H 0.11145 0.75302 0.31161 0.0
H2306 H 0.11092 0.78648 0.2839 0.0
H2307 H 0.1251 0.80491 0.24589 0.0
H2308 H 0.1883 0.78168 0.21227 0.0
H2309 H 0.19266 0.75339 0.24476 0.0
C2310 C 0.16187 0.74397 0.28066 0.0
C2311 C 0.14348 0.73965 0.29733 0.0
C2312 C 0.16112 0.76235 0.26386 0.0
C2313 C 0.12591 0.75602 0.2992 0.0
C2314 C 0.1254 0.77489 0.28298 0.0
C2315 C 0.13991 0.79373 0.24566 0.0
C2316 C 0.15603 0.79499 0.22615 0.0
C2317 C 0.14226 0.77742 0.26443 0.0
C2318 C 0.17545 0.78087 0.22671 0.0
C2319 C 0.17797 0.76471 0.24535 0.0
H2320 H 0.66702 0.4778 0.69151 0.0
H2321 H 0.66827 0.53878 0.64546 0.0
H2322 H 0.65128 0.56194 0.67752 0.0
H2323 H 0.64129 0.56652 0.71999 0.0
H2324 H 0.64257 0.50718 0.76758 0.0
H2325 H 0.65304 0.48168 0.73382 0.0
C2326 C 0.66328 0.49606 0.68846 0.0
C2327 C 0.66936 0.50663 0.66622 0.0
C2328 C 0.65396 0.5096 0.70733 0.0
C2329 C 0.6642 0.53029 0.6625 0.0
C2330 C 0.65441 0.54358 0.68082 0.0
C2331 C 0.64299 0.54782 0.72273 0.0
C2332 C 0.64064 0.53854 0.74597 0.0
C2333 C 0.64991 0.53365 0.70349 0.0
C2334 C 0.64366 0.51448 0.74964 0.0
C2335 C 0.64997 0.50002 0.73039 0.0
H2336 H 0.04841 0.38393 0.92369 0.0
H2337 H 0.09424 0.39252 0.98248 0.0
H2338 H 0.06634 0.37118 1.00885 0.0
H2339 H 1.02544 0.35901 1.01692 0.0
H2340 H 0.97876 0.35716 0.95875 0.0
H2341 H 1.01046 0.36593 0.93026 0.0
C2342 C 0.05236 0.38131 0.94236 0.0
C2343 C 0.07315 0.39034 0.9513 0.0
C2344 C 1.03583 0.37041 0.95759 0.0
C2345 C 0.0781 0.38636 0.97536 0.0
C2346 C 0.0621 0.37431 0.99044 0.0
C2347 C 1.02247 0.35993 0.99795 0.0
C2348 C 0.99982 0.35814 0.98996 0.0
C2349 C 1.04041 0.36742 0.98205 0.0
C2350 C 0.99609 0.35849 0.96527 0.0
C2351 C 1.01412 0.36413 0.94909 0.0
H2352 H 0.56184 0.67517 0.57704 0.0
H2353 H 0.53169 0.61228 0.54746 0.0
H2354 H 0.56413 0.60919 0.51936 0.0
H2355 H 0.60216 0.62287 0.5037 0.0
H2356 H 0.63284 0.68594 0.53201 0.0
H2357 H 0.59963 0.69019 0.55955 0.0
C2358 C 0.56223 0.6609 0.56433 0.0
C2359 C 0.54394 0.64397 0.56481 0.0
C2360 C 0.58137 0.65903 0.54784 0.0
C2361 C 0.5452 0.62563 0.54797 0.0
C2362 C 0.56393 0.62375 0.53172 0.0
C2363 C 0.60164 0.63769 0.51574 0.0
C2364 C 0.62038 0.65399 0.51554 0.0
C2365 C 0.58229 0.64013 0.53161 0.0
C2366 C 0.61895 0.67301 0.53151 0.0
C2367 C 0.59983 0.67546 0.5474 0.0
H2368 H 0.9532 0.29389 0.77906 0.0
H2369 H 0.88035 0.30139 0.79214 0.0
H2370 H 0.88233 0.33981 0.772 0.0
H2371 H 0.90578 0.37295 0.75393 0.0
H2372 H 0.97894 0.36455 0.74269 0.0
H2373 H 0.9757 0.32499 0.75876 0.0
C2374 C 0.93762 0.30374 0.77732 0.0
C2375 C 0.91666 0.29473 0.78732 0.0
C2376 C 0.93901 0.32592 0.76621 0.0
C2377 C 0.89669 0.30776 0.78456 0.0
C2378 C 0.89788 0.32986 0.77322 0.0
C2379 C 0.92099 0.36241 0.75482 0.0
C2380 C 0.94265 0.37207 0.74717 0.0
C2381 C 0.9191 0.33942 0.76449 0.0
C2382 C 0.96207 0.35793 0.7485 0.0
C2383 C 0.96026 0.33516 0.75771 0.0
H2384 H 0.89546 0.99756 0.374 0.0
H2385 H 0.91686 0.06502 0.3452 0.0
H2386 H 0.92265 0.04763 0.30545 0.0
H2387 H 0.91878 1.01323 0.27763 0.0
H2388 H 0.89765 0.94619 0.30761 0.0
H2389 H 0.89497 0.96319 0.34756 0.0
C2390 C 0.90168 1.00851 0.35915 0.0
C2391 C 0.90563 0.03276 0.36297 0.0
C2392 C 0.90508 0.99832 0.3362 0.0
C2393 C 0.91375 0.04637 0.34318 0.0
C2394 C 0.91698 0.03638 0.32026 0.0
C2395 C 0.91422 1.00225 0.29301 0.0
C2396 C 0.9088 0.97819 0.28944 0.0
C2397 C 0.91241 1.01237 0.31635 0.0
C2398 C 0.90228 0.96455 0.30969 0.0
C2399 C 0.90055 0.97435 0.33264 0.0
H2400 H 0.59031 0.69048 0.74737 0.0
H2401 H 0.58381 0.61517 0.75161 0.0
H2402 H 0.55987 0.61542 0.71579 0.0
H2403 H 0.54193 0.63775 0.6816 0.0
H2404 H 0.55167 0.71296 0.67909 0.0
H2405 H 0.57293 0.71183 0.71569 0.0
C2406 C 0.58384 0.67386 0.74071 0.0
C2407 C 0.58932 0.65275 0.7525 0.0
C2408 C 0.57052 0.67417 0.72005 0.0
C2409 C 0.5801 0.63175 0.74324 0.0
C2410 C 0.56641 0.63193 0.72258 0.0
C2411 C 0.54866 0.65385 0.68916 0.0
C2412 C 0.54523 0.67549 0.67713 0.0
C2413 C 0.56165 0.6531 0.71055 0.0
C2414 C 0.55418 0.69606 0.68743 0.0
C2415 C 0.56639 0.69546 0.70854 0.0
H2416 H 0.86543 0.31055 0.0471 0.0
H2417 H 0.93294 0.34118 0.03235 0.0
H2418 H 0.94393 0.30693 1.00965 0.0
H2419 H 0.93319 0.27093 0.98984 0.0
H2420 H 0.86445 0.24186 0.99908 0.0
H2421 H 0.85549 0.27189 0.02903 0.0
C2422 C 0.88255 0.30962 0.03899 0.0
C2423 C 0.89823 0.32868 0.04108 0.0
C2424 C 0.88863 0.2899 0.02523 0.0
C2425 C 0.92041 0.32706 0.03068 0.0
C2426 C 0.9268 0.30735 1.01782 0.0
C2427 C 0.91637 0.27077 0.99883 0.0
C2428 C 0.89943 0.25438 0.99201 0.0
C2429 C 0.91088 0.289 1.01446 0.0
C2430 C 0.87786 0.25421 1.00406 0.0
C2431 C 0.87261 0.27169 0.02084 0.0
H2432 H 0.21623 0.58811 0.28639 0.0
H2433 H 0.19277 0.65872 0.2961 0.0
H2434 H 0.23004 0.67426 0.28222 0.0
H2435 H 0.26832 0.66855 0.2646 0.0
H2436 H 0.2926 0.59871 0.25255 0.0
H2437 H 0.25654 0.58237 0.27045 0.0
C2438 C 0.21933 0.60689 0.28565 0.0
C2439 C 0.20128 0.62212 0.2922 0.0
C2440 C 0.24113 0.61597 0.27722 0.0
C2441 C 0.20592 0.64642 0.29107 0.0
C2442 C 0.22739 0.65542 0.28312 0.0
C2443 C 0.26601 0.6497 0.26609 0.0
C2444 C 0.28344 0.63499 0.25705 0.0
C2445 C 0.24498 0.64045 0.27576 0.0
C2446 C 0.27979 0.6106 0.25941 0.0
C2447 C 0.25897 0.60122 0.26948 0.0
H2448 H 1.03843 0.04902 0.63937 0.0
H2449 H 1.02967 0.05261 0.5629 0.0
H2450 H 0.04809 1.01536 0.55776 0.0
H2451 H 0.07152 0.98478 0.57364 0.0
H2452 H 0.08386 0.98163 0.64925 0.0
H2453 H 0.05871 1.01493 0.65614 0.0
C2454 C 1.04037 0.04148 0.62167 0.0
C2455 C 1.03306 0.0539 0.60155 0.0
C2456 C 0.05163 1.02001 0.61863 0.0
C2457 C 1.03553 0.04377 0.57872 0.0
C2458 C 0.04598 1.02232 0.57569 0.0
C2459 C 0.06827 0.99101 0.59173 0.0
C2460 C 0.07976 0.981 0.61082 0.0
C2461 C 0.05479 1.01072 0.59535 0.0
C2462 C 0.07516 0.98903 0.63421 0.0
C2463 C 0.06104 1.00831 0.6381 0.0
H2464 H 0.5231 0.78955 0.61343 0.0
H2465 H 0.5207 0.75883 0.68411 0.0
H2466 H 0.53333 0.79619 0.70118 0.0
H2467 H 0.55527 0.83294 0.69327 0.0
H2468 H 0.55721 0.86304 0.62259 0.0
H2469 H 0.5319 0.83176 0.60857 0.0
C2470 C 0.52469 0.79128 0.63264 0.0
C2471 C 0.52186 0.77152 0.64746 0.0
C2472 C 0.53125 0.81285 0.64232 0.0
C2473 C 0.52332 0.77389 0.67237 0.0
C2474 C 0.53038 0.79523 0.68214 0.0
C2475 C 0.54886 0.83347 0.67523 0.0
C2476 C 0.55947 0.84877 0.65831 0.0
C2477 C 0.53578 0.81438 0.66701 0.0
C2478 C 0.55004 0.85048 0.63555 0.0
C2479 C 0.53619 0.83216 0.62731 0.0
H2480 H 0.31886 0.59863 0.13071 0.0
H2481 H 0.27857 0.60132 0.19674 0.0
H2482 H 0.25885 0.56471 0.18691 0.0
H2483 H 0.25111 0.53275 0.15869 0.0
H2484 H 0.28777 0.53172 0.09065 0.0
H2485 H 0.31091 0.56618 0.1021 0.0
C2486 C 0.30584 0.59111 0.14295 0.0
C2487 C 0.30019 0.60295 0.1644 0.0
C2488 C 0.29393 0.57009 0.13686 0.0
C2489 C 0.28314 0.59291 0.17997 0.0
C2490 C 0.27187 0.57181 0.17443 0.0
C2491 C 0.26455 0.53977 0.14662 0.0
C2492 C 0.2681 0.52933 0.12409 0.0
C2493 C 0.27692 0.56033 0.15285 0.0
C2494 C 0.28499 0.53917 0.10827 0.0
C2495 C 0.2981 0.55901 0.11476 0.0
H2496 H 0.53758 0.05786 0.90325 0.0
H2497 H 0.48989 1.01354 0.86605 0.0
H2498 H 0.52149 0.9889 0.85204 0.0
H2499 H 0.56126 0.97594 0.85742 0.0
H2500 H 0.60813 1.01928 0.89694 0.0
H2501 H 0.57874 0.04885 0.9023 0.0
C2502 C 0.53429 0.04317 0.89159 0.0
C2503 C 0.51159 0.03732 0.88579 0.0
C2504 C 0.55249 1.02896 0.884 0.0
C2505 C 0.50735 1.01829 0.87064 0.0
C2506 C 0.52538 1.00418 0.86274 0.0
C2507 C 0.56533 0.99243 0.86607 0.0
C2508 C 0.58682 0.99562 0.8766 0.0
C2509 C 0.5479 1.00878 0.87015 0.0
C2510 C 0.59177 1.0167 0.88842 0.0
C2511 C 0.57484 0.0334 0.89183 0.0
H2512 H 0.7622 0.45881 0.89005 0.0
H2513 H 0.82406 0.42675 0.86253 0.0
H2514 H 0.84431 0.46492 0.86328 0.0
H2515 H 0.84518 0.50622 0.87622 0.0
H2516 H 0.78381 0.53653 0.90635 0.0
H2517 H 0.76205 0.5002 0.89917 0.0
C2518 C 0.78016 0.46 0.88424 0.0
C2519 C 0.79183 0.43982 0.87686 0.0
C2520 C 0.79149 0.48176 0.8847 0.0
C2521 C 0.81486 0.44195 0.86873 0.0
C2522 C 0.82636 0.46375 0.86902 0.0
C2523 C 0.82682 0.50502 0.88027 0.0
C2524 C 0.81576 0.52392 0.89127 0.0
C2525 C 0.81492 0.48365 0.87742 0.0
C2526 C 0.79228 0.52227 0.89728 0.0
C2527 C 0.78005 0.50141 0.89358 0.0
H2528 H 1.02972 0.79226 0.41142 0.0
H2529 H 0.06386 0.78945 0.34187 0.0
H2530 H 1.02994 0.76936 0.32582 0.0
H2531 H 0.98879 0.75601 0.33081 0.0
H2532 H 0.95507 0.76233 0.4003 0.0
H2533 H 0.99043 0.77759 0.41688 0.0
C2534 C 1.03005 0.78704 0.39278 0.0
C2535 C 0.04948 0.79259 0.37793 0.0
C2536 C 1.01024 0.77632 0.38349 0.0
C2537 C 0.04928 0.78546 0.35383 0.0
C2538 C 1.02975 0.7741 0.34458 0.0
C2539 C 0.98928 0.76057 0.34961 0.0
C2540 C 0.96906 0.75816 0.3642 0.0
C2541 C 1.00983 0.77 0.35909 0.0
C2542 C 0.97011 0.76418 0.38852 0.0
C2543 C 0.99044 0.77289 0.3981 0.0
H2544 H 1.01322 0.16631 0.71586 0.0
H2545 H 0.06312 0.15216 0.65957 0.0
H2546 H 0.0908 0.14043 0.68949 0.0
H2547 H 0.10236 0.1389 0.73233 0.0
H2548 H 0.05168 0.15284 0.78788 0.0
H2549 H 1.0228 0.15932 0.75789 0.0
C2550 C 1.03002 0.16024 0.71009 0.0
C2551 C 1.03607 0.16033 0.68541 0.0
C2552 C 0.04578 0.15336 0.72743 0.0
C2553 C 0.05789 0.15223 0.67834 0.0
C2554 C 0.0738 0.14563 0.69553 0.0
C2555 C 0.08475 0.1424 0.73783 0.0
C2556 C 0.07907 0.14474 0.76249 0.0
C2557 C 0.06817 0.14665 0.72022 0.0
C2558 C 0.05635 0.1502 0.76919 0.0
C2559 C 1.03989 0.15428 0.75196 0.0
H2560 H 0.43196 0.27775 0.48673 0.0
H2561 H 0.36439 0.24568 0.49498 0.0
H2562 H 0.35445 0.27386 0.5265 0.0
H2563 H 0.36321 0.31181 0.54684 0.0
H2564 H 0.42981 0.34502 0.53369 0.0
H2565 H 0.44169 0.31267 0.50882 0.0
C2566 C 0.41521 0.27653 0.49582 0.0
C2567 C 0.39888 0.25985 0.48834 0.0
C2568 C 0.4092 0.29357 0.51262 0.0
C2569 C 0.37736 0.2583 0.50048 0.0
C2570 C 0.37154 0.2747 0.51821 0.0
C2571 C 0.38034 0.31182 0.53862 0.0
C2572 C 0.39549 0.33113 0.54185 0.0
C2573 C 0.38697 0.29314 0.5236 0.0
C2574 C 0.41769 0.3307 0.53126 0.0
C2575 C 0.42458 0.31208 0.51709 0.0
H2576 H 0.42771 0.55811 0.32959 0.0
H2577 H 0.40153 0.51093 0.38492 0.0
H2578 H 0.40313 0.47822 0.35682 0.0
H2579 H 0.40871 0.46346 0.31538 0.0
H2580 H 0.43945 0.50908 0.26117 0.0
H2581 H 0.43962 0.54166 0.28971 0.0
C2582 C 0.42286 0.54056 0.33563 0.0
C2583 C 0.41447 0.53712 0.35951 0.0
C2584 C 0.42449 0.52149 0.3194 0.0
C2585 C 0.40823 0.51419 0.36688 0.0
C2586 C 0.409 0.49543 0.35069 0.0
C2587 C 0.41593 0.4804 0.30992 0.0
C2588 C 0.42376 0.48378 0.28586 0.0
C2589 C 0.41666 0.49891 0.32677 0.0
C2590 C 0.43318 0.50589 0.27935 0.0
C2591 C 0.43319 0.5246 0.29574 0.0
H2592 H 0.06197 0.67182 0.08227 0.0
H2593 H 1.02668 0.61285 0.05061 0.0
H2594 H 0.05773 0.60916 0.02093 0.0
H2595 H 0.09606 0.62106 1.00442 0.0
H2596 H 0.13178 0.68016 0.03509 0.0
H2597 H 0.09996 0.68513 0.06409 0.0
C2598 C 0.06092 0.65831 0.06876 0.0
C2599 C 1.04166 0.64262 0.06914 0.0
C2600 C 0.07926 0.65604 0.05138 0.0
C2601 C 1.04105 0.62521 0.05125 0.0
C2602 C 0.05896 0.62299 0.03409 0.0
C2603 C 0.09692 0.63516 1.0173 0.0
C2604 C 0.11668 0.6501 1.01731 0.0
C2605 C 0.07835 0.63805 0.03409 0.0
C2606 C 0.11707 0.66823 0.0344 0.0
C2607 C 0.09875 0.67113 0.05114 0.0
H2608 H 0.51946 0.36054 0.51829 0.0
H2609 H 0.47568 0.36895 0.4583 0.0
H2610 H 0.50929 0.3757 0.43175 0.0
H2611 H 0.54957 0.38724 0.42742 0.0
H2612 H 0.59377 0.38489 0.48794 0.0
H2613 H 0.5616 0.36841 0.51284 0.0
C2614 C 0.51746 0.36342 0.49935 0.0
C2615 C 0.49523 0.36477 0.49028 0.0
C2616 C 0.53677 0.3696 0.4847 0.0
C2617 C 0.49267 0.36776 0.46559 0.0
C2618 C 0.51183 0.37218 0.45056 0.0
C2619 C 0.55222 0.38325 0.44614 0.0
C2620 C 0.57384 0.38773 0.45604 0.0
C2621 C 0.5337 0.37463 0.46026 0.0
C2622 C 0.57707 0.38228 0.48019 0.0
C2623 C 0.55874 0.37276 0.4943 0.0
H2624 H 0.1478 0.0663 0.71861 0.0
H2625 H 0.13298 1.00538 0.76244 0.0
H2626 H 0.14404 0.97984 0.72884 0.0
H2627 H 0.16308 0.97552 0.68845 0.0
H2628 H 0.18013 0.03788 0.64693 0.0
H2629 H 0.16277 0.06205 0.6778 0.0
C2630 C 0.14617 0.04739 0.72046 0.0
C2631 C 0.13916 0.03766 0.74264 0.0
C2632 C 0.15344 0.03308 0.70152 0.0
C2633 C 0.13771 1.01319 0.74522 0.0
C2634 C 0.1444 0.99865 0.72612 0.0
C2635 C 0.16279 0.99435 0.68612 0.0
C2636 C 0.17345 1.00486 0.66559 0.0
C2637 C 0.15312 1.00844 0.70441 0.0
C2638 C 0.17257 0.02931 0.66273 0.0
C2639 C 0.16254 0.04322 0.68035 0.0
H2640 H 0.59162 0.40996 0.32579 0.0
H2641 H 0.53213 0.40361 0.37335 0.0
H2642 H 0.50895 0.42335 0.344 0.0
H2643 H 0.50435 0.43593 0.30253 0.0
H2644 H 0.56274 0.43826 0.25337 0.0
H2645 H 0.58811 0.42759 0.28582 0.0
C2646 C 0.57384 0.41359 0.32998 0.0
C2647 C 0.56359 0.40526 0.35155 0.0
C2648 C 0.56052 0.42431 0.31271 0.0
C2649 C 0.5403 0.40961 0.35666 0.0
C2650 C 0.52708 0.42095 0.33994 0.0
C2651 C 0.52281 0.4351 0.29929 0.0
C2652 C 0.53192 0.43822 0.27595 0.0
C2653 C 0.53682 0.42754 0.31759 0.0
C2654 C 0.55563 0.43642 0.27145 0.0
C2655 C 0.56998 0.42995 0.28989 0.0
H2656 H 0.21925 0.77569 0.02361 0.0
H2657 H 0.14609 0.76278 0.02804 0.0
H2658 H 0.14307 0.7865 0.06427 0.0
H2659 H 0.16225 0.8055 0.09829 0.0
H2660 H 0.23565 0.81849 0.09337 0.0
H2661 H 0.23753 0.80025 0.05418 0.0
C2662 C 0.20254 0.77909 0.03185 0.0
C2663 C 0.18288 0.76783 0.02296 0.0
C2664 C 0.20107 0.79206 0.05326 0.0
C2665 C 0.1614 0.77171 0.03429 0.0
C2666 C 0.15973 0.78489 0.0553 0.0
C2667 C 0.17861 0.80442 0.0886 0.0
C2668 C 0.19879 0.81296 0.09918 0.0
C2669 C 0.17962 0.79417 0.06564 0.0
C2670 C 0.21979 0.81186 0.08598 0.0
C2671 C 0.22094 0.80148 0.0634 0.0
H2672 H 1.01261 0.03954 0.38058 0.0
H2673 H 1.03021 0.05732 0.45283 0.0
H2674 H 0.06579 0.03621 0.44857 0.0
H2675 H 0.08802 1.00699 0.42757 0.0
H2676 H 0.06893 0.98427 0.35734 0.0
H2677 H 1.03834 1.01317 0.35715 0.0
C2678 C 1.02458 0.0392 0.39508 0.0
C2679 C 1.01882 0.04998 0.41699 0.0
C2680 C 0.04464 1.02583 0.39295 0.0
C2681 C 1.03429 0.04925 0.43579 0.0
C2682 C 0.05461 0.03705 0.43342 0.0
C2683 C 0.07752 1.00877 0.41195 0.0
C2684 C 0.08044 0.99338 0.39267 0.0
C2685 C 0.05941 1.02445 0.41254 0.0
C2686 C 0.067 0.99602 0.3724 0.0
C2687 C 0.04931 1.01233 0.37245 0.0
H2688 H 0.53425 0.29499 0.40969 0.0
H2689 H 0.56076 0.29851 0.33674 0.0
H2690 H 0.52636 0.27702 0.32349 0.0
H2691 H 0.48689 0.26045 0.33244 0.0
H2692 H 0.46051 0.26012 0.40555 0.0
H2693 H 0.49662 0.27729 0.41878 0.0
C2694 C 0.5328 0.29093 0.39084 0.0
C2695 C 0.55022 0.29863 0.37425 0.0
C2696 C 0.5127 0.27937 0.38332 0.0
C2697 C 0.5478 0.29286 0.34998 0.0
C2698 C 0.52798 0.28071 0.34238 0.0
C2699 C 0.48913 0.26397 0.35129 0.0
C2700 C 0.47077 0.25912 0.36793 0.0
C2701 C 0.51001 0.2744 0.35883 0.0
C2702 C 0.47408 0.26385 0.39227 0.0
C2703 C 0.49482 0.27363 0.39989 0.0
H2704 H 0.58361 0.98287 0.15024 0.0
H2705 H 0.55865 0.96175 0.08152 0.0
H2706 H 0.53448 0.99596 0.08037 0.0
H2707 H 0.52723 0.0355 0.0947 0.0
H2708 H 0.54833 0.05636 0.16475 0.0
H2709 H 0.56805 1.01899 0.16935 0.0
C2710 C 0.57201 0.98516 0.13562 0.0
C2711 C 0.57308 0.96985 0.11586 0.0
C2712 C 0.55835 1.00531 0.13484 0.0
C2713 C 0.55818 0.97327 0.09688 0.0
C2714 C 0.5446 0.99304 0.09604 0.0
C2715 C 0.53526 0.03153 0.1114 0.0
C2716 C 0.53627 0.04865 0.12933 0.0
C2717 C 0.54559 1.00978 0.11425 0.0
C2718 C 0.5473 0.04343 0.15068 0.0
C2719 C 0.55856 1.02206 0.15328 0.0
H2720 H 0.05351 0.34664 0.63613 0.0
H2721 H 0.0573 0.34257 0.7126 0.0
H2722 H 1.02921 0.31011 0.71386 0.0
H2723 H 1.01637 0.27473 0.69182 0.0
H2724 H 1.02035 0.27549 0.61468 0.0
H2725 H 1.03298 0.31646 0.61456 0.0
C2726 C 0.04698 0.3395 0.65313 0.0
C2727 C 0.05844 0.34551 0.67398 0.0
C2728 C 1.03334 0.31901 0.65322 0.0
C2729 C 0.04931 0.33737 0.69612 0.0
C2730 C 1.03382 0.31825 0.69676 0.0
C2731 C 1.01941 0.28422 0.67511 0.0
C2732 C 1.01742 0.27245 0.6533 0.0
C2733 C 1.02783 0.30746 0.67523 0.0
C2734 C 1.02165 0.2845 0.63162 0.0
C2735 C 1.0288 0.30789 0.63156 0.0
H2736 H 0.6506 0.97295 0.03379 0.0
H2737 H 0.6927 1.00861 0.08522 0.0
H2738 H 0.70794 0.03513 0.0545 0.0
H2739 H 0.70324 0.05337 1.01565 0.0
H2740 H 0.65697 1.02213 0.9657 0.0
H2741 H 0.65028 0.98831 0.99238 0.0
C2742 C 0.66334 0.98632 0.03811 0.0
C2743 C 0.67023 0.98894 0.06183 0.0
C2744 C 0.67146 1.00231 0.02042 0.0
C2745 C 0.68693 1.00623 0.06715 0.0
C2746 C 0.69575 1.02147 0.04956 0.0
C2747 C 0.69263 0.03856 1.01019 0.0
C2748 C 0.68058 0.04 0.98902 0.0
C2749 C 0.68739 1.02034 0.02643 0.0
C2750 C 0.66645 1.02111 0.98207 0.0
C2751 C 0.66232 1.00204 0.99748 0.0
H2752 H 0.2581 0.92595 0.77886 0.0
H2753 H 0.27309 0.8528 0.76977 0.0
H2754 H 0.2927 0.86149 0.73156 0.0
H2755 H 0.31689 0.89095 0.71049 0.0
H2756 H 0.30585 0.9641 0.72275 0.0
H2757 H 0.27235 0.95456 0.74862 0.0
C2758 C 0.26496 0.9118 0.76812 0.0
C2759 C 0.26539 0.889 0.77766 0.0
C2760 C 0.27701 0.91707 0.74661 0.0
C2761 C 0.2735 0.8707 0.76323 0.0
C2762 C 0.28465 0.87563 0.74131 0.0
C2763 C 0.30615 0.90473 0.71762 0.0
C2764 C 0.31417 0.928 0.71591 0.0
C2765 C 0.28831 0.89896 0.73408 0.0
C2766 C 0.30012 0.94596 0.72442 0.0
C2767 C 0.28129 0.94046 0.7397 0.0
H2768 H 0.67814 0.232 0.28703 0.0
H2769 H 0.61548 0.25539 0.32122 0.0
H2770 H 0.61756 0.29122 0.29671 0.0
H2771 H 0.6326 0.31099 0.25973 0.0
H2772 H 0.69381 0.28535 0.22391 0.0
H2773 H 0.69685 0.25531 0.25478 0.0
C2774 C 0.66538 0.24538 0.28972 0.0
C2775 C 0.6465 0.24093 0.30564 0.0
C2776 C 0.66602 0.26513 0.27463 0.0
C2777 C 0.6302 0.25841 0.30915 0.0
C2778 C 0.63118 0.27869 0.29478 0.0
C2779 C 0.6468 0.29903 0.25878 0.0
C2780 C 0.66258 0.30005 0.23899 0.0
C2781 C 0.64822 0.28145 0.27644 0.0
C2782 C 0.68118 0.28478 0.23856 0.0
C2783 C 0.68294 0.26757 0.25626 0.0
H2784 H 0.26596 0.41189 0.51635 0.0
H2785 H 0.27487 0.33742 0.50831 0.0
H2786 H 0.2897 0.33497 0.54839 0.0
H2787 H 0.30632 0.35478 0.58246 0.0
H2788 H 0.30382 0.42971 0.58732 0.0
H2789 H 0.27816 0.43098 0.55363 0.0
C2790 C 0.27118 0.39516 0.52337 0.0
C2791 C 0.26995 0.37505 0.509 0.0
C2792 C 0.28009 0.39384 0.54645 0.0
C2793 C 0.27622 0.35336 0.51865 0.0
C2794 C 0.28446 0.35183 0.54174 0.0
C2795 C 0.29904 0.37122 0.57694 0.0
C2796 C 0.30732 0.39213 0.58691 0.0
C2797 C 0.28714 0.37205 0.5555 0.0
C2798 C 0.29761 0.41332 0.57994 0.0
C2799 C 0.28372 0.41414 0.55998 0.0
H2800 H 0.40658 0.87327 0.75304 0.0
H2801 H 0.47752 0.86095 0.73285 0.0
H2802 H 0.47317 0.8205 0.74651 0.0
H2803 H 0.45056 0.78958 0.76744 0.0
H2804 H 0.37972 0.80091 0.78805 0.0
H2805 H 0.38254 0.84046 0.77051 0.0
C2806 C 0.42108 0.86172 0.75155 0.0
C2807 C 0.44252 0.87048 0.74226 0.0
C2808 C 0.41845 0.83819 0.75942 0.0
C2809 C 0.46092 0.855 0.74013 0.0
C2810 C 0.45844 0.83175 0.74791 0.0
C2811 C 0.43556 0.80052 0.76771 0.0
C2812 C 0.41496 0.79226 0.77915 0.0
C2813 C 0.43746 0.8233 0.75802 0.0
C2814 C 0.3957 0.80666 0.77918 0.0
C2815 C 0.39742 0.82942 0.7694 0.0
H2816 H 0.7488 0.15298 0.99997 0.0
H2817 H 0.70239 0.13533 0.05932 0.0
H2818 H 0.73488 0.12991 0.08519 0.0
H2819 H 0.77567 0.1366 0.09252 0.0
H2820 H 0.82264 0.15564 0.03442 0.0
H2821 H 0.79094 0.1541 1.0064 0.0
C2822 C 0.74587 0.1472 1.01833 0.0
C2823 C 0.72313 0.1446 0.02766 0.0
C2824 C 0.76478 0.14463 0.03339 0.0
C2825 C 0.71966 0.13758 0.05169 0.0
C2826 C 0.73825 0.13453 0.06654 0.0
C2827 C 0.77926 0.13903 0.07358 0.0
C2828 C 0.80169 0.14521 0.06547 0.0
C2829 C 0.76082 0.13878 0.05783 0.0
C2830 C 0.80565 0.15007 0.04098 0.0
C2831 C 0.78745 0.14948 0.02502 0.0
H2832 H 0.69962 0.15432 0.29549 0.0
H2833 H 0.70851 0.08026 0.28545 0.0
H2834 H 0.74709 0.08773 0.26821 0.0
H2835 H 0.77782 0.1157 0.25297 0.0
H2836 H 0.769 0.1896 0.26449 0.0
H2837 H 0.73173 0.18175 0.28428 0.0
C2838 C 0.71 0.13978 0.28965 0.0
C2839 C 0.70075 0.11674 0.29164 0.0
C2840 C 0.73257 0.14417 0.27998 0.0
C2841 C 0.71488 0.09821 0.28418 0.0
C2842 C 0.7371 0.10247 0.27425 0.0
C2843 C 0.76806 0.13003 0.26037 0.0
C2844 C 0.7765 0.15329 0.25703 0.0
C2845 C 0.74614 0.12542 0.27173 0.0
C2846 C 0.76316 0.17153 0.26659 0.0
C2847 C 0.74163 0.16708 0.27787 0.0
H2848 H 0.4575 0.4667 0.52856 0.0
H2849 H 0.38572 0.44836 0.52291 0.0
H2850 H 0.38001 0.48431 0.49952 0.0
H2851 H 0.3962 0.52069 0.47829 0.0
H2852 H 0.46754 0.53965 0.48839 0.0
H2853 H 0.47229 0.50452 0.51209 0.0
C2854 C 0.44047 0.47065 0.52257 0.0
C2855 C 0.42211 0.45443 0.5277 0.0
C2856 C 0.4372 0.49176 0.50949 0.0
C2857 C 0.40023 0.46029 0.51961 0.0
C2858 C 0.397 0.48093 0.50598 0.0
C2859 C 0.41276 0.5173 0.4858 0.0
C2860 C 0.43155 0.53327 0.48077 0.0
C2861 C 0.41544 0.49679 0.50041 0.0
C2862 C 0.45267 0.52812 0.49127 0.0
C2863 C 0.45551 0.50778 0.50503 0.0
H2864 H 0.33843 0.77226 0.91756 0.0
H2865 H 0.35226 0.79398 0.84453 0.0
H2866 H 0.31774 0.81806 0.84593 0.0
H2867 H 0.2851 0.83516 0.86894 0.0
H2868 H 0.27113 0.8129 0.94201 0.0
H2869 H 0.30387 0.7868 0.9395 0.0
C2870 C 0.33361 0.78194 0.90181 0.0
C2871 C 0.34784 0.78113 0.88084 0.0
C2872 C 0.31373 0.79584 0.90284 0.0
C2873 C 0.34152 0.79401 0.86071 0.0
C2874 C 0.32183 0.80792 0.86162 0.0
C2875 C 0.28898 0.82444 0.88431 0.0
C2876 C 0.27544 0.82633 0.90577 0.0
C2877 C 0.30799 0.80931 0.88273 0.0
C2878 C 0.28098 0.81204 0.92529 0.0
C2879 C 0.29985 0.79708 0.92387 0.0
H2880 H 0.757 0.05628 0.10781 0.0
H2881 H 0.76362 1.01337 0.1709 0.0
H2882 H 0.78537 0.04506 0.18997 0.0
H2883 H 0.8003 0.08639 0.1897 0.0
H2884 H 0.79385 0.12849 0.12647 0.0
H2885 H 0.77413 0.09579 0.10637 0.0
C2886 C 0.76336 0.05369 0.12566 0.0
C2887 C 0.75843 0.03245 0.13794 0.0
C2888 C 0.77567 0.07205 0.13657 0.0
C2889 C 0.7671 0.02947 0.16097 0.0
C2890 C 0.77943 0.04769 0.17198 0.0
C2891 C 0.79458 0.08825 0.1715 0.0
C2892 C 0.79812 0.10979 0.1594 0.0
C2893 C 0.78341 0.06926 0.16015 0.0
C2894 C 0.79097 0.11205 0.13586 0.0
C2895 C 0.7798 0.09342 0.1245 0.0
H2896 H 0.83315 0.74527 0.63445 0.0
H2897 H 0.79672 0.69873 0.68447 0.0
H2898 H 0.77423 0.73088 0.69972 0.0
H2899 H 0.76075 0.77079 0.6945 0.0
H2900 H 0.79691 0.8175 0.64488 0.0
H2901 H 0.82452 0.78726 0.63495 0.0
C2902 C 0.82054 0.74229 0.64891 0.0
C2903 C 0.81648 0.71963 0.65801 0.0
C2904 C 0.80784 0.761 0.65805 0.0
C2905 C 0.80013 0.71601 0.6769 0.0
C2906 C 0.78728 0.73441 0.68582 0.0
C2907 C 0.77536 0.77462 0.68247 0.0
C2908 C 0.77678 0.79598 0.67019 0.0
C2909 C 0.79053 0.75685 0.67609 0.0
C2910 C 0.79559 0.80092 0.65442 0.0
C2911 C 0.8111 0.78354 0.64842 0.0
H2912 H 0.33661 1.00761 0.87327 0.0
H2913 H 0.28884 1.02131 0.93174 0.0
H2914 H 0.26953 0.98344 0.92566 0.0
H2915 H 0.26855 0.94561 0.90644 0.0
H2916 H 0.31664 0.9304 0.84845 0.0
H2917 H 0.33413 0.96964 0.85215 0.0
C2918 C 0.32152 1.00251 0.88412 0.0
C2919 C 0.31383 1.01716 0.90271 0.0
C2920 C 0.31125 0.98024 0.88125 0.0
C2921 C 0.29471 1.01031 0.91713 0.0
C2922 C 0.28395 0.98859 0.91389 0.0
C2923 C 0.28296 0.95067 0.8946 0.0
C2924 C 0.29141 0.93491 0.87733 0.0
C2925 C 0.29257 0.97318 0.89654 0.0
C2926 C 0.31002 0.94201 0.86216 0.0
C2927 C 0.31987 0.96452 0.8641 0.0
H2928 H 0.45262 0.97298 0.03488 0.0
H2929 H 0.3868 0.94238 1.01795 0.0
H2930 H 0.38092 0.97431 0.9891 0.0
H2931 H 0.39601 1.01032 0.96616 0.0
H2932 H 0.46173 0.04015 0.98564 0.0
H2933 H 0.46572 1.00974 1.01546 0.0
C2934 C 0.43678 0.9733 0.02515 0.0
C2935 C 0.42025 0.95488 0.02888 0.0
C2936 C 0.43348 0.99184 1.00856 0.0
C2937 C 0.39987 0.95611 1.01588 0.0
C2938 C 0.39657 0.97444 0.99913 0.0
C2939 C 0.41105 1.01042 0.97713 0.0
C2940 C 0.42863 1.02796 0.97293 0.0
C2941 C 0.41344 0.99237 0.99492 0.0
C2942 C 0.4479 1.02721 0.98773 0.0
C2943 C 0.4503 1.00961 1.00503 0.0
H2944 H 0.73516 0.64595 0.52743 0.0
H2945 H 0.74578 0.71982 0.51306 0.0
H2946 H 0.78422 0.7185 0.52867 0.0
H2947 H 0.813 0.6981 0.55015 0.0
H2948 H 0.80198 0.62582 0.57079 0.0
H2949 H 0.7662 0.62438 0.5483 0.0
C2950 C 0.74603 0.66162 0.5277 0.0
C2951 C 0.73752 0.68306 0.51945 0.0
C2952 C 0.76815 0.66096 0.53765 0.0
C2953 C 0.75176 0.70325 0.51977 0.0
C2954 C 0.77383 0.70249 0.52851 0.0
C2955 C 0.80305 0.68181 0.5494 0.0
C2956 C 0.81013 0.66215 0.56223 0.0
C2957 C 0.78196 0.68166 0.53801 0.0
C2958 C 0.79709 0.64117 0.56086 0.0
C2959 C 0.7764 0.6405 0.54834 0.0
H2960 H 0.31706 0.85949 0.07761 0.0
H2961 H 0.29753 0.93124 0.08726 0.0
H2962 H 0.2753 0.92944 0.05101 0.0
H2963 H 0.26919 0.91028 1.01233 0.0
H2964 H 0.28486 0.83724 1.00434 0.0
H2965 H 0.30225 0.8372 0.0435 0.0
C2966 C 0.30687 0.87431 0.07259 0.0
C2967 C 0.30947 0.89569 0.08472 0.0
C2968 C 0.29462 0.87335 0.05126 0.0
C2969 C 0.29598 0.91464 0.07805 0.0
C2970 C 0.28372 0.91381 0.05697 0.0
C2971 C 0.27549 0.89409 1.01948 0.0
C2972 C 0.27539 0.87381 1.00538 0.0
C2973 C 0.2842 0.89374 0.04266 0.0
C2974 C 0.28465 0.85321 1.01471 0.0
C2975 C 0.29441 0.85306 0.03727 0.0
H2976 H 0.64867 0.55024 0.50682 0.0
H2977 H 0.71906 0.5676 0.52298 0.0
H2978 H 0.72172 0.5304 0.54496 0.0
H2979 H 0.70173 0.49621 0.56398 0.0
H2980 H 0.63168 0.4791 0.54604 0.0
H2981 H 0.63138 0.51291 0.5192 0.0
C2982 C 0.66483 0.54568 0.51463 0.0
C2983 C 0.68357 0.56162 0.51372 0.0
C2984 C 0.66622 0.52443 0.52666 0.0
C2985 C 0.70442 0.55552 0.52369 0.0
C2986 C 0.70589 0.53436 0.53621 0.0
C2987 C 0.68663 0.49965 0.55368 0.0
C2988 C 0.66654 0.48576 0.55724 0.0
C2989 C 0.68659 0.51913 0.53847 0.0
C2990 C 0.64722 0.48979 0.5436 0.0
C2991 C 0.64701 0.50916 0.52843 0.0
H2992 H 0.7813 0.28649 0.18731 0.0
H2993 H 0.80021 0.31583 0.1181 0.0
H2994 H 0.82458 0.28248 0.10932 0.0
H2995 H 0.83316 0.24119 0.11787 0.0
H2996 H 0.81139 0.2113 0.18631 0.0
H2997 H 0.79548 0.24831 0.19863 0.0
C2998 C 0.79155 0.28605 0.17076 0.0
C2999 C 0.78876 0.30327 0.15325 0.0
C3000 C 0.80431 0.26617 0.16524 0.0
C3001 C 0.80202 0.30254 0.13179 0.0
C3002 C 0.81566 0.28331 0.12661 0.0
C3003 C 0.82515 0.24289 0.13554 0.0
C3004 C 0.82288 0.22329 0.15077 0.0
C3005 C 0.81566 0.2643 0.14255 0.0
C3006 C 0.81291 0.22591 0.17388 0.0
C3007 C 0.80389 0.24716 0.1811 0.0
H3008 H 0.29355 0.34483 0.3756 0.0
H3009 H 0.26261 0.31365 0.4398 0.0
H3010 H 0.29186 0.28396 0.43947 0.0
H3011 H 0.32753 0.26766 0.42302 0.0
H3012 H 0.35955 0.29696 0.35875 0.0
H3013 H 0.32872 0.32585 0.35688 0.0
C3014 C 0.29306 0.33146 0.38945 0.0
C3015 C 0.2755 0.33202 0.40789 0.0
C3016 C 0.3103 0.31387 0.38918 0.0
C3017 C 0.27554 0.31418 0.42543 0.0
C3018 C 0.29243 0.297 0.42529 0.0
C3019 C 0.3278 0.28019 0.40834 0.0
C3020 C 0.34625 0.27991 0.39108 0.0
C3021 C 0.31007 0.29682 0.40753 0.0
C3022 C 0.34576 0.29634 0.37221 0.0
C3023 C 0.32811 0.3131 0.37132 0.0
H3024 H 0.25952 0.40713 0.27716 0.0
H3025 H 0.26332 0.47736 0.30442 0.0
H3026 H 0.29149 0.48841 0.27269 0.0
H3027 H 0.32309 0.47376 0.24711 0.0
H3028 H 0.32112 0.40197 0.22379 0.0
H3029 H 0.28303 0.39612 0.24256 0.0
C3030 C 0.26529 0.42523 0.27511 0.0
C3031 C 0.25946 0.44148 0.29279 0.0
C3032 C 0.28206 0.431 0.25757 0.0
C3033 C 0.26759 0.46471 0.29068 0.0
C3034 C 0.28385 0.47091 0.27273 0.0
C3035 C 0.31371 0.45726 0.24512 0.0
C3036 C 0.32488 0.43805 0.23494 0.0
C3037 C 0.29256 0.45362 0.25741 0.0
C3038 C 0.31279 0.41677 0.23211 0.0
C3039 C 0.29116 0.41338 0.24303 0.0
H3040 H 0.61388 0.72535 0.76662 0.0
H3041 H 0.66857 0.75777 0.80565 0.0
H3042 H 0.67499 0.78698 0.77349 0.0
H3043 H 0.66686 0.80113 0.7324 0.0
H3044 H 0.61361 0.76596 0.69303 0.0
H3045 H 0.60566 0.73929 0.72651 0.0
C3046 C 0.6266 0.7394 0.76846 0.0
C3047 C 0.64012 0.74004 0.78883 0.0
C3048 C 0.63122 0.75491 0.74923 0.0
C3049 C 0.65737 0.75754 0.79051 0.0
C3050 C 0.66138 0.77385 0.77187 0.0
C3051 C 0.65382 0.78736 0.73105 0.0
C3052 C 0.64095 0.78551 0.71012 0.0
C3053 C 0.64889 0.77223 0.75075 0.0
C3054 C 0.62385 0.76776 0.70884 0.0
C3055 C 0.61906 0.75264 0.7281 0.0
H3056 H 0.41285 0.37871 0.25866 0.0
H3057 H 0.47912 0.35861 0.2295 0.0
H3058 H 0.47121 0.31827 0.2418 0.0
H3059 H 0.44783 0.28969 0.26486 0.0
H3060 H 0.38231 0.30898 0.29586 0.0
H3061 H 0.38719 0.34836 0.27819 0.0
C3062 C 0.4255 0.36548 0.25489 0.0
C3063 C 0.4468 0.37192 0.2436 0.0
C3064 C 0.42092 0.3421 0.26222 0.0
C3065 C 0.4628 0.35439 0.23854 0.0
C3066 C 0.45825 0.33121 0.24547 0.0
C3067 C 0.43435 0.30236 0.2673 0.0
C3068 C 0.41482 0.29654 0.28177 0.0
C3069 C 0.43769 0.32502 0.25787 0.0
C3070 C 0.39741 0.31299 0.28462 0.0
C3071 C 0.40039 0.33561 0.27481 0.0
H3072 H 0.71547 0.59542 0.78858 0.0
H3073 H 0.68702 0.66457 0.78696 0.0
H3074 H 0.72394 0.68093 0.77274 0.0
H3075 H 0.76325 0.6757 0.75775 0.0
H3076 H 0.79234 0.60693 0.75708 0.0
H3077 H 0.75663 0.59059 0.7757 0.0
C3078 C 0.71738 0.61409 0.78525 0.0
C3079 C 0.69813 0.62862 0.78862 0.0
C3080 C 0.73889 0.62354 0.77671 0.0
C3081 C 0.7012 0.65281 0.78432 0.0
C3082 C 0.72243 0.66226 0.77621 0.0
C3083 C 0.76204 0.65713 0.76191 0.0
C3084 C 0.78065 0.64262 0.75578 0.0
C3085 C 0.74125 0.64779 0.77191 0.0
C3086 C 0.77852 0.61864 0.76161 0.0
C3087 C 0.75793 0.60924 0.77207 0.0
H3088 H 0.77873 0.54456 0.60362 0.0
H3089 H 0.75751 0.51517 0.67232 0.0
H3090 H 0.77422 0.54904 0.69249 0.0
H3091 H 0.79287 0.58842 0.69064 0.0
H3092 H 0.81697 0.61642 0.62245 0.0
H3093 H 0.8011 0.58199 0.60208 0.0
C3094 C 0.77808 0.5454 0.62302 0.0
C3095 C 0.76676 0.52729 0.63637 0.0
C3096 C 0.78799 0.56492 0.63461 0.0
C3097 C 0.76621 0.52868 0.66153 0.0
C3098 C 0.77561 0.5482 0.67312 0.0
C3099 C 0.79464 0.58688 0.67133 0.0
C3100 C 0.80571 0.60504 0.65797 0.0
C3101 C 0.78615 0.56664 0.65985 0.0
C3102 C 0.80838 0.60269 0.63303 0.0
C3103 C 0.79932 0.583 0.62141 0.0
H3104 H 0.33933 0.50704 0.41511 0.0
H3105 H 0.30411 0.55375 0.36854 0.0
H3106 H 0.27169 0.5257 0.36704 0.0
H3107 H 0.25564 0.48668 0.37587 0.0
H3108 H 0.29286 0.43834 0.41916 0.0
H3109 H 0.32253 0.46864 0.42532 0.0
C3110 C 0.32458 0.51117 0.40458 0.0
C3111 C 0.32403 0.53251 0.39183 0.0
C3112 C 0.30658 0.49467 0.40325 0.0
C3113 C 0.30468 0.53767 0.37869 0.0
C3114 C 0.28632 0.52153 0.37772 0.0
C3115 C 0.27012 0.48272 0.38686 0.0
C3116 C 0.27225 0.46013 0.39678 0.0
C3117 C 0.28738 0.49982 0.38953 0.0
C3118 C 0.29094 0.4555 0.41122 0.0
C3119 C 0.30791 0.47276 0.41462 0.0
H3120 H 0.13177 0.98947 0.42744 0.0
H3121 H 0.18329 0.99126 0.37 0.0
H3122 H 0.19489 0.03104 0.38144 0.0
H3123 H 0.19147 0.06387 0.40927 0.0
H3124 H 0.13972 0.06055 0.46658 0.0
H3125 H 0.12753 1.02184 0.4539 0.0
C3126 C 0.14538 0.99852 0.41713 0.0
C3127 C 0.15682 0.98753 0.39808 0.0
C3128 C 0.15223 1.02068 0.42412 0.0
C3129 C 0.17433 0.99952 0.38487 0.0
C3130 C 0.18105 1.02208 0.39148 0.0
C3131 C 0.17761 0.05458 0.41901 0.0
C3132 C 0.16671 0.06475 0.43894 0.0
C3133 C 0.1704 0.03255 0.41141 0.0
C3134 C 0.14867 0.05279 0.45141 0.0
C3135 C 0.1415 0.03083 0.44406 0.0
H3136 H 0.1107 0.44269 0.69439 0.0
H3137 H 0.0919 0.41652 0.62524 0.0
H3138 H 0.05641 0.43842 0.62764 0.0
H3139 H 1.02586 0.45042 0.65556 0.0
H3140 H 1.04122 0.465 0.72904 0.0
H3141 H 0.08241 0.46189 0.71962 0.0
C3142 C 0.09911 0.44241 0.67951 0.0
C3143 C 0.10289 0.42688 0.66045 0.0
C3144 C 0.07753 0.45216 0.68258 0.0
C3145 C 0.08879 0.42769 0.64056 0.0
C3146 C 0.06831 0.43988 0.64215 0.0
C3147 C 1.03838 0.45376 0.66923 0.0
C3148 C 1.03096 0.45722 0.69303 0.0
C3149 C 0.06157 0.44989 0.66409 0.0
C3150 C 0.04692 0.46163 0.71077 0.0
C3151 C 0.07033 0.45996 0.70532 0.0
H3152 H 0.71289 0.34706 0.94671 0.0
H3153 H 0.6516 0.34242 0.90621 0.0
H3154 H 0.64242 0.3036 0.92461 0.0
H3155 H 0.65564 0.26995 0.94914 0.0
H3156 H 0.71693 0.27872 0.99027 0.0
H3157 H 0.72159 0.31895 0.97637 0.0
C3158 C 0.69697 0.33828 0.94287 0.0
C3159 C 0.68291 0.34739 0.92565 0.0
C3160 C 0.69175 0.31726 0.95402 0.0
C3161 C 0.66273 0.33534 0.9195 0.0
C3162 C 0.6575 0.31342 0.93011 0.0
C3163 C 0.66941 0.28111 0.95567 0.0
C3164 C 0.68626 0.27174 0.9702 0.0
C3165 C 0.6723 0.30404 0.94705 0.0
C3166 C 0.70411 0.28585 0.97877 0.0
C3167 C 0.70682 0.30864 0.97076 0.0
H3168 H 0.79692 0.93155 0.09706 0.0
H3169 H 0.79659 1.00676 0.10021 0.0
H3170 H 0.83755 1.00792 0.10859 0.0
H3171 H 0.86568 0.98711 0.13144 0.0
H3172 H 0.86144 0.91172 0.13684 0.0
H3173 H 0.83121 0.91061 0.10768 0.0
C3174 C 0.80634 0.94813 0.09819 0.0
C3175 C 0.79421 0.96894 0.09902 0.0
C3176 C 0.82908 0.94839 0.10527 0.0
C3177 C 0.80595 0.99056 0.09995 0.0
C3178 C 0.82924 0.99114 0.1051 0.0
C3179 C 0.85866 0.9704 0.12557 0.0
C3180 C 0.8643 0.94967 0.1374 0.0
C3181 C 0.84 0.97011 0.11051 0.0
C3182 C 0.85637 0.92801 0.12875 0.0
C3183 C 0.83902 0.92738 0.11215 0.0
H3184 H 0.12249 0.20014 0.9181 0.0
H3185 H 0.18435 0.21255 0.87536 0.0
H3186 H 0.18898 0.25129 0.89255 0.0
H3187 H 0.1643 0.28456 0.90066 0.0
H3188 H 0.09778 0.27338 0.93527 0.0
H3189 H 0.10566 0.23198 0.94092 0.0
C3190 C 0.1376 0.211 0.91364 0.0
C3191 C 0.15176 0.20507 0.89401 0.0
C3192 C 0.13849 0.23409 0.92148 0.0
C3193 C 0.17237 0.21775 0.88946 0.0
C3194 C 0.17483 0.24006 0.89907 0.0
C3195 C 0.15209 0.27311 0.91042 0.0
C3196 C 0.13009 0.28101 0.91621 0.0
C3197 C 0.1562 0.24929 0.91208 0.0
C3198 C 0.11453 0.26698 0.92987 0.0
C3199 C 0.11905 0.24337 0.93306 0.0
H3200 H 0.83195 0.44301 0.13171 0.0
H3201 H 0.86205 0.41446 0.19439 0.0
H3202 H 0.82429 0.40039 0.20923 0.0
H3203 H 0.78721 0.38381 0.19647 0.0
H3204 H 0.76082 0.40392 0.12828 0.0
H3205 H 0.7925 0.43268 0.12254 0.0
C3206 C 0.82999 0.43465 0.14918 0.0
C3207 C 0.84957 0.4273 0.16082 0.0
C3208 C 0.80916 0.42325 0.15525 0.0
C3209 C 0.84703 0.41877 0.18439 0.0
C3210 C 0.8256 0.40995 0.19241 0.0
C3211 C 0.78866 0.39438 0.18027 0.0
C3212 C 0.77276 0.39119 0.16219 0.0
C3213 C 0.80735 0.40977 0.17659 0.0
C3214 C 0.77387 0.4054 0.14168 0.0
C3215 C 0.79164 0.42199 0.13862 0.0
H3216 H 0.65184 1.02148 0.38059 0.0
H3217 H 0.63223 1.00511 0.30866 0.0
H3218 H 0.64529 0.96503 0.31359 0.0
H3219 H 0.66554 0.93645 0.33642 0.0
H3220 H 0.69079 0.95367 0.40625 0.0
H3221 H 0.67163 0.9915 0.40447 0.0
C3222 C 0.65 1.00888 0.36628 0.0
C3223 C 0.64082 1.01594 0.34438 0.0
C3224 C 0.65863 0.98619 0.36888 0.0
C3225 C 0.63905 0.99986 0.32566 0.0
C3226 C 0.64657 0.97704 0.32848 0.0
C3227 C 0.6668 0.94827 0.3515 0.0
C3228 C 0.67986 0.94221 0.3714 0.0
C3229 C 0.65689 0.97026 0.34976 0.0
C3230 C 0.68088 0.95779 0.39074 0.0
C3231 C 0.67008 0.97951 0.38961 0.0
H3232 H 1.02201 0.91062 0.53878 0.0
H3233 H 1.01214 0.84425 0.57511 0.0
H3234 H 0.05291 0.84357 0.58374 0.0
H3235 H 0.08657 0.86845 0.59258 0.0
H3236 H 0.09503 0.93586 0.55754 0.0
H3237 H 0.05961 0.92949 0.53665 0.0
C3238 C 1.02899 0.89537 0.54732 0.0
C3239 C 1.01426 0.87832 0.5577 0.0
C3240 C 0.05196 0.89584 0.55345 0.0
C3241 C 1.02337 0.8582 0.56804 0.0
C3242 C 0.04657 0.85792 0.57324 0.0
C3243 C 0.08073 0.88157 0.58018 0.0
C3244 C 0.09236 0.90317 0.57783 0.0
C3245 C 0.0603 0.87786 0.56821 0.0
C3246 C 0.08554 0.91956 0.56068 0.0
C3247 C 0.06548 0.91584 0.54841 0.0
H3248 H 0.42231 0.12307 0.06778 0.0
H3249 H 0.47455 0.17584 0.05006 0.0
H3250 H 0.46428 0.17385 1.00797 0.0
H3251 H 0.44523 0.15249 0.9757 0.0
H3252 H 0.39533 0.09744 0.99305 0.0
H3253 H 0.39951 0.10541 0.03578 0.0
C3254 C 0.43123 0.13454 0.05486 0.0
C3255 C 0.44953 0.14939 0.06227 0.0
C3256 C 0.42571 0.13274 0.0305 0.0
C3257 C 0.46052 0.16423 0.04511 0.0
C3258 C 0.45473 0.16295 0.02092 0.0
C3259 C 0.43478 0.14257 0.98878 0.0
C3260 C 0.4201 0.12415 0.981 0.0
C3261 C 0.43804 0.14659 1.01332 0.0
C3262 C 0.40661 0.11174 0.99831 0.0
C3263 C 0.40927 0.11612 0.02282 0.0
H3264 H 0.93989 0.72236 0.18 0.0
H3265 H 0.94362 0.6472 0.18365 0.0
H3266 H 0.92145 0.64689 0.22167 0.0
H3267 H 0.90954 0.66897 0.25745 0.0
H3268 H 0.91036 0.74446 0.25482 0.0
H3269 H 0.92192 0.7439 0.2126 0.0
C3270 C 0.93545 0.70593 0.18896 0.0
C3271 C 0.94383 0.68498 0.17977 0.0
C3272 C 0.92376 0.70607 0.21104 0.0
C3273 C 0.93746 0.66358 0.1908 0.0
C3274 C 0.92498 0.66344 0.21254 0.0
C3275 C 0.91152 0.68521 0.24736 0.0
C3276 C 0.90972 0.70676 0.25911 0.0
C3277 C 0.91927 0.68471 0.22344 0.0
C3278 C 0.91222 0.72775 0.24609 0.0
C3279 C 0.91882 0.72742 0.22201 0.0
H3280 H 0.38462 0.14582 0.4745 0.0
H3281 H 0.44836 0.18531 0.47943 0.0
H3282 H 0.45069 0.17428 0.52152 0.0
H3283 H 0.42774 0.16585 0.55827 0.0
H3284 H 0.36017 0.13407 0.55339 0.0
H3285 H 0.3656 0.12996 0.5103 0.0
C3286 C 0.39939 0.15135 0.48465 0.0
C3287 C 0.41553 0.16741 0.47464 0.0
C3288 C 0.39926 0.14713 0.50917 0.0
C3289 C 0.43528 0.17353 0.48722 0.0
C3290 C 0.43643 0.16753 0.51136 0.0
C3291 C 0.41456 0.15746 0.5477 0.0
C3292 C 0.39324 0.15121 0.55839 0.0
C3293 C 0.4174 0.15638 0.52287 0.0
C3294 C 0.37626 0.13999 0.54509 0.0
C3295 C 0.3795 0.13738 0.52054 0.0
H3296 H 0.89591 0.65563 0.78493 0.0
H3297 H 0.82386 0.66762 0.79816 0.0
H3298 H 0.82829 0.66044 0.84105 0.0
H3299 H 0.85058 0.64096 0.87164 0.0
H3300 H 0.92208 0.62661 0.85762 0.0
H3301 H 0.92044 0.6454 0.81825 0.0
C3302 C 0.88148 0.6576 0.79748 0.0
C3303 C 0.8596 0.66182 0.78884 0.0
C3304 C 0.88412 0.65284 0.82177 0.0
C3305 C 0.84083 0.66443 0.80478 0.0
C3306 C 0.84335 0.66012 0.82916 0.0
C3307 C 0.86599 0.64293 0.86028 0.0
C3308 C 0.88629 0.63226 0.867 0.0
C3309 C 0.86459 0.65288 0.8375 0.0
C3310 C 0.90632 0.63481 0.85257 0.0
C3311 C 0.90527 0.64525 0.83001 0.0
H3312 H 0.44738 0.22189 0.18067 0.0
H3313 H 0.44898 0.1467 0.18556 0.0
H3314 H 0.42806 0.14791 0.22441 0.0
H3315 H 0.41583 0.17113 0.25971 0.0
H3316 H 0.41912 0.24661 0.25552 0.0
H3317 H 0.43176 0.24471 0.21357 0.0
C3318 C 0.44292 0.20576 0.19009 0.0
C3319 C 0.45009 0.18434 0.18065 0.0
C3320 C 0.43207 0.20677 0.21266 0.0
C3321 C 0.44364 0.16342 0.1926 0.0
C3322 C 0.43193 0.16417 0.21488 0.0
C3323 C 0.41878 0.18711 0.24938 0.0
C3324 C 0.41676 0.20902 0.2606 0.0
C3325 C 0.42701 0.18584 0.22553 0.0
C3326 C 0.4208 0.22962 0.24723 0.0
C3327 C 0.42802 0.22852 0.2233 0.0
H3328 H 0.92458 0.69079 0.48484 0.0
H3329 H 0.89168 0.75551 0.50261 0.0
H3330 H 0.89296 0.74622 0.54519 0.0
H3331 H 0.89382 0.71563 0.57487 0.0
H3332 H 0.91814 0.64714 0.55617 0.0
H3333 H 0.93051 0.66172 0.51632 0.0
C3334 C 0.91846 0.70301 0.4983 0.0
C3335 C 0.90798 0.72355 0.49138 0.0
C3336 C 0.91731 0.69651 0.52227 0.0
C3337 C 0.89982 0.73961 0.50817 0.0
C3338 C 0.90041 0.73421 0.53231 0.0
C3339 C 0.90201 0.70399 0.56206 0.0
C3340 C 0.90414 0.68027 0.56741 0.0
C3341 C 0.90754 0.71203 0.53924 0.0
C3342 C 0.91583 0.66539 0.55166 0.0
C3343 C 0.92282 0.67369 0.52907 0.0
H3344 H 0.33709 0.15844 0.80013 0.0
H3345 H 0.40444 0.1507 0.7675 0.0
H3346 H 0.41985 0.13974 0.80603 0.0
H3347 H 0.4116 0.12284 0.84598 0.0
H3348 H 0.34391 0.12864 0.87825 0.0
H3349 H 0.33113 0.15018 0.84331 0.0
C3350 C 0.35533 0.15548 0.80185 0.0
C3351 C 0.36971 0.15534 0.78131 0.0
C3352 C 0.36382 0.14822 0.82389 0.0
C3353 C 0.39321 0.15102 0.78334 0.0
C3354 C 0.40196 0.1445 0.80528 0.0
C3355 C 0.39438 0.12974 0.84569 0.0
C3356 C 0.37842 0.1237 0.86404 0.0
C3357 C 0.3871 0.14161 0.82531 0.0
C3358 C 0.35615 0.13256 0.86373 0.0
C3359 C 0.34888 0.1449 0.84382 0.0
H3360 H 0.91875 0.62263 0.07004 0.0
H3361 H 0.96774 0.67893 0.05376 0.0
H3362 H 0.95701 0.67792 1.01182 0.0
H3363 H 0.93894 0.65662 0.97912 0.0
H3364 H 0.893 0.5977 0.99494 0.0
H3365 H 0.89685 0.60466 0.03781 0.0
C3366 C 0.92686 0.63503 0.05748 0.0
C3367 C 0.94444 0.65057 0.06513 0.0
C3368 C 0.92123 0.63376 0.03322 0.0
C3369 C 0.95435 0.66668 0.04851 0.0
C3370 C 0.94829 0.66601 0.02444 0.0
C3371 C 0.92932 0.64554 0.99188 0.0
C3372 C 0.916 0.62632 0.98368 0.0
C3373 C 0.93252 0.64894 1.01646 0.0
C3374 C 0.9034 0.61252 1.00059 0.0
C3375 C 0.90583 0.61636 0.02516 0.0
H3376 H 1.02193 0.35556 0.08761 0.0
H3377 H 1.03359 0.40704 0.03142 0.0
H3378 H 0.07465 0.40788 0.03907 0.0
H3379 H 0.10329 0.40314 0.06871 0.0
H3380 H 0.08772 0.36259 0.13282 0.0
H3381 H 0.0526 0.34702 0.11486 0.0
C3382 C 1.03366 0.36646 0.07665 0.0
C3383 C 1.02503 0.38185 0.05964 0.0
C3384 C 0.05649 0.36878 0.08294 0.0
C3385 C 1.04004 0.39545 0.04495 0.0
C3386 C 0.06338 0.39606 0.04949 0.0
C3387 C 0.09224 0.39076 0.07875 0.0
C3388 C 0.09696 0.38502 0.10251 0.0
C3389 C 0.07126 0.38425 0.06959 0.0
C3390 C 0.08371 0.3678 0.11478 0.0
C3391 C 0.0637 0.35907 0.10456 0.0
H3392 H 0.58571 0.3852 0.1268 0.0
H3393 H 0.62834 0.44477 0.14402 0.0
H3394 H 0.59433 0.46731 0.15451 0.0
H3395 H 0.55496 0.4644 0.17248 0.0
H3396 H 0.51623 0.39953 0.1663 0.0
H3397 H 0.54572 0.38401 0.13938 0.0
C3398 C 0.58736 0.40351 0.13173 0.0
C3399 C 0.60911 0.41298 0.13629 0.0
C3400 C 0.56828 0.41461 0.14164 0.0
C3401 C 0.61147 0.43696 0.14132 0.0
C3402 C 0.59208 0.44955 0.14809 0.0
C3403 C 0.55314 0.44697 0.16502 0.0
C3404 C 0.53418 0.4327 0.17178 0.0
C3405 C 0.57081 0.43764 0.15077 0.0
C3406 C 0.5313 0.41036 0.16183 0.0
C3407 C 0.54794 0.40163 0.14621 0.0
H3408 H 0.68975 0.83376 0.3646 0.0
H3409 H 0.63925 0.85796 0.41597 0.0
H3410 H 0.62765 0.81775 0.42576 0.0
H3411 H 0.64549 0.78008 0.43372 0.0
H3412 H 0.70375 0.75912 0.39005 0.0
H3413 H 0.69949 0.79288 0.36386 0.0
C3414 C 0.67555 0.83016 0.37726 0.0
C3415 C 0.66728 0.8482 0.3918 0.0
C3416 C 0.67153 0.80723 0.38522 0.0
C3417 C 0.64724 0.84392 0.40602 0.0
C3418 C 0.6409 0.82089 0.41197 0.0
C3419 C 0.65668 0.78258 0.41798 0.0
C3420 C 0.67564 0.76825 0.41436 0.0
C3421 C 0.65516 0.80286 0.40414 0.0
C3422 C 0.68973 0.77089 0.39365 0.0
C3423 C 0.68715 0.79 0.37857 0.0
H3424 H 0.30808 0.95589 0.58848 0.0
H3425 H 0.28329 0.89165 0.62175 0.0
H3426 H 0.32252 0.87908 0.62689 0.0
H3427 H 0.35853 0.89589 0.64003 0.0
H3428 H 0.38 0.96506 0.61654 0.0
H3429 H 0.34925 0.96565 0.58802 0.0
C3430 C 0.31149 0.93863 0.59559 0.0
C3431 C 0.29347 0.92514 0.60596 0.0
C3432 C 0.33399 0.9327 0.60064 0.0
C3433 C 0.2974 0.90256 0.61462 0.0
C3434 C 0.3198 0.89543 0.61757 0.0
C3435 C 0.35715 0.91051 0.62769 0.0
C3436 C 0.36969 0.93123 0.6316 0.0
C3437 C 0.33783 0.91177 0.61362 0.0
C3438 C 0.36923 0.94948 0.61468 0.0
C3439 C 0.35147 0.94991 0.59856 0.0
H3440 H 0.6955 0.4861 0.41439 0.0
H3441 H 0.63772 0.47621 0.46406 0.0
H3442 H 0.64018 0.51728 0.47511 0.0
H3443 H 0.65464 0.55659 0.4654 0.0
H3444 H 0.71384 0.56634 0.41762 0.0
H3445 H 0.71503 0.5242 0.41107 0.0
C3446 C 0.68375 0.49283 0.428 0.0
C3447 C 0.66555 0.47877 0.4373 0.0
C3448 C 0.68549 0.51624 0.43451 0.0
C3449 C 0.65114 0.48718 0.45576 0.0
C3450 C 0.65264 0.51057 0.46226 0.0
C3451 C 0.66832 0.54945 0.45429 0.0
C3452 C 0.68392 0.56436 0.44184 0.0
C3453 C 0.66906 0.52541 0.45087 0.0
C3454 C 0.70136 0.55505 0.42708 0.0
C3455 C 0.70214 0.53103 0.42342 0.0
H3456 H 0.27088 0.91481 0.18298 0.0
H3457 H 0.27903 0.84185 0.19981 0.0
H3458 H 0.31977 0.84879 0.20663 0.0
H3459 H 0.35304 0.87173 0.19266 0.0
H3460 H 0.3443 0.94068 0.16357 0.0
H3461 H 0.30489 0.94089 0.17951 0.0
C3462 C 0.28155 0.9007 0.18894 0.0
C3463 C 0.2727 0.87771 0.18971 0.0
C3464 C 0.30514 0.90458 0.19104 0.0
C3465 C 0.28608 0.85944 0.19789 0.0
C3466 C 0.30925 0.86351 0.20213 0.0
C3467 C 0.34268 0.88717 0.19079 0.0
C3468 C 0.35024 0.90504 0.17498 0.0
C3469 C 0.31923 0.88547 0.19644 0.0
C3470 C 0.33803 0.92594 0.17439 0.0
C3471 C 0.3153 0.92583 0.18303 0.0
H3472 H 0.939 0.04328 0.63567 0.0
H3473 H 0.98649 0.05183 0.5753 0.0
H3474 H 0.98383 1.0097 0.56772 0.0
H3475 H 0.96861 0.97007 0.57831 0.0
H3476 H 0.91804 0.96118 0.63581 0.0
H3477 H 0.9211 1.00349 0.6442 0.0
C3478 C 0.94881 0.03603 0.62079 0.0
C3479 C 0.96356 0.05119 0.60647 0.0
C3480 C 0.94656 1.01151 0.61599 0.0
C3481 C 0.97555 0.04101 0.58706 0.0
C3482 C 0.9739 1.01675 0.58263 0.0
C3483 C 0.95818 0.97724 0.59279 0.0
C3484 C 0.94332 0.96191 0.60667 0.0
C3485 C 0.95962 1.00176 0.59705 0.0
C3486 C 0.9297 0.9721 0.62488 0.0
C3487 C 0.93153 0.99644 0.62968 0.0
H3488 H 0.97414 0.65698 0.33507 0.0
H3489 H 0.982 0.71273 0.38603 0.0
H3490 H 1.02359 0.70594 0.38613 0.0
H3491 H 0.05956 0.68543 0.37022 0.0
H3492 H 0.05115 0.62744 0.32201 0.0
H3493 H 1.00941 0.63364 0.32274 0.0
C3494 C 0.98462 0.66747 0.34683 0.0
C3495 C 0.97338 0.68553 0.3609 0.0
C3496 C 1.0093 0.66299 0.34719 0.0
C3497 C 0.98868 0.69857 0.37529 0.0
C3498 C 1.01304 0.69469 0.37516 0.0
C3499 C 0.04877 0.67365 0.36009 0.0
C3500 C 0.05992 0.65543 0.34615 0.0
C3501 C 1.02386 0.67711 0.36102 0.0
C3502 C 0.04436 0.64116 0.3333 0.0
C3503 C 1.02 0.64495 0.3336 0.0
H3504 H 0.41678 0.73458 0.1236 0.0
H3505 H 0.36195 0.74237 0.17639 0.0
H3506 H 0.36187 0.78467 0.16748 0.0
H3507 H 0.37576 0.82032 0.14284 0.0
H3508 H 0.43259 0.8127 0.09241 0.0
H3509 H 0.43326 0.77064 0.10217 0.0
C3510 C 0.40489 0.74532 0.13371 0.0
C3511 C 0.38918 0.73387 0.15103 0.0
C3512 C 0.40515 0.77036 0.12855 0.0
C3513 C 0.3743 0.7494 0.16319 0.0
C3514 C 0.3742 0.77403 0.15786 0.0
C3515 C 0.38865 0.80972 0.13403 0.0
C3516 C 0.4043 0.82099 0.11655 0.0
C3517 C 0.38927 0.78489 0.14028 0.0
C3518 C 0.42047 0.80579 0.1059 0.0
C3519 C 0.42073 0.78126 0.11152 0.0
H3520 H 0.26691 0.11864 0.9095 0.0
H3521 H 0.28493 0.06456 0.85912 0.0
H3522 H 0.24684 0.06604 0.84246 0.0
H3523 H 0.20773 0.08164 0.84125 0.0
H3524 H 0.18755 0.13656 0.8894 0.0
H3525 H 0.22611 0.13591 0.90702 0.0
C3526 C 0.2625 0.10685 0.89514 0.0
C3527 C 0.27972 0.09089 0.88627 0.0
C3528 C 0.23974 0.10814 0.88474 0.0
C3529 C 0.27285 0.0767 0.86698 0.0
C3530 C 0.25074 0.07763 0.85718 0.0
C3531 C 0.21152 0.09379 0.85553 0.0
C3532 C 0.19377 0.10929 0.86347 0.0
C3533 C 0.23396 0.0932 0.86573 0.0
C3534 C 0.20011 0.12461 0.88214 0.0
C3535 C 0.22246 0.124 0.89252 0.0
H3536 H 0.94134 0.79021 0.17335 0.0
H3537 H 0.98984 0.80275 0.11465 0.0
H3538 H 0.98804 0.84499 0.1216 0.0
H3539 H 0.9741 0.87942 0.14563 0.0
H3540 H 0.92028 0.86783 0.19927 0.0
H3541 H 0.92246 0.82539 0.19289 0.0
C3542 C 0.95138 0.80207 0.16176 0.0
C3543 C 0.96636 0.79227 0.14362 0.0
C3544 C 0.94915 0.82713 0.16497 0.0
C3545 C 0.97857 0.80882 0.12893 0.0
C3546 C 0.97743 0.83337 0.13292 0.0
C3547 C 0.96226 0.86782 0.15558 0.0
C3548 C 0.94692 0.87784 0.17319 0.0
C3549 C 0.96295 0.84292 0.15101 0.0
C3550 C 0.93215 0.86158 0.18559 0.0
C3551 C 0.93356 0.83691 0.18198 0.0
H3552 H 0.3259 0.67254 0.92227 0.0
H3553 H 0.32134 0.73365 0.8775 0.0
H3554 H 0.28009 0.73536 0.8872 0.0
H3555 H 0.24442 0.72146 0.91103 0.0
H3556 H 0.24785 0.65806 0.95266 0.0
H3557 H 0.28892 0.65539 0.94169 0.0
C3558 C 0.31585 0.68564 0.91354 0.0
C3559 C 0.3278 0.70232 0.89778 0.0
C3560 C 0.29121 0.68641 0.91919 0.0
C3561 C 0.31354 0.71976 0.88848 0.0
C3562 C 0.28956 0.72099 0.89448 0.0
C3563 C 0.25386 0.70667 0.91743 0.0
C3564 C 0.24185 0.68984 0.93291 0.0
C3565 C 0.27802 0.70469 0.91017 0.0
C3566 C 0.25551 0.67122 0.94067 0.0
C3567 C 0.27946 0.66974 0.93437 0.0
H3568 H 0.3786 1.00977 0.67147 0.0
H3569 H 0.43502 1.01703 0.71915 0.0
H3570 H 0.43102 0.05988 0.71857 0.0
H3571 H 0.40855 0.09565 0.70749 0.0
H3572 H 0.35395 0.08753 0.65764 0.0
H3573 H 0.36016 0.04541 0.65601 0.0
C3574 C 0.39052 1.0207 0.68126 0.0
C3575 C 0.40737 1.00969 0.69515 0.0
C3576 C 0.38824 0.04556 0.68057 0.0
C3577 C 0.42223 1.02456 0.70791 0.0
C3578 C 0.41974 0.04926 0.70775 0.0
C3579 C 0.39856 0.08483 0.69558 0.0
C3580 C 0.38093 0.0954 0.68228 0.0
C3581 C 0.40249 0.06007 0.6945 0.0
C3582 C 0.36782 0.08048 0.66771 0.0
C3583 C 0.3713 0.05613 0.66691 0.0
H3584 H 0.10011 0.12391 0.46436 0.0
H3585 H 0.10445 0.18359 0.41696 0.0
H3586 H 0.06317 0.17797 0.40874 0.0
H3587 H 1.02561 0.15422 0.41327 0.0
H3588 H 1.02213 0.09625 0.4631 0.0
H3589 H 0.06271 0.10303 0.47189 0.0
C3590 C 0.09204 0.13633 0.45277 0.0
C3591 C 0.10607 0.15469 0.4419 0.0
C3592 C 0.06813 0.13284 0.4481 0.0
C3593 C 0.09472 0.16978 0.4263 0.0
C3594 C 0.0709 0.16626 0.42134 0.0
C3595 C 1.03359 0.14299 0.42614 0.0
C3596 C 1.02015 0.12402 0.43695 0.0
C3597 C 0.05737 0.14756 0.4318 0.0
C3598 C 1.03145 0.11037 0.45385 0.0
C3599 C 0.05488 0.11446 0.45908 0.0
H3600 H 0.65683 0.88241 0.04593 0.0
H3601 H 0.70056 0.94426 0.03812 0.0
H3602 H 0.69607 0.94313 0.99464 0.0
H3603 H 0.67857 0.92572 0.95886 0.0
H3604 H 0.63274 0.86545 0.96669 0.0
H3605 H 0.63935 0.86485 1.00992 0.0
C3606 C 0.66584 0.89546 0.0348 0.0
C3607 C 0.67955 0.91321 0.04578 0.0
C3608 C 0.66268 0.89504 1.00962 0.0
C3609 C 0.69032 0.93018 0.03061 0.0
C3610 C 0.68761 0.92958 1.0056 0.0
C3611 C 0.67016 0.91213 0.96981 0.0
C3612 C 0.65528 0.89536 0.95892 0.0
C3613 C 0.6737 0.91222 0.99488 0.0
C3614 C 0.64441 0.8784 0.97404 0.0
C3615 C 0.64818 0.87813 0.99893 0.0
H3616 H 0.14543 0.39642 0.74527 0.0
H3617 H 0.17861 0.33028 0.73716 0.0
H3618 H 0.1749 0.32353 0.78055 0.0
H3619 H 0.15865 0.33509 0.82092 0.0
H3620 H 0.13255 0.4046 0.82966 0.0
H3621 H 0.1376 0.41169 0.78651 0.0
C3622 C 0.15264 0.38089 0.75304 0.0
C3623 C 0.162 0.36367 0.73757 0.0
C3624 C 0.15157 0.37772 0.77838 0.0
C3625 C 0.17109 0.34369 0.74827 0.0
C3626 C 0.16892 0.33983 0.77325 0.0
C3627 C 0.15459 0.35202 0.81349 0.0
C3628 C 0.14489 0.3692 0.82884 0.0
C3629 C 0.15861 0.35645 0.78851 0.0
C3630 C 0.14002 0.39104 0.81863 0.0
C3631 C 0.14281 0.39507 0.79377 0.0
H3632 H 0.67422 0.89948 0.51535 0.0
H3633 H 0.72773 0.84899 0.50596 0.0
H3634 H 0.73038 0.84542 0.5493 0.0
H3635 H 0.71919 0.85792 0.58988 0.0
H3636 H 0.66022 0.90124 0.60102 0.0
H3637 H 0.658 0.90642 0.55719 0.0
C3638 C 0.68635 0.8875 0.52272 0.0
C3639 C 0.70162 0.87536 0.50688 0.0
C3640 C 0.68678 0.88431 0.54811 0.0
C3641 C 0.71642 0.85929 0.5172 0.0
C3642 C 0.71785 0.85713 0.54218 0.0
C3643 C 0.70543 0.86819 0.58294 0.0
C3644 C 0.68987 0.87918 0.59922 0.0
C3645 C 0.70343 0.86982 0.5578 0.0
C3646 C 0.6724 0.89246 0.58933 0.0
C3647 C 0.6712 0.89541 0.56414 0.0
H3648 H 0.21174 0.37288 0.25042 0.0
H3649 H 0.20988 0.44237 0.2802 0.0
H3650 H 0.21143 0.45952 0.24034 0.0
H3651 H 0.21283 0.45555 0.19666 0.0
H3652 H 0.20913 0.38696 0.16532 0.0
H3653 H 0.20989 0.36893 0.20542 0.0
C3654 C 0.21179 0.39173 0.24811 0.0
C3655 C 0.21127 0.40625 0.2686 0.0
C3656 C 0.21147 0.40177 0.22461 0.0
C3657 C 0.21063 0.43067 0.26501 0.0
C3658 C 0.21146 0.44061 0.24209 0.0
C3659 C 0.21217 0.43663 0.19858 0.0
C3660 C 0.21113 0.42269 0.17787 0.0
C3661 C 0.21182 0.42643 0.22173 0.0
C3662 C 0.20989 0.39818 0.18086 0.0
C3663 C 0.21043 0.38785 0.20387 0.0
H3664 H 0.65727 0.88217 0.8254 0.0
H3665 H 0.61785 0.81698 0.82844 0.0
H3666 H 0.62146 0.81333 0.78555 0.0
H3667 H 0.63286 0.82919 0.74626 0.0
H3668 H 0.67549 0.89163 0.7406 0.0
H3669 H 0.67346 0.89573 0.7846 0.0
C3670 C 0.64972 0.86703 0.81676 0.0
C3671 C 0.63699 0.85007 0.83093 0.0
C3672 C 0.65222 0.86452 0.79121 0.0
C3673 C 0.62756 0.8306 0.81876 0.0
C3674 C 0.62955 0.82838 0.79388 0.0
C3675 C 0.64226 0.84345 0.75456 0.0
C3676 C 0.6545 0.85992 0.73979 0.0
C3677 C 0.64145 0.84533 0.77985 0.0
C3678 C 0.66618 0.87843 0.75124 0.0
C3679 C 0.66484 0.88085 0.77655 0.0
H3680 H 0.16041 0.38708 0.59089 0.0
H3681 H 0.23084 0.37225 0.60599 0.0
H3682 H 0.23953 0.36722 0.5636 0.0
H3683 H 0.22795 0.36772 0.52124 0.0
H3684 H 0.16065 0.39104 0.50481 0.0
H3685 H 0.14991 0.39132 0.54755 0.0
C3686 C 0.17782 0.38332 0.58491 0.0
C3687 C 0.19493 0.38045 0.60227 0.0
C3688 C 0.18336 0.3817 0.55975 0.0
C3689 C 0.21728 0.37524 0.59359 0.0
C3690 C 0.22237 0.37217 0.56906 0.0
C3691 C 0.2112 0.37334 0.52683 0.0
C3692 C 0.19553 0.37964 0.50918 0.0
C3693 C 0.20569 0.37547 0.55182 0.0
C3694 C 0.17336 0.38601 0.51753 0.0
C3695 C 0.16719 0.38641 0.54221 0.0
H3696 H 0.70346 0.86398 0.24519 0.0
H3697 H 0.70792 0.93267 0.27697 0.0
H3698 H 0.7128 0.95065 0.23794 0.0
H3699 H 0.71575 0.94795 0.19471 0.0
H3700 H 0.70324 0.88185 0.16031 0.0
H3701 H 0.70173 0.86199 0.19972 0.0
C3702 C 0.70562 0.88281 0.24349 0.0
C3703 C 0.70614 0.89675 0.26443 0.0
C3704 C 0.70694 0.89366 0.22029 0.0
C3705 C 0.70797 0.92127 0.26153 0.0
C3706 C 0.71074 0.93175 0.23906 0.0
C3707 C 0.71245 0.9292 0.19571 0.0
C3708 C 0.70963 0.91652 0.17443 0.0
C3709 C 0.71026 0.91823 0.21834 0.0
C3710 C 0.70539 0.89217 0.17633 0.0
C3711 C 0.70458 0.8808 0.19894 0.0
H3712 H 0.14858 0.38259 0.04989 0.0
H3713 H 0.20387 0.43382 0.0403 0.0
H3714 H 0.2025 0.42871 0.99675 0.0
H3715 H 0.18425 0.41138 0.96109 0.0
H3716 H 0.12725 0.36217 0.97074 0.0
H3717 H 0.13073 0.36487 1.01433 0.0
C3718 C 0.16073 0.39244 0.03846 0.0
C3719 C 0.17672 0.40839 0.04899 0.0
C3720 C 0.1594 0.38984 1.01319 0.0
C3721 C 0.1917 0.42119 0.03326 0.0
C3722 C 0.19078 0.41833 1.00817 0.0
C3723 C 0.17277 0.40079 0.97258 0.0
C3724 C 0.1556 0.38618 0.96208 0.0
C3725 C 0.17456 0.40288 0.99787 0.0
C3726 C 0.14074 0.37329 0.97782 0.0
C3727 C 0.14271 0.37494 1.00291 0.0
H3728 H 0.10159 0.62014 0.95884 0.0
H3729 H 0.09912 0.68604 0.92137 0.0
H3730 H 0.05786 0.67869 0.91465 0.0
H3731 H 1.02232 0.6521 0.91716 0.0
H3732 H 1.02496 0.58748 0.95707 0.0
H3733 H 0.06561 0.59577 0.965 0.0
C3734 C 0.092 0.6335 0.94994 0.0
C3735 C 0.10414 0.65427 0.94147 0.0
C3736 C 0.06797 0.629 0.94608 0.0
C3737 C 0.09086 0.67042 0.92901 0.0
C3738 C 0.06705 0.66593 0.92484 0.0
C3739 C 1.03162 0.63973 0.92773 0.0
C3740 C 1.01985 0.6186 0.936 0.0
C3741 C 0.05536 0.64507 0.9329 0.0
C3742 C 1.03289 0.60346 0.94995 0.0
C3743 C 0.05639 0.60836 0.95462 0.0
H3744 H 0.46995 0.65196 0.8377 0.0
H3745 H 0.47895 0.71156 0.88366 0.0
H3746 H 0.52078 0.70606 0.88171 0.0
H3747 H 0.55655 0.68577 0.8648 0.0
H3748 H 0.5472 0.62381 0.82225 0.0
H3749 H 0.50527 0.62859 0.82536 0.0
C3750 C 0.48076 0.66353 0.84806 0.0
C3751 C 0.46973 0.6823 0.86132 0.0
C3752 C 0.50562 0.65978 0.84731 0.0
C3753 C 0.48547 0.69678 0.87373 0.0
C3754 C 0.50995 0.69365 0.87238 0.0
C3755 C 0.54553 0.67275 0.85659 0.0
C3756 C 0.55648 0.65385 0.84347 0.0
C3757 C 0.52054 0.67539 0.85899 0.0
C3758 C 0.54062 0.63807 0.83294 0.0
C3759 C 0.51613 0.64105 0.83457 0.0
H3760 H 0.37398 0.32226 0.64581 0.0
H3761 H 0.43007 0.31648 0.59407 0.0
H3762 H 0.43071 0.27414 0.60181 0.0
H3763 H 0.41459 0.23765 0.62174 0.0
H3764 H 0.35916 0.24272 0.67427 0.0
H3765 H 0.35936 0.28546 0.66797 0.0
C3766 C 0.38664 0.31196 0.63626 0.0
C3767 C 0.4022 0.32372 0.61916 0.0
C3768 C 0.38708 0.28693 0.6411 0.0
C3769 C 0.41806 0.30902 0.60737 0.0
C3770 C 0.41834 0.2844 0.61182 0.0
C3771 C 0.40271 0.2479 0.63241 0.0
C3772 C 0.38693 0.23575 0.64897 0.0
C3773 C 0.40291 0.27298 0.62854 0.0
C3774 C 0.37183 0.25048 0.66186 0.0
C3775 C 0.37183 0.27531 0.65797 0.0
H3776 H 0.69397 0.08653 0.39358 0.0
H3777 H 0.70447 0.14368 0.34361 0.0
H3778 H 0.74585 0.14428 0.35171 0.0
H3779 H 0.78068 0.12686 0.37151 0.0
H3780 H 0.76886 0.07214 0.42415 0.0
H3781 H 0.72755 0.07248 0.41664 0.0
C3782 C 0.70503 0.09974 0.38486 0.0
C3783 C 0.69495 0.11544 0.36807 0.0
C3784 C 0.7293 0.10019 0.38999 0.0
C3785 C 0.71062 0.13174 0.35697 0.0
C3786 C 0.73473 0.13185 0.36147 0.0
C3787 C 0.76915 0.11511 0.38167 0.0
C3788 C 0.7789 0.09934 0.39869 0.0
C3789 C 0.74456 0.11592 0.37771 0.0
C3790 C 0.76278 0.0846 0.41125 0.0
C3791 C 0.73879 0.08476 0.40681 0.0
H3792 H 0.46515 0.47207 0.57305 0.0
H3793 H 0.42229 0.45587 0.63561 0.0
H3794 H 0.42632 0.4972 0.64829 0.0
H3795 H 0.44341 0.53813 0.6418 0.0
H3796 H 0.48613 0.55181 0.57844 0.0
H3797 H 0.48098 0.51119 0.56626 0.0
C3798 C 0.45656 0.4772 0.58963 0.0
C3799 C 0.44354 0.4602 0.60342 0.0
C3800 C 0.45917 0.50078 0.59679 0.0
C3801 C 0.43241 0.46808 0.6245 0.0
C3802 C 0.43488 0.49183 0.6318 0.0
C3803 C 0.45164 0.53225 0.62532 0.0
C3804 C 0.46542 0.54849 0.61118 0.0
C3805 C 0.44845 0.50838 0.61818 0.0
C3806 C 0.47564 0.54017 0.58985 0.0
C3807 C 0.47263 0.51679 0.5828 0.0
H3808 H 0.74615 0.20899 0.9154 0.0
H3809 H 0.75338 0.14621 0.95721 0.0
H3810 H 0.79458 0.14617 0.94653 0.0
H3811 H 0.8303 0.16543 0.92759 0.0
H3812 H 0.82307 0.22629 0.88302 0.0
H3813 H 0.7814 0.2253 0.89191 0.0
C3814 C 0.75645 0.19479 0.92169 0.0
C3815 C 0.74549 0.17724 0.93715 0.0
C3816 C 0.78082 0.19452 0.91478 0.0
C3817 C 0.76027 0.15973 0.9452 0.0
C3818 C 0.78426 0.1598 0.93906 0.0
C3819 C 0.81965 0.17802 0.91888 0.0
C3820 C 0.83083 0.19546 0.90352 0.0
C3821 C 0.79501 0.17719 0.92406 0.0
C3822 C 0.81585 0.212 0.89386 0.0
C3823 C 0.79164 0.21162 0.89937 0.0
H3824 H 0.19245 0.48895 0.90471 0.0
H3825 H 0.14016 0.47534 0.96 0.0
H3826 H 0.13887 0.51663 0.96898 0.0
H3827 H 0.14905 0.55653 0.95772 0.0
H3828 H 0.20315 0.57068 0.90455 0.0
H3829 H 0.20737 0.52878 0.89816 0.0
C3830 C 0.18127 0.49499 0.91919 0.0
C3831 C 0.16558 0.47956 0.93084 0.0
C3832 C 0.18089 0.51869 0.92458 0.0
C3833 C 0.15175 0.48723 0.95012 0.0
C3834 C 0.1511 0.51081 0.95543 0.0
C3835 C 0.16222 0.55051 0.94523 0.0
C3836 C 0.17565 0.56647 0.93157 0.0
C3837 C 0.16493 0.5267 0.94211 0.0
C3838 C 0.19238 0.55852 0.91507 0.0
C3839 C 0.19494 0.53467 0.91153 0.0
H3840 H 0.11446 0.94347 0.18086 0.0
H3841 H 0.08987 0.90788 0.11849 0.0
H3842 H 0.05328 0.92777 0.12271 0.0
H3843 H 1.02504 0.94221 0.15218 0.0
H3844 H 0.04724 0.96576 0.22108 0.0
H3845 H 0.08756 0.96297 0.20749 0.0
C3846 C 0.10129 0.94077 0.16771 0.0
C3847 C 0.10403 0.92327 0.15036 0.0
C3848 C 0.07936 0.94913 0.17257 0.0
C3849 C 0.08775 0.92076 0.13251 0.0
C3850 C 0.06663 0.93168 0.13531 0.0
C3851 C 1.03884 0.94734 0.16386 0.0
C3852 C 1.03369 0.95381 0.18756 0.0
C3853 C 0.06161 0.94379 0.15659 0.0
C3854 C 0.05123 0.96037 0.20288 0.0
C3855 C 0.07412 0.95889 0.19505 0.0
H3856 H 0.78846 0.40845 0.62228 0.0
H3857 H 0.80872 0.47394 0.58842 0.0
H3858 H 0.84885 0.46179 0.58616 0.0
H3859 H 0.87675 0.44061 0.60913 0.0
H3860 H 0.85489 0.38054 0.65124 0.0
H3861 H 0.81762 0.38024 0.63272 0.0
C3862 C 0.80168 0.41958 0.61365 0.0
C3863 C 0.79648 0.44237 0.60671 0.0
C3864 C 0.82451 0.41294 0.61361 0.0
C3865 C 0.81297 0.45659 0.5946 0.0
C3866 C 0.83577 0.44959 0.59326 0.0
C3867 C 0.86412 0.42673 0.61316 0.0
C3868 C 0.86698 0.41241 0.63327 0.0
C3869 C 0.84186 0.42893 0.60499 0.0
C3870 C 0.8521 0.39297 0.63696 0.0
C3871 C 0.83055 0.39315 0.62677 0.0
H3872 H 0.18964 0.71349 0.37347 0.0
H3873 H 0.13699 0.68977 0.42361 0.0
H3874 H 0.13363 0.72909 0.43974 0.0
H3875 H 0.12959 0.76838 0.42291 0.0
H3876 H 0.17179 0.78985 0.36153 0.0
H3877 H 0.19454 0.75479 0.365 0.0
C3878 C 0.1783 0.71696 0.38878 0.0
C3879 C 0.1612 0.70037 0.39525 0.0
C3880 C 0.1734 0.74013 0.39424 0.0
C3881 C 0.14878 0.7034 0.41689 0.0
C3882 C 0.1464 0.72605 0.42562 0.0
C3883 C 0.14424 0.76561 0.41085 0.0
C3884 C 0.14829 0.78043 0.3911 0.0
C3885 C 0.15587 0.74462 0.41178 0.0
C3886 C 0.1677 0.77757 0.37599 0.0
C3887 C 0.18091 0.75779 0.37822 0.0
H3888 H 0.77933 0.85212 0.69865 0.0
H3889 H 0.75599 0.91927 0.67517 0.0
H3890 H 0.79469 0.93613 0.67821 0.0
H3891 H 0.83519 0.92682 0.6731 0.0
H3892 H 0.8584 0.85896 0.69366 0.0
H3893 H 0.82005 0.84797 0.70892 0.0
C3894 C 0.78276 0.87058 0.69499 0.0
C3895 C 0.76566 0.88431 0.68555 0.0
C3896 C 0.80494 0.88007 0.69673 0.0
C3897 C 0.7695 0.90839 0.6817 0.0
C3898 C 0.7915 0.91806 0.6836 0.0
C3899 C 0.83211 0.91019 0.68227 0.0
C3900 C 0.84825 0.89256 0.67983 0.0
C3901 C 0.80962 0.90347 0.68903 0.0
C3902 C 0.84523 0.87208 0.69375 0.0
C3903 C 0.82318 0.86555 0.70197 0.0
H3904 H 0.71454 0.46347 0.83847 0.0
H3905 H 0.67441 0.44421 0.90203 0.0
H3906 H 0.64722 0.47532 0.89314 0.0
H3907 H 0.63589 0.50883 0.86723 0.0
H3908 H 0.67472 0.52258 0.8012 0.0
H3909 H 0.70053 0.49131 0.81036 0.0
C3910 C 0.69948 0.46527 0.85011 0.0
C3911 C 0.69638 0.45106 0.87067 0.0
C3912 C 0.68347 0.482 0.84418 0.0
C3913 C 0.67723 0.45479 0.88602 0.0
C3914 C 0.66162 0.47247 0.88083 0.0
C3915 C 0.64966 0.50461 0.85459 0.0
C3916 C 0.65355 0.51845 0.83372 0.0
C3917 C 0.66458 0.48623 0.85987 0.0
C3918 C 0.67144 0.51258 0.81753 0.0
C3919 C 0.68636 0.49475 0.82281 0.0
H3920 H 0.45604 0.6725 0.54994 0.0
H3921 H 0.4208 0.61117 0.58004 0.0
H3922 H 0.40466 0.60222 0.54179 0.0
H3923 H 0.4054 0.60775 0.49814 0.0
H3924 H 0.43819 0.66997 0.46774 0.0
H3925 H 0.44941 0.68273 0.50738 0.0
C3926 C 0.44447 0.65747 0.54826 0.0
C3927 C 0.44029 0.64241 0.56806 0.0
C3928 C 0.4346 0.65236 0.52591 0.0
C3929 C 0.42484 0.62315 0.56534 0.0
C3930 C 0.41543 0.61785 0.54329 0.0
C3931 C 0.41403 0.62463 0.50025 0.0
C3932 C 0.42121 0.63759 0.4798 0.0
C3933 C 0.4208 0.63182 0.52321 0.0
C3934 C 0.43256 0.65942 0.4831 0.0
C3935 C 0.43931 0.66665 0.50581 0.0
H3936 H 0.90304 0.17657 0.75703 0.0
H3937 H 0.94781 0.23681 0.76895 0.0
H3938 H 0.96769 0.23034 0.73112 0.0
H3939 H 0.97258 0.2085 0.69523 0.0
H3940 H 0.9258 0.15185 0.67812 0.0
H3941 H 0.90703 0.15512 0.71827 0.0
C3942 C 0.91693 0.18842 0.75115 0.0
C3943 C 0.92407 0.20699 0.76596 0.0
C3944 C 0.92825 0.18486 0.72895 0.0
C3945 C 0.94204 0.22228 0.75809 0.0
C3946 C 0.95358 0.21853 0.73652 0.0
C3947 C 0.95832 0.19669 0.70029 0.0
C3948 C 0.95038 0.18008 0.68397 0.0
C3949 C 0.94695 0.19985 0.72207 0.0
C3950 C 0.93219 0.16466 0.69066 0.0
C3951 C 0.92134 0.16684 0.71334 0.0
H3952 H 0.39605 0.71052 0.0755 0.0
H3953 H 0.41652 0.64047 0.05779 0.0
H3954 H 0.42582 0.65294 1.01647 0.0
H3955 H 0.41688 0.68039 0.98436 0.0
H3956 H 0.38471 0.74551 1.00212 0.0
H3957 H 0.391 0.73894 0.04455 0.0
C3958 C 0.40285 0.69812 0.06256 0.0
C3959 C 0.40452 0.67456 0.06864 0.0
C3960 C 0.4056 0.70471 0.0389 0.0
C3961 C 0.41454 0.65864 0.05274 0.0
C3962 C 0.41962 0.66571 0.02928 0.0
C3963 C 0.41174 0.69314 0.99773 0.0
C3964 C 0.4003 0.71315 0.99099 0.0
C3965 C 0.41339 0.68812 0.02188 0.0
C3966 C 0.39351 0.72998 1.00761 0.0
C3967 C 0.3971 0.72621 0.03163 0.0
H3968 H 0.91056 0.12814 0.34962 0.0
H3969 H 0.84486 0.13822 0.385 0.0
H3970 H 0.83102 0.15832 0.34966 0.0
H3971 H 0.83497 0.16412 0.30585 0.0
H3972 H 0.90022 0.15197 0.27023 0.0
H3973 H 0.91719 0.14226 0.30835 0.0
C3974 C 0.89365 0.1358 0.34989 0.0
C3975 C 0.87857 0.13156 0.36949 0.0
C3976 C 0.88564 0.14665 0.32923 0.0
C3977 C 0.85656 0.14114 0.36977 0.0
C3978 C 0.84863 0.1525 0.34956 0.0
C3979 C 0.85313 0.1604 0.30675 0.0
C3980 C 0.86644 0.15876 0.28555 0.0
C3981 C 0.86255 0.15405 0.32868 0.0
C3982 C 0.88983 0.15346 0.28657 0.0
C3983 C 0.89947 0.14771 0.30829 0.0
H3984 H 0.48517 0.68455 0.70144 0.0
H3985 H 0.42334 0.65759 0.67011 0.0
H3986 H 0.4028 0.65972 0.7091 0.0
H3987 H 0.40094 0.67759 0.74936 0.0
H3988 H 0.46245 0.70971 0.77739 0.0
H3989 H 0.48461 0.69784 0.74228 0.0
C3990 C 0.46738 0.67844 0.70348 0.0
C3991 C 0.45545 0.67139 0.68339 0.0
C3992 C 0.4555 0.68159 0.72506 0.0
C3993 C 0.43263 0.66312 0.6857 0.0
C3994 C 0.42087 0.66477 0.70779 0.0
C3995 C 0.4192 0.68181 0.7477 0.0
C3996 C 0.42994 0.69512 0.76536 0.0
C3997 C 0.43179 0.67544 0.72713 0.0
C3998 C 0.45367 0.7002 0.76348 0.0
C3999 C 0.46644 0.69315 0.74363 0.0
H4000 H 0.88027 0.14018 0.97824 0.0
H4001 H 0.94582 0.17644 0.98275 0.0
H4002 H 0.9477 0.16553 0.02489 0.0
H4003 H 0.92422 0.1593 0.06162 0.0
H4004 H 0.85494 0.13172 0.05719 0.0
H4005 H 0.8604 0.12592 1.01426 0.0
C4006 C 0.89531 0.14499 0.98832 0.0
C4007 C 0.91212 0.16028 0.97821 0.0
C4008 C 0.89495 0.14105 1.01289 0.0
C4009 C 0.93221 0.16536 0.99064 0.0
C4010 C 0.93312 0.15943 1.01481 0.0
C4011 C 0.91065 0.15138 0.05123 0.0
C4012 C 0.88892 0.14688 0.0619 0.0
C4013 C 0.91353 0.14951 0.02647 0.0
C4014 C 0.87142 0.13627 0.04883 0.0
C4015 C 0.87466 0.13271 0.0244 0.0
H4016 H 0.41735 0.60913 0.34874 0.0
H4017 H 0.37435 0.66119 0.38116 0.0
H4018 H 0.3649 0.6762 0.3417 0.0
H4019 H 0.36066 0.6671 0.29884 0.0
H4020 H 0.39919 0.6104 0.2681 0.0
H4021 H 0.41816 0.6043 0.30558 0.0
C4022 C 0.40678 0.62443 0.34708 0.0
C4023 C 0.3962 0.63383 0.36752 0.0
C4024 C 0.39972 0.6314 0.32447 0.0
C4025 C 0.3826 0.65371 0.36541 0.0
C4026 C 0.37681 0.66195 0.34287 0.0
C4027 C 0.37353 0.65378 0.30034 0.0
C4028 C 0.37803 0.63881 0.28106 0.0
C4029 C 0.38385 0.64973 0.32236 0.0
C4030 C 0.39494 0.62173 0.28298 0.0
C4031 C 0.40598 0.61832 0.30436 0.0
H4032 H 0.91492 0.12949 0.57179 0.0
H4033 H 0.96299 0.18677 0.55633 0.0
H4034 H 0.95305 0.1855 0.51421 0.0
H4035 H 0.9369 0.16309 0.48105 0.0
H4036 H 0.89159 0.10354 0.49615 0.0
H4037 H 0.89394 0.11109 0.53905 0.0
C4038 C 0.92286 0.14216 0.55939 0.0
C4039 C 0.94012 0.15791 0.56735 0.0
C4040 C 0.91779 0.14066 0.53495 0.0
C4041 C 0.94982 0.17434 0.5509 0.0
C4042 C 0.94428 0.17347 0.52667 0.0
C4043 C 0.92704 0.15204 0.49365 0.0
C4044 C 0.91441 0.13244 0.48523 0.0
C4045 C 0.92924 0.15591 0.51835 0.0
C4046 C 0.9015 0.11866 0.50194 0.0
C4047 C 0.90304 0.12285 0.52656 0.0
H4048 H 0.5397 0.96136 0.7174 0.0
H4049 H 0.52065 0.95553 0.64371 0.0
H4050 H 0.56046 0.94855 0.63148 0.0
H4051 H 0.59525 0.92965 0.64463 0.0
H4052 H 0.6134 0.93372 0.71877 0.0
H4053 H 0.58006 0.95729 0.7278 0.0
C4054 C 0.5446 0.95963 0.6986 0.0
C4055 C 0.52764 0.95779 0.68155 0.0
C4056 C 0.56732 0.95516 0.69183 0.0
C4057 C 0.53373 0.95635 0.65711 0.0
C4058 C 0.55643 0.95229 0.65013 0.0
C4059 C 0.59259 0.93683 0.66242 0.0
C4060 C 0.6054 0.9287 0.6814 0.0
C4061 C 0.5728 0.94941 0.66768 0.0
C4062 C 0.60274 0.93889 0.70416 0.0
C4063 C 0.5836 0.95222 0.7094 0.0
H4064 H 0.35503 0.42577 0.14392 0.0
H4065 H 0.36042 0.50097 0.15105 0.0
H4066 H 0.33623 0.50607 0.11686 0.0
H4067 H 0.30382 0.48903 0.09616 0.0
H4068 H 0.29343 0.41439 0.09515 0.0
H4069 H 0.33042 0.40887 0.11346 0.0
C4070 C 0.35132 0.44324 0.13762 0.0
C4071 C 0.35813 0.46287 0.15075 0.0
C4072 C 0.33672 0.44604 0.11852 0.0
C4073 C 0.35425 0.4855 0.14187 0.0
C4074 C 0.34065 0.48848 0.12214 0.0
C4075 C 0.31054 0.47162 0.09856 0.0
C4076 C 0.2959 0.45219 0.09591 0.0
C4077 C 0.33024 0.46888 0.11177 0.0
C4078 C 0.30451 0.42959 0.09798 0.0
C4079 C 0.32534 0.42648 0.10904 0.0
H4080 H 0.69334 0.9792 0.90435 0.0
H4081 H 0.64134 0.99197 0.85295 0.0
H4082 H 0.64642 0.03428 0.85812 0.0
H4083 H 0.66 0.06623 0.88349 0.0
H4084 H 0.70953 0.0529 0.93738 0.0
H4085 H 0.71139 1.01189 0.92519 0.0
C4086 C 0.68388 0.99145 0.8937 0.0
C4087 C 0.66694 0.98318 0.8786 0.0
C4088 C 0.68613 1.01534 0.89768 0.0
C4089 C 0.65435 0.99852 0.86482 0.0
C4090 C 0.65717 1.02252 0.86787 0.0
C4091 C 0.67148 0.05428 0.89207 0.0
C4092 C 0.6841 0.0617 0.91153 0.0
C4093 C 0.67205 0.03095 0.88526 0.0
C4094 C 0.69924 0.04682 0.92273 0.0
C4095 C 0.70041 1.0236 0.91567 0.0
H4096 H 0.2819 0.37505 0.69801 0.0
H4097 H 0.25546 0.39843 0.63095 0.0
H4098 H 0.28629 0.42814 0.62712 0.0
H4099 H 0.3253 0.43918 0.63713 0.0
H4100 H 0.35601 0.4081 0.69815 0.0
H4101 H 0.31866 0.39186 0.71185 0.0
C4102 C 0.28323 0.38651 0.68244 0.0
C4103 C 0.2675 0.38398 0.66411 0.0
C4104 C 0.30155 0.40257 0.67975 0.0
C4105 C 0.26841 0.39935 0.64446 0.0
C4106 C 0.28572 0.41651 0.64248 0.0
C4107 C 0.32352 0.42977 0.65406 0.0
C4108 C 0.34327 0.42249 0.66535 0.0
C4109 C 0.30307 0.41732 0.65928 0.0
C4110 C 0.3409 0.41246 0.68833 0.0
C4111 C 0.31974 0.40241 0.69565 0.0
H4112 H 0.93924 0.53632 0.14023 0.0
H4113 H 0.98817 0.55158 0.08223 0.0
H4114 H 0.98641 0.51082 0.07002 0.0
H4115 H 0.97197 0.47108 0.07533 0.0
H4116 H 0.92098 0.4536 0.13062 0.0
H4117 H 0.92264 0.49475 0.14427 0.0
C4118 C 0.94956 0.53074 0.12493 0.0
C4119 C 0.9643 0.54749 0.11254 0.0
C4120 C 0.94812 0.50675 0.11748 0.0
C4121 C 0.97702 0.53956 0.0925 0.0
C4122 C 0.97598 0.51605 0.0854 0.0
C4123 C 0.96094 0.47587 0.09038 0.0
C4124 C 0.94637 0.45853 0.10185 0.0
C4125 C 0.96172 0.49952 0.09774 0.0
C4126 C 0.93244 0.46602 0.1213 0.0
C4127 C 0.93344 0.48973 0.1291 0.0
H4128 H 0.05704 0.18017 0.8713 0.0
H4129 H 0.04761 0.12121 0.82456 0.0
H4130 H 1.00578 0.12701 0.82667 0.0
H4131 H 0.97062 0.15055 0.83964 0.0
H4132 H 0.97987 0.2069 0.88963 0.0
H4133 H 1.02149 0.20034 0.8884 0.0
C4134 C 0.04601 0.16803 0.86186 0.0
C4135 C 0.05691 0.14975 0.84781 0.0
C4136 C 1.0211 0.17119 0.86371 0.0
C4137 C 1.04105 0.13501 0.83589 0.0
C4138 C 1.01662 0.13858 0.83698 0.0
C4139 C 0.98143 0.16113 0.85098 0.0
C4140 C 0.97055 0.17928 0.86526 0.0
C4141 C 1.00618 0.15676 0.85061 0.0
C4142 C 0.98627 0.19256 0.87895 0.0
C4143 C 1.01064 0.18885 0.878 0.0
H4144 H 0.21491 0.60087 0.33892 0.0
H4145 H 0.18221 0.62996 0.40165 0.0
H4146 H 0.21888 0.62777 0.42271 0.0
H4147 H 0.26163 0.61597 0.42407 0.0
H4148 H 0.29309 0.5905 0.35869 0.0
H4149 H 0.25659 0.59259 0.33891 0.0
C4150 C 0.2157 0.60754 0.35699 0.0
C4151 C 0.19502 0.61648 0.36785 0.0
C4152 C 0.23717 0.60605 0.3692 0.0
C4153 C 0.19726 0.62388 0.39187 0.0
C4154 C 0.21852 0.62219 0.40422 0.0
C4155 C 0.26054 0.61036 0.40565 0.0
C4156 C 0.28097 0.60143 0.39375 0.0
C4157 C 0.23881 0.61291 0.39332 0.0
C4158 C 0.2783 0.59591 0.3693 0.0
C4159 C 0.25713 0.59757 0.35759 0.0
H4160 H 0.96154 0.36139 0.69829 0.0
H4161 H 0.92948 0.39119 0.63731 0.0
H4162 H 0.93246 0.35326 0.61637 0.0
H4163 H 0.94565 0.31044 0.61492 0.0
H4164 H 0.97226 0.28143 0.67954 0.0
H4165 H 0.97028 0.31938 0.69883 0.0
C4166 C 0.9545 0.35962 0.68067 0.0
C4167 C 0.94471 0.37966 0.67002 0.0
C4168 C 0.95604 0.33749 0.66883 0.0
C4169 C 0.93652 0.37646 0.64665 0.0
C4170 C 0.93856 0.35457 0.63445 0.0
C4171 C 0.95137 0.31245 0.63308 0.0
C4172 C 0.96071 0.29258 0.64499 0.0
C4173 C 0.94862 0.33478 0.64516 0.0
C4174 C 0.96646 0.29606 0.6691 0.0
C4175 C 0.96492 0.31794 0.68047 0.0
H4176 H 0.24831 0.2236 0.40845 0.0
H4177 H 0.24953 0.16086 0.45147 0.0
H4178 H 0.29097 0.15797 0.44272 0.0
H4179 H 0.3286 0.17442 0.4247 0.0
H4180 H 0.32666 0.23389 0.37728 0.0
H4181 H 0.28508 0.23658 0.38553 0.0
C4182 C 0.25738 0.20892 0.41566 0.0
C4183 C 0.24464 0.1924 0.43094 0.0
C4184 C 0.28178 0.20671 0.40956 0.0
C4185 C 0.25778 0.17382 0.43966 0.0
C4186 C 0.28193 0.17221 0.43464 0.0
C4187 C 0.31912 0.18753 0.41531 0.0
C4188 C 0.33186 0.2036 0.39957 0.0
C4189 C 0.29438 0.18859 0.41974 0.0
C4190 C 0.3183 0.22074 0.38876 0.0
C4191 C 0.29412 0.22244 0.3938 0.0
H4192 H 0.42351 0.52904 0.22897 0.0
H4193 H 0.40914 0.50039 0.15982 0.0
H4194 H 0.39551 0.53869 0.14671 0.0
H4195 H 0.38317 0.5799 0.15678 0.0
H4196 H 0.40169 0.60867 0.2248 0.0
H4197 H 0.41823 0.57145 0.2362 0.0
C4198 C 0.41831 0.53127 0.21068 0.0
C4199 C 0.41788 0.51142 0.19543 0.0
C4200 C 0.41082 0.55369 0.20308 0.0
C4201 C 0.41033 0.51507 0.17197 0.0
C4202 C 0.4022 0.53711 0.16452 0.0
C4203 C 0.39163 0.57837 0.17371 0.0
C4204 C 0.39112 0.59765 0.18985 0.0
C4205 C 0.40179 0.55656 0.18009 0.0
C4206 C 0.40173 0.59458 0.21194 0.0
C4207 C 0.41119 0.57308 0.21854 0.0
H4208 H 0.68958 0.41112 0.46245 0.0
H4209 H 0.63447 0.35963 0.47135 0.0
H4210 H 0.63848 0.36112 0.51492 0.0
H4211 H 0.65601 0.37862 0.55087 0.0
H4212 H 0.70903 0.43235 0.54204 0.0
H4213 H 0.70749 0.42822 0.49841 0.0
C4214 C 0.67865 0.39978 0.47375 0.0
C4215 C 0.66192 0.38483 0.463 0.0
C4216 C 0.68065 0.40124 0.49909 0.0
C4217 C 0.64772 0.37097 0.47856 0.0
C4218 C 0.64996 0.37195 0.50367 0.0
C4219 C 0.66766 0.3892 0.53956 0.0
C4220 C 0.68307 0.40556 0.55035 0.0
C4221 C 0.66619 0.38719 0.51422 0.0
C4222 C 0.69733 0.41936 0.53479 0.0
C4223 C 0.69632 0.41707 0.50965 0.0
H4224 H 0.13733 0.89534 0.24181 0.0
H4225 H 0.1839 0.83806 0.23534 0.0
H4226 H 0.18169 0.83215 0.27889 0.0
H4227 H 0.16309 0.84098 0.31867 0.0
H4228 H 0.12126 0.90186 0.3255 0.0
H4229 H 0.12519 0.909 0.28227 0.0
C4230 C 0.14753 0.882 0.25002 0.0
C4231 C 0.16056 0.86697 0.23523 0.0
C4232 C 0.14686 0.87932 0.27523 0.0
C4233 C 0.1737 0.84983 0.24619 0.0
C4234 C 0.17235 0.84638 0.27116 0.0
C4235 C 0.15543 0.8562 0.31075 0.0
C4236 C 0.14169 0.87083 0.32531 0.0
C4237 C 0.15852 0.86066 0.28585 0.0
C4238 C 0.13177 0.89035 0.31473 0.0
C4239 C 0.13401 0.89438 0.28996 0.0
H4240 H 0.6942 0.34903 0.09335 0.0
H4241 H 0.69586 0.42211 0.11209 0.0
H4242 H 0.70088 0.43274 0.06962 0.0
H4243 H 0.70562 0.42146 0.0266 0.0
H4244 H 0.70839 0.3483 1.00855 0.0
H4245 H 0.70145 0.33769 0.05079 0.0
C4246 C 0.69548 0.36732 0.0883 0.0
C4247 C 0.69415 0.38469 0.10647 0.0
C4248 C 0.69952 0.37335 0.06363 0.0
C4249 C 0.69641 0.40825 0.09894 0.0
C4250 C 0.69945 0.41436 0.07448 0.0
C4251 C 0.70468 0.40315 0.03182 0.0
C4252 C 0.70733 0.38574 1.01386 0.0
C4253 C 0.70117 0.39711 0.05656 0.0
C4254 C 0.70643 0.36218 0.02152 0.0
C4255 C 0.70234 0.35608 0.04586 0.0
H4256 H 0.19504 0.94996 0.69384 0.0
H4257 H 0.21273 0.88143 0.66895 0.0
H4258 H 0.21373 0.86727 0.71065 0.0
H4259 H 0.21303 0.87584 0.75496 0.0
H4260 H 0.19338 0.94487 0.77794 0.0
H4261 H 0.1893 0.957 0.73673 0.0
C4262 C 0.1983 0.9317 0.6975 0.0
C4263 C 0.20329 0.9167 0.67821 0.0
C4264 C 0.19877 0.92376 0.72146 0.0
C4265 C 0.20825 0.89324 0.68337 0.0
C4266 C 0.20907 0.88522 0.7073 0.0
C4267 C 0.20731 0.89332 0.75096 0.0
C4268 C 0.20374 0.90937 0.76993 0.0
C4269 C 0.20481 0.90046 0.72666 0.0
C4270 C 0.19654 0.93206 0.76406 0.0
C4271 C 0.19418 0.93915 0.74032 0.0
H4272 H 0.64492 0.40196 0.24346 0.0
H4273 H 0.69208 0.34502 0.23848 0.0
H4274 H 0.68909 0.33951 0.28197 0.0
H4275 H 0.66916 0.34811 0.32128 0.0
H4276 H 0.62988 0.41075 0.32752 0.0
H4277 H 0.63382 0.41712 0.28406 0.0
C4278 C 0.6551 0.38877 0.25191 0.0
C4279 C 0.66812 0.37338 0.23732 0.0
C4280 C 0.65449 0.38665 0.27732 0.0
C4281 C 0.6815 0.35679 0.24891 0.0
C4282 C 0.67979 0.35361 0.27394 0.0
C4283 C 0.66221 0.36367 0.31329 0.0
C4284 C 0.64866 0.37869 0.32775 0.0
C4285 C 0.6658 0.36801 0.28833 0.0
C4286 C 0.6398 0.39864 0.31687 0.0
C4287 C 0.64214 0.40229 0.29195 0.0
H4288 H 0.21873 0.90617 0.092 0.0
H4289 H 0.16468 0.85339 0.09745 0.0
H4290 H 0.16658 0.84823 0.05395 0.0
H4291 H 0.18471 0.85797 1.01349 0.0
H4292 H 0.2313 0.91743 1.00815 0.0
H4293 H 0.2314 0.9206 0.05173 0.0
C4294 C 0.20697 0.89386 0.08372 0.0
C4295 C 0.19184 0.87992 0.09847 0.0
C4296 C 0.20739 0.89168 0.05837 0.0
C4297 C 0.17664 0.86435 0.08694 0.0
C4298 C 0.17785 0.8612 0.06188 0.0
C4299 C 0.19526 0.87126 0.02193 0.0
C4300 C 0.20967 0.88623 1.0074 0.0
C4301 C 0.19352 0.87444 0.0473 0.0
C4302 C 0.22161 0.90451 1.0188 0.0
C4303 C 0.22128 0.90666 0.04382 0.0
H4304 H 0.71325 0.38055 0.75916 0.0
H4305 H 0.69966 0.45135 0.78167 0.0
H4306 H 0.69761 0.46387 0.74049 0.0
H4307 H 0.70245 0.45629 0.69769 0.0
H4308 H 0.7126 0.38602 0.67295 0.0
H4309 H 0.7131 0.37192 0.71474 0.0
C4310 C 0.70938 0.39857 0.75507 0.0
C4311 C 0.70689 0.41487 0.77403 0.0
C4312 C 0.70777 0.40597 0.73069 0.0
C4313 C 0.70196 0.43822 0.76793 0.0
C4314 C 0.70077 0.44558 0.74416 0.0
C4315 C 0.70422 0.43777 0.7014 0.0
C4316 C 0.70728 0.42226 0.68211 0.0
C4317 C 0.70406 0.42981 0.72538 0.0
C4318 C 0.70987 0.39834 0.68736 0.0
C4319 C 0.71034 0.39032 0.71135 0.0
H4320 H 0.18416 0.92063 0.45813 0.0
H4321 H 0.13632 0.86191 0.46503 0.0
H4322 H 0.14226 0.86076 0.50828 0.0
H4323 H 0.15865 0.87824 0.54479 0.0
H4324 H 0.20474 0.93841 0.53803 0.0
H4325 H 0.20193 0.93696 0.4944 0.0
C4326 C 0.17526 0.90721 0.46888 0.0
C4327 C 0.15986 0.89115 0.45773 0.0
C4328 C 0.17838 0.907 0.49406 0.0
C4329 C 0.14842 0.87431 0.47258 0.0
C4330 C 0.15174 0.87377 0.49751 0.0
C4331 C 0.16856 0.89083 0.53388 0.0
C4332 C 0.18225 0.9083 0.54525 0.0
C4333 C 0.16639 0.89025 0.50857 0.0
C4334 C 0.19439 0.92455 0.53028 0.0
C4335 C 0.19262 0.92382 0.50515 0.0
H4336 H 0.5593 0.18477 0.37428 0.0
H4337 H 0.55226 0.12939 0.32277 0.0
H4338 H 0.51053 0.13538 0.32288 0.0
H4339 H 0.47481 0.15786 0.33565 0.0
H4340 H 0.48109 0.21076 0.38985 0.0
H4341 H 0.52272 0.20418 0.39055 0.0
C4342 C 0.54881 0.17352 0.36326 0.0
C4343 C 0.5604 0.15611 0.34857 0.0
C4344 C 0.52383 0.17677 0.36386 0.0
C4345 C 0.54517 0.1425 0.33463 0.0
C4346 C 0.52079 0.14615 0.33459 0.0
C4347 C 0.48493 0.16769 0.34828 0.0
C4348 C 0.47319 0.18483 0.36315 0.0
C4349 C 0.50966 0.16335 0.34894 0.0
C4350 C 0.48811 0.19717 0.37856 0.0
C4351 C 0.51251 0.19346 0.37874 0.0
H4352 H 0.69261 0.58718 0.89051 0.0
H4353 H 0.70368 0.64269 0.83873 0.0
H4354 H 0.74518 0.64235 0.84597 0.0
H4355 H 0.78 0.62482 0.86588 0.0
H4356 H 0.7676 0.57264 0.92104 0.0
H4357 H 0.7263 0.57333 0.91374 0.0
C4358 C 0.70382 0.59982 0.88114 0.0
C4359 C 0.69376 0.61529 0.86403 0.0
C4360 C 0.72824 0.59987 0.88589 0.0
C4361 C 0.70973 0.63086 0.85223 0.0
C4362 C 0.73395 0.63045 0.85629 0.0
C4363 C 0.7684 0.61362 0.87657 0.0
C4364 C 0.77813 0.59824 0.89405 0.0
C4365 C 0.74371 0.61482 0.87288 0.0
C4366 C 0.76174 0.58445 0.90742 0.0
C4367 C 0.73768 0.58491 0.90321 0.0
H4368 H 0.47453 0.96642 0.07768 0.0
H4369 H 0.42417 0.95437 0.13483 0.0
H4370 H 0.4269 0.99622 0.14542 0.0
H4371 H 0.44435 0.03666 0.13868 0.0
H4372 H 0.49175 0.04811 0.07867 0.0
H4373 H 0.48944 1.00642 0.06916 0.0
C4374 C 0.46414 0.97276 0.09262 0.0
C4375 C 0.44943 0.95669 0.10571 0.0
C4376 C 0.46539 0.99702 0.09816 0.0
C4377 C 0.43576 0.96587 0.12449 0.0
C4378 C 0.43739 0.98996 0.13055 0.0
C4379 C 0.45425 0.03011 0.12351 0.0
C4380 C 0.46891 0.04595 0.10989 0.0
C4381 C 0.45227 1.00578 0.11759 0.0
C4382 C 0.48093 0.03672 0.08999 0.0
C4383 C 0.47949 1.01271 0.08442 0.0
H4384 H 0.74801 0.69674 0.399 0.0
H4385 H 0.75884 0.6828 0.47357 0.0
H4386 H 0.8003 0.68642 0.46651 0.0
H4387 H 0.8346 0.6965 0.4402 0.0
H4388 H 0.8258 0.70831 0.36497 0.0
H4389 H 0.78387 0.70221 0.37103 0.0
C4390 C 0.75933 0.69362 0.41366 0.0
C4391 C 0.74914 0.68883 0.43716 0.0
C4392 C 0.78422 0.69556 0.40927 0.0
C4393 C 0.76514 0.68599 0.45544 0.0
C4394 C 0.7893 0.68824 0.45134 0.0
C4395 C 0.82377 0.69716 0.42478 0.0
C4396 C 0.8345 0.70254 0.40182 0.0
C4397 C 0.79923 0.6934 0.42847 0.0
C4398 C 0.81911 0.70367 0.3827 0.0
C4399 C 0.79469 0.7004 0.38633 0.0
H4400 H 0.14713 0.35363 0.42038 0.0
H4401 H 0.19497 0.34141 0.36151 0.0
H4402 H 0.18285 0.30043 0.36063 0.0
H4403 H 0.17281 0.26799 0.38804 0.0
H4404 H 0.13041 0.28019 0.4511 0.0
H4405 H 0.12561 0.32077 0.43884 0.0
C4406 C 0.15421 0.3422 0.40671 0.0
C4407 C 0.17335 0.34974 0.39254 0.0
C4408 C 0.14855 0.31832 0.40768 0.0
C4409 C 0.18118 0.33547 0.3737 0.0
C4410 C 0.17437 0.31195 0.37329 0.0
C4411 C 0.16169 0.27935 0.39845 0.0
C4412 C 0.15308 0.27193 0.42097 0.0
C4413 C 0.16032 0.30289 0.39208 0.0
C4414 C 0.13782 0.28603 0.43401 0.0
C4415 C 0.13523 0.30927 0.42708 0.0
H4416 H 0.63136 0.27196 0.41494 0.0
H4417 H 0.66628 0.28742 0.34713 0.0
H4418 H 0.69034 0.25343 0.35194 0.0
H4419 H 0.69185 0.21439 0.36875 0.0
H4420 H 0.64582 0.19443 0.42678 0.0
H4421 H 0.63906 0.23547 0.43597 0.0
C4422 C 0.6445 0.2681 0.40143 0.0
C4423 C 0.64641 0.28127 0.3802 0.0
C4424 C 0.65723 0.24799 0.40368 0.0
C4425 C 0.66387 0.27667 0.36309 0.0
C4426 C 0.67793 0.25758 0.36606 0.0
C4427 C 0.68103 0.21929 0.38402 0.0
C4428 C 0.66625 0.20235 0.39467 0.0
C4429 C 0.67354 0.24225 0.38538 0.0
C4430 C 0.65536 0.20784 0.41661 0.0
C4431 C 0.65084 0.23127 0.42129 0.0
H4432 H 0.13755 1.0042 0.86556 0.0
H4433 H 0.17281 1.01701 0.79731 0.0
H4434 H 0.19923 0.98594 0.80542 0.0
H4435 H 0.21488 0.9586 0.83326 0.0
H4436 H 0.17781 0.94057 0.89909 0.0
H4437 H 0.15018 0.97139 0.89118 0.0
C4438 C 0.15065 0.99981 0.85222 0.0
C4439 C 0.15344 1.01332 0.83106 0.0
C4440 C 0.16588 0.98163 0.85689 0.0
C4441 C 0.17044 1.00723 0.81391 0.0
C4442 C 0.18571 0.98955 0.81858 0.0
C4443 C 0.20037 0.96066 0.8456 0.0
C4444 C 0.19824 0.94689 0.86651 0.0
C4445 C 0.18399 0.9772 0.84027 0.0
C4446 C 0.17985 0.95086 0.88279 0.0
C4447 C 0.16397 0.96834 0.87818 0.0
H4448 H 0.59818 0.91205 0.05914 0.0
H4449 H 0.59429 0.85458 0.10989 0.0
H4450 H 0.55926 0.83979 0.0915 0.0
H4451 H 0.52521 0.8504 0.0702 0.0
H4452 H 0.52548 0.915 0.02962 0.0
H4453 H 0.5669 0.91902 0.03321 0.0
C4454 C 0.58986 0.89613 0.06614 0.0
C4455 C 0.59785 0.8851 0.08667 0.0
C4456 C 0.56909 0.88898 0.05688 0.0
C4457 C 0.58771 0.86386 0.09468 0.0
C4458 C 0.56784 0.85538 0.08411 0.0
C4459 C 0.53449 0.86505 0.06167 0.0
C4460 C 0.52244 0.88298 0.05074 0.0
C4461 C 0.55752 0.8689 0.06656 0.0
C4462 C 0.53446 0.90134 0.03877 0.0
C4463 C 0.55806 0.90378 0.04106 0.0
H4464 H 0.52089 0.35739 0.58349 0.0
H4465 H 0.52757 0.41345 0.53145 0.0
H4466 H 0.56882 0.4164 0.53783 0.0
H4467 H 0.59871 0.41104 0.56584 0.0
H4468 H 0.5893 0.36212 0.6249 0.0
H4469 H 0.55315 0.34802 0.60819 0.0
C4470 C 0.5316 0.36982 0.57315 0.0
C4471 C 0.52151 0.38595 0.55795 0.0
C4472 C 0.55449 0.373 0.57873 0.0
C4473 C 0.53518 0.40136 0.54376 0.0
C4474 C 0.5586 0.40321 0.54762 0.0
C4475 C 0.5889 0.39718 0.57513 0.0
C4476 C 0.59586 0.38836 0.5972 0.0
C4477 C 0.56782 0.39046 0.56641 0.0
C4478 C 0.58366 0.36966 0.60831 0.0
C4479 C 0.56317 0.36158 0.59871 0.0
H4480 H 0.1646 0.76594 0.89889 0.0
H4481 H 0.13481 0.78173 0.96828 0.0
H4482 H 0.1307 0.82258 0.95638 0.0
H4483 H 0.14987 0.85388 0.93292 0.0
H4484 H 0.18513 0.83776 0.86618 0.0
H4485 H 0.17146 0.79725 0.86934 0.0
C4486 C 0.15623 0.7782 0.9109 0.0
C4487 C 0.15097 0.77155 0.93461 0.0
C4488 C 0.15521 0.80173 0.90438 0.0
C4489 C 0.13944 0.78692 0.95005 0.0
C4490 C 0.13728 0.81028 0.94329 0.0
C4491 C 0.1537 0.84175 0.91853 0.0
C4492 C 0.16988 0.84808 0.90032 0.0
C4493 C 0.14732 0.81816 0.92147 0.0
C4494 C 0.17365 0.83276 0.88107 0.0
C4495 C 0.166 0.80955 0.88297 0.0
H4496 H 0.87259 0.8233 0.64274 0.0
H4497 H 0.93115 0.81734 0.59424 0.0
H4498 H 0.93305 0.77548 0.60448 0.0
H4499 H 0.91695 0.73916 0.62546 0.0
H4500 H 0.86078 0.74554 0.67693 0.0
H4501 H 0.85964 0.78773 0.66779 0.0
C4502 C 0.88618 0.81315 0.63458 0.0
C4503 C 0.90191 0.82469 0.61746 0.0
C4504 C 0.88757 0.78855 0.64119 0.0
C4505 C 0.91897 0.81011 0.60751 0.0
C4506 C 0.91994 0.78574 0.61337 0.0
C4507 C 0.90455 0.74958 0.63523 0.0
C4508 C 0.8887 0.73783 0.65211 0.0
C4509 C 0.90422 0.77451 0.63001 0.0
C4510 C 0.87318 0.75289 0.66398 0.0
C4511 C 0.87247 0.77742 0.65851 0.0
H4512 H 0.43943 0.78779 0.67135 0.0
H4513 H 0.48315 0.80068 0.60883 0.0
H4514 H 0.48083 0.84294 0.61546 0.0
H4515 H 0.46783 0.87732 0.64014 0.0
H4516 H 0.4185 0.865 0.69811 0.0
H4517 H 0.42132 0.82259 0.69205 0.0
C4518 C 0.44835 0.79971 0.6589 0.0
C4519 C 0.46226 0.79006 0.63981 0.0
C4520 C 0.44579 0.8247 0.66205 0.0
C4521 C 0.47291 0.80667 0.62398 0.0
C4522 C 0.47144 0.83121 0.62774 0.0
C4523 C 0.45713 0.86552 0.65117 0.0
C4524 C 0.44289 0.87531 0.66986 0.0
C4525 C 0.45812 0.84063 0.64685 0.0
C4526 C 0.42953 0.85888 0.68363 0.0
C4527 C 0.43128 0.83425 0.68018 0.0
H4528 H 0.90533 1.02566 0.23492 0.0
H4529 H 0.91466 1.00857 0.16048 0.0
H4530 H 0.90437 0.04872 0.14931 0.0
H4531 H 0.8885 0.08865 0.1609 0.0
H4532 H 0.88106 0.10422 0.23615 0.0
H4533 H 0.89479 0.0658 0.24636 0.0
C4534 C 0.90599 0.03086 0.2162 0.0
C4535 C 0.91164 1.01374 0.19874 0.0
C4536 C 0.89988 0.05417 0.20989 0.0
C4537 C 0.91136 1.02112 0.17457 0.0
C4538 C 0.90505 0.04424 0.16813 0.0
C4539 C 0.89049 0.08397 0.17953 0.0
C4540 C 0.88345 0.10016 0.19768 0.0
C4541 C 0.89875 0.06101 0.18561 0.0
C4542 C 0.88598 0.09279 0.22161 0.0
C4543 C 0.89391 0.07049 0.22759 0.0
H4544 H 0.60464 0.10697 0.94553 0.0
H4545 H 0.60247 0.17783 0.91919 0.0
H4546 H 0.5609 0.17237 0.91258 0.0
H4547 H 0.5249 0.14639 0.91237 0.0
H4548 H 0.52762 0.07668 0.94209 0.0
H4549 H 0.56863 0.08282 0.94925 0.0
C4550 C 0.59511 0.1216 0.93892 0.0
C4551 C 0.6073 0.14311 0.93338 0.0
C4552 C 0.57098 0.1183 0.93537 0.0
C4553 C 0.5941 0.16133 0.92425 0.0
C4554 C 0.57014 0.15802 0.92021 0.0
C4555 C 0.53435 0.13244 0.92047 0.0
C4556 C 0.52253 0.11063 0.92608 0.0
C4557 C 0.55833 0.13643 0.92535 0.0
C4558 C 0.53563 0.09337 0.93708 0.0
C4559 C 0.55933 0.09696 0.94129 0.0
H4560 H 0.60693 0.61863 0.45823 0.0
H4561 H 0.60673 0.68272 0.41732 0.0
H4562 H 0.56522 0.6766 0.411 0.0
H4563 H 0.52874 0.65164 0.41528 0.0
H4564 H 0.52915 0.5892 0.45895 0.0
H4565 H 0.57016 0.59608 0.46593 0.0
C4566 C 0.59782 0.6317 0.44836 0.0
C4567 C 0.61057 0.65149 0.43864 0.0
C4568 C 0.57366 0.62807 0.44497 0.0
C4569 C 0.59793 0.66767 0.42555 0.0
C4570 C 0.574 0.66394 0.42172 0.0
C4571 C 0.53766 0.63948 0.42645 0.0
C4572 C 0.52518 0.61944 0.4362 0.0
C4573 C 0.56162 0.644 0.43102 0.0
C4574 C 0.53766 0.60446 0.45087 0.0
C4575 C 0.56136 0.6085 0.45493 0.0
H4576 H 0.87883 0.32357 0.14712 0.0
H4577 H 0.92955 0.31492 0.09013 0.0
H4578 H 0.92861 0.27255 0.09765 0.0
H4579 H 0.91248 0.23689 0.11895 0.0
H4580 H 0.86293 0.24468 0.17711 0.0
H4581 H 0.86464 0.28744 0.17079 0.0
C4582 C 0.89001 0.31261 0.1364 0.0
C4583 C 0.90454 0.32357 0.11786 0.0
C4584 C 0.88962 0.28755 0.14115 0.0
C4585 C 0.91845 0.30807 0.10456 0.0
C4586 C 0.9178 0.28344 0.10888 0.0
C4587 C 0.90223 0.24772 0.1308 0.0
C4588 C 0.88755 0.23636 0.14889 0.0
C4589 C 0.90342 0.2728 0.12701 0.0
C4590 C 0.87465 0.25183 0.16339 0.0
C4591 C 0.87552 0.27667 0.15952 0.0
H4592 H 0.65077 0.78289 0.93132 0.0
H4593 H 0.57806 0.77248 0.94348 0.0
H4594 H 0.58153 0.73061 0.93687 0.0
H4595 H 0.6006 0.70567 0.90756 0.0
H4596 H 0.67064 0.72133 0.88438 0.0
H4597 H 0.67371 0.75136 0.91506 0.0
C4598 C 0.63608 0.77097 0.93403 0.0
C4599 C 0.61408 0.78026 0.93585 0.0
C4600 C 0.63788 0.74782 0.92667 0.0
C4601 C 0.59507 0.7654 0.94091 0.0
C4602 C 0.59704 0.74153 0.93656 0.0
C4603 C 0.61674 0.7152 0.90987 0.0
C4604 C 0.63477 0.71296 0.89291 0.0
C4605 C 0.61761 0.73361 0.92603 0.0
C4606 C 0.65616 0.7239 0.89666 0.0
C4607 C 0.6579 0.74101 0.91422 0.0
H4608 H 0.16222 0.4353 0.34595 0.0
H4609 H 0.19438 0.45888 0.41047 0.0
H4610 H 0.1767 0.4972 0.40599 0.0
H4611 H 0.15738 0.5257 0.38 0.0
H4612 H 0.13188 0.50302 0.31209 0.0
H4613 H 0.1423 0.46268 0.32112 0.0
C4614 C 0.16518 0.44865 0.35934 0.0
C4615 C 0.17994 0.44424 0.37838 0.0
C4616 C 0.15663 0.471 0.35555 0.0
C4617 C 0.18311 0.46168 0.3957 0.0
C4618 C 0.17328 0.48372 0.3929 0.0
C4619 C 0.15384 0.51176 0.36743 0.0
C4620 C 0.14385 0.51706 0.34544 0.0
C4621 C 0.16088 0.48886 0.37232 0.0
C4622 C 0.13962 0.49917 0.32902 0.0
C4623 C 0.1455 0.47619 0.33425 0.0
H4624 H 0.4775 0.37807 0.14286 0.0
H4625 H 0.42475 0.36642 0.19769 0.0
H4626 H 0.42729 0.32396 0.19166 0.0
H4627 H 0.446 0.28886 0.17196 0.0
H4628 H 0.49519 0.30128 0.1138 0.0
H4629 H 0.49253 0.34358 0.11998 0.0
C4630 C 0.46601 0.36645 0.15322 0.0
C4631 C 0.45073 0.37648 0.17089 0.0
C4632 C 0.46717 0.34153 0.14914 0.0
C4633 C 0.43649 0.36018 0.18388 0.0
C4634 C 0.43811 0.33551 0.18048 0.0
C4635 C 0.45599 0.30071 0.16032 0.0
C4636 C 0.47109 0.29092 0.1423 0.0
C4637 C 0.45361 0.32575 0.16336 0.0
C4638 C 0.48349 0.3074 0.12771 0.0
C4639 C 0.48195 0.33196 0.13132 0.0
H4640 H 0.90219 0.59463 0.71977 0.0
H4641 H 0.8671 0.59596 0.65304 0.0
H4642 H 0.87351 0.55394 0.64796 0.0
H4643 H 0.88665 0.51548 0.66392 0.0
H4644 H 0.92501 0.51475 0.72865 0.0
H4645 H 0.92004 0.55712 0.73288 0.0
C4646 C 0.89655 0.58594 0.7037 0.0
C4647 C 0.8845 0.59913 0.68653 0.0
C4648 C 0.90075 0.56144 0.70064 0.0
C4649 C 0.87691 0.58693 0.66626 0.0
C4650 C 0.88039 0.56261 0.66349 0.0
C4651 C 0.89438 0.52461 0.67873 0.0
C4652 C 0.9064 0.51137 0.6959 0.0
C4653 C 0.89197 0.54948 0.68072 0.0
C4654 C 0.91602 0.524 0.71493 0.0
C4655 C 0.913 0.54843 0.71744 0.0
loop_
_geom_bond_atom_site_label_1
_geom_bond_atom_site_label_2
_geom_bond_distance
_geom_bond_site_symmetry_2
_ccdc_geom_bond_type
Co0 O3 2.042 . S
Co0 O10 2.264 . S
Co0 O29 2.286 . S
Co0 O30 2.069 . S
Co0 O32 2.015 . S
Co1 O3 2.122 . S
Co1 O9 2.073 . S
Co1 O10 2.327 . S
Co1 O11 1.976 . S
Co2 O3 2.087 . S
Co2 O5 2.087 . S
Co2 O12 2.111 . S
Co2 O13 2.143 . S
Co2 O17 2.111 . S
Co2 O31 2.143 . S
O3 Co0 2.042 . S
O3 Co1 2.122 . S
O3 Co2 2.087 . S
O3 H4 0.980 . S
H4 O3 0.980 . S
O5 Co2 2.087 . S
O5 Co6 2.042 . S
O5 Co7 2.122 . S
O5 H8 0.980 . S
Co6 O5 2.042 . S
Co6 O14 2.286 . S
Co6 O15 2.069 . S
Co6 O16 2.015 . S
Co6 O19 2.264 . S
Co7 O5 2.122 . S
Co7 O18 1.976 . S
Co7 O19 2.327 . S
Co7 O20 2.073 . S
H8 O5 0.980 . S
O9 Co1 2.073 . S
O9 C24 1.245 . S
O10 Co0 2.264 . S
O10 Co1 2.327 . S
O10 C24 1.257 . S
O11 Co1 1.976 . S
O11 C23 1.251 . S
O12 Co2 2.111 . S
O12 C23 1.274 . S
O13 Co2 2.143 . S
O13 C26 1.246 . S
O14 Co6 2.286 . S
O14 C25 1.259 . S
O15 Co6 2.069 . S
O15 C25 1.289 . S
O16 Co6 2.015 . S
O16 C26 1.257 . S
O17 Co2 2.111 . S
O17 C27 1.274 . S
O18 Co7 1.976 . S
O18 C27 1.251 . S
O19 Co6 2.264 . S
O19 Co7 2.327 . S
O19 C28 1.257 . S
O20 Co7 2.073 . S
O20 C28 1.245 . S
C21 O29 1.259 . S
C21 O30 1.289 . S
C22 O31 1.246 . S
C22 O32 1.257 . S
C23 O11 1.251 . S
C23 O12 1.274 . S
C24 O9 1.245 . S
C24 O10 1.257 . S
C25 O14 1.259 . S
C25 O15 1.289 . S
C26 O13 1.246 . S
C26 O16 1.257 . S
C27 O17 1.274 . S
C27 O18 1.251 . S
C28 O19 1.257 . S
C28 O20 1.245 . S
O29 Co0 2.286 . S
O29 C21 1.259 . S
O30 Co0 2.069 . S
O30 C21 1.289 . S
O31 Co2 2.143 . S
O31 C22 1.246 . S
O32 Co0 2.015 . S
O32 C22 1.257 . S
Co33 O36 2.042 . S
Co33 O43 2.264 . S
Co33 O62 2.286 . S
Co33 O63 2.069 . S
Co33 O65 2.015 . S
Co34 O36 2.122 . S
Co34 O42 2.073 . S
Co34 O43 2.327 . S
Co34 O44 1.976 . S
Co35 O36 2.087 . S
Co35 O38 2.087 . S
Co35 O45 2.111 . S
Co35 O46 2.143 . S
Co35 O50 2.111 . S
Co35 O64 2.143 . S
O36 Co33 2.042 . S
O36 Co34 2.122 . S
O36 Co35 2.087 . S
O36 H37 0.980 . S
H37 O36 0.980 . S
O38 Co35 2.087 . S
O38 Co39 2.042 . S
O38 Co40 2.122 . S
O38 H41 0.980 . S
Co39 O38 2.042 . S
Co39 O47 2.286 . S
Co39 O48 2.069 . S
Co39 O49 2.015 . S
Co39 O52 2.264 . S
Co40 O38 2.122 . S
Co40 O51 1.976 . S
Co40 O52 2.327 . S
Co40 O53 2.073 . S
H41 O38 0.980 . S
O42 Co34 2.073 . S
O42 C57 1.245 . S
O43 Co33 2.264 . S
O43 Co34 2.327 . S
O43 C57 1.257 . S
O44 Co34 1.976 . S
O44 C56 1.251 . S
O45 Co35 2.111 . S
O45 C56 1.274 . S
O46 Co35 2.143 . S
O46 C59 1.246 . S
O47 Co39 2.286 . S
O47 C58 1.259 . S
O48 Co39 2.069 . S
O48 C58 1.289 . S
O49 Co39 2.015 . S
O49 C59 1.257 . S
O50 Co35 2.111 . S
O50 C60 1.274 . S
O51 Co40 1.976 . S
O51 C60 1.251 . S
O52 Co39 2.264 . S
O52 Co40 2.327 . S
O52 C61 1.257 . S
O53 Co40 2.073 . S
O53 C61 1.245 . S
C54 O62 1.259 . S
C54 O63 1.289 . S
C55 O64 1.246 . S
C55 O65 1.257 . S
C56 O44 1.251 . S
C56 O45 1.274 . S
C57 O42 1.245 . S
C57 O43 1.257 . S
C58 O47 1.259 . S
C58 O48 1.289 . S
C59 O46 1.246 . S
C59 O49 1.257 . S
C60 O50 1.274 . S
C60 O51 1.251 . S
C61 O52 1.257 . S
C61 O53 1.245 . S
O62 Co33 2.286 . S
O62 C54 1.259 . S
O63 Co33 2.069 . S
O63 C54 1.289 . S
O64 Co35 2.143 . S
O64 C55 1.246 . S
O65 Co33 2.015 . S
O65 C55 1.257 . S
Co66 O69 2.042 . S
Co66 O76 2.264 . S
Co66 O95 2.286 . S
Co66 O96 2.069 . S
Co66 O98 2.015 . S
Co67 O69 2.122 . S
Co67 O75 2.073 . S
Co67 O76 2.327 . S
Co67 O77 1.976 . S
Co68 O69 2.087 . S
Co68 O71 2.087 . S
Co68 O78 2.111 . S
Co68 O79 2.143 . S
Co68 O83 2.111 . S
Co68 O97 2.143 . S
O69 Co66 2.042 . S
O69 Co67 2.122 . S
O69 Co68 2.087 . S
O69 H70 0.980 . S
H70 O69 0.980 . S
O71 Co68 2.087 . S
O71 Co72 2.042 . S
O71 Co73 2.122 . S
O71 H74 0.980 . S
Co72 O71 2.042 . S
Co72 O80 2.286 . S
Co72 O81 2.069 . S
Co72 O82 2.015 . S
Co72 O85 2.264 . S
Co73 O71 2.122 . S
Co73 O84 1.976 . S
Co73 O85 2.327 . S
Co73 O86 2.073 . S
H74 O71 0.980 . S
O75 Co67 2.073 . S
O75 C90 1.245 . S
O76 Co66 2.264 . S
O76 Co67 2.327 . S
O76 C90 1.257 . S
O77 Co67 1.976 . S
O77 C89 1.251 . S
O78 Co68 2.111 . S
O78 C89 1.274 . S
O79 Co68 2.143 . S
O79 C92 1.246 . S
O80 Co72 2.286 . S
O80 C91 1.259 . S
O81 Co72 2.069 . S
O81 C91 1.289 . S
O82 Co72 2.015 . S
O82 C92 1.257 . S
O83 Co68 2.111 . S
O83 C93 1.274 . S
O84 Co73 1.976 . S
O84 C93 1.251 . S
O85 Co72 2.264 . S
O85 Co73 2.327 . S
O85 C94 1.257 . S
O86 Co73 2.073 . S
O86 C94 1.245 . S
C87 O95 1.259 . S
C87 O96 1.289 . S
C88 O97 1.246 . S
C88 O98 1.257 . S
C89 O77 1.251 . S
C89 O78 1.274 . S
C90 O75 1.245 . S
C90 O76 1.257 . S
C91 O80 1.259 . S
C91 O81 1.289 . S
C92 O79 1.246 . S
C92 O82 1.257 . S
C93 O83 1.274 . S
C93 O84 1.251 . S
C94 O85 1.257 . S
C94 O86 1.245 . S
O95 Co66 2.286 . S
O95 C87 1.259 . S
O96 Co66 2.069 . S
O96 C87 1.289 . S
O97 Co68 2.143 . S
O97 C88 1.246 . S
O98 Co66 2.015 . S
O98 C88 1.257 . S
Co99 O102 2.042 . S
Co99 O109 2.264 . S
Co99 O128 2.286 . S
Co99 O129 2.069 . S
Co99 O131 2.015 . S
Co100 O102 2.122 . S
Co100 O108 2.073 . S
Co100 O109 2.327 . S
Co100 O110 1.976 . S
Co101 O102 2.087 . S
Co101 O104 2.087 . S
Co101 O111 2.111 . S
Co101 O112 2.143 . S
Co101 O116 2.111 . S
Co101 O130 2.143 . S
O102 Co99 2.042 . S
O102 Co100 2.122 . S
O102 Co101 2.087 . S
O102 H103 0.980 . S
H103 O102 0.980 . S
O104 Co101 2.087 . S
O104 Co105 2.042 . S
O104 Co106 2.122 . S
O104 H107 0.980 . S
Co105 O104 2.042 . S
Co105 O113 2.286 . S
Co105 O114 2.069 . S
Co105 O115 2.015 . S
Co105 O118 2.264 . S
Co106 O104 2.122 . S
Co106 O117 1.976 . S
Co106 O118 2.327 . S
Co106 O119 2.073 . S
H107 O104 0.980 . S
O108 Co100 2.073 . S
O108 C123 1.245 . S
O109 Co99 2.264 . S
O109 Co100 2.327 . S
O109 C123 1.257 . S
O110 Co100 1.976 . S
O110 C122 1.251 . S
O111 Co101 2.111 . S
O111 C122 1.274 . S
O112 Co101 2.143 . S
O112 C125 1.246 . S
O113 Co105 2.286 . S
O113 C124 1.259 . S
O114 Co105 2.069 . S
O114 C124 1.289 . S
O115 Co105 2.015 . S
O115 C125 1.257 . S
O116 Co101 2.111 . S
O116 C126 1.274 . S
O117 Co106 1.976 . S
O117 C126 1.251 . S
O118 Co105 2.264 . S
O118 Co106 2.327 . S
O118 C127 1.257 . S
O119 Co106 2.073 . S
O119 C127 1.245 . S
C120 O128 1.259 . S
C120 O129 1.289 . S
C121 O130 1.246 . S
C121 O131 1.257 . S
C122 O110 1.251 . S
C122 O111 1.274 . S
C123 O108 1.245 . S
C123 O109 1.257 . S
C124 O113 1.259 . S
C124 O114 1.289 . S
C125 O112 1.246 . S
C125 O115 1.257 . S
C126 O116 1.274 . S
C126 O117 1.251 . S
C127 O118 1.257 . S
C127 O119 1.245 . S
O128 Co99 2.286 . S
O128 C120 1.259 . S
O129 Co99 2.069 . S
O129 C120 1.289 . S
O130 Co101 2.143 . S
O130 C121 1.246 . S
O131 Co99 2.015 . S
O131 C121 1.257 . S
Co132 O135 2.042 . S
Co132 O142 2.264 . S
Co132 O161 2.286 . S
Co132 O162 2.069 . S
Co132 O164 2.015 . S
Co133 O135 2.122 . S
Co133 O141 2.073 . S
Co133 O142 2.327 . S
Co133 O143 1.976 . S
Co134 O135 2.087 . S
Co134 O137 2.087 . S
Co134 O144 2.111 . S
Co134 O145 2.143 . S
Co134 O149 2.111 . S
Co134 O163 2.143 . S
O135 Co132 2.042 . S
O135 Co133 2.122 . S
O135 Co134 2.087 . S
O135 H136 0.980 . S
H136 O135 0.980 . S
O137 Co134 2.087 . S
O137 Co138 2.042 . S
O137 Co139 2.122 . S
O137 H140 0.980 . S
Co138 O137 2.042 . S
Co138 O146 2.286 . S
Co138 O147 2.069 . S
Co138 O148 2.015 . S
Co138 O151 2.264 . S
Co139 O137 2.122 . S
Co139 O150 1.976 . S
Co139 O151 2.327 . S
Co139 O152 2.073 . S
H140 O137 0.980 . S
O141 Co133 2.073 . S
O141 C156 1.245 . S
O142 Co132 2.264 . S
O142 Co133 2.327 . S
O142 C156 1.257 . S
O143 Co133 1.976 . S
O143 C155 1.251 . S
O144 Co134 2.111 . S
O144 C155 1.274 . S
O145 Co134 2.143 . S
O145 C158 1.246 . S
O146 Co138 2.286 . S
O146 C157 1.259 . S
O147 Co138 2.069 . S
O147 C157 1.289 . S
O148 Co138 2.015 . S
O148 C158 1.257 . S
O149 Co134 2.111 . S
O149 C159 1.274 . S
O150 Co139 1.976 . S
O150 C159 1.251 . S
O151 Co138 2.264 . S
O151 Co139 2.327 . S
O151 C160 1.257 . S
O152 Co139 2.073 . S
O152 C160 1.245 . S
C153 O161 1.259 . S
C153 O162 1.289 . S
C154 O163 1.246 . S
C154 O164 1.257 . S
C155 O143 1.251 . S
C155 O144 1.274 . S
C156 O141 1.245 . S
C156 O142 1.257 . S
C157 O146 1.259 . S
C157 O147 1.289 . S
C158 O145 1.246 . S
C158 O148 1.257 . S
C159 O149 1.274 . S
C159 O150 1.251 . S
C160 O151 1.257 . S
C160 O152 1.245 . S
O161 Co132 2.286 . S
O161 C153 1.259 . S
O162 Co132 2.069 . S
O162 C153 1.289 . S
O163 Co134 2.143 . S
O163 C154 1.246 . S
O164 Co132 2.015 . S
O164 C154 1.257 . S
Co165 O168 2.042 . S
Co165 O175 2.264 . S
Co165 O194 2.286 . S
Co165 O195 2.069 . S
Co165 O197 2.015 . S
Co166 O168 2.122 . S
Co166 O174 2.073 . S
Co166 O175 2.327 . S
Co166 O176 1.976 . S
Co167 O168 2.087 . S
Co167 O170 2.087 . S
Co167 O177 2.111 . S
Co167 O178 2.143 . S
Co167 O182 2.111 . S
Co167 O196 2.143 . S
O168 Co165 2.042 . S
O168 Co166 2.122 . S
O168 Co167 2.087 . S
O168 H169 0.980 . S
H169 O168 0.980 . S
O170 Co167 2.087 . S
O170 Co171 2.042 . S
O170 Co172 2.122 . S
O170 H173 0.980 . S
Co171 O170 2.042 . S
Co171 O179 2.286 . S
Co171 O180 2.069 . S
Co171 O181 2.015 . S
Co171 O184 2.264 . S
Co172 O170 2.122 . S
Co172 O183 1.976 . S
Co172 O184 2.327 . S
Co172 O185 2.073 . S
H173 O170 0.980 . S
O174 Co166 2.073 . S
O174 C189 1.245 . S
O175 Co165 2.264 . S
O175 Co166 2.327 . S
O175 C189 1.257 . S
O176 Co166 1.976 . S
O176 C188 1.251 . S
O177 Co167 2.111 . S
O177 C188 1.274 . S
O178 Co167 2.143 . S
O178 C191 1.246 . S
O179 Co171 2.286 . S
O179 C190 1.259 . S
O180 Co171 2.069 . S
O180 C190 1.289 . S
O181 Co171 2.015 . S
O181 C191 1.257 . S
O182 Co167 2.111 . S
O182 C192 1.274 . S
O183 Co172 1.976 . S
O183 C192 1.251 . S
O184 Co171 2.264 . S
O184 Co172 2.327 . S
O184 C193 1.257 . S
O185 Co172 2.073 . S
O185 C193 1.245 . S
C186 O194 1.259 . S
C186 O195 1.289 . S
C187 O196 1.246 . S
C187 O197 1.257 . S
C188 O176 1.251 . S
C188 O177 1.274 . S
C189 O174 1.245 . S
C189 O175 1.257 . S
C190 O179 1.259 . S
C190 O180 1.289 . S
C191 O178 1.246 . S
C191 O181 1.257 . S
C192 O182 1.274 . S
C192 O183 1.251 . S
C193 O184 1.257 . S
C193 O185 1.245 . S
O194 Co165 2.286 . S
O194 C186 1.259 . S
O195 Co165 2.069 . S
O195 C186 1.289 . S
O196 Co167 2.143 . S
O196 C187 1.246 . S
O197 Co165 2.015 . S
O197 C187 1.257 . S
Co198 O201 2.042 . S
Co198 O208 2.264 . S
Co198 O227 2.286 . S
Co198 O228 2.069 . S
Co198 O230 2.015 . S
Co199 O201 2.122 . S
Co199 O207 2.073 . S
Co199 O208 2.327 . S
Co199 O209 1.976 . S
Co200 O201 2.087 . S
Co200 O203 2.087 . S
Co200 O210 2.111 . S
Co200 O211 2.143 . S
Co200 O215 2.111 . S
Co200 O229 2.143 . S
O201 Co198 2.042 . S
O201 Co199 2.122 . S
O201 Co200 2.087 . S
O201 H202 0.980 . S
H202 O201 0.980 . S
O203 Co200 2.087 . S
O203 Co204 2.042 . S
O203 Co205 2.122 . S
O203 H206 0.980 . S
Co204 O203 2.042 . S
Co204 O212 2.286 . S
Co204 O213 2.069 . S
Co204 O214 2.015 . S
Co204 O217 2.264 . S
Co205 O203 2.122 . S
Co205 O216 1.976 . S
Co205 O217 2.327 . S
Co205 O218 2.073 . S
H206 O203 0.980 . S
O207 Co199 2.073 . S
O207 C222 1.245 . S
O208 Co198 2.264 . S
O208 Co199 2.327 . S
O208 C222 1.257 . S
O209 Co199 1.976 . S
O209 C221 1.251 . S
O210 Co200 2.111 . S
O210 C221 1.274 . S
O211 Co200 2.143 . S
O211 C224 1.246 . S
O212 Co204 2.286 . S
O212 C223 1.259 . S
O213 Co204 2.069 . S
O213 C223 1.289 . S
O214 Co204 2.015 . S
O214 C224 1.257 . S
O215 Co200 2.111 . S
O215 C225 1.274 . S
O216 Co205 1.976 . S
O216 C225 1.251 . S
O217 Co204 2.264 . S
O217 Co205 2.327 . S
O217 C226 1.257 . S
O218 Co205 2.073 . S
O218 C226 1.245 . S
C219 O227 1.259 . S
C219 O228 1.289 . S
C220 O229 1.246 . S
C220 O230 1.257 . S
C221 O209 1.251 . S
C221 O210 1.274 . S
C222 O207 1.245 . S
C222 O208 1.257 . S
C223 O212 1.259 . S
C223 O213 1.289 . S
C224 O211 1.246 . S
C224 O214 1.257 . S
C225 O215 1.274 . S
C225 O216 1.251 . S
C226 O217 1.257 . S
C226 O218 1.245 . S
O227 Co198 2.286 . S
O227 C219 1.259 . S
O228 Co198 2.069 . S
O228 C219 1.289 . S
O229 Co200 2.143 . S
O229 C220 1.246 . S
O230 Co198 2.015 . S
O230 C220 1.257 . S
Co231 O234 2.042 . S
Co231 O241 2.264 . S
Co231 O260 2.286 . S
Co231 O261 2.069 . S
Co231 O263 2.015 . S
Co232 O234 2.122 . S
Co232 O240 2.073 . S
Co232 O241 2.327 . S
Co232 O242 1.976 . S
Co233 O234 2.087 . S
Co233 O236 2.087 . S
Co233 O243 2.111 . S
Co233 O244 2.143 . S
Co233 O248 2.111 . S
Co233 O262 2.143 . S
O234 Co231 2.042 . S
O234 Co232 2.122 . S
O234 Co233 2.087 . S
O234 H235 0.980 . S
H235 O234 0.980 . S
O236 Co233 2.087 . S
O236 Co237 2.042 . S
O236 Co238 2.122 . S
O236 H239 0.980 . S
Co237 O236 2.042 . S
Co237 O245 2.286 . S
Co237 O246 2.069 . S
Co237 O247 2.015 . S
Co237 O250 2.264 . S
Co238 O236 2.122 . S
Co238 O249 1.976 . S
Co238 O250 2.327 . S
Co238 O251 2.073 . S
H239 O236 0.980 . S
O240 Co232 2.073 . S
O240 C255 1.245 . S
O241 Co231 2.264 . S
O241 Co232 2.327 . S
O241 C255 1.257 . S
O242 Co232 1.976 . S
O242 C254 1.251 . S
O243 Co233 2.111 . S
O243 C254 1.274 . S
O244 Co233 2.143 . S
O244 C257 1.246 . S
O245 Co237 2.286 . S
O245 C256 1.259 . S
O246 Co237 2.069 . S
O246 C256 1.289 . S
O247 Co237 2.015 . S
O247 C257 1.257 . S
O248 Co233 2.111 . S
O248 C258 1.274 . S
O249 Co238 1.976 . S
O249 C258 1.251 . S
O250 Co237 2.264 . S
O250 Co238 2.327 . S
O250 C259 1.257 . S
O251 Co238 2.073 . S
O251 C259 1.245 . S
C252 O260 1.259 . S
C252 O261 1.289 . S
C253 O262 1.246 . S
C253 O263 1.257 . S
C254 O242 1.251 . S
C254 O243 1.274 . S
C255 O240 1.245 . S
C255 O241 1.257 . S
C256 O245 1.259 . S
C256 O246 1.289 . S
C257 O244 1.246 . S
C257 O247 1.257 . S
C258 O248 1.274 . S
C258 O249 1.251 . S
C259 O250 1.257 . S
C259 O251 1.245 . S
O260 Co231 2.286 . S
O260 C252 1.259 . S
O261 Co231 2.069 . S
O261 C252 1.289 . S
O262 Co233 2.143 . S
O262 C253 1.246 . S
O263 Co231 2.015 . S
O263 C253 1.257 . S
Co264 O267 2.042 . S
Co264 O274 2.264 . S
Co264 O293 2.286 . S
Co264 O294 2.069 . S
Co264 O296 2.015 . S
Co265 O267 2.122 . S
Co265 O273 2.073 . S
Co265 O274 2.327 . S
Co265 O275 1.976 . S
Co266 O267 2.087 . S
Co266 O269 2.087 . S
Co266 O276 2.111 . S
Co266 O277 2.143 . S
Co266 O281 2.111 . S
Co266 O295 2.143 . S
O267 Co264 2.042 . S
O267 Co265 2.122 . S
O267 Co266 2.087 . S
O267 H268 0.980 . S
H268 O267 0.980 . S
O269 Co266 2.087 . S
O269 Co270 2.042 . S
O269 Co271 2.122 . S
O269 H272 0.980 . S
Co270 O269 2.042 . S
Co270 O278 2.286 . S
Co270 O279 2.069 . S
Co270 O280 2.015 . S
Co270 O283 2.264 . S
Co271 O269 2.122 . S
Co271 O282 1.976 . S
Co271 O283 2.327 . S
Co271 O284 2.073 . S
H272 O269 0.980 . S
O273 Co265 2.073 . S
O273 C288 1.245 . S
O274 Co264 2.264 . S
O274 Co265 2.327 . S
O274 C288 1.257 . S
O275 Co265 1.976 . S
O275 C287 1.251 . S
O276 Co266 2.111 . S
O276 C287 1.274 . S
O277 Co266 2.143 . S
O277 C290 1.246 . S
O278 Co270 2.286 . S
O278 C289 1.259 . S
O279 Co270 2.069 . S
O279 C289 1.289 . S
O280 Co270 2.015 . S
O280 C290 1.257 . S
O281 Co266 2.111 . S
O281 C291 1.274 . S
O282 Co271 1.976 . S
O282 C291 1.251 . S
O283 Co270 2.264 . S
O283 Co271 2.327 . S
O283 C292 1.257 . S
O284 Co271 2.073 . S
O284 C292 1.245 . S
C285 O293 1.259 . S
C285 O294 1.289 . S
C286 O295 1.246 . S
C286 O296 1.257 . S
C287 O275 1.251 . S
C287 O276 1.274 . S
C288 O273 1.245 . S
C288 O274 1.257 . S
C289 O278 1.259 . S
C289 O279 1.289 . S
C290 O277 1.246 . S
C290 O280 1.257 . S
C291 O281 1.274 . S
C291 O282 1.251 . S
C292 O283 1.257 . S
C292 O284 1.245 . S
O293 Co264 2.286 . S
O293 C285 1.259 . S
O294 Co264 2.069 . S
O294 C285 1.289 . S
O295 Co266 2.143 . S
O295 C286 1.246 . S
O296 Co264 2.015 . S
O296 C286 1.257 . S
Co297 O300 2.042 . S
Co297 O307 2.264 . S
Co297 O326 2.286 . S
Co297 O327 2.069 . S
Co297 O329 2.015 . S
Co298 O300 2.122 . S
Co298 O306 2.073 . S
Co298 O307 2.327 . S
Co298 O308 1.976 . S
Co299 O300 2.087 . S
Co299 O302 2.087 . S
Co299 O309 2.111 . S
Co299 O310 2.143 . S
Co299 O314 2.111 . S
Co299 O328 2.143 . S
O300 Co297 2.042 . S
O300 Co298 2.122 . S
O300 Co299 2.087 . S
O300 H301 0.980 . S
H301 O300 0.980 . S
O302 Co299 2.087 . S
O302 Co303 2.042 . S
O302 Co304 2.122 . S
O302 H305 0.980 . S
Co303 O302 2.042 . S
Co303 O311 2.286 . S
Co303 O312 2.069 . S
Co303 O313 2.015 . S
Co303 O316 2.264 . S
Co304 O302 2.122 . S
Co304 O315 1.976 . S
Co304 O316 2.327 . S
Co304 O317 2.073 . S
H305 O302 0.980 . S
O306 Co298 2.073 . S
O306 C321 1.245 . S
O307 Co297 2.264 . S
O307 Co298 2.327 . S
O307 C321 1.257 . S
O308 Co298 1.976 . S
O308 C320 1.251 . S
O309 Co299 2.111 . S
O309 C320 1.274 . S
O310 Co299 2.143 . S
O310 C323 1.246 . S
O311 Co303 2.286 . S
O311 C322 1.259 . S
O312 Co303 2.069 . S
O312 C322 1.289 . S
O313 Co303 2.015 . S
O313 C323 1.257 . S
O314 Co299 2.111 . S
O314 C324 1.274 . S
O315 Co304 1.976 . S
O315 C324 1.251 . S
O316 Co303 2.264 . S
O316 Co304 2.327 . S
O316 C325 1.257 . S
O317 Co304 2.073 . S
O317 C325 1.245 . S
C318 O326 1.259 . S
C318 O327 1.289 . S
C319 O328 1.246 . S
C319 O329 1.257 . S
C320 O308 1.251 . S
C320 O309 1.274 . S
C321 O306 1.245 . S
C321 O307 1.257 . S
C322 O311 1.259 . S
C322 O312 1.289 . S
C323 O310 1.246 . S
C323 O313 1.257 . S
C324 O314 1.274 . S
C324 O315 1.251 . S
C325 O316 1.257 . S
C325 O317 1.245 . S
O326 Co297 2.286 . S
O326 C318 1.259 . S
O327 Co297 2.069 . S
O327 C318 1.289 . S
O328 Co299 2.143 . S
O328 C319 1.246 . S
O329 Co297 2.015 . S
O329 C319 1.257 . S
Co330 O333 2.042 . S
Co330 O340 2.264 . S
Co330 O359 2.286 . S
Co330 O360 2.069 . S
Co330 O362 2.015 . S
Co331 O333 2.122 . S
Co331 O339 2.073 . S
Co331 O340 2.327 . S
Co331 O341 1.976 . S
Co332 O333 2.087 . S
Co332 O335 2.087 . S
Co332 O342 2.111 . S
Co332 O343 2.143 . S
Co332 O347 2.111 . S
Co332 O361 2.143 . S
O333 Co330 2.042 . S
O333 Co331 2.122 . S
O333 Co332 2.087 . S
O333 H334 0.980 . S
H334 O333 0.980 . S
O335 Co332 2.087 . S
O335 Co336 2.042 . S
O335 Co337 2.122 . S
O335 H338 0.980 . S
Co336 O335 2.042 . S
Co336 O344 2.286 . S
Co336 O345 2.069 . S
Co336 O346 2.015 . S
Co336 O349 2.264 . S
Co337 O335 2.122 . S
Co337 O348 1.976 . S
Co337 O349 2.327 . S
Co337 O350 2.073 . S
H338 O335 0.980 . S
O339 Co331 2.073 . S
O339 C354 1.245 . S
O340 Co330 2.264 . S
O340 Co331 2.327 . S
O340 C354 1.257 . S
O341 Co331 1.976 . S
O341 C353 1.251 . S
O342 Co332 2.111 . S
O342 C353 1.274 . S
O343 Co332 2.143 . S
O343 C356 1.246 . S
O344 Co336 2.286 . S
O344 C355 1.259 . S
O345 Co336 2.069 . S
O345 C355 1.289 . S
O346 Co336 2.015 . S
O346 C356 1.257 . S
O347 Co332 2.111 . S
O347 C357 1.274 . S
O348 Co337 1.976 . S
O348 C357 1.251 . S
O349 Co336 2.264 . S
O349 Co337 2.327 . S
O349 C358 1.257 . S
O350 Co337 2.073 . S
O350 C358 1.245 . S
C351 O359 1.259 . S
C351 O360 1.289 . S
C352 O361 1.246 . S
C352 O362 1.257 . S
C353 O341 1.251 . S
C353 O342 1.274 . S
C354 O339 1.245 . S
C354 O340 1.257 . S
C355 O344 1.259 . S
C355 O345 1.289 . S
C356 O343 1.246 . S
C356 O346 1.257 . S
C357 O347 1.274 . S
C357 O348 1.251 . S
C358 O349 1.257 . S
C358 O350 1.245 . S
O359 Co330 2.286 . S
O359 C351 1.259 . S
O360 Co330 2.069 . S
O360 C351 1.289 . S
O361 Co332 2.143 . S
O361 C352 1.246 . S
O362 Co330 2.015 . S
O362 C352 1.257 . S
Co363 O366 2.042 . S
Co363 O373 2.264 . S
Co363 O392 2.286 . S
Co363 O393 2.069 . S
Co363 O395 2.015 . S
Co364 O366 2.122 . S
Co364 O372 2.073 . S
Co364 O373 2.327 . S
Co364 O374 1.976 . S
Co365 O366 2.087 . S
Co365 O368 2.087 . S
Co365 O375 2.111 . S
Co365 O376 2.143 . S
Co365 O380 2.111 . S
Co365 O394 2.143 . S
O366 Co363 2.042 . S
O366 Co364 2.122 . S
O366 Co365 2.087 . S
O366 H367 0.980 . S
H367 O366 0.980 . S
O368 Co365 2.087 . S
O368 Co369 2.042 . S
O368 Co370 2.122 . S
O368 H371 0.980 . S
Co369 O368 2.042 . S
Co369 O377 2.286 . S
Co369 O378 2.069 . S
Co369 O379 2.015 . S
Co369 O382 2.264 . S
Co370 O368 2.122 . S
Co370 O381 1.976 . S
Co370 O382 2.327 . S
Co370 O383 2.073 . S
H371 O368 0.980 . S
O372 Co364 2.073 . S
O372 C387 1.245 . S
O373 Co363 2.264 . S
O373 Co364 2.327 . S
O373 C387 1.257 . S
O374 Co364 1.976 . S
O374 C386 1.251 . S
O375 Co365 2.111 . S
O375 C386 1.274 . S
O376 Co365 2.143 . S
O376 C389 1.246 . S
O377 Co369 2.286 . S
O377 C388 1.259 . S
O378 Co369 2.069 . S
O378 C388 1.289 . S
O379 Co369 2.015 . S
O379 C389 1.257 . S
O380 Co365 2.111 . S
O380 C390 1.274 . S
O381 Co370 1.976 . S
O381 C390 1.251 . S
O382 Co369 2.264 . S
O382 Co370 2.327 . S
O382 C391 1.257 . S
O383 Co370 2.073 . S
O383 C391 1.245 . S
C384 O392 1.259 . S
C384 O393 1.289 . S
C385 O394 1.246 . S
C385 O395 1.257 . S
C386 O374 1.251 . S
C386 O375 1.274 . S
C387 O372 1.245 . S
C387 O373 1.257 . S
C388 O377 1.259 . S
C388 O378 1.289 . S
C389 O376 1.246 . S
C389 O379 1.257 . S
C390 O380 1.274 . S
C390 O381 1.251 . S
C391 O382 1.257 . S
C391 O383 1.245 . S
O392 Co363 2.286 . S
O392 C384 1.259 . S
O393 Co363 2.069 . S
O393 C384 1.289 . S
O394 Co365 2.143 . S
O394 C385 1.246 . S
O395 Co363 2.015 . S
O395 C385 1.257 . S
Co396 O399 2.042 . S
Co396 O406 2.264 . S
Co396 O425 2.286 . S
Co396 O426 2.069 . S
Co396 O428 2.015 . S
Co397 O399 2.122 . S
Co397 O405 2.073 . S
Co397 O406 2.327 . S
Co397 O407 1.976 . S
Co398 O399 2.087 . S
Co398 O401 2.087 . S
Co398 O408 2.111 . S
Co398 O409 2.143 . S
Co398 O413 2.111 . S
Co398 O427 2.143 . S
O399 Co396 2.042 . S
O399 Co397 2.122 . S
O399 Co398 2.087 . S
O399 H400 0.980 . S
H400 O399 0.980 . S
O401 Co398 2.087 . S
O401 Co402 2.042 . S
O401 Co403 2.122 . S
O401 H404 0.980 . S
Co402 O401 2.042 . S
Co402 O410 2.286 . S
Co402 O411 2.069 . S
Co402 O412 2.015 . S
Co402 O415 2.264 . S
Co403 O401 2.122 . S
Co403 O414 1.976 . S
Co403 O415 2.327 . S
Co403 O416 2.073 . S
H404 O401 0.980 . S
O405 Co397 2.073 . S
O405 C420 1.245 . S
O406 Co396 2.264 . S
O406 Co397 2.327 . S
O406 C420 1.257 . S
O407 Co397 1.976 . S
O407 C419 1.251 . S
O408 Co398 2.111 . S
O408 C419 1.274 . S
O409 Co398 2.143 . S
O409 C422 1.246 . S
O410 Co402 2.286 . S
O410 C421 1.259 . S
O411 Co402 2.069 . S
O411 C421 1.289 . S
O412 Co402 2.015 . S
O412 C422 1.257 . S
O413 Co398 2.111 . S
O413 C423 1.274 . S
O414 Co403 1.976 . S
O414 C423 1.251 . S
O415 Co402 2.264 . S
O415 Co403 2.327 . S
O415 C424 1.257 . S
O416 Co403 2.073 . S
O416 C424 1.245 . S
C417 O425 1.259 . S
C417 O426 1.289 . S
C418 O427 1.246 . S
C418 O428 1.257 . S
C419 O407 1.251 . S
C419 O408 1.274 . S
C420 O405 1.245 . S
C420 O406 1.257 . S
C421 O410 1.259 . S
C421 O411 1.289 . S
C422 O409 1.246 . S
C422 O412 1.257 . S
C423 O413 1.274 . S
C423 O414 1.251 . S
C424 O415 1.257 . S
C424 O416 1.245 . S
O425 Co396 2.286 . S
O425 C417 1.259 . S
O426 Co396 2.069 . S
O426 C417 1.289 . S
O427 Co398 2.143 . S
O427 C418 1.246 . S
O428 Co396 2.015 . S
O428 C418 1.257 . S
Co429 O432 2.042 . S
Co429 O439 2.264 . S
Co429 O458 2.286 . S
Co429 O459 2.069 . S
Co429 O461 2.015 . S
Co430 O432 2.122 . S
Co430 O438 2.073 . S
Co430 O439 2.327 . S
Co430 O440 1.976 . S
Co431 O432 2.087 . S
Co431 O434 2.087 . S
Co431 O441 2.111 . S
Co431 O442 2.143 . S
Co431 O446 2.111 . S
Co431 O460 2.143 . S
O432 Co429 2.042 . S
O432 Co430 2.122 . S
O432 Co431 2.087 . S
O432 H433 0.980 . S
H433 O432 0.980 . S
O434 Co431 2.087 . S
O434 Co435 2.042 . S
O434 Co436 2.122 . S
O434 H437 0.980 . S
Co435 O434 2.042 . S
Co435 O443 2.286 . S
Co435 O444 2.069 . S
Co435 O445 2.015 . S
Co435 O448 2.264 . S
Co436 O434 2.122 . S
Co436 O447 1.976 . S
Co436 O448 2.327 . S
Co436 O449 2.073 . S
H437 O434 0.980 . S
O438 Co430 2.073 . S
O438 C453 1.245 . S
O439 Co429 2.264 . S
O439 Co430 2.327 . S
O439 C453 1.257 . S
O440 Co430 1.976 . S
O440 C452 1.251 . S
O441 Co431 2.111 . S
O441 C452 1.274 . S
O442 Co431 2.143 . S
O442 C455 1.246 . S
O443 Co435 2.286 . S
O443 C454 1.259 . S
O444 Co435 2.069 . S
O444 C454 1.289 . S
O445 Co435 2.015 . S
O445 C455 1.257 . S
O446 Co431 2.111 . S
O446 C456 1.274 . S
O447 Co436 1.976 . S
O447 C456 1.251 . S
O448 Co435 2.264 . S
O448 Co436 2.327 . S
O448 C457 1.257 . S
O449 Co436 2.073 . S
O449 C457 1.245 . S
C450 O458 1.259 . S
C450 O459 1.289 . S
C451 O460 1.246 . S
C451 O461 1.257 . S
C452 O440 1.251 . S
C452 O441 1.274 . S
C453 O438 1.245 . S
C453 O439 1.257 . S
C454 O443 1.259 . S
C454 O444 1.289 . S
C455 O442 1.246 . S
C455 O445 1.257 . S
C456 O446 1.274 . S
C456 O447 1.251 . S
C457 O448 1.257 . S
C457 O449 1.245 . S
O458 Co429 2.286 . S
O458 C450 1.259 . S
O459 Co429 2.069 . S
O459 C450 1.289 . S
O460 Co431 2.143 . S
O460 C451 1.246 . S
O461 Co429 2.015 . S
O461 C451 1.257 . S
Co462 O465 2.042 . S
Co462 O472 2.264 . S
Co462 O491 2.286 . S
Co462 O492 2.069 . S
Co462 O494 2.015 . S
Co463 O465 2.122 . S
Co463 O471 2.073 . S
Co463 O472 2.327 . S
Co463 O473 1.976 . S
Co464 O465 2.087 . S
Co464 O467 2.087 . S
Co464 O474 2.111 . S
Co464 O475 2.143 . S
Co464 O479 2.111 . S
Co464 O493 2.143 . S
O465 Co462 2.042 . S
O465 Co463 2.122 . S
O465 Co464 2.087 . S
O465 H466 0.980 . S
H466 O465 0.980 . S
O467 Co464 2.087 . S
O467 Co468 2.042 . S
O467 Co469 2.122 . S
O467 H470 0.980 . S
Co468 O467 2.042 . S
Co468 O476 2.286 . S
Co468 O477 2.069 . S
Co468 O478 2.015 . S
Co468 O481 2.264 . S
Co469 O467 2.122 . S
Co469 O480 1.976 . S
Co469 O481 2.327 . S
Co469 O482 2.073 . S
H470 O467 0.980 . S
O471 Co463 2.073 . S
O471 C486 1.245 . S
O472 Co462 2.264 . S
O472 Co463 2.327 . S
O472 C486 1.257 . S
O473 Co463 1.976 . S
O473 C485 1.251 . S
O474 Co464 2.111 . S
O474 C485 1.274 . S
O475 Co464 2.143 . S
O475 C488 1.246 . S
O476 Co468 2.286 . S
O476 C487 1.259 . S
O477 Co468 2.069 . S
O477 C487 1.289 . S
O478 Co468 2.015 . S
O478 C488 1.257 . S
O479 Co464 2.111 . S
O479 C489 1.274 . S
O480 Co469 1.976 . S
O480 C489 1.251 . S
O481 Co468 2.264 . S
O481 Co469 2.327 . S
O481 C490 1.257 . S
O482 Co469 2.073 . S
O482 C490 1.245 . S
C483 O491 1.259 . S
C483 O492 1.289 . S
C484 O493 1.246 . S
C484 O494 1.257 . S
C485 O473 1.251 . S
C485 O474 1.274 . S
C486 O471 1.245 . S
C486 O472 1.257 . S
C487 O476 1.259 . S
C487 O477 1.289 . S
C488 O475 1.246 . S
C488 O478 1.257 . S
C489 O479 1.274 . S
C489 O480 1.251 . S
C490 O481 1.257 . S
C490 O482 1.245 . S
O491 Co462 2.286 . S
O491 C483 1.259 . S
O492 Co462 2.069 . S
O492 C483 1.289 . S
O493 Co464 2.143 . S
O493 C484 1.246 . S
O494 Co462 2.015 . S
O494 C484 1.257 . S
Co495 O498 2.042 . S
Co495 O505 2.264 . S
Co495 O524 2.286 . S
Co495 O525 2.069 . S
Co495 O527 2.015 . S
Co496 O498 2.122 . S
Co496 O504 2.073 . S
Co496 O505 2.327 . S
Co496 O506 1.976 . S
Co497 O498 2.087 . S
Co497 O500 2.087 . S
Co497 O507 2.111 . S
Co497 O508 2.143 . S
Co497 O512 2.111 . S
Co497 O526 2.143 . S
O498 Co495 2.042 . S
O498 Co496 2.122 . S
O498 Co497 2.087 . S
O498 H499 0.980 . S
H499 O498 0.980 . S
O500 Co497 2.087 . S
O500 Co501 2.042 . S
O500 Co502 2.122 . S
O500 H503 0.980 . S
Co501 O500 2.042 . S
Co501 O509 2.286 . S
Co501 O510 2.069 . S
Co501 O511 2.015 . S
Co501 O514 2.264 . S
Co502 O500 2.122 . S
Co502 O513 1.976 . S
Co502 O514 2.327 . S
Co502 O515 2.073 . S
H503 O500 0.980 . S
O504 Co496 2.073 . S
O504 C519 1.245 . S
O505 Co495 2.264 . S
O505 Co496 2.327 . S
O505 C519 1.257 . S
O506 Co496 1.976 . S
O506 C518 1.251 . S
O507 Co497 2.111 . S
O507 C518 1.274 . S
O508 Co497 2.143 . S
O508 C521 1.246 . S
O509 Co501 2.286 . S
O509 C520 1.259 . S
O510 Co501 2.069 . S
O510 C520 1.289 . S
O511 Co501 2.015 . S
O511 C521 1.257 . S
O512 Co497 2.111 . S
O512 C522 1.274 . S
O513 Co502 1.976 . S
O513 C522 1.251 . S
O514 Co501 2.264 . S
O514 Co502 2.327 . S
O514 C523 1.257 . S
O515 Co502 2.073 . S
O515 C523 1.245 . S
C516 O524 1.259 . S
C516 O525 1.289 . S
C517 O526 1.246 . S
C517 O527 1.257 . S
C518 O506 1.251 . S
C518 O507 1.274 . S
C519 O504 1.245 . S
C519 O505 1.257 . S
C520 O509 1.259 . S
C520 O510 1.289 . S
C521 O508 1.246 . S
C521 O511 1.257 . S
C522 O512 1.274 . S
C522 O513 1.251 . S
C523 O514 1.257 . S
C523 O515 1.245 . S
O524 Co495 2.286 . S
O524 C516 1.259 . S
O525 Co495 2.069 . S
O525 C516 1.289 . S
O526 Co497 2.143 . S
O526 C517 1.246 . S
O527 Co495 2.015 . S
O527 C517 1.257 . S
Co528 O531 2.042 . S
Co528 O538 2.264 . S
Co528 O557 2.286 . S
Co528 O558 2.069 . S
Co528 O560 2.015 . S
Co529 O531 2.122 . S
Co529 O537 2.073 . S
Co529 O538 2.327 . S
Co529 O539 1.976 . S
Co530 O531 2.087 . S
Co530 O533 2.087 . S
Co530 O540 2.111 . S
Co530 O541 2.143 . S
Co530 O545 2.111 . S
Co530 O559 2.143 . S
O531 Co528 2.042 . S
O531 Co529 2.122 . S
O531 Co530 2.087 . S
O531 H532 0.980 . S
H532 O531 0.980 . S
O533 Co530 2.087 . S
O533 Co534 2.042 . S
O533 Co535 2.122 . S
O533 H536 0.980 . S
Co534 O533 2.042 . S
Co534 O542 2.286 . S
Co534 O543 2.069 . S
Co534 O544 2.015 . S
Co534 O547 2.264 . S
Co535 O533 2.122 . S
Co535 O546 1.976 . S
Co535 O547 2.327 . S
Co535 O548 2.073 . S
H536 O533 0.980 . S
O537 Co529 2.073 . S
O537 C552 1.245 . S
O538 Co528 2.264 . S
O538 Co529 2.327 . S
O538 C552 1.257 . S
O539 Co529 1.976 . S
O539 C551 1.251 . S
O540 Co530 2.111 . S
O540 C551 1.274 . S
O541 Co530 2.143 . S
O541 C554 1.246 . S
O542 Co534 2.286 . S
O542 C553 1.259 . S
O543 Co534 2.069 . S
O543 C553 1.289 . S
O544 Co534 2.015 . S
O544 C554 1.257 . S
O545 Co530 2.111 . S
O545 C555 1.274 . S
O546 Co535 1.976 . S
O546 C555 1.251 . S
O547 Co534 2.264 . S
O547 Co535 2.327 . S
O547 C556 1.257 . S
O548 Co535 2.073 . S
O548 C556 1.245 . S
C549 O557 1.259 . S
C549 O558 1.289 . S
C550 O559 1.246 . S
C550 O560 1.257 . S
C551 O539 1.251 . S
C551 O540 1.274 . S
C552 O537 1.245 . S
C552 O538 1.257 . S
C553 O542 1.259 . S
C553 O543 1.289 . S
C554 O541 1.246 . S
C554 O544 1.257 . S
C555 O545 1.274 . S
C555 O546 1.251 . S
C556 O547 1.257 . S
C556 O548 1.245 . S
O557 Co528 2.286 . S
O557 C549 1.259 . S
O558 Co528 2.069 . S
O558 C549 1.289 . S
O559 Co530 2.143 . S
O559 C550 1.246 . S
O560 Co528 2.015 . S
O560 C550 1.257 . S
Co561 O564 2.042 . S
Co561 O571 2.264 . S
Co561 O590 2.286 . S
Co561 O591 2.069 . S
Co561 O593 2.015 . S
Co562 O564 2.122 . S
Co562 O570 2.073 . S
Co562 O571 2.327 . S
Co562 O572 1.976 . S
Co563 O564 2.087 . S
Co563 O566 2.087 . S
Co563 O573 2.111 . S
Co563 O574 2.143 . S
Co563 O578 2.111 . S
Co563 O592 2.143 . S
O564 Co561 2.042 . S
O564 Co562 2.122 . S
O564 Co563 2.087 . S
O564 H565 0.980 . S
H565 O564 0.980 . S
O566 Co563 2.087 . S
O566 Co567 2.042 . S
O566 Co568 2.122 . S
O566 H569 0.980 . S
Co567 O566 2.042 . S
Co567 O575 2.286 . S
Co567 O576 2.069 . S
Co567 O577 2.015 . S
Co567 O580 2.264 . S
Co568 O566 2.122 . S
Co568 O579 1.976 . S
Co568 O580 2.327 . S
Co568 O581 2.073 . S
H569 O566 0.980 . S
O570 Co562 2.073 . S
O570 C585 1.245 . S
O571 Co561 2.264 . S
O571 Co562 2.327 . S
O571 C585 1.257 . S
O572 Co562 1.976 . S
O572 C584 1.251 . S
O573 Co563 2.111 . S
O573 C584 1.274 . S
O574 Co563 2.143 . S
O574 C587 1.246 . S
O575 Co567 2.286 . S
O575 C586 1.259 . S
O576 Co567 2.069 . S
O576 C586 1.289 . S
O577 Co567 2.015 . S
O577 C587 1.257 . S
O578 Co563 2.111 . S
O578 C588 1.274 . S
O579 Co568 1.976 . S
O579 C588 1.251 . S
O580 Co567 2.264 . S
O580 Co568 2.327 . S
O580 C589 1.257 . S
O581 Co568 2.073 . S
O581 C589 1.245 . S
C582 O590 1.259 . S
C582 O591 1.289 . S
C583 O592 1.246 . S
C583 O593 1.257 . S
C584 O572 1.251 . S
C584 O573 1.274 . S
C585 O570 1.245 . S
C585 O571 1.257 . S
C586 O575 1.259 . S
C586 O576 1.289 . S
C587 O574 1.246 . S
C587 O577 1.257 . S
C588 O578 1.274 . S
C588 O579 1.251 . S
C589 O580 1.257 . S
C589 O581 1.245 . S
O590 Co561 2.286 . S
O590 C582 1.259 . S
O591 Co561 2.069 . S
O591 C582 1.289 . S
O592 Co563 2.143 . S
O592 C583 1.246 . S
O593 Co561 2.015 . S
O593 C583 1.257 . S
Co594 O597 2.042 . S
Co594 O604 2.264 . S
Co594 O623 2.286 . S
Co594 O624 2.069 . S
Co594 O626 2.015 . S
Co595 O597 2.122 . S
Co595 O603 2.073 . S
Co595 O604 2.327 . S
Co595 O605 1.976 . S
Co596 O597 2.087 . S
Co596 O599 2.087 . S
Co596 O606 2.111 . S
Co596 O607 2.143 . S
Co596 O611 2.111 . S
Co596 O625 2.143 . S
O597 Co594 2.042 . S
O597 Co595 2.122 . S
O597 Co596 2.087 . S
O597 H598 0.980 . S
H598 O597 0.980 . S
O599 Co596 2.087 . S
O599 Co600 2.042 . S
O599 Co601 2.122 . S
O599 H602 0.980 . S
Co600 O599 2.042 . S
Co600 O608 2.286 . S
Co600 O609 2.069 . S
Co600 O610 2.015 . S
Co600 O613 2.264 . S
Co601 O599 2.122 . S
Co601 O612 1.976 . S
Co601 O613 2.327 . S
Co601 O614 2.073 . S
H602 O599 0.980 . S
O603 Co595 2.073 . S
O603 C618 1.245 . S
O604 Co594 2.264 . S
O604 Co595 2.327 . S
O604 C618 1.257 . S
O605 Co595 1.976 . S
O605 C617 1.251 . S
O606 Co596 2.111 . S
O606 C617 1.274 . S
O607 Co596 2.143 . S
O607 C620 1.246 . S
O608 Co600 2.286 . S
O608 C619 1.259 . S
O609 Co600 2.069 . S
O609 C619 1.289 . S
O610 Co600 2.015 . S
O610 C620 1.257 . S
O611 Co596 2.111 . S
O611 C621 1.274 . S
O612 Co601 1.976 . S
O612 C621 1.251 . S
O613 Co600 2.264 . S
O613 Co601 2.327 . S
O613 C622 1.257 . S
O614 Co601 2.073 . S
O614 C622 1.245 . S
C615 O623 1.259 . S
C615 O624 1.289 . S
C616 O625 1.246 . S
C616 O626 1.257 . S
C617 O605 1.251 . S
C617 O606 1.274 . S
C618 O603 1.245 . S
C618 O604 1.257 . S
C619 O608 1.259 . S
C619 O609 1.289 . S
C620 O607 1.246 . S
C620 O610 1.257 . S
C621 O611 1.274 . S
C621 O612 1.251 . S
C622 O613 1.257 . S
C622 O614 1.245 . S
O623 Co594 2.286 . S
O623 C615 1.259 . S
O624 Co594 2.069 . S
O624 C615 1.289 . S
O625 Co596 2.143 . S
O625 C616 1.246 . S
O626 Co594 2.015 . S
O626 C616 1.257 . S
Co627 O630 2.042 . S
Co627 O637 2.264 . S
Co627 O656 2.286 . S
Co627 O657 2.069 . S
Co627 O659 2.015 . S
Co628 O630 2.122 . S
Co628 O636 2.073 . S
Co628 O637 2.327 . S
Co628 O638 1.976 . S
Co629 O630 2.087 . S
Co629 O632 2.087 . S
Co629 O639 2.111 . S
Co629 O640 2.143 . S
Co629 O644 2.111 . S
Co629 O658 2.143 . S
O630 Co627 2.042 . S
O630 Co628 2.122 . S
O630 Co629 2.087 . S
O630 H631 0.980 . S
H631 O630 0.980 . S
O632 Co629 2.087 . S
O632 Co633 2.042 . S
O632 Co634 2.122 . S
O632 H635 0.980 . S
Co633 O632 2.042 . S
Co633 O641 2.286 . S
Co633 O642 2.069 . S
Co633 O643 2.015 . S
Co633 O646 2.264 . S
Co634 O632 2.122 . S
Co634 O645 1.976 . S
Co634 O646 2.327 . S
Co634 O647 2.073 . S
H635 O632 0.980 . S
O636 Co628 2.073 . S
O636 C651 1.245 . S
O637 Co627 2.264 . S
O637 Co628 2.327 . S
O637 C651 1.257 . S
O638 Co628 1.976 . S
O638 C650 1.251 . S
O639 Co629 2.111 . S
O639 C650 1.274 . S
O640 Co629 2.143 . S
O640 C653 1.246 . S
O641 Co633 2.286 . S
O641 C652 1.259 . S
O642 Co633 2.069 . S
O642 C652 1.289 . S
O643 Co633 2.015 . S
O643 C653 1.257 . S
O644 Co629 2.111 . S
O644 C654 1.274 . S
O645 Co634 1.976 . S
O645 C654 1.251 . S
O646 Co633 2.264 . S
O646 Co634 2.327 . S
O646 C655 1.257 . S
O647 Co634 2.073 . S
O647 C655 1.245 . S
C648 O656 1.259 . S
C648 O657 1.289 . S
C649 O658 1.246 . S
C649 O659 1.257 . S
C650 O638 1.251 . S
C650 O639 1.274 . S
C651 O636 1.245 . S
C651 O637 1.257 . S
C652 O641 1.259 . S
C652 O642 1.289 . S
C653 O640 1.246 . S
C653 O643 1.257 . S
C654 O644 1.274 . S
C654 O645 1.251 . S
C655 O646 1.257 . S
C655 O647 1.245 . S
O656 Co627 2.286 . S
O656 C648 1.259 . S
O657 Co627 2.069 . S
O657 C648 1.289 . S
O658 Co629 2.143 . S
O658 C649 1.246 . S
O659 Co627 2.015 . S
O659 C649 1.257 . S
Co660 O663 2.042 . S
Co660 O670 2.264 . S
Co660 O689 2.286 . S
Co660 O690 2.069 . S
Co660 O692 2.015 . S
Co661 O663 2.122 . S
Co661 O669 2.073 . S
Co661 O670 2.327 . S
Co661 O671 1.976 . S
Co662 O663 2.087 . S
Co662 O665 2.087 . S
Co662 O672 2.111 . S
Co662 O673 2.143 . S
Co662 O677 2.111 . S
Co662 O691 2.143 . S
O663 Co660 2.042 . S
O663 Co661 2.122 . S
O663 Co662 2.087 . S
O663 H664 0.980 . S
H664 O663 0.980 . S
O665 Co662 2.087 . S
O665 Co666 2.042 . S
O665 Co667 2.122 . S
O665 H668 0.980 . S
Co666 O665 2.042 . S
Co666 O674 2.286 . S
Co666 O675 2.069 . S
Co666 O676 2.015 . S
Co666 O679 2.264 . S
Co667 O665 2.122 . S
Co667 O678 1.976 . S
Co667 O679 2.327 . S
Co667 O680 2.073 . S
H668 O665 0.980 . S
O669 Co661 2.073 . S
O669 C684 1.245 . S
O670 Co660 2.264 . S
O670 Co661 2.327 . S
O670 C684 1.257 . S
O671 Co661 1.976 . S
O671 C683 1.251 . S
O672 Co662 2.111 . S
O672 C683 1.274 . S
O673 Co662 2.143 . S
O673 C686 1.246 . S
O674 Co666 2.286 . S
O674 C685 1.259 . S
O675 Co666 2.069 . S
O675 C685 1.289 . S
O676 Co666 2.015 . S
O676 C686 1.257 . S
O677 Co662 2.111 . S
O677 C687 1.274 . S
O678 Co667 1.976 . S
O678 C687 1.251 . S
O679 Co666 2.264 . S
O679 Co667 2.327 . S
O679 C688 1.257 . S
O680 Co667 2.073 . S
O680 C688 1.245 . S
C681 O689 1.259 . S
C681 O690 1.289 . S
C682 O691 1.246 . S
C682 O692 1.257 . S
C683 O671 1.251 . S
C683 O672 1.274 . S
C684 O669 1.245 . S
C684 O670 1.257 . S
C685 O674 1.259 . S
C685 O675 1.289 . S
C686 O673 1.246 . S
C686 O676 1.257 . S
C687 O677 1.274 . S
C687 O678 1.251 . S
C688 O679 1.257 . S
C688 O680 1.245 . S
O689 Co660 2.286 . S
O689 C681 1.259 . S
O690 Co660 2.069 . S
O690 C681 1.289 . S
O691 Co662 2.143 . S
O691 C682 1.246 . S
O692 Co660 2.015 . S
O692 C682 1.257 . S
Co693 O696 2.042 . S
Co693 O703 2.264 . S
Co693 O722 2.286 . S
Co693 O723 2.069 . S
Co693 O725 2.015 . S
Co694 O696 2.122 . S
Co694 O702 2.073 . S
Co694 O703 2.327 . S
Co694 O704 1.976 . S
Co695 O696 2.087 . S
Co695 O698 2.087 . S
Co695 O705 2.111 . S
Co695 O706 2.143 . S
Co695 O710 2.111 . S
Co695 O724 2.143 . S
O696 Co693 2.042 . S
O696 Co694 2.122 . S
O696 Co695 2.087 . S
O696 H697 0.980 . S
H697 O696 0.980 . S
O698 Co695 2.087 . S
O698 Co699 2.042 . S
O698 Co700 2.122 . S
O698 H701 0.980 . S
Co699 O698 2.042 . S
Co699 O707 2.286 . S
Co699 O708 2.069 . S
Co699 O709 2.015 . S
Co699 O712 2.264 . S
Co700 O698 2.122 . S
Co700 O711 1.976 . S
Co700 O712 2.327 . S
Co700 O713 2.073 . S
H701 O698 0.980 . S
O702 Co694 2.073 . S
O702 C717 1.245 . S
O703 Co693 2.264 . S
O703 Co694 2.327 . S
O703 C717 1.257 . S
O704 Co694 1.976 . S
O704 C716 1.251 . S
O705 Co695 2.111 . S
O705 C716 1.274 . S
O706 Co695 2.143 . S
O706 C719 1.246 . S
O707 Co699 2.286 . S
O707 C718 1.259 . S
O708 Co699 2.069 . S
O708 C718 1.289 . S
O709 Co699 2.015 . S
O709 C719 1.257 . S
O710 Co695 2.111 . S
O710 C720 1.274 . S
O711 Co700 1.976 . S
O711 C720 1.251 . S
O712 Co699 2.264 . S
O712 Co700 2.327 . S
O712 C721 1.257 . S
O713 Co700 2.073 . S
O713 C721 1.245 . S
C714 O722 1.259 . S
C714 O723 1.289 . S
C715 O724 1.246 . S
C715 O725 1.257 . S
C716 O704 1.251 . S
C716 O705 1.274 . S
C717 O702 1.245 . S
C717 O703 1.257 . S
C718 O707 1.259 . S
C718 O708 1.289 . S
C719 O706 1.246 . S
C719 O709 1.257 . S
C720 O710 1.274 . S
C720 O711 1.251 . S
C721 O712 1.257 . S
C721 O713 1.245 . S
O722 Co693 2.286 . S
O722 C714 1.259 . S
O723 Co693 2.069 . S
O723 C714 1.289 . S
O724 Co695 2.143 . S
O724 C715 1.246 . S
O725 Co693 2.015 . S
O725 C715 1.257 . S
Co726 O729 2.042 . S
Co726 O736 2.264 . S
Co726 O755 2.286 . S
Co726 O756 2.069 . S
Co726 O758 2.015 . S
Co727 O729 2.122 . S
Co727 O735 2.073 . S
Co727 O736 2.327 . S
Co727 O737 1.976 . S
Co728 O729 2.087 . S
Co728 O731 2.087 . S
Co728 O738 2.111 . S
Co728 O739 2.143 . S
Co728 O743 2.111 . S
Co728 O757 2.143 . S
O729 Co726 2.042 . S
O729 Co727 2.122 . S
O729 Co728 2.087 . S
O729 H730 0.980 . S
H730 O729 0.980 . S
O731 Co728 2.087 . S
O731 Co732 2.042 . S
O731 Co733 2.122 . S
O731 H734 0.980 . S
Co732 O731 2.042 . S
Co732 O740 2.286 . S
Co732 O741 2.069 . S
Co732 O742 2.015 . S
Co732 O745 2.264 . S
Co733 O731 2.122 . S
Co733 O744 1.976 . S
Co733 O745 2.327 . S
Co733 O746 2.073 . S
H734 O731 0.980 . S
O735 Co727 2.073 . S
O735 C750 1.245 . S
O736 Co726 2.264 . S
O736 Co727 2.327 . S
O736 C750 1.257 . S
O737 Co727 1.976 . S
O737 C749 1.251 . S
O738 Co728 2.111 . S
O738 C749 1.274 . S
O739 Co728 2.143 . S
O739 C752 1.246 . S
O740 Co732 2.286 . S
O740 C751 1.259 . S
O741 Co732 2.069 . S
O741 C751 1.289 . S
O742 Co732 2.015 . S
O742 C752 1.257 . S
O743 Co728 2.111 . S
O743 C753 1.274 . S
O744 Co733 1.976 . S
O744 C753 1.251 . S
O745 Co732 2.264 . S
O745 Co733 2.327 . S
O745 C754 1.257 . S
O746 Co733 2.073 . S
O746 C754 1.245 . S
C747 O755 1.259 . S
C747 O756 1.289 . S
C748 O757 1.246 . S
C748 O758 1.257 . S
C749 O737 1.251 . S
C749 O738 1.274 . S
C750 O735 1.245 . S
C750 O736 1.257 . S
C751 O740 1.259 . S
C751 O741 1.289 . S
C752 O739 1.246 . S
C752 O742 1.257 . S
C753 O743 1.274 . S
C753 O744 1.251 . S
C754 O745 1.257 . S
C754 O746 1.245 . S
O755 Co726 2.286 . S
O755 C747 1.259 . S
O756 Co726 2.069 . S
O756 C747 1.289 . S
O757 Co728 2.143 . S
O757 C748 1.246 . S
O758 Co726 2.015 . S
O758 C748 1.257 . S
Co759 O762 2.042 . S
Co759 O769 2.264 . S
Co759 O788 2.286 . S
Co759 O789 2.069 . S
Co759 O791 2.015 . S
Co760 O762 2.122 . S
Co760 O768 2.073 . S
Co760 O769 2.327 . S
Co760 O770 1.976 . S
Co761 O762 2.087 . S
Co761 O764 2.087 . S
Co761 O771 2.111 . S
Co761 O772 2.143 . S
Co761 O776 2.111 . S
Co761 O790 2.143 . S
O762 Co759 2.042 . S
O762 Co760 2.122 . S
O762 Co761 2.087 . S
O762 H763 0.980 . S
H763 O762 0.980 . S
O764 Co761 2.087 . S
O764 Co765 2.042 . S
O764 Co766 2.122 . S
O764 H767 0.980 . S
Co765 O764 2.042 . S
Co765 O773 2.286 . S
Co765 O774 2.069 . S
Co765 O775 2.015 . S
Co765 O778 2.264 . S
Co766 O764 2.122 . S
Co766 O777 1.976 . S
Co766 O778 2.327 . S
Co766 O779 2.073 . S
H767 O764 0.980 . S
O768 Co760 2.073 . S
O768 C783 1.245 . S
O769 Co759 2.264 . S
O769 Co760 2.327 . S
O769 C783 1.257 . S
O770 Co760 1.976 . S
O770 C782 1.251 . S
O771 Co761 2.111 . S
O771 C782 1.274 . S
O772 Co761 2.143 . S
O772 C785 1.246 . S
O773 Co765 2.286 . S
O773 C784 1.259 . S
O774 Co765 2.069 . S
O774 C784 1.289 . S
O775 Co765 2.015 . S
O775 C785 1.257 . S
O776 Co761 2.111 . S
O776 C786 1.274 . S
O777 Co766 1.976 . S
O777 C786 1.251 . S
O778 Co765 2.264 . S
O778 Co766 2.327 . S
O778 C787 1.257 . S
O779 Co766 2.073 . S
O779 C787 1.245 . S
C780 O788 1.259 . S
C780 O789 1.289 . S
C781 O790 1.246 . S
C781 O791 1.257 . S
C782 O770 1.251 . S
C782 O771 1.274 . S
C783 O768 1.245 . S
C783 O769 1.257 . S
C784 O773 1.259 . S
C784 O774 1.289 . S
C785 O772 1.246 . S
C785 O775 1.257 . S
C786 O776 1.274 . S
C786 O777 1.251 . S
C787 O778 1.257 . S
C787 O779 1.245 . S
O788 Co759 2.286 . S
O788 C780 1.259 . S
O789 Co759 2.069 . S
O789 C780 1.289 . S
O790 Co761 2.143 . S
O790 C781 1.246 . S
O791 Co759 2.015 . S
O791 C781 1.257 . S
Co792 O795 2.042 . S
Co792 O802 2.264 . S
Co792 O821 2.286 . S
Co792 O822 2.069 . S
Co792 O824 2.015 . S
Co793 O795 2.122 . S
Co793 O801 2.073 . S
Co793 O802 2.327 . S
Co793 O803 1.976 . S
Co794 O795 2.087 . S
Co794 O797 2.087 . S
Co794 O804 2.111 . S
Co794 O805 2.143 . S
Co794 O809 2.111 . S
Co794 O823 2.143 . S
O795 Co792 2.042 . S
O795 Co793 2.122 . S
O795 Co794 2.087 . S
O795 H796 0.980 . S
H796 O795 0.980 . S
O797 Co794 2.087 . S
O797 Co798 2.042 . S
O797 Co799 2.122 . S
O797 H800 0.980 . S
Co798 O797 2.042 . S
Co798 O806 2.286 . S
Co798 O807 2.069 . S
Co798 O808 2.015 . S
Co798 O811 2.264 . S
Co799 O797 2.122 . S
Co799 O810 1.976 . S
Co799 O811 2.327 . S
Co799 O812 2.073 . S
H800 O797 0.980 . S
O801 Co793 2.073 . S
O801 C816 1.245 . S
O802 Co792 2.264 . S
O802 Co793 2.327 . S
O802 C816 1.257 . S
O803 Co793 1.976 . S
O803 C815 1.251 . S
O804 Co794 2.111 . S
O804 C815 1.274 . S
O805 Co794 2.143 . S
O805 C818 1.246 . S
O806 Co798 2.286 . S
O806 C817 1.259 . S
O807 Co798 2.069 . S
O807 C817 1.289 . S
O808 Co798 2.015 . S
O808 C818 1.257 . S
O809 Co794 2.111 . S
O809 C819 1.274 . S
O810 Co799 1.976 . S
O810 C819 1.251 . S
O811 Co798 2.264 . S
O811 Co799 2.327 . S
O811 C820 1.257 . S
O812 Co799 2.073 . S
O812 C820 1.245 . S
C813 O821 1.259 . S
C813 O822 1.289 . S
C814 O823 1.246 . S
C814 O824 1.257 . S
C815 O803 1.251 . S
C815 O804 1.274 . S
C816 O801 1.245 . S
C816 O802 1.257 . S
C817 O806 1.259 . S
C817 O807 1.289 . S
C818 O805 1.246 . S
C818 O808 1.257 . S
C819 O809 1.274 . S
C819 O810 1.251 . S
C820 O811 1.257 . S
C820 O812 1.245 . S
O821 Co792 2.286 . S
O821 C813 1.259 . S
O822 Co792 2.069 . S
O822 C813 1.289 . S
O823 Co794 2.143 . S
O823 C814 1.246 . S
O824 Co792 2.015 . S
O824 C814 1.257 . S
Co825 O828 2.042 . S
Co825 O835 2.264 . S
Co825 O854 2.286 . S
Co825 O855 2.069 . S
Co825 O857 2.015 . S
Co826 O828 2.122 . S
Co826 O834 2.073 . S
Co826 O835 2.327 . S
Co826 O836 1.976 . S
Co827 O828 2.087 . S
Co827 O830 2.087 . S
Co827 O837 2.111 . S
Co827 O838 2.143 . S
Co827 O842 2.111 . S
Co827 O856 2.143 . S
O828 Co825 2.042 . S
O828 Co826 2.122 . S
O828 Co827 2.087 . S
O828 H829 0.980 . S
H829 O828 0.980 . S
O830 Co827 2.087 . S
O830 Co831 2.042 . S
O830 Co832 2.122 . S
O830 H833 0.980 . S
Co831 O830 2.042 . S
Co831 O839 2.286 . S
Co831 O840 2.069 . S
Co831 O841 2.015 . S
Co831 O844 2.264 . S
Co832 O830 2.122 . S
Co832 O843 1.976 . S
Co832 O844 2.327 . S
Co832 O845 2.073 . S
H833 O830 0.980 . S
O834 Co826 2.073 . S
O834 C849 1.245 . S
O835 Co825 2.264 . S
O835 Co826 2.327 . S
O835 C849 1.257 . S
O836 Co826 1.976 . S
O836 C848 1.251 . S
O837 Co827 2.111 . S
O837 C848 1.274 . S
O838 Co827 2.143 . S
O838 C851 1.246 . S
O839 Co831 2.286 . S
O839 C850 1.259 . S
O840 Co831 2.069 . S
O840 C850 1.289 . S
O841 Co831 2.015 . S
O841 C851 1.257 . S
O842 Co827 2.111 . S
O842 C852 1.274 . S
O843 Co832 1.976 . S
O843 C852 1.251 . S
O844 Co831 2.264 . S
O844 Co832 2.327 . S
O844 C853 1.257 . S
O845 Co832 2.073 . S
O845 C853 1.245 . S
C846 O854 1.259 . S
C846 O855 1.289 . S
C847 O856 1.246 . S
C847 O857 1.257 . S
C848 O836 1.251 . S
C848 O837 1.274 . S
C849 O834 1.245 . S
C849 O835 1.257 . S
C850 O839 1.259 . S
C850 O840 1.289 . S
C851 O838 1.246 . S
C851 O841 1.257 . S
C852 O842 1.274 . S
C852 O843 1.251 . S
C853 O844 1.257 . S
C853 O845 1.245 . S
O854 Co825 2.286 . S
O854 C846 1.259 . S
O855 Co825 2.069 . S
O855 C846 1.289 . S
O856 Co827 2.143 . S
O856 C847 1.246 . S
O857 Co825 2.015 . S
O857 C847 1.257 . S
Co858 O861 2.042 . S
Co858 O868 2.264 . S
Co858 O887 2.286 . S
Co858 O888 2.069 . S
Co858 O890 2.015 . S
Co859 O861 2.122 . S
Co859 O867 2.073 . S
Co859 O868 2.327 . S
Co859 O869 1.976 . S
Co860 O861 2.087 . S
Co860 O863 2.087 . S
Co860 O870 2.111 . S
Co860 O871 2.143 . S
Co860 O875 2.111 . S
Co860 O889 2.143 . S
O861 Co858 2.042 . S
O861 Co859 2.122 . S
O861 Co860 2.087 . S
O861 H862 0.980 . S
H862 O861 0.980 . S
O863 Co860 2.087 . S
O863 Co864 2.042 . S
O863 Co865 2.122 . S
O863 H866 0.980 . S
Co864 O863 2.042 . S
Co864 O872 2.286 . S
Co864 O873 2.069 . S
Co864 O874 2.015 . S
Co864 O877 2.264 . S
Co865 O863 2.122 . S
Co865 O876 1.976 . S
Co865 O877 2.327 . S
Co865 O878 2.073 . S
H866 O863 0.980 . S
O867 Co859 2.073 . S
O867 C882 1.245 . S
O868 Co858 2.264 . S
O868 Co859 2.327 . S
O868 C882 1.257 . S
O869 Co859 1.976 . S
O869 C881 1.251 . S
O870 Co860 2.111 . S
O870 C881 1.274 . S
O871 Co860 2.143 . S
O871 C884 1.246 . S
O872 Co864 2.286 . S
O872 C883 1.259 . S
O873 Co864 2.069 . S
O873 C883 1.289 . S
O874 Co864 2.015 . S
O874 C884 1.257 . S
O875 Co860 2.111 . S
O875 C885 1.274 . S
O876 Co865 1.976 . S
O876 C885 1.251 . S
O877 Co864 2.264 . S
O877 Co865 2.327 . S
O877 C886 1.257 . S
O878 Co865 2.073 . S
O878 C886 1.245 . S
C879 O887 1.259 . S
C879 O888 1.289 . S
C880 O889 1.246 . S
C880 O890 1.257 . S
C881 O869 1.251 . S
C881 O870 1.274 . S
C882 O867 1.245 . S
C882 O868 1.257 . S
C883 O872 1.259 . S
C883 O873 1.289 . S
C884 O871 1.246 . S
C884 O874 1.257 . S
C885 O875 1.274 . S
C885 O876 1.251 . S
C886 O877 1.257 . S
C886 O878 1.245 . S
O887 Co858 2.286 . S
O887 C879 1.259 . S
O888 Co858 2.069 . S
O888 C879 1.289 . S
O889 Co860 2.143 . S
O889 C880 1.246 . S
O890 Co858 2.015 . S
O890 C880 1.257 . S
Co891 O894 2.042 . S
Co891 O901 2.264 . S
Co891 O920 2.286 . S
Co891 O921 2.069 . S
Co891 O923 2.015 . S
Co892 O894 2.122 . S
Co892 O900 2.073 . S
Co892 O901 2.327 . S
Co892 O902 1.976 . S
Co893 O894 2.087 . S
Co893 O896 2.087 . S
Co893 O903 2.111 . S
Co893 O904 2.143 . S
Co893 O908 2.111 . S
Co893 O922 2.143 . S
O894 Co891 2.042 . S
O894 Co892 2.122 . S
O894 Co893 2.087 . S
O894 H895 0.980 . S
H895 O894 0.980 . S
O896 Co893 2.087 . S
O896 Co897 2.042 . S
O896 Co898 2.122 . S
O896 H899 0.980 . S
Co897 O896 2.042 . S
Co897 O905 2.286 . S
Co897 O906 2.069 . S
Co897 O907 2.015 . S
Co897 O910 2.264 . S
Co898 O896 2.122 . S
Co898 O909 1.976 . S
Co898 O910 2.327 . S
Co898 O911 2.073 . S
H899 O896 0.980 . S
O900 Co892 2.073 . S
O900 C915 1.245 . S
O901 Co891 2.264 . S
O901 Co892 2.327 . S
O901 C915 1.257 . S
O902 Co892 1.976 . S
O902 C914 1.251 . S
O903 Co893 2.111 . S
O903 C914 1.274 . S
O904 Co893 2.143 . S
O904 C917 1.246 . S
O905 Co897 2.286 . S
O905 C916 1.259 . S
O906 Co897 2.069 . S
O906 C916 1.289 . S
O907 Co897 2.015 . S
O907 C917 1.257 . S
O908 Co893 2.111 . S
O908 C918 1.274 . S
O909 Co898 1.976 . S
O909 C918 1.251 . S
O910 Co897 2.264 . S
O910 Co898 2.327 . S
O910 C919 1.257 . S
O911 Co898 2.073 . S
O911 C919 1.245 . S
C912 O920 1.259 . S
C912 O921 1.289 . S
C913 O922 1.246 . S
C913 O923 1.257 . S
C914 O902 1.251 . S
C914 O903 1.274 . S
C915 O900 1.245 . S
C915 O901 1.257 . S
C916 O905 1.259 . S
C916 O906 1.289 . S
C917 O904 1.246 . S
C917 O907 1.257 . S
C918 O908 1.274 . S
C918 O909 1.251 . S
C919 O910 1.257 . S
C919 O911 1.245 . S
O920 Co891 2.286 . S
O920 C912 1.259 . S
O921 Co891 2.069 . S
O921 C912 1.289 . S
O922 Co893 2.143 . S
O922 C913 1.246 . S
O923 Co891 2.015 . S
O923 C913 1.257 . S
Co924 O927 2.042 . S
Co924 O934 2.264 . S
Co924 O953 2.286 . S
Co924 O954 2.069 . S
Co924 O956 2.015 . S
Co925 O927 2.122 . S
Co925 O933 2.073 . S
Co925 O934 2.327 . S
Co925 O935 1.976 . S
Co926 O927 2.087 . S
Co926 O929 2.087 . S
Co926 O936 2.111 . S
Co926 O937 2.143 . S
Co926 O941 2.111 . S
Co926 O955 2.143 . S
O927 Co924 2.042 . S
O927 Co925 2.122 . S
O927 Co926 2.087 . S
O927 H928 0.980 . S
H928 O927 0.980 . S
O929 Co926 2.087 . S
O929 Co930 2.042 . S
O929 Co931 2.122 . S
O929 H932 0.980 . S
Co930 O929 2.042 . S
Co930 O938 2.286 . S
Co930 O939 2.069 . S
Co930 O940 2.015 . S
Co930 O943 2.264 . S
Co931 O929 2.122 . S
Co931 O942 1.976 . S
Co931 O943 2.327 . S
Co931 O944 2.073 . S
H932 O929 0.980 . S
O933 Co925 2.073 . S
O933 C948 1.245 . S
O934 Co924 2.264 . S
O934 Co925 2.327 . S
O934 C948 1.257 . S
O935 Co925 1.976 . S
O935 C947 1.251 . S
O936 Co926 2.111 . S
O936 C947 1.274 . S
O937 Co926 2.143 . S
O937 C950 1.246 . S
O938 Co930 2.286 . S
O938 C949 1.259 . S
O939 Co930 2.069 . S
O939 C949 1.289 . S
O940 Co930 2.015 . S
O940 C950 1.257 . S
O941 Co926 2.111 . S
O941 C951 1.274 . S
O942 Co931 1.976 . S
O942 C951 1.251 . S
O943 Co930 2.264 . S
O943 Co931 2.327 . S
O943 C952 1.257 . S
O944 Co931 2.073 . S
O944 C952 1.245 . S
C945 O953 1.259 . S
C945 O954 1.289 . S
C946 O955 1.246 . S
C946 O956 1.257 . S
C947 O935 1.251 . S
C947 O936 1.274 . S
C948 O933 1.245 . S
C948 O934 1.257 . S
C949 O938 1.259 . S
C949 O939 1.289 . S
C950 O937 1.246 . S
C950 O940 1.257 . S
C951 O941 1.274 . S
C951 O942 1.251 . S
C952 O943 1.257 . S
C952 O944 1.245 . S
O953 Co924 2.286 . S
O953 C945 1.259 . S
O954 Co924 2.069 . S
O954 C945 1.289 . S
O955 Co926 2.143 . S
O955 C946 1.246 . S
O956 Co924 2.015 . S
O956 C946 1.257 . S
Co957 O960 2.042 . S
Co957 O967 2.264 . S
Co957 O986 2.286 . S
Co957 O987 2.069 . S
Co957 O989 2.015 . S
Co958 O960 2.122 . S
Co958 O966 2.073 . S
Co958 O967 2.327 . S
Co958 O968 1.976 . S
Co959 O960 2.087 . S
Co959 O962 2.087 . S
Co959 O969 2.111 . S
Co959 O970 2.143 . S
Co959 O974 2.111 . S
Co959 O988 2.143 . S
O960 Co957 2.042 . S
O960 Co958 2.122 . S
O960 Co959 2.087 . S
O960 H961 0.980 . S
H961 O960 0.980 . S
O962 Co959 2.087 . S
O962 Co963 2.042 . S
O962 Co964 2.122 . S
O962 H965 0.980 . S
Co963 O962 2.042 . S
Co963 O971 2.286 . S
Co963 O972 2.069 . S
Co963 O973 2.015 . S
Co963 O976 2.264 . S
Co964 O962 2.122 . S
Co964 O975 1.976 . S
Co964 O976 2.327 . S
Co964 O977 2.073 . S
H965 O962 0.980 . S
O966 Co958 2.073 . S
O966 C981 1.245 . S
O967 Co957 2.264 . S
O967 Co958 2.327 . S
O967 C981 1.257 . S
O968 Co958 1.976 . S
O968 C980 1.251 . S
O969 Co959 2.111 . S
O969 C980 1.274 . S
O970 Co959 2.143 . S
O970 C983 1.246 . S
O971 Co963 2.286 . S
O971 C982 1.259 . S
O972 Co963 2.069 . S
O972 C982 1.289 . S
O973 Co963 2.015 . S
O973 C983 1.257 . S
O974 Co959 2.111 . S
O974 C984 1.274 . S
O975 Co964 1.976 . S
O975 C984 1.251 . S
O976 Co963 2.264 . S
O976 Co964 2.327 . S
O976 C985 1.257 . S
O977 Co964 2.073 . S
O977 C985 1.245 . S
C978 O986 1.259 . S
C978 O987 1.289 . S
C979 O988 1.246 . S
C979 O989 1.257 . S
C980 O968 1.251 . S
C980 O969 1.274 . S
C981 O966 1.245 . S
C981 O967 1.257 . S
C982 O971 1.259 . S
C982 O972 1.289 . S
C983 O970 1.246 . S
C983 O973 1.257 . S
C984 O974 1.274 . S
C984 O975 1.251 . S
C985 O976 1.257 . S
C985 O977 1.245 . S
O986 Co957 2.286 . S
O986 C978 1.259 . S
O987 Co957 2.069 . S
O987 C978 1.289 . S
O988 Co959 2.143 . S
O988 C979 1.246 . S
O989 Co957 2.015 . S
O989 C979 1.257 . S
Co990 O993 2.042 . S
Co990 O1000 2.264 . S
Co990 O1019 2.286 . S
Co990 O1020 2.069 . S
Co990 O1022 2.015 . S
Co991 O993 2.122 . S
Co991 O999 2.073 . S
Co991 O1000 2.327 . S
Co991 O1001 1.976 . S
Co992 O993 2.087 . S
Co992 O995 2.087 . S
Co992 O1002 2.111 . S
Co992 O1003 2.143 . S
Co992 O1007 2.111 . S
Co992 O1021 2.143 . S
O993 Co990 2.042 . S
O993 Co991 2.122 . S
O993 Co992 2.087 . S
O993 H994 0.980 . S
H994 O993 0.980 . S
O995 Co992 2.087 . S
O995 Co996 2.042 . S
O995 Co997 2.122 . S
O995 H998 0.980 . S
Co996 O995 2.042 . S
Co996 O1004 2.286 . S
Co996 O1005 2.069 . S
Co996 O1006 2.015 . S
Co996 O1009 2.264 . S
Co997 O995 2.122 . S
Co997 O1008 1.976 . S
Co997 O1009 2.327 . S
Co997 O1010 2.073 . S
H998 O995 0.980 . S
O999 Co991 2.073 . S
O999 C1014 1.245 . S
O1000 Co990 2.264 . S
O1000 Co991 2.327 . S
O1000 C1014 1.257 . S
O1001 Co991 1.976 . S
O1001 C1013 1.251 . S
O1002 Co992 2.111 . S
O1002 C1013 1.274 . S
O1003 Co992 2.143 . S
O1003 C1016 1.246 . S
O1004 Co996 2.286 . S
O1004 C1015 1.259 . S
O1005 Co996 2.069 . S
O1005 C1015 1.289 . S
O1006 Co996 2.015 . S
O1006 C1016 1.257 . S
O1007 Co992 2.111 . S
O1007 C1017 1.274 . S
O1008 Co997 1.976 . S
O1008 C1017 1.251 . S
O1009 Co996 2.264 . S
O1009 Co997 2.327 . S
O1009 C1018 1.257 . S
O1010 Co997 2.073 . S
O1010 C1018 1.245 . S
C1011 O1019 1.259 . S
C1011 O1020 1.289 . S
C1012 O1021 1.246 . S
C1012 O1022 1.257 . S
C1013 O1001 1.251 . S
C1013 O1002 1.274 . S
C1014 O999 1.245 . S
C1014 O1000 1.257 . S
C1015 O1004 1.259 . S
C1015 O1005 1.289 . S
C1016 O1003 1.246 . S
C1016 O1006 1.257 . S
C1017 O1007 1.274 . S
C1017 O1008 1.251 . S
C1018 O1009 1.257 . S
C1018 O1010 1.245 . S
O1019 Co990 2.286 . S
O1019 C1011 1.259 . S
O1020 Co990 2.069 . S
O1020 C1011 1.289 . S
O1021 Co992 2.143 . S
O1021 C1012 1.246 . S
O1022 Co990 2.015 . S
O1022 C1012 1.257 . S
Co1023 O1026 2.042 . S
Co1023 O1033 2.264 . S
Co1023 O1052 2.286 . S
Co1023 O1053 2.069 . S
Co1023 O1055 2.015 . S
Co1024 O1026 2.122 . S
Co1024 O1032 2.073 . S
Co1024 O1033 2.327 . S
Co1024 O1034 1.976 . S
Co1025 O1026 2.087 . S
Co1025 O1028 2.087 . S
Co1025 O1035 2.111 . S
Co1025 O1036 2.143 . S
Co1025 O1040 2.111 . S
Co1025 O1054 2.143 . S
O1026 Co1023 2.042 . S
O1026 Co1024 2.122 . S
O1026 Co1025 2.087 . S
O1026 H1027 0.980 . S
H1027 O1026 0.980 . S
O1028 Co1025 2.087 . S
O1028 Co1029 2.042 . S
O1028 Co1030 2.122 . S
O1028 H1031 0.980 . S
Co1029 O1028 2.042 . S
Co1029 O1037 2.286 . S
Co1029 O1038 2.069 . S
Co1029 O1039 2.015 . S
Co1029 O1042 2.264 . S
Co1030 O1028 2.122 . S
Co1030 O1041 1.976 . S
Co1030 O1042 2.327 . S
Co1030 O1043 2.073 . S
H1031 O1028 0.980 . S
O1032 Co1024 2.073 . S
O1032 C1047 1.245 . S
O1033 Co1023 2.264 . S
O1033 Co1024 2.327 . S
O1033 C1047 1.257 . S
O1034 Co1024 1.976 . S
O1034 C1046 1.251 . S
O1035 Co1025 2.111 . S
O1035 C1046 1.274 . S
O1036 Co1025 2.143 . S
O1036 C1049 1.246 . S
O1037 Co1029 2.286 . S
O1037 C1048 1.259 . S
O1038 Co1029 2.069 . S
O1038 C1048 1.289 . S
O1039 Co1029 2.015 . S
O1039 C1049 1.257 . S
O1040 Co1025 2.111 . S
O1040 C1050 1.274 . S
O1041 Co1030 1.976 . S
O1041 C1050 1.251 . S
O1042 Co1029 2.264 . S
O1042 Co1030 2.327 . S
O1042 C1051 1.257 . S
O1043 Co1030 2.073 . S
O1043 C1051 1.245 . S
C1044 O1052 1.259 . S
C1044 O1053 1.289 . S
C1045 O1054 1.246 . S
C1045 O1055 1.257 . S
C1046 O1034 1.251 . S
C1046 O1035 1.274 . S
C1047 O1032 1.245 . S
C1047 O1033 1.257 . S
C1048 O1037 1.259 . S
C1048 O1038 1.289 . S
C1049 O1036 1.246 . S
C1049 O1039 1.257 . S
C1050 O1040 1.274 . S
C1050 O1041 1.251 . S
C1051 O1042 1.257 . S
C1051 O1043 1.245 . S
O1052 Co1023 2.286 . S
O1052 C1044 1.259 . S
O1053 Co1023 2.069 . S
O1053 C1044 1.289 . S
O1054 Co1025 2.143 . S
O1054 C1045 1.246 . S
O1055 Co1023 2.015 . S
O1055 C1045 1.257 . S
Co1056 O1059 2.042 . S
Co1056 O1066 2.264 . S
Co1056 O1085 2.286 . S
Co1056 O1086 2.069 . S
Co1056 O1088 2.015 . S
Co1057 O1059 2.122 . S
Co1057 O1065 2.073 . S
Co1057 O1066 2.327 . S
Co1057 O1067 1.976 . S
Co1058 O1059 2.087 . S
Co1058 O1061 2.087 . S
Co1058 O1068 2.111 . S
Co1058 O1069 2.143 . S
Co1058 O1073 2.111 . S
Co1058 O1087 2.143 . S
O1059 Co1056 2.042 . S
O1059 Co1057 2.122 . S
O1059 Co1058 2.087 . S
O1059 H1060 0.980 . S
H1060 O1059 0.980 . S
O1061 Co1058 2.087 . S
O1061 Co1062 2.042 . S
O1061 Co1063 2.122 . S
O1061 H1064 0.980 . S
Co1062 O1061 2.042 . S
Co1062 O1070 2.286 . S
Co1062 O1071 2.069 . S
Co1062 O1072 2.015 . S
Co1062 O1075 2.264 . S
Co1063 O1061 2.122 . S
Co1063 O1074 1.976 . S
Co1063 O1075 2.327 . S
Co1063 O1076 2.073 . S
H1064 O1061 0.980 . S
O1065 Co1057 2.073 . S
O1065 C1080 1.245 . S
O1066 Co1056 2.264 . S
O1066 Co1057 2.327 . S
O1066 C1080 1.257 . S
O1067 Co1057 1.976 . S
O1067 C1079 1.251 . S
O1068 Co1058 2.111 . S
O1068 C1079 1.274 . S
O1069 Co1058 2.143 . S
O1069 C1082 1.246 . S
O1070 Co1062 2.286 . S
O1070 C1081 1.259 . S
O1071 Co1062 2.069 . S
O1071 C1081 1.289 . S
O1072 Co1062 2.015 . S
O1072 C1082 1.257 . S
O1073 Co1058 2.111 . S
O1073 C1083 1.274 . S
O1074 Co1063 1.976 . S
O1074 C1083 1.251 . S
O1075 Co1062 2.264 . S
O1075 Co1063 2.327 . S
O1075 C1084 1.257 . S
O1076 Co1063 2.073 . S
O1076 C1084 1.245 . S
C1077 O1085 1.259 . S
C1077 O1086 1.289 . S
C1078 O1087 1.246 . S
C1078 O1088 1.257 . S
C1079 O1067 1.251 . S
C1079 O1068 1.274 . S
C1080 O1065 1.245 . S
C1080 O1066 1.257 . S
C1081 O1070 1.259 . S
C1081 O1071 1.289 . S
C1082 O1069 1.246 . S
C1082 O1072 1.257 . S
C1083 O1073 1.274 . S
C1083 O1074 1.251 . S
C1084 O1075 1.257 . S
C1084 O1076 1.245 . S
O1085 Co1056 2.286 . S
O1085 C1077 1.259 . S
O1086 Co1056 2.069 . S
O1086 C1077 1.289 . S
O1087 Co1058 2.143 . S
O1087 C1078 1.246 . S
O1088 Co1056 2.015 . S
O1088 C1078 1.257 . S
Co1089 O1092 2.042 . S
Co1089 O1099 2.264 . S
Co1089 O1118 2.286 . S
Co1089 O1119 2.069 . S
Co1089 O1121 2.015 . S
Co1090 O1092 2.122 . S
Co1090 O1098 2.073 . S
Co1090 O1099 2.327 . S
Co1090 O1100 1.976 . S
Co1091 O1092 2.087 . S
Co1091 O1094 2.087 . S
Co1091 O1101 2.111 . S
Co1091 O1102 2.143 . S
Co1091 O1106 2.111 . S
Co1091 O1120 2.143 . S
O1092 Co1089 2.042 . S
O1092 Co1090 2.122 . S
O1092 Co1091 2.087 . S
O1092 H1093 0.980 . S
H1093 O1092 0.980 . S
O1094 Co1091 2.087 . S
O1094 Co1095 2.042 . S
O1094 Co1096 2.122 . S
O1094 H1097 0.980 . S
Co1095 O1094 2.042 . S
Co1095 O1103 2.286 . S
Co1095 O1104 2.069 . S
Co1095 O1105 2.015 . S
Co1095 O1108 2.264 . S
Co1096 O1094 2.122 . S
Co1096 O1107 1.976 . S
Co1096 O1108 2.327 . S
Co1096 O1109 2.073 . S
H1097 O1094 0.980 . S
O1098 Co1090 2.073 . S
O1098 C1113 1.245 . S
O1099 Co1089 2.264 . S
O1099 Co1090 2.327 . S
O1099 C1113 1.257 . S
O1100 Co1090 1.976 . S
O1100 C1112 1.251 . S
O1101 Co1091 2.111 . S
O1101 C1112 1.274 . S
O1102 Co1091 2.143 . S
O1102 C1115 1.246 . S
O1103 Co1095 2.286 . S
O1103 C1114 1.259 . S
O1104 Co1095 2.069 . S
O1104 C1114 1.289 . S
O1105 Co1095 2.015 . S
O1105 C1115 1.257 . S
O1106 Co1091 2.111 . S
O1106 C1116 1.274 . S
O1107 Co1096 1.976 . S
O1107 C1116 1.251 . S
O1108 Co1095 2.264 . S
O1108 Co1096 2.327 . S
O1108 C1117 1.257 . S
O1109 Co1096 2.073 . S
O1109 C1117 1.245 . S
C1110 O1118 1.259 . S
C1110 O1119 1.289 . S
C1111 O1120 1.246 . S
C1111 O1121 1.257 . S
C1112 O1100 1.251 . S
C1112 O1101 1.274 . S
C1113 O1098 1.245 . S
C1113 O1099 1.257 . S
C1114 O1103 1.259 . S
C1114 O1104 1.289 . S
C1115 O1102 1.246 . S
C1115 O1105 1.257 . S
C1116 O1106 1.274 . S
C1116 O1107 1.251 . S
C1117 O1108 1.257 . S
C1117 O1109 1.245 . S
O1118 Co1089 2.286 . S
O1118 C1110 1.259 . S
O1119 Co1089 2.069 . S
O1119 C1110 1.289 . S
O1120 Co1091 2.143 . S
O1120 C1111 1.246 . S
O1121 Co1089 2.015 . S
O1121 C1111 1.257 . S
Co1122 O1125 2.042 . S
Co1122 O1132 2.264 . S
Co1122 O1151 2.286 . S
Co1122 O1152 2.069 . S
Co1122 O1154 2.015 . S
Co1123 O1125 2.122 . S
Co1123 O1131 2.073 . S
Co1123 O1132 2.327 . S
Co1123 O1133 1.976 . S
Co1124 O1125 2.087 . S
Co1124 O1127 2.087 . S
Co1124 O1134 2.111 . S
Co1124 O1135 2.143 . S
Co1124 O1139 2.111 . S
Co1124 O1153 2.143 . S
O1125 Co1122 2.042 . S
O1125 Co1123 2.122 . S
O1125 Co1124 2.087 . S
O1125 H1126 0.980 . S
H1126 O1125 0.980 . S
O1127 Co1124 2.087 . S
O1127 Co1128 2.042 . S
O1127 Co1129 2.122 . S
O1127 H1130 0.980 . S
Co1128 O1127 2.042 . S
Co1128 O1136 2.286 . S
Co1128 O1137 2.069 . S
Co1128 O1138 2.015 . S
Co1128 O1141 2.264 . S
Co1129 O1127 2.122 . S
Co1129 O1140 1.976 . S
Co1129 O1141 2.327 . S
Co1129 O1142 2.073 . S
H1130 O1127 0.980 . S
O1131 Co1123 2.073 . S
O1131 C1146 1.245 . S
O1132 Co1122 2.264 . S
O1132 Co1123 2.327 . S
O1132 C1146 1.257 . S
O1133 Co1123 1.976 . S
O1133 C1145 1.251 . S
O1134 Co1124 2.111 . S
O1134 C1145 1.274 . S
O1135 Co1124 2.143 . S
O1135 C1148 1.246 . S
O1136 Co1128 2.286 . S
O1136 C1147 1.259 . S
O1137 Co1128 2.069 . S
O1137 C1147 1.289 . S
O1138 Co1128 2.015 . S
O1138 C1148 1.257 . S
O1139 Co1124 2.111 . S
O1139 C1149 1.274 . S
O1140 Co1129 1.976 . S
O1140 C1149 1.251 . S
O1141 Co1128 2.264 . S
O1141 Co1129 2.327 . S
O1141 C1150 1.257 . S
O1142 Co1129 2.073 . S
O1142 C1150 1.245 . S
C1143 O1151 1.259 . S
C1143 O1152 1.289 . S
C1144 O1153 1.246 . S
C1144 O1154 1.257 . S
C1145 O1133 1.251 . S
C1145 O1134 1.274 . S
C1146 O1131 1.245 . S
C1146 O1132 1.257 . S
C1147 O1136 1.259 . S
C1147 O1137 1.289 . S
C1148 O1135 1.246 . S
C1148 O1138 1.257 . S
C1149 O1139 1.274 . S
C1149 O1140 1.251 . S
C1150 O1141 1.257 . S
C1150 O1142 1.245 . S
O1151 Co1122 2.286 . S
O1151 C1143 1.259 . S
O1152 Co1122 2.069 . S
O1152 C1143 1.289 . S
O1153 Co1124 2.143 . S
O1153 C1144 1.246 . S
O1154 Co1122 2.015 . S
O1154 C1144 1.257 . S
Co1155 O1158 2.042 . S
Co1155 O1165 2.264 . S
Co1155 O1184 2.286 . S
Co1155 O1185 2.069 . S
Co1155 O1187 2.015 . S
Co1156 O1158 2.122 . S
Co1156 O1164 2.073 . S
Co1156 O1165 2.327 . S
Co1156 O1166 1.976 . S
Co1157 O1158 2.087 . S
Co1157 O1160 2.087 . S
Co1157 O1167 2.111 . S
Co1157 O1168 2.143 . S
Co1157 O1172 2.111 . S
Co1157 O1186 2.143 . S
O1158 Co1155 2.042 . S
O1158 Co1156 2.122 . S
O1158 Co1157 2.087 . S
O1158 H1159 0.980 . S
H1159 O1158 0.980 . S
O1160 Co1157 2.087 . S
O1160 Co1161 2.042 . S
O1160 Co1162 2.122 . S
O1160 H1163 0.980 . S
Co1161 O1160 2.042 . S
Co1161 O1169 2.286 . S
Co1161 O1170 2.069 . S
Co1161 O1171 2.015 . S
Co1161 O1174 2.264 . S
Co1162 O1160 2.122 . S
Co1162 O1173 1.976 . S
Co1162 O1174 2.327 . S
Co1162 O1175 2.073 . S
H1163 O1160 0.980 . S
O1164 Co1156 2.073 . S
O1164 C1179 1.245 . S
O1165 Co1155 2.264 . S
O1165 Co1156 2.327 . S
O1165 C1179 1.257 . S
O1166 Co1156 1.976 . S
O1166 C1178 1.251 . S
O1167 Co1157 2.111 . S
O1167 C1178 1.274 . S
O1168 Co1157 2.143 . S
O1168 C1181 1.246 . S
O1169 Co1161 2.286 . S
O1169 C1180 1.259 . S
O1170 Co1161 2.069 . S
O1170 C1180 1.289 . S
O1171 Co1161 2.015 . S
O1171 C1181 1.257 . S
O1172 Co1157 2.111 . S
O1172 C1182 1.274 . S
O1173 Co1162 1.976 . S
O1173 C1182 1.251 . S
O1174 Co1161 2.264 . S
O1174 Co1162 2.327 . S
O1174 C1183 1.257 . S
O1175 Co1162 2.073 . S
O1175 C1183 1.245 . S
C1176 O1184 1.259 . S
C1176 O1185 1.289 . S
C1177 O1186 1.246 . S
C1177 O1187 1.257 . S
C1178 O1166 1.251 . S
C1178 O1167 1.274 . S
C1179 O1164 1.245 . S
C1179 O1165 1.257 . S
C1180 O1169 1.259 . S
C1180 O1170 1.289 . S
C1181 O1168 1.246 . S
C1181 O1171 1.257 . S
C1182 O1172 1.274 . S
C1182 O1173 1.251 . S
C1183 O1174 1.257 . S
C1183 O1175 1.245 . S
O1184 Co1155 2.286 . S
O1184 C1176 1.259 . S
O1185 Co1155 2.069 . S
O1185 C1176 1.289 . S
O1186 Co1157 2.143 . S
O1186 C1177 1.246 . S
O1187 Co1155 2.015 . S
O1187 C1177 1.257 . S
Co1188 O1191 2.042 . S
Co1188 O1198 2.264 . S
Co1188 O1217 2.286 . S
Co1188 O1218 2.069 . S
Co1188 O1220 2.015 . S
Co1189 O1191 2.122 . S
Co1189 O1197 2.073 . S
Co1189 O1198 2.327 . S
Co1189 O1199 1.976 . S
Co1190 O1191 2.087 . S
Co1190 O1193 2.087 . S
Co1190 O1200 2.111 . S
Co1190 O1201 2.143 . S
Co1190 O1205 2.111 . S
Co1190 O1219 2.143 . S
O1191 Co1188 2.042 . S
O1191 Co1189 2.122 . S
O1191 Co1190 2.087 . S
O1191 H1192 0.980 . S
H1192 O1191 0.980 . S
O1193 Co1190 2.087 . S
O1193 Co1194 2.042 . S
O1193 Co1195 2.122 . S
O1193 H1196 0.980 . S
Co1194 O1193 2.042 . S
Co1194 O1202 2.286 . S
Co1194 O1203 2.069 . S
Co1194 O1204 2.015 . S
Co1194 O1207 2.264 . S
Co1195 O1193 2.122 . S
Co1195 O1206 1.976 . S
Co1195 O1207 2.327 . S
Co1195 O1208 2.073 . S
H1196 O1193 0.980 . S
O1197 Co1189 2.073 . S
O1197 C1212 1.245 . S
O1198 Co1188 2.264 . S
O1198 Co1189 2.327 . S
O1198 C1212 1.257 . S
O1199 Co1189 1.976 . S
O1199 C1211 1.251 . S
O1200 Co1190 2.111 . S
O1200 C1211 1.274 . S
O1201 Co1190 2.143 . S
O1201 C1214 1.246 . S
O1202 Co1194 2.286 . S
O1202 C1213 1.259 . S
O1203 Co1194 2.069 . S
O1203 C1213 1.289 . S
O1204 Co1194 2.015 . S
O1204 C1214 1.257 . S
O1205 Co1190 2.111 . S
O1205 C1215 1.274 . S
O1206 Co1195 1.976 . S
O1206 C1215 1.251 . S
O1207 Co1194 2.264 . S
O1207 Co1195 2.327 . S
O1207 C1216 1.257 . S
O1208 Co1195 2.073 . S
O1208 C1216 1.245 . S
C1209 O1217 1.259 . S
C1209 O1218 1.289 . S
C1210 O1219 1.246 . S
C1210 O1220 1.257 . S
C1211 O1199 1.251 . S
C1211 O1200 1.274 . S
C1212 O1197 1.245 . S
C1212 O1198 1.257 . S
C1213 O1202 1.259 . S
C1213 O1203 1.289 . S
C1214 O1201 1.246 . S
C1214 O1204 1.257 . S
C1215 O1205 1.274 . S
C1215 O1206 1.251 . S
C1216 O1207 1.257 . S
C1216 O1208 1.245 . S
O1217 Co1188 2.286 . S
O1217 C1209 1.259 . S
O1218 Co1188 2.069 . S
O1218 C1209 1.289 . S
O1219 Co1190 2.143 . S
O1219 C1210 1.246 . S
O1220 Co1188 2.015 . S
O1220 C1210 1.257 . S
Co1221 O1224 2.042 . S
Co1221 O1231 2.264 . S
Co1221 O1250 2.286 . S
Co1221 O1251 2.069 . S
Co1221 O1253 2.015 . S
Co1222 O1224 2.122 . S
Co1222 O1230 2.073 . S
Co1222 O1231 2.327 . S
Co1222 O1232 1.976 . S
Co1223 O1224 2.087 . S
Co1223 O1226 2.087 . S
Co1223 O1233 2.111 . S
Co1223 O1234 2.143 . S
Co1223 O1238 2.111 . S
Co1223 O1252 2.143 . S
O1224 Co1221 2.042 . S
O1224 Co1222 2.122 . S
O1224 Co1223 2.087 . S
O1224 H1225 0.980 . S
H1225 O1224 0.980 . S
O1226 Co1223 2.087 . S
O1226 Co1227 2.042 . S
O1226 Co1228 2.122 . S
O1226 H1229 0.980 . S
Co1227 O1226 2.042 . S
Co1227 O1235 2.286 . S
Co1227 O1236 2.069 . S
Co1227 O1237 2.015 . S
Co1227 O1240 2.264 . S
Co1228 O1226 2.122 . S
Co1228 O1239 1.976 . S
Co1228 O1240 2.327 . S
Co1228 O1241 2.073 . S
H1229 O1226 0.980 . S
O1230 Co1222 2.073 . S
O1230 C1245 1.245 . S
O1231 Co1221 2.264 . S
O1231 Co1222 2.327 . S
O1231 C1245 1.257 . S
O1232 Co1222 1.976 . S
O1232 C1244 1.251 . S
O1233 Co1223 2.111 . S
O1233 C1244 1.274 . S
O1234 Co1223 2.143 . S
O1234 C1247 1.246 . S
O1235 Co1227 2.286 . S
O1235 C1246 1.259 . S
O1236 Co1227 2.069 . S
O1236 C1246 1.289 . S
O1237 Co1227 2.015 . S
O1237 C1247 1.257 . S
O1238 Co1223 2.111 . S
O1238 C1248 1.274 . S
O1239 Co1228 1.976 . S
O1239 C1248 1.251 . S
O1240 Co1227 2.264 . S
O1240 Co1228 2.327 . S
O1240 C1249 1.257 . S
O1241 Co1228 2.073 . S
O1241 C1249 1.245 . S
C1242 O1250 1.259 . S
C1242 O1251 1.289 . S
C1243 O1252 1.246 . S
C1243 O1253 1.257 . S
C1244 O1232 1.251 . S
C1244 O1233 1.274 . S
C1245 O1230 1.245 . S
C1245 O1231 1.257 . S
C1246 O1235 1.259 . S
C1246 O1236 1.289 . S
C1247 O1234 1.246 . S
C1247 O1237 1.257 . S
C1248 O1238 1.274 . S
C1248 O1239 1.251 . S
C1249 O1240 1.257 . S
C1249 O1241 1.245 . S
O1250 Co1221 2.286 . S
O1250 C1242 1.259 . S
O1251 Co1221 2.069 . S
O1251 C1242 1.289 . S
O1252 Co1223 2.143 . S
O1252 C1243 1.246 . S
O1253 Co1221 2.015 . S
O1253 C1243 1.257 . S
Co1254 O1257 2.042 . S
Co1254 O1264 2.264 . S
Co1254 O1283 2.286 . S
Co1254 O1284 2.069 . S
Co1254 O1286 2.015 . S
Co1255 O1257 2.122 . S
Co1255 O1263 2.073 . S
Co1255 O1264 2.327 . S
Co1255 O1265 1.976 . S
Co1256 O1257 2.087 . S
Co1256 O1259 2.087 . S
Co1256 O1266 2.111 . S
Co1256 O1267 2.143 . S
Co1256 O1271 2.111 . S
Co1256 O1285 2.143 . S
O1257 Co1254 2.042 . S
O1257 Co1255 2.122 . S
O1257 Co1256 2.087 . S
O1257 H1258 0.980 . S
H1258 O1257 0.980 . S
O1259 Co1256 2.087 . S
O1259 Co1260 2.042 . S
O1259 Co1261 2.122 . S
O1259 H1262 0.980 . S
Co1260 O1259 2.042 . S
Co1260 O1268 2.286 . S
Co1260 O1269 2.069 . S
Co1260 O1270 2.015 . S
Co1260 O1273 2.264 . S
Co1261 O1259 2.122 . S
Co1261 O1272 1.976 . S
Co1261 O1273 2.327 . S
Co1261 O1274 2.073 . S
H1262 O1259 0.980 . S
O1263 Co1255 2.073 . S
O1263 C1278 1.245 . S
O1264 Co1254 2.264 . S
O1264 Co1255 2.327 . S
O1264 C1278 1.257 . S
O1265 Co1255 1.976 . S
O1265 C1277 1.251 . S
O1266 Co1256 2.111 . S
O1266 C1277 1.274 . S
O1267 Co1256 2.143 . S
O1267 C1280 1.246 . S
O1268 Co1260 2.286 . S
O1268 C1279 1.259 . S
O1269 Co1260 2.069 . S
O1269 C1279 1.289 . S
O1270 Co1260 2.015 . S
O1270 C1280 1.257 . S
O1271 Co1256 2.111 . S
O1271 C1281 1.274 . S
O1272 Co1261 1.976 . S
O1272 C1281 1.251 . S
O1273 Co1260 2.264 . S
O1273 Co1261 2.327 . S
O1273 C1282 1.257 . S
O1274 Co1261 2.073 . S
O1274 C1282 1.245 . S
C1275 O1283 1.259 . S
C1275 O1284 1.289 . S
C1276 O1285 1.246 . S
C1276 O1286 1.257 . S
C1277 O1265 1.251 . S
C1277 O1266 1.274 . S
C1278 O1263 1.245 . S
C1278 O1264 1.257 . S
C1279 O1268 1.259 . S
C1279 O1269 1.289 . S
C1280 O1267 1.246 . S
C1280 O1270 1.257 . S
C1281 O1271 1.274 . S
C1281 O1272 1.251 . S
C1282 O1273 1.257 . S
C1282 O1274 1.245 . S
O1283 Co1254 2.286 . S
O1283 C1275 1.259 . S
O1284 Co1254 2.069 . S
O1284 C1275 1.289 . S
O1285 Co1256 2.143 . S
O1285 C1276 1.246 . S
O1286 Co1254 2.015 . S
O1286 C1276 1.257 . S
Co1287 O1290 2.042 . S
Co1287 O1297 2.264 . S
Co1287 O1316 2.286 . S
Co1287 O1317 2.069 . S
Co1287 O1319 2.015 . S
Co1288 O1290 2.122 . S
Co1288 O1296 2.073 . S
Co1288 O1297 2.327 . S
Co1288 O1298 1.976 . S
Co1289 O1290 2.087 . S
Co1289 O1292 2.087 . S
Co1289 O1299 2.111 . S
Co1289 O1300 2.143 . S
Co1289 O1304 2.111 . S
Co1289 O1318 2.143 . S
O1290 Co1287 2.042 . S
O1290 Co1288 2.122 . S
O1290 Co1289 2.087 . S
O1290 H1291 0.980 . S
H1291 O1290 0.980 . S
O1292 Co1289 2.087 . S
O1292 Co1293 2.042 . S
O1292 Co1294 2.122 . S
O1292 H1295 0.980 . S
Co1293 O1292 2.042 . S
Co1293 O1301 2.286 . S
Co1293 O1302 2.069 . S
Co1293 O1303 2.015 . S
Co1293 O1306 2.264 . S
Co1294 O1292 2.122 . S
Co1294 O1305 1.976 . S
Co1294 O1306 2.327 . S
Co1294 O1307 2.073 . S
H1295 O1292 0.980 . S
O1296 Co1288 2.073 . S
O1296 C1311 1.245 . S
O1297 Co1287 2.264 . S
O1297 Co1288 2.327 . S
O1297 C1311 1.257 . S
O1298 Co1288 1.976 . S
O1298 C1310 1.251 . S
O1299 Co1289 2.111 . S
O1299 C1310 1.274 . S
O1300 Co1289 2.143 . S
O1300 C1313 1.246 . S
O1301 Co1293 2.286 . S
O1301 C1312 1.259 . S
O1302 Co1293 2.069 . S
O1302 C1312 1.289 . S
O1303 Co1293 2.015 . S
O1303 C1313 1.257 . S
O1304 Co1289 2.111 . S
O1304 C1314 1.274 . S
O1305 Co1294 1.976 . S
O1305 C1314 1.251 . S
O1306 Co1293 2.264 . S
O1306 Co1294 2.327 . S
O1306 C1315 1.257 . S
O1307 Co1294 2.073 . S
O1307 C1315 1.245 . S
C1308 O1316 1.259 . S
C1308 O1317 1.289 . S
C1309 O1318 1.246 . S
C1309 O1319 1.257 . S
C1310 O1298 1.251 . S
C1310 O1299 1.274 . S
C1311 O1296 1.245 . S
C1311 O1297 1.257 . S
C1312 O1301 1.259 . S
C1312 O1302 1.289 . S
C1313 O1300 1.246 . S
C1313 O1303 1.257 . S
C1314 O1304 1.274 . S
C1314 O1305 1.251 . S
C1315 O1306 1.257 . S
C1315 O1307 1.245 . S
O1316 Co1287 2.286 . S
O1316 C1308 1.259 . S
O1317 Co1287 2.069 . S
O1317 C1308 1.289 . S
O1318 Co1289 2.143 . S
O1318 C1309 1.246 . S
O1319 Co1287 2.015 . S
O1319 C1309 1.257 . S
Co1320 O1323 2.042 . S
Co1320 O1330 2.264 . S
Co1320 O1349 2.286 . S
Co1320 O1350 2.069 . S
Co1320 O1352 2.015 . S
Co1321 O1323 2.122 . S
Co1321 O1329 2.073 . S
Co1321 O1330 2.327 . S
Co1321 O1331 1.976 . S
Co1322 O1323 2.087 . S
Co1322 O1325 2.087 . S
Co1322 O1332 2.111 . S
Co1322 O1333 2.143 . S
Co1322 O1337 2.111 . S
Co1322 O1351 2.143 . S
O1323 Co1320 2.042 . S
O1323 Co1321 2.122 . S
O1323 Co1322 2.087 . S
O1323 H1324 0.980 . S
H1324 O1323 0.980 . S
O1325 Co1322 2.087 . S
O1325 Co1326 2.042 . S
O1325 Co1327 2.122 . S
O1325 H1328 0.980 . S
Co1326 O1325 2.042 . S
Co1326 O1334 2.286 . S
Co1326 O1335 2.069 . S
Co1326 O1336 2.015 . S
Co1326 O1339 2.264 . S
Co1327 O1325 2.122 . S
Co1327 O1338 1.976 . S
Co1327 O1339 2.327 . S
Co1327 O1340 2.073 . S
H1328 O1325 0.980 . S
O1329 Co1321 2.073 . S
O1329 C1344 1.245 . S
O1330 Co1320 2.264 . S
O1330 Co1321 2.327 . S
O1330 C1344 1.257 . S
O1331 Co1321 1.976 . S
O1331 C1343 1.251 . S
O1332 Co1322 2.111 . S
O1332 C1343 1.274 . S
O1333 Co1322 2.143 . S
O1333 C1346 1.246 . S
O1334 Co1326 2.286 . S
O1334 C1345 1.259 . S
O1335 Co1326 2.069 . S
O1335 C1345 1.289 . S
O1336 Co1326 2.015 . S
O1336 C1346 1.257 . S
O1337 Co1322 2.111 . S
O1337 C1347 1.274 . S
O1338 Co1327 1.976 . S
O1338 C1347 1.251 . S
O1339 Co1326 2.264 . S
O1339 Co1327 2.327 . S
O1339 C1348 1.257 . S
O1340 Co1327 2.073 . S
O1340 C1348 1.245 . S
C1341 O1349 1.259 . S
C1341 O1350 1.289 . S
C1342 O1351 1.246 . S
C1342 O1352 1.257 . S
C1343 O1331 1.251 . S
C1343 O1332 1.274 . S
C1344 O1329 1.245 . S
C1344 O1330 1.257 . S
C1345 O1334 1.259 . S
C1345 O1335 1.289 . S
C1346 O1333 1.246 . S
C1346 O1336 1.257 . S
C1347 O1337 1.274 . S
C1347 O1338 1.251 . S
C1348 O1339 1.257 . S
C1348 O1340 1.245 . S
O1349 Co1320 2.286 . S
O1349 C1341 1.259 . S
O1350 Co1320 2.069 . S
O1350 C1341 1.289 . S
O1351 Co1322 2.143 . S
O1351 C1342 1.246 . S
O1352 Co1320 2.015 . S
O1352 C1342 1.257 . S
Co1353 O1356 2.042 . S
Co1353 O1363 2.264 . S
Co1353 O1382 2.286 . S
Co1353 O1383 2.069 . S
Co1353 O1385 2.015 . S
Co1354 O1356 2.122 . S
Co1354 O1362 2.073 . S
Co1354 O1363 2.327 . S
Co1354 O1364 1.976 . S
Co1355 O1356 2.087 . S
Co1355 O1358 2.087 . S
Co1355 O1365 2.111 . S
Co1355 O1366 2.143 . S
Co1355 O1370 2.111 . S
Co1355 O1384 2.143 . S
O1356 Co1353 2.042 . S
O1356 Co1354 2.122 . S
O1356 Co1355 2.087 . S
O1356 H1357 0.980 . S
H1357 O1356 0.980 . S
O1358 Co1355 2.087 . S
O1358 Co1359 2.042 . S
O1358 Co1360 2.122 . S
O1358 H1361 0.980 . S
Co1359 O1358 2.042 . S
Co1359 O1367 2.286 . S
Co1359 O1368 2.069 . S
Co1359 O1369 2.015 . S
Co1359 O1372 2.264 . S
Co1360 O1358 2.122 . S
Co1360 O1371 1.976 . S
Co1360 O1372 2.327 . S
Co1360 O1373 2.073 . S
H1361 O1358 0.980 . S
O1362 Co1354 2.073 . S
O1362 C1377 1.245 . S
O1363 Co1353 2.264 . S
O1363 Co1354 2.327 . S
O1363 C1377 1.257 . S
O1364 Co1354 1.976 . S
O1364 C1376 1.251 . S
O1365 Co1355 2.111 . S
O1365 C1376 1.274 . S
O1366 Co1355 2.143 . S
O1366 C1379 1.246 . S
O1367 Co1359 2.286 . S
O1367 C1378 1.259 . S
O1368 Co1359 2.069 . S
O1368 C1378 1.289 . S
O1369 Co1359 2.015 . S
O1369 C1379 1.257 . S
O1370 Co1355 2.111 . S
O1370 C1380 1.274 . S
O1371 Co1360 1.976 . S
O1371 C1380 1.251 . S
O1372 Co1359 2.264 . S
O1372 Co1360 2.327 . S
O1372 C1381 1.257 . S
O1373 Co1360 2.073 . S
O1373 C1381 1.245 . S
C1374 O1382 1.259 . S
C1374 O1383 1.289 . S
C1375 O1384 1.246 . S
C1375 O1385 1.257 . S
C1376 O1364 1.251 . S
C1376 O1365 1.274 . S
C1377 O1362 1.245 . S
C1377 O1363 1.257 . S
C1378 O1367 1.259 . S
C1378 O1368 1.289 . S
C1379 O1366 1.246 . S
C1379 O1369 1.257 . S
C1380 O1370 1.274 . S
C1380 O1371 1.251 . S
C1381 O1372 1.257 . S
C1381 O1373 1.245 . S
O1382 Co1353 2.286 . S
O1382 C1374 1.259 . S
O1383 Co1353 2.069 . S
O1383 C1374 1.289 . S
O1384 Co1355 2.143 . S
O1384 C1375 1.246 . S
O1385 Co1353 2.015 . S
O1385 C1375 1.257 . S
Co1386 O1389 2.042 . S
Co1386 O1396 2.264 . S
Co1386 O1415 2.286 . S
Co1386 O1416 2.069 . S
Co1386 O1418 2.015 . S
Co1387 O1389 2.122 . S
Co1387 O1395 2.073 . S
Co1387 O1396 2.327 . S
Co1387 O1397 1.976 . S
Co1388 O1389 2.087 . S
Co1388 O1391 2.087 . S
Co1388 O1398 2.111 . S
Co1388 O1399 2.143 . S
Co1388 O1403 2.111 . S
Co1388 O1417 2.143 . S
O1389 Co1386 2.042 . S
O1389 Co1387 2.122 . S
O1389 Co1388 2.087 . S
O1389 H1390 0.980 . S
H1390 O1389 0.980 . S
O1391 Co1388 2.087 . S
O1391 Co1392 2.042 . S
O1391 Co1393 2.122 . S
O1391 H1394 0.980 . S
Co1392 O1391 2.042 . S
Co1392 O1400 2.286 . S
Co1392 O1401 2.069 . S
Co1392 O1402 2.015 . S
Co1392 O1405 2.264 . S
Co1393 O1391 2.122 . S
Co1393 O1404 1.976 . S
Co1393 O1405 2.327 . S
Co1393 O1406 2.073 . S
H1394 O1391 0.980 . S
O1395 Co1387 2.073 . S
O1395 C1410 1.245 . S
O1396 Co1386 2.264 . S
O1396 Co1387 2.327 . S
O1396 C1410 1.257 . S
O1397 Co1387 1.976 . S
O1397 C1409 1.251 . S
O1398 Co1388 2.111 . S
O1398 C1409 1.274 . S
O1399 Co1388 2.143 . S
O1399 C1412 1.246 . S
O1400 Co1392 2.286 . S
O1400 C1411 1.259 . S
O1401 Co1392 2.069 . S
O1401 C1411 1.289 . S
O1402 Co1392 2.015 . S
O1402 C1412 1.257 . S
O1403 Co1388 2.111 . S
O1403 C1413 1.274 . S
O1404 Co1393 1.976 . S
O1404 C1413 1.251 . S
O1405 Co1392 2.264 . S
O1405 Co1393 2.327 . S
O1405 C1414 1.257 . S
O1406 Co1393 2.073 . S
O1406 C1414 1.245 . S
C1407 O1415 1.259 . S
C1407 O1416 1.289 . S
C1408 O1417 1.246 . S
C1408 O1418 1.257 . S
C1409 O1397 1.251 . S
C1409 O1398 1.274 . S
C1410 O1395 1.245 . S
C1410 O1396 1.257 . S
C1411 O1400 1.259 . S
C1411 O1401 1.289 . S
C1412 O1399 1.246 . S
C1412 O1402 1.257 . S
C1413 O1403 1.274 . S
C1413 O1404 1.251 . S
C1414 O1405 1.257 . S
C1414 O1406 1.245 . S
O1415 Co1386 2.286 . S
O1415 C1407 1.259 . S
O1416 Co1386 2.069 . S
O1416 C1407 1.289 . S
O1417 Co1388 2.143 . S
O1417 C1408 1.246 . S
O1418 Co1386 2.015 . S
O1418 C1408 1.257 . S
Co1419 O1422 2.042 . S
Co1419 O1429 2.264 . S
Co1419 O1448 2.286 . S
Co1419 O1449 2.069 . S
Co1419 O1451 2.015 . S
Co1420 O1422 2.122 . S
Co1420 O1428 2.073 . S
Co1420 O1429 2.327 . S
Co1420 O1430 1.976 . S
Co1421 O1422 2.087 . S
Co1421 O1424 2.087 . S
Co1421 O1431 2.111 . S
Co1421 O1432 2.143 . S
Co1421 O1436 2.111 . S
Co1421 O1450 2.143 . S
O1422 Co1419 2.042 . S
O1422 Co1420 2.122 . S
O1422 Co1421 2.087 . S
O1422 H1423 0.980 . S
H1423 O1422 0.980 . S
O1424 Co1421 2.087 . S
O1424 Co1425 2.042 . S
O1424 Co1426 2.122 . S
O1424 H1427 0.980 . S
Co1425 O1424 2.042 . S
Co1425 O1433 2.286 . S
Co1425 O1434 2.069 . S
Co1425 O1435 2.015 . S
Co1425 O1438 2.264 . S
Co1426 O1424 2.122 . S
Co1426 O1437 1.976 . S
Co1426 O1438 2.327 . S
Co1426 O1439 2.073 . S
H1427 O1424 0.980 . S
O1428 Co1420 2.073 . S
O1428 C1443 1.245 . S
O1429 Co1419 2.264 . S
O1429 Co1420 2.327 . S
O1429 C1443 1.257 . S
O1430 Co1420 1.976 . S
O1430 C1442 1.251 . S
O1431 Co1421 2.111 . S
O1431 C1442 1.274 . S
O1432 Co1421 2.143 . S
O1432 C1445 1.246 . S
O1433 Co1425 2.286 . S
O1433 C1444 1.259 . S
O1434 Co1425 2.069 . S
O1434 C1444 1.289 . S
O1435 Co1425 2.015 . S
O1435 C1445 1.257 . S
O1436 Co1421 2.111 . S
O1436 C1446 1.274 . S
O1437 Co1426 1.976 . S
O1437 C1446 1.251 . S
O1438 Co1425 2.264 . S
O1438 Co1426 2.327 . S
O1438 C1447 1.257 . S
O1439 Co1426 2.073 . S
O1439 C1447 1.245 . S
C1440 O1448 1.259 . S
C1440 O1449 1.289 . S
C1441 O1450 1.246 . S
C1441 O1451 1.257 . S
C1442 O1430 1.251 . S
C1442 O1431 1.274 . S
C1443 O1428 1.245 . S
C1443 O1429 1.257 . S
C1444 O1433 1.259 . S
C1444 O1434 1.289 . S
C1445 O1432 1.246 . S
C1445 O1435 1.257 . S
C1446 O1436 1.274 . S
C1446 O1437 1.251 . S
C1447 O1438 1.257 . S
C1447 O1439 1.245 . S
O1448 Co1419 2.286 . S
O1448 C1440 1.259 . S
O1449 Co1419 2.069 . S
O1449 C1440 1.289 . S
O1450 Co1421 2.143 . S
O1450 C1441 1.246 . S
O1451 Co1419 2.015 . S
O1451 C1441 1.257 . S
Co1452 O1455 2.042 . S
Co1452 O1462 2.264 . S
Co1452 O1481 2.286 . S
Co1452 O1482 2.069 . S
Co1452 O1484 2.015 . S
Co1453 O1455 2.122 . S
Co1453 O1461 2.073 . S
Co1453 O1462 2.327 . S
Co1453 O1463 1.976 . S
Co1454 O1455 2.087 . S
Co1454 O1457 2.087 . S
Co1454 O1464 2.111 . S
Co1454 O1465 2.143 . S
Co1454 O1469 2.111 . S
Co1454 O1483 2.143 . S
O1455 Co1452 2.042 . S
O1455 Co1453 2.122 . S
O1455 Co1454 2.087 . S
O1455 H1456 0.980 . S
H1456 O1455 0.980 . S
O1457 Co1454 2.087 . S
O1457 Co1458 2.042 . S
O1457 Co1459 2.122 . S
O1457 H1460 0.980 . S
Co1458 O1457 2.042 . S
Co1458 O1466 2.286 . S
Co1458 O1467 2.069 . S
Co1458 O1468 2.015 . S
Co1458 O1471 2.264 . S
Co1459 O1457 2.122 . S
Co1459 O1470 1.976 . S
Co1459 O1471 2.327 . S
Co1459 O1472 2.073 . S
H1460 O1457 0.980 . S
O1461 Co1453 2.073 . S
O1461 C1476 1.245 . S
O1462 Co1452 2.264 . S
O1462 Co1453 2.327 . S
O1462 C1476 1.257 . S
O1463 Co1453 1.976 . S
O1463 C1475 1.251 . S
O1464 Co1454 2.111 . S
O1464 C1475 1.274 . S
O1465 Co1454 2.143 . S
O1465 C1478 1.246 . S
O1466 Co1458 2.286 . S
O1466 C1477 1.259 . S
O1467 Co1458 2.069 . S
O1467 C1477 1.289 . S
O1468 Co1458 2.015 . S
O1468 C1478 1.257 . S
O1469 Co1454 2.111 . S
O1469 C1479 1.274 . S
O1470 Co1459 1.976 . S
O1470 C1479 1.251 . S
O1471 Co1458 2.264 . S
O1471 Co1459 2.327 . S
O1471 C1480 1.257 . S
O1472 Co1459 2.073 . S
O1472 C1480 1.245 . S
C1473 O1481 1.259 . S
C1473 O1482 1.289 . S
C1474 O1483 1.246 . S
C1474 O1484 1.257 . S
C1475 O1463 1.251 . S
C1475 O1464 1.274 . S
C1476 O1461 1.245 . S
C1476 O1462 1.257 . S
C1477 O1466 1.259 . S
C1477 O1467 1.289 . S
C1478 O1465 1.246 . S
C1478 O1468 1.257 . S
C1479 O1469 1.274 . S
C1479 O1470 1.251 . S
C1480 O1471 1.257 . S
C1480 O1472 1.245 . S
O1481 Co1452 2.286 . S
O1481 C1473 1.259 . S
O1482 Co1452 2.069 . S
O1482 C1473 1.289 . S
O1483 Co1454 2.143 . S
O1483 C1474 1.246 . S
O1484 Co1452 2.015 . S
O1484 C1474 1.257 . S
Co1485 O1488 2.042 . S
Co1485 O1495 2.264 . S
Co1485 O1514 2.286 . S
Co1485 O1515 2.069 . S
Co1485 O1517 2.015 . S
Co1486 O1488 2.122 . S
Co1486 O1494 2.073 . S
Co1486 O1495 2.327 . S
Co1486 O1496 1.976 . S
Co1487 O1488 2.087 . S
Co1487 O1490 2.087 . S
Co1487 O1497 2.111 . S
Co1487 O1498 2.143 . S
Co1487 O1502 2.111 . S
Co1487 O1516 2.143 . S
O1488 Co1485 2.042 . S
O1488 Co1486 2.122 . S
O1488 Co1487 2.087 . S
O1488 H1489 0.980 . S
H1489 O1488 0.980 . S
O1490 Co1487 2.087 . S
O1490 Co1491 2.042 . S
O1490 Co1492 2.122 . S
O1490 H1493 0.980 . S
Co1491 O1490 2.042 . S
Co1491 O1499 2.286 . S
Co1491 O1500 2.069 . S
Co1491 O1501 2.015 . S
Co1491 O1504 2.264 . S
Co1492 O1490 2.122 . S
Co1492 O1503 1.976 . S
Co1492 O1504 2.327 . S
Co1492 O1505 2.073 . S
H1493 O1490 0.980 . S
O1494 Co1486 2.073 . S
O1494 C1509 1.245 . S
O1495 Co1485 2.264 . S
O1495 Co1486 2.327 . S
O1495 C1509 1.257 . S
O1496 Co1486 1.976 . S
O1496 C1508 1.251 . S
O1497 Co1487 2.111 . S
O1497 C1508 1.274 . S
O1498 Co1487 2.143 . S
O1498 C1511 1.246 . S
O1499 Co1491 2.286 . S
O1499 C1510 1.259 . S
O1500 Co1491 2.069 . S
O1500 C1510 1.289 . S
O1501 Co1491 2.015 . S
O1501 C1511 1.257 . S
O1502 Co1487 2.111 . S
O1502 C1512 1.274 . S
O1503 Co1492 1.976 . S
O1503 C1512 1.251 . S
O1504 Co1491 2.264 . S
O1504 Co1492 2.327 . S
O1504 C1513 1.257 . S
O1505 Co1492 2.073 . S
O1505 C1513 1.245 . S
C1506 O1514 1.259 . S
C1506 O1515 1.289 . S
C1507 O1516 1.246 . S
C1507 O1517 1.257 . S
C1508 O1496 1.251 . S
C1508 O1497 1.274 . S
C1509 O1494 1.245 . S
C1509 O1495 1.257 . S
C1510 O1499 1.259 . S
C1510 O1500 1.289 . S
C1511 O1498 1.246 . S
C1511 O1501 1.257 . S
C1512 O1502 1.274 . S
C1512 O1503 1.251 . S
C1513 O1504 1.257 . S
C1513 O1505 1.245 . S
O1514 Co1485 2.286 . S
O1514 C1506 1.259 . S
O1515 Co1485 2.069 . S
O1515 C1506 1.289 . S
O1516 Co1487 2.143 . S
O1516 C1507 1.246 . S
O1517 Co1485 2.015 . S
O1517 C1507 1.257 . S
Co1518 O1521 2.042 . S
Co1518 O1528 2.264 . S
Co1518 O1547 2.286 . S
Co1518 O1548 2.069 . S
Co1518 O1550 2.015 . S
Co1519 O1521 2.122 . S
Co1519 O1527 2.073 . S
Co1519 O1528 2.327 . S
Co1519 O1529 1.976 . S
Co1520 O1521 2.087 . S
Co1520 O1523 2.087 . S
Co1520 O1530 2.111 . S
Co1520 O1531 2.143 . S
Co1520 O1535 2.111 . S
Co1520 O1549 2.143 . S
O1521 Co1518 2.042 . S
O1521 Co1519 2.122 . S
O1521 Co1520 2.087 . S
O1521 H1522 0.980 . S
H1522 O1521 0.980 . S
O1523 Co1520 2.087 . S
O1523 Co1524 2.042 . S
O1523 Co1525 2.122 . S
O1523 H1526 0.980 . S
Co1524 O1523 2.042 . S
Co1524 O1532 2.286 . S
Co1524 O1533 2.069 . S
Co1524 O1534 2.015 . S
Co1524 O1537 2.264 . S
Co1525 O1523 2.122 . S
Co1525 O1536 1.976 . S
Co1525 O1537 2.327 . S
Co1525 O1538 2.073 . S
H1526 O1523 0.980 . S
O1527 Co1519 2.073 . S
O1527 C1542 1.245 . S
O1528 Co1518 2.264 . S
O1528 Co1519 2.327 . S
O1528 C1542 1.257 . S
O1529 Co1519 1.976 . S
O1529 C1541 1.251 . S
O1530 Co1520 2.111 . S
O1530 C1541 1.274 . S
O1531 Co1520 2.143 . S
O1531 C1544 1.246 . S
O1532 Co1524 2.286 . S
O1532 C1543 1.259 . S
O1533 Co1524 2.069 . S
O1533 C1543 1.289 . S
O1534 Co1524 2.015 . S
O1534 C1544 1.257 . S
O1535 Co1520 2.111 . S
O1535 C1545 1.274 . S
O1536 Co1525 1.976 . S
O1536 C1545 1.251 . S
O1537 Co1524 2.264 . S
O1537 Co1525 2.327 . S
O1537 C1546 1.257 . S
O1538 Co1525 2.073 . S
O1538 C1546 1.245 . S
C1539 O1547 1.259 . S
C1539 O1548 1.289 . S
C1540 O1549 1.246 . S
C1540 O1550 1.257 . S
C1541 O1529 1.251 . S
C1541 O1530 1.274 . S
C1542 O1527 1.245 . S
C1542 O1528 1.257 . S
C1543 O1532 1.259 . S
C1543 O1533 1.289 . S
C1544 O1531 1.246 . S
C1544 O1534 1.257 . S
C1545 O1535 1.274 . S
C1545 O1536 1.251 . S
C1546 O1537 1.257 . S
C1546 O1538 1.245 . S
O1547 Co1518 2.286 . S
O1547 C1539 1.259 . S
O1548 Co1518 2.069 . S
O1548 C1539 1.289 . S
O1549 Co1520 2.143 . S
O1549 C1540 1.246 . S
O1550 Co1518 2.015 . S
O1550 C1540 1.257 . S
Co1551 O1554 2.042 . S
Co1551 O1561 2.264 . S
Co1551 O1580 2.286 . S
Co1551 O1581 2.069 . S
Co1551 O1583 2.015 . S
Co1552 O1554 2.122 . S
Co1552 O1560 2.073 . S
Co1552 O1561 2.327 . S
Co1552 O1562 1.976 . S
Co1553 O1554 2.087 . S
Co1553 O1556 2.087 . S
Co1553 O1563 2.111 . S
Co1553 O1564 2.143 . S
Co1553 O1568 2.111 . S
Co1553 O1582 2.143 . S
O1554 Co1551 2.042 . S
O1554 Co1552 2.122 . S
O1554 Co1553 2.087 . S
O1554 H1555 0.980 . S
H1555 O1554 0.980 . S
O1556 Co1553 2.087 . S
O1556 Co1557 2.042 . S
O1556 Co1558 2.122 . S
O1556 H1559 0.980 . S
Co1557 O1556 2.042 . S
Co1557 O1565 2.286 . S
Co1557 O1566 2.069 . S
Co1557 O1567 2.015 . S
Co1557 O1570 2.264 . S
Co1558 O1556 2.122 . S
Co1558 O1569 1.976 . S
Co1558 O1570 2.327 . S
Co1558 O1571 2.073 . S
H1559 O1556 0.980 . S
O1560 Co1552 2.073 . S
O1560 C1575 1.245 . S
O1561 Co1551 2.264 . S
O1561 Co1552 2.327 . S
O1561 C1575 1.257 . S
O1562 Co1552 1.976 . S
O1562 C1574 1.251 . S
O1563 Co1553 2.111 . S
O1563 C1574 1.274 . S
O1564 Co1553 2.143 . S
O1564 C1577 1.246 . S
O1565 Co1557 2.286 . S
O1565 C1576 1.259 . S
O1566 Co1557 2.069 . S
O1566 C1576 1.289 . S
O1567 Co1557 2.015 . S
O1567 C1577 1.257 . S
O1568 Co1553 2.111 . S
O1568 C1578 1.274 . S
O1569 Co1558 1.976 . S
O1569 C1578 1.251 . S
O1570 Co1557 2.264 . S
O1570 Co1558 2.327 . S
O1570 C1579 1.257 . S
O1571 Co1558 2.073 . S
O1571 C1579 1.245 . S
C1572 O1580 1.259 . S
C1572 O1581 1.289 . S
C1573 O1582 1.246 . S
C1573 O1583 1.257 . S
C1574 O1562 1.251 . S
C1574 O1563 1.274 . S
C1575 O1560 1.245 . S
C1575 O1561 1.257 . S
C1576 O1565 1.259 . S
C1576 O1566 1.289 . S
C1577 O1564 1.246 . S
C1577 O1567 1.257 . S
C1578 O1568 1.274 . S
C1578 O1569 1.251 . S
C1579 O1570 1.257 . S
C1579 O1571 1.245 . S
O1580 Co1551 2.286 . S
O1580 C1572 1.259 . S
O1581 Co1551 2.069 . S
O1581 C1572 1.289 . S
O1582 Co1553 2.143 . S
O1582 C1573 1.246 . S
O1583 Co1551 2.015 . S
O1583 C1573 1.257 . S
H1584 C1590 0.930 . S
H1585 C1593 0.930 . S
H1586 C1594 0.928 . S
H1587 C1595 0.930 . S
H1588 C1598 0.930 . S
H1589 C1599 0.930 . S
C1590 H1584 0.930 . S
C1590 C1591 1.355 . S
C1590 C1592 1.415 . S
C1591 C1590 1.355 . S
C1591 C1593 1.419 . S
C1592 C1590 1.415 . S
C1592 C1597 1.425 . S
C1592 C1599 1.409 . S
C1593 H1585 0.930 . S
C1593 C1591 1.419 . S
C1593 C1594 1.362 . S
C1594 H1586 0.928 . S
C1594 C1593 1.362 . S
C1594 C1597 1.409 . S
C1595 H1587 0.930 . S
C1595 C1596 1.355 . S
C1595 C1597 1.415 1_545 S
C1596 C1595 1.355 . S
C1596 C1598 1.419 . S
C1597 C1592 1.425 . S
C1597 C1594 1.409 . S
C1597 C1595 1.415 1_565 S
C1598 H1588 0.930 . S
C1598 C1596 1.419 . S
C1598 C1599 1.362 1_545 S
C1599 H1589 0.930 . S
C1599 C1592 1.409 . S
C1599 C1598 1.362 1_565 S
H1600 C1606 0.930 . S
H1601 C1609 0.930 . S
H1602 C1610 0.930 . S
H1603 C1611 0.930 . S
H1604 C1614 0.930 . S
H1605 C1615 0.927 1_655 S
C1606 H1600 0.930 . S
C1606 C1607 1.355 . S
C1606 C1608 1.415 . S
C1607 C1606 1.355 . S
C1607 C1609 1.419 . S
C1608 C1606 1.415 . S
C1608 C1613 1.425 . S
C1608 C1615 1.409 . S
C1609 H1601 0.930 . S
C1609 C1607 1.419 . S
C1609 C1610 1.362 . S
C1610 H1602 0.930 . S
C1610 C1609 1.362 . S
C1610 C1613 1.409 . S
C1611 H1603 0.930 . S
C1611 C1612 1.355 1_455 S
C1611 C1613 1.415 . S
C1612 C1611 1.355 1_655 S
C1612 C1614 1.419 . S
C1613 C1608 1.425 . S
C1613 C1610 1.409 . S
C1613 C1611 1.415 . S
C1614 H1604 0.930 . S
C1614 C1612 1.419 . S
C1614 C1615 1.362 1_655 S
C1615 H1605 0.927 1_455 S
C1615 C1608 1.409 . S
C1615 C1614 1.362 1_455 S
H1616 C1622 0.930 . S
H1617 C1625 0.930 . S
H1618 C1626 0.930 . S
H1619 C1627 0.930 . S
H1620 C1630 0.930 . S
H1621 C1631 0.930 . S
C1622 H1616 0.930 . S
C1622 C1623 1.355 . S
C1622 C1624 1.415 1_556 S
C1623 C1622 1.355 . S
C1623 C1625 1.419 . S
C1624 C1622 1.415 1_554 S
C1624 C1629 1.425 . S
C1624 C1631 1.409 . S
C1625 H1617 0.930 . S
C1625 C1623 1.419 . S
C1625 C1626 1.362 1_556 S
C1626 H1618 0.930 . S
C1626 C1625 1.362 1_554 S
C1626 C1629 1.409 . S
C1627 H1619 0.930 . S
C1627 C1628 1.355 . S
C1627 C1629 1.415 . S
C1628 C1627 1.355 . S
C1628 C1630 1.419 . S
C1629 C1624 1.425 . S
C1629 C1626 1.409 . S
C1629 C1627 1.415 . S
C1630 H1620 0.930 . S
C1630 C1628 1.419 . S
C1630 C1631 1.362 . S
C1631 H1621 0.930 . S
C1631 C1624 1.409 . S
C1631 C1630 1.362 . S
H1632 C1638 0.930 . S
H1633 C1641 0.930 . S
H1634 C1642 0.930 . S
H1635 C1643 0.930 . S
H1636 C1646 0.930 . S
H1637 C1647 0.930 . S
C1638 H1632 0.930 . S
C1638 C1639 1.355 . S
C1638 C1640 1.415 . S
C1639 C1638 1.355 . S
C1639 C1641 1.419 . S
C1640 C1638 1.415 . S
C1640 C1645 1.425 . S
C1640 C1647 1.409 . S
C1641 H1633 0.930 . S
C1641 C1639 1.419 . S
C1641 C1642 1.362 . S
C1642 H1634 0.930 . S
C1642 C1641 1.362 . S
C1642 C1645 1.409 . S
C1643 H1635 0.930 . S
C1643 C1644 1.355 . S
C1643 C1645 1.415 . S
C1644 C1643 1.355 . S
C1644 C1646 1.419 . S
C1645 C1640 1.425 . S
C1645 C1642 1.409 . S
C1645 C1643 1.415 . S
C1646 H1636 0.930 . S
C1646 C1644 1.419 . S
C1646 C1647 1.362 . S
C1647 H1637 0.930 . S
C1647 C1640 1.409 . S
C1647 C1646 1.362 . S
H1648 C1654 0.930 . S
H1649 C1657 0.930 . S
H1650 C1658 0.930 . S
H1651 C1659 0.930 . S
H1652 C1662 0.930 . S
H1653 C1663 0.930 . S
C1654 H1648 0.930 . S
C1654 C1655 1.355 . S
C1654 C1656 1.415 . S
C1655 C1654 1.355 . S
C1655 C1657 1.419 . S
C1656 C1654 1.415 . S
C1656 C1661 1.425 . S
C1656 C1663 1.409 . S
C1657 H1649 0.930 . S
C1657 C1655 1.419 . S
C1657 C1658 1.362 . S
C1658 H1650 0.930 . S
C1658 C1657 1.362 . S
C1658 C1661 1.409 . S
C1659 H1651 0.930 . S
C1659 C1660 1.355 . S
C1659 C1661 1.415 . S
C1660 C1659 1.355 . S
C1660 C1662 1.419 . S
C1661 C1656 1.425 . S
C1661 C1658 1.409 . S
C1661 C1659 1.415 . S
C1662 H1652 0.930 . S
C1662 C1660 1.419 . S
C1662 C1663 1.362 . S
C1663 H1653 0.930 . S
C1663 C1656 1.409 . S
C1663 C1662 1.362 . S
H1664 C1670 0.930 . S
H1665 C1673 0.930 . S
H1666 C1674 0.930 . S
H1667 C1675 0.930 . S
H1668 C1678 0.930 . S
H1669 C1679 0.930 1_556 S
C1670 H1664 0.930 . S
C1670 C1671 1.355 . S
C1670 C1672 1.415 1_556 S
C1671 C1670 1.355 . S
C1671 C1673 1.419 1_556 S
C1672 C1670 1.415 1_554 S
C1672 C1677 1.425 . S
C1672 C1679 1.409 . S
C1673 H1665 0.930 . S
C1673 C1671 1.419 1_554 S
C1673 C1674 1.362 . S
C1674 H1666 0.930 . S
C1674 C1673 1.362 . S
C1674 C1677 1.409 . S
C1675 H1667 0.930 . S
C1675 C1676 1.355 . S
C1675 C1677 1.415 . S
C1676 C1675 1.355 . S
C1676 C1678 1.419 . S
C1677 C1672 1.425 . S
C1677 C1674 1.409 . S
C1677 C1675 1.415 . S
C1678 H1668 0.930 . S
C1678 C1676 1.419 . S
C1678 C1679 1.362 . S
C1679 H1669 0.930 1_554 S
C1679 C1672 1.409 . S
C1679 C1678 1.362 . S
H1680 C1686 0.901 1_545 S
H1681 C1689 0.930 . S
H1682 C1690 0.930 . S
H1683 C1691 0.930 . S
H1684 C1694 0.930 . S
H1685 C1695 0.930 . S
C1686 H1680 0.901 1_565 S
C1686 C1687 1.355 . S
C1686 C1688 1.415 . S
C1687 C1686 1.355 . S
C1687 C1689 1.419 . S
C1688 C1686 1.415 . S
C1688 C1693 1.425 . S
C1688 C1695 1.409 . S
C1689 H1681 0.930 . S
C1689 C1687 1.419 . S
C1689 C1690 1.362 . S
C1690 H1682 0.930 . S
C1690 C1689 1.362 . S
C1690 C1693 1.409 . S
C1691 H1683 0.930 . S
C1691 C1692 1.355 . S
C1691 C1693 1.415 . S
C1692 C1691 1.355 . S
C1692 C1694 1.419 . S
C1693 C1688 1.425 . S
C1693 C1690 1.409 . S
C1693 C1691 1.415 . S
C1694 H1684 0.930 . S
C1694 C1692 1.419 . S
C1694 C1695 1.362 . S
C1695 H1685 0.930 . S
C1695 C1688 1.409 . S
C1695 C1694 1.362 . S
H1696 C1702 0.930 . S
H1697 C1705 0.930 . S
H1698 C1706 0.930 . S
H1699 C1707 0.930 . S
H1700 C1710 0.930 . S
H1701 C1711 0.930 . S
C1702 H1696 0.930 . S
C1702 C1703 1.355 . S
C1702 C1704 1.415 . S
C1703 C1702 1.355 . S
C1703 C1705 1.419 . S
C1704 C1702 1.415 . S
C1704 C1709 1.425 . S
C1704 C1711 1.409 1_455 S
C1705 H1697 0.930 . S
C1705 C1703 1.419 . S
C1705 C1706 1.362 . S
C1706 H1698 0.930 . S
C1706 C1705 1.362 . S
C1706 C1709 1.409 . S
C1707 H1699 0.930 . S
C1707 C1708 1.355 1_455 S
C1707 C1709 1.415 . S
C1708 C1707 1.355 1_655 S
C1708 C1710 1.419 . S
C1709 C1704 1.425 . S
C1709 C1706 1.409 . S
C1709 C1707 1.415 . S
C1710 H1700 0.930 . S
C1710 C1708 1.419 . S
C1710 C1711 1.362 . S
C1711 H1701 0.930 . S
C1711 C1704 1.409 1_655 S
C1711 C1710 1.362 . S
H1712 C1718 0.930 . S
H1713 C1721 0.930 . S
H1714 C1722 0.930 . S
H1715 C1723 0.930 . S
H1716 C1726 0.930 . S
H1717 C1727 0.930 . S
C1718 H1712 0.930 . S
C1718 C1719 1.355 . S
C1718 C1720 1.415 . S
C1719 C1718 1.355 . S
C1719 C1721 1.419 . S
C1720 C1718 1.415 . S
C1720 C1725 1.425 . S
C1720 C1727 1.409 1_554 S
C1721 H1713 0.930 . S
C1721 C1719 1.419 . S
C1721 C1722 1.362 . S
C1722 H1714 0.930 . S
C1722 C1721 1.362 . S
C1722 C1725 1.409 . S
C1723 H1715 0.930 . S
C1723 C1724 1.355 1_554 S
C1723 C1725 1.415 . S
C1724 C1723 1.355 1_556 S
C1724 C1726 1.419 . S
C1725 C1720 1.425 . S
C1725 C1722 1.409 . S
C1725 C1723 1.415 . S
C1726 H1716 0.930 . S
C1726 C1724 1.419 . S
C1726 C1727 1.362 . S
C1727 H1717 0.930 . S
C1727 C1720 1.409 1_556 S
C1727 C1726 1.362 . S
H1728 C1734 0.930 . S
H1729 C1737 0.930 . S
H1730 C1738 0.930 . S
H1731 C1739 0.930 . S
H1732 C1742 0.930 . S
H1733 C1743 0.930 . S
C1734 H1728 0.930 . S
C1734 C1735 1.355 . S
C1734 C1736 1.415 . S
C1735 C1734 1.355 . S
C1735 C1737 1.419 . S
C1736 C1734 1.415 . S
C1736 C1741 1.425 . S
C1736 C1743 1.409 . S
C1737 H1729 0.930 . S
C1737 C1735 1.419 . S
C1737 C1738 1.362 . S
C1738 H1730 0.930 . S
C1738 C1737 1.362 . S
C1738 C1741 1.409 . S
C1739 H1731 0.930 . S
C1739 C1740 1.355 . S
C1739 C1741 1.415 . S
C1740 C1739 1.355 . S
C1740 C1742 1.419 . S
C1741 C1736 1.425 . S
C1741 C1738 1.409 . S
C1741 C1739 1.415 . S
C1742 H1732 0.930 . S
C1742 C1740 1.419 . S
C1742 C1743 1.362 . S
C1743 H1733 0.930 . S
C1743 C1736 1.409 . S
C1743 C1742 1.362 . S
H1744 C1750 0.930 . S
H1745 C1753 0.930 . S
H1746 C1754 0.930 . S
H1747 C1755 0.930 . S
H1748 C1758 0.930 . S
H1749 C1759 0.930 . S
C1750 H1744 0.930 . S
C1750 C1751 1.355 . S
C1750 C1752 1.415 . S
C1751 C1750 1.355 . S
C1751 C1753 1.419 . S
C1752 C1750 1.415 . S
C1752 C1757 1.425 . S
C1752 C1759 1.409 . S
C1753 H1745 0.930 . S
C1753 C1751 1.419 . S
C1753 C1754 1.362 . S
C1754 H1746 0.930 . S
C1754 C1753 1.362 . S
C1754 C1757 1.409 . S
C1755 H1747 0.930 . S
C1755 C1756 1.355 . S
C1755 C1757 1.415 . S
C1756 C1755 1.355 . S
C1756 C1758 1.419 . S
C1757 C1752 1.425 . S
C1757 C1754 1.409 . S
C1757 C1755 1.415 . S
C1758 H1748 0.930 . S
C1758 C1756 1.419 . S
C1758 C1759 1.362 . S
C1759 H1749 0.930 . S
C1759 C1752 1.409 . S
C1759 C1758 1.362 . S
H1760 C1766 0.930 . S
H1761 C1769 0.930 . S
H1762 C1770 0.930 . S
H1763 C1771 0.930 . S
H1764 C1774 0.930 . S
H1765 C1775 0.930 . S
C1766 H1760 0.930 . S
C1766 C1767 1.355 . S
C1766 C1768 1.415 . S
C1767 C1766 1.355 . S
C1767 C1769 1.419 . S
C1768 C1766 1.415 . S
C1768 C1773 1.425 . S
C1768 C1775 1.409 . S
C1769 H1761 0.930 . S
C1769 C1767 1.419 . S
C1769 C1770 1.362 . S
C1770 H1762 0.930 . S
C1770 C1769 1.362 . S
C1770 C1773 1.409 . S
C1771 H1763 0.930 . S
C1771 C1772 1.355 . S
C1771 C1773 1.415 . S
C1772 C1771 1.355 . S
C1772 C1774 1.419 . S
C1773 C1768 1.425 . S
C1773 C1770 1.409 . S
C1773 C1771 1.415 . S
C1774 H1764 0.930 . S
C1774 C1772 1.419 . S
C1774 C1775 1.362 . S
C1775 H1765 0.930 . S
C1775 C1768 1.409 . S
C1775 C1774 1.362 . S
H1776 C1782 0.930 . S
H1777 C1785 0.930 . S
H1778 C1786 0.930 . S
H1779 C1787 0.930 . S
H1780 C1790 0.930 . S
H1781 C1791 0.930 . S
C1782 H1776 0.930 . S
C1782 C1783 1.355 . S
C1782 C1784 1.415 . S
C1783 C1782 1.355 . S
C1783 C1785 1.419 . S
C1784 C1782 1.415 . S
C1784 C1789 1.425 . S
C1784 C1791 1.409 . S
C1785 H1777 0.930 . S
C1785 C1783 1.419 . S
C1785 C1786 1.362 . S
C1786 H1778 0.930 . S
C1786 C1785 1.362 . S
C1786 C1789 1.409 . S
C1787 H1779 0.930 . S
C1787 C1788 1.355 . S
C1787 C1789 1.415 . S
C1788 C1787 1.355 . S
C1788 C1790 1.419 . S
C1789 C1784 1.425 . S
C1789 C1786 1.409 . S
C1789 C1787 1.415 . S
C1790 H1780 0.930 . S
C1790 C1788 1.419 . S
C1790 C1791 1.362 . S
C1791 H1781 0.930 . S
C1791 C1784 1.409 . S
C1791 C1790 1.362 . S
H1792 C1798 0.930 . S
H1793 C1801 0.930 . S
H1794 C1802 0.930 . S
H1795 C1803 0.930 . S
H1796 C1806 0.930 . S
H1797 C1807 0.930 . S
C1798 H1792 0.930 . S
C1798 C1799 1.355 . S
C1798 C1800 1.415 . S
C1799 C1798 1.355 . S
C1799 C1801 1.419 . S
C1800 C1798 1.415 . S
C1800 C1805 1.425 . S
C1800 C1807 1.409 . S
C1801 H1793 0.930 . S
C1801 C1799 1.419 . S
C1801 C1802 1.362 . S
C1802 H1794 0.930 . S
C1802 C1801 1.362 . S
C1802 C1805 1.409 . S
C1803 H1795 0.930 . S
C1803 C1804 1.355 . S
C1803 C1805 1.415 . S
C1804 C1803 1.355 . S
C1804 C1806 1.419 . S
C1805 C1800 1.425 . S
C1805 C1802 1.409 . S
C1805 C1803 1.415 . S
C1806 H1796 0.930 . S
C1806 C1804 1.419 . S
C1806 C1807 1.362 . S
C1807 H1797 0.930 . S
C1807 C1800 1.409 . S
C1807 C1806 1.362 . S
H1808 C1814 0.930 . S
H1809 C1817 0.930 . S
H1810 C1818 0.930 . S
H1811 C1819 0.930 . S
H1812 C1822 0.930 . S
H1813 C1823 0.930 . S
C1814 H1808 0.930 . S
C1814 C1815 1.355 . S
C1814 C1816 1.415 . S
C1815 C1814 1.355 . S
C1815 C1817 1.419 . S
C1816 C1814 1.415 . S
C1816 C1821 1.425 . S
C1816 C1823 1.409 . S
C1817 H1809 0.930 . S
C1817 C1815 1.419 . S
C1817 C1818 1.362 . S
C1818 H1810 0.930 . S
C1818 C1817 1.362 . S
C1818 C1821 1.409 . S
C1819 H1811 0.930 . S
C1819 C1820 1.355 . S
C1819 C1821 1.415 . S
C1820 C1819 1.355 . S
C1820 C1822 1.419 . S
C1821 C1816 1.425 . S
C1821 C1818 1.409 . S
C1821 C1819 1.415 . S
C1822 H1812 0.930 . S
C1822 C1820 1.419 . S
C1822 C1823 1.362 . S
C1823 H1813 0.930 . S
C1823 C1816 1.409 . S
C1823 C1822 1.362 . S
H1824 C1830 0.930 . S
H1825 C1833 0.930 . S
H1826 C1834 0.930 1_556 S
H1827 C1835 0.930 . S
H1828 C1838 0.930 . S
H1829 C1839 0.919 1_554 S
C1830 H1824 0.930 . S
C1830 C1831 1.355 . S
C1830 C1832 1.415 . S
C1831 C1830 1.355 . S
C1831 C1833 1.419 . S
C1832 C1830 1.415 . S
C1832 C1837 1.425 1_554 S
C1832 C1839 1.409 1_554 S
C1833 H1825 0.930 . S
C1833 C1831 1.419 . S
C1833 C1834 1.362 . S
C1834 H1826 0.930 1_554 S
C1834 C1833 1.362 . S
C1834 C1837 1.409 1_554 S
C1835 H1827 0.930 . S
C1835 C1836 1.355 . S
C1835 C1837 1.415 . S
C1836 C1835 1.355 . S
C1836 C1838 1.419 . S
C1837 C1832 1.425 1_556 S
C1837 C1834 1.409 1_556 S
C1837 C1835 1.415 . S
C1838 H1828 0.930 . S
C1838 C1836 1.419 . S
C1838 C1839 1.362 . S
C1839 H1829 0.919 1_556 S
C1839 C1832 1.409 1_556 S
C1839 C1838 1.362 . S
H1840 C1846 0.930 . S
H1841 C1849 0.930 . S
H1842 C1850 0.930 . S
H1843 C1851 0.930 . S
H1844 C1854 0.930 . S
H1845 C1855 0.930 . S
C1846 H1840 0.930 . S
C1846 C1847 1.355 . S
C1846 C1848 1.415 1_455 S
C1847 C1846 1.355 . S
C1847 C1849 1.419 . S
C1848 C1846 1.415 1_655 S
C1848 C1853 1.425 . S
C1848 C1855 1.409 . S
C1849 H1841 0.930 . S
C1849 C1847 1.419 . S
C1849 C1850 1.362 1_455 S
C1850 H1842 0.930 . S
C1850 C1849 1.362 1_655 S
C1850 C1853 1.409 . S
C1851 H1843 0.930 . S
C1851 C1852 1.355 . S
C1851 C1853 1.415 . S
C1852 C1851 1.355 . S
C1852 C1854 1.419 . S
C1853 C1848 1.425 . S
C1853 C1850 1.409 . S
C1853 C1851 1.415 . S
C1854 H1844 0.930 . S
C1854 C1852 1.419 . S
C1854 C1855 1.362 . S
C1855 H1845 0.930 . S
C1855 C1848 1.409 . S
C1855 C1854 1.362 . S
H1856 C1862 0.930 . S
H1857 C1865 0.930 . S
H1858 C1866 0.930 . S
H1859 C1867 0.930 . S
H1860 C1870 0.930 . S
H1861 C1871 0.930 . S
C1862 H1856 0.930 . S
C1862 C1863 1.355 . S
C1862 C1864 1.415 . S
C1863 C1862 1.355 . S
C1863 C1865 1.419 . S
C1864 C1862 1.415 . S
C1864 C1869 1.425 . S
C1864 C1871 1.409 . S
C1865 H1857 0.930 . S
C1865 C1863 1.419 . S
C1865 C1866 1.362 . S
C1866 H1858 0.930 . S
C1866 C1865 1.362 . S
C1866 C1869 1.409 . S
C1867 H1859 0.930 . S
C1867 C1868 1.355 . S
C1867 C1869 1.415 . S
C1868 C1867 1.355 . S
C1868 C1870 1.419 . S
C1869 C1864 1.425 . S
C1869 C1866 1.409 . S
C1869 C1867 1.415 . S
C1870 H1860 0.930 . S
C1870 C1868 1.419 . S
C1870 C1871 1.362 . S
C1871 H1861 0.930 . S
C1871 C1864 1.409 . S
C1871 C1870 1.362 . S
H1872 C1878 0.930 . S
H1873 C1881 0.930 . S
H1874 C1882 0.930 . S
H1875 C1883 0.930 . S
H1876 C1886 0.930 . S
H1877 C1887 0.930 . S
C1878 H1872 0.930 . S
C1878 C1879 1.355 . S
C1878 C1880 1.415 . S
C1879 C1878 1.355 . S
C1879 C1881 1.419 . S
C1880 C1878 1.415 . S
C1880 C1885 1.425 . S
C1880 C1887 1.409 . S
C1881 H1873 0.930 . S
C1881 C1879 1.419 . S
C1881 C1882 1.362 . S
C1882 H1874 0.930 . S
C1882 C1881 1.362 . S
C1882 C1885 1.409 . S
C1883 H1875 0.930 . S
C1883 C1884 1.355 . S
C1883 C1885 1.415 . S
C1884 C1883 1.355 . S
C1884 C1886 1.419 . S
C1885 C1880 1.425 . S
C1885 C1882 1.409 . S
C1885 C1883 1.415 . S
C1886 H1876 0.930 . S
C1886 C1884 1.419 . S
C1886 C1887 1.362 . S
C1887 H1877 0.930 . S
C1887 C1880 1.409 . S
C1887 C1886 1.362 . S
H1888 C1894 0.930 . S
H1889 C1897 0.930 . S
H1890 C1898 0.930 . S
H1891 C1899 0.930 . S
H1892 C1902 0.930 . S
H1893 C1903 0.930 . S
C1894 H1888 0.930 . S
C1894 C1895 1.355 . S
C1894 C1896 1.415 . S
C1895 C1894 1.355 . S
C1895 C1897 1.419 . S
C1896 C1894 1.415 . S
C1896 C1901 1.425 . S
C1896 C1903 1.409 1_545 S
C1897 H1889 0.930 . S
C1897 C1895 1.419 . S
C1897 C1898 1.362 . S
C1898 H1890 0.930 . S
C1898 C1897 1.362 . S
C1898 C1901 1.409 . S
C1899 H1891 0.930 . S
C1899 C1900 1.355 . S
C1899 C1901 1.415 1_565 S
C1900 C1899 1.355 . S
C1900 C1902 1.419 . S
C1901 C1896 1.425 . S
C1901 C1898 1.409 . S
C1901 C1899 1.415 1_545 S
C1902 H1892 0.930 . S
C1902 C1900 1.419 . S
C1902 C1903 1.362 . S
C1903 H1893 0.930 . S
C1903 C1896 1.409 1_565 S
C1903 C1902 1.362 . S
H1904 C1910 0.930 . S
H1905 C1913 0.930 . S
H1906 C1914 0.930 . S
H1907 C1915 0.930 . S
H1908 C1918 0.930 . S
H1909 C1919 0.930 . S
C1910 H1904 0.930 . S
C1910 C1911 1.355 . S
C1910 C1912 1.415 . S
C1911 C1910 1.355 . S
C1911 C1913 1.419 . S
C1912 C1910 1.415 . S
C1912 C1917 1.425 . S
C1912 C1919 1.409 . S
C1913 H1905 0.930 . S
C1913 C1911 1.419 . S
C1913 C1914 1.362 . S
C1914 H1906 0.930 . S
C1914 C1913 1.362 . S
C1914 C1917 1.409 . S
C1915 H1907 0.930 . S
C1915 C1916 1.355 . S
C1915 C1917 1.415 . S
C1916 C1915 1.355 . S
C1916 C1918 1.419 . S
C1917 C1912 1.425 . S
C1917 C1914 1.409 . S
C1917 C1915 1.415 . S
C1918 H1908 0.930 . S
C1918 C1916 1.419 . S
C1918 C1919 1.362 . S
C1919 H1909 0.930 . S
C1919 C1912 1.409 . S
C1919 C1918 1.362 . S
H1920 C1926 0.930 . S
H1921 C1929 0.930 . S
H1922 C1930 0.930 . S
H1923 C1931 0.930 . S
H1924 C1934 0.930 . S
H1925 C1935 0.930 . S
C1926 H1920 0.930 . S
C1926 C1927 1.355 . S
C1926 C1928 1.415 . S
C1927 C1926 1.355 . S
C1927 C1929 1.419 . S
C1928 C1926 1.415 . S
C1928 C1933 1.425 . S
C1928 C1935 1.409 . S
C1929 H1921 0.930 . S
C1929 C1927 1.419 . S
C1929 C1930 1.362 . S
C1930 H1922 0.930 . S
C1930 C1929 1.362 . S
C1930 C1933 1.409 . S
C1931 H1923 0.930 . S
C1931 C1932 1.355 . S
C1931 C1933 1.415 . S
C1932 C1931 1.355 . S
C1932 C1934 1.419 . S
C1933 C1928 1.425 . S
C1933 C1930 1.409 . S
C1933 C1931 1.415 . S
C1934 H1924 0.930 . S
C1934 C1932 1.419 . S
C1934 C1935 1.362 . S
C1935 H1925 0.930 . S
C1935 C1928 1.409 . S
C1935 C1934 1.362 . S
H1936 C1942 0.930 . S
H1937 C1945 0.930 . S
H1938 C1946 0.930 . S
H1939 C1947 0.930 . S
H1940 C1950 0.930 . S
H1941 C1951 0.930 . S
C1942 H1936 0.930 . S
C1942 C1943 1.355 . S
C1942 C1944 1.415 1_545 S
C1943 C1942 1.355 . S
C1943 C1945 1.419 . S
C1944 C1942 1.415 1_565 S
C1944 C1949 1.425 . S
C1944 C1951 1.409 . S
C1945 H1937 0.930 . S
C1945 C1943 1.419 . S
C1945 C1946 1.362 1_545 S
C1946 H1938 0.930 . S
C1946 C1945 1.362 1_565 S
C1946 C1949 1.409 . S
C1947 H1939 0.930 . S
C1947 C1948 1.355 . S
C1947 C1949 1.415 . S
C1948 C1947 1.355 . S
C1948 C1950 1.419 . S
C1949 C1944 1.425 . S
C1949 C1946 1.409 . S
C1949 C1947 1.415 . S
C1950 H1940 0.930 . S
C1950 C1948 1.419 . S
C1950 C1951 1.362 . S
C1951 H1941 0.930 . S
C1951 C1944 1.409 . S
C1951 C1950 1.362 . S
H1952 C1958 0.930 . S
H1953 C1961 0.930 . S
H1954 C1962 0.930 . S
H1955 C1963 0.930 . S
H1956 C1966 0.930 . S
H1957 C1967 0.930 . S
C1958 H1952 0.930 . S
C1958 C1959 1.355 . S
C1958 C1960 1.415 . S
C1959 C1958 1.355 . S
C1959 C1961 1.419 . S
C1960 C1958 1.415 . S
C1960 C1965 1.425 . S
C1960 C1967 1.409 1_655 S
C1961 H1953 0.930 . S
C1961 C1959 1.419 . S
C1961 C1962 1.362 . S
C1962 H1954 0.930 . S
C1962 C1961 1.362 . S
C1962 C1965 1.409 . S
C1963 H1955 0.930 . S
C1963 C1964 1.355 . S
C1963 C1965 1.415 1_455 S
C1964 C1963 1.355 . S
C1964 C1966 1.419 . S
C1965 C1960 1.425 . S
C1965 C1962 1.409 . S
C1965 C1963 1.415 1_655 S
C1966 H1956 0.930 . S
C1966 C1964 1.419 . S
C1966 C1967 1.362 . S
C1967 H1957 0.930 . S
C1967 C1960 1.409 1_455 S
C1967 C1966 1.362 . S
H1968 C1974 0.930 . S
H1969 C1977 0.930 . S
H1970 C1978 0.930 . S
H1971 C1979 0.930 . S
H1972 C1982 0.930 . S
H1973 C1983 0.930 . S
C1974 H1968 0.930 . S
C1974 C1975 1.355 1_565 S
C1974 C1976 1.415 . S
C1975 C1974 1.355 1_545 S
C1975 C1977 1.419 . S
C1976 C1974 1.415 . S
C1976 C1981 1.425 . S
C1976 C1983 1.409 . S
C1977 H1969 0.930 . S
C1977 C1975 1.419 . S
C1977 C1978 1.362 . S
C1978 H1970 0.930 . S
C1978 C1977 1.362 . S
C1978 C1981 1.409 1_545 S
C1979 H1971 0.930 . S
C1979 C1980 1.355 . S
C1979 C1981 1.415 . S
C1980 C1979 1.355 . S
C1980 C1982 1.419 . S
C1981 C1976 1.425 . S
C1981 C1978 1.409 1_565 S
C1981 C1979 1.415 . S
C1982 H1972 0.930 . S
C1982 C1980 1.419 . S
C1982 C1983 1.362 . S
C1983 H1973 0.930 . S
C1983 C1976 1.409 . S
C1983 C1982 1.362 . S
H1984 C1990 0.930 . S
H1985 C1993 0.930 . S
H1986 C1994 0.930 . S
H1987 C1995 0.930 . S
H1988 C1998 0.930 . S
H1989 C1999 0.934 . S
C1990 H1984 0.930 . S
C1990 C1991 1.355 . S
C1990 C1992 1.415 . S
C1991 C1990 1.355 . S
C1991 C1993 1.419 . S
C1992 C1990 1.415 . S
C1992 C1997 1.425 1_655 S
C1992 C1999 1.410 . S
C1993 H1985 0.930 . S
C1993 C1991 1.419 . S
C1993 C1994 1.362 1_655 S
C1994 H1986 0.930 . S
C1994 C1993 1.362 1_455 S
C1994 C1997 1.409 . S
C1995 H1987 0.930 . S
C1995 C1996 1.355 . S
C1995 C1997 1.415 . S
C1996 C1995 1.355 . S
C1996 C1998 1.419 . S
C1997 C1992 1.425 1_455 S
C1997 C1994 1.409 . S
C1997 C1995 1.415 . S
C1998 H1988 0.930 . S
C1998 C1996 1.419 . S
C1998 C1999 1.358 1_455 S
C1999 H1989 0.934 . S
C1999 C1992 1.410 . S
C1999 C1998 1.358 1_655 S
H2000 C2006 0.930 1_554 S
H2001 C2009 0.930 . S
H2002 C2010 0.930 . S
H2003 C2011 0.930 . S
H2004 C2014 0.930 . S
H2005 C2015 0.930 . S
C2006 H2000 0.930 1_556 S
C2006 C2007 1.355 . S
C2006 C2008 1.415 1_556 S
C2007 C2006 1.355 . S
C2007 C2009 1.419 . S
C2008 C2006 1.415 1_554 S
C2008 C2013 1.424 . S
C2008 C2015 1.409 . S
C2009 H2001 0.930 . S
C2009 C2007 1.419 . S
C2009 C2010 1.362 . S
C2010 H2002 0.930 . S
C2010 C2009 1.362 . S
C2010 C2013 1.412 1_556 S
C2011 H2003 0.930 . S
C2011 C2012 1.355 . S
C2011 C2013 1.413 . S
C2012 C2011 1.355 . S
C2012 C2014 1.419 . S
C2013 C2008 1.424 . S
C2013 C2010 1.412 1_554 S
C2013 C2011 1.413 . S
C2014 H2004 0.930 . S
C2014 C2012 1.419 . S
C2014 C2015 1.362 . S
C2015 H2005 0.930 . S
C2015 C2008 1.409 . S
C2015 C2014 1.362 . S
H2016 C2022 0.930 . S
H2017 C2025 0.930 . S
H2018 C2026 0.930 . S
H2019 C2027 0.930 . S
H2020 C2030 0.930 . S
H2021 C2031 0.930 . S
C2022 H2016 0.930 . S
C2022 C2023 1.355 . S
C2022 C2024 1.415 . S
C2023 C2022 1.355 . S
C2023 C2025 1.419 . S
C2024 C2022 1.415 . S
C2024 C2029 1.425 . S
C2024 C2031 1.409 1_556 S
C2025 H2017 0.930 . S
C2025 C2023 1.419 . S
C2025 C2026 1.362 . S
C2026 H2018 0.930 . S
C2026 C2025 1.362 . S
C2026 C2029 1.409 . S
C2027 H2019 0.930 . S
C2027 C2028 1.355 . S
C2027 C2029 1.415 1_554 S
C2028 C2027 1.355 . S
C2028 C2030 1.419 . S
C2029 C2024 1.425 . S
C2029 C2026 1.409 . S
C2029 C2027 1.415 1_556 S
C2030 H2020 0.930 . S
C2030 C2028 1.419 . S
C2030 C2031 1.362 . S
C2031 H2021 0.930 . S
C2031 C2024 1.409 1_554 S
C2031 C2030 1.362 . S
H2032 C2038 0.930 . S
H2033 C2041 0.930 . S
H2034 C2042 0.930 . S
H2035 C2043 0.930 . S
H2036 C2046 0.930 . S
H2037 C2047 0.940 . S
C2038 H2032 0.930 . S
C2038 C2039 1.355 . S
C2038 C2040 1.415 . S
C2039 C2038 1.355 . S
C2039 C2041 1.419 . S
C2040 C2038 1.415 . S
C2040 C2045 1.425 1_545 S
C2040 C2047 1.411 . S
C2041 H2033 0.930 . S
C2041 C2039 1.419 . S
C2041 C2042 1.362 1_545 S
C2042 H2034 0.930 . S
C2042 C2041 1.362 1_565 S
C2042 C2045 1.409 . S
C2043 H2035 0.930 . S
C2043 C2044 1.355 . S
C2043 C2045 1.415 . S
C2044 C2043 1.355 . S
C2044 C2046 1.419 . S
C2045 C2040 1.425 1_565 S
C2045 C2042 1.409 . S
C2045 C2043 1.415 . S
C2046 H2036 0.930 . S
C2046 C2044 1.419 . S
C2046 C2047 1.351 1_565 S
C2047 H2037 0.940 . S
C2047 C2040 1.411 . S
C2047 C2046 1.351 1_545 S
H2048 C2054 0.930 . S
H2049 C2057 0.930 . S
H2050 C2058 0.930 . S
H2051 C2059 0.930 . S
H2052 C2062 0.930 . S
H2053 C2063 0.930 . S
C2054 H2048 0.930 . S
C2054 C2055 1.355 1_455 S
C2054 C2056 1.415 . S
C2055 C2054 1.355 1_655 S
C2055 C2057 1.419 . S
C2056 C2054 1.415 . S
C2056 C2061 1.425 . S
C2056 C2063 1.409 . S
C2057 H2049 0.930 . S
C2057 C2055 1.419 . S
C2057 C2058 1.362 . S
C2058 H2050 0.930 . S
C2058 C2057 1.362 . S
C2058 C2061 1.409 1_655 S
C2059 H2051 0.930 . S
C2059 C2060 1.355 . S
C2059 C2061 1.415 . S
C2060 C2059 1.355 . S
C2060 C2062 1.419 . S
C2061 C2056 1.425 . S
C2061 C2058 1.409 1_455 S
C2061 C2059 1.415 . S
C2062 H2052 0.930 . S
C2062 C2060 1.419 . S
C2062 C2063 1.362 . S
C2063 H2053 0.930 . S
C2063 C2056 1.409 . S
C2063 C2062 1.362 . S
H2064 C2070 0.930 . S
H2065 C2073 0.930 . S
H2066 C2074 0.930 . S
H2067 C2075 0.930 . S
H2068 C2078 0.930 . S
H2069 C2079 0.930 . S
C2070 H2064 0.930 . S
C2070 C2071 1.355 . S
C2070 C2072 1.415 . S
C2071 C2070 1.355 . S
C2071 C2073 1.419 . S
C2072 C2070 1.415 . S
C2072 C2077 1.425 . S
C2072 C2079 1.409 . S
C2073 H2065 0.930 . S
C2073 C2071 1.419 . S
C2073 C2074 1.362 . S
C2074 H2066 0.930 . S
C2074 C2073 1.362 . S
C2074 C2077 1.409 . S
C2075 H2067 0.930 . S
C2075 C2076 1.355 . S
C2075 C2077 1.415 1_554 S
C2076 C2075 1.355 . S
C2076 C2078 1.419 . S
C2077 C2072 1.425 . S
C2077 C2074 1.409 . S
C2077 C2075 1.415 1_556 S
C2078 H2068 0.930 . S
C2078 C2076 1.419 . S
C2078 C2079 1.362 1_554 S
C2079 H2069 0.930 . S
C2079 C2072 1.409 . S
C2079 C2078 1.362 1_556 S
H2080 C2086 0.930 . S
H2081 C2089 0.930 . S
H2082 C2090 0.930 . S
H2083 C2091 0.930 . S
H2084 C2094 0.930 . S
H2085 C2095 0.930 . S
C2086 H2080 0.930 . S
C2086 C2087 1.355 . S
C2086 C2088 1.415 . S
C2087 C2086 1.355 . S
C2087 C2089 1.419 . S
C2088 C2086 1.415 . S
C2088 C2093 1.425 . S
C2088 C2095 1.409 . S
C2089 H2081 0.930 . S
C2089 C2087 1.419 . S
C2089 C2090 1.362 . S
C2090 H2082 0.930 . S
C2090 C2089 1.362 . S
C2090 C2093 1.409 . S
C2091 H2083 0.930 . S
C2091 C2092 1.355 . S
C2091 C2093 1.415 . S
C2092 C2091 1.355 . S
C2092 C2094 1.419 . S
C2093 C2088 1.425 . S
C2093 C2090 1.409 . S
C2093 C2091 1.415 . S
C2094 H2084 0.930 . S
C2094 C2092 1.419 . S
C2094 C2095 1.362 . S
C2095 H2085 0.930 . S
C2095 C2088 1.409 . S
C2095 C2094 1.362 . S
H2096 C2102 0.930 . S
H2097 C2105 0.930 . S
H2098 C2106 0.930 . S
H2099 C2107 0.930 . S
H2100 C2110 0.930 . S
H2101 C2111 0.930 . S
C2102 H2096 0.930 . S
C2102 C2103 1.355 . S
C2102 C2104 1.415 . S
C2103 C2102 1.355 . S
C2103 C2105 1.419 . S
C2104 C2102 1.415 . S
C2104 C2109 1.425 . S
C2104 C2111 1.409 . S
C2105 H2097 0.930 . S
C2105 C2103 1.419 . S
C2105 C2106 1.362 . S
C2106 H2098 0.930 . S
C2106 C2105 1.362 . S
C2106 C2109 1.409 . S
C2107 H2099 0.930 . S
C2107 C2108 1.355 . S
C2107 C2109 1.415 . S
C2108 C2107 1.355 . S
C2108 C2110 1.419 . S
C2109 C2104 1.425 . S
C2109 C2106 1.409 . S
C2109 C2107 1.415 . S
C2110 H2100 0.930 . S
C2110 C2108 1.419 . S
C2110 C2111 1.362 . S
C2111 H2101 0.930 . S
C2111 C2104 1.409 . S
C2111 C2110 1.362 . S
H2112 C2118 0.930 . S
H2113 C2121 0.930 . S
H2114 C2122 0.930 . S
H2115 C2123 0.930 . S
H2116 C2126 0.930 . S
H2117 C2127 0.930 . S
C2118 H2112 0.930 . S
C2118 C2119 1.355 . S
C2118 C2120 1.415 . S
C2119 C2118 1.355 . S
C2119 C2121 1.419 . S
C2120 C2118 1.415 . S
C2120 C2125 1.425 . S
C2120 C2127 1.409 . S
C2121 H2113 0.930 . S
C2121 C2119 1.419 . S
C2121 C2122 1.362 . S
C2122 H2114 0.930 . S
C2122 C2121 1.362 . S
C2122 C2125 1.409 . S
C2123 H2115 0.930 . S
C2123 C2124 1.355 . S
C2123 C2125 1.415 . S
C2124 C2123 1.355 . S
C2124 C2126 1.419 . S
C2125 C2120 1.425 . S
C2125 C2122 1.409 . S
C2125 C2123 1.415 . S
C2126 H2116 0.930 . S
C2126 C2124 1.419 . S
C2126 C2127 1.362 . S
C2127 H2117 0.930 . S
C2127 C2120 1.409 . S
C2127 C2126 1.362 . S
H2128 C2134 0.930 . S
H2129 C2137 0.930 . S
H2130 C2138 0.930 . S
H2131 C2139 0.930 . S
H2132 C2142 0.930 . S
H2133 C2143 0.930 . S
C2134 H2128 0.930 . S
C2134 C2135 1.355 . S
C2134 C2136 1.415 . S
C2135 C2134 1.355 . S
C2135 C2137 1.419 . S
C2136 C2134 1.415 . S
C2136 C2141 1.425 . S
C2136 C2143 1.409 . S
C2137 H2129 0.930 . S
C2137 C2135 1.419 . S
C2137 C2138 1.362 . S
C2138 H2130 0.930 . S
C2138 C2137 1.362 . S
C2138 C2141 1.409 . S
C2139 H2131 0.930 . S
C2139 C2140 1.355 . S
C2139 C2141 1.415 . S
C2140 C2139 1.355 . S
C2140 C2142 1.419 . S
C2141 C2136 1.425 . S
C2141 C2138 1.409 . S
C2141 C2139 1.415 . S
C2142 H2132 0.930 . S
C2142 C2140 1.419 . S
C2142 C2143 1.362 . S
C2143 H2133 0.930 . S
C2143 C2136 1.409 . S
C2143 C2142 1.362 . S
H2144 C2150 0.930 . S
H2145 C2153 0.930 . S
H2146 C2154 0.930 1_556 S
H2147 C2155 0.930 . S
H2148 C2158 0.930 . S
H2149 C2159 0.930 . S
C2150 H2144 0.930 . S
C2150 C2151 1.355 . S
C2150 C2152 1.415 . S
C2151 C2150 1.355 . S
C2151 C2153 1.419 . S
C2152 C2150 1.415 . S
C2152 C2157 1.425 1_554 S
C2152 C2159 1.409 . S
C2153 H2145 0.930 . S
C2153 C2151 1.419 . S
C2153 C2154 1.362 . S
C2154 H2146 0.930 1_554 S
C2154 C2153 1.362 . S
C2154 C2157 1.409 1_554 S
C2155 H2147 0.930 . S
C2155 C2156 1.355 . S
C2155 C2157 1.415 . S
C2156 C2155 1.355 . S
C2156 C2158 1.419 . S
C2157 C2152 1.425 1_556 S
C2157 C2154 1.409 1_556 S
C2157 C2155 1.415 . S
C2158 H2148 0.930 . S
C2158 C2156 1.419 . S
C2158 C2159 1.362 1_556 S
C2159 H2149 0.930 . S
C2159 C2152 1.409 . S
C2159 C2158 1.362 1_554 S
H2160 C2166 0.930 . S
H2161 C2169 0.930 . S
H2162 C2170 0.930 . S
H2163 C2171 0.930 . S
H2164 C2174 0.930 . S
H2165 C2175 0.935 . S
C2166 H2160 0.930 . S
C2166 C2167 1.355 . S
C2166 C2168 1.415 . S
C2167 C2166 1.355 . S
C2167 C2169 1.419 . S
C2168 C2166 1.415 . S
C2168 C2173 1.425 . S
C2168 C2175 1.426 . S
C2169 H2161 0.930 . S
C2169 C2167 1.419 . S
C2169 C2170 1.362 . S
C2170 H2162 0.930 . S
C2170 C2169 1.362 . S
C2170 C2173 1.409 . S
C2171 H2163 0.930 . S
C2171 C2172 1.355 . S
C2171 C2173 1.415 1_655 S
C2172 C2171 1.355 . S
C2172 C2174 1.419 . S
C2173 C2168 1.425 . S
C2173 C2170 1.409 . S
C2173 C2171 1.415 1_455 S
C2174 H2164 0.930 . S
C2174 C2172 1.419 . S
C2174 C2175 1.342 1_655 S
C2175 H2165 0.935 . S
C2175 C2168 1.426 . S
C2175 C2174 1.342 1_455 S
H2176 C2182 0.930 . S
H2177 C2185 0.930 . S
H2178 C2186 0.930 . S
H2179 C2187 0.930 . S
H2180 C2190 0.930 . S
H2181 C2191 0.930 . S
C2182 H2176 0.930 . S
C2182 C2183 1.355 . S
C2182 C2184 1.415 . S
C2183 C2182 1.355 . S
C2183 C2185 1.419 . S
C2184 C2182 1.415 . S
C2184 C2189 1.425 . S
C2184 C2191 1.409 . S
C2185 H2177 0.930 . S
C2185 C2183 1.419 . S
C2185 C2186 1.362 . S
C2186 H2178 0.930 . S
C2186 C2185 1.362 . S
C2186 C2189 1.409 . S
C2187 H2179 0.930 . S
C2187 C2188 1.355 . S
C2187 C2189 1.415 . S
C2188 C2187 1.355 . S
C2188 C2190 1.419 . S
C2189 C2184 1.425 . S
C2189 C2186 1.409 . S
C2189 C2187 1.415 . S
C2190 H2180 0.930 . S
C2190 C2188 1.419 . S
C2190 C2191 1.362 . S
C2191 H2181 0.930 . S
C2191 C2184 1.409 . S
C2191 C2190 1.362 . S
H2192 C2198 0.930 . S
H2193 C2201 0.930 . S
H2194 C2202 0.930 . S
H2195 C2203 0.930 . S
H2196 C2206 0.930 . S
H2197 C2207 0.930 . S
C2198 H2192 0.930 . S
C2198 C2199 1.355 . S
C2198 C2200 1.415 . S
C2199 C2198 1.355 . S
C2199 C2201 1.419 . S
C2200 C2198 1.415 . S
C2200 C2205 1.425 . S
C2200 C2207 1.409 . S
C2201 H2193 0.930 . S
C2201 C2199 1.419 . S
C2201 C2202 1.362 . S
C2202 H2194 0.930 . S
C2202 C2201 1.362 . S
C2202 C2205 1.409 . S
C2203 H2195 0.930 . S
C2203 C2204 1.355 . S
C2203 C2205 1.415 . S
C2204 C2203 1.355 . S
C2204 C2206 1.419 . S
C2205 C2200 1.425 . S
C2205 C2202 1.409 . S
C2205 C2203 1.415 . S
C2206 H2196 0.930 . S
C2206 C2204 1.419 . S
C2206 C2207 1.362 . S
C2207 H2197 0.930 . S
C2207 C2200 1.409 . S
C2207 C2206 1.362 . S
H2208 C2214 0.930 . S
H2209 C2217 0.930 . S
H2210 C2218 0.930 . S
H2211 C2219 0.930 . S
H2212 C2222 0.930 . S
H2213 C2223 0.930 . S
C2214 H2208 0.930 . S
C2214 C2215 1.355 . S
C2214 C2216 1.415 . S
C2215 C2214 1.355 . S
C2215 C2217 1.419 . S
C2216 C2214 1.415 . S
C2216 C2221 1.425 . S
C2216 C2223 1.409 . S
C2217 H2209 0.930 . S
C2217 C2215 1.419 . S
C2217 C2218 1.362 . S
C2218 H2210 0.930 . S
C2218 C2217 1.362 . S
C2218 C2221 1.409 . S
C2219 H2211 0.930 . S
C2219 C2220 1.355 . S
C2219 C2221 1.415 . S
C2220 C2219 1.355 . S
C2220 C2222 1.419 . S
C2221 C2216 1.425 . S
C2221 C2218 1.409 . S
C2221 C2219 1.415 . S
C2222 H2212 0.930 . S
C2222 C2220 1.419 . S
C2222 C2223 1.362 . S
C2223 H2213 0.930 . S
C2223 C2216 1.409 . S
C2223 C2222 1.362 . S
H2224 C2230 0.930 . S
H2225 C2233 0.930 . S
H2226 C2234 0.930 . S
H2227 C2235 0.930 . S
H2228 C2238 0.930 . S
H2229 C2239 0.930 . S
C2230 H2224 0.930 . S
C2230 C2231 1.355 . S
C2230 C2232 1.415 . S
C2231 C2230 1.355 . S
C2231 C2233 1.419 . S
C2232 C2230 1.415 . S
C2232 C2237 1.425 . S
C2232 C2239 1.409 . S
C2233 H2225 0.930 . S
C2233 C2231 1.419 . S
C2233 C2234 1.362 . S
C2234 H2226 0.930 . S
C2234 C2233 1.362 . S
C2234 C2237 1.409 . S
C2235 H2227 0.930 . S
C2235 C2236 1.355 . S
C2235 C2237 1.415 . S
C2236 C2235 1.355 . S
C2236 C2238 1.419 . S
C2237 C2232 1.425 . S
C2237 C2234 1.409 . S
C2237 C2235 1.415 . S
C2238 H2228 0.930 . S
C2238 C2236 1.419 . S
C2238 C2239 1.362 . S
C2239 H2229 0.930 . S
C2239 C2232 1.409 . S
C2239 C2238 1.362 . S
H2240 C2246 0.930 . S
H2241 C2249 0.930 . S
H2242 C2250 0.930 . S
H2243 C2251 0.930 . S
H2244 C2254 0.930 . S
H2245 C2255 0.930 . S
C2246 H2240 0.930 . S
C2246 C2247 1.355 . S
C2246 C2248 1.415 1_455 S
C2247 C2246 1.355 . S
C2247 C2249 1.419 . S
C2248 C2246 1.415 1_655 S
C2248 C2253 1.425 . S
C2248 C2255 1.409 . S
C2249 H2241 0.930 . S
C2249 C2247 1.419 . S
C2249 C2250 1.362 . S
C2250 H2242 0.930 . S
C2250 C2249 1.362 . S
C2250 C2253 1.409 1_455 S
C2251 H2243 0.930 . S
C2251 C2252 1.355 . S
C2251 C2253 1.415 . S
C2252 C2251 1.355 . S
C2252 C2254 1.419 . S
C2253 C2248 1.425 . S
C2253 C2250 1.409 1_655 S
C2253 C2251 1.415 . S
C2254 H2244 0.930 . S
C2254 C2252 1.419 . S
C2254 C2255 1.362 . S
C2255 H2245 0.930 . S
C2255 C2248 1.409 . S
C2255 C2254 1.362 . S
H2256 C2262 0.930 . S
H2257 C2265 0.930 . S
H2258 C2266 0.930 . S
H2259 C2267 0.930 . S
H2260 C2270 0.930 . S
H2261 C2271 0.930 1_655 S
C2262 H2256 0.930 . S
C2262 C2263 1.355 . S
C2262 C2264 1.415 1_655 S
C2263 C2262 1.355 . S
C2263 C2265 1.419 1_655 S
C2264 C2262 1.415 1_455 S
C2264 C2269 1.425 . S
C2264 C2271 1.409 . S
C2265 H2257 0.930 . S
C2265 C2263 1.419 1_455 S
C2265 C2266 1.362 . S
C2266 H2258 0.930 . S
C2266 C2265 1.362 . S
C2266 C2269 1.409 . S
C2267 H2259 0.930 . S
C2267 C2268 1.355 . S
C2267 C2269 1.415 . S
C2268 C2267 1.355 . S
C2268 C2270 1.419 . S
C2269 C2264 1.425 . S
C2269 C2266 1.409 . S
C2269 C2267 1.415 . S
C2270 H2260 0.930 . S
C2270 C2268 1.419 . S
C2270 C2271 1.362 . S
C2271 H2261 0.930 1_455 S
C2271 C2264 1.409 . S
C2271 C2270 1.362 . S
H2272 C2278 0.930 . S
H2273 C2281 0.930 . S
H2274 C2282 0.930 . S
H2275 C2283 0.930 . S
H2276 C2286 0.930 . S
H2277 C2287 0.930 . S
C2278 H2272 0.930 . S
C2278 C2279 1.355 . S
C2278 C2280 1.415 . S
C2279 C2278 1.355 . S
C2279 C2281 1.419 . S
C2280 C2278 1.415 . S
C2280 C2285 1.425 . S
C2280 C2287 1.409 . S
C2281 H2273 0.930 . S
C2281 C2279 1.419 . S
C2281 C2282 1.362 . S
C2282 H2274 0.930 . S
C2282 C2281 1.362 . S
C2282 C2285 1.409 . S
C2283 H2275 0.930 . S
C2283 C2284 1.355 . S
C2283 C2285 1.415 . S
C2284 C2283 1.355 . S
C2284 C2286 1.419 . S
C2285 C2280 1.425 . S
C2285 C2282 1.409 . S
C2285 C2283 1.415 . S
C2286 H2276 0.930 . S
C2286 C2284 1.419 . S
C2286 C2287 1.362 . S
C2287 H2277 0.930 . S
C2287 C2280 1.409 . S
C2287 C2286 1.362 . S
H2288 C2294 0.930 . S
H2289 C2297 0.930 . S
H2290 C2298 0.930 . S
H2291 C2299 0.930 . S
H2292 C2302 0.930 . S
H2293 C2303 0.930 . S
C2294 H2288 0.930 . S
C2294 C2295 1.355 . S
C2294 C2296 1.415 . S
C2295 C2294 1.355 . S
C2295 C2297 1.419 . S
C2296 C2294 1.415 . S
C2296 C2301 1.425 . S
C2296 C2303 1.409 . S
C2297 H2289 0.930 . S
C2297 C2295 1.419 . S
C2297 C2298 1.362 . S
C2298 H2290 0.930 . S
C2298 C2297 1.362 . S
C2298 C2301 1.409 . S
C2299 H2291 0.930 . S
C2299 C2300 1.355 . S
C2299 C2301 1.415 . S
C2300 C2299 1.355 . S
C2300 C2302 1.419 . S
C2301 C2296 1.425 . S
C2301 C2298 1.409 . S
C2301 C2299 1.415 . S
C2302 H2292 0.930 . S
C2302 C2300 1.419 . S
C2302 C2303 1.362 . S
C2303 H2293 0.930 . S
C2303 C2296 1.409 . S
C2303 C2302 1.362 . S
H2304 C2310 0.930 . S
H2305 C2313 0.930 . S
H2306 C2314 0.930 . S
H2307 C2315 0.930 . S
H2308 C2318 0.930 . S
H2309 C2319 0.930 . S
C2310 H2304 0.930 . S
C2310 C2311 1.355 . S
C2310 C2312 1.415 . S
C2311 C2310 1.355 . S
C2311 C2313 1.419 . S
C2312 C2310 1.415 . S
C2312 C2317 1.425 . S
C2312 C2319 1.409 . S
C2313 H2305 0.930 . S
C2313 C2311 1.419 . S
C2313 C2314 1.362 . S
C2314 H2306 0.930 . S
C2314 C2313 1.362 . S
C2314 C2317 1.409 . S
C2315 H2307 0.930 . S
C2315 C2316 1.355 . S
C2315 C2317 1.415 . S
C2316 C2315 1.355 . S
C2316 C2318 1.419 . S
C2317 C2312 1.425 . S
C2317 C2314 1.409 . S
C2317 C2315 1.415 . S
C2318 H2308 0.930 . S
C2318 C2316 1.419 . S
C2318 C2319 1.362 . S
C2319 H2309 0.930 . S
C2319 C2312 1.409 . S
C2319 C2318 1.362 . S
H2320 C2326 0.930 . S
H2321 C2329 0.930 . S
H2322 C2330 0.930 . S
H2323 C2331 0.930 . S
H2324 C2334 0.930 . S
H2325 C2335 0.930 . S
C2326 H2320 0.930 . S
C2326 C2327 1.355 . S
C2326 C2328 1.415 . S
C2327 C2326 1.355 . S
C2327 C2329 1.419 . S
C2328 C2326 1.415 . S
C2328 C2333 1.425 . S
C2328 C2335 1.409 . S
C2329 H2321 0.930 . S
C2329 C2327 1.419 . S
C2329 C2330 1.362 . S
C2330 H2322 0.930 . S
C2330 C2329 1.362 . S
C2330 C2333 1.409 . S
C2331 H2323 0.930 . S
C2331 C2332 1.355 . S
C2331 C2333 1.415 . S
C2332 C2331 1.355 . S
C2332 C2334 1.419 . S
C2333 C2328 1.425 . S
C2333 C2330 1.409 . S
C2333 C2331 1.415 . S
C2334 H2324 0.930 . S
C2334 C2332 1.419 . S
C2334 C2335 1.362 . S
C2335 H2325 0.930 . S
C2335 C2328 1.409 . S
C2335 C2334 1.362 . S
H2336 C2342 0.930 . S
H2337 C2345 0.930 . S
H2338 C2346 0.930 . S
H2339 C2347 0.930 . S
H2340 C2350 0.930 . S
H2341 C2351 0.930 . S
C2342 H2336 0.930 . S
C2342 C2343 1.355 . S
C2342 C2344 1.415 . S
C2343 C2342 1.355 . S
C2343 C2345 1.419 . S
C2344 C2342 1.415 . S
C2344 C2349 1.425 . S
C2344 C2351 1.409 . S
C2345 H2337 0.930 . S
C2345 C2343 1.419 . S
C2345 C2346 1.362 . S
C2346 H2338 0.930 . S
C2346 C2345 1.362 . S
C2346 C2349 1.409 . S
C2347 H2339 0.930 . S
C2347 C2348 1.355 1_455 S
C2347 C2349 1.415 1_554 S
C2348 C2347 1.355 1_655 S
C2348 C2350 1.419 . S
C2349 C2344 1.425 . S
C2349 C2346 1.409 . S
C2349 C2347 1.415 1_556 S
C2350 H2340 0.930 . S
C2350 C2348 1.419 . S
C2350 C2351 1.362 1_654 S
C2351 H2341 0.930 . S
C2351 C2344 1.409 . S
C2351 C2350 1.362 1_456 S
H2352 C2358 0.930 . S
H2353 C2361 0.930 . S
H2354 C2362 0.930 . S
H2355 C2363 0.930 . S
H2356 C2366 0.930 . S
H2357 C2367 0.930 . S
C2358 H2352 0.930 . S
C2358 C2359 1.355 . S
C2358 C2360 1.415 . S
C2359 C2358 1.355 . S
C2359 C2361 1.419 . S
C2360 C2358 1.415 . S
C2360 C2365 1.425 . S
C2360 C2367 1.409 . S
C2361 H2353 0.930 . S
C2361 C2359 1.419 . S
C2361 C2362 1.362 . S
C2362 H2354 0.930 . S
C2362 C2361 1.362 . S
C2362 C2365 1.409 . S
C2363 H2355 0.930 . S
C2363 C2364 1.355 . S
C2363 C2365 1.415 . S
C2364 C2363 1.355 . S
C2364 C2366 1.419 . S
C2365 C2360 1.425 . S
C2365 C2362 1.409 . S
C2365 C2363 1.415 . S
C2366 H2356 0.930 . S
C2366 C2364 1.419 . S
C2366 C2367 1.362 . S
C2367 H2357 0.930 . S
C2367 C2360 1.409 . S
C2367 C2366 1.362 . S
H2368 C2374 0.930 . S
H2369 C2377 0.930 . S
H2370 C2378 0.930 . S
H2371 C2379 0.930 . S
H2372 C2382 0.930 . S
H2373 C2383 0.930 . S
C2374 H2368 0.930 . S
C2374 C2375 1.355 . S
C2374 C2376 1.415 . S
C2375 C2374 1.355 . S
C2375 C2377 1.419 . S
C2376 C2374 1.415 . S
C2376 C2381 1.425 . S
C2376 C2383 1.409 . S
C2377 H2369 0.930 . S
C2377 C2375 1.419 . S
C2377 C2378 1.362 . S
C2378 H2370 0.930 . S
C2378 C2377 1.362 . S
C2378 C2381 1.409 . S
C2379 H2371 0.930 . S
C2379 C2380 1.355 . S
C2379 C2381 1.415 . S
C2380 C2379 1.355 . S
C2380 C2382 1.419 . S
C2381 C2376 1.425 . S
C2381 C2378 1.409 . S
C2381 C2379 1.415 . S
C2382 H2372 0.930 . S
C2382 C2380 1.419 . S
C2382 C2383 1.362 . S
C2383 H2373 0.930 . S
C2383 C2376 1.409 . S
C2383 C2382 1.362 . S
H2384 C2390 0.930 1_565 S
H2385 C2393 0.930 . S
H2386 C2394 0.930 . S
H2387 C2395 0.930 . S
H2388 C2398 0.930 . S
H2389 C2399 0.930 . S
C2390 H2384 0.930 1_545 S
C2390 C2391 1.355 . S
C2390 C2392 1.415 1_545 S
C2391 C2390 1.355 . S
C2391 C2393 1.419 . S
C2392 C2390 1.415 1_565 S
C2392 C2397 1.425 1_565 S
C2392 C2399 1.409 . S
C2393 H2385 0.930 . S
C2393 C2391 1.419 . S
C2393 C2394 1.362 . S
C2394 H2386 0.930 . S
C2394 C2393 1.362 . S
C2394 C2397 1.409 . S
C2395 H2387 0.930 . S
C2395 C2396 1.355 . S
C2395 C2397 1.415 1_565 S
C2396 C2395 1.355 . S
C2396 C2398 1.419 . S
C2397 C2392 1.425 1_545 S
C2397 C2394 1.409 . S
C2397 C2395 1.415 1_545 S
C2398 H2388 0.930 . S
C2398 C2396 1.419 . S
C2398 C2399 1.362 . S
C2399 H2389 0.930 . S
C2399 C2392 1.409 . S
C2399 C2398 1.362 . S
H2400 C2406 0.930 . S
H2401 C2409 0.930 . S
H2402 C2410 0.930 . S
H2403 C2411 0.930 . S
H2404 C2414 0.930 . S
H2405 C2415 0.930 . S
C2406 H2400 0.930 . S
C2406 C2407 1.355 . S
C2406 C2408 1.415 . S
C2407 C2406 1.355 . S
C2407 C2409 1.419 . S
C2408 C2406 1.415 . S
C2408 C2413 1.425 . S
C2408 C2415 1.409 . S
C2409 H2401 0.930 . S
C2409 C2407 1.419 . S
C2409 C2410 1.362 . S
C2410 H2402 0.930 . S
C2410 C2409 1.362 . S
C2410 C2413 1.409 . S
C2411 H2403 0.930 . S
C2411 C2412 1.355 . S
C2411 C2413 1.415 . S
C2412 C2411 1.355 . S
C2412 C2414 1.419 . S
C2413 C2408 1.425 . S
C2413 C2410 1.409 . S
C2413 C2411 1.415 . S
C2414 H2404 0.930 . S
C2414 C2412 1.419 . S
C2414 C2415 1.362 . S
C2415 H2405 0.930 . S
C2415 C2408 1.409 . S
C2415 C2414 1.362 . S
H2416 C2422 0.930 . S
H2417 C2425 0.930 . S
H2418 C2426 0.930 . S
H2419 C2427 0.930 1_554 S
H2420 C2430 0.930 . S
H2421 C2431 0.930 . S
C2422 H2416 0.930 . S
C2422 C2423 1.355 . S
C2422 C2424 1.398 1_554 S
C2423 C2422 1.355 . S
C2423 C2425 1.419 . S
C2424 C2422 1.398 1_556 S
C2424 C2429 1.410 1_556 S
C2424 C2431 1.441 . S
C2425 H2417 0.930 . S
C2425 C2423 1.419 . S
C2425 C2426 1.362 . S
C2426 H2418 0.930 . S
C2426 C2425 1.362 . S
C2426 C2429 1.409 . S
C2427 H2419 0.930 1_556 S
C2427 C2428 1.355 . S
C2427 C2429 1.415 1_556 S
C2428 C2427 1.355 . S
C2428 C2430 1.419 . S
C2429 C2424 1.410 1_554 S
C2429 C2426 1.409 . S
C2429 C2427 1.415 1_554 S
C2430 H2420 0.930 . S
C2430 C2428 1.419 . S
C2430 C2431 1.362 . S
C2431 H2421 0.930 . S
C2431 C2424 1.441 . S
C2431 C2430 1.362 . S
H2432 C2438 0.930 . S
H2433 C2441 0.930 . S
H2434 C2442 0.930 . S
H2435 C2443 0.930 . S
H2436 C2446 0.930 . S
H2437 C2447 0.930 . S
C2438 H2432 0.930 . S
C2438 C2439 1.355 . S
C2438 C2440 1.415 . S
C2439 C2438 1.355 . S
C2439 C2441 1.419 . S
C2440 C2438 1.415 . S
C2440 C2445 1.425 . S
C2440 C2447 1.409 . S
C2441 H2433 0.930 . S
C2441 C2439 1.419 . S
C2441 C2442 1.362 . S
C2442 H2434 0.930 . S
C2442 C2441 1.362 . S
C2442 C2445 1.409 . S
C2443 H2435 0.930 . S
C2443 C2444 1.355 . S
C2443 C2445 1.415 . S
C2444 C2443 1.355 . S
C2444 C2446 1.419 . S
C2445 C2440 1.425 . S
C2445 C2442 1.409 . S
C2445 C2443 1.415 . S
C2446 H2436 0.930 . S
C2446 C2444 1.419 . S
C2446 C2447 1.362 . S
C2447 H2437 0.930 . S
C2447 C2440 1.409 . S
C2447 C2446 1.362 . S
H2448 C2454 0.930 . S
H2449 C2457 0.930 . S
H2450 C2458 0.930 1_455 S
H2451 C2459 0.930 . S
H2452 C2462 0.930 . S
H2453 C2463 0.930 . S
C2454 H2448 0.930 . S
C2454 C2455 1.355 1_565 S
C2454 C2456 1.415 . S
C2455 C2454 1.355 1_545 S
C2455 C2457 1.419 . S
C2456 C2454 1.415 . S
C2456 C2461 1.425 . S
C2456 C2463 1.409 . S
C2457 H2449 0.930 . S
C2457 C2455 1.419 . S
C2457 C2458 1.362 . S
C2458 H2450 0.930 1_655 S
C2458 C2457 1.362 . S
C2458 C2461 1.409 1_545 S
C2459 H2451 0.930 . S
C2459 C2460 1.355 . S
C2459 C2461 1.415 1_455 S
C2460 C2459 1.355 . S
C2460 C2462 1.419 . S
C2461 C2456 1.425 . S
C2461 C2458 1.409 1_565 S
C2461 C2459 1.415 1_655 S
C2462 H2452 0.930 . S
C2462 C2460 1.419 . S
C2462 C2463 1.362 1_455 S
C2463 H2453 0.930 . S
C2463 C2456 1.409 . S
C2463 C2462 1.362 1_655 S
H2464 C2470 0.930 . S
H2465 C2473 0.930 . S
H2466 C2474 0.930 . S
H2467 C2475 0.930 . S
H2468 C2478 0.930 . S
H2469 C2479 0.930 . S
C2470 H2464 0.930 . S
C2470 C2471 1.355 . S
C2470 C2472 1.415 . S
C2471 C2470 1.355 . S
C2471 C2473 1.419 . S
C2472 C2470 1.415 . S
C2472 C2477 1.425 . S
C2472 C2479 1.409 . S
C2473 H2465 0.930 . S
C2473 C2471 1.419 . S
C2473 C2474 1.362 . S
C2474 H2466 0.930 . S
C2474 C2473 1.362 . S
C2474 C2477 1.409 . S
C2475 H2467 0.930 . S
C2475 C2476 1.355 . S
C2475 C2477 1.415 . S
C2476 C2475 1.355 . S
C2476 C2478 1.419 . S
C2477 C2472 1.425 . S
C2477 C2474 1.409 . S
C2477 C2475 1.415 . S
C2478 H2468 0.930 . S
C2478 C2476 1.419 . S
C2478 C2479 1.362 . S
C2479 H2469 0.930 . S
C2479 C2472 1.409 . S
C2479 C2478 1.362 . S
H2480 C2486 0.930 . S
H2481 C2489 0.930 . S
H2482 C2490 0.930 . S
H2483 C2491 0.930 . S
H2484 C2494 0.930 . S
H2485 C2495 0.930 . S
C2486 H2480 0.930 . S
C2486 C2487 1.355 . S
C2486 C2488 1.415 . S
C2487 C2486 1.355 . S
C2487 C2489 1.419 . S
C2488 C2486 1.415 . S
C2488 C2493 1.425 . S
C2488 C2495 1.409 . S
C2489 H2481 0.930 . S
C2489 C2487 1.419 . S
C2489 C2490 1.362 . S
C2490 H2482 0.930 . S
C2490 C2489 1.362 . S
C2490 C2493 1.409 . S
C2491 H2483 0.930 . S
C2491 C2492 1.355 . S
C2491 C2493 1.415 . S
C2492 C2491 1.355 . S
C2492 C2494 1.419 . S
C2493 C2488 1.425 . S
C2493 C2490 1.409 . S
C2493 C2491 1.415 . S
C2494 H2484 0.930 . S
C2494 C2492 1.419 . S
C2494 C2495 1.362 . S
C2495 H2485 0.930 . S
C2495 C2488 1.409 . S
C2495 C2494 1.362 . S
H2496 C2502 0.930 . S
H2497 C2505 0.930 . S
H2498 C2506 0.930 . S
H2499 C2507 0.930 . S
H2500 C2510 0.930 . S
H2501 C2511 0.930 . S
C2502 H2496 0.930 . S
C2502 C2503 1.355 . S
C2502 C2504 1.415 . S
C2503 C2502 1.355 . S
C2503 C2505 1.419 . S
C2504 C2502 1.415 . S
C2504 C2509 1.425 . S
C2504 C2511 1.409 . S
C2505 H2497 0.930 . S
C2505 C2503 1.419 . S
C2505 C2506 1.362 1_545 S
C2506 H2498 0.930 . S
C2506 C2505 1.362 1_565 S
C2506 C2509 1.409 1_565 S
C2507 H2499 0.930 . S
C2507 C2508 1.355 . S
C2507 C2509 1.415 1_565 S
C2508 C2507 1.355 . S
C2508 C2510 1.419 1_565 S
C2509 C2504 1.425 . S
C2509 C2506 1.409 1_545 S
C2509 C2507 1.415 1_545 S
C2510 H2500 0.930 . S
C2510 C2508 1.419 1_545 S
C2510 C2511 1.362 . S
C2511 H2501 0.930 . S
C2511 C2504 1.409 . S
C2511 C2510 1.362 . S
H2512 C2518 0.930 . S
H2513 C2521 0.930 . S
H2514 C2522 0.930 . S
H2515 C2523 0.930 . S
H2516 C2526 0.930 . S
H2517 C2527 0.930 . S
C2518 H2512 0.930 . S
C2518 C2519 1.355 . S
C2518 C2520 1.415 . S
C2519 C2518 1.355 . S
C2519 C2521 1.419 . S
C2520 C2518 1.415 . S
C2520 C2525 1.425 . S
C2520 C2527 1.409 . S
C2521 H2513 0.930 . S
C2521 C2519 1.419 . S
C2521 C2522 1.362 . S
C2522 H2514 0.930 . S
C2522 C2521 1.362 . S
C2522 C2525 1.409 . S
C2523 H2515 0.930 . S
C2523 C2524 1.355 . S
C2523 C2525 1.415 . S
C2524 C2523 1.355 . S
C2524 C2526 1.419 . S
C2525 C2520 1.425 . S
C2525 C2522 1.409 . S
C2525 C2523 1.415 . S
C2526 H2516 0.930 . S
C2526 C2524 1.419 . S
C2526 C2527 1.362 . S
C2527 H2517 0.930 . S
C2527 C2520 1.409 . S
C2527 C2526 1.362 . S
H2528 C2534 0.930 . S
H2529 C2537 0.930 . S
H2530 C2538 0.922 1_655 S
H2531 C2539 0.930 . S
H2532 C2542 0.930 . S
H2533 C2543 0.930 . S
C2534 H2528 0.930 . S
C2534 C2535 1.355 . S
C2534 C2536 1.415 1_455 S
C2535 C2534 1.355 . S
C2535 C2537 1.419 . S
C2536 C2534 1.415 1_655 S
C2536 C2541 1.425 . S
C2536 C2543 1.409 . S
C2537 H2529 0.930 . S
C2537 C2535 1.419 . S
C2537 C2538 1.398 . S
C2538 H2530 0.922 1_455 S
C2538 C2537 1.398 . S
C2538 C2541 1.383 1_455 S
C2539 H2531 0.930 . S
C2539 C2540 1.355 . S
C2539 C2541 1.415 . S
C2540 C2539 1.355 . S
C2540 C2542 1.419 . S
C2541 C2536 1.425 . S
C2541 C2538 1.383 1_655 S
C2541 C2539 1.415 . S
C2542 H2532 0.930 . S
C2542 C2540 1.419 . S
C2542 C2543 1.362 . S
C2543 H2533 0.930 . S
C2543 C2536 1.409 . S
C2543 C2542 1.362 . S
H2544 C2550 0.930 . S
H2545 C2553 0.930 . S
H2546 C2554 0.930 . S
H2547 C2555 0.930 . S
H2548 C2558 0.930 . S
H2549 C2559 0.930 . S
C2550 H2544 0.930 . S
C2550 C2551 1.355 . S
C2550 C2552 1.415 . S
C2551 C2550 1.355 . S
C2551 C2553 1.419 . S
C2552 C2550 1.415 . S
C2552 C2557 1.425 1_655 S
C2552 C2559 1.409 . S
C2553 H2545 0.930 . S
C2553 C2551 1.419 . S
C2553 C2554 1.362 1_655 S
C2554 H2546 0.930 . S
C2554 C2553 1.362 1_455 S
C2554 C2557 1.409 . S
C2555 H2547 0.930 . S
C2555 C2556 1.355 . S
C2555 C2557 1.415 . S
C2556 C2555 1.355 . S
C2556 C2558 1.419 . S
C2557 C2552 1.425 1_455 S
C2557 C2554 1.409 . S
C2557 C2555 1.415 . S
C2558 H2548 0.930 . S
C2558 C2556 1.419 . S
C2558 C2559 1.362 1_455 S
C2559 H2549 0.930 . S
C2559 C2552 1.409 . S
C2559 C2558 1.362 1_655 S
H2560 C2566 0.930 . S
H2561 C2569 0.930 . S
H2562 C2570 0.930 . S
H2563 C2571 0.930 . S
H2564 C2574 0.930 . S
H2565 C2575 0.930 . S
C2566 H2560 0.930 . S
C2566 C2567 1.355 . S
C2566 C2568 1.415 . S
C2567 C2566 1.355 . S
C2567 C2569 1.419 . S
C2568 C2566 1.415 . S
C2568 C2573 1.425 . S
C2568 C2575 1.409 . S
C2569 H2561 0.930 . S
C2569 C2567 1.419 . S
C2569 C2570 1.362 . S
C2570 H2562 0.930 . S
C2570 C2569 1.362 . S
C2570 C2573 1.409 . S
C2571 H2563 0.930 . S
C2571 C2572 1.355 . S
C2571 C2573 1.415 . S
C2572 C2571 1.355 . S
C2572 C2574 1.419 . S
C2573 C2568 1.425 . S
C2573 C2570 1.409 . S
C2573 C2571 1.415 . S
C2574 H2564 0.930 . S
C2574 C2572 1.419 . S
C2574 C2575 1.362 . S
C2575 H2565 0.930 . S
C2575 C2568 1.409 . S
C2575 C2574 1.362 . S
H2576 C2582 0.930 . S
H2577 C2585 0.930 . S
H2578 C2586 0.930 . S
H2579 C2587 0.930 . S
H2580 C2590 0.930 . S
H2581 C2591 0.930 . S
C2582 H2576 0.930 . S
C2582 C2583 1.355 . S
C2582 C2584 1.415 . S
C2583 C2582 1.355 . S
C2583 C2585 1.419 . S
C2584 C2582 1.415 . S
C2584 C2589 1.425 . S
C2584 C2591 1.409 . S
C2585 H2577 0.930 . S
C2585 C2583 1.419 . S
C2585 C2586 1.362 . S
C2586 H2578 0.930 . S
C2586 C2585 1.362 . S
C2586 C2589 1.409 . S
C2587 H2579 0.930 . S
C2587 C2588 1.355 . S
C2587 C2589 1.415 . S
C2588 C2587 1.355 . S
C2588 C2590 1.419 . S
C2589 C2584 1.425 . S
C2589 C2586 1.409 . S
C2589 C2587 1.415 . S
C2590 H2580 0.930 . S
C2590 C2588 1.419 . S
C2590 C2591 1.362 . S
C2591 H2581 0.930 . S
C2591 C2584 1.409 . S
C2591 C2590 1.362 . S
H2592 C2598 0.930 . S
H2593 C2601 0.930 . S
H2594 C2602 0.929 1_556 S
H2595 C2603 0.930 . S
H2596 C2606 0.930 . S
H2597 C2607 0.930 . S
C2598 H2592 0.930 . S
C2598 C2599 1.355 . S
C2598 C2600 1.415 1_655 S
C2599 C2598 1.355 . S
C2599 C2601 1.419 . S
C2600 C2598 1.415 1_455 S
C2600 C2605 1.427 1_554 S
C2600 C2607 1.409 . S
C2601 H2593 0.930 . S
C2601 C2599 1.419 . S
C2601 C2602 1.363 . S
C2602 H2594 0.929 1_554 S
C2602 C2601 1.363 . S
C2602 C2605 1.409 1_654 S
C2603 H2595 0.930 . S
C2603 C2604 1.355 . S
C2603 C2605 1.413 . S
C2604 C2603 1.355 . S
C2604 C2606 1.411 1_556 S
C2605 C2600 1.427 1_556 S
C2605 C2602 1.409 1_456 S
C2605 C2603 1.413 . S
C2606 H2596 0.930 . S
C2606 C2604 1.411 1_554 S
C2606 C2607 1.371 . S
C2607 H2597 0.930 . S
C2607 C2600 1.409 . S
C2607 C2606 1.371 . S
H2608 C2614 0.930 . S
H2609 C2617 0.930 . S
H2610 C2618 0.930 . S
H2611 C2619 0.930 . S
H2612 C2622 0.930 . S
H2613 C2623 0.930 . S
C2614 H2608 0.930 . S
C2614 C2615 1.355 . S
C2614 C2616 1.415 . S
C2615 C2614 1.355 . S
C2615 C2617 1.419 . S
C2616 C2614 1.415 . S
C2616 C2621 1.425 . S
C2616 C2623 1.409 . S
C2617 H2609 0.930 . S
C2617 C2615 1.419 . S
C2617 C2618 1.362 . S
C2618 H2610 0.930 . S
C2618 C2617 1.362 . S
C2618 C2621 1.409 . S
C2619 H2611 0.930 . S
C2619 C2620 1.355 . S
C2619 C2621 1.415 . S
C2620 C2619 1.355 . S
C2620 C2622 1.419 . S
C2621 C2616 1.425 . S
C2621 C2618 1.409 . S
C2621 C2619 1.415 . S
C2622 H2612 0.930 . S
C2622 C2620 1.419 . S
C2622 C2623 1.362 . S
C2623 H2613 0.930 . S
C2623 C2616 1.409 . S
C2623 C2622 1.362 . S
H2624 C2630 0.930 1_545 S
H2625 C2633 0.930 . S
H2626 C2634 0.930 . S
H2627 C2635 0.930 . S
H2628 C2638 0.930 . S
H2629 C2639 0.930 1_545 S
C2630 H2624 0.930 1_565 S
C2630 C2631 1.355 . S
C2630 C2632 1.415 . S
C2631 C2630 1.355 . S
C2631 C2633 1.419 . S
C2632 C2630 1.415 . S
C2632 C2637 1.425 . S
C2632 C2639 1.409 . S
C2633 H2625 0.930 . S
C2633 C2631 1.419 . S
C2633 C2634 1.362 . S
C2634 H2626 0.930 . S
C2634 C2633 1.362 . S
C2634 C2637 1.409 . S
C2635 H2627 0.930 . S
C2635 C2636 1.355 . S
C2635 C2637 1.415 . S
C2636 C2635 1.355 . S
C2636 C2638 1.419 . S
C2637 C2632 1.425 . S
C2637 C2634 1.409 . S
C2637 C2635 1.415 . S
C2638 H2628 0.930 . S
C2638 C2636 1.419 . S
C2638 C2639 1.362 . S
C2639 H2629 0.930 1_565 S
C2639 C2632 1.409 . S
C2639 C2638 1.362 . S
H2640 C2646 0.930 . S
H2641 C2649 0.930 . S
H2642 C2650 0.930 . S
H2643 C2651 0.930 . S
H2644 C2654 0.930 . S
H2645 C2655 0.930 . S
C2646 H2640 0.930 . S
C2646 C2647 1.355 . S
C2646 C2648 1.415 . S
C2647 C2646 1.355 . S
C2647 C2649 1.419 . S
C2648 C2646 1.415 . S
C2648 C2653 1.425 . S
C2648 C2655 1.409 . S
C2649 H2641 0.930 . S
C2649 C2647 1.419 . S
C2649 C2650 1.362 . S
C2650 H2642 0.930 . S
C2650 C2649 1.362 . S
C2650 C2653 1.409 . S
C2651 H2643 0.930 . S
C2651 C2652 1.355 . S
C2651 C2653 1.415 . S
C2652 C2651 1.355 . S
C2652 C2654 1.419 . S
C2653 C2648 1.425 . S
C2653 C2650 1.409 . S
C2653 C2651 1.415 . S
C2654 H2644 0.930 . S
C2654 C2652 1.419 . S
C2654 C2655 1.362 . S
C2655 H2645 0.930 . S
C2655 C2648 1.409 . S
C2655 C2654 1.362 . S
H2656 C2662 0.930 . S
H2657 C2665 0.930 . S
H2658 C2666 0.930 . S
H2659 C2667 0.930 . S
H2660 C2670 0.930 . S
H2661 C2671 0.930 . S
C2662 H2656 0.930 . S
C2662 C2663 1.355 . S
C2662 C2664 1.415 1_556 S
C2663 C2662 1.355 . S
C2663 C2665 1.419 . S
C2664 C2662 1.415 1_554 S
C2664 C2669 1.425 . S
C2664 C2671 1.409 . S
C2665 H2657 0.930 . S
C2665 C2663 1.419 . S
C2665 C2666 1.362 1_556 S
C2666 H2658 0.930 . S
C2666 C2665 1.362 1_554 S
C2666 C2669 1.409 . S
C2667 H2659 0.930 . S
C2667 C2668 1.355 . S
C2667 C2669 1.415 . S
C2668 C2667 1.355 . S
C2668 C2670 1.419 . S
C2669 C2664 1.425 . S
C2669 C2666 1.409 . S
C2669 C2667 1.415 . S
C2670 H2660 0.930 . S
C2670 C2668 1.419 . S
C2670 C2671 1.362 . S
C2671 H2661 0.930 . S
C2671 C2664 1.409 . S
C2671 C2670 1.362 . S
H2672 C2678 0.930 . S
H2673 C2681 0.934 . S
H2674 C2682 0.930 . S
H2675 C2683 0.930 . S
H2676 C2686 0.930 . S
H2677 C2687 0.930 1_655 S
C2678 H2672 0.930 . S
C2678 C2679 1.355 . S
C2678 C2680 1.415 1_655 S
C2679 C2678 1.355 . S
C2679 C2681 1.443 . S
C2680 C2678 1.415 1_455 S
C2680 C2685 1.425 . S
C2680 C2687 1.409 1_545 S
C2681 H2673 0.934 . S
C2681 C2679 1.443 . S
C2681 C2682 1.334 1_655 S
C2682 H2674 0.930 . S
C2682 C2681 1.334 1_455 S
C2682 C2685 1.409 . S
C2683 H2675 0.930 . S
C2683 C2684 1.355 1_545 S
C2683 C2685 1.415 . S
C2684 C2683 1.355 1_565 S
C2684 C2686 1.419 . S
C2685 C2680 1.425 . S
C2685 C2682 1.409 . S
C2685 C2683 1.415 . S
C2686 H2676 0.930 . S
C2686 C2684 1.419 . S
C2686 C2687 1.362 . S
C2687 H2677 0.930 1_455 S
C2687 C2680 1.409 1_565 S
C2687 C2686 1.362 . S
H2688 C2694 0.930 . S
H2689 C2697 0.930 . S
H2690 C2698 0.930 . S
H2691 C2699 0.930 . S
H2692 C2702 0.930 . S
H2693 C2703 0.930 . S
C2694 H2688 0.930 . S
C2694 C2695 1.355 . S
C2694 C2696 1.415 . S
C2695 C2694 1.355 . S
C2695 C2697 1.419 . S
C2696 C2694 1.415 . S
C2696 C2701 1.425 . S
C2696 C2703 1.409 . S
C2697 H2689 0.930 . S
C2697 C2695 1.419 . S
C2697 C2698 1.362 . S
C2698 H2690 0.930 . S
C2698 C2697 1.362 . S
C2698 C2701 1.409 . S
C2699 H2691 0.930 . S
C2699 C2700 1.355 . S
C2699 C2701 1.415 . S
C2700 C2699 1.355 . S
C2700 C2702 1.419 . S
C2701 C2696 1.425 . S
C2701 C2698 1.409 . S
C2701 C2699 1.415 . S
C2702 H2692 0.930 . S
C2702 C2700 1.419 . S
C2702 C2703 1.362 . S
C2703 H2693 0.930 . S
C2703 C2696 1.409 . S
C2703 C2702 1.362 . S
H2704 C2710 0.930 . S
H2705 C2713 0.930 . S
H2706 C2714 0.930 1_545 S
H2707 C2715 0.930 . S
H2708 C2718 0.930 . S
H2709 C2719 0.930 . S
C2710 H2704 0.930 . S
C2710 C2711 1.355 . S
C2710 C2712 1.415 . S
C2711 C2710 1.355 . S
C2711 C2713 1.419 . S
C2712 C2710 1.415 . S
C2712 C2717 1.425 . S
C2712 C2719 1.409 . S
C2713 H2705 0.930 . S
C2713 C2711 1.419 . S
C2713 C2714 1.362 . S
C2714 H2706 0.930 1_565 S
C2714 C2713 1.362 . S
C2714 C2717 1.409 . S
C2715 H2707 0.930 . S
C2715 C2716 1.355 . S
C2715 C2717 1.415 1_545 S
C2716 C2715 1.355 . S
C2716 C2718 1.419 1_545 S
C2717 C2712 1.425 . S
C2717 C2714 1.409 . S
C2717 C2715 1.415 1_565 S
C2718 H2708 0.930 . S
C2718 C2716 1.419 1_565 S
C2718 C2719 1.362 . S
C2719 H2709 0.930 . S
C2719 C2712 1.409 . S
C2719 C2718 1.362 . S
H2720 C2726 0.930 . S
H2721 C2729 0.930 . S
H2722 C2730 0.930 . S
H2723 C2731 0.930 . S
H2724 C2734 0.930 . S
H2725 C2735 0.930 . S
C2726 H2720 0.930 . S
C2726 C2727 1.355 . S
C2726 C2728 1.415 1_455 S
C2727 C2726 1.355 . S
C2727 C2729 1.419 . S
C2728 C2726 1.415 1_655 S
C2728 C2733 1.425 . S
C2728 C2735 1.409 . S
C2729 H2721 0.930 . S
C2729 C2727 1.419 . S
C2729 C2730 1.362 . S
C2730 H2722 0.930 . S
C2730 C2729 1.362 . S
C2730 C2733 1.409 1_455 S
C2731 H2723 0.930 . S
C2731 C2732 1.355 . S
C2731 C2733 1.415 . S
C2732 C2731 1.355 . S
C2732 C2734 1.419 . S
C2733 C2728 1.425 . S
C2733 C2730 1.409 1_655 S
C2733 C2731 1.415 . S
C2734 H2724 0.930 . S
C2734 C2732 1.419 . S
C2734 C2735 1.362 . S
C2735 H2725 0.930 . S
C2735 C2728 1.409 . S
C2735 C2734 1.362 . S
H2736 C2742 0.930 . S
H2737 C2745 0.930 . S
H2738 C2746 0.930 . S
H2739 C2747 0.930 . S
H2740 C2750 0.930 . S
H2741 C2751 0.930 . S
C2742 H2736 0.930 . S
C2742 C2743 1.355 . S
C2742 C2744 1.415 . S
C2743 C2742 1.355 . S
C2743 C2745 1.419 . S
C2744 C2742 1.415 . S
C2744 C2749 1.425 . S
C2744 C2751 1.409 1_554 S
C2745 H2737 0.930 . S
C2745 C2743 1.419 . S
C2745 C2746 1.362 . S
C2746 H2738 0.930 . S
C2746 C2745 1.362 . S
C2746 C2749 1.409 . S
C2747 H2739 0.930 . S
C2747 C2748 1.355 . S
C2747 C2749 1.415 1_546 S
C2748 C2747 1.355 . S
C2748 C2750 1.419 . S
C2749 C2744 1.425 . S
C2749 C2746 1.409 . S
C2749 C2747 1.415 1_564 S
C2750 H2740 0.930 . S
C2750 C2748 1.419 . S
C2750 C2751 1.362 1_545 S
C2751 H2741 0.930 . S
C2751 C2744 1.409 1_556 S
C2751 C2750 1.362 1_565 S
H2752 C2758 0.930 . S
H2753 C2761 0.930 . S
H2754 C2762 0.930 . S
H2755 C2763 0.930 . S
H2756 C2766 0.930 . S
H2757 C2767 0.930 . S
C2758 H2752 0.930 . S
C2758 C2759 1.355 . S
C2758 C2760 1.415 . S
C2759 C2758 1.355 . S
C2759 C2761 1.419 . S
C2760 C2758 1.415 . S
C2760 C2765 1.425 . S
C2760 C2767 1.409 . S
C2761 H2753 0.930 . S
C2761 C2759 1.419 . S
C2761 C2762 1.362 . S
C2762 H2754 0.930 . S
C2762 C2761 1.362 . S
C2762 C2765 1.409 . S
C2763 H2755 0.930 . S
C2763 C2764 1.355 . S
C2763 C2765 1.415 . S
C2764 C2763 1.355 . S
C2764 C2766 1.419 . S
C2765 C2760 1.425 . S
C2765 C2762 1.409 . S
C2765 C2763 1.415 . S
C2766 H2756 0.930 . S
C2766 C2764 1.419 . S
C2766 C2767 1.362 . S
C2767 H2757 0.930 . S
C2767 C2760 1.409 . S
C2767 C2766 1.362 . S
H2768 C2774 0.930 . S
H2769 C2777 0.930 . S
H2770 C2778 0.930 . S
H2771 C2779 0.930 . S
H2772 C2782 0.930 . S
H2773 C2783 0.930 . S
C2774 H2768 0.930 . S
C2774 C2775 1.355 . S
C2774 C2776 1.415 . S
C2775 C2774 1.355 . S
C2775 C2777 1.419 . S
C2776 C2774 1.415 . S
C2776 C2781 1.425 . S
C2776 C2783 1.409 . S
C2777 H2769 0.930 . S
C2777 C2775 1.419 . S
C2777 C2778 1.362 . S
C2778 H2770 0.930 . S
C2778 C2777 1.362 . S
C2778 C2781 1.409 . S
C2779 H2771 0.930 . S
C2779 C2780 1.355 . S
C2779 C2781 1.415 . S
C2780 C2779 1.355 . S
C2780 C2782 1.419 . S
C2781 C2776 1.425 . S
C2781 C2778 1.409 . S
C2781 C2779 1.415 . S
C2782 H2772 0.930 . S
C2782 C2780 1.419 . S
C2782 C2783 1.362 . S
C2783 H2773 0.930 . S
C2783 C2776 1.409 . S
C2783 C2782 1.362 . S
H2784 C2790 0.930 . S
H2785 C2793 0.930 . S
H2786 C2794 0.930 . S
H2787 C2795 0.930 . S
H2788 C2798 0.930 . S
H2789 C2799 0.930 . S
C2790 H2784 0.930 . S
C2790 C2791 1.355 . S
C2790 C2792 1.415 . S
C2791 C2790 1.355 . S
C2791 C2793 1.419 . S
C2792 C2790 1.415 . S
C2792 C2797 1.425 . S
C2792 C2799 1.409 . S
C2793 H2785 0.930 . S
C2793 C2791 1.419 . S
C2793 C2794 1.362 . S
C2794 H2786 0.930 . S
C2794 C2793 1.362 . S
C2794 C2797 1.409 . S
C2795 H2787 0.930 . S
C2795 C2796 1.355 . S
C2795 C2797 1.415 . S
C2796 C2795 1.355 . S
C2796 C2798 1.419 . S
C2797 C2792 1.425 . S
C2797 C2794 1.409 . S
C2797 C2795 1.415 . S
C2798 H2788 0.930 . S
C2798 C2796 1.419 . S
C2798 C2799 1.362 . S
C2799 H2789 0.930 . S
C2799 C2792 1.409 . S
C2799 C2798 1.362 . S
H2800 C2806 0.930 . S
H2801 C2809 0.930 . S
H2802 C2810 0.930 . S
H2803 C2811 0.930 . S
H2804 C2814 0.930 . S
H2805 C2815 0.930 . S
C2806 H2800 0.930 . S
C2806 C2807 1.355 . S
C2806 C2808 1.415 . S
C2807 C2806 1.355 . S
C2807 C2809 1.419 . S
C2808 C2806 1.415 . S
C2808 C2813 1.425 . S
C2808 C2815 1.409 . S
C2809 H2801 0.930 . S
C2809 C2807 1.419 . S
C2809 C2810 1.362 . S
C2810 H2802 0.930 . S
C2810 C2809 1.362 . S
C2810 C2813 1.409 . S
C2811 H2803 0.930 . S
C2811 C2812 1.355 . S
C2811 C2813 1.415 . S
C2812 C2811 1.355 . S
C2812 C2814 1.419 . S
C2813 C2808 1.425 . S
C2813 C2810 1.409 . S
C2813 C2811 1.415 . S
C2814 H2804 0.930 . S
C2814 C2812 1.419 . S
C2814 C2815 1.362 . S
C2815 H2805 0.930 . S
C2815 C2808 1.409 . S
C2815 C2814 1.362 . S
H2816 C2822 0.930 . S
H2817 C2825 0.930 1_554 S
H2818 C2826 0.930 . S
H2819 C2827 0.930 . S
H2820 C2830 0.930 . S
H2821 C2831 0.930 . S
C2822 H2816 0.930 . S
C2822 C2823 1.355 . S
C2822 C2824 1.415 . S
C2823 C2822 1.355 . S
C2823 C2825 1.419 . S
C2824 C2822 1.415 . S
C2824 C2829 1.425 1_556 S
C2824 C2831 1.409 . S
C2825 H2817 0.930 1_556 S
C2825 C2823 1.419 . S
C2825 C2826 1.362 1_556 S
C2826 H2818 0.930 . S
C2826 C2825 1.362 1_554 S
C2826 C2829 1.409 . S
C2827 H2819 0.930 . S
C2827 C2828 1.355 . S
C2827 C2829 1.415 . S
C2828 C2827 1.355 . S
C2828 C2830 1.419 1_554 S
C2829 C2824 1.425 1_554 S
C2829 C2826 1.409 . S
C2829 C2827 1.415 . S
C2830 H2820 0.930 . S
C2830 C2828 1.419 1_556 S
C2830 C2831 1.362 . S
C2831 H2821 0.930 . S
C2831 C2824 1.409 . S
C2831 C2830 1.362 . S
H2832 C2838 0.930 . S
H2833 C2841 0.930 . S
H2834 C2842 0.930 . S
H2835 C2843 0.930 . S
H2836 C2846 0.930 . S
H2837 C2847 0.930 . S
C2838 H2832 0.930 . S
C2838 C2839 1.355 . S
C2838 C2840 1.415 . S
C2839 C2838 1.355 . S
C2839 C2841 1.419 . S
C2840 C2838 1.415 . S
C2840 C2845 1.425 . S
C2840 C2847 1.409 . S
C2841 H2833 0.930 . S
C2841 C2839 1.419 . S
C2841 C2842 1.362 . S
C2842 H2834 0.930 . S
C2842 C2841 1.362 . S
C2842 C2845 1.409 . S
C2843 H2835 0.930 . S
C2843 C2844 1.355 . S
C2843 C2845 1.415 . S
C2844 C2843 1.355 . S
C2844 C2846 1.419 . S
C2845 C2840 1.425 . S
C2845 C2842 1.409 . S
C2845 C2843 1.415 . S
C2846 H2836 0.930 . S
C2846 C2844 1.419 . S
C2846 C2847 1.362 . S
C2847 H2837 0.930 . S
C2847 C2840 1.409 . S
C2847 C2846 1.362 . S
H2848 C2854 0.930 . S
H2849 C2857 0.930 . S
H2850 C2858 0.930 . S
H2851 C2859 0.930 . S
H2852 C2862 0.930 . S
H2853 C2863 0.930 . S
C2854 H2848 0.930 . S
C2854 C2855 1.355 . S
C2854 C2856 1.415 . S
C2855 C2854 1.355 . S
C2855 C2857 1.419 . S
C2856 C2854 1.415 . S
C2856 C2861 1.425 . S
C2856 C2863 1.409 . S
C2857 H2849 0.930 . S
C2857 C2855 1.419 . S
C2857 C2858 1.362 . S
C2858 H2850 0.930 . S
C2858 C2857 1.362 . S
C2858 C2861 1.409 . S
C2859 H2851 0.930 . S
C2859 C2860 1.355 . S
C2859 C2861 1.415 . S
C2860 C2859 1.355 . S
C2860 C2862 1.419 . S
C2861 C2856 1.425 . S
C2861 C2858 1.409 . S
C2861 C2859 1.415 . S
C2862 H2852 0.930 . S
C2862 C2860 1.419 . S
C2862 C2863 1.362 . S
C2863 H2853 0.930 . S
C2863 C2856 1.409 . S
C2863 C2862 1.362 . S
H2864 C2870 0.930 . S
H2865 C2873 0.930 . S
H2866 C2874 0.930 . S
H2867 C2875 0.930 . S
H2868 C2878 0.930 . S
H2869 C2879 0.930 . S
C2870 H2864 0.930 . S
C2870 C2871 1.355 . S
C2870 C2872 1.415 . S
C2871 C2870 1.355 . S
C2871 C2873 1.419 . S
C2872 C2870 1.415 . S
C2872 C2877 1.425 . S
C2872 C2879 1.409 . S
C2873 H2865 0.930 . S
C2873 C2871 1.419 . S
C2873 C2874 1.362 . S
C2874 H2866 0.930 . S
C2874 C2873 1.362 . S
C2874 C2877 1.409 . S
C2875 H2867 0.930 . S
C2875 C2876 1.355 . S
C2875 C2877 1.415 . S
C2876 C2875 1.355 . S
C2876 C2878 1.419 . S
C2877 C2872 1.425 . S
C2877 C2874 1.409 . S
C2877 C2875 1.415 . S
C2878 H2868 0.930 . S
C2878 C2876 1.419 . S
C2878 C2879 1.362 . S
C2879 H2869 0.930 . S
C2879 C2872 1.409 . S
C2879 C2878 1.362 . S
H2880 C2886 0.930 . S
H2881 C2889 0.930 . S
H2882 C2890 0.930 . S
H2883 C2891 0.930 . S
H2884 C2894 0.930 . S
H2885 C2895 0.930 . S
C2886 H2880 0.930 . S
C2886 C2887 1.355 . S
C2886 C2888 1.415 1_565 S
C2887 C2886 1.355 . S
C2887 C2889 1.419 . S
C2888 C2886 1.415 1_545 S
C2888 C2893 1.425 . S
C2888 C2895 1.409 . S
C2889 H2881 0.930 . S
C2889 C2887 1.419 . S
C2889 C2890 1.362 . S
C2890 H2882 0.930 . S
C2890 C2889 1.362 . S
C2890 C2893 1.409 1_565 S
C2891 H2883 0.930 . S
C2891 C2892 1.355 . S
C2891 C2893 1.415 . S
C2892 C2891 1.355 . S
C2892 C2894 1.419 . S
C2893 C2888 1.425 . S
C2893 C2890 1.409 1_545 S
C2893 C2891 1.415 . S
C2894 H2884 0.930 . S
C2894 C2892 1.419 . S
C2894 C2895 1.362 . S
C2895 H2885 0.930 . S
C2895 C2888 1.409 . S
C2895 C2894 1.362 . S
H2896 C2902 0.930 . S
H2897 C2905 0.930 . S
H2898 C2906 0.930 . S
H2899 C2907 0.930 . S
H2900 C2910 0.930 . S
H2901 C2911 0.930 . S
C2902 H2896 0.930 . S
C2902 C2903 1.355 . S
C2902 C2904 1.415 . S
C2903 C2902 1.355 . S
C2903 C2905 1.419 . S
C2904 C2902 1.415 . S
C2904 C2909 1.425 . S
C2904 C2911 1.409 . S
C2905 H2897 0.930 . S
C2905 C2903 1.419 . S
C2905 C2906 1.362 . S
C2906 H2898 0.930 . S
C2906 C2905 1.362 . S
C2906 C2909 1.409 . S
C2907 H2899 0.930 . S
C2907 C2908 1.355 . S
C2907 C2909 1.415 . S
C2908 C2907 1.355 . S
C2908 C2910 1.419 . S
C2909 C2904 1.425 . S
C2909 C2906 1.409 . S
C2909 C2907 1.415 . S
C2910 H2900 0.930 . S
C2910 C2908 1.419 . S
C2910 C2911 1.362 . S
C2911 H2901 0.930 . S
C2911 C2904 1.409 . S
C2911 C2910 1.362 . S
H2912 C2918 0.930 . S
H2913 C2921 0.930 . S
H2914 C2922 0.930 . S
H2915 C2923 0.930 . S
H2916 C2926 0.930 . S
H2917 C2927 0.930 . S
C2918 H2912 0.930 . S
C2918 C2919 1.355 . S
C2918 C2920 1.415 1_545 S
C2919 C2918 1.355 . S
C2919 C2921 1.419 . S
C2920 C2918 1.415 1_565 S
C2920 C2925 1.425 . S
C2920 C2927 1.409 . S
C2921 H2913 0.930 . S
C2921 C2919 1.419 . S
C2921 C2922 1.362 1_545 S
C2922 H2914 0.930 . S
C2922 C2921 1.362 1_565 S
C2922 C2925 1.409 . S
C2923 H2915 0.930 . S
C2923 C2924 1.355 . S
C2923 C2925 1.415 . S
C2924 C2923 1.355 . S
C2924 C2926 1.419 . S
C2925 C2920 1.425 . S
C2925 C2922 1.409 . S
C2925 C2923 1.415 . S
C2926 H2916 0.930 . S
C2926 C2924 1.419 . S
C2926 C2927 1.362 . S
C2927 H2917 0.930 . S
C2927 C2920 1.409 . S
C2927 C2926 1.362 . S
H2928 C2934 0.930 . S
H2929 C2937 0.928 1_556 S
H2930 C2938 0.930 . S
H2931 C2939 0.930 . S
H2932 C2942 0.930 . S
H2933 C2943 0.930 . S
C2934 H2928 0.930 . S
C2934 C2935 1.355 . S
C2934 C2936 1.415 . S
C2935 C2934 1.355 . S
C2935 C2937 1.419 . S
C2936 C2934 1.415 . S
C2936 C2941 1.425 1_554 S
C2936 C2943 1.409 1_565 S
C2937 H2929 0.928 1_554 S
C2937 C2935 1.419 . S
C2937 C2938 1.362 1_554 S
C2938 H2930 0.930 . S
C2938 C2937 1.362 1_556 S
C2938 C2941 1.409 . S
C2939 H2931 0.930 . S
C2939 C2940 1.355 1_565 S
C2939 C2941 1.415 . S
C2940 C2939 1.355 1_545 S
C2940 C2942 1.419 . S
C2941 C2936 1.425 1_556 S
C2941 C2938 1.409 . S
C2941 C2939 1.415 . S
C2942 H2932 0.930 . S
C2942 C2940 1.419 . S
C2942 C2943 1.362 1_556 S
C2943 H2933 0.930 . S
C2943 C2936 1.409 1_545 S
C2943 C2942 1.362 1_554 S
H2944 C2950 0.930 . S
H2945 C2953 0.930 . S
H2946 C2954 0.930 . S
H2947 C2955 0.930 . S
H2948 C2958 0.930 . S
H2949 C2959 0.930 . S
C2950 H2944 0.930 . S
C2950 C2951 1.355 . S
C2950 C2952 1.415 . S
C2951 C2950 1.355 . S
C2951 C2953 1.419 . S
C2952 C2950 1.415 . S
C2952 C2957 1.425 . S
C2952 C2959 1.409 . S
C2953 H2945 0.930 . S
C2953 C2951 1.419 . S
C2953 C2954 1.362 . S
C2954 H2946 0.930 . S
C2954 C2953 1.362 . S
C2954 C2957 1.409 . S
C2955 H2947 0.930 . S
C2955 C2956 1.355 . S
C2955 C2957 1.415 . S
C2956 C2955 1.355 . S
C2956 C2958 1.419 . S
C2957 C2952 1.425 . S
C2957 C2954 1.409 . S
C2957 C2955 1.415 . S
C2958 H2948 0.930 . S
C2958 C2956 1.419 . S
C2958 C2959 1.362 . S
C2959 H2949 0.930 . S
C2959 C2952 1.409 . S
C2959 C2958 1.362 . S
H2960 C2966 0.930 . S
H2961 C2969 0.930 . S
H2962 C2970 0.930 . S
H2963 C2971 0.930 . S
H2964 C2974 0.930 . S
H2965 C2975 0.930 . S
C2966 H2960 0.930 . S
C2966 C2967 1.355 . S
C2966 C2968 1.415 . S
C2967 C2966 1.355 . S
C2967 C2969 1.419 . S
C2968 C2966 1.415 . S
C2968 C2973 1.425 . S
C2968 C2975 1.409 1_554 S
C2969 H2961 0.930 . S
C2969 C2967 1.419 . S
C2969 C2970 1.362 . S
C2970 H2962 0.930 . S
C2970 C2969 1.362 . S
C2970 C2973 1.409 . S
C2971 H2963 0.930 . S
C2971 C2972 1.355 1_554 S
C2971 C2973 1.415 . S
C2972 C2971 1.355 1_556 S
C2972 C2974 1.419 . S
C2973 C2968 1.425 . S
C2973 C2970 1.409 . S
C2973 C2971 1.415 . S
C2974 H2964 0.930 . S
C2974 C2972 1.419 . S
C2974 C2975 1.362 . S
C2975 H2965 0.930 . S
C2975 C2968 1.409 1_556 S
C2975 C2974 1.362 . S
H2976 C2982 0.930 . S
H2977 C2985 0.930 . S
H2978 C2986 0.930 . S
H2979 C2987 0.930 . S
H2980 C2990 0.930 . S
H2981 C2991 0.930 . S
C2982 H2976 0.930 . S
C2982 C2983 1.355 . S
C2982 C2984 1.415 . S
C2983 C2982 1.355 . S
C2983 C2985 1.419 . S
C2984 C2982 1.415 . S
C2984 C2989 1.425 . S
C2984 C2991 1.409 . S
C2985 H2977 0.930 . S
C2985 C2983 1.419 . S
C2985 C2986 1.362 . S
C2986 H2978 0.930 . S
C2986 C2985 1.362 . S
C2986 C2989 1.409 . S
C2987 H2979 0.930 . S
C2987 C2988 1.355 . S
C2987 C2989 1.415 . S
C2988 C2987 1.355 . S
C2988 C2990 1.419 . S
C2989 C2984 1.425 . S
C2989 C2986 1.409 . S
C2989 C2987 1.415 . S
C2990 H2980 0.930 . S
C2990 C2988 1.419 . S
C2990 C2991 1.362 . S
C2991 H2981 0.930 . S
C2991 C2984 1.409 . S
C2991 C2990 1.362 . S
H2992 C2998 0.930 . S
H2993 C3001 0.930 . S
H2994 C3002 0.930 . S
H2995 C3003 0.930 . S
H2996 C3006 0.930 . S
H2997 C3007 0.930 . S
C2998 H2992 0.930 . S
C2998 C2999 1.355 . S
C2998 C3000 1.415 . S
C2999 C2998 1.355 . S
C2999 C3001 1.419 . S
C3000 C2998 1.415 . S
C3000 C3005 1.425 . S
C3000 C3007 1.409 . S
C3001 H2993 0.930 . S
C3001 C2999 1.419 . S
C3001 C3002 1.362 . S
C3002 H2994 0.930 . S
C3002 C3001 1.362 . S
C3002 C3005 1.409 . S
C3003 H2995 0.930 . S
C3003 C3004 1.355 . S
C3003 C3005 1.415 . S
C3004 C3003 1.355 . S
C3004 C3006 1.419 . S
C3005 C3000 1.425 . S
C3005 C3002 1.409 . S
C3005 C3003 1.415 . S
C3006 H2996 0.930 . S
C3006 C3004 1.419 . S
C3006 C3007 1.362 . S
C3007 H2997 0.930 . S
C3007 C3000 1.409 . S
C3007 C3006 1.362 . S
H3008 C3014 0.930 . S
H3009 C3017 0.930 . S
H3010 C3018 0.930 . S
H3011 C3019 0.930 . S
H3012 C3022 0.930 . S
H3013 C3023 0.930 . S
C3014 H3008 0.930 . S
C3014 C3015 1.355 . S
C3014 C3016 1.415 . S
C3015 C3014 1.355 . S
C3015 C3017 1.419 . S
C3016 C3014 1.415 . S
C3016 C3021 1.425 . S
C3016 C3023 1.409 . S
C3017 H3009 0.930 . S
C3017 C3015 1.419 . S
C3017 C3018 1.362 . S
C3018 H3010 0.930 . S
C3018 C3017 1.362 . S
C3018 C3021 1.409 . S
C3019 H3011 0.930 . S
C3019 C3020 1.355 . S
C3019 C3021 1.415 . S
C3020 C3019 1.355 . S
C3020 C3022 1.419 . S
C3021 C3016 1.425 . S
C3021 C3018 1.409 . S
C3021 C3019 1.415 . S
C3022 H3012 0.930 . S
C3022 C3020 1.419 . S
C3022 C3023 1.362 . S
C3023 H3013 0.930 . S
C3023 C3016 1.409 . S
C3023 C3022 1.362 . S
H3024 C3030 0.930 . S
H3025 C3033 0.930 . S
H3026 C3034 0.930 . S
H3027 C3035 0.930 . S
H3028 C3038 0.930 . S
H3029 C3039 0.930 . S
C3030 H3024 0.930 . S
C3030 C3031 1.355 . S
C3030 C3032 1.415 . S
C3031 C3030 1.355 . S
C3031 C3033 1.419 . S
C3032 C3030 1.415 . S
C3032 C3037 1.425 . S
C3032 C3039 1.409 . S
C3033 H3025 0.930 . S
C3033 C3031 1.419 . S
C3033 C3034 1.362 . S
C3034 H3026 0.930 . S
C3034 C3033 1.362 . S
C3034 C3037 1.409 . S
C3035 H3027 0.930 . S
C3035 C3036 1.355 . S
C3035 C3037 1.415 . S
C3036 C3035 1.355 . S
C3036 C3038 1.419 . S
C3037 C3032 1.425 . S
C3037 C3034 1.409 . S
C3037 C3035 1.415 . S
C3038 H3028 0.930 . S
C3038 C3036 1.419 . S
C3038 C3039 1.362 . S
C3039 H3029 0.930 . S
C3039 C3032 1.409 . S
C3039 C3038 1.362 . S
H3040 C3046 0.930 . S
H3041 C3049 0.930 . S
H3042 C3050 0.930 . S
H3043 C3051 0.930 . S
H3044 C3054 0.930 . S
H3045 C3055 0.930 . S
C3046 H3040 0.930 . S
C3046 C3047 1.355 . S
C3046 C3048 1.415 . S
C3047 C3046 1.355 . S
C3047 C3049 1.419 . S
C3048 C3046 1.415 . S
C3048 C3053 1.425 . S
C3048 C3055 1.409 . S
C3049 H3041 0.930 . S
C3049 C3047 1.419 . S
C3049 C3050 1.362 . S
C3050 H3042 0.930 . S
C3050 C3049 1.362 . S
C3050 C3053 1.409 . S
C3051 H3043 0.930 . S
C3051 C3052 1.355 . S
C3051 C3053 1.415 . S
C3052 C3051 1.355 . S
C3052 C3054 1.419 . S
C3053 C3048 1.425 . S
C3053 C3050 1.409 . S
C3053 C3051 1.415 . S
C3054 H3044 0.930 . S
C3054 C3052 1.419 . S
C3054 C3055 1.362 . S
C3055 H3045 0.930 . S
C3055 C3048 1.409 . S
C3055 C3054 1.362 . S
H3056 C3062 0.930 . S
H3057 C3065 0.930 . S
H3058 C3066 0.930 . S
H3059 C3067 0.930 . S
H3060 C3070 0.930 . S
H3061 C3071 0.930 . S
C3062 H3056 0.930 . S
C3062 C3063 1.355 . S
C3062 C3064 1.415 . S
C3063 C3062 1.355 . S
C3063 C3065 1.419 . S
C3064 C3062 1.415 . S
C3064 C3069 1.425 . S
C3064 C3071 1.409 . S
C3065 H3057 0.930 . S
C3065 C3063 1.419 . S
C3065 C3066 1.362 . S
C3066 H3058 0.930 . S
C3066 C3065 1.362 . S
C3066 C3069 1.409 . S
C3067 H3059 0.930 . S
C3067 C3068 1.355 . S
C3067 C3069 1.415 . S
C3068 C3067 1.355 . S
C3068 C3070 1.419 . S
C3069 C3064 1.425 . S
C3069 C3066 1.409 . S
C3069 C3067 1.415 . S
C3070 H3060 0.930 . S
C3070 C3068 1.419 . S
C3070 C3071 1.362 . S
C3071 H3061 0.930 . S
C3071 C3064 1.409 . S
C3071 C3070 1.362 . S
H3072 C3078 0.930 . S
H3073 C3081 0.930 . S
H3074 C3082 0.930 . S
H3075 C3083 0.930 . S
H3076 C3086 0.930 . S
H3077 C3087 0.930 . S
C3078 H3072 0.930 . S
C3078 C3079 1.355 . S
C3078 C3080 1.415 . S
C3079 C3078 1.355 . S
C3079 C3081 1.419 . S
C3080 C3078 1.415 . S
C3080 C3085 1.425 . S
C3080 C3087 1.409 . S
C3081 H3073 0.930 . S
C3081 C3079 1.419 . S
C3081 C3082 1.362 . S
C3082 H3074 0.930 . S
C3082 C3081 1.362 . S
C3082 C3085 1.409 . S
C3083 H3075 0.930 . S
C3083 C3084 1.355 . S
C3083 C3085 1.415 . S
C3084 C3083 1.355 . S
C3084 C3086 1.419 . S
C3085 C3080 1.425 . S
C3085 C3082 1.409 . S
C3085 C3083 1.415 . S
C3086 H3076 0.930 . S
C3086 C3084 1.419 . S
C3086 C3087 1.362 . S
C3087 H3077 0.930 . S
C3087 C3080 1.409 . S
C3087 C3086 1.362 . S
H3088 C3094 0.930 . S
H3089 C3097 0.930 . S
H3090 C3098 0.930 . S
H3091 C3099 0.930 . S
H3092 C3102 0.930 . S
H3093 C3103 0.930 . S
C3094 H3088 0.930 . S
C3094 C3095 1.355 . S
C3094 C3096 1.415 . S
C3095 C3094 1.355 . S
C3095 C3097 1.419 . S
C3096 C3094 1.415 . S
C3096 C3101 1.425 . S
C3096 C3103 1.409 . S
C3097 H3089 0.930 . S
C3097 C3095 1.419 . S
C3097 C3098 1.362 . S
C3098 H3090 0.930 . S
C3098 C3097 1.362 . S
C3098 C3101 1.409 . S
C3099 H3091 0.930 . S
C3099 C3100 1.355 . S
C3099 C3101 1.415 . S
C3100 C3099 1.355 . S
C3100 C3102 1.419 . S
C3101 C3096 1.425 . S
C3101 C3098 1.409 . S
C3101 C3099 1.415 . S
C3102 H3092 0.930 . S
C3102 C3100 1.419 . S
C3102 C3103 1.362 . S
C3103 H3093 0.930 . S
C3103 C3096 1.409 . S
C3103 C3102 1.362 . S
H3104 C3110 0.930 . S
H3105 C3113 0.930 . S
H3106 C3114 0.930 . S
H3107 C3115 0.930 . S
H3108 C3118 0.930 . S
H3109 C3119 0.930 . S
C3110 H3104 0.930 . S
C3110 C3111 1.355 . S
C3110 C3112 1.415 . S
C3111 C3110 1.355 . S
C3111 C3113 1.419 . S
C3112 C3110 1.415 . S
C3112 C3117 1.425 . S
C3112 C3119 1.409 . S
C3113 H3105 0.930 . S
C3113 C3111 1.419 . S
C3113 C3114 1.362 . S
C3114 H3106 0.930 . S
C3114 C3113 1.362 . S
C3114 C3117 1.409 . S
C3115 H3107 0.930 . S
C3115 C3116 1.355 . S
C3115 C3117 1.415 . S
C3116 C3115 1.355 . S
C3116 C3118 1.419 . S
C3117 C3112 1.425 . S
C3117 C3114 1.409 . S
C3117 C3115 1.415 . S
C3118 H3108 0.930 . S
C3118 C3116 1.419 . S
C3118 C3119 1.362 . S
C3119 H3109 0.930 . S
C3119 C3112 1.409 . S
C3119 C3118 1.362 . S
H3120 C3126 0.930 . S
H3121 C3129 0.930 . S
H3122 C3130 0.930 . S
H3123 C3131 0.930 . S
H3124 C3134 0.930 . S
H3125 C3135 0.930 . S
C3126 H3120 0.930 . S
C3126 C3127 1.355 . S
C3126 C3128 1.415 1_565 S
C3127 C3126 1.355 . S
C3127 C3129 1.419 . S
C3128 C3126 1.415 1_545 S
C3128 C3133 1.425 . S
C3128 C3135 1.409 . S
C3129 H3121 0.930 . S
C3129 C3127 1.419 . S
C3129 C3130 1.362 . S
C3130 H3122 0.930 . S
C3130 C3129 1.362 . S
C3130 C3133 1.409 1_565 S
C3131 H3123 0.930 . S
C3131 C3132 1.355 . S
C3131 C3133 1.415 . S
C3132 C3131 1.355 . S
C3132 C3134 1.419 . S
C3133 C3128 1.425 . S
C3133 C3130 1.409 1_545 S
C3133 C3131 1.415 . S
C3134 H3124 0.930 . S
C3134 C3132 1.419 . S
C3134 C3135 1.362 . S
C3135 H3125 0.930 . S
C3135 C3128 1.409 . S
C3135 C3134 1.362 . S
H3136 C3142 0.930 . S
H3137 C3145 0.930 . S
H3138 C3146 0.930 1_655 S
H3139 C3147 0.930 . S
H3140 C3150 0.930 . S
H3141 C3151 0.930 . S
C3142 H3136 0.930 . S
C3142 C3143 1.355 . S
C3142 C3144 1.415 . S
C3143 C3142 1.355 . S
C3143 C3145 1.419 . S
C3144 C3142 1.415 . S
C3144 C3149 1.425 1_455 S
C3144 C3151 1.409 . S
C3145 H3137 0.930 . S
C3145 C3143 1.419 . S
C3145 C3146 1.362 . S
C3146 H3138 0.930 1_455 S
C3146 C3145 1.362 . S
C3146 C3149 1.409 1_455 S
C3147 H3139 0.930 . S
C3147 C3148 1.355 . S
C3147 C3149 1.415 . S
C3148 C3147 1.355 . S
C3148 C3150 1.419 . S
C3149 C3144 1.425 1_655 S
C3149 C3146 1.409 1_655 S
C3149 C3147 1.415 . S
C3150 H3140 0.930 . S
C3150 C3148 1.419 . S
C3150 C3151 1.362 1_655 S
C3151 H3141 0.930 . S
C3151 C3144 1.409 . S
C3151 C3150 1.362 1_455 S
H3152 C3158 0.930 . S
H3153 C3161 0.930 . S
H3154 C3162 0.930 . S
H3155 C3163 0.930 . S
H3156 C3166 0.930 . S
H3157 C3167 0.930 . S
C3158 H3152 0.930 . S
C3158 C3159 1.355 . S
C3158 C3160 1.415 . S
C3159 C3158 1.355 . S
C3159 C3161 1.419 . S
C3160 C3158 1.415 . S
C3160 C3165 1.425 . S
C3160 C3167 1.409 . S
C3161 H3153 0.930 . S
C3161 C3159 1.419 . S
C3161 C3162 1.362 . S
C3162 H3154 0.930 . S
C3162 C3161 1.362 . S
C3162 C3165 1.409 . S
C3163 H3155 0.930 . S
C3163 C3164 1.355 . S
C3163 C3165 1.415 . S
C3164 C3163 1.355 . S
C3164 C3166 1.419 . S
C3165 C3160 1.425 . S
C3165 C3162 1.409 . S
C3165 C3163 1.415 . S
C3166 H3156 0.930 . S
C3166 C3164 1.419 . S
C3166 C3167 1.362 . S
C3167 H3157 0.930 . S
C3167 C3160 1.409 . S
C3167 C3166 1.362 . S
H3168 C3174 0.930 . S
H3169 C3177 0.930 . S
H3170 C3178 0.930 . S
H3171 C3179 0.930 . S
H3172 C3182 0.930 . S
H3173 C3183 0.930 . S
C3174 H3168 0.930 . S
C3174 C3175 1.355 . S
C3174 C3176 1.415 . S
C3175 C3174 1.355 . S
C3175 C3177 1.419 . S
C3176 C3174 1.415 . S
C3176 C3181 1.425 . S
C3176 C3183 1.409 . S
C3177 H3169 0.930 . S
C3177 C3175 1.419 . S
C3177 C3178 1.362 . S
C3178 H3170 0.930 . S
C3178 C3177 1.362 . S
C3178 C3181 1.409 . S
C3179 H3171 0.930 . S
C3179 C3180 1.355 . S
C3179 C3181 1.415 . S
C3180 C3179 1.355 . S
C3180 C3182 1.419 . S
C3181 C3176 1.425 . S
C3181 C3178 1.409 . S
C3181 C3179 1.415 . S
C3182 H3172 0.930 . S
C3182 C3180 1.419 . S
C3182 C3183 1.362 . S
C3183 H3173 0.930 . S
C3183 C3176 1.409 . S
C3183 C3182 1.362 . S
H3184 C3190 0.930 . S
H3185 C3193 0.930 . S
H3186 C3194 0.930 . S
H3187 C3195 0.930 . S
H3188 C3198 0.930 . S
H3189 C3199 0.930 . S
C3190 H3184 0.930 . S
C3190 C3191 1.355 . S
C3190 C3192 1.415 . S
C3191 C3190 1.355 . S
C3191 C3193 1.419 . S
C3192 C3190 1.415 . S
C3192 C3197 1.425 . S
C3192 C3199 1.409 . S
C3193 H3185 0.930 . S
C3193 C3191 1.419 . S
C3193 C3194 1.362 . S
C3194 H3186 0.930 . S
C3194 C3193 1.362 . S
C3194 C3197 1.409 . S
C3195 H3187 0.930 . S
C3195 C3196 1.355 . S
C3195 C3197 1.415 . S
C3196 C3195 1.355 . S
C3196 C3198 1.419 . S
C3197 C3192 1.425 . S
C3197 C3194 1.409 . S
C3197 C3195 1.415 . S
C3198 H3188 0.930 . S
C3198 C3196 1.419 . S
C3198 C3199 1.362 . S
C3199 H3189 0.930 . S
C3199 C3192 1.409 . S
C3199 C3198 1.362 . S
H3200 C3206 0.930 . S
H3201 C3209 0.930 . S
H3202 C3210 0.930 . S
H3203 C3211 0.930 . S
H3204 C3214 0.930 . S
H3205 C3215 0.930 . S
C3206 H3200 0.930 . S
C3206 C3207 1.355 . S
C3206 C3208 1.415 . S
C3207 C3206 1.355 . S
C3207 C3209 1.419 . S
C3208 C3206 1.415 . S
C3208 C3213 1.425 . S
C3208 C3215 1.409 . S
C3209 H3201 0.930 . S
C3209 C3207 1.419 . S
C3209 C3210 1.362 . S
C3210 H3202 0.930 . S
C3210 C3209 1.362 . S
C3210 C3213 1.409 . S
C3211 H3203 0.930 . S
C3211 C3212 1.355 . S
C3211 C3213 1.415 . S
C3212 C3211 1.355 . S
C3212 C3214 1.419 . S
C3213 C3208 1.425 . S
C3213 C3210 1.409 . S
C3213 C3211 1.415 . S
C3214 H3204 0.930 . S
C3214 C3212 1.419 . S
C3214 C3215 1.362 . S
C3215 H3205 0.930 . S
C3215 C3208 1.409 . S
C3215 C3214 1.362 . S
H3216 C3222 0.930 1_545 S
H3217 C3225 0.930 . S
H3218 C3226 0.930 . S
H3219 C3227 0.930 . S
H3220 C3230 0.930 . S
H3221 C3231 0.930 . S
C3222 H3216 0.930 1_565 S
C3222 C3223 1.355 . S
C3222 C3224 1.415 . S
C3223 C3222 1.355 . S
C3223 C3225 1.419 . S
C3224 C3222 1.415 . S
C3224 C3229 1.425 . S
C3224 C3231 1.409 . S
C3225 H3217 0.930 . S
C3225 C3223 1.419 . S
C3225 C3226 1.362 . S
C3226 H3218 0.930 . S
C3226 C3225 1.362 . S
C3226 C3229 1.409 . S
C3227 H3219 0.930 . S
C3227 C3228 1.355 . S
C3227 C3229 1.415 . S
C3228 C3227 1.355 . S
C3228 C3230 1.419 . S
C3229 C3224 1.425 . S
C3229 C3226 1.409 . S
C3229 C3227 1.415 . S
C3230 H3220 0.930 . S
C3230 C3228 1.419 . S
C3230 C3231 1.362 . S
C3231 H3221 0.930 . S
C3231 C3224 1.409 . S
C3231 C3230 1.362 . S
H3232 C3238 0.930 . S
H3233 C3241 0.930 . S
H3234 C3242 0.930 1_455 S
H3235 C3243 0.930 . S
H3236 C3246 0.930 . S
H3237 C3247 0.930 . S
C3238 H3232 0.930 . S
C3238 C3239 1.355 . S
C3238 C3240 1.405 1_655 S
C3239 C3238 1.355 . S
C3239 C3241 1.419 . S
C3240 C3238 1.405 1_455 S
C3240 C3245 1.430 . S
C3240 C3247 1.414 . S
C3241 H3233 0.930 . S
C3241 C3239 1.419 . S
C3241 C3242 1.362 . S
C3242 H3234 0.930 1_655 S
C3242 C3241 1.362 . S
C3242 C3245 1.409 1_655 S
C3243 H3235 0.930 . S
C3243 C3244 1.355 . S
C3243 C3245 1.415 . S
C3244 C3243 1.355 . S
C3244 C3246 1.419 . S
C3245 C3240 1.430 . S
C3245 C3242 1.409 1_455 S
C3245 C3243 1.415 . S
C3246 H3236 0.930 . S
C3246 C3244 1.419 . S
C3246 C3247 1.362 . S
C3247 H3237 0.930 . S
C3247 C3240 1.414 . S
C3247 C3246 1.362 . S
H3248 C3254 0.930 . S
H3249 C3257 0.930 . S
H3250 C3258 0.930 1_556 S
H3251 C3259 0.930 . S
H3252 C3262 0.930 . S
H3253 C3263 0.925 1_554 S
C3254 H3248 0.930 . S
C3254 C3255 1.355 . S
C3254 C3256 1.415 . S
C3255 C3254 1.355 . S
C3255 C3257 1.419 . S
C3256 C3254 1.415 . S
C3256 C3261 1.425 1_554 S
C3256 C3263 1.405 1_554 S
C3257 H3249 0.930 . S
C3257 C3255 1.419 . S
C3257 C3258 1.362 . S
C3258 H3250 0.930 1_554 S
C3258 C3257 1.362 . S
C3258 C3261 1.409 1_554 S
C3259 H3251 0.930 . S
C3259 C3260 1.355 . S
C3259 C3261 1.415 . S
C3260 C3259 1.355 . S
C3260 C3262 1.419 . S
C3261 C3256 1.425 1_556 S
C3261 C3258 1.409 1_556 S
C3261 C3259 1.415 . S
C3262 H3252 0.930 . S
C3262 C3260 1.419 . S
C3262 C3263 1.371 . S
C3263 H3253 0.925 1_556 S
C3263 C3256 1.405 1_556 S
C3263 C3262 1.371 . S
H3264 C3270 0.930 . S
H3265 C3273 0.930 . S
H3266 C3274 0.930 . S
H3267 C3275 0.930 . S
H3268 C3278 0.930 . S
H3269 C3279 0.930 . S
C3270 H3264 0.930 . S
C3270 C3271 1.355 . S
C3270 C3272 1.415 . S
C3271 C3270 1.355 . S
C3271 C3273 1.419 . S
C3272 C3270 1.415 . S
C3272 C3277 1.425 . S
C3272 C3279 1.409 . S
C3273 H3265 0.930 . S
C3273 C3271 1.419 . S
C3273 C3274 1.362 . S
C3274 H3266 0.930 . S
C3274 C3273 1.362 . S
C3274 C3277 1.409 . S
C3275 H3267 0.930 . S
C3275 C3276 1.355 . S
C3275 C3277 1.415 . S
C3276 C3275 1.355 . S
C3276 C3278 1.419 . S
C3277 C3272 1.425 . S
C3277 C3274 1.409 . S
C3277 C3275 1.415 . S
C3278 H3268 0.930 . S
C3278 C3276 1.419 . S
C3278 C3279 1.362 . S
C3279 H3269 0.930 . S
C3279 C3272 1.409 . S
C3279 C3278 1.362 . S
H3280 C3286 0.930 . S
H3281 C3289 0.930 . S
H3282 C3290 0.930 . S
H3283 C3291 0.930 . S
H3284 C3294 0.930 . S
H3285 C3295 0.930 . S
C3286 H3280 0.930 . S
C3286 C3287 1.355 . S
C3286 C3288 1.415 . S
C3287 C3286 1.355 . S
C3287 C3289 1.419 . S
C3288 C3286 1.415 . S
C3288 C3293 1.425 . S
C3288 C3295 1.409 . S
C3289 H3281 0.930 . S
C3289 C3287 1.419 . S
C3289 C3290 1.362 . S
C3290 H3282 0.930 . S
C3290 C3289 1.362 . S
C3290 C3293 1.409 . S
C3291 H3283 0.930 . S
C3291 C3292 1.355 . S
C3291 C3293 1.415 . S
C3292 C3291 1.355 . S
C3292 C3294 1.419 . S
C3293 C3288 1.425 . S
C3293 C3290 1.409 . S
C3293 C3291 1.415 . S
C3294 H3284 0.930 . S
C3294 C3292 1.419 . S
C3294 C3295 1.362 . S
C3295 H3285 0.930 . S
C3295 C3288 1.409 . S
C3295 C3294 1.362 . S
H3296 C3302 0.930 . S
H3297 C3305 0.930 . S
H3298 C3306 0.930 . S
H3299 C3307 0.930 . S
H3300 C3310 0.930 . S
H3301 C3311 0.930 . S
C3302 H3296 0.930 . S
C3302 C3303 1.355 . S
C3302 C3304 1.415 . S
C3303 C3302 1.355 . S
C3303 C3305 1.419 . S
C3304 C3302 1.415 . S
C3304 C3309 1.425 . S
C3304 C3311 1.409 . S
C3305 H3297 0.930 . S
C3305 C3303 1.419 . S
C3305 C3306 1.362 . S
C3306 H3298 0.930 . S
C3306 C3305 1.362 . S
C3306 C3309 1.409 . S
C3307 H3299 0.930 . S
C3307 C3308 1.355 . S
C3307 C3309 1.415 . S
C3308 C3307 1.355 . S
C3308 C3310 1.419 . S
C3309 C3304 1.425 . S
C3309 C3306 1.409 . S
C3309 C3307 1.415 . S
C3310 H3300 0.930 . S
C3310 C3308 1.419 . S
C3310 C3311 1.362 . S
C3311 H3301 0.930 . S
C3311 C3304 1.409 . S
C3311 C3310 1.362 . S
H3312 C3318 0.930 . S
H3313 C3321 0.930 . S
H3314 C3322 0.930 . S
H3315 C3323 0.930 . S
H3316 C3326 0.930 . S
H3317 C3327 0.930 . S
C3318 H3312 0.930 . S
C3318 C3319 1.355 . S
C3318 C3320 1.415 . S
C3319 C3318 1.355 . S
C3319 C3321 1.419 . S
C3320 C3318 1.415 . S
C3320 C3325 1.425 . S
C3320 C3327 1.409 . S
C3321 H3313 0.930 . S
C3321 C3319 1.419 . S
C3321 C3322 1.362 . S
C3322 H3314 0.930 . S
C3322 C3321 1.362 . S
C3322 C3325 1.409 . S
C3323 H3315 0.930 . S
C3323 C3324 1.355 . S
C3323 C3325 1.415 . S
C3324 C3323 1.355 . S
C3324 C3326 1.419 . S
C3325 C3320 1.425 . S
C3325 C3322 1.409 . S
C3325 C3323 1.415 . S
C3326 H3316 0.930 . S
C3326 C3324 1.419 . S
C3326 C3327 1.362 . S
C3327 H3317 0.930 . S
C3327 C3320 1.409 . S
C3327 C3326 1.362 . S
H3328 C3334 0.930 . S
H3329 C3337 0.930 . S
H3330 C3338 0.930 . S
H3331 C3339 0.930 . S
H3332 C3342 0.930 . S
H3333 C3343 0.930 . S
C3334 H3328 0.930 . S
C3334 C3335 1.355 . S
C3334 C3336 1.415 . S
C3335 C3334 1.355 . S
C3335 C3337 1.419 . S
C3336 C3334 1.415 . S
C3336 C3341 1.425 . S
C3336 C3343 1.409 . S
C3337 H3329 0.930 . S
C3337 C3335 1.419 . S
C3337 C3338 1.362 . S
C3338 H3330 0.930 . S
C3338 C3337 1.362 . S
C3338 C3341 1.409 . S
C3339 H3331 0.930 . S
C3339 C3340 1.355 . S
C3339 C3341 1.415 . S
C3340 C3339 1.355 . S
C3340 C3342 1.419 . S
C3341 C3336 1.425 . S
C3341 C3338 1.409 . S
C3341 C3339 1.415 . S
C3342 H3332 0.930 . S
C3342 C3340 1.419 . S
C3342 C3343 1.362 . S
C3343 H3333 0.930 . S
C3343 C3336 1.409 . S
C3343 C3342 1.362 . S
H3344 C3350 0.930 . S
H3345 C3353 0.930 . S
H3346 C3354 0.930 . S
H3347 C3355 0.930 . S
H3348 C3358 0.930 . S
H3349 C3359 0.930 . S
C3350 H3344 0.930 . S
C3350 C3351 1.355 . S
C3350 C3352 1.415 . S
C3351 C3350 1.355 . S
C3351 C3353 1.419 . S
C3352 C3350 1.415 . S
C3352 C3357 1.425 . S
C3352 C3359 1.409 . S
C3353 H3345 0.930 . S
C3353 C3351 1.419 . S
C3353 C3354 1.362 . S
C3354 H3346 0.930 . S
C3354 C3353 1.362 . S
C3354 C3357 1.409 . S
C3355 H3347 0.930 . S
C3355 C3356 1.355 . S
C3355 C3357 1.415 . S
C3356 C3355 1.355 . S
C3356 C3358 1.419 . S
C3357 C3352 1.425 . S
C3357 C3354 1.409 . S
C3357 C3355 1.415 . S
C3358 H3348 0.930 . S
C3358 C3356 1.419 . S
C3358 C3359 1.362 . S
C3359 H3349 0.930 . S
C3359 C3352 1.409 . S
C3359 C3358 1.362 . S
H3360 C3366 0.930 . S
H3361 C3369 0.930 . S
H3362 C3370 0.930 1_556 S
H3363 C3371 0.930 . S
H3364 C3374 0.930 . S
H3365 C3375 0.930 . S
C3366 H3360 0.930 . S
C3366 C3367 1.355 . S
C3366 C3368 1.415 . S
C3367 C3366 1.355 . S
C3367 C3369 1.419 . S
C3368 C3366 1.415 . S
C3368 C3373 1.425 1_554 S
C3368 C3375 1.409 . S
C3369 H3361 0.930 . S
C3369 C3367 1.419 . S
C3369 C3370 1.362 . S
C3370 H3362 0.930 1_554 S
C3370 C3369 1.362 . S
C3370 C3373 1.409 1_554 S
C3371 H3363 0.930 . S
C3371 C3372 1.355 . S
C3371 C3373 1.415 . S
C3372 C3371 1.355 . S
C3372 C3374 1.419 . S
C3373 C3368 1.425 1_556 S
C3373 C3370 1.409 1_556 S
C3373 C3371 1.415 . S
C3374 H3364 0.930 . S
C3374 C3372 1.419 . S
C3374 C3375 1.362 1_556 S
C3375 H3365 0.930 . S
C3375 C3368 1.409 . S
C3375 C3374 1.362 1_554 S
H3376 C3382 0.930 . S
H3377 C3385 0.930 . S
H3378 C3386 0.945 . S
H3379 C3387 0.930 . S
H3380 C3390 0.930 . S
H3381 C3391 0.930 . S
C3382 H3376 0.930 . S
C3382 C3383 1.355 . S
C3382 C3384 1.415 1_655 S
C3383 C3382 1.355 . S
C3383 C3385 1.419 . S
C3384 C3382 1.415 1_455 S
C3384 C3389 1.425 . S
C3384 C3391 1.409 . S
C3385 H3377 0.930 . S
C3385 C3383 1.419 . S
C3385 C3386 1.362 . S
C3386 H3378 0.945 . S
C3386 C3385 1.362 . S
C3386 C3389 1.409 1_655 S
C3387 H3379 0.930 . S
C3387 C3388 1.355 . S
C3387 C3389 1.415 . S
C3388 C3387 1.355 . S
C3388 C3390 1.419 . S
C3389 C3384 1.425 . S
C3389 C3386 1.409 1_455 S
C3389 C3387 1.415 . S
C3390 H3380 0.930 . S
C3390 C3388 1.419 . S
C3390 C3391 1.362 . S
C3391 H3381 0.930 . S
C3391 C3384 1.409 . S
C3391 C3390 1.362 . S
H3392 C3398 0.930 . S
H3393 C3401 0.930 . S
H3394 C3402 0.930 . S
H3395 C3403 0.930 . S
H3396 C3406 0.930 . S
H3397 C3407 0.930 . S
C3398 H3392 0.930 . S
C3398 C3399 1.355 . S
C3398 C3400 1.415 . S
C3399 C3398 1.355 . S
C3399 C3401 1.419 . S
C3400 C3398 1.415 . S
C3400 C3405 1.425 . S
C3400 C3407 1.409 . S
C3401 H3393 0.930 . S
C3401 C3399 1.419 . S
C3401 C3402 1.362 . S
C3402 H3394 0.930 . S
C3402 C3401 1.362 . S
C3402 C3405 1.409 . S
C3403 H3395 0.930 . S
C3403 C3404 1.355 . S
C3403 C3405 1.415 . S
C3404 C3403 1.355 . S
C3404 C3406 1.419 . S
C3405 C3400 1.425 . S
C3405 C3402 1.409 . S
C3405 C3403 1.415 . S
C3406 H3396 0.930 . S
C3406 C3404 1.419 . S
C3406 C3407 1.362 . S
C3407 H3397 0.930 . S
C3407 C3400 1.409 . S
C3407 C3406 1.362 . S
H3408 C3414 0.930 . S
H3409 C3417 0.930 . S
H3410 C3418 0.930 . S
H3411 C3419 0.930 . S
H3412 C3422 0.930 . S
H3413 C3423 0.930 . S
C3414 H3408 0.930 . S
C3414 C3415 1.355 . S
C3414 C3416 1.415 . S
C3415 C3414 1.355 . S
C3415 C3417 1.419 . S
C3416 C3414 1.415 . S
C3416 C3421 1.425 . S
C3416 C3423 1.409 . S
C3417 H3409 0.930 . S
C3417 C3415 1.419 . S
C3417 C3418 1.362 . S
C3418 H3410 0.930 . S
C3418 C3417 1.362 . S
C3418 C3421 1.409 . S
C3419 H3411 0.930 . S
C3419 C3420 1.355 . S
C3419 C3421 1.415 . S
C3420 C3419 1.355 . S
C3420 C3422 1.419 . S
C3421 C3416 1.425 . S
C3421 C3418 1.409 . S
C3421 C3419 1.415 . S
C3422 H3412 0.930 . S
C3422 C3420 1.419 . S
C3422 C3423 1.362 . S
C3423 H3413 0.930 . S
C3423 C3416 1.409 . S
C3423 C3422 1.362 . S
H3424 C3430 0.930 . S
H3425 C3433 0.930 . S
H3426 C3434 0.930 . S
H3427 C3435 0.930 . S
H3428 C3438 0.930 . S
H3429 C3439 0.930 . S
C3430 H3424 0.930 . S
C3430 C3431 1.355 . S
C3430 C3432 1.415 . S
C3431 C3430 1.355 . S
C3431 C3433 1.419 . S
C3432 C3430 1.415 . S
C3432 C3437 1.425 . S
C3432 C3439 1.409 . S
C3433 H3425 0.930 . S
C3433 C3431 1.419 . S
C3433 C3434 1.362 . S
C3434 H3426 0.930 . S
C3434 C3433 1.362 . S
C3434 C3437 1.409 . S
C3435 H3427 0.930 . S
C3435 C3436 1.355 . S
C3435 C3437 1.415 . S
C3436 C3435 1.355 . S
C3436 C3438 1.419 . S
C3437 C3432 1.425 . S
C3437 C3434 1.409 . S
C3437 C3435 1.415 . S
C3438 H3428 0.930 . S
C3438 C3436 1.419 . S
C3438 C3439 1.362 . S
C3439 H3429 0.930 . S
C3439 C3432 1.409 . S
C3439 C3438 1.362 . S
H3440 C3446 0.930 . S
H3441 C3449 0.930 . S
H3442 C3450 0.930 . S
H3443 C3451 0.930 . S
H3444 C3454 0.930 . S
H3445 C3455 0.930 . S
C3446 H3440 0.930 . S
C3446 C3447 1.355 . S
C3446 C3448 1.415 . S
C3447 C3446 1.355 . S
C3447 C3449 1.419 . S
C3448 C3446 1.415 . S
C3448 C3453 1.425 . S
C3448 C3455 1.409 . S
C3449 H3441 0.930 . S
C3449 C3447 1.419 . S
C3449 C3450 1.362 . S
C3450 H3442 0.930 . S
C3450 C3449 1.362 . S
C3450 C3453 1.409 . S
C3451 H3443 0.930 . S
C3451 C3452 1.355 . S
C3451 C3453 1.415 . S
C3452 C3451 1.355 . S
C3452 C3454 1.419 . S
C3453 C3448 1.425 . S
C3453 C3450 1.409 . S
C3453 C3451 1.415 . S
C3454 H3444 0.930 . S
C3454 C3452 1.419 . S
C3454 C3455 1.362 . S
C3455 H3445 0.930 . S
C3455 C3448 1.409 . S
C3455 C3454 1.362 . S
H3456 C3462 0.930 . S
H3457 C3465 0.930 . S
H3458 C3466 0.930 . S
H3459 C3467 0.930 . S
H3460 C3470 0.930 . S
H3461 C3471 0.930 . S
C3462 H3456 0.930 . S
C3462 C3463 1.355 . S
C3462 C3464 1.415 . S
C3463 C3462 1.355 . S
C3463 C3465 1.419 . S
C3464 C3462 1.415 . S
C3464 C3469 1.425 . S
C3464 C3471 1.409 . S
C3465 H3457 0.930 . S
C3465 C3463 1.419 . S
C3465 C3466 1.362 . S
C3466 H3458 0.930 . S
C3466 C3465 1.362 . S
C3466 C3469 1.409 . S
C3467 H3459 0.930 . S
C3467 C3468 1.355 . S
C3467 C3469 1.415 . S
C3468 C3467 1.355 . S
C3468 C3470 1.419 . S
C3469 C3464 1.425 . S
C3469 C3466 1.409 . S
C3469 C3467 1.415 . S
C3470 H3460 0.930 . S
C3470 C3468 1.419 . S
C3470 C3471 1.362 . S
C3471 H3461 0.930 . S
C3471 C3464 1.409 . S
C3471 C3470 1.362 . S
H3472 C3478 0.930 . S
H3473 C3481 0.930 . S
H3474 C3482 0.930 . S
H3475 C3483 0.930 . S
H3476 C3486 0.930 . S
H3477 C3487 0.930 . S
C3478 H3472 0.930 . S
C3478 C3479 1.355 . S
C3478 C3480 1.415 1_545 S
C3479 C3478 1.355 . S
C3479 C3481 1.419 . S
C3480 C3478 1.415 1_565 S
C3480 C3485 1.425 . S
C3480 C3487 1.409 . S
C3481 H3473 0.930 . S
C3481 C3479 1.419 . S
C3481 C3482 1.362 1_545 S
C3482 H3474 0.930 . S
C3482 C3481 1.362 1_565 S
C3482 C3485 1.409 . S
C3483 H3475 0.930 . S
C3483 C3484 1.355 . S
C3483 C3485 1.415 . S
C3484 C3483 1.355 . S
C3484 C3486 1.419 . S
C3485 C3480 1.425 . S
C3485 C3482 1.409 . S
C3485 C3483 1.415 . S
C3486 H3476 0.930 . S
C3486 C3484 1.419 . S
C3486 C3487 1.362 . S
C3487 H3477 0.930 . S
C3487 C3480 1.409 . S
C3487 C3486 1.362 . S
H3488 C3494 0.930 . S
H3489 C3497 0.930 . S
H3490 C3498 0.930 . S
H3491 C3499 0.930 . S
H3492 C3502 0.930 . S
H3493 C3503 0.930 . S
C3494 H3488 0.930 . S
C3494 C3495 1.355 . S
C3494 C3496 1.415 . S
C3495 C3494 1.355 . S
C3495 C3497 1.419 . S
C3496 C3494 1.415 . S
C3496 C3501 1.425 . S
C3496 C3503 1.409 1_655 S
C3497 H3489 0.930 . S
C3497 C3495 1.419 . S
C3497 C3498 1.362 . S
C3498 H3490 0.930 . S
C3498 C3497 1.362 . S
C3498 C3501 1.409 . S
C3499 H3491 0.930 . S
C3499 C3500 1.355 . S
C3499 C3501 1.415 1_455 S
C3500 C3499 1.355 . S
C3500 C3502 1.419 . S
C3501 C3496 1.425 . S
C3501 C3498 1.409 . S
C3501 C3499 1.415 1_655 S
C3502 H3492 0.930 . S
C3502 C3500 1.419 . S
C3502 C3503 1.362 . S
C3503 H3493 0.930 . S
C3503 C3496 1.409 1_455 S
C3503 C3502 1.362 . S
H3504 C3510 0.930 . S
H3505 C3513 0.930 . S
H3506 C3514 0.930 . S
H3507 C3515 0.930 . S
H3508 C3518 0.930 . S
H3509 C3519 0.930 . S
C3510 H3504 0.930 . S
C3510 C3511 1.355 . S
C3510 C3512 1.415 . S
C3511 C3510 1.355 . S
C3511 C3513 1.419 . S
C3512 C3510 1.415 . S
C3512 C3517 1.425 . S
C3512 C3519 1.409 . S
C3513 H3505 0.930 . S
C3513 C3511 1.419 . S
C3513 C3514 1.362 . S
C3514 H3506 0.930 . S
C3514 C3513 1.362 . S
C3514 C3517 1.409 . S
C3515 H3507 0.930 . S
C3515 C3516 1.355 . S
C3515 C3517 1.415 . S
C3516 C3515 1.355 . S
C3516 C3518 1.419 . S
C3517 C3512 1.425 . S
C3517 C3514 1.409 . S
C3517 C3515 1.415 . S
C3518 H3508 0.930 . S
C3518 C3516 1.419 . S
C3518 C3519 1.362 . S
C3519 H3509 0.930 . S
C3519 C3512 1.409 . S
C3519 C3518 1.362 . S
H3520 C3526 0.930 . S
H3521 C3529 0.930 . S
H3522 C3530 0.930 . S
H3523 C3531 0.930 . S
H3524 C3534 0.930 . S
H3525 C3535 0.930 . S
C3526 H3520 0.930 . S
C3526 C3527 1.355 . S
C3526 C3528 1.415 . S
C3527 C3526 1.355 . S
C3527 C3529 1.419 . S
C3528 C3526 1.415 . S
C3528 C3533 1.425 . S
C3528 C3535 1.409 . S
C3529 H3521 0.930 . S
C3529 C3527 1.419 . S
C3529 C3530 1.362 . S
C3530 H3522 0.930 . S
C3530 C3529 1.362 . S
C3530 C3533 1.409 . S
C3531 H3523 0.930 . S
C3531 C3532 1.355 . S
C3531 C3533 1.415 . S
C3532 C3531 1.355 . S
C3532 C3534 1.419 . S
C3533 C3528 1.425 . S
C3533 C3530 1.409 . S
C3533 C3531 1.415 . S
C3534 H3524 0.930 . S
C3534 C3532 1.419 . S
C3534 C3535 1.362 . S
C3535 H3525 0.930 . S
C3535 C3528 1.409 . S
C3535 C3534 1.362 . S
H3536 C3542 0.930 . S
H3537 C3545 0.930 . S
H3538 C3546 0.930 . S
H3539 C3547 0.930 . S
H3540 C3550 0.930 . S
H3541 C3551 0.930 . S
C3542 H3536 0.930 . S
C3542 C3543 1.355 . S
C3542 C3544 1.415 . S
C3543 C3542 1.355 . S
C3543 C3545 1.419 . S
C3544 C3542 1.415 . S
C3544 C3549 1.425 . S
C3544 C3551 1.409 . S
C3545 H3537 0.930 . S
C3545 C3543 1.419 . S
C3545 C3546 1.362 . S
C3546 H3538 0.930 . S
C3546 C3545 1.362 . S
C3546 C3549 1.409 . S
C3547 H3539 0.930 . S
C3547 C3548 1.355 . S
C3547 C3549 1.415 . S
C3548 C3547 1.355 . S
C3548 C3550 1.419 . S
C3549 C3544 1.425 . S
C3549 C3546 1.409 . S
C3549 C3547 1.415 . S
C3550 H3540 0.930 . S
C3550 C3548 1.419 . S
C3550 C3551 1.362 . S
C3551 H3541 0.930 . S
C3551 C3544 1.409 . S
C3551 C3550 1.362 . S
H3552 C3558 0.930 . S
H3553 C3561 0.930 . S
H3554 C3562 0.930 . S
H3555 C3563 0.930 . S
H3556 C3566 0.930 . S
H3557 C3567 0.930 . S
C3558 H3552 0.930 . S
C3558 C3559 1.355 . S
C3558 C3560 1.415 . S
C3559 C3558 1.355 . S
C3559 C3561 1.419 . S
C3560 C3558 1.415 . S
C3560 C3565 1.425 . S
C3560 C3567 1.409 . S
C3561 H3553 0.930 . S
C3561 C3559 1.419 . S
C3561 C3562 1.362 . S
C3562 H3554 0.930 . S
C3562 C3561 1.362 . S
C3562 C3565 1.409 . S
C3563 H3555 0.930 . S
C3563 C3564 1.355 . S
C3563 C3565 1.415 . S
C3564 C3563 1.355 . S
C3564 C3566 1.419 . S
C3565 C3560 1.425 . S
C3565 C3562 1.409 . S
C3565 C3563 1.415 . S
C3566 H3556 0.930 . S
C3566 C3564 1.419 . S
C3566 C3567 1.362 . S
C3567 H3557 0.930 . S
C3567 C3560 1.409 . S
C3567 C3566 1.362 . S
H3568 C3574 0.930 . S
H3569 C3577 0.930 . S
H3570 C3578 0.930 . S
H3571 C3579 0.930 . S
H3572 C3582 0.930 . S
H3573 C3583 0.930 . S
C3574 H3568 0.930 . S
C3574 C3575 1.355 . S
C3574 C3576 1.415 1_565 S
C3575 C3574 1.355 . S
C3575 C3577 1.419 . S
C3576 C3574 1.415 1_545 S
C3576 C3581 1.425 . S
C3576 C3583 1.409 . S
C3577 H3569 0.930 . S
C3577 C3575 1.419 . S
C3577 C3578 1.362 1_565 S
C3578 H3570 0.930 . S
C3578 C3577 1.362 1_545 S
C3578 C3581 1.409 . S
C3579 H3571 0.930 . S
C3579 C3580 1.355 . S
C3579 C3581 1.415 . S
C3580 C3579 1.355 . S
C3580 C3582 1.419 . S
C3581 C3576 1.425 . S
C3581 C3578 1.409 . S
C3581 C3579 1.415 . S
C3582 H3572 0.930 . S
C3582 C3580 1.419 . S
C3582 C3583 1.362 . S
C3583 H3573 0.930 . S
C3583 C3576 1.409 . S
C3583 C3582 1.362 . S
H3584 C3590 0.930 . S
H3585 C3593 0.930 . S
H3586 C3594 0.930 . S
H3587 C3595 0.930 . S
H3588 C3598 0.930 . S
H3589 C3599 0.930 . S
C3590 H3584 0.930 . S
C3590 C3591 1.355 . S
C3590 C3592 1.415 . S
C3591 C3590 1.355 . S
C3591 C3593 1.419 . S
C3592 C3590 1.415 . S
C3592 C3597 1.425 . S
C3592 C3599 1.409 . S
C3593 H3585 0.930 . S
C3593 C3591 1.419 . S
C3593 C3594 1.362 . S
C3594 H3586 0.930 . S
C3594 C3593 1.362 . S
C3594 C3597 1.409 . S
C3595 H3587 0.930 . S
C3595 C3596 1.355 . S
C3595 C3597 1.415 1_655 S
C3596 C3595 1.355 . S
C3596 C3598 1.419 . S
C3597 C3592 1.425 . S
C3597 C3594 1.409 . S
C3597 C3595 1.415 1_455 S
C3598 H3588 0.930 . S
C3598 C3596 1.419 . S
C3598 C3599 1.362 1_655 S
C3599 H3589 0.930 . S
C3599 C3592 1.409 . S
C3599 C3598 1.362 1_455 S
H3600 C3606 0.930 . S
H3601 C3609 0.930 . S
H3602 C3610 0.930 . S
H3603 C3611 0.930 . S
H3604 C3614 0.930 . S
H3605 C3615 0.930 . S
C3606 H3600 0.930 . S
C3606 C3607 1.355 . S
C3606 C3608 1.415 1_554 S
C3607 C3606 1.355 . S
C3607 C3609 1.419 . S
C3608 C3606 1.415 1_556 S
C3608 C3613 1.425 . S
C3608 C3615 1.409 . S
C3609 H3601 0.930 . S
C3609 C3607 1.419 . S
C3609 C3610 1.362 1_554 S
C3610 H3602 0.930 . S
C3610 C3609 1.362 1_556 S
C3610 C3613 1.409 . S
C3611 H3603 0.930 . S
C3611 C3612 1.355 . S
C3611 C3613 1.415 . S
C3612 C3611 1.355 . S
C3612 C3614 1.419 . S
C3613 C3608 1.425 . S
C3613 C3610 1.409 . S
C3613 C3611 1.415 . S
C3614 H3604 0.930 . S
C3614 C3612 1.419 . S
C3614 C3615 1.362 . S
C3615 H3605 0.930 . S
C3615 C3608 1.409 . S
C3615 C3614 1.362 . S
H3616 C3622 0.930 . S
H3617 C3625 0.930 . S
H3618 C3626 0.930 . S
H3619 C3627 0.930 . S
H3620 C3630 0.930 . S
H3621 C3631 0.930 . S
C3622 H3616 0.930 . S
C3622 C3623 1.355 . S
C3622 C3624 1.415 . S
C3623 C3622 1.355 . S
C3623 C3625 1.419 . S
C3624 C3622 1.415 . S
C3624 C3629 1.425 . S
C3624 C3631 1.409 . S
C3625 H3617 0.930 . S
C3625 C3623 1.419 . S
C3625 C3626 1.362 . S
C3626 H3618 0.930 . S
C3626 C3625 1.362 . S
C3626 C3629 1.409 . S
C3627 H3619 0.930 . S
C3627 C3628 1.355 . S
C3627 C3629 1.415 . S
C3628 C3627 1.355 . S
C3628 C3630 1.419 . S
C3629 C3624 1.425 . S
C3629 C3626 1.409 . S
C3629 C3627 1.415 . S
C3630 H3620 0.930 . S
C3630 C3628 1.419 . S
C3630 C3631 1.362 . S
C3631 H3621 0.930 . S
C3631 C3624 1.409 . S
C3631 C3630 1.362 . S
H3632 C3638 0.930 . S
H3633 C3641 0.930 . S
H3634 C3642 0.930 . S
H3635 C3643 0.930 . S
H3636 C3646 0.930 . S
H3637 C3647 0.930 . S
C3638 H3632 0.930 . S
C3638 C3639 1.355 . S
C3638 C3640 1.415 . S
C3639 C3638 1.355 . S
C3639 C3641 1.419 . S
C3640 C3638 1.415 . S
C3640 C3645 1.425 . S
C3640 C3647 1.409 . S
C3641 H3633 0.930 . S
C3641 C3639 1.419 . S
C3641 C3642 1.362 . S
C3642 H3634 0.930 . S
C3642 C3641 1.362 . S
C3642 C3645 1.409 . S
C3643 H3635 0.930 . S
C3643 C3644 1.355 . S
C3643 C3645 1.415 . S
C3644 C3643 1.355 . S
C3644 C3646 1.419 . S
C3645 C3640 1.425 . S
C3645 C3642 1.409 . S
C3645 C3643 1.415 . S
C3646 H3636 0.930 . S
C3646 C3644 1.419 . S
C3646 C3647 1.362 . S
C3647 H3637 0.930 . S
C3647 C3640 1.409 . S
C3647 C3646 1.362 . S
H3648 C3654 0.930 . S
H3649 C3657 0.930 . S
H3650 C3658 0.930 . S
H3651 C3659 0.930 . S
H3652 C3662 0.930 . S
H3653 C3663 0.930 . S
C3654 H3648 0.930 . S
C3654 C3655 1.355 . S
C3654 C3656 1.415 . S
C3655 C3654 1.355 . S
C3655 C3657 1.419 . S
C3656 C3654 1.415 . S
C3656 C3661 1.425 . S
C3656 C3663 1.409 . S
C3657 H3649 0.930 . S
C3657 C3655 1.419 . S
C3657 C3658 1.362 . S
C3658 H3650 0.930 . S
C3658 C3657 1.362 . S
C3658 C3661 1.409 . S
C3659 H3651 0.930 . S
C3659 C3660 1.355 . S
C3659 C3661 1.415 . S
C3660 C3659 1.355 . S
C3660 C3662 1.419 . S
C3661 C3656 1.425 . S
C3661 C3658 1.409 . S
C3661 C3659 1.415 . S
C3662 H3652 0.930 . S
C3662 C3660 1.419 . S
C3662 C3663 1.362 . S
C3663 H3653 0.930 . S
C3663 C3656 1.409 . S
C3663 C3662 1.362 . S
H3664 C3670 0.930 . S
H3665 C3673 0.930 . S
H3666 C3674 0.930 . S
H3667 C3675 0.930 . S
H3668 C3678 0.930 . S
H3669 C3679 0.930 . S
C3670 H3664 0.930 . S
C3670 C3671 1.355 . S
C3670 C3672 1.415 . S
C3671 C3670 1.355 . S
C3671 C3673 1.419 . S
C3672 C3670 1.415 . S
C3672 C3677 1.425 . S
C3672 C3679 1.409 . S
C3673 H3665 0.930 . S
C3673 C3671 1.419 . S
C3673 C3674 1.362 . S
C3674 H3666 0.930 . S
C3674 C3673 1.362 . S
C3674 C3677 1.409 . S
C3675 H3667 0.930 . S
C3675 C3676 1.355 . S
C3675 C3677 1.415 . S
C3676 C3675 1.355 . S
C3676 C3678 1.419 . S
C3677 C3672 1.425 . S
C3677 C3674 1.409 . S
C3677 C3675 1.415 . S
C3678 H3668 0.930 . S
C3678 C3676 1.419 . S
C3678 C3679 1.362 . S
C3679 H3669 0.930 . S
C3679 C3672 1.409 . S
C3679 C3678 1.362 . S
H3680 C3686 0.930 . S
H3681 C3689 0.930 . S
H3682 C3690 0.930 . S
H3683 C3691 0.930 . S
H3684 C3694 0.930 . S
H3685 C3695 0.930 . S
C3686 H3680 0.930 . S
C3686 C3687 1.355 . S
C3686 C3688 1.415 . S
C3687 C3686 1.355 . S
C3687 C3689 1.419 . S
C3688 C3686 1.415 . S
C3688 C3693 1.425 . S
C3688 C3695 1.409 . S
C3689 H3681 0.930 . S
C3689 C3687 1.419 . S
C3689 C3690 1.362 . S
C3690 H3682 0.930 . S
C3690 C3689 1.362 . S
C3690 C3693 1.409 . S
C3691 H3683 0.930 . S
C3691 C3692 1.355 . S
C3691 C3693 1.415 . S
C3692 C3691 1.355 . S
C3692 C3694 1.419 . S
C3693 C3688 1.425 . S
C3693 C3690 1.409 . S
C3693 C3691 1.415 . S
C3694 H3684 0.930 . S
C3694 C3692 1.419 . S
C3694 C3695 1.362 . S
C3695 H3685 0.930 . S
C3695 C3688 1.409 . S
C3695 C3694 1.362 . S
H3696 C3702 0.930 . S
H3697 C3705 0.930 . S
H3698 C3706 0.930 . S
H3699 C3707 0.930 . S
H3700 C3710 0.930 . S
H3701 C3711 0.930 . S
C3702 H3696 0.930 . S
C3702 C3703 1.355 . S
C3702 C3704 1.415 . S
C3703 C3702 1.355 . S
C3703 C3705 1.419 . S
C3704 C3702 1.415 . S
C3704 C3709 1.425 . S
C3704 C3711 1.409 . S
C3705 H3697 0.930 . S
C3705 C3703 1.419 . S
C3705 C3706 1.362 . S
C3706 H3698 0.930 . S
C3706 C3705 1.362 . S
C3706 C3709 1.409 . S
C3707 H3699 0.930 . S
C3707 C3708 1.355 . S
C3707 C3709 1.415 . S
C3708 C3707 1.355 . S
C3708 C3710 1.419 . S
C3709 C3704 1.425 . S
C3709 C3706 1.409 . S
C3709 C3707 1.415 . S
C3710 H3700 0.930 . S
C3710 C3708 1.419 . S
C3710 C3711 1.362 . S
C3711 H3701 0.930 . S
C3711 C3704 1.409 . S
C3711 C3710 1.362 . S
H3712 C3718 0.930 . S
H3713 C3721 0.930 . S
H3714 C3722 0.930 . S
H3715 C3723 0.930 . S
H3716 C3726 0.930 . S
H3717 C3727 0.930 . S
C3718 H3712 0.930 . S
C3718 C3719 1.355 . S
C3718 C3720 1.415 1_554 S
C3719 C3718 1.355 . S
C3719 C3721 1.419 . S
C3720 C3718 1.415 1_556 S
C3720 C3725 1.425 . S
C3720 C3727 1.409 . S
C3721 H3713 0.930 . S
C3721 C3719 1.419 . S
C3721 C3722 1.362 1_554 S
C3722 H3714 0.930 . S
C3722 C3721 1.362 1_556 S
C3722 C3725 1.409 . S
C3723 H3715 0.930 . S
C3723 C3724 1.355 . S
C3723 C3725 1.415 . S
C3724 C3723 1.355 . S
C3724 C3726 1.419 . S
C3725 C3720 1.425 . S
C3725 C3722 1.409 . S
C3725 C3723 1.415 . S
C3726 H3716 0.930 . S
C3726 C3724 1.419 . S
C3726 C3727 1.362 . S
C3727 H3717 0.930 . S
C3727 C3720 1.409 . S
C3727 C3726 1.362 . S
H3728 C3734 0.930 . S
H3729 C3737 0.930 . S
H3730 C3738 0.930 . S
H3731 C3739 0.930 . S
H3732 C3742 0.930 . S
H3733 C3743 0.930 . S
C3734 H3728 0.930 . S
C3734 C3735 1.355 . S
C3734 C3736 1.415 . S
C3735 C3734 1.355 . S
C3735 C3737 1.419 . S
C3736 C3734 1.415 . S
C3736 C3741 1.425 . S
C3736 C3743 1.409 . S
C3737 H3729 0.930 . S
C3737 C3735 1.419 . S
C3737 C3738 1.362 . S
C3738 H3730 0.930 . S
C3738 C3737 1.362 . S
C3738 C3741 1.409 . S
C3739 H3731 0.930 . S
C3739 C3740 1.355 . S
C3739 C3741 1.415 1_655 S
C3740 C3739 1.355 . S
C3740 C3742 1.419 . S
C3741 C3736 1.425 . S
C3741 C3738 1.409 . S
C3741 C3739 1.415 1_455 S
C3742 H3732 0.930 . S
C3742 C3740 1.419 . S
C3742 C3743 1.362 1_655 S
C3743 H3733 0.930 . S
C3743 C3736 1.409 . S
C3743 C3742 1.362 1_455 S
H3744 C3750 0.930 . S
H3745 C3753 0.930 . S
H3746 C3754 0.930 . S
H3747 C3755 0.930 . S
H3748 C3758 0.930 . S
H3749 C3759 0.930 . S
C3750 H3744 0.930 . S
C3750 C3751 1.355 . S
C3750 C3752 1.415 . S
C3751 C3750 1.355 . S
C3751 C3753 1.419 . S
C3752 C3750 1.415 . S
C3752 C3757 1.425 . S
C3752 C3759 1.409 . S
C3753 H3745 0.930 . S
C3753 C3751 1.419 . S
C3753 C3754 1.362 . S
C3754 H3746 0.930 . S
C3754 C3753 1.362 . S
C3754 C3757 1.409 . S
C3755 H3747 0.930 . S
C3755 C3756 1.355 . S
C3755 C3757 1.415 . S
C3756 C3755 1.355 . S
C3756 C3758 1.419 . S
C3757 C3752 1.425 . S
C3757 C3754 1.409 . S
C3757 C3755 1.415 . S
C3758 H3748 0.930 . S
C3758 C3756 1.419 . S
C3758 C3759 1.362 . S
C3759 H3749 0.930 . S
C3759 C3752 1.409 . S
C3759 C3758 1.362 . S
H3760 C3766 0.930 . S
H3761 C3769 0.930 . S
H3762 C3770 0.930 . S
H3763 C3771 0.930 . S
H3764 C3774 0.930 . S
H3765 C3775 0.930 . S
C3766 H3760 0.930 . S
C3766 C3767 1.355 . S
C3766 C3768 1.415 . S
C3767 C3766 1.355 . S
C3767 C3769 1.419 . S
C3768 C3766 1.415 . S
C3768 C3773 1.425 . S
C3768 C3775 1.409 . S
C3769 H3761 0.930 . S
C3769 C3767 1.419 . S
C3769 C3770 1.362 . S
C3770 H3762 0.930 . S
C3770 C3769 1.362 . S
C3770 C3773 1.409 . S
C3771 H3763 0.930 . S
C3771 C3772 1.355 . S
C3771 C3773 1.415 . S
C3772 C3771 1.355 . S
C3772 C3774 1.419 . S
C3773 C3768 1.425 . S
C3773 C3770 1.409 . S
C3773 C3771 1.415 . S
C3774 H3764 0.930 . S
C3774 C3772 1.419 . S
C3774 C3775 1.362 . S
C3775 H3765 0.930 . S
C3775 C3768 1.409 . S
C3775 C3774 1.362 . S
H3776 C3782 0.930 . S
H3777 C3785 0.930 . S
H3778 C3786 0.930 . S
H3779 C3787 0.930 . S
H3780 C3790 0.930 . S
H3781 C3791 0.930 . S
C3782 H3776 0.930 . S
C3782 C3783 1.355 . S
C3782 C3784 1.415 . S
C3783 C3782 1.355 . S
C3783 C3785 1.419 . S
C3784 C3782 1.415 . S
C3784 C3789 1.425 . S
C3784 C3791 1.409 . S
C3785 H3777 0.930 . S
C3785 C3783 1.419 . S
C3785 C3786 1.362 . S
C3786 H3778 0.930 . S
C3786 C3785 1.362 . S
C3786 C3789 1.409 . S
C3787 H3779 0.930 . S
C3787 C3788 1.355 . S
C3787 C3789 1.415 . S
C3788 C3787 1.355 . S
C3788 C3790 1.419 . S
C3789 C3784 1.425 . S
C3789 C3786 1.409 . S
C3789 C3787 1.415 . S
C3790 H3780 0.930 . S
C3790 C3788 1.419 . S
C3790 C3791 1.362 . S
C3791 H3781 0.930 . S
C3791 C3784 1.409 . S
C3791 C3790 1.362 . S
H3792 C3798 0.930 . S
H3793 C3801 0.930 . S
H3794 C3802 0.930 . S
H3795 C3803 0.930 . S
H3796 C3806 0.930 . S
H3797 C3807 0.930 . S
C3798 H3792 0.930 . S
C3798 C3799 1.355 . S
C3798 C3800 1.415 . S
C3799 C3798 1.355 . S
C3799 C3801 1.419 . S
C3800 C3798 1.415 . S
C3800 C3805 1.425 . S
C3800 C3807 1.409 . S
C3801 H3793 0.930 . S
C3801 C3799 1.419 . S
C3801 C3802 1.362 . S
C3802 H3794 0.930 . S
C3802 C3801 1.362 . S
C3802 C3805 1.409 . S
C3803 H3795 0.930 . S
C3803 C3804 1.355 . S
C3803 C3805 1.415 . S
C3804 C3803 1.355 . S
C3804 C3806 1.419 . S
C3805 C3800 1.425 . S
C3805 C3802 1.409 . S
C3805 C3803 1.415 . S
C3806 H3796 0.930 . S
C3806 C3804 1.419 . S
C3806 C3807 1.362 . S
C3807 H3797 0.930 . S
C3807 C3800 1.409 . S
C3807 C3806 1.362 . S
H3808 C3814 0.930 . S
H3809 C3817 0.930 . S
H3810 C3818 0.930 . S
H3811 C3819 0.930 . S
H3812 C3822 0.930 . S
H3813 C3823 0.930 . S
C3814 H3808 0.930 . S
C3814 C3815 1.355 . S
C3814 C3816 1.415 . S
C3815 C3814 1.355 . S
C3815 C3817 1.419 . S
C3816 C3814 1.415 . S
C3816 C3821 1.425 . S
C3816 C3823 1.409 . S
C3817 H3809 0.930 . S
C3817 C3815 1.419 . S
C3817 C3818 1.362 . S
C3818 H3810 0.930 . S
C3818 C3817 1.362 . S
C3818 C3821 1.409 . S
C3819 H3811 0.930 . S
C3819 C3820 1.355 . S
C3819 C3821 1.415 . S
C3820 C3819 1.355 . S
C3820 C3822 1.419 . S
C3821 C3816 1.425 . S
C3821 C3818 1.409 . S
C3821 C3819 1.415 . S
C3822 H3812 0.930 . S
C3822 C3820 1.419 . S
C3822 C3823 1.362 . S
C3823 H3813 0.930 . S
C3823 C3816 1.409 . S
C3823 C3822 1.362 . S
H3824 C3830 0.930 . S
H3825 C3833 0.930 . S
H3826 C3834 0.930 . S
H3827 C3835 0.930 . S
H3828 C3838 0.930 . S
H3829 C3839 0.930 . S
C3830 H3824 0.930 . S
C3830 C3831 1.355 . S
C3830 C3832 1.415 . S
C3831 C3830 1.355 . S
C3831 C3833 1.419 . S
C3832 C3830 1.415 . S
C3832 C3837 1.425 . S
C3832 C3839 1.409 . S
C3833 H3825 0.930 . S
C3833 C3831 1.419 . S
C3833 C3834 1.362 . S
C3834 H3826 0.930 . S
C3834 C3833 1.362 . S
C3834 C3837 1.409 . S
C3835 H3827 0.930 . S
C3835 C3836 1.355 . S
C3835 C3837 1.415 . S
C3836 C3835 1.355 . S
C3836 C3838 1.419 . S
C3837 C3832 1.425 . S
C3837 C3834 1.409 . S
C3837 C3835 1.415 . S
C3838 H3828 0.930 . S
C3838 C3836 1.419 . S
C3838 C3839 1.362 . S
C3839 H3829 0.930 . S
C3839 C3832 1.409 . S
C3839 C3838 1.362 . S
H3840 C3846 0.930 . S
H3841 C3849 0.930 . S
H3842 C3850 0.930 1_655 S
H3843 C3851 0.930 . S
H3844 C3854 0.930 . S
H3845 C3855 0.930 . S
C3846 H3840 0.930 . S
C3846 C3847 1.355 . S
C3846 C3848 1.415 . S
C3847 C3846 1.355 . S
C3847 C3849 1.419 . S
C3848 C3846 1.415 . S
C3848 C3853 1.425 1_455 S
C3848 C3855 1.409 . S
C3849 H3841 0.930 . S
C3849 C3847 1.419 . S
C3849 C3850 1.362 . S
C3850 H3842 0.930 1_455 S
C3850 C3849 1.362 . S
C3850 C3853 1.409 1_455 S
C3851 H3843 0.930 . S
C3851 C3852 1.355 . S
C3851 C3853 1.415 . S
C3852 C3851 1.355 . S
C3852 C3854 1.419 . S
C3853 C3848 1.425 1_655 S
C3853 C3850 1.409 1_655 S
C3853 C3851 1.415 . S
C3854 H3844 0.930 . S
C3854 C3852 1.419 . S
C3854 C3855 1.362 1_655 S
C3855 H3845 0.930 . S
C3855 C3848 1.409 . S
C3855 C3854 1.362 1_455 S
H3856 C3862 0.930 . S
H3857 C3865 0.930 . S
H3858 C3866 0.930 . S
H3859 C3867 0.930 . S
H3860 C3870 0.930 . S
H3861 C3871 0.930 . S
C3862 H3856 0.930 . S
C3862 C3863 1.355 . S
C3862 C3864 1.415 . S
C3863 C3862 1.355 . S
C3863 C3865 1.419 . S
C3864 C3862 1.415 . S
C3864 C3869 1.425 . S
C3864 C3871 1.409 . S
C3865 H3857 0.930 . S
C3865 C3863 1.419 . S
C3865 C3866 1.362 . S
C3866 H3858 0.930 . S
C3866 C3865 1.362 . S
C3866 C3869 1.409 . S
C3867 H3859 0.930 . S
C3867 C3868 1.355 . S
C3867 C3869 1.415 . S
C3868 C3867 1.355 . S
C3868 C3870 1.419 . S
C3869 C3864 1.425 . S
C3869 C3866 1.409 . S
C3869 C3867 1.415 . S
C3870 H3860 0.930 . S
C3870 C3868 1.419 . S
C3870 C3871 1.362 . S
C3871 H3861 0.930 . S
C3871 C3864 1.409 . S
C3871 C3870 1.362 . S
H3872 C3878 0.930 . S
H3873 C3881 0.930 . S
H3874 C3882 0.930 . S
H3875 C3883 0.930 . S
H3876 C3886 0.930 . S
H3877 C3887 0.930 . S
C3878 H3872 0.930 . S
C3878 C3879 1.355 . S
C3878 C3880 1.415 . S
C3879 C3878 1.355 . S
C3879 C3881 1.419 . S
C3880 C3878 1.415 . S
C3880 C3885 1.425 . S
C3880 C3887 1.409 . S
C3881 H3873 0.930 . S
C3881 C3879 1.419 . S
C3881 C3882 1.362 . S
C3882 H3874 0.930 . S
C3882 C3881 1.362 . S
C3882 C3885 1.409 . S
C3883 H3875 0.930 . S
C3883 C3884 1.355 . S
C3883 C3885 1.415 . S
C3884 C3883 1.355 . S
C3884 C3886 1.419 . S
C3885 C3880 1.425 . S
C3885 C3882 1.409 . S
C3885 C3883 1.415 . S
C3886 H3876 0.930 . S
C3886 C3884 1.419 . S
C3886 C3887 1.362 . S
C3887 H3877 0.930 . S
C3887 C3880 1.409 . S
C3887 C3886 1.362 . S
H3888 C3894 0.930 . S
H3889 C3897 0.930 . S
H3890 C3898 0.930 . S
H3891 C3899 0.930 . S
H3892 C3902 0.930 . S
H3893 C3903 0.930 . S
C3894 H3888 0.930 . S
C3894 C3895 1.355 . S
C3894 C3896 1.415 . S
C3895 C3894 1.355 . S
C3895 C3897 1.419 . S
C3896 C3894 1.415 . S
C3896 C3901 1.425 . S
C3896 C3903 1.409 . S
C3897 H3889 0.930 . S
C3897 C3895 1.419 . S
C3897 C3898 1.362 . S
C3898 H3890 0.930 . S
C3898 C3897 1.362 . S
C3898 C3901 1.409 . S
C3899 H3891 0.930 . S
C3899 C3900 1.355 . S
C3899 C3901 1.415 . S
C3900 C3899 1.355 . S
C3900 C3902 1.419 . S
C3901 C3896 1.425 . S
C3901 C3898 1.409 . S
C3901 C3899 1.415 . S
C3902 H3892 0.930 . S
C3902 C3900 1.419 . S
C3902 C3903 1.362 . S
C3903 H3893 0.930 . S
C3903 C3896 1.409 . S
C3903 C3902 1.362 . S
H3904 C3910 0.930 . S
H3905 C3913 0.930 . S
H3906 C3914 0.930 . S
H3907 C3915 0.930 . S
H3908 C3918 0.930 . S
H3909 C3919 0.930 . S
C3910 H3904 0.930 . S
C3910 C3911 1.355 . S
C3910 C3912 1.415 . S
C3911 C3910 1.355 . S
C3911 C3913 1.419 . S
C3912 C3910 1.415 . S
C3912 C3917 1.425 . S
C3912 C3919 1.409 . S
C3913 H3905 0.930 . S
C3913 C3911 1.419 . S
C3913 C3914 1.362 . S
C3914 H3906 0.930 . S
C3914 C3913 1.362 . S
C3914 C3917 1.409 . S
C3915 H3907 0.930 . S
C3915 C3916 1.355 . S
C3915 C3917 1.415 . S
C3916 C3915 1.355 . S
C3916 C3918 1.419 . S
C3917 C3912 1.425 . S
C3917 C3914 1.409 . S
C3917 C3915 1.415 . S
C3918 H3908 0.930 . S
C3918 C3916 1.419 . S
C3918 C3919 1.362 . S
C3919 H3909 0.930 . S
C3919 C3912 1.409 . S
C3919 C3918 1.362 . S
H3920 C3926 0.930 . S
H3921 C3929 0.930 . S
H3922 C3930 0.930 . S
H3923 C3931 0.930 . S
H3924 C3934 0.930 . S
H3925 C3935 0.930 . S
C3926 H3920 0.930 . S
C3926 C3927 1.355 . S
C3926 C3928 1.415 . S
C3927 C3926 1.355 . S
C3927 C3929 1.419 . S
C3928 C3926 1.415 . S
C3928 C3933 1.425 . S
C3928 C3935 1.409 . S
C3929 H3921 0.930 . S
C3929 C3927 1.419 . S
C3929 C3930 1.362 . S
C3930 H3922 0.930 . S
C3930 C3929 1.362 . S
C3930 C3933 1.409 . S
C3931 H3923 0.930 . S
C3931 C3932 1.355 . S
C3931 C3933 1.415 . S
C3932 C3931 1.355 . S
C3932 C3934 1.419 . S
C3933 C3928 1.425 . S
C3933 C3930 1.409 . S
C3933 C3931 1.415 . S
C3934 H3924 0.930 . S
C3934 C3932 1.419 . S
C3934 C3935 1.362 . S
C3935 H3925 0.930 . S
C3935 C3928 1.409 . S
C3935 C3934 1.362 . S
H3936 C3942 0.930 . S
H3937 C3945 0.930 . S
H3938 C3946 0.930 . S
H3939 C3947 0.930 . S
H3940 C3950 0.930 . S
H3941 C3951 0.930 . S
C3942 H3936 0.930 . S
C3942 C3943 1.355 . S
C3942 C3944 1.415 . S
C3943 C3942 1.355 . S
C3943 C3945 1.419 . S
C3944 C3942 1.415 . S
C3944 C3949 1.425 . S
C3944 C3951 1.409 . S
C3945 H3937 0.930 . S
C3945 C3943 1.419 . S
C3945 C3946 1.362 . S
C3946 H3938 0.930 . S
C3946 C3945 1.362 . S
C3946 C3949 1.409 . S
C3947 H3939 0.930 . S
C3947 C3948 1.355 . S
C3947 C3949 1.415 . S
C3948 C3947 1.355 . S
C3948 C3950 1.419 . S
C3949 C3944 1.425 . S
C3949 C3946 1.409 . S
C3949 C3947 1.415 . S
C3950 H3940 0.930 . S
C3950 C3948 1.419 . S
C3950 C3951 1.362 . S
C3951 H3941 0.930 . S
C3951 C3944 1.409 . S
C3951 C3950 1.362 . S
H3952 C3958 0.930 . S
H3953 C3961 0.930 . S
H3954 C3962 0.930 . S
H3955 C3963 0.930 . S
H3956 C3966 0.930 . S
H3957 C3967 0.930 . S
C3958 H3952 0.930 . S
C3958 C3959 1.355 . S
C3958 C3960 1.415 . S
C3959 C3958 1.355 . S
C3959 C3961 1.419 . S
C3960 C3958 1.415 . S
C3960 C3965 1.425 . S
C3960 C3967 1.409 1_554 S
C3961 H3953 0.930 . S
C3961 C3959 1.419 . S
C3961 C3962 1.362 . S
C3962 H3954 0.930 . S
C3962 C3961 1.362 . S
C3962 C3965 1.409 . S
C3963 H3955 0.930 . S
C3963 C3964 1.355 . S
C3963 C3965 1.415 1_556 S
C3964 C3963 1.355 . S
C3964 C3966 1.419 . S
C3965 C3960 1.425 . S
C3965 C3962 1.409 . S
C3965 C3963 1.415 1_554 S
C3966 H3956 0.930 . S
C3966 C3964 1.419 . S
C3966 C3967 1.362 . S
C3967 H3957 0.930 . S
C3967 C3960 1.409 1_556 S
C3967 C3966 1.362 . S
H3968 C3974 0.930 . S
H3969 C3977 0.930 . S
H3970 C3978 0.930 . S
H3971 C3979 0.930 . S
H3972 C3982 0.930 . S
H3973 C3983 0.930 . S
C3974 H3968 0.930 . S
C3974 C3975 1.355 . S
C3974 C3976 1.415 . S
C3975 C3974 1.355 . S
C3975 C3977 1.419 . S
C3976 C3974 1.415 . S
C3976 C3981 1.425 . S
C3976 C3983 1.409 . S
C3977 H3969 0.930 . S
C3977 C3975 1.419 . S
C3977 C3978 1.362 . S
C3978 H3970 0.930 . S
C3978 C3977 1.362 . S
C3978 C3981 1.409 . S
C3979 H3971 0.930 . S
C3979 C3980 1.355 . S
C3979 C3981 1.415 . S
C3980 C3979 1.355 . S
C3980 C3982 1.419 . S
C3981 C3976 1.425 . S
C3981 C3978 1.409 . S
C3981 C3979 1.415 . S
C3982 H3972 0.930 . S
C3982 C3980 1.419 . S
C3982 C3983 1.362 . S
C3983 H3973 0.930 . S
C3983 C3976 1.409 . S
C3983 C3982 1.362 . S
H3984 C3990 0.930 . S
H3985 C3993 0.930 . S
H3986 C3994 0.930 . S
H3987 C3995 0.930 . S
H3988 C3998 0.930 . S
H3989 C3999 0.930 . S
C3990 H3984 0.930 . S
C3990 C3991 1.355 . S
C3990 C3992 1.415 . S
C3991 C3990 1.355 . S
C3991 C3993 1.419 . S
C3992 C3990 1.415 . S
C3992 C3997 1.425 . S
C3992 C3999 1.409 . S
C3993 H3985 0.930 . S
C3993 C3991 1.419 . S
C3993 C3994 1.362 . S
C3994 H3986 0.930 . S
C3994 C3993 1.362 . S
C3994 C3997 1.409 . S
C3995 H3987 0.930 . S
C3995 C3996 1.355 . S
C3995 C3997 1.415 . S
C3996 C3995 1.355 . S
C3996 C3998 1.419 . S
C3997 C3992 1.425 . S
C3997 C3994 1.409 . S
C3997 C3995 1.415 . S
C3998 H3988 0.930 . S
C3998 C3996 1.419 . S
C3998 C3999 1.362 . S
C3999 H3989 0.930 . S
C3999 C3992 1.409 . S
C3999 C3998 1.362 . S
H4000 C4006 0.930 . S
H4001 C4009 0.930 . S
H4002 C4010 0.930 1_554 S
H4003 C4011 0.930 . S
H4004 C4014 0.930 . S
H4005 C4015 0.930 . S
C4006 H4000 0.930 . S
C4006 C4007 1.355 . S
C4006 C4008 1.446 . S
C4007 C4006 1.355 . S
C4007 C4009 1.419 . S
C4008 C4006 1.446 . S
C4008 C4013 1.412 1_556 S
C4008 C4015 1.391 1_556 S
C4009 H4001 0.930 . S
C4009 C4007 1.419 . S
C4009 C4010 1.362 . S
C4010 H4002 0.930 1_556 S
C4010 C4009 1.362 . S
C4010 C4013 1.409 1_556 S
C4011 H4003 0.930 . S
C4011 C4012 1.355 . S
C4011 C4013 1.415 . S
C4012 C4011 1.355 . S
C4012 C4014 1.419 . S
C4013 C4008 1.412 1_554 S
C4013 C4010 1.409 1_554 S
C4013 C4011 1.415 . S
C4014 H4004 0.930 . S
C4014 C4012 1.419 . S
C4014 C4015 1.362 . S
C4015 H4005 0.930 . S
C4015 C4008 1.391 1_554 S
C4015 C4014 1.362 . S
H4016 C4022 0.930 . S
H4017 C4025 0.930 . S
H4018 C4026 0.930 . S
H4019 C4027 0.930 . S
H4020 C4030 0.930 . S
H4021 C4031 0.930 . S
C4022 H4016 0.930 . S
C4022 C4023 1.355 . S
C4022 C4024 1.415 . S
C4023 C4022 1.355 . S
C4023 C4025 1.419 . S
C4024 C4022 1.415 . S
C4024 C4029 1.425 . S
C4024 C4031 1.409 . S
C4025 H4017 0.930 . S
C4025 C4023 1.419 . S
C4025 C4026 1.362 . S
C4026 H4018 0.930 . S
C4026 C4025 1.362 . S
C4026 C4029 1.409 . S
C4027 H4019 0.930 . S
C4027 C4028 1.355 . S
C4027 C4029 1.415 . S
C4028 C4027 1.355 . S
C4028 C4030 1.419 . S
C4029 C4024 1.425 . S
C4029 C4026 1.409 . S
C4029 C4027 1.415 . S
C4030 H4020 0.930 . S
C4030 C4028 1.419 . S
C4030 C4031 1.362 . S
C4031 H4021 0.930 . S
C4031 C4024 1.409 . S
C4031 C4030 1.362 . S
H4032 C4038 0.930 . S
H4033 C4041 0.930 . S
H4034 C4042 0.930 . S
H4035 C4043 0.930 . S
H4036 C4046 0.930 . S
H4037 C4047 0.930 . S
C4038 H4032 0.930 . S
C4038 C4039 1.355 . S
C4038 C4040 1.415 . S
C4039 C4038 1.355 . S
C4039 C4041 1.419 . S
C4040 C4038 1.415 . S
C4040 C4045 1.425 . S
C4040 C4047 1.409 . S
C4041 H4033 0.930 . S
C4041 C4039 1.419 . S
C4041 C4042 1.362 . S
C4042 H4034 0.930 . S
C4042 C4041 1.362 . S
C4042 C4045 1.409 . S
C4043 H4035 0.930 . S
C4043 C4044 1.355 . S
C4043 C4045 1.415 . S
C4044 C4043 1.355 . S
C4044 C4046 1.419 . S
C4045 C4040 1.425 . S
C4045 C4042 1.409 . S
C4045 C4043 1.415 . S
C4046 H4036 0.930 . S
C4046 C4044 1.419 . S
C4046 C4047 1.362 . S
C4047 H4037 0.930 . S
C4047 C4040 1.409 . S
C4047 C4046 1.362 . S
H4048 C4054 0.930 . S
H4049 C4057 0.930 . S
H4050 C4058 0.930 . S
H4051 C4059 0.930 . S
H4052 C4062 0.930 . S
H4053 C4063 0.930 . S
C4054 H4048 0.930 . S
C4054 C4055 1.355 . S
C4054 C4056 1.415 . S
C4055 C4054 1.355 . S
C4055 C4057 1.419 . S
C4056 C4054 1.415 . S
C4056 C4061 1.425 . S
C4056 C4063 1.409 . S
C4057 H4049 0.930 . S
C4057 C4055 1.419 . S
C4057 C4058 1.362 . S
C4058 H4050 0.930 . S
C4058 C4057 1.362 . S
C4058 C4061 1.409 . S
C4059 H4051 0.930 . S
C4059 C4060 1.355 . S
C4059 C4061 1.415 . S
C4060 C4059 1.355 . S
C4060 C4062 1.419 . S
C4061 C4056 1.425 . S
C4061 C4058 1.409 . S
C4061 C4059 1.415 . S
C4062 H4052 0.930 . S
C4062 C4060 1.419 . S
C4062 C4063 1.362 . S
C4063 H4053 0.930 . S
C4063 C4056 1.409 . S
C4063 C4062 1.362 . S
H4064 C4070 0.930 . S
H4065 C4073 0.930 . S
H4066 C4074 0.930 . S
H4067 C4075 0.930 . S
H4068 C4078 0.930 . S
H4069 C4079 0.930 . S
C4070 H4064 0.930 . S
C4070 C4071 1.355 . S
C4070 C4072 1.415 . S
C4071 C4070 1.355 . S
C4071 C4073 1.419 . S
C4072 C4070 1.415 . S
C4072 C4077 1.425 . S
C4072 C4079 1.409 . S
C4073 H4065 0.930 . S
C4073 C4071 1.419 . S
C4073 C4074 1.362 . S
C4074 H4066 0.930 . S
C4074 C4073 1.362 . S
C4074 C4077 1.409 . S
C4075 H4067 0.930 . S
C4075 C4076 1.355 . S
C4075 C4077 1.415 . S
C4076 C4075 1.355 . S
C4076 C4078 1.419 . S
C4077 C4072 1.425 . S
C4077 C4074 1.409 . S
C4077 C4075 1.415 . S
C4078 H4068 0.930 . S
C4078 C4076 1.419 . S
C4078 C4079 1.362 . S
C4079 H4069 0.930 . S
C4079 C4072 1.409 . S
C4079 C4078 1.362 . S
H4080 C4086 0.930 . S
H4081 C4089 0.930 . S
H4082 C4090 0.930 1_545 S
H4083 C4091 0.930 . S
H4084 C4094 0.930 . S
H4085 C4095 0.930 . S
C4086 H4080 0.930 . S
C4086 C4087 1.355 . S
C4086 C4088 1.404 1_565 S
C4087 C4086 1.355 . S
C4087 C4089 1.419 . S
C4088 C4086 1.404 1_545 S
C4088 C4093 1.431 . S
C4088 C4095 1.414 . S
C4089 H4081 0.930 . S
C4089 C4087 1.419 . S
C4089 C4090 1.362 . S
C4090 H4082 0.930 1_565 S
C4090 C4089 1.362 . S
C4090 C4093 1.409 1_565 S
C4091 H4083 0.930 . S
C4091 C4092 1.355 . S
C4091 C4093 1.415 . S
C4092 C4091 1.355 . S
C4092 C4094 1.419 . S
C4093 C4088 1.431 . S
C4093 C4090 1.409 1_545 S
C4093 C4091 1.415 . S
C4094 H4084 0.930 . S
C4094 C4092 1.419 . S
C4094 C4095 1.362 . S
C4095 H4085 0.930 . S
C4095 C4088 1.414 . S
C4095 C4094 1.362 . S
H4096 C4102 0.930 . S
H4097 C4105 0.930 . S
H4098 C4106 0.930 . S
H4099 C4107 0.930 . S
H4100 C4110 0.930 . S
H4101 C4111 0.930 . S
C4102 H4096 0.930 . S
C4102 C4103 1.355 . S
C4102 C4104 1.415 . S
C4103 C4102 1.355 . S
C4103 C4105 1.419 . S
C4104 C4102 1.415 . S
C4104 C4109 1.425 . S
C4104 C4111 1.409 . S
C4105 H4097 0.930 . S
C4105 C4103 1.419 . S
C4105 C4106 1.362 . S
C4106 H4098 0.930 . S
C4106 C4105 1.362 . S
C4106 C4109 1.409 . S
C4107 H4099 0.930 . S
C4107 C4108 1.355 . S
C4107 C4109 1.415 . S
C4108 C4107 1.355 . S
C4108 C4110 1.419 . S
C4109 C4104 1.425 . S
C4109 C4106 1.409 . S
C4109 C4107 1.415 . S
C4110 H4100 0.930 . S
C4110 C4108 1.419 . S
C4110 C4111 1.362 . S
C4111 H4101 0.930 . S
C4111 C4104 1.409 . S
C4111 C4110 1.362 . S
H4112 C4118 0.930 . S
H4113 C4121 0.930 . S
H4114 C4122 0.930 . S
H4115 C4123 0.930 . S
H4116 C4126 0.930 . S
H4117 C4127 0.930 . S
C4118 H4112 0.930 . S
C4118 C4119 1.355 . S
C4118 C4120 1.415 . S
C4119 C4118 1.355 . S
C4119 C4121 1.419 . S
C4120 C4118 1.415 . S
C4120 C4125 1.425 . S
C4120 C4127 1.409 . S
C4121 H4113 0.930 . S
C4121 C4119 1.419 . S
C4121 C4122 1.362 . S
C4122 H4114 0.930 . S
C4122 C4121 1.362 . S
C4122 C4125 1.409 . S
C4123 H4115 0.930 . S
C4123 C4124 1.355 . S
C4123 C4125 1.415 . S
C4124 C4123 1.355 . S
C4124 C4126 1.419 . S
C4125 C4120 1.425 . S
C4125 C4122 1.409 . S
C4125 C4123 1.415 . S
C4126 H4116 0.930 . S
C4126 C4124 1.419 . S
C4126 C4127 1.362 . S
C4127 H4117 0.930 . S
C4127 C4120 1.409 . S
C4127 C4126 1.362 . S
H4128 C4134 0.930 . S
H4129 C4137 0.930 . S
H4130 C4138 0.930 . S
H4131 C4139 0.930 . S
H4132 C4142 0.930 . S
H4133 C4143 0.930 . S
C4134 H4128 0.930 . S
C4134 C4135 1.355 . S
C4134 C4136 1.415 1_455 S
C4135 C4134 1.355 . S
C4135 C4137 1.419 . S
C4136 C4134 1.415 1_655 S
C4136 C4141 1.425 . S
C4136 C4143 1.409 . S
C4137 H4129 0.930 . S
C4137 C4135 1.419 . S
C4137 C4138 1.362 1_455 S
C4138 H4130 0.930 . S
C4138 C4137 1.362 1_655 S
C4138 C4141 1.409 . S
C4139 H4131 0.930 . S
C4139 C4140 1.355 . S
C4139 C4141 1.415 . S
C4140 C4139 1.355 . S
C4140 C4142 1.419 . S
C4141 C4136 1.425 . S
C4141 C4138 1.409 . S
C4141 C4139 1.415 . S
C4142 H4132 0.930 . S
C4142 C4140 1.419 . S
C4142 C4143 1.362 . S
C4143 H4133 0.930 . S
C4143 C4136 1.409 . S
C4143 C4142 1.362 . S
H4144 C4150 0.930 . S
H4145 C4153 0.930 . S
H4146 C4154 0.930 . S
H4147 C4155 0.930 . S
H4148 C4158 0.930 . S
H4149 C4159 0.930 . S
C4150 H4144 0.930 . S
C4150 C4151 1.355 . S
C4150 C4152 1.415 . S
C4151 C4150 1.355 . S
C4151 C4153 1.419 . S
C4152 C4150 1.415 . S
C4152 C4157 1.425 . S
C4152 C4159 1.409 . S
C4153 H4145 0.930 . S
C4153 C4151 1.419 . S
C4153 C4154 1.362 . S
C4154 H4146 0.930 . S
C4154 C4153 1.362 . S
C4154 C4157 1.409 . S
C4155 H4147 0.930 . S
C4155 C4156 1.355 . S
C4155 C4157 1.415 . S
C4156 C4155 1.355 . S
C4156 C4158 1.419 . S
C4157 C4152 1.425 . S
C4157 C4154 1.409 . S
C4157 C4155 1.415 . S
C4158 H4148 0.930 . S
C4158 C4156 1.419 . S
C4158 C4159 1.362 . S
C4159 H4149 0.930 . S
C4159 C4152 1.409 . S
C4159 C4158 1.362 . S
H4160 C4166 0.930 . S
H4161 C4169 0.930 . S
H4162 C4170 0.930 . S
H4163 C4171 0.930 . S
H4164 C4174 0.930 . S
H4165 C4175 0.930 . S
C4166 H4160 0.930 . S
C4166 C4167 1.355 . S
C4166 C4168 1.415 . S
C4167 C4166 1.355 . S
C4167 C4169 1.419 . S
C4168 C4166 1.415 . S
C4168 C4173 1.425 . S
C4168 C4175 1.409 . S
C4169 H4161 0.930 . S
C4169 C4167 1.419 . S
C4169 C4170 1.362 . S
C4170 H4162 0.930 . S
C4170 C4169 1.362 . S
C4170 C4173 1.409 . S
C4171 H4163 0.930 . S
C4171 C4172 1.355 . S
C4171 C4173 1.415 . S
C4172 C4171 1.355 . S
C4172 C4174 1.419 . S
C4173 C4168 1.425 . S
C4173 C4170 1.409 . S
C4173 C4171 1.415 . S
C4174 H4164 0.930 . S
C4174 C4172 1.419 . S
C4174 C4175 1.362 . S
C4175 H4165 0.930 . S
C4175 C4168 1.409 . S
C4175 C4174 1.362 . S
H4176 C4182 0.930 . S
H4177 C4185 0.930 . S
H4178 C4186 0.930 . S
H4179 C4187 0.930 . S
H4180 C4190 0.930 . S
H4181 C4191 0.930 . S
C4182 H4176 0.930 . S
C4182 C4183 1.355 . S
C4182 C4184 1.415 . S
C4183 C4182 1.355 . S
C4183 C4185 1.419 . S
C4184 C4182 1.415 . S
C4184 C4189 1.425 . S
C4184 C4191 1.409 . S
C4185 H4177 0.930 . S
C4185 C4183 1.419 . S
C4185 C4186 1.362 . S
C4186 H4178 0.930 . S
C4186 C4185 1.362 . S
C4186 C4189 1.409 . S
C4187 H4179 0.930 . S
C4187 C4188 1.355 . S
C4187 C4189 1.415 . S
C4188 C4187 1.355 . S
C4188 C4190 1.419 . S
C4189 C4184 1.425 . S
C4189 C4186 1.409 . S
C4189 C4187 1.415 . S
C4190 H4180 0.930 . S
C4190 C4188 1.419 . S
C4190 C4191 1.362 . S
C4191 H4181 0.930 . S
C4191 C4184 1.409 . S
C4191 C4190 1.362 . S
H4192 C4198 0.930 . S
H4193 C4201 0.930 . S
H4194 C4202 0.930 . S
H4195 C4203 0.930 . S
H4196 C4206 0.930 . S
H4197 C4207 0.930 . S
C4198 H4192 0.930 . S
C4198 C4199 1.355 . S
C4198 C4200 1.415 . S
C4199 C4198 1.355 . S
C4199 C4201 1.419 . S
C4200 C4198 1.415 . S
C4200 C4205 1.425 . S
C4200 C4207 1.409 . S
C4201 H4193 0.930 . S
C4201 C4199 1.419 . S
C4201 C4202 1.362 . S
C4202 H4194 0.930 . S
C4202 C4201 1.362 . S
C4202 C4205 1.409 . S
C4203 H4195 0.930 . S
C4203 C4204 1.355 . S
C4203 C4205 1.415 . S
C4204 C4203 1.355 . S
C4204 C4206 1.419 . S
C4205 C4200 1.425 . S
C4205 C4202 1.409 . S
C4205 C4203 1.415 . S
C4206 H4196 0.930 . S
C4206 C4204 1.419 . S
C4206 C4207 1.362 . S
C4207 H4197 0.930 . S
C4207 C4200 1.409 . S
C4207 C4206 1.362 . S
H4208 C4214 0.930 . S
H4209 C4217 0.930 . S
H4210 C4218 0.930 . S
H4211 C4219 0.930 . S
H4212 C4222 0.930 . S
H4213 C4223 0.930 . S
C4214 H4208 0.930 . S
C4214 C4215 1.355 . S
C4214 C4216 1.415 . S
C4215 C4214 1.355 . S
C4215 C4217 1.419 . S
C4216 C4214 1.415 . S
C4216 C4221 1.425 . S
C4216 C4223 1.409 . S
C4217 H4209 0.930 . S
C4217 C4215 1.419 . S
C4217 C4218 1.362 . S
C4218 H4210 0.930 . S
C4218 C4217 1.362 . S
C4218 C4221 1.409 . S
C4219 H4211 0.930 . S
C4219 C4220 1.355 . S
C4219 C4221 1.415 . S
C4220 C4219 1.355 . S
C4220 C4222 1.419 . S
C4221 C4216 1.425 . S
C4221 C4218 1.409 . S
C4221 C4219 1.415 . S
C4222 H4212 0.930 . S
C4222 C4220 1.419 . S
C4222 C4223 1.362 . S
C4223 H4213 0.930 . S
C4223 C4216 1.409 . S
C4223 C4222 1.362 . S
H4224 C4230 0.930 . S
H4225 C4233 0.930 . S
H4226 C4234 0.930 . S
H4227 C4235 0.930 . S
H4228 C4238 0.930 . S
H4229 C4239 0.930 . S
C4230 H4224 0.930 . S
C4230 C4231 1.355 . S
C4230 C4232 1.415 . S
C4231 C4230 1.355 . S
C4231 C4233 1.419 . S
C4232 C4230 1.415 . S
C4232 C4237 1.425 . S
C4232 C4239 1.409 . S
C4233 H4225 0.930 . S
C4233 C4231 1.419 . S
C4233 C4234 1.362 . S
C4234 H4226 0.930 . S
C4234 C4233 1.362 . S
C4234 C4237 1.409 . S
C4235 H4227 0.930 . S
C4235 C4236 1.355 . S
C4235 C4237 1.415 . S
C4236 C4235 1.355 . S
C4236 C4238 1.419 . S
C4237 C4232 1.425 . S
C4237 C4234 1.409 . S
C4237 C4235 1.415 . S
C4238 H4228 0.930 . S
C4238 C4236 1.419 . S
C4238 C4239 1.362 . S
C4239 H4229 0.930 . S
C4239 C4232 1.409 . S
C4239 C4238 1.362 . S
H4240 C4246 0.930 . S
H4241 C4249 0.930 . S
H4242 C4250 0.930 . S
H4243 C4251 0.930 . S
H4244 C4254 0.930 . S
H4245 C4255 0.930 . S
C4246 H4240 0.930 . S
C4246 C4247 1.355 . S
C4246 C4248 1.415 . S
C4247 C4246 1.355 . S
C4247 C4249 1.419 . S
C4248 C4246 1.415 . S
C4248 C4253 1.425 . S
C4248 C4255 1.409 . S
C4249 H4241 0.930 . S
C4249 C4247 1.419 . S
C4249 C4250 1.362 . S
C4250 H4242 0.930 . S
C4250 C4249 1.362 . S
C4250 C4253 1.409 . S
C4251 H4243 0.930 . S
C4251 C4252 1.355 1_554 S
C4251 C4253 1.415 . S
C4252 C4251 1.355 1_556 S
C4252 C4254 1.419 . S
C4253 C4248 1.425 . S
C4253 C4250 1.409 . S
C4253 C4251 1.415 . S
C4254 H4244 0.930 . S
C4254 C4252 1.419 . S
C4254 C4255 1.362 1_556 S
C4255 H4245 0.930 . S
C4255 C4248 1.409 . S
C4255 C4254 1.362 1_554 S
H4256 C4262 0.930 . S
H4257 C4265 0.930 . S
H4258 C4266 0.930 . S
H4259 C4267 0.930 . S
H4260 C4270 0.930 . S
H4261 C4271 0.930 . S
C4262 H4256 0.930 . S
C4262 C4263 1.355 . S
C4262 C4264 1.415 . S
C4263 C4262 1.355 . S
C4263 C4265 1.419 . S
C4264 C4262 1.415 . S
C4264 C4269 1.425 . S
C4264 C4271 1.409 . S
C4265 H4257 0.930 . S
C4265 C4263 1.419 . S
C4265 C4266 1.362 . S
C4266 H4258 0.930 . S
C4266 C4265 1.362 . S
C4266 C4269 1.409 . S
C4267 H4259 0.930 . S
C4267 C4268 1.355 . S
C4267 C4269 1.415 . S
C4268 C4267 1.355 . S
C4268 C4270 1.419 . S
C4269 C4264 1.425 . S
C4269 C4266 1.409 . S
C4269 C4267 1.415 . S
C4270 H4260 0.930 . S
C4270 C4268 1.419 . S
C4270 C4271 1.362 . S
C4271 H4261 0.930 . S
C4271 C4264 1.409 . S
C4271 C4270 1.362 . S
H4272 C4278 0.930 . S
H4273 C4281 0.930 . S
H4274 C4282 0.930 . S
H4275 C4283 0.930 . S
H4276 C4286 0.930 . S
H4277 C4287 0.930 . S
C4278 H4272 0.930 . S
C4278 C4279 1.355 . S
C4278 C4280 1.415 . S
C4279 C4278 1.355 . S
C4279 C4281 1.419 . S
C4280 C4278 1.415 . S
C4280 C4285 1.425 . S
C4280 C4287 1.409 . S
C4281 H4273 0.930 . S
C4281 C4279 1.419 . S
C4281 C4282 1.362 . S
C4282 H4274 0.930 . S
C4282 C4281 1.362 . S
C4282 C4285 1.409 . S
C4283 H4275 0.930 . S
C4283 C4284 1.355 . S
C4283 C4285 1.415 . S
C4284 C4283 1.355 . S
C4284 C4286 1.419 . S
C4285 C4280 1.425 . S
C4285 C4282 1.409 . S
C4285 C4283 1.415 . S
C4286 H4276 0.930 . S
C4286 C4284 1.419 . S
C4286 C4287 1.362 . S
C4287 H4277 0.930 . S
C4287 C4280 1.409 . S
C4287 C4286 1.362 . S
H4288 C4294 0.930 . S
H4289 C4297 0.930 . S
H4290 C4298 0.930 . S
H4291 C4299 0.941 . S
H4292 C4302 0.924 1_556 S
H4293 C4303 0.930 . S
C4294 H4288 0.930 . S
C4294 C4295 1.355 . S
C4294 C4296 1.415 . S
C4295 C4294 1.355 . S
C4295 C4297 1.419 . S
C4296 C4294 1.415 . S
C4296 C4301 1.425 . S
C4296 C4303 1.409 . S
C4297 H4289 0.930 . S
C4297 C4295 1.419 . S
C4297 C4298 1.362 . S
C4298 H4290 0.930 . S
C4298 C4297 1.362 . S
C4298 C4301 1.409 . S
C4299 H4291 0.941 . S
C4299 C4300 1.365 . S
C4299 C4301 1.393 1_556 S
C4300 C4299 1.365 . S
C4300 C4302 1.413 1_556 S
C4301 C4296 1.425 . S
C4301 C4298 1.409 . S
C4301 C4299 1.393 1_554 S
C4302 H4292 0.924 1_554 S
C4302 C4300 1.413 1_554 S
C4302 C4303 1.374 . S
C4303 H4293 0.930 . S
C4303 C4296 1.409 . S
C4303 C4302 1.374 . S
H4304 C4310 0.930 . S
H4305 C4313 0.930 . S
H4306 C4314 0.930 . S
H4307 C4315 0.930 . S
H4308 C4318 0.930 . S
H4309 C4319 0.930 . S
C4310 H4304 0.930 . S
C4310 C4311 1.355 . S
C4310 C4312 1.415 . S
C4311 C4310 1.355 . S
C4311 C4313 1.419 . S
C4312 C4310 1.415 . S
C4312 C4317 1.425 . S
C4312 C4319 1.409 . S
C4313 H4305 0.930 . S
C4313 C4311 1.419 . S
C4313 C4314 1.362 . S
C4314 H4306 0.930 . S
C4314 C4313 1.362 . S
C4314 C4317 1.409 . S
C4315 H4307 0.930 . S
C4315 C4316 1.355 . S
C4315 C4317 1.415 . S
C4316 C4315 1.355 . S
C4316 C4318 1.419 . S
C4317 C4312 1.425 . S
C4317 C4314 1.409 . S
C4317 C4315 1.415 . S
C4318 H4308 0.930 . S
C4318 C4316 1.419 . S
C4318 C4319 1.362 . S
C4319 H4309 0.930 . S
C4319 C4312 1.409 . S
C4319 C4318 1.362 . S
H4320 C4326 0.930 . S
H4321 C4329 0.930 . S
H4322 C4330 0.930 . S
H4323 C4331 0.930 . S
H4324 C4334 0.930 . S
H4325 C4335 0.930 . S
C4326 H4320 0.930 . S
C4326 C4327 1.355 . S
C4326 C4328 1.415 . S
C4327 C4326 1.355 . S
C4327 C4329 1.419 . S
C4328 C4326 1.415 . S
C4328 C4333 1.425 . S
C4328 C4335 1.409 . S
C4329 H4321 0.930 . S
C4329 C4327 1.419 . S
C4329 C4330 1.362 . S
C4330 H4322 0.930 . S
C4330 C4329 1.362 . S
C4330 C4333 1.409 . S
C4331 H4323 0.930 . S
C4331 C4332 1.355 . S
C4331 C4333 1.415 . S
C4332 C4331 1.355 . S
C4332 C4334 1.419 . S
C4333 C4328 1.425 . S
C4333 C4330 1.409 . S
C4333 C4331 1.415 . S
C4334 H4324 0.930 . S
C4334 C4332 1.419 . S
C4334 C4335 1.362 . S
C4335 H4325 0.930 . S
C4335 C4328 1.409 . S
C4335 C4334 1.362 . S
H4336 C4342 0.930 . S
H4337 C4345 0.930 . S
H4338 C4346 0.930 . S
H4339 C4347 0.930 . S
H4340 C4350 0.930 . S
H4341 C4351 0.930 . S
C4342 H4336 0.930 . S
C4342 C4343 1.355 . S
C4342 C4344 1.415 . S
C4343 C4342 1.355 . S
C4343 C4345 1.419 . S
C4344 C4342 1.415 . S
C4344 C4349 1.425 . S
C4344 C4351 1.409 . S
C4345 H4337 0.930 . S
C4345 C4343 1.419 . S
C4345 C4346 1.362 . S
C4346 H4338 0.930 . S
C4346 C4345 1.362 . S
C4346 C4349 1.409 . S
C4347 H4339 0.930 . S
C4347 C4348 1.355 . S
C4347 C4349 1.415 . S
C4348 C4347 1.355 . S
C4348 C4350 1.419 . S
C4349 C4344 1.425 . S
C4349 C4346 1.409 . S
C4349 C4347 1.415 . S
C4350 H4340 0.930 . S
C4350 C4348 1.419 . S
C4350 C4351 1.362 . S
C4351 H4341 0.930 . S
C4351 C4344 1.409 . S
C4351 C4350 1.362 . S
H4352 C4358 0.930 . S
H4353 C4361 0.930 . S
H4354 C4362 0.930 . S
H4355 C4363 0.930 . S
H4356 C4366 0.930 . S
H4357 C4367 0.930 . S
C4358 H4352 0.930 . S
C4358 C4359 1.355 . S
C4358 C4360 1.415 . S
C4359 C4358 1.355 . S
C4359 C4361 1.419 . S
C4360 C4358 1.415 . S
C4360 C4365 1.425 . S
C4360 C4367 1.409 . S
C4361 H4353 0.930 . S
C4361 C4359 1.419 . S
C4361 C4362 1.362 . S
C4362 H4354 0.930 . S
C4362 C4361 1.362 . S
C4362 C4365 1.409 . S
C4363 H4355 0.930 . S
C4363 C4364 1.355 . S
C4363 C4365 1.415 . S
C4364 C4363 1.355 . S
C4364 C4366 1.419 . S
C4365 C4360 1.425 . S
C4365 C4362 1.409 . S
C4365 C4363 1.415 . S
C4366 H4356 0.930 . S
C4366 C4364 1.419 . S
C4366 C4367 1.362 . S
C4367 H4357 0.930 . S
C4367 C4360 1.409 . S
C4367 C4366 1.362 . S
H4368 C4374 0.930 . S
H4369 C4377 0.930 . S
H4370 C4378 0.930 . S
H4371 C4379 0.937 . S
H4372 C4382 0.930 . S
H4373 C4383 0.930 . S
C4374 H4368 0.930 . S
C4374 C4375 1.355 . S
C4374 C4376 1.415 . S
C4375 C4374 1.355 . S
C4375 C4377 1.419 . S
C4376 C4374 1.415 . S
C4376 C4381 1.425 . S
C4376 C4383 1.409 . S
C4377 H4369 0.930 . S
C4377 C4375 1.419 . S
C4377 C4378 1.362 . S
C4378 H4370 0.930 . S
C4378 C4377 1.362 . S
C4378 C4381 1.409 . S
C4379 H4371 0.937 . S
C4379 C4380 1.370 . S
C4379 C4381 1.393 1_545 S
C4380 C4379 1.370 . S
C4380 C4382 1.419 . S
C4381 C4376 1.425 . S
C4381 C4378 1.409 . S
C4381 C4379 1.393 1_565 S
C4382 H4372 0.930 . S
C4382 C4380 1.419 . S
C4382 C4383 1.362 1_545 S
C4383 H4373 0.930 . S
C4383 C4376 1.409 . S
C4383 C4382 1.362 1_565 S
H4384 C4390 0.930 . S
H4385 C4393 0.930 . S
H4386 C4394 0.930 . S
H4387 C4395 0.930 . S
H4388 C4398 0.930 . S
H4389 C4399 0.930 . S
C4390 H4384 0.930 . S
C4390 C4391 1.355 . S
C4390 C4392 1.415 . S
C4391 C4390 1.355 . S
C4391 C4393 1.419 . S
C4392 C4390 1.415 . S
C4392 C4397 1.425 . S
C4392 C4399 1.409 . S
C4393 H4385 0.930 . S
C4393 C4391 1.419 . S
C4393 C4394 1.362 . S
C4394 H4386 0.930 . S
C4394 C4393 1.362 . S
C4394 C4397 1.409 . S
C4395 H4387 0.930 . S
C4395 C4396 1.355 . S
C4395 C4397 1.415 . S
C4396 C4395 1.355 . S
C4396 C4398 1.419 . S
C4397 C4392 1.425 . S
C4397 C4394 1.409 . S
C4397 C4395 1.415 . S
C4398 H4388 0.930 . S
C4398 C4396 1.419 . S
C4398 C4399 1.362 . S
C4399 H4389 0.930 . S
C4399 C4392 1.409 . S
C4399 C4398 1.362 . S
H4400 C4406 0.930 . S
H4401 C4409 0.930 . S
H4402 C4410 0.930 . S
H4403 C4411 0.930 . S
H4404 C4414 0.930 . S
H4405 C4415 0.930 . S
C4406 H4400 0.930 . S
C4406 C4407 1.355 . S
C4406 C4408 1.415 . S
C4407 C4406 1.355 . S
C4407 C4409 1.419 . S
C4408 C4406 1.415 . S
C4408 C4413 1.425 . S
C4408 C4415 1.409 . S
C4409 H4401 0.930 . S
C4409 C4407 1.419 . S
C4409 C4410 1.362 . S
C4410 H4402 0.930 . S
C4410 C4409 1.362 . S
C4410 C4413 1.409 . S
C4411 H4403 0.930 . S
C4411 C4412 1.355 . S
C4411 C4413 1.415 . S
C4412 C4411 1.355 . S
C4412 C4414 1.419 . S
C4413 C4408 1.425 . S
C4413 C4410 1.409 . S
C4413 C4411 1.415 . S
C4414 H4404 0.930 . S
C4414 C4412 1.419 . S
C4414 C4415 1.362 . S
C4415 H4405 0.930 . S
C4415 C4408 1.409 . S
C4415 C4414 1.362 . S
H4416 C4422 0.930 . S
H4417 C4425 0.930 . S
H4418 C4426 0.930 . S
H4419 C4427 0.930 . S
H4420 C4430 0.930 . S
H4421 C4431 0.930 . S
C4422 H4416 0.930 . S
C4422 C4423 1.355 . S
C4422 C4424 1.415 . S
C4423 C4422 1.355 . S
C4423 C4425 1.419 . S
C4424 C4422 1.415 . S
C4424 C4429 1.425 . S
C4424 C4431 1.409 . S
C4425 H4417 0.930 . S
C4425 C4423 1.419 . S
C4425 C4426 1.362 . S
C4426 H4418 0.930 . S
C4426 C4425 1.362 . S
C4426 C4429 1.409 . S
C4427 H4419 0.930 . S
C4427 C4428 1.355 . S
C4427 C4429 1.415 . S
C4428 C4427 1.355 . S
C4428 C4430 1.419 . S
C4429 C4424 1.425 . S
C4429 C4426 1.409 . S
C4429 C4427 1.415 . S
C4430 H4420 0.930 . S
C4430 C4428 1.419 . S
C4430 C4431 1.362 . S
C4431 H4421 0.930 . S
C4431 C4424 1.409 . S
C4431 C4430 1.362 . S
H4432 C4438 0.930 . S
H4433 C4441 0.930 . S
H4434 C4442 0.930 . S
H4435 C4443 0.930 . S
H4436 C4446 0.930 . S
H4437 C4447 0.930 . S
C4438 H4432 0.930 . S
C4438 C4439 1.355 1_565 S
C4438 C4440 1.415 . S
C4439 C4438 1.355 1_545 S
C4439 C4441 1.419 . S
C4440 C4438 1.415 . S
C4440 C4445 1.425 . S
C4440 C4447 1.409 . S
C4441 H4433 0.930 . S
C4441 C4439 1.419 . S
C4441 C4442 1.362 1_545 S
C4442 H4434 0.930 . S
C4442 C4441 1.362 1_565 S
C4442 C4445 1.409 . S
C4443 H4435 0.930 . S
C4443 C4444 1.355 . S
C4443 C4445 1.415 . S
C4444 C4443 1.355 . S
C4444 C4446 1.419 . S
C4445 C4440 1.425 . S
C4445 C4442 1.409 . S
C4445 C4443 1.415 . S
C4446 H4436 0.930 . S
C4446 C4444 1.419 . S
C4446 C4447 1.362 . S
C4447 H4437 0.930 . S
C4447 C4440 1.409 . S
C4447 C4446 1.362 . S
H4448 C4454 0.930 . S
H4449 C4457 0.930 . S
H4450 C4458 0.930 . S
H4451 C4459 0.930 . S
H4452 C4462 0.930 . S
H4453 C4463 0.930 . S
C4454 H4448 0.930 . S
C4454 C4455 1.355 . S
C4454 C4456 1.415 . S
C4455 C4454 1.355 . S
C4455 C4457 1.419 . S
C4456 C4454 1.415 . S
C4456 C4461 1.425 . S
C4456 C4463 1.409 . S
C4457 H4449 0.930 . S
C4457 C4455 1.419 . S
C4457 C4458 1.362 . S
C4458 H4450 0.930 . S
C4458 C4457 1.362 . S
C4458 C4461 1.409 . S
C4459 H4451 0.930 . S
C4459 C4460 1.355 . S
C4459 C4461 1.415 . S
C4460 C4459 1.355 . S
C4460 C4462 1.419 . S
C4461 C4456 1.425 . S
C4461 C4458 1.409 . S
C4461 C4459 1.415 . S
C4462 H4452 0.930 . S
C4462 C4460 1.419 . S
C4462 C4463 1.362 . S
C4463 H4453 0.930 . S
C4463 C4456 1.409 . S
C4463 C4462 1.362 . S
H4464 C4470 0.930 . S
H4465 C4473 0.930 . S
H4466 C4474 0.930 . S
H4467 C4475 0.930 . S
H4468 C4478 0.930 . S
H4469 C4479 0.930 . S
C4470 H4464 0.930 . S
C4470 C4471 1.355 . S
C4470 C4472 1.415 . S
C4471 C4470 1.355 . S
C4471 C4473 1.419 . S
C4472 C4470 1.415 . S
C4472 C4477 1.425 . S
C4472 C4479 1.409 . S
C4473 H4465 0.930 . S
C4473 C4471 1.419 . S
C4473 C4474 1.362 . S
C4474 H4466 0.930 . S
C4474 C4473 1.362 . S
C4474 C4477 1.409 . S
C4475 H4467 0.930 . S
C4475 C4476 1.355 . S
C4475 C4477 1.415 . S
C4476 C4475 1.355 . S
C4476 C4478 1.419 . S
C4477 C4472 1.425 . S
C4477 C4474 1.409 . S
C4477 C4475 1.415 . S
C4478 H4468 0.930 . S
C4478 C4476 1.419 . S
C4478 C4479 1.362 . S
C4479 H4469 0.930 . S
C4479 C4472 1.409 . S
C4479 C4478 1.362 . S
H4480 C4486 0.930 . S
H4481 C4489 0.930 . S
H4482 C4490 0.930 . S
H4483 C4491 0.930 . S
H4484 C4494 0.930 . S
H4485 C4495 0.930 . S
C4486 H4480 0.930 . S
C4486 C4487 1.355 . S
C4486 C4488 1.415 . S
C4487 C4486 1.355 . S
C4487 C4489 1.419 . S
C4488 C4486 1.415 . S
C4488 C4493 1.425 . S
C4488 C4495 1.409 . S
C4489 H4481 0.930 . S
C4489 C4487 1.419 . S
C4489 C4490 1.362 . S
C4490 H4482 0.930 . S
C4490 C4489 1.362 . S
C4490 C4493 1.409 . S
C4491 H4483 0.930 . S
C4491 C4492 1.355 . S
C4491 C4493 1.415 . S
C4492 C4491 1.355 . S
C4492 C4494 1.419 . S
C4493 C4488 1.425 . S
C4493 C4490 1.409 . S
C4493 C4491 1.415 . S
C4494 H4484 0.930 . S
C4494 C4492 1.419 . S
C4494 C4495 1.362 . S
C4495 H4485 0.930 . S
C4495 C4488 1.409 . S
C4495 C4494 1.362 . S
H4496 C4502 0.930 . S
H4497 C4505 0.930 . S
H4498 C4506 0.930 . S
H4499 C4507 0.930 . S
H4500 C4510 0.930 . S
H4501 C4511 0.930 . S
C4502 H4496 0.930 . S
C4502 C4503 1.355 . S
C4502 C4504 1.415 . S
C4503 C4502 1.355 . S
C4503 C4505 1.419 . S
C4504 C4502 1.415 . S
C4504 C4509 1.425 . S
C4504 C4511 1.409 . S
C4505 H4497 0.930 . S
C4505 C4503 1.419 . S
C4505 C4506 1.362 . S
C4506 H4498 0.930 . S
C4506 C4505 1.362 . S
C4506 C4509 1.409 . S
C4507 H4499 0.930 . S
C4507 C4508 1.355 . S
C4507 C4509 1.415 . S
C4508 C4507 1.355 . S
C4508 C4510 1.419 . S
C4509 C4504 1.425 . S
C4509 C4506 1.409 . S
C4509 C4507 1.415 . S
C4510 H4500 0.930 . S
C4510 C4508 1.419 . S
C4510 C4511 1.362 . S
C4511 H4501 0.930 . S
C4511 C4504 1.409 . S
C4511 C4510 1.362 . S
H4512 C4518 0.930 . S
H4513 C4521 0.930 . S
H4514 C4522 0.930 . S
H4515 C4523 0.930 . S
H4516 C4526 0.930 . S
H4517 C4527 0.930 . S
C4518 H4512 0.930 . S
C4518 C4519 1.355 . S
C4518 C4520 1.415 . S
C4519 C4518 1.355 . S
C4519 C4521 1.419 . S
C4520 C4518 1.415 . S
C4520 C4525 1.425 . S
C4520 C4527 1.409 . S
C4521 H4513 0.930 . S
C4521 C4519 1.419 . S
C4521 C4522 1.362 . S
C4522 H4514 0.930 . S
C4522 C4521 1.362 . S
C4522 C4525 1.409 . S
C4523 H4515 0.930 . S
C4523 C4524 1.355 . S
C4523 C4525 1.415 . S
C4524 C4523 1.355 . S
C4524 C4526 1.419 . S
C4525 C4520 1.425 . S
C4525 C4522 1.409 . S
C4525 C4523 1.415 . S
C4526 H4516 0.930 . S
C4526 C4524 1.419 . S
C4526 C4527 1.362 . S
C4527 H4517 0.930 . S
C4527 C4520 1.409 . S
C4527 C4526 1.362 . S
H4528 C4534 0.930 . S
H4529 C4537 0.930 . S
H4530 C4538 0.930 . S
H4531 C4539 0.930 . S
H4532 C4542 0.930 . S
H4533 C4543 0.930 . S
C4534 H4528 0.930 . S
C4534 C4535 1.355 . S
C4534 C4536 1.415 1_565 S
C4535 C4534 1.355 . S
C4535 C4537 1.419 . S
C4536 C4534 1.415 1_545 S
C4536 C4541 1.425 . S
C4536 C4543 1.409 . S
C4537 H4529 0.930 . S
C4537 C4535 1.419 . S
C4537 C4538 1.362 . S
C4538 H4530 0.930 . S
C4538 C4537 1.362 . S
C4538 C4541 1.409 1_565 S
C4539 H4531 0.930 . S
C4539 C4540 1.355 . S
C4539 C4541 1.415 . S
C4540 C4539 1.355 . S
C4540 C4542 1.419 . S
C4541 C4536 1.425 . S
C4541 C4538 1.409 1_545 S
C4541 C4539 1.415 . S
C4542 H4532 0.930 . S
C4542 C4540 1.419 . S
C4542 C4543 1.362 . S
C4543 H4533 0.930 . S
C4543 C4536 1.409 . S
C4543 C4542 1.362 . S
H4544 C4550 0.930 . S
H4545 C4553 0.930 . S
H4546 C4554 0.930 . S
H4547 C4555 0.930 . S
H4548 C4558 0.930 . S
H4549 C4559 0.930 . S
C4550 H4544 0.930 . S
C4550 C4551 1.355 . S
C4550 C4552 1.415 . S
C4551 C4550 1.355 . S
C4551 C4553 1.419 . S
C4552 C4550 1.415 . S
C4552 C4557 1.425 . S
C4552 C4559 1.409 . S
C4553 H4545 0.930 . S
C4553 C4551 1.419 . S
C4553 C4554 1.362 . S
C4554 H4546 0.930 . S
C4554 C4553 1.362 . S
C4554 C4557 1.409 . S
C4555 H4547 0.930 . S
C4555 C4556 1.355 . S
C4555 C4557 1.415 . S
C4556 C4555 1.355 . S
C4556 C4558 1.419 . S
C4557 C4552 1.425 . S
C4557 C4554 1.409 . S
C4557 C4555 1.415 . S
C4558 H4548 0.930 . S
C4558 C4556 1.419 . S
C4558 C4559 1.362 . S
C4559 H4549 0.930 . S
C4559 C4552 1.409 . S
C4559 C4558 1.362 . S
H4560 C4566 0.930 . S
H4561 C4569 0.930 . S
H4562 C4570 0.930 . S
H4563 C4571 0.930 . S
H4564 C4574 0.930 . S
H4565 C4575 0.930 . S
C4566 H4560 0.930 . S
C4566 C4567 1.355 . S
C4566 C4568 1.415 . S
C4567 C4566 1.355 . S
C4567 C4569 1.419 . S
C4568 C4566 1.415 . S
C4568 C4573 1.425 . S
C4568 C4575 1.409 . S
C4569 H4561 0.930 . S
C4569 C4567 1.419 . S
C4569 C4570 1.362 . S
C4570 H4562 0.930 . S
C4570 C4569 1.362 . S
C4570 C4573 1.409 . S
C4571 H4563 0.930 . S
C4571 C4572 1.355 . S
C4571 C4573 1.415 . S
C4572 C4571 1.355 . S
C4572 C4574 1.419 . S
C4573 C4568 1.425 . S
C4573 C4570 1.409 . S
C4573 C4571 1.415 . S
C4574 H4564 0.930 . S
C4574 C4572 1.419 . S
C4574 C4575 1.362 . S
C4575 H4565 0.930 . S
C4575 C4568 1.409 . S
C4575 C4574 1.362 . S
H4576 C4582 0.930 . S
H4577 C4585 0.930 . S
H4578 C4586 0.930 . S
H4579 C4587 0.930 . S
H4580 C4590 0.930 . S
H4581 C4591 0.930 . S
C4582 H4576 0.930 . S
C4582 C4583 1.355 . S
C4582 C4584 1.415 . S
C4583 C4582 1.355 . S
C4583 C4585 1.419 . S
C4584 C4582 1.415 . S
C4584 C4589 1.425 . S
C4584 C4591 1.409 . S
C4585 H4577 0.930 . S
C4585 C4583 1.419 . S
C4585 C4586 1.362 . S
C4586 H4578 0.930 . S
C4586 C4585 1.362 . S
C4586 C4589 1.409 . S
C4587 H4579 0.930 . S
C4587 C4588 1.355 . S
C4587 C4589 1.415 . S
C4588 C4587 1.355 . S
C4588 C4590 1.419 . S
C4589 C4584 1.425 . S
C4589 C4586 1.409 . S
C4589 C4587 1.415 . S
C4590 H4580 0.930 . S
C4590 C4588 1.419 . S
C4590 C4591 1.362 . S
C4591 H4581 0.930 . S
C4591 C4584 1.409 . S
C4591 C4590 1.362 . S
H4592 C4598 0.930 . S
H4593 C4601 0.930 . S
H4594 C4602 0.930 . S
H4595 C4603 0.930 . S
H4596 C4606 0.930 . S
H4597 C4607 0.930 . S
C4598 H4592 0.930 . S
C4598 C4599 1.355 . S
C4598 C4600 1.415 . S
C4599 C4598 1.355 . S
C4599 C4601 1.419 . S
C4600 C4598 1.415 . S
C4600 C4605 1.425 . S
C4600 C4607 1.409 . S
C4601 H4593 0.930 . S
C4601 C4599 1.419 . S
C4601 C4602 1.362 . S
C4602 H4594 0.930 . S
C4602 C4601 1.362 . S
C4602 C4605 1.409 . S
C4603 H4595 0.930 . S
C4603 C4604 1.355 . S
C4603 C4605 1.415 . S
C4604 C4603 1.355 . S
C4604 C4606 1.419 . S
C4605 C4600 1.425 . S
C4605 C4602 1.409 . S
C4605 C4603 1.415 . S
C4606 H4596 0.930 . S
C4606 C4604 1.419 . S
C4606 C4607 1.362 . S
C4607 H4597 0.930 . S
C4607 C4600 1.409 . S
C4607 C4606 1.362 . S
H4608 C4614 0.930 . S
H4609 C4617 0.930 . S
H4610 C4618 0.930 . S
H4611 C4619 0.930 . S
H4612 C4622 0.930 . S
H4613 C4623 0.930 . S
C4614 H4608 0.930 . S
C4614 C4615 1.355 . S
C4614 C4616 1.415 . S
C4615 C4614 1.355 . S
C4615 C4617 1.419 . S
C4616 C4614 1.415 . S
C4616 C4621 1.425 . S
C4616 C4623 1.409 . S
C4617 H4609 0.930 . S
C4617 C4615 1.419 . S
C4617 C4618 1.362 . S
C4618 H4610 0.930 . S
C4618 C4617 1.362 . S
C4618 C4621 1.409 . S
C4619 H4611 0.930 . S
C4619 C4620 1.355 . S
C4619 C4621 1.415 . S
C4620 C4619 1.355 . S
C4620 C4622 1.419 . S
C4621 C4616 1.425 . S
C4621 C4618 1.409 . S
C4621 C4619 1.415 . S
C4622 H4612 0.930 . S
C4622 C4620 1.419 . S
C4622 C4623 1.362 . S
C4623 H4613 0.930 . S
C4623 C4616 1.409 . S
C4623 C4622 1.362 . S
H4624 C4630 0.930 . S
H4625 C4633 0.930 . S
H4626 C4634 0.930 . S
H4627 C4635 0.930 . S
H4628 C4638 0.930 . S
H4629 C4639 0.930 . S
C4630 H4624 0.930 . S
C4630 C4631 1.355 . S
C4630 C4632 1.415 . S
C4631 C4630 1.355 . S
C4631 C4633 1.419 . S
C4632 C4630 1.415 . S
C4632 C4637 1.425 . S
C4632 C4639 1.409 . S
C4633 H4625 0.930 . S
C4633 C4631 1.419 . S
C4633 C4634 1.362 . S
C4634 H4626 0.930 . S
C4634 C4633 1.362 . S
C4634 C4637 1.409 . S
C4635 H4627 0.930 . S
C4635 C4636 1.355 . S
C4635 C4637 1.415 . S
C4636 C4635 1.355 . S
C4636 C4638 1.419 . S
C4637 C4632 1.425 . S
C4637 C4634 1.409 . S
C4637 C4635 1.415 . S
C4638 H4628 0.930 . S
C4638 C4636 1.419 . S
C4638 C4639 1.362 . S
C4639 H4629 0.930 . S
C4639 C4632 1.409 . S
C4639 C4638 1.362 . S
H4640 C4646 0.930 . S
H4641 C4649 0.930 . S
H4642 C4650 0.930 . S
H4643 C4651 0.930 . S
H4644 C4654 0.930 . S
H4645 C4655 0.930 . S
C4646 H4640 0.930 . S
C4646 C4647 1.355 . S
C4646 C4648 1.415 . S
C4647 C4646 1.355 . S
C4647 C4649 1.419 . S
C4648 C4646 1.415 . S
C4648 C4653 1.425 . S
C4648 C4655 1.409 . S
C4649 H4641 0.930 . S
C4649 C4647 1.419 . S
C4649 C4650 1.362 . S
C4650 H4642 0.930 . S
C4650 C4649 1.362 . S
C4650 C4653 1.409 . S
C4651 H4643 0.930 . S
C4651 C4652 1.355 . S
C4651 C4653 1.415 . S
C4652 C4651 1.355 . S
C4652 C4654 1.419 . S
C4653 C4648 1.425 . S
C4653 C4650 1.409 . S
C4653 C4651 1.415 . S
C4654 H4644 0.930 . S
C4654 C4652 1.419 . S
C4654 C4655 1.362 . S
C4655 H4645 0.930 . S
C4655 C4648 1.409 . S
C4655 C4654 1.362 . S
C1591 C521 1.645 . S
C1596 C25 1.739 . S
C1607 C617 1.876 . S
C1612 C58 1.910 . S
C1623 C90 1.960 . S
C1628 C455 2.249 . S
C1639 C490 1.559 . S
C1644 C123 1.625 . S
C1655 C815 2.050 . S
C1660 C156 2.136 . S
C1671 C1143 1.495 . S
C1676 C189 1.349 . S
C1687 C223 1.857 1_565 S
C1692 C1475 1.879 . S
C1703 C1181 1.872 . S
C1708 C256 1.771 . S
C1719 C286 2.768 . S
C1724 C92 2.870 . S
C1735 C322 1.828 . S
C1740 C125 1.929 . S
C1751 C355 1.965 . S
C1756 C23 2.051 . S
C1767 C390 2.773 . S
C1772 C56 2.613 . S
C1783 C221 2.798 . S
C1788 C291 2.907 . S
C1799 C254 1.995 . S
C1804 C321 1.850 . S
C1815 C354 2.089 . S
C1820 C158 2.522 . S
C1831 C191 2.905 . S
C1836 C385 2.852 . S
C1847 C421 1.482 . S
C1852 C978 1.462 . S
C1863 C292 1.629 . S
C1868 C453 1.574 . S
C1879 C320 2.990 . S
C1884 C484 3.109 . S
C1895 C353 2.275 . S
C1900 C519 2.093 . S
C1911 C1374 1.430 . S
C1916 C553 1.314 . S
C1927 C586 2.040 . S
C1932 C1082 2.073 . S
C1943 C886 2.030 . S
C1948 C489 2.249 . S
C1959 C950 2.486 . S
C1964 C618 2.148 . S
C1975 C880 2.846 . S
C1980 C257 2.908 . S
C1991 C984 2.865 . S
C1996 C650 2.848 . S
C2007 C849 1.845 . S
C2012 C683 2.001 . S
C2023 C716 2.053 . S
C2028 C1081 1.972 . S
C2039 C1512 2.741 . S
C2044 C749 2.650 . S
C2055 C1309 2.811 . S
C2060 C26 2.845 . S
C2071 C785 1.876 . S
C2076 C685 1.780 . S
C2087 C483 1.480 . S
C2092 C255 1.388 . S
C2103 C419 1.886 . S
C2108 C652 1.866 . S
C2119 C751 1.898 . S
C2124 C782 1.888 . S
C2135 C818 2.257 . S
C2140 C24 1.913 . S
C2151 C422 1.656 . S
C2156 C718 1.709 . S
C2167 C619 1.359 . S
C2172 C384 1.402 . S
C2183 C783 2.088 . S
C2188 C851 2.496 . S
C2199 C356 2.089 . S
C2204 C817 2.025 . S
C2215 C912 1.438 . S
C2220 C1411 1.502 . S
C2231 C947 2.979 . S
C2236 C1144 3.117 . S
C2247 C585 1.594 . S
C2252 C985 1.612 . S
C2263 C124 1.937 . S
C2268 C1178 1.852 . S
C2279 C1115 2.253 . S
C2284 C1014 1.947 . S
C2295 C57 1.690 . S
C2300 C1150 1.465 . S
C2311 C651 2.136 . S
C2316 C584 2.049 . S
C2327 C1409 1.916 . S
C2332 C1048 1.831 . S
C2343 C620 1.876 . S
C2348 C190 1.779 . S
C2359 C913 2.814 . S
C2364 C1016 2.841 . S
C2375 C949 1.850 . S
C2380 C59 1.932 . S
C2391 C885 2.775 . S
C2396 C122 2.608 . S
C2407 C1046 2.799 . S
C2412 C918 2.907 . S
C2423 C188 2.014 . S
C2428 C948 1.840 . S
C2439 C653 2.507 . S
C2444 C1080 2.034 . S
C2455 C1308 1.432 . S
C2460 C520 1.504 . S
C2471 C919 1.528 . S
C2476 C1113 1.665 . S
C2487 C1079 2.257 . S
C2492 C420 2.102 . S
C2503 C1506 1.373 . S
C2508 C784 1.401 . S
C2519 C1149 2.206 . S
C2524 C391 2.074 . S
C2535 C1179 2.126 . S
C2540 C323 2.493 . S
C2551 C1314 2.855 . S
C2556 C155 2.856 . S
C2567 C1278 1.935 . S
C2572 C1211 1.956 . S
C2583 C1380 2.725 . S
C2588 C1244 2.672 . S
C2599 C979 2.797 . S
C2604 C719 2.857 . S
C2615 C1213 1.808 . S
C2620 C554 1.866 . S
C2631 C157 1.878 1_565 S
C2636 C518 1.869 . S
C2647 C551 1.896 . S
C2652 C1246 1.898 . S
C2663 C717 1.910 . S
C2668 C587 2.233 . S
C2679 C879 1.412 . S
C2684 C1180 1.342 . S
C2695 C552 2.117 . S
C2700 C1280 2.495 . S
C2711 C1477 1.439 . S
C2716 C285 1.502 . S
C2727 C816 1.593 . S
C2732 C1315 1.612 . S
C2743 C1478 1.710 . S
C2748 C91 1.702 . S
C2759 C1447 1.574 . S
C2764 C750 1.607 . S
C2775 C222 2.093 . S
C2780 C452 2.110 . S
C2791 C1572 1.417 . S
C2796 C1212 1.457 . S
C2807 C752 1.931 . S
C2812 C850 1.812 . S
C2823 C89 1.999 . S
C2828 C1345 2.033 . S
C2839 C224 2.493 . S
C2844 C1344 2.089 . S
C2855 C1214 2.921 . S
C2860 C1375 2.827 . S
C2871 C848 2.978 . S
C2876 C1441 3.117 . S
C2887 C1476 2.067 . S
C2892 C1343 2.294 . S
C2903 C1544 2.095 . S
C2908 C1114 2.015 . S
C2919 C1513 2.094 . S
C2924 C1446 2.194 . S
C2935 C686 2.906 . S
C2940 C1507 2.849 . S
C2951 C1013 2.011 . S
C2956 C1543 1.998 . S
C2967 C684 1.445 . S
C2972 C1440 1.419 . S
C2983 C1015 1.689 . S
C2988 C1412 1.681 . S
C2999 C454 2.005 . S
C3004 C1346 2.099 . S
C3015 C1573 3.123 . S
C3020 C1277 2.970 . S
C3031 C1579 1.467 . S
C3036 C1245 1.690 . S
C3047 C1047 2.075 . S
C3052 C1112 2.082 . S
C3063 C1247 1.929 . S
C3068 C1279 1.831 . S
C3079 C1049 2.499 . S
C3084 C1542 2.123 . S
C3095 C1410 2.105 . S
C3100 C1541 2.262 . S
C3111 C1381 2.108 . S
C3116 C1578 2.205 . S
C3127 C1183 0.394 . S
C3132 C28 0.407 . S
C3143 C813 0.422 . S
C3148 C61 0.605 . S
C3159 C1145 0.783 . S
C3164 C87 0.687 . S
C3175 C1473 0.572 . S
C3180 C120 0.379 . S
C3191 C153 0.219 . S
C3196 C615 0.403 . S
C3207 C186 0.292 . S
C3212 C457 0.288 . S
C3223 C226 1.295 1_565 S
C3228 C488 1.290 . S
C3239 C259 0.337 . S
C3244 C523 0.343 . S
C3255 C287 1.503 . S
C3260 C1508 1.534 . S
C3271 C983 1.056 . S
C3276 C325 1.113 . S
C3287 C1275 0.551 . S
C3292 C358 0.554 . S
C3303 C1539 1.017 . S
C3308 C389 1.043 . S
C3319 C290 1.179 . S
C3324 C1282 1.180 . S
C3335 C318 0.367 . S
C3340 C1546 0.456 . S
C3351 C351 1.023 . S
C3356 C1511 0.919 . S
C3367 C980 1.542 . S
C3372 C386 1.547 . S
C3383 C193 0.221 . S
C3388 C424 0.243 . S
C3399 C450 0.410 . S
C3404 C1249 0.447 . S
C3415 C485 0.723 . S
C3420 C1011 0.666 . S
C3431 C516 0.394 . S
C3436 C747 0.334 . S
C3447 C556 0.329 . S
C3452 C1018 0.330 . S
C3463 C589 0.529 . S
C3468 C681 0.382 . S
C3479 C1311 1.608 . S
C3484 C258 1.582 . S
C3495 C324 2.685 . S
C3500 C649 2.606 . S
C3511 C1083 2.439 . S
C3516 C682 2.516 . S
C3527 C1510 2.079 . S
C3532 C159 2.079 . S
C3543 C982 1.844 . S
C3548 C126 1.760 . S
C3559 C847 2.569 . S
C3564 C715 2.647 . S
C3575 C748 1.933 . S
C3580 C352 1.998 . S
C3591 C27 1.786 . S
C3596 C882 1.876 . S
C3607 C1479 1.663 . S
C3612 C786 1.681 . S
C3623 C814 1.816 . S
C3628 C616 1.802 . S
C3639 C486 1.571 . S
C3644 C1116 1.546 . S
C3655 C1576 1.385 . S
C3660 C418 1.385 . S
C3671 C781 1.754 . S
C3676 C1111 1.834 . S
C3687 C819 1.512 . S
C3692 C1575 1.563 . S
C3703 C487 1.381 . S
C3708 C1474 1.372 . S
C3719 C423 1.667 . S
C3724 C621 1.678 . S
C3735 C720 1.852 . S
C3740 C387 1.908 . S
C3751 C852 2.713 . S
C3756 C1045 2.654 . S
C3767 C1210 2.515 . S
C3772 C357 2.435 . S
C3783 C225 2.094 . S
C3788 C883 2.080 . S
C3799 C1215 1.557 . S
C3804 C915 1.594 . S
C3815 C88 2.639 . S
C3820 C946 2.571 . S
C3831 C622 0.329 . S
C3836 C721 0.330 . S
C3847 C582 0.488 . S
C3852 C127 0.658 . S
C3863 C1407 0.593 . S
C3868 C54 0.381 . S
C3879 C648 0.332 . S
C3884 C1176 0.238 . S
C3895 C1117 0.270 . S
C3900 C252 0.227 . S
C3911 C1148 1.297 . S
C3916 C1051 1.273 . S
C3927 C914 1.474 . S
C3932 C1376 1.455 . S
C3943 C952 1.171 . S
C3948 C1313 1.172 . S
C3959 C1084 0.465 . S
C3964 C846 0.371 . S
C3975 C884 1.028 . S
C3980 C1341 1.000 . S
C3991 C917 1.084 . S
C3996 C853 1.112 . S
C4007 C945 0.379 . S
C4012 C1348 0.478 . S
C4023 C1379 1.018 . S
C4028 C1077 0.999 . S
C4039 C1310 1.454 . S
C4044 C881 1.478 . S
C4055 C754 0.469 . S
C4060 C1110 0.340 . S
C4071 C1242 0.378 . S
C4076 C417 0.650 . S
C4087 C787 0.484 . S
C4092 C94 0.488 . S
C4103 C820 0.343 . S
C4108 C1209 0.174 . S
C4119 C981 1.607 . S
C4124 C192 1.582 . S
C4135 C154 2.650 . S
C4140 C951 2.677 . S
C4151 C654 2.070 . S
C4156 C1378 2.083 . S
C4167 C60 1.767 . S
C4172 C1312 1.849 . S
C4183 C22 2.628 . S
C4188 C1276 2.580 . S
C4199 C1243 1.868 . S
C4204 C1078 1.985 . S
C4215 C555 1.610 . S
C4220 C1413 1.623 . S
C4231 C583 1.812 . S
C4236 C1177 1.806 . S
C4247 C456 1.485 . S
C4252 C1146 1.535 . S
C4263 C517 1.377 . S
C4268 C1444 1.381 . S
C4279 C451 1.805 . S
C4284 C550 1.810 . S
C4295 C588 1.553 . S
C4300 C1443 1.579 . S
C4311 C1147 1.386 . S
C4316 C1408 1.385 . S
C4327 C1182 1.641 . S
C4332 C522 1.659 . S
C4343 C220 2.606 . S
C4348 C1281 2.684 . S
C4359 C1050 2.116 . S
C4364 C388 2.100 . S
C4375 C687 1.567 . S
C4380 C288 1.603 . S
C4391 C1012 2.649 . S
C4396 C319 2.600 . S
C4407 C1574 0.820 . S
C4412 C21 0.724 . S
C4423 C549 0.487 . S
C4428 C219 0.201 . S
C4439 C160 1.190 . S
C4444 C1445 1.230 . S
C4455 C1480 0.168 . S
C4460 C688 0.192 . S
C4471 C1216 0.374 . S
C4476 C1414 0.360 . S
C4487 C714 0.751 . S
C4492 C1442 0.786 . S
C4503 C253 2.515 . S
C4508 C1545 2.454 . S
C4519 C916 1.844 . S
C4524 C753 1.761 . S
C4535 C121 1.867 . S
C4540 C1342 1.987 . S
C4551 C93 1.831 . S
C4556 C1509 1.893 . S
C4567 C1017 1.848 . S
C4572 C1377 1.905 . S
C4583 C187 2.469 . S
C4588 C1347 2.443 . S
C4599 C780 0.390 . S
C4604 C1044 0.226 . S
C4615 C1577 1.273 . S
C4620 C655 1.296 . S
C4631 C1248 1.808 . S
C4636 C289 1.817 . S
C4647 C1540 2.008 . S
C4652 C55 1.870 . S
