# Generated by pormake.
# Topology tzs, (4)-cn, num edge types: 1
# Building blocks:
#     Node 0, Type 0, BuildingBlock: KUFVIS_clean_sbu_0, # of connection points: 4
#     Node 1, Type 0, BuildingBlock: KUFVIS_clean_sbu_0, # of connection points: 4
#     Node 2, Type 0, BuildingBlock: KUFVIS_clean_sbu_0, # of connection points: 4
#     Node 3, Type 0, BuildingBlock: KUFVIS_clean_sbu_0, # of connection points: 4
#     Node 4, Type 0, BuildingBlock: KUFVIS_clean_sbu_0, # of connection points: 4
#     Node 5, Type 0, BuildingBlock: KUFVIS_clean_sbu_0, # of connection points: 4
#     Node 6, Type 0, BuildingBlock: KUFVIS_clean_sbu_0, # of connection points: 4
#     Node 7, Type 0, BuildingBlock: KUFVIS_clean_sbu_0, # of connection points: 4
#     Node 8, Type 0, BuildingBlock: KUFVIS_clean_sbu_0, # of connection points: 4
#     Node 9, Type 0, BuildingBlock: KUFVIS_clean_sbu_0, # of connection points: 4
#     Node 10, Type 0, BuildingBlock: KUFVIS_clean_sbu_0, # of connection points: 4
#     Node 11, Type 0, BuildingBlock: KUFVIS_clean_sbu_0, # of connection points: 4
#     Node 12, Type 0, BuildingBlock: KUFVIS_clean_sbu_0, # of connection points: 4
#     Node 13, Type 0, BuildingBlock: KUFVIS_clean_sbu_0, # of connection points: 4
#     Node 14, Type 0, BuildingBlock: KUFVIS_clean_sbu_0, # of connection points: 4
#     Node 15, Type 0, BuildingBlock: KUFVIS_clean_sbu_0, # of connection points: 4
#     Edge 16, Type (0, 0), BuildingBlock: XUDNAN_clean_linker_2, # of connection points: 2
#     Edge 17, Type (0, 0), BuildingBlock: XUDNAN_clean_linker_2, # of connection points: 2
#     Edge 18, Type (0, 0), BuildingBlock: XUDNAN_clean_linker_2, # of connection points: 2
#     Edge 19, Type (0, 0), BuildingBlock: XUDNAN_clean_linker_2, # of connection points: 2
#     Edge 20, Type (0, 0), BuildingBlock: XUDNAN_clean_linker_2, # of connection points: 2
#     Edge 21, Type (0, 0), BuildingBlock: XUDNAN_clean_linker_2, # of connection points: 2
#     Edge 22, Type (0, 0), BuildingBlock: XUDNAN_clean_linker_2, # of connection points: 2
#     Edge 23, Type (0, 0), BuildingBlock: XUDNAN_clean_linker_2, # of connection points: 2
#     Edge 24, Type (0, 0), BuildingBlock: XUDNAN_clean_linker_2, # of connection points: 2
#     Edge 25, Type (0, 0), BuildingBlock: XUDNAN_clean_linker_2, # of connection points: 2
#     Edge 26, Type (0, 0), BuildingBlock: XUDNAN_clean_linker_2, # of connection points: 2
#     Edge 27, Type (0, 0), BuildingBlock: XUDNAN_clean_linker_2, # of connection points: 2
#     Edge 28, Type (0, 0), BuildingBlock: XUDNAN_clean_linker_2, # of connection points: 2
#     Edge 29, Type (0, 0), BuildingBlock: XUDNAN_clean_linker_2, # of connection points: 2
#     Edge 30, Type (0, 0), BuildingBlock: XUDNAN_clean_linker_2, # of connection points: 2
#     Edge 31, Type (0, 0), BuildingBlock: XUDNAN_clean_linker_2, # of connection points: 2
#     Edge 32, Type (0, 0), BuildingBlock: XUDNAN_clean_linker_2, # of connection points: 2
#     Edge 33, Type (0, 0), BuildingBlock: XUDNAN_clean_linker_2, # of connection points: 2
#     Edge 34, Type (0, 0), BuildingBlock: XUDNAN_clean_linker_2, # of connection points: 2
#     Edge 35, Type (0, 0), BuildingBlock: XUDNAN_clean_linker_2, # of connection points: 2
#     Edge 36, Type (0, 0), BuildingBlock: XUDNAN_clean_linker_2, # of connection points: 2
#     Edge 37, Type (0, 0), BuildingBlock: XUDNAN_clean_linker_2, # of connection points: 2
#     Edge 38, Type (0, 0), BuildingBlock: XUDNAN_clean_linker_2, # of connection points: 2
#     Edge 39, Type (0, 0), BuildingBlock: XUDNAN_clean_linker_2, # of connection points: 2
#     Edge 40, Type (0, 0), BuildingBlock: XUDNAN_clean_linker_2, # of connection points: 2
#     Edge 41, Type (0, 0), BuildingBlock: XUDNAN_clean_linker_2, # of connection points: 2
#     Edge 42, Type (0, 0), BuildingBlock: XUDNAN_clean_linker_2, # of connection points: 2
#     Edge 43, Type (0, 0), BuildingBlock: XUDNAN_clean_linker_2, # of connection points: 2
#     Edge 44, Type (0, 0), BuildingBlock: XUDNAN_clean_linker_2, # of connection points: 2
#     Edge 45, Type (0, 0), BuildingBlock: XUDNAN_clean_linker_2, # of connection points: 2
#     Edge 46, Type (0, 0), BuildingBlock: XUDNAN_clean_linker_2, # of connection points: 2
#     Edge 47, Type (0, 0), BuildingBlock: XUDNAN_clean_linker_2, # of connection points: 2
# Relax obj value: 0.099
# Max RMSD: 0.096
# Mean RMSD: 0.096
data_MOF--net-tzs--node1-KUFVIS_clean_sbu_0--edge1-XUDNAN_clean_linker_2
_symmetry_space_group_name_H-M    P1
_symmetry_Int_Tables_number       1
_symmetry_cell_setting            triclinic
loop_
_symmetry_equiv_pos_as_xyz
'x, y, z'
_cell_length_a     47.713505
_cell_length_b     47.710714
_cell_length_c     39.173364
_cell_angle_alpha  90.033913
_cell_angle_beta   89.999582
_cell_angle_gamma 89.981369
loop_
_atom_site_label
_atom_site_type_symbol
_atom_site_fract_x
_atom_site_fract_y
_atom_site_fract_z
_atom_type_partial_charge
Mn0 Mn 0.14235 0.37455 0.19135 0.0
Mn1 Mn 0.20362 0.40333 0.16506 0.0
C2 C 0.15716 0.41759 0.21202 0.0
C3 C 0.09398 0.36626 0.19472 0.0
C4 C 0.20112 0.35322 0.21147 0.0
O5 O 0.14779 0.35647 0.14424 0.0
O6 O 0.19019 0.37538 0.1312 0.0
C7 C 0.18473 0.43331 0.10291 0.0
N8 N 0.1971 0.43373 0.13426 0.0
C9 C 0.20797 0.4828 0.12877 0.0
C10 C 0.19536 0.48286 0.09643 0.0
C11 C 0.18365 0.45801 0.08349 0.0
C12 C 0.20861 0.45749 0.14686 0.0
H13 H 0.17581 0.41429 0.09275 0.0
C14 C 0.16906 0.35966 0.1245 0.0
O15 O 0.11239 0.34825 0.20485 0.0
O16 O 0.10348 0.38885 0.1801 0.0
N17 N 0.21792 0.43123 0.19559 0.0
C18 C 0.22662 0.42828 0.22852 0.0
C19 C 0.23729 0.45165 0.24606 0.0
C20 C 0.23906 0.4777 0.22949 0.0
C21 C 0.22991 0.48022 0.19564 0.0
C22 C 0.21946 0.45621 0.17946 0.0
H23 H 0.22522 0.4083 0.24135 0.0
O24 O 0.1421 0.40125 0.23125 0.0
O25 O 0.16516 0.40722 0.18308 0.0
O26 O 0.17461 0.35147 0.21081 0.0
O27 O 0.21446 0.37272 0.19649 0.0
C28 C 0.23006 0.50577 0.17763 0.0
C29 C 0.21917 0.50705 0.14418 0.0
H30 H 0.19428 0.50192 0.08148 0.0
H31 H 0.17382 0.4579 0.05859 0.0
H32 H 0.24407 0.44963 0.27231 0.0
H33 H 0.24713 0.49572 0.24312 0.0
H34 H 0.23798 0.52469 0.18953 0.0
H35 H 0.2189 0.52693 0.13085 0.0
Mn36 Mn 0.64367 0.1437 0.22342 0.0
Mn37 Mn 0.61051 0.19638 0.18123 0.0
C38 C 0.60598 0.16693 0.24834 0.0
C39 C 0.65132 0.09667 0.23897 0.0
C40 C 0.66656 0.20382 0.2163 0.0
O41 O 0.65677 0.13783 0.17394 0.0
O42 O 0.6324 0.17293 0.14943 0.0
C43 C 0.5715 0.15953 0.14322 0.0
N44 N 0.57587 0.18185 0.16424 0.0
C45 C 0.52663 0.19255 0.16542 0.0
C46 C 0.52164 0.16994 0.14335 0.0
C47 C 0.54415 0.15319 0.13249 0.0
C48 C 0.55425 0.19742 0.1759 0.0
H49 H 0.58873 0.14663 0.13477 0.0
C50 C 0.64904 0.152 0.14783 0.0
O51 O 0.67077 0.11554 0.24076 0.0
O52 O 0.62736 0.10472 0.22654 0.0
N53 N 0.58784 0.22157 0.20743 0.0
C54 C 0.59646 0.24408 0.22616 0.0
C55 C 0.57665 0.26357 0.23802 0.0
C56 C 0.54823 0.26026 0.22962 0.0
C57 C 0.53993 0.23759 0.20921 0.0
C58 C 0.56064 0.21882 0.19818 0.0
H59 H 0.6183 0.24715 0.23206 0.0
O60 O 0.62391 0.15351 0.2671 0.0
O61 O 0.61038 0.16625 0.21568 0.0
O62 O 0.66818 0.17858 0.22668 0.0
O63 O 0.64584 0.21329 0.19904 0.0
C64 C 0.51201 0.23324 0.1988 0.0
C65 C 0.50531 0.21053 0.17726 0.0
H66 H 0.5006 0.16518 0.13473 0.0
H67 H 0.54045 0.13556 0.11569 0.0
H68 H 0.5833 0.28122 0.25336 0.0
H69 H 0.53301 0.27536 0.23875 0.0
H70 H 0.49554 0.24731 0.20709 0.0
H71 H 0.48374 0.20729 0.1696 0.0
Mn72 Mn 0.87269 0.64707 0.19549 0.0
Mn73 Mn 0.81167 0.61654 0.17142 0.0
C74 C 0.8595 0.60396 0.21709 0.0
C75 C 0.92093 0.65611 0.19624 0.0
C76 C 0.81387 0.66678 0.21768 0.0
O77 O 0.86544 0.66502 0.14876 0.0
O78 O 0.82346 0.64471 0.13716 0.0
C79 C 0.83036 0.58687 0.10894 0.0
N80 N 0.8185 0.58622 0.14057 0.0
C81 C 0.80901 0.53683 0.1356 0.0
C82 C 0.82107 0.537 0.10295 0.0
C83 C 0.83184 0.56211 0.08962 0.0
C84 C 0.80794 0.56218 0.15358 0.0
H85 H 0.83858 0.60611 0.0985 0.0
C86 C 0.84381 0.6612 0.1298 0.0
O87 O 0.90269 0.67391 0.20746 0.0
O88 O 0.91122 0.6334 0.18214 0.0
N89 N 0.79877 0.58838 0.20245 0.0
C90 C 0.79045 0.59125 0.23554 0.0
C91 C 0.78069 0.56768 0.25341 0.0
C92 C 0.7794 0.54152 0.237 0.0
C93 C 0.7881 0.53909 0.20297 0.0
C94 C 0.79764 0.5633 0.18645 0.0
H95 H 0.79145 0.61133 0.24822 0.0
O96 O 0.87482 0.62071 0.23547 0.0
O97 O 0.85052 0.61386 0.18833 0.0
O98 O 0.84034 0.6692 0.21641 0.0
O99 O 0.80078 0.64699 0.2029 0.0
C100 C 0.78836 0.51347 0.18508 0.0
C101 C 0.79875 0.51234 0.15139 0.0
H102 H 0.82245 0.51791 0.08806 0.0
H103 H 0.84127 0.56239 0.06449 0.0
H104 H 0.77422 0.56963 0.27979 0.0
H105 H 0.77206 0.52335 0.25085 0.0
H106 H 0.78115 0.49439 0.19725 0.0
H107 H 0.79935 0.49242 0.13814 0.0
Mn108 Mn 0.37825 0.8801 0.20241 0.0
Mn109 Mn 0.40429 0.81843 0.17347 0.0
C110 C 0.41986 0.86223 0.22376 0.0
C111 C 0.37717 0.92939 0.20315 0.0
C112 C 0.35282 0.82262 0.21889 0.0
O113 O 0.35891 0.87553 0.15602 0.0
O114 O 0.38008 0.83556 0.13793 0.0
C115 C 0.44046 0.83812 0.11686 0.0
N116 N 0.43735 0.82376 0.14665 0.0
C117 C 0.48579 0.80962 0.14597 0.0
C118 C 0.48934 0.8238 0.11493 0.0
C119 C 0.46661 0.83821 0.1004 0.0
C120 C 0.45913 0.8099 0.16094 0.0
H121 H 0.42324 0.84969 0.10598 0.0
C122 C 0.36364 0.85656 0.13343 0.0
O123 O 0.35659 0.9147 0.21539 0.0
O124 O 0.39694 0.91551 0.188 0.0
N125 N 0.42859 0.80075 0.20587 0.0
C126 C 0.42252 0.79115 0.23778 0.0
C127 C 0.44364 0.77822 0.25717 0.0
C128 C 0.4707 0.77523 0.24351 0.0
C129 C 0.47648 0.78541 0.21072 0.0
C130 C 0.45457 0.79799 0.19252 0.0
H131 H 0.40179 0.79353 0.24844 0.0
O132 O 0.40473 0.8789 0.24235 0.0
O133 O 0.4093 0.85523 0.19455 0.0
O134 O 0.35321 0.84919 0.22271 0.0
O135 O 0.37076 0.80944 0.20088 0.0
C136 C 0.50331 0.78425 0.19577 0.0
C137 C 0.50794 0.79626 0.16336 0.0
H138 H 0.50958 0.82426 0.1024 0.0
H139 H 0.46929 0.84956 0.07672 0.0
H140 H 0.43911 0.77065 0.28261 0.0
H141 H 0.48698 0.76541 0.25856 0.0
H142 H 0.52067 0.77472 0.20929 0.0
H143 H 0.52881 0.7958 0.15248 0.0
Mn144 Mn 0.15952 0.65329 0.30156 0.0
Mn145 Mn 0.21855 0.62309 0.33172 0.0
C146 C 0.17934 0.61537 0.2735 0.0
C147 C 0.11122 0.65941 0.29283 0.0
C148 C 0.21817 0.67953 0.29683 0.0
O149 O 0.15911 0.66504 0.35158 0.0
O150 O 0.1993 0.64415 0.36898 0.0
C151 C 0.19601 0.58268 0.38209 0.0
N152 N 0.21149 0.58806 0.35364 0.0
C153 C 0.23133 0.5417 0.35447 0.0
C154 C 0.21608 0.53587 0.38425 0.0
C155 C 0.198 0.55631 0.3978 0.0
C156 C 0.22816 0.5682 0.33972 0.0
H157 H 0.18245 0.59847 0.39285 0.0
C158 C 0.17721 0.65885 0.37456 0.0
O159 O 0.12908 0.67957 0.28918 0.0
O160 O 0.12107 0.63566 0.3039 0.0
N161 N 0.2384 0.60157 0.29838 0.0
C162 C 0.25005 0.61008 0.26839 0.0
C163 C 0.26608 0.59102 0.24923 0.0
C164 C 0.2705 0.5637 0.26154 0.0
C165 C 0.25842 0.55555 0.29263 0.0
C166 C 0.24191 0.57516 0.30998 0.0
H167 H 0.2471 0.63123 0.25923 0.0
O168 O 0.16513 0.63423 0.25695 0.0
O169 O 0.18315 0.62013 0.30585 0.0
O170 O 0.19186 0.68019 0.29245 0.0
O171 O 0.23059 0.65871 0.31027 0.0
C172 C 0.26223 0.52882 0.30722 0.0
C173 C 0.24899 0.52203 0.33836 0.0
H174 H 0.21766 0.51559 0.39651 0.0
H175 H 0.18589 0.55185 0.42051 0.0
H176 H 0.27533 0.59748 0.22527 0.0
H177 H 0.28319 0.54918 0.24694 0.0
H178 H 0.27523 0.51331 0.29467 0.0
H179 H 0.25186 0.50133 0.34916 0.0
Mn180 Mn 0.37313 0.16941 0.31059 0.0
Mn181 Mn 0.39332 0.22896 0.35083 0.0
C182 C 0.40709 0.19835 0.28554 0.0
C183 C 0.37799 0.12168 0.29655 0.0
C184 C 0.33795 0.2236 0.31385 0.0
O185 O 0.36258 0.16124 0.36023 0.0
O186 O 0.37613 0.20233 0.38337 0.0
C187 C 0.43826 0.20305 0.39251 0.0
N188 N 0.42961 0.2233 0.37039 0.0
C189 C 0.4752 0.24483 0.37059 0.0
C190 C 0.48452 0.22436 0.39363 0.0
C191 C 0.466 0.20329 0.40449 0.0
C192 C 0.44739 0.24337 0.35936 0.0
H193 H 0.42415 0.1868 0.40088 0.0
C194 C 0.36577 0.17773 0.38567 0.0
O195 O 0.35414 0.13451 0.29361 0.0
O196 O 0.39849 0.13609 0.30938 0.0
N197 N 0.41087 0.25732 0.32382 0.0
C198 C 0.39916 0.27441 0.29987 0.0
C199 C 0.41488 0.29672 0.28643 0.0
C200 C 0.44243 0.3013 0.29781 0.0
C201 C 0.45402 0.28352 0.32257 0.0
C202 C 0.43718 0.26193 0.33548 0.0
H203 H 0.37812 0.27092 0.29088 0.0
O204 O 0.39091 0.1825 0.26716 0.0
O205 O 0.4012 0.19846 0.31796 0.0
O206 O 0.34102 0.19792 0.30549 0.0
O207 O 0.35626 0.23728 0.33075 0.0
C208 C 0.48186 0.28588 0.33424 0.0
C209 C 0.49252 0.2664 0.35802 0.0
H210 H 0.5059 0.2245 0.40294 0.0
H211 H 0.47307 0.18731 0.42209 0.0
H212 H 0.40582 0.31028 0.26724 0.0
H213 H 0.4546 0.3183 0.28705 0.0
H214 H 0.49543 0.30224 0.32456 0.0
H215 H 0.51411 0.26809 0.36629 0.0
Mn216 Mn 0.85995 0.36893 0.31078 0.0
Mn217 Mn 0.80045 0.39991 0.33845 0.0
C218 C 0.84144 0.40712 0.28217 0.0
C219 C 0.90829 0.36217 0.30355 0.0
C220 C 0.80094 0.34445 0.30136 0.0
O221 O 0.85838 0.35625 0.36058 0.0
O222 O 0.81789 0.37762 0.37595 0.0
C223 C 0.82364 0.43896 0.39008 0.0
N224 N 0.80788 0.4343 0.3617 0.0
C225 C 0.78906 0.48104 0.36363 0.0
C226 C 0.80442 0.48608 0.39355 0.0
C227 C 0.82218 0.46511 0.40647 0.0
C228 C 0.79179 0.45476 0.34814 0.0
H229 H 0.83718 0.42285 0.40005 0.0
C230 C 0.83938 0.36234 0.38252 0.0
O231 O 0.89025 0.34226 0.29916 0.0
O232 O 0.89859 0.38585 0.31509 0.0
N233 N 0.78194 0.42264 0.30518 0.0
C234 C 0.77063 0.41506 0.27461 0.0
C235 C 0.75505 0.43478 0.25592 0.0
C236 C 0.75066 0.46178 0.26931 0.0
C237 C 0.76236 0.46897 0.30096 0.0
C238 C 0.77844 0.44875 0.31783 0.0
H239 H 0.77345 0.39413 0.26467 0.0
O240 O 0.85624 0.38837 0.26623 0.0
O241 O 0.83666 0.40243 0.31433 0.0
O242 O 0.8274 0.34316 0.29915 0.0
O243 O 0.78833 0.36513 0.31495 0.0
C244 C 0.7586 0.49533 0.31658 0.0
C245 C 0.77174 0.50128 0.34805 0.0
H246 H 0.80322 0.50618 0.40634 0.0
H247 H 0.8345 0.469 0.42918 0.0
H248 H 0.74609 0.42906 0.23152 0.0
H249 H 0.73828 0.47679 0.25506 0.0
H250 H 0.74585 0.51128 0.30449 0.0
H251 H 0.7691 0.52178 0.3595 0.0
Mn252 Mn 0.64951 0.85517 0.33168 0.0
Mn253 Mn 0.61924 0.79287 0.34859 0.0
C254 C 0.61397 0.83797 0.29755 0.0
C255 C 0.65459 0.90414 0.33095 0.0
C256 C 0.67555 0.79747 0.31571 0.0
O257 O 0.65813 0.85066 0.38232 0.0
O258 O 0.64199 0.80632 0.38792 0.0
C259 C 0.58111 0.80982 0.40467 0.0
N260 N 0.58512 0.79799 0.37338 0.0
C261 C 0.53814 0.77968 0.37285 0.0
C262 C 0.5335 0.79168 0.40504 0.0
C263 C 0.55499 0.80709 0.42084 0.0
C264 C 0.56432 0.78382 0.35755 0.0
H265 H 0.5978 0.82091 0.41744 0.0
C266 C 0.65434 0.8282 0.39959 0.0
O267 O 0.67557 0.88733 0.32643 0.0
O268 O 0.63066 0.89263 0.33833 0.0
N269 N 0.59617 0.77763 0.31326 0.0
C270 C 0.6036 0.76877 0.28145 0.0
C271 C 0.58369 0.75507 0.26097 0.0
C272 C 0.5567 0.74982 0.27384 0.0
C273 C 0.5497 0.75883 0.30684 0.0
C274 C 0.57006 0.77333 0.32552 0.0
H275 H 0.62456 0.77215 0.27187 0.0
O276 O 0.63334 0.85408 0.28497 0.0
O277 O 0.6167 0.83093 0.32942 0.0
O278 O 0.67744 0.82384 0.31989 0.0
O279 O 0.65357 0.78375 0.32315 0.0
C280 C 0.52347 0.75368 0.32213 0.0
C281 C 0.51774 0.76398 0.35519 0.0
H282 H 0.5135 0.7893 0.4178 0.0
H283 H 0.55158 0.8164 0.44569 0.0
H284 H 0.58928 0.74812 0.23557 0.0
H285 H 0.54156 0.73877 0.25822 0.0
H286 H 0.50748 0.742 0.30864 0.0
H287 H 0.49736 0.76023 0.36648 0.0
Mn288 Mn 0.86667 0.64309 0.81307 0.0
Mn289 Mn 0.89194 0.70556 0.84004 0.0
C290 C 0.90716 0.66202 0.78972 0.0
C291 C 0.86758 0.59408 0.80915 0.0
C292 C 0.83777 0.69948 0.80012 0.0
O293 O 0.85035 0.64634 0.86149 0.0
O294 O 0.87066 0.68758 0.87766 0.0
C295 C 0.93196 0.6903 0.8948 0.0
N296 N 0.92685 0.70186 0.86364 0.0
C297 C 0.97531 0.715 0.85732 0.0
C298 C 0.9811 0.70294 0.88918 0.0
C299 C 0.9593 0.69063 0.90804 0.0
C300 C 0.94755 0.71446 0.84569 0.0
H301 H 0.91529 0.68096 0.90943 0.0
C302 C 0.85557 0.66576 0.88342 0.0
O303 O 0.84555 0.60827 0.80027 0.0
O304 O 0.88744 0.60801 0.8241 0.0
N305 N 0.91335 0.72311 0.8047 0.0
C306 C 0.90467 0.73174 0.77327 0.0
C307 C 0.92421 0.74316 0.75041 0.0
C308 C 0.95244 0.74549 0.76004 0.0
C309 C 0.96093 0.73634 0.79244 0.0
C310 C 0.94048 0.72529 0.81423 0.0
H311 H 0.88307 0.72956 0.76552 0.0
O312 O 0.89125 0.64595 0.77129 0.0
O313 O 0.89718 0.66875 0.81928 0.0
O314 O 0.83906 0.67304 0.79587 0.0
O315 O 0.85641 0.71326 0.81617 0.0
C316 C 0.98897 0.73708 0.8036 0.0
C317 C 0.99614 0.72663 0.83612 0.0
H318 H 1.00224 0.70279 0.89926 0.0
H319 H 0.96358 0.68134 0.9327 0.0
H320 H 0.91757 0.74994 0.72533 0.0
H321 H 0.96745 0.75402 0.74219 0.0
H322 H 1.00523 0.74526 0.78716 0.0
H323 H 0.01784 0.72703 0.84423 0.0
Mn324 Mn 0.35409 0.87881 0.8217 0.0
Mn325 Mn 0.28925 0.90534 0.83425 0.0
C326 C 0.33624 0.91386 0.78673 0.0
C327 C 0.40323 0.87983 0.82402 0.0
C328 C 0.29965 0.84844 0.8029 0.0
O329 O 0.34715 0.86895 0.87198 0.0
O330 O 0.30322 0.88654 0.876 0.0
C331 C 0.2993 0.94807 0.88771 0.0
N332 N 0.29008 0.94123 0.85587 0.0
C333 C 0.26861 0.98651 0.84884 0.0
C334 C 0.27765 0.99394 0.88169 0.0
C335 C 0.29337 0.97476 0.90102 0.0
C336 C 0.27553 0.95979 0.83674 0.0
H337 H 0.31071 0.93315 0.90305 0.0
C338 C 0.32471 0.8743 0.8889 0.0
O339 O 0.38975 0.85676 0.81795 0.0
O340 O 0.38815 0.9014 0.83247 0.0
N341 N 0.27412 0.92465 0.79565 0.0
C342 C 0.26805 0.91454 0.76397 0.0
C343 C 0.25473 0.93206 0.74016 0.0
C344 C 0.24722 0.9595 0.74946 0.0
C345 C 0.2535 0.96931 0.78234 0.0
C346 C 0.26757 0.95119 0.80458 0.0
H347 H 0.27338 0.8933 0.75695 0.0
O348 O 0.35442 0.89595 0.77524 0.0
O349 O 0.32766 0.90982 0.81773 0.0
O350 O 0.32618 0.84857 0.80613 0.0
O351 O 0.28433 0.86895 0.81184 0.0
C352 C 0.24613 0.99625 0.79404 0.0
C353 C 0.25337 1.00471 0.82743 0.0
H354 H 0.27296 0.01444 0.89213 0.0
H355 H 0.30054 0.98038 0.92632 0.0
H356 H 0.24994 0.92431 0.71486 0.0
H357 H 0.23659 0.97283 0.7312 0.0
H358 H 0.23483 0.01058 0.77762 0.0
H359 H 0.2477 0.02552 0.83608 0.0
Mn360 Mn 0.15589 0.36924 0.80635 0.0
Mn361 Mn 0.13004 0.30785 0.83511 0.0
C362 C 0.11905 0.34709 0.77855 0.0
C363 C 0.15946 0.41781 0.79604 0.0
C364 C 0.18461 0.31163 0.79781 0.0
O365 O 0.16744 0.37068 0.85664 0.0
O366 O 0.15366 0.32662 0.87021 0.0
C367 C 0.09356 0.32824 0.89112 0.0
N368 N 0.09686 0.31356 0.86156 0.0
C369 C 0.05145 0.29224 0.86781 0.0
C370 C 0.04756 0.30717 0.89829 0.0
C371 C 0.06859 0.3255 0.90978 0.0
C372 C 0.0764 0.29652 0.84978 0.0
H373 H 0.10999 0.34159 0.90067 0.0
C374 C 0.16553 0.35 0.87739 0.0
O375 O 0.18049 0.40088 0.79333 0.0
O376 O 0.13629 0.40702 0.80764 0.0
N377 N 0.10639 0.28778 0.80421 0.0
C378 C 0.1129 0.2761 0.77348 0.0
C379 C 0.09316 0.25892 0.75705 0.0
C380 C 0.06737 0.25323 0.77291 0.0
C381 C 0.06129 0.2653 0.80471 0.0
C382 C 0.08133 0.28311 0.81919 0.0
H383 H 0.13305 0.27981 0.76174 0.0
O384 O 0.13705 0.3622 0.76178 0.0
O385 O 0.12408 0.34361 0.81085 0.0
O386 O 0.18487 0.33824 0.79756 0.0
O387 O 0.16379 0.29768 0.80872 0.0
C388 C 0.03637 0.26002 0.8229 0.0
C389 C 0.03149 0.27339 0.8545 0.0
H390 H 0.02849 0.30478 0.91301 0.0
H391 H 0.06579 0.33705 0.93333 0.0
H392 H 0.09804 0.24964 0.73254 0.0
H393 H 0.05244 0.23946 0.76053 0.0
H394 H 0.02076 0.2458 0.81279 0.0
H395 H 0.01209 0.26945 0.86802 0.0
Mn396 Mn 0.6666 0.14024 0.83316 0.0
Mn397 Mn 0.73088 0.11421 0.85041 0.0
C398 C 0.68665 0.10563 0.79917 0.0
C399 C 0.61731 0.13876 0.83065 0.0
C400 C 0.72185 0.17127 0.81905 0.0
O401 O 0.67033 0.14901 0.88436 0.0
O402 O 0.71457 0.1328 0.89116 0.0
C403 C 0.7187 0.07142 0.9031 0.0
N404 N 0.72922 0.07829 0.87187 0.0
C405 C 0.75117 0.0331 0.86621 0.0
C406 C 0.74068 0.02561 0.89839 0.0
C407 C 0.7241 0.04475 0.91671 0.0
C408 C 0.74472 0.0598 0.85373 0.0
H409 H 0.70667 0.08632 0.91778 0.0
C410 C 0.69207 0.14408 0.90281 0.0
O411 O 0.63094 0.16203 0.82654 0.0
O412 O 0.63205 0.11723 0.84004 0.0
N413 N 0.74806 0.09503 0.81296 0.0
C414 C 0.75556 0.10518 0.78177 0.0
C415 C 0.76999 0.08773 0.75886 0.0
C416 C 0.77708 0.06027 0.76856 0.0
C417 C 0.76929 0.0504 0.80091 0.0
C418 C 0.75419 0.06848 0.82222 0.0
H419 H 0.75047 0.1264 0.77444 0.0
O420 O 0.66929 0.12376 0.78639 0.0
O421 O 0.69343 0.10943 0.83088 0.0
O422 O 0.6952 0.17108 0.82087 0.0
O423 O 0.73681 0.15065 0.82844 0.0
C424 C 0.7761 0.02344 0.81298 0.0
C425 C 0.76739 0.01493 0.8458 0.0
H426 H 0.74496 1.00512 0.90908 0.0
H427 H 0.71587 0.0391 0.94152 0.0
H428 H 0.77593 0.09551 0.73395 0.0
H429 H 0.78855 0.04698 0.75101 0.0
H430 H 0.78809 1.00911 0.79726 0.0
H431 H 0.77267 0.99412 0.85476 0.0
Mn432 Mn 0.87736 0.36325 0.69285 0.0
Mn433 Mn 0.90529 0.29981 0.67454 0.0
C434 C 0.91955 0.34875 0.71697 0.0
C435 C 0.87436 0.4122 0.69075 0.0
C436 C 0.85323 0.30707 0.7177 0.0
O437 O 0.85991 0.35465 0.64572 0.0
O438 O 0.8799 0.31202 0.63745 0.0
C439 C 0.93932 0.31306 0.61338 0.0
N440 N 0.93762 0.30333 0.646 0.0
C441 C 0.98692 0.29255 0.64682 0.0
C442 C 0.98918 0.30247 0.61325 0.0
C443 C 0.96528 0.31277 0.59648 0.0
C444 C 0.96043 0.29304 0.66224 0.0
H445 H 0.92105 0.32102 0.60035 0.0
C446 C 0.86428 0.33245 0.62771 0.0
O447 O 0.85381 0.39708 0.7021 0.0
O448 O 0.89506 0.39878 0.6767 0.0
N449 N 0.93084 0.2871 0.70889 0.0
C450 C 0.92559 0.28082 0.74221 0.0
C451 C 0.94765 0.27175 0.76321 0.0
C452 C 0.97481 0.26921 0.74972 0.0
C453 C 0.97973 0.27595 0.71543 0.0
C454 C 0.9569 0.28475 0.69568 0.0
H455 H 0.90478 0.28295 0.75273 0.0
O456 O 0.90325 0.36573 0.73364 0.0
O457 O 0.90935 0.33884 0.68889 0.0
O458 O 0.85232 0.33366 0.71552 0.0
O459 O 0.87258 0.29252 0.70404 0.0
C460 C 1.0065 0.27493 0.7003 0.0
C461 C 0.01007 0.2831 0.66598 0.0
H462 H 1.00922 0.3026 0.60026 0.0
H463 H 0.96688 0.32055 0.57061 0.0
H464 H 0.94377 0.26682 0.78975 0.0
H465 H 0.99179 0.26234 0.76597 0.0
H466 H 0.02456 0.26834 0.71499 0.0
H467 H 0.03084 0.28266 0.65481 0.0
Mn468 Mn 0.6409 0.86815 0.71631 0.0
Mn469 Mn 0.70293 0.89015 0.68361 0.0
C470 C 0.66223 0.90881 0.73587 0.0
C471 C 0.5919 0.87027 0.72174 0.0
C472 C 0.69712 0.83858 0.72842 0.0
O473 O 0.64173 0.84915 0.66934 0.0
O474 O 0.68269 0.86728 0.6491 0.0
C475 C 0.68596 0.92736 0.62672 0.0
N476 N 0.69926 0.92364 0.65713 0.0
C477 C 0.71581 0.97134 0.65687 0.0
C478 C 0.70204 0.9757 0.6257 0.0
C479 C 0.6871 0.95359 0.61054 0.0
C480 C 0.71422 0.94462 0.67158 0.0
H481 H 0.67467 0.91043 0.61487 0.0
C482 C 0.66028 0.85253 0.64593 0.0
O483 O 0.60594 0.84858 0.73211 0.0
O484 O 0.60595 0.88924 0.70534 0.0
N485 N 0.72301 0.91304 0.71551 0.0
C486 C 0.7329 0.90612 0.74703 0.0
C487 C 0.74699 0.9264 0.76656 0.0
C488 C 0.75077 0.95353 0.75349 0.0
C489 C 0.74026 0.96022 0.72109 0.0
C490 C 0.72646 0.93913 0.70275 0.0
H491 H 0.72978 0.88539 0.75735 0.0
O492 O 0.64604 0.89452 0.75603 0.0
O493 O 0.66726 0.89757 0.70646 0.0
O494 O 0.67087 0.84063 0.73391 0.0
O495 O 0.71067 0.85598 0.71015 0.0
C496 C 0.74234 0.98718 0.70664 0.0
C497 C 0.73026 0.99269 0.67446 0.0
H498 H 0.70261 0.99599 0.61333 0.0
H499 H 0.67648 0.95676 0.58644 0.0
H500 H 0.75481 0.92116 0.79169 0.0
H501 H 0.7615 0.96915 0.76871 0.0
H502 H 0.75281 1.00393 0.72029 0.0
H503 H 0.73165 0.0136 0.66384 0.0
Mn504 Mn 0.14208 0.65384 0.68911 0.0
Mn505 Mn 0.11155 0.71656 0.6739 0.0
C506 C 0.10519 0.67014 0.72283 0.0
C507 C 0.1484 0.60491 0.68943 0.0
C508 C 0.16827 0.71091 0.70644 0.0
O509 O 0.15192 0.65987 0.63835 0.0
O510 O 0.13238 0.7028 0.63371 0.0
C511 C 0.07122 0.70256 0.61908 0.0
N512 N 0.07656 0.71332 0.65061 0.0
C513 C 0.03177 0.73647 0.65213 0.0
C514 C 0.02573 0.72558 0.61969 0.0
C515 C 0.04539 0.70821 0.60332 0.0
C516 C 0.05738 0.72921 0.6671 0.0
H517 H 0.08677 0.69027 0.60576 0.0
C518 C 0.14593 0.68202 0.62117 0.0
O519 O 0.16872 0.62234 0.69437 0.0
O520 O 0.12427 0.61576 0.6813 0.0
N521 N 0.09031 0.73203 0.71065 0.0
C522 C 0.09925 0.7402 0.74215 0.0
C523 C 0.08134 0.75613 0.76296 0.0
C524 C 0.0549 0.76427 0.75066 0.0
C525 C 0.04624 0.75561 0.71809 0.0
C526 C 0.06454 0.73881 0.69912 0.0
H527 H 0.12002 0.73492 0.75105 0.0
O528 O 0.12434 0.65377 0.73542 0.0
O529 O 0.10884 0.678 0.69149 0.0
O530 O 0.16979 0.68451 0.70327 0.0
O531 O 0.14677 0.72473 0.69761 0.0
C532 C 0.02058 0.76367 0.70328 0.0
C533 C 0.01335 0.75417 0.67028 0.0
H534 H 1.00606 0.73034 0.60717 0.0
H535 H 0.04092 0.6998 0.57824 0.0
H536 H 0.0882 0.76279 0.78801 0.0
H537 H 0.04154 0.77739 0.7663 0.0
H538 H 1.00634 0.77731 0.71695 0.0
H539 H 0.99346 0.76033 0.65928 0.0
Mn540 Mn 0.38527 0.14996 0.70427 0.0
Mn541 Mn 0.32396 0.12839 0.6691 0.0
C542 C 0.36243 0.11027 0.72382 0.0
C543 C 0.43402 0.14726 0.71345 0.0
C544 C 0.32851 0.17989 0.71385 0.0
O545 O 0.38717 0.1666 0.65602 0.0
O546 O 0.3451 0.15148 0.63571 0.0
C547 C 0.34375 0.09171 0.61294 0.0
N548 N 0.3289 0.09518 0.64235 0.0
C549 C 0.31291 0.04732 0.64063 0.0
C550 C 0.3281 0.04326 0.61038 0.0
C551 C 0.34357 0.06555 0.59649 0.0
C552 C 0.31358 0.07397 0.65566 0.0
H553 H 0.35566 0.10874 0.6021 0.0
C554 C 0.36869 0.16415 0.63227 0.0
O555 O 0.41984 0.16948 0.72165 0.0
O556 O 0.42044 0.12797 0.697 0.0
N557 N 0.30288 0.10509 0.69952 0.0
C558 C 0.29174 0.11165 0.73055 0.0
C559 C 0.27706 0.09112 0.74894 0.0
C560 C 0.27398 0.06408 0.73526 0.0
C561 C 0.28577 0.05776 0.7034 0.0
C562 C 0.30009 0.07911 0.68617 0.0
H563 H 0.29434 0.1323 0.74137 0.0
O564 O 0.37777 0.12491 0.74463 0.0
O565 O 0.35881 0.12084 0.69378 0.0
O566 O 0.3549 0.17847 0.7189 0.0
O567 O 0.31521 0.16207 0.69594 0.0
C568 C 0.28451 0.0309 0.68852 0.0
C569 C 0.29795 0.02572 0.65706 0.0
H570 H 0.32829 0.02303 0.59782 0.0
H571 H 0.35538 0.06256 0.57319 0.0
H572 H 0.26825 0.09606 0.77368 0.0
H573 H 0.26282 0.04826 0.74963 0.0
H574 H 0.27366 0.01395 0.70133 0.0
H575 H 0.29722 1.00487 0.64615 0.0
H576 H 0.33163 0.28041 0.30439 0.0
H577 H 0.28725 0.2014 0.29468 0.0
H578 H 0.24647 0.22658 0.27063 0.0
H579 H 0.27205 0.32511 0.32391 0.0
H580 H 0.28471 0.35373 0.29816 0.0
H581 H 0.30919 0.32997 0.31788 0.0
H582 H 0.3313 0.31947 0.25885 0.0
H583 H 0.30691 0.34318 0.23894 0.0
H584 H 0.30926 0.30738 0.22448 0.0
H585 H 0.21084 0.26032 0.24691 0.0
H586 H 0.18431 0.29922 0.22094 0.0
H587 H 0.25372 0.35568 0.2409 0.0
C588 C 0.31332 0.26833 0.29751 0.0
C589 C 0.31269 0.23884 0.30159 0.0
C590 C 0.28825 0.22397 0.29191 0.0
C591 C 0.26496 0.23811 0.27828 0.0
C592 C 0.26656 0.26709 0.27399 0.0
C593 C 0.29021 0.282 0.28302 0.0
C594 C 0.28743 0.31269 0.27335 0.0
C595 C 0.2884 0.33148 0.30523 0.0
C596 C 0.31007 0.32117 0.24736 0.0
C597 C 0.25851 0.31272 0.25733 0.0
C598 C 0.24666 0.28628 0.25854 0.0
C599 C 0.21993 0.28107 0.24578 0.0
C600 C 0.20499 0.30336 0.23116 0.0
C601 C 0.21694 0.33051 0.22879 0.0
C602 C 0.24409 0.33516 0.24215 0.0
H603 H 0.74441 0.34244 0.28447 0.0
H604 H 0.82039 0.29221 0.28644 0.0
H605 H 0.7945 0.25228 0.26256 0.0
H606 H 0.69682 0.28708 0.30768 0.0
H607 H 0.66916 0.29841 0.27954 0.0
H608 H 0.69356 0.3236 0.29658 0.0
H609 H 0.70586 0.33967 0.23525 0.0
H610 H 0.68156 0.31443 0.21803 0.0
H611 H 0.71766 0.31418 0.20445 0.0
H612 H 0.76095 0.21722 0.24089 0.0
H613 H 0.72101 0.18858 0.2219 0.0
H614 H 0.66619 0.26087 0.2308 0.0
C615 C 0.75555 0.32301 0.27994 0.0
C616 C 0.78452 0.32056 0.28742 0.0
C617 C 0.79831 0.29478 0.28085 0.0
C618 C 0.78378 0.27189 0.26726 0.0
C619 C 0.75542 0.27502 0.26 0.0
C620 C 0.74135 0.29985 0.26595 0.0
C621 C 0.7107 0.29725 0.25577 0.0
C622 C 0.69142 0.30186 0.28674 0.0
C623 C 0.70353 0.3176 0.22664 0.0
C624 C 0.70979 0.26698 0.24367 0.0
C625 C 0.73591 0.25468 0.24643 0.0
C626 C 0.74042 0.22664 0.23836 0.0
C627 C 0.71757 0.21053 0.22764 0.0
C628 C 0.69046 0.22244 0.22476 0.0
C629 C 0.68667 0.25123 0.23235 0.0
H630 H 0.75733 0.66748 0.23302 0.0
H631 H 0.83355 0.7167 0.24251 0.0
H632 H 0.80653 0.75511 0.26856 0.0
H633 H 0.71182 0.72396 0.21142 0.0
H634 H 0.6825 0.7111 0.23583 0.0
H635 H 0.70782 0.68687 0.21873 0.0
H636 H 0.71659 0.66681 0.27924 0.0
H637 H 0.69114 0.69085 0.2965 0.0
H638 H 0.72627 0.69022 0.3134 0.0
H639 H 0.77108 0.78932 0.29078 0.0
H640 H 0.72994 0.81565 0.31156 0.0
H641 H 0.67683 0.74398 0.28934 0.0
C642 C 0.7684 0.68624 0.24078 0.0
C643 C 0.79764 0.68896 0.23559 0.0
C644 C 0.81123 0.71393 0.24624 0.0
C645 C 0.79605 0.73598 0.26099 0.0
C646 C 0.76727 0.73277 0.26527 0.0
C647 C 0.75359 0.70844 0.25583 0.0
C648 C 0.72246 0.71043 0.26334 0.0
C649 C 0.70514 0.70795 0.23036 0.0
C650 C 0.7136 0.68826 0.28969 0.0
C651 C 0.72081 0.73976 0.27813 0.0
C652 C 0.74688 0.75232 0.27885 0.0
C653 C 0.75057 0.77965 0.29059 0.0
C654 C 0.72703 0.79448 0.30221 0.0
C655 C 0.70012 0.78191 0.30226 0.0
C656 C 0.69712 0.75416 0.28994 0.0
H657 H 0.35219 0.76612 0.23285 0.0
H658 H 0.30129 0.84133 0.24022 0.0
H659 H 0.26171 0.81293 0.26168 0.0
H660 H 0.29885 0.72009 0.20446 0.0
H661 H 0.31066 0.69047 0.22912 0.0
H662 H 0.33537 0.71671 0.21555 0.0
H663 H 0.35085 0.72447 0.27822 0.0
H664 H 0.32634 0.69807 0.29198 0.0
H665 H 0.32489 0.73277 0.3101 0.0
H666 H 0.22657 0.77584 0.27786 0.0
H667 H 0.19963 0.73352 0.29306 0.0
H668 H 0.27399 0.6825 0.27832 0.0
C669 C 0.3328 0.7767 0.23924 0.0
C670 C 0.32986 0.80603 0.23473 0.0
C671 C 0.30415 0.81898 0.2436 0.0
C672 C 0.2815 0.80298 0.25567 0.0
C673 C 0.28498 0.7741 0.25924 0.0
C674 C 0.31012 0.76112 0.25179 0.0
C675 C 0.30838 0.72975 0.25798 0.0
C676 C 0.31362 0.71329 0.2248 0.0
C677 C 0.32883 0.72074 0.28626 0.0
C678 C 0.27817 0.72701 0.26956 0.0
C679 C 0.26502 0.75285 0.26985 0.0
C680 C 0.23675 0.75557 0.2781 0.0
C681 C 0.22158 0.73135 0.28653 0.0
C682 C 0.2347 0.70467 0.28706 0.0
C683 C 0.26344 0.70261 0.27853 0.0
H684 H 0.75303 0.83608 0.74368 0.0
H685 H 0.67721 0.78594 0.74358 0.0
H686 H 0.70497 0.74425 0.7604 0.0
H687 H 0.7991 0.78491 0.70992 0.0
H688 H 0.82831 0.79453 0.73663 0.0
H689 H 0.80243 0.82037 0.72531 0.0
H690 H 0.79347 0.83099 0.78927 0.0
H691 H 0.81963 0.80546 0.80079 0.0
H692 H 0.78463 0.80268 0.81777 0.0
H693 H 0.74229 0.70717 0.77348 0.0
H694 H 0.78444 0.67962 0.78902 0.0
H695 H 0.83487 0.75512 0.78328 0.0
C696 C 0.74217 0.81639 0.74748 0.0
C697 C 0.71292 0.81426 0.74224 0.0
C698 C 0.69955 0.78813 0.74768 0.0
C699 C 0.7152 0.7643 0.75699 0.0
C700 C 0.74412 0.76705 0.76124 0.0
C701 C 0.75735 0.7926 0.75727 0.0
C702 C 0.78852 0.79028 0.76403 0.0
C703 C 0.80559 0.79798 0.73206 0.0
C704 C 0.79706 0.80842 0.7948 0.0
C705 C 0.79092 0.75934 0.77209 0.0
C706 C 0.76519 0.74616 0.76999 0.0
C707 C 0.76248 0.71738 0.77548 0.0
C708 C 0.78657 0.70185 0.78404 0.0
C709 C 0.81295 0.71518 0.78748 0.0
C710 C 0.815 0.74429 0.78109 0.0
H711 H 0.16947 0.76586 0.72623 0.0
H712 H 0.22164 0.69147 0.71972 0.0
H713 H 0.26165 0.71841 0.74304 0.0
H714 H 0.22194 0.81554 0.70199 0.0
H715 H 0.20964 0.84205 0.73116 0.0
H716 H 0.18545 0.81679 0.71387 0.0
H717 H 0.17074 0.80233 0.7751 0.0
H718 H 0.19479 0.82762 0.79258 0.0
H719 H 0.19719 0.79135 0.80511 0.0
H720 H 0.29638 0.75461 0.76667 0.0
H721 H 0.3215 0.79574 0.79035 0.0
H722 H 0.24536 0.84508 0.78135 0.0
C723 C 0.18928 0.75512 0.72957 0.0
C724 C 0.19238 0.72652 0.72098 0.0
C725 C 0.2187 0.71335 0.72612 0.0
C726 C 0.24158 0.72851 0.73928 0.0
C727 C 0.23775 0.75674 0.74729 0.0
C728 C 0.21216 0.76981 0.74274 0.0
C729 C 0.21313 0.80016 0.75367 0.0
C730 C 0.2072 0.81978 0.72336 0.0
C731 C 0.19276 0.80567 0.78338 0.0
C732 C 0.24329 0.80225 0.76513 0.0
C733 C 0.25731 0.77713 0.76118 0.0
C734 C 0.28554 0.77435 0.76994 0.0
C735 C 0.29966 0.79784 0.78329 0.0
C736 C 0.28543 0.82365 0.78792 0.0
C737 C 0.25691 0.82567 0.77847 0.0
H738 H 0.18842 0.25693 0.77564 0.0
H739 H 0.23834 0.3316 0.7931 0.0
H740 H 0.28089 0.30589 0.77536 0.0
H741 H 0.23918 0.20647 0.80449 0.0
H742 H 0.23078 0.18111 0.77195 0.0
H743 H 0.20434 0.20519 0.78674 0.0
H744 H 0.19606 0.22215 0.72473 0.0
H745 H 0.22234 0.198 0.70973 0.0
H746 H 0.22529 0.2348 0.69997 0.0
H747 H 0.31862 0.27114 0.75718 0.0
H748 H 0.34723 0.23171 0.73513 0.0
H749 H 0.2721 0.18089 0.72693 0.0
C750 C 0.2083 0.26788 0.7758 0.0
C751 C 0.20999 0.2963 0.78593 0.0
C752 C 0.23643 0.30988 0.78536 0.0
C753 C 0.26078 0.29541 0.77548 0.0
C754 C 0.2584 0.26738 0.76582 0.0
C755 C 0.23276 0.25387 0.76552 0.0
C756 C 0.23571 0.22398 0.7529 0.0
C757 C 0.22699 0.20295 0.78068 0.0
C758 C 0.21886 0.21948 0.71987 0.0
C759 C 0.26699 0.22275 0.74625 0.0
C760 C 0.27982 0.24785 0.75421 0.0
C761 C 0.30874 0.25143 0.75069 0.0
C762 C 0.32486 0.22889 0.73829 0.0
C763 C 0.31199 0.20322 0.7291 0.0
C764 C 0.28265 0.20027 0.73342 0.0
H765 H 0.77599 0.17382 0.79642 0.0
H766 H 0.70146 0.22494 0.80938 0.0
H767 H 0.72732 0.26599 0.78673 0.0
H768 H 0.82664 0.22591 0.81978 0.0
H769 H 0.8518 0.21472 0.78827 0.0
H770 H 0.82752 0.18983 0.80612 0.0
H771 H 0.81025 0.1769 0.74539 0.0
H772 H 0.83459 0.20161 0.72733 0.0
H773 H 0.79779 0.20419 0.71742 0.0
H774 H 0.76237 0.30175 0.76305 0.0
H775 H 0.80174 0.32782 0.73702 0.0
H776 H 0.85226 0.25214 0.73857 0.0
C777 C 0.76501 0.19364 0.79472 0.0
C778 C 0.73667 0.19614 0.80497 0.0
C779 C 0.72314 0.22246 0.80175 0.0
C780 C 0.73771 0.24591 0.78902 0.0
C781 C 0.76571 0.24265 0.77937 0.0
C782 C 0.77908 0.21705 0.78185 0.0
C783 C 0.80893 0.21861 0.76886 0.0
C784 C 0.82996 0.21187 0.79747 0.0
C785 C 0.81312 0.19918 0.73791 0.0
C786 C 0.81042 0.24914 0.75865 0.0
C787 C 0.78541 0.26279 0.76513 0.0
C788 C 0.78199 0.2912 0.75784 0.0
C789 C 0.80455 0.30587 0.74317 0.0
C790 C 0.83017 0.29209 0.73561 0.0
C791 C 0.833 0.26336 0.74382 0.0
H792 H 0.14013 0.38022 0.92732 0.0
H793 H 0.20884 0.32316 0.90784 0.0
H794 H 0.21555 0.31681 0.97007 0.0
H795 H 0.16763 0.4118 1.00726 0.0
H796 H 0.13327 0.41307 0.02627 0.0
H797 H 0.13706 0.41589 0.98066 0.0
H798 H 0.10275 0.37414 0.97342 0.0
H799 H 0.0997 0.3705 0.01904 0.0
H800 H 0.11073 0.34109 0.99344 0.0
H801 H 0.21343 0.31544 0.0344 0.0
H802 H 0.20495 0.32208 0.09627 0.0
H803 H 0.1345 0.3761 0.07353 0.0
C804 C 0.15734 0.36739 0.93632 0.0
C805 C 0.1747 0.35294 0.91304 0.0
C806 C 0.19604 0.3351 0.92548 0.0
C807 C 0.19972 0.33111 0.9607 0.0
C808 C 0.18145 0.34469 0.98305 0.0
C809 C 0.16086 0.36272 0.97139 0.0
C810 C 0.14292 0.37339 1.0006 0.0
C811 C 0.14538 0.40543 1.00389 0.0
C812 C 0.11221 0.36423 0.99636 0.0
C813 C 0.15663 0.35859 0.0305 0.0
C814 C 0.17888 0.34221 0.01983 0.0
C815 C 0.19582 0.32789 0.04301 0.0
C816 C 0.19066 0.33142 0.07803 0.0
C817 C 0.16841 0.34862 0.08946 0.0
C818 C 0.15078 0.36175 0.06535 0.0
H819 H 0.64635 0.15667 0.94418 0.0
H820 H 0.73574 0.13916 0.94749 0.0
H821 H 0.73381 0.13639 0.0099 0.0
H822 H 0.64599 0.20058 0.02154 0.0
H823 H 0.61207 0.18809 0.03492 0.0
H824 H 0.62065 0.18947 0.99018 0.0
H825 H 0.6085 0.13671 0.98479 0.0
H826 H 0.60053 0.13505 0.02969 0.0
H827 H 0.62625 0.11166 0.01163 0.0
H828 H 0.72191 0.1316 0.07215 0.0
H829 H 0.70184 0.13384 0.13053 0.0
H830 H 0.62133 0.15689 0.08739 0.0
C831 C 0.66562 0.15284 0.95801 0.0
C832 C 0.6911 0.14792 0.94054 0.0
C833 C 0.7158 0.14283 0.95992 0.0
C834 C 0.71499 0.14105 0.99556 0.0
C835 C 0.68942 0.14482 0.01185 0.0
C836 C 0.66531 0.15131 0.99386 0.0
C837 C 0.6407 0.155 0.01791 0.0
C838 C 0.62918 0.18507 0.01603 0.0
C839 C 0.61764 0.13331 0.01055 0.0
C840 C 0.6548 0.14935 0.05195 0.0
C841 C 0.68281 0.1431 0.0479 0.0
C842 C 0.7 0.13669 0.07573 0.0
C843 C 0.68842 0.1377 0.10873 0.0
C844 C 0.6601 0.14547 0.11347 0.0
C845 C 0.64308 0.15084 0.08458 0.0
H846 H 0.88639 0.64709 0.93633 0.0
H847 H 0.80484 0.68045 0.90998 0.0
H848 H 0.79424 0.68715 0.97153 0.0
H849 H 0.86639 0.6115 0.01537 0.0
H850 H 0.89882 0.62065 0.03616 0.0
H851 H 0.89788 0.61616 0.99055 0.0
H852 H 0.91874 0.66606 0.98354 0.0
H853 H 0.91872 0.67105 0.02913 0.0
H854 H 0.90065 0.69559 1.00196 0.0
H855 H 0.79359 0.69126 0.03591 0.0
H856 H 0.80063 0.68767 0.09831 0.0
H857 H 0.88439 0.65542 0.08179 0.0
C858 C 0.86604 0.65512 0.94368 0.0
C859 C 0.84609 0.66269 0.91879 0.0
C860 C 0.81994 0.67377 0.92896 0.0
C861 C 0.81399 0.67802 0.96374 0.0
C862 C 0.83467 0.67145 0.98768 0.0
C863 C 0.86003 0.65989 0.97809 0.0
C864 C 0.87904 0.65537 0.00855 0.0
C865 C 0.88592 0.62406 0.01292 0.0
C866 C 0.90587 0.67307 1.0056 0.0
C867 C 0.86036 0.66598 0.03699 0.0
C868 C 0.83489 0.67526 0.0244 0.0
C869 C 0.81355 0.68437 0.04599 0.0
C870 C 0.81784 0.6826 0.08135 0.0
C871 C 0.84335 0.67212 0.0947 0.0
C872 C 0.86518 0.66464 0.07222 0.0
H873 H 0.3846 0.83652 0.07336 0.0
H874 H 0.31466 0.88328 0.11564 0.0
H875 H 0.29491 0.88843 0.05747 0.0
H876 H 0.39356 0.88057 1.00169 0.0
H877 H 0.40399 0.85265 0.97338 0.0
H878 H 0.41064 0.8498 0.01847 0.0
H879 H 0.3837 0.80268 0.01993 0.0
H880 H 0.37679 0.80545 0.97483 0.0
H881 H 0.34816 0.80122 1.0044 0.0
H882 H 0.28342 0.88876 0.9952 0.0
H883 H 0.28327 0.89045 0.93281 0.0
H884 H 0.36367 0.84749 0.93033 0.0
C885 C 0.36501 0.84769 0.07059 0.0
C886 C 0.35103 0.85938 0.09912 0.0
C887 C 0.32564 0.87412 0.09416 0.0
C888 C 0.31424 0.87699 0.06128 0.0
C889 C 0.32878 0.86538 0.03374 0.0
C890 C 0.35383 0.85141 0.03801 0.0
C891 C 0.36671 0.84328 1.00401 0.0
C892 C 0.39541 0.85743 0.9991 0.0
C893 C 0.36896 0.81125 1.00061 0.0
C894 C 0.34503 0.85507 0.97974 0.0
C895 C 0.32307 0.86713 0.99756 0.0
C896 C 0.30053 0.87948 0.981 0.0
C897 C 0.30072 0.88024 0.94535 0.0
C898 C 0.32363 0.86925 0.92632 0.0
C899 C 0.34586 0.85606 0.94394 0.0
H900 H 0.17453 0.6445 0.57847 0.0
H901 H 0.13083 0.72463 0.57881 0.0
H902 H 0.13555 0.72769 0.51707 0.0
H903 H 0.22419 0.66441 0.50972 0.0
H904 H 0.2241 0.62995 0.49085 0.0
H905 H 0.21852 0.63398 0.53609 0.0
H906 H 0.17183 0.60659 0.53103 0.0
H907 H 0.17717 0.60269 0.48576 0.0
H908 H 0.14541 0.61854 0.50153 0.0
H909 H 0.1398 0.72064 0.45499 0.0
H910 H 0.14895 0.7056 0.39564 0.0
H911 H 0.1938 0.63285 0.43377 0.0
C912 C 0.16635 0.66284 0.56561 0.0
C913 C 0.15217 0.68412 0.58398 0.0
C914 C 0.14175 0.70781 0.56586 0.0
C915 C 0.14425 0.70988 0.5305 0.0
C916 C 0.15768 0.68843 0.51317 0.0
C917 C 0.16908 0.6656 0.52995 0.0
C918 C 0.18247 0.64562 0.50455 0.0
C919 C 0.21421 0.64337 0.51067 0.0
C920 C 0.16837 0.61665 0.5058 0.0
C921 C 0.17612 0.66062 0.4712 0.0
C922 C 0.16158 0.68515 0.47685 0.0
C923 C 0.15164 0.7017 0.45012 0.0
C924 C 0.1568 0.69297 0.41653 0.0
C925 C 0.17217 0.6682 0.41004 0.0
C926 C 0.18217 0.65203 0.43784 0.0
H927 H 0.34046 0.19558 0.58494 0.0
H928 H 0.4128 0.14192 0.59897 0.0
H929 H 0.41638 0.13562 0.53648 0.0
H930 H 0.30935 0.1605 0.5177 0.0
H931 H 0.29878 0.1909 0.49362 0.0
H932 H 0.30267 0.19322 0.53927 0.0
H933 H 0.33815 0.23402 0.5331 0.0
H934 H 0.33336 0.23269 0.48752 0.0
H935 H 0.36806 0.22985 0.50541 0.0
H936 H 0.4073 0.12934 0.47348 0.0
H937 H 0.39643 0.13564 0.41224 0.0
H938 H 0.33368 0.19772 0.43819 0.0
C939 C 0.35781 0.1836 0.57466 0.0
C940 C 0.3767 0.16962 0.59662 0.0
C941 C 0.39866 0.15343 0.58247 0.0
C942 C 0.40048 0.14928 0.54707 0.0
C943 C 0.3806 0.1621 0.5262 0.0
C944 C 0.36051 0.18001 0.53929 0.0
C945 C 0.34235 0.19202 0.51107 0.0
C946 C 0.31146 0.18365 0.51572 0.0
C947 C 0.34569 0.22405 0.50915 0.0
C948 C 0.35505 0.17767 0.48018 0.0
C949 C 0.37655 0.15987 0.48962 0.0
C950 C 0.39077 0.14351 0.46574 0.0
C951 C 0.38408 0.14679 0.43108 0.0
C952 C 0.36392 0.16677 0.42067 0.0
C953 C 0.34875 0.18187 0.44561 0.0
H954 H 0.82826 0.39076 0.44175 0.0
H955 H 0.85674 0.31041 0.40321 0.0
H956 H 0.85973 0.29265 0.46255 0.0
H957 H 0.87667 0.39243 0.51112 0.0
H958 H 0.85308 0.41036 0.5397 0.0
H959 H 0.85005 0.41544 0.49432 0.0
H960 H 0.79797 0.40033 0.49718 0.0
H961 H 0.80096 0.39479 0.54255 0.0
H962 H 0.78898 0.36679 0.5153 0.0
H963 H 0.8589 0.28372 0.5253 0.0
H964 H 0.86432 0.28595 0.58734 0.0
H965 H 0.84221 0.37436 0.58602 0.0
C966 C 0.83509 0.36942 0.4457 0.0
C967 C 0.84213 0.35184 0.41786 0.0
C968 C 0.85126 0.32414 0.4242 0.0
C969 C 0.85276 0.31387 0.45775 0.0
C970 C 0.84562 0.33178 0.4846 0.0
C971 C 0.83765 0.35918 0.47902 0.0
C972 C 0.83414 0.37498 0.51243 0.0
C973 C 0.85472 0.39976 0.51451 0.0
C974 C 0.8037 0.3848 0.51713 0.0
C975 C 0.8416 0.35219 0.53783 0.0
C976 C 0.84733 0.32728 0.52108 0.0
C977 C 0.85474 0.30315 0.53865 0.0
C978 C 0.85771 0.30473 0.57408 0.0
C979 C 0.85408 0.3305 0.59185 0.0
C980 C 0.84501 0.35434 0.57343 0.0
H981 H 0.64119 0.8809 0.59122 0.0
H982 H 0.67101 0.79946 0.62364 0.0
H983 H 0.67421 0.78444 0.56303 0.0
H984 H 0.60161 0.85823 0.51559 0.0
H985 H 0.61211 0.88858 0.49138 0.0
H986 H 0.60881 0.89087 0.53709 0.0
H987 H 0.65997 0.90892 0.54065 0.0
H988 H 0.66371 0.9059 0.49505 0.0
H989 H 0.68788 0.88801 0.5229 0.0
H990 H 0.6765 0.77971 0.49883 0.0
H991 H 0.6745 0.78409 0.43599 0.0
H992 H 0.64705 0.87033 0.44605 0.0
C993 C 0.64774 0.8597 0.58547 0.0
C994 C 0.65538 0.84105 0.61176 0.0
C995 C 0.66434 0.81364 0.60363 0.0
C996 C 0.66653 0.80514 0.56937 0.0
C997 C 0.66 0.82453 0.54387 0.0
C998 C 0.65051 0.85115 0.55156 0.0
C999 C 0.6463 0.86855 0.51964 0.0
C1000 C 0.61537 0.87704 0.51569 0.0
C1001 C 0.66562 0.89437 0.51957 0.0
C1002 C 0.65498 0.8476 0.49263 0.0
C1003 C 0.66271 0.82231 0.50713 0.0
C1004 C 0.67061 0.79943 0.48724 0.0
C1005 C 0.66961 0.80218 0.45164 0.0
C1006 C 0.66114 0.8277 0.43629 0.0
C1007 C 0.65438 0.85086 0.45712 0.0
H1008 H 0.17466 0.56505 0.30757 0.0
H1009 H 0.18426 0.6013 0.2067 0.0
H1010 H 0.17528 0.55491 0.18089 0.0
H1011 H 0.20917 0.50004 0.29108 0.0
H1012 H 0.1854 0.4772 0.31352 0.0
H1013 H 0.18965 0.51253 0.32772 0.0
H1014 H 0.1387 0.52517 0.32314 0.0
H1015 H 0.1316 0.48924 0.31184 0.0
H1016 H 0.11973 0.51725 0.28455 0.0
H1017 H 0.1572 0.50717 0.16652 0.0
H1018 H 0.14965 0.45623 0.16261 0.0
H1019 H 0.15993 0.4484 0.272 0.0
C1020 C 0.1762 0.56302 0.28015 0.0
C1021 C 0.18078 0.58674 0.25909 0.0
C1022 C 0.18108 0.58339 0.22322 0.0
C1023 C 0.17568 0.55723 0.20837 0.0
C1024 C 0.17017 0.5346 0.22978 0.0
C1025 C 0.17133 0.53687 0.26487 0.0
C1026 C 0.1649 0.50884 0.28169 0.0
C1027 C 0.18884 0.49908 0.3048 0.0
C1028 C 0.13708 0.51022 0.30147 0.0
C1029 C 0.1621 0.49025 0.25061 0.0
C1030 C 0.16331 0.50601 0.22108 0.0
C1031 C 0.15787 0.49438 0.1893 0.0
C1032 C 0.15388 0.46542 0.18735 0.0
C1033 C 0.15687 0.44828 0.21664 0.0
C1034 C 0.1593 0.46095 0.24901 0.0
H1035 H 0.55841 0.13614 0.24538 0.0
H1036 H 0.59237 0.21347 0.2856 0.0
H1037 H 0.544 0.23088 0.2964 0.0
H1038 H 0.49607 0.15519 0.20794 0.0
H1039 H 0.47514 0.1278 0.22628 0.0
H1040 H 0.51226 0.12272 0.22075 0.0
H1041 H 0.51562 0.11127 0.28592 0.0
H1042 H 0.47852 0.11737 0.29044 0.0
H1043 H 0.50302 0.13657 0.3165 0.0
H1044 H 0.49284 0.24419 0.2777 0.0
H1045 H 0.44107 0.24413 0.27185 0.0
H1046 H 0.44069 0.154 0.2697 0.0
C1047 C 0.55551 0.15666 0.2567 0.0
C1048 C 0.57852 0.17468 0.26216 0.0
C1049 C 0.57458 0.20037 0.2793 0.0
C1050 C 0.54736 0.2103 0.28552 0.0
C1051 C 0.52484 0.19327 0.27636 0.0
C1052 C 0.52868 0.16605 0.26536 0.0
C1053 C 0.501 0.15056 0.2632 0.0
C1054 C 0.49588 0.13835 0.2274 0.0
C1055 C 0.49945 0.12759 0.29066 0.0
C1056 C 0.48095 0.1743 0.27097 0.0
C1057 C 0.49515 0.19899 0.27715 0.0
C1058 C 0.4813 0.22467 0.27712 0.0
C1059 C 0.45198 0.22461 0.27465 0.0
C1060 C 0.43695 0.19928 0.27571 0.0
C1061 C 0.45166 0.17379 0.27157 0.0
H1062 H 0.85819 0.57402 0.27755 0.0
H1063 H 0.8671 0.56502 0.1681 0.0
H1064 H 0.86082 0.51397 0.17304 0.0
H1065 H 0.89994 0.50583 0.29043 0.0
H1066 H 0.88166 0.49831 0.32961 0.0
H1067 H 0.88815 0.53414 0.31735 0.0
H1068 H 0.83455 0.54551 0.32042 0.0
H1069 H 0.83028 0.51023 0.33488 0.0
H1070 H 0.81051 0.52263 0.29844 0.0
H1071 H 0.84409 0.46622 0.18849 0.0
H1072 H 0.83595 0.42006 0.21523 0.0
H1073 H 0.8455 0.45775 0.31538 0.0
C1074 C 0.85886 0.56116 0.25479 0.0
C1075 C 0.86053 0.57342 0.22215 0.0
C1076 C 0.86351 0.55603 0.19308 0.0
C1077 C 0.86026 0.52703 0.19562 0.0
C1078 C 0.8556 0.51572 0.22773 0.0
C1079 C 0.85689 0.53185 0.25699 0.0
C1080 C 0.85462 0.51361 0.28844 0.0
C1081 C 0.88277 0.51293 0.30758 0.0
C1082 C 0.83096 0.5236 0.31186 0.0
C1083 C 0.84831 0.48538 0.27214 0.0
C1084 C 0.84924 0.4872 0.23699 0.0
C1085 C 0.8439 0.46425 0.21601 0.0
C1086 C 0.83897 0.43825 0.23138 0.0
C1087 C 0.83951 0.43543 0.26729 0.0
C1088 C 0.84384 0.45943 0.28792 0.0
H1089 H 0.56213 0.83916 0.32726 0.0
H1090 H 0.60431 0.83679 0.22921 0.0
H1091 H 0.55893 0.8447 0.20017 0.0
H1092 H 0.49835 0.80415 0.30298 0.0
H1093 H 0.47504 0.82658 0.32667 0.0
H1094 H 0.51009 0.82127 0.34174 0.0
H1095 H 0.52104 0.87324 0.34221 0.0
H1096 H 0.48563 0.88027 0.32869 0.0
H1097 H 0.51471 0.89387 0.30446 0.0
H1098 H 0.51113 0.86087 0.18319 0.0
H1099 H 0.46046 0.86947 0.17664 0.0
H1100 H 0.44785 0.85484 0.28456 0.0
C1101 C 0.56165 0.83913 0.29964 0.0
C1102 C 0.58658 0.83674 0.2803 0.0
C1103 C 0.58534 0.83824 0.2443 0.0
C1104 C 0.55978 0.84295 0.22769 0.0
C1105 C 0.53578 0.84619 0.24756 0.0
C1106 C 0.53627 0.84367 0.28266 0.0
C1107 C 0.50742 0.84876 0.29783 0.0
C1108 C 0.49713 0.82358 0.31849 0.0
C1109 C 0.5072 0.87563 0.31957 0.0
C1110 C 0.49042 0.85262 0.26568 0.0
C1111 C 0.50751 0.85262 0.2372 0.0
C1112 C 0.49732 0.8593 0.20503 0.0
C1113 C 0.46854 0.86379 0.20151 0.0
C1114 C 0.4502 0.8601 0.22953 0.0
C1115 C 0.46136 0.85595 0.26239 0.0
H1116 H 0.82934 0.55423 0.78662 0.0
H1117 H 0.91841 0.57023 0.7982 0.0
H1118 H 0.92903 0.52777 0.76496 0.0
H1119 H 0.83598 0.47746 0.79588 0.0
H1120 H 0.80833 0.47032 0.76576 0.0
H1121 H 0.80768 0.50212 0.79055 0.0
H1122 H 0.80431 0.53092 0.73468 0.0
H1123 H 0.80564 0.49922 0.70969 0.0
H1124 H 0.83085 0.52669 0.70231 0.0
H1125 H 0.93033 0.48643 0.72591 0.0
H1126 H 0.9228 0.442 0.69525 0.0
H1127 H 0.83327 0.4489 0.71312 0.0
C1128 C 0.85105 0.54846 0.78269 0.0
C1129 C 0.87303 0.56564 0.79511 0.0
C1130 C 0.90118 0.55737 0.78933 0.0
C1131 C 0.90747 0.53341 0.77008 0.0
C1132 C 0.88542 0.51746 0.75727 0.0
C1133 C 0.85779 0.52402 0.76423 0.0
C1134 C 0.83825 0.50223 0.74882 0.0
C1135 C 0.82158 0.48713 0.77693 0.0
C1136 C 0.8186 0.51557 0.7223 0.0
C1137 C 0.85925 0.48267 0.73188 0.0
C1138 C 0.88628 0.49232 0.73646 0.0
C1139 C 0.90928 0.47845 0.7225 0.0
C1140 C 0.90474 0.45334 0.70473 0.0
C1141 C 0.87745 0.44189 0.70165 0.0
C1142 C 0.85436 0.45716 0.71486 0.0
H1143 H 0.55212 0.83274 0.74613 0.0
H1144 H 0.56645 0.92105 0.72598 0.0
H1145 H 0.5217 0.93269 0.75383 0.0
H1146 H 0.47638 0.83573 0.72913 0.0
H1147 H 0.46794 0.8104 0.76166 0.0
H1148 H 0.50137 0.80892 0.74035 0.0
H1149 H 0.52632 0.81119 0.799 0.0
H1150 H 0.49297 0.81324 0.82044 0.0
H1151 H 0.51902 0.83998 0.82748 0.0
H1152 H 0.47748 0.93549 0.7876 0.0
H1153 H 0.43146 0.9288 0.81478 0.0
H1154 H 0.44242 0.83856 0.80927 0.0
C1155 C 0.54561 0.85447 0.74719 0.0
C1156 C 0.5629 0.87598 0.73382 0.0
C1157 C 0.55358 0.90415 0.73571 0.0
C1158 C 0.52826 0.91104 0.75183 0.0
C1159 C 0.51208 0.88951 0.76548 0.0
C1160 C 0.51989 0.86173 0.76253 0.0
C1161 C 0.49769 0.84269 0.77801 0.0
C1162 C 0.4851 0.82329 0.75066 0.0
C1163 C 0.50973 0.82578 0.80801 0.0
C1164 C 0.47639 0.86418 0.79031 0.0
C1165 C 0.4855 0.89106 0.78338 0.0
C1166 C 0.46996 0.91453 0.79286 0.0
C1167 C 0.44389 0.91049 0.80862 0.0
C1168 C 0.4332 0.88316 0.81427 0.0
C1169 C 0.45001 0.85971 0.80548 0.0
H1170 H 0.11727 0.45728 0.78259 0.0
H1171 H 0.20718 0.44373 0.77621 0.0
H1172 H 0.21242 0.48763 0.74445 0.0
H1173 H 0.10844 0.48787 0.6995 0.0
H1174 H 0.08347 0.51415 0.71247 0.0
H1175 H 0.08583 0.48156 0.73556 0.0
H1176 H 0.09435 0.50853 0.79196 0.0
H1177 H 0.09145 0.54119 0.76915 0.0
H1178 H 0.1223 0.53389 0.79419 0.0
H1179 H 0.20876 0.53103 0.71123 0.0
H1180 H 0.19732 0.57672 0.68587 0.0
H1181 H 0.11002 0.56567 0.71399 0.0
C1182 C 0.13807 0.46385 0.77501 0.0
C1183 C 0.16181 0.44678 0.78193 0.0
C1184 C 0.18862 0.45615 0.77127 0.0
C1185 C 0.19185 0.48109 0.75295 0.0
C1186 C 0.16814 0.49688 0.74553 0.0
C1187 C 0.1418 0.48914 0.75674 0.0
C1188 C 0.12014 0.51089 0.74579 0.0
C1189 C 0.09817 0.49783 0.72191 0.0
C1190 C 0.10624 0.52443 0.77714 0.0
C1191 C 0.13854 0.53184 0.72673 0.0
C1192 C 0.16608 0.5229 0.72666 0.0
C1193 C 0.18729 0.53836 0.71121 0.0
C1194 C 0.18053 0.56426 0.69666 0.0
C1195 C 0.15279 0.57479 0.69765 0.0
C1196 C 0.13132 0.55797 0.71219 0.0
H1197 H 0.47258 0.18499 0.74048 0.0
H1198 H 0.45936 0.09653 0.72011 0.0
H1199 H 0.50276 0.08518 0.75116 0.0
H1200 H 0.5491 0.18214 0.72918 0.0
H1201 H 0.55583 0.20765 0.76213 0.0
H1202 H 0.52354 0.20894 0.73835 0.0
H1203 H 0.49566 0.20688 0.79499 0.0
H1204 H 0.52787 0.20506 0.81891 0.0
H1205 H 0.5016 0.17827 0.82416 0.0
H1206 H 0.54544 0.08271 0.78802 0.0
H1207 H 0.58985 0.08967 0.81885 0.0
H1208 H 0.57888 0.17985 0.81209 0.0
C1209 C 0.47906 0.16329 0.74217 0.0
C1210 C 0.46243 0.14166 0.72776 0.0
C1211 C 0.47171 0.11353 0.73059 0.0
C1212 C 0.49627 0.1068 0.74851 0.0
C1213 C 0.51178 0.12845 0.76309 0.0
C1214 C 0.50403 0.15619 0.75939 0.0
C1215 C 0.52539 0.17536 0.77641 0.0
C1216 C 0.53929 0.19466 0.74993 0.0
C1217 C 0.51181 0.1924 0.80533 0.0
C1218 C 0.54612 0.15401 0.79044 0.0
C1219 C 0.53747 0.12708 0.78295 0.0
C1220 C 0.55258 0.10372 0.79375 0.0
C1221 C 0.57774 0.10792 0.81157 0.0
C1222 C 0.58801 0.1353 0.81806 0.0
C1223 C 0.57162 0.15865 0.80774 0.0
H1224 H 0.68731 0.05474 0.83134 0.0
H1225 H 0.68736 0.09363 0.7313 0.0
H1226 H 0.67983 0.04716 0.70473 0.0
H1227 H 0.72325 0.99052 0.80873 0.0
H1228 H 0.7017 0.9673 0.83373 0.0
H1229 H 0.70679 1.00262 0.84777 0.0
H1230 H 0.65505 0.0138 0.84959 0.0
H1231 H 0.64787 0.97796 0.83802 0.0
H1232 H 0.63344 1.00619 0.81301 0.0
H1233 H 0.66357 0.99867 0.69068 0.0
H1234 H 0.65435 0.94796 0.68706 0.0
H1235 H 0.6716 0.93892 0.79495 0.0
C1236 C 0.68712 0.05333 0.80377 0.0
C1237 C 0.68866 0.07768 0.7832 0.0
C1238 C 0.68664 0.07516 0.74734 0.0
C1239 C 0.68214 0.04894 0.73213 0.0
C1240 C 0.67973 0.02555 0.75322 0.0
C1241 C 0.6829 0.02728 0.78818 0.0
C1242 C 0.67837 0.99888 0.80489 0.0
C1243 C 0.70418 0.98928 0.82491 0.0
C1244 C 0.65212 0.99924 0.82772 0.0
C1245 C 0.67376 0.98079 0.77378 0.0
C1246 C 0.6732 0.99689 0.74448 0.0
C1247 C 0.66562 0.98563 0.71314 0.0
C1248 C 0.66076 0.95679 0.71128 0.0
C1249 C 0.66496 0.93935 0.74008 0.0
C1250 C 0.6701 0.95164 0.77214 0.0
H1251 H 0.9375 0.66587 0.72977 0.0
H1252 H 0.94594 0.65228 0.83854 0.0
H1253 H 0.99726 0.65549 0.83378 0.0
H1254 H 1.00088 0.62019 0.71313 0.0
H1255 H 0.01006 0.63966 0.67534 0.0
H1256 H 0.97382 0.63624 0.68764 0.0
H1257 H 0.96804 0.6906 0.68884 0.0
H1258 H 1.00364 0.69242 0.6746 0.0
H1259 H 0.99295 0.71102 0.71286 0.0
H1260 H 0.04712 0.66574 0.81829 0.0
H1261 H 0.09372 0.67024 0.79098 0.0
H1262 H 0.05391 0.67126 0.69145 0.0
C1263 C 0.95026 0.66378 0.75248 0.0
C1264 C 0.93783 0.66138 0.78495 0.0
C1265 C 0.95509 0.65651 0.8138 0.0
C1266 C 0.98428 0.65788 0.81132 0.0
C1267 C 0.99595 0.66261 0.77941 0.0
C1268 C 0.97965 0.66391 0.75028 0.0
C1269 C 0.99785 0.66587 0.71881 0.0
C1270 C 0.99551 0.63888 0.69748 0.0
C1271 C 0.99017 0.69164 0.69756 0.0
C1272 C 0.02667 0.66842 0.73504 0.0
C1273 C 0.02505 0.66609 0.77009 0.0
C1274 C 0.04879 0.66732 0.79081 0.0
C1275 C 0.07509 0.67008 0.77517 0.0
C1276 C 0.07736 0.67179 0.73927 0.0
C1277 C 0.05277 0.6711 0.71903 0.0
H1278 H 0.35109 0.08055 0.78275 0.0
H1279 H 0.37225 0.07083 0.67593 0.0
H1280 H 0.36291 0.02022 0.6794 0.0
H1281 H 0.38862 0.01335 0.80317 0.0
H1282 H 0.36576 1.00604 0.83868 0.0
H1283 H 0.37334 0.04179 0.82712 0.0
H1284 H 0.31994 0.05249 0.82013 0.0
H1285 H 0.31394 0.01727 0.83395 0.0
H1286 H 0.29912 0.02942 0.79401 0.0
H1287 H 0.34624 0.972 0.69268 0.0
H1288 H 0.33787 0.9256 0.71893 0.0
H1289 H 0.33415 0.96476 0.81878 0.0
C1290 C 0.35346 0.06768 0.76016 0.0
C1291 C 0.35976 0.07976 0.72831 0.0
C1292 C 0.36501 0.06217 0.69988 0.0
C1293 C 0.36008 0.03337 0.70165 0.0
C1294 C 0.3514 0.02231 0.73262 0.0
C1295 C 0.34983 0.03853 0.76181 0.0
C1296 C 0.34399 0.02054 0.7927 0.0
C1297 C 0.36945 0.02042 0.81683 0.0
C1298 C 0.31757 0.03051 0.81123 0.0
C1299 C 0.34005 0.99211 0.77583 0.0
C1300 C 0.34451 0.99372 0.74108 0.0
C1301 C 0.34291 0.97029 0.71992 0.0
C1302 C 0.33793 0.94413 0.73494 0.0
C1303 C 0.33463 0.94172 0.77065 0.0
C1304 C 0.33532 0.96611 0.79125 0.0
H1305 H 0.0685 0.34831 0.81229 0.0
H1306 H 0.10571 0.33875 0.71191 0.0
H1307 H 0.05854 0.34049 0.6859 0.0
H1308 H 1.00677 0.30648 0.79857 0.0
H1309 H 0.98262 0.32918 0.82058 0.0
H1310 H 0.01864 0.32836 0.83352 0.0
H1311 H 0.02503 0.38064 0.82543 0.0
H1312 H 0.98855 0.38333 0.81396 0.0
H1313 H 0.0151 0.39664 0.78555 0.0
H1314 H 1.00894 0.35075 0.67061 0.0
H1315 H 0.95763 0.35425 0.66661 0.0
H1316 H 0.95084 0.35054 0.77676 0.0
C1317 C 0.06664 0.34551 0.78498 0.0
C1318 C 0.09074 0.3428 0.76407 0.0
C1319 C 0.08751 0.34054 0.7283 0.0
C1320 C 0.06087 0.34174 0.71334 0.0
C1321 C 0.03768 0.3453 0.73453 0.0
C1322 C 0.0401 0.34649 0.76961 0.0
C1323 C 0.01155 0.35078 0.78619 0.0
C1324 C 1.0045 0.32718 0.81118 0.0
C1325 C 0.00997 0.37956 0.80382 0.0
C1326 C 0.99269 0.34991 0.75514 0.0
C1327 C 1.00846 0.34829 0.72561 0.0
C1328 C 0.99631 0.35051 0.69356 0.0
C1329 C 0.96713 0.35217 0.69157 0.0
C1330 C 0.95028 0.35012 0.72125 0.0
C1331 C 0.96324 0.35045 0.75362 0.0
H1332 H 0.3393 0.07917 0.28636 0.0
H1333 H 0.4272 0.10005 0.27372 0.0
H1334 H 0.43527 0.05469 0.24517 0.0
H1335 H 0.35175 1.00559 0.30607 0.0
H1336 H 0.3207 0.9935 0.28436 0.0
H1337 H 0.32151 0.0281 0.30276 0.0
H1338 H 0.30832 0.04926 0.24406 0.0
H1339 H 0.30782 0.01473 0.22538 0.0
H1340 H 0.3298 0.04164 0.20734 0.0
H1341 H 0.43361 1.00837 0.21556 0.0
H1342 H 0.42441 0.96055 0.19494 0.0
H1343 H 0.33841 0.96672 0.23046 0.0
C1344 C 0.36024 0.07407 0.27768 0.0
C1345 C 0.38264 0.09323 0.2822 0.0
C1346 C 0.40978 0.08571 0.27076 0.0
C1347 C 0.41453 0.06005 0.25424 0.0
C1348 C 0.39202 0.04179 0.2498 0.0
C1349 C 0.36553 0.04812 0.26181 0.0
C1350 C 0.34547 0.0239 0.25531 0.0
C1351 C 0.3342 0.01207 0.28914 0.0
C1352 C 0.32143 0.03294 0.23161 0.0
C1353 C 0.36482 1.00311 0.23766 0.0
C1354 C 0.39143 0.01419 0.23424 0.0
C1355 C 0.41292 0.99939 0.21832 0.0
C1356 C 0.40738 0.97222 0.20646 0.0
C1357 C 0.38068 0.95973 0.21101 0.0
C1358 C 0.35902 0.97564 0.22648 0.0
H1359 H 0.94725 0.40286 0.28525 0.0
H1360 H 0.93464 0.31288 0.29146 0.0
H1361 H 0.97885 0.30512 0.26065 0.0
H1362 H 0.97622 0.40384 0.20138 0.0
H1363 H 1.0021 0.43048 0.2098 0.0
H1364 H 0.96999 0.42977 0.234 0.0
H1365 H 0.99805 0.4275 0.2905 0.0
H1366 H 0.03023 0.42885 0.2665 0.0
H1367 H 0.02416 0.40057 0.29607 0.0
H1368 H 0.02249 0.30638 0.22709 0.0
H1369 H 0.0676 0.31644 0.19922 0.0
H1370 H 0.05399 0.40557 0.21372 0.0
C1371 C 0.95419 0.38156 0.28083 0.0
C1372 C 0.93743 0.35845 0.29094 0.0
C1373 C 0.94704 0.33091 0.28408 0.0
C1374 C 0.97208 0.32626 0.26637 0.0
C1375 C 0.98752 0.34935 0.2556 0.0
C1376 C 0.97937 0.37647 0.26302 0.0
C1377 C 1.00031 0.39737 0.24838 0.0
C1378 C 0.9863 0.41649 0.22182 0.0
C1379 C 0.014 0.41459 0.27707 0.0
C1380 C 0.02134 0.37766 0.23161 0.0
C1381 C 0.01322 0.35009 0.23596 0.0
C1382 C 0.02913 0.32787 0.22355 0.0
C1383 C 0.05464 0.33381 0.20752 0.0
C1384 C 0.06417 0.36175 0.20389 0.0
C1385 C 0.04692 0.38405 0.21536 0.0
H1386 H 0.61425 0.94213 0.30968 0.0
H1387 H 0.70264 0.93438 0.33397 0.0
H1388 H 0.71072 0.98251 0.31348 0.0
H1389 H 0.62353 0.9794 0.23249 0.0
H1390 H 0.5937 1.0022 0.23758 0.0
H1391 H 0.59372 0.96805 0.25715 0.0
H1392 H 0.58441 0.9904 0.31629 0.0
H1393 H 0.58393 0.02462 0.29683 0.0
H1394 H 0.60745 0.01752 0.33178 0.0
H1395 H 0.71035 0.02965 0.28711 0.0
H1396 H 0.70116 0.07499 0.25956 0.0
H1397 H 0.61295 0.0537 0.25074 0.0
C1398 C 0.63512 0.95091 0.31154 0.0
C1399 C 0.65781 0.93456 0.32382 0.0
C1400 C 0.68495 0.94652 0.32492 0.0
C1401 C 0.68976 0.97384 0.31323 0.0
C1402 C 0.66724 0.98908 0.3003 0.0
C1403 C 0.64038 0.97828 0.29962 0.0
C1404 C 0.62026 0.99897 0.28299 0.0
C1405 C 0.60703 0.9864 0.25063 0.0
C1406 C 0.59768 1.00844 0.3085 0.0
C1407 C 0.64011 0.02288 0.27423 0.0
C1408 C 0.66708 0.01657 0.28456 0.0
C1409 C 0.68929 0.03492 0.27912 0.0
C1410 C 0.68382 0.06066 0.26329 0.0
C1411 C 0.65634 0.06805 0.25288 0.0
C1412 C 0.63421 0.04867 0.2582 0.0
H1413 H 0.07165 0.61894 0.27565 0.0
H1414 H 0.08488 0.70885 0.28169 0.0
H1415 H 0.0394 0.71692 0.25392 0.0
H1416 H 0.03862 0.61869 0.19349 0.0
H1417 H 0.01322 0.59199 0.20359 0.0
H1418 H 0.04655 0.59251 0.22523 0.0
H1419 H 0.02149 0.59432 0.28381 0.0
H1420 H 0.9881 0.59324 0.26237 0.0
H1421 H 0.9958 0.62126 0.29179 0.0
H1422 H 0.99377 0.71601 0.22444 0.0
H1423 H 0.94718 0.70615 0.20022 0.0
H1424 H 0.96181 0.6169 0.21178 0.0
C1425 C 0.06467 0.64029 0.27169 0.0
C1426 C 0.08189 0.66328 0.28098 0.0
C1427 C 0.07216 0.6909 0.27487 0.0
C1428 C 0.04637 0.69573 0.25892 0.0
C1429 C 0.03035 0.67275 0.24909 0.0
C1430 C 0.03878 0.64556 0.25559 0.0
C1431 C 0.01709 0.62481 0.24237 0.0
C1432 C 0.02963 0.60588 0.21451 0.0
C1433 C 1.00489 0.60738 0.27184 0.0
C1434 C 0.99527 0.64468 0.22755 0.0
C1435 C 1.00363 0.67221 0.23161 0.0
C1436 C 0.98699 0.69455 0.22104 0.0
C1437 C 0.96061 0.68873 0.20711 0.0
C1438 C 0.95102 0.66081 0.20366 0.0
C1439 C 0.96889 0.63843 0.21329 0.0
loop_
_geom_bond_atom_site_label_1
_geom_bond_atom_site_label_2
_geom_bond_distance
_geom_bond_site_symmetry_2
_ccdc_geom_bond_type
Mn0 O5 2.095 . S
Mn0 O15 2.162 . S
Mn0 O16 2.297 . S
Mn0 O24 2.385 . S
Mn0 O25 2.209 . S
Mn0 O26 2.094 . S
Mn1 O6 2.121 . S
Mn1 N8 2.257 . S
Mn1 N17 2.282 . S
Mn1 O25 2.215 . S
Mn1 O27 2.117 . S
C2 O24 1.234 . S
C2 O25 1.283 . S
C3 O15 1.281 . S
C3 O16 1.236 . S
C4 O26 1.240 . S
C4 O27 1.264 . S
O5 Mn0 2.095 . S
O5 C14 1.250 . S
O6 Mn1 2.121 . S
O6 C14 1.258 . S
C7 N8 1.326 . S
C7 C11 1.460 . S
C7 H13 0.929 . S
N8 Mn1 2.257 . S
N8 C7 1.326 . S
N8 C12 1.362 . S
C9 C10 1.258 . S
C9 C12 1.431 . S
C9 C29 1.449 . S
C10 C9 1.258 . S
C10 C11 1.477 . S
C10 H30 0.931 . S
C11 C7 1.460 . S
C11 C10 1.477 . S
C11 H31 0.930 . S
C12 N8 1.362 . S
C12 C9 1.431 . S
C12 C22 1.476 . S
H13 C7 0.929 . S
C14 O5 1.250 . S
C14 O6 1.258 . S
O15 Mn0 2.162 . S
O15 C3 1.281 . S
O16 Mn0 2.297 . S
O16 C3 1.236 . S
N17 Mn1 2.282 . S
N17 C18 1.328 . S
N17 C22 1.318 . S
C18 N17 1.328 . S
C18 C19 1.457 . S
C18 H23 0.929 . S
C19 C18 1.457 . S
C19 C20 1.291 . S
C19 H32 0.931 . S
C20 C19 1.291 . S
C20 C21 1.373 . S
C20 H33 0.929 . S
C21 C20 1.373 . S
C21 C22 1.396 . S
C21 C28 1.403 . S
C22 C12 1.476 . S
C22 N17 1.318 . S
C22 C21 1.396 . S
H23 C18 0.929 . S
O24 Mn0 2.385 . S
O24 C2 1.234 . S
O25 Mn0 2.209 . S
O25 Mn1 2.215 . S
O25 C2 1.283 . S
O26 Mn0 2.094 . S
O26 C4 1.240 . S
O27 Mn1 2.117 . S
O27 C4 1.264 . S
C28 C21 1.403 . S
C28 C29 1.399 . S
C28 H34 0.929 . S
C29 C9 1.449 . S
C29 C28 1.399 . S
C29 H35 0.930 . S
H30 C10 0.931 . S
H31 C11 0.930 . S
H32 C19 0.931 . S
H33 C20 0.929 . S
H34 C28 0.929 . S
H35 C29 0.930 . S
Mn36 O41 2.095 . S
Mn36 O51 2.162 . S
Mn36 O52 2.297 . S
Mn36 O60 2.385 . S
Mn36 O61 2.209 . S
Mn36 O62 2.094 . S
Mn37 O42 2.121 . S
Mn37 N44 2.257 . S
Mn37 N53 2.282 . S
Mn37 O61 2.215 . S
Mn37 O63 2.117 . S
C38 O60 1.234 . S
C38 O61 1.283 . S
C39 O51 1.281 . S
C39 O52 1.236 . S
C40 O62 1.240 . S
C40 O63 1.264 . S
O41 Mn36 2.095 . S
O41 C50 1.250 . S
O42 Mn37 2.121 . S
O42 C50 1.258 . S
C43 N44 1.326 . S
C43 C47 1.460 . S
C43 H49 0.929 . S
N44 Mn37 2.257 . S
N44 C43 1.326 . S
N44 C48 1.362 . S
C45 C46 1.258 . S
C45 C48 1.431 . S
C45 C65 1.449 . S
C46 C45 1.258 . S
C46 C47 1.477 . S
C46 H66 0.931 . S
C47 C43 1.460 . S
C47 C46 1.477 . S
C47 H67 0.930 . S
C48 N44 1.362 . S
C48 C45 1.431 . S
C48 C58 1.476 . S
H49 C43 0.929 . S
C50 O41 1.250 . S
C50 O42 1.258 . S
O51 Mn36 2.162 . S
O51 C39 1.281 . S
O52 Mn36 2.297 . S
O52 C39 1.236 . S
N53 Mn37 2.282 . S
N53 C54 1.328 . S
N53 C58 1.318 . S
C54 N53 1.328 . S
C54 C55 1.457 . S
C54 H59 0.929 . S
C55 C54 1.457 . S
C55 C56 1.291 . S
C55 H68 0.931 . S
C56 C55 1.291 . S
C56 C57 1.373 . S
C56 H69 0.929 . S
C57 C56 1.373 . S
C57 C58 1.396 . S
C57 C64 1.403 . S
C58 C48 1.476 . S
C58 N53 1.318 . S
C58 C57 1.396 . S
H59 C54 0.929 . S
O60 Mn36 2.385 . S
O60 C38 1.234 . S
O61 Mn36 2.209 . S
O61 Mn37 2.215 . S
O61 C38 1.283 . S
O62 Mn36 2.094 . S
O62 C40 1.240 . S
O63 Mn37 2.117 . S
O63 C40 1.264 . S
C64 C57 1.403 . S
C64 C65 1.399 . S
C64 H70 0.929 . S
C65 C45 1.449 . S
C65 C64 1.399 . S
C65 H71 0.930 . S
H66 C46 0.931 . S
H67 C47 0.930 . S
H68 C55 0.931 . S
H69 C56 0.929 . S
H70 C64 0.929 . S
H71 C65 0.930 . S
Mn72 O77 2.095 . S
Mn72 O87 2.162 . S
Mn72 O88 2.297 . S
Mn72 O96 2.385 . S
Mn72 O97 2.209 . S
Mn72 O98 2.094 . S
Mn73 O78 2.121 . S
Mn73 N80 2.257 . S
Mn73 N89 2.282 . S
Mn73 O97 2.215 . S
Mn73 O99 2.117 . S
C74 O96 1.234 . S
C74 O97 1.283 . S
C75 O87 1.281 . S
C75 O88 1.236 . S
C76 O98 1.240 . S
C76 O99 1.264 . S
O77 Mn72 2.095 . S
O77 C86 1.250 . S
O78 Mn73 2.121 . S
O78 C86 1.258 . S
C79 N80 1.326 . S
C79 C83 1.460 . S
C79 H85 0.929 . S
N80 Mn73 2.257 . S
N80 C79 1.326 . S
N80 C84 1.362 . S
C81 C82 1.258 . S
C81 C84 1.431 . S
C81 C101 1.449 . S
C82 C81 1.258 . S
C82 C83 1.477 . S
C82 H102 0.931 . S
C83 C79 1.460 . S
C83 C82 1.477 . S
C83 H103 0.930 . S
C84 N80 1.362 . S
C84 C81 1.431 . S
C84 C94 1.476 . S
H85 C79 0.929 . S
C86 O77 1.250 . S
C86 O78 1.258 . S
O87 Mn72 2.162 . S
O87 C75 1.281 . S
O88 Mn72 2.297 . S
O88 C75 1.236 . S
N89 Mn73 2.282 . S
N89 C90 1.328 . S
N89 C94 1.318 . S
C90 N89 1.328 . S
C90 C91 1.457 . S
C90 H95 0.929 . S
C91 C90 1.457 . S
C91 C92 1.291 . S
C91 H104 0.931 . S
C92 C91 1.291 . S
C92 C93 1.373 . S
C92 H105 0.929 . S
C93 C92 1.373 . S
C93 C94 1.396 . S
C93 C100 1.403 . S
C94 C84 1.476 . S
C94 N89 1.318 . S
C94 C93 1.396 . S
H95 C90 0.929 . S
O96 Mn72 2.385 . S
O96 C74 1.234 . S
O97 Mn72 2.209 . S
O97 Mn73 2.215 . S
O97 C74 1.283 . S
O98 Mn72 2.094 . S
O98 C76 1.240 . S
O99 Mn73 2.117 . S
O99 C76 1.264 . S
C100 C93 1.403 . S
C100 C101 1.399 . S
C100 H106 0.929 . S
C101 C81 1.449 . S
C101 C100 1.399 . S
C101 H107 0.930 . S
H102 C82 0.931 . S
H103 C83 0.930 . S
H104 C91 0.931 . S
H105 C92 0.929 . S
H106 C100 0.929 . S
H107 C101 0.930 . S
Mn108 O113 2.095 . S
Mn108 O123 2.162 . S
Mn108 O124 2.297 . S
Mn108 O132 2.385 . S
Mn108 O133 2.209 . S
Mn108 O134 2.094 . S
Mn109 O114 2.121 . S
Mn109 N116 2.257 . S
Mn109 N125 2.282 . S
Mn109 O133 2.215 . S
Mn109 O135 2.117 . S
C110 O132 1.234 . S
C110 O133 1.283 . S
C111 O123 1.281 . S
C111 O124 1.236 . S
C112 O134 1.240 . S
C112 O135 1.264 . S
O113 Mn108 2.095 . S
O113 C122 1.250 . S
O114 Mn109 2.121 . S
O114 C122 1.258 . S
C115 N116 1.326 . S
C115 C119 1.460 . S
C115 H121 0.929 . S
N116 Mn109 2.257 . S
N116 C115 1.326 . S
N116 C120 1.362 . S
C117 C118 1.258 . S
C117 C120 1.431 . S
C117 C137 1.449 . S
C118 C117 1.258 . S
C118 C119 1.477 . S
C118 H138 0.931 . S
C119 C115 1.460 . S
C119 C118 1.477 . S
C119 H139 0.930 . S
C120 N116 1.362 . S
C120 C117 1.431 . S
C120 C130 1.476 . S
H121 C115 0.929 . S
C122 O113 1.250 . S
C122 O114 1.258 . S
O123 Mn108 2.162 . S
O123 C111 1.281 . S
O124 Mn108 2.297 . S
O124 C111 1.236 . S
N125 Mn109 2.282 . S
N125 C126 1.328 . S
N125 C130 1.318 . S
C126 N125 1.328 . S
C126 C127 1.457 . S
C126 H131 0.929 . S
C127 C126 1.457 . S
C127 C128 1.291 . S
C127 H140 0.931 . S
C128 C127 1.291 . S
C128 C129 1.373 . S
C128 H141 0.929 . S
C129 C128 1.373 . S
C129 C130 1.396 . S
C129 C136 1.403 . S
C130 C120 1.476 . S
C130 N125 1.318 . S
C130 C129 1.396 . S
H131 C126 0.929 . S
O132 Mn108 2.385 . S
O132 C110 1.234 . S
O133 Mn108 2.209 . S
O133 Mn109 2.215 . S
O133 C110 1.283 . S
O134 Mn108 2.094 . S
O134 C112 1.240 . S
O135 Mn109 2.117 . S
O135 C112 1.264 . S
C136 C129 1.403 . S
C136 C137 1.399 . S
C136 H142 0.929 . S
C137 C117 1.449 . S
C137 C136 1.399 . S
C137 H143 0.930 . S
H138 C118 0.931 . S
H139 C119 0.930 . S
H140 C127 0.931 . S
H141 C128 0.929 . S
H142 C136 0.929 . S
H143 C137 0.930 . S
Mn144 O149 2.095 . S
Mn144 O159 2.162 . S
Mn144 O160 2.297 . S
Mn144 O168 2.385 . S
Mn144 O169 2.209 . S
Mn144 O170 2.094 . S
Mn145 O150 2.121 . S
Mn145 N152 2.257 . S
Mn145 N161 2.282 . S
Mn145 O169 2.215 . S
Mn145 O171 2.117 . S
C146 O168 1.234 . S
C146 O169 1.283 . S
C147 O159 1.281 . S
C147 O160 1.236 . S
C148 O170 1.240 . S
C148 O171 1.264 . S
O149 Mn144 2.095 . S
O149 C158 1.250 . S
O150 Mn145 2.121 . S
O150 C158 1.258 . S
C151 N152 1.326 . S
C151 C155 1.460 . S
C151 H157 0.929 . S
N152 Mn145 2.257 . S
N152 C151 1.326 . S
N152 C156 1.362 . S
C153 C154 1.258 . S
C153 C156 1.431 . S
C153 C173 1.449 . S
C154 C153 1.258 . S
C154 C155 1.477 . S
C154 H174 0.931 . S
C155 C151 1.460 . S
C155 C154 1.477 . S
C155 H175 0.930 . S
C156 N152 1.362 . S
C156 C153 1.431 . S
C156 C166 1.476 . S
H157 C151 0.929 . S
C158 O149 1.250 . S
C158 O150 1.258 . S
O159 Mn144 2.162 . S
O159 C147 1.281 . S
O160 Mn144 2.297 . S
O160 C147 1.236 . S
N161 Mn145 2.282 . S
N161 C162 1.328 . S
N161 C166 1.318 . S
C162 N161 1.328 . S
C162 C163 1.457 . S
C162 H167 0.929 . S
C163 C162 1.457 . S
C163 C164 1.291 . S
C163 H176 0.931 . S
C164 C163 1.291 . S
C164 C165 1.373 . S
C164 H177 0.929 . S
C165 C164 1.373 . S
C165 C166 1.396 . S
C165 C172 1.403 . S
C166 C156 1.476 . S
C166 N161 1.318 . S
C166 C165 1.396 . S
H167 C162 0.929 . S
O168 Mn144 2.385 . S
O168 C146 1.234 . S
O169 Mn144 2.209 . S
O169 Mn145 2.215 . S
O169 C146 1.283 . S
O170 Mn144 2.094 . S
O170 C148 1.240 . S
O171 Mn145 2.117 . S
O171 C148 1.264 . S
C172 C165 1.403 . S
C172 C173 1.399 . S
C172 H178 0.929 . S
C173 C153 1.449 . S
C173 C172 1.399 . S
C173 H179 0.930 . S
H174 C154 0.931 . S
H175 C155 0.930 . S
H176 C163 0.931 . S
H177 C164 0.929 . S
H178 C172 0.929 . S
H179 C173 0.930 . S
Mn180 O185 2.095 . S
Mn180 O195 2.162 . S
Mn180 O196 2.297 . S
Mn180 O204 2.385 . S
Mn180 O205 2.209 . S
Mn180 O206 2.094 . S
Mn181 O186 2.121 . S
Mn181 N188 2.257 . S
Mn181 N197 2.282 . S
Mn181 O205 2.215 . S
Mn181 O207 2.117 . S
C182 O204 1.234 . S
C182 O205 1.283 . S
C183 O195 1.281 . S
C183 O196 1.236 . S
C184 O206 1.240 . S
C184 O207 1.264 . S
O185 Mn180 2.095 . S
O185 C194 1.250 . S
O186 Mn181 2.121 . S
O186 C194 1.258 . S
C187 N188 1.326 . S
C187 C191 1.460 . S
C187 H193 0.929 . S
N188 Mn181 2.257 . S
N188 C187 1.326 . S
N188 C192 1.362 . S
C189 C190 1.258 . S
C189 C192 1.431 . S
C189 C209 1.449 . S
C190 C189 1.258 . S
C190 C191 1.477 . S
C190 H210 0.931 . S
C191 C187 1.460 . S
C191 C190 1.477 . S
C191 H211 0.930 . S
C192 N188 1.362 . S
C192 C189 1.431 . S
C192 C202 1.476 . S
H193 C187 0.929 . S
C194 O185 1.250 . S
C194 O186 1.258 . S
O195 Mn180 2.162 . S
O195 C183 1.281 . S
O196 Mn180 2.297 . S
O196 C183 1.236 . S
N197 Mn181 2.282 . S
N197 C198 1.328 . S
N197 C202 1.318 . S
C198 N197 1.328 . S
C198 C199 1.457 . S
C198 H203 0.929 . S
C199 C198 1.457 . S
C199 C200 1.291 . S
C199 H212 0.931 . S
C200 C199 1.291 . S
C200 C201 1.373 . S
C200 H213 0.929 . S
C201 C200 1.373 . S
C201 C202 1.396 . S
C201 C208 1.403 . S
C202 C192 1.476 . S
C202 N197 1.318 . S
C202 C201 1.396 . S
H203 C198 0.929 . S
O204 Mn180 2.385 . S
O204 C182 1.234 . S
O205 Mn180 2.209 . S
O205 Mn181 2.215 . S
O205 C182 1.283 . S
O206 Mn180 2.094 . S
O206 C184 1.240 . S
O207 Mn181 2.117 . S
O207 C184 1.264 . S
C208 C201 1.403 . S
C208 C209 1.399 . S
C208 H214 0.929 . S
C209 C189 1.449 . S
C209 C208 1.399 . S
C209 H215 0.930 . S
H210 C190 0.931 . S
H211 C191 0.930 . S
H212 C199 0.931 . S
H213 C200 0.929 . S
H214 C208 0.929 . S
H215 C209 0.930 . S
Mn216 O221 2.095 . S
Mn216 O231 2.162 . S
Mn216 O232 2.297 . S
Mn216 O240 2.385 . S
Mn216 O241 2.209 . S
Mn216 O242 2.094 . S
Mn217 O222 2.121 . S
Mn217 N224 2.257 . S
Mn217 N233 2.282 . S
Mn217 O241 2.215 . S
Mn217 O243 2.117 . S
C218 O240 1.234 . S
C218 O241 1.283 . S
C219 O231 1.281 . S
C219 O232 1.236 . S
C220 O242 1.240 . S
C220 O243 1.264 . S
O221 Mn216 2.095 . S
O221 C230 1.250 . S
O222 Mn217 2.121 . S
O222 C230 1.258 . S
C223 N224 1.326 . S
C223 C227 1.460 . S
C223 H229 0.929 . S
N224 Mn217 2.257 . S
N224 C223 1.326 . S
N224 C228 1.362 . S
C225 C226 1.258 . S
C225 C228 1.431 . S
C225 C245 1.449 . S
C226 C225 1.258 . S
C226 C227 1.477 . S
C226 H246 0.931 . S
C227 C223 1.460 . S
C227 C226 1.477 . S
C227 H247 0.930 . S
C228 N224 1.362 . S
C228 C225 1.431 . S
C228 C238 1.476 . S
H229 C223 0.929 . S
C230 O221 1.250 . S
C230 O222 1.258 . S
O231 Mn216 2.162 . S
O231 C219 1.281 . S
O232 Mn216 2.297 . S
O232 C219 1.236 . S
N233 Mn217 2.282 . S
N233 C234 1.328 . S
N233 C238 1.318 . S
C234 N233 1.328 . S
C234 C235 1.457 . S
C234 H239 0.929 . S
C235 C234 1.457 . S
C235 C236 1.291 . S
C235 H248 0.931 . S
C236 C235 1.291 . S
C236 C237 1.373 . S
C236 H249 0.929 . S
C237 C236 1.373 . S
C237 C238 1.396 . S
C237 C244 1.403 . S
C238 C228 1.476 . S
C238 N233 1.318 . S
C238 C237 1.396 . S
H239 C234 0.929 . S
O240 Mn216 2.385 . S
O240 C218 1.234 . S
O241 Mn216 2.209 . S
O241 Mn217 2.215 . S
O241 C218 1.283 . S
O242 Mn216 2.094 . S
O242 C220 1.240 . S
O243 Mn217 2.117 . S
O243 C220 1.264 . S
C244 C237 1.403 . S
C244 C245 1.399 . S
C244 H250 0.929 . S
C245 C225 1.449 . S
C245 C244 1.399 . S
C245 H251 0.930 . S
H246 C226 0.931 . S
H247 C227 0.930 . S
H248 C235 0.931 . S
H249 C236 0.929 . S
H250 C244 0.929 . S
H251 C245 0.930 . S
Mn252 O257 2.095 . S
Mn252 O267 2.162 . S
Mn252 O268 2.297 . S
Mn252 O276 2.385 . S
Mn252 O277 2.209 . S
Mn252 O278 2.094 . S
Mn253 O258 2.121 . S
Mn253 N260 2.257 . S
Mn253 N269 2.282 . S
Mn253 O277 2.215 . S
Mn253 O279 2.117 . S
C254 O276 1.234 . S
C254 O277 1.283 . S
C255 O267 1.281 . S
C255 O268 1.236 . S
C256 O278 1.240 . S
C256 O279 1.264 . S
O257 Mn252 2.095 . S
O257 C266 1.250 . S
O258 Mn253 2.121 . S
O258 C266 1.258 . S
C259 N260 1.326 . S
C259 C263 1.460 . S
C259 H265 0.929 . S
N260 Mn253 2.257 . S
N260 C259 1.326 . S
N260 C264 1.362 . S
C261 C262 1.258 . S
C261 C264 1.431 . S
C261 C281 1.449 . S
C262 C261 1.258 . S
C262 C263 1.477 . S
C262 H282 0.931 . S
C263 C259 1.460 . S
C263 C262 1.477 . S
C263 H283 0.930 . S
C264 N260 1.362 . S
C264 C261 1.431 . S
C264 C274 1.476 . S
H265 C259 0.929 . S
C266 O257 1.250 . S
C266 O258 1.258 . S
O267 Mn252 2.162 . S
O267 C255 1.281 . S
O268 Mn252 2.297 . S
O268 C255 1.236 . S
N269 Mn253 2.282 . S
N269 C270 1.328 . S
N269 C274 1.318 . S
C270 N269 1.328 . S
C270 C271 1.457 . S
C270 H275 0.929 . S
C271 C270 1.457 . S
C271 C272 1.291 . S
C271 H284 0.931 . S
C272 C271 1.291 . S
C272 C273 1.373 . S
C272 H285 0.929 . S
C273 C272 1.373 . S
C273 C274 1.396 . S
C273 C280 1.403 . S
C274 C264 1.476 . S
C274 N269 1.318 . S
C274 C273 1.396 . S
H275 C270 0.929 . S
O276 Mn252 2.385 . S
O276 C254 1.234 . S
O277 Mn252 2.209 . S
O277 Mn253 2.215 . S
O277 C254 1.283 . S
O278 Mn252 2.094 . S
O278 C256 1.240 . S
O279 Mn253 2.117 . S
O279 C256 1.264 . S
C280 C273 1.403 . S
C280 C281 1.399 . S
C280 H286 0.929 . S
C281 C261 1.449 . S
C281 C280 1.399 . S
C281 H287 0.930 . S
H282 C262 0.931 . S
H283 C263 0.930 . S
H284 C271 0.931 . S
H285 C272 0.929 . S
H286 C280 0.929 . S
H287 C281 0.930 . S
Mn288 O293 2.095 . S
Mn288 O303 2.162 . S
Mn288 O304 2.297 . S
Mn288 O312 2.385 . S
Mn288 O313 2.209 . S
Mn288 O314 2.094 . S
Mn289 O294 2.121 . S
Mn289 N296 2.257 . S
Mn289 N305 2.282 . S
Mn289 O313 2.215 . S
Mn289 O315 2.117 . S
C290 O312 1.234 . S
C290 O313 1.283 . S
C291 O303 1.281 . S
C291 O304 1.236 . S
C292 O314 1.240 . S
C292 O315 1.264 . S
O293 Mn288 2.095 . S
O293 C302 1.250 . S
O294 Mn289 2.121 . S
O294 C302 1.258 . S
C295 N296 1.326 . S
C295 C299 1.460 . S
C295 H301 0.929 . S
N296 Mn289 2.257 . S
N296 C295 1.326 . S
N296 C300 1.362 . S
C297 C298 1.258 . S
C297 C300 1.431 . S
C297 C317 1.449 . S
C298 C297 1.258 . S
C298 C299 1.477 . S
C298 H318 0.931 1_655 S
C299 C295 1.460 . S
C299 C298 1.477 . S
C299 H319 0.930 . S
C300 N296 1.362 . S
C300 C297 1.431 . S
C300 C310 1.476 . S
H301 C295 0.929 . S
C302 O293 1.250 . S
C302 O294 1.258 . S
O303 Mn288 2.162 . S
O303 C291 1.281 . S
O304 Mn288 2.297 . S
O304 C291 1.236 . S
N305 Mn289 2.282 . S
N305 C306 1.328 . S
N305 C310 1.318 . S
C306 N305 1.328 . S
C306 C307 1.457 . S
C306 H311 0.929 . S
C307 C306 1.457 . S
C307 C308 1.291 . S
C307 H320 0.931 . S
C308 C307 1.291 . S
C308 C309 1.373 . S
C308 H321 0.929 . S
C309 C308 1.373 . S
C309 C310 1.396 . S
C309 C316 1.403 . S
C310 C300 1.476 . S
C310 N305 1.318 . S
C310 C309 1.396 . S
H311 C306 0.929 . S
O312 Mn288 2.385 . S
O312 C290 1.234 . S
O313 Mn288 2.209 . S
O313 Mn289 2.215 . S
O313 C290 1.283 . S
O314 Mn288 2.094 . S
O314 C292 1.240 . S
O315 Mn289 2.117 . S
O315 C292 1.264 . S
C316 C309 1.403 . S
C316 C317 1.399 . S
C316 H322 0.929 . S
C317 C297 1.449 . S
C317 C316 1.399 . S
C317 H323 0.930 1_655 S
H318 C298 0.931 1_455 S
H319 C299 0.930 . S
H320 C307 0.931 . S
H321 C308 0.929 . S
H322 C316 0.929 . S
H323 C317 0.930 1_455 S
Mn324 O329 2.095 . S
Mn324 O339 2.162 . S
Mn324 O340 2.297 . S
Mn324 O348 2.385 . S
Mn324 O349 2.209 . S
Mn324 O350 2.094 . S
Mn325 O330 2.121 . S
Mn325 N332 2.257 . S
Mn325 N341 2.282 . S
Mn325 O349 2.215 . S
Mn325 O351 2.117 . S
C326 O348 1.234 . S
C326 O349 1.283 . S
C327 O339 1.281 . S
C327 O340 1.236 . S
C328 O350 1.240 . S
C328 O351 1.264 . S
O329 Mn324 2.095 . S
O329 C338 1.250 . S
O330 Mn325 2.121 . S
O330 C338 1.258 . S
C331 N332 1.326 . S
C331 C335 1.460 . S
C331 H337 0.929 . S
N332 Mn325 2.257 . S
N332 C331 1.326 . S
N332 C336 1.362 . S
C333 C334 1.258 . S
C333 C336 1.431 . S
C333 C353 1.449 . S
C334 C333 1.258 . S
C334 C335 1.477 . S
C334 H354 0.931 1_565 S
C335 C331 1.460 . S
C335 C334 1.477 . S
C335 H355 0.930 . S
C336 N332 1.362 . S
C336 C333 1.431 . S
C336 C346 1.476 . S
H337 C331 0.929 . S
C338 O329 1.250 . S
C338 O330 1.258 . S
O339 Mn324 2.162 . S
O339 C327 1.281 . S
O340 Mn324 2.297 . S
O340 C327 1.236 . S
N341 Mn325 2.282 . S
N341 C342 1.328 . S
N341 C346 1.318 . S
C342 N341 1.328 . S
C342 C343 1.457 . S
C342 H347 0.929 . S
C343 C342 1.457 . S
C343 C344 1.291 . S
C343 H356 0.931 . S
C344 C343 1.291 . S
C344 C345 1.373 . S
C344 H357 0.929 . S
C345 C344 1.373 . S
C345 C346 1.396 . S
C345 C352 1.403 . S
C346 C336 1.476 . S
C346 N341 1.318 . S
C346 C345 1.396 . S
H347 C342 0.929 . S
O348 Mn324 2.385 . S
O348 C326 1.234 . S
O349 Mn324 2.209 . S
O349 Mn325 2.215 . S
O349 C326 1.283 . S
O350 Mn324 2.094 . S
O350 C328 1.240 . S
O351 Mn325 2.117 . S
O351 C328 1.264 . S
C352 C345 1.403 . S
C352 C353 1.399 . S
C352 H358 0.929 . S
C353 C333 1.449 . S
C353 C352 1.399 . S
C353 H359 0.930 1_565 S
H354 C334 0.931 1_545 S
H355 C335 0.930 . S
H356 C343 0.931 . S
H357 C344 0.929 . S
H358 C352 0.929 . S
H359 C353 0.930 1_545 S
Mn360 O365 2.095 . S
Mn360 O375 2.162 . S
Mn360 O376 2.297 . S
Mn360 O384 2.385 . S
Mn360 O385 2.209 . S
Mn360 O386 2.094 . S
Mn361 O366 2.121 . S
Mn361 N368 2.257 . S
Mn361 N377 2.282 . S
Mn361 O385 2.215 . S
Mn361 O387 2.117 . S
C362 O384 1.234 . S
C362 O385 1.283 . S
C363 O375 1.281 . S
C363 O376 1.236 . S
C364 O386 1.240 . S
C364 O387 1.264 . S
O365 Mn360 2.095 . S
O365 C374 1.250 . S
O366 Mn361 2.121 . S
O366 C374 1.258 . S
C367 N368 1.326 . S
C367 C371 1.460 . S
C367 H373 0.929 . S
N368 Mn361 2.257 . S
N368 C367 1.326 . S
N368 C372 1.362 . S
C369 C370 1.258 . S
C369 C372 1.431 . S
C369 C389 1.449 . S
C370 C369 1.258 . S
C370 C371 1.477 . S
C370 H390 0.931 1_455 S
C371 C367 1.460 . S
C371 C370 1.477 . S
C371 H391 0.930 . S
C372 N368 1.362 . S
C372 C369 1.431 . S
C372 C382 1.476 . S
H373 C367 0.929 . S
C374 O365 1.250 . S
C374 O366 1.258 . S
O375 Mn360 2.162 . S
O375 C363 1.281 . S
O376 Mn360 2.297 . S
O376 C363 1.236 . S
N377 Mn361 2.282 . S
N377 C378 1.328 . S
N377 C382 1.318 . S
C378 N377 1.328 . S
C378 C379 1.457 . S
C378 H383 0.929 . S
C379 C378 1.457 . S
C379 C380 1.291 . S
C379 H392 0.931 . S
C380 C379 1.291 . S
C380 C381 1.373 . S
C380 H393 0.929 . S
C381 C380 1.373 . S
C381 C382 1.396 . S
C381 C388 1.403 . S
C382 C372 1.476 . S
C382 N377 1.318 . S
C382 C381 1.396 . S
H383 C378 0.929 . S
O384 Mn360 2.385 . S
O384 C362 1.234 . S
O385 Mn360 2.209 . S
O385 Mn361 2.215 . S
O385 C362 1.283 . S
O386 Mn360 2.094 . S
O386 C364 1.240 . S
O387 Mn361 2.117 . S
O387 C364 1.264 . S
C388 C381 1.403 . S
C388 C389 1.399 . S
C388 H394 0.929 . S
C389 C369 1.449 . S
C389 C388 1.399 . S
C389 H395 0.930 1_455 S
H390 C370 0.931 1_655 S
H391 C371 0.930 . S
H392 C379 0.931 . S
H393 C380 0.929 . S
H394 C388 0.929 . S
H395 C389 0.930 1_655 S
Mn396 O401 2.095 . S
Mn396 O411 2.162 . S
Mn396 O412 2.297 . S
Mn396 O420 2.385 . S
Mn396 O421 2.209 . S
Mn396 O422 2.094 . S
Mn397 O402 2.121 . S
Mn397 N404 2.257 . S
Mn397 N413 2.282 . S
Mn397 O421 2.215 . S
Mn397 O423 2.117 . S
C398 O420 1.234 . S
C398 O421 1.283 . S
C399 O411 1.281 . S
C399 O412 1.236 . S
C400 O422 1.240 . S
C400 O423 1.264 . S
O401 Mn396 2.095 . S
O401 C410 1.250 . S
O402 Mn397 2.121 . S
O402 C410 1.258 . S
C403 N404 1.326 . S
C403 C407 1.460 . S
C403 H409 0.929 . S
N404 Mn397 2.257 . S
N404 C403 1.326 . S
N404 C408 1.362 . S
C405 C406 1.258 . S
C405 C408 1.431 . S
C405 C425 1.449 . S
C406 C405 1.258 . S
C406 C407 1.477 . S
C406 H426 0.931 1_545 S
C407 C403 1.460 . S
C407 C406 1.477 . S
C407 H427 0.930 . S
C408 N404 1.362 . S
C408 C405 1.431 . S
C408 C418 1.476 . S
H409 C403 0.929 . S
C410 O401 1.250 . S
C410 O402 1.258 . S
O411 Mn396 2.162 . S
O411 C399 1.281 . S
O412 Mn396 2.297 . S
O412 C399 1.236 . S
N413 Mn397 2.282 . S
N413 C414 1.328 . S
N413 C418 1.318 . S
C414 N413 1.328 . S
C414 C415 1.457 . S
C414 H419 0.929 . S
C415 C414 1.457 . S
C415 C416 1.291 . S
C415 H428 0.931 . S
C416 C415 1.291 . S
C416 C417 1.373 . S
C416 H429 0.929 . S
C417 C416 1.373 . S
C417 C418 1.396 . S
C417 C424 1.403 . S
C418 C408 1.476 . S
C418 N413 1.318 . S
C418 C417 1.396 . S
H419 C414 0.929 . S
O420 Mn396 2.385 . S
O420 C398 1.234 . S
O421 Mn396 2.209 . S
O421 Mn397 2.215 . S
O421 C398 1.283 . S
O422 Mn396 2.094 . S
O422 C400 1.240 . S
O423 Mn397 2.117 . S
O423 C400 1.264 . S
C424 C417 1.403 . S
C424 C425 1.399 . S
C424 H430 0.929 . S
C425 C405 1.449 . S
C425 C424 1.399 . S
C425 H431 0.930 1_545 S
H426 C406 0.931 1_565 S
H427 C407 0.930 . S
H428 C415 0.931 . S
H429 C416 0.929 . S
H430 C424 0.929 . S
H431 C425 0.930 1_565 S
Mn432 O437 2.095 . S
Mn432 O447 2.162 . S
Mn432 O448 2.297 . S
Mn432 O456 2.385 . S
Mn432 O457 2.209 . S
Mn432 O458 2.094 . S
Mn433 O438 2.121 . S
Mn433 N440 2.257 . S
Mn433 N449 2.282 . S
Mn433 O457 2.215 . S
Mn433 O459 2.117 . S
C434 O456 1.234 . S
C434 O457 1.283 . S
C435 O447 1.281 . S
C435 O448 1.236 . S
C436 O458 1.240 . S
C436 O459 1.264 . S
O437 Mn432 2.095 . S
O437 C446 1.250 . S
O438 Mn433 2.121 . S
O438 C446 1.258 . S
C439 N440 1.326 . S
C439 C443 1.460 . S
C439 H445 0.929 . S
N440 Mn433 2.257 . S
N440 C439 1.326 . S
N440 C444 1.362 . S
C441 C442 1.258 . S
C441 C444 1.431 . S
C441 C461 1.449 . S
C442 C441 1.258 . S
C442 C443 1.477 . S
C442 H462 0.931 1_655 S
C443 C439 1.460 . S
C443 C442 1.477 . S
C443 H463 0.930 . S
C444 N440 1.362 . S
C444 C441 1.431 . S
C444 C454 1.476 . S
H445 C439 0.929 . S
C446 O437 1.250 . S
C446 O438 1.258 . S
O447 Mn432 2.162 . S
O447 C435 1.281 . S
O448 Mn432 2.297 . S
O448 C435 1.236 . S
N449 Mn433 2.282 . S
N449 C450 1.328 . S
N449 C454 1.318 . S
C450 N449 1.328 . S
C450 C451 1.457 . S
C450 H455 0.929 . S
C451 C450 1.457 . S
C451 C452 1.291 . S
C451 H464 0.931 . S
C452 C451 1.291 . S
C452 C453 1.373 . S
C452 H465 0.929 . S
C453 C452 1.373 . S
C453 C454 1.396 . S
C453 C460 1.403 . S
C454 C444 1.476 . S
C454 N449 1.318 . S
C454 C453 1.396 . S
H455 C450 0.929 . S
O456 Mn432 2.385 . S
O456 C434 1.234 . S
O457 Mn432 2.209 . S
O457 Mn433 2.215 . S
O457 C434 1.283 . S
O458 Mn432 2.094 . S
O458 C436 1.240 . S
O459 Mn433 2.117 . S
O459 C436 1.264 . S
C460 C453 1.403 . S
C460 C461 1.399 . S
C460 H466 0.929 . S
C461 C441 1.449 . S
C461 C460 1.399 . S
C461 H467 0.930 1_655 S
H462 C442 0.931 1_455 S
H463 C443 0.930 . S
H464 C451 0.931 . S
H465 C452 0.929 . S
H466 C460 0.929 . S
H467 C461 0.930 1_455 S
Mn468 O473 2.095 . S
Mn468 O483 2.162 . S
Mn468 O484 2.297 . S
Mn468 O492 2.385 . S
Mn468 O493 2.209 . S
Mn468 O494 2.094 . S
Mn469 O474 2.121 . S
Mn469 N476 2.257 . S
Mn469 N485 2.282 . S
Mn469 O493 2.215 . S
Mn469 O495 2.117 . S
C470 O492 1.234 . S
C470 O493 1.283 . S
C471 O483 1.281 . S
C471 O484 1.236 . S
C472 O494 1.240 . S
C472 O495 1.264 . S
O473 Mn468 2.095 . S
O473 C482 1.250 . S
O474 Mn469 2.121 . S
O474 C482 1.258 . S
C475 N476 1.326 . S
C475 C479 1.460 . S
C475 H481 0.929 . S
N476 Mn469 2.257 . S
N476 C475 1.326 . S
N476 C480 1.362 . S
C477 C478 1.258 . S
C477 C480 1.431 . S
C477 C497 1.449 . S
C478 C477 1.258 . S
C478 C479 1.477 . S
C478 H498 0.931 1_565 S
C479 C475 1.460 . S
C479 C478 1.477 . S
C479 H499 0.930 . S
C480 N476 1.362 . S
C480 C477 1.431 . S
C480 C490 1.476 . S
H481 C475 0.929 . S
C482 O473 1.250 . S
C482 O474 1.258 . S
O483 Mn468 2.162 . S
O483 C471 1.281 . S
O484 Mn468 2.297 . S
O484 C471 1.236 . S
N485 Mn469 2.282 . S
N485 C486 1.328 . S
N485 C490 1.318 . S
C486 N485 1.328 . S
C486 C487 1.457 . S
C486 H491 0.929 . S
C487 C486 1.457 . S
C487 C488 1.291 . S
C487 H500 0.931 . S
C488 C487 1.291 . S
C488 C489 1.373 . S
C488 H501 0.929 . S
C489 C488 1.373 . S
C489 C490 1.396 . S
C489 C496 1.403 . S
C490 C480 1.476 . S
C490 N485 1.318 . S
C490 C489 1.396 . S
H491 C486 0.929 . S
O492 Mn468 2.385 . S
O492 C470 1.234 . S
O493 Mn468 2.209 . S
O493 Mn469 2.215 . S
O493 C470 1.283 . S
O494 Mn468 2.094 . S
O494 C472 1.240 . S
O495 Mn469 2.117 . S
O495 C472 1.264 . S
C496 C489 1.403 . S
C496 C497 1.399 . S
C496 H502 0.929 . S
C497 C477 1.449 . S
C497 C496 1.399 . S
C497 H503 0.930 1_565 S
H498 C478 0.931 1_545 S
H499 C479 0.930 . S
H500 C487 0.931 . S
H501 C488 0.929 . S
H502 C496 0.929 . S
H503 C497 0.930 1_545 S
Mn504 O509 2.095 . S
Mn504 O519 2.162 . S
Mn504 O520 2.297 . S
Mn504 O528 2.385 . S
Mn504 O529 2.209 . S
Mn504 O530 2.094 . S
Mn505 O510 2.121 . S
Mn505 N512 2.257 . S
Mn505 N521 2.282 . S
Mn505 O529 2.215 . S
Mn505 O531 2.117 . S
C506 O528 1.234 . S
C506 O529 1.283 . S
C507 O519 1.281 . S
C507 O520 1.236 . S
C508 O530 1.240 . S
C508 O531 1.264 . S
O509 Mn504 2.095 . S
O509 C518 1.250 . S
O510 Mn505 2.121 . S
O510 C518 1.258 . S
C511 N512 1.326 . S
C511 C515 1.460 . S
C511 H517 0.929 . S
N512 Mn505 2.257 . S
N512 C511 1.326 . S
N512 C516 1.362 . S
C513 C514 1.258 . S
C513 C516 1.431 . S
C513 C533 1.449 . S
C514 C513 1.258 . S
C514 C515 1.477 . S
C514 H534 0.931 1_455 S
C515 C511 1.460 . S
C515 C514 1.477 . S
C515 H535 0.930 . S
C516 N512 1.362 . S
C516 C513 1.431 . S
C516 C526 1.476 . S
H517 C511 0.929 . S
C518 O509 1.250 . S
C518 O510 1.258 . S
O519 Mn504 2.162 . S
O519 C507 1.281 . S
O520 Mn504 2.297 . S
O520 C507 1.236 . S
N521 Mn505 2.282 . S
N521 C522 1.328 . S
N521 C526 1.318 . S
C522 N521 1.328 . S
C522 C523 1.457 . S
C522 H527 0.929 . S
C523 C522 1.457 . S
C523 C524 1.291 . S
C523 H536 0.931 . S
C524 C523 1.291 . S
C524 C525 1.373 . S
C524 H537 0.929 . S
C525 C524 1.373 . S
C525 C526 1.396 . S
C525 C532 1.403 . S
C526 C516 1.476 . S
C526 N521 1.318 . S
C526 C525 1.396 . S
H527 C522 0.929 . S
O528 Mn504 2.385 . S
O528 C506 1.234 . S
O529 Mn504 2.209 . S
O529 Mn505 2.215 . S
O529 C506 1.283 . S
O530 Mn504 2.094 . S
O530 C508 1.240 . S
O531 Mn505 2.117 . S
O531 C508 1.264 . S
C532 C525 1.403 . S
C532 C533 1.399 . S
C532 H538 0.929 . S
C533 C513 1.449 . S
C533 C532 1.399 . S
C533 H539 0.930 1_455 S
H534 C514 0.931 1_655 S
H535 C515 0.930 . S
H536 C523 0.931 . S
H537 C524 0.929 . S
H538 C532 0.929 . S
H539 C533 0.930 1_655 S
Mn540 O545 2.095 . S
Mn540 O555 2.162 . S
Mn540 O556 2.297 . S
Mn540 O564 2.385 . S
Mn540 O565 2.209 . S
Mn540 O566 2.094 . S
Mn541 O546 2.121 . S
Mn541 N548 2.257 . S
Mn541 N557 2.282 . S
Mn541 O565 2.215 . S
Mn541 O567 2.117 . S
C542 O564 1.234 . S
C542 O565 1.283 . S
C543 O555 1.281 . S
C543 O556 1.236 . S
C544 O566 1.240 . S
C544 O567 1.264 . S
O545 Mn540 2.095 . S
O545 C554 1.250 . S
O546 Mn541 2.121 . S
O546 C554 1.258 . S
C547 N548 1.326 . S
C547 C551 1.460 . S
C547 H553 0.929 . S
N548 Mn541 2.257 . S
N548 C547 1.326 . S
N548 C552 1.362 . S
C549 C550 1.258 . S
C549 C552 1.431 . S
C549 C569 1.449 . S
C550 C549 1.258 . S
C550 C551 1.477 . S
C550 H570 0.931 1_545 S
C551 C547 1.460 . S
C551 C550 1.477 . S
C551 H571 0.930 . S
C552 N548 1.362 . S
C552 C549 1.431 . S
C552 C562 1.476 . S
H553 C547 0.929 . S
C554 O545 1.250 . S
C554 O546 1.258 . S
O555 Mn540 2.162 . S
O555 C543 1.281 . S
O556 Mn540 2.297 . S
O556 C543 1.236 . S
N557 Mn541 2.282 . S
N557 C558 1.328 . S
N557 C562 1.318 . S
C558 N557 1.328 . S
C558 C559 1.457 . S
C558 H563 0.929 . S
C559 C558 1.457 . S
C559 C560 1.291 . S
C559 H572 0.931 . S
C560 C559 1.291 . S
C560 C561 1.373 . S
C560 H573 0.929 . S
C561 C560 1.373 . S
C561 C562 1.396 . S
C561 C568 1.403 . S
C562 C552 1.476 . S
C562 N557 1.318 . S
C562 C561 1.396 . S
H563 C558 0.929 . S
O564 Mn540 2.385 . S
O564 C542 1.234 . S
O565 Mn540 2.209 . S
O565 Mn541 2.215 . S
O565 C542 1.283 . S
O566 Mn540 2.094 . S
O566 C544 1.240 . S
O567 Mn541 2.117 . S
O567 C544 1.264 . S
C568 C561 1.403 . S
C568 C569 1.399 . S
C568 H574 0.929 . S
C569 C549 1.449 . S
C569 C568 1.399 . S
C569 H575 0.930 1_545 S
H570 C550 0.931 1_565 S
H571 C551 0.930 . S
H572 C559 0.931 . S
H573 C560 0.929 . S
H574 C568 0.929 . S
H575 C569 0.930 1_565 S
H576 C588 0.930 . S
H577 C590 0.930 . S
H578 C591 0.930 . S
H579 C595 0.959 . S
H580 C595 0.959 . S
H581 C595 0.961 . S
H582 C596 0.960 . S
H583 C596 0.961 . S
H584 C596 0.959 . S
H585 C599 0.929 . S
H586 C600 0.931 . S
H587 C602 0.930 . S
C588 H576 0.930 . S
C588 C589 1.399 . S
C588 C593 1.399 . S
C589 C588 1.399 . S
C589 C590 1.376 . S
C590 H577 0.930 . S
C590 C589 1.376 . S
C590 C591 1.388 . S
C591 H578 0.930 . S
C591 C590 1.388 . S
C591 C592 1.390 . S
C592 C591 1.390 . S
C592 C593 1.394 . S
C592 C598 1.465 . S
C593 C588 1.399 . S
C593 C592 1.394 . S
C593 C594 1.516 . S
C594 C593 1.516 . S
C594 C595 1.502 . S
C594 C596 1.561 . S
C594 C597 1.526 . S
C595 H579 0.959 . S
C595 H580 0.959 . S
C595 H581 0.961 . S
C595 C594 1.502 . S
C596 H582 0.960 . S
C596 H583 0.961 . S
C596 H584 0.959 . S
C596 C594 1.561 . S
C597 C594 1.526 . S
C597 C598 1.396 . S
C597 C602 1.390 . S
C598 C592 1.465 . S
C598 C597 1.396 . S
C598 C599 1.399 . S
C599 H585 0.929 . S
C599 C598 1.399 . S
C599 C600 1.385 . S
C600 H586 0.931 . S
C600 C599 1.385 . S
C600 C601 1.389 . S
C601 C600 1.389 . S
C601 C602 1.387 . S
C602 H587 0.930 . S
C602 C597 1.390 . S
C602 C601 1.387 . S
H603 C615 0.930 . S
H604 C617 0.930 . S
H605 C618 0.930 . S
H606 C622 0.959 . S
H607 C622 0.959 . S
H608 C622 0.961 . S
H609 C623 0.960 . S
H610 C623 0.961 . S
H611 C623 0.959 . S
H612 C626 0.929 . S
H613 C627 0.931 . S
H614 C629 0.930 . S
C615 H603 0.930 . S
C615 C616 1.399 . S
C615 C620 1.399 . S
C616 C615 1.399 . S
C616 C617 1.376 . S
C617 H604 0.930 . S
C617 C616 1.376 . S
C617 C618 1.388 . S
C618 H605 0.930 . S
C618 C617 1.388 . S
C618 C619 1.390 . S
C619 C618 1.390 . S
C619 C620 1.394 . S
C619 C625 1.465 . S
C620 C615 1.399 . S
C620 C619 1.394 . S
C620 C621 1.516 . S
C621 C620 1.516 . S
C621 C622 1.502 . S
C621 C623 1.561 . S
C621 C624 1.526 . S
C622 H606 0.959 . S
C622 H607 0.959 . S
C622 H608 0.961 . S
C622 C621 1.502 . S
C623 H609 0.960 . S
C623 H610 0.961 . S
C623 H611 0.959 . S
C623 C621 1.561 . S
C624 C621 1.526 . S
C624 C625 1.396 . S
C624 C629 1.390 . S
C625 C619 1.465 . S
C625 C624 1.396 . S
C625 C626 1.399 . S
C626 H612 0.929 . S
C626 C625 1.399 . S
C626 C627 1.385 . S
C627 H613 0.931 . S
C627 C626 1.385 . S
C627 C628 1.389 . S
C628 C627 1.389 . S
C628 C629 1.387 . S
C629 H614 0.930 . S
C629 C624 1.390 . S
C629 C628 1.387 . S
H630 C642 0.930 . S
H631 C644 0.930 . S
H632 C645 0.930 . S
H633 C649 0.959 . S
H634 C649 0.959 . S
H635 C649 0.961 . S
H636 C650 0.960 . S
H637 C650 0.961 . S
H638 C650 0.959 . S
H639 C653 0.929 . S
H640 C654 0.931 . S
H641 C656 0.930 . S
C642 H630 0.930 . S
C642 C643 1.399 . S
C642 C647 1.399 . S
C643 C642 1.399 . S
C643 C644 1.376 . S
C644 H631 0.930 . S
C644 C643 1.376 . S
C644 C645 1.388 . S
C645 H632 0.930 . S
C645 C644 1.388 . S
C645 C646 1.390 . S
C646 C645 1.390 . S
C646 C647 1.394 . S
C646 C652 1.465 . S
C647 C642 1.399 . S
C647 C646 1.394 . S
C647 C648 1.516 . S
C648 C647 1.516 . S
C648 C649 1.502 . S
C648 C650 1.561 . S
C648 C651 1.526 . S
C649 H633 0.959 . S
C649 H634 0.959 . S
C649 H635 0.961 . S
C649 C648 1.502 . S
C650 H636 0.960 . S
C650 H637 0.961 . S
C650 H638 0.959 . S
C650 C648 1.561 . S
C651 C648 1.526 . S
C651 C652 1.396 . S
C651 C656 1.390 . S
C652 C646 1.465 . S
C652 C651 1.396 . S
C652 C653 1.399 . S
C653 H639 0.929 . S
C653 C652 1.399 . S
C653 C654 1.385 . S
C654 H640 0.931 . S
C654 C653 1.385 . S
C654 C655 1.389 . S
C655 C654 1.389 . S
C655 C656 1.387 . S
C656 H641 0.930 . S
C656 C651 1.390 . S
C656 C655 1.387 . S
H657 C669 0.930 . S
H658 C671 0.930 . S
H659 C672 0.930 . S
H660 C676 0.959 . S
H661 C676 0.959 . S
H662 C676 0.961 . S
H663 C677 0.960 . S
H664 C677 0.961 . S
H665 C677 0.959 . S
H666 C680 0.929 . S
H667 C681 0.931 . S
H668 C683 0.930 . S
C669 H657 0.930 . S
C669 C670 1.399 . S
C669 C674 1.399 . S
C670 C669 1.399 . S
C670 C671 1.376 . S
C671 H658 0.930 . S
C671 C670 1.376 . S
C671 C672 1.388 . S
C672 H659 0.930 . S
C672 C671 1.388 . S
C672 C673 1.390 . S
C673 C672 1.390 . S
C673 C674 1.394 . S
C673 C679 1.465 . S
C674 C669 1.399 . S
C674 C673 1.394 . S
C674 C675 1.516 . S
C675 C674 1.516 . S
C675 C676 1.502 . S
C675 C677 1.561 . S
C675 C678 1.526 . S
C676 H660 0.959 . S
C676 H661 0.959 . S
C676 H662 0.961 . S
C676 C675 1.502 . S
C677 H663 0.960 . S
C677 H664 0.961 . S
C677 H665 0.959 . S
C677 C675 1.561 . S
C678 C675 1.526 . S
C678 C679 1.396 . S
C678 C683 1.390 . S
C679 C673 1.465 . S
C679 C678 1.396 . S
C679 C680 1.399 . S
C680 H666 0.929 . S
C680 C679 1.399 . S
C680 C681 1.385 . S
C681 H667 0.931 . S
C681 C680 1.385 . S
C681 C682 1.389 . S
C682 C681 1.389 . S
C682 C683 1.387 . S
C683 H668 0.930 . S
C683 C678 1.390 . S
C683 C682 1.387 . S
H684 C696 0.930 . S
H685 C698 0.930 . S
H686 C699 0.930 . S
H687 C703 0.959 . S
H688 C703 0.959 . S
H689 C703 0.961 . S
H690 C704 0.960 . S
H691 C704 0.961 . S
H692 C704 0.959 . S
H693 C707 0.929 . S
H694 C708 0.931 . S
H695 C710 0.930 . S
C696 H684 0.930 . S
C696 C697 1.399 . S
C696 C701 1.399 . S
C697 C696 1.399 . S
C697 C698 1.376 . S
C698 H685 0.930 . S
C698 C697 1.376 . S
C698 C699 1.388 . S
C699 H686 0.930 . S
C699 C698 1.388 . S
C699 C700 1.390 . S
C700 C699 1.390 . S
C700 C701 1.394 . S
C700 C706 1.465 . S
C701 C696 1.399 . S
C701 C700 1.394 . S
C701 C702 1.516 . S
C702 C701 1.516 . S
C702 C703 1.502 . S
C702 C704 1.561 . S
C702 C705 1.526 . S
C703 H687 0.959 . S
C703 H688 0.959 . S
C703 H689 0.961 . S
C703 C702 1.502 . S
C704 H690 0.960 . S
C704 H691 0.961 . S
C704 H692 0.959 . S
C704 C702 1.561 . S
C705 C702 1.526 . S
C705 C706 1.396 . S
C705 C710 1.390 . S
C706 C700 1.465 . S
C706 C705 1.396 . S
C706 C707 1.399 . S
C707 H693 0.929 . S
C707 C706 1.399 . S
C707 C708 1.385 . S
C708 H694 0.931 . S
C708 C707 1.385 . S
C708 C709 1.389 . S
C709 C708 1.389 . S
C709 C710 1.387 . S
C710 H695 0.930 . S
C710 C705 1.390 . S
C710 C709 1.387 . S
H711 C723 0.930 . S
H712 C725 0.930 . S
H713 C726 0.930 . S
H714 C730 0.959 . S
H715 C730 0.959 . S
H716 C730 0.961 . S
H717 C731 0.960 . S
H718 C731 0.961 . S
H719 C731 0.959 . S
H720 C734 0.929 . S
H721 C735 0.931 . S
H722 C737 0.930 . S
C723 H711 0.930 . S
C723 C724 1.399 . S
C723 C728 1.399 . S
C724 C723 1.399 . S
C724 C725 1.376 . S
C725 H712 0.930 . S
C725 C724 1.376 . S
C725 C726 1.388 . S
C726 H713 0.930 . S
C726 C725 1.388 . S
C726 C727 1.390 . S
C727 C726 1.390 . S
C727 C728 1.394 . S
C727 C733 1.465 . S
C728 C723 1.399 . S
C728 C727 1.394 . S
C728 C729 1.516 . S
C729 C728 1.516 . S
C729 C730 1.502 . S
C729 C731 1.561 . S
C729 C732 1.526 . S
C730 H714 0.959 . S
C730 H715 0.959 . S
C730 H716 0.961 . S
C730 C729 1.502 . S
C731 H717 0.960 . S
C731 H718 0.961 . S
C731 H719 0.959 . S
C731 C729 1.561 . S
C732 C729 1.526 . S
C732 C733 1.396 . S
C732 C737 1.390 . S
C733 C727 1.465 . S
C733 C732 1.396 . S
C733 C734 1.399 . S
C734 H720 0.929 . S
C734 C733 1.399 . S
C734 C735 1.385 . S
C735 H721 0.931 . S
C735 C734 1.385 . S
C735 C736 1.389 . S
C736 C735 1.389 . S
C736 C737 1.387 . S
C737 H722 0.930 . S
C737 C732 1.390 . S
C737 C736 1.387 . S
H738 C750 0.930 . S
H739 C752 0.930 . S
H740 C753 0.930 . S
H741 C757 0.959 . S
H742 C757 0.959 . S
H743 C757 0.961 . S
H744 C758 0.960 . S
H745 C758 0.961 . S
H746 C758 0.959 . S
H747 C761 0.929 . S
H748 C762 0.931 . S
H749 C764 0.930 . S
C750 H738 0.930 . S
C750 C751 1.399 . S
C750 C755 1.399 . S
C751 C750 1.399 . S
C751 C752 1.376 . S
C752 H739 0.930 . S
C752 C751 1.376 . S
C752 C753 1.388 . S
C753 H740 0.930 . S
C753 C752 1.388 . S
C753 C754 1.390 . S
C754 C753 1.390 . S
C754 C755 1.394 . S
C754 C760 1.465 . S
C755 C750 1.399 . S
C755 C754 1.394 . S
C755 C756 1.516 . S
C756 C755 1.516 . S
C756 C757 1.502 . S
C756 C758 1.561 . S
C756 C759 1.526 . S
C757 H741 0.959 . S
C757 H742 0.959 . S
C757 H743 0.961 . S
C757 C756 1.502 . S
C758 H744 0.960 . S
C758 H745 0.961 . S
C758 H746 0.959 . S
C758 C756 1.561 . S
C759 C756 1.526 . S
C759 C760 1.396 . S
C759 C764 1.390 . S
C760 C754 1.465 . S
C760 C759 1.396 . S
C760 C761 1.399 . S
C761 H747 0.929 . S
C761 C760 1.399 . S
C761 C762 1.385 . S
C762 H748 0.931 . S
C762 C761 1.385 . S
C762 C763 1.389 . S
C763 C762 1.389 . S
C763 C764 1.387 . S
C764 H749 0.930 . S
C764 C759 1.390 . S
C764 C763 1.387 . S
H765 C777 0.930 . S
H766 C779 0.930 . S
H767 C780 0.930 . S
H768 C784 0.959 . S
H769 C784 0.959 . S
H770 C784 0.961 . S
H771 C785 0.960 . S
H772 C785 0.961 . S
H773 C785 0.959 . S
H774 C788 0.929 . S
H775 C789 0.931 . S
H776 C791 0.930 . S
C777 H765 0.930 . S
C777 C778 1.399 . S
C777 C782 1.399 . S
C778 C777 1.399 . S
C778 C779 1.376 . S
C779 H766 0.930 . S
C779 C778 1.376 . S
C779 C780 1.388 . S
C780 H767 0.930 . S
C780 C779 1.388 . S
C780 C781 1.390 . S
C781 C780 1.390 . S
C781 C782 1.394 . S
C781 C787 1.465 . S
C782 C777 1.399 . S
C782 C781 1.394 . S
C782 C783 1.516 . S
C783 C782 1.516 . S
C783 C784 1.502 . S
C783 C785 1.561 . S
C783 C786 1.526 . S
C784 H768 0.959 . S
C784 H769 0.959 . S
C784 H770 0.961 . S
C784 C783 1.502 . S
C785 H771 0.960 . S
C785 H772 0.961 . S
C785 H773 0.959 . S
C785 C783 1.561 . S
C786 C783 1.526 . S
C786 C787 1.396 . S
C786 C791 1.390 . S
C787 C781 1.465 . S
C787 C786 1.396 . S
C787 C788 1.399 . S
C788 H774 0.929 . S
C788 C787 1.399 . S
C788 C789 1.385 . S
C789 H775 0.931 . S
C789 C788 1.385 . S
C789 C790 1.389 . S
C790 C789 1.389 . S
C790 C791 1.387 . S
C791 H776 0.930 . S
C791 C786 1.390 . S
C791 C790 1.387 . S
H792 C804 0.930 . S
H793 C806 0.930 . S
H794 C807 0.930 . S
H795 C811 0.959 . S
H796 C811 0.959 . S
H797 C811 0.961 1_556 S
H798 C812 0.960 1_556 S
H799 C812 0.961 . S
H800 C812 0.959 . S
H801 C815 0.929 . S
H802 C816 0.931 . S
H803 C818 0.930 . S
C804 H792 0.930 . S
C804 C805 1.399 . S
C804 C809 1.399 . S
C805 C804 1.399 . S
C805 C806 1.376 . S
C806 H793 0.930 . S
C806 C805 1.376 . S
C806 C807 1.388 . S
C807 H794 0.930 . S
C807 C806 1.388 . S
C807 C808 1.390 . S
C808 C807 1.390 . S
C808 C809 1.394 . S
C808 C814 1.465 1_556 S
C809 C804 1.399 . S
C809 C808 1.394 . S
C809 C810 1.516 1_556 S
C810 C809 1.516 1_554 S
C810 C811 1.502 . S
C810 C812 1.561 . S
C810 C813 1.526 . S
C811 H795 0.959 . S
C811 H796 0.959 . S
C811 H797 0.961 1_554 S
C811 C810 1.502 . S
C812 H798 0.960 1_554 S
C812 H799 0.961 . S
C812 H800 0.959 . S
C812 C810 1.561 . S
C813 C810 1.526 . S
C813 C814 1.396 . S
C813 C818 1.390 . S
C814 C808 1.465 1_554 S
C814 C813 1.396 . S
C814 C815 1.399 . S
C815 H801 0.929 . S
C815 C814 1.399 . S
C815 C816 1.385 . S
C816 H802 0.931 . S
C816 C815 1.385 . S
C816 C817 1.389 . S
C817 C816 1.389 . S
C817 C818 1.387 . S
C818 H803 0.930 . S
C818 C813 1.390 . S
C818 C817 1.387 . S
H819 C831 0.930 . S
H820 C833 0.930 . S
H821 C834 0.930 . S
H822 C838 0.960 . S
H823 C838 0.959 . S
H824 C838 0.961 1_556 S
H825 C839 0.960 1_556 S
H826 C839 0.961 . S
H827 C839 0.959 . S
H828 C842 0.929 . S
H829 C843 0.931 . S
H830 C845 0.930 . S
C831 H819 0.930 . S
C831 C832 1.399 . S
C831 C836 1.399 . S
C832 C831 1.399 . S
C832 C833 1.376 . S
C833 H820 0.930 . S
C833 C832 1.376 . S
C833 C834 1.388 . S
C834 H821 0.930 . S
C834 C833 1.388 . S
C834 C835 1.390 . S
C835 C834 1.390 . S
C835 C836 1.394 . S
C835 C841 1.465 1_556 S
C836 C831 1.399 . S
C836 C835 1.394 . S
C836 C837 1.516 1_556 S
C837 C836 1.516 1_554 S
C837 C838 1.502 . S
C837 C839 1.561 . S
C837 C840 1.526 . S
C838 H822 0.960 . S
C838 H823 0.959 . S
C838 H824 0.961 1_554 S
C838 C837 1.502 . S
C839 H825 0.960 1_554 S
C839 H826 0.961 . S
C839 H827 0.959 . S
C839 C837 1.561 . S
C840 C837 1.526 . S
C840 C841 1.396 . S
C840 C845 1.390 . S
C841 C835 1.465 1_554 S
C841 C840 1.396 . S
C841 C842 1.399 . S
C842 H828 0.929 . S
C842 C841 1.399 . S
C842 C843 1.385 . S
C843 H829 0.931 . S
C843 C842 1.385 . S
C843 C844 1.389 . S
C844 C843 1.389 . S
C844 C845 1.387 . S
C845 H830 0.930 . S
C845 C840 1.390 . S
C845 C844 1.387 . S
H846 C858 0.930 . S
H847 C860 0.930 . S
H848 C861 0.930 . S
H849 C865 0.959 . S
H850 C865 0.959 . S
H851 C865 0.961 1_556 S
H852 C866 0.960 1_556 S
H853 C866 0.961 . S
H854 C866 0.959 . S
H855 C869 0.929 . S
H856 C870 0.931 . S
H857 C872 0.930 . S
C858 H846 0.930 . S
C858 C859 1.399 . S
C858 C863 1.399 . S
C859 C858 1.399 . S
C859 C860 1.376 . S
C860 H847 0.930 . S
C860 C859 1.376 . S
C860 C861 1.388 . S
C861 H848 0.930 . S
C861 C860 1.388 . S
C861 C862 1.390 . S
C862 C861 1.390 . S
C862 C863 1.394 . S
C862 C868 1.465 1_556 S
C863 C858 1.399 . S
C863 C862 1.394 . S
C863 C864 1.516 1_556 S
C864 C863 1.516 1_554 S
C864 C865 1.502 . S
C864 C866 1.561 . S
C864 C867 1.526 . S
C865 H849 0.959 . S
C865 H850 0.959 . S
C865 H851 0.961 1_554 S
C865 C864 1.502 . S
C866 H852 0.960 1_554 S
C866 H853 0.961 . S
C866 H854 0.959 . S
C866 C864 1.561 . S
C867 C864 1.526 . S
C867 C868 1.396 . S
C867 C872 1.390 . S
C868 C862 1.465 1_554 S
C868 C867 1.396 . S
C868 C869 1.399 . S
C869 H855 0.929 . S
C869 C868 1.399 . S
C869 C870 1.385 . S
C870 H856 0.931 . S
C870 C869 1.385 . S
C870 C871 1.389 . S
C871 C870 1.389 . S
C871 C872 1.387 . S
C872 H857 0.930 . S
C872 C867 1.390 . S
C872 C871 1.387 . S
H873 C885 0.930 . S
H874 C887 0.930 . S
H875 C888 0.930 . S
H876 C892 0.959 . S
H877 C892 0.959 . S
H878 C892 0.961 1_554 S
H879 C893 0.960 1_554 S
H880 C893 0.961 . S
H881 C893 0.959 . S
H882 C896 0.929 . S
H883 C897 0.931 . S
H884 C899 0.930 . S
C885 H873 0.930 . S
C885 C886 1.399 . S
C885 C890 1.399 . S
C886 C885 1.399 . S
C886 C887 1.376 . S
C887 H874 0.930 . S
C887 C886 1.376 . S
C887 C888 1.388 . S
C888 H875 0.930 . S
C888 C887 1.388 . S
C888 C889 1.390 . S
C889 C888 1.390 . S
C889 C890 1.394 . S
C889 C895 1.465 1_554 S
C890 C885 1.399 . S
C890 C889 1.394 . S
C890 C891 1.516 1_554 S
C891 C890 1.516 1_556 S
C891 C892 1.502 . S
C891 C893 1.561 . S
C891 C894 1.526 . S
C892 H876 0.959 . S
C892 H877 0.959 . S
C892 H878 0.961 1_556 S
C892 C891 1.502 . S
C893 H879 0.960 1_556 S
C893 H880 0.961 . S
C893 H881 0.959 . S
C893 C891 1.561 . S
C894 C891 1.526 . S
C894 C895 1.396 . S
C894 C899 1.390 . S
C895 C889 1.465 1_556 S
C895 C894 1.396 . S
C895 C896 1.399 . S
C896 H882 0.929 . S
C896 C895 1.399 . S
C896 C897 1.385 . S
C897 H883 0.931 . S
C897 C896 1.385 . S
C897 C898 1.389 . S
C898 C897 1.389 . S
C898 C899 1.387 . S
C899 H884 0.930 . S
C899 C894 1.390 . S
C899 C898 1.387 . S
H900 C912 0.930 . S
H901 C914 0.930 . S
H902 C915 0.930 . S
H903 C919 0.959 . S
H904 C919 0.959 . S
H905 C919 0.961 . S
H906 C920 0.960 . S
H907 C920 0.961 . S
H908 C920 0.959 . S
H909 C923 0.929 . S
H910 C924 0.931 . S
H911 C926 0.930 . S
C912 H900 0.930 . S
C912 C913 1.399 . S
C912 C917 1.399 . S
C913 C912 1.399 . S
C913 C914 1.376 . S
C914 H901 0.930 . S
C914 C913 1.376 . S
C914 C915 1.388 . S
C915 H902 0.930 . S
C915 C914 1.388 . S
C915 C916 1.390 . S
C916 C915 1.390 . S
C916 C917 1.394 . S
C916 C922 1.465 . S
C917 C912 1.399 . S
C917 C916 1.394 . S
C917 C918 1.516 . S
C918 C917 1.516 . S
C918 C919 1.502 . S
C918 C920 1.561 . S
C918 C921 1.526 . S
C919 H903 0.959 . S
C919 H904 0.959 . S
C919 H905 0.961 . S
C919 C918 1.502 . S
C920 H906 0.960 . S
C920 H907 0.961 . S
C920 H908 0.959 . S
C920 C918 1.561 . S
C921 C918 1.526 . S
C921 C922 1.396 . S
C921 C926 1.390 . S
C922 C916 1.465 . S
C922 C921 1.396 . S
C922 C923 1.399 . S
C923 H909 0.929 . S
C923 C922 1.399 . S
C923 C924 1.385 . S
C924 H910 0.931 . S
C924 C923 1.385 . S
C924 C925 1.389 . S
C925 C924 1.389 . S
C925 C926 1.387 . S
C926 H911 0.930 . S
C926 C921 1.390 . S
C926 C925 1.387 . S
H927 C939 0.930 . S
H928 C941 0.930 . S
H929 C942 0.930 . S
H930 C946 0.959 . S
H931 C946 0.959 . S
H932 C946 0.961 . S
H933 C947 0.960 . S
H934 C947 0.961 . S
H935 C947 0.959 . S
H936 C950 0.929 . S
H937 C951 0.931 . S
H938 C953 0.930 . S
C939 H927 0.930 . S
C939 C940 1.399 . S
C939 C944 1.399 . S
C940 C939 1.399 . S
C940 C941 1.376 . S
C941 H928 0.930 . S
C941 C940 1.376 . S
C941 C942 1.388 . S
C942 H929 0.930 . S
C942 C941 1.388 . S
C942 C943 1.390 . S
C943 C942 1.390 . S
C943 C944 1.394 . S
C943 C949 1.465 . S
C944 C939 1.399 . S
C944 C943 1.394 . S
C944 C945 1.516 . S
C945 C944 1.516 . S
C945 C946 1.502 . S
C945 C947 1.561 . S
C945 C948 1.526 . S
C946 H930 0.959 . S
C946 H931 0.959 . S
C946 H932 0.961 . S
C946 C945 1.502 . S
C947 H933 0.960 . S
C947 H934 0.961 . S
C947 H935 0.959 . S
C947 C945 1.561 . S
C948 C945 1.526 . S
C948 C949 1.396 . S
C948 C953 1.390 . S
C949 C943 1.465 . S
C949 C948 1.396 . S
C949 C950 1.399 . S
C950 H936 0.929 . S
C950 C949 1.399 . S
C950 C951 1.385 . S
C951 H937 0.931 . S
C951 C950 1.385 . S
C951 C952 1.389 . S
C952 C951 1.389 . S
C952 C953 1.387 . S
C953 H938 0.930 . S
C953 C948 1.390 . S
C953 C952 1.387 . S
H954 C966 0.930 . S
H955 C968 0.930 . S
H956 C969 0.930 . S
H957 C973 0.959 . S
H958 C973 0.959 . S
H959 C973 0.961 . S
H960 C974 0.960 . S
H961 C974 0.961 . S
H962 C974 0.959 . S
H963 C977 0.929 . S
H964 C978 0.931 . S
H965 C980 0.930 . S
C966 H954 0.930 . S
C966 C967 1.399 . S
C966 C971 1.399 . S
C967 C966 1.399 . S
C967 C968 1.376 . S
C968 H955 0.930 . S
C968 C967 1.376 . S
C968 C969 1.388 . S
C969 H956 0.930 . S
C969 C968 1.388 . S
C969 C970 1.390 . S
C970 C969 1.390 . S
C970 C971 1.394 . S
C970 C976 1.465 . S
C971 C966 1.399 . S
C971 C970 1.394 . S
C971 C972 1.516 . S
C972 C971 1.516 . S
C972 C973 1.502 . S
C972 C974 1.561 . S
C972 C975 1.526 . S
C973 H957 0.959 . S
C973 H958 0.959 . S
C973 H959 0.961 . S
C973 C972 1.502 . S
C974 H960 0.960 . S
C974 H961 0.961 . S
C974 H962 0.959 . S
C974 C972 1.561 . S
C975 C972 1.526 . S
C975 C976 1.396 . S
C975 C980 1.390 . S
C976 C970 1.465 . S
C976 C975 1.396 . S
C976 C977 1.399 . S
C977 H963 0.929 . S
C977 C976 1.399 . S
C977 C978 1.385 . S
C978 H964 0.931 . S
C978 C977 1.385 . S
C978 C979 1.389 . S
C979 C978 1.389 . S
C979 C980 1.387 . S
C980 H965 0.930 . S
C980 C975 1.390 . S
C980 C979 1.387 . S
H981 C993 0.930 . S
H982 C995 0.930 . S
H983 C996 0.930 . S
H984 C1000 0.959 . S
H985 C1000 0.959 . S
H986 C1000 0.961 . S
H987 C1001 0.960 . S
H988 C1001 0.961 . S
H989 C1001 0.959 . S
H990 C1004 0.929 . S
H991 C1005 0.931 . S
H992 C1007 0.930 . S
C993 H981 0.930 . S
C993 C994 1.399 . S
C993 C998 1.399 . S
C994 C993 1.399 . S
C994 C995 1.376 . S
C995 H982 0.930 . S
C995 C994 1.376 . S
C995 C996 1.388 . S
C996 H983 0.930 . S
C996 C995 1.388 . S
C996 C997 1.390 . S
C997 C996 1.390 . S
C997 C998 1.394 . S
C997 C1003 1.465 . S
C998 C993 1.399 . S
C998 C997 1.394 . S
C998 C999 1.516 . S
C999 C998 1.516 . S
C999 C1000 1.502 . S
C999 C1001 1.561 . S
C999 C1002 1.526 . S
C1000 H984 0.959 . S
C1000 H985 0.959 . S
C1000 H986 0.961 . S
C1000 C999 1.502 . S
C1001 H987 0.960 . S
C1001 H988 0.961 . S
C1001 H989 0.959 . S
C1001 C999 1.561 . S
C1002 C999 1.526 . S
C1002 C1003 1.396 . S
C1002 C1007 1.390 . S
C1003 C997 1.465 . S
C1003 C1002 1.396 . S
C1003 C1004 1.399 . S
C1004 H990 0.929 . S
C1004 C1003 1.399 . S
C1004 C1005 1.385 . S
C1005 H991 0.931 . S
C1005 C1004 1.385 . S
C1005 C1006 1.389 . S
C1006 C1005 1.389 . S
C1006 C1007 1.387 . S
C1007 H992 0.930 . S
C1007 C1002 1.390 . S
C1007 C1006 1.387 . S
H1008 C1020 0.930 . S
H1009 C1022 0.930 . S
H1010 C1023 0.930 . S
H1011 C1027 0.959 . S
H1012 C1027 0.959 . S
H1013 C1027 0.961 . S
H1014 C1028 0.960 . S
H1015 C1028 0.961 . S
H1016 C1028 0.959 . S
H1017 C1031 0.929 . S
H1018 C1032 0.931 . S
H1019 C1034 0.930 . S
C1020 H1008 0.930 . S
C1020 C1021 1.399 . S
C1020 C1025 1.399 . S
C1021 C1020 1.399 . S
C1021 C1022 1.376 . S
C1022 H1009 0.930 . S
C1022 C1021 1.376 . S
C1022 C1023 1.388 . S
C1023 H1010 0.930 . S
C1023 C1022 1.388 . S
C1023 C1024 1.390 . S
C1024 C1023 1.390 . S
C1024 C1025 1.394 . S
C1024 C1030 1.465 . S
C1025 C1020 1.399 . S
C1025 C1024 1.394 . S
C1025 C1026 1.516 . S
C1026 C1025 1.516 . S
C1026 C1027 1.502 . S
C1026 C1028 1.561 . S
C1026 C1029 1.526 . S
C1027 H1011 0.959 . S
C1027 H1012 0.959 . S
C1027 H1013 0.961 . S
C1027 C1026 1.502 . S
C1028 H1014 0.960 . S
C1028 H1015 0.961 . S
C1028 H1016 0.959 . S
C1028 C1026 1.561 . S
C1029 C1026 1.526 . S
C1029 C1030 1.396 . S
C1029 C1034 1.390 . S
C1030 C1024 1.465 . S
C1030 C1029 1.396 . S
C1030 C1031 1.399 . S
C1031 H1017 0.929 . S
C1031 C1030 1.399 . S
C1031 C1032 1.385 . S
C1032 H1018 0.931 . S
C1032 C1031 1.385 . S
C1032 C1033 1.389 . S
C1033 C1032 1.389 . S
C1033 C1034 1.387 . S
C1034 H1019 0.930 . S
C1034 C1029 1.390 . S
C1034 C1033 1.387 . S
H1035 C1047 0.930 . S
H1036 C1049 0.930 . S
H1037 C1050 0.930 . S
H1038 C1054 0.959 . S
H1039 C1054 0.959 . S
H1040 C1054 0.961 . S
H1041 C1055 0.960 . S
H1042 C1055 0.961 . S
H1043 C1055 0.959 . S
H1044 C1058 0.929 . S
H1045 C1059 0.931 . S
H1046 C1061 0.930 . S
C1047 H1035 0.930 . S
C1047 C1048 1.399 . S
C1047 C1052 1.399 . S
C1048 C1047 1.399 . S
C1048 C1049 1.376 . S
C1049 H1036 0.930 . S
C1049 C1048 1.376 . S
C1049 C1050 1.388 . S
C1050 H1037 0.930 . S
C1050 C1049 1.388 . S
C1050 C1051 1.390 . S
C1051 C1050 1.390 . S
C1051 C1052 1.394 . S
C1051 C1057 1.465 . S
C1052 C1047 1.399 . S
C1052 C1051 1.394 . S
C1052 C1053 1.516 . S
C1053 C1052 1.516 . S
C1053 C1054 1.502 . S
C1053 C1055 1.561 . S
C1053 C1056 1.526 . S
C1054 H1038 0.959 . S
C1054 H1039 0.959 . S
C1054 H1040 0.961 . S
C1054 C1053 1.502 . S
C1055 H1041 0.960 . S
C1055 H1042 0.961 . S
C1055 H1043 0.959 . S
C1055 C1053 1.561 . S
C1056 C1053 1.526 . S
C1056 C1057 1.396 . S
C1056 C1061 1.390 . S
C1057 C1051 1.465 . S
C1057 C1056 1.396 . S
C1057 C1058 1.399 . S
C1058 H1044 0.929 . S
C1058 C1057 1.399 . S
C1058 C1059 1.385 . S
C1059 H1045 0.931 . S
C1059 C1058 1.385 . S
C1059 C1060 1.389 . S
C1060 C1059 1.389 . S
C1060 C1061 1.387 . S
C1061 H1046 0.930 . S
C1061 C1056 1.390 . S
C1061 C1060 1.387 . S
H1062 C1074 0.930 . S
H1063 C1076 0.930 . S
H1064 C1077 0.930 . S
H1065 C1081 0.959 . S
H1066 C1081 0.959 . S
H1067 C1081 0.961 . S
H1068 C1082 0.960 . S
H1069 C1082 0.961 . S
H1070 C1082 0.959 . S
H1071 C1085 0.929 . S
H1072 C1086 0.931 . S
H1073 C1088 0.930 . S
C1074 H1062 0.930 . S
C1074 C1075 1.399 . S
C1074 C1079 1.399 . S
C1075 C1074 1.399 . S
C1075 C1076 1.376 . S
C1076 H1063 0.930 . S
C1076 C1075 1.376 . S
C1076 C1077 1.388 . S
C1077 H1064 0.930 . S
C1077 C1076 1.388 . S
C1077 C1078 1.390 . S
C1078 C1077 1.390 . S
C1078 C1079 1.394 . S
C1078 C1084 1.465 . S
C1079 C1074 1.399 . S
C1079 C1078 1.394 . S
C1079 C1080 1.516 . S
C1080 C1079 1.516 . S
C1080 C1081 1.502 . S
C1080 C1082 1.561 . S
C1080 C1083 1.526 . S
C1081 H1065 0.959 . S
C1081 H1066 0.959 . S
C1081 H1067 0.961 . S
C1081 C1080 1.502 . S
C1082 H1068 0.960 . S
C1082 H1069 0.961 . S
C1082 H1070 0.959 . S
C1082 C1080 1.561 . S
C1083 C1080 1.526 . S
C1083 C1084 1.396 . S
C1083 C1088 1.390 . S
C1084 C1078 1.465 . S
C1084 C1083 1.396 . S
C1084 C1085 1.399 . S
C1085 H1071 0.929 . S
C1085 C1084 1.399 . S
C1085 C1086 1.385 . S
C1086 H1072 0.931 . S
C1086 C1085 1.385 . S
C1086 C1087 1.389 . S
C1087 C1086 1.389 . S
C1087 C1088 1.387 . S
C1088 H1073 0.930 . S
C1088 C1083 1.390 . S
C1088 C1087 1.387 . S
H1089 C1101 0.930 . S
H1090 C1103 0.930 . S
H1091 C1104 0.930 . S
H1092 C1108 0.959 . S
H1093 C1108 0.959 . S
H1094 C1108 0.961 . S
H1095 C1109 0.960 . S
H1096 C1109 0.961 . S
H1097 C1109 0.959 . S
H1098 C1112 0.929 . S
H1099 C1113 0.931 . S
H1100 C1115 0.930 . S
C1101 H1089 0.930 . S
C1101 C1102 1.399 . S
C1101 C1106 1.399 . S
C1102 C1101 1.399 . S
C1102 C1103 1.376 . S
C1103 H1090 0.930 . S
C1103 C1102 1.376 . S
C1103 C1104 1.388 . S
C1104 H1091 0.930 . S
C1104 C1103 1.388 . S
C1104 C1105 1.390 . S
C1105 C1104 1.390 . S
C1105 C1106 1.394 . S
C1105 C1111 1.465 . S
C1106 C1101 1.399 . S
C1106 C1105 1.394 . S
C1106 C1107 1.516 . S
C1107 C1106 1.516 . S
C1107 C1108 1.502 . S
C1107 C1109 1.561 . S
C1107 C1110 1.526 . S
C1108 H1092 0.959 . S
C1108 H1093 0.959 . S
C1108 H1094 0.961 . S
C1108 C1107 1.502 . S
C1109 H1095 0.960 . S
C1109 H1096 0.961 . S
C1109 H1097 0.959 . S
C1109 C1107 1.561 . S
C1110 C1107 1.526 . S
C1110 C1111 1.396 . S
C1110 C1115 1.390 . S
C1111 C1105 1.465 . S
C1111 C1110 1.396 . S
C1111 C1112 1.399 . S
C1112 H1098 0.929 . S
C1112 C1111 1.399 . S
C1112 C1113 1.385 . S
C1113 H1099 0.931 . S
C1113 C1112 1.385 . S
C1113 C1114 1.389 . S
C1114 C1113 1.389 . S
C1114 C1115 1.387 . S
C1115 H1100 0.930 . S
C1115 C1110 1.390 . S
C1115 C1114 1.387 . S
H1116 C1128 0.930 . S
H1117 C1130 0.930 . S
H1118 C1131 0.930 . S
H1119 C1135 0.959 . S
H1120 C1135 0.959 . S
H1121 C1135 0.961 . S
H1122 C1136 0.960 . S
H1123 C1136 0.961 . S
H1124 C1136 0.959 . S
H1125 C1139 0.929 . S
H1126 C1140 0.931 . S
H1127 C1142 0.930 . S
C1128 H1116 0.930 . S
C1128 C1129 1.399 . S
C1128 C1133 1.399 . S
C1129 C1128 1.399 . S
C1129 C1130 1.376 . S
C1130 H1117 0.930 . S
C1130 C1129 1.376 . S
C1130 C1131 1.388 . S
C1131 H1118 0.930 . S
C1131 C1130 1.388 . S
C1131 C1132 1.390 . S
C1132 C1131 1.390 . S
C1132 C1133 1.394 . S
C1132 C1138 1.465 . S
C1133 C1128 1.399 . S
C1133 C1132 1.394 . S
C1133 C1134 1.516 . S
C1134 C1133 1.516 . S
C1134 C1135 1.502 . S
C1134 C1136 1.561 . S
C1134 C1137 1.526 . S
C1135 H1119 0.959 . S
C1135 H1120 0.959 . S
C1135 H1121 0.961 . S
C1135 C1134 1.502 . S
C1136 H1122 0.960 . S
C1136 H1123 0.961 . S
C1136 H1124 0.959 . S
C1136 C1134 1.561 . S
C1137 C1134 1.526 . S
C1137 C1138 1.396 . S
C1137 C1142 1.390 . S
C1138 C1132 1.465 . S
C1138 C1137 1.396 . S
C1138 C1139 1.399 . S
C1139 H1125 0.929 . S
C1139 C1138 1.399 . S
C1139 C1140 1.385 . S
C1140 H1126 0.931 . S
C1140 C1139 1.385 . S
C1140 C1141 1.389 . S
C1141 C1140 1.389 . S
C1141 C1142 1.387 . S
C1142 H1127 0.930 . S
C1142 C1137 1.390 . S
C1142 C1141 1.387 . S
H1143 C1155 0.930 . S
H1144 C1157 0.930 . S
H1145 C1158 0.930 . S
H1146 C1162 0.959 . S
H1147 C1162 0.959 . S
H1148 C1162 0.961 . S
H1149 C1163 0.960 . S
H1150 C1163 0.961 . S
H1151 C1163 0.959 . S
H1152 C1166 0.929 . S
H1153 C1167 0.931 . S
H1154 C1169 0.930 . S
C1155 H1143 0.930 . S
C1155 C1156 1.399 . S
C1155 C1160 1.399 . S
C1156 C1155 1.399 . S
C1156 C1157 1.376 . S
C1157 H1144 0.930 . S
C1157 C1156 1.376 . S
C1157 C1158 1.388 . S
C1158 H1145 0.930 . S
C1158 C1157 1.388 . S
C1158 C1159 1.390 . S
C1159 C1158 1.390 . S
C1159 C1160 1.394 . S
C1159 C1165 1.465 . S
C1160 C1155 1.399 . S
C1160 C1159 1.394 . S
C1160 C1161 1.516 . S
C1161 C1160 1.516 . S
C1161 C1162 1.502 . S
C1161 C1163 1.561 . S
C1161 C1164 1.526 . S
C1162 H1146 0.959 . S
C1162 H1147 0.959 . S
C1162 H1148 0.961 . S
C1162 C1161 1.502 . S
C1163 H1149 0.960 . S
C1163 H1150 0.961 . S
C1163 H1151 0.959 . S
C1163 C1161 1.561 . S
C1164 C1161 1.526 . S
C1164 C1165 1.396 . S
C1164 C1169 1.390 . S
C1165 C1159 1.465 . S
C1165 C1164 1.396 . S
C1165 C1166 1.399 . S
C1166 H1152 0.929 . S
C1166 C1165 1.399 . S
C1166 C1167 1.385 . S
C1167 H1153 0.931 . S
C1167 C1166 1.385 . S
C1167 C1168 1.389 . S
C1168 C1167 1.389 . S
C1168 C1169 1.387 . S
C1169 H1154 0.930 . S
C1169 C1164 1.390 . S
C1169 C1168 1.387 . S
H1170 C1182 0.930 . S
H1171 C1184 0.930 . S
H1172 C1185 0.930 . S
H1173 C1189 0.959 . S
H1174 C1189 0.959 . S
H1175 C1189 0.961 . S
H1176 C1190 0.960 . S
H1177 C1190 0.961 . S
H1178 C1190 0.959 . S
H1179 C1193 0.929 . S
H1180 C1194 0.931 . S
H1181 C1196 0.930 . S
C1182 H1170 0.930 . S
C1182 C1183 1.399 . S
C1182 C1187 1.399 . S
C1183 C1182 1.399 . S
C1183 C1184 1.376 . S
C1184 H1171 0.930 . S
C1184 C1183 1.376 . S
C1184 C1185 1.388 . S
C1185 H1172 0.930 . S
C1185 C1184 1.388 . S
C1185 C1186 1.390 . S
C1186 C1185 1.390 . S
C1186 C1187 1.394 . S
C1186 C1192 1.465 . S
C1187 C1182 1.399 . S
C1187 C1186 1.394 . S
C1187 C1188 1.516 . S
C1188 C1187 1.516 . S
C1188 C1189 1.502 . S
C1188 C1190 1.561 . S
C1188 C1191 1.526 . S
C1189 H1173 0.959 . S
C1189 H1174 0.959 . S
C1189 H1175 0.961 . S
C1189 C1188 1.502 . S
C1190 H1176 0.960 . S
C1190 H1177 0.961 . S
C1190 H1178 0.959 . S
C1190 C1188 1.561 . S
C1191 C1188 1.526 . S
C1191 C1192 1.396 . S
C1191 C1196 1.390 . S
C1192 C1186 1.465 . S
C1192 C1191 1.396 . S
C1192 C1193 1.399 . S
C1193 H1179 0.929 . S
C1193 C1192 1.399 . S
C1193 C1194 1.385 . S
C1194 H1180 0.931 . S
C1194 C1193 1.385 . S
C1194 C1195 1.389 . S
C1195 C1194 1.389 . S
C1195 C1196 1.387 . S
C1196 H1181 0.930 . S
C1196 C1191 1.390 . S
C1196 C1195 1.387 . S
H1197 C1209 0.930 . S
H1198 C1211 0.930 . S
H1199 C1212 0.930 . S
H1200 C1216 0.959 . S
H1201 C1216 0.959 . S
H1202 C1216 0.961 . S
H1203 C1217 0.960 . S
H1204 C1217 0.961 . S
H1205 C1217 0.959 . S
H1206 C1220 0.929 . S
H1207 C1221 0.931 . S
H1208 C1223 0.930 . S
C1209 H1197 0.930 . S
C1209 C1210 1.399 . S
C1209 C1214 1.399 . S
C1210 C1209 1.399 . S
C1210 C1211 1.376 . S
C1211 H1198 0.930 . S
C1211 C1210 1.376 . S
C1211 C1212 1.388 . S
C1212 H1199 0.930 . S
C1212 C1211 1.388 . S
C1212 C1213 1.390 . S
C1213 C1212 1.390 . S
C1213 C1214 1.394 . S
C1213 C1219 1.465 . S
C1214 C1209 1.399 . S
C1214 C1213 1.394 . S
C1214 C1215 1.516 . S
C1215 C1214 1.516 . S
C1215 C1216 1.502 . S
C1215 C1217 1.561 . S
C1215 C1218 1.526 . S
C1216 H1200 0.959 . S
C1216 H1201 0.959 . S
C1216 H1202 0.961 . S
C1216 C1215 1.502 . S
C1217 H1203 0.960 . S
C1217 H1204 0.961 . S
C1217 H1205 0.959 . S
C1217 C1215 1.561 . S
C1218 C1215 1.526 . S
C1218 C1219 1.396 . S
C1218 C1223 1.390 . S
C1219 C1213 1.465 . S
C1219 C1218 1.396 . S
C1219 C1220 1.399 . S
C1220 H1206 0.929 . S
C1220 C1219 1.399 . S
C1220 C1221 1.385 . S
C1221 H1207 0.931 . S
C1221 C1220 1.385 . S
C1221 C1222 1.389 . S
C1222 C1221 1.389 . S
C1222 C1223 1.387 . S
C1223 H1208 0.930 . S
C1223 C1218 1.390 . S
C1223 C1222 1.387 . S
H1224 C1236 0.930 . S
H1225 C1238 0.930 . S
H1226 C1239 0.930 . S
H1227 C1243 0.959 . S
H1228 C1243 0.959 . S
H1229 C1243 0.961 . S
H1230 C1244 0.960 . S
H1231 C1244 0.961 . S
H1232 C1244 0.959 . S
H1233 C1247 0.929 . S
H1234 C1248 0.931 . S
H1235 C1250 0.930 . S
C1236 H1224 0.930 . S
C1236 C1237 1.399 . S
C1236 C1241 1.399 . S
C1237 C1236 1.399 . S
C1237 C1238 1.376 . S
C1238 H1225 0.930 . S
C1238 C1237 1.376 . S
C1238 C1239 1.388 . S
C1239 H1226 0.930 . S
C1239 C1238 1.388 . S
C1239 C1240 1.390 . S
C1240 C1239 1.390 . S
C1240 C1241 1.394 . S
C1240 C1246 1.465 1_545 S
C1241 C1236 1.399 . S
C1241 C1240 1.394 . S
C1241 C1242 1.516 1_545 S
C1242 C1241 1.516 1_565 S
C1242 C1243 1.502 . S
C1242 C1244 1.561 . S
C1242 C1245 1.526 . S
C1243 H1227 0.959 . S
C1243 H1228 0.959 . S
C1243 H1229 0.961 . S
C1243 C1242 1.502 . S
C1244 H1230 0.960 . S
C1244 H1231 0.961 . S
C1244 H1232 0.959 . S
C1244 C1242 1.561 . S
C1245 C1242 1.526 . S
C1245 C1246 1.396 . S
C1245 C1250 1.390 . S
C1246 C1240 1.465 1_565 S
C1246 C1245 1.396 . S
C1246 C1247 1.399 . S
C1247 H1233 0.929 . S
C1247 C1246 1.399 . S
C1247 C1248 1.385 . S
C1248 H1234 0.931 . S
C1248 C1247 1.385 . S
C1248 C1249 1.389 . S
C1249 C1248 1.389 . S
C1249 C1250 1.387 . S
C1250 H1235 0.930 . S
C1250 C1245 1.390 . S
C1250 C1249 1.387 . S
H1251 C1263 0.930 . S
H1252 C1265 0.930 . S
H1253 C1266 0.930 . S
H1254 C1270 0.959 . S
H1255 C1270 0.959 . S
H1256 C1270 0.961 . S
H1257 C1271 0.960 . S
H1258 C1271 0.961 1_455 S
H1259 C1271 0.973 . S
H1260 C1274 0.929 . S
H1261 C1275 0.931 . S
H1262 C1277 0.930 . S
C1263 H1251 0.930 . S
C1263 C1264 1.399 . S
C1263 C1268 1.399 . S
C1264 C1263 1.399 . S
C1264 C1265 1.376 . S
C1265 H1252 0.930 . S
C1265 C1264 1.376 . S
C1265 C1266 1.388 . S
C1266 H1253 0.930 . S
C1266 C1265 1.388 . S
C1266 C1267 1.390 . S
C1267 C1266 1.390 . S
C1267 C1268 1.394 . S
C1267 C1273 1.465 1_655 S
C1268 C1263 1.399 . S
C1268 C1267 1.394 . S
C1268 C1269 1.516 . S
C1269 C1268 1.516 . S
C1269 C1270 1.502 . S
C1269 C1271 1.561 . S
C1269 C1272 1.526 1_655 S
C1270 H1254 0.959 . S
C1270 H1255 0.959 . S
C1270 H1256 0.961 . S
C1270 C1269 1.502 . S
C1271 H1257 0.960 . S
C1271 H1258 0.961 1_655 S
C1271 H1259 0.973 . S
C1271 C1269 1.561 . S
C1272 C1269 1.526 1_455 S
C1272 C1273 1.396 . S
C1272 C1277 1.390 . S
C1273 C1267 1.465 1_455 S
C1273 C1272 1.396 . S
C1273 C1274 1.399 . S
C1274 H1260 0.929 . S
C1274 C1273 1.399 . S
C1274 C1275 1.385 . S
C1275 H1261 0.931 . S
C1275 C1274 1.385 . S
C1275 C1276 1.389 . S
C1276 C1275 1.389 . S
C1276 C1277 1.387 . S
C1277 H1262 0.930 . S
C1277 C1272 1.390 . S
C1277 C1276 1.387 . S
H1278 C1290 0.930 . S
H1279 C1292 0.930 . S
H1280 C1293 0.930 . S
H1281 C1297 0.959 . S
H1282 C1297 0.959 . S
H1283 C1297 0.961 . S
H1284 C1298 0.960 . S
H1285 C1298 0.961 . S
H1286 C1298 0.959 . S
H1287 C1301 0.929 . S
H1288 C1302 0.931 . S
H1289 C1304 0.930 . S
C1290 H1278 0.930 . S
C1290 C1291 1.399 . S
C1290 C1295 1.399 . S
C1291 C1290 1.399 . S
C1291 C1292 1.376 . S
C1292 H1279 0.930 . S
C1292 C1291 1.376 . S
C1292 C1293 1.388 . S
C1293 H1280 0.930 . S
C1293 C1292 1.388 . S
C1293 C1294 1.390 . S
C1294 C1293 1.390 . S
C1294 C1295 1.394 . S
C1294 C1300 1.465 1_545 S
C1295 C1290 1.399 . S
C1295 C1294 1.394 . S
C1295 C1296 1.516 . S
C1296 C1295 1.516 . S
C1296 C1297 1.502 . S
C1296 C1298 1.561 . S
C1296 C1299 1.526 1_545 S
C1297 H1281 0.959 . S
C1297 H1282 0.959 . S
C1297 H1283 0.961 . S
C1297 C1296 1.502 . S
C1298 H1284 0.960 . S
C1298 H1285 0.961 . S
C1298 H1286 0.959 . S
C1298 C1296 1.561 . S
C1299 C1296 1.526 1_565 S
C1299 C1300 1.396 . S
C1299 C1304 1.390 . S
C1300 C1294 1.465 1_565 S
C1300 C1299 1.396 . S
C1300 C1301 1.399 . S
C1301 H1287 0.929 . S
C1301 C1300 1.399 . S
C1301 C1302 1.385 . S
C1302 H1288 0.931 . S
C1302 C1301 1.385 . S
C1302 C1303 1.389 . S
C1303 C1302 1.389 . S
C1303 C1304 1.387 . S
C1304 H1289 0.930 . S
C1304 C1299 1.390 . S
C1304 C1303 1.387 . S
H1305 C1317 0.930 . S
H1306 C1319 0.930 . S
H1307 C1320 0.930 . S
H1308 C1324 0.959 . S
H1309 C1324 0.959 . S
H1310 C1324 0.961 1_455 S
H1311 C1325 0.960 . S
H1312 C1325 0.961 1_655 S
H1313 C1325 0.959 . S
H1314 C1328 0.929 . S
H1315 C1329 0.931 . S
H1316 C1331 0.930 . S
C1317 H1305 0.930 . S
C1317 C1318 1.399 . S
C1317 C1322 1.399 . S
C1318 C1317 1.399 . S
C1318 C1319 1.376 . S
C1319 H1306 0.930 . S
C1319 C1318 1.376 . S
C1319 C1320 1.388 . S
C1320 H1307 0.930 . S
C1320 C1319 1.388 . S
C1320 C1321 1.390 . S
C1321 C1320 1.390 . S
C1321 C1322 1.394 . S
C1321 C1327 1.465 1_455 S
C1322 C1317 1.399 . S
C1322 C1321 1.394 . S
C1322 C1323 1.516 1_455 S
C1323 C1322 1.516 1_655 S
C1323 C1324 1.502 . S
C1323 C1325 1.561 1_655 S
C1323 C1326 1.526 . S
C1324 H1308 0.959 . S
C1324 H1309 0.959 . S
C1324 H1310 0.961 1_655 S
C1324 C1323 1.502 . S
C1325 H1311 0.960 . S
C1325 H1312 0.961 1_455 S
C1325 H1313 0.959 . S
C1325 C1323 1.561 1_455 S
C1326 C1323 1.526 . S
C1326 C1327 1.396 . S
C1326 C1331 1.390 . S
C1327 C1321 1.465 1_655 S
C1327 C1326 1.396 . S
C1327 C1328 1.399 . S
C1328 H1314 0.929 . S
C1328 C1327 1.399 . S
C1328 C1329 1.385 . S
C1329 H1315 0.931 . S
C1329 C1328 1.385 . S
C1329 C1330 1.389 . S
C1330 C1329 1.389 . S
C1330 C1331 1.387 . S
C1331 H1316 0.930 . S
C1331 C1326 1.390 . S
C1331 C1330 1.387 . S
H1332 C1344 0.930 . S
H1333 C1346 0.930 . S
H1334 C1347 0.930 . S
H1335 C1351 0.959 . S
H1336 C1351 0.959 . S
H1337 C1351 0.961 . S
H1338 C1352 0.960 . S
H1339 C1352 0.961 . S
H1340 C1352 0.959 . S
H1341 C1355 0.929 . S
H1342 C1356 0.931 . S
H1343 C1358 0.930 . S
C1344 H1332 0.930 . S
C1344 C1345 1.399 . S
C1344 C1349 1.399 . S
C1345 C1344 1.399 . S
C1345 C1346 1.376 . S
C1346 H1333 0.930 . S
C1346 C1345 1.376 . S
C1346 C1347 1.388 . S
C1347 H1334 0.930 . S
C1347 C1346 1.388 . S
C1347 C1348 1.390 . S
C1348 C1347 1.390 . S
C1348 C1349 1.394 . S
C1348 C1354 1.465 1_545 S
C1349 C1344 1.399 . S
C1349 C1348 1.394 . S
C1349 C1350 1.516 . S
C1350 C1349 1.516 . S
C1350 C1351 1.502 . S
C1350 C1352 1.561 . S
C1350 C1353 1.526 1_545 S
C1351 H1335 0.959 . S
C1351 H1336 0.959 . S
C1351 H1337 0.961 . S
C1351 C1350 1.502 . S
C1352 H1338 0.960 . S
C1352 H1339 0.961 . S
C1352 H1340 0.959 . S
C1352 C1350 1.561 . S
C1353 C1350 1.526 1_565 S
C1353 C1354 1.396 . S
C1353 C1358 1.390 . S
C1354 C1348 1.465 1_565 S
C1354 C1353 1.396 . S
C1354 C1355 1.399 . S
C1355 H1341 0.929 . S
C1355 C1354 1.399 . S
C1355 C1356 1.385 . S
C1356 H1342 0.931 . S
C1356 C1355 1.385 . S
C1356 C1357 1.389 . S
C1357 C1356 1.389 . S
C1357 C1358 1.387 . S
C1358 H1343 0.930 . S
C1358 C1353 1.390 . S
C1358 C1357 1.387 . S
H1359 C1371 0.930 . S
H1360 C1373 0.930 . S
H1361 C1374 0.930 . S
H1362 C1378 0.959 . S
H1363 C1378 0.934 1_455 S
H1364 C1378 0.961 . S
H1365 C1379 0.960 1_655 S
H1366 C1379 0.961 . S
H1367 C1379 0.959 . S
H1368 C1382 0.929 . S
H1369 C1383 0.931 . S
H1370 C1385 0.930 . S
C1371 H1359 0.930 . S
C1371 C1372 1.399 . S
C1371 C1376 1.399 . S
C1372 C1371 1.399 . S
C1372 C1373 1.376 . S
C1373 H1360 0.930 . S
C1373 C1372 1.376 . S
C1373 C1374 1.388 . S
C1374 H1361 0.930 . S
C1374 C1373 1.388 . S
C1374 C1375 1.390 . S
C1375 C1374 1.390 . S
C1375 C1376 1.394 . S
C1375 C1381 1.465 1_655 S
C1376 C1371 1.399 . S
C1376 C1375 1.394 . S
C1376 C1377 1.516 . S
C1377 C1376 1.516 . S
C1377 C1378 1.502 . S
C1377 C1379 1.561 1_655 S
C1377 C1380 1.526 1_655 S
C1378 H1362 0.959 . S
C1378 H1363 0.934 1_655 S
C1378 H1364 0.961 . S
C1378 C1377 1.502 . S
C1379 H1365 0.960 1_455 S
C1379 H1366 0.961 . S
C1379 H1367 0.959 . S
C1379 C1377 1.561 1_455 S
C1380 C1377 1.526 1_455 S
C1380 C1381 1.396 . S
C1380 C1385 1.390 . S
C1381 C1375 1.465 1_455 S
C1381 C1380 1.396 . S
C1381 C1382 1.399 . S
C1382 H1368 0.929 . S
C1382 C1381 1.399 . S
C1382 C1383 1.385 . S
C1383 H1369 0.931 . S
C1383 C1382 1.385 . S
C1383 C1384 1.389 . S
C1384 C1383 1.389 . S
C1384 C1385 1.387 . S
C1385 H1370 0.930 . S
C1385 C1380 1.390 . S
C1385 C1384 1.387 . S
H1386 C1398 0.930 . S
H1387 C1400 0.930 . S
H1388 C1401 0.930 . S
H1389 C1405 0.959 . S
H1390 C1405 0.959 . S
H1391 C1405 0.961 . S
H1392 C1406 0.960 . S
H1393 C1406 0.961 . S
H1394 C1406 0.959 . S
H1395 C1409 0.929 . S
H1396 C1410 0.931 . S
H1397 C1412 0.930 . S
C1398 H1386 0.930 . S
C1398 C1399 1.399 . S
C1398 C1403 1.399 . S
C1399 C1398 1.399 . S
C1399 C1400 1.376 . S
C1400 H1387 0.930 . S
C1400 C1399 1.376 . S
C1400 C1401 1.388 . S
C1401 H1388 0.930 . S
C1401 C1400 1.388 . S
C1401 C1402 1.390 . S
C1402 C1401 1.390 . S
C1402 C1403 1.394 . S
C1402 C1408 1.465 1_565 S
C1403 C1398 1.399 . S
C1403 C1402 1.394 . S
C1403 C1404 1.516 1_565 S
C1404 C1403 1.516 1_545 S
C1404 C1405 1.502 . S
C1404 C1406 1.561 . S
C1404 C1407 1.526 . S
C1405 H1389 0.959 . S
C1405 H1390 0.959 . S
C1405 H1391 0.961 . S
C1405 C1404 1.502 . S
C1406 H1392 0.960 . S
C1406 H1393 0.961 . S
C1406 H1394 0.959 . S
C1406 C1404 1.561 . S
C1407 C1404 1.526 . S
C1407 C1408 1.396 . S
C1407 C1412 1.390 . S
C1408 C1402 1.465 1_545 S
C1408 C1407 1.396 . S
C1408 C1409 1.399 . S
C1409 H1395 0.929 . S
C1409 C1408 1.399 . S
C1409 C1410 1.385 . S
C1410 H1396 0.931 . S
C1410 C1409 1.385 . S
C1410 C1411 1.389 . S
C1411 C1410 1.389 . S
C1411 C1412 1.387 . S
C1412 H1397 0.930 . S
C1412 C1407 1.390 . S
C1412 C1411 1.387 . S
H1413 C1425 0.930 . S
H1414 C1427 0.930 . S
H1415 C1428 0.930 . S
H1416 C1432 0.959 . S
H1417 C1432 0.959 . S
H1418 C1432 0.961 . S
H1419 C1433 0.960 . S
H1420 C1433 0.961 1_655 S
H1421 C1433 0.959 1_655 S
H1422 C1436 0.929 . S
H1423 C1437 0.931 . S
H1424 C1439 0.930 . S
C1425 H1413 0.930 . S
C1425 C1426 1.399 . S
C1425 C1430 1.399 . S
C1426 C1425 1.399 . S
C1426 C1427 1.376 . S
C1427 H1414 0.930 . S
C1427 C1426 1.376 . S
C1427 C1428 1.388 . S
C1428 H1415 0.930 . S
C1428 C1427 1.388 . S
C1428 C1429 1.390 . S
C1429 C1428 1.390 . S
C1429 C1430 1.394 . S
C1429 C1435 1.465 1_455 S
C1430 C1425 1.399 . S
C1430 C1429 1.394 . S
C1430 C1431 1.516 . S
C1431 C1430 1.516 . S
C1431 C1432 1.502 . S
C1431 C1433 1.561 . S
C1431 C1434 1.526 1_455 S
C1432 H1416 0.959 . S
C1432 H1417 0.959 . S
C1432 H1418 0.961 . S
C1432 C1431 1.502 . S
C1433 H1419 0.960 . S
C1433 H1420 0.961 1_455 S
C1433 H1421 0.959 1_455 S
C1433 C1431 1.561 . S
C1434 C1431 1.526 1_655 S
C1434 C1435 1.396 . S
C1434 C1439 1.390 . S
C1435 C1429 1.465 1_655 S
C1435 C1434 1.396 . S
C1435 C1436 1.399 . S
C1436 H1422 0.929 . S
C1436 C1435 1.399 . S
C1436 C1437 1.385 . S
C1437 H1423 0.931 . S
C1437 C1436 1.385 . S
C1437 C1438 1.389 . S
C1438 C1437 1.389 . S
C1438 C1439 1.387 . S
C1439 H1424 0.930 . S
C1439 C1434 1.390 . S
C1439 C1438 1.387 . S
C589 C184 1.394 . S
C601 C4 1.391 . S
C616 C220 1.394 . S
C628 C40 1.390 . S
C643 C76 1.386 . S
C655 C256 1.390 . S
C670 C112 1.386 . S
C682 C148 1.390 . S
C697 C472 1.386 . S
C709 C292 1.389 . S
C724 C508 1.393 . S
C736 C328 1.389 . S
C751 C364 1.387 . S
C763 C544 1.392 . S
C778 C400 1.386 . S
C790 C436 1.387 . S
C805 C374 1.473 . S
C817 C14 1.459 . S
C832 C410 1.468 . S
C844 C50 1.463 . S
C859 C302 1.509 . S
C871 C86 1.456 . S
C886 C122 1.510 . S
C898 C338 1.457 . S
C913 C518 1.457 . S
C925 C158 1.510 . S
C940 C554 1.509 . S
C952 C194 1.492 . S
C967 C230 1.509 . S
C979 C446 1.456 . S
C994 C482 1.463 . S
C1006 C266 1.467 . S
C1021 C146 1.047 . S
C1033 C2 1.075 . S
C1048 C38 1.083 . S
C1060 C182 1.099 . S
C1075 C74 1.099 . S
C1087 C218 1.083 . S
C1102 C254 1.044 . S
C1114 C110 1.063 . S
C1129 C291 1.732 . S
C1141 C435 1.723 . S
C1156 C471 1.726 . S
C1168 C327 1.729 . S
C1183 C363 1.723 . S
C1195 C507 1.732 . S
C1210 C543 1.728 . S
C1222 C399 1.727 . S
C1237 C398 1.045 . S
C1249 C470 1.069 . S
C1264 C290 1.082 . S
C1276 C506 1.052 . S
C1291 C542 1.097 . S
C1303 C326 1.071 . S
C1318 C362 1.081 . S
C1330 C434 1.099 . S
C1345 C183 1.732 . S
C1357 C111 1.723 . S
C1372 C219 1.731 . S
C1384 C3 1.724 . S
C1399 C255 1.723 . S
C1411 C39 1.732 . S
C1426 C147 1.732 . S
C1438 C75 1.723 . S
