# Generated by pormake.
# Topology sxa, (6)-cn, num edge types: 1
# Building blocks:
#     Node 0, Type 0, BuildingBlock: JUFBIX_clean_sbu_0, # of connection points: 6
#     Node 1, Type 0, BuildingBlock: JUFBIX_clean_sbu_0, # of connection points: 6
#     Node 2, Type 0, BuildingBlock: JUFBIX_clean_sbu_0, # of connection points: 6
#     Node 3, Type 0, BuildingBlock: JUFBIX_clean_sbu_0, # of connection points: 6
#     Edge 4, Type (0, 0), BuildingBlock: EZIPEK_clean_linker_0, # of connection points: 2
#     Edge 5, Type (0, 0), BuildingBlock: EZIPEK_clean_linker_0, # of connection points: 2
#     Edge 6, Type (0, 0), BuildingBlock: EZIPEK_clean_linker_0, # of connection points: 2
#     Edge 7, Type (0, 0), BuildingBlock: EZIPEK_clean_linker_0, # of connection points: 2
#     Edge 8, Type (0, 0), BuildingBlock: EZIPEK_clean_linker_0, # of connection points: 2
#     Edge 9, Type (0, 0), BuildingBlock: EZIPEK_clean_linker_0, # of connection points: 2
#     Edge 10, Type (0, 0), BuildingBlock: EZIPEK_clean_linker_0, # of connection points: 2
#     Edge 11, Type (0, 0), BuildingBlock: EZIPEK_clean_linker_0, # of connection points: 2
#     Edge 12, Type (0, 0), BuildingBlock: EZIPEK_clean_linker_0, # of connection points: 2
#     Edge 13, Type (0, 0), BuildingBlock: EZIPEK_clean_linker_0, # of connection points: 2
#     Edge 14, Type (0, 0), BuildingBlock: EZIPEK_clean_linker_0, # of connection points: 2
#     Edge 15, Type (0, 0), BuildingBlock: EZIPEK_clean_linker_0, # of connection points: 2
# Relax obj value: 0.464
# Max RMSD: 0.309
# Mean RMSD: 0.309
data_MOF--net-sxa--node1-JUFBIX_clean_sbu_0--edge1-EZIPEK_clean_linker_0
_symmetry_space_group_name_H-M    P1
_symmetry_Int_Tables_number       1
_symmetry_cell_setting            triclinic
loop_
_symmetry_equiv_pos_as_xyz
'x, y, z'
_cell_length_a     21.359002
_cell_length_b     20.177611
_cell_length_c     12.453055
_cell_angle_alpha  89.089779
_cell_angle_beta   69.679922
_cell_angle_gamma 86.808478
loop_
_atom_site_label
_atom_site_type_symbol
_atom_site_fract_x
_atom_site_fract_y
_atom_site_fract_z
_atom_type_partial_charge
Co0 Co 0.03957 0.78527 0.12155 0.0
C1 C 0.05416 0.9127 0.16252 0.0
Co2 Co 0.07517 0.7827 0.26843 0.0
C3 C 0.95465 0.71743 1.00194 0.0
C4 C 0.01647 0.84549 0.8937 0.0
N5 N 0.01256 0.78023 0.9996 0.0
N6 N 0.91513 0.7421 0.89765 0.0
C7 C 0.94785 0.81861 0.82084 0.0
H8 H 0.93413 0.68385 0.07264 0.0
H9 H 0.04034 0.89202 0.88671 0.0
C10 C 0.06512 0.65611 0.17613 0.0
N11 N 0.11459 0.78252 0.39084 0.0
C12 C 0.17943 0.79049 0.3838 0.0
C13 C 0.08513 0.76395 0.50106 0.0
N14 N 0.19116 0.77757 0.48326 0.0
C15 C 0.13124 0.76114 0.55716 0.0
C16 C 0.93565 0.78382 0.3478 0.0
O17 O 0.04905 0.69675 0.1131 0.0
O18 O 0.0764 0.67915 0.26419 0.0
O19 O 0.98686 0.78747 0.37661 0.0
O20 O 0.94497 0.78116 0.2393 0.0
O21 O 0.07542 0.88801 0.24259 0.0
H22 H 0.03371 0.75053 0.5381 0.0
H23 H 0.21833 0.80325 0.3063 0.0
O24 O 0.02887 0.87398 0.11428 0.0
O25 O 0.13247 0.78995 1.01847 0.0
O26 O 0.15671 0.7777 0.1742 0.0
C27 C 0.17532 0.78723 0.06929 0.0
H28 H 0.92398 0.85017 0.77361 0.0
H29 H 0.12174 0.74626 0.64509 0.0
Co30 Co 0.53973 0.2687 0.12411 0.0
C31 C 0.55975 0.39177 0.18685 0.0
Co32 Co 0.57486 0.25875 0.27083 0.0
C33 C 0.45098 0.25211 1.01628 0.0
C34 C 0.52056 0.3215 0.91977 0.0
N35 N 0.50888 0.27717 1.006 0.0
N36 N 0.4207 0.2847 0.9523 0.0
C37 C 0.46541 0.32618 0.88585 0.0
H38 H 0.42541 0.21947 0.08578 0.0
H39 H 0.56082 0.35519 0.89617 0.0
C40 C 0.55855 0.13626 0.16057 0.0
N41 N 0.61715 0.25077 0.3871 0.0
C42 C 0.67772 0.2717 0.38467 0.0
C43 C 0.59394 0.21917 0.48858 0.0
N44 N 0.693 0.25375 0.47923 0.0
C45 C 0.63962 0.22122 0.54486 0.0
C46 C 0.43632 0.26665 0.35628 0.0
O47 O 0.54056 0.18045 0.1051 0.0
O48 O 0.57352 0.15487 0.2484 0.0
O49 O 0.48803 0.26298 0.38452 0.0
O50 O 0.44538 0.26913 0.24786 0.0
O51 O 0.57822 0.36224 0.26542 0.0
H52 H 0.54704 0.19502 0.51943 0.0
H53 H 0.71058 0.29907 0.31405 0.0
O54 O 0.53715 0.35732 0.12832 0.0
O55 O 0.63232 0.26827 1.01589 0.0
O56 O 0.65487 0.25454 0.17231 0.0
C57 C 0.67501 0.25881 0.06611 0.0
H58 H 0.45449 0.36476 0.83253 0.0
H59 H 0.63453 0.19924 0.62715 0.0
Co60 Co 0.0395 0.29323 0.81878 0.0
C61 C 0.05569 0.41792 0.92354 0.0
Co62 Co 0.06669 0.2866 0.97388 0.0
C63 C 0.94261 0.27758 0.69558 0.0
C64 C 0.02865 0.3269 0.59119 0.0
N65 N 1.00307 0.29798 0.69474 0.0
N66 N 0.92953 0.29336 0.59841 0.0
C67 C 0.98421 0.32396 0.53238 0.0
H68 H 0.90777 0.25269 0.76744 0.0
H69 H 0.07608 0.35015 0.5609 0.0
C70 C 0.04793 0.16189 0.91597 0.0
N71 N 0.08833 0.28089 0.10149 0.0
C72 C 0.14231 0.30769 0.10751 0.0
C73 C 0.065 0.24362 0.19672 0.0
N74 N 0.15849 0.28428 0.19611 0.0
C75 C 0.10907 0.24515 0.25524 0.0
C76 C 0.93262 0.3028 1.01317 0.0
O77 O 0.03622 0.18926 0.82898 0.0
O78 O 0.064 0.19839 0.98034 0.0
O79 O 0.97135 0.295 0.07121 0.0
O80 O 0.95701 0.2997 0.90737 0.0
O81 O 0.07103 0.37454 0.98317 0.0
H82 H 0.02319 0.21206 0.2155 0.0
H83 H 0.17559 0.33529 1.03734 0.0
O84 O 0.04122 0.39789 0.83597 0.0
O85 O 0.12849 0.28722 0.71557 0.0
O86 O 0.16446 0.27876 0.86095 0.0
C87 C 0.1775 0.28093 0.75096 0.0
H88 H 0.99103 0.34411 0.44821 0.0
H89 H 0.1093 0.21375 0.32641 0.0
Co90 Co 0.54505 0.76588 0.81731 0.0
C91 C 0.55233 0.89339 0.91317 0.0
Co92 Co 0.57445 0.76458 0.97042 0.0
C93 C 0.44878 0.75259 0.68781 0.0
C94 C 0.53858 0.79657 0.58654 0.0
N95 N 0.51078 0.7668 0.68892 0.0
N96 N 0.43693 0.77286 0.59129 0.0
C97 C 0.49402 0.80028 0.52734 0.0
H98 H 0.41118 0.73114 0.75878 0.0
H99 H 0.58692 0.81801 0.55886 0.0
C100 C 0.56414 0.63639 0.92493 0.0
N101 N 0.59466 0.76779 0.09955 0.0
C102 C 0.65579 0.82424 0.10751 0.0
C103 C 0.57567 0.70464 0.21223 0.0
N104 N 0.68225 0.79706 0.22682 0.0
C105 C 0.63732 0.7253 0.30307 0.0
C106 C 0.43946 0.76214 1.00813 0.0
O107 O 0.54429 0.66023 0.84272 0.0
O108 O 0.58582 0.67631 0.97656 0.0
O109 O 0.47931 0.75902 0.06486 0.0
O110 O 0.46193 0.77114 0.90332 0.0
O111 O 0.5648 0.85316 0.98059 0.0
H112 H 0.54707 0.66144 0.21698 0.0
H113 H 0.68376 0.8553 1.03748 0.0
O114 O 0.54441 0.86967 0.82244 0.0
O115 O 0.63457 0.76108 0.71694 0.0
O116 O 0.67146 0.76939 0.86027 0.0
C117 C 0.68382 0.76581 0.75063 0.0
H118 H 0.50205 0.82397 0.44536 0.0
H119 H 0.65249 0.69247 0.3602 0.0
C120 C 1.00362 0.49735 0.09291 0.0
C121 C 0.04959 0.48722 0.97738 0.0
C122 C 0.11903 0.5708 1.02167 0.0
C123 C 0.07012 0.58524 0.13193 0.0
N124 N 0.96303 0.56367 0.2685 0.0
N125 N 0.14682 0.52362 0.82992 0.0
C126 C 0.01189 0.5484 0.16607 0.0
C127 C 0.10599 0.527 0.94178 0.0
N128 N 0.95262 0.4558 0.13518 0.0
N129 N 0.1791 0.59907 0.99408 0.0
H130 H 0.136 0.49443 0.77086 0.0
H131 H 0.1862 0.55445 0.79371 0.0
H132 H 0.18966 0.62987 0.05155 0.0
H133 H 0.21995 0.58666 0.92103 0.0
H134 H 0.9236 0.45249 0.22151 0.0
H135 H 0.94149 0.42223 0.08333 0.0
H136 H 0.91528 0.54578 0.29412 0.0
H137 H 0.9701 0.59682 0.32633 0.0
C138 C 0.62247 0.48135 0.05512 0.0
C139 C 0.56471 0.46369 0.1474 0.0
C140 C 0.50266 0.55629 0.08727 0.0
C141 C 0.55756 0.56733 0.98248 0.0
N142 N 0.6708 0.53444 0.86902 0.0
N143 N 0.44748 0.48373 0.24626 0.0
C144 C 0.61763 0.52766 0.96769 0.0
C145 C 0.50429 0.50101 0.16081 0.0
N146 N 0.6829 0.45514 0.0535 0.0
N147 N 0.45057 0.60204 0.12372 0.0
H148 H 0.44864 0.44885 0.30847 0.0
H149 H 0.3997 0.50191 0.25264 0.0
H150 H 0.4498 0.64552 0.08041 0.0
H151 H 0.41228 0.60071 0.20279 0.0
H152 H 0.7281 0.47194 0.99886 0.0
H153 H 0.68703 0.4221 0.11644 0.0
H154 H 0.71453 0.50421 0.84733 0.0
H155 H 0.66835 0.56678 0.80422 0.0
C156 C 0.60479 1.00266 0.92001 0.0
C157 C 0.54725 0.96484 0.95509 0.0
C158 C 0.509 0.02678 0.14196 0.0
C159 C 0.56475 0.06749 0.105 0.0
N160 N 0.65748 0.10214 0.94135 0.0
N161 N 0.43733 0.95262 0.09059 0.0
C162 C 0.61034 0.05723 0.98908 0.0
C163 C 0.49733 0.98088 0.06364 0.0
N164 N 0.6554 0.98565 0.82057 0.0
N165 N 0.46673 0.03209 0.25285 0.0
H166 H 0.42756 0.92081 1.03362 0.0
H167 H 0.39582 0.96627 0.16184 0.0
H168 H 0.47464 0.0646 0.31069 0.0
H169 H 0.42826 1.00034 0.28983 0.0
H170 H 0.70255 1.00492 0.79628 0.0
H171 H 0.65063 0.94965 0.76499 0.0
H172 H 0.68587 0.10325 0.8544 0.0
H173 H 0.66454 0.14155 0.98729 0.0
C174 C 0.00614 0.02901 0.14452 0.0
C175 C 0.06149 0.98211 0.10654 0.0
C176 C 0.10045 0.04678 0.92187 0.0
C177 C 0.04284 0.09021 0.95748 0.0
N178 N 0.93335 0.11135 0.09402 0.0
N179 N 0.15275 0.9408 0.93926 0.0
C180 C 0.9937 0.07758 0.0665 0.0
C181 C 0.10623 0.98991 0.98981 0.0
N182 N 0.96485 0.02704 0.25613 0.0
N183 N 0.15107 0.06036 0.8227 0.0
H184 H 0.16156 0.90045 0.98403 0.0
H185 H 0.17883 0.93808 0.85153 0.0
H186 H 0.14605 0.09796 0.76721 0.0
H187 H 0.19851 0.03657 0.79883 0.0
H188 H 0.92682 0.06295 0.29357 0.0
H189 H 0.97333 0.99269 0.31383 0.0
H190 H 0.89254 0.10016 0.1656 0.0
H191 H 0.92284 0.14467 1.03676 0.0
C192 C 0.32293 0.82366 0.61096 0.0
C193 C 0.37434 0.77305 0.56594 0.0
C194 C 0.30441 0.72498 0.46598 0.0
C195 C 0.25443 0.77742 0.50656 0.0
N196 N 0.22032 0.88133 0.60558 0.0
N197 N 0.4171 0.6793 0.44137 0.0
C198 C 0.26496 0.82785 0.57626 0.0
C199 C 0.36578 0.72491 0.49051 0.0
N200 N 0.32947 0.86758 0.68817 0.0
N201 N 0.29187 0.6737 0.40752 0.0
H202 H 0.46077 0.67673 0.46129 0.0
H203 H 0.41822 0.64649 0.37713 0.0
H204 H 0.24829 0.67287 0.38778 0.0
H205 H 0.3219 0.63013 0.38562 0.0
H206 H 0.29189 0.90193 0.73374 0.0
H207 H 0.37184 0.86708 0.71167 0.0
H208 H 0.22768 0.92386 0.64482 0.0
H209 H 0.17803 0.88534 0.58169 0.0
C210 C 0.29241 0.22207 0.63969 0.0
C211 C 0.24789 0.27939 0.65883 0.0
C212 C 0.32103 0.32351 0.47023 0.0
C213 C 0.3675 0.26775 0.45343 0.0
N214 N 0.39879 0.16553 0.52958 0.0
N215 N 0.22663 0.38973 0.59973 0.0
C216 C 0.35345 0.21782 0.5409 0.0
C217 C 0.26436 0.33127 0.57552 0.0
N218 N 0.27478 0.16983 0.7132 0.0
N219 N 0.33099 0.36962 0.38529 0.0
H220 H 0.18651 0.39749 0.67597 0.0
H221 H 0.23815 0.43255 0.55081 0.0
H222 H 0.3713 0.36614 0.30868 0.0
H223 H 0.29733 0.40903 0.38634 0.0
H224 H 0.2993 0.12306 0.69796 0.0
H225 H 0.23296 0.17231 0.78797 0.0
H226 H 0.39773 0.13286 0.59564 0.0
H227 H 0.43943 0.15599 0.45463 0.0
C228 C 0.82277 0.33724 0.57377 0.0
C229 C 0.8689 0.28297 0.57141 0.0
C230 C 0.79967 0.20991 0.50469 0.0
C231 C 0.75389 0.26435 0.50552 0.0
N232 N 0.71683 0.37765 0.55538 0.0
N233 N 0.90591 0.16972 0.52196 0.0
C234 C 0.76461 0.32762 0.54317 0.0
C235 C 0.8581 0.21972 0.53422 0.0
N236 N 0.8354 0.39841 0.60441 0.0
N237 N 0.78644 0.14831 0.47685 0.0
H238 H 0.94853 0.17574 0.54282 0.0
H239 H 0.90589 0.12373 0.48552 0.0
H240 H 0.74724 0.14047 0.4476 0.0
H241 H 0.81248 0.10468 0.48571 0.0
H242 H 0.80873 0.44214 0.59833 0.0
H243 H 0.87462 0.40575 0.63393 0.0
H244 H 0.71679 0.42363 0.59189 0.0
H245 H 0.67429 0.37171 0.53427 0.0
C246 C 0.85047 0.82996 0.53647 0.0
C247 C 0.86733 0.78208 0.44544 0.0
C248 C 0.77075 0.7184 0.56562 0.0
C249 C 0.7534 0.76664 0.65614 0.0
N250 N 0.77691 0.86929 0.72572 0.0
N251 N 0.84357 0.67954 0.37567 0.0
C252 C 0.79407 0.82219 0.64126 0.0
C253 C 0.82678 0.72641 0.46052 0.0
N254 N 0.88867 0.88393 0.52138 0.0
N255 N 0.73316 0.66391 0.58155 0.0
H256 H 0.88241 0.68425 0.29797 0.0
H257 H 0.82033 0.63522 0.38044 0.0
H258 H 0.69772 0.65257 0.66048 0.0
H259 H 0.73632 0.62927 0.51887 0.0
H260 H 0.88615 0.91759 0.58516 0.0
H261 H 0.92411 0.89555 0.44258 0.0
H262 H 0.79957 0.91406 0.72005 0.0
H263 H 0.7382 0.86433 0.80357 0.0
C264 C 0.32986 0.8111 0.11168 0.0
C265 C 0.36703 0.75578 0.05182 0.0
C266 C 0.28454 0.74218 0.95719 0.0
C267 C 0.24701 0.7967 1.01853 0.0
N268 N 0.24188 0.89503 0.13042 0.0
N269 N 0.37277 0.65856 0.93588 0.0
C270 C 0.27347 0.83589 0.08575 0.0
C271 C 0.34125 0.71747 0.98209 0.0
N272 N 0.34709 0.83778 0.19694 0.0
N273 N 0.26682 0.71592 0.87219 0.0
H274 H 0.41891 0.64223 0.9391 0.0
H275 H 0.35199 0.62501 0.89686 0.0
H276 H 0.22609 0.73599 0.8522 0.0
H277 H 0.29564 0.67954 0.81518 0.0
H278 H 0.31847 0.87489 0.25244 0.0
H279 H 0.38686 0.81744 0.21932 0.0
H280 H 0.26181 0.92858 0.17084 0.0
H281 H 0.19765 0.91246 0.12044 0.0
C282 C 0.26127 0.22231 0.10481 0.0
C283 C 0.22786 0.2756 0.17811 0.0
C284 C 0.3223 0.34422 0.08685 0.0
C285 C 0.34982 0.29398 1.0012 0.0
N286 N 0.33947 0.19146 0.91707 0.0
N287 N 0.22552 0.3856 0.24569 0.0
C288 C 0.31583 0.23567 1.0056 0.0
C289 C 0.25978 0.33523 0.1737 0.0
N290 N 0.23829 0.16011 0.12775 0.0
N291 N 0.35664 0.39919 0.08764 0.0
H292 H 0.18021 0.37792 0.31143 0.0
H293 H 0.23998 0.4344 0.23769 0.0
H294 H 0.39915 0.412 1.02095 0.0
H295 H 0.34295 0.43262 0.15566 0.0
H296 H 0.26229 0.11846 0.07942 0.0
H297 H 0.19972 0.14935 0.20325 0.0
H298 H 0.31522 0.14891 0.91174 0.0
H299 H 0.38055 0.20129 0.84426 0.0
C300 C 0.77558 0.31684 0.95894 0.0
C301 C 0.74836 0.2588 1.01543 0.0
C302 C 0.82904 0.2524 0.11538 0.0
C303 C 0.85919 0.30774 0.05559 0.0
N304 N 0.85673 0.40097 0.93317 0.0
N305 N 0.76254 0.15948 0.11688 0.0
C306 C 0.82965 0.34352 0.98311 0.0
C307 C 0.78158 0.22173 0.08028 0.0
N308 N 0.75015 0.34493 0.88133 0.0
N309 N 0.84489 0.23028 0.20711 0.0
H310 H 0.72592 0.13689 0.09524 0.0
H311 H 0.78599 0.12912 0.16149 0.0
H312 H 0.87791 0.25478 0.23589 0.0
H313 H 0.81996 0.19277 0.26049 0.0
H314 H 0.76658 0.38787 0.83564 0.0
H315 H 0.71427 0.32205 0.85764 0.0
H316 H 0.83988 0.42987 0.87789 0.0
H317 H 0.89637 0.42078 0.94995 0.0
C318 C 0.79838 0.71003 1.00223 0.0
C319 C 0.84866 0.75513 0.96538 0.0
C320 C 0.80149 0.82145 0.13733 0.0
C321 C 0.74939 0.77796 0.17271 0.0
N322 N 0.67897 0.71993 0.1201 0.0
N323 N 0.91925 0.81942 1.00364 0.0
C324 C 0.74534 0.72729 0.10435 0.0
C325 C 0.85299 0.80554 1.03259 0.0
N326 N 0.79977 0.65497 0.94015 0.0
N327 N 0.80093 0.87568 0.20077 0.0
H328 H 1.00161 0.75904 0.86744 0.0
H329 H 0.92433 0.85574 0.06023 0.0
H330 H 0.7624 0.88503 0.27892 0.0
H331 H 0.83714 0.91084 0.17315 0.0
H332 H 0.76366 0.61973 0.969 0.0
H333 H 0.83875 0.64496 0.86283 0.0
H334 H 0.67509 0.68373 0.06226 0.0
H335 H 0.59649 0.78901 0.23842 0.0
loop_
_geom_bond_atom_site_label_1
_geom_bond_atom_site_label_2
_geom_bond_distance
_geom_bond_site_symmetry_2
_ccdc_geom_bond_type
Co0 N5 2.057 1_455 S
Co0 O17 2.021 . S
Co0 O20 2.062 1_455 S
Co0 O24 2.117 . S
Co0 O25 2.020 1_554 S
C1 O21 1.259 . S
C1 O24 1.258 . S
Co2 N11 2.057 . S
Co2 O18 2.117 . S
Co2 O19 2.020 1_455 S
Co2 O21 2.021 . S
Co2 O26 2.062 . S
C3 N5 1.316 1_556 S
C3 N6 1.347 . S
C3 H8 0.931 . S
C4 N5 1.375 1_556 S
C4 C7 1.350 . S
C4 H9 0.930 . S
N5 Co0 2.057 1_655 S
N5 C3 1.316 1_554 S
N5 C4 1.375 1_554 S
N6 C3 1.347 . S
N6 C7 1.373 . S
C7 C4 1.350 . S
C7 N6 1.373 . S
C7 H28 0.931 . S
H8 C3 0.931 . S
H9 C4 0.930 . S
C10 O17 1.259 . S
C10 O18 1.258 . S
N11 Co2 2.057 . S
N11 C12 1.316 . S
N11 C13 1.375 . S
C12 N11 1.316 . S
C12 N14 1.347 . S
C12 H23 0.931 . S
C13 N11 1.375 . S
C13 C15 1.350 . S
C13 H22 0.930 . S
N14 C12 1.347 . S
N14 C15 1.373 . S
C15 C13 1.350 . S
C15 N14 1.373 . S
C15 H29 0.931 . S
C16 O19 1.256 . S
C16 O20 1.255 . S
O17 Co0 2.021 . S
O17 C10 1.259 . S
O18 Co2 2.117 . S
O18 C10 1.258 . S
O19 Co2 2.020 1_655 S
O19 C16 1.256 . S
O20 Co0 2.062 1_655 S
O20 C16 1.255 . S
O21 C1 1.259 . S
O21 Co2 2.021 . S
H22 C13 0.930 . S
H23 C12 0.931 . S
O24 Co0 2.117 . S
O24 C1 1.258 . S
O25 Co0 2.020 1_556 S
O25 C27 1.256 1_556 S
O26 Co2 2.062 . S
O26 C27 1.255 . S
C27 O25 1.256 1_554 S
C27 O26 1.255 . S
H28 C7 0.931 . S
H29 C15 0.931 . S
Co30 N35 2.057 . S
Co30 O47 2.021 . S
Co30 O50 2.062 . S
Co30 O54 2.117 . S
Co30 O55 2.020 1_554 S
C31 O51 1.259 . S
C31 O54 1.258 . S
Co32 N41 2.057 . S
Co32 O48 2.117 . S
Co32 O49 2.020 . S
Co32 O51 2.021 . S
Co32 O56 2.062 . S
C33 N35 1.316 1_556 S
C33 N36 1.347 . S
C33 H38 0.931 . S
C34 N35 1.375 1_556 S
C34 C37 1.350 . S
C34 H39 0.930 . S
N35 Co30 2.057 . S
N35 C33 1.316 1_554 S
N35 C34 1.375 1_554 S
N36 C33 1.347 . S
N36 C37 1.373 . S
C37 C34 1.350 . S
C37 N36 1.373 . S
C37 H58 0.931 . S
H38 C33 0.931 . S
H39 C34 0.930 . S
C40 O47 1.259 . S
C40 O48 1.258 . S
N41 Co32 2.057 . S
N41 C42 1.316 . S
N41 C43 1.375 . S
C42 N41 1.316 . S
C42 N44 1.347 . S
C42 H53 0.931 . S
C43 N41 1.375 . S
C43 C45 1.350 . S
C43 H52 0.930 . S
N44 C42 1.347 . S
N44 C45 1.373 . S
C45 C43 1.350 . S
C45 N44 1.373 . S
C45 H59 0.931 . S
C46 O49 1.256 . S
C46 O50 1.255 . S
O47 Co30 2.021 . S
O47 C40 1.259 . S
O48 Co32 2.117 . S
O48 C40 1.258 . S
O49 Co32 2.020 . S
O49 C46 1.256 . S
O50 Co30 2.062 . S
O50 C46 1.255 . S
O51 C31 1.259 . S
O51 Co32 2.021 . S
H52 C43 0.930 . S
H53 C42 0.931 . S
O54 Co30 2.117 . S
O54 C31 1.258 . S
O55 Co30 2.020 1_556 S
O55 C57 1.256 1_556 S
O56 Co32 2.062 . S
O56 C57 1.255 . S
C57 O55 1.256 1_554 S
C57 O56 1.255 . S
H58 C37 0.931 . S
H59 C45 0.931 . S
Co60 N65 2.057 1_455 S
Co60 O77 2.021 . S
Co60 O80 2.062 1_455 S
Co60 O84 2.117 . S
Co60 O85 2.020 . S
C61 O81 1.259 . S
C61 O84 1.258 . S
Co62 N71 2.057 . S
Co62 O78 2.117 . S
Co62 O79 2.020 1_456 S
Co62 O81 2.021 . S
Co62 O86 2.062 . S
C63 N65 1.316 . S
C63 N66 1.347 . S
C63 H68 0.931 . S
C64 N65 1.375 . S
C64 C67 1.350 . S
C64 H69 0.930 . S
N65 Co60 2.057 1_655 S
N65 C63 1.316 . S
N65 C64 1.375 . S
N66 C63 1.347 . S
N66 C67 1.373 . S
C67 C64 1.350 . S
C67 N66 1.373 . S
C67 H88 0.931 . S
H68 C63 0.931 . S
H69 C64 0.930 . S
C70 O77 1.259 . S
C70 O78 1.258 . S
N71 Co62 2.057 . S
N71 C72 1.316 1_556 S
N71 C73 1.375 1_556 S
C72 N71 1.316 1_554 S
C72 N74 1.347 . S
C72 H83 0.931 . S
C73 N71 1.375 1_554 S
C73 C75 1.350 . S
C73 H82 0.930 . S
N74 C72 1.347 . S
N74 C75 1.373 . S
C75 C73 1.350 . S
C75 N74 1.373 . S
C75 H89 0.931 . S
C76 O79 1.256 1_556 S
C76 O80 1.255 . S
O77 Co60 2.021 . S
O77 C70 1.259 . S
O78 Co62 2.117 . S
O78 C70 1.258 . S
O79 Co62 2.020 1_654 S
O79 C76 1.256 1_554 S
O80 Co60 2.062 1_655 S
O80 C76 1.255 . S
O81 C61 1.259 . S
O81 Co62 2.021 . S
H82 C73 0.930 . S
H83 C72 0.931 . S
O84 Co60 2.117 . S
O84 C61 1.258 . S
O85 Co60 2.020 . S
O85 C87 1.256 . S
O86 Co62 2.062 . S
O86 C87 1.255 . S
C87 O85 1.256 . S
C87 O86 1.255 . S
H88 C67 0.931 . S
H89 C75 0.931 . S
Co90 N95 2.057 . S
Co90 O107 2.021 . S
Co90 O110 2.062 . S
Co90 O114 2.117 . S
Co90 O115 2.020 . S
C91 O111 1.259 . S
C91 O114 1.258 . S
Co92 N101 2.057 . S
Co92 O108 2.117 . S
Co92 O109 2.020 1_556 S
Co92 O111 2.021 . S
Co92 O116 2.062 . S
C93 N95 1.316 . S
C93 N96 1.347 . S
C93 H98 0.931 . S
C94 N95 1.375 . S
C94 C97 1.350 . S
C94 H99 0.930 . S
N95 Co90 2.057 . S
N95 C93 1.316 . S
N95 C94 1.375 . S
N96 C93 1.347 . S
N96 C97 1.373 . S
C97 C94 1.350 . S
C97 N96 1.373 . S
C97 H118 0.931 . S
H98 C93 0.931 . S
H99 C94 0.930 . S
C100 O107 1.259 . S
C100 O108 1.258 . S
N101 Co92 2.057 . S
N101 C102 1.316 1_556 S
N101 C103 1.375 1_556 S
C102 N101 1.316 1_554 S
C102 N104 1.347 . S
C102 H113 0.931 . S
C103 N101 1.375 1_554 S
C103 C105 1.350 . S
C103 H112 0.930 . S
N104 C102 1.347 . S
N104 C105 1.373 . S
C105 C103 1.350 . S
C105 N104 1.373 . S
C105 H119 0.931 . S
C106 O109 1.256 1_556 S
C106 O110 1.255 . S
O107 Co90 2.021 . S
O107 C100 1.259 . S
O108 Co92 2.117 . S
O108 C100 1.258 . S
O109 Co92 2.020 1_554 S
O109 C106 1.256 1_554 S
O110 Co90 2.062 . S
O110 C106 1.255 . S
O111 C91 1.259 . S
O111 Co92 2.021 . S
H112 C103 0.930 . S
H113 C102 0.931 . S
O114 Co90 2.117 . S
O114 C91 1.258 . S
O115 Co90 2.020 . S
O115 C117 1.256 . S
O116 Co92 2.062 . S
O116 C117 1.255 . S
C117 O115 1.256 . S
C117 O116 1.255 . S
H118 C97 0.931 . S
H119 C105 0.931 . S
C120 C121 1.363 1_554 S
C120 C126 1.379 . S
C120 N128 1.356 . S
C121 C120 1.363 1_556 S
C121 C127 1.363 . S
C122 C123 1.363 1_556 S
C122 C127 1.379 . S
C122 N129 1.356 . S
C123 C122 1.363 1_554 S
C123 C126 1.363 . S
N124 C126 1.356 . S
N124 H136 0.984 1_455 S
N124 H137 0.985 . S
N125 C127 1.356 . S
N125 H130 0.984 . S
N125 H131 0.985 . S
C126 C120 1.379 . S
C126 C123 1.363 . S
C126 N124 1.356 . S
C127 C121 1.363 . S
C127 C122 1.379 . S
C127 N125 1.356 . S
N128 C120 1.356 . S
N128 H134 0.984 1_455 S
N128 H135 0.984 1_554 S
N129 C122 1.356 . S
N129 H132 0.984 1_556 S
N129 H133 0.985 . S
H130 N125 0.984 . S
H131 N125 0.985 . S
H132 N129 0.984 1_554 S
H133 N129 0.985 . S
H134 N128 0.984 1_655 S
H135 N128 0.984 1_556 S
H136 N124 0.984 1_655 S
H137 N124 0.985 . S
C138 C139 1.363 1_556 S
C138 C144 1.379 . S
C138 N146 1.356 . S
C139 C138 1.363 1_554 S
C139 C145 1.363 . S
C140 C141 1.363 1_554 S
C140 C145 1.379 . S
C140 N147 1.356 . S
C141 C140 1.363 1_556 S
C141 C144 1.363 . S
N142 C144 1.356 . S
N142 H154 0.984 . S
N142 H155 0.985 . S
N143 C145 1.356 . S
N143 H148 0.984 . S
N143 H149 0.985 . S
C144 C138 1.379 . S
C144 C141 1.363 . S
C144 N142 1.356 . S
C145 C139 1.363 . S
C145 C140 1.379 . S
C145 N143 1.356 . S
N146 C138 1.356 . S
N146 H152 0.984 . S
N146 H153 0.984 1_556 S
N147 C140 1.356 . S
N147 H150 0.984 1_554 S
N147 H151 0.985 . S
H148 N143 0.984 . S
H149 N143 0.985 . S
H150 N147 0.984 1_556 S
H151 N147 0.985 . S
H152 N146 0.984 . S
H153 N146 0.984 1_554 S
H154 N142 0.984 . S
H155 N142 0.985 . S
C156 C157 1.363 1_545 S
C156 C162 1.379 . S
C156 N164 1.356 . S
C157 C156 1.363 1_565 S
C157 C163 1.363 1_556 S
C158 C159 1.363 1_565 S
C158 C163 1.379 . S
C158 N165 1.356 . S
C159 C158 1.363 1_545 S
C159 C162 1.363 1_554 S
N160 C162 1.356 . S
N160 H172 0.984 . S
N160 H173 0.985 1_556 S
N161 C163 1.356 . S
N161 H166 0.984 1_554 S
N161 H167 0.985 . S
C162 C156 1.379 . S
C162 C159 1.363 1_556 S
C162 N160 1.356 . S
C163 C157 1.363 1_554 S
C163 C158 1.379 . S
C163 N161 1.356 . S
N164 C156 1.356 . S
N164 H170 0.984 . S
N164 H171 0.984 1_545 S
N165 C158 1.356 . S
N165 H168 0.984 1_565 S
N165 H169 0.985 . S
H166 N161 0.984 1_556 S
H167 N161 0.985 . S
H168 N165 0.984 1_545 S
H169 N165 0.985 . S
H170 N164 0.984 . S
H171 N164 0.984 1_565 S
H172 N160 0.984 . S
H173 N160 0.985 1_554 S
C174 C175 1.363 1_545 S
C174 C180 1.379 . S
C174 N182 1.356 1_455 S
C175 C174 1.363 1_565 S
C175 C181 1.363 1_554 S
C176 C177 1.363 1_565 S
C176 C181 1.379 . S
C176 N183 1.356 . S
C177 C176 1.363 1_545 S
C177 C180 1.363 1_556 S
N178 C180 1.356 1_655 S
N178 H190 0.984 . S
N178 H191 0.985 1_554 S
N179 C181 1.356 . S
N179 H184 0.984 1_556 S
N179 H185 0.985 . S
C180 C174 1.379 . S
C180 C177 1.363 1_554 S
C180 N178 1.356 1_455 S
C181 C175 1.363 1_556 S
C181 C176 1.379 . S
C181 N179 1.356 . S
N182 C174 1.356 1_655 S
N182 H188 0.984 . S
N182 H189 0.984 1_645 S
N183 C176 1.356 . S
N183 H186 0.984 1_565 S
N183 H187 0.985 . S
H184 N179 0.984 1_554 S
H185 N179 0.985 . S
H186 N183 0.984 1_545 S
H187 N183 0.985 . S
H188 N182 0.984 . S
H189 N182 0.984 1_465 S
H190 N178 0.984 . S
H191 N178 0.985 1_556 S
C192 C193 1.363 . S
C192 C198 1.379 . S
C192 N200 1.356 . S
C193 C192 1.363 . S
C193 C199 1.363 . S
C194 C195 1.363 . S
C194 C199 1.379 . S
C194 N201 1.356 . S
C195 C194 1.363 . S
C195 C198 1.363 . S
N196 C198 1.356 . S
N196 H208 0.984 . S
N196 H209 0.985 . S
N197 C199 1.356 . S
N197 H202 0.984 . S
N197 H203 0.985 . S
C198 C192 1.379 . S
C198 C195 1.363 . S
C198 N196 1.356 . S
C199 C193 1.363 . S
C199 C194 1.379 . S
C199 N197 1.356 . S
N200 C192 1.356 . S
N200 H206 0.984 . S
N200 H207 0.984 . S
N201 C194 1.356 . S
N201 H204 0.984 . S
N201 H205 0.985 . S
H202 N197 0.984 . S
H203 N197 0.985 . S
H204 N201 0.984 . S
H205 N201 0.985 . S
H206 N200 0.984 . S
H207 N200 0.984 . S
H208 N196 0.984 . S
H209 N196 0.985 . S
C210 C211 1.363 . S
C210 C216 1.379 . S
C210 N218 1.356 . S
C211 C210 1.363 . S
C211 C217 1.363 . S
C212 C213 1.363 . S
C212 C217 1.379 . S
C212 N219 1.356 . S
C213 C212 1.363 . S
C213 C216 1.363 . S
N214 C216 1.356 . S
N214 H226 0.984 . S
N214 H227 0.985 . S
N215 C217 1.356 . S
N215 H220 0.984 . S
N215 H221 0.985 . S
C216 C210 1.379 . S
C216 C213 1.363 . S
C216 N214 1.356 . S
C217 C211 1.363 . S
C217 C212 1.379 . S
C217 N215 1.356 . S
N218 C210 1.356 . S
N218 H224 0.984 . S
N218 H225 0.984 . S
N219 C212 1.356 . S
N219 H222 0.984 . S
N219 H223 0.985 . S
H220 N215 0.984 . S
H221 N215 0.985 . S
H222 N219 0.984 . S
H223 N219 0.985 . S
H224 N218 0.984 . S
H225 N218 0.984 . S
H226 N214 0.984 . S
H227 N214 0.985 . S
C228 C229 1.363 . S
C228 C234 1.379 . S
C228 N236 1.356 . S
C229 C228 1.363 . S
C229 C235 1.363 . S
C230 C231 1.363 . S
C230 C235 1.379 . S
C230 N237 1.356 . S
C231 C230 1.363 . S
C231 C234 1.363 . S
N232 C234 1.356 . S
N232 H244 0.984 . S
N232 H245 0.985 . S
N233 C235 1.356 . S
N233 H238 0.984 . S
N233 H239 0.985 . S
C234 C228 1.379 . S
C234 C231 1.363 . S
C234 N232 1.356 . S
C235 C229 1.363 . S
C235 C230 1.379 . S
C235 N233 1.356 . S
N236 C228 1.356 . S
N236 H242 0.984 . S
N236 H243 0.984 . S
N237 C230 1.356 . S
N237 H240 0.984 . S
N237 H241 0.985 . S
H238 N233 0.984 . S
H239 N233 0.985 . S
H240 N237 0.984 . S
H241 N237 0.985 . S
H242 N236 0.984 . S
H243 N236 0.984 . S
H244 N232 0.984 . S
H245 N232 0.985 . S
C246 C247 1.363 . S
C246 C252 1.379 . S
C246 N254 1.356 . S
C247 C246 1.363 . S
C247 C253 1.363 . S
C248 C249 1.363 . S
C248 C253 1.379 . S
C248 N255 1.356 . S
C249 C248 1.363 . S
C249 C252 1.363 . S
N250 C252 1.356 . S
N250 H262 0.984 . S
N250 H263 0.985 . S
N251 C253 1.356 . S
N251 H256 0.984 . S
N251 H257 0.985 . S
C252 C246 1.379 . S
C252 C249 1.363 . S
C252 N250 1.356 . S
C253 C247 1.363 . S
C253 C248 1.379 . S
C253 N251 1.356 . S
N254 C246 1.356 . S
N254 H260 0.984 . S
N254 H261 0.984 . S
N255 C248 1.356 . S
N255 H258 0.984 . S
N255 H259 0.985 . S
H256 N251 0.984 . S
H257 N251 0.985 . S
H258 N255 0.984 . S
H259 N255 0.985 . S
H260 N254 0.984 . S
H261 N254 0.984 . S
H262 N250 0.984 . S
H263 N250 0.985 . S
C264 C265 1.363 . S
C264 C270 1.379 . S
C264 N272 1.356 . S
C265 C264 1.363 . S
C265 C271 1.363 1_554 S
C266 C267 1.363 . S
C266 C271 1.379 . S
C266 N273 1.356 . S
C267 C266 1.363 . S
C267 C270 1.363 1_556 S
N268 C270 1.356 . S
N268 H280 0.984 . S
N268 H281 0.985 . S
N269 C271 1.356 . S
N269 H274 0.984 . S
N269 H275 0.985 . S
C270 C264 1.379 . S
C270 C267 1.363 1_554 S
C270 N268 1.356 . S
C271 C265 1.363 1_556 S
C271 C266 1.379 . S
C271 N269 1.356 . S
N272 C264 1.356 . S
N272 H278 0.984 . S
N272 H279 0.984 . S
N273 C266 1.356 . S
N273 H276 0.984 . S
N273 H277 0.985 . S
H274 N269 0.984 . S
H275 N269 0.985 . S
H276 N273 0.984 . S
H277 N273 0.985 . S
H278 N272 0.984 . S
H279 N272 0.984 . S
H280 N268 0.984 . S
H281 N268 0.985 . S
C282 C283 1.363 . S
C282 C288 1.379 . S
C282 N290 1.356 . S
C283 C282 1.363 . S
C283 C289 1.363 1_554 S
C284 C285 1.363 . S
C284 C289 1.379 . S
C284 N291 1.356 . S
C285 C284 1.363 . S
C285 C288 1.363 1_556 S
N286 C288 1.356 1_556 S
N286 H298 0.984 1_556 S
N286 H299 0.985 . S
N287 C289 1.356 1_554 S
N287 H292 0.984 . S
N287 H293 0.985 1_554 S
C288 C282 1.379 . S
C288 C285 1.363 1_554 S
C288 N286 1.356 1_554 S
C289 C283 1.363 1_556 S
C289 C284 1.379 . S
C289 N287 1.356 1_556 S
N290 C282 1.356 . S
N290 H296 0.984 . S
N290 H297 0.984 . S
N291 C284 1.356 . S
N291 H294 0.984 . S
N291 H295 0.985 . S
H292 N287 0.984 . S
H293 N287 0.985 1_556 S
H294 N291 0.984 . S
H295 N291 0.985 . S
H296 N290 0.984 . S
H297 N290 0.984 . S
H298 N286 0.984 1_554 S
H299 N286 0.985 . S
C300 C301 1.363 . S
C300 C306 1.379 . S
C300 N308 1.356 . S
C301 C300 1.363 . S
C301 C307 1.363 1_556 S
C302 C303 1.363 . S
C302 C307 1.379 . S
C302 N309 1.356 . S
C303 C302 1.363 . S
C303 C306 1.363 1_554 S
N304 C306 1.356 . S
N304 H316 0.984 . S
N304 H317 0.985 . S
N305 C307 1.356 . S
N305 H310 0.984 . S
N305 H311 0.985 . S
C306 C300 1.379 . S
C306 C303 1.363 1_556 S
C306 N304 1.356 . S
C307 C301 1.363 1_554 S
C307 C302 1.379 . S
C307 N305 1.356 . S
N308 C300 1.356 . S
N308 H314 0.984 . S
N308 H315 0.984 . S
N309 C302 1.356 . S
N309 H312 0.984 . S
N309 H313 0.985 . S
H310 N305 0.984 . S
H311 N305 0.985 . S
H312 N309 0.984 . S
H313 N309 0.985 . S
H314 N308 0.984 . S
H315 N308 0.984 . S
H316 N304 0.984 . S
H317 N304 0.985 . S
C318 C319 1.363 . S
C318 C324 1.379 . S
C318 N326 1.356 . S
C319 C318 1.363 . S
C319 C325 1.363 1_556 S
C320 C321 1.363 . S
C320 C325 1.379 . S
C320 N327 1.356 . S
C321 C320 1.363 . S
C321 C324 1.363 1_554 S
N322 C324 1.356 1_554 S
N322 H334 0.984 1_554 S
N322 H335 0.985 . S
N323 C325 1.356 1_556 S
N323 H328 0.984 . S
N323 H329 0.985 1_556 S
C324 C318 1.379 . S
C324 C321 1.363 1_556 S
C324 N322 1.356 1_556 S
C325 C319 1.363 1_554 S
C325 C320 1.379 . S
C325 N323 1.356 1_554 S
N326 C318 1.356 . S
N326 H332 0.984 . S
N326 H333 0.984 . S
N327 C320 1.356 . S
N327 H330 0.984 . S
N327 H331 0.985 . S
H328 N323 0.984 . S
H329 N323 0.985 1_554 S
H330 N327 0.984 . S
H331 N327 0.985 . S
H332 N326 0.984 . S
H333 N326 0.984 . S
H334 N322 0.984 1_556 S
H335 N322 0.985 . S
C121 C61 2.251 . S
C123 C10 2.251 . S
C139 C31 2.359 . S
C141 C100 2.359 . S
C157 C91 2.251 . S
C159 C40 2.251 . S
C175 C1 2.359 . S
C177 C70 2.359 . S
C193 N96 1.577 . S
C195 N14 1.577 . S
C211 C87 1.570 . S
C213 C46 1.570 . S
C229 N66 1.577 . S
C231 N44 1.577 . S
C247 C16 1.570 . S
C249 C117 1.570 . S
C265 C106 1.356 1_554 S
C267 C27 1.356 1_556 S
C283 N74 1.049 . S
C285 N36 1.049 . S
C301 C57 1.357 1_556 S
C303 C76 1.357 1_554 S
C319 N6 1.049 . S
C321 N104 1.049 . S
