# Generated by pormake.
# Topology snk, (6)-cn, num edge types: 1
# Building blocks:
#     Node 0, Type 0, BuildingBlock: KUMJIN_clean_sbu_1, # of connection points: 6
#     Node 1, Type 0, BuildingBlock: KUMJIN_clean_sbu_1, # of connection points: 6
#     Node 2, Type 0, BuildingBlock: KUMJIN_clean_sbu_1, # of connection points: 6
#     Node 3, Type 0, BuildingBlock: KUMJIN_clean_sbu_1, # of connection points: 6
#     Node 4, Type 0, BuildingBlock: KUMJIN_clean_sbu_1, # of connection points: 6
#     Node 5, Type 0, BuildingBlock: KUMJIN_clean_sbu_1, # of connection points: 6
#     Node 6, Type 0, BuildingBlock: KUMJIN_clean_sbu_1, # of connection points: 6
#     Node 7, Type 0, BuildingBlock: KUMJIN_clean_sbu_1, # of connection points: 6
#     Edge 8, Type (0, 0), BuildingBlock: CIFDUS_clean_linker_0, # of connection points: 2
#     Edge 9, Type (0, 0), BuildingBlock: CIFDUS_clean_linker_0, # of connection points: 2
#     Edge 10, Type (0, 0), BuildingBlock: CIFDUS_clean_linker_0, # of connection points: 2
#     Edge 11, Type (0, 0), BuildingBlock: CIFDUS_clean_linker_0, # of connection points: 2
#     Edge 12, Type (0, 0), BuildingBlock: CIFDUS_clean_linker_0, # of connection points: 2
#     Edge 13, Type (0, 0), BuildingBlock: CIFDUS_clean_linker_0, # of connection points: 2
#     Edge 14, Type (0, 0), BuildingBlock: CIFDUS_clean_linker_0, # of connection points: 2
#     Edge 15, Type (0, 0), BuildingBlock: CIFDUS_clean_linker_0, # of connection points: 2
#     Edge 16, Type (0, 0), BuildingBlock: CIFDUS_clean_linker_0, # of connection points: 2
#     Edge 17, Type (0, 0), BuildingBlock: CIFDUS_clean_linker_0, # of connection points: 2
#     Edge 18, Type (0, 0), BuildingBlock: CIFDUS_clean_linker_0, # of connection points: 2
#     Edge 19, Type (0, 0), BuildingBlock: CIFDUS_clean_linker_0, # of connection points: 2
#     Edge 20, Type (0, 0), BuildingBlock: CIFDUS_clean_linker_0, # of connection points: 2
#     Edge 21, Type (0, 0), BuildingBlock: CIFDUS_clean_linker_0, # of connection points: 2
#     Edge 22, Type (0, 0), BuildingBlock: CIFDUS_clean_linker_0, # of connection points: 2
#     Edge 23, Type (0, 0), BuildingBlock: CIFDUS_clean_linker_0, # of connection points: 2
#     Edge 24, Type (0, 0), BuildingBlock: CIFDUS_clean_linker_0, # of connection points: 2
#     Edge 25, Type (0, 0), BuildingBlock: CIFDUS_clean_linker_0, # of connection points: 2
#     Edge 26, Type (0, 0), BuildingBlock: CIFDUS_clean_linker_0, # of connection points: 2
#     Edge 27, Type (0, 0), BuildingBlock: CIFDUS_clean_linker_0, # of connection points: 2
#     Edge 28, Type (0, 0), BuildingBlock: CIFDUS_clean_linker_0, # of connection points: 2
#     Edge 29, Type (0, 0), BuildingBlock: CIFDUS_clean_linker_0, # of connection points: 2
#     Edge 30, Type (0, 0), BuildingBlock: CIFDUS_clean_linker_0, # of connection points: 2
#     Edge 31, Type (0, 0), BuildingBlock: CIFDUS_clean_linker_0, # of connection points: 2
# Relax obj value: 0.009
# Max RMSD: 0.077
# Mean RMSD: 0.075
data_MOF--net-snk--node1-KUMJIN_clean_sbu_1--edge1-CIFDUS_clean_linker_0
_symmetry_space_group_name_H-M    P1
_symmetry_Int_Tables_number       1
_symmetry_cell_setting            triclinic
loop_
_symmetry_equiv_pos_as_xyz
'x, y, z'
_cell_length_a     33.192145
_cell_length_b     33.137818
_cell_length_c     23.050465
_cell_angle_alpha  90.03815
_cell_angle_beta   89.7943
_cell_angle_gamma 89.888905
loop_
_atom_site_label
_atom_site_type_symbol
_atom_site_fract_x
_atom_site_fract_y
_atom_site_fract_z
_atom_type_partial_charge
Eu0 Eu 1.00104 0.03256 0.57759 0.0
C1 C 0.9771 0.88367 0.40261 0.0
N2 N 0.01229 0.90169 0.41743 0.0
C3 C 0.04599 0.83768 0.41753 0.0
C4 C 0.97492 0.84143 0.39578 0.0
C5 C 0.04663 0.87961 0.42366 0.0
C6 C 0.00991 0.81846 0.40379 0.0
C7 C 0.90662 0.88972 0.37653 0.0
C8 C 0.94331 0.90765 0.39335 0.0
C9 C 0.90416 0.84759 0.37074 0.0
C10 C 0.9382 0.82352 0.3804 0.0
Eu11 Eu 0.01129 0.97252 0.42442 0.0
N12 N 0.94627 0.94835 0.40079 0.0
C13 C 0.87334 0.91467 0.36634 0.0
C14 C 0.91433 0.97282 0.3885 0.0
C15 C 0.87733 0.9564 0.372 0.0
H16 H 0.07474 0.89454 0.43082 0.0
H17 H 0.85202 0.97602 0.36295 0.0
H18 H 0.92956 0.10368 0.56416 0.0
H19 H 0.16125 0.04746 0.62876 0.0
H20 H 0.91724 1.005 0.38956 0.0
H21 H 0.84461 0.90207 0.35355 0.0
H22 H 0.09894 0.01113 0.60535 0.0
H23 H 0.07344 0.82034 0.42236 0.0
H24 H 0.8761 0.83334 0.35848 0.0
H25 H 0.93592 0.79109 0.37533 0.0
H26 H 0.9235 0.17776 0.57182 0.0
H27 H 0.0096 0.78604 0.39814 0.0
H28 H 0.16045 0.1218 0.63837 0.0
N29 N 0.99235 0.10308 0.58207 0.0
C30 C 0.02547 0.12498 0.59643 0.0
C31 C 0.95238 0.16331 0.57849 0.0
C32 C 0.02326 0.16732 0.60173 0.0
C33 C 0.95601 0.12141 0.5736 0.0
C34 C 0.98614 0.18637 0.5925 0.0
N35 N 0.06318 0.06414 0.59877 0.0
C36 C 0.09812 0.04346 0.60801 0.0
C37 C 0.09674 0.12698 0.61974 0.0
C38 C 0.06179 0.10497 0.60553 0.0
C39 C 0.13291 0.10596 0.6277 0.0
C40 C 0.13353 0.06402 0.62201 0.0
H41 H 0.98313 0.21879 0.59635 0.0
H42 H 0.05691 0.22182 0.62012 0.0
H43 H 0.12123 0.18654 0.63556 0.0
O44 O 0.00906 0.01046 0.66654 0.0
O45 O 0.03543 0.06592 0.5061 0.0
O46 O 0.06178 0.01222 0.45684 0.0
O47 O 0.95879 0.04931 0.64584 0.0
O48 O 0.03683 0.973 0.57748 0.0
O49 O 0.06355 0.96236 0.48531 0.0
O50 O 0.00576 0.99519 0.33565 0.0
O51 O 0.97827 0.93905 0.4977 0.0
O52 O 0.95066 0.99153 0.54861 0.0
O53 O 0.05378 0.95379 0.3574 0.0
O54 O 0.98195 0.03454 0.42449 0.0
O55 O 0.95 0.0398 0.51304 0.0
C56 C 0.05929 0.05112 0.46583 0.0
C57 C 0.98425 0.05336 0.74105 0.0
C58 C 0.98929 0.05315 0.8464 0.0
C59 C 0.99233 0.09539 0.84604 0.0
C60 C 0.98691 0.09569 0.74147 0.0
C61 C 0.99095 0.1165 0.79377 0.0
C62 C 0.98522 0.03223 0.79374 0.0
C63 C 0.063 0.95568 0.54168 0.0
C64 C 0.97844 0.03088 0.68668 0.0
C65 C 0.05801 0.18927 0.61598 0.0
C66 C 0.09464 0.16916 0.62487 0.0
C67 C 0.95419 0.95278 0.53879 0.0
C68 C 0.02913 0.95173 0.2615 0.0
C69 C 0.02254 0.95371 0.15647 0.0
C70 C 0.01808 0.91159 0.15574 0.0
C71 C 0.02488 0.90958 0.26008 0.0
C72 C 0.02816 0.97367 0.20953 0.0
C73 C 0.01943 0.88968 0.20735 0.0
C74 C 0.95568 0.05185 0.45933 0.0
C75 C 0.0356 0.97338 0.31623 0.0
H76 H 0.99506 0.11203 0.88631 0.0
H77 H 0.98533 0.11277 0.70167 0.0
H78 H 0.99272 0.14911 0.79381 0.0
H79 H 0.9828 0.99958 0.79378 0.0
H80 H 0.01414 0.89561 0.11514 0.0
H81 H 0.02609 0.89194 0.29943 0.0
H82 H 0.03154 0.00623 0.21042 0.0
H83 H 0.01641 0.85718 0.20646 0.0
Eu84 Eu 0.22478 0.75326 0.83732 0.0
C85 C 0.3777 0.72185 0.68744 0.0
N86 N 0.35719 0.75591 0.70256 0.0
C87 C 0.4189 0.78803 0.73 0.0
C88 C 0.41957 0.71891 0.69663 0.0
C89 C 0.37747 0.7896 0.71983 0.0
C90 C 0.43989 0.75222 0.7196 0.0
C91 C 0.37744 0.65399 0.64728 0.0
C92 C 0.35664 0.68948 0.66364 0.0
C93 C 0.41901 0.65089 0.65721 0.0
C94 C 0.43983 0.68301 0.68253 0.0
Eu95 Eu 0.28719 0.75445 0.68545 0.0
N96 N 0.31578 0.69191 0.65875 0.0
C97 C 0.35544 0.62185 0.62408 0.0
C98 C 0.29431 0.66094 0.63523 0.0
C99 C 0.31375 0.62542 0.61787 0.0
H100 H 0.3622 0.81809 0.72448 0.0
H101 H 0.29657 0.60084 0.5995 0.0
H102 H 0.14858 0.68623 0.81014 0.0
H103 H 0.21655 0.90741 0.91699 0.0
H104 H 0.26236 0.66388 0.62833 0.0
H105 H 0.37031 0.59407 0.6113 0.0
H106 H 0.25005 0.84413 0.88636 0.0
H107 H 0.43466 0.81456 0.74516 0.0
H108 H 0.43526 0.62349 0.64631 0.0
H109 H 0.47161 0.67971 0.69104 0.0
H110 H 0.07521 0.68776 0.79976 0.0
H111 H 0.4719 0.75091 0.72799 0.0
H112 H 0.14222 0.91287 0.91323 0.0
N113 N 0.15376 0.74921 0.82825 0.0
C114 C 0.1333 0.78344 0.84298 0.0
C115 C 0.09124 0.71504 0.81111 0.0
C116 C 0.09088 0.78501 0.84025 0.0
C117 C 0.13321 0.71463 0.81556 0.0
C118 C 0.07005 0.75056 0.8225 0.0
N119 N 0.19553 0.81542 0.86226 0.0
C120 C 0.21775 0.84677 0.88317 0.0
C121 C 0.13417 0.85219 0.88022 0.0
C122 C 0.15464 0.81685 0.86247 0.0
C123 C 0.15683 0.88517 0.8995 0.0
C124 C 0.19881 0.88234 0.90128 0.0
H125 H 0.03759 0.75077 0.81898 0.0
H126 H 0.03802 0.82236 0.85356 0.0
H127 H 0.07581 0.88095 0.88924 0.0
O128 O 0.25439 0.76007 0.92138 0.0
O129 O 0.2137 0.80514 0.77433 0.0
O130 O 0.22222 0.77639 0.68449 0.0
O131 O 0.19651 0.73029 0.91613 0.0
O132 O 0.28729 0.78025 0.83037 0.0
O133 O 0.29012 0.81076 0.74133 0.0
O134 O 0.29206 0.74489 0.59183 0.0
O135 O 0.31333 0.71977 0.76334 0.0
O136 O 0.26056 0.69657 0.82022 0.0
O137 O 0.30578 0.80341 0.62807 0.0
O138 O 0.22885 0.71885 0.68289 0.0
O139 O 0.21434 0.69882 0.77796 0.0
C140 C 0.20662 0.80438 0.71822 0.0
C141 C 0.23593 0.7174 0.99944 0.0
C142 C 0.24559 0.71169 0.10391 0.0
C143 C 0.25471 0.67056 0.09682 0.0
C144 C 0.24409 0.67615 0.99305 0.0
C145 C 0.25375 0.65292 0.04166 0.0
C146 C 0.2365 0.73498 0.05478 0.0
C147 C 0.29708 0.81097 0.79739 0.0
C148 C 0.22521 0.74281 0.94992 0.0
C149 C 0.0705 0.82053 0.85623 0.0
C150 C 0.09203 0.8539 0.87663 0.0
C151 C 0.29802 0.69458 0.80199 0.0
C152 C 0.28336 0.80112 0.52971 0.0
C153 C 0.269 0.79953 0.42555 0.0
C154 C 0.25276 0.83866 0.43003 0.0
C155 C 0.26682 0.84008 0.53296 0.0
C156 C 0.28437 0.78099 0.47586 0.0
C157 C 0.2517 0.85865 0.48332 0.0
C158 C 0.21108 0.6951 0.72101 0.0
C159 C 0.30207 0.78202 0.58085 0.0
H160 H 0.26156 0.65189 0.13406 0.0
H161 H 0.24287 0.66201 0.95071 0.0
H162 H 0.26016 0.62107 0.03665 0.0
H163 H 0.22967 0.76685 0.05963 0.0
H164 H 0.24148 0.85422 0.39211 0.0
H165 H 0.26588 0.85642 0.57365 0.0
H166 H 0.29713 0.75089 0.47325 0.0
H167 H 0.23935 0.88885 0.48606 0.0
Eu168 Eu 0.50531 0.96882 0.07967 0.0
C169 C 0.52681 0.12984 0.94179 0.0
N170 N 0.49309 0.10693 0.9483 0.0
C171 C 0.45341 0.16627 0.96517 0.0
C172 C 0.5251 0.17211 0.9481 0.0
C173 C 0.4565 0.12451 0.95797 0.0
C174 C 0.48789 0.19015 0.96068 0.0
C175 C 0.59833 0.13395 0.91961 0.0
C176 C 0.5632 0.11088 0.92846 0.0
C177 C 0.59681 0.17602 0.92669 0.0
C178 C 0.56036 0.19502 0.9411 0.0
Eu179 Eu 0.50199 0.03687 0.93554 0.0
N180 N 0.56418 0.06991 0.92388 0.0
C181 C 0.63391 0.11401 0.90357 0.0
C182 C 0.59797 0.05069 0.90477 0.0
C183 C 0.63357 0.07224 0.89537 0.0
H184 H 0.4295 0.10651 0.95863 0.0
H185 H 0.6605 0.05672 0.88088 0.0
H186 H 0.57486 0.89647 0.05986 0.0
H187 H 0.34264 0.95735 0.11576 0.0
H188 H 0.59712 0.01908 0.89456 0.0
H189 H 0.66153 0.13066 0.89623 0.0
H190 H 0.4073 0.99231 0.10663 0.0
H191 H 0.42436 0.18007 0.9734 0.0
H192 H 0.62361 0.19417 0.92067 0.0
H193 H 0.55966 0.22753 0.94599 0.0
H194 H 0.57751 0.82215 0.05314 0.0
H195 H 0.48527 0.22249 0.96592 0.0
H196 H 0.34002 0.88295 0.10878 0.0
N197 N 0.51141 0.89843 0.07249 0.0
C198 C 0.47675 0.8772 0.07971 0.0
C199 C 0.54902 0.83727 0.0605 0.0
C200 C 0.47704 0.83468 0.07713 0.0
C201 C 0.54735 0.87933 0.06366 0.0
C202 C 0.51373 0.81487 0.06711 0.0
N203 N 0.44086 0.93922 0.08752 0.0
C204 C 0.40655 0.96033 0.09977 0.0
C205 C 0.40419 0.87662 0.09409 0.0
C206 C 0.44056 0.89809 0.08728 0.0
C207 C 0.36853 0.89835 0.10314 0.0
C208 C 0.36982 0.94035 0.10664 0.0
H209 H 0.51518 0.78234 0.06405 0.0
H210 H 0.4404 0.78072 0.08168 0.0
H211 H 0.37683 0.81735 0.09725 0.0
O212 O 0.49048 0.98672 0.1687 0.0
O213 O 0.48179 0.9403 0.99679 0.0
O214 O 0.45126 0.9915 0.94589 0.0
O215 O 0.53498 0.94012 0.15298 0.0
O216 O 0.47177 0.02888 0.08056 0.0
O217 O 0.44504 0.03564 0.98912 0.0
O218 O 0.51547 0.01996 0.84563 0.0
O219 O 0.53159 0.06385 0.01679 0.0
O220 O 0.55788 0.01046 0.06842 0.0
O221 O 0.4716 0.06673 0.86381 0.0
O222 O 0.5389 0.97872 0.93279 0.0
O223 O 0.56274 0.96696 0.02591 0.0
C224 C 0.45559 0.95303 0.95832 0.0
C225 C 0.53995 0.9764 0.24114 0.0
C226 C 0.5435 0.9892 0.34541 0.0
C227 C 0.58492 0.99733 0.33928 0.0
C228 C 0.58114 0.98506 0.2358 0.0
C229 C 0.60343 0.99554 0.28478 0.0
C230 C 0.52121 0.97908 0.29565 0.0
C231 C 0.44488 0.04398 0.04476 0.0
C232 C 0.51628 0.9618 0.19171 0.0
C233 C 0.44077 0.81338 0.08353 0.0
C234 C 0.40452 0.83427 0.09217 0.0
C235 C 0.55537 0.04901 0.05714 0.0
C236 C 0.46558 0.03218 0.77428 0.0
C237 C 0.46145 0.02083 0.66972 0.0
C238 C 0.41993 0.0133 0.67592 0.0
C239 C 0.42424 0.0243 0.77966 0.0
C240 C 0.48407 0.02998 0.71954 0.0
C241 C 0.40161 0.01482 0.73057 0.0
C242 C 0.56479 0.96243 0.96917 0.0
C243 C 0.48973 0.04553 0.82398 0.0
H244 H 0.60326 1.00433 0.37669 0.0
H245 H 0.59613 0.98316 0.19406 0.0
H246 H 0.63532 1.00168 0.28067 0.0
H247 H 0.48924 0.97286 0.29915 0.0
H248 H 0.40139 0.00698 0.63845 0.0
H249 H 0.40938 0.02612 0.82149 0.0
H250 H 0.51613 0.03573 0.7159 0.0
H251 H 0.36961 0.0092 0.73475 0.0
Eu252 Eu 0.22095 0.25273 0.1845 0.0
C253 C 0.37901 0.28848 0.34693 0.0
N254 N 0.35894 0.25296 0.34124 0.0
C255 C 0.42012 0.21589 0.35678 0.0
C256 C 0.42093 0.28883 0.35698 0.0
C257 C 0.37865 0.21693 0.347 0.0
C258 C 0.44136 0.25198 0.3617 0.0
C259 C 0.37786 0.36179 0.35116 0.0
C260 C 0.35752 0.3247 0.34436 0.0
C261 C 0.41966 0.36209 0.36013 0.0
C262 C 0.44108 0.32575 0.36317 0.0
Eu263 Eu 0.28854 0.2586 0.32971 0.0
N264 N 0.31699 0.32381 0.33478 0.0
C265 C 0.35556 0.39762 0.34906 0.0
C266 C 0.29501 0.35862 0.33529 0.0
C267 C 0.31394 0.39597 0.34155 0.0
H268 H 0.362 0.18892 0.34511 0.0
H269 H 0.2963 0.42348 0.34136 0.0
H270 H 0.14786 0.32335 0.20002 0.0
H271 H 0.20959 0.08861 0.16828 0.0
H272 H 0.26289 0.35804 0.33205 0.0
H273 H 0.3701 0.42665 0.35413 0.0
H274 H 0.24426 0.15288 0.18698 0.0
H275 H 0.43557 0.18727 0.36121 0.0
H276 H 0.43569 0.39031 0.36529 0.0
H277 H 0.47321 0.32649 0.371 0.0
H278 H 0.0739 0.32683 0.19238 0.0
H279 H 0.47335 0.25103 0.37039 0.0
H280 H 0.13601 0.08795 0.1516 0.0
N281 N 0.15044 0.25967 0.1889 0.0
C282 C 0.12961 0.22517 0.17793 0.0
C283 C 0.08917 0.29804 0.18879 0.0
C284 C 0.08745 0.22612 0.17095 0.0
C285 C 0.13101 0.29584 0.19445 0.0
C286 C 0.06734 0.26311 0.17644 0.0
N287 N 0.19119 0.18836 0.18134 0.0
C288 C 0.21236 0.1531 0.17984 0.0
C289 C 0.12949 0.1526 0.16204 0.0
C290 C 0.15054 0.18872 0.1732 0.0
C291 C 0.15114 0.11632 0.15982 0.0
C292 C 0.19268 0.11656 0.16931 0.0
H293 H 0.03506 0.26508 0.17064 0.0
H294 H 0.03458 0.19068 0.15078 0.0
H295 H 0.07104 0.1263 0.14474 0.0
O296 O 0.2409 0.23874 0.09579 0.0
O297 O 0.1952 0.22363 0.26635 0.0
O298 O 0.25133 0.20225 0.31604 0.0
O299 O 0.18877 0.27659 0.1103 0.0
O300 O 0.28097 0.21988 0.18043 0.0
O301 O 0.30314 0.20382 0.27377 0.0
O302 O 0.259 0.27044 0.41386 0.0
O303 O 0.31612 0.28871 0.24994 0.0
O304 O 0.26205 0.30709 0.19289 0.0
O305 O 0.31532 0.23819 0.40998 0.0
O306 O 0.22676 0.28879 0.32749 0.0
O307 O 0.21818 0.31124 0.23396 0.0
C308 C 0.21216 0.20238 0.30783 0.0
C309 C 0.22379 0.28636 0.02302 0.0
C310 C 0.23659 0.29282 0.91968 0.0
C311 C 0.24188 0.33458 0.92667 0.0
C312 C 0.22655 0.32843 0.02888 0.0
C313 C 0.2367 0.35227 0.98115 0.0
C314 C 0.22839 0.26874 0.96828 0.0
C315 C 0.30512 0.20078 0.2165 0.0
C316 C 0.21269 0.26061 0.07209 0.0
C317 C 0.06675 0.19034 0.15801 0.0
C318 C 0.08761 0.15369 0.15398 0.0
C319 C 0.30077 0.30804 0.20526 0.0
C320 C 0.27548 0.22561 0.49118 0.0
C321 C 0.26556 0.21732 0.59486 0.0
C322 C 0.25968 0.17575 0.58656 0.0
C323 C 0.2715 0.18376 0.4836 0.0
C324 C 0.27281 0.24219 0.54682 0.0
C325 C 0.26279 0.15909 0.53106 0.0
C326 C 0.20952 0.31273 0.2894 0.0
C327 C 0.2871 0.25199 0.44316 0.0
H328 H 0.24836 0.35366 0.88967 0.0
H329 H 0.22086 0.34285 0.0703 0.0
H330 H 0.23962 0.38461 0.98614 0.0
H331 H 0.22466 0.2364 0.96325 0.0
H332 H 0.25401 0.15606 0.62317 0.0
H333 H 0.27493 0.17029 0.44102 0.0
H334 H 0.27729 0.27434 0.55291 0.0
H335 H 0.25916 0.12692 0.52499 0.0
Eu336 Eu 0.71803 0.24953 0.33608 0.0
C337 C 0.88303 0.23207 0.19967 0.0
N338 N 0.86083 0.26632 0.20631 0.0
C339 C 0.92049 0.30425 0.22661 0.0
C340 C 0.92505 0.23253 0.20813 0.0
C341 C 0.87887 0.3023 0.21829 0.0
C342 C 0.94363 0.26915 0.22211 0.0
C343 C 0.88565 0.15989 0.1812 0.0
C344 C 0.86347 0.19606 0.18651 0.0
C345 C 0.92753 0.16032 0.18957 0.0
C346 C 0.94707 0.19647 0.20344 0.0
Eu347 Eu 0.79071 0.25951 0.19478 0.0
N348 N 0.82253 0.19608 0.18214 0.0
C349 C 0.86495 0.12416 0.1689 0.0
C350 C 0.80235 0.16151 0.16884 0.0
C351 C 0.82316 0.12505 0.16234 0.0
H352 H 0.86116 0.32961 0.22089 0.0
H353 H 0.80693 0.09763 0.15239 0.0
H354 H 0.63698 0.19111 0.32274 0.0
H355 H 0.72678 0.41222 0.3816 0.0
H356 H 0.77028 0.16171 0.16319 0.0
H357 H 0.88091 0.09577 0.16446 0.0
H358 H 0.75251 0.34321 0.37479 0.0
H359 H 0.93466 0.33278 0.23666 0.0
H360 H 0.945 0.13276 0.18623 0.0
H361 H 0.97917 0.19616 0.21127 0.0
H362 H 0.56317 0.19847 0.31284 0.0
H363 H 0.97577 0.27067 0.22952 0.0
H364 H 0.65423 0.42577 0.36746 0.0
N365 N 0.64729 0.25386 0.33158 0.0
C366 C 0.6308 0.29122 0.33676 0.0
C367 C 0.58185 0.22483 0.31918 0.0
C368 C 0.58883 0.29689 0.33196 0.0
C369 C 0.6236 0.22075 0.32402 0.0
C370 C 0.56442 0.26314 0.32252 0.0
N371 N 0.69662 0.31757 0.34926 0.0
C372 C 0.72151 0.34848 0.36464 0.0
C373 C 0.63968 0.36312 0.35136 0.0
C374 C 0.6561 0.32399 0.34574 0.0
C375 C 0.66567 0.39528 0.36276 0.0
C376 C 0.70666 0.3878 0.37034 0.0
H377 H 0.53216 0.26638 0.31787 0.0
H378 H 0.54048 0.34089 0.33231 0.0
H379 H 0.58488 0.3988 0.35006 0.0
O380 O 0.73205 0.25658 0.42953 0.0
O381 O 0.6923 0.2788 0.25546 0.0
O382 O 0.7465 0.31041 0.21388 0.0
O383 O 0.69053 0.20994 0.40005 0.0
O384 O 0.78118 0.27566 0.34628 0.0
O385 O 0.7926 0.30983 0.2611 0.0
O386 O 0.77573 0.25126 0.10165 0.0
O387 O 0.81344 0.22239 0.27192 0.0
O388 O 0.75592 0.19574 0.31091 0.0
O389 O 0.81904 0.29694 0.12918 0.0
O390 O 0.73201 0.22569 0.18222 0.0
O391 O 0.70694 0.19948 0.26929 0.0
C392 C 0.70741 0.30539 0.21934 0.0
C393 C 0.70092 0.2132 0.50418 0.0
C394 C 0.71129 0.21791 0.60966 0.0
C395 C 0.68273 0.18692 0.61707 0.0
C396 C 0.67317 0.18195 0.51359 0.0
C397 C 0.66422 0.16902 0.56952 0.0
C398 C 0.72021 0.23106 0.55245 0.0
C399 C 0.80141 0.30238 0.31561 0.0
C400 C 0.70796 0.2272 0.44388 0.0
C401 C 0.57259 0.33591 0.33631 0.0
C402 C 0.59792 0.36891 0.34617 0.0
C403 C 0.79516 0.19633 0.30599 0.0
C404 C 0.80807 0.29265 0.02534 0.0
C405 C 0.79749 0.28726 0.91995 0.0
C406 C 0.8267 0.31754 0.91189 0.0
C407 C 0.83653 0.32316 0.0152 0.0
C408 C 0.78837 0.27474 0.97742 0.0
C409 C 0.8457 0.3354 0.95904 0.0
C410 C 0.70856 0.20087 0.21172 0.0
C411 C 0.80072 0.27963 0.08609 0.0
H412 H 0.67385 0.17685 0.65988 0.0
H413 H 0.65782 0.16768 0.47765 0.0
H414 H 0.64233 0.14528 0.57612 0.0
H415 H 0.74197 0.2549 0.54542 0.0
H416 H 0.83568 0.32708 0.86886 0.0
H417 H 0.85226 0.33745 0.0508 0.0
H418 H 0.76614 0.2514 0.98488 0.0
H419 H 0.8681 0.35859 0.95194 0.0
Eu420 Eu 0.72299 0.75948 0.69006 0.0
C421 C 0.87857 0.77655 0.8606 0.0
N422 N 0.85853 0.74353 0.84082 0.0
C423 C 0.92073 0.70678 0.83395 0.0
C424 C 0.92084 0.77612 0.86639 0.0
C425 C 0.87883 0.70851 0.82912 0.0
C426 C 0.94183 0.74075 0.85249 0.0
C427 C 0.87667 0.84537 0.89719 0.0
C428 C 0.85671 0.81064 0.8767 0.0
C429 C 0.91881 0.84524 0.90184 0.0
C430 C 0.94077 0.81061 0.88691 0.0
Eu431 Eu 0.7875 0.74903 0.83996 0.0
N432 N 0.81599 0.81027 0.8709 0.0
C433 C 0.85364 0.87933 0.91199 0.0
C434 C 0.79325 0.8423 0.88862 0.0
C435 C 0.81169 0.87767 0.90805 0.0
H436 H 0.86283 0.68135 0.81766 0.0
H437 H 0.79353 0.90339 0.92074 0.0
H438 H 0.65088 0.82849 0.71526 0.0
H439 H 0.7115 0.60154 0.62539 0.0
H440 H 0.76096 0.8404 0.88828 0.0
H441 H 0.86789 0.90672 0.9273 0.0
H442 H 0.7459 0.66628 0.6446 0.0
H443 H 0.93665 0.67901 0.82438 0.0
H444 H 0.93467 0.87164 0.9174 0.0
H445 H 0.97316 0.81068 0.89192 0.0
H446 H 0.57651 0.83155 0.71838 0.0
H447 H 0.97417 0.73902 0.85733 0.0
H448 H 0.63716 0.59802 0.63278 0.0
N449 N 0.6527 0.76553 0.69798 0.0
C450 C 0.6314 0.73157 0.68555 0.0
C451 C 0.5916 0.80321 0.70957 0.0
C452 C 0.58899 0.73214 0.68587 0.0
C453 C 0.63366 0.80128 0.70846 0.0
C454 C 0.56917 0.76849 0.69835 0.0
N455 N 0.69309 0.69675 0.66979 0.0
C456 C 0.71419 0.66391 0.65167 0.0
C457 C 0.63071 0.66064 0.65834 0.0
C458 C 0.6521 0.6962 0.67148 0.0
C459 C 0.65248 0.62594 0.64314 0.0
C460 C 0.69444 0.62773 0.63923 0.0
H461 H 0.53664 0.77027 0.69843 0.0
H462 H 0.53524 0.69692 0.67205 0.0
H463 H 0.57146 0.63409 0.64916 0.0
O464 O 0.72215 0.74943 0.59601 0.0
O465 O 0.69488 0.72597 0.76736 0.0
O466 O 0.75124 0.69686 0.80413 0.0
O467 O 0.70622 0.80879 0.63177 0.0
O468 O 0.78226 0.72553 0.68103 0.0
O469 O 0.80113 0.70143 0.77198 0.0
O470 O 0.75944 0.74888 0.92798 0.0
O471 O 0.80615 0.8018 0.78077 0.0
O472 O 0.78573 0.78644 0.68713 0.0
O473 O 0.81213 0.71165 0.9079 0.0
O474 O 0.72567 0.77803 0.84296 0.0
O475 O 0.72075 0.81111 0.75511 0.0
C476 C 0.71197 0.69819 0.79963 0.0
C477 C 0.70473 0.80197 0.52617 0.0
C478 C 0.71282 0.79607 0.42074 0.0
C479 C 0.69616 0.83487 0.41468 0.0
C480 C 0.688 0.84052 0.51862 0.0
C481 C 0.68374 0.85675 0.46324 0.0
C482 C 0.71677 0.77957 0.4769 0.0
C483 C 0.8057 0.70418 0.71539 0.0
C484 C 0.71136 0.78654 0.58553 0.0
C485 C 0.56772 0.69676 0.67276 0.0
C486 C 0.58843 0.66105 0.65947 0.0
C487 C 0.80836 0.80655 0.72387 0.0
C488 C 0.78679 0.70485 1.00496 0.0
C489 C 0.7787 0.70905 0.11036 0.0
C490 C 0.79346 0.66934 0.11492 0.0
C491 C 0.80128 0.66524 1.01096 0.0
C492 C 0.77534 0.72674 0.05479 0.0
C493 C 0.80449 0.64766 0.06557 0.0
C494 C 0.71059 0.80661 0.81 0.0
C495 C 0.78627 0.72327 0.94676 0.0
H496 H 0.69212 0.84814 0.37217 0.0
H497 H 0.67845 0.85834 0.55562 0.0
H498 H 0.67081 0.88652 0.45791 0.0
H499 H 0.73005 0.7499 0.48224 0.0
H500 H 0.79725 0.65519 0.15688 0.0
H501 H 0.81044 0.64787 0.9733 0.0
H502 H 0.76434 0.7574 0.05035 0.0
H503 H 0.81602 0.61723 0.06973 0.0
Eu504 Eu 0.50706 0.53675 0.09076 0.0
C505 C 0.47785 0.38327 0.94703 0.0
N506 N 0.51241 0.40456 0.95601 0.0
C507 C 0.54854 0.34277 0.97247 0.0
C508 C 0.47718 0.34088 0.95302 0.0
C509 C 0.54787 0.38465 0.96569 0.0
C510 C 0.51297 0.32085 0.96696 0.0
C511 C 0.40733 0.3823 0.91859 0.0
C512 C 0.44335 0.40358 0.92912 0.0
C513 C 0.40635 0.34033 0.92639 0.0
C514 C 0.44121 0.31966 0.94332 0.0
Eu515 Eu 0.50771 0.47524 0.93995 0.0
N516 N 0.44494 0.44431 0.92224 0.0
C517 C 0.37338 0.40382 0.90007 0.0
C518 C 0.41258 0.46514 0.9014 0.0
C519 C 0.37614 0.44538 0.891 0.0
H520 H 0.57617 0.40047 0.96606 0.0
H521 H 0.35032 0.46217 0.87556 0.0
H522 H 0.43521 0.60591 0.09975 0.0
H523 H 0.66948 0.55354 0.12941 0.0
H524 H 0.41483 0.49696 0.89289 0.0
H525 H 0.34513 0.38856 0.89179 0.0
H526 H 0.60593 0.51651 0.12255 0.0
H527 H 0.57669 0.32731 0.98078 0.0
H528 H 0.37894 0.32349 0.91861 0.0
H529 H 0.44018 0.28714 0.94796 0.0
H530 H 0.42837 0.68026 0.10138 0.0
H531 H 0.51376 0.28839 0.9717 0.0
H532 H 0.66981 0.62798 0.1222 0.0
N533 N 0.49877 0.6069 0.09591 0.0
C534 C 0.53271 0.62936 0.10005 0.0
C535 C 0.45792 0.66639 0.10004 0.0
C536 C 0.53056 0.67183 0.10191 0.0
C537 C 0.46172 0.62443 0.098 0.0
C538 C 0.49253 0.69024 0.10132 0.0
N539 N 0.57027 0.5686 0.10554 0.0
C540 C 0.60542 0.54858 0.11637 0.0
C541 C 0.60529 0.63232 0.11022 0.0
C542 C 0.56955 0.6097 0.10457 0.0
C543 C 0.64171 0.61171 0.11767 0.0
C544 C 0.64165 0.5697 0.12159 0.0
H545 H 0.48948 0.72269 0.1037 0.0
H546 H 0.56519 0.72708 0.10673 0.0
H547 H 0.63067 0.69251 0.11361 0.0
O548 O 0.5175 0.53735 0.18402 0.0
O549 O 0.52749 0.56998 1.00922 0.0
O550 O 0.5589 0.51888 0.95985 0.0
O551 O 0.45608 0.53631 0.151 0.0
O552 O 0.54782 0.48135 0.0885 0.0
O553 O 0.5658 0.46862 0.99262 0.0
O554 O 0.50419 0.49963 0.84959 0.0
O555 O 0.4574 0.46404 1.00601 0.0
O556 O 0.49642 0.47003 0.08463 0.0
O557 O 0.53442 0.44264 0.8693 0.0
O558 O 0.47354 0.53471 0.94008 0.0
O559 O 0.45043 0.54319 0.03464 0.0
C560 C 0.55414 0.55749 0.97089 0.0
C561 C 0.4657 0.55664 0.24987 0.0
C562 C 0.46793 0.55945 0.35566 0.0
C563 C 0.43816 0.58965 0.35487 0.0
C564 C 0.43617 0.58694 0.24968 0.0
C565 C 0.42252 0.60333 0.30212 0.0
C566 C 0.48128 0.543 0.3028 0.0
C567 C 0.57158 0.46494 0.04897 0.0
C568 C 0.47922 0.53619 0.19673 0.0
C569 C 0.56619 0.6944 0.10574 0.0
C570 C 0.60347 0.6747 0.10968 0.0
C571 C 0.4642 0.45572 0.06047 0.0
C572 C 0.53777 0.46208 0.7697 0.0
C573 C 0.53228 0.47349 0.66536 0.0
C574 C 0.56306 0.44479 0.65634 0.0
C575 C 0.56907 0.43434 0.75923 0.0
C576 C 0.51957 0.48195 0.72264 0.0
C577 C 0.58149 0.42577 0.70296 0.0
C578 C 0.44755 0.54965 0.97806 0.0
C579 C 0.52438 0.46865 0.82998 0.0
H580 H 0.42746 0.60314 0.39487 0.0
H581 H 0.42338 0.5976 0.20937 0.0
H582 H 0.39969 0.62669 0.30192 0.0
H583 H 0.5034 0.51883 0.30277 0.0
H584 H 0.57275 0.43654 0.61302 0.0
H585 H 0.5839 0.41887 0.79464 0.0
H586 H 0.49582 0.50378 0.73061 0.0
H587 H 0.60529 0.40398 0.69541 0.0
Eu588 Eu 0.00661 0.47312 0.58231 0.0
C589 C 0.03006 0.63383 0.43854 0.0
N590 N 0.99565 0.61197 0.44451 0.0
C591 C 0.95692 0.67245 0.45658 0.0
C592 C 0.02901 0.67632 0.44147 0.0
C593 C 0.95935 0.63042 0.45336 0.0
C594 C 0.99186 0.6955 0.45055 0.0
C595 C 0.10296 0.63558 0.42864 0.0
C596 C 0.06676 0.61355 0.43234 0.0
C597 C 0.10182 0.67795 0.42988 0.0
C598 C 0.06499 0.69824 0.43636 0.0
Eu599 Eu 1.00298 0.54166 0.43613 0.0
N600 N 0.0672 0.57235 0.43334 0.0
C601 C 0.13939 0.61439 0.42483 0.0
C602 C 0.10263 0.55161 0.42959 0.0
C603 C 0.13919 0.57226 0.42544 0.0
H604 H 0.93214 0.61273 0.45666 0.0
H605 H 0.16725 0.55565 0.42272 0.0
H606 H 0.07476 0.398 0.59283 0.0
H607 H 0.84389 0.46755 0.6212 0.0
H608 H 0.1031 0.51924 0.43005 0.0
H609 H 0.16784 0.63025 0.4219 0.0
H610 H 0.91051 0.49948 0.61484 0.0
H611 H 0.9281 0.68705 0.46349 0.0
H612 H 0.12935 0.69534 0.42677 0.0
H613 H 0.06474 0.73092 0.43814 0.0
H614 H 0.07562 0.32379 0.60016 0.0
H615 H 0.98983 0.72803 0.45355 0.0
H616 H 0.83823 0.39323 0.61508 0.0
N617 N 0.01076 0.40219 0.59177 0.0
C618 C 0.97528 0.38207 0.59583 0.0
C619 C 0.04718 0.33978 0.59882 0.0
C620 C 0.9744 0.33957 0.59919 0.0
C621 C 0.04651 0.38188 0.59507 0.0
C622 C 0.01097 0.31849 0.60009 0.0
N623 N 0.94178 0.44511 0.59745 0.0
C624 C 0.90823 0.46763 0.60826 0.0
C625 C 0.90245 0.38415 0.60431 0.0
C626 C 0.93976 0.40412 0.5986 0.0
C627 C 0.86747 0.40739 0.6105 0.0
C628 C 0.8705 0.44933 0.61364 0.0
H629 H 0.01162 0.2859 0.60282 0.0
H630 H 0.93596 0.28691 0.60464 0.0
H631 H 0.87291 0.32596 0.6089 0.0
O632 O 0.9952 0.48645 0.67589 0.0
O633 O 0.97563 0.44428 0.50336 0.0
O634 O 0.95105 0.49973 0.45511 0.0
O635 O 0.05149 0.45896 0.64628 0.0
O636 O 0.97409 0.53398 0.5846 0.0
O637 O 0.94728 0.54154 0.4928 0.0
O638 O 0.01289 0.52256 0.34574 0.0
O639 O 0.02892 0.56935 0.51754 0.0
O640 O 0.05848 0.51501 0.55966 0.0
O641 O 0.97442 0.57351 0.36492 0.0
O642 O 0.03848 0.48312 0.42745 0.0
O643 O 0.05469 0.45508 0.51775 0.0
C644 C 0.95298 0.46049 0.46252 0.0
C645 C 0.04715 0.46976 0.7492 0.0
C646 C 0.04251 0.47989 0.85422 0.0
C647 C 0.08246 0.46598 0.85941 0.0
C648 C 0.08672 0.45535 0.75625 0.0
C649 C 0.10415 0.45359 0.81088 0.0
C650 C 0.025 0.48206 0.79846 0.0
C651 C 0.94829 0.55055 0.54834 0.0
C652 C 0.03036 0.47177 0.68996 0.0
C653 C 0.93723 0.31955 0.60267 0.0
C654 C 0.90133 0.34179 0.60509 0.0
C655 C 0.05387 0.55412 0.55545 0.0
C656 C 0.96303 0.54027 0.27546 0.0
C657 C 0.95694 0.52377 0.17257 0.0
C658 C 0.91538 0.53142 0.17585 0.0
C659 C 0.92124 0.54704 0.27811 0.0
C660 C 0.98061 0.52814 0.22271 0.0
C661 C 0.89766 0.54261 0.22848 0.0
C662 C 0.05709 0.45656 0.4606 0.0
C663 C 0.98935 0.55043 0.32471 0.0
H664 H 0.09732 0.465 0.90113 0.0
H665 H 0.10456 0.44558 0.71936 0.0
H666 H 0.13475 0.44276 0.81561 0.0
H667 H 0.99431 0.4927 0.79351 0.0
H668 H 0.89653 0.52815 0.13788 0.0
H669 H 0.90692 0.55662 0.31811 0.0
H670 H 0.01292 0.5234 0.2202 0.0
H671 H 0.86557 0.54826 0.23069 0.0
H672 H 0.11259 0.10909 0.5009 0.0
H673 H 0.06109 0.05411 0.34914 0.0
H674 H 0.10288 0.09647 0.28653 0.0
H675 H 0.15599 0.14721 0.27538 0.0
H676 H 0.20645 0.20438 0.42498 0.0
H677 H 0.16465 0.16235 0.4889 0.0
C678 C 0.11044 0.10668 0.45423 0.0
C679 C 0.08397 0.0784 0.42955 0.0
C680 C 0.13523 0.13075 0.41847 0.0
C681 C 0.08166 0.07526 0.36896 0.0
C682 C 0.10548 0.09954 0.33319 0.0
C683 C 0.15785 0.15049 0.32168 0.0
C684 C 0.18587 0.17739 0.3456 0.0
C685 C 0.13275 0.12702 0.35746 0.0
C686 C 0.18722 0.1818 0.40603 0.0
C687 C 0.16256 0.15846 0.44231 0.0
H688 H 0.07733 0.93764 0.65553 0.0
H689 H 0.12369 0.91534 0.48356 0.0
H690 H 0.1675 0.86256 0.52058 0.0
H691 H 0.19325 0.82223 0.60317 0.0
H692 H 0.16412 0.86283 0.77521 0.0
H693 H 0.11364 0.90851 0.73811 0.0
C694 C 0.09694 0.9213 0.62596 0.0
C695 C 0.09425 0.92807 0.56592 0.0
C696 C 0.12537 0.89389 0.64821 0.0
C697 C 0.12192 0.90818 0.52913 0.0
C698 C 0.14805 0.87863 0.55055 0.0
C699 C 0.17583 0.84099 0.63255 0.0
C700 C 0.18 0.83612 0.69292 0.0
C701 C 0.14971 0.87078 0.61013 0.0
C702 C 0.15876 0.86261 0.72959 0.0
C703 C 0.13056 0.88985 0.70798 0.0
H704 H 0.35892 0.80112 0.87095 0.0
H705 H 0.29339 0.89194 0.77656 0.0
H706 H 0.33623 0.94486 0.8184 0.0
H707 H 0.39196 0.96489 0.88386 0.0
H708 H 0.46266 0.87141 0.96518 0.0
H709 H 0.41784 0.8202 0.92778 0.0
C710 C 0.35391 0.83257 0.85993 0.0
C711 C 0.32283 0.84292 0.82172 0.0
C712 C 0.37937 0.86237 0.88241 0.0
C713 C 0.31718 0.88351 0.80628 0.0
C714 C 0.34158 0.91366 0.8302 0.0
C715 C 0.39764 0.93334 0.89316 0.0
C716 C 0.42969 0.92237 0.92989 0.0
C717 C 0.3728 0.90345 0.86855 0.0
C718 C 0.43707 0.88114 0.94004 0.0
C719 C 0.41173 0.85159 0.9178 0.0
H720 H 0.45256 0.09329 0.13704 0.0
H721 H 0.36819 0.05689 1.00536 0.0
H722 H 0.31709 0.10225 0.04664 0.0
H723 H 0.29672 0.15229 0.12078 0.0
H724 H 0.38361 0.19138 0.24621 0.0
H725 H 0.43329 0.14491 0.20764 0.0
C726 C 0.42288 0.09509 0.11759 0.0
C727 C 0.41398 0.07164 0.06859 0.0
C728 C 0.39397 0.12134 0.14111 0.0
C729 C 0.37569 0.07478 0.04315 0.0
C730 C 0.3465 0.10062 0.06677 0.0
C731 C 0.32622 0.15005 0.14045 0.0
C732 C 0.33532 0.17308 0.19015 0.0
C733 C 0.35527 0.124 0.11597 0.0
C734 C 0.3745 0.17136 0.2124 0.0
C735 C 0.40338 0.14549 0.18891 0.0
H736 H 0.94789 0.92979 0.65219 0.0
H737 H 0.89139 0.9158 0.48613 0.0
H738 H 0.84229 0.8691 0.52729 0.0
H739 H 0.81503 0.83214 0.61105 0.0
H740 H 0.86968 0.84781 0.77869 0.0
H741 H 0.91914 0.89367 0.73741 0.0
C742 C 0.92488 0.91628 0.62516 0.0
C743 C 0.92419 0.92502 0.56535 0.0
C744 C 0.89613 0.88979 0.64986 0.0
C745 C 0.89379 0.90798 0.53121 0.0
C746 C 0.86528 0.88171 0.55518 0.0
C747 C 0.83773 0.8454 0.63885 0.0
C748 C 0.83833 0.83579 0.69859 0.0
C749 C 0.86623 0.87215 0.61447 0.0
C750 C 0.86807 0.85405 0.73312 0.0
C751 C 0.89661 0.88052 0.70925 0.0
H752 H 0.8738 0.059 0.4606 0.0
H753 H 0.98234 0.11666 0.40029 0.0
H754 H 0.94253 0.16714 0.34821 0.0
H755 H 0.87701 0.19315 0.31657 0.0
H756 H 0.76807 0.13327 0.37187 0.0
H757 H 0.80768 0.08539 0.42851 0.0
C758 C 0.88852 0.08308 0.43679 0.0
C759 C 0.93081 0.08448 0.43446 0.0
C760 C 0.86539 0.11121 0.40528 0.0
C761 C 0.94975 0.1152 0.4026 0.0
C762 C 0.92704 0.14391 0.37269 0.0
C763 C 0.86185 0.16951 0.34063 0.0
C764 C 0.81953 0.16679 0.33946 0.0
C765 C 0.88484 0.14184 0.37292 0.0
C766 C 0.80056 0.13616 0.37173 0.0
C767 C 0.82321 0.10873 0.40435 0.0
H768 H 0.64635 0.15099 0.24667 0.0
H769 H 0.71395 0.18754 0.09516 0.0
H770 H 0.6727 0.14461 0.03453 0.0
H771 H 0.6175 0.09608 0.02369 0.0
H772 H 0.54717 0.06173 0.17246 0.0
H773 H 0.58869 0.10478 0.23491 0.0
C774 C 0.65176 0.15018 0.20051 0.0
C775 C 0.68314 0.17323 0.17615 0.0
C776 C 0.62714 0.1259 0.16507 0.0
C777 C 0.68998 0.17062 0.11578 0.0
C778 C 0.66633 0.14599 0.08066 0.0
C779 C 0.61075 0.09896 0.06938 0.0
C780 C 0.57911 0.07662 0.09341 0.0
C781 C 0.63469 0.12371 0.10469 0.0
C782 C 0.5715 0.07897 0.15325 0.0
C783 C 0.59522 0.1035 0.18884 0.0
H784 H 0.71494 0.88489 0.84363 0.0
H785 H 0.63478 0.78302 0.83579 0.0
H786 H 0.58159 0.8224 0.88368 0.0
H787 H 0.55833 0.88623 0.92885 0.0
H788 H 0.64341 0.98246 0.95474 0.0
H789 H 0.69468 0.945 0.89999 0.0
C790 C 0.68582 0.87145 0.85252 0.0
C791 C 0.67823 0.83161 0.83516 0.0
C792 C 0.65654 0.89325 0.88381 0.0
C793 C 0.64074 0.81407 0.84776 0.0
C794 C 0.61053 0.83642 0.87549 0.0
C795 C 0.58831 0.89861 0.92292 0.0
C796 C 0.59708 0.93728 0.94429 0.0
C797 C 0.61817 0.87601 0.89403 0.0
C798 C 0.63599 0.95299 0.93753 0.0
C799 C 0.66523 0.93162 0.90627 0.0
H800 H 0.63172 0.55054 0.93205 0.0
H801 H 0.531 0.63273 0.93734 0.0
H802 H 0.56957 0.68256 0.8819 0.0
H803 H 0.63258 0.70331 0.83241 0.0
H804 H 0.73532 0.62347 0.83572 0.0
H805 H 0.69564 0.57256 0.88681 0.0
C806 C 0.61825 0.57934 0.92089 0.0
C807 C 0.5784 0.58776 0.93838 0.0
C808 C 0.6411 0.60842 0.89045 0.0
C809 C 0.56161 0.6255 0.92446 0.0
C810 C 0.58365 0.65399 0.89261 0.0
C811 C 0.64623 0.67472 0.84418 0.0
C812 C 0.68694 0.66726 0.82988 0.0
C813 C 0.62349 0.64588 0.87536 0.0
C814 C 0.70415 0.63014 0.8461 0.0
C815 C 0.68143 0.60092 0.87537 0.0
H816 H 0.72197 0.37417 0.15517 0.0
H817 H 0.62731 0.29211 0.20635 0.0
H818 H 0.57788 0.33298 0.15601 0.0
H819 H 0.56015 0.39389 0.10157 0.0
H820 H 0.65325 0.47548 0.04597 0.0
H821 H 0.70445 0.43335 0.09373 0.0
C822 C 0.69058 0.36519 0.15504 0.0
C823 C 0.6785 0.3304 0.18563 0.0
C824 C 0.66187 0.38887 0.12524 0.0
C825 C 0.63761 0.31911 0.18448 0.0
C826 C 0.60914 0.34239 0.15534 0.0
C827 C 0.59179 0.402 0.09928 0.0
C828 C 0.60319 0.43739 0.0703 0.0
C829 C 0.62078 0.37755 0.12627 0.0
C830 C 0.64407 0.44793 0.06752 0.0
C831 C 0.6732 0.424 0.09513 0.0
H832 H 0.9355 0.37969 0.47558 0.0
H833 H 0.90623 0.48416 0.37197 0.0
H834 H 0.85863 0.44462 0.3159 0.0
H835 H 0.8234 0.38066 0.29709 0.0
H836 H 0.85001 0.27682 0.40278 0.0
H837 H 0.90005 0.31559 0.4569 0.0
C838 C 0.91867 0.39386 0.44091 0.0
C839 C 0.92449 0.43508 0.42862 0.0
C840 C 0.89064 0.37095 0.40891 0.0
C841 C 0.90242 0.45264 0.38298 0.0
C842 C 0.87508 0.43 0.3506 0.0
C843 C 0.84045 0.36649 0.33161 0.0
C844 C 0.83306 0.32594 0.34579 0.0
C845 C 0.86874 0.38918 0.36326 0.0
C846 C 0.855 0.3081 0.39119 0.0
C847 C 0.88369 0.33023 0.42213 0.0
H848 H 0.79761 0.63101 0.66348 0.0
H849 H 0.88493 0.7219 0.70735 0.0
H850 H 0.93823 0.68145 0.66132 0.0
H851 H 0.959 0.62024 0.60672 0.0
H852 H 0.8678 0.5392 0.54339 0.0
H853 H 0.81576 0.5772 0.59565 0.0
C854 C 0.82772 0.64305 0.66081 0.0
C855 C 0.83729 0.67957 0.68802 0.0
C856 C 0.85722 0.62149 0.63025 0.0
C857 C 0.87719 0.69341 0.68723 0.0
C858 C 0.90746 0.67058 0.66044 0.0
C859 C 0.92761 0.61139 0.60405 0.0
C860 C 0.91694 0.57675 0.5727 0.0
C861 C 0.89773 0.63462 0.63153 0.0
C862 C 0.87636 0.56572 0.56793 0.0
C863 C 0.84678 0.58723 0.59795 0.0
H864 H 0.37634 0.3361 0.23248 0.0
H865 H 0.28633 0.34025 0.09952 0.0
H866 H 0.32813 0.38547 0.04165 0.0
H867 H 0.39024 0.42561 0.0304 0.0
H868 H 0.47905 0.42334 0.1667 0.0
H869 H 0.43732 0.3772 0.22282 0.0
C870 C 0.36539 0.34745 0.19159 0.0
C871 C 0.32732 0.33553 0.17115 0.0
C872 C 0.38955 0.3742 0.15929 0.0
C873 C 0.31474 0.3497 0.11679 0.0
C874 C 0.33887 0.37546 0.08362 0.0
C875 C 0.40063 0.41473 0.07208 0.0
C876 C 0.438 0.42769 0.09377 0.0
C877 C 0.3763 0.38822 0.10462 0.0
C878 C 0.45053 0.41384 0.14858 0.0
C879 C 0.4267 0.38732 0.18085 0.0
H880 H 0.43089 0.5667 0.8652 0.0
H881 H 0.38768 0.59056 0.03857 0.0
H882 H 0.33985 0.63989 1.00073 0.0
H883 H 0.31107 0.67772 0.91669 0.0
H884 H 0.34154 0.63822 0.74519 0.0
H885 H 0.39375 0.5938 0.7828 0.0
C886 C 0.41097 0.58234 0.89511 0.0
C887 C 0.41483 0.57631 0.95532 0.0
C888 C 0.38137 0.60827 0.87274 0.0
C889 C 0.38755 0.59626 0.99254 0.0
C890 C 0.35946 0.62402 0.97072 0.0
C891 C 0.32872 0.65885 0.88784 0.0
C892 C 0.32478 0.66345 0.82741 0.0
C893 C 0.35634 0.63061 0.91076 0.0
C894 C 0.34722 0.63829 0.7908 0.0
C895 C 0.3761 0.6119 0.81277 0.0
H896 H 0.13614 0.70283 0.67857 0.0
H897 H 0.22931 0.61528 0.71044 0.0
H898 H 0.18879 0.56262 0.66339 0.0
H899 H 0.12703 0.54225 0.60972 0.0
H900 H 0.03445 0.63145 0.57966 0.0
H901 H 0.07376 0.68206 0.63035 0.0
C902 C 0.14721 0.67205 0.6757 0.0
C903 C 0.18536 0.66266 0.69784 0.0
C904 C 0.12367 0.64211 0.64906 0.0
C905 C 0.19973 0.62288 0.69395 0.0
C906 C 0.17663 0.59289 0.66693 0.0
C907 C 0.11541 0.57265 0.61483 0.0
C908 C 0.0779 0.58296 0.59048 0.0
C909 C 0.13855 0.60217 0.64387 0.0
C910 C 0.06336 0.62263 0.59733 0.0
C911 C 0.08582 0.65176 0.6264 0.0
H912 H 0.15887 0.30598 0.38008 0.0
H913 H 0.19697 0.38877 0.24678 0.0
H914 H 0.15257 0.44116 0.28701 0.0
H915 H 0.10428 0.46381 0.36281 0.0
H916 H 0.06224 0.37771 0.48833 0.0
H917 H 0.10696 0.3264 0.44945 0.0
C918 C 0.15745 0.33553 0.3599 0.0
C919 C 0.18133 0.34377 0.3111 0.0
C920 C 0.13161 0.36508 0.38262 0.0
C921 C 0.17873 0.38185 0.28453 0.0
C922 C 0.15348 0.41179 0.3076 0.0
C923 C 0.10518 0.43392 0.3818 0.0
C924 C 0.08215 0.4254 0.43169 0.0
C925 C 0.13 0.40386 0.35706 0.0
C926 C 0.08231 0.38601 0.45384 0.0
C927 C 0.10716 0.35632 0.43041 0.0
H928 H 0.04628 0.05688 0.92942 0.0
H929 H 0.93298 1.00089 0.88731 0.0
H930 H 0.93254 0.96607 0.98101 0.0
H931 H 0.96492 0.95124 0.07433 0.0
H932 H 0.07841 0.00692 0.11637 0.0
H933 H 0.07849 0.04235 0.02314 0.0
C934 C 0.02158 0.03703 0.94102 0.0
C935 C 0.98978 0.03119 0.90196 0.0
C936 C 0.02167 0.01715 0.99465 0.0
C937 C 0.95794 0.00532 0.91678 0.0
C938 C 0.95762 0.98564 0.97028 0.0
C939 C 0.9896 0.97115 0.06284 0.0
C940 C 0.02162 0.97656 0.10163 0.0
C941 C 0.98939 0.99125 1.00941 0.0
C942 C 0.05332 1.00269 0.08705 0.0
C943 C 0.05344 0.02273 0.0338 0.0
H944 H 0.21109 0.79881 0.34238 0.0
H945 H 0.33027 0.75361 0.37948 0.0
H946 H 0.3333 0.72183 0.28381 0.0
H947 H 0.30258 0.70821 0.18833 0.0
H948 H 0.18476 0.75627 0.15052 0.0
H949 H 0.181 0.78622 0.24734 0.0
C950 C 0.2379 0.78229 0.32946 0.0
C951 C 0.2704 0.77873 0.3682 0.0
C952 C 0.23976 0.76476 0.27408 0.0
C953 C 0.30456 0.75645 0.35098 0.0
C954 C 0.30647 0.73851 0.29606 0.0
C955 C 0.27609 0.72513 0.20157 0.0
C956 C 0.24399 0.73005 0.16253 0.0
C957 C 0.2743 0.7426 0.25715 0.0
C958 C 0.20997 0.7524 0.17974 0.0
C959 C 0.20774 0.76936 0.23511 0.0
H960 H 0.44707 0.96866 0.58063 0.0
H961 H 0.51972 0.07156 0.6274 0.0
H962 H 0.5515 0.07059 0.53192 0.0
H963 H 0.55753 0.04175 0.43432 0.0
H964 H 0.48518 0.93853 0.38787 0.0
H965 H 0.4532 0.93974 0.48312 0.0
C966 C 0.46952 0.99118 0.56982 0.0
C967 C 0.4809 0.02008 0.61141 0.0
C968 C 0.48739 0.99082 0.51453 0.0
C969 C 0.5107 0.04853 0.59676 0.0
C970 C 0.52871 0.04824 0.54191 0.0
C971 C 0.53511 0.01919 0.44513 0.0
C972 C 0.52386 0.99017 0.40362 0.0
C973 C 0.51724 0.01957 0.50043 0.0
C974 C 0.49409 0.9617 0.41834 0.0
C975 C 0.47597 0.9621 0.4731 0.0
H976 H 0.29415 0.30043 0.83704 0.0
H977 H 0.179 0.24542 0.87209 0.0
H978 H 0.17745 0.21738 0.77399 0.0
H979 H 0.20878 0.20887 0.67814 0.0
H980 H 0.32381 0.26398 0.64278 0.0
H981 H 0.32563 0.29171 0.74114 0.0
C982 C 0.26882 0.28228 0.82295 0.0
C983 C 0.23685 0.27476 0.8613 0.0
C984 C 0.26815 0.26634 0.76667 0.0
C985 C 0.20418 0.25106 0.84318 0.0
C986 C 0.20317 0.23524 0.78717 0.0
C987 C 0.23421 0.22687 0.69227 0.0
C988 C 0.26605 0.23452 0.65377 0.0
C989 C 0.23499 0.24268 0.74859 0.0
C990 C 0.29879 0.25815 0.67188 0.0
C991 C 0.29992 0.27382 0.72801 0.0
H992 H 0.77601 0.32402 0.81817 0.0
H993 H 0.77604 0.20784 0.90308 0.0
H994 H 0.75107 0.1764 0.81437 0.0
H995 H 0.73249 0.18122 0.71173 0.0
H996 H 0.73219 0.29749 0.62697 0.0
H997 H 0.7571 0.32889 0.71565 0.0
C998 C 0.77104 0.2917 0.8174 0.0
C999 C 0.77844 0.26843 0.86766 0.0
C1000 C 0.75769 0.2736 0.76574 0.0
C1001 C 0.7704 0.22678 0.86571 0.0
C1002 C 0.75656 0.20863 0.81463 0.0
C1003 C 0.7373 0.21356 0.71253 0.0
C1004 C 0.72992 0.23682 0.66225 0.0
C1005 C 0.75055 0.23168 0.76424 0.0
C1006 C 0.73783 0.27851 0.66429 0.0
C1007 C 0.75164 0.29665 0.71538 0.0
H1008 H 0.75503 0.8238 0.32747 0.0
H1009 H 0.69764 0.71692 0.39513 0.0
H1010 H 0.71184 0.68122 0.30438 0.0
H1011 H 0.73816 0.68119 0.20481 0.0
H1012 H 0.79638 0.78767 0.13724 0.0
H1013 H 0.78299 0.8232 0.22841 0.0
C1014 C 0.74559 0.79269 0.32231 0.0
C1015 C 0.72505 0.77314 0.36793 0.0
C1016 C 0.75342 0.77253 0.2698 0.0
C1017 C 0.71374 0.73258 0.36098 0.0
C1018 C 0.72152 0.71228 0.3089 0.0
C1019 C 0.74814 0.71212 0.21009 0.0
C1020 C 0.76822 0.73172 0.16414 0.0
C1021 C 0.74095 0.73209 0.26287 0.0
C1022 C 0.78034 0.77203 0.17147 0.0
C1023 C 0.77304 0.79223 0.22381 0.0
H1024 H 0.57022 0.49888 0.56784 0.0
H1025 H 0.45261 0.49366 0.64803 0.0
H1026 H 0.42235 0.52134 0.55992 0.0
H1027 H 0.42909 0.54291 0.45769 0.0
H1028 H 0.54699 0.54418 0.37783 0.0
H1029 H 0.57702 0.51998 0.46751 0.0
C1030 C 0.53786 0.50328 0.56606 0.0
C1031 C 0.51375 0.49364 0.61435 0.0
C1032 C 0.5206 0.51776 0.51489 0.0
C1033 C 0.47203 0.501 0.61172 0.0
C1034 C 0.45463 0.51643 0.5611 0.0
C1035 C 0.4614 0.53832 0.4602 0.0
C1036 C 0.48573 0.54536 0.41107 0.0
C1037 C 0.4786 0.52437 0.51211 0.0
C1038 C 0.52748 0.53859 0.41471 0.0
C1039 C 0.54475 0.52503 0.4661 0.0
H1040 H 0.04403 0.443 0.95914 0.0
H1041 H 0.99066 0.54409 0.86962 0.0
H1042 H 0.95886 0.56638 0.96021 0.0
H1043 H 0.94861 0.55838 0.06606 0.0
H1044 H 0.00659 0.45973 0.15504 0.0
H1045 H 0.03553 0.43603 0.06355 0.0
C1046 C 0.0258 0.47019 0.95932 0.0
C1047 C 0.02011 0.49199 0.90758 0.0
C1048 C 0.00887 0.48352 0.01165 0.0
C1049 C 0.99531 0.52646 0.90857 0.0
C1050 C 0.97745 0.53946 0.9605 0.0
C1051 C 0.9675 0.53164 0.06517 0.0
C1052 C 0.97543 0.51069 0.11705 0.0
C1053 C 0.98437 0.51841 0.01243 0.0
C1054 C 1.00034 0.47644 0.11569 0.0
C1055 C 0.01666 0.46277 0.06341 0.0
loop_
_geom_bond_atom_site_label_1
_geom_bond_atom_site_label_2
_geom_bond_distance
_geom_bond_site_symmetry_2
_ccdc_geom_bond_type
Eu0 N29 2.601 . S
Eu0 N35 2.541 1_655 S
Eu0 O44 2.458 1_655 S
Eu0 O45 2.360 1_655 S
Eu0 O47 2.445 . S
Eu0 O48 2.275 1_645 S
Eu0 O52 2.350 1_545 S
Eu0 O55 2.390 . S
Eu0 C64 2.792 . S
C1 N2 1.365 1_655 S
C1 C4 1.405 . S
C1 C8 1.448 . S
N2 C1 1.365 1_455 S
N2 C5 1.319 . S
N2 Eu11 2.600 . S
C3 C5 1.397 . S
C3 C6 1.367 . S
C3 H23 0.931 . S
C4 C1 1.405 . S
C4 C6 1.403 1_655 S
C4 C10 1.439 . S
C5 N2 1.319 . S
C5 C3 1.397 . S
C5 H16 0.930 . S
C6 C3 1.367 . S
C6 C4 1.403 1_455 S
C6 H27 0.929 . S
C7 C8 1.430 . S
C7 C9 1.387 . S
C7 C13 1.404 . S
C8 C1 1.448 . S
C8 C7 1.430 . S
C8 N12 1.351 . S
C9 C7 1.387 . S
C9 C10 1.374 . S
C9 H24 0.931 . S
C10 C4 1.439 . S
C10 C9 1.374 . S
C10 H25 0.931 . S
Eu11 N2 2.600 . S
Eu11 N12 2.562 1_455 S
Eu11 O46 2.335 1_565 S
Eu11 O49 2.372 . S
Eu11 O50 2.462 1_455 S
Eu11 O51 2.373 1_455 S
Eu11 O53 2.432 . S
Eu11 O54 2.291 1_465 S
Eu11 C75 2.787 . S
N12 C8 1.351 . S
N12 Eu11 2.562 1_655 S
N12 C14 1.325 . S
C13 C7 1.404 . S
C13 C15 1.366 . S
C13 H21 0.930 . S
C14 N12 1.325 . S
C14 C15 1.416 . S
C14 H20 0.929 . S
C15 C13 1.366 . S
C15 C14 1.416 . S
C15 H17 0.930 . S
H16 C5 0.930 . S
H17 C15 0.930 . S
H18 C33 0.930 . S
H19 C40 0.930 . S
H20 C14 0.929 . S
H21 C13 0.930 . S
H22 C36 0.929 . S
H23 C3 0.931 . S
H24 C9 0.931 . S
H25 C10 0.931 . S
H26 C31 0.931 . S
H27 C6 0.929 . S
H28 C39 0.930 . S
N29 Eu0 2.601 . S
N29 C30 1.365 1_655 S
N29 C33 1.319 . S
C30 N29 1.365 1_455 S
C30 C32 1.405 . S
C30 C38 1.448 . S
C31 H26 0.931 . S
C31 C33 1.397 . S
C31 C34 1.367 . S
C32 C30 1.405 . S
C32 C34 1.403 1_455 S
C32 C65 1.439 . S
C33 H18 0.930 . S
C33 N29 1.319 . S
C33 C31 1.397 . S
C34 C31 1.367 . S
C34 C32 1.403 1_655 S
C34 H41 0.929 . S
N35 Eu0 2.541 1_455 S
N35 C36 1.325 . S
N35 C38 1.351 . S
C36 H22 0.929 . S
C36 N35 1.325 . S
C36 C40 1.416 . S
C37 C38 1.430 . S
C37 C39 1.404 . S
C37 C66 1.387 . S
C38 C30 1.448 . S
C38 N35 1.351 . S
C38 C37 1.430 . S
C39 H28 0.930 . S
C39 C37 1.404 . S
C39 C40 1.366 . S
C40 H19 0.930 . S
C40 C36 1.416 . S
C40 C39 1.366 . S
H41 C34 0.929 . S
H42 C65 0.931 . S
H43 C66 0.931 . S
O44 Eu0 2.458 1_455 S
O44 C64 1.252 1_455 S
O45 Eu0 2.360 1_455 S
O45 C56 1.249 . S
O46 Eu11 2.335 1_545 S
O46 C56 1.264 . S
O47 Eu0 2.445 . S
O47 C64 1.268 . S
O48 Eu0 2.275 1_465 S
O48 C63 1.255 . S
O49 Eu11 2.372 . S
O49 C63 1.257 . S
O50 Eu11 2.462 1_655 S
O50 C75 1.252 1_655 S
O51 Eu11 2.373 1_655 S
O51 C67 1.249 . S
O52 Eu0 2.350 1_565 S
O52 C67 1.264 . S
O53 Eu11 2.432 . S
O53 C75 1.268 . S
O54 Eu11 2.291 1_645 S
O54 C74 1.255 . S
O55 Eu0 2.390 . S
O55 C74 1.257 . S
C56 O45 1.249 . S
C56 O46 1.264 . S
C57 C60 1.382 . S
C57 C62 1.390 . S
C57 C64 1.506 . S
C58 C59 1.398 . S
C58 C62 1.392 . S
C59 C58 1.398 . S
C59 C61 1.372 . S
C59 H76 0.931 . S
C60 C57 1.382 . S
C60 C61 1.390 . S
C60 H77 0.931 . S
C61 C59 1.372 . S
C61 C60 1.390 . S
C61 H78 0.929 . S
C62 C57 1.390 . S
C62 C58 1.392 . S
C62 H79 0.930 1_645 S
C63 O48 1.255 . S
C63 O49 1.257 . S
C64 Eu0 2.792 . S
C64 O44 1.252 1_655 S
C64 O47 1.268 . S
C64 C57 1.506 . S
C65 C32 1.439 . S
C65 H42 0.931 . S
C65 C66 1.374 . S
C66 C37 1.387 . S
C66 H43 0.931 . S
C66 C65 1.374 . S
C67 O51 1.249 . S
C67 O52 1.264 . S
C68 C71 1.382 . S
C68 C72 1.390 . S
C68 C75 1.506 . S
C69 C70 1.398 . S
C69 C72 1.392 . S
C70 C69 1.398 . S
C70 C73 1.372 . S
C70 H80 0.931 . S
C71 C68 1.382 . S
C71 C73 1.390 . S
C71 H81 0.931 . S
C72 C68 1.390 . S
C72 C69 1.392 . S
C72 H82 0.930 1_465 S
C73 C70 1.372 . S
C73 C71 1.390 . S
C73 H83 0.929 . S
C74 O54 1.255 . S
C74 O55 1.257 . S
C75 Eu11 2.787 . S
C75 O50 1.252 1_455 S
C75 O53 1.268 . S
C75 C68 1.506 . S
H76 C59 0.931 . S
H77 C60 0.931 . S
H78 C61 0.929 . S
H79 C62 0.930 1_465 S
H80 C70 0.931 . S
H81 C71 0.931 . S
H82 C72 0.930 1_645 S
H83 C73 0.929 . S
Eu84 N113 2.600 . S
Eu84 N119 2.562 . S
Eu84 O128 2.462 . S
Eu84 O129 2.373 . S
Eu84 O131 2.432 . S
Eu84 O132 2.291 . S
Eu84 O136 2.335 . S
Eu84 O139 2.372 . S
Eu84 C148 2.787 . S
C85 N86 1.365 . S
C85 C88 1.405 . S
C85 C92 1.448 . S
N86 C85 1.365 . S
N86 C89 1.319 . S
N86 Eu95 2.600 . S
C87 C89 1.397 . S
C87 C90 1.367 . S
C87 H107 0.931 . S
C88 C85 1.405 . S
C88 C90 1.403 . S
C88 C94 1.439 . S
C89 N86 1.319 . S
C89 C87 1.397 . S
C89 H100 0.930 . S
C90 C87 1.367 . S
C90 C88 1.403 . S
C90 H111 0.929 . S
C91 C92 1.430 . S
C91 C93 1.387 . S
C91 C97 1.404 . S
C92 C85 1.448 . S
C92 C91 1.430 . S
C92 N96 1.351 . S
C93 C91 1.387 . S
C93 C94 1.374 . S
C93 H108 0.931 . S
C94 C88 1.439 . S
C94 C93 1.374 . S
C94 H109 0.931 . S
Eu95 N86 2.600 . S
Eu95 N96 2.562 . S
Eu95 O130 2.335 . S
Eu95 O133 2.372 . S
Eu95 O134 2.462 . S
Eu95 O135 2.373 . S
Eu95 O137 2.432 . S
Eu95 O138 2.291 . S
Eu95 C159 2.787 . S
N96 C92 1.351 . S
N96 Eu95 2.562 . S
N96 C98 1.325 . S
C97 C91 1.404 . S
C97 C99 1.366 . S
C97 H105 0.930 . S
C98 N96 1.325 . S
C98 C99 1.416 . S
C98 H104 0.929 . S
C99 C97 1.366 . S
C99 C98 1.416 . S
C99 H101 0.930 . S
H100 C89 0.930 . S
H101 C99 0.930 . S
H102 C117 0.930 . S
H103 C124 0.930 . S
H104 C98 0.929 . S
H105 C97 0.930 . S
H106 C120 0.929 . S
H107 C87 0.931 . S
H108 C93 0.931 . S
H109 C94 0.931 . S
H110 C115 0.931 . S
H111 C90 0.929 . S
H112 C123 0.930 . S
N113 Eu84 2.600 . S
N113 C114 1.365 . S
N113 C117 1.319 . S
C114 N113 1.365 . S
C114 C116 1.405 . S
C114 C122 1.448 . S
C115 H110 0.931 . S
C115 C117 1.397 . S
C115 C118 1.367 . S
C116 C114 1.405 . S
C116 C118 1.403 . S
C116 C149 1.439 . S
C117 H102 0.930 . S
C117 N113 1.319 . S
C117 C115 1.397 . S
C118 C115 1.367 . S
C118 C116 1.403 . S
C118 H125 0.929 . S
N119 Eu84 2.562 . S
N119 C120 1.325 . S
N119 C122 1.351 . S
C120 H106 0.929 . S
C120 N119 1.325 . S
C120 C124 1.416 . S
C121 C122 1.430 . S
C121 C123 1.404 . S
C121 C150 1.387 . S
C122 C114 1.448 . S
C122 N119 1.351 . S
C122 C121 1.430 . S
C123 H112 0.930 . S
C123 C121 1.404 . S
C123 C124 1.366 . S
C124 H103 0.930 . S
C124 C120 1.416 . S
C124 C123 1.366 . S
H125 C118 0.929 . S
H126 C149 0.931 . S
H127 C150 0.931 . S
O128 Eu84 2.462 . S
O128 C148 1.252 . S
O129 Eu84 2.373 . S
O129 C140 1.249 . S
O130 Eu95 2.335 . S
O130 C140 1.264 . S
O131 Eu84 2.432 . S
O131 C148 1.268 . S
O132 Eu84 2.291 . S
O132 C147 1.255 . S
O133 Eu95 2.372 . S
O133 C147 1.257 . S
O134 Eu95 2.462 . S
O134 C159 1.252 . S
O135 Eu95 2.373 . S
O135 C151 1.249 . S
O136 Eu84 2.335 . S
O136 C151 1.264 . S
O137 Eu95 2.432 . S
O137 C159 1.268 . S
O138 Eu95 2.291 . S
O138 C158 1.255 . S
O139 Eu84 2.372 . S
O139 C158 1.257 . S
C140 O129 1.249 . S
C140 O130 1.264 . S
C141 C144 1.382 1_556 S
C141 C146 1.390 1_556 S
C141 C148 1.506 . S
C142 C143 1.398 . S
C142 C146 1.392 . S
C143 C142 1.398 . S
C143 C145 1.372 . S
C143 H160 0.931 . S
C144 C141 1.382 1_554 S
C144 C145 1.390 . S
C144 H161 0.931 1_554 S
C145 C143 1.372 . S
C145 C144 1.390 . S
C145 H162 0.929 . S
C146 C141 1.390 1_554 S
C146 C142 1.392 . S
C146 H163 0.930 . S
C147 O132 1.255 . S
C147 O133 1.257 . S
C148 Eu84 2.787 . S
C148 O128 1.252 . S
C148 O131 1.268 . S
C148 C141 1.506 . S
C149 C116 1.439 . S
C149 H126 0.931 . S
C149 C150 1.374 . S
C150 C121 1.387 . S
C150 H127 0.931 . S
C150 C149 1.374 . S
C151 O135 1.249 . S
C151 O136 1.264 . S
C152 C155 1.382 . S
C152 C156 1.390 . S
C152 C159 1.506 . S
C153 C154 1.398 . S
C153 C156 1.392 . S
C154 C153 1.398 . S
C154 C157 1.372 . S
C154 H164 0.931 . S
C155 C152 1.382 . S
C155 C157 1.390 . S
C155 H165 0.931 . S
C156 C152 1.390 . S
C156 C153 1.392 . S
C156 H166 0.930 . S
C157 C154 1.372 . S
C157 C155 1.390 . S
C157 H167 0.929 . S
C158 O138 1.255 . S
C158 O139 1.257 . S
C159 Eu95 2.787 . S
C159 O134 1.252 . S
C159 O137 1.268 . S
C159 C152 1.506 . S
H160 C143 0.931 . S
H161 C144 0.931 1_556 S
H162 C145 0.929 . S
H163 C146 0.930 . S
H164 C154 0.931 . S
H165 C155 0.931 . S
H166 C156 0.930 . S
H167 C157 0.929 . S
Eu168 N197 2.600 . S
Eu168 N203 2.562 . S
Eu168 O212 2.462 . S
Eu168 O213 2.373 1_554 S
Eu168 O215 2.432 . S
Eu168 O216 2.291 1_565 S
Eu168 O220 2.335 1_565 S
Eu168 O223 2.372 . S
Eu168 C232 2.787 . S
C169 N170 1.365 . S
C169 C172 1.405 . S
C169 C176 1.448 . S
N170 C169 1.365 . S
N170 C173 1.319 . S
N170 Eu179 2.600 . S
C171 C173 1.397 . S
C171 C174 1.367 . S
C171 H191 0.931 . S
C172 C169 1.405 . S
C172 C174 1.403 . S
C172 C178 1.439 . S
C173 N170 1.319 . S
C173 C171 1.397 . S
C173 H184 0.930 . S
C174 C171 1.367 . S
C174 C172 1.403 . S
C174 H195 0.929 . S
C175 C176 1.430 . S
C175 C177 1.387 . S
C175 C181 1.404 . S
C176 C169 1.448 . S
C176 C175 1.430 . S
C176 N180 1.351 . S
C177 C175 1.387 . S
C177 C178 1.374 . S
C177 H192 0.931 . S
C178 C172 1.439 . S
C178 C177 1.374 . S
C178 H193 0.931 . S
Eu179 N170 2.600 . S
Eu179 N180 2.562 . S
Eu179 O214 2.335 1_545 S
Eu179 O217 2.372 . S
Eu179 O218 2.462 . S
Eu179 O219 2.373 1_556 S
Eu179 O221 2.432 . S
Eu179 O222 2.291 1_545 S
Eu179 C243 2.787 . S
N180 C176 1.351 . S
N180 Eu179 2.562 . S
N180 C182 1.325 . S
C181 C175 1.404 . S
C181 C183 1.366 . S
C181 H189 0.930 . S
C182 N180 1.325 . S
C182 C183 1.416 . S
C182 H188 0.929 . S
C183 C181 1.366 . S
C183 C182 1.416 . S
C183 H185 0.930 . S
H184 C173 0.930 . S
H185 C183 0.930 . S
H186 C201 0.930 . S
H187 C208 0.930 . S
H188 C182 0.929 . S
H189 C181 0.930 . S
H190 C204 0.929 . S
H191 C171 0.931 . S
H192 C177 0.931 . S
H193 C178 0.931 . S
H194 C199 0.931 . S
H195 C174 0.929 . S
H196 C207 0.930 . S
N197 Eu168 2.600 . S
N197 C198 1.365 . S
N197 C201 1.319 . S
C198 N197 1.365 . S
C198 C200 1.405 . S
C198 C206 1.448 . S
C199 H194 0.931 . S
C199 C201 1.397 . S
C199 C202 1.367 . S
C200 C198 1.405 . S
C200 C202 1.403 . S
C200 C233 1.439 . S
C201 H186 0.930 . S
C201 N197 1.319 . S
C201 C199 1.397 . S
C202 C199 1.367 . S
C202 C200 1.403 . S
C202 H209 0.929 . S
N203 Eu168 2.562 . S
N203 C204 1.325 . S
N203 C206 1.351 . S
C204 H190 0.929 . S
C204 N203 1.325 . S
C204 C208 1.416 . S
C205 C206 1.430 . S
C205 C207 1.404 . S
C205 C234 1.387 . S
C206 C198 1.448 . S
C206 N203 1.351 . S
C206 C205 1.430 . S
C207 H196 0.930 . S
C207 C205 1.404 . S
C207 C208 1.366 . S
C208 H187 0.930 . S
C208 C204 1.416 . S
C208 C207 1.366 . S
H209 C202 0.929 . S
H210 C233 0.931 . S
H211 C234 0.931 . S
O212 Eu168 2.462 . S
O212 C232 1.252 . S
O213 Eu168 2.373 1_556 S
O213 C224 1.249 . S
O214 Eu179 2.335 1_565 S
O214 C224 1.264 . S
O215 Eu168 2.432 . S
O215 C232 1.268 . S
O216 Eu168 2.291 1_545 S
O216 C231 1.255 . S
O217 Eu179 2.372 . S
O217 C231 1.257 1_556 S
O218 Eu179 2.462 . S
O218 C243 1.252 . S
O219 Eu179 2.373 1_554 S
O219 C235 1.249 . S
O220 Eu168 2.335 1_545 S
O220 C235 1.264 . S
O221 Eu179 2.432 . S
O221 C243 1.268 . S
O222 Eu179 2.291 1_565 S
O222 C242 1.255 . S
O223 Eu168 2.372 . S
O223 C242 1.257 1_554 S
C224 O213 1.249 . S
C224 O214 1.264 . S
C225 C228 1.382 . S
C225 C230 1.390 . S
C225 C232 1.506 . S
C226 C227 1.398 . S
C226 C230 1.392 . S
C227 C226 1.398 . S
C227 C229 1.372 . S
C227 H244 0.931 . S
C228 C225 1.382 . S
C228 C229 1.390 . S
C228 H245 0.931 . S
C229 C227 1.372 . S
C229 C228 1.390 . S
C229 H246 0.929 . S
C230 C225 1.390 . S
C230 C226 1.392 . S
C230 H247 0.930 1_565 S
C231 O216 1.255 . S
C231 O217 1.257 1_554 S
C232 Eu168 2.787 . S
C232 O212 1.252 . S
C232 O215 1.268 . S
C232 C225 1.506 . S
C233 C200 1.439 . S
C233 H210 0.931 . S
C233 C234 1.374 . S
C234 C205 1.387 . S
C234 H211 0.931 . S
C234 C233 1.374 . S
C235 O219 1.249 . S
C235 O220 1.264 . S
C236 C239 1.382 . S
C236 C240 1.390 . S
C236 C243 1.506 . S
C237 C238 1.398 . S
C237 C240 1.392 . S
C238 C237 1.398 . S
C238 C241 1.372 . S
C238 H248 0.931 . S
C239 C236 1.382 . S
C239 C241 1.390 . S
C239 H249 0.931 . S
C240 C236 1.390 . S
C240 C237 1.392 . S
C240 H250 0.930 1_545 S
C241 C238 1.372 . S
C241 C239 1.390 . S
C241 H251 0.929 . S
C242 O222 1.255 . S
C242 O223 1.257 1_556 S
C243 Eu179 2.787 . S
C243 O218 1.252 . S
C243 O221 1.268 . S
C243 C236 1.506 . S
H244 C227 0.931 . S
H245 C228 0.931 . S
H246 C229 0.929 . S
H247 C230 0.930 1_545 S
H248 C238 0.931 . S
H249 C239 0.931 . S
H250 C240 0.930 1_565 S
H251 C241 0.929 . S
Eu252 N281 2.600 . S
Eu252 N287 2.562 . S
Eu252 O296 2.462 . S
Eu252 O297 2.373 . S
Eu252 O299 2.432 . S
Eu252 O300 2.291 . S
Eu252 O304 2.335 . S
Eu252 O307 2.372 . S
Eu252 C316 2.787 . S
C253 N254 1.365 . S
C253 C256 1.405 . S
C253 C260 1.448 . S
N254 C253 1.365 . S
N254 C257 1.319 . S
N254 Eu263 2.600 . S
C255 C257 1.397 . S
C255 C258 1.367 . S
C255 H275 0.931 . S
C256 C253 1.405 . S
C256 C258 1.403 . S
C256 C262 1.439 . S
C257 N254 1.319 . S
C257 C255 1.397 . S
C257 H268 0.930 . S
C258 C255 1.367 . S
C258 C256 1.403 . S
C258 H279 0.929 . S
C259 C260 1.430 . S
C259 C261 1.387 . S
C259 C265 1.404 . S
C260 C253 1.448 . S
C260 C259 1.430 . S
C260 N264 1.351 . S
C261 C259 1.387 . S
C261 C262 1.374 . S
C261 H276 0.931 . S
C262 C256 1.439 . S
C262 C261 1.374 . S
C262 H277 0.931 . S
Eu263 N254 2.600 . S
Eu263 N264 2.562 . S
Eu263 O298 2.335 . S
Eu263 O301 2.372 . S
Eu263 O302 2.462 . S
Eu263 O303 2.373 . S
Eu263 O305 2.432 . S
Eu263 O306 2.291 . S
Eu263 C327 2.787 . S
N264 C260 1.351 . S
N264 Eu263 2.562 . S
N264 C266 1.325 . S
C265 C259 1.404 . S
C265 C267 1.366 . S
C265 H273 0.930 . S
C266 N264 1.325 . S
C266 C267 1.416 . S
C266 H272 0.929 . S
C267 C265 1.366 . S
C267 C266 1.416 . S
C267 H269 0.930 . S
H268 C257 0.930 . S
H269 C267 0.930 . S
H270 C285 0.930 . S
H271 C292 0.930 . S
H272 C266 0.929 . S
H273 C265 0.930 . S
H274 C288 0.929 . S
H275 C255 0.931 . S
H276 C261 0.931 . S
H277 C262 0.931 . S
H278 C283 0.931 . S
H279 C258 0.929 . S
H280 C291 0.930 . S
N281 Eu252 2.600 . S
N281 C282 1.365 . S
N281 C285 1.319 . S
C282 N281 1.365 . S
C282 C284 1.405 . S
C282 C290 1.448 . S
C283 H278 0.931 . S
C283 C285 1.397 . S
C283 C286 1.367 . S
C284 C282 1.405 . S
C284 C286 1.403 . S
C284 C317 1.439 . S
C285 H270 0.930 . S
C285 N281 1.319 . S
C285 C283 1.397 . S
C286 C283 1.367 . S
C286 C284 1.403 . S
C286 H293 0.929 . S
N287 Eu252 2.562 . S
N287 C288 1.325 . S
N287 C290 1.351 . S
C288 H274 0.929 . S
C288 N287 1.325 . S
C288 C292 1.416 . S
C289 C290 1.430 . S
C289 C291 1.404 . S
C289 C318 1.387 . S
C290 C282 1.448 . S
C290 N287 1.351 . S
C290 C289 1.430 . S
C291 H280 0.930 . S
C291 C289 1.404 . S
C291 C292 1.366 . S
C292 H271 0.930 . S
C292 C288 1.416 . S
C292 C291 1.366 . S
H293 C286 0.929 . S
H294 C317 0.931 . S
H295 C318 0.931 . S
O296 Eu252 2.462 . S
O296 C316 1.252 . S
O297 Eu252 2.373 . S
O297 C308 1.249 . S
O298 Eu263 2.335 . S
O298 C308 1.264 . S
O299 Eu252 2.432 . S
O299 C316 1.268 . S
O300 Eu252 2.291 . S
O300 C315 1.255 . S
O301 Eu263 2.372 . S
O301 C315 1.257 . S
O302 Eu263 2.462 . S
O302 C327 1.252 . S
O303 Eu263 2.373 . S
O303 C319 1.249 . S
O304 Eu252 2.335 . S
O304 C319 1.264 . S
O305 Eu263 2.432 . S
O305 C327 1.268 . S
O306 Eu263 2.291 . S
O306 C326 1.255 . S
O307 Eu252 2.372 . S
O307 C326 1.257 . S
C308 O297 1.249 . S
C308 O298 1.264 . S
C309 C312 1.381 1_554 S
C309 C314 1.388 1_554 S
C309 C316 1.509 . S
C310 C311 1.398 . S
C310 C314 1.392 . S
C311 C310 1.398 . S
C311 C313 1.372 . S
C311 H328 0.931 . S
C312 C309 1.381 1_556 S
C312 C313 1.390 . S
C312 H329 0.931 1_556 S
C313 C311 1.372 . S
C313 C312 1.390 . S
C313 H330 0.929 . S
C314 C309 1.388 1_556 S
C314 C310 1.392 . S
C314 H331 0.930 . S
C315 O300 1.255 . S
C315 O301 1.257 . S
C316 Eu252 2.787 . S
C316 O296 1.252 . S
C316 O299 1.268 . S
C316 C309 1.509 . S
C317 C284 1.439 . S
C317 H294 0.931 . S
C317 C318 1.374 . S
C318 C289 1.387 . S
C318 H295 0.931 . S
C318 C317 1.374 . S
C319 O303 1.249 . S
C319 O304 1.264 . S
C320 C323 1.382 . S
C320 C324 1.390 . S
C320 C327 1.506 . S
C321 C322 1.398 . S
C321 C324 1.392 . S
C322 C321 1.398 . S
C322 C325 1.372 . S
C322 H332 0.931 . S
C323 C320 1.382 . S
C323 C325 1.390 . S
C323 H333 0.931 . S
C324 C320 1.390 . S
C324 C321 1.392 . S
C324 H334 0.930 . S
C325 C322 1.372 . S
C325 C323 1.390 . S
C325 H335 0.929 . S
C326 O306 1.255 . S
C326 O307 1.257 . S
C327 Eu263 2.787 . S
C327 O302 1.252 . S
C327 O305 1.268 . S
C327 C320 1.506 . S
H328 C311 0.931 . S
H329 C312 0.931 1_554 S
H330 C313 0.929 . S
H331 C314 0.930 . S
H332 C322 0.931 . S
H333 C323 0.931 . S
H334 C324 0.930 . S
H335 C325 0.929 . S
Eu336 N365 2.600 . S
Eu336 N371 2.562 . S
Eu336 O380 2.462 . S
Eu336 O381 2.373 . S
Eu336 O383 2.432 . S
Eu336 O384 2.291 . S
Eu336 O388 2.335 . S
Eu336 O391 2.372 . S
Eu336 C400 2.787 . S
C337 N338 1.365 . S
C337 C340 1.405 . S
C337 C344 1.448 . S
N338 C337 1.365 . S
N338 C341 1.319 . S
N338 Eu347 2.600 . S
C339 C341 1.397 . S
C339 C342 1.367 . S
C339 H359 0.931 . S
C340 C337 1.405 . S
C340 C342 1.403 . S
C340 C346 1.439 . S
C341 N338 1.319 . S
C341 C339 1.397 . S
C341 H352 0.930 . S
C342 C339 1.367 . S
C342 C340 1.403 . S
C342 H363 0.929 . S
C343 C344 1.430 . S
C343 C345 1.387 . S
C343 C349 1.404 . S
C344 C337 1.448 . S
C344 C343 1.430 . S
C344 N348 1.351 . S
C345 C343 1.387 . S
C345 C346 1.374 . S
C345 H360 0.931 . S
C346 C340 1.439 . S
C346 C345 1.374 . S
C346 H361 0.931 . S
Eu347 N338 2.600 . S
Eu347 N348 2.562 . S
Eu347 O382 2.335 . S
Eu347 O385 2.372 . S
Eu347 O386 2.462 . S
Eu347 O387 2.373 . S
Eu347 O389 2.432 . S
Eu347 O390 2.291 . S
Eu347 C411 2.787 . S
N348 C344 1.351 . S
N348 Eu347 2.562 . S
N348 C350 1.325 . S
C349 C343 1.404 . S
C349 C351 1.366 . S
C349 H357 0.930 . S
C350 N348 1.325 . S
C350 C351 1.416 . S
C350 H356 0.929 . S
C351 C349 1.366 . S
C351 C350 1.416 . S
C351 H353 0.930 . S
H352 C341 0.930 . S
H353 C351 0.930 . S
H354 C369 0.930 . S
H355 C376 0.930 . S
H356 C350 0.929 . S
H357 C349 0.930 . S
H358 C372 0.929 . S
H359 C339 0.931 . S
H360 C345 0.931 . S
H361 C346 0.931 . S
H362 C367 0.931 . S
H363 C342 0.929 . S
H364 C375 0.930 . S
N365 Eu336 2.600 . S
N365 C366 1.365 . S
N365 C369 1.319 . S
C366 N365 1.365 . S
C366 C368 1.405 . S
C366 C374 1.448 . S
C367 H362 0.931 . S
C367 C369 1.397 . S
C367 C370 1.367 . S
C368 C366 1.405 . S
C368 C370 1.403 . S
C368 C401 1.439 . S
C369 H354 0.930 . S
C369 N365 1.319 . S
C369 C367 1.397 . S
C370 C367 1.367 . S
C370 C368 1.403 . S
C370 H377 0.929 . S
N371 Eu336 2.562 . S
N371 C372 1.325 . S
N371 C374 1.351 . S
C372 H358 0.929 . S
C372 N371 1.325 . S
C372 C376 1.416 . S
C373 C374 1.430 . S
C373 C375 1.404 . S
C373 C402 1.387 . S
C374 C366 1.448 . S
C374 N371 1.351 . S
C374 C373 1.430 . S
C375 H364 0.930 . S
C375 C373 1.404 . S
C375 C376 1.366 . S
C376 H355 0.930 . S
C376 C372 1.416 . S
C376 C375 1.366 . S
H377 C370 0.929 . S
H378 C401 0.931 . S
H379 C402 0.931 . S
O380 Eu336 2.462 . S
O380 C400 1.252 . S
O381 Eu336 2.373 . S
O381 C392 1.249 . S
O382 Eu347 2.335 . S
O382 C392 1.264 . S
O383 Eu336 2.432 . S
O383 C400 1.268 . S
O384 Eu336 2.291 . S
O384 C399 1.255 . S
O385 Eu347 2.372 . S
O385 C399 1.257 . S
O386 Eu347 2.462 . S
O386 C411 1.252 . S
O387 Eu347 2.373 . S
O387 C403 1.249 . S
O388 Eu336 2.335 . S
O388 C403 1.264 . S
O389 Eu347 2.432 . S
O389 C411 1.268 . S
O390 Eu347 2.291 . S
O390 C410 1.255 . S
O391 Eu336 2.372 . S
O391 C410 1.257 . S
C392 O381 1.249 . S
C392 O382 1.264 . S
C393 C396 1.382 . S
C393 C398 1.390 . S
C393 C400 1.506 . S
C394 C395 1.398 . S
C394 C398 1.392 . S
C395 C394 1.398 . S
C395 C397 1.372 . S
C395 H412 0.931 . S
C396 C393 1.382 . S
C396 C397 1.390 . S
C396 H413 0.931 . S
C397 C395 1.372 . S
C397 C396 1.390 . S
C397 H414 0.929 . S
C398 C393 1.390 . S
C398 C394 1.392 . S
C398 H415 0.930 . S
C399 O384 1.255 . S
C399 O385 1.257 . S
C400 Eu336 2.787 . S
C400 O380 1.252 . S
C400 O383 1.268 . S
C400 C393 1.506 . S
C401 C368 1.439 . S
C401 H378 0.931 . S
C401 C402 1.374 . S
C402 C373 1.387 . S
C402 H379 0.931 . S
C402 C401 1.374 . S
C403 O387 1.249 . S
C403 O388 1.264 . S
C404 C407 1.382 1_554 S
C404 C408 1.390 1_554 S
C404 C411 1.507 . S
C405 C406 1.398 . S
C405 C408 1.392 . S
C406 C405 1.398 . S
C406 C409 1.372 . S
C406 H416 0.931 . S
C407 C404 1.382 1_556 S
C407 C409 1.390 . S
C407 H417 0.931 1_556 S
C408 C404 1.390 1_556 S
C408 C405 1.392 . S
C408 H418 0.930 . S
C409 C406 1.372 . S
C409 C407 1.390 . S
C409 H419 0.929 . S
C410 O390 1.255 . S
C410 O391 1.257 . S
C411 Eu347 2.787 . S
C411 O386 1.252 . S
C411 O389 1.268 . S
C411 C404 1.507 . S
H412 C395 0.931 . S
H413 C396 0.931 . S
H414 C397 0.929 . S
H415 C398 0.930 . S
H416 C406 0.931 . S
H417 C407 0.931 1_554 S
H418 C408 0.930 . S
H419 C409 0.929 . S
Eu420 N449 2.600 . S
Eu420 N455 2.562 . S
Eu420 O464 2.462 . S
Eu420 O465 2.373 . S
Eu420 O467 2.432 . S
Eu420 O468 2.291 . S
Eu420 O472 2.335 . S
Eu420 O475 2.372 . S
Eu420 C484 2.787 . S
C421 N422 1.365 . S
C421 C424 1.405 . S
C421 C428 1.448 . S
N422 C421 1.365 . S
N422 C425 1.319 . S
N422 Eu431 2.600 . S
C423 C425 1.397 . S
C423 C426 1.367 . S
C423 H443 0.931 . S
C424 C421 1.405 . S
C424 C426 1.403 . S
C424 C430 1.439 . S
C425 N422 1.319 . S
C425 C423 1.397 . S
C425 H436 0.930 . S
C426 C423 1.367 . S
C426 C424 1.403 . S
C426 H447 0.929 . S
C427 C428 1.430 . S
C427 C429 1.387 . S
C427 C433 1.404 . S
C428 C421 1.448 . S
C428 C427 1.430 . S
C428 N432 1.351 . S
C429 C427 1.387 . S
C429 C430 1.374 . S
C429 H444 0.931 . S
C430 C424 1.439 . S
C430 C429 1.374 . S
C430 H445 0.931 . S
Eu431 N422 2.600 . S
Eu431 N432 2.562 . S
Eu431 O466 2.335 . S
Eu431 O469 2.372 . S
Eu431 O470 2.462 . S
Eu431 O471 2.373 . S
Eu431 O473 2.432 . S
Eu431 O474 2.291 . S
Eu431 C495 2.787 . S
N432 C428 1.351 . S
N432 Eu431 2.562 . S
N432 C434 1.325 . S
C433 C427 1.404 . S
C433 C435 1.366 . S
C433 H441 0.930 . S
C434 N432 1.325 . S
C434 C435 1.416 . S
C434 H440 0.929 . S
C435 C433 1.366 . S
C435 C434 1.416 . S
C435 H437 0.930 . S
H436 C425 0.930 . S
H437 C435 0.930 . S
H438 C453 0.930 . S
H439 C460 0.930 . S
H440 C434 0.929 . S
H441 C433 0.930 . S
H442 C456 0.929 . S
H443 C423 0.931 . S
H444 C429 0.931 . S
H445 C430 0.931 . S
H446 C451 0.931 . S
H447 C426 0.929 . S
H448 C459 0.930 . S
N449 Eu420 2.600 . S
N449 C450 1.365 . S
N449 C453 1.319 . S
C450 N449 1.365 . S
C450 C452 1.405 . S
C450 C458 1.448 . S
C451 H446 0.931 . S
C451 C453 1.397 . S
C451 C454 1.367 . S
C452 C450 1.405 . S
C452 C454 1.403 . S
C452 C485 1.439 . S
C453 H438 0.930 . S
C453 N449 1.319 . S
C453 C451 1.397 . S
C454 C451 1.367 . S
C454 C452 1.403 . S
C454 H461 0.929 . S
N455 Eu420 2.562 . S
N455 C456 1.325 . S
N455 C458 1.351 . S
C456 H442 0.929 . S
C456 N455 1.325 . S
C456 C460 1.416 . S
C457 C458 1.430 . S
C457 C459 1.404 . S
C457 C486 1.387 . S
C458 C450 1.448 . S
C458 N455 1.351 . S
C458 C457 1.430 . S
C459 H448 0.930 . S
C459 C457 1.404 . S
C459 C460 1.366 . S
C460 H439 0.930 . S
C460 C456 1.416 . S
C460 C459 1.366 . S
H461 C454 0.929 . S
H462 C485 0.931 . S
H463 C486 0.931 . S
O464 Eu420 2.462 . S
O464 C484 1.252 . S
O465 Eu420 2.373 . S
O465 C476 1.249 . S
O466 Eu431 2.335 . S
O466 C476 1.264 . S
O467 Eu420 2.432 . S
O467 C484 1.268 . S
O468 Eu420 2.291 . S
O468 C483 1.255 . S
O469 Eu431 2.372 . S
O469 C483 1.257 . S
O470 Eu431 2.462 . S
O470 C495 1.252 . S
O471 Eu431 2.373 . S
O471 C487 1.249 . S
O472 Eu420 2.335 . S
O472 C487 1.264 . S
O473 Eu431 2.432 . S
O473 C495 1.268 . S
O474 Eu431 2.291 . S
O474 C494 1.255 . S
O475 Eu420 2.372 . S
O475 C494 1.257 . S
C476 O465 1.249 . S
C476 O466 1.264 . S
C477 C480 1.382 . S
C477 C482 1.390 . S
C477 C484 1.506 . S
C478 C479 1.398 . S
C478 C482 1.392 . S
C479 C478 1.398 . S
C479 C481 1.372 . S
C479 H496 0.931 . S
C480 C477 1.382 . S
C480 C481 1.390 . S
C480 H497 0.931 . S
C481 C479 1.372 . S
C481 C480 1.390 . S
C481 H498 0.929 . S
C482 C477 1.390 . S
C482 C478 1.392 . S
C482 H499 0.930 . S
C483 O468 1.255 . S
C483 O469 1.257 . S
C484 Eu420 2.787 . S
C484 O464 1.252 . S
C484 O467 1.268 . S
C484 C477 1.506 . S
C485 C452 1.439 . S
C485 H462 0.931 . S
C485 C486 1.374 . S
C486 C457 1.387 . S
C486 H463 0.931 . S
C486 C485 1.374 . S
C487 O471 1.249 . S
C487 O472 1.264 . S
C488 C491 1.381 1_556 S
C488 C492 1.388 1_556 S
C488 C495 1.509 . S
C489 C490 1.398 . S
C489 C492 1.392 . S
C490 C489 1.398 . S
C490 C493 1.372 . S
C490 H500 0.931 . S
C491 C488 1.381 1_554 S
C491 C493 1.390 . S
C491 H501 0.931 1_554 S
C492 C488 1.388 1_554 S
C492 C489 1.392 . S
C492 H502 0.930 . S
C493 C490 1.372 . S
C493 C491 1.390 . S
C493 H503 0.929 . S
C494 O474 1.255 . S
C494 O475 1.257 . S
C495 Eu431 2.787 . S
C495 O470 1.252 . S
C495 O473 1.268 . S
C495 C488 1.509 . S
H496 C479 0.931 . S
H497 C480 0.931 . S
H498 C481 0.929 . S
H499 C482 0.930 . S
H500 C490 0.931 . S
H501 C491 0.931 1_556 S
H502 C492 0.930 . S
H503 C493 0.929 . S
Eu504 N533 2.600 . S
Eu504 N539 2.562 . S
Eu504 O548 2.462 . S
Eu504 O549 2.373 1_554 S
Eu504 O551 2.432 . S
Eu504 O552 2.291 . S
Eu504 O556 2.335 . S
Eu504 O559 2.372 . S
Eu504 C568 2.787 . S
C505 N506 1.365 . S
C505 C508 1.405 . S
C505 C512 1.448 . S
N506 C505 1.365 . S
N506 C509 1.319 . S
N506 Eu515 2.600 . S
C507 C509 1.397 . S
C507 C510 1.367 . S
C507 H527 0.931 . S
C508 C505 1.405 . S
C508 C510 1.403 . S
C508 C514 1.439 . S
C509 N506 1.319 . S
C509 C507 1.397 . S
C509 H520 0.930 . S
C510 C507 1.367 . S
C510 C508 1.403 . S
C510 H531 0.929 . S
C511 C512 1.430 . S
C511 C513 1.387 . S
C511 C517 1.404 . S
C512 C505 1.448 . S
C512 C511 1.430 . S
C512 N516 1.351 . S
C513 C511 1.387 . S
C513 C514 1.374 . S
C513 H528 0.931 . S
C514 C508 1.439 . S
C514 C513 1.374 . S
C514 H529 0.931 . S
Eu515 N506 2.600 . S
Eu515 N516 2.562 . S
Eu515 O550 2.335 . S
Eu515 O553 2.372 . S
Eu515 O554 2.462 . S
Eu515 O555 2.373 1_556 S
Eu515 O557 2.432 . S
Eu515 O558 2.291 . S
Eu515 C579 2.787 . S
N516 C512 1.351 . S
N516 Eu515 2.562 . S
N516 C518 1.325 . S
C517 C511 1.404 . S
C517 C519 1.366 . S
C517 H525 0.930 . S
C518 N516 1.325 . S
C518 C519 1.416 . S
C518 H524 0.929 . S
C519 C517 1.366 . S
C519 C518 1.416 . S
C519 H521 0.930 . S
H520 C509 0.930 . S
H521 C519 0.930 . S
H522 C537 0.930 . S
H523 C544 0.930 . S
H524 C518 0.929 . S
H525 C517 0.930 . S
H526 C540 0.929 . S
H527 C507 0.931 . S
H528 C513 0.931 . S
H529 C514 0.931 . S
H530 C535 0.931 . S
H531 C510 0.929 . S
H532 C543 0.930 . S
N533 Eu504 2.600 . S
N533 C534 1.365 . S
N533 C537 1.319 . S
C534 N533 1.365 . S
C534 C536 1.405 . S
C534 C542 1.448 . S
C535 H530 0.931 . S
C535 C537 1.397 . S
C535 C538 1.367 . S
C536 C534 1.405 . S
C536 C538 1.403 . S
C536 C569 1.439 . S
C537 H522 0.930 . S
C537 N533 1.319 . S
C537 C535 1.397 . S
C538 C535 1.367 . S
C538 C536 1.403 . S
C538 H545 0.929 . S
N539 Eu504 2.562 . S
N539 C540 1.325 . S
N539 C542 1.351 . S
C540 H526 0.929 . S
C540 N539 1.325 . S
C540 C544 1.416 . S
C541 C542 1.430 . S
C541 C543 1.404 . S
C541 C570 1.387 . S
C542 C534 1.448 . S
C542 N539 1.351 . S
C542 C541 1.430 . S
C543 H532 0.930 . S
C543 C541 1.404 . S
C543 C544 1.366 . S
C544 H523 0.930 . S
C544 C540 1.416 . S
C544 C543 1.366 . S
H545 C538 0.929 . S
H546 C569 0.931 . S
H547 C570 0.931 . S
O548 Eu504 2.462 . S
O548 C568 1.252 . S
O549 Eu504 2.373 1_556 S
O549 C560 1.249 . S
O550 Eu515 2.335 . S
O550 C560 1.264 . S
O551 Eu504 2.432 . S
O551 C568 1.268 . S
O552 Eu504 2.291 . S
O552 C567 1.255 . S
O553 Eu515 2.372 . S
O553 C567 1.257 1_556 S
O554 Eu515 2.462 . S
O554 C579 1.252 . S
O555 Eu515 2.373 1_554 S
O555 C571 1.249 . S
O556 Eu504 2.335 . S
O556 C571 1.264 . S
O557 Eu515 2.432 . S
O557 C579 1.268 . S
O558 Eu515 2.291 . S
O558 C578 1.255 . S
O559 Eu504 2.372 . S
O559 C578 1.257 1_554 S
C560 O549 1.249 . S
C560 O550 1.264 . S
C561 C564 1.382 . S
C561 C566 1.390 . S
C561 C568 1.506 . S
C562 C563 1.398 . S
C562 C566 1.392 . S
C563 C562 1.398 . S
C563 C565 1.372 . S
C563 H580 0.931 . S
C564 C561 1.382 . S
C564 C565 1.390 . S
C564 H581 0.931 . S
C565 C563 1.372 . S
C565 C564 1.390 . S
C565 H582 0.929 . S
C566 C561 1.390 . S
C566 C562 1.392 . S
C566 H583 0.930 . S
C567 O552 1.255 . S
C567 O553 1.257 1_554 S
C568 Eu504 2.787 . S
C568 O548 1.252 . S
C568 O551 1.268 . S
C568 C561 1.506 . S
C569 C536 1.439 . S
C569 H546 0.931 . S
C569 C570 1.374 . S
C570 C541 1.387 . S
C570 H547 0.931 . S
C570 C569 1.374 . S
C571 O555 1.249 . S
C571 O556 1.264 . S
C572 C575 1.382 . S
C572 C576 1.390 . S
C572 C579 1.506 . S
C573 C574 1.398 . S
C573 C576 1.392 . S
C574 C573 1.398 . S
C574 C577 1.372 . S
C574 H584 0.931 . S
C575 C572 1.382 . S
C575 C577 1.390 . S
C575 H585 0.931 . S
C576 C572 1.390 . S
C576 C573 1.392 . S
C576 H586 0.930 . S
C577 C574 1.372 . S
C577 C575 1.390 . S
C577 H587 0.929 . S
C578 O558 1.255 . S
C578 O559 1.257 1_556 S
C579 Eu515 2.787 . S
C579 O554 1.252 . S
C579 O557 1.268 . S
C579 C572 1.506 . S
H580 C563 0.931 . S
H581 C564 0.931 . S
H582 C565 0.929 . S
H583 C566 0.930 . S
H584 C574 0.931 . S
H585 C575 0.931 . S
H586 C576 0.930 . S
H587 C577 0.929 . S
Eu588 N617 2.600 . S
Eu588 N623 2.562 1_455 S
Eu588 O632 2.462 1_455 S
Eu588 O633 2.373 1_455 S
Eu588 O635 2.432 . S
Eu588 O636 2.291 1_455 S
Eu588 O640 2.335 . S
Eu588 O643 2.372 . S
Eu588 C652 2.787 . S
C589 N590 1.365 1_455 S
C589 C592 1.405 . S
C589 C596 1.448 . S
N590 C589 1.365 1_655 S
N590 C593 1.319 . S
N590 Eu599 2.601 . S
C591 C593 1.397 . S
C591 C594 1.367 . S
C591 H611 0.931 . S
C592 C589 1.405 . S
C592 C594 1.403 1_455 S
C592 C598 1.439 . S
C593 N590 1.319 . S
C593 C591 1.397 . S
C593 H604 0.930 . S
C594 C591 1.367 . S
C594 C592 1.403 1_655 S
C594 H615 0.929 . S
C595 C596 1.430 . S
C595 C597 1.387 . S
C595 C601 1.404 . S
C596 C589 1.448 . S
C596 C595 1.430 . S
C596 N600 1.351 . S
C597 C595 1.387 . S
C597 C598 1.374 . S
C597 H612 0.931 . S
C598 C592 1.439 . S
C598 C597 1.374 . S
C598 H613 0.931 . S
Eu599 N590 2.601 . S
Eu599 N600 2.541 1_655 S
Eu599 O634 2.350 . S
Eu599 O637 2.390 . S
Eu599 O638 2.458 1_655 S
Eu599 O639 2.360 1_655 S
Eu599 O641 2.445 . S
Eu599 O642 2.276 1_655 S
Eu599 C663 2.792 . S
N600 C596 1.351 . S
N600 Eu599 2.541 1_455 S
N600 C602 1.325 . S
C601 C595 1.404 . S
C601 C603 1.366 . S
C601 H609 0.930 . S
C602 N600 1.325 . S
C602 C603 1.416 . S
C602 H608 0.929 . S
C603 C601 1.366 . S
C603 C602 1.416 . S
C603 H605 0.930 . S
H604 C593 0.930 . S
H605 C603 0.930 . S
H606 C621 0.930 . S
H607 C628 0.930 . S
H608 C602 0.929 . S
H609 C601 0.930 . S
H610 C624 0.929 . S
H611 C591 0.931 . S
H612 C597 0.931 . S
H613 C598 0.931 . S
H614 C619 0.931 . S
H615 C594 0.929 . S
H616 C627 0.930 . S
N617 Eu588 2.600 . S
N617 C618 1.365 1_455 S
N617 C621 1.319 . S
C618 N617 1.365 1_655 S
C618 C620 1.405 . S
C618 C626 1.448 . S
C619 H614 0.931 . S
C619 C621 1.397 . S
C619 C622 1.367 . S
C620 C618 1.405 . S
C620 C622 1.403 1_655 S
C620 C653 1.439 . S
C621 H606 0.930 . S
C621 N617 1.319 . S
C621 C619 1.397 . S
C622 C619 1.367 . S
C622 C620 1.403 1_455 S
C622 H629 0.929 . S
N623 Eu588 2.562 1_655 S
N623 C624 1.325 . S
N623 C626 1.351 . S
C624 H610 0.929 . S
C624 N623 1.325 . S
C624 C628 1.416 . S
C625 C626 1.430 . S
C625 C627 1.404 . S
C625 C654 1.387 . S
C626 C618 1.448 . S
C626 N623 1.351 . S
C626 C625 1.430 . S
C627 H616 0.930 . S
C627 C625 1.404 . S
C627 C628 1.366 . S
C628 H607 0.930 . S
C628 C624 1.416 . S
C628 C627 1.366 . S
H629 C622 0.929 . S
H630 C653 0.931 . S
H631 C654 0.931 . S
O632 Eu588 2.462 1_655 S
O632 C652 1.252 1_655 S
O633 Eu588 2.373 1_655 S
O633 C644 1.249 . S
O634 Eu599 2.350 . S
O634 C644 1.264 . S
O635 Eu588 2.432 . S
O635 C652 1.268 . S
O636 Eu588 2.291 1_655 S
O636 C651 1.255 . S
O637 Eu599 2.390 . S
O637 C651 1.257 . S
O638 Eu599 2.458 1_455 S
O638 C663 1.252 1_455 S
O639 Eu599 2.360 1_455 S
O639 C655 1.249 . S
O640 Eu588 2.335 . S
O640 C655 1.264 . S
O641 Eu599 2.445 . S
O641 C663 1.268 . S
O642 Eu599 2.276 1_455 S
O642 C662 1.255 . S
O643 Eu588 2.372 . S
O643 C662 1.257 . S
C644 O633 1.249 . S
C644 O634 1.264 . S
C645 C648 1.382 . S
C645 C650 1.390 . S
C645 C652 1.506 . S
C646 C647 1.398 . S
C646 C650 1.392 . S
C647 C646 1.398 . S
C647 C649 1.372 . S
C647 H664 0.931 . S
C648 C645 1.382 . S
C648 C649 1.390 . S
C648 H665 0.931 . S
C649 C647 1.372 . S
C649 C648 1.390 . S
C649 H666 0.929 . S
C650 C645 1.390 . S
C650 C646 1.392 . S
C650 H667 0.930 1_455 S
C651 O636 1.255 . S
C651 O637 1.257 . S
C652 Eu588 2.787 . S
C652 O632 1.252 1_455 S
C652 O635 1.268 . S
C652 C645 1.506 . S
C653 C620 1.439 . S
C653 H630 0.931 . S
C653 C654 1.374 . S
C654 C625 1.387 . S
C654 H631 0.931 . S
C654 C653 1.374 . S
C655 O639 1.249 . S
C655 O640 1.264 . S
C656 C659 1.382 . S
C656 C660 1.390 . S
C656 C663 1.506 . S
C657 C658 1.398 . S
C657 C660 1.392 . S
C658 C657 1.398 . S
C658 C661 1.372 . S
C658 H668 0.931 . S
C659 C656 1.382 . S
C659 C661 1.390 . S
C659 H669 0.931 . S
C660 C656 1.390 . S
C660 C657 1.392 . S
C660 H670 0.930 1_655 S
C661 C658 1.372 . S
C661 C659 1.390 . S
C661 H671 0.929 . S
C662 O642 1.255 . S
C662 O643 1.257 . S
C663 Eu599 2.792 . S
C663 O638 1.252 1_655 S
C663 O641 1.268 . S
C663 C656 1.506 . S
H664 C647 0.931 . S
H665 C648 0.931 . S
H666 C649 0.929 . S
H667 C650 0.930 1_655 S
H668 C658 0.931 . S
H669 C659 0.931 . S
H670 C660 0.930 1_455 S
H671 C661 0.929 . S
H672 C678 0.930 . S
H673 C681 0.930 . S
H674 C682 0.930 . S
H675 C683 0.930 . S
H676 C686 0.930 . S
H677 C687 0.930 . S
C678 H672 0.930 . S
C678 C679 1.355 . S
C678 C680 1.415 . S
C679 C678 1.355 . S
C679 C681 1.419 . S
C680 C678 1.415 . S
C680 C685 1.425 . S
C680 C687 1.409 . S
C681 H673 0.930 . S
C681 C679 1.419 . S
C681 C682 1.362 . S
C682 H674 0.930 . S
C682 C681 1.362 . S
C682 C685 1.409 . S
C683 H675 0.930 . S
C683 C684 1.355 . S
C683 C685 1.415 . S
C684 C683 1.355 . S
C684 C686 1.419 . S
C685 C680 1.425 . S
C685 C682 1.409 . S
C685 C683 1.415 . S
C686 H676 0.930 . S
C686 C684 1.419 . S
C686 C687 1.362 . S
C687 H677 0.930 . S
C687 C680 1.409 . S
C687 C686 1.362 . S
H688 C694 0.930 . S
H689 C697 0.930 . S
H690 C698 0.930 . S
H691 C699 0.930 . S
H692 C702 0.930 . S
H693 C703 0.930 . S
C694 H688 0.930 . S
C694 C695 1.355 . S
C694 C696 1.415 . S
C695 C694 1.355 . S
C695 C697 1.419 . S
C696 C694 1.415 . S
C696 C701 1.425 . S
C696 C703 1.409 . S
C697 H689 0.930 . S
C697 C695 1.419 . S
C697 C698 1.362 . S
C698 H690 0.930 . S
C698 C697 1.362 . S
C698 C701 1.409 . S
C699 H691 0.930 . S
C699 C700 1.355 . S
C699 C701 1.415 . S
C700 C699 1.355 . S
C700 C702 1.419 . S
C701 C696 1.425 . S
C701 C698 1.409 . S
C701 C699 1.415 . S
C702 H692 0.930 . S
C702 C700 1.419 . S
C702 C703 1.362 . S
C703 H693 0.930 . S
C703 C696 1.409 . S
C703 C702 1.362 . S
H704 C710 0.930 . S
H705 C713 0.930 . S
H706 C714 0.930 . S
H707 C715 0.930 . S
H708 C718 0.930 . S
H709 C719 0.930 . S
C710 H704 0.930 . S
C710 C711 1.355 . S
C710 C712 1.415 . S
C711 C710 1.355 . S
C711 C713 1.419 . S
C712 C710 1.415 . S
C712 C717 1.425 . S
C712 C719 1.409 . S
C713 H705 0.930 . S
C713 C711 1.419 . S
C713 C714 1.362 . S
C714 H706 0.930 . S
C714 C713 1.362 . S
C714 C717 1.409 . S
C715 H707 0.930 . S
C715 C716 1.355 . S
C715 C717 1.415 . S
C716 C715 1.355 . S
C716 C718 1.419 . S
C717 C712 1.425 . S
C717 C714 1.409 . S
C717 C715 1.415 . S
C718 H708 0.930 . S
C718 C716 1.419 . S
C718 C719 1.362 . S
C719 H709 0.930 . S
C719 C712 1.409 . S
C719 C718 1.362 . S
H720 C726 0.930 . S
H721 C729 0.930 . S
H722 C730 0.930 . S
H723 C731 0.930 . S
H724 C734 0.930 . S
H725 C735 0.930 . S
C726 H720 0.930 . S
C726 C727 1.355 . S
C726 C728 1.415 . S
C727 C726 1.355 . S
C727 C729 1.419 . S
C728 C726 1.415 . S
C728 C733 1.425 . S
C728 C735 1.409 . S
C729 H721 0.930 . S
C729 C727 1.419 . S
C729 C730 1.362 . S
C730 H722 0.930 . S
C730 C729 1.362 . S
C730 C733 1.409 . S
C731 H723 0.930 . S
C731 C732 1.355 . S
C731 C733 1.415 . S
C732 C731 1.355 . S
C732 C734 1.419 . S
C733 C728 1.425 . S
C733 C730 1.409 . S
C733 C731 1.415 . S
C734 H724 0.930 . S
C734 C732 1.419 . S
C734 C735 1.362 . S
C735 H725 0.930 . S
C735 C728 1.409 . S
C735 C734 1.362 . S
H736 C742 0.930 . S
H737 C745 0.930 . S
H738 C746 0.930 . S
H739 C747 0.930 . S
H740 C750 0.930 . S
H741 C751 0.930 . S
C742 H736 0.930 . S
C742 C743 1.355 . S
C742 C744 1.415 . S
C743 C742 1.355 . S
C743 C745 1.419 . S
C744 C742 1.415 . S
C744 C749 1.425 . S
C744 C751 1.409 . S
C745 H737 0.930 . S
C745 C743 1.419 . S
C745 C746 1.362 . S
C746 H738 0.930 . S
C746 C745 1.362 . S
C746 C749 1.409 . S
C747 H739 0.930 . S
C747 C748 1.355 . S
C747 C749 1.415 . S
C748 C747 1.355 . S
C748 C750 1.419 . S
C749 C744 1.425 . S
C749 C746 1.409 . S
C749 C747 1.415 . S
C750 H740 0.930 . S
C750 C748 1.419 . S
C750 C751 1.362 . S
C751 H741 0.930 . S
C751 C744 1.409 . S
C751 C750 1.362 . S
H752 C758 0.930 . S
H753 C761 0.930 . S
H754 C762 0.930 . S
H755 C763 0.930 . S
H756 C766 0.930 . S
H757 C767 0.930 . S
C758 H752 0.930 . S
C758 C759 1.355 . S
C758 C760 1.415 . S
C759 C758 1.355 . S
C759 C761 1.419 . S
C760 C758 1.415 . S
C760 C765 1.425 . S
C760 C767 1.409 . S
C761 H753 0.930 . S
C761 C759 1.419 . S
C761 C762 1.362 . S
C762 H754 0.930 . S
C762 C761 1.362 . S
C762 C765 1.409 . S
C763 H755 0.930 . S
C763 C764 1.355 . S
C763 C765 1.415 . S
C764 C763 1.355 . S
C764 C766 1.419 . S
C765 C760 1.425 . S
C765 C762 1.409 . S
C765 C763 1.415 . S
C766 H756 0.930 . S
C766 C764 1.419 . S
C766 C767 1.362 . S
C767 H757 0.930 . S
C767 C760 1.409 . S
C767 C766 1.362 . S
H768 C774 0.930 . S
H769 C777 0.930 . S
H770 C778 0.930 . S
H771 C779 0.930 . S
H772 C782 0.930 . S
H773 C783 0.930 . S
C774 H768 0.930 . S
C774 C775 1.355 . S
C774 C776 1.415 . S
C775 C774 1.355 . S
C775 C777 1.419 . S
C776 C774 1.415 . S
C776 C781 1.425 . S
C776 C783 1.409 . S
C777 H769 0.930 . S
C777 C775 1.419 . S
C777 C778 1.362 . S
C778 H770 0.930 . S
C778 C777 1.362 . S
C778 C781 1.409 . S
C779 H771 0.930 . S
C779 C780 1.355 . S
C779 C781 1.415 . S
C780 C779 1.355 . S
C780 C782 1.419 . S
C781 C776 1.425 . S
C781 C778 1.409 . S
C781 C779 1.415 . S
C782 H772 0.930 . S
C782 C780 1.419 . S
C782 C783 1.362 . S
C783 H773 0.930 . S
C783 C776 1.409 . S
C783 C782 1.362 . S
H784 C790 0.930 . S
H785 C793 0.930 . S
H786 C794 0.930 . S
H787 C795 0.930 . S
H788 C798 0.930 . S
H789 C799 0.930 . S
C790 H784 0.930 . S
C790 C791 1.355 . S
C790 C792 1.415 . S
C791 C790 1.355 . S
C791 C793 1.419 . S
C792 C790 1.415 . S
C792 C797 1.425 . S
C792 C799 1.409 . S
C793 H785 0.930 . S
C793 C791 1.419 . S
C793 C794 1.362 . S
C794 H786 0.930 . S
C794 C793 1.362 . S
C794 C797 1.409 . S
C795 H787 0.930 . S
C795 C796 1.355 . S
C795 C797 1.415 . S
C796 C795 1.355 . S
C796 C798 1.419 . S
C797 C792 1.425 . S
C797 C794 1.409 . S
C797 C795 1.415 . S
C798 H788 0.930 . S
C798 C796 1.419 . S
C798 C799 1.362 . S
C799 H789 0.930 . S
C799 C792 1.409 . S
C799 C798 1.362 . S
H800 C806 0.930 . S
H801 C809 0.930 . S
H802 C810 0.930 . S
H803 C811 0.930 . S
H804 C814 0.930 . S
H805 C815 0.930 . S
C806 H800 0.930 . S
C806 C807 1.355 . S
C806 C808 1.415 . S
C807 C806 1.355 . S
C807 C809 1.419 . S
C808 C806 1.415 . S
C808 C813 1.425 . S
C808 C815 1.409 . S
C809 H801 0.930 . S
C809 C807 1.419 . S
C809 C810 1.362 . S
C810 H802 0.930 . S
C810 C809 1.362 . S
C810 C813 1.409 . S
C811 H803 0.930 . S
C811 C812 1.355 . S
C811 C813 1.415 . S
C812 C811 1.355 . S
C812 C814 1.419 . S
C813 C808 1.425 . S
C813 C810 1.409 . S
C813 C811 1.415 . S
C814 H804 0.930 . S
C814 C812 1.419 . S
C814 C815 1.362 . S
C815 H805 0.930 . S
C815 C808 1.409 . S
C815 C814 1.362 . S
H816 C822 0.930 . S
H817 C825 0.930 . S
H818 C826 0.930 . S
H819 C827 0.930 . S
H820 C830 0.930 . S
H821 C831 0.930 . S
C822 H816 0.930 . S
C822 C823 1.355 . S
C822 C824 1.415 . S
C823 C822 1.355 . S
C823 C825 1.419 . S
C824 C822 1.415 . S
C824 C829 1.425 . S
C824 C831 1.409 . S
C825 H817 0.930 . S
C825 C823 1.419 . S
C825 C826 1.362 . S
C826 H818 0.930 . S
C826 C825 1.362 . S
C826 C829 1.409 . S
C827 H819 0.930 . S
C827 C828 1.355 . S
C827 C829 1.415 . S
C828 C827 1.355 . S
C828 C830 1.419 . S
C829 C824 1.425 . S
C829 C826 1.409 . S
C829 C827 1.415 . S
C830 H820 0.930 . S
C830 C828 1.419 . S
C830 C831 1.362 . S
C831 H821 0.930 . S
C831 C824 1.409 . S
C831 C830 1.362 . S
H832 C838 0.930 . S
H833 C841 0.930 . S
H834 C842 0.930 . S
H835 C843 0.930 . S
H836 C846 0.930 . S
H837 C847 0.930 . S
C838 H832 0.930 . S
C838 C839 1.355 . S
C838 C840 1.415 . S
C839 C838 1.355 . S
C839 C841 1.419 . S
C840 C838 1.415 . S
C840 C845 1.425 . S
C840 C847 1.409 . S
C841 H833 0.930 . S
C841 C839 1.419 . S
C841 C842 1.362 . S
C842 H834 0.930 . S
C842 C841 1.362 . S
C842 C845 1.409 . S
C843 H835 0.930 . S
C843 C844 1.355 . S
C843 C845 1.415 . S
C844 C843 1.355 . S
C844 C846 1.419 . S
C845 C840 1.425 . S
C845 C842 1.409 . S
C845 C843 1.415 . S
C846 H836 0.930 . S
C846 C844 1.419 . S
C846 C847 1.362 . S
C847 H837 0.930 . S
C847 C840 1.409 . S
C847 C846 1.362 . S
H848 C854 0.930 . S
H849 C857 0.930 . S
H850 C858 0.930 . S
H851 C859 0.930 . S
H852 C862 0.930 . S
H853 C863 0.930 . S
C854 H848 0.930 . S
C854 C855 1.355 . S
C854 C856 1.415 . S
C855 C854 1.355 . S
C855 C857 1.419 . S
C856 C854 1.415 . S
C856 C861 1.425 . S
C856 C863 1.409 . S
C857 H849 0.930 . S
C857 C855 1.419 . S
C857 C858 1.362 . S
C858 H850 0.930 . S
C858 C857 1.362 . S
C858 C861 1.409 . S
C859 H851 0.930 . S
C859 C860 1.355 . S
C859 C861 1.415 . S
C860 C859 1.355 . S
C860 C862 1.419 . S
C861 C856 1.425 . S
C861 C858 1.409 . S
C861 C859 1.415 . S
C862 H852 0.930 . S
C862 C860 1.419 . S
C862 C863 1.362 . S
C863 H853 0.930 . S
C863 C856 1.409 . S
C863 C862 1.362 . S
H864 C870 0.930 . S
H865 C873 0.930 . S
H866 C874 0.930 . S
H867 C875 0.930 . S
H868 C878 0.930 . S
H869 C879 0.930 . S
C870 H864 0.930 . S
C870 C871 1.355 . S
C870 C872 1.415 . S
C871 C870 1.355 . S
C871 C873 1.419 . S
C872 C870 1.415 . S
C872 C877 1.425 . S
C872 C879 1.409 . S
C873 H865 0.930 . S
C873 C871 1.419 . S
C873 C874 1.362 . S
C874 H866 0.930 . S
C874 C873 1.362 . S
C874 C877 1.409 . S
C875 H867 0.930 . S
C875 C876 1.355 . S
C875 C877 1.415 . S
C876 C875 1.355 . S
C876 C878 1.419 . S
C877 C872 1.425 . S
C877 C874 1.409 . S
C877 C875 1.415 . S
C878 H868 0.930 . S
C878 C876 1.419 . S
C878 C879 1.362 . S
C879 H869 0.930 . S
C879 C872 1.409 . S
C879 C878 1.362 . S
H880 C886 0.930 . S
H881 C889 0.929 1_554 S
H882 C890 0.930 . S
H883 C891 0.930 . S
H884 C894 0.930 . S
H885 C895 0.930 . S
C886 H880 0.930 . S
C886 C887 1.355 . S
C886 C888 1.415 . S
C887 C886 1.355 . S
C887 C889 1.419 . S
C888 C886 1.415 . S
C888 C893 1.425 . S
C888 C895 1.409 . S
C889 H881 0.929 1_556 S
C889 C887 1.419 . S
C889 C890 1.362 . S
C890 H882 0.930 . S
C890 C889 1.362 . S
C890 C893 1.409 . S
C891 H883 0.930 . S
C891 C892 1.355 . S
C891 C893 1.415 . S
C892 C891 1.355 . S
C892 C894 1.419 . S
C893 C888 1.425 . S
C893 C890 1.409 . S
C893 C891 1.415 . S
C894 H884 0.930 . S
C894 C892 1.419 . S
C894 C895 1.362 . S
C895 H885 0.930 . S
C895 C888 1.409 . S
C895 C894 1.362 . S
H896 C902 0.930 . S
H897 C905 0.930 . S
H898 C906 0.930 . S
H899 C907 0.930 . S
H900 C910 0.930 . S
H901 C911 0.930 . S
C902 H896 0.930 . S
C902 C903 1.355 . S
C902 C904 1.415 . S
C903 C902 1.355 . S
C903 C905 1.419 . S
C904 C902 1.415 . S
C904 C909 1.425 . S
C904 C911 1.409 . S
C905 H897 0.930 . S
C905 C903 1.419 . S
C905 C906 1.362 . S
C906 H898 0.930 . S
C906 C905 1.362 . S
C906 C909 1.409 . S
C907 H899 0.930 . S
C907 C908 1.355 . S
C907 C909 1.415 . S
C908 C907 1.355 . S
C908 C910 1.419 . S
C909 C904 1.425 . S
C909 C906 1.409 . S
C909 C907 1.415 . S
C910 H900 0.930 . S
C910 C908 1.419 . S
C910 C911 1.362 . S
C911 H901 0.930 . S
C911 C904 1.409 . S
C911 C910 1.362 . S
H912 C918 0.930 . S
H913 C921 0.930 . S
H914 C922 0.930 . S
H915 C923 0.930 . S
H916 C926 0.930 . S
H917 C927 0.930 . S
C918 H912 0.930 . S
C918 C919 1.355 . S
C918 C920 1.415 . S
C919 C918 1.355 . S
C919 C921 1.419 . S
C920 C918 1.415 . S
C920 C925 1.425 . S
C920 C927 1.409 . S
C921 H913 0.930 . S
C921 C919 1.419 . S
C921 C922 1.362 . S
C922 H914 0.930 . S
C922 C921 1.362 . S
C922 C925 1.409 . S
C923 H915 0.930 . S
C923 C924 1.355 . S
C923 C925 1.415 . S
C924 C923 1.355 . S
C924 C926 1.419 . S
C925 C920 1.425 . S
C925 C922 1.409 . S
C925 C923 1.415 . S
C926 H916 0.930 . S
C926 C924 1.419 . S
C926 C927 1.362 . S
C927 H917 0.930 . S
C927 C920 1.409 . S
C927 C926 1.362 . S
H928 C934 0.930 . S
H929 C937 0.930 . S
H930 C938 0.930 . S
H931 C939 0.930 . S
H932 C942 0.930 . S
H933 C943 0.930 . S
C934 H928 0.930 . S
C934 C935 1.355 1_455 S
C934 C936 1.415 . S
C935 C934 1.355 1_655 S
C935 C937 1.419 1_565 S
C936 C934 1.415 . S
C936 C941 1.425 1_466 S
C936 C943 1.409 1_556 S
C937 H929 0.930 . S
C937 C935 1.419 1_545 S
C937 C938 1.362 . S
C938 H930 0.930 . S
C938 C937 1.362 . S
C938 C941 1.409 1_556 S
C939 H931 0.930 . S
C939 C940 1.355 1_655 S
C939 C941 1.415 . S
C940 C939 1.355 1_455 S
C940 C942 1.419 1_545 S
C941 C936 1.425 1_644 S
C941 C938 1.409 1_554 S
C941 C939 1.415 . S
C942 H932 0.930 . S
C942 C940 1.419 1_565 S
C942 C943 1.362 . S
C943 H933 0.930 . S
C943 C936 1.409 1_554 S
C943 C942 1.362 . S
H944 C950 0.930 . S
H945 C953 0.930 . S
H946 C954 0.930 . S
H947 C955 0.930 . S
H948 C958 0.930 . S
H949 C959 0.930 . S
C950 H944 0.930 . S
C950 C951 1.355 . S
C950 C952 1.415 . S
C951 C950 1.355 . S
C951 C953 1.419 . S
C952 C950 1.415 . S
C952 C957 1.425 . S
C952 C959 1.409 . S
C953 H945 0.930 . S
C953 C951 1.419 . S
C953 C954 1.362 . S
C954 H946 0.930 . S
C954 C953 1.362 . S
C954 C957 1.409 . S
C955 H947 0.930 . S
C955 C956 1.355 . S
C955 C957 1.415 . S
C956 C955 1.355 . S
C956 C958 1.419 . S
C957 C952 1.425 . S
C957 C954 1.409 . S
C957 C955 1.415 . S
C958 H948 0.930 . S
C958 C956 1.419 . S
C958 C959 1.362 . S
C959 H949 0.930 . S
C959 C952 1.409 . S
C959 C958 1.362 . S
H960 C966 0.930 . S
H961 C969 0.930 . S
H962 C970 0.930 . S
H963 C971 0.930 . S
H964 C974 0.930 . S
H965 C975 0.930 . S
C966 H960 0.930 . S
C966 C967 1.369 . S
C966 C968 1.415 . S
C967 C966 1.369 . S
C967 C969 1.400 1_565 S
C968 C966 1.415 . S
C968 C973 1.425 1_565 S
C968 C975 1.409 . S
C969 H961 0.930 . S
C969 C967 1.400 1_545 S
C969 C970 1.362 . S
C970 H962 0.930 . S
C970 C969 1.362 . S
C970 C973 1.409 . S
C971 H963 0.930 . S
C971 C972 1.373 . S
C971 C973 1.415 . S
C972 C971 1.373 . S
C972 C974 1.394 1_545 S
C973 C968 1.425 1_545 S
C973 C970 1.409 . S
C973 C971 1.415 . S
C974 H964 0.930 . S
C974 C972 1.394 1_565 S
C974 C975 1.362 . S
C975 H965 0.930 . S
C975 C968 1.409 . S
C975 C974 1.362 . S
H976 C982 0.930 . S
H977 C985 0.930 . S
H978 C986 0.930 . S
H979 C987 0.930 . S
H980 C990 0.930 . S
H981 C991 0.930 . S
C982 H976 0.930 . S
C982 C983 1.355 . S
C982 C984 1.415 . S
C983 C982 1.355 . S
C983 C985 1.419 . S
C984 C982 1.415 . S
C984 C989 1.425 . S
C984 C991 1.409 . S
C985 H977 0.930 . S
C985 C983 1.419 . S
C985 C986 1.362 . S
C986 H978 0.930 . S
C986 C985 1.362 . S
C986 C989 1.409 . S
C987 H979 0.930 . S
C987 C988 1.355 . S
C987 C989 1.415 . S
C988 C987 1.355 . S
C988 C990 1.419 . S
C989 C984 1.425 . S
C989 C986 1.409 . S
C989 C987 1.415 . S
C990 H980 0.930 . S
C990 C988 1.419 . S
C990 C991 1.362 . S
C991 H981 0.930 . S
C991 C984 1.409 . S
C991 C990 1.362 . S
H992 C998 0.930 . S
H993 C1001 0.930 . S
H994 C1002 0.930 . S
H995 C1003 0.930 . S
H996 C1006 0.930 . S
H997 C1007 0.930 . S
C998 H992 0.930 . S
C998 C999 1.355 . S
C998 C1000 1.415 . S
C999 C998 1.355 . S
C999 C1001 1.419 . S
C1000 C998 1.415 . S
C1000 C1005 1.425 . S
C1000 C1007 1.409 . S
C1001 H993 0.930 . S
C1001 C999 1.419 . S
C1001 C1002 1.362 . S
C1002 H994 0.930 . S
C1002 C1001 1.362 . S
C1002 C1005 1.409 . S
C1003 H995 0.930 . S
C1003 C1004 1.355 . S
C1003 C1005 1.415 . S
C1004 C1003 1.355 . S
C1004 C1006 1.419 . S
C1005 C1000 1.425 . S
C1005 C1002 1.409 . S
C1005 C1003 1.415 . S
C1006 H996 0.930 . S
C1006 C1004 1.419 . S
C1006 C1007 1.362 . S
C1007 H997 0.930 . S
C1007 C1000 1.409 . S
C1007 C1006 1.362 . S
H1008 C1014 0.930 . S
H1009 C1017 0.930 . S
H1010 C1018 0.930 . S
H1011 C1019 0.930 . S
H1012 C1022 0.930 . S
H1013 C1023 0.930 . S
C1014 H1008 0.930 . S
C1014 C1015 1.355 . S
C1014 C1016 1.415 . S
C1015 C1014 1.355 . S
C1015 C1017 1.419 . S
C1016 C1014 1.415 . S
C1016 C1021 1.425 . S
C1016 C1023 1.409 . S
C1017 H1009 0.930 . S
C1017 C1015 1.419 . S
C1017 C1018 1.362 . S
C1018 H1010 0.930 . S
C1018 C1017 1.362 . S
C1018 C1021 1.409 . S
C1019 H1011 0.930 . S
C1019 C1020 1.355 . S
C1019 C1021 1.415 . S
C1020 C1019 1.355 . S
C1020 C1022 1.419 . S
C1021 C1016 1.425 . S
C1021 C1018 1.409 . S
C1021 C1019 1.415 . S
C1022 H1012 0.930 . S
C1022 C1020 1.419 . S
C1022 C1023 1.362 . S
C1023 H1013 0.930 . S
C1023 C1016 1.409 . S
C1023 C1022 1.362 . S
H1024 C1030 0.930 . S
H1025 C1033 0.930 . S
H1026 C1034 0.930 . S
H1027 C1035 0.930 . S
H1028 C1038 0.930 . S
H1029 C1039 0.930 . S
C1030 H1024 0.930 . S
C1030 C1031 1.355 . S
C1030 C1032 1.415 . S
C1031 C1030 1.355 . S
C1031 C1033 1.419 . S
C1032 C1030 1.415 . S
C1032 C1037 1.425 . S
C1032 C1039 1.409 . S
C1033 H1025 0.930 . S
C1033 C1031 1.419 . S
C1033 C1034 1.362 . S
C1034 H1026 0.930 . S
C1034 C1033 1.362 . S
C1034 C1037 1.409 . S
C1035 H1027 0.930 . S
C1035 C1036 1.355 . S
C1035 C1037 1.415 . S
C1036 C1035 1.355 . S
C1036 C1038 1.419 . S
C1037 C1032 1.425 . S
C1037 C1034 1.409 . S
C1037 C1035 1.415 . S
C1038 H1028 0.930 . S
C1038 C1036 1.419 . S
C1038 C1039 1.362 . S
C1039 H1029 0.930 . S
C1039 C1032 1.409 . S
C1039 C1038 1.362 . S
H1040 C1046 0.930 . S
H1041 C1049 0.930 . S
H1042 C1050 0.930 . S
H1043 C1051 0.930 . S
H1044 C1054 0.930 . S
H1045 C1055 0.930 . S
C1046 H1040 0.930 . S
C1046 C1047 1.355 1_455 S
C1046 C1048 1.415 . S
C1047 C1046 1.355 1_655 S
C1047 C1049 1.419 . S
C1048 C1046 1.415 . S
C1048 C1053 1.425 1_456 S
C1048 C1055 1.409 1_556 S
C1049 H1041 0.930 . S
C1049 C1047 1.419 . S
C1049 C1050 1.362 . S
C1050 H1042 0.930 . S
C1050 C1049 1.362 . S
C1050 C1053 1.409 1_556 S
C1051 H1043 0.930 . S
C1051 C1052 1.355 1_655 S
C1051 C1053 1.415 . S
C1052 C1051 1.355 1_455 S
C1052 C1054 1.419 . S
C1053 C1048 1.425 1_654 S
C1053 C1050 1.409 1_554 S
C1053 C1051 1.415 . S
C1054 H1044 0.930 . S
C1054 C1052 1.419 . S
C1054 C1055 1.362 . S
C1055 H1045 0.930 . S
C1055 C1048 1.409 1_554 S
C1055 C1054 1.362 . S
C679 C56 1.476 . S
C684 C308 1.485 . S
C695 C63 1.478 . S
C700 C140 1.495 . S
C711 C147 1.501 . S
C716 C224 1.486 . S
C727 C231 1.495 . S
C732 C315 1.496 . S
C743 C67 1.495 . S
C748 C487 1.503 . S
C759 C74 1.503 . S
C764 C403 1.500 . S
C775 C410 1.505 . S
C780 C235 1.480 . S
C791 C494 1.518 . S
C796 C242 1.518 . S
C807 C560 1.474 . S
C812 C476 1.507 . S
C823 C392 1.475 . S
C828 C567 1.490 . S
C839 C644 1.505 . S
C844 C399 1.517 . S
C855 C483 1.497 . S
C860 C651 1.495 . S
C871 C319 1.496 . S
C876 C571 1.471 . S
C887 C578 1.485 . S
C892 C151 1.509 . S
C903 C158 1.504 . S
C908 C655 1.481 . S
C919 C326 1.488 . S
C924 C662 1.488 . S
C935 C58 1.255 1_565 S
C940 C69 1.255 1_545 S
C951 C153 1.241 . S
C956 C142 1.241 . S
C967 C237 1.254 1_565 S
C972 C226 1.253 1_545 S
C983 C310 1.240 . S
C988 C321 1.240 . S
C999 C405 1.360 . S
C1004 C394 1.360 . S
C1015 C478 1.256 . S
C1020 C489 1.256 . S
C1031 C573 1.365 . S
C1036 C562 1.365 . S
C1047 C646 1.362 1_655 S
C1052 C657 1.362 1_455 S
