# Generated by pormake.
# Topology crr, (4)-cn, num edge types: 1
# Building blocks:
#     Node 0, Type 0, BuildingBlock: MUDLON_clean_sbu_0, # of connection points: 4
#     Node 1, Type 0, BuildingBlock: MUDLON_clean_sbu_0, # of connection points: 4
#     Node 2, Type 0, BuildingBlock: MUDLON_clean_sbu_0, # of connection points: 4
#     Node 3, Type 0, BuildingBlock: MUDLON_clean_sbu_0, # of connection points: 4
#     Node 4, Type 0, BuildingBlock: MUDLON_clean_sbu_0, # of connection points: 4
#     Node 5, Type 0, BuildingBlock: MUDLON_clean_sbu_0, # of connection points: 4
#     Node 6, Type 0, BuildingBlock: MUDLON_clean_sbu_0, # of connection points: 4
#     Node 7, Type 0, BuildingBlock: MUDLON_clean_sbu_0, # of connection points: 4
#     Node 8, Type 0, BuildingBlock: MUDLON_clean_sbu_0, # of connection points: 4
#     Node 9, Type 0, BuildingBlock: MUDLON_clean_sbu_0, # of connection points: 4
#     Node 10, Type 0, BuildingBlock: MUDLON_clean_sbu_0, # of connection points: 4
#     Node 11, Type 0, BuildingBlock: MUDLON_clean_sbu_0, # of connection points: 4
#     Edge 12, Type (0, 0), BuildingBlock: KIFKEQ_clean_linker_1, # of connection points: 2
#     Edge 13, Type (0, 0), BuildingBlock: KIFKEQ_clean_linker_1, # of connection points: 2
#     Edge 14, Type (0, 0), BuildingBlock: KIFKEQ_clean_linker_1, # of connection points: 2
#     Edge 15, Type (0, 0), BuildingBlock: KIFKEQ_clean_linker_1, # of connection points: 2
#     Edge 16, Type (0, 0), BuildingBlock: KIFKEQ_clean_linker_1, # of connection points: 2
#     Edge 17, Type (0, 0), BuildingBlock: KIFKEQ_clean_linker_1, # of connection points: 2
#     Edge 18, Type (0, 0), BuildingBlock: KIFKEQ_clean_linker_1, # of connection points: 2
#     Edge 19, Type (0, 0), BuildingBlock: KIFKEQ_clean_linker_1, # of connection points: 2
#     Edge 20, Type (0, 0), BuildingBlock: KIFKEQ_clean_linker_1, # of connection points: 2
#     Edge 21, Type (0, 0), BuildingBlock: KIFKEQ_clean_linker_1, # of connection points: 2
#     Edge 22, Type (0, 0), BuildingBlock: KIFKEQ_clean_linker_1, # of connection points: 2
#     Edge 23, Type (0, 0), BuildingBlock: KIFKEQ_clean_linker_1, # of connection points: 2
#     Edge 24, Type (0, 0), BuildingBlock: KIFKEQ_clean_linker_1, # of connection points: 2
#     Edge 25, Type (0, 0), BuildingBlock: KIFKEQ_clean_linker_1, # of connection points: 2
#     Edge 26, Type (0, 0), BuildingBlock: KIFKEQ_clean_linker_1, # of connection points: 2
#     Edge 27, Type (0, 0), BuildingBlock: KIFKEQ_clean_linker_1, # of connection points: 2
#     Edge 28, Type (0, 0), BuildingBlock: KIFKEQ_clean_linker_1, # of connection points: 2
#     Edge 29, Type (0, 0), BuildingBlock: KIFKEQ_clean_linker_1, # of connection points: 2
#     Edge 30, Type (0, 0), BuildingBlock: KIFKEQ_clean_linker_1, # of connection points: 2
#     Edge 31, Type (0, 0), BuildingBlock: KIFKEQ_clean_linker_1, # of connection points: 2
#     Edge 32, Type (0, 0), BuildingBlock: KIFKEQ_clean_linker_1, # of connection points: 2
#     Edge 33, Type (0, 0), BuildingBlock: KIFKEQ_clean_linker_1, # of connection points: 2
#     Edge 34, Type (0, 0), BuildingBlock: KIFKEQ_clean_linker_1, # of connection points: 2
#     Edge 35, Type (0, 0), BuildingBlock: KIFKEQ_clean_linker_1, # of connection points: 2
# Relax obj value: 0.157
# Max RMSD: 0.158
# Mean RMSD: 0.145
data_MOF--net-crr--node1-MUDLON_clean_sbu_0--edge1-KIFKEQ_clean_linker_1
_symmetry_space_group_name_H-M    P1
_symmetry_Int_Tables_number       1
_symmetry_cell_setting            triclinic
loop_
_symmetry_equiv_pos_as_xyz
'x, y, z'
_cell_length_a     39.882119
_cell_length_b     40.157256
_cell_length_c     40.097741
_cell_angle_alpha  89.684151
_cell_angle_beta   90.250772
_cell_angle_gamma 89.990358
loop_
_atom_site_label
_atom_site_type_symbol
_atom_site_fract_x
_atom_site_fract_y
_atom_site_fract_z
_atom_type_partial_charge
Mg0 Mg 0.0257 0.31578 0.30805 0.0
C1 C 0.03017 0.24081 0.31552 0.0
O2 O 0.02077 0.24744 0.34612 0.0
C3 C 0.98567 0.37086 0.27524 0.0
O4 O 0.01426 0.37519 0.25969 0.0
C5 C 0.077 0.32423 0.25626 0.0
O6 O 0.05538 0.30358 0.24275 0.0
O7 O 0.07079 0.33588 0.28506 0.0
O8 O 0.02822 0.2637 0.29355 0.0
O9 O 0.02721 0.31794 0.36217 0.0
C10 C 0.99898 0.31579 0.37671 0.0
O11 O 0.97174 0.31297 0.35839 0.0
O12 O 0.98221 0.34549 0.29402 0.0
Mg13 Mg 0.37189 0.90189 0.67841 0.0
C14 C 0.34727 0.92173 0.74814 0.0
O15 O 0.37216 0.9431 0.74699 0.0
C16 C 0.33351 0.9594 0.64493 0.0
O17 O 0.31141 0.95356 0.66846 0.0
C18 C 0.33673 0.85271 0.63453 0.0
O19 O 0.32009 0.8801 0.62741 0.0
O20 O 0.36123 0.85428 0.65486 0.0
O21 O 0.34147 0.90333 0.72306 0.0
O22 O 0.42453 0.90634 0.69176 0.0
C23 C 0.43611 0.93565 0.69499 0.0
O24 O 0.41585 0.96106 0.69029 0.0
O25 O 0.36001 0.94188 0.64376 0.0
Mg26 Mg 0.90737 0.66671 0.31767 0.0
C27 C 0.8687 0.72727 0.33906 0.0
O28 O 0.89923 0.73662 0.34714 0.0
C29 C 0.89894 0.59263 0.33261 0.0
O30 O 0.90943 0.60175 0.36229 0.0
C31 C 0.91599 0.70808 0.25434 0.0
O32 O 0.90699 0.7327 0.27374 0.0
O33 O 0.92351 0.68017 0.26757 0.0
O34 O 0.86416 0.69803 0.32787 0.0
O35 O 0.94347 0.66731 0.3588 0.0
C36 C 0.96744 0.68737 0.3646 0.0
O37 O 0.97338 0.71184 0.34357 0.0
O38 O 0.8936 0.61485 0.31052 0.0
Mg39 Mg 0.70979 0.05913 0.6623 0.0
C40 C 0.70991 0.01767 0.59984 0.0
O41 O 0.73561 0.00395 0.61527 0.0
C42 C 0.66037 0.11489 0.67298 0.0
O43 O 0.63916 0.09052 0.66723 0.0
C44 C 0.6761 0.99737 0.69054 0.0
O45 O 0.69375 0.98273 0.66729 0.0
O46 O 0.68126 0.02802 0.69645 0.0
O47 O 0.69577 0.04284 0.61273 0.0
O48 O 0.76376 0.06098 0.66921 0.0
C49 C 0.77784 0.05866 0.69763 0.0
O50 O 0.75954 0.05115 0.72377 0.0
O51 O 0.69163 0.10914 0.671 0.0
Mg52 Mg 0.15118 0.6137 0.62324 0.0
C53 C 0.13469 0.53885 0.62029 0.0
O54 O 0.12723 0.54548 0.58901 0.0
C55 C 0.20809 0.64722 0.58548 0.0
O56 O 0.18478 0.65092 0.56253 0.0
C57 C 0.10709 0.65438 0.57416 0.0
O58 O 0.1186 0.67995 0.59101 0.0
O59 O 0.11588 0.62511 0.58285 0.0
O60 O 0.14656 0.56183 0.63853 0.0
O61 O 0.1436 0.64018 0.66973 0.0
C62 C 0.1595 0.66717 0.67472 0.0
O63 O 0.17369 0.68214 0.64922 0.0
O64 O 0.20195 0.62898 0.61075 0.0
Mg65 Mg 0.59824 0.87924 0.33772 0.0
C66 C 0.67325 0.88565 0.33577 0.0
O67 O 0.66756 0.90179 0.36357 0.0
C68 C 0.54038 0.9148 0.30263 0.0
O69 O 0.53503 0.88494 0.29049 0.0
C70 C 0.59967 0.80749 0.32392 0.0
O71 O 0.62736 0.81182 0.34125 0.0
O72 O 0.57899 0.83152 0.32182 0.0
O73 O 0.64851 0.87821 0.31714 0.0
O74 O 0.6061 0.88387 0.39101 0.0
C75 C 0.59203 0.90705 0.40725 0.0
O76 O 0.56831 0.92468 0.39273 0.0
O77 O 0.56599 0.91968 0.32097 0.0
Mg78 Mg 0.96668 0.28618 0.69647 0.0
C79 C 0.00735 0.34617 0.71046 0.0
O80 O 0.97665 0.35712 0.71487 0.0
C81 C 0.95945 0.21862 0.72907 0.0
O82 O 0.95531 0.23741 0.75542 0.0
C83 C 0.98402 0.28523 0.62628 0.0
O84 O 0.00943 0.27093 0.64166 0.0
O85 O 0.95916 0.29475 0.64357 0.0
O86 O 0.01182 0.31522 0.70555 0.0
O87 O 0.92399 0.30204 0.72624 0.0
C88 C 0.92733 0.3085 0.75712 0.0
O89 O 0.95754 0.30858 0.77033 0.0
O90 O 0.96891 0.23224 0.70198 0.0
Mg91 Mg 0.30937 0.1214 0.37285 0.0
C92 C 0.36003 0.17122 0.34586 0.0
O93 O 0.37799 0.14406 0.34235 0.0
C94 C 0.28943 0.09577 0.43991 0.0
O95 O 0.26424 0.08538 0.42148 0.0
C96 C 0.24487 0.12283 0.32938 0.0
O97 O 0.26558 0.12215 0.30401 0.0
O98 O 0.25659 0.12153 0.3589 0.0
O99 O 0.33102 0.16916 0.35875 0.0
O100 O 0.33931 0.08082 0.35323 0.0
C101 C 0.34828 0.07533 0.32337 0.0
O102 O 0.33692 0.09446 0.29916 0.0
O103 O 0.31207 0.11351 0.42639 0.0
Mg104 Mg 0.36577 0.40419 0.14547 0.0
C105 C 0.39781 0.38861 0.07943 0.0
O106 O 0.3798 0.41473 0.07092 0.0
C107 C 0.30393 0.36303 0.15477 0.0
O108 O 0.32692 0.341 0.16305 0.0
C109 C 0.34344 0.47556 0.13821 0.0
O110 O 0.31538 0.46199 0.14863 0.0
O111 O 0.36959 0.45752 0.13628 0.0
O112 O 0.3961 0.37774 0.10919 0.0
O113 O 0.37914 0.38783 0.19535 0.0
C114 C 0.40313 0.36765 0.20069 0.0
O115 O 0.42417 0.36123 0.17644 0.0
O116 O 0.31312 0.39113 0.14333 0.0
Mg117 Mg 0.33233 0.72256 0.94005 0.0
C118 C 0.2756 0.69766 0.89566 0.0
O119 O 0.26054 0.69447 0.92458 0.0
C120 C 0.4049 0.74434 0.93468 0.0
O121 O 0.39078 0.77366 0.93811 0.0
C122 C 0.2934 0.78741 0.93658 0.0
O123 O 0.26798 0.76719 0.93178 0.0
O124 O 0.32145 0.77516 0.94546 0.0
O125 O 0.30601 0.70722 0.895 0.0
O126 O 0.32012 0.69081 0.98233 0.0
C127 C 0.3418 0.68812 0.00556 0.0
O128 O 0.36868 0.70701 0.00447 0.0
O129 O 0.38639 0.71856 0.93331 0.0
Mg130 Mg 0.68534 0.68375 0.05634 0.0
C131 C 0.64384 0.70228 0.99514 0.0
O132 O 0.65772 0.67505 0.9837 0.0
C133 C 0.76088 0.684 0.06783 0.0
O134 O 0.7574 0.65259 0.05959 0.0
C135 C 0.70091 0.62238 0.0136 0.0
O136 O 0.72085 0.64288 0.99748 0.0
O137 O 0.68494 0.63273 0.03889 0.0
O138 O 0.65328 0.7134 0.02332 0.0
O139 O 0.6613 0.68432 0.10491 0.0
C140 C 0.63309 0.69843 0.10903 0.0
O141 O 0.61746 0.71126 0.08309 0.0
O142 O 0.7355 0.70317 0.06622 0.0
Mg143 Mg 0.64134 0.33402 0.88554 0.0
C144 C 0.71704 0.33299 0.89217 0.0
O145 O 0.71149 0.36346 0.90245 0.0
C146 C 0.57463 0.32521 0.91485 0.0
O147 O 0.56863 0.33765 0.88503 0.0
C148 C 0.61182 0.28975 0.83517 0.0
O149 O 0.60611 0.27394 0.86335 0.0
O150 O 0.62475 0.31868 0.83631 0.0
O151 O 0.69214 0.31374 0.88733 0.0
O152 O 0.64525 0.38727 0.89369 0.0
C153 C 0.64712 0.394 0.92462 0.0
O154 O 0.64562 0.36933 0.94623 0.0
O155 O 0.60475 0.318 0.92268 0.0
H156 H 0.07561 0.23318 0.26525 0.0
H157 H 0.03746 0.1846 0.35364 0.0
H158 H 0.12363 0.19626 0.26561 0.0
H159 H 0.08483 0.14624 0.35307 0.0
H160 H 0.19753 0.13432 0.37682 0.0
H161 H 0.14074 0.15394 0.36869 0.0
H162 H 0.15235 0.14546 0.26189 0.0
H163 H 0.21016 0.12707 0.27016 0.0
C164 C 0.07675 0.21372 0.28405 0.0
C165 C 0.05301 0.21229 0.30986 0.0
C166 C 0.10442 0.19234 0.28421 0.0
C167 C 0.10875 0.16867 0.30989 0.0
C168 C 0.08298 0.16487 0.33353 0.0
C169 C 0.05557 0.18663 0.33368 0.0
C170 C 0.18792 0.13616 0.35157 0.0
C171 C 0.20865 0.12961 0.32413 0.0
C172 C 0.15502 0.14716 0.34686 0.0
C173 C 0.14173 0.15158 0.31456 0.0
C174 C 0.16185 0.14299 0.28712 0.0
C175 C 0.19498 0.13227 0.29185 0.0
H176 H 0.28444 0.84163 0.59202 0.0
H177 H 0.3617 0.79026 0.64798 0.0
H178 H 0.26041 0.78861 0.57581 0.0
H179 H 0.338 0.73683 0.63095 0.0
H180 H 0.25163 0.65792 0.6373 0.0
H181 H 0.28846 0.70549 0.64467 0.0
H182 H 0.26597 0.73847 0.54428 0.0
H183 H 0.22818 0.69128 0.53724 0.0
C184 C 0.29669 0.81899 0.60041 0.0
C185 C 0.32481 0.82024 0.6216 0.0
C186 C 0.28304 0.78846 0.59083 0.0
C187 C 0.2972 0.75832 0.60208 0.0
C188 C 0.32621 0.75955 0.62216 0.0
C189 C 0.33988 0.79018 0.63179 0.0
C190 C 0.25514 0.67481 0.61645 0.0
C191 C 0.23652 0.67101 0.58683 0.0
C192 C 0.27642 0.70214 0.62067 0.0
C193 C 0.27979 0.7262 0.59527 0.0
C194 C 0.26334 0.72084 0.56465 0.0
C195 C 0.24188 0.69361 0.5605 0.0
H196 H 0.69047 0.84132 0.28698 0.0
H197 H 0.72899 0.88933 0.37542 0.0
H198 H 0.73913 0.80464 0.28646 0.0
H199 H 0.77706 0.8521 0.37542 0.0
H200 H 0.87214 0.79371 0.35312 0.0
H201 H 0.82764 0.83502 0.3485 0.0
H202 H 0.75794 0.75792 0.31954 0.0
H203 H 0.80269 0.71674 0.32326 0.0
C204 C 0.70958 0.84448 0.30598 0.0
C205 C 0.70568 0.86818 0.33137 0.0
C206 C 0.73729 0.82313 0.30593 0.0
C207 C 0.76175 0.82498 0.33125 0.0
C208 C 0.75883 0.85002 0.35545 0.0
C209 C 0.73117 0.8714 0.35547 0.0
C210 C 0.84729 0.78551 0.34591 0.0
C211 C 0.84098 0.75187 0.33863 0.0
C212 C 0.82174 0.80924 0.34329 0.0
C213 C 0.78921 0.7999 0.33343 0.0
C214 C 0.78284 0.76615 0.32654 0.0
C215 C 0.80842 0.74244 0.32904 0.0
H216 H 0.92088 0.18916 0.77686 0.0
H217 H 0.96246 0.17228 0.6791 0.0
H218 H 0.8838 0.14205 0.76974 0.0
H219 H 0.92632 0.12376 0.67251 0.0
H220 H 0.81759 0.08865 0.65105 0.0
H221 H 0.86915 0.11892 0.66066 0.0
H222 H 0.8697 0.08596 0.76353 0.0
H223 H 0.81687 0.05681 0.75412 0.0
C224 C 0.92297 0.17467 0.75425 0.0
C225 C 0.94414 0.18499 0.72824 0.0
C226 C 0.9017 0.14734 0.7502 0.0
C227 C 0.90139 0.12931 0.72019 0.0
C228 C 0.92509 0.13762 0.69556 0.0
C229 C 0.94608 0.16528 0.69944 0.0
C230 C 0.82897 0.08729 0.6756 0.0
C231 C 0.8127 0.07083 0.70198 0.0
C232 C 0.85888 0.10452 0.68111 0.0
C233 C 0.87359 0.10542 0.71307 0.0
C234 C 0.85873 0.08657 0.73879 0.0
C235 C 0.82851 0.06964 0.73336 0.0
H236 H 0.35026 0.35688 0.24221 0.0
H237 H 0.45295 0.32751 0.2254 0.0
H238 H 0.3439 0.31218 0.28237 0.0
H239 H 0.44733 0.28365 0.26733 0.0
H240 H 0.40808 0.18038 0.29865 0.0
H241 H 0.42236 0.23159 0.26968 0.0
H242 H 0.35405 0.28599 0.33283 0.0
H243 H 0.33837 0.23408 0.36044 0.0
C244 C 0.3719 0.34154 0.24795 0.0
C245 C 0.40202 0.34551 0.23031 0.0
C246 C 0.36831 0.31582 0.27123 0.0
C247 C 0.39494 0.29374 0.27796 0.0
C248 C 0.42593 0.29947 0.26218 0.0
C249 C 0.42932 0.32486 0.23838 0.0
C250 C 0.3964 0.20335 0.30661 0.0
C251 C 0.3718 0.20314 0.33154 0.0
C252 C 0.4048 0.23292 0.29014 0.0
C253 C 0.38924 0.26319 0.29861 0.0
C254 C 0.366 0.26316 0.32497 0.0
C255 C 0.35713 0.23342 0.341 0.0
H256 H 0.29857 0.7045 0.83182 0.0
H257 H 0.20919 0.68184 0.88808 0.0
H258 H 0.26673 0.70007 0.78012 0.0
H259 H 0.17713 0.67807 0.83625 0.0
H260 H 0.198 0.71999 0.69406 0.0
H261 H 0.2237 0.72887 0.74848 0.0
H262 H 0.17114 0.64312 0.78744 0.0
H263 H 0.14483 0.63464 0.73319 0.0
C264 C 0.27211 0.69858 0.83319 0.0
C265 C 0.25649 0.69345 0.86414 0.0
C266 C 0.25374 0.69639 0.80352 0.0
C267 C 0.21925 0.68905 0.804 0.0
C268 C 0.20368 0.68357 0.83495 0.0
C269 C 0.22208 0.68577 0.86467 0.0
C270 C 0.19134 0.70342 0.71438 0.0
C271 C 0.16956 0.67642 0.70912 0.0
C272 C 0.20638 0.70831 0.74553 0.0
C273 C 0.20003 0.68631 0.77218 0.0
C274 C 0.17657 0.66059 0.76751 0.0
C275 C 0.16147 0.65571 0.73634 0.0
H276 H 0.585 0.74272 0.12758 0.0
H277 H 0.65295 0.66868 0.16748 0.0
H278 H 0.57132 0.76025 0.18358 0.0
H279 H 0.63792 0.68499 0.22397 0.0
H280 H 0.64919 0.76412 0.30706 0.0
H281 H 0.65142 0.72994 0.25771 0.0
H282 H 0.54764 0.7533 0.23619 0.0
H283 H 0.54609 0.78922 0.28501 0.0
C284 C 0.59634 0.72952 0.1484 0.0
C285 C 0.62053 0.70473 0.14309 0.0
C286 C 0.58825 0.7394 0.18071 0.0
C287 C 0.60377 0.72436 0.20858 0.0
C288 C 0.62607 0.69775 0.20319 0.0
C289 C 0.63458 0.68824 0.1708 0.0
C290 C 0.62654 0.76138 0.29232 0.0
C291 C 0.59766 0.77996 0.2996 0.0
C292 C 0.62775 0.7415 0.26391 0.0
C293 C 0.5999 0.73927 0.24235 0.0
C294 C 0.5699 0.7552 0.25161 0.0
C295 C 0.56887 0.77555 0.2798 0.0
H296 H 0.77549 0.36744 0.89998 0.0
H297 H 0.73413 0.27994 0.85293 0.0
H298 H 0.8273 0.36024 0.86892 0.0
H299 H 0.78626 0.27252 0.82215 0.0
H300 H 0.86136 0.30101 0.7396 0.0
H301 H 0.81249 0.3035 0.77579 0.0
H302 H 0.8767 0.32502 0.85997 0.0
H303 H 0.92564 0.32293 0.8237 0.0
C304 C 0.7777 0.34623 0.88356 0.0
C305 C 0.75052 0.32444 0.87874 0.0
C306 C 0.80747 0.34208 0.86578 0.0
C307 C 0.81071 0.31611 0.84267 0.0
C308 C 0.78427 0.29317 0.8393 0.0
C309 C 0.75454 0.29721 0.85723 0.0
C310 C 0.86509 0.30645 0.76578 0.0
C311 C 0.89744 0.31189 0.7787 0.0
C312 C 0.83708 0.3075 0.78661 0.0
C313 C 0.84072 0.31415 0.82084 0.0
C314 C 0.87303 0.31998 0.8337 0.0
C315 C 0.90107 0.31876 0.81289 0.0
H316 H 0.2947 0.87963 0.75845 0.0
H317 H 0.36056 0.94777 0.80995 0.0
H318 H 0.27439 0.85883 0.81138 0.0
H319 H 0.33939 0.92749 0.86338 0.0
H320 H 0.34492 0.83218 0.93272 0.0
H321 H 0.35037 0.87598 0.89139 0.0
H322 H 0.24636 0.86334 0.86354 0.0
H323 H 0.24123 0.81841 0.90427 0.0
C324 C 0.30421 0.89084 0.78111 0.0
C325 C 0.32985 0.91478 0.77997 0.0
C326 C 0.29224 0.87914 0.81163 0.0
C327 C 0.30553 0.89116 0.84181 0.0
C328 C 0.32904 0.91727 0.84062 0.0
C329 C 0.34109 0.92898 0.80998 0.0
C330 C 0.32287 0.83936 0.91855 0.0
C331 C 0.29298 0.82094 0.92096 0.0
C332 C 0.32594 0.86477 0.89486 0.0
C333 C 0.29907 0.87254 0.87335 0.0
C334 C 0.26785 0.85725 0.87902 0.0
C335 C 0.26484 0.83162 0.90257 0.0
H336 H 0.8229 0.65517 0.06603 0.0
H337 H 0.76848 0.73676 0.10989 0.0
H338 H 0.87022 0.66614 0.10303 0.0
H339 H 0.81468 0.74664 0.14806 0.0
H340 H 0.89817 0.76257 0.2168 0.0
H341 H 0.86874 0.76218 0.1634 0.0
H342 H 0.88063 0.65525 0.15885 0.0
H343 H 0.91136 0.656 0.21092 0.0
C344 C 0.82125 0.67576 0.08329 0.0
C345 C 0.79179 0.69481 0.08533 0.0
C346 C 0.84829 0.68192 0.10474 0.0
C347 C 0.84624 0.70685 0.12923 0.0
C348 C 0.8176 0.72742 0.12949 0.0
C349 C 0.79084 0.72163 0.10763 0.0
C350 C 0.89541 0.73914 0.2038 0.0
C351 C 0.90661 0.70926 0.21848 0.0
C352 C 0.87817 0.73884 0.1733 0.0
C353 C 0.87133 0.70859 0.15701 0.0
C354 C 0.88535 0.67915 0.1703 0.0
C355 C 0.90299 0.67953 0.20048 0.0
H356 H 0.59578 0.13313 0.6868 0.0
H357 H 0.69789 0.16896 0.69082 0.0
H358 H 0.57743 0.18157 0.71834 0.0
H359 H 0.67967 0.21686 0.7228 0.0
H360 H 0.64075 0.30539 0.77511 0.0
H361 H 0.64731 0.26829 0.72743 0.0
H362 H 0.58583 0.19458 0.77681 0.0
H363 H 0.57889 0.23165 0.82388 0.0
C364 C 0.61423 0.1516 0.69388 0.0
C365 C 0.64839 0.14688 0.68678 0.0
C366 C 0.60371 0.1793 0.71205 0.0
C367 C 0.62712 0.20289 0.72345 0.0
C368 C 0.6609 0.19937 0.71421 0.0
C369 C 0.67141 0.17169 0.69607 0.0
C370 C 0.62785 0.28166 0.7753 0.0
C371 C 0.60969 0.27123 0.80345 0.0
C372 C 0.63181 0.26031 0.7481 0.0
C373 C 0.61747 0.2283 0.74848 0.0
C374 C 0.59705 0.21911 0.7755 0.0
C375 C 0.59325 0.24032 0.80266 0.0
H376 H 0.25424 0.40952 0.16085 0.0
H377 H 0.27401 0.30417 0.17143 0.0
H378 H 0.19814 0.40127 0.18379 0.0
H379 H 0.21781 0.296 0.19401 0.0
H380 H 0.10315 0.29162 0.2031 0.0
H381 H 0.15654 0.30162 0.17548 0.0
H382 H 0.17642 0.38343 0.24208 0.0
H383 H 0.12285 0.37331 0.27012 0.0
C384 C 0.24644 0.38453 0.16752 0.0
C385 C 0.26857 0.35746 0.16433 0.0
C386 C 0.21444 0.37991 0.18093 0.0
C387 C 0.20376 0.34806 0.19085 0.0
C388 C 0.22537 0.32081 0.18642 0.0
C389 C 0.25753 0.32549 0.17352 0.0
C390 C 0.11874 0.31191 0.21179 0.0
C391 C 0.10879 0.33167 0.23886 0.0
C392 C 0.14938 0.31749 0.19602 0.0
C393 C 0.17057 0.34324 0.20666 0.0
C394 C 0.16038 0.36355 0.23323 0.0
C395 C 0.12986 0.35765 0.24937 0.0
H396 H 0.9395 0.31971 0.58666 0.0
H397 H 0.03191 0.26365 0.58338 0.0
H398 H 0.94337 0.32993 0.52665 0.0
H399 H 0.03531 0.27307 0.52363 0.0
H400 H 0.04981 0.32118 0.42261 0.0
H401 H 0.04576 0.31609 0.48312 0.0
H402 H 0.93883 0.30082 0.47438 0.0
H403 H 0.94273 0.30682 0.41415 0.0
C404 C 0.9605 0.30941 0.57313 0.0
C405 C 0.98538 0.29088 0.5898 0.0
C406 C 0.96269 0.31518 0.53873 0.0
C407 C 0.98975 0.30246 0.52031 0.0
C408 C 0.01448 0.2838 0.53708 0.0
C409 C 0.01235 0.27815 0.57136 0.0
C410 C 0.02543 0.31697 0.43364 0.0
C411 C 0.99664 0.31426 0.41353 0.0
C412 C 0.02311 0.31385 0.46831 0.0
C413 C 0.99197 0.30784 0.48364 0.0
C414 C 0.96313 0.30583 0.46351 0.0
C415 C 0.96543 0.30905 0.42889 0.0
H416 H 0.24571 0.05744 0.47554 0.0
H417 H 0.34299 0.10443 0.48204 0.0
H418 H 0.25601 0.02921 0.52845 0.0
H419 H 0.35305 0.07651 0.53538 0.0
H420 H 0.37598 0.98008 0.59587 0.0
H421 H 0.36415 0.01831 0.55011 0.0
H422 H 0.26464 0.03482 0.5888 0.0
H423 H 0.27632 0.99602 0.63458 0.0
C424 C 0.26906 0.06224 0.48855 0.0
C425 C 0.2937 0.08287 0.47434 0.0
C426 C 0.27487 0.04619 0.51902 0.0
C427 C 0.30548 0.05036 0.53598 0.0
C428 C 0.32941 0.07239 0.52265 0.0
C429 C 0.32356 0.08853 0.49218 0.0
C430 C 0.35164 0.99203 0.59484 0.0
C431 C 0.32698 0.98475 0.61874 0.0
C432 C 0.34497 0.01421 0.56872 0.0
C433 C 0.31344 0.02961 0.56578 0.0
C434 C 0.28907 0.0231 0.59022 0.0
C435 C 0.29581 0.00097 0.6165 0.0
H436 H 0.0813 0.60708 0.5324 0.0
H437 H 0.08505 0.71348 0.54734 0.0
H438 H 0.0483 0.61553 0.48185 0.0
H439 H 0.05135 0.72191 0.49702 0.0
H440 H 0.02079 0.72512 0.38598 0.0
H441 H 0.0543 0.71746 0.43663 0.0
H442 H 0.99338 0.63271 0.46385 0.0
H443 H 0.9605 0.63988 0.41314 0.0
C444 C 0.07488 0.63229 0.52506 0.0
C445 C 0.08584 0.65959 0.54403 0.0
C446 C 0.05579 0.63714 0.49609 0.0
C447 C 0.04707 0.66942 0.48528 0.0
C448 C 0.05794 0.69673 0.50433 0.0
C449 C 0.07707 0.69188 0.53335 0.0
C450 C 0.0146 0.70483 0.40275 0.0
C451 C 0.98799 0.68308 0.39535 0.0
C452 C 0.03368 0.70056 0.43193 0.0
C453 C 0.02663 0.67441 0.45437 0.0
C454 C 0.99992 0.65279 0.44695 0.0
C455 C 0.9809 0.65704 0.41787 0.0
H456 H 0.71791 0.95319 0.58049 0.0
H457 H 0.66556 0.04398 0.55483 0.0
H458 H 0.6876 0.92385 0.53687 0.0
H459 H 0.63641 0.01517 0.50998 0.0
H460 H 0.56567 0.95087 0.45194 0.0
H461 H 0.59401 0.9762 0.49939 0.0
H462 H 0.68216 0.9169 0.47948 0.0
H463 H 0.65317 0.89043 0.43339 0.0
C464 C 0.70038 0.96704 0.56506 0.0
C465 C 0.69415 0.00091 0.57104 0.0
C466 C 0.68297 0.95021 0.53997 0.0
C467 C 0.65928 0.96698 0.51989 0.0
C468 C 0.65378 0.00115 0.52541 0.0
C469 C 0.6708 0.01783 0.55086 0.0
C470 C 0.59088 0.94284 0.45814 0.0
C471 C 0.60718 0.91874 0.43883 0.0
C472 C 0.60734 0.95766 0.4851 0.0
C473 C 0.64069 0.94911 0.49305 0.0
C474 C 0.65644 0.92399 0.47445 0.0
C475 C 0.63979 0.90881 0.44786 0.0
H476 H 0.37294 0.0538 0.26317 0.0
H477 H 0.3848 0.04109 0.36972 0.0
H478 H 0.42056 0.01616 0.25415 0.0
H479 H 0.43208 0.00417 0.3606 0.0
H480 H 0.53782 0.97432 0.3351 0.0
H481 H 0.49107 0.01329 0.33697 0.0
H482 H 0.43646 0.95349 0.26604 0.0
H483 H 0.4833 0.91409 0.26417 0.0
C484 C 0.38549 0.04287 0.28459 0.0
C485 C 0.3751 0.05057 0.31715 0.0
C486 C 0.41269 0.02137 0.27941 0.0
C487 C 0.43024 0.00769 0.3067 0.0
C488 C 0.41936 0.01483 0.33912 0.0
C489 C 0.39206 0.03582 0.34429 0.0
C490 C 0.51613 0.96964 0.31947 0.0
C491 C 0.51419 0.94087 0.29973 0.0
C492 C 0.48928 0.9919 0.3207 0.0
C493 C 0.46002 0.98614 0.30198 0.0
C494 C 0.45876 0.9585 0.28071 0.0
C495 C 0.48554 0.93594 0.27974 0.0
H496 H 0.11212 0.48267 0.58885 0.0
H497 H 0.13404 0.52225 0.68656 0.0
H498 H 0.08825 0.43284 0.61469 0.0
H499 H 0.11001 0.47252 0.71223 0.0
H500 H 0.01178 0.40964 0.73321 0.0
H501 H 0.04952 0.45329 0.71368 0.0
H502 H 0.1007 0.38209 0.65171 0.0
H503 H 0.06302 0.33814 0.67158 0.0
C504 C 0.11238 0.48052 0.61579 0.0
C505 C 0.12471 0.50662 0.6356 0.0
C506 C 0.09888 0.45188 0.63058 0.0
C507 C 0.0971 0.44889 0.66549 0.0
C508 C 0.11081 0.47427 0.68527 0.0
C509 C 0.12467 0.50271 0.6705 0.0
C510 C 0.03164 0.40311 0.71608 0.0
C511 C 0.03442 0.3705 0.70392 0.0
C512 C 0.05331 0.4281 0.70495 0.0
C513 C 0.07793 0.42114 0.68099 0.0
C514 C 0.08181 0.38818 0.67002 0.0
C515 C 0.06044 0.36299 0.68163 0.0
H516 H 0.63216 0.0211 0.73702 0.0
H517 H 0.64853 0.93846 0.67045 0.0
H518 H 0.57479 0.00235 0.74607 0.0
H519 H 0.59102 0.92039 0.67864 0.0
H520 H 0.48594 0.88922 0.70427 0.0
H521 H 0.5458 0.89961 0.71253 0.0
H522 H 0.52709 0.00561 0.70971 0.0
H523 H 0.46765 0.99528 0.70237 0.0
C524 C 0.62377 0.99854 0.72485 0.0
C525 C 0.64476 0.98163 0.70254 0.0
C526 C 0.59078 0.98794 0.72983 0.0
C527 C 0.57801 0.96033 0.71246 0.0
C528 C 0.59995 0.94172 0.6925 0.0
C529 C 0.63301 0.95219 0.6877 0.0
C530 C 0.49463 0.91471 0.70584 0.0
C531 C 0.47205 0.94142 0.70238 0.0
C532 C 0.52894 0.92067 0.71048 0.0
C533 C 0.54134 0.95345 0.7118 0.0
C534 C 0.51848 0.98004 0.70944 0.0
C535 C 0.48432 0.97411 0.70485 0.0
H536 H 0.8889 0.56594 0.27061 0.0
H537 H 0.91138 0.53868 0.3727 0.0
H538 H 0.90049 0.50899 0.25319 0.0
H539 H 0.92324 0.48195 0.3552 0.0
H540 H 0.93346 0.37814 0.31889 0.0
H541 H 0.90288 0.42935 0.33081 0.0
H542 H 0.95409 0.47884 0.24983 0.0
H543 H 0.98438 0.42775 0.23771 0.0
C544 C 0.89566 0.54769 0.28946 0.0
C545 C 0.89967 0.55701 0.32302 0.0
C546 C 0.90245 0.51508 0.27941 0.0
C547 C 0.91314 0.49102 0.30272 0.0
C548 C 0.91482 0.49978 0.33661 0.0
C549 C 0.9082 0.53241 0.34664 0.0
C550 C 0.93753 0.39968 0.30303 0.0
C551 C 0.96171 0.39898 0.27759 0.0
C552 C 0.92016 0.42909 0.31005 0.0
C553 C 0.92636 0.45828 0.29158 0.0
C554 C 0.94854 0.45677 0.26445 0.0
C555 C 0.96606 0.42748 0.25758 0.0
H556 H 0.29051 0.51869 0.13417 0.0
H557 H 0.39601 0.51039 0.11149 0.0
H558 H 0.28877 0.57297 0.10667 0.0
H559 H 0.39411 0.56446 0.08365 0.0
H560 H 0.38649 0.67294 0.05521 0.0
H561 H 0.38635 0.62436 0.0919 0.0
H562 H 0.29231 0.59258 0.04877 0.0
H563 H 0.29217 0.6414 0.01234 0.0
C564 C 0.31343 0.52856 0.12363 0.0
C565 C 0.34337 0.51007 0.12487 0.0
C566 C 0.31235 0.55961 0.10769 0.0
C567 C 0.34122 0.57296 0.09276 0.0
C568 C 0.37148 0.55506 0.09517 0.0
C569 C 0.37254 0.52396 0.11101 0.0
C570 C 0.36552 0.65586 0.05384 0.0
C571 C 0.33944 0.66096 0.03064 0.0
C572 C 0.36558 0.62789 0.07476 0.0
C573 C 0.3395 0.60443 0.07307 0.0
C574 C 0.31266 0.61031 0.05091 0.0
C575 C 0.31264 0.63824 0.02991 0.0
H576 H 0.44249 0.68749 0.93049 0.0
H577 H 0.45105 0.794 0.94294 0.0
H578 H 0.50265 0.68173 0.93953 0.0
H579 H 0.51134 0.7882 0.95161 0.0
H580 H 0.60252 0.75206 0.01707 0.0
H581 H 0.54631 0.76504 0.9968 0.0
H582 H 0.5584 0.69435 0.91696 0.0
H583 H 0.61447 0.68102 0.9374 0.0
C584 C 0.45726 0.70974 0.93463 0.0
C585 C 0.44188 0.74116 0.93626 0.0
C586 C 0.49182 0.70646 0.93961 0.0
C587 C 0.51178 0.73452 0.94642 0.0
C588 C 0.49659 0.76608 0.94681 0.0
C589 C 0.46204 0.76938 0.94169 0.0
C590 C 0.59351 0.7398 0.99477 0.0
C591 C 0.61286 0.71518 0.97914 0.0
C592 C 0.56128 0.74731 0.98308 0.0
C593 C 0.54772 0.73037 0.95553 0.0
C594 C 0.56792 0.70737 0.93861 0.0
C595 C 0.60015 0.69991 0.95024 0.0
H596 H 0.6539 0.41374 0.98891 0.0
H597 H 0.65646 0.45115 0.88765 0.0
H598 H 0.66791 0.46857 0.00961 0.0
H599 H 0.66975 0.50678 0.90868 0.0
H600 H 0.7288 0.59219 0.95917 0.0
H601 H 0.7153 0.53736 0.93661 0.0
H602 H 0.64281 0.52255 0.01508 0.0
H603 H 0.65679 0.57663 0.03801 0.0
C604 C 0.65716 0.43377 0.97101 0.0
C605 C 0.65399 0.42808 0.93659 0.0
C606 C 0.66505 0.46531 0.98295 0.0
C607 C 0.66982 0.4921 0.96083 0.0
C608 C 0.66655 0.48654 0.92634 0.0
C609 C 0.65868 0.45479 0.91432 0.0
C610 C 0.71015 0.5771 0.9717 0.0
C611 C 0.69403 0.5887 1.0005 0.0
C612 C 0.7022 0.54584 0.95859 0.0
C613 C 0.67799 0.5256 0.97405 0.0
C614 C 0.66193 0.53729 0.00284 0.0
C615 C 0.66991 0.56838 0.01595 0.0
H616 H 0.40681 0.40604 0.01428 0.0
H617 H 0.44283 0.33778 0.09003 0.0
H618 H 0.44819 0.38484 0.97557 0.0
H619 H 0.48409 0.31597 0.05081 0.0
H620 H 0.58022 0.32369 0.98314 0.0
H621 H 0.53565 0.33435 0.02339 0.0
H622 H 0.46304 0.33696 0.94313 0.0
H623 H 0.50755 0.32719 0.90305 0.0
C624 C 0.4233 0.38619 0.02258 0.0
C625 C 0.42151 0.3737 0.05531 0.0
C626 C 0.44694 0.37382 1.00025 0.0
C627 C 0.46945 0.34856 0.00999 0.0
C628 C 0.46733 0.33561 0.04258 0.0
C629 C 0.44355 0.34799 0.06498 0.0
C630 C 0.55463 0.32584 0.97423 0.0
C631 C 0.54745 0.32502 0.93989 0.0
C632 C 0.52905 0.33193 0.99729 0.0
C633 C 0.49581 0.33713 0.98643 0.0
C634 C 0.48846 0.33393 0.95228 0.0
C635 C 0.51396 0.3281 0.92931 0.0
loop_
_geom_bond_atom_site_label_1
_geom_bond_atom_site_label_2
_geom_bond_distance
_geom_bond_site_symmetry_2
_ccdc_geom_bond_type
Mg0 O7 2.141 . S
Mg0 O8 2.048 . S
Mg0 O9 2.048 . S
Mg0 O12 2.141 . S
C1 O2 1.313 . S
C1 O8 1.195 . S
O2 C1 1.313 . S
C3 O4 1.245 1_455 S
C3 O12 1.289 . S
O4 C3 1.245 1_655 S
C5 O6 1.245 . S
C5 O7 1.289 . S
O6 C5 1.245 . S
O7 Mg0 2.141 . S
O7 C5 1.289 . S
O8 Mg0 2.048 . S
O8 C1 1.195 . S
O9 Mg0 2.048 . S
O9 C10 1.195 . S
C10 O9 1.195 . S
C10 O11 1.313 1_455 S
O11 C10 1.313 1_655 S
O12 Mg0 2.141 . S
O12 C3 1.289 . S
Mg13 O20 2.141 . S
Mg13 O21 2.048 . S
Mg13 O22 2.048 . S
Mg13 O25 2.141 . S
C14 O15 1.313 . S
C14 O21 1.195 . S
O15 C14 1.313 . S
C16 O17 1.245 1_565 S
C16 O25 1.289 . S
O17 C16 1.245 1_545 S
C18 O19 1.245 . S
C18 O20 1.289 . S
O19 C18 1.245 . S
O20 Mg13 2.141 . S
O20 C18 1.289 . S
O21 Mg13 2.048 . S
O21 C14 1.195 . S
O22 Mg13 2.048 . S
O22 C23 1.195 . S
C23 O22 1.195 . S
C23 O24 1.313 1_565 S
O24 C23 1.313 1_545 S
O25 Mg13 2.141 . S
O25 C16 1.289 . S
Mg26 O33 2.141 . S
Mg26 O34 2.048 . S
Mg26 O35 2.048 . S
Mg26 O38 2.141 . S
C27 O28 1.313 . S
C27 O34 1.195 . S
O28 C27 1.313 . S
C29 O30 1.245 1_655 S
C29 O38 1.289 . S
O30 C29 1.245 1_455 S
C31 O32 1.245 . S
C31 O33 1.289 . S
O32 C31 1.245 . S
O33 Mg26 2.141 . S
O33 C31 1.289 . S
O34 Mg26 2.048 . S
O34 C27 1.195 . S
O35 Mg26 2.048 . S
O35 C36 1.195 . S
C36 O35 1.195 . S
C36 O37 1.313 . S
O37 C36 1.313 . S
O38 Mg26 2.141 . S
O38 C29 1.289 . S
Mg39 O46 2.141 . S
Mg39 O47 2.048 . S
Mg39 O48 2.048 . S
Mg39 O51 2.141 . S
C40 O41 1.313 . S
C40 O47 1.195 1_565 S
O41 C40 1.313 . S
C42 O43 1.245 . S
C42 O51 1.289 . S
O43 C42 1.245 . S
C44 O45 1.245 . S
C44 O46 1.289 1_565 S
O45 C44 1.245 . S
O46 Mg39 2.141 . S
O46 C44 1.289 1_545 S
O47 Mg39 2.048 . S
O47 C40 1.195 1_545 S
O48 Mg39 2.048 . S
O48 C49 1.195 . S
C49 O48 1.195 . S
C49 O50 1.313 . S
O50 C49 1.313 . S
O51 Mg39 2.141 . S
O51 C42 1.289 . S
Mg52 O59 2.141 . S
Mg52 O60 2.048 . S
Mg52 O61 2.048 . S
Mg52 O64 2.141 . S
C53 O54 1.313 1_455 S
C53 O60 1.195 . S
O54 C53 1.313 1_655 S
C55 O56 1.245 . S
C55 O64 1.289 . S
O56 C55 1.245 . S
C57 O58 1.245 . S
C57 O59 1.289 1_655 S
O58 C57 1.245 . S
O59 Mg52 2.141 . S
O59 C57 1.289 1_455 S
O60 Mg52 2.048 . S
O60 C53 1.195 . S
O61 Mg52 2.048 . S
O61 C62 1.195 . S
C62 O61 1.195 . S
C62 O63 1.313 . S
O63 C62 1.313 . S
O64 Mg52 2.141 . S
O64 C55 1.289 . S
Mg65 O72 2.141 . S
Mg65 O73 2.048 . S
Mg65 O74 2.048 . S
Mg65 O77 2.133 1_565 S
C66 O67 1.313 . S
C66 O73 1.195 . S
O67 C66 1.313 . S
C68 O69 1.245 . S
C68 O77 1.284 1_565 S
O69 C68 1.245 . S
C70 O71 1.245 . S
C70 O72 1.289 . S
O71 C70 1.245 . S
O72 Mg65 2.141 . S
O72 C70 1.289 . S
O73 Mg65 2.048 . S
O73 C66 1.195 . S
O74 Mg65 2.048 . S
O74 C75 1.195 . S
C75 O74 1.195 . S
C75 O76 1.313 . S
O76 C75 1.313 . S
O77 Mg65 2.133 1_545 S
O77 C68 1.284 1_545 S
Mg78 O85 2.141 . S
Mg78 O86 2.048 . S
Mg78 O87 2.048 . S
Mg78 O90 2.141 . S
C79 O80 1.313 1_655 S
C79 O86 1.195 . S
O80 C79 1.313 1_455 S
C81 O82 1.245 . S
C81 O90 1.289 . S
O82 C81 1.245 . S
C83 O84 1.245 1_655 S
C83 O85 1.289 . S
O84 C83 1.245 1_455 S
O85 Mg78 2.141 . S
O85 C83 1.289 . S
O86 Mg78 2.048 . S
O86 C79 1.195 . S
O87 Mg78 2.048 . S
O87 C88 1.195 . S
C88 O87 1.195 . S
C88 O89 1.313 . S
O89 C88 1.313 . S
O90 Mg78 2.141 . S
O90 C81 1.289 . S
Mg91 O98 2.141 . S
Mg91 O99 2.048 . S
Mg91 O100 2.048 . S
Mg91 O103 2.141 . S
C92 O93 1.313 . S
C92 O99 1.195 . S
O93 C92 1.313 . S
C94 O95 1.255 . S
C94 O103 1.289 . S
O95 C94 1.255 . S
C96 O97 1.245 . S
C96 O98 1.289 . S
O97 C96 1.245 . S
O98 Mg91 2.141 . S
O98 C96 1.289 . S
O99 Mg91 2.048 . S
O99 C92 1.195 . S
O100 Mg91 2.048 . S
O100 C101 1.195 . S
C101 O100 1.195 . S
C101 O102 1.313 . S
O102 C101 1.313 . S
O103 Mg91 2.141 . S
O103 C94 1.289 . S
Mg104 O111 2.141 . S
Mg104 O112 2.048 . S
Mg104 O113 2.048 . S
Mg104 O116 2.141 . S
C105 O106 1.313 1_554 S
C105 O112 1.195 . S
O106 C105 1.313 1_556 S
C107 O108 1.245 . S
C107 O116 1.289 . S
O108 C107 1.245 . S
C109 O110 1.245 1_554 S
C109 O111 1.289 . S
O110 C109 1.245 1_556 S
O111 Mg104 2.141 . S
O111 C109 1.289 . S
O112 Mg104 2.048 . S
O112 C105 1.195 . S
O113 Mg104 2.048 . S
O113 C114 1.195 . S
C114 O113 1.195 . S
C114 O115 1.313 . S
O115 C114 1.313 . S
O116 Mg104 2.141 . S
O116 C107 1.289 . S
Mg117 O124 2.141 . S
Mg117 O125 2.048 . S
Mg117 O126 2.048 . S
Mg117 O129 2.141 . S
C118 O119 1.313 . S
C118 O125 1.195 . S
O119 C118 1.313 . S
C120 O121 1.245 1_556 S
C120 O129 1.289 . S
O121 C120 1.245 1_554 S
C122 O123 1.245 . S
C122 O124 1.289 . S
O123 C122 1.245 . S
O124 Mg117 2.141 . S
O124 C122 1.289 . S
O125 Mg117 2.048 . S
O125 C118 1.195 . S
O126 Mg117 2.048 . S
O126 C127 1.195 . S
C127 O126 1.195 . S
C127 O128 1.313 1_556 S
O128 C127 1.313 1_554 S
O129 Mg117 2.141 . S
O129 C120 1.289 . S
Mg130 O137 2.141 . S
Mg130 O138 2.048 . S
Mg130 O139 2.048 . S
Mg130 O142 2.141 . S
C131 O132 1.313 1_554 S
C131 O138 1.195 . S
O132 C131 1.313 1_556 S
C133 O134 1.245 . S
C133 O142 1.289 . S
O134 C133 1.245 . S
C135 O136 1.245 1_554 S
C135 O137 1.289 . S
O136 C135 1.245 1_556 S
O137 Mg130 2.141 . S
O137 C135 1.289 . S
O138 Mg130 2.048 . S
O138 C131 1.195 . S
O139 Mg130 2.048 . S
O139 C140 1.195 . S
C140 O139 1.195 . S
C140 O141 1.313 . S
O141 C140 1.313 . S
O142 Mg130 2.141 . S
O142 C133 1.289 . S
Mg143 O150 2.141 . S
Mg143 O151 2.048 . S
Mg143 O152 2.048 . S
Mg143 O155 2.141 . S
C144 O145 1.313 . S
C144 O151 1.195 . S
O145 C144 1.313 . S
C146 O147 1.245 1_556 S
C146 O155 1.289 . S
O147 C146 1.245 1_554 S
C148 O149 1.245 . S
C148 O150 1.289 . S
O149 C148 1.245 . S
O150 Mg143 2.141 . S
O150 C148 1.289 . S
O151 Mg143 2.048 . S
O151 C144 1.195 . S
O152 Mg143 2.048 . S
O152 C153 1.195 . S
C153 O152 1.195 . S
C153 O154 1.313 1_556 S
O154 C153 1.313 1_554 S
O155 Mg143 2.141 . S
O155 C146 1.289 . S
H156 C164 0.950 . S
H157 C169 0.950 . S
H158 C166 0.950 . S
H159 C168 0.950 . S
H160 C170 0.950 . S
H161 C172 0.950 . S
H162 C174 0.950 . S
H163 C175 0.950 . S
C164 H156 0.950 . S
C164 C165 1.386 . S
C164 C166 1.391 . S
C165 C164 1.386 . S
C165 C169 1.393 . S
C166 H158 0.950 . S
C166 C164 1.391 . S
C166 C167 1.400 . S
C167 C166 1.400 . S
C167 C168 1.398 . S
C167 C173 1.491 . S
C168 H159 0.950 . S
C168 C167 1.398 . S
C168 C169 1.391 . S
C169 H157 0.950 . S
C169 C165 1.393 . S
C169 C168 1.391 . S
C170 H160 0.950 . S
C170 C171 1.386 . S
C170 C172 1.391 . S
C171 C170 1.386 . S
C171 C175 1.393 . S
C172 H161 0.950 . S
C172 C170 1.391 . S
C172 C173 1.400 . S
C173 C167 1.491 . S
C173 C172 1.400 . S
C173 C174 1.398 . S
C174 H162 0.950 . S
C174 C173 1.398 . S
C174 C175 1.391 . S
C175 H163 0.950 . S
C175 C171 1.393 . S
C175 C174 1.391 . S
H176 C184 0.950 . S
H177 C189 0.950 . S
H178 C186 0.950 . S
H179 C188 0.950 . S
H180 C190 0.950 . S
H181 C192 0.950 . S
H182 C194 0.950 . S
H183 C195 0.950 . S
C184 H176 0.950 . S
C184 C185 1.386 . S
C184 C186 1.391 . S
C185 C184 1.386 . S
C185 C189 1.393 . S
C186 H178 0.950 . S
C186 C184 1.391 . S
C186 C187 1.400 . S
C187 C186 1.400 . S
C187 C188 1.398 . S
C187 C193 1.491 . S
C188 H179 0.950 . S
C188 C187 1.398 . S
C188 C189 1.391 . S
C189 H177 0.950 . S
C189 C185 1.393 . S
C189 C188 1.391 . S
C190 H180 0.950 . S
C190 C191 1.386 . S
C190 C192 1.391 . S
C191 C190 1.386 . S
C191 C195 1.393 . S
C192 H181 0.950 . S
C192 C190 1.391 . S
C192 C193 1.400 . S
C193 C187 1.491 . S
C193 C192 1.400 . S
C193 C194 1.398 . S
C194 H182 0.950 . S
C194 C193 1.398 . S
C194 C195 1.391 . S
C195 H183 0.950 . S
C195 C191 1.393 . S
C195 C194 1.391 . S
H196 C204 0.950 . S
H197 C209 0.950 . S
H198 C206 0.950 . S
H199 C208 0.950 . S
H200 C210 0.950 . S
H201 C212 0.950 . S
H202 C214 0.950 . S
H203 C215 0.950 . S
C204 H196 0.950 . S
C204 C205 1.386 . S
C204 C206 1.391 . S
C205 C204 1.386 . S
C205 C209 1.393 . S
C206 H198 0.950 . S
C206 C204 1.391 . S
C206 C207 1.400 . S
C207 C206 1.400 . S
C207 C208 1.398 . S
C207 C213 1.491 . S
C208 H199 0.950 . S
C208 C207 1.398 . S
C208 C209 1.391 . S
C209 H197 0.950 . S
C209 C205 1.393 . S
C209 C208 1.391 . S
C210 H200 0.950 . S
C210 C211 1.386 . S
C210 C212 1.391 . S
C211 C210 1.386 . S
C211 C215 1.393 . S
C212 H201 0.950 . S
C212 C210 1.391 . S
C212 C213 1.400 . S
C213 C207 1.491 . S
C213 C212 1.400 . S
C213 C214 1.398 . S
C214 H202 0.950 . S
C214 C213 1.398 . S
C214 C215 1.391 . S
C215 H203 0.950 . S
C215 C211 1.393 . S
C215 C214 1.391 . S
H216 C224 0.950 . S
H217 C229 0.950 . S
H218 C226 0.950 . S
H219 C228 0.950 . S
H220 C230 0.950 . S
H221 C232 0.950 . S
H222 C234 0.950 . S
H223 C235 0.950 . S
C224 H216 0.950 . S
C224 C225 1.386 . S
C224 C226 1.391 . S
C225 C224 1.386 . S
C225 C229 1.393 . S
C226 H218 0.950 . S
C226 C224 1.391 . S
C226 C227 1.400 . S
C227 C226 1.400 . S
C227 C228 1.398 . S
C227 C233 1.491 . S
C228 H219 0.950 . S
C228 C227 1.398 . S
C228 C229 1.391 . S
C229 H217 0.950 . S
C229 C225 1.393 . S
C229 C228 1.391 . S
C230 H220 0.950 . S
C230 C231 1.386 . S
C230 C232 1.391 . S
C231 C230 1.386 . S
C231 C235 1.393 . S
C232 H221 0.950 . S
C232 C230 1.391 . S
C232 C233 1.400 . S
C233 C227 1.491 . S
C233 C232 1.400 . S
C233 C234 1.398 . S
C234 H222 0.950 . S
C234 C233 1.398 . S
C234 C235 1.391 . S
C235 H223 0.950 . S
C235 C231 1.393 . S
C235 C234 1.391 . S
H236 C244 0.950 . S
H237 C249 0.950 . S
H238 C246 0.950 . S
H239 C248 0.950 . S
H240 C250 0.950 . S
H241 C252 0.950 . S
H242 C254 0.950 . S
H243 C255 0.950 . S
C244 H236 0.950 . S
C244 C245 1.386 . S
C244 C246 1.391 . S
C245 C244 1.386 . S
C245 C249 1.393 . S
C246 H238 0.950 . S
C246 C244 1.391 . S
C246 C247 1.400 . S
C247 C246 1.400 . S
C247 C248 1.398 . S
C247 C253 1.491 . S
C248 H239 0.950 . S
C248 C247 1.398 . S
C248 C249 1.391 . S
C249 H237 0.950 . S
C249 C245 1.393 . S
C249 C248 1.391 . S
C250 H240 0.950 . S
C250 C251 1.386 . S
C250 C252 1.391 . S
C251 C250 1.386 . S
C251 C255 1.393 . S
C252 H241 0.950 . S
C252 C250 1.391 . S
C252 C253 1.400 . S
C253 C247 1.491 . S
C253 C252 1.400 . S
C253 C254 1.398 . S
C254 H242 0.950 . S
C254 C253 1.398 . S
C254 C255 1.391 . S
C255 H243 0.950 . S
C255 C251 1.393 . S
C255 C254 1.391 . S
H256 C264 0.950 . S
H257 C269 0.950 . S
H258 C266 0.950 . S
H259 C268 0.950 . S
H260 C270 0.950 . S
H261 C272 0.950 . S
H262 C274 0.950 . S
H263 C275 0.950 . S
C264 H256 0.950 . S
C264 C265 1.386 . S
C264 C266 1.391 . S
C265 C264 1.386 . S
C265 C269 1.393 . S
C266 H258 0.950 . S
C266 C264 1.391 . S
C266 C267 1.400 . S
C267 C266 1.400 . S
C267 C268 1.398 . S
C267 C273 1.491 . S
C268 H259 0.950 . S
C268 C267 1.398 . S
C268 C269 1.391 . S
C269 H257 0.950 . S
C269 C265 1.393 . S
C269 C268 1.391 . S
C270 H260 0.950 . S
C270 C271 1.386 . S
C270 C272 1.391 . S
C271 C270 1.386 . S
C271 C275 1.393 . S
C272 H261 0.950 . S
C272 C270 1.391 . S
C272 C273 1.400 . S
C273 C267 1.491 . S
C273 C272 1.400 . S
C273 C274 1.398 . S
C274 H262 0.950 . S
C274 C273 1.398 . S
C274 C275 1.391 . S
C275 H263 0.950 . S
C275 C271 1.393 . S
C275 C274 1.391 . S
H276 C284 0.950 . S
H277 C289 0.950 . S
H278 C286 0.950 . S
H279 C288 0.950 . S
H280 C290 0.950 . S
H281 C292 0.950 . S
H282 C294 0.950 . S
H283 C295 0.950 . S
C284 H276 0.950 . S
C284 C285 1.386 . S
C284 C286 1.391 . S
C285 C284 1.386 . S
C285 C289 1.393 . S
C286 H278 0.950 . S
C286 C284 1.391 . S
C286 C287 1.400 . S
C287 C286 1.400 . S
C287 C288 1.398 . S
C287 C293 1.491 . S
C288 H279 0.950 . S
C288 C287 1.398 . S
C288 C289 1.391 . S
C289 H277 0.950 . S
C289 C285 1.393 . S
C289 C288 1.391 . S
C290 H280 0.950 . S
C290 C291 1.386 . S
C290 C292 1.391 . S
C291 C290 1.386 . S
C291 C295 1.393 . S
C292 H281 0.950 . S
C292 C290 1.391 . S
C292 C293 1.400 . S
C293 C287 1.491 . S
C293 C292 1.400 . S
C293 C294 1.398 . S
C294 H282 0.950 . S
C294 C293 1.398 . S
C294 C295 1.391 . S
C295 H283 0.950 . S
C295 C291 1.393 . S
C295 C294 1.391 . S
H296 C304 0.950 . S
H297 C309 0.950 . S
H298 C306 0.950 . S
H299 C308 0.950 . S
H300 C310 0.950 . S
H301 C312 0.950 . S
H302 C314 0.950 . S
H303 C315 0.950 . S
C304 H296 0.950 . S
C304 C305 1.386 . S
C304 C306 1.391 . S
C305 C304 1.386 . S
C305 C309 1.393 . S
C306 H298 0.950 . S
C306 C304 1.391 . S
C306 C307 1.400 . S
C307 C306 1.400 . S
C307 C308 1.398 . S
C307 C313 1.491 . S
C308 H299 0.950 . S
C308 C307 1.398 . S
C308 C309 1.391 . S
C309 H297 0.950 . S
C309 C305 1.393 . S
C309 C308 1.391 . S
C310 H300 0.950 . S
C310 C311 1.386 . S
C310 C312 1.391 . S
C311 C310 1.386 . S
C311 C315 1.393 . S
C312 H301 0.950 . S
C312 C310 1.391 . S
C312 C313 1.400 . S
C313 C307 1.491 . S
C313 C312 1.400 . S
C313 C314 1.398 . S
C314 H302 0.950 . S
C314 C313 1.398 . S
C314 C315 1.391 . S
C315 H303 0.950 . S
C315 C311 1.393 . S
C315 C314 1.391 . S
H316 C324 0.950 . S
H317 C329 0.950 . S
H318 C326 0.950 . S
H319 C328 0.950 . S
H320 C330 0.950 . S
H321 C332 0.950 . S
H322 C334 0.950 . S
H323 C335 0.950 . S
C324 H316 0.950 . S
C324 C325 1.386 . S
C324 C326 1.391 . S
C325 C324 1.386 . S
C325 C329 1.393 . S
C326 H318 0.950 . S
C326 C324 1.391 . S
C326 C327 1.400 . S
C327 C326 1.400 . S
C327 C328 1.398 . S
C327 C333 1.491 . S
C328 H319 0.950 . S
C328 C327 1.398 . S
C328 C329 1.391 . S
C329 H317 0.950 . S
C329 C325 1.393 . S
C329 C328 1.391 . S
C330 H320 0.950 . S
C330 C331 1.386 . S
C330 C332 1.391 . S
C331 C330 1.386 . S
C331 C335 1.393 . S
C332 H321 0.950 . S
C332 C330 1.391 . S
C332 C333 1.400 . S
C333 C327 1.491 . S
C333 C332 1.400 . S
C333 C334 1.398 . S
C334 H322 0.950 . S
C334 C333 1.398 . S
C334 C335 1.391 . S
C335 H323 0.950 . S
C335 C331 1.393 . S
C335 C334 1.391 . S
H336 C344 0.950 . S
H337 C349 0.950 . S
H338 C346 0.950 . S
H339 C348 0.950 . S
H340 C350 0.950 . S
H341 C352 0.950 . S
H342 C354 0.950 . S
H343 C355 0.950 . S
C344 H336 0.950 . S
C344 C345 1.386 . S
C344 C346 1.391 . S
C345 C344 1.386 . S
C345 C349 1.393 . S
C346 H338 0.950 . S
C346 C344 1.391 . S
C346 C347 1.400 . S
C347 C346 1.400 . S
C347 C348 1.398 . S
C347 C353 1.491 . S
C348 H339 0.950 . S
C348 C347 1.398 . S
C348 C349 1.391 . S
C349 H337 0.950 . S
C349 C345 1.393 . S
C349 C348 1.391 . S
C350 H340 0.950 . S
C350 C351 1.386 . S
C350 C352 1.391 . S
C351 C350 1.386 . S
C351 C355 1.393 . S
C352 H341 0.950 . S
C352 C350 1.391 . S
C352 C353 1.400 . S
C353 C347 1.491 . S
C353 C352 1.400 . S
C353 C354 1.398 . S
C354 H342 0.950 . S
C354 C353 1.398 . S
C354 C355 1.391 . S
C355 H343 0.950 . S
C355 C351 1.393 . S
C355 C354 1.391 . S
H356 C364 0.950 . S
H357 C369 0.950 . S
H358 C366 0.950 . S
H359 C368 0.950 . S
H360 C370 0.950 . S
H361 C372 0.950 . S
H362 C374 0.950 . S
H363 C375 0.950 . S
C364 H356 0.950 . S
C364 C365 1.386 . S
C364 C366 1.391 . S
C365 C364 1.386 . S
C365 C369 1.393 . S
C366 H358 0.950 . S
C366 C364 1.391 . S
C366 C367 1.400 . S
C367 C366 1.400 . S
C367 C368 1.398 . S
C367 C373 1.491 . S
C368 H359 0.950 . S
C368 C367 1.398 . S
C368 C369 1.391 . S
C369 H357 0.950 . S
C369 C365 1.393 . S
C369 C368 1.391 . S
C370 H360 0.950 . S
C370 C371 1.386 . S
C370 C372 1.391 . S
C371 C370 1.386 . S
C371 C375 1.393 . S
C372 H361 0.950 . S
C372 C370 1.391 . S
C372 C373 1.400 . S
C373 C367 1.491 . S
C373 C372 1.400 . S
C373 C374 1.398 . S
C374 H362 0.950 . S
C374 C373 1.398 . S
C374 C375 1.391 . S
C375 H363 0.950 . S
C375 C371 1.393 . S
C375 C374 1.391 . S
H376 C384 0.950 . S
H377 C389 0.950 . S
H378 C386 0.950 . S
H379 C388 0.950 . S
H380 C390 0.950 . S
H381 C392 0.950 . S
H382 C394 0.950 . S
H383 C395 0.950 . S
C384 H376 0.950 . S
C384 C385 1.386 . S
C384 C386 1.391 . S
C385 C384 1.386 . S
C385 C389 1.393 . S
C386 H378 0.950 . S
C386 C384 1.391 . S
C386 C387 1.400 . S
C387 C386 1.400 . S
C387 C388 1.398 . S
C387 C393 1.491 . S
C388 H379 0.950 . S
C388 C387 1.398 . S
C388 C389 1.391 . S
C389 H377 0.950 . S
C389 C385 1.393 . S
C389 C388 1.391 . S
C390 H380 0.950 . S
C390 C391 1.386 . S
C390 C392 1.391 . S
C391 C390 1.386 . S
C391 C395 1.393 . S
C392 H381 0.950 . S
C392 C390 1.391 . S
C392 C393 1.400 . S
C393 C387 1.491 . S
C393 C392 1.400 . S
C393 C394 1.398 . S
C394 H382 0.950 . S
C394 C393 1.398 . S
C394 C395 1.391 . S
C395 H383 0.950 . S
C395 C391 1.393 . S
C395 C394 1.391 . S
H396 C404 0.950 . S
H397 C409 0.950 . S
H398 C406 0.950 . S
H399 C408 0.950 . S
H400 C410 0.950 . S
H401 C412 0.950 . S
H402 C414 0.950 . S
H403 C415 0.950 . S
C404 H396 0.950 . S
C404 C405 1.386 1_655 S
C404 C406 1.391 . S
C405 C404 1.386 1_455 S
C405 C409 1.393 . S
C406 H398 0.950 . S
C406 C404 1.391 . S
C406 C407 1.400 1_655 S
C407 C406 1.400 1_455 S
C407 C408 1.398 . S
C407 C413 1.491 . S
C408 H399 0.950 . S
C408 C407 1.398 . S
C408 C409 1.391 . S
C409 H397 0.950 . S
C409 C405 1.393 . S
C409 C408 1.391 . S
C410 H400 0.950 . S
C410 C411 1.386 . S
C410 C412 1.391 . S
C411 C410 1.386 . S
C411 C415 1.393 1_455 S
C412 H401 0.950 . S
C412 C410 1.391 . S
C412 C413 1.400 . S
C413 C407 1.491 . S
C413 C412 1.400 . S
C413 C414 1.398 1_455 S
C414 H402 0.950 . S
C414 C413 1.398 1_655 S
C414 C415 1.391 . S
C415 H403 0.950 . S
C415 C411 1.393 1_655 S
C415 C414 1.391 . S
H416 C424 0.950 . S
H417 C429 0.950 . S
H418 C426 0.950 . S
H419 C428 0.950 . S
H420 C430 0.950 . S
H421 C432 0.950 . S
H422 C434 0.950 . S
H423 C435 0.950 . S
C424 H416 0.950 . S
C424 C425 1.386 . S
C424 C426 1.391 . S
C425 C424 1.386 . S
C425 C429 1.393 . S
C426 H418 0.950 . S
C426 C424 1.391 . S
C426 C427 1.400 . S
C427 C426 1.400 . S
C427 C428 1.398 . S
C427 C433 1.491 . S
C428 H419 0.950 . S
C428 C427 1.398 . S
C428 C429 1.391 . S
C429 H417 0.950 . S
C429 C425 1.393 . S
C429 C428 1.391 . S
C430 H420 0.950 . S
C430 C431 1.386 . S
C430 C432 1.391 1_565 S
C431 C430 1.386 . S
C431 C435 1.394 . S
C432 H421 0.950 . S
C432 C430 1.391 1_545 S
C432 C433 1.400 . S
C433 C427 1.491 . S
C433 C432 1.400 . S
C433 C434 1.398 . S
C434 H422 0.950 . S
C434 C433 1.398 . S
C434 C435 1.389 1_545 S
C435 H423 0.950 . S
C435 C431 1.394 . S
C435 C434 1.389 1_565 S
H436 C444 0.950 . S
H437 C449 0.950 1_455 S
H438 C446 0.950 . S
H439 C448 0.950 . S
H440 C450 0.958 . S
H441 C452 0.948 1_455 S
H442 C454 0.950 . S
H443 C455 0.950 . S
C444 H436 0.950 . S
C444 C445 1.386 . S
C444 C446 1.391 . S
C445 C444 1.386 . S
C445 C449 1.393 . S
C446 H438 0.950 . S
C446 C444 1.391 . S
C446 C447 1.400 . S
C447 C446 1.400 . S
C447 C448 1.398 . S
C447 C453 1.491 . S
C448 H439 0.950 . S
C448 C447 1.398 . S
C448 C449 1.391 . S
C449 H437 0.950 1_655 S
C449 C445 1.393 . S
C449 C448 1.391 . S
C450 H440 0.958 . S
C450 C451 1.386 . S
C450 C452 1.391 . S
C451 C450 1.386 . S
C451 C455 1.393 . S
C452 H441 0.948 1_655 S
C452 C450 1.391 . S
C452 C453 1.400 . S
C453 C447 1.491 . S
C453 C452 1.400 . S
C453 C454 1.398 . S
C454 H442 0.950 . S
C454 C453 1.398 . S
C454 C455 1.391 . S
C455 H443 0.950 . S
C455 C451 1.393 . S
C455 C454 1.391 . S
H456 C464 0.950 . S
H457 C469 0.950 . S
H458 C466 0.950 . S
H459 C468 0.950 . S
H460 C470 0.950 . S
H461 C472 0.950 . S
H462 C474 0.950 . S
H463 C475 0.950 . S
C464 H456 0.950 . S
C464 C465 1.386 1_545 S
C464 C466 1.391 . S
C465 C464 1.386 1_565 S
C465 C469 1.393 . S
C466 H458 0.950 . S
C466 C464 1.391 . S
C466 C467 1.400 1_545 S
C467 C466 1.400 1_565 S
C467 C468 1.398 . S
C467 C473 1.491 . S
C468 H459 0.950 . S
C468 C467 1.398 . S
C468 C469 1.391 . S
C469 H457 0.950 . S
C469 C465 1.393 . S
C469 C468 1.391 . S
C470 H460 0.950 . S
C470 C471 1.395 . S
C470 C472 1.391 . S
C471 C470 1.395 . S
C471 C475 1.384 1_565 S
C472 H461 0.950 . S
C472 C470 1.391 . S
C472 C473 1.400 . S
C473 C467 1.491 . S
C473 C472 1.400 . S
C473 C474 1.398 1_565 S
C474 H462 0.950 . S
C474 C473 1.398 1_545 S
C474 C475 1.391 . S
C475 H463 0.950 . S
C475 C471 1.384 1_545 S
C475 C474 1.391 . S
H476 C484 0.950 . S
H477 C489 0.950 . S
H478 C486 0.950 . S
H479 C488 0.950 . S
H480 C490 0.950 . S
H481 C492 0.950 . S
H482 C494 0.950 . S
H483 C495 0.950 . S
C484 H476 0.950 . S
C484 C485 1.386 1_565 S
C484 C486 1.391 . S
C485 C484 1.386 1_545 S
C485 C489 1.393 . S
C486 H478 0.950 . S
C486 C484 1.391 . S
C486 C487 1.400 1_565 S
C487 C486 1.400 1_545 S
C487 C488 1.398 . S
C487 C493 1.491 . S
C488 H479 0.950 . S
C488 C487 1.398 . S
C488 C489 1.391 . S
C489 H477 0.950 . S
C489 C485 1.393 . S
C489 C488 1.391 . S
C490 H480 0.950 . S
C490 C491 1.386 . S
C490 C492 1.391 . S
C491 C490 1.386 . S
C491 C495 1.393 1_545 S
C492 H481 0.950 . S
C492 C490 1.391 . S
C492 C493 1.400 . S
C493 C487 1.491 . S
C493 C492 1.400 . S
C493 C494 1.398 1_545 S
C494 H482 0.950 . S
C494 C493 1.398 1_565 S
C494 C495 1.391 . S
C495 H483 0.950 . S
C495 C491 1.393 1_565 S
C495 C494 1.391 . S
H496 C504 0.950 . S
H497 C509 0.950 . S
H498 C506 0.950 . S
H499 C508 0.950 . S
H500 C510 0.950 . S
H501 C512 0.950 . S
H502 C514 0.950 . S
H503 C515 0.950 . S
C504 H496 0.950 . S
C504 C505 1.386 . S
C504 C506 1.391 . S
C505 C504 1.386 . S
C505 C509 1.393 1_655 S
C506 H498 0.950 . S
C506 C504 1.391 . S
C506 C507 1.400 . S
C507 C506 1.400 . S
C507 C508 1.398 1_655 S
C507 C513 1.491 . S
C508 H499 0.950 . S
C508 C507 1.398 1_455 S
C508 C509 1.391 . S
C509 H497 0.950 . S
C509 C505 1.393 1_455 S
C509 C508 1.391 . S
C510 H500 0.950 . S
C510 C511 1.386 1_455 S
C510 C512 1.391 . S
C511 C510 1.386 1_655 S
C511 C515 1.393 . S
C512 H501 0.950 . S
C512 C510 1.391 . S
C512 C513 1.400 1_455 S
C513 C507 1.491 . S
C513 C512 1.400 1_655 S
C513 C514 1.398 . S
C514 H502 0.950 . S
C514 C513 1.398 . S
C514 C515 1.391 . S
C515 H503 0.950 . S
C515 C511 1.393 . S
C515 C514 1.391 . S
H516 C524 0.950 . S
H517 C529 0.950 . S
H518 C526 0.950 . S
H519 C528 0.950 . S
H520 C530 0.950 . S
H521 C532 0.950 . S
H522 C534 0.950 1_545 S
H523 C535 0.940 1_545 S
C524 H516 0.950 . S
C524 C525 1.386 1_545 S
C524 C526 1.391 . S
C525 C524 1.386 1_565 S
C525 C529 1.393 . S
C526 H518 0.950 . S
C526 C524 1.391 . S
C526 C527 1.400 1_545 S
C527 C526 1.400 1_565 S
C527 C528 1.398 . S
C527 C533 1.491 . S
C528 H519 0.950 . S
C528 C527 1.398 . S
C528 C529 1.391 . S
C529 H517 0.950 . S
C529 C525 1.393 . S
C529 C528 1.391 . S
C530 H520 0.950 . S
C530 C531 1.386 . S
C530 C532 1.391 . S
C531 C530 1.386 . S
C531 C535 1.402 . S
C532 H521 0.950 . S
C532 C530 1.391 . S
C532 C533 1.400 . S
C533 C527 1.491 . S
C533 C532 1.400 . S
C533 C534 1.398 . S
C534 H522 0.950 1_565 S
C534 C533 1.398 . S
C534 C535 1.391 . S
C535 H523 0.940 1_565 S
C535 C531 1.402 . S
C535 C534 1.391 . S
H536 C544 0.950 . S
H537 C549 0.950 . S
H538 C546 0.950 . S
H539 C548 0.950 . S
H540 C550 0.950 . S
H541 C552 0.950 . S
H542 C554 0.950 . S
H543 C555 0.950 . S
C544 H536 0.950 . S
C544 C545 1.386 . S
C544 C546 1.391 . S
C545 C544 1.386 . S
C545 C549 1.393 1_655 S
C546 H538 0.950 . S
C546 C544 1.391 . S
C546 C547 1.400 . S
C547 C546 1.400 . S
C547 C548 1.398 1_655 S
C547 C553 1.491 . S
C548 H539 0.950 . S
C548 C547 1.398 1_455 S
C548 C549 1.391 . S
C549 H537 0.950 . S
C549 C545 1.393 1_455 S
C549 C548 1.391 . S
C550 H540 0.950 . S
C550 C551 1.386 . S
C550 C552 1.391 . S
C551 C550 1.386 . S
C551 C555 1.393 1_455 S
C552 H541 0.950 . S
C552 C550 1.391 . S
C552 C553 1.400 1_455 S
C553 C547 1.491 . S
C553 C552 1.400 1_655 S
C553 C554 1.398 . S
C554 H542 0.950 . S
C554 C553 1.398 . S
C554 C555 1.391 . S
C555 H543 0.950 . S
C555 C551 1.393 1_655 S
C555 C554 1.391 . S
H556 C564 0.950 . S
H557 C569 0.950 . S
H558 C566 0.950 . S
H559 C568 0.950 . S
H560 C570 0.950 . S
H561 C572 0.950 . S
H562 C574 0.950 . S
H563 C575 0.950 . S
C564 H556 0.950 . S
C564 C565 1.389 . S
C564 C566 1.391 . S
C565 C564 1.389 . S
C565 C569 1.389 1_556 S
C566 H558 0.950 . S
C566 C564 1.391 . S
C566 C567 1.400 . S
C567 C566 1.400 . S
C567 C568 1.398 1_556 S
C567 C573 1.491 . S
C568 H559 0.950 . S
C568 C567 1.398 1_554 S
C568 C569 1.391 . S
C569 H557 0.950 . S
C569 C565 1.389 1_554 S
C569 C568 1.391 . S
C570 H560 0.950 . S
C570 C571 1.386 1_554 S
C570 C572 1.391 . S
C571 C570 1.386 1_556 S
C571 C575 1.393 . S
C572 H561 0.950 . S
C572 C570 1.391 . S
C572 C573 1.400 1_554 S
C573 C567 1.491 . S
C573 C572 1.400 1_556 S
C573 C574 1.398 . S
C574 H562 0.950 . S
C574 C573 1.398 . S
C574 C575 1.391 . S
C575 H563 0.950 . S
C575 C571 1.393 . S
C575 C574 1.391 . S
H576 C584 0.950 . S
H577 C589 0.950 . S
H578 C586 0.950 . S
H579 C588 0.950 . S
H580 C590 0.950 . S
H581 C592 0.950 . S
H582 C594 0.950 . S
H583 C595 0.950 . S
C584 H576 0.950 . S
C584 C585 1.386 . S
C584 C586 1.391 . S
C585 C584 1.386 . S
C585 C589 1.393 1_556 S
C586 H578 0.950 . S
C586 C584 1.391 . S
C586 C587 1.400 . S
C587 C586 1.400 . S
C587 C588 1.398 1_556 S
C587 C593 1.491 . S
C588 H579 0.950 . S
C588 C587 1.398 1_554 S
C588 C589 1.391 . S
C589 H577 0.950 . S
C589 C585 1.393 1_554 S
C589 C588 1.391 . S
C590 H580 0.950 . S
C590 C591 1.386 1_554 S
C590 C592 1.391 . S
C591 C590 1.386 1_556 S
C591 C595 1.393 . S
C592 H581 0.950 . S
C592 C590 1.391 . S
C592 C593 1.400 1_554 S
C593 C587 1.491 . S
C593 C592 1.400 1_556 S
C593 C594 1.398 . S
C594 H582 0.950 . S
C594 C593 1.398 . S
C594 C595 1.391 . S
C595 H583 0.950 . S
C595 C591 1.393 . S
C595 C594 1.391 . S
H596 C604 0.950 . S
H597 C609 0.950 . S
H598 C606 0.950 . S
H599 C608 0.950 . S
H600 C610 0.950 . S
H601 C612 0.950 . S
H602 C614 0.950 . S
H603 C615 0.950 . S
C604 H596 0.950 . S
C604 C605 1.386 1_554 S
C604 C606 1.391 . S
C605 C604 1.386 1_556 S
C605 C609 1.393 . S
C606 H598 0.950 . S
C606 C604 1.391 . S
C606 C607 1.400 1_554 S
C607 C606 1.400 1_556 S
C607 C608 1.398 . S
C607 C613 1.491 . S
C608 H599 0.950 . S
C608 C607 1.398 . S
C608 C609 1.391 . S
C609 H597 0.950 . S
C609 C605 1.393 . S
C609 C608 1.391 . S
C610 H600 0.950 . S
C610 C611 1.386 . S
C610 C612 1.391 . S
C611 C610 1.386 . S
C611 C615 1.393 1_556 S
C612 H601 0.950 . S
C612 C610 1.391 . S
C612 C613 1.400 . S
C613 C607 1.491 . S
C613 C612 1.400 . S
C613 C614 1.398 1_556 S
C614 H602 0.950 . S
C614 C613 1.398 1_554 S
C614 C615 1.391 . S
C615 H603 0.950 . S
C615 C611 1.393 1_554 S
C615 C614 1.391 . S
H616 C624 0.950 . S
H617 C629 0.950 . S
H618 C626 0.950 . S
H619 C628 0.950 . S
H620 C630 0.950 . S
H621 C632 0.950 . S
H622 C634 0.950 . S
H623 C635 0.950 . S
C624 H616 0.950 . S
C624 C625 1.386 . S
C624 C626 1.391 . S
C625 C624 1.386 . S
C625 C629 1.393 1_554 S
C626 H618 0.950 . S
C626 C624 1.391 . S
C626 C627 1.399 1_554 S
C627 C626 1.399 1_556 S
C627 C628 1.399 . S
C627 C633 1.491 . S
C628 H619 0.950 . S
C628 C627 1.399 . S
C628 C629 1.391 . S
C629 H617 0.950 . S
C629 C625 1.393 1_556 S
C629 C628 1.391 . S
C630 H620 0.950 . S
C630 C631 1.386 . S
C630 C632 1.391 . S
C631 C630 1.386 . S
C631 C635 1.393 1_556 S
C632 H621 0.950 . S
C632 C630 1.391 . S
C632 C633 1.403 . S
C633 C627 1.491 . S
C633 C632 1.403 . S
C633 C634 1.396 1_556 S
C634 H622 0.950 . S
C634 C633 1.396 1_554 S
C634 C635 1.391 . S
C635 H623 0.950 . S
C635 C631 1.393 1_554 S
C635 C634 1.391 . S
C165 C1 0.995 . S
C171 C96 1.003 . S
C185 C18 1.368 . S
C191 C55 1.369 . S
C205 C66 1.049 . S
C211 C27 1.052 . S
C225 C81 1.408 . S
C231 C49 1.410 . S
C245 C114 1.026 . S
C251 C92 1.028 . S
C265 C118 1.257 . S
C271 C62 1.237 . S
C285 C140 1.389 . S
C291 C70 1.335 . S
C305 C144 1.187 . S
C311 C88 1.199 . S
C325 C14 1.024 . S
C331 C122 1.027 . S
C345 C133 1.199 . S
C351 C31 1.207 . S
C365 C42 1.378 . S
C371 C148 1.394 . S
C385 C107 1.222 . S
C391 C5 1.208 . S
C405 C83 1.702 1_455 S
C411 C10 1.696 . S
C425 C94 1.662 . S
C431 C16 1.662 . S
C445 C57 1.716 . S
C451 C36 1.720 . S
C465 C40 1.757 . S
C471 C75 1.698 . S
C485 C101 1.770 . S
C491 C68 1.686 1_545 S
C505 C53 1.645 1_655 S
C511 C79 1.645 . S
C525 C44 1.622 . S
C531 C23 1.615 . S
C545 C29 1.750 . S
C551 C3 1.753 . S
C565 C109 1.870 1_556 S
C571 C127 1.867 . S
C585 C120 1.705 . S
C591 C131 1.694 1_556 S
C605 C153 1.525 . S
C611 C135 1.531 1_556 S
C625 C105 1.697 . S
C631 C146 1.702 . S
