# Generated by pormake.
# Topology wjf, (4)-cn, num edge types: 1
# Building blocks:
#     Node 0, Type 0, BuildingBlock: QUQFOY_clean_sbu_1, # of connection points: 4
#     Node 1, Type 0, BuildingBlock: QUQFOY_clean_sbu_1, # of connection points: 4
#     Node 2, Type 0, BuildingBlock: QUQFOY_clean_sbu_1, # of connection points: 4
#     Node 3, Type 0, BuildingBlock: QUQFOY_clean_sbu_1, # of connection points: 4
#     Node 4, Type 0, BuildingBlock: QUQFOY_clean_sbu_1, # of connection points: 4
#     Node 5, Type 0, BuildingBlock: QUQFOY_clean_sbu_1, # of connection points: 4
#     Node 6, Type 0, BuildingBlock: QUQFOY_clean_sbu_1, # of connection points: 4
#     Node 7, Type 0, BuildingBlock: QUQFOY_clean_sbu_1, # of connection points: 4
#     Node 8, Type 0, BuildingBlock: QUQFOY_clean_sbu_1, # of connection points: 4
#     Node 9, Type 0, BuildingBlock: QUQFOY_clean_sbu_1, # of connection points: 4
#     Node 10, Type 0, BuildingBlock: QUQFOY_clean_sbu_1, # of connection points: 4
#     Node 11, Type 0, BuildingBlock: QUQFOY_clean_sbu_1, # of connection points: 4
#     Edge 12, Type (0, 0), BuildingBlock: AJUNOK_clean_linker_0, # of connection points: 2
#     Edge 13, Type (0, 0), BuildingBlock: AJUNOK_clean_linker_0, # of connection points: 2
#     Edge 14, Type (0, 0), BuildingBlock: AJUNOK_clean_linker_0, # of connection points: 2
#     Edge 15, Type (0, 0), BuildingBlock: AJUNOK_clean_linker_0, # of connection points: 2
#     Edge 16, Type (0, 0), BuildingBlock: AJUNOK_clean_linker_0, # of connection points: 2
#     Edge 17, Type (0, 0), BuildingBlock: AJUNOK_clean_linker_0, # of connection points: 2
#     Edge 18, Type (0, 0), BuildingBlock: AJUNOK_clean_linker_0, # of connection points: 2
#     Edge 19, Type (0, 0), BuildingBlock: AJUNOK_clean_linker_0, # of connection points: 2
#     Edge 20, Type (0, 0), BuildingBlock: AJUNOK_clean_linker_0, # of connection points: 2
#     Edge 21, Type (0, 0), BuildingBlock: AJUNOK_clean_linker_0, # of connection points: 2
#     Edge 22, Type (0, 0), BuildingBlock: AJUNOK_clean_linker_0, # of connection points: 2
#     Edge 23, Type (0, 0), BuildingBlock: AJUNOK_clean_linker_0, # of connection points: 2
#     Edge 24, Type (0, 0), BuildingBlock: AJUNOK_clean_linker_0, # of connection points: 2
#     Edge 25, Type (0, 0), BuildingBlock: AJUNOK_clean_linker_0, # of connection points: 2
#     Edge 26, Type (0, 0), BuildingBlock: AJUNOK_clean_linker_0, # of connection points: 2
#     Edge 27, Type (0, 0), BuildingBlock: AJUNOK_clean_linker_0, # of connection points: 2
#     Edge 28, Type (0, 0), BuildingBlock: AJUNOK_clean_linker_0, # of connection points: 2
#     Edge 29, Type (0, 0), BuildingBlock: AJUNOK_clean_linker_0, # of connection points: 2
#     Edge 30, Type (0, 0), BuildingBlock: AJUNOK_clean_linker_0, # of connection points: 2
#     Edge 31, Type (0, 0), BuildingBlock: AJUNOK_clean_linker_0, # of connection points: 2
#     Edge 32, Type (0, 0), BuildingBlock: AJUNOK_clean_linker_0, # of connection points: 2
#     Edge 33, Type (0, 0), BuildingBlock: AJUNOK_clean_linker_0, # of connection points: 2
#     Edge 34, Type (0, 0), BuildingBlock: AJUNOK_clean_linker_0, # of connection points: 2
#     Edge 35, Type (0, 0), BuildingBlock: AJUNOK_clean_linker_0, # of connection points: 2
# Relax obj value: 0.016
# Max RMSD: 0.063
# Mean RMSD: 0.063
data_MOF--net-wjf--node1-QUQFOY_clean_sbu_1--edge1-AJUNOK_clean_linker_0
_symmetry_space_group_name_H-M    P1
_symmetry_Int_Tables_number       1
_symmetry_cell_setting            triclinic
loop_
_symmetry_equiv_pos_as_xyz
'x, y, z'
_cell_length_a     40.367731
_cell_length_b     40.373862
_cell_length_c     20.978069
_cell_angle_alpha  89.932768
_cell_angle_beta   90.060572
_cell_angle_gamma 120.06326
loop_
_atom_site_label
_atom_site_type_symbol
_atom_site_fract_x
_atom_site_fract_y
_atom_site_fract_z
_atom_type_partial_charge
O0 O 0.34172 0.39349 0.97627 0.0
Cd1 Cd 0.34835 0.42796 0.05259 0.0
Cd2 Cd 0.35688 0.37232 0.1102 0.0
O3 O 0.33231 0.34173 1.02751 0.0
O4 O 0.32667 0.46006 1.02117 0.0
O5 O 0.29875 0.41494 0.09474 0.0
C6 C 0.29729 0.43936 0.05656 0.0
C7 C 0.34041 0.34777 0.21393 0.0
C8 C 0.33243 0.35842 0.97594 0.0
C9 C 0.42668 0.45065 0.09676 0.0
O10 O 0.41329 0.41488 0.10306 0.0
O11 O 0.40417 0.46342 0.08445 0.0
O12 O 0.35826 0.33704 0.17576 0.0
O13 O 0.32928 0.37042 0.19131 0.0
O14 O 0.95639 0.33339 0.33647 0.0
Cd15 Cd 0.92599 0.34414 0.40324 0.0
Cd16 Cd 0.99374 0.35682 0.47024 0.0
O17 O 1.00445 0.33473 0.38904 0.0
O18 O 0.87804 0.32696 0.35245 0.0
O19 O 0.87952 0.29832 0.44118 0.0
C20 C 0.8608 0.29879 0.39154 0.0
C21 C 1.00424 0.34177 0.57378 0.0
C22 C 0.98542 0.32907 0.33788 0.0
C23 C 0.98113 0.42439 0.44583 0.0
O24 O 1.00305 0.41166 0.46187 0.0
O25 O 0.94719 0.40153 0.42632 0.0
O26 O 0.03221 0.36235 0.53583 0.0
O27 O 0.96993 0.32769 0.55143 0.0
O28 O 0.62932 0.95186 0.6544 0.0
Cd29 Cd 0.5896 0.9231 0.72443 0.0
Cd30 Cd 0.64568 0.98902 0.78838 0.0
O31 O 0.67801 0.99783 0.70693 0.0
O32 O 0.55758 0.87282 0.68044 0.0
O33 O 0.59093 0.87908 0.76767 0.0
C34 C 0.56986 0.85773 0.7215 0.0
C35 C 0.6701 0.99786 0.89252 0.0
C36 C 0.66344 0.97975 0.65537 0.0
C37 C 0.56685 0.97965 0.76687 0.0
O38 O 0.60203 1.00118 0.78019 0.0
O39 O 0.55443 0.94514 0.74936 0.0
O40 O 0.67964 0.02633 0.85449 0.0
O41 O 0.64859 0.96388 0.86974 0.0
O42 O 0.68299 0.62316 0.98972 0.0
Cd43 Cd 0.67261 0.58338 0.05918 0.0
Cd44 Cd 0.65822 0.63786 0.12098 0.0
O45 O 0.68172 0.67053 0.03974 0.0
O46 O 0.68968 0.55189 1.01073 0.0
O47 O 0.71884 0.58394 0.09779 0.0
C48 C 0.71815 0.56384 0.04941 0.0
C49 C 0.67367 0.66208 0.22508 0.0
C50 C 0.68761 0.65663 0.98949 0.0
C51 C 0.59182 0.55727 0.10011 0.0
O52 O 0.60328 0.59224 0.1121 0.0
O53 O 0.61563 0.54679 0.08392 0.0
O54 O 0.65375 0.67074 0.18772 0.0
O55 O 0.68695 0.64143 0.20173 0.0
O56 O 0.06616 0.67368 0.31252 0.0
Cd57 Cd 0.0937 0.66835 0.39063 0.0
Cd58 Cd 0.02705 0.65652 0.44325 0.0
O59 O 0.02168 0.68117 0.36023 0.0
O60 O 0.14747 0.68971 0.35917 0.0
O61 O 0.13044 0.71886 0.43037 0.0
C62 C 0.15621 0.71973 0.39272 0.0
C63 C 0.01926 0.673 0.54678 0.0
C64 C 0.03989 0.68223 0.31009 0.0
C65 C 0.03905 0.58923 0.43444 0.0
O66 O 0.01493 0.60066 0.43632 0.0
O67 O 0.07438 0.61318 0.42502 0.0
O68 O 0.99045 0.65478 0.50899 0.0
O69 O 0.05303 0.6845 0.52379 0.0
O70 O 0.39443 0.06252 0.66336 0.0
Cd71 Cd 0.43473 0.09332 0.73145 0.0
Cd72 Cd 0.38138 0.02576 0.79667 0.0
O73 O 0.34775 0.01476 0.71636 0.0
O74 O 0.46555 0.14176 0.68184 0.0
O75 O 0.43405 0.13909 0.76931 0.0
C76 C 0.45382 0.15841 0.72052 0.0
C77 C 0.35858 0.01918 0.90143 0.0
C78 C 0.36116 0.03327 0.66476 0.0
C79 C 0.46137 0.03926 0.7729 0.0
O80 O 0.42663 0.01606 0.78696 0.0
O81 O 0.47177 0.0734 0.75557 0.0
O82 O 0.34943 0.98977 0.86589 0.0
O83 O 0.37894 0.05261 0.8759 0.0
O84 O 0.62638 0.67885 0.73635 0.0
Cd85 Cd 0.58754 0.66942 0.66539 0.0
Cd86 Cd 0.64197 0.65658 0.60444 0.0
O87 O 0.67474 0.6801 0.68543 0.0
O88 O 0.55569 0.68708 0.71127 0.0
O89 O 0.5896 0.71607 0.62555 0.0
C90 C 0.56865 0.71559 0.67246 0.0
C91 C 0.66425 0.67346 0.4997 0.0
C92 C 0.66016 0.6842 0.73643 0.0
C93 C 0.56232 0.58922 0.62329 0.0
O94 O 0.59754 0.60107 0.61307 0.0
O95 O 0.55124 0.61271 0.63853 0.0
O96 O 0.67466 0.65413 0.53516 0.0
O97 O 0.64315 0.68551 0.5255 0.0
O98 O 0.9547 0.62287 0.05854 0.0
Cd99 Cd 0.92458 0.58296 0.98958 0.0
Cd100 Cd 0.99178 0.63573 0.92522 0.0
O101 O 1.00309 0.66906 1.00587 0.0
O102 O 0.87481 0.55236 0.03574 0.0
O103 O 0.88038 0.58469 0.94765 0.0
C104 C 0.85947 0.56441 0.99482 0.0
C105 C 0.99806 0.65922 0.82103 0.0
C106 C 0.9843 0.6559 0.05727 0.0
C107 C 0.97818 0.55571 0.94875 0.0
O108 O 1.00136 0.59034 0.93387 0.0
O109 O 0.94427 0.54564 0.96684 0.0
O110 O 0.02757 0.66803 0.85618 0.0
O111 O 0.96469 0.63872 0.84664 0.0
O112 O 0.34325 0.95013 0.41184 0.0
Cd113 Cd 0.34927 0.92217 0.33526 0.0
Cd114 Cd 0.36184 0.98879 0.2799 0.0
O115 O 0.33709 0.99497 0.36219 0.0
O116 O 0.32723 0.86855 0.36789 0.0
O117 O 0.29913 0.88546 0.2943 0.0
C118 C 0.29764 0.85982 0.33307 0.0
C119 C 0.34605 0.99715 0.17588 0.0
C120 C 0.33523 0.97678 0.41292 0.0
C121 C 0.42895 0.97625 0.29325 0.0
O122 O 0.41751 1.00028 0.28828 0.0
O123 O 0.4049 0.9411 0.30395 0.0
O124 O 0.36456 0.0258 0.21381 0.0
O125 O 0.33403 0.96326 0.19884 0.0
O126 O 0.3916 0.33236 0.72603 0.0
Cd127 Cd 0.43244 0.34398 0.65804 0.0
Cd128 Cd 0.37734 0.35524 0.59241 0.0
O129 O 0.3443 0.33246 0.67333 0.0
O130 O 0.46384 0.32607 0.70512 0.0
O131 O 0.43254 0.29894 0.6164 0.0
C132 C 0.45266 0.29877 0.66423 0.0
C133 C 0.35378 0.3384 0.48808 0.0
C134 C 0.35794 0.32725 0.72459 0.0
C135 C 0.45642 0.42405 0.61665 0.0
O136 O 0.42163 0.41077 0.60092 0.0
O137 O 0.46811 0.40158 0.63547 0.0
O138 O 0.34438 0.35829 0.52399 0.0
O139 O 0.37481 0.32597 0.51303 0.0
O140 O 0.06663 0.39567 0.08495 0.0
Cd141 Cd 0.09413 0.42918 1.00736 0.0
Cd142 Cd 0.03106 0.3731 0.95166 0.0
O143 O 0.02545 0.34294 0.03466 0.0
O144 O 0.1483 0.46158 0.03695 0.0
O145 O 0.12994 0.41503 0.96581 0.0
C146 C 0.15632 0.44 1.0027 0.0
C147 C 0.02686 0.3504 0.84776 0.0
C148 C 0.04157 0.36032 0.08601 0.0
C149 C 0.03779 0.45036 0.96151 0.0
O150 O 0.01559 0.41443 0.95748 0.0
O151 O 0.07328 0.46372 0.9729 0.0
O152 O 0.99701 0.33776 0.88371 0.0
O153 O 0.0597 0.37378 0.87293 0.0
O154 O 0.68542 0.06395 0.40371 0.0
Cd155 Cd 0.67405 0.09203 0.33306 0.0
Cd156 Cd 0.66348 0.02574 0.27128 0.0
O157 O 0.68727 0.01715 0.35273 0.0
O158 O 0.69214 0.14237 0.3766 0.0
O159 O 0.71965 0.13608 0.29017 0.0
C160 C 0.71982 0.15745 0.33614 0.0
C161 C 0.68066 0.02001 0.16687 0.0
C162 C 0.69167 0.03612 0.40352 0.0
C163 C 0.5942 0.03517 0.29189 0.0
O164 O 0.60757 0.01335 0.27925 0.0
O165 O 0.61664 0.06979 0.30858 0.0
O166 O 0.66163 0.99042 0.20277 0.0
O167 O 0.69224 0.05327 0.19202 0.0
C168 C 0.32341 0.35572 0.32565 0.0
C169 C 0.33728 0.33848 0.28327 0.0
C170 C 0.32677 0.3535 0.39192 0.0
C171 C 0.34423 0.33401 0.41881 0.0
H172 H 0.31149 0.37269 0.30764 0.0
H173 H 0.31721 0.36883 0.42207 0.0
S174 S 0.38003 0.27899 0.32923 0.0
N175 N 0.36518 0.29742 0.27346 0.0
N176 N 0.37162 0.29346 0.39775 0.0
C177 C 0.35574 0.31433 0.37719 0.0
C178 C 0.35222 0.3165 0.30959 0.0
C179 C 0.98011 0.31988 0.68484 0.0
C180 C 0.01122 0.33811 0.64255 0.0
C181 C 0.98566 0.32184 0.7511 0.0
C182 C 0.02257 0.34221 0.77805 0.0
H183 H 0.95102 0.30543 0.66692 0.0
H184 H 0.96056 0.30884 0.78137 0.0
S185 S 0.11406 0.39024 0.68815 0.0
N186 N 0.08067 0.37356 0.63247 0.0
N187 N 0.09099 0.37736 0.75673 0.0
C188 C 0.05408 0.35823 0.73625 0.0
C189 C 0.04844 0.35616 0.66866 0.0
C190 C 0.66378 0.97292 1.0041 0.0
C191 C 0.67962 1.00418 0.96176 0.0
C192 C 0.66636 0.97835 0.0704 0.0
C193 C 0.68484 0.01529 0.09737 0.0
H194 H 0.64763 0.94394 0.98607 0.0
H195 H 0.6521 0.95326 0.10057 0.0
S196 S 0.73604 0.10676 1.00776 0.0
N197 N 0.71827 0.07349 0.95196 0.0
N198 N 0.72293 0.0836 0.07629 0.0
C199 C 0.70314 0.04675 0.05571 0.0
C200 C 0.70058 0.04123 0.98808 0.0
C201 C 0.69314 0.65611 0.3362 0.0
C202 C 0.67731 0.67173 0.29428 0.0
C203 C 0.69085 0.65892 0.40257 0.0
C204 C 0.6726 0.67744 0.43001 0.0
H205 H 0.70585 0.63996 0.31785 0.0
H206 H 0.70196 0.64481 0.43246 0.0
S207 S 0.63154 0.7282 0.34141 0.0
N208 N 0.64656 0.71026 0.28523 0.0
N209 N 0.64218 0.71536 0.40969 0.0
C210 C 0.65905 0.69553 0.38868 0.0
C211 C 0.66142 0.69272 0.32099 0.0
C212 C 0.03961 0.68661 0.72447 0.0
C213 C 1.00278 0.66889 0.75182 0.0
C214 C 0.04482 0.69012 0.65816 0.0
C215 C 0.01343 0.67611 0.61621 0.0
H216 H 0.06472 0.69629 0.75427 0.0
H217 H 0.07366 0.70223 0.63977 0.0
S218 S 0.9113 0.63269 0.66353 0.0
N219 N 0.93461 0.64115 0.73172 0.0
N220 N 0.94431 0.64782 0.60733 0.0
C221 C 0.9766 0.66092 0.64301 0.0
C222 C 0.9713 0.65729 0.71067 0.0
C223 C 0.32865 0.97196 0.0643 0.0
C224 C 0.34294 1.00322 0.10649 0.0
C225 C 0.33181 0.97736 0.99799 0.0
C226 C 0.34944 0.01427 0.97085 0.0
H227 H 0.31652 0.94307 0.08248 0.0
H228 H 0.32187 0.95234 0.96797 0.0
S229 S 0.38648 0.10551 0.05993 0.0
N230 N 0.37155 0.07233 0.1159 0.0
N231 N 0.37756 0.0824 0.99154 0.0
C232 C 0.36142 0.04564 1.01231 0.0
C233 C 0.35816 0.04014 0.07996 0.0
C234 C 0.22744 0.47437 1.02063 0.0
C235 C 0.19252 0.43992 1.01331 0.0
C236 C 0.26142 0.47423 0.03535 0.0
C237 C 0.26117 0.43969 0.04623 0.0
H238 H 0.22855 0.50154 1.0143 0.0
H239 H 0.28796 0.50128 0.03881 0.0
S240 S 0.17688 0.34191 0.03502 0.0
N241 N 0.15981 0.3705 1.0183 0.0
N242 N 0.22304 0.37028 0.04868 0.0
C243 C 0.22629 0.40517 0.0402 0.0
C244 C 0.19212 0.40528 1.02307 0.0
C245 C 0.79701 0.24396 0.42437 0.0
C246 C 0.82262 0.26578 0.37574 0.0
C247 C 0.76266 0.21016 0.41042 0.0
C248 C 0.75314 0.19625 0.34749 0.0
H249 H 0.80388 0.25269 0.47368 0.0
H250 H 0.74435 0.19384 0.44976 0.0
S251 S 0.81033 0.24309 0.20277 0.0
N252 N 0.83555 0.27175 0.26176 0.0
N253 N 0.77174 0.20763 0.23602 0.0
C254 C 0.77816 0.21821 0.29831 0.0
C255 C 0.81267 0.25312 0.31232 0.0
C256 C 0.56261 0.80575 0.6481 0.0
C257 C 0.56409 0.81885 0.7109 0.0
C258 C 0.56294 0.77171 0.6358 0.0
C259 C 0.56356 0.74886 0.68586 0.0
H260 H 0.56313 0.82288 0.60792 0.0
H261 H 0.56345 0.7636 0.58675 0.0
S262 S 0.56499 0.76908 0.85888 0.0
N263 N 0.56486 0.8056 0.8236 0.0
N264 N 0.56398 0.74097 0.80086 0.0
C265 C 0.56318 0.76071 0.74892 0.0
C266 C 0.56387 0.79587 0.76135 0.0
C267 C 0.77374 0.5565 0.08325 0.0
C268 C 0.75123 0.55878 0.03424 0.0
C269 C 0.80758 0.55607 0.06955 0.0
C270 C 0.82081 0.55909 1.00643 0.0
H271 H 0.7655 0.55572 0.13261 0.0
H272 H 0.82443 0.55521 0.10908 0.0
S273 S 0.77198 0.56506 0.86077 0.0
N274 N 0.74385 0.56275 0.91979 0.0
N275 N 0.80806 0.5633 0.89445 0.0
C276 C 0.79817 0.56062 0.95694 0.0
C277 C 0.76323 0.56009 0.97074 0.0
C278 C 0.22694 0.75541 0.3711 0.0
C279 C 0.19259 0.75571 0.38081 0.0
C280 C 0.26099 0.78913 0.35491 0.0
C281 C 0.26134 0.82378 0.3449 0.0
H282 H 0.22755 0.72905 0.37665 0.0
H283 H 0.28711 0.78802 0.3496 0.0
S284 S 0.17875 0.83938 0.36254 0.0
N285 N 0.1611 0.79359 0.37917 0.0
N286 N 0.22444 0.85629 0.34609 0.0
C287 C 0.22703 0.82421 0.35343 0.0
C288 C 0.19282 0.79034 0.37203 0.0
C289 C 0.45929 0.2206 0.75413 0.0
C290 C 0.45896 0.19665 0.70526 0.0
C291 C 0.45959 0.25479 0.74012 0.0
C292 C 0.45845 0.26581 0.67671 0.0
H293 H 0.45854 0.2125 0.80359 0.0
H294 H 0.45879 0.27175 0.77945 0.0
S295 S 0.45852 0.21382 0.53127 0.0
N296 N 0.45921 0.18729 0.59066 0.0
N297 N 0.45839 0.25076 0.56472 0.0
C298 C 0.45902 0.24262 0.62743 0.0
C299 C 0.45967 0.20828 0.64161 0.0
C300 C 0.32084 0.34454 0.79822 0.0
C301 C 0.33863 0.32289 0.78633 0.0
C302 C 0.31538 0.35293 0.86082 0.0
C303 C 0.32696 0.33944 0.91344 0.0
H304 H 0.31476 0.35839 0.75935 0.0
H305 H 0.30469 0.37249 0.86791 0.0
S306 S 0.36662 0.27421 0.90703 0.0
N307 N 0.36168 0.28269 0.8316 0.0
N308 N 0.35085 0.29797 0.94932 0.0
C309 C 0.34015 0.31373 0.90207 0.0
C310 C 0.34615 0.30559 0.83834 0.0
C311 C 0.0399 0.34732 0.26392 0.0
C312 C 1.0005 0.325 0.27613 0.0
C313 C 0.05358 0.35576 0.20122 0.0
C314 C 0.02839 0.34164 0.14882 0.0
H315 H 0.05985 0.36158 0.30262 0.0
H316 H 0.08375 0.37578 0.19382 0.0
S317 S 0.92367 0.27486 0.15611 0.0
N318 N 0.93725 0.28373 0.23142 0.0
N319 N 0.96307 0.29911 0.11349 0.0
C320 C 0.98961 0.31539 0.16052 0.0
C321 C 0.97562 0.30719 0.22435 0.0
C322 C 0.6713 0.96903 0.5408 0.0
C323 C 0.68288 0.99419 0.59329 0.0
C324 C 0.67852 0.98288 0.47807 0.0
C325 C 0.69716 0.02237 0.46583 0.0
H326 H 0.65379 0.93843 0.54809 0.0
H327 H 0.66602 0.96253 0.43936 0.0
S328 S 0.7409 0.10006 0.58596 0.0
N329 N 0.71994 0.06031 0.62857 0.0
N330 N 0.7332 0.08636 0.51065 0.0
C331 C 0.71296 0.04769 0.51768 0.0
C332 C 0.70594 0.03359 0.58155 0.0
C333 C 0.66697 0.70246 0.85112 0.0
C334 C 0.67911 0.68913 0.79904 0.0
C335 C 0.67399 0.69602 0.91408 0.0
C336 C 0.69305 0.67569 0.927 0.0
H337 H 0.64924 0.71523 0.84333 0.0
H338 H 0.66108 0.70363 0.9524 0.0
S339 S 0.7385 0.6429 0.80826 0.0
N340 N 0.71719 0.66101 0.76495 0.0
N341 N 0.73022 0.64874 0.8833 0.0
C342 C 0.70945 0.66653 0.87561 0.0
C343 C 0.70256 0.67335 0.81149 0.0
C344 C 0.98813 0.6719 0.23416 0.0
C345 C 0.02734 0.68762 0.24672 0.0
C346 C 0.9745 0.66553 0.17134 0.0
C347 C 0.99965 0.6751 0.11914 0.0
H348 H 0.96755 0.6611 0.27276 0.0
H349 H 0.94381 0.6502 0.16379 0.0
S350 S 0.10564 0.72564 0.12739 0.0
N351 N 0.09166 0.71902 0.20257 0.0
N352 N 0.06606 0.70738 0.08441 0.0
C353 C 0.03921 0.69537 0.13118 0.0
C354 C 0.05306 0.70146 0.19515 0.0
C355 C 0.34587 0.0291 0.48763 0.0
C356 C 0.32957 0.98978 0.47564 0.0
C357 C 0.35214 0.04296 0.55027 0.0
C358 C 0.34194 0.01793 0.60287 0.0
H359 H 0.35722 0.04954 0.44882 0.0
H360 H 0.36795 0.07367 0.55745 0.0
S361 S 0.28964 0.91191 0.5959 0.0
N362 N 0.29685 0.92562 0.52056 0.0
N363 N 0.30837 0.95166 0.63838 0.0
C364 C 0.32106 0.97836 0.59127 0.0
C365 C 0.31503 0.96428 0.52748 0.0
C366 C 0.48394 0.51697 0.1009 0.0
C367 C 0.46886 0.47711 0.10095 0.0
C368 C 0.52357 0.54243 0.10191 0.0
C369 C 0.54999 0.52924 0.10234 0.0
H370 H 0.46502 0.52873 0.09961 0.0
H371 H 0.53352 0.57282 0.10107 0.0
S372 S 0.52567 0.42759 0.10521 0.0
N373 N 0.48385 0.42562 0.10358 0.0
N374 N 0.55811 0.47354 0.10489 0.0
C375 C 0.53539 0.48947 0.10334 0.0
C376 C 0.49497 0.46347 0.10287 0.0
C377 C 0.98596 0.52084 0.43153 0.0
C378 C 0.02512 0.54754 0.44058 0.0
C379 C 0.97192 0.48127 0.43425 0.0
C380 C 0.99633 0.46655 0.44681 0.0
H381 H 0.9659 0.53051 0.42095 0.0
H382 H 0.94168 0.46211 0.42583 0.0
S383 S 0.10112 0.52435 0.47767 0.0
N384 N 0.0879 0.55641 0.46493 0.0
N385 N 0.06179 0.4823 0.47073 0.0
C386 C 0.0355 0.49301 0.45754 0.0
C387 C 0.04981 0.53334 0.45417 0.0
C388 C 0.50074 0.97102 0.76946 0.0
C389 C 0.54063 0.99559 0.77028 0.0
C390 C 0.47555 0.98547 0.77152 0.0
C391 C 0.48912 0.02516 0.77362 0.0
H392 H 0.48874 0.94029 0.76725 0.0
H393 H 0.44511 0.96522 0.77031 0.0
S394 S 0.59102 0.10196 0.77745 0.0
N395 N 0.59256 0.06191 0.77431 0.0
N396 N 0.54516 0.08879 0.77747 0.0
C397 C 0.52891 0.05009 0.77476 0.0
C398 C 0.55463 0.03541 0.77334 0.0
C399 C 0.54783 0.52116 0.62536 0.0
C400 C 0.53464 0.54742 0.61949 0.0
C401 C 0.52253 0.48149 0.62388 0.0
C402 C 0.48293 0.46629 0.6156 0.0
H403 H 0.578 0.53125 0.63232 0.0
H404 H 0.53419 0.46264 0.62948 0.0
S405 S 0.43384 0.52287 0.59507 0.0
N406 N 0.47945 0.5554 0.60339 0.0
N407 N 0.43185 0.4811 0.59982 0.0
C408 C 0.46941 0.49232 0.60844 0.0
C409 C 0.49521 0.53274 0.61067 0.0
C410 C 0.03179 0.54124 0.94628 0.0
C411 C 0.99213 0.52783 0.94853 0.0
C412 C 0.04625 0.51611 0.94988 0.0
C413 C 0.02168 0.47635 0.9552 0.0
H414 H 0.05212 0.57164 0.94305 0.0
H415 H 0.07697 0.52806 0.94885 0.0
S416 S 0.91526 0.42617 0.9602 0.0
N417 N 0.92845 0.47191 0.95458 0.0
N418 N 0.95533 0.42459 0.96078 0.0
C419 C 0.98185 0.46241 0.95606 0.0
C420 C 0.96716 0.4881 0.95294 0.0
C421 C 0.53686 0.04405 0.29406 0.0
C422 C 0.55197 0.01944 0.28922 0.0
C423 C 0.49721 0.0298 0.294 0.0
C424 C 0.47079 0.99022 0.28974 0.0
H425 H 0.55576 0.07467 0.29829 0.0
H426 H 0.48728 0.05011 0.29853 0.0
S427 S 0.49522 0.91336 0.27427 0.0
N428 N 0.53702 0.95321 0.2784 0.0
N429 N 0.46275 0.92668 0.27882 0.0
C430 C 0.48544 0.96526 0.28406 0.0
C431 C 0.52587 0.97977 0.28361 0.0
loop_
_geom_bond_atom_site_label_1
_geom_bond_atom_site_label_2
_geom_bond_distance
_geom_bond_site_symmetry_2
_ccdc_geom_bond_type
O0 Cd1 2.223 1_556 S
O0 C8 1.315 . S
Cd1 O0 2.223 1_554 S
Cd1 O4 2.297 1_554 S
Cd1 O5 2.439 . S
Cd1 O11 2.240 . S
Cd2 O3 2.240 1_554 S
Cd2 O10 2.223 . S
Cd2 O12 2.297 . S
Cd2 O13 2.439 . S
O3 Cd2 2.240 1_556 S
O3 C8 1.279 . S
O4 Cd1 2.297 1_556 S
O4 C6 1.247 1_556 S
O5 Cd1 2.439 . S
O5 C6 1.208 . S
C6 O4 1.247 1_554 S
C6 O5 1.208 . S
C7 O12 1.247 . S
C7 O13 1.208 . S
C8 O0 1.315 . S
C8 O3 1.279 . S
C9 O10 1.315 . S
C9 O11 1.279 . S
O10 Cd2 2.223 . S
O10 C9 1.315 . S
O11 Cd1 2.240 . S
O11 C9 1.279 . S
O12 Cd2 2.297 . S
O12 C7 1.247 . S
O13 Cd2 2.439 . S
O13 C7 1.208 . S
O14 Cd15 2.223 . S
O14 C22 1.315 . S
Cd15 O14 2.223 . S
Cd15 O18 2.297 . S
Cd15 O19 2.439 . S
Cd15 O25 2.240 . S
Cd16 O17 2.240 1_455 S
Cd16 O24 2.223 . S
Cd16 O26 2.297 . S
Cd16 O27 2.439 1_455 S
O17 Cd16 2.240 1_655 S
O17 C22 1.279 . S
O18 Cd15 2.297 . S
O18 C20 1.247 . S
O19 Cd15 2.439 . S
O19 C20 1.208 . S
C20 O18 1.247 . S
C20 O19 1.208 . S
C21 O26 1.247 1_655 S
C21 O27 1.208 . S
C22 O14 1.315 . S
C22 O17 1.279 . S
C23 O24 1.315 1_655 S
C23 O25 1.279 . S
O24 Cd16 2.223 . S
O24 C23 1.315 1_455 S
O25 Cd15 2.240 . S
O25 C23 1.279 . S
O26 Cd16 2.297 . S
O26 C21 1.247 1_455 S
O27 Cd16 2.439 1_655 S
O27 C21 1.208 . S
O28 Cd29 2.223 . S
O28 C36 1.315 . S
Cd29 O28 2.223 . S
Cd29 O32 2.297 . S
Cd29 O33 2.439 . S
Cd29 O39 2.240 . S
Cd30 O31 2.240 1_545 S
Cd30 O38 2.223 . S
Cd30 O40 2.297 . S
Cd30 O41 2.439 1_545 S
O31 Cd30 2.240 1_565 S
O31 C36 1.279 . S
O32 Cd29 2.297 . S
O32 C34 1.247 . S
O33 Cd29 2.439 . S
O33 C34 1.208 . S
C34 O32 1.247 . S
C34 O33 1.208 . S
C35 O40 1.247 1_565 S
C35 O41 1.208 . S
C36 O28 1.315 . S
C36 O31 1.279 . S
C37 O38 1.315 1_565 S
C37 O39 1.279 . S
O38 Cd30 2.223 . S
O38 C37 1.315 1_545 S
O39 Cd29 2.240 . S
O39 C37 1.279 . S
O40 Cd30 2.297 . S
O40 C35 1.247 1_545 S
O41 Cd30 2.439 1_565 S
O41 C35 1.208 . S
O42 Cd43 2.223 1_556 S
O42 C50 1.315 . S
Cd43 O42 2.223 1_554 S
Cd43 O46 2.297 1_554 S
Cd43 O47 2.439 . S
Cd43 O53 2.240 . S
Cd44 O45 2.240 1_554 S
Cd44 O52 2.223 . S
Cd44 O54 2.297 . S
Cd44 O55 2.439 . S
O45 Cd44 2.240 1_556 S
O45 C50 1.279 . S
O46 Cd43 2.297 1_556 S
O46 C48 1.247 1_556 S
O47 Cd43 2.439 . S
O47 C48 1.208 . S
C48 O46 1.247 1_554 S
C48 O47 1.208 . S
C49 O54 1.247 . S
C49 O55 1.208 . S
C50 O42 1.315 . S
C50 O45 1.279 . S
C51 O52 1.315 . S
C51 O53 1.279 . S
O52 Cd44 2.223 . S
O52 C51 1.315 . S
O53 Cd43 2.240 . S
O53 C51 1.279 . S
O54 Cd44 2.297 . S
O54 C49 1.247 . S
O55 Cd44 2.439 . S
O55 C49 1.208 . S
O56 Cd57 2.223 . S
O56 C64 1.315 . S
Cd57 O56 2.223 . S
Cd57 O60 2.297 . S
Cd57 O61 2.439 . S
Cd57 O67 2.240 . S
Cd58 O59 2.240 1_655 S
Cd58 O66 2.223 . S
Cd58 O68 2.297 . S
Cd58 O69 2.439 1_655 S
O59 Cd58 2.240 1_455 S
O59 C64 1.279 . S
O60 Cd57 2.297 . S
O60 C62 1.247 . S
O61 Cd57 2.439 . S
O61 C62 1.208 . S
C62 O60 1.247 . S
C62 O61 1.208 . S
C63 O68 1.247 1_455 S
C63 O69 1.208 . S
C64 O56 1.315 . S
C64 O59 1.279 . S
C65 O66 1.315 1_455 S
C65 O67 1.279 . S
O66 Cd58 2.223 . S
O66 C65 1.315 1_655 S
O67 Cd57 2.240 . S
O67 C65 1.279 . S
O68 Cd58 2.297 . S
O68 C63 1.247 1_655 S
O69 Cd58 2.439 1_455 S
O69 C63 1.208 . S
O70 Cd71 2.223 . S
O70 C78 1.315 . S
Cd71 O70 2.223 . S
Cd71 O74 2.297 . S
Cd71 O75 2.439 . S
Cd71 O81 2.240 . S
Cd72 O73 2.240 1_565 S
Cd72 O80 2.223 . S
Cd72 O82 2.297 . S
Cd72 O83 2.439 1_565 S
O73 Cd72 2.240 1_545 S
O73 C78 1.279 . S
O74 Cd71 2.297 . S
O74 C76 1.247 . S
O75 Cd71 2.439 . S
O75 C76 1.208 . S
C76 O74 1.247 . S
C76 O75 1.208 . S
C77 O82 1.247 1_545 S
C77 O83 1.208 . S
C78 O70 1.315 . S
C78 O73 1.279 . S
C79 O80 1.315 1_545 S
C79 O81 1.279 . S
O80 Cd72 2.223 . S
O80 C79 1.315 1_565 S
O81 Cd71 2.240 . S
O81 C79 1.279 . S
O82 Cd72 2.297 . S
O82 C77 1.247 1_565 S
O83 Cd72 2.439 1_545 S
O83 C77 1.208 . S
O84 Cd85 2.223 . S
O84 C92 1.315 . S
Cd85 O84 2.223 . S
Cd85 O88 2.297 . S
Cd85 O89 2.439 . S
Cd85 O95 2.240 . S
Cd86 O87 2.240 . S
Cd86 O94 2.223 . S
Cd86 O96 2.297 . S
Cd86 O97 2.439 . S
O87 Cd86 2.240 . S
O87 C92 1.279 . S
O88 Cd85 2.297 . S
O88 C90 1.247 . S
O89 Cd85 2.439 . S
O89 C90 1.208 . S
C90 O88 1.247 . S
C90 O89 1.208 . S
C91 O96 1.247 . S
C91 O97 1.208 . S
C92 O84 1.315 . S
C92 O87 1.279 . S
C93 O94 1.315 . S
C93 O95 1.279 . S
O94 Cd86 2.223 . S
O94 C93 1.315 . S
O95 Cd85 2.240 . S
O95 C93 1.279 . S
O96 Cd86 2.297 . S
O96 C91 1.247 . S
O97 Cd86 2.439 . S
O97 C91 1.208 . S
O98 Cd99 2.223 1_554 S
O98 C106 1.315 . S
Cd99 O98 2.223 1_556 S
Cd99 O102 2.297 1_556 S
Cd99 O103 2.439 . S
Cd99 O109 2.240 . S
Cd100 O101 2.240 1_456 S
Cd100 O108 2.223 . S
Cd100 O110 2.297 . S
Cd100 O111 2.439 1_455 S
O101 Cd100 2.240 1_654 S
O101 C106 1.279 . S
O102 Cd99 2.297 1_554 S
O102 C104 1.247 1_554 S
O103 Cd99 2.439 . S
O103 C104 1.208 . S
C104 O102 1.247 1_556 S
C104 O103 1.208 . S
C105 O110 1.247 1_655 S
C105 O111 1.208 . S
C106 O98 1.315 . S
C106 O101 1.279 . S
C107 O108 1.315 1_655 S
C107 O109 1.279 . S
O108 Cd100 2.223 . S
O108 C107 1.315 1_455 S
O109 Cd99 2.240 . S
O109 C107 1.279 . S
O110 Cd100 2.297 . S
O110 C105 1.247 1_455 S
O111 Cd100 2.439 1_655 S
O111 C105 1.208 . S
O112 Cd113 2.223 . S
O112 C120 1.315 . S
Cd113 O112 2.223 . S
Cd113 O116 2.297 . S
Cd113 O117 2.439 . S
Cd113 O123 2.240 . S
Cd114 O115 2.240 1_545 S
Cd114 O122 2.223 . S
Cd114 O124 2.297 . S
Cd114 O125 2.439 1_545 S
O115 Cd114 2.240 1_565 S
O115 C120 1.279 . S
O116 Cd113 2.297 . S
O116 C118 1.247 . S
O117 Cd113 2.439 . S
O117 C118 1.208 . S
C118 O116 1.247 . S
C118 O117 1.208 . S
C119 O124 1.247 1_565 S
C119 O125 1.208 . S
C120 O112 1.315 . S
C120 O115 1.279 . S
C121 O122 1.315 1_565 S
C121 O123 1.279 . S
O122 Cd114 2.223 . S
O122 C121 1.315 1_545 S
O123 Cd113 2.240 . S
O123 C121 1.279 . S
O124 Cd114 2.297 . S
O124 C119 1.247 1_545 S
O125 Cd114 2.439 1_565 S
O125 C119 1.208 . S
O126 Cd127 2.223 . S
O126 C134 1.315 . S
Cd127 O126 2.223 . S
Cd127 O130 2.297 . S
Cd127 O131 2.439 . S
Cd127 O137 2.240 . S
Cd128 O129 2.240 . S
Cd128 O136 2.223 . S
Cd128 O138 2.297 . S
Cd128 O139 2.439 . S
O129 Cd128 2.240 . S
O129 C134 1.279 . S
O130 Cd127 2.297 . S
O130 C132 1.247 . S
O131 Cd127 2.439 . S
O131 C132 1.208 . S
C132 O130 1.247 . S
C132 O131 1.208 . S
C133 O138 1.247 . S
C133 O139 1.208 . S
C134 O126 1.315 . S
C134 O129 1.279 . S
C135 O136 1.315 . S
C135 O137 1.279 . S
O136 Cd128 2.223 . S
O136 C135 1.315 . S
O137 Cd127 2.240 . S
O137 C135 1.279 . S
O138 Cd128 2.297 . S
O138 C133 1.247 . S
O139 Cd128 2.439 . S
O139 C133 1.208 . S
O140 Cd141 2.223 1_554 S
O140 C148 1.315 . S
Cd141 O140 2.223 1_556 S
Cd141 O144 2.297 1_556 S
Cd141 O145 2.439 . S
Cd141 O151 2.240 . S
Cd142 O143 2.240 1_656 S
Cd142 O150 2.223 . S
Cd142 O152 2.297 . S
Cd142 O153 2.439 1_655 S
O143 Cd142 2.240 1_454 S
O143 C148 1.279 . S
O144 Cd141 2.297 1_554 S
O144 C146 1.247 1_554 S
O145 Cd141 2.439 . S
O145 C146 1.208 . S
C146 O144 1.247 1_556 S
C146 O145 1.208 . S
C147 O152 1.247 1_455 S
C147 O153 1.208 . S
C148 O140 1.315 . S
C148 O143 1.279 . S
C149 O150 1.315 1_455 S
C149 O151 1.279 . S
O150 Cd142 2.223 . S
O150 C149 1.315 1_655 S
O151 Cd141 2.240 . S
O151 C149 1.279 . S
O152 Cd142 2.297 . S
O152 C147 1.247 1_655 S
O153 Cd142 2.439 1_455 S
O153 C147 1.208 . S
O154 Cd155 2.223 . S
O154 C162 1.315 . S
Cd155 O154 2.223 . S
Cd155 O158 2.297 . S
Cd155 O159 2.439 . S
Cd155 O165 2.240 . S
Cd156 O157 2.240 1_565 S
Cd156 O164 2.223 . S
Cd156 O166 2.297 . S
Cd156 O167 2.439 1_565 S
O157 Cd156 2.240 1_545 S
O157 C162 1.279 . S
O158 Cd155 2.297 . S
O158 C160 1.247 . S
O159 Cd155 2.439 . S
O159 C160 1.208 . S
C160 O158 1.247 . S
C160 O159 1.208 . S
C161 O166 1.247 1_545 S
C161 O167 1.208 . S
C162 O154 1.315 . S
C162 O157 1.279 . S
C163 O164 1.315 1_545 S
C163 O165 1.279 . S
O164 Cd156 2.223 . S
O164 C163 1.315 1_565 S
O165 Cd155 2.240 . S
O165 C163 1.279 . S
O166 Cd156 2.297 . S
O166 C161 1.247 1_565 S
O167 Cd156 2.439 1_545 S
O167 C161 1.208 . S
C168 C169 1.369 . S
C168 C170 1.419 . S
C168 H172 0.930 . S
C169 C168 1.369 . S
C169 C178 1.429 . S
C170 C168 1.419 . S
C170 C171 1.363 . S
C170 H173 0.929 . S
C171 C170 1.363 . S
C171 C177 1.428 . S
H172 C168 0.930 . S
H173 C170 0.929 . S
S174 N175 1.613 . S
S174 N176 1.610 . S
N175 S174 1.613 . S
N175 C178 1.350 . S
N176 S174 1.610 . S
N176 C177 1.351 . S
C177 C171 1.428 . S
C177 N176 1.351 . S
C177 C178 1.434 . S
C178 C169 1.429 . S
C178 N175 1.350 . S
C178 C177 1.434 . S
C179 C180 1.369 . S
C179 C181 1.419 . S
C179 H183 0.930 . S
C180 C179 1.369 . S
C180 C189 1.429 1_655 S
C181 C179 1.419 . S
C181 C182 1.363 1_655 S
C181 H184 0.929 . S
C182 C181 1.363 1_455 S
C182 C188 1.428 . S
H183 C179 0.930 . S
H184 C181 0.929 . S
S185 N186 1.613 . S
S185 N187 1.610 . S
N186 S185 1.613 . S
N186 C189 1.350 . S
N187 S185 1.610 . S
N187 C188 1.351 . S
C188 C182 1.428 . S
C188 N187 1.351 . S
C188 C189 1.434 . S
C189 C180 1.429 1_455 S
C189 N186 1.350 . S
C189 C188 1.434 . S
C190 C191 1.369 . S
C190 C192 1.419 1_556 S
C190 H194 0.930 . S
C191 C190 1.369 . S
C191 C200 1.429 1_565 S
C192 C190 1.419 1_554 S
C192 C193 1.363 1_565 S
C192 H195 0.929 . S
C193 C192 1.363 1_545 S
C193 C199 1.428 . S
H194 C190 0.930 . S
H195 C192 0.929 . S
S196 N197 1.613 . S
S196 N198 1.610 1_556 S
N197 S196 1.613 . S
N197 C200 1.350 . S
N198 S196 1.610 1_554 S
N198 C199 1.351 . S
C199 C193 1.428 . S
C199 N198 1.351 . S
C199 C200 1.434 1_554 S
C200 C191 1.429 1_545 S
C200 N197 1.350 . S
C200 C199 1.434 1_556 S
C201 C202 1.369 . S
C201 C203 1.419 . S
C201 H205 0.930 . S
C202 C201 1.369 . S
C202 C211 1.429 . S
C203 C201 1.419 . S
C203 C204 1.363 . S
C203 H206 0.929 . S
C204 C203 1.363 . S
C204 C210 1.428 . S
H205 C201 0.930 . S
H206 C203 0.929 . S
S207 N208 1.613 . S
S207 N209 1.610 . S
N208 S207 1.613 . S
N208 C211 1.350 . S
N209 S207 1.610 . S
N209 C210 1.351 . S
C210 C204 1.428 . S
C210 N209 1.351 . S
C210 C211 1.434 . S
C211 C202 1.429 . S
C211 N208 1.350 . S
C211 C210 1.434 . S
C212 C213 1.369 1_455 S
C212 C214 1.419 . S
C212 H216 0.930 . S
C213 C212 1.369 1_655 S
C213 C222 1.429 . S
C214 C212 1.419 . S
C214 C215 1.363 . S
C214 H217 0.929 . S
C215 C214 1.363 . S
C215 C221 1.428 1_455 S
H216 C212 0.930 . S
H217 C214 0.929 . S
S218 N219 1.613 . S
S218 N220 1.610 . S
N219 S218 1.613 . S
N219 C222 1.350 . S
N220 S218 1.610 . S
N220 C221 1.351 . S
C221 C215 1.428 1_655 S
C221 N220 1.351 . S
C221 C222 1.434 . S
C222 C213 1.429 . S
C222 N219 1.350 . S
C222 C221 1.434 . S
C223 C224 1.369 . S
C223 C225 1.419 1_554 S
C223 H227 0.930 . S
C224 C223 1.369 . S
C224 C233 1.429 1_565 S
C225 C223 1.419 1_556 S
C225 C226 1.363 1_565 S
C225 H228 0.929 . S
C226 C225 1.363 1_545 S
C226 C232 1.428 . S
H227 C223 0.930 . S
H228 C225 0.929 . S
S229 N230 1.613 . S
S229 N231 1.610 1_554 S
N230 S229 1.613 . S
N230 C233 1.350 . S
N231 S229 1.610 1_556 S
N231 C232 1.351 . S
C232 C226 1.428 . S
C232 N231 1.351 . S
C232 C233 1.434 1_556 S
C233 C224 1.429 1_545 S
C233 N230 1.350 . S
C233 C232 1.434 1_554 S
C234 C235 1.369 . S
C234 C236 1.419 . S
C234 H238 0.930 . S
C235 C234 1.369 . S
C235 C244 1.429 1_556 S
C236 C234 1.419 . S
C236 C237 1.363 1_556 S
C236 H239 0.929 . S
C237 C236 1.363 1_554 S
C237 C243 1.428 . S
H238 C234 0.930 . S
H239 C236 0.929 . S
S240 N241 1.613 . S
S240 N242 1.610 . S
N241 S240 1.613 . S
N241 C244 1.350 . S
N242 S240 1.610 . S
N242 C243 1.351 . S
C243 C237 1.428 . S
C243 N242 1.351 . S
C243 C244 1.434 . S
C244 C235 1.429 1_554 S
C244 N241 1.350 . S
C244 C243 1.434 . S
C245 C246 1.369 . S
C245 C247 1.419 . S
C245 H249 0.930 . S
C246 C245 1.369 . S
C246 C255 1.429 . S
C247 C245 1.419 . S
C247 C248 1.363 . S
C247 H250 0.929 . S
C248 C247 1.363 . S
C248 C254 1.428 . S
H249 C245 0.930 . S
H250 C247 0.929 . S
S251 N252 1.613 . S
S251 N253 1.610 . S
N252 S251 1.613 . S
N252 C255 1.350 . S
N253 S251 1.610 . S
N253 C254 1.351 . S
C254 C248 1.428 . S
C254 N253 1.351 . S
C254 C255 1.434 . S
C255 C246 1.429 . S
C255 N252 1.350 . S
C255 C254 1.434 . S
C256 C257 1.369 . S
C256 C258 1.419 . S
C256 H260 0.930 . S
C257 C256 1.369 . S
C257 C266 1.429 . S
C258 C256 1.419 . S
C258 C259 1.363 . S
C258 H261 0.929 . S
C259 C258 1.363 . S
C259 C265 1.428 . S
H260 C256 0.930 . S
H261 C258 0.929 . S
S262 N263 1.613 . S
S262 N264 1.610 . S
N263 S262 1.613 . S
N263 C266 1.350 . S
N264 S262 1.610 . S
N264 C265 1.351 . S
C265 C259 1.428 . S
C265 N264 1.351 . S
C265 C266 1.434 . S
C266 C257 1.429 . S
C266 N263 1.350 . S
C266 C265 1.434 . S
C267 C268 1.369 . S
C267 C269 1.419 . S
C267 H271 0.930 . S
C268 C267 1.369 . S
C268 C277 1.429 1_554 S
C269 C267 1.419 . S
C269 C270 1.363 1_554 S
C269 H272 0.929 . S
C270 C269 1.363 1_556 S
C270 C276 1.428 . S
H271 C267 0.930 . S
H272 C269 0.929 . S
S273 N274 1.613 . S
S273 N275 1.610 . S
N274 S273 1.613 . S
N274 C277 1.350 . S
N275 S273 1.610 . S
N275 C276 1.351 . S
C276 C270 1.428 . S
C276 N275 1.351 . S
C276 C277 1.434 . S
C277 C268 1.429 1_556 S
C277 N274 1.350 . S
C277 C276 1.434 . S
C278 C279 1.369 . S
C278 C280 1.419 . S
C278 H282 0.930 . S
C279 C278 1.369 . S
C279 C288 1.429 . S
C280 C278 1.419 . S
C280 C281 1.363 . S
C280 H283 0.929 . S
C281 C280 1.363 . S
C281 C287 1.428 . S
H282 C278 0.930 . S
H283 C280 0.929 . S
S284 N285 1.613 . S
S284 N286 1.610 . S
N285 S284 1.613 . S
N285 C288 1.350 . S
N286 S284 1.610 . S
N286 C287 1.351 . S
C287 C281 1.428 . S
C287 N286 1.351 . S
C287 C288 1.434 . S
C288 C279 1.429 . S
C288 N285 1.350 . S
C288 C287 1.434 . S
C289 C290 1.369 . S
C289 C291 1.419 . S
C289 H293 0.930 . S
C290 C289 1.369 . S
C290 C299 1.429 . S
C291 C289 1.419 . S
C291 C292 1.363 . S
C291 H294 0.929 . S
C292 C291 1.363 . S
C292 C298 1.428 . S
H293 C289 0.930 . S
H294 C291 0.929 . S
S295 N296 1.613 . S
S295 N297 1.610 . S
N296 S295 1.613 . S
N296 C299 1.350 . S
N297 S295 1.610 . S
N297 C298 1.351 . S
C298 C292 1.428 . S
C298 N297 1.351 . S
C298 C299 1.434 . S
C299 C290 1.429 . S
C299 N296 1.350 . S
C299 C298 1.434 . S
C300 C301 1.369 . S
C300 C302 1.419 . S
C300 H304 0.930 . S
C301 C300 1.369 . S
C301 C310 1.429 . S
C302 C300 1.419 . S
C302 C303 1.363 . S
C302 H305 0.929 . S
C303 C302 1.363 . S
C303 C309 1.428 . S
H304 C300 0.930 . S
H305 C302 0.929 . S
S306 N307 1.613 . S
S306 N308 1.610 . S
N307 S306 1.613 . S
N307 C310 1.350 . S
N308 S306 1.610 . S
N308 C309 1.351 . S
C309 C303 1.428 . S
C309 N308 1.351 . S
C309 C310 1.434 . S
C310 C301 1.429 . S
C310 N307 1.350 . S
C310 C309 1.434 . S
C311 C312 1.369 1_455 S
C311 C313 1.419 . S
C311 H315 0.930 . S
C312 C311 1.369 1_655 S
C312 C321 1.429 . S
C313 C311 1.419 . S
C313 C314 1.363 . S
C313 H316 0.929 . S
C314 C313 1.363 . S
C314 C320 1.428 1_455 S
H315 C311 0.930 . S
H316 C313 0.929 . S
S317 N318 1.613 . S
S317 N319 1.610 . S
N318 S317 1.613 . S
N318 C321 1.350 . S
N319 S317 1.610 . S
N319 C320 1.351 . S
C320 C314 1.428 1_655 S
C320 N319 1.351 . S
C320 C321 1.434 . S
C321 C312 1.429 . S
C321 N318 1.350 . S
C321 C320 1.434 . S
C322 C323 1.369 . S
C322 C324 1.419 . S
C322 H326 0.930 . S
C323 C322 1.369 . S
C323 C332 1.429 1_565 S
C324 C322 1.419 . S
C324 C325 1.363 1_565 S
C324 H327 0.929 . S
C325 C324 1.363 1_545 S
C325 C331 1.428 . S
H326 C322 0.930 . S
H327 C324 0.929 . S
S328 N329 1.613 . S
S328 N330 1.610 . S
N329 S328 1.613 . S
N329 C332 1.350 . S
N330 S328 1.610 . S
N330 C331 1.351 . S
C331 C325 1.428 . S
C331 N330 1.351 . S
C331 C332 1.434 . S
C332 C323 1.429 1_545 S
C332 N329 1.350 . S
C332 C331 1.434 . S
C333 C334 1.369 . S
C333 C335 1.419 . S
C333 H337 0.930 . S
C334 C333 1.369 . S
C334 C343 1.429 . S
C335 C333 1.419 . S
C335 C336 1.363 . S
C335 H338 0.929 . S
C336 C335 1.363 . S
C336 C342 1.428 . S
H337 C333 0.930 . S
H338 C335 0.929 . S
S339 N340 1.613 . S
S339 N341 1.610 . S
N340 S339 1.613 . S
N340 C343 1.350 . S
N341 S339 1.610 . S
N341 C342 1.351 . S
C342 C336 1.428 . S
C342 N341 1.351 . S
C342 C343 1.434 . S
C343 C334 1.429 . S
C343 N340 1.350 . S
C343 C342 1.434 . S
C344 C345 1.369 1_655 S
C344 C346 1.419 . S
C344 H348 0.930 . S
C345 C344 1.369 1_455 S
C345 C354 1.429 . S
C346 C344 1.419 . S
C346 C347 1.363 . S
C346 H349 0.929 . S
C347 C346 1.363 . S
C347 C353 1.428 1_655 S
H348 C344 0.930 . S
H349 C346 0.929 . S
S350 N351 1.613 . S
S350 N352 1.610 . S
N351 S350 1.613 . S
N351 C354 1.350 . S
N352 S350 1.610 . S
N352 C353 1.351 . S
C353 C347 1.428 1_455 S
C353 N352 1.351 . S
C353 C354 1.434 . S
C354 C345 1.429 . S
C354 N351 1.350 . S
C354 C353 1.434 . S
C355 C356 1.369 1_545 S
C355 C357 1.419 . S
C355 H359 0.930 . S
C356 C355 1.369 1_565 S
C356 C365 1.429 . S
C357 C355 1.419 . S
C357 C358 1.363 . S
C357 H360 0.929 . S
C358 C357 1.363 . S
C358 C364 1.428 1_545 S
H359 C355 0.930 . S
H360 C357 0.929 . S
S361 N362 1.613 . S
S361 N363 1.610 . S
N362 S361 1.613 . S
N362 C365 1.350 . S
N363 S361 1.610 . S
N363 C364 1.351 . S
C364 C358 1.428 1_565 S
C364 N363 1.351 . S
C364 C365 1.434 . S
C365 C356 1.429 . S
C365 N362 1.350 . S
C365 C364 1.434 . S
C366 C367 1.369 . S
C366 C368 1.419 . S
C366 H370 0.930 . S
C367 C366 1.369 . S
C367 C376 1.429 . S
C368 C366 1.419 . S
C368 C369 1.363 . S
C368 H371 0.929 . S
C369 C368 1.363 . S
C369 C375 1.428 . S
H370 C366 0.930 . S
H371 C368 0.929 . S
S372 N373 1.613 . S
S372 N374 1.610 . S
N373 S372 1.613 . S
N373 C376 1.350 . S
N374 S372 1.610 . S
N374 C375 1.351 . S
C375 C369 1.428 . S
C375 N374 1.351 . S
C375 C376 1.434 . S
C376 C367 1.429 . S
C376 N373 1.350 . S
C376 C375 1.434 . S
C377 C378 1.369 1_655 S
C377 C379 1.419 . S
C377 H381 0.930 . S
C378 C377 1.369 1_455 S
C378 C387 1.429 . S
C379 C377 1.419 . S
C379 C380 1.363 . S
C379 H382 0.929 . S
C380 C379 1.363 . S
C380 C386 1.428 1_655 S
H381 C377 0.930 . S
H382 C379 0.929 . S
S383 N384 1.613 . S
S383 N385 1.610 . S
N384 S383 1.613 . S
N384 C387 1.350 . S
N385 S383 1.610 . S
N385 C386 1.351 . S
C386 C380 1.428 1_455 S
C386 N385 1.351 . S
C386 C387 1.434 . S
C387 C378 1.429 . S
C387 N384 1.350 . S
C387 C386 1.434 . S
C388 C389 1.369 . S
C388 C390 1.419 . S
C388 H392 0.930 . S
C389 C388 1.369 . S
C389 C398 1.429 1_565 S
C390 C388 1.419 . S
C390 C391 1.363 1_565 S
C390 H393 0.929 . S
C391 C390 1.363 1_545 S
C391 C397 1.428 . S
H392 C388 0.930 . S
H393 C390 0.929 . S
S394 N395 1.613 . S
S394 N396 1.610 . S
N395 S394 1.613 . S
N395 C398 1.350 . S
N396 S394 1.610 . S
N396 C397 1.351 . S
C397 C391 1.428 . S
C397 N396 1.351 . S
C397 C398 1.434 . S
C398 C389 1.429 1_545 S
C398 N395 1.350 . S
C398 C397 1.434 . S
C399 C400 1.369 . S
C399 C401 1.419 . S
C399 H403 0.930 . S
C400 C399 1.369 . S
C400 C409 1.429 . S
C401 C399 1.419 . S
C401 C402 1.363 . S
C401 H404 0.929 . S
C402 C401 1.363 . S
C402 C408 1.428 . S
H403 C399 0.930 . S
H404 C401 0.929 . S
S405 N406 1.613 . S
S405 N407 1.610 . S
N406 S405 1.613 . S
N406 C409 1.350 . S
N407 S405 1.610 . S
N407 C408 1.351 . S
C408 C402 1.428 . S
C408 N407 1.351 . S
C408 C409 1.434 . S
C409 C400 1.429 . S
C409 N406 1.350 . S
C409 C408 1.434 . S
C410 C411 1.369 1_455 S
C410 C412 1.419 . S
C410 H414 0.930 . S
C411 C410 1.369 1_655 S
C411 C420 1.429 . S
C412 C410 1.419 . S
C412 C413 1.363 . S
C412 H415 0.929 . S
C413 C412 1.363 . S
C413 C419 1.428 1_455 S
H414 C410 0.930 . S
H415 C412 0.929 . S
S416 N417 1.613 . S
S416 N418 1.610 . S
N417 S416 1.613 . S
N417 C420 1.350 . S
N418 S416 1.610 . S
N418 C419 1.351 . S
C419 C413 1.428 1_655 S
C419 N418 1.351 . S
C419 C420 1.434 . S
C420 C411 1.429 . S
C420 N417 1.350 . S
C420 C419 1.434 . S
C421 C422 1.369 . S
C421 C423 1.419 . S
C421 H425 0.930 . S
C422 C421 1.369 . S
C422 C431 1.429 1_545 S
C423 C421 1.419 . S
C423 C424 1.363 1_545 S
C423 H426 0.929 . S
C424 C423 1.363 1_565 S
C424 C430 1.428 . S
H425 C421 0.930 . S
H426 C423 0.929 . S
S427 N428 1.613 . S
S427 N429 1.610 . S
N428 S427 1.613 . S
N428 C431 1.350 . S
N429 S427 1.610 . S
N429 C430 1.351 . S
C430 C424 1.428 . S
C430 N429 1.351 . S
C430 C431 1.434 . S
C431 C422 1.429 1_565 S
C431 N428 1.350 . S
C431 C430 1.434 . S
C169 C7 1.477 . S
C171 C133 1.479 . S
C180 C21 1.476 . S
C182 C147 1.477 . S
C191 C35 1.476 . S
C193 C161 1.479 . S
C202 C49 1.477 . S
C204 C91 1.479 . S
C213 C105 1.477 . S
C215 C63 1.476 . S
C224 C119 1.475 . S
C226 C77 1.478 . S
C235 C146 1.482 . S
C237 C6 1.483 . S
C246 C20 1.480 . S
C248 C160 1.483 . S
C257 C34 1.481 . S
C259 C90 1.478 . S
C268 C48 1.477 . S
C270 C104 1.481 . S
C279 C62 1.483 . S
C281 C118 1.483 . S
C290 C76 1.477 . S
C292 C132 1.479 . S
C301 C134 1.282 . S
C303 C8 1.291 . S
C312 C22 1.288 . S
C314 C148 1.289 . S
C323 C36 1.292 . S
C325 C162 1.284 . S
C334 C92 1.289 . S
C336 C50 1.283 . S
C345 C64 1.283 . S
C347 C106 1.291 . S
C356 C120 1.281 . S
C358 C78 1.291 . S
C367 C9 1.487 . S
C369 C51 1.491 . S
C378 C65 1.490 . S
C380 C23 1.488 . S
C389 C37 1.488 . S
C391 C79 1.489 . S
C400 C93 1.490 . S
C402 C135 1.488 . S
C411 C107 1.493 . S
C413 C149 1.488 . S
C422 C163 1.487 . S
C424 C121 1.491 . S
