# Generated by pormake.
# Topology umh, (4)-cn, num edge types: 1
# Building blocks:
#     Node 0, Type 0, BuildingBlock: QUQFOY_clean_sbu_1, # of connection points: 4
#     Node 1, Type 0, BuildingBlock: QUQFOY_clean_sbu_1, # of connection points: 4
#     Node 2, Type 0, BuildingBlock: QUQFOY_clean_sbu_1, # of connection points: 4
#     Node 3, Type 0, BuildingBlock: QUQFOY_clean_sbu_1, # of connection points: 4
#     Node 4, Type 0, BuildingBlock: QUQFOY_clean_sbu_1, # of connection points: 4
#     Node 5, Type 0, BuildingBlock: QUQFOY_clean_sbu_1, # of connection points: 4
#     Node 6, Type 0, BuildingBlock: QUQFOY_clean_sbu_1, # of connection points: 4
#     Node 7, Type 0, BuildingBlock: QUQFOY_clean_sbu_1, # of connection points: 4
#     Node 8, Type 0, BuildingBlock: QUQFOY_clean_sbu_1, # of connection points: 4
#     Node 9, Type 0, BuildingBlock: QUQFOY_clean_sbu_1, # of connection points: 4
#     Node 10, Type 0, BuildingBlock: QUQFOY_clean_sbu_1, # of connection points: 4
#     Node 11, Type 0, BuildingBlock: QUQFOY_clean_sbu_1, # of connection points: 4
#     Node 12, Type 0, BuildingBlock: QUQFOY_clean_sbu_1, # of connection points: 4
#     Node 13, Type 0, BuildingBlock: QUQFOY_clean_sbu_1, # of connection points: 4
#     Node 14, Type 0, BuildingBlock: QUQFOY_clean_sbu_1, # of connection points: 4
#     Node 15, Type 0, BuildingBlock: QUQFOY_clean_sbu_1, # of connection points: 4
#     Edge 16, Type (0, 0), BuildingBlock: XIVTED_clean_linker_0, # of connection points: 2
#     Edge 17, Type (0, 0), BuildingBlock: XIVTED_clean_linker_0, # of connection points: 2
#     Edge 18, Type (0, 0), BuildingBlock: XIVTED_clean_linker_0, # of connection points: 2
#     Edge 19, Type (0, 0), BuildingBlock: XIVTED_clean_linker_0, # of connection points: 2
#     Edge 20, Type (0, 0), BuildingBlock: XIVTED_clean_linker_0, # of connection points: 2
#     Edge 21, Type (0, 0), BuildingBlock: XIVTED_clean_linker_0, # of connection points: 2
#     Edge 22, Type (0, 0), BuildingBlock: XIVTED_clean_linker_0, # of connection points: 2
#     Edge 23, Type (0, 0), BuildingBlock: XIVTED_clean_linker_0, # of connection points: 2
#     Edge 24, Type (0, 0), BuildingBlock: XIVTED_clean_linker_0, # of connection points: 2
#     Edge 25, Type (0, 0), BuildingBlock: XIVTED_clean_linker_0, # of connection points: 2
#     Edge 26, Type (0, 0), BuildingBlock: XIVTED_clean_linker_0, # of connection points: 2
#     Edge 27, Type (0, 0), BuildingBlock: XIVTED_clean_linker_0, # of connection points: 2
#     Edge 28, Type (0, 0), BuildingBlock: XIVTED_clean_linker_0, # of connection points: 2
#     Edge 29, Type (0, 0), BuildingBlock: XIVTED_clean_linker_0, # of connection points: 2
#     Edge 30, Type (0, 0), BuildingBlock: XIVTED_clean_linker_0, # of connection points: 2
#     Edge 31, Type (0, 0), BuildingBlock: XIVTED_clean_linker_0, # of connection points: 2
#     Edge 32, Type (0, 0), BuildingBlock: XIVTED_clean_linker_0, # of connection points: 2
#     Edge 33, Type (0, 0), BuildingBlock: XIVTED_clean_linker_0, # of connection points: 2
#     Edge 34, Type (0, 0), BuildingBlock: XIVTED_clean_linker_0, # of connection points: 2
#     Edge 35, Type (0, 0), BuildingBlock: XIVTED_clean_linker_0, # of connection points: 2
#     Edge 36, Type (0, 0), BuildingBlock: XIVTED_clean_linker_0, # of connection points: 2
#     Edge 37, Type (0, 0), BuildingBlock: XIVTED_clean_linker_0, # of connection points: 2
#     Edge 38, Type (0, 0), BuildingBlock: XIVTED_clean_linker_0, # of connection points: 2
#     Edge 39, Type (0, 0), BuildingBlock: XIVTED_clean_linker_0, # of connection points: 2
#     Edge 40, Type (0, 0), BuildingBlock: XIVTED_clean_linker_0, # of connection points: 2
#     Edge 41, Type (0, 0), BuildingBlock: XIVTED_clean_linker_0, # of connection points: 2
#     Edge 42, Type (0, 0), BuildingBlock: XIVTED_clean_linker_0, # of connection points: 2
#     Edge 43, Type (0, 0), BuildingBlock: XIVTED_clean_linker_0, # of connection points: 2
#     Edge 44, Type (0, 0), BuildingBlock: XIVTED_clean_linker_0, # of connection points: 2
#     Edge 45, Type (0, 0), BuildingBlock: XIVTED_clean_linker_0, # of connection points: 2
#     Edge 46, Type (0, 0), BuildingBlock: XIVTED_clean_linker_0, # of connection points: 2
#     Edge 47, Type (0, 0), BuildingBlock: XIVTED_clean_linker_0, # of connection points: 2
# Relax obj value: 0.066
# Max RMSD: 0.411
# Mean RMSD: 0.288
data_MOF--net-umh--node1-QUQFOY_clean_sbu_1--edge1-XIVTED_clean_linker_0
_symmetry_space_group_name_H-M    P1
_symmetry_Int_Tables_number       1
_symmetry_cell_setting            triclinic
loop_
_symmetry_equiv_pos_as_xyz
'x, y, z'
_cell_length_a     41.585017
_cell_length_b     41.548423
_cell_length_c     52.615091
_cell_angle_alpha  92.330363
_cell_angle_beta   87.728677
_cell_angle_gamma 89.825724
loop_
_atom_site_label
_atom_site_type_symbol
_atom_site_fract_x
_atom_site_fract_y
_atom_site_fract_z
_atom_type_partial_charge
O0 O 0.38532 0.12407 0.13313 0.0
Cd1 Cd 0.38294 0.12648 0.17236 0.0
Cd2 Cd 0.32698 0.09373 0.16383 0.0
O3 O 0.34668 0.08857 0.12651 0.0
O4 O 0.42805 0.12496 0.18528 0.0
O5 O 0.39263 0.08572 0.18915 0.0
C6 C 0.42138 0.09621 0.19235 0.0
C7 C 0.30524 0.05572 0.19138 0.0
C8 C 0.36959 0.10608 0.11795 0.0
C9 C 0.32238 0.162 0.18612 0.0
O10 O 0.30911 0.1385 0.1745 0.0
O11 O 0.35255 0.16164 0.1896 0.0
O12 O 0.28969 0.06433 0.17196 0.0
O13 O 0.3344 0.06572 0.19321 0.0
O14 O 0.38255 0.38335 0.63814 0.0
Cd15 Cd 0.38165 0.3822 0.67721 0.0
Cd16 Cd 0.41482 0.32675 0.66539 0.0
O17 O 0.42005 0.34634 0.62918 0.0
O18 O 0.38216 0.42821 0.69133 0.0
O19 O 0.42291 0.39421 0.69306 0.0
C20 C 0.41162 0.42297 0.69706 0.0
C21 C 0.45208 0.30636 0.69304 0.0
C22 C 0.40127 0.36835 0.62198 0.0
C23 C 0.34724 0.32151 0.68769 0.0
O24 O 0.37029 0.30854 0.67436 0.0
O25 O 0.34771 0.35156 0.69373 0.0
O26 O 0.44494 0.29022 0.67251 0.0
O27 O 0.44116 0.33539 0.69602 0.0
O28 O 0.12178 0.38933 0.14401 0.0
Cd29 Cd 0.12161 0.3895 0.18306 0.0
Cd30 Cd 0.17627 0.42227 0.17397 0.0
O31 O 0.15742 0.42781 0.13785 0.0
O32 O 0.0751 0.3887 0.19543 0.0
O33 O 0.10699 0.43078 0.2005 0.0
C34 C 0.0786 0.41856 0.20265 0.0
C35 C 0.19491 0.45904 0.20491 0.0
C36 C 0.13629 0.40841 0.12919 0.0
C37 C 0.18196 0.35525 0.19261 0.0
O38 O 0.19486 0.3777 0.18014 0.0
O39 O 0.15198 0.35623 0.19875 0.0
O40 O 0.21172 0.45268 0.1841 0.0
O41 O 0.16609 0.44769 0.20651 0.0
O42 O 0.11948 0.11846 0.63862 0.0
Cd43 Cd 0.12174 0.11873 0.67762 0.0
Cd44 Cd 0.08764 0.17381 0.67311 0.0
O45 O 0.08143 0.15528 0.63591 0.0
O46 O 0.12231 0.07247 0.68809 0.0
O47 O 0.08124 0.10579 0.69594 0.0
C48 C 0.09302 0.07712 0.69668 0.0
C49 C 0.05043 0.19326 0.70473 0.0
C50 C 0.10006 0.13369 0.62534 0.0
C51 C 0.15584 0.17945 0.69022 0.0
O52 O 0.13214 0.19251 0.68006 0.0
O53 O 0.15595 0.14924 0.6937 0.0
O54 O 0.05726 0.2098 0.68496 0.0
O55 O 0.06177 0.16435 0.70489 0.0
O56 O 0.37903 0.3873 0.42123 0.0
Cd57 Cd 0.3778 0.3861 0.38215 0.0
Cd58 Cd 0.32238 0.41938 0.3939 0.0
O59 O 0.34189 0.42471 0.43014 0.0
O60 O 0.42376 0.3863 0.36802 0.0
O61 O 0.38994 0.42717 0.36604 0.0
C62 C 0.41862 0.41572 0.36209 0.0
C63 C 0.30229 0.45667 0.36612 0.0
C64 C 0.36397 0.40602 0.43736 0.0
C65 C 0.31711 0.35159 0.3718 0.0
O66 O 0.30413 0.37479 0.38498 0.0
O67 O 0.34714 0.35201 0.36581 0.0
O68 O 0.28603 0.44965 0.38659 0.0
O69 O 0.33125 0.44558 0.36325 0.0
O70 O 0.12035 0.38869 0.926 0.0
Cd71 Cd 0.12226 0.38564 0.88676 0.0
Cd72 Cd 0.08964 0.32988 0.89627 0.0
O73 O 0.08491 0.35026 0.93342 0.0
O74 O 0.12137 0.43067 0.87358 0.0
O75 O 0.0815 0.39591 0.87016 0.0
C76 C 0.09243 0.42447 0.86675 0.0
C77 C 0.05146 0.30846 0.86875 0.0
C78 C 0.10257 0.37332 0.94154 0.0
C79 C 0.15749 0.32467 0.87351 0.0
O80 O 0.13422 0.31168 0.88559 0.0
O81 O 0.15704 0.35474 0.86956 0.0
O82 O 0.05994 0.2928 0.88815 0.0
O83 O 0.0617 0.33756 0.86694 0.0
O84 O 0.11551 0.12221 0.42179 0.0
Cd85 Cd 0.11593 0.12443 0.38277 0.0
Cd86 Cd 0.17133 0.09089 0.38746 0.0
O87 O 0.15272 0.08456 0.42459 0.0
O88 O 0.06981 0.12417 0.372 0.0
O89 O 0.10387 0.08366 0.36433 0.0
C90 C 0.07506 0.09495 0.36338 0.0
C91 C 0.19157 0.05379 0.35601 0.0
C92 C 0.13092 0.10297 0.4351 0.0
C93 C 0.17627 0.15917 0.37032 0.0
O94 O 0.18953 0.13561 0.38053 0.0
O95 O 0.14609 0.15897 0.36679 0.0
O96 O 0.20777 0.06089 0.37593 0.0
O97 O 0.16257 0.06476 0.3556 0.0
O98 O 0.3855 0.12532 0.91588 0.0
Cd99 Cd 0.38542 0.12445 0.87681 0.0
Cd100 Cd 0.41802 0.17929 0.88501 0.0
O101 O 0.42404 0.16111 0.92129 0.0
O102 O 0.38492 0.07776 0.86479 0.0
O103 O 0.42675 0.10989 0.85948 0.0
C104 C 0.41472 0.08135 0.85754 0.0
C105 C 0.45446 0.19808 0.85394 0.0
C106 C 0.40476 0.14016 0.93037 0.0
C107 C 0.3508 0.1844 0.86675 0.0
O108 O 0.37334 0.19763 0.87892 0.0
O109 O 0.35184 0.1543 0.86094 0.0
O110 O 0.44805 0.21495 0.87473 0.0
O111 O 0.44336 0.16913 0.85242 0.0
O112 O 0.61429 0.88235 0.92554 0.0
Cd113 Cd 0.6169 0.87998 0.8863 0.0
Cd114 Cd 0.67281 0.9125 0.89509 0.0
O115 O 0.65291 0.9178 0.93233 0.0
O116 O 0.57181 0.8813 0.87334 0.0
O117 O 0.60704 0.9207 0.86946 0.0
C118 C 0.57834 0.91008 0.86627 0.0
C119 C 0.69461 0.95038 0.86748 0.0
C120 C 0.62993 0.90031 0.94079 0.0
C121 C 0.67745 0.84423 0.8729 0.0
O122 O 0.69069 0.86767 0.88462 0.0
O123 O 0.64733 0.84474 0.86919 0.0
O124 O 0.7101 0.94189 0.88697 0.0
O125 O 0.66549 0.94031 0.86559 0.0
O126 O 0.6158 0.62285 0.4206 0.0
Cd127 Cd 0.61671 0.62395 0.38153 0.0
Cd128 Cd 0.58356 0.67929 0.39323 0.0
O129 O 0.5782 0.6598 0.42945 0.0
O130 O 0.61671 0.57791 0.36752 0.0
O131 O 0.57558 0.61142 0.36567 0.0
C132 C 0.5872 0.58277 0.36176 0.0
C133 C 0.54637 0.69935 0.36539 0.0
C134 C 0.597 0.63784 0.43672 0.0
C135 C 0.65112 0.68463 0.37104 0.0
O136 O 0.62807 0.69761 0.38437 0.0
O137 O 0.65062 0.65459 0.36499 0.0
O138 O 0.55331 0.71561 0.38591 0.0
O139 O 0.55747 0.67037 0.3625 0.0
O140 O 0.87554 0.61458 0.91597 0.0
Cd141 Cd 0.8763 0.61493 0.87691 0.0
Cd142 Cd 0.82136 0.58244 0.8851 0.0
O143 O 0.83953 0.57625 0.92136 0.0
O144 O 0.92295 0.61546 0.86493 0.0
O145 O 0.89075 0.57373 0.85925 0.0
C146 C 0.91928 0.58572 0.85741 0.0
C147 C 0.80256 0.54604 0.85395 0.0
C148 C 0.86062 0.59537 0.93045 0.0
C149 C 0.81645 0.64982 0.86701 0.0
O150 O 0.80318 0.62724 0.87909 0.0
O151 O 0.84652 0.64872 0.86122 0.0
O152 O 0.78568 0.55248 0.87471 0.0
O153 O 0.83151 0.55709 0.8525 0.0
O154 O 0.87932 0.88708 0.42063 0.0
Cd155 Cd 0.87763 0.88633 0.38159 0.0
Cd156 Cd 0.91097 0.83116 0.38685 0.0
O157 O 0.91716 0.85019 0.4239 0.0
O158 O 0.87746 0.93244 0.37083 0.0
O159 O 0.91847 0.8989 0.36355 0.0
C160 C 0.90684 0.92761 0.36255 0.0
C161 C 0.94798 0.81081 0.35545 0.0
C162 C 0.89855 0.87199 0.43418 0.0
C163 C 0.84305 0.82583 0.36931 0.0
O164 O 0.86637 0.81275 0.37995 0.0
O165 O 0.84338 0.85594 0.36542 0.0
O166 O 0.94107 0.79476 0.37547 0.0
O167 O 0.93691 0.83979 0.35493 0.0
O168 O 0.61934 0.61944 0.63752 0.0
Cd169 Cd 0.62052 0.62039 0.6766 0.0
Cd170 Cd 0.67562 0.5868 0.66484 0.0
O171 O 0.65603 0.5816 0.62863 0.0
O172 O 0.57454 0.6206 0.69068 0.0
O173 O 0.60785 0.57928 0.69244 0.0
C174 C 0.57929 0.59104 0.69643 0.0
C175 C 0.6954 0.54938 0.69264 0.0
C176 C 0.63419 0.60054 0.62139 0.0
C177 C 0.68145 0.65441 0.68705 0.0
O178 O 0.69424 0.63123 0.67374 0.0
O179 O 0.65143 0.65413 0.6931 0.0
O180 O 0.7117 0.55624 0.67214 0.0
O181 O 0.66653 0.56072 0.69553 0.0
O182 O 0.8771 0.61497 0.13321 0.0
Cd183 Cd 0.87488 0.61761 0.17245 0.0
Cd184 Cd 0.90721 0.67353 0.16374 0.0
O185 O 0.91255 0.6536 0.1265 0.0
O186 O 0.87611 0.57252 0.18543 0.0
O187 O 0.91562 0.60766 0.18922 0.0
C188 C 0.90491 0.57897 0.19246 0.0
C189 C 0.94506 0.69549 0.19134 0.0
C190 C 0.89506 0.63063 0.11799 0.0
C191 C 0.83907 0.67811 0.18593 0.0
O192 O 0.86239 0.69141 0.17415 0.0
O193 O 0.83971 0.64799 0.18966 0.0
O194 O 0.93654 0.7109 0.17183 0.0
O195 O 0.93502 0.66634 0.19328 0.0
O196 O 0.88511 0.88217 0.63813 0.0
Cd197 Cd 0.88432 0.88014 0.67716 0.0
Cd198 Cd 0.8291 0.9139 0.67196 0.0
O199 O 0.84801 0.91984 0.63486 0.0
O200 O 0.93037 0.88022 0.68809 0.0
O201 O 0.89646 0.9209 0.69556 0.0
C202 C 0.92522 0.90949 0.69662 0.0
C203 C 0.80888 0.95133 0.70315 0.0
C204 C 0.86989 0.90131 0.6246 0.0
C205 C 0.8237 0.84575 0.68939 0.0
O206 O 0.81065 0.86932 0.67904 0.0
O207 O 0.85385 0.8458 0.69306 0.0
O208 O 0.79276 0.94415 0.68321 0.0
O209 O 0.83782 0.94022 0.70371 0.0
O210 O 0.61313 0.88012 0.14275 0.0
Cd211 Cd 0.61298 0.88078 0.18182 0.0
Cd212 Cd 0.58066 0.82595 0.17327 0.0
O213 O 0.57464 0.84435 0.13708 0.0
O214 O 0.61373 0.92743 0.19391 0.0
O215 O 0.57168 0.89556 0.19911 0.0
C216 C 0.58389 0.924 0.20112 0.0
C217 C 0.5442 0.80719 0.20432 0.0
C218 C 0.59394 0.86537 0.12814 0.0
C219 C 0.64771 0.82084 0.19174 0.0
O220 O 0.62537 0.80764 0.17931 0.0
O221 O 0.64642 0.85088 0.19778 0.0
O222 O 0.55058 0.79033 0.18352 0.0
O223 O 0.55537 0.83611 0.20587 0.0
H224 H 0.43816 0.16887 0.96974 0.0
H225 H 0.34025 0.07413 0.0781 0.0
H226 H 0.36721 0.09577 0.95422 0.0
H227 H 0.41603 0.14192 0.09403 0.0
H228 H 0.35102 0.08066 0.03248 0.0
H229 H 0.4317 0.15846 1.01528 0.0
C230 C 0.42142 0.15054 0.97582 0.0
C231 C 0.40316 0.13333 0.958 0.0
C232 C 0.36542 0.09397 0.04598 0.0
C233 C 0.39547 0.12136 1.01015 0.0
C234 C 0.35929 0.09017 0.07207 0.0
C235 C 0.37713 0.10752 0.09007 0.0
C236 C 0.38949 0.11538 0.03773 0.0
C237 C 0.40152 0.12805 0.08097 0.0
C238 C 0.41768 0.14461 1.00184 0.0
C239 C 0.38177 0.10983 0.96713 0.0
N240 N 0.40683 0.13152 0.05554 0.0
N241 N 0.37845 0.10469 0.99244 0.0
H242 H 0.33522 0.43819 0.47948 0.0
H243 H 0.43374 0.33996 0.57986 0.0
H244 H 0.41011 0.36907 0.45788 0.0
H245 H 0.36396 0.41424 0.60149 0.0
H246 H 0.42662 0.35136 0.53503 0.0
H247 H 0.34649 0.43099 0.52434 0.0
C248 C 0.35415 0.42171 0.48409 0.0
C249 C 0.37159 0.40417 0.46474 0.0
C250 C 0.413 0.36528 0.54963 0.0
C251 C 0.38452 0.39557 0.51615 0.0
C252 C 0.41712 0.35878 0.57526 0.0
C253 C 0.39939 0.37601 0.59462 0.0
C254 C 0.3909 0.38911 0.54322 0.0
C255 C 0.37814 0.40015 0.58735 0.0
C256 C 0.36056 0.41754 0.50974 0.0
C257 C 0.39586 0.38309 0.47202 0.0
N258 N 0.3744 0.40583 0.56236 0.0
N259 N 0.40145 0.37929 0.49702 0.0
H260 H 0.13831 0.42072 0.96444 0.0
H261 H 0.0908 0.37113 0.10641 0.0
H262 H 0.0717 0.34459 0.98218 0.0
H263 H 0.16463 0.44058 0.08897 0.0
H264 H 0.08044 0.36465 0.06133 0.0
H265 H 0.14485 0.43157 1.00983 0.0
C266 C 0.12482 0.40636 0.97785 0.0
C267 C 0.10444 0.38153 0.96929 0.0
C268 C 0.09884 0.38141 0.06728 0.0
C269 C 0.11206 0.39397 1.02166 0.0
C270 C 0.10482 0.38522 0.09314 0.0
C271 C 0.12884 0.40639 0.10168 0.0
C272 C 0.11689 0.39887 0.04953 0.0
C273 C 0.14595 0.42397 0.08337 0.0
C274 C 0.12869 0.4126 1.00384 0.0
C275 C 0.08767 0.36391 0.98775 0.0
N276 N 0.13973 0.41972 0.05818 0.0
N277 N 0.09195 0.3704 1.013 0.0
H278 H 0.06592 0.16321 0.58864 0.0
H279 H 0.16063 0.06906 0.47182 0.0
H280 H 0.13661 0.0887 0.59784 0.0
H281 H 0.08567 0.13925 0.46256 0.0
H282 H 0.15081 0.07444 0.51807 0.0
H283 H 0.07133 0.15342 0.54237 0.0
C284 C 0.08238 0.14467 0.58101 0.0
C285 C 0.10089 0.1269 0.59728 0.0
C286 C 0.13639 0.08853 0.50588 0.0
C287 C 0.10741 0.11566 0.54424 0.0
C288 C 0.14198 0.0854 0.47944 0.0
C289 C 0.12409 0.10379 0.46315 0.0
C290 C 0.11282 0.11028 0.51618 0.0
C291 C 0.10022 0.12462 0.47425 0.0
C292 C 0.08552 0.1391 0.55456 0.0
C293 C 0.12188 0.10316 0.58617 0.0
N294 N 0.09543 0.1274 0.49996 0.0
N295 N 0.12466 0.09839 0.56045 0.0
H296 H 0.56063 0.83696 0.0886 0.0
H297 H 0.65915 0.93206 0.98079 0.0
H298 H 0.63165 0.90984 0.10454 0.0
H299 H 0.58325 0.86455 0.96449 0.0
H300 H 0.64816 0.92536 1.02636 0.0
H301 H 0.56726 0.84764 0.04312 0.0
C302 C 0.57743 0.8553 0.08263 0.0
C303 C 0.59566 0.87237 0.10055 0.0
C304 C 0.63378 0.91216 1.0128 0.0
C305 C 0.60354 0.88465 0.04847 0.0
C306 C 0.64003 0.91605 0.98673 0.0
C307 C 0.62222 0.89882 0.96864 0.0
C308 C 0.60963 0.89076 1.02093 0.0
C309 C 0.59774 0.87833 0.97763 0.0
C310 C 0.58125 0.86139 0.05664 0.0
C311 C 0.61711 0.89589 0.09155 0.0
N312 N 0.59232 0.87476 1.00303 0.0
N313 N 0.62053 0.90118 0.06627 0.0
H314 H 0.66254 0.56793 0.57933 0.0
H315 H 0.56466 0.66651 0.47877 0.0
H316 H 0.58845 0.63796 0.60083 0.0
H317 H 0.63406 0.59182 0.45729 0.0
H318 H 0.57173 0.65523 0.52364 0.0
H319 H 0.65126 0.57505 0.53447 0.0
C320 C 0.64378 0.58459 0.57469 0.0
C321 C 0.62657 0.6024 0.59402 0.0
C322 C 0.58527 0.6412 0.50906 0.0
C323 C 0.61362 0.6109 0.5426 0.0
C324 C 0.58117 0.64763 0.48341 0.0
C325 C 0.59882 0.63024 0.46409 0.0
C326 C 0.60726 0.61729 0.51551 0.0
C327 C 0.61995 0.60603 0.47141 0.0
C328 C 0.63737 0.58872 0.54905 0.0
C329 C 0.60252 0.62372 0.58671 0.0
N330 N 0.62367 0.60042 0.49641 0.0
N331 N 0.59692 0.62746 0.56171 0.0
H332 H 0.83173 0.56217 0.96981 0.0
H333 H 0.92715 0.65967 0.07813 0.0
H334 H 0.90537 0.63253 0.95428 0.0
H335 H 0.859 0.58425 0.09411 0.0
H336 H 0.92055 0.6488 0.03252 0.0
H337 H 0.84225 0.56858 1.01535 0.0
C338 C 0.85021 0.57877 0.97588 0.0
C339 C 0.86753 0.59689 0.95806 0.0
C340 C 0.90718 0.6345 0.04602 0.0
C341 C 0.87962 0.60452 1.01021 0.0
C342 C 0.91101 0.64068 0.07211 0.0
C343 C 0.89358 0.62298 0.09013 0.0
C344 C 0.88564 0.61051 0.03779 0.0
C345 C 0.87294 0.59865 0.08104 0.0
C346 C 0.85619 0.58247 1.00191 0.0
C347 C 0.89121 0.61809 0.96719 0.0
N348 N 0.86943 0.5933 0.05561 0.0
N349 N 0.8964 0.62139 0.9925 0.0
H350 H 0.86234 0.91785 0.46099 0.0
H351 H 0.91593 0.86535 0.59778 0.0
H352 H 0.93186 0.84264 0.47147 0.0
H353 H 0.84018 0.93428 0.5873 0.0
H354 H 0.92526 0.8602 0.5518 0.0
H355 H 0.85736 0.92738 0.50696 0.0
C356 C 0.87677 0.90339 0.47291 0.0
C357 C 0.8975 0.87921 0.46217 0.0
C358 C 0.90669 0.87657 0.5595 0.0
C359 C 0.89171 0.89014 0.51525 0.0
C360 C 0.90131 0.87962 0.58585 0.0
C361 C 0.87704 0.90023 0.5966 0.0
C362 C 0.88774 0.89424 0.54351 0.0
C363 C 0.85909 0.91808 0.57998 0.0
C364 C 0.87382 0.90888 0.49926 0.0
C365 C 0.91555 0.86147 0.47879 0.0
N366 N 0.86472 0.91457 0.5543 0.0
N367 N 0.91214 0.8672 0.50446 0.0
H368 H 0.24719 0.35414 0.19504 0.0
H369 H 0.2573 0.16346 0.19411 0.0
H370 H 0.16371 0.29363 0.20416 0.0
H371 H 0.34091 0.22461 0.19667 0.0
H372 H 0.22288 0.21068 0.20185 0.0
H373 H 0.28176 0.30748 0.19965 0.0
C374 C 0.23609 0.33102 0.19825 0.0
C375 C 0.20246 0.32769 0.19885 0.0
C376 C 0.24873 0.21382 0.20104 0.0
C377 C 0.24211 0.27395 0.20396 0.0
C378 C 0.26847 0.18685 0.19655 0.0
C379 C 0.30208 0.19015 0.19438 0.0
C380 C 0.26259 0.2445 0.20306 0.0
C381 C 0.31514 0.22098 0.19808 0.0
C382 C 0.25591 0.30438 0.20095 0.0
C383 C 0.18949 0.29725 0.20343 0.0
N384 N 0.29533 0.24704 0.20186 0.0
N385 N 0.20937 0.27144 0.20544 0.0
H386 H 0.34689 0.25627 0.69055 0.0
H387 H 0.15622 0.24471 0.69756 0.0
H388 H 0.28475 0.33948 0.70127 0.0
H389 H 0.21861 0.16154 0.6976 0.0
H390 H 0.20268 0.27958 0.70278 0.0
H391 H 0.30054 0.22141 0.69694 0.0
C392 C 0.32346 0.26726 0.69448 0.0
C393 C 0.31964 0.30091 0.69504 0.0
C394 C 0.20626 0.25373 0.70195 0.0
C395 C 0.26622 0.26087 0.7022 0.0
C396 C 0.17972 0.23372 0.6989 0.0
C397 C 0.18357 0.20008 0.6968 0.0
C398 C 0.23711 0.24013 0.7026 0.0
C399 C 0.21454 0.1873 0.69902 0.0
C400 C 0.29699 0.24726 0.6982 0.0
C401 C 0.28879 0.3137 0.70057 0.0
N402 N 0.24019 0.20736 0.70144 0.0
N403 N 0.26317 0.29364 0.70358 0.0
H404 H 0.25186 0.35089 0.36926 0.0
H405 H 0.24141 0.15996 0.36283 0.0
H406 H 0.33526 0.28909 0.35831 0.0
H407 H 0.15788 0.22185 0.36292 0.0
H408 H 0.27591 0.20666 0.35738 0.0
H409 H 0.21722 0.30427 0.36318 0.0
C410 C 0.26294 0.32748 0.36534 0.0
C411 C 0.29658 0.32384 0.36463 0.0
C412 C 0.25006 0.21008 0.3583 0.0
C413 C 0.25681 0.27011 0.35782 0.0
C414 C 0.23027 0.1834 0.36148 0.0
C415 C 0.19664 0.18704 0.36367 0.0
C416 C 0.23626 0.24085 0.3576 0.0
C417 C 0.18365 0.21794 0.36143 0.0
C418 C 0.24307 0.30085 0.3618 0.0
C419 C 0.30949 0.293 0.35913 0.0
N420 N 0.2035 0.24373 0.35887 0.0
N421 N 0.28956 0.26723 0.35629 0.0
H422 H 0.34951 0.24953 0.86323 0.0
H423 H 0.15891 0.25935 0.86673 0.0
H424 H 0.289 0.1657 0.85628 0.0
H425 H 0.2198 0.34296 0.86176 0.0
H426 H 0.20599 0.22479 0.85893 0.0
H427 H 0.30269 0.28389 0.85871 0.0
C428 C 0.32635 0.23831 0.86051 0.0
C429 C 0.32308 0.20465 0.8605 0.0
C430 C 0.2091 0.25067 0.85922 0.0
C431 C 0.26915 0.24406 0.8555 0.0
C432 C 0.18221 0.27048 0.86375 0.0
C433 C 0.18548 0.30416 0.86526 0.0
C434 C 0.23969 0.26451 0.85649 0.0
C435 C 0.21619 0.31716 0.86088 0.0
C436 C 0.29961 0.258 0.85786 0.0
C437 C 0.29258 0.19151 0.85653 0.0
N438 N 0.24219 0.29729 0.85707 0.0
N439 N 0.26668 0.21128 0.85457 0.0
H440 H 0.74264 0.84232 0.86571 0.0
H441 H 0.7513 0.6515 0.86397 0.0
H442 H 0.65868 0.7818 0.86196 0.0
H443 H 0.83537 0.71147 0.85613 0.0
H444 H 0.7172 0.69848 0.8593 0.0
H445 H 0.77683 0.79489 0.85823 0.0
C446 C 0.73135 0.81903 0.86307 0.0
C447 C 0.6977 0.81597 0.86482 0.0
C448 C 0.74308 0.7014 0.8583 0.0
C449 C 0.73691 0.76136 0.85643 0.0
C450 C 0.76263 0.67457 0.86104 0.0
C451 C 0.79629 0.67764 0.8608 0.0
C452 C 0.75717 0.73176 0.85562 0.0
C453 C 0.80956 0.70803 0.85656 0.0
C454 C 0.75095 0.79193 0.85873 0.0
C455 C 0.68448 0.78525 0.86088 0.0
N456 N 0.78993 0.73403 0.85451 0.0
N457 N 0.70415 0.75905 0.85724 0.0
H458 H 0.65173 0.74991 0.36835 0.0
H459 H 0.84237 0.76058 0.36215 0.0
H460 H 0.71352 0.66646 0.35745 0.0
H461 H 0.78051 0.84408 0.36141 0.0
H462 H 0.79578 0.72595 0.35667 0.0
H463 H 0.69825 0.7846 0.36209 0.0
C464 C 0.67511 0.73883 0.36439 0.0
C465 C 0.67879 0.70516 0.36376 0.0
C466 C 0.79235 0.75182 0.3574 0.0
C467 C 0.7324 0.74499 0.35676 0.0
C468 C 0.81896 0.77168 0.36061 0.0
C469 C 0.81528 0.80534 0.36259 0.0
C470 C 0.76161 0.76558 0.35649 0.0
C471 C 0.78443 0.81829 0.36009 0.0
C472 C 0.70168 0.75873 0.36075 0.0
C473 C 0.70959 0.69225 0.35821 0.0
N474 N 0.7587 0.79836 0.35754 0.0
N475 N 0.7353 0.71221 0.35529 0.0
H476 H 0.75855 0.84542 0.69687 0.0
H477 H 0.7467 0.65462 0.68953 0.0
H478 H 0.84162 0.78291 0.69669 0.0
H479 H 0.66375 0.71694 0.70088 0.0
H480 H 0.78168 0.70093 0.69587 0.0
H481 H 0.7237 0.79894 0.70212 0.0
C482 C 0.76952 0.82188 0.69817 0.0
C483 C 0.80312 0.81801 0.696 0.0
C484 C 0.75586 0.70453 0.69728 0.0
C485 C 0.7631 0.76445 0.70183 0.0
C486 C 0.73579 0.67807 0.6936 0.0
C487 C 0.70218 0.68196 0.69434 0.0
C488 C 0.74234 0.73534 0.70145 0.0
C489 C 0.68949 0.71285 0.70003 0.0
C490 C 0.74953 0.79533 0.70124 0.0
C491 C 0.81589 0.787 0.69817 0.0
N492 N 0.70961 0.73844 0.70301 0.0
N493 N 0.79583 0.76133 0.7006 0.0
H494 H 0.77711 0.65895 0.19786 0.0
H495 H 0.70864 0.84002 0.20434 0.0
H496 H 0.83667 0.74346 0.19232 0.0
H497 H 0.64992 0.75548 0.19339 0.0
H498 H 0.7554 0.8049 0.20917 0.0
H499 H 0.72986 0.69406 0.20549 0.0
C500 C 0.78032 0.68482 0.19863 0.0
C501 C 0.81078 0.69828 0.19405 0.0
C502 C 0.73217 0.7941 0.20598 0.0
C503 C 0.757 0.73853 0.20272 0.0
C504 C 0.70549 0.81414 0.20332 0.0
C505 C 0.67548 0.80068 0.19805 0.0
C506 C 0.72867 0.76043 0.20354 0.0
C507 C 0.67274 0.76693 0.19699 0.0
C508 C 0.75336 0.70486 0.20288 0.0
C509 C 0.81355 0.73202 0.19533 0.0
N510 N 0.699 0.74801 0.19951 0.0
N511 N 0.78702 0.75095 0.19934 0.0
H512 H 0.25484 0.03553 0.34789 0.0
H513 H 0.24115 0.04078 0.19767 0.0
H514 H 0.16477 0.03965 0.31014 0.0
H515 H 0.33116 0.03694 0.23553 0.0
H516 H 0.2127 0.02882 0.23774 0.0
H517 H 0.28265 0.02446 0.30663 0.0
C518 C 0.24077 0.03331 0.33103 0.0
C519 C 0.20743 0.03899 0.33253 0.0
C520 C 0.23873 0.02996 0.23719 0.0
C521 C 0.23928 0.02691 0.28502 0.0
C522 C 0.25504 0.0366 0.21422 0.0
C523 C 0.28861 0.04033 0.21324 0.0
C524 C 0.25607 0.0272 0.25943 0.0
C525 C 0.30524 0.03464 0.23539 0.0
C526 C 0.25672 0.02717 0.30739 0.0
C527 C 0.19054 0.03577 0.30994 0.0
N528 N 0.2888 0.02891 0.25761 0.0
N529 N 0.20668 0.0305 0.28713 0.0
H530 H 0.46771 0.24243 0.69695 0.0
H531 H 0.4722 0.26115 0.84826 0.0
H532 H 0.46882 0.33383 0.73887 0.0
H533 H 0.46756 0.16975 0.80664 0.0
H534 H 0.48245 0.28761 0.80807 0.0
H535 H 0.4791 0.21534 0.73606 0.0
C536 C 0.47115 0.25691 0.7142 0.0
C537 C 0.4669 0.29049 0.7146 0.0
C538 C 0.47978 0.26168 0.80774 0.0
C539 C 0.4794 0.25948 0.75969 0.0
C540 C 0.47413 0.24649 0.83076 0.0
C541 C 0.46861 0.21316 0.8309 0.0
C542 C 0.47978 0.24349 0.7846 0.0
C543 C 0.47138 0.19552 0.80752 0.0
C544 C 0.47746 0.24137 0.73662 0.0
C545 C 0.47159 0.30789 0.73764 0.0
N546 N 0.47626 0.21093 0.78535 0.0
N547 N 0.47709 0.29218 0.75927 0.0
H548 H 0.25796 0.47663 0.21071 0.0
H549 H 0.23856 0.47273 0.36198 0.0
H550 H 0.16647 0.47264 0.25207 0.0
H551 H 0.33006 0.47317 0.32037 0.0
H552 H 0.21175 0.48426 0.32277 0.0
H553 H 0.28429 0.48698 0.25097 0.0
C554 C 0.24326 0.47873 0.22816 0.0
C555 C 0.20994 0.47334 0.22794 0.0
C556 C 0.23775 0.48244 0.3223 0.0
C557 C 0.2401 0.48463 0.27432 0.0
C558 C 0.25313 0.47606 0.34478 0.0
C559 C 0.28664 0.47157 0.34449 0.0
C560 C 0.25596 0.48423 0.29929 0.0
C561 C 0.30416 0.47612 0.32152 0.0
C562 C 0.25837 0.48444 0.25122 0.0
C563 C 0.19224 0.47634 0.25126 0.0
N564 N 0.28861 0.4817 0.29982 0.0
N565 N 0.20756 0.48126 0.27347 0.0
H566 H 0.03511 0.16523 0.74989 0.0
H567 H 0.03071 0.33515 0.82551 0.0
H568 H 0.03301 0.25665 0.7139 0.0
H569 H 0.03839 0.24402 0.86136 0.0
H570 H 0.01894 0.30646 0.78554 0.0
H571 H 0.02382 0.19304 0.79109 0.0
C572 C 0.0315 0.19108 0.75052 0.0
C573 C 0.03547 0.20864 0.72835 0.0
C574 C 0.02258 0.29271 0.80225 0.0
C575 C 0.02302 0.24078 0.77571 0.0
C576 C 0.02915 0.30911 0.82518 0.0
C577 C 0.03601 0.29199 0.84682 0.0
C578 C 0.02307 0.25887 0.8008 0.0
C579 C 0.03348 0.25826 0.84516 0.0
C580 C 0.02521 0.20699 0.77415 0.0
C581 C 0.0304 0.2421 0.73046 0.0
N582 N 0.02778 0.24281 0.82247 0.0
N583 N 0.02497 0.25711 0.75374 0.0
H584 H 0.7587 0.96541 0.86133 0.0
H585 H 0.74564 0.96981 0.71102 0.0
H586 H 0.66887 0.96891 0.82319 0.0
H587 H 0.83553 0.96577 0.74904 0.0
H588 H 0.71768 0.98119 0.75218 0.0
H589 H 0.78731 0.97721 0.82129 0.0
C590 C 0.74489 0.96948 0.84472 0.0
C591 C 0.71132 0.9657 0.84561 0.0
C592 C 0.74361 0.97843 0.75149 0.0
C593 C 0.74405 0.97864 0.79947 0.0
C594 C 0.75965 0.97211 0.72791 0.0
C595 C 0.79298 0.96635 0.72653 0.0
C596 C 0.76095 0.97879 0.77392 0.0
C597 C 0.80977 0.96969 0.74916 0.0
C598 C 0.76129 0.97603 0.82177 0.0
C599 C 0.69478 0.97125 0.8234 0.0
N600 N 0.79355 0.97514 0.77191 0.0
N601 N 0.71132 0.97689 0.8012 0.0
H602 H 0.5303 0.76314 0.36136 0.0
H603 H 0.52655 0.7441 0.21001 0.0
H604 H 0.5301 0.67167 0.3195 0.0
H605 H 0.53089 0.83557 0.25158 0.0
H606 H 0.51621 0.71768 0.25021 0.0
H607 H 0.51892 0.79008 0.32218 0.0
C608 C 0.52706 0.7486 0.3441 0.0
C609 C 0.53157 0.71506 0.34375 0.0
C610 C 0.51884 0.74361 0.25052 0.0
C611 C 0.51907 0.74589 0.29858 0.0
C612 C 0.52454 0.75878 0.2275 0.0
C613 C 0.53001 0.79212 0.22735 0.0
C614 C 0.51873 0.76184 0.27365 0.0
C615 C 0.52713 0.80978 0.25071 0.0
C616 C 0.52076 0.76406 0.32164 0.0
C617 C 0.52713 0.69759 0.32071 0.0
N618 N 0.52219 0.7944 0.27288 0.0
N619 N 0.52163 0.71321 0.29904 0.0
H620 H 0.73948 0.52868 0.84804 0.0
H621 H 0.75903 0.53295 0.69677 0.0
H622 H 0.83102 0.53268 0.80675 0.0
H623 H 0.66752 0.53301 0.73838 0.0
H624 H 0.78576 0.52123 0.73598 0.0
H625 H 0.71317 0.5186 0.80774 0.0
C626 C 0.75419 0.52665 0.83059 0.0
C627 C 0.78753 0.53195 0.83085 0.0
C628 C 0.75977 0.52321 0.73645 0.0
C629 C 0.75738 0.52097 0.78443 0.0
C630 C 0.74444 0.52969 0.71398 0.0
C631 C 0.71096 0.53438 0.71426 0.0
C632 C 0.74154 0.5215 0.75946 0.0
C633 C 0.6934 0.52991 0.73723 0.0
C634 C 0.73909 0.52109 0.80751 0.0
C635 C 0.80524 0.52904 0.80753 0.0
N636 N 0.70891 0.52422 0.75892 0.0
N637 N 0.78993 0.52426 0.7853 0.0
H638 H 0.96633 0.74748 0.34762 0.0
H639 H 0.96026 0.75963 0.19728 0.0
H640 H 0.96169 0.83718 0.30936 0.0
H641 H 0.96367 0.66996 0.2357 0.0
H642 H 0.97244 0.78847 0.23717 0.0
H643 H 0.97708 0.71923 0.30647 0.0
C644 C 0.96837 0.76138 0.33067 0.0
C645 C 0.96264 0.79475 0.332 0.0
C646 C 0.97114 0.76243 0.23679 0.0
C647 C 0.97436 0.76239 0.28462 0.0
C648 C 0.96438 0.74589 0.21391 0.0
C649 C 0.96048 0.7123 0.21314 0.0
C650 C 0.97387 0.74531 0.25913 0.0
C651 C 0.9661 0.69588 0.23539 0.0
C652 C 0.97432 0.74517 0.3071 0.0
C653 C 0.96562 0.81141 0.3093 0.0
N654 N 0.97197 0.71255 0.25752 0.0
N655 N 0.97073 0.79502 0.28656 0.0
H656 H 0.41255 0.03831 0.21424 0.0
H657 H 0.59795 0.98837 0.19783 0.0
H658 H 0.48711 0.10412 0.19093 0.0
H659 H 0.5217 0.92379 0.21995 0.0
H660 H 0.55958 0.03335 0.20187 0.0
H661 H 0.45367 0.9988 0.22302 0.0
C662 C 0.43763 0.04464 0.21129 0.0
C663 C 0.44636 0.07448 0.20157 0.0
C664 C 0.55138 0.00941 0.20623 0.0
C665 C 0.49379 0.02898 0.2113 0.0
C666 C 0.57332 0.98372 0.20406 0.0
C667 C 0.56297 0.95217 0.20829 0.0
C668 C 0.51885 0.00349 0.21266 0.0
C669 C 0.53073 0.94763 0.21625 0.0
C670 C 0.46116 0.022 0.21628 0.0
C671 C 0.47928 0.08137 0.19831 0.0
N672 N 0.50981 0.97289 0.21789 0.0
N673 N 0.5018 0.05862 0.20283 0.0
H674 H 0.51413 0.60307 0.69662 0.0
H675 H 0.47162 0.41793 0.71584 0.0
H676 H 0.5832 0.53027 0.71405 0.0
H677 H 0.40137 0.4884 0.69615 0.0
H678 H 0.51062 0.46095 0.72202 0.0
H679 H 0.4708 0.56392 0.70297 0.0
C680 C 0.52016 0.57908 0.70226 0.0
C681 C 0.55241 0.56988 0.70456 0.0
C682 C 0.48658 0.46716 0.71666 0.0
C683 C 0.50297 0.52487 0.71162 0.0
C684 C 0.46421 0.44255 0.71318 0.0
C685 C 0.43322 0.44949 0.70522 0.0
C686 C 0.47813 0.49908 0.71191 0.0
C687 C 0.42501 0.48192 0.70223 0.0
C688 C 0.4954 0.55668 0.70577 0.0
C689 C 0.55874 0.53841 0.71183 0.0
N690 N 0.44746 0.50546 0.70523 0.0
N691 N 0.53435 0.51704 0.71484 0.0
H692 H 0.07911 0.48007 0.22304 0.0
H693 H 0.89566 0.5134 0.19221 0.0
H694 H 0.01427 0.40539 0.19812 0.0
H695 H 0.96361 0.58715 0.21324 0.0
H696 H 0.93558 0.47227 0.20129 0.0
H697 H 0.03408 0.5179 0.22695 0.0
C698 C 0.05527 0.47145 0.21881 0.0
C699 C 0.05056 0.43955 0.20997 0.0
C700 C 0.94156 0.49746 0.20426 0.0
C701 C 0.99876 0.48305 0.21399 0.0
C702 C 0.91873 0.52096 0.19917 0.0
C703 C 0.92641 0.55379 0.2017 0.0
C704 C 0.97225 0.50688 0.21196 0.0
C705 C 0.95671 0.56214 0.21075 0.0
C706 C 0.02953 0.49314 0.22096 0.0
C707 C 0.01905 0.42978 0.20491 0.0
N708 N 0.97855 0.5389 0.21531 0.0
N709 N 0.99442 0.45156 0.20663 0.0
H710 H 0.92056 0.96893 0.72062 0.0
H711 H 0.105 0.01199 0.69088 0.0
H712 H 0.99051 0.89922 0.69021 0.0
H713 H 0.03283 0.08055 0.71941 0.0
H714 H 0.06605 0.96847 0.69687 0.0
H715 H 0.96368 0.00774 0.72681 0.0
C716 C 0.94509 0.96159 0.7156 0.0
C717 C 0.95185 0.93082 0.70464 0.0
C718 C 0.05891 0.99299 0.70217 0.0
C719 C 0.00153 0.97553 0.71132 0.0
C720 C 0.0812 0.01785 0.69888 0.0
C721 C 0.0721 0.05004 0.70441 0.0
C722 C 0.02731 1.00039 0.71107 0.0
C723 C 0.04087 0.05616 0.71465 0.0
C724 C 0.96976 0.98385 0.71908 0.0
C725 C 0.98417 0.92269 0.69865 0.0
N726 N 0.01959 0.03167 0.71739 0.0
N727 N 0.00776 0.94505 0.70173 0.0
H728 H 0.59898 0.51753 0.36171 0.0
H729 H 0.41377 0.47556 0.34294 0.0
H730 H 0.52644 0.5868 0.34417 0.0
H731 H 0.48396 0.40521 0.36297 0.0
H732 H 0.4569 0.51435 0.33647 0.0
H733 H 0.55968 0.47428 0.35556 0.0
C734 C 0.57501 0.52361 0.35608 0.0
C735 C 0.56593 0.55591 0.3537 0.0
C736 C 0.46302 0.49033 0.34197 0.0
C737 C 0.52076 0.50656 0.34687 0.0
C738 C 0.43835 0.46808 0.34561 0.0
C739 C 0.44518 0.43713 0.35376 0.0
C740 C 0.49489 0.4818 0.34673 0.0
C741 C 0.47756 0.42882 0.35675 0.0
C742 C 0.55253 0.4989 0.35269 0.0
C743 C 0.53449 0.56232 0.34645 0.0
N744 N 0.50116 0.45116 0.35359 0.0
N745 N 0.51303 0.53796 0.34355 0.0
H746 H 0.10199 0.49 0.86714 0.0
H747 H 0.9185 0.5243 0.83683 0.0
H748 H 0.03365 0.41665 0.84608 0.0
H749 H 0.98367 0.59853 0.86206 0.0
H750 H 0.96339 0.4863 0.83273 0.0
H751 H 0.06217 0.53136 0.85833 0.0
C752 C 0.07886 0.48259 0.86022 0.0
C753 C 0.07104 0.44979 0.85761 0.0
C754 C 0.96804 0.51099 0.83884 0.0
C755 C 0.0253 0.49696 0.84767 0.0
C756 C 0.94238 0.53278 0.8411 0.0
C757 C 0.94723 0.56461 0.85008 0.0
C758 C 0.99886 0.52091 0.84582 0.0
C759 C 0.97878 0.5742 0.85517 0.0
C760 C 0.05608 0.50622 0.8553 0.0
C761 C 0.04065 0.44162 0.84863 0.0
N762 N 0.00332 0.55233 0.85333 0.0
N763 N 0.01887 0.46498 0.84423 0.0
H764 H 0.89496 0.99279 0.36782 0.0
H765 H 0.07989 0.03538 0.3396 0.0
H766 H 0.96745 0.92385 0.34057 0.0
H767 H 0.00973 0.10524 0.36944 0.0
H768 H 0.03681 0.99657 0.33324 0.0
H769 H 0.93412 0.03616 0.36207 0.0
C770 C 0.91889 0.98681 0.36016 0.0
C771 C 0.928 0.95456 0.35491 0.0
C772 C 0.03068 0.02049 0.34089 0.0
C773 C 0.97303 0.00405 0.34852 0.0
C774 C 0.05533 0.04275 0.34447 0.0
C775 C 0.04849 0.07356 0.35531 0.0
C776 C 0.99885 0.02886 0.34841 0.0
C777 C 0.01614 0.08173 0.36109 0.0
C778 C 0.94129 0.01158 0.357 0.0
C779 C 0.95939 0.94829 0.3451 0.0
N780 N 0.99256 0.05938 0.3579 0.0
N781 N 0.98078 0.97271 0.34247 0.0
H782 H 0.58682 0.96813 0.84452 0.0
H783 H 0.4011 0.01689 0.86091 0.0
H784 H 0.51266 0.90178 0.86762 0.0
H785 H 0.4769 0.08193 0.83869 0.0
H786 H 0.43977 0.97216 0.8569 0.0
H787 H 0.54546 0.00741 0.83579 0.0
C788 C 0.56178 0.96163 0.84744 0.0
C789 C 0.55323 0.9317 0.85708 0.0
C790 C 0.44781 0.99615 0.85251 0.0
C791 C 0.50552 0.97694 0.84741 0.0
C792 C 0.42569 0.02169 0.85467 0.0
C793 C 0.43582 0.05331 0.85039 0.0
C794 C 0.48029 1.00227 0.84606 0.0
C795 C 0.46802 0.05804 0.84242 0.0
C796 C 0.53811 0.98415 0.84247 0.0
C797 C 0.52035 0.9246 0.8603 0.0
N798 N 0.48911 0.03292 0.8408 0.0
N799 N 0.4977 0.94722 0.85581 0.0
loop_
_geom_bond_atom_site_label_1
_geom_bond_atom_site_label_2
_geom_bond_distance
_geom_bond_site_symmetry_2
_ccdc_geom_bond_type
O0 Cd1 2.223 . S
O0 C8 1.315 . S
Cd1 O0 2.223 . S
Cd1 O4 2.297 . S
Cd1 O5 2.439 . S
Cd1 O11 2.240 . S
Cd2 O3 2.240 . S
Cd2 O10 2.223 . S
Cd2 O12 2.297 . S
Cd2 O13 2.439 . S
O3 Cd2 2.240 . S
O3 C8 1.279 . S
O4 Cd1 2.297 . S
O4 C6 1.247 . S
O5 Cd1 2.439 . S
O5 C6 1.208 . S
C6 O4 1.247 . S
C6 O5 1.208 . S
C7 O12 1.247 . S
C7 O13 1.208 . S
C8 O0 1.315 . S
C8 O3 1.279 . S
C9 O10 1.315 . S
C9 O11 1.279 . S
O10 Cd2 2.223 . S
O10 C9 1.315 . S
O11 Cd1 2.240 . S
O11 C9 1.279 . S
O12 Cd2 2.297 . S
O12 C7 1.247 . S
O13 Cd2 2.439 . S
O13 C7 1.208 . S
O14 Cd15 2.223 . S
O14 C22 1.315 . S
Cd15 O14 2.223 . S
Cd15 O18 2.297 . S
Cd15 O19 2.439 . S
Cd15 O25 2.240 . S
Cd16 O17 2.240 . S
Cd16 O24 2.223 . S
Cd16 O26 2.297 . S
Cd16 O27 2.439 . S
O17 Cd16 2.240 . S
O17 C22 1.279 . S
O18 Cd15 2.297 . S
O18 C20 1.247 . S
O19 Cd15 2.439 . S
O19 C20 1.208 . S
C20 O18 1.247 . S
C20 O19 1.208 . S
C21 O26 1.247 . S
C21 O27 1.208 . S
C22 O14 1.315 . S
C22 O17 1.279 . S
C23 O24 1.315 . S
C23 O25 1.279 . S
O24 Cd16 2.223 . S
O24 C23 1.315 . S
O25 Cd15 2.240 . S
O25 C23 1.279 . S
O26 Cd16 2.297 . S
O26 C21 1.247 . S
O27 Cd16 2.439 . S
O27 C21 1.208 . S
O28 Cd29 2.223 . S
O28 C36 1.315 . S
Cd29 O28 2.223 . S
Cd29 O32 2.297 . S
Cd29 O33 2.439 . S
Cd29 O39 2.240 . S
Cd30 O31 2.240 . S
Cd30 O38 2.223 . S
Cd30 O40 2.297 . S
Cd30 O41 2.439 . S
O31 Cd30 2.240 . S
O31 C36 1.279 . S
O32 Cd29 2.297 . S
O32 C34 1.247 . S
O33 Cd29 2.439 . S
O33 C34 1.208 . S
C34 O32 1.247 . S
C34 O33 1.208 . S
C35 O40 1.247 . S
C35 O41 1.208 . S
C36 O28 1.315 . S
C36 O31 1.279 . S
C37 O38 1.315 . S
C37 O39 1.279 . S
O38 Cd30 2.223 . S
O38 C37 1.315 . S
O39 Cd29 2.240 . S
O39 C37 1.279 . S
O40 Cd30 2.297 . S
O40 C35 1.247 . S
O41 Cd30 2.439 . S
O41 C35 1.208 . S
O42 Cd43 2.223 . S
O42 C50 1.315 . S
Cd43 O42 2.223 . S
Cd43 O46 2.297 . S
Cd43 O47 2.439 . S
Cd43 O53 2.240 . S
Cd44 O45 2.240 . S
Cd44 O52 2.223 . S
Cd44 O54 2.297 . S
Cd44 O55 2.439 . S
O45 Cd44 2.240 . S
O45 C50 1.279 . S
O46 Cd43 2.297 . S
O46 C48 1.247 . S
O47 Cd43 2.439 . S
O47 C48 1.208 . S
C48 O46 1.247 . S
C48 O47 1.208 . S
C49 O54 1.247 . S
C49 O55 1.208 . S
C50 O42 1.315 . S
C50 O45 1.279 . S
C51 O52 1.315 . S
C51 O53 1.279 . S
O52 Cd44 2.223 . S
O52 C51 1.315 . S
O53 Cd43 2.240 . S
O53 C51 1.279 . S
O54 Cd44 2.297 . S
O54 C49 1.247 . S
O55 Cd44 2.439 . S
O55 C49 1.208 . S
O56 Cd57 2.223 . S
O56 C64 1.315 . S
Cd57 O56 2.223 . S
Cd57 O60 2.297 . S
Cd57 O61 2.439 . S
Cd57 O67 2.240 . S
Cd58 O59 2.240 . S
Cd58 O66 2.223 . S
Cd58 O68 2.297 . S
Cd58 O69 2.439 . S
O59 Cd58 2.240 . S
O59 C64 1.279 . S
O60 Cd57 2.297 . S
O60 C62 1.247 . S
O61 Cd57 2.439 . S
O61 C62 1.208 . S
C62 O60 1.247 . S
C62 O61 1.208 . S
C63 O68 1.247 . S
C63 O69 1.208 . S
C64 O56 1.315 . S
C64 O59 1.279 . S
C65 O66 1.315 . S
C65 O67 1.279 . S
O66 Cd58 2.223 . S
O66 C65 1.315 . S
O67 Cd57 2.240 . S
O67 C65 1.279 . S
O68 Cd58 2.297 . S
O68 C63 1.247 . S
O69 Cd58 2.439 . S
O69 C63 1.208 . S
O70 Cd71 2.223 . S
O70 C78 1.315 . S
Cd71 O70 2.223 . S
Cd71 O74 2.297 . S
Cd71 O75 2.439 . S
Cd71 O81 2.240 . S
Cd72 O73 2.240 . S
Cd72 O80 2.223 . S
Cd72 O82 2.297 . S
Cd72 O83 2.439 . S
O73 Cd72 2.240 . S
O73 C78 1.279 . S
O74 Cd71 2.297 . S
O74 C76 1.247 . S
O75 Cd71 2.439 . S
O75 C76 1.208 . S
C76 O74 1.247 . S
C76 O75 1.208 . S
C77 O82 1.247 . S
C77 O83 1.208 . S
C78 O70 1.315 . S
C78 O73 1.279 . S
C79 O80 1.315 . S
C79 O81 1.279 . S
O80 Cd72 2.223 . S
O80 C79 1.315 . S
O81 Cd71 2.240 . S
O81 C79 1.279 . S
O82 Cd72 2.297 . S
O82 C77 1.247 . S
O83 Cd72 2.439 . S
O83 C77 1.208 . S
O84 Cd85 2.223 . S
O84 C92 1.315 . S
Cd85 O84 2.223 . S
Cd85 O88 2.297 . S
Cd85 O89 2.439 . S
Cd85 O95 2.240 . S
Cd86 O87 2.240 . S
Cd86 O94 2.223 . S
Cd86 O96 2.297 . S
Cd86 O97 2.439 . S
O87 Cd86 2.240 . S
O87 C92 1.279 . S
O88 Cd85 2.297 . S
O88 C90 1.247 . S
O89 Cd85 2.439 . S
O89 C90 1.208 . S
C90 O88 1.247 . S
C90 O89 1.208 . S
C91 O96 1.247 . S
C91 O97 1.208 . S
C92 O84 1.315 . S
C92 O87 1.279 . S
C93 O94 1.315 . S
C93 O95 1.279 . S
O94 Cd86 2.223 . S
O94 C93 1.315 . S
O95 Cd85 2.240 . S
O95 C93 1.279 . S
O96 Cd86 2.297 . S
O96 C91 1.247 . S
O97 Cd86 2.439 . S
O97 C91 1.208 . S
O98 Cd99 2.223 . S
O98 C106 1.315 . S
Cd99 O98 2.223 . S
Cd99 O102 2.297 . S
Cd99 O103 2.439 . S
Cd99 O109 2.240 . S
Cd100 O101 2.240 . S
Cd100 O108 2.223 . S
Cd100 O110 2.297 . S
Cd100 O111 2.439 . S
O101 Cd100 2.240 . S
O101 C106 1.279 . S
O102 Cd99 2.297 . S
O102 C104 1.247 . S
O103 Cd99 2.439 . S
O103 C104 1.208 . S
C104 O102 1.247 . S
C104 O103 1.208 . S
C105 O110 1.247 . S
C105 O111 1.208 . S
C106 O98 1.315 . S
C106 O101 1.279 . S
C107 O108 1.315 . S
C107 O109 1.279 . S
O108 Cd100 2.223 . S
O108 C107 1.315 . S
O109 Cd99 2.240 . S
O109 C107 1.279 . S
O110 Cd100 2.297 . S
O110 C105 1.247 . S
O111 Cd100 2.439 . S
O111 C105 1.208 . S
O112 Cd113 2.223 . S
O112 C120 1.315 . S
Cd113 O112 2.223 . S
Cd113 O116 2.297 . S
Cd113 O117 2.439 . S
Cd113 O123 2.240 . S
Cd114 O115 2.240 . S
Cd114 O122 2.223 . S
Cd114 O124 2.297 . S
Cd114 O125 2.439 . S
O115 Cd114 2.240 . S
O115 C120 1.279 . S
O116 Cd113 2.297 . S
O116 C118 1.247 . S
O117 Cd113 2.439 . S
O117 C118 1.208 . S
C118 O116 1.247 . S
C118 O117 1.208 . S
C119 O124 1.247 . S
C119 O125 1.208 . S
C120 O112 1.315 . S
C120 O115 1.279 . S
C121 O122 1.315 . S
C121 O123 1.279 . S
O122 Cd114 2.223 . S
O122 C121 1.315 . S
O123 Cd113 2.240 . S
O123 C121 1.279 . S
O124 Cd114 2.297 . S
O124 C119 1.247 . S
O125 Cd114 2.439 . S
O125 C119 1.208 . S
O126 Cd127 2.223 . S
O126 C134 1.315 . S
Cd127 O126 2.223 . S
Cd127 O130 2.297 . S
Cd127 O131 2.439 . S
Cd127 O137 2.240 . S
Cd128 O129 2.240 . S
Cd128 O136 2.223 . S
Cd128 O138 2.297 . S
Cd128 O139 2.439 . S
O129 Cd128 2.240 . S
O129 C134 1.279 . S
O130 Cd127 2.297 . S
O130 C132 1.247 . S
O131 Cd127 2.439 . S
O131 C132 1.208 . S
C132 O130 1.247 . S
C132 O131 1.208 . S
C133 O138 1.247 . S
C133 O139 1.208 . S
C134 O126 1.315 . S
C134 O129 1.279 . S
C135 O136 1.315 . S
C135 O137 1.279 . S
O136 Cd128 2.223 . S
O136 C135 1.315 . S
O137 Cd127 2.240 . S
O137 C135 1.279 . S
O138 Cd128 2.297 . S
O138 C133 1.247 . S
O139 Cd128 2.439 . S
O139 C133 1.208 . S
O140 Cd141 2.223 . S
O140 C148 1.315 . S
Cd141 O140 2.223 . S
Cd141 O144 2.297 . S
Cd141 O145 2.439 . S
Cd141 O151 2.240 . S
Cd142 O143 2.240 . S
Cd142 O150 2.223 . S
Cd142 O152 2.297 . S
Cd142 O153 2.439 . S
O143 Cd142 2.240 . S
O143 C148 1.279 . S
O144 Cd141 2.297 . S
O144 C146 1.247 . S
O145 Cd141 2.439 . S
O145 C146 1.208 . S
C146 O144 1.247 . S
C146 O145 1.208 . S
C147 O152 1.247 . S
C147 O153 1.208 . S
C148 O140 1.315 . S
C148 O143 1.279 . S
C149 O150 1.315 . S
C149 O151 1.279 . S
O150 Cd142 2.223 . S
O150 C149 1.315 . S
O151 Cd141 2.240 . S
O151 C149 1.279 . S
O152 Cd142 2.297 . S
O152 C147 1.247 . S
O153 Cd142 2.439 . S
O153 C147 1.208 . S
O154 Cd155 2.223 . S
O154 C162 1.315 . S
Cd155 O154 2.223 . S
Cd155 O158 2.297 . S
Cd155 O159 2.439 . S
Cd155 O165 2.240 . S
Cd156 O157 2.240 . S
Cd156 O164 2.223 . S
Cd156 O166 2.297 . S
Cd156 O167 2.439 . S
O157 Cd156 2.240 . S
O157 C162 1.279 . S
O158 Cd155 2.297 . S
O158 C160 1.247 . S
O159 Cd155 2.439 . S
O159 C160 1.208 . S
C160 O158 1.247 . S
C160 O159 1.208 . S
C161 O166 1.247 . S
C161 O167 1.208 . S
C162 O154 1.315 . S
C162 O157 1.279 . S
C163 O164 1.315 . S
C163 O165 1.279 . S
O164 Cd156 2.223 . S
O164 C163 1.315 . S
O165 Cd155 2.240 . S
O165 C163 1.279 . S
O166 Cd156 2.297 . S
O166 C161 1.247 . S
O167 Cd156 2.439 . S
O167 C161 1.208 . S
O168 Cd169 2.223 . S
O168 C176 1.315 . S
Cd169 O168 2.223 . S
Cd169 O172 2.297 . S
Cd169 O173 2.439 . S
Cd169 O179 2.240 . S
Cd170 O171 2.240 . S
Cd170 O178 2.223 . S
Cd170 O180 2.297 . S
Cd170 O181 2.439 . S
O171 Cd170 2.240 . S
O171 C176 1.279 . S
O172 Cd169 2.297 . S
O172 C174 1.247 . S
O173 Cd169 2.439 . S
O173 C174 1.208 . S
C174 O172 1.247 . S
C174 O173 1.208 . S
C175 O180 1.247 . S
C175 O181 1.208 . S
C176 O168 1.315 . S
C176 O171 1.279 . S
C177 O178 1.315 . S
C177 O179 1.279 . S
O178 Cd170 2.223 . S
O178 C177 1.315 . S
O179 Cd169 2.240 . S
O179 C177 1.279 . S
O180 Cd170 2.297 . S
O180 C175 1.247 . S
O181 Cd170 2.439 . S
O181 C175 1.208 . S
O182 Cd183 2.223 . S
O182 C190 1.315 . S
Cd183 O182 2.223 . S
Cd183 O186 2.297 . S
Cd183 O187 2.439 . S
Cd183 O193 2.240 . S
Cd184 O185 2.240 . S
Cd184 O192 2.223 . S
Cd184 O194 2.297 . S
Cd184 O195 2.439 . S
O185 Cd184 2.240 . S
O185 C190 1.279 . S
O186 Cd183 2.297 . S
O186 C188 1.247 . S
O187 Cd183 2.439 . S
O187 C188 1.208 . S
C188 O186 1.247 . S
C188 O187 1.208 . S
C189 O194 1.247 . S
C189 O195 1.208 . S
C190 O182 1.315 . S
C190 O185 1.279 . S
C191 O192 1.315 . S
C191 O193 1.279 . S
O192 Cd184 2.223 . S
O192 C191 1.315 . S
O193 Cd183 2.240 . S
O193 C191 1.279 . S
O194 Cd184 2.297 . S
O194 C189 1.247 . S
O195 Cd184 2.439 . S
O195 C189 1.208 . S
O196 Cd197 2.223 . S
O196 C204 1.315 . S
Cd197 O196 2.223 . S
Cd197 O200 2.297 . S
Cd197 O201 2.439 . S
Cd197 O207 2.240 . S
Cd198 O199 2.240 . S
Cd198 O206 2.223 . S
Cd198 O208 2.297 . S
Cd198 O209 2.439 . S
O199 Cd198 2.240 . S
O199 C204 1.279 . S
O200 Cd197 2.297 . S
O200 C202 1.247 . S
O201 Cd197 2.439 . S
O201 C202 1.208 . S
C202 O200 1.247 . S
C202 O201 1.208 . S
C203 O208 1.247 . S
C203 O209 1.208 . S
C204 O196 1.315 . S
C204 O199 1.279 . S
C205 O206 1.315 . S
C205 O207 1.279 . S
O206 Cd198 2.223 . S
O206 C205 1.315 . S
O207 Cd197 2.240 . S
O207 C205 1.279 . S
O208 Cd198 2.297 . S
O208 C203 1.247 . S
O209 Cd198 2.439 . S
O209 C203 1.208 . S
O210 Cd211 2.223 . S
O210 C218 1.315 . S
Cd211 O210 2.223 . S
Cd211 O214 2.297 . S
Cd211 O215 2.439 . S
Cd211 O221 2.240 . S
Cd212 O213 2.240 . S
Cd212 O220 2.223 . S
Cd212 O222 2.297 . S
Cd212 O223 2.439 . S
O213 Cd212 2.240 . S
O213 C218 1.279 . S
O214 Cd211 2.297 . S
O214 C216 1.247 . S
O215 Cd211 2.439 . S
O215 C216 1.208 . S
C216 O214 1.247 . S
C216 O215 1.208 . S
C217 O222 1.247 . S
C217 O223 1.208 . S
C218 O210 1.315 . S
C218 O213 1.279 . S
C219 O220 1.315 . S
C219 O221 1.279 . S
O220 Cd212 2.223 . S
O220 C219 1.315 . S
O221 Cd211 2.240 . S
O221 C219 1.279 . S
O222 Cd212 2.297 . S
O222 C217 1.247 . S
O223 Cd212 2.439 . S
O223 C217 1.208 . S
H224 C230 0.930 . S
H225 C234 0.930 . S
H226 C239 0.929 . S
H227 C237 0.929 . S
H228 C232 0.929 . S
H229 C238 0.929 1_554 S
C230 H224 0.930 . S
C230 C231 1.367 . S
C230 C238 1.378 . S
C231 C230 1.367 . S
C231 C239 1.433 . S
C232 H228 0.929 . S
C232 C234 1.378 1_556 S
C232 C236 1.350 1_556 S
C233 C236 1.463 1_556 S
C233 C238 1.350 . S
C233 N241 1.427 . S
C234 H225 0.930 . S
C234 C232 1.378 1_554 S
C234 C235 1.367 . S
C235 C234 1.367 . S
C235 C237 1.433 . S
C236 C232 1.350 1_554 S
C236 C233 1.463 1_554 S
C236 N240 1.427 . S
C237 H227 0.929 . S
C237 C235 1.433 . S
C237 N240 1.384 . S
C238 H229 0.929 1_556 S
C238 C230 1.378 . S
C238 C233 1.350 . S
C239 H226 0.929 . S
C239 C231 1.433 . S
C239 N241 1.384 . S
N240 C236 1.427 . S
N240 C237 1.384 . S
N241 C233 1.427 . S
N241 C239 1.384 . S
H242 C248 0.930 . S
H243 C252 0.930 . S
H244 C257 0.929 . S
H245 C255 0.929 . S
H246 C250 0.929 . S
H247 C256 0.929 . S
C248 H242 0.930 . S
C248 C249 1.367 . S
C248 C256 1.378 . S
C249 C248 1.367 . S
C249 C257 1.433 . S
C250 H246 0.929 . S
C250 C252 1.378 . S
C250 C254 1.350 . S
C251 C254 1.463 . S
C251 C256 1.350 . S
C251 N259 1.427 . S
C252 H243 0.930 . S
C252 C250 1.378 . S
C252 C253 1.367 . S
C253 C252 1.367 . S
C253 C255 1.433 . S
C254 C250 1.350 . S
C254 C251 1.463 . S
C254 N258 1.427 . S
C255 H245 0.929 . S
C255 C253 1.433 . S
C255 N258 1.384 . S
C256 H247 0.929 . S
C256 C248 1.378 . S
C256 C251 1.350 . S
C257 H244 0.929 . S
C257 C249 1.433 . S
C257 N259 1.384 . S
N258 C254 1.427 . S
N258 C255 1.384 . S
N259 C251 1.427 . S
N259 C257 1.384 . S
H260 C266 0.930 . S
H261 C270 0.930 . S
H262 C275 0.929 . S
H263 C273 0.929 . S
H264 C268 0.929 . S
H265 C274 0.929 . S
C266 H260 0.930 . S
C266 C267 1.367 . S
C266 C274 1.378 . S
C267 C266 1.367 . S
C267 C275 1.433 . S
C268 H264 0.929 . S
C268 C270 1.378 . S
C268 C272 1.350 . S
C269 C272 1.463 1_556 S
C269 C274 1.350 . S
C269 N277 1.427 . S
C270 H261 0.930 . S
C270 C268 1.378 . S
C270 C271 1.367 . S
C271 C270 1.367 . S
C271 C273 1.433 . S
C272 C268 1.350 . S
C272 C269 1.463 1_554 S
C272 N276 1.427 . S
C273 H263 0.929 . S
C273 C271 1.433 . S
C273 N276 1.384 . S
C274 H265 0.929 . S
C274 C266 1.378 . S
C274 C269 1.350 . S
C275 H262 0.929 . S
C275 C267 1.433 . S
C275 N277 1.384 . S
N276 C272 1.427 . S
N276 C273 1.384 . S
N277 C269 1.427 . S
N277 C275 1.384 . S
H278 C284 0.930 . S
H279 C288 0.930 . S
H280 C293 0.929 . S
H281 C291 0.929 . S
H282 C286 0.929 . S
H283 C292 0.929 . S
C284 H278 0.930 . S
C284 C285 1.367 . S
C284 C292 1.378 . S
C285 C284 1.367 . S
C285 C293 1.433 . S
C286 H282 0.929 . S
C286 C288 1.378 . S
C286 C290 1.350 . S
C287 C290 1.463 . S
C287 C292 1.350 . S
C287 N295 1.427 . S
C288 H279 0.930 . S
C288 C286 1.378 . S
C288 C289 1.367 . S
C289 C288 1.367 . S
C289 C291 1.433 . S
C290 C286 1.350 . S
C290 C287 1.463 . S
C290 N294 1.427 . S
C291 H281 0.929 . S
C291 C289 1.433 . S
C291 N294 1.384 . S
C292 H283 0.929 . S
C292 C284 1.378 . S
C292 C287 1.350 . S
C293 H280 0.929 . S
C293 C285 1.433 . S
C293 N295 1.384 . S
N294 C290 1.427 . S
N294 C291 1.384 . S
N295 C287 1.427 . S
N295 C293 1.384 . S
H296 C302 0.930 . S
H297 C306 0.930 . S
H298 C311 0.929 . S
H299 C309 0.929 . S
H300 C304 0.929 . S
H301 C310 0.929 . S
C302 H296 0.930 . S
C302 C303 1.367 . S
C302 C310 1.378 . S
C303 C302 1.367 . S
C303 C311 1.433 . S
C304 H300 0.929 . S
C304 C306 1.378 . S
C304 C308 1.350 . S
C305 C308 1.463 1_554 S
C305 C310 1.350 . S
C305 N313 1.427 . S
C306 H297 0.930 . S
C306 C304 1.378 . S
C306 C307 1.367 . S
C307 C306 1.367 . S
C307 C309 1.433 . S
C308 C304 1.350 . S
C308 C305 1.463 1_556 S
C308 N312 1.427 . S
C309 H299 0.929 . S
C309 C307 1.433 . S
C309 N312 1.384 . S
C310 H301 0.929 . S
C310 C302 1.378 . S
C310 C305 1.350 . S
C311 H298 0.929 . S
C311 C303 1.433 . S
C311 N313 1.384 . S
N312 C308 1.427 . S
N312 C309 1.384 . S
N313 C305 1.427 . S
N313 C311 1.384 . S
H314 C320 0.930 . S
H315 C324 0.930 . S
H316 C329 0.929 . S
H317 C327 0.929 . S
H318 C322 0.929 . S
H319 C328 0.929 . S
C320 H314 0.930 . S
C320 C321 1.367 . S
C320 C328 1.378 . S
C321 C320 1.367 . S
C321 C329 1.433 . S
C322 H318 0.929 . S
C322 C324 1.378 . S
C322 C326 1.350 . S
C323 C326 1.463 . S
C323 C328 1.350 . S
C323 N331 1.427 . S
C324 H315 0.930 . S
C324 C322 1.378 . S
C324 C325 1.367 . S
C325 C324 1.367 . S
C325 C327 1.433 . S
C326 C322 1.350 . S
C326 C323 1.463 . S
C326 N330 1.427 . S
C327 H317 0.929 . S
C327 C325 1.433 . S
C327 N330 1.384 . S
C328 H319 0.929 . S
C328 C320 1.378 . S
C328 C323 1.350 . S
C329 H316 0.929 . S
C329 C321 1.433 . S
C329 N331 1.384 . S
N330 C326 1.427 . S
N330 C327 1.384 . S
N331 C323 1.427 . S
N331 C329 1.384 . S
H332 C338 0.930 . S
H333 C342 0.930 . S
H334 C347 0.929 . S
H335 C345 0.929 . S
H336 C340 0.929 1_556 S
H337 C346 0.929 1_554 S
C338 H332 0.930 . S
C338 C339 1.367 . S
C338 C346 1.378 . S
C339 C338 1.367 . S
C339 C347 1.433 . S
C340 H336 0.929 1_554 S
C340 C342 1.378 . S
C340 C344 1.350 . S
C341 C344 1.463 1_556 S
C341 C346 1.350 . S
C341 N349 1.427 . S
C342 H333 0.930 . S
C342 C340 1.378 . S
C342 C343 1.367 . S
C343 C342 1.367 . S
C343 C345 1.433 . S
C344 C340 1.350 . S
C344 C341 1.463 1_554 S
C344 N348 1.427 . S
C345 H335 0.929 . S
C345 C343 1.433 . S
C345 N348 1.384 . S
C346 H337 0.929 1_556 S
C346 C338 1.378 . S
C346 C341 1.350 . S
C347 H334 0.929 . S
C347 C339 1.433 . S
C347 N349 1.384 . S
N348 C344 1.427 . S
N348 C345 1.384 . S
N349 C341 1.427 . S
N349 C347 1.384 . S
H350 C356 0.930 . S
H351 C360 0.930 . S
H352 C365 0.929 . S
H353 C363 0.929 . S
H354 C358 0.929 . S
H355 C364 0.929 . S
C356 H350 0.930 . S
C356 C357 1.367 . S
C356 C364 1.378 . S
C357 C356 1.367 . S
C357 C365 1.433 . S
C358 H354 0.929 . S
C358 C360 1.378 . S
C358 C362 1.350 . S
C359 C362 1.463 . S
C359 C364 1.350 . S
C359 N367 1.427 . S
C360 H351 0.930 . S
C360 C358 1.378 . S
C360 C361 1.367 . S
C361 C360 1.367 . S
C361 C363 1.433 . S
C362 C358 1.350 . S
C362 C359 1.463 . S
C362 N366 1.427 . S
C363 H353 0.929 . S
C363 C361 1.433 . S
C363 N366 1.384 . S
C364 H355 0.929 . S
C364 C356 1.378 . S
C364 C359 1.350 . S
C365 H352 0.929 . S
C365 C357 1.433 . S
C365 N367 1.384 . S
N366 C362 1.427 . S
N366 C363 1.384 . S
N367 C359 1.427 . S
N367 C365 1.384 . S
H368 C374 0.930 . S
H369 C378 0.930 . S
H370 C383 0.929 . S
H371 C381 0.929 . S
H372 C376 0.929 . S
H373 C382 0.929 . S
C374 H368 0.930 . S
C374 C375 1.367 . S
C374 C382 1.378 . S
C375 C374 1.367 . S
C375 C383 1.433 . S
C376 H372 0.929 . S
C376 C378 1.378 . S
C376 C380 1.350 . S
C377 C380 1.463 . S
C377 C382 1.350 . S
C377 N385 1.427 . S
C378 H369 0.930 . S
C378 C376 1.378 . S
C378 C379 1.367 . S
C379 C378 1.367 . S
C379 C381 1.433 . S
C380 C376 1.350 . S
C380 C377 1.463 . S
C380 N384 1.427 . S
C381 H371 0.929 . S
C381 C379 1.433 . S
C381 N384 1.384 . S
C382 H373 0.929 . S
C382 C374 1.378 . S
C382 C377 1.350 . S
C383 H370 0.929 . S
C383 C375 1.433 . S
C383 N385 1.384 . S
N384 C380 1.427 . S
N384 C381 1.384 . S
N385 C377 1.427 . S
N385 C383 1.384 . S
H386 C392 0.930 . S
H387 C396 0.930 . S
H388 C401 0.929 . S
H389 C399 0.929 . S
H390 C394 0.929 . S
H391 C400 0.929 . S
C392 H386 0.930 . S
C392 C393 1.367 . S
C392 C400 1.378 . S
C393 C392 1.367 . S
C393 C401 1.433 . S
C394 H390 0.929 . S
C394 C396 1.378 . S
C394 C398 1.350 . S
C395 C398 1.463 . S
C395 C400 1.350 . S
C395 N403 1.427 . S
C396 H387 0.930 . S
C396 C394 1.378 . S
C396 C397 1.367 . S
C397 C396 1.367 . S
C397 C399 1.433 . S
C398 C394 1.350 . S
C398 C395 1.463 . S
C398 N402 1.427 . S
C399 H389 0.929 . S
C399 C397 1.433 . S
C399 N402 1.384 . S
C400 H391 0.929 . S
C400 C392 1.378 . S
C400 C395 1.350 . S
C401 H388 0.929 . S
C401 C393 1.433 . S
C401 N403 1.384 . S
N402 C398 1.427 . S
N402 C399 1.384 . S
N403 C395 1.427 . S
N403 C401 1.384 . S
H404 C410 0.930 . S
H405 C414 0.930 . S
H406 C419 0.929 . S
H407 C417 0.929 . S
H408 C412 0.929 . S
H409 C418 0.929 . S
C410 H404 0.930 . S
C410 C411 1.367 . S
C410 C418 1.378 . S
C411 C410 1.367 . S
C411 C419 1.433 . S
C412 H408 0.929 . S
C412 C414 1.378 . S
C412 C416 1.350 . S
C413 C416 1.463 . S
C413 C418 1.350 . S
C413 N421 1.427 . S
C414 H405 0.930 . S
C414 C412 1.378 . S
C414 C415 1.367 . S
C415 C414 1.367 . S
C415 C417 1.433 . S
C416 C412 1.350 . S
C416 C413 1.463 . S
C416 N420 1.427 . S
C417 H407 0.929 . S
C417 C415 1.433 . S
C417 N420 1.384 . S
C418 H409 0.929 . S
C418 C410 1.378 . S
C418 C413 1.350 . S
C419 H406 0.929 . S
C419 C411 1.433 . S
C419 N421 1.384 . S
N420 C416 1.427 . S
N420 C417 1.384 . S
N421 C413 1.427 . S
N421 C419 1.384 . S
H422 C428 0.930 . S
H423 C432 0.930 . S
H424 C437 0.929 . S
H425 C435 0.929 . S
H426 C430 0.929 . S
H427 C436 0.929 . S
C428 H422 0.930 . S
C428 C429 1.367 . S
C428 C436 1.378 . S
C429 C428 1.367 . S
C429 C437 1.433 . S
C430 H426 0.929 . S
C430 C432 1.378 . S
C430 C434 1.350 . S
C431 C434 1.463 . S
C431 C436 1.350 . S
C431 N439 1.427 . S
C432 H423 0.930 . S
C432 C430 1.378 . S
C432 C433 1.367 . S
C433 C432 1.367 . S
C433 C435 1.433 . S
C434 C430 1.350 . S
C434 C431 1.463 . S
C434 N438 1.427 . S
C435 H425 0.929 . S
C435 C433 1.433 . S
C435 N438 1.384 . S
C436 H427 0.929 . S
C436 C428 1.378 . S
C436 C431 1.350 . S
C437 H424 0.929 . S
C437 C429 1.433 . S
C437 N439 1.384 . S
N438 C434 1.427 . S
N438 C435 1.384 . S
N439 C431 1.427 . S
N439 C437 1.384 . S
H440 C446 0.930 . S
H441 C450 0.930 . S
H442 C455 0.929 . S
H443 C453 0.929 . S
H444 C448 0.929 . S
H445 C454 0.929 . S
C446 H440 0.930 . S
C446 C447 1.367 . S
C446 C454 1.378 . S
C447 C446 1.367 . S
C447 C455 1.433 . S
C448 H444 0.929 . S
C448 C450 1.378 . S
C448 C452 1.350 . S
C449 C452 1.463 . S
C449 C454 1.350 . S
C449 N457 1.427 . S
C450 H441 0.930 . S
C450 C448 1.378 . S
C450 C451 1.367 . S
C451 C450 1.367 . S
C451 C453 1.433 . S
C452 C448 1.350 . S
C452 C449 1.463 . S
C452 N456 1.427 . S
C453 H443 0.929 . S
C453 C451 1.433 . S
C453 N456 1.384 . S
C454 H445 0.929 . S
C454 C446 1.378 . S
C454 C449 1.350 . S
C455 H442 0.929 . S
C455 C447 1.433 . S
C455 N457 1.384 . S
N456 C452 1.427 . S
N456 C453 1.384 . S
N457 C449 1.427 . S
N457 C455 1.384 . S
H458 C464 0.930 . S
H459 C468 0.930 . S
H460 C473 0.929 . S
H461 C471 0.929 . S
H462 C466 0.929 . S
H463 C472 0.929 . S
C464 H458 0.930 . S
C464 C465 1.367 . S
C464 C472 1.378 . S
C465 C464 1.367 . S
C465 C473 1.433 . S
C466 H462 0.929 . S
C466 C468 1.378 . S
C466 C470 1.350 . S
C467 C470 1.463 . S
C467 C472 1.350 . S
C467 N475 1.427 . S
C468 H459 0.930 . S
C468 C466 1.378 . S
C468 C469 1.367 . S
C469 C468 1.367 . S
C469 C471 1.433 . S
C470 C466 1.350 . S
C470 C467 1.463 . S
C470 N474 1.427 . S
C471 H461 0.929 . S
C471 C469 1.433 . S
C471 N474 1.384 . S
C472 H463 0.929 . S
C472 C464 1.378 . S
C472 C467 1.350 . S
C473 H460 0.929 . S
C473 C465 1.433 . S
C473 N475 1.384 . S
N474 C470 1.427 . S
N474 C471 1.384 . S
N475 C467 1.427 . S
N475 C473 1.384 . S
H476 C482 0.930 . S
H477 C486 0.930 . S
H478 C491 0.929 . S
H479 C489 0.929 . S
H480 C484 0.929 . S
H481 C490 0.929 . S
C482 H476 0.930 . S
C482 C483 1.367 . S
C482 C490 1.378 . S
C483 C482 1.367 . S
C483 C491 1.433 . S
C484 H480 0.929 . S
C484 C486 1.378 . S
C484 C488 1.350 . S
C485 C488 1.463 . S
C485 C490 1.350 . S
C485 N493 1.427 . S
C486 H477 0.930 . S
C486 C484 1.378 . S
C486 C487 1.367 . S
C487 C486 1.367 . S
C487 C489 1.433 . S
C488 C484 1.350 . S
C488 C485 1.463 . S
C488 N492 1.427 . S
C489 H479 0.929 . S
C489 C487 1.433 . S
C489 N492 1.384 . S
C490 H481 0.929 . S
C490 C482 1.378 . S
C490 C485 1.350 . S
C491 H478 0.929 . S
C491 C483 1.433 . S
C491 N493 1.384 . S
N492 C488 1.427 . S
N492 C489 1.384 . S
N493 C485 1.427 . S
N493 C491 1.384 . S
H494 C500 0.930 . S
H495 C504 0.930 . S
H496 C509 0.929 . S
H497 C507 0.929 . S
H498 C502 0.929 . S
H499 C508 0.929 . S
C500 H494 0.930 . S
C500 C501 1.367 . S
C500 C508 1.378 . S
C501 C500 1.367 . S
C501 C509 1.433 . S
C502 H498 0.929 . S
C502 C504 1.378 . S
C502 C506 1.350 . S
C503 C506 1.463 . S
C503 C508 1.350 . S
C503 N511 1.427 . S
C504 H495 0.930 . S
C504 C502 1.378 . S
C504 C505 1.367 . S
C505 C504 1.367 . S
C505 C507 1.433 . S
C506 C502 1.350 . S
C506 C503 1.463 . S
C506 N510 1.427 . S
C507 H497 0.929 . S
C507 C505 1.433 . S
C507 N510 1.384 . S
C508 H499 0.929 . S
C508 C500 1.378 . S
C508 C503 1.350 . S
C509 H496 0.929 . S
C509 C501 1.433 . S
C509 N511 1.384 . S
N510 C506 1.427 . S
N510 C507 1.384 . S
N511 C503 1.427 . S
N511 C509 1.384 . S
H512 C518 0.930 . S
H513 C522 0.930 . S
H514 C527 0.929 . S
H515 C525 0.929 . S
H516 C520 0.929 . S
H517 C526 0.929 . S
C518 H512 0.930 . S
C518 C519 1.367 . S
C518 C526 1.378 . S
C519 C518 1.367 . S
C519 C527 1.433 . S
C520 H516 0.929 . S
C520 C522 1.378 . S
C520 C524 1.350 . S
C521 C524 1.463 . S
C521 C526 1.350 . S
C521 N529 1.427 . S
C522 H513 0.930 . S
C522 C520 1.378 . S
C522 C523 1.367 . S
C523 C522 1.367 . S
C523 C525 1.433 . S
C524 C520 1.350 . S
C524 C521 1.463 . S
C524 N528 1.427 . S
C525 H515 0.929 . S
C525 C523 1.433 . S
C525 N528 1.384 . S
C526 H517 0.929 . S
C526 C518 1.378 . S
C526 C521 1.350 . S
C527 H514 0.929 . S
C527 C519 1.433 . S
C527 N529 1.384 . S
N528 C524 1.427 . S
N528 C525 1.384 . S
N529 C521 1.427 . S
N529 C527 1.384 . S
H530 C536 0.930 . S
H531 C540 0.930 . S
H532 C545 0.929 . S
H533 C543 0.929 . S
H534 C538 0.929 . S
H535 C544 0.929 . S
C536 H530 0.930 . S
C536 C537 1.367 . S
C536 C544 1.378 . S
C537 C536 1.367 . S
C537 C545 1.433 . S
C538 H534 0.929 . S
C538 C540 1.378 . S
C538 C542 1.350 . S
C539 C542 1.463 . S
C539 C544 1.350 . S
C539 N547 1.427 . S
C540 H531 0.930 . S
C540 C538 1.378 . S
C540 C541 1.367 . S
C541 C540 1.367 . S
C541 C543 1.433 . S
C542 C538 1.350 . S
C542 C539 1.463 . S
C542 N546 1.427 . S
C543 H533 0.929 . S
C543 C541 1.433 . S
C543 N546 1.384 . S
C544 H535 0.929 . S
C544 C536 1.378 . S
C544 C539 1.350 . S
C545 H532 0.929 . S
C545 C537 1.433 . S
C545 N547 1.384 . S
N546 C542 1.427 . S
N546 C543 1.384 . S
N547 C539 1.427 . S
N547 C545 1.384 . S
H548 C554 0.930 . S
H549 C558 0.930 . S
H550 C563 0.929 . S
H551 C561 0.929 . S
H552 C556 0.929 . S
H553 C562 0.929 . S
C554 H548 0.930 . S
C554 C555 1.367 . S
C554 C562 1.378 . S
C555 C554 1.367 . S
C555 C563 1.433 . S
C556 H552 0.929 . S
C556 C558 1.378 . S
C556 C560 1.350 . S
C557 C560 1.463 . S
C557 C562 1.350 . S
C557 N565 1.427 . S
C558 H549 0.930 . S
C558 C556 1.378 . S
C558 C559 1.367 . S
C559 C558 1.367 . S
C559 C561 1.433 . S
C560 C556 1.350 . S
C560 C557 1.463 . S
C560 N564 1.427 . S
C561 H551 0.929 . S
C561 C559 1.433 . S
C561 N564 1.384 . S
C562 H553 0.929 . S
C562 C554 1.378 . S
C562 C557 1.350 . S
C563 H550 0.929 . S
C563 C555 1.433 . S
C563 N565 1.384 . S
N564 C560 1.427 . S
N564 C561 1.384 . S
N565 C557 1.427 . S
N565 C563 1.384 . S
H566 C572 0.930 . S
H567 C576 0.930 . S
H568 C581 0.929 . S
H569 C579 0.929 . S
H570 C574 0.929 . S
H571 C580 0.929 . S
C572 H566 0.930 . S
C572 C573 1.367 . S
C572 C580 1.378 . S
C573 C572 1.367 . S
C573 C581 1.433 . S
C574 H570 0.929 . S
C574 C576 1.378 . S
C574 C578 1.350 . S
C575 C578 1.463 . S
C575 C580 1.350 . S
C575 N583 1.427 . S
C576 H567 0.930 . S
C576 C574 1.378 . S
C576 C577 1.367 . S
C577 C576 1.367 . S
C577 C579 1.433 . S
C578 C574 1.350 . S
C578 C575 1.463 . S
C578 N582 1.427 . S
C579 H569 0.929 . S
C579 C577 1.433 . S
C579 N582 1.384 . S
C580 H571 0.929 . S
C580 C572 1.378 . S
C580 C575 1.350 . S
C581 H568 0.929 . S
C581 C573 1.433 . S
C581 N583 1.384 . S
N582 C578 1.427 . S
N582 C579 1.384 . S
N583 C575 1.427 . S
N583 C581 1.384 . S
H584 C590 0.930 . S
H585 C594 0.930 . S
H586 C599 0.929 . S
H587 C597 0.929 . S
H588 C592 0.929 . S
H589 C598 0.929 . S
C590 H584 0.930 . S
C590 C591 1.367 . S
C590 C598 1.378 . S
C591 C590 1.367 . S
C591 C599 1.433 . S
C592 H588 0.929 . S
C592 C594 1.378 . S
C592 C596 1.350 . S
C593 C596 1.463 . S
C593 C598 1.350 . S
C593 N601 1.427 . S
C594 H585 0.930 . S
C594 C592 1.378 . S
C594 C595 1.367 . S
C595 C594 1.367 . S
C595 C597 1.433 . S
C596 C592 1.350 . S
C596 C593 1.463 . S
C596 N600 1.427 . S
C597 H587 0.929 . S
C597 C595 1.433 . S
C597 N600 1.384 . S
C598 H589 0.929 . S
C598 C590 1.378 . S
C598 C593 1.350 . S
C599 H586 0.929 . S
C599 C591 1.433 . S
C599 N601 1.384 . S
N600 C596 1.427 . S
N600 C597 1.384 . S
N601 C593 1.427 . S
N601 C599 1.384 . S
H602 C608 0.930 . S
H603 C612 0.930 . S
H604 C617 0.929 . S
H605 C615 0.929 . S
H606 C610 0.929 . S
H607 C616 0.929 . S
C608 H602 0.930 . S
C608 C609 1.367 . S
C608 C616 1.378 . S
C609 C608 1.367 . S
C609 C617 1.433 . S
C610 H606 0.929 . S
C610 C612 1.378 . S
C610 C614 1.350 . S
C611 C614 1.463 . S
C611 C616 1.350 . S
C611 N619 1.427 . S
C612 H603 0.930 . S
C612 C610 1.378 . S
C612 C613 1.367 . S
C613 C612 1.367 . S
C613 C615 1.433 . S
C614 C610 1.350 . S
C614 C611 1.463 . S
C614 N618 1.427 . S
C615 H605 0.929 . S
C615 C613 1.433 . S
C615 N618 1.384 . S
C616 H607 0.929 . S
C616 C608 1.378 . S
C616 C611 1.350 . S
C617 H604 0.929 . S
C617 C609 1.433 . S
C617 N619 1.384 . S
N618 C614 1.427 . S
N618 C615 1.384 . S
N619 C611 1.427 . S
N619 C617 1.384 . S
H620 C626 0.930 . S
H621 C630 0.930 . S
H622 C635 0.929 . S
H623 C633 0.929 . S
H624 C628 0.929 . S
H625 C634 0.929 . S
C626 H620 0.930 . S
C626 C627 1.367 . S
C626 C634 1.378 . S
C627 C626 1.367 . S
C627 C635 1.433 . S
C628 H624 0.929 . S
C628 C630 1.378 . S
C628 C632 1.350 . S
C629 C632 1.463 . S
C629 C634 1.350 . S
C629 N637 1.427 . S
C630 H621 0.930 . S
C630 C628 1.378 . S
C630 C631 1.367 . S
C631 C630 1.367 . S
C631 C633 1.433 . S
C632 C628 1.350 . S
C632 C629 1.463 . S
C632 N636 1.427 . S
C633 H623 0.929 . S
C633 C631 1.433 . S
C633 N636 1.384 . S
C634 H625 0.929 . S
C634 C626 1.378 . S
C634 C629 1.350 . S
C635 H622 0.929 . S
C635 C627 1.433 . S
C635 N637 1.384 . S
N636 C632 1.427 . S
N636 C633 1.384 . S
N637 C629 1.427 . S
N637 C635 1.384 . S
H638 C644 0.930 . S
H639 C648 0.930 . S
H640 C653 0.929 . S
H641 C651 0.929 . S
H642 C646 0.929 . S
H643 C652 0.929 . S
C644 H638 0.930 . S
C644 C645 1.367 . S
C644 C652 1.378 . S
C645 C644 1.367 . S
C645 C653 1.433 . S
C646 H642 0.929 . S
C646 C648 1.378 . S
C646 C650 1.350 . S
C647 C650 1.463 . S
C647 C652 1.350 . S
C647 N655 1.427 . S
C648 H639 0.930 . S
C648 C646 1.378 . S
C648 C649 1.367 . S
C649 C648 1.367 . S
C649 C651 1.433 . S
C650 C646 1.350 . S
C650 C647 1.463 . S
C650 N654 1.427 . S
C651 H641 0.929 . S
C651 C649 1.433 . S
C651 N654 1.384 . S
C652 H643 0.929 . S
C652 C644 1.378 . S
C652 C647 1.350 . S
C653 H640 0.929 . S
C653 C645 1.433 . S
C653 N655 1.384 . S
N654 C650 1.427 . S
N654 C651 1.384 . S
N655 C647 1.427 . S
N655 C653 1.384 . S
H656 C662 0.930 . S
H657 C666 0.930 . S
H658 C671 0.929 . S
H659 C669 0.929 . S
H660 C664 0.929 . S
H661 C670 0.929 . S
C662 H656 0.930 . S
C662 C663 1.367 . S
C662 C670 1.378 1_545 S
C663 C662 1.367 . S
C663 C671 1.433 . S
C664 H660 0.929 . S
C664 C666 1.378 . S
C664 C668 1.350 . S
C665 C668 1.463 . S
C665 C670 1.350 . S
C665 N673 1.427 1_565 S
C666 H657 0.930 . S
C666 C664 1.378 . S
C666 C667 1.367 . S
C667 C666 1.367 . S
C667 C669 1.433 . S
C668 C664 1.350 . S
C668 C665 1.463 . S
C668 N672 1.427 . S
C669 H659 0.929 . S
C669 C667 1.433 . S
C669 N672 1.384 . S
C670 H661 0.929 . S
C670 C662 1.378 1_565 S
C670 C665 1.350 . S
C671 H658 0.929 . S
C671 C663 1.433 . S
C671 N673 1.384 . S
N672 C668 1.427 . S
N672 C669 1.384 . S
N673 C665 1.427 1_545 S
N673 C671 1.384 . S
H674 C680 0.930 . S
H675 C684 0.930 . S
H676 C689 0.929 . S
H677 C687 0.929 . S
H678 C682 0.929 . S
H679 C688 0.929 . S
C680 H674 0.930 . S
C680 C681 1.367 . S
C680 C688 1.378 . S
C681 C680 1.367 . S
C681 C689 1.433 . S
C682 H678 0.929 . S
C682 C684 1.378 . S
C682 C686 1.350 . S
C683 C686 1.463 . S
C683 C688 1.350 . S
C683 N691 1.427 . S
C684 H675 0.930 . S
C684 C682 1.378 . S
C684 C685 1.367 . S
C685 C684 1.367 . S
C685 C687 1.433 . S
C686 C682 1.350 . S
C686 C683 1.463 . S
C686 N690 1.427 . S
C687 H677 0.929 . S
C687 C685 1.433 . S
C687 N690 1.384 . S
C688 H679 0.929 . S
C688 C680 1.378 . S
C688 C683 1.350 . S
C689 H676 0.929 . S
C689 C681 1.433 . S
C689 N691 1.384 . S
N690 C686 1.427 . S
N690 C687 1.384 . S
N691 C683 1.427 . S
N691 C689 1.384 . S
H692 C698 0.930 . S
H693 C702 0.930 . S
H694 C707 0.929 . S
H695 C705 0.933 . S
H696 C700 0.929 . S
H697 C706 0.929 . S
C698 H692 0.930 . S
C698 C699 1.367 . S
C698 C706 1.378 . S
C699 C698 1.367 . S
C699 C707 1.433 . S
C700 H696 0.929 . S
C700 C702 1.378 . S
C700 C704 1.350 1_655 S
C701 C704 1.463 . S
C701 C706 1.350 . S
C701 N709 1.427 . S
C702 H693 0.930 . S
C702 C700 1.378 . S
C702 C703 1.367 . S
C703 C702 1.367 . S
C703 C705 1.411 1_655 S
C704 C700 1.350 1_455 S
C704 C701 1.463 . S
C704 N708 1.427 . S
C705 H695 0.933 . S
C705 C703 1.411 1_455 S
C705 N708 1.402 . S
C706 H697 0.929 . S
C706 C698 1.378 . S
C706 C701 1.350 . S
C707 H694 0.929 . S
C707 C699 1.433 . S
C707 N709 1.384 . S
N708 C704 1.427 . S
N708 C705 1.402 . S
N709 C701 1.427 . S
N709 C707 1.384 . S
H710 C716 0.930 . S
H711 C720 0.930 . S
H712 C725 0.929 . S
H713 C723 0.929 . S
H714 C718 0.929 . S
H715 C724 0.929 . S
C716 H710 0.930 . S
C716 C717 1.367 . S
C716 C724 1.378 . S
C717 C716 1.367 . S
C717 C725 1.433 . S
C718 H714 0.929 . S
C718 C720 1.378 1_565 S
C718 C722 1.350 . S
C719 C722 1.463 . S
C719 C724 1.350 1_455 S
C719 N727 1.427 . S
C720 H711 0.930 . S
C720 C718 1.378 1_545 S
C720 C721 1.367 . S
C721 C720 1.367 . S
C721 C723 1.433 . S
C722 C718 1.350 . S
C722 C719 1.463 . S
C722 N726 1.427 1_565 S
C723 H713 0.929 . S
C723 C721 1.433 . S
C723 N726 1.384 . S
C724 H715 0.929 . S
C724 C716 1.378 . S
C724 C719 1.350 1_655 S
C725 H712 0.929 . S
C725 C717 1.433 . S
C725 N727 1.384 1_655 S
N726 C722 1.427 1_545 S
N726 C723 1.384 . S
N727 C719 1.427 . S
N727 C725 1.384 1_455 S
H728 C734 0.930 . S
H729 C738 0.930 . S
H730 C743 0.929 . S
H731 C741 0.929 . S
H732 C736 0.929 . S
H733 C742 0.929 . S
C734 H728 0.930 . S
C734 C735 1.367 . S
C734 C742 1.378 . S
C735 C734 1.367 . S
C735 C743 1.433 . S
C736 H732 0.929 . S
C736 C738 1.378 . S
C736 C740 1.350 . S
C737 C740 1.463 . S
C737 C742 1.350 . S
C737 N745 1.427 . S
C738 H729 0.930 . S
C738 C736 1.378 . S
C738 C739 1.367 . S
C739 C738 1.367 . S
C739 C741 1.433 . S
C740 C736 1.350 . S
C740 C737 1.463 . S
C740 N744 1.427 . S
C741 H731 0.929 . S
C741 C739 1.433 . S
C741 N744 1.384 . S
C742 H733 0.929 . S
C742 C734 1.378 . S
C742 C737 1.350 . S
C743 H730 0.929 . S
C743 C735 1.433 . S
C743 N745 1.384 . S
N744 C740 1.427 . S
N744 C741 1.384 . S
N745 C737 1.427 . S
N745 C743 1.384 . S
H746 C752 0.930 . S
H747 C756 0.930 . S
H748 C761 0.929 . S
H749 C759 0.929 . S
H750 C754 0.929 . S
H751 C760 0.927 1_655 S
C752 H746 0.930 . S
C752 C753 1.367 . S
C752 C760 1.404 . S
C753 C752 1.367 . S
C753 C761 1.433 . S
C754 H750 0.929 . S
C754 C756 1.378 . S
C754 C758 1.350 . S
C755 C758 1.463 . S
C755 C760 1.326 1_655 S
C755 N763 1.427 . S
C756 H747 0.930 . S
C756 C754 1.378 . S
C756 C757 1.367 . S
C757 C756 1.367 . S
C757 C759 1.433 . S
C758 C754 1.350 . S
C758 C755 1.463 . S
C758 N762 1.427 . S
C759 H749 0.929 . S
C759 C757 1.433 . S
C759 N762 1.384 . S
C760 H751 0.927 1_455 S
C760 C752 1.404 . S
C760 C755 1.326 1_455 S
C761 H748 0.929 . S
C761 C753 1.433 . S
C761 N763 1.384 1_455 S
N762 C758 1.427 . S
N762 C759 1.384 . S
N763 C755 1.427 . S
N763 C761 1.384 1_655 S
H764 C770 0.930 1_545 S
H765 C774 0.930 . S
H766 C779 0.929 . S
H767 C777 0.929 1_655 S
H768 C772 0.929 . S
H769 C778 0.929 . S
C770 H764 0.930 1_565 S
C770 C771 1.367 . S
C770 C778 1.378 1_565 S
C771 C770 1.367 . S
C771 C779 1.433 . S
C772 H768 0.929 . S
C772 C774 1.378 . S
C772 C776 1.350 1_455 S
C773 C776 1.463 . S
C773 C778 1.350 . S
C773 N781 1.427 1_545 S
C774 H765 0.930 . S
C774 C772 1.378 . S
C774 C775 1.367 . S
C775 C774 1.367 . S
C775 C777 1.433 . S
C776 C772 1.350 1_655 S
C776 C773 1.463 . S
C776 N780 1.427 . S
C777 H767 0.929 1_455 S
C777 C775 1.433 . S
C777 N780 1.384 1_455 S
C778 H769 0.929 . S
C778 C770 1.378 1_545 S
C778 C773 1.350 . S
C779 H766 0.929 . S
C779 C771 1.433 . S
C779 N781 1.384 . S
N780 C776 1.427 . S
N780 C777 1.384 1_655 S
N781 C773 1.427 1_565 S
N781 C779 1.384 . S
H782 C788 0.930 . S
H783 C792 0.930 . S
H784 C797 0.929 . S
H785 C795 0.929 . S
H786 C790 0.929 . S
H787 C796 0.929 . S
C788 H782 0.930 . S
C788 C789 1.367 . S
C788 C796 1.378 1_565 S
C789 C788 1.367 . S
C789 C797 1.433 . S
C790 H786 0.929 . S
C790 C792 1.378 . S
C790 C794 1.350 . S
C791 C794 1.463 . S
C791 C796 1.350 . S
C791 N799 1.427 1_545 S
C792 H783 0.930 . S
C792 C790 1.378 . S
C792 C793 1.367 . S
C793 C792 1.367 . S
C793 C795 1.433 . S
C794 C790 1.350 . S
C794 C791 1.463 . S
C794 N798 1.427 . S
C795 H785 0.929 . S
C795 C793 1.433 . S
C795 N798 1.384 . S
C796 H787 0.929 . S
C796 C788 1.378 1_545 S
C796 C791 1.350 . S
C797 H784 0.929 . S
C797 C789 1.433 . S
C797 N799 1.384 . S
N798 C794 1.427 . S
N798 C795 1.384 . S
N799 C791 1.427 1_565 S
N799 C797 1.384 . S
C231 C106 1.456 . S
C235 C8 1.499 . S
C249 C64 2.079 . S
C253 C22 2.075 . S
C267 C78 1.483 . S
C271 C36 1.446 . S
C285 C50 1.107 . S
C289 C92 1.115 . S
C303 C218 1.432 . S
C307 C120 1.484 . S
C321 C176 2.078 . S
C325 C134 2.074 . S
C339 C148 1.450 . S
C343 C190 1.500 . S
C357 C162 1.096 . S
C361 C204 1.101 . S
C375 C37 1.167 . S
C379 C9 1.146 . S
C393 C23 1.194 . S
C397 C51 1.198 . S
C411 C65 1.189 . S
C415 C93 1.194 . S
C429 C107 1.183 . S
C433 C79 1.166 . S
C447 C121 1.143 . S
C451 C149 1.164 . S
C465 C135 1.196 . S
C469 C163 1.200 . S
C483 C205 1.200 . S
C487 C177 1.196 . S
C501 C191 1.161 . S
C505 C219 1.179 . S
C519 C91 1.503 . S
C523 C7 1.470 . S
C537 C21 2.192 . S
C541 C105 2.232 . S
C555 C35 2.234 . S
C559 C63 2.184 . S
C573 C49 1.505 . S
C577 C77 1.473 . S
C591 C119 1.479 . S
C595 C203 1.503 . S
C609 C133 2.188 . S
C613 C217 2.235 . S
C627 C147 2.235 . S
C631 C175 2.186 . S
C645 C161 1.503 . S
C649 C189 1.480 . S
C663 C6 1.449 . S
C667 C216 1.436 . S
C681 C174 1.454 . S
C685 C20 1.459 . S
C699 C34 1.441 . S
C703 C188 1.446 . S
C717 C202 1.383 . S
C721 C48 1.377 . S
C735 C132 1.457 . S
C739 C62 1.456 . S
C753 C76 1.446 . S
C757 C146 1.441 . S
C771 C160 1.377 . S
C775 C90 1.383 . S
C789 C118 1.449 . S
C793 C104 1.436 . S
