# Generated by pormake.
# Topology yfk, (5)-cn, num edge types: 1
# Building blocks:
#     Node 0, Type 0, BuildingBlock: XOMCOT_clean_sbu_1, # of connection points: 5
#     Node 1, Type 0, BuildingBlock: XOMCOT_clean_sbu_1, # of connection points: 5
#     Node 2, Type 0, BuildingBlock: XOMCOT_clean_sbu_1, # of connection points: 5
#     Node 3, Type 0, BuildingBlock: XOMCOT_clean_sbu_1, # of connection points: 5
#     Node 4, Type 0, BuildingBlock: XOMCOT_clean_sbu_1, # of connection points: 5
#     Node 5, Type 0, BuildingBlock: XOMCOT_clean_sbu_1, # of connection points: 5
#     Node 6, Type 0, BuildingBlock: XOMCOT_clean_sbu_1, # of connection points: 5
#     Node 7, Type 0, BuildingBlock: XOMCOT_clean_sbu_1, # of connection points: 5
#     Node 8, Type 0, BuildingBlock: XOMCOT_clean_sbu_1, # of connection points: 5
#     Node 9, Type 0, BuildingBlock: XOMCOT_clean_sbu_1, # of connection points: 5
#     Node 10, Type 0, BuildingBlock: XOMCOT_clean_sbu_1, # of connection points: 5
#     Node 11, Type 0, BuildingBlock: XOMCOT_clean_sbu_1, # of connection points: 5
#     Node 12, Type 0, BuildingBlock: XOMCOT_clean_sbu_1, # of connection points: 5
#     Node 13, Type 0, BuildingBlock: XOMCOT_clean_sbu_1, # of connection points: 5
#     Node 14, Type 0, BuildingBlock: XOMCOT_clean_sbu_1, # of connection points: 5
#     Node 15, Type 0, BuildingBlock: XOMCOT_clean_sbu_1, # of connection points: 5
#     Edge 16, Type (0, 0), BuildingBlock: KIFKEQ_clean_linker_1, # of connection points: 2
#     Edge 17, Type (0, 0), BuildingBlock: KIFKEQ_clean_linker_1, # of connection points: 2
#     Edge 18, Type (0, 0), BuildingBlock: KIFKEQ_clean_linker_1, # of connection points: 2
#     Edge 19, Type (0, 0), BuildingBlock: KIFKEQ_clean_linker_1, # of connection points: 2
#     Edge 20, Type (0, 0), BuildingBlock: KIFKEQ_clean_linker_1, # of connection points: 2
#     Edge 21, Type (0, 0), BuildingBlock: KIFKEQ_clean_linker_1, # of connection points: 2
#     Edge 22, Type (0, 0), BuildingBlock: KIFKEQ_clean_linker_1, # of connection points: 2
#     Edge 23, Type (0, 0), BuildingBlock: KIFKEQ_clean_linker_1, # of connection points: 2
#     Edge 24, Type (0, 0), BuildingBlock: KIFKEQ_clean_linker_1, # of connection points: 2
#     Edge 25, Type (0, 0), BuildingBlock: KIFKEQ_clean_linker_1, # of connection points: 2
#     Edge 26, Type (0, 0), BuildingBlock: KIFKEQ_clean_linker_1, # of connection points: 2
#     Edge 27, Type (0, 0), BuildingBlock: KIFKEQ_clean_linker_1, # of connection points: 2
#     Edge 28, Type (0, 0), BuildingBlock: KIFKEQ_clean_linker_1, # of connection points: 2
#     Edge 29, Type (0, 0), BuildingBlock: KIFKEQ_clean_linker_1, # of connection points: 2
#     Edge 30, Type (0, 0), BuildingBlock: KIFKEQ_clean_linker_1, # of connection points: 2
#     Edge 31, Type (0, 0), BuildingBlock: KIFKEQ_clean_linker_1, # of connection points: 2
#     Edge 32, Type (0, 0), BuildingBlock: KIFKEQ_clean_linker_1, # of connection points: 2
#     Edge 33, Type (0, 0), BuildingBlock: KIFKEQ_clean_linker_1, # of connection points: 2
#     Edge 34, Type (0, 0), BuildingBlock: KIFKEQ_clean_linker_1, # of connection points: 2
#     Edge 35, Type (0, 0), BuildingBlock: KIFKEQ_clean_linker_1, # of connection points: 2
#     Edge 36, Type (0, 0), BuildingBlock: KIFKEQ_clean_linker_1, # of connection points: 2
#     Edge 37, Type (0, 0), BuildingBlock: KIFKEQ_clean_linker_1, # of connection points: 2
#     Edge 38, Type (0, 0), BuildingBlock: KIFKEQ_clean_linker_1, # of connection points: 2
#     Edge 39, Type (0, 0), BuildingBlock: KIFKEQ_clean_linker_1, # of connection points: 2
#     Edge 40, Type (0, 0), BuildingBlock: KIFKEQ_clean_linker_1, # of connection points: 2
#     Edge 41, Type (0, 0), BuildingBlock: KIFKEQ_clean_linker_1, # of connection points: 2
#     Edge 42, Type (0, 0), BuildingBlock: KIFKEQ_clean_linker_1, # of connection points: 2
#     Edge 43, Type (0, 0), BuildingBlock: KIFKEQ_clean_linker_1, # of connection points: 2
#     Edge 44, Type (0, 0), BuildingBlock: KIFKEQ_clean_linker_1, # of connection points: 2
#     Edge 45, Type (0, 0), BuildingBlock: KIFKEQ_clean_linker_1, # of connection points: 2
#     Edge 46, Type (0, 0), BuildingBlock: KIFKEQ_clean_linker_1, # of connection points: 2
#     Edge 47, Type (0, 0), BuildingBlock: KIFKEQ_clean_linker_1, # of connection points: 2
#     Edge 48, Type (0, 0), BuildingBlock: KIFKEQ_clean_linker_1, # of connection points: 2
#     Edge 49, Type (0, 0), BuildingBlock: KIFKEQ_clean_linker_1, # of connection points: 2
#     Edge 50, Type (0, 0), BuildingBlock: KIFKEQ_clean_linker_1, # of connection points: 2
#     Edge 51, Type (0, 0), BuildingBlock: KIFKEQ_clean_linker_1, # of connection points: 2
#     Edge 52, Type (0, 0), BuildingBlock: KIFKEQ_clean_linker_1, # of connection points: 2
#     Edge 53, Type (0, 0), BuildingBlock: KIFKEQ_clean_linker_1, # of connection points: 2
#     Edge 54, Type (0, 0), BuildingBlock: KIFKEQ_clean_linker_1, # of connection points: 2
#     Edge 55, Type (0, 0), BuildingBlock: KIFKEQ_clean_linker_1, # of connection points: 2
# Relax obj value: 0.583
# Max RMSD: 0.279
# Mean RMSD: 0.279
data_MOF--net-yfk--node1-XOMCOT_clean_sbu_1--edge1-KIFKEQ_clean_linker_1
_symmetry_space_group_name_H-M    P1
_symmetry_Int_Tables_number       1
_symmetry_cell_setting            triclinic
loop_
_symmetry_equiv_pos_as_xyz
'x, y, z'
_cell_length_a     49.362331
_cell_length_b     49.311281
_cell_length_c     28.893924
_cell_angle_alpha  89.995463
_cell_angle_beta   90.089259
_cell_angle_gamma 90.102437
loop_
_atom_site_label
_atom_site_type_symbol
_atom_site_fract_x
_atom_site_fract_y
_atom_site_fract_z
_atom_type_partial_charge
C0 C 0.11732 0.14609 0.36536 0.0
C1 C 0.1254 0.13719 0.40825 0.0
N2 N 0.13744 0.11292 0.40295 0.0
N3 N 0.12416 0.12742 0.33333 0.0
C4 C 0.13589 0.10719 0.3574 0.0
H5 H 0.10946 0.16603 0.35753 0.0
Co6 Co 0.12816 0.13478 0.2708 0.0
C7 C 0.09582 0.09 0.22695 0.0
O8 O 0.08599 0.10752 0.19708 0.0
N9 N 0.13413 0.14395 0.20907 0.0
C10 C 0.14444 0.14868 0.13446 0.0
C11 C 0.13625 0.13065 0.16834 0.0
C12 C 0.14302 0.16919 0.19961 0.0
N13 N 0.14874 0.17295 0.15455 0.0
O14 O 0.1651 0.12192 0.27406 0.0
H15 H 0.13329 0.10912 0.16354 0.0
H16 H 0.14577 0.18452 0.22592 0.0
O17 O 0.11425 0.09772 0.25561 0.0
C18 C 0.18065 0.13801 0.29633 0.0
O19 O 0.17074 0.16109 0.31136 0.0
N20 N 0.09223 0.14893 0.26975 0.0
C21 C 0.04155 0.17182 0.28722 0.0
C22 C 0.04613 0.14422 0.29481 0.0
C23 C 0.07167 0.13347 0.28743 0.0
C24 C 0.08785 0.17585 0.2611 0.0
C25 C 0.06263 0.18775 0.2697 0.0
H26 H 0.07531 0.11321 0.2999 0.0
H27 H 0.10425 0.18898 0.25134 0.0
H28 H 0.14611 0.09027 0.34119 0.0
H29 H 0.12424 0.14852 0.44026 0.0
H30 H 0.14776 0.14408 0.09828 0.0
H31 H 0.03086 0.13153 0.31091 0.0
H32 H 0.06012 0.20942 0.26543 0.0
C33 C 0.16084 0.91526 0.57195 0.0
C34 C 0.15192 0.90458 0.53078 0.0
N35 N 0.12589 0.89718 0.53597 0.0
N36 N 0.14044 0.91501 0.60317 0.0
C37 C 0.11937 0.90406 0.57973 0.0
H38 H 0.18158 0.92069 0.57862 0.0
Co39 Co 0.1416 0.91819 0.66822 0.0
C40 C 0.09936 0.95765 0.6391 0.0
O41 O 0.11428 0.96209 0.60224 0.0
N42 N 0.14415 0.91975 0.7317 0.0
C43 C 0.14856 0.93464 0.80385 0.0
C44 C 0.13231 0.93501 0.76473 0.0
C45 C 0.16669 0.90986 0.75154 0.0
N46 N 0.17005 0.91862 0.79514 0.0
O47 O 0.12215 0.88427 0.6717 0.0
H48 H 0.11482 0.9478 0.75931 0.0
H49 H 0.18228 0.8994 0.73231 0.0
O50 O 0.107 0.93961 0.66855 0.0
C51 C 0.13864 0.86449 0.66843 0.0
O52 O 0.16471 0.86981 0.66799 0.0
N53 N 0.16268 0.95012 0.66567 0.0
C54 C 0.19337 0.99538 0.64347 0.0
C55 C 0.16842 0.99823 0.66632 0.0
C56 C 0.15373 0.97521 0.67837 0.0
C57 C 0.18919 0.94694 0.65391 0.0
C58 C 0.20489 0.96938 0.64153 0.0
H59 H 0.13456 0.97789 0.69554 0.0
H60 H 0.19756 0.92676 0.65078 0.0
H61 H 0.10015 0.89931 0.59577 0.0
H62 H 0.16408 0.90139 0.50015 0.0
H63 H 0.14592 0.94681 0.83468 0.0
H64 H 0.1589 1.01778 0.67106 0.0
H65 H 0.22488 0.96621 0.62718 0.0
C66 C 0.92436 0.88343 0.38217 0.0
C67 C 0.91456 0.89105 0.42457 0.0
N68 N 0.9011 0.91451 0.41944 0.0
N69 N 0.9174 0.90208 0.34987 0.0
C70 C 0.90356 0.92098 0.37424 0.0
H71 H 0.93501 0.86479 0.37633 0.0
Co72 Co 0.91919 0.90055 0.28422 0.0
C73 C 0.95778 0.94453 0.31056 0.0
O74 O 0.96237 0.93084 0.34875 0.0
N75 N 0.91955 0.89752 0.22071 0.0
C76 C 0.93333 0.89298 0.14804 0.0
C77 C 0.93439 0.90927 0.18701 0.0
C78 C 0.90924 0.87494 0.20143 0.0
N79 N 0.91737 0.87148 0.15749 0.0
O80 O 0.88485 0.91918 0.28152 0.0
H81 H 0.94735 0.92675 0.19177 0.0
H82 H 0.89884 0.85945 0.22114 0.0
O83 O 0.93992 0.93566 0.28174 0.0
C84 C 0.86543 0.90234 0.28669 0.0
O85 O 0.8713 0.87645 0.2902 0.0
N86 N 0.95145 0.88011 0.28537 0.0
C87 C 0.99695 0.84933 0.30477 0.0
C88 C 0.99953 0.87477 0.28337 0.0
C89 C 0.97637 0.88956 0.27276 0.0
C90 C 0.94845 0.85333 0.29585 0.0
C91 C 0.97105 0.83759 0.30698 0.0
H92 H 0.97885 0.90903 0.25641 0.0
H93 H 0.92833 0.845 0.30044 0.0
H94 H 0.89438 0.93864 0.35863 0.0
H95 H 0.91686 0.87985 0.45653 0.0
H96 H 0.94502 0.8956 0.11668 0.0
H97 H 1.01903 0.88444 0.27869 0.0
H98 H 0.96811 0.81741 0.32091 0.0
C99 C 0.89552 0.11266 0.57303 0.0
C100 C 0.90301 0.11963 0.52892 0.0
N101 N 0.92636 0.13372 0.53135 0.0
N102 N 0.91427 0.12193 0.60321 0.0
C103 C 0.93309 0.13425 0.57666 0.0
H104 H 0.87638 0.10362 0.58267 0.0
Co105 Co 0.90771 0.12715 0.666 0.0
C106 C 0.95266 0.0959 0.7109 0.0
O107 O 0.93532 0.08678 0.74167 0.0
N108 N 0.89921 0.13434 0.72761 0.0
C109 C 0.89523 0.14653 0.80156 0.0
C110 C 0.91291 0.13761 0.76778 0.0
C111 C 0.87407 0.14332 0.73715 0.0
N112 N 0.87076 0.15017 0.78186 0.0
O113 O 0.92088 0.16395 0.66078 0.0
H114 H 0.93449 0.13498 0.77215 0.0
H115 H 0.85851 0.14542 0.71107 0.0
O116 O 0.94478 0.11352 0.68096 0.0
C117 C 0.90552 0.17969 0.63758 0.0
O118 O 0.88246 0.17017 0.62154 0.0
N119 N 0.89343 0.09117 0.66941 0.0
C120 C 0.87015 0.04024 0.65428 0.0
C121 C 0.89776 0.04454 0.64665 0.0
C122 C 0.90872 0.07018 0.65288 0.0
C123 C 0.86652 0.08703 0.67835 0.0
C124 C 0.85443 0.06169 0.67086 0.0
H125 H 0.92896 0.0735 0.64016 0.0
H126 H 0.85354 0.10366 0.68729 0.0
H127 H 0.94964 0.14608 0.59075 0.0
H128 H 0.89126 0.11608 0.49786 0.0
H129 H 0.9002 0.15086 0.8373 0.0
H130 H 0.9103 0.02892 0.63133 0.0
H131 H 0.83276 0.05935 0.67525 0.0
C132 C 0.10934 0.39519 0.82225 0.0
C133 C 0.11521 0.40417 0.77854 0.0
N134 N 0.13099 0.42634 0.78227 0.0
N135 N 0.12098 0.41184 0.85363 0.0
C136 C 0.13369 0.43094 0.82811 0.0
H137 H 0.0994 0.37622 0.8303 0.0
Co138 Co 0.12806 0.40187 0.91464 0.0
C139 C 0.10027 0.44401 0.97093 0.0
O140 O 0.09277 0.42439 -0.00106 0.0
N141 N 0.13709 0.38997 -0.02576 0.0
C142 C 0.15285 0.38348 0.04577 0.0
C143 C 0.14422 0.40257 0.01403 0.0
C144 C 0.14369 0.3638 -0.01836 0.0
N145 N 0.15255 0.35905 0.02497 0.0
O146 O 0.16516 0.41386 0.90733 0.0
H147 H 0.14427 0.42426 0.01931 0.0
H148 H 0.14322 0.34856 0.9549 0.0
O149 O 0.11612 0.43849 0.93689 0.0
C150 C 0.1787 0.39641 0.88445 0.0
O151 O 0.16651 0.37371 0.87262 0.0
N152 N 0.09172 0.3885 0.91944 0.0
C153 C 0.03981 0.36756 0.90436 0.0
C154 C 0.04449 0.39547 0.90308 0.0
C155 C 0.07059 0.40536 0.90881 0.0
C156 C 0.08719 0.36116 0.9222 0.0
C157 C 0.06137 0.35024 0.9146 0.0
H158 H 0.07397 0.42632 0.89996 0.0
H159 H 0.10376 0.34724 0.92521 0.0
H160 H 0.14724 0.44598 0.8427 0.0
H161 H 0.10983 0.39408 0.74654 0.0
H162 H 0.15973 0.3874 0.08072 0.0
H163 H 0.02866 0.40936 0.89241 0.0
H164 H 0.05869 0.32844 0.91339 0.0
C165 C 0.39559 0.93581 0.10751 0.0
C166 C 0.40409 0.92484 0.14852 0.0
N167 N 0.42767 0.91197 0.14096 0.0
N168 N 0.41397 0.93043 0.07419 0.0
C169 C 0.43356 0.91616 0.0959 0.0
H170 H 0.37592 0.94477 0.10161 0.0
Co171 Co 0.40504 0.93057 0.01164 0.0
C172 C 0.44369 0.96975 0.9694 0.0
O173 O 0.42262 0.97956 0.94715 0.0
N174 N 0.39389 0.92842 0.94968 0.0
C175 C 0.38543 0.92671 0.87383 0.0
C176 C 0.40509 0.93112 0.90719 0.0
C177 C 0.36843 0.91997 0.94089 0.0
N178 N 0.36245 0.91956 0.8956 0.0
O179 O 0.42027 0.89457 0.0064 0.0
H180 H 0.4261 0.93585 0.90046 0.0
H181 H 0.35416 0.9144 0.96755 0.0
O182 O 0.4406 0.94851 -0.00507 0.0
C183 C 0.40283 0.87684 0.01869 0.0
O184 O 0.37821 0.88505 0.02861 0.0
N185 N 0.38846 0.96537 0.01971 0.0
C186 C 0.36373 1.01338 0.04819 0.0
C187 C 0.39164 1.00985 0.05301 0.0
C188 C 0.40334 0.98547 0.04035 0.0
C189 C 0.36107 0.9687 0.01453 0.0
C190 C 0.34824 0.99259 0.02876 0.0
H191 H 0.42418 0.98221 0.05021 0.0
H192 H 0.34841 0.95228 0.00333 0.0
H193 H 0.45011 0.90638 0.07797 0.0
H194 H 0.39284 0.92477 0.18065 0.0
H195 H 0.38783 0.92845 0.83671 0.0
H196 H 0.40398 1.0249 0.07056 0.0
H197 H 0.32638 0.99417 0.02704 0.0
C198 C 0.93304 0.64692 0.83218 0.0
C199 C 0.92201 0.63749 0.79172 0.0
N200 N 0.91028 0.61339 0.8004 0.0
N201 N 0.92864 0.62871 0.86626 0.0
C202 C 0.91511 0.60819 0.84553 0.0
H203 H 0.94112 0.66709 0.83729 0.0
Co204 Co 0.92831 0.63835 0.92845 0.0
C205 C 0.9671 0.60052 -0.02631 0.0
O206 O 0.9767 0.62183 -0.00436 0.0
N207 N 0.92567 0.64999 -0.00967 0.0
C208 C 0.92302 0.65747 0.0664 0.0
C209 C 0.92736 0.63816 0.03254 0.0
C210 C 0.91771 0.67555 -0.00028 0.0
N211 N 0.91683 0.68093 0.04523 0.0
O212 O 0.89275 0.62228 0.93359 0.0
H213 H 0.93128 0.61692 0.03872 0.0
H214 H 0.91238 0.6902 -0.02649 0.0
O215 O 0.94667 0.6034 0.94632 0.0
C216 C 0.87463 0.63931 0.92164 0.0
O217 O 0.88217 0.66438 0.9131 0.0
N218 N 0.96271 0.65561 0.92038 0.0
C219 C 1.00984 0.68171 0.89053 0.0
C220 C 1.00739 0.65351 0.88783 0.0
C221 C 0.98348 0.64104 0.90137 0.0
C222 C 0.96496 0.68322 0.92347 0.0
C223 C 0.9884 0.69668 0.9089 0.0
H224 H 0.98106 0.61984 0.89306 0.0
H225 H 0.94794 0.69546 0.93294 0.0
H226 H 0.90605 0.59149 0.86428 0.0
H227 H 0.92084 0.64847 0.75934 0.0
H228 H 0.92405 0.65449 0.10348 0.0
H229 H 1.02284 0.64134 0.87123 0.0
H230 H 0.98909 0.71864 0.9093 0.0
C231 C 0.65217 0.1129 0.12018 0.0
C232 C 0.64256 0.11789 0.16375 0.0
N233 N 0.61988 0.13277 0.15981 0.0
N234 N 0.6353 0.124 0.08856 0.0
C235 C 0.61563 0.13582 0.11394 0.0
H236 H 0.67162 0.10397 0.11254 0.0
Co237 Co 0.64483 0.13083 0.02709 0.0
C238 C 0.60489 0.0983 -0.02714 0.0
O239 O 0.6252 0.09115 0.94617 0.0
N240 N 0.6561 0.13958 0.96711 0.0
C241 C 0.66175 0.15281 0.89401 0.0
C242 C 0.64321 0.14406 0.92652 0.0
C243 C 0.68171 0.14792 0.95921 0.0
N244 N 0.68604 0.1552 0.91491 0.0
O245 O 0.63021 0.1671 0.03248 0.0
H246 H 0.62166 0.14191 0.92093 0.0
H247 H 0.69683 0.14945 -0.01395 0.0
O248 O 0.6091 0.11586 0.00511 0.0
C249 C 0.64505 0.18257 0.05734 0.0
O250 O 0.66796 0.17289 0.07357 0.0
N251 N 0.66078 0.09544 0.02416 0.0
C252 C 0.68553 0.04606 0.04572 0.0
C253 C 0.65733 0.04849 0.04563 0.0
C254 C 0.64552 0.0734 0.03657 0.0
C255 C 0.68835 0.09294 0.02174 0.0
C256 C 0.70116 0.06842 0.03249 0.0
H257 H 0.62434 0.0754 0.04492 0.0
H258 H 0.701 0.11039 0.01687 0.0
H259 H 0.59992 0.14849 0.09927 0.0
H260 H 0.65295 0.11332 0.19584 0.0
H261 H 0.65752 0.15762 0.85817 0.0
H262 H 0.64453 0.03219 0.05817 0.0
H263 H 0.72307 0.06758 0.03412 0.0
C264 C 0.63312 0.65681 0.87514 0.0
C265 C 0.64371 0.64992 0.91737 0.0
N266 N 0.65771 0.6268 0.91239 0.0
N267 N 0.6403 0.63812 0.84306 0.0
C268 C 0.65464 0.61967 0.86762 0.0
H269 H 0.62189 0.6751 0.86917 0.0
Co270 Co 0.63903 0.64013 0.77732 0.0
C271 C 0.59882 0.59727 0.80233 0.0
O272 O 0.59518 0.61049 0.84126 0.0
N273 N 0.63924 0.64401 0.71385 0.0
C274 C 0.62371 0.65419 0.64382 0.0
C275 C 0.62266 0.63552 0.67964 0.0
C276 C 0.6506 0.66689 0.69772 0.0
N277 N 0.64092 0.67427 0.65605 0.0
O278 O 0.67275 0.62002 0.77498 0.0
H279 H 0.60816 0.61916 0.68286 0.0
H280 H 0.66313 0.67978 0.71902 0.0
O281 O 0.61669 0.60593 0.7734 0.0
C282 C 0.69253 0.63621 0.78221 0.0
O283 O 0.6872 0.66213 0.78726 0.0
N284 N 0.6078 0.66207 0.7784 0.0
C285 C 0.56438 0.6955 0.7986 0.0
C286 C 0.5601 0.67005 0.77796 0.0
C287 C 0.58223 0.65388 0.76699 0.0
C288 C 0.61242 0.68873 0.78818 0.0
C289 C 0.59089 0.70581 0.7996 0.0
H290 H 0.57843 0.63445 0.7513 0.0
H291 H 0.63302 0.6959 0.7923 0.0
H292 H 0.66395 0.60201 0.85241 0.0
H293 H 0.6418 0.66148 0.94903 0.0
H294 H 0.61048 0.65457 0.61392 0.0
H295 H 0.54004 0.66143 0.77422 0.0
H296 H 0.59514 0.72588 0.813 0.0
C297 C 0.65552 0.43845 0.0764 0.0
C298 C 0.64817 0.42997 0.03306 0.0
N299 N 0.62417 0.41715 0.03625 0.0
N300 N 0.636 0.43159 0.10699 0.0
C301 C 0.61689 0.419 0.08121 0.0
H302 H 0.67512 0.44668 0.0855 0.0
Co303 Co 0.64248 0.42839 0.17055 0.0
C304 C 0.6036 0.46755 0.21251 0.0
O305 O 0.62398 0.47578 0.2383 0.0
N306 N 0.6508 0.42296 0.2331 0.0
C307 C 0.65537 0.41864 0.30949 0.0
C308 C 0.63766 0.4249 0.27401 0.0
C309 C 0.67526 0.41283 0.24453 0.0
N310 N 0.67902 0.41102 0.29048 0.0
O311 O 0.6257 0.39288 0.16968 0.0
H312 H 0.61669 0.43058 0.27828 0.0
H313 H 0.69049 0.40741 0.21934 0.0
O314 O 0.60703 0.44713 0.18524 0.0
C315 C 0.64118 0.37556 0.15026 0.0
O316 O 0.66537 0.38343 0.13682 0.0
N317 N 0.66083 0.46266 0.1692 0.0
C318 C 0.68925 0.5105 0.15078 0.0
C319 C 0.66152 0.50857 0.1415 0.0
C320 C 0.648 0.48436 0.1494 0.0
C321 C 0.68796 0.46437 0.17872 0.0
C322 C 0.70258 0.48813 0.16975 0.0
H323 H 0.62754 0.48262 0.1365 0.0
H324 H 0.69918 0.44688 0.18955 0.0
H325 H 0.59967 0.40851 0.09597 0.0
H326 H 0.66049 0.43149 0.00221 0.0
H327 H 0.65133 0.41987 0.34624 0.0
H328 H 0.65081 0.52487 0.12424 0.0
H329 H 0.7243 0.48851 0.17515 0.0
C330 C 0.44256 0.39785 0.86152 0.0
C331 C 0.43559 0.40559 0.90554 0.0
N332 N 0.41973 0.42765 0.90231 0.0
N333 N 0.43162 0.41535 0.83077 0.0
C334 C 0.41801 0.43344 0.85682 0.0
H335 H 0.45293 0.3793 0.85252 0.0
Co336 Co 0.42693 0.40872 0.76799 0.0
C337 C 0.45669 0.4548 0.72336 0.0
O338 O 0.46573 0.43773 0.69209 0.0
N339 N 0.42026 0.40011 0.70613 0.0
C340 C 0.40626 0.39626 0.63294 0.0
C341 C 0.41555 0.414 0.66655 0.0
C342 C 0.41201 0.3747 0.69643 0.0
N343 N 0.40385 0.37158 0.65238 0.0
O344 O 0.38949 0.41991 0.77323 0.0
H345 H 0.41703 0.43576 0.66279 0.0
H346 H 0.41075 0.35885 0.72212 0.0
O347 O 0.43936 0.44645 0.75345 0.0
C348 C 0.37523 0.40059 0.78971 0.0
O349 O 0.38737 0.37749 0.79881 0.0
N350 N 0.46332 0.3958 0.76496 0.0
C351 C 0.51376 0.37332 0.7859 0.0
C352 C 0.50938 0.40118 0.79024 0.0
C353 C 0.48392 0.41177 0.78131 0.0
C354 C 0.46783 0.36873 0.75799 0.0
C355 C 0.49291 0.35703 0.7685 0.0
H356 H 0.48022 0.43217 0.79292 0.0
H357 H 0.45147 0.35533 0.7492 0.0
H358 H 0.40527 0.44921 0.84253 0.0
H359 H 0.43982 0.39451 0.93708 0.0
H360 H 0.40045 0.40135 0.59787 0.0
H361 H 0.52448 0.41425 0.806 0.0
H362 H 0.49528 0.33522 0.7665 0.0
C363 C 0.40191 0.62947 0.05924 0.0
C364 C 0.41325 0.63892 0.01904 0.0
N365 N 0.43737 0.65012 0.02951 0.0
N366 N 0.41895 0.63441 0.09483 0.0
C367 C 0.44059 0.6467 0.07552 0.0
H368 H 0.38146 0.62187 0.06284 0.0
Co369 Co 0.4077 0.63605 0.15579 0.0
C370 C 0.4451 0.59911 0.2061 0.0
O371 O 0.42356 0.59075 0.22872 0.0
N372 N 0.39461 0.63998 0.21641 0.0
C373 C 0.38703 0.64845 0.29109 0.0
C374 C 0.40646 0.64209 0.25848 0.0
C375 C 0.36866 0.64718 0.2241 0.0
N376 N 0.3632 0.65169 0.26905 0.0
O377 O 0.42239 0.67233 0.1594 0.0
H378 H 0.42793 0.64005 0.26506 0.0
H379 H 0.35415 0.65023 0.19675 0.0
O380 O 0.44268 0.61906 0.17753 0.0
C381 C 0.40469 0.68934 0.14557 0.0
O382 O 0.38034 0.68031 0.13541 0.0
N383 N 0.39174 0.60087 0.14902 0.0
C384 C 0.3685 0.55094 0.12653 0.0
C385 C 0.39645 0.55481 0.12336 0.0
C386 C 0.40746 0.58008 0.13291 0.0
C387 C 0.36423 0.59746 0.15111 0.0
C388 C 0.35217 0.57258 0.14012 0.0
H389 H 0.42856 0.5832 0.12476 0.0
H390 H 0.35108 0.6143 0.15745 0.0
H391 H 0.45686 0.65575 0.09543 0.0
H392 H 0.40373 0.63914 -0.01474 0.0
H393 H 0.39038 0.65128 0.3278 0.0
H394 H 0.40948 0.53901 0.10988 0.0
H395 H 0.3303 0.57068 0.13995 0.0
C396 C 0.61079 0.90115 0.32065 0.0
C397 C 0.61958 0.91058 0.27869 0.0
N398 N 0.63408 0.93328 0.28604 0.0
N399 N 0.61932 0.91803 0.35454 0.0
C400 C 0.63299 0.93781 0.33207 0.0
H401 H 0.6014 0.88162 0.32614 0.0
Co402 Co 0.62343 0.90723 0.4162 0.0
C403 C 0.58908 0.94572 0.46966 0.0
O404 O 0.58069 0.92466 0.49359 0.0
N405 N 0.6296 0.89472 0.47658 0.0
C406 C 0.63813 0.88742 0.55133 0.0
C407 C 0.63216 0.9068 0.51839 0.0
C408 C 0.63672 0.86875 0.48457 0.0
N409 N 0.64093 0.86344 0.52965 0.0
O410 O 0.65963 0.92216 0.41615 0.0
H411 H 0.63022 0.9283 0.52478 0.0
H412 H 0.6395 0.85395 0.45756 0.0
O413 O 0.60732 0.94234 0.43836 0.0
C414 C 0.67557 0.90623 0.39465 0.0
O415 O 0.66603 0.88275 0.38049 0.0
N416 N 0.58829 0.89089 0.41355 0.0
C417 C 0.54026 0.86571 0.38527 0.0
C418 C 0.54214 0.89397 0.38755 0.0
C419 C 0.56645 0.90608 0.40013 0.0
C420 C 0.58632 0.86321 0.41309 0.0
C421 C 0.56246 0.8502 0.3993 0.0
H422 H 0.5683 0.92757 0.39406 0.0
H423 H 0.60389 0.85079 0.41777 0.0
H424 H 0.6449 0.95318 0.34954 0.0
H425 H 0.61737 0.90028 0.24581 0.0
H426 H 0.64056 0.89076 0.58813 0.0
H427 H 0.52599 0.90673 0.37448 0.0
H428 H 0.56214 0.82832 0.39593 0.0
C429 C 0.88518 0.44026 0.63433 0.0
C430 C 0.89253 0.43284 0.6783 0.0
N431 N 0.91268 0.41474 0.6751 0.0
N432 N 0.90066 0.42699 0.60288 0.0
C433 C 0.91758 0.41193 0.62947 0.0
H434 H 0.86947 0.45468 0.62703 0.0
Co435 Co 0.89782 0.4256 0.53674 0.0
C436 C 0.94225 0.46549 0.55617 0.0
O437 O 0.93014 0.47093 0.59546 0.0
N438 N 0.89364 0.42319 0.47365 0.0
C439 C 0.88801 0.43386 0.3997 0.0
C440 C 0.90442 0.43724 0.43808 0.0
C441 C 0.87146 0.41106 0.45615 0.0
N442 N 0.86731 0.41737 0.41143 0.0
O443 O 0.91704 0.39159 0.53684 0.0
H444 H 0.92129 0.45116 0.44091 0.0
H445 H 0.85677 0.40056 0.47743 0.0
O446 O 0.93238 0.447 0.52955 0.0
C447 C 0.90091 0.37275 0.54961 0.0
O448 O 0.8755 0.37906 0.55778 0.0
N449 N 0.87648 0.45706 0.53526 0.0
C450 C 0.8452 0.50115 0.55944 0.0
C451 C 0.86982 0.50492 0.53587 0.0
C452 C 0.88495 0.48238 0.52298 0.0
C453 C 0.85003 0.453 0.54697 0.0
C454 C 0.8339 0.47498 0.55989 0.0
H455 H 0.90412 0.4856 0.50609 0.0
H456 H 0.84266 0.43257 0.55234 0.0
H457 H 0.93331 0.39897 0.61585 0.0
H458 H 0.88325 0.43972 0.71011 0.0
H459 H 0.88992 0.44442 0.367 0.0
H460 H 0.87899 0.52474 0.53207 0.0
H461 H 0.81428 0.47118 0.57531 0.0
C462 C 0.44449 0.14944 0.33169 0.0
C463 C 0.43878 0.14014 0.28806 0.0
N464 N 0.42298 0.11802 0.292 0.0
N465 N 0.43279 0.13295 0.36324 0.0
C466 C 0.42028 0.11365 0.33786 0.0
H467 H 0.45401 0.16866 0.33935 0.0
Co468 Co 0.425 0.14279 0.42415 0.0
C469 C 0.4552 0.10164 0.47987 0.0
O470 O 0.46233 0.12125 0.50823 0.0
N471 N 0.41533 0.15426 0.48341 0.0
C472 C 0.40026 0.1609 0.55519 0.0
C473 C 0.41007 0.14196 0.52425 0.0
C474 C 0.40645 0.17983 0.48946 0.0
N475 N 0.39799 0.18476 0.53287 0.0
O476 O 0.38868 0.12865 0.41704 0.0
H477 H 0.41214 0.1205 0.53094 0.0
H478 H 0.40534 0.19447 0.46179 0.0
O479 O 0.43888 0.10695 0.44634 0.0
C480 C 0.37374 0.14381 0.39193 0.0
O481 O 0.384 0.16659 0.37605 0.0
N482 N 0.46035 0.15844 0.42907 0.0
C483 C 0.50976 0.18341 0.40883 0.0
C484 C 0.5077 0.15518 0.41086 0.0
C485 C 0.48274 0.14318 0.41915 0.0
C486 C 0.46258 0.1861 0.43019 0.0
C487 C 0.4871 0.19902 0.41997 0.0
H488 H 0.48109 0.12183 0.41178 0.0
H489 H 0.44494 0.19862 0.43316 0.0
H490 H 0.40706 0.0984 0.35257 0.0
H491 H 0.44326 0.15066 0.25606 0.0
H492 H 0.39457 0.15722 0.5908 0.0
H493 H 0.52435 0.1424 0.39991 0.0
H494 H 0.4877 0.2209 0.41666 0.0
C495 C 0.14778 0.61906 0.60139 0.0
C496 C 0.14075 0.62864 0.64424 0.0
N497 N 0.11779 0.64309 0.63976 0.0
N498 N 0.12912 0.62705 0.57009 0.0
C499 C 0.11083 0.64133 0.59468 0.0
H500 H 0.16665 0.60911 0.593 0.0
Co501 Co 0.13607 0.62916 0.50722 0.0
C502 C 0.09025 0.59831 0.46442 0.0
O503 O 0.10748 0.58775 0.4349 0.0
N504 N 0.14538 0.6334 0.44508 0.0
C505 C 0.15104 0.6439 0.37062 0.0
C506 C 0.1324 0.63658 0.40419 0.0
C507 C 0.17115 0.64057 0.43592 0.0
N508 N 0.17541 0.64656 0.39114 0.0
O509 O 0.12458 0.6665 0.50842 0.0
H510 H 0.11074 0.63522 0.39925 0.0
H511 H 0.18648 0.6424 0.4624 0.0
O512 O 0.09853 0.6166 0.49289 0.0
C513 C 0.14312 0.68242 0.52287 0.0
O514 O 0.16736 0.67232 0.53025 0.0
N515 N 0.14858 0.59249 0.50854 0.0
C516 C 0.16888 0.54143 0.53194 0.0
C517 C 0.14146 0.54743 0.5377 0.0
C518 C 0.132 0.57316 0.52738 0.0
C519 C 0.17532 0.58657 0.50127 0.0
C520 C 0.18593 0.56115 0.51293 0.0
H521 H 0.11187 0.57809 0.53896 0.0
H522 H 0.18934 0.60198 0.4906 0.0
H523 H 0.09454 0.6528 0.579 0.0
H524 H 0.15254 0.62657 0.67565 0.0
H525 H 0.14676 0.64811 0.33458 0.0
H526 H 0.12791 0.53328 0.55473 0.0
H527 H 0.20749 0.55753 0.50986 0.0
H528 H 0.17216 0.31507 -0.02028 0.0
H529 H 0.14704 0.34343 0.11432 0.0
H530 H 0.1761 0.26912 0.00986 0.0
H531 H 0.15116 0.29743 0.14466 0.0
H532 H 0.13724 0.18925 0.06718 0.0
H533 H 0.14327 0.23474 0.03546 0.0
H534 H 0.18236 0.26002 0.16219 0.0
H535 H 0.17648 0.21457 0.19367 0.0
C536 C 0.16758 0.31154 0.01582 0.0
C537 C 0.15884 0.33288 0.04447 0.0
C538 C 0.16987 0.28518 0.03308 0.0
C539 C 0.16364 0.27954 0.07948 0.0
C540 C 0.15633 0.30112 0.10879 0.0
C541 C 0.15398 0.32751 0.09147 0.0
C542 C 0.14767 0.20433 0.08781 0.0
C543 C 0.15599 0.19837 0.13318 0.0
C544 C 0.15111 0.23043 0.0697 0.0
C545 C 0.16299 0.25111 0.09658 0.0
C546 C 0.17262 0.24472 0.14099 0.0
C547 C 0.16923 0.21866 0.15902 0.0
H548 H 0.19847 0.96056 0.83066 0.0
H549 H 0.1997 0.87405 0.80994 0.0
H550 H 0.24626 0.95942 0.85406 0.0
H551 H 0.24735 0.87269 0.83332 0.0
H552 H 0.32593 0.88207 0.92154 0.0
H553 H 0.27776 0.88131 0.90171 0.0
H554 H 0.28989 0.94928 0.80971 0.0
H555 H 0.33821 0.94996 0.8299 0.0
C556 C 0.20878 0.94123 0.83264 0.0
C557 C 0.19549 0.91732 0.81912 0.0
C558 C 0.23617 0.9406 0.84514 0.0
C559 C 0.25057 0.91601 0.84484 0.0
C560 C 0.23677 0.89192 0.83392 0.0
C561 C 0.20955 0.89263 0.82086 0.0
C562 C 0.3183 0.8965 0.89647 0.0
C563 C 0.33567 0.91601 0.87707 0.0
C564 C 0.2908 0.89613 0.88523 0.0
C565 C 0.28004 0.91549 0.85474 0.0
C566 C 0.29761 0.93439 0.83393 0.0
C567 C 0.32525 0.93452 0.84478 0.0
H568 H 0.95853 0.84358 0.11893 0.0
H569 H 0.87261 0.84146 0.14487 0.0
H570 H 0.9569 0.79627 0.09273 0.0
H571 H 0.87075 0.79429 0.11818 0.0
H572 H 0.88025 0.71856 0.02 0.0
H573 H 0.87947 0.76622 0.04389 0.0
H574 H 0.94628 0.75125 0.13699 0.0
H575 H 0.9468 0.70346 0.11323 0.0
C576 C 0.9392 0.83319 0.11763 0.0
C577 C 0.91562 0.84609 0.13334 0.0
C578 C 0.93831 0.80608 0.10341 0.0
C579 C 0.91374 0.7916 0.10399 0.0
C580 C 0.88993 0.805 0.11738 0.0
C581 C 0.89094 0.83191 0.13236 0.0
C582 C 0.89442 0.72545 0.04615 0.0
C583 C 0.91351 0.70745 0.06499 0.0
C584 C 0.89402 0.75264 0.05971 0.0
C585 C 0.91306 0.76243 0.09176 0.0
C586 C 0.93162 0.74424 0.11173 0.0
C587 C 0.93168 0.71691 0.09873 0.0
H588 H 0.82878 0.17671 0.74177 0.0
H589 H 0.85539 0.1411 0.87052 0.0
H590 H 0.78365 0.18312 0.77386 0.0
H591 H 0.81021 0.14774 0.90288 0.0
H592 H 0.7299 0.17738 0.95756 0.0
H593 H 0.77556 0.18119 0.92639 0.0
H594 H 0.74693 0.15141 0.79453 0.0
H595 H 0.70129 0.14726 0.82587 0.0
C596 C 0.82505 0.17038 0.77705 0.0
C597 C 0.84559 0.15794 0.80335 0.0
C598 C 0.79918 0.1741 0.79542 0.0
C599 C 0.79324 0.16562 0.84067 0.0
C600 C 0.81418 0.15466 0.86796 0.0
C601 C 0.8401 0.15087 0.84949 0.0
C602 C 0.73327 0.1717 0.92188 0.0
C603 C 0.71194 0.16158 0.89442 0.0
C604 C 0.75947 0.17394 0.90403 0.0
C605 C 0.76495 0.16633 0.85819 0.0
C606 C 0.74335 0.15766 0.82993 0.0
C607 C 0.71714 0.15532 0.84785 0.0
H608 H 0.64891 0.72124 0.70332 0.0
H609 H 0.6355 0.68925 0.5659 0.0
H610 H 0.65177 0.76649 0.67262 0.0
H611 H 0.63681 0.7356 0.53498 0.0
H612 H 0.66648 0.82026 0.49161 0.0
H613 H 0.66713 0.7739 0.52117 0.0
H614 H 0.62248 0.79997 0.64173 0.0
H615 H 0.6222 0.84625 0.61234 0.0
C616 C 0.6469 0.7237 0.66631 0.0
C617 C 0.64252 0.7013 0.63692 0.0
C618 C 0.64803 0.74994 0.64878 0.0
C619 C 0.64441 0.7548 0.60138 0.0
C620 C 0.64 0.73252 0.5717 0.0
C621 C 0.639 0.70602 0.58935 0.0
C622 C 0.65693 0.81606 0.52454 0.0
C623 C 0.64427 0.83691 0.5497 0.0
C624 C 0.65716 0.78947 0.54132 0.0
C625 C 0.64471 0.78313 0.58365 0.0
C626 C 0.6326 0.80415 0.60928 0.0
C627 C 0.63251 0.83074 0.5926 0.0
H628 H 0.83881 0.45584 0.36644 0.0
H629 H 0.83789 0.37153 0.40589 0.0
H630 H 0.79196 0.45192 0.33905 0.0
H631 H 0.79109 0.36738 0.37765 0.0
H632 H 0.71723 0.37412 0.26925 0.0
H633 H 0.76428 0.37378 0.29688 0.0
H634 H 0.74663 0.44127 0.38693 0.0
H635 H 0.69954 0.44123 0.35986 0.0
C636 C 0.82879 0.43631 0.36799 0.0
C637 C 0.84191 0.4139 0.38784 0.0
C638 C 0.80195 0.43415 0.35297 0.0
C639 C 0.78794 0.40942 0.35679 0.0
C640 C 0.80149 0.38665 0.37443 0.0
C641 C 0.82817 0.38897 0.39034 0.0
C642 C 0.72337 0.38842 0.29571 0.0
C643 C 0.70484 0.4076 0.31269 0.0
C644 C 0.75019 0.38828 0.31136 0.0
C645 C 0.75904 0.40773 0.34349 0.0
C646 C 0.74028 0.42625 0.36175 0.0
C647 C 0.71334 0.42602 0.3468 0.0
H648 H 0.37525 0.2268 0.48632 0.0
H649 H 0.40436 0.20233 0.62099 0.0
H650 H 0.37077 0.27333 0.51361 0.0
H651 H 0.39951 0.24881 0.64849 0.0
H652 H 0.37524 0.33178 0.69415 0.0
H653 H 0.36761 0.28604 0.66494 0.0
H654 H 0.40449 0.30863 0.53502 0.0
H655 H 0.41223 0.35451 0.5646 0.0
C656 C 0.3805 0.23128 0.52187 0.0
C657 C 0.39065 0.21091 0.55129 0.0
C658 C 0.37787 0.25795 0.53747 0.0
C659 C 0.38508 0.26481 0.58298 0.0
C660 C 0.39358 0.24414 0.61327 0.0
C661 C 0.39632 0.21746 0.59758 0.0
C662 C 0.38152 0.32703 0.65921 0.0
C663 C 0.39484 0.34653 0.6319 0.0
C664 C 0.37712 0.30085 0.64251 0.0
C665 C 0.38583 0.2936 0.598 0.0
C666 C 0.39743 0.31363 0.56944 0.0
C667 C 0.40185 0.3399 0.58625 0.0
H668 H 0.32037 0.67556 0.22602 0.0
H669 H 0.34573 0.64021 0.35587 0.0
H670 H 0.27404 0.67816 0.25424 0.0
H671 H 0.29935 0.64362 0.38454 0.0
H672 H 0.21707 0.67264 0.43327 0.0
H673 H 0.26301 0.67782 0.4042 0.0
H674 H 0.23853 0.64258 0.27389 0.0
H675 H 0.19243 0.63673 0.30352 0.0
C676 C 0.31616 0.66839 0.26065 0.0
C677 C 0.3368 0.65715 0.28837 0.0
C678 C 0.28957 0.67 0.27679 0.0
C679 C 0.28303 0.66082 0.32132 0.0
C680 C 0.30384 0.65098 0.35007 0.0
C681 C 0.33045 0.64911 0.33373 0.0
C682 C 0.2214 0.66593 0.39842 0.0
C683 C 0.20118 0.6537 0.37101 0.0
C684 C 0.24774 0.669 0.38179 0.0
C685 C 0.25444 0.66026 0.33709 0.0
C686 C 0.2339 0.64958 0.30852 0.0
C687 C 0.2075 0.64629 0.32537 0.0
H688 H 0.22088 0.1147 0.24431 0.0
H689 H 0.20253 0.14418 0.38125 0.0
H690 H 0.26867 0.10926 0.26693 0.0
H691 H 0.24978 0.1383 0.40408 0.0
H692 H 0.33618 0.11277 0.43837 0.0
H693 H 0.28899 0.10407 0.41492 0.0
H694 H 0.30294 0.14708 0.28701 0.0
H695 H 0.34945 0.1562 0.31069 0.0
C696 C 0.22696 0.11933 0.27948 0.0
C697 C 0.20823 0.13013 0.3109 0.0
C698 C 0.25423 0.11632 0.2924 0.0
C699 C 0.26297 0.12343 0.33728 0.0
C700 C 0.24369 0.13245 0.36945 0.0
C701 C 0.2167 0.13602 0.35625 0.0
C702 C 0.32917 0.11998 0.40503 0.0
C703 C 0.34631 0.13547 0.37665 0.0
C704 C 0.30223 0.11505 0.39163 0.0
C705 C 0.29229 0.12488 0.34908 0.0
C706 C 0.31001 0.13902 0.31974 0.0
C707 C 0.33658 0.1445 0.33358 0.0
H708 H 0.09795 0.8485 0.60888 0.0
H709 H 0.16127 0.81802 0.69776 0.0
H710 H 0.09459 0.80382 0.57136 0.0
H711 H 0.15761 0.77368 0.66125 0.0
H712 H 0.1796 0.7223 0.53832 0.0
H713 H 0.17252 0.76538 0.577 0.0
H714 H 0.08665 0.74942 0.58407 0.0
H715 H 0.09376 0.70559 0.54491 0.0
C716 C 0.11031 0.83201 0.62168 0.0
C717 C 0.13 0.83671 0.65606 0.0
C718 C 0.10848 0.8065 0.60006 0.0
C719 C 0.12626 0.78549 0.61277 0.0
C720 C 0.14403 0.78965 0.65014 0.0
C721 C 0.14597 0.81497 0.67133 0.0
C722 C 0.15911 0.72798 0.54753 0.0
C723 C 0.1373 0.71039 0.53887 0.0
C724 C 0.15508 0.75264 0.56995 0.0
C725 C 0.12911 0.76048 0.58445 0.0
C726 C 0.10689 0.74377 0.57344 0.0
C727 C 0.11097 0.7188 0.5509 0.0
H728 H 0.82085 0.8749 0.26073 0.0
H729 H 0.84597 0.9478 0.33145 0.0
H730 H 0.77441 0.88268 0.28412 0.0
H731 H 0.79877 0.95585 0.35527 0.0
H732 H 0.71952 0.92761 0.44106 0.0
H733 H 0.7655 0.93331 0.40953 0.0
H734 H 0.73572 0.91179 0.27369 0.0
H735 H 0.69063 0.90503 0.30556 0.0
C736 C 0.81626 0.893 0.28047 0.0
C737 C 0.83701 0.91079 0.29402 0.0
C738 C 0.78955 0.89756 0.29381 0.0
C739 C 0.78273 0.91997 0.32154 0.0
C740 C 0.80336 0.93837 0.33402 0.0
C741 C 0.83029 0.93394 0.31998 0.0
C742 C 0.72288 0.92475 0.40435 0.0
C743 C 0.70177 0.91553 0.37578 0.0
C744 C 0.74912 0.92808 0.38621 0.0
C745 C 0.75443 0.92247 0.33921 0.0
C746 C 0.73256 0.91562 0.31021 0.0
C747 C 0.70668 0.91188 0.32838 0.0
H748 H 0.93443 0.33731 0.5035 0.0
H749 H 0.88847 0.34744 0.62913 0.0
H750 H 0.94349 0.28976 0.52498 0.0
H751 H 0.89819 0.30079 0.65123 0.0
H752 H 0.93031 0.21847 0.69094 0.0
H753 H 0.93723 0.26643 0.6704 0.0
H754 H 0.90711 0.25041 0.53275 0.0
H755 H 0.89964 0.20298 0.55357 0.0
C756 C 0.92697 0.32959 0.53619 0.0
C757 C 0.91066 0.34586 0.56457 0.0
C758 C 0.93208 0.30248 0.54845 0.0
C759 C 0.92161 0.29164 0.58989 0.0
C760 C 0.90678 0.3086 0.61941 0.0
C761 C 0.90105 0.33524 0.60657 0.0
C762 C 0.92576 0.22519 0.65609 0.0
C763 C 0.91412 0.20725 0.62401 0.0
C764 C 0.92968 0.25254 0.64434 0.0
C765 C 0.92271 0.26211 0.59995 0.0
C766 C 0.91291 0.2436 0.56701 0.0
C767 C 0.90839 0.21653 0.57907 0.0
H768 H 0.34435 0.44724 0.7992 0.0
H769 H 0.33997 0.35985 0.80632 0.0
H770 H 0.29608 0.44985 0.82085 0.0
H771 H 0.2928 0.36245 0.8281 0.0
H772 H 0.20419 0.37038 0.81478 0.0
H773 H 0.25063 0.37506 0.78918 0.0
H774 H 0.26383 0.43861 0.88952 0.0
H775 H 0.21636 0.43426 0.91497 0.0
C776 C 0.33311 0.42867 0.80501 0.0
C777 C 0.34597 0.40334 0.80064 0.0
C778 C 0.30561 0.43017 0.81781 0.0
C779 C 0.29052 0.40634 0.82578 0.0
C780 C 0.3036 0.3812 0.82147 0.0
C781 C 0.33081 0.37972 0.80913 0.0
C782 C 0.21683 0.38546 0.83151 0.0
C783 C 0.20667 0.40155 0.86766 0.0
C784 C 0.24354 0.38815 0.81672 0.0
C785 C 0.26114 0.40684 0.83786 0.0
C786 C 0.25076 0.42401 0.87254 0.0
C787 C 0.22367 0.42142 0.88728 0.0
H788 H 0.37076 0.8334 0.00581 0.0
H789 H 0.44986 0.85601 0.05668 0.0
H790 H 0.37605 0.7884 0.03887 0.0
H791 H 0.45508 0.81049 0.09084 0.0
H792 H 0.4512 0.71108 0.10741 0.0
H793 H 0.4556 0.7567 0.07311 0.0
H794 H 0.37609 0.77705 0.12433 0.0
H795 H 0.37166 0.73199 0.1576 0.0
C796 C 0.38959 0.82851 0.02325 0.0
C797 C 0.40982 0.84825 0.02878 0.0
C798 C 0.39253 0.80278 0.04256 0.0
C799 C 0.4157 0.7961 0.06845 0.0
C800 C 0.43697 0.81511 0.07119 0.0
C801 C 0.43405 0.84108 0.05144 0.0
C802 C 0.43512 0.72569 0.11247 0.0
C803 C 0.41103 0.71803 0.13503 0.0
C804 C 0.43756 0.75169 0.09263 0.0
C805 C 0.41592 0.77022 0.09513 0.0
C806 C 0.39285 0.76304 0.12083 0.0
C807 C 0.39039 0.73729 0.14025 0.0
H808 H 0.83009 0.67052 0.92703 0.0
H809 H 0.8562 0.59058 0.88592 0.0
H810 H 0.78655 0.66293 0.88966 0.0
H811 H 0.81206 0.583 0.84788 0.0
H812 H 0.70923 0.59103 0.8316 0.0
H813 H 0.75382 0.58585 0.86898 0.0
H814 H 0.78278 0.65638 0.79582 0.0
H815 H 0.73864 0.66181 0.75943 0.0
C816 C 0.82626 0.65103 0.91094 0.0
C817 C 0.84663 0.63124 0.9092 0.0
C818 C 0.80137 0.64674 0.88937 0.0
C819 C 0.79614 0.62257 0.86529 0.0
C820 C 0.81563 0.6018 0.86627 0.0
C821 C 0.84079 0.60611 0.88819 0.0
C822 C 0.72542 0.60481 0.82235 0.0
C823 C 0.72038 0.62706 0.79302 0.0
C824 C 0.75089 0.60186 0.84382 0.0
C825 C 0.7715 0.62103 0.83584 0.0
C826 C 0.76711 0.64156 0.80305 0.0
C827 C 0.74188 0.64457 0.78202 0.0
H828 H 0.65603 0.20697 0.13904 0.0
H829 H 0.61428 0.21988 0.00961 0.0
H830 H 0.64678 0.25353 0.16191 0.0
H831 H 0.60524 0.2671 0.03237 0.0
H832 H 0.64465 0.35384 0.06499 0.0
H833 H 0.63785 0.30658 0.0428 0.0
H834 H 0.61078 0.28819 0.18137 0.0
H835 H 0.61732 0.33599 0.20335 0.0
C836 C 0.6446 0.21976 0.11562 0.0
C837 C 0.63619 0.20991 0.07224 0.0
C838 C 0.63903 0.24639 0.12899 0.0
C839 C 0.62531 0.26409 0.09898 0.0
C840 C 0.61593 0.25395 0.0562 0.0
C841 C 0.62103 0.22697 0.04318 0.0
C842 C 0.63658 0.3398 0.09037 0.0
C843 C 0.63162 0.34842 0.13592 0.0
C844 C 0.63253 0.31277 0.07758 0.0
C845 C 0.62394 0.29356 0.11035 0.0
C846 C 0.61755 0.30252 0.1554 0.0
C847 C 0.62112 0.32983 0.16797 0.0
H848 H 0.06205 0.06299 0.1676 0.0
H849 H 0.0913 0.0616 0.30831 0.0
H850 H 0.0294 0.02748 0.18596 0.0
H851 H 0.05774 0.02741 0.3277 0.0
H852 H 1.00806 0.95211 0.34678 0.0
H853 H 0.0427 0.98397 0.32417 0.0
H854 H 0.98857 1.0178 0.22154 0.0
H855 H 0.95413 0.98419 0.2427 0.0
C856 C 0.0617 0.05487 0.20243 0.0
C857 C 0.07952 0.06507 0.23633 0.0
C858 C 0.04259 0.03473 0.21326 0.0
C859 C 0.04033 1.02445 0.25861 0.0
C860 C 0.05883 0.0342 0.29214 0.0
C861 C 0.07828 0.05395 0.28105 0.0
C862 C 1.00332 0.9664 0.3195 0.0
C863 C 0.978 0.96567 0.29696 0.0
C864 C 1.02336 0.98497 0.30657 0.0
C865 C 1.01876 1.00401 0.27116 0.0
C866 C 0.99331 1.00335 0.24853 0.0
C867 C 0.97331 0.98424 0.26095 0.0
H868 H 0.05897 0.95493 0.70552 0.0
H869 H 0.09172 1.00703 0.59931 0.0
H870 H 1.02501 0.98948 0.7236 0.0
H871 H 0.05936 0.0418 0.6188 0.0
H872 H 0.981 0.08958 0.62996 0.0
H873 H 1.01552 0.05594 0.61319 0.0
H874 H 1.01558 0.03128 0.75684 0.0
H875 H 0.97987 0.06401 0.77271 0.0
C876 C 0.05898 0.97372 0.68612 0.0
C877 C 0.0779 0.97789 0.65053 0.0
C878 C 0.03967 0.99378 0.69677 0.0
C879 C 0.0391 1.01875 0.67267 0.0
C880 C 0.05838 1.02282 0.63753 0.0
C881 C 0.07721 1.00271 0.62642 0.0
C882 C 0.98875 0.07736 0.65816 0.0
C883 C 0.97764 0.07963 0.70273 0.0
C884 C 1.00867 0.05788 0.64858 0.0
C885 C 1.01852 0.04039 0.68349 0.0
C886 C 1.00823 0.04368 0.7286 0.0
C887 C 0.98797 0.06284 0.73795 0.0
H888 H 0.07271 0.46468 0.044 0.0
H889 H 0.08946 0.47999 0.89978 0.0
H890 H 0.03917 0.50063 0.04404 0.0
H891 H 0.05587 0.51668 0.89996 0.0
H892 H 0.9723 0.5606 0.90686 0.0
H893 H 1.00594 0.52385 0.90538 0.0
H894 H 0.03478 0.54874 0.04004 0.0
H895 H 1.00125 0.58463 0.04176 0.0
C896 C 0.06964 0.47613 0.01243 0.0
C897 C 0.08401 0.46948 -0.028 0.0
C898 C 0.05028 0.49681 0.01242 0.0
C899 C 0.04454 0.51159 -0.02807 0.0
C900 C 0.05945 0.50551 0.93164 0.0
C901 C 0.07907 0.48479 0.93173 0.0
C902 C 0.98544 0.55774 0.9365 0.0
C903 C 0.98389 0.57544 -0.0254 0.0
C904 C 1.00503 0.53698 0.93537 0.0
C905 C 1.0233 0.53333 -0.0275 0.0
C906 C 1.02103 0.55062 0.01098 0.0
C907 C 1.00171 0.5713 0.01197 0.0
H908 H 0.44452 1.02453 0.96324 0.0
H909 H 0.49744 0.95621 -0.01383 0.0
H910 H 0.4829 0.05532 0.96755 0.0
H911 H 0.53645 0.98748 -0.01027 0.0
H912 H 0.5976 0.05068 0.92638 0.0
H913 H 0.55988 1.01906 0.93064 0.0
H914 H 0.51854 0.07275 0.02473 0.0
H915 H 0.55689 0.10457 0.02135 0.0
C916 C 0.46444 1.01599 0.96907 0.0
C917 C 0.46791 0.98773 -0.02628 0.0
C918 C 0.48644 0.0338 -0.02798 0.0
C919 C 0.51277 1.02396 -0.02105 0.0
C920 C 0.51638 0.9957 -0.01587 0.0
C921 C 0.49411 0.97778 -0.01783 0.0
C922 C 0.58049 0.05601 0.94795 0.0
C923 C 0.58032 0.08049 -0.02674 0.0
C924 C 0.55896 0.03758 0.95074 0.0
C925 C 0.53628 0.04317 -0.0217 0.0
C926 C 0.53576 0.06781 0.00315 0.0
C927 C 0.55765 0.08612 0.00106 0.0
H928 H 0.46325 0.48272 0.80495 0.0
H929 H 0.48895 0.48224 0.66235 0.0
H930 H 0.49765 0.51642 0.82283 0.0
H931 H 0.52248 0.51717 0.67936 0.0
H932 H 0.6001 0.5583 0.73289 0.0
H933 H 0.56446 0.52567 0.71275 0.0
H934 H 0.51321 0.55979 0.81902 0.0
H935 H 0.54897 0.5907 0.84046 0.0
C936 C 0.47565 0.49048 0.77701 0.0
C937 C 0.47319 0.47971 0.73217 0.0
C938 C 0.4956 0.50993 0.78723 0.0
C939 C 0.5134 0.5197 0.75273 0.0
C940 C 0.50987 0.50986 0.70733 0.0
C941 C 0.49024 0.49006 0.69732 0.0
C942 C 0.58128 0.55855 0.7521 0.0
C943 C 0.57775 0.5769 0.7888 0.0
C944 C 0.5606 0.54 0.74031 0.0
C945 C 0.53562 0.53967 0.76434 0.0
C946 C 0.53215 0.55854 0.80034 0.0
C947 C 0.55285 0.57656 0.81258 0.0
H948 H 0.4964 0.60817 0.16975 0.0
H949 H 0.44812 0.54754 0.23946 0.0
H950 H 0.53445 0.576 0.16691 0.0
H951 H 0.48551 0.51575 0.23571 0.0
H952 H 0.55138 0.45677 0.18125 0.0
H953 H 0.51331 0.48893 0.17621 0.0
H954 H 0.56507 0.55302 0.22674 0.0
H955 H 0.60249 0.52132 0.2325 0.0
C956 C 0.49388 0.58814 0.18453 0.0
C957 C 0.4692 0.58074 0.20532 0.0
C958 C 0.51561 0.56966 0.18277 0.0
C959 C 0.51294 0.54315 0.20076 0.0
C960 C 0.4882 0.53577 0.22097 0.0
C961 C 0.46681 0.55429 0.22356 0.0
C962 C 0.55455 0.4777 0.19124 0.0
C963 C 0.57993 0.48624 0.20792 0.0
C964 C 0.53279 0.49614 0.18838 0.0
C965 C 0.53617 0.52364 0.20097 0.0
C966 C 0.56176 0.53216 0.21636 0.0
C967 C 0.58317 0.51376 0.22012 0.0
H968 H 0.55834 0.9623 0.54193 0.0
H969 H 0.58101 0.98531 0.40318 0.0
H970 H 0.52493 0.99834 0.54381 0.0
H971 H 0.54756 1.02214 0.4053 0.0
H972 H 0.46399 0.06548 0.40836 0.0
H973 H 0.49781 0.02911 0.40561 0.0
H974 H 0.52011 0.04642 0.54715 0.0
H975 H 0.48626 0.08207 0.55009 0.0
C976 C 0.55656 0.97544 0.51203 0.0
C977 C 0.57255 0.97094 0.47252 0.0
C978 C 0.53731 0.99621 0.51312 0.0
C979 C 0.53329 1.0132 0.47464 0.0
C980 C 0.5498 1.00924 0.43538 0.0
C981 C 0.56931 0.98841 0.43441 0.0
C982 C 0.47571 0.06108 0.43918 0.0
C983 C 0.47218 0.07663 0.4796 0.0
C984 C 0.49544 0.04052 0.43737 0.0
C985 C 0.51196 0.03485 0.47604 0.0
C986 C 0.50774 0.04992 0.51676 0.0
C987 C 0.48822 0.07044 0.51847 0.0
H988 H 0.9821 0.45901 0.48936 0.0
H989 H 0.94867 0.51751 0.58443 0.0
H990 H 1.01617 0.49245 0.46536 0.0
H991 H 0.98109 0.551 0.55907 0.0
H992 H 0.06053 0.59672 0.5446 0.0
H993 H 0.02517 0.56458 0.56487 0.0
H994 H 0.02679 0.5323 0.42575 0.0
H995 H 0.0633 0.56365 0.40646 0.0
C996 C 0.98191 0.479 0.50488 0.0
C997 C 0.96295 0.48529 0.53946 0.0
C998 C 1.0013 0.49836 0.4909 0.0
C999 C 1.00184 0.52467 0.5105 0.0
C1000 C 0.98219 0.53094 0.544 0.0
C1001 C 0.96333 0.51158 0.55848 0.0
C1002 C 0.05298 0.58316 0.51803 0.0
C1003 C 0.0648 0.5829 0.47384 0.0
C1004 C 0.03256 0.56454 0.52964 0.0
C1005 C 1.02291 0.54538 0.49715 0.0
C1006 C 0.03393 0.5461 0.45223 0.0
C1007 C 0.05466 0.56444 0.44087 0.0
H1008 H 0.21787 0.9907 0.55881 0.0
H1009 H 0.19076 0.0508 0.65739 0.0
H1010 H 0.21436 1.02367 0.49734 0.0
H1011 H 0.18501 0.08311 0.59488 0.0
H1012 H 0.16765 0.13505 0.47169 0.0
H1013 H 0.19472 0.11077 0.5291 0.0
H1014 H 0.17098 0.03469 0.46633 0.0
H1015 H 0.14457 0.05907 0.40888 0.0
C1016 C 0.21212 1.01117 0.568 0.0
C1017 C 0.20315 1.01761 0.61291 0.0
C1018 C 0.20967 0.03002 0.53231 0.0
C1019 C 0.19789 0.05544 0.54077 0.0
C1020 C 0.19355 0.06345 0.58685 0.0
C1021 C 0.19657 0.04476 0.62278 0.0
C1022 C 0.16826 0.11313 0.47041 0.0
C1023 C 0.15365 0.0988 0.43645 0.0
C1024 C 0.18395 0.09926 0.50297 0.0
C1025 C 0.18521 0.0708 0.50227 0.0
C1026 C 0.17112 0.05664 0.46735 0.0
C1027 C 0.15566 0.07051 0.43471 0.0
H1028 H 0.14317 0.86343 0.46767 0.0
H1029 H 0.07127 0.89606 0.53188 0.0
H1030 H 0.11501 0.83914 0.41178 0.0
H1031 H 0.04332 0.87176 0.4767 0.0
H1032 H 0.05183 0.85053 0.28689 0.0
H1033 H 0.08634 0.85391 0.34678 0.0
H1034 H 0.02826 0.82742 0.44889 0.0
H1035 H 0.99343 0.8256 0.38995 0.0
C1036 C 0.1214 0.86545 0.46991 0.0
C1037 C 0.10945 0.88199 0.50393 0.0
C1038 C 0.1053 0.8513 0.43819 0.0
C1039 C 0.07697 0.85329 0.44006 0.0
C1040 C 0.06508 0.86918 0.47496 0.0
C1041 C 0.08111 0.88334 0.50647 0.0
C1042 C 0.0466 0.84465 0.32188 0.0
C1043 C 1.01955 0.83903 0.33387 0.0
C1044 C 0.06648 0.84637 0.35621 0.0
C1045 C 0.05963 0.84201 0.40281 0.0
C1046 C 0.03382 0.83177 0.4134 0.0
C1047 C 1.0139 0.83036 0.37925 0.0
H1048 H 0.83065 0.03778 0.58922 0.0
H1049 H 0.8836 0.98774 0.67171 0.0
H1050 H 0.82694 1.00164 0.53194 0.0
H1051 H 0.88031 0.95178 0.61441 0.0
H1052 H 0.88808 0.96787 0.41995 0.0
H1053 H 0.86685 0.99289 0.48225 0.0
H1054 H 0.85855 0.919 0.5613 0.0
H1055 H 0.87953 0.89371 0.49839 0.0
C1056 C 0.84022 1.01848 0.59641 0.0
C1057 C 0.85784 1.01561 0.63427 0.0
C1058 C 0.83838 0.99791 0.56333 0.0
C1059 C 0.85406 0.9743 0.56798 0.0
C1060 C 0.8681 0.96979 0.60965 0.0
C1061 C 0.86998 0.99037 0.64261 0.0
C1062 C 0.88115 0.95676 0.44998 0.0
C1063 C 0.8861 0.92886 0.45446 0.0
C1064 C 0.86873 0.9711 0.48569 0.0
C1065 C 0.86101 0.95789 0.52676 0.0
C1066 C 0.86448 0.92972 0.53019 0.0
C1067 C 0.87681 0.91534 0.49434 0.0
H1068 H 0.97891 0.14841 0.52506 0.0
H1069 H 0.90175 0.15472 0.45523 0.0
H1070 H 1.00062 0.17178 0.46103 0.0
H1071 H 0.92354 0.17798 0.39076 0.0
H1072 H 0.98888 0.15802 0.27225 0.0
H1073 H 0.95479 0.15933 0.33273 0.0
H1074 H 1.00578 0.21295 0.41304 0.0
H1075 H 0.04011 0.21114 0.35259 0.0
C1076 C 0.96651 0.15523 0.49642 0.0
C1077 C 0.93878 0.14912 0.49477 0.0
C1078 C 0.97887 0.16891 0.45986 0.0
C1079 C 0.96373 0.17682 0.42082 0.0
C1080 C 0.93572 0.17199 0.42024 0.0
C1081 C 0.92335 0.15833 0.4569 0.0
C1082 C 0.99206 0.17134 0.3016 0.0
C1083 C 1.01728 0.1839 0.30847 0.0
C1084 C 0.97256 0.17207 0.33643 0.0
C1085 C 0.97814 0.18544 0.37836 0.0
C1086 C 1.00133 0.20192 0.3815 0.0
C1087 C 1.02083 0.20118 0.3466 0.0
H1088 H 0.20689 0.54049 0.59963 0.0
H1089 H 0.15313 0.48899 0.52105 0.0
H1090 H 0.20787 0.50702 0.66177 0.0
H1091 H 0.15357 0.4558 0.58315 0.0
H1092 H 0.14659 0.4787 0.77751 0.0
H1093 H 0.16859 0.50108 0.71241 0.0
H1094 H 0.17236 0.42462 0.63956 0.0
H1095 H 0.15015 0.40239 0.70463 0.0
C1096 C 0.19651 0.52134 0.59455 0.0
C1097 C 0.17955 0.51739 0.55608 0.0
C1098 C 0.19673 0.50236 0.63042 0.0
C1099 C 0.18008 0.47925 0.62801 0.0
C1100 C 0.16654 0.47344 0.58628 0.0
C1101 C 0.16631 0.49241 0.55053 0.0
C1102 C 0.15255 0.46667 0.7479 0.0
C1103 C 0.146 0.43904 0.74559 0.0
C1104 C 0.16543 0.47936 0.71076 0.0
C1105 C 0.17218 0.46459 0.6707 0.0
C1106 C 0.16712 0.43658 0.66968 0.0
C1107 C 0.15413 0.42394 0.70672 0.0
H1108 H 0.40415 0.881 0.20711 0.0
H1109 H 0.48112 0.90097 0.14502 0.0
H1110 H 0.42721 0.85475 0.26674 0.0
H1111 H 0.50428 0.87484 0.20462 0.0
H1112 H 0.48596 0.87343 0.39484 0.0
H1113 H 0.4543 0.873 0.33043 0.0
H1114 H 0.51369 0.83216 0.24581 0.0
H1115 H 0.54554 0.8331 0.31028 0.0
C1116 C 0.42602 0.87965 0.20609 0.0
C1117 C 0.44099 0.89375 0.17237 0.0
C1118 C 0.43915 0.86435 0.2399 0.0
C1119 C 0.46752 0.86288 0.24066 0.0
C1120 C 0.48234 0.87524 0.20474 0.0
C1121 C 0.46916 0.89047 0.17082 0.0
C1122 C 0.49167 0.86308 0.36325 0.0
C1123 C 0.51829 0.8539 0.35707 0.0
C1124 C 0.47355 0.86281 0.32621 0.0
C1125 C 0.4819 0.85333 0.2826 0.0
C1126 C 0.507 0.84015 0.27878 0.0
C1127 C 0.52511 0.84039 0.31591 0.0
H1128 H 0.90279 0.55943 0.79476 0.0
H1129 H 0.87486 0.63581 0.74009 0.0
H1130 H 0.87413 0.53537 0.73968 0.0
H1131 H 0.84552 0.61197 0.68559 0.0
H1132 H 0.82495 0.49252 0.64636 0.0
H1133 H 0.83053 0.52315 0.71093 0.0
H1134 H 0.85408 0.58703 0.61681 0.0
H1135 H 0.84655 0.55692 0.55167 0.0
C1136 C 0.8901 0.571 0.77144 0.0
C1137 C 0.89159 0.59934 0.77071 0.0
C1138 C 0.87338 0.55731 0.74017 0.0
C1139 C 0.85752 0.57176 0.70792 0.0
C1140 C 0.8578 0.60023 0.70932 0.0
C1141 C 0.87474 0.61387 0.74028 0.0
C1142 C 0.82982 0.51347 0.63885 0.0
C1143 C 0.83648 0.5219 0.59368 0.0
C1144 C 0.83351 0.53096 0.67626 0.0
C1145 C 0.84411 0.55706 0.66926 0.0
C1146 C 0.84637 0.56687 0.62368 0.0
C1147 C 0.84225 0.54949 0.58616 0.0
H1148 H 0.61261 0.11475 0.24642 0.0
H1149 H 0.59946 0.18383 0.15759 0.0
H1150 H 0.59301 0.13925 0.31095 0.0
H1151 H 0.58008 0.2089 0.22266 0.0
H1152 H 0.50597 0.21068 0.32831 0.0
H1153 H 0.53885 0.20607 0.26667 0.0
H1154 H 0.59761 0.17591 0.36497 0.0
H1155 H 0.56395 0.17942 0.42642 0.0
C1156 C 0.60572 0.13534 0.24097 0.0
C1157 C 0.60721 0.14724 0.19703 0.0
C1158 C 0.59486 0.14961 0.27806 0.0
C1159 C 0.58538 0.1763 0.27226 0.0
C1160 C 0.58719 0.1884 0.22828 0.0
C1161 C 0.59797 0.17396 0.19095 0.0
C1162 C 0.52641 0.20461 0.33726 0.0
C1163 C 0.53233 0.19477 0.38173 0.0
C1164 C 0.5453 0.20179 0.30174 0.0
C1165 C 0.57042 0.18946 0.31065 0.0
C1166 C 0.578 0.18453 0.35687 0.0
C1167 C 0.55894 0.18694 0.39223 0.0
H1168 H 0.68274 0.65055 -0.01439 0.0
H1169 H 0.67134 0.57376 0.91629 0.0
H1170 H 0.70661 0.62768 0.04836 0.0
H1171 H 0.69514 0.55099 -0.02147 0.0
H1172 H 0.68107 0.56415 0.16649 0.0
H1173 H 0.68636 0.59824 0.10665 0.0
H1174 H 0.73511 0.54257 0.02689 0.0
H1175 H 0.72925 0.50826 0.08681 0.0
C1176 C 0.68547 0.62883 -0.01641 0.0
C1177 C 0.67444 0.61382 0.94664 0.0
C1178 C 0.69947 0.61581 0.01922 0.0
C1179 C 0.70271 0.58755 0.01859 0.0
C1180 C 0.69345 0.57287 -0.02014 0.0
C1181 C 0.67949 0.58588 0.94428 0.0
C1182 C 0.69426 0.55983 0.13747 0.0
C1183 C 0.70412 0.5335 0.13045 0.0
C1184 C 0.69731 0.57935 0.10298 0.0
C1185 C 0.71027 0.57264 0.06121 0.0
C1186 C 0.72439 0.54797 0.05825 0.0
C1187 C 0.72132 0.52843 0.09282 0.0
H1188 H 0.51156 0.33727 0.85633 0.0
H1189 H 0.56728 0.38521 0.77549 0.0
H1190 H 0.54357 0.33716 0.92064 0.0
H1191 H 0.59919 0.38539 0.83968 0.0
H1192 H 0.64934 0.39106 0.96569 0.0
H1193 H 0.62785 0.36658 0.90224 0.0
H1194 H 0.54957 0.38017 0.96466 0.0
H1195 H 0.57105 0.40486 0.02785 0.0
C1196 C 0.53134 0.34636 0.85129 0.0
C1197 C 0.53686 0.36171 0.81144 0.0
C1198 C 0.5495 0.34663 0.88836 0.0
C1199 C 0.5734 0.36204 0.88568 0.0
C1200 C 0.58084 0.37346 0.84295 0.0
C1201 C 0.56264 0.3733 0.806 0.0
C1202 C 0.62753 0.38884 0.96589 0.0
C1203 C 0.61174 0.40059 0.0011 0.0
C1204 C 0.61532 0.37448 0.92985 0.0
C1205 C 0.58708 0.37145 0.92841 0.0
C1206 C 0.57146 0.38174 0.96514 0.0
C1207 C 0.58369 0.39614 0.00115 0.0
H1208 H 0.4359 0.43546 -0.01008 0.0
H1209 H 0.36789 0.44514 0.8976 0.0
H1210 H 0.41082 0.45767 0.05126 0.0
H1211 H 0.34202 0.46671 0.95948 0.0
H1212 H 0.34088 0.5479 0.04648 0.0
H1213 H 0.34463 0.50988 -0.00614 0.0
H1214 H 0.37535 0.46009 0.10544 0.0
H1215 H 0.37302 0.49906 0.1573 0.0
C1216 C 0.41532 0.44194 -0.01678 0.0
C1217 C 0.40406 0.43928 0.93898 0.0
C1218 C 0.40068 0.45433 0.0185 0.0
C1219 C 0.37424 0.46401 0.01047 0.0
C1220 C 0.36243 0.45985 0.96671 0.0
C1221 C 0.37728 0.44775 0.93119 0.0
C1222 C 0.34697 0.52839 0.06027 0.0
C1223 C 0.35718 0.52635 0.10539 0.0
C1224 C 0.34925 0.50649 0.03004 0.0
C1225 C 0.36146 0.48224 0.04499 0.0
C1226 C 0.36687 0.47887 0.09248 0.0
C1227 C 0.36513 0.50097 0.12243 0.0
H1228 H 0.42007 0.68326 0.96101 0.0
H1229 H 0.49166 0.65463 0.03128 0.0
H1230 H 0.44819 0.70854 0.9066 0.0
H1231 H 0.51993 0.6791 -0.02352 0.0
H1232 H 0.50936 0.69712 0.78267 0.0
H1233 H 0.47576 0.6953 0.84367 0.0
H1234 H 0.53634 0.71996 0.94335 0.0
H1235 H 0.57034 0.71975 0.88311 0.0
C1236 C 0.44187 0.68238 0.96469 0.0
C1237 C 0.45382 0.66652 -0.00041 0.0
C1238 C 0.45796 0.69699 0.93377 0.0
C1239 C 0.48634 0.69581 0.93686 0.0
C1240 C 0.49815 0.68099 -0.02662 0.0
C1241 C 0.48204 0.66665 0.00457 0.0
C1242 C 0.51538 0.70287 0.81738 0.0
C1243 C 0.54281 0.70721 0.82828 0.0
C1244 C 0.496 0.70207 0.85248 0.0
C1245 C 0.50369 0.70626 0.89884 0.0
C1246 C 0.53005 0.71553 0.90822 0.0
C1247 C 0.54952 0.71586 0.87329 0.0
H1248 H 0.71881 0.0488 0.12026 0.0
H1249 H 0.67682 0.99211 0.03181 0.0
H1250 H 0.71766 1.01603 0.18327 0.0
H1251 H 0.67495 0.95963 0.09479 0.0
H1252 H 0.64798 0.98611 0.28285 0.0
H1253 H 0.67509 1.0084 0.22354 0.0
H1254 H 0.68927 0.93097 0.15778 0.0
H1255 H 0.66178 0.9089 0.21686 0.0
C1256 C 0.71075 0.02874 0.11343 0.0
C1257 C 0.69727 1.02313 0.07166 0.0
C1258 C 0.70969 1.01013 0.14979 0.0
C1259 C 0.69521 0.98575 0.1446 0.0
C1260 C 0.68604 0.97833 0.10023 0.0
C1261 C 0.68716 0.99691 0.0639 0.0
C1262 C 0.65725 0.97391 0.25609 0.0
C1263 C 0.65206 0.94602 0.25354 0.0
C1264 C 0.6731 0.98654 0.22238 0.0
C1265 C 0.68427 0.97143 0.18569 0.0
C1266 C 0.68062 0.9432 0.18515 0.0
C1267 C 0.66462 0.93064 0.21865 0.0
H1268 H 0.93253 0.36358 0.6742 0.0
H1269 H 0.92159 0.4338 0.76112 0.0
H1270 H 0.95548 0.34018 0.7374 0.0
H1271 H 0.94544 0.41129 0.82346 0.0
H1272 H 0.03583 0.33948 0.82486 0.0
H1273 H 0.99818 0.34354 0.77157 0.0
H1274 H 0.94916 0.37801 0.88068 0.0
H1275 H 0.98785 0.37539 0.93317 0.0
C1276 C 0.93502 0.37397 0.70687 0.0
C1277 C 0.92548 0.40057 0.71268 0.0
C1278 C 0.9481 0.36057 0.74317 0.0
C1279 C 0.95237 0.37372 0.78579 0.0
C1280 C 0.94199 0.40008 0.79178 0.0
C1281 C 0.92856 0.41323 0.75579 0.0
C1282 C 1.01655 0.34659 0.83804 0.0
C1283 C 1.01473 0.35755 0.8827 0.0
C1284 C 0.99486 0.34906 0.80737 0.0
C1285 C 0.97091 0.36216 0.82129 0.0
C1286 C 0.96771 0.36882 0.86836 0.0
C1287 C 0.98964 0.36689 0.89874 0.0
H1288 H 0.4376 0.11167 0.20325 0.0
H1289 H 0.37111 0.09994 0.29799 0.0
H1290 H 0.40996 0.09436 0.14031 0.0
H1291 H 0.34291 0.08314 0.23467 0.0
H1292 H 0.33594 1.00965 0.12778 0.0
H1293 H 0.34235 0.04238 0.18941 0.0
H1294 H 0.37186 0.10083 0.08994 0.0
H1295 H 0.36668 0.06722 0.02867 0.0
C1296 C 0.41692 0.10564 0.21039 0.0
C1297 C 0.40667 0.1068 0.2555 0.0
C1298 C 0.40084 0.09614 0.17423 0.0
C1299 C 0.37396 0.08777 0.18223 0.0
C1300 C 0.3635 0.0894 0.22735 0.0
C1301 C 0.37975 0.09874 0.26368 0.0
C1302 C 0.34211 0.03007 0.11871 0.0
C1303 C 0.35149 0.03585 0.074 0.0
C1304 C 0.34601 0.04888 0.15417 0.0
C1305 C 0.3589 0.07372 0.14477 0.0
C1306 C 0.36288 0.08139 0.09837 0.0
C1307 C 0.35945 0.06238 0.06309 0.0
H1308 H 0.06511 0.65667 0.64693 0.0
H1309 H 0.14358 0.66935 0.70948 0.0
H1310 H 0.04397 0.6814 0.71 0.0
H1311 H 0.12252 0.69436 0.77269 0.0
H1312 H 0.06391 0.67271 0.89896 0.0
H1313 H 0.09531 0.67555 0.83465 0.0
H1314 H 0.03665 0.72194 0.75677 0.0
H1315 H 1.00498 0.71845 0.82115 0.0
C1316 C 0.07787 0.6653 0.67367 0.0
C1317 C 0.10581 0.66036 0.67411 0.0
C1318 C 0.06585 0.67978 0.70961 0.0
C1319 C 0.0816 0.68974 0.7466 0.0
C1320 C 0.10984 0.68663 0.74503 0.0
C1321 C 0.12183 0.67203 0.70916 0.0
C1322 C 0.05835 0.68476 0.86905 0.0
C1323 C 0.0319 0.69472 0.86435 0.0
C1324 C 0.07634 0.68644 0.83205 0.0
C1325 C 0.06801 0.69813 0.78998 0.0
C1326 C 0.04328 0.71218 0.7884 0.0
C1327 C 0.02526 0.71047 0.82549 0.0
loop_
_geom_bond_atom_site_label_1
_geom_bond_atom_site_label_2
_geom_bond_distance
_geom_bond_site_symmetry_2
_ccdc_geom_bond_type
C0 C1 1.351 . S
C0 N3 1.368 . S
C0 H5 0.931 . S
C1 C0 1.351 . S
C1 N2 1.373 . S
C1 H29 0.930 . S
N2 C1 1.373 . S
N2 C4 1.340 . S
N3 C0 1.368 . S
N3 C4 1.321 . S
N3 Co6 2.135 . S
C4 N2 1.340 . S
C4 N3 1.321 . S
C4 H28 0.930 . S
H5 C0 0.931 . S
Co6 N3 2.135 . S
Co6 N9 2.121 . S
Co6 O14 2.055 . S
Co6 O17 2.039 . S
Co6 N20 2.140 . S
C7 O8 1.227 . S
C7 O17 1.265 . S
O8 C7 1.227 . S
N9 Co6 2.121 . S
N9 C11 1.375 . S
N9 C12 1.313 . S
C10 C11 1.338 . S
C10 N13 1.377 . S
C10 H30 0.930 . S
C11 N9 1.375 . S
C11 C10 1.338 . S
C11 H15 0.931 . S
C12 N9 1.313 . S
C12 N13 1.344 . S
C12 H16 0.930 . S
N13 C10 1.377 . S
N13 C12 1.344 . S
O14 Co6 2.055 . S
O14 C18 1.253 . S
H15 C11 0.931 . S
H16 C12 0.930 . S
O17 Co6 2.039 . S
O17 C7 1.265 . S
C18 O14 1.253 . S
C18 O19 1.227 . S
O19 C18 1.227 . S
N20 Co6 2.140 . S
N20 C23 1.346 . S
N20 C24 1.345 . S
C21 C22 1.387 . S
C21 C25 1.391 . S
C22 C21 1.387 . S
C22 C23 1.369 . S
C22 H31 0.929 . S
C23 N20 1.346 . S
C23 C22 1.369 . S
C23 H26 0.928 . S
C24 N20 1.345 . S
C24 C25 1.371 . S
C24 H27 0.931 . S
C25 C21 1.391 . S
C25 C24 1.371 . S
C25 H32 0.930 . S
H26 C23 0.928 . S
H27 C24 0.931 . S
H28 C4 0.930 . S
H29 C1 0.930 . S
H30 C10 0.930 . S
H31 C22 0.929 . S
H32 C25 0.930 . S
C33 C34 1.351 . S
C33 N36 1.368 . S
C33 H38 0.931 . S
C34 C33 1.351 . S
C34 N35 1.373 . S
C34 H62 0.930 . S
N35 C34 1.373 . S
N35 C37 1.340 . S
N36 C33 1.368 . S
N36 C37 1.321 . S
N36 Co39 2.135 . S
C37 N35 1.340 . S
C37 N36 1.321 . S
C37 H61 0.930 . S
H38 C33 0.931 . S
Co39 N36 2.135 . S
Co39 N42 2.121 . S
Co39 O47 2.055 . S
Co39 O50 2.039 . S
Co39 N53 2.140 . S
C40 O41 1.227 . S
C40 O50 1.265 . S
O41 C40 1.227 . S
N42 Co39 2.121 . S
N42 C44 1.375 . S
N42 C45 1.313 . S
C43 C44 1.338 . S
C43 N46 1.377 . S
C43 H63 0.930 . S
C44 N42 1.375 . S
C44 C43 1.338 . S
C44 H48 0.931 . S
C45 N42 1.313 . S
C45 N46 1.344 . S
C45 H49 0.930 . S
N46 C43 1.377 . S
N46 C45 1.344 . S
O47 Co39 2.055 . S
O47 C51 1.253 . S
H48 C44 0.931 . S
H49 C45 0.930 . S
O50 Co39 2.039 . S
O50 C40 1.265 . S
C51 O47 1.253 . S
C51 O52 1.227 . S
O52 C51 1.227 . S
N53 Co39 2.140 . S
N53 C56 1.346 . S
N53 C57 1.345 . S
C54 C55 1.387 . S
C54 C58 1.391 . S
C55 C54 1.387 . S
C55 C56 1.369 . S
C55 H64 0.929 . S
C56 N53 1.346 . S
C56 C55 1.369 . S
C56 H59 0.928 . S
C57 N53 1.345 . S
C57 C58 1.371 . S
C57 H60 0.931 . S
C58 C54 1.391 . S
C58 C57 1.371 . S
C58 H65 0.930 . S
H59 C56 0.928 . S
H60 C57 0.931 . S
H61 C37 0.930 . S
H62 C34 0.930 . S
H63 C43 0.930 . S
H64 C55 0.929 . S
H65 C58 0.930 . S
C66 C67 1.351 . S
C66 N69 1.368 . S
C66 H71 0.931 . S
C67 C66 1.351 . S
C67 N68 1.373 . S
C67 H95 0.930 . S
N68 C67 1.373 . S
N68 C70 1.340 . S
N69 C66 1.368 . S
N69 C70 1.321 . S
N69 Co72 2.135 . S
C70 N68 1.340 . S
C70 N69 1.321 . S
C70 H94 0.930 . S
H71 C66 0.931 . S
Co72 N69 2.135 . S
Co72 N75 2.121 . S
Co72 O80 2.055 . S
Co72 O83 2.039 . S
Co72 N86 2.140 . S
C73 O74 1.227 . S
C73 O83 1.265 . S
O74 C73 1.227 . S
N75 Co72 2.121 . S
N75 C77 1.375 . S
N75 C78 1.313 . S
C76 C77 1.338 . S
C76 N79 1.377 . S
C76 H96 0.930 . S
C77 N75 1.375 . S
C77 C76 1.338 . S
C77 H81 0.931 . S
C78 N75 1.313 . S
C78 N79 1.344 . S
C78 H82 0.930 . S
N79 C76 1.377 . S
N79 C78 1.344 . S
O80 Co72 2.055 . S
O80 C84 1.253 . S
H81 C77 0.931 . S
H82 C78 0.930 . S
O83 Co72 2.039 . S
O83 C73 1.265 . S
C84 O80 1.253 . S
C84 O85 1.227 . S
O85 C84 1.227 . S
N86 Co72 2.140 . S
N86 C89 1.346 . S
N86 C90 1.345 . S
C87 C88 1.387 . S
C87 C91 1.391 . S
C88 C87 1.387 . S
C88 C89 1.369 . S
C88 H97 0.929 . S
C89 N86 1.346 . S
C89 C88 1.369 . S
C89 H92 0.928 . S
C90 N86 1.345 . S
C90 C91 1.371 . S
C90 H93 0.931 . S
C91 C87 1.391 . S
C91 C90 1.371 . S
C91 H98 0.930 . S
H92 C89 0.928 . S
H93 C90 0.931 . S
H94 C70 0.930 . S
H95 C67 0.930 . S
H96 C76 0.930 . S
H97 C88 0.929 . S
H98 C91 0.930 . S
C99 C100 1.351 . S
C99 N102 1.368 . S
C99 H104 0.931 . S
C100 C99 1.351 . S
C100 N101 1.373 . S
C100 H128 0.930 . S
N101 C100 1.373 . S
N101 C103 1.340 . S
N102 C99 1.368 . S
N102 C103 1.321 . S
N102 Co105 2.135 . S
C103 N101 1.340 . S
C103 N102 1.321 . S
C103 H127 0.930 . S
H104 C99 0.931 . S
Co105 N102 2.135 . S
Co105 N108 2.121 . S
Co105 O113 2.055 . S
Co105 O116 2.039 . S
Co105 N119 2.140 . S
C106 O107 1.227 . S
C106 O116 1.265 . S
O107 C106 1.227 . S
N108 Co105 2.121 . S
N108 C110 1.375 . S
N108 C111 1.313 . S
C109 C110 1.338 . S
C109 N112 1.377 . S
C109 H129 0.930 . S
C110 N108 1.375 . S
C110 C109 1.338 . S
C110 H114 0.931 . S
C111 N108 1.313 . S
C111 N112 1.344 . S
C111 H115 0.930 . S
N112 C109 1.377 . S
N112 C111 1.344 . S
O113 Co105 2.055 . S
O113 C117 1.253 . S
H114 C110 0.931 . S
H115 C111 0.930 . S
O116 Co105 2.039 . S
O116 C106 1.265 . S
C117 O113 1.253 . S
C117 O118 1.227 . S
O118 C117 1.227 . S
N119 Co105 2.140 . S
N119 C122 1.346 . S
N119 C123 1.345 . S
C120 C121 1.387 . S
C120 C124 1.391 . S
C121 C120 1.387 . S
C121 C122 1.369 . S
C121 H130 0.929 . S
C122 N119 1.346 . S
C122 C121 1.369 . S
C122 H125 0.928 . S
C123 N119 1.345 . S
C123 C124 1.371 . S
C123 H126 0.931 . S
C124 C120 1.391 . S
C124 C123 1.371 . S
C124 H131 0.930 . S
H125 C122 0.928 . S
H126 C123 0.931 . S
H127 C103 0.930 . S
H128 C100 0.930 . S
H129 C109 0.930 . S
H130 C121 0.929 . S
H131 C124 0.930 . S
C132 C133 1.351 . S
C132 N135 1.368 . S
C132 H137 0.931 . S
C133 C132 1.351 . S
C133 N134 1.373 . S
C133 H161 0.930 . S
N134 C133 1.373 . S
N134 C136 1.340 . S
N135 C132 1.368 . S
N135 C136 1.321 . S
N135 Co138 2.135 . S
C136 N134 1.340 . S
C136 N135 1.321 . S
C136 H160 0.930 . S
H137 C132 0.931 . S
Co138 N135 2.135 . S
Co138 N141 2.121 1_556 S
Co138 O146 2.055 . S
Co138 O149 2.039 1_556 S
Co138 N152 2.140 . S
C139 O140 1.227 1_554 S
C139 O149 1.265 . S
O140 C139 1.227 1_556 S
N141 Co138 2.121 1_554 S
N141 C143 1.375 . S
N141 C144 1.313 . S
C142 C143 1.338 . S
C142 N145 1.377 . S
C142 H162 0.930 . S
C143 N141 1.375 . S
C143 C142 1.338 . S
C143 H147 0.931 . S
C144 N141 1.313 . S
C144 N145 1.344 . S
C144 H148 0.930 . S
N145 C142 1.377 . S
N145 C144 1.344 . S
O146 Co138 2.055 . S
O146 C150 1.253 . S
H147 C143 0.931 . S
H148 C144 0.930 . S
O149 Co138 2.039 1_554 S
O149 C139 1.265 . S
C150 O146 1.253 . S
C150 O151 1.227 . S
O151 C150 1.227 . S
N152 Co138 2.140 . S
N152 C155 1.346 . S
N152 C156 1.345 . S
C153 C154 1.387 . S
C153 C157 1.391 . S
C154 C153 1.387 . S
C154 C155 1.369 . S
C154 H163 0.929 . S
C155 N152 1.346 . S
C155 C154 1.369 . S
C155 H158 0.928 . S
C156 N152 1.345 . S
C156 C157 1.371 . S
C156 H159 0.931 . S
C157 C153 1.391 . S
C157 C156 1.371 . S
C157 H164 0.930 . S
H158 C155 0.928 . S
H159 C156 0.931 . S
H160 C136 0.930 . S
H161 C133 0.930 . S
H162 C142 0.930 . S
H163 C154 0.929 . S
H164 C157 0.930 . S
C165 C166 1.351 . S
C165 N168 1.368 . S
C165 H170 0.931 . S
C166 C165 1.351 . S
C166 N167 1.373 . S
C166 H194 0.930 . S
N167 C166 1.373 . S
N167 C169 1.340 . S
N168 C165 1.368 . S
N168 C169 1.321 . S
N168 Co171 2.135 . S
C169 N167 1.340 . S
C169 N168 1.321 . S
C169 H193 0.930 . S
H170 C165 0.931 . S
Co171 N168 2.135 . S
Co171 N174 2.121 1_554 S
Co171 O179 2.055 . S
Co171 O182 2.039 1_554 S
Co171 N185 2.140 . S
C172 O173 1.227 1_556 S
C172 O182 1.265 . S
O173 C172 1.227 1_554 S
N174 Co171 2.121 1_556 S
N174 C176 1.375 . S
N174 C177 1.313 . S
C175 C176 1.338 . S
C175 N178 1.377 . S
C175 H195 0.930 . S
C176 N174 1.375 . S
C176 C175 1.338 . S
C176 H180 0.931 . S
C177 N174 1.313 . S
C177 N178 1.344 . S
C177 H181 0.930 . S
N178 C175 1.377 . S
N178 C177 1.344 . S
O179 Co171 2.055 . S
O179 C183 1.253 . S
H180 C176 0.931 . S
H181 C177 0.930 . S
O182 Co171 2.039 1_556 S
O182 C172 1.265 . S
C183 O179 1.253 . S
C183 O184 1.227 . S
O184 C183 1.227 . S
N185 Co171 2.140 . S
N185 C188 1.346 . S
N185 C189 1.345 . S
C186 C187 1.387 . S
C186 C190 1.391 . S
C187 C186 1.387 . S
C187 C188 1.369 . S
C187 H196 0.929 . S
C188 N185 1.346 . S
C188 C187 1.369 . S
C188 H191 0.928 . S
C189 N185 1.345 . S
C189 C190 1.371 . S
C189 H192 0.931 . S
C190 C186 1.391 . S
C190 C189 1.371 . S
C190 H197 0.930 . S
H191 C188 0.928 . S
H192 C189 0.931 . S
H193 C169 0.930 . S
H194 C166 0.930 . S
H195 C175 0.930 . S
H196 C187 0.929 . S
H197 C190 0.930 . S
C198 C199 1.351 . S
C198 N201 1.368 . S
C198 H203 0.931 . S
C199 C198 1.351 . S
C199 N200 1.373 . S
C199 H227 0.930 . S
N200 C199 1.373 . S
N200 C202 1.340 . S
N201 C198 1.368 . S
N201 C202 1.321 . S
N201 Co204 2.135 . S
C202 N200 1.340 . S
C202 N201 1.321 . S
C202 H226 0.930 . S
H203 C198 0.931 . S
Co204 N201 2.135 . S
Co204 N207 2.121 1_556 S
Co204 O212 2.055 . S
Co204 O215 2.039 1_556 S
Co204 N218 2.140 . S
C205 O206 1.227 1_554 S
C205 O215 1.265 . S
O206 C205 1.227 1_556 S
N207 Co204 2.121 1_554 S
N207 C209 1.375 . S
N207 C210 1.313 . S
C208 C209 1.338 . S
C208 N211 1.377 . S
C208 H228 0.930 . S
C209 N207 1.375 . S
C209 C208 1.338 . S
C209 H213 0.931 . S
C210 N207 1.313 . S
C210 N211 1.344 . S
C210 H214 0.930 . S
N211 C208 1.377 . S
N211 C210 1.344 . S
O212 Co204 2.055 . S
O212 C216 1.253 . S
H213 C209 0.931 . S
H214 C210 0.930 . S
O215 Co204 2.039 1_554 S
O215 C205 1.265 . S
C216 O212 1.253 . S
C216 O217 1.227 . S
O217 C216 1.227 . S
N218 Co204 2.140 . S
N218 C221 1.346 . S
N218 C222 1.345 . S
C219 C220 1.387 . S
C219 C223 1.391 . S
C220 C219 1.387 . S
C220 C221 1.369 . S
C220 H229 0.929 . S
C221 N218 1.346 . S
C221 C220 1.369 . S
C221 H224 0.928 . S
C222 N218 1.345 . S
C222 C223 1.371 . S
C222 H225 0.931 . S
C223 C219 1.391 . S
C223 C222 1.371 . S
C223 H230 0.930 . S
H224 C221 0.928 . S
H225 C222 0.931 . S
H226 C202 0.930 . S
H227 C199 0.930 . S
H228 C208 0.930 . S
H229 C220 0.929 . S
H230 C223 0.930 . S
C231 C232 1.351 . S
C231 N234 1.368 . S
C231 H236 0.931 . S
C232 C231 1.351 . S
C232 N233 1.373 . S
C232 H260 0.930 . S
N233 C232 1.373 . S
N233 C235 1.340 . S
N234 C231 1.368 . S
N234 C235 1.321 . S
N234 Co237 2.135 . S
C235 N233 1.340 . S
C235 N234 1.321 . S
C235 H259 0.930 . S
H236 C231 0.931 . S
Co237 N234 2.135 . S
Co237 N240 2.121 1_554 S
Co237 O245 2.055 . S
Co237 O248 2.039 1_554 S
Co237 N251 2.140 . S
C238 O239 1.227 1_556 S
C238 O248 1.265 . S
O239 C238 1.227 1_554 S
N240 Co237 2.121 1_556 S
N240 C242 1.375 . S
N240 C243 1.313 . S
C241 C242 1.338 . S
C241 N244 1.377 . S
C241 H261 0.930 . S
C242 N240 1.375 . S
C242 C241 1.338 . S
C242 H246 0.931 . S
C243 N240 1.313 . S
C243 N244 1.344 . S
C243 H247 0.930 . S
N244 C241 1.377 . S
N244 C243 1.344 . S
O245 Co237 2.055 . S
O245 C249 1.253 . S
H246 C242 0.931 . S
H247 C243 0.930 . S
O248 Co237 2.039 1_556 S
O248 C238 1.265 . S
C249 O245 1.253 . S
C249 O250 1.227 . S
O250 C249 1.227 . S
N251 Co237 2.140 . S
N251 C254 1.346 . S
N251 C255 1.345 . S
C252 C253 1.387 . S
C252 C256 1.391 . S
C253 C252 1.387 . S
C253 C254 1.369 . S
C253 H262 0.929 . S
C254 N251 1.346 . S
C254 C253 1.369 . S
C254 H257 0.928 . S
C255 N251 1.345 . S
C255 C256 1.371 . S
C255 H258 0.931 . S
C256 C252 1.391 . S
C256 C255 1.371 . S
C256 H263 0.930 . S
H257 C254 0.928 . S
H258 C255 0.931 . S
H259 C235 0.930 . S
H260 C232 0.930 . S
H261 C241 0.930 . S
H262 C253 0.929 . S
H263 C256 0.930 . S
C264 C265 1.351 . S
C264 N267 1.368 . S
C264 H269 0.931 . S
C265 C264 1.351 . S
C265 N266 1.373 . S
C265 H293 0.930 . S
N266 C265 1.373 . S
N266 C268 1.340 . S
N267 C264 1.368 . S
N267 C268 1.321 . S
N267 Co270 2.135 . S
C268 N266 1.340 . S
C268 N267 1.321 . S
C268 H292 0.930 . S
H269 C264 0.931 . S
Co270 N267 2.135 . S
Co270 N273 2.121 . S
Co270 O278 2.055 . S
Co270 O281 2.039 . S
Co270 N284 2.140 . S
C271 O272 1.227 . S
C271 O281 1.265 . S
O272 C271 1.227 . S
N273 Co270 2.121 . S
N273 C275 1.375 . S
N273 C276 1.313 . S
C274 C275 1.338 . S
C274 N277 1.377 . S
C274 H294 0.930 . S
C275 N273 1.375 . S
C275 C274 1.338 . S
C275 H279 0.931 . S
C276 N273 1.313 . S
C276 N277 1.344 . S
C276 H280 0.930 . S
N277 C274 1.377 . S
N277 C276 1.344 . S
O278 Co270 2.055 . S
O278 C282 1.253 . S
H279 C275 0.931 . S
H280 C276 0.930 . S
O281 Co270 2.039 . S
O281 C271 1.265 . S
C282 O278 1.253 . S
C282 O283 1.227 . S
O283 C282 1.227 . S
N284 Co270 2.140 . S
N284 C287 1.346 . S
N284 C288 1.345 . S
C285 C286 1.387 . S
C285 C289 1.391 . S
C286 C285 1.387 . S
C286 C287 1.369 . S
C286 H295 0.929 . S
C287 N284 1.346 . S
C287 C286 1.369 . S
C287 H290 0.928 . S
C288 N284 1.345 . S
C288 C289 1.371 . S
C288 H291 0.931 . S
C289 C285 1.391 . S
C289 C288 1.371 . S
C289 H296 0.930 . S
H290 C287 0.928 . S
H291 C288 0.931 . S
H292 C268 0.930 . S
H293 C265 0.930 . S
H294 C274 0.930 . S
H295 C286 0.929 . S
H296 C289 0.930 . S
C297 C298 1.351 . S
C297 N300 1.368 . S
C297 H302 0.931 . S
C298 C297 1.351 . S
C298 N299 1.373 . S
C298 H326 0.930 . S
N299 C298 1.373 . S
N299 C301 1.340 . S
N300 C297 1.368 . S
N300 C301 1.321 . S
N300 Co303 2.135 . S
C301 N299 1.340 . S
C301 N300 1.321 . S
C301 H325 0.930 . S
H302 C297 0.931 . S
Co303 N300 2.135 . S
Co303 N306 2.121 . S
Co303 O311 2.055 . S
Co303 O314 2.039 . S
Co303 N317 2.140 . S
C304 O305 1.227 . S
C304 O314 1.265 . S
O305 C304 1.227 . S
N306 Co303 2.121 . S
N306 C308 1.375 . S
N306 C309 1.313 . S
C307 C308 1.338 . S
C307 N310 1.377 . S
C307 H327 0.930 . S
C308 N306 1.375 . S
C308 C307 1.338 . S
C308 H312 0.931 . S
C309 N306 1.313 . S
C309 N310 1.344 . S
C309 H313 0.930 . S
N310 C307 1.377 . S
N310 C309 1.344 . S
O311 Co303 2.055 . S
O311 C315 1.253 . S
H312 C308 0.931 . S
H313 C309 0.930 . S
O314 Co303 2.039 . S
O314 C304 1.265 . S
C315 O311 1.253 . S
C315 O316 1.227 . S
O316 C315 1.227 . S
N317 Co303 2.140 . S
N317 C320 1.346 . S
N317 C321 1.345 . S
C318 C319 1.387 . S
C318 C322 1.391 . S
C319 C318 1.387 . S
C319 C320 1.369 . S
C319 H328 0.929 . S
C320 N317 1.346 . S
C320 C319 1.369 . S
C320 H323 0.928 . S
C321 N317 1.345 . S
C321 C322 1.371 . S
C321 H324 0.931 . S
C322 C318 1.391 . S
C322 C321 1.371 . S
C322 H329 0.930 . S
H323 C320 0.928 . S
H324 C321 0.931 . S
H325 C301 0.930 . S
H326 C298 0.930 . S
H327 C307 0.930 . S
H328 C319 0.929 . S
H329 C322 0.930 . S
C330 C331 1.351 . S
C330 N333 1.368 . S
C330 H335 0.931 . S
C331 C330 1.351 . S
C331 N332 1.373 . S
C331 H359 0.930 . S
N332 C331 1.373 . S
N332 C334 1.340 . S
N333 C330 1.368 . S
N333 C334 1.321 . S
N333 Co336 2.135 . S
C334 N332 1.340 . S
C334 N333 1.321 . S
C334 H358 0.930 . S
H335 C330 0.931 . S
Co336 N333 2.135 . S
Co336 N339 2.121 . S
Co336 O344 2.055 . S
Co336 O347 2.039 . S
Co336 N350 2.140 . S
C337 O338 1.227 . S
C337 O347 1.265 . S
O338 C337 1.227 . S
N339 Co336 2.121 . S
N339 C341 1.375 . S
N339 C342 1.313 . S
C340 C341 1.338 . S
C340 N343 1.377 . S
C340 H360 0.930 . S
C341 N339 1.375 . S
C341 C340 1.338 . S
C341 H345 0.931 . S
C342 N339 1.313 . S
C342 N343 1.344 . S
C342 H346 0.930 . S
N343 C340 1.377 . S
N343 C342 1.344 . S
O344 Co336 2.055 . S
O344 C348 1.253 . S
H345 C341 0.931 . S
H346 C342 0.930 . S
O347 Co336 2.039 . S
O347 C337 1.265 . S
C348 O344 1.253 . S
C348 O349 1.227 . S
O349 C348 1.227 . S
N350 Co336 2.140 . S
N350 C353 1.346 . S
N350 C354 1.345 . S
C351 C352 1.387 . S
C351 C355 1.391 . S
C352 C351 1.387 . S
C352 C353 1.369 . S
C352 H361 0.929 . S
C353 N350 1.346 . S
C353 C352 1.369 . S
C353 H356 0.928 . S
C354 N350 1.345 . S
C354 C355 1.371 . S
C354 H357 0.931 . S
C355 C351 1.391 . S
C355 C354 1.371 . S
C355 H362 0.930 . S
H356 C353 0.928 . S
H357 C354 0.931 . S
H358 C334 0.930 . S
H359 C331 0.930 . S
H360 C340 0.930 . S
H361 C352 0.929 . S
H362 C355 0.930 . S
C363 C364 1.351 . S
C363 N366 1.368 . S
C363 H368 0.931 . S
C364 C363 1.351 . S
C364 N365 1.373 . S
C364 H392 0.930 . S
N365 C364 1.373 . S
N365 C367 1.340 . S
N366 C363 1.368 . S
N366 C367 1.321 . S
N366 Co369 2.135 . S
C367 N365 1.340 . S
C367 N366 1.321 . S
C367 H391 0.930 . S
H368 C363 0.931 . S
Co369 N366 2.135 . S
Co369 N372 2.121 . S
Co369 O377 2.055 . S
Co369 O380 2.039 . S
Co369 N383 2.140 . S
C370 O371 1.227 . S
C370 O380 1.265 . S
O371 C370 1.227 . S
N372 Co369 2.121 . S
N372 C374 1.375 . S
N372 C375 1.313 . S
C373 C374 1.338 . S
C373 N376 1.377 . S
C373 H393 0.930 . S
C374 N372 1.375 . S
C374 C373 1.338 . S
C374 H378 0.931 . S
C375 N372 1.313 . S
C375 N376 1.344 . S
C375 H379 0.930 . S
N376 C373 1.377 . S
N376 C375 1.344 . S
O377 Co369 2.055 . S
O377 C381 1.253 . S
H378 C374 0.931 . S
H379 C375 0.930 . S
O380 Co369 2.039 . S
O380 C370 1.265 . S
C381 O377 1.253 . S
C381 O382 1.227 . S
O382 C381 1.227 . S
N383 Co369 2.140 . S
N383 C386 1.346 . S
N383 C387 1.345 . S
C384 C385 1.387 . S
C384 C388 1.391 . S
C385 C384 1.387 . S
C385 C386 1.369 . S
C385 H394 0.929 . S
C386 N383 1.346 . S
C386 C385 1.369 . S
C386 H389 0.928 . S
C387 N383 1.345 . S
C387 C388 1.371 . S
C387 H390 0.931 . S
C388 C384 1.391 . S
C388 C387 1.371 . S
C388 H395 0.930 . S
H389 C386 0.928 . S
H390 C387 0.931 . S
H391 C367 0.930 . S
H392 C364 0.930 . S
H393 C373 0.930 . S
H394 C385 0.929 . S
H395 C388 0.930 . S
C396 C397 1.351 . S
C396 N399 1.368 . S
C396 H401 0.931 . S
C397 C396 1.351 . S
C397 N398 1.373 . S
C397 H425 0.930 . S
N398 C397 1.373 . S
N398 C400 1.340 . S
N399 C396 1.368 . S
N399 C400 1.321 . S
N399 Co402 2.135 . S
C400 N398 1.340 . S
C400 N399 1.321 . S
C400 H424 0.930 . S
H401 C396 0.931 . S
Co402 N399 2.135 . S
Co402 N405 2.121 . S
Co402 O410 2.055 . S
Co402 O413 2.039 . S
Co402 N416 2.140 . S
C403 O404 1.227 . S
C403 O413 1.265 . S
O404 C403 1.227 . S
N405 Co402 2.121 . S
N405 C407 1.375 . S
N405 C408 1.313 . S
C406 C407 1.338 . S
C406 N409 1.377 . S
C406 H426 0.930 . S
C407 N405 1.375 . S
C407 C406 1.338 . S
C407 H411 0.931 . S
C408 N405 1.313 . S
C408 N409 1.344 . S
C408 H412 0.930 . S
N409 C406 1.377 . S
N409 C408 1.344 . S
O410 Co402 2.055 . S
O410 C414 1.253 . S
H411 C407 0.931 . S
H412 C408 0.930 . S
O413 Co402 2.039 . S
O413 C403 1.265 . S
C414 O410 1.253 . S
C414 O415 1.227 . S
O415 C414 1.227 . S
N416 Co402 2.140 . S
N416 C419 1.346 . S
N416 C420 1.345 . S
C417 C418 1.387 . S
C417 C421 1.391 . S
C418 C417 1.387 . S
C418 C419 1.369 . S
C418 H427 0.929 . S
C419 N416 1.346 . S
C419 C418 1.369 . S
C419 H422 0.928 . S
C420 N416 1.345 . S
C420 C421 1.371 . S
C420 H423 0.931 . S
C421 C417 1.391 . S
C421 C420 1.371 . S
C421 H428 0.930 . S
H422 C419 0.928 . S
H423 C420 0.931 . S
H424 C400 0.930 . S
H425 C397 0.930 . S
H426 C406 0.930 . S
H427 C418 0.929 . S
H428 C421 0.930 . S
C429 C430 1.351 . S
C429 N432 1.368 . S
C429 H434 0.931 . S
C430 C429 1.351 . S
C430 N431 1.373 . S
C430 H458 0.930 . S
N431 C430 1.373 . S
N431 C433 1.340 . S
N432 C429 1.368 . S
N432 C433 1.321 . S
N432 Co435 2.135 . S
C433 N431 1.340 . S
C433 N432 1.321 . S
C433 H457 0.930 . S
H434 C429 0.931 . S
Co435 N432 2.135 . S
Co435 N438 2.121 . S
Co435 O443 2.055 . S
Co435 O446 2.039 . S
Co435 N449 2.140 . S
C436 O437 1.227 . S
C436 O446 1.265 . S
O437 C436 1.227 . S
N438 Co435 2.121 . S
N438 C440 1.375 . S
N438 C441 1.313 . S
C439 C440 1.338 . S
C439 N442 1.377 . S
C439 H459 0.930 . S
C440 N438 1.375 . S
C440 C439 1.338 . S
C440 H444 0.931 . S
C441 N438 1.313 . S
C441 N442 1.344 . S
C441 H445 0.930 . S
N442 C439 1.377 . S
N442 C441 1.344 . S
O443 Co435 2.055 . S
O443 C447 1.253 . S
H444 C440 0.931 . S
H445 C441 0.930 . S
O446 Co435 2.039 . S
O446 C436 1.265 . S
C447 O443 1.253 . S
C447 O448 1.227 . S
O448 C447 1.227 . S
N449 Co435 2.140 . S
N449 C452 1.346 . S
N449 C453 1.345 . S
C450 C451 1.387 . S
C450 C454 1.391 . S
C451 C450 1.387 . S
C451 C452 1.369 . S
C451 H460 0.929 . S
C452 N449 1.346 . S
C452 C451 1.369 . S
C452 H455 0.928 . S
C453 N449 1.345 . S
C453 C454 1.371 . S
C453 H456 0.931 . S
C454 C450 1.391 . S
C454 C453 1.371 . S
C454 H461 0.930 . S
H455 C452 0.928 . S
H456 C453 0.931 . S
H457 C433 0.930 . S
H458 C430 0.930 . S
H459 C439 0.930 . S
H460 C451 0.929 . S
H461 C454 0.930 . S
C462 C463 1.351 . S
C462 N465 1.368 . S
C462 H467 0.931 . S
C463 C462 1.351 . S
C463 N464 1.373 . S
C463 H491 0.930 . S
N464 C463 1.373 . S
N464 C466 1.340 . S
N465 C462 1.368 . S
N465 C466 1.321 . S
N465 Co468 2.135 . S
C466 N464 1.340 . S
C466 N465 1.321 . S
C466 H490 0.930 . S
H467 C462 0.931 . S
Co468 N465 2.135 . S
Co468 N471 2.121 . S
Co468 O476 2.055 . S
Co468 O479 2.039 . S
Co468 N482 2.140 . S
C469 O470 1.227 . S
C469 O479 1.265 . S
O470 C469 1.227 . S
N471 Co468 2.121 . S
N471 C473 1.375 . S
N471 C474 1.313 . S
C472 C473 1.338 . S
C472 N475 1.377 . S
C472 H492 0.930 . S
C473 N471 1.375 . S
C473 C472 1.338 . S
C473 H477 0.931 . S
C474 N471 1.313 . S
C474 N475 1.344 . S
C474 H478 0.930 . S
N475 C472 1.377 . S
N475 C474 1.344 . S
O476 Co468 2.055 . S
O476 C480 1.253 . S
H477 C473 0.931 . S
H478 C474 0.930 . S
O479 Co468 2.039 . S
O479 C469 1.265 . S
C480 O476 1.253 . S
C480 O481 1.227 . S
O481 C480 1.227 . S
N482 Co468 2.140 . S
N482 C485 1.346 . S
N482 C486 1.345 . S
C483 C484 1.387 . S
C483 C487 1.391 . S
C484 C483 1.387 . S
C484 C485 1.369 . S
C484 H493 0.929 . S
C485 N482 1.346 . S
C485 C484 1.369 . S
C485 H488 0.928 . S
C486 N482 1.345 . S
C486 C487 1.371 . S
C486 H489 0.931 . S
C487 C483 1.391 . S
C487 C486 1.371 . S
C487 H494 0.930 . S
H488 C485 0.928 . S
H489 C486 0.931 . S
H490 C466 0.930 . S
H491 C463 0.930 . S
H492 C472 0.930 . S
H493 C484 0.929 . S
H494 C487 0.930 . S
C495 C496 1.351 . S
C495 N498 1.368 . S
C495 H500 0.931 . S
C496 C495 1.351 . S
C496 N497 1.373 . S
C496 H524 0.930 . S
N497 C496 1.373 . S
N497 C499 1.340 . S
N498 C495 1.368 . S
N498 C499 1.321 . S
N498 Co501 2.135 . S
C499 N497 1.340 . S
C499 N498 1.321 . S
C499 H523 0.930 . S
H500 C495 0.931 . S
Co501 N498 2.135 . S
Co501 N504 2.121 . S
Co501 O509 2.055 . S
Co501 O512 2.039 . S
Co501 N515 2.140 . S
C502 O503 1.227 . S
C502 O512 1.265 . S
O503 C502 1.227 . S
N504 Co501 2.121 . S
N504 C506 1.375 . S
N504 C507 1.313 . S
C505 C506 1.338 . S
C505 N508 1.377 . S
C505 H525 0.930 . S
C506 N504 1.375 . S
C506 C505 1.338 . S
C506 H510 0.931 . S
C507 N504 1.313 . S
C507 N508 1.344 . S
C507 H511 0.930 . S
N508 C505 1.377 . S
N508 C507 1.344 . S
O509 Co501 2.055 . S
O509 C513 1.253 . S
H510 C506 0.931 . S
H511 C507 0.930 . S
O512 Co501 2.039 . S
O512 C502 1.265 . S
C513 O509 1.253 . S
C513 O514 1.227 . S
O514 C513 1.227 . S
N515 Co501 2.140 . S
N515 C518 1.346 . S
N515 C519 1.345 . S
C516 C517 1.387 . S
C516 C520 1.391 . S
C517 C516 1.387 . S
C517 C518 1.369 . S
C517 H526 0.929 . S
C518 N515 1.346 . S
C518 C517 1.369 . S
C518 H521 0.928 . S
C519 N515 1.345 . S
C519 C520 1.371 . S
C519 H522 0.931 . S
C520 C516 1.391 . S
C520 C519 1.371 . S
C520 H527 0.930 . S
H521 C518 0.928 . S
H522 C519 0.931 . S
H523 C499 0.930 . S
H524 C496 0.930 . S
H525 C505 0.930 . S
H526 C517 0.929 . S
H527 C520 0.930 . S
H528 C536 0.950 . S
H529 C541 0.950 . S
H530 C538 0.950 . S
H531 C540 0.950 . S
H532 C542 0.950 . S
H533 C544 0.950 . S
H534 C546 0.950 . S
H535 C547 0.950 . S
C536 H528 0.950 . S
C536 C537 1.386 . S
C536 C538 1.391 . S
C537 C536 1.386 . S
C537 C541 1.393 . S
C538 H530 0.950 . S
C538 C536 1.391 . S
C538 C539 1.400 . S
C539 C538 1.400 . S
C539 C540 1.398 . S
C539 C545 1.491 . S
C540 H531 0.950 . S
C540 C539 1.398 . S
C540 C541 1.391 . S
C541 H529 0.950 . S
C541 C537 1.393 . S
C541 C540 1.391 . S
C542 H532 0.950 . S
C542 C543 1.386 . S
C542 C544 1.391 . S
C543 C542 1.386 . S
C543 C547 1.393 . S
C544 H533 0.950 . S
C544 C542 1.391 . S
C544 C545 1.400 . S
C545 C539 1.491 . S
C545 C544 1.400 . S
C545 C546 1.398 . S
C546 H534 0.950 . S
C546 C545 1.398 . S
C546 C547 1.391 . S
C547 H535 0.950 . S
C547 C543 1.393 . S
C547 C546 1.391 . S
H548 C556 0.950 . S
H549 C561 0.950 . S
H550 C558 0.950 . S
H551 C560 0.950 . S
H552 C562 0.950 . S
H553 C564 0.950 . S
H554 C566 0.950 . S
H555 C567 0.950 . S
C556 H548 0.950 . S
C556 C557 1.386 . S
C556 C558 1.391 . S
C557 C556 1.386 . S
C557 C561 1.393 . S
C558 H550 0.950 . S
C558 C556 1.391 . S
C558 C559 1.400 . S
C559 C558 1.400 . S
C559 C560 1.398 . S
C559 C565 1.491 . S
C560 H551 0.950 . S
C560 C559 1.398 . S
C560 C561 1.391 . S
C561 H549 0.950 . S
C561 C557 1.393 . S
C561 C560 1.391 . S
C562 H552 0.950 . S
C562 C563 1.386 . S
C562 C564 1.391 . S
C563 C562 1.386 . S
C563 C567 1.393 . S
C564 H553 0.950 . S
C564 C562 1.391 . S
C564 C565 1.400 . S
C565 C559 1.491 . S
C565 C564 1.400 . S
C565 C566 1.398 . S
C566 H554 0.950 . S
C566 C565 1.398 . S
C566 C567 1.391 . S
C567 H555 0.950 . S
C567 C563 1.393 . S
C567 C566 1.391 . S
H568 C576 0.950 . S
H569 C581 0.950 . S
H570 C578 0.950 . S
H571 C580 0.950 . S
H572 C582 0.950 . S
H573 C584 0.950 . S
H574 C586 0.950 . S
H575 C587 0.950 . S
C576 H568 0.950 . S
C576 C577 1.386 . S
C576 C578 1.391 . S
C577 C576 1.386 . S
C577 C581 1.393 . S
C578 H570 0.950 . S
C578 C576 1.391 . S
C578 C579 1.400 . S
C579 C578 1.400 . S
C579 C580 1.398 . S
C579 C585 1.491 . S
C580 H571 0.950 . S
C580 C579 1.398 . S
C580 C581 1.391 . S
C581 H569 0.950 . S
C581 C577 1.393 . S
C581 C580 1.391 . S
C582 H572 0.950 . S
C582 C583 1.386 . S
C582 C584 1.391 . S
C583 C582 1.386 . S
C583 C587 1.393 . S
C584 H573 0.950 . S
C584 C582 1.391 . S
C584 C585 1.400 . S
C585 C579 1.491 . S
C585 C584 1.400 . S
C585 C586 1.398 . S
C586 H574 0.950 . S
C586 C585 1.398 . S
C586 C587 1.391 . S
C587 H575 0.950 . S
C587 C583 1.393 . S
C587 C586 1.391 . S
H588 C596 0.950 . S
H589 C601 0.950 . S
H590 C598 0.950 . S
H591 C600 0.950 . S
H592 C602 0.950 . S
H593 C604 0.950 . S
H594 C606 0.950 . S
H595 C607 0.950 . S
C596 H588 0.950 . S
C596 C597 1.386 . S
C596 C598 1.391 . S
C597 C596 1.386 . S
C597 C601 1.393 . S
C598 H590 0.950 . S
C598 C596 1.391 . S
C598 C599 1.400 . S
C599 C598 1.400 . S
C599 C600 1.398 . S
C599 C605 1.491 . S
C600 H591 0.950 . S
C600 C599 1.398 . S
C600 C601 1.391 . S
C601 H589 0.950 . S
C601 C597 1.393 . S
C601 C600 1.391 . S
C602 H592 0.950 . S
C602 C603 1.386 . S
C602 C604 1.391 . S
C603 C602 1.386 . S
C603 C607 1.393 . S
C604 H593 0.950 . S
C604 C602 1.391 . S
C604 C605 1.400 . S
C605 C599 1.491 . S
C605 C604 1.400 . S
C605 C606 1.398 . S
C606 H594 0.950 . S
C606 C605 1.398 . S
C606 C607 1.391 . S
C607 H595 0.950 . S
C607 C603 1.393 . S
C607 C606 1.391 . S
H608 C616 0.950 . S
H609 C621 0.950 . S
H610 C618 0.950 . S
H611 C620 0.950 . S
H612 C622 0.950 . S
H613 C624 0.950 . S
H614 C626 0.950 . S
H615 C627 0.950 . S
C616 H608 0.950 . S
C616 C617 1.386 . S
C616 C618 1.391 . S
C617 C616 1.386 . S
C617 C621 1.393 . S
C618 H610 0.950 . S
C618 C616 1.391 . S
C618 C619 1.400 . S
C619 C618 1.400 . S
C619 C620 1.398 . S
C619 C625 1.491 . S
C620 H611 0.950 . S
C620 C619 1.398 . S
C620 C621 1.391 . S
C621 H609 0.950 . S
C621 C617 1.393 . S
C621 C620 1.391 . S
C622 H612 0.950 . S
C622 C623 1.386 . S
C622 C624 1.391 . S
C623 C622 1.386 . S
C623 C627 1.393 . S
C624 H613 0.950 . S
C624 C622 1.391 . S
C624 C625 1.400 . S
C625 C619 1.491 . S
C625 C624 1.400 . S
C625 C626 1.398 . S
C626 H614 0.950 . S
C626 C625 1.398 . S
C626 C627 1.391 . S
C627 H615 0.950 . S
C627 C623 1.393 . S
C627 C626 1.391 . S
H628 C636 0.950 . S
H629 C641 0.950 . S
H630 C638 0.950 . S
H631 C640 0.950 . S
H632 C642 0.950 . S
H633 C644 0.950 . S
H634 C646 0.950 . S
H635 C647 0.950 . S
C636 H628 0.950 . S
C636 C637 1.386 . S
C636 C638 1.391 . S
C637 C636 1.386 . S
C637 C641 1.393 . S
C638 H630 0.950 . S
C638 C636 1.391 . S
C638 C639 1.400 . S
C639 C638 1.400 . S
C639 C640 1.398 . S
C639 C645 1.491 . S
C640 H631 0.950 . S
C640 C639 1.398 . S
C640 C641 1.391 . S
C641 H629 0.950 . S
C641 C637 1.393 . S
C641 C640 1.391 . S
C642 H632 0.950 . S
C642 C643 1.386 . S
C642 C644 1.391 . S
C643 C642 1.386 . S
C643 C647 1.393 . S
C644 H633 0.950 . S
C644 C642 1.391 . S
C644 C645 1.400 . S
C645 C639 1.491 . S
C645 C644 1.400 . S
C645 C646 1.398 . S
C646 H634 0.950 . S
C646 C645 1.398 . S
C646 C647 1.391 . S
C647 H635 0.950 . S
C647 C643 1.393 . S
C647 C646 1.391 . S
H648 C656 0.950 . S
H649 C661 0.950 . S
H650 C658 0.950 . S
H651 C660 0.950 . S
H652 C662 0.950 . S
H653 C664 0.950 . S
H654 C666 0.950 . S
H655 C667 0.950 . S
C656 H648 0.950 . S
C656 C657 1.386 . S
C656 C658 1.391 . S
C657 C656 1.386 . S
C657 C661 1.393 . S
C658 H650 0.950 . S
C658 C656 1.391 . S
C658 C659 1.400 . S
C659 C658 1.400 . S
C659 C660 1.398 . S
C659 C665 1.491 . S
C660 H651 0.950 . S
C660 C659 1.398 . S
C660 C661 1.391 . S
C661 H649 0.950 . S
C661 C657 1.393 . S
C661 C660 1.391 . S
C662 H652 0.950 . S
C662 C663 1.386 . S
C662 C664 1.391 . S
C663 C662 1.386 . S
C663 C667 1.393 . S
C664 H653 0.950 . S
C664 C662 1.391 . S
C664 C665 1.400 . S
C665 C659 1.491 . S
C665 C664 1.400 . S
C665 C666 1.398 . S
C666 H654 0.950 . S
C666 C665 1.398 . S
C666 C667 1.391 . S
C667 H655 0.950 . S
C667 C663 1.393 . S
C667 C666 1.391 . S
H668 C676 0.950 . S
H669 C681 0.950 . S
H670 C678 0.950 . S
H671 C680 0.950 . S
H672 C682 0.950 . S
H673 C684 0.950 . S
H674 C686 0.950 . S
H675 C687 0.950 . S
C676 H668 0.950 . S
C676 C677 1.386 . S
C676 C678 1.391 . S
C677 C676 1.386 . S
C677 C681 1.393 . S
C678 H670 0.950 . S
C678 C676 1.391 . S
C678 C679 1.400 . S
C679 C678 1.400 . S
C679 C680 1.398 . S
C679 C685 1.491 . S
C680 H671 0.950 . S
C680 C679 1.398 . S
C680 C681 1.391 . S
C681 H669 0.950 . S
C681 C677 1.393 . S
C681 C680 1.391 . S
C682 H672 0.950 . S
C682 C683 1.386 . S
C682 C684 1.391 . S
C683 C682 1.386 . S
C683 C687 1.393 . S
C684 H673 0.950 . S
C684 C682 1.391 . S
C684 C685 1.400 . S
C685 C679 1.491 . S
C685 C684 1.400 . S
C685 C686 1.398 . S
C686 H674 0.950 . S
C686 C685 1.398 . S
C686 C687 1.391 . S
C687 H675 0.950 . S
C687 C683 1.393 . S
C687 C686 1.391 . S
H688 C696 0.950 . S
H689 C701 0.950 . S
H690 C698 0.950 . S
H691 C700 0.950 . S
H692 C702 0.950 . S
H693 C704 0.950 . S
H694 C706 0.950 . S
H695 C707 0.950 . S
C696 H688 0.950 . S
C696 C697 1.386 . S
C696 C698 1.391 . S
C697 C696 1.386 . S
C697 C701 1.393 . S
C698 H690 0.950 . S
C698 C696 1.391 . S
C698 C699 1.400 . S
C699 C698 1.400 . S
C699 C700 1.398 . S
C699 C705 1.491 . S
C700 H691 0.950 . S
C700 C699 1.398 . S
C700 C701 1.391 . S
C701 H689 0.950 . S
C701 C697 1.393 . S
C701 C700 1.391 . S
C702 H692 0.950 . S
C702 C703 1.386 . S
C702 C704 1.391 . S
C703 C702 1.386 . S
C703 C707 1.393 . S
C704 H693 0.950 . S
C704 C702 1.391 . S
C704 C705 1.400 . S
C705 C699 1.491 . S
C705 C704 1.400 . S
C705 C706 1.398 . S
C706 H694 0.950 . S
C706 C705 1.398 . S
C706 C707 1.391 . S
C707 H695 0.950 . S
C707 C703 1.393 . S
C707 C706 1.391 . S
H708 C716 0.950 . S
H709 C721 0.950 . S
H710 C718 0.950 . S
H711 C720 0.950 . S
H712 C722 0.950 . S
H713 C724 0.950 . S
H714 C726 0.950 . S
H715 C727 0.950 . S
C716 H708 0.950 . S
C716 C717 1.386 . S
C716 C718 1.391 . S
C717 C716 1.386 . S
C717 C721 1.393 . S
C718 H710 0.950 . S
C718 C716 1.391 . S
C718 C719 1.400 . S
C719 C718 1.400 . S
C719 C720 1.398 . S
C719 C725 1.491 . S
C720 H711 0.950 . S
C720 C719 1.398 . S
C720 C721 1.391 . S
C721 H709 0.950 . S
C721 C717 1.393 . S
C721 C720 1.391 . S
C722 H712 0.950 . S
C722 C723 1.386 . S
C722 C724 1.391 . S
C723 C722 1.386 . S
C723 C727 1.393 . S
C724 H713 0.950 . S
C724 C722 1.391 . S
C724 C725 1.400 . S
C725 C719 1.491 . S
C725 C724 1.400 . S
C725 C726 1.398 . S
C726 H714 0.950 . S
C726 C725 1.398 . S
C726 C727 1.391 . S
C727 H715 0.950 . S
C727 C723 1.393 . S
C727 C726 1.391 . S
H728 C736 0.950 . S
H729 C741 0.950 . S
H730 C738 0.950 . S
H731 C740 0.950 . S
H732 C742 0.950 . S
H733 C744 0.950 . S
H734 C746 0.950 . S
H735 C747 0.950 . S
C736 H728 0.950 . S
C736 C737 1.386 . S
C736 C738 1.391 . S
C737 C736 1.386 . S
C737 C741 1.393 . S
C738 H730 0.950 . S
C738 C736 1.391 . S
C738 C739 1.400 . S
C739 C738 1.400 . S
C739 C740 1.398 . S
C739 C745 1.491 . S
C740 H731 0.950 . S
C740 C739 1.398 . S
C740 C741 1.391 . S
C741 H729 0.950 . S
C741 C737 1.393 . S
C741 C740 1.391 . S
C742 H732 0.950 . S
C742 C743 1.386 . S
C742 C744 1.391 . S
C743 C742 1.386 . S
C743 C747 1.393 . S
C744 H733 0.950 . S
C744 C742 1.391 . S
C744 C745 1.400 . S
C745 C739 1.491 . S
C745 C744 1.400 . S
C745 C746 1.398 . S
C746 H734 0.950 . S
C746 C745 1.398 . S
C746 C747 1.391 . S
C747 H735 0.950 . S
C747 C743 1.393 . S
C747 C746 1.391 . S
H748 C756 0.950 . S
H749 C761 0.950 . S
H750 C758 0.950 . S
H751 C760 0.950 . S
H752 C762 0.950 . S
H753 C764 0.950 . S
H754 C766 0.950 . S
H755 C767 0.950 . S
C756 H748 0.950 . S
C756 C757 1.386 . S
C756 C758 1.391 . S
C757 C756 1.386 . S
C757 C761 1.393 . S
C758 H750 0.950 . S
C758 C756 1.391 . S
C758 C759 1.400 . S
C759 C758 1.400 . S
C759 C760 1.398 . S
C759 C765 1.491 . S
C760 H751 0.950 . S
C760 C759 1.398 . S
C760 C761 1.391 . S
C761 H749 0.950 . S
C761 C757 1.393 . S
C761 C760 1.391 . S
C762 H752 0.950 . S
C762 C763 1.386 . S
C762 C764 1.391 . S
C763 C762 1.386 . S
C763 C767 1.393 . S
C764 H753 0.950 . S
C764 C762 1.391 . S
C764 C765 1.400 . S
C765 C759 1.491 . S
C765 C764 1.400 . S
C765 C766 1.398 . S
C766 H754 0.950 . S
C766 C765 1.398 . S
C766 C767 1.391 . S
C767 H755 0.950 . S
C767 C763 1.393 . S
C767 C766 1.391 . S
H768 C776 0.950 . S
H769 C781 0.950 . S
H770 C778 0.950 . S
H771 C780 0.950 . S
H772 C782 0.950 . S
H773 C784 0.950 . S
H774 C786 0.950 . S
H775 C787 0.950 . S
C776 H768 0.950 . S
C776 C777 1.386 . S
C776 C778 1.391 . S
C777 C776 1.386 . S
C777 C781 1.393 . S
C778 H770 0.950 . S
C778 C776 1.391 . S
C778 C779 1.400 . S
C779 C778 1.400 . S
C779 C780 1.398 . S
C779 C785 1.491 . S
C780 H771 0.950 . S
C780 C779 1.398 . S
C780 C781 1.391 . S
C781 H769 0.950 . S
C781 C777 1.393 . S
C781 C780 1.391 . S
C782 H772 0.950 . S
C782 C783 1.386 . S
C782 C784 1.391 . S
C783 C782 1.386 . S
C783 C787 1.393 . S
C784 H773 0.950 . S
C784 C782 1.391 . S
C784 C785 1.400 . S
C785 C779 1.491 . S
C785 C784 1.400 . S
C785 C786 1.398 . S
C786 H774 0.950 . S
C786 C785 1.398 . S
C786 C787 1.391 . S
C787 H775 0.950 . S
C787 C783 1.393 . S
C787 C786 1.391 . S
H788 C796 0.950 . S
H789 C801 0.950 . S
H790 C798 0.950 . S
H791 C800 0.950 . S
H792 C802 0.950 . S
H793 C804 0.950 . S
H794 C806 0.950 . S
H795 C807 0.950 . S
C796 H788 0.950 . S
C796 C797 1.386 . S
C796 C798 1.391 . S
C797 C796 1.386 . S
C797 C801 1.393 . S
C798 H790 0.950 . S
C798 C796 1.391 . S
C798 C799 1.400 . S
C799 C798 1.400 . S
C799 C800 1.398 . S
C799 C805 1.491 . S
C800 H791 0.950 . S
C800 C799 1.398 . S
C800 C801 1.391 . S
C801 H789 0.950 . S
C801 C797 1.393 . S
C801 C800 1.391 . S
C802 H792 0.950 . S
C802 C803 1.386 . S
C802 C804 1.391 . S
C803 C802 1.386 . S
C803 C807 1.393 . S
C804 H793 0.950 . S
C804 C802 1.391 . S
C804 C805 1.400 . S
C805 C799 1.491 . S
C805 C804 1.400 . S
C805 C806 1.398 . S
C806 H794 0.950 . S
C806 C805 1.398 . S
C806 C807 1.391 . S
C807 H795 0.950 . S
C807 C803 1.393 . S
C807 C806 1.391 . S
H808 C816 0.950 . S
H809 C821 0.950 . S
H810 C818 0.950 . S
H811 C820 0.950 . S
H812 C822 0.950 . S
H813 C824 0.950 . S
H814 C826 0.950 . S
H815 C827 0.950 . S
C816 H808 0.950 . S
C816 C817 1.386 . S
C816 C818 1.391 . S
C817 C816 1.386 . S
C817 C821 1.393 . S
C818 H810 0.950 . S
C818 C816 1.391 . S
C818 C819 1.400 . S
C819 C818 1.400 . S
C819 C820 1.398 . S
C819 C825 1.491 . S
C820 H811 0.950 . S
C820 C819 1.398 . S
C820 C821 1.391 . S
C821 H809 0.950 . S
C821 C817 1.393 . S
C821 C820 1.391 . S
C822 H812 0.950 . S
C822 C823 1.386 . S
C822 C824 1.391 . S
C823 C822 1.386 . S
C823 C827 1.393 . S
C824 H813 0.950 . S
C824 C822 1.391 . S
C824 C825 1.400 . S
C825 C819 1.491 . S
C825 C824 1.400 . S
C825 C826 1.398 . S
C826 H814 0.950 . S
C826 C825 1.398 . S
C826 C827 1.391 . S
C827 H815 0.950 . S
C827 C823 1.393 . S
C827 C826 1.391 . S
H828 C836 0.950 . S
H829 C841 0.950 1_556 S
H830 C838 0.950 . S
H831 C840 0.950 . S
H832 C842 0.950 . S
H833 C844 0.950 . S
H834 C846 0.950 . S
H835 C847 0.950 . S
C836 H828 0.950 . S
C836 C837 1.386 . S
C836 C838 1.391 . S
C837 C836 1.386 . S
C837 C841 1.393 . S
C838 H830 0.950 . S
C838 C836 1.391 . S
C838 C839 1.400 . S
C839 C838 1.400 . S
C839 C840 1.398 . S
C839 C845 1.491 . S
C840 H831 0.950 . S
C840 C839 1.398 . S
C840 C841 1.391 . S
C841 H829 0.950 1_554 S
C841 C837 1.393 . S
C841 C840 1.391 . S
C842 H832 0.950 . S
C842 C843 1.386 . S
C842 C844 1.391 . S
C843 C842 1.386 . S
C843 C847 1.393 . S
C844 H833 0.950 . S
C844 C842 1.391 . S
C844 C845 1.400 . S
C845 C839 1.491 . S
C845 C844 1.400 . S
C845 C846 1.398 . S
C846 H834 0.950 . S
C846 C845 1.398 . S
C846 C847 1.391 . S
C847 H835 0.950 . S
C847 C843 1.393 . S
C847 C846 1.391 . S
H848 C856 0.950 . S
H849 C861 0.950 1_565 S
H850 C858 0.950 1_655 S
H851 C860 0.950 . S
H852 C862 0.950 . S
H853 C864 0.950 1_455 S
H854 C866 0.950 . S
H855 C867 0.950 1_545 S
C856 H848 0.950 . S
C856 C857 1.386 . S
C856 C858 1.391 . S
C857 C856 1.386 . S
C857 C861 1.393 . S
C858 H850 0.950 1_455 S
C858 C856 1.391 . S
C858 C859 1.400 . S
C859 C858 1.400 . S
C859 C860 1.398 1_545 S
C859 C865 1.491 1_445 S
C860 H851 0.950 . S
C860 C859 1.398 1_565 S
C860 C861 1.391 1_565 S
C861 H849 0.950 1_545 S
C861 C857 1.393 . S
C861 C860 1.391 1_545 S
C862 H852 0.950 . S
C862 C863 1.386 . S
C862 C864 1.391 . S
C863 C862 1.386 . S
C863 C867 1.393 . S
C864 H853 0.950 1_655 S
C864 C862 1.391 . S
C864 C865 1.400 . S
C865 C859 1.491 1_665 S
C865 C864 1.400 . S
C865 C866 1.398 1_565 S
C866 H854 0.950 . S
C866 C865 1.398 1_545 S
C866 C867 1.391 1_545 S
C867 H855 0.950 1_565 S
C867 C863 1.393 . S
C867 C866 1.391 1_565 S
H868 C876 0.950 . S
H869 C881 0.950 . S
H870 C878 0.956 . S
H871 C880 0.950 . S
H872 C882 0.950 . S
H873 C884 0.956 . S
H874 C886 0.950 . S
H875 C887 0.950 . S
C876 H868 0.950 . S
C876 C877 1.386 . S
C876 C878 1.387 1_455 S
C877 C876 1.386 . S
C877 C881 1.393 . S
C878 H870 0.956 . S
C878 C876 1.387 1_655 S
C878 C879 1.398 1_655 S
C879 C878 1.398 1_455 S
C879 C880 1.398 . S
C879 C885 1.491 1_465 S
C880 H871 0.950 . S
C880 C879 1.398 . S
C880 C881 1.391 . S
C881 H869 0.950 . S
C881 C877 1.393 . S
C881 C880 1.391 . S
C882 H872 0.950 . S
C882 C883 1.386 . S
C882 C884 1.387 1_655 S
C883 C882 1.386 . S
C883 C887 1.393 . S
C884 H873 0.956 . S
C884 C882 1.387 1_455 S
C884 C885 1.398 1_455 S
C885 C879 1.491 1_645 S
C885 C884 1.398 1_655 S
C885 C886 1.398 . S
C886 H874 0.950 . S
C886 C885 1.398 . S
C886 C887 1.391 . S
C887 H875 0.950 . S
C887 C883 1.393 . S
C887 C886 1.391 . S
H888 C896 0.950 . S
H889 C901 0.950 1_556 S
H890 C898 0.950 . S
H891 C900 0.950 1_556 S
H892 C902 0.950 1_556 S
H893 C904 0.950 1_556 S
H894 C906 0.950 . S
H895 C907 0.950 . S
C896 H888 0.950 . S
C896 C897 1.386 . S
C896 C898 1.391 . S
C897 C896 1.386 . S
C897 C901 1.393 . S
C898 H890 0.950 . S
C898 C896 1.391 . S
C898 C899 1.400 . S
C899 C898 1.400 . S
C899 C900 1.398 . S
C899 C905 1.491 1_455 S
C900 H891 0.950 1_554 S
C900 C899 1.398 . S
C900 C901 1.391 . S
C901 H889 0.950 1_554 S
C901 C897 1.393 . S
C901 C900 1.391 . S
C902 H892 0.950 1_554 S
C902 C903 1.386 . S
C902 C904 1.391 . S
C903 C902 1.386 . S
C903 C907 1.393 . S
C904 H893 0.950 1_554 S
C904 C902 1.391 . S
C904 C905 1.400 . S
C905 C899 1.491 1_655 S
C905 C904 1.400 . S
C905 C906 1.398 . S
C906 H894 0.950 . S
C906 C905 1.398 . S
C906 C907 1.391 . S
C907 H895 0.950 . S
C907 C903 1.393 . S
C907 C906 1.391 . S
H908 C916 0.950 . S
H909 C921 0.950 . S
H910 C918 0.950 1_545 S
H911 C920 0.950 . S
H912 C922 0.950 . S
H913 C924 0.950 1_565 S
H914 C926 0.950 . S
H915 C927 0.950 . S
C916 H908 0.950 . S
C916 C917 1.386 . S
C916 C918 1.391 . S
C917 C916 1.386 . S
C917 C921 1.393 . S
C918 H910 0.950 1_565 S
C918 C916 1.391 . S
C918 C919 1.400 . S
C919 C918 1.400 . S
C919 C920 1.398 . S
C919 C925 1.491 1_565 S
C920 H911 0.950 . S
C920 C919 1.398 . S
C920 C921 1.391 . S
C921 H909 0.950 . S
C921 C917 1.393 . S
C921 C920 1.391 . S
C922 H912 0.950 . S
C922 C923 1.386 . S
C922 C924 1.391 . S
C923 C922 1.386 . S
C923 C927 1.393 . S
C924 H913 0.950 1_545 S
C924 C922 1.391 . S
C924 C925 1.400 . S
C925 C919 1.491 1_545 S
C925 C924 1.400 . S
C925 C926 1.398 . S
C926 H914 0.950 . S
C926 C925 1.398 . S
C926 C927 1.391 . S
C927 H915 0.950 . S
C927 C923 1.393 . S
C927 C926 1.391 . S
H928 C936 0.950 . S
H929 C941 0.950 . S
H930 C938 0.950 . S
H931 C940 0.950 . S
H932 C942 0.950 . S
H933 C944 0.950 . S
H934 C946 0.950 . S
H935 C947 0.950 . S
C936 H928 0.950 . S
C936 C937 1.386 . S
C936 C938 1.391 . S
C937 C936 1.386 . S
C937 C941 1.393 . S
C938 H930 0.950 . S
C938 C936 1.391 . S
C938 C939 1.400 . S
C939 C938 1.400 . S
C939 C940 1.398 . S
C939 C945 1.491 . S
C940 H931 0.950 . S
C940 C939 1.398 . S
C940 C941 1.391 . S
C941 H929 0.950 . S
C941 C937 1.393 . S
C941 C940 1.391 . S
C942 H932 0.950 . S
C942 C943 1.386 . S
C942 C944 1.391 . S
C943 C942 1.386 . S
C943 C947 1.393 . S
C944 H933 0.950 . S
C944 C942 1.391 . S
C944 C945 1.400 . S
C945 C939 1.491 . S
C945 C944 1.400 . S
C945 C946 1.398 . S
C946 H934 0.950 . S
C946 C945 1.398 . S
C946 C947 1.391 . S
C947 H935 0.950 . S
C947 C943 1.393 . S
C947 C946 1.391 . S
H948 C956 0.950 . S
H949 C961 0.950 . S
H950 C958 0.950 . S
H951 C960 0.950 . S
H952 C962 0.950 . S
H953 C964 0.950 . S
H954 C966 0.950 . S
H955 C967 0.950 . S
C956 H948 0.950 . S
C956 C957 1.386 . S
C956 C958 1.391 . S
C957 C956 1.386 . S
C957 C961 1.393 . S
C958 H950 0.950 . S
C958 C956 1.391 . S
C958 C959 1.400 . S
C959 C958 1.400 . S
C959 C960 1.398 . S
C959 C965 1.491 . S
C960 H951 0.950 . S
C960 C959 1.398 . S
C960 C961 1.391 . S
C961 H949 0.950 . S
C961 C957 1.393 . S
C961 C960 1.391 . S
C962 H952 0.950 . S
C962 C963 1.386 . S
C962 C964 1.391 . S
C963 C962 1.386 . S
C963 C967 1.393 . S
C964 H953 0.950 . S
C964 C962 1.391 . S
C964 C965 1.400 . S
C965 C959 1.491 . S
C965 C964 1.400 . S
C965 C966 1.398 . S
C966 H954 0.950 . S
C966 C965 1.398 . S
C966 C967 1.391 . S
C967 H955 0.950 . S
C967 C963 1.393 . S
C967 C966 1.391 . S
H968 C976 0.950 . S
H969 C981 0.950 . S
H970 C978 0.950 . S
H971 C980 0.979 . S
H972 C982 0.950 . S
H973 C984 0.950 . S
H974 C986 0.979 . S
H975 C987 0.950 . S
C976 H968 0.950 . S
C976 C977 1.386 . S
C976 C978 1.391 . S
C977 C976 1.386 . S
C977 C981 1.393 . S
C978 H970 0.950 . S
C978 C976 1.391 . S
C978 C979 1.400 . S
C979 C978 1.400 . S
C979 C980 1.388 1_565 S
C979 C985 1.491 1_565 S
C980 H971 0.979 . S
C980 C979 1.388 1_545 S
C980 C981 1.373 1_545 S
C981 H969 0.950 . S
C981 C977 1.393 . S
C981 C980 1.373 1_565 S
C982 H972 0.950 . S
C982 C983 1.386 . S
C982 C984 1.391 . S
C983 C982 1.386 . S
C983 C987 1.393 . S
C984 H973 0.950 . S
C984 C982 1.391 . S
C984 C985 1.400 . S
C985 C979 1.491 1_545 S
C985 C984 1.400 . S
C985 C986 1.389 1_545 S
C986 H974 0.979 . S
C986 C985 1.389 1_565 S
C986 C987 1.373 1_565 S
C987 H975 0.950 . S
C987 C983 1.393 . S
C987 C986 1.373 1_545 S
H988 C996 0.950 . S
H989 C1001 0.950 . S
H990 C998 0.950 . S
H991 C1000 0.950 . S
H992 C1002 0.950 . S
H993 C1004 0.950 . S
H994 C1006 0.950 . S
H995 C1007 0.950 . S
C996 H988 0.950 . S
C996 C997 1.386 . S
C996 C998 1.391 1_655 S
C997 C996 1.386 . S
C997 C1001 1.393 . S
C998 H990 0.950 . S
C998 C996 1.391 1_455 S
C998 C999 1.400 1_455 S
C999 C998 1.400 1_655 S
C999 C1000 1.398 . S
C999 C1005 1.491 1_655 S
C1000 H991 0.950 . S
C1000 C999 1.398 . S
C1000 C1001 1.391 . S
C1001 H989 0.950 . S
C1001 C997 1.393 . S
C1001 C1000 1.391 . S
C1002 H992 0.950 . S
C1002 C1003 1.386 . S
C1002 C1004 1.391 1_455 S
C1003 C1002 1.386 . S
C1003 C1007 1.393 . S
C1004 H993 0.950 . S
C1004 C1002 1.391 1_655 S
C1004 C1005 1.400 1_655 S
C1005 C999 1.491 1_455 S
C1005 C1004 1.400 1_455 S
C1005 C1006 1.398 . S
C1006 H994 0.950 . S
C1006 C1005 1.398 . S
C1006 C1007 1.391 . S
C1007 H995 0.950 . S
C1007 C1003 1.393 . S
C1007 C1006 1.391 . S
H1008 C1016 0.950 . S
H1009 C1021 0.950 . S
H1010 C1018 0.950 . S
H1011 C1020 0.950 . S
H1012 C1022 0.950 . S
H1013 C1024 0.950 . S
H1014 C1026 0.950 . S
H1015 C1027 0.950 . S
C1016 H1008 0.950 . S
C1016 C1017 1.386 . S
C1016 C1018 1.391 . S
C1017 C1016 1.386 . S
C1017 C1021 1.393 . S
C1018 H1010 0.950 . S
C1018 C1016 1.391 . S
C1018 C1019 1.400 . S
C1019 C1018 1.400 . S
C1019 C1020 1.398 . S
C1019 C1025 1.491 . S
C1020 H1011 0.950 . S
C1020 C1019 1.398 . S
C1020 C1021 1.391 . S
C1021 H1009 0.950 . S
C1021 C1017 1.393 . S
C1021 C1020 1.391 . S
C1022 H1012 0.950 . S
C1022 C1023 1.386 . S
C1022 C1024 1.391 1_545 S
C1023 C1022 1.386 . S
C1023 C1027 1.393 1_545 S
C1024 H1013 0.950 . S
C1024 C1022 1.391 1_565 S
C1024 C1025 1.400 . S
C1025 C1019 1.491 . S
C1025 C1024 1.400 . S
C1025 C1026 1.398 . S
C1026 H1014 0.950 . S
C1026 C1025 1.398 . S
C1026 C1027 1.391 . S
C1027 H1015 0.950 . S
C1027 C1023 1.393 1_565 S
C1027 C1026 1.391 . S
H1028 C1036 0.950 . S
H1029 C1041 0.950 . S
H1030 C1038 0.950 . S
H1031 C1040 0.950 . S
H1032 C1042 0.950 . S
H1033 C1044 0.950 . S
H1034 C1046 0.950 . S
H1035 C1047 0.950 . S
C1036 H1028 0.950 . S
C1036 C1037 1.386 1_655 S
C1036 C1038 1.391 . S
C1037 C1036 1.386 1_455 S
C1037 C1041 1.393 . S
C1038 H1030 0.950 . S
C1038 C1036 1.391 . S
C1038 C1039 1.400 . S
C1039 C1038 1.400 . S
C1039 C1040 1.398 1_655 S
C1039 C1045 1.491 . S
C1040 H1031 0.950 . S
C1040 C1039 1.398 1_455 S
C1040 C1041 1.391 . S
C1041 H1029 0.950 . S
C1041 C1037 1.393 . S
C1041 C1040 1.391 . S
C1042 H1032 0.950 . S
C1042 C1043 1.386 . S
C1042 C1044 1.391 . S
C1043 C1042 1.386 . S
C1043 C1047 1.393 . S
C1044 H1033 0.950 . S
C1044 C1042 1.391 . S
C1044 C1045 1.400 . S
C1045 C1039 1.491 . S
C1045 C1044 1.400 . S
C1045 C1046 1.398 . S
C1046 H1034 0.950 . S
C1046 C1045 1.398 . S
C1046 C1047 1.391 . S
C1047 H1035 0.950 . S
C1047 C1043 1.393 . S
C1047 C1046 1.391 . S
H1048 C1056 0.950 . S
H1049 C1061 0.950 . S
H1050 C1058 0.950 . S
H1051 C1060 0.950 . S
H1052 C1062 0.950 . S
H1053 C1064 0.950 1_565 S
H1054 C1066 0.950 . S
H1055 C1067 0.950 . S
C1056 H1048 0.950 . S
C1056 C1057 1.386 . S
C1056 C1058 1.391 . S
C1057 C1056 1.386 . S
C1057 C1061 1.393 . S
C1058 H1050 0.950 . S
C1058 C1056 1.391 . S
C1058 C1059 1.400 . S
C1059 C1058 1.400 . S
C1059 C1060 1.398 . S
C1059 C1065 1.491 . S
C1060 H1051 0.950 . S
C1060 C1059 1.398 . S
C1060 C1061 1.391 . S
C1061 H1049 0.950 . S
C1061 C1057 1.393 . S
C1061 C1060 1.391 . S
C1062 H1052 0.950 . S
C1062 C1063 1.386 . S
C1062 C1064 1.391 1_565 S
C1063 C1062 1.386 . S
C1063 C1067 1.393 1_565 S
C1064 H1053 0.950 1_545 S
C1064 C1062 1.391 1_545 S
C1064 C1065 1.400 . S
C1065 C1059 1.491 . S
C1065 C1064 1.400 . S
C1065 C1066 1.398 . S
C1066 H1054 0.950 . S
C1066 C1065 1.398 . S
C1066 C1067 1.391 . S
C1067 H1055 0.950 . S
C1067 C1063 1.393 1_545 S
C1067 C1066 1.391 . S
H1068 C1076 0.950 . S
H1069 C1081 0.950 . S
H1070 C1078 0.950 . S
H1071 C1080 0.941 1_655 S
H1072 C1082 0.950 . S
H1073 C1084 0.950 . S
H1074 C1086 0.950 . S
H1075 C1087 0.950 . S
C1076 H1068 0.950 . S
C1076 C1077 1.386 1_455 S
C1076 C1078 1.391 . S
C1077 C1076 1.386 1_655 S
C1077 C1081 1.393 . S
C1078 H1070 0.950 . S
C1078 C1076 1.391 . S
C1078 C1079 1.400 . S
C1079 C1078 1.400 . S
C1079 C1080 1.431 . S
C1079 C1085 1.491 . S
C1080 H1071 0.941 1_455 S
C1080 C1079 1.431 . S
C1080 C1081 1.368 1_455 S
C1081 H1069 0.950 . S
C1081 C1077 1.393 . S
C1081 C1080 1.368 1_655 S
C1082 H1072 0.950 . S
C1082 C1083 1.386 . S
C1082 C1084 1.391 . S
C1083 C1082 1.386 . S
C1083 C1087 1.393 . S
C1084 H1073 0.950 . S
C1084 C1082 1.391 . S
C1084 C1085 1.400 . S
C1085 C1079 1.491 . S
C1085 C1084 1.400 . S
C1085 C1086 1.398 . S
C1086 H1074 0.950 . S
C1086 C1085 1.398 . S
C1086 C1087 1.391 . S
C1087 H1075 0.950 . S
C1087 C1083 1.393 . S
C1087 C1086 1.391 . S
H1088 C1096 0.950 . S
H1089 C1101 0.950 . S
H1090 C1098 0.950 . S
H1091 C1100 0.950 . S
H1092 C1102 0.950 . S
H1093 C1104 0.950 . S
H1094 C1106 0.950 . S
H1095 C1107 0.950 . S
C1096 H1088 0.950 . S
C1096 C1097 1.386 . S
C1096 C1098 1.391 . S
C1097 C1096 1.386 . S
C1097 C1101 1.393 . S
C1098 H1090 0.950 . S
C1098 C1096 1.391 . S
C1098 C1099 1.400 . S
C1099 C1098 1.400 . S
C1099 C1100 1.398 . S
C1099 C1105 1.491 . S
C1100 H1091 0.950 . S
C1100 C1099 1.398 . S
C1100 C1101 1.391 . S
C1101 H1089 0.950 . S
C1101 C1097 1.393 . S
C1101 C1100 1.391 . S
C1102 H1092 0.950 . S
C1102 C1103 1.386 . S
C1102 C1104 1.391 . S
C1103 C1102 1.386 . S
C1103 C1107 1.393 . S
C1104 H1093 0.950 . S
C1104 C1102 1.391 . S
C1104 C1105 1.400 . S
C1105 C1099 1.491 . S
C1105 C1104 1.400 . S
C1105 C1106 1.398 . S
C1106 H1094 0.950 . S
C1106 C1105 1.398 . S
C1106 C1107 1.391 . S
C1107 H1095 0.950 . S
C1107 C1103 1.393 . S
C1107 C1106 1.391 . S
H1108 C1116 0.950 . S
H1109 C1121 0.950 . S
H1110 C1118 0.950 . S
H1111 C1120 0.950 . S
H1112 C1122 0.950 . S
H1113 C1124 0.950 . S
H1114 C1126 0.950 . S
H1115 C1127 0.950 . S
C1116 H1108 0.950 . S
C1116 C1117 1.386 . S
C1116 C1118 1.391 . S
C1117 C1116 1.386 . S
C1117 C1121 1.393 . S
C1118 H1110 0.950 . S
C1118 C1116 1.391 . S
C1118 C1119 1.400 . S
C1119 C1118 1.400 . S
C1119 C1120 1.398 . S
C1119 C1125 1.491 . S
C1120 H1111 0.950 . S
C1120 C1119 1.398 . S
C1120 C1121 1.391 . S
C1121 H1109 0.950 . S
C1121 C1117 1.393 . S
C1121 C1120 1.391 . S
C1122 H1112 0.950 . S
C1122 C1123 1.386 . S
C1122 C1124 1.391 . S
C1123 C1122 1.386 . S
C1123 C1127 1.393 . S
C1124 H1113 0.950 . S
C1124 C1122 1.391 . S
C1124 C1125 1.400 . S
C1125 C1119 1.491 . S
C1125 C1124 1.400 . S
C1125 C1126 1.398 . S
C1126 H1114 0.950 . S
C1126 C1125 1.398 . S
C1126 C1127 1.391 . S
C1127 H1115 0.950 . S
C1127 C1123 1.393 . S
C1127 C1126 1.391 . S
H1128 C1136 0.950 . S
H1129 C1141 0.950 . S
H1130 C1138 0.950 . S
H1131 C1140 0.950 . S
H1132 C1142 0.950 . S
H1133 C1144 0.950 . S
H1134 C1146 0.950 . S
H1135 C1147 0.950 . S
C1136 H1128 0.950 . S
C1136 C1137 1.386 . S
C1136 C1138 1.391 . S
C1137 C1136 1.386 . S
C1137 C1141 1.393 . S
C1138 H1130 0.950 . S
C1138 C1136 1.391 . S
C1138 C1139 1.400 . S
C1139 C1138 1.400 . S
C1139 C1140 1.398 . S
C1139 C1145 1.491 . S
C1140 H1131 0.950 . S
C1140 C1139 1.398 . S
C1140 C1141 1.391 . S
C1141 H1129 0.950 . S
C1141 C1137 1.393 . S
C1141 C1140 1.391 . S
C1142 H1132 0.950 . S
C1142 C1143 1.386 . S
C1142 C1144 1.391 . S
C1143 C1142 1.386 . S
C1143 C1147 1.393 . S
C1144 H1133 0.950 . S
C1144 C1142 1.391 . S
C1144 C1145 1.400 . S
C1145 C1139 1.491 . S
C1145 C1144 1.400 . S
C1145 C1146 1.398 . S
C1146 H1134 0.950 . S
C1146 C1145 1.398 . S
C1146 C1147 1.391 . S
C1147 H1135 0.950 . S
C1147 C1143 1.393 . S
C1147 C1146 1.391 . S
H1148 C1156 0.950 . S
H1149 C1161 0.950 . S
H1150 C1158 0.950 . S
H1151 C1160 0.950 . S
H1152 C1162 0.950 . S
H1153 C1164 0.950 . S
H1154 C1166 0.950 . S
H1155 C1167 0.950 . S
C1156 H1148 0.950 . S
C1156 C1157 1.386 . S
C1156 C1158 1.391 . S
C1157 C1156 1.386 . S
C1157 C1161 1.393 . S
C1158 H1150 0.950 . S
C1158 C1156 1.391 . S
C1158 C1159 1.400 . S
C1159 C1158 1.400 . S
C1159 C1160 1.398 . S
C1159 C1165 1.491 . S
C1160 H1151 0.950 . S
C1160 C1159 1.398 . S
C1160 C1161 1.391 . S
C1161 H1149 0.950 . S
C1161 C1157 1.393 . S
C1161 C1160 1.391 . S
C1162 H1152 0.950 . S
C1162 C1163 1.386 . S
C1162 C1164 1.391 . S
C1163 C1162 1.386 . S
C1163 C1167 1.393 . S
C1164 H1153 0.950 . S
C1164 C1162 1.391 . S
C1164 C1165 1.400 . S
C1165 C1159 1.491 . S
C1165 C1164 1.400 . S
C1165 C1166 1.398 . S
C1166 H1154 0.950 . S
C1166 C1165 1.398 . S
C1166 C1167 1.391 . S
C1167 H1155 0.950 . S
C1167 C1163 1.393 . S
C1167 C1166 1.391 . S
H1168 C1176 0.950 . S
H1169 C1181 0.950 . S
H1170 C1178 0.950 . S
H1171 C1180 0.950 . S
H1172 C1182 0.950 . S
H1173 C1184 0.950 . S
H1174 C1186 0.950 1_556 S
H1175 C1187 0.950 . S
C1176 H1168 0.950 . S
C1176 C1177 1.386 . S
C1176 C1178 1.391 . S
C1177 C1176 1.386 . S
C1177 C1181 1.393 . S
C1178 H1170 0.950 . S
C1178 C1176 1.391 . S
C1178 C1179 1.400 . S
C1179 C1178 1.400 . S
C1179 C1180 1.398 . S
C1179 C1185 1.491 1_556 S
C1180 H1171 0.950 . S
C1180 C1179 1.398 . S
C1180 C1181 1.391 . S
C1181 H1169 0.950 . S
C1181 C1177 1.393 . S
C1181 C1180 1.391 . S
C1182 H1172 0.950 . S
C1182 C1183 1.386 . S
C1182 C1184 1.391 . S
C1183 C1182 1.386 . S
C1183 C1187 1.393 . S
C1184 H1173 0.950 . S
C1184 C1182 1.391 . S
C1184 C1185 1.400 . S
C1185 C1179 1.491 1_554 S
C1185 C1184 1.400 . S
C1185 C1186 1.398 . S
C1186 H1174 0.950 1_554 S
C1186 C1185 1.398 . S
C1186 C1187 1.391 . S
C1187 H1175 0.950 . S
C1187 C1183 1.393 . S
C1187 C1186 1.391 . S
H1188 C1196 0.950 . S
H1189 C1201 0.950 . S
H1190 C1198 0.950 . S
H1191 C1200 0.950 . S
H1192 C1202 0.950 . S
H1193 C1204 0.950 . S
H1194 C1206 0.950 . S
H1195 C1207 0.950 . S
C1196 H1188 0.950 . S
C1196 C1197 1.386 . S
C1196 C1198 1.391 . S
C1197 C1196 1.386 . S
C1197 C1201 1.393 . S
C1198 H1190 0.950 . S
C1198 C1196 1.391 . S
C1198 C1199 1.400 . S
C1199 C1198 1.400 . S
C1199 C1200 1.398 . S
C1199 C1205 1.491 1_556 S
C1200 H1191 0.950 . S
C1200 C1199 1.398 . S
C1200 C1201 1.391 . S
C1201 H1189 0.950 . S
C1201 C1197 1.393 . S
C1201 C1200 1.391 . S
C1202 H1192 0.950 . S
C1202 C1203 1.386 . S
C1202 C1204 1.391 . S
C1203 C1202 1.386 . S
C1203 C1207 1.393 . S
C1204 H1193 0.950 . S
C1204 C1202 1.391 . S
C1204 C1205 1.400 . S
C1205 C1199 1.491 1_554 S
C1205 C1204 1.400 . S
C1205 C1206 1.398 . S
C1206 H1194 0.950 . S
C1206 C1205 1.398 . S
C1206 C1207 1.391 . S
C1207 H1195 0.950 . S
C1207 C1203 1.393 . S
C1207 C1206 1.391 . S
H1208 C1216 0.950 . S
H1209 C1221 0.950 . S
H1210 C1218 0.950 . S
H1211 C1220 0.950 . S
H1212 C1222 0.950 . S
H1213 C1224 0.950 1_556 S
H1214 C1226 0.950 . S
H1215 C1227 0.950 . S
C1216 H1208 0.950 . S
C1216 C1217 1.386 . S
C1216 C1218 1.391 . S
C1217 C1216 1.386 . S
C1217 C1221 1.393 . S
C1218 H1210 0.950 . S
C1218 C1216 1.391 . S
C1218 C1219 1.400 . S
C1219 C1218 1.400 . S
C1219 C1220 1.398 . S
C1219 C1225 1.491 1_556 S
C1220 H1211 0.950 . S
C1220 C1219 1.398 . S
C1220 C1221 1.391 . S
C1221 H1209 0.950 . S
C1221 C1217 1.393 . S
C1221 C1220 1.391 . S
C1222 H1212 0.950 . S
C1222 C1223 1.386 . S
C1222 C1224 1.391 . S
C1223 C1222 1.386 . S
C1223 C1227 1.393 . S
C1224 H1213 0.950 1_554 S
C1224 C1222 1.391 . S
C1224 C1225 1.400 . S
C1225 C1219 1.491 1_554 S
C1225 C1224 1.400 . S
C1225 C1226 1.398 . S
C1226 H1214 0.950 . S
C1226 C1225 1.398 . S
C1226 C1227 1.391 . S
C1227 H1215 0.950 . S
C1227 C1223 1.393 . S
C1227 C1226 1.391 . S
H1228 C1236 0.950 . S
H1229 C1241 0.950 . S
H1230 C1238 0.950 . S
H1231 C1240 0.950 . S
H1232 C1242 0.950 . S
H1233 C1244 0.950 . S
H1234 C1246 0.950 1_554 S
H1235 C1247 0.950 . S
C1236 H1228 0.950 . S
C1236 C1237 1.386 . S
C1236 C1238 1.391 . S
C1237 C1236 1.386 . S
C1237 C1241 1.393 . S
C1238 H1230 0.950 . S
C1238 C1236 1.391 . S
C1238 C1239 1.400 . S
C1239 C1238 1.400 . S
C1239 C1240 1.398 . S
C1239 C1245 1.491 1_554 S
C1240 H1231 0.950 . S
C1240 C1239 1.398 . S
C1240 C1241 1.391 . S
C1241 H1229 0.950 . S
C1241 C1237 1.393 . S
C1241 C1240 1.391 . S
C1242 H1232 0.950 . S
C1242 C1243 1.386 . S
C1242 C1244 1.391 . S
C1243 C1242 1.386 . S
C1243 C1247 1.393 . S
C1244 H1233 0.950 . S
C1244 C1242 1.391 . S
C1244 C1245 1.400 . S
C1245 C1239 1.491 1_556 S
C1245 C1244 1.400 . S
C1245 C1246 1.398 . S
C1246 H1234 0.950 1_556 S
C1246 C1245 1.398 . S
C1246 C1247 1.391 . S
C1247 H1235 0.950 . S
C1247 C1243 1.393 . S
C1247 C1246 1.391 . S
H1248 C1256 0.950 . S
H1249 C1261 0.950 . S
H1250 C1258 0.950 . S
H1251 C1260 0.950 . S
H1252 C1262 0.950 . S
H1253 C1264 0.950 . S
H1254 C1266 0.950 . S
H1255 C1267 0.950 . S
C1256 H1248 0.950 . S
C1256 C1257 1.386 . S
C1256 C1258 1.391 . S
C1257 C1256 1.386 . S
C1257 C1261 1.393 . S
C1258 H1250 0.950 . S
C1258 C1256 1.391 . S
C1258 C1259 1.400 . S
C1259 C1258 1.400 . S
C1259 C1260 1.398 . S
C1259 C1265 1.491 . S
C1260 H1251 0.950 . S
C1260 C1259 1.398 . S
C1260 C1261 1.391 . S
C1261 H1249 0.950 . S
C1261 C1257 1.393 . S
C1261 C1260 1.391 . S
C1262 H1252 0.950 . S
C1262 C1263 1.386 . S
C1262 C1264 1.391 1_565 S
C1263 C1262 1.386 . S
C1263 C1267 1.393 1_565 S
C1264 H1253 0.950 . S
C1264 C1262 1.391 1_545 S
C1264 C1265 1.400 . S
C1265 C1259 1.491 . S
C1265 C1264 1.400 . S
C1265 C1266 1.398 . S
C1266 H1254 0.950 . S
C1266 C1265 1.398 . S
C1266 C1267 1.391 . S
C1267 H1255 0.950 . S
C1267 C1263 1.393 1_545 S
C1267 C1266 1.391 . S
H1268 C1276 0.950 . S
H1269 C1281 0.950 . S
H1270 C1278 0.950 . S
H1271 C1280 0.950 . S
H1272 C1282 0.950 . S
H1273 C1284 0.950 . S
H1274 C1286 0.950 . S
H1275 C1287 0.950 . S
C1276 H1268 0.950 . S
C1276 C1277 1.386 . S
C1276 C1278 1.391 1_655 S
C1277 C1276 1.386 . S
C1277 C1281 1.393 1_655 S
C1278 H1270 0.950 . S
C1278 C1276 1.391 1_455 S
C1278 C1279 1.400 . S
C1279 C1278 1.400 . S
C1279 C1280 1.398 . S
C1279 C1285 1.491 . S
C1280 H1271 0.950 . S
C1280 C1279 1.398 . S
C1280 C1281 1.391 . S
C1281 H1269 0.950 . S
C1281 C1277 1.393 1_455 S
C1281 C1280 1.391 . S
C1282 H1272 0.950 . S
C1282 C1283 1.386 . S
C1282 C1284 1.391 . S
C1283 C1282 1.386 . S
C1283 C1287 1.393 . S
C1284 H1273 0.950 . S
C1284 C1282 1.391 . S
C1284 C1285 1.400 . S
C1285 C1279 1.491 . S
C1285 C1284 1.400 . S
C1285 C1286 1.398 . S
C1286 H1274 0.950 . S
C1286 C1285 1.398 . S
C1286 C1287 1.391 . S
C1287 H1275 0.950 . S
C1287 C1283 1.393 . S
C1287 C1286 1.391 . S
H1288 C1296 0.950 . S
H1289 C1301 0.950 . S
H1290 C1298 0.950 . S
H1291 C1300 0.950 . S
H1292 C1302 0.950 . S
H1293 C1304 0.950 . S
H1294 C1306 0.950 . S
H1295 C1307 0.950 . S
C1296 H1288 0.950 . S
C1296 C1297 1.386 . S
C1296 C1298 1.391 . S
C1297 C1296 1.386 . S
C1297 C1301 1.393 1_545 S
C1298 H1290 0.950 . S
C1298 C1296 1.391 . S
C1298 C1299 1.400 1_545 S
C1299 C1298 1.400 1_565 S
C1299 C1300 1.398 . S
C1299 C1305 1.491 . S
C1300 H1291 0.950 . S
C1300 C1299 1.398 . S
C1300 C1301 1.391 . S
C1301 H1289 0.950 . S
C1301 C1297 1.393 1_565 S
C1301 C1300 1.391 . S
C1302 H1292 0.950 . S
C1302 C1303 1.386 . S
C1302 C1304 1.391 . S
C1303 C1302 1.386 . S
C1303 C1307 1.393 . S
C1304 H1293 0.950 . S
C1304 C1302 1.391 . S
C1304 C1305 1.400 . S
C1305 C1299 1.491 . S
C1305 C1304 1.400 . S
C1305 C1306 1.398 . S
C1306 H1294 0.950 . S
C1306 C1305 1.398 . S
C1306 C1307 1.391 . S
C1307 H1295 0.950 . S
C1307 C1303 1.393 . S
C1307 C1306 1.391 . S
H1308 C1316 0.950 . S
H1309 C1321 0.950 . S
H1310 C1318 0.950 . S
H1311 C1320 0.947 1_455 S
H1312 C1322 0.950 . S
H1313 C1324 0.950 . S
H1314 C1326 0.950 . S
H1315 C1327 0.950 . S
C1316 H1308 0.950 . S
C1316 C1317 1.386 1_655 S
C1316 C1318 1.391 . S
C1317 C1316 1.386 1_455 S
C1317 C1321 1.393 . S
C1318 H1310 0.950 . S
C1318 C1316 1.391 . S
C1318 C1319 1.400 . S
C1319 C1318 1.400 . S
C1319 C1320 1.408 . S
C1319 C1325 1.491 . S
C1320 H1311 0.947 1_655 S
C1320 C1319 1.408 . S
C1320 C1321 1.384 1_655 S
C1321 H1309 0.950 . S
C1321 C1317 1.393 . S
C1321 C1320 1.384 1_455 S
C1322 H1312 0.950 . S
C1322 C1323 1.386 . S
C1322 C1324 1.391 . S
C1323 C1322 1.386 . S
C1323 C1327 1.393 . S
C1324 H1313 0.950 . S
C1324 C1322 1.391 . S
C1324 C1325 1.400 . S
C1325 C1319 1.491 . S
C1325 C1324 1.400 . S
C1325 C1326 1.398 . S
C1326 H1314 0.950 . S
C1326 C1325 1.398 . S
C1326 C1327 1.391 . S
C1327 H1315 0.950 . S
C1327 C1323 1.393 . S
C1327 C1326 1.391 . S
C537 N145 2.167 . S
C543 N13 2.175 . S
C557 N46 2.172 . S
C563 N178 2.172 . S
C577 N79 2.169 . S
C583 N211 2.162 . S
C597 N112 2.161 . S
C603 N244 2.173 . S
C617 N277 2.168 . S
C623 N409 2.163 . S
C637 N442 2.172 . S
C643 N310 2.171 . S
C657 N475 2.174 . S
C663 N343 2.161 . S
C677 N376 2.161 . S
C683 N508 2.174 . S
C697 C18 1.324 . S
C703 C480 1.319 . S
C717 C51 1.311 . S
C723 C513 1.313 . S
C737 C84 1.318 . S
C743 C414 1.314 . S
C757 C447 1.325 . S
C763 C117 1.331 . S
C777 C348 1.339 . S
C783 C150 1.343 . S
C797 C183 1.342 . S
C803 C381 1.345 . S
C817 C216 1.315 . S
C823 C282 1.312 . S
C837 C249 1.327 . S
C843 C315 1.321 . S
C857 C7 1.503 . S
C863 C73 1.468 . S
C877 C40 1.490 . S
C883 C106 1.468 . S
C897 C139 1.499 . S
C903 C205 1.479 . S
C917 C172 1.469 . S
C923 C238 1.503 . S
C937 C337 1.467 . S
C943 C271 1.491 . S
C957 C370 1.489 . S
C963 C304 1.469 . S
C977 C403 1.499 . S
C983 C469 1.479 . S
C997 C436 1.493 . S
C1003 C502 1.466 . S
C1017 C54 0.447 . S
C1023 N2 0.535 . S
C1037 N35 0.510 . S
C1043 C87 0.477 . S
C1057 C120 0.411 . S
C1063 N68 0.460 . S
C1077 N101 0.494 . S
C1083 C21 0.463 . S
C1097 C516 0.418 . S
C1103 N134 0.461 . S
C1117 N167 0.527 . S
C1123 C417 0.488 . S
C1137 N200 0.555 . S
C1143 C450 0.478 . S
C1157 N233 0.467 . S
C1163 C483 0.402 . S
C1177 N266 0.470 . S
C1183 C318 0.401 . S
C1197 C351 0.453 . S
C1203 N299 0.484 . S
C1217 N332 0.542 . S
C1223 C384 0.494 . S
C1237 N365 0.548 . S
C1243 C285 0.495 . S
C1257 C252 0.418 . S
C1263 N398 0.461 . S
C1277 N431 0.542 . S
C1283 C153 0.456 . S
C1297 N464 0.548 . S
C1303 C186 0.495 . S
C1317 N497 0.496 . S
C1323 C219 0.465 . S
