# Generated by pormake.
# Topology uoq, (4)-cn, num edge types: 1
# Building blocks:
#     Node 0, Type 0, BuildingBlock: KUFVIS_clean_sbu_0, # of connection points: 4
#     Node 1, Type 0, BuildingBlock: KUFVIS_clean_sbu_0, # of connection points: 4
#     Node 2, Type 0, BuildingBlock: KUFVIS_clean_sbu_0, # of connection points: 4
#     Node 3, Type 0, BuildingBlock: KUFVIS_clean_sbu_0, # of connection points: 4
#     Node 4, Type 0, BuildingBlock: KUFVIS_clean_sbu_0, # of connection points: 4
#     Node 5, Type 0, BuildingBlock: KUFVIS_clean_sbu_0, # of connection points: 4
#     Node 6, Type 0, BuildingBlock: KUFVIS_clean_sbu_0, # of connection points: 4
#     Node 7, Type 0, BuildingBlock: KUFVIS_clean_sbu_0, # of connection points: 4
#     Node 8, Type 0, BuildingBlock: KUFVIS_clean_sbu_0, # of connection points: 4
#     Node 9, Type 0, BuildingBlock: KUFVIS_clean_sbu_0, # of connection points: 4
#     Node 10, Type 0, BuildingBlock: KUFVIS_clean_sbu_0, # of connection points: 4
#     Node 11, Type 0, BuildingBlock: KUFVIS_clean_sbu_0, # of connection points: 4
#     Edge 12, Type (0, 0), BuildingBlock: CIFDUS_clean_linker_0, # of connection points: 2
#     Edge 13, Type (0, 0), BuildingBlock: CIFDUS_clean_linker_0, # of connection points: 2
#     Edge 14, Type (0, 0), BuildingBlock: CIFDUS_clean_linker_0, # of connection points: 2
#     Edge 15, Type (0, 0), BuildingBlock: CIFDUS_clean_linker_0, # of connection points: 2
#     Edge 16, Type (0, 0), BuildingBlock: CIFDUS_clean_linker_0, # of connection points: 2
#     Edge 17, Type (0, 0), BuildingBlock: CIFDUS_clean_linker_0, # of connection points: 2
#     Edge 18, Type (0, 0), BuildingBlock: CIFDUS_clean_linker_0, # of connection points: 2
#     Edge 19, Type (0, 0), BuildingBlock: CIFDUS_clean_linker_0, # of connection points: 2
#     Edge 20, Type (0, 0), BuildingBlock: CIFDUS_clean_linker_0, # of connection points: 2
#     Edge 21, Type (0, 0), BuildingBlock: CIFDUS_clean_linker_0, # of connection points: 2
#     Edge 22, Type (0, 0), BuildingBlock: CIFDUS_clean_linker_0, # of connection points: 2
#     Edge 23, Type (0, 0), BuildingBlock: CIFDUS_clean_linker_0, # of connection points: 2
#     Edge 24, Type (0, 0), BuildingBlock: CIFDUS_clean_linker_0, # of connection points: 2
#     Edge 25, Type (0, 0), BuildingBlock: CIFDUS_clean_linker_0, # of connection points: 2
#     Edge 26, Type (0, 0), BuildingBlock: CIFDUS_clean_linker_0, # of connection points: 2
#     Edge 27, Type (0, 0), BuildingBlock: CIFDUS_clean_linker_0, # of connection points: 2
#     Edge 28, Type (0, 0), BuildingBlock: CIFDUS_clean_linker_0, # of connection points: 2
#     Edge 29, Type (0, 0), BuildingBlock: CIFDUS_clean_linker_0, # of connection points: 2
#     Edge 30, Type (0, 0), BuildingBlock: CIFDUS_clean_linker_0, # of connection points: 2
#     Edge 31, Type (0, 0), BuildingBlock: CIFDUS_clean_linker_0, # of connection points: 2
#     Edge 32, Type (0, 0), BuildingBlock: CIFDUS_clean_linker_0, # of connection points: 2
#     Edge 33, Type (0, 0), BuildingBlock: CIFDUS_clean_linker_0, # of connection points: 2
#     Edge 34, Type (0, 0), BuildingBlock: CIFDUS_clean_linker_0, # of connection points: 2
#     Edge 35, Type (0, 0), BuildingBlock: CIFDUS_clean_linker_0, # of connection points: 2
# Relax obj value: 0.142
# Max RMSD: 0.133
# Mean RMSD: 0.133
data_MOF--net-uoq--node1-KUFVIS_clean_sbu_0--edge1-CIFDUS_clean_linker_0
_symmetry_space_group_name_H-M    P1
_symmetry_Int_Tables_number       1
_symmetry_cell_setting            triclinic
loop_
_symmetry_equiv_pos_as_xyz
'x, y, z'
_cell_length_a     52.13896
_cell_length_b     52.178337
_cell_length_c     18.881695
_cell_angle_alpha  89.862466
_cell_angle_beta   90.095859
_cell_angle_gamma 119.8677
loop_
_atom_site_label
_atom_site_type_symbol
_atom_site_fract_x
_atom_site_fract_y
_atom_site_fract_z
_atom_type_partial_charge
Mn0 Mn 0.29708 0.4448 0.28 0.0
Mn1 Mn 0.31635 0.44385 0.45194 0.0
C2 C 0.28499 0.46747 0.36873 0.0
C3 C 0.2618 0.4271 0.18693 0.0
C4 C 0.35897 0.48547 0.34256 0.0
O5 O 0.30669 0.41077 0.28006 0.0
O6 O 0.31975 0.41432 0.39519 0.0
C7 C 0.26749 0.38444 0.49121 0.0
N8 N 0.28332 0.41408 0.50326 0.0
C9 C 0.25726 0.4089 0.61223 0.0
C10 C 0.24076 0.3783 0.60113 0.0
C11 C 0.24575 0.36605 0.54009 0.0
C12 C 0.27837 0.42614 0.56126 0.0
H13 H 0.27155 0.37488 0.4449 0.0
C14 C 0.31579 0.40246 0.33415 0.0
O15 O 0.28992 0.4435 0.17424 0.0
O16 O 0.25475 0.41847 0.2519 0.0
N17 N 0.31377 0.47135 0.5143 0.0
C18 C 0.33043 0.50139 0.5151 0.0
C19 C 0.32696 0.51724 0.57069 0.0
C20 C 0.30682 0.50202 0.62553 0.0
C21 C 0.29026 0.47107 0.62416 0.0
C22 C 0.2945 0.45649 0.56711 0.0
H23 H 0.34608 0.51317 0.47334 0.0
O24 O 0.28654 0.47597 0.30362 0.0
O25 O 0.29069 0.44636 0.38021 0.0
O26 O 0.34162 0.47552 0.28897 0.0
O27 O 0.35138 0.47528 0.40513 0.0
C28 C 0.26951 0.45413 0.6768 0.0
C29 C 0.25312 0.42305 0.67102 0.0
H30 H 0.224 0.36404 0.63874 0.0
H31 H 0.23303 0.34247 0.53102 0.0
H32 H 0.33985 0.54113 0.57141 0.0
H33 H 0.30419 0.51433 0.66828 0.0
H34 H 0.26572 0.46478 0.72152 0.0
H35 H 0.23692 0.41031 0.71128 0.0
Mn36 Mn 0.84792 0.29361 0.63033 0.0
Mn37 Mn 0.86888 0.31451 0.8011 0.0
C38 C 0.81355 0.28277 0.71958 0.0
C39 C 0.83077 0.25807 0.53838 0.0
C40 C 0.86947 0.35608 0.689 0.0
O41 O 0.89139 0.30298 0.62991 0.0
O42 O 0.90143 0.31719 0.74402 0.0
C43 C 0.87931 0.26566 0.84263 0.0
N44 N 0.86581 0.28188 0.85421 0.0
C45 C 0.8456 0.25696 0.96482 0.0
C46 C 0.85936 0.24004 0.95419 0.0
C47 C 0.87611 0.24427 0.89258 0.0
C48 C 0.84927 0.27767 0.91275 0.0
H49 H 0.89255 0.26914 0.79586 0.0
C50 C 0.90905 0.31264 0.68325 0.0
O51 O 0.84233 0.2861 0.52494 0.0
O52 O 0.8319 0.25114 0.60382 0.0
N53 N 0.83939 0.31288 0.86412 0.0
C54 C 0.82642 0.32999 0.86465 0.0
C55 C 0.80777 0.32745 0.92108 0.0
C56 C 0.80314 0.30781 0.97704 0.0
C57 C 0.81717 0.29083 0.976 0.0
C58 C 0.83534 0.29416 0.91812 0.0
H59 H 0.83011 0.3453 0.82208 0.0
O60 O 0.80638 0.28357 0.65421 0.0
O61 O 0.84028 0.28821 0.73103 0.0
O62 O 0.86181 0.33815 0.63672 0.0
O63 O 0.87229 0.34916 0.75217 0.0
C64 C 0.81363 0.27054 0.02979 0.0
C65 C 0.82791 0.25369 1.02432 0.0
H66 H 0.857 0.22357 0.99266 0.0
H67 H 0.88672 0.23124 0.8839 0.0
H68 H 0.79707 0.34068 0.92158 0.0
H69 H 0.78872 0.30589 1.02042 0.0
H70 H 0.79967 0.26745 0.07514 0.0
H71 H 0.82465 0.23784 0.06547 0.0
Mn72 Mn 0.55698 0.85255 0.94119 0.0
Mn73 Mn 0.5588 0.87122 0.11441 0.0
C74 C 0.53844 0.81737 0.03062 0.0
C75 C 0.57544 0.83757 0.84482 0.0
C76 C 0.51446 0.87024 1.00943 0.0
O77 O 0.58868 0.89701 0.94089 0.0
O78 O 0.58691 0.905 0.0579 0.0
C79 C 0.6193 0.88303 0.14747 0.0
N80 N 0.58979 0.86851 0.1618 0.0
C81 C 0.5968 0.84545 0.26488 0.0
C82 C 0.62729 0.86023 0.25135 0.0
C83 C 0.63856 0.87897 0.19217 0.0
C84 C 0.57867 0.85008 0.21798 0.0
H85 H 0.62808 0.89762 0.10236 0.0
C86 C 0.59747 0.91378 0.99597 0.0
O87 O 0.55716 0.84738 0.83505 0.0
O88 O 0.58541 0.83975 0.9087 0.0
N89 N 0.53255 0.83999 0.17621 0.0
C90 C 0.50249 0.82637 0.18001 0.0
C91 C 0.48766 0.80658 0.23572 0.0
C92 C 0.50389 0.80134 0.28751 0.0
C93 C 0.53481 0.81576 0.2828 0.0
C94 C 0.54837 0.83521 0.22603 0.0
H95 H 0.48993 0.83058 0.14086 0.0
O96 O 0.52894 0.80989 0.96635 0.0
O97 O 0.55752 0.84482 0.04049 0.0
O98 O 0.52399 0.86303 0.95484 0.0
O99 O 0.52601 0.87387 0.07085 0.0
C100 C 0.55269 0.81133 0.33173 0.0
C101 C 0.58365 0.82599 0.32248 0.0
H102 H 0.64222 0.85723 0.2858 0.0
H103 H 0.66205 0.89038 0.18126 0.0
H104 H 0.46378 0.79548 0.2389 0.0
H105 H 0.49237 0.78598 0.33025 0.0
H106 H 0.54282 0.79628 0.37593 0.0
H107 H 0.5971 0.82198 0.35969 0.0
Mn108 Mn 0.70101 0.55446 0.27276 0.0
Mn109 Mn 0.68278 0.5563 0.44476 0.0
C110 C 0.71691 0.53576 0.36377 0.0
C111 C 0.73504 0.57295 0.17756 0.0
C112 C 0.64017 0.51227 0.33858 0.0
O113 O 0.6887 0.58653 0.27093 0.0
O114 O 0.67783 0.58481 0.38729 0.0
C115 C 0.73136 0.61652 0.47903 0.0
N116 N 0.7162 0.58699 0.49313 0.0
C117 C 0.74587 0.59347 0.59657 0.0
C118 C 0.76172 0.62396 0.58331 0.0
C119 C 0.75453 0.6355 0.52407 0.0
C120 C 0.72322 0.57561 0.5494 0.0
H121 H 0.72581 0.62551 0.43381 0.0
C122 C 0.68043 0.59553 0.32512 0.0
O123 O 0.70707 0.55477 0.16694 0.0
O124 O 0.74247 0.58266 0.24167 0.0
N125 N 0.68718 0.52976 0.5072 0.0
C126 C 0.6707 0.49973 0.51062 0.0
C127 C 0.67542 0.48465 0.56632 0.0
C128 C 0.69673 0.50061 0.61838 0.0
C129 C 0.71333 0.53151 0.61397 0.0
C130 C 0.70765 0.54533 0.55726 0.0
H131 H 0.65411 0.48736 0.47115 0.0
O132 O 0.7153 0.5262 0.29971 0.0
O133 O 0.70842 0.55486 0.37242 0.0
O134 O 0.65742 0.52176 0.28481 0.0
O135 O 0.64758 0.52375 0.40013 0.0
C136 C 0.73555 0.54912 0.66308 0.0
C137 C 0.75194 0.58006 0.65413 0.0
H138 H 0.77957 0.63869 0.61798 0.0
H139 H 0.76673 0.659 0.51334 0.0
H140 H 0.66259 0.46079 0.56923 0.0
H141 H 0.70039 0.48889 0.66108 0.0
H142 H 0.74057 0.53904 0.70722 0.0
H143 H 0.76933 0.5933 0.6915 0.0
Mn144 Mn 0.14674 0.69601 0.6276 0.0
Mn145 Mn 0.12481 0.68631 0.8004 0.0
C146 C 0.1804 0.71701 0.71968 0.0
C147 C 0.16116 0.72361 0.52012 0.0
C148 C 0.12924 0.63957 0.71584 0.0
O149 O 0.10215 0.68232 0.61915 0.0
O150 O 0.09186 0.67687 0.73603 0.0
C151 C 0.1105 0.73454 0.80751 0.0
N152 N 0.12512 0.72103 0.83361 0.0
C153 C 0.14412 0.7549 0.93157 0.0
C154 C 0.12917 0.76913 0.90587 0.0
C155 C 0.11243 0.759 0.84336 0.0
C156 C 0.14163 0.73085 0.89314 0.0
H157 H 0.09742 0.72668 0.7598 0.0
C158 C 0.08418 0.67591 0.67149 0.0
O159 O 0.15244 0.69557 0.52192 0.0
O160 O 0.15937 0.73511 0.5794 0.0
N161 N 0.15459 0.69494 0.87048 0.0
C162 C 0.16872 0.67962 0.88643 0.0
C163 C 0.18661 0.68712 0.94717 0.0
C164 C 0.18945 0.71 0.99143 0.0
C165 C 0.17446 0.72526 0.97437 0.0
C166 C 0.15691 0.71675 0.91324 0.0
H167 H 0.16647 0.66191 0.85291 0.0
O168 O 0.18908 0.71253 0.65895 0.0
O169 O 0.15272 0.7089 0.72505 0.0
O170 O 0.13673 0.65366 0.65686 0.0
O171 O 0.12442 0.64994 0.77218 0.0
C172 C 0.17665 0.7489 1.01497 0.0
C173 C 0.16168 0.76386 0.99326 0.0
H174 H 0.13054 0.78794 0.93347 0.0
H175 H 0.1009 0.76991 0.82309 0.0
H176 H 0.19817 0.6753 0.95985 0.0
H177 H 0.20344 0.71587 0.03793 0.0
H178 H 0.19023 0.7561 0.06225 0.0
H179 H 0.16398 0.78236 1.02416 0.0
Mn180 Mn 0.44009 0.14344 0.9463 0.0
Mn181 Mn 0.43626 0.12512 0.12105 0.0
C182 C 0.45615 0.17883 0.03569 0.0
C183 C 0.42366 0.15612 0.84138 0.0
C184 C 0.48275 0.12742 1.02222 0.0
O185 O 0.40915 0.09859 0.94582 0.0
O186 O 0.41009 0.0909 0.06329 0.0
C187 C 0.37446 0.11097 0.14591 0.0
N188 N 0.40363 0.12624 0.16378 0.0
C189 C 0.39345 0.14758 0.26519 0.0
C190 C 0.36328 0.13203 0.24799 0.0
C191 C 0.35378 0.11379 0.18784 0.0
C192 C 0.41306 0.14424 0.22079 0.0
H193 H 0.36704 0.09671 0.10012 0.0
C194 C 0.40037 0.08177 1.001 0.0
O195 O 0.44256 0.14686 0.8401 0.0
O196 O 0.41225 0.15562 0.90283 0.0
N197 N 0.46048 0.15645 0.18476 0.0
C198 C 0.49042 0.17059 0.19282 0.0
C199 C 0.50355 0.18971 0.25051 0.0
C200 C 0.48575 0.19369 0.29999 0.0
C201 C 0.45497 0.17867 0.29104 0.0
C202 C 0.44315 0.15992 0.2325 0.0
H203 H 0.50418 0.16725 0.15562 0.0
O204 O 0.46675 0.18641 0.97215 0.0
O205 O 0.43738 0.15123 0.0452 0.0
O206 O 0.47322 0.1339 0.96651 0.0
O207 O 0.47076 0.12393 0.08293 0.0
C208 C 0.43557 0.18177 0.33754 0.0
C209 C 0.40486 0.16646 0.32424 0.0
H210 H 0.34724 0.13402 0.2804 0.0
H211 H 0.33054 0.10177 0.17412 0.0
H212 H 0.52733 0.20124 0.25702 0.0
H213 H 0.49596 0.20853 0.34428 0.0
H214 H 0.44409 0.19628 0.38299 0.0
H215 H 0.39023 0.16945 0.35962 0.0
Mn216 Mn 0.55147 0.70019 0.4271 0.0
Mn217 Mn 0.55153 0.68012 0.25568 0.0
C218 C 0.52816 0.7117 0.3382 0.0
C219 C 0.57036 0.7359 0.51885 0.0
C220 C 0.51081 0.63791 0.36713 0.0
O221 O 0.5856 0.6908 0.42656 0.0
O222 O 0.58188 0.67771 0.31157 0.0
C223 C 0.6103 0.72921 0.21305 0.0
N224 N 0.58054 0.71299 0.2025 0.0
C225 C 0.58436 0.73793 0.09231 0.0
C226 C 0.61506 0.75482 0.10184 0.0
C227 C 0.62804 0.75059 0.16275 0.0
C228 C 0.56777 0.71721 0.14466 0.0
H229 H 0.62042 0.72571 0.25922 0.0
C230 C 0.59404 0.68201 0.37239 0.0
O231 O 0.5538 0.7079 0.53263 0.0
O232 O 0.57814 0.74261 0.45332 0.0
N233 N 0.52318 0.68178 0.19419 0.0
C234 C 0.49314 0.66473 0.1948 0.0
C235 C 0.4766 0.66744 0.13949 0.0
C236 C 0.49112 0.68722 0.08352 0.0
C237 C 0.52208 0.70419 0.08348 0.0
C238 C 0.53737 0.70072 0.14032 0.0
H239 H 0.4819 0.64933 0.23739 0.0
O240 O 0.52013 0.71068 0.40352 0.0
O241 O 0.54916 0.70587 0.32685 0.0
O242 O 0.52068 0.65561 0.42002 0.0
O243 O 0.52088 0.6452 0.3044 0.0
C244 C 0.53835 0.72459 0.02957 0.0
C245 C 0.56948 0.74135 0.0338 0.0
H246 H 0.62883 0.77131 0.06313 0.0
H247 H 0.65171 0.76362 0.17062 0.0
H248 H 0.45271 0.65424 0.13984 0.0
H249 H 0.47828 0.68925 0.04097 0.0
H250 H 0.52714 0.7278 0.98501 0.0
H251 H 0.58171 0.75725 0.99254 0.0
Mn252 Mn 0.84871 0.55037 0.75989 0.0
Mn253 Mn 0.86808 0.54905 0.58848 0.0
C254 C 0.81354 0.52741 0.67194 0.0
C255 C 0.83274 0.56999 0.85169 0.0
C256 C 0.86871 0.50818 0.70089 0.0
O257 O 0.8925 0.58355 0.75839 0.0
O258 O 0.90148 0.57866 0.64382 0.0
C259 C 0.87949 0.60848 0.54566 0.0
N260 N 0.8652 0.57871 0.53527 0.0
C261 C 0.84397 0.58333 0.42605 0.0
C262 C 0.85852 0.61405 0.43547 0.0
C263 C 0.87618 0.62665 0.49579 0.0
C264 C 0.84779 0.56633 0.478 0.0
H265 H 0.89344 0.61828 0.59139 0.0
C266 C 0.90976 0.59092 0.70435 0.0
O267 O 0.84379 0.55303 0.86537 0.0
O268 O 0.83385 0.57785 0.78613 0.0
N269 N 0.83759 0.52131 0.5274 0.0
C270 C 0.82406 0.49125 0.52787 0.0
C271 C 0.80452 0.47512 0.47283 0.0
C272 C 0.79955 0.49007 0.41723 0.0
C273 C 0.81413 0.52104 0.41724 0.0
C274 C 0.83318 0.53591 0.47377 0.0
H275 H 0.82802 0.47967 0.57012 0.0
O276 O 0.80668 0.51973 0.73752 0.0
O277 O 0.84046 0.54793 0.6597 0.0
O278 O 0.8616 0.51888 0.75339 0.0
O279 O 0.87124 0.5177 0.63759 0.0
C280 C 0.81035 0.53773 0.36368 0.0
C281 C 0.82534 0.56886 0.36793 0.0
H282 H 0.85607 0.62815 0.39706 0.0
H283 H 0.88741 0.65033 0.50354 0.0
H284 H 0.7934 0.45122 0.47311 0.0
H285 H 0.78445 0.47755 0.37492 0.0
H286 H 0.7957 0.52685 0.31938 0.0
H287 H 0.82192 0.58142 0.32695 0.0
Mn288 Mn 0.30017 0.84798 0.11733 0.0
Mn289 Mn 0.31612 0.86591 0.94276 0.0
C290 C 0.28496 0.81205 0.02986 0.0
C291 C 0.2691 0.83374 0.21884 0.0
C292 C 0.36042 0.86694 0.04701 0.0
O293 O 0.31053 0.8919 0.11526 0.0
O294 O 0.32143 0.89962 0.99889 0.0
C295 C 0.26774 0.87809 0.90826 0.0
N296 N 0.28277 0.86352 0.89452 0.0
C297 C 0.25637 0.84436 0.78511 0.0
C298 C 0.24063 0.85919 0.79802 0.0
C299 C 0.24616 0.87592 0.86017 0.0
C300 C 0.2772 0.8469 0.8356 0.0
H301 H 0.27238 0.89148 0.9552 0.0
C302 C 0.31889 0.90856 0.05986 0.0
O303 O 0.29753 0.84502 0.22374 0.0
O304 O 0.25892 0.83304 0.15568 0.0
N305 N 0.31176 0.83521 0.88024 0.0
C306 C 0.32788 0.8212 0.87745 0.0
C307 C 0.32378 0.80223 0.82056 0.0
C308 C 0.30374 0.79847 0.76627 0.0
C309 C 0.28786 0.81362 0.76953 0.0
C310 C 0.29258 0.8319 0.82801 0.0
H311 H 0.34366 0.8244 0.91847 0.0
O312 O 0.28799 0.8057 0.09467 0.0
O313 O 0.29111 0.83893 1.01766 0.0
O314 O 0.34416 0.86064 0.10219 0.0
O315 O 0.3517 0.86887 0.98527 0.0
C316 C 0.26743 0.81119 0.71728 0.0
C317 C 0.25179 0.82665 0.72489 0.0
H318 H 0.22408 0.85769 0.76088 0.0
H319 H 0.23406 0.88738 0.87056 0.0
H320 H 0.33621 0.79071 0.81827 0.0
H321 H 0.3007 0.78389 0.72238 0.0
H322 H 0.26331 0.79721 0.67144 0.0
H323 H 0.23582 0.82425 0.68491 0.0
Mn324 Mn 0.44665 0.29848 0.43735 0.0
Mn325 Mn 0.44452 0.31607 0.26397 0.0
C326 C 0.46672 0.28334 0.34773 0.0
C327 C 0.42906 0.26706 0.53842 0.0
C328 C 0.48828 0.35916 0.36916 0.0
O329 O 0.41373 0.30973 0.43749 0.0
O330 O 0.4161 0.32106 0.32145 0.0
C331 C 0.38406 0.26812 0.22887 0.0
N332 N 0.4136 0.28319 0.21488 0.0
C333 C 0.40642 0.2571 0.10513 0.0
C334 C 0.3759 0.24134 0.11826 0.0
C335 C 0.36471 0.24671 0.18068 0.0
C336 C 0.42465 0.2778 0.15564 0.0
H337 H 0.37532 0.27258 0.27614 0.0
C338 C 0.40501 0.31825 0.38309 0.0
O339 O 0.44696 0.29529 0.54354 0.0
O340 O 0.41964 0.25721 0.47506 0.0
N341 N 0.47081 0.31207 0.20031 0.0
C342 C 0.5009 0.32816 0.19729 0.0
C343 C 0.51574 0.32433 0.13987 0.0
C344 C 0.49949 0.30452 0.08539 0.0
C345 C 0.46852 0.28863 0.08897 0.0
C346 C 0.45497 0.29315 0.14784 0.0
H347 H 0.51346 0.34369 0.23856 0.0
O348 O 0.47604 0.28547 0.4124 0.0
O349 O 0.44634 0.29017 0.33706 0.0
O350 O 0.47851 0.34227 0.42341 0.0
O351 O 0.47722 0.35127 0.3075 0.0
C352 C 0.45057 0.26832 0.03671 0.0
C353 C 0.41953 0.25264 0.04465 0.0
H354 H 0.36089 0.2249 0.08109 0.0
H355 H 0.3412 0.23459 0.19127 0.0
H356 H 0.53964 0.33674 0.13738 0.0
H357 H 0.51102 0.30164 0.04117 0.0
H358 H 0.46041 0.26432 0.99062 0.0
H359 H 0.406 0.23677 1.00465 0.0
Mn360 Mn 0.14507 0.44481 0.7637 0.0
Mn361 Mn 0.12377 0.43635 0.5911 0.0
C362 C 0.17899 0.46001 0.67205 0.0
C363 C 0.16131 0.42866 0.86307 0.0
C364 C 0.12674 0.48499 0.68434 0.0
O365 O 0.10064 0.41339 0.76989 0.0
O366 O 0.0907 0.41049 0.65279 0.0
C367 C 0.1113 0.37482 0.57242 0.0
N368 N 0.12568 0.40365 0.55157 0.0
C369 C 0.14745 0.39272 0.45217 0.0
C370 C 0.13279 0.36289 0.47245 0.0
C371 C 0.11476 0.35394 0.53303 0.0
C372 C 0.14336 0.41256 0.49385 0.0
H373 H 0.09728 0.36782 0.6187 0.0
C374 C 0.08295 0.40244 0.71678 0.0
O375 O 0.15222 0.44765 0.87003 0.0
O376 O 0.15786 0.417 0.80098 0.0
N377 N 0.15412 0.46007 0.52447 0.0
C378 C 0.16797 0.48987 0.51429 0.0
C379 C 0.18724 0.50251 0.45656 0.0
C380 C 0.19179 0.48437 0.40941 0.0
C381 C 0.17717 0.45375 0.4207 0.0
C382 C 0.15821 0.44241 0.47911 0.0
H383 H 0.16445 0.50391 0.5501 0.0
O384 O 0.18736 0.47172 0.7342 0.0
O385 O 0.1514 0.44061 0.6653 0.0
O386 O 0.13469 0.47773 0.74196 0.0
O387 O 0.12195 0.47068 0.6265 0.0
C388 C 0.18103 0.43409 0.37693 0.0
C389 C 0.16634 0.40362 0.39292 0.0
H390 H 0.13538 0.34671 0.4422 0.0
H391 H 0.10345 0.33098 0.54916 0.0
H392 H 0.19854 0.52618 0.44838 0.0
H393 H 0.20681 0.49422 0.3652 0.0
H394 H 0.19569 0.44225 0.33162 0.0
H395 H 0.16993 0.38881 0.35965 0.0
Mn396 Mn 0.69742 0.14643 0.11679 0.0
Mn397 Mn 0.67889 0.1293 0.94375 0.0
C398 C 0.71362 0.18244 0.02878 0.0
C399 C 0.73177 0.16024 0.21111 0.0
C400 C 0.63647 0.12909 0.05342 0.0
O401 O 0.6849 0.10199 0.11353 0.0
O402 O 0.67432 0.09504 0.99665 0.0
C403 C 0.72752 0.11836 0.90344 0.0
N404 N 0.71222 0.13292 0.89289 0.0
C405 C 0.74115 0.15749 0.78962 0.0
C406 C 0.75717 0.1427 0.79927 0.0
C407 C 0.75043 0.1232 0.85668 0.0
C408 C 0.71885 0.15211 0.83854 0.0
H409 H 0.72225 0.10316 0.94713 0.0
C410 C 0.67684 0.08578 0.05747 0.0
O411 O 0.70387 0.15057 0.22275 0.0
O412 O 0.73889 0.15871 0.14621 0.0
N413 N 0.68295 0.16123 0.88565 0.0
C414 C 0.6664 0.17481 0.88584 0.0
C415 C 0.6707 0.19536 0.83244 0.0
C416 C 0.69163 0.2014 0.77886 0.0
C417 C 0.70832 0.18705 0.77957 0.0
C418 C 0.70314 0.16687 0.83427 0.0
H419 H 0.64998 0.16994 0.92629 0.0
O420 O 0.71215 0.18945 0.09385 0.0
O421 O 0.70457 0.15493 1.01767 0.0
O422 O 0.65386 0.13625 0.10686 0.0
O423 O 0.64379 0.12576 0.99108 0.0
C424 C 0.73015 0.19227 0.72868 0.0
C425 C 0.74668 0.17763 0.73395 0.0
H426 H 0.77478 0.14629 0.76317 0.0
H427 H 0.76275 0.11177 0.8646 0.0
H428 H 0.65779 0.2064 0.83234 0.0
H429 H 0.69492 0.2173 0.73784 0.0
H430 H 0.73478 0.2079 0.68601 0.0
H431 H 0.76378 0.18224 0.6953 0.0
H432 H 0.32504 0.37426 0.44343 0.0
H433 H 0.32662 0.37878 0.21471 0.0
H434 H 0.35062 0.34859 0.21149 0.0
H435 H 0.37684 0.32744 0.27356 0.0
H436 H 0.38054 0.32826 0.50238 0.0
H437 H 0.34825 0.34996 0.50552 0.0
C438 C 0.33038 0.36857 0.39245 0.0
C439 C 0.32455 0.37941 0.32911 0.0
C440 C 0.34534 0.35253 0.3913 0.0
C441 C 0.33096 0.37099 0.26404 0.0
C442 C 0.34488 0.35392 0.26236 0.0
C443 C 0.37061 0.33217 0.32457 0.0
C444 C 0.38177 0.32677 0.38797 0.0
C445 C 0.35315 0.34564 0.32572 0.0
C446 C 0.37259 0.33237 0.45301 0.0
C447 C 0.35425 0.3449 0.45465 0.0
H448 H 0.94808 0.32611 0.79108 0.0
H449 H 0.9419 0.31951 0.56276 0.0
H450 H 0.9959 0.34316 0.55563 0.0
H451 H 0.04398 0.37104 0.61286 0.0
H452 H 0.05014 0.38294 0.84008 0.0
H453 H 0.9963 0.35134 0.84896 0.0
C454 C 0.95834 0.3296 0.73937 0.0
C455 C 0.94082 0.32153 0.67714 0.0
C456 C 0.98924 0.34437 0.73569 0.0
C457 C 0.9547 0.32561 0.61125 0.0
C458 C 0.98558 0.33932 0.60729 0.0
C459 C 0.03379 0.36679 0.66478 0.0
C460 C 0.05121 0.38001 0.7259 0.0
C461 C 0.00297 0.34971 0.669 0.0
C462 C 0.03739 0.37338 0.79234 0.0
C463 C 0.00662 0.35542 0.79725 0.0
H464 H 0.62678 0.94998 0.10563 0.0
H465 H 0.61777 0.94992 0.87793 0.0
H466 H 0.64597 0.00411 0.87814 0.0
H467 H 0.66645 0.05021 0.94395 0.0
H468 H 0.66956 0.04997 0.1729 0.0
H469 H 0.65004 0.99639 0.17106 0.0
C470 C 0.63101 0.96164 0.05557 0.0
C471 C 0.6195 0.94577 0.99165 0.0
C472 C 0.64572 0.99253 0.05667 0.0
C473 C 0.62612 0.96144 0.92765 0.0
C474 C 0.64201 0.99239 0.92799 0.0
C475 C 0.66301 0.03869 0.99397 0.0
C476 C 0.6689 0.0542 0.05896 0.0
C477 C 0.6508 0.008 0.99244 0.0
C478 C 0.66497 0.0387 0.12244 0.0
C479 C 0.65374 0.00808 0.12125 0.0
H480 H 0.67247 0.62479 0.43342 0.0
H481 H 0.66907 0.61861 0.20491 0.0
H482 H 0.64658 0.65017 0.20093 0.0
H483 H 0.62195 0.67292 0.26273 0.0
H484 H 0.61955 0.67324 0.4916 0.0
H485 H 0.65106 0.65069 0.49496 0.0
C486 C 0.66701 0.63033 0.38229 0.0
C487 C 0.67183 0.61864 0.3193 0.0
C488 C 0.65297 0.64723 0.38078 0.0
C489 C 0.66537 0.62698 0.25399 0.0
C490 C 0.65238 0.64488 0.25189 0.0
C491 C 0.62837 0.6683 0.31376 0.0
C492 C 0.61772 0.67416 0.37716 0.0
C493 C 0.64511 0.65409 0.31507 0.0
C494 C 0.62713 0.66877 0.44226 0.0
C495 C 0.64496 0.6557 0.44403 0.0
H496 H 0.94906 0.61274 0.59589 0.0
H497 H 0.94278 0.61956 0.82276 0.0
H498 H 0.99673 0.65043 0.82917 0.0
H499 H 0.04488 0.67013 0.77268 0.0
H500 H 0.05128 0.65854 0.54795 0.0
H501 H 0.99728 0.63483 0.53835 0.0
C502 C 0.95925 0.62098 0.64713 0.0
C503 C 0.94171 0.61328 0.70928 0.0
C504 C 0.99013 0.63761 0.65062 0.0
C505 C 0.95558 0.62488 0.77439 0.0
C506 C 0.98642 0.6424 0.77797 0.0
C507 C 0.03469 0.66256 0.72114 0.0
C508 C 0.05225 0.66562 0.66105 0.0
C509 C 0.00383 0.64803 0.71673 0.0
C510 C 0.03843 0.65632 0.59493 0.0
C511 C 0.00758 0.64264 0.58965 0.0
H512 H 0.32955 0.94494 0.94735 0.0
H513 H 0.32775 0.94421 0.17638 0.0
H514 H 0.3489 -0.00194 0.17578 0.0
H515 H 0.37265 0.04477 0.11114 0.0
H516 H 0.37975 0.04571 0.88285 0.0
H517 H 0.35099 0.99151 0.88243 0.0
C518 C 0.33362 0.95631 0.99766 0.0
C519 C 0.32752 0.94038 0.06228 0.0
C520 C 0.34678 0.98714 0.99678 0.0
C521 C 0.33236 0.95575 0.12617 0.0
C522 C 0.34457 0.98653 0.12567 0.0
C523 C 0.36796 0.03334 0.06077 0.0
C524 C 0.37899 0.0495 0.99682 0.0
C525 C 0.35267 0.00241 0.06136 0.0
C526 C 0.37181 0.03402 0.93261 0.0
C527 C 0.35553 0.00305 0.93256 0.0
H528 H 0.15727 0.42603 1.00977 0.0
H529 H 0.20982 0.42437 0.83569 0.0
H530 H 0.2454 0.42347 0.9182 0.0
H531 H 0.26329 0.42539 0.0409 0.0
H532 H 0.20816 0.42145 0.2152 0.0
H533 H 0.1723 0.422 0.13278 0.0
C534 C 0.17635 0.42518 0.99008 0.0
C535 C 0.18077 0.42536 0.91638 0.0
C536 C 0.19651 0.42367 0.03825 0.0
C537 C 0.20562 0.42404 0.89198 0.0
C538 C 0.22617 0.42366 0.93926 0.0
C539 C 0.24324 0.42424 0.06074 0.0
C540 C 0.23863 0.42344 0.13443 0.0
C541 C 0.22207 0.42374 1.01264 0.0
C542 C 0.21234 0.42185 0.15892 0.0
C543 C 0.19179 0.42236 0.11167 0.0
H544 H 0.83696 0.25874 0.39323 0.0
H545 H 0.78164 0.20539 0.56499 0.0
H546 H 0.74631 0.16987 0.48073 0.0
H547 H 0.72907 0.15538 0.35689 0.0
H548 H 0.78682 0.20609 0.18556 0.0
H549 H 0.82293 0.2406 0.26995 0.0
C550 C 0.8174 0.23911 0.41213 0.0
C551 C 0.81204 0.2349 0.48556 0.0
C552 C 0.79735 0.21816 0.36309 0.0
C553 C 0.78656 0.20918 0.50895 0.0
C554 C 0.76615 0.18886 0.46065 0.0
C555 C 0.74977 0.1737 0.33818 0.0
C556 C 0.75505 0.17803 0.26473 0.0
C557 C 0.77101 0.19329 0.38742 0.0
C558 C 0.78214 0.20193 0.24162 0.0
C559 C 0.80282 0.22191 0.28998 0.0
H560 H 0.57519 0.84095 0.69878 0.0
H561 H 0.58379 0.7911 0.87041 0.0
H562 H 0.58329 0.75532 0.78662 0.0
H563 H 0.57724 0.73603 0.66395 0.0
H564 H 0.57395 0.78861 0.4915 0.0
H565 H 0.57575 0.8251 0.57509 0.0
C566 C 0.57743 0.82252 0.71765 0.0
C567 C 0.57949 0.81886 0.79106 0.0
C568 C 0.5779 0.8022 0.66868 0.0
C569 C 0.58245 0.79478 0.81435 0.0
C570 C 0.58195 0.77407 0.76635 0.0
C571 C 0.57732 0.75567 0.64474 0.0
C572 C 0.57534 0.75938 0.57133 0.0
C573 C 0.57924 0.77723 0.69334 0.0
C574 C 0.57565 0.78515 0.54752 0.0
C575 C 0.57652 0.80605 0.59546 0.0
H576 H 0.73235 0.57452 0.03172 0.0
H577 H 0.78944 0.58033 0.2038 0.0
H578 H 0.82509 0.58046 0.11996 0.0
H579 H 0.8389 0.5756 0.99694 0.0
H580 H 0.78436 0.57503 0.8244 0.0
H581 H 0.74947 0.57645 0.90812 0.0
C582 C 0.75281 0.57629 0.05069 0.0
C583 C 0.75805 0.57735 0.12418 0.0
C584 C 0.77381 0.57715 1.00176 0.0
C585 C 0.78482 0.57974 0.14767 0.0
C586 C 0.80523 0.57962 0.09964 0.0
C587 C 0.81961 0.57624 0.97776 0.0
C588 C 0.81434 0.57512 0.90427 0.0
C589 C 0.79982 0.57787 0.02648 0.0
C590 C 0.78922 0.5761 0.8805 0.0
C591 C 0.76905 0.57672 0.92849 0.0
H592 H 0.2068 0.78068 0.51477 0.0
H593 H 0.149 0.70779 0.38067 0.0
H594 H 0.17509 0.7366 0.27544 0.0
H595 H 0.21654 0.78158 0.22129 0.0
H596 H 0.278 0.85176 0.35683 0.0
H597 H 0.24848 0.82537 0.46086 0.0
C598 C 0.19963 0.77126 0.46242 0.0
C599 C 0.17559 0.74214 0.45581 0.0
C600 C 0.21562 0.78759 0.40208 0.0
C601 C 0.1672 0.73012 0.3875 0.0
C602 C 0.1822 0.74662 0.3272 0.0
C603 C 0.22316 0.79132 0.27352 0.0
C604 C 0.24927 0.81897 0.28095 0.0
C605 C 0.20672 0.77527 0.33373 0.0
C606 C 0.25794 0.83076 0.34936 0.0
C607 C 0.24106 0.81557 0.40899 0.0
H608 H 0.41691 0.20486 0.83631 0.0
H609 H 0.42164 0.14058 0.70257 0.0
H610 H 0.42029 0.16727 0.59694 0.0
H611 H 0.42181 0.21128 0.54199 0.0
H612 H 0.4232 0.27853 0.67655 0.0
H613 H 0.41795 0.24857 0.78142 0.0
C614 C 0.41701 0.19637 0.784 0.0
C615 C 0.41887 0.17037 0.77759 0.0
C616 C 0.4176 0.21268 0.72323 0.0
C617 C 0.41991 0.16028 0.70923 0.0
C618 C 0.41926 0.17566 0.64869 0.0
C619 C 0.42041 0.21911 0.59421 0.0
C620 C 0.42251 0.24705 0.60108 0.0
C621 C 0.41865 0.20221 0.65487 0.0
C622 C 0.42144 0.25711 0.66947 0.0
C623 C 0.41852 0.23997 0.72962 0.0
H624 H 0.2254 0.50602 0.60359 0.0
H625 H 0.17891 0.4114 0.63297 0.0
H626 H 0.20573 0.40569 0.53534 0.0
H627 H 0.24046 0.42669 0.44041 0.0
H628 H 0.29094 0.5209 0.41019 0.0
H629 H 0.26375 0.52798 0.50817 0.0
C630 C 0.2219 0.48441 0.58919 0.0
C631 C 0.19995 0.45906 0.62327 0.0
C632 C 0.2376 0.48124 0.5328 0.0
C633 C 0.19541 0.43104 0.60573 0.0
C634 C 0.21056 0.42773 0.54999 0.0
C635 C 0.24577 0.44884 0.45589 0.0
C636 C 0.26802 0.4733 0.42079 0.0
C637 C 0.23123 0.45254 0.51271 0.0
C638 C 0.27396 0.50184 0.43813 0.0
C639 C 0.25875 0.50583 0.49433 0.0
H640 H 0.80882 0.23903 0.79697 0.0
H641 H 0.76756 0.29158 0.75946 0.0
H642 H 0.7337 0.26722 0.86003 0.0
H643 H 0.71626 0.22995 0.95854 0.0
H644 H 0.76169 0.18087 0.99375 0.0
H645 H 0.79438 0.20562 0.89505 0.0
C646 C 0.7926 0.24538 0.81136 0.0
C647 C 0.79097 0.26742 0.77335 0.0
C648 C 0.77446 0.23228 0.86935 0.0
C649 C 0.76918 0.27474 0.78953 0.0
C650 C 0.75024 0.26116 0.84725 0.0
C651 C 0.73396 0.22558 0.94549 0.0
C652 C 0.73652 0.20349 0.98181 0.0
C653 C 0.75296 0.24008 0.88821 0.0
C654 C 0.75933 0.19767 0.96536 0.0
C655 C 0.77784 0.21157 0.90881 0.0
H656 H 0.4915 0.77052 0.09621 0.0
H657 H 0.58653 0.8174 0.07391 0.0
H658 H 0.59128 0.79101 0.17402 0.0
H659 H 0.56939 0.75649 0.26878 0.0
H660 H 0.47485 0.70552 0.2928 0.0
H661 H 0.46861 0.73233 0.19219 0.0
C662 C 0.51299 0.77413 0.11258 0.0
C663 C 0.5387 0.79604 0.07957 0.0
C664 C 0.51562 0.75868 0.17057 0.0
C665 C 0.56658 0.80082 0.09998 0.0
C666 C 0.56936 0.78597 0.15727 0.0
C667 C 0.54735 0.75105 0.25155 0.0
C668 C 0.52259 0.72878 0.28566 0.0
C669 C 0.54416 0.76533 0.19334 0.0
C670 C 0.49416 0.72258 0.26581 0.0
C671 C 0.49066 0.73754 0.20806 0.0
H672 H 0.71703 0.48938 0.43255 0.0
H673 H 0.76484 0.58413 0.40533 0.0
H674 H 0.79655 0.5896 0.50478 0.0
H675 H 0.80996 0.56835 0.60009 0.0
H676 H 0.76613 0.4741 0.62968 0.0
H677 H 0.73261 0.46724 0.52985 0.0
C678 C 0.73491 0.51097 0.4478 0.0
C679 C 0.73854 0.5364 0.41334 0.0
C680 C 0.75324 0.51402 0.50557 0.0
C681 C 0.76162 0.5644 0.43242 0.0
C682 C 0.77957 0.56759 0.48935 0.0
C683 C 0.79317 0.54625 0.58429 0.0
C684 C 0.79079 0.52171 0.61965 0.0
C685 C 0.77527 0.54268 0.52664 0.0
C686 C 0.76832 0.49322 0.60164 0.0
C687 C 0.74957 0.48936 0.54435 0.0
H688 H 0.22599 0.71603 0.79013 0.0
H689 H 0.18061 0.76548 0.76116 0.0
H690 H 0.20635 0.7964 0.86196 0.0
H691 H 0.24024 0.80877 0.95873 0.0
H692 H 0.28988 0.76389 0.98822 0.0
H693 H 0.26316 0.7307 0.88829 0.0
C694 C 0.22252 0.73411 0.80525 0.0
C695 C 0.20115 0.73831 0.77012 0.0
C696 C 0.2376 0.75205 0.86359 0.0
C697 C 0.19666 0.76171 0.78892 0.0
C698 C 0.21119 0.77926 0.84655 0.0
C699 C 0.24538 0.79183 0.94291 0.0
C700 C 0.26734 0.78908 0.97843 0.0
C701 C 0.23125 0.77431 0.88464 0.0
C702 C 0.27309 0.76638 0.96029 0.0
C703 C 0.25819 0.74783 0.90283 0.0
H704 H 0.50298 0.22547 0.1027 0.0
H705 H 0.40803 0.17883 0.0794 0.0
H706 H 0.40323 0.2049 0.18 0.0
H707 H 0.42512 0.23915 0.27598 0.0
H708 H 0.5196 0.28878 0.30221 0.0
H709 H 0.52576 0.26273 0.20034 0.0
C710 C 0.48148 0.22184 0.11887 0.0
C711 C 0.45582 0.20012 0.08507 0.0
C712 C 0.47881 0.23693 0.17758 0.0
C713 C 0.42796 0.1953 0.1057 0.0
C714 C 0.42516 0.20997 0.16337 0.0
C715 C 0.44711 0.24439 0.25907 0.0
C716 C 0.4719 0.26616 0.2944 0.0
C717 C 0.45029 0.23035 0.20019 0.0
C718 C 0.50026 0.27211 0.2746 0.0
C719 C 0.50372 0.25758 0.21601 0.0
H720 H 0.39629 0.5187 0.4477 0.0
H721 H 0.38892 0.51151 0.21965 0.0
H722 H 0.43666 0.55694 0.20835 0.0
H723 H 0.47847 0.59965 0.2628 0.0
H724 H 0.48408 0.6088 0.49065 0.0
H725 H 0.43864 0.56105 0.50227 0.0
C726 C 0.40508 0.52681 0.39527 0.0
C727 C 0.38887 0.51164 0.33444 0.0
C728 C 0.43206 0.55324 0.38923 0.0
C729 C 0.40079 0.52271 0.26726 0.0
C730 C 0.42807 0.54869 0.26082 0.0
C731 C 0.47003 0.59126 0.31531 0.0
C732 C 0.48475 0.60798 0.37593 0.0
C733 C 0.4436 0.56431 0.32145 0.0
C734 C 0.47324 0.59653 0.44318 0.0
C735 C 0.44725 0.56926 0.4498 0.0
H736 H 0.87319 0.47403 0.59901 0.0
H737 H 0.87224 0.48327 0.82629 0.0
H738 H 0.87487 0.43808 0.84173 0.0
H739 H 0.87458 0.39499 0.79086 0.0
H740 H 0.87217 0.38411 0.56362 0.0
H741 H 0.87396 0.43151 0.54815 0.0
C742 C 0.87377 0.46642 0.65216 0.0
C743 C 0.87241 0.48208 0.71154 0.0
C744 C 0.8746 0.44019 0.66056 0.0
C745 C 0.87314 0.47166 0.77973 0.0
C746 C 0.87463 0.44583 0.78855 0.0
C747 C 0.87466 0.40295 0.73772 0.0
C748 C 0.87312 0.38585 0.67837 0.0
C749 C 0.87494 0.42975 0.72931 0.0
C750 C 0.87324 0.3967 0.61017 0.0
C751 C 0.87422 0.42377 0.60133 0.0
H752 H 0.48238 0.87475 0.1172 0.0
H753 H 0.48519 0.8708 0.8889 0.0
H754 H 0.43861 0.87122 0.88115 0.0
H755 H 0.3963 0.87025 0.93902 0.0
H756 H 0.39209 0.87149 0.16748 0.0
H757 H 0.44041 0.87463 0.17507 0.0
C758 C 0.47303 0.87418 0.0655 0.0
C759 C 0.48737 0.87267 1.0036 0.0
C760 C 0.446 0.8738 0.06151 0.0
C761 C 0.47469 0.87189 0.93735 0.0
C762 C 0.44803 0.8721 0.93291 0.0
C763 C 0.40592 0.87141 0.99071 0.0
C764 C 0.39044 0.87059 0.05272 0.0
C765 C 0.43336 0.87267 0.99468 0.0
C766 C 0.40339 0.872 0.11895 0.0
C767 C 0.43102 0.87379 0.1233 0.0
H768 H 0.60294 0.47947 0.4448 0.0
H769 H 0.61092 0.48416 0.21675 0.0
H770 H 0.56374 0.43811 0.20677 0.0
H771 H 0.52167 0.39569 0.26263 0.0
H772 H 0.51515 0.38954 0.49081 0.0
H773 H 0.56058 0.43732 0.50065 0.0
C774 C 0.59439 0.47064 0.39268 0.0
C775 C 0.61063 0.48538 0.33151 0.0
C776 C 0.56761 0.44386 0.38739 0.0
C777 C 0.59904 0.47335 0.2647 0.0
C778 C 0.57205 0.44698 0.25897 0.0
C779 C 0.52997 0.40477 0.31472 0.0
C780 C 0.51489 0.38889 0.376 0.0
C781 C 0.55636 0.43192 0.31998 0.0
C782 C 0.52624 0.40115 0.4428 0.0
C783 C 0.55223 0.42848 0.44844 0.0
H784 H 0.12511 0.60238 0.60896 0.0
H785 H 0.12869 0.61034 0.83676 0.0
H786 H 0.12818 0.56366 0.84803 0.0
H787 H 0.12799 0.52066 0.7933 0.0
H788 H 0.12108 0.51159 0.56556 0.0
H789 H 0.12147 0.55802 0.55499 0.0
C790 C 0.12574 0.59391 0.66106 0.0
C791 C 0.12733 0.61022 0.72159 0.0
C792 C 0.12483 0.56659 0.66757 0.0
C793 C 0.12769 0.59854 0.78883 0.0
C794 C 0.12739 0.57171 0.79556 0.0
C795 C 0.12643 0.52875 0.74145 0.0
C796 C 0.12483 0.51252 0.68062 0.0
C797 C 0.12616 0.55557 0.73528 0.0
C798 C 0.12251 0.52342 0.61378 0.0
C799 C 0.12276 0.55015 0.60733 0.0
H800 H 0.59802 0.12262 0.94861 0.0
H801 H 0.60814 0.12961 0.17608 0.0
H802 H 0.56061 0.12811 0.18649 0.0
H803 H 0.5174 0.12698 0.13035 0.0
H804 H 0.50924 0.12244 0.90232 0.0
H805 H 0.55502 0.12078 0.89311 0.0
C806 C 0.5899 0.12362 1.00078 0.0
C807 C 0.60681 0.12625 0.06155 0.0
C808 C 0.56296 0.12333 1.00623 0.0
C809 C 0.59571 0.12761 0.1284 0.0
C810 C 0.56854 0.1268 0.13435 0.0
C811 C 0.52548 0.12545 0.07858 0.0
C812 C 0.50982 0.12492 1.01705 0.0
C813 C 0.55215 0.12499 0.07352 0.0
C814 C 0.52081 0.12304 0.95052 0.0
C815 C 0.54701 0.12206 0.94518 0.0
loop_
_geom_bond_atom_site_label_1
_geom_bond_atom_site_label_2
_geom_bond_distance
_geom_bond_site_symmetry_2
_ccdc_geom_bond_type
Mn0 O5 2.095 . S
Mn0 O15 2.162 . S
Mn0 O16 2.297 . S
Mn0 O24 2.385 . S
Mn0 O25 2.209 . S
Mn0 O26 2.094 . S
Mn1 O6 2.121 . S
Mn1 N8 2.257 . S
Mn1 N17 2.282 . S
Mn1 O25 2.215 . S
Mn1 O27 2.117 . S
C2 O24 1.234 . S
C2 O25 1.283 . S
C3 O15 1.281 . S
C3 O16 1.236 . S
C4 O26 1.240 . S
C4 O27 1.264 . S
O5 Mn0 2.095 . S
O5 C14 1.250 . S
O6 Mn1 2.121 . S
O6 C14 1.258 . S
C7 N8 1.326 . S
C7 C11 1.460 . S
C7 H13 0.929 . S
N8 Mn1 2.257 . S
N8 C7 1.326 . S
N8 C12 1.362 . S
C9 C10 1.258 . S
C9 C12 1.431 . S
C9 C29 1.449 . S
C10 C9 1.258 . S
C10 C11 1.477 . S
C10 H30 0.931 . S
C11 C7 1.460 . S
C11 C10 1.477 . S
C11 H31 0.930 . S
C12 N8 1.362 . S
C12 C9 1.431 . S
C12 C22 1.476 . S
H13 C7 0.929 . S
C14 O5 1.250 . S
C14 O6 1.258 . S
O15 Mn0 2.162 . S
O15 C3 1.281 . S
O16 Mn0 2.297 . S
O16 C3 1.236 . S
N17 Mn1 2.282 . S
N17 C18 1.328 . S
N17 C22 1.318 . S
C18 N17 1.328 . S
C18 C19 1.457 . S
C18 H23 0.929 . S
C19 C18 1.457 . S
C19 C20 1.291 . S
C19 H32 0.931 . S
C20 C19 1.291 . S
C20 C21 1.373 . S
C20 H33 0.929 . S
C21 C20 1.373 . S
C21 C22 1.396 . S
C21 C28 1.403 . S
C22 C12 1.476 . S
C22 N17 1.318 . S
C22 C21 1.396 . S
H23 C18 0.929 . S
O24 Mn0 2.385 . S
O24 C2 1.234 . S
O25 Mn0 2.209 . S
O25 Mn1 2.215 . S
O25 C2 1.283 . S
O26 Mn0 2.094 . S
O26 C4 1.240 . S
O27 Mn1 2.117 . S
O27 C4 1.264 . S
C28 C21 1.403 . S
C28 C29 1.399 . S
C28 H34 0.929 . S
C29 C9 1.449 . S
C29 C28 1.399 . S
C29 H35 0.930 . S
H30 C10 0.931 . S
H31 C11 0.930 . S
H32 C19 0.931 . S
H33 C20 0.929 . S
H34 C28 0.929 . S
H35 C29 0.930 . S
Mn36 O41 2.095 . S
Mn36 O51 2.162 . S
Mn36 O52 2.297 . S
Mn36 O60 2.385 . S
Mn36 O61 2.209 . S
Mn36 O62 2.094 . S
Mn37 O42 2.121 . S
Mn37 N44 2.257 . S
Mn37 N53 2.282 . S
Mn37 O61 2.215 . S
Mn37 O63 2.117 . S
C38 O60 1.234 . S
C38 O61 1.283 . S
C39 O51 1.281 . S
C39 O52 1.236 . S
C40 O62 1.240 . S
C40 O63 1.264 . S
O41 Mn36 2.095 . S
O41 C50 1.250 . S
O42 Mn37 2.121 . S
O42 C50 1.258 . S
C43 N44 1.326 . S
C43 C47 1.460 . S
C43 H49 0.929 . S
N44 Mn37 2.257 . S
N44 C43 1.326 . S
N44 C48 1.362 . S
C45 C46 1.258 . S
C45 C48 1.431 . S
C45 C65 1.452 . S
C46 C45 1.258 . S
C46 C47 1.477 . S
C46 H66 0.931 . S
C47 C43 1.460 . S
C47 C46 1.477 . S
C47 H67 0.930 . S
C48 N44 1.362 . S
C48 C45 1.431 . S
C48 C58 1.476 . S
H49 C43 0.929 . S
C50 O41 1.250 . S
C50 O42 1.258 . S
O51 Mn36 2.162 . S
O51 C39 1.281 . S
O52 Mn36 2.297 . S
O52 C39 1.236 . S
N53 Mn37 2.282 . S
N53 C54 1.328 . S
N53 C58 1.318 . S
C54 N53 1.328 . S
C54 C55 1.457 . S
C54 H59 0.929 . S
C55 C54 1.457 . S
C55 C56 1.291 . S
C55 H68 0.931 . S
C56 C55 1.291 . S
C56 C57 1.373 . S
C56 H69 0.929 . S
C57 C56 1.373 . S
C57 C58 1.396 . S
C57 C64 1.403 . S
C58 C48 1.476 . S
C58 N53 1.318 . S
C58 C57 1.396 . S
H59 C54 0.929 . S
O60 Mn36 2.385 . S
O60 C38 1.234 . S
O61 Mn36 2.209 . S
O61 Mn37 2.215 . S
O61 C38 1.283 . S
O62 Mn36 2.094 . S
O62 C40 1.240 . S
O63 Mn37 2.117 . S
O63 C40 1.264 . S
C64 C57 1.403 . S
C64 C65 1.400 . S
C64 H70 0.929 1_556 S
C65 C45 1.452 . S
C65 C64 1.400 . S
C65 H71 0.926 1_556 S
H66 C46 0.931 . S
H67 C47 0.930 . S
H68 C55 0.931 . S
H69 C56 0.929 . S
H70 C64 0.929 1_554 S
H71 C65 0.926 1_554 S
Mn72 O77 2.095 . S
Mn72 O87 2.162 . S
Mn72 O88 2.297 . S
Mn72 O96 2.385 . S
Mn72 O97 2.209 1_556 S
Mn72 O98 2.094 . S
Mn73 O78 2.121 . S
Mn73 N80 2.257 . S
Mn73 N89 2.282 . S
Mn73 O97 2.215 . S
Mn73 O99 2.117 . S
C74 O96 1.234 1_554 S
C74 O97 1.283 . S
C75 O87 1.281 . S
C75 O88 1.236 . S
C76 O98 1.240 . S
C76 O99 1.264 1_556 S
O77 Mn72 2.095 . S
O77 C86 1.250 . S
O78 Mn73 2.121 . S
O78 C86 1.258 1_554 S
C79 N80 1.326 . S
C79 C83 1.460 . S
C79 H85 0.929 . S
N80 Mn73 2.257 . S
N80 C79 1.326 . S
N80 C84 1.362 . S
C81 C82 1.258 . S
C81 C84 1.431 . S
C81 C101 1.449 . S
C82 C81 1.258 . S
C82 C83 1.477 . S
C82 H102 0.931 . S
C83 C79 1.460 . S
C83 C82 1.477 . S
C83 H103 0.930 . S
C84 N80 1.362 . S
C84 C81 1.431 . S
C84 C94 1.476 . S
H85 C79 0.929 . S
C86 O77 1.250 . S
C86 O78 1.258 1_556 S
O87 Mn72 2.162 . S
O87 C75 1.281 . S
O88 Mn72 2.297 . S
O88 C75 1.236 . S
N89 Mn73 2.282 . S
N89 C90 1.328 . S
N89 C94 1.318 . S
C90 N89 1.328 . S
C90 C91 1.457 . S
C90 H95 0.929 . S
C91 C90 1.457 . S
C91 C92 1.291 . S
C91 H104 0.931 . S
C92 C91 1.291 . S
C92 C93 1.373 . S
C92 H105 0.929 . S
C93 C92 1.373 . S
C93 C94 1.396 . S
C93 C100 1.403 . S
C94 C84 1.476 . S
C94 N89 1.318 . S
C94 C93 1.396 . S
H95 C90 0.929 . S
O96 Mn72 2.385 . S
O96 C74 1.234 1_556 S
O97 Mn72 2.209 1_554 S
O97 Mn73 2.215 . S
O97 C74 1.283 . S
O98 Mn72 2.094 . S
O98 C76 1.240 . S
O99 Mn73 2.117 . S
O99 C76 1.264 1_554 S
C100 C93 1.403 . S
C100 C101 1.399 . S
C100 H106 0.929 . S
C101 C81 1.449 . S
C101 C100 1.399 . S
C101 H107 0.930 . S
H102 C82 0.931 . S
H103 C83 0.930 . S
H104 C91 0.931 . S
H105 C92 0.929 . S
H106 C100 0.929 . S
H107 C101 0.930 . S
Mn108 O113 2.095 . S
Mn108 O123 2.162 . S
Mn108 O124 2.297 . S
Mn108 O132 2.385 . S
Mn108 O133 2.209 . S
Mn108 O134 2.094 . S
Mn109 O114 2.121 . S
Mn109 N116 2.257 . S
Mn109 N125 2.282 . S
Mn109 O133 2.215 . S
Mn109 O135 2.117 . S
C110 O132 1.234 . S
C110 O133 1.283 . S
C111 O123 1.281 . S
C111 O124 1.236 . S
C112 O134 1.240 . S
C112 O135 1.264 . S
O113 Mn108 2.095 . S
O113 C122 1.250 . S
O114 Mn109 2.121 . S
O114 C122 1.258 . S
C115 N116 1.326 . S
C115 C119 1.460 . S
C115 H121 0.929 . S
N116 Mn109 2.257 . S
N116 C115 1.326 . S
N116 C120 1.362 . S
C117 C118 1.258 . S
C117 C120 1.431 . S
C117 C137 1.449 . S
C118 C117 1.258 . S
C118 C119 1.477 . S
C118 H138 0.931 . S
C119 C115 1.460 . S
C119 C118 1.477 . S
C119 H139 0.930 . S
C120 N116 1.362 . S
C120 C117 1.431 . S
C120 C130 1.476 . S
H121 C115 0.929 . S
C122 O113 1.250 . S
C122 O114 1.258 . S
O123 Mn108 2.162 . S
O123 C111 1.281 . S
O124 Mn108 2.297 . S
O124 C111 1.236 . S
N125 Mn109 2.282 . S
N125 C126 1.328 . S
N125 C130 1.318 . S
C126 N125 1.328 . S
C126 C127 1.457 . S
C126 H131 0.929 . S
C127 C126 1.457 . S
C127 C128 1.291 . S
C127 H140 0.931 . S
C128 C127 1.291 . S
C128 C129 1.373 . S
C128 H141 0.929 . S
C129 C128 1.373 . S
C129 C130 1.396 . S
C129 C136 1.403 . S
C130 C120 1.476 . S
C130 N125 1.318 . S
C130 C129 1.396 . S
H131 C126 0.929 . S
O132 Mn108 2.385 . S
O132 C110 1.234 . S
O133 Mn108 2.209 . S
O133 Mn109 2.215 . S
O133 C110 1.283 . S
O134 Mn108 2.094 . S
O134 C112 1.240 . S
O135 Mn109 2.117 . S
O135 C112 1.264 . S
C136 C129 1.403 . S
C136 C137 1.399 . S
C136 H142 0.929 . S
C137 C117 1.449 . S
C137 C136 1.399 . S
C137 H143 0.930 . S
H138 C118 0.931 . S
H139 C119 0.930 . S
H140 C127 0.931 . S
H141 C128 0.929 . S
H142 C136 0.929 . S
H143 C137 0.930 . S
Mn144 O149 2.095 . S
Mn144 O159 2.162 . S
Mn144 O160 2.297 . S
Mn144 O168 2.385 . S
Mn144 O169 2.209 . S
Mn144 O170 2.094 . S
Mn145 O150 2.121 . S
Mn145 N152 2.257 . S
Mn145 N161 2.282 . S
Mn145 O169 2.215 . S
Mn145 O171 2.117 . S
C146 O168 1.234 . S
C146 O169 1.283 . S
C147 O159 1.281 . S
C147 O160 1.236 . S
C148 O170 1.240 . S
C148 O171 1.264 . S
O149 Mn144 2.095 . S
O149 C158 1.250 . S
O150 Mn145 2.121 . S
O150 C158 1.258 . S
C151 N152 1.326 . S
C151 C155 1.460 . S
C151 H157 0.929 . S
N152 Mn145 2.257 . S
N152 C151 1.326 . S
N152 C156 1.362 . S
C153 C154 1.258 . S
C153 C156 1.431 . S
C153 C173 1.452 . S
C154 C153 1.258 . S
C154 C155 1.477 . S
C154 H174 0.931 . S
C155 C151 1.460 . S
C155 C154 1.477 . S
C155 H175 0.930 . S
C156 N152 1.362 . S
C156 C153 1.431 . S
C156 C166 1.476 . S
H157 C151 0.929 . S
C158 O149 1.250 . S
C158 O150 1.258 . S
O159 Mn144 2.162 . S
O159 C147 1.281 . S
O160 Mn144 2.297 . S
O160 C147 1.236 . S
N161 Mn145 2.282 . S
N161 C162 1.328 . S
N161 C166 1.318 . S
C162 N161 1.328 . S
C162 C163 1.457 . S
C162 H167 0.929 . S
C163 C162 1.457 . S
C163 C164 1.291 . S
C163 H176 0.931 . S
C164 C163 1.291 . S
C164 C165 1.373 . S
C164 H177 0.929 . S
C165 C164 1.373 . S
C165 C166 1.396 . S
C165 C172 1.403 . S
C166 C156 1.476 . S
C166 N161 1.318 . S
C166 C165 1.396 . S
H167 C162 0.929 . S
O168 Mn144 2.385 . S
O168 C146 1.234 . S
O169 Mn144 2.209 . S
O169 Mn145 2.215 . S
O169 C146 1.283 . S
O170 Mn144 2.094 . S
O170 C148 1.240 . S
O171 Mn145 2.117 . S
O171 C148 1.264 . S
C172 C165 1.403 . S
C172 C173 1.400 . S
C172 H178 0.929 1_556 S
C173 C153 1.452 . S
C173 C172 1.400 . S
C173 H179 0.926 1_556 S
H174 C154 0.931 . S
H175 C155 0.930 . S
H176 C163 0.931 . S
H177 C164 0.929 . S
H178 C172 0.929 1_554 S
H179 C173 0.926 1_554 S
Mn180 O185 2.095 . S
Mn180 O195 2.162 . S
Mn180 O196 2.297 . S
Mn180 O204 2.385 . S
Mn180 O205 2.209 1_556 S
Mn180 O206 2.094 . S
Mn181 O186 2.121 . S
Mn181 N188 2.257 . S
Mn181 N197 2.282 . S
Mn181 O205 2.215 . S
Mn181 O207 2.117 . S
C182 O204 1.234 1_554 S
C182 O205 1.283 . S
C183 O195 1.281 . S
C183 O196 1.236 . S
C184 O206 1.240 . S
C184 O207 1.264 1_556 S
O185 Mn180 2.095 . S
O185 C194 1.250 . S
O186 Mn181 2.121 . S
O186 C194 1.258 1_554 S
C187 N188 1.326 . S
C187 C191 1.460 . S
C187 H193 0.929 . S
N188 Mn181 2.257 . S
N188 C187 1.326 . S
N188 C192 1.362 . S
C189 C190 1.258 . S
C189 C192 1.431 . S
C189 C209 1.449 . S
C190 C189 1.258 . S
C190 C191 1.477 . S
C190 H210 0.931 . S
C191 C187 1.460 . S
C191 C190 1.477 . S
C191 H211 0.930 . S
C192 N188 1.362 . S
C192 C189 1.431 . S
C192 C202 1.476 . S
H193 C187 0.929 . S
C194 O185 1.250 . S
C194 O186 1.258 1_556 S
O195 Mn180 2.162 . S
O195 C183 1.281 . S
O196 Mn180 2.297 . S
O196 C183 1.236 . S
N197 Mn181 2.282 . S
N197 C198 1.328 . S
N197 C202 1.318 . S
C198 N197 1.328 . S
C198 C199 1.457 . S
C198 H203 0.929 . S
C199 C198 1.457 . S
C199 C200 1.291 . S
C199 H212 0.931 . S
C200 C199 1.291 . S
C200 C201 1.373 . S
C200 H213 0.929 . S
C201 C200 1.373 . S
C201 C202 1.396 . S
C201 C208 1.403 . S
C202 C192 1.476 . S
C202 N197 1.318 . S
C202 C201 1.396 . S
H203 C198 0.929 . S
O204 Mn180 2.385 . S
O204 C182 1.234 1_556 S
O205 Mn180 2.209 1_554 S
O205 Mn181 2.215 . S
O205 C182 1.283 . S
O206 Mn180 2.094 . S
O206 C184 1.240 . S
O207 Mn181 2.117 . S
O207 C184 1.264 1_554 S
C208 C201 1.403 . S
C208 C209 1.399 . S
C208 H214 0.929 . S
C209 C189 1.449 . S
C209 C208 1.399 . S
C209 H215 0.930 . S
H210 C190 0.931 . S
H211 C191 0.930 . S
H212 C199 0.931 . S
H213 C200 0.929 . S
H214 C208 0.929 . S
H215 C209 0.930 . S
Mn216 O221 2.095 . S
Mn216 O231 2.162 . S
Mn216 O232 2.297 . S
Mn216 O240 2.385 . S
Mn216 O241 2.209 . S
Mn216 O242 2.094 . S
Mn217 O222 2.121 . S
Mn217 N224 2.257 . S
Mn217 N233 2.282 . S
Mn217 O241 2.215 . S
Mn217 O243 2.117 . S
C218 O240 1.234 . S
C218 O241 1.283 . S
C219 O231 1.281 . S
C219 O232 1.236 . S
C220 O242 1.240 . S
C220 O243 1.264 . S
O221 Mn216 2.095 . S
O221 C230 1.250 . S
O222 Mn217 2.121 . S
O222 C230 1.258 . S
C223 N224 1.326 . S
C223 C227 1.460 . S
C223 H229 0.929 . S
N224 Mn217 2.257 . S
N224 C223 1.326 . S
N224 C228 1.362 . S
C225 C226 1.258 . S
C225 C228 1.431 . S
C225 C245 1.452 . S
C226 C225 1.258 . S
C226 C227 1.477 . S
C226 H246 0.931 . S
C227 C223 1.460 . S
C227 C226 1.477 . S
C227 H247 0.930 . S
C228 N224 1.362 . S
C228 C225 1.431 . S
C228 C238 1.476 . S
H229 C223 0.929 . S
C230 O221 1.250 . S
C230 O222 1.258 . S
O231 Mn216 2.162 . S
O231 C219 1.281 . S
O232 Mn216 2.297 . S
O232 C219 1.236 . S
N233 Mn217 2.282 . S
N233 C234 1.328 . S
N233 C238 1.318 . S
C234 N233 1.328 . S
C234 C235 1.457 . S
C234 H239 0.929 . S
C235 C234 1.457 . S
C235 C236 1.291 . S
C235 H248 0.931 . S
C236 C235 1.291 . S
C236 C237 1.373 . S
C236 H249 0.929 . S
C237 C236 1.373 . S
C237 C238 1.396 . S
C237 C244 1.403 . S
C238 C228 1.476 . S
C238 N233 1.318 . S
C238 C237 1.396 . S
H239 C234 0.929 . S
O240 Mn216 2.385 . S
O240 C218 1.234 . S
O241 Mn216 2.209 . S
O241 Mn217 2.215 . S
O241 C218 1.283 . S
O242 Mn216 2.094 . S
O242 C220 1.240 . S
O243 Mn217 2.117 . S
O243 C220 1.264 . S
C244 C237 1.403 . S
C244 C245 1.400 . S
C244 H250 0.929 1_554 S
C245 C225 1.452 . S
C245 C244 1.400 . S
C245 H251 0.926 1_554 S
H246 C226 0.931 . S
H247 C227 0.930 . S
H248 C235 0.931 . S
H249 C236 0.929 . S
H250 C244 0.929 1_556 S
H251 C245 0.926 1_556 S
Mn252 O257 2.095 . S
Mn252 O267 2.162 . S
Mn252 O268 2.297 . S
Mn252 O276 2.385 . S
Mn252 O277 2.209 . S
Mn252 O278 2.094 . S
Mn253 O258 2.121 . S
Mn253 N260 2.257 . S
Mn253 N269 2.282 . S
Mn253 O277 2.215 . S
Mn253 O279 2.117 . S
C254 O276 1.234 . S
C254 O277 1.283 . S
C255 O267 1.281 . S
C255 O268 1.236 . S
C256 O278 1.240 . S
C256 O279 1.264 . S
O257 Mn252 2.095 . S
O257 C266 1.250 . S
O258 Mn253 2.121 . S
O258 C266 1.258 . S
C259 N260 1.326 . S
C259 C263 1.460 . S
C259 H265 0.929 . S
N260 Mn253 2.257 . S
N260 C259 1.326 . S
N260 C264 1.362 . S
C261 C262 1.258 . S
C261 C264 1.431 . S
C261 C281 1.449 . S
C262 C261 1.258 . S
C262 C263 1.477 . S
C262 H282 0.931 . S
C263 C259 1.460 . S
C263 C262 1.477 . S
C263 H283 0.930 . S
C264 N260 1.362 . S
C264 C261 1.431 . S
C264 C274 1.476 . S
H265 C259 0.929 . S
C266 O257 1.250 . S
C266 O258 1.258 . S
O267 Mn252 2.162 . S
O267 C255 1.281 . S
O268 Mn252 2.297 . S
O268 C255 1.236 . S
N269 Mn253 2.282 . S
N269 C270 1.328 . S
N269 C274 1.318 . S
C270 N269 1.328 . S
C270 C271 1.457 . S
C270 H275 0.929 . S
C271 C270 1.457 . S
C271 C272 1.291 . S
C271 H284 0.931 . S
C272 C271 1.291 . S
C272 C273 1.373 . S
C272 H285 0.929 . S
C273 C272 1.373 . S
C273 C274 1.396 . S
C273 C280 1.403 . S
C274 C264 1.476 . S
C274 N269 1.318 . S
C274 C273 1.396 . S
H275 C270 0.929 . S
O276 Mn252 2.385 . S
O276 C254 1.234 . S
O277 Mn252 2.209 . S
O277 Mn253 2.215 . S
O277 C254 1.283 . S
O278 Mn252 2.094 . S
O278 C256 1.240 . S
O279 Mn253 2.117 . S
O279 C256 1.264 . S
C280 C273 1.403 . S
C280 C281 1.399 . S
C280 H286 0.929 . S
C281 C261 1.449 . S
C281 C280 1.399 . S
C281 H287 0.930 . S
H282 C262 0.931 . S
H283 C263 0.930 . S
H284 C271 0.931 . S
H285 C272 0.929 . S
H286 C280 0.929 . S
H287 C281 0.930 . S
Mn288 O293 2.095 . S
Mn288 O303 2.162 . S
Mn288 O304 2.297 . S
Mn288 O312 2.385 . S
Mn288 O313 2.209 1_554 S
Mn288 O314 2.094 . S
Mn289 O294 2.121 . S
Mn289 N296 2.257 . S
Mn289 N305 2.282 . S
Mn289 O313 2.215 . S
Mn289 O315 2.117 . S
C290 O312 1.234 1_556 S
C290 O313 1.283 . S
C291 O303 1.281 . S
C291 O304 1.236 . S
C292 O314 1.240 . S
C292 O315 1.264 1_554 S
O293 Mn288 2.095 . S
O293 C302 1.250 . S
O294 Mn289 2.121 . S
O294 C302 1.258 1_556 S
C295 N296 1.326 . S
C295 C299 1.460 . S
C295 H301 0.929 . S
N296 Mn289 2.257 . S
N296 C295 1.326 . S
N296 C300 1.362 . S
C297 C298 1.258 . S
C297 C300 1.431 . S
C297 C317 1.449 . S
C298 C297 1.258 . S
C298 C299 1.477 . S
C298 H318 0.931 . S
C299 C295 1.460 . S
C299 C298 1.477 . S
C299 H319 0.930 . S
C300 N296 1.362 . S
C300 C297 1.431 . S
C300 C310 1.476 . S
H301 C295 0.929 . S
C302 O293 1.250 . S
C302 O294 1.258 1_554 S
O303 Mn288 2.162 . S
O303 C291 1.281 . S
O304 Mn288 2.297 . S
O304 C291 1.236 . S
N305 Mn289 2.282 . S
N305 C306 1.328 . S
N305 C310 1.318 . S
C306 N305 1.328 . S
C306 C307 1.457 . S
C306 H311 0.929 . S
C307 C306 1.457 . S
C307 C308 1.291 . S
C307 H320 0.931 . S
C308 C307 1.291 . S
C308 C309 1.373 . S
C308 H321 0.929 . S
C309 C308 1.373 . S
C309 C310 1.396 . S
C309 C316 1.403 . S
C310 C300 1.476 . S
C310 N305 1.318 . S
C310 C309 1.396 . S
H311 C306 0.929 . S
O312 Mn288 2.385 . S
O312 C290 1.234 1_554 S
O313 Mn288 2.209 1_556 S
O313 Mn289 2.215 . S
O313 C290 1.283 . S
O314 Mn288 2.094 . S
O314 C292 1.240 . S
O315 Mn289 2.117 . S
O315 C292 1.264 1_556 S
C316 C309 1.403 . S
C316 C317 1.399 . S
C316 H322 0.929 . S
C317 C297 1.449 . S
C317 C316 1.399 . S
C317 H323 0.930 . S
H318 C298 0.931 . S
H319 C299 0.930 . S
H320 C307 0.931 . S
H321 C308 0.929 . S
H322 C316 0.929 . S
H323 C317 0.930 . S
Mn324 O329 2.095 . S
Mn324 O339 2.162 . S
Mn324 O340 2.297 . S
Mn324 O348 2.385 . S
Mn324 O349 2.209 . S
Mn324 O350 2.094 . S
Mn325 O330 2.121 . S
Mn325 N332 2.257 . S
Mn325 N341 2.282 . S
Mn325 O349 2.215 . S
Mn325 O351 2.117 . S
C326 O348 1.234 . S
C326 O349 1.283 . S
C327 O339 1.281 . S
C327 O340 1.236 . S
C328 O350 1.240 . S
C328 O351 1.264 . S
O329 Mn324 2.095 . S
O329 C338 1.250 . S
O330 Mn325 2.121 . S
O330 C338 1.258 . S
C331 N332 1.326 . S
C331 C335 1.460 . S
C331 H337 0.929 . S
N332 Mn325 2.257 . S
N332 C331 1.326 . S
N332 C336 1.362 . S
C333 C334 1.258 . S
C333 C336 1.431 . S
C333 C353 1.452 . S
C334 C333 1.258 . S
C334 C335 1.477 . S
C334 H354 0.931 . S
C335 C331 1.460 . S
C335 C334 1.477 . S
C335 H355 0.930 . S
C336 N332 1.362 . S
C336 C333 1.431 . S
C336 C346 1.476 . S
H337 C331 0.929 . S
C338 O329 1.250 . S
C338 O330 1.258 . S
O339 Mn324 2.162 . S
O339 C327 1.281 . S
O340 Mn324 2.297 . S
O340 C327 1.236 . S
N341 Mn325 2.282 . S
N341 C342 1.328 . S
N341 C346 1.318 . S
C342 N341 1.328 . S
C342 C343 1.457 . S
C342 H347 0.929 . S
C343 C342 1.457 . S
C343 C344 1.291 . S
C343 H356 0.931 . S
C344 C343 1.291 . S
C344 C345 1.373 . S
C344 H357 0.929 . S
C345 C344 1.373 . S
C345 C346 1.396 . S
C345 C352 1.403 . S
C346 C336 1.476 . S
C346 N341 1.318 . S
C346 C345 1.396 . S
H347 C342 0.929 . S
O348 Mn324 2.385 . S
O348 C326 1.234 . S
O349 Mn324 2.209 . S
O349 Mn325 2.215 . S
O349 C326 1.283 . S
O350 Mn324 2.094 . S
O350 C328 1.240 . S
O351 Mn325 2.117 . S
O351 C328 1.264 . S
C352 C345 1.403 . S
C352 C353 1.400 . S
C352 H358 0.929 1_554 S
C353 C333 1.452 . S
C353 C352 1.400 . S
C353 H359 0.926 1_554 S
H354 C334 0.931 . S
H355 C335 0.930 . S
H356 C343 0.931 . S
H357 C344 0.929 . S
H358 C352 0.929 1_556 S
H359 C353 0.926 1_556 S
Mn360 O365 2.095 . S
Mn360 O375 2.162 . S
Mn360 O376 2.297 . S
Mn360 O384 2.385 . S
Mn360 O385 2.209 . S
Mn360 O386 2.094 . S
Mn361 O366 2.121 . S
Mn361 N368 2.257 . S
Mn361 N377 2.282 . S
Mn361 O385 2.215 . S
Mn361 O387 2.117 . S
C362 O384 1.234 . S
C362 O385 1.283 . S
C363 O375 1.281 . S
C363 O376 1.236 . S
C364 O386 1.240 . S
C364 O387 1.264 . S
O365 Mn360 2.095 . S
O365 C374 1.250 . S
O366 Mn361 2.121 . S
O366 C374 1.258 . S
C367 N368 1.326 . S
C367 C371 1.460 . S
C367 H373 0.929 . S
N368 Mn361 2.257 . S
N368 C367 1.326 . S
N368 C372 1.362 . S
C369 C370 1.258 . S
C369 C372 1.431 . S
C369 C389 1.449 . S
C370 C369 1.258 . S
C370 C371 1.477 . S
C370 H390 0.931 . S
C371 C367 1.460 . S
C371 C370 1.477 . S
C371 H391 0.930 . S
C372 N368 1.362 . S
C372 C369 1.431 . S
C372 C382 1.476 . S
H373 C367 0.929 . S
C374 O365 1.250 . S
C374 O366 1.258 . S
O375 Mn360 2.162 . S
O375 C363 1.281 . S
O376 Mn360 2.297 . S
O376 C363 1.236 . S
N377 Mn361 2.282 . S
N377 C378 1.328 . S
N377 C382 1.318 . S
C378 N377 1.328 . S
C378 C379 1.457 . S
C378 H383 0.929 . S
C379 C378 1.457 . S
C379 C380 1.291 . S
C379 H392 0.931 . S
C380 C379 1.291 . S
C380 C381 1.373 . S
C380 H393 0.929 . S
C381 C380 1.373 . S
C381 C382 1.396 . S
C381 C388 1.403 . S
C382 C372 1.476 . S
C382 N377 1.318 . S
C382 C381 1.396 . S
H383 C378 0.929 . S
O384 Mn360 2.385 . S
O384 C362 1.234 . S
O385 Mn360 2.209 . S
O385 Mn361 2.215 . S
O385 C362 1.283 . S
O386 Mn360 2.094 . S
O386 C364 1.240 . S
O387 Mn361 2.117 . S
O387 C364 1.264 . S
C388 C381 1.403 . S
C388 C389 1.399 . S
C388 H394 0.929 . S
C389 C369 1.449 . S
C389 C388 1.399 . S
C389 H395 0.930 . S
H390 C370 0.931 . S
H391 C371 0.930 . S
H392 C379 0.931 . S
H393 C380 0.929 . S
H394 C388 0.929 . S
H395 C389 0.930 . S
Mn396 O401 2.095 . S
Mn396 O411 2.162 . S
Mn396 O412 2.297 . S
Mn396 O420 2.385 . S
Mn396 O421 2.209 1_554 S
Mn396 O422 2.094 . S
Mn397 O402 2.121 . S
Mn397 N404 2.257 . S
Mn397 N413 2.282 . S
Mn397 O421 2.215 . S
Mn397 O423 2.117 . S
C398 O420 1.234 1_556 S
C398 O421 1.283 . S
C399 O411 1.281 . S
C399 O412 1.236 . S
C400 O422 1.240 . S
C400 O423 1.264 1_554 S
O401 Mn396 2.095 . S
O401 C410 1.250 . S
O402 Mn397 2.121 . S
O402 C410 1.258 1_556 S
C403 N404 1.326 . S
C403 C407 1.460 . S
C403 H409 0.929 . S
N404 Mn397 2.257 . S
N404 C403 1.326 . S
N404 C408 1.362 . S
C405 C406 1.258 . S
C405 C408 1.431 . S
C405 C425 1.449 . S
C406 C405 1.258 . S
C406 C407 1.477 . S
C406 H426 0.931 . S
C407 C403 1.460 . S
C407 C406 1.477 . S
C407 H427 0.930 . S
C408 N404 1.362 . S
C408 C405 1.431 . S
C408 C418 1.476 . S
H409 C403 0.929 . S
C410 O401 1.250 . S
C410 O402 1.258 1_554 S
O411 Mn396 2.162 . S
O411 C399 1.281 . S
O412 Mn396 2.297 . S
O412 C399 1.236 . S
N413 Mn397 2.282 . S
N413 C414 1.328 . S
N413 C418 1.318 . S
C414 N413 1.328 . S
C414 C415 1.457 . S
C414 H419 0.929 . S
C415 C414 1.457 . S
C415 C416 1.291 . S
C415 H428 0.931 . S
C416 C415 1.291 . S
C416 C417 1.373 . S
C416 H429 0.929 . S
C417 C416 1.373 . S
C417 C418 1.396 . S
C417 C424 1.403 . S
C418 C408 1.476 . S
C418 N413 1.318 . S
C418 C417 1.396 . S
H419 C414 0.929 . S
O420 Mn396 2.385 . S
O420 C398 1.234 1_554 S
O421 Mn396 2.209 1_556 S
O421 Mn397 2.215 . S
O421 C398 1.283 . S
O422 Mn396 2.094 . S
O422 C400 1.240 . S
O423 Mn397 2.117 . S
O423 C400 1.264 1_556 S
C424 C417 1.403 . S
C424 C425 1.399 . S
C424 H430 0.929 . S
C425 C405 1.449 . S
C425 C424 1.399 . S
C425 H431 0.930 . S
H426 C406 0.931 . S
H427 C407 0.930 . S
H428 C415 0.931 . S
H429 C416 0.929 . S
H430 C424 0.929 . S
H431 C425 0.930 . S
H432 C438 0.930 . S
H433 C441 0.930 . S
H434 C442 0.930 . S
H435 C443 0.930 . S
H436 C446 0.930 . S
H437 C447 0.930 . S
C438 H432 0.930 . S
C438 C439 1.355 . S
C438 C440 1.415 . S
C439 C438 1.355 . S
C439 C441 1.419 . S
C440 C438 1.415 . S
C440 C445 1.425 . S
C440 C447 1.409 . S
C441 H433 0.930 . S
C441 C439 1.419 . S
C441 C442 1.362 . S
C442 H434 0.930 . S
C442 C441 1.362 . S
C442 C445 1.409 . S
C443 H435 0.930 . S
C443 C444 1.355 . S
C443 C445 1.415 . S
C444 C443 1.355 . S
C444 C446 1.419 . S
C445 C440 1.425 . S
C445 C442 1.409 . S
C445 C443 1.415 . S
C446 H436 0.930 . S
C446 C444 1.419 . S
C446 C447 1.362 . S
C447 H437 0.930 . S
C447 C440 1.409 . S
C447 C446 1.362 . S
H448 C454 0.930 . S
H449 C457 0.930 . S
H450 C458 0.930 1_455 S
H451 C459 0.930 . S
H452 C462 0.930 . S
H453 C463 0.930 1_655 S
C454 H448 0.930 . S
C454 C455 1.355 . S
C454 C456 1.415 . S
C455 C454 1.355 . S
C455 C457 1.419 . S
C456 C454 1.415 . S
C456 C461 1.425 1_655 S
C456 C463 1.409 1_655 S
C457 H449 0.930 . S
C457 C455 1.419 . S
C457 C458 1.362 . S
C458 H450 0.930 1_655 S
C458 C457 1.362 . S
C458 C461 1.409 1_655 S
C459 H451 0.930 . S
C459 C460 1.355 . S
C459 C461 1.415 . S
C460 C459 1.355 . S
C460 C462 1.419 . S
C461 C456 1.425 1_455 S
C461 C458 1.409 1_455 S
C461 C459 1.415 . S
C462 H452 0.930 . S
C462 C460 1.419 . S
C462 C463 1.362 . S
C463 H453 0.930 1_455 S
C463 C456 1.409 1_455 S
C463 C462 1.362 . S
H464 C470 0.930 . S
H465 C473 0.930 . S
H466 C474 0.930 . S
H467 C475 0.930 . S
H468 C478 0.930 . S
H469 C479 0.930 . S
C470 H464 0.930 . S
C470 C471 1.355 . S
C470 C472 1.415 . S
C471 C470 1.355 . S
C471 C473 1.419 . S
C472 C470 1.415 . S
C472 C477 1.425 1_566 S
C472 C479 1.409 1_565 S
C473 H465 0.930 . S
C473 C471 1.419 . S
C473 C474 1.362 1_556 S
C474 H466 0.930 . S
C474 C473 1.362 1_554 S
C474 C477 1.409 1_565 S
C475 H467 0.930 . S
C475 C476 1.355 . S
C475 C477 1.415 . S
C476 C475 1.355 . S
C476 C478 1.419 . S
C477 C472 1.425 1_544 S
C477 C474 1.409 1_545 S
C477 C475 1.415 . S
C478 H468 0.930 . S
C478 C476 1.419 . S
C478 C479 1.362 1_554 S
C479 H469 0.930 . S
C479 C472 1.409 1_545 S
C479 C478 1.362 1_556 S
H480 C486 0.930 . S
H481 C489 0.930 . S
H482 C490 0.930 . S
H483 C491 0.930 . S
H484 C494 0.930 . S
H485 C495 0.930 . S
C486 H480 0.930 . S
C486 C487 1.355 . S
C486 C488 1.415 . S
C487 C486 1.355 . S
C487 C489 1.419 . S
C488 C486 1.415 . S
C488 C493 1.425 . S
C488 C495 1.409 . S
C489 H481 0.930 . S
C489 C487 1.419 . S
C489 C490 1.362 . S
C490 H482 0.930 . S
C490 C489 1.362 . S
C490 C493 1.409 . S
C491 H483 0.930 . S
C491 C492 1.355 . S
C491 C493 1.415 . S
C492 C491 1.355 . S
C492 C494 1.419 . S
C493 C488 1.425 . S
C493 C490 1.409 . S
C493 C491 1.415 . S
C494 H484 0.930 . S
C494 C492 1.419 . S
C494 C495 1.362 . S
C495 H485 0.930 . S
C495 C488 1.409 . S
C495 C494 1.362 . S
H496 C502 0.930 . S
H497 C505 0.930 . S
H498 C506 0.930 . S
H499 C507 0.930 . S
H500 C510 0.930 . S
H501 C511 0.930 . S
C502 H496 0.930 . S
C502 C503 1.355 . S
C502 C504 1.415 . S
C503 C502 1.355 . S
C503 C505 1.419 . S
C504 C502 1.415 . S
C504 C509 1.425 1_655 S
C504 C511 1.409 1_655 S
C505 H497 0.930 . S
C505 C503 1.419 . S
C505 C506 1.362 . S
C506 H498 0.930 . S
C506 C505 1.362 . S
C506 C509 1.409 1_655 S
C507 H499 0.930 . S
C507 C508 1.355 . S
C507 C509 1.415 . S
C508 C507 1.355 . S
C508 C510 1.419 . S
C509 C504 1.425 1_455 S
C509 C506 1.409 1_455 S
C509 C507 1.415 . S
C510 H500 0.930 . S
C510 C508 1.419 . S
C510 C511 1.362 . S
C511 H501 0.930 . S
C511 C504 1.409 1_455 S
C511 C510 1.362 . S
H512 C518 0.930 . S
H513 C521 0.930 . S
H514 C522 0.930 . S
H515 C523 0.930 . S
H516 C526 0.930 . S
H517 C527 0.930 . S
C518 H512 0.930 . S
C518 C519 1.355 . S
C518 C520 1.428 . S
C519 C518 1.355 . S
C519 C521 1.419 1_554 S
C520 C518 1.428 . S
C520 C525 1.433 1_564 S
C520 C527 1.392 1_565 S
C521 H513 0.930 . S
C521 C519 1.419 1_556 S
C521 C522 1.362 . S
C522 H514 0.930 . S
C522 C521 1.362 . S
C522 C525 1.390 1_565 S
C523 H515 0.930 . S
C523 C524 1.355 . S
C523 C525 1.430 . S
C524 C523 1.355 . S
C524 C526 1.419 1_556 S
C525 C520 1.433 1_546 S
C525 C522 1.390 1_545 S
C525 C523 1.430 . S
C526 H516 0.930 . S
C526 C524 1.419 1_554 S
C526 C527 1.362 . S
C527 H517 0.930 . S
C527 C520 1.392 1_545 S
C527 C526 1.362 . S
H528 C534 0.930 . S
H529 C537 0.930 . S
H530 C538 0.930 . S
H531 C539 0.930 . S
H532 C542 0.930 . S
H533 C543 0.930 . S
C534 H528 0.930 . S
C534 C535 1.355 . S
C534 C536 1.415 1_556 S
C535 C534 1.355 . S
C535 C537 1.419 . S
C536 C534 1.415 1_554 S
C536 C541 1.425 1_554 S
C536 C543 1.409 . S
C537 H529 0.930 . S
C537 C535 1.419 . S
C537 C538 1.362 . S
C538 H530 0.930 . S
C538 C537 1.362 . S
C538 C541 1.409 . S
C539 H531 0.930 . S
C539 C540 1.355 . S
C539 C541 1.415 1_554 S
C540 C539 1.355 . S
C540 C542 1.419 . S
C541 C536 1.425 1_556 S
C541 C538 1.409 . S
C541 C539 1.415 1_556 S
C542 H532 0.930 . S
C542 C540 1.419 . S
C542 C543 1.362 . S
C543 H533 0.930 . S
C543 C536 1.409 . S
C543 C542 1.362 . S
H544 C550 0.930 . S
H545 C553 0.930 . S
H546 C554 0.930 . S
H547 C555 0.930 . S
H548 C558 0.930 . S
H549 C559 0.930 . S
C550 H544 0.930 . S
C550 C551 1.355 . S
C550 C552 1.415 . S
C551 C550 1.355 . S
C551 C553 1.419 . S
C552 C550 1.415 . S
C552 C557 1.425 . S
C552 C559 1.409 . S
C553 H545 0.930 . S
C553 C551 1.419 . S
C553 C554 1.362 . S
C554 H546 0.930 . S
C554 C553 1.362 . S
C554 C557 1.409 . S
C555 H547 0.930 . S
C555 C556 1.355 . S
C555 C557 1.415 . S
C556 C555 1.355 . S
C556 C558 1.419 . S
C557 C552 1.425 . S
C557 C554 1.409 . S
C557 C555 1.415 . S
C558 H548 0.930 . S
C558 C556 1.419 . S
C558 C559 1.362 . S
C559 H549 0.930 . S
C559 C552 1.409 . S
C559 C558 1.362 . S
H560 C566 0.930 . S
H561 C569 0.930 . S
H562 C570 0.930 . S
H563 C571 0.930 . S
H564 C574 0.930 . S
H565 C575 0.930 . S
C566 H560 0.930 . S
C566 C567 1.355 . S
C566 C568 1.415 . S
C567 C566 1.355 . S
C567 C569 1.419 . S
C568 C566 1.415 . S
C568 C573 1.425 . S
C568 C575 1.409 . S
C569 H561 0.930 . S
C569 C567 1.419 . S
C569 C570 1.362 . S
C570 H562 0.930 . S
C570 C569 1.362 . S
C570 C573 1.409 . S
C571 H563 0.930 . S
C571 C572 1.355 . S
C571 C573 1.415 . S
C572 C571 1.355 . S
C572 C574 1.419 . S
C573 C568 1.425 . S
C573 C570 1.409 . S
C573 C571 1.415 . S
C574 H564 0.930 . S
C574 C572 1.419 . S
C574 C575 1.362 . S
C575 H565 0.930 . S
C575 C568 1.409 . S
C575 C574 1.362 . S
H576 C582 0.930 . S
H577 C585 0.930 . S
H578 C586 0.930 . S
H579 C587 0.930 . S
H580 C590 0.930 . S
H581 C591 0.930 . S
C582 H576 0.930 . S
C582 C583 1.355 . S
C582 C584 1.415 1_554 S
C583 C582 1.355 . S
C583 C585 1.419 . S
C584 C582 1.415 1_556 S
C584 C589 1.425 1_556 S
C584 C591 1.409 . S
C585 H577 0.930 . S
C585 C583 1.419 . S
C585 C586 1.362 . S
C586 H578 0.930 . S
C586 C585 1.362 . S
C586 C589 1.409 . S
C587 H579 0.930 . S
C587 C588 1.355 . S
C587 C589 1.415 1_556 S
C588 C587 1.355 . S
C588 C590 1.419 . S
C589 C584 1.425 1_554 S
C589 C586 1.409 . S
C589 C587 1.415 1_554 S
C590 H580 0.930 . S
C590 C588 1.419 . S
C590 C591 1.362 . S
C591 H581 0.930 . S
C591 C584 1.409 . S
C591 C590 1.362 . S
H592 C598 0.930 . S
H593 C601 0.930 . S
H594 C602 0.930 . S
H595 C603 0.930 . S
H596 C606 0.930 . S
H597 C607 0.930 . S
C598 H592 0.930 . S
C598 C599 1.355 . S
C598 C600 1.415 . S
C599 C598 1.355 . S
C599 C601 1.419 . S
C600 C598 1.415 . S
C600 C605 1.425 . S
C600 C607 1.409 . S
C601 H593 0.930 . S
C601 C599 1.419 . S
C601 C602 1.362 . S
C602 H594 0.930 . S
C602 C601 1.362 . S
C602 C605 1.409 . S
C603 H595 0.930 . S
C603 C604 1.355 . S
C603 C605 1.415 . S
C604 C603 1.355 . S
C604 C606 1.419 . S
C605 C600 1.425 . S
C605 C602 1.409 . S
C605 C603 1.415 . S
C606 H596 0.930 . S
C606 C604 1.419 . S
C606 C607 1.362 . S
C607 H597 0.930 . S
C607 C600 1.409 . S
C607 C606 1.362 . S
H608 C614 0.930 . S
H609 C617 0.930 . S
H610 C618 0.930 . S
H611 C619 0.930 . S
H612 C622 0.930 . S
H613 C623 0.930 . S
C614 H608 0.930 . S
C614 C615 1.355 . S
C614 C616 1.415 . S
C615 C614 1.355 . S
C615 C617 1.419 . S
C616 C614 1.415 . S
C616 C621 1.425 . S
C616 C623 1.409 . S
C617 H609 0.930 . S
C617 C615 1.419 . S
C617 C618 1.362 . S
C618 H610 0.930 . S
C618 C617 1.362 . S
C618 C621 1.409 . S
C619 H611 0.930 . S
C619 C620 1.355 . S
C619 C621 1.415 . S
C620 C619 1.355 . S
C620 C622 1.419 . S
C621 C616 1.425 . S
C621 C618 1.409 . S
C621 C619 1.415 . S
C622 H612 0.930 . S
C622 C620 1.419 . S
C622 C623 1.362 . S
C623 H613 0.930 . S
C623 C616 1.409 . S
C623 C622 1.362 . S
H624 C630 0.930 . S
H625 C633 0.930 . S
H626 C634 0.930 . S
H627 C635 0.930 . S
H628 C638 0.930 . S
H629 C639 0.930 . S
C630 H624 0.930 . S
C630 C631 1.355 . S
C630 C632 1.415 . S
C631 C630 1.355 . S
C631 C633 1.419 . S
C632 C630 1.415 . S
C632 C637 1.425 . S
C632 C639 1.409 . S
C633 H625 0.930 . S
C633 C631 1.419 . S
C633 C634 1.362 . S
C634 H626 0.930 . S
C634 C633 1.362 . S
C634 C637 1.409 . S
C635 H627 0.930 . S
C635 C636 1.355 . S
C635 C637 1.415 . S
C636 C635 1.355 . S
C636 C638 1.419 . S
C637 C632 1.425 . S
C637 C634 1.409 . S
C637 C635 1.415 . S
C638 H628 0.930 . S
C638 C636 1.419 . S
C638 C639 1.362 . S
C639 H629 0.930 . S
C639 C632 1.409 . S
C639 C638 1.362 . S
H640 C646 0.930 . S
H641 C649 0.930 . S
H642 C650 0.930 . S
H643 C651 0.930 . S
H644 C654 0.930 . S
H645 C655 0.930 . S
C646 H640 0.930 . S
C646 C647 1.355 . S
C646 C648 1.415 . S
C647 C646 1.355 . S
C647 C649 1.419 . S
C648 C646 1.415 . S
C648 C653 1.425 . S
C648 C655 1.409 . S
C649 H641 0.930 . S
C649 C647 1.419 . S
C649 C650 1.362 . S
C650 H642 0.930 . S
C650 C649 1.362 . S
C650 C653 1.409 . S
C651 H643 0.930 . S
C651 C652 1.355 . S
C651 C653 1.415 . S
C652 C651 1.355 . S
C652 C654 1.419 . S
C653 C648 1.425 . S
C653 C650 1.409 . S
C653 C651 1.415 . S
C654 H644 0.930 . S
C654 C652 1.419 . S
C654 C655 1.362 . S
C655 H645 0.930 . S
C655 C648 1.409 . S
C655 C654 1.362 . S
H656 C662 0.930 . S
H657 C665 0.930 1_556 S
H658 C666 0.930 . S
H659 C667 0.930 . S
H660 C670 0.930 . S
H661 C671 0.930 . S
C662 H656 0.930 . S
C662 C663 1.355 . S
C662 C664 1.415 . S
C663 C662 1.355 . S
C663 C665 1.419 . S
C664 C662 1.415 . S
C664 C669 1.425 . S
C664 C671 1.409 . S
C665 H657 0.930 1_554 S
C665 C663 1.419 . S
C665 C666 1.362 . S
C666 H658 0.930 . S
C666 C665 1.362 . S
C666 C669 1.409 . S
C667 H659 0.930 . S
C667 C668 1.355 . S
C667 C669 1.415 . S
C668 C667 1.355 . S
C668 C670 1.419 . S
C669 C664 1.425 . S
C669 C666 1.409 . S
C669 C667 1.415 . S
C670 H660 0.930 . S
C670 C668 1.419 . S
C670 C671 1.362 . S
C671 H661 0.930 . S
C671 C664 1.409 . S
C671 C670 1.362 . S
H672 C678 0.930 . S
H673 C681 0.930 . S
H674 C682 0.930 . S
H675 C683 0.930 . S
H676 C686 0.930 . S
H677 C687 0.930 . S
C678 H672 0.930 . S
C678 C679 1.355 . S
C678 C680 1.415 . S
C679 C678 1.355 . S
C679 C681 1.419 . S
C680 C678 1.415 . S
C680 C685 1.425 . S
C680 C687 1.409 . S
C681 H673 0.930 . S
C681 C679 1.419 . S
C681 C682 1.362 . S
C682 H674 0.930 . S
C682 C681 1.362 . S
C682 C685 1.409 . S
C683 H675 0.930 . S
C683 C684 1.355 . S
C683 C685 1.415 . S
C684 C683 1.355 . S
C684 C686 1.419 . S
C685 C680 1.425 . S
C685 C682 1.409 . S
C685 C683 1.415 . S
C686 H676 0.930 . S
C686 C684 1.419 . S
C686 C687 1.362 . S
C687 H677 0.930 . S
C687 C680 1.409 . S
C687 C686 1.362 . S
H688 C694 0.930 . S
H689 C697 0.930 . S
H690 C698 0.930 . S
H691 C699 0.930 . S
H692 C702 0.930 . S
H693 C703 0.930 . S
C694 H688 0.930 . S
C694 C695 1.355 . S
C694 C696 1.415 . S
C695 C694 1.355 . S
C695 C697 1.419 . S
C696 C694 1.415 . S
C696 C701 1.425 . S
C696 C703 1.409 . S
C697 H689 0.930 . S
C697 C695 1.419 . S
C697 C698 1.362 . S
C698 H690 0.930 . S
C698 C697 1.362 . S
C698 C701 1.409 . S
C699 H691 0.930 . S
C699 C700 1.355 . S
C699 C701 1.415 . S
C700 C699 1.355 . S
C700 C702 1.419 . S
C701 C696 1.425 . S
C701 C698 1.409 . S
C701 C699 1.415 . S
C702 H692 0.930 . S
C702 C700 1.419 . S
C702 C703 1.362 . S
C703 H693 0.930 . S
C703 C696 1.409 . S
C703 C702 1.362 . S
H704 C710 0.930 . S
H705 C713 0.930 . S
H706 C714 0.930 . S
H707 C715 0.930 . S
H708 C718 0.930 . S
H709 C719 0.930 . S
C710 H704 0.930 . S
C710 C711 1.355 . S
C710 C712 1.415 . S
C711 C710 1.355 . S
C711 C713 1.419 . S
C712 C710 1.415 . S
C712 C717 1.425 . S
C712 C719 1.409 . S
C713 H705 0.930 . S
C713 C711 1.419 . S
C713 C714 1.362 . S
C714 H706 0.930 . S
C714 C713 1.362 . S
C714 C717 1.409 . S
C715 H707 0.930 . S
C715 C716 1.355 . S
C715 C717 1.415 . S
C716 C715 1.355 . S
C716 C718 1.419 . S
C717 C712 1.425 . S
C717 C714 1.409 . S
C717 C715 1.415 . S
C718 H708 0.930 . S
C718 C716 1.419 . S
C718 C719 1.362 . S
C719 H709 0.930 . S
C719 C712 1.409 . S
C719 C718 1.362 . S
H720 C726 0.930 . S
H721 C729 0.930 . S
H722 C730 0.930 . S
H723 C731 0.930 . S
H724 C734 0.930 . S
H725 C735 0.930 . S
C726 H720 0.930 . S
C726 C727 1.355 . S
C726 C728 1.415 . S
C727 C726 1.355 . S
C727 C729 1.419 . S
C728 C726 1.415 . S
C728 C733 1.425 . S
C728 C735 1.409 . S
C729 H721 0.930 . S
C729 C727 1.419 . S
C729 C730 1.362 . S
C730 H722 0.930 . S
C730 C729 1.362 . S
C730 C733 1.409 . S
C731 H723 0.930 . S
C731 C732 1.355 . S
C731 C733 1.415 . S
C732 C731 1.355 . S
C732 C734 1.419 . S
C733 C728 1.425 . S
C733 C730 1.409 . S
C733 C731 1.415 . S
C734 H724 0.930 . S
C734 C732 1.419 . S
C734 C735 1.362 . S
C735 H725 0.930 . S
C735 C728 1.409 . S
C735 C734 1.362 . S
H736 C742 0.930 . S
H737 C745 0.930 . S
H738 C746 0.930 . S
H739 C747 0.930 . S
H740 C750 0.930 . S
H741 C751 0.930 . S
C742 H736 0.930 . S
C742 C743 1.355 . S
C742 C744 1.415 . S
C743 C742 1.355 . S
C743 C745 1.419 . S
C744 C742 1.415 . S
C744 C749 1.425 . S
C744 C751 1.409 . S
C745 H737 0.930 . S
C745 C743 1.419 . S
C745 C746 1.362 . S
C746 H738 0.930 . S
C746 C745 1.362 . S
C746 C749 1.409 . S
C747 H739 0.930 . S
C747 C748 1.355 . S
C747 C749 1.415 . S
C748 C747 1.355 . S
C748 C750 1.419 . S
C749 C744 1.425 . S
C749 C746 1.409 . S
C749 C747 1.415 . S
C750 H740 0.930 . S
C750 C748 1.419 . S
C750 C751 1.362 . S
C751 H741 0.930 . S
C751 C744 1.409 . S
C751 C750 1.362 . S
H752 C758 0.930 . S
H753 C761 0.930 . S
H754 C762 0.930 . S
H755 C763 0.930 . S
H756 C766 0.930 . S
H757 C767 0.930 . S
C758 H752 0.930 . S
C758 C759 1.355 1_554 S
C758 C760 1.415 . S
C759 C758 1.355 1_556 S
C759 C761 1.419 . S
C760 C758 1.415 . S
C760 C765 1.425 1_554 S
C760 C767 1.409 . S
C761 H753 0.930 . S
C761 C759 1.419 . S
C761 C762 1.362 . S
C762 H754 0.930 . S
C762 C761 1.362 . S
C762 C765 1.409 . S
C763 H755 0.930 . S
C763 C764 1.355 1_556 S
C763 C765 1.415 . S
C764 C763 1.355 1_554 S
C764 C766 1.419 . S
C765 C760 1.425 1_556 S
C765 C762 1.409 . S
C765 C763 1.415 . S
C766 H756 0.930 . S
C766 C764 1.419 . S
C766 C767 1.362 . S
C767 H757 0.930 . S
C767 C760 1.409 . S
C767 C766 1.362 . S
H768 C774 0.930 . S
H769 C777 0.930 . S
H770 C778 0.930 . S
H771 C779 0.930 . S
H772 C782 0.930 . S
H773 C783 0.930 . S
C774 H768 0.930 . S
C774 C775 1.355 . S
C774 C776 1.415 . S
C775 C774 1.355 . S
C775 C777 1.419 . S
C776 C774 1.415 . S
C776 C781 1.425 . S
C776 C783 1.409 . S
C777 H769 0.930 . S
C777 C775 1.419 . S
C777 C778 1.362 . S
C778 H770 0.930 . S
C778 C777 1.362 . S
C778 C781 1.409 . S
C779 H771 0.930 . S
C779 C780 1.355 . S
C779 C781 1.415 . S
C780 C779 1.355 . S
C780 C782 1.419 . S
C781 C776 1.425 . S
C781 C778 1.409 . S
C781 C779 1.415 . S
C782 H772 0.930 . S
C782 C780 1.419 . S
C782 C783 1.362 . S
C783 H773 0.930 . S
C783 C776 1.409 . S
C783 C782 1.362 . S
H784 C790 0.930 . S
H785 C793 0.930 . S
H786 C794 0.930 . S
H787 C795 0.930 . S
H788 C798 0.930 . S
H789 C799 0.930 . S
C790 H784 0.930 . S
C790 C791 1.355 . S
C790 C792 1.415 . S
C791 C790 1.355 . S
C791 C793 1.419 . S
C792 C790 1.415 . S
C792 C797 1.425 . S
C792 C799 1.409 . S
C793 H785 0.930 . S
C793 C791 1.419 . S
C793 C794 1.362 . S
C794 H786 0.930 . S
C794 C793 1.362 . S
C794 C797 1.409 . S
C795 H787 0.930 . S
C795 C796 1.355 . S
C795 C797 1.415 . S
C796 C795 1.355 . S
C796 C798 1.419 . S
C797 C792 1.425 . S
C797 C794 1.409 . S
C797 C795 1.415 . S
C798 H788 0.930 . S
C798 C796 1.419 . S
C798 C799 1.362 . S
C799 H789 0.930 . S
C799 C792 1.409 . S
C799 C798 1.362 . S
H800 C806 0.930 . S
H801 C809 0.930 . S
H802 C810 0.930 . S
H803 C811 0.930 . S
H804 C814 0.930 . S
H805 C815 0.930 . S
C806 H800 0.930 . S
C806 C807 1.355 1_556 S
C806 C808 1.415 . S
C807 C806 1.355 1_554 S
C807 C809 1.419 . S
C808 C806 1.415 . S
C808 C813 1.425 1_556 S
C808 C815 1.409 . S
C809 H801 0.930 . S
C809 C807 1.419 . S
C809 C810 1.362 . S
C810 H802 0.930 . S
C810 C809 1.362 . S
C810 C813 1.409 . S
C811 H803 0.930 . S
C811 C812 1.355 1_554 S
C811 C813 1.415 . S
C812 C811 1.355 1_556 S
C812 C814 1.419 . S
C813 C808 1.425 1_554 S
C813 C810 1.409 . S
C813 C811 1.415 . S
C814 H804 0.930 . S
C814 C812 1.419 . S
C814 C815 1.362 . S
C815 H805 0.930 . S
C815 C808 1.409 . S
C815 C814 1.362 . S
C439 C14 1.273 . S
C444 C338 1.305 . S
C455 C50 1.305 . S
C460 C374 1.270 . S
C471 C86 1.187 . S
C476 C410 1.243 . S
C487 C122 1.260 . S
C492 C230 1.303 . S
C503 C266 1.253 . S
C508 C158 1.192 . S
C519 C302 1.181 . S
C524 C194 1.188 . S
C535 C363 1.691 . S
C540 C3 1.712 . S
C551 C39 1.702 . S
C556 C399 1.701 . S
C567 C75 1.688 . S
C572 C219 1.718 . S
C583 C111 1.694 . S
C588 C255 1.709 . S
C599 C147 1.718 . S
C604 C291 1.689 . S
C615 C183 1.703 . S
C620 C327 1.706 . S
C631 C362 1.056 . S
C636 C2 1.021 . S
C647 C38 1.029 . S
C652 C398 1.047 . S
C663 C74 1.045 . S
C668 C218 1.029 . S
C679 C110 1.062 . S
C684 C254 1.023 . S
C695 C146 1.060 . S
C700 C290 1.021 . S
C711 C182 1.045 . S
C716 C326 1.045 . S
C727 C4 1.627 . S
C732 C220 1.628 . S
C743 C256 1.628 . S
C748 C40 1.625 . S
C759 C76 1.627 . S
C764 C292 1.628 . S
C775 C112 1.624 . S
C780 C328 1.629 . S
C791 C148 1.627 . S
C796 C364 1.626 . S
C807 C400 1.629 . S
C812 C184 1.626 . S
