# Generated by pormake.
# Topology umv, (4)-cn, num edge types: 1
# Building blocks:
#     Node 0, Type 0, BuildingBlock: NAHDIM_clean_sbu_0, # of connection points: 4
#     Node 1, Type 0, BuildingBlock: NAHDIM_clean_sbu_0, # of connection points: 4
#     Node 2, Type 0, BuildingBlock: NAHDIM_clean_sbu_0, # of connection points: 4
#     Node 3, Type 0, BuildingBlock: NAHDIM_clean_sbu_0, # of connection points: 4
#     Node 4, Type 0, BuildingBlock: NAHDIM_clean_sbu_0, # of connection points: 4
#     Node 5, Type 0, BuildingBlock: NAHDIM_clean_sbu_0, # of connection points: 4
#     Node 6, Type 0, BuildingBlock: NAHDIM_clean_sbu_0, # of connection points: 4
#     Node 7, Type 0, BuildingBlock: NAHDIM_clean_sbu_0, # of connection points: 4
#     Node 8, Type 0, BuildingBlock: NAHDIM_clean_sbu_0, # of connection points: 4
#     Node 9, Type 0, BuildingBlock: NAHDIM_clean_sbu_0, # of connection points: 4
#     Node 10, Type 0, BuildingBlock: NAHDIM_clean_sbu_0, # of connection points: 4
#     Node 11, Type 0, BuildingBlock: NAHDIM_clean_sbu_0, # of connection points: 4
#     Node 12, Type 0, BuildingBlock: NAHDIM_clean_sbu_0, # of connection points: 4
#     Node 13, Type 0, BuildingBlock: NAHDIM_clean_sbu_0, # of connection points: 4
#     Node 14, Type 0, BuildingBlock: NAHDIM_clean_sbu_0, # of connection points: 4
#     Node 15, Type 0, BuildingBlock: NAHDIM_clean_sbu_0, # of connection points: 4
#     Node 16, Type 0, BuildingBlock: NAHDIM_clean_sbu_0, # of connection points: 4
#     Node 17, Type 0, BuildingBlock: NAHDIM_clean_sbu_0, # of connection points: 4
#     Node 18, Type 0, BuildingBlock: NAHDIM_clean_sbu_0, # of connection points: 4
#     Node 19, Type 0, BuildingBlock: NAHDIM_clean_sbu_0, # of connection points: 4
#     Node 20, Type 0, BuildingBlock: NAHDIM_clean_sbu_0, # of connection points: 4
#     Node 21, Type 0, BuildingBlock: NAHDIM_clean_sbu_0, # of connection points: 4
#     Node 22, Type 0, BuildingBlock: NAHDIM_clean_sbu_0, # of connection points: 4
#     Node 23, Type 0, BuildingBlock: NAHDIM_clean_sbu_0, # of connection points: 4
#     Node 24, Type 0, BuildingBlock: NAHDIM_clean_sbu_0, # of connection points: 4
#     Node 25, Type 0, BuildingBlock: NAHDIM_clean_sbu_0, # of connection points: 4
#     Node 26, Type 0, BuildingBlock: NAHDIM_clean_sbu_0, # of connection points: 4
#     Node 27, Type 0, BuildingBlock: NAHDIM_clean_sbu_0, # of connection points: 4
#     Node 28, Type 0, BuildingBlock: NAHDIM_clean_sbu_0, # of connection points: 4
#     Node 29, Type 0, BuildingBlock: NAHDIM_clean_sbu_0, # of connection points: 4
#     Node 30, Type 0, BuildingBlock: NAHDIM_clean_sbu_0, # of connection points: 4
#     Node 31, Type 0, BuildingBlock: NAHDIM_clean_sbu_0, # of connection points: 4
#     Edge 32, Type (0, 0), BuildingBlock: XIVTED_clean_linker_0, # of connection points: 2
#     Edge 33, Type (0, 0), BuildingBlock: XIVTED_clean_linker_0, # of connection points: 2
#     Edge 34, Type (0, 0), BuildingBlock: XIVTED_clean_linker_0, # of connection points: 2
#     Edge 35, Type (0, 0), BuildingBlock: XIVTED_clean_linker_0, # of connection points: 2
#     Edge 36, Type (0, 0), BuildingBlock: XIVTED_clean_linker_0, # of connection points: 2
#     Edge 37, Type (0, 0), BuildingBlock: XIVTED_clean_linker_0, # of connection points: 2
#     Edge 38, Type (0, 0), BuildingBlock: XIVTED_clean_linker_0, # of connection points: 2
#     Edge 39, Type (0, 0), BuildingBlock: XIVTED_clean_linker_0, # of connection points: 2
#     Edge 40, Type (0, 0), BuildingBlock: XIVTED_clean_linker_0, # of connection points: 2
#     Edge 41, Type (0, 0), BuildingBlock: XIVTED_clean_linker_0, # of connection points: 2
#     Edge 42, Type (0, 0), BuildingBlock: XIVTED_clean_linker_0, # of connection points: 2
#     Edge 43, Type (0, 0), BuildingBlock: XIVTED_clean_linker_0, # of connection points: 2
#     Edge 44, Type (0, 0), BuildingBlock: XIVTED_clean_linker_0, # of connection points: 2
#     Edge 45, Type (0, 0), BuildingBlock: XIVTED_clean_linker_0, # of connection points: 2
#     Edge 46, Type (0, 0), BuildingBlock: XIVTED_clean_linker_0, # of connection points: 2
#     Edge 47, Type (0, 0), BuildingBlock: XIVTED_clean_linker_0, # of connection points: 2
#     Edge 48, Type (0, 0), BuildingBlock: XIVTED_clean_linker_0, # of connection points: 2
#     Edge 49, Type (0, 0), BuildingBlock: XIVTED_clean_linker_0, # of connection points: 2
#     Edge 50, Type (0, 0), BuildingBlock: XIVTED_clean_linker_0, # of connection points: 2
#     Edge 51, Type (0, 0), BuildingBlock: XIVTED_clean_linker_0, # of connection points: 2
#     Edge 52, Type (0, 0), BuildingBlock: XIVTED_clean_linker_0, # of connection points: 2
#     Edge 53, Type (0, 0), BuildingBlock: XIVTED_clean_linker_0, # of connection points: 2
#     Edge 54, Type (0, 0), BuildingBlock: XIVTED_clean_linker_0, # of connection points: 2
#     Edge 55, Type (0, 0), BuildingBlock: XIVTED_clean_linker_0, # of connection points: 2
#     Edge 56, Type (0, 0), BuildingBlock: XIVTED_clean_linker_0, # of connection points: 2
#     Edge 57, Type (0, 0), BuildingBlock: XIVTED_clean_linker_0, # of connection points: 2
#     Edge 58, Type (0, 0), BuildingBlock: XIVTED_clean_linker_0, # of connection points: 2
#     Edge 59, Type (0, 0), BuildingBlock: XIVTED_clean_linker_0, # of connection points: 2
#     Edge 60, Type (0, 0), BuildingBlock: XIVTED_clean_linker_0, # of connection points: 2
#     Edge 61, Type (0, 0), BuildingBlock: XIVTED_clean_linker_0, # of connection points: 2
#     Edge 62, Type (0, 0), BuildingBlock: XIVTED_clean_linker_0, # of connection points: 2
#     Edge 63, Type (0, 0), BuildingBlock: XIVTED_clean_linker_0, # of connection points: 2
#     Edge 64, Type (0, 0), BuildingBlock: XIVTED_clean_linker_0, # of connection points: 2
#     Edge 65, Type (0, 0), BuildingBlock: XIVTED_clean_linker_0, # of connection points: 2
#     Edge 66, Type (0, 0), BuildingBlock: XIVTED_clean_linker_0, # of connection points: 2
#     Edge 67, Type (0, 0), BuildingBlock: XIVTED_clean_linker_0, # of connection points: 2
#     Edge 68, Type (0, 0), BuildingBlock: XIVTED_clean_linker_0, # of connection points: 2
#     Edge 69, Type (0, 0), BuildingBlock: XIVTED_clean_linker_0, # of connection points: 2
#     Edge 70, Type (0, 0), BuildingBlock: XIVTED_clean_linker_0, # of connection points: 2
#     Edge 71, Type (0, 0), BuildingBlock: XIVTED_clean_linker_0, # of connection points: 2
#     Edge 72, Type (0, 0), BuildingBlock: XIVTED_clean_linker_0, # of connection points: 2
#     Edge 73, Type (0, 0), BuildingBlock: XIVTED_clean_linker_0, # of connection points: 2
#     Edge 74, Type (0, 0), BuildingBlock: XIVTED_clean_linker_0, # of connection points: 2
#     Edge 75, Type (0, 0), BuildingBlock: XIVTED_clean_linker_0, # of connection points: 2
#     Edge 76, Type (0, 0), BuildingBlock: XIVTED_clean_linker_0, # of connection points: 2
#     Edge 77, Type (0, 0), BuildingBlock: XIVTED_clean_linker_0, # of connection points: 2
#     Edge 78, Type (0, 0), BuildingBlock: XIVTED_clean_linker_0, # of connection points: 2
#     Edge 79, Type (0, 0), BuildingBlock: XIVTED_clean_linker_0, # of connection points: 2
#     Edge 80, Type (0, 0), BuildingBlock: XIVTED_clean_linker_0, # of connection points: 2
#     Edge 81, Type (0, 0), BuildingBlock: XIVTED_clean_linker_0, # of connection points: 2
#     Edge 82, Type (0, 0), BuildingBlock: XIVTED_clean_linker_0, # of connection points: 2
#     Edge 83, Type (0, 0), BuildingBlock: XIVTED_clean_linker_0, # of connection points: 2
#     Edge 84, Type (0, 0), BuildingBlock: XIVTED_clean_linker_0, # of connection points: 2
#     Edge 85, Type (0, 0), BuildingBlock: XIVTED_clean_linker_0, # of connection points: 2
#     Edge 86, Type (0, 0), BuildingBlock: XIVTED_clean_linker_0, # of connection points: 2
#     Edge 87, Type (0, 0), BuildingBlock: XIVTED_clean_linker_0, # of connection points: 2
#     Edge 88, Type (0, 0), BuildingBlock: XIVTED_clean_linker_0, # of connection points: 2
#     Edge 89, Type (0, 0), BuildingBlock: XIVTED_clean_linker_0, # of connection points: 2
#     Edge 90, Type (0, 0), BuildingBlock: XIVTED_clean_linker_0, # of connection points: 2
#     Edge 91, Type (0, 0), BuildingBlock: XIVTED_clean_linker_0, # of connection points: 2
#     Edge 92, Type (0, 0), BuildingBlock: XIVTED_clean_linker_0, # of connection points: 2
#     Edge 93, Type (0, 0), BuildingBlock: XIVTED_clean_linker_0, # of connection points: 2
#     Edge 94, Type (0, 0), BuildingBlock: XIVTED_clean_linker_0, # of connection points: 2
#     Edge 95, Type (0, 0), BuildingBlock: XIVTED_clean_linker_0, # of connection points: 2
# Relax obj value: 0.140
# Max RMSD: 0.096
# Mean RMSD: 0.096
data_MOF--net-umv--node1-NAHDIM_clean_sbu_0--edge1-XIVTED_clean_linker_0
_symmetry_space_group_name_H-M    P1
_symmetry_Int_Tables_number       1
_symmetry_cell_setting            triclinic
loop_
_symmetry_equiv_pos_as_xyz
'x, y, z'
_cell_length_a     96.658802
_cell_length_b     23.707888
_cell_length_c     78.815951
_cell_angle_alpha  90.030125
_cell_angle_beta   89.978875
_cell_angle_gamma 90.0171
loop_
_atom_site_label
_atom_site_type_symbol
_atom_site_fract_x
_atom_site_fract_y
_atom_site_fract_z
_atom_type_partial_charge
C0 C 0.02383 0.13897 0.28981 0.0
O1 O 0.01917 0.14506 0.30537 0.0
O2 O 0.03692 0.02816 0.32011 0.0
Zn3 Zn 0.04564 0.09539 0.30871 0.0
O4 O 0.04516 0.16454 0.3234 0.0
C5 C 0.07246 0.05037 0.31427 0.0
O6 O 0.06591 0.02656 0.327 0.0
O7 O 0.03546 0.11522 0.28752 0.0
C8 C 0.04901 0.16726 0.33878 0.0
O9 O 0.05332 0.1215 0.34654 0.0
C10 C 0.02853 0.03128 0.33249 0.0
O11 O 0.02466 0.08094 0.33814 0.0
O12 O 0.06567 0.08033 0.30384 0.0
C13 C 0.22676 0.08813 0.29583 0.0
O14 O 0.23167 0.08307 0.3113 0.0
O15 O 0.20697 0.17618 0.33012 0.0
Zn16 Zn 0.20277 0.11124 0.31469 0.0
O17 O 0.20559 0.03884 0.32724 0.0
C18 C 0.17481 0.10086 0.32145 0.0
O19 O 0.18046 0.09409 0.33648 0.0
O20 O 0.21447 0.10597 0.29385 0.0
C21 C 0.21181 0.03352 0.34132 0.0
O22 O 0.21737 0.07797 0.34857 0.0
C23 C 0.21618 0.214 0.32857 0.0
O24 O 0.22436 0.21381 0.31526 0.0
O25 O 0.18258 0.11206 0.30889 0.0
C26 C 0.01886 0.05317 0.94686 0.0
O27 O 0.0153 0.04519 0.93095 0.0
O28 O 0.03614 0.16883 0.91927 0.0
Zn29 Zn 0.04267 0.09849 0.93101 0.0
O30 O 0.04292 0.03419 0.9146 0.0
C31 C 0.06811 0.15554 0.94046 0.0
O32 O 0.06125 0.20157 0.93654 0.0
O33 O 0.03023 0.07762 0.95017 0.0
C34 C 0.05079 0.03484 0.90171 0.0
O35 O 0.05881 0.07874 0.89907 0.0
C36 C 0.02907 0.16696 0.90569 0.0
O37 O 0.02533 0.11785 0.89948 0.0
O38 O 0.06209 0.10805 0.93943 0.0
C39 C 0.22096 0.22433 0.94267 0.0
O40 O 0.22529 0.23851 0.92745 0.0
O41 O 0.2 0.12452 0.9111 0.0
Zn42 Zn 0.19663 0.19556 0.92426 0.0
O43 O 0.20003 0.26039 0.90864 0.0
C44 C 0.17087 0.15736 0.93858 0.0
O45 O 0.17788 0.11079 0.94132 0.0
O46 O 0.209 0.20297 0.9444 0.0
C47 C 0.19648 0.25616 0.89319 0.0
O48 O 0.1905 0.20959 0.88791 0.0
C49 C 0.21053 0.09266 0.91212 0.0
O50 O 0.22017 0.1035 0.92339 0.0
O51 O 0.17685 0.19898 0.9316 0.0
C52 C 0.97789 0.84625 0.70276 0.0
O53 O 0.98223 0.84074 0.68706 0.0
O54 O 0.9632 0.96733 0.67464 0.0
Zn55 Zn 0.95586 0.89577 0.68505 0.0
O56 O 0.95665 0.83014 0.66892 0.0
C57 C 0.92801 0.91767 0.67829 0.0
O58 O 0.93383 0.93206 0.66387 0.0
O59 O 0.96663 0.87228 0.70556 0.0
C60 C 0.95591 0.82961 0.65283 0.0
O61 O 0.95499 0.87726 0.64441 0.0
C62 C 0.9732 0.96867 0.66416 0.0
O63 O 0.97962 0.92172 0.66015 0.0
O64 O 0.9357 0.90377 0.69066 0.0
C65 C 0.77647 0.89235 0.70119 0.0
O66 O 0.77162 0.89907 0.68575 0.0
O67 O 0.79171 0.78399 0.67035 0.0
Zn68 Zn 0.79894 0.85362 0.68201 0.0
O69 O 0.79722 0.92268 0.66738 0.0
C70 C 0.82706 0.82643 0.67588 0.0
O71 O 0.82155 0.80628 0.6619 0.0
O72 O 0.7883 0.87004 0.70316 0.0
C73 C 0.80007 0.9263 0.65169 0.0
O74 O 0.80411 0.88123 0.64336 0.0
C75 C 0.78252 0.78558 0.65882 0.0
O76 O 0.77711 0.8342 0.65441 0.0
O77 O 0.81916 0.84621 0.6873 0.0
C78 C 0.96384 0.87612 0.04029 0.0
O79 O 0.96826 0.88183 0.05595 0.0
O80 O 0.94892 0.76774 0.07019 0.0
Zn81 Zn 0.94115 0.83652 0.05859 0.0
O82 O 0.94205 0.90523 0.07345 0.0
C83 C 0.91358 0.79732 0.06313 0.0
O84 O 0.91944 0.77096 0.07589 0.0
O85 O 0.952 0.85453 0.03771 0.0
C86 C 0.93808 0.90746 0.08879 0.0
O87 O 0.93345 0.86165 0.09626 0.0
C88 C 0.95756 0.77013 0.08232 0.0
O89 O 0.96207 0.81942 0.08755 0.0
O90 O 0.92108 0.82593 0.05308 0.0
C91 C 0.76254 0.90078 0.0403 0.0
O92 O 0.75652 0.90003 0.05525 0.0
O93 O 0.78062 0.98297 0.07534 0.0
Zn94 Zn 0.78528 0.91421 0.06159 0.0
O95 O 0.77941 0.84447 0.07398 0.0
C96 C 0.81273 0.88467 0.06995 0.0
O97 O 0.80634 0.87111 0.08407 0.0
O98 O 0.77536 0.912 0.03946 0.0
C99 C 0.78183 0.7973 0.06693 0.0
O100 O 0.78735 0.79653 0.0517 0.0
C101 C 0.78054 0.97908 0.09142 0.0
O102 O 0.78325 0.93026 0.09854 0.0
O103 O 0.80585 0.90726 0.058 0.0
C104 C 0.02391 0.62756 0.79542 0.0
O105 O 0.01923 0.62998 0.81106 0.0
O106 O 0.0399 0.5173 0.82484 0.0
Zn107 Zn 0.04692 0.58733 0.81324 0.0
O108 O 0.04556 0.65379 0.82886 0.0
C109 C 0.07496 0.57833 0.82047 0.0
O110 O 0.06933 0.57412 0.8356 0.0
O111 O 0.03583 0.60678 0.79274 0.0
C112 C 0.05096 0.70006 0.82417 0.0
O113 O 0.05709 0.7028 0.80931 0.0
C114 C 0.03355 0.52097 0.83893 0.0
O115 O 0.03124 0.57094 0.84554 0.0
O116 O 0.06708 0.58077 0.8076 0.0
C117 C 0.22486 0.66903 0.78645 0.0
O118 O 0.23031 0.67378 0.80165 0.0
O119 O 0.20674 0.77205 0.81713 0.0
Zn120 Zn 0.20172 0.69944 0.80553 0.0
O121 O 0.20553 0.6342 0.82092 0.0
C122 C 0.17441 0.69527 0.81553 0.0
O123 O 0.18114 0.70228 0.82987 0.0
O124 O 0.21236 0.68385 0.78428 0.0
C125 C 0.20273 0.58585 0.81489 0.0
O126 O 0.19807 0.58203 0.79927 0.0
C127 C 0.21491 0.77262 0.82977 0.0
O128 O 0.22096 0.72556 0.83447 0.0
O129 O 0.18121 0.69589 0.80172 0.0
C130 C 0.01894 0.57463 0.44486 0.0
O131 O 0.01415 0.5651 0.42952 0.0
O132 O 0.0344 0.68384 0.41362 0.0
Zn133 Zn 0.04166 0.61554 0.42584 0.0
O134 O 0.04099 0.54624 0.41137 0.0
C135 C 0.06831 0.67164 0.43117 0.0
O136 O 0.06206 0.71737 0.42573 0.0
O137 O 0.03056 0.59895 0.44657 0.0
C138 C 0.04707 0.54224 0.39714 0.0
O139 O 0.05363 0.58618 0.39095 0.0
C140 C 0.02681 0.681 0.40049 0.0
O141 O 0.02306 0.63146 0.39461 0.0
O142 O 0.06155 0.6259 0.43239 0.0
C143 C 0.22066 0.63525 0.45455 0.0
O144 O 0.2261 0.63828 0.4393 0.0
O145 O 0.20318 0.53191 0.42296 0.0
Zn146 Zn 0.19783 0.60435 0.43461 0.0
O147 O 0.20228 0.66922 0.41937 0.0
C148 C 0.17136 0.65326 0.44072 0.0
O149 O 0.17881 0.6996 0.44047 0.0
O150 O 0.20831 0.61771 0.45615 0.0
C151 C 0.19761 0.67332 0.40439 0.0
O152 O 0.18956 0.63337 0.39837 0.0
C153 C 0.21288 0.53068 0.41205 0.0
O154 O 0.22001 0.57675 0.40905 0.0
O155 O 0.17735 0.60589 0.43893 0.0
C156 C 0.97307 0.31507 0.19281 0.0
O157 O 0.97673 0.30548 0.17702 0.0
O158 O 0.95566 0.42041 0.16284 0.0
Zn159 Zn 0.94894 0.35381 0.17633 0.0
O160 O 0.94823 0.28347 0.16228 0.0
C161 C 0.92306 0.41274 0.18267 0.0
O162 O 0.92914 0.45509 0.17494 0.0
O163 O 0.96148 0.3383 0.19579 0.0
C164 C 0.94143 0.27978 0.14855 0.0
O165 O 0.9349 0.32433 0.14271 0.0
C166 C 0.9622 0.41648 0.1489 0.0
O167 O 0.96531 0.36646 0.14283 0.0
O168 O 0.92967 0.36707 0.18491 0.0
C169 C 0.77031 0.4597 0.19589 0.0
O170 O 0.76554 0.46727 0.18046 0.0
O171 O 0.7894 0.34201 0.16898 0.0
Zn172 Zn 0.79349 0.42015 0.17732 0.0
O173 O 0.78882 0.47568 0.15915 0.0
C174 C 0.82046 0.3933 0.19116 0.0
O175 O 0.81405 0.34946 0.19765 0.0
O176 O 0.78226 0.43843 0.19789 0.0
C177 C 0.79268 0.46946 0.14387 0.0
O178 O 0.80016 0.42533 0.13968 0.0
C179 C 0.77912 0.33346 0.15926 0.0
O180 O 0.77094 0.37574 0.15538 0.0
O181 O 0.81368 0.42847 0.18232 0.0
C182 C 0.9747 0.40257 0.54728 0.0
O183 O 0.98053 0.40857 0.56223 0.0
O184 O 0.96167 0.30856 0.58183 0.0
Zn185 Zn 0.95315 0.37299 0.56887 0.0
O186 O 0.95521 0.44578 0.58148 0.0
C187 C 0.92569 0.38009 0.55418 0.0
O188 O 0.93201 0.40572 0.54159 0.0
O189 O 0.96241 0.38389 0.54649 0.0
C190 C 0.94839 0.45507 0.59495 0.0
O191 O 0.94027 0.41542 0.60101 0.0
C192 C 0.96881 0.31583 0.59521 0.0
O193 O 0.97126 0.36722 0.60065 0.0
O194 O 0.93276 0.3606 0.56642 0.0
C195 C 0.77168 0.33376 0.54615 0.0
O196 O 0.76766 0.32766 0.56196 0.0
O197 O 0.78783 0.44245 0.57576 0.0
Zn198 Zn 0.79507 0.37448 0.56326 0.0
O199 O 0.79497 0.30473 0.57777 0.0
C200 C 0.82298 0.40815 0.56701 0.0
O201 O 0.81805 0.42435 0.58175 0.0
O202 O 0.78333 0.35648 0.54315 0.0
C203 C 0.79859 0.30102 0.59321 0.0
O204 O 0.8026 0.34639 0.60142 0.0
C205 C 0.77963 0.43979 0.58834 0.0
O206 O 0.77502 0.39055 0.59346 0.0
O207 O 0.81477 0.38725 0.55611 0.0
C208 C 0.52525 0.18144 0.79303 0.0
O209 O 0.52046 0.18922 0.80845 0.0
O210 O 0.54613 0.10909 0.8281 0.0
Zn211 Zn 0.54953 0.17372 0.81215 0.0
O212 O 0.54446 0.24641 0.82365 0.0
C213 C 0.57734 0.19648 0.81887 0.0
O214 O 0.57137 0.21193 0.83311 0.0
O215 O 0.538 0.17006 0.79107 0.0
C216 C 0.5376 0.24924 0.83737 0.0
O217 O 0.5335 0.20258 0.84481 0.0
C218 C 0.53721 0.07021 0.82633 0.0
O219 O 0.52933 0.06923 0.81277 0.0
O220 O 0.56987 0.17697 0.80695 0.0
C221 C 0.72824 0.08522 0.79737 0.0
O222 O 0.73281 0.07804 0.81292 0.0
O223 O 0.71574 0.19106 0.8289 0.0
Zn224 Zn 0.70624 0.12846 0.81613 0.0
O225 O 0.70535 0.05672 0.82956 0.0
C226 C 0.68046 0.18654 0.81978 0.0
O227 O 0.68716 0.2105 0.83236 0.0
O228 O 0.71671 0.10969 0.79512 0.0
C229 C 0.69833 0.05022 0.84303 0.0
O230 O 0.69149 0.09319 0.84938 0.0
C231 C 0.72167 0.18502 0.84317 0.0
O232 O 0.72242 0.13468 0.85005 0.0
O233 O 0.6867 0.15075 0.81053 0.0
C234 C 0.5183 0.07385 0.44421 0.0
O235 O 0.51422 0.06371 0.42861 0.0
O236 O 0.53341 0.19204 0.41476 0.0
Zn237 Zn 0.5405 0.12146 0.42599 0.0
O238 O 0.53957 0.05397 0.41055 0.0
C239 C 0.56883 0.13498 0.41969 0.0
O240 O 0.56368 0.14064 0.40437 0.0
O241 O 0.52941 0.10145 0.4466 0.0
C242 C 0.53971 0.05198 0.39444 0.0
O243 O 0.54025 0.09888 0.3856 0.0
C244 C 0.52304 0.19263 0.40485 0.0
O245 O 0.51623 0.14572 0.40189 0.0
O246 O 0.56058 0.12955 0.43213 0.0
C247 C 0.72071 0.14146 0.45203 0.0
O248 O 0.72542 0.14444 0.43641 0.0
O249 O 0.70579 0.04019 0.42079 0.0
Zn250 Zn 0.69783 0.10657 0.43347 0.0
O251 O 0.69888 0.17719 0.4195 0.0
C252 C 0.67053 0.06518 0.42817 0.0
O253 O 0.67686 0.03881 0.41573 0.0
O254 O 0.70858 0.12254 0.45452 0.0
C255 C 0.6931 0.18286 0.40514 0.0
O256 O 0.68639 0.14012 0.39845 0.0
C257 C 0.71307 0.04575 0.40746 0.0
O258 O 0.71629 0.09647 0.40206 0.0
O259 O 0.67763 0.09458 0.43846 0.0
C260 C 0.46769 0.87618 0.20267 0.0
O261 O 0.47282 0.87905 0.18725 0.0
O262 O 0.4531 0.98786 0.17376 0.0
Zn263 Zn 0.44527 0.91781 0.18456 0.0
O264 O 0.44704 0.85201 0.16876 0.0
C265 C 0.41757 0.92546 0.17571 0.0
O266 O 0.42379 0.9276 0.16089 0.0
O267 O 0.45561 0.89523 0.20538 0.0
C268 C 0.44177 0.80534 0.17331 0.0
O269 O 0.43534 0.8022 0.18798 0.0
C270 C 0.45997 0.98424 0.16003 0.0
O271 O 0.46217 0.93441 0.15327 0.0
O272 O 0.42493 0.92521 0.18905 0.0
C273 C 0.2675 0.85259 0.20333 0.0
O274 O 0.262 0.85375 0.18809 0.0
O275 O 0.28586 0.73419 0.17468 0.0
Zn276 Zn 0.28996 0.8111 0.18419 0.0
O277 O 0.28528 0.87083 0.16713 0.0
C278 C 0.31872 0.80039 0.17749 0.0
O279 O 0.31384 0.77145 0.1646 0.0
O280 O 0.27941 0.83086 0.20525 0.0
C281 C 0.2875 0.86852 0.15127 0.0
O282 O 0.29299 0.82292 0.14463 0.0
C283 C 0.27575 0.72569 0.1647 0.0
O284 O 0.26694 0.76676 0.16184 0.0
O285 O 0.31035 0.8195 0.1885 0.0
C286 C 0.4699 0.87815 0.53975 0.0
O287 O 0.47478 0.88386 0.55521 0.0
O288 O 0.45512 0.7736 0.57138 0.0
Zn289 Zn 0.44745 0.84113 0.559 0.0
O290 O 0.449 0.91142 0.57309 0.0
C291 C 0.41974 0.80609 0.56514 0.0
O292 O 0.42583 0.78047 0.57788 0.0
O293 O 0.45797 0.85671 0.53771 0.0
C294 C 0.44411 0.91657 0.58796 0.0
O295 O 0.43811 0.87323 0.59527 0.0
C296 C 0.46316 0.77827 0.58406 0.0
O297 O 0.46724 0.82853 0.58896 0.0
O298 O 0.42713 0.8319 0.55431 0.0
C299 C 0.26767 0.83237 0.55083 0.0
O300 O 0.2634 0.82503 0.5665 0.0
O301 O 0.28374 0.9443 0.58072 0.0
Zn302 Zn 0.2907 0.87506 0.56857 0.0
O303 O 0.2901 0.80606 0.58334 0.0
C304 C 0.3191 0.89823 0.57331 0.0
O305 O 0.31427 0.91302 0.58824 0.0
O306 O 0.27919 0.8567 0.54824 0.0
C307 C 0.29259 0.80291 0.59913 0.0
O308 O 0.29547 0.84885 0.60774 0.0
C309 C 0.27461 0.94247 0.59233 0.0
O310 O 0.26903 0.89389 0.59648 0.0
O311 O 0.31063 0.88374 0.56179 0.0
C312 C 0.51341 0.63347 0.28986 0.0
O313 O 0.50849 0.63264 0.30541 0.0
O314 O 0.52839 0.53267 0.32098 0.0
Zn315 Zn 0.5364 0.59881 0.30819 0.0
O316 O 0.53546 0.66982 0.322 0.0
C317 C 0.56374 0.55725 0.31327 0.0
O318 O 0.55747 0.53068 0.32571 0.0
O319 O 0.52563 0.61587 0.28724 0.0
C320 C 0.54191 0.67745 0.33583 0.0
O321 O 0.54932 0.63624 0.34226 0.0
C322 C 0.52165 0.5387 0.33472 0.0
O323 O 0.51907 0.58964 0.34044 0.0
O324 O 0.55657 0.5867 0.30307 0.0
C325 C 0.7163 0.58785 0.29716 0.0
O326 O 0.72025 0.57334 0.31249 0.0
O327 O 0.69985 0.69876 0.32777 0.0
Zn328 Zn 0.69349 0.62797 0.31602 0.0
O329 O 0.69527 0.55964 0.33101 0.0
C330 C 0.66501 0.63571 0.32234 0.0
O331 O 0.67006 0.64102 0.33772 0.0
O332 O 0.7049 0.61372 0.29526 0.0
C333 C 0.6952 0.55811 0.34712 0.0
O334 O 0.6942 0.6052 0.35582 0.0
C335 C 0.71056 0.70021 0.33713 0.0
O336 O 0.71794 0.65428 0.33928 0.0
O337 O 0.67334 0.63277 0.3099 0.0
C338 C 0.52368 0.6455 0.95156 0.0
O339 O 0.51776 0.63874 0.9367 0.0
O340 O 0.54393 0.74735 0.91953 0.0
Zn341 Zn 0.54626 0.67085 0.9301 0.0
O342 O 0.53899 0.61041 0.91451 0.0
C343 C 0.57361 0.63735 0.92135 0.0
O344 O 0.56772 0.63343 0.9064 0.0
O345 O 0.53611 0.66288 0.95217 0.0
C346 C 0.53758 0.61418 0.89853 0.0
O347 O 0.54095 0.66125 0.89077 0.0
C348 C 0.5326 0.7627 0.91278 0.0
O349 O 0.52183 0.72907 0.91357 0.0
O350 O 0.56651 0.65465 0.9339 0.0
C351 C 0.72232 0.66177 0.94864 0.0
O352 O 0.72723 0.66554 0.93313 0.0
O353 O 0.71095 0.53578 0.92081 0.0
Zn354 Zn 0.70171 0.6044 0.93065 0.0
O355 O 0.70134 0.66997 0.91459 0.0
C356 C 0.67474 0.55998 0.9256 0.0
O357 O 0.68086 0.5385 0.91218 0.0
O358 O 0.71144 0.63298 0.95124 0.0
C359 C 0.6988 0.67096 0.8988 0.0
O360 O 0.69642 0.62365 0.89062 0.0
C361 C 0.72005 0.53739 0.90918 0.0
O362 O 0.72427 0.58638 0.90336 0.0
O363 O 0.6819 0.58795 0.93617 0.0
C364 C 0.46968 0.31641 0.69426 0.0
O365 O 0.47335 0.30482 0.67859 0.0
O366 O 0.45349 0.43272 0.66512 0.0
Zn367 Zn 0.44681 0.36215 0.67675 0.0
O368 O 0.44756 0.29469 0.66132 0.0
C369 C 0.41842 0.37865 0.67158 0.0
O370 O 0.4233 0.38768 0.65628 0.0
O371 O 0.45854 0.34346 0.69691 0.0
C372 C 0.44661 0.29323 0.64525 0.0
O373 O 0.4452 0.34034 0.63666 0.0
C374 C 0.46351 0.43295 0.65467 0.0
O375 O 0.47016 0.38587 0.65144 0.0
O376 O 0.42687 0.36975 0.68362 0.0
C377 C 0.26719 0.39781 0.70438 0.0
O378 O 0.26222 0.39447 0.6889 0.0
O379 O 0.28109 0.28627 0.67507 0.0
Zn380 Zn 0.28957 0.35386 0.6867 0.0
O381 O 0.28908 0.42241 0.67182 0.0
C382 C 0.31664 0.31194 0.68114 0.0
O383 O 0.31014 0.28731 0.66852 0.0
O384 O 0.27909 0.37734 0.70739 0.0
C385 C 0.29419 0.42745 0.65706 0.0
O386 O 0.30006 0.38385 0.64973 0.0
C387 C 0.27369 0.29066 0.6618 0.0
O388 O 0.27062 0.34095 0.65594 0.0
O389 O 0.30969 0.34052 0.69179 0.0
C390 C 0.47872 0.45879 0.05099 0.0
O391 O 0.4826 0.47039 0.06658 0.0
O392 O 0.4628 0.33456 0.07907 0.0
Zn393 Zn 0.45614 0.40591 0.06805 0.0
O394 O 0.45587 0.4688 0.08491 0.0
C395 C 0.43051 0.3499 0.05823 0.0
O396 O 0.43729 0.30303 0.06139 0.0
O397 O 0.46796 0.42915 0.04857 0.0
C398 C 0.44761 0.46749 0.09742 0.0
O399 O 0.43946 0.42362 0.09942 0.0
C400 C 0.46961 0.33531 0.09286 0.0
O401 O 0.47315 0.38392 0.09958 0.0
O402 O 0.43662 0.39698 0.05994 0.0
C403 C 0.27701 0.30423 0.04661 0.0
O404 O 0.27203 0.29197 0.06167 0.0
O405 O 0.29715 0.37797 0.0826 0.0
Zn406 Zn 0.30134 0.31511 0.06618 0.0
O407 O 0.29767 0.24082 0.07739 0.0
C408 C 0.32763 0.35925 0.05443 0.0
O409 O 0.3207 0.40638 0.05226 0.0
O410 O 0.28964 0.31834 0.04525 0.0
C411 C 0.28999 0.23553 0.09037 0.0
O412 O 0.28421 0.28044 0.09709 0.0
C413 C 0.28819 0.41634 0.08019 0.0
O414 O 0.28129 0.41768 0.06585 0.0
O415 O 0.32138 0.31596 0.06 0.0
H416 H 0.09015 0.00034 0.33667 0.0
H417 H 0.15889 0.12065 0.29318 0.0
H418 H 0.08956 0.0985 0.29053 0.0
H419 H 0.15667 0.05859 0.34461 0.0
H420 H 0.13404 0.10232 0.29001 0.0
H421 H 0.11526 0.00882 0.33743 0.0
C422 C 0.09531 0.02319 0.32658 0.0
C423 C 0.08773 0.04924 0.3136 0.0
C424 C 0.13904 0.09275 0.30196 0.0
C425 C 0.1165 0.05947 0.31449 0.0
C426 C 0.15319 0.10324 0.30378 0.0
C427 C 0.15983 0.09144 0.31921 0.0
C428 C 0.13157 0.0698 0.31561 0.0
C429 C 0.15197 0.06874 0.33252 0.0
C430 C 0.10965 0.02826 0.32708 0.0
C431 C 0.095 0.07809 0.30084 0.0
N432 N 0.13828 0.0586 0.3304 0.0
N433 N 0.109 0.08275 0.30165 0.0
H434 H 0.15383 0.249 0.93612 0.0
H435 H 0.08512 0.06877 0.94983 0.0
H436 H 0.15381 0.07241 0.94951 0.0
H437 H 0.08527 0.24746 0.93924 0.0
H438 H 0.11025 0.07123 0.95252 0.0
H439 H 0.1288 0.25117 0.93986 0.0
C440 C 0.14857 0.21072 0.93997 0.0
C441 C 0.15591 0.16025 0.94232 0.0
C442 C 0.10478 0.11003 0.94977 0.0
C443 C 0.12721 0.16243 0.94656 0.0
C444 C 0.09042 0.10868 0.94823 0.0
C445 C 0.08309 0.1579 0.9441 0.0
C446 C 0.11189 0.16088 0.94706 0.0
C447 C 0.0905 0.20843 0.94232 0.0
C448 C 0.13427 0.21203 0.94213 0.0
C449 C 0.14856 0.11214 0.94745 0.0
N450 N 0.10451 0.20849 0.94363 0.0
N451 N 0.13459 0.11429 0.94923 0.0
H452 H 0.91189 0.89615 0.7063 0.0
H453 H 0.84617 0.81357 0.65072 0.0
H454 H 0.90982 0.91672 0.65192 0.0
H455 H 0.84234 0.85842 0.70363 0.0
H456 H 0.8707 0.83708 0.65191 0.0
H457 H 0.88722 0.87129 0.70645 0.0
C458 C 0.90623 0.89592 0.69444 0.0
C459 C 0.91291 0.9085 0.67908 0.0
C460 C 0.8645 0.8416 0.66327 0.0
C461 C 0.88493 0.87905 0.67914 0.0
C462 C 0.85051 0.82774 0.66265 0.0
C463 C 0.84218 0.83432 0.67708 0.0
C464 C 0.87026 0.86159 0.67847 0.0
C465 C 0.8484 0.85301 0.69219 0.0
C466 C 0.8922 0.88166 0.69454 0.0
C467 C 0.90511 0.90749 0.66407 0.0
N468 N 0.8621 0.86605 0.6925 0.0
N469 N 0.89157 0.89248 0.66447 0.0
H470 H 0.89454 0.74897 0.08421 0.0
H471 H 0.82991 0.91003 0.0432 0.0
H472 H 0.89793 0.85564 0.04001 0.0
H473 H 0.82902 0.82455 0.09156 0.0
H474 H 0.85421 0.88261 0.03993 0.0
H475 H 0.8697 0.7665 0.0848 0.0
C476 C 0.89004 0.77558 0.0745 0.0
C477 C 0.89835 0.80134 0.06215 0.0
C478 C 0.84866 0.86988 0.05123 0.0
C479 C 0.86991 0.82206 0.06285 0.0
C480 C 0.83482 0.8856 0.05312 0.0
C481 C 0.82745 0.86987 0.06772 0.0
C482 C 0.85512 0.83794 0.06398 0.0
C483 C 0.8343 0.83798 0.08014 0.0
C484 C 0.87586 0.78581 0.0749 0.0
C485 C 0.89192 0.83521 0.04984 0.0
N486 N 0.84773 0.8231 0.07798 0.0
N487 N 0.87808 0.84497 0.05058 0.0
H488 H 0.08996 0.59836 0.79144 0.0
H489 H 0.15787 0.68336 0.84327 0.0
H490 H 0.09407 0.58439 0.84583 0.0
H491 H 0.15724 0.67169 0.78859 0.0
H492 H 0.13398 0.65144 0.84405 0.0
H493 H 0.11428 0.62699 0.78971 0.0
C494 C 0.096 0.60071 0.80299 0.0
C495 C 0.08995 0.58919 0.81882 0.0
C496 C 0.13903 0.65585 0.83186 0.0
C497 C 0.11766 0.62259 0.81694 0.0
C498 C 0.15268 0.67442 0.83139 0.0
C499 C 0.15958 0.68018 0.81583 0.0
C500 C 0.13214 0.64305 0.81666 0.0
C501 C 0.1523 0.66787 0.80087 0.0
C502 C 0.10986 0.61724 0.80199 0.0
C503 C 0.09826 0.59301 0.83336 0.0
N504 N 0.13894 0.64982 0.80165 0.0
N505 N 0.11164 0.60973 0.83207 0.0
H506 H 0.08646 0.76061 0.42937 0.0
H507 H 0.15291 0.56631 0.44397 0.0
H508 H 0.08442 0.58281 0.44099 0.0
H509 H 0.15506 0.74759 0.43944 0.0
H510 H 0.12771 0.57219 0.44349 0.0
H511 H 0.11153 0.75761 0.43357 0.0
C512 C 0.09125 0.72106 0.43291 0.0
C513 C 0.08333 0.67184 0.43473 0.0
C514 C 0.13368 0.61075 0.44271 0.0
C515 C 0.11199 0.66804 0.43948 0.0
C516 C 0.14808 0.6074 0.44298 0.0
C517 C 0.15611 0.6565 0.44167 0.0
C518 C 0.12724 0.66355 0.44098 0.0
C519 C 0.14928 0.70862 0.44046 0.0
C520 C 0.10557 0.71938 0.43531 0.0
C521 C 0.09011 0.62178 0.43937 0.0
N522 N 0.13523 0.71075 0.44002 0.0
N523 N 0.10404 0.62113 0.44147 0.0
H524 H 0.90494 0.49941 0.17682 0.0
H525 H 0.83887 0.32103 0.20626 0.0
H526 H 0.90734 0.33252 0.19855 0.0
H527 H 0.83652 0.481 0.18025 0.0
H528 H 0.86406 0.33001 0.20703 0.0
H529 H 0.87996 0.49895 0.18158 0.0
C530 C 0.90024 0.46289 0.18274 0.0
C531 C 0.90822 0.41568 0.18711 0.0
C532 C 0.85802 0.36331 0.20126 0.0
C533 C 0.87964 0.41475 0.19252 0.0
C534 C 0.84363 0.35823 0.20084 0.0
C535 C 0.83558 0.40002 0.19302 0.0
C536 C 0.86438 0.41053 0.19383 0.0
C537 C 0.84231 0.44746 0.18627 0.0
C538 C 0.88597 0.46261 0.18542 0.0
C539 C 0.90158 0.36965 0.19483 0.0
N540 N 0.85632 0.45124 0.18673 0.0
N541 N 0.88766 0.37017 0.19716 0.0
H542 H 0.90986 0.35738 0.58197 0.0
H543 H 0.83686 0.39324 0.53692 0.0
H544 H 0.90682 0.40444 0.52917 0.0
H545 H 0.84342 0.42068 0.59048 0.0
H546 H 0.862 0.38518 0.53307 0.0
H547 H 0.88482 0.36566 0.58452 0.0
C548 C 0.90391 0.36893 0.57085 0.0
C549 C 0.91044 0.3804 0.55533 0.0
C550 C 0.85788 0.39332 0.54561 0.0
C551 C 0.88175 0.39007 0.55822 0.0
C552 C 0.84358 0.3979 0.54783 0.0
C553 C 0.83806 0.40763 0.56405 0.0
C554 C 0.86663 0.39742 0.55977 0.0
C555 C 0.84721 0.41336 0.57775 0.0
C556 C 0.88963 0.37407 0.57236 0.0
C557 C 0.90219 0.39545 0.54138 0.0
N558 N 0.86103 0.40763 0.57532 0.0
N559 N 0.88823 0.39975 0.54314 0.0
H560 H 0.66376 0.25539 0.83857 0.0
H561 H 0.59382 0.15464 0.79338 0.0
H562 H 0.66296 0.13977 0.79623 0.0
H563 H 0.5954 0.24822 0.84035 0.0
H564 H 0.61913 0.15868 0.79182 0.0
H565 H 0.63868 0.26384 0.8368 0.0
C566 C 0.65833 0.23212 0.8288 0.0
C567 C 0.66547 0.19637 0.81764 0.0
C568 C 0.61391 0.17853 0.80241 0.0
C569 C 0.63669 0.20563 0.8156 0.0
C570 C 0.59948 0.17631 0.8033 0.0
C571 C 0.59251 0.20071 0.81709 0.0
C572 C 0.62137 0.20564 0.81536 0.0
C573 C 0.60034 0.22836 0.82956 0.0
C574 C 0.64399 0.23687 0.82782 0.0
C575 C 0.65787 0.16752 0.80517 0.0
N576 N 0.61434 0.22992 0.82842 0.0
N577 N 0.64387 0.17248 0.80455 0.0
H578 H 0.65262 0.02805 0.40389 0.0
H579 H 0.58377 0.1346 0.44938 0.0
H580 H 0.6537 0.1112 0.45264 0.0
H581 H 0.58805 0.11576 0.39513 0.0
H582 H 0.60854 0.11384 0.45253 0.0
H583 H 0.62776 0.04464 0.40252 0.0
C584 C 0.64761 0.04918 0.41442 0.0
C585 C 0.65527 0.06864 0.42836 0.0
C586 C 0.60401 0.11455 0.43997 0.0
C587 C 0.62681 0.088 0.42678 0.0
C588 C 0.58992 0.12643 0.43815 0.0
C589 C 0.58386 0.12701 0.42196 0.0
C590 C 0.61196 0.10222 0.42553 0.0
C591 C 0.59228 0.11604 0.40785 0.0
C592 C 0.63343 0.05902 0.41356 0.0
C593 C 0.64819 0.09581 0.44162 0.0
N594 N 0.60587 0.10368 0.40997 0.0
N595 N 0.63432 0.10483 0.4405 0.0
H596 H 0.338 0.78572 0.15263 0.0
H597 H 0.40097 0.91941 0.20399 0.0
H598 H 0.33297 0.85278 0.20321 0.0
H599 H 0.4001 0.903 0.14943 0.0
H600 H 0.37674 0.88877 0.205 0.0
H601 H 0.36182 0.81945 0.15246 0.0
C602 C 0.34194 0.80713 0.16377 0.0
C603 C 0.33347 0.81654 0.17795 0.0
C604 C 0.38186 0.89238 0.19283 0.0
C605 C 0.36074 0.85558 0.17779 0.0
C606 C 0.39566 0.90994 0.19223 0.0
C607 C 0.40258 0.91361 0.1766 0.0
C608 C 0.37506 0.8777 0.17772 0.0
C609 C 0.3952 0.90078 0.16176 0.0
C610 C 0.35551 0.82677 0.16361 0.0
C611 C 0.33914 0.84476 0.192 0.0
N612 N 0.3819 0.88292 0.16271 0.0
N613 N 0.35246 0.86327 0.19158 0.0
H614 H 0.33334 0.88088 0.54357 0.0
H615 H 0.40186 0.78463 0.59109 0.0
H616 H 0.33892 0.89324 0.5978 0.0
H617 H 0.40316 0.84639 0.53958 0.0
H618 H 0.37736 0.8086 0.59245 0.0
H619 H 0.35789 0.85587 0.54069 0.0
C620 C 0.33974 0.87882 0.55483 0.0
C621 C 0.33409 0.88916 0.57096 0.0
C622 C 0.383 0.81665 0.58083 0.0
C623 C 0.36193 0.85941 0.56776 0.0
C624 C 0.39696 0.80252 0.57997 0.0
C625 C 0.40458 0.81376 0.56521 0.0
C626 C 0.37654 0.84151 0.56676 0.0
C627 C 0.39766 0.83727 0.55123 0.0
C628 C 0.3537 0.8645 0.55317 0.0
C629 C 0.34283 0.88583 0.58512 0.0
N630 N 0.38399 0.8504 0.55233 0.0
N631 N 0.35627 0.87067 0.58321 0.0
H632 H 0.65014 0.63541 0.29259 0.0
H633 H 0.58179 0.51963 0.33731 0.0
H634 H 0.64592 0.61176 0.34666 0.0
H635 H 0.58041 0.60509 0.28896 0.0
H636 H 0.60658 0.53769 0.33877 0.0
H637 H 0.62553 0.61192 0.28921 0.0
C638 C 0.64404 0.62557 0.30373 0.0
C639 C 0.65007 0.62568 0.31994 0.0
C640 C 0.60086 0.55222 0.3278 0.0
C641 C 0.62215 0.5978 0.31611 0.0
C642 C 0.58672 0.54155 0.32688 0.0
C643 C 0.57899 0.56128 0.31305 0.0
C644 C 0.60738 0.58234 0.31472 0.0
C645 C 0.58597 0.58947 0.29991 0.0
C646 C 0.63004 0.61214 0.30178 0.0
C647 C 0.6417 0.61251 0.33394 0.0
N648 N 0.59981 0.59935 0.30109 0.0
N649 N 0.62822 0.59873 0.33168 0.0
H650 H 0.65615 0.51435 0.90336 0.0
H651 H 0.59024 0.65004 0.94937 0.0
H652 H 0.65859 0.60583 0.95066 0.0
H653 H 0.59013 0.58495 0.89819 0.0
H654 H 0.61457 0.62238 0.95204 0.0
H655 H 0.6311 0.52646 0.90357 0.0
C656 C 0.65141 0.53638 0.91391 0.0
C657 C 0.6595 0.55974 0.9269 0.0
C658 C 0.60918 0.61401 0.94026 0.0
C659 C 0.63082 0.57419 0.92714 0.0
C660 C 0.59531 0.62983 0.93872 0.0
C661 C 0.58819 0.62027 0.92347 0.0
C662 C 0.6159 0.58816 0.9265 0.0
C663 C 0.59525 0.59367 0.91012 0.0
C664 C 0.6371 0.5435 0.91398 0.0
C665 C 0.65276 0.58758 0.9403 0.0
N666 N 0.6087 0.57867 0.91194 0.0
N667 N 0.63881 0.59448 0.93999 0.0
H668 H 0.33422 0.2773 0.65619 0.0
H669 H 0.40397 0.37299 0.70161 0.0
H670 H 0.33383 0.354 0.7059 0.0
H671 H 0.39871 0.36559 0.64725 0.0
H672 H 0.37917 0.35295 0.70504 0.0
H673 H 0.3591 0.29314 0.6546 0.0
C674 C 0.33938 0.29683 0.66688 0.0
C675 C 0.33191 0.31473 0.68116 0.0
C676 C 0.3835 0.35602 0.6924 0.0
C677 C 0.36041 0.33318 0.67934 0.0
C678 C 0.3976 0.36747 0.69043 0.0
C679 C 0.4034 0.37105 0.67412 0.0
C680 C 0.37527 0.34704 0.67797 0.0
C681 C 0.3947 0.36348 0.66006 0.0
C682 C 0.35357 0.30624 0.66589 0.0
C683 C 0.3392 0.33985 0.69461 0.0
N684 N 0.38111 0.35138 0.66232 0.0
N685 N 0.35308 0.34847 0.69338 0.0
H686 H 0.34507 0.44601 0.04588 0.0
H687 H 0.41326 0.25818 0.05701 0.0
H688 H 0.34462 0.26748 0.05671 0.0
H689 H 0.41371 0.43904 0.05053 0.0
H690 H 0.38817 0.2589 0.05316 0.0
H691 H 0.3703 0.44232 0.04381 0.0
C692 C 0.35026 0.40597 0.04769 0.0
C693 C 0.34274 0.35713 0.05166 0.0
C694 C 0.39378 0.29837 0.05245 0.0
C695 C 0.37158 0.35261 0.04936 0.0
C696 C 0.40811 0.29797 0.05462 0.0
C697 C 0.41558 0.34868 0.05428 0.0
C698 C 0.38688 0.34986 0.04993 0.0
C699 C 0.40836 0.39896 0.05106 0.0
C700 C 0.36466 0.40389 0.04653 0.0
C701 C 0.35 0.30633 0.05379 0.0
N702 N 0.39441 0.39832 0.04913 0.0
N703 N 0.36402 0.30549 0.05272 0.0
H704 H -0.00048 0.19725 0.29088 0.0
H705 H -0.00244 0.25728 0.19108 0.0
H706 H 0.03091 0.13833 0.25612 0.0
H707 H 0.96765 0.32256 0.22676 0.0
H708 H 0.01018 0.21442 0.21464 0.0
H709 H 0.98768 0.24289 0.26733 0.0
C710 C 0.0039 0.19367 0.27827 0.0
C711 C 0.01622 0.16392 0.27545 0.0
C712 C 0.0009 0.23836 0.21731 0.0
C713 C 0.00275 0.21644 0.24842 0.0
C714 C 0.99371 0.26299 0.20387 0.0
C715 C 0.9815 0.29331 0.20696 0.0
C716 C 0.99581 0.24403 0.23391 0.0
C717 C 0.97699 0.29938 0.22378 0.0
C718 C -0.00285 0.21996 0.26483 0.0
C719 C 0.02142 0.1608 0.25885 0.0
N720 N 0.98411 0.27471 0.23661 0.0
N721 N 0.01465 0.18682 0.24594 0.0
H722 H 0.25207 0.0365 0.29615 0.0
H723 H 0.24301 0.91002 0.20273 0.0
H724 H 0.218 0.07763 0.26295 0.0
H725 H 0.27749 0.87044 0.23544 0.0
H726 H 0.23381 0.9722 0.22463 0.0
H727 H 0.26214 0.97898 0.27362 0.0
C728 C 0.2468 0.03411 0.28404 0.0
C729 C 0.23411 0.06155 0.28148 0.0
C730 C 0.24337 0.94981 0.22705 0.0
C731 C 0.24547 0.99506 0.25574 0.0
C732 C 0.24859 0.91397 0.21458 0.0
C733 C 0.26105 0.88497 0.21724 0.0
C734 C 0.25065 0.95677 0.24232 0.0
C735 C 0.26784 0.89188 0.23285 0.0
C736 C 0.25251 0.00094 0.27122 0.0
C737 C 0.22777 0.057 0.26552 0.0
N738 N 0.26257 0.92723 0.24478 0.0
N739 N 0.23346 0.02395 0.25331 0.0
H740 H 0.024 0.05766 0.98092 0.0
H741 H 0.95747 0.87556 0.00638 0.0
H742 H 0.99454 0.99446 0.94436 0.0
H743 H 0.98874 0.92997 0.04194 0.0
H744 H 0.97062 0.91971 0.98344 0.0
H745 H 0.01067 0.01341 0.00353 0.0
C746 C 0.01468 0.03471 0.97765 0.0
C747 C 0.01039 0.02963 0.96072 0.0
C748 C 0.97461 0.9218 0.99626 0.0
C749 C 0.99512 0.97853 0.98655 0.0
C750 C 0.96713 0.8965 0.00935 0.0
C751 C 0.97201 0.89919 0.0261 0.0
C752 C 0.98702 0.95007 -2e-05 0.0
C753 C 0.98458 0.92689 0.02922 0.0
C754 C 0.0071 0.00926 0.99057 0.0
C755 C -0.00177 -0.00062 0.95724 0.0
N756 N 0.99162 0.9514 0.01629 0.0
N757 N 0.99103 0.97483 0.97006 0.0
H758 H 0.247 0.26978 0.94372 0.0
H759 H 0.25005 0.27034 0.04515 0.0
H760 H 0.21435 0.20654 0.97594 0.0
H761 H 0.28426 0.32127 0.01339 0.0
H762 H 0.23637 0.25189 0.01978 0.0
H763 H 0.26054 0.29257 0.969 0.0
C764 C 0.2427 0.26051 0.9561 0.0
C765 C 0.22953 0.2362 0.95773 0.0
C766 C 0.24685 0.26725 0.01835 0.0
C767 C 0.2449 0.26248 0.98666 0.0
C768 C 0.25466 0.27798 0.03284 0.0
C769 C 0.26834 0.29712 0.03138 0.0
C770 C 0.25275 0.27572 0.00227 0.0
C771 C 0.27376 0.30638 0.0151 0.0
C772 C 0.25042 0.27363 0.97052 0.0
C773 C 0.22446 0.22518 0.97408 0.0
N774 N 0.26596 0.29538 0.00115 0.0
N775 N 0.23215 0.2385 0.9879 0.0
H776 H 0.00196 0.7865 0.70077 0.0
H777 H -0.00079 0.68345 0.79732 0.0
H778 H 0.97021 0.83747 0.73616 0.0
H779 H 0.03146 0.63676 0.76207 0.0
H780 H 0.98801 0.73775 0.77488 0.0
H781 H 0.01281 0.73097 0.7231 0.0
C782 C -0.00269 0.78634 0.71328 0.0
C783 C 0.98514 0.81662 0.7166 0.0
C784 C -0.00249 0.71544 0.77204 0.0
C785 C -0.00254 0.75263 0.74221 0.0
C786 C 0.00388 0.6842 0.78482 0.0
C787 C 0.01632 0.65568 0.78157 0.0
C788 C 0.00363 0.71819 0.75591 0.0
C789 C 0.0219 0.65817 0.76515 0.0
C790 C 0.0035 0.75442 0.72601 0.0
C791 C 0.97959 0.81481 0.73304 0.0
N792 N 0.01553 0.6891 0.75295 0.0
N793 N 0.98577 0.78314 0.74523 0.0
H794 H 0.7208 0.08599 0.76387 0.0
H795 H 0.78421 0.89202 0.73462 0.0
H796 H 0.75241 0.02539 0.79802 0.0
H797 H 0.75187 0.94897 0.70093 0.0
H798 H 0.77263 0.93993 0.7581 0.0
H799 H 0.73229 0.03712 0.74055 0.0
C800 C 0.73021 0.06271 0.76645 0.0
C801 C 0.73564 0.05966 0.78292 0.0
C802 C 0.76804 0.94175 0.74558 0.0
C803 C 0.74877 0.00324 0.75632 0.0
C804 C 0.77462 0.91423 0.73218 0.0
C805 C 0.76901 0.91666 0.71579 0.0
C806 C 0.7558 0.97198 0.74254 0.0
C807 C 0.75658 0.94607 0.71336 0.0
C808 C 0.73673 0.03461 0.75314 0.0
C809 C 0.74785 0.02883 0.78552 0.0
N810 N 0.75042 0.97277 0.72659 0.0
N811 N 0.75399 0.00168 0.77235 0.0
H812 H 0.71251 0.67618 0.98093 0.0
H813 H 0.77235 0.89045 0.00785 0.0
H814 H 0.74534 0.72859 0.94725 0.0
H815 H 0.73684 0.8529 0.03915 0.0
H816 H 0.76226 0.83406 0.98509 0.0
H817 H 0.72137 0.74076 0.00246 0.0
C818 C 0.72165 0.70095 0.97811 0.0
C819 C 0.72822 0.69692 0.96228 0.0
C820 C 0.75661 0.83864 -0.00312 0.0
C821 C 0.73831 0.77135 0.98679 0.0
C822 C 0.76233 0.87107 0.00985 0.0
C823 C 0.75548 0.87593 0.02549 0.0
C824 C 0.744 0.81059 -0.00039 0.0
C825 C 0.74252 0.85006 0.02734 0.0
C826 C 0.72663 0.73814 0.99036 0.0
C827 C 0.73996 0.73028 0.95928 0.0
N828 N 0.73727 0.81796 0.01462 0.0
N829 N 0.74464 0.7661 0.97144 0.0
H830 H 0.25073 0.6229 0.78807 0.0
H831 H 0.2421 0.4499 0.70158 0.0
H832 H 0.21514 0.63704 0.75523 0.0
H833 H 0.27667 0.42968 0.73573 0.0
H834 H 0.23217 0.51931 0.72092 0.0
H835 H 0.26092 0.55549 0.76831 0.0
C836 C 0.24513 0.61241 0.77659 0.0
C837 C 0.23202 0.63545 0.77335 0.0
C838 C 0.24189 0.4995 0.72423 0.0
C839 C 0.24356 0.55762 0.75079 0.0
C840 C 0.24754 0.4596 0.71324 0.0
C841 C 0.26026 0.43402 0.71703 0.0
C842 C 0.24903 0.5141 0.7391 0.0
C843 C 0.26684 0.44829 0.7323 0.0
C844 C 0.25092 0.57359 0.76537 0.0
C845 C 0.22526 0.62028 0.75827 0.0
N846 N 0.26118 0.48763 0.74274 0.0
N847 N 0.23107 0.58202 0.7476 0.0
H848 H 0.99436 0.5172 0.44583 0.0
H849 H 0.00023 0.45118 0.54508 0.0
H850 H 0.02727 0.5786 0.47796 0.0
H851 H 0.965 0.40338 0.5146 0.0
H852 H 0.01081 0.49383 0.52012 0.0
H853 H 0.98365 0.47289 0.47057 0.0
C854 C -0.00072 0.52171 0.4581 0.0
C855 C 0.01174 0.55156 0.45983 0.0
C856 C 0.00078 0.4739 0.51886 0.0
C857 C -0.00036 0.50054 0.48811 0.0
C858 C 0.99476 0.44927 0.5331 0.0
C859 C 0.98169 0.42385 0.53193 0.0
C860 C 0.9937 0.47306 0.50331 0.0
C861 C 0.97509 0.42263 0.51607 0.0
C862 C 0.99319 0.49625 0.4722 0.0
C863 C 0.01767 0.55598 0.47602 0.0
N864 N 0.98115 0.44709 0.50238 0.0
N865 N 0.01159 0.53054 0.48952 0.0
H866 H 0.24658 0.68081 0.45487 0.0
H867 H 0.24281 0.77736 0.55196 0.0
H868 H 0.21164 0.64612 0.4874 0.0
H869 H 0.27538 0.82649 0.51747 0.0
H870 H 0.23148 0.72668 0.52882 0.0
H871 H 0.25785 0.72975 0.47827 0.0
C872 C 0.24132 0.68307 0.46698 0.0
C873 C 0.22812 0.65953 0.46916 0.0
C874 C 0.24108 0.74875 0.52631 0.0
C875 C 0.24092 0.71605 0.49599 0.0
C876 C 0.24753 0.77785 0.53949 0.0
C877 C 0.26008 0.80611 0.53664 0.0
C878 C 0.24725 0.7477 0.51019 0.0
C879 C 0.26572 0.80532 0.52024 0.0
C880 C 0.24773 0.71131 0.48032 0.0
C881 C 0.22181 0.66371 0.48515 0.0
N882 N 0.25929 0.77633 0.50766 0.0
N883 N 0.22826 0.69168 0.49796 0.0
H884 H 0.74508 0.51181 0.19593 0.0
H885 H 0.74126 0.53397 0.29705 0.0
H886 H 0.77699 0.45023 0.2295 0.0
H887 H 0.71034 0.60352 0.26351 0.0
H888 H 0.75447 0.50286 0.27241 0.0
H889 H 0.73205 0.54473 0.22053 0.0
C890 C 0.74934 0.50505 0.20848 0.0
C891 C 0.76214 0.47822 0.21068 0.0
C892 C 0.74481 0.52505 0.27043 0.0
C893 C 0.7473 0.51597 0.23887 0.0
C894 C 0.73727 0.54289 0.2845 0.0
C895 C 0.72466 0.57127 0.28233 0.0
C896 C 0.73971 0.53553 0.25406 0.0
C897 C 0.72 0.58174 0.26577 0.0
C898 C 0.7419 0.524 0.22252 0.0
C899 C 0.76715 0.47071 0.22722 0.0
N900 N 0.72752 0.56369 0.25226 0.0
N901 N 0.75972 0.48951 0.24069 0.0
H902 H 0.74671 0.28011 0.54832 0.0
H903 H 0.74622 0.19062 0.45049 0.0
H904 H 0.77828 0.32877 0.5124 0.0
H905 H 0.71336 0.14965 0.48552 0.0
H906 H 0.75846 0.23881 0.47331 0.0
H907 H 0.7344 0.2314 0.52559 0.0
C908 C 0.75101 0.2809 0.53563 0.0
C909 C 0.76356 0.30844 0.53226 0.0
C910 C 0.74859 0.21916 0.47603 0.0
C911 C 0.74959 0.25233 0.50623 0.0
C912 C 0.74162 0.19139 0.46302 0.0
C913 C 0.72873 0.16621 0.4661 0.0
C914 C 0.74264 0.22177 0.49226 0.0
C915 C 0.72327 0.16855 0.48258 0.0
C916 C 0.74399 0.25291 0.52267 0.0
C917 C 0.76864 0.30807 0.51558 0.0
N918 N 0.73024 0.19605 0.49505 0.0
N919 N 0.76166 0.28023 0.5032 0.0
H920 H 0.49456 0.26179 0.69293 0.0
H921 H 0.49814 0.21331 0.79319 0.0
H922 H 0.46352 0.32086 0.72813 0.0
H923 H 0.53212 0.17723 0.75928 0.0
H924 H 0.48431 0.24339 0.76898 0.0
H925 H 0.50767 0.22304 0.7167 0.0
C926 C 0.49051 0.26674 0.70566 0.0
C927 C 0.47795 0.29476 0.70857 0.0
C928 C 0.49477 0.22864 0.76682 0.0
C929 C 0.49283 0.2501 0.73577 0.0
C930 C 0.50266 0.21119 0.78063 0.0
C931 C 0.51635 0.19318 0.77826 0.0
C932 C 0.5006 0.22801 0.75051 0.0
C933 C 0.52163 0.1911 0.76169 0.0
C934 C 0.49799 0.24452 0.71921 0.0
C935 C 0.47319 0.29981 0.72531 0.0
N936 N 0.51376 0.20867 0.74843 0.0
N937 N 0.48064 0.27761 0.73829 0.0
H938 H 0.46234 0.87838 0.50625 0.0
H939 H 0.52529 0.0765 0.47789 0.0
H940 H 0.49445 0.93525 0.54031 0.0
H941 H 0.49455 0.01158 0.44326 0.0
H942 H 0.51377 0.02699 0.50111 0.0
H943 H 0.47397 0.92712 0.48298 0.0
C944 C 0.47189 0.90074 0.50881 0.0
C945 C 0.47742 0.90288 0.52526 0.0
C946 C 0.50953 0.02369 0.48843 0.0
C947 C 0.49069 0.95921 0.49873 0.0
C948 C 0.51607 0.05218 0.47519 0.0
C949 C 0.51089 0.04806 0.45861 0.0
C950 C 0.49773 0.99095 0.48507 0.0
C951 C 0.49892 0.01585 0.45584 0.0
C952 C 0.4785 0.92873 0.49553 0.0
C953 C 0.48981 0.93252 0.52784 0.0
N954 N 0.49276 0.98843 0.46893 0.0
N955 N 0.496 0.95974 0.51473 0.0
H956 H 0.493 0.82551 0.20038 0.0
H957 H 0.4877 0.68091 0.29179 0.0
H958 H 0.45875 0.85077 0.23475 0.0
H959 H 0.52193 0.65568 0.25739 0.0
H960 H 0.47658 0.74085 0.27068 0.0
H961 H 0.50376 0.76315 0.22113 0.0
C962 C 0.48779 0.81835 0.21236 0.0
C963 C 0.47495 0.84336 0.21583 0.0
C964 C 0.48649 0.72196 0.26771 0.0
C965 C 0.48714 0.77145 0.23957 0.0
C966 C 0.49281 0.68747 0.27973 0.0
C967 C 0.5058 0.66348 0.27638 0.0
C968 C 0.4932 0.73265 0.25224 0.0
C969 C 0.51193 0.67341 0.26052 0.0
C970 C 0.49391 0.78247 0.22417 0.0
C971 C 0.46867 0.83245 0.23155 0.0
N972 N 0.50561 0.70754 0.24908 0.0
N973 N 0.47481 0.79712 0.24282 0.0
H974 H 0.47153 0.45211 0.01758 0.0
H975 H 0.53336 0.646 0.98432 0.0
H976 H 0.50183 0.52601 0.05117 0.0
H977 H 0.49822 0.59674 0.95389 0.0
H978 H 0.52258 0.60096 0.00895 0.0
H979 H 0.48217 0.50122 0.99383 0.0
C980 C 0.48048 0.47843 0.01996 0.0
C981 C 0.48579 0.48506 0.0364 0.0
C982 C 0.51721 0.60045 -0.00311 0.0
C983 C 0.49798 0.54183 0.00922 0.0
C984 C 0.52333 0.62627 0.98285 0.0
C985 C 0.51671 0.62482 0.967 0.0
C986 C 0.50446 0.57275 0.99499 0.0
C987 C 0.50373 0.5987 0.96583 0.0
C988 C 0.48651 0.50676 0.00639 0.0
C989 C 0.49741 0.51977 0.0387 0.0
N990 N 0.49809 0.57335 0.9796 0.0
N991 N 0.50313 0.54694 0.02523 0.0
H992 H 0.05406 0.52155 0.36403 0.0
H993 H 0.05032 0.18707 0.37299 0.0
H994 H 0.04051 0.43866 0.40989 0.0
H995 H 0.04718 0.27209 0.32471 0.0
H996 H 0.04981 0.27896 0.38724 0.0
H997 H 0.05461 0.42975 0.34973 0.0
C998 C 0.0512 0.48409 0.37108 0.0
C999 C 0.04721 0.48768 0.38814 0.0
C1000 C 0.04921 0.27733 0.37353 0.0
C1001 C 0.04796 0.38291 0.37198 0.0
C1002 C 0.04955 0.22503 0.3654 0.0
C1003 C 0.04875 0.22202 0.34766 0.0
C1004 C 0.04829 0.32684 0.36381 0.0
C1005 C 0.04775 0.27249 0.33843 0.0
C1006 C 0.05148 0.43184 0.36291 0.0
C1007 C 0.04359 0.43784 0.39668 0.0
N1008 N 0.04762 0.32288 0.34661 0.0
N1009 N 0.04413 0.38744 0.38854 0.0
H1010 H 0.18992 0.69625 0.37166 0.0
H1011 H 0.22236 0.00664 0.37259 0.0
H1012 H 0.21306 0.76459 0.4138 0.0
H1013 H 0.20094 0.93462 0.32965 0.0
H1014 H 0.22026 0.91634 0.38735 0.0
H1015 H 0.19493 0.78172 0.35549 0.0
C1016 C 0.19609 0.72912 0.37749 0.0
C1017 C 0.20099 0.72347 0.39413 0.0
C1018 C 0.2161 0.92024 0.37465 0.0
C1019 C 0.20675 0.82134 0.37574 0.0
C1020 C 0.21731 0.97176 0.36622 0.0
C1021 C 0.21171 0.97831 0.34993 0.0
C1022 C 0.20921 0.87514 0.36673 0.0
C1023 C 0.20532 0.93164 0.34225 0.0
C1024 C 0.19897 0.77788 0.36825 0.0
C1025 C 0.209 0.76727 0.40102 0.0
N1026 N 0.20417 0.88218 0.35076 0.0
N1027 N 0.21157 0.8145 0.39183 0.0
H1028 H 0.06521 0.0237 0.87194 0.0
H1029 H 0.03785 0.71031 0.85474 0.0
H1030 H 0.03635 0.93626 0.90447 0.0
H1031 H 0.06321 0.80287 0.81925 0.0
H1032 H 0.03764 0.79237 0.87341 0.0
H1033 H 0.06509 0.94272 0.8527 0.0
C1034 C 0.05885 0.98752 0.87503 0.0
C1035 C 0.0508 0.98668 0.88984 0.0
C1036 C 0.04323 0.79482 0.86152 0.0
C1037 C 0.05062 0.89402 0.86793 0.0
C1038 C 0.04337 0.74794 0.85086 0.0
C1039 C 0.05057 0.74976 0.83542 0.0
C1040 C 0.0504 0.84385 0.85675 0.0
C1041 C 0.05752 0.79965 0.83104 0.0
C1042 C 0.05877 0.94136 0.86404 0.0
C1043 C 0.04273 0.93875 0.89321 0.0
N1044 N 0.05729 0.84472 0.84168 0.0
N1045 N 0.04288 0.89432 0.88236 0.0
H1046 H 0.19635 0.47728 0.80629 0.0
H1047 H 0.20803 0.35894 0.90017 0.0
H1048 H 0.21103 0.57909 0.84803 0.0
H1049 H 0.19037 0.26098 0.85934 0.0
H1050 H 0.21113 0.43774 0.88063 0.0
H1051 H 0.19616 0.39514 0.82492 0.0
C1052 C 0.19962 0.4823 0.81935 0.0
C1053 C 0.20361 0.53519 0.82567 0.0
C1054 C 0.20662 0.39895 0.87594 0.0
C1055 C 0.20336 0.44141 0.84705 0.0
C1056 C 0.20484 0.35394 0.88708 0.0
C1057 C 0.19884 0.30345 0.8814 0.0
C1058 C 0.20238 0.39344 0.85898 0.0
C1059 C 0.19497 0.29925 0.86429 0.0
C1060 C 0.19949 0.43538 0.82998 0.0
C1061 C 0.2078 0.53916 0.84266 0.0
N1062 N 0.19676 0.34377 0.8537 0.0
N1063 N 0.2075 0.4929 0.8528 0.0
H1064 H 0.95846 0.8092 0.61869 0.0
H1065 H 0.93956 0.48287 0.62683 0.0
H1066 H 0.95185 0.72563 0.66669 0.0
H1067 H 0.9599 0.55221 0.58274 0.0
H1068 H 0.9416 0.57451 0.64085 0.0
H1069 H 0.95676 0.71758 0.60438 0.0
C1070 C 0.95667 0.77166 0.6262 0.0
C1071 C 0.95531 0.77499 0.64389 0.0
C1072 C 0.94565 0.56956 0.62812 0.0
C1073 C 0.95324 0.67063 0.62766 0.0
C1074 C 0.94444 0.51737 0.6201 0.0
C1075 C 0.94959 0.50995 0.60363 0.0
C1076 C 0.95188 0.61477 0.61951 0.0
C1077 C 0.95585 0.55608 0.59549 0.0
C1078 C 0.95574 0.71948 0.61805 0.0
C1079 C 0.95302 0.72503 0.65303 0.0
N1080 N 0.95676 0.60668 0.60349 0.0
N1081 N 0.95198 0.67497 0.6448 0.0
H1082 H 0.7963 0.02966 0.6663 0.0
H1083 H 0.795 0.19748 0.57864 0.0
H1084 H 0.80195 0.94886 0.61767 0.0
H1085 H 0.80166 0.27826 0.62708 0.0
H1086 H 0.79492 0.10591 0.5928 0.0
H1087 H 0.79559 0.12107 0.65211 0.0
C1088 C 0.79734 0.03109 0.65262 0.0
C1089 C 0.79923 0.98154 0.64314 0.0
C1090 C 0.79641 0.14368 0.60032 0.0
C1091 C 0.79838 0.08607 0.62686 0.0
C1092 C 0.79641 0.19599 0.59227 0.0
C1093 C 0.79837 0.24559 0.60171 0.0
C1094 C 0.79823 0.14093 0.61795 0.0
C1095 C 0.80017 0.24108 0.61931 0.0
C1096 C 0.79699 0.08334 0.64455 0.0
C1097 C 0.80054 0.98601 0.62547 0.0
N1098 N 0.80002 0.18961 0.62688 0.0
N1099 N 0.80006 0.03743 0.61788 0.0
H1100 H 0.93367 0.2605 0.11565 0.0
H1101 H 0.9367 0.92553 0.12308 0.0
H1102 H 0.94756 0.17531 0.16095 0.0
H1103 H 0.94022 0.01291 0.07523 0.0
H1104 H 0.93734 0.01668 0.13777 0.0
H1105 H 0.93266 0.16927 0.10105 0.0
C1106 C 0.93647 0.22263 0.12252 0.0
C1107 C 0.94074 0.22541 0.1395 0.0
C1108 C 0.93799 0.01572 0.12405 0.0
C1109 C 0.93948 0.12132 0.123 0.0
C1110 C 0.93758 0.96385 0.11568 0.0
C1111 C 0.93845 0.96173 0.09793 0.0
C1112 C 0.93904 0.06568 0.11457 0.0
C1113 C 0.9396 0.01263 0.08894 0.0
C1114 C 0.93594 0.17072 0.11418 0.0
C1115 C 0.94429 0.17508 0.14781 0.0
N1116 N 0.93978 0.06259 0.09736 0.0
N1117 N 0.94351 0.12501 0.1395 0.0
H1118 H 0.79997 0.47325 0.11024 0.0
H1119 H 0.76968 0.7834 0.09794 0.0
H1120 H 0.77691 0.56363 0.14852 0.0
H1121 H 0.7908 0.69163 0.05831 0.0
H1122 H 0.77015 0.69903 0.11557 0.0
H1123 H 0.79488 0.54875 0.09004 0.0
C1124 C 0.79377 0.50876 0.11437 0.0
C1125 C 0.78901 0.51252 0.13114 0.0
C1126 C 0.77457 0.69709 0.10296 0.0
C1127 C 0.78315 0.59885 0.10815 0.0
C1128 C 0.77429 0.74529 0.09287 0.0
C1129 C 0.78037 0.7447 0.07672 0.0
C1130 C 0.78108 0.64809 0.09691 0.0
C1131 C 0.78608 0.69403 0.07075 0.0
C1132 C 0.79085 0.55178 0.10283 0.0
C1133 C 0.78093 0.55925 0.13577 0.0
N1134 N 0.78645 0.64787 0.08094 0.0
N1135 N 0.77836 0.60075 0.12437 0.0
H1136 H 0.54239 0.35338 0.82377 0.0
H1137 H 0.52777 0.51384 0.91054 0.0
H1138 H 0.52644 0.2714 0.86861 0.0
H1139 H 0.5395 0.5983 0.86419 0.0
H1140 H 0.52506 0.42615 0.89471 0.0
H1141 H 0.53943 0.44454 0.83762 0.0
C1142 C 0.53819 0.35457 0.8365 0.0
C1143 C 0.53482 0.30467 0.84514 0.0
C1144 C 0.52807 0.46396 0.88795 0.0
C1145 C 0.53144 0.40894 0.86109 0.0
C1146 C 0.52964 0.51407 0.89698 0.0
C1147 C 0.53407 0.56323 0.88869 0.0
C1148 C 0.53109 0.46289 0.87053 0.0
C1149 C 0.53617 0.56126 0.8711 0.0
C1150 C 0.53646 0.40669 0.84439 0.0
C1151 C 0.52927 0.30879 0.86154 0.0
N1152 N 0.53484 0.51166 0.86263 0.0
N1153 N 0.52789 0.36004 0.86905 0.0
H1154 H 0.69942 0.69177 0.86452 0.0
H1155 H 0.68912 0.02436 0.87495 0.0
H1156 H 0.69689 0.77519 0.91314 0.0
H1157 H 0.70639 0.94893 0.82979 0.0
H1158 H 0.68868 0.93117 0.8883 0.0
H1159 H 0.6988 0.78432 0.8506 0.0
C1160 C 0.69869 0.72945 0.87225 0.0
C1161 C 0.69826 0.72584 0.89 0.0
C1162 C 0.69256 0.93514 0.87547 0.0
C1163 C 0.69744 0.83128 0.87423 0.0
C1164 C 0.69278 0.98822 0.86784 0.0
C1165 C 0.69785 0.99439 0.85128 0.0
C1166 C 0.69727 0.88789 0.86638 0.0
C1167 C 0.70247 0.94611 0.84263 0.0
C1168 C 0.69839 0.78215 0.86432 0.0
C1169 C 0.69734 0.776 0.89942 0.0
N1170 N 0.70203 0.89481 0.85027 0.0
N1171 N 0.69691 0.82661 0.89142 0.0
H1172 H 0.53137 0.77599 0.32336 0.0
H1173 H 0.54335 0.94855 0.40891 0.0
H1174 H 0.55078 0.70468 0.36778 0.0
H1175 H 0.53608 0.02919 0.3606 0.0
H1176 H 0.54364 0.85717 0.39472 0.0
H1177 H 0.53058 0.86754 0.33756 0.0
C1178 C 0.53543 0.77954 0.33612 0.0
C1179 C 0.54117 0.73266 0.34441 0.0
C1180 C 0.542 0.89485 0.38722 0.0
C1181 C 0.54024 0.83718 0.3607 0.0
C1182 C 0.54178 0.94706 0.39531 0.0
C1183 C 0.5397 0.99661 0.3859 0.0
C1184 C 0.53999 0.89201 0.36962 0.0
C1185 C 0.53776 0.99206 0.36832 0.0
C1186 C 0.53502 0.83185 0.34418 0.0
C1187 C 0.54631 0.73975 0.36091 0.0
N1188 N 0.5379 0.94056 0.36074 0.0
N1189 N 0.54568 0.79105 0.36855 0.0
H1190 H 0.6855 0.20637 0.37245 0.0
H1191 H 0.69841 0.53763 0.3811 0.0
H1192 H 0.7024 0.28357 0.41756 0.0
H1193 H 0.69282 0.45339 0.33299 0.0
H1194 H 0.69834 0.44572 0.39522 0.0
H1195 H 0.6865 0.29785 0.35819 0.0
C1196 C 0.68943 0.24253 0.37935 0.0
C1197 C 0.69387 0.2374 0.39621 0.0
C1198 C 0.69719 0.44745 0.38157 0.0
C1199 C 0.69496 0.34204 0.38003 0.0
C1200 C 0.6972 0.49985 0.37352 0.0
C1201 C 0.69561 0.50315 0.35586 0.0
C1202 C 0.69542 0.39817 0.3719 0.0
C1203 C 0.6941 0.45283 0.34664 0.0
C1204 C 0.69003 0.29466 0.37119 0.0
C1205 C 0.6989 0.28561 0.40453 0.0
N1206 N 0.69397 0.40244 0.35478 0.0
N1207 N 0.69924 0.33601 0.39638 0.0
H1208 H 0.43188 0.47803 0.12619 0.0
H1209 H 0.45605 0.79549 0.14354 0.0
H1210 H 0.4619 0.56665 0.09557 0.0
H1211 H 0.43006 0.70136 0.17796 0.0
H1212 H 0.45776 0.71241 0.12542 0.0
H1213 H 0.4306 0.55979 0.14506 0.0
C1214 C 0.43822 0.51459 0.12346 0.0
C1215 C 0.44698 0.51559 0.10927 0.0
C1216 C 0.4517 0.70984 0.13695 0.0
C1217 C 0.44553 0.60918 0.13073 0.0
C1218 C 0.4507 0.75732 0.14729 0.0
C1219 C 0.44289 0.75533 0.16228 0.0
C1220 C 0.4448 0.66004 0.14158 0.0
C1221 C 0.4362 0.70473 0.16652 0.0
C1222 C 0.43749 0.56121 0.13424 0.0
C1223 C 0.45499 0.56402 0.10635 0.0
N1224 N 0.43728 0.65906 0.15619 0.0
N1225 N 0.45403 0.60893 0.11696 0.0
H1226 H 0.27416 0.96531 0.16044 0.0
H1227 H 0.29912 0.1338 0.07846 0.0
H1228 H 0.29567 0.88759 0.11847 0.0
H1229 H 0.27576 0.20907 0.11933 0.0
H1230 H 0.29636 0.04172 0.09182 0.0
H1231 H 0.27284 0.05293 0.14439 0.0
C1232 C 0.27851 0.96653 0.14777 0.0
C1233 C 0.2852 0.91929 0.14085 0.0
C1234 C 0.29176 0.0783 0.09781 0.0
C1235 C 0.2838 0.01968 0.12245 0.0
C1236 C 0.29336 0.13095 0.09022 0.0
C1237 C 0.28778 0.1793 0.0979 0.0
C1238 C 0.28459 0.07396 0.11324 0.0
C1239 C 0.28032 0.17298 0.11304 0.0
C1240 C 0.27774 0.01662 0.13861 0.0
C1241 C 0.2905 0.92311 0.12433 0.0
N1242 N 0.27903 0.12131 0.12028 0.0
N1243 N 0.28982 0.97271 0.11575 0.0
H1244 H 0.44806 0.27259 0.61106 0.0
H1245 H 0.4381 0.93997 0.62115 0.0
H1246 H 0.44534 0.18861 0.65957 0.0
H1247 H 0.45194 0.01811 0.57466 0.0
H1248 H 0.43902 0.03195 0.63513 0.0
H1249 H 0.44782 0.18041 0.59704 0.0
C1250 C 0.44742 0.23483 0.61875 0.0
C1251 C 0.44671 0.23826 0.63649 0.0
C1252 C 0.4419 0.02887 0.62189 0.0
C1253 C 0.44636 0.13302 0.62059 0.0
C1254 C 0.44134 0.97643 0.6139 0.0
C1255 C 0.44494 0.97142 0.59673 0.0
C1256 C 0.44594 0.07665 0.61259 0.0
C1257 C 0.4491 0.02005 0.58794 0.0
C1258 C 0.44732 0.18229 0.61076 0.0
C1259 C 0.44593 0.18797 0.64585 0.0
N1260 N 0.44942 0.07073 0.59595 0.0
N1261 N 0.44571 0.13745 0.63778 0.0
H1262 H 0.28747 0.52913 0.67101 0.0
H1263 H 0.2919 0.69917 0.58408 0.0
H1264 H 0.29974 0.45171 0.62373 0.0
H1265 H 0.29323 0.77997 0.63318 0.0
H1266 H 0.29218 0.60732 0.59806 0.0
H1267 H 0.28693 0.62068 0.65692 0.0
C1268 C 0.29002 0.53134 0.65764 0.0
C1269 C 0.29367 0.48271 0.64851 0.0
C1270 C 0.29243 0.64516 0.60576 0.0
C1271 C 0.29302 0.58739 0.63235 0.0
C1272 C 0.29222 0.69762 0.59781 0.0
C1273 C 0.29255 0.74731 0.6075 0.0
C1274 C 0.29283 0.64234 0.62352 0.0
C1275 C 0.293 0.74273 0.62523 0.0
C1276 C 0.28976 0.58367 0.64964 0.0
C1277 C 0.29692 0.48817 0.63125 0.0
N1278 N 0.29307 0.69108 0.63269 0.0
N1279 N 0.29646 0.53964 0.62369 0.0
H1280 H 0.02723 0.78959 0.41205 0.0
H1281 H 0.02922 0.9228 0.32087 0.0
H1282 H 0.01919 0.69038 0.3672 0.0
H1283 H 0.01929 0.02199 0.36516 0.0
H1284 H 0.02566 0.83689 0.33747 0.0
H1285 H 0.02445 0.8755 0.39524 0.0
C1286 C 0.02474 0.78593 0.3987 0.0
C1287 C 0.02355 0.73286 0.39096 0.0
C1288 C 0.02405 0.87745 0.34348 0.0
C1289 C 0.02055 0.83077 0.37165 0.0
C1290 C 0.02613 0.92645 0.33404 0.0
C1291 C 0.02465 0.97951 0.34171 0.0
C1292 C 0.02077 0.8816 0.36078 0.0
C1293 C 0.02056 0.98189 0.35877 0.0
C1294 C 0.0231 0.83493 0.38913 0.0
C1295 C 0.02022 0.73048 0.37365 0.0
N1296 N 0.01898 0.93356 0.36784 0.0
N1297 N 0.01905 0.77881 0.36449 0.0
H1298 H 0.19976 0.42865 0.41442 0.0
H1299 H 0.23318 0.30707 0.32896 0.0
H1300 H 0.23084 0.51736 0.38547 0.0
H1301 H 0.20175 0.22158 0.35822 0.0
H1302 H 0.23389 0.38143 0.35054 0.0
H1303 H 0.2019 0.34878 0.3951 0.0
C1304 C 0.20712 0.43117 0.40408 0.0
C1305 C 0.21505 0.47996 0.40149 0.0
C1306 C 0.2269 0.3462 0.35225 0.0
C1307 C 0.21748 0.38874 0.3792 0.0
C1308 C 0.22649 0.30379 0.33993 0.0
C1309 C 0.21732 0.25828 0.34171 0.0
C1310 C 0.21808 0.34296 0.36641 0.0
C1311 C 0.20891 0.25607 0.35623 0.0
C1312 C 0.20833 0.38555 0.39302 0.0
C1313 C 0.22447 0.4807 0.38791 0.0
N1314 N 0.20946 0.29789 0.36796 0.0
N1315 N 0.22535 0.43593 0.37719 0.0
H1316 H 0.0259 0.51329 0.87221 0.0
H1317 H 0.02171 0.1768 0.87232 0.0
H1318 H 0.03305 0.41178 0.82755 0.0
H1319 H 0.03087 0.27575 0.91693 0.0
H1320 H 0.02026 0.26389 0.85573 0.0
H1321 H 0.02213 0.42717 0.88861 0.0
C1322 C 0.02652 0.47294 0.8658 0.0
C1323 C 0.02994 0.46961 0.84853 0.0
C1324 C 0.02245 0.26641 0.86918 0.0
C1325 C 0.02557 0.37121 0.8672 0.0
C1326 C 0.02322 0.21686 0.87868 0.0
C1327 C 0.02655 0.21912 0.89599 0.0
C1328 C 0.02485 0.31847 0.87713 0.0
C1329 C 0.02841 0.27213 0.90357 0.0
C1330 C 0.02441 0.42388 0.87519 0.0
C1331 C 0.03058 0.41619 0.84089 0.0
N1332 N 0.02758 0.31976 0.89407 0.0
N1333 N 0.02846 0.36898 0.8503 0.0
H1334 H 0.23009 0.00849 0.91192 0.0
H1335 H 0.20153 0.8733 0.82568 0.0
H1336 H 0.1948 0.07132 0.88414 0.0
H1337 H 0.2307 0.78803 0.85829 0.0
H1338 H 0.20145 0.95304 0.8452 0.0
H1339 H 0.23257 0.93292 0.89087 0.0
C1340 C 0.22287 0.0064 0.90142 0.0
C1341 C 0.21218 0.04607 0.89984 0.0
C1342 C 0.20792 0.91701 0.84805 0.0
C1343 C 0.21506 0.96043 0.8757 0.0
C1344 C 0.20803 0.87154 0.83686 0.0
C1345 C 0.21604 0.82367 0.84043 0.0
C1346 C 0.2159 0.91478 0.86293 0.0
C1347 C 0.22429 0.82394 0.8551 0.0
C1348 C 0.22431 0.96335 0.88942 0.0
C1349 C 0.20315 0.04148 0.88596 0.0
N1350 N 0.22395 0.86869 0.86588 0.0
N1351 N 0.20481 -0.00047 0.87444 0.0
H1352 H 0.97505 0.31376 0.62899 0.0
H1353 H 0.98514 0.97989 0.63293 0.0
H1354 H 0.97181 0.20639 0.58492 0.0
H1355 H 0.96778 0.0767 0.67415 0.0
H1356 H 0.98704 0.06664 0.61617 0.0
H1357 H 0.97914 0.23012 0.64654 0.0
C1358 C 0.97543 0.27271 0.62297 0.0
C1359 C 0.97294 0.26679 0.60552 0.0
C1360 C 0.983 0.0688 0.62897 0.0
C1361 C 0.97774 0.17155 0.62544 0.0
C1362 C 0.98198 0.01953 0.63856 0.0
C1363 C 0.97617 0.02121 0.65487 0.0
C1364 C 0.97842 0.12004 0.63589 0.0
C1365 C 0.97218 0.07359 0.66155 0.0
C1366 C 0.9777 0.22514 0.63299 0.0
C1367 C 0.97352 0.21264 0.59837 0.0
N1368 N 0.97334 0.12102 0.652 0.0
N1369 N 0.97583 0.16698 0.60837 0.0
H1370 H 0.78052 0.54913 0.5776 0.0
H1371 H 0.78547 0.67631 0.66914 0.0
H1372 H 0.77256 0.44687 0.62182 0.0
H1373 H 0.77197 0.77755 0.62678 0.0
H1374 H 0.78189 0.5913 0.65204 0.0
H1375 H 0.77845 0.63388 0.59518 0.0
C1376 C 0.77819 0.54461 0.59098 0.0
C1377 C 0.77677 0.49105 0.59831 0.0
C1378 C 0.77954 0.63211 0.64659 0.0
C1379 C 0.77464 0.5874 0.61847 0.0
C1380 C 0.78164 0.68056 0.65629 0.0
C1381 C 0.77908 0.73393 0.64931 0.0
C1382 C 0.77518 0.63728 0.62968 0.0
C1383 C 0.77406 0.73715 0.63264 0.0
C1384 C 0.77696 0.59289 0.60097 0.0
C1385 C 0.7737 0.48744 0.61568 0.0
N1386 N 0.77248 0.68945 0.62327 0.0
N1387 N 0.77297 0.53502 0.62525 0.0
H1388 H 0.9673 0.42403 0.11483 0.0
H1389 H 0.96864 0.76105 0.11411 0.0
H1390 H 0.96299 0.52551 0.16002 0.0
H1391 H 0.9551 0.66112 0.07143 0.0
H1392 H 0.97262 0.67412 0.13016 0.0
H1393 H 0.96888 0.51055 0.09793 0.0
C1394 C 0.9669 0.46447 0.12122 0.0
C1395 C 0.96487 0.46773 0.13882 0.0
C1396 C 0.96891 0.67137 0.11722 0.0
C1397 C 0.96675 0.56634 0.11963 0.0
C1398 C 0.96669 0.72084 0.10804 0.0
C1399 C 0.9614 0.71821 0.09148 0.0
C1400 C 0.96601 0.61904 0.10969 0.0
C1401 C 0.95905 0.66499 0.08423 0.0
C1402 C 0.96774 0.51369 0.11157 0.0
C1403 C 0.9644 0.52118 0.14645 0.0
N1404 N 0.96133 0.61743 0.09341 0.0
N1405 N 0.96529 0.56846 0.1368 0.0
H1406 H 0.79109 0.23301 0.16786 0.0
H1407 H 0.77062 0.08228 0.08169 0.0
H1408 H 0.76332 0.30863 0.13151 0.0
H1409 H 0.78549 0.99058 0.12534 0.0
H1410 H 0.76845 0.16679 0.09932 0.0
H1411 H 0.78975 0.14423 0.15216 0.0
C1412 C 0.78462 0.23077 0.15665 0.0
C1413 C 0.77736 0.27827 0.15091 0.0
C1414 C 0.77207 0.12799 0.10505 0.0
C1415 C 0.77592 0.17724 0.13282 0.0
C1416 C 0.77336 0.07987 0.09499 0.0
C1417 C 0.77832 0.02949 0.10205 0.0
C1418 C 0.77597 0.12585 0.1222 0.0
C1419 C 0.78165 0.02858 0.11937 0.0
C1420 C 0.78384 0.1801 0.14773 0.0
C1421 C 0.76909 0.27301 0.13637 0.0
N1422 N 0.78055 0.07625 0.12883 0.0
N1423 N 0.76872 0.22354 0.12769 0.0
H1424 H 0.55209 0.84588 0.91033 0.0
H1425 H 0.51776 0.98623 0.82856 0.0
H1426 H 0.51247 0.79441 0.89032 0.0
H1427 H 0.55313 0.05608 0.85463 0.0
H1428 H 0.51566 0.91501 0.85087 0.0
H1429 H 0.55255 0.92358 0.89005 0.0
C1430 C 0.54342 0.85124 0.90177 0.0
C1431 C 0.53226 0.81345 0.90195 0.0
C1432 C 0.52384 0.94612 0.85173 0.0
C1433 C 0.53279 0.9019 0.87856 0.0
C1434 C 0.52508 0.98662 0.83896 0.0
C1435 C 0.53567 0.02699 0.83969 0.0
C1436 C 0.53333 0.94581 0.86523 0.0
C1437 C 0.54482 0.02568 0.85352 0.0
C1438 C 0.54369 0.8956 0.89018 0.0
C1439 C 0.52129 0.82254 0.89061 0.0
N1440 N 0.54347 0.98559 0.86568 0.0
N1441 N 0.52189 0.86556 0.87925 0.0
H1442 H 0.71779 0.42998 0.92137 0.0
H1443 H 0.72605 0.29173 0.83125 0.0
H1444 H 0.73193 0.52446 0.87789 0.0
H1445 H 0.72638 0.19336 0.87731 0.0
H1446 H 0.72932 0.37721 0.8481 0.0
H1447 H 0.7219 0.34249 0.90579 0.0
C1448 C 0.72193 0.43226 0.90861 0.0
C1449 C 0.72437 0.48453 0.90083 0.0
C1450 C 0.72891 0.33685 0.85451 0.0
C1451 C 0.72893 0.38468 0.88287 0.0
C1452 C 0.727 0.28806 0.8449 0.0
C1453 C 0.72578 0.23548 0.85292 0.0
C1454 C 0.72932 0.33312 0.87227 0.0
C1455 C 0.7272 0.23309 0.87062 0.0
C1456 C 0.72432 0.3823 0.89975 0.0
C1457 C 0.72984 0.48505 0.88434 0.0
N1458 N 0.72865 0.28138 0.87974 0.0
N1459 N 0.73172 0.43585 0.87579 0.0
H1460 H 0.51676 0.53587 0.36882 0.0
H1461 H 0.51005 0.20103 0.37418 0.0
H1462 H 0.51955 0.42858 0.32468 0.0
H1463 H 0.52864 0.3015 0.41376 0.0
H1464 H 0.50696 0.28676 0.35718 0.0
H1465 H 0.51447 0.45184 0.38666 0.0
C1466 C 0.51665 0.4947 0.36285 0.0
C1467 C 0.51847 0.48902 0.34527 0.0
C1468 C 0.51156 0.2899 0.36967 0.0
C1469 C 0.51575 0.39327 0.36555 0.0
C1470 C 0.51327 0.24123 0.3794 0.0
C1471 C 0.51971 0.24431 0.39532 0.0
C1472 C 0.51608 0.34193 0.3761 0.0
C1473 C 0.52375 0.29734 0.40146 0.0
C1474 C 0.51541 0.44691 0.37304 0.0
C1475 C 0.5183 0.43469 0.33821 0.0
N1476 N 0.52187 0.34417 0.39183 0.0
N1477 N 0.51699 0.38876 0.34839 0.0
H1478 H 0.71806 0.04292 0.37341 0.0
H1479 H 0.72409 0.7083 0.36742 0.0
H1480 H 0.71475 0.9356 0.41745 0.0
H1481 H 0.70438 0.80889 0.32875 0.0
H1482 H 0.72746 0.79386 0.38448 0.0
H1483 H 0.71998 0.95877 0.35549 0.0
C1484 C 0.718 0.00171 0.37933 0.0
C1485 C 0.71613 0.99602 0.3969 0.0
C1486 C 0.72254 0.79704 0.37217 0.0
C1487 C 0.71842 0.90025 0.37656 0.0
C1488 C 0.72067 0.7485 0.36242 0.0
C1489 C 0.71385 0.75171 0.34675 0.0
C1490 C 0.71784 0.84906 0.36598 0.0
C1491 C 0.70956 0.80468 0.34086 0.0
C1492 C 0.71901 0.95388 0.36911 0.0
C1493 C 0.71605 0.94167 0.40392 0.0
N1494 N 0.71163 0.85142 0.35049 0.0
N1495 N 0.71716 0.89571 0.39371 0.0
H1496 H 0.46816 0.22733 0.08088 0.0
H1497 H 0.46069 0.09276 0.17196 0.0
H1498 H 0.47543 0.32318 0.1266 0.0
H1499 H 0.4691 0.9927 0.12735 0.0
H1500 H 0.46597 0.17802 0.15571 0.0
H1501 H 0.4685 0.14062 0.09763 0.0
C1502 C 0.47 0.23004 0.09442 0.0
C1503 C 0.47167 0.28248 0.10239 0.0
C1504 C 0.46682 0.13732 0.14956 0.0
C1505 C 0.47185 0.18369 0.12163 0.0
C1506 C 0.46376 0.08871 0.15879 0.0
C1507 C 0.46433 0.03565 0.15094 0.0
C1508 C 0.47025 0.13281 0.13229 0.0
C1509 C 0.46846 0.03278 0.13389 0.0
C1510 C 0.47022 0.18057 0.10396 0.0
C1511 C 0.47408 0.2836 0.11995 0.0
N1512 N 0.47108 0.08076 0.12506 0.0
N1513 N 0.47388 0.23494 0.12904 0.0
H1514 H 0.25829 0.70087 0.13835 0.0
H1515 H 0.30076 0.42567 0.11116 0.0
H1516 H 0.29272 0.63356 0.16675 0.0
H1517 H 0.26922 0.5023 0.07998 0.0
H1518 H 0.29624 0.4958 0.13311 0.0
H1519 H 0.26019 0.62182 0.11858 0.0
C1520 C 0.26613 0.66909 0.14058 0.0
C1521 C 0.27544 0.67414 0.15415 0.0
C1522 C 0.29027 0.49723 0.12149 0.0
C1523 C 0.27775 0.58388 0.13148 0.0
C1524 C 0.29287 0.45723 0.10892 0.0
C1525 C 0.28543 0.45835 0.09363 0.0
C1526 C 0.28015 0.53873 0.1188 0.0
C1527 C 0.27527 0.50005 0.09151 0.0
C1528 C 0.26725 0.62411 0.12922 0.0
C1529 C 0.28538 0.63163 0.1564 0.0
N1530 N 0.27296 0.5387 0.10394 0.0
N1531 N 0.28633 0.58854 0.14511 0.0
H1532 H 0.4749 0.44011 0.62305 0.0
H1533 H 0.47018 0.77524 0.61758 0.0
H1534 H 0.45875 0.54226 0.66384 0.0
H1535 H 0.46331 0.66778 0.57416 0.0
H1536 H 0.47281 0.6911 0.63535 0.0
H1537 H 0.47742 0.5254 0.6057 0.0
C1538 C 0.47211 0.48058 0.62844 0.0
C1539 C 0.46652 0.4843 0.64483 0.0
C1540 C 0.47089 0.68616 0.62189 0.0
C1541 C 0.46952 0.58138 0.62521 0.0
C1542 C 0.46946 0.73397 0.61173 0.0
C1543 C 0.46642 0.72829 0.59442 0.0
C1544 C 0.46954 0.63251 0.61457 0.0
C1545 C 0.46553 0.67387 0.5875 0.0
C1546 C 0.47349 0.52899 0.61852 0.0
C1547 C 0.46299 0.53765 0.65119 0.0
N1548 N 0.46708 0.62794 0.59762 0.0
N1549 N 0.46455 0.58424 0.64136 0.0
H1550 H 0.2643 0.94899 0.62455 0.0
H1551 H 0.26662 0.28526 0.6283 0.0
H1552 H 0.27777 0.05222 0.58259 0.0
H1553 H 0.27346 0.18067 0.67232 0.0
H1554 H 0.26422 0.20011 0.61097 0.0
H1555 H 0.26131 0.03449 0.64169 0.0
C1556 C 0.26642 0.98967 0.61887 0.0
C1557 C 0.27139 0.99366 0.60219 0.0
C1558 C 0.26608 0.19596 0.62446 0.0
C1559 C 0.26787 0.09107 0.6216 0.0
C1560 C 0.26738 0.24441 0.63438 0.0
C1561 C 0.27037 0.23993 0.65174 0.0
C1562 C 0.26757 0.14278 0.63203 0.0
C1563 C 0.27129 0.18593 0.65894 0.0
C1564 C 0.26477 0.03826 0.62867 0.0
C1565 C 0.27404 0.04735 0.59546 0.0
N1566 N 0.26993 0.13934 0.64903 0.0
N1567 N 0.27225 0.09405 0.60521 0.0
loop_
_geom_bond_atom_site_label_1
_geom_bond_atom_site_label_2
_geom_bond_distance
_geom_bond_site_symmetry_2
_ccdc_geom_bond_type
C0 O1 1.160 . S
C0 O7 1.185 . S
O1 C0 1.160 . S
O2 Zn3 1.899 . S
O2 C10 1.284 . S
Zn3 O2 1.899 . S
Zn3 O4 2.032 . S
Zn3 O7 2.086 . S
Zn3 O12 1.977 . S
O4 Zn3 2.032 . S
O4 C8 1.278 . S
C5 O6 1.203 . S
C5 O12 1.267 . S
O6 C5 1.203 . S
O7 C0 1.185 . S
O7 Zn3 2.086 . S
C8 O4 1.278 . S
C8 O9 1.211 . S
O9 C8 1.211 . S
C10 O2 1.284 . S
C10 O11 1.273 . S
O11 C10 1.273 . S
O12 Zn3 1.977 . S
O12 C5 1.267 . S
C13 O14 1.160 . S
C13 O20 1.185 . S
O14 C13 1.160 . S
O15 Zn16 1.899 . S
O15 C23 1.284 . S
Zn16 O15 1.899 . S
Zn16 O17 2.032 . S
Zn16 O20 2.086 . S
Zn16 O25 1.977 . S
O17 Zn16 2.032 . S
O17 C21 1.278 . S
C18 O19 1.203 . S
C18 O25 1.267 . S
O19 C18 1.203 . S
O20 C13 1.185 . S
O20 Zn16 2.086 . S
C21 O17 1.278 . S
C21 O22 1.211 . S
O22 C21 1.211 . S
C23 O15 1.284 . S
C23 O24 1.273 . S
O24 C23 1.273 . S
O25 Zn16 1.977 . S
O25 C18 1.267 . S
C26 O27 1.160 . S
C26 O33 1.185 . S
O27 C26 1.160 . S
O28 Zn29 1.899 . S
O28 C36 1.284 . S
Zn29 O28 1.899 . S
Zn29 O30 2.032 . S
Zn29 O33 2.086 . S
Zn29 O38 1.977 . S
O30 Zn29 2.032 . S
O30 C34 1.278 . S
C31 O32 1.203 . S
C31 O38 1.267 . S
O32 C31 1.203 . S
O33 C26 1.185 . S
O33 Zn29 2.086 . S
C34 O30 1.278 . S
C34 O35 1.211 . S
O35 C34 1.211 . S
C36 O28 1.284 . S
C36 O37 1.273 . S
O37 C36 1.273 . S
O38 Zn29 1.977 . S
O38 C31 1.267 . S
C39 O40 1.160 . S
C39 O46 1.185 . S
O40 C39 1.160 . S
O41 Zn42 1.899 . S
O41 C49 1.284 . S
Zn42 O41 1.899 . S
Zn42 O43 2.032 . S
Zn42 O46 2.086 . S
Zn42 O51 1.977 . S
O43 Zn42 2.032 . S
O43 C47 1.278 . S
C44 O45 1.203 . S
C44 O51 1.267 . S
O45 C44 1.203 . S
O46 C39 1.185 . S
O46 Zn42 2.086 . S
C47 O43 1.278 . S
C47 O48 1.211 . S
O48 C47 1.211 . S
C49 O41 1.284 . S
C49 O50 1.273 . S
O50 C49 1.273 . S
O51 Zn42 1.977 . S
O51 C44 1.267 . S
C52 O53 1.160 . S
C52 O59 1.185 . S
O53 C52 1.160 . S
O54 Zn55 1.899 . S
O54 C62 1.284 . S
Zn55 O54 1.899 . S
Zn55 O56 2.032 . S
Zn55 O59 2.086 . S
Zn55 O64 1.977 . S
O56 Zn55 2.032 . S
O56 C60 1.278 . S
C57 O58 1.203 . S
C57 O64 1.267 . S
O58 C57 1.203 . S
O59 C52 1.185 . S
O59 Zn55 2.086 . S
C60 O56 1.278 . S
C60 O61 1.211 . S
O61 C60 1.211 . S
C62 O54 1.284 . S
C62 O63 1.273 . S
O63 C62 1.273 . S
O64 Zn55 1.977 . S
O64 C57 1.267 . S
C65 O66 1.160 . S
C65 O72 1.185 . S
O66 C65 1.160 . S
O67 Zn68 1.899 . S
O67 C75 1.284 . S
Zn68 O67 1.899 . S
Zn68 O69 2.032 . S
Zn68 O72 2.086 . S
Zn68 O77 1.977 . S
O69 Zn68 2.032 . S
O69 C73 1.278 . S
C70 O71 1.203 . S
C70 O77 1.267 . S
O71 C70 1.203 . S
O72 C65 1.185 . S
O72 Zn68 2.086 . S
C73 O69 1.278 . S
C73 O74 1.211 . S
O74 C73 1.211 . S
C75 O67 1.284 . S
C75 O76 1.273 . S
O76 C75 1.273 . S
O77 Zn68 1.977 . S
O77 C70 1.267 . S
C78 O79 1.160 . S
C78 O85 1.185 . S
O79 C78 1.160 . S
O80 Zn81 1.899 . S
O80 C88 1.284 . S
Zn81 O80 1.899 . S
Zn81 O82 2.032 . S
Zn81 O85 2.086 . S
Zn81 O90 1.977 . S
O82 Zn81 2.032 . S
O82 C86 1.278 . S
C83 O84 1.203 . S
C83 O90 1.267 . S
O84 C83 1.203 . S
O85 C78 1.185 . S
O85 Zn81 2.086 . S
C86 O82 1.278 . S
C86 O87 1.211 . S
O87 C86 1.211 . S
C88 O80 1.284 . S
C88 O89 1.273 . S
O89 C88 1.273 . S
O90 Zn81 1.977 . S
O90 C83 1.267 . S
C91 O92 1.160 . S
C91 O98 1.185 . S
O92 C91 1.160 . S
O93 Zn94 1.899 . S
O93 C101 1.284 . S
Zn94 O93 1.899 . S
Zn94 O95 2.032 . S
Zn94 O98 2.086 . S
Zn94 O103 1.977 . S
O95 Zn94 2.032 . S
O95 C99 1.278 . S
C96 O97 1.203 . S
C96 O103 1.267 . S
O97 C96 1.203 . S
O98 C91 1.185 . S
O98 Zn94 2.086 . S
C99 O95 1.278 . S
C99 O100 1.211 . S
O100 C99 1.211 . S
C101 O93 1.284 . S
C101 O102 1.273 . S
O102 C101 1.273 . S
O103 Zn94 1.977 . S
O103 C96 1.267 . S
C104 O105 1.160 . S
C104 O111 1.185 . S
O105 C104 1.160 . S
O106 Zn107 1.899 . S
O106 C114 1.284 . S
Zn107 O106 1.899 . S
Zn107 O108 2.032 . S
Zn107 O111 2.086 . S
Zn107 O116 1.977 . S
O108 Zn107 2.032 . S
O108 C112 1.278 . S
C109 O110 1.203 . S
C109 O116 1.267 . S
O110 C109 1.203 . S
O111 C104 1.185 . S
O111 Zn107 2.086 . S
C112 O108 1.278 . S
C112 O113 1.211 . S
O113 C112 1.211 . S
C114 O106 1.284 . S
C114 O115 1.273 . S
O115 C114 1.273 . S
O116 Zn107 1.977 . S
O116 C109 1.267 . S
C117 O118 1.160 . S
C117 O124 1.185 . S
O118 C117 1.160 . S
O119 Zn120 1.899 . S
O119 C127 1.284 . S
Zn120 O119 1.899 . S
Zn120 O121 2.032 . S
Zn120 O124 2.086 . S
Zn120 O129 1.977 . S
O121 Zn120 2.032 . S
O121 C125 1.278 . S
C122 O123 1.203 . S
C122 O129 1.267 . S
O123 C122 1.203 . S
O124 C117 1.185 . S
O124 Zn120 2.086 . S
C125 O121 1.278 . S
C125 O126 1.211 . S
O126 C125 1.211 . S
C127 O119 1.284 . S
C127 O128 1.273 . S
O128 C127 1.273 . S
O129 Zn120 1.977 . S
O129 C122 1.267 . S
C130 O131 1.160 . S
C130 O137 1.185 . S
O131 C130 1.160 . S
O132 Zn133 1.899 . S
O132 C140 1.284 . S
Zn133 O132 1.899 . S
Zn133 O134 2.032 . S
Zn133 O137 2.086 . S
Zn133 O142 1.977 . S
O134 Zn133 2.032 . S
O134 C138 1.278 . S
C135 O136 1.203 . S
C135 O142 1.267 . S
O136 C135 1.203 . S
O137 C130 1.185 . S
O137 Zn133 2.086 . S
C138 O134 1.278 . S
C138 O139 1.211 . S
O139 C138 1.211 . S
C140 O132 1.284 . S
C140 O141 1.273 . S
O141 C140 1.273 . S
O142 Zn133 1.977 . S
O142 C135 1.267 . S
C143 O144 1.160 . S
C143 O150 1.185 . S
O144 C143 1.160 . S
O145 Zn146 1.899 . S
O145 C153 1.284 . S
Zn146 O145 1.899 . S
Zn146 O147 2.032 . S
Zn146 O150 2.086 . S
Zn146 O155 1.977 . S
O147 Zn146 2.032 . S
O147 C151 1.278 . S
C148 O149 1.203 . S
C148 O155 1.267 . S
O149 C148 1.203 . S
O150 C143 1.185 . S
O150 Zn146 2.086 . S
C151 O147 1.278 . S
C151 O152 1.211 . S
O152 C151 1.211 . S
C153 O145 1.284 . S
C153 O154 1.273 . S
O154 C153 1.273 . S
O155 Zn146 1.977 . S
O155 C148 1.267 . S
C156 O157 1.160 . S
C156 O163 1.185 . S
O157 C156 1.160 . S
O158 Zn159 1.899 . S
O158 C166 1.284 . S
Zn159 O158 1.899 . S
Zn159 O160 2.032 . S
Zn159 O163 2.086 . S
Zn159 O168 1.977 . S
O160 Zn159 2.032 . S
O160 C164 1.278 . S
C161 O162 1.203 . S
C161 O168 1.267 . S
O162 C161 1.203 . S
O163 C156 1.185 . S
O163 Zn159 2.086 . S
C164 O160 1.278 . S
C164 O165 1.211 . S
O165 C164 1.211 . S
C166 O158 1.284 . S
C166 O167 1.273 . S
O167 C166 1.273 . S
O168 Zn159 1.977 . S
O168 C161 1.267 . S
C169 O170 1.160 . S
C169 O176 1.185 . S
O170 C169 1.160 . S
O171 Zn172 1.899 . S
O171 C179 1.284 . S
Zn172 O171 1.899 . S
Zn172 O173 2.032 . S
Zn172 O176 2.086 . S
Zn172 O181 1.977 . S
O173 Zn172 2.032 . S
O173 C177 1.278 . S
C174 O175 1.203 . S
C174 O181 1.267 . S
O175 C174 1.203 . S
O176 C169 1.185 . S
O176 Zn172 2.086 . S
C177 O173 1.278 . S
C177 O178 1.211 . S
O178 C177 1.211 . S
C179 O171 1.284 . S
C179 O180 1.273 . S
O180 C179 1.273 . S
O181 Zn172 1.977 . S
O181 C174 1.267 . S
C182 O183 1.160 . S
C182 O189 1.185 . S
O183 C182 1.160 . S
O184 Zn185 1.899 . S
O184 C192 1.284 . S
Zn185 O184 1.899 . S
Zn185 O186 2.032 . S
Zn185 O189 2.086 . S
Zn185 O194 1.977 . S
O186 Zn185 2.032 . S
O186 C190 1.278 . S
C187 O188 1.203 . S
C187 O194 1.267 . S
O188 C187 1.203 . S
O189 C182 1.185 . S
O189 Zn185 2.086 . S
C190 O186 1.278 . S
C190 O191 1.211 . S
O191 C190 1.211 . S
C192 O184 1.284 . S
C192 O193 1.273 . S
O193 C192 1.273 . S
O194 Zn185 1.977 . S
O194 C187 1.267 . S
C195 O196 1.160 . S
C195 O202 1.185 . S
O196 C195 1.160 . S
O197 Zn198 1.899 . S
O197 C205 1.284 . S
Zn198 O197 1.899 . S
Zn198 O199 2.032 . S
Zn198 O202 2.086 . S
Zn198 O207 1.977 . S
O199 Zn198 2.032 . S
O199 C203 1.278 . S
C200 O201 1.203 . S
C200 O207 1.267 . S
O201 C200 1.203 . S
O202 C195 1.185 . S
O202 Zn198 2.086 . S
C203 O199 1.278 . S
C203 O204 1.211 . S
O204 C203 1.211 . S
C205 O197 1.284 . S
C205 O206 1.273 . S
O206 C205 1.273 . S
O207 Zn198 1.977 . S
O207 C200 1.267 . S
C208 O209 1.160 . S
C208 O215 1.185 . S
O209 C208 1.160 . S
O210 Zn211 1.899 . S
O210 C218 1.284 . S
Zn211 O210 1.899 . S
Zn211 O212 2.032 . S
Zn211 O215 2.086 . S
Zn211 O220 1.977 . S
O212 Zn211 2.032 . S
O212 C216 1.278 . S
C213 O214 1.203 . S
C213 O220 1.267 . S
O214 C213 1.203 . S
O215 C208 1.185 . S
O215 Zn211 2.086 . S
C216 O212 1.278 . S
C216 O217 1.211 . S
O217 C216 1.211 . S
C218 O210 1.284 . S
C218 O219 1.273 . S
O219 C218 1.273 . S
O220 Zn211 1.977 . S
O220 C213 1.267 . S
C221 O222 1.160 . S
C221 O228 1.185 . S
O222 C221 1.160 . S
O223 Zn224 1.899 . S
O223 C231 1.284 . S
Zn224 O223 1.899 . S
Zn224 O225 2.032 . S
Zn224 O228 2.086 . S
Zn224 O233 1.977 . S
O225 Zn224 2.032 . S
O225 C229 1.278 . S
C226 O227 1.203 . S
C226 O233 1.267 . S
O227 C226 1.203 . S
O228 C221 1.185 . S
O228 Zn224 2.086 . S
C229 O225 1.278 . S
C229 O230 1.211 . S
O230 C229 1.211 . S
C231 O223 1.284 . S
C231 O232 1.273 . S
O232 C231 1.273 . S
O233 Zn224 1.977 . S
O233 C226 1.267 . S
C234 O235 1.160 . S
C234 O241 1.185 . S
O235 C234 1.160 . S
O236 Zn237 1.899 . S
O236 C244 1.284 . S
Zn237 O236 1.899 . S
Zn237 O238 2.032 . S
Zn237 O241 2.086 . S
Zn237 O246 1.977 . S
O238 Zn237 2.032 . S
O238 C242 1.278 . S
C239 O240 1.203 . S
C239 O246 1.267 . S
O240 C239 1.203 . S
O241 C234 1.185 . S
O241 Zn237 2.086 . S
C242 O238 1.278 . S
C242 O243 1.211 . S
O243 C242 1.211 . S
C244 O236 1.284 . S
C244 O245 1.273 . S
O245 C244 1.273 . S
O246 Zn237 1.977 . S
O246 C239 1.267 . S
C247 O248 1.160 . S
C247 O254 1.185 . S
O248 C247 1.160 . S
O249 Zn250 1.899 . S
O249 C257 1.284 . S
Zn250 O249 1.899 . S
Zn250 O251 2.032 . S
Zn250 O254 2.086 . S
Zn250 O259 1.977 . S
O251 Zn250 2.032 . S
O251 C255 1.278 . S
C252 O253 1.203 . S
C252 O259 1.267 . S
O253 C252 1.203 . S
O254 C247 1.185 . S
O254 Zn250 2.086 . S
C255 O251 1.278 . S
C255 O256 1.211 . S
O256 C255 1.211 . S
C257 O249 1.284 . S
C257 O258 1.273 . S
O258 C257 1.273 . S
O259 Zn250 1.977 . S
O259 C252 1.267 . S
C260 O261 1.160 . S
C260 O267 1.185 . S
O261 C260 1.160 . S
O262 Zn263 1.899 . S
O262 C270 1.284 . S
Zn263 O262 1.899 . S
Zn263 O264 2.032 . S
Zn263 O267 2.086 . S
Zn263 O272 1.977 . S
O264 Zn263 2.032 . S
O264 C268 1.278 . S
C265 O266 1.203 . S
C265 O272 1.267 . S
O266 C265 1.203 . S
O267 C260 1.185 . S
O267 Zn263 2.086 . S
C268 O264 1.278 . S
C268 O269 1.211 . S
O269 C268 1.211 . S
C270 O262 1.284 . S
C270 O271 1.273 . S
O271 C270 1.273 . S
O272 Zn263 1.977 . S
O272 C265 1.267 . S
C273 O274 1.160 . S
C273 O280 1.185 . S
O274 C273 1.160 . S
O275 Zn276 1.899 . S
O275 C283 1.284 . S
Zn276 O275 1.899 . S
Zn276 O277 2.032 . S
Zn276 O280 2.086 . S
Zn276 O285 1.977 . S
O277 Zn276 2.032 . S
O277 C281 1.278 . S
C278 O279 1.203 . S
C278 O285 1.267 . S
O279 C278 1.203 . S
O280 C273 1.185 . S
O280 Zn276 2.086 . S
C281 O277 1.278 . S
C281 O282 1.211 . S
O282 C281 1.211 . S
C283 O275 1.284 . S
C283 O284 1.273 . S
O284 C283 1.273 . S
O285 Zn276 1.977 . S
O285 C278 1.267 . S
C286 O287 1.160 . S
C286 O293 1.185 . S
O287 C286 1.160 . S
O288 Zn289 1.899 . S
O288 C296 1.284 . S
Zn289 O288 1.899 . S
Zn289 O290 2.032 . S
Zn289 O293 2.086 . S
Zn289 O298 1.977 . S
O290 Zn289 2.032 . S
O290 C294 1.278 . S
C291 O292 1.203 . S
C291 O298 1.267 . S
O292 C291 1.203 . S
O293 C286 1.185 . S
O293 Zn289 2.086 . S
C294 O290 1.278 . S
C294 O295 1.211 . S
O295 C294 1.211 . S
C296 O288 1.284 . S
C296 O297 1.273 . S
O297 C296 1.273 . S
O298 Zn289 1.977 . S
O298 C291 1.267 . S
C299 O300 1.160 . S
C299 O306 1.185 . S
O300 C299 1.160 . S
O301 Zn302 1.899 . S
O301 C309 1.284 . S
Zn302 O301 1.899 . S
Zn302 O303 2.032 . S
Zn302 O306 2.086 . S
Zn302 O311 1.977 . S
O303 Zn302 2.032 . S
O303 C307 1.278 . S
C304 O305 1.203 . S
C304 O311 1.267 . S
O305 C304 1.203 . S
O306 C299 1.185 . S
O306 Zn302 2.086 . S
C307 O303 1.278 . S
C307 O308 1.211 . S
O308 C307 1.211 . S
C309 O301 1.284 . S
C309 O310 1.273 . S
O310 C309 1.273 . S
O311 Zn302 1.977 . S
O311 C304 1.267 . S
C312 O313 1.160 . S
C312 O319 1.185 . S
O313 C312 1.160 . S
O314 Zn315 1.899 . S
O314 C322 1.284 . S
Zn315 O314 1.899 . S
Zn315 O316 2.032 . S
Zn315 O319 2.086 . S
Zn315 O324 1.977 . S
O316 Zn315 2.032 . S
O316 C320 1.278 . S
C317 O318 1.203 . S
C317 O324 1.267 . S
O318 C317 1.203 . S
O319 C312 1.185 . S
O319 Zn315 2.086 . S
C320 O316 1.278 . S
C320 O321 1.211 . S
O321 C320 1.211 . S
C322 O314 1.284 . S
C322 O323 1.273 . S
O323 C322 1.273 . S
O324 Zn315 1.977 . S
O324 C317 1.267 . S
C325 O326 1.160 . S
C325 O332 1.185 . S
O326 C325 1.160 . S
O327 Zn328 1.899 . S
O327 C335 1.284 . S
Zn328 O327 1.899 . S
Zn328 O329 2.032 . S
Zn328 O332 2.086 . S
Zn328 O337 1.977 . S
O329 Zn328 2.032 . S
O329 C333 1.278 . S
C330 O331 1.203 . S
C330 O337 1.267 . S
O331 C330 1.203 . S
O332 C325 1.185 . S
O332 Zn328 2.086 . S
C333 O329 1.278 . S
C333 O334 1.211 . S
O334 C333 1.211 . S
C335 O327 1.284 . S
C335 O336 1.273 . S
O336 C335 1.273 . S
O337 Zn328 1.977 . S
O337 C330 1.267 . S
C338 O339 1.160 . S
C338 O345 1.185 . S
O339 C338 1.160 . S
O340 Zn341 1.899 . S
O340 C348 1.284 . S
Zn341 O340 1.899 . S
Zn341 O342 2.032 . S
Zn341 O345 2.086 . S
Zn341 O350 1.977 . S
O342 Zn341 2.032 . S
O342 C346 1.278 . S
C343 O344 1.203 . S
C343 O350 1.267 . S
O344 C343 1.203 . S
O345 C338 1.185 . S
O345 Zn341 2.086 . S
C346 O342 1.278 . S
C346 O347 1.211 . S
O347 C346 1.211 . S
C348 O340 1.284 . S
C348 O349 1.273 . S
O349 C348 1.273 . S
O350 Zn341 1.977 . S
O350 C343 1.267 . S
C351 O352 1.160 . S
C351 O358 1.185 . S
O352 C351 1.160 . S
O353 Zn354 1.899 . S
O353 C361 1.284 . S
Zn354 O353 1.899 . S
Zn354 O355 2.032 . S
Zn354 O358 2.086 . S
Zn354 O363 1.977 . S
O355 Zn354 2.032 . S
O355 C359 1.278 . S
C356 O357 1.203 . S
C356 O363 1.267 . S
O357 C356 1.203 . S
O358 C351 1.185 . S
O358 Zn354 2.086 . S
C359 O355 1.278 . S
C359 O360 1.211 . S
O360 C359 1.211 . S
C361 O353 1.284 . S
C361 O362 1.273 . S
O362 C361 1.273 . S
O363 Zn354 1.977 . S
O363 C356 1.267 . S
C364 O365 1.160 . S
C364 O371 1.185 . S
O365 C364 1.160 . S
O366 Zn367 1.899 . S
O366 C374 1.284 . S
Zn367 O366 1.899 . S
Zn367 O368 2.032 . S
Zn367 O371 2.086 . S
Zn367 O376 1.977 . S
O368 Zn367 2.032 . S
O368 C372 1.278 . S
C369 O370 1.203 . S
C369 O376 1.267 . S
O370 C369 1.203 . S
O371 C364 1.185 . S
O371 Zn367 2.086 . S
C372 O368 1.278 . S
C372 O373 1.211 . S
O373 C372 1.211 . S
C374 O366 1.284 . S
C374 O375 1.273 . S
O375 C374 1.273 . S
O376 Zn367 1.977 . S
O376 C369 1.267 . S
C377 O378 1.160 . S
C377 O384 1.185 . S
O378 C377 1.160 . S
O379 Zn380 1.899 . S
O379 C387 1.284 . S
Zn380 O379 1.899 . S
Zn380 O381 2.032 . S
Zn380 O384 2.086 . S
Zn380 O389 1.977 . S
O381 Zn380 2.032 . S
O381 C385 1.278 . S
C382 O383 1.203 . S
C382 O389 1.267 . S
O383 C382 1.203 . S
O384 C377 1.185 . S
O384 Zn380 2.086 . S
C385 O381 1.278 . S
C385 O386 1.211 . S
O386 C385 1.211 . S
C387 O379 1.284 . S
C387 O388 1.273 . S
O388 C387 1.273 . S
O389 Zn380 1.977 . S
O389 C382 1.267 . S
C390 O391 1.160 . S
C390 O397 1.185 . S
O391 C390 1.160 . S
O392 Zn393 1.899 . S
O392 C400 1.284 . S
Zn393 O392 1.899 . S
Zn393 O394 2.032 . S
Zn393 O397 2.086 . S
Zn393 O402 1.977 . S
O394 Zn393 2.032 . S
O394 C398 1.278 . S
C395 O396 1.203 . S
C395 O402 1.267 . S
O396 C395 1.203 . S
O397 C390 1.185 . S
O397 Zn393 2.086 . S
C398 O394 1.278 . S
C398 O399 1.211 . S
O399 C398 1.211 . S
C400 O392 1.284 . S
C400 O401 1.273 . S
O401 C400 1.273 . S
O402 Zn393 1.977 . S
O402 C395 1.267 . S
C403 O404 1.160 . S
C403 O410 1.185 . S
O404 C403 1.160 . S
O405 Zn406 1.899 . S
O405 C413 1.284 . S
Zn406 O405 1.899 . S
Zn406 O407 2.032 . S
Zn406 O410 2.086 . S
Zn406 O415 1.977 . S
O407 Zn406 2.032 . S
O407 C411 1.278 . S
C408 O409 1.203 . S
C408 O415 1.267 . S
O409 C408 1.203 . S
O410 C403 1.185 . S
O410 Zn406 2.086 . S
C411 O407 1.278 . S
C411 O412 1.211 . S
O412 C411 1.211 . S
C413 O405 1.284 . S
C413 O414 1.273 . S
O414 C413 1.273 . S
O415 Zn406 1.977 . S
O415 C408 1.267 . S
H416 C422 0.930 . S
H417 C426 0.930 . S
H418 C431 0.929 . S
H419 C429 0.929 . S
H420 C424 0.929 . S
H421 C430 0.929 . S
C422 H416 0.930 . S
C422 C423 1.367 . S
C422 C430 1.378 . S
C423 C422 1.367 . S
C423 C431 1.433 . S
C424 H420 0.929 . S
C424 C426 1.378 . S
C424 C428 1.350 . S
C425 C428 1.463 . S
C425 C430 1.350 . S
C425 N433 1.427 . S
C426 H417 0.930 . S
C426 C424 1.378 . S
C426 C427 1.367 . S
C427 C426 1.367 . S
C427 C429 1.433 . S
C428 C424 1.350 . S
C428 C425 1.463 . S
C428 N432 1.427 . S
C429 H419 0.929 . S
C429 C427 1.433 . S
C429 N432 1.384 . S
C430 H421 0.929 . S
C430 C422 1.378 . S
C430 C425 1.350 . S
C431 H418 0.929 . S
C431 C423 1.433 . S
C431 N433 1.384 . S
N432 C428 1.427 . S
N432 C429 1.384 . S
N433 C425 1.427 . S
N433 C431 1.384 . S
H434 C440 0.930 . S
H435 C444 0.930 . S
H436 C449 0.929 . S
H437 C447 0.929 . S
H438 C442 0.929 . S
H439 C448 0.929 . S
C440 H434 0.930 . S
C440 C441 1.367 . S
C440 C448 1.378 . S
C441 C440 1.367 . S
C441 C449 1.433 . S
C442 H438 0.929 . S
C442 C444 1.378 . S
C442 C446 1.350 . S
C443 C446 1.463 . S
C443 C448 1.350 . S
C443 N451 1.427 . S
C444 H435 0.930 . S
C444 C442 1.378 . S
C444 C445 1.367 . S
C445 C444 1.367 . S
C445 C447 1.433 . S
C446 C442 1.350 . S
C446 C443 1.463 . S
C446 N450 1.427 . S
C447 H437 0.929 . S
C447 C445 1.433 . S
C447 N450 1.384 . S
C448 H439 0.929 . S
C448 C440 1.378 . S
C448 C443 1.350 . S
C449 H436 0.929 . S
C449 C441 1.433 . S
C449 N451 1.384 . S
N450 C446 1.427 . S
N450 C447 1.384 . S
N451 C443 1.427 . S
N451 C449 1.384 . S
H452 C458 0.930 . S
H453 C462 0.930 . S
H454 C467 0.929 . S
H455 C465 0.929 . S
H456 C460 0.929 . S
H457 C466 0.929 . S
C458 H452 0.930 . S
C458 C459 1.367 . S
C458 C466 1.378 . S
C459 C458 1.367 . S
C459 C467 1.433 . S
C460 H456 0.929 . S
C460 C462 1.378 . S
C460 C464 1.350 . S
C461 C464 1.463 . S
C461 C466 1.350 . S
C461 N469 1.427 . S
C462 H453 0.930 . S
C462 C460 1.378 . S
C462 C463 1.367 . S
C463 C462 1.367 . S
C463 C465 1.433 . S
C464 C460 1.350 . S
C464 C461 1.463 . S
C464 N468 1.427 . S
C465 H455 0.929 . S
C465 C463 1.433 . S
C465 N468 1.384 . S
C466 H457 0.929 . S
C466 C458 1.378 . S
C466 C461 1.350 . S
C467 H454 0.929 . S
C467 C459 1.433 . S
C467 N469 1.384 . S
N468 C464 1.427 . S
N468 C465 1.384 . S
N469 C461 1.427 . S
N469 C467 1.384 . S
H470 C476 0.930 . S
H471 C480 0.930 . S
H472 C485 0.929 . S
H473 C483 0.929 . S
H474 C478 0.929 . S
H475 C484 0.929 . S
C476 H470 0.930 . S
C476 C477 1.367 . S
C476 C484 1.378 . S
C477 C476 1.367 . S
C477 C485 1.433 . S
C478 H474 0.929 . S
C478 C480 1.378 . S
C478 C482 1.350 . S
C479 C482 1.463 . S
C479 C484 1.350 . S
C479 N487 1.427 . S
C480 H471 0.930 . S
C480 C478 1.378 . S
C480 C481 1.367 . S
C481 C480 1.367 . S
C481 C483 1.433 . S
C482 C478 1.350 . S
C482 C479 1.463 . S
C482 N486 1.427 . S
C483 H473 0.929 . S
C483 C481 1.433 . S
C483 N486 1.384 . S
C484 H475 0.929 . S
C484 C476 1.378 . S
C484 C479 1.350 . S
C485 H472 0.929 . S
C485 C477 1.433 . S
C485 N487 1.384 . S
N486 C482 1.427 . S
N486 C483 1.384 . S
N487 C479 1.427 . S
N487 C485 1.384 . S
H488 C494 0.930 . S
H489 C498 0.930 . S
H490 C503 0.929 . S
H491 C501 0.929 . S
H492 C496 0.929 . S
H493 C502 0.929 . S
C494 H488 0.930 . S
C494 C495 1.367 . S
C494 C502 1.378 . S
C495 C494 1.367 . S
C495 C503 1.433 . S
C496 H492 0.929 . S
C496 C498 1.378 . S
C496 C500 1.350 . S
C497 C500 1.463 . S
C497 C502 1.350 . S
C497 N505 1.427 . S
C498 H489 0.930 . S
C498 C496 1.378 . S
C498 C499 1.367 . S
C499 C498 1.367 . S
C499 C501 1.433 . S
C500 C496 1.350 . S
C500 C497 1.463 . S
C500 N504 1.427 . S
C501 H491 0.929 . S
C501 C499 1.433 . S
C501 N504 1.384 . S
C502 H493 0.929 . S
C502 C494 1.378 . S
C502 C497 1.350 . S
C503 H490 0.929 . S
C503 C495 1.433 . S
C503 N505 1.384 . S
N504 C500 1.427 . S
N504 C501 1.384 . S
N505 C497 1.427 . S
N505 C503 1.384 . S
H506 C512 0.930 . S
H507 C516 0.930 . S
H508 C521 0.929 . S
H509 C519 0.929 . S
H510 C514 0.929 . S
H511 C520 0.929 . S
C512 H506 0.930 . S
C512 C513 1.367 . S
C512 C520 1.378 . S
C513 C512 1.367 . S
C513 C521 1.433 . S
C514 H510 0.929 . S
C514 C516 1.378 . S
C514 C518 1.350 . S
C515 C518 1.463 . S
C515 C520 1.350 . S
C515 N523 1.427 . S
C516 H507 0.930 . S
C516 C514 1.378 . S
C516 C517 1.367 . S
C517 C516 1.367 . S
C517 C519 1.433 . S
C518 C514 1.350 . S
C518 C515 1.463 . S
C518 N522 1.427 . S
C519 H509 0.929 . S
C519 C517 1.433 . S
C519 N522 1.384 . S
C520 H511 0.929 . S
C520 C512 1.378 . S
C520 C515 1.350 . S
C521 H508 0.929 . S
C521 C513 1.433 . S
C521 N523 1.384 . S
N522 C518 1.427 . S
N522 C519 1.384 . S
N523 C515 1.427 . S
N523 C521 1.384 . S
H524 C530 0.930 . S
H525 C534 0.930 . S
H526 C539 0.929 . S
H527 C537 0.929 . S
H528 C532 0.929 . S
H529 C538 0.929 . S
C530 H524 0.930 . S
C530 C531 1.367 . S
C530 C538 1.378 . S
C531 C530 1.367 . S
C531 C539 1.433 . S
C532 H528 0.929 . S
C532 C534 1.378 . S
C532 C536 1.350 . S
C533 C536 1.463 . S
C533 C538 1.350 . S
C533 N541 1.427 . S
C534 H525 0.930 . S
C534 C532 1.378 . S
C534 C535 1.367 . S
C535 C534 1.367 . S
C535 C537 1.433 . S
C536 C532 1.350 . S
C536 C533 1.463 . S
C536 N540 1.427 . S
C537 H527 0.929 . S
C537 C535 1.433 . S
C537 N540 1.384 . S
C538 H529 0.929 . S
C538 C530 1.378 . S
C538 C533 1.350 . S
C539 H526 0.929 . S
C539 C531 1.433 . S
C539 N541 1.384 . S
N540 C536 1.427 . S
N540 C537 1.384 . S
N541 C533 1.427 . S
N541 C539 1.384 . S
H542 C548 0.930 . S
H543 C552 0.930 . S
H544 C557 0.929 . S
H545 C555 0.929 . S
H546 C550 0.929 . S
H547 C556 0.929 . S
C548 H542 0.930 . S
C548 C549 1.367 . S
C548 C556 1.378 . S
C549 C548 1.367 . S
C549 C557 1.433 . S
C550 H546 0.929 . S
C550 C552 1.378 . S
C550 C554 1.350 . S
C551 C554 1.463 . S
C551 C556 1.350 . S
C551 N559 1.427 . S
C552 H543 0.930 . S
C552 C550 1.378 . S
C552 C553 1.367 . S
C553 C552 1.367 . S
C553 C555 1.433 . S
C554 C550 1.350 . S
C554 C551 1.463 . S
C554 N558 1.427 . S
C555 H545 0.929 . S
C555 C553 1.433 . S
C555 N558 1.384 . S
C556 H547 0.929 . S
C556 C548 1.378 . S
C556 C551 1.350 . S
C557 H544 0.929 . S
C557 C549 1.433 . S
C557 N559 1.384 . S
N558 C554 1.427 . S
N558 C555 1.384 . S
N559 C551 1.427 . S
N559 C557 1.384 . S
H560 C566 0.930 . S
H561 C570 0.930 . S
H562 C575 0.929 . S
H563 C573 0.929 . S
H564 C568 0.929 . S
H565 C574 0.929 . S
C566 H560 0.930 . S
C566 C567 1.367 . S
C566 C574 1.378 . S
C567 C566 1.367 . S
C567 C575 1.433 . S
C568 H564 0.929 . S
C568 C570 1.378 . S
C568 C572 1.350 . S
C569 C572 1.463 . S
C569 C574 1.350 . S
C569 N577 1.427 . S
C570 H561 0.930 . S
C570 C568 1.378 . S
C570 C571 1.367 . S
C571 C570 1.367 . S
C571 C573 1.433 . S
C572 C568 1.350 . S
C572 C569 1.463 . S
C572 N576 1.427 . S
C573 H563 0.929 . S
C573 C571 1.433 . S
C573 N576 1.384 . S
C574 H565 0.929 . S
C574 C566 1.378 . S
C574 C569 1.350 . S
C575 H562 0.929 . S
C575 C567 1.433 . S
C575 N577 1.384 . S
N576 C572 1.427 . S
N576 C573 1.384 . S
N577 C569 1.427 . S
N577 C575 1.384 . S
H578 C584 0.930 . S
H579 C588 0.930 . S
H580 C593 0.929 . S
H581 C591 0.929 . S
H582 C586 0.929 . S
H583 C592 0.929 . S
C584 H578 0.930 . S
C584 C585 1.367 . S
C584 C592 1.378 . S
C585 C584 1.367 . S
C585 C593 1.433 . S
C586 H582 0.929 . S
C586 C588 1.378 . S
C586 C590 1.350 . S
C587 C590 1.463 . S
C587 C592 1.350 . S
C587 N595 1.427 . S
C588 H579 0.930 . S
C588 C586 1.378 . S
C588 C589 1.367 . S
C589 C588 1.367 . S
C589 C591 1.433 . S
C590 C586 1.350 . S
C590 C587 1.463 . S
C590 N594 1.427 . S
C591 H581 0.929 . S
C591 C589 1.433 . S
C591 N594 1.384 . S
C592 H583 0.929 . S
C592 C584 1.378 . S
C592 C587 1.350 . S
C593 H580 0.929 . S
C593 C585 1.433 . S
C593 N595 1.384 . S
N594 C590 1.427 . S
N594 C591 1.384 . S
N595 C587 1.427 . S
N595 C593 1.384 . S
H596 C602 0.930 . S
H597 C606 0.930 . S
H598 C611 0.929 . S
H599 C609 0.929 . S
H600 C604 0.929 . S
H601 C610 0.929 . S
C602 H596 0.930 . S
C602 C603 1.367 . S
C602 C610 1.378 . S
C603 C602 1.367 . S
C603 C611 1.433 . S
C604 H600 0.929 . S
C604 C606 1.378 . S
C604 C608 1.350 . S
C605 C608 1.463 . S
C605 C610 1.350 . S
C605 N613 1.427 . S
C606 H597 0.930 . S
C606 C604 1.378 . S
C606 C607 1.367 . S
C607 C606 1.367 . S
C607 C609 1.433 . S
C608 C604 1.350 . S
C608 C605 1.463 . S
C608 N612 1.427 . S
C609 H599 0.929 . S
C609 C607 1.433 . S
C609 N612 1.384 . S
C610 H601 0.929 . S
C610 C602 1.378 . S
C610 C605 1.350 . S
C611 H598 0.929 . S
C611 C603 1.433 . S
C611 N613 1.384 . S
N612 C608 1.427 . S
N612 C609 1.384 . S
N613 C605 1.427 . S
N613 C611 1.384 . S
H614 C620 0.930 . S
H615 C624 0.930 . S
H616 C629 0.929 . S
H617 C627 0.929 . S
H618 C622 0.929 . S
H619 C628 0.929 . S
C620 H614 0.930 . S
C620 C621 1.367 . S
C620 C628 1.378 . S
C621 C620 1.367 . S
C621 C629 1.433 . S
C622 H618 0.929 . S
C622 C624 1.378 . S
C622 C626 1.350 . S
C623 C626 1.463 . S
C623 C628 1.350 . S
C623 N631 1.427 . S
C624 H615 0.930 . S
C624 C622 1.378 . S
C624 C625 1.367 . S
C625 C624 1.367 . S
C625 C627 1.433 . S
C626 C622 1.350 . S
C626 C623 1.463 . S
C626 N630 1.427 . S
C627 H617 0.929 . S
C627 C625 1.433 . S
C627 N630 1.384 . S
C628 H619 0.929 . S
C628 C620 1.378 . S
C628 C623 1.350 . S
C629 H616 0.929 . S
C629 C621 1.433 . S
C629 N631 1.384 . S
N630 C626 1.427 . S
N630 C627 1.384 . S
N631 C623 1.427 . S
N631 C629 1.384 . S
H632 C638 0.930 . S
H633 C642 0.930 . S
H634 C647 0.929 . S
H635 C645 0.929 . S
H636 C640 0.929 . S
H637 C646 0.929 . S
C638 H632 0.930 . S
C638 C639 1.367 . S
C638 C646 1.378 . S
C639 C638 1.367 . S
C639 C647 1.433 . S
C640 H636 0.929 . S
C640 C642 1.378 . S
C640 C644 1.350 . S
C641 C644 1.463 . S
C641 C646 1.350 . S
C641 N649 1.427 . S
C642 H633 0.930 . S
C642 C640 1.378 . S
C642 C643 1.367 . S
C643 C642 1.367 . S
C643 C645 1.433 . S
C644 C640 1.350 . S
C644 C641 1.463 . S
C644 N648 1.427 . S
C645 H635 0.929 . S
C645 C643 1.433 . S
C645 N648 1.384 . S
C646 H637 0.929 . S
C646 C638 1.378 . S
C646 C641 1.350 . S
C647 H634 0.929 . S
C647 C639 1.433 . S
C647 N649 1.384 . S
N648 C644 1.427 . S
N648 C645 1.384 . S
N649 C641 1.427 . S
N649 C647 1.384 . S
H650 C656 0.930 . S
H651 C660 0.930 . S
H652 C665 0.929 . S
H653 C663 0.929 . S
H654 C658 0.929 . S
H655 C664 0.929 . S
C656 H650 0.930 . S
C656 C657 1.367 . S
C656 C664 1.378 . S
C657 C656 1.367 . S
C657 C665 1.433 . S
C658 H654 0.929 . S
C658 C660 1.378 . S
C658 C662 1.350 . S
C659 C662 1.463 . S
C659 C664 1.350 . S
C659 N667 1.427 . S
C660 H651 0.930 . S
C660 C658 1.378 . S
C660 C661 1.367 . S
C661 C660 1.367 . S
C661 C663 1.433 . S
C662 C658 1.350 . S
C662 C659 1.463 . S
C662 N666 1.427 . S
C663 H653 0.929 . S
C663 C661 1.433 . S
C663 N666 1.384 . S
C664 H655 0.929 . S
C664 C656 1.378 . S
C664 C659 1.350 . S
C665 H652 0.929 . S
C665 C657 1.433 . S
C665 N667 1.384 . S
N666 C662 1.427 . S
N666 C663 1.384 . S
N667 C659 1.427 . S
N667 C665 1.384 . S
H668 C674 0.930 . S
H669 C678 0.930 . S
H670 C683 0.929 . S
H671 C681 0.929 . S
H672 C676 0.929 . S
H673 C682 0.929 . S
C674 H668 0.930 . S
C674 C675 1.367 . S
C674 C682 1.378 . S
C675 C674 1.367 . S
C675 C683 1.433 . S
C676 H672 0.929 . S
C676 C678 1.378 . S
C676 C680 1.350 . S
C677 C680 1.463 . S
C677 C682 1.350 . S
C677 N685 1.427 . S
C678 H669 0.930 . S
C678 C676 1.378 . S
C678 C679 1.367 . S
C679 C678 1.367 . S
C679 C681 1.433 . S
C680 C676 1.350 . S
C680 C677 1.463 . S
C680 N684 1.427 . S
C681 H671 0.929 . S
C681 C679 1.433 . S
C681 N684 1.384 . S
C682 H673 0.929 . S
C682 C674 1.378 . S
C682 C677 1.350 . S
C683 H670 0.929 . S
C683 C675 1.433 . S
C683 N685 1.384 . S
N684 C680 1.427 . S
N684 C681 1.384 . S
N685 C677 1.427 . S
N685 C683 1.384 . S
H686 C692 0.930 . S
H687 C696 0.930 . S
H688 C701 0.929 . S
H689 C699 0.929 . S
H690 C694 0.929 . S
H691 C700 0.929 . S
C692 H686 0.930 . S
C692 C693 1.367 . S
C692 C700 1.378 . S
C693 C692 1.367 . S
C693 C701 1.433 . S
C694 H690 0.929 . S
C694 C696 1.378 . S
C694 C698 1.350 . S
C695 C698 1.463 . S
C695 C700 1.350 . S
C695 N703 1.427 . S
C696 H687 0.930 . S
C696 C694 1.378 . S
C696 C697 1.367 . S
C697 C696 1.367 . S
C697 C699 1.433 . S
C698 C694 1.350 . S
C698 C695 1.463 . S
C698 N702 1.427 . S
C699 H689 0.929 . S
C699 C697 1.433 . S
C699 N702 1.384 . S
C700 H691 0.929 . S
C700 C692 1.378 . S
C700 C695 1.350 . S
C701 H688 0.929 . S
C701 C693 1.433 . S
C701 N703 1.384 . S
N702 C698 1.427 . S
N702 C699 1.384 . S
N703 C695 1.427 . S
N703 C701 1.384 . S
H704 C710 0.930 . S
H705 C714 0.930 . S
H706 C719 0.929 . S
H707 C717 0.929 . S
H708 C712 0.929 . S
H709 C718 0.929 . S
C710 H704 0.930 . S
C710 C711 1.367 . S
C710 C718 1.378 1_455 S
C711 C710 1.367 . S
C711 C719 1.433 . S
C712 H708 0.929 . S
C712 C714 1.378 1_455 S
C712 C716 1.350 1_455 S
C713 C716 1.463 1_455 S
C713 C718 1.350 1_455 S
C713 N721 1.427 . S
C714 H705 0.930 . S
C714 C712 1.378 1_655 S
C714 C715 1.367 . S
C715 C714 1.367 . S
C715 C717 1.433 . S
C716 C712 1.350 1_655 S
C716 C713 1.463 1_655 S
C716 N720 1.427 . S
C717 H707 0.929 . S
C717 C715 1.433 . S
C717 N720 1.384 . S
C718 H709 0.929 . S
C718 C710 1.378 1_655 S
C718 C713 1.350 1_655 S
C719 H706 0.929 . S
C719 C711 1.433 . S
C719 N721 1.384 . S
N720 C716 1.427 . S
N720 C717 1.384 . S
N721 C713 1.427 . S
N721 C719 1.384 . S
H722 C728 0.930 . S
H723 C732 0.930 . S
H724 C737 0.929 1_565 S
H725 C735 0.929 1_545 S
H726 C730 0.929 . S
H727 C736 0.929 . S
C728 H722 0.930 . S
C728 C729 1.367 . S
C728 C736 1.378 . S
C729 C728 1.367 . S
C729 C737 1.433 . S
C730 H726 0.929 . S
C730 C732 1.378 . S
C730 C734 1.350 . S
C731 C734 1.463 1_545 S
C731 C736 1.350 . S
C731 N739 1.427 1_545 S
C732 H723 0.930 . S
C732 C730 1.378 . S
C732 C733 1.367 . S
C733 C732 1.367 . S
C733 C735 1.433 . S
C734 C730 1.350 . S
C734 C731 1.463 1_565 S
C734 N738 1.427 1_565 S
C735 H725 0.929 1_565 S
C735 C733 1.433 . S
C735 N738 1.384 1_565 S
C736 H727 0.929 . S
C736 C728 1.378 . S
C736 C731 1.350 . S
C737 H724 0.929 1_545 S
C737 C729 1.433 . S
C737 N739 1.384 1_545 S
N738 C734 1.427 1_545 S
N738 C735 1.384 1_545 S
N739 C731 1.427 1_565 S
N739 C737 1.384 1_565 S
H740 C746 0.930 . S
H741 C750 0.930 . S
H742 C755 0.960 . S
H743 C753 0.960 . S
H744 C748 0.929 . S
H745 C754 0.929 . S
C746 H740 0.930 . S
C746 C747 1.367 . S
C746 C754 1.378 1_545 S
C747 C746 1.367 . S
C747 C755 1.433 . S
C748 H744 0.929 . S
C748 C750 1.378 1_545 S
C748 C752 1.350 1_545 S
C749 C752 1.463 1_446 S
C749 C754 1.350 1_545 S
C749 N757 1.427 1_455 S
C750 H741 0.930 . S
C750 C748 1.378 1_565 S
C750 C751 1.367 . S
C751 C750 1.367 . S
C751 C753 1.433 . S
C752 C748 1.350 1_565 S
C752 C749 1.463 1_664 S
C752 N756 1.427 1_655 S
C753 H743 0.960 . S
C753 C751 1.433 . S
C753 N756 1.384 1_655 S
C754 H745 0.929 . S
C754 C746 1.378 1_565 S
C754 C749 1.350 1_565 S
C755 H742 0.960 . S
C755 C747 1.433 . S
C755 N757 1.384 1_455 S
N756 C752 1.427 1_455 S
N756 C753 1.384 1_455 S
N757 C749 1.427 1_655 S
N757 C755 1.384 1_655 S
H758 C764 0.930 . S
H759 C768 0.930 . S
H760 C773 0.929 . S
H761 C771 0.929 . S
H762 C766 0.929 . S
H763 C772 0.929 . S
C764 H758 0.930 . S
C764 C765 1.367 . S
C764 C772 1.378 . S
C765 C764 1.367 . S
C765 C773 1.433 . S
C766 H762 0.929 . S
C766 C768 1.378 . S
C766 C770 1.350 . S
C767 C770 1.463 1_556 S
C767 C772 1.350 . S
C767 N775 1.427 . S
C768 H759 0.930 . S
C768 C766 1.378 . S
C768 C769 1.367 . S
C769 C768 1.367 . S
C769 C771 1.433 . S
C770 C766 1.350 . S
C770 C767 1.463 1_554 S
C770 N774 1.427 . S
C771 H761 0.929 . S
C771 C769 1.433 . S
C771 N774 1.384 . S
C772 H763 0.929 . S
C772 C764 1.378 . S
C772 C767 1.350 . S
C773 H760 0.929 . S
C773 C765 1.433 . S
C773 N775 1.384 . S
N774 C770 1.427 . S
N774 C771 1.384 . S
N775 C767 1.427 . S
N775 C773 1.384 . S
H776 C782 0.930 . S
H777 C786 0.930 . S
H778 C791 0.929 . S
H779 C789 0.929 . S
H780 C784 0.929 . S
H781 C790 0.929 . S
C782 H776 0.930 . S
C782 C783 1.367 . S
C782 C790 1.378 . S
C783 C782 1.367 . S
C783 C791 1.433 . S
C784 H780 0.929 . S
C784 C786 1.378 . S
C784 C788 1.350 . S
C785 C788 1.463 1_655 S
C785 C790 1.350 . S
C785 N793 1.427 . S
C786 H777 0.930 . S
C786 C784 1.378 . S
C786 C787 1.367 . S
C787 C786 1.367 . S
C787 C789 1.433 . S
C788 C784 1.350 . S
C788 C785 1.463 1_455 S
C788 N792 1.427 . S
C789 H779 0.929 . S
C789 C787 1.433 . S
C789 N792 1.384 . S
C790 H781 0.929 . S
C790 C782 1.378 . S
C790 C785 1.350 . S
C791 H778 0.929 . S
C791 C783 1.433 . S
C791 N793 1.384 . S
N792 C788 1.427 . S
N792 C789 1.384 . S
N793 C785 1.427 . S
N793 C791 1.384 . S
H794 C800 0.930 . S
H795 C804 0.930 . S
H796 C809 0.929 . S
H797 C807 0.929 . S
H798 C802 0.929 . S
H799 C808 0.929 . S
C800 H794 0.930 . S
C800 C801 1.367 . S
C800 C808 1.378 . S
C801 C800 1.367 . S
C801 C809 1.433 . S
C802 H798 0.929 . S
C802 C804 1.378 . S
C802 C806 1.350 . S
C803 C806 1.463 1_545 S
C803 C808 1.350 . S
C803 N811 1.427 . S
C804 H795 0.930 . S
C804 C802 1.378 . S
C804 C805 1.367 . S
C805 C804 1.367 . S
C805 C807 1.433 . S
C806 C802 1.350 . S
C806 C803 1.463 1_565 S
C806 N810 1.427 . S
C807 H797 0.929 . S
C807 C805 1.433 . S
C807 N810 1.384 . S
C808 H799 0.929 . S
C808 C800 1.378 . S
C808 C803 1.350 . S
C809 H796 0.929 . S
C809 C801 1.433 . S
C809 N811 1.384 . S
N810 C806 1.427 . S
N810 C807 1.384 . S
N811 C803 1.427 . S
N811 C809 1.384 . S
H812 C818 0.930 . S
H813 C822 0.930 . S
H814 C827 0.929 . S
H815 C825 0.929 . S
H816 C820 0.929 . S
H817 C826 0.929 . S
C818 H812 0.930 . S
C818 C819 1.367 . S
C818 C826 1.378 . S
C819 C818 1.367 . S
C819 C827 1.433 . S
C820 H816 0.929 . S
C820 C822 1.378 . S
C820 C824 1.350 . S
C821 C824 1.463 1_556 S
C821 C826 1.350 . S
C821 N829 1.427 . S
C822 H813 0.930 . S
C822 C820 1.378 . S
C822 C823 1.367 . S
C823 C822 1.367 . S
C823 C825 1.433 . S
C824 C820 1.350 . S
C824 C821 1.463 1_554 S
C824 N828 1.427 . S
C825 H815 0.929 . S
C825 C823 1.433 . S
C825 N828 1.384 . S
C826 H817 0.929 . S
C826 C818 1.378 . S
C826 C821 1.350 . S
C827 H814 0.929 . S
C827 C819 1.433 . S
C827 N829 1.384 . S
N828 C824 1.427 . S
N828 C825 1.384 . S
N829 C821 1.427 . S
N829 C827 1.384 . S
H830 C836 0.930 . S
H831 C840 0.930 . S
H832 C845 0.929 . S
H833 C843 0.929 . S
H834 C838 0.929 . S
H835 C844 0.929 . S
C836 H830 0.930 . S
C836 C837 1.367 . S
C836 C844 1.378 . S
C837 C836 1.367 . S
C837 C845 1.433 . S
C838 H834 0.929 . S
C838 C840 1.378 . S
C838 C842 1.350 . S
C839 C842 1.463 . S
C839 C844 1.350 . S
C839 N847 1.427 . S
C840 H831 0.930 . S
C840 C838 1.378 . S
C840 C841 1.367 . S
C841 C840 1.367 . S
C841 C843 1.433 . S
C842 C838 1.350 . S
C842 C839 1.463 . S
C842 N846 1.427 . S
C843 H833 0.929 . S
C843 C841 1.433 . S
C843 N846 1.384 . S
C844 H835 0.929 . S
C844 C836 1.378 . S
C844 C839 1.350 . S
C845 H832 0.929 . S
C845 C837 1.433 . S
C845 N847 1.384 . S
N846 C842 1.427 . S
N846 C843 1.384 . S
N847 C839 1.427 . S
N847 C845 1.384 . S
H848 C854 0.921 1_655 S
H849 C858 0.921 1_455 S
H850 C863 0.929 . S
H851 C861 0.929 . S
H852 C856 0.929 . S
H853 C862 0.929 . S
C854 H848 0.921 1_455 S
C854 C855 1.367 . S
C854 C862 1.378 1_455 S
C855 C854 1.367 . S
C855 C863 1.433 . S
C856 H852 0.929 . S
C856 C858 1.378 1_455 S
C856 C860 1.350 1_455 S
C857 C860 1.463 1_455 S
C857 C862 1.350 1_455 S
C857 N865 1.427 . S
C858 H849 0.921 1_655 S
C858 C856 1.378 1_655 S
C858 C859 1.367 . S
C859 C858 1.367 . S
C859 C861 1.433 . S
C860 C856 1.350 1_655 S
C860 C857 1.463 1_655 S
C860 N864 1.427 . S
C861 H851 0.929 . S
C861 C859 1.433 . S
C861 N864 1.384 . S
C862 H853 0.929 . S
C862 C854 1.378 1_655 S
C862 C857 1.350 1_655 S
C863 H850 0.929 . S
C863 C855 1.433 . S
C863 N865 1.384 . S
N864 C860 1.427 . S
N864 C861 1.384 . S
N865 C857 1.427 . S
N865 C863 1.384 . S
H866 C872 0.930 . S
H867 C876 0.930 . S
H868 C881 0.929 . S
H869 C879 0.929 . S
H870 C874 0.929 . S
H871 C880 0.929 . S
C872 H866 0.930 . S
C872 C873 1.367 . S
C872 C880 1.378 . S
C873 C872 1.367 . S
C873 C881 1.433 . S
C874 H870 0.929 . S
C874 C876 1.378 . S
C874 C878 1.350 . S
C875 C878 1.463 . S
C875 C880 1.350 . S
C875 N883 1.427 . S
C876 H867 0.930 . S
C876 C874 1.378 . S
C876 C877 1.367 . S
C877 C876 1.367 . S
C877 C879 1.433 . S
C878 C874 1.350 . S
C878 C875 1.463 . S
C878 N882 1.427 . S
C879 H869 0.929 . S
C879 C877 1.433 . S
C879 N882 1.384 . S
C880 H871 0.929 . S
C880 C872 1.378 . S
C880 C875 1.350 . S
C881 H868 0.929 . S
C881 C873 1.433 . S
C881 N883 1.384 . S
N882 C878 1.427 . S
N882 C879 1.384 . S
N883 C875 1.427 . S
N883 C881 1.384 . S
H884 C890 0.930 . S
H885 C894 0.930 . S
H886 C899 0.929 . S
H887 C897 0.929 . S
H888 C892 0.929 . S
H889 C898 0.929 . S
C890 H884 0.930 . S
C890 C891 1.367 . S
C890 C898 1.378 . S
C891 C890 1.367 . S
C891 C899 1.433 . S
C892 H888 0.929 . S
C892 C894 1.378 . S
C892 C896 1.350 . S
C893 C896 1.463 . S
C893 C898 1.350 . S
C893 N901 1.427 . S
C894 H885 0.930 . S
C894 C892 1.378 . S
C894 C895 1.367 . S
C895 C894 1.367 . S
C895 C897 1.433 . S
C896 C892 1.350 . S
C896 C893 1.463 . S
C896 N900 1.427 . S
C897 H887 0.929 . S
C897 C895 1.433 . S
C897 N900 1.384 . S
C898 H889 0.929 . S
C898 C890 1.378 . S
C898 C893 1.350 . S
C899 H886 0.929 . S
C899 C891 1.433 . S
C899 N901 1.384 . S
N900 C896 1.427 . S
N900 C897 1.384 . S
N901 C893 1.427 . S
N901 C899 1.384 . S
H902 C908 0.930 . S
H903 C912 0.930 . S
H904 C917 0.929 . S
H905 C915 0.929 . S
H906 C910 0.929 . S
H907 C916 0.929 . S
C908 H902 0.930 . S
C908 C909 1.367 . S
C908 C916 1.378 . S
C909 C908 1.367 . S
C909 C917 1.433 . S
C910 H906 0.929 . S
C910 C912 1.378 . S
C910 C914 1.350 . S
C911 C914 1.463 . S
C911 C916 1.350 . S
C911 N919 1.427 . S
C912 H903 0.930 . S
C912 C910 1.378 . S
C912 C913 1.367 . S
C913 C912 1.367 . S
C913 C915 1.433 . S
C914 C910 1.350 . S
C914 C911 1.463 . S
C914 N918 1.427 . S
C915 H905 0.929 . S
C915 C913 1.433 . S
C915 N918 1.384 . S
C916 H907 0.929 . S
C916 C908 1.378 . S
C916 C911 1.350 . S
C917 H904 0.929 . S
C917 C909 1.433 . S
C917 N919 1.384 . S
N918 C914 1.427 . S
N918 C915 1.384 . S
N919 C911 1.427 . S
N919 C917 1.384 . S
H920 C926 0.930 . S
H921 C930 0.930 . S
H922 C935 0.929 . S
H923 C933 0.929 . S
H924 C928 0.929 . S
H925 C934 0.929 . S
C926 H920 0.930 . S
C926 C927 1.367 . S
C926 C934 1.378 . S
C927 C926 1.367 . S
C927 C935 1.433 . S
C928 H924 0.929 . S
C928 C930 1.378 . S
C928 C932 1.350 . S
C929 C932 1.463 . S
C929 C934 1.350 . S
C929 N937 1.427 . S
C930 H921 0.930 . S
C930 C928 1.378 . S
C930 C931 1.367 . S
C931 C930 1.367 . S
C931 C933 1.433 . S
C932 C928 1.350 . S
C932 C929 1.463 . S
C932 N936 1.427 . S
C933 H923 0.929 . S
C933 C931 1.433 . S
C933 N936 1.384 . S
C934 H925 0.929 . S
C934 C926 1.378 . S
C934 C929 1.350 . S
C935 H922 0.929 . S
C935 C927 1.433 . S
C935 N937 1.384 . S
N936 C932 1.427 . S
N936 C933 1.384 . S
N937 C929 1.427 . S
N937 C935 1.384 . S
H938 C944 0.930 . S
H939 C948 0.930 . S
H940 C953 0.929 . S
H941 C951 0.929 . S
H942 C946 0.929 . S
H943 C952 0.929 . S
C944 H938 0.930 . S
C944 C945 1.367 . S
C944 C952 1.378 . S
C945 C944 1.367 . S
C945 C953 1.433 . S
C946 H942 0.929 . S
C946 C948 1.378 . S
C946 C950 1.350 . S
C947 C950 1.463 1_565 S
C947 C952 1.350 . S
C947 N955 1.427 . S
C948 H939 0.930 . S
C948 C946 1.378 . S
C948 C949 1.367 . S
C949 C948 1.367 . S
C949 C951 1.433 . S
C950 C946 1.350 . S
C950 C947 1.463 1_545 S
C950 N954 1.427 . S
C951 H941 0.929 . S
C951 C949 1.433 . S
C951 N954 1.384 . S
C952 H943 0.929 . S
C952 C944 1.378 . S
C952 C947 1.350 . S
C953 H940 0.929 . S
C953 C945 1.433 . S
C953 N955 1.384 . S
N954 C950 1.427 . S
N954 C951 1.384 . S
N955 C947 1.427 . S
N955 C953 1.384 . S
H956 C962 0.930 . S
H957 C966 0.930 . S
H958 C971 0.929 . S
H959 C969 0.929 . S
H960 C964 0.929 . S
H961 C970 0.929 . S
C962 H956 0.930 . S
C962 C963 1.367 . S
C962 C970 1.378 . S
C963 C962 1.367 . S
C963 C971 1.433 . S
C964 H960 0.929 . S
C964 C966 1.378 . S
C964 C968 1.350 . S
C965 C968 1.463 . S
C965 C970 1.350 . S
C965 N973 1.427 . S
C966 H957 0.930 . S
C966 C964 1.378 . S
C966 C967 1.367 . S
C967 C966 1.367 . S
C967 C969 1.433 . S
C968 C964 1.350 . S
C968 C965 1.463 . S
C968 N972 1.427 . S
C969 H959 0.929 . S
C969 C967 1.433 . S
C969 N972 1.384 . S
C970 H961 0.929 . S
C970 C962 1.378 . S
C970 C965 1.350 . S
C971 H958 0.929 . S
C971 C963 1.433 . S
C971 N973 1.384 . S
N972 C968 1.427 . S
N972 C969 1.384 . S
N973 C965 1.427 . S
N973 C971 1.384 . S
H974 C980 0.930 . S
H975 C984 0.930 . S
H976 C989 0.929 . S
H977 C987 0.929 . S
H978 C982 0.929 1_554 S
H979 C988 0.929 1_556 S
C980 H974 0.930 . S
C980 C981 1.367 . S
C980 C988 1.378 . S
C981 C980 1.367 . S
C981 C989 1.433 . S
C982 H978 0.929 1_556 S
C982 C984 1.378 . S
C982 C986 1.350 . S
C983 C986 1.463 1_554 S
C983 C988 1.350 . S
C983 N991 1.427 . S
C984 H975 0.930 . S
C984 C982 1.378 . S
C984 C985 1.367 . S
C985 C984 1.367 . S
C985 C987 1.433 . S
C986 C982 1.350 . S
C986 C983 1.463 1_556 S
C986 N990 1.427 . S
C987 H977 0.929 . S
C987 C985 1.433 . S
C987 N990 1.384 . S
C988 H979 0.929 1_554 S
C988 C980 1.378 . S
C988 C983 1.350 . S
C989 H976 0.929 . S
C989 C981 1.433 . S
C989 N991 1.384 . S
N990 C986 1.427 . S
N990 C987 1.384 . S
N991 C983 1.427 . S
N991 C989 1.384 . S
H992 C998 0.930 . S
H993 C1002 0.930 . S
H994 C1007 0.929 . S
H995 C1005 0.929 . S
H996 C1000 0.929 . S
H997 C1006 0.929 . S
C998 H992 0.930 . S
C998 C999 1.367 . S
C998 C1006 1.378 . S
C999 C998 1.367 . S
C999 C1007 1.433 . S
C1000 H996 0.929 . S
C1000 C1002 1.378 . S
C1000 C1004 1.350 . S
C1001 C1004 1.463 . S
C1001 C1006 1.350 . S
C1001 N1009 1.427 . S
C1002 H993 0.930 . S
C1002 C1000 1.378 . S
C1002 C1003 1.367 . S
C1003 C1002 1.367 . S
C1003 C1005 1.433 . S
C1004 C1000 1.350 . S
C1004 C1001 1.463 . S
C1004 N1008 1.427 . S
C1005 H995 0.929 . S
C1005 C1003 1.433 . S
C1005 N1008 1.384 . S
C1006 H997 0.929 . S
C1006 C998 1.378 . S
C1006 C1001 1.350 . S
C1007 H994 0.929 . S
C1007 C999 1.433 . S
C1007 N1009 1.384 . S
N1008 C1004 1.427 . S
N1008 C1005 1.384 . S
N1009 C1001 1.427 . S
N1009 C1007 1.384 . S
H1010 C1016 0.930 . S
H1011 C1020 0.930 1_545 S
H1012 C1025 0.929 . S
H1013 C1023 0.929 . S
H1014 C1018 0.929 . S
H1015 C1024 0.929 . S
C1016 H1010 0.930 . S
C1016 C1017 1.367 . S
C1016 C1024 1.378 . S
C1017 C1016 1.367 . S
C1017 C1025 1.433 . S
C1018 H1014 0.929 . S
C1018 C1020 1.378 . S
C1018 C1022 1.350 . S
C1019 C1022 1.463 . S
C1019 C1024 1.350 . S
C1019 N1027 1.427 . S
C1020 H1011 0.930 1_565 S
C1020 C1018 1.378 . S
C1020 C1021 1.367 . S
C1021 C1020 1.367 . S
C1021 C1023 1.433 . S
C1022 C1018 1.350 . S
C1022 C1019 1.463 . S
C1022 N1026 1.427 . S
C1023 H1013 0.929 . S
C1023 C1021 1.433 . S
C1023 N1026 1.384 . S
C1024 H1015 0.929 . S
C1024 C1016 1.378 . S
C1024 C1019 1.350 . S
C1025 H1012 0.929 . S
C1025 C1017 1.433 . S
C1025 N1027 1.384 . S
N1026 C1022 1.427 . S
N1026 C1023 1.384 . S
N1027 C1019 1.427 . S
N1027 C1025 1.384 . S
H1028 C1034 0.930 . S
H1029 C1038 0.930 . S
H1030 C1043 0.929 . S
H1031 C1041 0.929 . S
H1032 C1036 0.929 . S
H1033 C1042 0.929 . S
C1034 H1028 0.930 . S
C1034 C1035 1.367 . S
C1034 C1042 1.378 . S
C1035 C1034 1.367 . S
C1035 C1043 1.433 . S
C1036 H1032 0.929 . S
C1036 C1038 1.378 . S
C1036 C1040 1.350 . S
C1037 C1040 1.463 . S
C1037 C1042 1.350 . S
C1037 N1045 1.427 . S
C1038 H1029 0.930 . S
C1038 C1036 1.378 . S
C1038 C1039 1.367 . S
C1039 C1038 1.367 . S
C1039 C1041 1.433 . S
C1040 C1036 1.350 . S
C1040 C1037 1.463 . S
C1040 N1044 1.427 . S
C1041 H1031 0.929 . S
C1041 C1039 1.433 . S
C1041 N1044 1.384 . S
C1042 H1033 0.929 . S
C1042 C1034 1.378 . S
C1042 C1037 1.350 . S
C1043 H1030 0.929 . S
C1043 C1035 1.433 . S
C1043 N1045 1.384 . S
N1044 C1040 1.427 . S
N1044 C1041 1.384 . S
N1045 C1037 1.427 . S
N1045 C1043 1.384 . S
H1046 C1052 0.930 . S
H1047 C1056 0.930 . S
H1048 C1061 0.929 . S
H1049 C1059 0.929 . S
H1050 C1054 0.929 . S
H1051 C1060 0.929 . S
C1052 H1046 0.930 . S
C1052 C1053 1.367 . S
C1052 C1060 1.378 . S
C1053 C1052 1.367 . S
C1053 C1061 1.433 . S
C1054 H1050 0.929 . S
C1054 C1056 1.378 . S
C1054 C1058 1.350 . S
C1055 C1058 1.463 . S
C1055 C1060 1.350 . S
C1055 N1063 1.427 . S
C1056 H1047 0.930 . S
C1056 C1054 1.378 . S
C1056 C1057 1.367 . S
C1057 C1056 1.367 . S
C1057 C1059 1.433 . S
C1058 C1054 1.350 . S
C1058 C1055 1.463 . S
C1058 N1062 1.427 . S
C1059 H1049 0.929 . S
C1059 C1057 1.433 . S
C1059 N1062 1.384 . S
C1060 H1051 0.929 . S
C1060 C1052 1.378 . S
C1060 C1055 1.350 . S
C1061 H1048 0.929 . S
C1061 C1053 1.433 . S
C1061 N1063 1.384 . S
N1062 C1058 1.427 . S
N1062 C1059 1.384 . S
N1063 C1055 1.427 . S
N1063 C1061 1.384 . S
H1064 C1070 0.930 . S
H1065 C1074 0.930 . S
H1066 C1079 0.929 . S
H1067 C1077 0.929 . S
H1068 C1072 0.929 . S
H1069 C1078 0.929 . S
C1070 H1064 0.930 . S
C1070 C1071 1.367 . S
C1070 C1078 1.378 . S
C1071 C1070 1.367 . S
C1071 C1079 1.433 . S
C1072 H1068 0.929 . S
C1072 C1074 1.378 . S
C1072 C1076 1.350 . S
C1073 C1076 1.463 . S
C1073 C1078 1.350 . S
C1073 N1081 1.427 . S
C1074 H1065 0.930 . S
C1074 C1072 1.378 . S
C1074 C1075 1.367 . S
C1075 C1074 1.367 . S
C1075 C1077 1.433 . S
C1076 C1072 1.350 . S
C1076 C1073 1.463 . S
C1076 N1080 1.427 . S
C1077 H1067 0.929 . S
C1077 C1075 1.433 . S
C1077 N1080 1.384 . S
C1078 H1069 0.929 . S
C1078 C1070 1.378 . S
C1078 C1073 1.350 . S
C1079 H1066 0.929 . S
C1079 C1071 1.433 . S
C1079 N1081 1.384 . S
N1080 C1076 1.427 . S
N1080 C1077 1.384 . S
N1081 C1073 1.427 . S
N1081 C1079 1.384 . S
H1082 C1088 0.930 . S
H1083 C1092 0.930 . S
H1084 C1097 0.929 1_565 S
H1085 C1095 0.929 . S
H1086 C1090 0.929 . S
H1087 C1096 0.929 . S
C1088 H1082 0.930 . S
C1088 C1089 1.367 . S
C1088 C1096 1.378 . S
C1089 C1088 1.367 . S
C1089 C1097 1.433 . S
C1090 H1086 0.929 . S
C1090 C1092 1.378 . S
C1090 C1094 1.350 . S
C1091 C1094 1.463 . S
C1091 C1096 1.350 . S
C1091 N1099 1.427 . S
C1092 H1083 0.930 . S
C1092 C1090 1.378 . S
C1092 C1093 1.367 . S
C1093 C1092 1.367 . S
C1093 C1095 1.433 . S
C1094 C1090 1.350 . S
C1094 C1091 1.463 . S
C1094 N1098 1.427 . S
C1095 H1085 0.929 . S
C1095 C1093 1.433 . S
C1095 N1098 1.384 . S
C1096 H1087 0.929 . S
C1096 C1088 1.378 . S
C1096 C1091 1.350 . S
C1097 H1084 0.929 1_545 S
C1097 C1089 1.433 . S
C1097 N1099 1.384 . S
N1098 C1094 1.427 . S
N1098 C1095 1.384 . S
N1099 C1091 1.427 . S
N1099 C1097 1.384 . S
H1100 C1106 0.930 . S
H1101 C1110 0.930 1_565 S
H1102 C1115 0.929 . S
H1103 C1113 0.929 . S
H1104 C1108 0.929 . S
H1105 C1114 0.929 . S
C1106 H1100 0.930 . S
C1106 C1107 1.367 . S
C1106 C1114 1.378 . S
C1107 C1106 1.367 . S
C1107 C1115 1.433 . S
C1108 H1104 0.929 . S
C1108 C1110 1.378 . S
C1108 C1112 1.350 . S
C1109 C1112 1.463 . S
C1109 C1114 1.350 . S
C1109 N1117 1.427 . S
C1110 H1101 0.930 1_545 S
C1110 C1108 1.378 . S
C1110 C1111 1.367 . S
C1111 C1110 1.367 . S
C1111 C1113 1.433 . S
C1112 C1108 1.350 . S
C1112 C1109 1.463 . S
C1112 N1116 1.427 . S
C1113 H1103 0.929 . S
C1113 C1111 1.433 . S
C1113 N1116 1.384 . S
C1114 H1105 0.929 . S
C1114 C1106 1.378 . S
C1114 C1109 1.350 . S
C1115 H1102 0.929 . S
C1115 C1107 1.433 . S
C1115 N1117 1.384 . S
N1116 C1112 1.427 . S
N1116 C1113 1.384 . S
N1117 C1109 1.427 . S
N1117 C1115 1.384 . S
H1118 C1124 0.930 . S
H1119 C1128 0.930 . S
H1120 C1133 0.929 . S
H1121 C1131 0.929 . S
H1122 C1126 0.929 . S
H1123 C1132 0.929 . S
C1124 H1118 0.930 . S
C1124 C1125 1.367 . S
C1124 C1132 1.378 . S
C1125 C1124 1.367 . S
C1125 C1133 1.433 . S
C1126 H1122 0.929 . S
C1126 C1128 1.378 . S
C1126 C1130 1.350 . S
C1127 C1130 1.463 . S
C1127 C1132 1.350 . S
C1127 N1135 1.427 . S
C1128 H1119 0.930 . S
C1128 C1126 1.378 . S
C1128 C1129 1.367 . S
C1129 C1128 1.367 . S
C1129 C1131 1.433 . S
C1130 C1126 1.350 . S
C1130 C1127 1.463 . S
C1130 N1134 1.427 . S
C1131 H1121 0.929 . S
C1131 C1129 1.433 . S
C1131 N1134 1.384 . S
C1132 H1123 0.929 . S
C1132 C1124 1.378 . S
C1132 C1127 1.350 . S
C1133 H1120 0.929 . S
C1133 C1125 1.433 . S
C1133 N1135 1.384 . S
N1134 C1130 1.427 . S
N1134 C1131 1.384 . S
N1135 C1127 1.427 . S
N1135 C1133 1.384 . S
H1136 C1142 0.930 . S
H1137 C1146 0.930 . S
H1138 C1151 0.929 . S
H1139 C1149 0.929 . S
H1140 C1144 0.929 . S
H1141 C1150 0.929 . S
C1142 H1136 0.930 . S
C1142 C1143 1.367 . S
C1142 C1150 1.378 . S
C1143 C1142 1.367 . S
C1143 C1151 1.433 . S
C1144 H1140 0.929 . S
C1144 C1146 1.378 . S
C1144 C1148 1.350 . S
C1145 C1148 1.463 . S
C1145 C1150 1.350 . S
C1145 N1153 1.427 . S
C1146 H1137 0.930 . S
C1146 C1144 1.378 . S
C1146 C1147 1.367 . S
C1147 C1146 1.367 . S
C1147 C1149 1.433 . S
C1148 C1144 1.350 . S
C1148 C1145 1.463 . S
C1148 N1152 1.427 . S
C1149 H1139 0.929 . S
C1149 C1147 1.433 . S
C1149 N1152 1.384 . S
C1150 H1141 0.929 . S
C1150 C1142 1.378 . S
C1150 C1145 1.350 . S
C1151 H1138 0.929 . S
C1151 C1143 1.433 . S
C1151 N1153 1.384 . S
N1152 C1148 1.427 . S
N1152 C1149 1.384 . S
N1153 C1145 1.427 . S
N1153 C1151 1.384 . S
H1154 C1160 0.930 . S
H1155 C1164 0.930 1_545 S
H1156 C1169 0.929 . S
H1157 C1167 0.929 . S
H1158 C1162 0.929 . S
H1159 C1168 0.929 . S
C1160 H1154 0.930 . S
C1160 C1161 1.367 . S
C1160 C1168 1.378 . S
C1161 C1160 1.367 . S
C1161 C1169 1.433 . S
C1162 H1158 0.929 . S
C1162 C1164 1.378 . S
C1162 C1166 1.350 . S
C1163 C1166 1.463 . S
C1163 C1168 1.350 . S
C1163 N1171 1.427 . S
C1164 H1155 0.930 1_565 S
C1164 C1162 1.378 . S
C1164 C1165 1.367 . S
C1165 C1164 1.367 . S
C1165 C1167 1.433 . S
C1166 C1162 1.350 . S
C1166 C1163 1.463 . S
C1166 N1170 1.427 . S
C1167 H1157 0.929 . S
C1167 C1165 1.433 . S
C1167 N1170 1.384 . S
C1168 H1159 0.929 . S
C1168 C1160 1.378 . S
C1168 C1163 1.350 . S
C1169 H1156 0.929 . S
C1169 C1161 1.433 . S
C1169 N1171 1.384 . S
N1170 C1166 1.427 . S
N1170 C1167 1.384 . S
N1171 C1163 1.427 . S
N1171 C1169 1.384 . S
H1172 C1178 0.930 . S
H1173 C1182 0.930 . S
H1174 C1187 0.929 . S
H1175 C1185 0.929 1_545 S
H1176 C1180 0.929 . S
H1177 C1186 0.929 . S
C1178 H1172 0.930 . S
C1178 C1179 1.367 . S
C1178 C1186 1.378 . S
C1179 C1178 1.367 . S
C1179 C1187 1.433 . S
C1180 H1176 0.929 . S
C1180 C1182 1.378 . S
C1180 C1184 1.350 . S
C1181 C1184 1.463 . S
C1181 C1186 1.350 . S
C1181 N1189 1.427 . S
C1182 H1173 0.930 . S
C1182 C1180 1.378 . S
C1182 C1183 1.367 . S
C1183 C1182 1.367 . S
C1183 C1185 1.433 . S
C1184 C1180 1.350 . S
C1184 C1181 1.463 . S
C1184 N1188 1.427 . S
C1185 H1175 0.929 1_565 S
C1185 C1183 1.433 . S
C1185 N1188 1.384 . S
C1186 H1177 0.929 . S
C1186 C1178 1.378 . S
C1186 C1181 1.350 . S
C1187 H1174 0.929 . S
C1187 C1179 1.433 . S
C1187 N1189 1.384 . S
N1188 C1184 1.427 . S
N1188 C1185 1.384 . S
N1189 C1181 1.427 . S
N1189 C1187 1.384 . S
H1190 C1196 0.930 . S
H1191 C1200 0.930 . S
H1192 C1205 0.929 . S
H1193 C1203 0.929 . S
H1194 C1198 0.929 . S
H1195 C1204 0.929 . S
C1196 H1190 0.930 . S
C1196 C1197 1.367 . S
C1196 C1204 1.378 . S
C1197 C1196 1.367 . S
C1197 C1205 1.433 . S
C1198 H1194 0.929 . S
C1198 C1200 1.378 . S
C1198 C1202 1.350 . S
C1199 C1202 1.463 . S
C1199 C1204 1.350 . S
C1199 N1207 1.427 . S
C1200 H1191 0.930 . S
C1200 C1198 1.378 . S
C1200 C1201 1.367 . S
C1201 C1200 1.367 . S
C1201 C1203 1.433 . S
C1202 C1198 1.350 . S
C1202 C1199 1.463 . S
C1202 N1206 1.427 . S
C1203 H1193 0.929 . S
C1203 C1201 1.433 . S
C1203 N1206 1.384 . S
C1204 H1195 0.929 . S
C1204 C1196 1.378 . S
C1204 C1199 1.350 . S
C1205 H1192 0.929 . S
C1205 C1197 1.433 . S
C1205 N1207 1.384 . S
N1206 C1202 1.427 . S
N1206 C1203 1.384 . S
N1207 C1199 1.427 . S
N1207 C1205 1.384 . S
H1208 C1214 0.930 . S
H1209 C1218 0.930 . S
H1210 C1223 0.929 . S
H1211 C1221 0.929 . S
H1212 C1216 0.929 . S
H1213 C1222 0.929 . S
C1214 H1208 0.930 . S
C1214 C1215 1.367 . S
C1214 C1222 1.378 . S
C1215 C1214 1.367 . S
C1215 C1223 1.433 . S
C1216 H1212 0.929 . S
C1216 C1218 1.378 . S
C1216 C1220 1.350 . S
C1217 C1220 1.463 . S
C1217 C1222 1.350 . S
C1217 N1225 1.427 . S
C1218 H1209 0.930 . S
C1218 C1216 1.378 . S
C1218 C1219 1.367 . S
C1219 C1218 1.367 . S
C1219 C1221 1.433 . S
C1220 C1216 1.350 . S
C1220 C1217 1.463 . S
C1220 N1224 1.427 . S
C1221 H1211 0.929 . S
C1221 C1219 1.433 . S
C1221 N1224 1.384 . S
C1222 H1213 0.929 . S
C1222 C1214 1.378 . S
C1222 C1217 1.350 . S
C1223 H1210 0.929 . S
C1223 C1215 1.433 . S
C1223 N1225 1.384 . S
N1224 C1220 1.427 . S
N1224 C1221 1.384 . S
N1225 C1217 1.427 . S
N1225 C1223 1.384 . S
H1226 C1232 0.930 . S
H1227 C1236 0.930 . S
H1228 C1241 0.929 1_565 S
H1229 C1239 0.929 . S
H1230 C1234 0.929 . S
H1231 C1240 0.929 . S
C1232 H1226 0.930 . S
C1232 C1233 1.367 . S
C1232 C1240 1.378 . S
C1233 C1232 1.367 . S
C1233 C1241 1.433 . S
C1234 H1230 0.929 . S
C1234 C1236 1.378 . S
C1234 C1238 1.350 . S
C1235 C1238 1.463 . S
C1235 C1240 1.350 . S
C1235 N1243 1.427 . S
C1236 H1227 0.930 . S
C1236 C1234 1.378 . S
C1236 C1237 1.367 . S
C1237 C1236 1.367 . S
C1237 C1239 1.433 . S
C1238 C1234 1.350 . S
C1238 C1235 1.463 . S
C1238 N1242 1.427 . S
C1239 H1229 0.929 . S
C1239 C1237 1.433 . S
C1239 N1242 1.384 . S
C1240 H1231 0.929 . S
C1240 C1232 1.378 . S
C1240 C1235 1.350 . S
C1241 H1228 0.929 1_545 S
C1241 C1233 1.433 . S
C1241 N1243 1.384 . S
N1242 C1238 1.427 . S
N1242 C1239 1.384 . S
N1243 C1235 1.427 . S
N1243 C1241 1.384 . S
H1244 C1250 0.930 . S
H1245 C1254 0.921 1_565 S
H1246 C1259 0.929 . S
H1247 C1257 0.929 . S
H1248 C1252 0.929 . S
H1249 C1258 0.929 . S
C1250 H1244 0.930 . S
C1250 C1251 1.367 . S
C1250 C1258 1.378 . S
C1251 C1250 1.367 . S
C1251 C1259 1.433 . S
C1252 H1248 0.929 . S
C1252 C1254 1.387 . S
C1252 C1256 1.350 . S
C1253 C1256 1.463 . S
C1253 C1258 1.350 . S
C1253 N1261 1.427 . S
C1254 H1245 0.921 1_545 S
C1254 C1252 1.387 . S
C1254 C1255 1.367 . S
C1255 C1254 1.367 . S
C1255 C1257 1.433 . S
C1256 C1252 1.350 . S
C1256 C1253 1.463 . S
C1256 N1260 1.427 . S
C1257 H1247 0.929 . S
C1257 C1255 1.433 . S
C1257 N1260 1.384 . S
C1258 H1249 0.929 . S
C1258 C1250 1.378 . S
C1258 C1253 1.350 . S
C1259 H1246 0.929 . S
C1259 C1251 1.433 . S
C1259 N1261 1.384 . S
N1260 C1256 1.427 . S
N1260 C1257 1.384 . S
N1261 C1253 1.427 . S
N1261 C1259 1.384 . S
H1262 C1268 0.930 . S
H1263 C1272 0.930 . S
H1264 C1277 0.929 . S
H1265 C1275 0.929 . S
H1266 C1270 0.929 . S
H1267 C1276 0.929 . S
C1268 H1262 0.930 . S
C1268 C1269 1.367 . S
C1268 C1276 1.378 . S
C1269 C1268 1.367 . S
C1269 C1277 1.433 . S
C1270 H1266 0.929 . S
C1270 C1272 1.378 . S
C1270 C1274 1.350 . S
C1271 C1274 1.463 . S
C1271 C1276 1.350 . S
C1271 N1279 1.427 . S
C1272 H1263 0.930 . S
C1272 C1270 1.378 . S
C1272 C1273 1.367 . S
C1273 C1272 1.367 . S
C1273 C1275 1.433 . S
C1274 C1270 1.350 . S
C1274 C1271 1.463 . S
C1274 N1278 1.427 . S
C1275 H1265 0.929 . S
C1275 C1273 1.433 . S
C1275 N1278 1.384 . S
C1276 H1267 0.929 . S
C1276 C1268 1.378 . S
C1276 C1271 1.350 . S
C1277 H1264 0.929 . S
C1277 C1269 1.433 . S
C1277 N1279 1.384 . S
N1278 C1274 1.427 . S
N1278 C1275 1.384 . S
N1279 C1271 1.427 . S
N1279 C1277 1.384 . S
H1280 C1286 0.930 . S
H1281 C1290 0.930 . S
H1282 C1295 0.929 . S
H1283 C1293 0.929 1_545 S
H1284 C1288 0.929 . S
H1285 C1294 0.929 . S
C1286 H1280 0.930 . S
C1286 C1287 1.367 . S
C1286 C1294 1.378 . S
C1287 C1286 1.367 . S
C1287 C1295 1.433 . S
C1288 H1284 0.929 . S
C1288 C1290 1.378 . S
C1288 C1292 1.350 . S
C1289 C1292 1.463 . S
C1289 C1294 1.350 . S
C1289 N1297 1.427 . S
C1290 H1281 0.930 . S
C1290 C1288 1.378 . S
C1290 C1291 1.367 . S
C1291 C1290 1.367 . S
C1291 C1293 1.433 . S
C1292 C1288 1.350 . S
C1292 C1289 1.463 . S
C1292 N1296 1.427 . S
C1293 H1283 0.929 1_565 S
C1293 C1291 1.433 . S
C1293 N1296 1.384 . S
C1294 H1285 0.929 . S
C1294 C1286 1.378 . S
C1294 C1289 1.350 . S
C1295 H1282 0.929 . S
C1295 C1287 1.433 . S
C1295 N1297 1.384 . S
N1296 C1292 1.427 . S
N1296 C1293 1.384 . S
N1297 C1289 1.427 . S
N1297 C1295 1.384 . S
H1298 C1304 0.930 . S
H1299 C1308 0.930 . S
H1300 C1313 0.929 . S
H1301 C1311 0.929 . S
H1302 C1306 0.929 . S
H1303 C1312 0.929 . S
C1304 H1298 0.930 . S
C1304 C1305 1.367 . S
C1304 C1312 1.378 . S
C1305 C1304 1.367 . S
C1305 C1313 1.433 . S
C1306 H1302 0.929 . S
C1306 C1308 1.378 . S
C1306 C1310 1.350 . S
C1307 C1310 1.463 . S
C1307 C1312 1.350 . S
C1307 N1315 1.427 . S
C1308 H1299 0.930 . S
C1308 C1306 1.378 . S
C1308 C1309 1.367 . S
C1309 C1308 1.367 . S
C1309 C1311 1.433 . S
C1310 C1306 1.350 . S
C1310 C1307 1.463 . S
C1310 N1314 1.427 . S
C1311 H1301 0.929 . S
C1311 C1309 1.433 . S
C1311 N1314 1.384 . S
C1312 H1303 0.929 . S
C1312 C1304 1.378 . S
C1312 C1307 1.350 . S
C1313 H1300 0.929 . S
C1313 C1305 1.433 . S
C1313 N1315 1.384 . S
N1314 C1310 1.427 . S
N1314 C1311 1.384 . S
N1315 C1307 1.427 . S
N1315 C1313 1.384 . S
H1316 C1322 0.930 . S
H1317 C1326 0.930 . S
H1318 C1331 0.929 . S
H1319 C1329 0.929 . S
H1320 C1324 0.929 . S
H1321 C1330 0.929 . S
C1322 H1316 0.930 . S
C1322 C1323 1.367 . S
C1322 C1330 1.378 . S
C1323 C1322 1.367 . S
C1323 C1331 1.433 . S
C1324 H1320 0.929 . S
C1324 C1326 1.378 . S
C1324 C1328 1.350 . S
C1325 C1328 1.463 . S
C1325 C1330 1.350 . S
C1325 N1333 1.427 . S
C1326 H1317 0.930 . S
C1326 C1324 1.378 . S
C1326 C1327 1.367 . S
C1327 C1326 1.367 . S
C1327 C1329 1.433 . S
C1328 C1324 1.350 . S
C1328 C1325 1.463 . S
C1328 N1332 1.427 . S
C1329 H1319 0.929 . S
C1329 C1327 1.433 . S
C1329 N1332 1.384 . S
C1330 H1321 0.929 . S
C1330 C1322 1.378 . S
C1330 C1325 1.350 . S
C1331 H1318 0.929 . S
C1331 C1323 1.433 . S
C1331 N1333 1.384 . S
N1332 C1328 1.427 . S
N1332 C1329 1.384 . S
N1333 C1325 1.427 . S
N1333 C1331 1.384 . S
H1334 C1340 0.930 . S
H1335 C1344 0.930 . S
H1336 C1349 0.929 . S
H1337 C1347 0.929 . S
H1338 C1342 0.929 . S
H1339 C1348 0.929 . S
C1340 H1334 0.930 . S
C1340 C1341 1.367 . S
C1340 C1348 1.378 . S
C1341 C1340 1.367 . S
C1341 C1349 1.433 . S
C1342 H1338 0.929 . S
C1342 C1344 1.378 . S
C1342 C1346 1.350 . S
C1343 C1346 1.463 . S
C1343 C1348 1.350 . S
C1343 N1351 1.427 . S
C1344 H1335 0.930 . S
C1344 C1342 1.378 . S
C1344 C1345 1.367 . S
C1345 C1344 1.367 . S
C1345 C1347 1.433 . S
C1346 C1342 1.350 . S
C1346 C1343 1.463 . S
C1346 N1350 1.427 . S
C1347 H1337 0.929 . S
C1347 C1345 1.433 . S
C1347 N1350 1.384 . S
C1348 H1339 0.929 . S
C1348 C1340 1.378 . S
C1348 C1343 1.350 . S
C1349 H1336 0.929 . S
C1349 C1341 1.433 . S
C1349 N1351 1.384 . S
N1350 C1346 1.427 . S
N1350 C1347 1.384 . S
N1351 C1343 1.427 . S
N1351 C1349 1.384 . S
H1352 C1358 0.930 . S
H1353 C1362 0.930 1_565 S
H1354 C1367 0.929 . S
H1355 C1365 0.929 . S
H1356 C1360 0.929 . S
H1357 C1366 0.929 . S
C1358 H1352 0.930 . S
C1358 C1359 1.367 . S
C1358 C1366 1.378 . S
C1359 C1358 1.367 . S
C1359 C1367 1.433 . S
C1360 H1356 0.929 . S
C1360 C1362 1.378 . S
C1360 C1364 1.350 . S
C1361 C1364 1.463 . S
C1361 C1366 1.350 . S
C1361 N1369 1.427 . S
C1362 H1353 0.930 1_545 S
C1362 C1360 1.378 . S
C1362 C1363 1.367 . S
C1363 C1362 1.367 . S
C1363 C1365 1.433 . S
C1364 C1360 1.350 . S
C1364 C1361 1.463 . S
C1364 N1368 1.427 . S
C1365 H1355 0.929 . S
C1365 C1363 1.433 . S
C1365 N1368 1.384 . S
C1366 H1357 0.929 . S
C1366 C1358 1.378 . S
C1366 C1361 1.350 . S
C1367 H1354 0.929 . S
C1367 C1359 1.433 . S
C1367 N1369 1.384 . S
N1368 C1364 1.427 . S
N1368 C1365 1.384 . S
N1369 C1361 1.427 . S
N1369 C1367 1.384 . S
H1370 C1376 0.930 . S
H1371 C1380 0.930 . S
H1372 C1385 0.929 . S
H1373 C1383 0.929 . S
H1374 C1378 0.929 . S
H1375 C1384 0.929 . S
C1376 H1370 0.930 . S
C1376 C1377 1.367 . S
C1376 C1384 1.378 . S
C1377 C1376 1.367 . S
C1377 C1385 1.433 . S
C1378 H1374 0.929 . S
C1378 C1380 1.378 . S
C1378 C1382 1.350 . S
C1379 C1382 1.463 . S
C1379 C1384 1.350 . S
C1379 N1387 1.427 . S
C1380 H1371 0.930 . S
C1380 C1378 1.378 . S
C1380 C1381 1.367 . S
C1381 C1380 1.367 . S
C1381 C1383 1.433 . S
C1382 C1378 1.350 . S
C1382 C1379 1.463 . S
C1382 N1386 1.427 . S
C1383 H1373 0.929 . S
C1383 C1381 1.433 . S
C1383 N1386 1.384 . S
C1384 H1375 0.929 . S
C1384 C1376 1.378 . S
C1384 C1379 1.350 . S
C1385 H1372 0.929 . S
C1385 C1377 1.433 . S
C1385 N1387 1.384 . S
N1386 C1382 1.427 . S
N1386 C1383 1.384 . S
N1387 C1379 1.427 . S
N1387 C1385 1.384 . S
H1388 C1394 0.930 . S
H1389 C1398 0.930 . S
H1390 C1403 0.929 . S
H1391 C1401 0.929 . S
H1392 C1396 0.929 . S
H1393 C1402 0.929 . S
C1394 H1388 0.930 . S
C1394 C1395 1.367 . S
C1394 C1402 1.378 . S
C1395 C1394 1.367 . S
C1395 C1403 1.433 . S
C1396 H1392 0.929 . S
C1396 C1398 1.378 . S
C1396 C1400 1.350 . S
C1397 C1400 1.463 . S
C1397 C1402 1.350 . S
C1397 N1405 1.427 . S
C1398 H1389 0.930 . S
C1398 C1396 1.378 . S
C1398 C1399 1.367 . S
C1399 C1398 1.367 . S
C1399 C1401 1.433 . S
C1400 C1396 1.350 . S
C1400 C1397 1.463 . S
C1400 N1404 1.427 . S
C1401 H1391 0.929 . S
C1401 C1399 1.433 . S
C1401 N1404 1.384 . S
C1402 H1393 0.929 . S
C1402 C1394 1.378 . S
C1402 C1397 1.350 . S
C1403 H1390 0.929 . S
C1403 C1395 1.433 . S
C1403 N1405 1.384 . S
N1404 C1400 1.427 . S
N1404 C1401 1.384 . S
N1405 C1397 1.427 . S
N1405 C1403 1.384 . S
H1406 C1412 0.930 . S
H1407 C1416 0.930 . S
H1408 C1421 0.929 . S
H1409 C1419 0.929 1_565 S
H1410 C1414 0.929 . S
H1411 C1420 0.929 . S
C1412 H1406 0.930 . S
C1412 C1413 1.367 . S
C1412 C1420 1.378 . S
C1413 C1412 1.367 . S
C1413 C1421 1.433 . S
C1414 H1410 0.929 . S
C1414 C1416 1.378 . S
C1414 C1418 1.350 . S
C1415 C1418 1.463 . S
C1415 C1420 1.350 . S
C1415 N1423 1.427 . S
C1416 H1407 0.930 . S
C1416 C1414 1.378 . S
C1416 C1417 1.367 . S
C1417 C1416 1.367 . S
C1417 C1419 1.433 . S
C1418 C1414 1.350 . S
C1418 C1415 1.463 . S
C1418 N1422 1.427 . S
C1419 H1409 0.929 1_545 S
C1419 C1417 1.433 . S
C1419 N1422 1.384 . S
C1420 H1411 0.929 . S
C1420 C1412 1.378 . S
C1420 C1415 1.350 . S
C1421 H1408 0.929 . S
C1421 C1413 1.433 . S
C1421 N1423 1.384 . S
N1422 C1418 1.427 . S
N1422 C1419 1.384 . S
N1423 C1415 1.427 . S
N1423 C1421 1.384 . S
H1424 C1430 0.930 . S
H1425 C1434 0.930 . S
H1426 C1439 0.929 . S
H1427 C1437 0.929 1_545 S
H1428 C1432 0.929 . S
H1429 C1438 0.929 . S
C1430 H1424 0.930 . S
C1430 C1431 1.367 . S
C1430 C1438 1.378 . S
C1431 C1430 1.367 . S
C1431 C1439 1.433 . S
C1432 H1428 0.929 . S
C1432 C1434 1.378 . S
C1432 C1436 1.350 . S
C1433 C1436 1.463 . S
C1433 C1438 1.350 . S
C1433 N1441 1.427 . S
C1434 H1425 0.930 . S
C1434 C1432 1.378 . S
C1434 C1435 1.367 . S
C1435 C1434 1.367 . S
C1435 C1437 1.433 . S
C1436 C1432 1.350 . S
C1436 C1433 1.463 . S
C1436 N1440 1.427 . S
C1437 H1427 0.929 1_565 S
C1437 C1435 1.433 . S
C1437 N1440 1.384 . S
C1438 H1429 0.929 . S
C1438 C1430 1.378 . S
C1438 C1433 1.350 . S
C1439 H1426 0.929 . S
C1439 C1431 1.433 . S
C1439 N1441 1.384 . S
N1440 C1436 1.427 . S
N1440 C1437 1.384 . S
N1441 C1433 1.427 . S
N1441 C1439 1.384 . S
H1442 C1448 0.930 . S
H1443 C1452 0.930 . S
H1444 C1457 0.929 . S
H1445 C1455 0.929 . S
H1446 C1450 0.929 . S
H1447 C1456 0.929 . S
C1448 H1442 0.930 . S
C1448 C1449 1.367 . S
C1448 C1456 1.378 . S
C1449 C1448 1.367 . S
C1449 C1457 1.433 . S
C1450 H1446 0.929 . S
C1450 C1452 1.378 . S
C1450 C1454 1.350 . S
C1451 C1454 1.463 . S
C1451 C1456 1.350 . S
C1451 N1459 1.427 . S
C1452 H1443 0.930 . S
C1452 C1450 1.378 . S
C1452 C1453 1.367 . S
C1453 C1452 1.367 . S
C1453 C1455 1.433 . S
C1454 C1450 1.350 . S
C1454 C1451 1.463 . S
C1454 N1458 1.427 . S
C1455 H1445 0.929 . S
C1455 C1453 1.433 . S
C1455 N1458 1.384 . S
C1456 H1447 0.929 . S
C1456 C1448 1.378 . S
C1456 C1451 1.350 . S
C1457 H1444 0.929 . S
C1457 C1449 1.433 . S
C1457 N1459 1.384 . S
N1458 C1454 1.427 . S
N1458 C1455 1.384 . S
N1459 C1451 1.427 . S
N1459 C1457 1.384 . S
H1460 C1466 0.930 . S
H1461 C1470 0.930 . S
H1462 C1475 0.929 . S
H1463 C1473 0.929 . S
H1464 C1468 0.929 . S
H1465 C1474 0.929 . S
C1466 H1460 0.930 . S
C1466 C1467 1.367 . S
C1466 C1474 1.378 . S
C1467 C1466 1.367 . S
C1467 C1475 1.433 . S
C1468 H1464 0.929 . S
C1468 C1470 1.378 . S
C1468 C1472 1.350 . S
C1469 C1472 1.463 . S
C1469 C1474 1.350 . S
C1469 N1477 1.427 . S
C1470 H1461 0.930 . S
C1470 C1468 1.378 . S
C1470 C1471 1.367 . S
C1471 C1470 1.367 . S
C1471 C1473 1.433 . S
C1472 C1468 1.350 . S
C1472 C1469 1.463 . S
C1472 N1476 1.427 . S
C1473 H1463 0.929 . S
C1473 C1471 1.433 . S
C1473 N1476 1.384 . S
C1474 H1465 0.929 . S
C1474 C1466 1.378 . S
C1474 C1469 1.350 . S
C1475 H1462 0.929 . S
C1475 C1467 1.433 . S
C1475 N1477 1.384 . S
N1476 C1472 1.427 . S
N1476 C1473 1.384 . S
N1477 C1469 1.427 . S
N1477 C1475 1.384 . S
H1478 C1484 0.930 1_545 S
H1479 C1488 0.930 . S
H1480 C1493 0.929 . S
H1481 C1491 0.929 . S
H1482 C1486 0.929 . S
H1483 C1492 0.929 . S
C1484 H1478 0.930 1_565 S
C1484 C1485 1.367 . S
C1484 C1492 1.378 . S
C1485 C1484 1.367 . S
C1485 C1493 1.433 . S
C1486 H1482 0.929 . S
C1486 C1488 1.378 . S
C1486 C1490 1.350 . S
C1487 C1490 1.463 . S
C1487 C1492 1.350 . S
C1487 N1495 1.427 . S
C1488 H1479 0.930 . S
C1488 C1486 1.378 . S
C1488 C1489 1.367 . S
C1489 C1488 1.367 . S
C1489 C1491 1.433 . S
C1490 C1486 1.350 . S
C1490 C1487 1.463 . S
C1490 N1494 1.427 . S
C1491 H1481 0.929 . S
C1491 C1489 1.433 . S
C1491 N1494 1.384 . S
C1492 H1483 0.929 . S
C1492 C1484 1.378 . S
C1492 C1487 1.350 . S
C1493 H1480 0.929 . S
C1493 C1485 1.433 . S
C1493 N1495 1.384 . S
N1494 C1490 1.427 . S
N1494 C1491 1.384 . S
N1495 C1487 1.427 . S
N1495 C1493 1.384 . S
H1496 C1502 0.930 . S
H1497 C1506 0.930 . S
H1498 C1511 0.929 . S
H1499 C1509 0.929 1_565 S
H1500 C1504 0.929 . S
H1501 C1510 0.929 . S
C1502 H1496 0.930 . S
C1502 C1503 1.367 . S
C1502 C1510 1.378 . S
C1503 C1502 1.367 . S
C1503 C1511 1.433 . S
C1504 H1500 0.929 . S
C1504 C1506 1.378 . S
C1504 C1508 1.350 . S
C1505 C1508 1.463 . S
C1505 C1510 1.350 . S
C1505 N1513 1.427 . S
C1506 H1497 0.930 . S
C1506 C1504 1.378 . S
C1506 C1507 1.367 . S
C1507 C1506 1.367 . S
C1507 C1509 1.433 . S
C1508 C1504 1.350 . S
C1508 C1505 1.463 . S
C1508 N1512 1.427 . S
C1509 H1499 0.929 1_545 S
C1509 C1507 1.433 . S
C1509 N1512 1.384 . S
C1510 H1501 0.929 . S
C1510 C1502 1.378 . S
C1510 C1505 1.350 . S
C1511 H1498 0.929 . S
C1511 C1503 1.433 . S
C1511 N1513 1.384 . S
N1512 C1508 1.427 . S
N1512 C1509 1.384 . S
N1513 C1505 1.427 . S
N1513 C1511 1.384 . S
H1514 C1520 0.930 . S
H1515 C1524 0.930 . S
H1516 C1529 0.929 . S
H1517 C1527 0.929 . S
H1518 C1522 0.929 . S
H1519 C1528 0.929 . S
C1520 H1514 0.930 . S
C1520 C1521 1.367 . S
C1520 C1528 1.378 . S
C1521 C1520 1.367 . S
C1521 C1529 1.433 . S
C1522 H1518 0.929 . S
C1522 C1524 1.378 . S
C1522 C1526 1.350 . S
C1523 C1526 1.463 . S
C1523 C1528 1.350 . S
C1523 N1531 1.427 . S
C1524 H1515 0.930 . S
C1524 C1522 1.378 . S
C1524 C1525 1.367 . S
C1525 C1524 1.367 . S
C1525 C1527 1.433 . S
C1526 C1522 1.350 . S
C1526 C1523 1.463 . S
C1526 N1530 1.427 . S
C1527 H1517 0.929 . S
C1527 C1525 1.433 . S
C1527 N1530 1.384 . S
C1528 H1519 0.929 . S
C1528 C1520 1.378 . S
C1528 C1523 1.350 . S
C1529 H1516 0.929 . S
C1529 C1521 1.433 . S
C1529 N1531 1.384 . S
N1530 C1526 1.427 . S
N1530 C1527 1.384 . S
N1531 C1523 1.427 . S
N1531 C1529 1.384 . S
H1532 C1538 0.930 . S
H1533 C1542 0.930 . S
H1534 C1547 0.929 . S
H1535 C1545 0.929 . S
H1536 C1540 0.929 . S
H1537 C1546 0.929 . S
C1538 H1532 0.930 . S
C1538 C1539 1.367 . S
C1538 C1546 1.378 . S
C1539 C1538 1.367 . S
C1539 C1547 1.433 . S
C1540 H1536 0.929 . S
C1540 C1542 1.378 . S
C1540 C1544 1.350 . S
C1541 C1544 1.463 . S
C1541 C1546 1.350 . S
C1541 N1549 1.427 . S
C1542 H1533 0.930 . S
C1542 C1540 1.378 . S
C1542 C1543 1.367 . S
C1543 C1542 1.367 . S
C1543 C1545 1.433 . S
C1544 C1540 1.350 . S
C1544 C1541 1.463 . S
C1544 N1548 1.427 . S
C1545 H1535 0.929 . S
C1545 C1543 1.433 . S
C1545 N1548 1.384 . S
C1546 H1537 0.929 . S
C1546 C1538 1.378 . S
C1546 C1541 1.350 . S
C1547 H1534 0.929 . S
C1547 C1539 1.433 . S
C1547 N1549 1.384 . S
N1548 C1544 1.427 . S
N1548 C1545 1.384 . S
N1549 C1541 1.427 . S
N1549 C1547 1.384 . S
H1550 C1556 0.930 1_565 S
H1551 C1560 0.930 . S
H1552 C1565 0.929 . S
H1553 C1563 0.929 . S
H1554 C1558 0.929 . S
H1555 C1564 0.929 . S
C1556 H1550 0.930 1_545 S
C1556 C1557 1.367 . S
C1556 C1564 1.378 . S
C1557 C1556 1.367 . S
C1557 C1565 1.433 . S
C1558 H1554 0.929 . S
C1558 C1560 1.378 . S
C1558 C1562 1.350 . S
C1559 C1562 1.463 . S
C1559 C1564 1.350 . S
C1559 N1567 1.427 . S
C1560 H1551 0.930 . S
C1560 C1558 1.378 . S
C1560 C1561 1.367 . S
C1561 C1560 1.367 . S
C1561 C1563 1.433 . S
C1562 C1558 1.350 . S
C1562 C1559 1.463 . S
C1562 N1566 1.427 . S
C1563 H1553 0.929 . S
C1563 C1561 1.433 . S
C1563 N1566 1.384 . S
C1564 H1555 0.929 . S
C1564 C1556 1.378 . S
C1564 C1559 1.350 . S
C1565 H1552 0.929 . S
C1565 C1557 1.433 . S
C1565 N1567 1.384 . S
N1566 C1562 1.427 . S
N1566 C1563 1.384 . S
N1567 C1559 1.427 . S
N1567 C1565 1.384 . S
C423 C5 1.418 . S
C427 C18 1.427 . S
C441 C44 1.422 . S
C445 C31 1.430 . S
C459 C57 1.430 . S
C463 C70 1.417 . S
C477 C83 1.421 . S
C481 C96 1.431 . S
C495 C109 1.431 . S
C499 C122 1.419 . S
C513 C135 1.417 . S
C517 C148 1.430 . S
C531 C161 1.421 . S
C535 C174 1.423 . S
C549 C187 1.422 . S
C553 C200 1.430 . S
C567 C226 1.418 . S
C571 C213 1.431 . S
C585 C252 1.417 . S
C589 C239 1.430 . S
C603 C278 1.417 . S
C607 C265 1.431 . S
C621 C304 1.430 . S
C625 C291 1.417 . S
C639 C330 1.431 . S
C643 C317 1.420 . S
C657 C356 1.417 . S
C661 C343 1.430 . S
C675 C382 1.421 . S
C679 C369 1.430 . S
C693 C408 1.419 . S
C697 C395 1.426 . S
C711 C0 1.362 . S
C715 C156 1.362 . S
C729 C13 1.363 . S
C733 C273 1.363 . S
C747 C26 1.365 . S
C751 C78 1.365 . S
C765 C39 1.361 . S
C769 C403 1.361 . S
C783 C52 1.363 . S
C787 C104 1.363 . S
C801 C221 1.365 . S
C805 C65 1.365 . S
C819 C351 1.364 . S
C823 C91 1.364 . S
C837 C117 1.361 . S
C841 C377 1.361 . S
C855 C130 1.361 . S
C859 C182 1.361 . S
C873 C143 1.363 . S
C877 C299 1.363 . S
C891 C169 1.363 . S
C895 C325 1.363 . S
C909 C195 1.361 . S
C913 C247 1.361 . S
C927 C364 1.363 . S
C931 C208 1.363 . S
C945 C286 1.365 . S
C949 C234 1.365 . S
C963 C260 1.361 . S
C967 C312 1.361 . S
C981 C390 1.364 . S
C985 C338 1.364 . S
C999 C138 0.936 . S
C1003 C8 0.949 . S
C1017 C151 0.937 . S
C1021 C21 0.948 1_565 S
C1035 C34 0.930 1_565 S
C1039 C112 0.953 . S
C1053 C125 0.930 . S
C1057 C47 0.953 . S
C1071 C60 0.945 . S
C1075 C190 0.940 . S
C1089 C73 0.932 1_545 S
C1093 C203 0.950 . S
C1107 C164 0.951 . S
C1111 C86 0.933 1_545 S
C1125 C177 0.931 . S
C1129 C99 0.952 . S
C1143 C216 0.941 . S
C1147 C346 0.940 . S
C1161 C359 0.939 . S
C1165 C229 0.947 1_565 S
C1179 C320 0.948 . S
C1183 C242 0.934 1_565 S
C1197 C255 0.939 . S
C1201 C333 0.947 . S
C1215 C398 0.931 . S
C1219 C268 0.953 . S
C1233 C281 0.932 1_545 S
C1237 C411 0.951 . S
C1251 C372 0.947 . S
C1255 C294 0.938 1_545 S
C1269 C385 0.938 . S
C1273 C307 0.945 . S
C1287 C140 1.469 . S
C1291 C10 1.472 1_565 S
C1305 C153 1.463 . S
C1309 C23 1.468 . S
C1323 C114 1.462 . S
C1327 C36 1.460 . S
C1341 C49 1.468 1_565 S
C1345 C127 1.463 . S
C1359 C192 1.460 . S
C1363 C62 1.464 1_545 S
C1377 C205 1.473 . S
C1381 C75 1.471 . S
C1395 C166 1.462 . S
C1399 C88 1.460 . S
C1413 C179 1.468 . S
C1417 C101 1.472 1_545 S
C1431 C348 1.467 . S
C1435 C218 1.471 1_565 S
C1449 C361 1.469 . S
C1453 C231 1.472 . S
C1467 C322 1.462 . S
C1471 C244 1.460 . S
C1485 C257 1.463 1_565 S
C1489 C335 1.460 . S
C1503 C400 1.472 . S
C1507 C270 1.469 1_545 S
C1521 C283 1.466 . S
C1525 C413 1.462 . S
C1539 C374 1.460 . S
C1543 C296 1.463 . S
C1557 C309 1.460 1_545 S
C1561 C387 1.463 . S
