# Generated by pormake.
# Topology sml, (6)-cn, num edge types: 1
# Building blocks:
#     Node 0, Type 0, BuildingBlock: UKALOJ_clean_sbu_0, # of connection points: 6
#     Node 1, Type 0, BuildingBlock: UKALOJ_clean_sbu_0, # of connection points: 6
#     Node 2, Type 0, BuildingBlock: UKALOJ_clean_sbu_0, # of connection points: 6
#     Node 3, Type 0, BuildingBlock: UKALOJ_clean_sbu_0, # of connection points: 6
#     Node 4, Type 0, BuildingBlock: UKALOJ_clean_sbu_0, # of connection points: 6
#     Node 5, Type 0, BuildingBlock: UKALOJ_clean_sbu_0, # of connection points: 6
#     Edge 6, Type (0, 0), BuildingBlock: OJICUG_clean_linker_0, # of connection points: 2
#     Edge 7, Type (0, 0), BuildingBlock: OJICUG_clean_linker_0, # of connection points: 2
#     Edge 8, Type (0, 0), BuildingBlock: OJICUG_clean_linker_0, # of connection points: 2
#     Edge 9, Type (0, 0), BuildingBlock: OJICUG_clean_linker_0, # of connection points: 2
#     Edge 10, Type (0, 0), BuildingBlock: OJICUG_clean_linker_0, # of connection points: 2
#     Edge 11, Type (0, 0), BuildingBlock: OJICUG_clean_linker_0, # of connection points: 2
#     Edge 12, Type (0, 0), BuildingBlock: OJICUG_clean_linker_0, # of connection points: 2
#     Edge 13, Type (0, 0), BuildingBlock: OJICUG_clean_linker_0, # of connection points: 2
#     Edge 14, Type (0, 0), BuildingBlock: OJICUG_clean_linker_0, # of connection points: 2
#     Edge 15, Type (0, 0), BuildingBlock: OJICUG_clean_linker_0, # of connection points: 2
#     Edge 16, Type (0, 0), BuildingBlock: OJICUG_clean_linker_0, # of connection points: 2
#     Edge 17, Type (0, 0), BuildingBlock: OJICUG_clean_linker_0, # of connection points: 2
#     Edge 18, Type (0, 0), BuildingBlock: OJICUG_clean_linker_0, # of connection points: 2
#     Edge 19, Type (0, 0), BuildingBlock: OJICUG_clean_linker_0, # of connection points: 2
#     Edge 20, Type (0, 0), BuildingBlock: OJICUG_clean_linker_0, # of connection points: 2
#     Edge 21, Type (0, 0), BuildingBlock: OJICUG_clean_linker_0, # of connection points: 2
#     Edge 22, Type (0, 0), BuildingBlock: OJICUG_clean_linker_0, # of connection points: 2
#     Edge 23, Type (0, 0), BuildingBlock: OJICUG_clean_linker_0, # of connection points: 2
# Relax obj value: 0.389
# Max RMSD: 0.246
# Mean RMSD: 0.246
data_MOF--net-sml--node1-UKALOJ_clean_sbu_0--edge1-OJICUG_clean_linker_0
_symmetry_space_group_name_H-M    P1
_symmetry_Int_Tables_number       1
_symmetry_cell_setting            triclinic
loop_
_symmetry_equiv_pos_as_xyz
'x, y, z'
_cell_length_a     26.713717
_cell_length_b     26.543102
_cell_length_c     14.994143
_cell_angle_alpha  90.548566
_cell_angle_beta   89.697625
_cell_angle_gamma 119.60749
loop_
_atom_site_label
_atom_site_type_symbol
_atom_site_fract_x
_atom_site_fract_y
_atom_site_fract_z
_atom_type_partial_charge
Zn0 Zn 0.199 0.39833 0.06839 0.0
O1 O 0.18575 0.46758 0.09714 0.0
C2 C 0.06709 0.31348 0.08162 0.0
Zn3 Zn 0.14281 0.39176 0.95587 0.0
C4 C 0.15192 0.48329 0.06531 0.0
O5 O 0.12138 0.45688 0.9975 0.0
C6 C 0.19293 0.3085 0.95909 0.0
O7 O 0.22372 0.4585 0.91242 0.0
O8 O 0.28177 0.45966 0.01612 0.0
N9 N 0.1157 0.38746 0.82635 0.0
C10 C 0.14439 0.38729 0.7517 0.0
C11 C 0.06672 0.3838 0.70949 0.0
N12 N 0.06726 0.38511 0.79988 0.0
N13 N 0.11457 0.38467 0.67872 0.0
C14 C 0.20201 0.41316 0.27178 0.0
C15 C 0.25695 0.38188 0.31727 0.0
N16 N 0.22578 0.40303 0.19851 0.0
N17 N 0.25991 0.38354 0.22711 0.0
N18 N 0.22145 0.40103 0.34635 0.0
H19 H 0.12527 0.41089 0.21646 0.0
H20 H 0.17609 0.47775 0.27003 0.0
H21 H 0.12911 0.41547 0.33394 0.0
C22 C 0.15553 0.42986 0.27247 0.0
C23 C 0.20327 0.39268 0.74597 0.0
H24 H 0.22158 0.38956 0.80952 0.0
H25 H 0.23344 0.4347 0.71493 0.0
H26 H 0.20166 0.35882 0.70029 0.0
O27 O 0.16284 0.3262 0.91911 0.0
O28 O 0.21464 0.33034 0.03459 0.0
C29 C 0.27445 0.47837 0.94206 0.0
O30 O 0.11652 0.33673 0.11737 0.0
O31 O 0.0622 0.32676 1.00209 0.0
Zn32 Zn 0.7355 0.16287 0.3005 0.0
O33 O 0.7589 0.24586 0.25028 0.0
C34 C 0.86453 0.20499 0.29957 0.0
Zn35 Zn 0.78552 0.21497 0.4188 0.0
C36 C 0.79039 0.29488 0.28689 0.0
O37 O 0.80942 0.29763 0.36556 0.0
C38 C 0.73125 0.08328 0.43326 0.0
O39 O 0.70576 0.20624 0.45116 0.0
O40 O 0.65269 0.14902 0.34246 0.0
N41 N 0.81496 0.24549 0.54693 0.0
C42 C 0.78464 0.22637 0.62372 0.0
C43 C 0.87328 0.27129 0.65935 0.0
N44 N 0.87015 0.27367 0.56953 0.0
N45 N 0.82003 0.24177 0.69456 0.0
C46 C 0.71329 0.15742 0.10153 0.0
C47 C 0.73548 0.0933 0.0647 0.0
N48 N 0.7093 0.12726 0.17576 0.0
N49 N 0.72242 0.08697 0.15219 0.0
N50 N 0.73138 0.13811 0.03141 0.0
H51 H 0.65865 0.19007 0.15056 0.0
H52 H 0.66521 0.18928 0.03001 0.0
H53 H 0.72294 0.24297 0.09547 0.0
C54 C 0.68851 0.19713 0.09423 0.0
C55 C 0.72006 0.1916 0.63085 0.0
H56 H 0.70173 0.21933 0.6116 0.0
H57 H 0.7051 0.17716 0.69974 0.0
H58 H 0.70259 0.15287 0.58696 0.0
O59 O 0.7607 0.13204 0.47148 0.0
O60 O 0.7145 0.08138 0.35356 0.0
C61 C 0.65696 0.17658 0.41463 0.0
O62 O 0.81642 0.17714 0.26043 0.0
O63 O 0.86649 0.2254 0.3775 0.0
Zn64 Zn 0.53788 0.78587 0.74553 0.0
O65 O 0.4731 0.70237 0.77694 0.0
C66 C 0.62122 0.73916 0.75946 0.0
Zn67 Zn 0.54522 0.7407 0.6239 0.0
C68 C 0.4565 0.65533 0.73452 0.0
O69 O 0.47828 0.65565 0.65867 0.0
C70 C 0.62538 0.87128 0.63144 0.0
O71 O 0.48502 0.76191 0.57118 0.0
O72 O 0.47437 0.80348 0.69174 0.0
N73 N 0.55835 0.7172 0.49955 0.0
C74 C 0.53046 0.71768 0.42514 0.0
C75 C 0.6177 0.74725 0.38896 0.0
N76 N 0.61239 0.73485 0.4765 0.0
N77 N 0.56717 0.73809 0.35528 0.0
C78 C 0.52376 0.7849 0.94994 0.0
C79 C 0.56263 0.87426 0.98478 0.0
N80 N 0.53352 0.81444 0.87288 0.0
N81 N 0.55735 0.87006 0.89495 0.0
N82 N 0.54173 0.82125 0.02047 0.0
H83 H 0.4531 0.69868 0.93489 0.0
H84 H 0.49768 0.70635 0.02713 0.0
H85 H 0.52333 0.70549 0.91654 0.0
C86 C 0.4985 0.72038 0.95756 0.0
C87 C 0.46604 0.68828 0.41785 0.0
H88 H 0.44555 0.65778 0.47394 0.0
H89 H 0.4519 0.66442 0.35343 0.0
H90 H 0.45096 0.72028 0.41964 0.0
O91 O 0.61003 0.82414 0.58983 0.0
O92 O 0.60307 0.8701 0.70713 0.0
C93 C 0.46215 0.78804 0.61043 0.0
O94 O 0.60027 0.76737 0.79796 0.0
O95 O 0.60651 0.7216 0.67971 0.0
Zn96 Zn 0.78248 0.55521 0.96429 0.0
O97 O 0.70211 0.48559 0.93313 0.0
C98 C 0.72882 0.63602 0.96162 0.0
Zn99 Zn 0.73384 0.55795 0.08176 0.0
C100 C 0.65325 0.4659 0.96948 0.0
O101 O 0.6494 0.48854 0.04266 0.0
C102 C 0.86468 0.64689 0.07188 0.0
O103 O 0.75534 0.49553 0.12293 0.0
O104 O 0.80688 0.49383 1.0102 0.0
N105 N 0.70962 0.55944 0.21074 0.0
C106 C 0.74078 0.56587 0.28494 0.0
C107 C 0.65805 0.54989 0.32771 0.0
N108 N 0.65813 0.54953 0.23742 0.0
N109 N 0.70989 0.56105 0.35812 0.0
C110 C 0.77238 0.54432 0.76178 0.0
C111 C 0.85462 0.56034 0.71624 0.0
N112 N 0.80487 0.55198 0.83489 0.0
N113 N 0.85603 0.56187 0.80649 0.0
N114 N 0.80214 0.5483 0.68759 0.0
H115 H 0.69685 0.54463 0.82274 0.0
H116 H 0.68213 0.49401 0.73333 0.0
H117 H 0.71236 0.56884 0.71052 0.0
C118 C 0.71295 0.53781 0.75898 0.0
C119 C 0.80003 0.5722 0.28964 0.0
H120 H 0.81714 0.56642 0.22606 0.0
H121 H 0.79981 0.54056 0.33764 0.0
H122 H 0.83023 0.61531 0.31792 0.0
O123 O 0.81787 0.62832 0.11522 0.0
O124 O 0.86411 0.62366 0.99717 0.0
C125 C 0.78563 0.47615 0.08742 0.0
O126 O 0.75853 0.61728 0.9217 0.0
O127 O 0.71073 0.61862 0.04002 0.0
Zn128 Zn 0.15114 0.74949 0.39213 0.0
O129 O 0.23211 0.76233 0.43509 0.0
C130 C 0.20346 0.88263 0.38746 0.0
Zn131 Zn 0.20696 0.79681 0.27813 0.0
C132 C 0.28253 0.79111 0.40323 0.0
O133 O 0.2894 0.81576 0.3281 0.0
C134 C 0.07491 0.75302 0.26799 0.0
O135 O 0.19187 0.71387 0.24952 0.0
O136 O 0.12795 0.66237 0.35081 0.0
N137 N 0.2341 0.81835 0.1484 0.0
C138 C 0.21062 0.78471 0.0751 0.0
C139 C 0.2684 0.86997 0.02975 0.0
N140 N 0.27008 0.87138 0.11997 0.0
N141 N 0.23204 0.81577 1.00056 0.0
C142 C 0.1516 0.75681 0.59595 0.0
C143 C 0.07972 0.67752 0.63822 0.0
N144 N 0.12451 0.72669 0.5214 0.0
N145 N 0.07977 0.67734 0.54788 0.0
N146 N 0.124 0.72743 0.66898 0.0
H147 H 0.23694 0.80951 0.64895 0.0
H148 H 0.19886 0.84697 0.63022 0.0
H149 H 0.23056 0.82915 0.53802 0.0
C150 C 0.20748 0.81349 0.60133 0.0
C151 C 0.16261 0.72247 0.07414 0.0
H152 H 0.13308 0.71186 0.13103 0.0
H153 H 0.18168 0.69365 0.07448 0.0
H154 H 0.13572 0.71201 0.01341 0.0
O155 O 0.12388 0.77757 0.2302 0.0
O156 O 0.07079 0.73561 0.34779 0.0
C157 C 0.15748 0.66502 0.28231 0.0
O158 O 0.17244 0.83536 0.42787 0.0
O159 O 0.22501 0.88142 0.31218 0.0
Zn160 Zn 0.38898 0.21709 0.62716 0.0
O161 O 0.45528 0.20258 0.58792 0.0
C162 C 0.30949 0.08639 0.60761 0.0
Zn163 Zn 0.38559 0.16208 0.74355 0.0
C164 C 0.47415 0.17213 0.62319 0.0
O165 O 0.45298 0.14656 0.69667 0.0
C166 C 0.30162 0.20789 0.75131 0.0
O167 O 0.44576 0.24401 0.79378 0.0
O168 O 0.45033 0.29892 0.68167 0.0
N169 N 0.38002 0.12698 0.86927 0.0
C170 C 0.41004 0.15424 0.94379 0.0
C171 C 0.3276 0.08874 0.98644 0.0
N172 N 0.32899 0.08562 0.89663 0.0
N173 N 0.37794 0.13179 0.0178 0.0
C174 C 0.41533 0.24619 0.42549 0.0
C175 C 0.33628 0.23891 0.38309 0.0
N176 N 0.38746 0.24827 0.50015 0.0
N177 N 0.33861 0.24451 0.47281 0.0
N178 N 0.38372 0.23914 0.35171 0.0
H179 H 0.50114 0.28214 0.47904 0.0
H180 H 0.49646 0.27585 0.35898 0.0
H181 H 0.47325 0.21199 0.42376 0.0
C182 C 0.4751 0.25464 0.42236 0.0
C183 C 0.47141 0.20213 0.94611 0.0
H184 H 0.4944 0.20242 0.88408 0.0
H185 H 0.49363 0.19636 1.0042 0.0
H186 H 0.47282 0.24431 0.95571 0.0
O187 O 0.32069 0.17801 0.78813 0.0
O188 O 0.32086 0.2302 0.67514 0.0
C189 C 0.46541 0.29381 0.76002 0.0
O190 O 0.33001 0.13626 0.57374 0.0
O191 O 0.32347 0.08116 0.6867 0.0
C192 C 0.27257 0.22896 0.8984 0.0
C193 C 0.26527 0.22394 0.80513 0.0
H194 H 0.25566 0.26005 0.02075 0.0
C195 C 0.22706 0.23871 0.76543 0.0
H196 H 0.30169 0.21759 0.93093 0.0
C197 C 0.1988 0.26084 0.81777 0.0
C198 C 0.21053 0.27125 0.90982 0.0
H199 H 0.22007 0.23442 0.694 0.0
H200 H 0.1702 0.27274 0.78506 0.0
C201 C 0.24608 0.25311 0.95012 0.0
C202 C 0.96159 0.24452 0.09841 0.0
C203 C 0.0161 0.27703 0.1371 0.0
H204 H 0.87112 0.19447 0.11978 0.0
C205 C 0.02105 0.27871 0.23088 0.0
H206 H 0.95645 0.24199 0.0266 0.0
C207 C -0.028 0.2524 0.28486 0.0
C208 C 0.91721 0.22268 0.24602 0.0
H209 H 0.06263 0.30299 0.26294 0.0
H210 H -0.02314 0.2574 0.35661 0.0
C211 C 0.91273 0.21706 0.15226 0.0
C212 C 0.69227 0.97632 0.44164 0.0
C213 C 0.71186 0.02975 0.485 0.0
H214 H 0.65122 0.8845 0.45447 0.0
C215 C 0.70851 0.03123 0.57868 0.0
H216 H 0.69451 0.97389 0.36967 0.0
C217 C 0.68283 -0.02007 0.62768 0.0
C218 C 0.66109 0.92627 0.58388 0.0
H219 H 0.72303 0.07186 0.6138 0.0
H220 H 0.67826 -0.01781 0.69921 0.0
C221 C 0.66773 0.92517 0.49062 0.0
C222 C 0.69066 0.7017 0.76911 0.0
C223 C 0.65642 0.72119 0.81157 0.0
H224 H 0.74287 0.66205 0.7841 0.0
C225 C 0.65188 0.7187 0.90515 0.0
H226 H 0.69535 0.70357 0.69721 0.0
C227 C 0.67773 0.69355 0.95486 0.0
C228 C 0.7096 0.67134 0.91205 0.0
H229 H 0.62573 0.73334 0.93976 0.0
H230 H 0.67093 0.6896 0.02634 0.0
C231 C 0.71773 0.67781 0.81906 0.0
C232 C 0.02364 0.72898 0.12191 0.0
C233 C 0.02305 0.73802 0.21448 0.0
H234 H -0.02632 0.69213 1.00374 0.0
C235 C -0.02855 0.72744 0.25517 0.0
H236 H 0.06304 0.73834 0.08788 0.0
C237 C 0.92062 0.70404 0.20536 0.0
C238 C 0.91989 0.6875 0.11566 0.0
H239 H -0.02993 0.73567 0.3258 0.0
H240 H 0.88136 0.696 0.23846 0.0
C241 C -0.02759 0.70294 0.07326 0.0
C242 C 0.29393 0.03856 0.45952 0.0
C243 C 0.27661 0.03587 0.54897 0.0
H244 H 0.28443 -0.00786 0.33752 0.0
C245 C 0.22943 -0.01496 0.58025 0.0
H246 H 0.33009 0.07764 0.43377 0.0
C247 C 0.20151 0.93683 0.52368 0.0
C248 C 0.22231 0.93769 0.43669 0.0
H249 H 0.21451 -0.01754 0.64827 0.0
H250 H 0.16525 0.89793 0.54962 0.0
C251 C 0.26751 -0.01023 0.40411 0.0
C252 C 0.12972 0.33807 0.54782 0.0
C253 C 0.13454 0.38795 0.58909 0.0
H254 H 0.15579 0.30359 0.43797 0.0
C255 C 0.1716 0.44241 0.5526 0.0
H256 H 0.103 0.29596 0.57733 0.0
C257 C 0.20309 0.44694 0.4755 0.0
C258 C 0.19822 0.39707 0.43405 0.0
H259 H 0.17752 0.48139 0.58581 0.0
H260 H 0.2305 0.48919 0.44685 0.0
C261 C 0.1612 0.34256 0.47054 0.0
C262 C 0.7542 0.13134 0.87379 0.0
C263 C 0.75466 0.1652 0.94664 0.0
H264 H 0.77724 0.13019 0.73694 0.0
C265 C 0.78348 0.226 0.93736 0.0
H266 H 0.73389 0.08468 0.87937 0.0
C267 C 0.80761 0.25183 0.85549 0.0
C268 C 0.80466 0.21745 0.78226 0.0
H269 H 0.7884 0.25388 0.99326 0.0
H270 H 0.82736 0.29837 0.84864 0.0
C271 C 0.77933 0.15724 0.79281 0.0
C272 C 0.59503 0.7625 0.19813 0.0
C273 C 0.56067 0.75996 0.27098 0.0
H274 H 0.61734 0.78678 0.06165 0.0
C275 C 0.52484 0.78476 0.2624 0.0
H276 H 0.62419 0.74534 0.20331 0.0
C277 C 0.52049 0.80774 0.18104 0.0
C278 C 0.55309 0.80778 0.10783 0.0
H279 H 0.50084 0.78745 0.31842 0.0
H280 H 0.49083 0.82421 0.17455 0.0
C281 C 0.59159 0.78659 0.11769 0.0
C282 C 0.80241 0.60428 0.55932 0.0
C283 C 0.78347 0.55041 0.59934 0.0
H284 H 0.79077 0.65007 0.45153 0.0
C285 C 0.73619 0.50088 0.56316 0.0
H286 H 0.83744 0.64312 0.58852 0.0
C287 C 0.7085 0.50507 0.48725 0.0
C288 C 0.72758 0.55893 0.44705 0.0
H289 H 0.72007 0.45931 0.59527 0.0
H290 H 0.6736 0.4662 0.45788 0.0
C291 C 0.77462 0.6085 0.48362 0.0
C292 C 0.17787 0.72292 0.7969 0.0
C293 C 0.14448 0.74423 0.75824 0.0
H294 H 0.23467 0.73148 0.90402 0.0
C295 C 0.14401 0.79237 0.79687 0.0
H296 H 0.18052 0.68734 0.7657 0.0
C297 C 0.17605 0.81855 0.87374 0.0
C298 C 0.20928 0.79711 0.91263 0.0
H299 H 0.12007 0.81055 0.76569 0.0
H300 H 0.17378 0.85449 0.90435 0.0
C301 C 0.2101 0.74921 0.87357 0.0
C302 C 0.38237 0.23917 0.18681 0.0
C303 C 0.38763 0.21524 0.2668 0.0
H304 H 0.37694 0.23167 0.04385 0.0
C305 C 0.39181 0.16437 0.26321 0.0
H306 H 0.37838 0.27783 0.18803 0.0
C307 C 0.3896 0.13731 0.18141 0.0
C308 C 0.38444 0.16133 0.10162 0.0
H309 H 0.39475 0.14444 0.32404 0.0
H310 H 0.3912 0.09733 0.1803 0.0
C311 C 0.38155 0.21285 0.10485 0.0
C312 C 0.20257 0.5779 0.14052 0.0
C313 C 0.14995 0.53127 0.11218 0.0
H314 H 0.24558 0.65475 0.21965 0.0
C315 C 0.09836 0.52608 0.1459 0.0
H316 H 0.24298 0.58219 0.1172 0.0
C317 C 0.09989 0.56748 0.20708 0.0
C318 C 0.15302 0.61408 0.2349 0.0
H319 H 0.05732 0.48936 0.12718 0.0
H320 H 0.05991 0.56405 0.23049 0.0
C321 C 0.20408 0.61866 0.20077 0.0
C322 C 0.61402 0.22467 0.503 0.0
C323 C 0.60709 0.174 0.46142 0.0
H324 H 0.57752 0.26294 0.58874 0.0
C325 C 0.55684 0.12109 0.47796 0.0
H326 H 0.65267 0.2659 0.49219 0.0
C327 C 0.5144 0.11918 0.53599 0.0
C328 C 0.52189 0.17018 0.57741 0.0
H329 H 0.55116 0.08128 0.4481 0.0
H330 H 0.47524 0.0784 0.54656 0.0
C331 C 0.57171 0.22285 0.5596 0.0
C332 C 0.31031 0.54142 0.80748 0.0
C333 C 0.32274 0.52085 0.88615 0.0
H334 H 0.34338 0.59842 0.69551 0.0
C335 C 0.38057 0.54054 0.90794 0.0
H336 H 0.26633 0.52788 0.78874 0.0
C337 C 0.42474 0.58125 0.85364 0.0
C338 C 0.41178 0.60215 0.77623 0.0
H339 H 0.39167 0.52555 0.96761 0.0
H340 H 0.4691 0.59815 0.87391 0.0
C341 C 0.3543 0.58133 0.753 0.0
C342 C 0.78398 0.3846 0.28054 0.0
C343 C 0.79964 0.34704 0.23946 0.0
H344 H 0.76482 0.45255 0.26362 0.0
C345 C 0.81554 0.35472 0.14879 0.0
H346 H 0.77056 0.37883 0.34979 0.0
C347 C 0.81384 0.3984 0.09905 0.0
C348 C 0.7948 0.43396 0.13907 0.0
H349 H 0.82773 0.32585 0.11599 0.0
H350 H 0.82485 0.40256 0.02886 0.0
C351 C 0.7807 0.42688 0.23064 0.0
C352 C 0.38632 0.81595 0.42074 0.0
C353 C 0.33115 0.79566 0.45697 0.0
H354 H 0.47162 0.82955 0.44222 0.0
C355 C 0.32143 0.77746 0.54664 0.0
H356 H 0.39524 0.8301 0.35211 0.0
C357 C 0.3653 0.77888 0.59856 0.0
C358 C 0.41945 0.79668 0.56124 0.0
H359 H 0.27932 0.76056 0.57661 0.0
H360 H 0.35592 0.76301 0.66635 0.0
C361 C 0.42991 0.81574 0.47225 0.0
C362 C 0.61334 0.39728 0.84111 0.0
C363 C 0.60297 0.42086 0.91919 0.0
H364 H 0.5779 0.34146 0.72742 0.0
C365 C 0.54576 0.40391 0.94218 0.0
H366 H 0.65662 0.40806 0.82187 0.0
C367 C 0.50024 0.3643 0.88777 0.0
C368 C 0.51161 0.34282 0.80854 0.0
H369 H 0.53624 0.42102 1.00176 0.0
H370 H 0.45624 0.34982 0.90803 0.0
C371 C 0.56839 0.35954 0.78597 0.0
loop_
_geom_bond_atom_site_label_1
_geom_bond_atom_site_label_2
_geom_bond_distance
_geom_bond_site_symmetry_2
_ccdc_geom_bond_type
Zn0 O1 2.055 . S
Zn0 O8 2.046 . S
Zn0 N16 2.036 . S
Zn0 O28 2.053 . S
Zn0 O30 2.066 . S
O1 Zn0 2.055 . S
O1 C4 1.259 . S
C2 O30 1.256 . S
C2 O31 1.244 1_554 S
Zn3 O5 2.046 . S
Zn3 O7 2.055 . S
Zn3 N9 2.036 . S
Zn3 O27 2.066 . S
Zn3 O31 2.053 . S
C4 O1 1.259 . S
C4 O5 1.254 1_554 S
O5 Zn3 2.046 . S
O5 C4 1.254 1_556 S
C6 O27 1.256 . S
C6 O28 1.244 1_556 S
O7 Zn3 2.055 . S
O7 C29 1.259 . S
O8 Zn0 2.046 . S
O8 C29 1.254 1_554 S
N9 Zn3 2.036 . S
N9 C10 1.298 . S
N9 N12 1.398 . S
C10 N9 1.298 . S
C10 N13 1.367 . S
C10 C23 1.481 . S
C11 N12 1.299 . S
C11 N13 1.379 . S
N12 N9 1.398 . S
N12 C11 1.299 . S
N13 C10 1.367 . S
N13 C11 1.379 . S
C14 N16 1.298 . S
C14 N18 1.367 . S
C14 C22 1.481 . S
C15 N17 1.299 . S
C15 N18 1.379 . S
N16 Zn0 2.036 . S
N16 C14 1.298 . S
N16 N17 1.398 . S
N17 C15 1.299 . S
N17 N16 1.398 . S
N18 C14 1.367 . S
N18 C15 1.379 . S
H19 C22 0.980 . S
H20 C22 0.981 . S
H21 C22 0.981 . S
C22 C14 1.481 . S
C22 H19 0.980 . S
C22 H20 0.981 . S
C22 H21 0.981 . S
C23 C10 1.481 . S
C23 H24 0.980 . S
C23 H25 0.981 . S
C23 H26 0.981 . S
H24 C23 0.980 . S
H25 C23 0.981 . S
H26 C23 0.981 . S
O27 Zn3 2.066 . S
O27 C6 1.256 . S
O28 Zn0 2.053 . S
O28 C6 1.244 1_554 S
C29 O7 1.259 . S
C29 O8 1.254 1_556 S
O30 Zn0 2.066 . S
O30 C2 1.256 . S
O31 C2 1.244 1_556 S
O31 Zn3 2.053 . S
Zn32 O33 2.055 . S
Zn32 O40 2.046 . S
Zn32 N48 2.036 . S
Zn32 O60 2.053 . S
Zn32 O62 2.066 . S
O33 Zn32 2.055 . S
O33 C36 1.259 . S
C34 O62 1.256 . S
C34 O63 1.244 . S
Zn35 O37 2.046 . S
Zn35 O39 2.055 . S
Zn35 N41 2.036 . S
Zn35 O59 2.066 . S
Zn35 O63 2.053 . S
C36 O33 1.259 . S
C36 O37 1.254 . S
O37 Zn35 2.046 . S
O37 C36 1.254 . S
C38 O59 1.256 . S
C38 O60 1.244 . S
O39 Zn35 2.055 . S
O39 C61 1.259 . S
O40 Zn32 2.046 . S
O40 C61 1.254 . S
N41 Zn35 2.036 . S
N41 C42 1.298 . S
N41 N44 1.398 . S
C42 N41 1.298 . S
C42 N45 1.367 . S
C42 C55 1.481 . S
C43 N44 1.299 . S
C43 N45 1.379 . S
N44 N41 1.398 . S
N44 C43 1.299 . S
N45 C42 1.367 . S
N45 C43 1.379 . S
C46 N48 1.298 . S
C46 N50 1.367 1_554 S
C46 C54 1.481 . S
C47 N49 1.299 . S
C47 N50 1.379 1_554 S
N48 Zn32 2.036 . S
N48 C46 1.298 . S
N48 N49 1.398 . S
N49 C47 1.299 . S
N49 N48 1.398 . S
N50 C46 1.367 1_556 S
N50 C47 1.379 1_556 S
H51 C54 0.980 . S
H52 C54 0.981 1_556 S
H53 C54 0.981 . S
C54 C46 1.481 . S
C54 H51 0.980 . S
C54 H52 0.981 1_554 S
C54 H53 0.981 . S
C55 C42 1.481 . S
C55 H56 0.980 . S
C55 H57 0.981 . S
C55 H58 0.981 . S
H56 C55 0.980 . S
H57 C55 0.981 . S
H58 C55 0.981 . S
O59 Zn35 2.066 . S
O59 C38 1.256 . S
O60 Zn32 2.053 . S
O60 C38 1.244 . S
C61 O39 1.259 . S
C61 O40 1.254 . S
O62 Zn32 2.066 . S
O62 C34 1.256 . S
O63 C34 1.244 . S
O63 Zn35 2.053 . S
Zn64 O65 2.055 . S
Zn64 O72 2.046 . S
Zn64 N80 2.036 . S
Zn64 O92 2.053 . S
Zn64 O94 2.066 . S
O65 Zn64 2.055 . S
O65 C68 1.259 . S
C66 O94 1.256 . S
C66 O95 1.244 . S
Zn67 O69 2.046 . S
Zn67 O71 2.055 . S
Zn67 N73 2.036 . S
Zn67 O91 2.066 . S
Zn67 O95 2.053 . S
C68 O65 1.259 . S
C68 O69 1.254 . S
O69 Zn67 2.046 . S
O69 C68 1.254 . S
C70 O91 1.256 . S
C70 O92 1.244 . S
O71 Zn67 2.055 . S
O71 C93 1.259 . S
O72 Zn64 2.046 . S
O72 C93 1.254 . S
N73 Zn67 2.036 . S
N73 C74 1.298 . S
N73 N76 1.398 . S
C74 N73 1.298 . S
C74 N77 1.367 . S
C74 C87 1.481 . S
C75 N76 1.299 . S
C75 N77 1.379 . S
N76 N73 1.398 . S
N76 C75 1.299 . S
N77 C74 1.367 . S
N77 C75 1.379 . S
C78 N80 1.298 . S
C78 N82 1.367 1_556 S
C78 C86 1.481 . S
C79 N81 1.299 . S
C79 N82 1.379 1_556 S
N80 Zn64 2.036 . S
N80 C78 1.298 . S
N80 N81 1.398 . S
N81 C79 1.299 . S
N81 N80 1.398 . S
N82 C78 1.367 1_554 S
N82 C79 1.379 1_554 S
H83 C86 0.980 . S
H84 C86 0.981 1_554 S
H85 C86 0.981 . S
C86 C78 1.481 . S
C86 H83 0.980 . S
C86 H84 0.981 1_556 S
C86 H85 0.981 . S
C87 C74 1.481 . S
C87 H88 0.980 . S
C87 H89 0.981 . S
C87 H90 0.981 . S
H88 C87 0.980 . S
H89 C87 0.981 . S
H90 C87 0.981 . S
O91 Zn67 2.066 . S
O91 C70 1.256 . S
O92 Zn64 2.053 . S
O92 C70 1.244 . S
C93 O71 1.259 . S
C93 O72 1.254 . S
O94 Zn64 2.066 . S
O94 C66 1.256 . S
O95 C66 1.244 . S
O95 Zn67 2.053 . S
Zn96 O97 2.055 . S
Zn96 O104 2.046 . S
Zn96 N112 2.036 . S
Zn96 O124 2.053 . S
Zn96 O126 2.066 . S
O97 Zn96 2.055 . S
O97 C100 1.259 . S
C98 O126 1.256 . S
C98 O127 1.244 1_556 S
Zn99 O101 2.046 . S
Zn99 O103 2.055 . S
Zn99 N105 2.036 . S
Zn99 O123 2.066 . S
Zn99 O127 2.053 . S
C100 O97 1.259 . S
C100 O101 1.254 1_556 S
O101 Zn99 2.046 . S
O101 C100 1.254 1_554 S
C102 O123 1.256 . S
C102 O124 1.244 1_554 S
O103 Zn99 2.055 . S
O103 C125 1.259 . S
O104 Zn96 2.046 . S
O104 C125 1.254 1_556 S
N105 Zn99 2.036 . S
N105 C106 1.298 . S
N105 N108 1.398 . S
C106 N105 1.298 . S
C106 N109 1.367 . S
C106 C119 1.481 . S
C107 N108 1.299 . S
C107 N109 1.379 . S
N108 N105 1.398 . S
N108 C107 1.299 . S
N109 C106 1.367 . S
N109 C107 1.379 . S
C110 N112 1.298 . S
C110 N114 1.367 . S
C110 C118 1.481 . S
C111 N113 1.299 . S
C111 N114 1.379 . S
N112 Zn96 2.036 . S
N112 C110 1.298 . S
N112 N113 1.398 . S
N113 C111 1.299 . S
N113 N112 1.398 . S
N114 C110 1.367 . S
N114 C111 1.379 . S
H115 C118 0.980 . S
H116 C118 0.981 . S
H117 C118 0.981 . S
C118 C110 1.481 . S
C118 H115 0.980 . S
C118 H116 0.981 . S
C118 H117 0.981 . S
C119 C106 1.481 . S
C119 H120 0.980 . S
C119 H121 0.981 . S
C119 H122 0.981 . S
H120 C119 0.980 . S
H121 C119 0.981 . S
H122 C119 0.981 . S
O123 Zn99 2.066 . S
O123 C102 1.256 . S
O124 Zn96 2.053 . S
O124 C102 1.244 1_556 S
C125 O103 1.259 . S
C125 O104 1.254 1_554 S
O126 Zn96 2.066 . S
O126 C98 1.256 . S
O127 C98 1.244 1_554 S
O127 Zn99 2.053 . S
Zn128 O129 2.055 . S
Zn128 O136 2.046 . S
Zn128 N144 2.036 . S
Zn128 O156 2.053 . S
Zn128 O158 2.066 . S
O129 Zn128 2.055 . S
O129 C132 1.259 . S
C130 O158 1.256 . S
C130 O159 1.244 . S
Zn131 O133 2.046 . S
Zn131 O135 2.055 . S
Zn131 N137 2.036 . S
Zn131 O155 2.066 . S
Zn131 O159 2.053 . S
C132 O129 1.259 . S
C132 O133 1.254 . S
O133 Zn131 2.046 . S
O133 C132 1.254 . S
C134 O155 1.256 . S
C134 O156 1.244 . S
O135 Zn131 2.055 . S
O135 C157 1.259 . S
O136 Zn128 2.046 . S
O136 C157 1.254 . S
N137 Zn131 2.036 . S
N137 C138 1.298 . S
N137 N140 1.398 . S
C138 N137 1.298 . S
C138 N141 1.367 1_554 S
C138 C151 1.481 . S
C139 N140 1.299 . S
C139 N141 1.379 1_554 S
N140 N137 1.398 . S
N140 C139 1.299 . S
N141 C138 1.367 1_556 S
N141 C139 1.379 1_556 S
C142 N144 1.298 . S
C142 N146 1.367 . S
C142 C150 1.481 . S
C143 N145 1.299 . S
C143 N146 1.379 . S
N144 Zn128 2.036 . S
N144 C142 1.298 . S
N144 N145 1.398 . S
N145 C143 1.299 . S
N145 N144 1.398 . S
N146 C142 1.367 . S
N146 C143 1.379 . S
H147 C150 0.980 . S
H148 C150 0.981 . S
H149 C150 0.981 . S
C150 C142 1.481 . S
C150 H147 0.980 . S
C150 H148 0.981 . S
C150 H149 0.981 . S
C151 C138 1.481 . S
C151 H152 0.980 . S
C151 H153 0.981 1_554 S
C151 H154 0.981 . S
H152 C151 0.980 . S
H153 C151 0.981 1_556 S
H154 C151 0.981 . S
O155 Zn131 2.066 . S
O155 C134 1.256 . S
O156 Zn128 2.053 . S
O156 C134 1.244 . S
C157 O135 1.259 . S
C157 O136 1.254 . S
O158 Zn128 2.066 . S
O158 C130 1.256 . S
O159 C130 1.244 . S
O159 Zn131 2.053 . S
Zn160 O161 2.055 . S
Zn160 O168 2.046 . S
Zn160 N176 2.036 . S
Zn160 O188 2.053 . S
Zn160 O190 2.066 . S
O161 Zn160 2.055 . S
O161 C164 1.259 . S
C162 O190 1.256 . S
C162 O191 1.244 . S
Zn163 O165 2.046 . S
Zn163 O167 2.055 . S
Zn163 N169 2.036 . S
Zn163 O187 2.066 . S
Zn163 O191 2.053 . S
C164 O161 1.259 . S
C164 O165 1.254 . S
O165 Zn163 2.046 . S
O165 C164 1.254 . S
C166 O187 1.256 . S
C166 O188 1.244 . S
O167 Zn163 2.055 . S
O167 C189 1.259 . S
O168 Zn160 2.046 . S
O168 C189 1.254 . S
N169 Zn163 2.036 . S
N169 C170 1.298 . S
N169 N172 1.398 . S
C170 N169 1.298 . S
C170 N173 1.367 1_556 S
C170 C183 1.481 . S
C171 N172 1.299 . S
C171 N173 1.379 1_556 S
N172 N169 1.398 . S
N172 C171 1.299 . S
N173 C170 1.367 1_554 S
N173 C171 1.379 1_554 S
C174 N176 1.298 . S
C174 N178 1.367 . S
C174 C182 1.481 . S
C175 N177 1.299 . S
C175 N178 1.379 . S
N176 Zn160 2.036 . S
N176 C174 1.298 . S
N176 N177 1.398 . S
N177 C175 1.299 . S
N177 N176 1.398 . S
N178 C174 1.367 . S
N178 C175 1.379 . S
H179 C182 0.980 . S
H180 C182 0.981 . S
H181 C182 0.981 . S
C182 C174 1.481 . S
C182 H179 0.980 . S
C182 H180 0.981 . S
C182 H181 0.981 . S
C183 C170 1.481 . S
C183 H184 0.980 . S
C183 H185 0.981 1_556 S
C183 H186 0.981 . S
H184 C183 0.980 . S
H185 C183 0.981 1_554 S
H186 C183 0.981 . S
O187 Zn163 2.066 . S
O187 C166 1.256 . S
O188 Zn160 2.053 . S
O188 C166 1.244 . S
C189 O167 1.259 . S
C189 O168 1.254 . S
O190 Zn160 2.066 . S
O190 C162 1.256 . S
O191 C162 1.244 . S
O191 Zn163 2.053 . S
C192 C193 1.387 . S
C192 H196 0.950 . S
C192 C201 1.390 . S
C193 C192 1.387 . S
C193 C195 1.387 . S
H194 C201 0.950 . S
C195 C193 1.387 . S
C195 C197 1.390 . S
C195 H199 0.950 . S
H196 C192 0.950 . S
C197 C195 1.390 . S
C197 C198 1.387 . S
C197 H200 0.950 . S
C198 C197 1.387 . S
C198 C201 1.387 . S
H199 C195 0.950 . S
H200 C197 0.950 . S
C201 C192 1.390 . S
C201 H194 0.950 . S
C201 C198 1.387 . S
C202 C203 1.387 1_655 S
C202 H206 0.950 . S
C202 C211 1.390 . S
C203 C202 1.387 1_455 S
C203 C205 1.387 . S
H204 C211 0.950 . S
C205 C203 1.387 . S
C205 C207 1.390 . S
C205 H209 0.950 . S
H206 C202 0.950 . S
C207 C205 1.390 . S
C207 C208 1.387 1_455 S
C207 H210 0.950 . S
C208 C207 1.387 1_655 S
C208 C211 1.387 . S
H209 C205 0.950 . S
H210 C207 0.950 . S
C211 C202 1.390 . S
C211 H204 0.950 . S
C211 C208 1.387 . S
C212 C213 1.387 . S
C212 H216 0.950 . S
C212 C221 1.390 1_545 S
C213 C212 1.387 . S
C213 C215 1.387 . S
H214 C221 0.950 . S
C215 C213 1.387 . S
C215 C217 1.390 1_545 S
C215 H219 0.950 . S
H216 C212 0.950 . S
C217 C215 1.390 1_565 S
C217 C218 1.387 . S
C217 H220 0.950 . S
C218 C217 1.387 . S
C218 C221 1.387 . S
H219 C215 0.950 . S
H220 C217 0.950 . S
C221 C212 1.390 1_565 S
C221 H214 0.950 . S
C221 C218 1.387 . S
C222 C223 1.387 . S
C222 H226 0.950 . S
C222 C231 1.390 . S
C223 C222 1.387 . S
C223 C225 1.387 . S
H224 C231 0.950 . S
C225 C223 1.387 . S
C225 C227 1.390 . S
C225 H229 0.950 . S
H226 C222 0.950 . S
C227 C225 1.390 . S
C227 C228 1.387 . S
C227 H230 0.950 . S
C228 C227 1.387 . S
C228 C231 1.387 . S
H229 C225 0.950 . S
H230 C227 0.950 . S
C231 C222 1.390 . S
C231 H224 0.950 . S
C231 C228 1.387 . S
C232 C233 1.387 . S
C232 H236 0.950 . S
C232 C241 1.390 . S
C233 C232 1.387 . S
C233 C235 1.387 1_455 S
H234 C241 0.950 . S
C235 C233 1.387 1_655 S
C235 C237 1.390 . S
C235 H239 0.950 . S
H236 C232 0.950 . S
C237 C235 1.390 . S
C237 C238 1.387 . S
C237 H240 0.950 . S
C238 C237 1.387 . S
C238 C241 1.387 1_655 S
H239 C235 0.950 . S
H240 C237 0.950 . S
C241 C232 1.390 . S
C241 H234 0.950 . S
C241 C238 1.387 1_455 S
C242 C243 1.387 . S
C242 H246 0.950 . S
C242 C251 1.390 1_545 S
C243 C242 1.387 . S
C243 C245 1.387 . S
H244 C251 0.950 . S
C245 C243 1.387 . S
C245 C247 1.390 1_545 S
C245 H249 0.950 . S
H246 C242 0.950 . S
C247 C245 1.390 1_565 S
C247 C248 1.387 . S
C247 H250 0.950 . S
C248 C247 1.387 . S
C248 C251 1.387 . S
H249 C245 0.950 . S
H250 C247 0.950 . S
C251 C242 1.390 1_565 S
C251 H244 0.950 . S
C251 C248 1.387 . S
C252 C253 1.387 . S
C252 H256 0.950 . S
C252 C261 1.390 . S
C253 C252 1.387 . S
C253 C255 1.387 . S
H254 C261 0.950 . S
C255 C253 1.387 . S
C255 C257 1.390 . S
C255 H259 0.950 . S
H256 C252 0.950 . S
C257 C255 1.390 . S
C257 C258 1.387 . S
C257 H260 0.950 . S
C258 C257 1.387 . S
C258 C261 1.387 . S
H259 C255 0.950 . S
H260 C257 0.950 . S
C261 C252 1.390 . S
C261 H254 0.950 . S
C261 C258 1.387 . S
C262 C263 1.387 . S
C262 H266 0.950 . S
C262 C271 1.390 . S
C263 C262 1.387 . S
C263 C265 1.387 . S
H264 C271 0.950 . S
C265 C263 1.387 . S
C265 C267 1.390 . S
C265 H269 0.950 . S
H266 C262 0.950 . S
C267 C265 1.390 . S
C267 C268 1.387 . S
C267 H270 0.950 . S
C268 C267 1.387 . S
C268 C271 1.387 . S
H269 C265 0.950 . S
H270 C267 0.950 . S
C271 C262 1.390 . S
C271 H264 0.950 . S
C271 C268 1.387 . S
C272 C273 1.387 . S
C272 H276 0.950 . S
C272 C281 1.390 . S
C273 C272 1.387 . S
C273 C275 1.387 . S
H274 C281 0.950 . S
C275 C273 1.387 . S
C275 C277 1.390 . S
C275 H279 0.950 . S
H276 C272 0.950 . S
C277 C275 1.390 . S
C277 C278 1.387 . S
C277 H280 0.950 . S
C278 C277 1.387 . S
C278 C281 1.387 . S
H279 C275 0.950 . S
H280 C277 0.950 . S
C281 C272 1.390 . S
C281 H274 0.950 . S
C281 C278 1.387 . S
C282 C283 1.387 . S
C282 H286 0.950 . S
C282 C291 1.390 . S
C283 C282 1.387 . S
C283 C285 1.387 . S
H284 C291 0.950 . S
C285 C283 1.387 . S
C285 C287 1.390 . S
C285 H289 0.950 . S
H286 C282 0.950 . S
C287 C285 1.390 . S
C287 C288 1.387 . S
C287 H290 0.950 . S
C288 C287 1.387 . S
C288 C291 1.387 . S
H289 C285 0.950 . S
H290 C287 0.950 . S
C291 C282 1.390 . S
C291 H284 0.950 . S
C291 C288 1.387 . S
C292 C293 1.387 . S
C292 H296 0.950 . S
C292 C301 1.390 . S
C293 C292 1.387 . S
C293 C295 1.387 . S
H294 C301 0.950 . S
C295 C293 1.387 . S
C295 C297 1.390 . S
C295 H299 0.950 . S
H296 C292 0.950 . S
C297 C295 1.390 . S
C297 C298 1.387 . S
C297 H300 0.950 . S
C298 C297 1.387 . S
C298 C301 1.387 . S
H299 C295 0.950 . S
H300 C297 0.950 . S
C301 C292 1.390 . S
C301 H294 0.950 . S
C301 C298 1.387 . S
C302 C303 1.387 . S
C302 H306 0.950 . S
C302 C311 1.390 . S
C303 C302 1.387 . S
C303 C305 1.387 . S
H304 C311 0.950 . S
C305 C303 1.387 . S
C305 C307 1.390 . S
C305 H309 0.950 . S
H306 C302 0.950 . S
C307 C305 1.390 . S
C307 C308 1.387 . S
C307 H310 0.950 . S
C308 C307 1.387 . S
C308 C311 1.387 . S
H309 C305 0.950 . S
H310 C307 0.950 . S
C311 C302 1.390 . S
C311 H304 0.950 . S
C311 C308 1.387 . S
C312 C313 1.387 . S
C312 H316 0.950 . S
C312 C321 1.390 . S
C313 C312 1.387 . S
C313 C315 1.387 . S
H314 C321 0.950 . S
C315 C313 1.387 . S
C315 C317 1.390 . S
C315 H319 0.950 . S
H316 C312 0.950 . S
C317 C315 1.390 . S
C317 C318 1.387 . S
C317 H320 0.950 . S
C318 C317 1.387 . S
C318 C321 1.387 . S
H319 C315 0.950 . S
H320 C317 0.950 . S
C321 C312 1.390 . S
C321 H314 0.950 . S
C321 C318 1.387 . S
C322 C323 1.387 . S
C322 H326 0.950 . S
C322 C331 1.390 . S
C323 C322 1.387 . S
C323 C325 1.387 . S
H324 C331 0.950 . S
C325 C323 1.387 . S
C325 C327 1.390 . S
C325 H329 0.950 . S
H326 C322 0.950 . S
C327 C325 1.390 . S
C327 C328 1.387 . S
C327 H330 0.950 . S
C328 C327 1.387 . S
C328 C331 1.387 . S
H329 C325 0.950 . S
H330 C327 0.950 . S
C331 C322 1.390 . S
C331 H324 0.950 . S
C331 C328 1.387 . S
C332 C333 1.387 . S
C332 H336 0.950 . S
C332 C341 1.390 . S
C333 C332 1.387 . S
C333 C335 1.387 . S
H334 C341 0.950 . S
C335 C333 1.387 . S
C335 C337 1.390 . S
C335 H339 0.950 . S
H336 C332 0.950 . S
C337 C335 1.390 . S
C337 C338 1.387 . S
C337 H340 0.950 . S
C338 C337 1.387 . S
C338 C341 1.387 . S
H339 C335 0.950 . S
H340 C337 0.950 . S
C341 C332 1.390 . S
C341 H334 0.950 . S
C341 C338 1.387 . S
C342 C343 1.387 . S
C342 H346 0.950 . S
C342 C351 1.390 . S
C343 C342 1.387 . S
C343 C345 1.387 . S
H344 C351 0.950 . S
C345 C343 1.387 . S
C345 C347 1.390 . S
C345 H349 0.950 . S
H346 C342 0.950 . S
C347 C345 1.390 . S
C347 C348 1.387 . S
C347 H350 0.950 . S
C348 C347 1.387 . S
C348 C351 1.387 . S
H349 C345 0.950 . S
H350 C347 0.950 . S
C351 C342 1.390 . S
C351 H344 0.950 . S
C351 C348 1.387 . S
C352 C353 1.387 . S
C352 H356 0.950 . S
C352 C361 1.390 . S
C353 C352 1.387 . S
C353 C355 1.387 . S
H354 C361 0.950 . S
C355 C353 1.387 . S
C355 C357 1.390 . S
C355 H359 0.950 . S
H356 C352 0.950 . S
C357 C355 1.390 . S
C357 C358 1.387 . S
C357 H360 0.950 . S
C358 C357 1.387 . S
C358 C361 1.387 . S
H359 C355 0.950 . S
H360 C357 0.950 . S
C361 C352 1.390 . S
C361 H354 0.950 . S
C361 C358 1.387 . S
C362 C363 1.387 . S
C362 H366 0.950 . S
C362 C371 1.390 . S
C363 C362 1.387 . S
C363 C365 1.387 . S
H364 C371 0.950 . S
C365 C363 1.387 . S
C365 C367 1.390 . S
C365 H369 0.950 . S
H366 C362 0.950 . S
C367 C365 1.390 . S
C367 C368 1.387 . S
C367 H370 0.950 . S
C368 C367 1.387 . S
C368 C371 1.387 . S
H369 C365 0.950 . S
H370 C367 0.950 . S
C371 C362 1.390 . S
C371 H364 0.950 . S
C371 C368 1.387 . S
C193 C166 1.508 . S
C198 C6 1.509 . S
C203 C2 1.510 . S
C208 C34 1.511 . S
C213 C38 1.511 . S
C218 C70 1.511 . S
C223 C66 1.509 . S
C228 C98 1.509 . S
C233 C134 1.511 . S
C238 C102 1.510 . S
C243 C162 1.509 . S
C248 C130 1.509 . S
C253 N13 1.631 . S
C258 N18 1.631 . S
C263 N50 1.631 . S
C268 N45 1.631 . S
C273 N77 1.632 . S
C278 N82 1.632 . S
C283 N114 1.631 . S
C288 N109 1.631 . S
C293 N146 1.634 . S
C298 N141 1.633 . S
C303 N178 1.632 . S
C308 N173 1.631 . S
C313 C4 1.625 . S
C318 C157 1.627 . S
C323 C61 1.625 . S
C328 C164 1.625 . S
C333 C29 1.625 . S
C338 C68 1.626 . S
C343 C36 1.625 . S
C348 C125 1.627 . S
C353 C132 1.627 . S
C358 C93 1.627 . S
C363 C100 1.627 . S
C368 C189 1.625 . S
