# Generated by pormake.
# Topology wkj, (6)-cn, num edge types: 1
# Building blocks:
#     Node 0, Type 0, BuildingBlock: BETDEL_clean_sbu_0, # of connection points: 6
#     Node 1, Type 0, BuildingBlock: BETDEL_clean_sbu_0, # of connection points: 6
#     Node 2, Type 0, BuildingBlock: BETDEL_clean_sbu_0, # of connection points: 6
#     Node 3, Type 0, BuildingBlock: BETDEL_clean_sbu_0, # of connection points: 6
#     Node 4, Type 0, BuildingBlock: BETDEL_clean_sbu_0, # of connection points: 6
#     Node 5, Type 0, BuildingBlock: BETDEL_clean_sbu_0, # of connection points: 6
#     Node 6, Type 0, BuildingBlock: BETDEL_clean_sbu_0, # of connection points: 6
#     Node 7, Type 0, BuildingBlock: BETDEL_clean_sbu_0, # of connection points: 6
#     Node 8, Type 0, BuildingBlock: BETDEL_clean_sbu_0, # of connection points: 6
#     Node 9, Type 0, BuildingBlock: BETDEL_clean_sbu_0, # of connection points: 6
#     Node 10, Type 0, BuildingBlock: BETDEL_clean_sbu_0, # of connection points: 6
#     Node 11, Type 0, BuildingBlock: BETDEL_clean_sbu_0, # of connection points: 6
#     Edge 12, Type (0, 0), BuildingBlock: KIFKEQ_clean_linker_1, # of connection points: 2
#     Edge 13, Type (0, 0), BuildingBlock: KIFKEQ_clean_linker_1, # of connection points: 2
#     Edge 14, Type (0, 0), BuildingBlock: KIFKEQ_clean_linker_1, # of connection points: 2
#     Edge 15, Type (0, 0), BuildingBlock: KIFKEQ_clean_linker_1, # of connection points: 2
#     Edge 16, Type (0, 0), BuildingBlock: KIFKEQ_clean_linker_1, # of connection points: 2
#     Edge 17, Type (0, 0), BuildingBlock: KIFKEQ_clean_linker_1, # of connection points: 2
#     Edge 18, Type (0, 0), BuildingBlock: KIFKEQ_clean_linker_1, # of connection points: 2
#     Edge 19, Type (0, 0), BuildingBlock: KIFKEQ_clean_linker_1, # of connection points: 2
#     Edge 20, Type (0, 0), BuildingBlock: KIFKEQ_clean_linker_1, # of connection points: 2
#     Edge 21, Type (0, 0), BuildingBlock: KIFKEQ_clean_linker_1, # of connection points: 2
#     Edge 22, Type (0, 0), BuildingBlock: KIFKEQ_clean_linker_1, # of connection points: 2
#     Edge 23, Type (0, 0), BuildingBlock: KIFKEQ_clean_linker_1, # of connection points: 2
#     Edge 24, Type (0, 0), BuildingBlock: KIFKEQ_clean_linker_1, # of connection points: 2
#     Edge 25, Type (0, 0), BuildingBlock: KIFKEQ_clean_linker_1, # of connection points: 2
#     Edge 26, Type (0, 0), BuildingBlock: KIFKEQ_clean_linker_1, # of connection points: 2
#     Edge 27, Type (0, 0), BuildingBlock: KIFKEQ_clean_linker_1, # of connection points: 2
#     Edge 28, Type (0, 0), BuildingBlock: KIFKEQ_clean_linker_1, # of connection points: 2
#     Edge 29, Type (0, 0), BuildingBlock: KIFKEQ_clean_linker_1, # of connection points: 2
#     Edge 30, Type (0, 0), BuildingBlock: KIFKEQ_clean_linker_1, # of connection points: 2
#     Edge 31, Type (0, 0), BuildingBlock: KIFKEQ_clean_linker_1, # of connection points: 2
#     Edge 32, Type (0, 0), BuildingBlock: KIFKEQ_clean_linker_1, # of connection points: 2
#     Edge 33, Type (0, 0), BuildingBlock: KIFKEQ_clean_linker_1, # of connection points: 2
#     Edge 34, Type (0, 0), BuildingBlock: KIFKEQ_clean_linker_1, # of connection points: 2
#     Edge 35, Type (0, 0), BuildingBlock: KIFKEQ_clean_linker_1, # of connection points: 2
#     Edge 36, Type (0, 0), BuildingBlock: KIFKEQ_clean_linker_1, # of connection points: 2
#     Edge 37, Type (0, 0), BuildingBlock: KIFKEQ_clean_linker_1, # of connection points: 2
#     Edge 38, Type (0, 0), BuildingBlock: KIFKEQ_clean_linker_1, # of connection points: 2
#     Edge 39, Type (0, 0), BuildingBlock: KIFKEQ_clean_linker_1, # of connection points: 2
#     Edge 40, Type (0, 0), BuildingBlock: KIFKEQ_clean_linker_1, # of connection points: 2
#     Edge 41, Type (0, 0), BuildingBlock: KIFKEQ_clean_linker_1, # of connection points: 2
#     Edge 42, Type (0, 0), BuildingBlock: KIFKEQ_clean_linker_1, # of connection points: 2
#     Edge 43, Type (0, 0), BuildingBlock: KIFKEQ_clean_linker_1, # of connection points: 2
#     Edge 44, Type (0, 0), BuildingBlock: KIFKEQ_clean_linker_1, # of connection points: 2
#     Edge 45, Type (0, 0), BuildingBlock: KIFKEQ_clean_linker_1, # of connection points: 2
#     Edge 46, Type (0, 0), BuildingBlock: KIFKEQ_clean_linker_1, # of connection points: 2
#     Edge 47, Type (0, 0), BuildingBlock: KIFKEQ_clean_linker_1, # of connection points: 2
# Relax obj value: 0.369
# Max RMSD: 0.192
# Mean RMSD: 0.192
data_MOF--net-wkj--node1-BETDEL_clean_sbu_0--edge1-KIFKEQ_clean_linker_1
_symmetry_space_group_name_H-M    P1
_symmetry_Int_Tables_number       1
_symmetry_cell_setting            triclinic
loop_
_symmetry_equiv_pos_as_xyz
'x, y, z'
_cell_length_a     48.549431
_cell_length_b     48.669498
_cell_length_c     26.988144
_cell_angle_alpha  90.049792
_cell_angle_beta   90.163699
_cell_angle_gamma 119.34454
loop_
_atom_site_label
_atom_site_type_symbol
_atom_site_fract_x
_atom_site_fract_y
_atom_site_fract_z
_atom_type_partial_charge
Dy0 Dy 0.4397 0.08083 0.28941 0.0
C1 C 0.54942 0.16402 0.1801 0.0
C2 C 0.39479 0.05383 0.36105 0.0
Dy3 Dy 0.50441 0.11965 0.23923 0.0
O4 O 0.3988 0.03827 0.32508 0.0
O5 O 0.41438 0.08361 0.35633 0.0
O6 O 0.42127 0.10699 0.2452 0.0
O7 O 0.46875 0.13009 0.26823 0.0
C8 C 0.44828 0.1328 0.24308 0.0
C9 C 0.49685 0.06898 0.28729 0.0
O10 O 0.51943 0.13799 0.31687 0.0
O11 O 0.47437 0.09815 0.35387 0.0
O12 O 0.54974 0.1391 0.19673 0.0
O13 O 0.5245 0.16463 0.19595 0.0
O14 O 0.52472 0.09335 0.28021 0.0
O15 O 0.47632 0.07189 0.26292 0.0
O16 O 0.42775 0.05333 0.21728 0.0
O17 O 0.47313 0.08932 0.17519 0.0
C18 C 0.50376 0.1221 0.35685 0.0
C19 C 0.4447 0.06336 0.17569 0.0
Dy20 Dy 0.33437 0.43586 0.70261 0.0
C21 C 0.3608 0.54236 0.58328 0.0
C22 C 0.31483 0.38464 0.76232 0.0
Dy23 Dy 0.3604 0.50126 0.65243 0.0
O24 O 0.30221 0.4027 0.76021 0.0
O25 O 0.33845 0.39464 0.73182 0.0
O26 O 0.28937 0.42076 0.66144 0.0
O27 O 0.316 0.46778 0.68589 0.0
C28 C 0.29191 0.44853 0.66193 0.0
C29 C 0.40408 0.49119 0.69222 0.0
O30 O 0.3616 0.5167 0.73193 0.0
O31 O 0.35566 0.47017 0.76675 0.0
O32 O 0.38436 0.54759 0.61226 0.0
O33 O 0.33658 0.51556 0.5949 0.0
O34 O 0.409 0.51952 0.68283 0.0
O35 O 0.3789 0.47074 0.67179 0.0
O36 O 0.34491 0.42227 0.62769 0.0
O37 O 0.35701 0.46933 0.58816 0.0
C38 C 0.36345 0.50045 0.77056 0.0
C39 C 0.35175 0.43977 0.58684 0.0
Dy40 Dy 0.89723 0.34894 0.97841 0.0
C41 C 0.80527 0.36704 0.87248 0.0
C42 C 0.92811 0.33399 1.04924 0.0
Dy43 Dy 0.85303 0.37126 0.93047 0.0
O44 O 0.89784 0.32198 1.04475 0.0
O45 O 0.94212 0.3536 1.01293 0.0
O46 O 0.87583 0.30602 0.93054 0.0
O47 O 0.84844 0.32634 0.95378 0.0
C48 C 0.84887 0.30544 0.92668 0.0
C49 C 0.89943 0.41456 0.9847 0.0
O50 O 0.83286 0.36359 1.00717 0.0
O51 O 0.87338 0.35822 1.04379 0.0
O52 O 0.82947 0.39336 0.88697 0.0
O53 O 0.80743 0.34329 0.88964 0.0
O54 O 0.87386 0.41609 0.97507 0.0
O55 O 0.90037 0.39337 0.95891 0.0
O56 O 0.92461 0.36895 0.90683 0.0
O57 O 0.88658 0.37747 0.86709 0.0
C58 C 0.84822 0.36217 1.04704 0.0
C59 C 0.91395 0.37713 0.86677 0.0
Dy60 Dy 0.52058 0.89296 0.29216 0.0
C61 C 0.41855 0.80325 0.17622 0.0
C62 C 0.5674 0.92647 0.35934 0.0
Dy63 Dy 0.45688 0.84931 0.24071 0.0
O64 O 0.55359 0.89623 0.35296 0.0
O65 O 0.5562 0.93878 0.32792 0.0
O66 O 0.54187 0.86895 0.24945 0.0
O67 O 0.49458 0.84298 0.27268 0.0
C68 C 0.51614 0.84186 0.24828 0.0
C69 C 0.45954 0.89867 0.28564 0.0
O70 O 0.44301 0.83105 0.31862 0.0
O71 O 0.48596 0.87371 0.35608 0.0
O72 O 0.41023 0.82077 0.20159 0.0
O73 O 0.44751 0.81081 0.18672 0.0
O74 O 0.43267 0.87303 0.2778 0.0
O75 O 0.4816 0.8975 0.26301 0.0
O76 O 0.53228 0.91849 0.21867 0.0
O77 O 0.48569 0.88298 0.17804 0.0
C78 C 0.45756 0.84815 0.35866 0.0
C79 C 0.51436 0.90867 0.17791 0.0
Dy80 Dy 0.64036 0.54462 0.69839 0.0
C81 C 0.60202 0.42982 0.58922 0.0
C82 C 0.65697 0.60019 0.74557 0.0
Dy83 Dy 0.61077 0.4807 0.64382 0.0
O84 O 0.67522 0.588 0.73928 0.0
O85 O 0.62962 0.58218 0.7251 0.0
O86 O 0.68341 0.53981 0.71297 0.0
O87 O 0.65723 0.52165 0.64772 0.0
C88 C 0.6799 0.52367 0.67291 0.0
C89 C 0.5701 0.4999 0.67072 0.0
O90 O 0.60763 0.46377 0.72416 0.0
O91 O 0.61942 0.51102 0.76327 0.0
O92 O 0.57967 0.43433 0.60692 0.0
O93 O 0.62914 0.45215 0.60501 0.0
O94 O 0.56679 0.48358 0.63063 0.0
O95 O 0.59428 0.50389 0.6934 0.0
O96 O 0.63343 0.55938 0.62118 0.0
O97 O 0.62037 0.51292 0.57872 0.0
C98 C 0.60942 0.48012 0.76526 0.0
C99 C 0.62678 0.54276 0.57919 0.0
Dy100 Dy 0.07697 0.61673 0.99045 0.0
C101 C 0.17643 0.61356 0.87846 0.0
C102 C 0.03102 0.61668 1.04812 0.0
Dy103 Dy 0.12517 0.60229 0.93367 0.0
O104 O 0.05711 0.64154 1.03551 0.0
O105 O 0.02929 0.5918 1.02706 0.0
O106 O 0.11248 0.66821 0.9871 0.0
O107 O 0.11014 0.6375 0.93022 0.0
C108 C 0.12527 0.66509 0.9469 0.0
C109 C 0.07984 0.55433 0.98279 0.0
O110 O 0.14888 0.61572 1.01009 0.0
O111 O 0.10773 0.61636 0.0535 0.0
O112 O 0.15368 0.58577 0.89063 0.0
O113 O 0.17159 0.63517 0.89835 0.0
O114 O 0.09377 0.54976 0.94484 0.0
O115 O 0.09292 0.58291 0.99317 0.0
O116 O 0.04963 0.59516 0.91873 0.0
O117 O 0.08928 0.59276 0.87308 0.0
C118 C 0.13582 0.61767 0.05268 0.0
C119 C 0.06028 0.58913 0.87667 0.0
Dy120 Dy 0.90611 0.52408 0.44821 0.0
C121 C 0.81841 0.41268 0.55254 0.0
C122 C 0.93563 0.5704 0.37936 0.0
Dy123 Dy 0.86488 0.4582 0.49712 0.0
O124 O 0.90545 0.55476 0.38712 0.0
O125 O 0.95013 0.56184 0.41124 0.0
O126 O 0.88413 0.54456 0.49796 0.0
O127 O 0.85792 0.49719 0.4744 0.0
C128 C 0.85799 0.51801 0.50229 0.0
C129 C 0.91339 0.46424 0.44351 0.0
O130 O 0.84422 0.44599 0.42052 0.0
O131 O 0.88385 0.49089 0.38273 0.0
O132 O 0.84537 0.41411 0.54296 0.0
O133 O 0.81718 0.43615 0.53214 0.0
O134 O 0.88819 0.43694 0.45028 0.0
O135 O 0.91212 0.48474 0.47032 0.0
O136 O 0.93416 0.53278 0.51913 0.0
O137 O 0.89649 0.48809 0.5611 0.0
C138 C 0.85886 0.46212 0.3802 0.0
C139 C 0.92355 0.5156 0.56041 0.0
Dy140 Dy 0.3443 0.90774 0.74488 0.0
C141 C 0.36099 0.81479 0.85294 0.0
C142 C 0.33355 0.94661 0.68517 0.0
Dy143 Dy 0.36778 0.86555 0.80111 0.0
O144 O 0.31475 0.91664 0.69072 0.0
O145 O 0.35798 0.95591 0.71433 0.0
O146 O 0.29462 0.86741 0.7496 0.0
O147 O 0.32782 0.8739 0.80471 0.0
C148 C 0.30047 0.85588 0.78889 0.0
C149 C 0.41179 0.91511 0.75218 0.0
O150 O 0.35693 0.84244 0.72432 0.0
O151 O 0.35412 0.88254 0.68149 0.0
O152 O 0.388 0.83889 0.84085 0.0
O153 O 0.33787 0.81844 0.83627 0.0
O154 O 0.41922 0.90104 0.78679 0.0
O155 O 0.38303 0.89911 0.74346 0.0
O156 O 0.36408 0.93597 0.81688 0.0
O157 O 0.37401 0.90034 0.8616 0.0
C158 C 0.35547 0.85571 0.68166 0.0
C159 C 0.37309 0.92728 0.85843 0.0
Dy160 Dy 0.41117 0.36067 0.14196 0.0
C161 C 0.5206 0.40338 0.26078 0.0
C162 C 0.36146 0.33996 0.07809 0.0
Dy163 Dy 0.4745 0.39739 0.19692 0.0
O164 O 0.37519 0.32399 0.09119 0.0
O165 O 0.37481 0.36722 0.10011 0.0
O166 O 0.39983 0.31874 0.18803 0.0
O167 O 0.44705 0.34965 0.16727 0.0
C168 C 0.42916 0.32535 0.1921 0.0
C169 C 0.45441 0.43285 0.14848 0.0
O170 O 0.49591 0.39774 0.12405 0.0
O171 O 0.44857 0.37512 0.08014 0.0
O172 O 0.51566 0.42647 0.24799 0.0
O173 O 0.50078 0.37768 0.23815 0.0
O174 O 0.48414 0.44217 0.15758 0.0
O175 O 0.43785 0.40722 0.1704 0.0
O176 O 0.39371 0.36994 0.21548 0.0
O177 O 0.44053 0.387 0.25971 0.0
C178 C 0.48017 0.38937 0.08159 0.0
C179 C 0.41009 0.37854 0.25799 0.0
Dy180 Dy 0.06995 0.45051 0.43591 0.0
C181 C 0.14574 0.56263 0.55009 0.0
C182 C 0.03663 0.39957 0.37512 0.0
Dy183 Dy 0.10418 0.51644 0.48934 0.0
O184 O 0.06697 0.417 0.37705 0.0
O185 O 0.02387 0.40892 0.40887 0.0
O186 O 0.11402 0.44677 0.44081 0.0
O187 O 0.10524 0.47255 0.49401 0.0
C188 C 0.12565 0.46629 0.47748 0.0
C189 C 0.06398 0.51187 0.41781 0.0
O190 O 0.13294 0.52629 0.41939 0.0
O191 O 0.09491 0.48453 0.37353 0.0
O192 O 0.11679 0.55665 0.54201 0.0
O193 O 0.15181 0.54353 0.5247 0.0
O194 O 0.08654 0.53895 0.43362 0.0
O195 O 0.0618 0.49019 0.44592 0.0
O196 O 0.0442 0.43666 0.51028 0.0
O197 O 0.06728 0.48699 0.5467 0.0
C198 C 0.12115 0.51225 0.37614 0.0
C199 C 0.04687 0.45603 0.54775 0.0
Dy200 Dy 0.61557 0.06163 0.75116 0.0
C201 C 0.59529 0.15157 0.85854 0.0
C202 C 0.62902 0.02751 0.68478 0.0
Dy203 Dy 0.59264 0.10488 0.8 0.0
O204 O 0.64399 0.05795 0.68883 0.0
O205 O 0.60728 0.01545 0.71857 0.0
O206 O 0.65931 0.0844 0.79779 0.0
O207 O 0.63756 0.11048 0.77466 0.0
C208 C 0.65922 0.11099 0.80109 0.0
C209 C 0.54974 0.05786 0.74609 0.0
O210 O 0.60156 0.12557 0.72348 0.0
O211 O 0.60478 0.08426 0.68544 0.0
O212 O 0.56943 0.12864 0.83997 0.0
O213 O 0.61942 0.1487 0.84533 0.0
O214 O 0.54828 0.08358 0.75414 0.0
O215 O 0.57093 0.0575 0.77276 0.0
O216 O 0.59769 0.03491 0.82341 0.0
O217 O 0.58675 0.07121 0.86308 0.0
C218 C 0.60181 0.11006 0.683 0.0
C219 C 0.58864 0.0447 0.8633 0.0
Dy220 Dy 0.5712 0.62616 0.13498 0.0
C221 C 0.46837 0.58143 0.26662 0.0
C222 C 0.61823 0.64821 0.06631 0.0
Dy223 Dy 0.50958 0.58734 0.19412 0.0
O224 O 0.60325 0.66271 0.08064 0.0
O225 O 0.60786 0.62181 0.09019 0.0
O226 O 0.58098 0.66823 0.17977 0.0
O227 O 0.53379 0.63452 0.16201 0.0
C228 C 0.55124 0.65967 0.18564 0.0
C229 C 0.53213 0.55293 0.1483 0.0
O230 O 0.4862 0.58845 0.12365 0.0
O231 O 0.53167 0.60854 0.07593 0.0
O232 O 0.46239 0.56013 0.23259 0.0
O233 O 0.49646 0.6052 0.26086 0.0
O234 O 0.50276 0.5413 0.16212 0.0
O235 O 0.54729 0.58019 0.16585 0.0
O236 O 0.59198 0.61973 0.20784 0.0
O237 O 0.54554 0.59827 0.25398 0.0
C238 C 0.50026 0.59502 0.07991 0.0
C239 C 0.57648 0.60971 0.25086 0.0
H240 H 0.49745 0.19213 0.26149 0.0
H241 H 0.40419 0.14199 0.1963 0.0
H242 H 0.49686 0.24199 0.25171 0.0
H243 H 0.40365 0.19144 0.1867 0.0
H244 H 0.39269 0.27196 0.24293 0.0
H245 H 0.40132 0.22711 0.25387 0.0
H246 H 0.49268 0.27878 0.18432 0.0
H247 H 0.48403 0.32405 0.17324 0.0
C248 C 0.47714 0.19186 0.24427 0.0
C249 C 0.45067 0.16325 0.23019 0.0
C250 C 0.47681 0.22031 0.23878 0.0
C251 C 0.44993 0.22034 0.21949 0.0
C252 C 0.42436 0.19191 0.20275 0.0
C253 C 0.42474 0.16367 0.20797 0.0
C254 C 0.41483 0.27396 0.23065 0.0
C255 C 0.43749 0.30122 0.20664 0.0
C256 C 0.41968 0.24826 0.23665 0.0
C257 C 0.44733 0.24933 0.21886 0.0
C258 C 0.4711 0.2774 0.19807 0.0
C259 C 0.46617 0.30323 0.19186 0.0
H260 H 0.25055 0.41352 0.59086 0.0
H261 H 0.286 0.50144 0.67072 0.0
H262 H 0.215 0.42554 0.5442 0.0
H263 H 0.25008 0.51374 0.62326 0.0
H264 H 0.14411 0.48722 0.57238 0.0
H265 H 0.18949 0.48951 0.61624 0.0
H266 H 0.21945 0.46486 0.48069 0.0
H267 H 0.17405 0.46203 0.4374 0.0
C268 C 0.25077 0.43551 0.59824 0.0
C269 C 0.27092 0.45661 0.63416 0.0
C270 C 0.23067 0.44256 0.57121 0.0
C271 C 0.23018 0.47078 0.57974 0.0
C272 C 0.25019 0.4919 0.616 0.0
C273 C 0.27063 0.48491 0.64295 0.0
C274 C 0.16088 0.48304 0.55193 0.0
C275 C 0.15544 0.47376 0.502 0.0
C276 C 0.18684 0.48449 0.57686 0.0
C277 C 0.20749 0.47674 0.5519 0.0
C278 C 0.20346 0.4703 0.5009 0.0
C279 C 0.17754 0.46867 0.47621 0.0
H280 H 0.84652 0.2587 0.86926 0.0
H281 H 0.78739 0.29093 0.9389 0.0
H282 H 0.79943 0.21158 0.83977 0.0
H283 H 0.74031 0.24422 0.90797 0.0
H284 H 0.67026 0.17124 0.79031 0.0
H285 H 0.71565 0.21945 0.82124 0.0
H286 H 0.75397 0.16418 0.88599 0.0
H287 H 0.70814 0.11587 0.85642 0.0
C288 C 0.82347 0.25587 0.87771 0.0
C289 C 0.82052 0.27853 0.90583 0.0
C290 C 0.79662 0.22893 0.86105 0.0
C291 C 0.76643 0.22441 0.87186 0.0
C292 C 0.76343 0.24742 0.89893 0.0
C293 C 0.79031 0.27417 0.91625 0.0
C294 C 0.68802 0.16937 0.81212 0.0
C295 C 0.6856 0.13989 0.8216 0.0
C296 C 0.71399 0.1969 0.8295 0.0
C297 C 0.73818 0.19535 0.85568 0.0
C298 C 0.73566 0.16588 0.86544 0.0
C299 C 0.70947 0.13833 0.84872 0.0
H300 H 0.58623 0.71381 0.23603 0.0
H301 H 0.49346 0.65599 0.1726 0.0
H302 H 0.5737 0.75575 0.25099 0.0
H303 H 0.48094 0.69849 0.18725 0.0
H304 H 0.47047 0.78093 0.26698 0.0
H305 H 0.47519 0.73334 0.25518 0.0
H306 H 0.56658 0.7898 0.18775 0.0
H307 H 0.56202 0.83693 0.1997 0.0
C308 C 0.56298 0.70995 0.22589 0.0
C309 C 0.54101 0.68198 0.2024 0.0
C310 C 0.55588 0.73399 0.23419 0.0
C311 C 0.52666 0.73059 0.21911 0.0
C312 C 0.5037 0.70171 0.19891 0.0
C313 C 0.51086 0.67749 0.19057 0.0
C314 C 0.4913 0.78295 0.249 0.0
C315 C 0.51612 0.81256 0.23489 0.0
C316 C 0.49398 0.75581 0.2423 0.0
C317 C 0.52156 0.75811 0.22163 0.0
C318 C 0.54542 0.78751 0.20495 0.0
C319 C 0.54273 0.81444 0.2115 0.0
H320 H 0.68265 0.50444 0.57975 0.0
H321 H 0.73097 0.52718 0.72102 0.0
H322 H 0.72472 0.4978 0.54355 0.0
H323 H 0.7733 0.52019 0.68476 0.0
H324 H 0.8594 0.55506 0.57807 0.0
H325 H 0.81465 0.55096 0.6248 0.0
H326 H 0.75174 0.46708 0.54214 0.0
H327 H 0.79647 0.47217 0.49386 0.0
C328 C 0.70195 0.50725 0.60337 0.0
C329 C 0.70368 0.51634 0.65313 0.0
C330 C 0.72602 0.50335 0.58266 0.0
C331 C 0.75234 0.50853 0.61131 0.0
C332 C 0.75343 0.51638 0.66171 0.0
C333 C 0.72925 0.5203 0.68246 0.0
C334 C 0.836 0.53565 0.57024 0.0
C335 C 0.83125 0.51386 0.53266 0.0
C336 C 0.81045 0.53306 0.59735 0.0
C337 C 0.7797 0.50864 0.5872 0.0
C338 C 0.77516 0.48626 0.55053 0.0
C339 C 0.80073 0.48897 0.52327 0.0
H340 H 0.26582 0.79939 0.74433 0.0
H341 H 0.28555 0.84642 0.88583 0.0
H342 H 0.22763 0.75017 0.78288 0.0
H343 H 0.24493 0.79865 0.92414 0.0
H344 H 0.17931 0.70714 0.99233 0.0
H345 H 0.22575 0.75013 0.95413 0.0
H346 H 0.17841 0.72395 0.81134 0.0
H347 H 0.13399 0.67907 0.84951 0.0
C348 C 0.26145 0.79906 0.78374 0.0
C349 C 0.27804 0.82634 0.81233 0.0
C350 C 0.23936 0.77099 0.80595 0.0
C351 C 0.2324 0.77011 0.85681 0.0
C352 C 0.24973 0.79776 0.88525 0.0
C353 C 0.27278 0.8254 0.86333 0.0
C354 C 0.17933 0.71066 0.95267 0.0
C355 C 0.15332 0.69037 0.92365 0.0
C356 C 0.20576 0.73546 0.93065 0.0
C357 C 0.20601 0.7413 0.87944 0.0
C358 C 0.17979 0.72026 0.85056 0.0
C359 C 0.15401 0.69468 0.87239 0.0
H360 H 0.54627 0.15701 0.89577 0.0
H361 H 0.64705 0.19448 0.90945 0.0
H362 H 0.54561 0.17993 0.97541 0.0
H363 H 0.64651 0.21773 0.98942 0.0
H364 H 0.54038 0.20507 0.1231 0.0
H365 H 0.56116 0.22159 1.03956 0.0
H366 H 0.62296 0.18208 0.06103 0.0
H367 H 0.60226 0.16574 0.14397 0.0
C368 C 0.56846 0.17124 0.91498 0.0
C369 C 0.5965 0.17322 0.89747 0.0
C370 C 0.5682 0.18469 0.96047 0.0
C371 C 0.59598 0.20012 0.98914 0.0
C372 C 0.62473 0.20558 0.96838 0.0
C373 C 0.62499 0.19221 0.92273 0.0
C374 C 0.55938 0.20117 0.11059 0.0
C375 C 0.56914 0.18333 0.13906 0.0
C376 C 0.57124 0.21063 0.06282 0.0
C377 C 0.5931 0.20248 1.04336 0.0
C378 C 0.60612 0.18875 0.07483 0.0
C379 C 0.59409 0.1791 0.12232 0.0
H380 H 0.40367 0.54725 0.27214 0.0
H381 H 0.48722 0.61091 0.35431 0.0
H382 H 0.37081 0.54471 0.34246 0.0
H383 H 0.45552 0.60657 0.42546 0.0
H384 H 0.40174 0.60209 0.55248 0.0
H385 H 0.42216 0.61676 0.46861 0.0
H386 H 0.35478 0.52285 0.4179 0.0
H387 H 0.33253 0.50997 0.49994 0.0
C388 C 0.41491 0.56045 0.3055 0.0
C389 C 0.44784 0.5791 0.30815 0.0
C390 C 0.39619 0.55901 0.34597 0.0
C391 C 0.41021 0.57545 0.39033 0.0
C392 C 0.44335 0.59428 0.39205 0.0
C393 C 0.46178 0.59642 0.35132 0.0
C394 C 0.39046 0.58529 0.52264 0.0
C395 C 0.36588 0.5549 0.53262 0.0
C396 C 0.40254 0.59333 0.47466 0.0
C397 C 0.39131 0.57054 0.43641 0.0
C398 C 0.36438 0.54123 0.44574 0.0
C399 C 0.35149 0.53372 0.49319 0.0
H400 H 0.79891 0.41427 0.83042 0.0
H401 H 0.76458 0.31406 0.82201 0.0
H402 H 0.78078 0.41358 0.7463 0.0
H403 H 0.74658 0.31336 0.73726 0.0
H404 H 0.76983 0.41781 0.59253 0.0
H405 H 0.74454 0.39561 0.67173 0.0
H406 H 0.79146 0.33971 0.67609 0.0
H407 H 0.81681 0.36207 0.59755 0.0
C408 C 0.78616 0.39186 0.81132 0.0
C409 C 0.7841 0.36448 0.83171 0.0
C410 C 0.77547 0.39134 0.76318 0.0
C411 C 0.76303 0.36349 0.73483 0.0
C412 C 0.75651 0.33518 0.75817 0.0
C413 C 0.76691 0.33565 0.80658 0.0
C414 C 0.77368 0.39981 0.60955 0.0
C415 C 0.79594 0.39223 0.59005 0.0
C416 C 0.75908 0.38703 0.6547 0.0
C417 C 0.76644 0.36639 0.68042 0.0
C418 C 0.7852 0.3555 0.65713 0.0
C419 C 0.80005 0.36854 0.61235 0.0
H420 H 0.39481 0.78439 0.86833 0.0
H421 H 0.31967 0.7971 0.92823 0.0
H422 H 0.39816 0.76062 0.94559 0.0
H423 H 0.32542 0.77781 1.00717 0.0
H424 H 0.35523 0.77474 0.15566 0.0
H425 H 0.33089 0.75694 0.07464 0.0
H426 H 0.42212 0.77751 1.01557 0.0
H427 H 0.44446 0.79118 0.0969 0.0
C428 C 0.37883 0.78175 0.8982 0.0
C429 C 0.35755 0.79312 0.89312 0.0
C430 C 0.38109 0.76872 0.94314 0.0
C431 C 0.36374 0.76905 0.98495 0.0
C432 C 0.33985 0.77722 0.97727 0.0
C433 C 0.3365 0.78862 0.93159 0.0
C434 C 0.3695 0.77424 0.12526 0.0
C435 C 0.40181 0.78511 0.13195 0.0
C436 C 0.35578 0.76459 0.07829 0.0
C437 C 0.3746 0.76748 1.0366 0.0
C438 C 0.40624 0.77499 1.0453 0.0
C439 C 0.41946 0.78322 0.09252 0.0
H440 H 0.56459 0.45468 0.31228 0.0
H441 H 0.52261 0.35347 0.30132 0.0
H442 H 0.59178 0.454 0.38847 0.0
H443 H 0.54921 0.35279 0.37793 0.0
H444 H 0.64534 0.44695 0.51559 0.0
H445 H 0.63206 0.43702 0.42765 0.0
H446 H 0.53624 0.36861 0.4655 0.0
H447 H 0.54919 0.37926 0.55336 0.0
C448 C 0.56181 0.43245 0.32552 0.0
C449 C 0.54135 0.40415 0.3013 0.0
C450 C 0.57747 0.43204 0.36885 0.0
C451 C 0.57252 0.40329 0.38888 0.0
C452 C 0.55343 0.3752 0.36311 0.0
C453 C 0.53822 0.37567 0.31939 0.0
C454 C 0.62184 0.42867 0.50522 0.0
C455 C 0.59812 0.41404 0.54116 0.0
C456 C 0.61423 0.42326 0.45487 0.0
C457 C 0.58307 0.40247 0.44002 0.0
C458 C 0.56047 0.38474 0.47607 0.0
C459 C 0.56789 0.39068 0.52635 0.0
H460 H 0.20393 0.66626 0.82121 0.0
H461 H 0.19033 0.57198 0.83364 0.0
H462 H 0.21271 0.66557 0.73235 0.0
H463 H 0.19934 0.57134 0.74527 0.0
H464 H 0.13785 0.60548 0.6039 0.0
H465 H 0.16446 0.63006 0.68124 0.0
H466 H 0.22652 0.59062 0.66336 0.0
H467 H 0.19985 0.56608 0.58555 0.0
C468 C 0.20453 0.64606 0.80547 0.0
C469 C 0.19556 0.61876 0.83376 0.0
C470 C 0.2094 0.64564 0.75454 0.0
C471 C 0.20582 0.6181 0.73174 0.0
C472 C 0.20214 0.59289 0.76168 0.0
C473 C 0.1969 0.59318 0.81241 0.0
C474 C 0.15787 0.60299 0.61565 0.0
C475 C 0.16646 0.58351 0.58943 0.0
C476 C 0.17338 0.61732 0.65971 0.0
C477 C 0.19749 0.61208 0.67851 0.0
C478 C 0.20798 0.59496 0.64977 0.0
C479 C 0.19267 0.5809 0.60536 0.0
H480 H 0.37856 0.91141 0.95433 0.0
H481 H 0.38873 -0.0097 0.8678 0.0
H482 H 0.39446 0.94407 1.02869 0.0
H483 H 0.40491 0.02328 0.94279 0.0
H484 H 0.46673 0.08013 0.07995 0.0
H485 H 0.44869 0.04844 1.00417 0.0
H486 H 0.37723 0.97085 0.0877 0.0
H487 H 0.39516 0.00258 0.16344 0.0
C488 C 0.38411 0.93576 0.95093 0.0
C489 C 0.3822 0.94793 0.90433 0.0
C490 C 0.39312 0.95458 0.99405 0.0
C491 C 0.40105 0.98658 0.99249 0.0
C492 C 0.39926 -0.00111 0.94588 0.0
C493 C 0.38974 0.97984 0.90267 0.0
C494 C 0.44703 0.05637 0.08233 0.0
C495 C 0.43255 0.04417 0.12848 0.0
C496 C 0.43652 0.03813 1.0385 0.0
C497 C 0.41141 0.00678 1.03914 0.0
C498 C 0.39681 -0.00533 0.08528 0.0
C499 C 0.40702 0.01306 0.12898 0.0
H500 H 0.42754 0.37374 0.35227 0.0
H501 H 0.36088 0.39139 0.27196 0.0
H502 H 0.41026 0.38558 0.43005 0.0
H503 H 0.34346 0.40349 0.35052 0.0
H504 H 0.3571 0.38664 0.5687 0.0
H505 H 0.36682 0.36827 0.48959 0.0
H506 H 0.36527 0.44579 0.4147 0.0
H507 H 0.3556 0.46414 0.49355 0.0
C508 C 0.4088 0.37973 0.35119 0.0
C509 C 0.39563 0.38151 0.30547 0.0
C510 C 0.39876 0.38644 0.39611 0.0
C511 C 0.37545 0.39567 0.39709 0.0
C512 C 0.36165 0.39674 0.35144 0.0
C513 C 0.37139 0.38948 0.3063 0.0
C514 C 0.35856 0.39966 0.53538 0.0
C515 C 0.35567 0.42705 0.53804 0.0
C516 C 0.36431 0.38919 0.48984 0.0
C517 C 0.36695 0.40549 0.44529 0.0
C518 C 0.36311 0.43233 0.44782 0.0
C519 C 0.35777 0.44302 0.49338 0.0
H520 H 0.01766 0.39514 0.58607 0.0
H521 H 0.02995 0.48768 0.6147 0.0
H522 H -0.01346 0.37571 0.66258 0.0
H523 H -0.00152 0.4682 0.68999 0.0
H524 H 0.91106 0.41346 0.79114 0.0
H525 H 0.94231 0.43132 0.71544 0.0
H526 H -0.00738 0.3826 0.7581 0.0
H527 H 0.96164 0.36518 0.83501 0.0
C528 C 0.01361 0.41134 0.60831 0.0
C529 C 0.02654 0.44311 0.59358 0.0
C530 C -0.00411 0.40022 0.65256 0.0
C531 C -0.01023 0.42025 0.68302 0.0
C532 C 0.00234 0.45185 0.66778 0.0
C533 C 0.0206 0.4631 0.62435 0.0
C534 C 0.92875 0.40644 0.7847 0.0
C535 C 0.93358 0.38773 0.81988 0.0
C536 C 0.94688 0.41688 0.74104 0.0
C537 C 0.97021 0.40853 0.73002 0.0
C538 C 0.97482 0.38944 0.76479 0.0
C539 C 0.9571 0.37954 0.80922 0.0
H540 H 0.57568 0.94838 0.14756 0.0
H541 H 0.47897 0.91331 0.10176 0.0
H542 H 0.59387 0.98019 0.07169 0.0
H543 H 0.49718 0.94593 1.027 0.0
H544 H 0.54655 0.04086 0.93456 0.0
H545 H 0.52887 0.00771 1.0087 0.0
H546 H 0.59035 0.97014 0.97262 0.0
H547 H 0.6073 0.00257 0.89717 0.0
C548 C 0.55825 0.94746 0.12148 0.0
C549 C 0.52576 0.92804 0.13115 0.0
C550 C 0.56873 0.96566 0.07777 0.0
C551 C 0.54707 0.96579 1.04295 0.0
C552 C 0.5146 0.9466 0.05286 0.0
C553 C 0.50415 0.92774 0.0958 0.0
C554 C 0.55638 0.02557 0.94223 0.0
C555 C 0.57848 0.02459 0.90943 0.0
C556 C 0.54607 0.00639 0.98481 0.0
C557 C 0.55812 0.98614 0.997 0.0
C558 C 0.58061 0.98548 0.96471 0.0
C559 C 0.59026 0.00404 0.92125 0.0
H560 H 0.62308 0.51929 0.48521 0.0
H561 H 0.62748 0.59918 0.56202 0.0
H562 H 0.61689 0.54021 0.40653 0.0
H563 H 0.62147 0.62029 0.48288 0.0
H564 H 0.56334 0.61998 0.34436 0.0
H565 H 0.57987 0.60751 0.42237 0.0
H566 H 0.64074 0.58148 0.34298 0.0
H567 H 0.62388 0.5941 0.26412 0.0
C568 C 0.62306 0.54153 0.48545 0.0
C569 C 0.62564 0.55734 0.53056 0.0
C570 C 0.61974 0.55371 0.43994 0.0
C571 C 0.61857 0.58203 0.43779 0.0
C572 C 0.62192 0.59827 0.48278 0.0
C573 C 0.62555 0.58621 0.52836 0.0
C574 C 0.58084 0.6123 0.34345 0.0
C575 C 0.59237 0.60825 0.29772 0.0
C576 C 0.59042 0.60516 0.38847 0.0
C577 C 0.6116 0.59323 0.38955 0.0
C578 C 0.62416 0.5903 0.34385 0.0
C579 C 0.61485 0.59794 0.29854 0.0
H580 H -0.00374 0.56954 0.86755 0.0
H581 H 0.07701 0.58448 0.78095 0.0
H582 H 0.96327 0.55218 0.79266 0.0
H583 H 0.0442 0.56717 0.70663 0.0
H584 H 0.98422 0.56518 0.57278 0.0
H585 H 0.01614 0.5828 0.64832 0.0
H586 H 0.93956 0.50934 0.73093 0.0
H587 H 0.90756 0.49173 0.65535 0.0
C588 C 0.00709 0.56921 0.83269 0.0
C589 C 0.03955 0.57859 0.8309 0.0
C590 C -0.01196 0.55902 0.78955 0.0
C591 C 0.00085 0.55823 0.74296 0.0
C592 C 0.03333 0.56774 0.7413 0.0
C593 C 0.05223 0.57756 0.78436 0.0
C594 C 0.97403 0.55275 0.60697 0.0
C595 C 0.94306 0.52691 0.60735 0.0
C596 C -0.00747 0.56279 0.65054 0.0
C597 C 0.9807 0.54762 0.69635 0.0
C598 C 0.94959 0.52197 0.69683 0.0
C599 C 0.9312 0.51171 0.65313 0.0
H600 H 0.53526 0.07086 0.36363 0.0
H601 H 0.43945 0.02054 0.30896 0.0
H602 H 0.52307 0.02845 0.42285 0.0
H603 H 0.42703 0.97946 0.36838 0.0
H604 H 0.41864 0.89554 0.35847 0.0
H605 H 0.42756 0.93806 0.41618 0.0
H606 H 0.5241 -0.00887 0.36475 0.0
H607 H 0.51407 0.95083 0.30543 0.0
C608 C 0.51147 0.05106 0.36502 0.0
C609 C 0.48883 0.04745 0.32939 0.0
C610 C 0.50414 0.02735 0.40008 0.0
C611 C 0.47514 -0.00094 0.39634 0.0
C612 C 0.45049 -0.00022 0.36984 0.0
C613 C 0.45768 0.02311 0.33471 0.0
C614 C 0.44174 0.91638 0.3602 0.0
C615 C 0.46533 0.92091 0.32606 0.0
C616 C 0.44717 0.94022 0.39426 0.0
C617 C 0.47583 0.96898 0.39284 0.0
C618 C 0.50116 0.97008 0.36589 0.0
C619 C 0.49547 0.94697 0.33111 0.0
H620 H 0.44784 0.53346 0.75593 0.0
H621 H 0.39432 0.43394 0.7238 0.0
H622 H 0.48468 0.52446 0.80438 0.0
H623 H 0.43007 0.42499 0.77575 0.0
H624 H 0.50876 0.46203 0.64672 0.0
H625 H 0.4638 0.44708 0.69872 0.0
H626 H 0.5244 0.50782 0.81592 0.0
H627 H 0.57008 0.523 0.76234 0.0
C628 C 0.44341 0.50952 0.76047 0.0
C629 C 0.42001 0.4846 0.73268 0.0
C630 C 0.46386 0.5041 0.78981 0.0
C631 C 0.46244 0.47464 0.78633 0.0
C632 C 0.43307 0.44856 0.77422 0.0
C633 C 0.41293 0.45366 0.74335 0.0
C634 C 0.51252 0.47233 0.68342 0.0
C635 C 0.54265 0.4943 0.69998 0.0
C636 C 0.48678 0.46302 0.71428 0.0
C637 C 0.4904 0.476 0.76231 0.0
C638 C 0.52087 0.49718 0.77952 0.0
C639 C 0.54679 0.50642 0.74844 0.0
H640 H 0.91587 0.47249 1.02231 0.0
H641 H 0.92971 0.39249 1.04313 0.0
H642 H 0.96345 0.50454 0.07065 0.0
H643 H 0.9751 0.42319 0.09494 0.0
H644 H 0.05339 0.49082 0.97396 0.0
H645 H 0.00963 0.45204 1.02199 0.0
H646 H 0.01475 0.52549 0.11853 0.0
H647 H 0.05913 0.56412 0.07091 0.0
C648 C 0.92816 0.46137 1.03925 0.0
C649 C 0.92066 0.43065 1.02634 0.0
C650 C 0.95496 0.47943 0.06816 0.0
C651 C 0.97416 0.46658 0.08306 0.0
C652 C 0.96145 0.43388 0.08169 0.0
C653 C 0.9358 0.41636 0.05089 0.0
C654 C 0.04577 0.49846 1.00632 0.0
C655 C 0.05825 0.53037 1.01713 0.0
C656 C 0.02108 0.47626 1.03472 0.0
C657 C 0.00819 0.48599 0.07341 0.0
C658 C 0.02397 0.51749 0.08864 0.0
C659 C 0.04891 0.53961 0.06053 0.0
H660 H 0.02906 0.45605 0.36974 0.0
H661 H 0.06884 0.55606 0.34899 0.0
H662 H -0.00683 0.44635 0.3014 0.0
H663 H 0.03058 0.54544 0.28208 0.0
H664 H 0.9068 0.4285 0.36022 0.0
H665 H 0.94353 0.44426 0.29015 0.0
H666 H -0.00344 0.53759 0.35479 0.0
H667 H 0.96344 0.52019 0.42591 0.0
C668 C 0.03007 0.47591 0.3507 0.0
C669 C 0.04897 0.50668 0.3686 0.0
C670 C 0.01002 0.4706 0.31045 0.0
C671 C 0.00451 0.49529 0.29641 0.0
C672 C 0.03121 0.52567 0.29937 0.0
C673 C 0.05235 0.53189 0.33896 0.0
C674 C 0.92671 0.45219 0.3591 0.0
C675 C 0.93325 0.47291 0.39916 0.0
C676 C 0.94711 0.46159 0.31831 0.0
C677 C 0.97449 0.49161 0.31785 0.0
C678 C 0.97704 0.5137 0.35404 0.0
C679 C 0.95791 0.50385 0.39545 0.0
H680 H 0.4156 0.96677 0.71135 0.0
H681 H 0.44844 0.89966 0.69606 0.0
H682 H 0.44963 -0.0021 0.64502 0.0
H683 H 0.48304 0.93066 0.62823 0.0
H684 H 0.52192 0.06859 0.66484 0.0
H685 H 0.4942 0.0308 0.59809 0.0
H686 H 0.53028 0.97165 0.65267 0.0
H687 H 0.5539 0.00638 0.72218 0.0
C688 C 0.43056 0.95899 0.69364 0.0
C689 C 0.43246 0.93317 0.71192 0.0
C690 C 0.44966 0.97632 0.6545 0.0
C691 C 0.47228 0.96893 0.63515 0.0
C692 C 0.46818 0.93873 0.64559 0.0
C693 C 0.44931 0.92153 0.68538 0.0
C694 C 0.52345 0.04716 0.66277 0.0
C695 C 0.53778 0.0389 0.70089 0.0
C696 C 0.50867 0.02609 0.62353 0.0
C697 C 0.50499 -0.00445 0.62693 0.0
C698 C 0.52846 -0.00708 0.65389 0.0
C699 C 0.54215 0.0128 0.69427 0.0
H700 H 0.55354 0.57848 0.05322 0.0
H701 H 0.53563 0.49847 0.14176 0.0
H702 H 0.51963 0.54343 0.98753 0.0
H703 H 0.51244 0.46483 0.06964 0.0
H704 H 0.43085 0.40792 0.05325 0.0
H705 H 0.46203 0.44346 0.98677 0.0
H706 H 0.47174 0.52137 0.07408 0.0
H707 H 0.45048 0.4871 0.14576 0.0
C708 C 0.54294 0.55353 0.05826 0.0
C709 C 0.54151 0.54051 0.1053 0.0
C710 C 0.52535 0.53353 1.01925 0.0
C711 C 0.50892 0.50094 1.02778 0.0
C712 C 0.52141 0.48989 0.06524 0.0
C713 C 0.53483 0.50909 0.10693 0.0
C714 C 0.44132 0.43279 0.0592 0.0
C715 C 0.44391 0.44547 0.10699 0.0
C716 C 0.45732 0.45307 1.01983 0.0
C717 C 0.47387 0.48559 1.02905 0.0
C718 C 0.46264 0.49635 0.06868 0.0
C719 C 0.45045 0.4768 0.11017 0.0
H720 H 0.35695 0.0101 0.67355 0.0
H721 H 0.3098 0.92121 0.59607 0.0
H722 H 0.3632 0.03782 0.59566 0.0
H723 H 0.31914 0.94814 0.51805 0.0
H724 H 0.33906 -0.00108 0.37595 0.0
H725 H 0.31567 0.97552 0.4556 0.0
H726 H 0.39428 0.05367 0.53045 0.0
H727 H 0.41479 0.07796 0.45169 0.0
C728 C 0.34782 -0.00341 0.63971 0.0
C729 C 0.333 0.96367 0.64062 0.0
C730 C 0.35183 0.01237 0.5947 0.0
C731 C 0.34266 -0.00444 0.54936 0.0
C732 C 0.32633 0.96239 0.55131 0.0
C733 C 0.32109 0.94672 0.5964 0.0
C734 C 0.35064 0.01115 0.40981 0.0
C735 C 0.37857 0.04013 0.40792 0.0
C736 C 0.33757 -0.00233 0.4557 0.0
C737 C 0.35309 0.01219 0.50055 0.0
C738 C 0.38078 0.0417 0.49778 0.0
C739 C 0.39294 0.05567 0.4522 0.0
H740 H 0.34523 0.29267 1.01089 0.0
H741 H 0.32873 0.3693 0.05088 0.0
H742 H 0.32041 0.28856 0.93017 0.0
H743 H 0.30404 0.36527 0.97085 0.0
H744 H 0.34791 0.35463 0.78548 0.0
H745 H 0.34571 0.32914 0.86407 0.0
H746 H 0.26375 0.3365 0.90617 0.0
H747 H 0.26632 0.36248 0.82767 0.0
C748 C 0.33528 0.30785 1.00305 0.0
C749 C 0.33932 0.33171 1.03643 0.0
C750 C 0.32115 0.30552 0.95692 0.0
C751 C 0.31062 0.32679 0.94401 0.0
C752 C 0.31166 0.34833 0.97976 0.0
C753 C 0.32604 0.35086 1.02552 0.0
C754 C 0.32874 0.34971 0.81075 0.0
C755 C 0.30781 0.36118 0.80137 0.0
C756 C 0.3273 0.33489 0.85566 0.0
C757 C 0.30489 0.33141 0.89162 0.0
C758 C 0.28155 0.33937 0.87939 0.0
C759 C 0.28305 0.35424 0.83455 0.0
H760 H -0.01255 0.34215 0.06727 0.0
H761 H 0.90215 0.32755 0.13914 0.0
H762 H 0.0125 0.34816 0.14804 0.0
H763 H 0.92754 0.33708 0.21874 0.0
H764 H 0.97437 0.35374 0.36404 0.0
H765 H 0.94775 0.32868 0.28666 0.0
H766 H 0.03625 0.38232 0.20839 0.0
H767 H 0.0626 0.40392 0.28566 0.0
C768 C 0.97414 0.34022 0.10048 0.0
C769 C 0.94296 0.33434 0.09707 0.0
C770 C -0.01145 0.34414 0.14702 0.0
C771 C 0.97255 0.34384 0.19101 0.0
C772 C 0.94088 0.33694 0.18685 0.0
C773 C 0.92621 0.33172 0.1407 0.0
C774 C -0.01199 0.35927 0.33021 0.0
C775 C 0.02044 0.38072 0.33082 0.0
C776 C 0.97276 0.34534 0.28544 0.0
C777 C -0.01059 0.35374 0.24001 0.0
C778 C 0.02223 0.37439 0.24171 0.0
C779 C 0.03752 0.3872 0.28647 0.0
H780 H 0.59193 0.96528 0.66252 0.0
H781 H 0.66774 0.05244 0.60553 0.0
H782 H 0.58515 0.94104 0.58094 0.0
H783 H 0.66096 0.02822 0.52388 0.0
H784 H 0.58592 0.90082 0.43258 0.0
H785 H 0.60913 0.92466 0.51247 0.0
H786 H 0.61539 0.01223 0.46474 0.0
H787 H 0.59216 -0.01164 0.38486 0.0
C788 C 0.60781 0.9789 0.63296 0.0
C789 C 0.63019 0.01073 0.64014 0.0
C790 C 0.60397 0.96506 0.58625 0.0
C791 C 0.62234 0.9829 0.54596 0.0
C792 C 0.64627 0.01407 0.55416 0.0
C793 C 0.65025 0.02783 0.60093 0.0
C794 C 0.59297 0.92539 0.43877 0.0
C795 C 0.5871 0.94275 0.40278 0.0
C796 C 0.60611 0.93895 0.48453 0.0
C797 C 0.61385 0.97019 0.49493 0.0
C798 C 0.60995 -0.01182 0.4576 0.0
C799 C 0.59658 0.97453 0.41192 0.0
H800 H 0.65353 0.62233 1.0351 0.0
H801 H 0.62594 0.69146 0.99604 0.0
H802 H 0.67426 0.62558 0.95199 0.0
H803 H 0.64642 0.69448 0.9123 0.0
H804 H 0.61802 0.6231 0.77217 0.0
H805 H 0.62029 0.64923 0.85033 0.0
H806 H 0.71122 0.65741 0.88243 0.0
H807 H 0.70899 0.63132 0.80402 0.0
C808 C 0.6529 0.63899 1.00918 0.0
C809 C 0.63783 0.6563 1.02157 0.0
C810 C 0.66494 0.64105 0.96165 0.0
C811 C 0.66171 0.66014 0.9256 0.0
C812 C 0.64907 0.67951 0.93938 0.0
C813 C 0.63743 0.67779 0.98724 0.0
C814 C 0.63906 0.63166 0.79495 0.0
C815 C 0.66297 0.6246 0.78278 0.0
C816 C 0.64047 0.64677 0.83964 0.0
C817 C 0.66571 0.6548 0.87278 0.0
C818 C 0.69135 0.65109 0.85774 0.0
C819 C 0.69006 0.63621 0.81287 0.0
H820 H 0.04431 0.66383 0.11384 0.0
H821 H 0.97607 0.56697 0.08077 0.0
H822 H 0.0203 0.6588 0.19526 0.0
H823 H 0.95149 0.56237 0.16175 0.0
H824 H 0.90403 0.57537 0.3 0.0
H825 H 0.92448 0.59123 0.21614 0.0
H826 H 0.01833 0.61774 0.26837 0.0
H827 H -0.00222 0.60096 0.35232 0.0
C828 C 0.02355 0.6418 0.12332 0.0
C829 C 0.012 0.61573 0.09113 0.0
C830 C 0.01001 0.63894 0.16994 0.0
C831 C 0.98425 0.61023 0.18453 0.0
C832 C 0.97126 0.58482 0.15101 0.0
C833 C 0.98523 0.58746 0.10477 0.0
C834 C 0.92917 0.58535 0.29391 0.0
C835 C 0.94939 0.58694 0.33258 0.0
C836 C 0.94075 0.59423 0.24591 0.0
C837 C 0.97283 0.60554 0.23609 0.0
C838 C -0.00651 0.60927 0.27534 0.0
C839 C 0.98179 0.59978 0.32325 0.0
H840 H 0.56729 0.14494 0.37287 0.0
H841 H 0.47865 0.1086 0.45031 0.0
H842 H 0.59366 0.14516 0.45071 0.0
H843 H 0.50518 0.10964 0.52815 0.0
H844 H 0.61011 0.09297 0.58927 0.0
H845 H 0.58869 0.10001 0.51091 0.0
H846 H 0.5492 0.15027 0.58788 0.0
H847 H 0.57121 0.14399 0.66599 0.0
C848 C 0.55355 0.13778 0.40663 0.0
C849 C 0.52083 0.1271 0.4052 0.0
C850 C 0.56863 0.13759 0.4512 0.0
C851 C 0.55158 0.12744 0.4958 0.0
C852 C 0.51912 0.11786 0.49466 0.0
C853 C 0.5039 0.11731 0.44996 0.0
C854 C 0.59748 0.10615 0.58941 0.0
C855 C 0.59279 0.11819 0.63419 0.0
C856 C 0.58515 0.11016 0.54441 0.0
C857 C 0.56713 0.12566 0.543 0.0
C858 C 0.56287 0.13814 0.58757 0.0
C859 C 0.5758 0.13477 0.63237 0.0
H860 H 0.40724 0.56339 0.78458 0.0
H861 H 0.35903 0.475 0.86264 0.0
H862 H 0.44034 0.58803 0.85799 0.0
H863 H 0.39173 0.4995 0.93563 0.0
H864 H 0.43564 0.55918 0.07437 0.0
H865 H 0.40203 0.53864 1.00137 0.0
H866 H 0.48376 0.58562 0.90729 0.0
H867 H 0.51778 0.60619 0.98088 0.0
C868 C 0.40308 0.54936 0.8177 0.0
C869 C 0.37994 0.5172 0.81756 0.0
C870 C 0.42246 0.5634 0.85967 0.0
C871 C 0.41892 0.54588 0.90315 0.0
C872 C 0.39511 0.51399 0.90333 0.0
C873 C 0.37619 0.49988 0.86126 0.0
C874 C 0.44665 0.56556 1.03827 0.0
C875 C 0.4797 0.58471 1.03409 0.0
C876 C 0.42722 0.55347 0.99613 0.0
C877 C 0.43994 0.5603 0.948 0.0
C878 C 0.47292 0.58003 0.94357 0.0
C879 C 0.49252 0.59184 0.98593 0.0
H880 H 0.86054 0.34666 0.13884 0.0
H881 H 0.82298 0.40057 0.0673 0.0
H882 H 0.85868 0.36931 0.2189 0.0
H883 H 0.82172 0.42371 0.1474 0.0
H884 H 0.87364 0.48863 0.28744 0.0
H885 H 0.866 0.46184 0.20764 0.0
H886 H 0.81956 0.37182 0.28136 0.0
H887 H 0.8266 0.39849 0.36111 0.0
C888 C 0.85125 0.36284 0.1403 0.0
C889 C 0.84154 0.37142 0.09652 0.0
C890 C 0.85023 0.37588 0.18626 0.0
C891 C 0.84016 0.39845 0.18967 0.0
C892 C 0.82972 0.4065 0.14611 0.0
C893 C 0.8301 0.39292 0.10024 0.0
C894 C 0.86121 0.4631 0.28663 0.0
C895 C 0.85049 0.44581 0.33093 0.0
C896 C 0.85682 0.44773 0.24078 0.0
C897 C 0.84218 0.41463 0.23799 0.0
C898 C 0.831 0.39732 0.28214 0.0
C899 C 0.83481 0.41266 0.32787 0.0
H900 H 0.48236 0.8644 0.45239 0.0
H901 H 0.39332 0.81949 0.37412 0.0
H902 H 0.45472 0.8611 0.5297 0.0
H903 H 0.36568 0.81678 0.45151 0.0
H904 H 0.39185 0.82723 0.66872 0.0
H905 H 0.41484 0.82127 0.59148 0.0
H906 H 0.36407 0.85836 0.50929 0.0
H907 H 0.3416 0.86495 0.58659 0.0
C908 C 0.45681 0.85332 0.45175 0.0
C909 C 0.44014 0.84188 0.40684 0.0
C910 C 0.44093 0.85141 0.49623 0.0
C911 C 0.40789 0.83868 0.49709 0.0
C912 C 0.39112 0.8268 0.45233 0.0
C913 C 0.40697 0.82807 0.40797 0.0
C914 C 0.38492 0.83338 0.63411 0.0
C915 C 0.36448 0.84625 0.63409 0.0
C916 C 0.39844 0.8303 0.58978 0.0
C917 C 0.39142 0.83937 0.54393 0.0
C918 C 0.36985 0.85086 0.54369 0.0
C919 C 0.35689 0.8546 0.58811 0.0
H920 H 0.61868 0.50456 0.8591 0.0
H921 H 0.56199 0.41833 0.77812 0.0
H922 H 0.58749 0.48092 0.93327 0.0
H923 H 0.53051 0.39445 0.85288 0.0
H924 H 0.45926 0.37898 0.98363 0.0
H925 H 0.49103 0.39842 0.90798 0.0
H926 H 0.57605 0.44137 0.99655 0.0
H927 H 0.54469 0.42215 0.07144 0.0
C928 C 0.59993 0.48027 0.85725 0.0
C929 C 0.59338 0.46336 0.81235 0.0
C930 C 0.58188 0.46663 0.90007 0.0
C931 C 0.55622 0.43559 0.89964 0.0
C932 C 0.54985 0.41843 0.85489 0.0
C933 C 0.56827 0.43201 0.81204 0.0
C934 C 0.48475 0.3922 0.98699 0.0
C935 C 0.49913 0.39867 1.03424 0.0
C936 C 0.50307 0.40337 0.94341 0.0
C937 C 0.53635 0.42172 0.94565 0.0
C938 C 0.5506 0.42774 0.99288 0.0
C939 C 0.53243 0.41638 1.03616 0.0
H940 H 0.11181 0.48956 0.28103 0.0
H941 H 0.15632 0.57649 0.36441 0.0
H942 H 0.12341 0.51945 0.20397 0.0
H943 H 0.16758 0.6064 0.28716 0.0
H944 H 0.16411 0.58158 0.06879 0.0
H945 H 0.16704 0.55813 0.14755 0.0
H946 H 0.13225 0.61276 0.22416 0.0
H947 H 0.12895 0.63583 0.14551 0.0
C948 C 0.12471 0.51507 0.28294 0.0
C949 C 0.1333 0.53052 0.32916 0.0
C950 C 0.13141 0.53225 0.23862 0.0
C951 C 0.14642 0.56541 0.23918 0.0
C952 C 0.15591 0.58091 0.28529 0.0
C953 C 0.14969 0.56372 0.32962 0.0
C954 C 0.15822 0.58949 0.10262 0.0
C955 C 0.14659 0.6109 0.10072 0.0
C956 C 0.15945 0.57567 0.14776 0.0
C957 C 0.14965 0.58332 0.1923 0.0
C958 C 0.14021 0.60643 0.19079 0.0
C959 C 0.13843 0.61978 0.14562 0.0
loop_
_geom_bond_atom_site_label_1
_geom_bond_atom_site_label_2
_geom_bond_distance
_geom_bond_site_symmetry_2
_ccdc_geom_bond_type
Dy0 O4 2.398 . S
Dy0 O5 2.491 . S
Dy0 O6 2.403 . S
Dy0 O7 2.664 . S
Dy0 O11 2.326 . S
Dy0 O15 2.310 . S
Dy0 O16 2.351 . S
C1 O12 1.185 . S
C1 O13 1.355 . S
C2 O4 1.185 . S
C2 O5 1.355 . S
Dy3 O7 2.310 . S
Dy3 O10 2.351 . S
Dy3 O12 2.398 . S
Dy3 O13 2.491 . S
Dy3 O14 2.403 . S
Dy3 O15 2.664 . S
Dy3 O17 2.326 . S
O4 Dy0 2.398 . S
O4 C2 1.185 . S
O5 Dy0 2.491 . S
O5 C2 1.355 . S
O6 Dy0 2.403 . S
O6 C8 1.254 . S
O7 Dy0 2.664 . S
O7 Dy3 2.310 . S
O7 C8 1.268 . S
C8 O6 1.254 . S
C8 O7 1.268 . S
C9 O14 1.254 . S
C9 O15 1.268 . S
O10 Dy3 2.351 . S
O10 C18 1.249 . S
O11 Dy0 2.326 . S
O11 C18 1.267 . S
O12 C1 1.185 . S
O12 Dy3 2.398 . S
O13 C1 1.355 . S
O13 Dy3 2.491 . S
O14 Dy3 2.403 . S
O14 C9 1.254 . S
O15 Dy0 2.310 . S
O15 Dy3 2.664 . S
O15 C9 1.268 . S
O16 Dy0 2.351 . S
O16 C19 1.249 . S
O17 Dy3 2.326 . S
O17 C19 1.267 . S
C18 O10 1.249 . S
C18 O11 1.267 . S
C19 O16 1.249 . S
C19 O17 1.267 . S
Dy20 O24 2.398 . S
Dy20 O25 2.491 . S
Dy20 O26 2.403 . S
Dy20 O27 2.664 . S
Dy20 O31 2.326 . S
Dy20 O35 2.310 . S
Dy20 O36 2.351 . S
C21 O32 1.185 . S
C21 O33 1.355 . S
C22 O24 1.185 . S
C22 O25 1.355 . S
Dy23 O27 2.310 . S
Dy23 O30 2.351 . S
Dy23 O32 2.398 . S
Dy23 O33 2.491 . S
Dy23 O34 2.403 . S
Dy23 O35 2.664 . S
Dy23 O37 2.326 . S
O24 Dy20 2.398 . S
O24 C22 1.185 . S
O25 Dy20 2.491 . S
O25 C22 1.355 . S
O26 Dy20 2.403 . S
O26 C28 1.254 . S
O27 Dy20 2.664 . S
O27 Dy23 2.310 . S
O27 C28 1.268 . S
C28 O26 1.254 . S
C28 O27 1.268 . S
C29 O34 1.254 . S
C29 O35 1.268 . S
O30 Dy23 2.351 . S
O30 C38 1.249 . S
O31 Dy20 2.326 . S
O31 C38 1.267 . S
O32 C21 1.185 . S
O32 Dy23 2.398 . S
O33 C21 1.355 . S
O33 Dy23 2.491 . S
O34 Dy23 2.403 . S
O34 C29 1.254 . S
O35 Dy20 2.310 . S
O35 Dy23 2.664 . S
O35 C29 1.268 . S
O36 Dy20 2.351 . S
O36 C39 1.249 . S
O37 Dy23 2.326 . S
O37 C39 1.267 . S
C38 O30 1.249 . S
C38 O31 1.267 . S
C39 O36 1.249 . S
C39 O37 1.267 . S
Dy40 O44 2.398 1_556 S
Dy40 O45 2.491 1_556 S
Dy40 O46 2.403 . S
Dy40 O47 2.664 . S
Dy40 O51 2.326 . S
Dy40 O55 2.310 . S
Dy40 O56 2.351 . S
C41 O52 1.185 . S
C41 O53 1.355 . S
C42 O44 1.185 . S
C42 O45 1.355 . S
Dy43 O47 2.310 . S
Dy43 O50 2.351 . S
Dy43 O52 2.398 . S
Dy43 O53 2.491 . S
Dy43 O54 2.403 . S
Dy43 O55 2.664 . S
Dy43 O57 2.326 . S
O44 Dy40 2.398 1_554 S
O44 C42 1.185 . S
O45 Dy40 2.491 1_554 S
O45 C42 1.355 . S
O46 Dy40 2.403 . S
O46 C48 1.254 . S
O47 Dy40 2.664 . S
O47 Dy43 2.310 . S
O47 C48 1.268 . S
C48 O46 1.254 . S
C48 O47 1.268 . S
C49 O54 1.254 . S
C49 O55 1.268 . S
O50 Dy43 2.351 . S
O50 C58 1.249 . S
O51 Dy40 2.326 . S
O51 C58 1.267 . S
O52 C41 1.185 . S
O52 Dy43 2.398 . S
O53 C41 1.355 . S
O53 Dy43 2.491 . S
O54 Dy43 2.403 . S
O54 C49 1.254 . S
O55 Dy40 2.310 . S
O55 Dy43 2.664 . S
O55 C49 1.268 . S
O56 Dy40 2.351 . S
O56 C59 1.249 . S
O57 Dy43 2.326 . S
O57 C59 1.267 . S
C58 O50 1.249 . S
C58 O51 1.267 . S
C59 O56 1.249 . S
C59 O57 1.267 . S
Dy60 O64 2.398 . S
Dy60 O65 2.491 . S
Dy60 O66 2.403 . S
Dy60 O67 2.664 . S
Dy60 O71 2.326 . S
Dy60 O75 2.310 . S
Dy60 O76 2.351 . S
C61 O72 1.185 . S
C61 O73 1.355 . S
C62 O64 1.185 . S
C62 O65 1.355 . S
Dy63 O67 2.310 . S
Dy63 O70 2.351 . S
Dy63 O72 2.398 . S
Dy63 O73 2.491 . S
Dy63 O74 2.403 . S
Dy63 O75 2.664 . S
Dy63 O77 2.326 . S
O64 Dy60 2.398 . S
O64 C62 1.185 . S
O65 Dy60 2.491 . S
O65 C62 1.355 . S
O66 Dy60 2.403 . S
O66 C68 1.254 . S
O67 Dy60 2.664 . S
O67 Dy63 2.310 . S
O67 C68 1.268 . S
C68 O66 1.254 . S
C68 O67 1.268 . S
C69 O74 1.254 . S
C69 O75 1.268 . S
O70 Dy63 2.351 . S
O70 C78 1.249 . S
O71 Dy60 2.326 . S
O71 C78 1.267 . S
O72 C61 1.185 . S
O72 Dy63 2.398 . S
O73 C61 1.355 . S
O73 Dy63 2.491 . S
O74 Dy63 2.403 . S
O74 C69 1.254 . S
O75 Dy60 2.310 . S
O75 Dy63 2.664 . S
O75 C69 1.268 . S
O76 Dy60 2.351 . S
O76 C79 1.249 . S
O77 Dy63 2.326 . S
O77 C79 1.267 . S
C78 O70 1.249 . S
C78 O71 1.267 . S
C79 O76 1.249 . S
C79 O77 1.267 . S
Dy80 O84 2.398 . S
Dy80 O85 2.491 . S
Dy80 O86 2.403 . S
Dy80 O87 2.664 . S
Dy80 O91 2.326 . S
Dy80 O95 2.310 . S
Dy80 O96 2.351 . S
C81 O92 1.185 . S
C81 O93 1.355 . S
C82 O84 1.185 . S
C82 O85 1.355 . S
Dy83 O87 2.310 . S
Dy83 O90 2.351 . S
Dy83 O92 2.398 . S
Dy83 O93 2.491 . S
Dy83 O94 2.403 . S
Dy83 O95 2.664 . S
Dy83 O97 2.326 . S
O84 Dy80 2.398 . S
O84 C82 1.185 . S
O85 Dy80 2.491 . S
O85 C82 1.355 . S
O86 Dy80 2.403 . S
O86 C88 1.254 . S
O87 Dy80 2.664 . S
O87 Dy83 2.310 . S
O87 C88 1.268 . S
C88 O86 1.254 . S
C88 O87 1.268 . S
C89 O94 1.254 . S
C89 O95 1.268 . S
O90 Dy83 2.351 . S
O90 C98 1.249 . S
O91 Dy80 2.326 . S
O91 C98 1.267 . S
O92 C81 1.185 . S
O92 Dy83 2.398 . S
O93 C81 1.355 . S
O93 Dy83 2.491 . S
O94 Dy83 2.403 . S
O94 C89 1.254 . S
O95 Dy80 2.310 . S
O95 Dy83 2.664 . S
O95 C89 1.268 . S
O96 Dy80 2.351 . S
O96 C99 1.249 . S
O97 Dy83 2.326 . S
O97 C99 1.267 . S
C98 O90 1.249 . S
C98 O91 1.267 . S
C99 O96 1.249 . S
C99 O97 1.267 . S
Dy100 O104 2.398 1_556 S
Dy100 O105 2.491 1_556 S
Dy100 O106 2.403 . S
Dy100 O107 2.664 . S
Dy100 O111 2.326 . S
Dy100 O115 2.310 . S
Dy100 O116 2.351 . S
C101 O112 1.185 . S
C101 O113 1.355 . S
C102 O104 1.185 . S
C102 O105 1.355 . S
Dy103 O107 2.310 . S
Dy103 O110 2.351 . S
Dy103 O112 2.398 . S
Dy103 O113 2.491 . S
Dy103 O114 2.403 . S
Dy103 O115 2.664 . S
Dy103 O117 2.326 . S
O104 Dy100 2.398 1_554 S
O104 C102 1.185 . S
O105 Dy100 2.491 1_554 S
O105 C102 1.355 . S
O106 Dy100 2.403 . S
O106 C108 1.254 . S
O107 Dy100 2.664 . S
O107 Dy103 2.310 . S
O107 C108 1.268 . S
C108 O106 1.254 . S
C108 O107 1.268 . S
C109 O114 1.254 . S
C109 O115 1.268 . S
O110 Dy103 2.351 . S
O110 C118 1.249 . S
O111 Dy100 2.326 . S
O111 C118 1.267 . S
O112 C101 1.185 . S
O112 Dy103 2.398 . S
O113 C101 1.355 . S
O113 Dy103 2.491 . S
O114 Dy103 2.403 . S
O114 C109 1.254 . S
O115 Dy100 2.310 . S
O115 Dy103 2.664 . S
O115 C109 1.268 . S
O116 Dy100 2.351 . S
O116 C119 1.249 . S
O117 Dy103 2.326 . S
O117 C119 1.267 . S
C118 O110 1.249 . S
C118 O111 1.267 . S
C119 O116 1.249 . S
C119 O117 1.267 . S
Dy120 O124 2.398 . S
Dy120 O125 2.491 . S
Dy120 O126 2.403 . S
Dy120 O127 2.664 . S
Dy120 O131 2.326 . S
Dy120 O135 2.310 . S
Dy120 O136 2.351 . S
C121 O132 1.185 . S
C121 O133 1.355 . S
C122 O124 1.185 . S
C122 O125 1.355 . S
Dy123 O127 2.310 . S
Dy123 O130 2.351 . S
Dy123 O132 2.398 . S
Dy123 O133 2.491 . S
Dy123 O134 2.403 . S
Dy123 O135 2.664 . S
Dy123 O137 2.326 . S
O124 Dy120 2.398 . S
O124 C122 1.185 . S
O125 Dy120 2.491 . S
O125 C122 1.355 . S
O126 Dy120 2.403 . S
O126 C128 1.254 . S
O127 Dy120 2.664 . S
O127 Dy123 2.310 . S
O127 C128 1.268 . S
C128 O126 1.254 . S
C128 O127 1.268 . S
C129 O134 1.254 . S
C129 O135 1.268 . S
O130 Dy123 2.351 . S
O130 C138 1.249 . S
O131 Dy120 2.326 . S
O131 C138 1.267 . S
O132 C121 1.185 . S
O132 Dy123 2.398 . S
O133 C121 1.355 . S
O133 Dy123 2.491 . S
O134 Dy123 2.403 . S
O134 C129 1.254 . S
O135 Dy120 2.310 . S
O135 Dy123 2.664 . S
O135 C129 1.268 . S
O136 Dy120 2.351 . S
O136 C139 1.249 . S
O137 Dy123 2.326 . S
O137 C139 1.267 . S
C138 O130 1.249 . S
C138 O131 1.267 . S
C139 O136 1.249 . S
C139 O137 1.267 . S
Dy140 O144 2.398 . S
Dy140 O145 2.491 . S
Dy140 O146 2.403 . S
Dy140 O147 2.664 . S
Dy140 O151 2.326 . S
Dy140 O155 2.310 . S
Dy140 O156 2.351 . S
C141 O152 1.185 . S
C141 O153 1.355 . S
C142 O144 1.185 . S
C142 O145 1.355 . S
Dy143 O147 2.310 . S
Dy143 O150 2.351 . S
Dy143 O152 2.398 . S
Dy143 O153 2.491 . S
Dy143 O154 2.403 . S
Dy143 O155 2.664 . S
Dy143 O157 2.326 . S
O144 Dy140 2.398 . S
O144 C142 1.185 . S
O145 Dy140 2.491 . S
O145 C142 1.355 . S
O146 Dy140 2.403 . S
O146 C148 1.254 . S
O147 Dy140 2.664 . S
O147 Dy143 2.310 . S
O147 C148 1.268 . S
C148 O146 1.254 . S
C148 O147 1.268 . S
C149 O154 1.254 . S
C149 O155 1.268 . S
O150 Dy143 2.351 . S
O150 C158 1.249 . S
O151 Dy140 2.326 . S
O151 C158 1.267 . S
O152 C141 1.185 . S
O152 Dy143 2.398 . S
O153 C141 1.355 . S
O153 Dy143 2.491 . S
O154 Dy143 2.403 . S
O154 C149 1.254 . S
O155 Dy140 2.310 . S
O155 Dy143 2.664 . S
O155 C149 1.268 . S
O156 Dy140 2.351 . S
O156 C159 1.249 . S
O157 Dy143 2.326 . S
O157 C159 1.267 . S
C158 O150 1.249 . S
C158 O151 1.267 . S
C159 O156 1.249 . S
C159 O157 1.267 . S
Dy160 O164 2.398 1_554 S
Dy160 O165 2.491 1_554 S
Dy160 O166 2.403 . S
Dy160 O167 2.664 . S
Dy160 O171 2.326 . S
Dy160 O175 2.310 . S
Dy160 O176 2.351 . S
C161 O172 1.185 . S
C161 O173 1.355 . S
C162 O164 1.185 . S
C162 O165 1.355 . S
Dy163 O167 2.310 . S
Dy163 O170 2.351 . S
Dy163 O172 2.398 . S
Dy163 O173 2.491 . S
Dy163 O174 2.403 . S
Dy163 O175 2.664 . S
Dy163 O177 2.326 . S
O164 Dy160 2.398 1_556 S
O164 C162 1.185 . S
O165 Dy160 2.491 1_556 S
O165 C162 1.355 . S
O166 Dy160 2.403 . S
O166 C168 1.254 . S
O167 Dy160 2.664 . S
O167 Dy163 2.310 . S
O167 C168 1.268 . S
C168 O166 1.254 . S
C168 O167 1.268 . S
C169 O174 1.254 . S
C169 O175 1.268 . S
O170 Dy163 2.351 . S
O170 C178 1.249 . S
O171 Dy160 2.326 . S
O171 C178 1.267 . S
O172 C161 1.185 . S
O172 Dy163 2.398 . S
O173 C161 1.355 . S
O173 Dy163 2.491 . S
O174 Dy163 2.403 . S
O174 C169 1.254 . S
O175 Dy160 2.310 . S
O175 Dy163 2.664 . S
O175 C169 1.268 . S
O176 Dy160 2.351 . S
O176 C179 1.249 . S
O177 Dy163 2.326 . S
O177 C179 1.267 . S
C178 O170 1.249 . S
C178 O171 1.267 . S
C179 O176 1.249 . S
C179 O177 1.267 . S
Dy180 O184 2.398 . S
Dy180 O185 2.491 . S
Dy180 O186 2.403 . S
Dy180 O187 2.664 . S
Dy180 O191 2.326 . S
Dy180 O195 2.310 . S
Dy180 O196 2.351 . S
C181 O192 1.185 . S
C181 O193 1.355 . S
C182 O184 1.185 . S
C182 O185 1.355 . S
Dy183 O187 2.310 . S
Dy183 O190 2.351 . S
Dy183 O192 2.398 . S
Dy183 O193 2.491 . S
Dy183 O194 2.403 . S
Dy183 O195 2.664 . S
Dy183 O197 2.326 . S
O184 Dy180 2.398 . S
O184 C182 1.185 . S
O185 Dy180 2.491 . S
O185 C182 1.355 . S
O186 Dy180 2.403 . S
O186 C188 1.254 . S
O187 Dy180 2.664 . S
O187 Dy183 2.310 . S
O187 C188 1.268 . S
C188 O186 1.254 . S
C188 O187 1.268 . S
C189 O194 1.254 . S
C189 O195 1.268 . S
O190 Dy183 2.351 . S
O190 C198 1.249 . S
O191 Dy180 2.326 . S
O191 C198 1.267 . S
O192 C181 1.185 . S
O192 Dy183 2.398 . S
O193 C181 1.355 . S
O193 Dy183 2.491 . S
O194 Dy183 2.403 . S
O194 C189 1.254 . S
O195 Dy180 2.310 . S
O195 Dy183 2.664 . S
O195 C189 1.268 . S
O196 Dy180 2.351 . S
O196 C199 1.249 . S
O197 Dy183 2.326 . S
O197 C199 1.267 . S
C198 O190 1.249 . S
C198 O191 1.267 . S
C199 O196 1.249 . S
C199 O197 1.267 . S
Dy200 O204 2.398 . S
Dy200 O205 2.491 . S
Dy200 O206 2.403 . S
Dy200 O207 2.664 . S
Dy200 O211 2.326 . S
Dy200 O215 2.310 . S
Dy200 O216 2.351 . S
C201 O212 1.185 . S
C201 O213 1.355 . S
C202 O204 1.185 . S
C202 O205 1.355 . S
Dy203 O207 2.310 . S
Dy203 O210 2.351 . S
Dy203 O212 2.398 . S
Dy203 O213 2.491 . S
Dy203 O214 2.403 . S
Dy203 O215 2.664 . S
Dy203 O217 2.326 . S
O204 Dy200 2.398 . S
O204 C202 1.185 . S
O205 Dy200 2.491 . S
O205 C202 1.355 . S
O206 Dy200 2.403 . S
O206 C208 1.254 . S
O207 Dy200 2.664 . S
O207 Dy203 2.310 . S
O207 C208 1.268 . S
C208 O206 1.254 . S
C208 O207 1.268 . S
C209 O214 1.254 . S
C209 O215 1.268 . S
O210 Dy203 2.351 . S
O210 C218 1.249 . S
O211 Dy200 2.326 . S
O211 C218 1.267 . S
O212 C201 1.185 . S
O212 Dy203 2.398 . S
O213 C201 1.355 . S
O213 Dy203 2.491 . S
O214 Dy203 2.403 . S
O214 C209 1.254 . S
O215 Dy200 2.310 . S
O215 Dy203 2.664 . S
O215 C209 1.268 . S
O216 Dy200 2.351 . S
O216 C219 1.249 . S
O217 Dy203 2.326 . S
O217 C219 1.267 . S
C218 O210 1.249 . S
C218 O211 1.267 . S
C219 O216 1.249 . S
C219 O217 1.267 . S
Dy220 O224 2.398 1_554 S
Dy220 O225 2.491 1_554 S
Dy220 O226 2.403 . S
Dy220 O227 2.664 . S
Dy220 O231 2.326 . S
Dy220 O235 2.310 . S
Dy220 O236 2.351 . S
C221 O232 1.185 . S
C221 O233 1.355 . S
C222 O224 1.185 . S
C222 O225 1.355 . S
Dy223 O227 2.310 . S
Dy223 O230 2.351 . S
Dy223 O232 2.398 . S
Dy223 O233 2.491 . S
Dy223 O234 2.403 . S
Dy223 O235 2.664 . S
Dy223 O237 2.326 . S
O224 Dy220 2.398 1_556 S
O224 C222 1.185 . S
O225 Dy220 2.491 1_556 S
O225 C222 1.355 . S
O226 Dy220 2.403 . S
O226 C228 1.254 . S
O227 Dy220 2.664 . S
O227 Dy223 2.310 . S
O227 C228 1.268 . S
C228 O226 1.254 . S
C228 O227 1.268 . S
C229 O234 1.254 . S
C229 O235 1.268 . S
O230 Dy223 2.351 . S
O230 C238 1.249 . S
O231 Dy220 2.326 . S
O231 C238 1.267 . S
O232 C221 1.185 . S
O232 Dy223 2.398 . S
O233 C221 1.355 . S
O233 Dy223 2.491 . S
O234 Dy223 2.403 . S
O234 C229 1.254 . S
O235 Dy220 2.310 . S
O235 Dy223 2.664 . S
O235 C229 1.268 . S
O236 Dy220 2.351 . S
O236 C239 1.249 . S
O237 Dy223 2.326 . S
O237 C239 1.267 . S
C238 O230 1.249 . S
C238 O231 1.267 . S
C239 O236 1.249 . S
C239 O237 1.267 . S
H240 C248 0.950 . S
H241 C253 0.950 . S
H242 C250 0.950 . S
H243 C252 0.950 . S
H244 C254 0.950 . S
H245 C256 0.950 . S
H246 C258 0.950 . S
H247 C259 0.950 . S
C248 H240 0.950 . S
C248 C249 1.386 . S
C248 C250 1.391 . S
C249 C248 1.386 . S
C249 C253 1.393 . S
C250 H242 0.950 . S
C250 C248 1.391 . S
C250 C251 1.400 . S
C251 C250 1.400 . S
C251 C252 1.398 . S
C251 C257 1.491 . S
C252 H243 0.950 . S
C252 C251 1.398 . S
C252 C253 1.391 . S
C253 H241 0.950 . S
C253 C249 1.393 . S
C253 C252 1.391 . S
C254 H244 0.950 . S
C254 C255 1.386 . S
C254 C256 1.391 . S
C255 C254 1.386 . S
C255 C259 1.393 . S
C256 H245 0.950 . S
C256 C254 1.391 . S
C256 C257 1.400 . S
C257 C251 1.491 . S
C257 C256 1.400 . S
C257 C258 1.398 . S
C258 H246 0.950 . S
C258 C257 1.398 . S
C258 C259 1.391 . S
C259 H247 0.950 . S
C259 C255 1.393 . S
C259 C258 1.391 . S
H260 C268 0.950 . S
H261 C273 0.950 . S
H262 C270 0.950 . S
H263 C272 0.950 . S
H264 C274 0.950 . S
H265 C276 0.950 . S
H266 C278 0.950 . S
H267 C279 0.950 . S
C268 H260 0.950 . S
C268 C269 1.386 . S
C268 C270 1.391 . S
C269 C268 1.386 . S
C269 C273 1.393 . S
C270 H262 0.950 . S
C270 C268 1.391 . S
C270 C271 1.400 . S
C271 C270 1.400 . S
C271 C272 1.398 . S
C271 C277 1.491 . S
C272 H263 0.950 . S
C272 C271 1.398 . S
C272 C273 1.391 . S
C273 H261 0.950 . S
C273 C269 1.393 . S
C273 C272 1.391 . S
C274 H264 0.950 . S
C274 C275 1.386 . S
C274 C276 1.391 . S
C275 C274 1.386 . S
C275 C279 1.393 . S
C276 H265 0.950 . S
C276 C274 1.391 . S
C276 C277 1.400 . S
C277 C271 1.491 . S
C277 C276 1.400 . S
C277 C278 1.398 . S
C278 H266 0.950 . S
C278 C277 1.398 . S
C278 C279 1.391 . S
C279 H267 0.950 . S
C279 C275 1.393 . S
C279 C278 1.391 . S
H280 C288 0.950 . S
H281 C293 0.950 . S
H282 C290 0.950 . S
H283 C292 0.950 . S
H284 C294 0.950 . S
H285 C296 0.950 . S
H286 C298 0.950 . S
H287 C299 0.950 . S
C288 H280 0.950 . S
C288 C289 1.386 . S
C288 C290 1.391 . S
C289 C288 1.386 . S
C289 C293 1.393 . S
C290 H282 0.950 . S
C290 C288 1.391 . S
C290 C291 1.400 . S
C291 C290 1.400 . S
C291 C292 1.398 . S
C291 C297 1.491 . S
C292 H283 0.950 . S
C292 C291 1.398 . S
C292 C293 1.391 . S
C293 H281 0.950 . S
C293 C289 1.393 . S
C293 C292 1.391 . S
C294 H284 0.950 . S
C294 C295 1.386 . S
C294 C296 1.391 . S
C295 C294 1.386 . S
C295 C299 1.393 . S
C296 H285 0.950 . S
C296 C294 1.391 . S
C296 C297 1.400 . S
C297 C291 1.491 . S
C297 C296 1.400 . S
C297 C298 1.398 . S
C298 H286 0.950 . S
C298 C297 1.398 . S
C298 C299 1.391 . S
C299 H287 0.950 . S
C299 C295 1.393 . S
C299 C298 1.391 . S
H300 C308 0.950 . S
H301 C313 0.950 . S
H302 C310 0.950 . S
H303 C312 0.950 . S
H304 C314 0.950 . S
H305 C316 0.950 . S
H306 C318 0.950 . S
H307 C319 0.950 . S
C308 H300 0.950 . S
C308 C309 1.386 . S
C308 C310 1.391 . S
C309 C308 1.386 . S
C309 C313 1.393 . S
C310 H302 0.950 . S
C310 C308 1.391 . S
C310 C311 1.400 . S
C311 C310 1.400 . S
C311 C312 1.398 . S
C311 C317 1.491 . S
C312 H303 0.950 . S
C312 C311 1.398 . S
C312 C313 1.391 . S
C313 H301 0.950 . S
C313 C309 1.393 . S
C313 C312 1.391 . S
C314 H304 0.950 . S
C314 C315 1.386 . S
C314 C316 1.391 . S
C315 C314 1.386 . S
C315 C319 1.393 . S
C316 H305 0.950 . S
C316 C314 1.391 . S
C316 C317 1.400 . S
C317 C311 1.491 . S
C317 C316 1.400 . S
C317 C318 1.398 . S
C318 H306 0.950 . S
C318 C317 1.398 . S
C318 C319 1.391 . S
C319 H307 0.950 . S
C319 C315 1.393 . S
C319 C318 1.391 . S
H320 C328 0.950 . S
H321 C333 0.950 . S
H322 C330 0.950 . S
H323 C332 0.950 . S
H324 C334 0.950 . S
H325 C336 0.950 . S
H326 C338 0.950 . S
H327 C339 0.950 . S
C328 H320 0.950 . S
C328 C329 1.386 . S
C328 C330 1.391 . S
C329 C328 1.386 . S
C329 C333 1.393 . S
C330 H322 0.950 . S
C330 C328 1.391 . S
C330 C331 1.400 . S
C331 C330 1.400 . S
C331 C332 1.398 . S
C331 C337 1.491 . S
C332 H323 0.950 . S
C332 C331 1.398 . S
C332 C333 1.391 . S
C333 H321 0.950 . S
C333 C329 1.393 . S
C333 C332 1.391 . S
C334 H324 0.950 . S
C334 C335 1.386 . S
C334 C336 1.391 . S
C335 C334 1.386 . S
C335 C339 1.393 . S
C336 H325 0.950 . S
C336 C334 1.391 . S
C336 C337 1.400 . S
C337 C331 1.491 . S
C337 C336 1.400 . S
C337 C338 1.398 . S
C338 H326 0.950 . S
C338 C337 1.398 . S
C338 C339 1.391 . S
C339 H327 0.950 . S
C339 C335 1.393 . S
C339 C338 1.391 . S
H340 C348 0.950 . S
H341 C353 0.950 . S
H342 C350 0.950 . S
H343 C352 0.950 . S
H344 C354 0.950 . S
H345 C356 0.950 . S
H346 C358 0.950 . S
H347 C359 0.950 . S
C348 H340 0.950 . S
C348 C349 1.386 . S
C348 C350 1.391 . S
C349 C348 1.386 . S
C349 C353 1.393 . S
C350 H342 0.950 . S
C350 C348 1.391 . S
C350 C351 1.400 . S
C351 C350 1.400 . S
C351 C352 1.398 . S
C351 C357 1.491 . S
C352 H343 0.950 . S
C352 C351 1.398 . S
C352 C353 1.391 . S
C353 H341 0.950 . S
C353 C349 1.393 . S
C353 C352 1.391 . S
C354 H344 0.950 . S
C354 C355 1.386 . S
C354 C356 1.391 . S
C355 C354 1.386 . S
C355 C359 1.393 . S
C356 H345 0.950 . S
C356 C354 1.391 . S
C356 C357 1.400 . S
C357 C351 1.491 . S
C357 C356 1.400 . S
C357 C358 1.398 . S
C358 H346 0.950 . S
C358 C357 1.398 . S
C358 C359 1.391 . S
C359 H347 0.950 . S
C359 C355 1.393 . S
C359 C358 1.391 . S
H360 C368 0.950 . S
H361 C373 0.950 . S
H362 C370 0.950 . S
H363 C372 0.950 . S
H364 C374 0.950 . S
H365 C376 0.950 . S
H366 C378 0.950 . S
H367 C379 0.950 . S
C368 H360 0.950 . S
C368 C369 1.386 . S
C368 C370 1.391 . S
C369 C368 1.386 . S
C369 C373 1.393 . S
C370 H362 0.950 . S
C370 C368 1.391 . S
C370 C371 1.400 . S
C371 C370 1.400 . S
C371 C372 1.398 . S
C371 C377 1.491 1_556 S
C372 H363 0.950 . S
C372 C371 1.398 . S
C372 C373 1.391 . S
C373 H361 0.950 . S
C373 C369 1.393 . S
C373 C372 1.391 . S
C374 H364 0.950 . S
C374 C375 1.386 . S
C374 C376 1.391 . S
C375 C374 1.386 . S
C375 C379 1.393 . S
C376 H365 0.950 . S
C376 C374 1.391 . S
C376 C377 1.400 . S
C377 C371 1.491 1_554 S
C377 C376 1.400 . S
C377 C378 1.398 . S
C378 H366 0.950 . S
C378 C377 1.398 . S
C378 C379 1.391 . S
C379 H367 0.950 . S
C379 C375 1.393 . S
C379 C378 1.391 . S
H380 C388 0.950 . S
H381 C393 0.950 . S
H382 C390 0.950 . S
H383 C392 0.950 . S
H384 C394 0.950 . S
H385 C396 0.950 . S
H386 C398 0.950 . S
H387 C399 0.950 . S
C388 H380 0.950 . S
C388 C389 1.386 . S
C388 C390 1.391 . S
C389 C388 1.386 . S
C389 C393 1.393 . S
C390 H382 0.950 . S
C390 C388 1.391 . S
C390 C391 1.400 . S
C391 C390 1.400 . S
C391 C392 1.398 . S
C391 C397 1.491 . S
C392 H383 0.950 . S
C392 C391 1.398 . S
C392 C393 1.391 . S
C393 H381 0.950 . S
C393 C389 1.393 . S
C393 C392 1.391 . S
C394 H384 0.950 . S
C394 C395 1.386 . S
C394 C396 1.391 . S
C395 C394 1.386 . S
C395 C399 1.393 . S
C396 H385 0.950 . S
C396 C394 1.391 . S
C396 C397 1.400 . S
C397 C391 1.491 . S
C397 C396 1.400 . S
C397 C398 1.398 . S
C398 H386 0.950 . S
C398 C397 1.398 . S
C398 C399 1.391 . S
C399 H387 0.950 . S
C399 C395 1.393 . S
C399 C398 1.391 . S
H400 C408 0.950 . S
H401 C413 0.950 . S
H402 C410 0.950 . S
H403 C412 0.950 . S
H404 C414 0.950 . S
H405 C416 0.950 . S
H406 C418 0.950 . S
H407 C419 0.950 . S
C408 H400 0.950 . S
C408 C409 1.386 . S
C408 C410 1.391 . S
C409 C408 1.386 . S
C409 C413 1.393 . S
C410 H402 0.950 . S
C410 C408 1.391 . S
C410 C411 1.400 . S
C411 C410 1.400 . S
C411 C412 1.398 . S
C411 C417 1.491 . S
C412 H403 0.950 . S
C412 C411 1.398 . S
C412 C413 1.391 . S
C413 H401 0.950 . S
C413 C409 1.393 . S
C413 C412 1.391 . S
C414 H404 0.950 . S
C414 C415 1.386 . S
C414 C416 1.391 . S
C415 C414 1.386 . S
C415 C419 1.393 . S
C416 H405 0.950 . S
C416 C414 1.391 . S
C416 C417 1.400 . S
C417 C411 1.491 . S
C417 C416 1.400 . S
C417 C418 1.398 . S
C418 H406 0.950 . S
C418 C417 1.398 . S
C418 C419 1.391 . S
C419 H407 0.950 . S
C419 C415 1.393 . S
C419 C418 1.391 . S
H420 C428 0.950 . S
H421 C433 0.950 . S
H422 C430 0.950 . S
H423 C432 0.950 1_554 S
H424 C434 0.950 . S
H425 C436 0.950 . S
H426 C438 0.950 1_556 S
H427 C439 0.950 . S
C428 H420 0.950 . S
C428 C429 1.386 . S
C428 C430 1.391 . S
C429 C428 1.386 . S
C429 C433 1.393 . S
C430 H422 0.950 . S
C430 C428 1.391 . S
C430 C431 1.400 . S
C431 C430 1.400 . S
C431 C432 1.398 . S
C431 C437 1.491 1_556 S
C432 H423 0.950 1_556 S
C432 C431 1.398 . S
C432 C433 1.391 . S
C433 H421 0.950 . S
C433 C429 1.393 . S
C433 C432 1.391 . S
C434 H424 0.950 . S
C434 C435 1.386 . S
C434 C436 1.391 . S
C435 C434 1.386 . S
C435 C439 1.393 . S
C436 H425 0.950 . S
C436 C434 1.391 . S
C436 C437 1.400 . S
C437 C431 1.491 1_554 S
C437 C436 1.400 . S
C437 C438 1.398 . S
C438 H426 0.950 1_554 S
C438 C437 1.398 . S
C438 C439 1.391 . S
C439 H427 0.950 . S
C439 C435 1.393 . S
C439 C438 1.391 . S
H440 C448 0.950 . S
H441 C453 0.950 . S
H442 C450 0.950 . S
H443 C452 0.950 . S
H444 C454 0.950 . S
H445 C456 0.950 . S
H446 C458 0.950 . S
H447 C459 0.950 . S
C448 H440 0.950 . S
C448 C449 1.386 . S
C448 C450 1.391 . S
C449 C448 1.386 . S
C449 C453 1.393 . S
C450 H442 0.950 . S
C450 C448 1.391 . S
C450 C451 1.400 . S
C451 C450 1.400 . S
C451 C452 1.398 . S
C451 C457 1.491 . S
C452 H443 0.950 . S
C452 C451 1.398 . S
C452 C453 1.391 . S
C453 H441 0.950 . S
C453 C449 1.393 . S
C453 C452 1.391 . S
C454 H444 0.950 . S
C454 C455 1.386 . S
C454 C456 1.391 . S
C455 C454 1.386 . S
C455 C459 1.393 . S
C456 H445 0.950 . S
C456 C454 1.391 . S
C456 C457 1.400 . S
C457 C451 1.491 . S
C457 C456 1.400 . S
C457 C458 1.398 . S
C458 H446 0.950 . S
C458 C457 1.398 . S
C458 C459 1.391 . S
C459 H447 0.950 . S
C459 C455 1.393 . S
C459 C458 1.391 . S
H460 C468 0.950 . S
H461 C473 0.950 . S
H462 C470 0.950 . S
H463 C472 0.950 . S
H464 C474 0.950 . S
H465 C476 0.950 . S
H466 C478 0.950 . S
H467 C479 0.950 . S
C468 H460 0.950 . S
C468 C469 1.386 . S
C468 C470 1.391 . S
C469 C468 1.386 . S
C469 C473 1.393 . S
C470 H462 0.950 . S
C470 C468 1.391 . S
C470 C471 1.400 . S
C471 C470 1.400 . S
C471 C472 1.398 . S
C471 C477 1.491 . S
C472 H463 0.950 . S
C472 C471 1.398 . S
C472 C473 1.391 . S
C473 H461 0.950 . S
C473 C469 1.393 . S
C473 C472 1.391 . S
C474 H464 0.950 . S
C474 C475 1.386 . S
C474 C476 1.391 . S
C475 C474 1.386 . S
C475 C479 1.393 . S
C476 H465 0.950 . S
C476 C474 1.391 . S
C476 C477 1.400 . S
C477 C471 1.491 . S
C477 C476 1.400 . S
C477 C478 1.398 . S
C478 H466 0.950 . S
C478 C477 1.398 . S
C478 C479 1.391 . S
C479 H467 0.950 . S
C479 C475 1.393 . S
C479 C478 1.391 . S
H480 C488 0.950 . S
H481 C493 0.950 . S
H482 C490 0.950 1_554 S
H483 C492 0.950 . S
H484 C494 0.950 . S
H485 C496 0.950 1_556 S
H486 C498 0.950 . S
H487 C499 0.950 . S
C488 H480 0.950 . S
C488 C489 1.386 . S
C488 C490 1.391 . S
C489 C488 1.386 . S
C489 C493 1.393 . S
C490 H482 0.950 1_556 S
C490 C488 1.391 . S
C490 C491 1.400 . S
C491 C490 1.400 . S
C491 C492 1.398 1_565 S
C491 C497 1.491 1_566 S
C492 H483 0.950 . S
C492 C491 1.398 1_545 S
C492 C493 1.391 1_545 S
C493 H481 0.950 . S
C493 C489 1.393 . S
C493 C492 1.391 1_565 S
C494 H484 0.950 . S
C494 C495 1.386 . S
C494 C496 1.391 . S
C495 C494 1.386 . S
C495 C499 1.393 . S
C496 H485 0.950 1_554 S
C496 C494 1.391 . S
C496 C497 1.400 . S
C497 C491 1.491 1_544 S
C497 C496 1.400 . S
C497 C498 1.398 1_545 S
C498 H486 0.950 . S
C498 C497 1.398 1_565 S
C498 C499 1.391 1_565 S
C499 H487 0.950 . S
C499 C495 1.393 . S
C499 C498 1.391 1_545 S
H500 C508 0.950 . S
H501 C513 0.950 . S
H502 C510 0.950 . S
H503 C512 0.950 . S
H504 C514 0.950 . S
H505 C516 0.950 . S
H506 C518 0.950 . S
H507 C519 0.950 . S
C508 H500 0.950 . S
C508 C509 1.386 . S
C508 C510 1.391 . S
C509 C508 1.386 . S
C509 C513 1.393 . S
C510 H502 0.950 . S
C510 C508 1.391 . S
C510 C511 1.400 . S
C511 C510 1.400 . S
C511 C512 1.398 . S
C511 C517 1.491 . S
C512 H503 0.950 . S
C512 C511 1.398 . S
C512 C513 1.391 . S
C513 H501 0.950 . S
C513 C509 1.393 . S
C513 C512 1.391 . S
C514 H504 0.950 . S
C514 C515 1.386 . S
C514 C516 1.391 . S
C515 C514 1.386 . S
C515 C519 1.393 . S
C516 H505 0.950 . S
C516 C514 1.391 . S
C516 C517 1.400 . S
C517 C511 1.491 . S
C517 C516 1.400 . S
C517 C518 1.398 . S
C518 H506 0.950 . S
C518 C517 1.398 . S
C518 C519 1.391 . S
C519 H507 0.950 . S
C519 C515 1.393 . S
C519 C518 1.391 . S
H520 C528 0.950 . S
H521 C533 0.950 . S
H522 C530 0.950 1_655 S
H523 C532 0.950 . S
H524 C534 0.950 . S
H525 C536 0.950 1_455 S
H526 C538 0.950 . S
H527 C539 0.950 . S
C528 H520 0.950 . S
C528 C529 1.386 . S
C528 C530 1.391 . S
C529 C528 1.386 . S
C529 C533 1.393 . S
C530 H522 0.950 1_455 S
C530 C528 1.391 . S
C530 C531 1.400 . S
C531 C530 1.400 . S
C531 C532 1.398 . S
C531 C537 1.491 1_455 S
C532 H523 0.950 . S
C532 C531 1.398 . S
C532 C533 1.391 . S
C533 H521 0.950 . S
C533 C529 1.393 . S
C533 C532 1.391 . S
C534 H524 0.950 . S
C534 C535 1.386 . S
C534 C536 1.391 . S
C535 C534 1.386 . S
C535 C539 1.393 . S
C536 H525 0.950 1_655 S
C536 C534 1.391 . S
C536 C537 1.400 . S
C537 C531 1.491 1_655 S
C537 C536 1.400 . S
C537 C538 1.398 . S
C538 H526 0.950 . S
C538 C537 1.398 . S
C538 C539 1.391 . S
C539 H527 0.950 . S
C539 C535 1.393 . S
C539 C538 1.391 . S
H540 C548 0.950 . S
H541 C553 0.950 . S
H542 C550 0.950 . S
H543 C552 0.950 . S
H544 C554 0.950 . S
H545 C556 0.950 . S
H546 C558 0.950 . S
H547 C559 0.950 . S
C548 H540 0.950 . S
C548 C549 1.386 . S
C548 C550 1.391 . S
C549 C548 1.386 . S
C549 C553 1.393 . S
C550 H542 0.950 . S
C550 C548 1.391 . S
C550 C551 1.400 . S
C551 C550 1.400 . S
C551 C552 1.398 . S
C551 C557 1.491 1_564 S
C552 H543 0.950 . S
C552 C551 1.398 . S
C552 C553 1.391 . S
C553 H541 0.950 . S
C553 C549 1.393 . S
C553 C552 1.391 . S
C554 H544 0.950 . S
C554 C555 1.386 . S
C554 C556 1.391 . S
C555 C554 1.386 . S
C555 C559 1.393 . S
C556 H545 0.950 . S
C556 C554 1.391 . S
C556 C557 1.400 . S
C557 C551 1.491 1_546 S
C557 C556 1.400 . S
C557 C558 1.398 . S
C558 H546 0.950 . S
C558 C557 1.398 . S
C558 C559 1.391 . S
C559 H547 0.950 . S
C559 C555 1.393 . S
C559 C558 1.391 . S
H560 C568 0.950 . S
H561 C573 0.950 . S
H562 C570 0.950 . S
H563 C572 0.950 . S
H564 C574 0.950 . S
H565 C576 0.950 . S
H566 C578 0.950 . S
H567 C579 0.950 . S
C568 H560 0.950 . S
C568 C569 1.386 . S
C568 C570 1.391 . S
C569 C568 1.386 . S
C569 C573 1.393 . S
C570 H562 0.950 . S
C570 C568 1.391 . S
C570 C571 1.400 . S
C571 C570 1.400 . S
C571 C572 1.398 . S
C571 C577 1.491 . S
C572 H563 0.950 . S
C572 C571 1.398 . S
C572 C573 1.391 . S
C573 H561 0.950 . S
C573 C569 1.393 . S
C573 C572 1.391 . S
C574 H564 0.950 . S
C574 C575 1.386 . S
C574 C576 1.391 . S
C575 C574 1.386 . S
C575 C579 1.393 . S
C576 H565 0.950 . S
C576 C574 1.391 . S
C576 C577 1.400 . S
C577 C571 1.491 . S
C577 C576 1.400 . S
C577 C578 1.398 . S
C578 H566 0.950 . S
C578 C577 1.398 . S
C578 C579 1.391 . S
C579 H567 0.950 . S
C579 C575 1.393 . S
C579 C578 1.391 . S
H580 C588 0.960 . S
H581 C593 0.950 . S
H582 C590 0.950 . S
H583 C592 0.950 . S
H584 C594 0.960 . S
H585 C596 0.950 . S
H586 C598 0.950 . S
H587 C599 0.950 . S
C588 H580 0.960 . S
C588 C589 1.386 . S
C588 C590 1.391 1_455 S
C589 C588 1.386 . S
C589 C593 1.393 . S
C590 H582 0.950 . S
C590 C588 1.391 1_655 S
C590 C591 1.400 1_655 S
C591 C590 1.400 1_455 S
C591 C592 1.398 . S
C591 C597 1.491 1_455 S
C592 H583 0.950 . S
C592 C591 1.398 . S
C592 C593 1.391 . S
C593 H581 0.950 . S
C593 C589 1.393 . S
C593 C592 1.391 . S
C594 H584 0.960 . S
C594 C595 1.386 . S
C594 C596 1.391 1_655 S
C595 C594 1.386 . S
C595 C599 1.393 . S
C596 H585 0.950 . S
C596 C594 1.391 1_455 S
C596 C597 1.400 1_455 S
C597 C591 1.491 1_655 S
C597 C596 1.400 1_655 S
C597 C598 1.398 . S
C598 H586 0.950 . S
C598 C597 1.398 . S
C598 C599 1.391 . S
C599 H587 0.950 . S
C599 C595 1.393 . S
C599 C598 1.391 . S
H600 C608 0.950 . S
H601 C613 0.950 . S
H602 C610 0.950 . S
H603 C612 0.950 . S
H604 C614 0.950 . S
H605 C616 0.950 . S
H606 C618 0.950 . S
H607 C619 0.950 . S
C608 H600 0.950 . S
C608 C609 1.386 . S
C608 C610 1.391 . S
C609 C608 1.386 . S
C609 C613 1.393 . S
C610 H602 0.950 . S
C610 C608 1.391 . S
C610 C611 1.400 . S
C611 C610 1.400 . S
C611 C612 1.398 1_545 S
C611 C617 1.491 1_545 S
C612 H603 0.950 . S
C612 C611 1.398 1_565 S
C612 C613 1.391 1_565 S
C613 H601 0.950 . S
C613 C609 1.393 . S
C613 C612 1.391 1_545 S
C614 H604 0.950 . S
C614 C615 1.386 . S
C614 C616 1.391 . S
C615 C614 1.386 . S
C615 C619 1.393 . S
C616 H605 0.950 . S
C616 C614 1.391 . S
C616 C617 1.400 . S
C617 C611 1.491 1_565 S
C617 C616 1.400 . S
C617 C618 1.398 1_565 S
C618 H606 0.950 . S
C618 C617 1.398 1_545 S
C618 C619 1.391 1_545 S
C619 H607 0.950 . S
C619 C615 1.393 . S
C619 C618 1.391 1_565 S
H620 C628 0.950 . S
H621 C633 0.950 . S
H622 C630 0.950 . S
H623 C632 0.950 . S
H624 C634 0.950 . S
H625 C636 0.950 . S
H626 C638 0.950 . S
H627 C639 0.950 . S
C628 H620 0.950 . S
C628 C629 1.386 . S
C628 C630 1.391 . S
C629 C628 1.386 . S
C629 C633 1.393 . S
C630 H622 0.950 . S
C630 C628 1.391 . S
C630 C631 1.400 . S
C631 C630 1.400 . S
C631 C632 1.398 . S
C631 C637 1.491 . S
C632 H623 0.950 . S
C632 C631 1.398 . S
C632 C633 1.391 . S
C633 H621 0.950 . S
C633 C629 1.393 . S
C633 C632 1.391 . S
C634 H624 0.950 . S
C634 C635 1.386 . S
C634 C636 1.391 . S
C635 C634 1.386 . S
C635 C639 1.393 . S
C636 H625 0.950 . S
C636 C634 1.391 . S
C636 C637 1.400 . S
C637 C631 1.491 . S
C637 C636 1.400 . S
C637 C638 1.398 . S
C638 H626 0.950 . S
C638 C637 1.398 . S
C638 C639 1.391 . S
C639 H627 0.950 . S
C639 C635 1.393 . S
C639 C638 1.391 . S
H640 C648 0.950 . S
H641 C653 0.950 . S
H642 C650 0.950 . S
H643 C652 0.955 . S
H644 C654 0.950 . S
H645 C656 0.950 . S
H646 C658 0.955 . S
H647 C659 0.950 . S
C648 H640 0.950 . S
C648 C649 1.386 . S
C648 C650 1.391 . S
C649 C648 1.386 . S
C649 C653 1.393 . S
C650 H642 0.950 . S
C650 C648 1.391 . S
C650 C651 1.400 . S
C651 C650 1.400 . S
C651 C652 1.394 1_655 S
C651 C657 1.491 1_655 S
C652 H643 0.955 . S
C652 C651 1.394 1_455 S
C652 C653 1.390 1_455 S
C653 H641 0.950 . S
C653 C649 1.393 . S
C653 C652 1.390 1_655 S
C654 H644 0.950 . S
C654 C655 1.386 . S
C654 C656 1.391 . S
C655 C654 1.386 . S
C655 C659 1.393 . S
C656 H645 0.950 . S
C656 C654 1.391 . S
C656 C657 1.400 . S
C657 C651 1.491 1_455 S
C657 C656 1.400 . S
C657 C658 1.394 1_455 S
C658 H646 0.955 . S
C658 C657 1.394 1_655 S
C658 C659 1.390 1_655 S
C659 H647 0.950 . S
C659 C655 1.393 . S
C659 C658 1.390 1_455 S
H660 C668 0.950 . S
H661 C673 0.950 . S
H662 C670 0.950 . S
H663 C672 0.950 . S
H664 C674 0.950 . S
H665 C676 0.950 . S
H666 C678 0.950 . S
H667 C679 0.950 . S
C668 H660 0.950 . S
C668 C669 1.386 . S
C668 C670 1.391 . S
C669 C668 1.386 . S
C669 C673 1.393 . S
C670 H662 0.950 . S
C670 C668 1.391 . S
C670 C671 1.400 . S
C671 C670 1.400 . S
C671 C672 1.398 . S
C671 C677 1.491 1_455 S
C672 H663 0.950 . S
C672 C671 1.398 . S
C672 C673 1.391 . S
C673 H661 0.950 . S
C673 C669 1.393 . S
C673 C672 1.391 . S
C674 H664 0.950 . S
C674 C675 1.386 . S
C674 C676 1.391 . S
C675 C674 1.386 . S
C675 C679 1.393 . S
C676 H665 0.950 . S
C676 C674 1.391 . S
C676 C677 1.400 . S
C677 C671 1.491 1_655 S
C677 C676 1.400 . S
C677 C678 1.398 . S
C678 H666 0.950 . S
C678 C677 1.398 . S
C678 C679 1.391 . S
C679 H667 0.950 . S
C679 C675 1.393 . S
C679 C678 1.391 . S
H680 C688 0.950 . S
H681 C693 0.950 . S
H682 C690 0.950 . S
H683 C692 0.950 . S
H684 C694 0.950 . S
H685 C696 0.950 . S
H686 C698 0.950 . S
H687 C699 0.950 . S
C688 H680 0.950 . S
C688 C689 1.386 . S
C688 C690 1.391 . S
C689 C688 1.386 . S
C689 C693 1.393 . S
C690 H682 0.950 . S
C690 C688 1.391 . S
C690 C691 1.400 . S
C691 C690 1.400 . S
C691 C692 1.398 . S
C691 C697 1.491 1_565 S
C692 H683 0.950 . S
C692 C691 1.398 . S
C692 C693 1.391 . S
C693 H681 0.950 . S
C693 C689 1.393 . S
C693 C692 1.391 . S
C694 H684 0.950 . S
C694 C695 1.386 . S
C694 C696 1.391 . S
C695 C694 1.386 . S
C695 C699 1.393 . S
C696 H685 0.950 . S
C696 C694 1.391 . S
C696 C697 1.400 . S
C697 C691 1.491 1_545 S
C697 C696 1.400 . S
C697 C698 1.398 . S
C698 H686 0.950 . S
C698 C697 1.398 . S
C698 C699 1.391 . S
C699 H687 0.950 . S
C699 C695 1.393 . S
C699 C698 1.391 . S
H700 C708 0.950 . S
H701 C713 0.950 . S
H702 C710 0.950 . S
H703 C712 0.950 . S
H704 C714 0.950 . S
H705 C716 0.950 . S
H706 C718 0.950 . S
H707 C719 0.950 . S
C708 H700 0.950 . S
C708 C709 1.386 . S
C708 C710 1.391 . S
C709 C708 1.386 . S
C709 C713 1.393 . S
C710 H702 0.950 . S
C710 C708 1.391 . S
C710 C711 1.400 . S
C711 C710 1.400 . S
C711 C712 1.398 . S
C711 C717 1.491 . S
C712 H703 0.950 . S
C712 C711 1.398 . S
C712 C713 1.391 . S
C713 H701 0.950 . S
C713 C709 1.393 . S
C713 C712 1.391 . S
C714 H704 0.950 . S
C714 C715 1.386 . S
C714 C716 1.391 . S
C715 C714 1.386 . S
C715 C719 1.393 . S
C716 H705 0.950 . S
C716 C714 1.391 . S
C716 C717 1.400 . S
C717 C711 1.491 . S
C717 C716 1.400 . S
C717 C718 1.398 . S
C718 H706 0.950 . S
C718 C717 1.398 . S
C718 C719 1.391 . S
C719 H707 0.950 . S
C719 C715 1.393 . S
C719 C718 1.391 . S
H720 C728 0.950 . S
H721 C733 0.950 . S
H722 C730 0.950 . S
H723 C732 0.950 . S
H724 C734 0.950 . S
H725 C736 0.950 . S
H726 C738 0.950 . S
H727 C739 0.950 . S
C728 H720 0.950 . S
C728 C729 1.386 . S
C728 C730 1.391 1_565 S
C729 C728 1.386 . S
C729 C733 1.393 . S
C730 H722 0.950 . S
C730 C728 1.391 1_545 S
C730 C731 1.400 1_545 S
C731 C730 1.400 1_565 S
C731 C732 1.398 . S
C731 C737 1.491 1_565 S
C732 H723 0.950 . S
C732 C731 1.398 . S
C732 C733 1.391 . S
C733 H721 0.950 . S
C733 C729 1.393 . S
C733 C732 1.391 . S
C734 H724 0.950 . S
C734 C735 1.386 . S
C734 C736 1.391 1_545 S
C735 C734 1.386 . S
C735 C739 1.393 . S
C736 H725 0.950 . S
C736 C734 1.391 1_565 S
C736 C737 1.400 1_565 S
C737 C731 1.491 1_545 S
C737 C736 1.400 1_545 S
C737 C738 1.398 . S
C738 H726 0.950 . S
C738 C737 1.398 . S
C738 C739 1.391 . S
C739 H727 0.950 . S
C739 C735 1.393 . S
C739 C738 1.391 . S
H740 C748 0.950 . S
H741 C753 0.950 . S
H742 C750 0.950 . S
H743 C752 0.950 . S
H744 C754 0.950 . S
H745 C756 0.950 . S
H746 C758 0.950 . S
H747 C759 0.950 . S
C748 H740 0.950 . S
C748 C749 1.386 . S
C748 C750 1.391 . S
C749 C748 1.386 . S
C749 C753 1.393 . S
C750 H742 0.950 . S
C750 C748 1.391 . S
C750 C751 1.400 . S
C751 C750 1.400 . S
C751 C752 1.398 . S
C751 C757 1.491 . S
C752 H743 0.950 . S
C752 C751 1.398 . S
C752 C753 1.391 . S
C753 H741 0.950 . S
C753 C749 1.393 . S
C753 C752 1.391 . S
C754 H744 0.950 . S
C754 C755 1.386 . S
C754 C756 1.391 . S
C755 C754 1.386 . S
C755 C759 1.393 . S
C756 H745 0.950 . S
C756 C754 1.391 . S
C756 C757 1.400 . S
C757 C751 1.491 . S
C757 C756 1.400 . S
C757 C758 1.398 . S
C758 H746 0.950 . S
C758 C757 1.398 . S
C758 C759 1.391 . S
C759 H747 0.950 . S
C759 C755 1.393 . S
C759 C758 1.391 . S
H760 C768 0.950 . S
H761 C773 0.950 . S
H762 C770 0.950 . S
H763 C772 0.950 . S
H764 C774 0.950 . S
H765 C776 0.950 . S
H766 C778 0.950 . S
H767 C779 0.950 . S
C768 H760 0.950 . S
C768 C769 1.386 . S
C768 C770 1.391 1_655 S
C769 C768 1.386 . S
C769 C773 1.393 . S
C770 H762 0.950 . S
C770 C768 1.391 1_455 S
C770 C771 1.400 1_455 S
C771 C770 1.400 1_655 S
C771 C772 1.398 . S
C771 C777 1.491 1_655 S
C772 H763 0.950 . S
C772 C771 1.398 . S
C772 C773 1.391 . S
C773 H761 0.950 . S
C773 C769 1.393 . S
C773 C772 1.391 . S
C774 H764 0.950 . S
C774 C775 1.386 . S
C774 C776 1.391 1_455 S
C775 C774 1.386 . S
C775 C779 1.393 . S
C776 H765 0.950 . S
C776 C774 1.391 1_655 S
C776 C777 1.400 1_655 S
C777 C771 1.491 1_455 S
C777 C776 1.400 1_455 S
C777 C778 1.398 . S
C778 H766 0.950 . S
C778 C777 1.398 . S
C778 C779 1.391 . S
C779 H767 0.950 . S
C779 C775 1.393 . S
C779 C778 1.391 . S
H780 C788 0.950 . S
H781 C793 0.950 . S
H782 C790 0.950 1_565 S
H783 C792 0.950 . S
H784 C794 0.950 . S
H785 C796 0.950 1_545 S
H786 C798 0.950 . S
H787 C799 0.950 . S
C788 H780 0.950 . S
C788 C789 1.386 . S
C788 C790 1.391 . S
C789 C788 1.386 . S
C789 C793 1.393 . S
C790 H782 0.950 1_545 S
C790 C788 1.391 . S
C790 C791 1.400 . S
C791 C790 1.400 . S
C791 C792 1.398 . S
C791 C797 1.491 1_545 S
C792 H783 0.950 . S
C792 C791 1.398 . S
C792 C793 1.391 . S
C793 H781 0.950 . S
C793 C789 1.393 . S
C793 C792 1.391 . S
C794 H784 0.950 . S
C794 C795 1.386 . S
C794 C796 1.391 . S
C795 C794 1.386 . S
C795 C799 1.393 . S
C796 H785 0.950 1_565 S
C796 C794 1.391 . S
C796 C797 1.400 . S
C797 C791 1.491 1_565 S
C797 C796 1.400 . S
C797 C798 1.398 . S
C798 H786 0.950 . S
C798 C797 1.398 . S
C798 C799 1.391 . S
C799 H787 0.950 . S
C799 C795 1.393 . S
C799 C798 1.391 . S
H800 C808 0.950 . S
H801 C813 0.950 . S
H802 C810 0.950 . S
H803 C812 0.950 . S
H804 C814 0.950 . S
H805 C816 0.950 . S
H806 C818 0.950 . S
H807 C819 0.950 . S
C808 H800 0.950 . S
C808 C809 1.386 . S
C808 C810 1.391 . S
C809 C808 1.386 . S
C809 C813 1.393 . S
C810 H802 0.950 . S
C810 C808 1.391 . S
C810 C811 1.400 . S
C811 C810 1.400 . S
C811 C812 1.398 . S
C811 C817 1.491 . S
C812 H803 0.950 . S
C812 C811 1.398 . S
C812 C813 1.391 . S
C813 H801 0.950 . S
C813 C809 1.393 . S
C813 C812 1.391 . S
C814 H804 0.950 . S
C814 C815 1.386 . S
C814 C816 1.391 . S
C815 C814 1.386 . S
C815 C819 1.393 . S
C816 H805 0.950 . S
C816 C814 1.391 . S
C816 C817 1.400 . S
C817 C811 1.491 . S
C817 C816 1.400 . S
C817 C818 1.398 . S
C818 H806 0.950 . S
C818 C817 1.398 . S
C818 C819 1.391 . S
C819 H807 0.950 . S
C819 C815 1.393 . S
C819 C818 1.391 . S
H820 C828 0.950 . S
H821 C833 0.950 . S
H822 C830 0.950 . S
H823 C832 0.950 1_655 S
H824 C834 0.950 . S
H825 C836 0.950 . S
H826 C838 0.950 1_455 S
H827 C839 0.950 . S
C828 H820 0.950 . S
C828 C829 1.386 . S
C828 C830 1.391 . S
C829 C828 1.386 . S
C829 C833 1.393 . S
C830 H822 0.950 . S
C830 C828 1.391 . S
C830 C831 1.400 . S
C831 C830 1.400 . S
C831 C832 1.398 . S
C831 C837 1.491 1_455 S
C832 H823 0.950 1_455 S
C832 C831 1.398 . S
C832 C833 1.391 . S
C833 H821 0.950 . S
C833 C829 1.393 . S
C833 C832 1.391 . S
C834 H824 0.950 . S
C834 C835 1.386 . S
C834 C836 1.391 . S
C835 C834 1.386 . S
C835 C839 1.393 . S
C836 H825 0.950 . S
C836 C834 1.391 . S
C836 C837 1.400 . S
C837 C831 1.491 1_655 S
C837 C836 1.400 . S
C837 C838 1.398 . S
C838 H826 0.950 1_655 S
C838 C837 1.398 . S
C838 C839 1.391 . S
C839 H827 0.950 . S
C839 C835 1.393 . S
C839 C838 1.391 . S
H840 C848 0.950 . S
H841 C853 0.950 . S
H842 C850 0.950 . S
H843 C852 0.950 . S
H844 C854 0.950 . S
H845 C856 0.950 . S
H846 C858 0.950 . S
H847 C859 0.950 . S
C848 H840 0.950 . S
C848 C849 1.386 . S
C848 C850 1.391 . S
C849 C848 1.386 . S
C849 C853 1.393 . S
C850 H842 0.950 . S
C850 C848 1.391 . S
C850 C851 1.400 . S
C851 C850 1.400 . S
C851 C852 1.398 . S
C851 C857 1.491 . S
C852 H843 0.950 . S
C852 C851 1.398 . S
C852 C853 1.391 . S
C853 H841 0.950 . S
C853 C849 1.393 . S
C853 C852 1.391 . S
C854 H844 0.950 . S
C854 C855 1.386 . S
C854 C856 1.391 . S
C855 C854 1.386 . S
C855 C859 1.393 . S
C856 H845 0.950 . S
C856 C854 1.391 . S
C856 C857 1.400 . S
C857 C851 1.491 . S
C857 C856 1.400 . S
C857 C858 1.398 . S
C858 H846 0.950 . S
C858 C857 1.398 . S
C858 C859 1.391 . S
C859 H847 0.950 . S
C859 C855 1.393 . S
C859 C858 1.391 . S
H860 C868 0.950 . S
H861 C873 0.950 . S
H862 C870 0.950 . S
H863 C872 0.950 . S
H864 C874 0.950 . S
H865 C876 0.950 . S
H866 C878 0.950 . S
H867 C879 0.950 . S
C868 H860 0.950 . S
C868 C869 1.386 . S
C868 C870 1.391 . S
C869 C868 1.386 . S
C869 C873 1.393 . S
C870 H862 0.950 . S
C870 C868 1.391 . S
C870 C871 1.400 . S
C871 C870 1.400 . S
C871 C872 1.398 . S
C871 C877 1.491 . S
C872 H863 0.950 . S
C872 C871 1.398 . S
C872 C873 1.391 . S
C873 H861 0.950 . S
C873 C869 1.393 . S
C873 C872 1.391 . S
C874 H864 0.950 . S
C874 C875 1.386 . S
C874 C876 1.391 . S
C875 C874 1.386 . S
C875 C879 1.393 . S
C876 H865 0.950 . S
C876 C874 1.391 . S
C876 C877 1.400 . S
C877 C871 1.491 . S
C877 C876 1.400 . S
C877 C878 1.398 . S
C878 H866 0.950 . S
C878 C877 1.398 . S
C878 C879 1.391 . S
C879 H867 0.950 . S
C879 C875 1.393 . S
C879 C878 1.391 . S
H880 C888 0.950 . S
H881 C893 0.950 . S
H882 C890 0.950 . S
H883 C892 0.950 . S
H884 C894 0.950 . S
H885 C896 0.950 . S
H886 C898 0.950 . S
H887 C899 0.950 . S
C888 H880 0.950 . S
C888 C889 1.386 . S
C888 C890 1.391 . S
C889 C888 1.386 . S
C889 C893 1.393 . S
C890 H882 0.950 . S
C890 C888 1.391 . S
C890 C891 1.400 . S
C891 C890 1.400 . S
C891 C892 1.398 . S
C891 C897 1.491 . S
C892 H883 0.950 . S
C892 C891 1.398 . S
C892 C893 1.391 . S
C893 H881 0.950 . S
C893 C889 1.393 . S
C893 C892 1.391 . S
C894 H884 0.950 . S
C894 C895 1.386 . S
C894 C896 1.391 . S
C895 C894 1.386 . S
C895 C899 1.393 . S
C896 H885 0.950 . S
C896 C894 1.391 . S
C896 C897 1.400 . S
C897 C891 1.491 . S
C897 C896 1.400 . S
C897 C898 1.398 . S
C898 H886 0.950 . S
C898 C897 1.398 . S
C898 C899 1.391 . S
C899 H887 0.950 . S
C899 C895 1.393 . S
C899 C898 1.391 . S
H900 C908 0.950 . S
H901 C913 0.950 . S
H902 C910 0.950 . S
H903 C912 0.950 . S
H904 C914 0.950 . S
H905 C916 0.950 . S
H906 C918 0.950 . S
H907 C919 0.950 . S
C908 H900 0.950 . S
C908 C909 1.386 . S
C908 C910 1.391 . S
C909 C908 1.386 . S
C909 C913 1.393 . S
C910 H902 0.950 . S
C910 C908 1.391 . S
C910 C911 1.400 . S
C911 C910 1.400 . S
C911 C912 1.398 . S
C911 C917 1.491 . S
C912 H903 0.950 . S
C912 C911 1.398 . S
C912 C913 1.391 . S
C913 H901 0.950 . S
C913 C909 1.393 . S
C913 C912 1.391 . S
C914 H904 0.950 . S
C914 C915 1.386 . S
C914 C916 1.391 . S
C915 C914 1.386 . S
C915 C919 1.393 . S
C916 H905 0.950 . S
C916 C914 1.391 . S
C916 C917 1.400 . S
C917 C911 1.491 . S
C917 C916 1.400 . S
C917 C918 1.398 . S
C918 H906 0.950 . S
C918 C917 1.398 . S
C918 C919 1.391 . S
C919 H907 0.950 . S
C919 C915 1.393 . S
C919 C918 1.391 . S
H920 C928 0.950 . S
H921 C933 0.950 . S
H922 C930 0.950 . S
H923 C932 0.950 . S
H924 C934 0.950 . S
H925 C936 0.950 . S
H926 C938 0.950 . S
H927 C939 0.950 . S
C928 H920 0.950 . S
C928 C929 1.386 . S
C928 C930 1.391 . S
C929 C928 1.386 . S
C929 C933 1.393 . S
C930 H922 0.950 . S
C930 C928 1.391 . S
C930 C931 1.400 . S
C931 C930 1.400 . S
C931 C932 1.398 . S
C931 C937 1.491 . S
C932 H923 0.950 . S
C932 C931 1.398 . S
C932 C933 1.391 . S
C933 H921 0.950 . S
C933 C929 1.393 . S
C933 C932 1.391 . S
C934 H924 0.950 . S
C934 C935 1.386 . S
C934 C936 1.391 . S
C935 C934 1.386 . S
C935 C939 1.393 . S
C936 H925 0.950 . S
C936 C934 1.391 . S
C936 C937 1.400 . S
C937 C931 1.491 . S
C937 C936 1.400 . S
C937 C938 1.398 . S
C938 H926 0.950 . S
C938 C937 1.398 . S
C938 C939 1.391 . S
C939 H927 0.950 . S
C939 C935 1.393 . S
C939 C938 1.391 . S
H940 C948 0.950 . S
H941 C953 0.950 . S
H942 C950 0.950 . S
H943 C952 0.950 . S
H944 C954 0.950 . S
H945 C956 0.950 . S
H946 C958 0.950 . S
H947 C959 0.950 . S
C948 H940 0.950 . S
C948 C949 1.386 . S
C948 C950 1.391 . S
C949 C948 1.386 . S
C949 C953 1.393 . S
C950 H942 0.950 . S
C950 C948 1.391 . S
C950 C951 1.400 . S
C951 C950 1.400 . S
C951 C952 1.398 . S
C951 C957 1.491 . S
C952 H943 0.950 . S
C952 C951 1.398 . S
C952 C953 1.391 . S
C953 H941 0.950 . S
C953 C949 1.393 . S
C953 C952 1.391 . S
C954 H944 0.950 . S
C954 C955 1.386 . S
C954 C956 1.391 . S
C955 C954 1.386 . S
C955 C959 1.393 . S
C956 H945 0.950 . S
C956 C954 1.391 . S
C956 C957 1.400 . S
C957 C951 1.491 . S
C957 C956 1.400 . S
C957 C958 1.398 . S
C958 H946 0.950 . S
C958 C957 1.398 . S
C958 C959 1.391 . S
C959 H947 0.950 . S
C959 C955 1.393 . S
C959 C958 1.391 . S
C249 C8 1.225 . S
C255 C168 1.237 . S
C269 C28 1.232 . S
C275 C188 1.244 . S
C289 C48 1.244 . S
C295 C208 1.233 . S
C309 C228 1.240 . S
C315 C68 1.240 . S
C329 C88 1.225 . S
C335 C128 1.240 . S
C349 C148 1.244 . S
C355 C108 1.230 . S
C369 C201 0.610 . S
C375 C1 0.610 . S
C389 C221 0.568 . S
C395 C21 0.590 . S
C409 C41 0.611 . S
C415 C121 0.609 . S
C429 C141 0.582 . S
C435 C61 0.603 . S
C449 C161 0.611 . S
C455 C81 0.597 . S
C469 C101 0.565 . S
C475 C181 0.586 . S
C489 C159 2.130 . S
C495 C19 2.143 . S
C509 C179 2.135 . S
C515 C39 2.133 . S
C529 C199 2.148 . S
C535 C59 2.142 . S
C549 C79 2.146 . S
C555 C219 2.144 . S
C569 C99 2.138 . S
C575 C239 2.149 . S
C589 C119 2.146 . S
C595 C139 2.131 . S
C609 C9 0.882 . S
C615 C69 0.856 . S
C629 C29 0.896 . S
C635 C89 0.881 . S
C649 C49 0.895 . S
C655 C109 0.877 . S
C669 C189 0.847 . S
C675 C129 0.836 . S
C689 C149 0.844 . S
C695 C209 0.837 . S
C709 C229 0.866 . S
C715 C169 0.843 . S
C729 C142 0.941 . S
C735 C2 0.952 . S
C749 C162 0.930 . S
C755 C22 0.924 . S
C769 C42 0.937 . S
C775 C182 0.948 . S
C789 C202 0.955 . S
C795 C62 0.959 . S
C809 C222 0.946 . S
C815 C82 0.955 . S
C829 C102 0.956 . S
C835 C122 0.947 . S
C849 C18 2.550 . S
C855 C218 2.549 . S
C869 C38 2.551 . S
C875 C238 2.547 1_556 S
C889 C58 2.548 1_554 S
C895 C138 2.551 . S
C909 C78 2.548 . S
C915 C158 2.546 . S
C929 C98 2.546 . S
C935 C178 2.549 1_556 S
C949 C198 2.548 . S
C955 C118 2.546 1_554 S
