# Generated by pormake.
# Topology tzs, (4)-cn, num edge types: 1
# Building blocks:
#     Node 0, Type 0, BuildingBlock: UXUYUI_clean_sbu_0, # of connection points: 4
#     Node 1, Type 0, BuildingBlock: UXUYUI_clean_sbu_0, # of connection points: 4
#     Node 2, Type 0, BuildingBlock: UXUYUI_clean_sbu_0, # of connection points: 4
#     Node 3, Type 0, BuildingBlock: UXUYUI_clean_sbu_0, # of connection points: 4
#     Node 4, Type 0, BuildingBlock: UXUYUI_clean_sbu_0, # of connection points: 4
#     Node 5, Type 0, BuildingBlock: UXUYUI_clean_sbu_0, # of connection points: 4
#     Node 6, Type 0, BuildingBlock: UXUYUI_clean_sbu_0, # of connection points: 4
#     Node 7, Type 0, BuildingBlock: UXUYUI_clean_sbu_0, # of connection points: 4
#     Node 8, Type 0, BuildingBlock: UXUYUI_clean_sbu_0, # of connection points: 4
#     Node 9, Type 0, BuildingBlock: UXUYUI_clean_sbu_0, # of connection points: 4
#     Node 10, Type 0, BuildingBlock: UXUYUI_clean_sbu_0, # of connection points: 4
#     Node 11, Type 0, BuildingBlock: UXUYUI_clean_sbu_0, # of connection points: 4
#     Node 12, Type 0, BuildingBlock: UXUYUI_clean_sbu_0, # of connection points: 4
#     Node 13, Type 0, BuildingBlock: UXUYUI_clean_sbu_0, # of connection points: 4
#     Node 14, Type 0, BuildingBlock: UXUYUI_clean_sbu_0, # of connection points: 4
#     Node 15, Type 0, BuildingBlock: UXUYUI_clean_sbu_0, # of connection points: 4
#     Edge 16, Type (0, 0), BuildingBlock: OJICUG_clean_linker_0, # of connection points: 2
#     Edge 17, Type (0, 0), BuildingBlock: OJICUG_clean_linker_0, # of connection points: 2
#     Edge 18, Type (0, 0), BuildingBlock: OJICUG_clean_linker_0, # of connection points: 2
#     Edge 19, Type (0, 0), BuildingBlock: OJICUG_clean_linker_0, # of connection points: 2
#     Edge 20, Type (0, 0), BuildingBlock: OJICUG_clean_linker_0, # of connection points: 2
#     Edge 21, Type (0, 0), BuildingBlock: OJICUG_clean_linker_0, # of connection points: 2
#     Edge 22, Type (0, 0), BuildingBlock: OJICUG_clean_linker_0, # of connection points: 2
#     Edge 23, Type (0, 0), BuildingBlock: OJICUG_clean_linker_0, # of connection points: 2
#     Edge 24, Type (0, 0), BuildingBlock: OJICUG_clean_linker_0, # of connection points: 2
#     Edge 25, Type (0, 0), BuildingBlock: OJICUG_clean_linker_0, # of connection points: 2
#     Edge 26, Type (0, 0), BuildingBlock: OJICUG_clean_linker_0, # of connection points: 2
#     Edge 27, Type (0, 0), BuildingBlock: OJICUG_clean_linker_0, # of connection points: 2
#     Edge 28, Type (0, 0), BuildingBlock: OJICUG_clean_linker_0, # of connection points: 2
#     Edge 29, Type (0, 0), BuildingBlock: OJICUG_clean_linker_0, # of connection points: 2
#     Edge 30, Type (0, 0), BuildingBlock: OJICUG_clean_linker_0, # of connection points: 2
#     Edge 31, Type (0, 0), BuildingBlock: OJICUG_clean_linker_0, # of connection points: 2
#     Edge 32, Type (0, 0), BuildingBlock: OJICUG_clean_linker_0, # of connection points: 2
#     Edge 33, Type (0, 0), BuildingBlock: OJICUG_clean_linker_0, # of connection points: 2
#     Edge 34, Type (0, 0), BuildingBlock: OJICUG_clean_linker_0, # of connection points: 2
#     Edge 35, Type (0, 0), BuildingBlock: OJICUG_clean_linker_0, # of connection points: 2
#     Edge 36, Type (0, 0), BuildingBlock: OJICUG_clean_linker_0, # of connection points: 2
#     Edge 37, Type (0, 0), BuildingBlock: OJICUG_clean_linker_0, # of connection points: 2
#     Edge 38, Type (0, 0), BuildingBlock: OJICUG_clean_linker_0, # of connection points: 2
#     Edge 39, Type (0, 0), BuildingBlock: OJICUG_clean_linker_0, # of connection points: 2
#     Edge 40, Type (0, 0), BuildingBlock: OJICUG_clean_linker_0, # of connection points: 2
#     Edge 41, Type (0, 0), BuildingBlock: OJICUG_clean_linker_0, # of connection points: 2
#     Edge 42, Type (0, 0), BuildingBlock: OJICUG_clean_linker_0, # of connection points: 2
#     Edge 43, Type (0, 0), BuildingBlock: OJICUG_clean_linker_0, # of connection points: 2
#     Edge 44, Type (0, 0), BuildingBlock: OJICUG_clean_linker_0, # of connection points: 2
#     Edge 45, Type (0, 0), BuildingBlock: OJICUG_clean_linker_0, # of connection points: 2
#     Edge 46, Type (0, 0), BuildingBlock: OJICUG_clean_linker_0, # of connection points: 2
#     Edge 47, Type (0, 0), BuildingBlock: OJICUG_clean_linker_0, # of connection points: 2
# Relax obj value: 0.120
# Max RMSD: 0.120
# Mean RMSD: 0.120
data_MOF--net-tzs--node1-UXUYUI_clean_sbu_0--edge1-OJICUG_clean_linker_0
_symmetry_space_group_name_H-M    P1
_symmetry_Int_Tables_number       1
_symmetry_cell_setting            triclinic
loop_
_symmetry_equiv_pos_as_xyz
'x, y, z'
_cell_length_a     57.555208
_cell_length_b     57.566308
_cell_length_c     49.421651
_cell_angle_alpha  90.00804
_cell_angle_beta   89.964848
_cell_angle_gamma 90.027575
loop_
_atom_site_label
_atom_site_type_symbol
_atom_site_fract_x
_atom_site_fract_y
_atom_site_fract_z
_atom_type_partial_charge
Li0 Li 0.16372 0.33905 0.2 0.0
Li1 Li 0.15301 0.37911 0.19867 0.0
Li2 Li 0.12261 0.3515 0.1988 0.0
Li3 Li 0.14754 0.35802 0.15722 0.0
C4 C 0.14161 0.34187 0.2489 0.0
N5 N 0.13289 0.31203 0.29154 0.0
C6 C 0.14533 0.34916 0.27553 0.0
C7 C 0.13346 0.31937 0.24399 0.0
C8 C 0.14083 0.33383 0.2968 0.0
C9 C 0.12915 0.30456 0.2658 0.0
C10 C 0.19664 0.37683 0.17814 0.0
C11 C 0.22475 0.40245 0.15771 0.0
N12 N 0.23586 0.40425 0.18191 0.0
C13 C 0.2084 0.37876 0.20275 0.0
C14 C 0.2049 0.38862 0.15537 0.0
C15 C 0.22818 0.39279 0.20427 0.0
C16 C 0.19036 0.29778 0.19692 0.0
N17 N 0.18505 0.31631 0.21281 0.0
C18 C 0.21014 0.30244 0.24777 0.0
C19 C 0.19472 0.31902 0.2377 0.0
C20 C 0.21594 0.28305 0.23189 0.0
C21 C 0.20593 0.28087 0.20608 0.0
H22 H 0.1825 0.29615 0.17714 0.0
H23 H 0.19051 0.33411 0.24976 0.0
C24 C 0.15108 0.41337 0.23836 0.0
N25 N 0.16007 0.40926 0.21338 0.0
C26 C 0.15283 0.43534 0.25008 0.0
C27 C 0.17356 0.44853 0.21045 0.0
C28 C 0.17133 0.42627 0.19942 0.0
C29 C 0.1639 0.45338 0.23595 0.0
H30 H 0.14182 0.39973 0.24884 0.0
H31 H 0.17772 0.42292 0.17926 0.0
C32 C 0.12552 0.31145 0.16279 0.0
N33 N 0.09937 0.27805 0.13661 0.0
C34 C 0.11065 0.31776 0.14168 0.0
C35 C 0.12717 0.28816 0.17051 0.0
C36 C 0.09756 0.30061 0.12871 0.0
C37 C 0.11377 0.27154 0.15707 0.0
C38 C 0.12007 0.40208 0.1743 0.0
C39 C 0.10491 0.41168 0.19336 0.0
C40 C 0.13071 0.41646 0.15515 0.0
C41 C 0.10081 0.4356 0.1931 0.0
C42 C 0.12608 0.44029 0.1555 0.0
N43 N 0.11138 0.44929 0.17434 0.0
C44 C 0.08663 0.35793 0.23538 0.0
C45 C 0.07585 0.33207 0.20032 0.0
C46 C 0.06447 0.35659 0.2467 0.0
N47 N 0.09189 0.34593 0.2125 0.0
C48 C 0.05336 0.3303 0.21089 0.0
C49 C 0.04732 0.34292 0.23422 0.0
H50 H 0.09962 0.36893 0.24465 0.0
H51 H 0.0802 0.32271 0.18215 0.0
C52 C 0.16478 0.34442 0.10593 0.0
N53 N 0.14852 0.3576 0.11867 0.0
C54 C 0.16549 0.34349 0.07765 0.0
C55 C 0.13282 0.36983 0.07624 0.0
C56 C 0.13261 0.37008 0.10448 0.0
C57 C 0.14941 0.3564 0.06244 0.0
H58 H 0.17714 0.33457 0.11777 0.0
H59 H 0.11955 0.38001 0.11511 0.0
O60 O 0.14614 0.35676 0.22793 0.0
O61 O 0.17724 0.36327 0.17622 0.0
O62 O 0.13888 0.32786 0.17538 0.0
O63 O 0.12476 0.37879 0.17464 0.0
H64 H 0.15175 0.36647 0.27971 0.0
H65 H 0.13043 0.31337 0.22362 0.0
H66 H 0.14366 0.33924 0.3175 0.0
H67 H 0.12283 0.28713 0.26227 0.0
H68 H 0.23131 0.41178 0.14031 0.0
H69 H 0.20217 0.36974 0.22054 0.0
H70 H 0.19596 0.38721 0.13616 0.0
H71 H 0.23739 0.39459 0.22323 0.0
H72 H 0.21776 0.30496 0.26759 0.0
H73 H 0.20988 0.26613 0.19326 0.0
H74 H 0.14528 0.43825 0.26987 0.0
H75 H 0.18189 0.46203 0.19866 0.0
H76 H 0.10889 0.33573 0.13571 0.0
H77 H 0.1387 0.28297 0.18672 0.0
H78 H 0.0859 0.30526 0.11243 0.0
H79 H 0.11484 0.25345 0.16286 0.0
H80 H 0.09658 0.40084 0.20834 0.0
H81 H 0.14279 0.4094 0.14054 0.0
H82 H 0.08924 0.44329 0.20786 0.0
H83 H 0.13432 0.45164 0.14094 0.0
H84 H 0.0608 0.36633 0.26495 0.0
H85 H 0.04067 0.31973 0.2004 0.0
H86 H 0.17864 0.33301 0.0678 0.0
H87 H 0.11987 0.37973 0.0653 0.0
Li88 Li 0.62396 0.15345 0.19686 0.0
Li89 Li 0.6643 0.16282 0.19882 0.0
Li90 Li 0.64847 0.14874 0.15667 0.0
Li91 Li 0.65299 0.12193 0.19817 0.0
C92 C 0.63348 0.19941 0.18422 0.0
N93 N 0.61956 0.24275 0.2019 0.0
C94 C 0.63381 0.20474 0.2118 0.0
C95 C 0.62609 0.21612 0.16562 0.0
C96 C 0.62671 0.22675 0.22034 0.0
C97 C 0.6191 0.23793 0.17496 0.0
C98 C 0.65016 0.14488 0.25254 0.0
C99 C 0.67125 0.12969 0.29081 0.0
N100 N 0.65832 0.14323 0.3076 0.0
C101 C 0.63691 0.15845 0.27021 0.0
C102 C 0.66731 0.13019 0.26293 0.0
C103 C 0.64138 0.15745 0.29797 0.0
C104 C 0.58622 0.14378 0.22941 0.0
N105 N 0.59336 0.15905 0.21016 0.0
C106 C 0.55633 0.17787 0.21063 0.0
C107 C 0.57901 0.17595 0.20065 0.0
C108 C 0.54838 0.16196 0.23012 0.0
C109 C 0.56367 0.14484 0.23961 0.0
H110 H 0.59797 0.13043 0.23643 0.0
H111 H 0.58497 0.18763 0.185 0.0
C112 C 0.6915 0.20396 0.1986 0.0
N113 N 0.68705 0.1843 0.21299 0.0
C114 C 0.70758 0.22024 0.20805 0.0
C115 C 0.71467 0.1956 0.24671 0.0
C116 C 0.69853 0.17977 0.23645 0.0
C117 C 0.71927 0.21624 0.23257 0.0
H118 H 0.68253 0.20701 0.17971 0.0
H119 H 0.69547 0.16378 0.2471 0.0
C120 C 0.60361 0.12153 0.16695 0.0
N121 N 0.5569 0.11434 0.15736 0.0
C122 C 0.59176 0.10383 0.18053 0.0
C123 C 0.59179 0.13547 0.14836 0.0
C124 C 0.56812 0.10051 0.17544 0.0
C125 C 0.56815 0.13158 0.14382 0.0
C126 C 0.70016 0.14307 0.17675 0.0
C127 C 0.70946 0.15921 0.15863 0.0
C128 C 0.71423 0.13343 0.19684 0.0
C129 C 0.73276 0.16569 0.16113 0.0
C130 C 0.73745 0.14035 0.19866 0.0
N131 N 0.74615 0.15622 0.18094 0.0
C132 C 0.65269 0.16988 0.10503 0.0
C133 C 0.64665 0.12915 0.10461 0.0
C134 C 0.65304 0.17045 0.07674 0.0
N135 N 0.64947 0.14943 0.11827 0.0
C136 C 0.64691 0.1289 0.07634 0.0
C137 C 0.65006 0.14976 0.06196 0.0
H138 H 0.65486 0.18575 0.11648 0.0
H139 H 0.64417 0.11315 0.11573 0.0
C140 C 0.64218 0.08437 0.23065 0.0
N141 N 0.65715 0.09119 0.21094 0.0
C142 C 0.64317 0.06189 0.24099 0.0
C143 C 0.67501 0.05371 0.21052 0.0
C144 C 0.67348 0.07652 0.20083 0.0
C145 C 0.65956 0.04607 0.23075 0.0
H146 H 0.62937 0.09647 0.23826 0.0
H147 H 0.68509 0.08243 0.18504 0.0
O148 O 0.64016 0.17792 0.17531 0.0
O149 O 0.64562 0.14519 0.22535 0.0
O150 O 0.62652 0.12566 0.17238 0.0
O151 O 0.67722 0.13711 0.17519 0.0
H152 H 0.63962 0.1921 0.22641 0.0
H153 H 0.62567 0.21222 0.1442 0.0
H154 H 0.62692 0.23111 0.24163 0.0
H155 H 0.61331 0.25102 0.1608 0.0
H156 H 0.68459 0.11853 0.29909 0.0
H157 H 0.62321 0.16954 0.26262 0.0
H158 H 0.67767 0.11949 0.24959 0.0
H159 H 0.63131 0.16792 0.31186 0.0
H160 H 0.54492 0.19117 0.20267 0.0
H161 H 0.55823 0.13237 0.25475 0.0
H162 H 0.71055 0.23595 0.19651 0.0
H163 H 0.72367 0.19156 0.26536 0.0
H164 H 0.60067 0.09297 0.19506 0.0
H165 H 0.60071 0.14936 0.13785 0.0
H166 H 0.55867 0.08698 0.18592 0.0
H167 H 0.55873 0.14232 0.12962 0.0
H168 H 0.6987 0.16688 0.14304 0.0
H169 H 0.70723 0.12094 0.21104 0.0
H170 H 0.74018 0.1783 0.14739 0.0
H171 H 0.74854 0.13316 0.21422 0.0
H172 H 0.65524 0.18696 0.06658 0.0
H173 H 0.64489 0.1125 0.06589 0.0
H174 H 0.6312 0.05699 0.25692 0.0
H175 H 0.68777 0.04207 0.20184 0.0
Li176 Li 0.83989 0.66402 0.19919 0.0
Li177 Li 0.84837 0.6239 0.1979 0.0
Li178 Li 0.88042 0.6516 0.20052 0.0
Li179 Li 0.85528 0.64691 0.15745 0.0
C180 C 0.8428 0.64484 0.25023 0.0
N181 N 0.81586 0.64335 0.29647 0.0
C182 C 0.82021 0.63602 0.24918 0.0
C183 C 0.85173 0.65287 0.2748 0.0
C184 C 0.80686 0.63541 0.27277 0.0
C185 C 0.83783 0.65199 0.29796 0.0
C186 C 0.80743 0.62738 0.16623 0.0
C187 C 0.79138 0.60069 0.13356 0.0
N188 N 0.77099 0.60056 0.14747 0.0
C189 C 0.7862 0.62721 0.18001 0.0
C190 C 0.80997 0.6142 0.14265 0.0
C191 C 0.76804 0.61343 0.17029 0.0
C192 C 0.79867 0.69071 0.19977 0.0
N193 N 0.81912 0.68704 0.21281 0.0
C194 C 0.80963 0.71578 0.24592 0.0
C195 C 0.82489 0.69926 0.23537 0.0
C196 C 0.78823 0.71981 0.23308 0.0
C197 C 0.78289 0.7071 0.20959 0.0
H198 H 0.7946 0.68082 0.18178 0.0
H199 H 0.84141 0.6962 0.24514 0.0
C200 C 0.8545 0.58771 0.2339 0.0
N201 N 0.84143 0.59346 0.212 0.0
C202 C 0.8532 0.56552 0.24505 0.0
C203 C 0.82437 0.55553 0.21152 0.0
C204 C 0.82636 0.57795 0.20085 0.0
C205 C 0.8382 0.54899 0.23365 0.0
H206 H 0.86655 0.60022 0.24224 0.0
H207 H 0.81639 0.58256 0.18324 0.0
C208 C 0.86337 0.69912 0.18005 0.0
N209 N 0.85559 0.74589 0.18859 0.0
C210 C 0.84785 0.71124 0.16355 0.0
C211 C 0.87505 0.71077 0.2008 0.0
C212 C 0.84411 0.73488 0.16823 0.0
C213 C 0.87087 0.73443 0.20479 0.0
C214 C 0.88336 0.60184 0.17513 0.0
C215 C 0.89998 0.59371 0.19343 0.0
C216 C 0.87264 0.58629 0.15736 0.0
C217 C 0.90533 0.57004 0.19394 0.0
C218 C 0.87846 0.56275 0.1585 0.0
N219 N 0.89452 0.55518 0.17664 0.0
C220 C 0.91488 0.64666 0.23944 0.0
C221 C 0.92716 0.66835 0.20123 0.0
C222 C 0.93696 0.64819 0.25088 0.0
N223 N 0.9105 0.65646 0.21497 0.0
C224 C 0.94955 0.6704 0.21201 0.0
C225 C 0.95474 0.65994 0.237 0.0
H226 H 0.90128 0.63722 0.2498 0.0
H227 H 0.92315 0.6759 0.18174 0.0
C228 C 0.83973 0.66096 0.10564 0.0
N229 N 0.85571 0.64785 0.11894 0.0
C230 C 0.83944 0.66149 0.07736 0.0
C231 C 0.8718 0.63472 0.07704 0.0
C232 C 0.87165 0.63494 0.10531 0.0
C233 C 0.85555 0.64814 0.06271 0.0
H234 H 0.82705 0.67079 0.11702 0.0
H235 H 0.88417 0.62469 0.11641 0.0
O236 O 0.8561 0.64591 0.22731 0.0
O237 O 0.82526 0.64108 0.17524 0.0
O238 O 0.86674 0.67583 0.17636 0.0
O239 O 0.87731 0.62482 0.17499 0.0
H240 H 0.81311 0.62969 0.23037 0.0
H241 H 0.86917 0.65987 0.27591 0.0
H242 H 0.78933 0.62863 0.27223 0.0
H243 H 0.84449 0.65821 0.3171 0.0
H244 H 0.79317 0.59029 0.11544 0.0
H245 H 0.7837 0.63769 0.19794 0.0
H246 H 0.82612 0.61424 0.13153 0.0
H247 H 0.75157 0.61306 0.18083 0.0
H248 H 0.81462 0.72543 0.26381 0.0
H249 H 0.76652 0.70949 0.19918 0.0
H250 H 0.86403 0.56126 0.26227 0.0
H251 H 0.81277 0.54319 0.20195 0.0
H252 H 0.83858 0.70243 0.14753 0.0
H253 H 0.88698 0.70158 0.21389 0.0
H254 H 0.83202 0.74446 0.15574 0.0
H255 H 0.87968 0.74366 0.22086 0.0
H256 H 0.90845 0.60549 0.20732 0.0
H257 H 0.85978 0.59228 0.14305 0.0
H258 H 0.91801 0.56348 0.20816 0.0
H259 H 0.87015 0.5505 0.14502 0.0
H260 H 0.94012 0.64012 0.27032 0.0
H261 H 0.96281 0.67943 0.20054 0.0
H262 H 0.82647 0.67185 0.06707 0.0
H263 H 0.88463 0.62435 0.0665 0.0
Li264 Li 0.3819 0.84849 0.19966 0.0
Li265 Li 0.34162 0.83893 0.20077 0.0
Li266 Li 0.35885 0.85393 0.15934 0.0
Li267 Li 0.35365 0.87922 0.19902 0.0
C268 C 0.37073 0.8024 0.18748 0.0
N269 N 0.37969 0.75834 0.20703 0.0
C270 C 0.37494 0.79898 0.21505 0.0
C271 C 0.37108 0.78342 0.16986 0.0
C272 C 0.37943 0.77658 0.22454 0.0
C273 C 0.37565 0.76128 0.18013 0.0
C274 C 0.34577 0.86217 0.24999 0.0
C275 C 0.30868 0.87331 0.26865 0.0
N276 N 0.31823 0.87358 0.29382 0.0
C277 C 0.35522 0.86259 0.27601 0.0
C278 C 0.32231 0.8676 0.24623 0.0
C279 C 0.341 0.86838 0.29792 0.0
C280 C 0.41951 0.85773 0.2325 0.0
N281 N 0.41225 0.84245 0.21335 0.0
C282 C 0.44909 0.82327 0.21387 0.0
C283 C 0.42643 0.82536 0.20392 0.0
C284 C 0.45719 0.83914 0.23332 0.0
C285 C 0.44202 0.85642 0.24278 0.0
H286 H 0.40788 0.87126 0.23939 0.0
H287 H 0.42036 0.8137 0.18829 0.0
C288 C 0.30144 0.81091 0.19789 0.0
N289 N 0.31911 0.81752 0.2144 0.0
C290 C 0.28486 0.79491 0.20687 0.0
C291 C 0.30496 0.7929 0.24971 0.0
C292 C 0.32117 0.80884 0.23987 0.0
C293 C 0.28649 0.78563 0.23314 0.0
H294 H 0.30035 0.81796 0.17763 0.0
H295 H 0.33546 0.81422 0.25259 0.0
C296 C 0.40365 0.87743 0.16648 0.0
N297 N 0.44953 0.87924 0.15008 0.0
C298 C 0.41769 0.89615 0.17404 0.0
C299 C 0.41294 0.85966 0.15051 0.0
C300 C 0.44084 0.89674 0.16556 0.0
C301 C 0.43617 0.86089 0.14243 0.0
C302 C 0.31785 0.87921 0.16052 0.0
C303 C 0.33001 0.89792 0.14931 0.0
C304 C 0.29426 0.87639 0.15476 0.0
C305 C 0.31831 0.91351 0.13248 0.0
C306 C 0.28318 0.89236 0.13785 0.0
N307 N 0.29533 0.91043 0.12715 0.0
C308 C 0.34592 0.83593 0.10809 0.0
C309 C 0.36857 0.87026 0.10643 0.0
C310 C 0.3445 0.8354 0.07983 0.0
N311 N 0.35785 0.85317 0.12073 0.0
C312 C 0.36779 0.8703 0.07821 0.0
C313 C 0.35555 0.85277 0.06442 0.0
H314 H 0.33734 0.82269 0.12 0.0
H315 H 0.37771 0.88396 0.11694 0.0
C316 C 0.36751 0.92089 0.22175 0.0
N317 N 0.34835 0.90995 0.21204 0.0
C318 C 0.36599 0.9435 0.23167 0.0
C319 C 0.32471 0.94289 0.22266 0.0
C320 C 0.3271 0.92029 0.21261 0.0
C321 C 0.34442 0.95486 0.23205 0.0
H322 H 0.38399 0.91191 0.22195 0.0
H323 H 0.312 0.91102 0.20532 0.0
O324 O 0.36609 0.82411 0.17762 0.0
O325 O 0.35963 0.85664 0.22842 0.0
O326 O 0.38115 0.87606 0.17534 0.0
O327 O 0.32887 0.86354 0.17688 0.0
H328 H 0.37478 0.81343 0.22901 0.0
H329 H 0.36781 0.7858 0.14847 0.0
H330 H 0.38271 0.77368 0.24582 0.0
H331 H 0.37596 0.74643 0.16673 0.0
H332 H 0.29051 0.87754 0.26604 0.0
H333 H 0.37336 0.85847 0.27923 0.0
H334 H 0.31465 0.86738 0.22628 0.0
H335 H 0.34808 0.86876 0.31819 0.0
H336 H 0.46036 0.80987 0.20586 0.0
H337 H 0.44752 0.86886 0.25792 0.0
H338 H 0.27115 0.78959 0.19321 0.0
H339 H 0.30679 0.78653 0.27021 0.0
H340 H 0.41084 0.9101 0.1863 0.0
H341 H 0.40242 0.84487 0.14477 0.0
H342 H 0.45192 0.9111 0.17131 0.0
H343 H 0.4436 0.84719 0.1302 0.0
H344 H 0.34824 0.90047 0.15355 0.0
H345 H 0.28462 0.86197 0.16327 0.0
H346 H 0.3275 0.92805 0.12368 0.0
H347 H 0.26491 0.89038 0.13322 0.0
H348 H 0.33455 0.82173 0.07022 0.0
H349 H 0.3769 0.88387 0.06735 0.0
H350 H 0.3815 0.95194 0.23926 0.0
H351 H 0.30777 0.95106 0.22268 0.0
Li352 Li 0.12493 0.65331 0.31096 0.0
Li353 Li 0.1509 0.64818 0.35029 0.0
Li354 Li 0.16608 0.66461 0.30807 0.0
Li355 Li 0.15602 0.62339 0.3108 0.0
C356 C 0.13526 0.69996 0.32644 0.0
N357 N 0.12257 0.74505 0.31435 0.0
C358 C 0.13098 0.71584 0.34724 0.0
C359 C 0.13314 0.70701 0.29952 0.0
C360 C 0.12456 0.73856 0.34071 0.0
C361 C 0.12671 0.72988 0.2938 0.0
C362 C 0.12638 0.60662 0.35108 0.0
C363 C 0.14397 0.57642 0.37796 0.0
N364 N 0.1225 0.56793 0.38384 0.0
C365 C 0.10449 0.5976 0.35736 0.0
C366 C 0.14631 0.59595 0.36142 0.0
C367 C 0.10289 0.57803 0.37397 0.0
C368 C 0.08591 0.6403 0.28287 0.0
N369 N 0.09402 0.65792 0.29852 0.0
C370 C 0.05778 0.67798 0.29476 0.0
C371 C 0.08051 0.67657 0.3047 0.0
C372 C 0.04891 0.65988 0.27866 0.0
C373 C 0.06337 0.64093 0.27265 0.0
H374 H 0.09706 0.62569 0.27836 0.0
H375 H 0.0872 0.6902 0.31755 0.0
C376 C 0.16921 0.63942 0.40266 0.0
N377 N 0.15147 0.64941 0.38877 0.0
C378 C 0.16937 0.63977 0.43092 0.0
C379 C 0.13307 0.66085 0.43006 0.0
C380 C 0.1336 0.66004 0.4018 0.0
C381 C 0.15109 0.65054 0.44505 0.0
H382 H 0.18315 0.63103 0.39178 0.0
H383 H 0.11964 0.66772 0.39019 0.0
C384 C 0.14666 0.64491 0.25508 0.0
N385 N 0.14442 0.64256 0.19925 0.0
C386 C 0.1611 0.62965 0.24085 0.0
C387 C 0.13088 0.65877 0.24086 0.0
C388 C 0.15976 0.62878 0.21265 0.0
C389 C 0.13007 0.65738 0.21266 0.0
C390 C 0.20232 0.63396 0.32251 0.0
C391 C 0.2076 0.63557 0.29498 0.0
C392 C 0.2192 0.62592 0.34056 0.0
C393 C 0.22963 0.62902 0.2859 0.0
C394 C 0.24103 0.6195 0.3307 0.0
N395 N 0.24575 0.62117 0.3038 0.0
C396 C 0.20378 0.69547 0.3101 0.0
C397 C 0.18569 0.69393 0.26707 0.0
C398 C 0.22006 0.71151 0.30058 0.0
N399 N 0.18711 0.687 0.29332 0.0
C400 C 0.20151 0.71009 0.25675 0.0
C401 C 0.21905 0.71903 0.27356 0.0
H402 H 0.20448 0.68963 0.3309 0.0
H403 H 0.17234 0.68691 0.25409 0.0
C404 C 0.14304 0.58416 0.28285 0.0
N405 N 0.16104 0.59265 0.29761 0.0
C406 C 0.14377 0.56163 0.27258 0.0
C407 C 0.18171 0.55684 0.29275 0.0
C408 C 0.18019 0.57954 0.30277 0.0
C409 C 0.16323 0.54757 0.27761 0.0
H410 H 0.12801 0.59497 0.27918 0.0
H411 H 0.19413 0.58646 0.31497 0.0
O412 O 0.14155 0.67768 0.33256 0.0
O413 O 0.12819 0.62574 0.3348 0.0
O414 O 0.1475 0.64583 0.28278 0.0
O415 O 0.18082 0.64016 0.33191 0.0
H416 H 0.13258 0.71063 0.36821 0.0
H417 H 0.13644 0.69496 0.28326 0.0
H418 H 0.12116 0.75103 0.3566 0.0
H419 H 0.125 0.73556 0.27304 0.0
H420 H 0.15924 0.568 0.3861 0.0
H421 H 0.08892 0.60566 0.34945 0.0
H422 H 0.16339 0.60264 0.35672 0.0
H423 H 0.08606 0.57086 0.37901 0.0
H424 H 0.0471 0.69277 0.3001 0.0
H425 H 0.05735 0.62675 0.26006 0.0
H426 H 0.18375 0.63183 0.44159 0.0
H427 H 0.11848 0.66906 0.44006 0.0
H428 H 0.17315 0.61845 0.25139 0.0
H429 H 0.11927 0.67042 0.2514 0.0
H430 H 0.17087 0.61708 0.20142 0.0
H431 H 0.11798 0.66806 0.20143 0.0
H432 H 0.19492 0.64196 0.28078 0.0
H433 H 0.21547 0.62454 0.36194 0.0
H434 H 0.23391 0.63021 0.26463 0.0
H435 H 0.25422 0.6132 0.34444 0.0
H436 H 0.23314 0.71814 0.31431 0.0
H437 H 0.20025 0.71524 0.23573 0.0
H438 H 0.12926 0.5553 0.26074 0.0
H439 H 0.1969 0.54648 0.29736 0.0
Li440 Li 0.35 0.12443 0.30689 0.0
Li441 Li 0.35685 0.14829 0.34909 0.0
Li442 Li 0.33896 0.16481 0.30626 0.0
Li443 Li 0.3792 0.15479 0.30764 0.0
C444 C 0.31094 0.12279 0.33515 0.0
N445 N 0.27985 0.08693 0.34361 0.0
C446 C 0.31049 0.11117 0.35997 0.0
C447 C 0.29546 0.1163 0.3147 0.0
C448 C 0.29465 0.09306 0.36384 0.0
C449 C 0.27993 0.09808 0.31935 0.0
C450 C 0.39998 0.11858 0.32937 0.0
C451 C 0.43963 0.1197 0.34502 0.0
N452 N 0.44576 0.10472 0.32497 0.0
C453 C 0.40662 0.10311 0.309 0.0
C454 C 0.41656 0.12691 0.3476 0.0
C455 C 0.42988 0.09634 0.30708 0.0
C456 C 0.34556 0.09044 0.26651 0.0
N457 N 0.34408 0.09382 0.29367 0.0
C458 C 0.33874 0.05307 0.30095 0.0
C459 C 0.34078 0.07572 0.31094 0.0
C460 C 0.34069 0.04905 0.273 0.0
C461 C 0.34388 0.06812 0.25569 0.0
H462 H 0.34883 0.10499 0.25325 0.0
H463 H 0.34042 0.07876 0.33252 0.0
C464 C 0.34259 0.16368 0.40081 0.0
N465 N 0.35638 0.14823 0.38761 0.0
C466 C 0.34172 0.16383 0.42908 0.0
C467 C 0.3693 0.13219 0.4296 0.0
C468 C 0.36951 0.13256 0.40133 0.0
C469 C 0.35523 0.14795 0.44394 0.0
H470 H 0.33218 0.17581 0.38932 0.0
H471 H 0.38012 0.12028 0.39032 0.0
C472 C 0.34848 0.15701 0.25551 0.0
N473 N 0.33068 0.17717 0.20921 0.0
C474 C 0.36097 0.17437 0.24208 0.0
C475 C 0.327 0.14982 0.2453 0.0
C476 C 0.35167 0.18434 0.2187 0.0
C477 C 0.31827 0.16026 0.22191 0.0
C478 C 0.37906 0.19558 0.33482 0.0
C479 C 0.38535 0.21051 0.31375 0.0
C480 C 0.389 0.19848 0.36041 0.0
C481 C 0.4016 0.22805 0.3186 0.0
C482 C 0.40516 0.21626 0.36445 0.0
N483 N 0.41108 0.23055 0.34363 0.0
C484 C 0.29327 0.18223 0.29828 0.0
C485 C 0.32304 0.20544 0.27915 0.0
C486 C 0.27627 0.19736 0.28843 0.0
N487 N 0.31614 0.18641 0.29335 0.0
C488 C 0.30665 0.22084 0.26864 0.0
C489 C 0.2829 0.21687 0.2732 0.0
H490 H 0.2882 0.16711 0.30981 0.0
H491 H 0.34127 0.20858 0.27571 0.0
C492 C 0.41424 0.15091 0.26905 0.0
N493 N 0.40996 0.16065 0.29363 0.0
C494 C 0.43638 0.15194 0.25765 0.0
C495 C 0.44951 0.17327 0.29685 0.0
C496 C 0.42714 0.17153 0.30771 0.0
C497 C 0.45437 0.16315 0.27163 0.0
H498 H 0.40055 0.1417 0.2586 0.0
H499 H 0.42382 0.17812 0.32776 0.0
O500 O 0.32646 0.14042 0.33088 0.0
O501 O 0.37746 0.12599 0.33101 0.0
O502 O 0.35712 0.14725 0.27865 0.0
O503 O 0.36298 0.17847 0.33063 0.0
H504 H 0.32232 0.11595 0.37602 0.0
H505 H 0.29556 0.12513 0.29539 0.0
H506 H 0.29417 0.08385 0.38291 0.0
H507 H 0.26794 0.0928 0.30366 0.0
H508 H 0.45269 0.12615 0.35885 0.0
H509 H 0.39402 0.09663 0.29461 0.0
H510 H 0.41175 0.13917 0.36324 0.0
H511 H 0.43531 0.0845 0.29131 0.0
H512 H 0.33667 0.03878 0.315 0.0
H513 H 0.34543 0.06576 0.23402 0.0
H514 H 0.33033 0.17605 0.43915 0.0
H515 H 0.38024 0.11982 0.44006 0.0
H516 H 0.37749 0.18034 0.24983 0.0
H517 H 0.3171 0.13643 0.25545 0.0
H518 H 0.36108 0.19788 0.2082 0.0
H519 H 0.30162 0.15495 0.21388 0.0
H520 H 0.37814 0.2083 0.29374 0.0
H521 H 0.38436 0.18709 0.37695 0.0
H522 H 0.40675 0.23962 0.30242 0.0
H523 H 0.41302 0.21868 0.38413 0.0
H524 H 0.25812 0.19366 0.29234 0.0
H525 H 0.31251 0.23586 0.25734 0.0
H526 H 0.43946 0.14386 0.23818 0.0
H527 H 0.46308 0.18161 0.30852 0.0
Li528 Li 0.87726 0.35111 0.30962 0.0
Li529 Li 0.85221 0.35693 0.34997 0.0
Li530 Li 0.83676 0.33967 0.30854 0.0
Li531 Li 0.84707 0.37963 0.30926 0.0
C532 C 0.87687 0.31529 0.34851 0.0
N533 N 0.90783 0.29191 0.38141 0.0
C534 C 0.89447 0.32745 0.36194 0.0
C535 C 0.87502 0.29125 0.35184 0.0
C536 C 0.90994 0.31531 0.37848 0.0
C537 C 0.89086 0.27975 0.36854 0.0
C538 C 0.87773 0.40172 0.33841 0.0
C539 C 0.86472 0.43737 0.35913 0.0
N540 N 0.8824 0.44895 0.34682 0.0
C541 C 0.89586 0.41395 0.3261 0.0
C542 C 0.86206 0.41349 0.35514 0.0
C543 C 0.89789 0.43783 0.33055 0.0
C544 C 0.91581 0.3633 0.28006 0.0
N545 N 0.90781 0.34574 0.29586 0.0
C546 C 0.94348 0.32496 0.29027 0.0
C547 C 0.92089 0.32648 0.30059 0.0
C548 C 0.95254 0.34331 0.2747 0.0
C549 C 0.93817 0.36248 0.26926 0.0
H550 H 0.90475 0.37805 0.27591 0.0
H551 H 0.91396 0.31235 0.31247 0.0
C552 C 0.83554 0.34238 0.40119 0.0
N553 N 0.85137 0.35619 0.38857 0.0
C554 C 0.8349 0.34119 0.42946 0.0
C555 C 0.86675 0.36853 0.43113 0.0
C556 C 0.86697 0.36897 0.4029 0.0
C557 C 0.85056 0.35452 0.44477 0.0
H558 H 0.82348 0.33224 0.38925 0.0
H559 H 0.87974 0.37938 0.39241 0.0
C560 C 0.8592 0.34285 0.25919 0.0
N561 N 0.86882 0.31431 0.21565 0.0
C562 C 0.85767 0.35146 0.23282 0.0
C563 C 0.86568 0.31972 0.26343 0.0
C564 C 0.86259 0.33675 0.21107 0.0
C565 C 0.87046 0.30558 0.24115 0.0
C566 C 0.80065 0.3695 0.32273 0.0
C567 C 0.79654 0.37428 0.29542 0.0
C568 C 0.7822 0.36991 0.3411 0.0
C569 C 0.77396 0.37936 0.28694 0.0
C570 C 0.75986 0.37508 0.33183 0.0
N571 N 0.75624 0.37965 0.30516 0.0
C572 C 0.81048 0.29813 0.3099 0.0
C573 C 0.8053 0.32059 0.2702 0.0
C574 C 0.79506 0.28128 0.30025 0.0
N575 N 0.81529 0.31727 0.29482 0.0
C576 C 0.78974 0.30427 0.25982 0.0
C577 C 0.78444 0.28422 0.27484 0.0
H578 H 0.81873 0.29591 0.32939 0.0
H579 H 0.8094 0.33593 0.25854 0.0
C580 C 0.85524 0.41609 0.27413 0.0
N581 N 0.84113 0.40984 0.29493 0.0
C582 C 0.85412 0.43843 0.26337 0.0
C583 C 0.82335 0.44738 0.29503 0.0
C584 C 0.82519 0.42482 0.30536 0.0
C585 C 0.83822 0.4545 0.27403 0.0
H586 H 0.86781 0.40382 0.26637 0.0
H587 H 0.81438 0.41949 0.32216 0.0
O588 O 0.86129 0.32672 0.33242 0.0
O589 O 0.87493 0.37848 0.33362 0.0
O590 O 0.85439 0.35717 0.28057 0.0
O591 O 0.82259 0.36459 0.33167 0.0
H592 H 0.89631 0.34601 0.35952 0.0
H593 H 0.86149 0.2816 0.3416 0.0
H594 H 0.92365 0.32449 0.38896 0.0
H595 H 0.88964 0.26114 0.37128 0.0
H596 H 0.85262 0.44672 0.37186 0.0
H597 H 0.9082 0.40514 0.31319 0.0
H598 H 0.84775 0.40434 0.36456 0.0
H599 H 0.91177 0.44754 0.32105 0.0
H600 H 0.95389 0.30983 0.29494 0.0
H601 H 0.94411 0.37673 0.25674 0.0
H602 H 0.82211 0.33022 0.43924 0.0
H603 H 0.87937 0.37877 0.44218 0.0
H604 H 0.85269 0.36933 0.22922 0.0
H605 H 0.86699 0.3127 0.28364 0.0
H606 H 0.86144 0.34318 0.19055 0.0
H607 H 0.87547 0.28765 0.24414 0.0
H608 H 0.81061 0.37417 0.28093 0.0
H609 H 0.78513 0.36629 0.36233 0.0
H610 H 0.77053 0.38309 0.26586 0.0
H611 H 0.74542 0.37546 0.34583 0.0
H612 H 0.79175 0.26599 0.31241 0.0
H613 H 0.78175 0.30749 0.24035 0.0
H614 H 0.8657 0.44314 0.24698 0.0
H615 H 0.81102 0.45934 0.30397 0.0
Li616 Li 0.65317 0.87765 0.31121 0.0
Li617 Li 0.64726 0.85325 0.35271 0.0
Li618 Li 0.66592 0.83717 0.31065 0.0
Li619 Li 0.62568 0.84694 0.31172 0.0
C620 C 0.68909 0.87837 0.35054 0.0
N621 N 0.71242 0.90972 0.38302 0.0
C622 C 0.67674 0.89516 0.36509 0.0
C623 C 0.71329 0.87755 0.35249 0.0
C624 C 0.68886 0.91083 0.38142 0.0
C625 C 0.72478 0.89356 0.369 0.0
C626 C 0.60229 0.87844 0.33797 0.0
C627 C 0.56563 0.86777 0.35816 0.0
N628 N 0.55473 0.88384 0.3425 0.0
C629 C 0.59075 0.89495 0.32221 0.0
C630 C 0.58965 0.86476 0.35616 0.0
C631 C 0.56669 0.89737 0.32473 0.0
C632 C 0.64231 0.91401 0.27737 0.0
N633 N 0.65823 0.90795 0.29637 0.0
C634 C 0.67718 0.94476 0.29174 0.0
C635 C 0.67585 0.92258 0.30324 0.0
C636 C 0.66043 0.95179 0.27273 0.0
C637 C 0.64308 0.93586 0.26523 0.0
H638 H 0.62888 0.9018 0.27171 0.0
H639 H 0.68881 0.91727 0.3177 0.0
C640 C 0.66199 0.83747 0.4042 0.0
N641 N 0.64778 0.85273 0.39134 0.0
C642 C 0.66311 0.83712 0.43248 0.0
C643 C 0.63479 0.86808 0.43366 0.0
C644 C 0.63442 0.86798 0.40543 0.0
C645 C 0.64935 0.85258 0.44768 0.0
H646 H 0.67263 0.82571 0.39244 0.0
H647 H 0.62353 0.88021 0.39474 0.0
C648 C 0.66257 0.85858 0.26143 0.0
N649 N 0.69181 0.86765 0.21832 0.0
C650 C 0.65472 0.8556 0.2349 0.0
C651 C 0.68532 0.86616 0.26603 0.0
C652 C 0.66976 0.86028 0.21338 0.0
C653 C 0.69982 0.87066 0.24397 0.0
C654 C 0.62842 0.804 0.33533 0.0
C655 C 0.62585 0.79011 0.31234 0.0
C656 C 0.61726 0.79783 0.35939 0.0
C657 C 0.61185 0.77032 0.31373 0.0
C658 C 0.60343 0.77788 0.35997 0.0
N659 N 0.60102 0.76467 0.33731 0.0
C660 C 0.70891 0.8131 0.3107 0.0
C661 C 0.68384 0.80427 0.27408 0.0
C662 C 0.7257 0.79779 0.30069 0.0
N663 N 0.68852 0.81603 0.2973 0.0
C664 C 0.7001 0.78883 0.26335 0.0
C665 C 0.7214 0.78542 0.27665 0.0
H666 H 0.71215 0.82271 0.32912 0.0
H667 H 0.66745 0.80694 0.26386 0.0
C668 C 0.59106 0.85126 0.27327 0.0
N669 N 0.5956 0.83988 0.29678 0.0
C670 C 0.56907 0.85009 0.26153 0.0
C671 C 0.55679 0.82493 0.29795 0.0
C672 C 0.57903 0.82674 0.30914 0.0
C673 C 0.5515 0.83704 0.27407 0.0
H674 H 0.60435 0.86195 0.26411 0.0
H675 H 0.5826 0.81851 0.32828 0.0
O676 O 0.67765 0.86257 0.33474 0.0
O677 O 0.62575 0.87535 0.3353 0.0
O678 O 0.64793 0.85397 0.28261 0.0
O679 O 0.6421 0.82337 0.33447 0.0
H680 H 0.65805 0.89625 0.36364 0.0
H681 H 0.72311 0.86468 0.34134 0.0
H682 H 0.67953 0.92391 0.39277 0.0
H683 H 0.74351 0.89313 0.37069 0.0
H684 H 0.55562 0.85718 0.372 0.0
H685 H 0.60022 0.90573 0.30811 0.0
H686 H 0.59824 0.85163 0.3682 0.0
H687 H 0.55752 0.90999 0.31254 0.0
H688 H 0.69087 0.95641 0.29819 0.0
H689 H 0.63016 0.9402 0.25014 0.0
H690 H 0.67489 0.82512 0.44225 0.0
H691 H 0.62359 0.88009 0.44434 0.0
H692 H 0.63719 0.84968 0.23098 0.0
H693 H 0.6918 0.86857 0.28634 0.0
H694 H 0.66391 0.85804 0.19275 0.0
H695 H 0.71745 0.87654 0.24724 0.0
H696 H 0.63438 0.79471 0.29358 0.0
H697 H 0.61918 0.8084 0.37738 0.0
H698 H 0.60956 0.75946 0.29607 0.0
H699 H 0.59461 0.77291 0.37841 0.0
H700 H 0.74197 0.79591 0.31146 0.0
H701 H 0.69588 0.77944 0.24501 0.0
H702 H 0.56574 0.85961 0.24303 0.0
H703 H 0.54361 0.815 0.30849 0.0
Li704 Li 0.85044 0.62223 0.80753 0.0
Li705 Li 0.85571 0.64771 0.85026 0.0
Li706 Li 0.83781 0.66271 0.80881 0.0
Li707 Li 0.87801 0.6545 0.80913 0.0
C708 C 0.80318 0.63898 0.8287 0.0
N709 N 0.75623 0.64609 0.82069 0.0
C710 C 0.79098 0.6544 0.84528 0.0
C711 C 0.79151 0.62706 0.80815 0.0
C712 C 0.76725 0.6578 0.84086 0.0
C713 C 0.76776 0.63091 0.80442 0.0
C714 C 0.90067 0.61995 0.83176 0.0
C715 C 0.93988 0.62506 0.84787 0.0
N716 N 0.94743 0.60936 0.82927 0.0
C717 C 0.90878 0.60371 0.81298 0.0
C718 C 0.91629 0.6306 0.8495 0.0
C719 C 0.9325 0.59864 0.81198 0.0
C720 C 0.85429 0.5874 0.76873 0.0
N721 N 0.84573 0.59187 0.7938 0.0
C722 C 0.83368 0.55235 0.7988 0.0
C723 C 0.83536 0.57503 0.80884 0.0
C724 C 0.84291 0.54707 0.77316 0.0
C725 C 0.85303 0.56505 0.75794 0.0
H726 H 0.86261 0.60113 0.75736 0.0
H727 H 0.82883 0.57911 0.82881 0.0
C728 C 0.84215 0.66347 0.90212 0.0
N729 N 0.85525 0.64752 0.88877 0.0
C730 C 0.84172 0.66382 0.93039 0.0
C731 C 0.86856 0.63155 0.93062 0.0
C732 C 0.86828 0.63168 0.90235 0.0
C733 C 0.85511 0.64774 0.94512 0.0
H734 H 0.83208 0.67597 0.89076 0.0
H735 H 0.87859 0.61923 0.89121 0.0
C736 C 0.85538 0.65926 0.75713 0.0
N737 N 0.85436 0.68542 0.71029 0.0
C738 C 0.86446 0.68176 0.75695 0.0
C739 C 0.84582 0.65002 0.73347 0.0
C740 C 0.86379 0.69472 0.73307 0.0
C741 C 0.84545 0.66353 0.71 0.0
C742 C 0.875 0.69556 0.84023 0.0
C743 C 0.87523 0.71636 0.82563 0.0
C744 C 0.88836 0.69359 0.86375 0.0
C745 C 0.88924 0.73467 0.83448 0.0
C746 C 0.9021 0.71232 0.87195 0.0
N747 N 0.90229 0.73229 0.85724 0.0
C748 C 0.81124 0.70386 0.80932 0.0
C749 C 0.80157 0.67797 0.77379 0.0
C750 C 0.79474 0.71984 0.80026 0.0
N751 N 0.81444 0.6835 0.79592 0.0
C752 C 0.78493 0.69348 0.76395 0.0
C753 C 0.78142 0.71485 0.77712 0.0
H754 H 0.82151 0.70767 0.82709 0.0
H755 H 0.80427 0.66154 0.76368 0.0
C756 C 0.9135 0.64897 0.77183 0.0
N757 N 0.90824 0.66149 0.79434 0.0
C758 C 0.9356 0.65019 0.76036 0.0
C759 C 0.94652 0.67779 0.7949 0.0
C760 C 0.92417 0.67591 0.80584 0.0
C761 C 0.95256 0.66449 0.77212 0.0
H762 H 0.90071 0.63734 0.76327 0.0
H763 H 0.91999 0.68534 0.82401 0.0
O764 O 0.82654 0.63595 0.83212 0.0
O765 O 0.87763 0.62575 0.83238 0.0
O766 O 0.85554 0.64638 0.78038 0.0
O767 O 0.86109 0.6776 0.83209 0.0
H768 H 0.7998 0.66386 0.86115 0.0
H769 H 0.80076 0.6152 0.79502 0.0
H770 H 0.7576 0.6698 0.85341 0.0
H771 H 0.75852 0.6219 0.78851 0.0
H772 H 0.9522 0.63332 0.86131 0.0
H773 H 0.89693 0.59534 0.79907 0.0
H774 H 0.91032 0.64322 0.86413 0.0
H775 H 0.93905 0.58626 0.79739 0.0
H776 H 0.82595 0.53898 0.81131 0.0
H777 H 0.86008 0.56185 0.73797 0.0
H778 H 0.83081 0.67642 0.94054 0.0
H779 H 0.87949 0.61908 0.94094 0.0
H780 H 0.87198 0.68911 0.77504 0.0
H781 H 0.83859 0.63266 0.73333 0.0
H782 H 0.87075 0.71217 0.73266 0.0
H783 H 0.83803 0.65663 0.69156 0.0
H784 H 0.8646 0.71843 0.80775 0.0
H785 H 0.8883 0.67776 0.87545 0.0
H786 H 0.88967 0.75082 0.8233 0.0
H787 H 0.91264 0.71097 0.89 0.0
H788 H 0.79235 0.73586 0.81139 0.0
H789 H 0.77526 0.68893 0.74593 0.0
H790 H 0.93946 0.63978 0.74267 0.0
H791 H 0.9592 0.68879 0.8048 0.0
Li792 Li 0.37756 0.84878 0.80989 0.0
Li793 Li 0.35376 0.85514 0.85214 0.0
Li794 Li 0.33709 0.83799 0.80893 0.0
Li795 Li 0.34747 0.87825 0.8112 0.0
C796 C 0.37879 0.80916 0.8369 0.0
N797 N 0.41432 0.7775 0.84397 0.0
C798 C 0.39044 0.80786 0.86166 0.0
C799 C 0.3851 0.79427 0.8158 0.0
C800 C 0.40838 0.79174 0.86482 0.0
C801 C 0.40315 0.77842 0.81975 0.0
C802 C 0.38384 0.8984 0.83323 0.0
C803 C 0.38193 0.93821 0.84827 0.0
N804 N 0.39809 0.94411 0.82938 0.0
C805 C 0.4005 0.90483 0.81405 0.0
C806 C 0.37451 0.91518 0.85056 0.0
C807 C 0.40746 0.92804 0.8124 0.0
C808 C 0.41144 0.84453 0.76935 0.0
N809 N 0.40808 0.84272 0.7965 0.0
C810 C 0.44874 0.83666 0.80356 0.0
C811 C 0.42615 0.83891 0.81366 0.0
C812 C 0.45275 0.83895 0.77565 0.0
C813 C 0.43372 0.8427 0.75845 0.0
H814 H 0.3969 0.84816 0.75621 0.0
H815 H 0.42312 0.83827 0.83523 0.0
C816 C 0.33959 0.83898 0.90368 0.0
N817 N 0.35381 0.85417 0.89065 0.0
C818 C 0.3393 0.83809 0.93197 0.0
C819 C 0.36825 0.86852 0.93279 0.0
C820 C 0.36817 0.86864 0.90453 0.0
C821 C 0.35365 0.85313 0.94687 0.0
H822 H 0.32842 0.82762 0.89207 0.0
H823 H 0.37961 0.88023 0.89367 0.0
C824 C 0.34461 0.84903 0.75841 0.0
N825 N 0.32349 0.83363 0.71152 0.0
C826 C 0.32747 0.8625 0.74595 0.0
C827 C 0.3511 0.82781 0.74695 0.0
C828 C 0.317 0.8544 0.72225 0.0
C829 C 0.34017 0.82029 0.72327 0.0
C830 C 0.30649 0.87758 0.839 0.0
C831 C 0.29074 0.88381 0.81874 0.0
C832 C 0.30435 0.88726 0.86483 0.0
C833 C 0.27311 0.8997 0.82466 0.0
C834 C 0.28647 0.90307 0.86994 0.0
N835 N 0.27136 0.90891 0.84992 0.0
C836 C 0.31938 0.79256 0.79988 0.0
C837 C 0.29637 0.82272 0.78139 0.0
C838 C 0.30416 0.77579 0.78966 0.0
N839 N 0.31534 0.81553 0.79545 0.0
C840 C 0.28084 0.80658 0.77058 0.0
C841 C 0.28465 0.78275 0.77463 0.0
H842 H 0.33447 0.78724 0.8113 0.0
H843 H 0.29336 0.84101 0.77828 0.0
C844 C 0.3534 0.91398 0.77415 0.0
N845 N 0.34196 0.90918 0.7976 0.0
C846 C 0.35274 0.93623 0.76303 0.0
C847 C 0.32814 0.94836 0.80004 0.0
C848 C 0.32969 0.92594 0.81079 0.0
C849 C 0.33997 0.9537 0.77601 0.0
H850 H 0.36359 0.90059 0.76442 0.0
H851 H 0.32175 0.92229 0.83008 0.0
O852 O 0.36134 0.82497 0.83332 0.0
O853 O 0.37626 0.87592 0.83455 0.0
O854 O 0.35484 0.85649 0.78183 0.0
O855 O 0.32365 0.86178 0.83379 0.0
H856 H 0.3858 0.81926 0.87819 0.0
H857 H 0.37627 0.79508 0.7965 0.0
H858 H 0.4176 0.79059 0.88384 0.0
H859 H 0.40831 0.76688 0.80355 0.0
H860 H 0.37473 0.95142 0.86138 0.0
H861 H 0.40777 0.89208 0.80037 0.0
H862 H 0.36133 0.91056 0.86523 0.0
H863 H 0.42023 0.9333 0.79755 0.0
H864 H 0.46302 0.83415 0.81752 0.0
H865 H 0.43609 0.84454 0.73681 0.0
H866 H 0.32772 0.82605 0.94207 0.0
H867 H 0.37983 0.88015 0.94352 0.0
H868 H 0.32205 0.87885 0.75468 0.0
H869 H 0.36429 0.81716 0.75636 0.0
H870 H 0.30362 0.86457 0.71248 0.0
H871 H 0.34493 0.80384 0.71427 0.0
H872 H 0.29234 0.87681 0.79855 0.0
H873 H 0.31636 0.88266 0.88076 0.0
H874 H 0.26089 0.90478 0.80913 0.0
H875 H 0.28462 0.91071 0.88983 0.0
H876 H 0.30779 0.75758 0.79315 0.0
H877 H 0.26584 0.81271 0.75945 0.0
H878 H 0.36218 0.93978 0.74452 0.0
H879 H 0.31852 0.96159 0.81088 0.0
Li880 Li 0.15113 0.37859 0.80806 0.0
Li881 Li 0.14506 0.35414 0.85012 0.0
Li882 Li 0.16378 0.33748 0.80752 0.0
Li883 Li 0.12359 0.34806 0.80894 0.0
C884 C 0.1918 0.37627 0.84313 0.0
N885 N 0.22599 0.40272 0.86744 0.0
C886 C 0.18627 0.39093 0.86474 0.0
C887 C 0.21475 0.37491 0.83403 0.0
C888 C 0.20379 0.4042 0.87672 0.0
C889 C 0.23178 0.38848 0.84653 0.0
C890 C 0.1009 0.38182 0.83203 0.0
C891 C 0.06194 0.37595 0.84865 0.0
N892 N 0.0539 0.39139 0.83005 0.0
C893 C 0.09229 0.39775 0.8132 0.0
C894 C 0.08565 0.37089 0.84999 0.0
C895 C 0.06846 0.4023 0.81247 0.0
C896 C 0.14675 0.4137 0.76949 0.0
N897 N 0.15637 0.40929 0.79407 0.0
C898 C 0.16921 0.44875 0.7975 0.0
C899 C 0.16751 0.42628 0.80812 0.0
C900 C 0.15934 0.45381 0.77214 0.0
C901 C 0.1483 0.43575 0.75797 0.0
H902 H 0.13735 0.4002 0.75898 0.0
H903 H 0.17453 0.4227 0.82788 0.0
C904 C 0.16031 0.33887 0.90159 0.0
N905 N 0.14573 0.35373 0.88864 0.0
C906 C 0.1616 0.33884 0.92985 0.0
C907 C 0.13269 0.36926 0.93085 0.0
C908 C 0.13209 0.36881 0.90261 0.0
C909 C 0.14768 0.35422 0.94493 0.0
H910 H 0.17114 0.32723 0.8899 0.0
H911 H 0.12089 0.38067 0.89181 0.0
C912 C 0.16026 0.35854 0.75797 0.0
N913 N 0.18922 0.36631 0.71428 0.0
C914 C 0.15243 0.35421 0.73168 0.0
C915 C 0.18282 0.36684 0.76203 0.0
C916 C 0.16734 0.35824 0.70986 0.0
C917 C 0.19719 0.37066 0.73969 0.0
C918 C 0.12753 0.30389 0.82916 0.0
C919 C 0.12584 0.29293 0.80401 0.0
C920 C 0.11691 0.29397 0.85181 0.0
C921 C 0.11334 0.2722 0.8019 0.0
C922 C 0.10459 0.27321 0.84887 0.0
N923 N 0.10306 0.26285 0.82418 0.0
C924 C 0.20523 0.31103 0.81053 0.0
C925 C 0.18366 0.30611 0.7701 0.0
C926 C 0.22216 0.29548 0.80135 0.0
N927 N 0.18652 0.31606 0.79482 0.0
C928 C 0.20022 0.29068 0.76003 0.0
C929 C 0.2198 0.28519 0.7757 0.0
H930 H 0.20701 0.31914 0.83017 0.0
H931 H 0.16847 0.31012 0.75814 0.0
C932 C 0.08848 0.35165 0.7708 0.0
N933 N 0.09343 0.3409 0.79459 0.0
C934 C 0.06632 0.35007 0.75959 0.0
C935 C 0.05482 0.32558 0.797 0.0
C936 C 0.07718 0.32791 0.80773 0.0
C937 C 0.0491 0.33711 0.77287 0.0
H938 H 0.10158 0.36219 0.76101 0.0
H939 H 0.08121 0.32013 0.82703 0.0
O940 O 0.17502 0.36271 0.83151 0.0
O941 O 0.12409 0.37663 0.83252 0.0
O942 O 0.14579 0.3545 0.77947 0.0
O943 O 0.13953 0.32425 0.83165 0.0
H944 H 0.16858 0.39237 0.87189 0.0
H945 H 0.21939 0.36346 0.81752 0.0
H946 H 0.19973 0.41572 0.89336 0.0
H947 H 0.24961 0.38764 0.83965 0.0
H948 H 0.0499 0.36748 0.86227 0.0
H949 H 0.10385 0.40631 0.79911 0.0
H950 H 0.09199 0.35827 0.86445 0.0
H951 H 0.06153 0.41446 0.79787 0.0
H952 H 0.17751 0.46215 0.80946 0.0
H953 H 0.14068 0.43859 0.73823 0.0
H954 H 0.17367 0.32718 0.93972 0.0
H955 H 0.12138 0.38119 0.94149 0.0
H956 H 0.13503 0.34773 0.7282 0.0
H957 H 0.18916 0.37037 0.78214 0.0
H958 H 0.16151 0.35494 0.68941 0.0
H959 H 0.21468 0.37708 0.74255 0.0
H960 H 0.1338 0.30053 0.78627 0.0
H961 H 0.1181 0.3023 0.87141 0.0
H962 H 0.11176 0.26358 0.78254 0.0
H963 H 0.09621 0.26534 0.86619 0.0
H964 H 0.23706 0.29177 0.81401 0.0
H965 H 0.19756 0.28285 0.74034 0.0
H966 H 0.06257 0.35916 0.7409 0.0
H967 H 0.04189 0.31572 0.80802 0.0
Li968 Li 0.62251 0.1517 0.80822 0.0
Li969 Li 0.64921 0.14754 0.84955 0.0
Li970 Li 0.66335 0.16271 0.80712 0.0
Li971 Li 0.65373 0.12243 0.80988 0.0
C972 C 0.64495 0.19881 0.83007 0.0
N973 N 0.66048 0.24416 0.82797 0.0
C974 C 0.66038 0.20707 0.84965 0.0
C975 C 0.63727 0.21361 0.80953 0.0
C976 C 0.66806 0.23007 0.84821 0.0
C977 C 0.64537 0.23649 0.8088 0.0
C978 C 0.62316 0.10272 0.84213 0.0
C979 C 0.63588 0.06933 0.86757 0.0
N980 N 0.6185 0.05654 0.85633 0.0
C981 C 0.60538 0.08929 0.83091 0.0
C982 C 0.63852 0.09271 0.86066 0.0
C983 C 0.60333 0.06596 0.83832 0.0
C984 C 0.58284 0.1381 0.78106 0.0
N985 N 0.5918 0.1561 0.79542 0.0
C986 C 0.55679 0.17789 0.78976 0.0
C987 C 0.57941 0.17584 0.79988 0.0
C988 C 0.54692 0.15929 0.77537 0.0
C989 C 0.56026 0.13924 0.77097 0.0
H990 H 0.59331 0.12281 0.77745 0.0
H991 H 0.58704 0.18991 0.81134 0.0
C992 C 0.67048 0.15068 0.90127 0.0
N993 N 0.6499 0.14904 0.88795 0.0
C994 C 0.67096 0.15116 0.92956 0.0
C995 C 0.62905 0.14844 0.92978 0.0
C996 C 0.62939 0.148 0.90152 0.0
C997 C 0.65004 0.14994 0.94425 0.0
H998 H 0.68653 0.15145 0.88991 0.0
H999 H 0.61329 0.14671 0.89033 0.0
C1000 C 0.64423 0.14833 0.75387 0.0
N1001 N 0.6406 0.1565 0.69893 0.0
C1002 C 0.65696 0.13491 0.73553 0.0
C1003 C 0.62942 0.1657 0.74423 0.0
C1004 C 0.65496 0.13937 0.70785 0.0
C1005 C 0.6279 0.16963 0.71639 0.0
C1006 C 0.69971 0.13203 0.82159 0.0
C1007 C 0.70438 0.13176 0.79384 0.0
C1008 C 0.71692 0.12514 0.83983 0.0
C1009 C 0.72622 0.12463 0.78478 0.0
C1010 C 0.73856 0.11809 0.82997 0.0
N1011 N 0.74272 0.11798 0.80288 0.0
C1012 C 0.70418 0.19014 0.80759 0.0
C1013 C 0.68104 0.19588 0.76857 0.0
C1014 C 0.72043 0.20634 0.79833 0.0
N1015 N 0.685 0.18509 0.79261 0.0
C1016 C 0.69684 0.21215 0.75852 0.0
C1017 C 0.71692 0.21752 0.7734 0.0
H1018 H 0.7068 0.18163 0.82685 0.0
H1019 H 0.66548 0.19223 0.75732 0.0
C1020 C 0.64414 0.08449 0.77771 0.0
N1021 N 0.65917 0.09168 0.79717 0.0
C1022 C 0.64524 0.06189 0.76772 0.0
C1023 C 0.6776 0.05445 0.79766 0.0
C1024 C 0.67576 0.07726 0.80725 0.0
C1025 C 0.66202 0.04647 0.77783 0.0
H1026 H 0.631 0.09629 0.77027 0.0
H1027 H 0.68723 0.08328 0.82308 0.0
O1028 O 0.63786 0.17616 0.83064 0.0
O1029 O 0.62608 0.12533 0.83436 0.0
O1030 O 0.64556 0.14381 0.78101 0.0
O1031 O 0.6784 0.13876 0.83102 0.0
H1032 H 0.66656 0.19576 0.86559 0.0
H1033 H 0.62546 0.2074 0.79412 0.0
H1034 H 0.68013 0.23668 0.86312 0.0
H1035 H 0.63971 0.2481 0.79291 0.0
H1036 H 0.64772 0.06131 0.88176 0.0
H1037 H 0.59338 0.09674 0.8165 0.0
H1038 H 0.65256 0.10279 0.86927 0.0
H1039 H 0.58972 0.05533 0.8297 0.0
H1040 H 0.54695 0.19358 0.79361 0.0
H1041 H 0.55335 0.12468 0.75967 0.0
H1042 H 0.68757 0.15204 0.9398 0.0
H1043 H 0.61249 0.14781 0.94016 0.0
H1044 H 0.66821 0.12112 0.74258 0.0
H1045 H 0.61946 0.17628 0.75808 0.0
H1046 H 0.66476 0.12916 0.69344 0.0
H1047 H 0.61664 0.18312 0.70868 0.0
H1048 H 0.69135 0.13712 0.77946 0.0
H1049 H 0.71355 0.12515 0.86138 0.0
H1050 H 0.73007 0.12438 0.76335 0.0
H1051 H 0.75203 0.11269 0.84386 0.0
H1052 H 0.73572 0.20984 0.81043 0.0
H1053 H 0.69317 0.22069 0.73948 0.0
H1054 H 0.63305 0.05652 0.75225 0.0
H1055 H 0.69061 0.04301 0.80618 0.0
Li1056 Li 0.87981 0.34651 0.69758 0.0
Li1057 Li 0.83956 0.33669 0.69946 0.0
Li1058 Li 0.85699 0.3525 0.65705 0.0
Li1059 Li 0.85208 0.37711 0.69806 0.0
C1060 C 0.87357 0.30162 0.6779 0.0
N1061 N 0.89478 0.25884 0.68297 0.0
C1062 C 0.87547 0.29116 0.7033 0.0
C1063 C 0.88246 0.29039 0.65507 0.0
C1064 C 0.88626 0.2695 0.70544 0.0
C1065 C 0.89312 0.26874 0.65805 0.0
C1066 C 0.84395 0.35895 0.74858 0.0
C1067 C 0.80693 0.37044 0.76718 0.0
N1068 N 0.81602 0.36907 0.79252 0.0
C1069 C 0.85292 0.35769 0.77479 0.0
C1070 C 0.82076 0.3654 0.7447 0.0
C1071 C 0.83852 0.36286 0.79675 0.0
C1072 C 0.91634 0.35384 0.73244 0.0
N1073 N 0.91012 0.33982 0.71154 0.0
C1074 C 0.94778 0.32224 0.71132 0.0
C1075 C 0.92527 0.32412 0.7009 0.0
C1076 C 0.95479 0.33697 0.73245 0.0
C1077 C 0.9387 0.35278 0.74317 0.0
H1078 H 0.90405 0.36638 0.74024 0.0
H1079 H 0.92024 0.31361 0.68378 0.0
C1080 C 0.79806 0.31048 0.69786 0.0
N1081 N 0.8171 0.31533 0.71309 0.0
C1082 C 0.7813 0.29486 0.70727 0.0
C1083 C 0.80408 0.28955 0.74786 0.0
C1084 C 0.82037 0.30526 0.73768 0.0
C1085 C 0.7842 0.28412 0.73261 0.0
H1086 H 0.79591 0.31878 0.67838 0.0
H1087 H 0.83568 0.30937 0.7494 0.0
C1088 C 0.90235 0.376 0.66741 0.0
N1089 N 0.94938 0.37794 0.65637 0.0
C1090 C 0.91608 0.39342 0.67892 0.0
C1091 C 0.91251 0.35965 0.65015 0.0
C1092 C 0.93984 0.39406 0.67314 0.0
C1093 C 0.93631 0.36093 0.64482 0.0
C1094 C 0.81561 0.37745 0.65968 0.0
C1095 C 0.82766 0.39551 0.64697 0.0
C1096 C 0.79167 0.37522 0.65579 0.0
C1097 C 0.8155 0.41106 0.63054 0.0
C1098 C 0.78014 0.39114 0.63922 0.0
N1099 N 0.7922 0.40857 0.62704 0.0
C1100 C 0.84221 0.33598 0.60578 0.0
C1101 C 0.86769 0.36828 0.6043 0.0
C1102 C 0.8405 0.33589 0.57754 0.0
N1103 N 0.85566 0.35203 0.61849 0.0
C1104 C 0.86668 0.36869 0.57609 0.0
C1105 C 0.85284 0.35243 0.56223 0.0
H1106 H 0.83261 0.32342 0.61763 0.0
H1107 H 0.87803 0.38105 0.61489 0.0
C1108 C 0.86555 0.41655 0.72551 0.0
N1109 N 0.84708 0.40763 0.71195 0.0
C1110 C 0.86466 0.43896 0.73615 0.0
C1111 C 0.82525 0.44235 0.71977 0.0
C1112 C 0.82693 0.41979 0.7094 0.0
C1113 C 0.84443 0.45233 0.73302 0.0
H1114 H 0.88103 0.40615 0.72807 0.0
H1115 H 0.81218 0.4121 0.69928 0.0
O1116 O 0.86336 0.32291 0.67531 0.0
O1117 O 0.85798 0.35397 0.72698 0.0
O1118 O 0.87919 0.37453 0.67349 0.0
O1119 O 0.82709 0.36181 0.67565 0.0
H1120 H 0.86906 0.29985 0.72119 0.0
H1121 H 0.88119 0.29837 0.63528 0.0
H1122 H 0.88795 0.26122 0.72499 0.0
H1123 H 0.90011 0.25984 0.64058 0.0
H1124 H 0.78897 0.37544 0.76447 0.0
H1125 H 0.87084 0.35275 0.77812 0.0
H1126 H 0.81344 0.36651 0.72462 0.0
H1127 H 0.84524 0.36193 0.81716 0.0
H1128 H 0.95984 0.31005 0.70229 0.0
H1129 H 0.94343 0.36436 0.75955 0.0
H1130 H 0.76613 0.29143 0.69496 0.0
H1131 H 0.80723 0.28148 0.76731 0.0
H1132 H 0.90854 0.40627 0.69222 0.0
H1133 H 0.9022 0.34586 0.64136 0.0
H1134 H 0.9507 0.40738 0.68201 0.0
H1135 H 0.94443 0.34829 0.63166 0.0
H1136 H 0.84615 0.39762 0.64982 0.0
H1137 H 0.7821 0.36132 0.66548 0.0
H1138 H 0.8246 0.42512 0.62059 0.0
H1139 H 0.76161 0.38963 0.63604 0.0
H1140 H 0.82932 0.32324 0.56788 0.0
H1141 H 0.87682 0.38155 0.56531 0.0
H1142 H 0.87964 0.44569 0.74683 0.0
H1143 H 0.8093 0.45202 0.71696 0.0
Li1144 Li 0.65333 0.87751 0.70077 0.0
Li1145 Li 0.66262 0.83709 0.70233 0.0
Li1146 Li 0.64723 0.8552 0.66 0.0
Li1147 Li 0.6224 0.85016 0.70069 0.0
C1148 C 0.69723 0.87292 0.67962 0.0
N1149 N 0.73825 0.89775 0.68165 0.0
C1150 C 0.70912 0.8753 0.7041 0.0
C1151 C 0.70622 0.88303 0.65613 0.0
C1152 C 0.72982 0.88797 0.70472 0.0
C1153 C 0.72699 0.89555 0.65759 0.0
C1154 C 0.64019 0.84123 0.75123 0.0
C1155 C 0.62856 0.804 0.76912 0.0
N1156 N 0.6296 0.81284 0.79461 0.0
C1157 C 0.64116 0.84993 0.7776 0.0
C1158 C 0.63386 0.81806 0.74692 0.0
C1159 C 0.63574 0.8353 0.79927 0.0
C1160 C 0.64762 0.91285 0.73773 0.0
N1161 N 0.66024 0.90765 0.7153 0.0
C1162 C 0.67642 0.94596 0.71472 0.0
C1163 C 0.67458 0.92364 0.70372 0.0
C1164 C 0.66315 0.95192 0.73756 0.0
C1165 C 0.64883 0.93492 0.74926 0.0
H1166 H 0.63602 0.89999 0.74623 0.0
H1167 H 0.68392 0.91947 0.68543 0.0
C1168 C 0.68725 0.79448 0.70191 0.0
N1169 N 0.68362 0.81442 0.71602 0.0
C1170 C 0.70278 0.77778 0.71161 0.0
C1171 C 0.71052 0.80251 0.75011 0.0
C1172 C 0.69477 0.81865 0.73975 0.0
C1173 C 0.71476 0.78176 0.73596 0.0
H1174 H 0.67818 0.79165 0.68304 0.0
H1175 H 0.69143 0.83458 0.75067 0.0
C1176 C 0.62472 0.90059 0.66945 0.0
N1177 N 0.62406 0.9472 0.65602 0.0
C1178 C 0.60769 0.91522 0.68023 0.0
C1179 C 0.64136 0.90969 0.65176 0.0
C1180 C 0.60768 0.93873 0.67324 0.0
C1181 C 0.64073 0.93328 0.6452 0.0
C1182 C 0.62152 0.8143 0.66185 0.0
C1183 C 0.60334 0.82682 0.65004 0.0
C1184 C 0.62351 0.79049 0.6569 0.0
C1185 C 0.58749 0.81527 0.6334 0.0
C1186 C 0.60729 0.77957 0.64016 0.0
N1187 N 0.58977 0.79208 0.62885 0.0
C1188 C 0.66505 0.84185 0.60881 0.0
C1189 C 0.63154 0.86573 0.60706 0.0
C1190 C 0.66598 0.84093 0.58054 0.0
N1191 N 0.64807 0.85421 0.62141 0.0
C1192 C 0.63199 0.86554 0.57883 0.0
C1193 C 0.6494 0.85307 0.56521 0.0
H1194 H 0.67789 0.83275 0.62076 0.0
H1195 H 0.61798 0.87509 0.61756 0.0
C1196 C 0.58154 0.86405 0.72535 0.0
N1197 N 0.59174 0.84508 0.71414 0.0
C1198 C 0.55897 0.86277 0.73546 0.0
C1199 C 0.55815 0.822 0.72377 0.0
C1200 C 0.58073 0.82415 0.71354 0.0
C1201 C 0.54691 0.84159 0.73454 0.0
H1202 H 0.59109 0.88017 0.72657 0.0
H1203 H 0.58941 0.80914 0.70518 0.0
O1204 O 0.67693 0.86067 0.67853 0.0
O1205 O 0.64546 0.85548 0.7299 0.0
O1206 O 0.62552 0.87762 0.67662 0.0
O1207 O 0.63738 0.82518 0.67811 0.0
H1208 H 0.70226 0.86775 0.72246 0.0
H1209 H 0.69721 0.88127 0.63702 0.0
H1210 H 0.73915 0.89009 0.72355 0.0
H1211 H 0.73414 0.90353 0.63961 0.0
H1212 H 0.62363 0.78606 0.76607 0.0
H1213 H 0.64608 0.8678 0.78129 0.0
H1214 H 0.63305 0.81093 0.72674 0.0
H1215 H 0.63643 0.84181 0.81978 0.0
H1216 H 0.68738 0.95868 0.70481 0.0
H1217 H 0.63842 0.93872 0.76698 0.0
H1218 H 0.7057 0.76213 0.69994 0.0
H1219 H 0.71913 0.80614 0.76913 0.0
H1220 H 0.59459 0.90856 0.69384 0.0
H1221 H 0.65491 0.89874 0.64355 0.0
H1222 H 0.59464 0.95026 0.68151 0.0
H1223 H 0.6536 0.94055 0.63166 0.0
H1224 H 0.60139 0.84521 0.65372 0.0
H1225 H 0.63745 0.78054 0.66593 0.0
H1226 H 0.57334 0.82474 0.62414 0.0
H1227 H 0.60863 0.76114 0.63616 0.0
H1228 H 0.67972 0.83119 0.57078 0.0
H1229 H 0.61869 0.87484 0.56775 0.0
H1230 H 0.55109 0.87814 0.74416 0.0
H1231 H 0.54942 0.80535 0.72282 0.0
Li1232 Li 0.12227 0.65432 0.69753 0.0
Li1233 Li 0.16292 0.66399 0.69843 0.0
Li1234 Li 0.14567 0.64852 0.65757 0.0
Li1235 Li 0.15126 0.62379 0.69653 0.0
C1236 C 0.13342 0.70024 0.68541 0.0
N1237 N 0.1239 0.74411 0.70521 0.0
C1238 C 0.12918 0.70351 0.713 0.0
C1239 C 0.1328 0.71927 0.66789 0.0
C1240 C 0.1244 0.72582 0.72262 0.0
C1241 C 0.12796 0.74132 0.67829 0.0
C1242 C 0.15853 0.64085 0.74778 0.0
C1243 C 0.19534 0.62951 0.76696 0.0
N1244 N 0.18561 0.6297 0.79205 0.0
C1245 C 0.14888 0.64089 0.77373 0.0
C1246 C 0.18194 0.63508 0.74432 0.0
C1247 C 0.16286 0.63522 0.79586 0.0
C1248 C 0.08505 0.64521 0.73094 0.0
N1249 N 0.09196 0.66016 0.71127 0.0
C1250 C 0.05485 0.67883 0.71169 0.0
C1251 C 0.07748 0.67687 0.70156 0.0
C1252 C 0.0471 0.66327 0.73168 0.0
C1253 C 0.06262 0.64645 0.74148 0.0
H1254 H 0.09694 0.63201 0.7381 0.0
H1255 H 0.08331 0.68833 0.6856 0.0
C1256 C 0.20325 0.6919 0.6961 0.0
N1257 N 0.18534 0.68535 0.71234 0.0
C1258 C 0.22002 0.70751 0.70554 0.0
C1259 C 0.19961 0.70926 0.74824 0.0
C1260 C 0.18317 0.69379 0.73792 0.0
C1261 C 0.21835 0.71632 0.73199 0.0
H1262 H 0.2045 0.68496 0.67581 0.0
H1263 H 0.16863 0.68859 0.75037 0.0
C1264 C 0.103 0.62527 0.65939 0.0
N1265 N 0.06207 0.62258 0.63041 0.0
C1266 C 0.0908 0.60432 0.65801 0.0
C1267 C 0.09438 0.64488 0.64608 0.0
C1268 C 0.07014 0.6033 0.64323 0.0
C1269 C 0.07366 0.64316 0.63152 0.0
C1270 C 0.18695 0.62385 0.65804 0.0
C1271 C 0.17519 0.60439 0.64808 0.0
C1272 C 0.21015 0.62752 0.65088 0.0
C1273 C 0.18687 0.58892 0.63108 0.0
C1274 C 0.22123 0.61164 0.63383 0.0
N1275 N 0.20945 0.59283 0.62436 0.0
C1276 C 0.15406 0.66873 0.60617 0.0
C1277 C 0.13922 0.63036 0.60455 0.0
C1278 C 0.15507 0.66963 0.5779 0.0
N1279 N 0.14625 0.64928 0.61885 0.0
C1280 C 0.13998 0.63048 0.57632 0.0
C1281 C 0.14805 0.65027 0.56258 0.0
H1282 H 0.15965 0.68349 0.61805 0.0
H1283 H 0.13305 0.61508 0.61503 0.0
C1284 C 0.13657 0.5831 0.71982 0.0
N1285 N 0.15608 0.59314 0.70976 0.0
C1286 C 0.1373 0.56065 0.73031 0.0
C1287 C 0.17834 0.55922 0.72005 0.0
C1288 C 0.17685 0.5819 0.71 0.0
C1289 C 0.15832 0.54821 0.73024 0.0
H1290 H 0.12039 0.59266 0.71975 0.0
H1291 H 0.19223 0.59044 0.70228 0.0
O1292 O 0.13828 0.67862 0.6754 0.0
O1293 O 0.14493 0.64627 0.72599 0.0
O1294 O 0.12315 0.62648 0.67399 0.0
O1295 O 0.17591 0.63942 0.67454 0.0
H1296 H 0.1295 0.68902 0.72689 0.0
H1297 H 0.13605 0.71702 0.64647 0.0
H1298 H 0.12109 0.72859 0.74392 0.0
H1299 H 0.12743 0.75621 0.66495 0.0
H1300 H 0.21348 0.62504 0.76459 0.0
H1301 H 0.13077 0.64528 0.77671 0.0
H1302 H 0.18974 0.63493 0.72443 0.0
H1303 H 0.15563 0.6352 0.81607 0.0
H1304 H 0.04334 0.69189 0.7034 0.0
H1305 H 0.05745 0.63428 0.75708 0.0
H1306 H 0.23428 0.7124 0.69241 0.0
H1307 H 0.19746 0.71591 0.76859 0.0
H1308 H 0.09724 0.58901 0.66828 0.0
H1309 H 0.10354 0.66126 0.64695 0.0
H1310 H 0.06051 0.5872 0.64198 0.0
H1311 H 0.06678 0.65819 0.62112 0.0
H1312 H 0.15727 0.60119 0.65344 0.0
H1313 H 0.21948 0.64252 0.65842 0.0
H1314 H 0.17798 0.5738 0.62323 0.0
H1315 H 0.23918 0.61427 0.62812 0.0
H1316 H 0.16165 0.68516 0.56818 0.0
H1317 H 0.13407 0.61529 0.56538 0.0
H1318 H 0.12153 0.55323 0.73856 0.0
H1319 H 0.1949 0.55032 0.71942 0.0
Li1320 Li 0.34791 0.12223 0.69729 0.0
Li1321 Li 0.33766 0.16251 0.69957 0.0
Li1322 Li 0.35426 0.14519 0.65631 0.0
Li1323 Li 0.3782 0.15157 0.69856 0.0
C1324 C 0.30671 0.12312 0.67007 0.0
N1325 N 0.27106 0.0921 0.66021 0.0
C1326 C 0.29109 0.11734 0.69067 0.0
C1327 C 0.30417 0.11316 0.64444 0.0
C1328 C 0.2732 0.10159 0.68529 0.0
C1329 C 0.28603 0.09752 0.63986 0.0
C1330 C 0.34599 0.15169 0.75034 0.0
C1331 C 0.34324 0.18056 0.78555 0.0
N1332 N 0.32669 0.16755 0.79808 0.0
C1333 C 0.32903 0.13854 0.76361 0.0
C1334 C 0.35326 0.1728 0.76144 0.0
C1335 C 0.31947 0.14688 0.78772 0.0
C1336 C 0.35372 0.08659 0.73445 0.0
N1337 N 0.34227 0.09137 0.71103 0.0
C1338 C 0.32823 0.05226 0.70878 0.0
C1339 C 0.32986 0.07464 0.69796 0.0
C1340 C 0.34009 0.04692 0.73277 0.0
C1341 C 0.35296 0.06437 0.74565 0.0
H1342 H 0.364 0.09996 0.74409 0.0
H1343 H 0.32187 0.07829 0.67871 0.0
C1344 C 0.31987 0.20796 0.7075 0.0
N1345 N 0.31616 0.18513 0.71312 0.0
C1346 C 0.30484 0.22493 0.71764 0.0
C1347 C 0.28241 0.19462 0.73914 0.0
C1348 C 0.2977 0.17825 0.72834 0.0
C1349 C 0.2859 0.21833 0.73385 0.0
H1350 H 0.33452 0.21301 0.69516 0.0
H1351 H 0.2949 0.16005 0.73232 0.0
C1352 C 0.38382 0.10178 0.67466 0.0
N1353 N 0.39703 0.05573 0.67738 0.0
C1354 C 0.40027 0.09466 0.69371 0.0
C1355 C 0.37419 0.08555 0.65688 0.0
C1356 C 0.40669 0.07127 0.6948 0.0
C1357 C 0.38108 0.06233 0.6586 0.0
C1358 C 0.37903 0.19154 0.67118 0.0
C1359 C 0.39032 0.19309 0.6462 0.0
C1360 C 0.38518 0.20669 0.69209 0.0
C1361 C 0.40777 0.20969 0.64264 0.0
C1362 C 0.40275 0.22302 0.68774 0.0
N1363 N 0.41359 0.22416 0.66331 0.0
C1364 C 0.339 0.16005 0.60471 0.0
C1365 C 0.3697 0.13264 0.60398 0.0
C1366 C 0.33871 0.16086 0.57642 0.0
N1367 N 0.35429 0.14602 0.61781 0.0
C1368 C 0.36989 0.13275 0.57572 0.0
C1369 C 0.35423 0.14697 0.56155 0.0
H1370 H 0.32697 0.17055 0.61627 0.0
H1371 H 0.38193 0.12192 0.61491 0.0
C1372 C 0.41199 0.15366 0.73907 0.0
N1373 N 0.40864 0.15751 0.71222 0.0
C1374 C 0.43416 0.15541 0.75027 0.0
C1375 C 0.44909 0.16554 0.7061 0.0
C1376 C 0.42663 0.16325 0.69565 0.0
C1377 C 0.45307 0.16123 0.73368 0.0
H1378 H 0.39755 0.14852 0.7517 0.0
H1379 H 0.42368 0.16544 0.67421 0.0
O1380 O 0.32414 0.13875 0.67476 0.0
O1381 O 0.35537 0.14397 0.72654 0.0
O1382 O 0.37674 0.12443 0.67391 0.0
O1383 O 0.36198 0.17533 0.6751 0.0
H1384 H 0.29298 0.12461 0.7107 0.0
H1385 H 0.3161 0.11741 0.62826 0.0
H1386 H 0.26107 0.09686 0.70109 0.0
H1387 H 0.28388 0.08965 0.62014 0.0
H1388 H 0.34861 0.19693 0.7943 0.0
H1389 H 0.32306 0.12225 0.75519 0.0
H1390 H 0.36641 0.18314 0.75145 0.0
H1391 H 0.30623 0.13696 0.79812 0.0
H1392 H 0.31851 0.03904 0.69803 0.0
H1393 H 0.36243 0.06082 0.76413 0.0
H1394 H 0.30819 0.24304 0.71316 0.0
H1395 H 0.26782 0.18876 0.75119 0.0
H1396 H 0.40779 0.107 0.70772 0.0
H1397 H 0.3612 0.09075 0.64225 0.0
H1398 H 0.41929 0.06546 0.70955 0.0
H1399 H 0.37363 0.04953 0.64512 0.0
H1400 H 0.38576 0.18153 0.62979 0.0
H1401 H 0.37658 0.20574 0.71152 0.0
H1402 H 0.41673 0.21104 0.62345 0.0
H1403 H 0.40778 0.23477 0.70379 0.0
H1404 H 0.32624 0.17194 0.5663 0.0
H1405 H 0.38238 0.12205 0.56506 0.0
H1406 H 0.43654 0.15193 0.77163 0.0
H1407 H 0.46333 0.16969 0.6926 0.0
C1408 C 0.24697 0.24108 0.27877 0.0
C1409 C 0.26525 0.23318 0.26233 0.0
H1410 H 0.21705 0.26306 0.28202 0.0
C1411 C 0.26685 0.24133 0.23557 0.0
H1412 H 0.24538 0.23522 0.29951 0.0
C1413 C 0.25061 0.25719 0.22553 0.0
C1414 C 0.23259 0.26544 0.24214 0.0
H1415 H 0.28065 0.23538 0.22237 0.0
H1416 H 0.25245 0.26338 0.20495 0.0
C1417 C 0.23088 0.25715 0.26883 0.0
C1418 C 0.752 0.25539 0.2813 0.0
C1419 C 0.76791 0.26658 0.26406 0.0
H1420 H 0.72406 0.231 0.28487 0.0
C1421 C 0.76776 0.26091 0.23635 0.0
H1422 H 0.75134 0.25958 0.30265 0.0
C1423 C 0.75202 0.24462 0.22614 0.0
C1424 C 0.7361 0.2335 0.24339 0.0
H1425 H 0.78003 0.26886 0.22254 0.0
H1426 H 0.75253 0.24049 0.20477 0.0
C1427 C 0.73632 0.23903 0.2711 0.0
C1428 C 0.75893 0.75175 0.227 0.0
C1429 C 0.77147 0.73696 0.24427 0.0
H1430 H 0.7337 0.77889 0.22364 0.0
C1431 C 0.76768 0.7385 0.27233 0.0
H1432 H 0.76171 0.75128 0.20533 0.0
C1433 C 0.7516 0.75431 0.28284 0.0
C1434 C 0.73892 0.76897 0.26555 0.0
H1435 H 0.7768 0.72713 0.28618 0.0
H1436 H 0.74874 0.75468 0.3045 0.0
C1437 C 0.74287 0.76757 0.23751 0.0
C1438 C 0.27619 0.74978 0.25971 0.0
C1439 C 0.26918 0.76841 0.24319 0.0
H1440 H 0.26597 0.71956 0.28199 0.0
C1441 C 0.2455 0.7705 0.23654 0.0
H1442 H 0.29432 0.74733 0.26482 0.0
C1443 C 0.22927 0.75444 0.24625 0.0
C1444 C 0.2363 0.73597 0.26296 0.0
H1445 H 0.23941 0.7848 0.22422 0.0
H1446 H 0.21113 0.75673 0.24109 0.0
C1447 C 0.25995 0.73382 0.26953 0.0
C1448 C 0.72682 0.74065 0.74584 0.0
C1449 C 0.73177 0.76456 0.74645 0.0
H1450 H 0.73828 0.70628 0.75556 0.0
C1451 C 0.75313 0.77197 0.75719 0.0
H1452 H 0.71039 0.73441 0.73801 0.0
C1453 C 0.76917 0.75587 0.76709 0.0
C1454 C 0.76423 0.73194 0.76662 0.0
H1455 H 0.75762 0.79024 0.75755 0.0
H1456 H 0.78564 0.7622 0.77471 0.0
C1457 C 0.74283 0.72453 0.75588 0.0
C1458 C 0.24367 0.75156 0.7266 0.0
C1459 C 0.23589 0.73293 0.7426 0.0
H1460 H 0.2652 0.78186 0.72417 0.0
C1461 C 0.24466 0.73052 0.769 0.0
H1462 H 0.23711 0.75398 0.70626 0.0
C1463 C 0.26072 0.74648 0.77925 0.0
C1464 C 0.26821 0.76532 0.76342 0.0
H1465 H 0.23915 0.71621 0.78172 0.0
H1466 H 0.26692 0.74432 0.79978 0.0
C1467 C 0.25958 0.76764 0.73694 0.0
C1468 C 0.24526 0.27005 0.73844 0.0
C1469 C 0.23745 0.26861 0.76535 0.0
H1470 H 0.26672 0.25533 0.70743 0.0
C1471 C 0.24617 0.25088 0.78204 0.0
H1472 H 0.239 0.28364 0.72517 0.0
C1473 C 0.262 0.23466 0.77187 0.0
C1474 C 0.26964 0.23597 0.74488 0.0
H1475 H 0.24035 0.24925 0.8028 0.0
H1476 H 0.26832 0.2211 0.78516 0.0
C1477 C 0.26127 0.25397 0.72836 0.0
C1478 C 0.7401 0.23499 0.73539 0.0
C1479 C 0.73403 0.2347 0.76295 0.0
H1480 H 0.76086 0.25048 0.7043 0.0
C1481 C 0.74445 0.25091 0.78042 0.0
H1482 H 0.73266 0.22252 0.72145 0.0
C1483 C 0.76059 0.267 0.77057 0.0
C1484 C 0.76674 0.26724 0.74302 0.0
H1485 H 0.73989 0.2514 0.80168 0.0
H1486 H 0.76803 0.27946 0.78452 0.0
C1487 C 0.75626 0.25105 0.72554 0.0
C1488 C 0.14678 0.37591 0.98917 0.0
C1489 C 0.1488 0.35475 0.97508 0.0
H1490 H 0.14556 0.39301 0.02763 0.0
C1491 C 0.15165 0.33416 0.99008 0.0
H1492 H 0.14509 0.39218 0.97837 0.0
C1493 C 0.15219 0.33471 0.01839 0.0
C1494 C 0.14973 0.35582 0.03238 0.0
H1495 H 0.15294 0.31751 0.98 0.0
H1496 H 0.15397 0.31852 0.02936 0.0
C1497 C 0.14713 0.37642 0.01744 0.0
C1498 C 0.63462 0.13572 0.98894 0.0
C1499 C 0.65007 0.14998 0.97442 0.0
H1500 H 0.62226 0.12469 0.02769 0.0
C1501 C 0.66553 0.16421 0.98896 0.0
H1502 H 0.62266 0.12432 0.97846 0.0
C1503 C 0.66553 0.16418 0.01729 0.0
C1504 C 0.65007 0.14991 0.0318 0.0
H1505 H 0.67751 0.17559 0.97847 0.0
H1506 H 0.67784 0.17517 0.0278 0.0
C1507 C 0.6346 0.1357 0.01723 0.0
C1508 C 0.85355 0.66888 0.98982 0.0
C1509 C 0.85509 0.64786 0.97533 0.0
H1510 H 0.85253 0.68543 0.02867 0.0
C1511 C 0.85668 0.62695 0.99 0.0
H1512 H 0.85273 0.68537 0.97933 0.0
C1513 C 0.85694 0.62707 0.01829 0.0
C1514 C 0.85533 0.64806 0.03266 0.0
H1515 H 0.85742 0.61039 0.97966 0.0
H1516 H 0.85802 0.61067 0.02896 0.0
C1517 C 0.85353 0.66896 0.01813 0.0
C1518 C 0.35476 0.83174 0.0196 0.0
C1519 C 0.35435 0.85272 0.03425 0.0
H1520 H 0.35491 0.81542 0.98057 0.0
C1521 C 0.35313 0.87375 0.01978 0.0
H1522 H 0.35603 0.81522 0.02995 0.0
C1523 C 0.35283 0.87383 0.99151 0.0
C1524 C 0.35345 0.85289 0.97693 0.0
H1525 H 0.35224 0.89023 0.03027 0.0
H1526 H 0.35187 0.89032 0.98101 0.0
C1527 C 0.35419 0.83183 0.99127 0.0
C1528 C 0.14266 0.67045 0.51781 0.0
C1529 C 0.14921 0.65057 0.53248 0.0
H1530 H 0.13826 0.68612 0.47884 0.0
C1531 C 0.15664 0.63082 0.51814 0.0
H1532 H 0.13666 0.6859 0.5282 0.0
C1533 C 0.15736 0.63087 0.48987 0.0
C1534 C 0.15064 0.65068 0.47518 0.0
H1535 H 0.16207 0.6153 0.52878 0.0
H1536 H 0.16285 0.61523 0.47951 0.0
C1537 C 0.14333 0.67049 0.4895 0.0
C1538 C 0.35578 0.12644 0.51676 0.0
C1539 C 0.35412 0.14727 0.53146 0.0
H1540 H 0.35681 0.11022 0.47786 0.0
C1541 C 0.35256 0.16833 0.51721 0.0
H1542 H 0.35665 0.10989 0.52715 0.0
C1543 C 0.3529 0.16858 0.48889 0.0
C1544 C 0.35463 0.14773 0.47412 0.0
H1545 H 0.35154 0.1847 0.52797 0.0
H1546 H 0.35223 0.18517 0.47862 0.0
C1547 C 0.35594 0.12665 0.48847 0.0
C1548 C 0.84909 0.33265 0.48876 0.0
C1549 C 0.85018 0.35389 0.47481 0.0
H1550 H 0.84967 0.31543 0.52712 0.0
C1551 C 0.85142 0.37461 0.48974 0.0
H1552 H 0.84834 0.3164 0.47775 0.0
C1553 C 0.85184 0.37412 0.518 0.0
C1554 C 0.85134 0.35287 0.53209 0.0
H1555 H 0.85191 0.39126 0.47954 0.0
H1556 H 0.85245 0.39049 0.52878 0.0
C1557 C 0.84979 0.33213 0.51707 0.0
C1558 C 0.64767 0.87369 0.52063 0.0
C1559 C 0.6502 0.8529 0.53519 0.0
H1560 H 0.64621 0.89005 0.48188 0.0
C1561 C 0.65308 0.83202 0.52087 0.0
H1562 H 0.64578 0.8901 0.53114 0.0
C1563 C 0.65292 0.83188 0.49254 0.0
C1564 C 0.65015 0.85267 0.47787 0.0
H1565 H 0.65486 0.81571 0.53159 0.0
H1566 H 0.65445 0.81537 0.48219 0.0
C1567 C 0.6478 0.87361 0.49235 0.0
C1568 C 0.14393 0.50919 0.26935 0.0
C1569 C 0.16383 0.52326 0.26751 0.0
H1570 H 0.12832 0.47633 0.26069 0.0
C1571 C 0.18402 0.51403 0.25559 0.0
H1572 H 0.12818 0.51568 0.27868 0.0
C1573 C 0.18414 0.49133 0.24538 0.0
C1574 C 0.16416 0.47734 0.24714 0.0
H1575 H 0.19957 0.5245 0.25372 0.0
H1576 H 0.1999 0.48469 0.23625 0.0
C1577 C 0.14409 0.48653 0.25932 0.0
C1578 C 0.51418 0.18347 0.24934 0.0
C1579 C 0.5241 0.16263 0.2401 0.0
H1580 H 0.48428 0.19993 0.26692 0.0
C1581 C 0.51085 0.14215 0.24095 0.0
H1582 H 0.52409 0.19947 0.24902 0.0
C1583 C 0.48816 0.14244 0.25092 0.0
C1584 C 0.47831 0.16318 0.26055 0.0
H1585 H 0.51804 0.12588 0.23378 0.0
H1586 H 0.47842 0.12633 0.25153 0.0
C1587 C 0.49153 0.1837 0.25972 0.0
C1588 C 0.81686 0.51294 0.2483 0.0
C1589 C 0.8379 0.52482 0.24409 0.0
H1590 H 0.80041 0.48136 0.26126 0.0
C1591 C 0.85891 0.51342 0.24986 0.0
H1592 H 0.80041 0.52135 0.24415 0.0
C1593 C 0.85891 0.49067 0.25958 0.0
C1594 C 0.83791 0.47877 0.26387 0.0
H1595 H 0.87541 0.52202 0.24655 0.0
H1596 H 0.87541 0.48244 0.26398 0.0
C1597 C 0.81685 0.49017 0.25828 0.0
C1598 C 0.51447 0.81665 0.26107 0.0
C1599 C 0.5275 0.83724 0.26311 0.0
H1600 H 0.482 0.80106 0.24982 0.0
C1601 C 0.51734 0.85829 0.25497 0.0
H1602 H 0.52192 0.80016 0.26709 0.0
C1603 C 0.49459 0.85881 0.24522 0.0
C1604 C 0.48151 0.83827 0.24321 0.0
H1605 H 0.52684 0.87448 0.25658 0.0
H1606 H 0.48726 0.87532 0.2391 0.0
C1607 C 0.49173 0.81713 0.25102 0.0
C1608 C 0.86268 0.51403 0.74948 0.0
C1609 C 0.84294 0.52284 0.76272 0.0
H1610 H 0.87849 0.48515 0.72951 0.0
C1611 C 0.82351 0.50828 0.76603 0.0
H1612 H 0.87806 0.52465 0.74688 0.0
C1613 C 0.82385 0.48544 0.75625 0.0
C1614 C 0.84368 0.47665 0.74313 0.0
H1615 H 0.80798 0.51459 0.77598 0.0
H1616 H 0.80871 0.47457 0.75931 0.0
C1617 C 0.86304 0.49126 0.7398 0.0
C1618 C 0.50642 0.85719 0.73676 0.0
C1619 C 0.52265 0.84024 0.74453 0.0
H1620 H 0.47167 0.86998 0.74046 0.0
C1621 C 0.51563 0.82246 0.76224 0.0
H1622 H 0.51132 0.871 0.72299 0.0
C1623 C 0.49292 0.82196 0.77241 0.0
C1624 C 0.47673 0.83898 0.76465 0.0
H1625 H 0.52785 0.80926 0.76866 0.0
H1626 H 0.48796 0.80821 0.78623 0.0
C1627 C 0.4837 0.8565 0.74659 0.0
C1628 C 0.17864 0.49276 0.76504 0.0
C1629 C 0.15954 0.47788 0.76102 0.0
H1630 H 0.19319 0.5266 0.75892 0.0
C1631 C 0.1403 0.4863 0.74649 0.0
H1632 H 0.19387 0.48683 0.77587 0.0
C1633 C 0.14015 0.50887 0.73621 0.0
C1634 C 0.15907 0.52388 0.74052 0.0
H1635 H 0.12507 0.47559 0.74332 0.0
H1636 H 0.12512 0.51449 0.7248 0.0
C1637 C 0.17839 0.5155 0.75497 0.0
C1638 C 0.4847 0.14243 0.76044 0.0
C1639 C 0.47696 0.16129 0.74484 0.0
H1640 H 0.51292 0.12707 0.78223 0.0
C1641 C 0.49226 0.17981 0.73971 0.0
H1642 H 0.47334 0.12783 0.7645 0.0
C1643 C 0.5149 0.17947 0.7501 0.0
C1644 C 0.5227 0.16039 0.76533 0.0
H1645 H 0.48667 0.19458 0.7278 0.0
H1646 H 0.52645 0.19387 0.74578 0.0
C1647 C 0.50737 0.14192 0.77043 0.0
C1648 C 0.68378 0.01127 0.76137 0.0
C1649 C 0.66265 0.02207 0.76813 0.0
H1650 H 0.70054 0.98059 0.74627 0.0
C1651 C 0.64186 0.00951 0.76514 0.0
H1652 H 0.70005 0.02058 0.76333 0.0
C1653 C 0.64214 0.98676 0.75541 0.0
C1654 C 0.6632 0.976 0.74835 0.0
H1655 H 0.62533 0.01727 0.77044 0.0
H1656 H 0.62576 0.97771 0.753 0.0
C1657 C 0.68404 0.98849 0.7514 0.0
C1658 C 0.98916 0.68533 0.75829 0.0
C1659 C 0.97669 0.6645 0.76147 0.0
H1660 H 0.02123 0.70132 0.74621 0.0
C1661 C 0.98749 0.64342 0.75463 0.0
H1662 H 0.98123 0.70184 0.76327 0.0
C1663 C 0.01026 0.64312 0.74492 0.0
C1664 C 0.02278 0.6639 0.74171 0.0
H1665 H 0.97844 0.62705 0.75716 0.0
H1666 H 0.01802 0.62657 0.73972 0.0
C1667 C 0.01196 0.68504 0.74833 0.0
C1668 C 0.3188 0.01158 0.74905 0.0
C1669 C 0.33988 0.02303 0.7438 0.0
H1670 H 0.30234 0.98061 0.76393 0.0
C1671 C 0.36091 0.01159 0.74922 0.0
H1672 H 0.30239 0.02013 0.7451 0.0
C1673 C 0.36088 0.98899 0.75951 0.0
C1674 C 0.33983 0.9776 0.76503 0.0
H1675 H 0.37737 0.02005 0.74519 0.0
H1676 H 0.37732 0.98048 0.76345 0.0
C1677 C 0.31877 0.98912 0.7599 0.0
C1678 C 0.01272 0.31579 0.75965 0.0
C1679 C 0.02502 0.33677 0.76231 0.0
H1680 H 0.98081 0.29937 0.74771 0.0
C1681 C 0.01411 0.35766 0.75499 0.0
H1682 H 0.02078 0.29945 0.76508 0.0
C1683 C 0.99132 0.35764 0.74536 0.0
C1684 C 0.97902 0.3367 0.74255 0.0
H1685 H 0.02312 0.37409 0.75708 0.0
H1686 H 0.98336 0.37403 0.73986 0.0
C1687 C 0.98997 0.31574 0.74959 0.0
C1688 C 0.35809 0.01848 0.24327 0.0
C1689 C 0.34096 0.02505 0.26204 0.0
H1690 H 0.37252 0.99121 0.21911 0.0
C1691 C 0.32458 0.00845 0.27053 0.0
H1692 H 0.3711 0.03081 0.23657 0.0
C1693 C 0.32535 0.98573 0.26042 0.0
C1694 C 0.34274 0.97912 0.24198 0.0
H1695 H 0.31113 0.01308 0.2849 0.0
H1696 H 0.31266 0.9732 0.26746 0.0
C1697 C 0.35903 0.99577 0.23346 0.0
C1698 C 0.98696 0.32226 0.25473 0.0
C1699 C 0.9769 0.34287 0.26458 0.0
H1700 H 0.01709 0.306 0.23768 0.0
C1701 C 0.9903 0.36329 0.26463 0.0
H1702 H 0.97707 0.30625 0.2542 0.0
C1703 C 0.01305 0.36322 0.25484 0.0
C1704 C 0.02313 0.34268 0.2449 0.0
H1705 H 0.98328 0.37941 0.27242 0.0
H1706 H 0.02262 0.37942 0.25475 0.0
C1707 C 0.00981 0.32217 0.24498 0.0
C1708 C 0.68139 0.98725 0.25514 0.0
C1709 C 0.66047 0.97577 0.26139 0.0
H1710 H 0.69759 0.01844 0.24079 0.0
C1711 C 0.63939 0.9875 0.25705 0.0
H1712 H 0.69795 0.97866 0.25795 0.0
C1713 C 0.63917 0.01008 0.24681 0.0
C1714 C 0.66005 0.02171 0.24085 0.0
H1715 H 0.62293 0.9794 0.26196 0.0
H1716 H 0.62254 0.0184 0.24349 0.0
C1717 C 0.68118 0.00997 0.24498 0.0
C1718 C 0.01096 0.6401 0.26952 0.0
C1719 C 0.0246 0.66033 0.26857 0.0
H1720 H 0.97843 0.6241 0.26014 0.0
C1721 C 0.01499 0.68067 0.2575 0.0
H1722 H 0.01776 0.62421 0.27818 0.0
C1723 C 0.99231 0.68064 0.24723 0.0
C1724 C 0.97874 0.66033 0.24809 0.0
H1725 H 0.02514 0.69649 0.25634 0.0
H1726 H 0.98535 0.69653 0.23878 0.0
C1727 C 0.98832 0.6401 0.25944 0.0
loop_
_geom_bond_atom_site_label_1
_geom_bond_atom_site_label_2
_geom_bond_distance
_geom_bond_site_symmetry_2
_ccdc_geom_bond_type
Li0 N17 1.990 . S
Li0 O60 1.956 . S
Li0 O61 1.970 . S
Li0 O62 1.961 . S
Li1 N25 1.990 . S
Li1 O60 1.970 . S
Li1 O61 1.956 . S
Li1 O63 1.961 . S
Li2 N47 1.990 . S
Li2 O60 1.961 . S
Li2 O62 1.956 . S
Li2 O63 1.970 . S
Li3 N53 1.990 . S
Li3 O61 1.961 . S
Li3 O62 1.970 . S
Li3 O63 1.956 . S
C4 C6 1.348 . S
C4 C7 1.356 . S
C4 O60 1.325 . S
N5 C8 1.314 . S
N5 C9 1.279 . S
C6 C4 1.348 . S
C6 C8 1.353 . S
C6 H64 0.929 . S
C7 C4 1.356 . S
C7 C9 1.358 . S
C7 H65 0.930 . S
C8 N5 1.314 . S
C8 C6 1.353 . S
C8 H66 0.930 . S
C9 N5 1.279 . S
C9 C7 1.358 . S
C9 H67 0.930 . S
C10 C13 1.348 . S
C10 C14 1.356 . S
C10 O61 1.325 . S
C11 N12 1.279 . S
C11 C14 1.358 . S
C11 H68 0.930 . S
N12 C11 1.279 . S
N12 C15 1.314 . S
C13 C10 1.348 . S
C13 C15 1.353 . S
C13 H69 0.929 . S
C14 C10 1.356 . S
C14 C11 1.358 . S
C14 H70 0.930 . S
C15 N12 1.314 . S
C15 C13 1.353 . S
C15 H71 0.930 . S
C16 N17 1.314 . S
C16 C21 1.353 . S
C16 H22 0.930 . S
N17 Li0 1.990 . S
N17 C16 1.314 . S
N17 C19 1.279 . S
C18 C19 1.358 . S
C18 C20 1.356 . S
C18 H72 0.930 . S
C19 N17 1.279 . S
C19 C18 1.358 . S
C19 H23 0.930 . S
C20 C18 1.356 . S
C20 C21 1.348 . S
C21 C16 1.353 . S
C21 C20 1.348 . S
C21 H73 0.929 . S
H22 C16 0.930 . S
H23 C19 0.930 . S
C24 N25 1.314 . S
C24 C26 1.353 . S
C24 H30 0.930 . S
N25 Li1 1.990 . S
N25 C24 1.314 . S
N25 C28 1.279 . S
C26 C24 1.353 . S
C26 C29 1.348 . S
C26 H74 0.929 . S
C27 C28 1.358 . S
C27 C29 1.356 . S
C27 H75 0.930 . S
C28 N25 1.279 . S
C28 C27 1.358 . S
C28 H31 0.930 . S
C29 C26 1.348 . S
C29 C27 1.356 . S
H30 C24 0.930 . S
H31 C28 0.930 . S
C32 C34 1.348 . S
C32 C35 1.356 . S
C32 O62 1.325 . S
N33 C36 1.314 . S
N33 C37 1.279 . S
C34 C32 1.348 . S
C34 C36 1.353 . S
C34 H76 0.929 . S
C35 C32 1.356 . S
C35 C37 1.358 . S
C35 H77 0.930 . S
C36 N33 1.314 . S
C36 C34 1.353 . S
C36 H78 0.930 . S
C37 N33 1.279 . S
C37 C35 1.358 . S
C37 H79 0.930 . S
C38 C39 1.348 . S
C38 C40 1.356 . S
C38 O63 1.325 . S
C39 C38 1.348 . S
C39 C41 1.353 . S
C39 H80 0.929 . S
C40 C38 1.356 . S
C40 C42 1.358 . S
C40 H81 0.930 . S
C41 C39 1.353 . S
C41 N43 1.314 . S
C41 H82 0.930 . S
C42 C40 1.358 . S
C42 N43 1.279 . S
C42 H83 0.930 . S
N43 C41 1.314 . S
N43 C42 1.279 . S
C44 C46 1.353 . S
C44 N47 1.314 . S
C44 H50 0.930 . S
C45 N47 1.279 . S
C45 C48 1.358 . S
C45 H51 0.930 . S
C46 C44 1.353 . S
C46 C49 1.348 . S
C46 H84 0.929 . S
N47 Li2 1.990 . S
N47 C44 1.314 . S
N47 C45 1.279 . S
C48 C45 1.358 . S
C48 C49 1.356 . S
C48 H85 0.930 . S
C49 C46 1.348 . S
C49 C48 1.356 . S
H50 C44 0.930 . S
H51 C45 0.930 . S
C52 N53 1.314 . S
C52 C54 1.353 . S
C52 H58 0.930 . S
N53 Li3 1.990 . S
N53 C52 1.314 . S
N53 C56 1.279 . S
C54 C52 1.353 . S
C54 C57 1.348 . S
C54 H86 0.929 . S
C55 C56 1.358 . S
C55 C57 1.356 . S
C55 H87 0.930 . S
C56 N53 1.279 . S
C56 C55 1.358 . S
C56 H59 0.930 . S
C57 C54 1.348 . S
C57 C55 1.356 . S
H58 C52 0.930 . S
H59 C56 0.930 . S
O60 Li0 1.956 . S
O60 Li1 1.970 . S
O60 Li2 1.961 . S
O60 C4 1.325 . S
O61 Li0 1.970 . S
O61 Li1 1.956 . S
O61 Li3 1.961 . S
O61 C10 1.325 . S
O62 Li0 1.961 . S
O62 Li2 1.956 . S
O62 Li3 1.970 . S
O62 C32 1.325 . S
O63 Li1 1.961 . S
O63 Li2 1.970 . S
O63 Li3 1.956 . S
O63 C38 1.325 . S
H64 C6 0.929 . S
H65 C7 0.930 . S
H66 C8 0.930 . S
H67 C9 0.930 . S
H68 C11 0.930 . S
H69 C13 0.929 . S
H70 C14 0.930 . S
H71 C15 0.930 . S
H72 C18 0.930 . S
H73 C21 0.929 . S
H74 C26 0.929 . S
H75 C27 0.930 . S
H76 C34 0.929 . S
H77 C35 0.930 . S
H78 C36 0.930 . S
H79 C37 0.930 . S
H80 C39 0.929 . S
H81 C40 0.930 . S
H82 C41 0.930 . S
H83 C42 0.930 . S
H84 C46 0.929 . S
H85 C48 0.930 . S
H86 C54 0.929 . S
H87 C55 0.930 . S
Li88 N105 1.990 . S
Li88 O148 1.956 . S
Li88 O149 1.970 . S
Li88 O150 1.961 . S
Li89 N113 1.990 . S
Li89 O148 1.970 . S
Li89 O149 1.956 . S
Li89 O151 1.961 . S
Li90 N135 1.990 . S
Li90 O148 1.961 . S
Li90 O150 1.956 . S
Li90 O151 1.970 . S
Li91 N141 1.990 . S
Li91 O149 1.961 . S
Li91 O150 1.970 . S
Li91 O151 1.956 . S
C92 C94 1.348 . S
C92 C95 1.356 . S
C92 O148 1.325 . S
N93 C96 1.314 . S
N93 C97 1.279 . S
C94 C92 1.348 . S
C94 C96 1.353 . S
C94 H152 0.929 . S
C95 C92 1.356 . S
C95 C97 1.358 . S
C95 H153 0.930 . S
C96 N93 1.314 . S
C96 C94 1.353 . S
C96 H154 0.930 . S
C97 N93 1.279 . S
C97 C95 1.358 . S
C97 H155 0.930 . S
C98 C101 1.348 . S
C98 C102 1.356 . S
C98 O149 1.325 . S
C99 N100 1.279 . S
C99 C102 1.358 . S
C99 H156 0.930 . S
N100 C99 1.279 . S
N100 C103 1.314 . S
C101 C98 1.348 . S
C101 C103 1.353 . S
C101 H157 0.929 . S
C102 C98 1.356 . S
C102 C99 1.358 . S
C102 H158 0.930 . S
C103 N100 1.314 . S
C103 C101 1.353 . S
C103 H159 0.930 . S
C104 N105 1.314 . S
C104 C109 1.353 . S
C104 H110 0.930 . S
N105 Li88 1.990 . S
N105 C104 1.314 . S
N105 C107 1.279 . S
C106 C107 1.358 . S
C106 C108 1.356 . S
C106 H160 0.930 . S
C107 N105 1.279 . S
C107 C106 1.358 . S
C107 H111 0.930 . S
C108 C106 1.356 . S
C108 C109 1.348 . S
C109 C104 1.353 . S
C109 C108 1.348 . S
C109 H161 0.929 . S
H110 C104 0.930 . S
H111 C107 0.930 . S
C112 N113 1.314 . S
C112 C114 1.353 . S
C112 H118 0.930 . S
N113 Li89 1.990 . S
N113 C112 1.314 . S
N113 C116 1.279 . S
C114 C112 1.353 . S
C114 C117 1.348 . S
C114 H162 0.929 . S
C115 C116 1.358 . S
C115 C117 1.356 . S
C115 H163 0.930 . S
C116 N113 1.279 . S
C116 C115 1.358 . S
C116 H119 0.930 . S
C117 C114 1.348 . S
C117 C115 1.356 . S
H118 C112 0.930 . S
H119 C116 0.930 . S
C120 C122 1.348 . S
C120 C123 1.356 . S
C120 O150 1.325 . S
N121 C124 1.314 . S
N121 C125 1.279 . S
C122 C120 1.348 . S
C122 C124 1.353 . S
C122 H164 0.929 . S
C123 C120 1.356 . S
C123 C125 1.358 . S
C123 H165 0.930 . S
C124 N121 1.314 . S
C124 C122 1.353 . S
C124 H166 0.930 . S
C125 N121 1.279 . S
C125 C123 1.358 . S
C125 H167 0.930 . S
C126 C127 1.348 . S
C126 C128 1.356 . S
C126 O151 1.325 . S
C127 C126 1.348 . S
C127 C129 1.353 . S
C127 H168 0.929 . S
C128 C126 1.356 . S
C128 C130 1.358 . S
C128 H169 0.930 . S
C129 C127 1.353 . S
C129 N131 1.314 . S
C129 H170 0.930 . S
C130 C128 1.358 . S
C130 N131 1.279 . S
C130 H171 0.930 . S
N131 C129 1.314 . S
N131 C130 1.279 . S
C132 C134 1.353 . S
C132 N135 1.314 . S
C132 H138 0.930 . S
C133 N135 1.279 . S
C133 C136 1.358 . S
C133 H139 0.930 . S
C134 C132 1.353 . S
C134 C137 1.348 . S
C134 H172 0.929 . S
N135 Li90 1.990 . S
N135 C132 1.314 . S
N135 C133 1.279 . S
C136 C133 1.358 . S
C136 C137 1.356 . S
C136 H173 0.930 . S
C137 C134 1.348 . S
C137 C136 1.356 . S
H138 C132 0.930 . S
H139 C133 0.930 . S
C140 N141 1.314 . S
C140 C142 1.353 . S
C140 H146 0.930 . S
N141 Li91 1.990 . S
N141 C140 1.314 . S
N141 C144 1.279 . S
C142 C140 1.353 . S
C142 C145 1.348 . S
C142 H174 0.929 . S
C143 C144 1.358 . S
C143 C145 1.356 . S
C143 H175 0.930 . S
C144 N141 1.279 . S
C144 C143 1.358 . S
C144 H147 0.930 . S
C145 C142 1.348 . S
C145 C143 1.356 . S
H146 C140 0.930 . S
H147 C144 0.930 . S
O148 Li88 1.956 . S
O148 Li89 1.970 . S
O148 Li90 1.961 . S
O148 C92 1.325 . S
O149 Li88 1.970 . S
O149 Li89 1.956 . S
O149 Li91 1.961 . S
O149 C98 1.325 . S
O150 Li88 1.961 . S
O150 Li90 1.956 . S
O150 Li91 1.970 . S
O150 C120 1.325 . S
O151 Li89 1.961 . S
O151 Li90 1.970 . S
O151 Li91 1.956 . S
O151 C126 1.325 . S
H152 C94 0.929 . S
H153 C95 0.930 . S
H154 C96 0.930 . S
H155 C97 0.930 . S
H156 C99 0.930 . S
H157 C101 0.929 . S
H158 C102 0.930 . S
H159 C103 0.930 . S
H160 C106 0.930 . S
H161 C109 0.929 . S
H162 C114 0.929 . S
H163 C115 0.930 . S
H164 C122 0.929 . S
H165 C123 0.930 . S
H166 C124 0.930 . S
H167 C125 0.930 . S
H168 C127 0.929 . S
H169 C128 0.930 . S
H170 C129 0.930 . S
H171 C130 0.930 . S
H172 C134 0.929 . S
H173 C136 0.930 . S
H174 C142 0.929 . S
H175 C143 0.930 . S
Li176 N193 1.990 . S
Li176 O236 1.956 . S
Li176 O237 1.970 . S
Li176 O238 1.961 . S
Li177 N201 1.990 . S
Li177 O236 1.970 . S
Li177 O237 1.956 . S
Li177 O239 1.961 . S
Li178 N223 1.990 . S
Li178 O236 1.961 . S
Li178 O238 1.956 . S
Li178 O239 1.970 . S
Li179 N229 1.990 . S
Li179 O237 1.961 . S
Li179 O238 1.970 . S
Li179 O239 1.956 . S
C180 C182 1.348 . S
C180 C183 1.356 . S
C180 O236 1.325 . S
N181 C184 1.314 . S
N181 C185 1.279 . S
C182 C180 1.348 . S
C182 C184 1.353 . S
C182 H240 0.929 . S
C183 C180 1.356 . S
C183 C185 1.358 . S
C183 H241 0.930 . S
C184 N181 1.314 . S
C184 C182 1.353 . S
C184 H242 0.930 . S
C185 N181 1.279 . S
C185 C183 1.358 . S
C185 H243 0.930 . S
C186 C189 1.348 . S
C186 C190 1.356 . S
C186 O237 1.325 . S
C187 N188 1.279 . S
C187 C190 1.358 . S
C187 H244 0.930 . S
N188 C187 1.279 . S
N188 C191 1.314 . S
C189 C186 1.348 . S
C189 C191 1.353 . S
C189 H245 0.929 . S
C190 C186 1.356 . S
C190 C187 1.358 . S
C190 H246 0.930 . S
C191 N188 1.314 . S
C191 C189 1.353 . S
C191 H247 0.930 . S
C192 N193 1.314 . S
C192 C197 1.353 . S
C192 H198 0.930 . S
N193 Li176 1.990 . S
N193 C192 1.314 . S
N193 C195 1.279 . S
C194 C195 1.358 . S
C194 C196 1.356 . S
C194 H248 0.930 . S
C195 N193 1.279 . S
C195 C194 1.358 . S
C195 H199 0.930 . S
C196 C194 1.356 . S
C196 C197 1.348 . S
C197 C192 1.353 . S
C197 C196 1.348 . S
C197 H249 0.929 . S
H198 C192 0.930 . S
H199 C195 0.930 . S
C200 N201 1.314 . S
C200 C202 1.353 . S
C200 H206 0.930 . S
N201 Li177 1.990 . S
N201 C200 1.314 . S
N201 C204 1.279 . S
C202 C200 1.353 . S
C202 C205 1.348 . S
C202 H250 0.929 . S
C203 C204 1.358 . S
C203 C205 1.356 . S
C203 H251 0.930 . S
C204 N201 1.279 . S
C204 C203 1.358 . S
C204 H207 0.930 . S
C205 C202 1.348 . S
C205 C203 1.356 . S
H206 C200 0.930 . S
H207 C204 0.930 . S
C208 C210 1.348 . S
C208 C211 1.356 . S
C208 O238 1.325 . S
N209 C212 1.314 . S
N209 C213 1.279 . S
C210 C208 1.348 . S
C210 C212 1.353 . S
C210 H252 0.929 . S
C211 C208 1.356 . S
C211 C213 1.358 . S
C211 H253 0.930 . S
C212 N209 1.314 . S
C212 C210 1.353 . S
C212 H254 0.930 . S
C213 N209 1.279 . S
C213 C211 1.358 . S
C213 H255 0.930 . S
C214 C215 1.348 . S
C214 C216 1.356 . S
C214 O239 1.325 . S
C215 C214 1.348 . S
C215 C217 1.353 . S
C215 H256 0.929 . S
C216 C214 1.356 . S
C216 C218 1.358 . S
C216 H257 0.930 . S
C217 C215 1.353 . S
C217 N219 1.314 . S
C217 H258 0.930 . S
C218 C216 1.358 . S
C218 N219 1.279 . S
C218 H259 0.930 . S
N219 C217 1.314 . S
N219 C218 1.279 . S
C220 C222 1.353 . S
C220 N223 1.314 . S
C220 H226 0.930 . S
C221 N223 1.279 . S
C221 C224 1.358 . S
C221 H227 0.930 . S
C222 C220 1.353 . S
C222 C225 1.348 . S
C222 H260 0.929 . S
N223 Li178 1.990 . S
N223 C220 1.314 . S
N223 C221 1.279 . S
C224 C221 1.358 . S
C224 C225 1.356 . S
C224 H261 0.930 . S
C225 C222 1.348 . S
C225 C224 1.356 . S
H226 C220 0.930 . S
H227 C221 0.930 . S
C228 N229 1.314 . S
C228 C230 1.353 . S
C228 H234 0.930 . S
N229 Li179 1.990 . S
N229 C228 1.314 . S
N229 C232 1.279 . S
C230 C228 1.353 . S
C230 C233 1.348 . S
C230 H262 0.929 . S
C231 C232 1.358 . S
C231 C233 1.356 . S
C231 H263 0.930 . S
C232 N229 1.279 . S
C232 C231 1.358 . S
C232 H235 0.930 . S
C233 C230 1.348 . S
C233 C231 1.356 . S
H234 C228 0.930 . S
H235 C232 0.930 . S
O236 Li176 1.956 . S
O236 Li177 1.970 . S
O236 Li178 1.961 . S
O236 C180 1.325 . S
O237 Li176 1.970 . S
O237 Li177 1.956 . S
O237 Li179 1.961 . S
O237 C186 1.325 . S
O238 Li176 1.961 . S
O238 Li178 1.956 . S
O238 Li179 1.970 . S
O238 C208 1.325 . S
O239 Li177 1.961 . S
O239 Li178 1.970 . S
O239 Li179 1.956 . S
O239 C214 1.325 . S
H240 C182 0.929 . S
H241 C183 0.930 . S
H242 C184 0.930 . S
H243 C185 0.930 . S
H244 C187 0.930 . S
H245 C189 0.929 . S
H246 C190 0.930 . S
H247 C191 0.930 . S
H248 C194 0.930 . S
H249 C197 0.929 . S
H250 C202 0.929 . S
H251 C203 0.930 . S
H252 C210 0.929 . S
H253 C211 0.930 . S
H254 C212 0.930 . S
H255 C213 0.930 . S
H256 C215 0.929 . S
H257 C216 0.930 . S
H258 C217 0.930 . S
H259 C218 0.930 . S
H260 C222 0.929 . S
H261 C224 0.930 . S
H262 C230 0.929 . S
H263 C231 0.930 . S
Li264 N281 1.990 . S
Li264 O324 1.956 . S
Li264 O325 1.970 . S
Li264 O326 1.961 . S
Li265 N289 1.990 . S
Li265 O324 1.970 . S
Li265 O325 1.956 . S
Li265 O327 1.961 . S
Li266 N311 1.990 . S
Li266 O324 1.961 . S
Li266 O326 1.956 . S
Li266 O327 1.970 . S
Li267 N317 1.990 . S
Li267 O325 1.961 . S
Li267 O326 1.970 . S
Li267 O327 1.956 . S
C268 C270 1.348 . S
C268 C271 1.356 . S
C268 O324 1.325 . S
N269 C272 1.314 . S
N269 C273 1.279 . S
C270 C268 1.348 . S
C270 C272 1.353 . S
C270 H328 0.929 . S
C271 C268 1.356 . S
C271 C273 1.358 . S
C271 H329 0.930 . S
C272 N269 1.314 . S
C272 C270 1.353 . S
C272 H330 0.930 . S
C273 N269 1.279 . S
C273 C271 1.358 . S
C273 H331 0.930 . S
C274 C277 1.348 . S
C274 C278 1.356 . S
C274 O325 1.325 . S
C275 N276 1.279 . S
C275 C278 1.358 . S
C275 H332 0.930 . S
N276 C275 1.279 . S
N276 C279 1.314 . S
C277 C274 1.348 . S
C277 C279 1.353 . S
C277 H333 0.929 . S
C278 C274 1.356 . S
C278 C275 1.358 . S
C278 H334 0.930 . S
C279 N276 1.314 . S
C279 C277 1.353 . S
C279 H335 0.930 . S
C280 N281 1.314 . S
C280 C285 1.353 . S
C280 H286 0.930 . S
N281 Li264 1.990 . S
N281 C280 1.314 . S
N281 C283 1.279 . S
C282 C283 1.358 . S
C282 C284 1.356 . S
C282 H336 0.930 . S
C283 N281 1.279 . S
C283 C282 1.358 . S
C283 H287 0.930 . S
C284 C282 1.356 . S
C284 C285 1.348 . S
C285 C280 1.353 . S
C285 C284 1.348 . S
C285 H337 0.929 . S
H286 C280 0.930 . S
H287 C283 0.930 . S
C288 N289 1.314 . S
C288 C290 1.353 . S
C288 H294 0.930 . S
N289 Li265 1.990 . S
N289 C288 1.314 . S
N289 C292 1.279 . S
C290 C288 1.353 . S
C290 C293 1.348 . S
C290 H338 0.929 . S
C291 C292 1.358 . S
C291 C293 1.356 . S
C291 H339 0.930 . S
C292 N289 1.279 . S
C292 C291 1.358 . S
C292 H295 0.930 . S
C293 C290 1.348 . S
C293 C291 1.356 . S
H294 C288 0.930 . S
H295 C292 0.930 . S
C296 C298 1.348 . S
C296 C299 1.356 . S
C296 O326 1.325 . S
N297 C300 1.314 . S
N297 C301 1.279 . S
C298 C296 1.348 . S
C298 C300 1.353 . S
C298 H340 0.929 . S
C299 C296 1.356 . S
C299 C301 1.358 . S
C299 H341 0.930 . S
C300 N297 1.314 . S
C300 C298 1.353 . S
C300 H342 0.930 . S
C301 N297 1.279 . S
C301 C299 1.358 . S
C301 H343 0.930 . S
C302 C303 1.348 . S
C302 C304 1.356 . S
C302 O327 1.325 . S
C303 C302 1.348 . S
C303 C305 1.353 . S
C303 H344 0.929 . S
C304 C302 1.356 . S
C304 C306 1.358 . S
C304 H345 0.930 . S
C305 C303 1.353 . S
C305 N307 1.314 . S
C305 H346 0.930 . S
C306 C304 1.358 . S
C306 N307 1.279 . S
C306 H347 0.930 . S
N307 C305 1.314 . S
N307 C306 1.279 . S
C308 C310 1.353 . S
C308 N311 1.314 . S
C308 H314 0.930 . S
C309 N311 1.279 . S
C309 C312 1.358 . S
C309 H315 0.930 . S
C310 C308 1.353 . S
C310 C313 1.348 . S
C310 H348 0.929 . S
N311 Li266 1.990 . S
N311 C308 1.314 . S
N311 C309 1.279 . S
C312 C309 1.358 . S
C312 C313 1.356 . S
C312 H349 0.930 . S
C313 C310 1.348 . S
C313 C312 1.356 . S
H314 C308 0.930 . S
H315 C309 0.930 . S
C316 N317 1.314 . S
C316 C318 1.353 . S
C316 H322 0.930 . S
N317 Li267 1.990 . S
N317 C316 1.314 . S
N317 C320 1.279 . S
C318 C316 1.353 . S
C318 C321 1.348 . S
C318 H350 0.929 . S
C319 C320 1.358 . S
C319 C321 1.356 . S
C319 H351 0.930 . S
C320 N317 1.279 . S
C320 C319 1.358 . S
C320 H323 0.930 . S
C321 C318 1.348 . S
C321 C319 1.356 . S
H322 C316 0.930 . S
H323 C320 0.930 . S
O324 Li264 1.956 . S
O324 Li265 1.970 . S
O324 Li266 1.961 . S
O324 C268 1.325 . S
O325 Li264 1.970 . S
O325 Li265 1.956 . S
O325 Li267 1.961 . S
O325 C274 1.325 . S
O326 Li264 1.961 . S
O326 Li266 1.956 . S
O326 Li267 1.970 . S
O326 C296 1.325 . S
O327 Li265 1.961 . S
O327 Li266 1.970 . S
O327 Li267 1.956 . S
O327 C302 1.325 . S
H328 C270 0.929 . S
H329 C271 0.930 . S
H330 C272 0.930 . S
H331 C273 0.930 . S
H332 C275 0.930 . S
H333 C277 0.929 . S
H334 C278 0.930 . S
H335 C279 0.930 . S
H336 C282 0.930 . S
H337 C285 0.929 . S
H338 C290 0.929 . S
H339 C291 0.930 . S
H340 C298 0.929 . S
H341 C299 0.930 . S
H342 C300 0.930 . S
H343 C301 0.930 . S
H344 C303 0.929 . S
H345 C304 0.930 . S
H346 C305 0.930 . S
H347 C306 0.930 . S
H348 C310 0.929 . S
H349 C312 0.930 . S
H350 C318 0.929 . S
H351 C319 0.930 . S
Li352 N369 1.990 . S
Li352 O412 1.956 . S
Li352 O413 1.970 . S
Li352 O414 1.961 . S
Li353 N377 1.990 . S
Li353 O412 1.970 . S
Li353 O413 1.956 . S
Li353 O415 1.961 . S
Li354 N399 1.990 . S
Li354 O412 1.961 . S
Li354 O414 1.956 . S
Li354 O415 1.970 . S
Li355 N405 1.990 . S
Li355 O413 1.961 . S
Li355 O414 1.970 . S
Li355 O415 1.956 . S
C356 C358 1.348 . S
C356 C359 1.356 . S
C356 O412 1.325 . S
N357 C360 1.314 . S
N357 C361 1.279 . S
C358 C356 1.348 . S
C358 C360 1.353 . S
C358 H416 0.929 . S
C359 C356 1.356 . S
C359 C361 1.358 . S
C359 H417 0.930 . S
C360 N357 1.314 . S
C360 C358 1.353 . S
C360 H418 0.930 . S
C361 N357 1.279 . S
C361 C359 1.358 . S
C361 H419 0.930 . S
C362 C365 1.348 . S
C362 C366 1.356 . S
C362 O413 1.325 . S
C363 N364 1.279 . S
C363 C366 1.358 . S
C363 H420 0.930 . S
N364 C363 1.279 . S
N364 C367 1.314 . S
C365 C362 1.348 . S
C365 C367 1.353 . S
C365 H421 0.929 . S
C366 C362 1.356 . S
C366 C363 1.358 . S
C366 H422 0.930 . S
C367 N364 1.314 . S
C367 C365 1.353 . S
C367 H423 0.930 . S
C368 N369 1.314 . S
C368 C373 1.353 . S
C368 H374 0.930 . S
N369 Li352 1.990 . S
N369 C368 1.314 . S
N369 C371 1.279 . S
C370 C371 1.358 . S
C370 C372 1.356 . S
C370 H424 0.930 . S
C371 N369 1.279 . S
C371 C370 1.358 . S
C371 H375 0.930 . S
C372 C370 1.356 . S
C372 C373 1.348 . S
C373 C368 1.353 . S
C373 C372 1.348 . S
C373 H425 0.929 . S
H374 C368 0.930 . S
H375 C371 0.930 . S
C376 N377 1.314 . S
C376 C378 1.353 . S
C376 H382 0.930 . S
N377 Li353 1.990 . S
N377 C376 1.314 . S
N377 C380 1.279 . S
C378 C376 1.353 . S
C378 C381 1.348 . S
C378 H426 0.929 . S
C379 C380 1.358 . S
C379 C381 1.356 . S
C379 H427 0.930 . S
C380 N377 1.279 . S
C380 C379 1.358 . S
C380 H383 0.930 . S
C381 C378 1.348 . S
C381 C379 1.356 . S
H382 C376 0.930 . S
H383 C380 0.930 . S
C384 C386 1.348 . S
C384 C387 1.356 . S
C384 O414 1.325 . S
N385 C388 1.314 . S
N385 C389 1.279 . S
C386 C384 1.348 . S
C386 C388 1.353 . S
C386 H428 0.929 . S
C387 C384 1.356 . S
C387 C389 1.358 . S
C387 H429 0.930 . S
C388 N385 1.314 . S
C388 C386 1.353 . S
C388 H430 0.930 . S
C389 N385 1.279 . S
C389 C387 1.358 . S
C389 H431 0.930 . S
C390 C391 1.348 . S
C390 C392 1.356 . S
C390 O415 1.325 . S
C391 C390 1.348 . S
C391 C393 1.353 . S
C391 H432 0.929 . S
C392 C390 1.356 . S
C392 C394 1.358 . S
C392 H433 0.930 . S
C393 C391 1.353 . S
C393 N395 1.314 . S
C393 H434 0.930 . S
C394 C392 1.358 . S
C394 N395 1.279 . S
C394 H435 0.930 . S
N395 C393 1.314 . S
N395 C394 1.279 . S
C396 C398 1.353 . S
C396 N399 1.314 . S
C396 H402 0.930 . S
C397 N399 1.279 . S
C397 C400 1.358 . S
C397 H403 0.930 . S
C398 C396 1.353 . S
C398 C401 1.348 . S
C398 H436 0.929 . S
N399 Li354 1.990 . S
N399 C396 1.314 . S
N399 C397 1.279 . S
C400 C397 1.358 . S
C400 C401 1.356 . S
C400 H437 0.930 . S
C401 C398 1.348 . S
C401 C400 1.356 . S
H402 C396 0.930 . S
H403 C397 0.930 . S
C404 N405 1.314 . S
C404 C406 1.353 . S
C404 H410 0.930 . S
N405 Li355 1.990 . S
N405 C404 1.314 . S
N405 C408 1.279 . S
C406 C404 1.353 . S
C406 C409 1.348 . S
C406 H438 0.929 . S
C407 C408 1.358 . S
C407 C409 1.356 . S
C407 H439 0.930 . S
C408 N405 1.279 . S
C408 C407 1.358 . S
C408 H411 0.930 . S
C409 C406 1.348 . S
C409 C407 1.356 . S
H410 C404 0.930 . S
H411 C408 0.930 . S
O412 Li352 1.956 . S
O412 Li353 1.970 . S
O412 Li354 1.961 . S
O412 C356 1.325 . S
O413 Li352 1.970 . S
O413 Li353 1.956 . S
O413 Li355 1.961 . S
O413 C362 1.325 . S
O414 Li352 1.961 . S
O414 Li354 1.956 . S
O414 Li355 1.970 . S
O414 C384 1.325 . S
O415 Li353 1.961 . S
O415 Li354 1.970 . S
O415 Li355 1.956 . S
O415 C390 1.325 . S
H416 C358 0.929 . S
H417 C359 0.930 . S
H418 C360 0.930 . S
H419 C361 0.930 . S
H420 C363 0.930 . S
H421 C365 0.929 . S
H422 C366 0.930 . S
H423 C367 0.930 . S
H424 C370 0.930 . S
H425 C373 0.929 . S
H426 C378 0.929 . S
H427 C379 0.930 . S
H428 C386 0.929 . S
H429 C387 0.930 . S
H430 C388 0.930 . S
H431 C389 0.930 . S
H432 C391 0.929 . S
H433 C392 0.930 . S
H434 C393 0.930 . S
H435 C394 0.930 . S
H436 C398 0.929 . S
H437 C400 0.930 . S
H438 C406 0.929 . S
H439 C407 0.930 . S
Li440 N457 1.990 . S
Li440 O500 1.956 . S
Li440 O501 1.970 . S
Li440 O502 1.961 . S
Li441 N465 1.990 . S
Li441 O500 1.970 . S
Li441 O501 1.956 . S
Li441 O503 1.961 . S
Li442 N487 1.990 . S
Li442 O500 1.961 . S
Li442 O502 1.956 . S
Li442 O503 1.970 . S
Li443 N493 1.990 . S
Li443 O501 1.961 . S
Li443 O502 1.970 . S
Li443 O503 1.956 . S
C444 C446 1.348 . S
C444 C447 1.356 . S
C444 O500 1.325 . S
N445 C448 1.314 . S
N445 C449 1.279 . S
C446 C444 1.348 . S
C446 C448 1.353 . S
C446 H504 0.929 . S
C447 C444 1.356 . S
C447 C449 1.358 . S
C447 H505 0.930 . S
C448 N445 1.314 . S
C448 C446 1.353 . S
C448 H506 0.930 . S
C449 N445 1.279 . S
C449 C447 1.358 . S
C449 H507 0.930 . S
C450 C453 1.348 . S
C450 C454 1.356 . S
C450 O501 1.325 . S
C451 N452 1.279 . S
C451 C454 1.358 . S
C451 H508 0.930 . S
N452 C451 1.279 . S
N452 C455 1.314 . S
C453 C450 1.348 . S
C453 C455 1.353 . S
C453 H509 0.929 . S
C454 C450 1.356 . S
C454 C451 1.358 . S
C454 H510 0.930 . S
C455 N452 1.314 . S
C455 C453 1.353 . S
C455 H511 0.930 . S
C456 N457 1.314 . S
C456 C461 1.353 . S
C456 H462 0.930 . S
N457 Li440 1.990 . S
N457 C456 1.314 . S
N457 C459 1.279 . S
C458 C459 1.358 . S
C458 C460 1.356 . S
C458 H512 0.930 . S
C459 N457 1.279 . S
C459 C458 1.358 . S
C459 H463 0.930 . S
C460 C458 1.356 . S
C460 C461 1.348 . S
C461 C456 1.353 . S
C461 C460 1.348 . S
C461 H513 0.929 . S
H462 C456 0.930 . S
H463 C459 0.930 . S
C464 N465 1.314 . S
C464 C466 1.353 . S
C464 H470 0.930 . S
N465 Li441 1.990 . S
N465 C464 1.314 . S
N465 C468 1.279 . S
C466 C464 1.353 . S
C466 C469 1.348 . S
C466 H514 0.929 . S
C467 C468 1.358 . S
C467 C469 1.356 . S
C467 H515 0.930 . S
C468 N465 1.279 . S
C468 C467 1.358 . S
C468 H471 0.930 . S
C469 C466 1.348 . S
C469 C467 1.356 . S
H470 C464 0.930 . S
H471 C468 0.930 . S
C472 C474 1.348 . S
C472 C475 1.356 . S
C472 O502 1.325 . S
N473 C476 1.314 . S
N473 C477 1.279 . S
C474 C472 1.348 . S
C474 C476 1.353 . S
C474 H516 0.929 . S
C475 C472 1.356 . S
C475 C477 1.358 . S
C475 H517 0.930 . S
C476 N473 1.314 . S
C476 C474 1.353 . S
C476 H518 0.930 . S
C477 N473 1.279 . S
C477 C475 1.358 . S
C477 H519 0.930 . S
C478 C479 1.348 . S
C478 C480 1.356 . S
C478 O503 1.325 . S
C479 C478 1.348 . S
C479 C481 1.353 . S
C479 H520 0.929 . S
C480 C478 1.356 . S
C480 C482 1.358 . S
C480 H521 0.930 . S
C481 C479 1.353 . S
C481 N483 1.314 . S
C481 H522 0.930 . S
C482 C480 1.358 . S
C482 N483 1.279 . S
C482 H523 0.930 . S
N483 C481 1.314 . S
N483 C482 1.279 . S
C484 C486 1.353 . S
C484 N487 1.314 . S
C484 H490 0.930 . S
C485 N487 1.279 . S
C485 C488 1.358 . S
C485 H491 0.930 . S
C486 C484 1.353 . S
C486 C489 1.348 . S
C486 H524 0.929 . S
N487 Li442 1.990 . S
N487 C484 1.314 . S
N487 C485 1.279 . S
C488 C485 1.358 . S
C488 C489 1.356 . S
C488 H525 0.930 . S
C489 C486 1.348 . S
C489 C488 1.356 . S
H490 C484 0.930 . S
H491 C485 0.930 . S
C492 N493 1.314 . S
C492 C494 1.353 . S
C492 H498 0.930 . S
N493 Li443 1.990 . S
N493 C492 1.314 . S
N493 C496 1.279 . S
C494 C492 1.353 . S
C494 C497 1.348 . S
C494 H526 0.929 . S
C495 C496 1.358 . S
C495 C497 1.356 . S
C495 H527 0.930 . S
C496 N493 1.279 . S
C496 C495 1.358 . S
C496 H499 0.930 . S
C497 C494 1.348 . S
C497 C495 1.356 . S
H498 C492 0.930 . S
H499 C496 0.930 . S
O500 Li440 1.956 . S
O500 Li441 1.970 . S
O500 Li442 1.961 . S
O500 C444 1.325 . S
O501 Li440 1.970 . S
O501 Li441 1.956 . S
O501 Li443 1.961 . S
O501 C450 1.325 . S
O502 Li440 1.961 . S
O502 Li442 1.956 . S
O502 Li443 1.970 . S
O502 C472 1.325 . S
O503 Li441 1.961 . S
O503 Li442 1.970 . S
O503 Li443 1.956 . S
O503 C478 1.325 . S
H504 C446 0.929 . S
H505 C447 0.930 . S
H506 C448 0.930 . S
H507 C449 0.930 . S
H508 C451 0.930 . S
H509 C453 0.929 . S
H510 C454 0.930 . S
H511 C455 0.930 . S
H512 C458 0.930 . S
H513 C461 0.929 . S
H514 C466 0.929 . S
H515 C467 0.930 . S
H516 C474 0.929 . S
H517 C475 0.930 . S
H518 C476 0.930 . S
H519 C477 0.930 . S
H520 C479 0.929 . S
H521 C480 0.930 . S
H522 C481 0.930 . S
H523 C482 0.930 . S
H524 C486 0.929 . S
H525 C488 0.930 . S
H526 C494 0.929 . S
H527 C495 0.930 . S
Li528 N545 1.990 . S
Li528 O588 1.956 . S
Li528 O589 1.970 . S
Li528 O590 1.961 . S
Li529 N553 1.990 . S
Li529 O588 1.970 . S
Li529 O589 1.956 . S
Li529 O591 1.961 . S
Li530 N575 1.990 . S
Li530 O588 1.961 . S
Li530 O590 1.956 . S
Li530 O591 1.970 . S
Li531 N581 1.990 . S
Li531 O589 1.961 . S
Li531 O590 1.970 . S
Li531 O591 1.956 . S
C532 C534 1.348 . S
C532 C535 1.356 . S
C532 O588 1.325 . S
N533 C536 1.314 . S
N533 C537 1.279 . S
C534 C532 1.348 . S
C534 C536 1.353 . S
C534 H592 0.929 . S
C535 C532 1.356 . S
C535 C537 1.358 . S
C535 H593 0.930 . S
C536 N533 1.314 . S
C536 C534 1.353 . S
C536 H594 0.930 . S
C537 N533 1.279 . S
C537 C535 1.358 . S
C537 H595 0.930 . S
C538 C541 1.348 . S
C538 C542 1.356 . S
C538 O589 1.325 . S
C539 N540 1.279 . S
C539 C542 1.358 . S
C539 H596 0.930 . S
N540 C539 1.279 . S
N540 C543 1.314 . S
C541 C538 1.348 . S
C541 C543 1.353 . S
C541 H597 0.929 . S
C542 C538 1.356 . S
C542 C539 1.358 . S
C542 H598 0.930 . S
C543 N540 1.314 . S
C543 C541 1.353 . S
C543 H599 0.930 . S
C544 N545 1.314 . S
C544 C549 1.353 . S
C544 H550 0.930 . S
N545 Li528 1.990 . S
N545 C544 1.314 . S
N545 C547 1.279 . S
C546 C547 1.358 . S
C546 C548 1.356 . S
C546 H600 0.930 . S
C547 N545 1.279 . S
C547 C546 1.358 . S
C547 H551 0.930 . S
C548 C546 1.356 . S
C548 C549 1.348 . S
C549 C544 1.353 . S
C549 C548 1.348 . S
C549 H601 0.929 . S
H550 C544 0.930 . S
H551 C547 0.930 . S
C552 N553 1.314 . S
C552 C554 1.353 . S
C552 H558 0.930 . S
N553 Li529 1.990 . S
N553 C552 1.314 . S
N553 C556 1.279 . S
C554 C552 1.353 . S
C554 C557 1.348 . S
C554 H602 0.929 . S
C555 C556 1.358 . S
C555 C557 1.356 . S
C555 H603 0.930 . S
C556 N553 1.279 . S
C556 C555 1.358 . S
C556 H559 0.930 . S
C557 C554 1.348 . S
C557 C555 1.356 . S
H558 C552 0.930 . S
H559 C556 0.930 . S
C560 C562 1.348 . S
C560 C563 1.356 . S
C560 O590 1.325 . S
N561 C564 1.314 . S
N561 C565 1.279 . S
C562 C560 1.348 . S
C562 C564 1.353 . S
C562 H604 0.929 . S
C563 C560 1.356 . S
C563 C565 1.358 . S
C563 H605 0.930 . S
C564 N561 1.314 . S
C564 C562 1.353 . S
C564 H606 0.930 . S
C565 N561 1.279 . S
C565 C563 1.358 . S
C565 H607 0.930 . S
C566 C567 1.348 . S
C566 C568 1.356 . S
C566 O591 1.325 . S
C567 C566 1.348 . S
C567 C569 1.353 . S
C567 H608 0.929 . S
C568 C566 1.356 . S
C568 C570 1.358 . S
C568 H609 0.930 . S
C569 C567 1.353 . S
C569 N571 1.314 . S
C569 H610 0.930 . S
C570 C568 1.358 . S
C570 N571 1.279 . S
C570 H611 0.930 . S
N571 C569 1.314 . S
N571 C570 1.279 . S
C572 C574 1.353 . S
C572 N575 1.314 . S
C572 H578 0.930 . S
C573 N575 1.279 . S
C573 C576 1.358 . S
C573 H579 0.930 . S
C574 C572 1.353 . S
C574 C577 1.348 . S
C574 H612 0.929 . S
N575 Li530 1.990 . S
N575 C572 1.314 . S
N575 C573 1.279 . S
C576 C573 1.358 . S
C576 C577 1.356 . S
C576 H613 0.930 . S
C577 C574 1.348 . S
C577 C576 1.356 . S
H578 C572 0.930 . S
H579 C573 0.930 . S
C580 N581 1.314 . S
C580 C582 1.353 . S
C580 H586 0.930 . S
N581 Li531 1.990 . S
N581 C580 1.314 . S
N581 C584 1.279 . S
C582 C580 1.353 . S
C582 C585 1.348 . S
C582 H614 0.929 . S
C583 C584 1.358 . S
C583 C585 1.356 . S
C583 H615 0.930 . S
C584 N581 1.279 . S
C584 C583 1.358 . S
C584 H587 0.930 . S
C585 C582 1.348 . S
C585 C583 1.356 . S
H586 C580 0.930 . S
H587 C584 0.930 . S
O588 Li528 1.956 . S
O588 Li529 1.970 . S
O588 Li530 1.961 . S
O588 C532 1.325 . S
O589 Li528 1.970 . S
O589 Li529 1.956 . S
O589 Li531 1.961 . S
O589 C538 1.325 . S
O590 Li528 1.961 . S
O590 Li530 1.956 . S
O590 Li531 1.970 . S
O590 C560 1.325 . S
O591 Li529 1.961 . S
O591 Li530 1.970 . S
O591 Li531 1.956 . S
O591 C566 1.325 . S
H592 C534 0.929 . S
H593 C535 0.930 . S
H594 C536 0.930 . S
H595 C537 0.930 . S
H596 C539 0.930 . S
H597 C541 0.929 . S
H598 C542 0.930 . S
H599 C543 0.930 . S
H600 C546 0.930 . S
H601 C549 0.929 . S
H602 C554 0.929 . S
H603 C555 0.930 . S
H604 C562 0.929 . S
H605 C563 0.930 . S
H606 C564 0.930 . S
H607 C565 0.930 . S
H608 C567 0.929 . S
H609 C568 0.930 . S
H610 C569 0.930 . S
H611 C570 0.930 . S
H612 C574 0.929 . S
H613 C576 0.930 . S
H614 C582 0.929 . S
H615 C583 0.930 . S
Li616 N633 1.990 . S
Li616 O676 1.956 . S
Li616 O677 1.970 . S
Li616 O678 1.961 . S
Li617 N641 1.990 . S
Li617 O676 1.970 . S
Li617 O677 1.956 . S
Li617 O679 1.961 . S
Li618 N663 1.990 . S
Li618 O676 1.961 . S
Li618 O678 1.956 . S
Li618 O679 1.970 . S
Li619 N669 1.990 . S
Li619 O677 1.961 . S
Li619 O678 1.970 . S
Li619 O679 1.956 . S
C620 C622 1.348 . S
C620 C623 1.356 . S
C620 O676 1.325 . S
N621 C624 1.314 . S
N621 C625 1.279 . S
C622 C620 1.348 . S
C622 C624 1.353 . S
C622 H680 0.929 . S
C623 C620 1.356 . S
C623 C625 1.358 . S
C623 H681 0.930 . S
C624 N621 1.314 . S
C624 C622 1.353 . S
C624 H682 0.930 . S
C625 N621 1.279 . S
C625 C623 1.358 . S
C625 H683 0.930 . S
C626 C629 1.348 . S
C626 C630 1.356 . S
C626 O677 1.325 . S
C627 N628 1.279 . S
C627 C630 1.358 . S
C627 H684 0.930 . S
N628 C627 1.279 . S
N628 C631 1.314 . S
C629 C626 1.348 . S
C629 C631 1.353 . S
C629 H685 0.929 . S
C630 C626 1.356 . S
C630 C627 1.358 . S
C630 H686 0.930 . S
C631 N628 1.314 . S
C631 C629 1.353 . S
C631 H687 0.930 . S
C632 N633 1.314 . S
C632 C637 1.353 . S
C632 H638 0.930 . S
N633 Li616 1.990 . S
N633 C632 1.314 . S
N633 C635 1.279 . S
C634 C635 1.358 . S
C634 C636 1.356 . S
C634 H688 0.930 . S
C635 N633 1.279 . S
C635 C634 1.358 . S
C635 H639 0.930 . S
C636 C634 1.356 . S
C636 C637 1.348 . S
C637 C632 1.353 . S
C637 C636 1.348 . S
C637 H689 0.929 . S
H638 C632 0.930 . S
H639 C635 0.930 . S
C640 N641 1.314 . S
C640 C642 1.353 . S
C640 H646 0.930 . S
N641 Li617 1.990 . S
N641 C640 1.314 . S
N641 C644 1.279 . S
C642 C640 1.353 . S
C642 C645 1.348 . S
C642 H690 0.929 . S
C643 C644 1.358 . S
C643 C645 1.356 . S
C643 H691 0.930 . S
C644 N641 1.279 . S
C644 C643 1.358 . S
C644 H647 0.930 . S
C645 C642 1.348 . S
C645 C643 1.356 . S
H646 C640 0.930 . S
H647 C644 0.930 . S
C648 C650 1.348 . S
C648 C651 1.356 . S
C648 O678 1.325 . S
N649 C652 1.314 . S
N649 C653 1.279 . S
C650 C648 1.348 . S
C650 C652 1.353 . S
C650 H692 0.929 . S
C651 C648 1.356 . S
C651 C653 1.358 . S
C651 H693 0.930 . S
C652 N649 1.314 . S
C652 C650 1.353 . S
C652 H694 0.930 . S
C653 N649 1.279 . S
C653 C651 1.358 . S
C653 H695 0.930 . S
C654 C655 1.348 . S
C654 C656 1.356 . S
C654 O679 1.325 . S
C655 C654 1.348 . S
C655 C657 1.353 . S
C655 H696 0.929 . S
C656 C654 1.356 . S
C656 C658 1.358 . S
C656 H697 0.930 . S
C657 C655 1.353 . S
C657 N659 1.314 . S
C657 H698 0.930 . S
C658 C656 1.358 . S
C658 N659 1.279 . S
C658 H699 0.930 . S
N659 C657 1.314 . S
N659 C658 1.279 . S
C660 C662 1.353 . S
C660 N663 1.314 . S
C660 H666 0.930 . S
C661 N663 1.279 . S
C661 C664 1.358 . S
C661 H667 0.930 . S
C662 C660 1.353 . S
C662 C665 1.348 . S
C662 H700 0.929 . S
N663 Li618 1.990 . S
N663 C660 1.314 . S
N663 C661 1.279 . S
C664 C661 1.358 . S
C664 C665 1.356 . S
C664 H701 0.930 . S
C665 C662 1.348 . S
C665 C664 1.356 . S
H666 C660 0.930 . S
H667 C661 0.930 . S
C668 N669 1.314 . S
C668 C670 1.353 . S
C668 H674 0.930 . S
N669 Li619 1.990 . S
N669 C668 1.314 . S
N669 C672 1.279 . S
C670 C668 1.353 . S
C670 C673 1.348 . S
C670 H702 0.929 . S
C671 C672 1.358 . S
C671 C673 1.356 . S
C671 H703 0.930 . S
C672 N669 1.279 . S
C672 C671 1.358 . S
C672 H675 0.930 . S
C673 C670 1.348 . S
C673 C671 1.356 . S
H674 C668 0.930 . S
H675 C672 0.930 . S
O676 Li616 1.956 . S
O676 Li617 1.970 . S
O676 Li618 1.961 . S
O676 C620 1.325 . S
O677 Li616 1.970 . S
O677 Li617 1.956 . S
O677 Li619 1.961 . S
O677 C626 1.325 . S
O678 Li616 1.961 . S
O678 Li618 1.956 . S
O678 Li619 1.970 . S
O678 C648 1.325 . S
O679 Li617 1.961 . S
O679 Li618 1.970 . S
O679 Li619 1.956 . S
O679 C654 1.325 . S
H680 C622 0.929 . S
H681 C623 0.930 . S
H682 C624 0.930 . S
H683 C625 0.930 . S
H684 C627 0.930 . S
H685 C629 0.929 . S
H686 C630 0.930 . S
H687 C631 0.930 . S
H688 C634 0.930 . S
H689 C637 0.929 . S
H690 C642 0.929 . S
H691 C643 0.930 . S
H692 C650 0.929 . S
H693 C651 0.930 . S
H694 C652 0.930 . S
H695 C653 0.930 . S
H696 C655 0.929 . S
H697 C656 0.930 . S
H698 C657 0.930 . S
H699 C658 0.930 . S
H700 C662 0.929 . S
H701 C664 0.930 . S
H702 C670 0.929 . S
H703 C671 0.930 . S
Li704 N721 1.990 . S
Li704 O764 1.956 . S
Li704 O765 1.970 . S
Li704 O766 1.961 . S
Li705 N729 1.990 . S
Li705 O764 1.970 . S
Li705 O765 1.956 . S
Li705 O767 1.961 . S
Li706 N751 1.990 . S
Li706 O764 1.961 . S
Li706 O766 1.956 . S
Li706 O767 1.970 . S
Li707 N757 1.990 . S
Li707 O765 1.961 . S
Li707 O766 1.970 . S
Li707 O767 1.956 . S
C708 C710 1.348 . S
C708 C711 1.356 . S
C708 O764 1.325 . S
N709 C712 1.314 . S
N709 C713 1.279 . S
C710 C708 1.348 . S
C710 C712 1.353 . S
C710 H768 0.929 . S
C711 C708 1.356 . S
C711 C713 1.358 . S
C711 H769 0.930 . S
C712 N709 1.314 . S
C712 C710 1.353 . S
C712 H770 0.930 . S
C713 N709 1.279 . S
C713 C711 1.358 . S
C713 H771 0.930 . S
C714 C717 1.348 . S
C714 C718 1.356 . S
C714 O765 1.325 . S
C715 N716 1.279 . S
C715 C718 1.358 . S
C715 H772 0.930 . S
N716 C715 1.279 . S
N716 C719 1.314 . S
C717 C714 1.348 . S
C717 C719 1.353 . S
C717 H773 0.929 . S
C718 C714 1.356 . S
C718 C715 1.358 . S
C718 H774 0.930 . S
C719 N716 1.314 . S
C719 C717 1.353 . S
C719 H775 0.930 . S
C720 N721 1.314 . S
C720 C725 1.353 . S
C720 H726 0.930 . S
N721 Li704 1.990 . S
N721 C720 1.314 . S
N721 C723 1.279 . S
C722 C723 1.358 . S
C722 C724 1.356 . S
C722 H776 0.930 . S
C723 N721 1.279 . S
C723 C722 1.358 . S
C723 H727 0.930 . S
C724 C722 1.356 . S
C724 C725 1.348 . S
C725 C720 1.353 . S
C725 C724 1.348 . S
C725 H777 0.929 . S
H726 C720 0.930 . S
H727 C723 0.930 . S
C728 N729 1.314 . S
C728 C730 1.353 . S
C728 H734 0.930 . S
N729 Li705 1.990 . S
N729 C728 1.314 . S
N729 C732 1.279 . S
C730 C728 1.353 . S
C730 C733 1.348 . S
C730 H778 0.929 . S
C731 C732 1.358 . S
C731 C733 1.356 . S
C731 H779 0.930 . S
C732 N729 1.279 . S
C732 C731 1.358 . S
C732 H735 0.930 . S
C733 C730 1.348 . S
C733 C731 1.356 . S
H734 C728 0.930 . S
H735 C732 0.930 . S
C736 C738 1.348 . S
C736 C739 1.356 . S
C736 O766 1.325 . S
N737 C740 1.314 . S
N737 C741 1.279 . S
C738 C736 1.348 . S
C738 C740 1.353 . S
C738 H780 0.929 . S
C739 C736 1.356 . S
C739 C741 1.358 . S
C739 H781 0.930 . S
C740 N737 1.314 . S
C740 C738 1.353 . S
C740 H782 0.930 . S
C741 N737 1.279 . S
C741 C739 1.358 . S
C741 H783 0.930 . S
C742 C743 1.348 . S
C742 C744 1.356 . S
C742 O767 1.325 . S
C743 C742 1.348 . S
C743 C745 1.353 . S
C743 H784 0.929 . S
C744 C742 1.356 . S
C744 C746 1.358 . S
C744 H785 0.930 . S
C745 C743 1.353 . S
C745 N747 1.314 . S
C745 H786 0.930 . S
C746 C744 1.358 . S
C746 N747 1.279 . S
C746 H787 0.930 . S
N747 C745 1.314 . S
N747 C746 1.279 . S
C748 C750 1.353 . S
C748 N751 1.314 . S
C748 H754 0.930 . S
C749 N751 1.279 . S
C749 C752 1.358 . S
C749 H755 0.930 . S
C750 C748 1.353 . S
C750 C753 1.348 . S
C750 H788 0.929 . S
N751 Li706 1.990 . S
N751 C748 1.314 . S
N751 C749 1.279 . S
C752 C749 1.358 . S
C752 C753 1.356 . S
C752 H789 0.930 . S
C753 C750 1.348 . S
C753 C752 1.356 . S
H754 C748 0.930 . S
H755 C749 0.930 . S
C756 N757 1.314 . S
C756 C758 1.353 . S
C756 H762 0.930 . S
N757 Li707 1.990 . S
N757 C756 1.314 . S
N757 C760 1.279 . S
C758 C756 1.353 . S
C758 C761 1.348 . S
C758 H790 0.929 . S
C759 C760 1.358 . S
C759 C761 1.356 . S
C759 H791 0.930 . S
C760 N757 1.279 . S
C760 C759 1.358 . S
C760 H763 0.930 . S
C761 C758 1.348 . S
C761 C759 1.356 . S
H762 C756 0.930 . S
H763 C760 0.930 . S
O764 Li704 1.956 . S
O764 Li705 1.970 . S
O764 Li706 1.961 . S
O764 C708 1.325 . S
O765 Li704 1.970 . S
O765 Li705 1.956 . S
O765 Li707 1.961 . S
O765 C714 1.325 . S
O766 Li704 1.961 . S
O766 Li706 1.956 . S
O766 Li707 1.970 . S
O766 C736 1.325 . S
O767 Li705 1.961 . S
O767 Li706 1.970 . S
O767 Li707 1.956 . S
O767 C742 1.325 . S
H768 C710 0.929 . S
H769 C711 0.930 . S
H770 C712 0.930 . S
H771 C713 0.930 . S
H772 C715 0.930 . S
H773 C717 0.929 . S
H774 C718 0.930 . S
H775 C719 0.930 . S
H776 C722 0.930 . S
H777 C725 0.929 . S
H778 C730 0.929 . S
H779 C731 0.930 . S
H780 C738 0.929 . S
H781 C739 0.930 . S
H782 C740 0.930 . S
H783 C741 0.930 . S
H784 C743 0.929 . S
H785 C744 0.930 . S
H786 C745 0.930 . S
H787 C746 0.930 . S
H788 C750 0.929 . S
H789 C752 0.930 . S
H790 C758 0.929 . S
H791 C759 0.930 . S
Li792 N809 1.990 . S
Li792 O852 1.956 . S
Li792 O853 1.970 . S
Li792 O854 1.961 . S
Li793 N817 1.990 . S
Li793 O852 1.970 . S
Li793 O853 1.956 . S
Li793 O855 1.961 . S
Li794 N839 1.990 . S
Li794 O852 1.961 . S
Li794 O854 1.956 . S
Li794 O855 1.970 . S
Li795 N845 1.990 . S
Li795 O853 1.961 . S
Li795 O854 1.970 . S
Li795 O855 1.956 . S
C796 C798 1.348 . S
C796 C799 1.356 . S
C796 O852 1.325 . S
N797 C800 1.314 . S
N797 C801 1.279 . S
C798 C796 1.348 . S
C798 C800 1.353 . S
C798 H856 0.929 . S
C799 C796 1.356 . S
C799 C801 1.358 . S
C799 H857 0.930 . S
C800 N797 1.314 . S
C800 C798 1.353 . S
C800 H858 0.930 . S
C801 N797 1.279 . S
C801 C799 1.358 . S
C801 H859 0.930 . S
C802 C805 1.348 . S
C802 C806 1.356 . S
C802 O853 1.325 . S
C803 N804 1.279 . S
C803 C806 1.358 . S
C803 H860 0.930 . S
N804 C803 1.279 . S
N804 C807 1.314 . S
C805 C802 1.348 . S
C805 C807 1.353 . S
C805 H861 0.929 . S
C806 C802 1.356 . S
C806 C803 1.358 . S
C806 H862 0.930 . S
C807 N804 1.314 . S
C807 C805 1.353 . S
C807 H863 0.930 . S
C808 N809 1.314 . S
C808 C813 1.353 . S
C808 H814 0.930 . S
N809 Li792 1.990 . S
N809 C808 1.314 . S
N809 C811 1.279 . S
C810 C811 1.358 . S
C810 C812 1.356 . S
C810 H864 0.930 . S
C811 N809 1.279 . S
C811 C810 1.358 . S
C811 H815 0.930 . S
C812 C810 1.356 . S
C812 C813 1.348 . S
C813 C808 1.353 . S
C813 C812 1.348 . S
C813 H865 0.929 . S
H814 C808 0.930 . S
H815 C811 0.930 . S
C816 N817 1.314 . S
C816 C818 1.353 . S
C816 H822 0.930 . S
N817 Li793 1.990 . S
N817 C816 1.314 . S
N817 C820 1.279 . S
C818 C816 1.353 . S
C818 C821 1.348 . S
C818 H866 0.929 . S
C819 C820 1.358 . S
C819 C821 1.356 . S
C819 H867 0.930 . S
C820 N817 1.279 . S
C820 C819 1.358 . S
C820 H823 0.930 . S
C821 C818 1.348 . S
C821 C819 1.356 . S
H822 C816 0.930 . S
H823 C820 0.930 . S
C824 C826 1.348 . S
C824 C827 1.356 . S
C824 O854 1.325 . S
N825 C828 1.314 . S
N825 C829 1.279 . S
C826 C824 1.348 . S
C826 C828 1.353 . S
C826 H868 0.929 . S
C827 C824 1.356 . S
C827 C829 1.358 . S
C827 H869 0.930 . S
C828 N825 1.314 . S
C828 C826 1.353 . S
C828 H870 0.930 . S
C829 N825 1.279 . S
C829 C827 1.358 . S
C829 H871 0.930 . S
C830 C831 1.348 . S
C830 C832 1.356 . S
C830 O855 1.325 . S
C831 C830 1.348 . S
C831 C833 1.353 . S
C831 H872 0.929 . S
C832 C830 1.356 . S
C832 C834 1.358 . S
C832 H873 0.930 . S
C833 C831 1.353 . S
C833 N835 1.314 . S
C833 H874 0.930 . S
C834 C832 1.358 . S
C834 N835 1.279 . S
C834 H875 0.930 . S
N835 C833 1.314 . S
N835 C834 1.279 . S
C836 C838 1.353 . S
C836 N839 1.314 . S
C836 H842 0.930 . S
C837 N839 1.279 . S
C837 C840 1.358 . S
C837 H843 0.930 . S
C838 C836 1.353 . S
C838 C841 1.348 . S
C838 H876 0.929 . S
N839 Li794 1.990 . S
N839 C836 1.314 . S
N839 C837 1.279 . S
C840 C837 1.358 . S
C840 C841 1.356 . S
C840 H877 0.930 . S
C841 C838 1.348 . S
C841 C840 1.356 . S
H842 C836 0.930 . S
H843 C837 0.930 . S
C844 N845 1.314 . S
C844 C846 1.353 . S
C844 H850 0.930 . S
N845 Li795 1.990 . S
N845 C844 1.314 . S
N845 C848 1.279 . S
C846 C844 1.353 . S
C846 C849 1.348 . S
C846 H878 0.929 . S
C847 C848 1.358 . S
C847 C849 1.356 . S
C847 H879 0.930 . S
C848 N845 1.279 . S
C848 C847 1.358 . S
C848 H851 0.930 . S
C849 C846 1.348 . S
C849 C847 1.356 . S
H850 C844 0.930 . S
H851 C848 0.930 . S
O852 Li792 1.956 . S
O852 Li793 1.970 . S
O852 Li794 1.961 . S
O852 C796 1.325 . S
O853 Li792 1.970 . S
O853 Li793 1.956 . S
O853 Li795 1.961 . S
O853 C802 1.325 . S
O854 Li792 1.961 . S
O854 Li794 1.956 . S
O854 Li795 1.970 . S
O854 C824 1.325 . S
O855 Li793 1.961 . S
O855 Li794 1.970 . S
O855 Li795 1.956 . S
O855 C830 1.325 . S
H856 C798 0.929 . S
H857 C799 0.930 . S
H858 C800 0.930 . S
H859 C801 0.930 . S
H860 C803 0.930 . S
H861 C805 0.929 . S
H862 C806 0.930 . S
H863 C807 0.930 . S
H864 C810 0.930 . S
H865 C813 0.929 . S
H866 C818 0.929 . S
H867 C819 0.930 . S
H868 C826 0.929 . S
H869 C827 0.930 . S
H870 C828 0.930 . S
H871 C829 0.930 . S
H872 C831 0.929 . S
H873 C832 0.930 . S
H874 C833 0.930 . S
H875 C834 0.930 . S
H876 C838 0.929 . S
H877 C840 0.930 . S
H878 C846 0.929 . S
H879 C847 0.930 . S
Li880 N897 1.990 . S
Li880 O940 1.956 . S
Li880 O941 1.970 . S
Li880 O942 1.961 . S
Li881 N905 1.990 . S
Li881 O940 1.970 . S
Li881 O941 1.956 . S
Li881 O943 1.961 . S
Li882 N927 1.990 . S
Li882 O940 1.961 . S
Li882 O942 1.956 . S
Li882 O943 1.970 . S
Li883 N933 1.990 . S
Li883 O941 1.961 . S
Li883 O942 1.970 . S
Li883 O943 1.956 . S
C884 C886 1.348 . S
C884 C887 1.356 . S
C884 O940 1.325 . S
N885 C888 1.314 . S
N885 C889 1.279 . S
C886 C884 1.348 . S
C886 C888 1.353 . S
C886 H944 0.929 . S
C887 C884 1.356 . S
C887 C889 1.358 . S
C887 H945 0.930 . S
C888 N885 1.314 . S
C888 C886 1.353 . S
C888 H946 0.930 . S
C889 N885 1.279 . S
C889 C887 1.358 . S
C889 H947 0.930 . S
C890 C893 1.348 . S
C890 C894 1.356 . S
C890 O941 1.325 . S
C891 N892 1.279 . S
C891 C894 1.358 . S
C891 H948 0.930 . S
N892 C891 1.279 . S
N892 C895 1.314 . S
C893 C890 1.348 . S
C893 C895 1.353 . S
C893 H949 0.929 . S
C894 C890 1.356 . S
C894 C891 1.358 . S
C894 H950 0.930 . S
C895 N892 1.314 . S
C895 C893 1.353 . S
C895 H951 0.930 . S
C896 N897 1.314 . S
C896 C901 1.353 . S
C896 H902 0.930 . S
N897 Li880 1.990 . S
N897 C896 1.314 . S
N897 C899 1.279 . S
C898 C899 1.358 . S
C898 C900 1.356 . S
C898 H952 0.930 . S
C899 N897 1.279 . S
C899 C898 1.358 . S
C899 H903 0.930 . S
C900 C898 1.356 . S
C900 C901 1.348 . S
C901 C896 1.353 . S
C901 C900 1.348 . S
C901 H953 0.929 . S
H902 C896 0.930 . S
H903 C899 0.930 . S
C904 N905 1.314 . S
C904 C906 1.353 . S
C904 H910 0.930 . S
N905 Li881 1.990 . S
N905 C904 1.314 . S
N905 C908 1.279 . S
C906 C904 1.353 . S
C906 C909 1.348 . S
C906 H954 0.929 . S
C907 C908 1.358 . S
C907 C909 1.356 . S
C907 H955 0.930 . S
C908 N905 1.279 . S
C908 C907 1.358 . S
C908 H911 0.930 . S
C909 C906 1.348 . S
C909 C907 1.356 . S
H910 C904 0.930 . S
H911 C908 0.930 . S
C912 C914 1.348 . S
C912 C915 1.356 . S
C912 O942 1.325 . S
N913 C916 1.314 . S
N913 C917 1.279 . S
C914 C912 1.348 . S
C914 C916 1.353 . S
C914 H956 0.929 . S
C915 C912 1.356 . S
C915 C917 1.358 . S
C915 H957 0.930 . S
C916 N913 1.314 . S
C916 C914 1.353 . S
C916 H958 0.930 . S
C917 N913 1.279 . S
C917 C915 1.358 . S
C917 H959 0.930 . S
C918 C919 1.348 . S
C918 C920 1.356 . S
C918 O943 1.325 . S
C919 C918 1.348 . S
C919 C921 1.353 . S
C919 H960 0.929 . S
C920 C918 1.356 . S
C920 C922 1.358 . S
C920 H961 0.930 . S
C921 C919 1.353 . S
C921 N923 1.314 . S
C921 H962 0.930 . S
C922 C920 1.358 . S
C922 N923 1.279 . S
C922 H963 0.930 . S
N923 C921 1.314 . S
N923 C922 1.279 . S
C924 C926 1.353 . S
C924 N927 1.314 . S
C924 H930 0.930 . S
C925 N927 1.279 . S
C925 C928 1.358 . S
C925 H931 0.930 . S
C926 C924 1.353 . S
C926 C929 1.348 . S
C926 H964 0.929 . S
N927 Li882 1.990 . S
N927 C924 1.314 . S
N927 C925 1.279 . S
C928 C925 1.358 . S
C928 C929 1.356 . S
C928 H965 0.930 . S
C929 C926 1.348 . S
C929 C928 1.356 . S
H930 C924 0.930 . S
H931 C925 0.930 . S
C932 N933 1.314 . S
C932 C934 1.353 . S
C932 H938 0.930 . S
N933 Li883 1.990 . S
N933 C932 1.314 . S
N933 C936 1.279 . S
C934 C932 1.353 . S
C934 C937 1.348 . S
C934 H966 0.929 . S
C935 C936 1.358 . S
C935 C937 1.356 . S
C935 H967 0.930 . S
C936 N933 1.279 . S
C936 C935 1.358 . S
C936 H939 0.930 . S
C937 C934 1.348 . S
C937 C935 1.356 . S
H938 C932 0.930 . S
H939 C936 0.930 . S
O940 Li880 1.956 . S
O940 Li881 1.970 . S
O940 Li882 1.961 . S
O940 C884 1.325 . S
O941 Li880 1.970 . S
O941 Li881 1.956 . S
O941 Li883 1.961 . S
O941 C890 1.325 . S
O942 Li880 1.961 . S
O942 Li882 1.956 . S
O942 Li883 1.970 . S
O942 C912 1.325 . S
O943 Li881 1.961 . S
O943 Li882 1.970 . S
O943 Li883 1.956 . S
O943 C918 1.325 . S
H944 C886 0.929 . S
H945 C887 0.930 . S
H946 C888 0.930 . S
H947 C889 0.930 . S
H948 C891 0.930 . S
H949 C893 0.929 . S
H950 C894 0.930 . S
H951 C895 0.930 . S
H952 C898 0.930 . S
H953 C901 0.929 . S
H954 C906 0.929 . S
H955 C907 0.930 . S
H956 C914 0.929 . S
H957 C915 0.930 . S
H958 C916 0.930 . S
H959 C917 0.930 . S
H960 C919 0.929 . S
H961 C920 0.930 . S
H962 C921 0.930 . S
H963 C922 0.930 . S
H964 C926 0.929 . S
H965 C928 0.930 . S
H966 C934 0.929 . S
H967 C935 0.930 . S
Li968 N985 1.990 . S
Li968 O1028 1.956 . S
Li968 O1029 1.970 . S
Li968 O1030 1.961 . S
Li969 N993 1.990 . S
Li969 O1028 1.970 . S
Li969 O1029 1.956 . S
Li969 O1031 1.961 . S
Li970 N1015 1.990 . S
Li970 O1028 1.961 . S
Li970 O1030 1.956 . S
Li970 O1031 1.970 . S
Li971 N1021 1.990 . S
Li971 O1029 1.961 . S
Li971 O1030 1.970 . S
Li971 O1031 1.956 . S
C972 C974 1.348 . S
C972 C975 1.356 . S
C972 O1028 1.325 . S
N973 C976 1.314 . S
N973 C977 1.279 . S
C974 C972 1.348 . S
C974 C976 1.353 . S
C974 H1032 0.929 . S
C975 C972 1.356 . S
C975 C977 1.358 . S
C975 H1033 0.930 . S
C976 N973 1.314 . S
C976 C974 1.353 . S
C976 H1034 0.930 . S
C977 N973 1.279 . S
C977 C975 1.358 . S
C977 H1035 0.930 . S
C978 C981 1.348 . S
C978 C982 1.356 . S
C978 O1029 1.325 . S
C979 N980 1.279 . S
C979 C982 1.358 . S
C979 H1036 0.930 . S
N980 C979 1.279 . S
N980 C983 1.314 . S
C981 C978 1.348 . S
C981 C983 1.353 . S
C981 H1037 0.929 . S
C982 C978 1.356 . S
C982 C979 1.358 . S
C982 H1038 0.930 . S
C983 N980 1.314 . S
C983 C981 1.353 . S
C983 H1039 0.930 . S
C984 N985 1.314 . S
C984 C989 1.353 . S
C984 H990 0.930 . S
N985 Li968 1.990 . S
N985 C984 1.314 . S
N985 C987 1.279 . S
C986 C987 1.358 . S
C986 C988 1.356 . S
C986 H1040 0.930 . S
C987 N985 1.279 . S
C987 C986 1.358 . S
C987 H991 0.930 . S
C988 C986 1.356 . S
C988 C989 1.348 . S
C989 C984 1.353 . S
C989 C988 1.348 . S
C989 H1041 0.929 . S
H990 C984 0.930 . S
H991 C987 0.930 . S
C992 N993 1.314 . S
C992 C994 1.353 . S
C992 H998 0.930 . S
N993 Li969 1.990 . S
N993 C992 1.314 . S
N993 C996 1.279 . S
C994 C992 1.353 . S
C994 C997 1.348 . S
C994 H1042 0.929 . S
C995 C996 1.358 . S
C995 C997 1.356 . S
C995 H1043 0.930 . S
C996 N993 1.279 . S
C996 C995 1.358 . S
C996 H999 0.930 . S
C997 C994 1.348 . S
C997 C995 1.356 . S
H998 C992 0.930 . S
H999 C996 0.930 . S
C1000 C1002 1.348 . S
C1000 C1003 1.356 . S
C1000 O1030 1.325 . S
N1001 C1004 1.314 . S
N1001 C1005 1.279 . S
C1002 C1000 1.348 . S
C1002 C1004 1.353 . S
C1002 H1044 0.929 . S
C1003 C1000 1.356 . S
C1003 C1005 1.358 . S
C1003 H1045 0.930 . S
C1004 N1001 1.314 . S
C1004 C1002 1.353 . S
C1004 H1046 0.930 . S
C1005 N1001 1.279 . S
C1005 C1003 1.358 . S
C1005 H1047 0.930 . S
C1006 C1007 1.348 . S
C1006 C1008 1.356 . S
C1006 O1031 1.325 . S
C1007 C1006 1.348 . S
C1007 C1009 1.353 . S
C1007 H1048 0.929 . S
C1008 C1006 1.356 . S
C1008 C1010 1.358 . S
C1008 H1049 0.930 . S
C1009 C1007 1.353 . S
C1009 N1011 1.314 . S
C1009 H1050 0.930 . S
C1010 C1008 1.358 . S
C1010 N1011 1.279 . S
C1010 H1051 0.930 . S
N1011 C1009 1.314 . S
N1011 C1010 1.279 . S
C1012 C1014 1.353 . S
C1012 N1015 1.314 . S
C1012 H1018 0.930 . S
C1013 N1015 1.279 . S
C1013 C1016 1.358 . S
C1013 H1019 0.930 . S
C1014 C1012 1.353 . S
C1014 C1017 1.348 . S
C1014 H1052 0.929 . S
N1015 Li970 1.990 . S
N1015 C1012 1.314 . S
N1015 C1013 1.279 . S
C1016 C1013 1.358 . S
C1016 C1017 1.356 . S
C1016 H1053 0.930 . S
C1017 C1014 1.348 . S
C1017 C1016 1.356 . S
H1018 C1012 0.930 . S
H1019 C1013 0.930 . S
C1020 N1021 1.314 . S
C1020 C1022 1.353 . S
C1020 H1026 0.930 . S
N1021 Li971 1.990 . S
N1021 C1020 1.314 . S
N1021 C1024 1.279 . S
C1022 C1020 1.353 . S
C1022 C1025 1.348 . S
C1022 H1054 0.929 . S
C1023 C1024 1.358 . S
C1023 C1025 1.356 . S
C1023 H1055 0.930 . S
C1024 N1021 1.279 . S
C1024 C1023 1.358 . S
C1024 H1027 0.930 . S
C1025 C1022 1.348 . S
C1025 C1023 1.356 . S
H1026 C1020 0.930 . S
H1027 C1024 0.930 . S
O1028 Li968 1.956 . S
O1028 Li969 1.970 . S
O1028 Li970 1.961 . S
O1028 C972 1.325 . S
O1029 Li968 1.970 . S
O1029 Li969 1.956 . S
O1029 Li971 1.961 . S
O1029 C978 1.325 . S
O1030 Li968 1.961 . S
O1030 Li970 1.956 . S
O1030 Li971 1.970 . S
O1030 C1000 1.325 . S
O1031 Li969 1.961 . S
O1031 Li970 1.970 . S
O1031 Li971 1.956 . S
O1031 C1006 1.325 . S
H1032 C974 0.929 . S
H1033 C975 0.930 . S
H1034 C976 0.930 . S
H1035 C977 0.930 . S
H1036 C979 0.930 . S
H1037 C981 0.929 . S
H1038 C982 0.930 . S
H1039 C983 0.930 . S
H1040 C986 0.930 . S
H1041 C989 0.929 . S
H1042 C994 0.929 . S
H1043 C995 0.930 . S
H1044 C1002 0.929 . S
H1045 C1003 0.930 . S
H1046 C1004 0.930 . S
H1047 C1005 0.930 . S
H1048 C1007 0.929 . S
H1049 C1008 0.930 . S
H1050 C1009 0.930 . S
H1051 C1010 0.930 . S
H1052 C1014 0.929 . S
H1053 C1016 0.930 . S
H1054 C1022 0.929 . S
H1055 C1023 0.930 . S
Li1056 N1073 1.990 . S
Li1056 O1116 1.956 . S
Li1056 O1117 1.970 . S
Li1056 O1118 1.961 . S
Li1057 N1081 1.990 . S
Li1057 O1116 1.970 . S
Li1057 O1117 1.956 . S
Li1057 O1119 1.961 . S
Li1058 N1103 1.990 . S
Li1058 O1116 1.961 . S
Li1058 O1118 1.956 . S
Li1058 O1119 1.970 . S
Li1059 N1109 1.990 . S
Li1059 O1117 1.961 . S
Li1059 O1118 1.970 . S
Li1059 O1119 1.956 . S
C1060 C1062 1.348 . S
C1060 C1063 1.356 . S
C1060 O1116 1.325 . S
N1061 C1064 1.314 . S
N1061 C1065 1.279 . S
C1062 C1060 1.348 . S
C1062 C1064 1.353 . S
C1062 H1120 0.929 . S
C1063 C1060 1.356 . S
C1063 C1065 1.358 . S
C1063 H1121 0.930 . S
C1064 N1061 1.314 . S
C1064 C1062 1.353 . S
C1064 H1122 0.930 . S
C1065 N1061 1.279 . S
C1065 C1063 1.358 . S
C1065 H1123 0.930 . S
C1066 C1069 1.348 . S
C1066 C1070 1.356 . S
C1066 O1117 1.325 . S
C1067 N1068 1.279 . S
C1067 C1070 1.358 . S
C1067 H1124 0.930 . S
N1068 C1067 1.279 . S
N1068 C1071 1.314 . S
C1069 C1066 1.348 . S
C1069 C1071 1.353 . S
C1069 H1125 0.929 . S
C1070 C1066 1.356 . S
C1070 C1067 1.358 . S
C1070 H1126 0.930 . S
C1071 N1068 1.314 . S
C1071 C1069 1.353 . S
C1071 H1127 0.930 . S
C1072 N1073 1.314 . S
C1072 C1077 1.353 . S
C1072 H1078 0.930 . S
N1073 Li1056 1.990 . S
N1073 C1072 1.314 . S
N1073 C1075 1.279 . S
C1074 C1075 1.358 . S
C1074 C1076 1.356 . S
C1074 H1128 0.930 . S
C1075 N1073 1.279 . S
C1075 C1074 1.358 . S
C1075 H1079 0.930 . S
C1076 C1074 1.356 . S
C1076 C1077 1.348 . S
C1077 C1072 1.353 . S
C1077 C1076 1.348 . S
C1077 H1129 0.929 . S
H1078 C1072 0.930 . S
H1079 C1075 0.930 . S
C1080 N1081 1.314 . S
C1080 C1082 1.353 . S
C1080 H1086 0.930 . S
N1081 Li1057 1.990 . S
N1081 C1080 1.314 . S
N1081 C1084 1.279 . S
C1082 C1080 1.353 . S
C1082 C1085 1.348 . S
C1082 H1130 0.929 . S
C1083 C1084 1.358 . S
C1083 C1085 1.356 . S
C1083 H1131 0.930 . S
C1084 N1081 1.279 . S
C1084 C1083 1.358 . S
C1084 H1087 0.930 . S
C1085 C1082 1.348 . S
C1085 C1083 1.356 . S
H1086 C1080 0.930 . S
H1087 C1084 0.930 . S
C1088 C1090 1.348 . S
C1088 C1091 1.356 . S
C1088 O1118 1.325 . S
N1089 C1092 1.314 . S
N1089 C1093 1.279 . S
C1090 C1088 1.348 . S
C1090 C1092 1.353 . S
C1090 H1132 0.929 . S
C1091 C1088 1.356 . S
C1091 C1093 1.358 . S
C1091 H1133 0.930 . S
C1092 N1089 1.314 . S
C1092 C1090 1.353 . S
C1092 H1134 0.930 . S
C1093 N1089 1.279 . S
C1093 C1091 1.358 . S
C1093 H1135 0.930 . S
C1094 C1095 1.348 . S
C1094 C1096 1.356 . S
C1094 O1119 1.325 . S
C1095 C1094 1.348 . S
C1095 C1097 1.353 . S
C1095 H1136 0.929 . S
C1096 C1094 1.356 . S
C1096 C1098 1.358 . S
C1096 H1137 0.930 . S
C1097 C1095 1.353 . S
C1097 N1099 1.314 . S
C1097 H1138 0.930 . S
C1098 C1096 1.358 . S
C1098 N1099 1.279 . S
C1098 H1139 0.930 . S
N1099 C1097 1.314 . S
N1099 C1098 1.279 . S
C1100 C1102 1.353 . S
C1100 N1103 1.314 . S
C1100 H1106 0.930 . S
C1101 N1103 1.279 . S
C1101 C1104 1.358 . S
C1101 H1107 0.930 . S
C1102 C1100 1.353 . S
C1102 C1105 1.348 . S
C1102 H1140 0.929 . S
N1103 Li1058 1.990 . S
N1103 C1100 1.314 . S
N1103 C1101 1.279 . S
C1104 C1101 1.358 . S
C1104 C1105 1.356 . S
C1104 H1141 0.930 . S
C1105 C1102 1.348 . S
C1105 C1104 1.356 . S
H1106 C1100 0.930 . S
H1107 C1101 0.930 . S
C1108 N1109 1.314 . S
C1108 C1110 1.353 . S
C1108 H1114 0.930 . S
N1109 Li1059 1.990 . S
N1109 C1108 1.314 . S
N1109 C1112 1.279 . S
C1110 C1108 1.353 . S
C1110 C1113 1.348 . S
C1110 H1142 0.929 . S
C1111 C1112 1.358 . S
C1111 C1113 1.356 . S
C1111 H1143 0.930 . S
C1112 N1109 1.279 . S
C1112 C1111 1.358 . S
C1112 H1115 0.930 . S
C1113 C1110 1.348 . S
C1113 C1111 1.356 . S
H1114 C1108 0.930 . S
H1115 C1112 0.930 . S
O1116 Li1056 1.956 . S
O1116 Li1057 1.970 . S
O1116 Li1058 1.961 . S
O1116 C1060 1.325 . S
O1117 Li1056 1.970 . S
O1117 Li1057 1.956 . S
O1117 Li1059 1.961 . S
O1117 C1066 1.325 . S
O1118 Li1056 1.961 . S
O1118 Li1058 1.956 . S
O1118 Li1059 1.970 . S
O1118 C1088 1.325 . S
O1119 Li1057 1.961 . S
O1119 Li1058 1.970 . S
O1119 Li1059 1.956 . S
O1119 C1094 1.325 . S
H1120 C1062 0.929 . S
H1121 C1063 0.930 . S
H1122 C1064 0.930 . S
H1123 C1065 0.930 . S
H1124 C1067 0.930 . S
H1125 C1069 0.929 . S
H1126 C1070 0.930 . S
H1127 C1071 0.930 . S
H1128 C1074 0.930 . S
H1129 C1077 0.929 . S
H1130 C1082 0.929 . S
H1131 C1083 0.930 . S
H1132 C1090 0.929 . S
H1133 C1091 0.930 . S
H1134 C1092 0.930 . S
H1135 C1093 0.930 . S
H1136 C1095 0.929 . S
H1137 C1096 0.930 . S
H1138 C1097 0.930 . S
H1139 C1098 0.930 . S
H1140 C1102 0.929 . S
H1141 C1104 0.930 . S
H1142 C1110 0.929 . S
H1143 C1111 0.930 . S
Li1144 N1161 1.990 . S
Li1144 O1204 1.956 . S
Li1144 O1205 1.970 . S
Li1144 O1206 1.961 . S
Li1145 N1169 1.990 . S
Li1145 O1204 1.970 . S
Li1145 O1205 1.956 . S
Li1145 O1207 1.961 . S
Li1146 N1191 1.990 . S
Li1146 O1204 1.961 . S
Li1146 O1206 1.956 . S
Li1146 O1207 1.970 . S
Li1147 N1197 1.990 . S
Li1147 O1205 1.961 . S
Li1147 O1206 1.970 . S
Li1147 O1207 1.956 . S
C1148 C1150 1.348 . S
C1148 C1151 1.356 . S
C1148 O1204 1.325 . S
N1149 C1152 1.314 . S
N1149 C1153 1.279 . S
C1150 C1148 1.348 . S
C1150 C1152 1.353 . S
C1150 H1208 0.929 . S
C1151 C1148 1.356 . S
C1151 C1153 1.358 . S
C1151 H1209 0.930 . S
C1152 N1149 1.314 . S
C1152 C1150 1.353 . S
C1152 H1210 0.930 . S
C1153 N1149 1.279 . S
C1153 C1151 1.358 . S
C1153 H1211 0.930 . S
C1154 C1157 1.348 . S
C1154 C1158 1.356 . S
C1154 O1205 1.325 . S
C1155 N1156 1.279 . S
C1155 C1158 1.358 . S
C1155 H1212 0.930 . S
N1156 C1155 1.279 . S
N1156 C1159 1.314 . S
C1157 C1154 1.348 . S
C1157 C1159 1.353 . S
C1157 H1213 0.929 . S
C1158 C1154 1.356 . S
C1158 C1155 1.358 . S
C1158 H1214 0.930 . S
C1159 N1156 1.314 . S
C1159 C1157 1.353 . S
C1159 H1215 0.930 . S
C1160 N1161 1.314 . S
C1160 C1165 1.353 . S
C1160 H1166 0.930 . S
N1161 Li1144 1.990 . S
N1161 C1160 1.314 . S
N1161 C1163 1.279 . S
C1162 C1163 1.358 . S
C1162 C1164 1.356 . S
C1162 H1216 0.930 . S
C1163 N1161 1.279 . S
C1163 C1162 1.358 . S
C1163 H1167 0.930 . S
C1164 C1162 1.356 . S
C1164 C1165 1.348 . S
C1165 C1160 1.353 . S
C1165 C1164 1.348 . S
C1165 H1217 0.929 . S
H1166 C1160 0.930 . S
H1167 C1163 0.930 . S
C1168 N1169 1.314 . S
C1168 C1170 1.353 . S
C1168 H1174 0.930 . S
N1169 Li1145 1.990 . S
N1169 C1168 1.314 . S
N1169 C1172 1.279 . S
C1170 C1168 1.353 . S
C1170 C1173 1.348 . S
C1170 H1218 0.929 . S
C1171 C1172 1.358 . S
C1171 C1173 1.356 . S
C1171 H1219 0.930 . S
C1172 N1169 1.279 . S
C1172 C1171 1.358 . S
C1172 H1175 0.930 . S
C1173 C1170 1.348 . S
C1173 C1171 1.356 . S
H1174 C1168 0.930 . S
H1175 C1172 0.930 . S
C1176 C1178 1.348 . S
C1176 C1179 1.356 . S
C1176 O1206 1.325 . S
N1177 C1180 1.314 . S
N1177 C1181 1.279 . S
C1178 C1176 1.348 . S
C1178 C1180 1.353 . S
C1178 H1220 0.929 . S
C1179 C1176 1.356 . S
C1179 C1181 1.358 . S
C1179 H1221 0.930 . S
C1180 N1177 1.314 . S
C1180 C1178 1.353 . S
C1180 H1222 0.930 . S
C1181 N1177 1.279 . S
C1181 C1179 1.358 . S
C1181 H1223 0.930 . S
C1182 C1183 1.348 . S
C1182 C1184 1.356 . S
C1182 O1207 1.325 . S
C1183 C1182 1.348 . S
C1183 C1185 1.353 . S
C1183 H1224 0.929 . S
C1184 C1182 1.356 . S
C1184 C1186 1.358 . S
C1184 H1225 0.930 . S
C1185 C1183 1.353 . S
C1185 N1187 1.314 . S
C1185 H1226 0.930 . S
C1186 C1184 1.358 . S
C1186 N1187 1.279 . S
C1186 H1227 0.930 . S
N1187 C1185 1.314 . S
N1187 C1186 1.279 . S
C1188 C1190 1.353 . S
C1188 N1191 1.314 . S
C1188 H1194 0.930 . S
C1189 N1191 1.279 . S
C1189 C1192 1.358 . S
C1189 H1195 0.930 . S
C1190 C1188 1.353 . S
C1190 C1193 1.348 . S
C1190 H1228 0.929 . S
N1191 Li1146 1.990 . S
N1191 C1188 1.314 . S
N1191 C1189 1.279 . S
C1192 C1189 1.358 . S
C1192 C1193 1.356 . S
C1192 H1229 0.930 . S
C1193 C1190 1.348 . S
C1193 C1192 1.356 . S
H1194 C1188 0.930 . S
H1195 C1189 0.930 . S
C1196 N1197 1.314 . S
C1196 C1198 1.353 . S
C1196 H1202 0.930 . S
N1197 Li1147 1.990 . S
N1197 C1196 1.314 . S
N1197 C1200 1.279 . S
C1198 C1196 1.353 . S
C1198 C1201 1.348 . S
C1198 H1230 0.929 . S
C1199 C1200 1.358 . S
C1199 C1201 1.356 . S
C1199 H1231 0.930 . S
C1200 N1197 1.279 . S
C1200 C1199 1.358 . S
C1200 H1203 0.930 . S
C1201 C1198 1.348 . S
C1201 C1199 1.356 . S
H1202 C1196 0.930 . S
H1203 C1200 0.930 . S
O1204 Li1144 1.956 . S
O1204 Li1145 1.970 . S
O1204 Li1146 1.961 . S
O1204 C1148 1.325 . S
O1205 Li1144 1.970 . S
O1205 Li1145 1.956 . S
O1205 Li1147 1.961 . S
O1205 C1154 1.325 . S
O1206 Li1144 1.961 . S
O1206 Li1146 1.956 . S
O1206 Li1147 1.970 . S
O1206 C1176 1.325 . S
O1207 Li1145 1.961 . S
O1207 Li1146 1.970 . S
O1207 Li1147 1.956 . S
O1207 C1182 1.325 . S
H1208 C1150 0.929 . S
H1209 C1151 0.930 . S
H1210 C1152 0.930 . S
H1211 C1153 0.930 . S
H1212 C1155 0.930 . S
H1213 C1157 0.929 . S
H1214 C1158 0.930 . S
H1215 C1159 0.930 . S
H1216 C1162 0.930 . S
H1217 C1165 0.929 . S
H1218 C1170 0.929 . S
H1219 C1171 0.930 . S
H1220 C1178 0.929 . S
H1221 C1179 0.930 . S
H1222 C1180 0.930 . S
H1223 C1181 0.930 . S
H1224 C1183 0.929 . S
H1225 C1184 0.930 . S
H1226 C1185 0.930 . S
H1227 C1186 0.930 . S
H1228 C1190 0.929 . S
H1229 C1192 0.930 . S
H1230 C1198 0.929 . S
H1231 C1199 0.930 . S
Li1232 N1249 1.990 . S
Li1232 O1292 1.956 . S
Li1232 O1293 1.970 . S
Li1232 O1294 1.961 . S
Li1233 N1257 1.990 . S
Li1233 O1292 1.970 . S
Li1233 O1293 1.956 . S
Li1233 O1295 1.961 . S
Li1234 N1279 1.990 . S
Li1234 O1292 1.961 . S
Li1234 O1294 1.956 . S
Li1234 O1295 1.970 . S
Li1235 N1285 1.990 . S
Li1235 O1293 1.961 . S
Li1235 O1294 1.970 . S
Li1235 O1295 1.956 . S
C1236 C1238 1.348 . S
C1236 C1239 1.356 . S
C1236 O1292 1.325 . S
N1237 C1240 1.314 . S
N1237 C1241 1.279 . S
C1238 C1236 1.348 . S
C1238 C1240 1.353 . S
C1238 H1296 0.929 . S
C1239 C1236 1.356 . S
C1239 C1241 1.358 . S
C1239 H1297 0.930 . S
C1240 N1237 1.314 . S
C1240 C1238 1.353 . S
C1240 H1298 0.930 . S
C1241 N1237 1.279 . S
C1241 C1239 1.358 . S
C1241 H1299 0.930 . S
C1242 C1245 1.348 . S
C1242 C1246 1.356 . S
C1242 O1293 1.325 . S
C1243 N1244 1.279 . S
C1243 C1246 1.358 . S
C1243 H1300 0.930 . S
N1244 C1243 1.279 . S
N1244 C1247 1.314 . S
C1245 C1242 1.348 . S
C1245 C1247 1.353 . S
C1245 H1301 0.929 . S
C1246 C1242 1.356 . S
C1246 C1243 1.358 . S
C1246 H1302 0.930 . S
C1247 N1244 1.314 . S
C1247 C1245 1.353 . S
C1247 H1303 0.930 . S
C1248 N1249 1.314 . S
C1248 C1253 1.353 . S
C1248 H1254 0.930 . S
N1249 Li1232 1.990 . S
N1249 C1248 1.314 . S
N1249 C1251 1.279 . S
C1250 C1251 1.358 . S
C1250 C1252 1.356 . S
C1250 H1304 0.930 . S
C1251 N1249 1.279 . S
C1251 C1250 1.358 . S
C1251 H1255 0.930 . S
C1252 C1250 1.356 . S
C1252 C1253 1.348 . S
C1253 C1248 1.353 . S
C1253 C1252 1.348 . S
C1253 H1305 0.929 . S
H1254 C1248 0.930 . S
H1255 C1251 0.930 . S
C1256 N1257 1.314 . S
C1256 C1258 1.353 . S
C1256 H1262 0.930 . S
N1257 Li1233 1.990 . S
N1257 C1256 1.314 . S
N1257 C1260 1.279 . S
C1258 C1256 1.353 . S
C1258 C1261 1.348 . S
C1258 H1306 0.929 . S
C1259 C1260 1.358 . S
C1259 C1261 1.356 . S
C1259 H1307 0.930 . S
C1260 N1257 1.279 . S
C1260 C1259 1.358 . S
C1260 H1263 0.930 . S
C1261 C1258 1.348 . S
C1261 C1259 1.356 . S
H1262 C1256 0.930 . S
H1263 C1260 0.930 . S
C1264 C1266 1.348 . S
C1264 C1267 1.356 . S
C1264 O1294 1.325 . S
N1265 C1268 1.314 . S
N1265 C1269 1.279 . S
C1266 C1264 1.348 . S
C1266 C1268 1.353 . S
C1266 H1308 0.929 . S
C1267 C1264 1.356 . S
C1267 C1269 1.358 . S
C1267 H1309 0.930 . S
C1268 N1265 1.314 . S
C1268 C1266 1.353 . S
C1268 H1310 0.930 . S
C1269 N1265 1.279 . S
C1269 C1267 1.358 . S
C1269 H1311 0.930 . S
C1270 C1271 1.348 . S
C1270 C1272 1.356 . S
C1270 O1295 1.325 . S
C1271 C1270 1.348 . S
C1271 C1273 1.353 . S
C1271 H1312 0.929 . S
C1272 C1270 1.356 . S
C1272 C1274 1.358 . S
C1272 H1313 0.930 . S
C1273 C1271 1.353 . S
C1273 N1275 1.314 . S
C1273 H1314 0.930 . S
C1274 C1272 1.358 . S
C1274 N1275 1.279 . S
C1274 H1315 0.930 . S
N1275 C1273 1.314 . S
N1275 C1274 1.279 . S
C1276 C1278 1.353 . S
C1276 N1279 1.314 . S
C1276 H1282 0.930 . S
C1277 N1279 1.279 . S
C1277 C1280 1.358 . S
C1277 H1283 0.930 . S
C1278 C1276 1.353 . S
C1278 C1281 1.348 . S
C1278 H1316 0.929 . S
N1279 Li1234 1.990 . S
N1279 C1276 1.314 . S
N1279 C1277 1.279 . S
C1280 C1277 1.358 . S
C1280 C1281 1.356 . S
C1280 H1317 0.930 . S
C1281 C1278 1.348 . S
C1281 C1280 1.356 . S
H1282 C1276 0.930 . S
H1283 C1277 0.930 . S
C1284 N1285 1.314 . S
C1284 C1286 1.353 . S
C1284 H1290 0.930 . S
N1285 Li1235 1.990 . S
N1285 C1284 1.314 . S
N1285 C1288 1.279 . S
C1286 C1284 1.353 . S
C1286 C1289 1.348 . S
C1286 H1318 0.929 . S
C1287 C1288 1.358 . S
C1287 C1289 1.356 . S
C1287 H1319 0.930 . S
C1288 N1285 1.279 . S
C1288 C1287 1.358 . S
C1288 H1291 0.930 . S
C1289 C1286 1.348 . S
C1289 C1287 1.356 . S
H1290 C1284 0.930 . S
H1291 C1288 0.930 . S
O1292 Li1232 1.956 . S
O1292 Li1233 1.970 . S
O1292 Li1234 1.961 . S
O1292 C1236 1.325 . S
O1293 Li1232 1.970 . S
O1293 Li1233 1.956 . S
O1293 Li1235 1.961 . S
O1293 C1242 1.325 . S
O1294 Li1232 1.961 . S
O1294 Li1234 1.956 . S
O1294 Li1235 1.970 . S
O1294 C1264 1.325 . S
O1295 Li1233 1.961 . S
O1295 Li1234 1.970 . S
O1295 Li1235 1.956 . S
O1295 C1270 1.325 . S
H1296 C1238 0.929 . S
H1297 C1239 0.930 . S
H1298 C1240 0.930 . S
H1299 C1241 0.930 . S
H1300 C1243 0.930 . S
H1301 C1245 0.929 . S
H1302 C1246 0.930 . S
H1303 C1247 0.930 . S
H1304 C1250 0.930 . S
H1305 C1253 0.929 . S
H1306 C1258 0.929 . S
H1307 C1259 0.930 . S
H1308 C1266 0.929 . S
H1309 C1267 0.930 . S
H1310 C1268 0.930 . S
H1311 C1269 0.930 . S
H1312 C1271 0.929 . S
H1313 C1272 0.930 . S
H1314 C1273 0.930 . S
H1315 C1274 0.930 . S
H1316 C1278 0.929 . S
H1317 C1280 0.930 . S
H1318 C1286 0.929 . S
H1319 C1287 0.930 . S
Li1320 N1337 1.990 . S
Li1320 O1380 1.956 . S
Li1320 O1381 1.970 . S
Li1320 O1382 1.961 . S
Li1321 N1345 1.990 . S
Li1321 O1380 1.970 . S
Li1321 O1381 1.956 . S
Li1321 O1383 1.961 . S
Li1322 N1367 1.990 . S
Li1322 O1380 1.961 . S
Li1322 O1382 1.956 . S
Li1322 O1383 1.970 . S
Li1323 N1373 1.990 . S
Li1323 O1381 1.961 . S
Li1323 O1382 1.970 . S
Li1323 O1383 1.956 . S
C1324 C1326 1.348 . S
C1324 C1327 1.356 . S
C1324 O1380 1.325 . S
N1325 C1328 1.314 . S
N1325 C1329 1.279 . S
C1326 C1324 1.348 . S
C1326 C1328 1.353 . S
C1326 H1384 0.929 . S
C1327 C1324 1.356 . S
C1327 C1329 1.358 . S
C1327 H1385 0.930 . S
C1328 N1325 1.314 . S
C1328 C1326 1.353 . S
C1328 H1386 0.930 . S
C1329 N1325 1.279 . S
C1329 C1327 1.358 . S
C1329 H1387 0.930 . S
C1330 C1333 1.348 . S
C1330 C1334 1.356 . S
C1330 O1381 1.325 . S
C1331 N1332 1.279 . S
C1331 C1334 1.358 . S
C1331 H1388 0.930 . S
N1332 C1331 1.279 . S
N1332 C1335 1.314 . S
C1333 C1330 1.348 . S
C1333 C1335 1.353 . S
C1333 H1389 0.929 . S
C1334 C1330 1.356 . S
C1334 C1331 1.358 . S
C1334 H1390 0.930 . S
C1335 N1332 1.314 . S
C1335 C1333 1.353 . S
C1335 H1391 0.930 . S
C1336 N1337 1.314 . S
C1336 C1341 1.353 . S
C1336 H1342 0.930 . S
N1337 Li1320 1.990 . S
N1337 C1336 1.314 . S
N1337 C1339 1.279 . S
C1338 C1339 1.358 . S
C1338 C1340 1.356 . S
C1338 H1392 0.930 . S
C1339 N1337 1.279 . S
C1339 C1338 1.358 . S
C1339 H1343 0.930 . S
C1340 C1338 1.356 . S
C1340 C1341 1.348 . S
C1341 C1336 1.353 . S
C1341 C1340 1.348 . S
C1341 H1393 0.929 . S
H1342 C1336 0.930 . S
H1343 C1339 0.930 . S
C1344 N1345 1.314 . S
C1344 C1346 1.353 . S
C1344 H1350 0.930 . S
N1345 Li1321 1.990 . S
N1345 C1344 1.314 . S
N1345 C1348 1.279 . S
C1346 C1344 1.353 . S
C1346 C1349 1.348 . S
C1346 H1394 0.929 . S
C1347 C1348 1.358 . S
C1347 C1349 1.356 . S
C1347 H1395 0.930 . S
C1348 N1345 1.279 . S
C1348 C1347 1.358 . S
C1348 H1351 0.930 . S
C1349 C1346 1.348 . S
C1349 C1347 1.356 . S
H1350 C1344 0.930 . S
H1351 C1348 0.930 . S
C1352 C1354 1.348 . S
C1352 C1355 1.356 . S
C1352 O1382 1.325 . S
N1353 C1356 1.314 . S
N1353 C1357 1.279 . S
C1354 C1352 1.348 . S
C1354 C1356 1.353 . S
C1354 H1396 0.929 . S
C1355 C1352 1.356 . S
C1355 C1357 1.358 . S
C1355 H1397 0.930 . S
C1356 N1353 1.314 . S
C1356 C1354 1.353 . S
C1356 H1398 0.930 . S
C1357 N1353 1.279 . S
C1357 C1355 1.358 . S
C1357 H1399 0.930 . S
C1358 C1359 1.348 . S
C1358 C1360 1.356 . S
C1358 O1383 1.325 . S
C1359 C1358 1.348 . S
C1359 C1361 1.353 . S
C1359 H1400 0.929 . S
C1360 C1358 1.356 . S
C1360 C1362 1.358 . S
C1360 H1401 0.930 . S
C1361 C1359 1.353 . S
C1361 N1363 1.314 . S
C1361 H1402 0.930 . S
C1362 C1360 1.358 . S
C1362 N1363 1.279 . S
C1362 H1403 0.930 . S
N1363 C1361 1.314 . S
N1363 C1362 1.279 . S
C1364 C1366 1.353 . S
C1364 N1367 1.314 . S
C1364 H1370 0.930 . S
C1365 N1367 1.279 . S
C1365 C1368 1.358 . S
C1365 H1371 0.930 . S
C1366 C1364 1.353 . S
C1366 C1369 1.348 . S
C1366 H1404 0.929 . S
N1367 Li1322 1.990 . S
N1367 C1364 1.314 . S
N1367 C1365 1.279 . S
C1368 C1365 1.358 . S
C1368 C1369 1.356 . S
C1368 H1405 0.930 . S
C1369 C1366 1.348 . S
C1369 C1368 1.356 . S
H1370 C1364 0.930 . S
H1371 C1365 0.930 . S
C1372 N1373 1.314 . S
C1372 C1374 1.353 . S
C1372 H1378 0.930 . S
N1373 Li1323 1.990 . S
N1373 C1372 1.314 . S
N1373 C1376 1.279 . S
C1374 C1372 1.353 . S
C1374 C1377 1.348 . S
C1374 H1406 0.929 . S
C1375 C1376 1.358 . S
C1375 C1377 1.356 . S
C1375 H1407 0.930 . S
C1376 N1373 1.279 . S
C1376 C1375 1.358 . S
C1376 H1379 0.930 . S
C1377 C1374 1.348 . S
C1377 C1375 1.356 . S
H1378 C1372 0.930 . S
H1379 C1376 0.930 . S
O1380 Li1320 1.956 . S
O1380 Li1321 1.970 . S
O1380 Li1322 1.961 . S
O1380 C1324 1.325 . S
O1381 Li1320 1.970 . S
O1381 Li1321 1.956 . S
O1381 Li1323 1.961 . S
O1381 C1330 1.325 . S
O1382 Li1320 1.961 . S
O1382 Li1322 1.956 . S
O1382 Li1323 1.970 . S
O1382 C1352 1.325 . S
O1383 Li1321 1.961 . S
O1383 Li1322 1.970 . S
O1383 Li1323 1.956 . S
O1383 C1358 1.325 . S
H1384 C1326 0.929 . S
H1385 C1327 0.930 . S
H1386 C1328 0.930 . S
H1387 C1329 0.930 . S
H1388 C1331 0.930 . S
H1389 C1333 0.929 . S
H1390 C1334 0.930 . S
H1391 C1335 0.930 . S
H1392 C1338 0.930 . S
H1393 C1341 0.929 . S
H1394 C1346 0.929 . S
H1395 C1347 0.930 . S
H1396 C1354 0.929 . S
H1397 C1355 0.930 . S
H1398 C1356 0.930 . S
H1399 C1357 0.930 . S
H1400 C1359 0.929 . S
H1401 C1360 0.930 . S
H1402 C1361 0.930 . S
H1403 C1362 0.930 . S
H1404 C1366 0.929 . S
H1405 C1368 0.930 . S
H1406 C1374 0.929 . S
H1407 C1375 0.930 . S
C1408 C1409 1.387 . S
C1408 H1412 0.950 . S
C1408 C1417 1.390 . S
C1409 C1408 1.387 . S
C1409 C1411 1.387 . S
H1410 C1417 0.950 . S
C1411 C1409 1.387 . S
C1411 C1413 1.390 . S
C1411 H1415 0.950 . S
H1412 C1408 0.950 . S
C1413 C1411 1.390 . S
C1413 C1414 1.387 . S
C1413 H1416 0.950 . S
C1414 C1413 1.387 . S
C1414 C1417 1.387 . S
H1415 C1411 0.950 . S
H1416 C1413 0.950 . S
C1417 C1408 1.390 . S
C1417 H1410 0.950 . S
C1417 C1414 1.387 . S
C1418 C1419 1.387 . S
C1418 H1422 0.950 . S
C1418 C1427 1.390 . S
C1419 C1418 1.387 . S
C1419 C1421 1.387 . S
H1420 C1427 0.950 . S
C1421 C1419 1.387 . S
C1421 C1423 1.390 . S
C1421 H1425 0.950 . S
H1422 C1418 0.950 . S
C1423 C1421 1.390 . S
C1423 C1424 1.387 . S
C1423 H1426 0.950 . S
C1424 C1423 1.387 . S
C1424 C1427 1.387 . S
H1425 C1421 0.950 . S
H1426 C1423 0.950 . S
C1427 C1418 1.390 . S
C1427 H1420 0.950 . S
C1427 C1424 1.387 . S
C1428 C1429 1.387 . S
C1428 H1432 0.950 . S
C1428 C1437 1.390 . S
C1429 C1428 1.387 . S
C1429 C1431 1.387 . S
H1430 C1437 0.950 . S
C1431 C1429 1.387 . S
C1431 C1433 1.390 . S
C1431 H1435 0.950 . S
H1432 C1428 0.950 . S
C1433 C1431 1.390 . S
C1433 C1434 1.387 . S
C1433 H1436 0.950 . S
C1434 C1433 1.387 . S
C1434 C1437 1.387 . S
H1435 C1431 0.950 . S
H1436 C1433 0.950 . S
C1437 C1428 1.390 . S
C1437 H1430 0.950 . S
C1437 C1434 1.387 . S
C1438 C1439 1.387 . S
C1438 H1442 0.950 . S
C1438 C1447 1.390 . S
C1439 C1438 1.387 . S
C1439 C1441 1.387 . S
H1440 C1447 0.950 . S
C1441 C1439 1.387 . S
C1441 C1443 1.390 . S
C1441 H1445 0.950 . S
H1442 C1438 0.950 . S
C1443 C1441 1.390 . S
C1443 C1444 1.387 . S
C1443 H1446 0.950 . S
C1444 C1443 1.387 . S
C1444 C1447 1.387 . S
H1445 C1441 0.950 . S
H1446 C1443 0.950 . S
C1447 C1438 1.390 . S
C1447 H1440 0.950 . S
C1447 C1444 1.387 . S
C1448 C1449 1.387 . S
C1448 H1452 0.950 . S
C1448 C1457 1.390 . S
C1449 C1448 1.387 . S
C1449 C1451 1.387 . S
H1450 C1457 0.950 . S
C1451 C1449 1.387 . S
C1451 C1453 1.390 . S
C1451 H1455 0.950 . S
H1452 C1448 0.950 . S
C1453 C1451 1.390 . S
C1453 C1454 1.387 . S
C1453 H1456 0.950 . S
C1454 C1453 1.387 . S
C1454 C1457 1.387 . S
H1455 C1451 0.950 . S
H1456 C1453 0.950 . S
C1457 C1448 1.390 . S
C1457 H1450 0.950 . S
C1457 C1454 1.387 . S
C1458 C1459 1.387 . S
C1458 H1462 0.950 . S
C1458 C1467 1.390 . S
C1459 C1458 1.387 . S
C1459 C1461 1.387 . S
H1460 C1467 0.950 . S
C1461 C1459 1.387 . S
C1461 C1463 1.390 . S
C1461 H1465 0.950 . S
H1462 C1458 0.950 . S
C1463 C1461 1.390 . S
C1463 C1464 1.387 . S
C1463 H1466 0.950 . S
C1464 C1463 1.387 . S
C1464 C1467 1.387 . S
H1465 C1461 0.950 . S
H1466 C1463 0.950 . S
C1467 C1458 1.390 . S
C1467 H1460 0.950 . S
C1467 C1464 1.387 . S
C1468 C1469 1.387 . S
C1468 H1472 0.950 . S
C1468 C1477 1.390 . S
C1469 C1468 1.387 . S
C1469 C1471 1.387 . S
H1470 C1477 0.950 . S
C1471 C1469 1.387 . S
C1471 C1473 1.390 . S
C1471 H1475 0.950 . S
H1472 C1468 0.950 . S
C1473 C1471 1.390 . S
C1473 C1474 1.387 . S
C1473 H1476 0.950 . S
C1474 C1473 1.387 . S
C1474 C1477 1.387 . S
H1475 C1471 0.950 . S
H1476 C1473 0.950 . S
C1477 C1468 1.390 . S
C1477 H1470 0.950 . S
C1477 C1474 1.387 . S
C1478 C1479 1.387 . S
C1478 H1482 0.950 . S
C1478 C1487 1.390 . S
C1479 C1478 1.387 . S
C1479 C1481 1.387 . S
H1480 C1487 0.950 . S
C1481 C1479 1.387 . S
C1481 C1483 1.390 . S
C1481 H1485 0.950 . S
H1482 C1478 0.950 . S
C1483 C1481 1.390 . S
C1483 C1484 1.387 . S
C1483 H1486 0.950 . S
C1484 C1483 1.387 . S
C1484 C1487 1.387 . S
H1485 C1481 0.950 . S
H1486 C1483 0.950 . S
C1487 C1478 1.390 . S
C1487 H1480 0.950 . S
C1487 C1484 1.387 . S
C1488 C1489 1.387 . S
C1488 H1492 0.950 . S
C1488 C1497 1.390 1_556 S
C1489 C1488 1.387 . S
C1489 C1491 1.387 . S
H1490 C1497 0.950 . S
C1491 C1489 1.387 . S
C1491 C1493 1.390 1_556 S
C1491 H1495 0.950 . S
H1492 C1488 0.950 . S
C1493 C1491 1.390 1_554 S
C1493 C1494 1.387 . S
C1493 H1496 0.950 . S
C1494 C1493 1.387 . S
C1494 C1497 1.387 . S
H1495 C1491 0.950 . S
H1496 C1493 0.950 . S
C1497 C1488 1.390 1_554 S
C1497 H1490 0.950 . S
C1497 C1494 1.387 . S
C1498 C1499 1.387 . S
C1498 H1502 0.950 . S
C1498 C1507 1.390 1_556 S
C1499 C1498 1.387 . S
C1499 C1501 1.387 . S
H1500 C1507 0.950 . S
C1501 C1499 1.387 . S
C1501 C1503 1.390 1_556 S
C1501 H1505 0.950 . S
H1502 C1498 0.950 . S
C1503 C1501 1.390 1_554 S
C1503 C1504 1.387 . S
C1503 H1506 0.950 . S
C1504 C1503 1.387 . S
C1504 C1507 1.387 . S
H1505 C1501 0.950 . S
H1506 C1503 0.950 . S
C1507 C1498 1.390 1_554 S
C1507 H1500 0.950 . S
C1507 C1504 1.387 . S
C1508 C1509 1.387 . S
C1508 H1512 0.950 . S
C1508 C1517 1.390 1_556 S
C1509 C1508 1.387 . S
C1509 C1511 1.387 . S
H1510 C1517 0.950 . S
C1511 C1509 1.387 . S
C1511 C1513 1.390 1_556 S
C1511 H1515 0.950 . S
H1512 C1508 0.950 . S
C1513 C1511 1.390 1_554 S
C1513 C1514 1.387 . S
C1513 H1516 0.950 . S
C1514 C1513 1.387 . S
C1514 C1517 1.387 . S
H1515 C1511 0.950 . S
H1516 C1513 0.950 . S
C1517 C1508 1.390 1_554 S
C1517 H1510 0.950 . S
C1517 C1514 1.387 . S
C1518 C1519 1.387 . S
C1518 H1522 0.950 . S
C1518 C1527 1.390 1_554 S
C1519 C1518 1.387 . S
C1519 C1521 1.387 . S
H1520 C1527 0.950 . S
C1521 C1519 1.387 . S
C1521 C1523 1.390 1_554 S
C1521 H1525 0.950 . S
H1522 C1518 0.950 . S
C1523 C1521 1.390 1_556 S
C1523 C1524 1.387 . S
C1523 H1526 0.950 . S
C1524 C1523 1.387 . S
C1524 C1527 1.387 . S
H1525 C1521 0.950 . S
H1526 C1523 0.950 . S
C1527 C1518 1.390 1_556 S
C1527 H1520 0.950 . S
C1527 C1524 1.387 . S
C1528 C1529 1.387 . S
C1528 H1532 0.950 . S
C1528 C1537 1.390 . S
C1529 C1528 1.387 . S
C1529 C1531 1.387 . S
H1530 C1537 0.950 . S
C1531 C1529 1.387 . S
C1531 C1533 1.390 . S
C1531 H1535 0.950 . S
H1532 C1528 0.950 . S
C1533 C1531 1.390 . S
C1533 C1534 1.387 . S
C1533 H1536 0.950 . S
C1534 C1533 1.387 . S
C1534 C1537 1.387 . S
H1535 C1531 0.950 . S
H1536 C1533 0.950 . S
C1537 C1528 1.390 . S
C1537 H1530 0.950 . S
C1537 C1534 1.387 . S
C1538 C1539 1.387 . S
C1538 H1542 0.950 . S
C1538 C1547 1.390 . S
C1539 C1538 1.387 . S
C1539 C1541 1.387 . S
H1540 C1547 0.950 . S
C1541 C1539 1.387 . S
C1541 C1543 1.390 . S
C1541 H1545 0.950 . S
H1542 C1538 0.950 . S
C1543 C1541 1.390 . S
C1543 C1544 1.387 . S
C1543 H1546 0.950 . S
C1544 C1543 1.387 . S
C1544 C1547 1.387 . S
H1545 C1541 0.950 . S
H1546 C1543 0.950 . S
C1547 C1538 1.390 . S
C1547 H1540 0.950 . S
C1547 C1544 1.387 . S
C1548 C1549 1.387 . S
C1548 H1552 0.950 . S
C1548 C1557 1.390 . S
C1549 C1548 1.387 . S
C1549 C1551 1.387 . S
H1550 C1557 0.950 . S
C1551 C1549 1.387 . S
C1551 C1553 1.390 . S
C1551 H1555 0.950 . S
H1552 C1548 0.950 . S
C1553 C1551 1.390 . S
C1553 C1554 1.387 . S
C1553 H1556 0.950 . S
C1554 C1553 1.387 . S
C1554 C1557 1.387 . S
H1555 C1551 0.950 . S
H1556 C1553 0.950 . S
C1557 C1548 1.390 . S
C1557 H1550 0.950 . S
C1557 C1554 1.387 . S
C1558 C1559 1.387 . S
C1558 H1562 0.950 . S
C1558 C1567 1.390 . S
C1559 C1558 1.387 . S
C1559 C1561 1.387 . S
H1560 C1567 0.950 . S
C1561 C1559 1.387 . S
C1561 C1563 1.390 . S
C1561 H1565 0.950 . S
H1562 C1558 0.950 . S
C1563 C1561 1.390 . S
C1563 C1564 1.387 . S
C1563 H1566 0.950 . S
C1564 C1563 1.387 . S
C1564 C1567 1.387 . S
H1565 C1561 0.950 . S
H1566 C1563 0.950 . S
C1567 C1558 1.390 . S
C1567 H1560 0.950 . S
C1567 C1564 1.387 . S
C1568 C1569 1.387 . S
C1568 H1572 0.950 . S
C1568 C1577 1.390 . S
C1569 C1568 1.387 . S
C1569 C1571 1.387 . S
H1570 C1577 0.950 . S
C1571 C1569 1.387 . S
C1571 C1573 1.390 . S
C1571 H1575 0.950 . S
H1572 C1568 0.950 . S
C1573 C1571 1.390 . S
C1573 C1574 1.387 . S
C1573 H1576 0.950 . S
C1574 C1573 1.387 . S
C1574 C1577 1.387 . S
H1575 C1571 0.950 . S
H1576 C1573 0.950 . S
C1577 C1568 1.390 . S
C1577 H1570 0.950 . S
C1577 C1574 1.387 . S
C1578 C1579 1.387 . S
C1578 H1582 0.950 . S
C1578 C1587 1.390 . S
C1579 C1578 1.387 . S
C1579 C1581 1.387 . S
H1580 C1587 0.950 . S
C1581 C1579 1.387 . S
C1581 C1583 1.390 . S
C1581 H1585 0.950 . S
H1582 C1578 0.950 . S
C1583 C1581 1.390 . S
C1583 C1584 1.387 . S
C1583 H1586 0.950 . S
C1584 C1583 1.387 . S
C1584 C1587 1.387 . S
H1585 C1581 0.950 . S
H1586 C1583 0.950 . S
C1587 C1578 1.390 . S
C1587 H1580 0.950 . S
C1587 C1584 1.387 . S
C1588 C1589 1.387 . S
C1588 H1592 0.950 . S
C1588 C1597 1.390 . S
C1589 C1588 1.387 . S
C1589 C1591 1.387 . S
H1590 C1597 0.950 . S
C1591 C1589 1.387 . S
C1591 C1593 1.390 . S
C1591 H1595 0.950 . S
H1592 C1588 0.950 . S
C1593 C1591 1.390 . S
C1593 C1594 1.387 . S
C1593 H1596 0.950 . S
C1594 C1593 1.387 . S
C1594 C1597 1.387 . S
H1595 C1591 0.950 . S
H1596 C1593 0.950 . S
C1597 C1588 1.390 . S
C1597 H1590 0.950 . S
C1597 C1594 1.387 . S
C1598 C1599 1.387 . S
C1598 H1602 0.950 . S
C1598 C1607 1.390 . S
C1599 C1598 1.387 . S
C1599 C1601 1.387 . S
H1600 C1607 0.950 . S
C1601 C1599 1.387 . S
C1601 C1603 1.390 . S
C1601 H1605 0.950 . S
H1602 C1598 0.950 . S
C1603 C1601 1.390 . S
C1603 C1604 1.387 . S
C1603 H1606 0.950 . S
C1604 C1603 1.387 . S
C1604 C1607 1.387 . S
H1605 C1601 0.950 . S
H1606 C1603 0.950 . S
C1607 C1598 1.390 . S
C1607 H1600 0.950 . S
C1607 C1604 1.387 . S
C1608 C1609 1.387 . S
C1608 H1612 0.950 . S
C1608 C1617 1.390 . S
C1609 C1608 1.387 . S
C1609 C1611 1.387 . S
H1610 C1617 0.950 . S
C1611 C1609 1.387 . S
C1611 C1613 1.390 . S
C1611 H1615 0.950 . S
H1612 C1608 0.950 . S
C1613 C1611 1.390 . S
C1613 C1614 1.387 . S
C1613 H1616 0.950 . S
C1614 C1613 1.387 . S
C1614 C1617 1.387 . S
H1615 C1611 0.950 . S
H1616 C1613 0.950 . S
C1617 C1608 1.390 . S
C1617 H1610 0.950 . S
C1617 C1614 1.387 . S
C1618 C1619 1.387 . S
C1618 H1622 0.950 . S
C1618 C1627 1.390 . S
C1619 C1618 1.387 . S
C1619 C1621 1.387 . S
H1620 C1627 0.950 . S
C1621 C1619 1.387 . S
C1621 C1623 1.390 . S
C1621 H1625 0.950 . S
H1622 C1618 0.950 . S
C1623 C1621 1.390 . S
C1623 C1624 1.387 . S
C1623 H1626 0.950 . S
C1624 C1623 1.387 . S
C1624 C1627 1.387 . S
H1625 C1621 0.950 . S
H1626 C1623 0.950 . S
C1627 C1618 1.390 . S
C1627 H1620 0.950 . S
C1627 C1624 1.387 . S
C1628 C1629 1.387 . S
C1628 H1632 0.950 . S
C1628 C1637 1.390 . S
C1629 C1628 1.387 . S
C1629 C1631 1.387 . S
H1630 C1637 0.950 . S
C1631 C1629 1.387 . S
C1631 C1633 1.390 . S
C1631 H1635 0.950 . S
H1632 C1628 0.950 . S
C1633 C1631 1.390 . S
C1633 C1634 1.387 . S
C1633 H1636 0.950 . S
C1634 C1633 1.387 . S
C1634 C1637 1.387 . S
H1635 C1631 0.950 . S
H1636 C1633 0.950 . S
C1637 C1628 1.390 . S
C1637 H1630 0.950 . S
C1637 C1634 1.387 . S
C1638 C1639 1.387 . S
C1638 H1642 0.950 . S
C1638 C1647 1.390 . S
C1639 C1638 1.387 . S
C1639 C1641 1.387 . S
H1640 C1647 0.950 . S
C1641 C1639 1.387 . S
C1641 C1643 1.390 . S
C1641 H1645 0.950 . S
H1642 C1638 0.950 . S
C1643 C1641 1.390 . S
C1643 C1644 1.387 . S
C1643 H1646 0.950 . S
C1644 C1643 1.387 . S
C1644 C1647 1.387 . S
H1645 C1641 0.950 . S
H1646 C1643 0.950 . S
C1647 C1638 1.390 . S
C1647 H1640 0.950 . S
C1647 C1644 1.387 . S
C1648 C1649 1.387 . S
C1648 H1652 0.950 . S
C1648 C1657 1.390 1_545 S
C1649 C1648 1.387 . S
C1649 C1651 1.387 . S
H1650 C1657 0.950 . S
C1651 C1649 1.387 . S
C1651 C1653 1.390 1_545 S
C1651 H1655 0.950 . S
H1652 C1648 0.950 . S
C1653 C1651 1.390 1_565 S
C1653 C1654 1.387 . S
C1653 H1656 0.950 . S
C1654 C1653 1.387 . S
C1654 C1657 1.387 . S
H1655 C1651 0.950 . S
H1656 C1653 0.950 . S
C1657 C1648 1.390 1_565 S
C1657 H1650 0.950 . S
C1657 C1654 1.387 . S
C1658 C1659 1.387 . S
C1658 H1662 0.950 . S
C1658 C1667 1.390 1_655 S
C1659 C1658 1.387 . S
C1659 C1661 1.387 . S
H1660 C1667 0.950 . S
C1661 C1659 1.387 . S
C1661 C1663 1.390 1_655 S
C1661 H1665 0.950 . S
H1662 C1658 0.950 . S
C1663 C1661 1.390 1_455 S
C1663 C1664 1.387 . S
C1663 H1666 0.950 . S
C1664 C1663 1.387 . S
C1664 C1667 1.387 . S
H1665 C1661 0.950 . S
H1666 C1663 0.950 . S
C1667 C1658 1.390 1_455 S
C1667 H1660 0.950 . S
C1667 C1664 1.387 . S
C1668 C1669 1.387 . S
C1668 H1672 0.950 . S
C1668 C1677 1.390 1_545 S
C1669 C1668 1.387 . S
C1669 C1671 1.387 . S
H1670 C1677 0.950 . S
C1671 C1669 1.387 . S
C1671 C1673 1.390 1_545 S
C1671 H1675 0.950 . S
H1672 C1668 0.950 . S
C1673 C1671 1.390 1_565 S
C1673 C1674 1.387 . S
C1673 H1676 0.950 . S
C1674 C1673 1.387 . S
C1674 C1677 1.387 . S
H1675 C1671 0.950 . S
H1676 C1673 0.950 . S
C1677 C1668 1.390 1_565 S
C1677 H1670 0.950 . S
C1677 C1674 1.387 . S
C1678 C1679 1.387 . S
C1678 H1682 0.950 . S
C1678 C1687 1.390 1_455 S
C1679 C1678 1.387 . S
C1679 C1681 1.387 . S
H1680 C1687 0.950 . S
C1681 C1679 1.387 . S
C1681 C1683 1.390 1_455 S
C1681 H1685 0.950 . S
H1682 C1678 0.950 . S
C1683 C1681 1.390 1_655 S
C1683 C1684 1.387 . S
C1683 H1686 0.950 . S
C1684 C1683 1.387 . S
C1684 C1687 1.387 . S
H1685 C1681 0.950 . S
H1686 C1683 0.950 . S
C1687 C1678 1.390 1_655 S
C1687 H1680 0.950 . S
C1687 C1684 1.387 . S
C1688 C1689 1.387 . S
C1688 H1692 0.950 . S
C1688 C1697 1.390 1_545 S
C1689 C1688 1.387 . S
C1689 C1691 1.387 . S
H1690 C1697 0.950 . S
C1691 C1689 1.387 . S
C1691 C1693 1.390 1_545 S
C1691 H1695 0.950 . S
H1692 C1688 0.950 . S
C1693 C1691 1.390 1_565 S
C1693 C1694 1.387 . S
C1693 H1696 0.950 . S
C1694 C1693 1.387 . S
C1694 C1697 1.387 . S
H1695 C1691 0.950 . S
H1696 C1693 0.950 . S
C1697 C1688 1.390 1_565 S
C1697 H1690 0.950 . S
C1697 C1694 1.387 . S
C1698 C1699 1.387 . S
C1698 H1702 0.950 . S
C1698 C1707 1.390 1_655 S
C1699 C1698 1.387 . S
C1699 C1701 1.387 . S
H1700 C1707 0.950 . S
C1701 C1699 1.387 . S
C1701 C1703 1.390 1_655 S
C1701 H1705 0.950 . S
H1702 C1698 0.950 . S
C1703 C1701 1.390 1_455 S
C1703 C1704 1.387 . S
C1703 H1706 0.950 . S
C1704 C1703 1.387 . S
C1704 C1707 1.387 . S
H1705 C1701 0.950 . S
H1706 C1703 0.950 . S
C1707 C1698 1.390 1_455 S
C1707 H1700 0.950 . S
C1707 C1704 1.387 . S
C1708 C1709 1.387 . S
C1708 H1712 0.950 . S
C1708 C1717 1.390 1_565 S
C1709 C1708 1.387 . S
C1709 C1711 1.387 . S
H1710 C1717 0.950 . S
C1711 C1709 1.387 . S
C1711 C1713 1.390 1_565 S
C1711 H1715 0.950 . S
H1712 C1708 0.950 . S
C1713 C1711 1.390 1_545 S
C1713 C1714 1.387 . S
C1713 H1716 0.950 . S
C1714 C1713 1.387 . S
C1714 C1717 1.387 . S
H1715 C1711 0.950 . S
H1716 C1713 0.950 . S
C1717 C1708 1.390 1_545 S
C1717 H1710 0.950 . S
C1717 C1714 1.387 . S
C1718 C1719 1.387 . S
C1718 H1722 0.950 . S
C1718 C1727 1.390 1_455 S
C1719 C1718 1.387 . S
C1719 C1721 1.387 . S
H1720 C1727 0.950 . S
C1721 C1719 1.387 . S
C1721 C1723 1.390 1_455 S
C1721 H1725 0.950 . S
H1722 C1718 0.950 . S
C1723 C1721 1.390 1_655 S
C1723 C1724 1.387 . S
C1723 H1726 0.950 . S
C1724 C1723 1.387 . S
C1724 C1727 1.387 . S
H1725 C1721 0.950 . S
H1726 C1723 0.950 . S
C1727 C1718 1.390 1_655 S
C1727 H1720 0.950 . S
C1727 C1724 1.387 . S
C1409 C489 1.059 . S
C1414 C20 1.059 . S
C1419 C577 1.059 . S
C1424 C117 1.059 . S
C1429 C196 1.059 . S
C1434 C665 1.060 . S
C1439 C293 1.059 . S
C1444 C401 1.059 . S
C1449 C1173 1.060 . S
C1454 C753 1.060 . S
C1459 C1261 1.059 . S
C1464 C841 1.059 . S
C1469 C929 1.060 . S
C1474 C1349 1.059 . S
C1479 C1017 1.059 . S
C1484 C1085 1.059 . S
C1489 C909 1.506 . S
C1494 C57 1.506 . S
C1499 C997 1.506 . S
C1504 C137 1.506 . S
C1509 C733 1.506 . S
C1514 C233 1.506 . S
C1519 C313 1.506 . S
C1524 C821 1.506 . S
C1529 C1281 1.506 . S
C1534 C381 1.506 . S
C1539 C1369 1.506 . S
C1544 C469 1.506 . S
C1549 C557 1.506 . S
C1554 C1105 1.506 . S
C1559 C1193 1.506 . S
C1564 C645 1.506 . S
C1569 C409 1.467 . S
C1574 C29 1.467 . S
C1579 C108 1.467 . S
C1584 C497 1.467 . S
C1589 C205 1.467 . S
C1594 C585 1.467 . S
C1599 C673 1.467 . S
C1604 C284 1.467 . S
C1609 C724 1.495 . S
C1614 C1113 1.495 . S
C1619 C1201 1.495 . S
C1624 C812 1.495 . S
C1629 C900 1.496 . S
C1634 C1289 1.496 . S
C1639 C1377 1.495 . S
C1644 C988 1.495 . S
C1649 C1025 1.467 . S
C1654 C1164 1.467 . S
C1659 C761 1.467 . S
C1664 C1252 1.467 . S
C1669 C1340 1.467 . S
C1674 C849 1.467 . S
C1679 C937 1.467 . S
C1684 C1076 1.467 . S
C1689 C460 1.495 . S
C1694 C321 1.495 . S
C1699 C548 1.496 . S
C1704 C49 1.496 . S
C1709 C636 1.496 . S
C1714 C145 1.496 . S
C1719 C372 1.495 . S
C1724 C225 1.495 . S
