# Generated by pormake.
# Topology nbo-a, (3)-cn, num edge types: 1
# Building blocks:
#     Node 0, Type 0, BuildingBlock: OLANEW_clean_sbu_2, # of connection points: 3
#     Node 1, Type 0, BuildingBlock: OLANEW_clean_sbu_2, # of connection points: 3
#     Node 2, Type 0, BuildingBlock: OLANEW_clean_sbu_2, # of connection points: 3
#     Node 3, Type 0, BuildingBlock: OLANEW_clean_sbu_2, # of connection points: 3
#     Node 4, Type 0, BuildingBlock: OLANEW_clean_sbu_2, # of connection points: 3
#     Node 5, Type 0, BuildingBlock: OLANEW_clean_sbu_2, # of connection points: 3
#     Node 6, Type 0, BuildingBlock: OLANEW_clean_sbu_2, # of connection points: 3
#     Node 7, Type 0, BuildingBlock: OLANEW_clean_sbu_2, # of connection points: 3
#     Node 8, Type 0, BuildingBlock: OLANEW_clean_sbu_2, # of connection points: 3
#     Node 9, Type 0, BuildingBlock: OLANEW_clean_sbu_2, # of connection points: 3
#     Node 10, Type 0, BuildingBlock: OLANEW_clean_sbu_2, # of connection points: 3
#     Node 11, Type 0, BuildingBlock: OLANEW_clean_sbu_2, # of connection points: 3
#     Node 12, Type 0, BuildingBlock: OLANEW_clean_sbu_2, # of connection points: 3
#     Node 13, Type 0, BuildingBlock: OLANEW_clean_sbu_2, # of connection points: 3
#     Node 14, Type 0, BuildingBlock: OLANEW_clean_sbu_2, # of connection points: 3
#     Node 15, Type 0, BuildingBlock: OLANEW_clean_sbu_2, # of connection points: 3
#     Node 16, Type 0, BuildingBlock: OLANEW_clean_sbu_2, # of connection points: 3
#     Node 17, Type 0, BuildingBlock: OLANEW_clean_sbu_2, # of connection points: 3
#     Node 18, Type 0, BuildingBlock: OLANEW_clean_sbu_2, # of connection points: 3
#     Node 19, Type 0, BuildingBlock: OLANEW_clean_sbu_2, # of connection points: 3
#     Node 20, Type 0, BuildingBlock: OLANEW_clean_sbu_2, # of connection points: 3
#     Node 21, Type 0, BuildingBlock: OLANEW_clean_sbu_2, # of connection points: 3
#     Node 22, Type 0, BuildingBlock: OLANEW_clean_sbu_2, # of connection points: 3
#     Node 23, Type 0, BuildingBlock: OLANEW_clean_sbu_2, # of connection points: 3
#     Edge 24, Type (0, 0), BuildingBlock: CIFDUS_clean_linker_0, # of connection points: 2
#     Edge 25, Type (0, 0), BuildingBlock: CIFDUS_clean_linker_0, # of connection points: 2
#     Edge 26, Type (0, 0), BuildingBlock: CIFDUS_clean_linker_0, # of connection points: 2
#     Edge 27, Type (0, 0), BuildingBlock: CIFDUS_clean_linker_0, # of connection points: 2
#     Edge 28, Type (0, 0), BuildingBlock: CIFDUS_clean_linker_0, # of connection points: 2
#     Edge 29, Type (0, 0), BuildingBlock: CIFDUS_clean_linker_0, # of connection points: 2
#     Edge 30, Type (0, 0), BuildingBlock: CIFDUS_clean_linker_0, # of connection points: 2
#     Edge 31, Type (0, 0), BuildingBlock: CIFDUS_clean_linker_0, # of connection points: 2
#     Edge 32, Type (0, 0), BuildingBlock: CIFDUS_clean_linker_0, # of connection points: 2
#     Edge 33, Type (0, 0), BuildingBlock: CIFDUS_clean_linker_0, # of connection points: 2
#     Edge 34, Type (0, 0), BuildingBlock: CIFDUS_clean_linker_0, # of connection points: 2
#     Edge 35, Type (0, 0), BuildingBlock: CIFDUS_clean_linker_0, # of connection points: 2
#     Edge 36, Type (0, 0), BuildingBlock: CIFDUS_clean_linker_0, # of connection points: 2
#     Edge 37, Type (0, 0), BuildingBlock: CIFDUS_clean_linker_0, # of connection points: 2
#     Edge 38, Type (0, 0), BuildingBlock: CIFDUS_clean_linker_0, # of connection points: 2
#     Edge 39, Type (0, 0), BuildingBlock: CIFDUS_clean_linker_0, # of connection points: 2
#     Edge 40, Type (0, 0), BuildingBlock: CIFDUS_clean_linker_0, # of connection points: 2
#     Edge 41, Type (0, 0), BuildingBlock: CIFDUS_clean_linker_0, # of connection points: 2
#     Edge 42, Type (0, 0), BuildingBlock: CIFDUS_clean_linker_0, # of connection points: 2
#     Edge 43, Type (0, 0), BuildingBlock: CIFDUS_clean_linker_0, # of connection points: 2
#     Edge 44, Type (0, 0), BuildingBlock: CIFDUS_clean_linker_0, # of connection points: 2
#     Edge 45, Type (0, 0), BuildingBlock: CIFDUS_clean_linker_0, # of connection points: 2
#     Edge 46, Type (0, 0), BuildingBlock: CIFDUS_clean_linker_0, # of connection points: 2
#     Edge 47, Type (0, 0), BuildingBlock: CIFDUS_clean_linker_0, # of connection points: 2
#     Edge 48, Type (0, 0), BuildingBlock: CIFDUS_clean_linker_0, # of connection points: 2
#     Edge 49, Type (0, 0), BuildingBlock: CIFDUS_clean_linker_0, # of connection points: 2
#     Edge 50, Type (0, 0), BuildingBlock: CIFDUS_clean_linker_0, # of connection points: 2
#     Edge 51, Type (0, 0), BuildingBlock: CIFDUS_clean_linker_0, # of connection points: 2
#     Edge 52, Type (0, 0), BuildingBlock: CIFDUS_clean_linker_0, # of connection points: 2
#     Edge 53, Type (0, 0), BuildingBlock: CIFDUS_clean_linker_0, # of connection points: 2
#     Edge 54, Type (0, 0), BuildingBlock: CIFDUS_clean_linker_0, # of connection points: 2
#     Edge 55, Type (0, 0), BuildingBlock: CIFDUS_clean_linker_0, # of connection points: 2
#     Edge 56, Type (0, 0), BuildingBlock: CIFDUS_clean_linker_0, # of connection points: 2
#     Edge 57, Type (0, 0), BuildingBlock: CIFDUS_clean_linker_0, # of connection points: 2
#     Edge 58, Type (0, 0), BuildingBlock: CIFDUS_clean_linker_0, # of connection points: 2
#     Edge 59, Type (0, 0), BuildingBlock: CIFDUS_clean_linker_0, # of connection points: 2
# Relax obj value: 0.008
# Max RMSD: 0.053
# Mean RMSD: 0.042
data_MOF--net-nbo-a--node1-OLANEW_clean_sbu_2--edge1-CIFDUS_clean_linker_0
_symmetry_space_group_name_H-M    P1
_symmetry_Int_Tables_number       1
_symmetry_cell_setting            triclinic
loop_
_symmetry_equiv_pos_as_xyz
'x, y, z'
_cell_length_a     69.41932
_cell_length_b     69.551583
_cell_length_c     69.102382
_cell_angle_alpha  90.275422
_cell_angle_beta   90.991911
_cell_angle_gamma 96.158518
loop_
_atom_site_label
_atom_site_type_symbol
_atom_site_fract_x
_atom_site_fract_y
_atom_site_fract_z
_atom_type_partial_charge
O0 O 0.07289 0.17183 0.51956 0.0
Cd1 Cd 0.04623 0.19016 0.50938 0.0
O2 O 0.06268 0.1711 0.54955 0.0
Cd3 Cd 0.03426 0.17951 0.54126 0.0
O4 O 0.00527 0.16676 0.53239 0.0
C5 C 0.00387 0.1567 0.51692 0.0
O6 O 0.01939 0.15603 0.50641 0.0
C7 C 0.07524 0.16745 0.53724 0.0
C8 C 0.0549 0.23034 0.50973 0.0
O9 O 0.05155 0.22101 0.52547 0.0
O10 O 0.05454 0.2207 0.49385 0.0
O11 O 0.90538 0.07061 0.53737 0.0
Cd12 Cd 0.88715 0.03945 0.54435 0.0
O13 O 0.92099 0.06004 0.51273 0.0
Cd14 Cd 0.91133 0.02948 0.51729 0.0
O15 O 0.92334 0.0021 0.52247 0.0
C16 C 0.92975 -0.00668 0.50817 0.0
O17 O 0.92714 -0.0 0.49066 0.0
C18 C 0.91724 0.07387 0.52366 0.0
C19 C 0.8473 0.03989 0.53876 0.0
O20 O 0.85587 0.0469 0.5542 0.0
O21 O 0.85755 0.03272 0.52586 0.0
O22 O 0.09885 0.91769 0.56168 0.0
Cd23 Cd 0.0696 0.89478 0.56415 0.0
O24 O 0.08315 0.94356 0.56238 0.0
Cd25 Cd 0.05354 0.92919 0.56165 0.0
O26 O 0.02278 0.93307 0.55851 0.0
C27 C 0.01519 0.93358 0.54167 0.0
O28 O 0.02565 0.93003 0.52665 0.0
C29 C 0.09902 0.936 0.56189 0.0
C30 C 0.07804 0.85636 0.56251 0.0
O31 O 0.07173 0.86461 0.54749 0.0
O32 O 0.08033 0.8662 0.57826 0.0
O33 O 0.20352 0.00969 0.58024 0.0
Cd34 Cd 0.23278 0.03091 0.58913 0.0
O35 O 0.19112 0.03528 0.5695 0.0
Cd36 Cd 0.17054 0.05345 0.55631 0.0
O37 O 0.15301 0.07547 0.54512 0.0
C38 C 0.14871 0.08883 0.55638 0.0
O39 O 0.15477 0.0889 0.57451 0.0
C40 C 0.18919 0.01719 0.57289 0.0
C41 C 0.26761 0.01701 0.57938 0.0
O42 O 0.25907 0.01193 0.59514 0.0
O43 O 0.25949 0.02837 0.56803 0.0
O44 O 0.61616 0.0154 0.16769 0.0
Cd45 Cd 0.62734 0.04404 0.18728 0.0
O46 O 0.59665 0.03095 0.1495 0.0
Cd47 Cd 0.60475 0.06028 0.16042 0.0
O48 O 0.60527 0.09061 0.15195 0.0
C49 C 0.61391 0.09572 0.13642 0.0
O50 O 0.62324 0.08307 0.12724 0.0
C51 C 0.60358 0.01536 0.15409 0.0
C52 C 0.61118 0.04419 0.22411 0.0
O53 O 0.62611 0.03537 0.2209 0.0
O54 O 0.60373 0.05273 0.20986 0.0
O55 O 0.08737 0.561 0.17742 0.0
Cd56 Cd 0.06183 0.54612 0.19827 0.0
O57 O 0.07096 0.5847 0.16784 0.0
Cd58 Cd 0.0434 0.57211 0.17947 0.0
O59 O 0.01466 0.56017 0.16892 0.0
C60 C 0.00659 0.5705 0.15671 0.0
O61 O 0.0152 0.58774 0.15269 0.0
C62 C 0.08646 0.57648 0.16789 0.0
C63 C 0.07283 0.54662 0.2374 0.0
O64 O 0.0777 0.53359 0.22584 0.0
O65 O 0.06285 0.55954 0.23047 0.0
O66 O 0.60764 0.05379 0.90473 0.0
Cd67 Cd 0.60369 0.02435 0.88484 0.0
O68 O 0.63646 0.04919 0.91639 0.0
Cd69 Cd 0.63621 0.02008 0.9044 0.0
O70 O 0.63635 -0.00899 0.91615 0.0
C71 C 0.62034 0.98122 0.91989 0.0
O72 O 0.60413 -0.01199 0.91453 0.0
C73 C 0.6224 0.05945 0.91525 0.0
C74 C 0.60145 0.03106 0.84504 0.0
O75 O 0.58665 0.03174 0.85574 0.0
O76 O 0.61742 0.02748 0.85316 0.0
O77 O 0.1014 0.52237 0.90078 0.0
Cd78 Cd 0.0737 0.50952 0.88044 0.0
O79 O 0.08522 0.54299 0.91636 0.0
Cd80 Cd 0.05639 0.53327 0.90448 0.0
O81 O 0.02597 0.52867 0.91286 0.0
C82 C 0.02063 0.51431 0.92355 0.0
O83 O 0.03309 0.50189 0.9276 0.0
C84 C 0.101 0.53583 0.91325 0.0
C85 C 0.07745 0.52014 0.84161 0.0
O86 O 0.06772 0.52959 0.85325 0.0
O87 O 0.08552 0.50579 0.84835 0.0
O88 O 0.18432 0.55542 0.0042 0.0
Cd89 Cd 0.20194 0.55245 0.03486 0.0
O90 O 0.16773 0.57816 0.01546 0.0
Cd91 Cd 0.17866 0.57768 0.04531 0.0
O92 O 0.17133 0.57524 0.07594 0.0
C93 C 0.16199 0.58824 0.08312 0.0
O94 O 0.15865 0.60307 0.07232 0.0
C95 C 0.17175 0.56723 0.00161 0.0
C96 C 0.24228 0.55731 0.03218 0.0
O97 O 0.23258 0.54094 0.02844 0.0
O98 O 0.23289 0.57149 0.03684 0.0
O99 O 0.5883 0.19666 0.07524 0.0
Cd100 Cd 0.57072 0.21665 0.05357 0.0
O101 O 0.59583 0.18266 0.04851 0.0
Cd102 Cd 0.60515 0.16099 0.02858 0.0
O103 O 0.61057 0.14219 0.00422 0.0
C104 C 0.59824 0.14039 -0.00968 0.0
O105 O 0.58284 0.1498 -0.0088 0.0
C106 C 0.59628 0.18331 0.06694 0.0
C107 C 0.57694 0.25667 0.0581 0.0
O108 O 0.56436 0.24653 0.06822 0.0
O109 O 0.58709 0.24778 0.04636 0.0
O110 O 0.92222 0.51946 0.07556 0.0
Cd111 Cd 0.90192 0.50147 0.05084 0.0
O112 O 0.92817 0.54529 0.0575 0.0
Cd113 Cd 0.91844 0.53055 0.0305 0.0
O114 O 0.93038 0.52187 0.00309 0.0
C115 C 0.93891 0.5066 0.00267 0.0
O116 O 0.93852 0.49565 0.01814 0.0
C117 C 0.92953 0.5369 0.0737 0.0
C118 C 0.8633 0.50883 0.05388 0.0
O119 O 0.87031 0.49612 0.06448 0.0
O120 O 0.8745 0.51801 0.04169 0.0
O121 O 0.58136 0.90264 0.01318 0.0
Cd122 Cd 0.57493 0.88736 0.04451 0.0
O123 O 0.61279 0.90929 0.01776 0.0
Cd124 Cd 0.61115 0.90271 0.04863 0.0
O125 O 0.61182 0.9154 0.0777 0.0
C126 C 0.59873 0.9263 0.0813 0.0
O127 O 0.58509 0.92787 0.06815 0.0
C128 C 0.59786 0.90914 0.00682 0.0
C129 C 0.57052 0.84716 0.04085 0.0
O130 O 0.55661 0.85715 0.03651 0.0
O131 O 0.58655 0.85612 0.04706 0.0
O132 O 0.58958 0.67661 0.04218 0.0
Cd133 Cd 0.5595 0.69196 0.04234 0.0
O134 O 0.58418 0.66167 0.01418 0.0
Cd135 Cd 0.5547 0.6698 0.01114 0.0
O136 O 0.52337 0.66163 0.01157 0.0
C137 C 0.5155 0.65111 -0.00211 0.0
O138 O 0.52619 0.64686 0.98329 0.0
C139 C 0.59508 0.6658 0.02893 0.0
C140 C 0.56633 0.73218 0.04457 0.0
O141 O 0.5675 0.72173 0.05968 0.0
O142 O 0.56197 0.72367 0.02835 0.0
O143 O 0.4166 0.57412 0.02234 0.0
Cd144 Cd 0.39567 0.54817 0.03766 0.0
O145 O 0.42367 0.55639 -0.00245 0.0
Cd146 Cd 0.41085 0.5295 0.01045 0.0
O147 O 0.41988 0.50451 0.02589 0.0
C148 C 0.42855 0.49245 0.01636 0.0
O149 O 0.42991 0.49453 -0.00248 0.0
C150 C 0.42511 0.57261 0.00634 0.0
C151 C 0.35608 0.54925 0.03048 0.0
O152 O 0.36498 0.55957 0.04395 0.0
O153 O 0.36596 0.53865 0.02015 0.0
O154 O 0.58765 0.42951 0.06972 0.0
Cd155 Cd 0.5587 0.40766 0.06159 0.0
O156 O 0.57271 0.44601 0.09096 0.0
Cd157 Cd 0.5438 0.4318 0.08387 0.0
O158 O 0.51493 0.43466 0.07177 0.0
C159 C 0.51147 0.43141 0.05386 0.0
O160 O 0.52491 0.42478 0.04332 0.0
C161 C 0.58814 0.44295 0.08231 0.0
C162 C 0.56414 0.36885 0.06677 0.0
O163 O 0.56902 0.37765 0.05106 0.0
O164 O 0.55679 0.37846 0.08015 0.0
O165 O 0.69457 0.51927 0.05845 0.0
Cd166 Cd 0.71754 0.5481 0.05412 0.0
O167 O 0.6761 0.53527 0.07681 0.0
Cd168 Cd 0.68885 0.56421 0.06893 0.0
O169 O 0.67945 0.59121 0.05793 0.0
C170 C 0.67679 0.60488 0.06952 0.0
O171 O 0.68161 0.60326 0.08787 0.0
C172 C 0.68011 0.5194 0.06949 0.0
C173 C 0.75544 0.539 0.04955 0.0
O174 O 0.74823 0.54024 0.06641 0.0
O175 O 0.74473 0.54202 0.03482 0.0
O176 O 0.09906 0.51717 0.67003 0.0
Cd177 Cd 0.10134 0.54651 0.69007 0.0
O178 O 0.12719 0.52658 0.65701 0.0
Cd179 Cd 0.12879 0.55681 0.66641 0.0
O180 O 0.13325 0.58649 0.65565 0.0
C181 C 0.11916 0.59619 0.65176 0.0
O182 O 0.10149 0.58884 0.6559 0.0
C183 C 0.11295 0.51371 0.65921 0.0
C184 C 0.09893 0.53798 0.72951 0.0
O185 O 0.08399 0.54201 0.71981 0.0
O186 O 0.11497 0.53799 0.72059 0.0
O187 O 0.59423 0.05862 0.67396 0.0
Cd188 Cd 0.56704 0.04599 0.69402 0.0
O189 O 0.57902 0.08177 0.66111 0.0
Cd190 Cd 0.5507 0.07188 0.67285 0.0
O191 O 0.5218 0.0627 0.66087 0.0
C192 C 0.51438 0.0749 0.6502 0.0
O193 O 0.52358 0.09234 0.64869 0.0
C194 C 0.5942 0.07313 0.66283 0.0
C195 C 0.5751 0.04722 0.73382 0.0
O196 O 0.58041 0.0337 0.72313 0.0
O197 O 0.56623 0.06036 0.72568 0.0
O198 O 0.10275 0.57841 0.40847 0.0
Cd199 Cd 0.09408 0.54736 0.39197 0.0
O200 O 0.13058 0.57056 0.42003 0.0
Cd201 Cd 0.12624 0.54001 0.41167 0.0
O202 O 0.12781 0.51143 0.42437 0.0
C203 C 0.11382 0.49804 0.42439 0.0
O204 O 0.09767 0.50064 0.41504 0.0
C205 C 0.11847 0.58292 0.41794 0.0
C206 C 0.08625 0.55129 0.35244 0.0
O207 O 0.07334 0.55345 0.36506 0.0
O208 O 0.10296 0.5474 0.35847 0.0
O209 O 0.59173 0.05121 0.39574 0.0
Cd210 Cd 0.56585 0.03974 0.37254 0.0
O211 O 0.59049 0.02245 0.40909 0.0
Cd212 Cd 0.56137 0.01282 0.39793 0.0
O213 O 0.53221 0.00701 0.40964 0.0
C214 C 0.52859 -0.00815 0.41972 0.0
O215 O 0.54174 0.97964 0.421 0.0
C216 C 0.5987 0.03961 0.40746 0.0
C217 C 0.57957 0.03724 0.33485 0.0
O218 O 0.57193 0.05222 0.34055 0.0
O219 O 0.58072 0.02348 0.34693 0.0
O220 O 0.67912 0.04283 0.50703 0.0
Cd221 Cd 0.69349 0.04637 0.5395 0.0
O222 O 0.66797 0.07125 0.50611 0.0
Cd223 Cd 0.67539 0.07768 0.5366 0.0
O224 O 0.66696 0.08161 0.56668 0.0
C225 C 0.67126 0.07044 0.58024 0.0
O226 O 0.68229 0.05673 0.57646 0.0
C227 C 0.6704 0.05529 0.49793 0.0
C228 C 0.73388 0.04959 0.5397 0.0
O229 O 0.72385 0.0331 0.53787 0.0
O230 O 0.72485 0.06465 0.54131 0.0
O231 O 0.10192 0.68864 0.56789 0.0
Cd232 Cd 0.10531 0.7087 0.5388 0.0
O233 O 0.12881 0.67603 0.56122 0.0
Cd234 Cd 0.13013 0.68512 0.53097 0.0
O235 O 0.13012 0.67289 0.5017 0.0
C236 C 0.14504 0.66502 0.49685 0.0
O237 O 0.16004 0.66626 0.50883 0.0
C238 C 0.11502 0.67802 0.5727 0.0
C239 C 0.09391 0.74581 0.54333 0.0
O240 O 0.08244 0.73216 0.53553 0.0
O241 O 0.11063 0.74188 0.54923 0.0
O242 O 0.43244 0.00527 0.57216 0.0
Cd243 Cd 0.41303 -0.00809 0.5444 0.0
O244 O 0.43828 0.03402 0.55907 0.0
Cd245 Cd 0.42921 0.02411 0.52991 0.0
O246 O 0.43919 0.01952 0.50053 0.0
C247 C 0.44759 0.00455 0.497 0.0
O248 O 0.44844 -0.00844 0.51065 0.0
C249 C 0.43943 0.0229 0.5735 0.0
C250 C 0.37465 -0.00018 0.54808 0.0
O251 O 0.38063 0.98479 0.55581 0.0
O252 O 0.38676 0.011 0.53838 0.0
O253 O 0.08009 0.40211 0.50389 0.0
Cd254 Cd 0.07169 0.38398 0.53341 0.0
O255 O 0.10516 0.42011 0.51671 0.0
Cd256 Cd 0.10134 0.41079 0.5467 0.0
O257 O 0.10339 0.42328 0.57591 0.0
C258 C 0.08845 0.42637 0.58534 0.0
O259 O 0.07123 0.42028 0.5781 0.0
C260 C 0.09426 0.41513 0.50216 0.0
C261 C 0.07216 0.34401 0.52933 0.0
O262 O 0.05806 0.35253 0.52255 0.0
O263 O 0.08621 0.35434 0.53788 0.0
H264 H 0.13348 0.11626 0.57771 0.0
H265 H 0.13691 0.09513 0.51917 0.0
H266 H 0.11608 0.11905 0.50778 0.0
H267 H 0.09528 0.14465 0.51473 0.0
H268 H 0.09053 0.16446 0.57355 0.0
H269 H 0.11371 0.1426 0.58448 0.0
C270 C 0.12979 0.11695 0.56243 0.0
C271 C 0.13669 0.10383 0.54935 0.0
C272 C 0.11759 0.13056 0.55601 0.0
C273 C 0.13172 0.10495 0.5296 0.0
C274 C 0.11983 0.11866 0.52305 0.0
C275 C 0.09958 0.14442 0.52988 0.0
C276 C 0.09122 0.1562 0.5433 0.0
C277 C 0.11248 0.13138 0.53616 0.0
C278 C 0.09674 0.15553 0.56293 0.0
C279 C 0.10994 0.14298 0.5692 0.0
H280 H 0.94351 0.08565 0.49621 0.0
H281 H 0.91691 0.10523 0.5477 0.0
H282 H 0.94014 0.13416 0.54875 0.0
H283 H 0.97063 0.15154 0.53766 0.0
H284 H -0.00241 0.13138 0.48663 0.0
H285 H 0.97148 0.10523 0.48273 0.0
C286 C 0.94255 0.09639 0.50749 0.0
C287 C 0.92867 0.09306 0.52204 0.0
C288 C 0.95618 0.11283 0.50824 0.0
C289 C 0.92753 0.10729 0.53639 0.0
C290 C 0.94089 0.12383 0.53707 0.0
C291 C 0.97063 0.14163 0.52549 0.0
C292 C -0.01374 0.14324 0.51268 0.0
C293 C 0.9557 0.12639 0.52348 0.0
C294 C 0.98589 0.13038 0.49687 0.0
C295 C 0.97097 0.11536 0.49463 0.0
H296 H 0.94194 0.97947 0.54262 0.0
H297 H 0.9472 0.97301 0.48082 0.0
H298 H 0.97279 0.95203 0.48586 0.0
H299 H -0.00384 0.93867 0.50764 0.0
H300 H -0.00844 0.94586 0.56942 0.0
H301 H 0.9631 0.96315 0.56452 0.0
C302 C 0.94845 0.97323 0.53024 0.0
C303 C 0.94282 0.97807 0.51136 0.0
C304 C 0.96342 0.96142 0.53322 0.0
C305 C 0.95135 0.96971 0.49551 0.0
C306 C 0.96605 0.95773 0.49837 0.0
C307 C -0.01121 0.94376 0.52006 0.0
C308 C -0.0038 0.9412 0.53885 0.0
C309 C 0.9726 0.95398 0.51714 0.0
C310 C -0.0137 0.94775 0.55478 0.0
C311 C 0.97004 0.95771 0.55199 0.0
H312 H 0.10421 0.97529 0.5642 0.0
H313 H 0.13582 0.92524 0.56039 0.0
H314 H 0.16644 0.94611 0.56243 0.0
H315 H 0.18423 0.97845 0.56656 0.0
H316 H 0.15238 0.02811 0.57202 0.0
H317 H 0.12193 0.00755 0.5677 0.0
C318 C 0.11777 0.9689 0.5637 0.0
C319 C 0.11765 0.94867 0.5622 0.0
C320 C 0.13532 0.98095 0.56503 0.0
C321 C 0.13543 0.94073 0.56158 0.0
C322 C 0.15297 0.95266 0.56276 0.0
C323 C 0.17062 0.9848 0.56664 0.0
C324 C 0.17068 0.00492 0.56909 0.0
C325 C 0.15308 0.97277 0.56467 0.0
C326 C 0.15291 0.01286 0.56935 0.0
C327 C 0.13541 0.00102 0.56719 0.0
H328 H 0.58658 0.17282 0.10348 0.0
H329 H 0.62393 0.15969 0.05709 0.0
H330 H 0.63347 0.13197 0.07503 0.0
H331 H 0.62946 0.11021 0.10293 0.0
H332 H 0.59236 0.12366 0.14952 0.0
H333 H 0.58486 0.15278 0.13266 0.0
C334 C 0.59698 0.16403 0.09736 0.0
C335 C 0.604 0.16794 0.07864 0.0
C336 C 0.60248 0.14818 0.10783 0.0
C337 C 0.61761 0.15652 0.07105 0.0
C338 C 0.62326 0.14078 0.08143 0.0
C339 C 0.61989 0.1196 0.10952 0.0
C340 C 0.61133 0.1146 0.12739 0.0
C341 C 0.61544 0.13622 0.09964 0.0
C342 C 0.59908 0.12706 0.13575 0.0
C343 C 0.59473 0.14371 0.12608 0.0
H344 H -0.01198 0.58818 0.12808 0.0
H345 H -0.01342 0.53443 0.15926 0.0
H346 H 0.96104 0.5198 0.13735 0.0
H347 H 0.94145 0.52138 0.10748 0.0
H348 H 0.94402 0.57493 0.07577 0.0
H349 H 0.96666 0.59052 0.09986 0.0
C350 C 0.98198 0.57333 0.13026 0.0
C351 C -0.01062 0.56238 0.14518 0.0
C352 C 0.96757 0.56491 0.11741 0.0
C353 C 0.98126 0.54318 0.14783 0.0
C354 C 0.96668 0.53478 0.13527 0.0
C355 C 0.94673 0.53654 0.10598 0.0
C356 C 0.94116 0.54689 0.08971 0.0
C357 C 0.96007 0.54537 0.11972 0.0
C358 C 0.94817 0.56654 0.08804 0.0
C359 C 0.96115 0.57549 0.1018 0.0
H360 H 0.62281 0.98324 0.151 0.0
H361 H 0.57191 0.00803 0.1304 0.0
H362 H 0.56485 0.9814 0.10745 0.0
H363 H 0.5748 0.95302 0.09101 0.0
H364 H 0.62646 0.92877 0.11025 0.0
H365 H 0.63139 0.95307 0.13606 0.0
C366 C 0.61 0.98263 0.14172 0.0
C367 C 0.59801 -0.00229 0.14232 0.0
C368 C 0.60623 0.96745 0.12818 0.0
C369 C 0.58149 -0.00328 0.13013 0.0
C370 C 0.57744 0.9815 0.11697 0.0
C371 C 0.58702 0.95286 0.10098 0.0
C372 C 0.60034 0.9392 0.09854 0.0
C373 C 0.58999 0.96708 0.11551 0.0
C374 C 0.61603 0.93918 0.1117 0.0
C375 C 0.61889 0.95311 0.12645 0.0
H376 H 0.11748 0.55808 0.15745 0.0
H377 H 0.091 0.61084 0.14866 0.0
H378 H 0.11373 0.62017 0.12298 0.0
H379 H 0.13842 0.61159 0.10056 0.0
H380 H 0.16395 0.55815 0.10826 0.0
H381 H 0.14445 0.551 0.13694 0.0
C382 C 0.1169 0.5718 0.15018 0.0
C383 C 0.10239 0.58363 0.15487 0.0
C384 C 0.12972 0.57687 0.13507 0.0
C385 C 0.10189 0.60136 0.14527 0.0
C386 C 0.11486 0.60669 0.13052 0.0
C387 C 0.13995 0.59849 0.10864 0.0
C388 C 0.15246 0.58531 0.10208 0.0
C389 C 0.12841 0.59427 0.12489 0.0
C390 C 0.15433 0.56849 0.11287 0.0
C391 C 0.14314 0.56436 0.12926 0.0
H392 H 0.58876 0.95787 0.93152 0.0
H393 H 0.65098 0.96736 0.93863 0.0
H394 H 0.64968 0.94411 0.96502 0.0
H395 H 0.63056 0.92419 -0.01142 0.0
H396 H 0.56829 0.91513 0.98171 0.0
H397 H 0.57002 0.93492 0.95265 0.0
C398 C 0.60208 0.95464 0.93862 0.0
C399 C 0.61989 0.96461 0.93329 0.0
C400 C 0.60123 0.94145 0.95399 0.0
C401 C 0.63703 0.96004 0.94252 0.0
C402 C 0.63631 0.94679 0.95769 0.0
C403 C 0.61738 0.92629 0.98058 0.0
C404 C 0.59931 0.91841 0.98754 0.0
C405 C 0.61843 0.93789 0.96396 0.0
C406 C 0.58241 0.92113 0.97682 0.0
C407 C 0.58336 0.93251 0.9602 0.0
H408 H 0.10634 0.56672 0.93768 0.0
H409 H 0.13442 0.51836 0.91692 0.0
H410 H 0.16029 0.52525 0.94119 0.0
H411 H 0.17274 0.54262 0.97075 0.0
H412 H 0.14406 0.5906 -0.00838 0.0
H413 H 0.12083 0.58634 0.96474 0.0
C414 C 0.11825 0.55782 0.93827 0.0
C415 C 0.11826 0.54187 0.92567 0.0
C416 C 0.13294 0.56171 0.9524 0.0
C417 C 0.13396 0.53068 0.92649 0.0
C418 C 0.14874 0.53455 0.94044 0.0
C419 C 0.16163 0.55237 0.96925 0.0
C420 C 0.16003 0.56672 0.98341 0.0
C421 C 0.14806 0.54967 0.95385 0.0
C422 C 0.14557 0.57929 0.9811 0.0
C423 C 0.13221 0.57684 0.96573 0.0
H424 H 0.6299 0.12205 0.98194 0.0
H425 H 0.57209 0.12943 0.96136 0.0
H426 H 0.57516 0.10639 0.93517 0.0
H427 H 0.59333 0.08247 0.91946 0.0
H428 H 0.65107 0.0749 0.94014 0.0
H429 H 0.64902 0.09989 0.96467 0.0
C430 C 0.618 0.11869 0.97167 0.0
C431 C 0.60071 0.12731 0.97377 0.0
C432 C 0.61985 0.10541 0.9566 0.0
C433 C 0.58553 0.12295 0.96018 0.0
C434 C 0.58727 0.10976 0.94517 0.0
C435 C 0.60559 0.08646 0.92914 0.0
C436 C 0.62226 0.07665 0.92802 0.0
C437 C 0.60424 0.10067 0.94342 0.0
C438 C 0.63801 0.08211 0.94068 0.0
C439 C 0.63683 0.09636 0.9548 0.0
H440 H 0.00604 0.4867 0.94865 0.0
H441 H -0.00665 0.53996 0.92183 0.0
H442 H 0.96541 0.54109 0.94261 0.0
H443 H 0.94689 0.52896 0.97085 0.0
H444 H 0.96026 0.47617 -0.00181 0.0
H445 H 0.98543 0.47279 0.97461 0.0
C446 C -0.00298 0.49843 0.94713 0.0
C447 C 0.00199 0.51336 0.93387 0.0
C448 C 0.98115 0.49917 0.95935 0.0
C449 C -0.01001 0.52833 0.93201 0.0
C450 C 0.97402 0.52904 0.94394 0.0
C451 C 0.95509 0.51655 0.97149 0.0
C452 C 0.95184 0.50299 0.98647 0.0
C453 C 0.96981 0.51484 0.95806 0.0
C454 C 0.96254 0.48693 0.98695 0.0
C455 C 0.977 0.485 0.97349 0.0
H456 H 0.61966 0.66858 0.0602 0.0
H457 H 0.61074 0.6412 0.00407 0.0
H458 H 0.63702 0.62143 0.01088 0.0
H459 H 0.65983 0.60928 0.03417 0.0
H460 H 0.66783 0.63582 0.09076 0.0
H461 H 0.64479 0.65868 0.08223 0.0
C462 C 0.62364 0.65852 0.04931 0.0
C463 C 0.61303 0.65624 0.03175 0.0
C464 C 0.63852 0.6469 0.05346 0.0
C465 C 0.61852 0.64318 0.01778 0.0
C466 C 0.63353 0.63181 0.02168 0.0
C467 C 0.65679 0.62025 0.04455 0.0
C468 C 0.66538 0.62064 0.06318 0.0
C469 C 0.64322 0.63313 0.0397 0.0
C470 C 0.66132 0.63505 0.07638 0.0
C471 C 0.64809 0.64812 0.07154 0.0
H472 H 0.43736 0.60632 0.02516 0.0
H473 H 0.44435 0.57499 0.97209 0.0
H474 H 0.47172 0.59823 0.96362 0.0
H475 H 0.4962 0.62474 0.97333 0.0
H476 H 0.49012 0.65514 0.02713 0.0
H477 H 0.45977 0.63511 0.03311 0.0
C478 C 0.4446 0.60477 0.01154 0.0
C479 C 0.43893 0.58876 -0.00058 0.0
C480 C 0.46067 0.6179 0.00699 0.0
C481 C 0.44849 0.58706 0.9818 0.0
C482 C 0.46421 0.60031 0.97697 0.0
C483 C 0.4881 0.62721 0.98623 0.0
C484 C 0.49562 0.64124 -9e-05 0.0
C485 C 0.47086 0.61537 -0.01021 0.0
C486 C 0.4848 0.64433 0.01645 0.0
C487 C 0.46744 0.63283 0.01991 0.0
H488 H 0.48275 0.449 0.07084 0.0
H489 H 0.50099 0.42884 0.01558 0.0
H490 H 0.47529 0.44418 -0.00075 0.0
H491 H 0.45017 0.46638 0.0003 0.0
H492 H 0.43249 0.48735 0.05543 0.0
H493 H 0.45524 0.46841 0.07213 0.0
C494 C 0.48094 0.4477 0.05525 0.0
C495 C 0.494 0.43801 0.04445 0.0
C496 C 0.4663 0.45684 0.04588 0.0
C497 C 0.4913 0.43635 0.02427 0.0
C498 C 0.47661 0.44517 0.01489 0.0
C499 C 0.45106 0.46661 0.01599 0.0
C500 C 0.43982 0.47852 0.02656 0.0
C501 C 0.46442 0.45594 0.02549 0.0
C502 C 0.44106 0.47845 0.0469 0.0
C503 C 0.45413 0.46767 0.05647 0.0
H504 H 0.6508 0.51413 0.09507 0.0
H505 H 0.67931 0.48462 0.05051 0.0
H506 H 0.65431 0.45715 0.05213 0.0
H507 H 0.62248 0.44323 0.0636 0.0
H508 H 0.59384 0.47333 0.10769 0.0
H509 H 0.62091 0.4987 0.10897 0.0
C510 C 0.65171 0.50161 0.08586 0.0
C511 C 0.66677 0.50159 0.07249 0.0
C512 C 0.63718 0.48599 0.08669 0.0
C513 C 0.66783 0.4851 0.06087 0.0
C514 C 0.65349 0.46939 0.06173 0.0
C515 C 0.62228 0.45517 0.07372 0.0
C516 C 0.60598 0.45646 0.08533 0.0
C517 C 0.6378 0.46993 0.07419 0.0
C518 C 0.60608 0.472 0.09845 0.0
C519 C 0.62154 0.48659 0.09916 0.0
H520 H 0.14345 0.66053 0.59066 0.0
H521 H 0.08303 0.66916 0.59492 0.0
H522 H 0.07935 0.64576 0.62126 0.0
H523 H 0.09252 0.6203 0.64057 0.0
H524 H 0.15304 0.61192 0.63604 0.0
H525 H 0.15744 0.6379 0.61249 0.0
C526 C 0.12952 0.65749 0.5975 0.0
C527 C 0.11348 0.66639 0.59064 0.0
C528 C 0.12748 0.64394 0.61252 0.0
C529 C 0.09561 0.66248 0.59987 0.0
C530 C 0.09347 0.64902 0.61488 0.0
C531 C 0.10674 0.62433 0.63464 0.0
C532 C 0.12234 0.61393 0.63988 0.0
C533 C 0.10918 0.63926 0.62094 0.0
C534 C 0.14071 0.61953 0.63219 0.0
C535 C 0.14325 0.63437 0.61865 0.0
H536 H 0.49418 0.03908 0.64677 0.0
H537 H 0.4968 0.09713 0.62432 0.0
H538 H 0.47251 0.08641 0.59961 0.0
H539 H 0.45301 0.06009 0.58236 0.0
H540 H 0.4505 0.00192 0.60441 0.0
H541 H 0.47206 0.01324 0.63135 0.0
C542 C 0.48924 0.04945 0.63665 0.0
C543 C 0.49753 0.06883 0.63727 0.0
C544 C 0.47538 0.04316 0.62227 0.0
C545 C 0.49083 0.08208 0.62412 0.0
C546 C 0.47695 0.07597 0.60991 0.0
C547 C 0.45699 0.04989 0.59316 0.0
C548 C 0.45033 0.03014 0.59119 0.0
C549 C 0.46953 0.05645 0.60852 0.0
C550 C 0.45548 0.01719 0.60548 0.0
C551 C 0.46788 0.02364 0.62088 0.0
H552 H 0.12136 0.44629 0.60003 0.0
H553 H 0.05977 0.4359 0.60914 0.0
H554 H 0.06224 0.46074 0.63445 0.0
H555 H 0.08136 0.4877 0.6516 0.0
H556 H 0.14264 0.49891 0.64106 0.0
H557 H 0.14081 0.4714 0.61887 0.0
C558 C 0.10848 0.44923 0.60772 0.0
C559 C 0.09037 0.43934 0.60253 0.0
C560 C 0.10993 0.46384 0.62194 0.0
C561 C 0.07388 0.44336 0.61272 0.0
C562 C 0.07527 0.45762 0.62718 0.0
C563 C 0.09437 0.48393 0.64469 0.0
C564 C 0.11208 0.49548 0.64788 0.0
C565 C 0.09314 0.4683 0.63155 0.0
C566 C 0.12878 0.4904 0.63874 0.0
C567 C 0.12775 0.47467 0.62603 0.0
H568 H 0.64742 0.09651 0.59246 0.0
H569 H 0.67312 0.04553 0.61056 0.0
H570 H 0.65324 0.04342 0.63941 0.0
H571 H 0.62574 0.05364 0.65726 0.0
H572 H 0.59941 0.10404 0.63851 0.0
H573 H 0.62256 0.10892 0.61241 0.0
C574 C 0.64889 0.08508 0.60284 0.0
C575 C 0.66153 0.07102 0.59915 0.0
C576 C 0.6372 0.08377 0.61928 0.0
C577 C 0.6634 0.05646 0.6129 0.0
C578 C 0.65198 0.05521 0.62941 0.0
C579 C 0.62529 0.06593 0.64772 0.0
C580 C 0.61064 0.07828 0.64972 0.0
C581 C 0.63841 0.06843 0.63243 0.0
C582 C 0.61038 0.09417 0.63723 0.0
C583 C 0.62359 0.09695 0.62222 0.0
H584 H 0.12533 0.43988 0.49189 0.0
H585 H 0.06875 0.41556 0.47154 0.0
H586 H 0.07058 0.438 0.44439 0.0
H587 H 0.08666 0.46697 0.42863 0.0
H588 H 0.14323 0.49116 0.44928 0.0
H589 H 0.143 0.46624 0.47393 0.0
C590 C 0.1135 0.43928 0.48137 0.0
C591 C 0.09682 0.42623 0.48394 0.0
C592 C 0.11455 0.45235 0.46591 0.0
C593 C 0.08175 0.4255 0.46999 0.0
C594 C 0.08272 0.43841 0.4545 0.0
C595 C 0.09905 0.46664 0.43834 0.0
C596 C 0.11478 0.48114 0.43726 0.0
C597 C 0.09881 0.45229 0.45265 0.0
C598 C 0.13082 0.48032 0.44985 0.0
C599 C 0.13071 0.46608 0.46402 0.0
H600 H 0.62277 0.01774 0.42666 0.0
H601 H 0.61078 0.07679 0.41858 0.0
H602 H 0.63349 0.08732 0.44495 0.0
H603 H 0.65385 0.0791 0.47267 0.0
H604 H 0.666 0.01995 0.48019 0.0
H605 H 0.64633 0.01021 0.45157 0.0
C606 C 0.62534 0.03296 0.43048 0.0
C607 C 0.61491 0.04641 0.42086 0.0
C608 C 0.63835 0.03889 0.44567 0.0
C609 C 0.61861 0.06612 0.42578 0.0
C610 C 0.63151 0.07214 0.44094 0.0
C611 C 0.65243 0.06413 0.46789 0.0
C612 C 0.66117 0.05025 0.47879 0.0
C613 C 0.64102 0.05856 0.45137 0.0
C614 C 0.65937 0.03096 0.4722 0.0
C615 C 0.64804 0.02532 0.45585 0.0
H616 H 0.15146 0.5982 0.43657 0.0
H617 H 0.0928 0.60969 0.42329 0.0
H618 H 0.09652 0.63758 0.44518 0.0
H619 H 0.11517 0.65635 0.47088 0.0
H620 H 0.17365 0.64431 0.48431 0.0
H621 H 0.17126 0.61917 0.45946 0.0
C622 C 0.13955 0.60695 0.43823 0.0
C623 C 0.12179 0.60166 0.42849 0.0
C624 C 0.14169 0.62281 0.45103 0.0
C625 C 0.10662 0.61334 0.43066 0.0
C626 C 0.1087 0.62926 0.44327 0.0
C627 C 0.1275 0.64843 0.46818 0.0
C628 C 0.14446 0.65205 0.47969 0.0
C629 C 0.12597 0.63377 0.45397 0.0
C630 C 0.16034 0.64174 0.47584 0.0
C631 C 0.15899 0.6273 0.46164 0.0
H632 H 0.46821 0.97536 0.48599 0.0
H633 H 0.45247 0.03095 0.46774 0.0
H634 H 0.47478 0.03098 0.44082 0.0
H635 H 0.50126 0.01685 0.42458 0.0
H636 H 0.51744 0.96162 0.44346 0.0
H637 H 0.49234 0.95979 0.46783 0.0
C638 C 0.46944 -0.01262 0.47599 0.0
C639 C 0.45884 0.00324 0.47907 0.0
C640 C 0.48252 -0.01254 0.46069 0.0
C641 C 0.46053 0.0186 0.46583 0.0
C642 C 0.47335 0.01867 0.45044 0.0
C643 C 0.49911 0.00427 0.43382 0.0
C644 C 0.51142 -0.01049 0.43232 0.0
C645 C 0.48481 0.00342 0.44805 0.0
C646 C 0.50832 0.97328 0.44437 0.0
C647 C 0.49398 0.97222 0.45837 0.0
H648 H 0.07223 0.25372 0.538 0.0
H649 H 0.04481 0.2547 0.4816 0.0
H650 H 0.0477 0.29006 0.48261 0.0
H651 H 0.05686 0.32068 0.50017 0.0
H652 H 0.08687 0.31989 0.55526 0.0
H653 H 0.08426 0.28452 0.55414 0.0
C654 C 0.067 0.26172 0.52591 0.0
C655 C 0.05816 0.25168 0.50983 0.0
C656 C 0.06914 0.28206 0.5264 0.0
C657 C 0.05169 0.26216 0.49412 0.0
C658 C 0.05327 0.28235 0.49472 0.0
C659 C 0.06289 0.31272 0.51187 0.0
C660 C 0.07185 0.32279 0.52786 0.0
C661 C 0.06178 0.29245 0.51088 0.0
C662 C 0.07991 0.31241 0.54279 0.0
C663 C 0.07836 0.2922 0.54219 0.0
H664 H 0.75706 0.02538 0.5232 0.0
H665 H 0.75857 0.07732 0.55778 0.0
H666 H 0.79389 0.0789 0.56064 0.0
H667 H 0.82425 0.06493 0.55406 0.0
H668 H 0.82296 0.01438 0.51747 0.0
H669 H 0.78765 0.01285 0.51454 0.0
C670 C 0.76516 0.03705 0.53132 0.0
C671 C 0.75527 0.05111 0.54043 0.0
C672 C 0.78546 0.03809 0.53254 0.0
C673 C 0.7659 0.06634 0.55065 0.0
C674 C 0.78607 0.06721 0.55233 0.0
C675 C 0.81621 0.05361 0.54543 0.0
C676 C 0.82612 0.03968 0.53615 0.0
C677 C 0.79598 0.05308 0.54347 0.0
C678 C 0.81561 0.02527 0.52474 0.0
C679 C 0.79544 0.02436 0.52311 0.0
H680 H 0.0632 0.82794 0.53767 0.0
H681 H 0.10337 0.83941 0.58569 0.0
H682 H 0.11196 0.80627 0.58395 0.0
H683 H 0.1084 0.77412 0.56844 0.0
H684 H 0.06661 0.76198 0.52189 0.0
H685 H 0.05822 0.7952 0.52344 0.0
C686 C 0.07384 0.82316 0.54773 0.0
C687 C 0.08276 0.83613 0.56168 0.0
C688 C 0.07839 0.80395 0.54692 0.0
C689 C 0.0963 0.82968 0.57482 0.0
C690 C 0.10125 0.81075 0.57381 0.0
C691 C 0.09744 0.77876 0.55866 0.0
C692 C 0.08823 0.76566 0.54499 0.0
C693 C 0.09244 0.79778 0.55988 0.0
C694 C 0.07388 0.77178 0.53257 0.0
C695 C 0.06913 0.7908 0.5334 0.0
H696 H 0.34807 0.98312 0.57301 0.0
H697 H 0.35606 0.02702 0.52908 0.0
H698 H 0.32327 0.03549 0.53418 0.0
H699 H 0.29275 0.03123 0.5519 0.0
H700 H 0.28533 -0.01169 0.59682 0.0
H701 H 0.31743 0.97861 0.59048 0.0
C702 C 0.3426 -0.00554 0.56446 0.0
C703 C 0.35451 0.00441 0.55068 0.0
C704 C 0.32384 -0.00053 0.56767 0.0
C705 C 0.34723 0.01916 0.53982 0.0
C706 C 0.32847 0.02401 0.54271 0.0
C707 C 0.29809 0.01965 0.5602 0.0
C708 C 0.28665 0.0105 0.5748 0.0
C709 C 0.3167 0.01437 0.55671 0.0
C710 C 0.29386 -0.00437 0.58553 0.0
C711 C 0.31222 -0.00993 0.58191 0.0
H712 H 0.61877 0.02205 0.25513 0.0
H713 H 0.58532 0.06792 0.23724 0.0
H714 H 0.57276 0.06997 0.26991 0.0
H715 H 0.57159 0.05905 0.30371 0.0
H716 H 0.60398 0.01228 0.32125 0.0
H717 H 0.61662 0.01028 0.28861 0.0
C718 C 0.60872 0.03249 0.25837 0.0
C719 C 0.60307 0.04487 0.24377 0.0
C720 C 0.60138 0.03345 0.27715 0.0
C721 C 0.58989 0.05819 0.24819 0.0
C722 C 0.58273 0.05941 0.26689 0.0
C723 C 0.58143 0.04843 0.30039 0.0
C724 C 0.58692 0.03591 0.31493 0.0
C725 C 0.58844 0.04718 0.28151 0.0
C726 C 0.59952 0.02209 0.31033 0.0
C727 C 0.60678 0.02095 0.29167 0.0
H728 H 0.05589 0.56372 0.26716 0.0
H729 H 0.10205 0.52906 0.25425 0.0
H730 H 0.11088 0.52822 0.2886 0.0
H731 H 0.105 0.53668 0.32243 0.0
H732 H 0.05746 0.56947 0.33554 0.0
H733 H 0.04968 0.57173 0.30105 0.0
C734 C 0.06795 0.55608 0.27187 0.0
C735 C 0.07835 0.54653 0.25818 0.0
C736 C 0.07267 0.55528 0.2917 0.0
C737 C 0.09379 0.53649 0.26451 0.0
C738 C 0.09886 0.53602 0.28415 0.0
C739 C 0.09301 0.54441 0.31772 0.0
C740 C 0.08187 0.55296 0.33151 0.0
C741 C 0.08834 0.54527 0.29789 0.0
C742 C 0.06623 0.56273 0.32521 0.0
C743 C 0.06178 0.56405 0.30549 0.0
H744 H 0.57538 0.05019 0.82516 0.0
H745 H 0.62424 0.01766 0.81742 0.0
H746 H 0.62055 0.01993 0.78228 0.0
H747 H 0.60265 0.03012 0.75372 0.0
H748 H 0.55507 0.06437 0.76143 0.0
H749 H 0.55909 0.06257 0.79658 0.0
C750 C 0.58525 0.04367 0.81576 0.0
C751 C 0.59995 0.03363 0.82385 0.0
C752 C 0.58325 0.04531 0.79557 0.0
C753 C 0.61281 0.02548 0.81153 0.0
C754 C 0.61067 0.02671 0.79144 0.0
C755 C 0.59322 0.03725 0.76311 0.0
C756 C 0.57848 0.04722 0.75501 0.0
C757 C 0.59583 0.03643 0.7833 0.0
C758 C 0.56654 0.05661 0.76733 0.0
C759 C 0.56878 0.05553 0.78742 0.0
H760 H 0.07182 0.54739 0.75479 0.0
H761 H 0.12344 0.51821 0.751 0.0
H762 H 0.12125 0.50991 0.78528 0.0
H763 H 0.10451 0.51072 0.8163 0.0
H764 H 0.054 0.54153 0.82057 0.0
H765 H 0.05594 0.54946 0.78619 0.0
C766 C 0.08257 0.53919 0.76148 0.0
C767 C 0.0977 0.53331 0.75035 0.0
C768 C 0.08143 0.53478 0.78129 0.0
C769 C 0.11166 0.52292 0.75926 0.0
C770 C 0.1104 0.51814 0.77885 0.0
C771 C 0.09393 0.51917 0.80969 0.0
C772 C 0.07907 0.52543 0.82094 0.0
C773 C 0.09532 0.52396 0.79 0.0
C774 C 0.0656 0.53656 0.81224 0.0
C775 C 0.06667 0.54106 0.79256 0.0
H776 H 0.26578 0.53317 0.01576 0.0
H777 H 0.26696 0.58647 0.0482 0.0
H778 H 0.3023 0.58898 0.05007 0.0
H779 H 0.33281 0.57525 0.04383 0.0
H780 H 0.33173 0.52256 0.01041 0.0
H781 H 0.29646 0.52068 0.0075 0.0
C782 C 0.27378 0.54538 0.02315 0.0
C783 C 0.26373 0.55952 0.03197 0.0
C784 C 0.29413 0.54683 0.02405 0.0
C785 C 0.27432 0.57538 0.0413 0.0
C786 C 0.29455 0.5768 0.04244 0.0
C787 C 0.32486 0.56341 0.03583 0.0
C788 C 0.33487 0.54898 0.0275 0.0
C789 C 0.30458 0.56249 0.03408 0.0
C790 C 0.32438 0.53385 0.01698 0.0
C791 C 0.3042 0.53272 0.01535 0.0
H792 H 0.58526 0.34672 0.04474 0.0
H793 H 0.54792 0.3443 0.09415 0.0
H794 H 0.54954 0.30948 0.09658 0.0
H795 H 0.55995 0.27944 0.08343 0.0
H796 H 0.59772 0.282 0.03432 0.0
H797 H 0.5977 0.31706 0.03317 0.0
C798 C 0.57756 0.33859 0.0561 0.0
C799 C 0.56633 0.34805 0.06911 0.0
C800 C 0.57861 0.31859 0.05747 0.0
C801 C 0.55663 0.33736 0.0839 0.0
C802 C 0.55751 0.31743 0.08529 0.0
C803 C 0.56832 0.28768 0.07259 0.0
C804 C 0.57867 0.27807 0.05889 0.0
C805 C 0.56823 0.30785 0.07197 0.0
C806 C 0.58958 0.289 0.04503 0.0
C807 C 0.58953 0.30906 0.0443 0.0
H808 H 0.84115 0.52611 0.02771 0.0
H809 H 0.83974 0.50061 0.08453 0.0
H810 H 0.80637 0.50793 0.08833 0.0
H811 H 0.77765 0.52182 0.07563 0.0
H812 H 0.77836 0.54567 0.0181 0.0
H813 H 0.8119 0.53873 0.01443 0.0
C814 C 0.83353 0.52218 0.04092 0.0
C815 C 0.84294 0.51293 0.05585 0.0
C816 C 0.81422 0.52613 0.04288 0.0
C817 C 0.83281 0.50771 0.0728 0.0
C818 C 0.81374 0.51193 0.07501 0.0
C819 C 0.78516 0.52551 0.0623 0.0
C820 C 0.77558 0.53435 0.04721 0.0
C821 C 0.80432 0.52118 0.06017 0.0
C822 C 0.78541 0.53883 0.02993 0.0
C823 C 0.8046 0.53491 0.02783 0.0
H824 H 0.55038 0.7583 0.02205 0.0
H825 H 0.58974 0.75367 0.07035 0.0
H826 H 0.59529 0.78894 0.0729 0.0
H827 H 0.58849 0.82113 0.06171 0.0
H828 H 0.54685 0.82563 0.01535 0.0
H829 H 0.54262 0.79043 0.01169 0.0
C830 C 0.56024 0.76505 0.03306 0.0
C831 C 0.56975 0.75347 0.04591 0.0
C832 C 0.5629 0.7853 0.0348 0.0
C833 C 0.58225 0.76234 0.06031 0.0
C834 C 0.58545 0.78248 0.06176 0.0
C835 C 0.57856 0.81436 0.05077 0.0
C836 C 0.56808 0.8259 0.03874 0.0
C837 C 0.57579 0.79411 0.04913 0.0
C838 C 0.55504 0.817 0.0248 0.0
C839 C 0.55265 0.7969 0.02268 0.0
loop_
_geom_bond_atom_site_label_1
_geom_bond_atom_site_label_2
_geom_bond_distance
_geom_bond_site_symmetry_2
_ccdc_geom_bond_type
O0 Cd1 2.300 . S
O0 C7 1.275 . S
Cd1 O0 2.300 . S
Cd1 O9 2.381 . S
Cd1 O10 2.378 . S
O2 Cd3 2.385 . S
O2 C7 1.255 . S
Cd3 O2 2.385 . S
Cd3 O4 2.317 . S
O4 Cd3 2.317 . S
O4 C5 1.232 . S
C5 O4 1.232 . S
C5 O6 1.218 . S
O6 C5 1.218 . S
C7 O0 1.275 . S
C7 O2 1.255 . S
C8 O9 1.258 . S
C8 O10 1.256 . S
O9 Cd1 2.381 . S
O9 C8 1.258 . S
O10 Cd1 2.378 . S
O10 C8 1.256 . S
O11 Cd12 2.300 . S
O11 C18 1.275 . S
Cd12 O11 2.300 . S
Cd12 O20 2.381 . S
Cd12 O21 2.378 . S
O13 Cd14 2.385 . S
O13 C18 1.255 . S
Cd14 O13 2.385 . S
Cd14 O15 2.317 . S
O15 Cd14 2.317 . S
O15 C16 1.232 . S
C16 O15 1.232 . S
C16 O17 1.218 . S
O17 C16 1.218 . S
C18 O11 1.275 . S
C18 O13 1.255 . S
C19 O20 1.258 . S
C19 O21 1.256 . S
O20 Cd12 2.381 . S
O20 C19 1.258 . S
O21 Cd12 2.378 . S
O21 C19 1.256 . S
O22 Cd23 2.300 . S
O22 C29 1.275 . S
Cd23 O22 2.300 . S
Cd23 O31 2.381 . S
Cd23 O32 2.378 . S
O24 Cd25 2.385 . S
O24 C29 1.255 . S
Cd25 O24 2.385 . S
Cd25 O26 2.317 . S
O26 Cd25 2.317 . S
O26 C27 1.232 . S
C27 O26 1.232 . S
C27 O28 1.218 . S
O28 C27 1.218 . S
C29 O22 1.275 . S
C29 O24 1.255 . S
C30 O31 1.258 . S
C30 O32 1.256 . S
O31 Cd23 2.381 . S
O31 C30 1.258 . S
O32 Cd23 2.378 . S
O32 C30 1.256 . S
O33 Cd34 2.300 . S
O33 C40 1.275 . S
Cd34 O33 2.300 . S
Cd34 O42 2.381 . S
Cd34 O43 2.378 . S
O35 Cd36 2.385 . S
O35 C40 1.255 . S
Cd36 O35 2.385 . S
Cd36 O37 2.317 . S
O37 Cd36 2.317 . S
O37 C38 1.232 . S
C38 O37 1.232 . S
C38 O39 1.218 . S
O39 C38 1.218 . S
C40 O33 1.275 . S
C40 O35 1.255 . S
C41 O42 1.258 . S
C41 O43 1.256 . S
O42 Cd34 2.381 . S
O42 C41 1.258 . S
O43 Cd34 2.378 . S
O43 C41 1.256 . S
O44 Cd45 2.300 . S
O44 C51 1.275 . S
Cd45 O44 2.300 . S
Cd45 O53 2.381 . S
Cd45 O54 2.378 . S
O46 Cd47 2.385 . S
O46 C51 1.255 . S
Cd47 O46 2.385 . S
Cd47 O48 2.317 . S
O48 Cd47 2.317 . S
O48 C49 1.232 . S
C49 O48 1.232 . S
C49 O50 1.218 . S
O50 C49 1.218 . S
C51 O44 1.275 . S
C51 O46 1.255 . S
C52 O53 1.258 . S
C52 O54 1.256 . S
O53 Cd45 2.381 . S
O53 C52 1.258 . S
O54 Cd45 2.378 . S
O54 C52 1.256 . S
O55 Cd56 2.300 . S
O55 C62 1.275 . S
Cd56 O55 2.300 . S
Cd56 O64 2.381 . S
Cd56 O65 2.378 . S
O57 Cd58 2.385 . S
O57 C62 1.255 . S
Cd58 O57 2.385 . S
Cd58 O59 2.317 . S
O59 Cd58 2.317 . S
O59 C60 1.232 . S
C60 O59 1.232 . S
C60 O61 1.218 . S
O61 C60 1.218 . S
C62 O55 1.275 . S
C62 O57 1.255 . S
C63 O64 1.258 . S
C63 O65 1.256 . S
O64 Cd56 2.381 . S
O64 C63 1.258 . S
O65 Cd56 2.378 . S
O65 C63 1.256 . S
O66 Cd67 2.300 . S
O66 C73 1.275 . S
Cd67 O66 2.300 . S
Cd67 O75 2.381 . S
Cd67 O76 2.378 . S
O68 Cd69 2.385 . S
O68 C73 1.255 . S
Cd69 O68 2.385 . S
Cd69 O70 2.317 . S
O70 Cd69 2.317 . S
O70 C71 1.232 . S
C71 O70 1.232 . S
C71 O72 1.218 . S
O72 C71 1.218 . S
C73 O66 1.275 . S
C73 O68 1.255 . S
C74 O75 1.258 . S
C74 O76 1.256 . S
O75 Cd67 2.381 . S
O75 C74 1.258 . S
O76 Cd67 2.378 . S
O76 C74 1.256 . S
O77 Cd78 2.300 . S
O77 C84 1.275 . S
Cd78 O77 2.300 . S
Cd78 O86 2.381 . S
Cd78 O87 2.378 . S
O79 Cd80 2.385 . S
O79 C84 1.255 . S
Cd80 O79 2.385 . S
Cd80 O81 2.317 . S
O81 Cd80 2.317 . S
O81 C82 1.232 . S
C82 O81 1.232 . S
C82 O83 1.218 . S
O83 C82 1.218 . S
C84 O77 1.275 . S
C84 O79 1.255 . S
C85 O86 1.258 . S
C85 O87 1.256 . S
O86 Cd78 2.381 . S
O86 C85 1.258 . S
O87 Cd78 2.378 . S
O87 C85 1.256 . S
O88 Cd89 2.300 . S
O88 C95 1.275 . S
Cd89 O88 2.300 . S
Cd89 O97 2.381 . S
Cd89 O98 2.378 . S
O90 Cd91 2.385 . S
O90 C95 1.255 . S
Cd91 O90 2.385 . S
Cd91 O92 2.317 . S
O92 Cd91 2.317 . S
O92 C93 1.232 . S
C93 O92 1.232 . S
C93 O94 1.218 . S
O94 C93 1.218 . S
C95 O88 1.275 . S
C95 O90 1.255 . S
C96 O97 1.258 . S
C96 O98 1.256 . S
O97 Cd89 2.381 . S
O97 C96 1.258 . S
O98 Cd89 2.378 . S
O98 C96 1.256 . S
O99 Cd100 2.300 . S
O99 C106 1.275 . S
Cd100 O99 2.300 . S
Cd100 O108 2.381 . S
Cd100 O109 2.378 . S
O101 Cd102 2.385 . S
O101 C106 1.255 . S
Cd102 O101 2.385 . S
Cd102 O103 2.317 . S
O103 Cd102 2.317 . S
O103 C104 1.232 . S
C104 O103 1.232 . S
C104 O105 1.218 . S
O105 C104 1.218 . S
C106 O99 1.275 . S
C106 O101 1.255 . S
C107 O108 1.258 . S
C107 O109 1.256 . S
O108 Cd100 2.381 . S
O108 C107 1.258 . S
O109 Cd100 2.378 . S
O109 C107 1.256 . S
O110 Cd111 2.300 . S
O110 C117 1.275 . S
Cd111 O110 2.300 . S
Cd111 O119 2.381 . S
Cd111 O120 2.378 . S
O112 Cd113 2.385 . S
O112 C117 1.255 . S
Cd113 O112 2.385 . S
Cd113 O114 2.317 . S
O114 Cd113 2.317 . S
O114 C115 1.232 . S
C115 O114 1.232 . S
C115 O116 1.218 . S
O116 C115 1.218 . S
C117 O110 1.275 . S
C117 O112 1.255 . S
C118 O119 1.258 . S
C118 O120 1.256 . S
O119 Cd111 2.381 . S
O119 C118 1.258 . S
O120 Cd111 2.378 . S
O120 C118 1.256 . S
O121 Cd122 2.300 . S
O121 C128 1.275 . S
Cd122 O121 2.300 . S
Cd122 O130 2.381 . S
Cd122 O131 2.378 . S
O123 Cd124 2.385 . S
O123 C128 1.255 . S
Cd124 O123 2.385 . S
Cd124 O125 2.317 . S
O125 Cd124 2.317 . S
O125 C126 1.232 . S
C126 O125 1.232 . S
C126 O127 1.218 . S
O127 C126 1.218 . S
C128 O121 1.275 . S
C128 O123 1.255 . S
C129 O130 1.258 . S
C129 O131 1.256 . S
O130 Cd122 2.381 . S
O130 C129 1.258 . S
O131 Cd122 2.378 . S
O131 C129 1.256 . S
O132 Cd133 2.300 . S
O132 C139 1.275 . S
Cd133 O132 2.300 . S
Cd133 O141 2.381 . S
Cd133 O142 2.378 . S
O134 Cd135 2.385 1_554 S
O134 C139 1.255 . S
Cd135 O134 2.385 1_556 S
Cd135 O136 2.317 1_556 S
O136 Cd135 2.317 1_554 S
O136 C137 1.232 . S
C137 O136 1.232 . S
C137 O138 1.218 . S
O138 C137 1.218 . S
C139 O132 1.275 . S
C139 O134 1.255 . S
C140 O141 1.258 . S
C140 O142 1.256 . S
O141 Cd133 2.381 . S
O141 C140 1.258 . S
O142 Cd133 2.378 . S
O142 C140 1.256 . S
O143 Cd144 2.300 . S
O143 C150 1.275 . S
Cd144 O143 2.300 . S
Cd144 O152 2.381 . S
Cd144 O153 2.378 . S
O145 Cd146 2.385 1_554 S
O145 C150 1.255 . S
Cd146 O145 2.385 1_556 S
Cd146 O147 2.317 1_556 S
O147 Cd146 2.317 1_554 S
O147 C148 1.232 . S
C148 O147 1.232 . S
C148 O149 1.218 . S
O149 C148 1.218 . S
C150 O143 1.275 . S
C150 O145 1.255 . S
C151 O152 1.258 . S
C151 O153 1.256 . S
O152 Cd144 2.381 . S
O152 C151 1.258 . S
O153 Cd144 2.378 . S
O153 C151 1.256 . S
O154 Cd155 2.300 . S
O154 C161 1.275 . S
Cd155 O154 2.300 . S
Cd155 O163 2.381 . S
Cd155 O164 2.378 . S
O156 Cd157 2.385 . S
O156 C161 1.255 . S
Cd157 O156 2.385 . S
Cd157 O158 2.317 . S
O158 Cd157 2.317 . S
O158 C159 1.232 . S
C159 O158 1.232 . S
C159 O160 1.218 . S
O160 C159 1.218 . S
C161 O154 1.275 . S
C161 O156 1.255 . S
C162 O163 1.258 . S
C162 O164 1.256 . S
O163 Cd155 2.381 . S
O163 C162 1.258 . S
O164 Cd155 2.378 . S
O164 C162 1.256 . S
O165 Cd166 2.300 . S
O165 C172 1.275 . S
Cd166 O165 2.300 . S
Cd166 O174 2.381 . S
Cd166 O175 2.378 . S
O167 Cd168 2.385 . S
O167 C172 1.255 . S
Cd168 O167 2.385 . S
Cd168 O169 2.317 . S
O169 Cd168 2.317 . S
O169 C170 1.232 . S
C170 O169 1.232 . S
C170 O171 1.218 . S
O171 C170 1.218 . S
C172 O165 1.275 . S
C172 O167 1.255 . S
C173 O174 1.258 . S
C173 O175 1.256 . S
O174 Cd166 2.381 . S
O174 C173 1.258 . S
O175 Cd166 2.378 . S
O175 C173 1.256 . S
O176 Cd177 2.300 . S
O176 C183 1.275 . S
Cd177 O176 2.300 . S
Cd177 O185 2.381 . S
Cd177 O186 2.378 . S
O178 Cd179 2.385 . S
O178 C183 1.255 . S
Cd179 O178 2.385 . S
Cd179 O180 2.317 . S
O180 Cd179 2.317 . S
O180 C181 1.232 . S
C181 O180 1.232 . S
C181 O182 1.218 . S
O182 C181 1.218 . S
C183 O176 1.275 . S
C183 O178 1.255 . S
C184 O185 1.258 . S
C184 O186 1.256 . S
O185 Cd177 2.381 . S
O185 C184 1.258 . S
O186 Cd177 2.378 . S
O186 C184 1.256 . S
O187 Cd188 2.300 . S
O187 C194 1.275 . S
Cd188 O187 2.300 . S
Cd188 O196 2.381 . S
Cd188 O197 2.378 . S
O189 Cd190 2.385 . S
O189 C194 1.255 . S
Cd190 O189 2.385 . S
Cd190 O191 2.317 . S
O191 Cd190 2.317 . S
O191 C192 1.232 . S
C192 O191 1.232 . S
C192 O193 1.218 . S
O193 C192 1.218 . S
C194 O187 1.275 . S
C194 O189 1.255 . S
C195 O196 1.258 . S
C195 O197 1.256 . S
O196 Cd188 2.381 . S
O196 C195 1.258 . S
O197 Cd188 2.378 . S
O197 C195 1.256 . S
O198 Cd199 2.300 . S
O198 C205 1.275 . S
Cd199 O198 2.300 . S
Cd199 O207 2.381 . S
Cd199 O208 2.378 . S
O200 Cd201 2.385 . S
O200 C205 1.255 . S
Cd201 O200 2.385 . S
Cd201 O202 2.317 . S
O202 Cd201 2.317 . S
O202 C203 1.232 . S
C203 O202 1.232 . S
C203 O204 1.218 . S
O204 C203 1.218 . S
C205 O198 1.275 . S
C205 O200 1.255 . S
C206 O207 1.258 . S
C206 O208 1.256 . S
O207 Cd199 2.381 . S
O207 C206 1.258 . S
O208 Cd199 2.378 . S
O208 C206 1.256 . S
O209 Cd210 2.300 . S
O209 C216 1.275 . S
Cd210 O209 2.300 . S
Cd210 O218 2.381 . S
Cd210 O219 2.378 . S
O211 Cd212 2.385 1_545 S
O211 C216 1.255 . S
Cd212 O211 2.385 1_565 S
Cd212 O213 2.317 1_565 S
O213 Cd212 2.317 1_545 S
O213 C214 1.232 . S
C214 O213 1.232 . S
C214 O215 1.218 . S
O215 C214 1.218 . S
C216 O209 1.275 . S
C216 O211 1.255 . S
C217 O218 1.258 . S
C217 O219 1.256 . S
O218 Cd210 2.381 . S
O218 C217 1.258 . S
O219 Cd210 2.378 . S
O219 C217 1.256 . S
O220 Cd221 2.300 . S
O220 C227 1.275 . S
Cd221 O220 2.300 . S
Cd221 O229 2.381 . S
Cd221 O230 2.378 . S
O222 Cd223 2.385 . S
O222 C227 1.255 . S
Cd223 O222 2.385 . S
Cd223 O224 2.317 . S
O224 Cd223 2.317 . S
O224 C225 1.232 . S
C225 O224 1.232 . S
C225 O226 1.218 . S
O226 C225 1.218 . S
C227 O220 1.275 . S
C227 O222 1.255 . S
C228 O229 1.258 . S
C228 O230 1.256 . S
O229 Cd221 2.381 . S
O229 C228 1.258 . S
O230 Cd221 2.378 . S
O230 C228 1.256 . S
O231 Cd232 2.300 . S
O231 C238 1.275 . S
Cd232 O231 2.300 . S
Cd232 O240 2.381 . S
Cd232 O241 2.378 . S
O233 Cd234 2.385 . S
O233 C238 1.255 . S
Cd234 O233 2.385 . S
Cd234 O235 2.317 . S
O235 Cd234 2.317 . S
O235 C236 1.232 . S
C236 O235 1.232 . S
C236 O237 1.218 . S
O237 C236 1.218 . S
C238 O231 1.275 . S
C238 O233 1.255 . S
C239 O240 1.258 . S
C239 O241 1.256 . S
O240 Cd232 2.381 . S
O240 C239 1.258 . S
O241 Cd232 2.378 . S
O241 C239 1.256 . S
O242 Cd243 2.300 . S
O242 C249 1.275 . S
Cd243 O242 2.300 . S
Cd243 O251 2.381 . S
Cd243 O252 2.378 . S
O244 Cd245 2.385 . S
O244 C249 1.255 . S
Cd245 O244 2.385 . S
Cd245 O246 2.317 . S
O246 Cd245 2.317 . S
O246 C247 1.232 . S
C247 O246 1.232 . S
C247 O248 1.218 . S
O248 C247 1.218 . S
C249 O242 1.275 . S
C249 O244 1.255 . S
C250 O251 1.258 . S
C250 O252 1.256 . S
O251 Cd243 2.381 . S
O251 C250 1.258 . S
O252 Cd243 2.378 . S
O252 C250 1.256 . S
O253 Cd254 2.300 . S
O253 C260 1.275 . S
Cd254 O253 2.300 . S
Cd254 O262 2.381 . S
Cd254 O263 2.378 . S
O255 Cd256 2.385 . S
O255 C260 1.255 . S
Cd256 O255 2.385 . S
Cd256 O257 2.317 . S
O257 Cd256 2.317 . S
O257 C258 1.232 . S
C258 O257 1.232 . S
C258 O259 1.218 . S
O259 C258 1.218 . S
C260 O253 1.275 . S
C260 O255 1.255 . S
C261 O262 1.258 . S
C261 O263 1.256 . S
O262 Cd254 2.381 . S
O262 C261 1.258 . S
O263 Cd254 2.378 . S
O263 C261 1.256 . S
H264 C270 0.930 . S
H265 C273 0.930 . S
H266 C274 0.930 . S
H267 C275 0.930 . S
H268 C278 0.930 . S
H269 C279 0.930 . S
C270 H264 0.930 . S
C270 C271 1.355 . S
C270 C272 1.415 . S
C271 C270 1.355 . S
C271 C273 1.419 . S
C272 C270 1.415 . S
C272 C277 1.425 . S
C272 C279 1.409 . S
C273 H265 0.930 . S
C273 C271 1.419 . S
C273 C274 1.362 . S
C274 H266 0.930 . S
C274 C273 1.362 . S
C274 C277 1.409 . S
C275 H267 0.930 . S
C275 C276 1.355 . S
C275 C277 1.415 . S
C276 C275 1.355 . S
C276 C278 1.419 . S
C277 C272 1.425 . S
C277 C274 1.409 . S
C277 C275 1.415 . S
C278 H268 0.930 . S
C278 C276 1.419 . S
C278 C279 1.362 . S
C279 H269 0.930 . S
C279 C272 1.409 . S
C279 C278 1.362 . S
H280 C286 0.930 . S
H281 C289 0.930 . S
H282 C290 0.930 . S
H283 C291 0.930 . S
H284 C294 0.930 . S
H285 C295 0.930 . S
C286 H280 0.930 . S
C286 C287 1.355 . S
C286 C288 1.415 . S
C287 C286 1.355 . S
C287 C289 1.419 . S
C288 C286 1.415 . S
C288 C293 1.425 . S
C288 C295 1.409 1_655 S
C289 H281 0.930 . S
C289 C287 1.419 . S
C289 C290 1.362 . S
C290 H282 0.930 . S
C290 C289 1.362 . S
C290 C293 1.409 . S
C291 H283 0.930 . S
C291 C292 1.355 1_655 S
C291 C293 1.415 . S
C292 C291 1.355 1_455 S
C292 C294 1.419 . S
C293 C288 1.425 . S
C293 C290 1.409 . S
C293 C291 1.415 . S
C294 H284 0.930 . S
C294 C292 1.419 . S
C294 C295 1.362 . S
C295 H285 0.930 . S
C295 C288 1.409 1_455 S
C295 C294 1.362 . S
H296 C302 0.930 . S
H297 C305 0.930 . S
H298 C306 0.930 . S
H299 C307 0.930 . S
H300 C310 0.930 . S
H301 C311 0.930 . S
C302 H296 0.930 . S
C302 C303 1.327 1_565 S
C302 C304 1.415 . S
C303 C302 1.327 1_545 S
C303 C305 1.421 . S
C304 C302 1.415 . S
C304 C309 1.418 1_655 S
C304 C311 1.409 . S
C305 H297 0.930 . S
C305 C303 1.421 . S
C305 C306 1.362 1_645 S
C306 H298 0.930 . S
C306 C305 1.362 1_465 S
C306 C309 1.409 . S
C307 H299 0.930 . S
C307 C308 1.355 . S
C307 C309 1.421 . S
C308 C307 1.355 . S
C308 C310 1.419 1_455 S
C309 C304 1.418 1_455 S
C309 C306 1.409 . S
C309 C307 1.421 . S
C310 H300 0.930 . S
C310 C308 1.419 1_655 S
C310 C311 1.362 . S
C311 H301 0.930 . S
C311 C304 1.409 . S
C311 C310 1.362 . S
H312 C318 0.930 . S
H313 C321 0.930 . S
H314 C322 0.930 . S
H315 C323 0.940 . S
H316 C326 0.930 . S
H317 C327 0.930 . S
C318 H312 0.930 . S
C318 C319 1.355 . S
C318 C320 1.415 . S
C319 C318 1.355 . S
C319 C321 1.419 . S
C320 C318 1.415 . S
C320 C325 1.425 . S
C320 C327 1.409 1_565 S
C321 H313 0.930 . S
C321 C319 1.419 . S
C321 C322 1.362 . S
C322 H314 0.930 . S
C322 C321 1.362 . S
C322 C325 1.409 . S
C323 H315 0.940 . S
C323 C324 1.355 . S
C323 C325 1.415 1_545 S
C324 C323 1.355 . S
C324 C326 1.419 . S
C325 C320 1.425 . S
C325 C322 1.409 . S
C325 C323 1.415 1_565 S
C326 H316 0.930 . S
C326 C324 1.419 . S
C326 C327 1.362 . S
C327 H317 0.930 . S
C327 C320 1.409 1_545 S
C327 C326 1.362 . S
H328 C334 0.930 . S
H329 C337 0.930 . S
H330 C338 0.930 . S
H331 C339 0.930 . S
H332 C342 0.930 . S
H333 C343 0.930 . S
C334 H328 0.930 . S
C334 C335 1.355 . S
C334 C336 1.415 . S
C335 C334 1.355 . S
C335 C337 1.419 . S
C336 C334 1.415 . S
C336 C341 1.425 . S
C336 C343 1.409 . S
C337 H329 0.930 . S
C337 C335 1.419 . S
C337 C338 1.362 . S
C338 H330 0.930 . S
C338 C337 1.362 . S
C338 C341 1.409 . S
C339 H331 0.930 . S
C339 C340 1.355 . S
C339 C341 1.415 . S
C340 C339 1.355 . S
C340 C342 1.419 . S
C341 C336 1.425 . S
C341 C338 1.409 . S
C341 C339 1.415 . S
C342 H332 0.930 . S
C342 C340 1.419 . S
C342 C343 1.362 . S
C343 H333 0.930 . S
C343 C336 1.409 . S
C343 C342 1.362 . S
H344 C350 0.930 . S
H345 C353 0.930 . S
H346 C354 0.930 . S
H347 C355 0.930 . S
H348 C358 0.930 . S
H349 C359 0.930 1_455 S
C350 H344 0.930 . S
C350 C351 1.355 . S
C350 C352 1.415 1_455 S
C351 C350 1.355 . S
C351 C353 1.419 1_455 S
C352 C350 1.415 1_655 S
C352 C357 1.425 . S
C352 C359 1.409 . S
C353 H345 0.930 . S
C353 C351 1.419 1_655 S
C353 C354 1.362 . S
C354 H346 0.930 . S
C354 C353 1.362 . S
C354 C357 1.409 . S
C355 H347 0.930 . S
C355 C356 1.355 . S
C355 C357 1.415 . S
C356 C355 1.355 . S
C356 C358 1.419 . S
C357 C352 1.425 . S
C357 C354 1.409 . S
C357 C355 1.415 . S
C358 H348 0.930 . S
C358 C356 1.419 . S
C358 C359 1.362 . S
C359 H349 0.930 1_655 S
C359 C352 1.409 . S
C359 C358 1.362 . S
H360 C366 0.930 . S
H361 C369 0.930 . S
H362 C370 0.930 . S
H363 C371 0.930 . S
H364 C374 0.930 . S
H365 C375 0.930 . S
C366 H360 0.930 . S
C366 C367 1.355 . S
C366 C368 1.415 1_545 S
C367 C366 1.355 . S
C367 C369 1.419 . S
C368 C366 1.415 1_565 S
C368 C373 1.425 1_565 S
C368 C375 1.409 . S
C369 H361 0.930 . S
C369 C367 1.419 . S
C369 C370 1.362 . S
C370 H362 0.930 . S
C370 C369 1.362 . S
C370 C373 1.409 . S
C371 H363 0.930 . S
C371 C372 1.355 . S
C371 C373 1.415 1_565 S
C372 C371 1.355 . S
C372 C374 1.419 . S
C373 C368 1.425 1_545 S
C373 C370 1.409 . S
C373 C371 1.415 1_545 S
C374 H364 0.930 . S
C374 C372 1.419 . S
C374 C375 1.362 . S
C375 H365 0.930 . S
C375 C368 1.409 . S
C375 C374 1.362 . S
H376 C382 0.930 . S
H377 C385 0.930 . S
H378 C386 0.930 . S
H379 C387 0.930 . S
H380 C390 0.930 . S
H381 C391 0.930 . S
C382 H376 0.930 . S
C382 C383 1.355 . S
C382 C384 1.415 . S
C383 C382 1.355 . S
C383 C385 1.419 . S
C384 C382 1.415 . S
C384 C389 1.425 . S
C384 C391 1.409 . S
C385 H377 0.930 . S
C385 C383 1.419 . S
C385 C386 1.362 . S
C386 H378 0.930 . S
C386 C385 1.362 . S
C386 C389 1.409 . S
C387 H379 0.930 . S
C387 C388 1.355 . S
C387 C389 1.415 . S
C388 C387 1.355 . S
C388 C390 1.419 . S
C389 C384 1.425 . S
C389 C386 1.409 . S
C389 C387 1.415 . S
C390 H380 0.930 . S
C390 C388 1.419 . S
C390 C391 1.362 . S
C391 H381 0.930 . S
C391 C384 1.409 . S
C391 C390 1.362 . S
H392 C398 0.930 . S
H393 C401 0.930 . S
H394 C402 0.930 . S
H395 C403 0.930 . S
H396 C406 0.930 . S
H397 C407 0.930 . S
C398 H392 0.930 . S
C398 C399 1.355 1_565 S
C398 C400 1.415 . S
C399 C398 1.355 1_545 S
C399 C401 1.419 . S
C400 C398 1.415 . S
C400 C405 1.425 . S
C400 C407 1.409 . S
C401 H393 0.930 . S
C401 C399 1.419 . S
C401 C402 1.362 1_545 S
C402 H394 0.930 . S
C402 C401 1.362 1_565 S
C402 C405 1.409 . S
C403 H395 0.930 . S
C403 C404 1.355 . S
C403 C405 1.415 1_554 S
C404 C403 1.355 . S
C404 C406 1.419 . S
C405 C400 1.425 . S
C405 C402 1.409 . S
C405 C403 1.415 1_556 S
C406 H396 0.930 . S
C406 C404 1.419 . S
C406 C407 1.362 1_554 S
C407 H397 0.930 . S
C407 C400 1.409 . S
C407 C406 1.362 1_556 S
H408 C414 0.930 . S
H409 C417 0.930 . S
H410 C418 0.930 . S
H411 C419 0.930 . S
H412 C422 0.930 . S
H413 C423 0.930 . S
C414 H408 0.930 . S
C414 C415 1.355 . S
C414 C416 1.415 . S
C415 C414 1.355 . S
C415 C417 1.419 . S
C416 C414 1.415 . S
C416 C421 1.425 . S
C416 C423 1.409 1_556 S
C417 H409 0.930 . S
C417 C415 1.419 . S
C417 C418 1.362 . S
C418 H410 0.930 . S
C418 C417 1.362 . S
C418 C421 1.409 . S
C419 H411 0.930 . S
C419 C420 1.355 1_556 S
C419 C421 1.415 . S
C420 C419 1.355 1_554 S
C420 C422 1.419 . S
C421 C416 1.425 . S
C421 C418 1.409 . S
C421 C419 1.415 . S
C422 H412 0.930 . S
C422 C420 1.419 . S
C422 C423 1.362 . S
C423 H413 0.930 . S
C423 C416 1.409 1_554 S
C423 C422 1.362 . S
H424 C430 0.930 . S
H425 C433 0.930 . S
H426 C434 0.930 . S
H427 C435 0.930 . S
H428 C438 0.930 . S
H429 C439 0.930 . S
C430 H424 0.930 . S
C430 C431 1.355 . S
C430 C432 1.415 . S
C431 C430 1.355 . S
C431 C433 1.419 1_556 S
C432 C430 1.415 . S
C432 C437 1.425 . S
C432 C439 1.409 . S
C433 H425 0.930 . S
C433 C431 1.419 1_554 S
C433 C434 1.362 1_554 S
C434 H426 0.930 . S
C434 C433 1.362 1_556 S
C434 C437 1.409 . S
C435 H427 0.930 . S
C435 C436 1.355 . S
C435 C437 1.415 . S
C436 C435 1.355 . S
C436 C438 1.419 . S
C437 C432 1.425 . S
C437 C434 1.409 . S
C437 C435 1.415 . S
C438 H428 0.930 . S
C438 C436 1.419 . S
C438 C439 1.362 . S
C439 H429 0.930 . S
C439 C432 1.409 . S
C439 C438 1.362 . S
H440 C446 0.930 . S
H441 C449 0.930 . S
H442 C450 0.930 . S
H443 C451 0.930 . S
H444 C454 0.930 . S
H445 C455 0.930 . S
C446 H440 0.930 . S
C446 C447 1.355 . S
C446 C448 1.415 . S
C447 C446 1.355 . S
C447 C449 1.419 . S
C448 C446 1.415 . S
C448 C453 1.425 1_455 S
C448 C455 1.409 1_556 S
C449 H441 0.930 . S
C449 C447 1.419 . S
C449 C450 1.362 1_455 S
C450 H442 0.930 . S
C450 C449 1.362 1_655 S
C450 C453 1.409 . S
C451 H443 0.930 . S
C451 C452 1.355 1_556 S
C451 C453 1.415 . S
C452 C451 1.355 1_554 S
C452 C454 1.419 . S
C453 C448 1.425 1_655 S
C453 C450 1.409 . S
C453 C451 1.415 . S
C454 H444 0.930 . S
C454 C452 1.419 . S
C454 C455 1.362 1_655 S
C455 H445 0.930 . S
C455 C448 1.409 1_554 S
C455 C454 1.362 1_455 S
H456 C462 0.930 . S
H457 C465 0.930 . S
H458 C466 0.930 . S
H459 C467 0.930 . S
H460 C470 0.930 . S
H461 C471 0.930 . S
C462 H456 0.930 . S
C462 C463 1.355 . S
C462 C464 1.415 . S
C463 C462 1.355 . S
C463 C465 1.419 . S
C464 C462 1.415 . S
C464 C469 1.425 . S
C464 C471 1.409 . S
C465 H457 0.930 . S
C465 C463 1.419 . S
C465 C466 1.362 . S
C466 H458 0.930 . S
C466 C465 1.362 . S
C466 C469 1.409 . S
C467 H459 0.930 . S
C467 C468 1.355 . S
C467 C469 1.415 . S
C468 C467 1.355 . S
C468 C470 1.419 . S
C469 C464 1.425 . S
C469 C466 1.409 . S
C469 C467 1.415 . S
C470 H460 0.930 . S
C470 C468 1.419 . S
C470 C471 1.362 . S
C471 H461 0.930 . S
C471 C464 1.409 . S
C471 C470 1.362 . S
H472 C478 0.930 . S
H473 C481 0.930 . S
H474 C482 0.927 1_556 S
H475 C483 0.930 . S
H476 C486 0.930 . S
H477 C487 0.930 . S
C478 H472 0.930 . S
C478 C479 1.355 . S
C478 C480 1.415 . S
C479 C478 1.355 . S
C479 C481 1.419 . S
C480 C478 1.415 . S
C480 C485 1.425 . S
C480 C487 1.409 . S
C481 H473 0.930 . S
C481 C479 1.419 . S
C481 C482 1.362 . S
C482 H474 0.927 1_554 S
C482 C481 1.362 . S
C482 C485 1.409 . S
C483 H475 0.930 . S
C483 C484 1.355 . S
C483 C485 1.415 . S
C484 C483 1.355 . S
C484 C486 1.419 . S
C485 C480 1.425 . S
C485 C482 1.409 . S
C485 C483 1.415 . S
C486 H476 0.930 . S
C486 C484 1.419 . S
C486 C487 1.362 . S
C487 H477 0.930 . S
C487 C480 1.409 . S
C487 C486 1.362 . S
H488 C494 0.930 . S
H489 C497 0.930 . S
H490 C498 0.930 . S
H491 C499 0.930 . S
H492 C502 0.930 . S
H493 C503 0.930 . S
C494 H488 0.930 . S
C494 C495 1.355 . S
C494 C496 1.415 . S
C495 C494 1.355 . S
C495 C497 1.419 . S
C496 C494 1.415 . S
C496 C501 1.425 . S
C496 C503 1.409 . S
C497 H489 0.930 . S
C497 C495 1.419 . S
C497 C498 1.362 . S
C498 H490 0.930 . S
C498 C497 1.362 . S
C498 C501 1.409 . S
C499 H491 0.930 . S
C499 C500 1.355 . S
C499 C501 1.415 . S
C500 C499 1.355 . S
C500 C502 1.419 . S
C501 C496 1.425 . S
C501 C498 1.409 . S
C501 C499 1.415 . S
C502 H492 0.930 . S
C502 C500 1.419 . S
C502 C503 1.362 . S
C503 H493 0.930 . S
C503 C496 1.409 . S
C503 C502 1.362 . S
H504 C510 0.930 . S
H505 C513 0.930 . S
H506 C514 0.930 . S
H507 C515 0.930 . S
H508 C518 0.930 . S
H509 C519 0.930 . S
C510 H504 0.930 . S
C510 C511 1.355 . S
C510 C512 1.415 . S
C511 C510 1.355 . S
C511 C513 1.419 . S
C512 C510 1.415 . S
C512 C517 1.425 . S
C512 C519 1.409 . S
C513 H505 0.930 . S
C513 C511 1.419 . S
C513 C514 1.362 . S
C514 H506 0.930 . S
C514 C513 1.362 . S
C514 C517 1.409 . S
C515 H507 0.930 . S
C515 C516 1.355 . S
C515 C517 1.415 . S
C516 C515 1.355 . S
C516 C518 1.419 . S
C517 C512 1.425 . S
C517 C514 1.409 . S
C517 C515 1.415 . S
C518 H508 0.930 . S
C518 C516 1.419 . S
C518 C519 1.362 . S
C519 H509 0.930 . S
C519 C512 1.409 . S
C519 C518 1.362 . S
H520 C526 0.930 . S
H521 C529 0.930 . S
H522 C530 0.930 . S
H523 C531 0.930 . S
H524 C534 0.930 . S
H525 C535 0.930 . S
C526 H520 0.930 . S
C526 C527 1.355 . S
C526 C528 1.415 . S
C527 C526 1.355 . S
C527 C529 1.419 . S
C528 C526 1.415 . S
C528 C533 1.425 . S
C528 C535 1.409 . S
C529 H521 0.930 . S
C529 C527 1.419 . S
C529 C530 1.362 . S
C530 H522 0.930 . S
C530 C529 1.362 . S
C530 C533 1.409 . S
C531 H523 0.930 . S
C531 C532 1.355 . S
C531 C533 1.415 . S
C532 C531 1.355 . S
C532 C534 1.419 . S
C533 C528 1.425 . S
C533 C530 1.409 . S
C533 C531 1.415 . S
C534 H524 0.930 . S
C534 C532 1.419 . S
C534 C535 1.362 . S
C535 H525 0.930 . S
C535 C528 1.409 . S
C535 C534 1.362 . S
H536 C542 0.930 . S
H537 C545 0.930 . S
H538 C546 0.930 . S
H539 C547 0.930 . S
H540 C550 0.930 . S
H541 C551 0.930 . S
C542 H536 0.930 . S
C542 C543 1.355 . S
C542 C544 1.415 . S
C543 C542 1.355 . S
C543 C545 1.419 . S
C544 C542 1.415 . S
C544 C549 1.425 . S
C544 C551 1.409 . S
C545 H537 0.930 . S
C545 C543 1.419 . S
C545 C546 1.362 . S
C546 H538 0.930 . S
C546 C545 1.362 . S
C546 C549 1.409 . S
C547 H539 0.930 . S
C547 C548 1.355 . S
C547 C549 1.415 . S
C548 C547 1.355 . S
C548 C550 1.419 . S
C549 C544 1.425 . S
C549 C546 1.409 . S
C549 C547 1.415 . S
C550 H540 0.930 . S
C550 C548 1.419 . S
C550 C551 1.362 . S
C551 H541 0.930 . S
C551 C544 1.409 . S
C551 C550 1.362 . S
H552 C558 0.930 . S
H553 C561 0.930 . S
H554 C562 0.930 . S
H555 C563 0.930 . S
H556 C566 0.930 . S
H557 C567 0.930 . S
C558 H552 0.930 . S
C558 C559 1.355 . S
C558 C560 1.415 . S
C559 C558 1.355 . S
C559 C561 1.419 . S
C560 C558 1.415 . S
C560 C565 1.425 . S
C560 C567 1.409 . S
C561 H553 0.930 . S
C561 C559 1.419 . S
C561 C562 1.362 . S
C562 H554 0.930 . S
C562 C561 1.362 . S
C562 C565 1.409 . S
C563 H555 0.930 . S
C563 C564 1.355 . S
C563 C565 1.415 . S
C564 C563 1.355 . S
C564 C566 1.419 . S
C565 C560 1.425 . S
C565 C562 1.409 . S
C565 C563 1.415 . S
C566 H556 0.930 . S
C566 C564 1.419 . S
C566 C567 1.362 . S
C567 H557 0.930 . S
C567 C560 1.409 . S
C567 C566 1.362 . S
H568 C574 0.930 . S
H569 C577 0.930 . S
H570 C578 0.930 . S
H571 C579 0.930 . S
H572 C582 0.930 . S
H573 C583 0.930 . S
C574 H568 0.930 . S
C574 C575 1.355 . S
C574 C576 1.415 . S
C575 C574 1.355 . S
C575 C577 1.419 . S
C576 C574 1.415 . S
C576 C581 1.425 . S
C576 C583 1.409 . S
C577 H569 0.930 . S
C577 C575 1.419 . S
C577 C578 1.362 . S
C578 H570 0.930 . S
C578 C577 1.362 . S
C578 C581 1.409 . S
C579 H571 0.930 . S
C579 C580 1.355 . S
C579 C581 1.415 . S
C580 C579 1.355 . S
C580 C582 1.419 . S
C581 C576 1.425 . S
C581 C578 1.409 . S
C581 C579 1.415 . S
C582 H572 0.930 . S
C582 C580 1.419 . S
C582 C583 1.362 . S
C583 H573 0.930 . S
C583 C576 1.409 . S
C583 C582 1.362 . S
H584 C590 0.930 . S
H585 C593 0.930 . S
H586 C594 0.930 . S
H587 C595 0.930 . S
H588 C598 0.930 . S
H589 C599 0.930 . S
C590 H584 0.930 . S
C590 C591 1.355 . S
C590 C592 1.415 . S
C591 C590 1.355 . S
C591 C593 1.419 . S
C592 C590 1.415 . S
C592 C597 1.425 . S
C592 C599 1.409 . S
C593 H585 0.930 . S
C593 C591 1.419 . S
C593 C594 1.362 . S
C594 H586 0.930 . S
C594 C593 1.362 . S
C594 C597 1.409 . S
C595 H587 0.930 . S
C595 C596 1.355 . S
C595 C597 1.415 . S
C596 C595 1.355 . S
C596 C598 1.419 . S
C597 C592 1.425 . S
C597 C594 1.409 . S
C597 C595 1.415 . S
C598 H588 0.930 . S
C598 C596 1.419 . S
C598 C599 1.362 . S
C599 H589 0.930 . S
C599 C592 1.409 . S
C599 C598 1.362 . S
H600 C606 0.930 . S
H601 C609 0.930 . S
H602 C610 0.930 . S
H603 C611 0.930 . S
H604 C614 0.930 . S
H605 C615 0.930 . S
C606 H600 0.930 . S
C606 C607 1.355 . S
C606 C608 1.415 . S
C607 C606 1.355 . S
C607 C609 1.419 . S
C608 C606 1.415 . S
C608 C613 1.425 . S
C608 C615 1.409 . S
C609 H601 0.930 . S
C609 C607 1.419 . S
C609 C610 1.362 . S
C610 H602 0.930 . S
C610 C609 1.362 . S
C610 C613 1.409 . S
C611 H603 0.930 . S
C611 C612 1.355 . S
C611 C613 1.415 . S
C612 C611 1.355 . S
C612 C614 1.419 . S
C613 C608 1.425 . S
C613 C610 1.409 . S
C613 C611 1.415 . S
C614 H604 0.930 . S
C614 C612 1.419 . S
C614 C615 1.362 . S
C615 H605 0.930 . S
C615 C608 1.409 . S
C615 C614 1.362 . S
H616 C622 0.930 . S
H617 C625 0.930 . S
H618 C626 0.930 . S
H619 C627 0.930 . S
H620 C630 0.930 . S
H621 C631 0.930 . S
C622 H616 0.930 . S
C622 C623 1.355 . S
C622 C624 1.415 . S
C623 C622 1.355 . S
C623 C625 1.419 . S
C624 C622 1.415 . S
C624 C629 1.425 . S
C624 C631 1.409 . S
C625 H617 0.930 . S
C625 C623 1.419 . S
C625 C626 1.362 . S
C626 H618 0.930 . S
C626 C625 1.362 . S
C626 C629 1.409 . S
C627 H619 0.930 . S
C627 C628 1.355 . S
C627 C629 1.415 . S
C628 C627 1.355 . S
C628 C630 1.419 . S
C629 C624 1.425 . S
C629 C626 1.409 . S
C629 C627 1.415 . S
C630 H620 0.930 . S
C630 C628 1.419 . S
C630 C631 1.362 . S
C631 H621 0.930 . S
C631 C624 1.409 . S
C631 C630 1.362 . S
H632 C638 0.930 . S
H633 C641 0.930 . S
H634 C642 0.930 . S
H635 C643 0.930 . S
H636 C646 0.930 . S
H637 C647 0.930 . S
C638 H632 0.930 . S
C638 C639 1.355 . S
C638 C640 1.415 . S
C639 C638 1.355 . S
C639 C641 1.419 . S
C640 C638 1.415 . S
C640 C645 1.425 . S
C640 C647 1.409 . S
C641 H633 0.930 . S
C641 C639 1.419 . S
C641 C642 1.362 . S
C642 H634 0.930 . S
C642 C641 1.362 . S
C642 C645 1.409 . S
C643 H635 0.930 . S
C643 C644 1.355 . S
C643 C645 1.415 . S
C644 C643 1.355 . S
C644 C646 1.419 . S
C645 C640 1.425 . S
C645 C642 1.409 . S
C645 C643 1.415 . S
C646 H636 0.930 . S
C646 C644 1.419 . S
C646 C647 1.362 . S
C647 H637 0.930 . S
C647 C640 1.409 . S
C647 C646 1.362 . S
H648 C654 0.930 . S
H649 C657 0.930 . S
H650 C658 0.930 . S
H651 C659 0.930 . S
H652 C662 0.930 . S
H653 C663 0.930 . S
C654 H648 0.930 . S
C654 C655 1.355 . S
C654 C656 1.415 . S
C655 C654 1.355 . S
C655 C657 1.419 . S
C656 C654 1.415 . S
C656 C661 1.425 . S
C656 C663 1.409 . S
C657 H649 0.930 . S
C657 C655 1.419 . S
C657 C658 1.362 . S
C658 H650 0.930 . S
C658 C657 1.362 . S
C658 C661 1.409 . S
C659 H651 0.930 . S
C659 C660 1.355 . S
C659 C661 1.415 . S
C660 C659 1.355 . S
C660 C662 1.419 . S
C661 C656 1.425 . S
C661 C658 1.409 . S
C661 C659 1.415 . S
C662 H652 0.930 . S
C662 C660 1.419 . S
C662 C663 1.362 . S
C663 H653 0.930 . S
C663 C656 1.409 . S
C663 C662 1.362 . S
H664 C670 0.930 . S
H665 C673 0.930 . S
H666 C674 0.930 . S
H667 C675 0.930 . S
H668 C678 0.930 . S
H669 C679 0.930 . S
C670 H664 0.930 . S
C670 C671 1.355 . S
C670 C672 1.415 . S
C671 C670 1.355 . S
C671 C673 1.419 . S
C672 C670 1.415 . S
C672 C677 1.425 . S
C672 C679 1.409 . S
C673 H665 0.930 . S
C673 C671 1.419 . S
C673 C674 1.362 . S
C674 H666 0.930 . S
C674 C673 1.362 . S
C674 C677 1.409 . S
C675 H667 0.930 . S
C675 C676 1.355 . S
C675 C677 1.415 . S
C676 C675 1.355 . S
C676 C678 1.419 . S
C677 C672 1.425 . S
C677 C674 1.409 . S
C677 C675 1.415 . S
C678 H668 0.930 . S
C678 C676 1.419 . S
C678 C679 1.362 . S
C679 H669 0.930 . S
C679 C672 1.409 . S
C679 C678 1.362 . S
H680 C686 0.930 . S
H681 C689 0.930 . S
H682 C690 0.930 . S
H683 C691 0.930 . S
H684 C694 0.930 . S
H685 C695 0.930 . S
C686 H680 0.930 . S
C686 C687 1.355 . S
C686 C688 1.415 . S
C687 C686 1.355 . S
C687 C689 1.419 . S
C688 C686 1.415 . S
C688 C693 1.425 . S
C688 C695 1.409 . S
C689 H681 0.930 . S
C689 C687 1.419 . S
C689 C690 1.362 . S
C690 H682 0.930 . S
C690 C689 1.362 . S
C690 C693 1.409 . S
C691 H683 0.930 . S
C691 C692 1.355 . S
C691 C693 1.415 . S
C692 C691 1.355 . S
C692 C694 1.419 . S
C693 C688 1.425 . S
C693 C690 1.409 . S
C693 C691 1.415 . S
C694 H684 0.930 . S
C694 C692 1.419 . S
C694 C695 1.362 . S
C695 H685 0.930 . S
C695 C688 1.409 . S
C695 C694 1.362 . S
H696 C702 0.930 . S
H697 C705 0.930 . S
H698 C706 0.930 . S
H699 C707 0.930 . S
H700 C710 0.930 . S
H701 C711 0.930 . S
C702 H696 0.930 . S
C702 C703 1.355 . S
C702 C704 1.415 . S
C703 C702 1.355 . S
C703 C705 1.419 . S
C704 C702 1.415 . S
C704 C709 1.425 . S
C704 C711 1.409 . S
C705 H697 0.930 . S
C705 C703 1.419 . S
C705 C706 1.362 . S
C706 H698 0.930 . S
C706 C705 1.362 . S
C706 C709 1.409 . S
C707 H699 0.930 . S
C707 C708 1.355 . S
C707 C709 1.415 . S
C708 C707 1.355 . S
C708 C710 1.419 . S
C709 C704 1.425 . S
C709 C706 1.409 . S
C709 C707 1.415 . S
C710 H700 0.930 . S
C710 C708 1.419 . S
C710 C711 1.362 . S
C711 H701 0.930 . S
C711 C704 1.409 . S
C711 C710 1.362 . S
H712 C718 0.930 . S
H713 C721 0.930 . S
H714 C722 0.930 . S
H715 C723 0.930 . S
H716 C726 0.930 . S
H717 C727 0.930 . S
C718 H712 0.930 . S
C718 C719 1.355 . S
C718 C720 1.415 . S
C719 C718 1.355 . S
C719 C721 1.419 . S
C720 C718 1.415 . S
C720 C725 1.425 . S
C720 C727 1.409 . S
C721 H713 0.930 . S
C721 C719 1.419 . S
C721 C722 1.362 . S
C722 H714 0.930 . S
C722 C721 1.362 . S
C722 C725 1.409 . S
C723 H715 0.930 . S
C723 C724 1.355 . S
C723 C725 1.415 . S
C724 C723 1.355 . S
C724 C726 1.419 . S
C725 C720 1.425 . S
C725 C722 1.409 . S
C725 C723 1.415 . S
C726 H716 0.930 . S
C726 C724 1.419 . S
C726 C727 1.362 . S
C727 H717 0.930 . S
C727 C720 1.409 . S
C727 C726 1.362 . S
H728 C734 0.930 . S
H729 C737 0.930 . S
H730 C738 0.930 . S
H731 C739 0.930 . S
H732 C742 0.930 . S
H733 C743 0.930 . S
C734 H728 0.930 . S
C734 C735 1.355 . S
C734 C736 1.415 . S
C735 C734 1.355 . S
C735 C737 1.419 . S
C736 C734 1.415 . S
C736 C741 1.425 . S
C736 C743 1.409 . S
C737 H729 0.930 . S
C737 C735 1.419 . S
C737 C738 1.362 . S
C738 H730 0.930 . S
C738 C737 1.362 . S
C738 C741 1.409 . S
C739 H731 0.930 . S
C739 C740 1.355 . S
C739 C741 1.415 . S
C740 C739 1.355 . S
C740 C742 1.419 . S
C741 C736 1.425 . S
C741 C738 1.409 . S
C741 C739 1.415 . S
C742 H732 0.930 . S
C742 C740 1.419 . S
C742 C743 1.362 . S
C743 H733 0.930 . S
C743 C736 1.409 . S
C743 C742 1.362 . S
H744 C750 0.930 . S
H745 C753 0.930 . S
H746 C754 0.930 . S
H747 C755 0.930 . S
H748 C758 0.930 . S
H749 C759 0.930 . S
C750 H744 0.930 . S
C750 C751 1.355 . S
C750 C752 1.415 . S
C751 C750 1.355 . S
C751 C753 1.419 . S
C752 C750 1.415 . S
C752 C757 1.425 . S
C752 C759 1.409 . S
C753 H745 0.930 . S
C753 C751 1.419 . S
C753 C754 1.362 . S
C754 H746 0.930 . S
C754 C753 1.362 . S
C754 C757 1.409 . S
C755 H747 0.930 . S
C755 C756 1.355 . S
C755 C757 1.415 . S
C756 C755 1.355 . S
C756 C758 1.419 . S
C757 C752 1.425 . S
C757 C754 1.409 . S
C757 C755 1.415 . S
C758 H748 0.930 . S
C758 C756 1.419 . S
C758 C759 1.362 . S
C759 H749 0.930 . S
C759 C752 1.409 . S
C759 C758 1.362 . S
H760 C766 0.930 . S
H761 C769 0.930 . S
H762 C770 0.930 . S
H763 C771 0.930 . S
H764 C774 0.930 . S
H765 C775 0.930 . S
C766 H760 0.930 . S
C766 C767 1.355 . S
C766 C768 1.415 . S
C767 C766 1.355 . S
C767 C769 1.419 . S
C768 C766 1.415 . S
C768 C773 1.425 . S
C768 C775 1.409 . S
C769 H761 0.930 . S
C769 C767 1.419 . S
C769 C770 1.362 . S
C770 H762 0.930 . S
C770 C769 1.362 . S
C770 C773 1.409 . S
C771 H763 0.930 . S
C771 C772 1.355 . S
C771 C773 1.415 . S
C772 C771 1.355 . S
C772 C774 1.419 . S
C773 C768 1.425 . S
C773 C770 1.409 . S
C773 C771 1.415 . S
C774 H764 0.930 . S
C774 C772 1.419 . S
C774 C775 1.362 . S
C775 H765 0.930 . S
C775 C768 1.409 . S
C775 C774 1.362 . S
H776 C782 0.930 . S
H777 C785 0.930 . S
H778 C786 0.930 . S
H779 C787 0.930 . S
H780 C790 0.930 . S
H781 C791 0.930 . S
C782 H776 0.930 . S
C782 C783 1.355 . S
C782 C784 1.415 . S
C783 C782 1.355 . S
C783 C785 1.419 . S
C784 C782 1.415 . S
C784 C789 1.425 . S
C784 C791 1.409 . S
C785 H777 0.930 . S
C785 C783 1.419 . S
C785 C786 1.362 . S
C786 H778 0.930 . S
C786 C785 1.362 . S
C786 C789 1.409 . S
C787 H779 0.930 . S
C787 C788 1.355 . S
C787 C789 1.415 . S
C788 C787 1.355 . S
C788 C790 1.419 . S
C789 C784 1.425 . S
C789 C786 1.409 . S
C789 C787 1.415 . S
C790 H780 0.930 . S
C790 C788 1.419 . S
C790 C791 1.362 . S
C791 H781 0.930 . S
C791 C784 1.409 . S
C791 C790 1.362 . S
H792 C798 0.930 . S
H793 C801 0.930 . S
H794 C802 0.930 . S
H795 C803 0.930 . S
H796 C806 0.930 . S
H797 C807 0.930 . S
C798 H792 0.930 . S
C798 C799 1.355 . S
C798 C800 1.415 . S
C799 C798 1.355 . S
C799 C801 1.419 . S
C800 C798 1.415 . S
C800 C805 1.425 . S
C800 C807 1.409 . S
C801 H793 0.930 . S
C801 C799 1.419 . S
C801 C802 1.362 . S
C802 H794 0.930 . S
C802 C801 1.362 . S
C802 C805 1.409 . S
C803 H795 0.930 . S
C803 C804 1.355 . S
C803 C805 1.415 . S
C804 C803 1.355 . S
C804 C806 1.419 . S
C805 C800 1.425 . S
C805 C802 1.409 . S
C805 C803 1.415 . S
C806 H796 0.930 . S
C806 C804 1.419 . S
C806 C807 1.362 . S
C807 H797 0.930 . S
C807 C800 1.409 . S
C807 C806 1.362 . S
H808 C814 0.930 . S
H809 C817 0.930 . S
H810 C818 0.930 . S
H811 C819 0.930 . S
H812 C822 0.930 . S
H813 C823 0.930 . S
C814 H808 0.930 . S
C814 C815 1.355 . S
C814 C816 1.415 . S
C815 C814 1.355 . S
C815 C817 1.419 . S
C816 C814 1.415 . S
C816 C821 1.425 . S
C816 C823 1.409 . S
C817 H809 0.930 . S
C817 C815 1.419 . S
C817 C818 1.362 . S
C818 H810 0.930 . S
C818 C817 1.362 . S
C818 C821 1.409 . S
C819 H811 0.930 . S
C819 C820 1.355 . S
C819 C821 1.415 . S
C820 C819 1.355 . S
C820 C822 1.419 . S
C821 C816 1.425 . S
C821 C818 1.409 . S
C821 C819 1.415 . S
C822 H812 0.930 . S
C822 C820 1.419 . S
C822 C823 1.362 . S
C823 H813 0.930 . S
C823 C816 1.409 . S
C823 C822 1.362 . S
H824 C830 0.930 . S
H825 C833 0.930 . S
H826 C834 0.930 . S
H827 C835 0.930 . S
H828 C838 0.930 . S
H829 C839 0.930 . S
C830 H824 0.930 . S
C830 C831 1.355 . S
C830 C832 1.415 . S
C831 C830 1.355 . S
C831 C833 1.419 . S
C832 C830 1.415 . S
C832 C837 1.425 . S
C832 C839 1.409 . S
C833 H825 0.930 . S
C833 C831 1.419 . S
C833 C834 1.362 . S
C834 H826 0.930 . S
C834 C833 1.362 . S
C834 C837 1.409 . S
C835 H827 0.930 . S
C835 C836 1.355 . S
C835 C837 1.415 . S
C836 C835 1.355 . S
C836 C838 1.419 . S
C837 C832 1.425 . S
C837 C834 1.409 . S
C837 C835 1.415 . S
C838 H828 0.930 . S
C838 C836 1.419 . S
C838 C839 1.362 . S
C839 H829 0.930 . S
C839 C832 1.409 . S
C839 C838 1.362 . S
C271 C38 1.280 . S
C276 C7 1.634 . S
C287 C18 1.421 . S
C292 C5 1.228 . S
C303 C16 1.394 . S
C308 C27 1.403 . S
C319 C29 1.592 . S
C324 C40 1.573 . S
C335 C106 1.454 . S
C340 C49 1.379 . S
C351 C60 1.414 . S
C356 C117 1.439 . S
C367 C51 1.484 . S
C372 C126 1.308 . S
C383 C62 1.592 . S
C388 C93 1.514 . S
C399 C71 1.250 . S
C404 C128 1.457 . S
C415 C84 1.598 . S
C420 C95 1.627 . S
C431 C104 1.374 1_556 S
C436 C73 1.442 . S
C447 C82 1.304 . S
C452 C115 1.141 . S
C463 C139 1.596 . S
C468 C170 1.287 . S
C479 C150 1.431 . S
C484 C137 1.347 . S
C495 C159 1.459 . S
C500 C148 1.456 . S
C511 C172 1.538 . S
C516 C161 1.627 . S
C527 C238 1.490 . S
C532 C181 1.293 . S
C543 C192 1.385 . S
C548 C249 1.407 . S
C559 C258 1.345 . S
C564 C183 1.433 . S
C575 C225 1.506 . S
C580 C194 1.582 . S
C591 C260 1.484 . S
C596 C203 1.309 . S
C607 C216 1.630 . S
C612 C227 1.590 . S
C623 C205 1.455 . S
C628 C236 1.280 . S
C639 C247 1.180 . S
C644 C214 1.236 . S
C655 C8 1.502 . S
C660 C261 1.495 . S
C671 C228 1.561 . S
C676 C19 1.560 . S
C687 C30 1.534 . S
C692 C239 1.550 . S
C703 C250 1.541 . S
C708 C41 1.549 . S
C719 C52 1.512 . S
C724 C217 1.493 . S
C735 C63 1.521 . S
C740 C206 1.520 . S
C751 C74 1.539 . S
C756 C195 1.526 . S
C767 C184 1.490 . S
C772 C85 1.507 . S
C783 C96 1.559 . S
C788 C151 1.562 . S
C799 C162 1.555 . S
C804 C107 1.548 . S
C815 C118 1.513 . S
C820 C173 1.495 . S
C831 C140 1.484 . S
C836 C129 1.499 . S
