# Generated by pormake.
# Topology uoc, (4)-cn, num edge types: 1
# Building blocks:
#     Node 0, Type 0, BuildingBlock: NAHDIM_clean_sbu_0, # of connection points: 4
#     Node 1, Type 0, BuildingBlock: NAHDIM_clean_sbu_0, # of connection points: 4
#     Node 2, Type 0, BuildingBlock: NAHDIM_clean_sbu_0, # of connection points: 4
#     Node 3, Type 0, BuildingBlock: NAHDIM_clean_sbu_0, # of connection points: 4
#     Node 4, Type 0, BuildingBlock: NAHDIM_clean_sbu_0, # of connection points: 4
#     Node 5, Type 0, BuildingBlock: NAHDIM_clean_sbu_0, # of connection points: 4
#     Node 6, Type 0, BuildingBlock: NAHDIM_clean_sbu_0, # of connection points: 4
#     Node 7, Type 0, BuildingBlock: NAHDIM_clean_sbu_0, # of connection points: 4
#     Edge 8, Type (0, 0), BuildingBlock: XUDNAN_clean_linker_2, # of connection points: 2
#     Edge 9, Type (0, 0), BuildingBlock: XUDNAN_clean_linker_2, # of connection points: 2
#     Edge 10, Type (0, 0), BuildingBlock: XUDNAN_clean_linker_2, # of connection points: 2
#     Edge 11, Type (0, 0), BuildingBlock: XUDNAN_clean_linker_2, # of connection points: 2
#     Edge 12, Type (0, 0), BuildingBlock: XUDNAN_clean_linker_2, # of connection points: 2
#     Edge 13, Type (0, 0), BuildingBlock: XUDNAN_clean_linker_2, # of connection points: 2
#     Edge 14, Type (0, 0), BuildingBlock: XUDNAN_clean_linker_2, # of connection points: 2
#     Edge 15, Type (0, 0), BuildingBlock: XUDNAN_clean_linker_2, # of connection points: 2
#     Edge 16, Type (0, 0), BuildingBlock: XUDNAN_clean_linker_2, # of connection points: 2
#     Edge 17, Type (0, 0), BuildingBlock: XUDNAN_clean_linker_2, # of connection points: 2
#     Edge 18, Type (0, 0), BuildingBlock: XUDNAN_clean_linker_2, # of connection points: 2
#     Edge 19, Type (0, 0), BuildingBlock: XUDNAN_clean_linker_2, # of connection points: 2
#     Edge 20, Type (0, 0), BuildingBlock: XUDNAN_clean_linker_2, # of connection points: 2
#     Edge 21, Type (0, 0), BuildingBlock: XUDNAN_clean_linker_2, # of connection points: 2
#     Edge 22, Type (0, 0), BuildingBlock: XUDNAN_clean_linker_2, # of connection points: 2
#     Edge 23, Type (0, 0), BuildingBlock: XUDNAN_clean_linker_2, # of connection points: 2
# Relax obj value: 0.200
# Max RMSD: 0.198
# Mean RMSD: 0.198
data_MOF--net-uoc--node1-NAHDIM_clean_sbu_0--edge1-XUDNAN_clean_linker_2
_symmetry_space_group_name_H-M    P1
_symmetry_Int_Tables_number       1
_symmetry_cell_setting            triclinic
loop_
_symmetry_equiv_pos_as_xyz
'x, y, z'
_cell_length_a     27.115101
_cell_length_b     27.175641
_cell_length_c     51.984546
_cell_angle_alpha  90.104787
_cell_angle_beta   90.130006
_cell_angle_gamma 94.408423
loop_
_atom_site_label
_atom_site_type_symbol
_atom_site_fract_x
_atom_site_fract_y
_atom_site_fract_z
_atom_type_partial_charge
C0 C 0.06912 0.36049 0.105 0.0
O1 O 0.1055 0.36591 0.12174 0.0
O2 O 0.16819 0.28432 0.07084 0.0
Zn3 Zn 0.11204 0.2689 0.09542 0.0
O4 O 0.13975 0.26903 0.13121 0.0
C5 C 0.05809 0.17403 0.10368 0.0
O6 O 0.05421 0.191 0.12721 0.0
O7 O 0.06335 0.32081 0.09199 0.0
C8 C 0.1668 0.23562 0.13865 0.0
O9 O 0.17622 0.20004 0.12267 0.0
C10 C 0.16516 0.31421 0.05222 0.0
O11 O 0.12429 0.33644 0.04893 0.0
O12 O 0.08014 0.20132 0.08678 0.0
C13 C 0.88957 0.57635 0.38725 0.0
O14 O 0.87052 0.5741 0.36399 0.0
O15 O 0.77729 0.65191 0.43216 0.0
Zn16 Zn 0.79675 0.61726 0.40013 0.0
O17 O 0.79889 0.66369 0.36981 0.0
C18 C 0.69991 0.57453 0.3926 0.0
O19 O 0.69212 0.62139 0.3953 0.0
O20 O 0.86432 0.59232 0.40563 0.0
C21 C 0.78656 0.64655 0.34774 0.0
O22 O 0.7724 0.59943 0.34544 0.0
C23 C 0.80449 0.68439 0.44424 0.0
O24 O 0.84851 0.69851 0.43519 0.0
O25 O 0.74404 0.56184 0.39398 0.0
C26 C 0.32474 0.06243 0.61435 0.0
O27 O 0.27714 0.06445 0.6101 0.0
O28 O 0.294 0.16287 0.57128 0.0
Zn29 Zn 0.32068 0.16537 0.60733 0.0
O30 O 0.26902 0.1714 0.63444 0.0
C31 C 0.37003 0.26227 0.59805 0.0
O32 O 0.33806 0.26301 0.57906 0.0
O33 O 0.35261 0.10224 0.61406 0.0
C34 C 0.25315 0.21233 0.64116 0.0
O35 O 0.26553 0.25206 0.62758 0.0
C36 C 0.25383 0.17902 0.56356 0.0
O37 O 0.22466 0.19879 0.58015 0.0
O38 O 0.37057 0.22381 0.61191 0.0
C39 C 0.69608 0.95813 0.86237 0.0
O40 O 0.68016 0.91208 0.86694 0.0
O41 O 0.75836 0.89196 0.90805 0.0
Zn42 Zn 0.78121 0.91271 0.87281 0.0
O43 O 0.76446 0.85959 0.84671 0.0
C44 C 0.87344 0.96706 0.88628 0.0
O45 O 0.84433 0.99413 0.8995 0.0
O46 O 0.74232 0.96996 0.86331 0.0
C47 C 0.79367 0.82883 0.83844 0.0
O48 O 0.83851 0.829 0.84808 0.0
C49 C 0.75772 0.84853 0.91704 0.0
O50 O 0.77378 0.81306 0.90285 0.0
O51 O 0.85447 0.93087 0.87318 0.0
C52 C 0.52375 0.78066 0.64391 0.0
O53 O 0.56989 0.79705 0.64818 0.0
O54 O 0.61189 0.69989 0.61297 0.0
Zn55 Zn 0.56868 0.68936 0.64414 0.0
O56 O 0.60795 0.70412 0.67635 0.0
C57 C 0.51971 0.59879 0.62533 0.0
O58 O 0.51219 0.62627 0.60513 0.0
O59 O 0.51324 0.73443 0.64179 0.0
C60 C 0.64622 0.68176 0.68154 0.0
O61 O 0.66053 0.64849 0.66538 0.0
C62 C 0.65027 0.72977 0.61181 0.0
O63 O 0.66408 0.75614 0.63215 0.0
O64 O 0.5423 0.61822 0.6447 0.0
C65 C 0.40741 0.15289 0.85377 0.0
O66 O 0.40345 0.20053 0.85126 0.0
O67 O 0.31495 0.20481 0.89298 0.0
Zn68 Zn 0.3051 0.15615 0.86401 0.0
O69 O 0.28549 0.18467 0.83031 0.0
C70 C 0.21283 0.11745 0.88524 0.0
O71 O 0.21224 0.16317 0.89342 0.0
O72 O 0.36904 0.12497 0.85911 0.0
C73 C 0.24852 0.2094 0.82573 0.0
O74 O 0.22046 0.22286 0.84463 0.0
C75 C 0.31155 0.25115 0.89316 0.0
O76 O 0.2999 0.27399 0.87203 0.0
O77 O 0.25043 0.10479 0.87303 0.0
C78 C 0.90121 0.66756 0.0959 0.0
O79 O 0.87314 0.68455 0.07786 0.0
O80 O 0.81315 0.75131 0.09862 0.0
Zn81 Zn 0.86827 0.75038 0.12421 0.0
O82 O 0.8421 0.7457 0.16029 0.0
C83 C 0.92271 0.82829 0.09694 0.0
O84 O 0.90911 0.80021 0.07717 0.0
O85 O 0.90619 0.69065 0.11717 0.0
C86 C 0.84338 0.78218 0.17569 0.0
O87 O 0.86088 0.82589 0.16768 0.0
C88 C 0.78523 0.78656 0.09698 0.0
O89 O 0.78853 0.82144 0.11458 0.0
O90 O 0.91117 0.81355 0.11948 0.0
C91 C 0.22013 0.45227 0.38387 0.0
O92 O 0.25159 0.44522 0.40253 0.0
O93 O 0.2675 0.32788 0.38248 0.0
Zn94 Zn 0.27676 0.38246 0.35645 0.0
O95 O 0.26664 0.35373 0.32101 0.0
C96 C 0.38131 0.38565 0.36143 0.0
O97 O 0.37054 0.33778 0.35994 0.0
O98 O 0.22525 0.43093 0.36237 0.0
C99 C 0.27408 0.30917 0.31581 0.0
O100 O 0.28981 0.28069 0.33398 0.0
C101 C 0.22745 0.3171 0.39457 0.0
O102 O 0.18867 0.34193 0.39008 0.0
O103 O 0.34636 0.41425 0.36017 0.0
H104 H 0.16047 0.35457 0.00427 0.0
H105 H 0.25803 0.28202 0.05567 0.0
H106 H 0.31811 0.27652 0.02051 0.0
H107 H 0.17158 0.28015 0.95443 0.0
H108 H 0.17034 0.32549 0.92921 0.0
H109 H 0.14189 0.3365 0.95956 0.0
H110 H 0.19587 0.41897 0.96433 0.0
H111 H 0.22462 0.40814 0.93379 0.0
H112 H 0.26224 0.41926 0.96215 0.0
H113 H 0.3566 0.26056 0.97897 0.0
H114 H 0.37029 0.23524 0.93413 0.0
H115 H 0.25004 0.31957 0.90887 0.0
C116 C 0.19538 0.33934 0.00838 0.0
C117 C 0.20468 0.31883 0.03268 0.0
C118 C 0.25018 0.29804 0.03719 0.0
C119 C 0.28473 0.29512 0.01737 0.0
C120 C 0.27347 0.31362 0.99324 0.0
C121 C 0.23009 0.33589 0.98872 0.0
C122 C 0.22313 0.34562 0.9603 0.0
C123 C 0.17386 0.3204 0.95031 0.0
C124 C 0.2267 0.40132 0.95483 0.0
C125 C 0.26724 0.32181 0.94938 0.0
C126 C 0.29659 0.30485 0.96878 0.0
C127 C 0.33502 0.2751 0.9636 0.0
C128 C 0.34246 0.26076 0.93812 0.0
C129 C 0.31172 0.27631 0.91819 0.0
C130 C 0.27509 0.30881 0.92374 0.0
H131 H 0.77183 0.61791 0.29781 0.0
H132 H 0.81191 0.74634 0.34535 0.0
H133 H 0.82377 0.79742 0.30619 0.0
H134 H 0.86057 0.64383 0.25032 0.0
H135 H 0.82176 0.62131 0.22398 0.0
H136 H 0.81143 0.59646 0.25572 0.0
H137 H 0.72033 0.61914 0.25394 0.0
H138 H 0.73037 0.64408 0.22213 0.0
H139 H 0.70718 0.68186 0.24721 0.0
H140 H 0.83689 0.83287 0.26153 0.0
H141 H 0.85241 0.84914 0.21536 0.0
H142 H 0.80434 0.69669 0.19776 0.0
C143 C 0.78235 0.65694 0.30008 0.0
C144 C 0.79078 0.6782 0.32464 0.0
C145 C 0.80512 0.7293 0.32671 0.0
C146 C 0.81179 0.75861 0.30459 0.0
C147 C 0.80379 0.73624 0.28062 0.0
C148 C 0.7893 0.68655 0.27829 0.0
C149 C 0.78622 0.67058 0.25042 0.0
C150 C 0.82214 0.63071 0.24479 0.0
C151 C 0.73285 0.65288 0.24299 0.0
C152 C 0.80241 0.71878 0.23739 0.0
C153 C 0.8118 0.75642 0.25506 0.0
C154 C 0.8292 0.80379 0.24751 0.0
C155 C 0.8379 0.81266 0.22125 0.0
C156 C 0.82959 0.7742 0.20295 0.0
C157 C 0.81088 0.72696 0.21122 0.0
H158 H 0.1884 0.23483 0.53874 0.0
H159 H 0.29949 0.13094 0.52534 0.0
H160 H 0.29432 0.14581 0.47875 0.0
H161 H 0.11612 0.20844 0.47698 0.0
H162 H 0.10516 0.27265 0.47338 0.0
H163 H 0.1099 0.24648 0.50506 0.0
H164 H 0.17931 0.3139 0.5165 0.0
H165 H 0.17511 0.33997 0.48491 0.0
H166 H 0.23356 0.32131 0.49646 0.0
H167 H 0.28968 0.18304 0.43559 0.0
H168 H 0.28263 0.23782 0.39813 0.0
H169 H 0.17267 0.31599 0.43855 0.0
C170 C 0.21028 0.21389 0.52591 0.0
C171 C 0.24424 0.18166 0.53564 0.0
C172 C 0.27318 0.15582 0.51831 0.0
C173 C 0.27034 0.16382 0.49178 0.0
C174 C 0.238 0.19736 0.48286 0.0
C175 C 0.20794 0.22155 0.49933 0.0
C176 C 0.18065 0.25984 0.48511 0.0
C177 C 0.12462 0.246 0.48513 0.0
C178 C 0.19293 0.3118 0.49642 0.0
C179 C 0.20209 0.25518 0.45842 0.0
C180 C 0.23457 0.21841 0.45747 0.0
C181 C 0.26331 0.21097 0.43582 0.0
C182 C 0.25929 0.24238 0.41472 0.0
C183 C 0.22663 0.28051 0.41542 0.0
C184 C 0.19686 0.28617 0.4373 0.0
H185 H 0.70661 0.82681 0.8119 0.0
H186 H 0.84613 0.75857 0.81499 0.0
H187 H 0.82182 0.70956 0.77618 0.0
H188 H 0.63047 0.71889 0.78903 0.0
H189 H 0.59363 0.75538 0.7687 0.0
H190 H 0.6206 0.78157 0.79783 0.0
H191 H 0.66325 0.85383 0.7716 0.0
H192 H 0.6367 0.82779 0.7424 0.0
H193 H 0.70275 0.84052 0.74503 0.0
H194 H 0.78356 0.6716 0.73541 0.0
H195 H 0.73501 0.64832 0.69632 0.0
H196 H 0.62199 0.74339 0.72034 0.0
C197 C 0.73189 0.80106 0.80471 0.0
C198 C 0.77823 0.7964 0.81653 0.0
C199 C 0.81034 0.76263 0.80629 0.0
C200 C 0.79685 0.73463 0.78428 0.0
C201 C 0.75116 0.74085 0.77285 0.0
C202 C 0.71916 0.77316 0.78281 0.0
C203 C 0.67333 0.77512 0.76636 0.0
C204 C 0.62676 0.75662 0.78138 0.0
C205 C 0.66878 0.82741 0.75572 0.0
C206 C 0.68479 0.73945 0.74527 0.0
C207 C 0.72959 0.71967 0.74941 0.0
C208 C 0.74829 0.68664 0.73208 0.0
C209 C 0.72049 0.67367 0.70993 0.0
C210 C 0.67474 0.69404 0.70526 0.0
C211 C 0.65679 0.72711 0.72332 0.0
H212 H 0.22806 0.35381 0.27627 0.0
H213 H 0.29589 0.21947 0.29648 0.0
H214 H 0.27676 0.18595 0.25305 0.0
H215 H 0.12819 0.29563 0.23977 0.0
H216 H 0.12838 0.34424 0.21621 0.0
H217 H 0.14884 0.35805 0.24858 0.0
H218 H 0.23264 0.39663 0.23122 0.0
H219 H 0.21239 0.38302 0.19879 0.0
H220 H 0.26915 0.36064 0.21047 0.0
H221 H 0.24988 0.1673 0.20724 0.0
H222 H 0.21587 0.16437 0.16303 0.0
H223 H 0.16432 0.31037 0.17377 0.0
C224 C 0.2392 0.31744 0.27156 0.0
C225 C 0.26363 0.2893 0.28972 0.0
C226 C 0.27715 0.24169 0.28285 0.0
C227 C 0.26649 0.22237 0.25823 0.0
C228 C 0.24215 0.25106 0.24083 0.0
C229 C 0.22858 0.29751 0.24722 0.0
C230 C 0.20185 0.3205 0.22527 0.0
C231 C 0.14866 0.33015 0.23292 0.0
C232 C 0.23075 0.368 0.21588 0.0
C233 C 0.20245 0.27972 0.20549 0.0
C234 C 0.22602 0.24004 0.21474 0.0
C235 C 0.23131 0.19814 0.19979 0.0
C236 C 0.21192 0.19684 0.17472 0.0
C237 C 0.18737 0.23707 0.16499 0.0
C238 C 0.18269 0.27891 0.18067 0.0
H239 H 0.62908 0.68253 0.56623 0.0
H240 H 0.73731 0.78585 0.60306 0.0
H241 H 0.78689 0.78976 0.56312 0.0
H242 H 0.71378 0.6147 0.53273 0.0
H243 H 0.67546 0.60528 0.5045 0.0
H244 H 0.6474 0.61336 0.53539 0.0
H245 H 0.60176 0.6864 0.51743 0.0
H246 H 0.62971 0.67853 0.48643 0.0
H247 H 0.63686 0.73756 0.50244 0.0
H248 H 0.82678 0.77832 0.51956 0.0
H249 H 0.85339 0.75238 0.47641 0.0
H250 H 0.71779 0.65749 0.46888 0.0
C251 C 0.66301 0.70636 0.56591 0.0
C252 C 0.67935 0.73389 0.58778 0.0
C253 C 0.72403 0.76447 0.58652 0.0
C254 C 0.75238 0.76698 0.56391 0.0
C255 C 0.73532 0.73896 0.54276 0.0
C256 C 0.69154 0.70939 0.54359 0.0
C257 C 0.68201 0.68154 0.51866 0.0
C258 C 0.67955 0.62541 0.5231 0.0
C259 C 0.63479 0.69695 0.50546 0.0
C260 C 0.72773 0.6993 0.50378 0.0
C261 C 0.75797 0.73263 0.51786 0.0
C262 C 0.80317 0.75256 0.50828 0.0
C263 C 0.81798 0.73761 0.48378 0.0
C264 C 0.78767 0.70299 0.46924 0.0
C265 C 0.74176 0.68423 0.47939 0.0
H266 H 0.24753 0.14274 0.67876 0.0
H267 H 0.21432 0.29331 0.66281 0.0
H268 H 0.19674 0.30559 0.70895 0.0
H269 H 0.16014 0.11872 0.73445 0.0
H270 H 0.2049 0.08439 0.75092 0.0
H271 H 0.20212 0.08393 0.71627 0.0
H272 H 0.2952 0.11367 0.71461 0.0
H273 H 0.29817 0.11511 0.7491 0.0
H274 H 0.3166 0.16991 0.73096 0.0
H275 H 0.19482 0.30471 0.75789 0.0
H276 H 0.21172 0.29134 0.80428 0.0
H277 H 0.25317 0.14415 0.78688 0.0
C278 C 0.23467 0.17775 0.68472 0.0
C279 C 0.23194 0.21695 0.66715 0.0
C280 C 0.21625 0.26259 0.67592 0.0
C281 C 0.20611 0.26986 0.70209 0.0
C282 C 0.2118 0.23111 0.71915 0.0
C283 C 0.22543 0.1858 0.71069 0.0
C284 C 0.23625 0.15244 0.73287 0.0
C285 C 0.19859 0.1072 0.73367 0.0
C286 C 0.28971 0.13693 0.73181 0.0
C287 C 0.22902 0.18678 0.75514 0.0
C288 C 0.21342 0.23148 0.74705 0.0
C289 C 0.20646 0.26962 0.76442 0.0
C290 C 0.21623 0.26187 0.79063 0.0
C291 C 0.23416 0.217 0.79885 0.0
C292 C 0.23985 0.17896 0.78094 0.0
H293 H 0.78726 0.73053 0.05344 0.0
H294 H 0.72584 0.86054 0.08493 0.0
H295 H 0.69791 0.88249 0.04152 0.0
H296 H 0.84032 0.78596 0.00253 0.0
H297 H 0.82939 0.73613 0.97979 0.0
H298 H 0.83255 0.72297 0.01354 0.0
H299 H 0.74561 0.67638 0.01184 0.0
H300 H 0.74233 0.68871 0.97783 0.0
H301 H 0.69419 0.70673 -0.00107 0.0
H302 H 0.69275 0.89946 -0.00531 0.0
H303 H 0.70848 0.9091 0.94824 0.0
H304 H 0.77441 0.76859 0.94696 0.0
C305 C 0.76616 0.76256 0.05143 0.0
C306 C 0.7586 0.79378 0.0726 0.0
C307 C 0.7318 0.83593 0.06902 0.0
C308 C 0.71568 0.84861 0.04442 0.0
C309 C 0.72624 0.81848 0.02371 0.0
C310 C 0.75028 0.77588 0.02702 0.0
C311 C 0.76355 0.75368 0.00144 0.0
C312 C 0.81976 0.7495 -0.00079 0.0
C313 C 0.73468 0.70339 -0.00273 0.0
C314 C 0.746 0.79207 0.98324 0.0
C315 C 0.72356 0.82853 -0.00357 0.0
C316 C 0.7091 0.87055 0.98409 0.0
C317 C 0.71853 0.87583 0.95772 0.0
C318 C 0.74254 0.83947 0.94399 0.0
C319 C 0.75522 0.79653 0.95685 0.0
H320 H 0.01882 0.10274 0.13661 0.0
H321 H 0.05569 0.12924 0.05632 0.0
H322 H 0.0268 0.04306 0.04595 0.0
H323 H 0.05724 0.97937 0.13935 0.0
H324 H 0.0078 0.95719 0.16046 0.0
H325 H 0.03087 0.02111 0.16153 0.0
H326 H 0.94241 0.04773 0.15332 0.0
H327 H 0.91905 0.98391 0.15237 0.0
H328 H 0.9082 0.02385 0.12563 0.0
H329 H 0.99323 0.95395 0.04434 0.0
H330 H 0.9567 0.86902 0.05155 0.0
H331 H 0.94332 0.90082 0.13302 0.0
C332 C 0.02067 0.09056 0.11681 0.0
C333 C 0.03944 0.12283 0.09727 0.0
C334 C 0.04143 0.10524 0.07163 0.0
C335 C 0.02516 0.05633 0.06555 0.0
C336 C 0.00718 0.02543 0.08532 0.0
C337 C 0.00482 0.04187 0.11043 0.0
C338 C 0.98402 0.00125 0.12812 0.0
C339 C 0.02228 0.98901 0.14857 0.0
C340 C 0.93554 0.01501 0.14058 0.0
C341 C 0.97485 0.95942 0.10903 0.0
C342 C 0.98845 0.97408 0.08444 0.0
C343 C 0.9826 0.94202 0.06352 0.0
C344 C 0.96185 0.89383 0.06782 0.0
C345 C 0.94734 0.87816 0.09285 0.0
C346 C 0.95438 0.91147 0.11368 0.0
H347 H 0.14511 0.46803 0.35013 0.0
H348 H 0.19305 0.49518 0.42899 0.0
H349 H 0.11445 0.53196 0.43825 0.0
H350 H 0.08005 0.58014 0.34252 0.0
H351 H 0.03155 0.54932 0.32332 0.0
H352 H 0.09293 0.52827 0.32263 0.0
H353 H 0.05728 0.44046 0.33529 0.0
H354 H 0.99588 0.46129 0.33627 0.0
H355 H 0.02067 0.43219 0.36408 0.0
H356 H 0.02824 0.56103 0.43954 0.0
H357 H 0.94275 0.58349 0.43225 0.0
H358 H 0.95181 0.53721 0.35252 0.0
C359 C 0.1395 0.48234 0.36927 0.0
C360 C 0.17536 0.47879 0.38882 0.0
C361 C 0.16625 0.49765 0.41365 0.0
C362 C 0.12167 0.51854 0.41912 0.0
C363 C 0.0867 0.52049 0.39952 0.0
C364 C 0.09531 0.50328 0.37504 0.0
C365 C 0.05119 0.50828 0.3576 0.0
C366 C 0.06475 0.54362 0.3352 0.0
C367 C 0.03002 0.45754 0.34774 0.0
C368 C 0.01609 0.53041 0.37618 0.0
C369 C 0.03726 0.53728 0.40025 0.0
C370 C 0.01143 0.55615 0.42071 0.0
C371 C 0.96282 0.56864 0.4164 0.0
C372 C 0.94053 0.56219 0.39181 0.0
C373 C 0.96775 0.54277 0.37152 0.0
H374 H 0.37728 0.35094 0.57266 0.0
H375 H 0.43215 0.27637 0.63951 0.0
H376 H 0.47819 0.35393 0.65316 0.0
H377 H 0.49002 0.43045 0.56072 0.0
H378 H 0.4563 0.48201 0.55104 0.0
H379 H 0.43004 0.41986 0.54581 0.0
H380 H 0.35177 0.43985 0.57111 0.0
H381 H 0.37792 0.50189 0.5766 0.0
H382 H 0.3582 0.4635 0.60347 0.0
H383 H 0.5138 0.44073 0.66102 0.0
H384 H 0.53999 0.52975 0.66138 0.0
H385 H 0.46275 0.54734 0.58909 0.0
C386 C 0.39946 0.35068 0.59 0.0
C387 C 0.40112 0.30751 0.605 0.0
C388 C 0.43043 0.3089 0.62764 0.0
C389 C 0.45666 0.35281 0.63559 0.0
C390 C 0.45347 0.3949 0.6206 0.0
C391 C 0.426 0.39411 0.59816 0.0
C392 C 0.42781 0.44471 0.58587 0.0
C393 C 0.45253 0.44421 0.55929 0.0
C394 C 0.37584 0.46358 0.58418 0.0
C395 C 0.45996 0.47424 0.60513 0.0
C396 C 0.47441 0.44482 0.625 0.0
C397 C 0.50307 0.46407 0.64545 0.0
C398 C 0.5176 0.51472 0.64552 0.0
C399 C 0.50353 0.54553 0.62524 0.0
C400 C 0.47435 0.52479 0.60481 0.0
H401 H 0.59551 0.94334 0.86218 0.0
H402 H 0.71534 0.05706 0.85215 0.0
H403 H 0.65411 0.11921 0.84638 0.0
H404 H 0.51024 0.99147 0.81603 0.0
H405 H 0.45687 0.97441 0.8356 0.0
H406 H 0.51019 0.93884 0.8371 0.0
H407 H 0.51521 0.95247 0.88645 0.0
H408 H 0.46206 0.98814 0.8851 0.0
H409 H 0.51902 0.01447 0.89909 0.0
H410 H 0.57924 0.16931 0.84389 0.0
H411 H 0.4974 0.20339 0.84536 0.0
H412 H 0.42777 0.05602 0.8575 0.0
C413 C 0.60905 0.98119 0.85848 0.0
C414 C 0.66021 0.99536 0.85755 0.0
C415 C 0.67627 0.04537 0.85288 0.0
C416 C 0.6418 0.08088 0.84954 0.0
C417 C 0.59156 0.06563 0.85088 0.0
C418 C 0.57531 0.01692 0.85519 0.0
C419 C 0.51954 0.01018 0.85692 0.0
C420 C 0.49795 0.97675 0.83511 0.0
C421 C 0.50301 0.99015 0.88347 0.0
C422 C 0.50682 0.06289 0.85333 0.0
C423 C 0.54876 0.09433 0.84966 0.0
C424 C 0.54616 0.14498 0.84659 0.0
C425 C 0.4995 0.16398 0.84747 0.0
C426 C 0.45617 0.13238 0.85154 0.0
C427 C 0.46012 0.08117 0.85428 0.0
H428 H 0.96725 0.62495 0.12746 0.0
H429 H 0.88486 0.60235 0.05612 0.0
H430 H 0.91772 0.52073 0.05109 0.0
H431 H 0.07603 0.56678 0.10645 0.0
H432 H 0.08673 0.54003 0.13748 0.0
H433 H 0.05691 0.59685 0.1353 0.0
H434 H 0.98265 0.55753 0.16136 0.0
H435 H 0.01206 0.50046 0.16344 0.0
H436 H 0.95063 0.5009 0.15015 0.0
H437 H 0.95699 0.44035 0.05462 0.0
H438 H 0.00502 0.36926 0.06479 0.0
H439 H 0.06346 0.44519 0.1332 0.0
C440 C 0.95628 0.60296 0.11071 0.0
C441 C 0.92337 0.62 0.09221 0.0
C442 C 0.91008 0.59014 0.07053 0.0
C443 C 0.92841 0.54364 0.06754 0.0
C444 C 0.96025 0.52769 0.08629 0.0
C445 C 0.9745 0.55661 0.10731 0.0
C446 C 0.00962 0.53098 0.12453 0.0
C447 C 0.06033 0.56041 0.12601 0.0
C448 C 0.98739 0.52193 0.15146 0.0
C449 C 0.01268 0.48304 0.10996 0.0
C450 C 0.98368 0.48175 0.08804 0.0
C451 C 0.98002 0.441 0.07166 0.0
C452 C 0.00727 0.40073 0.07767 0.0
C453 C 0.03804 0.40171 0.09976 0.0
C454 C 0.04041 0.44339 0.11613 0.0
H455 H 0.41672 0.48226 0.36904 0.0
H456 H 0.46364 0.33357 0.36222 0.0
H457 H 0.55025 0.36553 0.36914 0.0
H458 H 0.52176 0.54392 0.33664 0.0
H459 H 0.52458 0.59689 0.35766 0.0
H460 H 0.46627 0.56235 0.35174 0.0
H461 H 0.45424 0.54951 0.40079 0.0
H462 H 0.51256 0.5839 0.40685 0.0
H463 H 0.50143 0.52212 0.4192 0.0
H464 H 0.63196 0.41357 0.37727 0.0
H465 H 0.70255 0.47449 0.38593 0.0
H466 H 0.60207 0.59141 0.38769 0.0
C467 C 0.4452 0.45643 0.36889 0.0
C468 C 0.43332 0.4054 0.36506 0.0
C469 C 0.47175 0.37284 0.36512 0.0
C470 C 0.52112 0.39061 0.36903 0.0
C471 C 0.53154 0.44106 0.37287 0.0
C472 C 0.4947 0.47352 0.37282 0.0
C473 C 0.51576 0.52594 0.3777 0.0
C474 C 0.50655 0.55923 0.35455 0.0
C475 C 0.49475 0.54656 0.40262 0.0
C476 C 0.57013 0.51783 0.38054 0.0
C477 C 0.57852 0.46864 0.37766 0.0
C478 C 0.62586 0.45223 0.37954 0.0
C479 C 0.66571 0.48708 0.38448 0.0
C480 C 0.6579 0.53771 0.38751 0.0
C481 C 0.60937 0.55301 0.38549 0.0
H482 H 0.42098 0.04554 0.62564 0.0
H483 H 0.2752 0.97078 0.61419 0.0
H484 H 0.30963 0.89059 0.6218 0.0
H485 H 0.48897 0.95602 0.59418 0.0
H486 H 0.54025 0.962 0.61638 0.0
H487 H 0.50378 0.01358 0.61078 0.0
H488 H 0.4864 0.0194 0.65966 0.0
H489 H 0.52281 0.96778 0.66541 0.0
H490 H 0.45973 0.96585 0.67647 0.0
H491 H 0.36052 0.81823 0.62939 0.0
H492 H 0.42415 0.75926 0.63653 0.0
H493 H 0.5362 0.88165 0.64343 0.0
C494 C 0.39622 0.01235 0.62481 0.0
C495 C 0.34538 0.01447 0.61929 0.0
C496 C 0.31428 0.97013 0.61839 0.0
C497 C 0.33346 0.92437 0.62271 0.0
C498 C 0.38377 0.9236 0.62802 0.0
C499 C 0.4147 0.96642 0.62914 0.0
C500 C 0.4675 0.95542 0.63485 0.0
C501 C 0.50215 0.97278 0.61272 0.0
C502 C 0.48513 0.97848 0.66063 0.0
C503 C 0.46154 0.89967 0.63646 0.0
C504 C 0.41296 0.88201 0.63254 0.0
C505 C 0.39866 0.83164 0.63261 0.0
C506 C 0.43506 0.79843 0.63666 0.0
C507 C 0.48515 0.81579 0.64059 0.0
C508 C 0.49824 0.86714 0.64062 0.0
H509 H 0.92529 0.04924 0.90611 0.0
H510 H 0.94417 0.91108 0.86658 0.0
H511 H 0.03446 0.93125 0.86569 0.0
H512 H 0.01437 0.12112 0.87066 0.0
H513 H 0.0361 0.15914 0.89743 0.0
H514 H 0.97356 0.13174 0.8971 0.0
H515 H 0.98822 0.09078 0.94118 0.0
H516 H 0.05097 0.11798 0.94159 0.0
H517 H 0.03892 0.05214 0.94487 0.0
H518 H 0.12198 0.96854 0.86673 0.0
H519 H 0.19981 0.02196 0.86791 0.0
H520 H 0.12368 0.13603 0.90642 0.0
C521 C 0.94843 0.02291 0.89757 0.0
C522 C 0.92767 0.97852 0.88649 0.0
C523 C 0.95923 0.94535 0.87519 0.0
C524 C 0.01059 0.95634 0.8747 0.0
C525 C 0.02983 0.0006 0.88561 0.0
C526 C -0.00025 0.03341 0.8968 0.0
C527 C 0.02942 0.07984 0.90569 0.0
C528 C 0.01235 0.12565 0.89189 0.0
C529 C 0.02672 0.08549 0.93508 0.0
C530 C 0.08072 0.06847 0.89723 0.0
C531 C 0.08028 0.02233 0.88599 0.0
C532 C 0.12288 0.00458 0.87569 0.0
C533 C 0.16693 0.0352 0.87646 0.0
C534 C 0.16791 0.08316 0.88728 0.0
C535 C 0.12431 0.09944 0.89819 0.0
loop_
_geom_bond_atom_site_label_1
_geom_bond_atom_site_label_2
_geom_bond_distance
_geom_bond_site_symmetry_2
_ccdc_geom_bond_type
C0 O1 1.160 . S
C0 O7 1.185 . S
O1 C0 1.160 . S
O2 Zn3 1.899 . S
O2 C10 1.284 . S
Zn3 O2 1.899 . S
Zn3 O4 2.032 . S
Zn3 O7 2.086 . S
Zn3 O12 1.977 . S
O4 Zn3 2.032 . S
O4 C8 1.278 . S
C5 O6 1.203 . S
C5 O12 1.267 . S
O6 C5 1.203 . S
O7 C0 1.185 . S
O7 Zn3 2.086 . S
C8 O4 1.278 . S
C8 O9 1.211 . S
O9 C8 1.211 . S
C10 O2 1.284 . S
C10 O11 1.273 . S
O11 C10 1.273 . S
O12 Zn3 1.977 . S
O12 C5 1.267 . S
C13 O14 1.160 . S
C13 O20 1.185 . S
O14 C13 1.160 . S
O15 Zn16 1.899 . S
O15 C23 1.284 . S
Zn16 O15 1.899 . S
Zn16 O17 2.032 . S
Zn16 O20 2.086 . S
Zn16 O25 1.977 . S
O17 Zn16 2.032 . S
O17 C21 1.278 . S
C18 O19 1.203 . S
C18 O25 1.267 . S
O19 C18 1.203 . S
O20 C13 1.185 . S
O20 Zn16 2.086 . S
C21 O17 1.278 . S
C21 O22 1.211 . S
O22 C21 1.211 . S
C23 O15 1.284 . S
C23 O24 1.273 . S
O24 C23 1.273 . S
O25 Zn16 1.977 . S
O25 C18 1.267 . S
C26 O27 1.160 . S
C26 O33 1.185 . S
O27 C26 1.160 . S
O28 Zn29 1.899 . S
O28 C36 1.284 . S
Zn29 O28 1.899 . S
Zn29 O30 2.032 . S
Zn29 O33 2.086 . S
Zn29 O38 1.977 . S
O30 Zn29 2.032 . S
O30 C34 1.278 . S
C31 O32 1.203 . S
C31 O38 1.267 . S
O32 C31 1.203 . S
O33 C26 1.185 . S
O33 Zn29 2.086 . S
C34 O30 1.278 . S
C34 O35 1.211 . S
O35 C34 1.211 . S
C36 O28 1.284 . S
C36 O37 1.273 . S
O37 C36 1.273 . S
O38 Zn29 1.977 . S
O38 C31 1.267 . S
C39 O40 1.160 . S
C39 O46 1.185 . S
O40 C39 1.160 . S
O41 Zn42 1.899 . S
O41 C49 1.284 . S
Zn42 O41 1.899 . S
Zn42 O43 2.032 . S
Zn42 O46 2.086 . S
Zn42 O51 1.977 . S
O43 Zn42 2.032 . S
O43 C47 1.278 . S
C44 O45 1.203 . S
C44 O51 1.267 . S
O45 C44 1.203 . S
O46 C39 1.185 . S
O46 Zn42 2.086 . S
C47 O43 1.278 . S
C47 O48 1.211 . S
O48 C47 1.211 . S
C49 O41 1.284 . S
C49 O50 1.273 . S
O50 C49 1.273 . S
O51 Zn42 1.977 . S
O51 C44 1.267 . S
C52 O53 1.160 . S
C52 O59 1.185 . S
O53 C52 1.160 . S
O54 Zn55 1.899 . S
O54 C62 1.284 . S
Zn55 O54 1.899 . S
Zn55 O56 2.032 . S
Zn55 O59 2.086 . S
Zn55 O64 1.977 . S
O56 Zn55 2.032 . S
O56 C60 1.278 . S
C57 O58 1.203 . S
C57 O64 1.267 . S
O58 C57 1.203 . S
O59 C52 1.185 . S
O59 Zn55 2.086 . S
C60 O56 1.278 . S
C60 O61 1.211 . S
O61 C60 1.211 . S
C62 O54 1.284 . S
C62 O63 1.273 . S
O63 C62 1.273 . S
O64 Zn55 1.977 . S
O64 C57 1.267 . S
C65 O66 1.160 . S
C65 O72 1.185 . S
O66 C65 1.160 . S
O67 Zn68 1.899 . S
O67 C75 1.284 . S
Zn68 O67 1.899 . S
Zn68 O69 2.032 . S
Zn68 O72 2.086 . S
Zn68 O77 1.977 . S
O69 Zn68 2.032 . S
O69 C73 1.278 . S
C70 O71 1.203 . S
C70 O77 1.267 . S
O71 C70 1.203 . S
O72 C65 1.185 . S
O72 Zn68 2.086 . S
C73 O69 1.278 . S
C73 O74 1.211 . S
O74 C73 1.211 . S
C75 O67 1.284 . S
C75 O76 1.273 . S
O76 C75 1.273 . S
O77 Zn68 1.977 . S
O77 C70 1.267 . S
C78 O79 1.160 . S
C78 O85 1.185 . S
O79 C78 1.160 . S
O80 Zn81 1.899 . S
O80 C88 1.284 . S
Zn81 O80 1.899 . S
Zn81 O82 2.032 . S
Zn81 O85 2.086 . S
Zn81 O90 1.977 . S
O82 Zn81 2.032 . S
O82 C86 1.278 . S
C83 O84 1.203 . S
C83 O90 1.267 . S
O84 C83 1.203 . S
O85 C78 1.185 . S
O85 Zn81 2.086 . S
C86 O82 1.278 . S
C86 O87 1.211 . S
O87 C86 1.211 . S
C88 O80 1.284 . S
C88 O89 1.273 . S
O89 C88 1.273 . S
O90 Zn81 1.977 . S
O90 C83 1.267 . S
C91 O92 1.160 . S
C91 O98 1.185 . S
O92 C91 1.160 . S
O93 Zn94 1.899 . S
O93 C101 1.284 . S
Zn94 O93 1.899 . S
Zn94 O95 2.032 . S
Zn94 O98 2.086 . S
Zn94 O103 1.977 . S
O95 Zn94 2.032 . S
O95 C99 1.278 . S
C96 O97 1.203 . S
C96 O103 1.267 . S
O97 C96 1.203 . S
O98 C91 1.185 . S
O98 Zn94 2.086 . S
C99 O95 1.278 . S
C99 O100 1.211 . S
O100 C99 1.211 . S
C101 O93 1.284 . S
C101 O102 1.273 . S
O102 C101 1.273 . S
O103 Zn94 1.977 . S
O103 C96 1.267 . S
H104 C116 0.930 . S
H105 C118 0.930 . S
H106 C119 0.930 . S
H107 C123 0.959 . S
H108 C123 0.959 . S
H109 C123 0.961 1_554 S
H110 C124 0.960 1_554 S
H111 C124 0.961 . S
H112 C124 0.959 . S
H113 C127 0.929 . S
H114 C128 0.931 . S
H115 C130 0.930 . S
C116 H104 0.930 . S
C116 C117 1.399 . S
C116 C121 1.399 . S
C117 C116 1.399 . S
C117 C118 1.376 . S
C118 H105 0.930 . S
C118 C117 1.376 . S
C118 C119 1.388 . S
C119 H106 0.930 . S
C119 C118 1.388 . S
C119 C120 1.390 . S
C120 C119 1.390 . S
C120 C121 1.394 . S
C120 C126 1.465 1_554 S
C121 C116 1.399 . S
C121 C120 1.394 . S
C121 C122 1.516 1_554 S
C122 C121 1.516 1_556 S
C122 C123 1.502 . S
C122 C124 1.561 . S
C122 C125 1.526 . S
C123 H107 0.959 . S
C123 H108 0.959 . S
C123 H109 0.961 1_556 S
C123 C122 1.502 . S
C124 H110 0.960 1_556 S
C124 H111 0.961 . S
C124 H112 0.959 . S
C124 C122 1.561 . S
C125 C122 1.526 . S
C125 C126 1.396 . S
C125 C130 1.390 . S
C126 C120 1.465 1_556 S
C126 C125 1.396 . S
C126 C127 1.399 . S
C127 H113 0.929 . S
C127 C126 1.399 . S
C127 C128 1.385 . S
C128 H114 0.931 . S
C128 C127 1.385 . S
C128 C129 1.389 . S
C129 C128 1.389 . S
C129 C130 1.387 . S
C130 H115 0.930 . S
C130 C125 1.390 . S
C130 C129 1.387 . S
H131 C143 0.930 . S
H132 C145 0.930 . S
H133 C146 0.930 . S
H134 C150 0.959 . S
H135 C150 0.959 . S
H136 C150 0.961 . S
H137 C151 0.960 . S
H138 C151 0.961 . S
H139 C151 0.959 . S
H140 C154 0.929 . S
H141 C155 0.931 . S
H142 C157 0.930 . S
C143 H131 0.930 . S
C143 C144 1.399 . S
C143 C148 1.399 . S
C144 C143 1.399 . S
C144 C145 1.376 . S
C145 H132 0.930 . S
C145 C144 1.376 . S
C145 C146 1.388 . S
C146 H133 0.930 . S
C146 C145 1.388 . S
C146 C147 1.390 . S
C147 C146 1.390 . S
C147 C148 1.394 . S
C147 C153 1.465 . S
C148 C143 1.399 . S
C148 C147 1.394 . S
C148 C149 1.516 . S
C149 C148 1.516 . S
C149 C150 1.502 . S
C149 C151 1.561 . S
C149 C152 1.526 . S
C150 H134 0.959 . S
C150 H135 0.959 . S
C150 H136 0.961 . S
C150 C149 1.502 . S
C151 H137 0.960 . S
C151 H138 0.961 . S
C151 H139 0.959 . S
C151 C149 1.561 . S
C152 C149 1.526 . S
C152 C153 1.396 . S
C152 C157 1.390 . S
C153 C147 1.465 . S
C153 C152 1.396 . S
C153 C154 1.399 . S
C154 H140 0.929 . S
C154 C153 1.399 . S
C154 C155 1.385 . S
C155 H141 0.931 . S
C155 C154 1.385 . S
C155 C156 1.389 . S
C156 C155 1.389 . S
C156 C157 1.387 . S
C157 H142 0.930 . S
C157 C152 1.390 . S
C157 C156 1.387 . S
H158 C170 0.930 . S
H159 C172 0.930 . S
H160 C173 0.930 . S
H161 C177 0.959 . S
H162 C177 0.959 . S
H163 C177 0.961 . S
H164 C178 0.960 . S
H165 C178 0.961 . S
H166 C178 0.959 . S
H167 C181 0.929 . S
H168 C182 0.931 . S
H169 C184 0.930 . S
C170 H158 0.930 . S
C170 C171 1.399 . S
C170 C175 1.399 . S
C171 C170 1.399 . S
C171 C172 1.376 . S
C172 H159 0.930 . S
C172 C171 1.376 . S
C172 C173 1.388 . S
C173 H160 0.930 . S
C173 C172 1.388 . S
C173 C174 1.390 . S
C174 C173 1.390 . S
C174 C175 1.394 . S
C174 C180 1.465 . S
C175 C170 1.399 . S
C175 C174 1.394 . S
C175 C176 1.516 . S
C176 C175 1.516 . S
C176 C177 1.502 . S
C176 C178 1.561 . S
C176 C179 1.526 . S
C177 H161 0.959 . S
C177 H162 0.959 . S
C177 H163 0.961 . S
C177 C176 1.502 . S
C178 H164 0.960 . S
C178 H165 0.961 . S
C178 H166 0.959 . S
C178 C176 1.561 . S
C179 C176 1.526 . S
C179 C180 1.396 . S
C179 C184 1.390 . S
C180 C174 1.465 . S
C180 C179 1.396 . S
C180 C181 1.399 . S
C181 H167 0.929 . S
C181 C180 1.399 . S
C181 C182 1.385 . S
C182 H168 0.931 . S
C182 C181 1.385 . S
C182 C183 1.389 . S
C183 C182 1.389 . S
C183 C184 1.387 . S
C184 H169 0.930 . S
C184 C179 1.390 . S
C184 C183 1.387 . S
H185 C197 0.930 . S
H186 C199 0.930 . S
H187 C200 0.930 . S
H188 C204 0.959 . S
H189 C204 0.959 . S
H190 C204 0.961 . S
H191 C205 0.960 . S
H192 C205 0.961 . S
H193 C205 0.959 . S
H194 C208 0.929 . S
H195 C209 0.931 . S
H196 C211 0.930 . S
C197 H185 0.930 . S
C197 C198 1.399 . S
C197 C202 1.399 . S
C198 C197 1.399 . S
C198 C199 1.376 . S
C199 H186 0.930 . S
C199 C198 1.376 . S
C199 C200 1.388 . S
C200 H187 0.930 . S
C200 C199 1.388 . S
C200 C201 1.390 . S
C201 C200 1.390 . S
C201 C202 1.394 . S
C201 C207 1.465 . S
C202 C197 1.399 . S
C202 C201 1.394 . S
C202 C203 1.516 . S
C203 C202 1.516 . S
C203 C204 1.502 . S
C203 C205 1.561 . S
C203 C206 1.526 . S
C204 H188 0.959 . S
C204 H189 0.959 . S
C204 H190 0.961 . S
C204 C203 1.502 . S
C205 H191 0.960 . S
C205 H192 0.961 . S
C205 H193 0.959 . S
C205 C203 1.561 . S
C206 C203 1.526 . S
C206 C207 1.396 . S
C206 C211 1.390 . S
C207 C201 1.465 . S
C207 C206 1.396 . S
C207 C208 1.399 . S
C208 H194 0.929 . S
C208 C207 1.399 . S
C208 C209 1.385 . S
C209 H195 0.931 . S
C209 C208 1.385 . S
C209 C210 1.389 . S
C210 C209 1.389 . S
C210 C211 1.387 . S
C211 H196 0.930 . S
C211 C206 1.390 . S
C211 C210 1.387 . S
H212 C224 0.930 . S
H213 C226 0.930 . S
H214 C227 0.930 . S
H215 C231 0.959 . S
H216 C231 0.959 . S
H217 C231 0.961 . S
H218 C232 0.960 . S
H219 C232 0.961 . S
H220 C232 0.959 . S
H221 C235 0.929 . S
H222 C236 0.931 . S
H223 C238 0.930 . S
C224 H212 0.930 . S
C224 C225 1.399 . S
C224 C229 1.399 . S
C225 C224 1.399 . S
C225 C226 1.376 . S
C226 H213 0.930 . S
C226 C225 1.376 . S
C226 C227 1.388 . S
C227 H214 0.930 . S
C227 C226 1.388 . S
C227 C228 1.390 . S
C228 C227 1.390 . S
C228 C229 1.394 . S
C228 C234 1.465 . S
C229 C224 1.399 . S
C229 C228 1.394 . S
C229 C230 1.516 . S
C230 C229 1.516 . S
C230 C231 1.502 . S
C230 C232 1.561 . S
C230 C233 1.526 . S
C231 H215 0.959 . S
C231 H216 0.959 . S
C231 H217 0.961 . S
C231 C230 1.502 . S
C232 H218 0.960 . S
C232 H219 0.961 . S
C232 H220 0.959 . S
C232 C230 1.561 . S
C233 C230 1.526 . S
C233 C234 1.396 . S
C233 C238 1.390 . S
C234 C228 1.465 . S
C234 C233 1.396 . S
C234 C235 1.399 . S
C235 H221 0.929 . S
C235 C234 1.399 . S
C235 C236 1.385 . S
C236 H222 0.931 . S
C236 C235 1.385 . S
C236 C237 1.389 . S
C237 C236 1.389 . S
C237 C238 1.387 . S
C238 H223 0.930 . S
C238 C233 1.390 . S
C238 C237 1.387 . S
H239 C251 0.930 . S
H240 C253 0.930 . S
H241 C254 0.930 . S
H242 C258 0.959 . S
H243 C258 0.959 . S
H244 C258 0.961 . S
H245 C259 0.960 . S
H246 C259 0.961 . S
H247 C259 0.959 . S
H248 C262 0.929 . S
H249 C263 0.931 . S
H250 C265 0.930 . S
C251 H239 0.930 . S
C251 C252 1.399 . S
C251 C256 1.399 . S
C252 C251 1.399 . S
C252 C253 1.376 . S
C253 H240 0.930 . S
C253 C252 1.376 . S
C253 C254 1.388 . S
C254 H241 0.930 . S
C254 C253 1.388 . S
C254 C255 1.390 . S
C255 C254 1.390 . S
C255 C256 1.394 . S
C255 C261 1.465 . S
C256 C251 1.399 . S
C256 C255 1.394 . S
C256 C257 1.516 . S
C257 C256 1.516 . S
C257 C258 1.502 . S
C257 C259 1.561 . S
C257 C260 1.526 . S
C258 H242 0.959 . S
C258 H243 0.959 . S
C258 H244 0.961 . S
C258 C257 1.502 . S
C259 H245 0.960 . S
C259 H246 0.961 . S
C259 H247 0.959 . S
C259 C257 1.561 . S
C260 C257 1.526 . S
C260 C261 1.396 . S
C260 C265 1.390 . S
C261 C255 1.465 . S
C261 C260 1.396 . S
C261 C262 1.399 . S
C262 H248 0.929 . S
C262 C261 1.399 . S
C262 C263 1.385 . S
C263 H249 0.931 . S
C263 C262 1.385 . S
C263 C264 1.389 . S
C264 C263 1.389 . S
C264 C265 1.387 . S
C265 H250 0.930 . S
C265 C260 1.390 . S
C265 C264 1.387 . S
H266 C278 0.930 . S
H267 C280 0.930 . S
H268 C281 0.930 . S
H269 C285 0.959 . S
H270 C285 0.959 . S
H271 C285 0.961 . S
H272 C286 0.960 . S
H273 C286 0.961 . S
H274 C286 0.959 . S
H275 C289 0.929 . S
H276 C290 0.931 . S
H277 C292 0.930 . S
C278 H266 0.930 . S
C278 C279 1.399 . S
C278 C283 1.399 . S
C279 C278 1.399 . S
C279 C280 1.376 . S
C280 H267 0.930 . S
C280 C279 1.376 . S
C280 C281 1.388 . S
C281 H268 0.930 . S
C281 C280 1.388 . S
C281 C282 1.390 . S
C282 C281 1.390 . S
C282 C283 1.394 . S
C282 C288 1.465 . S
C283 C278 1.399 . S
C283 C282 1.394 . S
C283 C284 1.516 . S
C284 C283 1.516 . S
C284 C285 1.502 . S
C284 C286 1.561 . S
C284 C287 1.526 . S
C285 H269 0.959 . S
C285 H270 0.959 . S
C285 H271 0.961 . S
C285 C284 1.502 . S
C286 H272 0.960 . S
C286 H273 0.961 . S
C286 H274 0.959 . S
C286 C284 1.561 . S
C287 C284 1.526 . S
C287 C288 1.396 . S
C287 C292 1.390 . S
C288 C282 1.465 . S
C288 C287 1.396 . S
C288 C289 1.399 . S
C289 H275 0.929 . S
C289 C288 1.399 . S
C289 C290 1.385 . S
C290 H276 0.931 . S
C290 C289 1.385 . S
C290 C291 1.389 . S
C291 C290 1.389 . S
C291 C292 1.387 . S
C292 H277 0.930 . S
C292 C287 1.390 . S
C292 C291 1.387 . S
H293 C305 0.930 . S
H294 C307 0.930 . S
H295 C308 0.930 . S
H296 C312 0.959 . S
H297 C312 0.959 . S
H298 C312 0.961 1_554 S
H299 C313 0.960 1_554 S
H300 C313 0.961 . S
H301 C313 0.959 . S
H302 C316 0.929 . S
H303 C317 0.931 . S
H304 C319 0.930 . S
C305 H293 0.930 . S
C305 C306 1.399 . S
C305 C310 1.399 . S
C306 C305 1.399 . S
C306 C307 1.376 . S
C307 H294 0.930 . S
C307 C306 1.376 . S
C307 C308 1.388 . S
C308 H295 0.930 . S
C308 C307 1.388 . S
C308 C309 1.390 . S
C309 C308 1.390 . S
C309 C310 1.394 . S
C309 C315 1.465 1_554 S
C310 C305 1.399 . S
C310 C309 1.394 . S
C310 C311 1.516 1_554 S
C311 C310 1.516 1_556 S
C311 C312 1.502 . S
C311 C313 1.561 . S
C311 C314 1.526 . S
C312 H296 0.959 . S
C312 H297 0.959 . S
C312 H298 0.961 1_556 S
C312 C311 1.502 . S
C313 H299 0.960 1_556 S
C313 H300 0.961 . S
C313 H301 0.959 . S
C313 C311 1.561 . S
C314 C311 1.526 . S
C314 C315 1.396 . S
C314 C319 1.390 . S
C315 C309 1.465 1_556 S
C315 C314 1.396 . S
C315 C316 1.399 . S
C316 H302 0.929 . S
C316 C315 1.399 . S
C316 C317 1.385 . S
C317 H303 0.931 . S
C317 C316 1.385 . S
C317 C318 1.389 . S
C318 C317 1.389 . S
C318 C319 1.387 . S
C319 H304 0.930 . S
C319 C314 1.390 . S
C319 C318 1.387 . S
H320 C332 0.930 . S
H321 C334 0.930 . S
H322 C335 0.930 1_655 S
H323 C339 0.959 . S
H324 C339 0.959 . S
H325 C339 0.961 . S
H326 C340 0.960 . S
H327 C340 0.961 1_565 S
H328 C340 0.959 . S
H329 C343 0.929 . S
H330 C344 0.931 . S
H331 C346 0.930 . S
C332 H320 0.930 . S
C332 C333 1.399 . S
C332 C337 1.399 . S
C333 C332 1.399 . S
C333 C334 1.376 . S
C334 H321 0.930 . S
C334 C333 1.376 . S
C334 C335 1.388 . S
C335 H322 0.930 1_455 S
C335 C334 1.388 . S
C335 C336 1.390 . S
C336 C335 1.390 . S
C336 C337 1.394 . S
C336 C342 1.465 1_445 S
C337 C332 1.399 . S
C337 C336 1.394 . S
C337 C338 1.516 1_545 S
C338 C337 1.516 1_565 S
C338 C339 1.502 . S
C338 C340 1.561 1_465 S
C338 C341 1.526 1_455 S
C339 H323 0.959 . S
C339 H324 0.959 . S
C339 H325 0.961 . S
C339 C338 1.502 . S
C340 H326 0.960 . S
C340 H327 0.961 1_545 S
C340 H328 0.959 . S
C340 C338 1.561 1_645 S
C341 C338 1.526 1_655 S
C341 C342 1.396 . S
C341 C346 1.390 . S
C342 C336 1.465 1_665 S
C342 C341 1.396 . S
C342 C343 1.399 . S
C343 H329 0.929 . S
C343 C342 1.399 . S
C343 C344 1.385 . S
C344 H330 0.931 . S
C344 C343 1.385 . S
C344 C345 1.389 . S
C345 C344 1.389 . S
C345 C346 1.387 . S
C346 H331 0.930 . S
C346 C341 1.390 . S
C346 C345 1.387 . S
H347 C359 0.930 . S
H348 C361 0.930 . S
H349 C362 0.930 . S
H350 C366 0.959 . S
H351 C366 0.959 . S
H352 C366 0.961 . S
H353 C367 0.960 1_455 S
H354 C367 0.961 . S
H355 C367 0.959 . S
H356 C370 0.929 . S
H357 C371 0.931 . S
H358 C373 0.930 . S
C359 H347 0.930 . S
C359 C360 1.399 . S
C359 C364 1.399 . S
C360 C359 1.399 . S
C360 C361 1.376 . S
C361 H348 0.930 . S
C361 C360 1.376 . S
C361 C362 1.388 . S
C362 H349 0.930 . S
C362 C361 1.388 . S
C362 C363 1.390 . S
C363 C362 1.390 . S
C363 C364 1.394 . S
C363 C369 1.465 1_455 S
C364 C359 1.399 . S
C364 C363 1.394 . S
C364 C365 1.516 . S
C365 C364 1.516 . S
C365 C366 1.502 . S
C365 C367 1.561 1_455 S
C365 C368 1.526 1_455 S
C366 H350 0.959 . S
C366 H351 0.959 . S
C366 H352 0.961 . S
C366 C365 1.502 . S
C367 H353 0.960 1_655 S
C367 H354 0.961 . S
C367 H355 0.959 . S
C367 C365 1.561 1_655 S
C368 C365 1.526 1_655 S
C368 C369 1.396 . S
C368 C373 1.390 . S
C369 C363 1.465 1_655 S
C369 C368 1.396 . S
C369 C370 1.399 . S
C370 H356 0.929 . S
C370 C369 1.399 . S
C370 C371 1.385 . S
C371 H357 0.931 . S
C371 C370 1.385 . S
C371 C372 1.389 . S
C372 C371 1.389 . S
C372 C373 1.387 . S
C373 H358 0.930 . S
C373 C368 1.390 . S
C373 C372 1.387 . S
H374 C386 0.930 . S
H375 C388 0.930 . S
H376 C389 0.930 . S
H377 C393 0.959 . S
H378 C393 0.959 . S
H379 C393 0.961 . S
H380 C394 0.960 . S
H381 C394 0.961 . S
H382 C394 0.959 . S
H383 C397 0.929 . S
H384 C398 0.931 . S
H385 C400 0.930 . S
C386 H374 0.930 . S
C386 C387 1.399 . S
C386 C391 1.399 . S
C387 C386 1.399 . S
C387 C388 1.376 . S
C388 H375 0.930 . S
C388 C387 1.376 . S
C388 C389 1.388 . S
C389 H376 0.930 . S
C389 C388 1.388 . S
C389 C390 1.390 . S
C390 C389 1.390 . S
C390 C391 1.394 . S
C390 C396 1.465 . S
C391 C386 1.399 . S
C391 C390 1.394 . S
C391 C392 1.516 . S
C392 C391 1.516 . S
C392 C393 1.502 . S
C392 C394 1.561 . S
C392 C395 1.526 . S
C393 H377 0.959 . S
C393 H378 0.959 . S
C393 H379 0.961 . S
C393 C392 1.502 . S
C394 H380 0.960 . S
C394 H381 0.961 . S
C394 H382 0.959 . S
C394 C392 1.561 . S
C395 C392 1.526 . S
C395 C396 1.396 . S
C395 C400 1.390 . S
C396 C390 1.465 . S
C396 C395 1.396 . S
C396 C397 1.399 . S
C397 H383 0.929 . S
C397 C396 1.399 . S
C397 C398 1.385 . S
C398 H384 0.931 . S
C398 C397 1.385 . S
C398 C399 1.389 . S
C399 C398 1.389 . S
C399 C400 1.387 . S
C400 H385 0.930 . S
C400 C395 1.390 . S
C400 C399 1.387 . S
H401 C413 0.930 . S
H402 C415 0.930 . S
H403 C416 0.930 . S
H404 C420 0.959 . S
H405 C420 0.959 . S
H406 C420 0.961 . S
H407 C421 0.960 . S
H408 C421 0.961 . S
H409 C421 0.959 . S
H410 C424 0.929 . S
H411 C425 0.931 . S
H412 C427 0.930 . S
C413 H401 0.930 . S
C413 C414 1.399 . S
C413 C418 1.399 . S
C414 C413 1.399 . S
C414 C415 1.376 . S
C415 H402 0.930 . S
C415 C414 1.376 . S
C415 C416 1.388 1_565 S
C416 H403 0.930 . S
C416 C415 1.388 1_545 S
C416 C417 1.390 . S
C417 C416 1.390 . S
C417 C418 1.394 1_545 S
C417 C423 1.465 . S
C418 C413 1.399 . S
C418 C417 1.394 1_565 S
C418 C419 1.516 . S
C419 C418 1.516 . S
C419 C420 1.502 . S
C419 C421 1.561 . S
C419 C422 1.526 1_565 S
C420 H404 0.959 . S
C420 H405 0.959 . S
C420 H406 0.961 . S
C420 C419 1.502 . S
C421 H407 0.960 . S
C421 H408 0.961 . S
C421 H409 0.959 . S
C421 C419 1.561 . S
C422 C419 1.526 1_545 S
C422 C423 1.396 . S
C422 C427 1.390 . S
C423 C417 1.465 . S
C423 C422 1.396 . S
C423 C424 1.399 . S
C424 H410 0.929 . S
C424 C423 1.399 . S
C424 C425 1.385 . S
C425 H411 0.931 . S
C425 C424 1.385 . S
C425 C426 1.389 . S
C426 C425 1.389 . S
C426 C427 1.387 . S
C427 H412 0.930 . S
C427 C422 1.390 . S
C427 C426 1.387 . S
H428 C440 0.930 . S
H429 C442 0.930 . S
H430 C443 0.930 . S
H431 C447 0.959 . S
H432 C447 0.959 . S
H433 C447 0.961 . S
H434 C448 0.960 . S
H435 C448 0.961 . S
H436 C448 0.959 . S
H437 C451 0.929 1_655 S
H438 C452 0.931 . S
H439 C454 0.930 . S
C440 H428 0.930 . S
C440 C441 1.399 . S
C440 C445 1.399 . S
C441 C440 1.399 . S
C441 C442 1.376 . S
C442 H429 0.930 . S
C442 C441 1.376 . S
C442 C443 1.388 . S
C443 H430 0.930 . S
C443 C442 1.388 . S
C443 C444 1.390 . S
C444 C443 1.390 . S
C444 C445 1.394 . S
C444 C450 1.465 1_655 S
C445 C440 1.399 . S
C445 C444 1.394 . S
C445 C446 1.516 1_655 S
C446 C445 1.516 1_455 S
C446 C447 1.502 . S
C446 C448 1.561 1_455 S
C446 C449 1.526 . S
C447 H431 0.959 . S
C447 H432 0.959 . S
C447 H433 0.961 . S
C447 C446 1.502 . S
C448 H434 0.960 . S
C448 H435 0.961 . S
C448 H436 0.959 . S
C448 C446 1.561 1_655 S
C449 C446 1.526 . S
C449 C450 1.396 . S
C449 C454 1.390 . S
C450 C444 1.465 1_455 S
C450 C449 1.396 . S
C450 C451 1.399 . S
C451 H437 0.929 1_455 S
C451 C450 1.399 . S
C451 C452 1.385 . S
C452 H438 0.931 . S
C452 C451 1.385 . S
C452 C453 1.389 . S
C453 C452 1.389 . S
C453 C454 1.387 . S
C454 H439 0.930 . S
C454 C449 1.390 . S
C454 C453 1.387 . S
H455 C467 0.930 . S
H456 C469 0.930 . S
H457 C470 0.930 . S
H458 C474 0.959 . S
H459 C474 0.959 . S
H460 C474 0.961 . S
H461 C475 0.960 . S
H462 C475 0.961 . S
H463 C475 0.959 . S
H464 C478 0.929 . S
H465 C479 0.931 . S
H466 C481 0.930 . S
C467 H455 0.930 . S
C467 C468 1.399 . S
C467 C472 1.399 . S
C468 C467 1.399 . S
C468 C469 1.376 . S
C469 H456 0.930 . S
C469 C468 1.376 . S
C469 C470 1.388 . S
C470 H457 0.930 . S
C470 C469 1.388 . S
C470 C471 1.390 . S
C471 C470 1.390 . S
C471 C472 1.394 . S
C471 C477 1.465 . S
C472 C467 1.399 . S
C472 C471 1.394 . S
C472 C473 1.516 . S
C473 C472 1.516 . S
C473 C474 1.502 . S
C473 C475 1.561 . S
C473 C476 1.526 . S
C474 H458 0.959 . S
C474 H459 0.959 . S
C474 H460 0.961 . S
C474 C473 1.502 . S
C475 H461 0.960 . S
C475 H462 0.961 . S
C475 H463 0.959 . S
C475 C473 1.561 . S
C476 C473 1.526 . S
C476 C477 1.396 . S
C476 C481 1.390 . S
C477 C471 1.465 . S
C477 C476 1.396 . S
C477 C478 1.399 . S
C478 H464 0.929 . S
C478 C477 1.399 . S
C478 C479 1.385 . S
C479 H465 0.931 . S
C479 C478 1.385 . S
C479 C480 1.389 . S
C480 C479 1.389 . S
C480 C481 1.387 . S
C481 H466 0.930 . S
C481 C476 1.390 . S
C481 C480 1.387 . S
H482 C494 0.930 . S
H483 C496 0.930 . S
H484 C497 0.930 . S
H485 C501 0.959 . S
H486 C501 0.959 . S
H487 C501 0.961 . S
H488 C502 0.960 1_545 S
H489 C502 0.961 . S
H490 C502 0.959 . S
H491 C505 0.929 . S
H492 C506 0.931 . S
H493 C508 0.930 . S
C494 H482 0.930 . S
C494 C495 1.399 . S
C494 C499 1.399 . S
C495 C494 1.399 . S
C495 C496 1.376 . S
C496 H483 0.930 . S
C496 C495 1.376 . S
C496 C497 1.388 . S
C497 H484 0.930 . S
C497 C496 1.388 . S
C497 C498 1.390 . S
C498 C497 1.390 . S
C498 C499 1.394 . S
C498 C504 1.465 1_545 S
C499 C494 1.399 . S
C499 C498 1.394 . S
C499 C500 1.516 . S
C500 C499 1.516 . S
C500 C501 1.502 . S
C500 C502 1.561 1_545 S
C500 C503 1.526 1_545 S
C501 H485 0.959 . S
C501 H486 0.959 . S
C501 H487 0.961 . S
C501 C500 1.502 . S
C502 H488 0.960 1_565 S
C502 H489 0.961 . S
C502 H490 0.959 . S
C502 C500 1.561 1_565 S
C503 C500 1.526 1_565 S
C503 C504 1.396 . S
C503 C508 1.390 . S
C504 C498 1.465 1_565 S
C504 C503 1.396 . S
C504 C505 1.399 . S
C505 H491 0.929 . S
C505 C504 1.399 . S
C505 C506 1.385 . S
C506 H492 0.931 . S
C506 C505 1.385 . S
C506 C507 1.389 . S
C507 C506 1.389 . S
C507 C508 1.387 . S
C508 H493 0.930 . S
C508 C503 1.390 . S
C508 C507 1.387 . S
H509 C521 0.930 . S
H510 C523 0.930 . S
H511 C524 0.930 . S
H512 C528 0.959 . S
H513 C528 0.959 1_455 S
H514 C528 0.961 . S
H515 C529 0.960 1_655 S
H516 C529 0.961 . S
H517 C529 0.959 . S
H518 C532 0.929 . S
H519 C533 0.931 . S
H520 C535 0.930 . S
C521 H509 0.930 . S
C521 C522 1.399 . S
C521 C526 1.399 . S
C522 C521 1.399 . S
C522 C523 1.376 . S
C523 H510 0.930 . S
C523 C522 1.376 . S
C523 C524 1.388 . S
C524 H511 0.930 . S
C524 C523 1.388 . S
C524 C525 1.390 . S
C525 C524 1.390 . S
C525 C526 1.394 . S
C525 C531 1.465 1_665 S
C526 C521 1.399 . S
C526 C525 1.394 . S
C526 C527 1.516 1_655 S
C527 C526 1.516 1_455 S
C527 C528 1.502 1_465 S
C527 C529 1.561 . S
C527 C530 1.526 1_565 S
C528 H512 0.959 . S
C528 H513 0.959 1_655 S
C528 H514 0.961 . S
C528 C527 1.502 1_645 S
C529 H515 0.960 1_455 S
C529 H516 0.961 . S
C529 H517 0.959 . S
C529 C527 1.561 . S
C530 C527 1.526 1_545 S
C530 C531 1.396 . S
C530 C535 1.390 . S
C531 C525 1.465 1_445 S
C531 C530 1.396 . S
C531 C532 1.399 . S
C532 H518 0.929 . S
C532 C531 1.399 . S
C532 C533 1.385 . S
C533 H519 0.931 . S
C533 C532 1.385 . S
C533 C534 1.389 . S
C534 C533 1.389 . S
C534 C535 1.387 . S
C535 H520 0.930 . S
C535 C530 1.390 . S
C535 C534 1.387 . S
C117 C10 1.084 . S
C129 C75 1.039 . S
C144 C21 1.070 . S
C156 C86 0.967 . S
C171 C36 1.052 . S
C183 C101 1.044 . S
C198 C47 1.032 . S
C210 C60 1.003 . S
C225 C99 1.018 . S
C237 C8 1.017 . S
C252 C62 1.043 . S
C264 C23 1.087 . S
C279 C34 0.944 . S
C291 C73 1.086 . S
C306 C88 1.080 . S
C318 C49 1.036 . S
C333 C5 1.505 . S
C345 C83 1.474 . S
C360 C91 1.493 . S
C372 C13 1.502 . S
C387 C31 1.492 . S
C399 C57 1.523 . S
C414 C39 1.504 . S
C426 C65 1.494 . S
C441 C78 1.493 . S
C453 C0 1.503 . S
C468 C96 1.473 . S
C480 C18 1.526 . S
C495 C26 1.494 . S
C507 C52 1.505 . S
C522 C44 1.500 . S
C534 C70 1.518 . S
