# Generated by pormake.
# Topology vmr, (7)-cn, num edge types: 1
# Building blocks:
#     Node 0, Type 0, BuildingBlock: HICVOG_clean_sbu_0, # of connection points: 7
#     Node 1, Type 0, BuildingBlock: HICVOG_clean_sbu_0, # of connection points: 7
#     Node 2, Type 0, BuildingBlock: HICVOG_clean_sbu_0, # of connection points: 7
#     Node 3, Type 0, BuildingBlock: HICVOG_clean_sbu_0, # of connection points: 7
#     Edge 4, Type (0, 0), BuildingBlock: UVAHIK_clean_linker_0, # of connection points: 2
#     Edge 5, Type (0, 0), BuildingBlock: UVAHIK_clean_linker_0, # of connection points: 2
#     Edge 6, Type (0, 0), BuildingBlock: UVAHIK_clean_linker_0, # of connection points: 2
#     Edge 7, Type (0, 0), BuildingBlock: UVAHIK_clean_linker_0, # of connection points: 2
#     Edge 8, Type (0, 0), BuildingBlock: UVAHIK_clean_linker_0, # of connection points: 2
#     Edge 9, Type (0, 0), BuildingBlock: UVAHIK_clean_linker_0, # of connection points: 2
#     Edge 10, Type (0, 0), BuildingBlock: UVAHIK_clean_linker_0, # of connection points: 2
#     Edge 11, Type (0, 0), BuildingBlock: UVAHIK_clean_linker_0, # of connection points: 2
#     Edge 12, Type (0, 0), BuildingBlock: UVAHIK_clean_linker_0, # of connection points: 2
#     Edge 13, Type (0, 0), BuildingBlock: UVAHIK_clean_linker_0, # of connection points: 2
#     Edge 14, Type (0, 0), BuildingBlock: UVAHIK_clean_linker_0, # of connection points: 2
#     Edge 15, Type (0, 0), BuildingBlock: UVAHIK_clean_linker_0, # of connection points: 2
#     Edge 16, Type (0, 0), BuildingBlock: UVAHIK_clean_linker_0, # of connection points: 2
#     Edge 17, Type (0, 0), BuildingBlock: UVAHIK_clean_linker_0, # of connection points: 2
# Relax obj value: 0.075
# Max RMSD: 0.171
# Mean RMSD: 0.171
data_MOF--net-vmr--node1-HICVOG_clean_sbu_0--edge1-UVAHIK_clean_linker_0
_symmetry_space_group_name_H-M    P1
_symmetry_Int_Tables_number       1
_symmetry_cell_setting            triclinic
loop_
_symmetry_equiv_pos_as_xyz
'x, y, z'
_cell_length_a     32.124242
_cell_length_b     27.63496
_cell_length_c     44.626204
_cell_angle_alpha  89.994411
_cell_angle_beta   122.09099
_cell_angle_gamma 89.999937
loop_
_atom_site_label
_atom_site_type_symbol
_atom_site_fract_x
_atom_site_fract_y
_atom_site_fract_z
_atom_type_partial_charge
Zn0 Zn 0.2316 0.34846 0.17676 0.0
C1 C 0.11979 0.3416 0.19239 0.0
N2 N 0.10079 0.37561 0.16707 0.0
C3 C 0.13238 0.37583 0.15609 0.0
N4 N 0.16955 0.34415 0.17418 0.0
N5 N 0.16132 0.32211 0.19693 0.0
C6 C 0.21564 0.2772 0.29183 0.0
O7 O 0.24778 0.30646 0.29169 0.0
O8 O 0.22017 0.34618 0.12766 0.0
Zn9 Zn 0.18778 0.26026 0.21952 0.0
N10 N 0.26097 0.41012 0.1991 0.0
C11 C 0.26588 0.47247 0.23758 0.0
C12 C 0.24677 0.42858 0.22054 0.0
C13 C 0.29452 0.43361 0.19447 0.0
N14 N 0.29915 0.49592 0.23301 0.0
C15 C 0.3146 0.47796 0.2121 0.0
O16 O 0.2566 0.24499 0.23172 0.0
C17 C 0.28872 0.25951 0.22533 0.0
O18 O 0.28128 0.29615 0.20577 0.0
H19 H 0.22082 0.40929 0.22451 0.0
H20 H 0.30487 0.41801 0.17712 0.0
C21 C 0.13167 0.17175 0.19771 0.0
C22 C 0.09869 0.13791 0.17278 0.0
C23 C 0.09478 0.18495 0.12681 0.0
C24 C 0.12748 0.21828 0.15162 0.0
N25 N 0.14494 0.21127 0.18649 0.0
N26 N 0.08095 0.14584 0.13789 0.0
H27 H 0.14571 0.16751 0.22562 0.0
C28 C 0.21936 0.30496 0.11469 0.0
O29 O 0.22473 0.26594 0.13324 0.0
O30 O 0.18594 0.25402 0.26385 0.0
H31 H 0.13853 0.2498 0.14315 0.0
H32 H 0.25466 0.4877 0.25455 0.0
H33 H 0.08025 0.19024 0.09893 0.0
Zn34 Zn 0.83011 0.76029 0.282 0.0
C35 C 0.88523 0.8762 0.34519 0.0
N36 N 0.91666 0.87616 0.33407 0.0
C37 C 0.89782 0.84195 0.30891 0.0
N38 N 0.85657 0.82214 0.30462 0.0
N39 N 0.84832 0.84419 0.32735 0.0
C40 C 0.79849 0.805 0.38684 0.0
O41 O 0.79322 0.76597 0.36833 0.0
O42 O 0.83191 0.75413 0.23766 0.0
Zn43 Zn 0.78624 0.84845 0.32475 0.0
N44 N 0.87299 0.7113 0.31501 0.0
C45 C 0.92324 0.68494 0.37468 0.0
C46 C 0.89051 0.71828 0.34989 0.0
C47 C 0.88625 0.67179 0.30376 0.0
N48 N 0.93704 0.64584 0.36357 0.0
C49 C 0.91925 0.63794 0.32867 0.0
O50 O 0.73662 0.7961 0.29578 0.0
C51 C 0.7292 0.75945 0.27624 0.0
O52 O 0.76132 0.74496 0.26983 0.0
H53 H 0.87948 0.74979 0.35838 0.0
H54 H 0.87217 0.66758 0.27585 0.0
C55 C 0.72333 0.93362 0.30704 0.0
C56 C 0.70319 0.97793 0.28936 0.0
C57 C 0.75168 0.97228 0.2637 0.0
C58 C 0.77084 0.92842 0.28079 0.0
N59 N 0.7568 0.91006 0.30234 0.0
N60 N 0.7185 0.99579 0.26833 0.0
H61 H 0.7131 0.9181 0.32448 0.0
C62 C 0.8022 0.77731 0.20969 0.0
O63 O 0.77006 0.80656 0.20984 0.0
O64 O 0.79763 0.84621 0.37384 0.0
H65 H 0.79671 0.90908 0.27676 0.0
H66 H 0.93781 0.69021 0.40257 0.0
H67 H 0.76278 0.98743 0.24664 0.0
Zn68 Zn 0.82937 0.77412 0.78198 0.0
C69 C 0.88727 0.65931 0.84599 0.0
N70 N 0.91862 0.66014 0.83481 0.0
C71 C 0.89885 0.69386 0.80929 0.0
N72 N 0.85708 0.71259 0.80484 0.0
N73 N 0.84949 0.69032 0.82783 0.0
C74 C 0.79961 0.72758 0.88712 0.0
O75 O 0.7942 0.76652 0.86848 0.0
O76 O 0.83057 0.7805 0.7374 0.0
Zn77 Zn 0.78753 0.68423 0.82516 0.0
N78 N 0.8719 0.82353 0.81474 0.0
C79 C 0.92178 0.85024 0.87434 0.0
C80 C 0.88913 0.81682 0.8496 0.0
C81 C 0.88538 0.86285 0.80345 0.0
N82 N 0.93581 0.88914 0.86322 0.0
C83 C 0.91833 0.89677 0.82833 0.0
O84 O 0.73715 0.7359 0.79625 0.0
C85 C 0.72886 0.77291 0.77684 0.0
O86 O 0.76048 0.78857 0.77027 0.0
H87 H 0.87798 0.78544 0.85811 0.0
H88 H 0.87156 0.86686 0.77557 0.0
C89 C 0.72504 0.59841 0.80661 0.0
C90 C 0.70636 0.55357 0.78936 0.0
C91 C 0.75786 0.55899 0.76614 0.0
C92 C 0.77561 0.60334 0.78278 0.0
N93 N 0.75943 0.62207 0.80298 0.0
N94 N 0.72387 0.53535 0.76978 0.0
H95 H 0.71294 0.61421 0.82289 0.0
C96 C 0.80112 0.75691 0.70957 0.0
O97 O 0.76951 0.72717 0.70997 0.0
O98 O 0.79891 0.68631 0.87425 0.0
H99 H 0.80211 0.62274 0.7795 0.0
H100 H 0.93612 0.84517 0.90222 0.0
H101 H 0.7707 0.54356 0.75019 0.0
Zn102 Zn 0.18815 0.27413 0.71944 0.0
C103 C 0.13029 0.15933 0.65543 0.0
N104 N 0.09893 0.16014 0.6666 0.0
C105 C 0.1187 0.19385 0.69213 0.0
N106 N 0.16046 0.2126 0.69658 0.0
N107 N 0.16806 0.19034 0.6736 0.0
C108 C 0.21798 0.22756 0.61432 0.0
O109 O 0.22336 0.26651 0.63292 0.0
O110 O 0.18696 0.28048 0.76403 0.0
Zn111 Zn 0.23004 0.18425 0.67628 0.0
N112 N 0.14559 0.32353 0.68667 0.0
C113 C 0.09567 0.35023 0.62707 0.0
C114 C 0.12834 0.31682 0.65181 0.0
C115 C 0.1321 0.36285 0.69796 0.0
N116 N 0.08164 0.38913 0.63819 0.0
C117 C 0.09914 0.39676 0.67308 0.0
O118 O 0.28039 0.23594 0.70518 0.0
C119 C 0.28866 0.27296 0.72458 0.0
O120 O 0.25703 0.2886 0.73114 0.0
H121 H 0.1395 0.28544 0.6433 0.0
H122 H 0.14594 0.36686 0.72584 0.0
C123 C 0.29254 0.09842 0.69487 0.0
C124 C 0.31123 0.0536 0.71214 0.0
C125 C 0.25976 0.05908 0.7354 0.0
C126 C 0.242 0.10342 0.71872 0.0
N127 N 0.25816 0.12211 0.6985 0.0
N128 N 0.29374 0.03541 0.73175 0.0
H129 H 0.30461 0.1142 0.67856 0.0
C130 C 0.21643 0.25689 0.79185 0.0
O131 O 0.24806 0.22717 0.79144 0.0
O132 O 0.21869 0.1863 0.6272 0.0
H133 H 0.2155 0.12283 0.72201 0.0
H134 H 0.08132 0.34516 0.59919 0.0
H135 H 0.24694 0.04367 0.75136 0.0
C136 C 0.37318 0.24883 0.23575 0.0
C137 C 0.3349 0.23134 0.23932 0.0
C138 C 0.4154 0.22104 0.24698 0.0
C139 C 0.45845 0.09506 0.26243 0.0
H140 H 0.58779 0.15368 0.30972 0.0
C141 C 0.63231 0.98334 0.29917 0.0
C142 C 0.66556 1.0058 0.29211 0.0
C143 C 0.59434 1.01004 0.29805 0.0
C144 C 0.55192 0.13673 0.2963 0.0
H145 H 0.31165 0.17096 0.25814 0.0
H146 H 0.38526 0.12248 0.27753 0.0
H147 H 0.51694 0.2022 0.29729 0.0
H148 H 0.68533 0.07446 0.27932 0.0
H149 H 0.61923 0.12022 0.27672 0.0
H150 H 0.49303 0.03001 0.26034 0.0
C151 C 0.38241 0.15768 0.26591 0.0
C152 C 0.51131 0.1646 0.28923 0.0
C153 C 0.34034 0.18565 0.25497 0.0
C154 C 0.66049 0.05574 0.28483 0.0
C155 C 0.62269 0.08226 0.28368 0.0
C156 C 0.49905 0.06723 0.26927 0.0
C157 C 0.42028 0.17489 0.26181 0.0
C158 C 0.46398 0.14431 0.27173 0.0
C159 C 0.58866 0.05977 0.28983 0.0
C160 C 0.54624 0.0879 0.28578 0.0
H161 H 0.37033 0.28381 0.22384 0.0
H162 H 0.44366 0.23517 0.24311 0.0
H163 H 0.42241 0.07843 0.2486 0.0
H164 H 0.63433 0.94489 0.30434 0.0
H165 H 0.56908 0.99156 0.30325 0.0
C166 C 0.35735 0.55573 0.21662 0.0
C167 C 0.3523 0.50578 0.20941 0.0
C168 C 0.39519 0.58222 0.21781 0.0
C169 C 0.51893 0.56714 0.2324 0.0
H170 H 0.50102 0.70206 0.20421 0.0
C171 C 0.67765 0.68554 0.24668 0.0
C172 C 0.68305 0.73126 0.26226 0.0
C173 C 0.6356 0.65754 0.23575 0.0
C174 C 0.50666 0.66447 0.21233 0.0
H175 H 0.38364 0.44481 0.19732 0.0
H176 H 0.44895 0.49143 0.19847 0.0
H177 H 0.43016 0.65355 0.19177 0.0
H178 H 0.64756 0.78375 0.27766 0.0
H179 H 0.57425 0.7351 0.25842 0.0
H180 H 0.59558 0.57835 0.25312 0.0
C181 C 0.42364 0.50994 0.2036 0.0
C182 C 0.46604 0.63661 0.20525 0.0
C183 C 0.38563 0.48327 0.20244 0.0
C184 C 0.64474 0.74875 0.2658 0.0
C185 C 0.60253 0.72095 0.25458 0.0
C186 C 0.55953 0.59496 0.23925 0.0
C187 C 0.42928 0.55969 0.21175 0.0
C188 C 0.47172 0.58781 0.21582 0.0
C189 C 0.59769 0.67477 0.23981 0.0
C190 C 0.554 0.6442 0.22988 0.0
H191 H 0.33245 0.57449 0.22206 0.0
H192 H 0.39862 0.6202 0.22473 0.0
H193 H 0.52495 0.52994 0.24137 0.0
H194 H 0.70637 0.67083 0.24354 0.0
H195 H 0.63279 0.62232 0.22417 0.0
C196 C 0.38561 0.04788 0.70631 0.0
C197 C 0.34967 0.02549 0.71059 0.0
C198 C 0.42472 0.02083 0.70938 0.0
C199 C 0.4952 0.91039 0.75273 0.0
H200 H 0.54572 0.92248 0.69119 0.0
C201 C 0.64457 0.78103 0.76693 0.0
C202 C 0.68249 0.8004 0.76371 0.0
C203 C 0.60265 0.80832 0.75741 0.0
C204 C 0.53241 0.91903 0.70887 0.0
H205 H 0.32569 0.95652 0.71956 0.0
H206 H 0.39333 0.90996 0.72483 0.0
H207 H 0.47523 0.97144 0.67989 0.0
H208 H 0.70519 0.86349 0.74697 0.0
H209 H 0.63252 0.91143 0.73106 0.0
H210 H 0.55241 0.85898 0.78217 0.0
C211 C 0.39183 0.94845 0.71971 0.0
C212 C 0.49197 0.94707 0.70233 0.0
C213 C 0.3529 0.97525 0.71657 0.0
C214 C 0.67669 0.84732 0.74972 0.0
C215 C 0.63483 0.87481 0.74045 0.0
C216 C 0.53563 0.88272 0.75939 0.0
C217 C 0.42885 0.971 0.71699 0.0
C218 C 0.47261 0.94265 0.72401 0.0
C219 C 0.59759 0.85596 0.74472 0.0
C220 C 0.55459 0.88622 0.7374 0.0
H221 H 0.38493 0.08653 0.7022 0.0
H222 H 0.45283 0.03929 0.70731 0.0
H223 H 0.48191 0.90688 0.77043 0.0
H224 H 0.64748 0.74488 0.77725 0.0
H225 H 0.57428 0.79206 0.76027 0.0
C226 C 0.63194 0.5479 0.79514 0.0
C227 C 0.6679 0.52548 0.79091 0.0
C228 C 0.59281 0.52086 0.79206 0.0
C229 C 0.52236 0.41042 0.74875 0.0
H230 H 0.47173 0.42257 0.81021 0.0
C231 C 0.37296 0.28109 0.73452 0.0
C232 C 0.33502 0.30046 0.73771 0.0
C233 C 0.41488 0.30837 0.74404 0.0
C234 C 0.48507 0.4191 0.79256 0.0
H235 H 0.69192 0.45649 0.78201 0.0
H236 H 0.62425 0.40996 0.77672 0.0
H237 H 0.54223 0.47152 0.82153 0.0
H238 H 0.31227 0.36356 0.7544 0.0
H239 H 0.38494 0.41151 0.77032 0.0
H240 H 0.46516 0.35901 0.7193 0.0
C241 C 0.62574 0.44845 0.78181 0.0
C242 C 0.52552 0.44714 0.79911 0.0
C243 C 0.66469 0.47523 0.78496 0.0
C244 C 0.3408 0.34738 0.75167 0.0
C245 C 0.38265 0.37488 0.76095 0.0
C246 C 0.48192 0.38277 0.74207 0.0
C247 C 0.58869 0.47102 0.78449 0.0
C248 C 0.54491 0.4427 0.77745 0.0
C249 C 0.41991 0.35603 0.7567 0.0
C250 C 0.46291 0.38628 0.76404 0.0
H251 H 0.6326 0.58655 0.79923 0.0
H252 H 0.56468 0.53934 0.79411 0.0
H253 H 0.53567 0.40689 0.73107 0.0
H254 H 0.37007 0.24492 0.72421 0.0
H255 H 0.44327 0.29211 0.7412 0.0
C256 C 0.11381 0.06918 0.21441 0.0
C257 C 0.08174 0.09495 0.18334 0.0
C258 C 0.09716 0.02886 0.22407 0.0
C259 C 0.99101 0.94255 0.19043 0.0
H260 H 0.04001 0.92974 0.29029 0.0
C261 C 0.88742 0.85913 0.25112 0.0
C262 C 0.91523 0.83743 0.28457 0.0
C263 C 0.91023 0.87566 0.23368 0.0
C264 C 0.02663 0.93198 0.26235 0.0
H265 H 1.00735 0.09821 0.13777 0.0
H266 H 0.97766 0.02947 0.15528 0.0
H267 H 0.07518 0.99031 0.27096 0.0
H268 H 0.98767 0.81289 0.32499 0.0
H269 H 0.02766 0.84123 0.29448 0.0
H270 H 0.94013 0.88585 0.18207 0.0
C271 C 0.01605 0.03925 0.1718 0.0
C272 C 0.04688 0.9669 0.25118 0.0
C273 C 0.03294 0.07904 0.16187 0.0
C274 C 0.9653 0.82849 0.29882 0.0
C275 C 0.98823 0.84529 0.28156 0.0
C276 C 0.97023 0.90794 0.20164 0.0
C277 C 0.04782 1.01372 0.2032 0.0
C278 C 0.02891 0.97331 0.21502 0.0
C279 C 0.96144 0.87168 0.24989 0.0
C280 C 0.98745 0.90273 0.23772 0.0
H281 H 0.15197 0.07977 0.23108 0.0
H282 H 0.12313 1.00959 0.24798 0.0
H283 H 0.97678 0.94564 0.16242 0.0
H284 H 0.84931 0.86852 0.2404 0.0
H285 H 0.88862 0.89619 0.20948 0.0
C286 C 0.1302 0.35885 0.25018 0.0
C287 C 0.10235 0.33721 0.21672 0.0
C288 C 0.10743 0.37547 0.26762 0.0
C289 C 0.99112 0.43203 0.23898 0.0
H290 H 0.041 0.4456 0.33892 0.0
C291 C 0.90408 0.56926 0.287 0.0
C292 C 0.93617 0.59499 0.31808 0.0
C293 C 0.9207 0.52895 0.27731 0.0
C294 C 0.02676 0.44254 0.3109 0.0
H295 H 0.02985 0.31283 0.17628 0.0
H296 H 0.98992 0.3413 0.2068 0.0
H297 H 0.07757 0.38576 0.31924 0.0
H298 H 0.01058 0.59819 0.36364 0.0
H299 H 0.04021 0.52945 0.34608 0.0
H300 H 0.94264 0.49042 0.2304 0.0
C301 C 0.02936 0.34527 0.21972 0.0
C302 C 0.04749 0.4079 0.29967 0.0
C303 C 0.05226 0.32839 0.20246 0.0
C304 C 0.98497 0.57905 0.33953 0.0
C305 C 1.00183 0.53926 0.32957 0.0
C306 C 0.97092 0.46697 0.25017 0.0
C307 C 0.0562 0.37161 0.25141 0.0
C308 C 0.03026 0.40272 0.26359 0.0
C309 C 0.97003 0.51377 0.29817 0.0
C310 C 0.9889 0.47335 0.28633 0.0
H311 H 0.16834 0.36815 0.26091 0.0
H312 H 0.12908 0.39595 0.29183 0.0
H313 H 0.97773 0.42981 0.21103 0.0
H314 H 0.86592 0.57987 0.27034 0.0
H315 H 0.89471 0.5097 0.2534 0.0
C316 C 0.98437 0.95526 0.83926 0.0
C317 C 0.93552 0.93952 0.81775 0.0
C318 C 1.00145 0.99496 0.82938 0.0
C319 C 0.97084 0.06776 0.75017 0.0
H320 H 0.07783 0.14836 0.81954 0.0
C321 C 0.05189 0.2073 0.70292 0.0
C322 C 0.10186 0.19822 0.71682 0.0
C323 C 0.02923 0.19015 0.72027 0.0
C324 C 0.04766 0.12639 0.7999 0.0
H325 H 0.86541 0.95484 0.76996 0.0
H326 H 0.89454 0.02491 0.75317 0.0
H327 H 0.04115 0.08833 0.83901 0.0
H328 H 0.16789 0.16662 0.76055 0.0
H329 H 0.12906 0.13839 0.79168 0.0
H330 H 0.97761 0.10535 0.71116 0.0
C331 C 0.92043 1.00557 0.77706 0.0
C332 C 0.02687 0.09163 0.81101 0.0
C333 C 0.9036 0.96532 0.78666 0.0
C334 C 0.12988 0.17613 0.75011 0.0
C335 C 0.10734 0.15925 0.76766 0.0
C336 C 0.99108 0.10284 0.73911 0.0
C337 C 0.96981 0.02059 0.79801 0.0
C338 C 0.98886 0.06105 0.78632 0.0
C339 C 0.05618 0.16331 0.75172 0.0
C340 C 0.03032 0.13195 0.76383 0.0
H341 H 0.00986 0.93604 0.86337 0.0
H342 H 0.03986 1.00462 0.84595 0.0
H343 H 0.94246 0.04449 0.73031 0.0
H344 H 0.02934 0.22322 0.67687 0.0
H345 H 0.98983 0.19428 0.70757 0.0
C346 C 0.11387 0.46532 0.71473 0.0
C347 C 0.08194 0.43951 0.68366 0.0
C348 C 0.09705 0.50557 0.72433 0.0
C349 C 0.99058 0.59162 0.69038 0.0
H350 H 0.03992 0.60541 0.79023 0.0
C351 C 0.88764 0.67612 0.75132 0.0
C352 C 0.91567 0.69824 0.78459 0.0
C353 C 0.91016 0.65924 0.73376 0.0
C354 C 0.02643 0.60288 0.76228 0.0
H355 H 1.0076 0.43601 0.63805 0.0
H356 H 0.97759 0.50459 0.65546 0.0
H357 H 0.07505 0.54453 0.77109 0.0
H358 H 0.98818 0.72329 0.8245 0.0
H359 H 0.02766 0.69435 0.79378 0.0
H360 H 0.93962 0.64834 0.68184 0.0
C361 C 0.01601 0.49494 0.67203 0.0
C362 C 0.04666 0.56779 0.75122 0.0
C363 C 0.03309 0.45523 0.66215 0.0
C364 C 0.96562 0.70735 0.79846 0.0
C365 C 0.98827 0.6902 0.78109 0.0
C366 C 0.9698 0.62639 0.70148 0.0
C367 C 0.04766 0.52058 0.70339 0.0
C368 C 0.02862 0.56106 0.71507 0.0
C369 C 0.96132 0.66334 0.74967 0.0
C370 C 0.98717 0.63198 0.73756 0.0
H371 H 0.15206 0.45485 0.73143 0.0
H372 H 0.12294 0.52492 0.74821 0.0
H373 H 0.97628 0.5883 0.66237 0.0
H374 H 0.84964 0.66659 0.7409 0.0
H375 H 0.88844 0.63837 0.70975 0.0
C376 C 0.90479 0.57784 0.87256 0.0
C377 C 0.89516 0.62682 0.87457 0.0
C378 C 0.92843 0.54934 0.90302 0.0
C379 C 0.97201 0.54486 0.99857 0.0
H380 H 0.0777 0.46856 0.0046 0.0
C381 C 0.11574 0.45713 0.12937 0.0
C382 C 0.12498 0.408 0.12749 0.0
C383 C 0.09216 0.48545 0.09882 0.0
C384 C 0.0482 0.48939 0.00327 0.0
H385 H 0.90074 0.68426 0.90939 0.0
H386 H 0.9416 0.63445 0.96284 0.0
H387 H 0.02122 0.51186 0.95016 0.0
H388 H 0.11882 0.3501 0.09278 0.0
H389 H 0.07817 0.39965 0.03918 0.0
H390 H 0.99904 0.52245 0.05169 0.0
C391 C 0.93031 0.61765 0.93771 0.0
C392 C 0.01557 0.51402 0.97198 0.0
C393 C 0.90639 0.64613 0.90708 0.0
C394 C 0.11351 0.38834 0.09501 0.0
C395 C 0.08969 0.41667 0.06429 0.0
C396 C 1.00466 0.52027 0.02985 0.0
C397 C 0.94361 0.56952 0.93622 0.0
C398 C 0.97699 0.542 0.96921 0.0
C399 C 0.0767 0.46495 0.06567 0.0
C400 C 0.04325 0.49232 0.03263 0.0
H401 H 0.89691 0.56244 0.84773 0.0
H402 H 0.93702 0.51212 0.90079 0.0
H403 H 0.9425 0.56567 0.99724 0.0
H404 H 0.12378 0.4728 0.15417 0.0
H405 H 0.08378 0.52279 0.10094 0.0
C406 C 0.90408 0.88869 0.40627 0.0
C407 C 0.89265 0.90837 0.3738 0.0
C408 C 0.92788 0.91699 0.43699 0.0
C409 C 0.01295 0.02054 0.47149 0.0
H410 H 0.99631 1.01204 0.55115 0.0
C411 C 0.11119 0.14625 0.59434 0.0
C412 C 0.1224 0.12687 0.62684 0.0
C413 C 0.08728 0.11781 0.56369 0.0
C414 C 1.00198 1.01423 0.52934 0.0
H415 H 0.89391 0.97318 0.34715 0.0
H416 H 0.93389 0.02313 0.40039 0.0
H417 H 0.93984 0.96882 0.49668 0.0
H418 H 0.12062 0.06245 0.65363 0.0
H419 H 0.08052 1.01221 0.60053 0.0
H420 H 0.07512 0.0659 0.50414 0.0
C421 C 0.92549 0.9858 0.40249 0.0
C422 C 0.96936 0.98965 0.49803 0.0
C423 C 0.90191 0.9575 0.37193 0.0
C424 C 0.11276 0.07789 0.62882 0.0
C425 C 0.08912 0.04944 0.59834 0.0
C426 C 0.0456 0.0451 0.5028 0.0
C427 C 0.9409 0.96527 0.43563 0.0
C428 C 0.97434 0.99261 0.46868 0.0
C429 C 0.07396 0.06967 0.56515 0.0
C430 C 0.04058 0.0422 0.53214 0.0
H431 H 0.89875 0.85045 0.40848 0.0
H432 H 0.93937 0.89996 0.46209 0.0
H433 H 0.01859 0.02275 0.44966 0.0
H434 H 0.11686 0.18438 0.59205 0.0
H435 H 0.07601 0.13465 0.53857 0.0
C436 C 0.23652 0.22726 0.85111 0.0
C437 C 0.21412 0.26181 0.82396 0.0
C438 C 0.23483 0.23211 0.88163 0.0
C439 C 0.17036 0.29793 0.9186 0.0
H440 H 0.28442 0.25772 0.00795 0.0
C441 C 0.19974 0.34009 0.0566 0.0
C442 C 0.21517 0.30072 0.08012 0.0
C443 C 0.19747 0.33594 0.02447 0.0
C444 C 0.25219 0.26885 0.98315 0.0
H445 H 0.17207 0.32844 0.80738 0.0
H446 H 0.1706 0.33792 0.86109 0.0
H447 H 0.2849 0.24965 0.95384 0.0
H448 H 0.2398 0.22607 0.0882 0.0
H449 H 0.23654 0.21922 0.03255 0.0
H450 H 0.13842 0.31826 0.94852 0.0
C451 C 0.18851 0.30637 0.85859 0.0
C452 C 0.25228 0.26398 0.95203 0.0
C453 C 0.18963 0.30113 0.82784 0.0
C454 C 0.22778 0.25709 0.07071 0.0
C455 C 0.2262 0.2532 0.03892 0.0
C456 C 0.17057 0.30338 0.94987 0.0
C457 C 0.2113 0.27203 0.88601 0.0
C458 C 0.21122 0.27805 0.91924 0.0
C459 C 0.21131 0.29262 0.01556 0.0
C460 C 0.21133 0.28849 0.98241 0.0
H461 H 0.25508 0.19618 0.84869 0.0
H462 H 0.25179 0.20428 0.9017 0.0
H463 H 0.13779 0.30856 0.89387 0.0
H464 H 0.18954 0.3741 0.06305 0.0
H465 H 0.18599 0.36694 0.00697 0.0
C466 C 0.78112 0.72728 0.65034 0.0
C467 C 0.80346 0.76184 0.67747 0.0
C468 C 0.78283 0.73214 0.61983 0.0
C469 C 0.84728 0.79805 0.58288 0.0
H470 H 0.73333 0.75771 0.49352 0.0
C471 C 0.818 0.84017 0.44489 0.0
C472 C 0.80265 0.80077 0.4214 0.0
C473 C 0.82023 0.83603 0.47701 0.0
C474 C 0.76554 0.76887 0.51832 0.0
H475 H 0.84542 0.82852 0.69404 0.0
H476 H 0.84693 0.83802 0.64034 0.0
H477 H 0.7328 0.74963 0.54761 0.0
H478 H 0.77814 0.72608 0.41336 0.0
H479 H 0.78134 0.71925 0.469 0.0
H480 H 0.87925 0.81842 0.55297 0.0
C481 C 0.82906 0.80645 0.64285 0.0
C482 C 0.76541 0.764 0.54943 0.0
C483 C 0.82791 0.8012 0.67359 0.0
C484 C 0.79009 0.75713 0.43084 0.0
C485 C 0.79164 0.75324 0.46261 0.0
C486 C 0.8471 0.80351 0.55161 0.0
C487 C 0.80633 0.77209 0.61544 0.0
C488 C 0.80643 0.77812 0.58223 0.0
C489 C 0.80644 0.79268 0.48594 0.0
C490 C 0.80638 0.78856 0.51908 0.0
H491 H 0.76259 0.69617 0.65276 0.0
H492 H 0.76592 0.70429 0.59977 0.0
H493 H 0.87983 0.80871 0.60761 0.0
H494 H 0.82815 0.87419 0.43842 0.0
H495 H 0.83164 0.86704 0.49448 0.0
C496 C 0.8194 0.69281 0.94533 0.0
C497 C 0.80374 0.732 0.92165 0.0
C498 C 0.82166 0.69715 0.97745 0.0
C499 C 0.76659 0.76427 0.0185 0.0
H500 H 0.88137 0.72574 0.10795 0.0
C501 C 0.782 0.80665 0.15034 0.0
C502 C 0.80468 0.77236 0.17765 0.0
C503 C 0.78375 0.80169 0.11985 0.0
C504 C 0.84869 0.73603 0.08318 0.0
H505 H 0.77867 0.80651 0.91323 0.0
H506 H 0.78191 0.8137 0.96886 0.0
H507 H 0.88073 0.71566 0.05332 0.0
H508 H 0.84731 0.7061 0.19457 0.0
H509 H 0.84888 0.6964 0.14092 0.0
H510 H 0.73379 0.7835 0.04775 0.0
C511 C 0.79245 0.77971 0.96264 0.0
C512 C 0.84847 0.73036 0.05191 0.0
C513 C 0.79087 0.77563 0.93087 0.0
C514 C 0.82954 0.7332 0.17398 0.0
C515 C 0.83071 0.72784 0.14327 0.0
C516 C 0.76651 0.76935 0.04961 0.0
C517 C 0.80757 0.74049 0.98617 0.0
C518 C 0.80756 0.74483 0.01931 0.0
C519 C 0.80762 0.7619 0.11567 0.0
C520 C 0.8077 0.7557 0.08246 0.0
H521 H 0.8298 0.6588 0.93903 0.0
H522 H 0.83332 0.66631 0.99509 0.0
H523 H 0.73425 0.77507 0.99365 0.0
H524 H 0.76316 0.8376 0.1526 0.0
H525 H 0.76655 0.82932 0.09965 0.0
C526 C 0.19824 0.19274 0.55612 0.0
C527 C 0.21388 0.23195 0.57979 0.0
C528 C 0.19601 0.19706 0.52401 0.0
C529 C 0.25113 0.26412 0.48298 0.0
H530 H 0.13638 0.2256 0.39351 0.0
C531 C 0.23581 0.3065 0.35117 0.0
C532 C 0.21314 0.27223 0.32386 0.0
C533 C 0.23405 0.30153 0.38165 0.0
C534 C 0.16906 0.23588 0.41829 0.0
H535 H 0.23894 0.30646 0.58817 0.0
H536 H 0.23575 0.3136 0.53256 0.0
H537 H 0.13698 0.21553 0.44813 0.0
H538 H 0.17051 0.20597 0.30692 0.0
H539 H 0.1689 0.19625 0.36056 0.0
H540 H 0.28397 0.28332 0.45375 0.0
C541 C 0.2252 0.27962 0.5388 0.0
C542 C 0.16925 0.23023 0.44955 0.0
C543 C 0.22675 0.27557 0.57055 0.0
C544 C 0.18827 0.23307 0.32751 0.0
C545 C 0.18708 0.2277 0.35822 0.0
C546 C 0.25124 0.26918 0.45188 0.0
C547 C 0.2101 0.24038 0.51528 0.0
C548 C 0.21014 0.2447 0.48215 0.0
C549 C 0.21017 0.26175 0.38583 0.0
C550 C 0.21006 0.25554 0.41902 0.0
H551 H 0.18783 0.15875 0.56244 0.0
H552 H 0.18436 0.1662 0.50639 0.0
H553 H 0.28346 0.27492 0.50784 0.0
H554 H 0.25467 0.33746 0.34892 0.0
H555 H 0.25124 0.32916 0.40186 0.0
loop_
_geom_bond_atom_site_label_1
_geom_bond_atom_site_label_2
_geom_bond_distance
_geom_bond_site_symmetry_2
_ccdc_geom_bond_type
Zn0 N4 2.020 . S
Zn0 O8 2.019 . S
Zn0 N10 2.119 . S
Zn0 O18 1.975 . S
C1 N2 1.334 . S
C1 N5 1.336 . S
N2 C1 1.334 . S
N2 C3 1.334 . S
C3 N2 1.334 . S
C3 N4 1.336 . S
N4 Zn0 2.020 . S
N4 C3 1.336 . S
N4 N5 1.354 . S
N5 C1 1.336 . S
N5 N4 1.354 . S
N5 Zn9 2.020 . S
C6 O7 1.244 . S
C6 O30 1.257 . S
O7 C6 1.244 . S
O8 Zn0 2.019 . S
O8 C28 1.257 . S
Zn9 N5 2.020 . S
Zn9 O16 1.975 . S
Zn9 N25 2.119 . S
Zn9 O30 2.019 . S
N10 Zn0 2.119 . S
N10 C12 1.334 . S
N10 C13 1.328 . S
C11 C12 1.391 . S
C11 N14 1.329 . S
C11 H32 0.930 . S
C12 N10 1.334 . S
C12 C11 1.391 . S
C12 H19 0.930 . S
C13 N10 1.328 . S
C13 C15 1.392 . S
C13 H20 0.930 . S
N14 C11 1.329 . S
N14 C15 1.331 . S
C15 C13 1.392 . S
C15 N14 1.331 . S
O16 Zn9 1.975 . S
O16 C17 1.252 . S
C17 O16 1.252 . S
C17 O18 1.252 . S
O18 Zn0 1.975 . S
O18 C17 1.252 . S
H19 C12 0.930 . S
H20 C13 0.930 . S
C21 C22 1.392 . S
C21 N25 1.328 . S
C21 H27 0.930 . S
C22 C21 1.392 . S
C22 N26 1.331 . S
C23 C24 1.391 . S
C23 N26 1.329 . S
C23 H33 0.930 . S
C24 C23 1.391 . S
C24 N25 1.334 . S
C24 H31 0.930 . S
N25 Zn9 2.119 . S
N25 C21 1.328 . S
N25 C24 1.334 . S
N26 C22 1.331 . S
N26 C23 1.329 . S
H27 C21 0.930 . S
C28 O8 1.257 . S
C28 O29 1.244 . S
O29 C28 1.244 . S
O30 C6 1.257 . S
O30 Zn9 2.019 . S
H31 C24 0.930 . S
H32 C11 0.930 . S
H33 C23 0.930 . S
Zn34 N38 2.020 . S
Zn34 O42 2.019 . S
Zn34 N44 2.119 . S
Zn34 O52 1.975 . S
C35 N36 1.334 . S
C35 N39 1.336 . S
N36 C35 1.334 . S
N36 C37 1.334 . S
C37 N36 1.334 . S
C37 N38 1.336 . S
N38 Zn34 2.020 . S
N38 C37 1.336 . S
N38 N39 1.354 . S
N39 C35 1.336 . S
N39 N38 1.354 . S
N39 Zn43 2.020 . S
C40 O41 1.244 . S
C40 O64 1.257 . S
O41 C40 1.244 . S
O42 Zn34 2.019 . S
O42 C62 1.257 . S
Zn43 N39 2.020 . S
Zn43 O50 1.975 . S
Zn43 N59 2.119 . S
Zn43 O64 2.019 . S
N44 Zn34 2.119 . S
N44 C46 1.334 . S
N44 C47 1.328 . S
C45 C46 1.391 . S
C45 N48 1.329 . S
C45 H66 0.930 . S
C46 N44 1.334 . S
C46 C45 1.391 . S
C46 H53 0.930 . S
C47 N44 1.328 . S
C47 C49 1.392 . S
C47 H54 0.930 . S
N48 C45 1.329 . S
N48 C49 1.331 . S
C49 C47 1.392 . S
C49 N48 1.331 . S
O50 Zn43 1.975 . S
O50 C51 1.252 . S
C51 O50 1.252 . S
C51 O52 1.252 . S
O52 Zn34 1.975 . S
O52 C51 1.252 . S
H53 C46 0.930 . S
H54 C47 0.930 . S
C55 C56 1.392 . S
C55 N59 1.328 . S
C55 H61 0.930 . S
C56 C55 1.392 . S
C56 N60 1.331 . S
C57 C58 1.391 . S
C57 N60 1.329 . S
C57 H67 0.930 . S
C58 C57 1.391 . S
C58 N59 1.334 . S
C58 H65 0.930 . S
N59 Zn43 2.119 . S
N59 C55 1.328 . S
N59 C58 1.334 . S
N60 C56 1.331 . S
N60 C57 1.329 . S
H61 C55 0.930 . S
C62 O42 1.257 . S
C62 O63 1.244 . S
O63 C62 1.244 . S
O64 C40 1.257 . S
O64 Zn43 2.019 . S
H65 C58 0.930 . S
H66 C45 0.930 . S
H67 C57 0.930 . S
Zn68 N72 2.020 . S
Zn68 O76 2.019 . S
Zn68 N78 2.119 . S
Zn68 O86 1.975 . S
C69 N70 1.334 . S
C69 N73 1.336 . S
N70 C69 1.334 . S
N70 C71 1.334 . S
C71 N70 1.334 . S
C71 N72 1.336 . S
N72 Zn68 2.020 . S
N72 C71 1.336 . S
N72 N73 1.354 . S
N73 C69 1.336 . S
N73 N72 1.354 . S
N73 Zn77 2.020 . S
C74 O75 1.244 . S
C74 O98 1.257 . S
O75 C74 1.244 . S
O76 Zn68 2.019 . S
O76 C96 1.257 . S
Zn77 N73 2.020 . S
Zn77 O84 1.975 . S
Zn77 N93 2.119 . S
Zn77 O98 2.019 . S
N78 Zn68 2.119 . S
N78 C80 1.334 . S
N78 C81 1.328 . S
C79 C80 1.391 . S
C79 N82 1.329 . S
C79 H100 0.930 . S
C80 N78 1.334 . S
C80 C79 1.391 . S
C80 H87 0.930 . S
C81 N78 1.328 . S
C81 C83 1.392 . S
C81 H88 0.930 . S
N82 C79 1.329 . S
N82 C83 1.331 . S
C83 C81 1.392 . S
C83 N82 1.331 . S
O84 Zn77 1.975 . S
O84 C85 1.252 . S
C85 O84 1.252 . S
C85 O86 1.252 . S
O86 Zn68 1.975 . S
O86 C85 1.252 . S
H87 C80 0.930 . S
H88 C81 0.930 . S
C89 C90 1.392 . S
C89 N93 1.328 . S
C89 H95 0.930 . S
C90 C89 1.392 . S
C90 N94 1.331 . S
C91 C92 1.391 . S
C91 N94 1.329 . S
C91 H101 0.930 . S
C92 C91 1.391 . S
C92 N93 1.334 . S
C92 H99 0.930 . S
N93 Zn77 2.119 . S
N93 C89 1.328 . S
N93 C92 1.334 . S
N94 C90 1.331 . S
N94 C91 1.329 . S
H95 C89 0.930 . S
C96 O76 1.257 . S
C96 O97 1.244 . S
O97 C96 1.244 . S
O98 C74 1.257 . S
O98 Zn77 2.019 . S
H99 C92 0.930 . S
H100 C79 0.930 . S
H101 C91 0.930 . S
Zn102 N106 2.020 . S
Zn102 O110 2.019 . S
Zn102 N112 2.119 . S
Zn102 O120 1.975 . S
C103 N104 1.334 . S
C103 N107 1.336 . S
N104 C103 1.334 . S
N104 C105 1.334 . S
C105 N104 1.334 . S
C105 N106 1.336 . S
N106 Zn102 2.020 . S
N106 C105 1.336 . S
N106 N107 1.354 . S
N107 C103 1.336 . S
N107 N106 1.354 . S
N107 Zn111 2.020 . S
C108 O109 1.244 . S
C108 O132 1.257 . S
O109 C108 1.244 . S
O110 Zn102 2.019 . S
O110 C130 1.257 . S
Zn111 N107 2.020 . S
Zn111 O118 1.975 . S
Zn111 N127 2.119 . S
Zn111 O132 2.019 . S
N112 Zn102 2.119 . S
N112 C114 1.334 . S
N112 C115 1.328 . S
C113 C114 1.391 . S
C113 N116 1.329 . S
C113 H134 0.930 . S
C114 N112 1.334 . S
C114 C113 1.391 . S
C114 H121 0.930 . S
C115 N112 1.328 . S
C115 C117 1.392 . S
C115 H122 0.930 . S
N116 C113 1.329 . S
N116 C117 1.331 . S
C117 C115 1.392 . S
C117 N116 1.331 . S
O118 Zn111 1.975 . S
O118 C119 1.252 . S
C119 O118 1.252 . S
C119 O120 1.252 . S
O120 Zn102 1.975 . S
O120 C119 1.252 . S
H121 C114 0.930 . S
H122 C115 0.930 . S
C123 C124 1.392 . S
C123 N127 1.328 . S
C123 H129 0.930 . S
C124 C123 1.392 . S
C124 N128 1.331 . S
C125 C126 1.391 . S
C125 N128 1.329 . S
C125 H135 0.930 . S
C126 C125 1.391 . S
C126 N127 1.334 . S
C126 H133 0.930 . S
N127 Zn111 2.119 . S
N127 C123 1.328 . S
N127 C126 1.334 . S
N128 C124 1.331 . S
N128 C125 1.329 . S
H129 C123 0.930 . S
C130 O110 1.257 . S
C130 O131 1.244 . S
O131 C130 1.244 . S
O132 C108 1.257 . S
O132 Zn111 2.019 . S
H133 C126 0.930 . S
H134 C113 0.930 . S
H135 C125 0.930 . S
C136 C137 1.349 . S
C136 C138 1.327 . S
C136 H161 0.950 . S
C137 C136 1.349 . S
C137 C153 1.349 . S
C138 C136 1.327 . S
C138 C157 1.429 . S
C138 H162 0.950 . S
C139 C156 1.574 . S
C139 C158 1.368 . S
C139 H163 0.949 . S
H140 C144 0.949 1_565 S
C141 C142 1.349 . S
C141 C143 1.327 . S
C141 H164 0.950 . S
C142 C141 1.349 . S
C142 C154 1.349 . S
C143 C141 1.327 . S
C143 C159 1.429 . S
C143 H165 0.950 . S
C144 H140 0.949 1_545 S
C144 C152 1.574 . S
C144 C160 1.368 . S
H145 C153 0.950 . S
H146 C151 0.950 . S
H147 C152 0.949 . S
H148 C154 0.950 . S
H149 C155 0.950 . S
H150 C156 0.949 . S
C151 H146 0.950 . S
C151 C153 1.327 . S
C151 C157 1.429 . S
C152 C144 1.574 . S
C152 H147 0.949 . S
C152 C158 1.368 . S
C153 C137 1.349 . S
C153 H145 0.950 . S
C153 C151 1.327 . S
C154 C142 1.349 . S
C154 H148 0.950 . S
C154 C155 1.327 . S
C155 H149 0.950 . S
C155 C154 1.327 . S
C155 C159 1.429 . S
C156 C139 1.574 . S
C156 H150 0.949 . S
C156 C160 1.368 . S
C157 C138 1.429 . S
C157 C151 1.429 . S
C157 C158 1.523 . S
C158 C139 1.368 . S
C158 C152 1.368 . S
C158 C157 1.523 . S
C159 C143 1.429 . S
C159 C155 1.429 . S
C159 C160 1.523 1_565 S
C160 C144 1.368 . S
C160 C156 1.368 . S
C160 C159 1.523 1_545 S
H161 C136 0.950 . S
H162 C138 0.950 . S
H163 C139 0.949 . S
H164 C141 0.950 . S
H165 C143 0.950 . S
C166 C167 1.349 . S
C166 C168 1.327 . S
C166 H191 0.950 . S
C167 C166 1.349 . S
C167 C183 1.349 . S
C168 C166 1.327 . S
C168 C187 1.429 . S
C168 H192 0.950 . S
C169 C186 1.574 . S
C169 C188 1.368 . S
C169 H193 0.949 . S
H170 C174 0.949 . S
C171 C172 1.349 . S
C171 C173 1.327 . S
C171 H194 0.950 . S
C172 C171 1.349 . S
C172 C184 1.349 . S
C173 C171 1.327 . S
C173 C189 1.429 . S
C173 H195 0.950 . S
C174 H170 0.949 . S
C174 C182 1.574 . S
C174 C190 1.368 . S
H175 C183 0.950 . S
H176 C181 0.950 . S
H177 C182 0.949 . S
H178 C184 0.950 . S
H179 C185 0.950 . S
H180 C186 0.949 . S
C181 H176 0.950 . S
C181 C183 1.327 . S
C181 C187 1.429 . S
C182 C174 1.574 . S
C182 H177 0.949 . S
C182 C188 1.368 . S
C183 C167 1.349 . S
C183 H175 0.950 . S
C183 C181 1.327 . S
C184 C172 1.349 . S
C184 H178 0.950 . S
C184 C185 1.327 . S
C185 H179 0.950 . S
C185 C184 1.327 . S
C185 C189 1.429 . S
C186 C169 1.574 . S
C186 H180 0.949 . S
C186 C190 1.368 . S
C187 C168 1.429 . S
C187 C181 1.429 . S
C187 C188 1.523 . S
C188 C169 1.368 . S
C188 C182 1.368 . S
C188 C187 1.523 . S
C189 C173 1.429 . S
C189 C185 1.429 . S
C189 C190 1.523 . S
C190 C174 1.368 . S
C190 C186 1.368 . S
C190 C189 1.523 . S
H191 C166 0.950 . S
H192 C168 0.950 . S
H193 C169 0.949 . S
H194 C171 0.950 . S
H195 C173 0.950 . S
C196 C197 1.349 . S
C196 C198 1.327 . S
C196 H221 0.950 . S
C197 C196 1.349 . S
C197 C213 1.349 . S
C198 C196 1.327 . S
C198 C217 1.429 . S
C198 H222 0.950 . S
C199 C216 1.574 . S
C199 C218 1.368 . S
C199 H223 0.949 . S
H200 C204 0.949 . S
C201 C202 1.349 . S
C201 C203 1.327 . S
C201 H224 0.950 . S
C202 C201 1.349 . S
C202 C214 1.349 . S
C203 C201 1.327 . S
C203 C219 1.429 . S
C203 H225 0.950 . S
C204 H200 0.949 . S
C204 C212 1.574 . S
C204 C220 1.368 . S
H205 C213 0.950 . S
H206 C211 0.950 1_565 S
H207 C212 0.949 1_545 S
H208 C214 0.950 . S
H209 C215 0.950 . S
H210 C216 0.949 . S
C211 H206 0.950 1_545 S
C211 C213 1.327 . S
C211 C217 1.429 . S
C212 C204 1.574 . S
C212 H207 0.949 1_565 S
C212 C218 1.368 . S
C213 C197 1.349 . S
C213 H205 0.950 . S
C213 C211 1.327 . S
C214 C202 1.349 . S
C214 H208 0.950 . S
C214 C215 1.327 . S
C215 H209 0.950 . S
C215 C214 1.327 . S
C215 C219 1.429 . S
C216 C199 1.574 . S
C216 H210 0.949 . S
C216 C220 1.368 . S
C217 C198 1.429 . S
C217 C211 1.429 . S
C217 C218 1.523 1_545 S
C218 C199 1.368 . S
C218 C212 1.368 . S
C218 C217 1.523 1_565 S
C219 C203 1.429 . S
C219 C215 1.429 . S
C219 C220 1.523 . S
C220 C204 1.368 . S
C220 C216 1.368 . S
C220 C219 1.523 . S
H221 C196 0.950 . S
H222 C198 0.950 . S
H223 C199 0.949 . S
H224 C201 0.950 . S
H225 C203 0.950 . S
C226 C227 1.349 . S
C226 C228 1.327 . S
C226 H251 0.950 . S
C227 C226 1.349 . S
C227 C243 1.349 . S
C228 C226 1.327 . S
C228 C247 1.429 . S
C228 H252 0.950 . S
C229 C246 1.574 . S
C229 C248 1.368 . S
C229 H253 0.949 . S
H230 C234 0.949 . S
C231 C232 1.349 . S
C231 C233 1.327 . S
C231 H254 0.950 . S
C232 C231 1.349 . S
C232 C244 1.349 . S
C233 C231 1.327 . S
C233 C249 1.429 . S
C233 H255 0.950 . S
C234 H230 0.949 . S
C234 C242 1.574 . S
C234 C250 1.368 . S
H235 C243 0.950 . S
H236 C241 0.950 . S
H237 C242 0.949 . S
H238 C244 0.950 . S
H239 C245 0.950 . S
H240 C246 0.949 . S
C241 H236 0.950 . S
C241 C243 1.327 . S
C241 C247 1.429 . S
C242 C234 1.574 . S
C242 H237 0.949 . S
C242 C248 1.368 . S
C243 C227 1.349 . S
C243 H235 0.950 . S
C243 C241 1.327 . S
C244 C232 1.349 . S
C244 H238 0.950 . S
C244 C245 1.327 . S
C245 H239 0.950 . S
C245 C244 1.327 . S
C245 C249 1.429 . S
C246 C229 1.574 . S
C246 H240 0.949 . S
C246 C250 1.368 . S
C247 C228 1.429 . S
C247 C241 1.429 . S
C247 C248 1.523 . S
C248 C229 1.368 . S
C248 C242 1.368 . S
C248 C247 1.523 . S
C249 C233 1.429 . S
C249 C245 1.429 . S
C249 C250 1.523 . S
C250 C234 1.368 . S
C250 C246 1.368 . S
C250 C249 1.523 . S
H251 C226 0.950 . S
H252 C228 0.950 . S
H253 C229 0.949 . S
H254 C231 0.950 . S
H255 C233 0.950 . S
C256 C257 1.349 . S
C256 C258 1.327 . S
C256 H281 0.950 . S
C257 C256 1.349 . S
C257 C273 1.349 . S
C258 C256 1.327 . S
C258 C277 1.429 . S
C258 H282 0.950 . S
C259 C276 1.574 1_545 S
C259 C278 1.368 1_655 S
C259 H283 0.949 . S
H260 C264 0.949 . S
C261 C262 1.349 . S
C261 C263 1.327 . S
C261 H284 0.950 . S
C262 C261 1.349 . S
C262 C274 1.349 . S
C263 C261 1.327 . S
C263 C279 1.429 . S
C263 H285 0.950 . S
C264 H260 0.949 . S
C264 C272 1.574 . S
C264 C280 1.368 1_455 S
H265 C273 0.950 . S
H266 C271 0.950 1_655 S
H267 C272 0.949 . S
H268 C274 0.950 . S
H269 C275 0.950 . S
H270 C276 0.949 . S
C271 H266 0.950 1_455 S
C271 C273 1.327 . S
C271 C277 1.429 . S
C272 C264 1.574 . S
C272 H267 0.949 . S
C272 C278 1.368 1_565 S
C273 C257 1.349 . S
C273 H265 0.950 . S
C273 C271 1.327 . S
C274 C262 1.349 . S
C274 H268 0.950 . S
C274 C275 1.327 . S
C275 H269 0.950 . S
C275 C274 1.327 . S
C275 C279 1.429 . S
C276 C259 1.574 1_565 S
C276 H270 0.949 . S
C276 C280 1.368 . S
C277 C258 1.429 . S
C277 C271 1.429 . S
C277 C278 1.523 . S
C278 C259 1.368 1_455 S
C278 C272 1.368 1_545 S
C278 C277 1.523 . S
C279 C263 1.429 . S
C279 C275 1.429 . S
C279 C280 1.523 . S
C280 C264 1.368 1_655 S
C280 C276 1.368 . S
C280 C279 1.523 . S
H281 C256 0.950 . S
H282 C258 0.950 . S
H283 C259 0.949 . S
H284 C261 0.950 . S
H285 C263 0.950 . S
C286 C287 1.349 . S
C286 C288 1.327 . S
C286 H311 0.950 . S
C287 C286 1.349 . S
C287 C303 1.349 . S
C288 C286 1.327 . S
C288 C307 1.429 . S
C288 H312 0.950 . S
C289 C306 1.574 . S
C289 C308 1.368 1_655 S
C289 H313 0.949 . S
H290 C294 0.949 . S
C291 C292 1.349 . S
C291 C293 1.327 . S
C291 H314 0.950 . S
C292 C291 1.349 . S
C292 C304 1.349 . S
C293 C291 1.327 . S
C293 C309 1.429 . S
C293 H315 0.950 . S
C294 H290 0.949 . S
C294 C302 1.574 . S
C294 C310 1.368 1_455 S
H295 C303 0.950 . S
H296 C301 0.950 . S
H297 C302 0.949 . S
H298 C304 0.950 . S
H299 C305 0.950 1_455 S
H300 C306 0.949 . S
C301 H296 0.950 . S
C301 C303 1.327 . S
C301 C307 1.429 . S
C302 C294 1.574 . S
C302 H297 0.949 . S
C302 C308 1.368 . S
C303 C287 1.349 . S
C303 H295 0.950 . S
C303 C301 1.327 . S
C304 C292 1.349 . S
C304 H298 0.950 . S
C304 C305 1.327 . S
C305 H299 0.950 1_655 S
C305 C304 1.327 . S
C305 C309 1.429 . S
C306 C289 1.574 . S
C306 H300 0.949 . S
C306 C310 1.368 . S
C307 C288 1.429 . S
C307 C301 1.429 . S
C307 C308 1.523 . S
C308 C289 1.368 1_455 S
C308 C302 1.368 . S
C308 C307 1.523 . S
C309 C293 1.429 . S
C309 C305 1.429 . S
C309 C310 1.523 . S
C310 C294 1.368 1_655 S
C310 C306 1.368 . S
C310 C309 1.523 . S
H311 C286 0.950 . S
H312 C288 0.950 . S
H313 C289 0.949 . S
H314 C291 0.950 . S
H315 C293 0.950 . S
C316 C317 1.349 . S
C316 C318 1.327 . S
C316 H341 0.950 . S
C317 C316 1.349 . S
C317 C333 1.349 . S
C318 C316 1.327 . S
C318 C337 1.429 . S
C318 H342 0.950 . S
C319 C336 1.574 1_665 S
C319 C338 1.368 . S
C319 H343 0.949 . S
H320 C324 0.949 . S
C321 C322 1.349 . S
C321 C323 1.327 . S
C321 H344 0.950 . S
C322 C321 1.349 . S
C322 C334 1.349 . S
C323 C321 1.327 . S
C323 C339 1.429 . S
C323 H345 0.950 . S
C324 H320 0.949 . S
C324 C332 1.574 . S
C324 C340 1.368 . S
H325 C333 0.950 . S
H326 C331 0.950 . S
H327 C332 0.949 . S
H328 C334 0.950 . S
H329 C335 0.950 . S
H330 C336 0.949 . S
C331 H326 0.950 . S
C331 C333 1.327 . S
C331 C337 1.429 . S
C332 C324 1.574 . S
C332 H327 0.949 . S
C332 C338 1.368 1_445 S
C333 C317 1.349 . S
C333 H325 0.950 . S
C333 C331 1.327 . S
C334 C322 1.349 . S
C334 H328 0.950 . S
C334 C335 1.327 . S
C335 H329 0.950 . S
C335 C334 1.327 . S
C335 C339 1.429 . S
C336 C319 1.574 1_445 S
C336 H330 0.949 . S
C336 C340 1.368 . S
C337 C318 1.429 . S
C337 C331 1.429 . S
C337 C338 1.523 . S
C338 C319 1.368 . S
C338 C332 1.368 1_665 S
C338 C337 1.523 . S
C339 C323 1.429 . S
C339 C335 1.429 . S
C339 C340 1.523 . S
C340 C324 1.368 . S
C340 C336 1.368 . S
C340 C339 1.523 . S
H341 C316 0.950 . S
H342 C318 0.950 . S
H343 C319 0.949 . S
H344 C321 0.950 . S
H345 C323 0.950 . S
C346 C347 1.349 . S
C346 C348 1.327 . S
C346 H371 0.950 . S
C347 C346 1.349 . S
C347 C363 1.349 . S
C348 C346 1.327 . S
C348 C367 1.429 . S
C348 H372 0.950 . S
C349 C366 1.574 . S
C349 C368 1.368 1_655 S
C349 H373 0.949 . S
H350 C354 0.949 1_455 S
C351 C352 1.349 . S
C351 C353 1.327 . S
C351 H374 0.950 . S
C352 C351 1.349 . S
C352 C364 1.349 . S
C353 C351 1.327 . S
C353 C369 1.429 . S
C353 H375 0.950 . S
C354 H350 0.949 1_655 S
C354 C362 1.574 1_655 S
C354 C370 1.368 . S
H355 C363 0.950 . S
H356 C361 0.950 1_655 S
H357 C362 0.949 . S
H358 C364 0.950 . S
H359 C365 0.950 . S
H360 C366 0.949 . S
C361 H356 0.950 1_455 S
C361 C363 1.327 . S
C361 C367 1.429 . S
C362 C354 1.574 1_455 S
C362 H357 0.949 . S
C362 C368 1.368 . S
C363 C347 1.349 . S
C363 H355 0.950 . S
C363 C361 1.327 . S
C364 C352 1.349 . S
C364 H358 0.950 . S
C364 C365 1.327 . S
C365 H359 0.950 . S
C365 C364 1.327 . S
C365 C369 1.429 . S
C366 C349 1.574 . S
C366 H360 0.949 . S
C366 C370 1.368 . S
C367 C348 1.429 . S
C367 C361 1.429 . S
C367 C368 1.523 . S
C368 C349 1.368 1_455 S
C368 C362 1.368 . S
C368 C367 1.523 . S
C369 C353 1.429 . S
C369 C365 1.429 . S
C369 C370 1.523 . S
C370 C354 1.368 . S
C370 C366 1.368 . S
C370 C369 1.523 . S
H371 C346 0.950 . S
H372 C348 0.950 . S
H373 C349 0.949 . S
H374 C351 0.950 . S
H375 C353 0.950 . S
C376 C377 1.349 . S
C376 C378 1.327 . S
C376 H401 0.950 . S
C377 C376 1.349 . S
C377 C393 1.349 . S
C378 C376 1.327 . S
C378 C397 1.429 . S
C378 H402 0.950 . S
C379 C396 1.574 1_655 S
C379 C398 1.368 1_554 S
C379 H403 0.949 . S
H380 C384 0.949 . S
C381 C382 1.349 . S
C381 C383 1.327 . S
C381 H404 0.950 . S
C382 C381 1.349 . S
C382 C394 1.349 . S
C383 C381 1.327 . S
C383 C399 1.429 . S
C383 H405 0.950 . S
C384 H380 0.949 . S
C384 C392 1.574 1_455 S
C384 C400 1.368 1_556 S
H385 C393 0.950 . S
H386 C391 0.950 . S
H387 C392 0.949 . S
H388 C394 0.950 . S
H389 C395 0.950 . S
H390 C396 0.949 . S
C391 H386 0.950 . S
C391 C393 1.327 . S
C391 C397 1.429 . S
C392 C384 1.574 1_655 S
C392 H387 0.949 . S
C392 C398 1.368 . S
C393 C377 1.349 . S
C393 H385 0.950 . S
C393 C391 1.327 . S
C394 C382 1.349 . S
C394 H388 0.950 . S
C394 C395 1.327 . S
C395 H389 0.950 . S
C395 C394 1.327 . S
C395 C399 1.429 . S
C396 C379 1.574 1_455 S
C396 H390 0.949 . S
C396 C400 1.368 . S
C397 C378 1.429 . S
C397 C391 1.429 . S
C397 C398 1.523 . S
C398 C379 1.368 1_556 S
C398 C392 1.368 . S
C398 C397 1.523 . S
C399 C383 1.429 . S
C399 C395 1.429 . S
C399 C400 1.523 . S
C400 C384 1.368 1_554 S
C400 C396 1.368 . S
C400 C399 1.523 . S
H401 C376 0.950 . S
H402 C378 0.950 . S
H403 C379 0.949 . S
H404 C381 0.950 . S
H405 C383 0.950 . S
C406 C407 1.349 . S
C406 C408 1.327 . S
C406 H431 0.950 . S
C407 C406 1.349 . S
C407 C423 1.349 . S
C408 C406 1.327 . S
C408 C427 1.429 . S
C408 H432 0.950 . S
C409 C426 1.574 1_655 S
C409 C428 1.368 1_545 S
C409 H433 0.949 . S
H410 C414 0.949 . S
C411 C412 1.349 . S
C411 C413 1.327 . S
C411 H434 0.950 . S
C412 C411 1.349 . S
C412 C424 1.349 . S
C413 C411 1.327 . S
C413 C429 1.429 . S
C413 H435 0.950 . S
C414 H410 0.949 . S
C414 C422 1.574 1_455 S
C414 C430 1.368 1_565 S
H415 C423 0.950 . S
H416 C421 0.950 . S
H417 C422 0.949 . S
H418 C424 0.950 . S
H419 C425 0.950 . S
H420 C426 0.949 . S
C421 H416 0.950 . S
C421 C423 1.327 . S
C421 C427 1.429 . S
C422 C414 1.574 1_655 S
C422 H417 0.949 . S
C422 C428 1.368 . S
C423 C407 1.349 . S
C423 H415 0.950 . S
C423 C421 1.327 . S
C424 C412 1.349 . S
C424 H418 0.950 . S
C424 C425 1.327 . S
C425 H419 0.950 . S
C425 C424 1.327 . S
C425 C429 1.429 . S
C426 C409 1.574 1_455 S
C426 H420 0.949 . S
C426 C430 1.368 . S
C427 C408 1.429 . S
C427 C421 1.429 . S
C427 C428 1.523 . S
C428 C409 1.368 1_565 S
C428 C422 1.368 . S
C428 C427 1.523 . S
C429 C413 1.429 . S
C429 C425 1.429 . S
C429 C430 1.523 . S
C430 C414 1.368 1_545 S
C430 C426 1.368 . S
C430 C429 1.523 . S
H431 C406 0.950 . S
H432 C408 0.950 . S
H433 C409 0.949 . S
H434 C411 0.950 . S
H435 C413 0.950 . S
C436 C437 1.349 . S
C436 C438 1.327 . S
C436 H461 0.950 . S
C437 C436 1.349 . S
C437 C453 1.349 . S
C438 C436 1.327 . S
C438 C457 1.429 . S
C438 H462 0.950 . S
C439 C456 1.574 . S
C439 C458 1.368 . S
C439 H463 0.949 . S
H440 C444 0.949 1_554 S
C441 C442 1.349 . S
C441 C443 1.327 . S
C441 H464 0.950 . S
C442 C441 1.349 . S
C442 C454 1.349 . S
C443 C441 1.327 . S
C443 C459 1.429 . S
C443 H465 0.950 . S
C444 H440 0.949 1_556 S
C444 C452 1.574 . S
C444 C460 1.368 . S
H445 C453 0.950 . S
H446 C451 0.950 . S
H447 C452 0.949 . S
H448 C454 0.950 . S
H449 C455 0.950 . S
H450 C456 0.949 . S
C451 H446 0.950 . S
C451 C453 1.327 . S
C451 C457 1.429 . S
C452 C444 1.574 . S
C452 H447 0.949 . S
C452 C458 1.368 . S
C453 C437 1.349 . S
C453 H445 0.950 . S
C453 C451 1.327 . S
C454 C442 1.349 . S
C454 H448 0.950 . S
C454 C455 1.327 . S
C455 H449 0.950 . S
C455 C454 1.327 . S
C455 C459 1.429 . S
C456 C439 1.574 . S
C456 H450 0.949 . S
C456 C460 1.368 . S
C457 C438 1.429 . S
C457 C451 1.429 . S
C457 C458 1.523 . S
C458 C439 1.368 . S
C458 C452 1.368 . S
C458 C457 1.523 . S
C459 C443 1.429 . S
C459 C455 1.429 . S
C459 C460 1.523 1_554 S
C460 C444 1.368 . S
C460 C456 1.368 . S
C460 C459 1.523 1_556 S
H461 C436 0.950 . S
H462 C438 0.950 . S
H463 C439 0.949 . S
H464 C441 0.950 . S
H465 C443 0.950 . S
C466 C467 1.349 . S
C466 C468 1.327 . S
C466 H491 0.950 . S
C467 C466 1.349 . S
C467 C483 1.349 . S
C468 C466 1.327 . S
C468 C487 1.429 . S
C468 H492 0.950 . S
C469 C486 1.574 . S
C469 C488 1.368 . S
C469 H493 0.949 . S
H470 C474 0.949 . S
C471 C472 1.349 . S
C471 C473 1.327 . S
C471 H494 0.950 . S
C472 C471 1.349 . S
C472 C484 1.349 . S
C473 C471 1.327 . S
C473 C489 1.429 . S
C473 H495 0.950 . S
C474 H470 0.949 . S
C474 C482 1.574 . S
C474 C490 1.368 . S
H475 C483 0.950 . S
H476 C481 0.950 . S
H477 C482 0.949 . S
H478 C484 0.950 . S
H479 C485 0.950 . S
H480 C486 0.949 . S
C481 H476 0.950 . S
C481 C483 1.327 . S
C481 C487 1.429 . S
C482 C474 1.574 . S
C482 H477 0.949 . S
C482 C488 1.368 . S
C483 C467 1.349 . S
C483 H475 0.950 . S
C483 C481 1.327 . S
C484 C472 1.349 . S
C484 H478 0.950 . S
C484 C485 1.327 . S
C485 H479 0.950 . S
C485 C484 1.327 . S
C485 C489 1.429 . S
C486 C469 1.574 . S
C486 H480 0.949 . S
C486 C490 1.368 . S
C487 C468 1.429 . S
C487 C481 1.429 . S
C487 C488 1.523 . S
C488 C469 1.368 . S
C488 C482 1.368 . S
C488 C487 1.523 . S
C489 C473 1.429 . S
C489 C485 1.429 . S
C489 C490 1.523 . S
C490 C474 1.368 . S
C490 C486 1.368 . S
C490 C489 1.523 . S
H491 C466 0.950 . S
H492 C468 0.950 . S
H493 C469 0.949 . S
H494 C471 0.950 . S
H495 C473 0.950 . S
C496 C497 1.349 . S
C496 C498 1.327 . S
C496 H521 0.950 . S
C497 C496 1.349 . S
C497 C513 1.349 . S
C498 C496 1.327 . S
C498 C517 1.429 . S
C498 H522 0.950 . S
C499 C516 1.574 . S
C499 C518 1.368 . S
C499 H523 0.941 1_554 S
H500 C504 0.949 . S
C501 C502 1.349 . S
C501 C503 1.327 . S
C501 H524 0.950 . S
C502 C501 1.349 . S
C502 C514 1.349 . S
C503 C501 1.327 . S
C503 C519 1.429 . S
C503 H525 0.950 . S
C504 H500 0.949 . S
C504 C512 1.574 . S
C504 C520 1.368 . S
H505 C513 0.950 . S
H506 C511 0.950 . S
H507 C512 0.949 . S
H508 C514 0.950 . S
H509 C515 0.950 . S
H510 C516 0.949 . S
C511 H506 0.950 . S
C511 C513 1.327 . S
C511 C517 1.429 . S
C512 C504 1.574 . S
C512 H507 0.949 . S
C512 C518 1.368 . S
C513 C497 1.349 . S
C513 H505 0.950 . S
C513 C511 1.327 . S
C514 C502 1.349 . S
C514 H508 0.950 . S
C514 C515 1.327 . S
C515 H509 0.950 . S
C515 C514 1.327 . S
C515 C519 1.429 . S
C516 C499 1.574 . S
C516 H510 0.949 . S
C516 C520 1.368 . S
C517 C498 1.429 . S
C517 C511 1.429 . S
C517 C518 1.523 1_556 S
C518 C499 1.368 . S
C518 C512 1.368 . S
C518 C517 1.523 1_554 S
C519 C503 1.429 . S
C519 C515 1.429 . S
C519 C520 1.523 . S
C520 C504 1.368 . S
C520 C516 1.368 . S
C520 C519 1.523 . S
H521 C496 0.950 . S
H522 C498 0.950 . S
H523 C499 0.941 1_556 S
H524 C501 0.950 . S
H525 C503 0.950 . S
C526 C527 1.349 . S
C526 C528 1.327 . S
C526 H551 0.950 . S
C527 C526 1.349 . S
C527 C543 1.349 . S
C528 C526 1.327 . S
C528 C547 1.429 . S
C528 H552 0.950 . S
C529 C546 1.574 . S
C529 C548 1.368 . S
C529 H553 0.949 . S
H530 C534 0.949 . S
C531 C532 1.349 . S
C531 C533 1.327 . S
C531 H554 0.950 . S
C532 C531 1.349 . S
C532 C544 1.349 . S
C533 C531 1.327 . S
C533 C549 1.429 . S
C533 H555 0.950 . S
C534 H530 0.949 . S
C534 C542 1.574 . S
C534 C550 1.368 . S
H535 C543 0.950 . S
H536 C541 0.950 . S
H537 C542 0.949 . S
H538 C544 0.950 . S
H539 C545 0.950 . S
H540 C546 0.949 . S
C541 H536 0.950 . S
C541 C543 1.327 . S
C541 C547 1.429 . S
C542 C534 1.574 . S
C542 H537 0.949 . S
C542 C548 1.368 . S
C543 C527 1.349 . S
C543 H535 0.950 . S
C543 C541 1.327 . S
C544 C532 1.349 . S
C544 H538 0.950 . S
C544 C545 1.327 . S
C545 H539 0.950 . S
C545 C544 1.327 . S
C545 C549 1.429 . S
C546 C529 1.574 . S
C546 H540 0.949 . S
C546 C550 1.368 . S
C547 C528 1.429 . S
C547 C541 1.429 . S
C547 C548 1.523 . S
C548 C529 1.368 . S
C548 C542 1.368 . S
C548 C547 1.523 . S
C549 C533 1.429 . S
C549 C545 1.429 . S
C549 C550 1.523 . S
C550 C534 1.368 . S
C550 C546 1.368 . S
C550 C549 1.523 . S
H551 C526 0.950 . S
H552 C528 0.950 . S
H553 C529 0.949 . S
H554 C531 0.950 . S
H555 C533 0.950 . S
C137 C17 1.606 . S
C142 C56 1.507 . S
C167 C15 1.507 . S
C172 C51 1.606 . S
C197 C124 1.507 . S
C202 C85 1.606 . S
C227 C90 1.507 . S
C232 C119 1.606 . S
C257 C22 1.488 . S
C262 C37 1.381 . S
C287 C1 1.381 . S
C292 C49 1.488 . S
C317 C83 1.488 . S
C322 C105 1.381 . S
C347 C117 1.488 . S
C352 C71 1.381 . S
C377 C69 1.910 . S
C382 C3 1.910 . S
C407 C35 1.910 . S
C412 C103 1.910 . S
C437 C130 1.237 . S
C442 C28 1.244 . S
C467 C96 1.237 . S
C472 C40 1.244 . S
C497 C74 1.244 . S
C502 C62 1.237 . S
C527 C108 1.244 . S
C532 C6 1.237 . S
