# Generated by pormake.
# Topology afi, (4)-cn, num edge types: 1
# Building blocks:
#     Node 0, Type 0, BuildingBlock: QUQFOY_clean_sbu_1, # of connection points: 4
#     Node 1, Type 0, BuildingBlock: QUQFOY_clean_sbu_1, # of connection points: 4
#     Node 2, Type 0, BuildingBlock: QUQFOY_clean_sbu_1, # of connection points: 4
#     Node 3, Type 0, BuildingBlock: QUQFOY_clean_sbu_1, # of connection points: 4
#     Node 4, Type 0, BuildingBlock: QUQFOY_clean_sbu_1, # of connection points: 4
#     Node 5, Type 0, BuildingBlock: QUQFOY_clean_sbu_1, # of connection points: 4
#     Node 6, Type 0, BuildingBlock: QUQFOY_clean_sbu_1, # of connection points: 4
#     Node 7, Type 0, BuildingBlock: QUQFOY_clean_sbu_1, # of connection points: 4
#     Node 8, Type 0, BuildingBlock: QUQFOY_clean_sbu_1, # of connection points: 4
#     Node 9, Type 0, BuildingBlock: QUQFOY_clean_sbu_1, # of connection points: 4
#     Node 10, Type 0, BuildingBlock: QUQFOY_clean_sbu_1, # of connection points: 4
#     Node 11, Type 0, BuildingBlock: QUQFOY_clean_sbu_1, # of connection points: 4
#     Node 12, Type 0, BuildingBlock: QUQFOY_clean_sbu_1, # of connection points: 4
#     Node 13, Type 0, BuildingBlock: QUQFOY_clean_sbu_1, # of connection points: 4
#     Node 14, Type 0, BuildingBlock: QUQFOY_clean_sbu_1, # of connection points: 4
#     Node 15, Type 0, BuildingBlock: QUQFOY_clean_sbu_1, # of connection points: 4
#     Node 16, Type 0, BuildingBlock: QUQFOY_clean_sbu_1, # of connection points: 4
#     Node 17, Type 0, BuildingBlock: QUQFOY_clean_sbu_1, # of connection points: 4
#     Node 18, Type 0, BuildingBlock: QUQFOY_clean_sbu_1, # of connection points: 4
#     Node 19, Type 0, BuildingBlock: QUQFOY_clean_sbu_1, # of connection points: 4
#     Node 20, Type 0, BuildingBlock: QUQFOY_clean_sbu_1, # of connection points: 4
#     Node 21, Type 0, BuildingBlock: QUQFOY_clean_sbu_1, # of connection points: 4
#     Node 22, Type 0, BuildingBlock: QUQFOY_clean_sbu_1, # of connection points: 4
#     Node 23, Type 0, BuildingBlock: QUQFOY_clean_sbu_1, # of connection points: 4
#     Edge 24, Type (0, 0), BuildingBlock: XIVTED_clean_linker_0, # of connection points: 2
#     Edge 25, Type (0, 0), BuildingBlock: XIVTED_clean_linker_0, # of connection points: 2
#     Edge 26, Type (0, 0), BuildingBlock: XIVTED_clean_linker_0, # of connection points: 2
#     Edge 27, Type (0, 0), BuildingBlock: XIVTED_clean_linker_0, # of connection points: 2
#     Edge 28, Type (0, 0), BuildingBlock: XIVTED_clean_linker_0, # of connection points: 2
#     Edge 29, Type (0, 0), BuildingBlock: XIVTED_clean_linker_0, # of connection points: 2
#     Edge 30, Type (0, 0), BuildingBlock: XIVTED_clean_linker_0, # of connection points: 2
#     Edge 31, Type (0, 0), BuildingBlock: XIVTED_clean_linker_0, # of connection points: 2
#     Edge 32, Type (0, 0), BuildingBlock: XIVTED_clean_linker_0, # of connection points: 2
#     Edge 33, Type (0, 0), BuildingBlock: XIVTED_clean_linker_0, # of connection points: 2
#     Edge 34, Type (0, 0), BuildingBlock: XIVTED_clean_linker_0, # of connection points: 2
#     Edge 35, Type (0, 0), BuildingBlock: XIVTED_clean_linker_0, # of connection points: 2
#     Edge 36, Type (0, 0), BuildingBlock: XIVTED_clean_linker_0, # of connection points: 2
#     Edge 37, Type (0, 0), BuildingBlock: XIVTED_clean_linker_0, # of connection points: 2
#     Edge 38, Type (0, 0), BuildingBlock: XIVTED_clean_linker_0, # of connection points: 2
#     Edge 39, Type (0, 0), BuildingBlock: XIVTED_clean_linker_0, # of connection points: 2
#     Edge 40, Type (0, 0), BuildingBlock: XIVTED_clean_linker_0, # of connection points: 2
#     Edge 41, Type (0, 0), BuildingBlock: XIVTED_clean_linker_0, # of connection points: 2
#     Edge 42, Type (0, 0), BuildingBlock: XIVTED_clean_linker_0, # of connection points: 2
#     Edge 43, Type (0, 0), BuildingBlock: XIVTED_clean_linker_0, # of connection points: 2
#     Edge 44, Type (0, 0), BuildingBlock: XIVTED_clean_linker_0, # of connection points: 2
#     Edge 45, Type (0, 0), BuildingBlock: XIVTED_clean_linker_0, # of connection points: 2
#     Edge 46, Type (0, 0), BuildingBlock: XIVTED_clean_linker_0, # of connection points: 2
#     Edge 47, Type (0, 0), BuildingBlock: XIVTED_clean_linker_0, # of connection points: 2
#     Edge 48, Type (0, 0), BuildingBlock: XIVTED_clean_linker_0, # of connection points: 2
#     Edge 49, Type (0, 0), BuildingBlock: XIVTED_clean_linker_0, # of connection points: 2
#     Edge 50, Type (0, 0), BuildingBlock: XIVTED_clean_linker_0, # of connection points: 2
#     Edge 51, Type (0, 0), BuildingBlock: XIVTED_clean_linker_0, # of connection points: 2
#     Edge 52, Type (0, 0), BuildingBlock: XIVTED_clean_linker_0, # of connection points: 2
#     Edge 53, Type (0, 0), BuildingBlock: XIVTED_clean_linker_0, # of connection points: 2
#     Edge 54, Type (0, 0), BuildingBlock: XIVTED_clean_linker_0, # of connection points: 2
#     Edge 55, Type (0, 0), BuildingBlock: XIVTED_clean_linker_0, # of connection points: 2
#     Edge 56, Type (0, 0), BuildingBlock: XIVTED_clean_linker_0, # of connection points: 2
#     Edge 57, Type (0, 0), BuildingBlock: XIVTED_clean_linker_0, # of connection points: 2
#     Edge 58, Type (0, 0), BuildingBlock: XIVTED_clean_linker_0, # of connection points: 2
#     Edge 59, Type (0, 0), BuildingBlock: XIVTED_clean_linker_0, # of connection points: 2
#     Edge 60, Type (0, 0), BuildingBlock: XIVTED_clean_linker_0, # of connection points: 2
#     Edge 61, Type (0, 0), BuildingBlock: XIVTED_clean_linker_0, # of connection points: 2
#     Edge 62, Type (0, 0), BuildingBlock: XIVTED_clean_linker_0, # of connection points: 2
#     Edge 63, Type (0, 0), BuildingBlock: XIVTED_clean_linker_0, # of connection points: 2
#     Edge 64, Type (0, 0), BuildingBlock: XIVTED_clean_linker_0, # of connection points: 2
#     Edge 65, Type (0, 0), BuildingBlock: XIVTED_clean_linker_0, # of connection points: 2
#     Edge 66, Type (0, 0), BuildingBlock: XIVTED_clean_linker_0, # of connection points: 2
#     Edge 67, Type (0, 0), BuildingBlock: XIVTED_clean_linker_0, # of connection points: 2
#     Edge 68, Type (0, 0), BuildingBlock: XIVTED_clean_linker_0, # of connection points: 2
#     Edge 69, Type (0, 0), BuildingBlock: XIVTED_clean_linker_0, # of connection points: 2
#     Edge 70, Type (0, 0), BuildingBlock: XIVTED_clean_linker_0, # of connection points: 2
#     Edge 71, Type (0, 0), BuildingBlock: XIVTED_clean_linker_0, # of connection points: 2
# Relax obj value: 0.129
# Max RMSD: 0.169
# Mean RMSD: 0.169
data_MOF--net-afi--node1-QUQFOY_clean_sbu_1--edge1-XIVTED_clean_linker_0
_symmetry_space_group_name_H-M    P1
_symmetry_Int_Tables_number       1
_symmetry_cell_setting            triclinic
loop_
_symmetry_equiv_pos_as_xyz
'x, y, z'
_cell_length_a     69.164487
_cell_length_b     69.16594
_cell_length_c     45.286734
_cell_angle_alpha  90.007021
_cell_angle_beta   90.003093
_cell_angle_gamma 119.99008
loop_
_atom_site_label
_atom_site_type_symbol
_atom_site_fract_x
_atom_site_fract_y
_atom_site_fract_z
_atom_type_partial_charge
O0 O 0.47617 0.12644 0.22867 0.0
Cd1 Cd 0.44452 0.11934 0.21671 0.0
Cd2 Cd 0.45579 0.10427 0.16616 0.0
O3 O 0.4869 0.12008 0.18566 0.0
O4 O 0.43713 0.13525 0.24724 0.0
O5 O 0.43961 0.14342 0.19968 0.0
C6 C 0.4363 0.14752 0.22647 0.0
C7 C 0.45481 0.10613 0.11437 0.0
C8 C 0.49117 0.12657 0.21233 0.0
C9 C 0.41897 0.0706 0.20613 0.0
O10 O 0.43251 0.07429 0.18502 0.0
O11 O 0.41953 0.08668 0.22038 0.0
O12 O 0.4618 0.09434 0.12766 0.0
O13 O 0.44834 0.11721 0.13054 0.0
O14 O 0.35066 0.48302 0.22219 0.0
Cd15 Cd 0.32403 0.45128 0.21701 0.0
Cd16 Cd 0.34847 0.45216 0.16668 0.0
O17 O 0.37169 0.48183 0.18633 0.0
O18 O 0.30338 0.44956 0.24873 0.0
O19 O 0.29455 0.44615 0.20138 0.0
C20 C 0.28905 0.44657 0.22854 0.0
C21 C 0.34554 0.45229 0.11499 0.0
C22 C 0.36901 0.49177 0.2082 0.0
C23 C 0.33715 0.41584 0.2113 0.0
O24 O 0.34456 0.42333 0.18565 0.0
O25 O 0.329 0.42506 0.22737 0.0
O26 O 0.3625 0.45307 0.12788 0.0
O27 O 0.32991 0.45142 0.13151 0.0
O28 O 0.86602 0.35196 0.222 0.0
Cd29 Cd 0.87156 0.32569 0.21562 0.0
Cd30 Cd 0.89496 0.35084 0.16636 0.0
O31 O 0.88829 0.37368 0.18668 0.0
O32 O 0.85252 0.30417 0.24648 0.0
O33 O 0.84754 0.2965 0.19879 0.0
C34 C 0.84142 0.29032 0.22572 0.0
C35 C 0.89081 0.34766 0.11483 0.0
C36 C 0.87554 0.37054 0.20857 0.0
C37 C 0.92032 0.33952 0.21016 0.0
O38 O 0.92026 0.34726 0.18473 0.0
O39 O 0.90283 0.33087 0.226 0.0
O40 O 0.90713 0.36481 0.12723 0.0
O41 O 0.87663 0.33193 0.13177 0.0
O42 O 0.50725 0.86389 0.2281 0.0
Cd43 Cd 0.53945 0.87127 0.22039 0.0
Cd44 Cd 0.53364 0.89115 0.16924 0.0
O45 O 0.50214 0.87848 0.18758 0.0
O46 O 0.54425 0.85353 0.251 0.0
O47 O 0.54557 0.84804 0.20312 0.0
C48 C 0.5468 0.84246 0.22999 0.0
C49 C 0.53478 0.88885 0.11757 0.0
C50 C 0.49489 0.86821 0.21194 0.0
C51 C 0.56969 0.92061 0.21312 0.0
O52 O 0.55979 0.91912 0.18883 0.0
O53 O 0.56424 0.90338 0.2287 0.0
O54 O 0.53035 0.90277 0.13044 0.0
O55 O 0.53877 0.87603 0.13411 0.0
O56 O 0.63647 0.51155 0.22859 0.0
Cd57 Cd 0.66323 0.54223 0.21844 0.0
Cd58 Cd 0.63748 0.53606 0.16686 0.0
O59 O 0.61733 0.50561 0.18732 0.0
O60 O 0.68526 0.54653 0.24959 0.0
O61 O 0.69147 0.54478 0.20204 0.0
C62 C 0.69826 0.54682 0.22904 0.0
C63 C 0.63974 0.5353 0.11513 0.0
C64 C 0.61957 0.4992 0.21277 0.0
C65 C 0.64783 0.57513 0.20744 0.0
O66 O 0.63809 0.56407 0.18434 0.0
O67 O 0.65914 0.56941 0.22356 0.0
O68 O 0.622 0.53231 0.1284 0.0
O69 O 0.65654 0.5387 0.13129 0.0
O70 O 0.1193 0.64145 0.22958 0.0
Cd71 Cd 0.11465 0.66783 0.21967 0.0
Cd72 Cd 0.09491 0.64182 0.16826 0.0
O73 O 0.10551 0.62191 0.18871 0.0
O74 O 0.13212 0.68991 0.2509 0.0
O75 O 0.13971 0.69655 0.20334 0.0
C76 C 0.14442 0.70327 0.23037 0.0
C77 C 0.0979 0.64398 0.11653 0.0
C78 C 0.11458 0.62443 0.21391 0.0
C79 C 0.06608 0.6517 0.20921 0.0
O80 O 0.06742 0.64215 0.18592 0.0
O81 O 0.08315 0.66305 0.22524 0.0
O82 O 0.08321 0.62624 0.12985 0.0
O83 O 0.11121 0.66085 0.13263 0.0
O84 O 0.86399 0.50873 0.28782 0.0
Cd85 Cd 0.86843 0.54028 0.29236 0.0
Cd86 Cd 0.89328 0.54107 0.34182 0.0
O87 O 0.88748 0.51143 0.32278 0.0
O88 O 0.84879 0.54101 0.2609 0.0
O89 O 0.84397 0.54518 0.3082 0.0
C90 C 0.83763 0.5442 0.28115 0.0
C91 C 0.8904 0.54129 0.39349 0.0
C92 C 0.87445 0.50078 0.30153 0.0
C93 C 0.9168 0.57666 0.2961 0.0
O94 O 0.91744 0.56991 0.32199 0.0
O95 O 0.89914 0.56668 0.28069 0.0
O96 O 0.90684 0.541 0.38062 0.0
O97 O 0.87533 0.54159 0.37696 0.0
O98 O 0.34584 0.86579 0.27842 0.0
Cd99 Cd 0.32109 0.87252 0.29074 0.0
Cd100 Cd 0.34765 0.88787 0.34095 0.0
O101 O 0.36321 0.8724 0.32124 0.0
O102 O 0.29782 0.8566 0.26019 0.0
O103 O 0.29224 0.84814 0.30767 0.0
C104 C 0.2848 0.84414 0.28089 0.0
C105 C 0.34466 0.8856 0.39269 0.0
C106 C 0.3609 0.86588 0.29458 0.0
C107 C 0.34384 0.92127 0.30136 0.0
O108 O 0.35401 0.91779 0.32225 0.0
O109 O 0.32832 0.90507 0.28731 0.0
O110 O 0.36345 0.89766 0.37956 0.0
O111 O 0.32718 0.87452 0.37639 0.0
O112 O 0.473 0.34924 0.28097 0.0
Cd113 Cd 0.44191 0.32301 0.29123 0.0
Cd114 Cd 0.44845 0.3495 0.34188 0.0
O115 O 0.47911 0.36896 0.32173 0.0
O116 O 0.4372 0.30071 0.26027 0.0
O117 O 0.4382 0.29435 0.30791 0.0
C118 C 0.43614 0.28746 0.28096 0.0
C119 C 0.44886 0.34686 0.39357 0.0
C120 C 0.48551 0.36625 0.29653 0.0
C121 C 0.40998 0.33989 0.30078 0.0
O122 O 0.42113 0.34987 0.32372 0.0
O123 O 0.41525 0.32787 0.28543 0.0
O124 O 0.45233 0.36483 0.38049 0.0
O125 O 0.44507 0.33001 0.37724 0.0
O126 O 0.12033 0.47898 0.28181 0.0
Cd127 Cd 0.11667 0.44839 0.29217 0.0
Cd128 Cd 0.09589 0.45399 0.34269 0.0
O129 O 0.10626 0.48452 0.32255 0.0
O130 O 0.13457 0.4444 0.26097 0.0
O131 O 0.14249 0.44599 0.30849 0.0
C132 C 0.14728 0.44406 0.28147 0.0
C133 C 0.09907 0.45458 0.39437 0.0
C134 C 0.11531 0.49112 0.29735 0.0
C135 C 0.06814 0.41515 0.30159 0.0
O136 O 0.06876 0.42617 0.32442 0.0
O137 O 0.08564 0.42096 0.28646 0.0
O138 O 0.08418 0.45748 0.38131 0.0
O139 O 0.11239 0.45119 0.37802 0.0
O140 O 0.63911 0.12973 0.28215 0.0
Cd141 Cd 0.66409 0.12249 0.28942 0.0
Cd142 Cd 0.63863 0.10239 0.34089 0.0
O143 O 0.61958 0.11489 0.32272 0.0
O144 O 0.6863 0.14016 0.25844 0.0
O145 O 0.69362 0.14575 0.3062 0.0
C146 C 0.70016 0.15123 0.27923 0.0
C147 C 0.64199 0.1045 0.39259 0.0
C148 C 0.62245 0.12522 0.29844 0.0
C149 C 0.64531 0.07316 0.29669 0.0
O150 O 0.63702 0.07456 0.32113 0.0
O151 O 0.65684 0.09041 0.28104 0.0
O152 O 0.6237 0.09055 0.37962 0.0
O153 O 0.65879 0.11746 0.37613 0.0
O154 O 0.50958 0.64011 0.28664 0.0
Cd155 Cd 0.54146 0.66653 0.29177 0.0
Cd156 Cd 0.541 0.64202 0.34135 0.0
O157 O 0.51117 0.61892 0.32193 0.0
O158 O 0.54326 0.68787 0.26104 0.0
O159 O 0.5471 0.69585 0.30868 0.0
C160 C 0.54661 0.70189 0.28183 0.0
C161 C 0.54113 0.64449 0.39312 0.0
C162 C 0.50099 0.62168 0.30041 0.0
C163 C 0.57669 0.65307 0.29595 0.0
O164 O 0.56962 0.64584 0.32179 0.0
O165 O 0.56729 0.66125 0.28029 0.0
O166 O 0.5403 0.62767 0.37978 0.0
O167 O 0.54194 0.66029 0.37701 0.0
O168 O 0.51013 0.86523 0.78169 0.0
Cd169 Cd 0.54164 0.87192 0.79386 0.0
Cd170 Cd 0.53072 0.8879 0.84374 0.0
O171 O 0.49953 0.87206 0.82448 0.0
O172 O 0.54869 0.85563 0.7635 0.0
O173 O 0.54592 0.84749 0.81108 0.0
C174 C 0.54916 0.84322 0.78434 0.0
C175 C 0.53191 0.88652 0.89555 0.0
C176 C 0.49522 0.86537 0.7979 0.0
C177 C 0.56766 0.92076 0.80335 0.0
O178 O 0.55406 0.91754 0.82419 0.0
O179 O 0.56702 0.90438 0.78982 0.0
O180 O 0.52504 0.89833 0.88206 0.0
O181 O 0.53818 0.87517 0.87958 0.0
O182 O 0.6383 0.51275 0.77994 0.0
Cd183 Cd 0.66443 0.5439 0.78995 0.0
Cd184 Cd 0.63878 0.53734 0.84144 0.0
O185 O 0.61899 0.50679 0.82106 0.0
O186 O 0.68705 0.5488 0.75939 0.0
O187 O 0.69295 0.54771 0.80719 0.0
C188 C 0.70011 0.54985 0.78036 0.0
C189 C 0.64134 0.53656 0.89313 0.0
C190 C 0.62143 0.50031 0.79576 0.0
C191 C 0.64782 0.57587 0.80062 0.0
O192 O 0.6386 0.56497 0.82403 0.0
O193 O 0.65921 0.57034 0.78434 0.0
O194 O 0.62343 0.5333 0.88006 0.0
O195 O 0.65816 0.54032 0.87679 0.0
O196 O 0.12717 0.6418 0.78432 0.0
Cd197 Cd 0.1192 0.66628 0.7915 0.0
Cd198 Cd 0.09936 0.64053 0.84284 0.0
O199 O 0.11232 0.62191 0.82463 0.0
O200 O 0.13662 0.68865 0.76055 0.0
O201 O 0.14199 0.69602 0.80832 0.0
C202 C 0.14746 0.7026 0.78135 0.0
C203 C 0.10121 0.64381 0.89454 0.0
C204 C 0.12285 0.62511 0.80046 0.0
C205 C 0.06973 0.64657 0.79862 0.0
O206 O 0.07133 0.63844 0.82308 0.0
O207 O 0.08691 0.65832 0.78295 0.0
O208 O 0.08752 0.62545 0.88148 0.0
O209 O 0.11411 0.66069 0.87817 0.0
O210 O 0.48124 0.129 0.78258 0.0
Cd211 Cd 0.44897 0.12144 0.79048 0.0
Cd212 Cd 0.45493 0.1007 0.84068 0.0
O213 O 0.48648 0.11382 0.82242 0.0
O214 O 0.44422 0.13904 0.75961 0.0
O215 O 0.44251 0.14457 0.80736 0.0
C216 C 0.44135 0.15003 0.78041 0.0
C217 C 0.45353 0.10251 0.89237 0.0
C218 C 0.49367 0.12449 0.79831 0.0
C219 C 0.41898 0.07185 0.79647 0.0
O220 O 0.42906 0.07289 0.82043 0.0
O221 O 0.4242 0.0894 0.78174 0.0
O222 O 0.45816 0.0888 0.87929 0.0
O223 O 0.44947 0.11538 0.87603 0.0
O224 O 0.34844 0.48184 0.78452 0.0
Cd225 Cd 0.32226 0.44982 0.78979 0.0
Cd226 Cd 0.34718 0.45178 0.84104 0.0
O227 O 0.36965 0.48148 0.82077 0.0
O228 O 0.30208 0.44698 0.75675 0.0
O229 O 0.29206 0.44399 0.80357 0.0
C230 C 0.28709 0.44372 0.77603 0.0
C231 C 0.34531 0.45231 0.89288 0.0
C232 C 0.36674 0.49105 0.79864 0.0
C233 C 0.33666 0.41531 0.79692 0.0
O234 O 0.34393 0.42309 0.82251 0.0
O235 O 0.32819 0.42406 0.78056 0.0
O236 O 0.36221 0.4535 0.8793 0.0
O237 O 0.32913 0.45084 0.87698 0.0
O238 O 0.86148 0.34743 0.77915 0.0
Cd239 Cd 0.86886 0.32306 0.79122 0.0
Cd240 Cd 0.88466 0.35038 0.84124 0.0
O241 O 0.86869 0.36544 0.82155 0.0
O242 O 0.85317 0.29984 0.7605 0.0
O243 O 0.845 0.29381 0.808 0.0
C244 C 0.84105 0.2865 0.78116 0.0
C245 C 0.88343 0.34815 0.89309 0.0
C246 C 0.86172 0.36268 0.79507 0.0
C247 C 0.91779 0.34658 0.80095 0.0
O248 O 0.91439 0.35678 0.82189 0.0
O249 O 0.90155 0.33088 0.78721 0.0
O250 O 0.89506 0.36677 0.8794 0.0
O251 O 0.8721 0.33042 0.87731 0.0
O252 O 0.123 0.47801 0.73124 0.0
Cd253 Cd 0.11597 0.44681 0.71714 0.0
Cd254 Cd 0.10187 0.45935 0.668 0.0
O255 O 0.11795 0.49009 0.68851 0.0
O256 O 0.13268 0.43843 0.74506 0.0
O257 O 0.13992 0.44327 0.69716 0.0
C258 C 0.1447 0.43893 0.72302 0.0
C259 C 0.10436 0.45893 0.61627 0.0
C260 C 0.12382 0.49358 0.71546 0.0
C261 C 0.06747 0.42187 0.70636 0.0
O262 O 0.07152 0.43611 0.68607 0.0
O263 O 0.08333 0.42168 0.72018 0.0
O264 O 0.09273 0.46617 0.62944 0.0
O265 O 0.11496 0.45195 0.63253 0.0
O266 O 0.6414 0.12575 0.72897 0.0
Cd267 Cd 0.66559 0.11823 0.71652 0.0
Cd268 Cd 0.63861 0.10321 0.66645 0.0
O269 O 0.62364 0.11916 0.68646 0.0
O270 O 0.68902 0.13379 0.74701 0.0
O271 O 0.6947 0.14211 0.69951 0.0
C272 C 0.70218 0.14603 0.72627 0.0
C273 C 0.64119 0.10524 0.61464 0.0
C274 C 0.62633 0.12586 0.71307 0.0
C275 C 0.64181 0.06941 0.70606 0.0
O276 O 0.63186 0.07315 0.68512 0.0
O277 O 0.65751 0.08544 0.72011 0.0
O278 O 0.62246 0.09348 0.62806 0.0
O279 O 0.65884 0.11617 0.63069 0.0
O280 O 0.50719 0.63973 0.72143 0.0
Cd281 Cd 0.53929 0.66596 0.71725 0.0
Cd282 Cd 0.53901 0.64196 0.66694 0.0
O283 O 0.50891 0.61886 0.68575 0.0
O284 O 0.54104 0.68681 0.74871 0.0
O285 O 0.54567 0.69581 0.7014 0.0
C286 C 0.54497 0.70137 0.72845 0.0
C287 C 0.53968 0.64497 0.6152 0.0
C288 C 0.49858 0.62148 0.70722 0.0
C289 C 0.57421 0.65208 0.7128 0.0
O290 O 0.56735 0.64527 0.68675 0.0
O291 O 0.56476 0.6601 0.72865 0.0
O292 O 0.53851 0.62792 0.62831 0.0
O293 O 0.5405 0.66067 0.63153 0.0
O294 O 0.86082 0.50894 0.72613 0.0
Cd295 Cd 0.86862 0.54128 0.71843 0.0
Cd296 Cd 0.88845 0.53483 0.66724 0.0
O297 O 0.87516 0.50329 0.68575 0.0
O298 O 0.85113 0.5463 0.74922 0.0
O299 O 0.84564 0.54788 0.70141 0.0
C300 C 0.84015 0.54911 0.72833 0.0
C301 C 0.88719 0.53628 0.61546 0.0
C302 C 0.86484 0.4963 0.71013 0.0
C303 C 0.91806 0.57085 0.71127 0.0
O304 O 0.91643 0.56075 0.68711 0.0
O305 O 0.90088 0.56575 0.72678 0.0
O306 O 0.90065 0.53149 0.62892 0.0
O307 O 0.87411 0.54025 0.63144 0.0
O308 O 0.34823 0.86344 0.72645 0.0
Cd309 Cd 0.32362 0.87109 0.71841 0.0
Cd310 Cd 0.34903 0.88981 0.66648 0.0
O311 O 0.36751 0.87691 0.68536 0.0
O312 O 0.30101 0.85393 0.7492 0.0
O313 O 0.29412 0.84801 0.70138 0.0
C314 C 0.28729 0.8428 0.72831 0.0
C315 C 0.34617 0.88761 0.61472 0.0
C316 C 0.36464 0.86715 0.7101 0.0
C317 C 0.34323 0.92032 0.70957 0.0
O318 O 0.35132 0.91819 0.68537 0.0
O319 O 0.33144 0.90347 0.72576 0.0
O320 O 0.36446 0.90124 0.62794 0.0
O321 O 0.3291 0.87496 0.63096 0.0
O322 O 0.47465 0.35044 0.72816 0.0
Cd323 Cd 0.44362 0.32417 0.71783 0.0
Cd324 Cd 0.44999 0.35071 0.66733 0.0
O325 O 0.48073 0.37011 0.68736 0.0
O326 O 0.43903 0.30169 0.74842 0.0
O327 O 0.44021 0.29578 0.70065 0.0
C328 C 0.43818 0.28869 0.7275 0.0
C329 C 0.45019 0.34834 0.6156 0.0
C330 C 0.48716 0.36741 0.71255 0.0
C331 C 0.41153 0.34084 0.70866 0.0
O332 O 0.42267 0.35094 0.68577 0.0
O333 O 0.41684 0.32879 0.72386 0.0
O334 O 0.45373 0.36625 0.62894 0.0
O335 O 0.44647 0.33141 0.63169 0.0
H336 H 0.42682 0.036 0.20098 0.0
H337 H 0.32089 0.93855 0.27254 0.0
H338 H 0.37952 0.05317 0.23692 0.0
H339 H 0.38648 0.95568 0.30395 0.0
H340 H 0.33728 0.97534 0.24825 0.0
H341 H 0.40676 -0.00022 0.22575 0.0
C342 C 0.41193 0.03197 0.21353 0.0
C343 C 0.40482 0.0476 0.21701 0.0
C344 C 0.34788 0.97098 0.26082 0.0
C345 C 0.38189 0.00629 0.24502 0.0
C346 C 0.33863 0.95014 0.27464 0.0
C347 C 0.35238 0.94417 0.29034 0.0
C348 C 0.37102 0.98538 0.26195 0.0
C349 C 0.37527 0.95969 0.29229 0.0
C350 C 0.40068 0.01144 0.22781 0.0
C351 C 0.38555 0.04156 0.23383 0.0
N352 N 0.38396 0.97944 0.27776 0.0
N353 N 0.37461 0.02124 0.24723 0.0
H354 H 0.3839 0.32276 0.25144 0.0
H355 H 0.34903 0.38866 0.18217 0.0
H356 H 0.39589 0.36715 0.32498 0.0
H357 H 0.33378 0.40294 0.26913 0.0
H358 H 0.36116 0.36442 0.20426 0.0
H359 H 0.35974 0.33508 0.22933 0.0
C360 C 0.38134 0.33499 0.26308 0.0
C361 C 0.3924 0.34433 0.28982 0.0
C362 C 0.3545 0.37224 0.21853 0.0
C363 C 0.36522 0.35896 0.26414 0.0
C364 C 0.34773 0.38628 0.20588 0.0
C365 C 0.34056 0.39801 0.22382 0.0
C366 C 0.35426 0.37004 0.24941 0.0
C367 C 0.33925 0.39428 0.25443 0.0
C368 C 0.3677 0.34218 0.25024 0.0
C369 C 0.38804 0.35976 0.30411 0.0
N370 N 0.34648 0.38097 0.26631 0.0
N371 N 0.37498 0.36678 0.29092 0.0
H372 H 0.95983 0.35264 0.18149 0.0
H373 H 0.06036 0.38936 0.25222 0.0
H374 H 0.9295 0.33556 0.26792 0.0
H375 H 0.0264 0.39968 0.3253 0.0
H376 H 0.02429 0.36446 0.22957 0.0
H377 H -0.00384 0.36539 0.20412 0.0
C378 C 0.96075 0.35106 0.20518 0.0
C379 C 0.94161 0.3432 0.22284 0.0
C380 C 0.02472 0.3722 0.25052 0.0
C381 C 0.98323 0.35764 0.24902 0.0
C382 C 0.04533 0.38627 0.26366 0.0
C383 C 0.04646 0.39709 0.29041 0.0
C384 C 0.00512 0.36903 0.26413 0.0
C385 C 0.02637 0.39203 0.30443 0.0
C386 C 0.98154 0.3582 0.21813 0.0
C387 C 0.94382 0.34156 0.25344 0.0
N388 N 0.00652 0.37856 0.29095 0.0
N389 N 0.96432 0.34917 0.26562 0.0
H390 H 0.58649 0.93119 0.26921 0.0
H391 H 0.65143 0.06273 0.24047 0.0
H392 H 0.59007 0.96077 0.18396 0.0
H393 H 0.62605 0.033 0.32584 0.0
H394 H 0.63737 0.02546 0.21969 0.0
H395 H 0.60939 0.96853 0.28997 0.0
C396 C 0.59237 0.94549 0.25472 0.0
C397 C 0.58612 0.94285 0.22483 0.0
C398 C 0.63512 0.02715 0.24303 0.0
C399 C 0.61235 0.98557 0.24853 0.0
C400 C 0.64322 0.04841 0.25498 0.0
C401 C 0.63968 0.05099 0.28492 0.0
C402 C 0.62362 0.00834 0.26118 0.0
C403 C 0.62894 0.03179 0.3026 0.0
C404 C 0.60535 0.96679 0.26666 0.0
C405 C 0.59428 0.96203 0.20717 0.0
N406 N 0.62117 0.01125 0.29042 0.0
N407 N 0.60688 0.9826 0.21933 0.0
H408 H 0.60455 0.64147 0.3239 0.0
H409 H 0.62702 0.59425 0.1777 0.0
H410 H 0.58788 0.65533 0.23757 0.0
H411 H 0.65946 0.59714 0.2604 0.0
H412 H 0.61538 0.61953 0.19812 0.0
H413 H 0.62769 0.62831 0.30061 0.0
C414 C 0.60605 0.6421 0.30007 0.0
C415 C 0.59399 0.6492 0.28265 0.0
C416 C 0.62537 0.61494 0.21163 0.0
C417 C 0.62016 0.63382 0.25581 0.0
C418 C 0.632 0.60046 0.19999 0.0
C419 C 0.64393 0.59326 0.21751 0.0
C420 C 0.63043 0.62199 0.24113 0.0
C421 C 0.65008 0.60203 0.24616 0.0
C422 C 0.61929 0.6346 0.28676 0.0
C423 C 0.59674 0.64984 0.25187 0.0
N424 N 0.64293 0.61562 0.25724 0.0
N425 N 0.60919 0.64183 0.2394 0.0
H426 H 0.05603 0.66394 0.26195 0.0
H427 H 0.9246 0.58834 0.23772 0.0
H428 H 0.02578 0.62973 0.18042 0.0
H429 H 0.9565 0.60507 0.32322 0.0
H430 H 0.96079 0.61245 0.2146 0.0
H431 H 0.0189 0.6514 0.28212 0.0
C432 C 0.04163 0.65412 0.24807 0.0
C433 C 0.04404 0.64753 0.2196 0.0
C434 C 0.95977 0.6111 0.23844 0.0
C435 C 0.00151 0.63315 0.24267 0.0
C436 C 0.93911 0.59743 0.2517 0.0
C437 C 0.93757 0.59438 0.28246 0.0
C438 C 0.97898 0.62193 0.25607 0.0
C439 C 0.95696 0.60666 0.29942 0.0
C440 C 0.02043 0.64692 0.25968 0.0
C441 C 0.02472 0.63494 0.20262 0.0
N442 N 0.97691 0.61972 0.28597 0.0
N443 N 0.00424 0.62794 0.21454 0.0
H444 H 0.60785 0.93781 0.77447 0.0
H445 H 0.59922 0.03499 0.70137 0.0
H446 H 0.55921 0.95505 0.80472 0.0
H447 H 0.66378 0.05179 0.73657 0.0
H448 H 0.58298 -0.00113 0.72642 0.0
H449 H 0.62814 0.97432 0.74946 0.0
C450 C 0.60164 0.94937 0.77615 0.0
C451 C 0.58191 0.94352 0.79176 0.0
C452 C 0.60075 0.01042 0.72825 0.0
C453 C 0.60434 0.9844 0.76254 0.0
C454 C 0.61007 0.03089 0.7138 0.0
C455 C 0.63287 0.0464 0.717 0.0
C456 C 0.6144 0.0052 0.74536 0.0
C457 C 0.64611 0.04029 0.73369 0.0
C458 C 0.61315 0.97005 0.76191 0.0
C459 C 0.57445 0.95898 0.79316 0.0
N460 N 0.63667 0.02002 0.74727 0.0
N461 N 0.58544 0.97857 0.77825 0.0
H462 H 0.62656 0.59443 0.83056 0.0
H463 H 0.60203 0.64056 0.68455 0.0
H464 H 0.65834 0.59735 0.74729 0.0
H465 H 0.58532 0.65392 0.77116 0.0
H466 H 0.62544 0.62758 0.70753 0.0
H467 H 0.61394 0.61896 0.81021 0.0
C468 C 0.63117 0.60048 0.80815 0.0
C469 C 0.64324 0.59353 0.79048 0.0
C470 C 0.61695 0.6337 0.72151 0.0
C471 C 0.62863 0.6214 0.76695 0.0
C472 C 0.60356 0.64109 0.70838 0.0
C473 C 0.59145 0.64804 0.72596 0.0
C474 C 0.61795 0.6329 0.75244 0.0
C475 C 0.59422 0.64855 0.75674 0.0
C476 C 0.62399 0.61453 0.79655 0.0
C477 C 0.64888 0.60208 0.76166 0.0
N478 N 0.60687 0.64069 0.76902 0.0
N479 N 0.64122 0.61525 0.75065 0.0
H480 H 0.95804 0.59103 0.68177 0.0
H481 H 0.02975 0.62733 0.82813 0.0
H482 H 0.92901 0.58735 0.76746 0.0
H483 H 0.05885 0.65162 0.74218 0.0
H484 H 0.99264 0.61307 0.80656 0.0
H485 H -0.00482 0.61382 0.70326 0.0
C486 C 0.95946 0.59523 0.70502 0.0
C487 C 0.94039 0.5871 0.72288 0.0
C488 C 0.00718 0.62181 0.79252 0.0
C489 C 0.98282 0.61289 0.74767 0.0
C490 C 0.02836 0.6299 0.80481 0.0
C491 C 0.04743 0.64051 0.7869 0.0
C492 C 0.00504 0.62398 0.76203 0.0
C493 C 0.04462 0.64348 0.75683 0.0
C494 C 0.98066 0.60828 0.71726 0.0
C495 C 0.94323 0.59318 0.75285 0.0
N496 N 0.02381 0.63496 0.74526 0.0
N497 N 0.96406 0.60543 0.76439 0.0
H498 H 0.39825 0.06304 0.7426 0.0
H499 H 0.36302 0.95969 0.67876 0.0
H500 H 0.40244 0.03044 0.8217 0.0
H501 H 0.33806 0.93239 0.76528 0.0
H502 H 0.37756 -0.00283 0.69883 0.0
H503 H 0.37546 0.02657 0.71968 0.0
C504 C 0.39427 0.04822 0.75526 0.0
C505 C 0.40264 0.04985 0.78398 0.0
C506 C 0.36837 0.98299 0.71329 0.0
C507 C 0.37694 0.00804 0.75755 0.0
C508 C 0.36022 0.96156 0.70186 0.0
C509 C 0.34937 0.94286 0.72037 0.0
C510 C 0.36582 0.98575 0.74352 0.0
C511 C 0.34629 0.94631 0.75017 0.0
C512 C 0.38143 0.0274 0.74199 0.0
C513 C 0.39664 0.03002 0.79938 0.0
N514 N 0.35482 0.96736 0.76093 0.0
N515 N 0.38425 0.00993 0.78589 0.0
H516 H 0.34964 0.38919 0.82661 0.0
H517 H 0.38589 0.32395 0.75839 0.0
H518 H 0.3333 0.40185 0.73937 0.0
H519 H 0.39678 0.36746 0.68418 0.0
H520 H 0.36143 0.33593 0.7804 0.0
H521 H 0.36244 0.36534 0.80497 0.0
C522 C 0.34825 0.38653 0.80295 0.0
C523 C 0.34056 0.3977 0.78478 0.0
C524 C 0.36921 0.34291 0.75936 0.0
C525 C 0.35503 0.37018 0.75973 0.0
C526 C 0.38303 0.33591 0.74659 0.0
C527 C 0.39385 0.34511 0.71968 0.0
C528 C 0.3663 0.35934 0.74521 0.0
C529 C 0.38911 0.3602 0.70519 0.0
C530 C 0.35541 0.37271 0.79057 0.0
C531 C 0.33917 0.39363 0.75424 0.0
N532 N 0.37586 0.36702 0.71829 0.0
N533 N 0.34677 0.38056 0.74263 0.0
H534 H 0.03328 0.43041 0.70173 0.0
H535 H 0.93513 0.32374 0.77199 0.0
H536 H 0.04933 0.38181 0.73584 0.0
H537 H 0.95203 0.38933 0.8031 0.0
H538 H 0.9719 0.34019 0.74762 0.0
H539 H -0.0031 0.41034 0.72604 0.0
C540 C 0.02898 0.41525 0.71378 0.0
C541 C 0.04435 0.40777 0.71689 0.0
C542 C 0.96749 0.35078 0.76012 0.0
C543 C 0.00283 0.38483 0.74442 0.0
C544 C 0.94666 0.3415 0.77398 0.0
C545 C 0.94064 0.35522 0.78965 0.0
C546 C 0.98184 0.37394 0.76118 0.0
C547 C 0.95609 0.37814 0.79147 0.0
C548 C 0.00834 0.40398 0.72781 0.0
C549 C 0.03794 0.38813 0.73306 0.0
N550 N 0.97583 0.38685 0.77692 0.0
N551 N 0.01753 0.37721 0.74624 0.0
H552 H 0.43462 0.17757 0.18851 0.0
H553 H 0.43327 0.25512 0.3188 0.0
H554 H 0.43037 0.16064 0.28095 0.0
H555 H 0.43258 0.26955 0.22618 0.0
H556 H 0.43052 0.21954 0.3054 0.0
H557 H 0.43203 0.21049 0.20178 0.0
C558 C 0.43296 0.18067 0.21155 0.0
C559 C 0.43285 0.16642 0.23365 0.0
C560 C 0.43084 0.23045 0.28802 0.0
C561 C 0.43005 0.2041 0.24904 0.0
C562 C 0.43243 0.25076 0.29567 0.0
C563 C 0.43329 0.26538 0.27359 0.0
C564 C 0.43021 0.22479 0.25807 0.0
C565 C 0.43207 0.25885 0.24396 0.0
C566 C 0.4315 0.19948 0.21914 0.0
C567 C 0.43063 0.17123 0.26317 0.0
N568 N 0.43072 0.23911 0.23708 0.0
N569 N 0.42947 0.18973 0.27001 0.0
H570 H 0.16041 0.43879 0.22668 0.0
H571 H 0.27324 0.44617 0.28386 0.0
H572 H 0.17915 0.44507 0.31862 0.0
H573 H 0.25526 0.44152 0.19178 0.0
H574 H 0.23791 0.44366 0.29714 0.0
H575 H 0.19398 0.43757 0.21375 0.0
C576 C 0.17155 0.43983 0.2442 0.0
C577 C 0.16702 0.44215 0.2738 0.0
C578 C 0.24163 0.44311 0.27403 0.0
C579 C 0.20559 0.44082 0.25906 0.0
C580 C 0.26182 0.44455 0.2664 0.0
C581 C 0.26726 0.44416 0.23662 0.0
C582 C 0.22672 0.4413 0.25175 0.0
C583 C 0.25177 0.44195 0.21499 0.0
C584 C 0.19074 0.43913 0.23676 0.0
C585 C 0.18201 0.44332 0.29552 0.0
N586 N 0.23222 0.44068 0.22299 0.0
N587 N 0.20069 0.44274 0.2877 0.0
H588 H 0.73279 0.17994 0.31732 0.0
H589 H 0.81257 0.25775 0.18761 0.0
H590 H 0.71827 0.16566 0.22455 0.0
H591 H 0.82596 0.27291 0.28039 0.0
H592 H 0.77932 0.22242 0.20068 0.0
H593 H 0.76852 0.21263 0.30424 0.0
C594 C 0.73717 0.18359 0.29423 0.0
C595 C 0.72247 0.17015 0.27201 0.0
C596 C 0.78961 0.23345 0.21817 0.0
C597 C 0.76324 0.20753 0.25685 0.0
C598 C 0.80859 0.2536 0.2107 0.0
C599 C 0.82197 0.26835 0.23292 0.0
C600 C 0.784 0.22805 0.24806 0.0
C601 C 0.81606 0.2621 0.26251 0.0
C602 C 0.75756 0.20226 0.28675 0.0
C603 C 0.72904 0.17564 0.24242 0.0
N604 N 0.79748 0.24249 0.2692 0.0
N605 N 0.74887 0.19396 0.23572 0.0
H606 H 0.54957 0.81334 0.19141 0.0
H607 H 0.55186 0.73496 0.32011 0.0
H608 H 0.55114 0.82801 0.28434 0.0
H609 H 0.54757 0.71908 0.22728 0.0
H610 H 0.5546 0.77064 0.30735 0.0
H611 H 0.55198 0.78021 0.20398 0.0
C612 C 0.5506 0.8097 0.21443 0.0
C613 C 0.55 0.82337 0.23685 0.0
C614 C 0.55315 0.75937 0.28978 0.0
C615 C 0.55265 0.78548 0.25143 0.0
C616 C 0.5516 0.73902 0.29707 0.0
C617 C 0.54934 0.72397 0.27475 0.0
C618 C 0.55244 0.76468 0.25997 0.0
C619 C 0.54916 0.73011 0.24524 0.0
C620 C 0.55193 0.79076 0.22161 0.0
C621 C 0.55141 0.81787 0.26632 0.0
N622 N 0.55059 0.74994 0.23872 0.0
N623 N 0.55255 0.7993 0.27275 0.0
H624 H 0.71691 0.55234 0.28373 0.0
H625 H 0.8215 0.54364 0.226 0.0
H626 H 0.72887 0.54549 0.19178 0.0
H627 H 0.80925 0.5497 0.31809 0.0
H628 H 0.78864 0.54612 0.21295 0.0
H629 H 0.75165 0.55337 0.29649 0.0
C630 C 0.7269 0.55115 0.26617 0.0
C631 C 0.71992 0.54872 0.23662 0.0
C632 C 0.79314 0.54698 0.23601 0.0
C633 C 0.75974 0.54981 0.25116 0.0
C634 C 0.81192 0.54555 0.24352 0.0
C635 C 0.81808 0.54636 0.27323 0.0
C636 C 0.78034 0.54921 0.25836 0.0
C637 C 0.80507 0.54893 0.29492 0.0
C638 C 0.74675 0.55173 0.27351 0.0
C639 C 0.73359 0.54734 0.21484 0.0
N640 N 0.78675 0.55019 0.28705 0.0
N641 N 0.75281 0.5478 0.22257 0.0
H642 H 0.15837 0.72099 0.28533 0.0
H643 H 0.26545 0.83169 0.22649 0.0
H644 H 0.17418 0.73574 0.19291 0.0
H645 H 0.25349 0.81329 0.31856 0.0
H646 H 0.23003 0.79864 0.21407 0.0
H647 H 0.1911 0.75659 0.298 0.0
C648 C 0.16867 0.73177 0.26766 0.0
C649 C 0.1636 0.72531 0.23798 0.0
C650 C 0.23508 0.80187 0.23701 0.0
C651 C 0.20116 0.76614 0.25241 0.0
C652 C 0.25529 0.82078 0.24415 0.0
C653 C 0.26252 0.82518 0.27363 0.0
C654 C 0.22194 0.78722 0.25947 0.0
C655 C 0.24861 0.81049 0.29555 0.0
C656 C 0.18738 0.7521 0.27494 0.0
C657 C 0.17752 0.74 0.21606 0.0
N658 N 0.22903 0.79209 0.28801 0.0
N659 N 0.19573 0.75971 0.22373 0.0
H660 H 0.55277 0.73601 0.6915 0.0
H661 H 0.54813 0.81171 0.82216 0.0
H662 H 0.54458 0.71718 0.78351 0.0
H663 H 0.55651 0.83073 0.73022 0.0
H664 H 0.54953 0.77816 0.8088 0.0
H665 H 0.55665 0.77196 0.70552 0.0
C666 C 0.55187 0.73946 0.71463 0.0
C667 C 0.54821 0.72353 0.73633 0.0
C668 C 0.55122 0.78976 0.79158 0.0
C669 C 0.55261 0.76456 0.75255 0.0
C670 C 0.55047 0.80894 0.79922 0.0
C671 C 0.55205 0.82396 0.77726 0.0
C672 C 0.55351 0.78557 0.76177 0.0
C673 C 0.55508 0.81954 0.74788 0.0
C674 C 0.5541 0.75998 0.72264 0.0
C675 C 0.54727 0.72892 0.766 0.0
N676 N 0.55557 0.80069 0.74097 0.0
N677 N 0.54935 0.74892 0.77321 0.0
H678 H 0.73168 0.55177 0.81886 0.0
H679 H 0.8119 0.55359 0.68998 0.0
H680 H 0.71898 0.55442 0.72602 0.0
H681 H 0.82526 0.55235 0.78288 0.0
H682 H 0.77903 0.55642 0.70277 0.0
H683 H 0.7673 0.55439 0.80622 0.0
C684 C 0.73643 0.55303 0.79584 0.0
C685 C 0.72228 0.55273 0.77347 0.0
C686 C 0.78924 0.55567 0.72035 0.0
C687 C 0.76294 0.55565 0.75881 0.0
C688 C 0.80802 0.55408 0.71305 0.0
C689 C 0.82125 0.55258 0.73538 0.0
C690 C 0.78364 0.55569 0.7502 0.0
C691 C 0.81546 0.55334 0.76492 0.0
C692 C 0.75677 0.55452 0.78862 0.0
C693 C 0.72931 0.55447 0.74401 0.0
N694 N 0.79703 0.5547 0.77146 0.0
N695 N 0.74908 0.55573 0.73754 0.0
H696 H 0.25486 0.81403 0.69002 0.0
H697 H 0.17559 0.73559 0.8195 0.0
H698 H 0.26868 0.82876 0.78283 0.0
H699 H 0.16198 0.72069 0.72669 0.0
H700 H 0.20816 0.77144 0.80647 0.0
H701 H 0.21908 0.78134 0.70293 0.0
C702 C 0.2503 0.8105 0.71308 0.0
C703 C 0.26485 0.82404 0.73537 0.0
C704 C 0.19795 0.76038 0.78897 0.0
C705 C 0.22403 0.78664 0.75034 0.0
C706 C 0.17935 0.73992 0.7964 0.0
C707 C 0.16616 0.72506 0.77416 0.0
C708 C 0.2034 0.76596 0.75908 0.0
C709 C 0.17177 0.73157 0.74459 0.0
C710 C 0.22988 0.79182 0.72046 0.0
C711 C 0.25805 0.8187 0.76491 0.0
N712 N 0.19003 0.75146 0.73792 0.0
N713 N 0.23821 0.80035 0.77152 0.0
H714 H 0.43706 0.2574 0.68917 0.0
H715 H 0.43634 0.17808 0.81855 0.0
H716 H 0.43368 0.26994 0.78189 0.0
H717 H 0.43828 0.16484 0.72575 0.0
H718 H 0.43295 0.21059 0.80551 0.0
H719 H 0.43516 0.22213 0.70201 0.0
C720 C 0.43579 0.25268 0.71219 0.0
C721 C 0.43568 0.26669 0.73448 0.0
C722 C 0.43399 0.20049 0.78801 0.0
C723 C 0.43358 0.22645 0.74937 0.0
C724 C 0.43591 0.18192 0.79546 0.0
C725 C 0.43775 0.16882 0.77322 0.0
C726 C 0.43398 0.206 0.75812 0.0
C727 C 0.43704 0.17454 0.74364 0.0
C728 C 0.43471 0.23255 0.71953 0.0
C729 C 0.43394 0.25971 0.76397 0.0
N730 N 0.43534 0.19276 0.73697 0.0
N731 N 0.43309 0.24016 0.77056 0.0
H732 H 0.17662 0.44396 0.68302 0.0
H733 H 0.27068 0.43723 0.71994 0.0
H734 H 0.15754 0.4279 0.77438 0.0
H735 H 0.25338 0.44178 0.81022 0.0
H736 H 0.2352 0.43275 0.70386 0.0
H737 H 0.21079 0.44327 0.69309 0.0
C738 C 0.17944 0.43984 0.70509 0.0
C739 C 0.16422 0.43602 0.72787 0.0
C740 C 0.23915 0.4351 0.72714 0.0
C741 C 0.20329 0.43476 0.7397 0.0
C742 C 0.25943 0.43746 0.7364 0.0
C743 C 0.26514 0.44018 0.76646 0.0
C744 C 0.2245 0.43575 0.74808 0.0
C745 C 0.24974 0.43991 0.78681 0.0
C746 C 0.19899 0.4393 0.71088 0.0
C747 C 0.16883 0.431 0.75613 0.0
N748 N 0.23017 0.43786 0.77721 0.0
N749 N 0.18801 0.43068 0.76126 0.0
H750 H 0.81178 0.25396 0.81893 0.0
H751 H 0.73414 0.17592 0.68839 0.0
H752 H 0.82808 0.2678 0.72648 0.0
H753 H 0.72125 0.15886 0.78077 0.0
H754 H 0.76974 0.20867 0.70179 0.0
H755 H 0.77954 0.218 0.80544 0.0
C756 C 0.80869 0.24937 0.79583 0.0
C757 C 0.82255 0.26396 0.77381 0.0
C758 C 0.7592 0.19765 0.71911 0.0
C759 C 0.78565 0.22295 0.75817 0.0
C760 C 0.73888 0.17894 0.71145 0.0
C761 C 0.72464 0.16473 0.73349 0.0
C762 C 0.76522 0.20222 0.74903 0.0
C763 C 0.73165 0.16943 0.76303 0.0
C764 C 0.79028 0.22884 0.78812 0.0
C765 C 0.81778 0.25712 0.74421 0.0
N766 N 0.75135 0.18786 0.76994 0.0
N767 N 0.79965 0.2372 0.73725 0.0
H768 H 0.44217 0.12995 0.07797 0.0
H769 H 0.46253 0.07793 0.93103 0.0
H770 H 0.46615 0.08309 0.07614 0.0
H771 H 0.44384 0.12883 0.92833 0.0
H772 H 0.46254 0.07922 0.98459 0.0
H773 H 0.44143 0.12955 0.02365 0.0
C774 C 0.44727 0.11961 0.0662 0.0
C775 C 0.45423 0.10653 0.08166 0.0
C776 C 0.45842 0.09016 0.97242 0.0
C777 C 0.45337 0.10596 0.01974 0.0
C778 C 0.45839 0.08941 0.94171 0.0
C779 C 0.4532 0.10332 0.92507 0.0
C780 C 0.45319 0.10491 0.98692 0.0
C781 C 0.44796 0.11783 0.94029 0.0
C782 C 0.44686 0.1194 0.03523 0.0
C783 C 0.46067 0.09346 0.06527 0.0
N784 N 0.44809 0.11826 0.97041 0.0
N785 N 0.46005 0.0935 0.03534 0.0
H786 H 0.37738 0.45549 0.93062 0.0
H787 H 0.31206 0.45015 0.07943 0.0
H788 H 0.31227 0.44967 0.92983 0.0
H789 H 0.37658 0.4547 0.07593 0.0
H790 H 0.31131 0.45029 0.02513 0.0
H791 H 0.37691 0.45563 0.98421 0.0
C792 C 0.36293 0.45425 0.94172 0.0
C793 C 0.34482 0.45255 0.92561 0.0
C794 C 0.3256 0.45126 0.03634 0.0
C795 C 0.34416 0.45268 0.9875 0.0
C796 C 0.32604 0.45118 0.0673 0.0
C797 C 0.34441 0.4524 0.08229 0.0
C798 C 0.34366 0.45259 0.02036 0.0
C799 C 0.36205 0.45372 0.06544 0.0
C800 C 0.36267 0.45432 0.97245 0.0
C801 C 0.32659 0.451 0.94137 0.0
N802 N 0.36122 0.45378 0.03552 0.0
N803 N 0.3267 0.45109 0.97149 0.0
H804 H 0.90782 0.38272 0.93051 0.0
H805 H 0.86046 0.31282 0.08011 0.0
H806 H 0.85954 0.31226 0.93034 0.0
H807 H 0.91631 0.38004 0.07514 0.0
H808 H 0.8578 0.31217 0.02591 0.0
H809 H 0.90889 0.38201 0.98408 0.0
C810 C 0.89738 0.36704 0.94175 0.0
C811 C 0.8836 0.3475 0.92581 0.0
C812 C 0.87062 0.32701 0.03678 0.0
C813 C 0.88476 0.34656 0.98764 0.0
C814 C 0.87213 0.32741 0.06767 0.0
C815 C 0.88864 0.34651 0.08222 0.0
C816 C 0.88562 0.3459 0.02043 0.0
C817 C 0.90333 0.36492 0.06499 0.0
C818 C 0.89804 0.36664 0.97245 0.0
C819 C 0.87045 0.32771 0.94173 0.0
N820 N 0.90143 0.36415 0.03514 0.0
N821 N 0.87134 0.32773 0.97182 0.0
H822 H 0.54417 0.8621 0.08204 0.0
H823 H 0.52094 0.91007 0.93338 0.0
H824 H 0.52578 0.91321 0.07851 0.0
H825 H 0.54428 0.8627 0.93238 0.0
H826 H 0.52195 0.91024 0.98695 0.0
H827 H 0.54379 0.86097 0.02775 0.0
C828 C 0.54008 0.87307 0.06991 0.0
C829 C 0.53499 0.88776 0.08489 0.0
C830 C 0.52689 0.89978 0.97515 0.0
C831 C 0.53448 0.88652 0.02297 0.0
C832 C 0.52629 0.89965 0.94443 0.0
C833 C 0.53255 0.88635 0.92827 0.0
C834 C 0.53376 0.88646 0.99013 0.0
C835 C 0.53933 0.87322 0.94396 0.0
C836 C 0.53988 0.87242 0.03895 0.0
C837 C 0.52982 0.9016 0.06803 0.0
N838 N 0.53974 0.87358 0.97408 0.0
N839 N 0.52967 0.9006 0.03811 0.0
H840 H 0.60611 0.52701 0.07694 0.0
H841 H 0.67661 0.54382 0.92911 0.0
H842 H 0.67487 0.54274 0.07871 0.0
H843 H 0.60787 0.52812 0.93172 0.0
H844 H 0.67689 0.54314 0.98341 0.0
H845 H 0.607 0.52694 0.02337 0.0
C846 C 0.62145 0.53044 0.06605 0.0
C847 C 0.64046 0.53493 0.08243 0.0
C848 C 0.66178 0.53983 0.97201 0.0
C849 C 0.64162 0.53491 0.02057 0.0
C850 C 0.6616 0.54021 0.94105 0.0
C851 C 0.6422 0.53605 0.92581 0.0
C852 C 0.64241 0.53526 0.98773 0.0
C853 C 0.62324 0.53147 0.94241 0.0
C854 C 0.62195 0.5304 0.03533 0.0
C855 C 0.65982 0.5392 0.06695 0.0
N856 N 0.62386 0.53122 0.97234 0.0
N857 N 0.65993 0.53913 0.03684 0.0
H858 H 0.12809 0.67963 0.93044 0.0
H859 H 0.07245 0.6103 0.07843 0.0
H860 H 0.07555 0.61069 0.93324 0.0
H861 H 0.12593 0.67885 0.08002 0.0
H862 H 0.07385 0.61088 0.02487 0.0
H863 H 0.12806 0.68045 0.98474 0.0
C864 C 0.11658 0.6647 0.94242 0.0
C865 C 0.10179 0.64507 0.92723 0.0
C866 C 0.08534 0.62585 0.0368 0.0
C867 C 0.10168 0.64589 0.98915 0.0
C868 C 0.08454 0.62554 0.06751 0.0
C869 C 0.09909 0.64457 0.08383 0.0
C870 C 0.10079 0.64537 0.02198 0.0
C871 C 0.1144 0.66379 0.06831 0.0
C872 C 0.11658 0.66518 0.97338 0.0
C873 C 0.08725 0.62622 0.94389 0.0
N874 N 0.11485 0.66372 0.0382 0.0
N875 N 0.08758 0.62713 0.97381 0.0
H876 H 0.91488 0.53117 0.57764 0.0
H877 H 0.85895 0.54326 0.42899 0.0
H878 H 0.85956 0.5435 0.57865 0.0
H879 H 0.91891 0.5387 0.43258 0.0
H880 H 0.85758 0.54231 0.48327 0.0
H881 H 0.91521 0.53264 0.52407 0.0
C882 C 0.90275 0.53419 0.56659 0.0
C883 C 0.88716 0.53722 0.58275 0.0
C884 C 0.87102 0.54156 0.47209 0.0
C885 C 0.88744 0.53893 0.52091 0.0
C886 C 0.87181 0.54208 0.44114 0.0
C887 C 0.88906 0.54104 0.42618 0.0
C888 C 0.88755 0.53989 0.48808 0.0
C889 C 0.90528 0.53954 0.44306 0.0
C890 C 0.90297 0.53506 0.53588 0.0
C891 C 0.87188 0.54109 0.56707 0.0
N892 N 0.90409 0.53897 0.47297 0.0
N893 N 0.87237 0.5418 0.53696 0.0
H894 H 0.38018 0.91156 0.57638 0.0
H895 H 0.30808 0.86149 0.42878 0.0
H896 H 0.31017 0.86185 0.57844 0.0
H897 H 0.37894 0.90812 0.43123 0.0
H898 H 0.30758 0.86131 0.4831 0.0
H899 H 0.37913 0.91053 0.52282 0.0
C900 C 0.36452 0.90038 0.56556 0.0
C901 C 0.34522 0.88676 0.58202 0.0
C902 C 0.3232 0.87154 0.47166 0.0
C903 C 0.34389 0.88548 0.52016 0.0
C904 C 0.3235 0.87166 0.44069 0.0
C905 C 0.34358 0.88485 0.4254 0.0
C906 C 0.34312 0.88475 0.48733 0.0
C907 C 0.36305 0.89768 0.44196 0.0
C908 C 0.36394 0.89979 0.53485 0.0
C909 C 0.32544 0.87263 0.56662 0.0
N910 N 0.36231 0.89731 0.47188 0.0
N911 N 0.32527 0.87236 0.5365 0.0
H912 H 0.45877 0.38209 0.57746 0.0
H913 H 0.4412 0.31146 0.42953 0.0
H914 H 0.44206 0.31304 0.57909 0.0
H915 H 0.45741 0.38035 0.4322 0.0
H916 H 0.44177 0.31112 0.48382 0.0
H917 H 0.45873 0.38121 0.52389 0.0
C918 C 0.45508 0.36669 0.56655 0.0
C919 C 0.45037 0.34759 0.58289 0.0
C920 C 0.44522 0.32628 0.47244 0.0
C921 C 0.45028 0.34645 0.52102 0.0
C922 C 0.4449 0.32649 0.44148 0.0
C923 C 0.44923 0.34595 0.42626 0.0
C924 C 0.44992 0.34568 0.48818 0.0
C925 C 0.45393 0.36493 0.44288 0.0
C926 C 0.45507 0.3662 0.53582 0.0
C927 C 0.44577 0.32815 0.56737 0.0
N928 N 0.45413 0.36429 0.4728 0.0
N929 N 0.44581 0.32805 0.53725 0.0
H930 H 0.12759 0.44542 0.58012 0.0
H931 H 0.07512 0.46456 0.43286 0.0
H932 H 0.08239 0.47141 0.57778 0.0
H933 H 0.12635 0.4463 0.43043 0.0
H934 H 0.07719 0.46578 0.48639 0.0
H935 H 0.12716 0.44443 0.52582 0.0
C936 C 0.11763 0.45095 0.56824 0.0
C937 C 0.10498 0.45848 0.58356 0.0
C938 C 0.08805 0.46152 0.47428 0.0
C939 C 0.10436 0.45731 0.52165 0.0
C940 C 0.08684 0.46078 0.44359 0.0
C941 C 0.10058 0.45531 0.42704 0.0
C942 C 0.10305 0.45667 0.48884 0.0
C943 C 0.11546 0.45062 0.44232 0.0
C944 C 0.11741 0.45039 0.53728 0.0
C945 C 0.0924 0.46545 0.56703 0.0
N946 N 0.11627 0.45136 0.47242 0.0
N947 N 0.09238 0.46464 0.53711 0.0
H948 H 0.6781 0.13096 0.42831 0.0
H949 H 0.60657 0.08258 0.57664 0.0
H950 H 0.60851 0.08011 0.43147 0.0
H951 H 0.6775 0.12899 0.57798 0.0
H952 H 0.60745 0.08289 0.52306 0.0
H953 H 0.67876 0.1318 0.48262 0.0
C954 C 0.663 0.11999 0.44037 0.0
C955 C 0.64322 0.10544 0.42528 0.0
C956 C 0.62289 0.09304 0.53493 0.0
C957 C 0.64385 0.10636 0.48721 0.0
C958 C 0.62239 0.09289 0.56566 0.0
C959 C 0.64201 0.10577 0.58192 0.0
C960 C 0.64315 0.1062 0.52005 0.0
C961 C 0.66199 0.11878 0.56632 0.0
C962 C 0.6634 0.12047 0.47134 0.0
C963 C 0.62416 0.0916 0.44204 0.0
N964 N 0.66206 0.11869 0.5362 0.0
N965 N 0.62497 0.09243 0.47196 0.0
H966 H 0.53955 0.61337 0.43131 0.0
H967 H 0.54181 0.67823 0.5792 0.0
H968 H 0.54256 0.67722 0.4296 0.0
H969 H 0.53835 0.61419 0.57657 0.0
H970 H 0.54228 0.67893 0.52489 0.0
H971 H 0.53929 0.61413 0.48488 0.0
C972 C 0.54016 0.62761 0.44221 0.0
C973 C 0.54107 0.64527 0.42584 0.0
C974 C 0.54142 0.66476 0.53629 0.0
C975 C 0.54078 0.64625 0.48771 0.0
C976 C 0.54115 0.66435 0.56726 0.0
C977 C 0.54004 0.64612 0.5825 0.0
C978 C 0.54057 0.64682 0.52056 0.0
C979 C 0.53922 0.6286 0.56588 0.0
C980 C 0.54002 0.62803 0.47293 0.0
C981 C 0.54184 0.66325 0.44134 0.0
N982 N 0.5395 0.62941 0.53595 0.0
N983 N 0.54168 0.66329 0.47146 0.0
H984 H 0.52911 0.13414 0.18338 0.0
H985 H 0.58604 0.12115 0.32831 0.0
H986 H 0.50286 0.13134 0.27077 0.0
H987 H 0.61986 0.14125 0.24424 0.0
H988 H 0.55602 0.12617 0.30821 0.0
H989 H 0.56319 0.13829 0.2055 0.0
C990 C 0.53061 0.13466 0.20722 0.0
C991 C 0.51301 0.13217 0.22523 0.0
C992 C 0.57015 0.12974 0.29429 0.0
C993 C 0.55187 0.13664 0.25072 0.0
C994 C 0.58728 0.12684 0.30573 0.0
C995 C 0.6054 0.13056 0.28786 0.0
C996 C 0.57102 0.13615 0.26466 0.0
C997 C 0.60616 0.13804 0.25881 0.0
C998 C 0.5501 0.13706 0.21985 0.0
C999 C 0.51596 0.13312 0.256 0.0
N1000 N 0.58909 0.14031 0.24802 0.0
N1001 N 0.53488 0.13496 0.26777 0.0
H1002 H 0.48872 0.5777 0.30229 0.0
H1003 H 0.36827 0.52664 0.23572 0.0
H1004 H 0.4663 0.62244 0.27232 0.0
H1005 H 0.41287 0.50358 0.20744 0.0
H1006 H 0.40008 0.55919 0.25895 0.0
H1007 H 0.4562 0.54663 0.27844 0.0
C1008 C 0.47675 0.5809 0.29113 0.0
C1009 C 0.48014 0.60262 0.28921 0.0
C1010 C 0.4028 0.54703 0.24742 0.0
C1011 C 0.44306 0.56728 0.26225 0.0
C1012 C 0.38477 0.52855 0.23421 0.0
C1013 C 0.38806 0.51254 0.21954 0.0
C1014 C 0.42396 0.54897 0.24676 0.0
C1015 C 0.4097 0.51568 0.21829 0.0
C1016 C 0.45839 0.56326 0.27735 0.0
C1017 C 0.46426 0.60591 0.27418 0.0
N1018 N 0.42681 0.53337 0.23215 0.0
N1019 N 0.44624 0.58836 0.26139 0.0
H1020 H 0.9071 0.48975 0.30317 0.0
H1021 H 0.83963 0.36889 0.23643 0.0
H1022 H 0.83936 0.46531 0.27411 0.0
H1023 H 0.90713 0.41458 0.20866 0.0
H1024 H 0.8382 0.40019 0.26015 0.0
H1025 H 0.90651 0.45758 0.27948 0.0
C1026 C 0.89198 0.47741 0.29226 0.0
C1027 C 0.87324 0.48014 0.29053 0.0
C1028 C 0.85321 0.40325 0.24866 0.0
C1029 C 0.87247 0.44345 0.26375 0.0
C1030 C 0.85405 0.38552 0.23517 0.0
C1031 C 0.87349 0.38927 0.22046 0.0
C1032 C 0.87219 0.42459 0.24822 0.0
C1033 C 0.89177 0.41106 0.21953 0.0
C1034 C 0.89175 0.45924 0.27856 0.0
C1035 C 0.85416 0.46379 0.27582 0.0
N1036 N 0.8908 0.42788 0.23363 0.0
N1037 N 0.85418 0.44599 0.26309 0.0
H1038 H 0.47639 0.85158 0.26603 0.0
H1039 H 0.36725 0.86057 0.23609 0.0
H1040 H 0.4623 0.87221 0.18259 0.0
H1041 H 0.39201 0.85921 0.32315 0.0
H1042 H 0.39759 0.85672 0.21463 0.0
H1043 H 0.44113 0.84629 0.28536 0.0
C1044 C 0.46579 0.85477 0.25163 0.0
C1045 C 0.47247 0.86262 0.22271 0.0
C1046 C 0.39622 0.85704 0.23843 0.0
C1047 C 0.43205 0.85656 0.24481 0.0
C1048 C 0.37885 0.85913 0.25073 0.0
C1049 C 0.37722 0.86047 0.28149 0.0
C1050 C 0.41196 0.85609 0.25701 0.0
C1051 C 0.39275 0.85849 0.29932 0.0
C1052 C 0.44568 0.8518 0.26275 0.0
C1053 C 0.45794 0.86636 0.2051 0.0
N1054 N 0.40954 0.85653 0.28682 0.0
N1055 N 0.43847 0.86342 0.21649 0.0
H1056 H 0.61453 0.4843 0.26976 0.0
H1057 H 0.50031 0.37093 0.23949 0.0
H1058 H 0.58384 0.46536 0.18364 0.0
H1059 H 0.51975 0.40162 0.32555 0.0
H1060 H 0.53446 0.40179 0.21878 0.0
H1061 H 0.58341 0.45034 0.29035 0.0
C1062 C 0.60137 0.47291 0.2551 0.0
C1063 C 0.60173 0.47779 0.22492 0.0
C1064 C 0.53129 0.40167 0.24222 0.0
C1065 C 0.5661 0.43886 0.24844 0.0
C1066 C 0.51186 0.38402 0.25411 0.0
C1067 C 0.50707 0.38376 0.2843 0.0
C1068 C 0.54618 0.41907 0.26067 0.0
C1069 C 0.52267 0.40121 0.30213 0.0
C1070 C 0.58357 0.45358 0.26693 0.0
C1071 C 0.58418 0.46238 0.20705 0.0
N1072 N 0.54151 0.41819 0.29003 0.0
N1073 N 0.56704 0.44361 0.2191 0.0
H1074 H 0.12465 0.61953 0.27086 0.0
H1075 H 0.12518 0.50602 0.24035 0.0
H1076 H 0.11294 0.58885 0.18474 0.0
H1077 H 0.11323 0.52485 0.32643 0.0
H1078 H 0.12792 0.53997 0.21975 0.0
H1079 H 0.12772 0.58851 0.29141 0.0
C1080 C 0.12295 0.6064 0.25619 0.0
C1081 C 0.11838 0.60673 0.22603 0.0
C1082 C 0.12483 0.5367 0.24317 0.0
C1083 C 0.12193 0.57122 0.24949 0.0
C1084 C 0.12335 0.51739 0.255 0.0
C1085 C 0.11881 0.51249 0.28517 0.0
C1086 C 0.12201 0.55139 0.26166 0.0
C1087 C 0.11658 0.52786 0.30302 0.0
C1088 C 0.12461 0.58866 0.268 0.0
C1089 C 0.11632 0.58921 0.20814 0.0
N1090 N 0.11818 0.54661 0.29099 0.0
N1091 N 0.11808 0.57214 0.22016 0.0
H1092 H 0.45749 0.85868 0.82663 0.0
H1093 H 0.40052 0.86979 0.68047 0.0
H1094 H 0.48337 0.85984 0.73949 0.0
H1095 H 0.36724 0.85213 0.76504 0.0
H1096 H 0.43029 0.86463 0.70112 0.0
H1097 H 0.4235 0.85455 0.80427 0.0
C1098 C 0.45593 0.8578 0.80281 0.0
C1099 C 0.47341 0.85983 0.78492 0.0
C1100 C 0.41633 0.86162 0.71505 0.0
C1101 C 0.43464 0.85538 0.75914 0.0
C1102 C 0.39934 0.86461 0.70328 0.0
C1103 C 0.38145 0.86162 0.72111 0.0
C1104 C 0.41557 0.85588 0.74495 0.0
C1105 C 0.38076 0.85476 0.75048 0.0
C1106 C 0.43649 0.85542 0.79003 0.0
C1107 C 0.47037 0.85844 0.75415 0.0
N1108 N 0.39771 0.8524 0.76157 0.0
N1109 N 0.4515 0.85661 0.74223 0.0
H1110 H 0.61651 0.48519 0.73886 0.0
H1111 H 0.50211 0.37208 0.76951 0.0
H1112 H 0.5859 0.4664 0.82503 0.0
H1113 H 0.52143 0.40267 0.6834 0.0
H1114 H 0.53642 0.40281 0.79007 0.0
H1115 H 0.58537 0.45117 0.71837 0.0
C1116 C 0.60338 0.47381 0.75356 0.0
C1117 C 0.60374 0.47876 0.78371 0.0
C1118 C 0.53319 0.40269 0.76665 0.0
C1119 C 0.5681 0.43978 0.76031 0.0
C1120 C 0.51366 0.38512 0.75484 0.0
C1121 C 0.50879 0.38487 0.72468 0.0
C1122 C 0.5481 0.42003 0.74815 0.0
C1123 C 0.52441 0.40226 0.70679 0.0
C1124 C 0.58557 0.45445 0.74179 0.0
C1125 C 0.58623 0.46336 0.80164 0.0
N1126 N 0.54335 0.41916 0.71881 0.0
N1127 N 0.56909 0.44457 0.78965 0.0
H1128 H 0.14075 0.62402 0.747 0.0
H1129 H 0.12805 0.50403 0.77434 0.0
H1130 H 0.11792 0.58793 0.82925 0.0
H1131 H 0.13239 0.53236 0.68796 0.0
H1132 H 0.1325 0.53821 0.79667 0.0
H1133 H 0.14591 0.59405 0.72736 0.0
C1134 C 0.13706 0.60993 0.7611 0.0
C1135 C 0.1286 0.60838 0.78973 0.0
C1136 C 0.13271 0.53701 0.77284 0.0
C1137 C 0.13448 0.574 0.76726 0.0
C1138 C 0.13027 0.51755 0.76005 0.0
C1139 C 0.12958 0.51522 0.7292 0.0
C1140 C 0.13466 0.55432 0.75466 0.0
C1141 C 0.13258 0.53332 0.71183 0.0
C1142 C 0.13996 0.5928 0.7498 0.0
C1143 C 0.12425 0.58975 0.80696 0.0
N1144 N 0.13485 0.55205 0.7248 0.0
N1145 N 0.12709 0.5732 0.79537 0.0
H1146 H 0.62085 0.13175 0.77166 0.0
H1147 H 0.51185 0.14143 0.74417 0.0
H1148 H 0.59515 0.1328 0.68513 0.0
H1149 H 0.52649 0.12046 0.82696 0.0
H1150 H 0.54692 0.14667 0.72416 0.0
H1151 H 0.59097 0.13605 0.79376 0.0
C1152 C 0.60915 0.13323 0.75726 0.0
C1153 C 0.61037 0.13165 0.72647 0.0
C1154 C 0.54253 0.14112 0.74679 0.0
C1155 C 0.57615 0.13655 0.75169 0.0
C1156 C 0.52254 0.13817 0.7583 0.0
C1157 C 0.51605 0.13021 0.78722 0.0
C1158 C 0.55625 0.13623 0.76434 0.0
C1159 C 0.53069 0.12639 0.80446 0.0
C1160 C 0.59205 0.13558 0.76993 0.0
C1161 C 0.59473 0.1337 0.70897 0.0
N1162 N 0.55005 0.1293 0.7927 0.0
N1163 N 0.57819 0.1359 0.72184 0.0
H1164 H 0.36545 0.5254 0.77034 0.0
H1165 H 0.48609 0.57747 0.70443 0.0
H1166 H 0.41074 0.50354 0.79982 0.0
H1167 H 0.46376 0.62211 0.73519 0.0
H1168 H 0.45343 0.54626 0.72781 0.0
H1169 H 0.39709 0.55811 0.74703 0.0
C1170 C 0.38206 0.5276 0.77208 0.0
C1171 C 0.3856 0.5119 0.78713 0.0
C1172 C 0.45565 0.5629 0.72914 0.0
C1173 C 0.42129 0.54846 0.75983 0.0
C1174 C 0.4741 0.58063 0.71563 0.0
C1175 C 0.47758 0.60236 0.71795 0.0
C1176 C 0.44032 0.56685 0.74436 0.0
C1177 C 0.46166 0.60558 0.73302 0.0
C1178 C 0.39998 0.54616 0.75883 0.0
C1179 C 0.40737 0.5154 0.78868 0.0
N1180 N 0.44356 0.58794 0.74557 0.0
N1181 N 0.42437 0.53314 0.77477 0.0
H1182 H 0.85562 0.36816 0.73654 0.0
H1183 H 0.84812 0.47833 0.76441 0.0
H1184 H 0.85543 0.39423 0.82312 0.0
H1185 H 0.8682 0.46312 0.68132 0.0
H1186 H 0.84243 0.44309 0.78435 0.0
H1187 H 0.8518 0.39835 0.71453 0.0
C1188 C 0.85442 0.38 0.75097 0.0
C1189 C 0.85611 0.3788 0.78175 0.0
C1190 C 0.84789 0.44739 0.76168 0.0
C1191 C 0.85178 0.41338 0.75663 0.0
C1192 C 0.85109 0.46748 0.75021 0.0
C1193 C 0.85892 0.47385 0.72121 0.0
C1194 C 0.8524 0.43344 0.74402 0.0
C1195 C 0.86237 0.45901 0.70387 0.0
C1196 C 0.85236 0.39729 0.73835 0.0
C1197 C 0.85444 0.39463 0.79929 0.0
N1198 N 0.85922 0.43955 0.71561 0.0
N1199 N 0.8525 0.41135 0.78647 0.0
loop_
_geom_bond_atom_site_label_1
_geom_bond_atom_site_label_2
_geom_bond_distance
_geom_bond_site_symmetry_2
_ccdc_geom_bond_type
O0 Cd1 2.223 . S
O0 C8 1.315 . S
Cd1 O0 2.223 . S
Cd1 O4 2.297 . S
Cd1 O5 2.439 . S
Cd1 O11 2.240 . S
Cd2 O3 2.240 . S
Cd2 O10 2.223 . S
Cd2 O12 2.297 . S
Cd2 O13 2.439 . S
O3 Cd2 2.240 . S
O3 C8 1.279 . S
O4 Cd1 2.297 . S
O4 C6 1.247 . S
O5 Cd1 2.439 . S
O5 C6 1.208 . S
C6 O4 1.247 . S
C6 O5 1.208 . S
C7 O12 1.247 . S
C7 O13 1.208 . S
C8 O0 1.315 . S
C8 O3 1.279 . S
C9 O10 1.315 . S
C9 O11 1.279 . S
O10 Cd2 2.223 . S
O10 C9 1.315 . S
O11 Cd1 2.240 . S
O11 C9 1.279 . S
O12 Cd2 2.297 . S
O12 C7 1.247 . S
O13 Cd2 2.439 . S
O13 C7 1.208 . S
O14 Cd15 2.223 . S
O14 C22 1.315 . S
Cd15 O14 2.223 . S
Cd15 O18 2.297 . S
Cd15 O19 2.439 . S
Cd15 O25 2.240 . S
Cd16 O17 2.240 . S
Cd16 O24 2.223 . S
Cd16 O26 2.297 . S
Cd16 O27 2.439 . S
O17 Cd16 2.240 . S
O17 C22 1.279 . S
O18 Cd15 2.297 . S
O18 C20 1.247 . S
O19 Cd15 2.439 . S
O19 C20 1.208 . S
C20 O18 1.247 . S
C20 O19 1.208 . S
C21 O26 1.247 . S
C21 O27 1.208 . S
C22 O14 1.315 . S
C22 O17 1.279 . S
C23 O24 1.315 . S
C23 O25 1.279 . S
O24 Cd16 2.223 . S
O24 C23 1.315 . S
O25 Cd15 2.240 . S
O25 C23 1.279 . S
O26 Cd16 2.297 . S
O26 C21 1.247 . S
O27 Cd16 2.439 . S
O27 C21 1.208 . S
O28 Cd29 2.223 . S
O28 C36 1.315 . S
Cd29 O28 2.223 . S
Cd29 O32 2.297 . S
Cd29 O33 2.439 . S
Cd29 O39 2.240 . S
Cd30 O31 2.240 . S
Cd30 O38 2.223 . S
Cd30 O40 2.297 . S
Cd30 O41 2.439 . S
O31 Cd30 2.240 . S
O31 C36 1.279 . S
O32 Cd29 2.297 . S
O32 C34 1.247 . S
O33 Cd29 2.439 . S
O33 C34 1.208 . S
C34 O32 1.247 . S
C34 O33 1.208 . S
C35 O40 1.247 . S
C35 O41 1.208 . S
C36 O28 1.315 . S
C36 O31 1.279 . S
C37 O38 1.315 . S
C37 O39 1.279 . S
O38 Cd30 2.223 . S
O38 C37 1.315 . S
O39 Cd29 2.240 . S
O39 C37 1.279 . S
O40 Cd30 2.297 . S
O40 C35 1.247 . S
O41 Cd30 2.439 . S
O41 C35 1.208 . S
O42 Cd43 2.223 . S
O42 C50 1.315 . S
Cd43 O42 2.223 . S
Cd43 O46 2.297 . S
Cd43 O47 2.439 . S
Cd43 O53 2.240 . S
Cd44 O45 2.240 . S
Cd44 O52 2.223 . S
Cd44 O54 2.297 . S
Cd44 O55 2.439 . S
O45 Cd44 2.240 . S
O45 C50 1.279 . S
O46 Cd43 2.297 . S
O46 C48 1.247 . S
O47 Cd43 2.439 . S
O47 C48 1.208 . S
C48 O46 1.247 . S
C48 O47 1.208 . S
C49 O54 1.247 . S
C49 O55 1.208 . S
C50 O42 1.315 . S
C50 O45 1.279 . S
C51 O52 1.315 . S
C51 O53 1.279 . S
O52 Cd44 2.223 . S
O52 C51 1.315 . S
O53 Cd43 2.240 . S
O53 C51 1.279 . S
O54 Cd44 2.297 . S
O54 C49 1.247 . S
O55 Cd44 2.439 . S
O55 C49 1.208 . S
O56 Cd57 2.223 . S
O56 C64 1.315 . S
Cd57 O56 2.223 . S
Cd57 O60 2.297 . S
Cd57 O61 2.439 . S
Cd57 O67 2.240 . S
Cd58 O59 2.240 . S
Cd58 O66 2.223 . S
Cd58 O68 2.297 . S
Cd58 O69 2.439 . S
O59 Cd58 2.240 . S
O59 C64 1.279 . S
O60 Cd57 2.297 . S
O60 C62 1.247 . S
O61 Cd57 2.439 . S
O61 C62 1.208 . S
C62 O60 1.247 . S
C62 O61 1.208 . S
C63 O68 1.247 . S
C63 O69 1.208 . S
C64 O56 1.315 . S
C64 O59 1.279 . S
C65 O66 1.315 . S
C65 O67 1.279 . S
O66 Cd58 2.223 . S
O66 C65 1.315 . S
O67 Cd57 2.240 . S
O67 C65 1.279 . S
O68 Cd58 2.297 . S
O68 C63 1.247 . S
O69 Cd58 2.439 . S
O69 C63 1.208 . S
O70 Cd71 2.223 . S
O70 C78 1.315 . S
Cd71 O70 2.223 . S
Cd71 O74 2.297 . S
Cd71 O75 2.439 . S
Cd71 O81 2.240 . S
Cd72 O73 2.240 . S
Cd72 O80 2.223 . S
Cd72 O82 2.297 . S
Cd72 O83 2.439 . S
O73 Cd72 2.240 . S
O73 C78 1.279 . S
O74 Cd71 2.297 . S
O74 C76 1.247 . S
O75 Cd71 2.439 . S
O75 C76 1.208 . S
C76 O74 1.247 . S
C76 O75 1.208 . S
C77 O82 1.247 . S
C77 O83 1.208 . S
C78 O70 1.315 . S
C78 O73 1.279 . S
C79 O80 1.315 . S
C79 O81 1.279 . S
O80 Cd72 2.223 . S
O80 C79 1.315 . S
O81 Cd71 2.240 . S
O81 C79 1.279 . S
O82 Cd72 2.297 . S
O82 C77 1.247 . S
O83 Cd72 2.439 . S
O83 C77 1.208 . S
O84 Cd85 2.223 . S
O84 C92 1.315 . S
Cd85 O84 2.223 . S
Cd85 O88 2.297 . S
Cd85 O89 2.439 . S
Cd85 O95 2.240 . S
Cd86 O87 2.240 . S
Cd86 O94 2.223 . S
Cd86 O96 2.297 . S
Cd86 O97 2.439 . S
O87 Cd86 2.240 . S
O87 C92 1.279 . S
O88 Cd85 2.297 . S
O88 C90 1.247 . S
O89 Cd85 2.439 . S
O89 C90 1.208 . S
C90 O88 1.247 . S
C90 O89 1.208 . S
C91 O96 1.247 . S
C91 O97 1.208 . S
C92 O84 1.315 . S
C92 O87 1.279 . S
C93 O94 1.315 . S
C93 O95 1.279 . S
O94 Cd86 2.223 . S
O94 C93 1.315 . S
O95 Cd85 2.240 . S
O95 C93 1.279 . S
O96 Cd86 2.297 . S
O96 C91 1.247 . S
O97 Cd86 2.439 . S
O97 C91 1.208 . S
O98 Cd99 2.223 . S
O98 C106 1.315 . S
Cd99 O98 2.223 . S
Cd99 O102 2.297 . S
Cd99 O103 2.439 . S
Cd99 O109 2.240 . S
Cd100 O101 2.240 . S
Cd100 O108 2.223 . S
Cd100 O110 2.297 . S
Cd100 O111 2.439 . S
O101 Cd100 2.240 . S
O101 C106 1.279 . S
O102 Cd99 2.297 . S
O102 C104 1.247 . S
O103 Cd99 2.439 . S
O103 C104 1.208 . S
C104 O102 1.247 . S
C104 O103 1.208 . S
C105 O110 1.247 . S
C105 O111 1.208 . S
C106 O98 1.315 . S
C106 O101 1.279 . S
C107 O108 1.315 . S
C107 O109 1.279 . S
O108 Cd100 2.223 . S
O108 C107 1.315 . S
O109 Cd99 2.240 . S
O109 C107 1.279 . S
O110 Cd100 2.297 . S
O110 C105 1.247 . S
O111 Cd100 2.439 . S
O111 C105 1.208 . S
O112 Cd113 2.223 . S
O112 C120 1.315 . S
Cd113 O112 2.223 . S
Cd113 O116 2.297 . S
Cd113 O117 2.439 . S
Cd113 O123 2.240 . S
Cd114 O115 2.240 . S
Cd114 O122 2.223 . S
Cd114 O124 2.297 . S
Cd114 O125 2.439 . S
O115 Cd114 2.240 . S
O115 C120 1.279 . S
O116 Cd113 2.297 . S
O116 C118 1.247 . S
O117 Cd113 2.439 . S
O117 C118 1.208 . S
C118 O116 1.247 . S
C118 O117 1.208 . S
C119 O124 1.247 . S
C119 O125 1.208 . S
C120 O112 1.315 . S
C120 O115 1.279 . S
C121 O122 1.315 . S
C121 O123 1.279 . S
O122 Cd114 2.223 . S
O122 C121 1.315 . S
O123 Cd113 2.240 . S
O123 C121 1.279 . S
O124 Cd114 2.297 . S
O124 C119 1.247 . S
O125 Cd114 2.439 . S
O125 C119 1.208 . S
O126 Cd127 2.223 . S
O126 C134 1.315 . S
Cd127 O126 2.223 . S
Cd127 O130 2.297 . S
Cd127 O131 2.439 . S
Cd127 O137 2.240 . S
Cd128 O129 2.240 . S
Cd128 O136 2.223 . S
Cd128 O138 2.297 . S
Cd128 O139 2.439 . S
O129 Cd128 2.240 . S
O129 C134 1.279 . S
O130 Cd127 2.297 . S
O130 C132 1.247 . S
O131 Cd127 2.439 . S
O131 C132 1.208 . S
C132 O130 1.247 . S
C132 O131 1.208 . S
C133 O138 1.247 . S
C133 O139 1.208 . S
C134 O126 1.315 . S
C134 O129 1.279 . S
C135 O136 1.315 . S
C135 O137 1.279 . S
O136 Cd128 2.223 . S
O136 C135 1.315 . S
O137 Cd127 2.240 . S
O137 C135 1.279 . S
O138 Cd128 2.297 . S
O138 C133 1.247 . S
O139 Cd128 2.439 . S
O139 C133 1.208 . S
O140 Cd141 2.223 . S
O140 C148 1.315 . S
Cd141 O140 2.223 . S
Cd141 O144 2.297 . S
Cd141 O145 2.439 . S
Cd141 O151 2.240 . S
Cd142 O143 2.240 . S
Cd142 O150 2.223 . S
Cd142 O152 2.297 . S
Cd142 O153 2.439 . S
O143 Cd142 2.240 . S
O143 C148 1.279 . S
O144 Cd141 2.297 . S
O144 C146 1.247 . S
O145 Cd141 2.439 . S
O145 C146 1.208 . S
C146 O144 1.247 . S
C146 O145 1.208 . S
C147 O152 1.247 . S
C147 O153 1.208 . S
C148 O140 1.315 . S
C148 O143 1.279 . S
C149 O150 1.315 . S
C149 O151 1.279 . S
O150 Cd142 2.223 . S
O150 C149 1.315 . S
O151 Cd141 2.240 . S
O151 C149 1.279 . S
O152 Cd142 2.297 . S
O152 C147 1.247 . S
O153 Cd142 2.439 . S
O153 C147 1.208 . S
O154 Cd155 2.223 . S
O154 C162 1.315 . S
Cd155 O154 2.223 . S
Cd155 O158 2.297 . S
Cd155 O159 2.439 . S
Cd155 O165 2.240 . S
Cd156 O157 2.240 . S
Cd156 O164 2.223 . S
Cd156 O166 2.297 . S
Cd156 O167 2.439 . S
O157 Cd156 2.240 . S
O157 C162 1.279 . S
O158 Cd155 2.297 . S
O158 C160 1.247 . S
O159 Cd155 2.439 . S
O159 C160 1.208 . S
C160 O158 1.247 . S
C160 O159 1.208 . S
C161 O166 1.247 . S
C161 O167 1.208 . S
C162 O154 1.315 . S
C162 O157 1.279 . S
C163 O164 1.315 . S
C163 O165 1.279 . S
O164 Cd156 2.223 . S
O164 C163 1.315 . S
O165 Cd155 2.240 . S
O165 C163 1.279 . S
O166 Cd156 2.297 . S
O166 C161 1.247 . S
O167 Cd156 2.439 . S
O167 C161 1.208 . S
O168 Cd169 2.223 . S
O168 C176 1.315 . S
Cd169 O168 2.223 . S
Cd169 O172 2.297 . S
Cd169 O173 2.439 . S
Cd169 O179 2.240 . S
Cd170 O171 2.240 . S
Cd170 O178 2.223 . S
Cd170 O180 2.297 . S
Cd170 O181 2.439 . S
O171 Cd170 2.240 . S
O171 C176 1.279 . S
O172 Cd169 2.297 . S
O172 C174 1.247 . S
O173 Cd169 2.439 . S
O173 C174 1.208 . S
C174 O172 1.247 . S
C174 O173 1.208 . S
C175 O180 1.247 . S
C175 O181 1.208 . S
C176 O168 1.315 . S
C176 O171 1.279 . S
C177 O178 1.315 . S
C177 O179 1.279 . S
O178 Cd170 2.223 . S
O178 C177 1.315 . S
O179 Cd169 2.240 . S
O179 C177 1.279 . S
O180 Cd170 2.297 . S
O180 C175 1.247 . S
O181 Cd170 2.439 . S
O181 C175 1.208 . S
O182 Cd183 2.223 . S
O182 C190 1.315 . S
Cd183 O182 2.223 . S
Cd183 O186 2.297 . S
Cd183 O187 2.439 . S
Cd183 O193 2.240 . S
Cd184 O185 2.240 . S
Cd184 O192 2.223 . S
Cd184 O194 2.297 . S
Cd184 O195 2.439 . S
O185 Cd184 2.240 . S
O185 C190 1.279 . S
O186 Cd183 2.297 . S
O186 C188 1.247 . S
O187 Cd183 2.439 . S
O187 C188 1.208 . S
C188 O186 1.247 . S
C188 O187 1.208 . S
C189 O194 1.247 . S
C189 O195 1.208 . S
C190 O182 1.315 . S
C190 O185 1.279 . S
C191 O192 1.315 . S
C191 O193 1.279 . S
O192 Cd184 2.223 . S
O192 C191 1.315 . S
O193 Cd183 2.240 . S
O193 C191 1.279 . S
O194 Cd184 2.297 . S
O194 C189 1.247 . S
O195 Cd184 2.439 . S
O195 C189 1.208 . S
O196 Cd197 2.223 . S
O196 C204 1.315 . S
Cd197 O196 2.223 . S
Cd197 O200 2.297 . S
Cd197 O201 2.439 . S
Cd197 O207 2.240 . S
Cd198 O199 2.240 . S
Cd198 O206 2.223 . S
Cd198 O208 2.297 . S
Cd198 O209 2.439 . S
O199 Cd198 2.240 . S
O199 C204 1.279 . S
O200 Cd197 2.297 . S
O200 C202 1.247 . S
O201 Cd197 2.439 . S
O201 C202 1.208 . S
C202 O200 1.247 . S
C202 O201 1.208 . S
C203 O208 1.247 . S
C203 O209 1.208 . S
C204 O196 1.315 . S
C204 O199 1.279 . S
C205 O206 1.315 . S
C205 O207 1.279 . S
O206 Cd198 2.223 . S
O206 C205 1.315 . S
O207 Cd197 2.240 . S
O207 C205 1.279 . S
O208 Cd198 2.297 . S
O208 C203 1.247 . S
O209 Cd198 2.439 . S
O209 C203 1.208 . S
O210 Cd211 2.223 . S
O210 C218 1.315 . S
Cd211 O210 2.223 . S
Cd211 O214 2.297 . S
Cd211 O215 2.439 . S
Cd211 O221 2.240 . S
Cd212 O213 2.240 . S
Cd212 O220 2.223 . S
Cd212 O222 2.297 . S
Cd212 O223 2.439 . S
O213 Cd212 2.240 . S
O213 C218 1.279 . S
O214 Cd211 2.297 . S
O214 C216 1.247 . S
O215 Cd211 2.439 . S
O215 C216 1.208 . S
C216 O214 1.247 . S
C216 O215 1.208 . S
C217 O222 1.247 . S
C217 O223 1.208 . S
C218 O210 1.315 . S
C218 O213 1.279 . S
C219 O220 1.315 . S
C219 O221 1.279 . S
O220 Cd212 2.223 . S
O220 C219 1.315 . S
O221 Cd211 2.240 . S
O221 C219 1.279 . S
O222 Cd212 2.297 . S
O222 C217 1.247 . S
O223 Cd212 2.439 . S
O223 C217 1.208 . S
O224 Cd225 2.223 . S
O224 C232 1.315 . S
Cd225 O224 2.223 . S
Cd225 O228 2.297 . S
Cd225 O229 2.439 . S
Cd225 O235 2.240 . S
Cd226 O227 2.240 . S
Cd226 O234 2.223 . S
Cd226 O236 2.297 . S
Cd226 O237 2.439 . S
O227 Cd226 2.240 . S
O227 C232 1.279 . S
O228 Cd225 2.297 . S
O228 C230 1.247 . S
O229 Cd225 2.439 . S
O229 C230 1.208 . S
C230 O228 1.247 . S
C230 O229 1.208 . S
C231 O236 1.247 . S
C231 O237 1.208 . S
C232 O224 1.315 . S
C232 O227 1.279 . S
C233 O234 1.315 . S
C233 O235 1.279 . S
O234 Cd226 2.223 . S
O234 C233 1.315 . S
O235 Cd225 2.240 . S
O235 C233 1.279 . S
O236 Cd226 2.297 . S
O236 C231 1.247 . S
O237 Cd226 2.439 . S
O237 C231 1.208 . S
O238 Cd239 2.223 . S
O238 C246 1.315 . S
Cd239 O238 2.223 . S
Cd239 O242 2.297 . S
Cd239 O243 2.439 . S
Cd239 O249 2.240 . S
Cd240 O241 2.240 . S
Cd240 O248 2.223 . S
Cd240 O250 2.297 . S
Cd240 O251 2.439 . S
O241 Cd240 2.240 . S
O241 C246 1.279 . S
O242 Cd239 2.297 . S
O242 C244 1.247 . S
O243 Cd239 2.439 . S
O243 C244 1.208 . S
C244 O242 1.247 . S
C244 O243 1.208 . S
C245 O250 1.247 . S
C245 O251 1.208 . S
C246 O238 1.315 . S
C246 O241 1.279 . S
C247 O248 1.315 . S
C247 O249 1.279 . S
O248 Cd240 2.223 . S
O248 C247 1.315 . S
O249 Cd239 2.240 . S
O249 C247 1.279 . S
O250 Cd240 2.297 . S
O250 C245 1.247 . S
O251 Cd240 2.439 . S
O251 C245 1.208 . S
O252 Cd253 2.223 . S
O252 C260 1.315 . S
Cd253 O252 2.223 . S
Cd253 O256 2.297 . S
Cd253 O257 2.439 . S
Cd253 O263 2.240 . S
Cd254 O255 2.240 . S
Cd254 O262 2.223 . S
Cd254 O264 2.297 . S
Cd254 O265 2.439 . S
O255 Cd254 2.240 . S
O255 C260 1.279 . S
O256 Cd253 2.297 . S
O256 C258 1.247 . S
O257 Cd253 2.439 . S
O257 C258 1.208 . S
C258 O256 1.247 . S
C258 O257 1.208 . S
C259 O264 1.247 . S
C259 O265 1.208 . S
C260 O252 1.315 . S
C260 O255 1.279 . S
C261 O262 1.315 . S
C261 O263 1.279 . S
O262 Cd254 2.223 . S
O262 C261 1.315 . S
O263 Cd253 2.240 . S
O263 C261 1.279 . S
O264 Cd254 2.297 . S
O264 C259 1.247 . S
O265 Cd254 2.439 . S
O265 C259 1.208 . S
O266 Cd267 2.223 . S
O266 C274 1.315 . S
Cd267 O266 2.223 . S
Cd267 O270 2.297 . S
Cd267 O271 2.439 . S
Cd267 O277 2.240 . S
Cd268 O269 2.240 . S
Cd268 O276 2.223 . S
Cd268 O278 2.297 . S
Cd268 O279 2.439 . S
O269 Cd268 2.240 . S
O269 C274 1.279 . S
O270 Cd267 2.297 . S
O270 C272 1.247 . S
O271 Cd267 2.439 . S
O271 C272 1.208 . S
C272 O270 1.247 . S
C272 O271 1.208 . S
C273 O278 1.247 . S
C273 O279 1.208 . S
C274 O266 1.315 . S
C274 O269 1.279 . S
C275 O276 1.315 . S
C275 O277 1.279 . S
O276 Cd268 2.223 . S
O276 C275 1.315 . S
O277 Cd267 2.240 . S
O277 C275 1.279 . S
O278 Cd268 2.297 . S
O278 C273 1.247 . S
O279 Cd268 2.439 . S
O279 C273 1.208 . S
O280 Cd281 2.223 . S
O280 C288 1.315 . S
Cd281 O280 2.223 . S
Cd281 O284 2.297 . S
Cd281 O285 2.439 . S
Cd281 O291 2.240 . S
Cd282 O283 2.240 . S
Cd282 O290 2.223 . S
Cd282 O292 2.297 . S
Cd282 O293 2.439 . S
O283 Cd282 2.240 . S
O283 C288 1.279 . S
O284 Cd281 2.297 . S
O284 C286 1.247 . S
O285 Cd281 2.439 . S
O285 C286 1.208 . S
C286 O284 1.247 . S
C286 O285 1.208 . S
C287 O292 1.247 . S
C287 O293 1.208 . S
C288 O280 1.315 . S
C288 O283 1.279 . S
C289 O290 1.315 . S
C289 O291 1.279 . S
O290 Cd282 2.223 . S
O290 C289 1.315 . S
O291 Cd281 2.240 . S
O291 C289 1.279 . S
O292 Cd282 2.297 . S
O292 C287 1.247 . S
O293 Cd282 2.439 . S
O293 C287 1.208 . S
O294 Cd295 2.223 . S
O294 C302 1.315 . S
Cd295 O294 2.223 . S
Cd295 O298 2.297 . S
Cd295 O299 2.439 . S
Cd295 O305 2.240 . S
Cd296 O297 2.240 . S
Cd296 O304 2.223 . S
Cd296 O306 2.297 . S
Cd296 O307 2.439 . S
O297 Cd296 2.240 . S
O297 C302 1.279 . S
O298 Cd295 2.297 . S
O298 C300 1.247 . S
O299 Cd295 2.439 . S
O299 C300 1.208 . S
C300 O298 1.247 . S
C300 O299 1.208 . S
C301 O306 1.247 . S
C301 O307 1.208 . S
C302 O294 1.315 . S
C302 O297 1.279 . S
C303 O304 1.315 . S
C303 O305 1.279 . S
O304 Cd296 2.223 . S
O304 C303 1.315 . S
O305 Cd295 2.240 . S
O305 C303 1.279 . S
O306 Cd296 2.297 . S
O306 C301 1.247 . S
O307 Cd296 2.439 . S
O307 C301 1.208 . S
O308 Cd309 2.223 . S
O308 C316 1.315 . S
Cd309 O308 2.223 . S
Cd309 O312 2.297 . S
Cd309 O313 2.439 . S
Cd309 O319 2.240 . S
Cd310 O311 2.240 . S
Cd310 O318 2.223 . S
Cd310 O320 2.297 . S
Cd310 O321 2.439 . S
O311 Cd310 2.240 . S
O311 C316 1.279 . S
O312 Cd309 2.297 . S
O312 C314 1.247 . S
O313 Cd309 2.439 . S
O313 C314 1.208 . S
C314 O312 1.247 . S
C314 O313 1.208 . S
C315 O320 1.247 . S
C315 O321 1.208 . S
C316 O308 1.315 . S
C316 O311 1.279 . S
C317 O318 1.315 . S
C317 O319 1.279 . S
O318 Cd310 2.223 . S
O318 C317 1.315 . S
O319 Cd309 2.240 . S
O319 C317 1.279 . S
O320 Cd310 2.297 . S
O320 C315 1.247 . S
O321 Cd310 2.439 . S
O321 C315 1.208 . S
O322 Cd323 2.223 . S
O322 C330 1.315 . S
Cd323 O322 2.223 . S
Cd323 O326 2.297 . S
Cd323 O327 2.439 . S
Cd323 O333 2.240 . S
Cd324 O325 2.240 . S
Cd324 O332 2.223 . S
Cd324 O334 2.297 . S
Cd324 O335 2.439 . S
O325 Cd324 2.240 . S
O325 C330 1.279 . S
O326 Cd323 2.297 . S
O326 C328 1.247 . S
O327 Cd323 2.439 . S
O327 C328 1.208 . S
C328 O326 1.247 . S
C328 O327 1.208 . S
C329 O334 1.247 . S
C329 O335 1.208 . S
C330 O322 1.315 . S
C330 O325 1.279 . S
C331 O332 1.315 . S
C331 O333 1.279 . S
O332 Cd324 2.223 . S
O332 C331 1.315 . S
O333 Cd323 2.240 . S
O333 C331 1.279 . S
O334 Cd324 2.297 . S
O334 C329 1.247 . S
O335 Cd324 2.439 . S
O335 C329 1.208 . S
H336 C342 0.930 . S
H337 C346 0.930 . S
H338 C351 0.929 . S
H339 C349 0.929 . S
H340 C344 0.929 . S
H341 C350 0.929 . S
C342 H336 0.930 . S
C342 C343 1.367 . S
C342 C350 1.378 . S
C343 C342 1.367 . S
C343 C351 1.433 . S
C344 H340 0.929 . S
C344 C346 1.378 . S
C344 C348 1.350 . S
C345 C348 1.463 1_545 S
C345 C350 1.350 . S
C345 N353 1.427 . S
C346 H337 0.930 . S
C346 C344 1.378 . S
C346 C347 1.367 . S
C347 C346 1.367 . S
C347 C349 1.433 . S
C348 C344 1.350 . S
C348 C345 1.463 1_565 S
C348 N352 1.427 . S
C349 H339 0.929 . S
C349 C347 1.433 . S
C349 N352 1.384 . S
C350 H341 0.929 . S
C350 C342 1.378 . S
C350 C345 1.350 . S
C351 H338 0.929 . S
C351 C343 1.433 . S
C351 N353 1.384 . S
N352 C348 1.427 . S
N352 C349 1.384 . S
N353 C345 1.427 . S
N353 C351 1.384 . S
H354 C360 0.930 . S
H355 C364 0.930 . S
H356 C369 0.929 . S
H357 C367 0.929 . S
H358 C362 0.929 . S
H359 C368 0.929 . S
C360 H354 0.930 . S
C360 C361 1.367 . S
C360 C368 1.378 . S
C361 C360 1.367 . S
C361 C369 1.433 . S
C362 H358 0.929 . S
C362 C364 1.378 . S
C362 C366 1.350 . S
C363 C366 1.463 . S
C363 C368 1.350 . S
C363 N371 1.427 . S
C364 H355 0.930 . S
C364 C362 1.378 . S
C364 C365 1.367 . S
C365 C364 1.367 . S
C365 C367 1.433 . S
C366 C362 1.350 . S
C366 C363 1.463 . S
C366 N370 1.427 . S
C367 H357 0.929 . S
C367 C365 1.433 . S
C367 N370 1.384 . S
C368 H359 0.929 . S
C368 C360 1.378 . S
C368 C363 1.350 . S
C369 H356 0.929 . S
C369 C361 1.433 . S
C369 N371 1.384 . S
N370 C366 1.427 . S
N370 C367 1.384 . S
N371 C363 1.427 . S
N371 C369 1.384 . S
H372 C378 0.930 . S
H373 C382 0.930 . S
H374 C387 0.929 . S
H375 C385 0.929 . S
H376 C380 0.929 . S
H377 C386 0.929 . S
C378 H372 0.930 . S
C378 C379 1.367 . S
C378 C386 1.378 . S
C379 C378 1.367 . S
C379 C387 1.433 . S
C380 H376 0.929 . S
C380 C382 1.378 . S
C380 C384 1.350 . S
C381 C384 1.463 1_655 S
C381 C386 1.350 . S
C381 N389 1.427 . S
C382 H373 0.930 . S
C382 C380 1.378 . S
C382 C383 1.367 . S
C383 C382 1.367 . S
C383 C385 1.433 . S
C384 C380 1.350 . S
C384 C381 1.463 1_455 S
C384 N388 1.427 . S
C385 H375 0.929 . S
C385 C383 1.433 . S
C385 N388 1.384 . S
C386 H377 0.929 . S
C386 C378 1.378 . S
C386 C381 1.350 . S
C387 H374 0.929 . S
C387 C379 1.433 . S
C387 N389 1.384 . S
N388 C384 1.427 . S
N388 C385 1.384 . S
N389 C381 1.427 . S
N389 C387 1.384 . S
H390 C396 0.930 . S
H391 C400 0.930 . S
H392 C405 0.929 . S
H393 C403 0.929 . S
H394 C398 0.929 . S
H395 C404 0.929 . S
C396 H390 0.930 . S
C396 C397 1.367 . S
C396 C404 1.378 . S
C397 C396 1.367 . S
C397 C405 1.433 . S
C398 H394 0.929 . S
C398 C400 1.378 . S
C398 C402 1.350 . S
C399 C402 1.463 1_565 S
C399 C404 1.350 . S
C399 N407 1.427 . S
C400 H391 0.930 . S
C400 C398 1.378 . S
C400 C401 1.367 . S
C401 C400 1.367 . S
C401 C403 1.433 . S
C402 C398 1.350 . S
C402 C399 1.463 1_545 S
C402 N406 1.427 . S
C403 H393 0.929 . S
C403 C401 1.433 . S
C403 N406 1.384 . S
C404 H395 0.929 . S
C404 C396 1.378 . S
C404 C399 1.350 . S
C405 H392 0.929 . S
C405 C397 1.433 . S
C405 N407 1.384 . S
N406 C402 1.427 . S
N406 C403 1.384 . S
N407 C399 1.427 . S
N407 C405 1.384 . S
H408 C414 0.930 . S
H409 C418 0.930 . S
H410 C423 0.929 . S
H411 C421 0.929 . S
H412 C416 0.929 . S
H413 C422 0.929 . S
C414 H408 0.930 . S
C414 C415 1.367 . S
C414 C422 1.378 . S
C415 C414 1.367 . S
C415 C423 1.433 . S
C416 H412 0.929 . S
C416 C418 1.378 . S
C416 C420 1.350 . S
C417 C420 1.463 . S
C417 C422 1.350 . S
C417 N425 1.427 . S
C418 H409 0.930 . S
C418 C416 1.378 . S
C418 C419 1.367 . S
C419 C418 1.367 . S
C419 C421 1.433 . S
C420 C416 1.350 . S
C420 C417 1.463 . S
C420 N424 1.427 . S
C421 H411 0.929 . S
C421 C419 1.433 . S
C421 N424 1.384 . S
C422 H413 0.929 . S
C422 C414 1.378 . S
C422 C417 1.350 . S
C423 H410 0.929 . S
C423 C415 1.433 . S
C423 N425 1.384 . S
N424 C420 1.427 . S
N424 C421 1.384 . S
N425 C417 1.427 . S
N425 C423 1.384 . S
H426 C432 0.930 . S
H427 C436 0.930 . S
H428 C441 0.929 . S
H429 C439 0.929 . S
H430 C434 0.929 . S
H431 C440 0.929 . S
C432 H426 0.930 . S
C432 C433 1.367 . S
C432 C440 1.378 . S
C433 C432 1.367 . S
C433 C441 1.433 . S
C434 H430 0.929 . S
C434 C436 1.378 . S
C434 C438 1.350 . S
C435 C438 1.463 1_455 S
C435 C440 1.350 . S
C435 N443 1.427 . S
C436 H427 0.930 . S
C436 C434 1.378 . S
C436 C437 1.367 . S
C437 C436 1.367 . S
C437 C439 1.433 . S
C438 C434 1.350 . S
C438 C435 1.463 1_655 S
C438 N442 1.427 . S
C439 H429 0.929 . S
C439 C437 1.433 . S
C439 N442 1.384 . S
C440 H431 0.929 . S
C440 C432 1.378 . S
C440 C435 1.350 . S
C441 H428 0.929 . S
C441 C433 1.433 . S
C441 N443 1.384 . S
N442 C438 1.427 . S
N442 C439 1.384 . S
N443 C435 1.427 . S
N443 C441 1.384 . S
H444 C450 0.930 . S
H445 C454 0.930 . S
H446 C459 0.929 . S
H447 C457 0.929 . S
H448 C452 0.929 . S
H449 C458 0.929 . S
C450 H444 0.930 . S
C450 C451 1.367 . S
C450 C458 1.378 . S
C451 C450 1.367 . S
C451 C459 1.433 . S
C452 H448 0.929 . S
C452 C454 1.378 . S
C452 C456 1.350 . S
C453 C456 1.463 1_565 S
C453 C458 1.350 . S
C453 N461 1.427 . S
C454 H445 0.930 . S
C454 C452 1.378 . S
C454 C455 1.367 . S
C455 C454 1.367 . S
C455 C457 1.433 . S
C456 C452 1.350 . S
C456 C453 1.463 1_545 S
C456 N460 1.427 . S
C457 H447 0.929 . S
C457 C455 1.433 . S
C457 N460 1.384 . S
C458 H449 0.929 . S
C458 C450 1.378 . S
C458 C453 1.350 . S
C459 H446 0.929 . S
C459 C451 1.433 . S
C459 N461 1.384 . S
N460 C456 1.427 . S
N460 C457 1.384 . S
N461 C453 1.427 . S
N461 C459 1.384 . S
H462 C468 0.930 . S
H463 C472 0.930 . S
H464 C477 0.929 . S
H465 C475 0.929 . S
H466 C470 0.929 . S
H467 C476 0.929 . S
C468 H462 0.930 . S
C468 C469 1.367 . S
C468 C476 1.378 . S
C469 C468 1.367 . S
C469 C477 1.433 . S
C470 H466 0.929 . S
C470 C472 1.378 . S
C470 C474 1.350 . S
C471 C474 1.463 . S
C471 C476 1.350 . S
C471 N479 1.427 . S
C472 H463 0.930 . S
C472 C470 1.378 . S
C472 C473 1.367 . S
C473 C472 1.367 . S
C473 C475 1.433 . S
C474 C470 1.350 . S
C474 C471 1.463 . S
C474 N478 1.427 . S
C475 H465 0.929 . S
C475 C473 1.433 . S
C475 N478 1.384 . S
C476 H467 0.929 . S
C476 C468 1.378 . S
C476 C471 1.350 . S
C477 H464 0.929 . S
C477 C469 1.433 . S
C477 N479 1.384 . S
N478 C474 1.427 . S
N478 C475 1.384 . S
N479 C471 1.427 . S
N479 C477 1.384 . S
H480 C486 0.930 . S
H481 C490 0.930 . S
H482 C495 0.929 . S
H483 C493 0.929 . S
H484 C488 0.929 1_655 S
H485 C494 0.929 1_455 S
C486 H480 0.930 . S
C486 C487 1.367 . S
C486 C494 1.378 . S
C487 C486 1.367 . S
C487 C495 1.433 . S
C488 H484 0.929 1_455 S
C488 C490 1.378 . S
C488 C492 1.350 . S
C489 C492 1.463 1_655 S
C489 C494 1.350 . S
C489 N497 1.427 . S
C490 H481 0.930 . S
C490 C488 1.378 . S
C490 C491 1.367 . S
C491 C490 1.367 . S
C491 C493 1.433 . S
C492 C488 1.350 . S
C492 C489 1.463 1_455 S
C492 N496 1.427 . S
C493 H483 0.929 . S
C493 C491 1.433 . S
C493 N496 1.384 . S
C494 H485 0.929 1_655 S
C494 C486 1.378 . S
C494 C489 1.350 . S
C495 H482 0.929 . S
C495 C487 1.433 . S
C495 N497 1.384 . S
N496 C492 1.427 . S
N496 C493 1.384 . S
N497 C489 1.427 . S
N497 C495 1.384 . S
H498 C504 0.930 . S
H499 C508 0.930 . S
H500 C513 0.929 . S
H501 C511 0.929 . S
H502 C506 0.929 . S
H503 C512 0.929 . S
C504 H498 0.930 . S
C504 C505 1.367 . S
C504 C512 1.378 . S
C505 C504 1.367 . S
C505 C513 1.433 . S
C506 H502 0.929 . S
C506 C508 1.378 . S
C506 C510 1.350 . S
C507 C510 1.463 1_545 S
C507 C512 1.350 . S
C507 N515 1.427 . S
C508 H499 0.930 . S
C508 C506 1.378 . S
C508 C509 1.367 . S
C509 C508 1.367 . S
C509 C511 1.433 . S
C510 C506 1.350 . S
C510 C507 1.463 1_565 S
C510 N514 1.427 . S
C511 H501 0.929 . S
C511 C509 1.433 . S
C511 N514 1.384 . S
C512 H503 0.929 . S
C512 C504 1.378 . S
C512 C507 1.350 . S
C513 H500 0.929 . S
C513 C505 1.433 . S
C513 N515 1.384 . S
N514 C510 1.427 . S
N514 C511 1.384 . S
N515 C507 1.427 . S
N515 C513 1.384 . S
H516 C522 0.930 . S
H517 C526 0.930 . S
H518 C531 0.929 . S
H519 C529 0.929 . S
H520 C524 0.929 . S
H521 C530 0.929 . S
C522 H516 0.930 . S
C522 C523 1.367 . S
C522 C530 1.378 . S
C523 C522 1.367 . S
C523 C531 1.433 . S
C524 H520 0.929 . S
C524 C526 1.378 . S
C524 C528 1.350 . S
C525 C528 1.463 . S
C525 C530 1.350 . S
C525 N533 1.427 . S
C526 H517 0.930 . S
C526 C524 1.378 . S
C526 C527 1.367 . S
C527 C526 1.367 . S
C527 C529 1.433 . S
C528 C524 1.350 . S
C528 C525 1.463 . S
C528 N532 1.427 . S
C529 H519 0.929 . S
C529 C527 1.433 . S
C529 N532 1.384 . S
C530 H521 0.929 . S
C530 C522 1.378 . S
C530 C525 1.350 . S
C531 H518 0.929 . S
C531 C523 1.433 . S
C531 N533 1.384 . S
N532 C528 1.427 . S
N532 C529 1.384 . S
N533 C525 1.427 . S
N533 C531 1.384 . S
H534 C540 0.930 . S
H535 C544 0.930 . S
H536 C549 0.929 . S
H537 C547 0.929 . S
H538 C542 0.929 . S
H539 C548 0.929 . S
C540 H534 0.930 . S
C540 C541 1.367 . S
C540 C548 1.378 . S
C541 C540 1.367 . S
C541 C549 1.433 . S
C542 H538 0.929 . S
C542 C544 1.378 . S
C542 C546 1.350 . S
C543 C546 1.463 1_455 S
C543 C548 1.350 . S
C543 N551 1.427 . S
C544 H535 0.930 . S
C544 C542 1.378 . S
C544 C545 1.367 . S
C545 C544 1.367 . S
C545 C547 1.433 . S
C546 C542 1.350 . S
C546 C543 1.463 1_655 S
C546 N550 1.427 . S
C547 H537 0.929 . S
C547 C545 1.433 . S
C547 N550 1.384 . S
C548 H539 0.929 . S
C548 C540 1.378 . S
C548 C543 1.350 . S
C549 H536 0.929 . S
C549 C541 1.433 . S
C549 N551 1.384 . S
N550 C546 1.427 . S
N550 C547 1.384 . S
N551 C543 1.427 . S
N551 C549 1.384 . S
H552 C558 0.930 . S
H553 C562 0.930 . S
H554 C567 0.929 . S
H555 C565 0.929 . S
H556 C560 0.929 . S
H557 C566 0.929 . S
C558 H552 0.930 . S
C558 C559 1.367 . S
C558 C566 1.378 . S
C559 C558 1.367 . S
C559 C567 1.433 . S
C560 H556 0.929 . S
C560 C562 1.378 . S
C560 C564 1.350 . S
C561 C564 1.463 . S
C561 C566 1.350 . S
C561 N569 1.427 . S
C562 H553 0.930 . S
C562 C560 1.378 . S
C562 C563 1.367 . S
C563 C562 1.367 . S
C563 C565 1.433 . S
C564 C560 1.350 . S
C564 C561 1.463 . S
C564 N568 1.427 . S
C565 H555 0.929 . S
C565 C563 1.433 . S
C565 N568 1.384 . S
C566 H557 0.929 . S
C566 C558 1.378 . S
C566 C561 1.350 . S
C567 H554 0.929 . S
C567 C559 1.433 . S
C567 N569 1.384 . S
N568 C564 1.427 . S
N568 C565 1.384 . S
N569 C561 1.427 . S
N569 C567 1.384 . S
H570 C576 0.930 . S
H571 C580 0.930 . S
H572 C585 0.929 . S
H573 C583 0.929 . S
H574 C578 0.929 . S
H575 C584 0.929 . S
C576 H570 0.930 . S
C576 C577 1.367 . S
C576 C584 1.378 . S
C577 C576 1.367 . S
C577 C585 1.433 . S
C578 H574 0.929 . S
C578 C580 1.378 . S
C578 C582 1.350 . S
C579 C582 1.463 . S
C579 C584 1.350 . S
C579 N587 1.427 . S
C580 H571 0.930 . S
C580 C578 1.378 . S
C580 C581 1.367 . S
C581 C580 1.367 . S
C581 C583 1.433 . S
C582 C578 1.350 . S
C582 C579 1.463 . S
C582 N586 1.427 . S
C583 H573 0.929 . S
C583 C581 1.433 . S
C583 N586 1.384 . S
C584 H575 0.929 . S
C584 C576 1.378 . S
C584 C579 1.350 . S
C585 H572 0.929 . S
C585 C577 1.433 . S
C585 N587 1.384 . S
N586 C582 1.427 . S
N586 C583 1.384 . S
N587 C579 1.427 . S
N587 C585 1.384 . S
H588 C594 0.930 . S
H589 C598 0.930 . S
H590 C603 0.929 . S
H591 C601 0.929 . S
H592 C596 0.929 . S
H593 C602 0.929 . S
C594 H588 0.930 . S
C594 C595 1.367 . S
C594 C602 1.378 . S
C595 C594 1.367 . S
C595 C603 1.433 . S
C596 H592 0.929 . S
C596 C598 1.378 . S
C596 C600 1.350 . S
C597 C600 1.463 . S
C597 C602 1.350 . S
C597 N605 1.427 . S
C598 H589 0.930 . S
C598 C596 1.378 . S
C598 C599 1.367 . S
C599 C598 1.367 . S
C599 C601 1.433 . S
C600 C596 1.350 . S
C600 C597 1.463 . S
C600 N604 1.427 . S
C601 H591 0.929 . S
C601 C599 1.433 . S
C601 N604 1.384 . S
C602 H593 0.929 . S
C602 C594 1.378 . S
C602 C597 1.350 . S
C603 H590 0.929 . S
C603 C595 1.433 . S
C603 N605 1.384 . S
N604 C600 1.427 . S
N604 C601 1.384 . S
N605 C597 1.427 . S
N605 C603 1.384 . S
H606 C612 0.930 . S
H607 C616 0.930 . S
H608 C621 0.929 . S
H609 C619 0.929 . S
H610 C614 0.929 . S
H611 C620 0.929 . S
C612 H606 0.930 . S
C612 C613 1.367 . S
C612 C620 1.378 . S
C613 C612 1.367 . S
C613 C621 1.433 . S
C614 H610 0.929 . S
C614 C616 1.378 . S
C614 C618 1.350 . S
C615 C618 1.463 . S
C615 C620 1.350 . S
C615 N623 1.427 . S
C616 H607 0.930 . S
C616 C614 1.378 . S
C616 C617 1.367 . S
C617 C616 1.367 . S
C617 C619 1.433 . S
C618 C614 1.350 . S
C618 C615 1.463 . S
C618 N622 1.427 . S
C619 H609 0.929 . S
C619 C617 1.433 . S
C619 N622 1.384 . S
C620 H611 0.929 . S
C620 C612 1.378 . S
C620 C615 1.350 . S
C621 H608 0.929 . S
C621 C613 1.433 . S
C621 N623 1.384 . S
N622 C618 1.427 . S
N622 C619 1.384 . S
N623 C615 1.427 . S
N623 C621 1.384 . S
H624 C630 0.930 . S
H625 C634 0.930 . S
H626 C639 0.929 . S
H627 C637 0.929 . S
H628 C632 0.929 . S
H629 C638 0.929 . S
C630 H624 0.930 . S
C630 C631 1.367 . S
C630 C638 1.378 . S
C631 C630 1.367 . S
C631 C639 1.433 . S
C632 H628 0.929 . S
C632 C634 1.378 . S
C632 C636 1.350 . S
C633 C636 1.463 . S
C633 C638 1.350 . S
C633 N641 1.427 . S
C634 H625 0.930 . S
C634 C632 1.378 . S
C634 C635 1.367 . S
C635 C634 1.367 . S
C635 C637 1.433 . S
C636 C632 1.350 . S
C636 C633 1.463 . S
C636 N640 1.427 . S
C637 H627 0.929 . S
C637 C635 1.433 . S
C637 N640 1.384 . S
C638 H629 0.929 . S
C638 C630 1.378 . S
C638 C633 1.350 . S
C639 H626 0.929 . S
C639 C631 1.433 . S
C639 N641 1.384 . S
N640 C636 1.427 . S
N640 C637 1.384 . S
N641 C633 1.427 . S
N641 C639 1.384 . S
H642 C648 0.930 . S
H643 C652 0.930 . S
H644 C657 0.929 . S
H645 C655 0.929 . S
H646 C650 0.929 . S
H647 C656 0.929 . S
C648 H642 0.930 . S
C648 C649 1.367 . S
C648 C656 1.378 . S
C649 C648 1.367 . S
C649 C657 1.433 . S
C650 H646 0.929 . S
C650 C652 1.378 . S
C650 C654 1.350 . S
C651 C654 1.463 . S
C651 C656 1.350 . S
C651 N659 1.427 . S
C652 H643 0.930 . S
C652 C650 1.378 . S
C652 C653 1.367 . S
C653 C652 1.367 . S
C653 C655 1.433 . S
C654 C650 1.350 . S
C654 C651 1.463 . S
C654 N658 1.427 . S
C655 H645 0.929 . S
C655 C653 1.433 . S
C655 N658 1.384 . S
C656 H647 0.929 . S
C656 C648 1.378 . S
C656 C651 1.350 . S
C657 H644 0.929 . S
C657 C649 1.433 . S
C657 N659 1.384 . S
N658 C654 1.427 . S
N658 C655 1.384 . S
N659 C651 1.427 . S
N659 C657 1.384 . S
H660 C666 0.930 . S
H661 C670 0.930 . S
H662 C675 0.929 . S
H663 C673 0.929 . S
H664 C668 0.929 . S
H665 C674 0.929 . S
C666 H660 0.930 . S
C666 C667 1.367 . S
C666 C674 1.378 . S
C667 C666 1.367 . S
C667 C675 1.433 . S
C668 H664 0.929 . S
C668 C670 1.378 . S
C668 C672 1.350 . S
C669 C672 1.463 . S
C669 C674 1.350 . S
C669 N677 1.427 . S
C670 H661 0.930 . S
C670 C668 1.378 . S
C670 C671 1.367 . S
C671 C670 1.367 . S
C671 C673 1.433 . S
C672 C668 1.350 . S
C672 C669 1.463 . S
C672 N676 1.427 . S
C673 H663 0.929 . S
C673 C671 1.433 . S
C673 N676 1.384 . S
C674 H665 0.929 . S
C674 C666 1.378 . S
C674 C669 1.350 . S
C675 H662 0.929 . S
C675 C667 1.433 . S
C675 N677 1.384 . S
N676 C672 1.427 . S
N676 C673 1.384 . S
N677 C669 1.427 . S
N677 C675 1.384 . S
H678 C684 0.930 . S
H679 C688 0.930 . S
H680 C693 0.929 . S
H681 C691 0.929 . S
H682 C686 0.929 . S
H683 C692 0.929 . S
C684 H678 0.930 . S
C684 C685 1.367 . S
C684 C692 1.378 . S
C685 C684 1.367 . S
C685 C693 1.433 . S
C686 H682 0.929 . S
C686 C688 1.378 . S
C686 C690 1.350 . S
C687 C690 1.463 . S
C687 C692 1.350 . S
C687 N695 1.427 . S
C688 H679 0.930 . S
C688 C686 1.378 . S
C688 C689 1.367 . S
C689 C688 1.367 . S
C689 C691 1.433 . S
C690 C686 1.350 . S
C690 C687 1.463 . S
C690 N694 1.427 . S
C691 H681 0.929 . S
C691 C689 1.433 . S
C691 N694 1.384 . S
C692 H683 0.929 . S
C692 C684 1.378 . S
C692 C687 1.350 . S
C693 H680 0.929 . S
C693 C685 1.433 . S
C693 N695 1.384 . S
N694 C690 1.427 . S
N694 C691 1.384 . S
N695 C687 1.427 . S
N695 C693 1.384 . S
H696 C702 0.930 . S
H697 C706 0.930 . S
H698 C711 0.929 . S
H699 C709 0.929 . S
H700 C704 0.929 . S
H701 C710 0.929 . S
C702 H696 0.930 . S
C702 C703 1.367 . S
C702 C710 1.378 . S
C703 C702 1.367 . S
C703 C711 1.433 . S
C704 H700 0.929 . S
C704 C706 1.378 . S
C704 C708 1.350 . S
C705 C708 1.463 . S
C705 C710 1.350 . S
C705 N713 1.427 . S
C706 H697 0.930 . S
C706 C704 1.378 . S
C706 C707 1.367 . S
C707 C706 1.367 . S
C707 C709 1.433 . S
C708 C704 1.350 . S
C708 C705 1.463 . S
C708 N712 1.427 . S
C709 H699 0.929 . S
C709 C707 1.433 . S
C709 N712 1.384 . S
C710 H701 0.929 . S
C710 C702 1.378 . S
C710 C705 1.350 . S
C711 H698 0.929 . S
C711 C703 1.433 . S
C711 N713 1.384 . S
N712 C708 1.427 . S
N712 C709 1.384 . S
N713 C705 1.427 . S
N713 C711 1.384 . S
H714 C720 0.930 . S
H715 C724 0.930 . S
H716 C729 0.929 . S
H717 C727 0.929 . S
H718 C722 0.929 . S
H719 C728 0.929 . S
C720 H714 0.930 . S
C720 C721 1.367 . S
C720 C728 1.378 . S
C721 C720 1.367 . S
C721 C729 1.433 . S
C722 H718 0.929 . S
C722 C724 1.378 . S
C722 C726 1.350 . S
C723 C726 1.463 . S
C723 C728 1.350 . S
C723 N731 1.427 . S
C724 H715 0.930 . S
C724 C722 1.378 . S
C724 C725 1.367 . S
C725 C724 1.367 . S
C725 C727 1.433 . S
C726 C722 1.350 . S
C726 C723 1.463 . S
C726 N730 1.427 . S
C727 H717 0.929 . S
C727 C725 1.433 . S
C727 N730 1.384 . S
C728 H719 0.929 . S
C728 C720 1.378 . S
C728 C723 1.350 . S
C729 H716 0.929 . S
C729 C721 1.433 . S
C729 N731 1.384 . S
N730 C726 1.427 . S
N730 C727 1.384 . S
N731 C723 1.427 . S
N731 C729 1.384 . S
H732 C738 0.930 . S
H733 C742 0.930 . S
H734 C747 0.929 . S
H735 C745 0.929 . S
H736 C740 0.929 . S
H737 C746 0.929 . S
C738 H732 0.930 . S
C738 C739 1.367 . S
C738 C746 1.378 . S
C739 C738 1.367 . S
C739 C747 1.433 . S
C740 H736 0.929 . S
C740 C742 1.378 . S
C740 C744 1.350 . S
C741 C744 1.463 . S
C741 C746 1.350 . S
C741 N749 1.427 . S
C742 H733 0.930 . S
C742 C740 1.378 . S
C742 C743 1.367 . S
C743 C742 1.367 . S
C743 C745 1.433 . S
C744 C740 1.350 . S
C744 C741 1.463 . S
C744 N748 1.427 . S
C745 H735 0.929 . S
C745 C743 1.433 . S
C745 N748 1.384 . S
C746 H737 0.929 . S
C746 C738 1.378 . S
C746 C741 1.350 . S
C747 H734 0.929 . S
C747 C739 1.433 . S
C747 N749 1.384 . S
N748 C744 1.427 . S
N748 C745 1.384 . S
N749 C741 1.427 . S
N749 C747 1.384 . S
H750 C756 0.930 . S
H751 C760 0.930 . S
H752 C765 0.929 . S
H753 C763 0.929 . S
H754 C758 0.929 . S
H755 C764 0.929 . S
C756 H750 0.930 . S
C756 C757 1.367 . S
C756 C764 1.378 . S
C757 C756 1.367 . S
C757 C765 1.433 . S
C758 H754 0.929 . S
C758 C760 1.378 . S
C758 C762 1.350 . S
C759 C762 1.463 . S
C759 C764 1.350 . S
C759 N767 1.427 . S
C760 H751 0.930 . S
C760 C758 1.378 . S
C760 C761 1.367 . S
C761 C760 1.367 . S
C761 C763 1.433 . S
C762 C758 1.350 . S
C762 C759 1.463 . S
C762 N766 1.427 . S
C763 H753 0.929 . S
C763 C761 1.433 . S
C763 N766 1.384 . S
C764 H755 0.929 . S
C764 C756 1.378 . S
C764 C759 1.350 . S
C765 H752 0.929 . S
C765 C757 1.433 . S
C765 N767 1.384 . S
N766 C762 1.427 . S
N766 C763 1.384 . S
N767 C759 1.427 . S
N767 C765 1.384 . S
H768 C774 0.930 . S
H769 C778 0.930 . S
H770 C783 0.929 . S
H771 C781 0.929 . S
H772 C776 0.929 . S
H773 C782 0.929 . S
C774 H768 0.930 . S
C774 C775 1.367 . S
C774 C782 1.378 . S
C775 C774 1.367 . S
C775 C783 1.433 . S
C776 H772 0.929 . S
C776 C778 1.378 . S
C776 C780 1.350 . S
C777 C780 1.463 1_554 S
C777 C782 1.350 . S
C777 N785 1.427 . S
C778 H769 0.930 . S
C778 C776 1.378 . S
C778 C779 1.367 . S
C779 C778 1.367 . S
C779 C781 1.433 . S
C780 C776 1.350 . S
C780 C777 1.463 1_556 S
C780 N784 1.427 . S
C781 H771 0.929 . S
C781 C779 1.433 . S
C781 N784 1.384 . S
C782 H773 0.929 . S
C782 C774 1.378 . S
C782 C777 1.350 . S
C783 H770 0.929 . S
C783 C775 1.433 . S
C783 N785 1.384 . S
N784 C780 1.427 . S
N784 C781 1.384 . S
N785 C777 1.427 . S
N785 C783 1.384 . S
H786 C792 0.930 . S
H787 C796 0.930 . S
H788 C801 0.929 . S
H789 C799 0.929 . S
H790 C794 0.929 . S
H791 C800 0.929 . S
C792 H786 0.930 . S
C792 C793 1.367 . S
C792 C800 1.378 . S
C793 C792 1.367 . S
C793 C801 1.433 . S
C794 H790 0.929 . S
C794 C796 1.378 . S
C794 C798 1.350 . S
C795 C798 1.463 1_556 S
C795 C800 1.350 . S
C795 N803 1.427 . S
C796 H787 0.930 . S
C796 C794 1.378 . S
C796 C797 1.367 . S
C797 C796 1.367 . S
C797 C799 1.433 . S
C798 C794 1.350 . S
C798 C795 1.463 1_554 S
C798 N802 1.427 . S
C799 H789 0.929 . S
C799 C797 1.433 . S
C799 N802 1.384 . S
C800 H791 0.929 . S
C800 C792 1.378 . S
C800 C795 1.350 . S
C801 H788 0.929 . S
C801 C793 1.433 . S
C801 N803 1.384 . S
N802 C798 1.427 . S
N802 C799 1.384 . S
N803 C795 1.427 . S
N803 C801 1.384 . S
H804 C810 0.930 . S
H805 C814 0.930 . S
H806 C819 0.929 . S
H807 C817 0.929 . S
H808 C812 0.929 . S
H809 C818 0.929 . S
C810 H804 0.930 . S
C810 C811 1.367 . S
C810 C818 1.378 . S
C811 C810 1.367 . S
C811 C819 1.433 . S
C812 H808 0.929 . S
C812 C814 1.378 . S
C812 C816 1.350 . S
C813 C816 1.463 1_556 S
C813 C818 1.350 . S
C813 N821 1.427 . S
C814 H805 0.930 . S
C814 C812 1.378 . S
C814 C815 1.367 . S
C815 C814 1.367 . S
C815 C817 1.433 . S
C816 C812 1.350 . S
C816 C813 1.463 1_554 S
C816 N820 1.427 . S
C817 H807 0.929 . S
C817 C815 1.433 . S
C817 N820 1.384 . S
C818 H809 0.929 . S
C818 C810 1.378 . S
C818 C813 1.350 . S
C819 H806 0.929 . S
C819 C811 1.433 . S
C819 N821 1.384 . S
N820 C816 1.427 . S
N820 C817 1.384 . S
N821 C813 1.427 . S
N821 C819 1.384 . S
H822 C828 0.930 . S
H823 C832 0.930 . S
H824 C837 0.929 . S
H825 C835 0.929 . S
H826 C830 0.929 . S
H827 C836 0.929 . S
C828 H822 0.930 . S
C828 C829 1.367 . S
C828 C836 1.378 . S
C829 C828 1.367 . S
C829 C837 1.433 . S
C830 H826 0.929 . S
C830 C832 1.378 . S
C830 C834 1.350 . S
C831 C834 1.463 1_554 S
C831 C836 1.350 . S
C831 N839 1.427 . S
C832 H823 0.930 . S
C832 C830 1.378 . S
C832 C833 1.367 . S
C833 C832 1.367 . S
C833 C835 1.433 . S
C834 C830 1.350 . S
C834 C831 1.463 1_556 S
C834 N838 1.427 . S
C835 H825 0.929 . S
C835 C833 1.433 . S
C835 N838 1.384 . S
C836 H827 0.929 . S
C836 C828 1.378 . S
C836 C831 1.350 . S
C837 H824 0.929 . S
C837 C829 1.433 . S
C837 N839 1.384 . S
N838 C834 1.427 . S
N838 C835 1.384 . S
N839 C831 1.427 . S
N839 C837 1.384 . S
H840 C846 0.930 . S
H841 C850 0.930 . S
H842 C855 0.929 . S
H843 C853 0.929 . S
H844 C848 0.929 . S
H845 C854 0.929 . S
C846 H840 0.930 . S
C846 C847 1.367 . S
C846 C854 1.378 . S
C847 C846 1.367 . S
C847 C855 1.433 . S
C848 H844 0.929 . S
C848 C850 1.378 . S
C848 C852 1.350 . S
C849 C852 1.463 1_554 S
C849 C854 1.350 . S
C849 N857 1.427 . S
C850 H841 0.930 . S
C850 C848 1.378 . S
C850 C851 1.367 . S
C851 C850 1.367 . S
C851 C853 1.433 . S
C852 C848 1.350 . S
C852 C849 1.463 1_556 S
C852 N856 1.427 . S
C853 H843 0.929 . S
C853 C851 1.433 . S
C853 N856 1.384 . S
C854 H845 0.929 . S
C854 C846 1.378 . S
C854 C849 1.350 . S
C855 H842 0.929 . S
C855 C847 1.433 . S
C855 N857 1.384 . S
N856 C852 1.427 . S
N856 C853 1.384 . S
N857 C849 1.427 . S
N857 C855 1.384 . S
H858 C864 0.930 . S
H859 C868 0.930 . S
H860 C873 0.929 . S
H861 C871 0.929 . S
H862 C866 0.929 . S
H863 C872 0.929 . S
C864 H858 0.930 . S
C864 C865 1.367 . S
C864 C872 1.378 . S
C865 C864 1.367 . S
C865 C873 1.433 . S
C866 H862 0.929 . S
C866 C868 1.378 . S
C866 C870 1.350 . S
C867 C870 1.463 1_556 S
C867 C872 1.350 . S
C867 N875 1.427 . S
C868 H859 0.930 . S
C868 C866 1.378 . S
C868 C869 1.367 . S
C869 C868 1.367 . S
C869 C871 1.433 . S
C870 C866 1.350 . S
C870 C867 1.463 1_554 S
C870 N874 1.427 . S
C871 H861 0.929 . S
C871 C869 1.433 . S
C871 N874 1.384 . S
C872 H863 0.929 . S
C872 C864 1.378 . S
C872 C867 1.350 . S
C873 H860 0.929 . S
C873 C865 1.433 . S
C873 N875 1.384 . S
N874 C870 1.427 . S
N874 C871 1.384 . S
N875 C867 1.427 . S
N875 C873 1.384 . S
H876 C882 0.930 . S
H877 C886 0.930 . S
H878 C891 0.929 . S
H879 C889 0.929 . S
H880 C884 0.929 . S
H881 C890 0.929 . S
C882 H876 0.930 . S
C882 C883 1.367 . S
C882 C890 1.378 . S
C883 C882 1.367 . S
C883 C891 1.433 . S
C884 H880 0.929 . S
C884 C886 1.378 . S
C884 C888 1.350 . S
C885 C888 1.463 . S
C885 C890 1.350 . S
C885 N893 1.427 . S
C886 H877 0.930 . S
C886 C884 1.378 . S
C886 C887 1.367 . S
C887 C886 1.367 . S
C887 C889 1.433 . S
C888 C884 1.350 . S
C888 C885 1.463 . S
C888 N892 1.427 . S
C889 H879 0.929 . S
C889 C887 1.433 . S
C889 N892 1.384 . S
C890 H881 0.929 . S
C890 C882 1.378 . S
C890 C885 1.350 . S
C891 H878 0.929 . S
C891 C883 1.433 . S
C891 N893 1.384 . S
N892 C888 1.427 . S
N892 C889 1.384 . S
N893 C885 1.427 . S
N893 C891 1.384 . S
H894 C900 0.930 . S
H895 C904 0.930 . S
H896 C909 0.929 . S
H897 C907 0.929 . S
H898 C902 0.929 . S
H899 C908 0.929 . S
C900 H894 0.930 . S
C900 C901 1.367 . S
C900 C908 1.378 . S
C901 C900 1.367 . S
C901 C909 1.433 . S
C902 H898 0.929 . S
C902 C904 1.378 . S
C902 C906 1.350 . S
C903 C906 1.463 . S
C903 C908 1.350 . S
C903 N911 1.427 . S
C904 H895 0.930 . S
C904 C902 1.378 . S
C904 C905 1.367 . S
C905 C904 1.367 . S
C905 C907 1.433 . S
C906 C902 1.350 . S
C906 C903 1.463 . S
C906 N910 1.427 . S
C907 H897 0.929 . S
C907 C905 1.433 . S
C907 N910 1.384 . S
C908 H899 0.929 . S
C908 C900 1.378 . S
C908 C903 1.350 . S
C909 H896 0.929 . S
C909 C901 1.433 . S
C909 N911 1.384 . S
N910 C906 1.427 . S
N910 C907 1.384 . S
N911 C903 1.427 . S
N911 C909 1.384 . S
H912 C918 0.930 . S
H913 C922 0.930 . S
H914 C927 0.929 . S
H915 C925 0.929 . S
H916 C920 0.929 . S
H917 C926 0.929 . S
C918 H912 0.930 . S
C918 C919 1.367 . S
C918 C926 1.378 . S
C919 C918 1.367 . S
C919 C927 1.433 . S
C920 H916 0.929 . S
C920 C922 1.378 . S
C920 C924 1.350 . S
C921 C924 1.463 . S
C921 C926 1.350 . S
C921 N929 1.427 . S
C922 H913 0.930 . S
C922 C920 1.378 . S
C922 C923 1.367 . S
C923 C922 1.367 . S
C923 C925 1.433 . S
C924 C920 1.350 . S
C924 C921 1.463 . S
C924 N928 1.427 . S
C925 H915 0.929 . S
C925 C923 1.433 . S
C925 N928 1.384 . S
C926 H917 0.929 . S
C926 C918 1.378 . S
C926 C921 1.350 . S
C927 H914 0.929 . S
C927 C919 1.433 . S
C927 N929 1.384 . S
N928 C924 1.427 . S
N928 C925 1.384 . S
N929 C921 1.427 . S
N929 C927 1.384 . S
H930 C936 0.930 . S
H931 C940 0.930 . S
H932 C945 0.929 . S
H933 C943 0.929 . S
H934 C938 0.929 . S
H935 C944 0.929 . S
C936 H930 0.930 . S
C936 C937 1.367 . S
C936 C944 1.378 . S
C937 C936 1.367 . S
C937 C945 1.433 . S
C938 H934 0.929 . S
C938 C940 1.378 . S
C938 C942 1.350 . S
C939 C942 1.463 . S
C939 C944 1.350 . S
C939 N947 1.427 . S
C940 H931 0.930 . S
C940 C938 1.378 . S
C940 C941 1.367 . S
C941 C940 1.367 . S
C941 C943 1.433 . S
C942 C938 1.350 . S
C942 C939 1.463 . S
C942 N946 1.427 . S
C943 H933 0.929 . S
C943 C941 1.433 . S
C943 N946 1.384 . S
C944 H935 0.929 . S
C944 C936 1.378 . S
C944 C939 1.350 . S
C945 H932 0.929 . S
C945 C937 1.433 . S
C945 N947 1.384 . S
N946 C942 1.427 . S
N946 C943 1.384 . S
N947 C939 1.427 . S
N947 C945 1.384 . S
H948 C954 0.930 . S
H949 C958 0.930 . S
H950 C963 0.929 . S
H951 C961 0.929 . S
H952 C956 0.929 . S
H953 C962 0.929 . S
C954 H948 0.930 . S
C954 C955 1.367 . S
C954 C962 1.378 . S
C955 C954 1.367 . S
C955 C963 1.433 . S
C956 H952 0.929 . S
C956 C958 1.378 . S
C956 C960 1.350 . S
C957 C960 1.463 . S
C957 C962 1.350 . S
C957 N965 1.427 . S
C958 H949 0.930 . S
C958 C956 1.378 . S
C958 C959 1.367 . S
C959 C958 1.367 . S
C959 C961 1.433 . S
C960 C956 1.350 . S
C960 C957 1.463 . S
C960 N964 1.427 . S
C961 H951 0.929 . S
C961 C959 1.433 . S
C961 N964 1.384 . S
C962 H953 0.929 . S
C962 C954 1.378 . S
C962 C957 1.350 . S
C963 H950 0.929 . S
C963 C955 1.433 . S
C963 N965 1.384 . S
N964 C960 1.427 . S
N964 C961 1.384 . S
N965 C957 1.427 . S
N965 C963 1.384 . S
H966 C972 0.930 . S
H967 C976 0.930 . S
H968 C981 0.929 . S
H969 C979 0.929 . S
H970 C974 0.929 . S
H971 C980 0.929 . S
C972 H966 0.930 . S
C972 C973 1.367 . S
C972 C980 1.378 . S
C973 C972 1.367 . S
C973 C981 1.433 . S
C974 H970 0.929 . S
C974 C976 1.378 . S
C974 C978 1.350 . S
C975 C978 1.463 . S
C975 C980 1.350 . S
C975 N983 1.427 . S
C976 H967 0.930 . S
C976 C974 1.378 . S
C976 C977 1.367 . S
C977 C976 1.367 . S
C977 C979 1.433 . S
C978 C974 1.350 . S
C978 C975 1.463 . S
C978 N982 1.427 . S
C979 H969 0.929 . S
C979 C977 1.433 . S
C979 N982 1.384 . S
C980 H971 0.929 . S
C980 C972 1.378 . S
C980 C975 1.350 . S
C981 H968 0.929 . S
C981 C973 1.433 . S
C981 N983 1.384 . S
N982 C978 1.427 . S
N982 C979 1.384 . S
N983 C975 1.427 . S
N983 C981 1.384 . S
H984 C990 0.930 . S
H985 C994 0.930 . S
H986 C999 0.929 . S
H987 C997 0.929 . S
H988 C992 0.929 . S
H989 C998 0.929 . S
C990 H984 0.930 . S
C990 C991 1.367 . S
C990 C998 1.378 . S
C991 C990 1.367 . S
C991 C999 1.433 . S
C992 H988 0.929 . S
C992 C994 1.378 . S
C992 C996 1.350 . S
C993 C996 1.463 . S
C993 C998 1.350 . S
C993 N1001 1.427 . S
C994 H985 0.930 . S
C994 C992 1.378 . S
C994 C995 1.367 . S
C995 C994 1.367 . S
C995 C997 1.433 . S
C996 C992 1.350 . S
C996 C993 1.463 . S
C996 N1000 1.427 . S
C997 H987 0.929 . S
C997 C995 1.433 . S
C997 N1000 1.384 . S
C998 H989 0.929 . S
C998 C990 1.378 . S
C998 C993 1.350 . S
C999 H986 0.929 . S
C999 C991 1.433 . S
C999 N1001 1.384 . S
N1000 C996 1.427 . S
N1000 C997 1.384 . S
N1001 C993 1.427 . S
N1001 C999 1.384 . S
H1002 C1008 0.930 . S
H1003 C1012 0.930 . S
H1004 C1017 0.929 . S
H1005 C1015 0.929 . S
H1006 C1010 0.929 . S
H1007 C1016 0.929 . S
C1008 H1002 0.930 . S
C1008 C1009 1.367 . S
C1008 C1016 1.378 . S
C1009 C1008 1.367 . S
C1009 C1017 1.433 . S
C1010 H1006 0.929 . S
C1010 C1012 1.378 . S
C1010 C1014 1.350 . S
C1011 C1014 1.463 . S
C1011 C1016 1.350 . S
C1011 N1019 1.427 . S
C1012 H1003 0.930 . S
C1012 C1010 1.378 . S
C1012 C1013 1.367 . S
C1013 C1012 1.367 . S
C1013 C1015 1.433 . S
C1014 C1010 1.350 . S
C1014 C1011 1.463 . S
C1014 N1018 1.427 . S
C1015 H1005 0.929 . S
C1015 C1013 1.433 . S
C1015 N1018 1.384 . S
C1016 H1007 0.929 . S
C1016 C1008 1.378 . S
C1016 C1011 1.350 . S
C1017 H1004 0.929 . S
C1017 C1009 1.433 . S
C1017 N1019 1.384 . S
N1018 C1014 1.427 . S
N1018 C1015 1.384 . S
N1019 C1011 1.427 . S
N1019 C1017 1.384 . S
H1020 C1026 0.930 . S
H1021 C1030 0.930 . S
H1022 C1035 0.929 . S
H1023 C1033 0.929 . S
H1024 C1028 0.929 . S
H1025 C1034 0.929 . S
C1026 H1020 0.930 . S
C1026 C1027 1.367 . S
C1026 C1034 1.378 . S
C1027 C1026 1.367 . S
C1027 C1035 1.433 . S
C1028 H1024 0.929 . S
C1028 C1030 1.378 . S
C1028 C1032 1.350 . S
C1029 C1032 1.463 . S
C1029 C1034 1.350 . S
C1029 N1037 1.427 . S
C1030 H1021 0.930 . S
C1030 C1028 1.378 . S
C1030 C1031 1.367 . S
C1031 C1030 1.367 . S
C1031 C1033 1.433 . S
C1032 C1028 1.350 . S
C1032 C1029 1.463 . S
C1032 N1036 1.427 . S
C1033 H1023 0.929 . S
C1033 C1031 1.433 . S
C1033 N1036 1.384 . S
C1034 H1025 0.929 . S
C1034 C1026 1.378 . S
C1034 C1029 1.350 . S
C1035 H1022 0.929 . S
C1035 C1027 1.433 . S
C1035 N1037 1.384 . S
N1036 C1032 1.427 . S
N1036 C1033 1.384 . S
N1037 C1029 1.427 . S
N1037 C1035 1.384 . S
H1038 C1044 0.930 . S
H1039 C1048 0.930 . S
H1040 C1053 0.929 . S
H1041 C1051 0.929 . S
H1042 C1046 0.929 . S
H1043 C1052 0.929 . S
C1044 H1038 0.930 . S
C1044 C1045 1.367 . S
C1044 C1052 1.378 . S
C1045 C1044 1.367 . S
C1045 C1053 1.433 . S
C1046 H1042 0.929 . S
C1046 C1048 1.378 . S
C1046 C1050 1.350 . S
C1047 C1050 1.463 . S
C1047 C1052 1.350 . S
C1047 N1055 1.427 . S
C1048 H1039 0.930 . S
C1048 C1046 1.378 . S
C1048 C1049 1.367 . S
C1049 C1048 1.367 . S
C1049 C1051 1.433 . S
C1050 C1046 1.350 . S
C1050 C1047 1.463 . S
C1050 N1054 1.427 . S
C1051 H1041 0.929 . S
C1051 C1049 1.433 . S
C1051 N1054 1.384 . S
C1052 H1043 0.929 . S
C1052 C1044 1.378 . S
C1052 C1047 1.350 . S
C1053 H1040 0.929 . S
C1053 C1045 1.433 . S
C1053 N1055 1.384 . S
N1054 C1050 1.427 . S
N1054 C1051 1.384 . S
N1055 C1047 1.427 . S
N1055 C1053 1.384 . S
H1056 C1062 0.930 . S
H1057 C1066 0.930 . S
H1058 C1071 0.929 . S
H1059 C1069 0.929 . S
H1060 C1064 0.929 . S
H1061 C1070 0.929 . S
C1062 H1056 0.930 . S
C1062 C1063 1.367 . S
C1062 C1070 1.378 . S
C1063 C1062 1.367 . S
C1063 C1071 1.433 . S
C1064 H1060 0.929 . S
C1064 C1066 1.378 . S
C1064 C1068 1.350 . S
C1065 C1068 1.463 . S
C1065 C1070 1.350 . S
C1065 N1073 1.427 . S
C1066 H1057 0.930 . S
C1066 C1064 1.378 . S
C1066 C1067 1.367 . S
C1067 C1066 1.367 . S
C1067 C1069 1.433 . S
C1068 C1064 1.350 . S
C1068 C1065 1.463 . S
C1068 N1072 1.427 . S
C1069 H1059 0.929 . S
C1069 C1067 1.433 . S
C1069 N1072 1.384 . S
C1070 H1061 0.929 . S
C1070 C1062 1.378 . S
C1070 C1065 1.350 . S
C1071 H1058 0.929 . S
C1071 C1063 1.433 . S
C1071 N1073 1.384 . S
N1072 C1068 1.427 . S
N1072 C1069 1.384 . S
N1073 C1065 1.427 . S
N1073 C1071 1.384 . S
H1074 C1080 0.930 . S
H1075 C1084 0.930 . S
H1076 C1089 0.929 . S
H1077 C1087 0.929 . S
H1078 C1082 0.929 . S
H1079 C1088 0.929 . S
C1080 H1074 0.930 . S
C1080 C1081 1.367 . S
C1080 C1088 1.378 . S
C1081 C1080 1.367 . S
C1081 C1089 1.433 . S
C1082 H1078 0.929 . S
C1082 C1084 1.378 . S
C1082 C1086 1.350 . S
C1083 C1086 1.463 . S
C1083 C1088 1.350 . S
C1083 N1091 1.427 . S
C1084 H1075 0.930 . S
C1084 C1082 1.378 . S
C1084 C1085 1.367 . S
C1085 C1084 1.367 . S
C1085 C1087 1.433 . S
C1086 C1082 1.350 . S
C1086 C1083 1.463 . S
C1086 N1090 1.427 . S
C1087 H1077 0.929 . S
C1087 C1085 1.433 . S
C1087 N1090 1.384 . S
C1088 H1079 0.929 . S
C1088 C1080 1.378 . S
C1088 C1083 1.350 . S
C1089 H1076 0.929 . S
C1089 C1081 1.433 . S
C1089 N1091 1.384 . S
N1090 C1086 1.427 . S
N1090 C1087 1.384 . S
N1091 C1083 1.427 . S
N1091 C1089 1.384 . S
H1092 C1098 0.930 . S
H1093 C1102 0.930 . S
H1094 C1107 0.929 . S
H1095 C1105 0.929 . S
H1096 C1100 0.929 . S
H1097 C1106 0.929 . S
C1098 H1092 0.930 . S
C1098 C1099 1.367 . S
C1098 C1106 1.378 . S
C1099 C1098 1.367 . S
C1099 C1107 1.433 . S
C1100 H1096 0.929 . S
C1100 C1102 1.378 . S
C1100 C1104 1.350 . S
C1101 C1104 1.463 . S
C1101 C1106 1.350 . S
C1101 N1109 1.427 . S
C1102 H1093 0.930 . S
C1102 C1100 1.378 . S
C1102 C1103 1.367 . S
C1103 C1102 1.367 . S
C1103 C1105 1.433 . S
C1104 C1100 1.350 . S
C1104 C1101 1.463 . S
C1104 N1108 1.427 . S
C1105 H1095 0.929 . S
C1105 C1103 1.433 . S
C1105 N1108 1.384 . S
C1106 H1097 0.929 . S
C1106 C1098 1.378 . S
C1106 C1101 1.350 . S
C1107 H1094 0.929 . S
C1107 C1099 1.433 . S
C1107 N1109 1.384 . S
N1108 C1104 1.427 . S
N1108 C1105 1.384 . S
N1109 C1101 1.427 . S
N1109 C1107 1.384 . S
H1110 C1116 0.930 . S
H1111 C1120 0.930 . S
H1112 C1125 0.929 . S
H1113 C1123 0.929 . S
H1114 C1118 0.929 . S
H1115 C1124 0.929 . S
C1116 H1110 0.930 . S
C1116 C1117 1.367 . S
C1116 C1124 1.378 . S
C1117 C1116 1.367 . S
C1117 C1125 1.433 . S
C1118 H1114 0.929 . S
C1118 C1120 1.378 . S
C1118 C1122 1.350 . S
C1119 C1122 1.463 . S
C1119 C1124 1.350 . S
C1119 N1127 1.427 . S
C1120 H1111 0.930 . S
C1120 C1118 1.378 . S
C1120 C1121 1.367 . S
C1121 C1120 1.367 . S
C1121 C1123 1.433 . S
C1122 C1118 1.350 . S
C1122 C1119 1.463 . S
C1122 N1126 1.427 . S
C1123 H1113 0.929 . S
C1123 C1121 1.433 . S
C1123 N1126 1.384 . S
C1124 H1115 0.929 . S
C1124 C1116 1.378 . S
C1124 C1119 1.350 . S
C1125 H1112 0.929 . S
C1125 C1117 1.433 . S
C1125 N1127 1.384 . S
N1126 C1122 1.427 . S
N1126 C1123 1.384 . S
N1127 C1119 1.427 . S
N1127 C1125 1.384 . S
H1128 C1134 0.930 . S
H1129 C1138 0.930 . S
H1130 C1143 0.929 . S
H1131 C1141 0.929 . S
H1132 C1136 0.929 . S
H1133 C1142 0.929 . S
C1134 H1128 0.930 . S
C1134 C1135 1.367 . S
C1134 C1142 1.378 . S
C1135 C1134 1.367 . S
C1135 C1143 1.433 . S
C1136 H1132 0.929 . S
C1136 C1138 1.378 . S
C1136 C1140 1.350 . S
C1137 C1140 1.463 . S
C1137 C1142 1.350 . S
C1137 N1145 1.427 . S
C1138 H1129 0.930 . S
C1138 C1136 1.378 . S
C1138 C1139 1.367 . S
C1139 C1138 1.367 . S
C1139 C1141 1.433 . S
C1140 C1136 1.350 . S
C1140 C1137 1.463 . S
C1140 N1144 1.427 . S
C1141 H1131 0.929 . S
C1141 C1139 1.433 . S
C1141 N1144 1.384 . S
C1142 H1133 0.929 . S
C1142 C1134 1.378 . S
C1142 C1137 1.350 . S
C1143 H1130 0.929 . S
C1143 C1135 1.433 . S
C1143 N1145 1.384 . S
N1144 C1140 1.427 . S
N1144 C1141 1.384 . S
N1145 C1137 1.427 . S
N1145 C1143 1.384 . S
H1146 C1152 0.930 . S
H1147 C1156 0.930 . S
H1148 C1161 0.929 . S
H1149 C1159 0.929 . S
H1150 C1154 0.929 . S
H1151 C1160 0.929 . S
C1152 H1146 0.930 . S
C1152 C1153 1.367 . S
C1152 C1160 1.378 . S
C1153 C1152 1.367 . S
C1153 C1161 1.433 . S
C1154 H1150 0.929 . S
C1154 C1156 1.378 . S
C1154 C1158 1.350 . S
C1155 C1158 1.463 . S
C1155 C1160 1.350 . S
C1155 N1163 1.427 . S
C1156 H1147 0.930 . S
C1156 C1154 1.378 . S
C1156 C1157 1.367 . S
C1157 C1156 1.367 . S
C1157 C1159 1.433 . S
C1158 C1154 1.350 . S
C1158 C1155 1.463 . S
C1158 N1162 1.427 . S
C1159 H1149 0.929 . S
C1159 C1157 1.433 . S
C1159 N1162 1.384 . S
C1160 H1151 0.929 . S
C1160 C1152 1.378 . S
C1160 C1155 1.350 . S
C1161 H1148 0.929 . S
C1161 C1153 1.433 . S
C1161 N1163 1.384 . S
N1162 C1158 1.427 . S
N1162 C1159 1.384 . S
N1163 C1155 1.427 . S
N1163 C1161 1.384 . S
H1164 C1170 0.930 . S
H1165 C1174 0.930 . S
H1166 C1179 0.929 . S
H1167 C1177 0.929 . S
H1168 C1172 0.929 . S
H1169 C1178 0.929 . S
C1170 H1164 0.930 . S
C1170 C1171 1.367 . S
C1170 C1178 1.378 . S
C1171 C1170 1.367 . S
C1171 C1179 1.433 . S
C1172 H1168 0.929 . S
C1172 C1174 1.378 . S
C1172 C1176 1.350 . S
C1173 C1176 1.463 . S
C1173 C1178 1.350 . S
C1173 N1181 1.427 . S
C1174 H1165 0.930 . S
C1174 C1172 1.378 . S
C1174 C1175 1.367 . S
C1175 C1174 1.367 . S
C1175 C1177 1.433 . S
C1176 C1172 1.350 . S
C1176 C1173 1.463 . S
C1176 N1180 1.427 . S
C1177 H1167 0.929 . S
C1177 C1175 1.433 . S
C1177 N1180 1.384 . S
C1178 H1169 0.929 . S
C1178 C1170 1.378 . S
C1178 C1173 1.350 . S
C1179 H1166 0.929 . S
C1179 C1171 1.433 . S
C1179 N1181 1.384 . S
N1180 C1176 1.427 . S
N1180 C1177 1.384 . S
N1181 C1173 1.427 . S
N1181 C1179 1.384 . S
H1182 C1188 0.930 . S
H1183 C1192 0.930 . S
H1184 C1197 0.929 . S
H1185 C1195 0.929 . S
H1186 C1190 0.929 . S
H1187 C1196 0.929 . S
C1188 H1182 0.930 . S
C1188 C1189 1.367 . S
C1188 C1196 1.378 . S
C1189 C1188 1.367 . S
C1189 C1197 1.433 . S
C1190 H1186 0.929 . S
C1190 C1192 1.378 . S
C1190 C1194 1.350 . S
C1191 C1194 1.463 . S
C1191 C1196 1.350 . S
C1191 N1199 1.427 . S
C1192 H1183 0.930 . S
C1192 C1190 1.378 . S
C1192 C1193 1.367 . S
C1193 C1192 1.367 . S
C1193 C1195 1.433 . S
C1194 C1190 1.350 . S
C1194 C1191 1.463 . S
C1194 N1198 1.427 . S
C1195 H1185 0.929 . S
C1195 C1193 1.433 . S
C1195 N1198 1.384 . S
C1196 H1187 0.929 . S
C1196 C1188 1.378 . S
C1196 C1191 1.350 . S
C1197 H1184 0.929 . S
C1197 C1189 1.433 . S
C1197 N1199 1.384 . S
N1198 C1194 1.427 . S
N1198 C1195 1.384 . S
N1199 C1191 1.427 . S
N1199 C1197 1.384 . S
C343 C9 1.800 . S
C347 C107 1.805 . S
C361 C121 1.805 . S
C365 C23 1.800 . S
C379 C37 1.800 . S
C383 C135 1.805 . S
C397 C51 1.804 . S
C401 C149 1.801 . S
C415 C163 1.801 . S
C419 C65 1.805 . S
C433 C79 1.804 . S
C437 C93 1.801 . S
C451 C177 1.805 . S
C455 C275 1.800 . S
C469 C191 1.803 . S
C473 C289 1.802 . S
C487 C303 1.801 . S
C491 C205 1.804 . S
C505 C219 1.805 . S
C509 C317 1.800 . S
C523 C233 1.800 . S
C527 C331 1.805 . S
C541 C261 1.800 . S
C545 C247 1.805 . S
C559 C6 1.495 . S
C563 C118 1.498 . S
C577 C132 1.487 . S
C581 C20 1.489 . S
C595 C146 1.497 . S
C599 C34 1.497 . S
C613 C48 1.496 . S
C617 C160 1.498 . S
C631 C62 1.494 . S
C635 C90 1.489 . S
C649 C76 1.489 . S
C653 C104 1.495 . S
C667 C286 1.494 . S
C671 C174 1.498 . S
C685 C188 1.490 . S
C689 C300 1.496 . S
C703 C314 1.496 . S
C707 C202 1.491 . S
C721 C328 1.493 . S
C725 C216 1.498 . S
C739 C258 1.495 . S
C743 C230 1.489 . S
C757 C244 1.498 . S
C761 C272 1.493 . S
C775 C7 1.563 . S
C779 C217 1.571 . S
C793 C231 1.571 . S
C797 C21 1.563 . S
C811 C245 1.561 . S
C815 C35 1.573 . S
C829 C49 1.564 . S
C833 C175 1.570 . S
C847 C63 1.560 . S
C851 C189 1.574 . S
C865 C203 1.573 . S
C869 C77 1.561 . S
C883 C301 1.562 . S
C887 C91 1.572 . S
C901 C315 1.563 . S
C905 C105 1.571 . S
C919 C329 1.560 . S
C923 C119 1.574 . S
C937 C259 1.565 . S
C941 C133 1.569 . S
C955 C147 1.563 . S
C959 C273 1.571 . S
C973 C161 1.564 . S
C977 C287 1.570 . S
C991 C8 1.375 . S
C995 C148 1.375 . S
C1009 C162 1.375 . S
C1013 C22 1.374 . S
C1027 C92 1.375 . S
C1031 C36 1.374 . S
C1045 C50 1.374 . S
C1049 C106 1.374 . S
C1063 C64 1.375 . S
C1067 C120 1.374 . S
C1081 C78 1.375 . S
C1085 C134 1.374 . S
C1099 C176 1.374 . S
C1103 C316 1.375 . S
C1117 C190 1.374 . S
C1121 C330 1.375 . S
C1135 C204 1.374 . S
C1139 C260 1.375 . S
C1153 C274 1.375 . S
C1157 C218 1.374 . S
C1171 C232 1.374 . S
C1175 C288 1.375 . S
C1189 C246 1.374 . S
C1193 C302 1.375 . S
