# Generated by pormake.
# Topology gsi, (4)-cn, num edge types: 1
# Building blocks:
#     Node 0, Type 0, BuildingBlock: CEKHIL_clean_sbu_0, # of connection points: 4
#     Node 1, Type 0, BuildingBlock: CEKHIL_clean_sbu_0, # of connection points: 4
#     Node 2, Type 0, BuildingBlock: CEKHIL_clean_sbu_0, # of connection points: 4
#     Node 3, Type 0, BuildingBlock: CEKHIL_clean_sbu_0, # of connection points: 4
#     Node 4, Type 0, BuildingBlock: CEKHIL_clean_sbu_0, # of connection points: 4
#     Node 5, Type 0, BuildingBlock: CEKHIL_clean_sbu_0, # of connection points: 4
#     Node 6, Type 0, BuildingBlock: CEKHIL_clean_sbu_0, # of connection points: 4
#     Node 7, Type 0, BuildingBlock: CEKHIL_clean_sbu_0, # of connection points: 4
#     Node 8, Type 0, BuildingBlock: CEKHIL_clean_sbu_0, # of connection points: 4
#     Node 9, Type 0, BuildingBlock: CEKHIL_clean_sbu_0, # of connection points: 4
#     Node 10, Type 0, BuildingBlock: CEKHIL_clean_sbu_0, # of connection points: 4
#     Node 11, Type 0, BuildingBlock: CEKHIL_clean_sbu_0, # of connection points: 4
#     Node 12, Type 0, BuildingBlock: CEKHIL_clean_sbu_0, # of connection points: 4
#     Node 13, Type 0, BuildingBlock: CEKHIL_clean_sbu_0, # of connection points: 4
#     Node 14, Type 0, BuildingBlock: CEKHIL_clean_sbu_0, # of connection points: 4
#     Node 15, Type 0, BuildingBlock: CEKHIL_clean_sbu_0, # of connection points: 4
#     Edge 16, Type (0, 0), BuildingBlock: XUDNAN_clean_linker_2, # of connection points: 2
#     Edge 17, Type (0, 0), BuildingBlock: XUDNAN_clean_linker_2, # of connection points: 2
#     Edge 18, Type (0, 0), BuildingBlock: XUDNAN_clean_linker_2, # of connection points: 2
#     Edge 19, Type (0, 0), BuildingBlock: XUDNAN_clean_linker_2, # of connection points: 2
#     Edge 20, Type (0, 0), BuildingBlock: XUDNAN_clean_linker_2, # of connection points: 2
#     Edge 21, Type (0, 0), BuildingBlock: XUDNAN_clean_linker_2, # of connection points: 2
#     Edge 22, Type (0, 0), BuildingBlock: XUDNAN_clean_linker_2, # of connection points: 2
#     Edge 23, Type (0, 0), BuildingBlock: XUDNAN_clean_linker_2, # of connection points: 2
#     Edge 24, Type (0, 0), BuildingBlock: XUDNAN_clean_linker_2, # of connection points: 2
#     Edge 25, Type (0, 0), BuildingBlock: XUDNAN_clean_linker_2, # of connection points: 2
#     Edge 26, Type (0, 0), BuildingBlock: XUDNAN_clean_linker_2, # of connection points: 2
#     Edge 27, Type (0, 0), BuildingBlock: XUDNAN_clean_linker_2, # of connection points: 2
#     Edge 28, Type (0, 0), BuildingBlock: XUDNAN_clean_linker_2, # of connection points: 2
#     Edge 29, Type (0, 0), BuildingBlock: XUDNAN_clean_linker_2, # of connection points: 2
#     Edge 30, Type (0, 0), BuildingBlock: XUDNAN_clean_linker_2, # of connection points: 2
#     Edge 31, Type (0, 0), BuildingBlock: XUDNAN_clean_linker_2, # of connection points: 2
#     Edge 32, Type (0, 0), BuildingBlock: XUDNAN_clean_linker_2, # of connection points: 2
#     Edge 33, Type (0, 0), BuildingBlock: XUDNAN_clean_linker_2, # of connection points: 2
#     Edge 34, Type (0, 0), BuildingBlock: XUDNAN_clean_linker_2, # of connection points: 2
#     Edge 35, Type (0, 0), BuildingBlock: XUDNAN_clean_linker_2, # of connection points: 2
#     Edge 36, Type (0, 0), BuildingBlock: XUDNAN_clean_linker_2, # of connection points: 2
#     Edge 37, Type (0, 0), BuildingBlock: XUDNAN_clean_linker_2, # of connection points: 2
#     Edge 38, Type (0, 0), BuildingBlock: XUDNAN_clean_linker_2, # of connection points: 2
#     Edge 39, Type (0, 0), BuildingBlock: XUDNAN_clean_linker_2, # of connection points: 2
#     Edge 40, Type (0, 0), BuildingBlock: XUDNAN_clean_linker_2, # of connection points: 2
#     Edge 41, Type (0, 0), BuildingBlock: XUDNAN_clean_linker_2, # of connection points: 2
#     Edge 42, Type (0, 0), BuildingBlock: XUDNAN_clean_linker_2, # of connection points: 2
#     Edge 43, Type (0, 0), BuildingBlock: XUDNAN_clean_linker_2, # of connection points: 2
#     Edge 44, Type (0, 0), BuildingBlock: XUDNAN_clean_linker_2, # of connection points: 2
#     Edge 45, Type (0, 0), BuildingBlock: XUDNAN_clean_linker_2, # of connection points: 2
#     Edge 46, Type (0, 0), BuildingBlock: XUDNAN_clean_linker_2, # of connection points: 2
#     Edge 47, Type (0, 0), BuildingBlock: XUDNAN_clean_linker_2, # of connection points: 2
# Relax obj value: 0.147
# Max RMSD: 0.206
# Mean RMSD: 0.126
data_MOF--net-gsi--node1-CEKHIL_clean_sbu_0--edge1-XUDNAN_clean_linker_2
_symmetry_space_group_name_H-M    P1
_symmetry_Int_Tables_number       1
_symmetry_cell_setting            triclinic
loop_
_symmetry_equiv_pos_as_xyz
'x, y, z'
_cell_length_a     38.858793
_cell_length_b     43.55118
_cell_length_c     40.876641
_cell_angle_alpha  90.938042
_cell_angle_beta   93.51617
_cell_angle_gamma 97.549501
loop_
_atom_site_label
_atom_site_type_symbol
_atom_site_fract_x
_atom_site_fract_y
_atom_site_fract_z
_atom_type_partial_charge
Co0 Co 0.15418 0.14298 0.13132 0.0
O1 O 0.1867 0.11434 0.14373 0.0
O2 O 0.1333 0.11066 0.15964 0.0
C3 C 0.16842 0.14391 0.07754 0.0
O4 O 0.11218 0.16793 0.12431 0.0
Co5 Co 0.17563 0.20725 0.10143 0.0
O6 O 0.12535 0.2109 0.09538 0.0
C7 C 0.19602 0.19472 0.17058 0.0
C8 C 0.16291 0.09971 0.16077 0.0
C9 C 0.10355 0.19247 0.11002 0.0
O10 O 0.17325 0.17035 0.1704 0.0
O11 O 0.203 0.21038 0.14503 0.0
O12 O 0.14557 0.12189 0.0873 0.0
O13 O 0.18115 0.16378 0.10009 0.0
Co14 Co 0.85802 0.35851 0.14286 0.0
O15 O 0.83481 0.392 0.16056 0.0
O16 O 0.88525 0.37981 0.17981 0.0
C17 C 0.84639 0.37027 0.08933 0.0
O18 O 0.89272 0.32755 0.13316 0.0
Co19 Co 0.82668 0.30475 0.09581 0.0
O20 O 0.87405 0.29302 0.09263 0.0
C21 C 0.80434 0.30923 0.16388 0.0
C22 C 0.86115 0.39757 0.18202 0.0
C23 C 0.89761 0.30496 0.11373 0.0
O24 O 0.83186 0.32828 0.17234 0.0
O25 O 0.7964 0.2998 0.13417 0.0
O26 O 0.87277 0.38554 0.10646 0.0
O27 O 0.82851 0.34886 0.1047 0.0
Co28 Co 0.17176 0.87977 0.34218 0.0
O29 O 0.20317 0.91247 0.32376 0.0
O30 O 0.14636 0.90605 0.31373 0.0
C31 C 0.19746 0.88608 0.39442 0.0
O32 O 0.12988 0.84926 0.35591 0.0
Co33 Co 0.19718 0.82198 0.37579 0.0
O34 O 0.14743 0.80677 0.37895 0.0
C35 C 0.19243 0.82637 0.30314 0.0
C36 C 0.17623 0.92185 0.3086 0.0
C37 C 0.12354 0.82201 0.36815 0.0
O38 O 0.1777 0.85119 0.30393 0.0
O39 O 0.20402 0.81347 0.32869 0.0
O40 O 0.17478 0.90381 0.38409 0.0
O41 O 0.20468 0.86643 0.37297 0.0
Co42 Co 0.86149 0.63519 0.34101 0.0
O43 O 0.90557 0.6534 0.3244 0.0
O44 O 0.88773 0.66351 0.37316 0.0
C45 C 0.86345 0.58539 0.32288 0.0
O46 O 0.81981 0.62252 0.36889 0.0
Co47 Co 0.79784 0.60454 0.29811 0.0
O48 O 0.77454 0.59613 0.33958 0.0
C49 C 0.8183 0.67203 0.29655 0.0
C50 C 0.91097 0.66941 0.35184 0.0
C51 C 0.78859 0.60797 0.36666 0.0
O52 O 0.83879 0.67045 0.3222 0.0
O53 O 0.80179 0.64801 0.28147 0.0
O54 O 0.8803 0.59604 0.35016 0.0
O55 O 0.8477 0.60533 0.30697 0.0
Co56 Co 0.37172 0.86279 0.64459 0.0
O57 O 0.3476 0.89471 0.66402 0.0
O58 O 0.40143 0.88718 0.67796 0.0
C59 C 0.35316 0.87113 0.59173 0.0
O60 O 0.40787 0.83454 0.63151 0.0
Co61 Co 0.33861 0.80508 0.60501 0.0
O62 O 0.38554 0.79283 0.60076 0.0
C63 C 0.32702 0.81126 0.67526 0.0
C64 C 0.37583 0.90275 0.68267 0.0
C65 C 0.41141 0.80925 0.61571 0.0
O66 O 0.35294 0.83301 0.67841 0.0
O67 O 0.31538 0.79896 0.64744 0.0
O68 O 0.37984 0.88854 0.60608 0.0
O69 O 0.33834 0.84976 0.60962 0.0
Co70 Co 0.87098 0.86743 0.88865 0.0
O71 O 0.88161 0.82868 0.90692 0.0
O72 O 0.91687 0.85873 0.8771 0.0
C73 C 0.84987 0.88544 0.93535 0.0
O74 O 0.87042 0.90929 0.86565 0.0
Co75 Co 0.79621 0.88458 0.88202 0.0
O76 O 0.81659 0.92328 0.86173 0.0
C77 C 0.81543 0.83255 0.84362 0.0
C78 C 0.91099 0.83319 0.89306 0.0
C79 C 0.84879 0.92814 0.85656 0.0
O80 O 0.84782 0.84344 0.84856 0.0
O81 O 0.79125 0.84345 0.85811 0.0
O82 O 0.88315 0.88911 0.93136 0.0
O83 O 0.83097 0.87012 0.91201 0.0
Co84 Co 0.14246 0.66981 0.88352 0.0
O85 O 0.1251 0.70595 0.90243 0.0
O86 O 0.09555 0.67289 0.86624 0.0
C87 C 0.16527 0.65291 0.93171 0.0
O88 O 0.14879 0.62994 0.8582 0.0
Co89 Co 0.2196 0.65753 0.88711 0.0
O90 O 0.20233 0.61641 0.86639 0.0
C91 C 0.19611 0.70634 0.8447 0.0
C92 C 0.09632 0.6975 0.88474 0.0
C93 C 0.17125 0.61114 0.85382 0.0
O94 O 0.16378 0.69623 0.84779 0.0
O95 O 0.22134 0.69601 0.86068 0.0
O96 O 0.13221 0.64615 0.9234 0.0
O97 O 0.18269 0.67026 0.91168 0.0
Co98 Co 0.85307 0.14482 0.67663 0.0
O99 O 0.809 0.12378 0.65704 0.0
O100 O 0.85138 0.14782 0.62952 0.0
C101 C 0.86409 0.10673 0.71224 0.0
O102 O 0.90168 0.16977 0.68604 0.0
Co103 Co 0.86617 0.16391 0.75021 0.0
O104 O 0.91349 0.18176 0.73951 0.0
C105 C 0.82513 0.20036 0.70546 0.0
C106 C 0.82033 0.13255 0.62892 0.0
C107 C 0.92183 0.18319 0.70989 0.0
O108 O 0.83117 0.18411 0.68045 0.0
O109 O 0.83509 0.19487 0.73498 0.0
O110 O 0.87151 0.10489 0.68174 0.0
O111 O 0.84869 0.13013 0.71975 0.0
Co112 Co 0.18284 0.38942 0.67538 0.0
O113 O 0.22384 0.41112 0.65648 0.0
O114 O 0.183 0.37888 0.62918 0.0
C115 C 0.16879 0.43128 0.70356 0.0
O116 O 0.13715 0.36228 0.68437 0.0
Co117 Co 0.17529 0.38257 0.74987 0.0
O118 O 0.12908 0.35837 0.73808 0.0
C119 C 0.22214 0.34639 0.71578 0.0
C120 C 0.2122 0.39715 0.6289 0.0
C121 C 0.11932 0.35145 0.70825 0.0
O122 O 0.20968 0.3543 0.68771 0.0
O123 O 0.21444 0.35784 0.74302 0.0
O124 O 0.15911 0.42668 0.67263 0.0
O125 O 0.18771 0.41162 0.71586 0.0
Co126 Co 0.64082 0.16914 0.38733 0.0
O127 O 0.62448 0.20506 0.40777 0.0
O128 O 0.5925 0.1712 0.37397 0.0
C129 C 0.66882 0.15249 0.43324 0.0
O130 O 0.64596 0.12938 0.36108 0.0
Co131 Co 0.71879 0.1602 0.38399 0.0
O132 O 0.70131 0.11948 0.36244 0.0
C133 C 0.68904 0.20723 0.3438 0.0
C134 C 0.59449 0.19606 0.3923 0.0
C135 C 0.66925 0.11239 0.35337 0.0
O136 O 0.65775 0.19549 0.34954 0.0
O137 O 0.71615 0.19865 0.35837 0.0
O138 O 0.63525 0.14562 0.42834 0.0
O139 O 0.68342 0.17034 0.41193 0.0
Co140 Co 0.66235 0.64767 0.62458 0.0
O141 O 0.69049 0.61605 0.63776 0.0
O142 O 0.63982 0.62048 0.65726 0.0
C143 C 0.67017 0.6409 0.56982 0.0
O144 O 0.62529 0.67776 0.61706 0.0
Co145 Co 0.69488 0.70544 0.58945 0.0
O146 O 0.64816 0.71888 0.58918 0.0
C147 C 0.71139 0.6994 0.6602 0.0
C148 C 0.66709 0.60598 0.65763 0.0
C149 C 0.62312 0.70429 0.6037 0.0
O150 O 0.68732 0.67605 0.66052 0.0
O151 O 0.72047 0.71265 0.63376 0.0
O152 O 0.64567 0.62381 0.58403 0.0
O153 O 0.68947 0.66067 0.58913 0.0
Co154 Co 0.67169 0.38517 0.83768 0.0
O155 O 0.70265 0.42023 0.82334 0.0
O156 O 0.64633 0.41227 0.81026 0.0
C157 C 0.69472 0.38834 0.89091 0.0
O158 O 0.63044 0.35209 0.84733 0.0
Co159 Co 0.69861 0.32619 0.86601 0.0
O160 O 0.64911 0.30854 0.86642 0.0
C161 C 0.70513 0.34208 0.79656 0.0
C162 C 0.67598 0.42943 0.80755 0.0
C163 C 0.62469 0.32371 0.85674 0.0
O164 O 0.68181 0.36041 0.79794 0.0
O165 O 0.71819 0.32977 0.82184 0.0
O166 O 0.6714 0.40574 0.88127 0.0
O167 O 0.70392 0.3709 0.86828 0.0
Co168 Co 0.36216 0.13627 0.83971 0.0
O169 O 0.40277 0.15359 0.81656 0.0
O170 O 0.3901 0.16899 0.86556 0.0
C171 C 0.36601 0.08555 0.82676 0.0
O172 O 0.32558 0.12667 0.87351 0.0
Co173 Co 0.29506 0.09691 0.81207 0.0
O174 O 0.27707 0.09569 0.85672 0.0
C175 C 0.31197 0.16238 0.79382 0.0
C176 C 0.4105 0.17263 0.84165 0.0
C177 C 0.29531 0.11239 0.8789 0.0
O178 O 0.33434 0.16711 0.81848 0.0
O179 O 0.29648 0.13541 0.78517 0.0
O180 O 0.38517 0.09973 0.85124 0.0
O181 O 0.34567 0.10217 0.81122 0.0
Co182 Co 0.36963 0.36608 0.39065 0.0
O183 O 0.37846 0.32752 0.41088 0.0
O184 O 0.41569 0.35615 0.38169 0.0
C185 C 0.34611 0.38597 0.43504 0.0
O186 O 0.37157 0.40714 0.36558 0.0
Co187 Co 0.29631 0.38711 0.38015 0.0
O188 O 0.32062 0.42638 0.3644 0.0
C189 C 0.31491 0.33393 0.34181 0.0
C190 C 0.40862 0.33119 0.39829 0.0
C191 C 0.35241 0.42841 0.35773 0.0
O192 O 0.3475 0.34142 0.35051 0.0
O193 O 0.29093 0.34758 0.35348 0.0
O194 O 0.37977 0.38853 0.43367 0.0
O195 O 0.32861 0.37081 0.41092 0.0
Co196 Co 0.35412 0.64111 0.17387 0.0
O197 O 0.31107 0.61734 0.15644 0.0
O198 O 0.34778 0.64618 0.12682 0.0
C199 C 0.37082 0.60271 0.20656 0.0
O200 O 0.40095 0.66909 0.18209 0.0
Co201 Co 0.36759 0.65772 0.24753 0.0
O202 O 0.41271 0.68035 0.23573 0.0
C203 C 0.3156 0.68653 0.20761 0.0
C204 C 0.31815 0.62856 0.12803 0.0
C205 C 0.42049 0.68309 0.20598 0.0
O206 O 0.32834 0.67757 0.18141 0.0
O207 O 0.32483 0.67791 0.23625 0.0
O208 O 0.37741 0.60345 0.1757 0.0
O209 O 0.35331 0.62402 0.21604 0.0
Co210 Co 0.68244 0.89113 0.17613 0.0
O211 O 0.72397 0.9142 0.16013 0.0
O212 O 0.68762 0.88015 0.13037 0.0
C213 C 0.6651 0.93272 0.2024 0.0
O214 O 0.63686 0.86258 0.18286 0.0
Co215 Co 0.67032 0.88524 0.25024 0.0
O216 O 0.62553 0.85986 0.23604 0.0
C217 C 0.7241 0.85405 0.22061 0.0
C218 C 0.71625 0.89945 0.13223 0.0
C219 C 0.61776 0.85203 0.20605 0.0
O220 O 0.71057 0.85771 0.19162 0.0
O221 O 0.71453 0.86666 0.24645 0.0
O222 O 0.6572 0.92768 0.17116 0.0
O223 O 0.68365 0.91351 0.21592 0.0
H224 H 0.17747 0.23071 0.21974 0.0
H225 H 0.26202 0.18505 0.18697 0.0
H226 H 0.302 0.21299 0.23039 0.0
H227 H 0.22442 0.30245 0.23237 0.0
H228 H 0.20376 0.31326 0.26833 0.0
H229 H 0.18049 0.28575 0.23894 0.0
H230 H 0.16967 0.24541 0.28435 0.0
H231 H 0.19235 0.27306 0.31411 0.0
H232 H 0.20601 0.23532 0.30958 0.0
H233 H 0.33424 0.25136 0.27278 0.0
H234 H 0.3549 0.29441 0.31255 0.0
H235 H 0.24877 0.31496 0.31625 0.0
C236 C 0.20402 0.22566 0.2228 0.0
C237 C 0.21665 0.20518 0.20091 0.0
C238 C 0.25188 0.2001 0.20431 0.0
C239 C 0.27474 0.21597 0.22873 0.0
C240 C 0.26185 0.2369 0.24941 0.0
C241 C 0.22716 0.24143 0.24697 0.0
C242 C 0.22046 0.26711 0.27012 0.0
C243 C 0.20647 0.2937 0.2513 0.0
C244 C 0.19566 0.25446 0.29609 0.0
C245 C 0.25687 0.27693 0.28518 0.0
C246 C 0.28043 0.25916 0.27325 0.0
C247 C 0.3159 0.26515 0.28265 0.0
C248 C 0.32746 0.28977 0.30508 0.0
C249 C 0.30358 0.30817 0.31765 0.0
C250 C 0.26787 0.30139 0.3074 0.0
H251 H 0.81701 0.30562 0.23082 0.0
H252 H 0.73551 0.28775 0.15279 0.0
H253 H 0.69404 0.26718 0.1927 0.0
H254 H 0.79486 0.23702 0.27116 0.0
H255 H 0.80482 0.25322 0.31203 0.0
H256 H 0.82664 0.27092 0.27822 0.0
H257 H 0.80609 0.32332 0.29337 0.0
H258 H 0.78391 0.30562 0.32715 0.0
H259 H 0.76035 0.3253 0.29646 0.0
H260 H 0.6626 0.24378 0.23986 0.0
H261 H 0.64583 0.2154 0.28965 0.0
H262 H 0.74751 0.24787 0.33677 0.0
C263 C 0.79027 0.29796 0.2223 0.0
C264 C 0.77957 0.29835 0.1887 0.0
C265 C 0.74445 0.28755 0.1784 0.0
C266 C 0.72053 0.27607 0.20093 0.0
C267 C 0.73196 0.27553 0.2338 0.0
C268 C 0.76604 0.28607 0.24448 0.0
C269 C 0.77254 0.27985 0.28049 0.0
C270 C 0.8014 0.25901 0.28576 0.0
C271 C 0.78123 0.31035 0.30055 0.0
C272 C 0.73727 0.26313 0.28795 0.0
C273 C 0.71393 0.2615 0.26095 0.0
C274 C 0.68047 0.24527 0.26137 0.0
C275 C 0.67107 0.22932 0.28978 0.0
C276 C 0.69531 0.2294 0.31706 0.0
C277 C 0.72832 0.24745 0.31635 0.0
H278 H 0.25463 0.68189 0.23633 0.0
H279 H 0.32036 0.74119 0.17521 0.0
H280 H 0.28334 0.78282 0.18188 0.0
H281 H 0.16917 0.71448 0.21025 0.0
H282 H 0.15519 0.70988 0.25132 0.0
H283 H 0.18093 0.6827 0.23434 0.0
H284 H 0.22613 0.69341 0.28392 0.0
H285 H 0.20057 0.72025 0.30094 0.0
H286 H 0.24547 0.73272 0.29356 0.0
H287 H 0.2496 0.82134 0.20772 0.0
H288 H 0.22283 0.85141 0.24901 0.0
H289 H 0.17579 0.76599 0.28934 0.0
C290 C 0.26022 0.70325 0.2233 0.0
C291 C 0.29001 0.70856 0.20527 0.0
C292 C 0.29724 0.73674 0.18881 0.0
C293 C 0.27629 0.7604 0.19242 0.0
C294 C 0.2477 0.75499 0.21165 0.0
C295 C 0.23918 0.72668 0.22612 0.0
C296 C 0.21029 0.72768 0.24903 0.0
C297 C 0.17691 0.70749 0.2354 0.0
C298 C 0.22132 0.71799 0.28389 0.0
C299 C 0.2062 0.76168 0.24783 0.0
C300 C 0.22718 0.77706 0.22546 0.0
C301 C 0.23205 0.80944 0.22434 0.0
C302 C 0.21662 0.82642 0.24771 0.0
C303 C 0.19698 0.81081 0.27183 0.0
C304 C 0.19008 0.77825 0.2705 0.0
H305 H 0.77128 0.68616 0.24793 0.0
H306 H 0.85429 0.7281 0.31701 0.0
H307 H 0.84497 0.7798 0.2976 0.0
H308 H 0.7875 0.74267 0.18153 0.0
H309 H 0.74169 0.74206 0.17093 0.0
H310 H 0.75778 0.70799 0.18703 0.0
H311 H 0.71496 0.70657 0.23337 0.0
H312 H 0.69861 0.74036 0.21724 0.0
H313 H 0.71529 0.74046 0.25938 0.0
H314 H 0.82214 0.82658 0.27637 0.0
H315 H 0.78555 0.86542 0.25617 0.0
H316 H 0.71859 0.79392 0.19935 0.0
C317 C 0.78795 0.70615 0.25859 0.0
C318 C 0.81355 0.703 0.28399 0.0
C319 C 0.83445 0.72985 0.29758 0.0
C320 C 0.82956 0.75933 0.28652 0.0
C321 C 0.8039 0.76161 0.26168 0.0
C322 C 0.78343 0.73577 0.24784 0.0
C323 C 0.75553 0.74477 0.22369 0.0
C324 C 0.76097 0.73371 0.18872 0.0
C325 C 0.71895 0.73231 0.23406 0.0
C326 C 0.76263 0.77975 0.22711 0.0
C327 C 0.79103 0.78894 0.24879 0.0
C328 C 0.80044 0.81979 0.25874 0.0
C329 C 0.7796 0.84167 0.24714 0.0
C330 C 0.74994 0.83259 0.22568 0.0
C331 C 0.74196 0.80147 0.21473 0.0
H332 H 0.28217 0.75796 0.68179 0.0
H333 H 0.32859 0.84208 0.73455 0.0
H334 H 0.29308 0.82724 0.78135 0.0
H335 H 0.19549 0.75532 0.71022 0.0
H336 H 0.18938 0.71379 0.71381 0.0
H337 H 0.21718 0.73159 0.68378 0.0
H338 H 0.26845 0.70468 0.70789 0.0
H339 H 0.24058 0.6863 0.73742 0.0
H340 H 0.28107 0.70929 0.75106 0.0
H341 H 0.25412 0.80238 0.82302 0.0
H342 H 0.22019 0.76632 0.85891 0.0
H343 H 0.19894 0.69879 0.77898 0.0
C344 C 0.28486 0.77334 0.70315 0.0
C345 C 0.30813 0.80124 0.70446 0.0
C346 C 0.31113 0.8205 0.73304 0.0
C347 C 0.29078 0.81243 0.7596 0.0
C348 C 0.26764 0.78503 0.75721 0.0
C349 C 0.26496 0.76557 0.72989 0.0
C350 C 0.23989 0.73644 0.73429 0.0
C351 C 0.20863 0.73417 0.70902 0.0
C352 C 0.25862 0.70748 0.73258 0.0
C353 C 0.22909 0.74236 0.76855 0.0
C354 C 0.24503 0.77074 0.78116 0.0
C355 C 0.24105 0.78038 0.81323 0.0
C356 C 0.22149 0.75995 0.83332 0.0
C357 C 0.20609 0.73043 0.82119 0.0
C358 C 0.20922 0.72183 0.78824 0.0
H359 H 0.76166 0.75005 0.67026 0.0
H360 H 0.6998 0.67832 0.72204 0.0
H361 H 0.7256 0.7017 0.77473 0.0
H362 H 0.83969 0.75731 0.72813 0.0
H363 H 0.84805 0.79871 0.72391 0.0
H364 H 0.82755 0.77458 0.69007 0.0
H365 H 0.77588 0.80668 0.6873 0.0
H366 H 0.79621 0.83089 0.72101 0.0
H367 H 0.75264 0.81131 0.72352 0.0
H368 H 0.75247 0.7358 0.82143 0.0
H369 H 0.77914 0.77838 0.85921 0.0
H370 H 0.82554 0.82724 0.77797 0.0
C371 C 0.7539 0.73889 0.69262 0.0
C372 C 0.72861 0.71225 0.69187 0.0
C373 C 0.71907 0.69868 0.72183 0.0
C374 C 0.7337 0.71173 0.75193 0.0
C375 C 0.75812 0.73819 0.75174 0.0
C376 C 0.76834 0.75155 0.7229 0.0
C377 C 0.79341 0.78108 0.72958 0.0
C378 C 0.82931 0.7777 0.71718 0.0
C379 C 0.77864 0.80914 0.71446 0.0
C380 C 0.7948 0.78279 0.76671 0.0
C381 C 0.77445 0.75762 0.77895 0.0
C382 C 0.76906 0.75524 0.81222 0.0
C383 C 0.78427 0.77948 0.83347 0.0
C384 C 0.80486 0.80557 0.82145 0.0
C385 C 0.81078 0.807 0.78777 0.0
H386 H 0.77154 0.34696 0.78218 0.0
H387 H 0.66723 0.31432 0.74286 0.0
H388 H 0.69093 0.28196 0.7016 0.0
H389 H 0.81936 0.33733 0.70159 0.0
H390 H 0.85481 0.32442 0.72582 0.0
H391 H 0.8313 0.35366 0.74215 0.0
H392 H 0.81926 0.3201 0.79292 0.0
H393 H 0.84186 0.29067 0.77669 0.0
H394 H 0.79741 0.28102 0.78718 0.0
H395 H 0.72406 0.24262 0.67685 0.0
H396 H 0.76204 0.20145 0.67205 0.0
H397 H 0.8441 0.25804 0.73014 0.0
C398 C 0.754 0.33448 0.76341 0.0
C399 C 0.71782 0.33338 0.76506 0.0
C400 C 0.69513 0.31603 0.74123 0.0
C401 C 0.70847 0.29749 0.71784 0.0
C402 C 0.74444 0.29701 0.71857 0.0
C403 C 0.76697 0.3157 0.74045 0.0
C404 C 0.80329 0.30664 0.74151 0.0
C405 C 0.82869 0.33202 0.72688 0.0
C406 C 0.81612 0.29914 0.77662 0.0
C407 C 0.79702 0.27808 0.71944 0.0
C408 C 0.76343 0.27354 0.70519 0.0
C409 C 0.75067 0.24648 0.68707 0.0
C410 C 0.77232 0.22319 0.68446 0.0
C411 C 0.80582 0.22694 0.70069 0.0
C412 C 0.81864 0.25506 0.71724 0.0
H413 H 0.26381 0.33149 0.76778 0.0
H414 H 0.22714 0.30227 0.66825 0.0
H415 H 0.25291 0.25376 0.67554 0.0
H416 H 0.34617 0.29412 0.7697 0.0
H417 H 0.34192 0.28402 0.81198 0.0
H418 H 0.32635 0.31868 0.79684 0.0
H419 H 0.26552 0.29967 0.81717 0.0
H420 H 0.28062 0.26485 0.8319 0.0
H421 H 0.24325 0.26241 0.80313 0.0
H422 H 0.27226 0.20504 0.69705 0.0
H423 H 0.28919 0.16143 0.72935 0.0
H424 H 0.31518 0.22294 0.81437 0.0
C425 C 0.26208 0.31533 0.74714 0.0
C426 C 0.2434 0.32063 0.71745 0.0
C427 C 0.24155 0.29882 0.69112 0.0
C428 C 0.25606 0.27117 0.69507 0.0
C429 C 0.27287 0.26604 0.72523 0.0
C430 C 0.27662 0.28781 0.7506 0.0
C431 C 0.29319 0.27567 0.78143 0.0
C432 C 0.32904 0.29423 0.79051 0.0
C433 C 0.2692 0.27565 0.81007 0.0
C434 C 0.29655 0.24309 0.76997 0.0
C435 C 0.28494 0.23807 0.7374 0.0
C436 C 0.28224 0.2089 0.72229 0.0
C437 C 0.29162 0.18424 0.74092 0.0
C438 C 0.30368 0.18893 0.77427 0.0
C439 C 0.30667 0.21885 0.78875 0.0
H440 H 0.12501 0.9545 0.28085 0.0
H441 H 0.23616 0.95021 0.28515 0.0
H442 H 0.24396 0.99394 0.24766 0.0
H443 H 0.11569 0.97481 0.19529 0.0
H444 H 0.08463 1.0013 0.20163 0.0
H445 H 0.08718 0.96915 0.22847 0.0
H446 H 0.09687 1.00693 0.2787 0.0
H447 H 0.09429 0.03919 0.25203 0.0
H448 H 0.13196 0.03851 0.27989 0.0
H449 H 0.24025 0.03745 0.20899 0.0
H450 H 0.2258 0.07991 0.17387 0.0
H451 H 0.11722 0.05899 0.19506 0.0
C452 C 0.15096 0.96275 0.27383 0.0
C453 C 0.18 0.94866 0.28603 0.0
C454 C 0.2135 0.96044 0.27634 0.0
C455 C 0.21821 0.98532 0.25491 0.0
C456 C 0.18923 0.99863 0.24336 0.0
C457 C 0.15624 0.988 0.2526 0.0
C458 C 0.12976 1.00722 0.23703 0.0
C459 C 0.10271 0.9869 0.21425 0.0
C460 C 0.11218 0.02395 0.26349 0.0
C461 C 0.15304 0.03016 0.21758 0.0
C462 C 0.1872 0.02451 0.22151 0.0
C463 C 0.2136 0.04213 0.20583 0.0
C464 C 0.20505 0.06626 0.18579 0.0
C465 C 0.17037 0.07302 0.18153 0.0
C466 C 0.144 0.05456 0.19776 0.0
H467 H 0.8251 0.44858 0.18538 0.0
H468 H 0.90418 0.40334 0.23767 0.0
H469 H 0.91097 0.44447 0.28069 0.0
H470 H 0.8674 0.52607 0.20152 0.0
H471 H 0.82773 0.54256 0.20607 0.0
H472 H 0.82738 0.50854 0.18035 0.0
H473 H 0.77915 0.4794 0.21353 0.0
H474 H 0.77944 0.51334 0.23941 0.0
H475 H 0.78618 0.4769 0.25736 0.0
H476 H 0.9101 0.49139 0.31818 0.0
H477 H 0.90388 0.54165 0.34488 0.0
H478 H 0.82705 0.55781 0.26775 0.0
C479 C 0.84358 0.44719 0.20605 0.0
C480 C 0.86396 0.42247 0.2081 0.0
C481 C 0.88822 0.4219 0.2354 0.0
C482 C 0.89222 0.44518 0.26011 0.0
C483 C 0.87197 0.46927 0.25731 0.0
C484 C 0.84826 0.47058 0.23086 0.0
C485 C 0.83099 0.49988 0.23304 0.0
C486 C 0.83885 0.52048 0.20349 0.0
C487 C 0.7916 0.49189 0.23601 0.0
C488 C 0.84882 0.51484 0.26464 0.0
C489 C 0.87211 0.49665 0.27845 0.0
C490 C 0.89187 0.50578 0.30755 0.0
C491 C 0.8881 0.53437 0.32266 0.0
C492 C 0.86499 0.5538 0.30859 0.0
C493 C 0.84492 0.54355 0.2793 0.0
H494 H 0.24142 0.07867 0.91149 0.0
H495 H 0.31262 0.1646 0.91643 0.0
H496 H 0.28425 0.18207 0.96397 0.0
H497 H 0.16526 0.1102 0.93692 0.0
H498 H 0.1507 0.0784 0.96256 0.0
H499 H 0.17548 0.0719 0.92781 0.0
H500 H 0.22082 0.04863 0.96553 0.0
H501 H 0.19593 0.05467 1.00028 0.0
H502 H 0.24114 0.07076 1.00084 0.0
H503 H 0.24726 0.19248 1.00811 0.0
H504 H 0.21049 0.19176 0.05458 0.0
H505 H 0.16464 0.09761 0.02768 0.0
C506 C 0.25112 0.10104 0.92278 0.0
C507 C 0.27942 0.12023 0.90991 0.0
C508 C 0.29134 0.14927 0.92566 0.0
C509 C 0.27513 0.15961 0.95262 0.0
C510 C 0.24718 0.14056 0.96431 0.0
C511 C 0.23567 0.11157 0.95062 0.0
C512 C 0.20625 0.09536 0.96985 0.0
C513 C 0.17242 0.08856 0.94797 0.0
C514 C 0.21666 0.06559 0.98503 0.0
C515 C 0.20318 0.11992 0.99627 0.0
C516 C 0.22672 0.14594 0.99182 0.0
C517 C 0.22901 0.17211 0.01212 0.0
C518 C 0.20775 0.17144 0.03853 0.0
C519 C 0.18463 0.14459 0.04524 0.0
C520 C 0.1818 0.11858 0.02325 0.0
H521 H 0.81552 0.33355 0.03835 0.0
H522 H 0.84094 0.42964 0.07004 0.0
H523 H 0.803 0.44506 0.02373 0.0
H524 H 0.81323 0.34871 0.94913 0.0
H525 H 0.77834 0.31758 0.94021 0.0
H526 H 0.80911 0.31516 0.97456 0.0
H527 H 0.75809 0.30635 0.01272 0.0
H528 H 0.72723 0.3096 0.97867 0.0
H529 H 0.72814 0.33456 0.01441 0.0
H530 H 0.75562 0.44863 0.97714 0.0
H531 H 0.71343 0.44146 0.9286 0.0
H532 H 0.72309 0.34351 0.92532 0.0
C533 C 0.81394 0.35794 0.03491 0.0
C534 C 0.83156 0.38047 0.05755 0.0
C535 C 0.82835 0.41209 0.0526 0.0
C536 C 0.80644 0.42098 0.02659 0.0
C537 C 0.78841 0.39801 1.00536 0.0
C538 C 0.79288 0.36721 1.00872 0.0
C539 C 0.77101 0.34695 0.98258 0.0
C540 C 0.79431 0.33118 0.96029 0.0
C541 C 0.74456 0.32295 0.99803 0.0
C542 C 0.75295 0.37096 0.96426 0.0
C543 C 0.76282 0.40025 0.97802 0.0
C544 C 0.74819 0.42583 0.966 0.0
C545 C 0.7239 0.42151 0.93864 0.0
C546 C 0.71488 0.39195 0.92322 0.0
C547 C 0.72944 0.3664 0.93657 0.0
H548 H 0.31441 0.83239 0.54577 0.0
H549 H 0.34896 0.92942 0.56891 0.0
H550 H 0.31035 0.94409 0.52286 0.0
H551 H 0.31072 0.84121 0.45636 0.0
H552 H 0.27345 0.81198 0.44968 0.0
H553 H 0.30395 0.80967 0.48426 0.0
H554 H 0.25345 0.80755 0.52304 0.0
H555 H 0.22291 0.81049 0.48863 0.0
H556 H 0.22635 0.83813 0.52237 0.0
H557 H 0.26309 0.94783 0.47677 0.0
H558 H 0.22076 0.94045 0.42838 0.0
H559 H 0.22156 0.84119 0.43225 0.0
C560 C 0.31427 0.85672 0.54076 0.0
C561 C 0.3348 0.87979 0.56088 0.0
C562 C 0.33383 0.91136 0.5536 0.0
C563 C 0.31166 0.91989 0.52768 0.0
C564 C 0.29109 0.89658 0.50878 0.0
C565 C 0.29301 0.86562 0.51444 0.0
C566 C 0.26935 0.84503 0.48978 0.0
C567 C 0.29064 0.82585 0.46877 0.0
C568 C 0.24136 0.82407 0.50699 0.0
C569 C 0.25342 0.86916 0.4696 0.0
C570 C 0.26574 0.89878 0.48129 0.0
C571 C 0.25365 0.92473 0.46724 0.0
C572 C 0.22932 0.92034 0.43997 0.0
C573 C 0.21783 0.8903 0.42658 0.0
C574 C 0.22988 0.86446 0.44193 0.0
H575 H 0.72931 0.66501 0.54025 0.0
H576 H 0.63579 0.59892 0.52414 0.0
H577 H 0.65627 0.58277 0.47114 0.0
H578 H 0.73721 0.68723 0.45517 0.0
H579 H 0.78401 0.69028 0.45811 0.0
H580 H 0.76109 0.69747 0.49386 0.0
H581 H 0.79124 0.65596 0.52496 0.0
H582 H 0.81394 0.64838 0.48918 0.0
H583 H 0.78747 0.61716 0.50783 0.0
H584 H 0.6879 0.57296 0.42016 0.0
H585 H 0.72663 0.57149 0.37469 0.0
H586 H 0.80059 0.6431 0.42447 0.0
C587 C 0.71285 0.64743 0.5254 0.0
C588 C 0.6807 0.63338 0.53639 0.0
C589 C 0.66033 0.61018 0.51627 0.0
C590 C 0.67185 0.60078 0.48614 0.0
C591 C 0.70395 0.61466 0.47637 0.0
C592 C 0.72409 0.63762 0.49535 0.0
C593 C 0.75789 0.64842 0.47957 0.0
C594 C 0.76017 0.68289 0.47118 0.0
C595 C 0.7895 0.6421 0.50171 0.0
C596 C 0.7537 0.62795 0.44874 0.0
C597 C 0.72237 0.60868 0.44737 0.0
C598 C 0.71247 0.58797 0.42106 0.0
C599 C 0.73478 0.58727 0.39529 0.0
C600 C 0.76694 0.60702 0.39582 0.0
C601 C 0.7765 0.62739 0.42329 0.0
H602 H 0.94122 0.28648 0.06795 0.0
H603 H 0.92509 0.28653 0.1719 0.0
H604 H 0.97255 0.25428 0.18135 0.0
H605 H 0.9639 0.20972 0.05931 0.0
H606 H 0.99798 0.22004 0.03195 0.0
H607 H 0.96206 0.24227 0.03286 0.0
H608 H 1.00476 0.29253 0.04508 0.0
H609 H 0.04081 0.27053 0.04362 0.0
H610 H 0.03643 0.29409 0.0794 0.0
H611 H 0.01928 0.21822 0.17873 0.0
H612 H 0.06946 0.19123 0.16656 0.0
H613 H 0.06081 0.21977 0.06565 0.0
C614 C 0.94796 0.27993 0.09273 0.0
C615 C 0.92931 0.28907 0.11924 0.0
C616 C 0.9391 0.2801 0.15128 0.0
C617 C 0.96585 0.26149 0.15683 0.0
C618 C 0.98338 0.25247 0.13018 0.0
C619 C 0.97553 0.26219 0.09888 0.0
C620 C 1.00005 0.25104 0.07493 0.0
C621 C 0.97978 0.22949 0.04818 0.0
C622 C 0.0218 0.27869 0.05987 0.0
C623 C 0.02261 0.23329 0.09752 0.0
C624 C 0.01197 0.23375 0.12915 0.0
C625 C 0.028 0.21803 0.1541 0.0
C626 C 0.0563 0.2024 0.14688 0.0
C627 C 0.06908 0.20309 0.11513 0.0
C628 C 0.0516 0.21859 0.09012 0.0
H629 H 0.97721 0.67627 0.32879 0.0
H630 H 0.909 0.72242 0.38724 0.0
H631 H 0.95422 0.76784 0.39522 0.0
H632 H 0.0552 0.70253 0.37986 0.0
H633 H 0.08302 0.70662 0.34606 0.0
H634 H 0.04448 0.67856 0.34334 0.0
H635 H 0.0233 0.70323 0.28979 0.0
H636 H 0.06168 0.73152 0.29253 0.0
H637 H 0.01919 0.74399 0.28978 0.0
H638 H 1.00691 0.8097 0.3952 0.0
H639 H 0.06525 0.84076 0.39347 0.0
H640 H 0.10087 0.7656 0.33983 0.0
C641 C 0.97185 0.69598 0.3432 0.0
C642 C 0.93946 0.6958 0.35729 0.0
C643 C 0.93364 0.72192 0.37634 0.0
C644 C 0.95911 0.74797 0.38083 0.0
C645 C 0.99075 0.74752 0.36663 0.0
C646 C 0.99746 0.72195 0.3487 0.0
C647 C 0.03443 0.72662 0.33786 0.0
C648 C 0.05552 0.70213 0.35267 0.0
C649 C 0.03464 0.72632 0.30026 0.0
C650 C 0.04735 0.75871 0.35239 0.0
C651 C 0.0216 0.7707 0.36836 0.0
C652 C 0.02733 0.8004 0.38296 0.0
C653 C 0.06042 0.81798 0.38176 0.0
C654 C 0.08749 0.80552 0.3667 0.0
C655 C 0.08062 0.77561 0.35169 0.0
H656 H 0.55048 0.68783 0.59275 0.0
H657 H 0.62983 0.7623 0.62837 0.0
H658 H 0.58497 0.79627 0.63586 0.0
H659 H 0.49812 0.73651 0.54686 0.0
H660 H 0.45681 0.71565 0.55614 0.0
H661 H 0.49461 0.69578 0.55546 0.0
H662 H 0.48564 0.67785 0.61474 0.0
H663 H 0.44765 0.6975 0.6155 0.0
H664 H 0.48262 0.70626 0.64665 0.0
H665 H 0.53238 0.82327 0.63857 0.0
H666 H 0.47483 0.8415 0.63605 0.0
H667 H 0.42776 0.75139 0.59685 0.0
C668 C 0.5582 0.7111 0.60261 0.0
C669 C 0.59385 0.72229 0.61017 0.0
C670 C 0.60283 0.75315 0.62241 0.0
C671 C 0.57748 0.77271 0.62679 0.0
C672 C 0.5428 0.76141 0.61862 0.0
C673 C 0.53294 0.73137 0.60678 0.0
C674 C 0.49371 0.72588 0.59879 0.0
C675 C 0.48533 0.71799 0.56213 0.0
C676 C 0.47638 0.70036 0.6202 0.0
C677 C 0.4834 0.75745 0.60783 0.0
C678 C 0.51222 0.77745 0.61942 0.0
C679 C 0.50958 0.80779 0.62952 0.0
C680 C 0.47665 0.818 0.62797 0.0
C681 C 0.44646 0.79815 0.61611 0.0
C682 C 0.45018 0.7674 0.60581 0.0
H683 H 0.85178 0.04308 0.7054 0.0
H684 H 0.88969 0.11739 0.7754 0.0
H685 H 0.89587 0.07905 0.81869 0.0
H686 H 0.79888 1.0 0.76015 0.0
H687 H 0.8058 0.96246 0.74465 0.0
H688 H 0.8092 0.99515 0.71813 0.0
H689 H 0.87145 0.98558 0.70547 0.0
H690 H 0.86823 0.95281 0.732 0.0
H691 H 0.9037 0.98379 0.73878 0.0
H692 H 0.89517 0.03257 0.85534 0.0
H693 H 0.88254 0.98248 0.88315 0.0
H694 H 0.8406 0.93857 0.79084 0.0
C695 C 0.86229 0.05112 0.72965 0.0
C696 C 0.87106 0.08319 0.73691 0.0
C697 C 0.88332 0.09294 0.76923 0.0
C698 C 0.88696 0.07129 0.79396 0.0
C699 C 0.87763 0.03985 0.78624 0.0
C700 C 0.86521 0.02977 0.75491 0.0
C701 C 0.85356 0.99501 0.75394 0.0
C702 C 0.81455 0.98774 0.74361 0.0
C703 C 0.87555 0.97832 0.73119 0.0
C704 C 0.86098 0.9872 0.78959 0.0
C705 C 0.87552 0.0133 0.80769 0.0
C706 C 0.88401 0.01198 0.84132 0.0
C707 C 0.87693 0.98345 0.85693 0.0
C708 C 0.86113 0.95669 0.83906 0.0
C709 C 0.85326 0.95863 0.80494 0.0
H710 H 0.20454 0.55932 0.8482 0.0
H711 H 0.11709 0.60148 0.80673 0.0
H712 H 0.10535 0.55931 0.76468 0.0
H713 H 0.23476 0.53491 0.77395 0.0
H714 H 0.24637 0.49876 0.78907 0.0
H715 H 0.24668 0.53126 0.8169 0.0
H716 H 0.20439 0.49804 0.85299 0.0
H717 H 0.20414 0.46533 0.82537 0.0
H718 H 0.16376 0.47866 0.83467 0.0
H719 H 0.10682 0.51459 0.72352 0.0
H720 H 0.11827 0.46906 0.69057 0.0
H721 H 0.20238 0.45486 0.76104 0.0
C722 C 0.18261 0.55952 0.83057 0.0
C723 C 0.16176 0.58386 0.8309 0.0
C724 C 0.13334 0.58308 0.80726 0.0
C725 C 0.12653 0.55924 0.78313 0.0
C726 C 0.14802 0.53596 0.78314 0.0
C727 C 0.17514 0.53567 0.80663 0.0
C728 C 0.19456 0.50819 0.8012 0.0
C729 C 0.23285 0.51893 0.7949 0.0
C730 C 0.19152 0.48626 0.83029 0.0
C731 C 0.17464 0.49339 0.77063 0.0
C732 C 0.14797 0.50977 0.76041 0.0
C733 C 0.12731 0.50135 0.73164 0.0
C734 C 0.13403 0.47552 0.713 0.0
C735 C 0.16092 0.45817 0.72336 0.0
C736 C 0.18124 0.4673 0.75269 0.0
H737 H 0.70656 0.8733 0.0695 0.0
H738 H 0.78036 0.93411 0.13292 0.0
H739 H 0.82164 0.93885 0.08916 0.0
H740 H 0.76855 0.83273 0.03232 0.0
H741 H 0.74633 0.83002 0.99215 0.0
H742 H 0.72203 0.83227 0.02802 0.0
H743 H 0.69661 0.88017 1.00497 0.0
H744 H 0.72085 0.87806 0.96899 0.0
H745 H 0.72572 0.91337 0.99342 0.0
H746 H 0.85674 0.9346 0.0391 0.0
H747 H 0.88132 0.92298 0.98645 0.0
H748 H 0.78415 0.86664 0.9548 0.0
C749 C 0.73127 0.88784 0.0741 0.0
C750 C 0.74007 0.90337 0.10481 0.0
C751 C 0.77282 0.92204 0.1097 0.0
C752 C 0.79655 0.92487 0.08493 0.0
C753 C 0.78723 0.90909 0.05509 0.0
C754 C 0.75525 0.89111 0.04948 0.0
C755 C 0.75183 0.87627 0.01534 0.0
C756 C 0.7469 0.84072 0.01708 0.0
C757 C 0.72198 0.88766 0.99445 0.0
C758 C 0.78696 0.88839 1.0028 0.0
C759 C 0.80706 0.90725 0.02611 0.0
C760 C 0.84104 0.92011 0.02057 0.0
C761 C 0.85483 0.91339 0.99057 0.0
C762 C 0.83468 0.89417 0.96629 0.0
C763 C 0.80017 0.88179 0.9726 0.0
H764 H 0.23312 0.66849 0.95376 0.0
H765 H 0.13722 0.6137 0.97858 0.0
H766 H 0.16711 0.59839 0.03002 0.0
H767 H 0.2928 0.61719 0.98673 0.0
H768 H 0.32494 0.64882 1.00148 0.0
H769 H 0.29648 0.65356 0.96595 0.0
H770 H 0.27654 0.7015 0.99383 0.0
H771 H 0.30493 0.69695 0.02938 0.0
H772 H 0.25919 0.6979 0.0337 0.0
H773 H 0.20765 0.59121 0.08025 0.0
H774 H 0.25373 0.594 0.12504 0.0
H775 H 0.32267 0.6542 0.06699 0.0
C776 C 0.21837 0.65295 0.96976 0.0
C777 C 0.18277 0.64213 0.96199 0.0
C778 C 0.16449 0.62217 0.9839 0.0
C779 C 0.18131 0.61334 0.01315 0.0
C780 C 0.21642 0.62468 0.02011 0.0
C781 C 0.23467 0.64409 0.99896 0.0
C782 C 0.27166 0.65435 0.0126 0.0
C783 C 0.29802 0.64278 0.99037 0.0
C784 C 0.27846 0.68977 0.01768 0.0
C785 C 0.27145 0.63802 0.04504 0.0
C786 C 0.23945 0.6208 0.04885 0.0
C787 C 0.2328 0.60447 0.07734 0.0
C788 C 0.25923 0.60616 0.10267 0.0
C789 C 0.29199 0.62417 0.09956 0.0
C790 C 0.29813 0.63995 0.07008 0.0
H791 H 0.66011 0.14932 0.50012 0.0
H792 H 0.72782 0.12756 0.42507 0.0
H793 H 0.77078 0.11455 0.46739 0.0
H794 H 0.72548 0.18682 0.55394 0.0
H795 H 0.70772 0.17276 0.59143 0.0
H796 H 0.67925 0.17577 0.55555 0.0
H797 H 0.65493 0.11773 0.55881 0.0
H798 H 0.68318 0.11458 0.59494 0.0
H799 H 0.68449 0.08908 0.55998 0.0
H800 H 0.81024 0.11179 0.51651 0.0
H801 H 0.84274 0.11628 0.57055 0.0
H802 H 0.75063 0.13765 0.61613 0.0
C803 C 0.68341 0.14067 0.49273 0.0
C804 C 0.69041 0.1391 0.45917 0.0
C805 C 0.72178 0.12883 0.45047 0.0
C806 C 0.74639 0.1213 0.47442 0.0
C807 C 0.73946 0.12408 0.50724 0.0
C808 C 0.70862 0.13316 0.51661 0.0
C809 C 0.70934 0.13663 0.55382 0.0
C810 C 0.70521 0.16998 0.56428 0.0
C811 C 0.68131 0.1131 0.56771 0.0
C812 C 0.7457 0.12905 0.56359 0.0
C813 C 0.76242 0.12175 0.53619 0.0
C814 C 0.79718 0.1167 0.53825 0.0
C815 C 0.81548 0.11938 0.56903 0.0
C816 C 0.79903 0.12662 0.59754 0.0
C817 C 0.7635 0.1311 0.59483 0.0
H818 H 0.2803 0.39077 0.61711 0.0
H819 H 0.18405 0.41416 0.57102 0.0
H820 H 0.21176 0.42107 0.51834 0.0
H821 H 0.34173 0.44131 0.56877 0.0
H822 H 0.37101 0.41273 0.56532 0.0
H823 H 0.34556 0.41363 0.60067 0.0
H824 H 0.32021 0.35616 0.58957 0.0
H825 H 0.34575 0.35505 0.5544 0.0
H826 H 0.29924 0.34447 0.54993 0.0
H827 H 0.24775 0.42256 0.47042 0.0
H828 H 0.28743 0.41268 0.42806 0.0
H829 H 0.36086 0.38518 0.50255 0.0
C830 C 0.26546 0.39802 0.59599 0.0
C831 C 0.2302 0.40258 0.59815 0.0
C832 C 0.21113 0.41091 0.56987 0.0
C833 C 0.22673 0.41503 0.53992 0.0
C834 C 0.26139 0.41021 0.5384 0.0
C835 C 0.2805 0.40146 0.56549 0.0
C836 C 0.31604 0.39442 0.55598 0.0
C837 C 0.34532 0.41687 0.57375 0.0
C838 C 0.32056 0.36051 0.56287 0.0
C839 C 0.31368 0.40021 0.51929 0.0
C840 C 0.28206 0.40986 0.51001 0.0
C841 C 0.27267 0.41524 0.47742 0.0
C842 C 0.29547 0.40958 0.45348 0.0
C843 C 0.32744 0.3985 0.46191 0.0
C844 C 0.33707 0.39449 0.49544 0.0
H845 H 0.09216 0.76064 0.89051 0.0
H846 H 0.02937 0.67054 0.88279 0.0
H847 H 0.97614 0.69547 0.88599 0.0
H848 H 0.03927 0.79817 0.94528 0.0
H849 H 0.04425 0.83469 0.9248 0.0
H850 H 0.07792 0.80995 0.92396 0.0
H851 H 0.07394 0.81022 0.86052 0.0
H852 H 0.04031 0.835 0.86118 0.0
H853 H 0.03255 0.79869 0.83841 0.0
H854 H 0.9298 0.72958 0.89226 0.0
H855 H 0.89235 0.77106 0.89436 0.0
H856 H 0.98317 0.8403 0.89188 0.0
C857 C 0.06717 0.74626 0.88977 0.0
C858 C 0.06492 0.71354 0.88679 0.0
C859 C 0.03173 0.69555 0.88516 0.0
C860 C 1.00133 0.70952 0.88707 0.0
C861 C 1.00429 0.74171 0.8899 0.0
C862 C 0.03625 0.75998 0.89066 0.0
C863 C 0.03163 0.7942 0.89171 0.0
C864 C 0.04932 0.81019 0.92332 0.0
C865 C 0.04543 0.81048 0.86113 0.0
C866 C 0.99218 0.79221 0.89163 0.0
C867 C 0.97711 0.76162 0.89118 0.0
C868 C 0.94128 0.75361 0.89231 0.0
C869 C 0.92021 0.77737 0.89364 0.0
C870 C 0.93471 0.80892 0.89311 0.0
C871 C 0.97128 0.81639 0.892 0.0
H872 H 0.0775 0.32003 0.75236 0.0
H873 H 0.09127 0.32746 0.64806 0.0
H874 H 0.04409 0.28396 0.63694 0.0
H875 H 0.06167 0.23772 0.75368 0.0
H876 H 0.02945 0.23659 0.78368 0.0
H877 H 0.06333 0.26903 0.78338 0.0
H878 H 0.0172 0.30688 0.77837 0.0
H879 H 0.9832 0.27459 0.77918 0.0
H880 H 0.98351 0.30101 0.74568 0.0
H881 H 0.99543 0.238 0.63754 0.0
H882 H 0.94787 0.19698 0.64963 0.0
H883 H 0.96723 0.21956 0.75355 0.0
C884 C 0.07043 0.31287 0.72709 0.0
C885 C 0.08828 0.3275 0.70111 0.0
C886 C 0.07807 0.31694 0.66847 0.0
C887 C 0.05134 0.29206 0.66189 0.0
C888 C 0.03488 0.27779 0.68816 0.0
C889 C 0.0439 0.28805 0.72009 0.0
C890 C 0.02236 0.26883 0.74402 0.0
C891 C 0.0456 0.25205 0.76758 0.0
C892 C 1.00025 0.28903 0.76292 0.0
C893 C 0.99981 0.24607 0.72065 0.0
C894 C 1.00739 0.2515 0.68851 0.0
C895 C 0.98938 0.2336 0.66267 0.0
C896 C 0.96246 0.21016 0.66981 0.0
C897 C 0.95366 0.20464 0.70257 0.0
C898 C 0.97324 0.22272 0.72821 0.0
H899 H 0.58949 0.25906 0.39175 0.0
H900 H 0.52887 0.16899 0.40047 0.0
H901 H 0.47585 0.19397 0.40571 0.0
H902 H 0.5423 0.30304 0.44653 0.0
H903 H 0.54406 0.33648 0.42098 0.0
H904 H 0.57794 0.31194 0.42053 0.0
H905 H 0.567 0.30415 0.35766 0.0
H906 H 0.53313 0.32869 0.35791 0.0
H907 H 0.52385 0.28993 0.34061 0.0
H908 H 0.42942 0.22859 0.41108 0.0
H909 H 0.39143 0.26982 0.40993 0.0
H910 H 0.47996 0.33774 0.3921 0.0
C911 C 0.56508 0.24474 0.3952 0.0
C912 C 0.56335 0.21205 0.39625 0.0
C913 C 0.5308 0.19402 0.39984 0.0
C914 C 0.50056 0.20803 0.40292 0.0
C915 C 0.50296 0.24021 0.40164 0.0
C916 C 0.53425 0.25838 0.39734 0.0
C917 C 0.52893 0.29228 0.39435 0.0
C918 C 0.54954 0.31211 0.42226 0.0
C919 C 0.53881 0.30447 0.36062 0.0
C920 C 0.4899 0.2903 0.39783 0.0
C921 C 0.47562 0.26005 0.40256 0.0
C922 C 0.4403 0.25232 0.40719 0.0
C923 C 0.4189 0.27596 0.40662 0.0
C924 C 0.43255 0.30704 0.40084 0.0
C925 C 0.46865 0.3142 0.39642 0.0
H926 H 0.6194 0.5656 0.69072 0.0
H927 H 0.72955 0.58914 0.67694 0.0
H928 H 0.74288 0.54814 0.71436 0.0
H929 H 0.62832 0.54563 0.77705 0.0
H930 H 0.59429 0.51315 0.77359 0.0
H931 H 0.59268 0.54531 0.7466 0.0
H932 H 0.58843 0.50785 0.69628 0.0
H933 H 0.59 0.47559 0.72312 0.0
H934 H 0.62116 0.4825 0.69229 0.0
H935 H 0.74541 0.50548 0.75333 0.0
H936 H 0.73665 0.46087 0.78941 0.0
H937 H 0.62485 0.46097 0.77745 0.0
C938 C 0.64628 0.56216 0.69578 0.0
C939 C 0.67344 0.58081 0.6808 0.0
C940 C 0.70823 0.57525 0.68785 0.0
C941 C 0.71615 0.55201 0.70925 0.0
C942 C 0.68903 0.53397 0.72342 0.0
C943 C 0.65473 0.53843 0.71689 0.0
C944 C 0.63074 0.51461 0.73471 0.0
C945 C 0.6103 0.53064 0.75946 0.0
C946 C 0.60613 0.49391 0.71013 0.0
C947 C 0.65699 0.49628 0.75215 0.0
C948 C 0.69044 0.50822 0.7454 0.0
C949 C 0.71932 0.49584 0.75872 0.0
C950 C 0.71404 0.47044 0.77932 0.0
C951 C 0.6801 0.45719 0.78638 0.0
C952 C 0.65115 0.47043 0.77252 0.0
H953 H 0.32534 0.05147 0.77845 0.0
H954 H 0.41799 0.04978 0.84284 0.0
H955 H 0.42944 1.00186 0.81418 0.0
H956 H 0.29983 0.96697 0.77191 0.0
H957 H 0.28457 0.96826 0.72947 0.0
H958 H 0.28257 1.00084 0.75672 0.0
H959 H 0.31789 0.03677 0.7174 0.0
H960 H 0.32033 1.0043 0.69022 0.0
H961 H 0.35964 0.02778 0.70613 0.0
H962 H 0.43329 0.95647 0.77484 0.0
H963 H 0.42737 0.91576 0.73137 0.0
H964 H 0.33127 0.94633 0.69314 0.0
C965 C 0.34774 0.04076 0.787 0.0
C966 C 0.37072 0.05444 0.81313 0.0
C967 C 0.39984 0.03969 0.82321 0.0
C968 C 0.40661 0.01251 0.80691 0.0
C969 C 0.38387 1.00014 0.78071 0.0
C970 C 0.35475 0.01361 0.77113 0.0
C971 C 0.33486 0.99632 0.74171 0.0
C972 C 0.29829 0.98226 0.75049 0.0
C973 C 0.33309 0.01756 0.71212 0.0
C974 C 0.35761 0.97124 0.73574 0.0
C975 C 0.38577 0.97387 0.7585 0.0
C976 C 0.41112 0.95409 0.75719 0.0
C977 C 0.40757 0.93104 0.73223 0.0
C978 C 0.37879 0.92763 0.70875 0.0
C979 C 0.35344 0.94807 0.71077 0.0
H980 H 0.48039 0.17365 0.8306 0.0
H981 H 0.40343 0.23232 0.85511 0.0
H982 H 0.44884 0.27792 0.85932 0.0
H983 H 0.54678 0.2103 0.88828 0.0
H984 H 0.5822 0.20642 0.86269 0.0
H985 H 0.54323 0.17892 0.85842 0.0
H986 H 0.53617 0.19068 0.79664 0.0
H987 H 0.57521 0.21815 0.80072 0.0
H988 H 0.53511 0.2301 0.78423 0.0
H989 H 0.50326 0.31769 0.86067 0.0
H990 H 0.56271 0.34699 0.86375 0.0
H991 H 0.60501 0.26182 0.84359 0.0
C992 C 0.47315 0.19622 0.83632 0.0
C993 C 0.4383 0.19959 0.84207 0.0
C994 C 0.42994 0.22931 0.85041 0.0
C995 C 0.45556 0.25537 0.8528 0.0
C996 C 0.48978 0.25136 0.8474 0.0
C997 C 0.4987 0.22246 0.83968 0.0
C998 C 0.53778 0.22417 0.83746 0.0
C999 C 0.55341 0.20374 0.86325 0.0
C1000 C 0.54658 0.21525 0.80269 0.0
C1001 C 0.54934 0.25839 0.84515 0.0
C1002 C 0.52123 0.27382 0.85027 0.0
C1003 C 0.52549 0.30576 0.85692 0.0
C1004 C 0.55933 0.32227 0.8586 0.0
C1005 C 0.58861 0.30675 0.85439 0.0
C1006 C 0.58326 0.27436 0.84749 0.0
H1007 H 0.33888 0.58546 0.26244 0.0
H1008 H 0.41684 0.56024 0.19931 0.0
H1009 H 0.42502 0.51541 0.23438 0.0
H1010 H 0.37747 0.56187 0.34034 0.0
H1011 H 0.3359 0.54695 0.35505 0.0
H1012 H 0.33906 0.57854 0.327 0.0
H1013 H 0.29251 0.54719 0.2871 0.0
H1014 H 0.28913 0.5156 0.31503 0.0
H1015 H 0.29908 0.50901 0.27321 0.0
H1016 H 0.42289 0.47175 0.27649 0.0
H1017 H 0.40683 0.43161 0.31712 0.0
H1018 H 0.32779 0.48442 0.35013 0.0
C1019 C 0.35817 0.57086 0.25626 0.0
C1020 C 0.37762 0.57669 0.22831 0.0
C1021 C 0.40187 0.55645 0.22071 0.0
C1022 C 0.40672 0.53095 0.24058 0.0
C1023 C 0.38685 0.52574 0.26784 0.0
C1024 C 0.36283 0.54509 0.27544 0.0
C1025 C 0.34262 0.53324 0.3043 0.0
C1026 C 0.34917 0.55654 0.33339 0.0
C1027 C 0.30353 0.52582 0.2943 0.0
C1028 C 0.35869 0.50402 0.31172 0.0
C1029 C 0.38459 0.50028 0.29085 0.0
C1030 C 0.4027 0.47461 0.29294 0.0
C1031 C 0.39353 0.45195 0.31629 0.0
C1032 C 0.36607 0.45472 0.33701 0.0
C1033 C 0.34896 0.4815 0.33482 0.0
H1034 H 0.70654 0.06423 0.34232 0.0
H1035 H 0.6101 0.09879 0.31207 0.0
H1036 H 0.59752 0.05664 0.26987 0.0
H1037 H 0.72929 0.04341 0.26324 0.0
H1038 H 0.74702 1.00905 0.27625 0.0
H1039 H 0.74753 0.04118 0.30462 0.0
H1040 H 0.71441 1.00509 0.34536 0.0
H1041 H 0.71409 0.97278 0.31724 0.0
H1042 H 0.67379 0.98229 0.3317 0.0
H1043 H 0.59856 0.01212 0.22698 0.0
H1044 H 0.61013 0.96703 0.19303 0.0
H1045 H 0.70381 0.96103 0.25445 0.0
C1046 C 0.68252 0.06281 0.32714 0.0
C1047 C 0.65933 0.08497 0.33066 0.0
C1048 C 0.62821 0.08206 0.31013 0.0
C1049 C 0.62094 0.05825 0.2859 0.0
C1050 C 0.6448 0.03721 0.28266 0.0
C1051 C 0.67469 0.03906 0.30319 0.0
C1052 C 0.69627 0.01379 0.29497 0.0
C1053 C 0.73214 0.0277 0.28413 0.0
C1054 C 0.69983 0.99221 0.32404 0.0
C1055 C 0.67401 0.99736 0.26659 0.0
C1056 C 0.64461 0.01131 0.25937 0.0
C1057 C 0.62129 1.00083 0.23282 0.0
C1058 C 0.62807 0.97531 0.21355 0.0
C1059 C 0.65757 0.96027 0.22133 0.0
C1060 C 0.68067 0.97165 0.24819 0.0
H1061 H 0.57485 0.8209 0.24929 0.0
H1062 H 0.59163 0.82709 0.14545 0.0
H1063 H 0.54414 0.78382 0.13381 0.0
H1064 H 0.55831 0.7386 0.25124 0.0
H1065 H 0.52553 0.7381 0.28064 0.0
H1066 H 0.55982 0.77022 0.28054 0.0
H1067 H 0.51422 0.80848 0.27427 0.0
H1068 H 0.4798 0.77652 0.27475 0.0
H1069 H 0.48117 0.8027 0.24102 0.0
H1070 H 0.49445 0.73836 0.13404 0.0
H1071 H 0.4467 0.69739 0.14587 0.0
H1072 H 0.46417 0.721 0.24969 0.0
C1073 C 0.56845 0.81351 0.22399 0.0
C1074 C 0.58714 0.82776 0.19829 0.0
C1075 C 0.57777 0.81686 0.16563 0.0
C1076 C 0.55084 0.79214 0.15878 0.0
C1077 C 0.53343 0.77836 0.18481 0.0
C1078 C 0.54184 0.78885 0.21675 0.0
C1079 C 0.51961 0.77006 0.24048 0.0
C1080 C 0.54217 0.75325 0.26465 0.0
C1081 C 0.49738 0.79067 0.2587 0.0
C1082 C 0.49725 0.74729 0.217 0.0
C1083 C 0.50554 0.75235 0.18497 0.0
C1084 C 0.48788 0.73428 0.15908 0.0
C1085 C 0.4608 0.7109 0.16607 0.0
C1086 C 0.45152 0.7056 0.19875 0.0
C1087 C 0.47052 0.72403 0.22442 0.0
loop_
_geom_bond_atom_site_label_1
_geom_bond_atom_site_label_2
_geom_bond_distance
_geom_bond_site_symmetry_2
_ccdc_geom_bond_type
Co0 O1 2.216 . S
Co0 O2 2.091 . S
Co0 O4 2.004 . S
Co0 O10 2.021 . S
Co0 O12 2.137 . S
Co0 O13 2.244 . S
O1 Co0 2.216 . S
O1 C8 1.247 . S
O2 Co0 2.091 . S
O2 C8 1.261 . S
C3 O12 1.247 . S
C3 O13 1.272 . S
O4 Co0 2.004 . S
O4 C9 1.259 . S
Co5 O6 2.061 . S
Co5 O11 2.052 . S
Co5 O13 2.135 . S
O6 Co5 2.061 . S
O6 C9 1.235 . S
C7 O10 1.238 . S
C7 O11 1.241 . S
C8 O1 1.247 . S
C8 O2 1.261 . S
C9 O4 1.259 . S
C9 O6 1.235 . S
O10 Co0 2.021 . S
O10 C7 1.238 . S
O11 Co5 2.052 . S
O11 C7 1.241 . S
O12 Co0 2.137 . S
O12 C3 1.247 . S
O13 Co0 2.244 . S
O13 C3 1.272 . S
O13 Co5 2.135 . S
Co14 O15 2.216 . S
Co14 O16 2.091 . S
Co14 O18 2.004 . S
Co14 O24 2.021 . S
Co14 O26 2.137 . S
Co14 O27 2.244 . S
O15 Co14 2.216 . S
O15 C22 1.247 . S
O16 Co14 2.091 . S
O16 C22 1.261 . S
C17 O26 1.247 . S
C17 O27 1.272 . S
O18 Co14 2.004 . S
O18 C23 1.259 . S
Co19 O20 2.061 . S
Co19 O25 2.052 . S
Co19 O27 2.135 . S
O20 Co19 2.061 . S
O20 C23 1.235 . S
C21 O24 1.238 . S
C21 O25 1.241 . S
C22 O15 1.247 . S
C22 O16 1.261 . S
C23 O18 1.259 . S
C23 O20 1.235 . S
O24 Co14 2.021 . S
O24 C21 1.238 . S
O25 Co19 2.052 . S
O25 C21 1.241 . S
O26 Co14 2.137 . S
O26 C17 1.247 . S
O27 Co14 2.244 . S
O27 C17 1.272 . S
O27 Co19 2.135 . S
Co28 O29 2.216 . S
Co28 O30 2.091 . S
Co28 O32 2.004 . S
Co28 O38 2.021 . S
Co28 O40 2.137 . S
Co28 O41 2.244 . S
O29 Co28 2.216 . S
O29 C36 1.247 . S
O30 Co28 2.091 . S
O30 C36 1.261 . S
C31 O40 1.247 . S
C31 O41 1.272 . S
O32 Co28 2.004 . S
O32 C37 1.259 . S
Co33 O34 2.061 . S
Co33 O39 2.052 . S
Co33 O41 2.135 . S
O34 Co33 2.061 . S
O34 C37 1.235 . S
C35 O38 1.238 . S
C35 O39 1.241 . S
C36 O29 1.247 . S
C36 O30 1.261 . S
C37 O32 1.259 . S
C37 O34 1.235 . S
O38 Co28 2.021 . S
O38 C35 1.238 . S
O39 Co33 2.052 . S
O39 C35 1.241 . S
O40 Co28 2.137 . S
O40 C31 1.247 . S
O41 Co28 2.244 . S
O41 C31 1.272 . S
O41 Co33 2.135 . S
Co42 O43 2.216 . S
Co42 O44 2.091 . S
Co42 O46 2.004 . S
Co42 O52 2.021 . S
Co42 O54 2.137 . S
Co42 O55 2.244 . S
O43 Co42 2.216 . S
O43 C50 1.247 . S
O44 Co42 2.091 . S
O44 C50 1.261 . S
C45 O54 1.247 . S
C45 O55 1.272 . S
O46 Co42 2.004 . S
O46 C51 1.259 . S
Co47 O48 2.061 . S
Co47 O53 2.052 . S
Co47 O55 2.135 . S
O48 Co47 2.061 . S
O48 C51 1.235 . S
C49 O52 1.238 . S
C49 O53 1.241 . S
C50 O43 1.247 . S
C50 O44 1.261 . S
C51 O46 1.259 . S
C51 O48 1.235 . S
O52 Co42 2.021 . S
O52 C49 1.238 . S
O53 Co47 2.052 . S
O53 C49 1.241 . S
O54 Co42 2.137 . S
O54 C45 1.247 . S
O55 Co42 2.244 . S
O55 C45 1.272 . S
O55 Co47 2.135 . S
Co56 O57 2.216 . S
Co56 O58 2.091 . S
Co56 O60 2.004 . S
Co56 O66 2.021 . S
Co56 O68 2.137 . S
Co56 O69 2.244 . S
O57 Co56 2.216 . S
O57 C64 1.247 . S
O58 Co56 2.091 . S
O58 C64 1.261 . S
C59 O68 1.247 . S
C59 O69 1.272 . S
O60 Co56 2.004 . S
O60 C65 1.259 . S
Co61 O62 2.061 . S
Co61 O67 2.052 . S
Co61 O69 2.135 . S
O62 Co61 2.061 . S
O62 C65 1.235 . S
C63 O66 1.238 . S
C63 O67 1.241 . S
C64 O57 1.247 . S
C64 O58 1.261 . S
C65 O60 1.259 . S
C65 O62 1.235 . S
O66 Co56 2.021 . S
O66 C63 1.238 . S
O67 Co61 2.052 . S
O67 C63 1.241 . S
O68 Co56 2.137 . S
O68 C59 1.247 . S
O69 Co56 2.244 . S
O69 C59 1.272 . S
O69 Co61 2.135 . S
Co70 O71 2.216 . S
Co70 O72 2.091 . S
Co70 O74 2.004 . S
Co70 O80 2.021 . S
Co70 O82 2.137 . S
Co70 O83 2.244 . S
O71 Co70 2.216 . S
O71 C78 1.247 . S
O72 Co70 2.091 . S
O72 C78 1.261 . S
C73 O82 1.247 . S
C73 O83 1.272 . S
O74 Co70 2.004 . S
O74 C79 1.259 . S
Co75 O76 2.061 . S
Co75 O81 2.052 . S
Co75 O83 2.135 . S
O76 Co75 2.061 . S
O76 C79 1.235 . S
C77 O80 1.238 . S
C77 O81 1.241 . S
C78 O71 1.247 . S
C78 O72 1.261 . S
C79 O74 1.259 . S
C79 O76 1.235 . S
O80 Co70 2.021 . S
O80 C77 1.238 . S
O81 Co75 2.052 . S
O81 C77 1.241 . S
O82 Co70 2.137 . S
O82 C73 1.247 . S
O83 Co70 2.244 . S
O83 C73 1.272 . S
O83 Co75 2.135 . S
Co84 O85 2.216 . S
Co84 O86 2.091 . S
Co84 O88 2.004 . S
Co84 O94 2.021 . S
Co84 O96 2.137 . S
Co84 O97 2.244 . S
O85 Co84 2.216 . S
O85 C92 1.247 . S
O86 Co84 2.091 . S
O86 C92 1.261 . S
C87 O96 1.247 . S
C87 O97 1.272 . S
O88 Co84 2.004 . S
O88 C93 1.259 . S
Co89 O90 2.061 . S
Co89 O95 2.052 . S
Co89 O97 2.135 . S
O90 Co89 2.061 . S
O90 C93 1.235 . S
C91 O94 1.238 . S
C91 O95 1.241 . S
C92 O85 1.247 . S
C92 O86 1.261 . S
C93 O88 1.259 . S
C93 O90 1.235 . S
O94 Co84 2.021 . S
O94 C91 1.238 . S
O95 Co89 2.052 . S
O95 C91 1.241 . S
O96 Co84 2.137 . S
O96 C87 1.247 . S
O97 Co84 2.244 . S
O97 C87 1.272 . S
O97 Co89 2.135 . S
Co98 O99 2.216 . S
Co98 O100 2.091 . S
Co98 O102 2.004 . S
Co98 O108 2.021 . S
Co98 O110 2.137 . S
Co98 O111 2.244 . S
O99 Co98 2.216 . S
O99 C106 1.247 . S
O100 Co98 2.091 . S
O100 C106 1.261 . S
C101 O110 1.247 . S
C101 O111 1.272 . S
O102 Co98 2.004 . S
O102 C107 1.259 . S
Co103 O104 2.061 . S
Co103 O109 2.052 . S
Co103 O111 2.135 . S
O104 Co103 2.061 . S
O104 C107 1.235 . S
C105 O108 1.238 . S
C105 O109 1.241 . S
C106 O99 1.247 . S
C106 O100 1.261 . S
C107 O102 1.259 . S
C107 O104 1.235 . S
O108 Co98 2.021 . S
O108 C105 1.238 . S
O109 Co103 2.052 . S
O109 C105 1.241 . S
O110 Co98 2.137 . S
O110 C101 1.247 . S
O111 Co98 2.244 . S
O111 C101 1.272 . S
O111 Co103 2.135 . S
Co112 O113 2.216 . S
Co112 O114 2.091 . S
Co112 O116 2.004 . S
Co112 O122 2.021 . S
Co112 O124 2.137 . S
Co112 O125 2.244 . S
O113 Co112 2.216 . S
O113 C120 1.247 . S
O114 Co112 2.091 . S
O114 C120 1.261 . S
C115 O124 1.247 . S
C115 O125 1.272 . S
O116 Co112 2.004 . S
O116 C121 1.259 . S
Co117 O118 2.061 . S
Co117 O123 2.052 . S
Co117 O125 2.135 . S
O118 Co117 2.061 . S
O118 C121 1.235 . S
C119 O122 1.238 . S
C119 O123 1.241 . S
C120 O113 1.247 . S
C120 O114 1.261 . S
C121 O116 1.259 . S
C121 O118 1.235 . S
O122 Co112 2.021 . S
O122 C119 1.238 . S
O123 Co117 2.052 . S
O123 C119 1.241 . S
O124 Co112 2.137 . S
O124 C115 1.247 . S
O125 Co112 2.244 . S
O125 C115 1.272 . S
O125 Co117 2.135 . S
Co126 O127 2.216 . S
Co126 O128 2.091 . S
Co126 O130 2.004 . S
Co126 O136 2.021 . S
Co126 O138 2.137 . S
Co126 O139 2.244 . S
O127 Co126 2.216 . S
O127 C134 1.247 . S
O128 Co126 2.091 . S
O128 C134 1.261 . S
C129 O138 1.247 . S
C129 O139 1.272 . S
O130 Co126 2.004 . S
O130 C135 1.259 . S
Co131 O132 2.061 . S
Co131 O137 2.052 . S
Co131 O139 2.135 . S
O132 Co131 2.061 . S
O132 C135 1.235 . S
C133 O136 1.238 . S
C133 O137 1.241 . S
C134 O127 1.247 . S
C134 O128 1.261 . S
C135 O130 1.259 . S
C135 O132 1.235 . S
O136 Co126 2.021 . S
O136 C133 1.238 . S
O137 Co131 2.052 . S
O137 C133 1.241 . S
O138 Co126 2.137 . S
O138 C129 1.247 . S
O139 Co126 2.244 . S
O139 C129 1.272 . S
O139 Co131 2.135 . S
Co140 O141 2.216 . S
Co140 O142 2.091 . S
Co140 O144 2.004 . S
Co140 O150 2.021 . S
Co140 O152 2.137 . S
Co140 O153 2.244 . S
O141 Co140 2.216 . S
O141 C148 1.247 . S
O142 Co140 2.091 . S
O142 C148 1.261 . S
C143 O152 1.247 . S
C143 O153 1.272 . S
O144 Co140 2.004 . S
O144 C149 1.259 . S
Co145 O146 2.061 . S
Co145 O151 2.052 . S
Co145 O153 2.135 . S
O146 Co145 2.061 . S
O146 C149 1.235 . S
C147 O150 1.238 . S
C147 O151 1.241 . S
C148 O141 1.247 . S
C148 O142 1.261 . S
C149 O144 1.259 . S
C149 O146 1.235 . S
O150 Co140 2.021 . S
O150 C147 1.238 . S
O151 Co145 2.052 . S
O151 C147 1.241 . S
O152 Co140 2.137 . S
O152 C143 1.247 . S
O153 Co140 2.244 . S
O153 C143 1.272 . S
O153 Co145 2.135 . S
Co154 O155 2.216 . S
Co154 O156 2.091 . S
Co154 O158 2.004 . S
Co154 O164 2.021 . S
Co154 O166 2.137 . S
Co154 O167 2.244 . S
O155 Co154 2.216 . S
O155 C162 1.247 . S
O156 Co154 2.091 . S
O156 C162 1.261 . S
C157 O166 1.247 . S
C157 O167 1.272 . S
O158 Co154 2.004 . S
O158 C163 1.259 . S
Co159 O160 2.061 . S
Co159 O165 2.052 . S
Co159 O167 2.135 . S
O160 Co159 2.061 . S
O160 C163 1.235 . S
C161 O164 1.238 . S
C161 O165 1.241 . S
C162 O155 1.247 . S
C162 O156 1.261 . S
C163 O158 1.259 . S
C163 O160 1.235 . S
O164 Co154 2.021 . S
O164 C161 1.238 . S
O165 Co159 2.052 . S
O165 C161 1.241 . S
O166 Co154 2.137 . S
O166 C157 1.247 . S
O167 Co154 2.244 . S
O167 C157 1.272 . S
O167 Co159 2.135 . S
Co168 O169 2.216 . S
Co168 O170 2.091 . S
Co168 O172 2.004 . S
Co168 O178 2.021 . S
Co168 O180 2.137 . S
Co168 O181 2.244 . S
O169 Co168 2.216 . S
O169 C176 1.247 . S
O170 Co168 2.091 . S
O170 C176 1.261 . S
C171 O180 1.247 . S
C171 O181 1.272 . S
O172 Co168 2.004 . S
O172 C177 1.259 . S
Co173 O174 2.061 . S
Co173 O179 2.052 . S
Co173 O181 2.135 . S
O174 Co173 2.061 . S
O174 C177 1.235 . S
C175 O178 1.238 . S
C175 O179 1.241 . S
C176 O169 1.247 . S
C176 O170 1.261 . S
C177 O172 1.259 . S
C177 O174 1.235 . S
O178 Co168 2.021 . S
O178 C175 1.238 . S
O179 Co173 2.052 . S
O179 C175 1.241 . S
O180 Co168 2.137 . S
O180 C171 1.247 . S
O181 Co168 2.244 . S
O181 C171 1.272 . S
O181 Co173 2.135 . S
Co182 O183 2.216 . S
Co182 O184 2.091 . S
Co182 O186 2.004 . S
Co182 O192 2.021 . S
Co182 O194 2.137 . S
Co182 O195 2.244 . S
O183 Co182 2.216 . S
O183 C190 1.247 . S
O184 Co182 2.091 . S
O184 C190 1.261 . S
C185 O194 1.247 . S
C185 O195 1.272 . S
O186 Co182 2.004 . S
O186 C191 1.259 . S
Co187 O188 2.061 . S
Co187 O193 2.052 . S
Co187 O195 2.135 . S
O188 Co187 2.061 . S
O188 C191 1.235 . S
C189 O192 1.238 . S
C189 O193 1.241 . S
C190 O183 1.247 . S
C190 O184 1.261 . S
C191 O186 1.259 . S
C191 O188 1.235 . S
O192 Co182 2.021 . S
O192 C189 1.238 . S
O193 Co187 2.052 . S
O193 C189 1.241 . S
O194 Co182 2.137 . S
O194 C185 1.247 . S
O195 Co182 2.244 . S
O195 C185 1.272 . S
O195 Co187 2.135 . S
Co196 O197 2.216 . S
Co196 O198 2.091 . S
Co196 O200 2.004 . S
Co196 O206 2.021 . S
Co196 O208 2.137 . S
Co196 O209 2.244 . S
O197 Co196 2.216 . S
O197 C204 1.247 . S
O198 Co196 2.091 . S
O198 C204 1.261 . S
C199 O208 1.247 . S
C199 O209 1.272 . S
O200 Co196 2.004 . S
O200 C205 1.259 . S
Co201 O202 2.061 . S
Co201 O207 2.052 . S
Co201 O209 2.135 . S
O202 Co201 2.061 . S
O202 C205 1.235 . S
C203 O206 1.238 . S
C203 O207 1.241 . S
C204 O197 1.247 . S
C204 O198 1.261 . S
C205 O200 1.259 . S
C205 O202 1.235 . S
O206 Co196 2.021 . S
O206 C203 1.238 . S
O207 Co201 2.052 . S
O207 C203 1.241 . S
O208 Co196 2.137 . S
O208 C199 1.247 . S
O209 Co196 2.244 . S
O209 C199 1.272 . S
O209 Co201 2.135 . S
Co210 O211 2.216 . S
Co210 O212 2.091 . S
Co210 O214 2.004 . S
Co210 O220 2.021 . S
Co210 O222 2.137 . S
Co210 O223 2.244 . S
O211 Co210 2.216 . S
O211 C218 1.247 . S
O212 Co210 2.091 . S
O212 C218 1.261 . S
C213 O222 1.247 . S
C213 O223 1.272 . S
O214 Co210 2.004 . S
O214 C219 1.259 . S
Co215 O216 2.061 . S
Co215 O221 2.052 . S
Co215 O223 2.135 . S
O216 Co215 2.061 . S
O216 C219 1.235 . S
C217 O220 1.238 . S
C217 O221 1.241 . S
C218 O211 1.247 . S
C218 O212 1.261 . S
C219 O214 1.259 . S
C219 O216 1.235 . S
O220 Co210 2.021 . S
O220 C217 1.238 . S
O221 Co215 2.052 . S
O221 C217 1.241 . S
O222 Co210 2.137 . S
O222 C213 1.247 . S
O223 Co210 2.244 . S
O223 C213 1.272 . S
O223 Co215 2.135 . S
H224 C236 0.930 . S
H225 C238 0.930 . S
H226 C239 0.930 . S
H227 C243 0.959 . S
H228 C243 0.959 . S
H229 C243 0.961 . S
H230 C244 0.960 . S
H231 C244 0.961 . S
H232 C244 0.959 . S
H233 C247 0.929 . S
H234 C248 0.931 . S
H235 C250 0.930 . S
C236 H224 0.930 . S
C236 C237 1.399 . S
C236 C241 1.399 . S
C237 C236 1.399 . S
C237 C238 1.376 . S
C238 H225 0.930 . S
C238 C237 1.376 . S
C238 C239 1.388 . S
C239 H226 0.930 . S
C239 C238 1.388 . S
C239 C240 1.390 . S
C240 C239 1.390 . S
C240 C241 1.394 . S
C240 C246 1.465 . S
C241 C236 1.399 . S
C241 C240 1.394 . S
C241 C242 1.516 . S
C242 C241 1.516 . S
C242 C243 1.502 . S
C242 C244 1.561 . S
C242 C245 1.526 . S
C243 H227 0.959 . S
C243 H228 0.959 . S
C243 H229 0.961 . S
C243 C242 1.502 . S
C244 H230 0.960 . S
C244 H231 0.961 . S
C244 H232 0.959 . S
C244 C242 1.561 . S
C245 C242 1.526 . S
C245 C246 1.396 . S
C245 C250 1.390 . S
C246 C240 1.465 . S
C246 C245 1.396 . S
C246 C247 1.399 . S
C247 H233 0.929 . S
C247 C246 1.399 . S
C247 C248 1.385 . S
C248 H234 0.931 . S
C248 C247 1.385 . S
C248 C249 1.389 . S
C249 C248 1.389 . S
C249 C250 1.387 . S
C250 H235 0.930 . S
C250 C245 1.390 . S
C250 C249 1.387 . S
H251 C263 0.930 . S
H252 C265 0.930 . S
H253 C266 0.930 . S
H254 C270 0.959 . S
H255 C270 0.959 . S
H256 C270 0.961 . S
H257 C271 0.960 . S
H258 C271 0.961 . S
H259 C271 0.959 . S
H260 C274 0.929 . S
H261 C275 0.931 . S
H262 C277 0.930 . S
C263 H251 0.930 . S
C263 C264 1.399 . S
C263 C268 1.399 . S
C264 C263 1.399 . S
C264 C265 1.376 . S
C265 H252 0.930 . S
C265 C264 1.376 . S
C265 C266 1.388 . S
C266 H253 0.930 . S
C266 C265 1.388 . S
C266 C267 1.390 . S
C267 C266 1.390 . S
C267 C268 1.394 . S
C267 C273 1.465 . S
C268 C263 1.399 . S
C268 C267 1.394 . S
C268 C269 1.516 . S
C269 C268 1.516 . S
C269 C270 1.502 . S
C269 C271 1.561 . S
C269 C272 1.526 . S
C270 H254 0.959 . S
C270 H255 0.959 . S
C270 H256 0.961 . S
C270 C269 1.502 . S
C271 H257 0.960 . S
C271 H258 0.961 . S
C271 H259 0.959 . S
C271 C269 1.561 . S
C272 C269 1.526 . S
C272 C273 1.396 . S
C272 C277 1.390 . S
C273 C267 1.465 . S
C273 C272 1.396 . S
C273 C274 1.399 . S
C274 H260 0.929 . S
C274 C273 1.399 . S
C274 C275 1.385 . S
C275 H261 0.931 . S
C275 C274 1.385 . S
C275 C276 1.389 . S
C276 C275 1.389 . S
C276 C277 1.387 . S
C277 H262 0.930 . S
C277 C272 1.390 . S
C277 C276 1.387 . S
H278 C290 0.930 . S
H279 C292 0.930 . S
H280 C293 0.930 . S
H281 C297 0.959 . S
H282 C297 0.959 . S
H283 C297 0.961 . S
H284 C298 0.960 . S
H285 C298 0.961 . S
H286 C298 0.959 . S
H287 C301 0.929 . S
H288 C302 0.931 . S
H289 C304 0.930 . S
C290 H278 0.930 . S
C290 C291 1.399 . S
C290 C295 1.399 . S
C291 C290 1.399 . S
C291 C292 1.376 . S
C292 H279 0.930 . S
C292 C291 1.376 . S
C292 C293 1.388 . S
C293 H280 0.930 . S
C293 C292 1.388 . S
C293 C294 1.390 . S
C294 C293 1.390 . S
C294 C295 1.394 . S
C294 C300 1.465 . S
C295 C290 1.399 . S
C295 C294 1.394 . S
C295 C296 1.516 . S
C296 C295 1.516 . S
C296 C297 1.502 . S
C296 C298 1.561 . S
C296 C299 1.526 . S
C297 H281 0.959 . S
C297 H282 0.959 . S
C297 H283 0.961 . S
C297 C296 1.502 . S
C298 H284 0.960 . S
C298 H285 0.961 . S
C298 H286 0.959 . S
C298 C296 1.561 . S
C299 C296 1.526 . S
C299 C300 1.396 . S
C299 C304 1.390 . S
C300 C294 1.465 . S
C300 C299 1.396 . S
C300 C301 1.399 . S
C301 H287 0.929 . S
C301 C300 1.399 . S
C301 C302 1.385 . S
C302 H288 0.931 . S
C302 C301 1.385 . S
C302 C303 1.389 . S
C303 C302 1.389 . S
C303 C304 1.387 . S
C304 H289 0.930 . S
C304 C299 1.390 . S
C304 C303 1.387 . S
H305 C317 0.930 . S
H306 C319 0.930 . S
H307 C320 0.930 . S
H308 C324 0.959 . S
H309 C324 0.959 . S
H310 C324 0.961 . S
H311 C325 0.960 . S
H312 C325 0.961 . S
H313 C325 0.959 . S
H314 C328 0.929 . S
H315 C329 0.931 . S
H316 C331 0.930 . S
C317 H305 0.930 . S
C317 C318 1.399 . S
C317 C322 1.399 . S
C318 C317 1.399 . S
C318 C319 1.376 . S
C319 H306 0.930 . S
C319 C318 1.376 . S
C319 C320 1.388 . S
C320 H307 0.930 . S
C320 C319 1.388 . S
C320 C321 1.390 . S
C321 C320 1.390 . S
C321 C322 1.394 . S
C321 C327 1.465 . S
C322 C317 1.399 . S
C322 C321 1.394 . S
C322 C323 1.516 . S
C323 C322 1.516 . S
C323 C324 1.502 . S
C323 C325 1.561 . S
C323 C326 1.526 . S
C324 H308 0.959 . S
C324 H309 0.959 . S
C324 H310 0.961 . S
C324 C323 1.502 . S
C325 H311 0.960 . S
C325 H312 0.961 . S
C325 H313 0.959 . S
C325 C323 1.561 . S
C326 C323 1.526 . S
C326 C327 1.396 . S
C326 C331 1.390 . S
C327 C321 1.465 . S
C327 C326 1.396 . S
C327 C328 1.399 . S
C328 H314 0.929 . S
C328 C327 1.399 . S
C328 C329 1.385 . S
C329 H315 0.931 . S
C329 C328 1.385 . S
C329 C330 1.389 . S
C330 C329 1.389 . S
C330 C331 1.387 . S
C331 H316 0.930 . S
C331 C326 1.390 . S
C331 C330 1.387 . S
H332 C344 0.930 . S
H333 C346 0.930 . S
H334 C347 0.930 . S
H335 C351 0.959 . S
H336 C351 0.959 . S
H337 C351 0.961 . S
H338 C352 0.960 . S
H339 C352 0.961 . S
H340 C352 0.959 . S
H341 C355 0.929 . S
H342 C356 0.931 . S
H343 C358 0.930 . S
C344 H332 0.930 . S
C344 C345 1.399 . S
C344 C349 1.399 . S
C345 C344 1.399 . S
C345 C346 1.376 . S
C346 H333 0.930 . S
C346 C345 1.376 . S
C346 C347 1.388 . S
C347 H334 0.930 . S
C347 C346 1.388 . S
C347 C348 1.390 . S
C348 C347 1.390 . S
C348 C349 1.394 . S
C348 C354 1.465 . S
C349 C344 1.399 . S
C349 C348 1.394 . S
C349 C350 1.516 . S
C350 C349 1.516 . S
C350 C351 1.502 . S
C350 C352 1.561 . S
C350 C353 1.526 . S
C351 H335 0.959 . S
C351 H336 0.959 . S
C351 H337 0.961 . S
C351 C350 1.502 . S
C352 H338 0.960 . S
C352 H339 0.961 . S
C352 H340 0.959 . S
C352 C350 1.561 . S
C353 C350 1.526 . S
C353 C354 1.396 . S
C353 C358 1.390 . S
C354 C348 1.465 . S
C354 C353 1.396 . S
C354 C355 1.399 . S
C355 H341 0.929 . S
C355 C354 1.399 . S
C355 C356 1.385 . S
C356 H342 0.931 . S
C356 C355 1.385 . S
C356 C357 1.389 . S
C357 C356 1.389 . S
C357 C358 1.387 . S
C358 H343 0.930 . S
C358 C353 1.390 . S
C358 C357 1.387 . S
H359 C371 0.930 . S
H360 C373 0.930 . S
H361 C374 0.930 . S
H362 C378 0.959 . S
H363 C378 0.959 . S
H364 C378 0.961 . S
H365 C379 0.960 . S
H366 C379 0.961 . S
H367 C379 0.959 . S
H368 C382 0.929 . S
H369 C383 0.931 . S
H370 C385 0.930 . S
C371 H359 0.930 . S
C371 C372 1.399 . S
C371 C376 1.399 . S
C372 C371 1.399 . S
C372 C373 1.376 . S
C373 H360 0.930 . S
C373 C372 1.376 . S
C373 C374 1.388 . S
C374 H361 0.930 . S
C374 C373 1.388 . S
C374 C375 1.390 . S
C375 C374 1.390 . S
C375 C376 1.394 . S
C375 C381 1.465 . S
C376 C371 1.399 . S
C376 C375 1.394 . S
C376 C377 1.516 . S
C377 C376 1.516 . S
C377 C378 1.502 . S
C377 C379 1.561 . S
C377 C380 1.526 . S
C378 H362 0.959 . S
C378 H363 0.959 . S
C378 H364 0.961 . S
C378 C377 1.502 . S
C379 H365 0.960 . S
C379 H366 0.961 . S
C379 H367 0.959 . S
C379 C377 1.561 . S
C380 C377 1.526 . S
C380 C381 1.396 . S
C380 C385 1.390 . S
C381 C375 1.465 . S
C381 C380 1.396 . S
C381 C382 1.399 . S
C382 H368 0.929 . S
C382 C381 1.399 . S
C382 C383 1.385 . S
C383 H369 0.931 . S
C383 C382 1.385 . S
C383 C384 1.389 . S
C384 C383 1.389 . S
C384 C385 1.387 . S
C385 H370 0.930 . S
C385 C380 1.390 . S
C385 C384 1.387 . S
H386 C398 0.930 . S
H387 C400 0.930 . S
H388 C401 0.930 . S
H389 C405 0.959 . S
H390 C405 0.959 . S
H391 C405 0.961 . S
H392 C406 0.960 . S
H393 C406 0.961 . S
H394 C406 0.959 . S
H395 C409 0.929 . S
H396 C410 0.931 . S
H397 C412 0.930 . S
C398 H386 0.930 . S
C398 C399 1.399 . S
C398 C403 1.399 . S
C399 C398 1.399 . S
C399 C400 1.376 . S
C400 H387 0.930 . S
C400 C399 1.376 . S
C400 C401 1.388 . S
C401 H388 0.930 . S
C401 C400 1.388 . S
C401 C402 1.390 . S
C402 C401 1.390 . S
C402 C403 1.394 . S
C402 C408 1.465 . S
C403 C398 1.399 . S
C403 C402 1.394 . S
C403 C404 1.516 . S
C404 C403 1.516 . S
C404 C405 1.502 . S
C404 C406 1.561 . S
C404 C407 1.526 . S
C405 H389 0.959 . S
C405 H390 0.959 . S
C405 H391 0.961 . S
C405 C404 1.502 . S
C406 H392 0.960 . S
C406 H393 0.961 . S
C406 H394 0.959 . S
C406 C404 1.561 . S
C407 C404 1.526 . S
C407 C408 1.396 . S
C407 C412 1.390 . S
C408 C402 1.465 . S
C408 C407 1.396 . S
C408 C409 1.399 . S
C409 H395 0.929 . S
C409 C408 1.399 . S
C409 C410 1.385 . S
C410 H396 0.931 . S
C410 C409 1.385 . S
C410 C411 1.389 . S
C411 C410 1.389 . S
C411 C412 1.387 . S
C412 H397 0.930 . S
C412 C407 1.390 . S
C412 C411 1.387 . S
H413 C425 0.930 . S
H414 C427 0.930 . S
H415 C428 0.930 . S
H416 C432 0.959 . S
H417 C432 0.959 . S
H418 C432 0.961 . S
H419 C433 0.960 . S
H420 C433 0.961 . S
H421 C433 0.959 . S
H422 C436 0.929 . S
H423 C437 0.931 . S
H424 C439 0.930 . S
C425 H413 0.930 . S
C425 C426 1.399 . S
C425 C430 1.399 . S
C426 C425 1.399 . S
C426 C427 1.376 . S
C427 H414 0.930 . S
C427 C426 1.376 . S
C427 C428 1.388 . S
C428 H415 0.930 . S
C428 C427 1.388 . S
C428 C429 1.390 . S
C429 C428 1.390 . S
C429 C430 1.394 . S
C429 C435 1.465 . S
C430 C425 1.399 . S
C430 C429 1.394 . S
C430 C431 1.516 . S
C431 C430 1.516 . S
C431 C432 1.502 . S
C431 C433 1.561 . S
C431 C434 1.526 . S
C432 H416 0.959 . S
C432 H417 0.959 . S
C432 H418 0.961 . S
C432 C431 1.502 . S
C433 H419 0.960 . S
C433 H420 0.961 . S
C433 H421 0.959 . S
C433 C431 1.561 . S
C434 C431 1.526 . S
C434 C435 1.396 . S
C434 C439 1.390 . S
C435 C429 1.465 . S
C435 C434 1.396 . S
C435 C436 1.399 . S
C436 H422 0.929 . S
C436 C435 1.399 . S
C436 C437 1.385 . S
C437 H423 0.931 . S
C437 C436 1.385 . S
C437 C438 1.389 . S
C438 C437 1.389 . S
C438 C439 1.387 . S
C439 H424 0.930 . S
C439 C434 1.390 . S
C439 C438 1.387 . S
H440 C452 0.930 . S
H441 C454 0.930 . S
H442 C455 0.930 . S
H443 C459 0.959 . S
H444 C459 0.959 . S
H445 C459 0.961 . S
H446 C460 0.960 . S
H447 C460 0.961 . S
H448 C460 0.959 . S
H449 C463 0.929 1_565 S
H450 C464 0.931 . S
H451 C466 0.930 . S
C452 H440 0.930 . S
C452 C453 1.399 . S
C452 C457 1.399 . S
C453 C452 1.399 . S
C453 C454 1.376 . S
C454 H441 0.930 . S
C454 C453 1.376 . S
C454 C455 1.388 . S
C455 H442 0.930 . S
C455 C454 1.388 . S
C455 C456 1.390 . S
C456 C455 1.390 . S
C456 C457 1.394 . S
C456 C462 1.465 1_565 S
C457 C452 1.399 . S
C457 C456 1.394 . S
C457 C458 1.516 1_565 S
C458 C457 1.516 1_545 S
C458 C459 1.502 . S
C458 C460 1.561 . S
C458 C461 1.526 . S
C459 H443 0.959 . S
C459 H444 0.959 . S
C459 H445 0.961 . S
C459 C458 1.502 . S
C460 H446 0.960 . S
C460 H447 0.961 . S
C460 H448 0.959 . S
C460 C458 1.561 . S
C461 C458 1.526 . S
C461 C462 1.396 . S
C461 C466 1.390 . S
C462 C456 1.465 1_545 S
C462 C461 1.396 . S
C462 C463 1.399 . S
C463 H449 0.929 1_545 S
C463 C462 1.399 . S
C463 C464 1.385 . S
C464 H450 0.931 . S
C464 C463 1.385 . S
C464 C465 1.389 . S
C465 C464 1.389 . S
C465 C466 1.387 . S
C466 H451 0.930 . S
C466 C461 1.390 . S
C466 C465 1.387 . S
H467 C479 0.930 . S
H468 C481 0.930 . S
H469 C482 0.930 . S
H470 C486 0.959 . S
H471 C486 0.959 . S
H472 C486 0.961 . S
H473 C487 0.960 . S
H474 C487 0.961 . S
H475 C487 0.959 . S
H476 C490 0.929 . S
H477 C491 0.931 . S
H478 C493 0.930 . S
C479 H467 0.930 . S
C479 C480 1.399 . S
C479 C484 1.399 . S
C480 C479 1.399 . S
C480 C481 1.376 . S
C481 H468 0.930 . S
C481 C480 1.376 . S
C481 C482 1.388 . S
C482 H469 0.930 . S
C482 C481 1.388 . S
C482 C483 1.390 . S
C483 C482 1.390 . S
C483 C484 1.394 . S
C483 C489 1.465 . S
C484 C479 1.399 . S
C484 C483 1.394 . S
C484 C485 1.516 . S
C485 C484 1.516 . S
C485 C486 1.502 . S
C485 C487 1.561 . S
C485 C488 1.526 . S
C486 H470 0.959 . S
C486 H471 0.959 . S
C486 H472 0.961 . S
C486 C485 1.502 . S
C487 H473 0.960 . S
C487 H474 0.961 . S
C487 H475 0.959 . S
C487 C485 1.561 . S
C488 C485 1.526 . S
C488 C489 1.396 . S
C488 C493 1.390 . S
C489 C483 1.465 . S
C489 C488 1.396 . S
C489 C490 1.399 . S
C490 H476 0.929 . S
C490 C489 1.399 . S
C490 C491 1.385 . S
C491 H477 0.931 . S
C491 C490 1.385 . S
C491 C492 1.389 . S
C492 C491 1.389 . S
C492 C493 1.387 . S
C493 H478 0.930 . S
C493 C488 1.390 . S
C493 C492 1.387 . S
H494 C506 0.930 . S
H495 C508 0.930 . S
H496 C509 0.930 . S
H497 C513 0.959 . S
H498 C513 0.959 . S
H499 C513 0.961 . S
H500 C514 0.960 . S
H501 C514 0.961 1_554 S
H502 C514 0.959 1_554 S
H503 C517 0.929 . S
H504 C518 0.931 . S
H505 C520 0.930 . S
C506 H494 0.930 . S
C506 C507 1.399 . S
C506 C511 1.399 . S
C507 C506 1.399 . S
C507 C508 1.376 . S
C508 H495 0.930 . S
C508 C507 1.376 . S
C508 C509 1.388 . S
C509 H496 0.930 . S
C509 C508 1.388 . S
C509 C510 1.390 . S
C510 C509 1.390 . S
C510 C511 1.394 . S
C510 C516 1.465 . S
C511 C506 1.399 . S
C511 C510 1.394 . S
C511 C512 1.516 . S
C512 C511 1.516 . S
C512 C513 1.502 . S
C512 C514 1.561 . S
C512 C515 1.515 1_556 S
C513 H497 0.959 . S
C513 H498 0.959 . S
C513 H499 0.961 . S
C513 C512 1.502 . S
C514 H500 0.960 . S
C514 H501 0.961 1_556 S
C514 H502 0.959 1_556 S
C514 C512 1.561 . S
C515 C512 1.515 1_554 S
C515 C516 1.394 1_554 S
C515 C520 1.401 . S
C516 C510 1.465 . S
C516 C515 1.394 1_556 S
C516 C517 1.399 1_556 S
C517 H503 0.929 . S
C517 C516 1.399 1_554 S
C517 C518 1.385 . S
C518 H504 0.931 . S
C518 C517 1.385 . S
C518 C519 1.389 . S
C519 C518 1.389 . S
C519 C520 1.387 . S
C520 H505 0.930 . S
C520 C515 1.401 . S
C520 C519 1.387 . S
H521 C533 0.930 . S
H522 C535 0.930 . S
H523 C536 0.930 . S
H524 C540 0.959 . S
H525 C540 0.959 . S
H526 C540 0.961 . S
H527 C541 0.960 . S
H528 C541 0.961 . S
H529 C541 0.959 . S
H530 C544 0.929 . S
H531 C545 0.931 . S
H532 C547 0.930 . S
C533 H521 0.930 . S
C533 C534 1.399 . S
C533 C538 1.388 1_554 S
C534 C533 1.399 . S
C534 C535 1.376 . S
C535 H522 0.930 . S
C535 C534 1.376 . S
C535 C536 1.388 . S
C536 H523 0.930 . S
C536 C535 1.388 . S
C536 C537 1.390 1_554 S
C537 C536 1.390 1_556 S
C537 C538 1.395 . S
C537 C543 1.465 . S
C538 C533 1.388 1_556 S
C538 C537 1.395 . S
C538 C539 1.528 . S
C539 C538 1.528 . S
C539 C540 1.502 . S
C539 C541 1.561 . S
C539 C542 1.526 . S
C540 H524 0.959 . S
C540 H525 0.959 . S
C540 H526 0.961 . S
C540 C539 1.502 . S
C541 H527 0.960 . S
C541 H528 0.961 . S
C541 H529 0.959 . S
C541 C539 1.561 . S
C542 C539 1.526 . S
C542 C543 1.396 . S
C542 C547 1.390 . S
C543 C537 1.465 . S
C543 C542 1.396 . S
C543 C544 1.399 . S
C544 H530 0.929 . S
C544 C543 1.399 . S
C544 C545 1.385 . S
C545 H531 0.931 . S
C545 C544 1.385 . S
C545 C546 1.389 . S
C546 C545 1.389 . S
C546 C547 1.387 . S
C547 H532 0.930 . S
C547 C542 1.390 . S
C547 C546 1.387 . S
H548 C560 0.930 . S
H549 C562 0.930 . S
H550 C563 0.930 . S
H551 C567 0.959 . S
H552 C567 0.959 . S
H553 C567 0.961 . S
H554 C568 0.960 . S
H555 C568 0.961 . S
H556 C568 0.959 . S
H557 C571 0.929 . S
H558 C572 0.931 . S
H559 C574 0.930 . S
C560 H548 0.930 . S
C560 C561 1.399 . S
C560 C565 1.399 . S
C561 C560 1.399 . S
C561 C562 1.376 . S
C562 H549 0.930 . S
C562 C561 1.376 . S
C562 C563 1.388 . S
C563 H550 0.930 . S
C563 C562 1.388 . S
C563 C564 1.390 . S
C564 C563 1.390 . S
C564 C565 1.394 . S
C564 C570 1.465 . S
C565 C560 1.399 . S
C565 C564 1.394 . S
C565 C566 1.516 . S
C566 C565 1.516 . S
C566 C567 1.502 . S
C566 C568 1.561 . S
C566 C569 1.526 . S
C567 H551 0.959 . S
C567 H552 0.959 . S
C567 H553 0.961 . S
C567 C566 1.502 . S
C568 H554 0.960 . S
C568 H555 0.961 . S
C568 H556 0.959 . S
C568 C566 1.561 . S
C569 C566 1.526 . S
C569 C570 1.396 . S
C569 C574 1.390 . S
C570 C564 1.465 . S
C570 C569 1.396 . S
C570 C571 1.399 . S
C571 H557 0.929 . S
C571 C570 1.399 . S
C571 C572 1.385 . S
C572 H558 0.931 . S
C572 C571 1.385 . S
C572 C573 1.389 . S
C573 C572 1.389 . S
C573 C574 1.387 . S
C574 H559 0.930 . S
C574 C569 1.390 . S
C574 C573 1.387 . S
H575 C587 0.930 . S
H576 C589 0.930 . S
H577 C590 0.930 . S
H578 C594 0.959 . S
H579 C594 0.959 . S
H580 C594 0.961 . S
H581 C595 0.960 . S
H582 C595 0.961 . S
H583 C595 0.959 . S
H584 C598 0.929 . S
H585 C599 0.931 . S
H586 C601 0.930 . S
C587 H575 0.930 . S
C587 C588 1.399 . S
C587 C592 1.399 . S
C588 C587 1.399 . S
C588 C589 1.376 . S
C589 H576 0.930 . S
C589 C588 1.376 . S
C589 C590 1.388 . S
C590 H577 0.930 . S
C590 C589 1.388 . S
C590 C591 1.390 . S
C591 C590 1.390 . S
C591 C592 1.394 . S
C591 C597 1.465 . S
C592 C587 1.399 . S
C592 C591 1.394 . S
C592 C593 1.516 . S
C593 C592 1.516 . S
C593 C594 1.502 . S
C593 C595 1.561 . S
C593 C596 1.526 . S
C594 H578 0.959 . S
C594 H579 0.959 . S
C594 H580 0.961 . S
C594 C593 1.502 . S
C595 H581 0.960 . S
C595 H582 0.961 . S
C595 H583 0.959 . S
C595 C593 1.561 . S
C596 C593 1.526 . S
C596 C597 1.396 . S
C596 C601 1.390 . S
C597 C591 1.465 . S
C597 C596 1.396 . S
C597 C598 1.399 . S
C598 H584 0.929 . S
C598 C597 1.399 . S
C598 C599 1.385 . S
C599 H585 0.931 . S
C599 C598 1.385 . S
C599 C600 1.389 . S
C600 C599 1.389 . S
C600 C601 1.387 . S
C601 H586 0.930 . S
C601 C596 1.390 . S
C601 C600 1.387 . S
H602 C614 0.930 . S
H603 C616 0.930 . S
H604 C617 0.916 1_455 S
H605 C621 0.959 . S
H606 C621 0.959 . S
H607 C621 0.961 . S
H608 C622 0.960 . S
H609 C622 0.961 . S
H610 C622 0.959 1_455 S
H611 C625 0.929 . S
H612 C626 0.931 . S
H613 C628 0.930 . S
C614 H602 0.930 . S
C614 C615 1.399 . S
C614 C619 1.399 . S
C615 C614 1.399 . S
C615 C616 1.376 . S
C616 H603 0.930 . S
C616 C615 1.376 . S
C616 C617 1.388 . S
C617 H604 0.916 1_655 S
C617 C616 1.388 . S
C617 C618 1.390 . S
C618 C617 1.390 . S
C618 C619 1.394 . S
C618 C624 1.465 1_655 S
C619 C614 1.399 . S
C619 C618 1.394 . S
C619 C620 1.516 . S
C620 C619 1.516 . S
C620 C621 1.502 . S
C620 C622 1.561 . S
C620 C623 1.526 1_655 S
C621 H605 0.959 . S
C621 H606 0.959 . S
C621 H607 0.961 . S
C621 C620 1.502 . S
C622 H608 0.960 . S
C622 H609 0.961 . S
C622 H610 0.959 1_655 S
C622 C620 1.561 . S
C623 C620 1.526 1_455 S
C623 C624 1.396 . S
C623 C628 1.390 . S
C624 C618 1.465 1_455 S
C624 C623 1.396 . S
C624 C625 1.399 . S
C625 H611 0.929 . S
C625 C624 1.399 . S
C625 C626 1.385 . S
C626 H612 0.931 . S
C626 C625 1.385 . S
C626 C627 1.389 . S
C627 C626 1.389 . S
C627 C628 1.387 . S
C628 H613 0.930 . S
C628 C623 1.390 . S
C628 C627 1.387 . S
H629 C641 0.930 . S
H630 C643 0.930 . S
H631 C644 0.930 . S
H632 C648 0.959 . S
H633 C648 0.959 . S
H634 C648 0.961 . S
H635 C649 0.960 1_655 S
H636 C649 0.961 . S
H637 C649 0.959 1_655 S
H638 C652 0.929 . S
H639 C653 0.931 . S
H640 C655 0.930 . S
C641 H629 0.930 . S
C641 C642 1.399 . S
C641 C646 1.399 . S
C642 C641 1.399 . S
C642 C643 1.376 . S
C643 H630 0.930 . S
C643 C642 1.376 . S
C643 C644 1.388 . S
C644 H631 0.930 . S
C644 C643 1.388 . S
C644 C645 1.390 . S
C645 C644 1.390 . S
C645 C646 1.394 . S
C645 C651 1.465 1_655 S
C646 C641 1.399 . S
C646 C645 1.394 . S
C646 C647 1.516 1_655 S
C647 C646 1.516 1_455 S
C647 C648 1.502 . S
C647 C649 1.561 . S
C647 C650 1.526 . S
C648 H632 0.959 . S
C648 H633 0.959 . S
C648 H634 0.961 . S
C648 C647 1.502 . S
C649 H635 0.960 1_455 S
C649 H636 0.961 . S
C649 H637 0.959 1_455 S
C649 C647 1.561 . S
C650 C647 1.526 . S
C650 C651 1.396 . S
C650 C655 1.390 . S
C651 C645 1.465 1_455 S
C651 C650 1.396 . S
C651 C652 1.399 . S
C652 H638 0.929 . S
C652 C651 1.399 . S
C652 C653 1.385 . S
C653 H639 0.931 . S
C653 C652 1.385 . S
C653 C654 1.389 . S
C654 C653 1.389 . S
C654 C655 1.387 . S
C655 H640 0.930 . S
C655 C650 1.390 . S
C655 C654 1.387 . S
H656 C668 0.930 . S
H657 C670 0.930 . S
H658 C671 0.930 . S
H659 C675 0.959 . S
H660 C675 0.959 . S
H661 C675 0.961 . S
H662 C676 0.960 . S
H663 C676 0.961 . S
H664 C676 0.959 . S
H665 C679 0.929 . S
H666 C680 0.931 . S
H667 C682 0.930 . S
C668 H656 0.930 . S
C668 C669 1.399 . S
C668 C673 1.399 . S
C669 C668 1.399 . S
C669 C670 1.376 . S
C670 H657 0.930 . S
C670 C669 1.376 . S
C670 C671 1.388 . S
C671 H658 0.930 . S
C671 C670 1.388 . S
C671 C672 1.390 . S
C672 C671 1.390 . S
C672 C673 1.394 . S
C672 C678 1.465 . S
C673 C668 1.399 . S
C673 C672 1.394 . S
C673 C674 1.516 . S
C674 C673 1.516 . S
C674 C675 1.502 . S
C674 C676 1.561 . S
C674 C677 1.526 . S
C675 H659 0.959 . S
C675 H660 0.959 . S
C675 H661 0.961 . S
C675 C674 1.502 . S
C676 H662 0.960 . S
C676 H663 0.961 . S
C676 H664 0.959 . S
C676 C674 1.561 . S
C677 C674 1.526 . S
C677 C678 1.396 . S
C677 C682 1.390 . S
C678 C672 1.465 . S
C678 C677 1.396 . S
C678 C679 1.399 . S
C679 H665 0.929 . S
C679 C678 1.399 . S
C679 C680 1.385 . S
C680 H666 0.931 . S
C680 C679 1.385 . S
C680 C681 1.389 . S
C681 C680 1.389 . S
C681 C682 1.387 . S
C682 H667 0.930 . S
C682 C677 1.390 . S
C682 C681 1.387 . S
H683 C695 0.930 . S
H684 C697 0.930 . S
H685 C698 0.930 . S
H686 C702 0.959 . S
H687 C702 0.959 . S
H688 C702 0.961 . S
H689 C703 0.960 1_545 S
H690 C703 0.961 . S
H691 C703 0.959 1_545 S
H692 C706 0.929 . S
H693 C707 0.931 . S
H694 C709 0.930 . S
C695 H683 0.930 . S
C695 C696 1.399 . S
C695 C700 1.399 . S
C696 C695 1.399 . S
C696 C697 1.376 . S
C697 H684 0.930 . S
C697 C696 1.376 . S
C697 C698 1.388 . S
C698 H685 0.930 . S
C698 C697 1.388 . S
C698 C699 1.390 . S
C699 C698 1.390 . S
C699 C700 1.394 . S
C699 C705 1.465 . S
C700 C695 1.399 . S
C700 C699 1.394 . S
C700 C701 1.516 1_545 S
C701 C700 1.516 1_565 S
C701 C702 1.502 . S
C701 C703 1.561 . S
C701 C704 1.526 . S
C702 H686 0.959 . S
C702 H687 0.959 . S
C702 H688 0.961 . S
C702 C701 1.502 . S
C703 H689 0.960 1_565 S
C703 H690 0.961 . S
C703 H691 0.959 1_565 S
C703 C701 1.561 . S
C704 C701 1.526 . S
C704 C705 1.396 1_565 S
C704 C709 1.390 . S
C705 C699 1.465 . S
C705 C704 1.396 1_545 S
C705 C706 1.399 . S
C706 H692 0.929 . S
C706 C705 1.399 . S
C706 C707 1.385 1_545 S
C707 H693 0.931 . S
C707 C706 1.385 1_565 S
C707 C708 1.389 . S
C708 C707 1.389 . S
C708 C709 1.387 . S
C709 H694 0.930 . S
C709 C704 1.390 . S
C709 C708 1.387 . S
H710 C722 0.930 . S
H711 C724 0.930 . S
H712 C725 0.930 . S
H713 C729 0.959 . S
H714 C729 0.959 . S
H715 C729 0.961 . S
H716 C730 0.960 . S
H717 C730 0.961 . S
H718 C730 0.959 . S
H719 C733 0.929 . S
H720 C734 0.931 . S
H721 C736 0.930 . S
C722 H710 0.930 . S
C722 C723 1.399 . S
C722 C727 1.399 . S
C723 C722 1.399 . S
C723 C724 1.376 . S
C724 H711 0.930 . S
C724 C723 1.376 . S
C724 C725 1.388 . S
C725 H712 0.930 . S
C725 C724 1.388 . S
C725 C726 1.390 . S
C726 C725 1.390 . S
C726 C727 1.394 . S
C726 C732 1.465 . S
C727 C722 1.399 . S
C727 C726 1.394 . S
C727 C728 1.516 . S
C728 C727 1.516 . S
C728 C729 1.502 . S
C728 C730 1.561 . S
C728 C731 1.526 . S
C729 H713 0.959 . S
C729 H714 0.959 . S
C729 H715 0.961 . S
C729 C728 1.502 . S
C730 H716 0.960 . S
C730 H717 0.961 . S
C730 H718 0.959 . S
C730 C728 1.561 . S
C731 C728 1.526 . S
C731 C732 1.396 . S
C731 C736 1.390 . S
C732 C726 1.465 . S
C732 C731 1.396 . S
C732 C733 1.399 . S
C733 H719 0.929 . S
C733 C732 1.399 . S
C733 C734 1.385 . S
C734 H720 0.931 . S
C734 C733 1.385 . S
C734 C735 1.389 . S
C735 C734 1.389 . S
C735 C736 1.387 . S
C736 H721 0.930 . S
C736 C731 1.390 . S
C736 C735 1.387 . S
H737 C749 0.930 . S
H738 C751 0.930 . S
H739 C752 0.930 . S
H740 C756 0.959 1_556 S
H741 C756 0.959 1_556 S
H742 C756 0.961 . S
H743 C757 0.960 . S
H744 C757 0.961 . S
H745 C757 0.959 . S
H746 C760 0.929 . S
H747 C761 0.931 . S
H748 C763 0.930 . S
C749 H737 0.930 . S
C749 C750 1.399 . S
C749 C754 1.399 . S
C750 C749 1.399 . S
C750 C751 1.376 . S
C751 H738 0.930 . S
C751 C750 1.376 . S
C751 C752 1.388 . S
C752 H739 0.930 . S
C752 C751 1.388 . S
C752 C753 1.390 . S
C753 C752 1.390 . S
C753 C754 1.394 . S
C753 C759 1.465 . S
C754 C749 1.399 . S
C754 C753 1.394 . S
C754 C755 1.516 . S
C755 C754 1.516 . S
C755 C756 1.502 . S
C755 C757 1.561 . S
C755 C758 1.526 . S
C756 H740 0.959 1_554 S
C756 H741 0.959 1_554 S
C756 H742 0.961 . S
C756 C755 1.502 . S
C757 H743 0.960 . S
C757 H744 0.961 . S
C757 H745 0.959 . S
C757 C755 1.561 . S
C758 C755 1.526 . S
C758 C759 1.396 . S
C758 C763 1.390 1_554 S
C759 C753 1.465 . S
C759 C758 1.396 . S
C759 C760 1.399 . S
C760 H746 0.929 . S
C760 C759 1.399 . S
C760 C761 1.385 1_554 S
C761 H747 0.931 . S
C761 C760 1.385 1_556 S
C761 C762 1.389 . S
C762 C761 1.389 . S
C762 C763 1.387 . S
C763 H748 0.930 . S
C763 C758 1.390 1_556 S
C763 C762 1.387 . S
H764 C776 0.930 . S
H765 C778 0.930 . S
H766 C779 0.930 . S
H767 C783 0.959 . S
H768 C783 0.959 . S
H769 C783 0.961 1_556 S
H770 C784 0.960 . S
H771 C784 0.961 1_554 S
H772 C784 0.959 . S
H773 C787 0.929 . S
H774 C788 0.931 . S
H775 C790 0.930 . S
C776 H764 0.930 . S
C776 C777 1.399 . S
C776 C781 1.399 . S
C777 C776 1.399 . S
C777 C778 1.376 . S
C778 H765 0.930 . S
C778 C777 1.376 . S
C778 C779 1.388 . S
C779 H766 0.930 . S
C779 C778 1.388 . S
C779 C780 1.390 1_556 S
C780 C779 1.390 1_554 S
C780 C781 1.394 1_554 S
C780 C786 1.465 . S
C781 C776 1.399 . S
C781 C780 1.394 1_556 S
C781 C782 1.516 1_556 S
C782 C781 1.516 1_554 S
C782 C783 1.502 . S
C782 C784 1.561 1_554 S
C782 C785 1.526 . S
C783 H767 0.959 . S
C783 H768 0.959 . S
C783 H769 0.961 1_554 S
C783 C782 1.502 . S
C784 H770 0.960 . S
C784 H771 0.961 1_556 S
C784 H772 0.959 . S
C784 C782 1.561 1_556 S
C785 C782 1.526 . S
C785 C786 1.396 . S
C785 C790 1.390 . S
C786 C780 1.465 . S
C786 C785 1.396 . S
C786 C787 1.399 . S
C787 H773 0.929 . S
C787 C786 1.399 . S
C787 C788 1.385 . S
C788 H774 0.931 . S
C788 C787 1.385 . S
C788 C789 1.389 . S
C789 C788 1.389 . S
C789 C790 1.387 . S
C790 H775 0.930 . S
C790 C785 1.390 . S
C790 C789 1.387 . S
H791 C803 0.930 . S
H792 C805 0.930 . S
H793 C806 0.930 . S
H794 C810 0.959 . S
H795 C810 0.959 . S
H796 C810 0.961 . S
H797 C811 0.960 . S
H798 C811 0.961 . S
H799 C811 0.959 . S
H800 C814 0.929 . S
H801 C815 0.931 . S
H802 C817 0.930 . S
C803 H791 0.930 . S
C803 C804 1.399 . S
C803 C808 1.399 . S
C804 C803 1.399 . S
C804 C805 1.376 . S
C805 H792 0.930 . S
C805 C804 1.376 . S
C805 C806 1.388 . S
C806 H793 0.930 . S
C806 C805 1.388 . S
C806 C807 1.390 . S
C807 C806 1.390 . S
C807 C808 1.394 . S
C807 C813 1.465 . S
C808 C803 1.399 . S
C808 C807 1.394 . S
C808 C809 1.516 . S
C809 C808 1.516 . S
C809 C810 1.502 . S
C809 C811 1.561 . S
C809 C812 1.526 . S
C810 H794 0.959 . S
C810 H795 0.959 . S
C810 H796 0.961 . S
C810 C809 1.502 . S
C811 H797 0.960 . S
C811 H798 0.961 . S
C811 H799 0.959 . S
C811 C809 1.561 . S
C812 C809 1.526 . S
C812 C813 1.396 . S
C812 C817 1.390 . S
C813 C807 1.465 . S
C813 C812 1.396 . S
C813 C814 1.399 . S
C814 H800 0.929 . S
C814 C813 1.399 . S
C814 C815 1.385 . S
C815 H801 0.931 . S
C815 C814 1.385 . S
C815 C816 1.389 . S
C816 C815 1.389 . S
C816 C817 1.387 . S
C817 H802 0.930 . S
C817 C812 1.390 . S
C817 C816 1.387 . S
H818 C830 0.930 . S
H819 C832 0.930 . S
H820 C833 0.930 . S
H821 C837 0.959 . S
H822 C837 0.959 . S
H823 C837 0.961 . S
H824 C838 0.960 . S
H825 C838 0.961 . S
H826 C838 0.959 . S
H827 C841 0.929 . S
H828 C842 0.931 . S
H829 C844 0.930 . S
C830 H818 0.930 . S
C830 C831 1.399 . S
C830 C835 1.399 . S
C831 C830 1.399 . S
C831 C832 1.376 . S
C832 H819 0.930 . S
C832 C831 1.376 . S
C832 C833 1.388 . S
C833 H820 0.930 . S
C833 C832 1.388 . S
C833 C834 1.390 . S
C834 C833 1.390 . S
C834 C835 1.394 . S
C834 C840 1.465 . S
C835 C830 1.399 . S
C835 C834 1.394 . S
C835 C836 1.516 . S
C836 C835 1.516 . S
C836 C837 1.502 . S
C836 C838 1.561 . S
C836 C839 1.526 . S
C837 H821 0.959 . S
C837 H822 0.959 . S
C837 H823 0.961 . S
C837 C836 1.502 . S
C838 H824 0.960 . S
C838 H825 0.961 . S
C838 H826 0.959 . S
C838 C836 1.561 . S
C839 C836 1.526 . S
C839 C840 1.396 . S
C839 C844 1.390 . S
C840 C834 1.465 . S
C840 C839 1.396 . S
C840 C841 1.399 . S
C841 H827 0.929 . S
C841 C840 1.399 . S
C841 C842 1.385 . S
C842 H828 0.931 . S
C842 C841 1.385 . S
C842 C843 1.389 . S
C843 C842 1.389 . S
C843 C844 1.387 . S
C844 H829 0.930 . S
C844 C839 1.390 . S
C844 C843 1.387 . S
H845 C857 0.930 . S
H846 C859 0.930 . S
H847 C860 0.930 1_655 S
H848 C864 0.959 1_655 S
H849 C864 0.959 . S
H850 C864 0.961 . S
H851 C865 0.960 . S
H852 C865 0.961 . S
H853 C865 0.959 . S
H854 C868 0.929 . S
H855 C869 0.931 . S
H856 C871 0.930 . S
C857 H845 0.930 . S
C857 C858 1.399 . S
C857 C862 1.399 . S
C858 C857 1.399 . S
C858 C859 1.376 . S
C859 H846 0.930 . S
C859 C858 1.376 . S
C859 C860 1.388 . S
C860 H847 0.930 1_455 S
C860 C859 1.388 . S
C860 C861 1.390 . S
C861 C860 1.390 . S
C861 C862 1.394 . S
C861 C867 1.465 1_455 S
C862 C857 1.399 . S
C862 C861 1.394 . S
C862 C863 1.516 . S
C863 C862 1.516 . S
C863 C864 1.502 . S
C863 C865 1.561 . S
C863 C866 1.526 1_455 S
C864 H848 0.959 1_455 S
C864 H849 0.959 . S
C864 H850 0.961 . S
C864 C863 1.502 . S
C865 H851 0.960 . S
C865 H852 0.961 . S
C865 H853 0.959 . S
C865 C863 1.561 . S
C866 C863 1.526 1_655 S
C866 C867 1.396 . S
C866 C871 1.390 . S
C867 C861 1.465 1_655 S
C867 C866 1.396 . S
C867 C868 1.399 . S
C868 H854 0.929 . S
C868 C867 1.399 . S
C868 C869 1.385 . S
C869 H855 0.931 . S
C869 C868 1.385 . S
C869 C870 1.389 . S
C870 C869 1.389 . S
C870 C871 1.387 . S
C871 H856 0.930 . S
C871 C866 1.390 . S
C871 C870 1.387 . S
H872 C884 0.930 . S
H873 C886 0.930 . S
H874 C887 0.930 . S
H875 C891 0.959 . S
H876 C891 0.959 . S
H877 C891 0.961 . S
H878 C892 0.960 1_455 S
H879 C892 0.961 . S
H880 C892 0.959 . S
H881 C895 0.929 . S
H882 C896 0.931 . S
H883 C898 0.930 . S
C884 H872 0.930 . S
C884 C885 1.399 . S
C884 C889 1.399 . S
C885 C884 1.399 . S
C885 C886 1.376 . S
C886 H873 0.930 . S
C886 C885 1.376 . S
C886 C887 1.388 . S
C887 H874 0.930 . S
C887 C886 1.388 . S
C887 C888 1.390 . S
C888 C887 1.390 . S
C888 C889 1.394 . S
C888 C894 1.465 1_455 S
C889 C884 1.399 . S
C889 C888 1.394 . S
C889 C890 1.516 . S
C890 C889 1.516 . S
C890 C891 1.502 . S
C890 C892 1.561 1_455 S
C890 C893 1.526 1_455 S
C891 H875 0.959 . S
C891 H876 0.959 . S
C891 H877 0.961 . S
C891 C890 1.502 . S
C892 H878 0.960 1_655 S
C892 H879 0.961 . S
C892 H880 0.959 . S
C892 C890 1.561 1_655 S
C893 C890 1.526 1_655 S
C893 C894 1.396 . S
C893 C898 1.390 . S
C894 C888 1.465 1_655 S
C894 C893 1.396 . S
C894 C895 1.399 . S
C895 H881 0.929 . S
C895 C894 1.399 . S
C895 C896 1.385 . S
C896 H882 0.931 . S
C896 C895 1.385 . S
C896 C897 1.389 . S
C897 C896 1.389 . S
C897 C898 1.387 . S
C898 H883 0.930 . S
C898 C893 1.390 . S
C898 C897 1.387 . S
H899 C911 0.930 . S
H900 C913 0.930 . S
H901 C914 0.930 . S
H902 C918 0.959 . S
H903 C918 0.959 . S
H904 C918 0.961 . S
H905 C919 0.960 . S
H906 C919 0.961 . S
H907 C919 0.959 . S
H908 C922 0.929 . S
H909 C923 0.931 . S
H910 C925 0.930 . S
C911 H899 0.930 . S
C911 C912 1.399 . S
C911 C916 1.399 . S
C912 C911 1.399 . S
C912 C913 1.376 . S
C913 H900 0.930 . S
C913 C912 1.376 . S
C913 C914 1.388 . S
C914 H901 0.930 . S
C914 C913 1.388 . S
C914 C915 1.390 . S
C915 C914 1.390 . S
C915 C916 1.394 . S
C915 C921 1.465 . S
C916 C911 1.399 . S
C916 C915 1.394 . S
C916 C917 1.516 . S
C917 C916 1.516 . S
C917 C918 1.502 . S
C917 C919 1.561 . S
C917 C920 1.526 . S
C918 H902 0.959 . S
C918 H903 0.959 . S
C918 H904 0.961 . S
C918 C917 1.502 . S
C919 H905 0.960 . S
C919 H906 0.961 . S
C919 H907 0.959 . S
C919 C917 1.561 . S
C920 C917 1.526 . S
C920 C921 1.396 . S
C920 C925 1.390 . S
C921 C915 1.465 . S
C921 C920 1.396 . S
C921 C922 1.399 . S
C922 H908 0.929 . S
C922 C921 1.399 . S
C922 C923 1.385 . S
C923 H909 0.931 . S
C923 C922 1.385 . S
C923 C924 1.389 . S
C924 C923 1.389 . S
C924 C925 1.387 . S
C925 H910 0.930 . S
C925 C920 1.390 . S
C925 C924 1.387 . S
H926 C938 0.930 . S
H927 C940 0.930 . S
H928 C941 0.930 . S
H929 C945 0.959 . S
H930 C945 0.959 . S
H931 C945 0.961 . S
H932 C946 0.960 . S
H933 C946 0.961 . S
H934 C946 0.959 . S
H935 C949 0.929 . S
H936 C950 0.931 . S
H937 C952 0.930 . S
C938 H926 0.930 . S
C938 C939 1.399 . S
C938 C943 1.399 . S
C939 C938 1.399 . S
C939 C940 1.376 . S
C940 H927 0.930 . S
C940 C939 1.376 . S
C940 C941 1.388 . S
C941 H928 0.930 . S
C941 C940 1.388 . S
C941 C942 1.390 . S
C942 C941 1.390 . S
C942 C943 1.394 . S
C942 C948 1.465 . S
C943 C938 1.399 . S
C943 C942 1.394 . S
C943 C944 1.516 . S
C944 C943 1.516 . S
C944 C945 1.502 . S
C944 C946 1.561 . S
C944 C947 1.526 . S
C945 H929 0.959 . S
C945 H930 0.959 . S
C945 H931 0.961 . S
C945 C944 1.502 . S
C946 H932 0.960 . S
C946 H933 0.961 . S
C946 H934 0.959 . S
C946 C944 1.561 . S
C947 C944 1.526 . S
C947 C948 1.396 . S
C947 C952 1.390 . S
C948 C942 1.465 . S
C948 C947 1.396 . S
C948 C949 1.399 . S
C949 H935 0.929 . S
C949 C948 1.399 . S
C949 C950 1.385 . S
C950 H936 0.931 . S
C950 C949 1.385 . S
C950 C951 1.389 . S
C951 C950 1.389 . S
C951 C952 1.387 . S
C952 H937 0.930 . S
C952 C947 1.390 . S
C952 C951 1.387 . S
H953 C965 0.930 . S
H954 C967 0.930 . S
H955 C968 0.930 . S
H956 C972 0.959 . S
H957 C972 0.959 . S
H958 C972 0.961 . S
H959 C973 0.960 . S
H960 C973 0.961 . S
H961 C973 0.959 . S
H962 C976 0.929 1_545 S
H963 C977 0.931 . S
H964 C979 0.930 . S
C965 H953 0.930 . S
C965 C966 1.399 . S
C965 C970 1.399 . S
C966 C965 1.399 . S
C966 C967 1.376 . S
C967 H954 0.930 . S
C967 C966 1.376 . S
C967 C968 1.388 . S
C968 H955 0.930 . S
C968 C967 1.388 . S
C968 C969 1.390 . S
C969 C968 1.390 . S
C969 C970 1.394 . S
C969 C975 1.465 1_545 S
C970 C965 1.399 . S
C970 C969 1.394 . S
C970 C971 1.516 1_545 S
C971 C970 1.516 1_565 S
C971 C972 1.502 . S
C971 C973 1.561 . S
C971 C974 1.526 . S
C972 H956 0.959 . S
C972 H957 0.959 . S
C972 H958 0.961 . S
C972 C971 1.502 . S
C973 H959 0.960 . S
C973 H960 0.961 . S
C973 H961 0.959 . S
C973 C971 1.561 . S
C974 C971 1.526 . S
C974 C975 1.396 . S
C974 C979 1.390 . S
C975 C969 1.465 1_565 S
C975 C974 1.396 . S
C975 C976 1.399 . S
C976 H962 0.929 1_565 S
C976 C975 1.399 . S
C976 C977 1.385 . S
C977 H963 0.931 . S
C977 C976 1.385 . S
C977 C978 1.389 . S
C978 C977 1.389 . S
C978 C979 1.387 . S
C979 H964 0.930 . S
C979 C974 1.390 . S
C979 C978 1.387 . S
H980 C992 0.930 . S
H981 C994 0.930 . S
H982 C995 0.930 . S
H983 C999 0.959 . S
H984 C999 0.959 . S
H985 C999 0.961 . S
H986 C1000 0.960 . S
H987 C1000 0.961 . S
H988 C1000 0.959 . S
H989 C1003 0.929 . S
H990 C1004 0.931 . S
H991 C1006 0.930 . S
C992 H980 0.930 . S
C992 C993 1.399 . S
C992 C997 1.399 . S
C993 C992 1.399 . S
C993 C994 1.376 . S
C994 H981 0.930 . S
C994 C993 1.376 . S
C994 C995 1.388 . S
C995 H982 0.930 . S
C995 C994 1.388 . S
C995 C996 1.390 . S
C996 C995 1.390 . S
C996 C997 1.394 . S
C996 C1002 1.465 . S
C997 C992 1.399 . S
C997 C996 1.394 . S
C997 C998 1.516 . S
C998 C997 1.516 . S
C998 C999 1.502 . S
C998 C1000 1.561 . S
C998 C1001 1.526 . S
C999 H983 0.959 . S
C999 H984 0.959 . S
C999 H985 0.961 . S
C999 C998 1.502 . S
C1000 H986 0.960 . S
C1000 H987 0.961 . S
C1000 H988 0.959 . S
C1000 C998 1.561 . S
C1001 C998 1.526 . S
C1001 C1002 1.396 . S
C1001 C1006 1.390 . S
C1002 C996 1.465 . S
C1002 C1001 1.396 . S
C1002 C1003 1.399 . S
C1003 H989 0.929 . S
C1003 C1002 1.399 . S
C1003 C1004 1.385 . S
C1004 H990 0.931 . S
C1004 C1003 1.385 . S
C1004 C1005 1.389 . S
C1005 C1004 1.389 . S
C1005 C1006 1.387 . S
C1006 H991 0.930 . S
C1006 C1001 1.390 . S
C1006 C1005 1.387 . S
H1007 C1019 0.930 . S
H1008 C1021 0.930 . S
H1009 C1022 0.930 . S
H1010 C1026 0.959 . S
H1011 C1026 0.959 . S
H1012 C1026 0.961 . S
H1013 C1027 0.960 . S
H1014 C1027 0.961 . S
H1015 C1027 0.959 . S
H1016 C1030 0.929 . S
H1017 C1031 0.931 . S
H1018 C1033 0.930 . S
C1019 H1007 0.930 . S
C1019 C1020 1.399 . S
C1019 C1024 1.399 . S
C1020 C1019 1.399 . S
C1020 C1021 1.376 . S
C1021 H1008 0.930 . S
C1021 C1020 1.376 . S
C1021 C1022 1.388 . S
C1022 H1009 0.930 . S
C1022 C1021 1.388 . S
C1022 C1023 1.390 . S
C1023 C1022 1.390 . S
C1023 C1024 1.394 . S
C1023 C1029 1.465 . S
C1024 C1019 1.399 . S
C1024 C1023 1.394 . S
C1024 C1025 1.516 . S
C1025 C1024 1.516 . S
C1025 C1026 1.502 . S
C1025 C1027 1.561 . S
C1025 C1028 1.526 . S
C1026 H1010 0.959 . S
C1026 H1011 0.959 . S
C1026 H1012 0.961 . S
C1026 C1025 1.502 . S
C1027 H1013 0.960 . S
C1027 H1014 0.961 . S
C1027 H1015 0.959 . S
C1027 C1025 1.561 . S
C1028 C1025 1.526 . S
C1028 C1029 1.396 . S
C1028 C1033 1.390 . S
C1029 C1023 1.465 . S
C1029 C1028 1.396 . S
C1029 C1030 1.399 . S
C1030 H1016 0.929 . S
C1030 C1029 1.399 . S
C1030 C1031 1.385 . S
C1031 H1017 0.931 . S
C1031 C1030 1.385 . S
C1031 C1032 1.389 . S
C1032 C1031 1.389 . S
C1032 C1033 1.387 . S
C1033 H1018 0.930 . S
C1033 C1028 1.390 . S
C1033 C1032 1.387 . S
H1034 C1046 0.930 . S
H1035 C1048 0.930 . S
H1036 C1049 0.930 1_565 S
H1037 C1053 0.959 . S
H1038 C1053 0.959 . S
H1039 C1053 0.961 . S
H1040 C1054 0.960 . S
H1041 C1054 0.961 . S
H1042 C1054 0.959 . S
H1043 C1057 0.929 . S
H1044 C1058 0.931 . S
H1045 C1060 0.930 . S
C1046 H1034 0.930 . S
C1046 C1047 1.399 . S
C1046 C1051 1.399 . S
C1047 C1046 1.399 . S
C1047 C1048 1.376 . S
C1048 H1035 0.930 . S
C1048 C1047 1.376 . S
C1048 C1049 1.388 . S
C1049 H1036 0.930 1_545 S
C1049 C1048 1.388 . S
C1049 C1050 1.390 . S
C1050 C1049 1.390 . S
C1050 C1051 1.394 . S
C1050 C1056 1.465 1_545 S
C1051 C1046 1.399 . S
C1051 C1050 1.394 . S
C1051 C1052 1.516 . S
C1052 C1051 1.516 . S
C1052 C1053 1.502 . S
C1052 C1054 1.561 . S
C1052 C1055 1.526 1_545 S
C1053 H1037 0.959 . S
C1053 H1038 0.959 . S
C1053 H1039 0.961 . S
C1053 C1052 1.502 . S
C1054 H1040 0.960 . S
C1054 H1041 0.961 . S
C1054 H1042 0.959 . S
C1054 C1052 1.561 . S
C1055 C1052 1.526 1_565 S
C1055 C1056 1.396 . S
C1055 C1060 1.390 . S
C1056 C1050 1.465 1_565 S
C1056 C1055 1.396 . S
C1056 C1057 1.399 . S
C1057 H1043 0.929 . S
C1057 C1056 1.399 . S
C1057 C1058 1.385 . S
C1058 H1044 0.931 . S
C1058 C1057 1.385 . S
C1058 C1059 1.389 . S
C1059 C1058 1.389 . S
C1059 C1060 1.387 . S
C1060 H1045 0.930 . S
C1060 C1055 1.390 . S
C1060 C1059 1.387 . S
H1061 C1073 0.930 . S
H1062 C1075 0.930 . S
H1063 C1076 0.930 . S
H1064 C1080 0.959 . S
H1065 C1080 0.959 . S
H1066 C1080 0.961 . S
H1067 C1081 0.960 . S
H1068 C1081 0.961 . S
H1069 C1081 0.959 . S
H1070 C1084 0.929 . S
H1071 C1085 0.931 . S
H1072 C1087 0.930 . S
C1073 H1061 0.930 . S
C1073 C1074 1.399 . S
C1073 C1078 1.399 . S
C1074 C1073 1.399 . S
C1074 C1075 1.376 . S
C1075 H1062 0.930 . S
C1075 C1074 1.376 . S
C1075 C1076 1.388 . S
C1076 H1063 0.930 . S
C1076 C1075 1.388 . S
C1076 C1077 1.390 . S
C1077 C1076 1.390 . S
C1077 C1078 1.394 . S
C1077 C1083 1.465 . S
C1078 C1073 1.399 . S
C1078 C1077 1.394 . S
C1078 C1079 1.516 . S
C1079 C1078 1.516 . S
C1079 C1080 1.502 . S
C1079 C1081 1.561 . S
C1079 C1082 1.526 . S
C1080 H1064 0.959 . S
C1080 H1065 0.959 . S
C1080 H1066 0.961 . S
C1080 C1079 1.502 . S
C1081 H1067 0.960 . S
C1081 H1068 0.961 . S
C1081 H1069 0.959 . S
C1081 C1079 1.561 . S
C1082 C1079 1.526 . S
C1082 C1083 1.396 . S
C1082 C1087 1.390 . S
C1083 C1077 1.465 . S
C1083 C1082 1.396 . S
C1083 C1084 1.399 . S
C1084 H1070 0.929 . S
C1084 C1083 1.399 . S
C1084 C1085 1.385 . S
C1085 H1071 0.931 . S
C1085 C1084 1.385 . S
C1085 C1086 1.389 . S
C1086 C1085 1.389 . S
C1086 C1087 1.387 . S
C1087 H1072 0.930 . S
C1087 C1082 1.390 . S
C1087 C1086 1.387 . S
C237 C7 1.294 . S
C249 C189 1.365 . S
C264 C21 1.368 . S
C276 C133 1.401 . S
C291 C203 0.456 . S
C303 C35 0.448 . S
C318 C49 0.727 . S
C330 C217 0.679 . S
C345 C63 1.443 . S
C357 C91 1.399 . S
C372 C147 1.292 . S
C384 C77 1.308 . S
C399 C161 0.639 . S
C411 C105 0.572 . S
C426 C119 0.778 . S
C438 C175 0.724 . S
C453 C36 1.553 . S
C465 C8 1.576 . S
C480 C22 1.593 . S
C492 C45 1.605 . S
C507 C177 1.500 . S
C519 C3 1.495 . S
C534 C17 1.565 . S
C546 C157 1.587 . S
C561 C59 1.565 . S
C573 C31 1.587 . S
C588 C143 1.482 . S
C600 C51 1.515 . S
C615 C23 1.970 . S
C627 C9 1.938 . S
C642 C50 1.510 . S
C654 C37 1.537 . S
C669 C149 1.940 . S
C681 C65 1.964 . S
C696 C101 1.820 . S
C708 C79 1.822 . S
C723 C93 1.490 . S
C735 C115 1.539 . S
C750 C218 1.845 . S
C762 C73 1.847 . S
C777 C87 1.395 . S
C789 C204 1.382 . S
C804 C129 1.393 . S
C816 C106 1.375 . S
C831 C120 1.838 . S
C843 C185 1.851 . S
C858 C92 1.541 . S
C870 C78 1.525 . S
C885 C121 1.661 . S
C897 C107 1.650 . S
C912 C134 1.552 . S
C924 C190 1.544 . S
C939 C148 1.576 . S
C951 C162 1.545 . S
C966 C171 1.572 . S
C978 C64 1.606 . S
C993 C176 1.511 . S
C1005 C163 1.541 . S
C1020 C199 1.838 . S
C1032 C191 1.795 . S
C1047 C135 1.496 . S
C1059 C213 1.523 . S
C1074 C219 1.661 . S
C1086 C205 1.652 . S
