# Generated by pormake.
# Topology lta, (4)-cn, num edge types: 1
# Building blocks:
#     Node 0, Type 0, BuildingBlock: QUQFOY_clean_sbu_1, # of connection points: 4
#     Node 1, Type 0, BuildingBlock: QUQFOY_clean_sbu_1, # of connection points: 4
#     Node 2, Type 0, BuildingBlock: QUQFOY_clean_sbu_1, # of connection points: 4
#     Node 3, Type 0, BuildingBlock: QUQFOY_clean_sbu_1, # of connection points: 4
#     Node 4, Type 0, BuildingBlock: QUQFOY_clean_sbu_1, # of connection points: 4
#     Node 5, Type 0, BuildingBlock: QUQFOY_clean_sbu_1, # of connection points: 4
#     Node 6, Type 0, BuildingBlock: QUQFOY_clean_sbu_1, # of connection points: 4
#     Node 7, Type 0, BuildingBlock: QUQFOY_clean_sbu_1, # of connection points: 4
#     Node 8, Type 0, BuildingBlock: QUQFOY_clean_sbu_1, # of connection points: 4
#     Node 9, Type 0, BuildingBlock: QUQFOY_clean_sbu_1, # of connection points: 4
#     Node 10, Type 0, BuildingBlock: QUQFOY_clean_sbu_1, # of connection points: 4
#     Node 11, Type 0, BuildingBlock: QUQFOY_clean_sbu_1, # of connection points: 4
#     Node 12, Type 0, BuildingBlock: QUQFOY_clean_sbu_1, # of connection points: 4
#     Node 13, Type 0, BuildingBlock: QUQFOY_clean_sbu_1, # of connection points: 4
#     Node 14, Type 0, BuildingBlock: QUQFOY_clean_sbu_1, # of connection points: 4
#     Node 15, Type 0, BuildingBlock: QUQFOY_clean_sbu_1, # of connection points: 4
#     Node 16, Type 0, BuildingBlock: QUQFOY_clean_sbu_1, # of connection points: 4
#     Node 17, Type 0, BuildingBlock: QUQFOY_clean_sbu_1, # of connection points: 4
#     Node 18, Type 0, BuildingBlock: QUQFOY_clean_sbu_1, # of connection points: 4
#     Node 19, Type 0, BuildingBlock: QUQFOY_clean_sbu_1, # of connection points: 4
#     Node 20, Type 0, BuildingBlock: QUQFOY_clean_sbu_1, # of connection points: 4
#     Node 21, Type 0, BuildingBlock: QUQFOY_clean_sbu_1, # of connection points: 4
#     Node 22, Type 0, BuildingBlock: QUQFOY_clean_sbu_1, # of connection points: 4
#     Node 23, Type 0, BuildingBlock: QUQFOY_clean_sbu_1, # of connection points: 4
#     Edge 24, Type (0, 0), BuildingBlock: AJUNOK_clean_linker_0, # of connection points: 2
#     Edge 25, Type (0, 0), BuildingBlock: AJUNOK_clean_linker_0, # of connection points: 2
#     Edge 26, Type (0, 0), BuildingBlock: AJUNOK_clean_linker_0, # of connection points: 2
#     Edge 27, Type (0, 0), BuildingBlock: AJUNOK_clean_linker_0, # of connection points: 2
#     Edge 28, Type (0, 0), BuildingBlock: AJUNOK_clean_linker_0, # of connection points: 2
#     Edge 29, Type (0, 0), BuildingBlock: AJUNOK_clean_linker_0, # of connection points: 2
#     Edge 30, Type (0, 0), BuildingBlock: AJUNOK_clean_linker_0, # of connection points: 2
#     Edge 31, Type (0, 0), BuildingBlock: AJUNOK_clean_linker_0, # of connection points: 2
#     Edge 32, Type (0, 0), BuildingBlock: AJUNOK_clean_linker_0, # of connection points: 2
#     Edge 33, Type (0, 0), BuildingBlock: AJUNOK_clean_linker_0, # of connection points: 2
#     Edge 34, Type (0, 0), BuildingBlock: AJUNOK_clean_linker_0, # of connection points: 2
#     Edge 35, Type (0, 0), BuildingBlock: AJUNOK_clean_linker_0, # of connection points: 2
#     Edge 36, Type (0, 0), BuildingBlock: AJUNOK_clean_linker_0, # of connection points: 2
#     Edge 37, Type (0, 0), BuildingBlock: AJUNOK_clean_linker_0, # of connection points: 2
#     Edge 38, Type (0, 0), BuildingBlock: AJUNOK_clean_linker_0, # of connection points: 2
#     Edge 39, Type (0, 0), BuildingBlock: AJUNOK_clean_linker_0, # of connection points: 2
#     Edge 40, Type (0, 0), BuildingBlock: AJUNOK_clean_linker_0, # of connection points: 2
#     Edge 41, Type (0, 0), BuildingBlock: AJUNOK_clean_linker_0, # of connection points: 2
#     Edge 42, Type (0, 0), BuildingBlock: AJUNOK_clean_linker_0, # of connection points: 2
#     Edge 43, Type (0, 0), BuildingBlock: AJUNOK_clean_linker_0, # of connection points: 2
#     Edge 44, Type (0, 0), BuildingBlock: AJUNOK_clean_linker_0, # of connection points: 2
#     Edge 45, Type (0, 0), BuildingBlock: AJUNOK_clean_linker_0, # of connection points: 2
#     Edge 46, Type (0, 0), BuildingBlock: AJUNOK_clean_linker_0, # of connection points: 2
#     Edge 47, Type (0, 0), BuildingBlock: AJUNOK_clean_linker_0, # of connection points: 2
#     Edge 48, Type (0, 0), BuildingBlock: AJUNOK_clean_linker_0, # of connection points: 2
#     Edge 49, Type (0, 0), BuildingBlock: AJUNOK_clean_linker_0, # of connection points: 2
#     Edge 50, Type (0, 0), BuildingBlock: AJUNOK_clean_linker_0, # of connection points: 2
#     Edge 51, Type (0, 0), BuildingBlock: AJUNOK_clean_linker_0, # of connection points: 2
#     Edge 52, Type (0, 0), BuildingBlock: AJUNOK_clean_linker_0, # of connection points: 2
#     Edge 53, Type (0, 0), BuildingBlock: AJUNOK_clean_linker_0, # of connection points: 2
#     Edge 54, Type (0, 0), BuildingBlock: AJUNOK_clean_linker_0, # of connection points: 2
#     Edge 55, Type (0, 0), BuildingBlock: AJUNOK_clean_linker_0, # of connection points: 2
#     Edge 56, Type (0, 0), BuildingBlock: AJUNOK_clean_linker_0, # of connection points: 2
#     Edge 57, Type (0, 0), BuildingBlock: AJUNOK_clean_linker_0, # of connection points: 2
#     Edge 58, Type (0, 0), BuildingBlock: AJUNOK_clean_linker_0, # of connection points: 2
#     Edge 59, Type (0, 0), BuildingBlock: AJUNOK_clean_linker_0, # of connection points: 2
#     Edge 60, Type (0, 0), BuildingBlock: AJUNOK_clean_linker_0, # of connection points: 2
#     Edge 61, Type (0, 0), BuildingBlock: AJUNOK_clean_linker_0, # of connection points: 2
#     Edge 62, Type (0, 0), BuildingBlock: AJUNOK_clean_linker_0, # of connection points: 2
#     Edge 63, Type (0, 0), BuildingBlock: AJUNOK_clean_linker_0, # of connection points: 2
#     Edge 64, Type (0, 0), BuildingBlock: AJUNOK_clean_linker_0, # of connection points: 2
#     Edge 65, Type (0, 0), BuildingBlock: AJUNOK_clean_linker_0, # of connection points: 2
#     Edge 66, Type (0, 0), BuildingBlock: AJUNOK_clean_linker_0, # of connection points: 2
#     Edge 67, Type (0, 0), BuildingBlock: AJUNOK_clean_linker_0, # of connection points: 2
#     Edge 68, Type (0, 0), BuildingBlock: AJUNOK_clean_linker_0, # of connection points: 2
#     Edge 69, Type (0, 0), BuildingBlock: AJUNOK_clean_linker_0, # of connection points: 2
#     Edge 70, Type (0, 0), BuildingBlock: AJUNOK_clean_linker_0, # of connection points: 2
#     Edge 71, Type (0, 0), BuildingBlock: AJUNOK_clean_linker_0, # of connection points: 2
# Relax obj value: 0.321
# Max RMSD: 0.229
# Mean RMSD: 0.229
data_MOF--net-lta--node1-QUQFOY_clean_sbu_1--edge1-AJUNOK_clean_linker_0
_symmetry_space_group_name_H-M    P1
_symmetry_Int_Tables_number       1
_symmetry_cell_setting            triclinic
loop_
_symmetry_equiv_pos_as_xyz
'x, y, z'
_cell_length_a     43.99968
_cell_length_b     44.015017
_cell_length_c     44.017945
_cell_angle_alpha  90.013208
_cell_angle_beta   89.975159
_cell_angle_gamma 89.991635
loop_
_atom_site_label
_atom_site_type_symbol
_atom_site_fract_x
_atom_site_fract_y
_atom_site_fract_z
_atom_type_partial_charge
O0 O 0.13834 0.31889 0.5669 0.0
Cd1 Cd 0.12695 0.28294 0.53926 0.0
Cd2 Cd 0.11676 0.32571 0.4924 0.0
O3 O 0.12974 0.35116 0.52975 0.0
O4 O 0.15206 0.24643 0.54822 0.0
O5 O 0.15435 0.27208 0.50481 0.0
C6 C 0.16365 0.24967 0.52142 0.0
C7 C 0.12329 0.35529 0.44826 0.0
C8 C 0.13735 0.34597 0.55712 0.0
C9 C 0.06518 0.2832 0.51247 0.0
O10 O 0.07613 0.3019 0.49334 0.0
O11 O 0.08132 0.2733 0.53428 0.0
O12 O 0.1029 0.36115 0.46823 0.0
O13 O 0.13991 0.33152 0.45246 0.0
O14 O 0.67937 0.13361 0.56849 0.0
Cd15 Cd 0.71421 0.12507 0.53845 0.0
Cd16 Cd 0.66995 0.11569 0.49367 0.0
O17 O 0.64556 0.12405 0.53296 0.0
O18 O 0.75077 0.14965 0.54848 0.0
O19 O 0.7241 0.15518 0.50601 0.0
C20 C 0.74691 0.16323 0.52273 0.0
C21 C 0.63975 0.12658 0.45098 0.0
C22 C 0.65187 0.13076 0.56032 0.0
C23 C 0.71438 0.06457 0.50833 0.0
O24 O 0.6945 0.07572 0.49057 0.0
O25 O 0.72476 0.08006 0.5304 0.0
O26 O 0.63388 0.10441 0.46892 0.0
O27 O 0.66375 0.14251 0.45626 0.0
O28 O 0.8621 0.68108 0.56874 0.0
Cd29 Cd 0.87409 0.71675 0.54098 0.0
Cd30 Cd 0.88223 0.67393 0.4936 0.0
O31 O 0.868 0.64903 0.53085 0.0
O32 O 0.84935 0.75371 0.54917 0.0
O33 O 0.8467 0.72707 0.5064 0.0
C34 C 0.83761 0.74992 0.5225 0.0
C35 C 0.87501 0.6444 0.44962 0.0
C36 C 0.86109 0.6542 0.55839 0.0
C37 C 0.93528 0.71514 0.51305 0.0
O38 O 0.92352 0.69662 0.49424 0.0
O39 O 0.91983 0.72549 0.53517 0.0
O40 O 0.89508 0.63795 0.46972 0.0
O41 O 0.85914 0.6687 0.45361 0.0
O42 O 0.31711 0.86557 0.56665 0.0
Cd43 Cd 0.28636 0.87542 0.53243 0.0
Cd44 Cd 0.33659 0.87527 0.49546 0.0
O45 O 0.35466 0.85725 0.53472 0.0
O46 O 0.24694 0.85473 0.54038 0.0
O47 O 0.27682 0.84394 0.50114 0.0
C48 C 0.25206 0.83889 0.51618 0.0
C49 C 0.36407 0.86174 0.4517 0.0
C50 C 0.34436 0.85741 0.56168 0.0
C51 C 0.30158 0.93473 0.50602 0.0
O52 O 0.32468 0.92067 0.49584 0.0
O53 O 0.28114 0.92057 0.5207 0.0
O54 O 0.37556 0.87814 0.47285 0.0
O55 O 0.3364 0.85266 0.45491 0.0
O56 O 0.13331 0.67824 0.43868 0.0
Cd57 Cd 0.12456 0.71462 0.46687 0.0
Cd58 Cd 0.11894 0.67354 0.51364 0.0
O59 O 0.12586 0.64605 0.47609 0.0
O60 O 0.14827 0.75105 0.45433 0.0
O61 O 0.15509 0.7269 0.49811 0.0
C62 C 0.16252 0.74875 0.4799 0.0
C63 C 0.13579 0.64976 0.55821 0.0
C64 C 0.13155 0.65109 0.44825 0.0
C65 C 0.06537 0.71487 0.49929 0.0
O66 O 0.07803 0.69642 0.51755 0.0
O67 O 0.07945 0.72431 0.47588 0.0
O68 O 0.11234 0.64045 0.54363 0.0
O69 O 0.14988 0.67339 0.54817 0.0
O70 O 0.32046 0.13611 0.4318 0.0
Cd71 Cd 0.28865 0.12574 0.46489 0.0
Cd72 Cd 0.33829 0.12492 0.50342 0.0
O73 O 0.35733 0.14332 0.4648 0.0
O74 O 0.2495 0.1464 0.45579 0.0
O75 O 0.27786 0.15679 0.49621 0.0
C76 C 0.25372 0.16206 0.48026 0.0
C77 C 0.36564 0.13669 0.54785 0.0
C78 C 0.3476 0.14405 0.43766 0.0
C79 C 0.3026 0.06602 0.49108 0.0
O80 O 0.32542 0.07978 0.50223 0.0
O81 O 0.28286 0.08047 0.47576 0.0
O82 O 0.37682 0.12036 0.52646 0.0
O83 O 0.33842 0.14694 0.54431 0.0
O84 O 0.86653 0.32304 0.44451 0.0
Cd85 Cd 0.87483 0.2869 0.47299 0.0
Cd86 Cd 0.88401 0.32889 0.51775 0.0
O87 O 0.87838 0.3564 0.47985 0.0
O88 O 0.85031 0.25108 0.46043 0.0
O89 O 0.84434 0.275 0.50445 0.0
C90 C 0.83631 0.25344 0.48614 0.0
C91 C 0.86769 0.35163 0.56309 0.0
C92 C 0.87085 0.35038 0.45259 0.0
C93 C 0.93507 0.2848 0.50303 0.0
O94 O 0.92379 0.30411 0.52131 0.0
O95 O 0.91984 0.27555 0.48029 0.0
O96 O 0.89175 0.36047 0.54918 0.0
O97 O 0.8524 0.32944 0.55161 0.0
O98 O 0.67952 0.86553 0.43494 0.0
Cd99 Cd 0.71461 0.87499 0.46434 0.0
Cd100 Cd 0.66958 0.88433 0.50983 0.0
O101 O 0.6456 0.87479 0.47051 0.0
O102 O 0.75142 0.85092 0.4539 0.0
O103 O 0.7256 0.84539 0.49691 0.0
C104 C 0.74816 0.83745 0.47979 0.0
C105 C 0.63812 0.87689 0.5526 0.0
C106 C 0.65199 0.86783 0.44321 0.0
C107 C 0.71478 0.93512 0.49455 0.0
O108 O 0.69517 0.92369 0.51242 0.0
O109 O 0.72462 0.92019 0.47187 0.0
O110 O 0.63365 0.89836 0.53343 0.0
O111 O 0.66125 0.85945 0.54818 0.0
O112 O 0.56375 0.1352 0.32398 0.0
Cd113 Cd 0.53561 0.12556 0.28787 0.0
Cd114 Cd 0.48954 0.11843 0.32927 0.0
O115 O 0.52688 0.12687 0.35665 0.0
O116 O 0.5473 0.14954 0.25138 0.0
O117 O 0.50354 0.15533 0.27587 0.0
C118 C 0.52143 0.16324 0.25391 0.0
C119 C 0.44429 0.13454 0.35223 0.0
C120 C 0.55446 0.1335 0.35123 0.0
C121 C 0.5055 0.06523 0.28811 0.0
O122 O 0.48695 0.07726 0.30671 0.0
O123 O 0.52809 0.08024 0.27813 0.0
O124 O 0.45911 0.11139 0.3619 0.0
O125 O 0.45456 0.14879 0.32879 0.0
O126 O 0.86494 0.5661 0.32231 0.0
Cd127 Cd 0.87395 0.53634 0.28742 0.0
Cd128 Cd 0.88434 0.49135 0.33257 0.0
O129 O 0.87562 0.53101 0.35628 0.0
O130 O 0.84922 0.54582 0.2508 0.0
O131 O 0.84455 0.50327 0.27752 0.0
C132 C 0.83626 0.51973 0.25461 0.0
C133 C 0.87716 0.44891 0.36456 0.0
C134 C 0.86827 0.55819 0.34982 0.0
C135 C 0.93423 0.50632 0.28641 0.0
O136 O 0.92317 0.48841 0.30619 0.0
O137 O 0.91906 0.52896 0.27685 0.0
O138 O 0.8989 0.46792 0.36842 0.0
O139 O 0.85931 0.45329 0.34175 0.0
O140 O 0.4318 0.86409 0.31975 0.0
Cd141 Cd 0.46026 0.87548 0.28451 0.0
Cd142 Cd 0.5078 0.88115 0.32812 0.0
O143 O 0.46976 0.86728 0.35212 0.0
O144 O 0.45174 0.8515 0.24716 0.0
O145 O 0.49385 0.8468 0.27452 0.0
C146 C 0.47781 0.83857 0.2513 0.0
C147 C 0.5514 0.87296 0.35799 0.0
C148 C 0.44196 0.86175 0.34662 0.0
C149 C 0.49071 0.93529 0.28702 0.0
O150 O 0.50863 0.92262 0.30581 0.0
O151 O 0.46801 0.92099 0.27633 0.0
O152 O 0.53135 0.89303 0.36467 0.0
O153 O 0.54745 0.85747 0.33343 0.0
O154 O 0.13338 0.43426 0.32127 0.0
Cd155 Cd 0.12455 0.46444 0.28666 0.0
Cd156 Cd 0.11419 0.50877 0.33139 0.0
O157 O 0.12266 0.46922 0.35535 0.0
O158 O 0.14934 0.4552 0.25002 0.0
O159 O 0.15408 0.4975 0.27713 0.0
C160 C 0.16239 0.4812 0.2541 0.0
C161 C 0.12385 0.55123 0.36247 0.0
C162 C 0.12994 0.44204 0.3488 0.0
C163 C 0.06371 0.49378 0.28633 0.0
O164 O 0.07456 0.51165 0.30627 0.0
O165 O 0.07945 0.47184 0.27607 0.0
O166 O 0.10178 0.5329 0.36754 0.0
O167 O 0.14037 0.54648 0.33875 0.0
O168 O 0.55895 0.86692 0.6791 0.0
Cd169 Cd 0.52977 0.87513 0.71472 0.0
Cd170 Cd 0.48498 0.88303 0.67227 0.0
O171 O 0.52332 0.877 0.64551 0.0
O172 O 0.54191 0.85104 0.75094 0.0
O173 O 0.49847 0.84433 0.72614 0.0
C174 C 0.51645 0.83668 0.74811 0.0
C175 C 0.44046 0.86656 0.64811 0.0
C176 C 0.55075 0.87031 0.65168 0.0
C177 C 0.49863 0.93491 0.71571 0.0
O178 O 0.48078 0.92322 0.69625 0.0
O179 O 0.52141 0.92007 0.72548 0.0
O180 O 0.45505 0.89016 0.63919 0.0
O181 O 0.45061 0.85195 0.67137 0.0
O182 O 0.13825 0.56806 0.68102 0.0
Cd183 Cd 0.12779 0.53432 0.71205 0.0
Cd184 Cd 0.1264 0.49733 0.66153 0.0
O185 O 0.1453 0.53607 0.64326 0.0
O186 O 0.14811 0.54336 0.75139 0.0
O187 O 0.15893 0.50305 0.72303 0.0
C188 C 0.164 0.51902 0.74718 0.0
C189 C 0.13773 0.45289 0.63387 0.0
C190 C 0.14593 0.56299 0.65366 0.0
C191 C 0.06753 0.50987 0.69706 0.0
O192 O 0.08113 0.49924 0.67389 0.0
O193 O 0.0823 0.52395 0.71749 0.0
O194 O 0.1219 0.47467 0.62273 0.0
O195 O 0.14779 0.45609 0.6612 0.0
O196 O 0.4323 0.13773 0.68179 0.0
Cd197 Cd 0.46014 0.12632 0.71751 0.0
Cd198 Cd 0.50702 0.11685 0.675 0.0
O199 O 0.46965 0.12979 0.64954 0.0
O200 O 0.45208 0.15155 0.75412 0.0
O201 O 0.49492 0.15356 0.72748 0.0
C202 C 0.47887 0.163 0.75024 0.0
C203 C 0.55134 0.12389 0.64581 0.0
C204 C 0.44218 0.13709 0.65473 0.0
C205 C 0.48731 0.06486 0.71711 0.0
O206 O 0.50638 0.07607 0.6985 0.0
O207 O 0.46532 0.08073 0.72705 0.0
O208 O 0.53151 0.10349 0.63957 0.0
O209 O 0.54686 0.14027 0.66968 0.0
O210 O 0.86745 0.43469 0.68581 0.0
Cd211 Cd 0.87663 0.47085 0.71451 0.0
Cd212 Cd 0.87611 0.50495 0.66263 0.0
O213 O 0.85789 0.4647 0.64692 0.0
O214 O 0.85944 0.46463 0.75585 0.0
O215 O 0.84266 0.49971 0.72361 0.0
C216 C 0.84099 0.48667 0.74988 0.0
C217 C 0.86132 0.54814 0.63493 0.0
C218 C 0.85872 0.43826 0.6585 0.0
C219 C 0.93583 0.49711 0.69704 0.0
O220 O 0.92189 0.50541 0.67316 0.0
O221 O 0.92149 0.48411 0.71843 0.0
O222 O 0.87723 0.52675 0.62312 0.0
O223 O 0.85325 0.54531 0.66295 0.0
O224 O 0.31953 0.56472 0.13545 0.0
Cd225 Cd 0.28388 0.53597 0.12608 0.0
Cd226 Cd 0.32766 0.48993 0.11635 0.0
O227 O 0.35267 0.52827 0.12711 0.0
O228 O 0.24769 0.54704 0.15078 0.0
O229 O 0.27277 0.50353 0.15581 0.0
C230 C 0.25079 0.52114 0.16427 0.0
C231 C 0.35764 0.44626 0.12421 0.0
C232 C 0.34688 0.5557 0.134 0.0
C233 C 0.28358 0.50704 0.06518 0.0
O234 O 0.30317 0.48888 0.0762 0.0
O235 O 0.27331 0.52898 0.08092 0.0
O236 O 0.36323 0.46551 0.10308 0.0
O237 O 0.33406 0.451 0.14096 0.0
O238 O 0.31966 0.43344 0.86694 0.0
Cd239 Cd 0.28441 0.46303 0.87563 0.0
Cd240 Cd 0.32808 0.50855 0.88437 0.0
O241 O 0.35294 0.4694 0.87676 0.0
O242 O 0.24791 0.45352 0.85063 0.0
O243 O 0.27478 0.496 0.84606 0.0
C244 C 0.25192 0.47955 0.83762 0.0
C245 C 0.35826 0.55121 0.87333 0.0
C246 C 0.34703 0.44195 0.87003 0.0
C247 C 0.2836 0.4941 0.93554 0.0
O248 O 0.30299 0.51211 0.92396 0.0
O249 O 0.27406 0.47119 0.92074 0.0
O250 O 0.36382 0.53364 0.89587 0.0
O251 O 0.33453 0.54561 0.85711 0.0
O252 O 0.56704 0.32061 0.86582 0.0
Cd253 Cd 0.53843 0.28495 0.87551 0.0
Cd254 Cd 0.49259 0.32827 0.88567 0.0
O255 O 0.53092 0.35373 0.87572 0.0
O256 O 0.54879 0.24865 0.85073 0.0
O257 O 0.50534 0.274 0.84652 0.0
C258 C 0.52257 0.25178 0.83788 0.0
C259 C 0.44849 0.35759 0.87757 0.0
C260 C 0.55825 0.34795 0.86835 0.0
C261 C 0.50994 0.28412 0.9365 0.0
O262 O 0.49142 0.3034 0.92556 0.0
O263 O 0.53209 0.27434 0.92073 0.0
O264 O 0.46745 0.36334 0.89893 0.0
O265 O 0.45383 0.33427 0.86066 0.0
O266 O 0.68255 0.56885 0.86578 0.0
Cd267 Cd 0.71729 0.53921 0.87594 0.0
Cd268 Cd 0.67269 0.49271 0.88224 0.0
O269 O 0.64923 0.53187 0.87067 0.0
O270 O 0.75618 0.54906 0.85507 0.0
O271 O 0.72814 0.50837 0.84438 0.0
C272 C 0.75219 0.52452 0.83945 0.0
C273 C 0.64226 0.44962 0.87305 0.0
C274 C 0.65523 0.55957 0.8651 0.0
C275 C 0.71449 0.50778 0.93577 0.0
O276 O 0.69528 0.49013 0.92339 0.0
O277 O 0.72528 0.53029 0.92129 0.0
O278 O 0.63591 0.46917 0.89369 0.0
O279 O 0.66662 0.45393 0.85733 0.0
O280 O 0.43471 0.67782 0.86505 0.0
Cd281 Cd 0.46343 0.71333 0.87488 0.0
Cd282 Cd 0.50984 0.67051 0.88246 0.0
O283 O 0.47159 0.64495 0.87242 0.0
O284 O 0.45333 0.75004 0.85059 0.0
O285 O 0.49631 0.72404 0.84559 0.0
C286 C 0.47941 0.74668 0.83747 0.0
C287 C 0.55395 0.64267 0.87106 0.0
C288 C 0.44398 0.65054 0.86608 0.0
C289 C 0.49362 0.71304 0.93501 0.0
O290 O 0.51183 0.69398 0.92317 0.0
O291 O 0.47093 0.72298 0.92014 0.0
O292 O 0.53599 0.6352 0.89276 0.0
O293 O 0.54776 0.66691 0.85584 0.0
O294 O 0.67909 0.43636 0.1364 0.0
Cd295 Cd 0.71441 0.46544 0.12667 0.0
Cd296 Cd 0.67084 0.51113 0.11794 0.0
O297 O 0.64588 0.47272 0.12828 0.0
O298 O 0.75104 0.45447 0.15074 0.0
O299 O 0.72571 0.49774 0.15652 0.0
C300 C 0.74792 0.48021 0.16454 0.0
C301 C 0.6415 0.55438 0.12874 0.0
C302 C 0.65171 0.44529 0.13502 0.0
C303 C 0.71354 0.4947 0.06575 0.0
O304 O 0.69415 0.51286 0.07712 0.0
O305 O 0.72414 0.47279 0.08132 0.0
O306 O 0.63487 0.5361 0.10706 0.0
O307 O 0.6659 0.5492 0.14409 0.0
O308 O 0.56403 0.68059 0.1362 0.0
Cd309 Cd 0.53465 0.71545 0.12589 0.0
Cd310 Cd 0.48948 0.67112 0.11729 0.0
O311 O 0.52808 0.6468 0.12853 0.0
O312 O 0.54498 0.75227 0.1499 0.0
O313 O 0.5017 0.72672 0.15502 0.0
C314 C 0.51896 0.74909 0.16316 0.0
C315 C 0.4464 0.64126 0.12745 0.0
C316 C 0.5554 0.65311 0.13535 0.0
C317 C 0.50596 0.71375 0.0649 0.0
O318 O 0.48802 0.69418 0.07633 0.0
O319 O 0.52764 0.72477 0.08048 0.0
O320 O 0.4652 0.63475 0.10617 0.0
O321 O 0.45098 0.66581 0.14276 0.0
O322 O 0.43564 0.31881 0.13444 0.0
Cd323 Cd 0.4658 0.28409 0.12581 0.0
Cd324 Cd 0.51062 0.32827 0.11725 0.0
O325 O 0.47114 0.35266 0.12491 0.0
O326 O 0.45652 0.24744 0.15055 0.0
O327 O 0.49864 0.27478 0.15564 0.0
C328 C 0.48237 0.25171 0.16385 0.0
C329 C 0.55298 0.35886 0.1282 0.0
C330 C 0.44375 0.34631 0.13152 0.0
C331 C 0.49693 0.28363 0.06603 0.0
O332 O 0.5146 0.3033 0.07765 0.0
O333 O 0.47413 0.27375 0.08079 0.0
O334 O 0.53529 0.36424 0.10571 0.0
O335 O 0.54765 0.3351 0.14447 0.0
C336 C 0.12066 0.42784 0.40273 0.0
C337 C 0.1314 0.41936 0.37381 0.0
C338 C 0.1187 0.40691 0.42643 0.0
C339 C 0.12776 0.37654 0.42259 0.0
H340 H 0.11283 0.45076 0.40711 0.0
H341 H 0.10975 0.41469 0.44801 0.0
S342 S 0.15945 0.34271 0.35225 0.0
N343 N 0.1525 0.37845 0.34305 0.0
N344 N 0.14927 0.33908 0.3882 0.0
C345 C 0.13967 0.36777 0.39428 0.0
C346 C 0.14132 0.38915 0.36976 0.0
C347 C 0.62861 0.13673 0.39602 0.0
C348 C 0.61846 0.13356 0.4261 0.0
C349 C 0.60774 0.13809 0.37183 0.0
C350 C 0.5761 0.13665 0.37704 0.0
H351 H 0.65272 0.1365 0.39104 0.0
H352 H 0.61654 0.13904 0.34887 0.0
S353 S 0.53854 0.13362 0.45271 0.0
N354 N 0.57525 0.13243 0.4603 0.0
N355 N 0.53604 0.13582 0.41537 0.0
C356 C 0.56591 0.13575 0.40741 0.0
C357 C 0.58711 0.13395 0.4318 0.0
C358 C 0.87804 0.59262 0.42795 0.0
C359 C 0.87016 0.62328 0.42394 0.0
C360 C 0.87608 0.57183 0.40413 0.0
C361 C 0.86651 0.58074 0.37494 0.0
H362 H 0.88615 0.58452 0.44973 0.0
H363 H 0.88306 0.54866 0.40864 0.0
S364 S 0.84142 0.65827 0.35295 0.0
N365 N 0.85074 0.66149 0.38917 0.0
N366 N 0.84748 0.62236 0.34381 0.0
C367 C 0.85757 0.61123 0.37076 0.0
C368 C 0.85924 0.63249 0.39539 0.0
C369 C 0.3704 0.85902 0.3952 0.0
C370 C 0.38241 0.85496 0.42449 0.0
C371 C 0.38955 0.85935 0.36958 0.0
C372 C 0.42124 0.85544 0.37255 0.0
H373 H 0.34646 0.86398 0.39226 0.0
H374 H 0.37967 0.86441 0.34763 0.0
S375 S 0.46252 0.83796 0.44412 0.0
N376 N 0.42688 0.84291 0.45474 0.0
N377 N 0.46276 0.84275 0.40694 0.0
C378 C 0.4329 0.84866 0.40159 0.0
C379 C 0.41351 0.84866 0.42749 0.0
C380 C 0.16073 0.58153 0.60218 0.0
C381 C 0.15108 0.58838 0.63196 0.0
C382 C 0.15825 0.60283 0.57873 0.0
C383 C 0.14664 0.63197 0.58423 0.0
H384 H 0.16832 0.55884 0.59637 0.0
H385 H 0.16364 0.59581 0.55575 0.0
S386 S 0.12236 0.66326 0.65838 0.0
N387 N 0.13257 0.62795 0.66604 0.0
N388 N 0.12826 0.66798 0.62161 0.0
C389 C 0.13946 0.6402 0.61413 0.0
C390 C 0.14175 0.61843 0.63815 0.0
C391 C 0.41572 0.14116 0.5731 0.0
C392 C 0.38391 0.14223 0.57549 0.0
C393 C 0.43419 0.14133 0.59887 0.0
C394 C 0.4217 0.14219 0.62833 0.0
H395 H 0.42653 0.13922 0.55106 0.0
H396 H 0.45851 0.13953 0.5955 0.0
S397 S 0.33953 0.14829 0.64684 0.0
N398 N 0.34053 0.1468 0.60935 0.0
N399 N 0.37529 0.14674 0.6582 0.0
C400 C 0.38988 0.14509 0.63105 0.0
C401 C 0.37099 0.14521 0.60454 0.0
C402 C 0.83893 0.41641 0.61005 0.0
C403 C 0.85386 0.41185 0.63803 0.0
C404 C 0.84093 0.395 0.58658 0.0
C405 C 0.85772 0.36819 0.59029 0.0
H406 H 0.82729 0.43762 0.60547 0.0
H407 H 0.83115 0.40049 0.56466 0.0
S408 S 0.89773 0.34318 0.65986 0.0
N409 N 0.8833 0.37663 0.66894 0.0
N410 N 0.88714 0.33662 0.62446 0.0
C411 C 0.87065 0.36208 0.61874 0.0
C412 C 0.86855 0.3838 0.6428 0.0
C413 C 0.56564 0.88215 0.59838 0.0
C414 C 0.57333 0.86919 0.62657 0.0
C415 C 0.58674 0.88399 0.57474 0.0
C416 C 0.6164 0.87257 0.57795 0.0
H417 H 0.5433 0.8918 0.59463 0.0
H418 H 0.57966 0.8947 0.55374 0.0
S419 S 0.6478 0.83472 0.64632 0.0
N420 N 0.61261 0.84361 0.65596 0.0
N421 N 0.65222 0.84666 0.61101 0.0
C422 C 0.62428 0.85857 0.60555 0.0
C423 C 0.60279 0.85705 0.62998 0.0
C424 C 0.36492 0.13634 0.38391 0.0
C425 C 0.36975 0.14942 0.41276 0.0
C426 C 0.38872 0.13399 0.36272 0.0
C427 C 0.41782 0.14512 0.36955 0.0
H428 H 0.34341 0.12566 0.37855 0.0
H429 H 0.3849 0.12153 0.34183 0.0
S430 S 0.44124 0.18551 0.43945 0.0
N431 N 0.40513 0.17702 0.44518 0.0
N432 N 0.44957 0.17233 0.40532 0.0
C433 C 0.42227 0.16047 0.39704 0.0
C434 C 0.39824 0.16282 0.41864 0.0
C435 C 0.88367 0.40332 0.43708 0.0
C436 C 0.86974 0.37544 0.42997 0.0
C437 C 0.88546 0.4268 0.4158 0.0
C438 C 0.87303 0.42374 0.38653 0.0
H439 H 0.8941 0.40691 0.45908 0.0
H440 H 0.89692 0.44756 0.42242 0.0
S441 S 0.83246 0.35618 0.35674 0.0
N442 N 0.8422 0.34651 0.39167 0.0
N443 N 0.84518 0.39114 0.35175 0.0
C444 C 0.85811 0.39645 0.37926 0.0
C445 C 0.85661 0.37219 0.40092 0.0
C446 C 0.57308 0.87478 0.40981 0.0
C447 C 0.57719 0.86796 0.37891 0.0
C448 C 0.59715 0.87328 0.43036 0.0
C449 C 0.62668 0.8653 0.42094 0.0
H450 H 0.55102 0.88182 0.41825 0.0
H451 H 0.59255 0.87946 0.45374 0.0
S452 S 0.64905 0.84322 0.34258 0.0
N453 N 0.61242 0.85106 0.33992 0.0
N454 N 0.65824 0.84868 0.37857 0.0
C455 C 0.63096 0.85727 0.3902 0.0
C456 C 0.60609 0.85845 0.3692 0.0
C457 C 0.13772 0.62986 0.39531 0.0
C458 C 0.13365 0.62499 0.42676 0.0
C459 C 0.13617 0.60569 0.37441 0.0
C460 C 0.13005 0.57596 0.38427 0.0
H461 H 0.14121 0.65262 0.38662 0.0
H462 H 0.13833 0.61051 0.35038 0.0
S463 S 0.12163 0.55001 0.46394 0.0
N464 N 0.12648 0.58708 0.46658 0.0
N465 N 0.12287 0.54228 0.42729 0.0
C466 C 0.12746 0.5705 0.41556 0.0
C467 C 0.12947 0.59483 0.43682 0.0
C468 C 0.39558 0.84174 0.58034 0.0
C469 C 0.36609 0.85237 0.58708 0.0
C470 C 0.41917 0.84392 0.60154 0.0
C471 C 0.4141 0.85625 0.63045 0.0
H472 H 0.40108 0.8335 0.55781 0.0
H473 H 0.44197 0.83768 0.59459 0.0
S474 S 0.34078 0.88348 0.66137 0.0
N475 N 0.3327 0.87277 0.62631 0.0
N476 N 0.37738 0.87657 0.66612 0.0
C477 C 0.38445 0.86457 0.63857 0.0
C478 C 0.36029 0.86255 0.61692 0.0
C479 C 0.14139 0.42762 0.5837 0.0
C480 C 0.14288 0.42521 0.61548 0.0
C481 C 0.14137 0.40186 0.5652 0.0
C482 C 0.14247 0.37239 0.5776 0.0
H483 H 0.13931 0.44966 0.57294 0.0
H484 H 0.13929 0.40526 0.54091 0.0
S485 S 0.14956 0.3538 0.65962 0.0
N486 N 0.14799 0.39129 0.65872 0.0
N487 N 0.1476 0.34248 0.62389 0.0
C488 C 0.14573 0.36963 0.60938 0.0
C489 C 0.14602 0.39614 0.6283 0.0
C490 C 0.57368 0.11994 0.59436 0.0
C491 C 0.57724 0.12856 0.62488 0.0
C492 C 0.59766 0.12193 0.57374 0.0
C493 C 0.62659 0.13224 0.58271 0.0
H494 H 0.55211 0.11129 0.58623 0.0
H495 H 0.59349 0.11442 0.55068 0.0
S496 S 0.64745 0.15916 0.65992 0.0
N497 N 0.61135 0.14929 0.66301 0.0
N498 N 0.65704 0.15255 0.62422 0.0
C499 C 0.63036 0.14177 0.61307 0.0
C500 C 0.60554 0.1401 0.63413 0.0
C501 C 0.85771 0.60468 0.6292 0.0
C502 C 0.85443 0.57545 0.61674 0.0
C503 C 0.85795 0.63055 0.61041 0.0
C504 C 0.85474 0.62793 0.57864 0.0
H505 H 0.86214 0.60742 0.65325 0.0
H506 H 0.86243 0.65247 0.62067 0.0
S507 S 0.83932 0.55663 0.53607 0.0
N508 N 0.84374 0.54561 0.57163 0.0
N509 N 0.84348 0.59389 0.53643 0.0
C510 C 0.84872 0.59893 0.56647 0.0
C511 C 0.84878 0.57277 0.58549 0.0
C512 C 0.40926 0.42424 0.12016 0.0
C513 C 0.37883 0.42063 0.12912 0.0
C514 C 0.43002 0.40038 0.1222 0.0
C515 C 0.42127 0.37152 0.1329 0.0
H516 H 0.41719 0.44575 0.11117 0.0
H517 H 0.453 0.40455 0.11441 0.0
S518 S 0.3444 0.35061 0.16082 0.0
N519 N 0.34105 0.38658 0.15059 0.0
N520 N 0.38009 0.34113 0.15396 0.0
C521 C 0.39102 0.36773 0.14278 0.0
C522 C 0.36983 0.39242 0.14107 0.0
C523 C 0.3907 0.63005 0.86082 0.0
C524 C 0.42229 0.62477 0.86281 0.0
C525 C 0.36972 0.60595 0.86231 0.0
C526 C 0.37971 0.5759 0.86618 0.0
H527 H 0.382 0.65303 0.85936 0.0
H528 H 0.34563 0.61101 0.8621 0.0
S529 S 0.45951 0.54902 0.86793 0.0
N530 N 0.46219 0.5863 0.86501 0.0
N531 N 0.42276 0.54158 0.86865 0.0
C532 C 0.41104 0.57009 0.86635 0.0
C533 C 0.43235 0.59437 0.86441 0.0
C534 C 0.42544 0.40871 0.88195 0.0
C535 C 0.42249 0.37833 0.87263 0.0
C536 C 0.40122 0.42904 0.87987 0.0
C537 C 0.37263 0.4199 0.86877 0.0
H538 H 0.4467 0.41693 0.89126 0.0
H539 H 0.40489 0.45201 0.88793 0.0
S540 S 0.3534 0.34296 0.83992 0.0
N541 N 0.38933 0.34017 0.85047 0.0
N542 N 0.34318 0.3784 0.84703 0.0
C543 C 0.36948 0.38969 0.85857 0.0
C544 C 0.39455 0.36894 0.86033 0.0
C545 C 0.5907 0.42724 0.87586 0.0
C546 C 0.62144 0.42373 0.86798 0.0
C547 C 0.57044 0.40288 0.87452 0.0
C548 C 0.58003 0.37367 0.86564 0.0
H549 H 0.58219 0.44899 0.88366 0.0
H550 H 0.5472 0.40697 0.88156 0.0
S551 S 0.65799 0.35294 0.84064 0.0
N552 N 0.66038 0.38942 0.84915 0.0
N553 N 0.62231 0.34312 0.84703 0.0
C554 C 0.61057 0.37003 0.85655 0.0
C555 C 0.63124 0.39518 0.85758 0.0
C556 C 0.63431 0.61289 0.86226 0.0
C557 C 0.62954 0.58119 0.86085 0.0
C558 C 0.60968 0.6333 0.86346 0.0
C559 C 0.57962 0.62257 0.86352 0.0
H560 H 0.65713 0.62195 0.86395 0.0
H561 H 0.61418 0.65734 0.86616 0.0
S562 S 0.55445 0.54271 0.85522 0.0
N563 N 0.5919 0.5408 0.85553 0.0
N564 N 0.54616 0.57911 0.85868 0.0
C565 C 0.57451 0.59134 0.86011 0.0
C566 C 0.59934 0.57065 0.85849 0.0
C567 C 0.63023 0.60952 0.13776 0.0
C568 C 0.62035 0.57923 0.13612 0.0
C569 C 0.60911 0.6335 0.13917 0.0
C570 C 0.57752 0.62784 0.13925 0.0
H571 H 0.65424 0.61476 0.13619 0.0
H572 H 0.61759 0.6566 0.13874 0.0
S573 S 0.54092 0.55167 0.1407 0.0
N574 N 0.57764 0.54448 0.1382 0.0
N575 N 0.53799 0.58903 0.14168 0.0
C576 C 0.56773 0.59734 0.14003 0.0
C577 C 0.58915 0.57316 0.1382 0.0
C578 C 0.36717 0.6091 0.13856 0.0
C579 C 0.37253 0.57749 0.13746 0.0
C580 C 0.39132 0.63004 0.13717 0.0
C581 C 0.42147 0.61999 0.13432 0.0
H582 H 0.34416 0.6178 0.13918 0.0
H583 H 0.38624 0.65412 0.13667 0.0
S584 S 0.44841 0.54021 0.13539 0.0
N585 N 0.41105 0.53759 0.13732 0.0
N586 N 0.45587 0.57692 0.13394 0.0
C587 C 0.42729 0.58867 0.13511 0.0
C588 C 0.40297 0.56742 0.13691 0.0
C589 C 0.63158 0.39193 0.14077 0.0
C590 C 0.62609 0.42345 0.13837 0.0
C591 C 0.60761 0.37079 0.1394 0.0
C592 C 0.57751 0.38053 0.13523 0.0
H593 H 0.65462 0.38342 0.14248 0.0
H594 H 0.61283 0.34674 0.13993 0.0
S595 S 0.55009 0.46008 0.13229 0.0
N596 N 0.58734 0.46304 0.13541 0.0
N597 N 0.54291 0.42329 0.132 0.0
C598 C 0.57149 0.4118 0.13463 0.0
C599 C 0.59562 0.43328 0.13645 0.0
C600 C 0.01779 0.27538 0.48231 0.0
C601 C 0.03232 0.27621 0.51079 0.0
C602 C 0.98599 0.27533 0.48 0.0
C603 C 0.96762 0.27692 0.5061 0.0
H604 H 0.0311 0.27618 0.46161 0.0
H605 H 0.97584 0.27634 0.4576 0.0
S606 S 0.9943 0.27617 0.58601 0.0
N607 N 0.02583 0.27555 0.56564 0.0
N608 N 0.96608 0.27642 0.56128 0.0
C609 C 0.9818 0.27582 0.5347 0.0
C610 C 0.01417 0.27518 0.53706 0.0
C611 C 0.7218 0.01847 0.47611 0.0
C612 C 0.72211 0.03202 0.50508 0.0
C613 C 0.72238 0.98678 0.47271 0.0
C614 C 0.72248 0.96758 0.49822 0.0
H615 H 0.71962 0.03243 0.45595 0.0
H616 H 0.72036 0.97731 0.45007 0.0
S617 S 0.72679 0.99155 0.57884 0.0
N618 N 0.72576 0.02374 0.55959 0.0
N619 N 0.72582 0.96419 0.55318 0.0
C620 C 0.72478 0.98081 0.52718 0.0
C621 C 0.72491 0.01305 0.53063 0.0
C622 C 0.98175 0.72256 0.48136 0.0
C623 C 0.96814 0.72182 0.5103 0.0
C624 C 0.01345 0.72293 0.47798 0.0
C625 C 0.03269 0.72176 0.50345 0.0
H626 H 0.96778 0.72161 0.46111 0.0
H627 H 0.02287 0.722 0.45526 0.0
S628 S 0.00857 0.7226 0.58421 0.0
N629 N 0.97639 0.72276 0.5649 0.0
N630 N 0.03599 0.72251 0.55856 0.0
C631 C 0.01941 0.72276 0.53251 0.0
C632 C 0.98713 0.72307 0.53595 0.0
C633 C 0.32793 0.016 0.49737 0.0
C634 C 0.30077 0.03262 0.49468 0.0
C635 C 0.32768 0.98445 0.50076 0.0
C636 C 0.30026 0.96813 0.50223 0.0
H637 H 0.34973 0.02741 0.49649 0.0
H638 H 0.3493 0.97281 0.50264 0.0
S639 S 0.22274 0.00077 0.49666 0.0
N640 N 0.24555 0.03044 0.49356 0.0
N641 N 0.24508 0.97087 0.5008 0.0
C642 C 0.27282 0.98437 0.49986 0.0
C643 C 0.27308 0.01666 0.49577 0.0
C644 C 0.4695 0.98745 0.28022 0.0
C645 C 0.49485 0.96802 0.28063 0.0
C646 C 0.47314 0.01912 0.28088 0.0
C647 C 0.50223 0.03246 0.28118 0.0
H648 H 0.44673 0.97817 0.28147 0.0
H649 H 0.45303 0.03325 0.2824 0.0
S650 S 0.57581 0.99138 0.27856 0.0
N651 N 0.54991 0.96422 0.27883 0.0
N652 N 0.55676 0.02371 0.27912 0.0
C653 C 0.5277 0.01326 0.27924 0.0
C654 C 0.524 0.98103 0.27925 0.0
C655 C 0.9856 0.52862 0.27825 0.0
C656 C 0.96664 0.50293 0.27836 0.0
C657 C 0.01733 0.52553 0.27871 0.0
C658 C 0.03115 0.49668 0.27848 0.0
H659 H 0.97593 0.55118 0.28026 0.0
H660 H 0.03111 0.54583 0.2808 0.0
S661 S 0.99137 0.42252 0.27418 0.0
N662 N 0.96375 0.44791 0.27518 0.0
N663 N 0.02339 0.44209 0.27501 0.0
C664 C 0.01242 0.47094 0.27581 0.0
C665 C 0.98013 0.47408 0.27605 0.0
C666 C 0.5208 0.98616 0.72524 0.0
C667 C 0.49497 0.96744 0.72334 0.0
C668 C 0.51804 0.0179 0.72517 0.0
C669 C 0.48936 0.03203 0.72401 0.0
H670 H 0.54336 0.97632 0.72453 0.0
H671 H 0.53856 0.03149 0.72464 0.0
S672 S 0.41466 0.99302 0.7231 0.0
N673 N 0.43979 0.96514 0.72314 0.0
N674 N 0.43458 0.02482 0.72398 0.0
C675 C 0.46332 0.01354 0.72469 0.0
C676 C 0.46615 0.98122 0.72407 0.0
C677 C 0.98584 0.50273 0.67124 0.0
C678 C 0.96928 0.50101 0.69852 0.0
C679 C 0.01748 0.50546 0.67128 0.0
C680 C 0.03399 0.50716 0.69858 0.0
H681 H 0.97435 0.50144 0.64952 0.0
H682 H 0.02906 0.5065 0.64957 0.0
S683 S 0.00158 0.50442 0.77633 0.0
N684 N 0.97175 0.5014 0.75374 0.0
N685 N 0.03146 0.5073 0.75375 0.0
C686 C 0.0178 0.50596 0.72611 0.0
C687 C 0.98542 0.50261 0.72609 0.0
C688 C 0.27536 0.47215 0.98709 0.0
C689 C 0.27591 0.49778 0.96804 0.0
C690 C 0.27581 0.47534 0.0188 0.0
C691 C 0.276 0.50422 0.03255 0.0
H692 H 0.27695 0.44953 0.97751 0.0
H693 H 0.27747 0.45504 0.03263 0.0
S694 S 0.27308 0.57833 0.99258 0.0
N695 N 0.2737 0.55285 0.96503 0.0
N696 N 0.27353 0.55883 0.02463 0.0
C697 C 0.27386 0.52994 0.01375 0.0
C698 C 0.27411 0.52671 0.98146 0.0
C699 C 0.47837 0.27551 0.98281 0.0
C700 C 0.50727 0.27634 0.96908 0.0
C701 C 0.47518 0.27495 0.01451 0.0
C702 C 0.50079 0.276 0.03356 0.0
H703 H 0.45806 0.27679 0.96896 0.0
H704 H 0.45252 0.27606 0.02408 0.0
S705 S 0.58143 0.27484 0.00907 0.0
N706 N 0.56194 0.27496 0.977 0.0
N707 N 0.55591 0.27489 0.0366 0.0
C708 C 0.52978 0.2748 0.02016 0.0
C709 C 0.53303 0.27468 0.98788 0.0
C710 C 0.72169 0.52955 0.98758 0.0
C711 C 0.72102 0.50395 0.96849 0.0
C712 C 0.72109 0.52636 0.01929 0.0
C713 C 0.72064 0.49748 0.033 0.0
H714 H 0.72055 0.5522 0.978 0.0
H715 H 0.71969 0.54666 0.03315 0.0
S716 S 0.72263 0.42335 0.99295 0.0
N717 N 0.72242 0.44886 0.96543 0.0
N718 N 0.72233 0.44284 0.02502 0.0
C719 C 0.72238 0.47174 0.01416 0.0
C720 C 0.72225 0.47499 0.98189 0.0
C721 C 0.47131 0.72047 0.98654 0.0
C722 C 0.49705 0.72029 0.96761 0.0
C723 C 0.47435 0.72023 0.01826 0.0
C724 C 0.50318 0.72061 0.03212 0.0
H725 H 0.44876 0.7186 0.97686 0.0
H726 H 0.45401 0.7184 0.03203 0.0
S727 S 0.57746 0.72433 0.99243 0.0
N728 N 0.55211 0.7232 0.96479 0.0
N729 N 0.55781 0.72376 0.02441 0.0
C730 C 0.52897 0.72293 0.01341 0.0
C731 C 0.5259 0.72246 0.98113 0.0
C732 C 0.20539 0.21233 0.53101 0.0
C733 C 0.18695 0.22812 0.51019 0.0
C734 C 0.22738 0.19149 0.52109 0.0
C735 C 0.23123 0.18509 0.49003 0.0
H736 H 0.20297 0.21624 0.55519 0.0
H737 H 0.24102 0.17984 0.53794 0.0
S738 S 0.18892 0.22047 0.42626 0.0
N739 N 0.17442 0.23634 0.45702 0.0
N740 N 0.21516 0.19657 0.43844 0.0
C741 C 0.21298 0.20072 0.46896 0.0
C742 C 0.19102 0.22241 0.47902 0.0
C743 C 0.7856 0.20313 0.5344 0.0
C744 C 0.76843 0.18709 0.51271 0.0
C745 C 0.80691 0.22514 0.52562 0.0
C746 C 0.81235 0.23146 0.49478 0.0
H747 H 0.78257 0.19868 0.55842 0.0
H748 H 0.81974 0.23672 0.54313 0.0
S749 S 0.77296 0.19629 0.42903 0.0
N750 N 0.75772 0.17968 0.45902 0.0
N751 N 0.79826 0.22051 0.44248 0.0
C752 C 0.79516 0.21579 0.47284 0.0
C753 C 0.77305 0.19378 0.48181 0.0
C754 C 0.79701 0.78868 0.53144 0.0
C755 C 0.81435 0.77133 0.5109 0.0
C756 C 0.77515 0.80946 0.52117 0.0
C757 C 0.77024 0.81417 0.48996 0.0
H758 H 0.80024 0.78612 0.5557 0.0
H759 H 0.76247 0.8224 0.53784 0.0
S760 S 0.80931 0.77419 0.42678 0.0
N761 N 0.82464 0.75979 0.45784 0.0
N762 N 0.78406 0.79934 0.43854 0.0
C763 C 0.78731 0.7969 0.46915 0.0
C764 C 0.8092 0.77533 0.47962 0.0
C765 C 0.19053 0.77855 0.51924 0.0
C766 C 0.18617 0.77105 0.4885 0.0
C767 C 0.21179 0.80064 0.52792 0.0
C768 C 0.23007 0.81545 0.50626 0.0
H769 H 0.17692 0.76778 0.5367 0.0
H770 H 0.21408 0.80598 0.55184 0.0
S771 S 0.22836 0.8031 0.42291 0.0
N772 N 0.20218 0.77982 0.43635 0.0
N773 N 0.24282 0.82063 0.45277 0.0
C774 C 0.22643 0.80767 0.4755 0.0
C775 C 0.20428 0.78567 0.46659 0.0
C776 C 0.48117 0.19189 0.22596 0.0
C777 C 0.51218 0.18683 0.23178 0.0
C778 C 0.47178 0.213 0.20402 0.0
C779 C 0.49301 0.23034 0.18757 0.0
H780 H 0.46398 0.17895 0.23793 0.0
H781 H 0.44765 0.21576 0.19998 0.0
S782 S 0.57692 0.22671 0.19527 0.0
N783 N 0.56415 0.20138 0.21983 0.0
N784 N 0.54648 0.24156 0.17914 0.0
C785 C 0.52409 0.22606 0.19371 0.0
C786 C 0.53367 0.20414 0.21564 0.0
C787 C 0.79652 0.53015 0.21535 0.0
C788 C 0.81291 0.50899 0.23286 0.0
C789 C 0.77502 0.52065 0.19383 0.0
C790 C 0.7696 0.48962 0.1885 0.0
H791 H 0.80029 0.55429 0.2183 0.0
H792 H 0.76309 0.53777 0.18078 0.0
S793 S 0.80606 0.42506 0.22866 0.0
N794 N 0.82166 0.45557 0.24393 0.0
N795 N 0.78181 0.43772 0.203 0.0
C796 C 0.78567 0.46821 0.20597 0.0
C797 C 0.80714 0.4779 0.2283 0.0
C798 C 0.47808 0.77876 0.18904 0.0
C799 C 0.50895 0.77095 0.18661 0.0
C800 C 0.46827 0.80065 0.21002 0.0
C801 C 0.48887 0.81507 0.22982 0.0
H802 H 0.46146 0.76842 0.17412 0.0
H803 H 0.44431 0.80626 0.21072 0.0
S804 S 0.57198 0.80094 0.23382 0.0
N805 N 0.55996 0.77836 0.20638 0.0
N806 N 0.54152 0.81894 0.24635 0.0
C807 C 0.51973 0.80678 0.22816 0.0
C808 C 0.52977 0.7849 0.2064 0.0
C809 C 0.20194 0.47097 0.21458 0.0
C810 C 0.18585 0.49203 0.2325 0.0
C811 C 0.22348 0.48056 0.19313 0.0
C812 C 0.22924 0.5116 0.18829 0.0
H813 H 0.19789 0.44682 0.21712 0.0
H814 H 0.23513 0.46351 0.17971 0.0
S815 S 0.19379 0.57593 0.22977 0.0
N816 N 0.17785 0.54537 0.24457 0.0
N817 N 0.21778 0.5634 0.20377 0.0
C818 C 0.21353 0.53291 0.20623 0.0
C819 C 0.19202 0.52313 0.22848 0.0
C820 C 0.46793 0.78544 0.7976 0.0
C821 C 0.48956 0.7685 0.81395 0.0
C822 C 0.47683 0.80688 0.77578 0.0
C823 C 0.50772 0.81268 0.76999 0.0
H824 H 0.44387 0.78209 0.80162 0.0
H825 H 0.45936 0.8195 0.7639 0.0
S826 S 0.57337 0.77407 0.8062 0.0
N827 N 0.54327 0.75844 0.82227 0.0
N828 N 0.56001 0.79924 0.78181 0.0
C829 C 0.52961 0.79577 0.78601 0.0
C830 C 0.52053 0.77352 0.80782 0.0
C831 C 0.2145 0.46908 0.79614 0.0
C832 C 0.2305 0.49026 0.81398 0.0
C833 C 0.19353 0.47859 0.77408 0.0
C834 C 0.18719 0.50959 0.76964 0.0
H835 H 0.2183 0.44495 0.79912 0.0
H836 H 0.18169 0.4615 0.7609 0.0
S837 S 0.22313 0.57415 0.81026 0.0
N838 N 0.23902 0.54366 0.82527 0.0
N839 N 0.19899 0.56148 0.78448 0.0
C840 C 0.20307 0.531 0.78728 0.0
C841 C 0.2249 0.52135 0.80925 0.0
C842 C 0.47038 0.20344 0.78922 0.0
C843 C 0.49073 0.18621 0.77155 0.0
C844 C 0.48088 0.22511 0.81007 0.0
C845 C 0.51216 0.22995 0.8145 0.0
H846 H 0.44608 0.20024 0.78691 0.0
H847 H 0.46434 0.23767 0.82329 0.0
S848 S 0.57492 0.1912 0.77352 0.0
N849 N 0.54369 0.176 0.75935 0.0
N850 N 0.56343 0.21626 0.79898 0.0
C851 C 0.53278 0.21304 0.79685 0.0
C852 C 0.52207 0.19132 0.77523 0.0
C853 C 0.76622 0.50841 0.78686 0.0
C854 C 0.77498 0.51496 0.81687 0.0
C855 C 0.78788 0.49996 0.76495 0.0
C856 C 0.8187 0.49674 0.77275 0.0
H857 H 0.7426 0.51032 0.78019 0.0
H858 H 0.7804 0.49531 0.74197 0.0
S859 S 0.85291 0.51065 0.84839 0.0
N860 N 0.8164 0.51798 0.85317 0.0
N861 N 0.85682 0.50054 0.81244 0.0
C862 C 0.82759 0.5028 0.80276 0.0
C863 C 0.80576 0.51234 0.82474 0.0
loop_
_geom_bond_atom_site_label_1
_geom_bond_atom_site_label_2
_geom_bond_distance
_geom_bond_site_symmetry_2
_ccdc_geom_bond_type
O0 Cd1 2.223 . S
O0 C8 1.315 . S
Cd1 O0 2.223 . S
Cd1 O4 2.297 . S
Cd1 O5 2.439 . S
Cd1 O11 2.240 . S
Cd2 O3 2.240 . S
Cd2 O10 2.223 . S
Cd2 O12 2.297 . S
Cd2 O13 2.439 . S
O3 Cd2 2.240 . S
O3 C8 1.279 . S
O4 Cd1 2.297 . S
O4 C6 1.247 . S
O5 Cd1 2.439 . S
O5 C6 1.208 . S
C6 O4 1.247 . S
C6 O5 1.208 . S
C7 O12 1.247 . S
C7 O13 1.208 . S
C8 O0 1.315 . S
C8 O3 1.279 . S
C9 O10 1.315 . S
C9 O11 1.279 . S
O10 Cd2 2.223 . S
O10 C9 1.315 . S
O11 Cd1 2.240 . S
O11 C9 1.279 . S
O12 Cd2 2.297 . S
O12 C7 1.247 . S
O13 Cd2 2.439 . S
O13 C7 1.208 . S
O14 Cd15 2.223 . S
O14 C22 1.315 . S
Cd15 O14 2.223 . S
Cd15 O18 2.297 . S
Cd15 O19 2.439 . S
Cd15 O25 2.240 . S
Cd16 O17 2.240 . S
Cd16 O24 2.223 . S
Cd16 O26 2.297 . S
Cd16 O27 2.439 . S
O17 Cd16 2.240 . S
O17 C22 1.279 . S
O18 Cd15 2.297 . S
O18 C20 1.247 . S
O19 Cd15 2.439 . S
O19 C20 1.208 . S
C20 O18 1.247 . S
C20 O19 1.208 . S
C21 O26 1.247 . S
C21 O27 1.208 . S
C22 O14 1.315 . S
C22 O17 1.279 . S
C23 O24 1.315 . S
C23 O25 1.279 . S
O24 Cd16 2.223 . S
O24 C23 1.315 . S
O25 Cd15 2.240 . S
O25 C23 1.279 . S
O26 Cd16 2.297 . S
O26 C21 1.247 . S
O27 Cd16 2.439 . S
O27 C21 1.208 . S
O28 Cd29 2.223 . S
O28 C36 1.315 . S
Cd29 O28 2.223 . S
Cd29 O32 2.297 . S
Cd29 O33 2.439 . S
Cd29 O39 2.240 . S
Cd30 O31 2.240 . S
Cd30 O38 2.223 . S
Cd30 O40 2.297 . S
Cd30 O41 2.439 . S
O31 Cd30 2.240 . S
O31 C36 1.279 . S
O32 Cd29 2.297 . S
O32 C34 1.247 . S
O33 Cd29 2.439 . S
O33 C34 1.208 . S
C34 O32 1.247 . S
C34 O33 1.208 . S
C35 O40 1.247 . S
C35 O41 1.208 . S
C36 O28 1.315 . S
C36 O31 1.279 . S
C37 O38 1.315 . S
C37 O39 1.279 . S
O38 Cd30 2.223 . S
O38 C37 1.315 . S
O39 Cd29 2.240 . S
O39 C37 1.279 . S
O40 Cd30 2.297 . S
O40 C35 1.247 . S
O41 Cd30 2.439 . S
O41 C35 1.208 . S
O42 Cd43 2.223 . S
O42 C50 1.315 . S
Cd43 O42 2.223 . S
Cd43 O46 2.297 . S
Cd43 O47 2.439 . S
Cd43 O53 2.240 . S
Cd44 O45 2.240 . S
Cd44 O52 2.223 . S
Cd44 O54 2.297 . S
Cd44 O55 2.439 . S
O45 Cd44 2.240 . S
O45 C50 1.279 . S
O46 Cd43 2.297 . S
O46 C48 1.247 . S
O47 Cd43 2.439 . S
O47 C48 1.208 . S
C48 O46 1.247 . S
C48 O47 1.208 . S
C49 O54 1.247 . S
C49 O55 1.208 . S
C50 O42 1.315 . S
C50 O45 1.279 . S
C51 O52 1.315 . S
C51 O53 1.279 . S
O52 Cd44 2.223 . S
O52 C51 1.315 . S
O53 Cd43 2.240 . S
O53 C51 1.279 . S
O54 Cd44 2.297 . S
O54 C49 1.247 . S
O55 Cd44 2.439 . S
O55 C49 1.208 . S
O56 Cd57 2.223 . S
O56 C64 1.315 . S
Cd57 O56 2.223 . S
Cd57 O60 2.297 . S
Cd57 O61 2.439 . S
Cd57 O67 2.240 . S
Cd58 O59 2.240 . S
Cd58 O66 2.223 . S
Cd58 O68 2.297 . S
Cd58 O69 2.439 . S
O59 Cd58 2.240 . S
O59 C64 1.279 . S
O60 Cd57 2.297 . S
O60 C62 1.247 . S
O61 Cd57 2.439 . S
O61 C62 1.208 . S
C62 O60 1.247 . S
C62 O61 1.208 . S
C63 O68 1.247 . S
C63 O69 1.208 . S
C64 O56 1.315 . S
C64 O59 1.279 . S
C65 O66 1.315 . S
C65 O67 1.279 . S
O66 Cd58 2.223 . S
O66 C65 1.315 . S
O67 Cd57 2.240 . S
O67 C65 1.279 . S
O68 Cd58 2.297 . S
O68 C63 1.247 . S
O69 Cd58 2.439 . S
O69 C63 1.208 . S
O70 Cd71 2.223 . S
O70 C78 1.315 . S
Cd71 O70 2.223 . S
Cd71 O74 2.297 . S
Cd71 O75 2.439 . S
Cd71 O81 2.240 . S
Cd72 O73 2.240 . S
Cd72 O80 2.223 . S
Cd72 O82 2.297 . S
Cd72 O83 2.439 . S
O73 Cd72 2.240 . S
O73 C78 1.279 . S
O74 Cd71 2.297 . S
O74 C76 1.247 . S
O75 Cd71 2.439 . S
O75 C76 1.208 . S
C76 O74 1.247 . S
C76 O75 1.208 . S
C77 O82 1.247 . S
C77 O83 1.208 . S
C78 O70 1.315 . S
C78 O73 1.279 . S
C79 O80 1.315 . S
C79 O81 1.279 . S
O80 Cd72 2.223 . S
O80 C79 1.315 . S
O81 Cd71 2.240 . S
O81 C79 1.279 . S
O82 Cd72 2.297 . S
O82 C77 1.247 . S
O83 Cd72 2.439 . S
O83 C77 1.208 . S
O84 Cd85 2.223 . S
O84 C92 1.315 . S
Cd85 O84 2.223 . S
Cd85 O88 2.297 . S
Cd85 O89 2.439 . S
Cd85 O95 2.240 . S
Cd86 O87 2.240 . S
Cd86 O94 2.223 . S
Cd86 O96 2.297 . S
Cd86 O97 2.439 . S
O87 Cd86 2.240 . S
O87 C92 1.279 . S
O88 Cd85 2.297 . S
O88 C90 1.247 . S
O89 Cd85 2.439 . S
O89 C90 1.208 . S
C90 O88 1.247 . S
C90 O89 1.208 . S
C91 O96 1.247 . S
C91 O97 1.208 . S
C92 O84 1.315 . S
C92 O87 1.279 . S
C93 O94 1.315 . S
C93 O95 1.279 . S
O94 Cd86 2.223 . S
O94 C93 1.315 . S
O95 Cd85 2.240 . S
O95 C93 1.279 . S
O96 Cd86 2.297 . S
O96 C91 1.247 . S
O97 Cd86 2.439 . S
O97 C91 1.208 . S
O98 Cd99 2.223 . S
O98 C106 1.315 . S
Cd99 O98 2.223 . S
Cd99 O102 2.297 . S
Cd99 O103 2.439 . S
Cd99 O109 2.240 . S
Cd100 O101 2.240 . S
Cd100 O108 2.223 . S
Cd100 O110 2.297 . S
Cd100 O111 2.439 . S
O101 Cd100 2.240 . S
O101 C106 1.279 . S
O102 Cd99 2.297 . S
O102 C104 1.247 . S
O103 Cd99 2.439 . S
O103 C104 1.208 . S
C104 O102 1.247 . S
C104 O103 1.208 . S
C105 O110 1.247 . S
C105 O111 1.208 . S
C106 O98 1.315 . S
C106 O101 1.279 . S
C107 O108 1.315 . S
C107 O109 1.279 . S
O108 Cd100 2.223 . S
O108 C107 1.315 . S
O109 Cd99 2.240 . S
O109 C107 1.279 . S
O110 Cd100 2.297 . S
O110 C105 1.247 . S
O111 Cd100 2.439 . S
O111 C105 1.208 . S
O112 Cd113 2.223 . S
O112 C120 1.315 . S
Cd113 O112 2.223 . S
Cd113 O116 2.297 . S
Cd113 O117 2.439 . S
Cd113 O123 2.240 . S
Cd114 O115 2.240 . S
Cd114 O122 2.223 . S
Cd114 O124 2.297 . S
Cd114 O125 2.439 . S
O115 Cd114 2.240 . S
O115 C120 1.279 . S
O116 Cd113 2.297 . S
O116 C118 1.247 . S
O117 Cd113 2.439 . S
O117 C118 1.208 . S
C118 O116 1.247 . S
C118 O117 1.208 . S
C119 O124 1.247 . S
C119 O125 1.208 . S
C120 O112 1.315 . S
C120 O115 1.279 . S
C121 O122 1.315 . S
C121 O123 1.279 . S
O122 Cd114 2.223 . S
O122 C121 1.315 . S
O123 Cd113 2.240 . S
O123 C121 1.279 . S
O124 Cd114 2.297 . S
O124 C119 1.247 . S
O125 Cd114 2.439 . S
O125 C119 1.208 . S
O126 Cd127 2.223 . S
O126 C134 1.315 . S
Cd127 O126 2.223 . S
Cd127 O130 2.297 . S
Cd127 O131 2.439 . S
Cd127 O137 2.240 . S
Cd128 O129 2.240 . S
Cd128 O136 2.223 . S
Cd128 O138 2.297 . S
Cd128 O139 2.439 . S
O129 Cd128 2.240 . S
O129 C134 1.279 . S
O130 Cd127 2.297 . S
O130 C132 1.247 . S
O131 Cd127 2.439 . S
O131 C132 1.208 . S
C132 O130 1.247 . S
C132 O131 1.208 . S
C133 O138 1.247 . S
C133 O139 1.208 . S
C134 O126 1.315 . S
C134 O129 1.279 . S
C135 O136 1.315 . S
C135 O137 1.279 . S
O136 Cd128 2.223 . S
O136 C135 1.315 . S
O137 Cd127 2.240 . S
O137 C135 1.279 . S
O138 Cd128 2.297 . S
O138 C133 1.247 . S
O139 Cd128 2.439 . S
O139 C133 1.208 . S
O140 Cd141 2.223 . S
O140 C148 1.315 . S
Cd141 O140 2.223 . S
Cd141 O144 2.297 . S
Cd141 O145 2.439 . S
Cd141 O151 2.240 . S
Cd142 O143 2.240 . S
Cd142 O150 2.223 . S
Cd142 O152 2.297 . S
Cd142 O153 2.439 . S
O143 Cd142 2.240 . S
O143 C148 1.279 . S
O144 Cd141 2.297 . S
O144 C146 1.247 . S
O145 Cd141 2.439 . S
O145 C146 1.208 . S
C146 O144 1.247 . S
C146 O145 1.208 . S
C147 O152 1.247 . S
C147 O153 1.208 . S
C148 O140 1.315 . S
C148 O143 1.279 . S
C149 O150 1.315 . S
C149 O151 1.279 . S
O150 Cd142 2.223 . S
O150 C149 1.315 . S
O151 Cd141 2.240 . S
O151 C149 1.279 . S
O152 Cd142 2.297 . S
O152 C147 1.247 . S
O153 Cd142 2.439 . S
O153 C147 1.208 . S
O154 Cd155 2.223 . S
O154 C162 1.315 . S
Cd155 O154 2.223 . S
Cd155 O158 2.297 . S
Cd155 O159 2.439 . S
Cd155 O165 2.240 . S
Cd156 O157 2.240 . S
Cd156 O164 2.223 . S
Cd156 O166 2.297 . S
Cd156 O167 2.439 . S
O157 Cd156 2.240 . S
O157 C162 1.279 . S
O158 Cd155 2.297 . S
O158 C160 1.247 . S
O159 Cd155 2.439 . S
O159 C160 1.208 . S
C160 O158 1.247 . S
C160 O159 1.208 . S
C161 O166 1.247 . S
C161 O167 1.208 . S
C162 O154 1.315 . S
C162 O157 1.279 . S
C163 O164 1.315 . S
C163 O165 1.279 . S
O164 Cd156 2.223 . S
O164 C163 1.315 . S
O165 Cd155 2.240 . S
O165 C163 1.279 . S
O166 Cd156 2.297 . S
O166 C161 1.247 . S
O167 Cd156 2.439 . S
O167 C161 1.208 . S
O168 Cd169 2.223 . S
O168 C176 1.315 . S
Cd169 O168 2.223 . S
Cd169 O172 2.297 . S
Cd169 O173 2.439 . S
Cd169 O179 2.240 . S
Cd170 O171 2.240 . S
Cd170 O178 2.223 . S
Cd170 O180 2.297 . S
Cd170 O181 2.439 . S
O171 Cd170 2.240 . S
O171 C176 1.279 . S
O172 Cd169 2.297 . S
O172 C174 1.247 . S
O173 Cd169 2.439 . S
O173 C174 1.208 . S
C174 O172 1.247 . S
C174 O173 1.208 . S
C175 O180 1.247 . S
C175 O181 1.208 . S
C176 O168 1.315 . S
C176 O171 1.279 . S
C177 O178 1.315 . S
C177 O179 1.279 . S
O178 Cd170 2.223 . S
O178 C177 1.315 . S
O179 Cd169 2.240 . S
O179 C177 1.279 . S
O180 Cd170 2.297 . S
O180 C175 1.247 . S
O181 Cd170 2.439 . S
O181 C175 1.208 . S
O182 Cd183 2.223 . S
O182 C190 1.315 . S
Cd183 O182 2.223 . S
Cd183 O186 2.297 . S
Cd183 O187 2.439 . S
Cd183 O193 2.240 . S
Cd184 O185 2.240 . S
Cd184 O192 2.223 . S
Cd184 O194 2.297 . S
Cd184 O195 2.439 . S
O185 Cd184 2.240 . S
O185 C190 1.279 . S
O186 Cd183 2.297 . S
O186 C188 1.247 . S
O187 Cd183 2.439 . S
O187 C188 1.208 . S
C188 O186 1.247 . S
C188 O187 1.208 . S
C189 O194 1.247 . S
C189 O195 1.208 . S
C190 O182 1.315 . S
C190 O185 1.279 . S
C191 O192 1.315 . S
C191 O193 1.279 . S
O192 Cd184 2.223 . S
O192 C191 1.315 . S
O193 Cd183 2.240 . S
O193 C191 1.279 . S
O194 Cd184 2.297 . S
O194 C189 1.247 . S
O195 Cd184 2.439 . S
O195 C189 1.208 . S
O196 Cd197 2.223 . S
O196 C204 1.315 . S
Cd197 O196 2.223 . S
Cd197 O200 2.297 . S
Cd197 O201 2.439 . S
Cd197 O207 2.240 . S
Cd198 O199 2.240 . S
Cd198 O206 2.223 . S
Cd198 O208 2.297 . S
Cd198 O209 2.439 . S
O199 Cd198 2.240 . S
O199 C204 1.279 . S
O200 Cd197 2.297 . S
O200 C202 1.247 . S
O201 Cd197 2.439 . S
O201 C202 1.208 . S
C202 O200 1.247 . S
C202 O201 1.208 . S
C203 O208 1.247 . S
C203 O209 1.208 . S
C204 O196 1.315 . S
C204 O199 1.279 . S
C205 O206 1.315 . S
C205 O207 1.279 . S
O206 Cd198 2.223 . S
O206 C205 1.315 . S
O207 Cd197 2.240 . S
O207 C205 1.279 . S
O208 Cd198 2.297 . S
O208 C203 1.247 . S
O209 Cd198 2.439 . S
O209 C203 1.208 . S
O210 Cd211 2.223 . S
O210 C218 1.315 . S
Cd211 O210 2.223 . S
Cd211 O214 2.297 . S
Cd211 O215 2.439 . S
Cd211 O221 2.240 . S
Cd212 O213 2.240 . S
Cd212 O220 2.223 . S
Cd212 O222 2.297 . S
Cd212 O223 2.439 . S
O213 Cd212 2.240 . S
O213 C218 1.279 . S
O214 Cd211 2.297 . S
O214 C216 1.247 . S
O215 Cd211 2.439 . S
O215 C216 1.208 . S
C216 O214 1.247 . S
C216 O215 1.208 . S
C217 O222 1.247 . S
C217 O223 1.208 . S
C218 O210 1.315 . S
C218 O213 1.279 . S
C219 O220 1.315 . S
C219 O221 1.279 . S
O220 Cd212 2.223 . S
O220 C219 1.315 . S
O221 Cd211 2.240 . S
O221 C219 1.279 . S
O222 Cd212 2.297 . S
O222 C217 1.247 . S
O223 Cd212 2.439 . S
O223 C217 1.208 . S
O224 Cd225 2.223 . S
O224 C232 1.315 . S
Cd225 O224 2.223 . S
Cd225 O228 2.297 . S
Cd225 O229 2.439 . S
Cd225 O235 2.240 . S
Cd226 O227 2.240 . S
Cd226 O234 2.223 . S
Cd226 O236 2.297 . S
Cd226 O237 2.439 . S
O227 Cd226 2.240 . S
O227 C232 1.279 . S
O228 Cd225 2.297 . S
O228 C230 1.247 . S
O229 Cd225 2.439 . S
O229 C230 1.208 . S
C230 O228 1.247 . S
C230 O229 1.208 . S
C231 O236 1.247 . S
C231 O237 1.208 . S
C232 O224 1.315 . S
C232 O227 1.279 . S
C233 O234 1.315 . S
C233 O235 1.279 . S
O234 Cd226 2.223 . S
O234 C233 1.315 . S
O235 Cd225 2.240 . S
O235 C233 1.279 . S
O236 Cd226 2.297 . S
O236 C231 1.247 . S
O237 Cd226 2.439 . S
O237 C231 1.208 . S
O238 Cd239 2.223 . S
O238 C246 1.315 . S
Cd239 O238 2.223 . S
Cd239 O242 2.297 . S
Cd239 O243 2.439 . S
Cd239 O249 2.240 . S
Cd240 O241 2.240 . S
Cd240 O248 2.223 . S
Cd240 O250 2.297 . S
Cd240 O251 2.439 . S
O241 Cd240 2.240 . S
O241 C246 1.279 . S
O242 Cd239 2.297 . S
O242 C244 1.247 . S
O243 Cd239 2.439 . S
O243 C244 1.208 . S
C244 O242 1.247 . S
C244 O243 1.208 . S
C245 O250 1.247 . S
C245 O251 1.208 . S
C246 O238 1.315 . S
C246 O241 1.279 . S
C247 O248 1.315 . S
C247 O249 1.279 . S
O248 Cd240 2.223 . S
O248 C247 1.315 . S
O249 Cd239 2.240 . S
O249 C247 1.279 . S
O250 Cd240 2.297 . S
O250 C245 1.247 . S
O251 Cd240 2.439 . S
O251 C245 1.208 . S
O252 Cd253 2.223 . S
O252 C260 1.315 . S
Cd253 O252 2.223 . S
Cd253 O256 2.297 . S
Cd253 O257 2.439 . S
Cd253 O263 2.240 . S
Cd254 O255 2.240 . S
Cd254 O262 2.223 . S
Cd254 O264 2.297 . S
Cd254 O265 2.439 . S
O255 Cd254 2.240 . S
O255 C260 1.279 . S
O256 Cd253 2.297 . S
O256 C258 1.247 . S
O257 Cd253 2.439 . S
O257 C258 1.208 . S
C258 O256 1.247 . S
C258 O257 1.208 . S
C259 O264 1.247 . S
C259 O265 1.208 . S
C260 O252 1.315 . S
C260 O255 1.279 . S
C261 O262 1.315 . S
C261 O263 1.279 . S
O262 Cd254 2.223 . S
O262 C261 1.315 . S
O263 Cd253 2.240 . S
O263 C261 1.279 . S
O264 Cd254 2.297 . S
O264 C259 1.247 . S
O265 Cd254 2.439 . S
O265 C259 1.208 . S
O266 Cd267 2.223 . S
O266 C274 1.315 . S
Cd267 O266 2.223 . S
Cd267 O270 2.297 . S
Cd267 O271 2.439 . S
Cd267 O277 2.240 . S
Cd268 O269 2.240 . S
Cd268 O276 2.223 . S
Cd268 O278 2.297 . S
Cd268 O279 2.439 . S
O269 Cd268 2.240 . S
O269 C274 1.279 . S
O270 Cd267 2.297 . S
O270 C272 1.247 . S
O271 Cd267 2.439 . S
O271 C272 1.208 . S
C272 O270 1.247 . S
C272 O271 1.208 . S
C273 O278 1.247 . S
C273 O279 1.208 . S
C274 O266 1.315 . S
C274 O269 1.279 . S
C275 O276 1.315 . S
C275 O277 1.279 . S
O276 Cd268 2.223 . S
O276 C275 1.315 . S
O277 Cd267 2.240 . S
O277 C275 1.279 . S
O278 Cd268 2.297 . S
O278 C273 1.247 . S
O279 Cd268 2.439 . S
O279 C273 1.208 . S
O280 Cd281 2.223 . S
O280 C288 1.315 . S
Cd281 O280 2.223 . S
Cd281 O284 2.297 . S
Cd281 O285 2.439 . S
Cd281 O291 2.240 . S
Cd282 O283 2.240 . S
Cd282 O290 2.223 . S
Cd282 O292 2.297 . S
Cd282 O293 2.439 . S
O283 Cd282 2.240 . S
O283 C288 1.279 . S
O284 Cd281 2.297 . S
O284 C286 1.247 . S
O285 Cd281 2.439 . S
O285 C286 1.208 . S
C286 O284 1.247 . S
C286 O285 1.208 . S
C287 O292 1.247 . S
C287 O293 1.208 . S
C288 O280 1.315 . S
C288 O283 1.279 . S
C289 O290 1.315 . S
C289 O291 1.279 . S
O290 Cd282 2.223 . S
O290 C289 1.315 . S
O291 Cd281 2.240 . S
O291 C289 1.279 . S
O292 Cd282 2.297 . S
O292 C287 1.247 . S
O293 Cd282 2.439 . S
O293 C287 1.208 . S
O294 Cd295 2.223 . S
O294 C302 1.315 . S
Cd295 O294 2.223 . S
Cd295 O298 2.297 . S
Cd295 O299 2.439 . S
Cd295 O305 2.240 . S
Cd296 O297 2.240 . S
Cd296 O304 2.223 . S
Cd296 O306 2.297 . S
Cd296 O307 2.439 . S
O297 Cd296 2.240 . S
O297 C302 1.279 . S
O298 Cd295 2.297 . S
O298 C300 1.247 . S
O299 Cd295 2.439 . S
O299 C300 1.208 . S
C300 O298 1.247 . S
C300 O299 1.208 . S
C301 O306 1.247 . S
C301 O307 1.208 . S
C302 O294 1.315 . S
C302 O297 1.279 . S
C303 O304 1.315 . S
C303 O305 1.279 . S
O304 Cd296 2.223 . S
O304 C303 1.315 . S
O305 Cd295 2.240 . S
O305 C303 1.279 . S
O306 Cd296 2.297 . S
O306 C301 1.247 . S
O307 Cd296 2.439 . S
O307 C301 1.208 . S
O308 Cd309 2.223 . S
O308 C316 1.315 . S
Cd309 O308 2.223 . S
Cd309 O312 2.297 . S
Cd309 O313 2.439 . S
Cd309 O319 2.240 . S
Cd310 O311 2.240 . S
Cd310 O318 2.223 . S
Cd310 O320 2.297 . S
Cd310 O321 2.439 . S
O311 Cd310 2.240 . S
O311 C316 1.279 . S
O312 Cd309 2.297 . S
O312 C314 1.247 . S
O313 Cd309 2.439 . S
O313 C314 1.208 . S
C314 O312 1.247 . S
C314 O313 1.208 . S
C315 O320 1.247 . S
C315 O321 1.208 . S
C316 O308 1.315 . S
C316 O311 1.279 . S
C317 O318 1.315 . S
C317 O319 1.279 . S
O318 Cd310 2.223 . S
O318 C317 1.315 . S
O319 Cd309 2.240 . S
O319 C317 1.279 . S
O320 Cd310 2.297 . S
O320 C315 1.247 . S
O321 Cd310 2.439 . S
O321 C315 1.208 . S
O322 Cd323 2.223 . S
O322 C330 1.315 . S
Cd323 O322 2.223 . S
Cd323 O326 2.297 . S
Cd323 O327 2.439 . S
Cd323 O333 2.240 . S
Cd324 O325 2.240 . S
Cd324 O332 2.223 . S
Cd324 O334 2.297 . S
Cd324 O335 2.439 . S
O325 Cd324 2.240 . S
O325 C330 1.279 . S
O326 Cd323 2.297 . S
O326 C328 1.247 . S
O327 Cd323 2.439 . S
O327 C328 1.208 . S
C328 O326 1.247 . S
C328 O327 1.208 . S
C329 O334 1.247 . S
C329 O335 1.208 . S
C330 O322 1.315 . S
C330 O325 1.279 . S
C331 O332 1.315 . S
C331 O333 1.279 . S
O332 Cd324 2.223 . S
O332 C331 1.315 . S
O333 Cd323 2.240 . S
O333 C331 1.279 . S
O334 Cd324 2.297 . S
O334 C329 1.247 . S
O335 Cd324 2.439 . S
O335 C329 1.208 . S
C336 C337 1.369 . S
C336 C338 1.419 . S
C336 H340 0.930 . S
C337 C336 1.369 . S
C337 C346 1.429 . S
C338 C336 1.419 . S
C338 C339 1.363 . S
C338 H341 0.929 . S
C339 C338 1.363 . S
C339 C345 1.428 . S
H340 C336 0.930 . S
H341 C338 0.929 . S
S342 N343 1.613 . S
S342 N344 1.610 . S
N343 S342 1.613 . S
N343 C346 1.350 . S
N344 S342 1.610 . S
N344 C345 1.351 . S
C345 C339 1.428 . S
C345 N344 1.351 . S
C345 C346 1.434 . S
C346 C337 1.429 . S
C346 N343 1.350 . S
C346 C345 1.434 . S
C347 C348 1.369 . S
C347 C349 1.419 . S
C347 H351 0.930 . S
C348 C347 1.369 . S
C348 C357 1.429 . S
C349 C347 1.419 . S
C349 C350 1.363 . S
C349 H352 0.929 . S
C350 C349 1.363 . S
C350 C356 1.428 . S
H351 C347 0.930 . S
H352 C349 0.929 . S
S353 N354 1.613 . S
S353 N355 1.610 . S
N354 S353 1.613 . S
N354 C357 1.350 . S
N355 S353 1.610 . S
N355 C356 1.351 . S
C356 C350 1.428 . S
C356 N355 1.351 . S
C356 C357 1.434 . S
C357 C348 1.429 . S
C357 N354 1.350 . S
C357 C356 1.434 . S
C358 C359 1.369 . S
C358 C360 1.419 . S
C358 H362 0.930 . S
C359 C358 1.369 . S
C359 C368 1.429 . S
C360 C358 1.419 . S
C360 C361 1.363 . S
C360 H363 0.929 . S
C361 C360 1.363 . S
C361 C367 1.428 . S
H362 C358 0.930 . S
H363 C360 0.929 . S
S364 N365 1.613 . S
S364 N366 1.610 . S
N365 S364 1.613 . S
N365 C368 1.350 . S
N366 S364 1.610 . S
N366 C367 1.351 . S
C367 C361 1.428 . S
C367 N366 1.351 . S
C367 C368 1.434 . S
C368 C359 1.429 . S
C368 N365 1.350 . S
C368 C367 1.434 . S
C369 C370 1.369 . S
C369 C371 1.419 . S
C369 H373 0.930 . S
C370 C369 1.369 . S
C370 C379 1.429 . S
C371 C369 1.419 . S
C371 C372 1.363 . S
C371 H374 0.929 . S
C372 C371 1.363 . S
C372 C378 1.428 . S
H373 C369 0.930 . S
H374 C371 0.929 . S
S375 N376 1.613 . S
S375 N377 1.610 . S
N376 S375 1.613 . S
N376 C379 1.350 . S
N377 S375 1.610 . S
N377 C378 1.351 . S
C378 C372 1.428 . S
C378 N377 1.351 . S
C378 C379 1.434 . S
C379 C370 1.429 . S
C379 N376 1.350 . S
C379 C378 1.434 . S
C380 C381 1.369 . S
C380 C382 1.419 . S
C380 H384 0.930 . S
C381 C380 1.369 . S
C381 C390 1.429 . S
C382 C380 1.419 . S
C382 C383 1.363 . S
C382 H385 0.929 . S
C383 C382 1.363 . S
C383 C389 1.428 . S
H384 C380 0.930 . S
H385 C382 0.929 . S
S386 N387 1.613 . S
S386 N388 1.610 . S
N387 S386 1.613 . S
N387 C390 1.350 . S
N388 S386 1.610 . S
N388 C389 1.351 . S
C389 C383 1.428 . S
C389 N388 1.351 . S
C389 C390 1.434 . S
C390 C381 1.429 . S
C390 N387 1.350 . S
C390 C389 1.434 . S
C391 C392 1.369 . S
C391 C393 1.419 . S
C391 H395 0.930 . S
C392 C391 1.369 . S
C392 C401 1.429 . S
C393 C391 1.419 . S
C393 C394 1.363 . S
C393 H396 0.929 . S
C394 C393 1.363 . S
C394 C400 1.428 . S
H395 C391 0.930 . S
H396 C393 0.929 . S
S397 N398 1.613 . S
S397 N399 1.610 . S
N398 S397 1.613 . S
N398 C401 1.350 . S
N399 S397 1.610 . S
N399 C400 1.351 . S
C400 C394 1.428 . S
C400 N399 1.351 . S
C400 C401 1.434 . S
C401 C392 1.429 . S
C401 N398 1.350 . S
C401 C400 1.434 . S
C402 C403 1.369 . S
C402 C404 1.419 . S
C402 H406 0.930 . S
C403 C402 1.369 . S
C403 C412 1.429 . S
C404 C402 1.419 . S
C404 C405 1.363 . S
C404 H407 0.929 . S
C405 C404 1.363 . S
C405 C411 1.428 . S
H406 C402 0.930 . S
H407 C404 0.929 . S
S408 N409 1.613 . S
S408 N410 1.610 . S
N409 S408 1.613 . S
N409 C412 1.350 . S
N410 S408 1.610 . S
N410 C411 1.351 . S
C411 C405 1.428 . S
C411 N410 1.351 . S
C411 C412 1.434 . S
C412 C403 1.429 . S
C412 N409 1.350 . S
C412 C411 1.434 . S
C413 C414 1.369 . S
C413 C415 1.419 . S
C413 H417 0.930 . S
C414 C413 1.369 . S
C414 C423 1.429 . S
C415 C413 1.419 . S
C415 C416 1.363 . S
C415 H418 0.929 . S
C416 C415 1.363 . S
C416 C422 1.428 . S
H417 C413 0.930 . S
H418 C415 0.929 . S
S419 N420 1.613 . S
S419 N421 1.610 . S
N420 S419 1.613 . S
N420 C423 1.350 . S
N421 S419 1.610 . S
N421 C422 1.351 . S
C422 C416 1.428 . S
C422 N421 1.351 . S
C422 C423 1.434 . S
C423 C414 1.429 . S
C423 N420 1.350 . S
C423 C422 1.434 . S
C424 C425 1.369 . S
C424 C426 1.419 . S
C424 H428 0.930 . S
C425 C424 1.369 . S
C425 C434 1.429 . S
C426 C424 1.419 . S
C426 C427 1.363 . S
C426 H429 0.929 . S
C427 C426 1.363 . S
C427 C433 1.428 . S
H428 C424 0.930 . S
H429 C426 0.929 . S
S430 N431 1.613 . S
S430 N432 1.610 . S
N431 S430 1.613 . S
N431 C434 1.350 . S
N432 S430 1.610 . S
N432 C433 1.351 . S
C433 C427 1.428 . S
C433 N432 1.351 . S
C433 C434 1.434 . S
C434 C425 1.429 . S
C434 N431 1.350 . S
C434 C433 1.434 . S
C435 C436 1.369 . S
C435 C437 1.419 . S
C435 H439 0.930 . S
C436 C435 1.369 . S
C436 C445 1.429 . S
C437 C435 1.419 . S
C437 C438 1.363 . S
C437 H440 0.929 . S
C438 C437 1.363 . S
C438 C444 1.428 . S
H439 C435 0.930 . S
H440 C437 0.929 . S
S441 N442 1.613 . S
S441 N443 1.610 . S
N442 S441 1.613 . S
N442 C445 1.350 . S
N443 S441 1.610 . S
N443 C444 1.351 . S
C444 C438 1.428 . S
C444 N443 1.351 . S
C444 C445 1.434 . S
C445 C436 1.429 . S
C445 N442 1.350 . S
C445 C444 1.434 . S
C446 C447 1.369 . S
C446 C448 1.419 . S
C446 H450 0.930 . S
C447 C446 1.369 . S
C447 C456 1.429 . S
C448 C446 1.419 . S
C448 C449 1.363 . S
C448 H451 0.929 . S
C449 C448 1.363 . S
C449 C455 1.428 . S
H450 C446 0.930 . S
H451 C448 0.929 . S
S452 N453 1.613 . S
S452 N454 1.610 . S
N453 S452 1.613 . S
N453 C456 1.350 . S
N454 S452 1.610 . S
N454 C455 1.351 . S
C455 C449 1.428 . S
C455 N454 1.351 . S
C455 C456 1.434 . S
C456 C447 1.429 . S
C456 N453 1.350 . S
C456 C455 1.434 . S
C457 C458 1.369 . S
C457 C459 1.419 . S
C457 H461 0.930 . S
C458 C457 1.369 . S
C458 C467 1.429 . S
C459 C457 1.419 . S
C459 C460 1.363 . S
C459 H462 0.929 . S
C460 C459 1.363 . S
C460 C466 1.428 . S
H461 C457 0.930 . S
H462 C459 0.929 . S
S463 N464 1.613 . S
S463 N465 1.610 . S
N464 S463 1.613 . S
N464 C467 1.350 . S
N465 S463 1.610 . S
N465 C466 1.351 . S
C466 C460 1.428 . S
C466 N465 1.351 . S
C466 C467 1.434 . S
C467 C458 1.429 . S
C467 N464 1.350 . S
C467 C466 1.434 . S
C468 C469 1.369 . S
C468 C470 1.419 . S
C468 H472 0.930 . S
C469 C468 1.369 . S
C469 C478 1.429 . S
C470 C468 1.419 . S
C470 C471 1.363 . S
C470 H473 0.929 . S
C471 C470 1.363 . S
C471 C477 1.428 . S
H472 C468 0.930 . S
H473 C470 0.929 . S
S474 N475 1.613 . S
S474 N476 1.610 . S
N475 S474 1.613 . S
N475 C478 1.350 . S
N476 S474 1.610 . S
N476 C477 1.351 . S
C477 C471 1.428 . S
C477 N476 1.351 . S
C477 C478 1.434 . S
C478 C469 1.429 . S
C478 N475 1.350 . S
C478 C477 1.434 . S
C479 C480 1.369 . S
C479 C481 1.419 . S
C479 H483 0.930 . S
C480 C479 1.369 . S
C480 C489 1.429 . S
C481 C479 1.419 . S
C481 C482 1.363 . S
C481 H484 0.929 . S
C482 C481 1.363 . S
C482 C488 1.428 . S
H483 C479 0.930 . S
H484 C481 0.929 . S
S485 N486 1.613 . S
S485 N487 1.610 . S
N486 S485 1.613 . S
N486 C489 1.350 . S
N487 S485 1.610 . S
N487 C488 1.351 . S
C488 C482 1.428 . S
C488 N487 1.351 . S
C488 C489 1.434 . S
C489 C480 1.429 . S
C489 N486 1.350 . S
C489 C488 1.434 . S
C490 C491 1.369 . S
C490 C492 1.419 . S
C490 H494 0.930 . S
C491 C490 1.369 . S
C491 C500 1.429 . S
C492 C490 1.419 . S
C492 C493 1.363 . S
C492 H495 0.929 . S
C493 C492 1.363 . S
C493 C499 1.428 . S
H494 C490 0.930 . S
H495 C492 0.929 . S
S496 N497 1.613 . S
S496 N498 1.610 . S
N497 S496 1.613 . S
N497 C500 1.350 . S
N498 S496 1.610 . S
N498 C499 1.351 . S
C499 C493 1.428 . S
C499 N498 1.351 . S
C499 C500 1.434 . S
C500 C491 1.429 . S
C500 N497 1.350 . S
C500 C499 1.434 . S
C501 C502 1.369 . S
C501 C503 1.419 . S
C501 H505 0.930 . S
C502 C501 1.369 . S
C502 C511 1.429 . S
C503 C501 1.419 . S
C503 C504 1.363 . S
C503 H506 0.929 . S
C504 C503 1.363 . S
C504 C510 1.428 . S
H505 C501 0.930 . S
H506 C503 0.929 . S
S507 N508 1.613 . S
S507 N509 1.610 . S
N508 S507 1.613 . S
N508 C511 1.350 . S
N509 S507 1.610 . S
N509 C510 1.351 . S
C510 C504 1.428 . S
C510 N509 1.351 . S
C510 C511 1.434 . S
C511 C502 1.429 . S
C511 N508 1.350 . S
C511 C510 1.434 . S
C512 C513 1.369 . S
C512 C514 1.419 . S
C512 H516 0.930 . S
C513 C512 1.369 . S
C513 C522 1.429 . S
C514 C512 1.419 . S
C514 C515 1.363 . S
C514 H517 0.929 . S
C515 C514 1.363 . S
C515 C521 1.428 . S
H516 C512 0.930 . S
H517 C514 0.929 . S
S518 N519 1.613 . S
S518 N520 1.610 . S
N519 S518 1.613 . S
N519 C522 1.350 . S
N520 S518 1.610 . S
N520 C521 1.351 . S
C521 C515 1.428 . S
C521 N520 1.351 . S
C521 C522 1.434 . S
C522 C513 1.429 . S
C522 N519 1.350 . S
C522 C521 1.434 . S
C523 C524 1.369 . S
C523 C525 1.419 . S
C523 H527 0.930 . S
C524 C523 1.369 . S
C524 C533 1.429 . S
C525 C523 1.419 . S
C525 C526 1.363 . S
C525 H528 0.929 . S
C526 C525 1.363 . S
C526 C532 1.428 . S
H527 C523 0.930 . S
H528 C525 0.929 . S
S529 N530 1.613 . S
S529 N531 1.610 . S
N530 S529 1.613 . S
N530 C533 1.350 . S
N531 S529 1.610 . S
N531 C532 1.351 . S
C532 C526 1.428 . S
C532 N531 1.351 . S
C532 C533 1.434 . S
C533 C524 1.429 . S
C533 N530 1.350 . S
C533 C532 1.434 . S
C534 C535 1.369 . S
C534 C536 1.419 . S
C534 H538 0.930 . S
C535 C534 1.369 . S
C535 C544 1.429 . S
C536 C534 1.419 . S
C536 C537 1.363 . S
C536 H539 0.929 . S
C537 C536 1.363 . S
C537 C543 1.428 . S
H538 C534 0.930 . S
H539 C536 0.929 . S
S540 N541 1.613 . S
S540 N542 1.610 . S
N541 S540 1.613 . S
N541 C544 1.350 . S
N542 S540 1.610 . S
N542 C543 1.351 . S
C543 C537 1.428 . S
C543 N542 1.351 . S
C543 C544 1.434 . S
C544 C535 1.429 . S
C544 N541 1.350 . S
C544 C543 1.434 . S
C545 C546 1.369 . S
C545 C547 1.419 . S
C545 H549 0.930 . S
C546 C545 1.369 . S
C546 C555 1.429 . S
C547 C545 1.419 . S
C547 C548 1.363 . S
C547 H550 0.929 . S
C548 C547 1.363 . S
C548 C554 1.428 . S
H549 C545 0.930 . S
H550 C547 0.929 . S
S551 N552 1.613 . S
S551 N553 1.610 . S
N552 S551 1.613 . S
N552 C555 1.350 . S
N553 S551 1.610 . S
N553 C554 1.351 . S
C554 C548 1.428 . S
C554 N553 1.351 . S
C554 C555 1.434 . S
C555 C546 1.429 . S
C555 N552 1.350 . S
C555 C554 1.434 . S
C556 C557 1.369 . S
C556 C558 1.419 . S
C556 H560 0.930 . S
C557 C556 1.369 . S
C557 C566 1.429 . S
C558 C556 1.419 . S
C558 C559 1.363 . S
C558 H561 0.929 . S
C559 C558 1.363 . S
C559 C565 1.428 . S
H560 C556 0.930 . S
H561 C558 0.929 . S
S562 N563 1.613 . S
S562 N564 1.610 . S
N563 S562 1.613 . S
N563 C566 1.350 . S
N564 S562 1.610 . S
N564 C565 1.351 . S
C565 C559 1.428 . S
C565 N564 1.351 . S
C565 C566 1.434 . S
C566 C557 1.429 . S
C566 N563 1.350 . S
C566 C565 1.434 . S
C567 C568 1.369 . S
C567 C569 1.419 . S
C567 H571 0.930 . S
C568 C567 1.369 . S
C568 C577 1.429 . S
C569 C567 1.419 . S
C569 C570 1.363 . S
C569 H572 0.929 . S
C570 C569 1.363 . S
C570 C576 1.428 . S
H571 C567 0.930 . S
H572 C569 0.929 . S
S573 N574 1.613 . S
S573 N575 1.610 . S
N574 S573 1.613 . S
N574 C577 1.350 . S
N575 S573 1.610 . S
N575 C576 1.351 . S
C576 C570 1.428 . S
C576 N575 1.351 . S
C576 C577 1.434 . S
C577 C568 1.429 . S
C577 N574 1.350 . S
C577 C576 1.434 . S
C578 C579 1.369 . S
C578 C580 1.419 . S
C578 H582 0.930 . S
C579 C578 1.369 . S
C579 C588 1.429 . S
C580 C578 1.419 . S
C580 C581 1.363 . S
C580 H583 0.929 . S
C581 C580 1.363 . S
C581 C587 1.428 . S
H582 C578 0.930 . S
H583 C580 0.929 . S
S584 N585 1.613 . S
S584 N586 1.610 . S
N585 S584 1.613 . S
N585 C588 1.350 . S
N586 S584 1.610 . S
N586 C587 1.351 . S
C587 C581 1.428 . S
C587 N586 1.351 . S
C587 C588 1.434 . S
C588 C579 1.429 . S
C588 N585 1.350 . S
C588 C587 1.434 . S
C589 C590 1.369 . S
C589 C591 1.419 . S
C589 H593 0.930 . S
C590 C589 1.369 . S
C590 C599 1.429 . S
C591 C589 1.419 . S
C591 C592 1.363 . S
C591 H594 0.929 . S
C592 C591 1.363 . S
C592 C598 1.428 . S
H593 C589 0.930 . S
H594 C591 0.929 . S
S595 N596 1.613 . S
S595 N597 1.610 . S
N596 S595 1.613 . S
N596 C599 1.350 . S
N597 S595 1.610 . S
N597 C598 1.351 . S
C598 C592 1.428 . S
C598 N597 1.351 . S
C598 C599 1.434 . S
C599 C590 1.429 . S
C599 N596 1.350 . S
C599 C598 1.434 . S
C600 C601 1.369 . S
C600 C602 1.419 1_455 S
C600 H604 0.930 . S
C601 C600 1.369 . S
C601 C610 1.429 . S
C602 C600 1.419 1_655 S
C602 C603 1.363 . S
C602 H605 0.929 . S
C603 C602 1.363 . S
C603 C609 1.428 . S
H604 C600 0.930 . S
H605 C602 0.929 . S
S606 N607 1.613 . S
S606 N608 1.610 1_455 S
N607 S606 1.613 . S
N607 C610 1.350 . S
N608 S606 1.610 1_655 S
N608 C609 1.351 . S
C609 C603 1.428 . S
C609 N608 1.351 . S
C609 C610 1.434 1_655 S
C610 C601 1.429 . S
C610 N607 1.350 . S
C610 C609 1.434 1_455 S
C611 C612 1.369 . S
C611 C613 1.419 1_545 S
C611 H615 0.930 . S
C612 C611 1.369 . S
C612 C621 1.429 . S
C613 C611 1.419 1_565 S
C613 C614 1.363 . S
C613 H616 0.929 . S
C614 C613 1.363 . S
C614 C620 1.428 . S
H615 C611 0.930 . S
H616 C613 0.929 . S
S617 N618 1.613 . S
S617 N619 1.610 1_545 S
N618 S617 1.613 . S
N618 C621 1.350 . S
N619 S617 1.610 1_565 S
N619 C620 1.351 . S
C620 C614 1.428 . S
C620 N619 1.351 . S
C620 C621 1.434 1_565 S
C621 C612 1.429 . S
C621 N618 1.350 . S
C621 C620 1.434 1_545 S
C622 C623 1.369 . S
C622 C624 1.419 1_655 S
C622 H626 0.930 . S
C623 C622 1.369 . S
C623 C632 1.429 . S
C624 C622 1.419 1_455 S
C624 C625 1.363 . S
C624 H627 0.929 . S
C625 C624 1.363 . S
C625 C631 1.428 . S
H626 C622 0.930 . S
H627 C624 0.929 . S
S628 N629 1.613 . S
S628 N630 1.610 1_655 S
N629 S628 1.613 . S
N629 C632 1.350 . S
N630 S628 1.610 1_455 S
N630 C631 1.351 . S
C631 C625 1.428 . S
C631 N630 1.351 . S
C631 C632 1.434 1_455 S
C632 C623 1.429 . S
C632 N629 1.350 . S
C632 C631 1.434 1_655 S
C633 C634 1.369 . S
C633 C635 1.419 1_545 S
C633 H637 0.930 . S
C634 C633 1.369 . S
C634 C643 1.429 . S
C635 C633 1.419 1_565 S
C635 C636 1.363 . S
C635 H638 0.929 . S
C636 C635 1.363 . S
C636 C642 1.428 . S
H637 C633 0.930 . S
H638 C635 0.929 . S
S639 N640 1.613 1_565 S
S639 N641 1.610 . S
N640 S639 1.613 1_545 S
N640 C643 1.350 . S
N641 S639 1.610 . S
N641 C642 1.351 . S
C642 C636 1.428 . S
C642 N641 1.351 . S
C642 C643 1.434 1_565 S
C643 C634 1.429 . S
C643 N640 1.350 . S
C643 C642 1.434 1_545 S
C644 C645 1.369 . S
C644 C646 1.419 1_565 S
C644 H648 0.930 . S
C645 C644 1.369 . S
C645 C654 1.429 . S
C646 C644 1.419 1_545 S
C646 C647 1.363 . S
C646 H649 0.929 . S
C647 C646 1.363 . S
C647 C653 1.428 . S
H648 C644 0.930 . S
H649 C646 0.929 . S
S650 N651 1.613 1_545 S
S650 N652 1.610 . S
N651 S650 1.613 1_565 S
N651 C654 1.350 . S
N652 S650 1.610 . S
N652 C653 1.351 . S
C653 C647 1.428 . S
C653 N652 1.351 . S
C653 C654 1.434 1_545 S
C654 C645 1.429 . S
C654 N651 1.350 . S
C654 C653 1.434 1_565 S
C655 C656 1.369 . S
C655 C657 1.419 1_655 S
C655 H659 0.930 . S
C656 C655 1.369 . S
C656 C665 1.429 . S
C657 C655 1.419 1_455 S
C657 C658 1.363 . S
C657 H660 0.929 . S
C658 C657 1.363 . S
C658 C664 1.428 . S
H659 C655 0.930 . S
H660 C657 0.929 . S
S661 N662 1.613 1_455 S
S661 N663 1.610 . S
N662 S661 1.613 1_655 S
N662 C665 1.350 . S
N663 S661 1.610 . S
N663 C664 1.351 . S
C664 C658 1.428 . S
C664 N663 1.351 . S
C664 C665 1.434 1_455 S
C665 C656 1.429 . S
C665 N662 1.350 . S
C665 C664 1.434 1_655 S
C666 C667 1.369 . S
C666 C668 1.419 1_565 S
C666 H670 0.930 . S
C667 C666 1.369 . S
C667 C676 1.429 . S
C668 C666 1.419 1_545 S
C668 C669 1.363 . S
C668 H671 0.929 . S
C669 C668 1.363 . S
C669 C675 1.428 . S
H670 C666 0.930 . S
H671 C668 0.929 . S
S672 N673 1.613 1_545 S
S672 N674 1.610 . S
N673 S672 1.613 1_565 S
N673 C676 1.350 . S
N674 S672 1.610 . S
N674 C675 1.351 . S
C675 C669 1.428 . S
C675 N674 1.351 . S
C675 C676 1.434 1_545 S
C676 C667 1.429 . S
C676 N673 1.350 . S
C676 C675 1.434 1_565 S
C677 C678 1.369 . S
C677 C679 1.419 1_655 S
C677 H681 0.930 . S
C678 C677 1.369 . S
C678 C687 1.429 . S
C679 C677 1.419 1_455 S
C679 C680 1.363 . S
C679 H682 0.929 . S
C680 C679 1.363 . S
C680 C686 1.428 . S
H681 C677 0.930 . S
H682 C679 0.929 . S
S683 N684 1.613 . S
S683 N685 1.610 1_655 S
N684 S683 1.613 . S
N684 C687 1.350 . S
N685 S683 1.610 1_455 S
N685 C686 1.351 . S
C686 C680 1.428 . S
C686 N685 1.351 . S
C686 C687 1.434 1_455 S
C687 C678 1.429 . S
C687 N684 1.350 . S
C687 C686 1.434 1_655 S
C688 C689 1.369 . S
C688 C690 1.419 1_556 S
C688 H692 0.930 . S
C689 C688 1.369 . S
C689 C698 1.429 . S
C690 C688 1.419 1_554 S
C690 C691 1.363 . S
C690 H693 0.929 . S
C691 C690 1.363 . S
C691 C697 1.428 . S
H692 C688 0.930 . S
H693 C690 0.929 . S
S694 N695 1.613 1_554 S
S694 N696 1.610 . S
N695 S694 1.613 1_556 S
N695 C698 1.350 . S
N696 S694 1.610 . S
N696 C697 1.351 . S
C697 C691 1.428 . S
C697 N696 1.351 . S
C697 C698 1.434 1_554 S
C698 C689 1.429 . S
C698 N695 1.350 . S
C698 C697 1.434 1_556 S
C699 C700 1.369 . S
C699 C701 1.419 1_556 S
C699 H703 0.930 . S
C700 C699 1.369 . S
C700 C709 1.429 . S
C701 C699 1.419 1_554 S
C701 C702 1.363 . S
C701 H704 0.929 . S
C702 C701 1.363 . S
C702 C708 1.428 . S
H703 C699 0.930 . S
H704 C701 0.929 . S
S705 N706 1.613 . S
S705 N707 1.610 1_556 S
N706 S705 1.613 . S
N706 C709 1.350 . S
N707 S705 1.610 1_554 S
N707 C708 1.351 . S
C708 C702 1.428 . S
C708 N707 1.351 . S
C708 C709 1.434 1_554 S
C709 C700 1.429 . S
C709 N706 1.350 . S
C709 C708 1.434 1_556 S
C710 C711 1.369 . S
C710 C712 1.419 1_556 S
C710 H714 0.930 . S
C711 C710 1.369 . S
C711 C720 1.429 . S
C712 C710 1.419 1_554 S
C712 C713 1.363 . S
C712 H715 0.929 . S
C713 C712 1.363 . S
C713 C719 1.428 . S
H714 C710 0.930 . S
H715 C712 0.929 . S
S716 N717 1.613 1_554 S
S716 N718 1.610 . S
N717 S716 1.613 1_556 S
N717 C720 1.350 . S
N718 S716 1.610 . S
N718 C719 1.351 . S
C719 C713 1.428 . S
C719 N718 1.351 . S
C719 C720 1.434 1_554 S
C720 C711 1.429 . S
C720 N717 1.350 . S
C720 C719 1.434 1_556 S
C721 C722 1.369 . S
C721 C723 1.419 1_556 S
C721 H725 0.930 . S
C722 C721 1.369 . S
C722 C731 1.429 . S
C723 C721 1.419 1_554 S
C723 C724 1.363 . S
C723 H726 0.929 . S
C724 C723 1.363 . S
C724 C730 1.428 . S
H725 C721 0.930 . S
H726 C723 0.929 . S
S727 N728 1.613 1_554 S
S727 N729 1.610 . S
N728 S727 1.613 1_556 S
N728 C731 1.350 . S
N729 S727 1.610 . S
N729 C730 1.351 . S
C730 C724 1.428 . S
C730 N729 1.351 . S
C730 C731 1.434 1_554 S
C731 C722 1.429 . S
C731 N728 1.350 . S
C731 C730 1.434 1_556 S
C732 C733 1.369 . S
C732 C734 1.419 . S
C732 H736 0.930 . S
C733 C732 1.369 . S
C733 C742 1.429 . S
C734 C732 1.419 . S
C734 C735 1.363 . S
C734 H737 0.929 . S
C735 C734 1.363 . S
C735 C741 1.428 . S
H736 C732 0.930 . S
H737 C734 0.929 . S
S738 N739 1.613 . S
S738 N740 1.610 . S
N739 S738 1.613 . S
N739 C742 1.350 . S
N740 S738 1.610 . S
N740 C741 1.351 . S
C741 C735 1.428 . S
C741 N740 1.351 . S
C741 C742 1.434 . S
C742 C733 1.429 . S
C742 N739 1.350 . S
C742 C741 1.434 . S
C743 C744 1.369 . S
C743 C745 1.419 . S
C743 H747 0.930 . S
C744 C743 1.369 . S
C744 C753 1.429 . S
C745 C743 1.419 . S
C745 C746 1.363 . S
C745 H748 0.929 . S
C746 C745 1.363 . S
C746 C752 1.428 . S
H747 C743 0.930 . S
H748 C745 0.929 . S
S749 N750 1.613 . S
S749 N751 1.610 . S
N750 S749 1.613 . S
N750 C753 1.350 . S
N751 S749 1.610 . S
N751 C752 1.351 . S
C752 C746 1.428 . S
C752 N751 1.351 . S
C752 C753 1.434 . S
C753 C744 1.429 . S
C753 N750 1.350 . S
C753 C752 1.434 . S
C754 C755 1.369 . S
C754 C756 1.419 . S
C754 H758 0.930 . S
C755 C754 1.369 . S
C755 C764 1.429 . S
C756 C754 1.419 . S
C756 C757 1.363 . S
C756 H759 0.929 . S
C757 C756 1.363 . S
C757 C763 1.428 . S
H758 C754 0.930 . S
H759 C756 0.929 . S
S760 N761 1.613 . S
S760 N762 1.610 . S
N761 S760 1.613 . S
N761 C764 1.350 . S
N762 S760 1.610 . S
N762 C763 1.351 . S
C763 C757 1.428 . S
C763 N762 1.351 . S
C763 C764 1.434 . S
C764 C755 1.429 . S
C764 N761 1.350 . S
C764 C763 1.434 . S
C765 C766 1.369 . S
C765 C767 1.419 . S
C765 H769 0.930 . S
C766 C765 1.369 . S
C766 C775 1.429 . S
C767 C765 1.419 . S
C767 C768 1.363 . S
C767 H770 0.929 . S
C768 C767 1.363 . S
C768 C774 1.428 . S
H769 C765 0.930 . S
H770 C767 0.929 . S
S771 N772 1.613 . S
S771 N773 1.610 . S
N772 S771 1.613 . S
N772 C775 1.350 . S
N773 S771 1.610 . S
N773 C774 1.351 . S
C774 C768 1.428 . S
C774 N773 1.351 . S
C774 C775 1.434 . S
C775 C766 1.429 . S
C775 N772 1.350 . S
C775 C774 1.434 . S
C776 C777 1.369 . S
C776 C778 1.419 . S
C776 H780 0.930 . S
C777 C776 1.369 . S
C777 C786 1.429 . S
C778 C776 1.419 . S
C778 C779 1.363 . S
C778 H781 0.929 . S
C779 C778 1.363 . S
C779 C785 1.428 . S
H780 C776 0.930 . S
H781 C778 0.929 . S
S782 N783 1.613 . S
S782 N784 1.610 . S
N783 S782 1.613 . S
N783 C786 1.350 . S
N784 S782 1.610 . S
N784 C785 1.351 . S
C785 C779 1.428 . S
C785 N784 1.351 . S
C785 C786 1.434 . S
C786 C777 1.429 . S
C786 N783 1.350 . S
C786 C785 1.434 . S
C787 C788 1.369 . S
C787 C789 1.419 . S
C787 H791 0.930 . S
C788 C787 1.369 . S
C788 C797 1.429 . S
C789 C787 1.419 . S
C789 C790 1.363 . S
C789 H792 0.929 . S
C790 C789 1.363 . S
C790 C796 1.428 . S
H791 C787 0.930 . S
H792 C789 0.929 . S
S793 N794 1.613 . S
S793 N795 1.610 . S
N794 S793 1.613 . S
N794 C797 1.350 . S
N795 S793 1.610 . S
N795 C796 1.351 . S
C796 C790 1.428 . S
C796 N795 1.351 . S
C796 C797 1.434 . S
C797 C788 1.429 . S
C797 N794 1.350 . S
C797 C796 1.434 . S
C798 C799 1.369 . S
C798 C800 1.419 . S
C798 H802 0.930 . S
C799 C798 1.369 . S
C799 C808 1.429 . S
C800 C798 1.419 . S
C800 C801 1.363 . S
C800 H803 0.929 . S
C801 C800 1.363 . S
C801 C807 1.428 . S
H802 C798 0.930 . S
H803 C800 0.929 . S
S804 N805 1.613 . S
S804 N806 1.610 . S
N805 S804 1.613 . S
N805 C808 1.350 . S
N806 S804 1.610 . S
N806 C807 1.351 . S
C807 C801 1.428 . S
C807 N806 1.351 . S
C807 C808 1.434 . S
C808 C799 1.429 . S
C808 N805 1.350 . S
C808 C807 1.434 . S
C809 C810 1.369 . S
C809 C811 1.419 . S
C809 H813 0.930 . S
C810 C809 1.369 . S
C810 C819 1.429 . S
C811 C809 1.419 . S
C811 C812 1.363 . S
C811 H814 0.929 . S
C812 C811 1.363 . S
C812 C818 1.428 . S
H813 C809 0.930 . S
H814 C811 0.929 . S
S815 N816 1.613 . S
S815 N817 1.610 . S
N816 S815 1.613 . S
N816 C819 1.350 . S
N817 S815 1.610 . S
N817 C818 1.351 . S
C818 C812 1.428 . S
C818 N817 1.351 . S
C818 C819 1.434 . S
C819 C810 1.429 . S
C819 N816 1.350 . S
C819 C818 1.434 . S
C820 C821 1.369 . S
C820 C822 1.419 . S
C820 H824 0.930 . S
C821 C820 1.369 . S
C821 C830 1.429 . S
C822 C820 1.419 . S
C822 C823 1.363 . S
C822 H825 0.929 . S
C823 C822 1.363 . S
C823 C829 1.428 . S
H824 C820 0.930 . S
H825 C822 0.929 . S
S826 N827 1.613 . S
S826 N828 1.610 . S
N827 S826 1.613 . S
N827 C830 1.350 . S
N828 S826 1.610 . S
N828 C829 1.351 . S
C829 C823 1.428 . S
C829 N828 1.351 . S
C829 C830 1.434 . S
C830 C821 1.429 . S
C830 N827 1.350 . S
C830 C829 1.434 . S
C831 C832 1.369 . S
C831 C833 1.419 . S
C831 H835 0.930 . S
C832 C831 1.369 . S
C832 C841 1.429 . S
C833 C831 1.419 . S
C833 C834 1.363 . S
C833 H836 0.929 . S
C834 C833 1.363 . S
C834 C840 1.428 . S
H835 C831 0.930 . S
H836 C833 0.929 . S
S837 N838 1.613 . S
S837 N839 1.610 . S
N838 S837 1.613 . S
N838 C841 1.350 . S
N839 S837 1.610 . S
N839 C840 1.351 . S
C840 C834 1.428 . S
C840 N839 1.351 . S
C840 C841 1.434 . S
C841 C832 1.429 . S
C841 N838 1.350 . S
C841 C840 1.434 . S
C842 C843 1.369 . S
C842 C844 1.419 . S
C842 H846 0.930 . S
C843 C842 1.369 . S
C843 C852 1.429 . S
C844 C842 1.419 . S
C844 C845 1.363 . S
C844 H847 0.929 . S
C845 C844 1.363 . S
C845 C851 1.428 . S
H846 C842 0.930 . S
H847 C844 0.929 . S
S848 N849 1.613 . S
S848 N850 1.610 . S
N849 S848 1.613 . S
N849 C852 1.350 . S
N850 S848 1.610 . S
N850 C851 1.351 . S
C851 C845 1.428 . S
C851 N850 1.351 . S
C851 C852 1.434 . S
C852 C843 1.429 . S
C852 N849 1.350 . S
C852 C851 1.434 . S
C853 C854 1.369 . S
C853 C855 1.419 . S
C853 H857 0.930 . S
C854 C853 1.369 . S
C854 C863 1.429 . S
C855 C853 1.419 . S
C855 C856 1.363 . S
C855 H858 0.929 . S
C856 C855 1.363 . S
C856 C862 1.428 . S
H857 C853 0.930 . S
H858 C855 0.929 . S
S859 N860 1.613 . S
S859 N861 1.610 . S
N860 S859 1.613 . S
N860 C863 1.350 . S
N861 S859 1.610 . S
N861 C862 1.351 . S
C862 C856 1.428 . S
C862 N861 1.351 . S
C862 C863 1.434 . S
C863 C854 1.429 . S
C863 N860 1.350 . S
C863 C862 1.434 . S
C337 C162 1.637 . S
C339 C7 1.464 . S
C348 C21 1.454 . S
C350 C120 1.639 . S
C359 C35 1.462 . S
C361 C134 1.638 . S
C370 C49 1.453 . S
C372 C148 1.639 . S
C381 C190 1.638 . S
C383 C63 1.459 . S
C392 C77 1.466 . S
C394 C204 1.638 . S
C403 C218 1.638 . S
C405 C91 1.462 . S
C414 C176 1.637 . S
C416 C105 1.464 . S
C425 C78 1.639 . S
C427 C119 1.454 . S
C436 C92 1.637 . S
C438 C133 1.464 . S
C447 C147 1.464 . S
C449 C106 1.638 . S
C458 C64 1.639 . S
C460 C161 1.454 . S
C469 C50 1.638 . S
C471 C175 1.461 . S
C480 C189 1.462 . S
C482 C8 1.638 . S
C491 C203 1.466 . S
C493 C22 1.638 . S
C502 C217 1.455 . S
C504 C36 1.639 . S
C513 C231 1.463 . S
C515 C330 1.638 . S
C524 C288 1.639 . S
C526 C245 1.453 . S
C535 C259 1.466 . S
C537 C246 1.638 . S
C546 C273 1.466 . S
C548 C260 1.638 . S
C557 C274 1.639 . S
C559 C287 1.454 . S
C568 C301 1.452 . S
C570 C316 1.639 . S
C579 C232 1.638 . S
C581 C315 1.459 . S
C590 C302 1.639 . S
C592 C329 1.454 . S
C601 C9 1.607 . S
C603 C93 1.608 . S
C612 C23 1.607 . S
C614 C107 1.609 . S
C623 C37 1.608 . S
C625 C65 1.609 . S
C634 C79 1.611 . S
C636 C51 1.610 . S
C645 C149 1.606 . S
C647 C121 1.606 . S
C656 C135 1.607 . S
C658 C163 1.607 . S
C667 C177 1.609 . S
C669 C205 1.608 . S
C678 C219 1.610 . S
C680 C191 1.610 . S
C689 C247 1.608 . S
C691 C233 1.607 . S
C700 C261 1.610 . S
C702 C331 1.610 . S
C711 C275 1.608 . S
C713 C303 1.607 . S
C722 C289 1.608 . S
C724 C317 1.607 . S
C733 C6 1.254 . S
C735 C76 1.251 . S
C744 C20 1.258 . S
C746 C90 1.252 . S
C755 C34 1.259 . S
C757 C104 1.253 . S
C766 C62 1.254 . S
C768 C48 1.259 . S
C777 C118 1.250 . S
C779 C328 1.256 . S
C788 C132 1.252 . S
C790 C300 1.251 . S
C799 C314 1.260 . S
C801 C146 1.257 . S
C810 C160 1.260 . S
C812 C230 1.257 . S
C821 C286 1.260 . S
C823 C174 1.254 . S
C832 C244 1.256 . S
C834 C188 1.251 . S
C843 C202 1.259 . S
C845 C258 1.252 . S
C854 C272 1.250 . S
C856 C216 1.253 . S
