# Generated by pormake.
# Topology wkj, (6)-cn, num edge types: 1
# Building blocks:
#     Node 0, Type 0, BuildingBlock: FUNLAD_clean_sbu_0, # of connection points: 6
#     Node 1, Type 0, BuildingBlock: FUNLAD_clean_sbu_0, # of connection points: 6
#     Node 2, Type 0, BuildingBlock: FUNLAD_clean_sbu_0, # of connection points: 6
#     Node 3, Type 0, BuildingBlock: FUNLAD_clean_sbu_0, # of connection points: 6
#     Node 4, Type 0, BuildingBlock: FUNLAD_clean_sbu_0, # of connection points: 6
#     Node 5, Type 0, BuildingBlock: FUNLAD_clean_sbu_0, # of connection points: 6
#     Node 6, Type 0, BuildingBlock: FUNLAD_clean_sbu_0, # of connection points: 6
#     Node 7, Type 0, BuildingBlock: FUNLAD_clean_sbu_0, # of connection points: 6
#     Node 8, Type 0, BuildingBlock: FUNLAD_clean_sbu_0, # of connection points: 6
#     Node 9, Type 0, BuildingBlock: FUNLAD_clean_sbu_0, # of connection points: 6
#     Node 10, Type 0, BuildingBlock: FUNLAD_clean_sbu_0, # of connection points: 6
#     Node 11, Type 0, BuildingBlock: FUNLAD_clean_sbu_0, # of connection points: 6
#     Edge 12, Type (0, 0), None
#     Edge 13, Type (0, 0), None
#     Edge 14, Type (0, 0), None
#     Edge 15, Type (0, 0), None
#     Edge 16, Type (0, 0), None
#     Edge 17, Type (0, 0), None
#     Edge 18, Type (0, 0), None
#     Edge 19, Type (0, 0), None
#     Edge 20, Type (0, 0), None
#     Edge 21, Type (0, 0), None
#     Edge 22, Type (0, 0), None
#     Edge 23, Type (0, 0), None
#     Edge 24, Type (0, 0), None
#     Edge 25, Type (0, 0), None
#     Edge 26, Type (0, 0), None
#     Edge 27, Type (0, 0), None
#     Edge 28, Type (0, 0), None
#     Edge 29, Type (0, 0), None
#     Edge 30, Type (0, 0), None
#     Edge 31, Type (0, 0), None
#     Edge 32, Type (0, 0), None
#     Edge 33, Type (0, 0), None
#     Edge 34, Type (0, 0), None
#     Edge 35, Type (0, 0), None
#     Edge 36, Type (0, 0), None
#     Edge 37, Type (0, 0), None
#     Edge 38, Type (0, 0), None
#     Edge 39, Type (0, 0), None
#     Edge 40, Type (0, 0), None
#     Edge 41, Type (0, 0), None
#     Edge 42, Type (0, 0), None
#     Edge 43, Type (0, 0), None
#     Edge 44, Type (0, 0), None
#     Edge 45, Type (0, 0), None
#     Edge 46, Type (0, 0), None
#     Edge 47, Type (0, 0), None
# Relax obj value: 2.066
# Max RMSD: 0.290
# Mean RMSD: 0.290
data_MOF--net-wkj--node1-FUNLAD_clean_sbu_0--edge1-none
_symmetry_space_group_name_H-M    P1
_symmetry_Int_Tables_number       1
_symmetry_cell_setting            triclinic
loop_
_symmetry_equiv_pos_as_xyz
'x, y, z'
_cell_length_a     39.021036
_cell_length_b     39.022665
_cell_length_c     9.9646774
_cell_angle_alpha  89.942507
_cell_angle_beta   90.116911
_cell_angle_gamma 120.00093
loop_
_atom_site_label
_atom_site_type_symbol
_atom_site_fract_x
_atom_site_fract_y
_atom_site_fract_z
_atom_type_partial_charge
C0 C 0.61 0.14879 0.01062 0.0
N1 N 0.53426 0.19032 0.1646 0.0
C2 C 0.56771 0.22454 0.13222 0.0
C3 C 0.5674 0.26006 0.11971 0.0
C4 C 0.53264 0.26156 0.14525 0.0
C5 C 0.49864 0.22575 0.18273 0.0
C6 C 0.5 0.19036 0.19037 0.0
Zn7 Zn 0.53826 0.13907 0.14985 0.0
C8 C 0.47533 0.07715 4e-05 0.0
N9 N 0.50994 1.0401 0.29344 0.0
C10 C 0.52619 1.02014 0.34726 0.0
C11 C 0.48804 1.01915 0.18624 0.0
C12 C 0.51302 1.01972 0.08655 0.0
C13 C 0.54805 1.02303 0.13881 0.0
C14 C 0.53991 1.00307 0.26115 0.0
Zn15 Zn 0.53926 0.10372 0.28523 0.0
O16 O 0.59077 0.16707 -0.01139 0.0
C17 C 0.60878 0.15206 0.42844 0.0
O18 O 0.59529 0.12486 0.11338 0.0
H19 H 0.45809 1.0131 0.1712 0.0
H20 H 0.59477 0.22429 0.11232 0.0
H21 H 0.53761 1.02449 0.44268 0.0
O22 O 0.60337 0.16781 0.31932 0.0
O23 O 0.57824 0.12028 0.44894 0.0
H24 H 0.47351 0.16287 0.21481 0.0
O25 O 0.50008 0.09992 0.47335 0.0
O26 O 0.47124 0.08597 0.30276 0.0
O27 O 0.49533 0.07833 0.09947 0.0
O28 O 0.48624 0.11283 -0.03019 0.0
C29 C 0.46734 0.07598 0.42865 0.0
H30 H 0.59437 0.2858 0.08675 0.0
H31 H 0.47111 0.22479 0.20589 0.0
H32 H 0.50518 1.01579 -0.01665 0.0
H33 H 0.56077 0.99688 0.30303 0.0
C34 C 0.51515 0.58492 0.34349 0.0
N35 N 0.398 0.50942 0.49543 0.0
C36 C 0.39776 0.54337 0.46676 0.0
C37 C 0.36217 0.54338 0.45024 0.0
C38 C 0.32556 0.5083 0.46748 0.0
C39 C 0.32678 0.47376 0.50183 0.0
C40 C 0.36335 0.47489 0.51376 0.0
Zn41 Zn 0.45316 0.51322 0.48278 0.0
C42 C 0.45216 0.45025 0.33368 0.0
N43 N 0.5238 0.48487 0.62712 0.0
C44 C 0.56001 0.50111 0.68098 0.0
C45 C 0.52286 0.46298 0.52008 0.0
C46 C 0.54728 0.48796 0.4203 0.0
C47 C 0.57899 0.52299 0.47242 0.0
C48 C 0.5908 0.51485 0.59489 0.0
Zn49 Zn 0.48947 0.51418 0.61851 0.0
O50 O 0.47765 0.56568 0.32137 0.0
C51 C 0.51064 0.58369 0.76129 0.0
O52 O 0.52436 0.57021 0.44641 0.0
H53 H 0.49896 0.43302 0.5052 0.0
H54 H 0.42537 0.5706 0.45228 0.0
H55 H 0.56708 0.51252 0.77635 0.0
O56 O 0.48948 0.5783 0.6521 0.0
O57 O 0.51186 0.55315 0.78203 0.0
H58 H 0.36396 0.448 0.53498 0.0
O59 O 0.45413 0.47503 0.80677 0.0
O60 O 0.43913 0.44616 0.63636 0.0
O61 O 0.47095 0.47024 0.4331 0.0
O62 O 0.42744 0.4612 0.30307 0.0
C63 C 0.44529 0.44229 0.76228 0.0
H64 H 0.36387 0.57082 0.42042 0.0
H65 H 0.29991 0.44594 0.51898 0.0
H66 H 0.54338 0.48011 0.31715 0.0
H67 H 0.61784 0.53572 0.63677 0.0
C68 C 0.97969 0.48531 0.66222 0.0
N69 N 0.94313 0.37279 0.80912 0.0
C70 C 0.90853 0.37231 0.78627 0.0
C71 C 0.873 0.33667 0.77107 0.0
C72 C 0.87188 0.30015 0.78458 0.0
C73 C 0.90816 0.30155 0.81172 0.0
C74 C 0.94355 0.33824 0.82223 0.0
Zn75 Zn 0.99309 0.42921 0.80741 0.0
C76 C 1.06443 0.43212 0.68056 0.0
N77 N 0.09439 0.48801 0.86585 0.0
C78 C 0.08951 0.50761 -0.03322 0.0
C79 C 0.1175 0.51464 0.76683 0.0
C80 C 0.09993 0.53453 0.71912 0.0
C81 C 0.08367 0.54842 0.81555 0.0
C82 C 0.096 0.54494 0.94322 0.0
Zn83 Zn 1.02804 0.46335 -0.04595 0.0
O84 O 0.96171 0.44926 0.62638 0.0
C85 C 0.96017 0.47513 0.08429 0.0
O86 O 1.00149 0.48805 0.7622 0.0
H87 H 0.14143 0.51368 0.72022 0.0
H88 H 0.90845 0.39985 0.77727 0.0
H89 H 0.08681 0.49741 0.06238 0.0
O90 O 0.95672 0.46556 -0.04325 0.0
O91 O 0.98173 0.4623 0.12418 0.0
H92 H 0.9713 0.33904 0.84001 0.0
O93 O 1.03682 0.43524 0.13223 0.0
O94 O 1.042 0.40955 -0.02685 0.0
O95 O 1.06825 0.4491 0.79322 0.0
O96 O 1.02795 0.41346 0.64321 0.0
C97 C 1.05596 0.42073 0.09425 0.0
H98 H 0.84686 0.33827 0.74647 0.0
H99 H 0.90945 0.27473 0.82552 0.0
H100 H 0.10031 0.53681 0.61817 0.0
H101 H 0.09951 0.56371 0.02203 0.0
C102 C 0.54827 0.95455 -0.00381 0.0
N103 N 0.62417 0.91795 0.14333 0.0
C104 C 0.59004 0.88337 0.12058 0.0
C105 C 0.59013 0.84785 0.10505 0.0
C106 C 0.62553 0.84671 0.11819 0.0
C107 C 0.66042 0.88296 0.14536 0.0
C108 C 0.65913 0.91835 0.15614 0.0
Zn109 Zn 0.61772 0.9679 0.14149 0.0
C110 C 0.68619 1.03927 0.01436 0.0
N111 N 0.66025 0.06921 0.19933 0.0
C112 C 0.63573 0.06426 0.30017 0.0
C113 C 0.65672 0.09232 0.10014 0.0
C114 C 0.61926 0.07476 0.05241 0.0
C115 C 0.5891 0.05844 0.14885 0.0
C116 C 0.6049 0.07076 0.27648 0.0
Zn117 Zn 0.61855 1.00286 0.28788 0.0
O118 O 0.56632 0.93656 -0.03948 0.0
C119 C 0.53889 0.93498 0.41839 0.0
O120 O 0.56733 0.97634 0.09609 0.0
H121 H 0.68162 0.11622 0.05329 0.0
H122 H 0.56241 0.8833 0.11181 0.0
H123 H 0.64326 0.0616 0.39584 0.0
O124 O 0.545 0.93153 0.29088 0.0
O125 O 0.57328 0.95654 0.45819 0.0
H126 H 0.6861 0.94608 0.17383 0.0
O127 O 0.65541 1.01159 0.46608 0.0
O128 O 0.68627 1.01675 0.30706 0.0
O129 O 0.67305 1.0431 0.12698 0.0
O130 O 0.66834 1.00279 -0.02275 0.0
C131 C 0.68905 1.0307 0.42805 0.0
H132 H 0.56237 0.82174 0.08045 0.0
H133 H 0.68854 0.88425 0.15892 0.0
H134 H 0.61736 0.07513 -0.04856 0.0
H135 H 0.58965 0.07429 0.35519 0.0
C136 C 0.64773 0.52325 0.33018 0.0
N137 N 0.7603 0.59939 0.47947 0.0
C138 C 0.76119 0.56564 0.45367 0.0
C139 C 0.79703 0.56603 0.44204 0.0
C140 C 0.83331 0.60122 0.46284 0.0
C141 C 0.83147 0.63569 0.49272 0.0
C142 C 0.79462 0.63419 0.49922 0.0
Zn143 Zn 0.70379 0.59275 0.47536 0.0
C144 C 0.70085 0.66114 0.34749 0.0
N145 N 0.64494 0.63518 0.53242 0.0
C146 C 0.62538 0.61065 0.63337 0.0
C147 C 0.61828 0.63164 0.43317 0.0
C148 C 0.59842 0.59418 0.38561 0.0
C149 C 0.5846 0.56403 0.48221 0.0
C150 C 0.58805 0.57981 0.60975 0.0
Zn151 Zn 0.66962 0.5935 0.62148 0.0
O152 O 0.68379 0.54134 0.29456 0.0
C153 C 0.65788 0.51386 0.75251 0.0
O154 O 0.64498 0.54229 0.42994 0.0
H155 H 0.6193 0.65654 0.38611 0.0
H156 H 0.73384 0.53807 0.44014 0.0
H157 H 0.63558 0.61818 0.72901 0.0
O158 O 0.66743 0.52001 0.625 0.0
O159 O 0.67074 0.54825 0.79218 0.0
H160 H 0.79352 0.66084 0.51972 0.0
O161 O 0.69779 0.63043 0.79956 0.0
O162 O 0.72333 0.66128 0.64028 0.0
O163 O 0.68381 0.6479 0.45998 0.0
O164 O 0.7196 0.64339 0.31071 0.0
C165 C 0.71222 0.66405 0.76126 0.0
H166 H 0.79575 0.53862 0.41472 0.0
H167 H 0.85805 0.66362 0.51192 0.0
H168 H 0.59617 0.59228 0.28464 0.0
H169 H 0.56927 0.56455 0.68847 0.0
C170 C 0.17398 0.61784 0.67798 0.0
N171 N 0.21551 0.73508 0.83221 0.0
C172 C 0.24971 0.73582 0.79996 0.0
C173 C 0.28521 0.77163 0.78706 0.0
C174 C 0.28671 0.80793 0.81214 0.0
C175 C 0.25093 0.80615 0.84964 0.0
C176 C 0.21556 0.76941 0.85761 0.0
Zn177 Zn 0.16426 0.67984 0.81735 0.0
C178 C 0.1023 0.68082 0.66734 0.0
N179 N 1.06527 0.60917 -0.03971 0.0
C180 C 1.04532 0.57297 0.01394 0.0
C181 C 1.04431 0.61009 0.85295 0.0
C182 C 1.04492 0.58569 0.75318 0.0
C183 C 1.04822 0.554 0.80552 0.0
C184 C 1.02826 0.54216 0.9277 0.0
Zn185 Zn 0.12891 0.64348 -0.04754 0.0
O186 O 0.19225 0.65535 0.65613 0.0
C187 C 0.17727 0.62233 0.09587 0.0
O188 O 0.15007 0.60862 0.78063 0.0
H189 H 1.03825 0.63398 0.83792 0.0
H190 H 0.24946 0.70849 0.78036 0.0
H191 H 1.04966 0.5659 0.10935 0.0
O192 O 0.19302 0.64349 -0.01312 0.0
O193 O 0.14549 0.62109 0.11621 0.0
H194 H 0.18807 0.76842 0.88193 0.0
O195 O 0.12515 0.67886 0.14064 0.0
O196 O 0.11122 0.6938 -0.02994 0.0
O197 O 0.1035 0.662 0.76669 0.0
O198 O 0.13798 0.70559 0.63732 0.0
C199 C 0.10123 0.68767 0.09586 0.0
H200 H 0.31092 0.77036 0.75413 0.0
H201 H 0.24997 0.83274 0.87251 0.0
H202 H 1.04099 0.5896 0.64997 0.0
H203 H 1.0221 0.51511 -0.03058 0.0
C204 C 0.97971 0.5232 0.58702 0.0
N205 N 0.9432 0.5993 0.43778 0.0
C206 C 0.90856 0.56557 0.46361 0.0
C207 C 0.87312 0.56599 0.47527 0.0
C208 C 0.87207 0.60121 0.45448 0.0
C209 C 0.90839 0.63566 0.42459 0.0
C210 C 0.94372 0.63411 0.41805 0.0
Zn211 Zn 0.99308 0.59266 0.44179 0.0
C212 C 1.06441 0.66103 0.56973 0.0
N213 N 0.09441 0.63511 0.38486 0.0
C214 C 0.08952 0.61062 0.28385 0.0
C215 C 0.11749 0.63156 0.48419 0.0
C216 C 0.09991 0.59409 0.53163 0.0
C217 C 0.08364 0.56395 0.43501 0.0
C218 C 0.09598 0.57976 0.30749 0.0
Zn219 Zn 1.02806 0.59343 0.29576 0.0
O220 O 0.96168 0.54123 0.62247 0.0
C221 C 0.96025 0.51381 0.16479 0.0
O222 O 1.00152 0.54224 0.48729 0.0
H223 H 0.14136 0.65645 0.53135 0.0
H224 H 0.9083 0.53799 0.47714 0.0
H225 H 0.08687 0.61817 0.1882 0.0
O226 O 0.95671 0.51992 0.29222 0.0
O227 O 0.98176 0.54818 0.12496 0.0
H228 H 0.97148 0.66075 0.39754 0.0
O229 O 1.03682 0.63028 0.11769 0.0
O230 O 1.04203 0.66123 0.27702 0.0
O231 O 1.06827 0.64787 0.45715 0.0
O232 O 1.02792 0.64328 0.60649 0.0
C233 C 1.05597 0.66388 0.15621 0.0
H234 H 0.84698 0.5386 0.5026 0.0
H235 H 0.90977 0.6636 0.4054 0.0
H236 H 0.10031 0.59218 0.63255 0.0
H237 H 0.09949 0.5645 0.22872 0.0
C238 C 0.51041 0.95457 0.92093 0.0
N239 N 0.39789 0.91793 0.77379 0.0
C240 C 0.39745 0.88336 0.79652 0.0
C241 C 0.36183 0.84784 0.8121 0.0
C242 C 0.32529 0.84669 0.79901 0.0
C243 C 0.32664 0.88294 0.77186 0.0
C244 C 0.36332 0.91832 0.76103 0.0
Zn245 Zn 0.45428 0.96788 0.77556 0.0
C246 C 0.45723 1.03927 0.90267 0.0
N247 N 0.51314 0.06921 0.71783 0.0
C248 C 0.53276 0.06436 0.61692 0.0
C249 C 0.53976 0.09227 0.81715 0.0
C250 C 0.55965 0.07469 0.86474 0.0
C251 C 0.57354 0.05845 0.76826 0.0
C252 C 0.57007 0.0708 0.64065 0.0
Zn253 Zn 0.48847 1.00288 0.62926 0.0
O254 O 0.47435 0.93654 -0.04351 0.0
C255 C 0.50029 0.93507 0.49882 0.0
O256 O 0.51314 0.97636 0.82104 0.0
H257 H 0.53876 0.11615 0.86412 0.0
H258 H 0.42501 0.88329 0.80524 0.0
H259 H 0.52256 0.0617 0.52124 0.0
O260 O 0.49063 0.93149 0.62625 0.0
O261 O 0.48746 0.9566 0.45885 0.0
H262 H 0.36408 0.94606 0.74337 0.0
O263 O 0.46043 1.01164 0.45107 0.0
O264 O 0.43453 1.01671 0.6101 0.0
O265 O 0.47419 1.04313 0.79 0.0
O266 O 0.43857 1.00278 0.93978 0.0
C267 C 0.4459 1.03071 0.48928 0.0
H268 H 0.3635 0.82173 0.83669 0.0
H269 H 0.2998 0.88421 0.75834 0.0
H270 H 0.56197 0.07509 -0.03434 0.0
H271 H 0.58884 0.07431 0.56192 0.0
C272 C 0.60986 0.48537 0.25499 0.0
N273 N 0.53392 0.37282 0.1081 0.0
C274 C 0.56802 0.37232 0.13102 0.0
C275 C 0.56789 0.33667 0.14623 0.0
C276 C 0.53248 0.30016 0.13263 0.0
C277 C 0.49762 0.30158 0.10544 0.0
C278 C 0.49894 0.33828 0.09493 0.0
Zn279 Zn 0.54039 0.42923 0.10976 0.0
C280 C 0.47196 0.43216 0.23661 0.0
N281 N 0.49789 0.48806 0.05138 0.0
C282 C 0.52236 0.50767 -0.04958 0.0
C283 C 0.50144 0.51468 0.15047 0.0
C284 C 0.5389 0.53457 0.1981 0.0
C285 C 0.56904 0.54847 0.10165 0.0
C286 C 0.55322 0.54498 -0.02603 0.0
Zn287 Zn 0.53957 0.4634 -0.03686 0.0
O288 O 0.59183 0.44931 0.29074 0.0
C289 C 0.6192 0.47525 0.83301 0.0
O290 O 0.59079 0.48809 0.15499 0.0
H291 H 0.47656 0.51371 0.19721 0.0
H292 H 0.59565 0.39986 0.14007 0.0
H293 H 0.51482 0.49747 0.8548 0.0
O294 O 0.61312 0.46559 -0.03952 0.0
O295 O 0.58484 0.46239 0.79293 0.0
H296 H 0.472 0.33909 0.07711 0.0
O297 O 0.50272 0.43534 0.78496 0.0
O298 O 0.47178 0.40951 0.94414 0.0
O299 O 0.48508 0.44913 0.12389 0.0
O300 O 0.48977 0.41348 0.27394 0.0
C301 C 0.46911 0.42083 0.82318 0.0
H302 H 0.59563 0.33826 0.17088 0.0
H303 H 0.4695 0.27477 0.09159 0.0
H304 H 0.54082 0.53689 0.29902 0.0
H305 H 0.56848 0.56372 0.89513 0.0
C306 C 0.17397 0.58491 0.57378 0.0
N307 N 0.21567 0.50943 0.42185 0.0
C308 C 0.24986 0.54337 0.45069 0.0
C309 C 0.28544 0.54337 0.46724 0.0
C310 C 0.28699 0.5083 0.44985 0.0
C311 C 0.25122 0.47377 0.41533 0.0
C312 C 0.2158 0.47491 0.40337 0.0
Zn313 Zn 0.1643 0.51321 0.43443 0.0
C314 C 0.10234 0.45031 0.58353 0.0
N315 N 1.06525 0.48481 0.29002 0.0
C316 C 1.04528 0.50105 0.23616 0.0
C317 C 1.0443 0.46293 0.39711 0.0
C318 C 1.04489 0.48793 0.49691 0.0
C319 C 1.04819 0.52292 0.44462 0.0
C320 C 1.02823 0.51481 0.32221 0.0
Zn321 Zn 0.12893 0.51418 0.29867 0.0
O322 O 0.19225 0.56568 0.59589 0.0
C323 C 0.17724 0.58369 0.15613 0.0
O324 O 0.15008 0.57022 0.47078 0.0
H325 H 1.03826 0.43298 0.41203 0.0
H326 H 0.24947 0.57059 0.46528 0.0
H327 H 1.04964 0.51248 0.14083 0.0
O328 O 0.19306 0.5783 0.26516 0.0
O329 O 0.14549 0.55313 0.13514 0.0
H330 H 0.1883 0.44803 0.38202 0.0
O331 O 0.12514 0.47507 0.11032 0.0
O332 O 0.1113 0.44615 0.281 0.0
O333 O 0.10351 0.47028 0.4841 0.0
O334 O 0.138 0.46117 0.61405 0.0
C335 C 0.10125 0.44237 0.15512 0.0
H336 H 0.31118 0.5708 0.49719 0.0
H337 H 0.25029 0.44596 0.39805 0.0
H338 H 1.04097 0.48011 0.60008 0.0
H339 H 1.0221 0.53571 0.28042 0.0
C340 C 0.64294 0.14878 0.90647 0.0
N341 N 0.76023 0.19033 0.75251 0.0
C342 C 0.76101 0.22455 0.78494 0.0
C343 C 0.79684 0.26006 0.79749 0.0
C344 C 0.8331 0.26155 0.77193 0.0
C345 C 0.83128 0.22575 0.7344 0.0
C346 C 0.79452 0.19036 0.72672 0.0
Zn347 Zn 0.70497 0.13907 0.76719 0.0
C348 C 0.70589 0.07716 0.91703 0.0
N349 N 0.63427 1.04003 0.62354 0.0
C350 C 0.59806 1.02008 0.56973 0.0
C351 C 0.63521 1.01909 0.73081 0.0
C352 C 0.61082 1.01971 0.83053 0.0
C353 C 0.57912 1.02301 0.77812 0.0
C354 C 0.56726 1.00305 0.65583 0.0
Zn355 Zn 0.66858 0.1037 0.63178 0.0
O356 O 0.68046 0.16706 0.92846 0.0
C357 C 0.64739 0.15201 0.48876 0.0
O358 O 0.63371 0.12488 0.80364 0.0
H359 H 0.65912 1.01306 0.74589 0.0
H360 H 0.73371 0.22431 0.80486 0.0
H361 H 0.59098 1.02443 0.47433 0.0
O362 O 0.66861 0.16782 0.59775 0.0
O363 O 0.6462 0.12027 0.46798 0.0
H364 H 0.79351 0.16287 0.70223 0.0
O365 O 0.70394 0.09991 0.44358 0.0
O366 O 0.71891 0.08599 0.61447 0.0
O367 O 0.68706 0.07831 0.81757 0.0
O368 O 0.73074 0.11283 0.94716 0.0
C369 C 0.7127 0.07598 0.48864 0.0
H370 H 0.79563 0.2858 0.83047 0.0
H371 H 0.85785 0.22478 0.71122 0.0
H372 H 0.61474 1.01582 0.93377 0.0
H373 H 0.54022 0.99693 0.61404 0.0
C374 C 0.54808 0.61784 0.23927 0.0
N375 N 0.62374 0.73512 0.08503 0.0
C376 C 0.59028 0.73585 0.11731 0.0
C377 C 0.59058 0.77165 0.13018 0.0
C378 C 0.62536 0.80796 0.10507 0.0
C379 C 0.65937 0.80619 0.06756 0.0
C380 C 0.65801 0.76946 0.05961 0.0
Zn381 Zn 0.61978 0.67989 0.09984 0.0
C382 C 0.68264 0.68082 0.24992 0.0
N383 N 0.64819 0.60923 -0.04311 0.0
C384 C 0.63195 0.57302 0.90327 0.0
C385 C 0.67007 0.61017 0.06425 0.0
C386 C 0.64507 0.58576 0.16404 0.0
C387 C 0.61008 0.55406 0.1117 0.0
C388 C 0.61819 0.54222 -0.01046 0.0
Zn389 Zn 0.61876 0.64348 -0.03522 0.0
O390 O 0.5673 0.65536 0.26104 0.0
C391 C 0.54929 0.62229 0.82156 0.0
O392 O 0.56275 0.60862 0.13659 0.0
H393 H 0.70001 0.63409 0.07931 0.0
H394 H 0.56321 0.70852 0.13694 0.0
H395 H 0.62053 0.56593 0.80787 0.0
O396 O 0.55468 0.64353 0.93032 0.0
O397 O 0.57983 0.62107 0.80106 0.0
H398 H 0.68452 0.76848 0.03526 0.0
O399 O 0.65785 0.67884 0.7765 0.0
O400 O 0.68679 0.6939 0.94733 0.0
O401 O 0.66266 0.66199 0.15055 0.0
O402 O 0.67182 0.70566 0.27983 0.0
C403 C 0.69055 0.68765 0.82159 0.0
H404 H 0.56359 0.77038 0.16312 0.0
H405 H 0.68692 0.83279 0.04468 0.0
H406 H 0.65288 0.58969 0.26728 0.0
H407 H 0.59728 0.51518 0.94783 0.0
loop_
_geom_bond_atom_site_label_1
_geom_bond_atom_site_label_2
_geom_bond_distance
_geom_bond_site_symmetry_2
_ccdc_geom_bond_type
C0 O16 1.251 . S
C0 O18 1.254 . S
N1 C2 1.333 . S
N1 C6 1.307 . S
N1 Zn7 2.020 . S
C2 N1 1.333 . S
C2 C3 1.379 . S
C2 H20 0.952 . S
C3 C2 1.379 . S
C3 C4 1.390 . S
C3 H30 0.949 . S
C4 C3 1.390 . S
C4 C5 1.357 . S
C5 C4 1.357 . S
C5 C6 1.370 . S
C5 H31 0.950 . S
C6 N1 1.307 . S
C6 C5 1.370 . S
C6 H24 0.948 . S
Zn7 N1 2.020 . S
Zn7 O16 2.039 . S
Zn7 O22 2.034 . S
Zn7 O26 2.025 . S
Zn7 O28 2.024 . S
C8 O27 1.246 . S
C8 O28 1.249 . S
N9 C10 1.307 . S
N9 C11 1.333 1_545 S
N9 Zn15 2.020 . S
C10 N9 1.307 . S
C10 C14 1.370 1_545 S
C10 H21 0.948 . S
C11 N9 1.333 1_565 S
C11 C12 1.379 . S
C11 H19 0.952 . S
C12 C11 1.379 . S
C12 C13 1.390 . S
C12 H32 0.949 . S
C13 C12 1.390 . S
C13 C14 1.357 . S
C14 C10 1.370 1_565 S
C14 C13 1.357 . S
C14 H33 0.950 . S
Zn15 N9 2.020 . S
Zn15 O18 2.025 . S
Zn15 O23 2.024 . S
Zn15 O25 2.039 . S
Zn15 O27 2.034 . S
O16 C0 1.251 . S
O16 Zn7 2.039 . S
C17 O22 1.246 . S
C17 O23 1.249 . S
O18 C0 1.254 . S
O18 Zn15 2.025 . S
H19 C11 0.952 . S
H20 C2 0.952 . S
H21 C10 0.948 . S
O22 Zn7 2.034 . S
O22 C17 1.246 . S
O23 Zn15 2.024 . S
O23 C17 1.249 . S
H24 C6 0.948 . S
O25 Zn15 2.039 . S
O25 C29 1.251 . S
O26 Zn7 2.025 . S
O26 C29 1.254 . S
O27 C8 1.246 . S
O27 Zn15 2.034 . S
O28 Zn7 2.024 . S
O28 C8 1.249 . S
C29 O25 1.251 . S
C29 O26 1.254 . S
H30 C3 0.949 . S
H31 C5 0.950 . S
H32 C12 0.949 . S
H33 C14 0.950 . S
C34 O50 1.251 . S
C34 O52 1.254 . S
N35 C36 1.333 . S
N35 C40 1.307 . S
N35 Zn41 2.020 . S
C36 N35 1.333 . S
C36 C37 1.379 . S
C36 H54 0.952 . S
C37 C36 1.379 . S
C37 C38 1.390 . S
C37 H64 0.949 . S
C38 C37 1.390 . S
C38 C39 1.357 . S
C39 C38 1.357 . S
C39 C40 1.370 . S
C39 H65 0.950 . S
C40 N35 1.307 . S
C40 C39 1.370 . S
C40 H58 0.948 . S
Zn41 N35 2.020 . S
Zn41 O50 2.039 . S
Zn41 O56 2.034 . S
Zn41 O60 2.025 . S
Zn41 O62 2.024 . S
C42 O61 1.246 . S
C42 O62 1.249 . S
N43 C44 1.307 . S
N43 C45 1.333 . S
N43 Zn49 2.020 . S
C44 N43 1.307 . S
C44 C48 1.370 . S
C44 H55 0.948 . S
C45 N43 1.333 . S
C45 C46 1.379 . S
C45 H53 0.952 . S
C46 C45 1.379 . S
C46 C47 1.390 . S
C46 H66 0.949 . S
C47 C46 1.390 . S
C47 C48 1.357 . S
C48 C44 1.370 . S
C48 C47 1.357 . S
C48 H67 0.950 . S
Zn49 N43 2.020 . S
Zn49 O52 2.025 . S
Zn49 O57 2.024 . S
Zn49 O59 2.039 . S
Zn49 O61 2.034 . S
O50 C34 1.251 . S
O50 Zn41 2.039 . S
C51 O56 1.246 . S
C51 O57 1.249 . S
O52 C34 1.254 . S
O52 Zn49 2.025 . S
H53 C45 0.952 . S
H54 C36 0.952 . S
H55 C44 0.948 . S
O56 Zn41 2.034 . S
O56 C51 1.246 . S
O57 Zn49 2.024 . S
O57 C51 1.249 . S
H58 C40 0.948 . S
O59 Zn49 2.039 . S
O59 C63 1.251 . S
O60 Zn41 2.025 . S
O60 C63 1.254 . S
O61 C42 1.246 . S
O61 Zn49 2.034 . S
O62 Zn41 2.024 . S
O62 C42 1.249 . S
C63 O59 1.251 . S
C63 O60 1.254 . S
H64 C37 0.949 . S
H65 C39 0.950 . S
H66 C46 0.949 . S
H67 C48 0.950 . S
C68 O84 1.251 . S
C68 O86 1.254 . S
N69 C70 1.333 . S
N69 C74 1.307 . S
N69 Zn75 2.020 . S
C70 N69 1.333 . S
C70 C71 1.379 . S
C70 H88 0.952 . S
C71 C70 1.379 . S
C71 C72 1.390 . S
C71 H98 0.949 . S
C72 C71 1.390 . S
C72 C73 1.357 . S
C73 C72 1.357 . S
C73 C74 1.370 . S
C73 H99 0.950 . S
C74 N69 1.307 . S
C74 C73 1.370 . S
C74 H92 0.948 . S
Zn75 N69 2.020 . S
Zn75 O84 2.039 . S
Zn75 O90 2.034 1_556 S
Zn75 O94 2.025 1_556 S
Zn75 O96 2.024 . S
C76 O95 1.246 . S
C76 O96 1.249 . S
N77 C78 1.307 . S
N77 C79 1.333 1_656 S
N77 Zn83 2.020 . S
C78 N77 1.307 . S
C78 C82 1.370 1_655 S
C78 H89 0.948 . S
C79 N77 1.333 1_454 S
C79 C80 1.379 . S
C79 H87 0.952 . S
C80 C79 1.379 . S
C80 C81 1.390 1_554 S
C80 H100 0.949 . S
C81 C80 1.390 1_556 S
C81 C82 1.357 . S
C82 C78 1.370 1_455 S
C82 C81 1.357 . S
C82 H101 0.950 . S
Zn83 N77 2.020 . S
Zn83 O86 2.025 . S
Zn83 O91 2.024 1_556 S
Zn83 O93 2.039 1_556 S
Zn83 O95 2.034 . S
O84 C68 1.251 . S
O84 Zn75 2.039 . S
C85 O90 1.246 . S
C85 O91 1.249 . S
O86 C68 1.254 . S
O86 Zn83 2.025 . S
H87 C79 0.952 . S
H88 C70 0.952 . S
H89 C78 0.948 . S
O90 Zn75 2.034 1_554 S
O90 C85 1.246 . S
O91 Zn83 2.024 1_554 S
O91 C85 1.249 . S
H92 C74 0.948 . S
O93 Zn83 2.039 1_554 S
O93 C97 1.251 . S
O94 Zn75 2.025 1_554 S
O94 C97 1.254 . S
O95 C76 1.246 . S
O95 Zn83 2.034 . S
O96 Zn75 2.024 . S
O96 C76 1.249 . S
C97 O93 1.251 . S
C97 O94 1.254 . S
H98 C71 0.949 . S
H99 C73 0.950 . S
H100 C80 0.949 . S
H101 C82 0.950 . S
C102 O118 1.251 . S
C102 O120 1.254 . S
N103 C104 1.333 . S
N103 C108 1.307 . S
N103 Zn109 2.020 . S
C104 N103 1.333 . S
C104 C105 1.379 . S
C104 H122 0.952 . S
C105 C104 1.379 . S
C105 C106 1.390 . S
C105 H132 0.949 . S
C106 C105 1.390 . S
C106 C107 1.357 . S
C107 C106 1.357 . S
C107 C108 1.370 . S
C107 H133 0.950 . S
C108 N103 1.307 . S
C108 C107 1.370 . S
C108 H126 0.948 . S
Zn109 N103 2.020 . S
Zn109 O118 2.039 . S
Zn109 O124 2.034 . S
Zn109 O128 2.025 . S
Zn109 O130 2.024 . S
C110 O129 1.246 . S
C110 O130 1.249 . S
N111 C112 1.307 . S
N111 C113 1.333 1_565 S
N111 Zn117 2.020 . S
C112 N111 1.307 . S
C112 C116 1.370 1_565 S
C112 H123 0.948 . S
C113 N111 1.333 1_545 S
C113 C114 1.379 . S
C113 H121 0.952 . S
C114 C113 1.379 . S
C114 C115 1.390 . S
C114 H134 0.949 . S
C115 C114 1.390 . S
C115 C116 1.357 . S
C116 C112 1.370 1_545 S
C116 C115 1.357 . S
C116 H135 0.950 . S
Zn117 N111 2.020 . S
Zn117 O120 2.025 . S
Zn117 O125 2.024 . S
Zn117 O127 2.039 . S
Zn117 O129 2.034 . S
O118 C102 1.251 . S
O118 Zn109 2.039 . S
C119 O124 1.246 . S
C119 O125 1.249 . S
O120 C102 1.254 . S
O120 Zn117 2.025 . S
H121 C113 0.952 . S
H122 C104 0.952 . S
H123 C112 0.948 . S
O124 Zn109 2.034 . S
O124 C119 1.246 . S
O125 Zn117 2.024 . S
O125 C119 1.249 . S
H126 C108 0.948 . S
O127 Zn117 2.039 . S
O127 C131 1.251 . S
O128 Zn109 2.025 . S
O128 C131 1.254 . S
O129 C110 1.246 . S
O129 Zn117 2.034 . S
O130 Zn109 2.024 . S
O130 C110 1.249 . S
C131 O127 1.251 . S
C131 O128 1.254 . S
H132 C105 0.949 . S
H133 C107 0.950 . S
H134 C114 0.949 . S
H135 C116 0.950 . S
C136 O152 1.251 . S
C136 O154 1.254 . S
N137 C138 1.333 . S
N137 C142 1.307 . S
N137 Zn143 2.020 . S
C138 N137 1.333 . S
C138 C139 1.379 . S
C138 H156 0.952 . S
C139 C138 1.379 . S
C139 C140 1.390 . S
C139 H166 0.949 . S
C140 C139 1.390 . S
C140 C141 1.357 . S
C141 C140 1.357 . S
C141 C142 1.370 . S
C141 H167 0.950 . S
C142 N137 1.307 . S
C142 C141 1.370 . S
C142 H160 0.948 . S
Zn143 N137 2.020 . S
Zn143 O152 2.039 . S
Zn143 O158 2.034 . S
Zn143 O162 2.025 . S
Zn143 O164 2.024 . S
C144 O163 1.246 . S
C144 O164 1.249 . S
N145 C146 1.307 . S
N145 C147 1.333 . S
N145 Zn151 2.020 . S
C146 N145 1.307 . S
C146 C150 1.370 . S
C146 H157 0.948 . S
C147 N145 1.333 . S
C147 C148 1.379 . S
C147 H155 0.952 . S
C148 C147 1.379 . S
C148 C149 1.390 . S
C148 H168 0.949 . S
C149 C148 1.390 . S
C149 C150 1.357 . S
C150 C146 1.370 . S
C150 C149 1.357 . S
C150 H169 0.950 . S
Zn151 N145 2.020 . S
Zn151 O154 2.025 . S
Zn151 O159 2.024 . S
Zn151 O161 2.039 . S
Zn151 O163 2.034 . S
O152 C136 1.251 . S
O152 Zn143 2.039 . S
C153 O158 1.246 . S
C153 O159 1.249 . S
O154 C136 1.254 . S
O154 Zn151 2.025 . S
H155 C147 0.952 . S
H156 C138 0.952 . S
H157 C146 0.948 . S
O158 Zn143 2.034 . S
O158 C153 1.246 . S
O159 Zn151 2.024 . S
O159 C153 1.249 . S
H160 C142 0.948 . S
O161 Zn151 2.039 . S
O161 C165 1.251 . S
O162 Zn143 2.025 . S
O162 C165 1.254 . S
O163 C144 1.246 . S
O163 Zn151 2.034 . S
O164 Zn143 2.024 . S
O164 C144 1.249 . S
C165 O161 1.251 . S
C165 O162 1.254 . S
H166 C139 0.949 . S
H167 C141 0.950 . S
H168 C148 0.949 . S
H169 C150 0.950 . S
C170 O186 1.251 . S
C170 O188 1.254 . S
N171 C172 1.333 . S
N171 C176 1.307 . S
N171 Zn177 2.020 . S
C172 N171 1.333 . S
C172 C173 1.379 . S
C172 H190 0.952 . S
C173 C172 1.379 . S
C173 C174 1.390 . S
C173 H200 0.949 . S
C174 C173 1.390 . S
C174 C175 1.357 . S
C175 C174 1.357 . S
C175 C176 1.370 . S
C175 H201 0.950 . S
C176 N171 1.307 . S
C176 C175 1.370 . S
C176 H194 0.948 . S
Zn177 N171 2.020 . S
Zn177 O186 2.039 . S
Zn177 O192 2.034 1_556 S
Zn177 O196 2.025 1_556 S
Zn177 O198 2.024 . S
C178 O197 1.246 . S
C178 O198 1.249 . S
N179 C180 1.307 . S
N179 C181 1.333 1_456 S
N179 Zn185 2.020 . S
C180 N179 1.307 . S
C180 C184 1.370 1_455 S
C180 H191 0.948 . S
C181 N179 1.333 1_654 S
C181 C182 1.379 . S
C181 H189 0.952 . S
C182 C181 1.379 . S
C182 C183 1.390 1_554 S
C182 H202 0.949 . S
C183 C182 1.390 1_556 S
C183 C184 1.357 . S
C184 C180 1.370 1_655 S
C184 C183 1.357 . S
C184 H203 0.950 . S
Zn185 N179 2.020 . S
Zn185 O188 2.025 . S
Zn185 O193 2.024 1_556 S
Zn185 O195 2.039 1_556 S
Zn185 O197 2.034 . S
O186 C170 1.251 . S
O186 Zn177 2.039 . S
C187 O192 1.246 . S
C187 O193 1.249 . S
O188 C170 1.254 . S
O188 Zn185 2.025 . S
H189 C181 0.952 . S
H190 C172 0.952 . S
H191 C180 0.948 . S
O192 Zn177 2.034 1_554 S
O192 C187 1.246 . S
O193 Zn185 2.024 1_554 S
O193 C187 1.249 . S
H194 C176 0.948 . S
O195 Zn185 2.039 1_554 S
O195 C199 1.251 . S
O196 Zn177 2.025 1_554 S
O196 C199 1.254 . S
O197 C178 1.246 . S
O197 Zn185 2.034 . S
O198 Zn177 2.024 . S
O198 C178 1.249 . S
C199 O195 1.251 . S
C199 O196 1.254 . S
H200 C173 0.949 . S
H201 C175 0.950 . S
H202 C182 0.949 . S
H203 C184 0.950 . S
C204 O220 1.251 . S
C204 O222 1.254 . S
N205 C206 1.333 . S
N205 C210 1.307 . S
N205 Zn211 2.020 . S
C206 N205 1.333 . S
C206 C207 1.379 . S
C206 H224 0.952 . S
C207 C206 1.379 . S
C207 C208 1.390 . S
C207 H234 0.949 . S
C208 C207 1.390 . S
C208 C209 1.357 . S
C209 C208 1.357 . S
C209 C210 1.370 . S
C209 H235 0.950 . S
C210 N205 1.307 . S
C210 C209 1.370 . S
C210 H228 0.948 . S
Zn211 N205 2.020 . S
Zn211 O220 2.039 . S
Zn211 O226 2.034 . S
Zn211 O230 2.025 . S
Zn211 O232 2.024 . S
C212 O231 1.246 . S
C212 O232 1.249 . S
N213 C214 1.307 . S
N213 C215 1.333 1_655 S
N213 Zn219 2.020 . S
C214 N213 1.307 . S
C214 C218 1.370 1_655 S
C214 H225 0.948 . S
C215 N213 1.333 1_455 S
C215 C216 1.379 . S
C215 H223 0.952 . S
C216 C215 1.379 . S
C216 C217 1.390 . S
C216 H236 0.949 . S
C217 C216 1.390 . S
C217 C218 1.357 . S
C218 C214 1.370 1_455 S
C218 C217 1.357 . S
C218 H237 0.950 . S
Zn219 N213 2.020 . S
Zn219 O222 2.025 . S
Zn219 O227 2.024 . S
Zn219 O229 2.039 . S
Zn219 O231 2.034 . S
O220 C204 1.251 . S
O220 Zn211 2.039 . S
C221 O226 1.246 . S
C221 O227 1.249 . S
O222 C204 1.254 . S
O222 Zn219 2.025 . S
H223 C215 0.952 . S
H224 C206 0.952 . S
H225 C214 0.948 . S
O226 Zn211 2.034 . S
O226 C221 1.246 . S
O227 Zn219 2.024 . S
O227 C221 1.249 . S
H228 C210 0.948 . S
O229 Zn219 2.039 . S
O229 C233 1.251 . S
O230 Zn211 2.025 . S
O230 C233 1.254 . S
O231 C212 1.246 . S
O231 Zn219 2.034 . S
O232 Zn211 2.024 . S
O232 C212 1.249 . S
C233 O229 1.251 . S
C233 O230 1.254 . S
H234 C207 0.949 . S
H235 C209 0.950 . S
H236 C216 0.949 . S
H237 C218 0.950 . S
C238 O254 1.251 . S
C238 O256 1.254 . S
N239 C240 1.333 . S
N239 C244 1.307 . S
N239 Zn245 2.020 . S
C240 N239 1.333 . S
C240 C241 1.379 . S
C240 H258 0.952 . S
C241 C240 1.379 . S
C241 C242 1.390 . S
C241 H268 0.949 . S
C242 C241 1.390 . S
C242 C243 1.357 . S
C243 C242 1.357 . S
C243 C244 1.370 . S
C243 H269 0.950 . S
C244 N239 1.307 . S
C244 C243 1.370 . S
C244 H262 0.948 . S
Zn245 N239 2.020 . S
Zn245 O254 2.039 . S
Zn245 O260 2.034 . S
Zn245 O264 2.025 . S
Zn245 O266 2.024 . S
C246 O265 1.246 . S
C246 O266 1.249 . S
N247 C248 1.307 . S
N247 C249 1.333 1_565 S
N247 Zn253 2.020 . S
C248 N247 1.307 . S
C248 C252 1.370 1_565 S
C248 H259 0.948 . S
C249 N247 1.333 1_545 S
C249 C250 1.379 . S
C249 H257 0.952 . S
C250 C249 1.379 . S
C250 C251 1.390 . S
C250 H270 0.949 . S
C251 C250 1.390 . S
C251 C252 1.357 . S
C252 C248 1.370 1_545 S
C252 C251 1.357 . S
C252 H271 0.950 . S
Zn253 N247 2.020 . S
Zn253 O256 2.025 . S
Zn253 O261 2.024 . S
Zn253 O263 2.039 . S
Zn253 O265 2.034 . S
O254 C238 1.251 . S
O254 Zn245 2.039 . S
C255 O260 1.246 . S
C255 O261 1.249 . S
O256 C238 1.254 . S
O256 Zn253 2.025 . S
H257 C249 0.952 . S
H258 C240 0.952 . S
H259 C248 0.948 . S
O260 Zn245 2.034 . S
O260 C255 1.246 . S
O261 Zn253 2.024 . S
O261 C255 1.249 . S
H262 C244 0.948 . S
O263 Zn253 2.039 . S
O263 C267 1.251 . S
O264 Zn245 2.025 . S
O264 C267 1.254 . S
O265 C246 1.246 . S
O265 Zn253 2.034 . S
O266 Zn245 2.024 . S
O266 C246 1.249 . S
C267 O263 1.251 . S
C267 O264 1.254 . S
H268 C241 0.949 . S
H269 C243 0.950 . S
H270 C250 0.949 . S
H271 C252 0.950 . S
C272 O288 1.251 . S
C272 O290 1.254 . S
N273 C274 1.333 . S
N273 C278 1.307 . S
N273 Zn279 2.020 . S
C274 N273 1.333 . S
C274 C275 1.379 . S
C274 H292 0.952 . S
C275 C274 1.379 . S
C275 C276 1.390 . S
C275 H302 0.949 . S
C276 C275 1.390 . S
C276 C277 1.357 . S
C277 C276 1.357 . S
C277 C278 1.370 . S
C277 H303 0.950 . S
C278 N273 1.307 . S
C278 C277 1.370 . S
C278 H296 0.948 . S
Zn279 N273 2.020 . S
Zn279 O288 2.039 . S
Zn279 O294 2.034 1_554 S
Zn279 O298 2.025 1_554 S
Zn279 O300 2.024 . S
C280 O299 1.246 . S
C280 O300 1.249 . S
N281 C282 1.307 . S
N281 C283 1.333 1_554 S
N281 Zn287 2.020 . S
C282 N281 1.307 . S
C282 C286 1.370 . S
C282 H293 0.948 . S
C283 N281 1.333 1_556 S
C283 C284 1.379 . S
C283 H291 0.952 . S
C284 C283 1.379 . S
C284 C285 1.390 1_556 S
C284 H304 0.949 . S
C285 C284 1.390 1_554 S
C285 C286 1.357 . S
C286 C282 1.370 . S
C286 C285 1.357 . S
C286 H305 0.950 . S
Zn287 N281 2.020 . S
Zn287 O290 2.025 . S
Zn287 O295 2.024 1_554 S
Zn287 O297 2.039 1_554 S
Zn287 O299 2.034 . S
O288 C272 1.251 . S
O288 Zn279 2.039 . S
C289 O294 1.246 . S
C289 O295 1.249 . S
O290 C272 1.254 . S
O290 Zn287 2.025 . S
H291 C283 0.952 . S
H292 C274 0.952 . S
H293 C282 0.948 . S
O294 Zn279 2.034 1_556 S
O294 C289 1.246 . S
O295 Zn287 2.024 1_556 S
O295 C289 1.249 . S
H296 C278 0.948 . S
O297 Zn287 2.039 1_556 S
O297 C301 1.251 . S
O298 Zn279 2.025 1_556 S
O298 C301 1.254 . S
O299 C280 1.246 . S
O299 Zn287 2.034 . S
O300 Zn279 2.024 . S
O300 C280 1.249 . S
C301 O297 1.251 . S
C301 O298 1.254 . S
H302 C275 0.949 . S
H303 C277 0.950 . S
H304 C284 0.949 . S
H305 C286 0.950 . S
C306 O322 1.251 . S
C306 O324 1.254 . S
N307 C308 1.333 . S
N307 C312 1.307 . S
N307 Zn313 2.020 . S
C308 N307 1.333 . S
C308 C309 1.379 . S
C308 H326 0.952 . S
C309 C308 1.379 . S
C309 C310 1.390 . S
C309 H336 0.949 . S
C310 C309 1.390 . S
C310 C311 1.357 . S
C311 C310 1.357 . S
C311 C312 1.370 . S
C311 H337 0.950 . S
C312 N307 1.307 . S
C312 C311 1.370 . S
C312 H330 0.948 . S
Zn313 N307 2.020 . S
Zn313 O322 2.039 . S
Zn313 O328 2.034 . S
Zn313 O332 2.025 . S
Zn313 O334 2.024 . S
C314 O333 1.246 . S
C314 O334 1.249 . S
N315 C316 1.307 . S
N315 C317 1.333 1_455 S
N315 Zn321 2.020 . S
C316 N315 1.307 . S
C316 C320 1.370 1_455 S
C316 H327 0.948 . S
C317 N315 1.333 1_655 S
C317 C318 1.379 . S
C317 H325 0.952 . S
C318 C317 1.379 . S
C318 C319 1.390 . S
C318 H338 0.949 . S
C319 C318 1.390 . S
C319 C320 1.357 . S
C320 C316 1.370 1_655 S
C320 C319 1.357 . S
C320 H339 0.950 . S
Zn321 N315 2.020 . S
Zn321 O324 2.025 . S
Zn321 O329 2.024 . S
Zn321 O331 2.039 . S
Zn321 O333 2.034 . S
O322 C306 1.251 . S
O322 Zn313 2.039 . S
C323 O328 1.246 . S
C323 O329 1.249 . S
O324 C306 1.254 . S
O324 Zn321 2.025 . S
H325 C317 0.952 . S
H326 C308 0.952 . S
H327 C316 0.948 . S
O328 Zn313 2.034 . S
O328 C323 1.246 . S
O329 Zn321 2.024 . S
O329 C323 1.249 . S
H330 C312 0.948 . S
O331 Zn321 2.039 . S
O331 C335 1.251 . S
O332 Zn313 2.025 . S
O332 C335 1.254 . S
O333 C314 1.246 . S
O333 Zn321 2.034 . S
O334 Zn313 2.024 . S
O334 C314 1.249 . S
C335 O331 1.251 . S
C335 O332 1.254 . S
H336 C309 0.949 . S
H337 C311 0.950 . S
H338 C318 0.949 . S
H339 C320 0.950 . S
C340 O356 1.251 . S
C340 O358 1.254 . S
N341 C342 1.333 . S
N341 C346 1.307 . S
N341 Zn347 2.020 . S
C342 N341 1.333 . S
C342 C343 1.379 . S
C342 H360 0.952 . S
C343 C342 1.379 . S
C343 C344 1.390 . S
C343 H370 0.949 . S
C344 C343 1.390 . S
C344 C345 1.357 . S
C345 C344 1.357 . S
C345 C346 1.370 . S
C345 H371 0.950 . S
C346 N341 1.307 . S
C346 C345 1.370 . S
C346 H364 0.948 . S
Zn347 N341 2.020 . S
Zn347 O356 2.039 . S
Zn347 O362 2.034 . S
Zn347 O366 2.025 . S
Zn347 O368 2.024 . S
C348 O367 1.246 . S
C348 O368 1.249 . S
N349 C350 1.307 . S
N349 C351 1.333 1_545 S
N349 Zn355 2.020 . S
C350 N349 1.307 . S
C350 C354 1.370 1_545 S
C350 H361 0.948 . S
C351 N349 1.333 1_565 S
C351 C352 1.379 . S
C351 H359 0.952 . S
C352 C351 1.379 . S
C352 C353 1.390 . S
C352 H372 0.949 . S
C353 C352 1.390 . S
C353 C354 1.357 . S
C354 C350 1.370 1_565 S
C354 C353 1.357 . S
C354 H373 0.950 . S
Zn355 N349 2.020 . S
Zn355 O358 2.025 . S
Zn355 O363 2.024 . S
Zn355 O365 2.039 . S
Zn355 O367 2.034 . S
O356 C340 1.251 . S
O356 Zn347 2.039 . S
C357 O362 1.246 . S
C357 O363 1.249 . S
O358 C340 1.254 . S
O358 Zn355 2.025 . S
H359 C351 0.952 . S
H360 C342 0.952 . S
H361 C350 0.948 . S
O362 Zn347 2.034 . S
O362 C357 1.246 . S
O363 Zn355 2.024 . S
O363 C357 1.249 . S
H364 C346 0.948 . S
O365 Zn355 2.039 . S
O365 C369 1.251 . S
O366 Zn347 2.025 . S
O366 C369 1.254 . S
O367 C348 1.246 . S
O367 Zn355 2.034 . S
O368 Zn347 2.024 . S
O368 C348 1.249 . S
C369 O365 1.251 . S
C369 O366 1.254 . S
H370 C343 0.949 . S
H371 C345 0.950 . S
H372 C352 0.949 . S
H373 C354 0.950 . S
C374 O390 1.251 . S
C374 O392 1.254 . S
N375 C376 1.333 . S
N375 C380 1.307 . S
N375 Zn381 2.020 . S
C376 N375 1.333 . S
C376 C377 1.379 . S
C376 H394 0.952 . S
C377 C376 1.379 . S
C377 C378 1.390 . S
C377 H404 0.949 . S
C378 C377 1.390 . S
C378 C379 1.357 . S
C379 C378 1.357 . S
C379 C380 1.370 . S
C379 H405 0.950 . S
C380 N375 1.307 . S
C380 C379 1.370 . S
C380 H398 0.948 . S
Zn381 N375 2.020 . S
Zn381 O390 2.039 . S
Zn381 O396 2.034 1_554 S
Zn381 O400 2.025 1_554 S
Zn381 O402 2.024 . S
C382 O401 1.246 . S
C382 O402 1.249 . S
N383 C384 1.307 . S
N383 C385 1.333 1_554 S
N383 Zn389 2.020 . S
C384 N383 1.307 . S
C384 C388 1.370 . S
C384 H395 0.948 . S
C385 N383 1.333 1_556 S
C385 C386 1.379 . S
C385 H393 0.952 . S
C386 C385 1.379 . S
C386 C387 1.390 1_556 S
C386 H406 0.949 . S
C387 C386 1.390 1_554 S
C387 C388 1.357 . S
C388 C384 1.370 . S
C388 C387 1.357 . S
C388 H407 0.950 . S
Zn389 N383 2.020 . S
Zn389 O392 2.025 . S
Zn389 O397 2.024 1_554 S
Zn389 O399 2.039 1_554 S
Zn389 O401 2.034 . S
O390 C374 1.251 . S
O390 Zn381 2.039 . S
C391 O396 1.246 . S
C391 O397 1.249 . S
O392 C374 1.254 . S
O392 Zn389 2.025 . S
H393 C385 0.952 . S
H394 C376 0.952 . S
H395 C384 0.948 . S
O396 Zn381 2.034 1_556 S
O396 C391 1.246 . S
O397 Zn389 2.024 1_556 S
O397 C391 1.249 . S
H398 C380 0.948 . S
O399 Zn389 2.039 1_556 S
O399 C403 1.251 . S
O400 Zn381 2.025 1_556 S
O400 C403 1.254 . S
O401 C382 1.246 . S
O401 Zn389 2.034 . S
O402 Zn381 2.024 . S
O402 C382 1.249 . S
C403 O399 1.251 . S
C403 O400 1.254 . S
H404 C377 0.949 . S
H405 C379 0.950 . S
H406 C386 0.949 . S
H407 C388 0.950 . S
C4 C276 1.820 . S
C38 C310 1.822 . S
C72 C344 1.820 . S
C378 C106 1.820 . S
C140 C208 1.822 . S
C242 C174 1.820 . S
C340 C0 3.540 1_556 S
C374 C34 3.540 . S
C68 C204 3.540 . S
C238 C102 3.540 1_556 S
C272 C136 3.540 . S
C170 C306 3.540 . S
C246 C8 3.531 1_566 S
C280 C42 3.531 . S
C314 C76 3.530 1_455 S
C110 C348 3.531 1_564 S
C144 C382 3.531 . S
C178 C212 3.530 1_455 S
C13 C115 4.460 1_565 S
C47 C149 4.461 . S
C81 C183 4.460 1_455 S
C319 C217 4.461 1_655 S
C251 C353 4.461 1_545 S
C387 C285 4.460 . S
C267 C29 3.489 1_565 S
C301 C63 3.489 . S
C97 C335 3.489 1_655 S
C369 C131 3.489 1_545 S
C403 C165 3.489 . S
C199 C233 3.489 1_455 S
C17 C357 3.412 . S
C51 C391 3.412 . S
C85 C221 3.412 . S
C119 C255 3.412 . S
C153 C289 3.412 . S
C323 C187 3.412 . S
