# Generated by pormake.
# Topology ums, (4)-cn, num edge types: 1
# Building blocks:
#     Node 0, Type 0, BuildingBlock: GALJAG_clean_sbu_0, # of connection points: 4
#     Node 1, Type 0, BuildingBlock: GALJAG_clean_sbu_0, # of connection points: 4
#     Node 2, Type 0, BuildingBlock: GALJAG_clean_sbu_0, # of connection points: 4
#     Node 3, Type 0, BuildingBlock: GALJAG_clean_sbu_0, # of connection points: 4
#     Node 4, Type 0, BuildingBlock: GALJAG_clean_sbu_0, # of connection points: 4
#     Node 5, Type 0, BuildingBlock: GALJAG_clean_sbu_0, # of connection points: 4
#     Node 6, Type 0, BuildingBlock: GALJAG_clean_sbu_0, # of connection points: 4
#     Node 7, Type 0, BuildingBlock: GALJAG_clean_sbu_0, # of connection points: 4
#     Node 8, Type 0, BuildingBlock: GALJAG_clean_sbu_0, # of connection points: 4
#     Node 9, Type 0, BuildingBlock: GALJAG_clean_sbu_0, # of connection points: 4
#     Node 10, Type 0, BuildingBlock: GALJAG_clean_sbu_0, # of connection points: 4
#     Node 11, Type 0, BuildingBlock: GALJAG_clean_sbu_0, # of connection points: 4
#     Node 12, Type 0, BuildingBlock: GALJAG_clean_sbu_0, # of connection points: 4
#     Node 13, Type 0, BuildingBlock: GALJAG_clean_sbu_0, # of connection points: 4
#     Node 14, Type 0, BuildingBlock: GALJAG_clean_sbu_0, # of connection points: 4
#     Node 15, Type 0, BuildingBlock: GALJAG_clean_sbu_0, # of connection points: 4
#     Node 16, Type 0, BuildingBlock: GALJAG_clean_sbu_0, # of connection points: 4
#     Node 17, Type 0, BuildingBlock: GALJAG_clean_sbu_0, # of connection points: 4
#     Node 18, Type 0, BuildingBlock: GALJAG_clean_sbu_0, # of connection points: 4
#     Node 19, Type 0, BuildingBlock: GALJAG_clean_sbu_0, # of connection points: 4
#     Node 20, Type 0, BuildingBlock: GALJAG_clean_sbu_0, # of connection points: 4
#     Node 21, Type 0, BuildingBlock: GALJAG_clean_sbu_0, # of connection points: 4
#     Node 22, Type 0, BuildingBlock: GALJAG_clean_sbu_0, # of connection points: 4
#     Node 23, Type 0, BuildingBlock: GALJAG_clean_sbu_0, # of connection points: 4
#     Node 24, Type 0, BuildingBlock: GALJAG_clean_sbu_0, # of connection points: 4
#     Node 25, Type 0, BuildingBlock: GALJAG_clean_sbu_0, # of connection points: 4
#     Node 26, Type 0, BuildingBlock: GALJAG_clean_sbu_0, # of connection points: 4
#     Node 27, Type 0, BuildingBlock: GALJAG_clean_sbu_0, # of connection points: 4
#     Node 28, Type 0, BuildingBlock: GALJAG_clean_sbu_0, # of connection points: 4
#     Node 29, Type 0, BuildingBlock: GALJAG_clean_sbu_0, # of connection points: 4
#     Node 30, Type 0, BuildingBlock: GALJAG_clean_sbu_0, # of connection points: 4
#     Node 31, Type 0, BuildingBlock: GALJAG_clean_sbu_0, # of connection points: 4
#     Node 32, Type 0, BuildingBlock: GALJAG_clean_sbu_0, # of connection points: 4
#     Node 33, Type 0, BuildingBlock: GALJAG_clean_sbu_0, # of connection points: 4
#     Node 34, Type 0, BuildingBlock: GALJAG_clean_sbu_0, # of connection points: 4
#     Node 35, Type 0, BuildingBlock: GALJAG_clean_sbu_0, # of connection points: 4
#     Edge 36, Type (0, 0), BuildingBlock: TEMPAE_clean_linker_10, # of connection points: 2
#     Edge 37, Type (0, 0), BuildingBlock: TEMPAE_clean_linker_10, # of connection points: 2
#     Edge 38, Type (0, 0), BuildingBlock: TEMPAE_clean_linker_10, # of connection points: 2
#     Edge 39, Type (0, 0), BuildingBlock: TEMPAE_clean_linker_10, # of connection points: 2
#     Edge 40, Type (0, 0), BuildingBlock: TEMPAE_clean_linker_10, # of connection points: 2
#     Edge 41, Type (0, 0), BuildingBlock: TEMPAE_clean_linker_10, # of connection points: 2
#     Edge 42, Type (0, 0), BuildingBlock: TEMPAE_clean_linker_10, # of connection points: 2
#     Edge 43, Type (0, 0), BuildingBlock: TEMPAE_clean_linker_10, # of connection points: 2
#     Edge 44, Type (0, 0), BuildingBlock: TEMPAE_clean_linker_10, # of connection points: 2
#     Edge 45, Type (0, 0), BuildingBlock: TEMPAE_clean_linker_10, # of connection points: 2
#     Edge 46, Type (0, 0), BuildingBlock: TEMPAE_clean_linker_10, # of connection points: 2
#     Edge 47, Type (0, 0), BuildingBlock: TEMPAE_clean_linker_10, # of connection points: 2
#     Edge 48, Type (0, 0), BuildingBlock: TEMPAE_clean_linker_10, # of connection points: 2
#     Edge 49, Type (0, 0), BuildingBlock: TEMPAE_clean_linker_10, # of connection points: 2
#     Edge 50, Type (0, 0), BuildingBlock: TEMPAE_clean_linker_10, # of connection points: 2
#     Edge 51, Type (0, 0), BuildingBlock: TEMPAE_clean_linker_10, # of connection points: 2
#     Edge 52, Type (0, 0), BuildingBlock: TEMPAE_clean_linker_10, # of connection points: 2
#     Edge 53, Type (0, 0), BuildingBlock: TEMPAE_clean_linker_10, # of connection points: 2
#     Edge 54, Type (0, 0), BuildingBlock: TEMPAE_clean_linker_10, # of connection points: 2
#     Edge 55, Type (0, 0), BuildingBlock: TEMPAE_clean_linker_10, # of connection points: 2
#     Edge 56, Type (0, 0), BuildingBlock: TEMPAE_clean_linker_10, # of connection points: 2
#     Edge 57, Type (0, 0), BuildingBlock: TEMPAE_clean_linker_10, # of connection points: 2
#     Edge 58, Type (0, 0), BuildingBlock: TEMPAE_clean_linker_10, # of connection points: 2
#     Edge 59, Type (0, 0), BuildingBlock: TEMPAE_clean_linker_10, # of connection points: 2
#     Edge 60, Type (0, 0), BuildingBlock: TEMPAE_clean_linker_10, # of connection points: 2
#     Edge 61, Type (0, 0), BuildingBlock: TEMPAE_clean_linker_10, # of connection points: 2
#     Edge 62, Type (0, 0), BuildingBlock: TEMPAE_clean_linker_10, # of connection points: 2
#     Edge 63, Type (0, 0), BuildingBlock: TEMPAE_clean_linker_10, # of connection points: 2
#     Edge 64, Type (0, 0), BuildingBlock: TEMPAE_clean_linker_10, # of connection points: 2
#     Edge 65, Type (0, 0), BuildingBlock: TEMPAE_clean_linker_10, # of connection points: 2
#     Edge 66, Type (0, 0), BuildingBlock: TEMPAE_clean_linker_10, # of connection points: 2
#     Edge 67, Type (0, 0), BuildingBlock: TEMPAE_clean_linker_10, # of connection points: 2
#     Edge 68, Type (0, 0), BuildingBlock: TEMPAE_clean_linker_10, # of connection points: 2
#     Edge 69, Type (0, 0), BuildingBlock: TEMPAE_clean_linker_10, # of connection points: 2
#     Edge 70, Type (0, 0), BuildingBlock: TEMPAE_clean_linker_10, # of connection points: 2
#     Edge 71, Type (0, 0), BuildingBlock: TEMPAE_clean_linker_10, # of connection points: 2
#     Edge 72, Type (0, 0), BuildingBlock: TEMPAE_clean_linker_10, # of connection points: 2
#     Edge 73, Type (0, 0), BuildingBlock: TEMPAE_clean_linker_10, # of connection points: 2
#     Edge 74, Type (0, 0), BuildingBlock: TEMPAE_clean_linker_10, # of connection points: 2
#     Edge 75, Type (0, 0), BuildingBlock: TEMPAE_clean_linker_10, # of connection points: 2
#     Edge 76, Type (0, 0), BuildingBlock: TEMPAE_clean_linker_10, # of connection points: 2
#     Edge 77, Type (0, 0), BuildingBlock: TEMPAE_clean_linker_10, # of connection points: 2
#     Edge 78, Type (0, 0), BuildingBlock: TEMPAE_clean_linker_10, # of connection points: 2
#     Edge 79, Type (0, 0), BuildingBlock: TEMPAE_clean_linker_10, # of connection points: 2
#     Edge 80, Type (0, 0), BuildingBlock: TEMPAE_clean_linker_10, # of connection points: 2
#     Edge 81, Type (0, 0), BuildingBlock: TEMPAE_clean_linker_10, # of connection points: 2
#     Edge 82, Type (0, 0), BuildingBlock: TEMPAE_clean_linker_10, # of connection points: 2
#     Edge 83, Type (0, 0), BuildingBlock: TEMPAE_clean_linker_10, # of connection points: 2
#     Edge 84, Type (0, 0), BuildingBlock: TEMPAE_clean_linker_10, # of connection points: 2
#     Edge 85, Type (0, 0), BuildingBlock: TEMPAE_clean_linker_10, # of connection points: 2
#     Edge 86, Type (0, 0), BuildingBlock: TEMPAE_clean_linker_10, # of connection points: 2
#     Edge 87, Type (0, 0), BuildingBlock: TEMPAE_clean_linker_10, # of connection points: 2
#     Edge 88, Type (0, 0), BuildingBlock: TEMPAE_clean_linker_10, # of connection points: 2
#     Edge 89, Type (0, 0), BuildingBlock: TEMPAE_clean_linker_10, # of connection points: 2
#     Edge 90, Type (0, 0), BuildingBlock: TEMPAE_clean_linker_10, # of connection points: 2
#     Edge 91, Type (0, 0), BuildingBlock: TEMPAE_clean_linker_10, # of connection points: 2
#     Edge 92, Type (0, 0), BuildingBlock: TEMPAE_clean_linker_10, # of connection points: 2
#     Edge 93, Type (0, 0), BuildingBlock: TEMPAE_clean_linker_10, # of connection points: 2
#     Edge 94, Type (0, 0), BuildingBlock: TEMPAE_clean_linker_10, # of connection points: 2
#     Edge 95, Type (0, 0), BuildingBlock: TEMPAE_clean_linker_10, # of connection points: 2
#     Edge 96, Type (0, 0), BuildingBlock: TEMPAE_clean_linker_10, # of connection points: 2
#     Edge 97, Type (0, 0), BuildingBlock: TEMPAE_clean_linker_10, # of connection points: 2
#     Edge 98, Type (0, 0), BuildingBlock: TEMPAE_clean_linker_10, # of connection points: 2
#     Edge 99, Type (0, 0), BuildingBlock: TEMPAE_clean_linker_10, # of connection points: 2
#     Edge 100, Type (0, 0), BuildingBlock: TEMPAE_clean_linker_10, # of connection points: 2
#     Edge 101, Type (0, 0), BuildingBlock: TEMPAE_clean_linker_10, # of connection points: 2
#     Edge 102, Type (0, 0), BuildingBlock: TEMPAE_clean_linker_10, # of connection points: 2
#     Edge 103, Type (0, 0), BuildingBlock: TEMPAE_clean_linker_10, # of connection points: 2
#     Edge 104, Type (0, 0), BuildingBlock: TEMPAE_clean_linker_10, # of connection points: 2
#     Edge 105, Type (0, 0), BuildingBlock: TEMPAE_clean_linker_10, # of connection points: 2
#     Edge 106, Type (0, 0), BuildingBlock: TEMPAE_clean_linker_10, # of connection points: 2
#     Edge 107, Type (0, 0), BuildingBlock: TEMPAE_clean_linker_10, # of connection points: 2
# Relax obj value: 0.176
# Max RMSD: 0.175
# Mean RMSD: 0.174
data_MOF--net-ums--node1-GALJAG_clean_sbu_0--edge1-TEMPAE_clean_linker_10
_symmetry_space_group_name_H-M    P1
_symmetry_Int_Tables_number       1
_symmetry_cell_setting            triclinic
loop_
_symmetry_equiv_pos_as_xyz
'x, y, z'
_cell_length_a     97.796435
_cell_length_b     97.808211
_cell_length_c     26.386299
_cell_angle_alpha  89.986516
_cell_angle_beta   89.998723
_cell_angle_gamma 120.00254
loop_
_atom_site_label
_atom_site_type_symbol
_atom_site_fract_x
_atom_site_fract_y
_atom_site_fract_z
_atom_type_partial_charge
In0 In 0.15217 0.2455 0.1422 0.0
O1 O 0.15843 0.22596 0.14153 0.0
O2 O 0.1704 0.24483 0.1938 0.0
C3 C 0.13539 0.2354 0.05548 0.0
C4 C 0.13317 0.23923 0.22318 0.0
C5 C 0.17191 0.27606 0.11781 0.0
O6 O 0.14841 0.23585 0.06144 0.0
O7 O 0.13076 0.23977 0.09349 0.0
O8 O 0.15828 0.27118 0.1356 0.0
O9 O 0.1756 0.26552 0.11218 0.0
C10 C 0.16855 0.23201 0.17646 0.0
O11 O 0.14468 0.25277 0.21384 0.0
O12 O 0.13111 0.22874 0.1913 0.0
In13 In 0.75001 0.91415 0.11722 0.0
O14 O 0.74282 0.89763 0.18489 0.0
O15 O 0.7672 0.91049 0.16602 0.0
C16 C 0.71895 0.90035 0.0951 0.0
C17 C 0.76234 0.94343 0.15602 0.0
C18 C 0.76129 0.91079 0.02773 0.0
O19 O 0.72595 0.89262 0.10201 0.0
O20 O 0.72763 0.91511 0.09917 0.0
O21 O 0.75661 0.92057 0.03402 0.0
O22 O 0.76059 0.90304 0.06677 0.0
C23 C 0.75666 0.90074 0.19546 0.0
O24 O 0.76858 0.94036 0.11913 0.0
O25 O 0.74975 0.93183 0.17227 0.0
In26 In 0.08562 0.83811 0.15708 0.0
O27 O 0.06087 0.83499 0.1581 0.0
O28 O 0.06451 0.81808 0.19708 0.0
C29 C 0.0962 0.85627 0.07325 0.0
C30 C 0.09801 0.8556 0.24135 0.0
C31 C 0.09483 0.81725 0.13141 0.0
O32 O 0.08193 0.84577 0.07896 0.0
O33 O 0.10501 0.85786 0.11035 0.0
O34 O 0.1019 0.82793 0.16402 0.0
O35 O 0.08292 0.81694 0.11168 0.0
C36 C 0.05501 0.8227 0.18507 0.0
O37 O 0.09796 0.8429 0.23294 0.0
O38 O 0.09187 0.8597 0.20678 0.0
In39 In 0.24117 0.16248 0.3339 0.0
O40 O 0.22596 0.14777 0.26742 0.0
O41 O 0.24702 0.1473 0.28311 0.0
C42 C 0.27224 0.18287 0.34959 0.0
C43 C 0.22713 0.17911 0.30761 0.0
C44 C 0.23122 0.14521 0.41993 0.0
O45 O 0.26688 0.17594 0.30794 0.0
O46 O 0.26189 0.17986 0.38296 0.0
O47 O 0.23508 0.14053 0.38084 0.0
O48 O 0.23198 0.15839 0.41514 0.0
C49 C 0.23512 0.14276 0.25484 0.0
O50 O 0.22016 0.16644 0.3326 0.0
O51 O 0.24128 0.18352 0.29635 0.0
In52 In 0.83388 0.07715 0.37627 0.0
O53 O 0.8429 0.09431 0.31061 0.0
O54 O 0.854 0.08067 0.32354 0.0
C55 C 0.81428 0.088 0.40131 0.0
C56 C 0.81696 0.04814 0.33561 0.0
C57 C 0.85032 0.08337 0.46374 0.0
O58 O 0.82694 0.09605 0.37701 0.0
O59 O 0.8114 0.07431 0.41324 0.0
O60 O 0.8376 0.07061 0.45644 0.0
O61 O 0.85491 0.09266 0.42649 0.0
C62 C 0.8532 0.09095 0.29671 0.0
O63 O 0.82809 0.05161 0.36651 0.0
O64 O 0.81425 0.05919 0.32619 0.0
In65 In 0.91393 0.75874 0.35253 0.0
O66 O 0.89344 0.75259 0.29935 0.0
O67 O 0.91311 0.77585 0.29504 0.0
C68 C 0.90389 0.7279 0.36949 0.0
C69 C 0.94397 0.77155 0.31979 0.0
C70 C 0.9067 0.76797 0.44002 0.0
O71 O 0.90159 0.73294 0.32828 0.0
O72 O 0.91155 0.73846 0.40198 0.0
O73 O 0.91994 0.76907 0.43239 0.0
O74 O 0.89729 0.7626 0.40308 0.0
C75 C 0.89973 0.76587 0.27782 0.0
O76 O 0.93967 0.77847 0.35081 0.0
O77 O 0.93317 0.75813 0.30582 0.0
In78 In 0.83844 0.75836 0.85289 0.0
O79 O 0.83324 0.77863 0.84909 0.0
O80 O 0.81872 0.75802 0.80606 0.0
C81 C 0.85511 0.76763 0.93993 0.0
C82 C 0.85962 0.76495 0.77802 0.0
C83 C 0.81716 0.72774 0.87153 0.0
O84 O 0.84326 0.76921 0.93206 0.0
O85 O 0.85871 0.76168 0.90352 0.0
O86 O 0.8245 0.73244 0.83015 0.0
O87 O 0.82029 0.73854 0.90334 0.0
C88 C 0.82191 0.77175 0.81841 0.0
O89 O 0.85208 0.75156 0.79865 0.0
O90 O 0.85683 0.77524 0.7962 0.0
In91 In 0.24672 0.08907 0.83093 0.0
O92 O 0.25282 0.10788 0.77095 0.0
O93 O 0.22882 0.08984 0.77653 0.0
C94 C 0.27712 0.09776 0.85003 0.0
C95 C 0.23402 0.05866 0.80232 0.0
C96 C 0.23846 0.09846 0.91608 0.0
O97 O 0.27266 0.1009 0.80905 0.0
O98 O 0.26619 0.09 0.88137 0.0
O99 O 0.2341 0.08419 0.90719 0.0
O100 O 0.24671 0.10793 0.88157 0.0
C101 C 0.23899 0.1021 0.75388 0.0
O102 O 0.22761 0.06312 0.83479 0.0
O103 O 0.24683 0.06951 0.78452 0.0
In104 In 0.90771 0.15315 0.87483 0.0
O105 O 0.93365 0.15979 0.86984 0.0
O106 O 0.92643 0.17389 0.8296 0.0
C107 C 0.90137 0.13639 0.9614 0.0
C108 C 0.89367 0.13183 0.8 0.0
C109 C 0.89659 0.17292 0.89483 0.0
O110 O 0.91408 0.14923 0.95465 0.0
O111 O 0.89206 0.13189 0.92411 0.0
O112 O 0.89508 0.16649 0.85221 0.0
O113 O 0.90387 0.16952 0.92733 0.0
C114 C 0.93751 0.17138 0.84066 0.0
O115 O 0.88741 0.13899 0.82058 0.0
O116 O 0.90693 0.13513 0.81802 0.0
In117 In 0.75702 0.84362 0.61625 0.0
O118 O 0.74798 0.85083 0.68408 0.0
O119 O 0.77243 0.86484 0.66703 0.0
C120 C 0.72632 0.82537 0.59149 0.0
C121 C 0.77025 0.82749 0.65533 0.0
C122 C 0.76757 0.85873 0.52695 0.0
O123 O 0.73225 0.83957 0.60512 0.0
O124 O 0.73592 0.82031 0.59008 0.0
O125 O 0.764 0.84454 0.53325 0.0
O126 O 0.76636 0.86541 0.56616 0.0
C127 C 0.76115 0.86251 0.69583 0.0
O128 O 0.77712 0.83813 0.62233 0.0
O129 O 0.75673 0.82491 0.66783 0.0
In130 In 0.16446 0.91534 0.65621 0.0
O131 O 0.16978 0.94072 0.65186 0.0
O132 O 0.18423 0.93575 0.69986 0.0
C133 C 0.1484 0.90875 0.56749 0.0
C134 C 0.14554 0.90277 0.73772 0.0
C135 C 0.1836 0.90298 0.64507 0.0
O136 O 0.14156 0.90413 0.60962 0.0
O137 O 0.16319 0.91687 0.57031 0.0
O138 O 0.17073 0.89611 0.66892 0.0
O139 O 0.18707 0.91634 0.62756 0.0
C140 C 0.18117 0.94597 0.68263 0.0
O141 O 0.15007 0.91663 0.72251 0.0
O142 O 0.15027 0.89522 0.7112 0.0
In143 In 0.07436 0.24085 0.64065 0.0
O144 O 0.04842 0.22159 0.64252 0.0
O145 O 0.05583 0.24122 0.69179 0.0
C146 C 0.07888 0.23028 0.5512 0.0
C147 C 0.08818 0.23576 0.72108 0.0
C148 C 0.08832 0.27191 0.61929 0.0
O149 O 0.06956 0.23559 0.55622 0.0
O150 O 0.08547 0.22979 0.59166 0.0
O151 O 0.09591 0.26508 0.63104 0.0
O152 O 0.07351 0.26304 0.61808 0.0
C153 C 0.04468 0.22814 0.67673 0.0
O154 O 0.07793 0.22454 0.69467 0.0
O155 O 0.09144 0.24932 0.70649 0.0
In156 In 0.82576 0.58144 0.47711 0.0
O157 O 0.81918 0.58984 0.54815 0.0
O158 O 0.80505 0.56558 0.5289 0.0
C159 C 0.84386 0.61223 0.45319 0.0
C160 C 0.84217 0.56786 0.51058 0.0
C161 C 0.80975 0.57117 0.38913 0.0
O162 O 0.82975 0.60628 0.46788 0.0
O163 O 0.8489 0.60263 0.45044 0.0
O164 O 0.82395 0.57458 0.39368 0.0
O165 O 0.80354 0.57252 0.42927 0.0
C166 C 0.80761 0.57653 0.55947 0.0
O167 O 0.83104 0.5612 0.47907 0.0
O168 O 0.8451 0.58138 0.52451 0.0
In169 In 0.41801 0.24506 0.46239 0.0
O170 O 0.4379 0.27071 0.46517 0.0
O171 O 0.41812 0.26379 0.51352 0.0
C172 C 0.42832 0.23903 0.37498 0.0
C173 C 0.4241 0.23198 0.54274 0.0
C174 C 0.3874 0.23368 0.43758 0.0
O175 O 0.42701 0.25112 0.38095 0.0
O176 O 0.42472 0.23021 0.41333 0.0
O177 O 0.39249 0.22518 0.45609 0.0
O178 O 0.39776 0.24798 0.43162 0.0
C179 C 0.43142 0.27469 0.49892 0.0
O180 O 0.41053 0.22984 0.53313 0.0
O181 O 0.43467 0.24064 0.51139 0.0
In182 In 0.75216 0.16992 0.49615 0.0
O183 O 0.77164 0.18256 0.55416 0.0
O184 O 0.75718 0.19249 0.53807 0.0
C185 C 0.75734 0.14544 0.48998 0.0
C186 C 0.72195 0.15493 0.52851 0.0
C187 C 0.76271 0.18456 0.40598 0.0
O188 O 0.76383 0.15622 0.52275 0.0
O189 O 0.74784 0.14679 0.46073 0.0
O190 O 0.75133 0.18443 0.42894 0.0
O191 O 0.76874 0.17754 0.4287 0.0
C192 C 0.76842 0.19326 0.56371 0.0
O193 O 0.72569 0.16022 0.48397 0.0
O194 O 0.73337 0.15708 0.55602 0.0
In195 In 0.91149 0.49686 0.68437 0.0
O196 O 0.89216 0.50339 0.68748 0.0
O197 O 0.91118 0.51595 0.63612 0.0
C198 C 0.90334 0.48343 0.77743 0.0
C199 C 0.90301 0.47495 0.61102 0.0
C200 C 0.94324 0.51545 0.68688 0.0
O201 O 0.89906 0.47542 0.73723 0.0
O202 O 0.91133 0.49809 0.77056 0.0
O203 O 0.93636 0.50335 0.65928 0.0
O204 O 0.93411 0.51836 0.71245 0.0
C205 C 0.89831 0.51391 0.65376 0.0
O206 O 0.89533 0.48189 0.62031 0.0
O207 O 0.91468 0.47872 0.63984 0.0
In208 In 0.50239 0.41368 0.68372 0.0
O209 O 0.5092 0.42815 0.61162 0.0
O210 O 0.5233 0.4182 0.63333 0.0
C211 C 0.48497 0.4273 0.70515 0.0
C212 C 0.4857 0.38359 0.65115 0.0
C213 C 0.51803 0.41939 0.77241 0.0
O214 O 0.4991 0.435 0.69033 0.0
O215 O 0.47954 0.41263 0.70942 0.0
O216 O 0.50378 0.40877 0.76757 0.0
O217 O 0.52446 0.42681 0.73224 0.0
C218 C 0.52083 0.42639 0.6016 0.0
O219 O 0.4968 0.38805 0.68278 0.0
O220 O 0.4829 0.39424 0.63678 0.0
In221 In 0.58226 0.08996 0.70874 0.0
O222 O 0.56639 0.08109 0.63961 0.0
O223 O 0.57722 0.10558 0.65655 0.0
C224 C 0.57207 0.0597 0.73466 0.0
C225 C 0.61187 0.10382 0.67164 0.0
C226 C 0.57535 0.09951 0.79634 0.0
O227 O 0.56344 0.06401 0.71235 0.0
O228 O 0.58592 0.07067 0.74379 0.0
O229 O 0.58786 0.09897 0.79036 0.0
O230 O 0.56664 0.09574 0.75771 0.0
C231 C 0.56831 0.09441 0.62737 0.0
O232 O 0.60715 0.11106 0.6998 0.0
O233 O 0.60173 0.08962 0.66292 0.0
In234 In 0.50455 0.08829 0.20837 0.0
O235 O 0.49921 0.10847 0.20271 0.0
O236 O 0.48633 0.08842 0.15545 0.0
C237 C 0.52094 0.09828 0.29599 0.0
C238 C 0.52378 0.09341 0.1289 0.0
C239 C 0.48428 0.05796 0.23342 0.0
O240 O 0.50745 0.0968 0.29051 0.0
O241 O 0.52629 0.09519 0.25693 0.0
O242 O 0.49757 0.06239 0.21347 0.0
O243 O 0.48113 0.06884 0.24056 0.0
C244 C 0.48889 0.10189 0.16858 0.0
O245 O 0.51304 0.0798 0.14192 0.0
O246 O 0.525 0.10451 0.15653 0.0
In247 In 0.90915 0.41874 0.18672 0.0
O248 O 0.9155 0.42807 0.10668 0.0
O249 O 0.89853 0.4318 0.14547 0.0
C250 C 0.93983 0.4274 0.19987 0.0
C251 C 0.89087 0.38821 0.15932 0.0
C252 C 0.90194 0.42823 0.27376 0.0
O253 O 0.93494 0.43184 0.16272 0.0
O254 O 0.92919 0.41835 0.23037 0.0
O255 O 0.89564 0.41387 0.26153 0.0
O256 O 0.91152 0.43771 0.24159 0.0
C257 C 0.9063 0.43361 0.10526 0.0
O258 O 0.88676 0.3984 0.15315 0.0
O259 O 0.90404 0.39326 0.18072 0.0
In260 In 0.57861 0.48936 0.1847 0.0
O261 O 0.60442 0.49546 0.18363 0.0
O262 O 0.59757 0.50831 0.1351 0.0
C263 C 0.57343 0.47352 0.27288 0.0
C264 C 0.5651 0.47088 0.10316 0.0
C265 C 0.56584 0.50744 0.20804 0.0
O266 O 0.58366 0.48793 0.2684 0.0
O267 O 0.56615 0.46704 0.23258 0.0
O268 O 0.55764 0.49307 0.19613 0.0
O269 O 0.58054 0.51271 0.20846 0.0
C270 C 0.6085 0.50609 0.15043 0.0
O271 O 0.56274 0.48197 0.11562 0.0
O272 O 0.57428 0.46897 0.13217 0.0
In273 In 0.4232 0.17214 0.96111 0.0
O274 O 0.41433 0.18007 0.0277 0.0
O275 O 0.43909 0.19245 0.0143 0.0
C276 C 0.39235 0.15414 0.93807 0.0
C277 C 0.43631 0.15572 -0.00135 0.0
C278 C 0.43361 0.18746 0.87195 0.0
O279 O 0.39853 0.16838 0.95148 0.0
O280 O 0.40178 0.14886 0.93613 0.0
O281 O 0.42941 0.17308 0.87727 0.0
O282 O 0.43311 0.19422 0.91201 0.0
C283 C 0.42777 0.1909 0.0415 0.0
O284 O 0.44312 0.16638 0.96566 0.0
O285 O 0.42285 0.1532 0.01172 0.0
In286 In 0.82452 0.24891 0.98413 0.0
O287 O 0.82188 0.26936 0.01322 0.0
O288 O 0.84477 0.2742 0.99062 0.0
C289 C 0.81042 0.24565 0.89336 0.0
C290 C 0.80993 0.23595 0.07214 0.0
C291 C 0.84122 0.23402 0.96979 0.0
O292 O 0.82491 0.25506 0.90047 0.0
O293 O 0.80296 0.23826 0.93239 0.0
O294 O 0.82637 0.22684 0.97231 0.0
O295 O 0.84774 0.24879 0.97478 0.0
C296 C 0.83635 0.27942 0.0089 0.0
O297 O 0.82468 0.24498 0.0689 0.0
O298 O 0.80251 0.23333 0.0308 0.0
In299 In 0.74907 0.58125 0.97797 0.0
O300 O 0.72377 0.56061 0.97592 0.0
O301 O 0.72902 0.57952 0.02639 0.0
C302 C 0.75529 0.57187 0.88907 0.0
C303 C 0.76246 0.57617 0.05966 0.0
C304 C 0.76137 0.61222 0.95716 0.0
O305 O 0.76236 0.57243 0.92964 0.0
O306 O 0.7448 0.57569 0.89357 0.0
O307 O 0.76971 0.6062 0.96906 0.0
O308 O 0.74671 0.60259 0.95576 0.0
C309 C 0.7188 0.56623 0.0095 0.0
O310 O 0.76403 0.58946 0.04915 0.0
O311 O 0.75416 0.56533 0.02864 0.0
In312 In 0.49745 0.91511 0.83412 0.0
O313 O 0.49401 0.89069 0.84862 0.0
O314 O 0.51742 0.90949 0.83614 0.0
C315 C 0.48114 0.91094 0.74741 0.0
C316 C 0.48025 0.9105 0.91882 0.0
C317 C 0.52069 0.94547 0.82747 0.0
O318 O 0.48474 0.90093 0.76283 0.0
O319 O 0.48539 0.92263 0.7762 0.0
O320 O 0.51073 0.94041 0.86303 0.0
O321 O 0.5193 0.93507 0.79628 0.0
C322 C 0.50852 0.89509 0.84665 0.0
O323 O 0.49438 0.91351 0.91957 0.0
O324 O 0.47475 0.91 0.87517 0.0
In325 In 0.08938 0.57689 0.79023 0.0
O326 O 0.10948 0.60238 0.79782 0.0
O327 O 0.08795 0.5958 0.83602 0.0
C328 C 0.09999 0.57014 0.70476 0.0
C329 C 0.09433 0.56362 0.87237 0.0
C330 C 0.05902 0.56534 0.76253 0.0
O331 O 0.09929 0.58259 0.70978 0.0
O332 O 0.09575 0.56135 0.74327 0.0
O333 O 0.06356 0.55769 0.7893 0.0
O334 O 0.06982 0.5789 0.74948 0.0
C335 C 0.10186 0.60652 0.82641 0.0
O336 O 0.08094 0.56154 0.86031 0.0
O337 O 0.10539 0.5724 0.84258 0.0
In338 In 0.41898 0.50814 0.79956 0.0
O339 O 0.43918 0.52245 0.8536 0.0
O340 O 0.42009 0.52698 0.85362 0.0
C341 C 0.42849 0.48692 0.78283 0.0
C342 C 0.38927 0.49087 0.83508 0.0
C343 C 0.42641 0.52451 0.71191 0.0
O344 O 0.43164 0.49496 0.82286 0.0
O345 O 0.42029 0.48939 0.75121 0.0
O346 O 0.4127 0.51326 0.72106 0.0
O347 O 0.43621 0.52763 0.74726 0.0
C348 C 0.43319 0.53008 0.87251 0.0
O349 O 0.39299 0.50131 0.80142 0.0
O350 O 0.40048 0.48903 0.85016 0.0
In351 In 0.57089 0.81809 0.02599 0.0
O352 O 0.55419 0.82038 0.97133 0.0
O353 O 0.56417 0.83745 0.02969 0.0
C354 C 0.5597 0.80109 0.11201 0.0
C355 C 0.56871 0.79778 0.95357 0.0
C356 C 0.6016 0.84007 0.03974 0.0
O357 O 0.55672 0.81182 0.1001 0.0
O358 O 0.56781 0.7987 0.07988 0.0
O359 O 0.59494 0.83739 0.99707 0.0
O360 O 0.59271 0.83188 0.07543 0.0
C361 C 0.55539 0.83261 0.99115 0.0
O362 O 0.58174 0.80924 0.96788 0.0
O363 O 0.55676 0.79628 0.97698 0.0
In364 In 0.16728 0.74451 0.0183 0.0
O365 O 0.17928 0.76318 0.95765 0.0
O366 O 0.1866 0.74613 0.96562 0.0
C367 C 0.14791 0.75647 0.02995 0.0
C368 C 0.15131 0.7147 0.98304 0.0
C369 C 0.18167 0.75089 0.10982 0.0
O370 O 0.16159 0.76427 0.01143 0.0
O371 O 0.14385 0.74247 0.04214 0.0
O372 O 0.16711 0.74155 0.10417 0.0
O373 O 0.18909 0.75665 0.06918 0.0
C374 C 0.18808 0.75805 0.94211 0.0
O375 O 0.16084 0.71865 0.01968 0.0
O376 O 0.14965 0.72571 0.96494 0.0
In377 In 0.2503 0.42243 0.01929 0.0
O378 O 0.24994 0.43864 0.95747 0.0
O379 O 0.22923 0.41644 0.96883 0.0
C380 C 0.23906 0.39129 0.03482 0.0
C381 C 0.28049 0.43535 0.98799 0.0
C382 C 0.24385 0.43229 0.10694 0.0
O383 O 0.23764 0.39679 0.99323 0.0
O384 O 0.24657 0.40155 0.0683 0.0
O385 O 0.25632 0.43172 0.10036 0.0
O386 O 0.23488 0.42832 0.06887 0.0
C387 C 0.23602 0.42905 0.94352 0.0
O388 O 0.27569 0.44273 0.01508 0.0
O389 O 0.27012 0.42137 0.97744 0.0
In390 In 0.17303 0.41783 0.51728 0.0
O391 O 0.16667 0.43732 0.51404 0.0
O392 O 0.15364 0.41707 0.46783 0.0
C393 C 0.18967 0.42666 0.60441 0.0
C394 C 0.19458 0.42531 0.44303 0.0
C395 C 0.1513 0.38743 0.53622 0.0
O396 O 0.17892 0.42982 0.59481 0.0
O397 O 0.19217 0.4193 0.56974 0.0
O398 O 0.1595 0.39179 0.49637 0.0
O399 O 0.15395 0.39845 0.56661 0.0
C400 C 0.15588 0.43037 0.48158 0.0
O401 O 0.18648 0.41154 0.46066 0.0
O402 O 0.19213 0.4355 0.46384 0.0
In403 In 0.57792 0.74957 0.51967 0.0
O404 O 0.58114 0.76988 0.46961 0.0
O405 O 0.5588 0.74885 0.46807 0.0
C406 C 0.60945 0.76201 0.52877 0.0
C407 C 0.56645 0.71995 0.4847 0.0
C408 C 0.56941 0.75476 0.61168 0.0
O409 O 0.6031 0.76362 0.48938 0.0
O410 O 0.59989 0.75395 0.56329 0.0
O411 O 0.57013 0.74254 0.60153 0.0
O412 O 0.57265 0.76419 0.57509 0.0
C413 C 0.56745 0.7626 0.45087 0.0
O414 O 0.55943 0.72343 0.51794 0.0
O415 O 0.57936 0.73137 0.46967 0.0
In416 In 0.24533 0.81991 0.52293 0.0
O417 O 0.23423 0.81734 0.44544 0.0
O418 O 0.23451 0.79734 0.47629 0.0
C419 C 0.23527 0.84025 0.54698 0.0
C420 C 0.27546 0.83396 0.4895 0.0
C421 C 0.23748 0.80225 0.6081 0.0
O422 O 0.22889 0.82992 0.51286 0.0
O423 O 0.24685 0.84044 0.56875 0.0
O424 O 0.25152 0.81267 0.59835 0.0
O425 O 0.22762 0.80057 0.57453 0.0
C426 C 0.23074 0.80313 0.43972 0.0
O427 O 0.26641 0.81924 0.48868 0.0
O428 O 0.2695 0.84162 0.50841 0.0
In429 In 0.08735 0.50003 0.29144 0.0
O430 O 0.07991 0.50829 0.36082 0.0
O431 O 0.10442 0.51998 0.34369 0.0
C432 C 0.05621 0.48255 0.27141 0.0
C433 C 0.10021 0.48293 0.32482 0.0
C434 C 0.09755 0.5158 0.20292 0.0
O435 O 0.0627 0.49667 0.28636 0.0
O436 O 0.06546 0.47716 0.26622 0.0
O437 O 0.09347 0.50142 0.20739 0.0
O438 O 0.09684 0.52228 0.24332 0.0
C439 C 0.09368 0.51878 0.37305 0.0
O440 O 0.10678 0.49359 0.29173 0.0
O441 O 0.08705 0.48072 0.34018 0.0
In442 In 0.49272 0.58198 0.29693 0.0
O443 O 0.4993 0.60783 0.3008 0.0
O444 O 0.51408 0.60103 0.33902 0.0
C445 C 0.47633 0.57626 0.20981 0.0
C446 C 0.47146 0.56841 0.37229 0.0
C447 C 0.51198 0.57004 0.28065 0.0
O448 O 0.48921 0.58885 0.21735 0.0
O449 O 0.47161 0.56674 0.24656 0.0
O450 O 0.50566 0.56929 0.32296 0.0
O451 O 0.50881 0.57707 0.24657 0.0
C452 C 0.51133 0.61197 0.32809 0.0
O453 O 0.47717 0.56129 0.34819 0.0
O454 O 0.47614 0.58232 0.35744 0.0
In455 In 0.41594 0.91384 0.33362 0.0
O456 O 0.38987 0.90663 0.32853 0.0
O457 O 0.39569 0.88973 0.35586 0.0
C458 C 0.42846 0.90957 0.24799 0.0
C459 C 0.42938 0.91054 0.41833 0.0
C460 C 0.42192 0.94387 0.32688 0.0
O461 O 0.41519 0.89914 0.26456 0.0
O462 O 0.43541 0.92171 0.27522 0.0
O463 O 0.42681 0.93904 0.36309 0.0
O464 O 0.41344 0.93337 0.29515 0.0
C465 C 0.38502 0.893 0.34644 0.0
O466 O 0.41791 0.91303 0.4191 0.0
O467 O 0.4343 0.90992 0.37462 0.0
C468 C 0.22649 0.20025 0.25648 0.0
C469 C 0.21908 0.18766 0.29071 0.0
C470 C 0.21861 0.20789 0.23792 0.0
C471 C 0.20304 0.20287 0.25439 0.0
C472 C 0.19563 0.19038 0.28977 0.0
C473 C 0.20373 0.18287 0.30736 0.0
C474 C 0.22684 0.22112 0.20002 0.0
C475 C 0.17907 0.18483 0.30855 0.0
C476 C 0.18703 0.23083 0.23902 0.0
C477 C 0.17748 0.22465 0.19594 0.0
C478 C 0.19544 0.22386 0.25849 0.0
C479 C 0.19436 0.21049 0.23395 0.0
C480 C 0.18484 0.20429 0.19016 0.0
C481 C 0.17645 0.21141 0.17179 0.0
C482 C 0.20536 0.23071 0.30552 0.0
C483 C 0.18352 0.19011 0.1628 0.0
H484 H 0.23835 0.20395 0.24344 0.0
H485 H 0.19798 0.17316 0.33394 0.0
H486 H 0.22008 0.21793 0.16402 0.0
H487 H 0.2273 0.23199 0.21444 0.0
H488 H 0.23908 0.22378 0.1918 0.0
H489 H 0.17521 0.17532 0.33736 0.0
H490 H 0.17837 0.19484 0.32541 0.0
H491 H 0.17067 0.18033 0.27631 0.0
H492 H 0.18783 0.24105 0.25787 0.0
H493 H 0.16911 0.20664 0.13838 0.0
H494 H 0.21783 0.23423 0.29742 0.0
H495 H 0.20117 0.22165 0.33587 0.0
H496 H 0.20497 0.24118 0.31996 0.0
H497 H 0.1954 0.1925 0.15098 0.0
H498 H 0.17586 0.18694 0.12869 0.0
H499 H 0.17859 0.17979 0.18866 0.0
C500 C 0.81154 0.0206 0.32221 0.0
C501 C 0.80826 0.03263 0.31046 0.0
C502 C 0.80378 0.00605 0.29692 0.0
C503 C 0.79255 0.00355 0.25892 0.0
C504 C 0.78908 0.01561 0.24723 0.0
C505 C 0.79696 0.03001 0.27326 0.0
C506 C 0.8077 0.99339 0.31056 0.0
C507 C 0.77718 0.01336 0.20687 0.0
C508 C 0.78373 0.97162 0.16165 0.0
C509 C 0.76962 0.95908 0.18045 0.0
C510 C 0.79123 0.98626 0.18648 0.0
C511 C 0.78446 0.98832 0.23121 0.0
C512 C 0.77009 0.97576 0.24989 0.0
C513 C 0.76281 0.96128 0.22419 0.0
C514 C 0.80651 -0.00055 0.16532 0.0
C515 C 0.76253 0.97753 0.2975 0.0
H516 H 0.82027 0.02259 0.35096 0.0
H517 H 0.7944 0.0393 0.26398 0.0
H518 H 0.79684 0.9825 0.32251 0.0
H519 H 0.81243 0.99035 0.27687 0.0
H520 H 0.81653 0.99712 0.3416 0.0
H521 H 0.77573 0.02387 0.20271 0.0
H522 H 0.78092 0.01094 0.16985 0.0
H523 H 0.76553 0.00299 0.21612 0.0
H524 H 0.78902 0.96995 0.12783 0.0
H525 H 0.75191 0.9516 0.23891 0.0
H526 H 0.81614 0.00285 0.19334 0.0
H527 H 0.80541 0.01004 0.15823 0.0
H528 H 0.80997 0.99608 0.12939 0.0
H529 H 0.77064 0.98019 0.33011 0.0
H530 H 0.75115 0.96671 0.30636 0.0
H531 H 0.76037 0.98758 0.29351 0.0
C532 C 0.96366 0.77181 0.25926 0.0
C533 C 0.96023 0.77874 0.30015 0.0
C534 C 0.97897 0.77872 0.2392 0.0
C535 C 0.99113 0.79278 0.26103 0.0
C536 C 0.98776 0.79975 0.30266 0.0
C537 C 0.9723 0.79268 0.32156 0.0
C538 C 0.9821 0.77105 0.19446 0.0
C539 C 0.00048 0.81465 0.32726 0.0
C540 C 0.03353 0.80294 0.24024 0.0
C541 C 0.03852 0.81469 0.203 0.0
C542 C 0.01811 0.79568 0.25945 0.0
C543 C 0.00741 0.80019 0.24045 0.0
C544 C 0.0123 0.81186 0.20221 0.0
C545 C 0.02786 0.81906 0.18413 0.0
C546 C 0.01335 0.78338 0.30057 0.0
C547 C 0.00113 0.81681 0.18065 0.0
H548 H 0.95433 0.76106 0.24247 0.0
H549 H 0.96968 0.79805 0.35326 0.0
H550 H 0.98684 0.77949 0.16235 0.0
H551 H 0.99118 0.76788 0.20452 0.0
H552 H 0.9713 0.76022 0.18159 0.0
H553 H 0.99595 0.81844 0.35978 0.0
H554 H 0.01017 0.8128 0.3409 0.0
H555 H 0.00565 0.82437 0.29908 0.0
H556 H 0.04177 0.79958 0.25507 0.0
H557 H 0.03168 0.82813 0.15524 0.0
H558 H 0.00307 0.77209 0.28797 0.0
H559 H 0.00965 0.78723 0.33493 0.0
H560 H 0.02308 0.78118 0.31105 0.0
H561 H 0.99046 0.80638 0.16524 0.0
H562 H 0.00665 0.82573 0.15004 0.0
H563 H 0.99715 0.82184 0.2111 0.0
C564 C 0.80282 0.7722 0.75676 0.0
C565 C 0.81365 0.77949 0.79633 0.0
C566 C 0.79554 0.77978 0.73335 0.0
C567 C 0.7991 0.79493 0.75029 0.0
C568 C 0.80981 0.80223 0.79082 0.0
C569 C 0.81702 0.79444 0.81325 0.0
C570 C 0.78423 0.77168 0.69006 0.0
C571 C 0.81375 0.81832 0.8102 0.0
C572 C 0.79203 0.82123 0.66111 0.0
C573 C 0.77754 0.81898 0.67875 0.0
C574 C 0.79915 0.81339 0.68387 0.0
C575 C 0.79163 0.80318 0.72544 0.0
C576 C 0.77699 0.80087 0.74336 0.0
C577 C 0.77008 0.80875 0.71963 0.0
C578 C 0.81472 0.81602 0.66352 0.0
C579 C 0.76868 0.79016 0.78782 0.0
H580 H 0.80023 0.76067 0.74344 0.0
H581 H 0.82538 0.80009 0.84388 0.0
H582 H 0.77252 0.77029 0.69907 0.0
H583 H 0.78861 0.77904 0.65538 0.0
H584 H 0.78267 0.75985 0.68169 0.0
H585 H 0.82205 0.8222 0.84279 0.0
H586 H 0.81915 0.82718 0.77942 0.0
H587 H 0.80281 0.81819 0.82214 0.0
H588 H 0.79781 0.82912 0.62947 0.0
H589 H 0.75889 0.80702 0.73351 0.0
H590 H 0.81358 0.80459 0.6519 0.0
H591 H 0.82385 0.82103 0.69363 0.0
H592 H 0.81891 0.82416 0.63048 0.0
H593 H 0.76621 0.77802 0.77949 0.0
H594 H 0.75737 0.78968 0.79714 0.0
H595 H 0.77642 0.79432 0.82173 0.0
C596 C 0.21328 0.03027 0.80916 0.0
C597 C 0.22692 0.0421 0.78557 0.0
C598 C 0.20622 0.01455 0.79279 0.0
C599 C 0.21292 0.01064 0.75165 0.0
C600 C 0.22677 0.02253 0.72795 0.0
C601 C 0.23364 0.03813 0.74534 0.0
C602 C 0.19149 0.00215 0.81915 0.0
C603 C 0.23419 0.01881 0.68379 0.0
C604 C 0.20166 0.96772 0.73562 0.0
C605 C 0.18978 0.96264 0.69879 0.0
C606 C 0.20943 0.98338 0.75288 0.0
C607 C 0.2052 0.99417 0.73268 0.0
C608 C 0.19339 0.98915 0.69491 0.0
C609 C 0.1858 0.97343 0.67845 0.0
C610 C 0.22198 0.98833 0.79323 0.0
C611 C 0.18862 0.00035 0.67235 0.0
H612 H 0.20808 0.03329 0.84038 0.0
H613 H 0.24419 0.04727 0.72695 0.0
H614 H 0.18154 0.99678 0.79185 0.0
H615 H 0.19336 0.99253 0.83344 0.0
H616 H 0.18804 0.00705 0.85147 0.0
H617 H 0.24513 0.02936 0.67024 0.0
H618 H 0.23708 0.00959 0.69476 0.0
H619 H 0.22568 0.01401 0.65187 0.0
H620 H 0.20477 0.95941 0.75145 0.0
H621 H 0.17663 0.96955 0.64992 0.0
H622 H 0.21841 0.99235 0.82749 0.0
H623 H 0.23324 0.99845 0.77962 0.0
H624 H 0.22412 0.9786 0.8042 0.0
H625 H 0.18389 0.00476 0.70247 0.0
H626 H 0.17951 0.99469 0.64235 0.0
H627 H 0.19908 0.01076 0.65584 0.0
C628 C 0.02596 0.22745 0.7422 0.0
C629 C 0.02878 0.2207 0.69946 0.0
C630 C 0.01118 0.22003 0.7662 0.0
C631 C -0.00106 0.20559 0.74668 0.0
C632 C 0.00163 0.19889 0.7029 0.0
C633 C 0.01655 0.20651 0.6799 0.0
C634 C 0.00876 0.22748 0.81295 0.0
C635 C 0.98879 0.18358 0.68078 0.0
C636 C 0.96554 0.17774 0.83311 0.0
C637 C 0.95347 0.18072 0.81882 0.0
C638 C 0.9805 0.18596 0.8105 0.0
C639 C 0.98339 0.19733 0.77253 0.0
C640 C 0.97132 0.20055 0.75853 0.0
C641 C 0.9565 0.19223 0.78199 0.0
C642 C 0.99315 0.18231 0.82667 0.0
C643 C 0.97396 0.21256 0.71807 0.0
H644 H 0.0354 0.2384 0.75754 0.0
H645 H 0.01869 0.20128 0.64681 0.0
H646 H -0.00133 0.2295 0.80728 0.0
H647 H 0.00581 0.21935 0.8457 0.0
H648 H 0.0194 0.23891 0.82263 0.0
H649 H 0.99264 0.18021 0.64565 0.0
H650 H 0.98514 0.17393 0.70891 0.0
H651 H 0.97823 0.18457 0.67196 0.0
H652 H 0.96324 0.16887 0.86163 0.0
H653 H 0.94719 0.19455 0.77077 0.0
H654 H 0.00384 0.19328 0.83923 0.0
H655 H 0.99665 0.17759 0.79403 0.0
H656 H 0.98918 0.17356 0.858 0.0
H657 H 0.98419 0.2242 0.72818 0.0
H658 H 0.96346 0.21396 0.71252 0.0
H659 H 0.97679 0.20892 0.68153 0.0
C660 C 0.84751 0.54543 0.51338 0.0
C661 C 0.85085 0.56032 0.53084 0.0
C662 C 0.85542 0.53801 0.53339 0.0
C663 C 0.86687 0.54566 0.57183 0.0
C664 C 0.87033 0.56072 0.58941 0.0
C665 C 0.8623 0.56789 0.56858 0.0
C666 C 0.85149 0.52196 0.51358 0.0
C667 C 0.88244 0.56919 0.63047 0.0
C668 C 0.87651 0.52016 0.65595 0.0
C669 C 0.89062 0.52254 0.63433 0.0
C670 C 0.86871 0.52775 0.63626 0.0
C671 C 0.87518 0.53786 0.59385 0.0
C672 C 0.88951 0.54042 0.57221 0.0
C673 C 0.89709 0.53275 0.59284 0.0
C674 C 0.8535 0.52483 0.66051 0.0
C675 C 0.89672 0.55109 0.52686 0.0
H676 H 0.83866 0.53955 0.48419 0.0
H677 H 0.86489 0.57939 0.58225 0.0
H678 H 0.8623 0.5224 0.49853 0.0
H679 H 0.84703 0.51323 0.54492 0.0
H680 H 0.84245 0.51773 0.48309 0.0
H681 H 0.8838 0.58089 0.63971 0.0
H682 H 0.87897 0.56191 0.66543 0.0
H683 H 0.89408 0.57093 0.61848 0.0
H684 H 0.87148 0.51228 0.68806 0.0
H685 H 0.90799 0.53459 0.57594 0.0
H686 H 0.84374 0.51944 0.63252 0.0
H687 H 0.85457 0.53619 0.67264 0.0
H688 H 0.85024 0.51691 0.69397 0.0
H689 H 0.88837 0.54659 0.49448 0.0
H690 H 0.90803 0.55197 0.51495 0.0
H691 H 0.89891 0.56311 0.53566 0.0
C692 C 0.45345 0.30263 0.50202 0.0
C693 C 0.43897 0.29069 0.52088 0.0
C694 C 0.46093 0.31777 0.5235 0.0
C695 C 0.45376 0.32097 0.56494 0.0
C696 C 0.43911 0.30897 0.58402 0.0
C697 C 0.43186 0.29397 0.56163 0.0
C698 C 0.47651 0.33033 0.50198 0.0
C699 C 0.43115 0.31195 0.62828 0.0
C700 C 0.48017 0.35576 0.64904 0.0
C701 C 0.47708 0.3674 0.63073 0.0
C702 C 0.4725 0.34051 0.62836 0.0
C703 C 0.4616 0.3369 0.58828 0.0
C704 C 0.45832 0.34856 0.57003 0.0
C705 C 0.46608 0.36367 0.59161 0.0
C706 C 0.47619 0.32831 0.64901 0.0
C707 C 0.44679 0.34514 0.52722 0.0
H708 H 0.45898 0.30013 0.47049 0.0
H709 H 0.42067 0.28475 0.57641 0.0
H710 H 0.47554 0.34064 0.48942 0.0
H711 H 0.48576 0.33456 0.5317 0.0
H712 H 0.48042 0.32597 0.4693 0.0
H713 H 0.41977 0.30134 0.63853 0.0
H714 H 0.43904 0.31567 0.66185 0.0
H715 H 0.4289 0.32172 0.61914 0.0
H716 H 0.48866 0.3586 0.67934 0.0
H717 H 0.46368 0.37265 0.57728 0.0
H718 H 0.48129 0.32438 0.61863 0.0
H719 H 0.46518 0.31775 0.66201 0.0
H720 H 0.48465 0.33289 0.68116 0.0
H721 H 0.45087 0.34173 0.49275 0.0
H722 H 0.4454 0.35546 0.51796 0.0
H723 H 0.43505 0.33504 0.53732 0.0
C724 C 0.70227 0.1407 0.59668 0.0
C725 C 0.7056 0.14716 0.54777 0.0
C726 C 0.68693 0.13361 0.6164 0.0
C727 C 0.67465 0.13306 0.58653 0.0
C728 C 0.67791 0.13951 0.53702 0.0
C729 C 0.69338 0.14646 0.51811 0.0
C730 C 0.68388 0.12676 0.66924 0.0
C731 C 0.66509 0.13917 0.50422 0.0
C732 C 0.6327 0.10239 0.62143 0.0
C733 C 0.62789 0.11137 0.64978 0.0
C734 C 0.64785 0.10934 0.60018 0.0
C735 C 0.65839 0.12567 0.60729 0.0
C736 C 0.65355 0.13483 0.63551 0.0
C737 C 0.63835 0.12755 0.65659 0.0
C738 C 0.65264 0.09919 0.57059 0.0
C739 C 0.66447 0.15229 0.64368 0.0
H740 H 0.71169 0.1412 0.61972 0.0
H741 H 0.69593 0.15149 0.48033 0.0
H742 H 0.67916 0.13271 0.69348 0.0
H743 H 0.67482 0.11404 0.66806 0.0
H744 H 0.69471 0.12802 0.68729 0.0
H745 H 0.66958 0.1447 0.46658 0.0
H746 H 0.65553 0.12679 0.4984 0.0
H747 H 0.65977 0.14547 0.52349 0.0
H748 H 0.62464 0.08988 0.61604 0.0
H749 H 0.63464 0.13453 0.6783 0.0
H750 H 0.66295 0.0994 0.58898 0.0
H751 H 0.65632 0.10396 0.53173 0.0
H752 H 0.64295 0.08673 0.56781 0.0
H753 H 0.67515 0.15426 0.66463 0.0
H754 H 0.65874 0.15782 0.66531 0.0
H755 H 0.66849 0.15839 0.60663 0.0
C756 C 0.47068 0.10223 0.1032 0.0
C757 C 0.48084 0.10953 0.14433 0.0
C758 C 0.46332 0.10952 0.0785 0.0
C759 C 0.46613 0.12441 0.09561 0.0
C760 C 0.47627 0.13179 0.1374 0.0
C761 C 0.48355 0.12426 0.16122 0.0
C762 C 0.45262 0.10133 0.03393 0.0
C763 C 0.47944 0.14763 0.15686 0.0
C764 C 0.45856 0.15017 0.00557 0.0
C765 C 0.44374 0.14734 0.02203 0.0
C766 C 0.46596 0.1427 0.02898 0.0
C767 C 0.45836 0.13224 0.06992 0.0
C768 C 0.44335 0.12925 0.08643 0.0
C769 C 0.4362 0.13681 0.06216 0.0
C770 C 0.48193 0.14606 0.01015 0.0
C771 C 0.43493 0.1182 0.13007 0.0
H772 H 0.46859 0.09086 0.0899 0.0
H773 H 0.4914 0.12993 0.19301 0.0
H774 H 0.4406 0.09931 0.04173 0.0
H775 H 0.45708 0.10895 -0.0002 0.0
H776 H 0.45173 0.0898 0.02527 0.0
H777 H 0.48753 0.1517 0.19 0.0
H778 H 0.48474 0.15661 0.12639 0.0
H779 H 0.46818 0.14696 0.16804 0.0
H780 H 0.46442 0.15831 0.97454 0.0
H781 H 0.42475 0.13461 0.07511 0.0
H782 H 0.4814 0.13489 -0.00134 0.0
H783 H 0.49075 0.15128 0.04108 0.0
H784 H 0.48611 0.1543 0.97737 0.0
H785 H 0.4331 0.10629 0.12164 0.0
H786 H 0.42327 0.11711 0.1381 0.0
H787 H 0.44229 0.12249 0.16478 0.0
C788 C 0.85794 0.30749 0.01092 0.0
C789 C 0.84315 0.29567 0.028 0.0
C790 C 0.86508 0.32271 0.03167 0.0
C791 C 0.85739 0.326 0.07133 0.0
C792 C 0.84235 0.31413 0.0883 0.0
C793 C 0.83531 0.29913 0.06591 0.0
C794 C 0.88095 0.33519 0.01174 0.0
C795 C 0.83396 0.31712 0.13121 0.0
C796 C 0.88415 0.36004 0.15732 0.0
C797 C 0.88156 0.37204 0.13944 0.0
C798 C 0.87598 0.34483 0.13646 0.0
C799 C 0.86531 0.34174 0.09595 0.0
C800 C 0.86258 0.3538 0.07806 0.0
C801 C 0.87061 0.36878 0.1005 0.0
C802 C 0.8789 0.33214 0.15729 0.0
C803 C 0.85155 0.35102 0.03423 0.0
H804 H 0.86396 0.3048 0.98145 0.0
H805 H 0.82392 0.28993 0.07947 0.0
H806 H 0.88046 0.34588 0.00055 0.0
H807 H 0.88998 0.33876 0.04197 0.0
H808 H 0.88483 0.33101 0.97854 0.0
H809 H 0.82218 0.30672 0.13918 0.0
H810 H 0.84122 0.32013 0.16613 0.0
H811 H 0.83242 0.32734 0.12221 0.0
H812 H 0.89259 0.36257 0.18759 0.0
H813 H 0.8687 0.3781 0.08636 0.0
H814 H 0.88439 0.32837 0.12771 0.0
H815 H 0.86755 0.3216 0.16806 0.0
H816 H 0.88678 0.3362 0.19095 0.0
H817 H 0.85588 0.3478 -9e-05 0.0
H818 H 0.85053 0.36158 0.02548 0.0
H819 H 0.83962 0.34099 0.04271 0.0
C820 C 0.63667 0.51259 0.14929 0.0
C821 C 0.62471 0.51508 0.13024 0.0
C822 C 0.65205 0.52095 0.12976 0.0
C823 C 0.65549 0.53198 0.09018 0.0
C824 C 0.64346 0.53455 0.07087 0.0
C825 C 0.62821 0.52608 0.09123 0.0
C826 C 0.66463 0.51797 0.15139 0.0
C827 C 0.64669 0.5462 0.02859 0.0
C828 C 0.69806 0.56388 0.06961 0.0
C829 C 0.70249 0.55768 0.02903 0.0
C830 C 0.68279 0.55563 0.08993 0.0
C831 C 0.67168 0.54087 0.06894 0.0
C832 C 0.67603 0.53462 0.02762 0.0
C833 C 0.69142 0.5431 0.0082 0.0
C834 C 0.67857 0.56264 0.13408 0.0
C835 C 0.66445 0.51895 0.00411 0.0
H836 H 0.634 0.5041 0.17947 0.0
H837 H 0.61899 0.52803 0.07633 0.0
H838 H 0.66949 0.51376 0.12108 0.0
H839 H 0.67455 0.52913 0.16639 0.0
H840 H 0.66004 0.50908 0.18235 0.0
H841 H 0.63602 0.5468 0.01784 0.0
H842 H 0.65608 0.55816 0.04022 0.0
H843 H 0.65106 0.54287 0.99464 0.0
H844 H 0.7066 0.57514 0.08591 0.0
H845 H 0.69481 0.53827 0.97682 0.0
H846 H 0.67488 0.55447 0.16694 0.0
H847 H 0.66842 0.56419 0.12391 0.0
H848 H 0.68857 0.57425 0.14592 0.0
H849 H 0.66037 0.50946 0.033 0.0
H850 H 0.66966 0.51582 0.97182 0.0
H851 H 0.65389 0.51927 0.99044 0.0
C852 C 0.50494 0.87044 0.88667 0.0
C853 C 0.51472 0.88467 0.8614 0.0
C854 C 0.51107 0.86136 0.90677 0.0
C855 C 0.52732 0.86653 0.9007 0.0
C856 C 0.53711 0.88054 0.87331 0.0
C857 C 0.53071 0.88953 0.8543 0.0
C858 C 0.50031 0.84655 0.93614 0.0
C859 C 0.55443 0.88626 0.86527 0.0
C860 C 0.54748 0.85324 0.99552 0.0
C861 C 0.54774 0.84095 0.9691 0.0
C862 C 0.54067 0.86153 0.97391 0.0
C863 C 0.53419 0.85757 0.92448 0.0
C864 C 0.53439 0.84514 0.89772 0.0
C865 C 0.54106 0.8369 0.92053 0.0
C866 C 0.54045 0.87458 0.00385 0.0
C867 C 0.52778 0.84072 0.84472 0.0
H868 H 0.49258 0.8667 0.89249 0.0
H869 H 0.53828 0.90051 0.83466 0.0
H870 H 0.50081 0.83632 0.9202 0.0
H871 H 0.50433 0.84792 0.97609 0.0
H872 H 0.48783 0.84383 0.93573 0.0
H873 H 0.56017 0.89681 0.8403 0.0
H874 H 0.56064 0.88931 0.9023 0.0
H875 H 0.55598 0.87675 0.84822 0.0
H876 H 0.55261 0.85636 0.03311 0.0
H877 H 0.54132 0.82745 0.89985 0.0
H878 H 0.52815 0.87221 0.00759 0.0
H879 H 0.54726 0.88597 0.98349 0.0
H880 H 0.54554 0.87587 0.04237 0.0
H881 H 0.51515 0.8374 0.8445 0.0
H882 H 0.52881 0.83073 0.82914 0.0
H883 H 0.5341 0.85103 0.81911 0.0
C884 C 0.12403 0.63427 0.83504 0.0
C885 C 0.10875 0.62249 0.84835 0.0
C886 C 0.13083 0.64935 0.85679 0.0
C887 C 0.12213 0.65264 0.89286 0.0
C888 C 0.10667 0.64081 0.90623 0.0
C889 C 0.10014 0.62587 0.88367 0.0
C890 C 0.14732 0.66174 0.84142 0.0
C891 C 0.09708 0.64388 0.94469 0.0
C892 C 0.14518 0.68667 0.98356 0.0
C893 C 0.14333 0.69866 0.96131 0.0
C894 C 0.1382 0.67157 0.96191 0.0
C895 C 0.12927 0.66846 0.91685 0.0
C896 C 0.12724 0.68047 0.89451 0.0
C897 C 0.13426 0.69544 0.91712 0.0
C898 C 0.14051 0.65898 0.98697 0.0
C899 C 0.11782 0.67759 0.84637 0.0
H900 H 0.13071 0.6317 0.8077 0.0
H901 H 0.08832 0.61677 0.89415 0.0
H902 H 0.14725 0.67229 0.82626 0.0
H903 H 0.1552 0.66562 0.87502 0.0
H904 H 0.15239 0.65736 0.81222 0.0
H905 H 0.08518 0.63342 0.95066 0.0
H906 H 0.10338 0.64723 0.98155 0.0
H907 H 0.09564 0.65392 0.93219 0.0
H908 H 0.15217 0.68912 0.01775 0.0
H909 H 0.13284 0.70469 0.89973 0.0
H910 H 0.14666 0.655 0.96061 0.0
H911 H 0.12889 0.64854 0.99598 0.0
H912 H 0.14751 0.66322 0.02247 0.0
H913 H 0.1232 0.67417 0.81541 0.0
H914 H 0.11724 0.68815 0.83414 0.0
H915 H 0.10562 0.66765 0.85185 0.0
C916 C 0.30803 0.45806 0.98296 0.0
C917 C 0.29672 0.44278 0.96782 0.0
C918 C 0.32324 0.4656 0.96202 0.0
C919 C 0.32715 0.4577 0.92479 0.0
C920 C 0.31584 0.44218 0.90988 0.0
C921 C 0.30075 0.43488 0.93177 0.0
C922 C 0.33507 0.4821 0.9792 0.0
C923 C 0.31958 0.43343 0.87011 0.0
C924 C 0.36082 0.48326 0.83569 0.0
C925 C 0.37325 0.48193 0.85672 0.0
C926 C 0.34567 0.47523 0.85708 0.0
C927 C 0.34299 0.46581 0.90076 0.0
C928 C 0.35548 0.46434 0.92192 0.0
C929 C 0.37047 0.47237 0.89945 0.0
C930 C 0.33256 0.47695 0.83322 0.0
C931 C 0.35308 0.45449 0.96872 0.0
H932 H 0.30495 0.46419 0.01092 0.0
H933 H 0.29202 0.42307 0.91988 0.0
H934 H 0.34594 0.48246 0.99314 0.0
H935 H 0.33851 0.49039 0.94672 0.0
H936 H 0.33034 0.48637 0.00981 0.0
H937 H 0.30957 0.42131 0.86354 0.0
H938 H 0.32253 0.44002 0.83377 0.0
H939 H 0.33007 0.43264 0.88163 0.0
H940 H 0.36293 0.49062 0.80257 0.0
H941 H 0.38008 0.47136 0.91592 0.0
H942 H 0.32811 0.48238 0.8607 0.0
H943 H 0.32252 0.46515 0.82331 0.0
H944 H 0.33649 0.48434 0.79844 0.0
H945 H 0.34927 0.45914 0.00078 0.0
H946 H 0.36398 0.4544 0.98 0.0
H947 H 0.34357 0.44215 0.96209 0.0
C948 C 0.10054 0.46376 0.38634 0.0
C949 C 0.10769 0.47431 0.34599 0.0
C950 C 0.10792 0.45615 0.40887 0.0
C951 C 0.12275 0.45913 0.39038 0.0
C952 C 0.12988 0.46955 0.34902 0.0
C953 C 0.12227 0.47706 0.32736 0.0
C954 C 0.09999 0.44513 0.45299 0.0
C955 C 0.14564 0.47292 0.32811 0.0
C956 C 0.14953 0.45209 0.47713 0.0
C957 C 0.14699 0.43747 0.45968 0.0
C958 C 0.14158 0.45921 0.45522 0.0
C959 C 0.13092 0.45154 0.41479 0.0
C960 C 0.12821 0.43671 0.39735 0.0
C961 C 0.13626 0.42983 0.42013 0.0
C962 C 0.14467 0.475 0.47499 0.0
C963 C 0.11697 0.42822 0.35421 0.0
H964 H 0.08928 0.46162 0.40091 0.0
H965 H 0.12781 0.4852 0.29614 0.0
H966 H 0.09832 0.43329 0.44445 0.0
H967 H 0.10762 0.44961 0.48707 0.0
H968 H 0.08831 0.44385 0.46213 0.0
H969 H 0.14937 0.48098 0.2949 0.0
H970 H 0.15483 0.47837 0.35791 0.0
H971 H 0.14508 0.46174 0.3166 0.0
H972 H 0.15781 0.45802 0.50774 0.0
H973 H 0.13429 0.41853 0.40647 0.0
H974 H 0.13344 0.47417 0.48733 0.0
H975 H 0.14962 0.48394 0.44432 0.0
H976 H 0.15304 0.47922 0.50741 0.0
H977 H 0.10504 0.42621 0.36351 0.0
H978 H 0.11603 0.41666 0.34564 0.0
H979 H 0.12099 0.43564 0.31955 0.0
C980 C 0.51775 0.64001 0.33312 0.0
C981 C 0.52088 0.62811 0.34821 0.0
C982 C 0.52602 0.65514 0.35449 0.0
C983 C 0.53758 0.65835 0.39205 0.0
C984 C 0.54104 0.64648 0.40659 0.0
C985 C 0.53266 0.63149 0.38432 0.0
C986 C 0.52213 0.66757 0.33773 0.0
C987 C 0.55325 0.64948 0.44668 0.0
C988 C 0.56672 0.7013 0.42082 0.0
C989 C 0.55966 0.70398 0.46303 0.0
C990 C 0.55978 0.68641 0.39768 0.0
C991 C 0.54555 0.67394 0.41756 0.0
C992 C 0.53862 0.67648 0.461 0.0
C993 C 0.54574 0.69151 0.48312 0.0
C994 C 0.56746 0.68413 0.35127 0.0
C995 C 0.52351 0.6634 0.4835 0.0
H996 H 0.50868 0.63745 0.30507 0.0
H997 H 0.5351 0.6223 0.3961 0.0
H998 H 0.51722 0.67098 0.37009 0.0
H999 H 0.53301 0.67835 0.32519 0.0
H1000 H 0.51342 0.66342 0.30624 0.0
H1001 H 0.55504 0.63922 0.452 0.0
H1002 H 0.56472 0.65994 0.43645 0.0
H1003 H 0.54952 0.65211 0.48338 0.0
H1004 H 0.57748 0.71093 0.40514 0.0
H1005 H 0.54029 0.69354 0.51586 0.0
H1006 H 0.5594 0.68108 0.31831 0.0
H1007 H 0.56965 0.67415 0.35716 0.0
H1008 H 0.57883 0.69486 0.34179 0.0
H1009 H 0.51378 0.65948 0.45558 0.0
H1010 H 0.52004 0.66714 0.51867 0.0
H1011 H 0.52485 0.65304 0.49236 0.0
C1012 C 0.35641 0.88457 0.34071 0.0
C1013 C 0.36845 0.88249 0.3612 0.0
C1014 C 0.34086 0.87573 0.35869 0.0
C1015 C 0.33747 0.86495 0.39905 0.0
C1016 C 0.34954 0.86254 0.41897 0.0
C1017 C 0.36486 0.87121 0.39929 0.0
C1018 C 0.32818 0.87827 0.33557 0.0
C1019 C 0.34646 0.8514 0.46273 0.0
C1020 C 0.3028 0.85682 0.48329 0.0
C1021 C 0.29142 0.84166 0.46754 0.0
C1022 C 0.31793 0.86444 0.46173 0.0
C1023 C 0.32154 0.85687 0.42249 0.0
C1024 C 0.31002 0.84162 0.40611 0.0
C1025 C 0.29513 0.83408 0.42941 0.0
C1026 C 0.33005 0.88055 0.48108 0.0
C1027 C 0.31333 0.83337 0.36351 0.0
H1028 H 0.35918 0.89326 0.31109 0.0
H1029 H 0.37421 0.86969 0.41547 0.0
H1030 H 0.31777 0.86677 0.32518 0.0
H1031 H 0.32417 0.88395 0.36367 0.0
H1032 H 0.3324 0.88585 0.30124 0.0
H1033 H 0.35698 0.8504 0.47242 0.0
H1034 H 0.34297 0.85565 0.49666 0.0
H1035 H 0.33653 0.83947 0.45367 0.0
H1036 H 0.29991 0.86264 0.5129 0.0
H1037 H 0.28625 0.82242 0.41685 0.0
H1038 H 0.33372 0.88935 0.45009 0.0
H1039 H 0.34076 0.88036 0.49394 0.0
H1040 H 0.32551 0.88453 0.51305 0.0
H1041 H 0.31674 0.84079 0.32885 0.0
H1042 H 0.30296 0.82166 0.35459 0.0
H1043 H 0.32341 0.8317 0.37361 0.0
C1044 C 0.1078 0.24649 0.79093 0.0
C1045 C 0.09536 0.2334 0.76698 0.0
C1046 C 0.11404 0.24487 0.83678 0.0
C1047 C 0.10761 0.22977 0.8594 0.0
C1048 C 0.0954 0.21639 0.83459 0.0
C1049 C 0.08942 0.21836 0.78844 0.0
C1050 C 0.12715 0.25942 0.86186 0.0
C1051 C 0.08829 0.20013 0.85763 0.0
C1052 C 0.13331 0.22814 0.96388 0.0
C1053 C 0.12695 0.23148 0.00655 0.0
C1054 C 0.12653 0.22653 0.9158 0.0
C1055 C 0.11314 0.22837 0.91052 0.0
C1056 C 0.10613 0.2308 0.95397 0.0
C1057 C 0.11312 0.23231 0.00152 0.0
C1058 C 0.13425 0.22382 0.87037 0.0
C1059 C 0.09181 0.23278 0.9499 0.0
H1060 H 0.11252 0.25813 0.77427 0.0
H1061 H 0.07979 0.20822 0.76997 0.0
H1062 H 0.12293 0.26153 0.89847 0.0
H1063 H 0.13729 0.25768 0.87027 0.0
H1064 H 0.13139 0.27014 0.83794 0.0
H1065 H 0.07994 0.19079 0.83142 0.0
H1066 H 0.09772 0.1975 0.86831 0.0
H1067 H 0.08186 0.19964 0.89283 0.0
H1068 H 0.14395 0.22738 0.96767 0.0
H1069 H 0.1081 0.23479 0.03448 0.0
H1070 H 0.14023 0.23478 0.84738 0.0
H1071 H 0.12527 0.2144 0.84581 0.0
H1072 H 0.14316 0.22049 0.88151 0.0
H1073 H 0.0951 0.24406 0.93031 0.0
H1074 H 0.08683 0.23292 0.98762 0.0
H1075 H 0.08248 0.22312 0.92697 0.0
C1076 C 0.76935 0.89534 0.97281 0.0
C1077 C 0.76555 0.90732 0.97761 0.0
C1078 C 0.77084 0.89001 0.92498 0.0
C1079 C 0.76853 0.89689 0.88099 0.0
C1080 C 0.76586 0.90979 0.88558 0.0
C1081 C 0.76435 0.91484 0.93398 0.0
C1082 C 0.77373 0.87624 0.92169 0.0
C1083 C 0.76352 0.91754 0.8395 0.0
C1084 C 0.77801 0.88467 0.755 0.0
C1085 C 0.76312 0.87221 0.74105 0.0
C1086 C 0.77995 0.89323 0.79978 0.0
C1087 C 0.76671 0.88913 0.83114 0.0
C1088 C 0.7516 0.87684 0.81639 0.0
C1089 C 0.75 0.86856 0.77151 0.0
C1090 C 0.7962 0.90635 0.81421 0.0
C1091 C 0.73716 0.87209 0.84882 0.0
H1092 H 0.77041 0.88957 0.00645 0.0
H1093 H 0.76153 0.9242 0.93754 0.0
H1094 H 0.76284 0.86563 0.90827 0.0
H1095 H 0.78321 0.87872 0.89391 0.0
H1096 H 0.77709 0.87346 0.95889 0.0
H1097 H 0.76402 0.92884 0.84907 0.0
H1098 H 0.7726 0.91984 0.81037 0.0
H1099 H 0.75182 0.90949 0.82244 0.0
H1100 H 0.78817 0.88755 0.73141 0.0
H1101 H 0.73845 0.85898 0.76079 0.0
H1102 H 0.80025 0.90298 0.84882 0.0
H1103 H 0.79587 0.91726 0.82321 0.0
H1104 H 0.80499 0.909 0.78362 0.0
H1105 H 0.73865 0.86774 0.88609 0.0
H1106 H 0.72619 0.86268 0.83093 0.0
H1107 H 0.73569 0.88245 0.85609 0.0
C1108 C 0.09218 0.86275 0.98483 0.0
C1109 C 0.1024 0.86499 0.02525 0.0
C1110 C 0.09811 0.86964 0.93731 0.0
C1111 C 0.11464 0.87885 0.93012 0.0
C1112 C 0.12497 0.88165 0.97139 0.0
C1113 C 0.11871 0.87472 0.01853 0.0
C1114 C 0.08673 0.86653 0.89431 0.0
C1115 C 0.14267 0.89137 0.96519 0.0
C1116 C 0.1322 0.88095 0.80041 0.0
C1117 C 0.13634 0.89623 0.78473 0.0
C1118 C 0.12471 0.875 0.84706 0.0
C1119 C 0.12125 0.88456 0.87873 0.0
C1120 C 0.12491 0.8998 0.86236 0.0
C1121 C 0.13245 0.90548 0.81547 0.0
C1122 C 0.12097 0.85866 0.86317 0.0
C1123 C 0.12132 0.91029 0.89504 0.0
H1124 H 0.07955 0.85528 0.98993 0.0
H1125 H 0.12666 0.8765 0.04968 0.0
H1126 H 0.08944 0.87777 0.87563 0.0
H1127 H 0.08805 0.85906 0.86529 0.0
H1128 H 0.07426 0.86044 0.90729 0.0
H1129 H 0.14901 0.89328 0.00175 0.0
H1130 H 0.14673 0.88531 0.93874 0.0
H1131 H 0.14602 0.90303 0.94843 0.0
H1132 H 0.13515 0.87374 0.77673 0.0
H1133 H 0.13561 0.9173 0.80346 0.0
H1134 H 0.10829 0.8514 0.87312 0.0
H1135 H 0.12788 0.85948 0.89755 0.0
H1136 H 0.12374 0.85247 0.8331 0.0
H1137 H 0.10875 0.9039 0.90688 0.0
H1138 H 0.12379 0.92131 0.87519 0.0
H1139 H 0.12857 0.91352 0.93002 0.0
C1140 C 0.24767 0.1213 0.68264 0.0
C1141 C 0.23539 0.10856 0.70848 0.0
C1142 C 0.24491 0.1267 0.63675 0.0
C1143 C 0.22946 0.11924 0.61633 0.0
C1144 C 0.21687 0.10678 0.64323 0.0
C1145 C 0.22 0.10152 0.68902 0.0
C1146 C 0.25868 0.14002 0.6092 0.0
C1147 C 0.20022 0.0987 0.62289 0.0
C1148 C 0.22478 0.14322 0.51217 0.0
C1149 C 0.22795 0.1369 0.46901 0.0
C1150 C 0.22416 0.13689 0.56042 0.0
C1151 C 0.22687 0.12403 0.56544 0.0
C1152 C 0.22905 0.11698 0.52162 0.0
C1153 C 0.22953 0.12349 0.47386 0.0
C1154 C 0.22161 0.1446 0.60619 0.0
C1155 C 0.23196 0.10324 0.5254 0.0
H1156 H 0.25958 0.12681 0.69756 0.0
H1157 H 0.21046 0.09169 0.70899 0.0
H1158 H 0.26045 0.13574 0.5722 0.0
H1159 H 0.25617 0.14969 0.60125 0.0
H1160 H 0.26984 0.14493 0.63117 0.0
H1161 H 0.19155 0.09027 0.65062 0.0
H1162 H 0.19676 0.10756 0.61267 0.0
H1163 H 0.19955 0.09214 0.58782 0.0
H1164 H 0.22344 0.15353 0.50856 0.0
H1165 H 0.23189 0.11851 0.44057 0.0
H1166 H 0.23289 0.15135 0.62715 0.0
H1167 H 0.21293 0.13556 0.63244 0.0
H1168 H 0.21737 0.15285 0.59553 0.0
H1169 H 0.24366 0.10725 0.54307 0.0
H1170 H 0.23177 0.09808 0.48772 0.0
H1171 H 0.22295 0.09385 0.54995 0.0
C1172 C 0.87094 0.10325 0.52075 0.0
C1173 C 0.85823 0.08794 0.51356 0.0
C1174 C 0.8771 0.10872 0.56921 0.0
C1175 C 0.87048 0.09855 0.61142 0.0
C1176 C 0.85833 0.08274 0.60399 0.0
C1177 C 0.85226 0.07763 0.55505 0.0
C1178 C 0.89004 0.12568 0.57553 0.0
C1179 C 0.85118 0.07149 0.64799 0.0
C1180 C 0.8941 0.11397 0.73289 0.0
C1181 C 0.88665 0.12151 0.75544 0.0
C1182 C 0.88847 0.10566 0.68716 0.0
C1183 C 0.87521 0.10507 0.66338 0.0
C1184 C 0.86723 0.11206 0.68725 0.0
C1185 C 0.87301 0.12013 0.73312 0.0
C1186 C 0.89711 0.09814 0.66322 0.0
C1187 C 0.85308 0.11174 0.66303 0.0
H1188 H 0.87563 0.11125 0.48877 0.0
H1189 H 0.84249 0.06574 0.54961 0.0
H1190 H 0.88542 0.13229 0.59683 0.0
H1191 H 0.89995 0.12631 0.59781 0.0
H1192 H 0.8947 0.13167 0.53857 0.0
H1193 H 0.8435 0.05911 0.63521 0.0
H1194 H 0.86057 0.07201 0.67289 0.0
H1195 H 0.84397 0.07499 0.67118 0.0
H1196 H 0.9046 0.11494 0.75021 0.0
H1197 H 0.86717 0.12588 0.75049 0.0
H1198 H 0.90347 0.1049 0.62894 0.0
H1199 H 0.88865 0.08591 0.65094 0.0
H1200 H 0.90583 0.09784 0.68951 0.0
H1201 H 0.8567 0.11856 0.62712 0.0
H1202 H 0.84763 0.11685 0.68802 0.0
H1203 H 0.844 0.09945 0.65344 0.0
C1204 C 0.87108 0.75542 0.71209 0.0
C1205 C 0.86966 0.76782 0.73298 0.0
C1206 C 0.87879 0.75724 0.66574 0.0
C1207 C 0.88531 0.77185 0.63982 0.0
C1208 C 0.88467 0.78468 0.66202 0.0
C1209 C 0.87678 0.7825 0.70839 0.0
C1210 C 0.87925 0.74326 0.64333 0.0
C1211 C 0.89165 0.80047 0.63573 0.0
C1212 C 0.91248 0.77613 0.53085 0.0
C1213 C 0.90197 0.77113 0.48982 0.0
C1214 C 0.90746 0.77722 0.57977 0.0
C1215 C 0.89154 0.77311 0.58765 0.0
C1216 C 0.8811 0.76881 0.5459 0.0
C1217 C 0.88646 0.76792 0.49744 0.0
C1218 C 0.91897 0.78202 0.6233 0.0
C1219 C 0.86402 0.76434 0.55277 0.0
H1220 H 0.86565 0.74407 0.73105 0.0
H1221 H 0.87577 0.79214 0.72453 0.0
H1222 H 0.87209 0.73942 0.60811 0.0
H1223 H 0.89152 0.7466 0.63291 0.0
H1224 H 0.87458 0.73308 0.66984 0.0
H1225 H 0.89182 0.80972 0.66061 0.0
H1226 H 0.90388 0.80439 0.62306 0.0
H1227 H 0.8846 0.79937 0.60144 0.0
H1228 H 0.92452 0.77869 0.52508 0.0
H1229 H 0.87829 0.76411 0.4658 0.0
H1230 H 0.91571 0.77166 0.64803 0.0
H1231 H 0.91846 0.79116 0.64683 0.0
H1232 H 0.9313 0.78668 0.61008 0.0
H1233 H 0.85782 0.75334 0.57548 0.0
H1234 H 0.85776 0.76238 0.51602 0.0
H1235 H 0.86319 0.7737 0.57389 0.0
C1236 C 0.85836 0.77696 0.02967 0.0
C1237 C 0.86321 0.77102 0.98941 0.0
C1238 C 0.86469 0.7784 0.07844 0.0
C1239 C 0.87601 0.77367 0.08699 0.0
C1240 C 0.88149 0.76839 0.04591 0.0
C1241 C 0.87505 0.76719 0.99756 0.0
C1242 C 0.85871 0.78426 0.12121 0.0
C1243 C 0.89353 0.76321 0.05349 0.0
C1244 C 0.90068 0.78323 0.20661 0.0
C1245 C 0.89265 0.76884 0.23276 0.0
C1246 C 0.89498 0.78532 0.16009 0.0
C1247 C 0.88102 0.77268 0.13934 0.0
C1248 C 0.87248 0.75843 0.16688 0.0
C1249 C 0.87838 0.75671 0.21333 0.0
C1250 C 0.90429 0.80075 0.13207 0.0
C1251 C 0.85753 0.74467 0.14605 0.0
H1252 H 0.84926 0.78003 0.02346 0.0
H1253 H 0.87889 0.76265 0.96652 0.0
H1254 H 0.85135 0.77433 0.14714 0.0
H1255 H 0.86873 0.79335 0.1437 0.0
H1256 H 0.85149 0.78935 0.10725 0.0
H1257 H 0.89739 0.76052 0.01708 0.0
H1258 H 0.90406 0.77251 0.07349 0.0
H1259 H 0.88841 0.75247 0.07758 0.0
H1260 H 0.9117 0.79267 0.22161 0.0
H1261 H 0.87208 0.74559 0.23351 0.0
H1262 H 0.89637 0.80506 0.11865 0.0
H1263 H 0.90988 0.79892 0.09814 0.0
H1264 H 0.9137 0.81001 0.15604 0.0
H1265 H 0.84902 0.74852 0.13519 0.0
H1266 H 0.85173 0.73483 0.17373 0.0
H1267 H 0.86032 0.74013 0.11134 0.0
C1268 C 0.22588 0.09285 0.00176 0.0
C1269 C 0.23527 0.10382 0.96468 0.0
C1270 C 0.22398 0.09785 0.04979 0.0
C1271 C 0.23176 0.11418 0.06095 0.0
C1272 C 0.24083 0.12531 0.02305 0.0
C1273 C 0.24242 0.11999 0.9753 0.0
C1274 C 0.21409 0.08565 0.08909 0.0
C1275 C 0.24935 0.14284 0.03355 0.0
C1276 C 0.22082 0.13077 0.17395 0.0
C1277 C 0.23298 0.13364 0.20802 0.0
C1278 C 0.21987 0.12385 0.12652 0.0
C1279 C 0.23135 0.11971 0.11306 0.0
C1280 C 0.24321 0.12193 0.14827 0.0
C1281 C 0.24388 0.12887 0.19535 0.0
C1282 C 0.20702 0.12159 0.09003 0.0
C1283 C 0.25564 0.11762 0.13538 0.0
H1284 H 0.22027 0.08033 0.99362 0.0
H1285 H 0.24969 0.12852 0.94675 0.0
H1286 H 0.22177 0.0859 0.12045 0.0
H1287 H 0.20532 0.08841 0.10571 0.0
H1288 H 0.20773 0.07353 0.07311 0.0
H1289 H 0.25523 0.14995 -0.00077 0.0
H1290 H 0.24096 0.14641 0.04819 0.0
H1291 H 0.25844 0.14574 0.06322 0.0
H1292 H 0.21235 0.13443 0.18361 0.0
H1293 H 0.25326 0.13101 0.22164 0.0
H1294 H 0.2009 0.10937 0.07488 0.0
H1295 H 0.21231 0.1297 0.05733 0.0
H1296 H 0.19814 0.12396 0.10802 0.0
H1297 H 0.25 0.1052 0.12223 0.0
H1298 H 0.26338 0.1191 0.16818 0.0
H1299 H 0.26312 0.1252 0.1039 0.0
C1300 C 0.86189 0.10993 0.22492 0.0
C1301 C 0.86287 0.09795 0.25086 0.0
C1302 C 0.86985 0.1159 0.17903 0.0
C1303 C 0.879 0.10971 0.15847 0.0
C1304 C 0.88049 0.09798 0.18531 0.0
C1305 C 0.87239 0.09223 0.23137 0.0
C1306 C 0.86803 0.12848 0.15171 0.0
C1307 C 0.89018 0.09115 0.16454 0.0
C1308 C 0.8825 0.11412 0.01601 0.0
C1309 C 0.89695 0.12817 0.01072 0.0
C1310 C 0.87697 0.10739 0.06386 0.0
C1311 C 0.88611 0.11494 0.1074 0.0
C1312 C 0.90117 0.12857 0.10197 0.0
C1313 C 0.90643 0.13503 0.05356 0.0
C1314 C 0.86088 0.09277 0.06806 0.0
C1315 C 0.91128 0.1369 0.14748 0.0
H1316 H 0.85462 0.11446 0.23999 0.0
H1317 H 0.87318 0.08297 0.25139 0.0
H1318 H 0.8798 0.13879 0.14318 0.0
H1319 H 0.86192 0.12378 0.11502 0.0
H1320 H 0.86117 0.13261 0.17413 0.0
H1321 H 0.89132 0.08319 0.19213 0.0
H1322 H 0.88455 0.08434 0.12959 0.0
H1323 H 0.90216 0.10073 0.154 0.0
H1324 H 0.87518 0.1087 0.98293 0.0
H1325 H 0.91765 0.14587 0.04962 0.0
H1326 H 0.85252 0.09587 0.08598 0.0
H1327 H 0.86144 0.08384 0.09255 0.0
H1328 H 0.85608 0.08737 0.03049 0.0
H1329 H 0.90592 0.14282 0.16879 0.0
H1330 H 0.92348 0.14594 0.13652 0.0
H1331 H 0.91187 0.12831 0.17354 0.0
C1332 C 0.77586 0.8983 0.2521 0.0
C1333 C 0.76025 0.8941 0.24039 0.0
C1334 C 0.7794 0.89285 0.29668 0.0
C1335 C 0.76704 0.88308 0.33021 0.0
C1336 C 0.75123 0.87848 0.31781 0.0
C1337 C 0.74803 0.88403 0.273 0.0
C1338 C 0.79637 0.89788 0.30856 0.0
C1339 C 0.7377 0.86806 0.35262 0.0
C1340 C 0.76977 0.85756 0.43297 0.0
C1341 C 0.77066 0.8662 0.47647 0.0
C1342 C 0.7697 0.86342 0.38448 0.0
C1343 C 0.77048 0.8782 0.37966 0.0
C1344 C 0.77257 0.88746 0.4233 0.0
C1345 C 0.77266 0.88135 0.47124 0.0
C1346 C 0.76766 0.85329 0.33877 0.0
C1347 C 0.77351 0.90333 0.4197 0.0
H1348 H 0.78534 0.90607 0.22687 0.0
H1349 H 0.73594 0.88072 0.26405 0.0
H1350 H 0.80025 0.90559 0.34254 0.0
H1351 H 0.79754 0.88743 0.31752 0.0
H1352 H 0.80443 0.90442 0.27665 0.0
H1353 H 0.72605 0.86513 0.33654 0.0
H1354 H 0.73767 0.85689 0.36023 0.0
H1355 H 0.73918 0.87407 0.38955 0.0
H1356 H 0.76832 0.84587 0.43682 0.0
H1357 H 0.77346 0.88812 0.50476 0.0
H1358 H 0.77591 0.86045 0.3081 0.0
H1359 H 0.75549 0.84832 0.32383 0.0
H1360 H 0.76966 0.84335 0.34807 0.0
H1361 H 0.78214 0.91075 0.39025 0.0
H1362 H 0.77696 0.90981 0.45629 0.0
H1363 H 0.76183 0.90161 0.40839 0.0
C1364 C 0.10428 0.87865 0.29767 0.0
C1365 C 0.10469 0.86475 0.28832 0.0
C1366 C 0.11066 0.88728 0.34251 0.0
C1367 C 0.1176 0.88185 0.3785 0.0
C1368 C 0.11797 0.86779 0.36922 0.0
C1369 C 0.1115 0.85942 0.3243 0.0
C1370 C 0.11005 0.90222 0.3513 0.0
C1371 C 0.1253 0.86162 0.4066 0.0
C1372 C 0.14858 0.90842 0.47309 0.0
C1373 C 0.14001 0.90382 0.51853 0.0
C1374 C 0.1412 0.90207 0.42659 0.0
C1375 C 0.12486 0.8909 0.42561 0.0
C1376 C 0.11595 0.887 0.47098 0.0
C1377 C 0.12365 0.8935 0.51703 0.0
C1378 C 0.15111 0.90655 0.37903 0.0
C1379 C 0.09848 0.87522 0.47135 0.0
H1380 H 0.09899 0.88278 0.26996 0.0
H1381 H 0.11184 0.84867 0.3173 0.0
H1382 H 0.10388 0.90136 0.38746 0.0
H1383 H 0.12221 0.91241 0.35476 0.0
H1384 H 0.10391 0.90464 0.32015 0.0
H1385 H 0.12447 0.8504 0.39385 0.0
H1386 H 0.13794 0.87051 0.41224 0.0
H1387 H 0.11938 0.85958 0.44395 0.0
H1388 H 0.16122 0.91648 0.47402 0.0
H1389 H 0.11696 0.89 0.55206 0.0
H1390 H 0.14538 0.90957 0.34815 0.0
H1391 H 0.15218 0.89634 0.36597 0.0
H1392 H 0.16317 0.91673 0.38522 0.0
H1393 H 0.09239 0.87792 0.44082 0.0
H1394 H 0.09291 0.87506 0.50823 0.0
H1395 H 0.09658 0.86323 0.46401 0.0
C1396 C 0.07707 0.22959 0.45679 0.0
C1397 C 0.08339 0.22704 0.50113 0.0
C1398 C 0.08332 0.2294 0.40911 0.0
C1399 C 0.0962 0.22665 0.40592 0.0
C1400 C 0.10183 0.22292 0.45023 0.0
C1401 C 0.09533 0.22315 0.49738 0.0
C1402 C 0.0769 0.23328 0.36265 0.0
C1403 C 0.11549 0.21985 0.44837 0.0
C1404 C 0.11057 0.22073 0.27831 0.0
C1405 C 0.12322 0.23594 0.2687 0.0
C1406 C 0.10144 0.2175 0.3225 0.0
C1407 C 0.10514 0.22978 0.35775 0.0
C1408 C 0.11777 0.24519 0.34779 0.0
C1409 C 0.12663 0.24808 0.30337 0.0
C1410 C 0.088 0.20096 0.33182 0.0
C1411 C 0.1221 0.25861 0.38446 0.0
H1412 H 0.06776 0.2325 0.45947 0.0
H1413 H 0.10018 0.22107 0.53154 0.0
H1414 H 0.08553 0.24534 0.3494 0.0
H1415 H 0.07516 0.22499 0.33133 0.0
H1416 H 0.0655 0.23281 0.37039 0.0
H1417 H 0.11712 0.21519 0.48488 0.0
H1418 H 0.11371 0.21131 0.41787 0.0
H1419 H 0.12652 0.23102 0.4396 0.0
H1420 H 0.10788 0.21132 0.25151 0.0
H1421 H 0.13638 0.25986 0.29609 0.0
H1422 H 0.07688 0.20114 0.33831 0.0
H1423 H 0.09036 0.19608 0.36655 0.0
H1424 H 0.08622 0.19292 0.29964 0.0
H1425 H 0.11178 0.26022 0.39094 0.0
H1426 H 0.13209 0.26995 0.37063 0.0
H1427 H 0.12541 0.25579 0.42161 0.0
C1428 C 0.80982 0.56867 0.295 0.0
C1429 C 0.80164 0.56773 0.33968 0.0
C1430 C 0.80312 0.56799 0.24739 0.0
C1431 C 0.78791 0.56634 0.24464 0.0
C1432 C 0.77919 0.5643 0.28959 0.0
C1433 C 0.78618 0.56503 0.33664 0.0
C1434 C 0.81274 0.57011 0.20027 0.0
C1435 C 0.7629 0.56241 0.28819 0.0
C1436 C 0.77918 0.58635 0.13684 0.0
C1437 C 0.76948 0.57356 0.10552 0.0
C1438 C 0.78547 0.58414 0.18169 0.0
C1439 C 0.78193 0.56873 0.19566 0.0
C1440 C 0.77237 0.55578 0.16379 0.0
C1441 C 0.76625 0.55835 0.11892 0.0
C1442 C 0.79569 0.59828 0.21459 0.0
C1443 C 0.76837 0.53921 0.17757 0.0
H1444 H 0.82175 0.57066 0.29717 0.0
H1445 H 0.77976 0.56418 0.3711 0.0
H1446 H 0.8055 0.56122 0.1712 0.0
H1447 H 0.81667 0.58194 0.18379 0.0
H1448 H 0.82336 0.56911 0.20834 0.0
H1449 H 0.75699 0.5591 0.32576 0.0
H1450 H 0.76378 0.57369 0.27611 0.0
H1451 H 0.75536 0.55328 0.26015 0.0
H1452 H 0.78176 0.59814 0.12653 0.0
H1453 H 0.75875 0.54843 0.09475 0.0
H1454 H 0.80732 0.59918 0.22106 0.0
H1455 H 0.79004 0.59686 0.25219 0.0
H1456 H 0.79768 0.60952 0.1975 0.0
H1457 H 0.77933 0.53877 0.18455 0.0
H1458 H 0.76145 0.53054 0.14747 0.0
H1459 H 0.76142 0.53556 0.21321 0.0
C1460 C 0.44506 0.21072 0.10634 0.0
C1461 C 0.42994 0.20042 0.0873 0.0
C1462 C 0.44703 0.21885 0.15209 0.0
C1463 C 0.43354 0.2166 0.17905 0.0
C1464 C 0.41827 0.20661 0.15901 0.0
C1465 C 0.41667 0.19863 0.11344 0.0
C1466 C 0.46347 0.22944 0.17235 0.0
C1467 C 0.40358 0.20395 0.1865 0.0
C1468 C 0.43283 0.22072 0.32126 0.0
C1469 C 0.43223 0.23469 0.32574 0.0
C1470 C 0.43426 0.21519 0.27371 0.0
C1471 C 0.4351 0.22384 0.22968 0.0
C1472 C 0.43551 0.23846 0.23424 0.0
C1473 C 0.43406 0.24372 0.28235 0.0
C1474 C 0.43386 0.19957 0.27042 0.0
C1475 C 0.43649 0.24806 0.18815 0.0
H1476 H 0.45535 0.21213 0.08617 0.0
H1477 H 0.40495 0.19074 0.0987 0.0
H1478 H 0.46515 0.24122 0.18197 0.0
H1479 H 0.46513 0.22432 0.20777 0.0
H1480 H 0.47273 0.23097 0.14483 0.0
H1481 H 0.39265 0.19641 0.16455 0.0
H1482 H 0.40268 0.19819 0.22356 0.0
H1483 H 0.40425 0.21541 0.19432 0.0
H1484 H 0.43154 0.21376 0.35477 0.0
H1485 H 0.43369 0.25458 0.28569 0.0
H1486 H 0.44355 0.20063 0.24587 0.0
H1487 H 0.42256 0.19063 0.253 0.0
H1488 H 0.43491 0.19519 0.30824 0.0
H1489 H 0.4459 0.24918 0.16211 0.0
H1490 H 0.43885 0.26006 0.19841 0.0
H1491 H 0.42516 0.24194 0.1671 0.0
C1492 C 0.78669 0.21592 0.12127 0.0
C1493 C 0.80202 0.22897 0.12063 0.0
C1494 C 0.77937 0.20874 0.16717 0.0
C1495 C 0.7875 0.21497 0.21336 0.0
C1496 C 0.80277 0.22848 0.21292 0.0
C1497 C 0.80992 0.23523 0.16647 0.0
C1498 C 0.76318 0.19419 0.16614 0.0
C1499 C 0.81171 0.23562 0.26146 0.0
C1500 C 0.76471 0.20316 0.33748 0.0
C1501 C 0.76853 0.19209 0.35618 0.0
C1502 C 0.77073 0.2107 0.29078 0.0
C1503 C 0.78052 0.20679 0.26197 0.0
C1504 C 0.78408 0.19533 0.28025 0.0
C1505 C 0.77816 0.18823 0.32736 0.0
C1506 C 0.76689 0.22305 0.27276 0.0
C1507 C 0.79426 0.19065 0.25024 0.0
H1508 H 0.78058 0.21106 0.0858 0.0
H1509 H 0.82172 0.24542 0.16605 0.0
H1510 H 0.76386 0.18396 0.18123 0.0
H1511 H 0.75495 0.19585 0.19088 0.0
H1512 H 0.75815 0.19128 0.12728 0.0
H1513 H 0.82294 0.24682 0.25476 0.0
H1514 H 0.80432 0.23797 0.28799 0.0
H1515 H 0.81447 0.22716 0.28038 0.0
H1516 H 0.75729 0.20618 0.35983 0.0
H1517 H 0.78103 0.17956 0.34156 0.0
H1518 H 0.76128 0.21985 0.23481 0.0
H1519 H 0.77794 0.23458 0.26882 0.0
H1520 H 0.75886 0.22451 0.29916 0.0
H1521 H 0.78929 0.18675 0.21168 0.0
H1522 H 0.79526 0.18098 0.2687 0.0
H1523 H 0.80629 0.20098 0.24574 0.0
C1524 C 0.90833 0.48578 0.87044 0.0
C1525 C 0.90073 0.47626 0.82828 0.0
C1526 C 0.90788 0.47906 0.91778 0.0
C1527 C 0.89951 0.46244 0.92306 0.0
C1528 C 0.89099 0.45281 0.8814 0.0
C1529 C 0.89178 0.45984 0.83431 0.0
C1530 C 0.91718 0.48973 0.96123 0.0
C1531 C 0.88176 0.43504 0.88581 0.0
C1532 C 0.91502 0.44468 0.01878 0.0
C1533 C 0.90459 0.44128 0.05944 0.0
C1534 C 0.91349 0.45163 0.97436 0.0
C1535 C 0.90113 0.45512 0.9703 0.0
C1536 C 0.89054 0.45173 0.01123 0.0
C1537 C 0.89245 0.4449 0.05556 0.0
C1538 C 0.92513 0.45523 0.93173 0.0
C1539 C 0.87716 0.45519 0.00798 0.0
H1540 H 0.91524 0.49849 0.86599 0.0
H1541 H 0.8858 0.45245 0.80186 0.0
H1542 H 0.9098 0.4866 0.99587 0.0
H1543 H 0.92739 0.48811 0.96993 0.0
H1544 H 0.92171 0.50238 0.95244 0.0
H1545 H 0.87428 0.4294 0.85196 0.0
H1546 H 0.89005 0.43049 0.89024 0.0
H1547 H 0.8741 0.43142 0.91992 0.0
H1548 H 0.92445 0.44194 0.02169 0.0
H1549 H 0.88433 0.44222 0.0869 0.0
H1550 H 0.93121 0.46801 0.92258 0.0
H1551 H 0.9188 0.44872 0.89707 0.0
H1552 H 0.93419 0.45196 0.94124 0.0
H1553 H 0.88188 0.46796 0.00092 0.0
H1554 H 0.86994 0.45181 0.04313 0.0
H1555 H 0.86937 0.4487 0.97558 0.0
C1556 C 0.5481 0.46429 0.02666 0.0
C1557 C 0.55802 0.4613 0.05723 0.0
C1558 C 0.54181 0.45592 0.9816 0.0
C1559 C 0.54551 0.44424 0.96677 0.0
C1560 C 0.55526 0.44091 0.99799 0.0
C1561 C 0.56143 0.44951 0.04297 0.0
C1562 C 0.53144 0.45982 0.94934 0.0
C1563 C 0.55938 0.42848 0.98339 0.0
C1564 C 0.51782 0.41657 0.86651 0.0
C1565 C 0.52603 0.424 0.82205 0.0
C1566 C 0.52444 0.42245 0.91431 0.0
C1567 C 0.5396 0.43607 0.91748 0.0
C1568 C 0.54833 0.44299 0.87272 0.0
C1569 C 0.54143 0.43685 0.82549 0.0
C1570 C 0.51483 0.41468 0.96123 0.0
C1571 C 0.56454 0.45751 0.87455 0.0
H1572 H 0.54539 0.47336 0.03759 0.0
H1573 H 0.56909 0.44715 0.06659 0.0
H1574 H 0.53703 0.46422 0.91177 0.0
H1575 H 0.51986 0.44904 0.94272 0.0
H1576 H 0.52935 0.46892 0.96703 0.0
H1577 H 0.56636 0.42669 0.01321 0.0
H1578 H 0.54848 0.41707 0.97608 0.0
H1579 H 0.56634 0.43199 0.94776 0.0
H1580 H 0.50593 0.40657 0.86403 0.0
H1581 H 0.54787 0.44258 0.7912 0.0
H1582 H 0.5108 0.42243 0.97826 0.0
H1583 H 0.52212 0.41298 0.99002 0.0
H1584 H 0.50428 0.40305 0.95275 0.0
H1585 H 0.56353 0.46776 0.88748 0.0
H1586 H 0.57045 0.46038 0.83695 0.0
H1587 H 0.57216 0.45587 0.90214 0.0
C1588 C 0.55618 0.10269 0.85009 0.0
C1589 C 0.57036 0.10248 0.84597 0.0
C1590 C 0.55 0.10309 0.89763 0.0
C1591 C 0.55818 0.10322 0.94205 0.0
C1592 C 0.57296 0.10393 0.93806 0.0
C1593 C 0.5789 0.10357 0.88995 0.0
C1594 C 0.53426 0.10245 0.9003 0.0
C1595 C 0.58204 0.10412 0.98458 0.0
C1596 C 0.544 0.11145 0.0663 0.0
C1597 C 0.53357 0.09609 0.08334 0.0
C1598 C 0.55246 0.11403 0.02093 0.0
C1599 C 0.55044 0.10092 0.99222 0.0
C1600 C 0.54029 0.0854 0.01014 0.0
C1601 C 0.53197 0.08318 0.05544 0.0
C1602 C 0.56319 0.13072 0.00297 0.0
C1603 C 0.53788 0.07111 0.98073 0.0
H1604 H 0.54959 0.10195 0.81616 0.0
H1605 H 0.58989 0.10344 0.88693 0.0
H1606 H 0.52523 0.09087 0.91591 0.0
H1607 H 0.53497 0.11172 0.92616 0.0
H1608 H 0.53021 0.10401 0.86252 0.0
H1609 H 0.59414 0.10661 0.97514 0.0
H1610 H 0.58291 0.11312 0.01198 0.0
H1611 H 0.57567 0.09248 0.00375 0.0
H1612 H 0.54528 0.12147 0.0878 0.0
H1613 H 0.52397 0.07129 0.06858 0.0
H1614 H 0.55846 0.1328 0.96738 0.0
H1615 H 0.5751 0.13259 0.99434 0.0
H1616 H 0.56435 0.13961 0.03144 0.0
H1617 H 0.53242 0.07071 0.94349 0.0
H1618 H 0.53018 0.05989 0.00112 0.0
H1619 H 0.54941 0.0719 0.9732 0.0
C1620 C 0.54403 0.10306 0.34884 0.0
C1621 C 0.52904 0.10157 0.34544 0.0
C1622 C 0.55092 0.1038 0.39607 0.0
C1623 C 0.54258 0.10296 0.44089 0.0
C1624 C 0.52785 0.10239 0.43766 0.0
C1625 C 0.52126 0.10174 0.38985 0.0
C1626 C 0.56672 0.10455 0.39794 0.0
C1627 C 0.51863 0.10151 0.48462 0.0
C1628 C 0.5506 0.08363 0.55245 0.0
C1629 C 0.56108 0.09671 0.58143 0.0
C1630 C 0.54421 0.08553 0.50729 0.0
C1631 C 0.54847 0.10091 0.49057 0.0
C1632 C 0.55879 0.11418 0.52019 0.0
C1633 C 0.56497 0.11191 0.56544 0.0
C1634 C 0.53316 0.07107 0.47688 0.0
C1635 C 0.5636 0.13074 0.50346 0.0
H1636 H 0.55014 0.10305 0.31457 0.0
H1637 H 0.50968 0.10062 0.38738 0.0
H1638 H 0.57481 0.11394 0.42439 0.0
H1639 H 0.56511 0.09318 0.41239 0.0
H1640 H 0.57241 0.10684 0.36007 0.0
H1641 H 0.50837 0.10306 0.47588 0.0
H1642 H 0.5142 0.08984 0.50302 0.0
H1643 H 0.52632 0.11065 0.51241 0.0
H1644 H 0.5475 0.07185 0.56477 0.0
H1645 H 0.57308 0.12206 0.58778 0.0
H1646 H 0.53848 0.07145 0.4394 0.0
H1647 H 0.52188 0.07087 0.46991 0.0
H1648 H 0.53053 0.05993 0.49624 0.0
H1649 H 0.57038 0.13348 0.46757 0.0
H1650 H 0.57097 0.13971 0.53223 0.0
H1651 H 0.55298 0.13175 0.49577 0.0
C1652 C 0.88964 0.42258 0.36001 0.0
C1653 C 0.89931 0.43355 0.32331 0.0
C1654 C 0.88824 0.42754 0.40873 0.0
C1655 C 0.89675 0.44381 0.42082 0.0
C1656 C 0.90613 0.45495 0.38337 0.0
C1657 C 0.90728 0.44968 0.33507 0.0
C1658 C 0.87806 0.41536 0.44765 0.0
C1659 C 0.91536 0.47242 0.39476 0.0
C1660 C 0.88748 0.46201 0.53292 0.0
C1661 C 0.89973 0.46469 0.56632 0.0
C1662 C 0.88576 0.45435 0.48642 0.0
C1663 C 0.89657 0.44933 0.47314 0.0
C1664 C 0.90836 0.45115 0.50809 0.0
C1665 C 0.90978 0.4588 0.55435 0.0
C1666 C 0.87296 0.45249 0.45033 0.0
C1667 C 0.92008 0.4459 0.49538 0.0
H1668 H 0.88345 0.41009 0.35105 0.0
H1669 H 0.91474 0.4582 0.3068 0.0
H1670 H 0.88559 0.4151 0.47865 0.0
H1671 H 0.86967 0.41853 0.4649 0.0
H1672 H 0.87126 0.40333 0.43113 0.0
H1673 H 0.9216 0.47956 0.36085 0.0
H1674 H 0.90736 0.47648 0.40938 0.0
H1675 H 0.92423 0.47475 0.4247 0.0
H1676 H 0.87963 0.46647 0.54213 0.0
H1677 H 0.91922 0.46078 0.58016 0.0
H1678 H 0.86654 0.44031 0.43488 0.0
H1679 H 0.87837 0.46065 0.41781 0.0
H1680 H 0.86432 0.45512 0.46878 0.0
H1681 H 0.91388 0.43354 0.48145 0.0
H1682 H 0.92747 0.44671 0.52849 0.0
H1683 H 0.92799 0.45341 0.46453 0.0
C1684 C 0.52716 0.44242 0.52293 0.0
C1685 C 0.5305 0.4332 0.55565 0.0
C1686 C 0.53577 0.44862 0.47821 0.0
C1687 C 0.54803 0.44551 0.46584 0.0
C1688 C 0.55164 0.43638 0.49904 0.0
C1689 C 0.54281 0.43031 0.54371 0.0
C1690 C 0.53156 0.45834 0.44383 0.0
C1691 C 0.56466 0.43286 0.48699 0.0
C1692 C 0.55667 0.44971 0.32535 0.0
C1693 C 0.56896 0.46541 0.32236 0.0
C1694 C 0.55043 0.44265 0.37235 0.0
C1695 C 0.55665 0.45155 0.41727 0.0
C1696 C 0.56982 0.46702 0.41464 0.0
C1697 C 0.57583 0.47378 0.36709 0.0
C1698 C 0.53645 0.42609 0.37362 0.0
C1699 C 0.57684 0.47683 0.46174 0.0
H1700 H 0.51768 0.44472 0.53206 0.0
H1701 H 0.54543 0.42318 0.56897 0.0
H1702 H 0.54207 0.47015 0.43757 0.0
H1703 H 0.52778 0.45252 0.40629 0.0
H1704 H 0.52192 0.45994 0.45957 0.0
H1705 H 0.56643 0.42615 0.51779 0.0
H1706 H 0.56183 0.42589 0.45149 0.0
H1707 H 0.57593 0.44402 0.48055 0.0
H1708 H 0.5514 0.44314 0.29086 0.0
H1709 H 0.58541 0.4859 0.36496 0.0
H1710 H 0.52569 0.42651 0.38426 0.0
H1711 H 0.53819 0.41889 0.40261 0.0
H1712 H 0.53435 0.42009 0.33634 0.0
H1713 H 0.56856 0.48045 0.47712 0.0
H1714 H 0.58832 0.48764 0.45397 0.0
H1715 H 0.57859 0.46985 0.49153 0.0
C1716 C 0.44274 0.22849 0.59902 0.0
C1717 C 0.42737 0.22526 0.58816 0.0
C1718 C 0.44599 0.22271 0.64345 0.0
C1719 C 0.43356 0.21356 0.67761 0.0
C1720 C 0.41798 0.21003 0.66627 0.0
C1721 C 0.41508 0.21593 0.62167 0.0
C1722 C 0.46272 0.22664 0.6543 0.0
C1723 C 0.40439 0.20028 0.70174 0.0
C1724 C 0.43487 0.18648 0.77762 0.0
C1725 C 0.43667 0.19517 0.82185 0.0
C1726 C 0.43489 0.19275 0.72976 0.0
C1727 C 0.43672 0.20802 0.72628 0.0
C1728 C 0.43967 0.21725 0.77057 0.0
C1729 C 0.43962 0.2107 0.81788 0.0
C1730 C 0.43186 0.1826 0.68333 0.0
C1731 C 0.44176 0.23362 0.76839 0.0
H1732 H 0.45227 0.2357 0.57314 0.0
H1733 H 0.40317 0.21337 0.61339 0.0
H1734 H 0.46706 0.23396 0.68906 0.0
H1735 H 0.46313 0.21567 0.66149 0.0
H1736 H 0.47088 0.23316 0.62259 0.0
H1737 H 0.39293 0.19828 0.68666 0.0
H1738 H 0.40345 0.18865 0.70854 0.0
H1739 H 0.40655 0.20631 0.73893 0.0
H1740 H 0.43267 0.17449 0.78048 0.0
H1741 H 0.44112 0.21751 0.85196 0.0
H1742 H 0.44022 0.18948 0.65256 0.0
H1743 H 0.41976 0.17859 0.66907 0.0
H1744 H 0.43291 0.17203 0.6915 0.0
H1745 H 0.45041 0.24077 0.73862 0.0
H1746 H 0.44581 0.23992 0.80517 0.0
H1747 H 0.43035 0.23277 0.75834 0.0
C1748 C 0.77169 0.21588 0.61702 0.0
C1749 C 0.77608 0.2046 0.6055 0.0
C1750 C 0.77746 0.22526 0.66074 0.0
C1751 C 0.78763 0.2231 0.69375 0.0
C1752 C 0.79267 0.21226 0.68089 0.0
C1753 C 0.78691 0.20322 0.63676 0.0
C1754 C 0.7721 0.23694 0.67272 0.0
C1755 C 0.8035 0.20958 0.71513 0.0
C1756 C 0.81218 0.2503 0.79991 0.0
C1757 C 0.8033 0.24193 0.84234 0.0
C1758 C 0.80663 0.24503 0.75065 0.0
C1759 C 0.79199 0.23098 0.74398 0.0
C1760 C 0.78248 0.22317 0.78666 0.0
C1761 C 0.78822 0.22881 0.83538 0.0
C1762 C 0.81692 0.25388 0.70602 0.0
C1763 C 0.76681 0.20811 0.78117 0.0
H1764 H 0.76339 0.21704 0.59275 0.0
H1765 H 0.79039 0.19457 0.6279 0.0
H1766 H 0.76359 0.23243 0.70467 0.0
H1767 H 0.78225 0.24842 0.68473 0.0
H1768 H 0.76627 0.23896 0.63976 0.0
H1769 H 0.80692 0.2013 0.69834 0.0
H1770 H 0.81439 0.22092 0.72322 0.0
H1771 H 0.79753 0.20465 0.75189 0.0
H1772 H 0.82379 0.26056 0.80514 0.0
H1773 H 0.78127 0.22236 0.86808 0.0
H1774 H 0.80977 0.25488 0.67514 0.0
H1775 H 0.82254 0.24731 0.69076 0.0
H1776 H 0.8264 0.26592 0.71676 0.0
H1777 H 0.7594 0.20956 0.75224 0.0
H1778 H 0.76015 0.20443 0.81743 0.0
H1779 H 0.76883 0.19848 0.76812 0.0
C1780 C 0.77249 0.56539 0.8366 0.0
C1781 C 0.76009 0.56866 0.83951 0.0
C1782 C 0.77879 0.56465 0.78964 0.0
C1783 C 0.77254 0.56727 0.74467 0.0
C1784 C 0.75938 0.56957 0.74723 0.0
C1785 C 0.75329 0.57024 0.79473 0.0
C1786 C 0.79278 0.56208 0.78843 0.0
C1787 C 0.75235 0.57233 0.70006 0.0
C1788 C 0.8017 0.58685 0.63756 0.0
C1789 C 0.79813 0.57406 0.60564 0.0
C1790 C 0.79328 0.58478 0.68252 0.0
C1791 C 0.78098 0.56952 0.69591 0.0
C1792 C 0.77714 0.55656 0.66349 0.0
C1793 C 0.78579 0.55899 0.6186 0.0
C1794 C 0.79772 0.59892 0.71608 0.0
C1795 C 0.76408 0.54014 0.6766 0.0
H1796 H 0.77771 0.56405 0.87113 0.0
H1797 H 0.74365 0.57268 0.7968 0.0
H1798 H 0.7909 0.55293 0.76008 0.0
H1799 H 0.80349 0.57318 0.77688 0.0
H1800 H 0.79504 0.55843 0.82594 0.0
H1801 H 0.74098 0.5719 0.7079 0.0
H1802 H 0.76073 0.58409 0.68405 0.0
H1803 H 0.75035 0.5634 0.67071 0.0
H1804 H 0.8112 0.59853 0.62765 0.0
H1805 H 0.783 0.54906 0.59395 0.0
H1806 H 0.80161 0.59706 0.75367 0.0
H1807 H 0.78729 0.60036 0.72242 0.0
H1808 H 0.80735 0.61003 0.6996 0.0
H1809 H 0.76697 0.53619 0.71239 0.0
H1810 H 0.76216 0.53145 0.64638 0.0
H1811 H 0.75288 0.54017 0.683 0.0
C1812 C 0.42821 0.90538 0.51103 0.0
C1813 C 0.4365 0.9087 0.46519 0.0
C1814 C 0.43502 0.90428 0.55646 0.0
C1815 C 0.45061 0.90688 0.55609 0.0
C1816 C 0.45892 0.90989 0.50969 0.0
C1817 C 0.45169 0.91061 0.4646 0.0
C1818 C 0.42568 0.90078 0.60504 0.0
C1819 C 0.47566 0.91298 0.50796 0.0
C1820 C 0.47359 0.92301 0.67793 0.0
C1821 C 0.47326 0.90964 0.69854 0.0
C1822 C 0.46651 0.92229 0.63114 0.0
C1823 C 0.45864 0.90777 0.60476 0.0
C1824 C 0.45819 0.89418 0.62545 0.0
C1825 C 0.46566 0.89532 0.67203 0.0
C1826 C 0.46747 0.93711 0.60998 0.0
C1827 C 0.44966 0.87845 0.59871 0.0
H1828 H 0.41638 0.90372 0.51145 0.0
H1829 H 0.45811 0.91318 0.42914 0.0
H1830 H 0.42579 0.89095 0.6257 0.0
H1831 H 0.43122 0.91129 0.63011 0.0
H1832 H 0.41323 0.89759 0.59817 0.0
H1833 H 0.48012 0.91415 0.46855 0.0
H1834 H 0.48353 0.92403 0.52878 0.0
H1835 H 0.47646 0.9033 0.52703 0.0
H1836 H 0.47959 0.93414 0.69812 0.0
H1837 H 0.46538 0.88497 0.68798 0.0
H1838 H 0.45543 0.93544 0.60617 0.0
H1839 H 0.4728 0.93956 0.57156 0.0
H1840 H 0.47458 0.94758 0.63432 0.0
H1841 H 0.43701 0.87482 0.59399 0.0
H1842 H 0.45046 0.86904 0.61974 0.0
H1843 H 0.45464 0.87946 0.56024 0.0
C1844 C 0.10534 0.57399 0.61183 0.0
C1845 C 0.10359 0.56528 0.65595 0.0
C1846 C 0.10605 0.56809 0.56405 0.0
C1847 C 0.10503 0.55317 0.56057 0.0
C1848 C 0.10444 0.54488 0.60526 0.0
C1849 C 0.1037 0.55103 0.65248 0.0
C1850 C 0.10676 0.5773 0.51724 0.0
C1851 C 0.10347 0.52899 0.60312 0.0
C1852 C 0.08421 0.52721 0.44763 0.0
C1853 C 0.09686 0.52842 0.4192 0.0
C1854 C 0.08679 0.53553 0.49307 0.0
C1855 C 0.10243 0.54525 0.51065 0.0
C1856 C 0.1153 0.54681 0.48159 0.0
C1857 C 0.11236 0.53837 0.436 0.0
C1858 C 0.07274 0.53362 0.52283 0.0
C1859 C 0.13212 0.55706 0.49928 0.0
H1860 H 0.10535 0.58506 0.61437 0.0
H1861 H 0.10249 0.54432 0.68655 0.0
H1862 H 0.11561 0.57772 0.49005 0.0
H1863 H 0.09512 0.57132 0.49796 0.0
H1864 H 0.10975 0.58958 0.5264 0.0
H1865 H 0.10507 0.52504 0.64103 0.0
H1866 H 0.09175 0.52005 0.58818 0.0
H1867 H 0.11254 0.52937 0.57702 0.0
H1868 H 0.07221 0.51959 0.43466 0.0
H1869 H 0.12217 0.53932 0.41407 0.0
H1870 H 0.0739 0.54533 0.52997 0.0
H1871 H 0.07229 0.52823 0.56025 0.0
H1872 H 0.06139 0.52608 0.50289 0.0
H1873 H 0.13447 0.56916 0.50763 0.0
H1874 H 0.14082 0.5578 0.47077 0.0
H1875 H 0.13398 0.55222 0.53498 0.0
C1876 C 0.41989 0.52852 0.62346 0.0
C1877 C 0.43105 0.53249 0.66223 0.0
C1878 C 0.42455 0.5348 0.57451 0.0
C1879 C 0.44075 0.54511 0.56425 0.0
C1880 C 0.45196 0.54967 0.60385 0.0
C1881 C 0.44696 0.54335 0.65243 0.0
C1882 C 0.41225 0.52987 0.53337 0.0
C1883 C 0.46937 0.56061 0.5944 0.0
C1884 C 0.45813 0.54664 0.43497 0.0
C1885 C 0.46146 0.56153 0.41757 0.0
C1886 C 0.45065 0.54081 0.48167 0.0
C1887 C 0.44631 0.55007 0.5115 0.0
C1888 C 0.44877 0.56469 0.49273 0.0
C1889 C 0.4564 0.57029 0.44594 0.0
C1890 C 0.44825 0.52516 0.50038 0.0
C1891 C 0.4441 0.57478 0.52319 0.0
H1892 H 0.40755 0.52019 0.63098 0.0
H1893 H 0.45563 0.54649 0.68232 0.0
H1894 H 0.41379 0.54034 0.51215 0.0
H1895 H 0.4137 0.5221 0.5059 0.0
H1896 H 0.40005 0.52338 0.54877 0.0
H1897 H 0.47641 0.56375 0.62989 0.0
H1898 H 0.47387 0.55487 0.56825 0.0
H1899 H 0.47134 0.57163 0.57592 0.0
H1900 H 0.46196 0.53978 0.41305 0.0
H1901 H 0.45888 0.58179 0.43248 0.0
H1902 H 0.43584 0.51742 0.51255 0.0
H1903 H 0.45587 0.52712 0.53389 0.0
H1904 H 0.45114 0.51887 0.47098 0.0
H1905 H 0.4319 0.56755 0.53793 0.0
H1906 H 0.44482 0.58469 0.50051 0.0
H1907 H 0.45207 0.57978 0.55636 0.0
C1908 C 0.54942 0.79818 0.20063 0.0
C1909 C 0.55594 0.79333 0.16213 0.0
C1910 C 0.54835 0.79273 0.25058 0.0
C1911 C 0.55406 0.78233 0.26199 0.0
C1912 C 0.55967 0.77662 0.22253 0.0
C1913 C 0.56048 0.78215 0.17307 0.0
C1914 C 0.54202 0.79884 0.2915 0.0
C1915 C 0.56582 0.76547 0.23302 0.0
C1916 C 0.57364 0.7835 0.3865 0.0
C1917 C 0.5627 0.76896 0.40784 0.0
C1918 C 0.57048 0.7885 0.34044 0.0
C1919 C 0.55598 0.77876 0.31537 0.0
C1920 C 0.54438 0.76467 0.33875 0.0
C1921 C 0.54791 0.75988 0.38473 0.0
C1922 C 0.58317 0.80364 0.31684 0.0
C1923 C 0.52867 0.75414 0.31366 0.0
H1924 H 0.54581 0.80677 0.19228 0.0
H1925 H 0.5654 0.77825 0.14336 0.0
H1926 H 0.53398 0.78914 0.31717 0.0
H1927 H 0.55197 0.8077 0.31476 0.0
H1928 H 0.53559 0.80453 0.27546 0.0
H1929 H 0.56862 0.7612 0.19767 0.0
H1930 H 0.57671 0.77158 0.25628 0.0
H1931 H 0.55704 0.75511 0.25496 0.0
H1932 H 0.58504 0.79063 0.40442 0.0
H1933 H 0.53936 0.74868 0.40133 0.0
H1934 H 0.5782 0.81111 0.30458 0.0
H1935 H 0.58791 0.80084 0.28262 0.0
H1936 H 0.59312 0.81057 0.34331 0.0
H1937 H 0.52367 0.76123 0.2979 0.0
H1938 H 0.52001 0.74527 0.34044 0.0
H1939 H 0.53034 0.74776 0.28165 0.0
C1940 C 0.21731 0.80035 0.35703 0.0
C1941 C 0.22318 0.79413 0.39325 0.0
C1942 C 0.21043 0.79216 0.31208 0.0
C1943 C 0.20957 0.77748 0.30296 0.0
C1944 C 0.21541 0.7711 0.3395 0.0
C1945 C 0.22208 0.77948 0.38445 0.0
C1946 C 0.20416 0.79926 0.27421 0.0
C1947 C 0.21481 0.75555 0.33079 0.0
C1948 C 0.17969 0.75181 0.20381 0.0
C1949 C 0.18909 0.75597 0.16013 0.0
C1950 C 0.1863 0.75826 0.2511 0.0
C1951 C 0.20271 0.76901 0.2547 0.0
C1952 C 0.21238 0.77259 0.21118 0.0
C1953 C 0.20543 0.76607 0.16428 0.0
C1954 C 0.17561 0.75423 0.29665 0.0
C1955 C 0.22997 0.78384 0.21371 0.0
H1956 H 0.21808 0.81165 0.36383 0.0
H1957 H 0.22667 0.77467 0.41235 0.0
H1958 H 0.21061 0.80146 0.23781 0.0
H1959 H 0.19151 0.79088 0.26637 0.0
H1960 H 0.20536 0.81057 0.28771 0.0
H1961 H 0.21966 0.75211 0.36331 0.0
H1962 H 0.20244 0.74607 0.3242 0.0
H1963 H 0.22164 0.75631 0.2963 0.0
H1964 H 0.16704 0.744 0.20075 0.0
H1965 H 0.21275 0.76925 0.13061 0.0
H1966 H 0.17523 0.76487 0.30909 0.0
H1967 H 0.18027 0.75046 0.32878 0.0
H1968 H 0.16336 0.74469 0.2884 0.0
H1969 H 0.23226 0.79592 0.22217 0.0
H1970 H 0.236 0.78421 0.17763 0.0
H1971 H 0.23529 0.78041 0.24478 0.0
C1972 C 0.22413 0.43356 0.1635 0.0
C1973 C 0.2392 0.43548 0.15685 0.0
C1974 C 0.21852 0.43404 0.21195 0.0
C1975 C 0.22828 0.43662 0.25466 0.0
C1976 C 0.2439 0.43963 0.24784 0.0
C1977 C 0.24917 0.43895 0.19891 0.0
C1978 C 0.20178 0.43077 0.21764 0.0
C1979 C 0.25473 0.44266 0.29241 0.0
C1980 C 0.21311 0.44407 0.37806 0.0
C1981 C 0.20492 0.42879 0.39844 0.0
C1982 C 0.22146 0.44702 0.33229 0.0
C1983 C 0.22145 0.43435 0.30632 0.0
C1984 C 0.21378 0.41905 0.32795 0.0
C1985 C 0.20566 0.41648 0.37385 0.0
C1986 C 0.22971 0.46352 0.3107 0.0
C1987 C 0.21348 0.40522 0.3014 0.0
H1988 H 0.2164 0.43095 0.13106 0.0
H1989 H 0.26088 0.44054 0.19389 0.0
H1990 H 0.19454 0.41925 0.23695 0.0
H1991 H 0.20148 0.43994 0.24154 0.0
H1992 H 0.19622 0.43037 0.18052 0.0
H1993 H 0.26712 0.44702 0.28033 0.0
H1994 H 0.25448 0.45141 0.31855 0.0
H1995 H 0.25061 0.43155 0.31404 0.0
H1996 H 0.21263 0.45363 0.3971 0.0
H1997 H 0.1994 0.40465 0.38954 0.0
H1998 H 0.22333 0.46391 0.27646 0.0
H1999 H 0.24191 0.46697 0.29886 0.0
H2000 H 0.23025 0.47235 0.33831 0.0
H2001 H 0.20694 0.40288 0.2651 0.0
H2002 H 0.20774 0.39429 0.32465 0.0
H2003 H 0.22566 0.40797 0.29218 0.0
C2004 C 0.23739 0.44488 0.86726 0.0
C2005 C 0.22879 0.43153 0.89791 0.0
C2006 C 0.23142 0.44622 0.82027 0.0
C2007 C 0.21657 0.43389 0.80369 0.0
C2008 C 0.2075 0.4208 0.83573 0.0
C2009 C 0.21371 0.41981 0.88252 0.0
C2010 C 0.24134 0.46042 0.78733 0.0
C2011 C 0.19159 0.40741 0.81943 0.0
C2012 C 0.1944 0.43794 0.69195 0.0
C2013 C 0.19784 0.43014 0.65379 0.0
C2014 C 0.20096 0.4399 0.74057 0.0
C2015 C 0.21109 0.43381 0.75114 0.0
C2016 C 0.21508 0.42648 0.71214 0.0
C2017 C 0.20844 0.42478 0.66389 0.0
C2018 C 0.19659 0.44793 0.78109 0.0
C2019 C 0.22582 0.4198 0.72194 0.0
H2020 H 0.24903 0.45401 0.87911 0.0
H2021 H 0.20698 0.4095 0.90618 0.0
H2022 H 0.24579 0.4568 0.75424 0.0
H2023 H 0.23414 0.4654 0.77246 0.0
H2024 H 0.25163 0.46982 0.80816 0.0
H2025 H 0.18552 0.39872 0.85032 0.0
H2026 H 0.18386 0.41204 0.80681 0.0
H2027 H 0.19313 0.40117 0.78674 0.0
H2028 H 0.18626 0.44217 0.68421 0.0
H2029 H 0.21118 0.41879 0.63447 0.0
H2030 H 0.20734 0.45714 0.80044 0.0
H2031 H 0.18916 0.43916 0.81021 0.0
H2032 H 0.18996 0.45346 0.76547 0.0
H2033 H 0.23711 0.42895 0.73883 0.0
H2034 H 0.22848 0.4153 0.68684 0.0
H2035 H 0.22018 0.40996 0.74958 0.0
C2036 C 0.55263 0.77752 0.88847 0.0
C2037 C 0.56745 0.7881 0.90907 0.0
C2038 C 0.55139 0.77004 0.84194 0.0
C2039 C 0.5653 0.77322 0.81572 0.0
C2040 C 0.58026 0.78317 0.83784 0.0
C2041 C 0.58115 0.79051 0.88427 0.0
C2042 C 0.53524 0.75944 0.81961 0.0
C2043 C 0.59536 0.78675 0.81119 0.0
C2044 C 0.56507 0.74865 0.70417 0.0
C2045 C 0.56643 0.75843 0.66333 0.0
C2046 C 0.56406 0.75298 0.75413 0.0
C2047 C 0.56439 0.7674 0.76319 0.0
C2048 C 0.56504 0.77696 0.72189 0.0
C2049 C 0.56607 0.77235 0.67241 0.0
C2050 C 0.56332 0.74249 0.79725 0.0
C2051 C 0.56532 0.79239 0.73004 0.0
H2052 H 0.54201 0.7756 0.9076 0.0
H2053 H 0.59263 0.7986 0.90023 0.0
H2054 H 0.5335 0.76531 0.78625 0.0
H2055 H 0.53421 0.74821 0.80621 0.0
H2056 H 0.52565 0.75669 0.84728 0.0
H2057 H 0.60593 0.7936 0.83544 0.0
H2058 H 0.59492 0.77564 0.79949 0.0
H2059 H 0.59675 0.79366 0.7763 0.0
H2060 H 0.56533 0.73785 0.69728 0.0
H2061 H 0.56704 0.77991 0.64092 0.0
H2062 H 0.55361 0.7403 0.82366 0.0
H2063 H 0.5745 0.74848 0.81914 0.0
H2064 H 0.56154 0.73096 0.78368 0.0
H2065 H 0.55525 0.79052 0.75422 0.0
H2066 H 0.56476 0.79788 0.69382 0.0
H2067 H 0.57632 0.8008 0.75016 0.0
C2068 C 0.20551 0.75703 0.87462 0.0
C2069 C 0.19842 0.76486 0.89752 0.0
C2070 C 0.21381 0.76251 0.82879 0.0
C2071 C 0.21503 0.77615 0.80571 0.0
C2072 C 0.20859 0.78454 0.83015 0.0
C2073 C 0.20033 0.77877 0.8757 0.0
C2074 C 0.22056 0.75329 0.80386 0.0
C2075 C 0.20975 0.79921 0.80697 0.0
C2076 C 0.24304 0.79873 0.69819 0.0
C2077 C 0.2326 0.79383 0.65698 0.0
C2078 C 0.23772 0.79241 0.74675 0.0
C2079 C 0.22164 0.78091 0.75388 0.0
C2080 C 0.21133 0.7752 0.7117 0.0
C2081 C 0.21694 0.78177 0.66376 0.0
C2082 C 0.24906 0.79873 0.79081 0.0
C2083 C 0.19413 0.76284 0.71765 0.0
H2084 H 0.20408 0.74628 0.89148 0.0
H2085 H 0.19497 0.78493 0.89352 0.0
H2086 H 0.21358 0.74732 0.7695 0.0
H2087 H 0.2329 0.76132 0.79151 0.0
H2088 H 0.22037 0.74419 0.82952 0.0
H2089 H 0.20524 0.80504 0.83275 0.0
H2090 H 0.22219 0.80782 0.79721 0.0
H2091 H 0.20282 0.79608 0.77131 0.0
H2092 H 0.25517 0.80804 0.69304 0.0
H2093 H 0.20886 0.77785 0.63188 0.0
H2094 H 0.24791 0.78893 0.81498 0.0
H2095 H 0.24618 0.80628 0.81472 0.0
H2096 H 0.26152 0.80588 0.77808 0.0
H2097 H 0.19293 0.75261 0.73954 0.0
H2098 H 0.18812 0.75854 0.68054 0.0
H2099 H 0.18794 0.76789 0.73915 0.0
C2100 C 0.11185 0.55966 0.93258 0.0
C2101 C 0.09674 0.55659 0.91858 0.0
C2102 C 0.11418 0.55344 0.97766 0.0
C2103 C 0.10108 0.54399 0.00922 0.0
C2104 C 0.08579 0.54066 0.99473 0.0
C2105 C 0.08381 0.547 0.9496 0.0
C2106 C 0.13064 0.55717 0.99192 0.0
C2107 C 0.0715 0.53062 0.02734 0.0
C2108 C 0.10018 0.5157 0.10882 0.0
C2109 C 0.10118 0.52392 0.15345 0.0
C2110 C 0.10118 0.52251 0.06117 0.0
C2111 C 0.1032 0.53787 0.05832 0.0
C2112 C 0.10527 0.5466 0.10326 0.0
C2113 C 0.10424 0.53951 0.15035 0.0
C2114 C 0.09905 0.51289 0.01406 0.0
C2115 C 0.1075 0.56303 0.10177 0.0
H2116 H 0.12188 0.56706 0.90863 0.0
H2117 H 0.0721 0.54456 0.9389 0.0
H2118 H 0.13426 0.56403 0.02771 0.0
H2119 H 0.13086 0.54609 -0.00118 0.0
H2120 H 0.13944 0.56406 0.96211 0.0
H2121 H 0.06038 0.52887 0.01003 0.0
H2122 H 0.07033 0.51887 0.03377 0.0
H2123 H 0.07296 0.53625 0.06498 0.0
H2124 H 0.09792 0.50368 0.11104 0.0
H2125 H 0.10514 0.54596 0.18478 0.0
H2126 H 0.10809 0.52005 0.98527 0.0
H2127 H 0.08731 0.50918 0.99717 0.0
H2128 H 0.09979 0.50213 0.02228 0.0
H2129 H 0.11677 0.57047 0.07398 0.0
H2130 H 0.11079 0.56889 0.1394 0.0
H2131 H 0.09635 0.56239 0.08933 0.0
C2132 C 0.45391 0.54197 0.93893 0.0
C2133 C 0.44023 0.54051 0.91679 0.0
C2134 C 0.45958 0.54985 0.9851 0.0
C2135 C 0.45143 0.55657 0.00946 0.0
C2136 C 0.4382 0.55603 0.98571 0.0
C2137 C 0.43267 0.54791 0.93963 0.0
C2138 C 0.47374 0.55015 0.0092 0.0
C2139 C 0.42941 0.56333 0.01016 0.0
C2140 C 0.45553 0.557 0.15188 0.0
C2141 C 0.46832 0.5722 0.16015 0.0
C2142 C 0.4493 0.55206 0.10319 0.0
C2143 C 0.45594 0.56264 0.06194 0.0
C2144 C 0.46811 0.57836 0.07065 0.0
C2145 C 0.47424 0.58294 0.11975 0.0
C2146 C 0.43633 0.53518 0.09546 0.0
C2147 C 0.47527 0.59005 0.02774 0.0
H2148 H 0.45985 0.53635 0.92127 0.0
H2149 H 0.42213 0.54689 0.92243 0.0
H2150 H 0.48272 0.5624 0.01963 0.0
H2151 H 0.47008 0.54307 0.04459 0.0
H2152 H 0.47934 0.5453 0.98376 0.0
H2153 H 0.42095 0.56399 0.98358 0.0
H2154 H 0.42272 0.55614 0.0434 0.0
H2155 H 0.43778 0.57538 0.0241 0.0
H2156 H 0.45086 0.54869 0.18306 0.0
H2157 H 0.48405 0.59475 0.12609 0.0
H2158 H 0.44098 0.52872 0.07343 0.0
H2159 H 0.4265 0.53479 0.07332 0.0
H2160 H 0.43155 0.52889 0.13191 0.0
H2161 H 0.48273 0.58696 0.00419 0.0
H2162 H 0.48273 0.60232 0.04175 0.0
H2163 H 0.46591 0.58959 0.00284 0.0
C2164 C 0.47637 0.90503 0.01138 0.0
C2165 C 0.4711 0.90808 0.96567 0.0
C2166 C 0.4684 0.9036 0.05692 0.0
C2167 C 0.45502 0.90558 0.05678 0.0
C2168 C 0.44937 0.90821 0.01047 0.0
C2169 C 0.45743 0.90929 0.96527 0.0
C2170 C 0.47462 0.90054 0.10542 0.0
C2171 C 0.43528 0.9106 0.00896 0.0
C2172 C 0.4288 0.89378 0.17373 0.0
C2173 C 0.43515 0.90823 0.19937 0.0
C2174 C 0.43515 0.89267 0.12713 0.0
C2175 C 0.44791 0.90639 0.10559 0.0
C2176 C 0.45421 0.92102 0.13117 0.0
C2177 C 0.44784 0.92173 0.17793 0.0
C2178 C 0.42832 0.87684 0.10121 0.0
C2179 C 0.46768 0.93597 0.10913 0.0
H2180 H 0.48686 0.90391 0.01166 0.0
H2181 H 0.45334 0.91164 0.92991 0.0
H2182 H 0.47943 0.91113 0.13007 0.0
H2183 H 0.46494 0.89062 0.12661 0.0
H2184 H 0.48412 0.89768 0.09835 0.0
H2185 H 0.43168 0.91135 0.96959 0.0
H2186 H 0.42509 0.9008 0.02882 0.0
H2187 H 0.43815 0.92168 0.02911 0.0
H2188 H 0.41899 0.88333 0.19029 0.0
H2189 H 0.45269 0.93296 0.19744 0.0
H2190 H 0.43763 0.87363 0.09625 0.0
H2191 H 0.42402 0.87746 0.06285 0.0
H2192 H 0.41839 0.86731 0.12292 0.0
H2193 H 0.47827 0.93469 0.10502 0.0
H2194 H 0.47083 0.94648 0.13305 0.0
H2195 H 0.46449 0.9381 0.07075 0.0
C2196 C 0.22199 0.36334 0.00737 0.0
C2197 C 0.23135 0.37416 0.04481 0.0
C2198 C 0.21317 0.34713 0.01793 0.0
C2199 C 0.21376 0.34165 0.06707 0.0
C2200 C 0.22371 0.35245 0.10438 0.0
C2201 C 0.23238 0.3686 0.09281 0.0
C2202 C 0.20271 0.33598 0.97712 0.0
C2203 C 0.22471 0.34701 0.15712 0.0
C2204 C 0.1778 0.30393 0.11155 0.0
C2205 C 0.18268 0.2928 0.10488 0.0
C2206 C 0.18784 0.31987 0.09951 0.0
C2207 C 0.20314 0.32479 0.08039 0.0
C2208 C 0.20816 0.31362 0.07367 0.0
C2209 C 0.19785 0.29773 0.08598 0.0
C2210 C 0.18205 0.33144 0.10712 0.0
C2211 C 0.2244 0.31846 0.05341 0.0
H2212 H 0.22117 0.36758 0.97016 0.0
H2213 H 0.23964 0.37693 0.12183 0.0
H2214 H 0.20505 0.32605 0.97262 0.0
H2215 H 0.19014 0.33082 0.98827 0.0
H2216 H 0.20446 0.34195 0.93992 0.0
H2217 H 0.23393 0.35669 0.18045 0.0
H2218 H 0.21316 0.34242 0.17651 0.0
H2219 H 0.22732 0.33722 0.1553 0.0
H2220 H 0.16608 0.30018 0.12616 0.0
H2221 H 0.20167 0.28915 0.08081 0.0
H2222 H 0.18228 0.33715 0.07054 0.0
H2223 H 0.19001 0.34092 0.13356 0.0
H2224 H 0.16985 0.32571 0.12253 0.0
H2225 H 0.22589 0.32375 0.01518 0.0
H2226 H 0.22654 0.30834 0.05082 0.0
H2227 H 0.23355 0.32762 0.07824 0.0
C2228 C 0.69415 0.90145 0.08259 0.0
C2229 C 0.70186 0.89262 0.08427 0.0
C2230 C 0.6778 0.89407 0.0742 0.0
C2231 C 0.66903 0.87751 0.06705 0.0
C2232 C 0.67683 0.8686 0.06782 0.0
C2233 C 0.69314 0.87626 0.07658 0.0
C2234 C 0.66987 0.90392 0.07386 0.0
C2235 C 0.66789 0.85093 0.06005 0.0
C2236 C 0.62521 0.85399 0.09565 0.0
C2237 C 0.61867 0.85099 0.04687 0.0
C2238 C 0.64157 0.86314 0.10286 0.0
C2239 C 0.65163 0.86933 0.06021 0.0
C2240 C 0.64505 0.86679 0.01096 0.0
C2241 C 0.62862 0.85768 0.00488 0.0
C2242 C 0.64814 0.86571 0.15602 0.0
C2243 C 0.65541 0.87315 0.96458 0.0
H2244 H 0.70086 0.9141 0.08856 0.0
H2245 H 0.69906 0.8694 0.07767 0.0
H2246 H 0.66336 0.90216 0.03781 0.0
H2247 H 0.6611 0.9001 0.10502 0.0
H2248 H 0.67844 0.91672 0.07847 0.0
H2249 H 0.6758 0.84582 0.06005 0.0
H2250 H 0.659 0.84519 0.09054 0.0
H2251 H 0.66142 0.848 0.02351 0.0
H2252 H 0.61755 0.84891 0.12825 0.0
H2253 H 0.62361 0.85538 0.96708 0.0
H2254 H 0.65623 0.87848 0.163 0.0
H2255 H 0.65511 0.85968 0.16063 0.0
H2256 H 0.63869 0.86113 0.18524 0.0
H2257 H 0.66369 0.88601 0.96867 0.0
H2258 H 0.64842 0.8711 0.92934 0.0
H2259 H 0.66264 0.86737 0.96052 0.0
C2260 C 0.14254 0.7787 0.02087 0.0
C2261 C 0.13793 0.76358 0.03946 0.0
C2262 C 0.13408 0.7863 0.0334 0.0
C2263 C 0.12077 0.77864 0.06567 0.0
C2264 C 0.1157 0.76313 0.08299 0.0
C2265 C 0.12433 0.75574 0.06949 0.0
C2266 C 0.13977 0.8028 0.01379 0.0
C2267 C 0.10161 0.75463 0.11762 0.0
C2268 C 0.11277 0.80635 0.14377 0.0
C2269 C 0.10051 0.80641 0.11645 0.0
C2270 C 0.11909 0.79693 0.12851 0.0
C2271 C 0.11309 0.78745 0.08459 0.0
C2272 C 0.10043 0.78715 0.05755 0.0
C2273 C 0.09424 0.79662 0.07395 0.0
C2274 C 0.13249 0.79748 0.15862 0.0
C2275 C 0.0938 0.77723 0.01043 0.0
H2276 H 0.15299 0.78475 0.99733 0.0
H2277 H 0.12073 0.74404 0.08391 0.0
H2278 H 0.1299 0.80353 0.99583 0.0
H2279 H 0.14412 0.81127 0.04585 0.0
H2280 H 0.14946 0.80655 0.9857 0.0
H2281 H 0.09834 0.74212 0.12393 0.0
H2282 H 0.10431 0.7607 0.15486 0.0
H2283 H 0.09127 0.75493 0.10168 0.0
H2284 H 0.11759 0.81384 0.17684 0.0
H2285 H 0.08476 0.79665 0.05273 0.0
H2286 H 0.14331 0.80251 0.13492 0.0
H2287 H 0.12959 0.78537 0.16959 0.0
H2288 H 0.13515 0.80474 0.1935 0.0
H2289 H 0.10295 0.78163 0.98036 0.0
H2290 H 0.08328 0.77747 0.99575 0.0
H2291 H 0.09048 0.7648 0.01829 0.0
C2292 C 0.29468 0.1998 0.40723 0.0
C2293 C 0.28933 0.19262 0.35983 0.0
C2294 C 0.31081 0.20769 0.4193 0.0
C2295 C 0.32181 0.20831 0.38316 0.0
C2296 C 0.31652 0.20159 0.33456 0.0
C2297 C 0.30033 0.19385 0.32343 0.0
C2298 C 0.31602 0.21481 0.4714 0.0
C2299 C 0.32789 0.202 0.29504 0.0
C2300 C 0.36555 0.23713 0.40248 0.0
C2301 C 0.37065 0.22732 0.42388 0.0
C2302 C 0.34966 0.23114 0.38909 0.0
C2303 C 0.33867 0.21497 0.39737 0.0
C2304 C 0.34376 0.20504 0.41908 0.0
C2305 C 0.35969 0.21133 0.43206 0.0
C2306 C 0.34465 0.24207 0.366 0.0
C2307 C 0.33238 0.18773 0.42849 0.0
H2308 H 0.28621 0.19892 0.43543 0.0
H2309 H 0.29625 0.18832 0.28671 0.0
H2310 H 0.32075 0.20828 0.49263 0.0
H2311 H 0.32566 0.22726 0.46839 0.0
H2312 H 0.30618 0.21443 0.49362 0.0
H2313 H 0.32205 0.19725 0.25796 0.0
H2314 H 0.33769 0.21427 0.28942 0.0
H2315 H 0.3332 0.1949 0.3082 0.0
H2316 H 0.37399 0.2495 0.39607 0.0
H2317 H 0.36357 0.2037 0.44861 0.0
H2318 H 0.33531 0.24218 0.38958 0.0
H2319 H 0.33953 0.23775 0.32786 0.0
H2320 H 0.35463 0.25436 0.36239 0.0
H2321 H 0.32275 0.18634 0.454 0.0
H2322 H 0.33823 0.18163 0.44581 0.0
H2323 H 0.32685 0.18176 0.39227 0.0
C2324 C 0.77302 0.13291 0.51585 0.0
C2325 C 0.76208 0.13341 0.48273 0.0
C2326 C 0.77975 0.12351 0.50509 0.0
C2327 C 0.77541 0.11442 0.4601 0.0
C2328 C 0.76354 0.11403 0.42836 0.0
C2329 C 0.757 0.12355 0.44008 0.0
C2330 C 0.7923 0.1242 0.54005 0.0
C2331 C 0.75854 0.1044 0.38024 0.0
C2332 C 0.80791 0.10963 0.40009 0.0
C2333 C 0.80387 0.09431 0.41501 0.0
C2334 C 0.79854 0.11614 0.41378 0.0
C2335 C 0.78477 0.10711 0.44313 0.0
C2336 C 0.78044 0.09152 0.45762 0.0
C2337 C 0.79008 0.08529 0.44338 0.0
C2338 C 0.80357 0.13282 0.39757 0.0
C2339 C 0.76582 0.08157 0.48881 0.0
H2340 H 0.77689 0.14042 0.54912 0.0
H2341 H 0.74848 0.12385 0.41449 0.0
H2342 H 0.79004 0.11214 0.5486 0.0
H2343 H 0.80398 0.13068 0.52113 0.0
H2344 H 0.79294 0.13026 0.57631 0.0
H2345 H 0.7477 0.10357 0.36373 0.0
H2346 H 0.76817 0.10995 0.35184 0.0
H2347 H 0.75638 0.0923 0.38739 0.0
H2348 H 0.81853 0.11664 0.37803 0.0
H2349 H 0.7869 0.07342 0.45488 0.0
H2350 H 0.80594 0.14039 0.43148 0.0
H2351 H 0.79393 0.13302 0.37598 0.0
H2352 H 0.81435 0.13807 0.3736 0.0
H2353 H 0.76701 0.08713 0.5264 0.0
H2354 H 0.76365 0.06939 0.49466 0.0
H2355 H 0.75534 0.08088 0.47006 0.0
C2356 C 0.88849 0.69972 0.34254 0.0
C2357 C 0.89717 0.7109 0.37998 0.0
C2358 C 0.88077 0.68351 0.35326 0.0
C2359 C 0.88174 0.6784 0.40263 0.0
C2360 C 0.89097 0.68962 0.44007 0.0
C2361 C 0.8986 0.70576 0.42826 0.0
C2362 C 0.87109 0.67189 0.3123 0.0
C2363 C 0.89228 0.6846 0.49313 0.0
C2364 C 0.8475 0.63925 0.44607 0.0
C2365 C 0.85367 0.62913 0.44045 0.0
C2366 C 0.85657 0.65533 0.43416 0.0
C2367 C 0.87218 0.66142 0.41605 0.0
C2368 C 0.8785 0.65127 0.41035 0.0
C2369 C 0.86915 0.63521 0.4227 0.0
C2370 C 0.84942 0.6658 0.4408 0.0
C2371 C 0.89508 0.65736 0.39103 0.0
H2372 H 0.8874 0.70364 0.30509 0.0
H2373 H 0.90533 0.71437 0.45729 0.0
H2374 H 0.8745 0.6627 0.30839 0.0
H2375 H 0.85841 0.66581 0.32286 0.0
H2376 H 0.87251 0.6777 0.27495 0.0
H2377 H 0.90085 0.69468 0.51667 0.0
H2378 H 0.88056 0.67912 0.51188 0.0
H2379 H 0.89598 0.67558 0.49195 0.0
H2380 H 0.83554 0.63461 0.45985 0.0
H2381 H 0.87396 0.62742 0.41829 0.0
H2382 H 0.84925 0.67116 0.40393 0.0
H2383 H 0.85674 0.6756 0.46719 0.0
H2384 H 0.83718 0.65924 0.45581 0.0
H2385 H 0.89632 0.66247 0.35261 0.0
H2386 H 0.89828 0.64795 0.38916 0.0
H2387 H 0.90366 0.66695 0.41599 0.0
C2388 C 0.80058 0.70598 0.93193 0.0
C2389 C 0.80668 0.71083 0.88299 0.0
C2390 C 0.79198 0.6899 0.94457 0.0
C2391 C 0.78939 0.67844 0.90728 0.0
C2392 C 0.79495 0.68327 0.85726 0.0
C2393 C 0.80356 0.69942 0.84574 0.0
C2394 C 0.78625 0.68519 -0.00168 0.0
C2395 C 0.79235 0.6714 0.81638 0.0
C2396 C 0.78469 0.63927 0.94958 0.0
C2397 C 0.76834 0.62918 0.94544 0.0
C2398 C 0.79163 0.65536 0.93784 0.0
C2399 C 0.78199 0.6615 0.92141 0.0
C2400 C 0.76545 0.65141 0.91752 0.0
C2401 C 0.75881 0.63534 0.92967 0.0
C2402 C 0.80932 0.66575 0.9426 0.0
C2403 C 0.75483 0.65755 0.90002 0.0
H2404 H 0.80295 0.71477 0.96084 0.0
H2405 H 0.80819 0.70311 0.80778 0.0
H2406 H 0.7735 0.67621 -0.00134 0.0
H2407 H 0.79265 0.67977 0.01631 0.0
H2408 H 0.78809 0.69543 0.02168 0.0
H2409 H 0.79631 0.67701 0.77856 0.0
H2410 H 0.79896 0.66525 0.82589 0.0
H2411 H 0.77967 0.66229 0.81408 0.0
H2412 H 0.79211 0.63458 0.96186 0.0
H2413 H 0.74616 0.62757 0.92643 0.0
H2414 H 0.81216 0.67573 0.96866 0.0
H2415 H 0.81449 0.67089 0.90513 0.0
H2416 H 0.81508 0.6592 0.957 0.0
H2417 H 0.75636 0.66737 0.92482 0.0
H2418 H 0.74217 0.64824 0.90014 0.0
H2419 H 0.75814 0.66236 0.86104 0.0
C2420 C 0.36553 0.15097 0.93149 0.0
C2421 C 0.37541 0.14453 0.92563 0.0
C2422 C 0.34945 0.1422 0.91932 0.0
C2423 C 0.34312 0.12663 0.90064 0.0
C2424 C 0.353 0.12 0.89498 0.0
C2425 C 0.36907 0.12904 0.90765 0.0
C2426 C 0.33928 0.14968 0.92603 0.0
C2427 C 0.34664 0.10344 0.87501 0.0
C2428 C 0.29855 0.1015 0.90975 0.0
C2429 C 0.29393 0.10362 0.86146 0.0
C2430 C 0.31459 0.10839 0.92248 0.0
C2431 C 0.32621 0.11755 0.88597 0.0
C2432 C 0.32159 0.11914 0.83648 0.0
C2433 C 0.30549 0.11216 0.82485 0.0
C2434 C 0.31908 0.10644 0.97564 0.0
C2435 C 0.33364 0.12877 0.79645 0.0
H2436 H 0.37036 0.16292 0.94553 0.0
H2437 H 0.37668 0.12402 0.90309 0.0
H2438 H 0.33429 0.15033 0.88894 0.0
H2439 H 0.32921 0.14231 0.95148 0.0
H2440 H 0.34597 0.16178 0.94213 0.0
H2441 H 0.35578 0.09988 0.87409 0.0
H2442 H 0.33666 0.09493 0.89892 0.0
H2443 H 0.34198 0.10258 0.83609 0.0
H2444 H 0.28964 0.09486 0.93813 0.0
H2445 H 0.30197 0.11376 0.78736 0.0
H2446 H 0.32462 0.11799 0.99546 0.0
H2447 H 0.3279 0.10248 0.97464 0.0
H2448 H 0.30871 0.09782 0.99808 0.0
H2449 H 0.33998 0.14139 0.80764 0.0
H2450 H 0.32816 0.12772 0.75872 0.0
H2451 H 0.34257 0.12498 0.79304 0.0
C2452 C 0.88956 0.18789 0.95613 0.0
C2453 C 0.88985 0.18313 0.90622 0.0
C2454 C 0.88235 0.19681 0.96784 0.0
C2455 C 0.87541 0.20117 0.9286 0.0
C2456 C 0.87605 0.19675 0.87795 0.0
C2457 C 0.8832 0.18771 0.8674 0.0
C2458 C 0.88179 0.2012 0.02235 0.0
C2459 C 0.86889 0.2013 0.83503 0.0
C2460 C 0.84226 0.20919 0.96068 0.0
C2461 C 0.85014 0.22573 0.96079 0.0
C2462 C 0.85041 0.20107 0.95099 0.0
C2463 C 0.86681 0.20971 0.94073 0.0
C2464 C 0.87486 0.22642 0.94112 0.0
C2465 C 0.86642 0.23425 0.95137 0.0
C2466 C 0.84144 0.18323 0.95131 0.0
C2467 C 0.89232 0.23601 0.92998 0.0
H2468 H 0.89467 0.18434 0.98626 0.0
H2469 H 0.88346 0.18411 0.82872 0.0
H2470 H 0.8869 0.21416 0.02585 0.0
H2471 H 0.86933 0.19558 0.03518 0.0
H2472 H 0.8883 0.19746 0.04808 0.0
H2473 H 0.87115 0.19768 0.79748 0.0
H2474 H 0.85594 0.19567 0.84053 0.0
H2475 H 0.87373 0.21426 0.83481 0.0
H2476 H 0.82968 0.20255 0.96811 0.0
H2477 H 0.87254 0.24704 0.95132 0.0
H2478 H 0.84688 0.17876 0.97876 0.0
H2479 H 0.8421 0.17871 0.91337 0.0
H2480 H 0.82881 0.1783 0.96146 0.0
H2481 H 0.899 0.23285 0.95693 0.0
H2482 H 0.89687 0.24891 0.93257 0.0
H2483 H 0.89471 0.23325 0.89132 0.0
C2484 C 0.70334 0.79991 0.56215 0.0
C2485 C 0.7094 0.81545 0.57934 0.0
C2486 C 0.68718 0.79033 0.55164 0.0
C2487 C 0.6769 0.79644 0.55884 0.0
C2488 C 0.683 0.81215 0.57583 0.0
C2489 C 0.69918 0.82148 0.58573 0.0
C2490 C 0.68108 0.77365 0.53326 0.0
C2491 C 0.67239 0.81907 0.58415 0.0
C2492 C 0.63684 0.77822 0.49501 0.0
C2493 C 0.62673 0.76968 0.53506 0.0
C2494 C 0.65327 0.78655 0.50168 0.0
C2495 C 0.65969 0.78638 0.54961 0.0
C2496 C 0.64955 0.7774 0.58972 0.0
C2497 C 0.63318 0.76911 0.58191 0.0
C2498 C 0.66373 0.79591 0.45793 0.0
C2499 C 0.65597 0.77699 0.64143 0.0
H2500 H 0.71121 0.79522 0.55705 0.0
H2501 H 0.70382 0.83348 0.59905 0.0
H2502 H 0.67238 0.76516 0.56071 0.0
H2503 H 0.67486 0.77184 0.49657 0.0
H2504 H 0.69069 0.77084 0.52824 0.0
H2505 H 0.67904 0.83155 0.59701 0.0
H2506 H 0.6661 0.81851 0.54854 0.0
H2507 H 0.6633 0.81204 0.61299 0.0
H2508 H 0.6319 0.77864 0.45866 0.0
H2509 H 0.6254 0.76251 0.61296 0.0
H2510 H 0.67306 0.7928 0.45176 0.0
H2511 H 0.66973 0.8087 0.46692 0.0
H2512 H 0.65698 0.79386 0.42215 0.0
H2513 H 0.66507 0.77344 0.63814 0.0
H2514 H 0.64658 0.76871 0.66768 0.0
H2515 H 0.66175 0.78898 0.65838 0.0
C2516 C 0.20615 0.9024 0.60245 0.0
C2517 C 0.19317 0.89541 0.63536 0.0
C2518 C 0.21431 0.89451 0.58908 0.0
C2519 C 0.20936 0.87932 0.60927 0.0
C2520 C 0.19666 0.8725 0.64408 0.0
C2521 C 0.18869 0.88062 0.65663 0.0
C2522 C 0.22782 0.90216 0.55191 0.0
C2523 C 0.19109 0.85637 0.66667 0.0
C2524 C 0.21659 0.85036 0.53493 0.0
C2525 C 0.22929 0.85091 0.56135 0.0
C2526 C 0.21025 0.85983 0.54948 0.0
C2527 C 0.21673 0.87007 0.59159 0.0
C2528 C 0.22976 0.87091 0.61784 0.0
C2529 C 0.2359 0.86132 0.60234 0.0
C2530 C 0.19638 0.85863 0.52043 0.0
C2531 C 0.23696 0.88167 0.66294 0.0
H2532 H 0.20965 0.91384 0.58595 0.0
H2533 H 0.1787 0.8752 0.68228 0.0
H2534 H 0.23841 0.90223 0.56736 0.0
H2535 H 0.22456 0.89521 0.51627 0.0
H2536 H 0.23098 0.91448 0.54271 0.0
H2537 H 0.18176 0.85321 0.69573 0.0
H2538 H 0.18631 0.84732 0.63628 0.0
H2539 H 0.20113 0.85588 0.68432 0.0
H2540 H 0.21146 0.84236 0.50313 0.0
H2541 H 0.24573 0.86179 0.62288 0.0
H2542 H 0.19912 0.87047 0.5068 0.0
H2543 H 0.18596 0.85421 0.54579 0.0
H2544 H 0.19314 0.85058 0.48733 0.0
H2545 H 0.24039 0.89397 0.6526 0.0
H2546 H 0.24753 0.88153 0.67765 0.0
H2547 H 0.22812 0.878 0.69385 0.0
C2548 C 0.13696 0.35911 0.51057 0.0
C2549 C 0.14005 0.37067 0.54725 0.0
C2550 C 0.12729 0.34303 0.52159 0.0
C2551 C 0.12065 0.33842 0.57058 0.0
C2552 C 0.12328 0.35006 0.60723 0.0
C2553 C 0.13293 0.36608 0.59505 0.0
C2554 C 0.12467 0.33097 0.48141 0.0
C2555 C 0.11643 0.34558 0.65993 0.0
C2556 C 0.08783 0.29599 0.58968 0.0
C2557 C 0.09633 0.28897 0.60791 0.0
C2558 C 0.09554 0.31215 0.57776 0.0
C2559 C 0.11208 0.32144 0.58462 0.0
C2560 C 0.12065 0.31442 0.60374 0.0
C2561 C 0.11267 0.29827 0.61498 0.0
C2562 C 0.08606 0.31924 0.55719 0.0
C2563 C 0.13829 0.32395 0.61184 0.0
H2564 H 0.14237 0.36262 0.47344 0.0
H2565 H 0.13527 0.37499 0.62348 0.0
H2566 H 0.13038 0.32412 0.49316 0.0
H2567 H 0.11188 0.32247 0.47692 0.0
H2568 H 0.12958 0.3365 0.44406 0.0
H2569 H 0.11853 0.35602 0.68263 0.0
H2570 H 0.10354 0.33722 0.65803 0.0
H2571 H 0.12183 0.33948 0.68001 0.0
H2572 H 0.07518 0.28882 0.58416 0.0
H2573 H 0.11929 0.29291 0.62929 0.0
H2574 H 0.09024 0.32396 0.51854 0.0
H2575 H 0.08782 0.3293 0.58123 0.0
H2576 H 0.07323 0.31051 0.55538 0.0
H2577 H 0.14432 0.32889 0.5752 0.0
H2578 H 0.14311 0.3168 0.62846 0.0
H2579 H 0.14123 0.33406 0.63741 0.0
C2580 C 0.03065 0.54475 0.76978 0.0
C2581 C 0.04231 0.55892 0.74826 0.0
C2582 C 0.0147 0.53851 0.75733 0.0
C2583 C 0.01032 0.54656 0.7221 0.0
C2584 C 0.02205 0.56082 0.69989 0.0
C2585 C 0.03794 0.56689 0.71347 0.0
C2586 C 0.00251 0.52333 0.78212 0.0
C2587 C 0.01782 0.56963 0.66184 0.0
C2588 C 0.97018 0.52111 0.66177 0.0
C2589 C 0.96059 0.52469 0.69194 0.0
C2590 C 0.98655 0.52868 0.66968 0.0
C2591 C 0.99341 0.53998 0.70895 0.0
C2592 C 0.98385 0.54407 0.73822 0.0
C2593 C 0.96754 0.5364 0.72922 0.0
C2594 C 0.99639 0.52412 0.63739 0.0
C2595 C 0.99074 0.55601 0.78056 0.0
H2596 H 0.03398 0.53858 0.79681 0.0
H2597 H 0.04695 0.57783 0.69664 0.0
H2598 H 0.9938 0.5253 0.803 0.0
H2599 H 0.99593 0.51425 0.75278 0.0
H2600 H 0.00787 0.5186 0.80901 0.0
H2601 H 0.02837 0.58045 0.64757 0.0
H2602 H 0.01157 0.56186 0.62915 0.0
H2603 H 0.00964 0.57304 0.67928 0.0
H2604 H 0.96486 0.51211 0.63273 0.0
H2605 H 0.96016 0.53921 0.75261 0.0
H2606 H 0.00098 0.51793 0.66106 0.0
H2607 H 0.00673 0.53481 0.62167 0.0
H2608 H 0.98951 0.51624 0.60553 0.0
H2609 H 0.99517 0.5514 0.81099 0.0
H2610 H 0.98194 0.55873 0.79723 0.0
H2611 H 0.00094 0.56715 0.76658 0.0
C2612 C 0.43256 0.46895 0.72543 0.0
C2613 C 0.43473 0.47621 0.77283 0.0
C2614 C 0.43964 0.45987 0.71417 0.0
C2615 C 0.44904 0.45801 0.7513 0.0
C2616 C 0.45077 0.46484 0.79984 0.0
C2617 C 0.44361 0.47388 0.80999 0.0
C2618 C 0.43754 0.45276 0.66197 0.0
C2619 C 0.46065 0.46307 0.84048 0.0
C2620 C 0.46018 0.42619 0.73539 0.0
C2621 C 0.47558 0.43497 0.71636 0.0
C2622 C 0.45129 0.43349 0.74659 0.0
C2623 C 0.458 0.44991 0.73835 0.0
C2624 C 0.47349 0.45879 0.7187 0.0
C2625 C 0.48211 0.45121 0.70804 0.0
C2626 C 0.43482 0.42368 0.76768 0.0
C2627 C 0.48104 0.47632 0.7093 0.0
H2628 H 0.42569 0.4707 0.69661 0.0
H2629 H 0.44526 0.47942 0.84679 0.0
H2630 H 0.44906 0.45841 0.64193 0.0
H2631 H 0.43345 0.43997 0.66482 0.0
H2632 H 0.42895 0.45432 0.63871 0.0
H2633 H 0.45988 0.46814 0.87731 0.0
H2634 H 0.45685 0.45042 0.84617 0.0
H2635 H 0.4732 0.46911 0.82842 0.0
H2636 H 0.45509 0.41363 0.74186 0.0
H2637 H 0.494 0.45804 0.69319 0.0
H2638 H 0.42622 0.42479 0.74308 0.0
H2639 H 0.43414 0.42811 0.80576 0.0
H2640 H 0.43121 0.41099 0.7709 0.0
H2641 H 0.47361 0.47872 0.68308 0.0
H2642 H 0.49306 0.48143 0.69281 0.0
H2643 H 0.48187 0.48251 0.74539 0.0
C2644 C 0.54064 0.96773 0.77475 0.0
C2645 C 0.53166 0.96249 0.81928 0.0
C2646 C 0.54901 0.98384 0.76237 0.0
C2647 C 0.54837 0.9949 0.79541 0.0
C2648 C 0.54015 0.98976 0.84197 0.0
C2649 C 0.53187 0.97359 0.85334 0.0
C2650 C 0.55771 0.98888 0.71248 0.0
C2651 C 0.53928 0.00122 0.87836 0.0
C2652 C 0.57605 0.03888 0.77568 0.0
C2653 C 0.56627 0.04313 0.74936 0.0
C2654 C 0.57047 0.02318 0.79064 0.0
C2655 C 0.55477 0.01152 0.77889 0.0
C2656 C 0.54491 0.01575 0.75189 0.0
C2657 C 0.55078 0.0315 0.73749 0.0
C2658 C 0.58129 0.01908 0.81936 0.0
C2659 C 0.52809 0.00365 0.73857 0.0
H2660 H 0.54055 0.95919 0.74835 0.0
H2661 H 0.52501 0.9696 0.88797 0.0
H2662 H 0.55136 0.9927 0.68637 0.0
H2663 H 0.56975 -0.0009 0.71797 0.0
H2664 H 0.55867 0.97918 0.69406 0.0
H2665 H 0.53395 0.9956 0.91525 0.0
H2666 H 0.55122 0.01144 0.88539 0.0
H2667 H 0.53203 0.00587 0.86144 0.0
H2668 H 0.58804 0.04784 0.78491 0.0
H2669 H 0.54319 0.03472 0.71708 0.0
H2670 H 0.58234 0.00972 0.79902 0.0
H2671 H 0.57623 0.01432 0.85725 0.0
H2672 H 0.59329 0.02945 0.82446 0.0
H2673 H 0.52788 0.994 0.71582 0.0
H2674 H 0.52207 0.00883 0.71672 0.0
H2675 H 0.52124 0.99826 0.77367 0.0
C2676 C 0.47757 0.02984 0.23796 0.0
C2677 C 0.47344 0.04137 0.24791 0.0
C2678 C 0.46766 0.0141 0.25239 0.0
C2679 C 0.45326 0.00979 0.27749 0.0
C2680 C 0.44893 0.02134 0.28726 0.0
C2681 C 0.45909 0.03704 0.27229 0.0
C2682 C 0.47268 0.0021 0.24115 0.0
C2683 C 0.43367 0.01716 0.31394 0.0
C2684 C 0.42414 0.96586 0.27296 0.0
C2685 C 0.42759 0.9608 0.31845 0.0
C2686 C 0.43174 0.98195 0.26034 0.0
C2687 C 0.443 0.99318 0.29411 0.0
C2688 C 0.44569 0.98821 0.34161 0.0
C2689 C 0.43795 0.97205 0.3532 0.0
C2690 C 0.4285 0.9868 0.20943 0.0
C2691 C 0.45752 -0.00016 0.37882 0.0
H2692 H 0.48864 0.03313 0.21905 0.0
H2693 H 0.45585 0.04593 0.28006 0.0
H2694 H 0.47385 0.99686 0.27705 0.0
H2695 H 0.46355 0.99234 0.21796 0.0
H2696 H 0.48412 0.00733 0.22057 0.0
H2697 H 0.43185 0.02745 0.31756 0.0
H2698 H 0.42354 0.00766 0.29299 0.0
H2699 H 0.43363 0.01255 0.35239 0.0
H2700 H 0.41609 0.95721 0.24602 0.0
H2701 H 0.44059 0.9682 0.38855 0.0
H2702 H 0.43893 0.99062 0.18446 0.0
H2703 H 0.42653 0.99696 0.21357 0.0
H2704 H 0.41806 0.97698 0.19046 0.0
H2705 H 0.46963 0.00456 0.36352 0.0
H2706 H 0.45686 0.99435 0.41627 0.0
H2707 H 0.45559 0.00999 0.38434 0.0
C2708 C 0.02935 0.47949 0.27211 0.0
C2709 C 0.0391 0.47317 0.26107 0.0
C2710 C 0.01311 0.47092 0.26221 0.0
C2711 C 0.00646 0.45569 0.24042 0.0
C2712 C 0.01621 0.44918 0.22949 0.0
C2713 C 0.03245 0.458 0.24011 0.0
C2714 C 0.00309 0.47824 0.27465 0.0
C2715 C 0.00953 0.43301 0.206 0.0
C2716 C 0.96202 0.43019 0.25426 0.0
C2717 C 0.95678 0.43319 0.20837 0.0
C2718 C 0.97821 0.43697 0.26455 0.0
C2719 C 0.98936 0.44688 0.22792 0.0
C2720 C 0.98411 0.44936 0.18065 0.0
C2721 C 0.96787 0.44253 0.17152 0.0
C2722 C 0.98338 0.43409 0.31543 0.0
C2723 C 0.99564 0.45976 0.14048 0.0
H2724 H 0.03443 0.49119 0.28852 0.0
H2725 H 0.03995 0.45308 0.23153 0.0
H2726 H 0.99764 0.4796 0.23953 0.0
H2727 H 0.99334 0.47039 0.30048 0.0
H2728 H 0.01001 0.49 0.29284 0.0
H2729 H 0.01862 0.42949 0.201 0.0
H2730 H -0.00012 0.42408 0.23001 0.0
H2731 H 0.00434 0.43284 0.16844 0.0
H2732 H 0.95348 0.42296 0.28283 0.0
H2733 H 0.96387 0.44479 0.13584 0.0
H2734 H 0.98923 0.44527 0.33731 0.0
H2735 H 0.99214 0.43015 0.31044 0.0
H2736 H 0.9733 0.42508 0.33804 0.0
H2737 H 0.00215 0.47215 0.15408 0.0
H2738 H 0.98967 0.45942 0.10429 0.0
H2739 H 0.00449 0.45607 0.133 0.0
C2740 C 0.5683 0.53323 0.2331 0.0
C2741 C 0.55874 0.51731 0.21979 0.0
C2742 C 0.56164 0.54273 0.24371 0.0
C2743 C 0.54507 0.53613 0.24083 0.0
C2744 C 0.53538 0.52005 0.22751 0.0
C2745 C 0.54234 0.51083 0.21719 0.0
C2746 C 0.57232 0.55982 0.25794 0.0
C2747 C 0.51765 0.51259 0.22403 0.0
C2748 C 0.52462 0.55479 0.31067 0.0
C2749 C 0.52156 0.56248 0.27119 0.0
C2750 C 0.53268 0.54654 0.30159 0.0
C2751 C 0.53776 0.54595 0.25182 0.0
C2752 C 0.5351 0.55408 0.21208 0.0
C2753 C 0.52704 0.56227 0.22227 0.0
C2754 C 0.53535 0.53807 0.34497 0.0
C2755 C 0.54034 0.55371 0.15851 0.0
H2756 H 0.58099 0.53828 0.23515 0.0
H2757 H 0.5349 0.49853 0.20688 0.0
H2758 H 0.57084 0.56758 0.23053 0.0
H2759 H 0.56903 0.56215 0.29586 0.0
H2760 H 0.58497 0.56312 0.25868 0.0
H2761 H 0.5118 0.49994 0.2131 0.0
H2762 H 0.5128 0.51354 0.26105 0.0
H2763 H 0.51453 0.51898 0.19571 0.0
H2764 H 0.52044 0.55495 0.34859 0.0
H2765 H 0.52471 0.56822 0.19164 0.0
H2766 H 0.54804 0.54167 0.34757 0.0
H2767 H 0.52871 0.52515 0.33807 0.0
H2768 H 0.53152 0.54047 0.38191 0.0
H2769 H 0.55312 0.55761 0.15778 0.0
H2770 H 0.53816 0.56135 0.13253 0.0
H2771 H 0.53392 0.54143 0.14389 0.0
loop_
_geom_bond_atom_site_label_1
_geom_bond_atom_site_label_2
_geom_bond_distance
_geom_bond_site_symmetry_2
_ccdc_geom_bond_type
In0 O1 2.294 . S
In0 O2 2.326 . S
In0 O6 2.266 . S
In0 O7 2.326 . S
In0 O8 2.266 . S
In0 O9 2.326 . S
In0 O11 2.294 . S
In0 O12 2.326 . S
O1 In0 2.294 . S
O1 C10 1.240 . S
O2 In0 2.326 . S
O2 C10 1.252 . S
C3 O6 1.252 . S
C3 O7 1.260 . S
C4 O11 1.240 . S
C4 O12 1.252 . S
C5 O8 1.252 . S
C5 O9 1.260 . S
O6 In0 2.266 . S
O6 C3 1.252 . S
O7 In0 2.326 . S
O7 C3 1.260 . S
O8 In0 2.266 . S
O8 C5 1.252 . S
O9 In0 2.326 . S
O9 C5 1.260 . S
C10 O1 1.240 . S
C10 O2 1.252 . S
O11 In0 2.294 . S
O11 C4 1.240 . S
O12 In0 2.326 . S
O12 C4 1.252 . S
In13 O14 2.294 . S
In13 O15 2.326 . S
In13 O19 2.266 . S
In13 O20 2.326 . S
In13 O21 2.266 . S
In13 O22 2.326 . S
In13 O24 2.294 . S
In13 O25 2.326 . S
O14 In13 2.294 . S
O14 C23 1.240 . S
O15 In13 2.326 . S
O15 C23 1.252 . S
C16 O19 1.252 . S
C16 O20 1.260 . S
C17 O24 1.240 . S
C17 O25 1.252 . S
C18 O21 1.252 . S
C18 O22 1.260 . S
O19 In13 2.266 . S
O19 C16 1.252 . S
O20 In13 2.326 . S
O20 C16 1.260 . S
O21 In13 2.266 . S
O21 C18 1.252 . S
O22 In13 2.326 . S
O22 C18 1.260 . S
C23 O14 1.240 . S
C23 O15 1.252 . S
O24 In13 2.294 . S
O24 C17 1.240 . S
O25 In13 2.326 . S
O25 C17 1.252 . S
In26 O27 2.294 . S
In26 O28 2.326 . S
In26 O32 2.266 . S
In26 O33 2.326 . S
In26 O34 2.266 . S
In26 O35 2.326 . S
In26 O37 2.294 . S
In26 O38 2.326 . S
O27 In26 2.294 . S
O27 C36 1.240 . S
O28 In26 2.326 . S
O28 C36 1.252 . S
C29 O32 1.252 . S
C29 O33 1.260 . S
C30 O37 1.240 . S
C30 O38 1.252 . S
C31 O34 1.252 . S
C31 O35 1.260 . S
O32 In26 2.266 . S
O32 C29 1.252 . S
O33 In26 2.326 . S
O33 C29 1.260 . S
O34 In26 2.266 . S
O34 C31 1.252 . S
O35 In26 2.326 . S
O35 C31 1.260 . S
C36 O27 1.240 . S
C36 O28 1.252 . S
O37 In26 2.294 . S
O37 C30 1.240 . S
O38 In26 2.326 . S
O38 C30 1.252 . S
In39 O40 2.294 . S
In39 O41 2.326 . S
In39 O45 2.266 . S
In39 O46 2.326 . S
In39 O47 2.266 . S
In39 O48 2.326 . S
In39 O50 2.294 . S
In39 O51 2.326 . S
O40 In39 2.294 . S
O40 C49 1.240 . S
O41 In39 2.326 . S
O41 C49 1.252 . S
C42 O45 1.252 . S
C42 O46 1.260 . S
C43 O50 1.240 . S
C43 O51 1.252 . S
C44 O47 1.252 . S
C44 O48 1.260 . S
O45 In39 2.266 . S
O45 C42 1.252 . S
O46 In39 2.326 . S
O46 C42 1.260 . S
O47 In39 2.266 . S
O47 C44 1.252 . S
O48 In39 2.326 . S
O48 C44 1.260 . S
C49 O40 1.240 . S
C49 O41 1.252 . S
O50 In39 2.294 . S
O50 C43 1.240 . S
O51 In39 2.326 . S
O51 C43 1.252 . S
In52 O53 2.294 . S
In52 O54 2.326 . S
In52 O58 2.266 . S
In52 O59 2.326 . S
In52 O60 2.266 . S
In52 O61 2.326 . S
In52 O63 2.294 . S
In52 O64 2.326 . S
O53 In52 2.294 . S
O53 C62 1.240 . S
O54 In52 2.326 . S
O54 C62 1.252 . S
C55 O58 1.252 . S
C55 O59 1.260 . S
C56 O63 1.240 . S
C56 O64 1.252 . S
C57 O60 1.252 . S
C57 O61 1.260 . S
O58 In52 2.266 . S
O58 C55 1.252 . S
O59 In52 2.326 . S
O59 C55 1.260 . S
O60 In52 2.266 . S
O60 C57 1.252 . S
O61 In52 2.326 . S
O61 C57 1.260 . S
C62 O53 1.240 . S
C62 O54 1.252 . S
O63 In52 2.294 . S
O63 C56 1.240 . S
O64 In52 2.326 . S
O64 C56 1.252 . S
In65 O66 2.294 . S
In65 O67 2.326 . S
In65 O71 2.266 . S
In65 O72 2.326 . S
In65 O73 2.266 . S
In65 O74 2.326 . S
In65 O76 2.294 . S
In65 O77 2.326 . S
O66 In65 2.294 . S
O66 C75 1.240 . S
O67 In65 2.326 . S
O67 C75 1.252 . S
C68 O71 1.252 . S
C68 O72 1.260 . S
C69 O76 1.240 . S
C69 O77 1.252 . S
C70 O73 1.252 . S
C70 O74 1.260 . S
O71 In65 2.266 . S
O71 C68 1.252 . S
O72 In65 2.326 . S
O72 C68 1.260 . S
O73 In65 2.266 . S
O73 C70 1.252 . S
O74 In65 2.326 . S
O74 C70 1.260 . S
C75 O66 1.240 . S
C75 O67 1.252 . S
O76 In65 2.294 . S
O76 C69 1.240 . S
O77 In65 2.326 . S
O77 C69 1.252 . S
In78 O79 2.294 . S
In78 O80 2.326 . S
In78 O84 2.266 . S
In78 O85 2.326 . S
In78 O86 2.266 . S
In78 O87 2.326 . S
In78 O89 2.294 . S
In78 O90 2.326 . S
O79 In78 2.294 . S
O79 C88 1.240 . S
O80 In78 2.326 . S
O80 C88 1.252 . S
C81 O84 1.252 . S
C81 O85 1.260 . S
C82 O89 1.240 . S
C82 O90 1.252 . S
C83 O86 1.252 . S
C83 O87 1.260 . S
O84 In78 2.266 . S
O84 C81 1.252 . S
O85 In78 2.326 . S
O85 C81 1.260 . S
O86 In78 2.266 . S
O86 C83 1.252 . S
O87 In78 2.326 . S
O87 C83 1.260 . S
C88 O79 1.240 . S
C88 O80 1.252 . S
O89 In78 2.294 . S
O89 C82 1.240 . S
O90 In78 2.326 . S
O90 C82 1.252 . S
In91 O92 2.294 . S
In91 O93 2.326 . S
In91 O97 2.266 . S
In91 O98 2.326 . S
In91 O99 2.266 . S
In91 O100 2.326 . S
In91 O102 2.294 . S
In91 O103 2.326 . S
O92 In91 2.294 . S
O92 C101 1.240 . S
O93 In91 2.326 . S
O93 C101 1.252 . S
C94 O97 1.252 . S
C94 O98 1.260 . S
C95 O102 1.240 . S
C95 O103 1.252 . S
C96 O99 1.252 . S
C96 O100 1.260 . S
O97 In91 2.266 . S
O97 C94 1.252 . S
O98 In91 2.326 . S
O98 C94 1.260 . S
O99 In91 2.266 . S
O99 C96 1.252 . S
O100 In91 2.326 . S
O100 C96 1.260 . S
C101 O92 1.240 . S
C101 O93 1.252 . S
O102 In91 2.294 . S
O102 C95 1.240 . S
O103 In91 2.326 . S
O103 C95 1.252 . S
In104 O105 2.294 . S
In104 O106 2.326 . S
In104 O110 2.266 . S
In104 O111 2.326 . S
In104 O112 2.266 . S
In104 O113 2.326 . S
In104 O115 2.294 . S
In104 O116 2.326 . S
O105 In104 2.294 . S
O105 C114 1.240 . S
O106 In104 2.326 . S
O106 C114 1.252 . S
C107 O110 1.252 . S
C107 O111 1.260 . S
C108 O115 1.240 . S
C108 O116 1.252 . S
C109 O112 1.252 . S
C109 O113 1.260 . S
O110 In104 2.266 . S
O110 C107 1.252 . S
O111 In104 2.326 . S
O111 C107 1.260 . S
O112 In104 2.266 . S
O112 C109 1.252 . S
O113 In104 2.326 . S
O113 C109 1.260 . S
C114 O105 1.240 . S
C114 O106 1.252 . S
O115 In104 2.294 . S
O115 C108 1.240 . S
O116 In104 2.326 . S
O116 C108 1.252 . S
In117 O118 2.294 . S
In117 O119 2.326 . S
In117 O123 2.266 . S
In117 O124 2.326 . S
In117 O125 2.266 . S
In117 O126 2.326 . S
In117 O128 2.294 . S
In117 O129 2.326 . S
O118 In117 2.294 . S
O118 C127 1.240 . S
O119 In117 2.326 . S
O119 C127 1.252 . S
C120 O123 1.252 . S
C120 O124 1.260 . S
C121 O128 1.240 . S
C121 O129 1.252 . S
C122 O125 1.252 . S
C122 O126 1.260 . S
O123 In117 2.266 . S
O123 C120 1.252 . S
O124 In117 2.326 . S
O124 C120 1.260 . S
O125 In117 2.266 . S
O125 C122 1.252 . S
O126 In117 2.326 . S
O126 C122 1.260 . S
C127 O118 1.240 . S
C127 O119 1.252 . S
O128 In117 2.294 . S
O128 C121 1.240 . S
O129 In117 2.326 . S
O129 C121 1.252 . S
In130 O131 2.294 . S
In130 O132 2.326 . S
In130 O136 2.266 . S
In130 O137 2.326 . S
In130 O138 2.266 . S
In130 O139 2.326 . S
In130 O141 2.294 . S
In130 O142 2.326 . S
O131 In130 2.294 . S
O131 C140 1.240 . S
O132 In130 2.326 . S
O132 C140 1.252 . S
C133 O136 1.252 . S
C133 O137 1.260 . S
C134 O141 1.240 . S
C134 O142 1.252 . S
C135 O138 1.252 . S
C135 O139 1.260 . S
O136 In130 2.266 . S
O136 C133 1.252 . S
O137 In130 2.326 . S
O137 C133 1.260 . S
O138 In130 2.266 . S
O138 C135 1.252 . S
O139 In130 2.326 . S
O139 C135 1.260 . S
C140 O131 1.240 . S
C140 O132 1.252 . S
O141 In130 2.294 . S
O141 C134 1.240 . S
O142 In130 2.326 . S
O142 C134 1.252 . S
In143 O144 2.294 . S
In143 O145 2.326 . S
In143 O149 2.266 . S
In143 O150 2.326 . S
In143 O151 2.266 . S
In143 O152 2.326 . S
In143 O154 2.294 . S
In143 O155 2.326 . S
O144 In143 2.294 . S
O144 C153 1.240 . S
O145 In143 2.326 . S
O145 C153 1.252 . S
C146 O149 1.252 . S
C146 O150 1.260 . S
C147 O154 1.240 . S
C147 O155 1.252 . S
C148 O151 1.252 . S
C148 O152 1.260 . S
O149 In143 2.266 . S
O149 C146 1.252 . S
O150 In143 2.326 . S
O150 C146 1.260 . S
O151 In143 2.266 . S
O151 C148 1.252 . S
O152 In143 2.326 . S
O152 C148 1.260 . S
C153 O144 1.240 . S
C153 O145 1.252 . S
O154 In143 2.294 . S
O154 C147 1.240 . S
O155 In143 2.326 . S
O155 C147 1.252 . S
In156 O157 2.294 . S
In156 O158 2.326 . S
In156 O162 2.266 . S
In156 O163 2.326 . S
In156 O164 2.266 . S
In156 O165 2.326 . S
In156 O167 2.294 . S
In156 O168 2.326 . S
O157 In156 2.294 . S
O157 C166 1.240 . S
O158 In156 2.326 . S
O158 C166 1.252 . S
C159 O162 1.252 . S
C159 O163 1.260 . S
C160 O167 1.240 . S
C160 O168 1.252 . S
C161 O164 1.252 . S
C161 O165 1.260 . S
O162 In156 2.266 . S
O162 C159 1.252 . S
O163 In156 2.326 . S
O163 C159 1.260 . S
O164 In156 2.266 . S
O164 C161 1.252 . S
O165 In156 2.326 . S
O165 C161 1.260 . S
C166 O157 1.240 . S
C166 O158 1.252 . S
O167 In156 2.294 . S
O167 C160 1.240 . S
O168 In156 2.326 . S
O168 C160 1.252 . S
In169 O170 2.294 . S
In169 O171 2.326 . S
In169 O175 2.266 . S
In169 O176 2.326 . S
In169 O177 2.266 . S
In169 O178 2.326 . S
In169 O180 2.294 . S
In169 O181 2.326 . S
O170 In169 2.294 . S
O170 C179 1.240 . S
O171 In169 2.326 . S
O171 C179 1.252 . S
C172 O175 1.252 . S
C172 O176 1.260 . S
C173 O180 1.240 . S
C173 O181 1.252 . S
C174 O177 1.252 . S
C174 O178 1.260 . S
O175 In169 2.266 . S
O175 C172 1.252 . S
O176 In169 2.326 . S
O176 C172 1.260 . S
O177 In169 2.266 . S
O177 C174 1.252 . S
O178 In169 2.326 . S
O178 C174 1.260 . S
C179 O170 1.240 . S
C179 O171 1.252 . S
O180 In169 2.294 . S
O180 C173 1.240 . S
O181 In169 2.326 . S
O181 C173 1.252 . S
In182 O183 2.294 . S
In182 O184 2.326 . S
In182 O188 2.266 . S
In182 O189 2.326 . S
In182 O190 2.266 . S
In182 O191 2.326 . S
In182 O193 2.294 . S
In182 O194 2.326 . S
O183 In182 2.294 . S
O183 C192 1.240 . S
O184 In182 2.326 . S
O184 C192 1.252 . S
C185 O188 1.252 . S
C185 O189 1.260 . S
C186 O193 1.240 . S
C186 O194 1.252 . S
C187 O190 1.252 . S
C187 O191 1.260 . S
O188 In182 2.266 . S
O188 C185 1.252 . S
O189 In182 2.326 . S
O189 C185 1.260 . S
O190 In182 2.266 . S
O190 C187 1.252 . S
O191 In182 2.326 . S
O191 C187 1.260 . S
C192 O183 1.240 . S
C192 O184 1.252 . S
O193 In182 2.294 . S
O193 C186 1.240 . S
O194 In182 2.326 . S
O194 C186 1.252 . S
In195 O196 2.294 . S
In195 O197 2.326 . S
In195 O201 2.266 . S
In195 O202 2.326 . S
In195 O203 2.266 . S
In195 O204 2.326 . S
In195 O206 2.294 . S
In195 O207 2.326 . S
O196 In195 2.294 . S
O196 C205 1.240 . S
O197 In195 2.326 . S
O197 C205 1.252 . S
C198 O201 1.252 . S
C198 O202 1.260 . S
C199 O206 1.240 . S
C199 O207 1.252 . S
C200 O203 1.252 . S
C200 O204 1.260 . S
O201 In195 2.266 . S
O201 C198 1.252 . S
O202 In195 2.326 . S
O202 C198 1.260 . S
O203 In195 2.266 . S
O203 C200 1.252 . S
O204 In195 2.326 . S
O204 C200 1.260 . S
C205 O196 1.240 . S
C205 O197 1.252 . S
O206 In195 2.294 . S
O206 C199 1.240 . S
O207 In195 2.326 . S
O207 C199 1.252 . S
In208 O209 2.294 . S
In208 O210 2.326 . S
In208 O214 2.266 . S
In208 O215 2.326 . S
In208 O216 2.266 . S
In208 O217 2.326 . S
In208 O219 2.294 . S
In208 O220 2.326 . S
O209 In208 2.294 . S
O209 C218 1.240 . S
O210 In208 2.326 . S
O210 C218 1.252 . S
C211 O214 1.252 . S
C211 O215 1.260 . S
C212 O219 1.240 . S
C212 O220 1.252 . S
C213 O216 1.252 . S
C213 O217 1.260 . S
O214 In208 2.266 . S
O214 C211 1.252 . S
O215 In208 2.326 . S
O215 C211 1.260 . S
O216 In208 2.266 . S
O216 C213 1.252 . S
O217 In208 2.326 . S
O217 C213 1.260 . S
C218 O209 1.240 . S
C218 O210 1.252 . S
O219 In208 2.294 . S
O219 C212 1.240 . S
O220 In208 2.326 . S
O220 C212 1.252 . S
In221 O222 2.294 . S
In221 O223 2.326 . S
In221 O227 2.266 . S
In221 O228 2.326 . S
In221 O229 2.266 . S
In221 O230 2.326 . S
In221 O232 2.294 . S
In221 O233 2.326 . S
O222 In221 2.294 . S
O222 C231 1.240 . S
O223 In221 2.326 . S
O223 C231 1.252 . S
C224 O227 1.252 . S
C224 O228 1.260 . S
C225 O232 1.240 . S
C225 O233 1.252 . S
C226 O229 1.252 . S
C226 O230 1.260 . S
O227 In221 2.266 . S
O227 C224 1.252 . S
O228 In221 2.326 . S
O228 C224 1.260 . S
O229 In221 2.266 . S
O229 C226 1.252 . S
O230 In221 2.326 . S
O230 C226 1.260 . S
C231 O222 1.240 . S
C231 O223 1.252 . S
O232 In221 2.294 . S
O232 C225 1.240 . S
O233 In221 2.326 . S
O233 C225 1.252 . S
In234 O235 2.294 . S
In234 O236 2.326 . S
In234 O240 2.266 . S
In234 O241 2.326 . S
In234 O242 2.266 . S
In234 O243 2.326 . S
In234 O245 2.294 . S
In234 O246 2.326 . S
O235 In234 2.294 . S
O235 C244 1.240 . S
O236 In234 2.326 . S
O236 C244 1.252 . S
C237 O240 1.252 . S
C237 O241 1.260 . S
C238 O245 1.240 . S
C238 O246 1.252 . S
C239 O242 1.252 . S
C239 O243 1.260 . S
O240 In234 2.266 . S
O240 C237 1.252 . S
O241 In234 2.326 . S
O241 C237 1.260 . S
O242 In234 2.266 . S
O242 C239 1.252 . S
O243 In234 2.326 . S
O243 C239 1.260 . S
C244 O235 1.240 . S
C244 O236 1.252 . S
O245 In234 2.294 . S
O245 C238 1.240 . S
O246 In234 2.326 . S
O246 C238 1.252 . S
In247 O248 2.294 . S
In247 O249 2.326 . S
In247 O253 2.266 . S
In247 O254 2.326 . S
In247 O255 2.266 . S
In247 O256 2.326 . S
In247 O258 2.294 . S
In247 O259 2.326 . S
O248 In247 2.294 . S
O248 C257 1.240 . S
O249 In247 2.326 . S
O249 C257 1.252 . S
C250 O253 1.252 . S
C250 O254 1.260 . S
C251 O258 1.240 . S
C251 O259 1.252 . S
C252 O255 1.252 . S
C252 O256 1.260 . S
O253 In247 2.266 . S
O253 C250 1.252 . S
O254 In247 2.326 . S
O254 C250 1.260 . S
O255 In247 2.266 . S
O255 C252 1.252 . S
O256 In247 2.326 . S
O256 C252 1.260 . S
C257 O248 1.240 . S
C257 O249 1.252 . S
O258 In247 2.294 . S
O258 C251 1.240 . S
O259 In247 2.326 . S
O259 C251 1.252 . S
In260 O261 2.294 . S
In260 O262 2.326 . S
In260 O266 2.266 . S
In260 O267 2.326 . S
In260 O268 2.266 . S
In260 O269 2.326 . S
In260 O271 2.294 . S
In260 O272 2.326 . S
O261 In260 2.294 . S
O261 C270 1.240 . S
O262 In260 2.326 . S
O262 C270 1.252 . S
C263 O266 1.252 . S
C263 O267 1.260 . S
C264 O271 1.240 . S
C264 O272 1.252 . S
C265 O268 1.252 . S
C265 O269 1.260 . S
O266 In260 2.266 . S
O266 C263 1.252 . S
O267 In260 2.326 . S
O267 C263 1.260 . S
O268 In260 2.266 . S
O268 C265 1.252 . S
O269 In260 2.326 . S
O269 C265 1.260 . S
C270 O261 1.240 . S
C270 O262 1.252 . S
O271 In260 2.294 . S
O271 C264 1.240 . S
O272 In260 2.326 . S
O272 C264 1.252 . S
In273 O274 2.297 . S
In273 O275 2.328 . S
In273 O279 2.266 1_554 S
In273 O280 2.323 1_554 S
In273 O281 2.263 1_554 S
In273 O282 2.324 1_554 S
In273 O284 2.294 . S
In273 O285 2.329 . S
O274 In273 2.297 . S
O274 C283 1.240 . S
O275 In273 2.328 . S
O275 C283 1.252 . S
C276 O279 1.252 . S
C276 O280 1.260 . S
C277 O284 1.240 . S
C277 O285 1.252 . S
C278 O281 1.252 . S
C278 O282 1.260 . S
O279 In273 2.266 1_556 S
O279 C276 1.252 . S
O280 In273 2.323 1_556 S
O280 C276 1.260 . S
O281 In273 2.263 1_556 S
O281 C278 1.252 . S
O282 In273 2.324 1_556 S
O282 C278 1.260 . S
C283 O274 1.240 . S
C283 O275 1.252 . S
O284 In273 2.294 . S
O284 C277 1.240 . S
O285 In273 2.329 . S
O285 C277 1.252 . S
In286 O287 2.294 . S
In286 O288 2.329 . S
In286 O292 2.263 1_554 S
In286 O293 2.324 1_554 S
In286 O294 2.266 1_554 S
In286 O295 2.323 1_554 S
In286 O297 2.297 . S
In286 O298 2.328 . S
O287 In286 2.294 . S
O287 C296 1.240 . S
O288 In286 2.329 . S
O288 C296 1.252 . S
C289 O292 1.252 . S
C289 O293 1.260 . S
C290 O297 1.240 . S
C290 O298 1.252 . S
C291 O294 1.252 . S
C291 O295 1.260 . S
O292 In286 2.263 1_556 S
O292 C289 1.252 . S
O293 In286 2.324 1_556 S
O293 C289 1.260 . S
O294 In286 2.266 1_556 S
O294 C291 1.252 . S
O295 In286 2.323 1_556 S
O295 C291 1.260 . S
C296 O287 1.240 . S
C296 O288 1.252 . S
O297 In286 2.297 . S
O297 C290 1.240 . S
O298 In286 2.328 . S
O298 C290 1.252 . S
In299 O300 2.294 . S
In299 O301 2.329 . S
In299 O305 2.263 1_554 S
In299 O306 2.324 1_554 S
In299 O307 2.266 1_554 S
In299 O308 2.323 1_554 S
In299 O310 2.297 . S
In299 O311 2.328 . S
O300 In299 2.294 . S
O300 C309 1.240 . S
O301 In299 2.329 . S
O301 C309 1.252 . S
C302 O305 1.252 . S
C302 O306 1.260 . S
C303 O310 1.240 . S
C303 O311 1.252 . S
C304 O307 1.252 . S
C304 O308 1.260 . S
O305 In299 2.263 1_556 S
O305 C302 1.252 . S
O306 In299 2.324 1_556 S
O306 C302 1.260 . S
O307 In299 2.266 1_556 S
O307 C304 1.252 . S
O308 In299 2.323 1_556 S
O308 C304 1.260 . S
C309 O300 1.240 . S
C309 O301 1.252 . S
O310 In299 2.297 . S
O310 C303 1.240 . S
O311 In299 2.328 . S
O311 C303 1.252 . S
In312 O313 2.294 . S
In312 O314 2.326 . S
In312 O318 2.266 . S
In312 O319 2.326 . S
In312 O320 2.266 . S
In312 O321 2.326 . S
In312 O323 2.294 . S
In312 O324 2.326 . S
O313 In312 2.294 . S
O313 C322 1.240 . S
O314 In312 2.326 . S
O314 C322 1.252 . S
C315 O318 1.252 . S
C315 O319 1.260 . S
C316 O323 1.240 . S
C316 O324 1.252 . S
C317 O320 1.252 . S
C317 O321 1.260 . S
O318 In312 2.266 . S
O318 C315 1.252 . S
O319 In312 2.326 . S
O319 C315 1.260 . S
O320 In312 2.266 . S
O320 C317 1.252 . S
O321 In312 2.326 . S
O321 C317 1.260 . S
C322 O313 1.240 . S
C322 O314 1.252 . S
O323 In312 2.294 . S
O323 C316 1.240 . S
O324 In312 2.326 . S
O324 C316 1.252 . S
In325 O326 2.294 . S
In325 O327 2.326 . S
In325 O331 2.266 . S
In325 O332 2.326 . S
In325 O333 2.266 . S
In325 O334 2.326 . S
In325 O336 2.294 . S
In325 O337 2.326 . S
O326 In325 2.294 . S
O326 C335 1.240 . S
O327 In325 2.326 . S
O327 C335 1.252 . S
C328 O331 1.252 . S
C328 O332 1.260 . S
C329 O336 1.240 . S
C329 O337 1.252 . S
C330 O333 1.252 . S
C330 O334 1.260 . S
O331 In325 2.266 . S
O331 C328 1.252 . S
O332 In325 2.326 . S
O332 C328 1.260 . S
O333 In325 2.266 . S
O333 C330 1.252 . S
O334 In325 2.326 . S
O334 C330 1.260 . S
C335 O326 1.240 . S
C335 O327 1.252 . S
O336 In325 2.294 . S
O336 C329 1.240 . S
O337 In325 2.326 . S
O337 C329 1.252 . S
In338 O339 2.294 . S
In338 O340 2.326 . S
In338 O344 2.266 . S
In338 O345 2.326 . S
In338 O346 2.266 . S
In338 O347 2.326 . S
In338 O349 2.294 . S
In338 O350 2.326 . S
O339 In338 2.294 . S
O339 C348 1.240 . S
O340 In338 2.326 . S
O340 C348 1.252 . S
C341 O344 1.252 . S
C341 O345 1.260 . S
C342 O349 1.240 . S
C342 O350 1.252 . S
C343 O346 1.252 . S
C343 O347 1.260 . S
O344 In338 2.266 . S
O344 C341 1.252 . S
O345 In338 2.326 . S
O345 C341 1.260 . S
O346 In338 2.266 . S
O346 C343 1.252 . S
O347 In338 2.326 . S
O347 C343 1.260 . S
C348 O339 1.240 . S
C348 O340 1.252 . S
O349 In338 2.294 . S
O349 C342 1.240 . S
O350 In338 2.326 . S
O350 C342 1.252 . S
In351 O352 2.294 . S
In351 O353 2.329 . S
In351 O357 2.263 1_556 S
In351 O358 2.324 1_556 S
In351 O359 2.266 1_556 S
In351 O360 2.323 1_556 S
In351 O362 2.297 . S
In351 O363 2.328 . S
O352 In351 2.294 . S
O352 C361 1.240 . S
O353 In351 2.329 . S
O353 C361 1.252 . S
C354 O357 1.252 . S
C354 O358 1.260 . S
C355 O362 1.240 . S
C355 O363 1.252 . S
C356 O359 1.252 . S
C356 O360 1.260 . S
O357 In351 2.263 1_554 S
O357 C354 1.252 . S
O358 In351 2.324 1_554 S
O358 C354 1.260 . S
O359 In351 2.266 1_554 S
O359 C356 1.252 . S
O360 In351 2.323 1_554 S
O360 C356 1.260 . S
C361 O352 1.240 . S
C361 O353 1.252 . S
O362 In351 2.297 . S
O362 C355 1.240 . S
O363 In351 2.328 . S
O363 C355 1.252 . S
In364 O365 2.297 . S
In364 O366 2.328 . S
In364 O370 2.266 1_556 S
In364 O371 2.323 1_556 S
In364 O372 2.263 1_556 S
In364 O373 2.324 1_556 S
In364 O375 2.294 . S
In364 O376 2.329 . S
O365 In364 2.297 . S
O365 C374 1.240 . S
O366 In364 2.328 . S
O366 C374 1.252 . S
C367 O370 1.252 . S
C367 O371 1.260 . S
C368 O375 1.240 . S
C368 O376 1.252 . S
C369 O372 1.252 . S
C369 O373 1.260 . S
O370 In364 2.266 1_554 S
O370 C367 1.252 . S
O371 In364 2.323 1_554 S
O371 C367 1.260 . S
O372 In364 2.263 1_554 S
O372 C369 1.252 . S
O373 In364 2.324 1_554 S
O373 C369 1.260 . S
C374 O365 1.240 . S
C374 O366 1.252 . S
O375 In364 2.294 . S
O375 C368 1.240 . S
O376 In364 2.329 . S
O376 C368 1.252 . S
In377 O378 2.297 . S
In377 O379 2.328 . S
In377 O383 2.266 1_556 S
In377 O384 2.323 1_556 S
In377 O385 2.263 1_556 S
In377 O386 2.324 1_556 S
In377 O388 2.294 . S
In377 O389 2.329 . S
O378 In377 2.297 . S
O378 C387 1.240 . S
O379 In377 2.328 . S
O379 C387 1.252 . S
C380 O383 1.252 . S
C380 O384 1.260 . S
C381 O388 1.240 . S
C381 O389 1.252 . S
C382 O385 1.252 . S
C382 O386 1.260 . S
O383 In377 2.266 1_554 S
O383 C380 1.252 . S
O384 In377 2.323 1_554 S
O384 C380 1.260 . S
O385 In377 2.263 1_554 S
O385 C382 1.252 . S
O386 In377 2.324 1_554 S
O386 C382 1.260 . S
C387 O378 1.240 . S
C387 O379 1.252 . S
O388 In377 2.294 . S
O388 C381 1.240 . S
O389 In377 2.329 . S
O389 C381 1.252 . S
In390 O391 2.294 . S
In390 O392 2.326 . S
In390 O396 2.266 . S
In390 O397 2.326 . S
In390 O398 2.266 . S
In390 O399 2.326 . S
In390 O401 2.294 . S
In390 O402 2.326 . S
O391 In390 2.294 . S
O391 C400 1.240 . S
O392 In390 2.326 . S
O392 C400 1.252 . S
C393 O396 1.252 . S
C393 O397 1.260 . S
C394 O401 1.240 . S
C394 O402 1.252 . S
C395 O398 1.252 . S
C395 O399 1.260 . S
O396 In390 2.266 . S
O396 C393 1.252 . S
O397 In390 2.326 . S
O397 C393 1.260 . S
O398 In390 2.266 . S
O398 C395 1.252 . S
O399 In390 2.326 . S
O399 C395 1.260 . S
C400 O391 1.240 . S
C400 O392 1.252 . S
O401 In390 2.294 . S
O401 C394 1.240 . S
O402 In390 2.326 . S
O402 C394 1.252 . S
In403 O404 2.294 . S
In403 O405 2.326 . S
In403 O409 2.266 . S
In403 O410 2.326 . S
In403 O411 2.266 . S
In403 O412 2.326 . S
In403 O414 2.294 . S
In403 O415 2.326 . S
O404 In403 2.294 . S
O404 C413 1.240 . S
O405 In403 2.326 . S
O405 C413 1.252 . S
C406 O409 1.252 . S
C406 O410 1.260 . S
C407 O414 1.240 . S
C407 O415 1.252 . S
C408 O411 1.252 . S
C408 O412 1.260 . S
O409 In403 2.266 . S
O409 C406 1.252 . S
O410 In403 2.326 . S
O410 C406 1.260 . S
O411 In403 2.266 . S
O411 C408 1.252 . S
O412 In403 2.326 . S
O412 C408 1.260 . S
C413 O404 1.240 . S
C413 O405 1.252 . S
O414 In403 2.294 . S
O414 C407 1.240 . S
O415 In403 2.326 . S
O415 C407 1.252 . S
In416 O417 2.294 . S
In416 O418 2.326 . S
In416 O422 2.266 . S
In416 O423 2.326 . S
In416 O424 2.266 . S
In416 O425 2.326 . S
In416 O427 2.294 . S
In416 O428 2.326 . S
O417 In416 2.294 . S
O417 C426 1.240 . S
O418 In416 2.326 . S
O418 C426 1.252 . S
C419 O422 1.252 . S
C419 O423 1.260 . S
C420 O427 1.240 . S
C420 O428 1.252 . S
C421 O424 1.252 . S
C421 O425 1.260 . S
O422 In416 2.266 . S
O422 C419 1.252 . S
O423 In416 2.326 . S
O423 C419 1.260 . S
O424 In416 2.266 . S
O424 C421 1.252 . S
O425 In416 2.326 . S
O425 C421 1.260 . S
C426 O417 1.240 . S
C426 O418 1.252 . S
O427 In416 2.294 . S
O427 C420 1.240 . S
O428 In416 2.326 . S
O428 C420 1.252 . S
In429 O430 2.294 . S
In429 O431 2.326 . S
In429 O435 2.266 . S
In429 O436 2.326 . S
In429 O437 2.266 . S
In429 O438 2.326 . S
In429 O440 2.294 . S
In429 O441 2.326 . S
O430 In429 2.294 . S
O430 C439 1.240 . S
O431 In429 2.326 . S
O431 C439 1.252 . S
C432 O435 1.252 . S
C432 O436 1.260 . S
C433 O440 1.240 . S
C433 O441 1.252 . S
C434 O437 1.252 . S
C434 O438 1.260 . S
O435 In429 2.266 . S
O435 C432 1.252 . S
O436 In429 2.326 . S
O436 C432 1.260 . S
O437 In429 2.266 . S
O437 C434 1.252 . S
O438 In429 2.326 . S
O438 C434 1.260 . S
C439 O430 1.240 . S
C439 O431 1.252 . S
O440 In429 2.294 . S
O440 C433 1.240 . S
O441 In429 2.326 . S
O441 C433 1.252 . S
In442 O443 2.294 . S
In442 O444 2.326 . S
In442 O448 2.266 . S
In442 O449 2.326 . S
In442 O450 2.266 . S
In442 O451 2.326 . S
In442 O453 2.294 . S
In442 O454 2.326 . S
O443 In442 2.294 . S
O443 C452 1.240 . S
O444 In442 2.326 . S
O444 C452 1.252 . S
C445 O448 1.252 . S
C445 O449 1.260 . S
C446 O453 1.240 . S
C446 O454 1.252 . S
C447 O450 1.252 . S
C447 O451 1.260 . S
O448 In442 2.266 . S
O448 C445 1.252 . S
O449 In442 2.326 . S
O449 C445 1.260 . S
O450 In442 2.266 . S
O450 C447 1.252 . S
O451 In442 2.326 . S
O451 C447 1.260 . S
C452 O443 1.240 . S
C452 O444 1.252 . S
O453 In442 2.294 . S
O453 C446 1.240 . S
O454 In442 2.326 . S
O454 C446 1.252 . S
In455 O456 2.294 . S
In455 O457 2.326 . S
In455 O461 2.266 . S
In455 O462 2.326 . S
In455 O463 2.266 . S
In455 O464 2.326 . S
In455 O466 2.294 . S
In455 O467 2.326 . S
O456 In455 2.294 . S
O456 C465 1.240 . S
O457 In455 2.326 . S
O457 C465 1.252 . S
C458 O461 1.252 . S
C458 O462 1.260 . S
C459 O466 1.240 . S
C459 O467 1.252 . S
C460 O463 1.252 . S
C460 O464 1.260 . S
O461 In455 2.266 . S
O461 C458 1.252 . S
O462 In455 2.326 . S
O462 C458 1.260 . S
O463 In455 2.266 . S
O463 C460 1.252 . S
O464 In455 2.326 . S
O464 C460 1.260 . S
C465 O456 1.240 . S
C465 O457 1.252 . S
O466 In455 2.294 . S
O466 C459 1.240 . S
O467 In455 2.326 . S
O467 C459 1.252 . S
C468 C469 1.391 . S
C468 C470 1.394 . S
C468 H484 0.931 . S
C469 C468 1.391 . S
C469 C473 1.376 . S
C470 C468 1.394 . S
C470 C471 1.369 . S
C470 C474 1.531 . S
C471 C470 1.369 . S
C471 C472 1.410 . S
C471 C479 1.503 . S
C472 C471 1.410 . S
C472 C473 1.392 . S
C472 C475 1.511 . S
C473 C469 1.376 . S
C473 C472 1.392 . S
C473 H485 0.929 . S
C474 C470 1.531 . S
C474 H486 0.960 . S
C474 H487 0.962 . S
C474 H488 0.960 . S
C475 C472 1.511 . S
C475 H489 0.961 . S
C475 H490 0.961 . S
C475 H491 0.961 . S
C476 C477 1.370 . S
C476 C478 1.363 . S
C476 H492 0.931 . S
C477 C476 1.370 . S
C477 C481 1.408 . S
C478 C476 1.363 . S
C478 C479 1.370 . S
C478 C482 1.524 . S
C479 C471 1.503 . S
C479 C478 1.370 . S
C479 C480 1.403 . S
C480 C479 1.403 . S
C480 C481 1.404 . S
C480 C483 1.539 . S
C481 C477 1.408 . S
C481 C480 1.404 . S
C481 H493 0.930 . S
C482 C478 1.524 . S
C482 H494 0.956 . S
C482 H495 0.961 . S
C482 H496 0.961 . S
C483 C480 1.539 . S
C483 H497 0.958 . S
C483 H498 0.961 . S
C483 H499 0.960 . S
H484 C468 0.931 . S
H485 C473 0.929 . S
H486 C474 0.960 . S
H487 C474 0.962 . S
H488 C474 0.960 . S
H489 C475 0.961 . S
H490 C475 0.961 . S
H491 C475 0.961 . S
H492 C476 0.931 . S
H493 C481 0.930 . S
H494 C482 0.956 . S
H495 C482 0.961 . S
H496 C482 0.961 . S
H497 C483 0.958 . S
H498 C483 0.961 . S
H499 C483 0.960 . S
C500 C501 1.391 . S
C500 C502 1.394 . S
C500 H516 0.931 . S
C501 C500 1.391 . S
C501 C505 1.376 . S
C502 C500 1.394 . S
C502 C503 1.369 . S
C502 C506 1.531 . S
C503 C502 1.369 . S
C503 C504 1.410 . S
C503 C511 1.503 1_545 S
C504 C503 1.410 . S
C504 C505 1.392 . S
C504 C507 1.511 . S
C505 C501 1.376 . S
C505 C504 1.392 . S
C505 H517 0.929 . S
C506 C502 1.531 . S
C506 H518 0.960 1_545 S
C506 H519 0.962 . S
C506 H520 0.960 . S
C507 C504 1.511 . S
C507 H521 0.961 . S
C507 H522 0.961 1_545 S
C507 H523 0.961 . S
C508 C509 1.370 . S
C508 C510 1.363 . S
C508 H524 0.931 . S
C509 C508 1.370 . S
C509 C513 1.408 . S
C510 C508 1.363 . S
C510 C511 1.370 . S
C510 C514 1.485 1_565 S
C511 C503 1.503 1_565 S
C511 C510 1.370 . S
C511 C512 1.403 . S
C512 C511 1.403 . S
C512 C513 1.404 . S
C512 C515 1.539 . S
C513 C509 1.408 . S
C513 C512 1.404 . S
C513 H525 0.930 . S
C514 C510 1.485 1_545 S
C514 H526 0.961 . S
C514 H527 1.008 . S
C514 H528 0.951 1_545 S
C515 C512 1.539 . S
C515 H529 0.958 . S
C515 H530 0.961 . S
C515 H531 0.960 . S
H516 C500 0.931 . S
H517 C505 0.929 . S
H518 C506 0.960 1_565 S
H519 C506 0.962 . S
H520 C506 0.960 . S
H521 C507 0.961 . S
H522 C507 0.961 1_565 S
H523 C507 0.961 . S
H524 C508 0.931 . S
H525 C513 0.930 . S
H526 C514 0.961 . S
H527 C514 1.008 . S
H528 C514 0.951 1_565 S
H529 C515 0.958 . S
H530 C515 0.961 . S
H531 C515 0.960 . S
C532 C533 1.391 . S
C532 C534 1.394 . S
C532 H548 0.931 . S
C533 C532 1.391 . S
C533 C537 1.376 . S
C534 C532 1.394 . S
C534 C535 1.369 . S
C534 C538 1.531 . S
C535 C534 1.369 . S
C535 C536 1.410 . S
C535 C543 1.503 1_655 S
C536 C535 1.410 . S
C536 C537 1.392 . S
C536 C539 1.511 . S
C537 C533 1.376 . S
C537 C536 1.392 . S
C537 H549 0.929 . S
C538 C534 1.531 . S
C538 H550 0.960 . S
C538 H551 0.962 . S
C538 H552 0.960 . S
C539 C536 1.511 . S
C539 H553 0.961 . S
C539 H554 0.961 1_655 S
C539 H555 0.961 . S
C540 C541 1.370 . S
C540 C542 1.363 . S
C540 H556 0.931 . S
C541 C540 1.370 . S
C541 C545 1.408 . S
C542 C540 1.363 . S
C542 C543 1.370 . S
C542 C546 1.524 . S
C543 C535 1.503 1_455 S
C543 C542 1.370 . S
C543 C544 1.403 . S
C544 C543 1.403 . S
C544 C545 1.404 . S
C544 C547 1.539 . S
C545 C541 1.408 . S
C545 C544 1.404 . S
C545 H557 0.930 . S
C546 C542 1.524 . S
C546 H558 0.956 . S
C546 H559 0.961 . S
C546 H560 0.961 . S
C547 C544 1.539 . S
C547 H561 0.958 1_455 S
C547 H562 0.961 . S
C547 H563 0.960 1_455 S
H548 C532 0.931 . S
H549 C537 0.929 . S
H550 C538 0.960 . S
H551 C538 0.962 . S
H552 C538 0.960 . S
H553 C539 0.961 . S
H554 C539 0.961 1_455 S
H555 C539 0.961 . S
H556 C540 0.931 . S
H557 C545 0.930 . S
H558 C546 0.956 . S
H559 C546 0.961 . S
H560 C546 0.961 . S
H561 C547 0.958 1_655 S
H562 C547 0.961 . S
H563 C547 0.960 1_655 S
C564 C565 1.391 . S
C564 C566 1.394 . S
C564 H580 0.931 . S
C565 C564 1.391 . S
C565 C569 1.376 . S
C566 C564 1.394 . S
C566 C567 1.369 . S
C566 C570 1.531 . S
C567 C566 1.369 . S
C567 C568 1.410 . S
C567 C575 1.503 . S
C568 C567 1.410 . S
C568 C569 1.392 . S
C568 C571 1.511 . S
C569 C565 1.376 . S
C569 C568 1.392 . S
C569 H581 0.929 . S
C570 C566 1.531 . S
C570 H582 0.960 . S
C570 H583 0.962 . S
C570 H584 0.960 . S
C571 C568 1.511 . S
C571 H585 0.961 . S
C571 H586 0.961 . S
C571 H587 0.961 . S
C572 C573 1.370 . S
C572 C574 1.363 . S
C572 H588 0.931 . S
C573 C572 1.370 . S
C573 C577 1.408 . S
C574 C572 1.363 . S
C574 C575 1.370 . S
C574 C578 1.524 . S
C575 C567 1.503 . S
C575 C574 1.370 . S
C575 C576 1.403 . S
C576 C575 1.403 . S
C576 C577 1.404 . S
C576 C579 1.539 . S
C577 C573 1.408 . S
C577 C576 1.404 . S
C577 H589 0.930 . S
C578 C574 1.524 . S
C578 H590 0.956 . S
C578 H591 0.961 . S
C578 H592 0.961 . S
C579 C576 1.539 . S
C579 H593 0.958 . S
C579 H594 0.961 . S
C579 H595 0.960 . S
H580 C564 0.931 . S
H581 C569 0.929 . S
H582 C570 0.960 . S
H583 C570 0.962 . S
H584 C570 0.960 . S
H585 C571 0.961 . S
H586 C571 0.961 . S
H587 C571 0.961 . S
H588 C572 0.931 . S
H589 C577 0.930 . S
H590 C578 0.956 . S
H591 C578 0.961 . S
H592 C578 0.961 . S
H593 C579 0.958 . S
H594 C579 0.961 . S
H595 C579 0.960 . S
C596 C597 1.391 . S
C596 C598 1.394 . S
C596 H612 0.931 . S
C597 C596 1.391 . S
C597 C601 1.376 . S
C598 C596 1.394 . S
C598 C599 1.369 . S
C598 C602 1.531 . S
C599 C598 1.369 . S
C599 C600 1.410 . S
C599 C607 1.503 1_545 S
C600 C599 1.410 . S
C600 C601 1.392 . S
C600 C603 1.511 . S
C601 C597 1.376 . S
C601 C600 1.392 . S
C601 H613 0.929 . S
C602 C598 1.531 . S
C602 H614 0.960 1_545 S
C602 H615 0.961 1_545 S
C602 H616 0.961 . S
C603 C600 1.511 . S
C603 H617 0.961 . S
C603 H618 0.961 . S
C603 H619 0.961 . S
C604 C605 1.370 . S
C604 C606 1.363 . S
C604 H620 0.931 . S
C605 C604 1.370 . S
C605 C609 1.408 . S
C606 C604 1.363 . S
C606 C607 1.370 . S
C606 C610 1.524 . S
C607 C599 1.503 1_565 S
C607 C606 1.370 . S
C607 C608 1.403 . S
C608 C607 1.403 . S
C608 C609 1.404 . S
C608 C611 1.539 . S
C609 C605 1.408 . S
C609 C608 1.404 . S
C609 H621 0.930 . S
C610 C606 1.524 . S
C610 H622 0.956 . S
C610 H623 0.961 1_565 S
C610 H624 0.961 . S
C611 C608 1.539 . S
C611 H625 0.958 . S
C611 H626 0.961 . S
C611 H627 0.912 1_565 S
H612 C596 0.931 . S
H613 C601 0.929 . S
H614 C602 0.960 1_565 S
H615 C602 0.961 1_565 S
H616 C602 0.961 . S
H617 C603 0.961 . S
H618 C603 0.961 . S
H619 C603 0.961 . S
H620 C604 0.931 . S
H621 C609 0.930 . S
H622 C610 0.956 . S
H623 C610 0.961 1_545 S
H624 C610 0.961 . S
H625 C611 0.958 . S
H626 C611 0.961 . S
H627 C611 0.912 1_545 S
C628 C629 1.391 . S
C628 C630 1.394 . S
C628 H644 0.931 . S
C629 C628 1.391 . S
C629 C633 1.376 . S
C630 C628 1.394 . S
C630 C631 1.369 . S
C630 C634 1.531 . S
C631 C630 1.369 . S
C631 C632 1.410 . S
C631 C639 1.503 1_455 S
C632 C631 1.410 . S
C632 C633 1.392 . S
C632 C635 1.511 . S
C633 C629 1.376 . S
C633 C632 1.392 . S
C633 H645 0.929 . S
C634 C630 1.531 . S
C634 H646 0.960 1_455 S
C634 H647 0.962 . S
C634 H648 0.960 . S
C635 C632 1.511 . S
C635 H649 0.961 . S
C635 H650 0.961 1_455 S
C635 H651 0.962 1_455 S
C636 C637 1.370 . S
C636 C638 1.363 . S
C636 H652 0.931 . S
C637 C636 1.370 . S
C637 C641 1.408 . S
C638 C636 1.363 . S
C638 C639 1.370 . S
C638 C642 1.506 1_655 S
C639 C631 1.503 1_655 S
C639 C638 1.370 . S
C639 C640 1.403 . S
C640 C639 1.403 . S
C640 C641 1.404 . S
C640 C643 1.539 . S
C641 C637 1.408 . S
C641 C640 1.404 . S
C641 H653 0.930 . S
C642 C638 1.506 1_455 S
C642 H654 0.959 . S
C642 H655 0.980 . S
C642 H656 0.957 1_455 S
C643 C640 1.539 . S
C643 H657 0.958 . S
C643 H658 0.961 . S
C643 H659 0.960 . S
H644 C628 0.931 . S
H645 C633 0.929 . S
H646 C634 0.960 1_655 S
H647 C634 0.962 . S
H648 C634 0.960 . S
H649 C635 0.961 . S
H650 C635 0.961 1_655 S
H651 C635 0.962 1_655 S
H652 C636 0.931 . S
H653 C641 0.930 . S
H654 C642 0.959 . S
H655 C642 0.980 . S
H656 C642 0.957 1_655 S
H657 C643 0.958 . S
H658 C643 0.961 . S
H659 C643 0.960 . S
C660 C661 1.391 . S
C660 C662 1.394 . S
C660 H676 0.931 . S
C661 C660 1.391 . S
C661 C665 1.376 . S
C662 C660 1.394 . S
C662 C663 1.369 . S
C662 C666 1.531 . S
C663 C662 1.369 . S
C663 C664 1.410 . S
C663 C671 1.503 . S
C664 C663 1.410 . S
C664 C665 1.392 . S
C664 C667 1.511 . S
C665 C661 1.376 . S
C665 C664 1.392 . S
C665 H677 0.929 . S
C666 C662 1.531 . S
C666 H678 0.960 . S
C666 H679 0.962 . S
C666 H680 0.960 . S
C667 C664 1.511 . S
C667 H681 0.961 . S
C667 H682 0.961 . S
C667 H683 0.961 . S
C668 C669 1.370 . S
C668 C670 1.363 . S
C668 H684 0.931 . S
C669 C668 1.370 . S
C669 C673 1.408 . S
C670 C668 1.363 . S
C670 C671 1.370 . S
C670 C674 1.524 . S
C671 C663 1.503 . S
C671 C670 1.370 . S
C671 C672 1.403 . S
C672 C671 1.403 . S
C672 C673 1.404 . S
C672 C675 1.539 . S
C673 C669 1.408 . S
C673 C672 1.404 . S
C673 H685 0.930 . S
C674 C670 1.524 . S
C674 H686 0.956 . S
C674 H687 0.961 . S
C674 H688 0.961 . S
C675 C672 1.539 . S
C675 H689 0.958 . S
C675 H690 0.961 . S
C675 H691 0.960 . S
H676 C660 0.931 . S
H677 C665 0.929 . S
H678 C666 0.960 . S
H679 C666 0.962 . S
H680 C666 0.960 . S
H681 C667 0.961 . S
H682 C667 0.961 . S
H683 C667 0.961 . S
H684 C668 0.931 . S
H685 C673 0.930 . S
H686 C674 0.956 . S
H687 C674 0.961 . S
H688 C674 0.961 . S
H689 C675 0.958 . S
H690 C675 0.961 . S
H691 C675 0.960 . S
C692 C693 1.391 . S
C692 C694 1.394 . S
C692 H708 0.931 . S
C693 C692 1.391 . S
C693 C697 1.376 . S
C694 C692 1.394 . S
C694 C695 1.369 . S
C694 C698 1.531 . S
C695 C694 1.369 . S
C695 C696 1.410 . S
C695 C703 1.503 . S
C696 C695 1.410 . S
C696 C697 1.392 . S
C696 C699 1.511 . S
C697 C693 1.376 . S
C697 C696 1.392 . S
C697 H709 0.929 . S
C698 C694 1.531 . S
C698 H710 0.960 . S
C698 H711 0.962 . S
C698 H712 0.960 . S
C699 C696 1.511 . S
C699 H713 0.961 . S
C699 H714 0.961 . S
C699 H715 0.961 . S
C700 C701 1.370 . S
C700 C702 1.363 . S
C700 H716 0.931 . S
C701 C700 1.370 . S
C701 C705 1.408 . S
C702 C700 1.363 . S
C702 C703 1.370 . S
C702 C706 1.524 . S
C703 C695 1.503 . S
C703 C702 1.370 . S
C703 C704 1.403 . S
C704 C703 1.403 . S
C704 C705 1.404 . S
C704 C707 1.539 . S
C705 C701 1.408 . S
C705 C704 1.404 . S
C705 H717 0.930 . S
C706 C702 1.524 . S
C706 H718 0.956 . S
C706 H719 0.961 . S
C706 H720 0.961 . S
C707 C704 1.539 . S
C707 H721 0.958 . S
C707 H722 0.961 . S
C707 H723 0.960 . S
H708 C692 0.931 . S
H709 C697 0.929 . S
H710 C698 0.960 . S
H711 C698 0.962 . S
H712 C698 0.960 . S
H713 C699 0.961 . S
H714 C699 0.961 . S
H715 C699 0.961 . S
H716 C700 0.931 . S
H717 C705 0.930 . S
H718 C706 0.956 . S
H719 C706 0.961 . S
H720 C706 0.961 . S
H721 C707 0.958 . S
H722 C707 0.961 . S
H723 C707 0.960 . S
C724 C725 1.391 . S
C724 C726 1.394 . S
C724 H740 0.931 . S
C725 C724 1.391 . S
C725 C729 1.376 . S
C726 C724 1.394 . S
C726 C727 1.369 . S
C726 C730 1.531 . S
C727 C726 1.369 . S
C727 C728 1.410 . S
C727 C735 1.503 . S
C728 C727 1.410 . S
C728 C729 1.392 . S
C728 C731 1.511 . S
C729 C725 1.376 . S
C729 C728 1.392 . S
C729 H741 0.929 . S
C730 C726 1.531 . S
C730 H742 0.960 . S
C730 H743 0.962 . S
C730 H744 0.960 . S
C731 C728 1.511 . S
C731 H745 0.961 . S
C731 H746 0.961 . S
C731 H747 0.961 . S
C732 C733 1.370 . S
C732 C734 1.363 . S
C732 H748 0.931 . S
C733 C732 1.370 . S
C733 C737 1.408 . S
C734 C732 1.363 . S
C734 C735 1.370 . S
C734 C738 1.524 . S
C735 C727 1.503 . S
C735 C734 1.370 . S
C735 C736 1.403 . S
C736 C735 1.403 . S
C736 C737 1.404 . S
C736 C739 1.539 . S
C737 C733 1.408 . S
C737 C736 1.404 . S
C737 H749 0.930 . S
C738 C734 1.524 . S
C738 H750 0.956 . S
C738 H751 0.961 . S
C738 H752 0.961 . S
C739 C736 1.539 . S
C739 H753 0.958 . S
C739 H754 0.961 . S
C739 H755 0.960 . S
H740 C724 0.931 . S
H741 C729 0.929 . S
H742 C730 0.960 . S
H743 C730 0.962 . S
H744 C730 0.960 . S
H745 C731 0.961 . S
H746 C731 0.961 . S
H747 C731 0.961 . S
H748 C732 0.931 . S
H749 C737 0.930 . S
H750 C738 0.956 . S
H751 C738 0.961 . S
H752 C738 0.961 . S
H753 C739 0.958 . S
H754 C739 0.961 . S
H755 C739 0.960 . S
C756 C757 1.391 . S
C756 C758 1.394 . S
C756 H772 0.931 . S
C757 C756 1.391 . S
C757 C761 1.376 . S
C758 C756 1.394 . S
C758 C759 1.369 . S
C758 C762 1.531 . S
C759 C758 1.369 . S
C759 C760 1.410 . S
C759 C767 1.503 . S
C760 C759 1.410 . S
C760 C761 1.392 . S
C760 C763 1.511 . S
C761 C757 1.376 . S
C761 C760 1.392 . S
C761 H773 0.929 . S
C762 C758 1.531 . S
C762 H774 0.960 . S
C762 H775 0.962 . S
C762 H776 0.960 . S
C763 C760 1.511 . S
C763 H777 0.961 . S
C763 H778 0.961 . S
C763 H779 0.961 . S
C764 C765 1.370 . S
C764 C766 1.363 . S
C764 H780 0.931 1_554 S
C765 C764 1.370 . S
C765 C769 1.408 . S
C766 C764 1.363 . S
C766 C767 1.370 . S
C766 C770 1.524 1_554 S
C767 C759 1.503 . S
C767 C766 1.370 . S
C767 C768 1.403 . S
C768 C767 1.403 . S
C768 C769 1.404 . S
C768 C771 1.539 . S
C769 C765 1.408 . S
C769 C768 1.404 . S
C769 H781 0.930 . S
C770 C766 1.524 1_556 S
C770 H782 0.956 1_556 S
C770 H783 0.961 . S
C770 H784 0.961 . S
C771 C768 1.539 . S
C771 H785 0.958 . S
C771 H786 0.961 . S
C771 H787 0.960 . S
H772 C756 0.931 . S
H773 C761 0.929 . S
H774 C762 0.960 . S
H775 C762 0.962 . S
H776 C762 0.960 . S
H777 C763 0.961 . S
H778 C763 0.961 . S
H779 C763 0.961 . S
H780 C764 0.931 1_556 S
H781 C769 0.930 . S
H782 C770 0.956 1_554 S
H783 C770 0.961 . S
H784 C770 0.961 . S
H785 C771 0.958 . S
H786 C771 0.961 . S
H787 C771 0.960 . S
C788 C789 1.391 . S
C788 C790 1.394 . S
C788 H804 0.931 1_554 S
C789 C788 1.391 . S
C789 C793 1.376 . S
C790 C788 1.394 . S
C790 C791 1.369 . S
C790 C794 1.531 . S
C791 C790 1.369 . S
C791 C792 1.410 . S
C791 C799 1.503 . S
C792 C791 1.410 . S
C792 C793 1.392 . S
C792 C795 1.511 . S
C793 C789 1.376 . S
C793 C792 1.392 . S
C793 H805 0.929 . S
C794 C790 1.531 . S
C794 H806 0.962 . S
C794 H807 0.962 . S
C794 H808 0.960 1_554 S
C795 C792 1.511 . S
C795 H809 0.961 . S
C795 H810 0.961 . S
C795 H811 0.961 . S
C796 C797 1.370 . S
C796 C798 1.363 . S
C796 H812 0.931 . S
C797 C796 1.370 . S
C797 C801 1.408 . S
C798 C796 1.363 . S
C798 C799 1.370 . S
C798 C802 1.524 . S
C799 C791 1.503 . S
C799 C798 1.370 . S
C799 C800 1.403 . S
C800 C799 1.403 . S
C800 C801 1.404 . S
C800 C803 1.539 . S
C801 C797 1.408 . S
C801 C800 1.404 . S
C801 H813 0.930 . S
C802 C798 1.524 . S
C802 H814 0.956 . S
C802 H815 0.961 . S
C802 H816 0.961 . S
C803 C800 1.539 . S
C803 H817 0.958 1_554 S
C803 H818 0.961 . S
C803 H819 0.960 . S
H804 C788 0.931 1_556 S
H805 C793 0.929 . S
H806 C794 0.962 . S
H807 C794 0.962 . S
H808 C794 0.960 1_556 S
H809 C795 0.961 . S
H810 C795 0.961 . S
H811 C795 0.961 . S
H812 C796 0.931 . S
H813 C801 0.930 . S
H814 C802 0.956 . S
H815 C802 0.961 . S
H816 C802 0.961 . S
H817 C803 0.958 1_556 S
H818 C803 0.961 . S
H819 C803 0.960 . S
C820 C821 1.391 . S
C820 C822 1.394 . S
C820 H836 0.931 . S
C821 C820 1.391 . S
C821 C825 1.376 . S
C822 C820 1.394 . S
C822 C823 1.369 . S
C822 C826 1.531 . S
C823 C822 1.369 . S
C823 C824 1.410 . S
C823 C831 1.503 . S
C824 C823 1.410 . S
C824 C825 1.392 . S
C824 C827 1.511 . S
C825 C821 1.376 . S
C825 C824 1.392 . S
C825 H837 0.929 . S
C826 C822 1.531 . S
C826 H838 0.960 . S
C826 H839 0.962 . S
C826 H840 0.960 . S
C827 C824 1.511 . S
C827 H841 0.961 . S
C827 H842 0.961 . S
C827 H843 0.961 . S
C828 C829 1.370 . S
C828 C830 1.363 . S
C828 H844 0.931 . S
C829 C828 1.370 . S
C829 C833 1.408 . S
C830 C828 1.363 . S
C830 C831 1.370 . S
C830 C834 1.524 . S
C831 C823 1.503 . S
C831 C830 1.370 . S
C831 C832 1.403 . S
C832 C831 1.403 . S
C832 C833 1.404 . S
C832 C835 1.539 1_554 S
C833 C829 1.408 . S
C833 C832 1.404 . S
C833 H845 0.930 1_554 S
C834 C830 1.524 . S
C834 H846 0.956 . S
C834 H847 0.961 . S
C834 H848 0.961 . S
C835 C832 1.539 1_556 S
C835 H849 0.958 . S
C835 H850 0.961 . S
C835 H851 0.960 . S
H836 C820 0.931 . S
H837 C825 0.929 . S
H838 C826 0.960 . S
H839 C826 0.962 . S
H840 C826 0.960 . S
H841 C827 0.961 . S
H842 C827 0.961 . S
H843 C827 0.961 . S
H844 C828 0.931 . S
H845 C833 0.930 1_556 S
H846 C834 0.956 . S
H847 C834 0.961 . S
H848 C834 0.961 . S
H849 C835 0.958 . S
H850 C835 0.961 . S
H851 C835 0.960 . S
C852 C853 1.391 . S
C852 C854 1.394 . S
C852 H868 0.931 . S
C853 C852 1.391 . S
C853 C857 1.376 . S
C854 C852 1.394 . S
C854 C855 1.369 . S
C854 C858 1.531 . S
C855 C854 1.369 . S
C855 C856 1.410 . S
C855 C863 1.503 . S
C856 C855 1.410 . S
C856 C857 1.392 . S
C856 C859 1.511 . S
C857 C853 1.376 . S
C857 C856 1.392 . S
C857 H869 0.929 . S
C858 C854 1.531 . S
C858 H870 0.960 . S
C858 H871 0.962 . S
C858 H872 0.960 . S
C859 C856 1.511 . S
C859 H873 0.961 . S
C859 H874 0.961 . S
C859 H875 0.961 . S
C860 C861 1.370 . S
C860 C862 1.363 . S
C860 H876 0.931 . S
C861 C860 1.370 . S
C861 C865 1.408 . S
C862 C860 1.363 . S
C862 C863 1.370 . S
C862 C866 1.524 . S
C863 C855 1.503 . S
C863 C862 1.370 . S
C863 C864 1.403 . S
C864 C863 1.403 . S
C864 C865 1.404 . S
C864 C867 1.539 . S
C865 C861 1.408 . S
C865 C864 1.404 . S
C865 H877 0.930 . S
C866 C862 1.524 . S
C866 H878 0.956 . S
C866 H879 0.961 . S
C866 H880 0.961 1_556 S
C867 C864 1.539 . S
C867 H881 0.958 . S
C867 H882 0.961 . S
C867 H883 0.960 . S
H868 C852 0.931 . S
H869 C857 0.929 . S
H870 C858 0.960 . S
H871 C858 0.962 . S
H872 C858 0.960 . S
H873 C859 0.961 . S
H874 C859 0.961 . S
H875 C859 0.961 . S
H876 C860 0.931 . S
H877 C865 0.930 . S
H878 C866 0.956 . S
H879 C866 0.961 . S
H880 C866 0.961 1_554 S
H881 C867 0.958 . S
H882 C867 0.961 . S
H883 C867 0.960 . S
C884 C885 1.391 . S
C884 C886 1.394 . S
C884 H900 0.931 . S
C885 C884 1.391 . S
C885 C889 1.376 . S
C886 C884 1.394 . S
C886 C887 1.369 . S
C886 C890 1.531 . S
C887 C886 1.369 . S
C887 C888 1.410 . S
C887 C895 1.503 . S
C888 C887 1.410 . S
C888 C889 1.392 . S
C888 C891 1.511 . S
C889 C885 1.376 . S
C889 C888 1.392 . S
C889 H901 0.929 . S
C890 C886 1.531 . S
C890 H902 0.960 . S
C890 H903 0.962 . S
C890 H904 0.960 . S
C891 C888 1.511 . S
C891 H905 0.961 . S
C891 H906 0.961 . S
C891 H907 0.961 . S
C892 C893 1.370 . S
C892 C894 1.363 . S
C892 H908 0.931 1_556 S
C893 C892 1.370 . S
C893 C897 1.408 . S
C894 C892 1.363 . S
C894 C895 1.370 . S
C894 C898 1.524 . S
C895 C887 1.503 . S
C895 C894 1.370 . S
C895 C896 1.403 . S
C896 C895 1.403 . S
C896 C897 1.404 . S
C896 C899 1.539 . S
C897 C893 1.408 . S
C897 C896 1.404 . S
C897 H909 0.930 . S
C898 C894 1.524 . S
C898 H910 0.956 . S
C898 H911 0.966 . S
C898 H912 0.961 1_556 S
C899 C896 1.539 . S
C899 H913 0.958 . S
C899 H914 0.961 . S
C899 H915 0.960 . S
H900 C884 0.931 . S
H901 C889 0.929 . S
H902 C890 0.960 . S
H903 C890 0.962 . S
H904 C890 0.960 . S
H905 C891 0.961 . S
H906 C891 0.961 . S
H907 C891 0.961 . S
H908 C892 0.931 1_554 S
H909 C897 0.930 . S
H910 C898 0.956 . S
H911 C898 0.966 . S
H912 C898 0.961 1_554 S
H913 C899 0.958 . S
H914 C899 0.961 . S
H915 C899 0.960 . S
C916 C917 1.391 . S
C916 C918 1.394 . S
C916 H932 0.931 . S
C917 C916 1.391 . S
C917 C921 1.376 . S
C918 C916 1.394 . S
C918 C919 1.369 . S
C918 C922 1.531 . S
C919 C918 1.369 . S
C919 C920 1.410 . S
C919 C927 1.503 . S
C920 C919 1.410 . S
C920 C921 1.392 . S
C920 C923 1.511 . S
C921 C917 1.376 . S
C921 C920 1.392 . S
C921 H933 0.929 . S
C922 C918 1.531 . S
C922 H934 0.960 . S
C922 H935 0.962 . S
C922 H936 0.960 . S
C923 C920 1.511 . S
C923 H937 0.961 . S
C923 H938 0.961 . S
C923 H939 0.961 . S
C924 C925 1.370 . S
C924 C926 1.363 . S
C924 H940 0.931 . S
C925 C924 1.370 . S
C925 C929 1.408 . S
C926 C924 1.363 . S
C926 C927 1.370 . S
C926 C930 1.524 . S
C927 C919 1.503 . S
C927 C926 1.370 . S
C927 C928 1.403 . S
C928 C927 1.403 . S
C928 C929 1.404 . S
C928 C931 1.539 1_556 S
C929 C925 1.408 . S
C929 C928 1.404 . S
C929 H941 0.930 . S
C930 C926 1.524 . S
C930 H942 0.956 . S
C930 H943 0.961 . S
C930 H944 0.961 . S
C931 C928 1.539 1_554 S
C931 H945 0.958 . S
C931 H946 0.961 . S
C931 H947 0.960 . S
H932 C916 0.931 . S
H933 C921 0.929 . S
H934 C922 0.960 . S
H935 C922 0.962 . S
H936 C922 0.960 . S
H937 C923 0.961 . S
H938 C923 0.961 . S
H939 C923 0.961 . S
H940 C924 0.931 . S
H941 C929 0.930 . S
H942 C930 0.956 . S
H943 C930 0.961 . S
H944 C930 0.961 . S
H945 C931 0.958 . S
H946 C931 0.961 . S
H947 C931 0.960 . S
C948 C949 1.391 . S
C948 C950 1.394 . S
C948 H964 0.931 . S
C949 C948 1.391 . S
C949 C953 1.376 . S
C950 C948 1.394 . S
C950 C951 1.369 . S
C950 C954 1.531 . S
C951 C950 1.369 . S
C951 C952 1.410 . S
C951 C959 1.503 . S
C952 C951 1.410 . S
C952 C953 1.392 . S
C952 C955 1.511 . S
C953 C949 1.376 . S
C953 C952 1.392 . S
C953 H965 0.929 . S
C954 C950 1.531 . S
C954 H966 0.960 . S
C954 H967 0.962 . S
C954 H968 0.960 . S
C955 C952 1.511 . S
C955 H969 0.961 . S
C955 H970 0.961 . S
C955 H971 0.961 . S
C956 C957 1.370 . S
C956 C958 1.363 . S
C956 H972 0.931 . S
C957 C956 1.370 . S
C957 C961 1.408 . S
C958 C956 1.363 . S
C958 C959 1.370 . S
C958 C962 1.524 . S
C959 C951 1.503 . S
C959 C958 1.370 . S
C959 C960 1.403 . S
C960 C959 1.403 . S
C960 C961 1.404 . S
C960 C963 1.539 . S
C961 C957 1.408 . S
C961 C960 1.404 . S
C961 H973 0.930 . S
C962 C958 1.524 . S
C962 H974 0.956 . S
C962 H975 0.961 . S
C962 H976 0.961 . S
C963 C960 1.539 . S
C963 H977 0.958 . S
C963 H978 0.961 . S
C963 H979 0.960 . S
H964 C948 0.931 . S
H965 C953 0.929 . S
H966 C954 0.960 . S
H967 C954 0.962 . S
H968 C954 0.960 . S
H969 C955 0.961 . S
H970 C955 0.961 . S
H971 C955 0.961 . S
H972 C956 0.931 . S
H973 C961 0.930 . S
H974 C962 0.956 . S
H975 C962 0.961 . S
H976 C962 0.961 . S
H977 C963 0.958 . S
H978 C963 0.961 . S
H979 C963 0.960 . S
C980 C981 1.391 . S
C980 C982 1.394 . S
C980 H996 0.931 . S
C981 C980 1.391 . S
C981 C985 1.376 . S
C982 C980 1.394 . S
C982 C983 1.369 . S
C982 C986 1.531 . S
C983 C982 1.369 . S
C983 C984 1.410 . S
C983 C991 1.503 . S
C984 C983 1.410 . S
C984 C985 1.392 . S
C984 C987 1.511 . S
C985 C981 1.376 . S
C985 C984 1.392 . S
C985 H997 0.929 . S
C986 C982 1.531 . S
C986 H998 0.960 . S
C986 H999 0.962 . S
C986 H1000 0.960 . S
C987 C984 1.511 . S
C987 H1001 0.961 . S
C987 H1002 0.961 . S
C987 H1003 0.961 . S
C988 C989 1.370 . S
C988 C990 1.363 . S
C988 H1004 0.931 . S
C989 C988 1.370 . S
C989 C993 1.408 . S
C990 C988 1.363 . S
C990 C991 1.370 . S
C990 C994 1.524 . S
C991 C983 1.503 . S
C991 C990 1.370 . S
C991 C992 1.403 . S
C992 C991 1.403 . S
C992 C993 1.404 . S
C992 C995 1.539 . S
C993 C989 1.408 . S
C993 C992 1.404 . S
C993 H1005 0.930 . S
C994 C990 1.524 . S
C994 H1006 0.956 . S
C994 H1007 0.961 . S
C994 H1008 0.961 . S
C995 C992 1.539 . S
C995 H1009 0.958 . S
C995 H1010 0.961 . S
C995 H1011 0.960 . S
H996 C980 0.931 . S
H997 C985 0.929 . S
H998 C986 0.960 . S
H999 C986 0.962 . S
H1000 C986 0.960 . S
H1001 C987 0.961 . S
H1002 C987 0.961 . S
H1003 C987 0.961 . S
H1004 C988 0.931 . S
H1005 C993 0.930 . S
H1006 C994 0.956 . S
H1007 C994 0.961 . S
H1008 C994 0.961 . S
H1009 C995 0.958 . S
H1010 C995 0.961 . S
H1011 C995 0.960 . S
C1012 C1013 1.391 . S
C1012 C1014 1.394 . S
C1012 H1028 0.931 . S
C1013 C1012 1.391 . S
C1013 C1017 1.376 . S
C1014 C1012 1.394 . S
C1014 C1015 1.369 . S
C1014 C1018 1.531 . S
C1015 C1014 1.369 . S
C1015 C1016 1.410 . S
C1015 C1023 1.503 . S
C1016 C1015 1.410 . S
C1016 C1017 1.392 . S
C1016 C1019 1.511 . S
C1017 C1013 1.376 . S
C1017 C1016 1.392 . S
C1017 H1029 0.929 . S
C1018 C1014 1.531 . S
C1018 H1030 0.960 . S
C1018 H1031 0.962 . S
C1018 H1032 0.960 . S
C1019 C1016 1.511 . S
C1019 H1033 0.961 . S
C1019 H1034 0.961 . S
C1019 H1035 0.961 . S
C1020 C1021 1.370 . S
C1020 C1022 1.363 . S
C1020 H1036 0.931 . S
C1021 C1020 1.370 . S
C1021 C1025 1.408 . S
C1022 C1020 1.363 . S
C1022 C1023 1.370 . S
C1022 C1026 1.524 . S
C1023 C1015 1.503 . S
C1023 C1022 1.370 . S
C1023 C1024 1.403 . S
C1024 C1023 1.403 . S
C1024 C1025 1.404 . S
C1024 C1027 1.539 . S
C1025 C1021 1.408 . S
C1025 C1024 1.404 . S
C1025 H1037 0.930 . S
C1026 C1022 1.524 . S
C1026 H1038 0.956 . S
C1026 H1039 0.961 . S
C1026 H1040 0.961 . S
C1027 C1024 1.539 . S
C1027 H1041 0.958 . S
C1027 H1042 0.961 . S
C1027 H1043 0.960 . S
H1028 C1012 0.931 . S
H1029 C1017 0.929 . S
H1030 C1018 0.960 . S
H1031 C1018 0.962 . S
H1032 C1018 0.960 . S
H1033 C1019 0.961 . S
H1034 C1019 0.961 . S
H1035 C1019 0.961 . S
H1036 C1020 0.931 . S
H1037 C1025 0.930 . S
H1038 C1026 0.956 . S
H1039 C1026 0.961 . S
H1040 C1026 0.961 . S
H1041 C1027 0.958 . S
H1042 C1027 0.961 . S
H1043 C1027 0.960 . S
C1044 C1045 1.391 . S
C1044 C1046 1.394 . S
C1044 H1060 0.931 . S
C1045 C1044 1.391 . S
C1045 C1049 1.376 . S
C1046 C1044 1.394 . S
C1046 C1047 1.369 . S
C1046 C1050 1.531 . S
C1047 C1046 1.369 . S
C1047 C1048 1.410 . S
C1047 C1055 1.503 . S
C1048 C1047 1.410 . S
C1048 C1049 1.392 . S
C1048 C1051 1.511 . S
C1049 C1045 1.376 . S
C1049 C1048 1.392 . S
C1049 H1061 0.929 . S
C1050 C1046 1.531 . S
C1050 H1062 0.960 . S
C1050 H1063 0.962 . S
C1050 H1064 0.960 . S
C1051 C1048 1.511 . S
C1051 H1065 0.961 . S
C1051 H1066 0.961 . S
C1051 H1067 0.961 . S
C1052 C1053 1.370 . S
C1052 C1054 1.363 1_554 S
C1052 H1068 0.931 . S
C1053 C1052 1.370 . S
C1053 C1057 1.408 . S
C1054 C1052 1.363 1_556 S
C1054 C1055 1.370 . S
C1054 C1058 1.524 . S
C1055 C1047 1.503 . S
C1055 C1054 1.370 . S
C1055 C1056 1.403 . S
C1056 C1055 1.403 . S
C1056 C1057 1.404 1_556 S
C1056 C1059 1.539 . S
C1057 C1053 1.408 . S
C1057 C1056 1.404 1_554 S
C1057 H1069 0.930 . S
C1058 C1054 1.524 . S
C1058 H1070 0.956 . S
C1058 H1071 0.961 . S
C1058 H1072 0.961 . S
C1059 C1056 1.539 . S
C1059 H1073 0.958 . S
C1059 H1074 0.961 . S
C1059 H1075 0.960 . S
H1060 C1044 0.931 . S
H1061 C1049 0.929 . S
H1062 C1050 0.960 . S
H1063 C1050 0.962 . S
H1064 C1050 0.960 . S
H1065 C1051 0.961 . S
H1066 C1051 0.961 . S
H1067 C1051 0.961 . S
H1068 C1052 0.931 . S
H1069 C1057 0.930 . S
H1070 C1058 0.956 . S
H1071 C1058 0.961 . S
H1072 C1058 0.961 . S
H1073 C1059 0.958 . S
H1074 C1059 0.961 . S
H1075 C1059 0.960 . S
C1076 C1077 1.391 . S
C1076 C1078 1.394 1_554 S
C1076 H1092 0.931 . S
C1077 C1076 1.391 . S
C1077 C1081 1.376 1_554 S
C1078 C1076 1.394 1_556 S
C1078 C1079 1.369 . S
C1078 C1082 1.531 . S
C1079 C1078 1.369 . S
C1079 C1080 1.410 . S
C1079 C1087 1.503 . S
C1080 C1079 1.410 . S
C1080 C1081 1.392 . S
C1080 C1083 1.511 . S
C1081 C1077 1.376 1_556 S
C1081 C1080 1.392 . S
C1081 H1093 0.929 . S
C1082 C1078 1.531 . S
C1082 H1094 0.960 . S
C1082 H1095 0.962 . S
C1082 H1096 0.960 1_556 S
C1083 C1080 1.511 . S
C1083 H1097 0.961 . S
C1083 H1098 0.961 . S
C1083 H1099 0.961 . S
C1084 C1085 1.370 . S
C1084 C1086 1.363 . S
C1084 H1100 0.931 . S
C1085 C1084 1.370 . S
C1085 C1089 1.408 . S
C1086 C1084 1.363 . S
C1086 C1087 1.370 . S
C1086 C1090 1.524 . S
C1087 C1079 1.503 . S
C1087 C1086 1.370 . S
C1087 C1088 1.403 . S
C1088 C1087 1.403 . S
C1088 C1089 1.404 . S
C1088 C1091 1.539 . S
C1089 C1085 1.408 . S
C1089 C1088 1.404 . S
C1089 H1101 0.930 . S
C1090 C1086 1.524 . S
C1090 H1102 0.956 . S
C1090 H1103 0.961 . S
C1090 H1104 0.961 . S
C1091 C1088 1.539 . S
C1091 H1105 0.958 . S
C1091 H1106 0.961 . S
C1091 H1107 0.960 . S
H1092 C1076 0.931 . S
H1093 C1081 0.929 . S
H1094 C1082 0.960 . S
H1095 C1082 0.962 . S
H1096 C1082 0.960 1_554 S
H1097 C1083 0.961 . S
H1098 C1083 0.961 . S
H1099 C1083 0.961 . S
H1100 C1084 0.931 . S
H1101 C1089 0.930 . S
H1102 C1090 0.956 . S
H1103 C1090 0.961 . S
H1104 C1090 0.961 . S
H1105 C1091 0.958 . S
H1106 C1091 0.961 . S
H1107 C1091 0.960 . S
C1108 C1109 1.391 . S
C1108 C1110 1.394 1_554 S
C1108 H1124 0.931 . S
C1109 C1108 1.391 . S
C1109 C1113 1.376 . S
C1110 C1108 1.394 1_556 S
C1110 C1111 1.369 . S
C1110 C1114 1.531 . S
C1111 C1110 1.369 . S
C1111 C1112 1.410 . S
C1111 C1119 1.503 . S
C1112 C1111 1.410 . S
C1112 C1113 1.392 1_556 S
C1112 C1115 1.511 . S
C1113 C1109 1.376 . S
C1113 C1112 1.392 1_554 S
C1113 H1125 0.929 . S
C1114 C1110 1.531 . S
C1114 H1126 0.960 . S
C1114 H1127 0.962 . S
C1114 H1128 0.960 . S
C1115 C1112 1.511 . S
C1115 H1129 0.961 . S
C1115 H1130 0.961 . S
C1115 H1131 0.961 . S
C1116 C1117 1.370 . S
C1116 C1118 1.363 . S
C1116 H1132 0.931 . S
C1117 C1116 1.370 . S
C1117 C1121 1.408 . S
C1118 C1116 1.363 . S
C1118 C1119 1.370 . S
C1118 C1122 1.524 . S
C1119 C1111 1.503 . S
C1119 C1118 1.370 . S
C1119 C1120 1.403 . S
C1120 C1119 1.403 . S
C1120 C1121 1.404 . S
C1120 C1123 1.539 . S
C1121 C1117 1.408 . S
C1121 C1120 1.404 . S
C1121 H1133 0.930 . S
C1122 C1118 1.524 . S
C1122 H1134 0.956 . S
C1122 H1135 0.961 . S
C1122 H1136 0.961 . S
C1123 C1120 1.539 . S
C1123 H1137 0.958 . S
C1123 H1138 0.961 . S
C1123 H1139 0.960 . S
H1124 C1108 0.931 . S
H1125 C1113 0.929 . S
H1126 C1114 0.960 . S
H1127 C1114 0.962 . S
H1128 C1114 0.960 . S
H1129 C1115 0.961 . S
H1130 C1115 0.961 . S
H1131 C1115 0.961 . S
H1132 C1116 0.931 . S
H1133 C1121 0.930 . S
H1134 C1122 0.956 . S
H1135 C1122 0.961 . S
H1136 C1122 0.961 . S
H1137 C1123 0.958 . S
H1138 C1123 0.961 . S
H1139 C1123 0.960 . S
C1140 C1141 1.391 . S
C1140 C1142 1.394 . S
C1140 H1156 0.931 . S
C1141 C1140 1.391 . S
C1141 C1145 1.376 . S
C1142 C1140 1.394 . S
C1142 C1143 1.369 . S
C1142 C1146 1.531 . S
C1143 C1142 1.369 . S
C1143 C1144 1.410 . S
C1143 C1151 1.503 . S
C1144 C1143 1.410 . S
C1144 C1145 1.392 . S
C1144 C1147 1.511 . S
C1145 C1141 1.376 . S
C1145 C1144 1.392 . S
C1145 H1157 0.929 . S
C1146 C1142 1.531 . S
C1146 H1158 0.960 . S
C1146 H1159 0.962 . S
C1146 H1160 0.960 . S
C1147 C1144 1.511 . S
C1147 H1161 0.961 . S
C1147 H1162 0.961 . S
C1147 H1163 0.961 . S
C1148 C1149 1.370 . S
C1148 C1150 1.363 . S
C1148 H1164 0.931 . S
C1149 C1148 1.370 . S
C1149 C1153 1.408 . S
C1150 C1148 1.363 . S
C1150 C1151 1.370 . S
C1150 C1154 1.524 . S
C1151 C1143 1.503 . S
C1151 C1150 1.370 . S
C1151 C1152 1.403 . S
C1152 C1151 1.403 . S
C1152 C1153 1.404 . S
C1152 C1155 1.539 . S
C1153 C1149 1.408 . S
C1153 C1152 1.404 . S
C1153 H1165 0.930 . S
C1154 C1150 1.524 . S
C1154 H1166 0.956 . S
C1154 H1167 0.961 . S
C1154 H1168 0.961 . S
C1155 C1152 1.539 . S
C1155 H1169 0.958 . S
C1155 H1170 0.961 . S
C1155 H1171 0.960 . S
H1156 C1140 0.931 . S
H1157 C1145 0.929 . S
H1158 C1146 0.960 . S
H1159 C1146 0.962 . S
H1160 C1146 0.960 . S
H1161 C1147 0.961 . S
H1162 C1147 0.961 . S
H1163 C1147 0.961 . S
H1164 C1148 0.931 . S
H1165 C1153 0.930 . S
H1166 C1154 0.956 . S
H1167 C1154 0.961 . S
H1168 C1154 0.961 . S
H1169 C1155 0.958 . S
H1170 C1155 0.961 . S
H1171 C1155 0.960 . S
C1172 C1173 1.391 . S
C1172 C1174 1.394 . S
C1172 H1188 0.931 . S
C1173 C1172 1.391 . S
C1173 C1177 1.376 . S
C1174 C1172 1.394 . S
C1174 C1175 1.369 . S
C1174 C1178 1.531 . S
C1175 C1174 1.369 . S
C1175 C1176 1.410 . S
C1175 C1183 1.503 . S
C1176 C1175 1.410 . S
C1176 C1177 1.392 . S
C1176 C1179 1.511 . S
C1177 C1173 1.376 . S
C1177 C1176 1.392 . S
C1177 H1189 0.929 . S
C1178 C1174 1.531 . S
C1178 H1190 0.960 . S
C1178 H1191 0.962 . S
C1178 H1192 0.960 . S
C1179 C1176 1.511 . S
C1179 H1193 0.961 . S
C1179 H1194 0.961 . S
C1179 H1195 0.961 . S
C1180 C1181 1.370 . S
C1180 C1182 1.363 . S
C1180 H1196 0.931 . S
C1181 C1180 1.370 . S
C1181 C1185 1.408 . S
C1182 C1180 1.363 . S
C1182 C1183 1.370 . S
C1182 C1186 1.524 . S
C1183 C1175 1.503 . S
C1183 C1182 1.370 . S
C1183 C1184 1.403 . S
C1184 C1183 1.403 . S
C1184 C1185 1.404 . S
C1184 C1187 1.539 . S
C1185 C1181 1.408 . S
C1185 C1184 1.404 . S
C1185 H1197 0.930 . S
C1186 C1182 1.524 . S
C1186 H1198 0.956 . S
C1186 H1199 0.961 . S
C1186 H1200 0.961 . S
C1187 C1184 1.539 . S
C1187 H1201 0.958 . S
C1187 H1202 0.961 . S
C1187 H1203 0.960 . S
H1188 C1172 0.931 . S
H1189 C1177 0.929 . S
H1190 C1178 0.960 . S
H1191 C1178 0.962 . S
H1192 C1178 0.960 . S
H1193 C1179 0.961 . S
H1194 C1179 0.961 . S
H1195 C1179 0.961 . S
H1196 C1180 0.931 . S
H1197 C1185 0.930 . S
H1198 C1186 0.956 . S
H1199 C1186 0.961 . S
H1200 C1186 0.961 . S
H1201 C1187 0.958 . S
H1202 C1187 0.961 . S
H1203 C1187 0.960 . S
C1204 C1205 1.391 . S
C1204 C1206 1.394 . S
C1204 H1220 0.931 . S
C1205 C1204 1.391 . S
C1205 C1209 1.376 . S
C1206 C1204 1.394 . S
C1206 C1207 1.369 . S
C1206 C1210 1.531 . S
C1207 C1206 1.369 . S
C1207 C1208 1.410 . S
C1207 C1215 1.503 . S
C1208 C1207 1.410 . S
C1208 C1209 1.392 . S
C1208 C1211 1.511 . S
C1209 C1205 1.376 . S
C1209 C1208 1.392 . S
C1209 H1221 0.929 . S
C1210 C1206 1.531 . S
C1210 H1222 0.960 . S
C1210 H1223 0.962 . S
C1210 H1224 0.960 . S
C1211 C1208 1.511 . S
C1211 H1225 0.961 . S
C1211 H1226 0.961 . S
C1211 H1227 0.961 . S
C1212 C1213 1.370 . S
C1212 C1214 1.363 . S
C1212 H1228 0.931 . S
C1213 C1212 1.370 . S
C1213 C1217 1.408 . S
C1214 C1212 1.363 . S
C1214 C1215 1.370 . S
C1214 C1218 1.524 . S
C1215 C1207 1.503 . S
C1215 C1214 1.370 . S
C1215 C1216 1.403 . S
C1216 C1215 1.403 . S
C1216 C1217 1.404 . S
C1216 C1219 1.539 . S
C1217 C1213 1.408 . S
C1217 C1216 1.404 . S
C1217 H1229 0.930 . S
C1218 C1214 1.524 . S
C1218 H1230 0.956 . S
C1218 H1231 0.961 . S
C1218 H1232 0.961 . S
C1219 C1216 1.539 . S
C1219 H1233 0.958 . S
C1219 H1234 0.961 . S
C1219 H1235 0.960 . S
H1220 C1204 0.931 . S
H1221 C1209 0.929 . S
H1222 C1210 0.960 . S
H1223 C1210 0.962 . S
H1224 C1210 0.960 . S
H1225 C1211 0.961 . S
H1226 C1211 0.961 . S
H1227 C1211 0.961 . S
H1228 C1212 0.931 . S
H1229 C1217 0.930 . S
H1230 C1218 0.956 . S
H1231 C1218 0.961 . S
H1232 C1218 0.961 . S
H1233 C1219 0.958 . S
H1234 C1219 0.961 . S
H1235 C1219 0.960 . S
C1236 C1237 1.391 1_554 S
C1236 C1238 1.394 . S
C1236 H1252 0.931 1_554 S
C1237 C1236 1.391 1_556 S
C1237 C1241 1.376 . S
C1238 C1236 1.394 . S
C1238 C1239 1.369 . S
C1238 C1242 1.531 . S
C1239 C1238 1.369 . S
C1239 C1240 1.410 . S
C1239 C1247 1.503 . S
C1240 C1239 1.410 . S
C1240 C1241 1.392 1_554 S
C1240 C1243 1.511 . S
C1241 C1237 1.376 . S
C1241 C1240 1.392 1_556 S
C1241 H1253 0.929 . S
C1242 C1238 1.531 . S
C1242 H1254 0.960 . S
C1242 H1255 0.962 . S
C1242 H1256 0.960 . S
C1243 C1240 1.511 . S
C1243 H1257 0.961 . S
C1243 H1258 0.961 . S
C1243 H1259 0.961 . S
C1244 C1245 1.370 . S
C1244 C1246 1.363 . S
C1244 H1260 0.931 . S
C1245 C1244 1.370 . S
C1245 C1249 1.408 . S
C1246 C1244 1.363 . S
C1246 C1247 1.370 . S
C1246 C1250 1.524 . S
C1247 C1239 1.503 . S
C1247 C1246 1.370 . S
C1247 C1248 1.403 . S
C1248 C1247 1.403 . S
C1248 C1249 1.404 . S
C1248 C1251 1.539 . S
C1249 C1245 1.408 . S
C1249 C1248 1.404 . S
C1249 H1261 0.930 . S
C1250 C1246 1.524 . S
C1250 H1262 0.956 . S
C1250 H1263 0.961 . S
C1250 H1264 0.961 . S
C1251 C1248 1.539 . S
C1251 H1265 0.958 . S
C1251 H1266 0.961 . S
C1251 H1267 0.960 . S
H1252 C1236 0.931 1_556 S
H1253 C1241 0.929 . S
H1254 C1242 0.960 . S
H1255 C1242 0.962 . S
H1256 C1242 0.960 . S
H1257 C1243 0.961 . S
H1258 C1243 0.961 . S
H1259 C1243 0.961 . S
H1260 C1244 0.931 . S
H1261 C1249 0.930 . S
H1262 C1250 0.956 . S
H1263 C1250 0.961 . S
H1264 C1250 0.961 . S
H1265 C1251 0.958 . S
H1266 C1251 0.961 . S
H1267 C1251 0.960 . S
C1268 C1269 1.391 . S
C1268 C1270 1.394 1_556 S
C1268 H1284 0.931 . S
C1269 C1268 1.391 . S
C1269 C1273 1.376 1_556 S
C1270 C1268 1.394 1_554 S
C1270 C1271 1.369 . S
C1270 C1274 1.531 . S
C1271 C1270 1.369 . S
C1271 C1272 1.410 . S
C1271 C1279 1.503 . S
C1272 C1271 1.410 . S
C1272 C1273 1.392 . S
C1272 C1275 1.511 . S
C1273 C1269 1.376 1_554 S
C1273 C1272 1.392 . S
C1273 H1285 0.929 1_554 S
C1274 C1270 1.531 . S
C1274 H1286 0.960 . S
C1274 H1287 0.962 . S
C1274 H1288 0.960 . S
C1275 C1272 1.511 . S
C1275 H1289 0.961 . S
C1275 H1290 0.961 . S
C1275 H1291 0.961 . S
C1276 C1277 1.370 . S
C1276 C1278 1.363 . S
C1276 H1292 0.931 . S
C1277 C1276 1.370 . S
C1277 C1281 1.408 . S
C1278 C1276 1.363 . S
C1278 C1279 1.370 . S
C1278 C1282 1.524 . S
C1279 C1271 1.503 . S
C1279 C1278 1.370 . S
C1279 C1280 1.403 . S
C1280 C1279 1.403 . S
C1280 C1281 1.404 . S
C1280 C1283 1.539 . S
C1281 C1277 1.408 . S
C1281 C1280 1.404 . S
C1281 H1293 0.930 . S
C1282 C1278 1.524 . S
C1282 H1294 0.956 . S
C1282 H1295 0.961 . S
C1282 H1296 0.961 . S
C1283 C1280 1.539 . S
C1283 H1297 0.958 . S
C1283 H1298 0.961 . S
C1283 H1299 0.960 . S
H1284 C1268 0.931 . S
H1285 C1273 0.929 1_556 S
H1286 C1274 0.960 . S
H1287 C1274 0.962 . S
H1288 C1274 0.960 . S
H1289 C1275 0.961 . S
H1290 C1275 0.961 . S
H1291 C1275 0.961 . S
H1292 C1276 0.931 . S
H1293 C1281 0.930 . S
H1294 C1282 0.956 . S
H1295 C1282 0.961 . S
H1296 C1282 0.961 . S
H1297 C1283 0.958 . S
H1298 C1283 0.961 . S
H1299 C1283 0.960 . S
C1300 C1301 1.391 . S
C1300 C1302 1.394 . S
C1300 H1316 0.931 . S
C1301 C1300 1.391 . S
C1301 C1305 1.376 . S
C1302 C1300 1.394 . S
C1302 C1303 1.369 . S
C1302 C1306 1.531 . S
C1303 C1302 1.369 . S
C1303 C1304 1.410 . S
C1303 C1311 1.503 . S
C1304 C1303 1.410 . S
C1304 C1305 1.392 . S
C1304 C1307 1.511 . S
C1305 C1301 1.376 . S
C1305 C1304 1.392 . S
C1305 H1317 0.929 . S
C1306 C1302 1.531 . S
C1306 H1318 0.960 . S
C1306 H1319 0.962 . S
C1306 H1320 0.960 . S
C1307 C1304 1.511 . S
C1307 H1321 0.961 . S
C1307 H1322 0.961 . S
C1307 H1323 0.961 . S
C1308 C1309 1.370 . S
C1308 C1310 1.363 1_556 S
C1308 H1324 0.931 . S
C1309 C1308 1.370 . S
C1309 C1313 1.408 1_556 S
C1310 C1308 1.363 1_554 S
C1310 C1311 1.370 . S
C1310 C1314 1.524 . S
C1311 C1303 1.503 . S
C1311 C1310 1.370 . S
C1311 C1312 1.403 . S
C1312 C1311 1.403 . S
C1312 C1313 1.404 . S
C1312 C1315 1.539 . S
C1313 C1309 1.408 1_554 S
C1313 C1312 1.404 . S
C1313 H1325 0.930 . S
C1314 C1310 1.524 . S
C1314 H1326 0.956 . S
C1314 H1327 0.961 . S
C1314 H1328 0.961 1_554 S
C1315 C1312 1.539 . S
C1315 H1329 0.958 . S
C1315 H1330 0.961 . S
C1315 H1331 0.960 . S
H1316 C1300 0.931 . S
H1317 C1305 0.929 . S
H1318 C1306 0.960 . S
H1319 C1306 0.962 . S
H1320 C1306 0.960 . S
H1321 C1307 0.961 . S
H1322 C1307 0.961 . S
H1323 C1307 0.961 . S
H1324 C1308 0.931 . S
H1325 C1313 0.930 . S
H1326 C1314 0.956 . S
H1327 C1314 0.961 . S
H1328 C1314 0.961 1_556 S
H1329 C1315 0.958 . S
H1330 C1315 0.961 . S
H1331 C1315 0.960 . S
C1332 C1333 1.391 . S
C1332 C1334 1.394 . S
C1332 H1348 0.931 . S
C1333 C1332 1.391 . S
C1333 C1337 1.376 . S
C1334 C1332 1.394 . S
C1334 C1335 1.369 . S
C1334 C1338 1.531 . S
C1335 C1334 1.369 . S
C1335 C1336 1.410 . S
C1335 C1343 1.503 . S
C1336 C1335 1.410 . S
C1336 C1337 1.392 . S
C1336 C1339 1.511 . S
C1337 C1333 1.376 . S
C1337 C1336 1.392 . S
C1337 H1349 0.929 . S
C1338 C1334 1.531 . S
C1338 H1350 0.960 . S
C1338 H1351 0.962 . S
C1338 H1352 0.960 . S
C1339 C1336 1.511 . S
C1339 H1353 0.961 . S
C1339 H1354 0.961 . S
C1339 H1355 0.961 . S
C1340 C1341 1.370 . S
C1340 C1342 1.363 . S
C1340 H1356 0.931 . S
C1341 C1340 1.370 . S
C1341 C1345 1.408 . S
C1342 C1340 1.363 . S
C1342 C1343 1.370 . S
C1342 C1346 1.524 . S
C1343 C1335 1.503 . S
C1343 C1342 1.370 . S
C1343 C1344 1.403 . S
C1344 C1343 1.403 . S
C1344 C1345 1.404 . S
C1344 C1347 1.539 . S
C1345 C1341 1.408 . S
C1345 C1344 1.404 . S
C1345 H1357 0.930 . S
C1346 C1342 1.524 . S
C1346 H1358 0.956 . S
C1346 H1359 0.961 . S
C1346 H1360 0.961 . S
C1347 C1344 1.539 . S
C1347 H1361 0.958 . S
C1347 H1362 0.961 . S
C1347 H1363 0.960 . S
H1348 C1332 0.931 . S
H1349 C1337 0.929 . S
H1350 C1338 0.960 . S
H1351 C1338 0.962 . S
H1352 C1338 0.960 . S
H1353 C1339 0.961 . S
H1354 C1339 0.961 . S
H1355 C1339 0.961 . S
H1356 C1340 0.931 . S
H1357 C1345 0.930 . S
H1358 C1346 0.956 . S
H1359 C1346 0.961 . S
H1360 C1346 0.961 . S
H1361 C1347 0.958 . S
H1362 C1347 0.961 . S
H1363 C1347 0.960 . S
C1364 C1365 1.391 . S
C1364 C1366 1.394 . S
C1364 H1380 0.931 . S
C1365 C1364 1.391 . S
C1365 C1369 1.376 . S
C1366 C1364 1.394 . S
C1366 C1367 1.369 . S
C1366 C1370 1.531 . S
C1367 C1366 1.369 . S
C1367 C1368 1.410 . S
C1367 C1375 1.503 . S
C1368 C1367 1.410 . S
C1368 C1369 1.392 . S
C1368 C1371 1.511 . S
C1369 C1365 1.376 . S
C1369 C1368 1.392 . S
C1369 H1381 0.929 . S
C1370 C1366 1.531 . S
C1370 H1382 0.960 . S
C1370 H1383 0.962 . S
C1370 H1384 0.960 . S
C1371 C1368 1.511 . S
C1371 H1385 0.961 . S
C1371 H1386 0.961 . S
C1371 H1387 0.961 . S
C1372 C1373 1.370 . S
C1372 C1374 1.363 . S
C1372 H1388 0.931 . S
C1373 C1372 1.370 . S
C1373 C1377 1.408 . S
C1374 C1372 1.363 . S
C1374 C1375 1.370 . S
C1374 C1378 1.524 . S
C1375 C1367 1.503 . S
C1375 C1374 1.370 . S
C1375 C1376 1.403 . S
C1376 C1375 1.403 . S
C1376 C1377 1.404 . S
C1376 C1379 1.539 . S
C1377 C1373 1.408 . S
C1377 C1376 1.404 . S
C1377 H1389 0.930 . S
C1378 C1374 1.524 . S
C1378 H1390 0.956 . S
C1378 H1391 0.961 . S
C1378 H1392 0.961 . S
C1379 C1376 1.539 . S
C1379 H1393 0.958 . S
C1379 H1394 0.961 . S
C1379 H1395 0.960 . S
H1380 C1364 0.931 . S
H1381 C1369 0.929 . S
H1382 C1370 0.960 . S
H1383 C1370 0.962 . S
H1384 C1370 0.960 . S
H1385 C1371 0.961 . S
H1386 C1371 0.961 . S
H1387 C1371 0.961 . S
H1388 C1372 0.931 . S
H1389 C1377 0.930 . S
H1390 C1378 0.956 . S
H1391 C1378 0.961 . S
H1392 C1378 0.961 . S
H1393 C1379 0.958 . S
H1394 C1379 0.961 . S
H1395 C1379 0.960 . S
C1396 C1397 1.391 . S
C1396 C1398 1.394 . S
C1396 H1412 0.931 . S
C1397 C1396 1.391 . S
C1397 C1401 1.376 . S
C1398 C1396 1.394 . S
C1398 C1399 1.369 . S
C1398 C1402 1.531 . S
C1399 C1398 1.369 . S
C1399 C1400 1.410 . S
C1399 C1407 1.503 . S
C1400 C1399 1.410 . S
C1400 C1401 1.392 . S
C1400 C1403 1.511 . S
C1401 C1397 1.376 . S
C1401 C1400 1.392 . S
C1401 H1413 0.929 . S
C1402 C1398 1.531 . S
C1402 H1414 0.960 . S
C1402 H1415 0.962 . S
C1402 H1416 0.960 . S
C1403 C1400 1.511 . S
C1403 H1417 0.961 . S
C1403 H1418 0.961 . S
C1403 H1419 0.961 . S
C1404 C1405 1.370 . S
C1404 C1406 1.363 . S
C1404 H1420 0.931 . S
C1405 C1404 1.370 . S
C1405 C1409 1.408 . S
C1406 C1404 1.363 . S
C1406 C1407 1.370 . S
C1406 C1410 1.524 . S
C1407 C1399 1.503 . S
C1407 C1406 1.370 . S
C1407 C1408 1.403 . S
C1408 C1407 1.403 . S
C1408 C1409 1.404 . S
C1408 C1411 1.539 . S
C1409 C1405 1.408 . S
C1409 C1408 1.404 . S
C1409 H1421 0.930 . S
C1410 C1406 1.524 . S
C1410 H1422 0.956 . S
C1410 H1423 0.961 . S
C1410 H1424 0.961 . S
C1411 C1408 1.539 . S
C1411 H1425 0.958 . S
C1411 H1426 0.961 . S
C1411 H1427 0.960 . S
H1412 C1396 0.931 . S
H1413 C1401 0.929 . S
H1414 C1402 0.960 . S
H1415 C1402 0.962 . S
H1416 C1402 0.960 . S
H1417 C1403 0.961 . S
H1418 C1403 0.961 . S
H1419 C1403 0.961 . S
H1420 C1404 0.931 . S
H1421 C1409 0.930 . S
H1422 C1410 0.956 . S
H1423 C1410 0.961 . S
H1424 C1410 0.961 . S
H1425 C1411 0.958 . S
H1426 C1411 0.961 . S
H1427 C1411 0.960 . S
C1428 C1429 1.391 . S
C1428 C1430 1.394 . S
C1428 H1444 0.931 . S
C1429 C1428 1.391 . S
C1429 C1433 1.376 . S
C1430 C1428 1.394 . S
C1430 C1431 1.369 . S
C1430 C1434 1.531 . S
C1431 C1430 1.369 . S
C1431 C1432 1.410 . S
C1431 C1439 1.503 . S
C1432 C1431 1.410 . S
C1432 C1433 1.392 . S
C1432 C1435 1.511 . S
C1433 C1429 1.376 . S
C1433 C1432 1.392 . S
C1433 H1445 0.929 . S
C1434 C1430 1.531 . S
C1434 H1446 0.960 . S
C1434 H1447 0.962 . S
C1434 H1448 0.960 . S
C1435 C1432 1.511 . S
C1435 H1449 0.961 . S
C1435 H1450 0.961 . S
C1435 H1451 0.961 . S
C1436 C1437 1.370 . S
C1436 C1438 1.363 . S
C1436 H1452 0.931 . S
C1437 C1436 1.370 . S
C1437 C1441 1.408 . S
C1438 C1436 1.363 . S
C1438 C1439 1.370 . S
C1438 C1442 1.524 . S
C1439 C1431 1.503 . S
C1439 C1438 1.370 . S
C1439 C1440 1.403 . S
C1440 C1439 1.403 . S
C1440 C1441 1.404 . S
C1440 C1443 1.539 . S
C1441 C1437 1.408 . S
C1441 C1440 1.404 . S
C1441 H1453 0.930 . S
C1442 C1438 1.524 . S
C1442 H1454 0.956 . S
C1442 H1455 0.961 . S
C1442 H1456 0.961 . S
C1443 C1440 1.539 . S
C1443 H1457 0.958 . S
C1443 H1458 0.961 . S
C1443 H1459 0.960 . S
H1444 C1428 0.931 . S
H1445 C1433 0.929 . S
H1446 C1434 0.960 . S
H1447 C1434 0.962 . S
H1448 C1434 0.960 . S
H1449 C1435 0.961 . S
H1450 C1435 0.961 . S
H1451 C1435 0.961 . S
H1452 C1436 0.931 . S
H1453 C1441 0.930 . S
H1454 C1442 0.956 . S
H1455 C1442 0.961 . S
H1456 C1442 0.961 . S
H1457 C1443 0.958 . S
H1458 C1443 0.961 . S
H1459 C1443 0.960 . S
C1460 C1461 1.391 . S
C1460 C1462 1.394 . S
C1460 H1476 0.931 . S
C1461 C1460 1.391 . S
C1461 C1465 1.376 . S
C1462 C1460 1.394 . S
C1462 C1463 1.369 . S
C1462 C1466 1.531 . S
C1463 C1462 1.369 . S
C1463 C1464 1.410 . S
C1463 C1471 1.503 . S
C1464 C1463 1.410 . S
C1464 C1465 1.392 . S
C1464 C1467 1.511 . S
C1465 C1461 1.376 . S
C1465 C1464 1.392 . S
C1465 H1477 0.929 . S
C1466 C1462 1.531 . S
C1466 H1478 0.960 . S
C1466 H1479 0.962 . S
C1466 H1480 0.960 . S
C1467 C1464 1.511 . S
C1467 H1481 0.961 . S
C1467 H1482 0.961 . S
C1467 H1483 0.961 . S
C1468 C1469 1.370 . S
C1468 C1470 1.363 . S
C1468 H1484 0.931 . S
C1469 C1468 1.370 . S
C1469 C1473 1.408 . S
C1470 C1468 1.363 . S
C1470 C1471 1.370 . S
C1470 C1474 1.524 . S
C1471 C1463 1.503 . S
C1471 C1470 1.370 . S
C1471 C1472 1.403 . S
C1472 C1471 1.403 . S
C1472 C1473 1.404 . S
C1472 C1475 1.539 . S
C1473 C1469 1.408 . S
C1473 C1472 1.404 . S
C1473 H1485 0.930 . S
C1474 C1470 1.524 . S
C1474 H1486 0.956 . S
C1474 H1487 0.961 . S
C1474 H1488 0.961 . S
C1475 C1472 1.539 . S
C1475 H1489 0.958 . S
C1475 H1490 0.961 . S
C1475 H1491 0.960 . S
H1476 C1460 0.931 . S
H1477 C1465 0.929 . S
H1478 C1466 0.960 . S
H1479 C1466 0.962 . S
H1480 C1466 0.960 . S
H1481 C1467 0.961 . S
H1482 C1467 0.961 . S
H1483 C1467 0.961 . S
H1484 C1468 0.931 . S
H1485 C1473 0.930 . S
H1486 C1474 0.956 . S
H1487 C1474 0.961 . S
H1488 C1474 0.961 . S
H1489 C1475 0.958 . S
H1490 C1475 0.961 . S
H1491 C1475 0.960 . S
C1492 C1493 1.391 . S
C1492 C1494 1.394 . S
C1492 H1508 0.931 . S
C1493 C1492 1.391 . S
C1493 C1497 1.376 . S
C1494 C1492 1.394 . S
C1494 C1495 1.369 . S
C1494 C1498 1.531 . S
C1495 C1494 1.369 . S
C1495 C1496 1.410 . S
C1495 C1503 1.503 . S
C1496 C1495 1.410 . S
C1496 C1497 1.392 . S
C1496 C1499 1.511 . S
C1497 C1493 1.376 . S
C1497 C1496 1.392 . S
C1497 H1509 0.929 . S
C1498 C1494 1.531 . S
C1498 H1510 0.960 . S
C1498 H1511 0.962 . S
C1498 H1512 0.960 . S
C1499 C1496 1.511 . S
C1499 H1513 0.961 . S
C1499 H1514 0.961 . S
C1499 H1515 0.961 . S
C1500 C1501 1.370 . S
C1500 C1502 1.363 . S
C1500 H1516 0.931 . S
C1501 C1500 1.370 . S
C1501 C1505 1.408 . S
C1502 C1500 1.363 . S
C1502 C1503 1.370 . S
C1502 C1506 1.524 . S
C1503 C1495 1.503 . S
C1503 C1502 1.370 . S
C1503 C1504 1.403 . S
C1504 C1503 1.403 . S
C1504 C1505 1.404 . S
C1504 C1507 1.539 . S
C1505 C1501 1.408 . S
C1505 C1504 1.404 . S
C1505 H1517 0.930 . S
C1506 C1502 1.524 . S
C1506 H1518 0.956 . S
C1506 H1519 0.961 . S
C1506 H1520 0.961 . S
C1507 C1504 1.539 . S
C1507 H1521 0.958 . S
C1507 H1522 0.961 . S
C1507 H1523 0.960 . S
H1508 C1492 0.931 . S
H1509 C1497 0.929 . S
H1510 C1498 0.960 . S
H1511 C1498 0.962 . S
H1512 C1498 0.960 . S
H1513 C1499 0.961 . S
H1514 C1499 0.961 . S
H1515 C1499 0.961 . S
H1516 C1500 0.931 . S
H1517 C1505 0.930 . S
H1518 C1506 0.956 . S
H1519 C1506 0.961 . S
H1520 C1506 0.961 . S
H1521 C1507 0.958 . S
H1522 C1507 0.961 . S
H1523 C1507 0.960 . S
C1524 C1525 1.391 . S
C1524 C1526 1.394 . S
C1524 H1540 0.931 . S
C1525 C1524 1.391 . S
C1525 C1529 1.376 . S
C1526 C1524 1.394 . S
C1526 C1527 1.369 . S
C1526 C1530 1.531 . S
C1527 C1526 1.369 . S
C1527 C1528 1.410 . S
C1527 C1535 1.503 . S
C1528 C1527 1.410 . S
C1528 C1529 1.392 . S
C1528 C1531 1.511 . S
C1529 C1525 1.376 . S
C1529 C1528 1.392 . S
C1529 H1541 0.929 . S
C1530 C1526 1.531 . S
C1530 H1542 0.960 . S
C1530 H1543 0.962 . S
C1530 H1544 0.960 . S
C1531 C1528 1.511 . S
C1531 H1545 0.961 . S
C1531 H1546 0.961 . S
C1531 H1547 0.961 . S
C1532 C1533 1.370 1_556 S
C1532 C1534 1.363 . S
C1532 H1548 0.931 . S
C1533 C1532 1.370 1_554 S
C1533 C1537 1.408 . S
C1534 C1532 1.363 . S
C1534 C1535 1.370 . S
C1534 C1538 1.524 . S
C1535 C1527 1.503 . S
C1535 C1534 1.370 . S
C1535 C1536 1.403 . S
C1536 C1535 1.403 . S
C1536 C1537 1.404 1_556 S
C1536 C1539 1.539 . S
C1537 C1533 1.408 . S
C1537 C1536 1.404 1_554 S
C1537 H1549 0.930 . S
C1538 C1534 1.524 . S
C1538 H1550 0.956 . S
C1538 H1551 0.961 . S
C1538 H1552 0.961 . S
C1539 C1536 1.539 . S
C1539 H1553 0.958 . S
C1539 H1554 0.961 1_556 S
C1539 H1555 0.960 . S
H1540 C1524 0.931 . S
H1541 C1529 0.929 . S
H1542 C1530 0.960 . S
H1543 C1530 0.962 . S
H1544 C1530 0.960 . S
H1545 C1531 0.961 . S
H1546 C1531 0.961 . S
H1547 C1531 0.961 . S
H1548 C1532 0.931 . S
H1549 C1537 0.930 . S
H1550 C1538 0.956 . S
H1551 C1538 0.961 . S
H1552 C1538 0.961 . S
H1553 C1539 0.958 . S
H1554 C1539 0.961 1_554 S
H1555 C1539 0.960 . S
C1556 C1557 1.391 . S
C1556 C1558 1.394 1_554 S
C1556 H1572 0.931 . S
C1557 C1556 1.391 . S
C1557 C1561 1.376 1_554 S
C1558 C1556 1.394 1_556 S
C1558 C1559 1.369 . S
C1558 C1562 1.531 . S
C1559 C1558 1.369 . S
C1559 C1560 1.410 . S
C1559 C1567 1.503 . S
C1560 C1559 1.410 . S
C1560 C1561 1.392 . S
C1560 C1563 1.511 . S
C1561 C1557 1.376 1_556 S
C1561 C1560 1.392 . S
C1561 H1573 0.929 . S
C1562 C1558 1.531 . S
C1562 H1574 0.960 . S
C1562 H1575 0.962 . S
C1562 H1576 0.960 1_556 S
C1563 C1560 1.511 . S
C1563 H1577 0.961 . S
C1563 H1578 0.961 . S
C1563 H1579 0.961 . S
C1564 C1565 1.370 . S
C1564 C1566 1.363 . S
C1564 H1580 0.931 . S
C1565 C1564 1.370 . S
C1565 C1569 1.408 . S
C1566 C1564 1.363 . S
C1566 C1567 1.370 . S
C1566 C1570 1.524 . S
C1567 C1559 1.503 . S
C1567 C1566 1.370 . S
C1567 C1568 1.403 . S
C1568 C1567 1.403 . S
C1568 C1569 1.404 . S
C1568 C1571 1.539 . S
C1569 C1565 1.408 . S
C1569 C1568 1.404 . S
C1569 H1581 0.930 . S
C1570 C1566 1.524 . S
C1570 H1582 0.956 . S
C1570 H1583 0.961 . S
C1570 H1584 0.961 . S
C1571 C1568 1.539 . S
C1571 H1585 0.958 . S
C1571 H1586 0.961 . S
C1571 H1587 0.960 . S
H1572 C1556 0.931 . S
H1573 C1561 0.929 . S
H1574 C1562 0.960 . S
H1575 C1562 0.962 . S
H1576 C1562 0.960 1_554 S
H1577 C1563 0.961 . S
H1578 C1563 0.961 . S
H1579 C1563 0.961 . S
H1580 C1564 0.931 . S
H1581 C1569 0.930 . S
H1582 C1570 0.956 . S
H1583 C1570 0.961 . S
H1584 C1570 0.961 . S
H1585 C1571 0.958 . S
H1586 C1571 0.961 . S
H1587 C1571 0.960 . S
C1588 C1589 1.391 . S
C1588 C1590 1.394 . S
C1588 H1604 0.931 . S
C1589 C1588 1.391 . S
C1589 C1593 1.376 . S
C1590 C1588 1.394 . S
C1590 C1591 1.369 . S
C1590 C1594 1.531 . S
C1591 C1590 1.369 . S
C1591 C1592 1.410 . S
C1591 C1599 1.503 . S
C1592 C1591 1.410 . S
C1592 C1593 1.392 . S
C1592 C1595 1.511 . S
C1593 C1589 1.376 . S
C1593 C1592 1.392 . S
C1593 H1605 0.929 . S
C1594 C1590 1.531 . S
C1594 H1606 0.960 . S
C1594 H1607 0.962 . S
C1594 H1608 0.960 . S
C1595 C1592 1.511 . S
C1595 H1609 0.961 . S
C1595 H1610 0.961 . S
C1595 H1611 0.961 . S
C1596 C1597 1.370 1_556 S
C1596 C1598 1.363 . S
C1596 H1612 0.933 . S
C1597 C1596 1.370 1_554 S
C1597 C1601 1.408 . S
C1598 C1596 1.363 . S
C1598 C1599 1.370 . S
C1598 C1602 1.524 . S
C1599 C1591 1.503 . S
C1599 C1598 1.370 . S
C1599 C1600 1.403 . S
C1600 C1599 1.403 . S
C1600 C1601 1.404 1_556 S
C1600 C1603 1.539 . S
C1601 C1597 1.408 . S
C1601 C1600 1.404 1_554 S
C1601 H1613 0.930 . S
C1602 C1598 1.524 . S
C1602 H1614 0.956 . S
C1602 H1615 0.961 . S
C1602 H1616 0.961 . S
C1603 C1600 1.539 . S
C1603 H1617 0.958 . S
C1603 H1618 0.961 1_556 S
C1603 H1619 0.960 . S
H1604 C1588 0.931 . S
H1605 C1593 0.929 . S
H1606 C1594 0.960 . S
H1607 C1594 0.962 . S
H1608 C1594 0.960 . S
H1609 C1595 0.961 . S
H1610 C1595 0.961 . S
H1611 C1595 0.961 . S
H1612 C1596 0.933 . S
H1613 C1601 0.930 . S
H1614 C1602 0.956 . S
H1615 C1602 0.961 . S
H1616 C1602 0.961 . S
H1617 C1603 0.958 . S
H1618 C1603 0.961 1_554 S
H1619 C1603 0.960 . S
C1620 C1621 1.391 . S
C1620 C1622 1.394 . S
C1620 H1636 0.931 . S
C1621 C1620 1.391 . S
C1621 C1625 1.376 . S
C1622 C1620 1.394 . S
C1622 C1623 1.369 . S
C1622 C1626 1.531 . S
C1623 C1622 1.369 . S
C1623 C1624 1.410 . S
C1623 C1631 1.503 . S
C1624 C1623 1.410 . S
C1624 C1625 1.392 . S
C1624 C1627 1.511 . S
C1625 C1621 1.376 . S
C1625 C1624 1.392 . S
C1625 H1637 0.929 . S
C1626 C1622 1.531 . S
C1626 H1638 0.960 . S
C1626 H1639 0.962 . S
C1626 H1640 0.960 . S
C1627 C1624 1.511 . S
C1627 H1641 0.961 . S
C1627 H1642 0.961 . S
C1627 H1643 0.961 . S
C1628 C1629 1.370 . S
C1628 C1630 1.363 . S
C1628 H1644 0.931 . S
C1629 C1628 1.370 . S
C1629 C1633 1.408 . S
C1630 C1628 1.363 . S
C1630 C1631 1.370 . S
C1630 C1634 1.524 . S
C1631 C1623 1.503 . S
C1631 C1630 1.370 . S
C1631 C1632 1.403 . S
C1632 C1631 1.403 . S
C1632 C1633 1.404 . S
C1632 C1635 1.539 . S
C1633 C1629 1.408 . S
C1633 C1632 1.404 . S
C1633 H1645 0.930 . S
C1634 C1630 1.524 . S
C1634 H1646 0.956 . S
C1634 H1647 0.961 . S
C1634 H1648 0.961 . S
C1635 C1632 1.539 . S
C1635 H1649 0.958 . S
C1635 H1650 0.961 . S
C1635 H1651 0.960 . S
H1636 C1620 0.931 . S
H1637 C1625 0.929 . S
H1638 C1626 0.960 . S
H1639 C1626 0.962 . S
H1640 C1626 0.960 . S
H1641 C1627 0.961 . S
H1642 C1627 0.961 . S
H1643 C1627 0.961 . S
H1644 C1628 0.931 . S
H1645 C1633 0.930 . S
H1646 C1634 0.956 . S
H1647 C1634 0.961 . S
H1648 C1634 0.961 . S
H1649 C1635 0.958 . S
H1650 C1635 0.961 . S
H1651 C1635 0.960 . S
C1652 C1653 1.391 . S
C1652 C1654 1.394 . S
C1652 H1668 0.931 . S
C1653 C1652 1.391 . S
C1653 C1657 1.376 . S
C1654 C1652 1.394 . S
C1654 C1655 1.369 . S
C1654 C1658 1.531 . S
C1655 C1654 1.369 . S
C1655 C1656 1.410 . S
C1655 C1663 1.503 . S
C1656 C1655 1.410 . S
C1656 C1657 1.392 . S
C1656 C1659 1.511 . S
C1657 C1653 1.376 . S
C1657 C1656 1.392 . S
C1657 H1669 0.929 . S
C1658 C1654 1.531 . S
C1658 H1670 0.960 . S
C1658 H1671 0.962 . S
C1658 H1672 0.960 . S
C1659 C1656 1.511 . S
C1659 H1673 0.961 . S
C1659 H1674 0.961 . S
C1659 H1675 0.961 . S
C1660 C1661 1.370 . S
C1660 C1662 1.363 . S
C1660 H1676 0.931 . S
C1661 C1660 1.370 . S
C1661 C1665 1.408 . S
C1662 C1660 1.363 . S
C1662 C1663 1.370 . S
C1662 C1666 1.524 . S
C1663 C1655 1.503 . S
C1663 C1662 1.370 . S
C1663 C1664 1.403 . S
C1664 C1663 1.403 . S
C1664 C1665 1.404 . S
C1664 C1667 1.539 . S
C1665 C1661 1.408 . S
C1665 C1664 1.404 . S
C1665 H1677 0.930 . S
C1666 C1662 1.524 . S
C1666 H1678 0.956 . S
C1666 H1679 0.961 . S
C1666 H1680 0.961 . S
C1667 C1664 1.539 . S
C1667 H1681 0.958 . S
C1667 H1682 0.961 . S
C1667 H1683 0.960 . S
H1668 C1652 0.931 . S
H1669 C1657 0.929 . S
H1670 C1658 0.960 . S
H1671 C1658 0.962 . S
H1672 C1658 0.960 . S
H1673 C1659 0.961 . S
H1674 C1659 0.961 . S
H1675 C1659 0.961 . S
H1676 C1660 0.931 . S
H1677 C1665 0.930 . S
H1678 C1666 0.956 . S
H1679 C1666 0.961 . S
H1680 C1666 0.961 . S
H1681 C1667 0.958 . S
H1682 C1667 0.961 . S
H1683 C1667 0.960 . S
C1684 C1685 1.391 . S
C1684 C1686 1.394 . S
C1684 H1700 0.931 . S
C1685 C1684 1.391 . S
C1685 C1689 1.376 . S
C1686 C1684 1.394 . S
C1686 C1687 1.369 . S
C1686 C1690 1.531 . S
C1687 C1686 1.369 . S
C1687 C1688 1.410 . S
C1687 C1695 1.503 . S
C1688 C1687 1.410 . S
C1688 C1689 1.392 . S
C1688 C1691 1.511 . S
C1689 C1685 1.376 . S
C1689 C1688 1.392 . S
C1689 H1701 0.929 . S
C1690 C1686 1.531 . S
C1690 H1702 0.960 . S
C1690 H1703 0.962 . S
C1690 H1704 0.960 . S
C1691 C1688 1.511 . S
C1691 H1705 0.961 . S
C1691 H1706 0.961 . S
C1691 H1707 0.961 . S
C1692 C1693 1.370 . S
C1692 C1694 1.363 . S
C1692 H1708 0.931 . S
C1693 C1692 1.370 . S
C1693 C1697 1.408 . S
C1694 C1692 1.363 . S
C1694 C1695 1.370 . S
C1694 C1698 1.524 . S
C1695 C1687 1.503 . S
C1695 C1694 1.370 . S
C1695 C1696 1.403 . S
C1696 C1695 1.403 . S
C1696 C1697 1.404 . S
C1696 C1699 1.539 . S
C1697 C1693 1.408 . S
C1697 C1696 1.404 . S
C1697 H1709 0.930 . S
C1698 C1694 1.524 . S
C1698 H1710 0.956 . S
C1698 H1711 0.961 . S
C1698 H1712 0.961 . S
C1699 C1696 1.539 . S
C1699 H1713 0.958 . S
C1699 H1714 0.961 . S
C1699 H1715 0.960 . S
H1700 C1684 0.931 . S
H1701 C1689 0.929 . S
H1702 C1690 0.960 . S
H1703 C1690 0.962 . S
H1704 C1690 0.960 . S
H1705 C1691 0.961 . S
H1706 C1691 0.961 . S
H1707 C1691 0.961 . S
H1708 C1692 0.931 . S
H1709 C1697 0.930 . S
H1710 C1698 0.956 . S
H1711 C1698 0.961 . S
H1712 C1698 0.961 . S
H1713 C1699 0.958 . S
H1714 C1699 0.961 . S
H1715 C1699 0.960 . S
C1716 C1717 1.391 . S
C1716 C1718 1.394 . S
C1716 H1732 0.931 . S
C1717 C1716 1.391 . S
C1717 C1721 1.376 . S
C1718 C1716 1.394 . S
C1718 C1719 1.369 . S
C1718 C1722 1.531 . S
C1719 C1718 1.369 . S
C1719 C1720 1.410 . S
C1719 C1727 1.503 . S
C1720 C1719 1.410 . S
C1720 C1721 1.392 . S
C1720 C1723 1.511 . S
C1721 C1717 1.376 . S
C1721 C1720 1.392 . S
C1721 H1733 0.929 . S
C1722 C1718 1.531 . S
C1722 H1734 0.960 . S
C1722 H1735 0.962 . S
C1722 H1736 0.960 . S
C1723 C1720 1.511 . S
C1723 H1737 0.961 . S
C1723 H1738 0.961 . S
C1723 H1739 0.961 . S
C1724 C1725 1.370 . S
C1724 C1726 1.363 . S
C1724 H1740 0.931 . S
C1725 C1724 1.370 . S
C1725 C1729 1.408 . S
C1726 C1724 1.363 . S
C1726 C1727 1.370 . S
C1726 C1730 1.524 . S
C1727 C1719 1.503 . S
C1727 C1726 1.370 . S
C1727 C1728 1.403 . S
C1728 C1727 1.403 . S
C1728 C1729 1.404 . S
C1728 C1731 1.539 . S
C1729 C1725 1.408 . S
C1729 C1728 1.404 . S
C1729 H1741 0.930 . S
C1730 C1726 1.524 . S
C1730 H1742 0.956 . S
C1730 H1743 0.961 . S
C1730 H1744 0.961 . S
C1731 C1728 1.539 . S
C1731 H1745 0.958 . S
C1731 H1746 0.961 . S
C1731 H1747 0.960 . S
H1732 C1716 0.931 . S
H1733 C1721 0.929 . S
H1734 C1722 0.960 . S
H1735 C1722 0.962 . S
H1736 C1722 0.960 . S
H1737 C1723 0.961 . S
H1738 C1723 0.961 . S
H1739 C1723 0.961 . S
H1740 C1724 0.931 . S
H1741 C1729 0.930 . S
H1742 C1730 0.956 . S
H1743 C1730 0.961 . S
H1744 C1730 0.961 . S
H1745 C1731 0.958 . S
H1746 C1731 0.961 . S
H1747 C1731 0.960 . S
C1748 C1749 1.391 . S
C1748 C1750 1.394 . S
C1748 H1764 0.931 . S
C1749 C1748 1.391 . S
C1749 C1753 1.376 . S
C1750 C1748 1.394 . S
C1750 C1751 1.369 . S
C1750 C1754 1.531 . S
C1751 C1750 1.369 . S
C1751 C1752 1.410 . S
C1751 C1759 1.503 . S
C1752 C1751 1.410 . S
C1752 C1753 1.392 . S
C1752 C1755 1.511 . S
C1753 C1749 1.376 . S
C1753 C1752 1.392 . S
C1753 H1765 0.929 . S
C1754 C1750 1.531 . S
C1754 H1766 0.960 . S
C1754 H1767 0.962 . S
C1754 H1768 0.960 . S
C1755 C1752 1.511 . S
C1755 H1769 0.961 . S
C1755 H1770 0.961 . S
C1755 H1771 0.961 . S
C1756 C1757 1.370 . S
C1756 C1758 1.363 . S
C1756 H1772 0.931 . S
C1757 C1756 1.370 . S
C1757 C1761 1.408 . S
C1758 C1756 1.363 . S
C1758 C1759 1.370 . S
C1758 C1762 1.524 . S
C1759 C1751 1.503 . S
C1759 C1758 1.370 . S
C1759 C1760 1.403 . S
C1760 C1759 1.403 . S
C1760 C1761 1.404 . S
C1760 C1763 1.539 . S
C1761 C1757 1.408 . S
C1761 C1760 1.404 . S
C1761 H1773 0.930 . S
C1762 C1758 1.524 . S
C1762 H1774 0.956 . S
C1762 H1775 0.961 . S
C1762 H1776 0.961 . S
C1763 C1760 1.539 . S
C1763 H1777 0.958 . S
C1763 H1778 0.961 . S
C1763 H1779 0.960 . S
H1764 C1748 0.931 . S
H1765 C1753 0.929 . S
H1766 C1754 0.960 . S
H1767 C1754 0.962 . S
H1768 C1754 0.960 . S
H1769 C1755 0.961 . S
H1770 C1755 0.961 . S
H1771 C1755 0.961 . S
H1772 C1756 0.931 . S
H1773 C1761 0.930 . S
H1774 C1762 0.956 . S
H1775 C1762 0.961 . S
H1776 C1762 0.961 . S
H1777 C1763 0.958 . S
H1778 C1763 0.961 . S
H1779 C1763 0.960 . S
C1780 C1781 1.391 . S
C1780 C1782 1.394 . S
C1780 H1796 0.931 . S
C1781 C1780 1.391 . S
C1781 C1785 1.376 . S
C1782 C1780 1.394 . S
C1782 C1783 1.369 . S
C1782 C1786 1.531 . S
C1783 C1782 1.369 . S
C1783 C1784 1.410 . S
C1783 C1791 1.503 . S
C1784 C1783 1.410 . S
C1784 C1785 1.392 . S
C1784 C1787 1.511 . S
C1785 C1781 1.376 . S
C1785 C1784 1.392 . S
C1785 H1797 0.929 . S
C1786 C1782 1.531 . S
C1786 H1798 0.960 . S
C1786 H1799 0.962 . S
C1786 H1800 0.960 . S
C1787 C1784 1.511 . S
C1787 H1801 0.961 . S
C1787 H1802 0.961 . S
C1787 H1803 0.961 . S
C1788 C1789 1.370 . S
C1788 C1790 1.363 . S
C1788 H1804 0.931 . S
C1789 C1788 1.370 . S
C1789 C1793 1.408 . S
C1790 C1788 1.363 . S
C1790 C1791 1.370 . S
C1790 C1794 1.524 . S
C1791 C1783 1.503 . S
C1791 C1790 1.370 . S
C1791 C1792 1.403 . S
C1792 C1791 1.403 . S
C1792 C1793 1.404 . S
C1792 C1795 1.539 . S
C1793 C1789 1.408 . S
C1793 C1792 1.404 . S
C1793 H1805 0.930 . S
C1794 C1790 1.524 . S
C1794 H1806 0.956 . S
C1794 H1807 0.961 . S
C1794 H1808 0.961 . S
C1795 C1792 1.539 . S
C1795 H1809 0.958 . S
C1795 H1810 0.961 . S
C1795 H1811 0.960 . S
H1796 C1780 0.931 . S
H1797 C1785 0.929 . S
H1798 C1786 0.960 . S
H1799 C1786 0.962 . S
H1800 C1786 0.960 . S
H1801 C1787 0.961 . S
H1802 C1787 0.961 . S
H1803 C1787 0.961 . S
H1804 C1788 0.931 . S
H1805 C1793 0.930 . S
H1806 C1794 0.956 . S
H1807 C1794 0.961 . S
H1808 C1794 0.961 . S
H1809 C1795 0.958 . S
H1810 C1795 0.961 . S
H1811 C1795 0.960 . S
C1812 C1813 1.391 . S
C1812 C1814 1.394 . S
C1812 H1828 0.931 . S
C1813 C1812 1.391 . S
C1813 C1817 1.376 . S
C1814 C1812 1.394 . S
C1814 C1815 1.369 . S
C1814 C1818 1.531 . S
C1815 C1814 1.369 . S
C1815 C1816 1.410 . S
C1815 C1823 1.503 . S
C1816 C1815 1.410 . S
C1816 C1817 1.392 . S
C1816 C1819 1.511 . S
C1817 C1813 1.376 . S
C1817 C1816 1.392 . S
C1817 H1829 0.929 . S
C1818 C1814 1.531 . S
C1818 H1830 0.960 . S
C1818 H1831 0.962 . S
C1818 H1832 0.960 . S
C1819 C1816 1.511 . S
C1819 H1833 0.961 . S
C1819 H1834 0.961 . S
C1819 H1835 0.961 . S
C1820 C1821 1.370 . S
C1820 C1822 1.363 . S
C1820 H1836 0.931 . S
C1821 C1820 1.370 . S
C1821 C1825 1.408 . S
C1822 C1820 1.363 . S
C1822 C1823 1.370 . S
C1822 C1826 1.524 . S
C1823 C1815 1.503 . S
C1823 C1822 1.370 . S
C1823 C1824 1.403 . S
C1824 C1823 1.403 . S
C1824 C1825 1.404 . S
C1824 C1827 1.539 . S
C1825 C1821 1.408 . S
C1825 C1824 1.404 . S
C1825 H1837 0.930 . S
C1826 C1822 1.524 . S
C1826 H1838 0.956 . S
C1826 H1839 0.961 . S
C1826 H1840 0.961 . S
C1827 C1824 1.539 . S
C1827 H1841 0.958 . S
C1827 H1842 0.961 . S
C1827 H1843 0.960 . S
H1828 C1812 0.931 . S
H1829 C1817 0.929 . S
H1830 C1818 0.960 . S
H1831 C1818 0.962 . S
H1832 C1818 0.960 . S
H1833 C1819 0.961 . S
H1834 C1819 0.961 . S
H1835 C1819 0.961 . S
H1836 C1820 0.931 . S
H1837 C1825 0.930 . S
H1838 C1826 0.956 . S
H1839 C1826 0.961 . S
H1840 C1826 0.961 . S
H1841 C1827 0.958 . S
H1842 C1827 0.961 . S
H1843 C1827 0.960 . S
C1844 C1845 1.391 . S
C1844 C1846 1.394 . S
C1844 H1860 0.931 . S
C1845 C1844 1.391 . S
C1845 C1849 1.376 . S
C1846 C1844 1.394 . S
C1846 C1847 1.369 . S
C1846 C1850 1.531 . S
C1847 C1846 1.369 . S
C1847 C1848 1.410 . S
C1847 C1855 1.503 . S
C1848 C1847 1.410 . S
C1848 C1849 1.392 . S
C1848 C1851 1.511 . S
C1849 C1845 1.376 . S
C1849 C1848 1.392 . S
C1849 H1861 0.929 . S
C1850 C1846 1.531 . S
C1850 H1862 0.960 . S
C1850 H1863 0.962 . S
C1850 H1864 0.960 . S
C1851 C1848 1.511 . S
C1851 H1865 0.961 . S
C1851 H1866 0.961 . S
C1851 H1867 0.961 . S
C1852 C1853 1.370 . S
C1852 C1854 1.363 . S
C1852 H1868 0.931 . S
C1853 C1852 1.370 . S
C1853 C1857 1.408 . S
C1854 C1852 1.363 . S
C1854 C1855 1.370 . S
C1854 C1858 1.524 . S
C1855 C1847 1.503 . S
C1855 C1854 1.370 . S
C1855 C1856 1.403 . S
C1856 C1855 1.403 . S
C1856 C1857 1.404 . S
C1856 C1859 1.539 . S
C1857 C1853 1.408 . S
C1857 C1856 1.404 . S
C1857 H1869 0.930 . S
C1858 C1854 1.524 . S
C1858 H1870 0.956 . S
C1858 H1871 0.961 . S
C1858 H1872 0.961 . S
C1859 C1856 1.539 . S
C1859 H1873 0.958 . S
C1859 H1874 0.961 . S
C1859 H1875 0.960 . S
H1860 C1844 0.931 . S
H1861 C1849 0.929 . S
H1862 C1850 0.960 . S
H1863 C1850 0.962 . S
H1864 C1850 0.960 . S
H1865 C1851 0.961 . S
H1866 C1851 0.961 . S
H1867 C1851 0.961 . S
H1868 C1852 0.931 . S
H1869 C1857 0.930 . S
H1870 C1858 0.956 . S
H1871 C1858 0.961 . S
H1872 C1858 0.961 . S
H1873 C1859 0.958 . S
H1874 C1859 0.961 . S
H1875 C1859 0.960 . S
C1876 C1877 1.391 . S
C1876 C1878 1.394 . S
C1876 H1892 0.931 . S
C1877 C1876 1.391 . S
C1877 C1881 1.376 . S
C1878 C1876 1.394 . S
C1878 C1879 1.369 . S
C1878 C1882 1.531 . S
C1879 C1878 1.369 . S
C1879 C1880 1.410 . S
C1879 C1887 1.503 . S
C1880 C1879 1.410 . S
C1880 C1881 1.392 . S
C1880 C1883 1.511 . S
C1881 C1877 1.376 . S
C1881 C1880 1.392 . S
C1881 H1893 0.929 . S
C1882 C1878 1.531 . S
C1882 H1894 0.960 . S
C1882 H1895 0.962 . S
C1882 H1896 0.960 . S
C1883 C1880 1.511 . S
C1883 H1897 0.961 . S
C1883 H1898 0.961 . S
C1883 H1899 0.961 . S
C1884 C1885 1.370 . S
C1884 C1886 1.363 . S
C1884 H1900 0.931 . S
C1885 C1884 1.370 . S
C1885 C1889 1.408 . S
C1886 C1884 1.363 . S
C1886 C1887 1.370 . S
C1886 C1890 1.524 . S
C1887 C1879 1.503 . S
C1887 C1886 1.370 . S
C1887 C1888 1.403 . S
C1888 C1887 1.403 . S
C1888 C1889 1.404 . S
C1888 C1891 1.539 . S
C1889 C1885 1.408 . S
C1889 C1888 1.404 . S
C1889 H1901 0.930 . S
C1890 C1886 1.524 . S
C1890 H1902 0.956 . S
C1890 H1903 0.961 . S
C1890 H1904 0.961 . S
C1891 C1888 1.539 . S
C1891 H1905 0.958 . S
C1891 H1906 0.961 . S
C1891 H1907 0.960 . S
H1892 C1876 0.931 . S
H1893 C1881 0.929 . S
H1894 C1882 0.960 . S
H1895 C1882 0.962 . S
H1896 C1882 0.960 . S
H1897 C1883 0.961 . S
H1898 C1883 0.961 . S
H1899 C1883 0.961 . S
H1900 C1884 0.931 . S
H1901 C1889 0.930 . S
H1902 C1890 0.956 . S
H1903 C1890 0.961 . S
H1904 C1890 0.961 . S
H1905 C1891 0.958 . S
H1906 C1891 0.961 . S
H1907 C1891 0.960 . S
C1908 C1909 1.391 . S
C1908 C1910 1.394 . S
C1908 H1924 0.931 . S
C1909 C1908 1.391 . S
C1909 C1913 1.376 . S
C1910 C1908 1.394 . S
C1910 C1911 1.369 . S
C1910 C1914 1.531 . S
C1911 C1910 1.369 . S
C1911 C1912 1.410 . S
C1911 C1919 1.503 . S
C1912 C1911 1.410 . S
C1912 C1913 1.392 . S
C1912 C1915 1.511 . S
C1913 C1909 1.376 . S
C1913 C1912 1.392 . S
C1913 H1925 0.929 . S
C1914 C1910 1.531 . S
C1914 H1926 0.960 . S
C1914 H1927 0.962 . S
C1914 H1928 0.960 . S
C1915 C1912 1.511 . S
C1915 H1929 0.961 . S
C1915 H1930 0.961 . S
C1915 H1931 0.961 . S
C1916 C1917 1.370 . S
C1916 C1918 1.363 . S
C1916 H1932 0.931 . S
C1917 C1916 1.370 . S
C1917 C1921 1.408 . S
C1918 C1916 1.363 . S
C1918 C1919 1.370 . S
C1918 C1922 1.524 . S
C1919 C1911 1.503 . S
C1919 C1918 1.370 . S
C1919 C1920 1.403 . S
C1920 C1919 1.403 . S
C1920 C1921 1.404 . S
C1920 C1923 1.539 . S
C1921 C1917 1.408 . S
C1921 C1920 1.404 . S
C1921 H1933 0.930 . S
C1922 C1918 1.524 . S
C1922 H1934 0.956 . S
C1922 H1935 0.961 . S
C1922 H1936 0.961 . S
C1923 C1920 1.539 . S
C1923 H1937 0.958 . S
C1923 H1938 0.961 . S
C1923 H1939 0.960 . S
H1924 C1908 0.931 . S
H1925 C1913 0.929 . S
H1926 C1914 0.960 . S
H1927 C1914 0.962 . S
H1928 C1914 0.960 . S
H1929 C1915 0.961 . S
H1930 C1915 0.961 . S
H1931 C1915 0.961 . S
H1932 C1916 0.931 . S
H1933 C1921 0.930 . S
H1934 C1922 0.956 . S
H1935 C1922 0.961 . S
H1936 C1922 0.961 . S
H1937 C1923 0.958 . S
H1938 C1923 0.961 . S
H1939 C1923 0.960 . S
C1940 C1941 1.391 . S
C1940 C1942 1.394 . S
C1940 H1956 0.931 . S
C1941 C1940 1.391 . S
C1941 C1945 1.376 . S
C1942 C1940 1.394 . S
C1942 C1943 1.369 . S
C1942 C1946 1.531 . S
C1943 C1942 1.369 . S
C1943 C1944 1.410 . S
C1943 C1951 1.503 . S
C1944 C1943 1.410 . S
C1944 C1945 1.392 . S
C1944 C1947 1.511 . S
C1945 C1941 1.376 . S
C1945 C1944 1.392 . S
C1945 H1957 0.929 . S
C1946 C1942 1.531 . S
C1946 H1958 0.960 . S
C1946 H1959 0.962 . S
C1946 H1960 0.960 . S
C1947 C1944 1.511 . S
C1947 H1961 0.961 . S
C1947 H1962 0.961 . S
C1947 H1963 0.961 . S
C1948 C1949 1.370 . S
C1948 C1950 1.363 . S
C1948 H1964 0.931 . S
C1949 C1948 1.370 . S
C1949 C1953 1.408 . S
C1950 C1948 1.363 . S
C1950 C1951 1.370 . S
C1950 C1954 1.524 . S
C1951 C1943 1.503 . S
C1951 C1950 1.370 . S
C1951 C1952 1.403 . S
C1952 C1951 1.403 . S
C1952 C1953 1.404 . S
C1952 C1955 1.539 . S
C1953 C1949 1.408 . S
C1953 C1952 1.404 . S
C1953 H1965 0.930 . S
C1954 C1950 1.524 . S
C1954 H1966 0.956 . S
C1954 H1967 0.961 . S
C1954 H1968 0.961 . S
C1955 C1952 1.539 . S
C1955 H1969 0.958 . S
C1955 H1970 0.961 . S
C1955 H1971 0.960 . S
H1956 C1940 0.931 . S
H1957 C1945 0.929 . S
H1958 C1946 0.960 . S
H1959 C1946 0.962 . S
H1960 C1946 0.960 . S
H1961 C1947 0.961 . S
H1962 C1947 0.961 . S
H1963 C1947 0.961 . S
H1964 C1948 0.931 . S
H1965 C1953 0.930 . S
H1966 C1954 0.956 . S
H1967 C1954 0.961 . S
H1968 C1954 0.961 . S
H1969 C1955 0.958 . S
H1970 C1955 0.961 . S
H1971 C1955 0.960 . S
C1972 C1973 1.391 . S
C1972 C1974 1.394 . S
C1972 H1988 0.931 . S
C1973 C1972 1.391 . S
C1973 C1977 1.376 . S
C1974 C1972 1.394 . S
C1974 C1975 1.369 . S
C1974 C1978 1.531 . S
C1975 C1974 1.369 . S
C1975 C1976 1.410 . S
C1975 C1983 1.503 . S
C1976 C1975 1.410 . S
C1976 C1977 1.392 . S
C1976 C1979 1.511 . S
C1977 C1973 1.376 . S
C1977 C1976 1.392 . S
C1977 H1989 0.929 . S
C1978 C1974 1.531 . S
C1978 H1990 0.960 . S
C1978 H1991 0.962 . S
C1978 H1992 0.960 . S
C1979 C1976 1.511 . S
C1979 H1993 0.961 . S
C1979 H1994 0.961 . S
C1979 H1995 0.961 . S
C1980 C1981 1.370 . S
C1980 C1982 1.363 . S
C1980 H1996 0.931 . S
C1981 C1980 1.370 . S
C1981 C1985 1.408 . S
C1982 C1980 1.363 . S
C1982 C1983 1.370 . S
C1982 C1986 1.524 . S
C1983 C1975 1.503 . S
C1983 C1982 1.370 . S
C1983 C1984 1.403 . S
C1984 C1983 1.403 . S
C1984 C1985 1.404 . S
C1984 C1987 1.539 . S
C1985 C1981 1.408 . S
C1985 C1984 1.404 . S
C1985 H1997 0.930 . S
C1986 C1982 1.524 . S
C1986 H1998 0.956 . S
C1986 H1999 0.961 . S
C1986 H2000 0.961 . S
C1987 C1984 1.539 . S
C1987 H2001 0.958 . S
C1987 H2002 0.961 . S
C1987 H2003 0.960 . S
H1988 C1972 0.931 . S
H1989 C1977 0.929 . S
H1990 C1978 0.960 . S
H1991 C1978 0.962 . S
H1992 C1978 0.960 . S
H1993 C1979 0.961 . S
H1994 C1979 0.961 . S
H1995 C1979 0.961 . S
H1996 C1980 0.931 . S
H1997 C1985 0.930 . S
H1998 C1986 0.956 . S
H1999 C1986 0.961 . S
H2000 C1986 0.961 . S
H2001 C1987 0.958 . S
H2002 C1987 0.961 . S
H2003 C1987 0.960 . S
C2004 C2005 1.391 . S
C2004 C2006 1.394 . S
C2004 H2020 0.931 . S
C2005 C2004 1.391 . S
C2005 C2009 1.376 . S
C2006 C2004 1.394 . S
C2006 C2007 1.369 . S
C2006 C2010 1.531 . S
C2007 C2006 1.369 . S
C2007 C2008 1.410 . S
C2007 C2015 1.503 . S
C2008 C2007 1.410 . S
C2008 C2009 1.392 . S
C2008 C2011 1.511 . S
C2009 C2005 1.376 . S
C2009 C2008 1.392 . S
C2009 H2021 0.929 . S
C2010 C2006 1.531 . S
C2010 H2022 0.960 . S
C2010 H2023 0.962 . S
C2010 H2024 0.960 . S
C2011 C2008 1.511 . S
C2011 H2025 0.961 . S
C2011 H2026 0.961 . S
C2011 H2027 0.961 . S
C2012 C2013 1.370 . S
C2012 C2014 1.363 . S
C2012 H2028 0.931 . S
C2013 C2012 1.370 . S
C2013 C2017 1.408 . S
C2014 C2012 1.363 . S
C2014 C2015 1.370 . S
C2014 C2018 1.524 . S
C2015 C2007 1.503 . S
C2015 C2014 1.370 . S
C2015 C2016 1.403 . S
C2016 C2015 1.403 . S
C2016 C2017 1.404 . S
C2016 C2019 1.539 . S
C2017 C2013 1.408 . S
C2017 C2016 1.404 . S
C2017 H2029 0.930 . S
C2018 C2014 1.524 . S
C2018 H2030 0.956 . S
C2018 H2031 0.961 . S
C2018 H2032 0.961 . S
C2019 C2016 1.539 . S
C2019 H2033 0.958 . S
C2019 H2034 0.961 . S
C2019 H2035 0.960 . S
H2020 C2004 0.931 . S
H2021 C2009 0.929 . S
H2022 C2010 0.960 . S
H2023 C2010 0.962 . S
H2024 C2010 0.960 . S
H2025 C2011 0.961 . S
H2026 C2011 0.961 . S
H2027 C2011 0.961 . S
H2028 C2012 0.931 . S
H2029 C2017 0.930 . S
H2030 C2018 0.956 . S
H2031 C2018 0.961 . S
H2032 C2018 0.961 . S
H2033 C2019 0.958 . S
H2034 C2019 0.961 . S
H2035 C2019 0.960 . S
C2036 C2037 1.391 . S
C2036 C2038 1.394 . S
C2036 H2052 0.931 . S
C2037 C2036 1.391 . S
C2037 C2041 1.376 . S
C2038 C2036 1.394 . S
C2038 C2039 1.369 . S
C2038 C2042 1.531 . S
C2039 C2038 1.369 . S
C2039 C2040 1.410 . S
C2039 C2047 1.503 . S
C2040 C2039 1.410 . S
C2040 C2041 1.392 . S
C2040 C2043 1.511 . S
C2041 C2037 1.376 . S
C2041 C2040 1.392 . S
C2041 H2053 0.929 . S
C2042 C2038 1.531 . S
C2042 H2054 0.960 . S
C2042 H2055 0.962 . S
C2042 H2056 0.960 . S
C2043 C2040 1.511 . S
C2043 H2057 0.961 . S
C2043 H2058 0.961 . S
C2043 H2059 0.961 . S
C2044 C2045 1.370 . S
C2044 C2046 1.363 . S
C2044 H2060 0.931 . S
C2045 C2044 1.370 . S
C2045 C2049 1.408 . S
C2046 C2044 1.363 . S
C2046 C2047 1.370 . S
C2046 C2050 1.524 . S
C2047 C2039 1.503 . S
C2047 C2046 1.370 . S
C2047 C2048 1.403 . S
C2048 C2047 1.403 . S
C2048 C2049 1.404 . S
C2048 C2051 1.539 . S
C2049 C2045 1.408 . S
C2049 C2048 1.404 . S
C2049 H2061 0.930 . S
C2050 C2046 1.524 . S
C2050 H2062 0.956 . S
C2050 H2063 0.961 . S
C2050 H2064 0.961 . S
C2051 C2048 1.539 . S
C2051 H2065 0.958 . S
C2051 H2066 0.961 . S
C2051 H2067 0.960 . S
H2052 C2036 0.931 . S
H2053 C2041 0.929 . S
H2054 C2042 0.960 . S
H2055 C2042 0.962 . S
H2056 C2042 0.960 . S
H2057 C2043 0.961 . S
H2058 C2043 0.961 . S
H2059 C2043 0.961 . S
H2060 C2044 0.931 . S
H2061 C2049 0.930 . S
H2062 C2050 0.956 . S
H2063 C2050 0.961 . S
H2064 C2050 0.961 . S
H2065 C2051 0.958 . S
H2066 C2051 0.961 . S
H2067 C2051 0.960 . S
C2068 C2069 1.391 . S
C2068 C2070 1.394 . S
C2068 H2084 0.931 . S
C2069 C2068 1.391 . S
C2069 C2073 1.376 . S
C2070 C2068 1.394 . S
C2070 C2071 1.369 . S
C2070 C2074 1.531 . S
C2071 C2070 1.369 . S
C2071 C2072 1.410 . S
C2071 C2079 1.503 . S
C2072 C2071 1.410 . S
C2072 C2073 1.392 . S
C2072 C2075 1.511 . S
C2073 C2069 1.376 . S
C2073 C2072 1.392 . S
C2073 H2085 0.929 . S
C2074 C2070 1.531 . S
C2074 H2086 0.960 . S
C2074 H2087 0.962 . S
C2074 H2088 0.960 . S
C2075 C2072 1.511 . S
C2075 H2089 0.961 . S
C2075 H2090 0.961 . S
C2075 H2091 0.961 . S
C2076 C2077 1.370 . S
C2076 C2078 1.363 . S
C2076 H2092 0.931 . S
C2077 C2076 1.370 . S
C2077 C2081 1.408 . S
C2078 C2076 1.363 . S
C2078 C2079 1.370 . S
C2078 C2082 1.524 . S
C2079 C2071 1.503 . S
C2079 C2078 1.370 . S
C2079 C2080 1.403 . S
C2080 C2079 1.403 . S
C2080 C2081 1.404 . S
C2080 C2083 1.539 . S
C2081 C2077 1.408 . S
C2081 C2080 1.404 . S
C2081 H2093 0.930 . S
C2082 C2078 1.524 . S
C2082 H2094 0.956 . S
C2082 H2095 0.961 . S
C2082 H2096 0.961 . S
C2083 C2080 1.539 . S
C2083 H2097 0.958 . S
C2083 H2098 0.961 . S
C2083 H2099 0.960 . S
H2084 C2068 0.931 . S
H2085 C2073 0.929 . S
H2086 C2074 0.960 . S
H2087 C2074 0.962 . S
H2088 C2074 0.960 . S
H2089 C2075 0.961 . S
H2090 C2075 0.961 . S
H2091 C2075 0.961 . S
H2092 C2076 0.931 . S
H2093 C2081 0.930 . S
H2094 C2082 0.956 . S
H2095 C2082 0.961 . S
H2096 C2082 0.961 . S
H2097 C2083 0.958 . S
H2098 C2083 0.961 . S
H2099 C2083 0.960 . S
C2100 C2101 1.391 . S
C2100 C2102 1.394 1_556 S
C2100 H2116 0.931 . S
C2101 C2100 1.391 . S
C2101 C2105 1.377 1_556 S
C2102 C2100 1.394 1_554 S
C2102 C2103 1.369 . S
C2102 C2106 1.531 . S
C2103 C2102 1.369 . S
C2103 C2104 1.410 . S
C2103 C2111 1.503 . S
C2104 C2103 1.410 . S
C2104 C2105 1.391 . S
C2104 C2107 1.511 . S
C2105 C2101 1.377 1_554 S
C2105 C2104 1.391 . S
C2105 H2117 0.929 1_554 S
C2106 C2102 1.531 . S
C2106 H2118 0.960 . S
C2106 H2119 0.962 . S
C2106 H2120 0.960 . S
C2107 C2104 1.511 . S
C2107 H2121 0.961 . S
C2107 H2122 0.961 . S
C2107 H2123 0.961 . S
C2108 C2109 1.370 . S
C2108 C2110 1.363 . S
C2108 H2124 0.931 . S
C2109 C2108 1.370 . S
C2109 C2113 1.408 . S
C2110 C2108 1.363 . S
C2110 C2111 1.370 . S
C2110 C2114 1.524 . S
C2111 C2103 1.503 . S
C2111 C2110 1.370 . S
C2111 C2112 1.403 . S
C2112 C2111 1.403 . S
C2112 C2113 1.404 . S
C2112 C2115 1.539 . S
C2113 C2109 1.408 . S
C2113 C2112 1.404 . S
C2113 H2125 0.930 . S
C2114 C2110 1.524 . S
C2114 H2126 0.956 . S
C2114 H2127 0.961 . S
C2114 H2128 0.961 . S
C2115 C2112 1.539 . S
C2115 H2129 0.958 . S
C2115 H2130 0.961 . S
C2115 H2131 0.960 . S
H2116 C2100 0.931 . S
H2117 C2105 0.929 1_556 S
H2118 C2106 0.960 . S
H2119 C2106 0.962 . S
H2120 C2106 0.960 . S
H2121 C2107 0.961 . S
H2122 C2107 0.961 . S
H2123 C2107 0.961 . S
H2124 C2108 0.931 . S
H2125 C2113 0.930 . S
H2126 C2114 0.956 . S
H2127 C2114 0.961 . S
H2128 C2114 0.961 . S
H2129 C2115 0.958 . S
H2130 C2115 0.961 . S
H2131 C2115 0.960 . S
C2132 C2133 1.391 . S
C2132 C2134 1.394 1_556 S
C2132 H2148 0.931 . S
C2133 C2132 1.391 . S
C2133 C2137 1.376 1_556 S
C2134 C2132 1.394 1_554 S
C2134 C2135 1.369 . S
C2134 C2138 1.531 . S
C2135 C2134 1.369 . S
C2135 C2136 1.410 . S
C2135 C2143 1.503 . S
C2136 C2135 1.410 . S
C2136 C2137 1.392 . S
C2136 C2139 1.511 . S
C2137 C2133 1.376 1_554 S
C2137 C2136 1.392 . S
C2137 H2149 0.929 . S
C2138 C2134 1.531 . S
C2138 H2150 0.960 . S
C2138 H2151 0.962 . S
C2138 H2152 0.960 1_554 S
C2139 C2136 1.511 . S
C2139 H2153 0.961 . S
C2139 H2154 0.961 . S
C2139 H2155 0.961 . S
C2140 C2141 1.370 . S
C2140 C2142 1.363 . S
C2140 H2156 0.931 . S
C2141 C2140 1.370 . S
C2141 C2145 1.408 . S
C2142 C2140 1.363 . S
C2142 C2143 1.370 . S
C2142 C2146 1.524 . S
C2143 C2135 1.503 . S
C2143 C2142 1.370 . S
C2143 C2144 1.403 . S
C2144 C2143 1.403 . S
C2144 C2145 1.404 . S
C2144 C2147 1.539 . S
C2145 C2141 1.408 . S
C2145 C2144 1.404 . S
C2145 H2157 0.930 . S
C2146 C2142 1.524 . S
C2146 H2158 0.956 . S
C2146 H2159 0.961 . S
C2146 H2160 0.961 . S
C2147 C2144 1.539 . S
C2147 H2161 0.958 . S
C2147 H2162 0.961 . S
C2147 H2163 0.960 . S
H2148 C2132 0.931 . S
H2149 C2137 0.929 . S
H2150 C2138 0.960 . S
H2151 C2138 0.962 . S
H2152 C2138 0.960 1_556 S
H2153 C2139 0.961 . S
H2154 C2139 0.961 . S
H2155 C2139 0.961 . S
H2156 C2140 0.931 . S
H2157 C2145 0.930 . S
H2158 C2146 0.956 . S
H2159 C2146 0.961 . S
H2160 C2146 0.961 . S
H2161 C2147 0.958 . S
H2162 C2147 0.961 . S
H2163 C2147 0.960 . S
C2164 C2165 1.391 1_554 S
C2164 C2166 1.394 . S
C2164 H2180 0.931 . S
C2165 C2164 1.391 1_556 S
C2165 C2169 1.376 . S
C2166 C2164 1.394 . S
C2166 C2167 1.369 . S
C2166 C2170 1.531 . S
C2167 C2166 1.369 . S
C2167 C2168 1.410 . S
C2167 C2175 1.503 . S
C2168 C2167 1.410 . S
C2168 C2169 1.392 1_554 S
C2168 C2171 1.511 . S
C2169 C2165 1.376 . S
C2169 C2168 1.392 1_556 S
C2169 H2181 0.929 . S
C2170 C2166 1.531 . S
C2170 H2182 0.960 . S
C2170 H2183 0.962 . S
C2170 H2184 0.960 . S
C2171 C2168 1.511 . S
C2171 H2185 0.961 1_554 S
C2171 H2186 0.961 . S
C2171 H2187 0.961 . S
C2172 C2173 1.370 . S
C2172 C2174 1.363 . S
C2172 H2188 0.931 . S
C2173 C2172 1.370 . S
C2173 C2177 1.408 . S
C2174 C2172 1.363 . S
C2174 C2175 1.370 . S
C2174 C2178 1.524 . S
C2175 C2167 1.503 . S
C2175 C2174 1.370 . S
C2175 C2176 1.403 . S
C2176 C2175 1.403 . S
C2176 C2177 1.404 . S
C2176 C2179 1.539 . S
C2177 C2173 1.408 . S
C2177 C2176 1.404 . S
C2177 H2189 0.930 . S
C2178 C2174 1.524 . S
C2178 H2190 0.956 . S
C2178 H2191 0.961 . S
C2178 H2192 0.961 . S
C2179 C2176 1.539 . S
C2179 H2193 0.958 . S
C2179 H2194 0.961 . S
C2179 H2195 0.960 . S
H2180 C2164 0.931 . S
H2181 C2169 0.929 . S
H2182 C2170 0.960 . S
H2183 C2170 0.962 . S
H2184 C2170 0.960 . S
H2185 C2171 0.961 1_556 S
H2186 C2171 0.961 . S
H2187 C2171 0.961 . S
H2188 C2172 0.931 . S
H2189 C2177 0.930 . S
H2190 C2178 0.956 . S
H2191 C2178 0.961 . S
H2192 C2178 0.961 . S
H2193 C2179 0.958 . S
H2194 C2179 0.961 . S
H2195 C2179 0.960 . S
C2196 C2197 1.391 . S
C2196 C2198 1.394 . S
C2196 H2212 0.931 . S
C2197 C2196 1.391 . S
C2197 C2201 1.376 . S
C2198 C2196 1.394 . S
C2198 C2199 1.369 . S
C2198 C2202 1.531 . S
C2199 C2198 1.369 . S
C2199 C2200 1.410 . S
C2199 C2207 1.503 . S
C2200 C2199 1.410 . S
C2200 C2201 1.392 . S
C2200 C2203 1.511 . S
C2201 C2197 1.376 . S
C2201 C2200 1.392 . S
C2201 H2213 0.929 . S
C2202 C2198 1.531 . S
C2202 H2214 0.960 . S
C2202 H2215 0.962 . S
C2202 H2216 0.960 . S
C2203 C2200 1.511 . S
C2203 H2217 0.961 . S
C2203 H2218 0.961 . S
C2203 H2219 0.961 . S
C2204 C2205 1.370 . S
C2204 C2206 1.363 . S
C2204 H2220 0.931 . S
C2205 C2204 1.370 . S
C2205 C2209 1.408 . S
C2206 C2204 1.363 . S
C2206 C2207 1.370 . S
C2206 C2210 1.524 . S
C2207 C2199 1.503 . S
C2207 C2206 1.370 . S
C2207 C2208 1.403 . S
C2208 C2207 1.403 . S
C2208 C2209 1.404 . S
C2208 C2211 1.539 1_554 S
C2209 C2205 1.408 . S
C2209 C2208 1.404 . S
C2209 H2221 0.930 . S
C2210 C2206 1.524 . S
C2210 H2222 0.956 . S
C2210 H2223 0.961 . S
C2210 H2224 0.961 . S
C2211 C2208 1.539 1_556 S
C2211 H2225 0.958 . S
C2211 H2226 0.961 . S
C2211 H2227 0.960 . S
H2212 C2196 0.931 . S
H2213 C2201 0.929 . S
H2214 C2202 0.960 . S
H2215 C2202 0.962 . S
H2216 C2202 0.960 . S
H2217 C2203 0.961 . S
H2218 C2203 0.961 . S
H2219 C2203 0.961 . S
H2220 C2204 0.931 . S
H2221 C2209 0.930 . S
H2222 C2210 0.956 . S
H2223 C2210 0.961 . S
H2224 C2210 0.961 . S
H2225 C2211 0.958 . S
H2226 C2211 0.961 . S
H2227 C2211 0.960 . S
C2228 C2229 1.391 . S
C2228 C2230 1.394 . S
C2228 H2244 0.931 . S
C2229 C2228 1.391 . S
C2229 C2233 1.376 . S
C2230 C2228 1.394 . S
C2230 C2231 1.369 . S
C2230 C2234 1.531 . S
C2231 C2230 1.369 . S
C2231 C2232 1.410 . S
C2231 C2239 1.503 . S
C2232 C2231 1.410 . S
C2232 C2233 1.392 . S
C2232 C2235 1.511 . S
C2233 C2229 1.376 . S
C2233 C2232 1.392 . S
C2233 H2245 0.929 . S
C2234 C2230 1.531 . S
C2234 H2246 0.960 . S
C2234 H2247 0.962 . S
C2234 H2248 0.960 . S
C2235 C2232 1.511 . S
C2235 H2249 0.961 . S
C2235 H2250 0.961 . S
C2235 H2251 0.961 . S
C2236 C2237 1.370 . S
C2236 C2238 1.363 . S
C2236 H2252 0.931 . S
C2237 C2236 1.370 . S
C2237 C2241 1.408 . S
C2238 C2236 1.363 . S
C2238 C2239 1.370 . S
C2238 C2242 1.524 . S
C2239 C2231 1.503 . S
C2239 C2238 1.370 . S
C2239 C2240 1.403 . S
C2240 C2239 1.403 . S
C2240 C2241 1.404 . S
C2240 C2243 1.539 1_554 S
C2241 C2237 1.408 . S
C2241 C2240 1.404 . S
C2241 H2253 0.930 1_554 S
C2242 C2238 1.524 . S
C2242 H2254 0.956 . S
C2242 H2255 0.961 . S
C2242 H2256 0.961 . S
C2243 C2240 1.539 1_556 S
C2243 H2257 0.958 . S
C2243 H2258 0.961 . S
C2243 H2259 0.960 . S
H2244 C2228 0.931 . S
H2245 C2233 0.929 . S
H2246 C2234 0.960 . S
H2247 C2234 0.962 . S
H2248 C2234 0.960 . S
H2249 C2235 0.961 . S
H2250 C2235 0.961 . S
H2251 C2235 0.961 . S
H2252 C2236 0.931 . S
H2253 C2241 0.930 1_556 S
H2254 C2242 0.956 . S
H2255 C2242 0.961 . S
H2256 C2242 0.961 . S
H2257 C2243 0.958 . S
H2258 C2243 0.961 . S
H2259 C2243 0.960 . S
C2260 C2261 1.391 . S
C2260 C2262 1.394 . S
C2260 H2276 0.931 . S
C2261 C2260 1.391 . S
C2261 C2265 1.376 . S
C2262 C2260 1.394 . S
C2262 C2263 1.369 . S
C2262 C2266 1.531 . S
C2263 C2262 1.369 . S
C2263 C2264 1.410 . S
C2263 C2271 1.503 . S
C2264 C2263 1.410 . S
C2264 C2265 1.392 . S
C2264 C2267 1.511 . S
C2265 C2261 1.376 . S
C2265 C2264 1.392 . S
C2265 H2277 0.929 . S
C2266 C2262 1.531 . S
C2266 H2278 0.960 . S
C2266 H2279 0.962 . S
C2266 H2280 0.952 1_554 S
C2267 C2264 1.511 . S
C2267 H2281 0.961 . S
C2267 H2282 0.961 . S
C2267 H2283 0.961 . S
C2268 C2269 1.370 . S
C2268 C2270 1.363 . S
C2268 H2284 0.931 . S
C2269 C2268 1.370 . S
C2269 C2273 1.408 . S
C2270 C2268 1.363 . S
C2270 C2271 1.370 . S
C2270 C2274 1.524 . S
C2271 C2263 1.503 . S
C2271 C2270 1.370 . S
C2271 C2272 1.403 . S
C2272 C2271 1.403 . S
C2272 C2273 1.404 . S
C2272 C2275 1.539 1_554 S
C2273 C2269 1.408 . S
C2273 C2272 1.404 . S
C2273 H2285 0.930 . S
C2274 C2270 1.524 . S
C2274 H2286 0.956 . S
C2274 H2287 0.961 . S
C2274 H2288 0.961 . S
C2275 C2272 1.539 1_556 S
C2275 H2289 0.958 . S
C2275 H2290 0.961 . S
C2275 H2291 0.960 . S
H2276 C2260 0.931 . S
H2277 C2265 0.929 . S
H2278 C2266 0.960 . S
H2279 C2266 0.962 . S
H2280 C2266 0.952 1_556 S
H2281 C2267 0.961 . S
H2282 C2267 0.961 . S
H2283 C2267 0.961 . S
H2284 C2268 0.931 . S
H2285 C2273 0.930 . S
H2286 C2274 0.956 . S
H2287 C2274 0.961 . S
H2288 C2274 0.961 . S
H2289 C2275 0.958 . S
H2290 C2275 0.961 . S
H2291 C2275 0.960 . S
C2292 C2293 1.391 . S
C2292 C2294 1.394 . S
C2292 H2308 0.931 . S
C2293 C2292 1.391 . S
C2293 C2297 1.376 . S
C2294 C2292 1.394 . S
C2294 C2295 1.369 . S
C2294 C2298 1.531 . S
C2295 C2294 1.369 . S
C2295 C2296 1.410 . S
C2295 C2303 1.503 . S
C2296 C2295 1.410 . S
C2296 C2297 1.392 . S
C2296 C2299 1.511 . S
C2297 C2293 1.376 . S
C2297 C2296 1.392 . S
C2297 H2309 0.929 . S
C2298 C2294 1.531 . S
C2298 H2310 0.960 . S
C2298 H2311 0.962 . S
C2298 H2312 0.960 . S
C2299 C2296 1.511 . S
C2299 H2313 0.961 . S
C2299 H2314 0.961 . S
C2299 H2315 0.961 . S
C2300 C2301 1.370 . S
C2300 C2302 1.363 . S
C2300 H2316 0.931 . S
C2301 C2300 1.370 . S
C2301 C2305 1.408 . S
C2302 C2300 1.363 . S
C2302 C2303 1.370 . S
C2302 C2306 1.524 . S
C2303 C2295 1.503 . S
C2303 C2302 1.370 . S
C2303 C2304 1.403 . S
C2304 C2303 1.403 . S
C2304 C2305 1.404 . S
C2304 C2307 1.539 . S
C2305 C2301 1.408 . S
C2305 C2304 1.404 . S
C2305 H2317 0.930 . S
C2306 C2302 1.524 . S
C2306 H2318 0.956 . S
C2306 H2319 0.961 . S
C2306 H2320 0.961 . S
C2307 C2304 1.539 . S
C2307 H2321 0.958 . S
C2307 H2322 0.961 . S
C2307 H2323 0.960 . S
H2308 C2292 0.931 . S
H2309 C2297 0.929 . S
H2310 C2298 0.960 . S
H2311 C2298 0.962 . S
H2312 C2298 0.960 . S
H2313 C2299 0.961 . S
H2314 C2299 0.961 . S
H2315 C2299 0.961 . S
H2316 C2300 0.931 . S
H2317 C2305 0.930 . S
H2318 C2306 0.956 . S
H2319 C2306 0.961 . S
H2320 C2306 0.961 . S
H2321 C2307 0.958 . S
H2322 C2307 0.961 . S
H2323 C2307 0.960 . S
C2324 C2325 1.391 . S
C2324 C2326 1.394 . S
C2324 H2340 0.931 . S
C2325 C2324 1.391 . S
C2325 C2329 1.376 . S
C2326 C2324 1.394 . S
C2326 C2327 1.369 . S
C2326 C2330 1.531 . S
C2327 C2326 1.369 . S
C2327 C2328 1.410 . S
C2327 C2335 1.503 . S
C2328 C2327 1.410 . S
C2328 C2329 1.392 . S
C2328 C2331 1.511 . S
C2329 C2325 1.376 . S
C2329 C2328 1.392 . S
C2329 H2341 0.929 . S
C2330 C2326 1.531 . S
C2330 H2342 0.960 . S
C2330 H2343 0.962 . S
C2330 H2344 0.960 . S
C2331 C2328 1.511 . S
C2331 H2345 0.961 . S
C2331 H2346 0.961 . S
C2331 H2347 0.961 . S
C2332 C2333 1.370 . S
C2332 C2334 1.363 . S
C2332 H2348 0.931 . S
C2333 C2332 1.370 . S
C2333 C2337 1.408 . S
C2334 C2332 1.363 . S
C2334 C2335 1.370 . S
C2334 C2338 1.524 . S
C2335 C2327 1.503 . S
C2335 C2334 1.370 . S
C2335 C2336 1.403 . S
C2336 C2335 1.403 . S
C2336 C2337 1.404 . S
C2336 C2339 1.539 . S
C2337 C2333 1.408 . S
C2337 C2336 1.404 . S
C2337 H2349 0.930 . S
C2338 C2334 1.524 . S
C2338 H2350 0.956 . S
C2338 H2351 0.961 . S
C2338 H2352 0.961 . S
C2339 C2336 1.539 . S
C2339 H2353 0.958 . S
C2339 H2354 0.961 . S
C2339 H2355 0.960 . S
H2340 C2324 0.931 . S
H2341 C2329 0.929 . S
H2342 C2330 0.960 . S
H2343 C2330 0.962 . S
H2344 C2330 0.960 . S
H2345 C2331 0.961 . S
H2346 C2331 0.961 . S
H2347 C2331 0.961 . S
H2348 C2332 0.931 . S
H2349 C2337 0.930 . S
H2350 C2338 0.956 . S
H2351 C2338 0.961 . S
H2352 C2338 0.961 . S
H2353 C2339 0.958 . S
H2354 C2339 0.961 . S
H2355 C2339 0.960 . S
C2356 C2357 1.391 . S
C2356 C2358 1.394 . S
C2356 H2372 0.931 . S
C2357 C2356 1.391 . S
C2357 C2361 1.376 . S
C2358 C2356 1.394 . S
C2358 C2359 1.369 . S
C2358 C2362 1.531 . S
C2359 C2358 1.369 . S
C2359 C2360 1.410 . S
C2359 C2367 1.503 . S
C2360 C2359 1.410 . S
C2360 C2361 1.392 . S
C2360 C2363 1.511 . S
C2361 C2357 1.376 . S
C2361 C2360 1.392 . S
C2361 H2373 0.929 . S
C2362 C2358 1.531 . S
C2362 H2374 0.960 . S
C2362 H2375 0.962 . S
C2362 H2376 0.960 . S
C2363 C2360 1.511 . S
C2363 H2377 0.961 . S
C2363 H2378 0.961 . S
C2363 H2379 0.961 . S
C2364 C2365 1.370 . S
C2364 C2366 1.363 . S
C2364 H2380 0.931 . S
C2365 C2364 1.370 . S
C2365 C2369 1.408 . S
C2366 C2364 1.363 . S
C2366 C2367 1.370 . S
C2366 C2370 1.524 . S
C2367 C2359 1.503 . S
C2367 C2366 1.370 . S
C2367 C2368 1.403 . S
C2368 C2367 1.403 . S
C2368 C2369 1.404 . S
C2368 C2371 1.539 . S
C2369 C2365 1.408 . S
C2369 C2368 1.404 . S
C2369 H2381 0.930 . S
C2370 C2366 1.524 . S
C2370 H2382 0.956 . S
C2370 H2383 0.961 . S
C2370 H2384 0.961 . S
C2371 C2368 1.539 . S
C2371 H2385 0.958 . S
C2371 H2386 0.961 . S
C2371 H2387 0.960 . S
H2372 C2356 0.931 . S
H2373 C2361 0.929 . S
H2374 C2362 0.960 . S
H2375 C2362 0.962 . S
H2376 C2362 0.960 . S
H2377 C2363 0.961 . S
H2378 C2363 0.961 . S
H2379 C2363 0.961 . S
H2380 C2364 0.931 . S
H2381 C2369 0.930 . S
H2382 C2370 0.956 . S
H2383 C2370 0.961 . S
H2384 C2370 0.961 . S
H2385 C2371 0.958 . S
H2386 C2371 0.961 . S
H2387 C2371 0.960 . S
C2388 C2389 1.391 . S
C2388 C2390 1.394 . S
C2388 H2404 0.931 . S
C2389 C2388 1.391 . S
C2389 C2393 1.376 . S
C2390 C2388 1.394 . S
C2390 C2391 1.369 . S
C2390 C2394 1.531 . S
C2391 C2390 1.369 . S
C2391 C2392 1.410 . S
C2391 C2399 1.503 . S
C2392 C2391 1.410 . S
C2392 C2393 1.392 . S
C2392 C2395 1.511 . S
C2393 C2389 1.376 . S
C2393 C2392 1.392 . S
C2393 H2405 0.929 . S
C2394 C2390 1.531 . S
C2394 H2406 0.960 . S
C2394 H2407 0.962 . S
C2394 H2408 0.960 . S
C2395 C2392 1.511 . S
C2395 H2409 0.961 . S
C2395 H2410 0.961 . S
C2395 H2411 0.961 . S
C2396 C2397 1.370 . S
C2396 C2398 1.363 . S
C2396 H2412 0.931 1_556 S
C2397 C2396 1.370 . S
C2397 C2401 1.408 . S
C2398 C2396 1.363 . S
C2398 C2399 1.370 . S
C2398 C2402 1.524 1_556 S
C2399 C2391 1.503 . S
C2399 C2398 1.370 . S
C2399 C2400 1.403 . S
C2400 C2399 1.403 . S
C2400 C2401 1.404 . S
C2400 C2403 1.539 . S
C2401 C2397 1.408 . S
C2401 C2400 1.404 . S
C2401 H2413 0.930 . S
C2402 C2398 1.524 1_554 S
C2402 H2414 0.956 . S
C2402 H2415 0.961 . S
C2402 H2416 0.961 . S
C2403 C2400 1.539 . S
C2403 H2417 0.958 . S
C2403 H2418 0.961 . S
C2403 H2419 0.960 . S
H2404 C2388 0.931 . S
H2405 C2393 0.929 . S
H2406 C2394 0.960 . S
H2407 C2394 0.962 . S
H2408 C2394 0.960 . S
H2409 C2395 0.961 . S
H2410 C2395 0.961 . S
H2411 C2395 0.961 . S
H2412 C2396 0.931 1_554 S
H2413 C2401 0.930 . S
H2414 C2402 0.956 . S
H2415 C2402 0.961 . S
H2416 C2402 0.961 . S
H2417 C2403 0.958 . S
H2418 C2403 0.961 . S
H2419 C2403 0.960 . S
C2420 C2421 1.391 . S
C2420 C2422 1.394 . S
C2420 H2436 0.931 . S
C2421 C2420 1.391 . S
C2421 C2425 1.376 . S
C2422 C2420 1.394 . S
C2422 C2423 1.369 . S
C2422 C2426 1.531 . S
C2423 C2422 1.369 . S
C2423 C2424 1.410 . S
C2423 C2431 1.503 . S
C2424 C2423 1.410 . S
C2424 C2425 1.392 . S
C2424 C2427 1.511 . S
C2425 C2421 1.376 . S
C2425 C2424 1.392 . S
C2425 H2437 0.929 . S
C2426 C2422 1.531 . S
C2426 H2438 0.960 . S
C2426 H2439 0.962 . S
C2426 H2440 0.960 . S
C2427 C2424 1.511 . S
C2427 H2441 0.961 . S
C2427 H2442 0.961 . S
C2427 H2443 0.961 . S
C2428 C2429 1.370 . S
C2428 C2430 1.363 . S
C2428 H2444 0.931 . S
C2429 C2428 1.370 . S
C2429 C2433 1.408 . S
C2430 C2428 1.363 . S
C2430 C2431 1.370 . S
C2430 C2434 1.524 . S
C2431 C2423 1.503 . S
C2431 C2430 1.370 . S
C2431 C2432 1.403 . S
C2432 C2431 1.403 . S
C2432 C2433 1.404 . S
C2432 C2435 1.539 . S
C2433 C2429 1.408 . S
C2433 C2432 1.404 . S
C2433 H2445 0.930 . S
C2434 C2430 1.524 . S
C2434 H2446 0.956 . S
C2434 H2447 0.961 1_556 S
C2434 H2448 0.961 1_556 S
C2435 C2432 1.539 . S
C2435 H2449 0.958 . S
C2435 H2450 0.961 . S
C2435 H2451 0.960 . S
H2436 C2420 0.931 . S
H2437 C2425 0.929 . S
H2438 C2426 0.960 . S
H2439 C2426 0.962 . S
H2440 C2426 0.960 . S
H2441 C2427 0.961 . S
H2442 C2427 0.961 . S
H2443 C2427 0.961 . S
H2444 C2428 0.931 . S
H2445 C2433 0.930 . S
H2446 C2434 0.956 . S
H2447 C2434 0.961 1_554 S
H2448 C2434 0.961 1_554 S
H2449 C2435 0.958 . S
H2450 C2435 0.961 . S
H2451 C2435 0.960 . S
C2452 C2453 1.391 . S
C2452 C2454 1.394 . S
C2452 H2468 0.931 . S
C2453 C2452 1.391 . S
C2453 C2457 1.376 . S
C2454 C2452 1.394 . S
C2454 C2455 1.369 . S
C2454 C2458 1.531 1_556 S
C2455 C2454 1.369 . S
C2455 C2456 1.410 . S
C2455 C2463 1.503 . S
C2456 C2455 1.410 . S
C2456 C2457 1.392 . S
C2456 C2459 1.511 . S
C2457 C2453 1.376 . S
C2457 C2456 1.392 . S
C2457 H2469 0.929 . S
C2458 C2454 1.531 1_554 S
C2458 H2470 0.960 . S
C2458 H2471 0.962 . S
C2458 H2472 0.960 . S
C2459 C2456 1.511 . S
C2459 H2473 0.961 . S
C2459 H2474 0.961 . S
C2459 H2475 0.961 . S
C2460 C2461 1.370 . S
C2460 C2462 1.363 . S
C2460 H2476 0.931 . S
C2461 C2460 1.370 . S
C2461 C2465 1.408 . S
C2462 C2460 1.363 . S
C2462 C2463 1.370 . S
C2462 C2466 1.524 . S
C2463 C2455 1.503 . S
C2463 C2462 1.370 . S
C2463 C2464 1.403 . S
C2464 C2463 1.403 . S
C2464 C2465 1.404 . S
C2464 C2467 1.539 . S
C2465 C2461 1.408 . S
C2465 C2464 1.404 . S
C2465 H2477 0.930 . S
C2466 C2462 1.524 . S
C2466 H2478 0.956 . S
C2466 H2479 0.961 . S
C2466 H2480 0.961 . S
C2467 C2464 1.539 . S
C2467 H2481 0.958 . S
C2467 H2482 0.961 . S
C2467 H2483 0.960 . S
H2468 C2452 0.931 . S
H2469 C2457 0.929 . S
H2470 C2458 0.960 . S
H2471 C2458 0.962 . S
H2472 C2458 0.960 . S
H2473 C2459 0.961 . S
H2474 C2459 0.961 . S
H2475 C2459 0.961 . S
H2476 C2460 0.931 . S
H2477 C2465 0.930 . S
H2478 C2466 0.956 . S
H2479 C2466 0.961 . S
H2480 C2466 0.961 . S
H2481 C2467 0.958 . S
H2482 C2467 0.961 . S
H2483 C2467 0.960 . S
C2484 C2485 1.391 . S
C2484 C2486 1.394 . S
C2484 H2500 0.931 . S
C2485 C2484 1.391 . S
C2485 C2489 1.376 . S
C2486 C2484 1.394 . S
C2486 C2487 1.369 . S
C2486 C2490 1.531 . S
C2487 C2486 1.369 . S
C2487 C2488 1.410 . S
C2487 C2495 1.503 . S
C2488 C2487 1.410 . S
C2488 C2489 1.392 . S
C2488 C2491 1.511 . S
C2489 C2485 1.376 . S
C2489 C2488 1.392 . S
C2489 H2501 0.929 . S
C2490 C2486 1.531 . S
C2490 H2502 0.960 . S
C2490 H2503 0.962 . S
C2490 H2504 0.960 . S
C2491 C2488 1.511 . S
C2491 H2505 0.961 . S
C2491 H2506 0.961 . S
C2491 H2507 0.961 . S
C2492 C2493 1.370 . S
C2492 C2494 1.363 . S
C2492 H2508 0.931 . S
C2493 C2492 1.370 . S
C2493 C2497 1.408 . S
C2494 C2492 1.363 . S
C2494 C2495 1.370 . S
C2494 C2498 1.524 . S
C2495 C2487 1.503 . S
C2495 C2494 1.370 . S
C2495 C2496 1.403 . S
C2496 C2495 1.403 . S
C2496 C2497 1.404 . S
C2496 C2499 1.539 . S
C2497 C2493 1.408 . S
C2497 C2496 1.404 . S
C2497 H2509 0.930 . S
C2498 C2494 1.524 . S
C2498 H2510 0.956 . S
C2498 H2511 0.961 . S
C2498 H2512 0.961 . S
C2499 C2496 1.539 . S
C2499 H2513 0.958 . S
C2499 H2514 0.961 . S
C2499 H2515 0.960 . S
H2500 C2484 0.931 . S
H2501 C2489 0.929 . S
H2502 C2490 0.960 . S
H2503 C2490 0.962 . S
H2504 C2490 0.960 . S
H2505 C2491 0.961 . S
H2506 C2491 0.961 . S
H2507 C2491 0.961 . S
H2508 C2492 0.931 . S
H2509 C2497 0.930 . S
H2510 C2498 0.956 . S
H2511 C2498 0.961 . S
H2512 C2498 0.961 . S
H2513 C2499 0.958 . S
H2514 C2499 0.961 . S
H2515 C2499 0.960 . S
C2516 C2517 1.391 . S
C2516 C2518 1.394 . S
C2516 H2532 0.931 . S
C2517 C2516 1.391 . S
C2517 C2521 1.376 . S
C2518 C2516 1.394 . S
C2518 C2519 1.369 . S
C2518 C2522 1.531 . S
C2519 C2518 1.369 . S
C2519 C2520 1.410 . S
C2519 C2527 1.503 . S
C2520 C2519 1.410 . S
C2520 C2521 1.392 . S
C2520 C2523 1.511 . S
C2521 C2517 1.376 . S
C2521 C2520 1.392 . S
C2521 H2533 0.929 . S
C2522 C2518 1.531 . S
C2522 H2534 0.960 . S
C2522 H2535 0.962 . S
C2522 H2536 0.960 . S
C2523 C2520 1.511 . S
C2523 H2537 0.961 . S
C2523 H2538 0.961 . S
C2523 H2539 0.961 . S
C2524 C2525 1.370 . S
C2524 C2526 1.363 . S
C2524 H2540 0.931 . S
C2525 C2524 1.370 . S
C2525 C2529 1.408 . S
C2526 C2524 1.363 . S
C2526 C2527 1.370 . S
C2526 C2530 1.524 . S
C2527 C2519 1.503 . S
C2527 C2526 1.370 . S
C2527 C2528 1.403 . S
C2528 C2527 1.403 . S
C2528 C2529 1.404 . S
C2528 C2531 1.539 . S
C2529 C2525 1.408 . S
C2529 C2528 1.404 . S
C2529 H2541 0.930 . S
C2530 C2526 1.524 . S
C2530 H2542 0.956 . S
C2530 H2543 0.961 . S
C2530 H2544 0.961 . S
C2531 C2528 1.539 . S
C2531 H2545 0.958 . S
C2531 H2546 0.961 . S
C2531 H2547 0.960 . S
H2532 C2516 0.931 . S
H2533 C2521 0.929 . S
H2534 C2522 0.960 . S
H2535 C2522 0.962 . S
H2536 C2522 0.960 . S
H2537 C2523 0.961 . S
H2538 C2523 0.961 . S
H2539 C2523 0.961 . S
H2540 C2524 0.931 . S
H2541 C2529 0.930 . S
H2542 C2530 0.956 . S
H2543 C2530 0.961 . S
H2544 C2530 0.961 . S
H2545 C2531 0.958 . S
H2546 C2531 0.961 . S
H2547 C2531 0.960 . S
C2548 C2549 1.391 . S
C2548 C2550 1.394 . S
C2548 H2564 0.931 . S
C2549 C2548 1.391 . S
C2549 C2553 1.376 . S
C2550 C2548 1.394 . S
C2550 C2551 1.369 . S
C2550 C2554 1.531 . S
C2551 C2550 1.369 . S
C2551 C2552 1.410 . S
C2551 C2559 1.503 . S
C2552 C2551 1.410 . S
C2552 C2553 1.392 . S
C2552 C2555 1.511 . S
C2553 C2549 1.376 . S
C2553 C2552 1.392 . S
C2553 H2565 0.929 . S
C2554 C2550 1.531 . S
C2554 H2566 0.960 . S
C2554 H2567 0.962 . S
C2554 H2568 0.960 . S
C2555 C2552 1.511 . S
C2555 H2569 0.961 . S
C2555 H2570 0.961 . S
C2555 H2571 0.961 . S
C2556 C2557 1.370 . S
C2556 C2558 1.363 . S
C2556 H2572 0.931 . S
C2557 C2556 1.370 . S
C2557 C2561 1.408 . S
C2558 C2556 1.363 . S
C2558 C2559 1.370 . S
C2558 C2562 1.524 . S
C2559 C2551 1.503 . S
C2559 C2558 1.370 . S
C2559 C2560 1.403 . S
C2560 C2559 1.403 . S
C2560 C2561 1.404 . S
C2560 C2563 1.539 . S
C2561 C2557 1.408 . S
C2561 C2560 1.404 . S
C2561 H2573 0.930 . S
C2562 C2558 1.524 . S
C2562 H2574 0.956 . S
C2562 H2575 0.961 . S
C2562 H2576 0.961 . S
C2563 C2560 1.539 . S
C2563 H2577 0.958 . S
C2563 H2578 0.961 . S
C2563 H2579 0.960 . S
H2564 C2548 0.931 . S
H2565 C2553 0.929 . S
H2566 C2554 0.960 . S
H2567 C2554 0.962 . S
H2568 C2554 0.960 . S
H2569 C2555 0.961 . S
H2570 C2555 0.961 . S
H2571 C2555 0.961 . S
H2572 C2556 0.931 . S
H2573 C2561 0.930 . S
H2574 C2562 0.956 . S
H2575 C2562 0.961 . S
H2576 C2562 0.961 . S
H2577 C2563 0.958 . S
H2578 C2563 0.961 . S
H2579 C2563 0.960 . S
C2580 C2581 1.391 . S
C2580 C2582 1.394 . S
C2580 H2596 0.931 . S
C2581 C2580 1.391 . S
C2581 C2585 1.376 . S
C2582 C2580 1.394 . S
C2582 C2583 1.369 . S
C2582 C2586 1.531 . S
C2583 C2582 1.369 . S
C2583 C2584 1.410 . S
C2583 C2591 1.503 1_455 S
C2584 C2583 1.410 . S
C2584 C2585 1.392 . S
C2584 C2587 1.511 . S
C2585 C2581 1.376 . S
C2585 C2584 1.392 . S
C2585 H2597 0.929 . S
C2586 C2582 1.531 . S
C2586 H2598 0.960 1_455 S
C2586 H2599 0.961 . S
C2586 H2600 0.960 . S
C2587 C2584 1.511 . S
C2587 H2601 0.961 . S
C2587 H2602 0.961 . S
C2587 H2603 0.961 . S
C2588 C2589 1.370 . S
C2588 C2590 1.363 . S
C2588 H2604 0.931 . S
C2589 C2588 1.370 . S
C2589 C2593 1.408 . S
C2590 C2588 1.363 . S
C2590 C2591 1.370 . S
C2590 C2594 1.524 . S
C2591 C2583 1.503 1_655 S
C2591 C2590 1.370 . S
C2591 C2592 1.403 . S
C2592 C2591 1.403 . S
C2592 C2593 1.404 . S
C2592 C2595 1.539 . S
C2593 C2589 1.408 . S
C2593 C2592 1.404 . S
C2593 H2605 0.930 . S
C2594 C2590 1.524 . S
C2594 H2606 0.977 . S
C2594 H2607 0.961 1_655 S
C2594 H2608 0.961 . S
C2595 C2592 1.539 . S
C2595 H2609 0.958 . S
C2595 H2610 0.961 . S
C2595 H2611 0.960 . S
H2596 C2580 0.931 . S
H2597 C2585 0.929 . S
H2598 C2586 0.960 1_655 S
H2599 C2586 0.961 . S
H2600 C2586 0.960 . S
H2601 C2587 0.961 . S
H2602 C2587 0.961 . S
H2603 C2587 0.961 . S
H2604 C2588 0.931 . S
H2605 C2593 0.930 . S
H2606 C2594 0.977 . S
H2607 C2594 0.961 1_455 S
H2608 C2594 0.961 . S
H2609 C2595 0.958 . S
H2610 C2595 0.961 . S
H2611 C2595 0.960 . S
C2612 C2613 1.391 . S
C2612 C2614 1.394 . S
C2612 H2628 0.931 . S
C2613 C2612 1.391 . S
C2613 C2617 1.376 . S
C2614 C2612 1.394 . S
C2614 C2615 1.369 . S
C2614 C2618 1.531 . S
C2615 C2614 1.369 . S
C2615 C2616 1.410 . S
C2615 C2623 1.503 . S
C2616 C2615 1.410 . S
C2616 C2617 1.392 . S
C2616 C2619 1.511 . S
C2617 C2613 1.376 . S
C2617 C2616 1.392 . S
C2617 H2629 0.929 . S
C2618 C2614 1.531 . S
C2618 H2630 0.960 . S
C2618 H2631 0.962 . S
C2618 H2632 0.960 . S
C2619 C2616 1.511 . S
C2619 H2633 0.961 . S
C2619 H2634 0.961 . S
C2619 H2635 0.961 . S
C2620 C2621 1.370 . S
C2620 C2622 1.363 . S
C2620 H2636 0.931 . S
C2621 C2620 1.370 . S
C2621 C2625 1.408 . S
C2622 C2620 1.363 . S
C2622 C2623 1.370 . S
C2622 C2626 1.524 . S
C2623 C2615 1.503 . S
C2623 C2622 1.370 . S
C2623 C2624 1.403 . S
C2624 C2623 1.403 . S
C2624 C2625 1.404 . S
C2624 C2627 1.539 . S
C2625 C2621 1.408 . S
C2625 C2624 1.404 . S
C2625 H2637 0.930 . S
C2626 C2622 1.524 . S
C2626 H2638 0.956 . S
C2626 H2639 0.961 . S
C2626 H2640 0.961 . S
C2627 C2624 1.539 . S
C2627 H2641 0.958 . S
C2627 H2642 0.961 . S
C2627 H2643 0.960 . S
H2628 C2612 0.931 . S
H2629 C2617 0.929 . S
H2630 C2618 0.960 . S
H2631 C2618 0.962 . S
H2632 C2618 0.960 . S
H2633 C2619 0.961 . S
H2634 C2619 0.961 . S
H2635 C2619 0.961 . S
H2636 C2620 0.931 . S
H2637 C2625 0.930 . S
H2638 C2626 0.956 . S
H2639 C2626 0.961 . S
H2640 C2626 0.961 . S
H2641 C2627 0.958 . S
H2642 C2627 0.961 . S
H2643 C2627 0.960 . S
C2644 C2645 1.391 . S
C2644 C2646 1.394 . S
C2644 H2660 0.931 . S
C2645 C2644 1.391 . S
C2645 C2649 1.376 . S
C2646 C2644 1.394 . S
C2646 C2647 1.369 . S
C2646 C2650 1.531 . S
C2647 C2646 1.369 . S
C2647 C2648 1.410 . S
C2647 C2655 1.503 1_565 S
C2648 C2647 1.410 . S
C2648 C2649 1.392 . S
C2648 C2651 1.511 . S
C2649 C2645 1.376 . S
C2649 C2648 1.392 . S
C2649 H2661 0.929 . S
C2650 C2646 1.531 . S
C2650 H2662 0.960 . S
C2650 H2663 0.962 . S
C2650 H2664 0.960 . S
C2651 C2648 1.511 . S
C2651 H2665 0.961 . S
C2651 H2666 0.961 1_565 S
C2651 H2667 0.961 1_565 S
C2652 C2653 1.370 . S
C2652 C2654 1.363 . S
C2652 H2668 0.931 . S
C2653 C2652 1.370 . S
C2653 C2657 1.408 . S
C2654 C2652 1.363 . S
C2654 C2655 1.370 . S
C2654 C2658 1.524 . S
C2655 C2647 1.503 1_545 S
C2655 C2654 1.370 . S
C2655 C2656 1.403 . S
C2656 C2655 1.403 . S
C2656 C2657 1.404 . S
C2656 C2659 1.539 . S
C2657 C2653 1.408 . S
C2657 C2656 1.404 . S
C2657 H2669 0.930 . S
C2658 C2654 1.524 . S
C2658 H2670 0.956 1_545 S
C2658 H2671 0.961 1_545 S
C2658 H2672 0.961 . S
C2659 C2656 1.539 . S
C2659 H2673 0.958 . S
C2659 H2674 0.961 . S
C2659 H2675 0.960 . S
H2660 C2644 0.931 . S
H2661 C2649 0.929 . S
H2662 C2650 0.960 . S
H2663 C2650 0.962 . S
H2664 C2650 0.960 . S
H2665 C2651 0.961 . S
H2666 C2651 0.961 1_545 S
H2667 C2651 0.961 1_545 S
H2668 C2652 0.931 . S
H2669 C2657 0.930 . S
H2670 C2658 0.956 1_565 S
H2671 C2658 0.961 1_565 S
H2672 C2658 0.961 . S
H2673 C2659 0.958 . S
H2674 C2659 0.961 . S
H2675 C2659 0.960 . S
C2676 C2677 1.391 . S
C2676 C2678 1.394 . S
C2676 H2692 0.931 . S
C2677 C2676 1.391 . S
C2677 C2681 1.376 . S
C2678 C2676 1.394 . S
C2678 C2679 1.369 . S
C2678 C2682 1.531 . S
C2679 C2678 1.369 . S
C2679 C2680 1.410 . S
C2679 C2687 1.503 1_545 S
C2680 C2679 1.410 . S
C2680 C2681 1.392 . S
C2680 C2683 1.511 . S
C2681 C2677 1.376 . S
C2681 C2680 1.392 . S
C2681 H2693 0.929 . S
C2682 C2678 1.531 . S
C2682 H2694 1.010 . S
C2682 H2695 0.962 . S
C2682 H2696 0.960 . S
C2683 C2680 1.511 . S
C2683 H2697 0.961 . S
C2683 H2698 0.961 1_545 S
C2683 H2699 0.961 . S
C2684 C2685 1.370 . S
C2684 C2686 1.363 . S
C2684 H2700 0.931 . S
C2685 C2684 1.370 . S
C2685 C2689 1.408 . S
C2686 C2684 1.363 . S
C2686 C2687 1.370 . S
C2686 C2690 1.524 . S
C2687 C2679 1.503 1_565 S
C2687 C2686 1.370 . S
C2687 C2688 1.403 . S
C2688 C2687 1.403 . S
C2688 C2689 1.404 . S
C2688 C2691 1.539 . S
C2689 C2685 1.408 . S
C2689 C2688 1.404 . S
C2689 H2701 0.930 . S
C2690 C2686 1.524 . S
C2690 H2702 0.956 . S
C2690 H2703 0.961 . S
C2690 H2704 0.961 . S
C2691 C2688 1.539 . S
C2691 H2705 0.958 . S
C2691 H2706 0.961 . S
C2691 H2707 0.960 1_565 S
H2692 C2676 0.931 . S
H2693 C2681 0.929 . S
H2694 C2682 1.010 . S
H2695 C2682 0.962 . S
H2696 C2682 0.960 . S
H2697 C2683 0.961 . S
H2698 C2683 0.961 1_565 S
H2699 C2683 0.961 . S
H2700 C2684 0.931 . S
H2701 C2689 0.930 . S
H2702 C2690 0.956 . S
H2703 C2690 0.961 . S
H2704 C2690 0.961 . S
H2705 C2691 0.958 . S
H2706 C2691 0.961 . S
H2707 C2691 0.960 1_545 S
C2708 C2709 1.391 . S
C2708 C2710 1.394 . S
C2708 H2724 0.931 . S
C2709 C2708 1.391 . S
C2709 C2713 1.376 . S
C2710 C2708 1.394 . S
C2710 C2711 1.369 . S
C2710 C2714 1.531 . S
C2711 C2710 1.369 . S
C2711 C2712 1.410 . S
C2711 C2719 1.503 1_455 S
C2712 C2711 1.410 . S
C2712 C2713 1.392 . S
C2712 C2715 1.511 . S
C2713 C2709 1.376 . S
C2713 C2712 1.392 . S
C2713 H2725 0.929 . S
C2714 C2710 1.531 . S
C2714 H2726 0.960 . S
C2714 H2727 0.962 . S
C2714 H2728 0.960 . S
C2715 C2712 1.511 . S
C2715 H2729 0.961 . S
C2715 H2730 0.961 1_455 S
C2715 H2731 0.961 . S
C2716 C2717 1.370 . S
C2716 C2718 1.363 . S
C2716 H2732 0.931 . S
C2717 C2716 1.370 . S
C2717 C2721 1.408 . S
C2718 C2716 1.363 . S
C2718 C2719 1.370 . S
C2718 C2722 1.524 . S
C2719 C2711 1.503 1_655 S
C2719 C2718 1.370 . S
C2719 C2720 1.403 . S
C2720 C2719 1.403 . S
C2720 C2721 1.404 . S
C2720 C2723 1.539 . S
C2721 C2717 1.408 . S
C2721 C2720 1.404 . S
C2721 H2733 0.930 . S
C2722 C2718 1.524 . S
C2722 H2734 0.956 . S
C2722 H2735 0.961 . S
C2722 H2736 0.961 . S
C2723 C2720 1.539 . S
C2723 H2737 0.958 . S
C2723 H2738 0.961 . S
C2723 H2739 0.960 1_655 S
H2724 C2708 0.931 . S
H2725 C2713 0.929 . S
H2726 C2714 0.960 . S
H2727 C2714 0.962 . S
H2728 C2714 0.960 . S
H2729 C2715 0.961 . S
H2730 C2715 0.961 1_655 S
H2731 C2715 0.961 . S
H2732 C2716 0.931 . S
H2733 C2721 0.930 . S
H2734 C2722 0.956 . S
H2735 C2722 0.961 . S
H2736 C2722 0.961 . S
H2737 C2723 0.958 . S
H2738 C2723 0.961 . S
H2739 C2723 0.960 1_455 S
C2740 C2741 1.391 . S
C2740 C2742 1.394 . S
C2740 H2756 0.931 . S
C2741 C2740 1.391 . S
C2741 C2745 1.376 . S
C2742 C2740 1.394 . S
C2742 C2743 1.369 . S
C2742 C2746 1.531 . S
C2743 C2742 1.369 . S
C2743 C2744 1.410 . S
C2743 C2751 1.503 . S
C2744 C2743 1.410 . S
C2744 C2745 1.392 . S
C2744 C2747 1.511 . S
C2745 C2741 1.376 . S
C2745 C2744 1.392 . S
C2745 H2757 0.929 . S
C2746 C2742 1.531 . S
C2746 H2758 0.960 . S
C2746 H2759 0.962 . S
C2746 H2760 0.960 . S
C2747 C2744 1.511 . S
C2747 H2761 0.961 . S
C2747 H2762 0.961 . S
C2747 H2763 0.961 . S
C2748 C2749 1.370 . S
C2748 C2750 1.363 . S
C2748 H2764 0.931 . S
C2749 C2748 1.370 . S
C2749 C2753 1.408 . S
C2750 C2748 1.363 . S
C2750 C2751 1.370 . S
C2750 C2754 1.524 . S
C2751 C2743 1.503 . S
C2751 C2750 1.370 . S
C2751 C2752 1.403 . S
C2752 C2751 1.403 . S
C2752 C2753 1.404 . S
C2752 C2755 1.539 . S
C2753 C2749 1.408 . S
C2753 C2752 1.404 . S
C2753 H2765 0.930 . S
C2754 C2750 1.524 . S
C2754 H2766 0.956 . S
C2754 H2767 0.961 . S
C2754 H2768 0.961 . S
C2755 C2752 1.539 . S
C2755 H2769 0.958 . S
C2755 H2770 0.961 . S
C2755 H2771 0.960 . S
H2756 C2740 0.931 . S
H2757 C2745 0.929 . S
H2758 C2746 0.960 . S
H2759 C2746 0.962 . S
H2760 C2746 0.960 . S
H2761 C2747 0.961 . S
H2762 C2747 0.961 . S
H2763 C2747 0.961 . S
H2764 C2748 0.931 . S
H2765 C2753 0.930 . S
H2766 C2754 0.956 . S
H2767 C2754 0.961 . S
H2768 C2754 0.961 . S
H2769 C2755 0.958 . S
H2770 C2755 0.961 . S
H2771 C2755 0.960 . S
C469 C43 1.174 . S
C477 C10 1.174 . S
C501 C56 1.168 . S
C509 C17 1.178 . S
C533 C69 1.177 . S
C541 C36 1.174 . S
C565 C88 1.168 . S
C573 C121 1.177 . S
C597 C95 1.168 . S
C605 C140 1.174 . S
C629 C153 1.171 . S
C637 C114 1.179 . S
C661 C160 1.173 . S
C669 C205 1.179 . S
C693 C179 1.176 . S
C701 C212 1.178 . S
C725 C186 1.167 . S
C733 C225 1.175 . S
C757 C244 1.168 . S
C765 C277 1.176 . S
C789 C296 1.166 . S
C797 C251 1.174 . S
C821 C270 1.176 . S
C829 C309 1.173 . S
C853 C322 1.166 . S
C861 C361 1.176 . S
C885 C335 1.172 . S
C893 C368 1.178 . S
C917 C381 1.170 . S
C925 C342 1.178 . S
C949 C433 1.177 . S
C957 C400 1.179 . S
C981 C452 1.179 . S
C989 C407 1.175 . S
C1013 C465 1.166 . S
C1021 C420 1.175 . S
C1045 C147 1.628 . S
C1053 C3 1.673 . S
C1077 C18 1.666 . S
C1085 C127 1.644 . S
C1109 C29 1.677 . S
C1117 C134 1.650 . S
C1141 C101 1.666 . S
C1149 C44 1.679 . S
C1173 C57 1.667 . S
C1181 C108 1.656 . S
C1205 C82 1.630 . S
C1213 C70 1.676 . S
C1237 C81 1.663 . S
C1245 C75 1.648 . S
C1269 C96 1.666 . S
C1277 C49 1.653 . S
C1301 C62 1.645 . S
C1309 C107 1.672 . S
C1333 C23 1.639 . S
C1341 C122 1.678 . S
C1365 C30 1.668 . S
C1373 C133 1.679 . S
C1397 C146 1.669 . S
C1405 C4 1.645 . S
C1429 C161 1.674 . S
C1437 C303 1.650 . S
C1461 C283 1.647 . S
C1469 C172 1.666 . S
C1493 C290 1.625 . S
C1501 C187 1.666 . S
C1525 C198 1.669 . S
C1533 C257 1.658 . S
C1557 C264 1.629 . S
C1565 C213 1.676 . S
C1589 C226 1.664 . S
C1597 C238 1.646 . S
C1621 C237 1.672 . S
C1629 C231 1.658 . S
C1653 C252 1.666 . S
C1661 C199 1.653 . S
C1685 C218 1.658 . S
C1693 C263 1.675 . S
C1717 C173 1.657 . S
C1725 C278 1.685 . S
C1749 C192 1.646 . S
C1757 C289 1.684 . S
C1781 C302 1.673 . S
C1789 C166 1.663 . S
C1813 C459 1.667 . S
C1821 C315 1.677 . S
C1845 C328 1.677 . S
C1853 C439 1.659 . S
C1877 C343 1.678 . S
C1885 C446 1.651 . S
C1909 C354 1.683 . S
C1917 C413 1.658 . S
C1941 C426 1.646 . S
C1949 C369 1.684 . S
C1973 C382 1.668 . S
C1981 C394 1.654 . S
C2005 C387 1.623 . S
C2013 C393 1.666 . S
C2037 C355 1.635 . S
C2045 C408 1.670 . S
C2069 C374 1.623 . S
C2077 C421 1.666 . S
C2101 C329 1.652 . S
C2109 C434 1.679 . S
C2133 C348 1.667 . S
C2141 C445 1.678 . S
C2165 C316 1.631 . S
C2173 C458 1.673 . S
C2197 C380 1.450 . S
C2205 C5 1.465 . S
C2229 C16 1.465 . S
C2237 C356 1.453 . S
C2261 C367 1.451 . S
C2269 C31 1.466 . S
C2293 C42 1.460 . S
C2301 C174 1.451 . S
C2325 C185 1.473 . S
C2333 C55 1.461 . S
C2357 C68 1.472 . S
C2365 C159 1.462 . S
C2389 C83 1.442 . S
C2397 C304 1.461 . S
C2421 C276 1.470 . S
C2429 C94 1.458 . S
C2453 C109 1.472 . S
C2461 C291 1.464 . S
C2485 C120 1.446 . S
C2493 C406 1.462 . S
C2517 C135 1.443 . S
C2525 C419 1.461 . S
C2549 C395 1.436 . S
C2557 C148 1.453 . S
C2581 C330 1.465 . S
C2589 C200 1.466 . S
C2613 C341 1.458 . S
C2621 C211 1.451 . S
C2645 C317 1.436 . S
C2653 C224 1.456 . S
C2677 C239 1.467 . S
C2685 C460 1.456 . S
C2709 C432 1.471 . S
C2717 C250 1.458 . S
C2741 C265 1.444 . S
C2749 C447 1.462 . S
