# Generated by pormake.
# Topology uoq, (4)-cn, num edge types: 1
# Building blocks:
#     Node 0, Type 0, BuildingBlock: ICAMEG_clean_sbu_1, # of connection points: 4
#     Node 1, Type 0, BuildingBlock: ICAMEG_clean_sbu_1, # of connection points: 4
#     Node 2, Type 0, BuildingBlock: ICAMEG_clean_sbu_1, # of connection points: 4
#     Node 3, Type 0, BuildingBlock: ICAMEG_clean_sbu_1, # of connection points: 4
#     Node 4, Type 0, BuildingBlock: ICAMEG_clean_sbu_1, # of connection points: 4
#     Node 5, Type 0, BuildingBlock: ICAMEG_clean_sbu_1, # of connection points: 4
#     Node 6, Type 0, BuildingBlock: ICAMEG_clean_sbu_1, # of connection points: 4
#     Node 7, Type 0, BuildingBlock: ICAMEG_clean_sbu_1, # of connection points: 4
#     Node 8, Type 0, BuildingBlock: ICAMEG_clean_sbu_1, # of connection points: 4
#     Node 9, Type 0, BuildingBlock: ICAMEG_clean_sbu_1, # of connection points: 4
#     Node 10, Type 0, BuildingBlock: ICAMEG_clean_sbu_1, # of connection points: 4
#     Node 11, Type 0, BuildingBlock: ICAMEG_clean_sbu_1, # of connection points: 4
#     Edge 12, Type (0, 0), BuildingBlock: UVAHIK_clean_linker_0, # of connection points: 2
#     Edge 13, Type (0, 0), BuildingBlock: UVAHIK_clean_linker_0, # of connection points: 2
#     Edge 14, Type (0, 0), BuildingBlock: UVAHIK_clean_linker_0, # of connection points: 2
#     Edge 15, Type (0, 0), BuildingBlock: UVAHIK_clean_linker_0, # of connection points: 2
#     Edge 16, Type (0, 0), BuildingBlock: UVAHIK_clean_linker_0, # of connection points: 2
#     Edge 17, Type (0, 0), BuildingBlock: UVAHIK_clean_linker_0, # of connection points: 2
#     Edge 18, Type (0, 0), BuildingBlock: UVAHIK_clean_linker_0, # of connection points: 2
#     Edge 19, Type (0, 0), BuildingBlock: UVAHIK_clean_linker_0, # of connection points: 2
#     Edge 20, Type (0, 0), BuildingBlock: UVAHIK_clean_linker_0, # of connection points: 2
#     Edge 21, Type (0, 0), BuildingBlock: UVAHIK_clean_linker_0, # of connection points: 2
#     Edge 22, Type (0, 0), BuildingBlock: UVAHIK_clean_linker_0, # of connection points: 2
#     Edge 23, Type (0, 0), BuildingBlock: UVAHIK_clean_linker_0, # of connection points: 2
#     Edge 24, Type (0, 0), BuildingBlock: UVAHIK_clean_linker_0, # of connection points: 2
#     Edge 25, Type (0, 0), BuildingBlock: UVAHIK_clean_linker_0, # of connection points: 2
#     Edge 26, Type (0, 0), BuildingBlock: UVAHIK_clean_linker_0, # of connection points: 2
#     Edge 27, Type (0, 0), BuildingBlock: UVAHIK_clean_linker_0, # of connection points: 2
#     Edge 28, Type (0, 0), BuildingBlock: UVAHIK_clean_linker_0, # of connection points: 2
#     Edge 29, Type (0, 0), BuildingBlock: UVAHIK_clean_linker_0, # of connection points: 2
#     Edge 30, Type (0, 0), BuildingBlock: UVAHIK_clean_linker_0, # of connection points: 2
#     Edge 31, Type (0, 0), BuildingBlock: UVAHIK_clean_linker_0, # of connection points: 2
#     Edge 32, Type (0, 0), BuildingBlock: UVAHIK_clean_linker_0, # of connection points: 2
#     Edge 33, Type (0, 0), BuildingBlock: UVAHIK_clean_linker_0, # of connection points: 2
#     Edge 34, Type (0, 0), BuildingBlock: UVAHIK_clean_linker_0, # of connection points: 2
#     Edge 35, Type (0, 0), BuildingBlock: UVAHIK_clean_linker_0, # of connection points: 2
# Relax obj value: 0.256
# Max RMSD: 0.234
# Mean RMSD: 0.234
data_MOF--net-uoq--node1-ICAMEG_clean_sbu_1--edge1-UVAHIK_clean_linker_0
_symmetry_space_group_name_H-M    P1
_symmetry_Int_Tables_number       1
_symmetry_cell_setting            triclinic
loop_
_symmetry_equiv_pos_as_xyz
'x, y, z'
_cell_length_a     77.75658
_cell_length_b     77.817304
_cell_length_c     30.894729
_cell_angle_alpha  90.028091
_cell_angle_beta   89.948786
_cell_angle_gamma 119.9708
loop_
_atom_site_label
_atom_site_type_symbol
_atom_site_fract_x
_atom_site_fract_y
_atom_site_fract_z
_atom_type_partial_charge
Co0 Co 0.31925 0.45574 0.3172 0.0
Co1 Co 0.33417 0.45813 0.21112 0.0
O2 O 0.31564 0.45766 0.25515 0.0
C3 C 0.31622 0.48945 0.35226 0.0
O4 O 0.33469 0.4969 0.36503 0.0
C5 C 0.29289 0.43019 0.1785 0.0
O6 O 0.28728 0.42402 0.21824 0.0
O7 O 0.33263 0.43344 0.23597 0.0
O8 O 0.33038 0.43795 0.30701 0.0
H9 H 0.39309 0.45395 0.15819 0.0
H10 H 0.27954 0.44748 0.28771 0.0
O11 O 0.30811 0.47369 0.32928 0.0
H12 H 0.26826 0.3856 0.35687 0.0
H13 H 0.29941 0.44834 0.47449 0.0
H14 H 0.35189 0.4581 0.3711 0.0
H15 H 0.30188 0.41479 0.35344 0.0
H16 H 0.29457 0.44999 0.39607 0.0
O17 O 0.31118 0.44212 0.17032 0.0
H18 H 0.36999 0.45392 0.213 0.0
H19 H 0.3369 0.46269 0.11486 0.0
H20 H 0.35732 0.45647 0.44925 0.0
H21 H 0.2456 0.41876 0.29122 0.0
H22 H 0.33097 0.45158 0.50156 0.0
H23 H 0.2398 0.38749 0.32578 0.0
O24 O 0.3464 0.47889 0.31324 0.0
H25 H 0.30679 0.50125 0.16134 0.0
H26 H 0.36751 0.49717 0.18154 0.0
H27 H 0.37014 0.52793 0.15281 0.0
H28 H 0.3396 0.53008 0.14231 0.0
H29 H 0.30487 0.4709 0.19055 0.0
H30 H 0.35954 0.46264 0.05899 0.0
H31 H 0.38793 0.45833 0.08056 0.0
O32 O 0.3578 0.47516 0.24919 0.0
C33 C 0.33368 0.42932 0.27571 0.0
C34 C 0.3808 0.45589 0.1484 0.0
C35 C 0.36195 0.46073 0.09272 0.0
N36 N 0.35217 0.45839 0.1672 0.0
C37 C 0.3677 0.45593 0.1793 0.0
C38 C 0.34914 0.46067 0.12451 0.0
C39 C 0.37788 0.45833 0.10484 0.0
C40 C 0.27711 0.43403 0.30334 0.0
N41 N 0.2927 0.43285 0.32036 0.0
C42 C 0.25787 0.41777 0.30499 0.0
C43 C 0.25463 0.40021 0.3243 0.0
C44 C 0.2706 0.39913 0.34167 0.0
C45 C 0.28964 0.41568 0.33939 0.0
C46 C 0.31099 0.45045 0.45203 0.0
C47 C 0.34033 0.4559 0.39363 0.0
C48 C 0.30834 0.45139 0.40757 0.0
N49 N 0.32292 0.45408 0.37898 0.0
C50 C 0.34349 0.45501 0.43786 0.0
C51 C 0.3287 0.45227 0.46719 0.0
C52 C 0.36039 0.48355 0.28613 0.0
C53 C 0.3202 0.50049 0.16568 0.0
C54 C 0.35418 0.49803 0.17744 0.0
C55 C 0.35575 0.51547 0.16097 0.0
C56 C 0.33861 0.51666 0.15505 0.0
N57 N 0.33606 0.48218 0.18763 0.0
C58 C 0.31921 0.48329 0.1821 0.0
Co59 Co 0.8802 0.31302 0.66226 0.0
Co60 Co 0.87909 0.32393 0.55421 0.0
O61 O 0.86792 0.30618 0.60464 0.0
C62 C 0.83875 0.30251 0.68426 0.0
O63 O 0.83867 0.3133 0.65168 0.0
C64 C 0.86394 0.2821 0.5199 0.0
O65 O 0.86371 0.2756 0.55915 0.0
O66 O 0.90585 0.32638 0.56373 0.0
O67 O 0.90718 0.32606 0.63643 0.0
H68 H 0.93024 0.38491 0.47634 0.0
H69 H 0.84947 0.27112 0.64693 0.0
O70 O 0.85363 0.30022 0.69088 0.0
H71 H 0.91052 0.26948 0.68174 0.0
H72 H 0.88748 0.30039 0.81928 0.0
H73 H 0.91387 0.34914 0.70037 0.0
H74 H 0.91056 0.30117 0.68088 0.0
H75 H 0.87239 0.29165 0.74664 0.0
O76 O 0.87078 0.3006 0.51331 0.0
H77 H 0.91577 0.36239 0.5387 0.0
H78 H 0.86598 0.32295 0.4628 0.0
H79 H 0.92951 0.35845 0.77241 0.0
H80 H 0.84867 0.23902 0.64826 0.0
H81 H 0.91631 0.33399 0.83249 0.0
H82 H 0.87939 0.23809 0.66551 0.0
O83 O 0.88036 0.33863 0.66119 0.0
H84 H 0.80447 0.2881 0.54549 0.0
H85 H 0.86573 0.35313 0.53649 0.0
H86 H 0.83332 0.35115 0.52738 0.0
H87 H 0.80237 0.31843 0.53166 0.0
H88 H 0.83713 0.29078 0.55501 0.0
H89 H 0.88001 0.34495 0.39952 0.0
H90 H 0.91232 0.37623 0.40609 0.0
O91 O 0.8871 0.3479 0.59166 0.0
C92 C 0.91525 0.32901 0.59935 0.0
C93 C 0.91614 0.37133 0.47307 0.0
C94 C 0.88796 0.34889 0.42994 0.0
N95 N 0.89005 0.34138 0.50449 0.0
C96 C 0.90786 0.35853 0.5083 0.0
C97 C 0.88014 0.33645 0.46587 0.0
C98 C 0.90609 0.36644 0.43366 0.0
C99 C 0.86285 0.2708 0.65486 0.0
N100 N 0.88006 0.28801 0.66351 0.0
C101 C 0.86233 0.2526 0.65538 0.0
C102 C 0.87958 0.25209 0.66499 0.0
C103 C 0.89705 0.2697 0.67402 0.0
C104 C 0.89702 0.28762 0.67319 0.0
C105 C 0.89338 0.31118 0.79336 0.0
C106 C 0.90808 0.33838 0.72629 0.0
C107 C 0.88486 0.30633 0.75219 0.0
N108 N 0.89228 0.31984 0.71924 0.0
C109 C 0.91698 0.34375 0.76704 0.0
C110 C 0.90956 0.33003 0.80074 0.0
C111 C 0.8851 0.35144 0.63116 0.0
C112 C 0.81785 0.30242 0.54325 0.0
C113 C 0.85236 0.33883 0.53846 0.0
C114 C 0.83404 0.3378 0.5332 0.0
C115 C 0.81668 0.31945 0.53559 0.0
N116 N 0.85343 0.32205 0.54564 0.0
C117 C 0.83644 0.30402 0.54832 0.0
Co118 Co 0.57117 0.87495 0.98459 0.0
Co119 Co 0.56333 0.87803 0.87697 0.0
O120 O 0.569 0.86516 0.92535 0.0
C121 C 0.54385 0.83186 1.00116 0.0
O122 O 0.53195 0.83142 0.9705 0.0
C123 C 0.59132 0.86463 0.84218 0.0
O124 O 0.59754 0.86447 0.8815 0.0
O125 O 0.58729 0.9043 0.89235 0.0
O126 O 0.58206 0.90271 0.96392 0.0
H127 H 0.55514 0.93193 0.80768 0.0
H128 H 0.58917 0.84991 0.96681 0.0
O129 O 0.56033 0.84759 1.00821 0.0
H130 H 0.64462 0.91429 0.01489 0.0
H131 H 0.58684 0.87895 0.14373 0.0
H132 H 0.56089 0.90286 0.027 0.0
H133 H 0.61062 0.90888 0.01084 0.0
H134 H 0.58499 0.86728 0.06876 0.0
O135 O 0.5794 0.87119 0.83551 0.0
H136 H 0.56174 0.91514 0.86768 0.0
H137 H 0.55358 0.86853 0.78329 0.0
H138 H 0.56268 0.91508 0.10141 0.0
H139 H 0.62292 0.85458 0.97112 0.0
H140 H 0.57571 0.9031 0.16043 0.0
H141 H 0.65095 0.887 0.9951 0.0
O142 O 0.54394 0.87076 0.98021 0.0
H143 H 0.52521 0.80407 0.85455 0.0
H144 H 0.52121 0.86533 0.85563 0.0
H145 H 0.49119 0.83336 0.84 0.0
H146 H 0.49308 0.80243 0.83919 0.0
H147 H 0.55479 0.83627 0.87054 0.0
H148 H 0.5471 0.88493 0.72232 0.0
H149 H 0.54777 0.91682 0.73436 0.0
O150 O 0.5461 0.88444 0.91519 0.0
C151 C 0.58993 0.91252 0.92953 0.0
C152 C 0.55479 0.91803 0.80204 0.0
C153 C 0.55031 0.89166 0.75412 0.0
N154 N 0.55802 0.89085 0.82908 0.0
C155 C 0.55849 0.90843 0.83591 0.0
C156 C 0.55408 0.88249 0.78875 0.0
C157 C 0.55067 0.90955 0.7609 0.0
C158 C 0.60127 0.86401 0.9776 0.0
N159 N 0.59792 0.87912 0.98828 0.0
C160 C 0.62036 0.86659 0.97983 0.0
C161 C 0.63608 0.88479 0.99322 0.0
C162 C 0.63254 0.90012 1.00426 0.0
C163 C 0.61326 0.897 1.00162 0.0
C164 C 0.58114 0.88428 0.1183 0.0
C165 C 0.56667 0.89763 0.05243 0.0
C166 C 0.57999 0.87767 0.0758 0.0
N167 N 0.57289 0.88441 0.04346 0.0
C168 C 0.5676 0.90458 0.09454 0.0
C169 C 0.5749 0.89784 0.12764 0.0
C170 C 0.53738 0.87779 0.95156 0.0
C171 C 0.52423 0.81746 0.85448 0.0
C172 C 0.52221 0.85196 0.85527 0.0
C173 C 0.50513 0.83389 0.84639 0.0
C174 C 0.5062 0.81655 0.84595 0.0
N175 N 0.53991 0.85279 0.86324 0.0
C176 C 0.541 0.8358 0.86323 0.0
Co177 Co 0.70577 0.57029 0.3191 0.0
Co178 Co 0.69571 0.55961 0.21105 0.0
O179 O 0.71353 0.56627 0.26124 0.0
C180 C 0.71986 0.54206 0.34024 0.0
O181 O 0.709 0.53048 0.30854 0.0
C182 C 0.73764 0.58638 0.17699 0.0
O183 O 0.74426 0.59178 0.21652 0.0
O184 O 0.69277 0.58359 0.22206 0.0
O185 O 0.69019 0.58181 0.29445 0.0
H186 H 0.63419 0.54919 0.1347 0.0
H187 H 0.7487 0.5858 0.3041 0.0
O188 O 0.72091 0.55872 0.34663 0.0
H189 H 0.74285 0.64441 0.34013 0.0
H190 H 0.71694 0.58947 0.47664 0.0
H191 H 0.66796 0.56341 0.35818 0.0
H192 H 0.7132 0.61108 0.33854 0.0
H193 H 0.72681 0.58504 0.40345 0.0
O194 O 0.71903 0.5753 0.17023 0.0
H195 H 0.65684 0.55712 0.19678 0.0
H196 H 0.69695 0.54849 0.11884 0.0
H197 H 0.65751 0.56777 0.43076 0.0
H198 H 0.77881 0.61885 0.30603 0.0
H199 H 0.68208 0.58087 0.49064 0.0
H200 H 0.77598 0.64846 0.32394 0.0
O201 O 0.68178 0.54364 0.31694 0.0
H202 H 0.73267 0.5219 0.20103 0.0
H203 H 0.66724 0.51722 0.19021 0.0
H204 H 0.66985 0.48726 0.17942 0.0
H205 H 0.70278 0.48948 0.18457 0.0
H206 H 0.72935 0.55139 0.21224 0.0
H207 H 0.67483 0.54069 0.05585 0.0
H208 H 0.64314 0.54091 0.06359 0.0
O209 O 0.6717 0.5428 0.24854 0.0
C210 C 0.68789 0.58806 0.25815 0.0
C211 C 0.64794 0.54901 0.13093 0.0
C212 C 0.67076 0.54428 0.08666 0.0
N213 N 0.67818 0.55322 0.16154 0.0
C214 C 0.66081 0.55346 0.166 0.0
C215 C 0.68327 0.5488 0.12243 0.0
C216 C 0.65298 0.54439 0.09104 0.0
C217 C 0.74737 0.59859 0.31224 0.0
N218 N 0.72919 0.5965 0.32092 0.0
C219 C 0.76446 0.61728 0.31314 0.0
C220 C 0.76286 0.63389 0.32313 0.0
C221 C 0.74427 0.63163 0.33214 0.0
C222 C 0.72751 0.61272 0.33092 0.0
C223 C 0.7061 0.58375 0.45082 0.0
C224 C 0.67877 0.5692 0.38399 0.0
C225 C 0.71159 0.58115 0.40933 0.0
N226 N 0.69799 0.57401 0.37651 0.0
C227 C 0.67275 0.5716 0.42506 0.0
C228 C 0.68654 0.57894 0.45865 0.0
C229 C 0.6687 0.53606 0.28728 0.0
C230 C 0.71825 0.52076 0.19836 0.0
C231 C 0.68162 0.51836 0.19258 0.0
C232 C 0.68301 0.50132 0.18636 0.0
C233 C 0.70148 0.50257 0.18924 0.0
N234 N 0.69816 0.53622 0.20115 0.0
C235 C 0.71629 0.53749 0.20437 0.0
Co236 Co 0.14518 0.69989 0.64723 0.0
Co237 Co 0.14474 0.68589 0.54202 0.0
O238 O 0.15652 0.70542 0.58891 0.0
C239 C 0.18708 0.71305 0.67213 0.0
O240 O 0.18688 0.69918 0.64752 0.0
C241 C 0.15629 0.72564 0.50096 0.0
O242 O 0.15133 0.7314 0.5364 0.0
O243 O 0.1182 0.68407 0.55136 0.0
O244 O 0.1178 0.68391 0.62401 0.0
H245 H 0.09229 0.62267 0.47371 0.0
H246 H 0.17287 0.74177 0.62353 0.0
O247 O 0.17223 0.71575 0.67299 0.0
H248 H 0.10968 0.73896 0.65913 0.0
H249 H 0.13937 0.71704 0.80177 0.0
H250 H 0.11393 0.66403 0.69179 0.0
H251 H 0.11269 0.70895 0.66407 0.0
H252 H 0.153 0.72395 0.72768 0.0
O253 O 0.15311 0.70792 0.49795 0.0
H254 H 0.1076 0.64729 0.53224 0.0
H255 H 0.15684 0.68343 0.45138 0.0
H256 H 0.09975 0.65653 0.76536 0.0
H257 H 0.17061 0.77223 0.61885 0.0
H258 H 0.11248 0.68314 0.82097 0.0
H259 H 0.1388 0.77091 0.63653 0.0
O260 O 0.14722 0.67548 0.65012 0.0
H261 H 0.21911 0.7213 0.52861 0.0
H262 H 0.15789 0.65606 0.53027 0.0
H263 H 0.19023 0.65777 0.52215 0.0
H264 H 0.22116 0.69059 0.52112 0.0
H265 H 0.18647 0.71888 0.5372 0.0
H266 H 0.14197 0.6593 0.39185 0.0
H267 H 0.1095 0.6286 0.40289 0.0
O268 O 0.137 0.66316 0.58351 0.0
C269 C 0.10907 0.68061 0.58763 0.0
C270 C 0.10645 0.63598 0.46852 0.0
C271 C 0.13432 0.65655 0.42255 0.0
N272 N 0.13311 0.66679 0.49529 0.0
C273 C 0.11521 0.64997 0.50156 0.0
C274 C 0.14263 0.67021 0.45633 0.0
C275 C 0.11611 0.63932 0.42878 0.0
C276 C 0.15905 0.74113 0.63174 0.0
N277 N 0.14295 0.72361 0.64406 0.0
C278 C 0.15783 0.7584 0.62883 0.0
C279 C 0.13997 0.75765 0.63868 0.0
C280 C 0.12361 0.73972 0.6513 0.0
C281 C 0.12538 0.72275 0.65384 0.0
C282 C 0.13368 0.70532 0.77781 0.0
C283 C 0.11949 0.67573 0.71571 0.0
C284 C 0.14138 0.70914 0.73583 0.0
N285 N 0.13421 0.69444 0.70534 0.0
C286 C 0.11143 0.67137 0.75737 0.0
C287 C 0.11859 0.6863 0.78856 0.0
C288 C 0.14116 0.66139 0.62271 0.0
C289 C 0.20574 0.70691 0.52889 0.0
C290 C 0.17125 0.67038 0.53009 0.0
C291 C 0.18954 0.67126 0.52534 0.0
C292 C 0.20688 0.68968 0.52474 0.0
N293 N 0.17023 0.68735 0.53401 0.0
C294 C 0.18719 0.70545 0.53359 0.0
Co295 Co 0.44704 0.13721 0.97982 0.0
Co296 Co 0.46359 0.13886 0.87538 0.0
O297 O 0.45496 0.14976 0.92272 0.0
C298 C 0.47772 0.17802 1.00588 0.0
O299 O 0.48979 0.17774 0.97647 0.0
C300 C 0.43588 0.15079 0.83271 0.0
O301 O 0.42438 0.14524 0.86702 0.0
O302 O 0.43893 0.11204 0.88127 0.0
O303 O 0.43379 0.11042 0.95322 0.0
H304 H 0.47659 0.08837 0.8041 0.0
H305 H 0.43746 0.16839 0.95678 0.0
O306 O 0.46002 0.16361 1.00909 0.0
H307 H 0.37288 0.10838 0.98446 0.0
H308 H 0.4208 0.12955 0.13196 0.0
H309 H 0.44709 0.10293 0.02153 0.0
H310 H 0.40405 0.10762 0.99213 0.0
H311 H 0.43034 0.14497 0.05972 0.0
O312 O 0.45067 0.14794 0.83105 0.0
H313 H 0.46591 0.10228 0.8631 0.0
H314 H 0.4799 0.15292 0.78661 0.0
H315 H 0.43753 0.08692 0.09321 0.0
H316 H 0.40664 0.16991 0.94935 0.0
H317 H 0.4243 0.10026 0.14904 0.0
H318 H 0.37406 0.13972 0.96306 0.0
O319 O 0.47219 0.13645 0.98506 0.0
H320 H 0.5023 0.21337 0.86808 0.0
H321 H 0.50686 0.15242 0.86835 0.0
H322 H 0.53747 0.18495 0.8642 0.0
H323 H 0.53532 0.21574 0.8639 0.0
H324 H 0.47207 0.18054 0.87274 0.0
H325 H 0.49056 0.1395 0.72661 0.0
H326 H 0.48901 0.10702 0.73519 0.0
O327 O 0.4777 0.13037 0.91701 0.0
C328 C 0.43042 0.1025 0.91591 0.0
C329 C 0.47731 0.10252 0.79993 0.0
C330 C 0.48512 0.1312 0.75643 0.0
N331 N 0.47217 0.12834 0.82831 0.0
C332 C 0.47127 0.11047 0.83325 0.0
C333 C 0.47896 0.13868 0.79046 0.0
C334 C 0.48427 0.11299 0.76128 0.0
C335 C 0.42333 0.15525 0.96318 0.0
N336 N 0.42255 0.13794 0.97481 0.0
C337 C 0.40594 0.15618 0.95876 0.0
C338 C 0.38766 0.13922 0.96639 0.0
C339 C 0.38698 0.12163 0.97834 0.0
C340 C 0.40468 0.12126 0.98241 0.0
C341 C 0.42655 0.1236 0.10791 0.0
C342 C 0.44126 0.10877 0.04559 0.0
C343 C 0.43204 0.13232 0.067 0.0
N344 N 0.43923 0.12484 0.0364 0.0
C345 C 0.43591 0.09966 0.08615 0.0
C346 C 0.4285 0.10716 0.11746 0.0
C347 C 0.4815 0.13194 0.95747 0.0
C348 C 0.50343 0.20006 0.86804 0.0
C349 C 0.50577 0.16572 0.86845 0.0
C350 C 0.52317 0.18411 0.86596 0.0
C351 C 0.52195 0.20138 0.86576 0.0
N352 N 0.48764 0.16452 0.87055 0.0
C353 C 0.48635 0.1814 0.87048 0.0
Co354 Co 0.56775 0.70456 0.36725 0.0
Co355 Co 0.56134 0.69108 0.47599 0.0
O356 O 0.56321 0.70856 0.42794 0.0
C357 C 0.53306 0.70226 0.32274 0.0
O358 O 0.52862 0.68433 0.31063 0.0
C359 C 0.58884 0.73314 0.50663 0.0
O360 O 0.59411 0.73888 0.46654 0.0
O361 O 0.58588 0.69071 0.45592 0.0
O362 O 0.58771 0.69704 0.38441 0.0
H363 H 0.56036 0.63162 0.54225 0.0
H364 H 0.57002 0.74254 0.39125 0.0
O365 O 0.54762 0.7121 0.34846 0.0
H366 H 0.63627 0.76111 0.33389 0.0
H367 H 0.57865 0.72197 0.20855 0.0
H368 H 0.57191 0.67367 0.32011 0.0
H369 H 0.60983 0.72603 0.33676 0.0
H370 H 0.57318 0.72706 0.28499 0.0
O371 O 0.57751 0.71477 0.51515 0.0
H372 H 0.56267 0.65375 0.48268 0.0
H373 H 0.55548 0.69133 0.57165 0.0
H374 H 0.57746 0.66805 0.24407 0.0
H375 H 0.59589 0.77785 0.38808 0.0
H376 H 0.58085 0.69229 0.18768 0.0
H377 H 0.62934 0.78732 0.3595 0.0
O378 O 0.54661 0.67619 0.37032 0.0
H379 H 0.51967 0.72215 0.51095 0.0
H380 H 0.52115 0.65961 0.50472 0.0
H381 H 0.49053 0.65901 0.52793 0.0
H382 H 0.48968 0.69047 0.5314 0.0
H383 H 0.54987 0.72203 0.48736 0.0
H384 H 0.55325 0.66969 0.63219 0.0
H385 H 0.55563 0.63955 0.61767 0.0
O386 O 0.54442 0.66701 0.43988 0.0
C387 C 0.59362 0.6923 0.41841 0.0
C388 C 0.55933 0.64472 0.549 0.0
C389 C 0.55537 0.6661 0.59948 0.0
N390 N 0.55933 0.67388 0.52361 0.0
C391 C 0.56064 0.65732 0.51539 0.0
C392 C 0.55675 0.67836 0.56505 0.0
C393 C 0.55668 0.64918 0.59131 0.0
C394 C 0.58447 0.74656 0.37829 0.0
N395 N 0.58844 0.73222 0.36441 0.0
C396 C 0.59909 0.76657 0.3768 0.0
C397 C 0.61787 0.77187 0.36084 0.0
C398 C 0.62178 0.75717 0.34657 0.0
C399 C 0.6068 0.73731 0.34859 0.0
C400 C 0.57722 0.71131 0.23283 0.0
C401 C 0.57344 0.68432 0.29578 0.0
C402 C 0.57412 0.71411 0.27617 0.0
N403 N 0.57228 0.7007 0.30703 0.0
C404 C 0.57656 0.68105 0.25277 0.0
C405 C 0.57845 0.69465 0.22114 0.0
C406 C 0.53934 0.6632 0.40021 0.0
C407 C 0.51988 0.70835 0.50975 0.0
C408 C 0.52089 0.67334 0.50589 0.0
C409 C 0.50351 0.67292 0.51919 0.0
C410 C 0.50305 0.69057 0.52115 0.0
N411 N 0.5374 0.69085 0.49503 0.0
C412 C 0.53699 0.7082 0.49659 0.0
Co413 Co 0.87291 0.56111 0.70211 0.0
Co414 Co 0.87968 0.55469 0.81092 0.0
O415 O 0.86439 0.55705 0.76279 0.0
C416 C 0.83955 0.5274 0.65748 0.0
O417 O 0.85242 0.52214 0.64511 0.0
C418 C 0.86619 0.58308 0.84126 0.0
O419 O 0.86649 0.58881 0.80124 0.0
O420 O 0.90489 0.57889 0.79102 0.0
O421 O 0.90072 0.58016 0.71916 0.0
H422 H 0.93732 0.55221 0.87772 0.0
H423 H 0.83838 0.56554 0.72607 0.0
O424 O 0.84492 0.54199 0.68345 0.0
H425 H 0.88824 0.63066 0.66781 0.0
H426 H 0.86724 0.57242 0.54325 0.0
H427 H 0.90715 0.56325 0.65513 0.0
H428 H 0.89517 0.60303 0.671 0.0
H429 H 0.85666 0.56755 0.61967 0.0
O430 O 0.87252 0.57118 0.84999 0.0
H431 H 0.9179 0.55509 0.81798 0.0
H432 H 0.8733 0.54881 0.9065 0.0
H433 H 0.91832 0.56816 0.5791 0.0
H434 H 0.83063 0.59261 0.72256 0.0
H435 H 0.8983 0.57277 0.52255 0.0
H436 H 0.85571 0.62549 0.69353 0.0
O437 O 0.87876 0.539 0.70556 0.0
H438 H 0.80677 0.51439 0.84528 0.0
H439 H 0.87003 0.5142 0.83942 0.0
H440 H 0.83958 0.48397 0.86225 0.0
H441 H 0.80766 0.48396 0.86552 0.0
H442 H 0.8375 0.5442 0.82208 0.0
H443 H 0.89229 0.54602 0.96722 0.0
H444 H 0.92453 0.54765 0.95301 0.0
O445 O 0.88641 0.5374 0.77491 0.0
C446 C 0.91128 0.58615 0.75327 0.0
C447 C 0.92331 0.55151 0.88434 0.0
C448 C 0.89805 0.54806 0.93457 0.0
N449 N 0.89454 0.55224 0.85868 0.0
C450 C 0.91225 0.55314 0.85062 0.0
C451 C 0.88741 0.54976 0.90004 0.0
C452 C 0.91613 0.54896 0.92657 0.0
C453 C 0.84928 0.57973 0.71291 0.0
N454 N 0.86726 0.58273 0.69898 0.0
C455 C 0.84485 0.59504 0.71122 0.0
C456 C 0.85894 0.6135 0.69502 0.0
C457 C 0.87721 0.61642 0.68069 0.0
C458 C 0.88113 0.60077 0.6829 0.0
C459 C 0.87611 0.57045 0.5676 0.0
C460 C 0.89839 0.56531 0.63073 0.0
C461 C 0.8702 0.56768 0.61093 0.0
N462 N 0.88131 0.56516 0.64188 0.0
C463 C 0.90477 0.56806 0.58773 0.0
C464 C 0.89353 0.57064 0.55601 0.0
C465 C 0.88452 0.5318 0.73551 0.0
C466 C 0.82061 0.51423 0.84416 0.0
C467 C 0.8562 0.51431 0.84051 0.0
C468 C 0.839 0.49715 0.8536 0.0
C469 C 0.8211 0.49715 0.85545 0.0
N470 N 0.85564 0.53106 0.82973 0.0
C471 C 0.8381 0.53112 0.8312 0.0
Co472 Co 0.316 0.86894 0.03769 0.0
Co473 Co 0.3336 0.87432 0.14126 0.0
O474 O 0.31301 0.86005 0.09764 0.0
C475 C 0.30558 0.82713 0.01784 0.0
O476 O 0.32205 0.83004 0.03614 0.0
C477 C 0.29473 0.86345 0.18504 0.0
O478 O 0.28891 0.86869 0.15012 0.0
O479 O 0.33358 0.89964 0.12815 0.0
O480 O 0.33088 0.89736 0.05562 0.0
H481 H 0.39711 0.93095 0.19912 0.0
H482 H 0.27571 0.84026 0.06972 0.0
O483 O 0.30096 0.8407 0.01781 0.0
H484 H 0.2719 0.89887 0.0231 0.0
H485 H 0.29304 0.86623 0.88419 0.0
H486 H 0.34909 0.89992 0.98581 0.0
H487 H 0.30316 0.89823 0.016 0.0
H488 H 0.28932 0.85583 0.96062 0.0
O489 O 0.31236 0.86629 0.18718 0.0
H490 H 0.3714 0.91272 0.14403 0.0
H491 H 0.33883 0.86597 0.23316 0.0
H492 H 0.3534 0.9109 0.90972 0.0
H493 H 0.24405 0.84015 0.07678 0.0
H494 H 0.32524 0.89401 0.85833 0.0
H495 H 0.24204 0.86965 0.05354 0.0
O496 O 0.34146 0.86888 0.03326 0.0
H497 H 0.30265 0.80103 0.16802 0.0
H498 H 0.36562 0.86408 0.15119 0.0
H499 H 0.36635 0.83318 0.16386 0.0
H500 H 0.3347 0.80136 0.17253 0.0
H501 H 0.30257 0.83223 0.15487 0.0
H502 H 0.36409 0.88375 0.28938 0.0
H503 H 0.39354 0.91645 0.27246 0.0
O504 O 0.35543 0.88184 0.09742 0.0
C505 C 0.33495 0.90725 0.09066 0.0
C506 C 0.38435 0.9167 0.2069 0.0
C507 C 0.36581 0.89023 0.25756 0.0
N508 N 0.35362 0.88831 0.18529 0.0
C509 C 0.36975 0.90631 0.17579 0.0
C510 C 0.3515 0.88027 0.22563 0.0
C511 C 0.38233 0.90857 0.24804 0.0
C512 C 0.27488 0.85306 0.05909 0.0
N513 N 0.29126 0.86921 0.04244 0.0
C514 C 0.25694 0.85295 0.06336 0.0
C515 C 0.25584 0.86952 0.05039 0.0
C516 C 0.27259 0.88593 0.03335 0.0
C517 C 0.29028 0.88551 0.02959 0.0
C518 C 0.30541 0.87373 0.90629 0.0
C519 C 0.33673 0.89257 0.96371 0.0
C520 C 0.30341 0.86789 0.9496 0.0
N521 N 0.31893 0.87736 0.97774 0.0
C522 C 0.33928 0.89882 0.92063 0.0
C523 C 0.32348 0.88932 0.8918 0.0
C524 C 0.35632 0.87643 0.05879 0.0
C525 C 0.31654 0.81481 0.16447 0.0
C526 C 0.35177 0.8503 0.15484 0.0
C527 C 0.35229 0.83285 0.16208 0.0
C528 C 0.33453 0.81501 0.16694 0.0
N529 N 0.33407 0.85002 0.15266 0.0
C530 C 0.31659 0.83255 0.15718 0.0
Co531 Co 0.4622 0.31302 0.36816 0.0
Co532 Co 0.46659 0.32865 0.47426 0.0
O533 O 0.46568 0.31009 0.42989 0.0
C534 C 0.49589 0.31152 0.32812 0.0
O535 O 0.50195 0.32964 0.31453 0.0
C536 C 0.43896 0.28766 0.50994 0.0
O537 O 0.43096 0.28168 0.47154 0.0
O538 O 0.44117 0.32653 0.45218 0.0
O539 O 0.44362 0.32294 0.38077 0.0
H540 H 0.46233 0.38719 0.52922 0.0
H541 H 0.45658 0.27457 0.39936 0.0
O542 O 0.48093 0.30304 0.3535 0.0
H543 H 0.39216 0.25906 0.33638 0.0
H544 H 0.45147 0.29168 0.21169 0.0
H545 H 0.46153 0.34431 0.31476 0.0
H546 H 0.42034 0.29333 0.33596 0.0
H547 H 0.45562 0.28794 0.2896 0.0
O548 O 0.4518 0.30588 0.5161 0.0
H549 H 0.46156 0.36397 0.47387 0.0
H550 H 0.47327 0.33213 0.56991 0.0
H551 H 0.45734 0.34861 0.23714 0.0
H552 H 0.42889 0.24002 0.39981 0.0
H553 H 0.45228 0.32218 0.185 0.0
H554 H 0.39636 0.23209 0.36832 0.0
O555 O 0.48468 0.34075 0.36966 0.0
H556 H 0.51155 0.30263 0.51878 0.0
H557 H 0.50603 0.36258 0.50005 0.0
H558 H 0.53762 0.36592 0.52521 0.0
H559 H 0.54051 0.33577 0.53494 0.0
H560 H 0.48034 0.30001 0.49307 0.0
H561 H 0.474 0.3549 0.62633 0.0
H562 H 0.46859 0.38272 0.60609 0.0
O563 O 0.48243 0.35204 0.43508 0.0
C564 C 0.43575 0.32659 0.41304 0.0
C565 C 0.46474 0.37514 0.53844 0.0
C566 C 0.47126 0.35699 0.59295 0.0
N567 N 0.4674 0.34673 0.51859 0.0
C568 C 0.46435 0.36196 0.50722 0.0
C569 C 0.47074 0.34409 0.56087 0.0
C570 C 0.46823 0.37261 0.58157 0.0
C571 C 0.44255 0.2712 0.38512 0.0
N572 N 0.44012 0.28596 0.36755 0.0
C573 C 0.42689 0.25163 0.38568 0.0
C574 C 0.40863 0.2472 0.36809 0.0
C575 C 0.40626 0.26232 0.35022 0.0
C576 C 0.42224 0.28173 0.35028 0.0
C577 C 0.45364 0.30329 0.23409 0.0
C578 C 0.45929 0.33272 0.2923 0.0
C579 C 0.45601 0.30126 0.27825 0.0
N580 N 0.45877 0.31588 0.30676 0.0
C581 C 0.45694 0.33524 0.24837 0.0
C582 C 0.4541 0.32041 0.21914 0.0
C583 C 0.48984 0.35473 0.39706 0.0
C584 C 0.51048 0.31588 0.51471 0.0
C585 C 0.50721 0.34942 0.50377 0.0
C586 C 0.52511 0.35139 0.51825 0.0
C587 C 0.52672 0.33447 0.52374 0.0
N588 N 0.49131 0.33113 0.49508 0.0
C589 C 0.49281 0.31448 0.50026 0.0
Co590 Co 0.14484 0.44764 0.70557 0.0
Co591 Co 0.14722 0.45929 0.81371 0.0
O592 O 0.1576 0.45236 0.76247 0.0
C593 C 0.18633 0.47677 0.67888 0.0
O594 O 0.18703 0.4894 0.70803 0.0
C595 C 0.16272 0.43257 0.84621 0.0
O596 O 0.16341 0.427 0.80652 0.0
O597 O 0.12023 0.43525 0.80481 0.0
O598 O 0.11808 0.43555 0.73234 0.0
H599 H 0.09724 0.47 0.89454 0.0
H600 H 0.17332 0.43326 0.71852 0.0
O601 O 0.17116 0.45952 0.67603 0.0
H602 H 0.10924 0.37345 0.68627 0.0
H603 H 0.135 0.42771 0.5484 0.0
H604 H 0.11259 0.45313 0.66927 0.0
H605 H 0.112 0.40639 0.68788 0.0
H606 H 0.15044 0.43288 0.62044 0.0
O607 O 0.15549 0.44387 0.85367 0.0
H608 H 0.11102 0.46174 0.83114 0.0
H609 H 0.16105 0.47106 0.90492 0.0
H610 H 0.09661 0.44799 0.59787 0.0
H611 H 0.17129 0.40062 0.71642 0.0
H612 H 0.10782 0.43521 0.53679 0.0
H613 H 0.13905 0.3704 0.70045 0.0
O614 O 0.14675 0.47401 0.70765 0.0
H615 H 0.22197 0.49717 0.81787 0.0
H616 H 0.16135 0.50182 0.83358 0.0
H617 H 0.19405 0.53189 0.84191 0.0
H618 H 0.22469 0.52968 0.83428 0.0
H619 H 0.18902 0.46756 0.8092 0.0
H620 H 0.14769 0.4792 0.9692 0.0
H621 H 0.11561 0.4788 0.96421 0.0
O622 O 0.13934 0.47576 0.77713 0.0
C623 C 0.11033 0.42973 0.7695 0.0
C624 C 0.11125 0.47026 0.8971 0.0
C625 C 0.13955 0.47539 0.93902 0.0
N626 N 0.13685 0.46597 0.86422 0.0
C627 C 0.11915 0.46563 0.86128 0.0
C628 C 0.147 0.47068 0.90253 0.0
C629 C 0.12156 0.47518 0.93619 0.0
C630 C 0.15927 0.4202 0.7112 0.0
N631 N 0.14278 0.42174 0.70368 0.0
C632 C 0.1582 0.40175 0.71021 0.0
C633 C 0.1401 0.3848 0.70131 0.0
C634 C 0.12336 0.38649 0.69342 0.0
C635 C 0.125 0.40519 0.69468 0.0
C636 C 0.12998 0.43328 0.57476 0.0
C637 C 0.1175 0.44748 0.64292 0.0
C638 C 0.13872 0.4363 0.6156 0.0
N639 N 0.13241 0.44326 0.64909 0.0
C640 C 0.10842 0.44464 0.60253 0.0
C641 C 0.11473 0.43748 0.56827 0.0
C642 C 0.14204 0.48197 0.73802 0.0
C643 C 0.20873 0.4983 0.82158 0.0
C644 C 0.17457 0.50069 0.83016 0.0
C645 C 0.19307 0.51779 0.83497 0.0
C646 C 0.21025 0.51654 0.8307 0.0
N647 N 0.17316 0.48278 0.82162 0.0
C648 C 0.18997 0.48151 0.817 0.0
Co649 Co 0.70458 0.15057 0.04099 0.0
Co650 Co 0.69148 0.14234 0.14985 0.0
O651 O 0.70893 0.15841 0.10212 0.0
C652 C 0.70333 0.18389 0.99841 0.0
O653 O 0.68529 0.17086 0.98591 0.0
C654 C 0.73359 0.15652 0.17986 0.0
O655 O 0.73938 0.15756 0.13962 0.0
O656 O 0.69109 0.11768 0.1281 0.0
O657 O 0.69652 0.12274 0.0564 0.0
H658 H 0.63206 0.08326 0.21462 0.0
H659 H 0.74308 0.18539 0.06588 0.0
O660 O 0.71276 0.17859 0.02394 0.0
H661 H 0.76007 0.13752 1.00296 0.0
H662 H 0.72148 0.15827 0.88187 0.0
H663 H 0.67295 0.11648 0.99295 0.0
H664 H 0.72521 0.12964 1.00719 0.0
H665 H 0.72706 0.16805 0.95875 0.0
O666 O 0.7152 0.1494 0.18851 0.0
H667 H 0.65412 0.10367 0.15549 0.0
H668 H 0.69186 0.14747 0.24589 0.0
H669 H 0.66684 0.10611 0.91643 0.0
H670 H 0.77819 0.19411 0.06134 0.0
H671 H 0.6912 0.12709 0.86028 0.0
H672 H 0.78687 0.17002 0.02997 0.0
O673 O 0.67637 0.144 0.04516 0.0
H674 H 0.72271 0.21466 0.1884 0.0
H675 H 0.66006 0.15081 0.18051 0.0
H676 H 0.65954 0.18059 0.20574 0.0
H677 H 0.69106 0.21281 0.21004 0.0
H678 H 0.72252 0.18459 0.16281 0.0
H679 H 0.6703 0.12747 0.30599 0.0
H680 H 0.64011 0.09513 0.29055 0.0
O681 O 0.66734 0.13558 0.11439 0.0
C682 C 0.69215 0.11181 0.08991 0.0
C683 C 0.64518 0.09731 0.22178 0.0
C684 C 0.66666 0.12211 0.27306 0.0
N685 N 0.67433 0.12669 0.19715 0.0
C686 C 0.65774 0.10893 0.18842 0.0
C687 C 0.67888 0.13332 0.23887 0.0
C688 C 0.64971 0.10397 0.26437 0.0
C689 C 0.74675 0.17492 0.05173 0.0
N690 N 0.73208 0.15694 0.03712 0.0
C691 C 0.76665 0.1799 0.04946 0.0
C692 C 0.7715 0.16636 0.03194 0.0
C693 C 0.75648 0.1481 0.01689 0.0
C694 C 0.73674 0.14363 0.01973 0.0
C695 C 0.71077 0.149 0.90604 0.0
C696 C 0.68366 0.12566 0.96872 0.0
C697 C 0.71384 0.15445 0.94963 0.0
N698 N 0.70036 0.14282 0.98037 0.0
C699 C 0.6801 0.11972 0.92544 0.0
C700 C 0.69377 0.1315 0.89395 0.0
C701 C 0.66344 0.13771 0.0753 0.0
C702 C 0.70889 0.20069 0.18684 0.0
C703 C 0.67382 0.16477 0.18204 0.0
C704 C 0.67344 0.18158 0.19649 0.0
C705 C 0.69113 0.19965 0.19892 0.0
N706 N 0.69132 0.16586 0.17052 0.0
C707 C 0.70869 0.18356 0.17254 0.0
C708 C 0.34717 0.40643 0.25692 0.0
C709 C 0.3404 0.41499 0.28776 0.0
C710 C 0.35528 0.39462 0.27009 0.0
C711 C 0.36065 0.36839 0.36765 0.0
H712 H 0.4056 0.37291 0.30378 0.0
C713 C 0.41502 0.34245 0.43272 0.0
C714 C 0.42089 0.33281 0.4025 0.0
C715 C 0.40344 0.35082 0.41962 0.0
C716 C 0.39297 0.37137 0.32187 0.0
H717 H 0.33655 0.41725 0.35692 0.0
H718 H 0.35095 0.39759 0.3793 0.0
H719 H 0.38861 0.39 0.27766 0.0
H720 H 0.41807 0.32365 0.33509 0.0
H721 H 0.39818 0.33802 0.31296 0.0
H722 H 0.36556 0.35019 0.41257 0.0
C723 C 0.34969 0.39943 0.34493 0.0
C724 C 0.38309 0.38109 0.30668 0.0
C725 C 0.3415 0.41098 0.33188 0.0
C726 C 0.41409 0.33102 0.3595 0.0
C727 C 0.40273 0.33943 0.34652 0.0
C728 C 0.37072 0.35887 0.38314 0.0
C729 C 0.35692 0.39118 0.31443 0.0
C730 C 0.36679 0.37983 0.32935 0.0
C731 C 0.39763 0.34985 0.37603 0.0
C732 C 0.38699 0.36021 0.36041 0.0
H733 H 0.34662 0.40917 0.22273 0.0
H734 H 0.36037 0.38831 0.24543 0.0
H735 H 0.34796 0.36666 0.38576 0.0
H736 H 0.42002 0.34424 0.46598 0.0
H737 H 0.39973 0.35876 0.4432 0.0
C738 C 0.94518 0.32636 0.61462 0.0
C739 C 0.93701 0.33783 0.60015 0.0
C740 C 0.96454 0.33544 0.63125 0.0
C741 C 1.01088 0.38492 0.64705 0.0
H742 H 0.01749 0.35895 0.74765 0.0
C743 C 0.0774 0.42671 0.76131 0.0
C744 C 0.08854 0.41736 0.76932 0.0
C745 C 0.05832 0.41609 0.74363 0.0
C746 C 0.0159 0.36635 0.71951 0.0
H747 H 0.94269 0.36777 0.59126 0.0
H748 H 0.97628 0.38369 0.6201 0.0
H749 H 0.98664 0.34242 0.70638 0.0
H750 H 0.08827 0.38947 0.76625 0.0
H751 H 0.05449 0.3706 0.73699 0.0
H752 H 0.03997 0.40908 0.66116 0.0
C753 C 0.96817 0.36768 0.61762 0.0
C754 C 0.99825 0.3568 0.69547 0.0
C755 C 0.9489 0.35857 0.60057 0.0
C756 C 0.07971 0.39686 0.76195 0.0
C757 C 0.06048 0.38614 0.74464 0.0
C758 C 0.02839 0.39454 0.67142 0.0
C759 C 0.97605 0.35626 0.63472 0.0
C760 C 0.99541 0.36597 0.65888 0.0
C761 C 0.04991 0.39584 0.73352 0.0
C762 C 0.03109 0.38545 0.70811 0.0
H763 H 0.93613 0.31034 0.61572 0.0
H764 H 0.97014 0.32607 0.64305 0.0
H765 H 1.00957 0.39238 0.61876 0.0
H766 H 0.08412 0.44262 0.76534 0.0
H767 H 0.0505 0.42396 0.7359 0.0
C768 C 0.59232 0.94254 0.96275 0.0
C769 C 0.60064 0.93438 0.93482 0.0
C770 C 0.60329 0.96214 0.97678 0.0
C771 C 0.65524 1.00279 0.99242 0.0
H772 H 0.62879 0.03223 0.02251 0.0
C773 C 0.69478 0.08562 0.04832 0.0
C774 C 0.68571 0.09062 0.08166 0.0
C775 C 0.68587 0.06626 0.03195 0.0
C776 C 0.63635 0.02411 0.01478 0.0
H777 H 0.62688 0.9407 0.89827 0.0
H778 H 0.64618 0.97556 0.92182 0.0
H779 H 0.61051 1.00073 0.98473 0.0
H780 H 0.66066 0.07882 0.12553 0.0
H781 H 0.64494 0.045 0.09668 0.0
H782 H 0.68132 0.02677 0.02158 0.0
C783 C 0.63112 0.96653 0.93346 0.0
C784 C 0.62587 1.00599 0.99298 0.0
C785 C 0.62001 0.94668 0.91932 0.0
C786 C 0.66813 0.07548 0.10015 0.0
C787 C 0.65901 0.05615 0.08323 0.0
C788 C 0.66584 0.02115 0.01371 0.0
C789 C 0.62301 0.97441 0.96318 0.0
C790 C 0.63501 0.99482 0.98212 0.0
C791 C 0.66747 0.05148 0.04802 0.0
C792 C 0.65641 0.03186 0.02577 0.0
H793 H 0.57744 0.9334 0.97541 0.0
H794 H 0.59648 0.9673 1.00009 0.0
H795 H 0.66279 0.99462 0.98519 0.0
H796 H 0.70833 0.09691 0.03338 0.0
H797 H 0.6928 0.06319 1.00489 0.0
C798 C 0.65936 0.59088 0.2836 0.0
C799 C 0.67729 0.59938 0.26035 0.0
C800 C 0.6517 0.60254 0.29907 0.0
C801 C 0.6519 0.64949 0.29082 0.0
H802 H 0.64013 0.64183 0.4137 0.0
C803 C 0.62349 0.6957 0.38013 0.0
C804 C 0.60849 0.68592 0.41127 0.0
C805 C 0.63422 0.68703 0.36404 0.0
C806 C 0.64306 0.64406 0.37931 0.0
H807 H 0.70086 0.62669 0.2334 0.0
H808 H 0.68697 0.64725 0.25928 0.0
H809 H 0.6529 0.62279 0.37706 0.0
H810 H 0.59364 0.65968 0.4513 0.0
H811 H 0.61189 0.64425 0.42281 0.0
H812 H 0.64129 0.67009 0.29234 0.0
C813 C 0.67892 0.63145 0.26552 0.0
C814 C 0.65049 0.63317 0.35831 0.0
C815 C 0.68675 0.61969 0.25025 0.0
C816 C 0.6053 0.66777 0.42787 0.0
C817 C 0.6158 0.65888 0.41123 0.0
C818 C 0.64415 0.66019 0.31167 0.0
C819 C 0.66173 0.62308 0.29161 0.0
C820 C 0.65481 0.63559 0.31375 0.0
C821 C 0.63001 0.66809 0.37799 0.0
C822 C 0.63944 0.65754 0.35626 0.0
H823 H 0.6519 0.5753 0.2923 0.0
H824 H 0.63828 0.5956 0.31841 0.0
H825 H 0.65499 0.65161 0.25643 0.0
H826 H 0.62637 0.70975 0.36679 0.0
H827 H 0.64543 0.69498 0.33963 0.0
C828 C 0.94725 0.59648 0.76059 0.0
C829 C 0.93261 0.60065 0.74617 0.0
C830 C 0.96657 0.60678 0.74351 0.0
C831 C 0.99369 0.63686 0.64577 0.0
H832 H 0.03963 0.64275 0.70762 0.0
C833 C 0.07635 0.67964 0.58277 0.0
C834 C 0.08718 0.66991 0.59016 0.0
C835 C 0.05686 0.67157 0.59876 0.0
C836 C 0.0269 0.64112 0.68982 0.0
H837 H 0.92715 0.61991 0.70508 0.0
H838 H 0.96089 0.63862 0.67723 0.0
H839 H 1.00806 0.62986 0.74536 0.0
H840 H 0.08606 0.64397 0.61861 0.0
H841 H 0.05223 0.62986 0.64596 0.0
H842 H 0.01294 0.64864 0.59046 0.0
C843 C 0.95743 0.62684 0.70024 0.0
C844 C 1.0087 0.63363 0.71145 0.0
C845 C 0.93809 0.61631 0.71674 0.0
C846 C 0.07788 0.65156 0.61173 0.0
C847 C 0.05862 0.64365 0.62798 0.0
C848 C 1.01201 0.64467 0.62432 0.0
C849 C 0.97182 0.62174 0.71198 0.0
C850 C 0.99168 0.63109 0.68969 0.0
C851 C 0.04811 0.65385 0.62305 0.0
C852 C 0.02876 0.64658 0.64591 0.0
H853 H 0.94344 0.58425 0.78252 0.0
H854 H 0.97699 0.60215 0.75331 0.0
H855 H 0.98098 0.63485 0.62735 0.0
H856 H 0.08341 0.6941 0.56745 0.0
H857 H 0.04913 0.6798 0.59455 0.0
C858 C 0.33252 0.93747 0.07566 0.0
C859 C 0.34425 0.92891 0.08513 0.0
C860 C 0.34107 0.95657 0.05762 0.0
C861 C 0.39028 1.0016 0.03059 0.0
H862 H 0.35931 0.01011 0.94375 0.0
C863 C 0.4268 0.069 0.9164 0.0
C864 C 0.41771 0.08069 0.91591 0.0
C865 C 0.41679 0.0497 0.93331 0.0
C866 C 0.36813 0.00796 0.96797 0.0
H867 H 0.37397 0.93336 0.08231 0.0
H868 H 0.38893 0.96637 0.05102 0.0
H869 H 0.34429 0.97912 0.98467 0.0
H870 H 0.39076 0.08109 0.93108 0.0
H871 H 0.37291 0.04709 0.95894 0.0
H872 H 0.41425 0.03028 0.01295 0.0
C873 C 0.37327 0.95891 0.05882 0.0
C874 C 0.35947 0.99024 0.99186 0.0
C875 C 0.36473 0.93995 0.07721 0.0
C876 C 0.39791 0.0722 0.92987 0.0
C877 C 0.38777 0.05279 0.94623 0.0
C878 C 0.39899 0.01915 1.0063 0.0
C879 C 0.36152 0.96737 0.04768 0.0
C880 C 0.37042 0.98673 0.02355 0.0
C881 C 0.39741 0.04162 0.94991 0.0
C882 C 0.38807 0.02255 0.97457 0.0
H883 H 0.31657 0.92899 0.08014 0.0
H884 H 0.33151 0.96258 0.05028 0.0
H885 H 0.39917 0.99982 0.05518 0.0
H886 H 0.44226 0.07535 0.90739 0.0
H887 H 0.42457 0.04143 0.93533 0.0
C888 C 0.17025 0.43108 0.92524 0.0
C889 C 0.17347 0.42865 0.88143 0.0
C890 C 0.18164 0.42903 0.95797 0.0
C891 C 0.21919 0.41226 0.97752 0.0
H892 H 0.22968 0.44362 0.08186 0.0
C893 C 0.28301 0.42915 0.10031 0.0
C894 C 0.27776 0.42629 0.14443 0.0
C895 C 0.2693 0.42754 0.06869 0.0
C896 C 0.22678 0.43466 0.05303 0.0
H897 H 0.19139 0.42222 0.83789 0.0
H898 H 0.21172 0.41957 0.89405 0.0
H899 H 0.20803 0.44476 0.02648 0.0
H900 H 0.25381 0.41939 0.18964 0.0
H901 H 0.23013 0.4171 0.13457 0.0
H902 H 0.23893 0.40307 1.00374 0.0
C903 C 0.19994 0.4223 0.90386 0.0
C904 C 0.21418 0.43516 0.02115 0.0
C905 C 0.18826 0.42393 0.87129 0.0
C906 C 0.25834 0.4215 0.15599 0.0
C907 C 0.2448 0.42034 0.12447 0.0
C908 C 0.23215 0.41213 1.00903 0.0
C909 C 0.19697 0.42494 0.94788 0.0
C910 C 0.21011 0.42398 0.98269 0.0
C911 C 0.25015 0.4235 0.08047 0.0
C912 C 0.23608 0.4233 0.0472 0.0
H913 H 0.15895 0.43468 0.9343 0.0
H914 H 0.17837 0.43072 0.99122 0.0
H915 H 0.21626 0.40302 0.94923 0.0
H916 H 0.29785 0.43296 0.09025 0.0
H917 H 0.27392 0.43014 0.03511 0.0
C918 C 0.85571 0.2739 0.4408 0.0
C919 C 0.85306 0.26771 0.48434 0.0
C920 C 0.84402 0.26079 0.40788 0.0
C921 C 0.7949 0.21779 0.38905 0.0
H922 H 0.81693 0.21047 0.28275 0.0
C923 C 0.74323 0.16255 0.25863 0.0
C924 C 0.74853 0.16679 0.2148 0.0
C925 C 0.75665 0.17365 0.29157 0.0
C926 C 0.81037 0.2125 0.3118 0.0
H927 H 0.83603 0.24271 0.52703 0.0
H928 H 0.8154 0.22009 0.46978 0.0
H929 H 0.83905 0.23245 0.33887 0.0
H930 H 0.77228 0.18613 0.1714 0.0
H931 H 0.79528 0.20596 0.22823 0.0
H932 H 0.76627 0.1988 0.36186 0.0
C933 C 0.82667 0.23503 0.46114 0.0
C934 C 0.82317 0.22507 0.34418 0.0
C935 C 0.83862 0.24799 0.49392 0.0
C936 C 0.76775 0.18224 0.2048 0.0
C937 C 0.78104 0.19363 0.2377 0.0
C938 C 0.78208 0.20557 0.3564 0.0
C939 C 0.82909 0.24131 0.41775 0.0
C940 C 0.81559 0.22782 0.38327 0.0
C941 C 0.77568 0.18971 0.28178 0.0
C942 C 0.78955 0.20261 0.31712 0.0
H943 H 0.86663 0.28898 0.43221 0.0
H944 H 0.84621 0.26612 0.37483 0.0
H945 H 0.78856 0.21979 0.41855 0.0
H946 H 0.72858 0.15071 0.26755 0.0
H947 H 0.75195 0.16962 0.32479 0.0
C948 C 0.6005 0.8395 0.81684 0.0
C949 C 0.595 0.85375 0.80683 0.0
C950 C 0.60158 0.82742 0.78445 0.0
C951 C 0.60815 0.82325 0.66796 0.0
H952 H 0.57768 0.76649 0.68688 0.0
C953 C 0.59686 0.7673 0.53057 0.0
C954 C 0.59305 0.74814 0.54122 0.0
C955 C 0.59841 0.78069 0.56294 0.0
C956 C 0.58668 0.78226 0.68107 0.0
H957 H 0.58696 0.86681 0.75427 0.0
H958 H 0.58959 0.8462 0.69748 0.0
H959 H 0.57865 0.78902 0.74263 0.0
H960 H 0.58867 0.72837 0.59465 0.0
H961 H 0.59255 0.7519 0.65104 0.0
H962 H 0.61686 0.81675 0.60721 0.0
C963 C 0.59283 0.84426 0.73062 0.0
C964 C 0.58708 0.79521 0.71318 0.0
C965 C 0.59132 0.85607 0.76319 0.0
C966 C 0.59154 0.74298 0.58522 0.0
C967 C 0.59352 0.7565 0.61767 0.0
C968 C 0.60813 0.81031 0.63615 0.0
C969 C 0.5976 0.82952 0.74097 0.0
C970 C 0.59769 0.81586 0.70695 0.0
C971 C 0.59658 0.7755 0.60718 0.0
C972 C 0.59726 0.78952 0.64191 0.0
H973 H 0.60329 0.83713 0.85004 0.0
H974 H 0.60542 0.8163 0.79346 0.0
H975 H 0.61662 0.83909 0.66231 0.0
H976 H 0.59784 0.77173 0.49701 0.0
H977 H 0.60039 0.79488 0.55288 0.0
C978 C 0.77147 0.59437 0.15052 0.0
C979 C 0.75198 0.58993 0.14117 0.0
C980 C 0.78438 0.59548 0.11747 0.0
C981 C 0.78441 0.58137 1.00058 0.0
H982 H 0.84147 0.61273 0.01529 0.0
C983 C 0.84069 0.5923 0.8638 0.0
C984 C 0.85531 0.58751 0.87531 0.0
C985 C 0.82868 0.59404 0.8955 0.0
C986 C 0.82556 0.60387 0.01075 0.0
H987 H 0.73108 0.58388 0.08912 0.0
H988 H 0.75379 0.58694 0.03132 0.0
H989 H 0.8196 0.61384 0.07039 0.0
H990 H 0.86909 0.5814 0.92956 0.0
H991 H 0.84864 0.58519 0.98494 0.0
H992 H 0.79065 0.57202 0.94001 0.0
C993 C 0.75903 0.58881 0.06436 0.0
C994 C 0.8129 0.60435 0.0426 0.0
C995 C 0.74597 0.58729 0.09759 0.0
C996 C 0.85806 0.58519 0.91951 0.0
C997 C 0.84634 0.58737 0.95128 0.0
C998 C 0.79709 0.58125 0.96834 0.0
C999 C 0.7784 0.59258 0.07371 0.0
C1000 C 0.79204 0.59291 0.03843 0.0
C1001 C 0.83125 0.59145 0.93962 0.0
C1002 C 0.81783 0.59233 0.9732 0.0
H1003 H 0.77659 0.59623 0.18371 0.0
H1004 H 0.79888 0.598 0.12672 0.0
H1005 H 0.76858 0.57197 0.99603 0.0
H1006 H 0.83799 0.59401 0.8301 0.0
H1007 H 0.81727 0.5973 0.88547 0.0
C1008 C 0.17407 0.76055 0.47048 0.0
C1009 C 0.16809 0.74029 0.46633 0.0
C1010 C 0.18684 0.77448 0.43984 0.0
C1011 C 0.22473 0.78143 0.35754 0.0
H1012 H 0.21946 0.82598 0.31903 0.0
C1013 C 0.2861 0.8446 0.25548 0.0
C1014 C 0.2802 0.85178 0.21998 0.0
C1015 C 0.27222 0.83197 0.28613 0.0
C1016 C 0.22111 0.81358 0.32926 0.0
H1017 H 0.17055 0.71892 0.42546 0.0
H1018 H 0.19248 0.743 0.3724 0.0
H1019 H 0.19517 0.80185 0.3697 0.0
H1020 H 0.25489 0.85153 0.1899 0.0
H1021 H 0.23069 0.82954 0.24348 0.0
H1022 H 0.25046 0.7929 0.31697 0.0
C1023 C 0.18758 0.74824 0.39963 0.0
C1024 C 0.20726 0.79982 0.3587 0.0
C1025 C 0.17481 0.73434 0.43004 0.0
C1026 C 0.26005 0.84641 0.21683 0.0
C1027 C 0.24614 0.83379 0.24769 0.0
C1028 C 0.2386 0.79521 0.32844 0.0
C1029 C 0.19407 0.76857 0.40435 0.0
C1030 C 0.20882 0.78347 0.37315 0.0
C1031 C 0.25197 0.8261 0.28241 0.0
C1032 C 0.23704 0.81151 0.31379 0.0
H1033 H 0.16931 0.76575 0.498 0.0
H1034 H 0.19157 0.79 0.44481 0.0
H1035 H 0.22664 0.76923 0.36822 0.0
H1036 H 0.30144 0.84837 0.25922 0.0
H1037 H 0.27741 0.8267 0.31274 0.0
C1038 C 0.44729 0.17051 0.76358 0.0
C1039 C 0.43339 0.16262 0.79758 0.0
C1040 C 0.4463 0.18312 0.73258 0.0
C1041 C 0.41343 0.19971 0.68335 0.0
H1042 H 0.46333 0.24614 0.65207 0.0
C1043 C 0.42248 0.25248 0.53883 0.0
C1044 C 0.43535 0.27296 0.54501 0.0
C1045 C 0.42077 0.23867 0.57041 0.0
C1046 C 0.44922 0.23334 0.66055 0.0
H1047 H 0.40712 0.16157 0.82449 0.0
H1048 H 0.40528 0.18349 0.76999 0.0
H1049 H 0.46299 0.22274 0.7048 0.0
H1050 H 0.4561 0.29483 0.59027 0.0
H1051 H 0.45308 0.27093 0.64481 0.0
H1052 H 0.3997 0.21048 0.6389 0.0
C1053 C 0.41699 0.17984 0.76745 0.0
C1054 C 0.44905 0.21975 0.69054 0.0
C1055 C 0.41807 0.16728 0.7988 0.0
C1056 C 0.44604 0.27923 0.58412 0.0
C1057 C 0.44443 0.26547 0.61541 0.0
C1058 C 0.41362 0.21326 0.6529 0.0
C1059 C 0.43131 0.18822 0.7343 0.0
C1060 C 0.43118 0.20271 0.70242 0.0
C1061 C 0.43202 0.24496 0.60882 0.0
C1062 C 0.43154 0.23032 0.64116 0.0
H1063 H 0.45931 0.16732 0.76126 0.0
H1064 H 0.4574 0.18897 0.70721 0.0
H1065 H 0.3994 0.18672 0.69147 0.0
H1066 H 0.41407 0.24704 0.50913 0.0
H1067 H 0.41114 0.22301 0.56402 0.0
C1068 C 0.19931 0.46972 0.6114 0.0
C1069 C 0.20189 0.48294 0.64516 0.0
C1070 C 0.21261 0.47568 0.57696 0.0
C1071 C 0.2631 0.50793 0.54478 0.0
H1072 H 0.24113 0.49555 0.42875 0.0
C1073 C 0.31204 0.51285 0.40091 0.0
C1074 C 0.30351 0.49597 0.37419 0.0
C1075 C 0.30024 0.51653 0.42933 0.0
C1076 C 0.24754 0.4991 0.46087 0.0
H1077 H 0.22103 0.51267 0.66983 0.0
H1078 H 0.24486 0.52292 0.60958 0.0
H1079 H 0.21965 0.49161 0.49003 0.0
H1080 H 0.27568 0.47056 0.35398 0.0
H1081 H 0.25526 0.47667 0.40382 0.0
H1082 H 0.29068 0.51413 0.51633 0.0
C1083 C 0.23218 0.50803 0.6099 0.0
C1084 C 0.23525 0.49694 0.49589 0.0
C1085 C 0.2186 0.50214 0.64433 0.0
C1086 C 0.28277 0.48372 0.37404 0.0
C1087 C 0.27101 0.4873 0.40268 0.0
C1088 C 0.27538 0.50987 0.50978 0.0
C1089 C 0.22902 0.49492 0.57554 0.0
C1090 C 0.24279 0.50073 0.53827 0.0
C1091 C 0.27967 0.50334 0.43183 0.0
C1092 C 0.26759 0.50484 0.46753 0.0
H1093 H 0.18676 0.45477 0.61095 0.0
H1094 H 0.21007 0.46514 0.55136 0.0
H1095 H 0.26923 0.51084 0.5772 0.0
H1096 H 0.32797 0.52271 0.40147 0.0
H1097 H 0.30736 0.52929 0.45056 0.0
C1098 C 0.82599 0.28898 0.75768 0.0
C1099 C 0.82248 0.29428 0.7165 0.0
C1100 C 0.81115 0.28143 0.78903 0.0
C1101 C 0.75808 0.25301 0.8032 0.0
H1102 H 0.77133 0.26967 0.92279 0.0
C1103 C 0.70514 0.20738 0.94074 0.0
C1104 C 0.71446 0.20273 0.97407 0.0
C1105 C 0.71638 0.22267 0.91151 0.0
C1106 C 0.76735 0.26485 0.88959 0.0
H1107 H 0.80056 0.29583 0.67598 0.0
H1108 H 0.77415 0.28195 0.73107 0.0
H1109 H 0.79473 0.28869 0.86537 0.0
H1110 H 0.74277 0.21158 1.0048 0.0
H1111 H 0.76229 0.23799 0.95386 0.0
H1112 H 0.73125 0.22852 0.82743 0.0
C1113 C 0.78861 0.28394 0.73883 0.0
C1114 C 0.78072 0.27578 0.85672 0.0
C1115 C 0.80368 0.29186 0.70741 0.0
C1116 C 0.73508 0.21471 0.97952 0.0
C1117 C 0.7463 0.22996 0.95028 0.0
C1118 C 0.74474 0.24198 0.83614 0.0
C1119 C 0.7923 0.27876 0.78003 0.0
C1120 C 0.77652 0.26957 0.81337 0.0
C1121 C 0.73717 0.23367 0.91501 0.0
C1122 C 0.74953 0.24739 0.87987 0.0
H1123 H 0.84031 0.29076 0.76602 0.0
H1124 H 0.81434 0.27726 0.82018 0.0
H1125 H 0.75453 0.24781 0.77011 0.0
H1126 H 0.68926 0.19855 0.93579 0.0
H1127 H 0.70884 0.22538 0.8852 0.0
C1128 C 0.54864 0.81798 0.06979 0.0
C1129 C 0.53732 0.81525 0.03225 0.0
C1130 C 0.54197 0.80349 0.10178 0.0
C1131 C 0.51452 0.75181 0.12362 0.0
H1132 H 0.51462 0.76885 0.24176 0.0
C1133 C 0.51008 0.70263 0.26649 0.0
C1134 C 0.5248 0.71277 0.29798 0.0
C1135 C 0.50536 0.71312 0.23658 0.0
C1136 C 0.51448 0.76381 0.20901 0.0
H1137 H 0.51037 0.79467 0.99829 0.0
H1138 H 0.499 0.76874 0.05431 0.0
H1139 H 0.51867 0.79093 0.18172 0.0
H1140 H 0.54498 0.74177 0.32484 0.0
H1141 H 0.53706 0.76 0.27261 0.0
H1142 H 0.51185 0.72531 0.1507 0.0
C1143 C 0.51288 0.78246 0.05882 0.0
C1144 C 0.51667 0.7764 0.17469 0.0
C1145 C 0.51941 0.79724 0.02684 0.0
C1146 C 0.53357 0.73348 0.30103 0.0
C1147 C 0.52893 0.74395 0.27104 0.0
C1148 C 0.51257 0.73926 0.15801 0.0
C1149 C 0.52396 0.78572 0.09691 0.0
C1150 C 0.5174 0.77078 0.13184 0.0
C1151 C 0.51529 0.73396 0.23747 0.0
C1152 C 0.51327 0.74543 0.20121 0.0
H1153 H 0.56255 0.83154 0.07516 0.0
H1154 H 0.55097 0.80618 0.13049 0.0
H1155 H 0.51518 0.74723 0.09081 0.0
H1156 H 0.50289 0.68665 0.26351 0.0
H1157 H 0.49448 0.70494 0.21172 0.0
C1158 C 0.73594 0.54533 0.41181 0.0
C1159 C 0.72927 0.53518 0.37224 0.0
C1160 C 0.7439 0.53866 0.44355 0.0
C1161 C 0.77083 0.51279 0.46095 0.0
H1162 H 0.75481 0.5118 0.58035 0.0
C1163 C 0.81582 0.5057 0.60019 0.0
C1164 C 0.82083 0.52004 0.63284 0.0
C1165 C 0.80064 0.50179 0.57076 0.0
C1166 C 0.75946 0.51199 0.54722 0.0
H1167 H 0.72604 0.51016 0.33479 0.0
H1168 H 0.74067 0.49875 0.39048 0.0
H1169 H 0.73613 0.51614 0.52214 0.0
H1170 H 0.81279 0.54041 0.6621 0.0
H1171 H 0.78662 0.53382 0.61075 0.0
H1172 H 0.79488 0.50988 0.48594 0.0
C1173 C 0.73938 0.51176 0.39671 0.0
C1174 C 0.74872 0.51439 0.51392 0.0
C1175 C 0.73105 0.51829 0.36494 0.0
C1176 C 0.80935 0.52928 0.63738 0.0
C1177 C 0.79424 0.52542 0.6079 0.0
C1178 C 0.78171 0.51056 0.49433 0.0
C1179 C 0.74564 0.52179 0.43651 0.0
C1180 C 0.75469 0.51547 0.47059 0.0
C1181 C 0.79014 0.51214 0.57333 0.0
C1182 C 0.77654 0.5108 0.53796 0.0
H1183 H 0.7348 0.55835 0.41875 0.0
H1184 H 0.74894 0.5469 0.47358 0.0
H1185 H 0.77582 0.5137 0.42784 0.0
H1186 H 0.82426 0.49818 0.59599 0.0
H1187 H 0.79761 0.49119 0.54504 0.0
C1188 C 0.21742 0.71823 0.71294 0.0
C1189 C 0.20292 0.7236 0.70473 0.0
C1190 C 0.2302 0.72623 0.74859 0.0
C1191 C 0.23014 0.74416 0.85643 0.0
H1192 H 0.28745 0.7768 0.85127 0.0
C1193 C 0.27402 0.80441 0.97998 0.0
C1194 C 0.2934 0.80925 0.99142 0.0
C1195 C 0.26342 0.78976 0.94929 0.0
C1196 C 0.27151 0.7673 0.85351 0.0
H1197 H 0.19145 0.74262 0.72586 0.0
H1198 H 0.21335 0.75611 0.78778 0.0
H1199 H 0.26885 0.7596 0.78601 0.0
H1200 H 0.31655 0.80187 0.9812 0.0
H1201 H 0.29787 0.77605 0.92717 0.0
H1202 H 0.23251 0.75212 0.92326 0.0
C1203 C 0.21471 0.7456 0.76705 0.0
C1204 C 0.26091 0.75754 0.81613 0.0
C1205 C 0.2022 0.73789 0.73142 0.0
C1206 C 0.30159 0.79838 0.97314 0.0
C1207 C 0.29099 0.78375 0.94196 0.0
C1208 C 0.24068 0.75371 0.89371 0.0
C1209 C 0.22844 0.73948 0.77663 0.0
C1210 C 0.24009 0.74657 0.81702 0.0
C1211 C 0.27193 0.77958 0.92909 0.0
C1212 C 0.2614 0.76607 0.89228 0.0
H1213 H 0.21837 0.7073 0.69296 0.0
H1214 H 0.24083 0.72144 0.75532 0.0
H1215 H 0.21409 0.73553 0.85795 0.0
H1216 H 0.26729 0.8125 0.99352 0.0
H1217 H 0.24891 0.78716 0.9398 0.0
C1218 C 0.50308 0.21165 0.03466 0.0
C1219 C 0.485 0.19376 0.03928 0.0
C1220 C 0.50987 0.22595 0.0677 0.0
C1221 C 0.50477 0.23123 0.18465 0.0
H1222 H 0.51481 0.28419 0.15907 0.0
C1223 C 0.49195 0.27857 0.30803 0.0
C1224 C 0.50268 0.29935 0.30478 0.0
C1225 C 0.49535 0.26687 0.27881 0.0
C1226 C 0.51258 0.26965 0.16688 0.0
H1227 H 0.46002 0.17687 0.08242 0.0
H1228 H 0.4719 0.20148 0.13948 0.0
H1229 H 0.51053 0.26165 0.09984 0.0
H1230 H 0.52671 0.32416 0.27088 0.0
H1231 H 0.53292 0.30373 0.22053 0.0
H1232 H 0.50628 0.23892 0.25158 0.0
C1233 C 0.48085 0.20451 0.11055 0.0
C1234 C 0.51008 0.25674 0.13284 0.0
C1235 C 0.47396 0.19048 0.07752 0.0
C1236 C 0.51803 0.30817 0.27401 0.0
C1237 C 0.52149 0.29647 0.24489 0.0
C1238 C 0.50744 0.24416 0.21865 0.0
C1239 C 0.49887 0.22234 0.10615 0.0
C1240 C 0.50542 0.23719 0.14146 0.0
C1241 C 0.50967 0.27569 0.24586 0.0
C1242 C 0.51063 0.26329 0.21022 0.0
H1243 H 0.51192 0.2146 1.00559 0.0
H1244 H 0.52378 0.23967 0.06351 0.0
H1245 H 0.50147 0.21628 0.19213 0.0
H1246 H 0.48 0.27126 0.33127 0.0
H1247 H 0.48582 0.25093 0.28041 0.0
C1248 C 0.38457 0.50667 0.34116 0.0
C1249 C 0.38047 0.49992 0.29812 0.0
C1250 C 0.40283 0.52302 0.35237 0.0
C1251 C 0.45446 0.55668 0.31222 0.0
H1252 H 0.45312 0.59195 0.39917 0.0
C1253 C 0.5188 0.63718 0.34492 0.0
C1254 C 0.52329 0.6429 0.38857 0.0
C1255 C 0.5025 0.61875 0.33395 0.0
C1256 C 0.45378 0.58215 0.37515 0.0
H1257 H 0.3929 0.50473 0.23345 0.0
H1258 H 0.42445 0.53377 0.25256 0.0
H1259 H 0.42262 0.562 0.37952 0.0
H1260 H 0.51456 0.63314 0.45485 0.0
H1261 H 0.486 0.60126 0.4356 0.0
H1262 H 0.48569 0.5775 0.30704 0.0
C1263 C 0.41364 0.52621 0.27792 0.0
C1264 C 0.43628 0.56487 0.36394 0.0
C1265 C 0.39542 0.5096 0.26681 0.0
C1266 C 0.51149 0.62941 0.42093 0.0
C1267 C 0.49506 0.61113 0.40993 0.0
C1268 C 0.47197 0.57416 0.32307 0.0
C1269 C 0.41749 0.53335 0.32078 0.0
C1270 C 0.43634 0.55179 0.33248 0.0
C1271 C 0.4902 0.60573 0.36634 0.0
C1272 C 0.47181 0.58702 0.35483 0.0
H1273 H 0.37358 0.4994 0.36639 0.0
H1274 H 0.40537 0.52761 0.38594 0.0
H1275 H 0.45522 0.54692 0.28829 0.0
H1276 H 0.52765 0.64707 0.3191 0.0
H1277 H 0.4991 0.61501 0.30007 0.0
C1278 C 0.89042 0.50396 0.757 0.0
C1279 C 0.8882 0.5153 0.72434 0.0
C1280 C 0.89199 0.48729 0.74658 0.0
C1281 C 0.88077 0.45113 0.65723 0.0
H1282 H 0.9117 0.43491 0.72679 0.0
C1283 C 0.89112 0.38513 0.60934 0.0
C1284 C 0.88789 0.3713 0.64218 0.0
C1285 C 0.89255 0.40334 0.61924 0.0
C1286 C 0.90291 0.43921 0.70723 0.0
H1287 H 0.88713 0.51856 0.65479 0.0
H1288 H 0.89046 0.48995 0.63663 0.0
H1289 H 0.9123 0.46588 0.7435 0.0
H1290 H 0.88439 0.36624 0.71154 0.0
H1291 H 0.8871 0.39815 0.72873 0.0
H1292 H 0.87158 0.42454 0.62071 0.0
C1293 C 0.89027 0.49348 0.67046 0.0
C1294 C 0.90319 0.45695 0.71685 0.0
C1295 C 0.88849 0.51003 0.68089 0.0
C1296 C 0.88678 0.37645 0.68536 0.0
C1297 C 0.88842 0.39478 0.69528 0.0
C1298 C 0.88066 0.43353 0.64738 0.0
C1299 C 0.89165 0.48163 0.70317 0.0
C1300 C 0.89203 0.46312 0.69212 0.0
C1301 C 0.89105 0.40831 0.66225 0.0
C1302 C 0.89164 0.42731 0.67237 0.0
H1303 H 0.89041 0.5076 0.79081 0.0
H1304 H 0.89284 0.47851 0.77276 0.0
H1305 H 0.87163 0.45508 0.63797 0.0
H1306 H 0.8923 0.38185 0.57577 0.0
H1307 H 0.89486 0.41356 0.59313 0.0
C1308 C 0.51412 0.89076 0.93672 0.0
C1309 C 0.51913 0.87865 0.96122 0.0
C1310 C 0.49675 0.89134 0.94572 0.0
C1311 C 0.44713 0.8619 0.99245 0.0
H1312 H 0.44837 0.91204 1.00672 0.0
C1313 C 0.37582 0.86739 1.0081 0.0
C1314 C 0.37537 0.87844 0.0437 0.0
C1315 C 0.39351 0.86807 0.996 0.0
C1316 C 0.44782 0.89795 1.00276 0.0
H1317 H 0.50967 0.85754 0.01416 0.0
H1318 H 0.47923 0.85831 0.02921 0.0
H1319 H 0.47907 0.91182 0.98975 0.0
H1320 H 0.39335 0.89937 0.09359 0.0
H1321 H 0.42428 0.90085 0.07178 0.0
H1322 H 0.41591 0.84802 1.00525 0.0
C1323 C 0.48882 0.86742 1.00324 0.0
C1324 C 0.46533 0.89782 0.99281 0.0
C1325 C 0.50632 0.86708 0.99476 0.0
C1326 C 0.39315 0.89065 0.06606 0.0
C1327 C 0.41089 0.89157 0.05349 0.0
C1328 C 0.42958 0.86204 1.00165 0.0
C1329 C 0.48385 0.87956 0.97886 0.0
C1330 C 0.4652 0.87979 0.98796 0.0
C1331 C 0.4112 0.88007 0.01874 0.0
C1332 C 0.42976 0.88005 1.00725 0.0
H1333 H 0.52365 0.89987 0.91068 0.0
H1334 H 0.49323 0.90075 0.92626 0.0
H1335 H 0.44657 0.84779 0.9886 0.0
H1336 H 0.3624 0.85778 0.99024 0.0
H1337 H 0.39334 0.85916 0.96888 0.0
C1338 C 0.63547 0.50729 0.26596 0.0
C1339 C 0.64909 0.5187 0.29845 0.0
C1340 C 0.61743 0.49039 0.27656 0.0
C1341 C 0.59241 0.45458 0.36729 0.0
H1342 H 0.54546 0.43781 0.29667 0.0
C1343 C 0.5154 0.3898 0.41636 0.0
C1344 C 0.50599 0.3749 0.38483 0.0
C1345 C 0.53197 0.40806 0.40572 0.0
C1346 C 0.55849 0.44232 0.31659 0.0
H1347 H 0.65384 0.52169 0.3679 0.0
H1348 H 0.62219 0.49291 0.38643 0.0
H1349 H 0.57595 0.4685 0.27904 0.0
H1350 H 0.50595 0.36819 0.31657 0.0
H1351 H 0.53461 0.40025 0.29799 0.0
H1352 H 0.57467 0.42857 0.40537 0.0
C1353 C 0.62571 0.49645 0.35254 0.0
C1354 C 0.57604 0.45986 0.30639 0.0
C1355 C 0.64388 0.51313 0.3419 0.0
C1356 C 0.51294 0.37918 0.34186 0.0
C1357 C 0.52931 0.39759 0.3311 0.0
C1358 C 0.57478 0.43726 0.37787 0.0
C1359 C 0.61231 0.48463 0.32003 0.0
C1360 C 0.59333 0.4662 0.33144 0.0
C1361 C 0.53925 0.41205 0.36311 0.0
C1362 C 0.55768 0.43088 0.35251 0.0
H1363 H 0.63885 0.51118 0.23216 0.0
H1364 H 0.60773 0.48163 0.25045 0.0
H1365 H 0.60541 0.45859 0.38687 0.0
H1366 H 0.51032 0.38725 0.44958 0.0
H1367 H 0.5392 0.41906 0.43092 0.0
C1368 C 0.13477 0.62705 0.60617 0.0
C1369 C 0.13899 0.64209 0.63662 0.0
C1370 C 0.13377 0.6093 0.61863 0.0
C1371 C 0.14873 0.58712 0.70777 0.0
H1372 H 0.11378 0.53807 0.64765 0.0
C1373 C 0.13774 0.51071 0.76062 0.0
C1374 C 0.13975 0.49939 0.72752 0.0
C1375 C 0.13661 0.52767 0.75076 0.0
C1376 C 0.12367 0.55168 0.6646 0.0
H1377 H 0.14464 0.64977 0.70466 0.0
H1378 H 0.14215 0.61856 0.72669 0.0
H1379 H 0.11317 0.56822 0.62927 0.0
H1380 H 0.14142 0.49679 0.65785 0.0
H1381 H 0.13904 0.52615 0.64079 0.0
H1382 H 0.15886 0.57029 0.74368 0.0
C1383 C 0.1403 0.62073 0.69277 0.0
C1384 C 0.12342 0.56904 0.65395 0.0
C1385 C 0.14158 0.63863 0.68018 0.0
C1386 C 0.14 0.50517 0.68424 0.0
C1387 C 0.13854 0.52195 0.67439 0.0
C1388 C 0.14875 0.56968 0.71883 0.0
C1389 C 0.1366 0.60587 0.66209 0.0
C1390 C 0.13612 0.58709 0.67501 0.0
C1391 C 0.13706 0.53352 0.70755 0.0
C1392 C 0.13638 0.55182 0.69706 0.0
H1393 H 0.13253 0.62904 0.57237 0.0
H1394 H 0.1312 0.59845 0.59381 0.0
H1395 H 0.15899 0.6007 0.72426 0.0
H1396 H 0.13726 0.50664 0.79427 0.0
H1397 H 0.13525 0.53618 0.77696 0.0
C1398 C 0.62942 0.13061 0.09805 0.0
C1399 C 0.64303 0.13353 0.06483 0.0
C1400 C 0.6108 0.12831 0.0884 0.0
C1401 C 0.57371 0.11466 1.0018 0.0
H1402 H 0.55796 0.1479 0.06395 0.0
C1403 C 0.50976 0.12589 0.94216 0.0
C1404 C 0.49814 0.12914 0.97239 0.0
C1405 C 0.52629 0.12465 0.95539 0.0
C1406 C 0.56187 0.1382 0.04677 0.0
H1407 H 0.64718 0.13533 0.99514 0.0
H1408 H 0.61459 0.13105 0.97843 0.0
H1409 H 0.58868 0.14859 0.08335 0.0
H1410 H 0.49445 0.1328 0.04078 0.0
H1411 H 0.52293 0.13001 0.06406 0.0
H1412 H 0.54689 0.10404 0.9655 0.0
C1413 C 0.61846 0.13073 0.01198 0.0
C1414 C 0.57956 0.13868 0.05783 0.0
C1415 C 0.63719 0.1333 0.02162 0.0
C1416 C 0.50314 0.13046 0.0165 0.0
C1417 C 0.5196 0.12901 0.02982 0.0
C1418 C 0.5559 0.11398 0.99107 0.0
C1419 C 0.60518 0.12853 0.04529 0.0
C1420 C 0.58581 0.12711 0.0351 0.0
C1421 C 0.53157 0.12634 0.99938 0.0
C1422 C 0.54985 0.12596 0.01295 0.0
H1423 H 0.63324 0.13049 0.13167 0.0
H1424 H 0.60079 0.12639 0.11474 0.0
H1425 H 0.578 0.10536 0.9841 0.0
H1426 H 0.50639 0.12468 0.90792 0.0
H1427 H 0.53522 0.1229 0.9308 0.0
loop_
_geom_bond_atom_site_label_1
_geom_bond_atom_site_label_2
_geom_bond_distance
_geom_bond_site_symmetry_2
_ccdc_geom_bond_type
Co0 O2 2.143 . S
Co0 O8 2.074 . S
Co0 O11 2.093 . S
Co0 O24 2.097 . S
Co0 N41 2.151 . S
Co0 N49 2.214 . S
Co1 O2 2.160 . S
Co1 O7 2.058 . S
Co1 O17 2.057 . S
Co1 O32 2.037 . S
Co1 N36 2.145 . S
Co1 N57 2.257 . S
O2 Co0 2.143 . S
O2 Co1 2.160 . S
C3 O4 1.278 . S
C3 O11 1.224 . S
O4 C3 1.278 . S
C5 O6 1.245 . S
C5 O17 1.232 . S
O6 C5 1.245 . S
O7 Co1 2.058 . S
O7 C33 1.269 . S
O8 Co0 2.074 . S
O8 C33 1.257 . S
H9 C34 0.930 . S
H10 C40 0.930 . S
O11 Co0 2.093 . S
O11 C3 1.224 . S
H12 C44 0.929 . S
H13 C46 0.930 . S
H14 C47 0.930 . S
H15 C45 0.929 . S
H16 C48 0.928 . S
O17 Co1 2.057 . S
O17 C5 1.232 . S
H18 C37 0.929 . S
H19 C38 0.929 . S
H20 C50 0.931 . S
H21 C42 0.929 . S
H22 C51 0.930 . S
H23 C43 0.931 . S
O24 Co0 2.097 . S
O24 C52 1.214 . S
H25 C53 0.929 . S
H26 C54 0.929 . S
H27 C55 0.930 . S
H28 C56 0.929 . S
H29 C58 0.930 . S
H30 C35 0.930 . S
H31 C39 0.930 . S
O32 Co1 2.037 . S
O32 C52 1.234 . S
C33 O7 1.269 . S
C33 O8 1.257 . S
C34 H9 0.930 . S
C34 C37 1.388 . S
C34 C39 1.418 . S
C35 H30 0.930 . S
C35 C38 1.404 . S
C35 C39 1.353 . S
N36 Co1 2.145 . S
N36 C37 1.397 . S
N36 C38 1.334 . S
C37 H18 0.929 . S
C37 C34 1.388 . S
C37 N36 1.397 . S
C38 H19 0.929 . S
C38 C35 1.404 . S
C38 N36 1.334 . S
C39 H31 0.930 . S
C39 C34 1.418 . S
C39 C35 1.353 . S
C40 H10 0.930 . S
C40 N41 1.330 . S
C40 C42 1.446 . S
N41 Co0 2.151 . S
N41 C40 1.330 . S
N41 C45 1.418 . S
C42 H21 0.929 . S
C42 C40 1.446 . S
C42 C43 1.332 . S
C43 H23 0.931 . S
C43 C42 1.332 . S
C43 C44 1.267 . S
C44 H12 0.929 . S
C44 C43 1.267 . S
C44 C45 1.251 . S
C45 H15 0.929 . S
C45 N41 1.418 . S
C45 C44 1.251 . S
C46 H13 0.930 . S
C46 C48 1.406 . S
C46 C51 1.261 . S
C47 H14 0.930 . S
C47 N49 1.325 . S
C47 C50 1.357 . S
C48 H16 0.928 . S
C48 C46 1.406 . S
C48 N49 1.261 . S
N49 Co0 2.214 . S
N49 C47 1.325 . S
N49 C48 1.261 . S
C50 H20 0.931 . S
C50 C47 1.357 . S
C50 C51 1.312 . S
C51 H22 0.930 . S
C51 C46 1.261 . S
C51 C50 1.312 . S
C52 O24 1.214 . S
C52 O32 1.234 . S
C53 H25 0.929 . S
C53 C56 1.391 . S
C53 C58 1.391 . S
C54 H26 0.929 . S
C54 C55 1.390 . S
C54 N57 1.391 . S
C55 H27 0.930 . S
C55 C54 1.390 . S
C55 C56 1.392 . S
C56 H28 0.929 . S
C56 C53 1.391 . S
C56 C55 1.392 . S
N57 Co1 2.257 . S
N57 C54 1.391 . S
N57 C58 1.388 . S
C58 H29 0.930 . S
C58 C53 1.391 . S
C58 N57 1.388 . S
Co59 O61 2.143 . S
Co59 O67 2.074 . S
Co59 O70 2.093 . S
Co59 O83 2.097 . S
Co59 N100 2.151 . S
Co59 N108 2.214 . S
Co60 O61 2.160 . S
Co60 O66 2.058 . S
Co60 O76 2.057 . S
Co60 O91 2.037 . S
Co60 N95 2.145 . S
Co60 N116 2.257 . S
O61 Co59 2.143 . S
O61 Co60 2.160 . S
C62 O63 1.278 . S
C62 O70 1.224 . S
O63 C62 1.278 . S
C64 O65 1.245 . S
C64 O76 1.232 . S
O65 C64 1.245 . S
O66 Co60 2.058 . S
O66 C92 1.269 . S
O67 Co59 2.074 . S
O67 C92 1.257 . S
H68 C93 0.930 . S
H69 C99 0.930 . S
O70 Co59 2.093 . S
O70 C62 1.224 . S
H71 C103 0.929 . S
H72 C105 0.930 . S
H73 C106 0.930 . S
H74 C104 0.929 . S
H75 C107 0.928 . S
O76 Co60 2.057 . S
O76 C64 1.232 . S
H77 C96 0.929 . S
H78 C97 0.929 . S
H79 C109 0.931 . S
H80 C101 0.929 . S
H81 C110 0.930 . S
H82 C102 0.931 . S
O83 Co59 2.097 . S
O83 C111 1.214 . S
H84 C112 0.929 . S
H85 C113 0.929 . S
H86 C114 0.930 . S
H87 C115 0.929 . S
H88 C117 0.930 . S
H89 C94 0.930 . S
H90 C98 0.930 . S
O91 Co60 2.037 . S
O91 C111 1.234 . S
C92 O66 1.269 . S
C92 O67 1.257 . S
C93 H68 0.930 . S
C93 C96 1.388 . S
C93 C98 1.418 . S
C94 H89 0.930 . S
C94 C97 1.404 . S
C94 C98 1.353 . S
N95 Co60 2.145 . S
N95 C96 1.397 . S
N95 C97 1.334 . S
C96 H77 0.929 . S
C96 C93 1.388 . S
C96 N95 1.397 . S
C97 H78 0.929 . S
C97 C94 1.404 . S
C97 N95 1.334 . S
C98 H90 0.930 . S
C98 C93 1.418 . S
C98 C94 1.353 . S
C99 H69 0.930 . S
C99 N100 1.330 . S
C99 C101 1.446 . S
N100 Co59 2.151 . S
N100 C99 1.330 . S
N100 C104 1.418 . S
C101 H80 0.929 . S
C101 C99 1.446 . S
C101 C102 1.332 . S
C102 H82 0.931 . S
C102 C101 1.332 . S
C102 C103 1.267 . S
C103 H71 0.929 . S
C103 C102 1.267 . S
C103 C104 1.251 . S
C104 H74 0.929 . S
C104 N100 1.418 . S
C104 C103 1.251 . S
C105 H72 0.930 . S
C105 C107 1.406 . S
C105 C110 1.261 . S
C106 H73 0.930 . S
C106 N108 1.325 . S
C106 C109 1.357 . S
C107 H75 0.928 . S
C107 C105 1.406 . S
C107 N108 1.261 . S
N108 Co59 2.214 . S
N108 C106 1.325 . S
N108 C107 1.261 . S
C109 H79 0.931 . S
C109 C106 1.357 . S
C109 C110 1.312 . S
C110 H81 0.930 . S
C110 C105 1.261 . S
C110 C109 1.312 . S
C111 O83 1.214 . S
C111 O91 1.234 . S
C112 H84 0.929 . S
C112 C115 1.391 . S
C112 C117 1.391 . S
C113 H85 0.929 . S
C113 C114 1.390 . S
C113 N116 1.391 . S
C114 H86 0.930 . S
C114 C113 1.390 . S
C114 C115 1.392 . S
C115 H87 0.929 . S
C115 C112 1.391 . S
C115 C114 1.392 . S
N116 Co60 2.257 . S
N116 C113 1.391 . S
N116 C117 1.388 . S
C117 H88 0.930 . S
C117 C112 1.391 . S
C117 N116 1.388 . S
Co118 O120 2.143 1_554 S
Co118 O126 2.074 1_554 S
Co118 O129 2.093 . S
Co118 O142 2.097 . S
Co118 N159 2.151 . S
Co118 N167 2.214 . S
Co119 O120 2.160 . S
Co119 O125 2.058 . S
Co119 O135 2.057 . S
Co119 O150 2.037 . S
Co119 N154 2.145 . S
Co119 N175 2.257 . S
O120 Co118 2.143 1_556 S
O120 Co119 2.160 . S
C121 O122 1.278 1_554 S
C121 O129 1.224 . S
O122 C121 1.278 1_556 S
C123 O124 1.245 . S
C123 O135 1.232 . S
O124 C123 1.245 . S
O125 Co119 2.058 . S
O125 C151 1.269 . S
O126 Co118 2.074 1_556 S
O126 C151 1.257 . S
H127 C152 0.930 . S
H128 C158 0.930 . S
O129 Co118 2.093 . S
O129 C121 1.224 . S
H130 C162 0.929 . S
H131 C164 0.930 . S
H132 C165 0.930 . S
H133 C163 0.929 . S
H134 C166 0.928 . S
O135 Co119 2.057 . S
O135 C123 1.232 . S
H136 C155 0.929 . S
H137 C156 0.929 . S
H138 C168 0.931 . S
H139 C160 0.929 . S
H140 C169 0.930 . S
H141 C161 0.931 . S
O142 Co118 2.097 . S
O142 C170 1.214 1_554 S
H143 C171 0.929 . S
H144 C172 0.929 . S
H145 C173 0.930 . S
H146 C174 0.929 . S
H147 C176 0.930 . S
H148 C153 0.930 . S
H149 C157 0.930 . S
O150 Co119 2.037 . S
O150 C170 1.234 . S
C151 O125 1.269 . S
C151 O126 1.257 . S
C152 H127 0.930 . S
C152 C155 1.388 . S
C152 C157 1.418 . S
C153 H148 0.930 . S
C153 C156 1.404 . S
C153 C157 1.353 . S
N154 Co119 2.145 . S
N154 C155 1.397 . S
N154 C156 1.334 . S
C155 H136 0.929 . S
C155 C152 1.388 . S
C155 N154 1.397 . S
C156 H137 0.929 . S
C156 C153 1.404 . S
C156 N154 1.334 . S
C157 H149 0.930 . S
C157 C152 1.418 . S
C157 C153 1.353 . S
C158 H128 0.930 . S
C158 N159 1.330 . S
C158 C160 1.446 . S
N159 Co118 2.151 . S
N159 C158 1.330 . S
N159 C163 1.418 . S
C160 H139 0.929 . S
C160 C158 1.446 . S
C160 C161 1.332 . S
C161 H141 0.931 . S
C161 C160 1.332 . S
C161 C162 1.267 . S
C162 H130 0.929 . S
C162 C161 1.267 . S
C162 C163 1.251 . S
C163 H133 0.929 . S
C163 N159 1.418 . S
C163 C162 1.251 . S
C164 H131 0.930 . S
C164 C166 1.406 . S
C164 C169 1.261 . S
C165 H132 0.930 . S
C165 N167 1.325 . S
C165 C168 1.357 . S
C166 H134 0.928 . S
C166 C164 1.406 . S
C166 N167 1.261 . S
N167 Co118 2.214 . S
N167 C165 1.325 . S
N167 C166 1.261 . S
C168 H138 0.931 . S
C168 C165 1.357 . S
C168 C169 1.312 . S
C169 H140 0.930 . S
C169 C164 1.261 . S
C169 C168 1.312 . S
C170 O142 1.214 1_556 S
C170 O150 1.234 . S
C171 H143 0.929 . S
C171 C174 1.391 . S
C171 C176 1.391 . S
C172 H144 0.929 . S
C172 C173 1.390 . S
C172 N175 1.391 . S
C173 H145 0.930 . S
C173 C172 1.390 . S
C173 C174 1.392 . S
C174 H146 0.929 . S
C174 C171 1.391 . S
C174 C173 1.392 . S
N175 Co119 2.257 . S
N175 C172 1.391 . S
N175 C176 1.388 . S
C176 H147 0.930 . S
C176 C171 1.391 . S
C176 N175 1.388 . S
Co177 O179 2.143 . S
Co177 O185 2.074 . S
Co177 O188 2.093 . S
Co177 O201 2.097 . S
Co177 N218 2.151 . S
Co177 N226 2.214 . S
Co178 O179 2.160 . S
Co178 O184 2.058 . S
Co178 O194 2.057 . S
Co178 O209 2.037 . S
Co178 N213 2.145 . S
Co178 N234 2.257 . S
O179 Co177 2.143 . S
O179 Co178 2.160 . S
C180 O181 1.278 . S
C180 O188 1.224 . S
O181 C180 1.278 . S
C182 O183 1.245 . S
C182 O194 1.232 . S
O183 C182 1.245 . S
O184 Co178 2.058 . S
O184 C210 1.269 . S
O185 Co177 2.074 . S
O185 C210 1.257 . S
H186 C211 0.930 . S
H187 C217 0.930 . S
O188 Co177 2.093 . S
O188 C180 1.224 . S
H189 C221 0.929 . S
H190 C223 0.930 . S
H191 C224 0.930 . S
H192 C222 0.929 . S
H193 C225 0.928 . S
O194 Co178 2.057 . S
O194 C182 1.232 . S
H195 C214 0.929 . S
H196 C215 0.929 . S
H197 C227 0.931 . S
H198 C219 0.929 . S
H199 C228 0.930 . S
H200 C220 0.931 . S
O201 Co177 2.097 . S
O201 C229 1.214 . S
H202 C230 0.929 . S
H203 C231 0.929 . S
H204 C232 0.930 . S
H205 C233 0.929 . S
H206 C235 0.930 . S
H207 C212 0.930 . S
H208 C216 0.930 . S
O209 Co178 2.037 . S
O209 C229 1.234 . S
C210 O184 1.269 . S
C210 O185 1.257 . S
C211 H186 0.930 . S
C211 C214 1.388 . S
C211 C216 1.418 . S
C212 H207 0.930 . S
C212 C215 1.404 . S
C212 C216 1.353 . S
N213 Co178 2.145 . S
N213 C214 1.397 . S
N213 C215 1.334 . S
C214 H195 0.929 . S
C214 C211 1.388 . S
C214 N213 1.397 . S
C215 H196 0.929 . S
C215 C212 1.404 . S
C215 N213 1.334 . S
C216 H208 0.930 . S
C216 C211 1.418 . S
C216 C212 1.353 . S
C217 H187 0.930 . S
C217 N218 1.330 . S
C217 C219 1.446 . S
N218 Co177 2.151 . S
N218 C217 1.330 . S
N218 C222 1.418 . S
C219 H198 0.929 . S
C219 C217 1.446 . S
C219 C220 1.332 . S
C220 H200 0.931 . S
C220 C219 1.332 . S
C220 C221 1.267 . S
C221 H189 0.929 . S
C221 C220 1.267 . S
C221 C222 1.251 . S
C222 H192 0.929 . S
C222 N218 1.418 . S
C222 C221 1.251 . S
C223 H190 0.930 . S
C223 C225 1.406 . S
C223 C228 1.261 . S
C224 H191 0.930 . S
C224 N226 1.325 . S
C224 C227 1.357 . S
C225 H193 0.928 . S
C225 C223 1.406 . S
C225 N226 1.261 . S
N226 Co177 2.214 . S
N226 C224 1.325 . S
N226 C225 1.261 . S
C227 H197 0.931 . S
C227 C224 1.357 . S
C227 C228 1.312 . S
C228 H199 0.930 . S
C228 C223 1.261 . S
C228 C227 1.312 . S
C229 O201 1.214 . S
C229 O209 1.234 . S
C230 H202 0.929 . S
C230 C233 1.391 . S
C230 C235 1.391 . S
C231 H203 0.929 . S
C231 C232 1.390 . S
C231 N234 1.391 . S
C232 H204 0.930 . S
C232 C231 1.390 . S
C232 C233 1.392 . S
C233 H205 0.929 . S
C233 C230 1.391 . S
C233 C232 1.392 . S
N234 Co178 2.257 . S
N234 C231 1.391 . S
N234 C235 1.388 . S
C235 H206 0.930 . S
C235 C230 1.391 . S
C235 N234 1.388 . S
Co236 O238 2.143 . S
Co236 O244 2.074 . S
Co236 O247 2.093 . S
Co236 O260 2.097 . S
Co236 N277 2.151 . S
Co236 N285 2.214 . S
Co237 O238 2.160 . S
Co237 O243 2.058 . S
Co237 O253 2.057 . S
Co237 O268 2.037 . S
Co237 N272 2.145 . S
Co237 N293 2.257 . S
O238 Co236 2.143 . S
O238 Co237 2.160 . S
C239 O240 1.278 . S
C239 O247 1.224 . S
O240 C239 1.278 . S
C241 O242 1.245 . S
C241 O253 1.232 . S
O242 C241 1.245 . S
O243 Co237 2.058 . S
O243 C269 1.269 . S
O244 Co236 2.074 . S
O244 C269 1.257 . S
H245 C270 0.930 . S
H246 C276 0.930 . S
O247 Co236 2.093 . S
O247 C239 1.224 . S
H248 C280 0.929 . S
H249 C282 0.930 . S
H250 C283 0.930 . S
H251 C281 0.929 . S
H252 C284 0.928 . S
O253 Co237 2.057 . S
O253 C241 1.232 . S
H254 C273 0.929 . S
H255 C274 0.929 . S
H256 C286 0.931 . S
H257 C278 0.929 . S
H258 C287 0.930 . S
H259 C279 0.931 . S
O260 Co236 2.097 . S
O260 C288 1.214 . S
H261 C289 0.929 . S
H262 C290 0.929 . S
H263 C291 0.930 . S
H264 C292 0.929 . S
H265 C294 0.930 . S
H266 C271 0.930 . S
H267 C275 0.930 . S
O268 Co237 2.037 . S
O268 C288 1.234 . S
C269 O243 1.269 . S
C269 O244 1.257 . S
C270 H245 0.930 . S
C270 C273 1.388 . S
C270 C275 1.418 . S
C271 H266 0.930 . S
C271 C274 1.404 . S
C271 C275 1.353 . S
N272 Co237 2.145 . S
N272 C273 1.397 . S
N272 C274 1.334 . S
C273 H254 0.929 . S
C273 C270 1.388 . S
C273 N272 1.397 . S
C274 H255 0.929 . S
C274 C271 1.404 . S
C274 N272 1.334 . S
C275 H267 0.930 . S
C275 C270 1.418 . S
C275 C271 1.353 . S
C276 H246 0.930 . S
C276 N277 1.330 . S
C276 C278 1.446 . S
N277 Co236 2.151 . S
N277 C276 1.330 . S
N277 C281 1.418 . S
C278 H257 0.929 . S
C278 C276 1.446 . S
C278 C279 1.332 . S
C279 H259 0.931 . S
C279 C278 1.332 . S
C279 C280 1.267 . S
C280 H248 0.929 . S
C280 C279 1.267 . S
C280 C281 1.251 . S
C281 H251 0.929 . S
C281 N277 1.418 . S
C281 C280 1.251 . S
C282 H249 0.930 . S
C282 C284 1.406 . S
C282 C287 1.261 . S
C283 H250 0.930 . S
C283 N285 1.325 . S
C283 C286 1.357 . S
C284 H252 0.928 . S
C284 C282 1.406 . S
C284 N285 1.261 . S
N285 Co236 2.214 . S
N285 C283 1.325 . S
N285 C284 1.261 . S
C286 H256 0.931 . S
C286 C283 1.357 . S
C286 C287 1.312 . S
C287 H258 0.930 . S
C287 C282 1.261 . S
C287 C286 1.312 . S
C288 O260 1.214 . S
C288 O268 1.234 . S
C289 H261 0.929 . S
C289 C292 1.391 . S
C289 C294 1.391 . S
C290 H262 0.929 . S
C290 C291 1.390 . S
C290 N293 1.391 . S
C291 H263 0.930 . S
C291 C290 1.390 . S
C291 C292 1.392 . S
C292 H264 0.929 . S
C292 C289 1.391 . S
C292 C291 1.392 . S
N293 Co237 2.257 . S
N293 C290 1.391 . S
N293 C294 1.388 . S
C294 H265 0.930 . S
C294 C289 1.391 . S
C294 N293 1.388 . S
Co295 O297 2.143 1_554 S
Co295 O303 2.074 1_554 S
Co295 O306 2.093 . S
Co295 O319 2.097 . S
Co295 N336 2.151 . S
Co295 N344 2.214 . S
Co296 O297 2.160 . S
Co296 O302 2.058 . S
Co296 O312 2.057 . S
Co296 O327 2.037 . S
Co296 N331 2.145 . S
Co296 N352 2.257 . S
O297 Co295 2.143 1_556 S
O297 Co296 2.160 . S
C298 O299 1.278 1_554 S
C298 O306 1.224 . S
O299 C298 1.278 1_556 S
C300 O301 1.245 . S
C300 O312 1.232 . S
O301 C300 1.245 . S
O302 Co296 2.058 . S
O302 C328 1.269 . S
O303 Co295 2.074 1_556 S
O303 C328 1.257 . S
H304 C329 0.930 . S
H305 C335 0.930 . S
O306 Co295 2.093 . S
O306 C298 1.224 . S
H307 C339 0.929 . S
H308 C341 0.930 . S
H309 C342 0.930 . S
H310 C340 0.929 . S
H311 C343 0.928 . S
O312 Co296 2.057 . S
O312 C300 1.232 . S
H313 C332 0.929 . S
H314 C333 0.929 . S
H315 C345 0.931 . S
H316 C337 0.929 . S
H317 C346 0.930 . S
H318 C338 0.931 . S
O319 Co295 2.097 . S
O319 C347 1.214 1_554 S
H320 C348 0.929 . S
H321 C349 0.929 . S
H322 C350 0.930 . S
H323 C351 0.929 . S
H324 C353 0.930 . S
H325 C330 0.930 . S
H326 C334 0.930 . S
O327 Co296 2.037 . S
O327 C347 1.234 . S
C328 O302 1.269 . S
C328 O303 1.257 . S
C329 H304 0.930 . S
C329 C332 1.388 . S
C329 C334 1.418 . S
C330 H325 0.930 . S
C330 C333 1.404 . S
C330 C334 1.353 . S
N331 Co296 2.145 . S
N331 C332 1.397 . S
N331 C333 1.334 . S
C332 H313 0.929 . S
C332 C329 1.388 . S
C332 N331 1.397 . S
C333 H314 0.929 . S
C333 C330 1.404 . S
C333 N331 1.334 . S
C334 H326 0.930 . S
C334 C329 1.418 . S
C334 C330 1.353 . S
C335 H305 0.930 . S
C335 N336 1.330 . S
C335 C337 1.446 . S
N336 Co295 2.151 . S
N336 C335 1.330 . S
N336 C340 1.418 . S
C337 H316 0.929 . S
C337 C335 1.446 . S
C337 C338 1.332 . S
C338 H318 0.931 . S
C338 C337 1.332 . S
C338 C339 1.267 . S
C339 H307 0.929 . S
C339 C338 1.267 . S
C339 C340 1.251 . S
C340 H310 0.929 . S
C340 N336 1.418 . S
C340 C339 1.251 . S
C341 H308 0.930 . S
C341 C343 1.406 . S
C341 C346 1.261 . S
C342 H309 0.930 . S
C342 N344 1.325 . S
C342 C345 1.357 . S
C343 H311 0.928 . S
C343 C341 1.406 . S
C343 N344 1.261 . S
N344 Co295 2.214 . S
N344 C342 1.325 . S
N344 C343 1.261 . S
C345 H315 0.931 . S
C345 C342 1.357 . S
C345 C346 1.312 . S
C346 H317 0.930 . S
C346 C341 1.261 . S
C346 C345 1.312 . S
C347 O319 1.214 1_556 S
C347 O327 1.234 . S
C348 H320 0.929 . S
C348 C351 1.391 . S
C348 C353 1.391 . S
C349 H321 0.929 . S
C349 C350 1.390 . S
C349 N352 1.391 . S
C350 H322 0.930 . S
C350 C349 1.390 . S
C350 C351 1.392 . S
C351 H323 0.929 . S
C351 C348 1.391 . S
C351 C350 1.392 . S
N352 Co296 2.257 . S
N352 C349 1.391 . S
N352 C353 1.388 . S
C353 H324 0.930 . S
C353 C348 1.391 . S
C353 N352 1.388 . S
Co354 O356 2.143 . S
Co354 O362 2.074 . S
Co354 O365 2.093 . S
Co354 O378 2.097 . S
Co354 N395 2.151 . S
Co354 N403 2.214 . S
Co355 O356 2.160 . S
Co355 O361 2.058 . S
Co355 O371 2.057 . S
Co355 O386 2.037 . S
Co355 N390 2.145 . S
Co355 N411 2.257 . S
O356 Co354 2.143 . S
O356 Co355 2.160 . S
C357 O358 1.278 . S
C357 O365 1.224 . S
O358 C357 1.278 . S
C359 O360 1.245 . S
C359 O371 1.232 . S
O360 C359 1.245 . S
O361 Co355 2.058 . S
O361 C387 1.269 . S
O362 Co354 2.074 . S
O362 C387 1.257 . S
H363 C388 0.930 . S
H364 C394 0.930 . S
O365 Co354 2.093 . S
O365 C357 1.224 . S
H366 C398 0.929 . S
H367 C400 0.930 . S
H368 C401 0.930 . S
H369 C399 0.929 . S
H370 C402 0.928 . S
O371 Co355 2.057 . S
O371 C359 1.232 . S
H372 C391 0.929 . S
H373 C392 0.929 . S
H374 C404 0.931 . S
H375 C396 0.929 . S
H376 C405 0.930 . S
H377 C397 0.931 . S
O378 Co354 2.097 . S
O378 C406 1.214 . S
H379 C407 0.929 . S
H380 C408 0.929 . S
H381 C409 0.930 . S
H382 C410 0.929 . S
H383 C412 0.930 . S
H384 C389 0.930 . S
H385 C393 0.930 . S
O386 Co355 2.037 . S
O386 C406 1.234 . S
C387 O361 1.269 . S
C387 O362 1.257 . S
C388 H363 0.930 . S
C388 C391 1.388 . S
C388 C393 1.418 . S
C389 H384 0.930 . S
C389 C392 1.404 . S
C389 C393 1.353 . S
N390 Co355 2.145 . S
N390 C391 1.397 . S
N390 C392 1.334 . S
C391 H372 0.929 . S
C391 C388 1.388 . S
C391 N390 1.397 . S
C392 H373 0.929 . S
C392 C389 1.404 . S
C392 N390 1.334 . S
C393 H385 0.930 . S
C393 C388 1.418 . S
C393 C389 1.353 . S
C394 H364 0.930 . S
C394 N395 1.330 . S
C394 C396 1.446 . S
N395 Co354 2.151 . S
N395 C394 1.330 . S
N395 C399 1.418 . S
C396 H375 0.929 . S
C396 C394 1.446 . S
C396 C397 1.332 . S
C397 H377 0.931 . S
C397 C396 1.332 . S
C397 C398 1.267 . S
C398 H366 0.929 . S
C398 C397 1.267 . S
C398 C399 1.251 . S
C399 H369 0.929 . S
C399 N395 1.418 . S
C399 C398 1.251 . S
C400 H367 0.930 . S
C400 C402 1.406 . S
C400 C405 1.261 . S
C401 H368 0.930 . S
C401 N403 1.325 . S
C401 C404 1.357 . S
C402 H370 0.928 . S
C402 C400 1.406 . S
C402 N403 1.261 . S
N403 Co354 2.214 . S
N403 C401 1.325 . S
N403 C402 1.261 . S
C404 H374 0.931 . S
C404 C401 1.357 . S
C404 C405 1.312 . S
C405 H376 0.930 . S
C405 C400 1.261 . S
C405 C404 1.312 . S
C406 O378 1.214 . S
C406 O386 1.234 . S
C407 H379 0.929 . S
C407 C410 1.391 . S
C407 C412 1.391 . S
C408 H380 0.929 . S
C408 C409 1.390 . S
C408 N411 1.391 . S
C409 H381 0.930 . S
C409 C408 1.390 . S
C409 C410 1.392 . S
C410 H382 0.929 . S
C410 C407 1.391 . S
C410 C409 1.392 . S
N411 Co355 2.257 . S
N411 C408 1.391 . S
N411 C412 1.388 . S
C412 H383 0.930 . S
C412 C407 1.391 . S
C412 N411 1.388 . S
Co413 O415 2.143 . S
Co413 O421 2.074 . S
Co413 O424 2.093 . S
Co413 O437 2.097 . S
Co413 N454 2.151 . S
Co413 N462 2.214 . S
Co414 O415 2.160 . S
Co414 O420 2.058 . S
Co414 O430 2.057 . S
Co414 O445 2.037 . S
Co414 N449 2.145 . S
Co414 N470 2.257 . S
O415 Co413 2.143 . S
O415 Co414 2.160 . S
C416 O417 1.278 . S
C416 O424 1.224 . S
O417 C416 1.278 . S
C418 O419 1.245 . S
C418 O430 1.232 . S
O419 C418 1.245 . S
O420 Co414 2.058 . S
O420 C446 1.269 . S
O421 Co413 2.074 . S
O421 C446 1.257 . S
H422 C447 0.930 . S
H423 C453 0.930 . S
O424 Co413 2.093 . S
O424 C416 1.224 . S
H425 C457 0.929 . S
H426 C459 0.930 . S
H427 C460 0.930 . S
H428 C458 0.929 . S
H429 C461 0.928 . S
O430 Co414 2.057 . S
O430 C418 1.232 . S
H431 C450 0.929 . S
H432 C451 0.929 . S
H433 C463 0.931 . S
H434 C455 0.929 . S
H435 C464 0.930 . S
H436 C456 0.931 . S
O437 Co413 2.097 . S
O437 C465 1.214 . S
H438 C466 0.929 . S
H439 C467 0.929 . S
H440 C468 0.930 . S
H441 C469 0.929 . S
H442 C471 0.930 . S
H443 C448 0.930 . S
H444 C452 0.930 . S
O445 Co414 2.037 . S
O445 C465 1.234 . S
C446 O420 1.269 . S
C446 O421 1.257 . S
C447 H422 0.930 . S
C447 C450 1.388 . S
C447 C452 1.418 . S
C448 H443 0.930 . S
C448 C451 1.404 . S
C448 C452 1.353 . S
N449 Co414 2.145 . S
N449 C450 1.397 . S
N449 C451 1.334 . S
C450 H431 0.929 . S
C450 C447 1.388 . S
C450 N449 1.397 . S
C451 H432 0.929 . S
C451 C448 1.404 . S
C451 N449 1.334 . S
C452 H444 0.930 . S
C452 C447 1.418 . S
C452 C448 1.353 . S
C453 H423 0.930 . S
C453 N454 1.330 . S
C453 C455 1.446 . S
N454 Co413 2.151 . S
N454 C453 1.330 . S
N454 C458 1.418 . S
C455 H434 0.929 . S
C455 C453 1.446 . S
C455 C456 1.332 . S
C456 H436 0.931 . S
C456 C455 1.332 . S
C456 C457 1.267 . S
C457 H425 0.929 . S
C457 C456 1.267 . S
C457 C458 1.251 . S
C458 H428 0.929 . S
C458 N454 1.418 . S
C458 C457 1.251 . S
C459 H426 0.930 . S
C459 C461 1.406 . S
C459 C464 1.261 . S
C460 H427 0.930 . S
C460 N462 1.325 . S
C460 C463 1.357 . S
C461 H429 0.928 . S
C461 C459 1.406 . S
C461 N462 1.261 . S
N462 Co413 2.214 . S
N462 C460 1.325 . S
N462 C461 1.261 . S
C463 H433 0.931 . S
C463 C460 1.357 . S
C463 C464 1.312 . S
C464 H435 0.930 . S
C464 C459 1.261 . S
C464 C463 1.312 . S
C465 O437 1.214 . S
C465 O445 1.234 . S
C466 H438 0.929 . S
C466 C469 1.391 . S
C466 C471 1.391 . S
C467 H439 0.929 . S
C467 C468 1.390 . S
C467 N470 1.391 . S
C468 H440 0.930 . S
C468 C467 1.390 . S
C468 C469 1.392 . S
C469 H441 0.929 . S
C469 C466 1.391 . S
C469 C468 1.392 . S
N470 Co414 2.257 . S
N470 C467 1.391 . S
N470 C471 1.388 . S
C471 H442 0.930 . S
C471 C466 1.391 . S
C471 N470 1.388 . S
Co472 O474 2.143 1_556 S
Co472 O480 2.074 1_556 S
Co472 O483 2.093 . S
Co472 O496 2.097 . S
Co472 N513 2.151 . S
Co472 N521 2.214 . S
Co473 O474 2.160 . S
Co473 O479 2.058 . S
Co473 O489 2.057 . S
Co473 O504 2.037 . S
Co473 N508 2.145 . S
Co473 N529 2.257 . S
O474 Co472 2.143 1_554 S
O474 Co473 2.160 . S
C475 O476 1.278 1_556 S
C475 O483 1.224 . S
O476 C475 1.278 1_554 S
C477 O478 1.245 . S
C477 O489 1.232 . S
O478 C477 1.245 . S
O479 Co473 2.058 . S
O479 C505 1.269 . S
O480 Co472 2.074 1_554 S
O480 C505 1.257 . S
H481 C506 0.930 . S
H482 C512 0.930 . S
O483 Co472 2.093 . S
O483 C475 1.224 . S
H484 C516 0.929 . S
H485 C518 0.930 . S
H486 C519 0.930 . S
H487 C517 0.929 . S
H488 C520 0.928 . S
O489 Co473 2.057 . S
O489 C477 1.232 . S
H490 C509 0.929 . S
H491 C510 0.929 . S
H492 C522 0.931 . S
H493 C514 0.929 . S
H494 C523 0.930 . S
H495 C515 0.931 . S
O496 Co472 2.097 . S
O496 C524 1.214 1_556 S
H497 C525 0.929 . S
H498 C526 0.929 . S
H499 C527 0.930 . S
H500 C528 0.929 . S
H501 C530 0.930 . S
H502 C507 0.930 . S
H503 C511 0.930 . S
O504 Co473 2.037 . S
O504 C524 1.234 . S
C505 O479 1.269 . S
C505 O480 1.257 . S
C506 H481 0.930 . S
C506 C509 1.388 . S
C506 C511 1.418 . S
C507 H502 0.930 . S
C507 C510 1.404 . S
C507 C511 1.353 . S
N508 Co473 2.145 . S
N508 C509 1.397 . S
N508 C510 1.334 . S
C509 H490 0.929 . S
C509 C506 1.388 . S
C509 N508 1.397 . S
C510 H491 0.929 . S
C510 C507 1.404 . S
C510 N508 1.334 . S
C511 H503 0.930 . S
C511 C506 1.418 . S
C511 C507 1.353 . S
C512 H482 0.930 . S
C512 N513 1.330 . S
C512 C514 1.446 . S
N513 Co472 2.151 . S
N513 C512 1.330 . S
N513 C517 1.418 . S
C514 H493 0.929 . S
C514 C512 1.446 . S
C514 C515 1.332 . S
C515 H495 0.931 . S
C515 C514 1.332 . S
C515 C516 1.267 . S
C516 H484 0.929 . S
C516 C515 1.267 . S
C516 C517 1.251 . S
C517 H487 0.929 . S
C517 N513 1.418 . S
C517 C516 1.251 . S
C518 H485 0.930 . S
C518 C520 1.406 . S
C518 C523 1.261 . S
C519 H486 0.930 . S
C519 N521 1.325 . S
C519 C522 1.357 . S
C520 H488 0.928 . S
C520 C518 1.406 . S
C520 N521 1.261 . S
N521 Co472 2.214 . S
N521 C519 1.325 . S
N521 C520 1.261 . S
C522 H492 0.931 . S
C522 C519 1.357 . S
C522 C523 1.312 . S
C523 H494 0.930 . S
C523 C518 1.261 . S
C523 C522 1.312 . S
C524 O496 1.214 1_554 S
C524 O504 1.234 . S
C525 H497 0.929 . S
C525 C528 1.391 . S
C525 C530 1.391 . S
C526 H498 0.929 . S
C526 C527 1.390 . S
C526 N529 1.391 . S
C527 H499 0.930 . S
C527 C526 1.390 . S
C527 C528 1.392 . S
C528 H500 0.929 . S
C528 C525 1.391 . S
C528 C527 1.392 . S
N529 Co473 2.257 . S
N529 C526 1.391 . S
N529 C530 1.388 . S
C530 H501 0.930 . S
C530 C525 1.391 . S
C530 N529 1.388 . S
Co531 O533 2.143 . S
Co531 O539 2.074 . S
Co531 O542 2.093 . S
Co531 O555 2.097 . S
Co531 N572 2.151 . S
Co531 N580 2.214 . S
Co532 O533 2.160 . S
Co532 O538 2.058 . S
Co532 O548 2.057 . S
Co532 O563 2.037 . S
Co532 N567 2.145 . S
Co532 N588 2.257 . S
O533 Co531 2.143 . S
O533 Co532 2.160 . S
C534 O535 1.278 . S
C534 O542 1.224 . S
O535 C534 1.278 . S
C536 O537 1.245 . S
C536 O548 1.232 . S
O537 C536 1.245 . S
O538 Co532 2.058 . S
O538 C564 1.269 . S
O539 Co531 2.074 . S
O539 C564 1.257 . S
H540 C565 0.930 . S
H541 C571 0.930 . S
O542 Co531 2.093 . S
O542 C534 1.224 . S
H543 C575 0.929 . S
H544 C577 0.930 . S
H545 C578 0.930 . S
H546 C576 0.929 . S
H547 C579 0.928 . S
O548 Co532 2.057 . S
O548 C536 1.232 . S
H549 C568 0.929 . S
H550 C569 0.929 . S
H551 C581 0.931 . S
H552 C573 0.929 . S
H553 C582 0.930 . S
H554 C574 0.931 . S
O555 Co531 2.097 . S
O555 C583 1.214 . S
H556 C584 0.929 . S
H557 C585 0.929 . S
H558 C586 0.930 . S
H559 C587 0.929 . S
H560 C589 0.930 . S
H561 C566 0.930 . S
H562 C570 0.930 . S
O563 Co532 2.037 . S
O563 C583 1.234 . S
C564 O538 1.269 . S
C564 O539 1.257 . S
C565 H540 0.930 . S
C565 C568 1.388 . S
C565 C570 1.418 . S
C566 H561 0.930 . S
C566 C569 1.404 . S
C566 C570 1.353 . S
N567 Co532 2.145 . S
N567 C568 1.397 . S
N567 C569 1.334 . S
C568 H549 0.929 . S
C568 C565 1.388 . S
C568 N567 1.397 . S
C569 H550 0.929 . S
C569 C566 1.404 . S
C569 N567 1.334 . S
C570 H562 0.930 . S
C570 C565 1.418 . S
C570 C566 1.353 . S
C571 H541 0.930 . S
C571 N572 1.330 . S
C571 C573 1.446 . S
N572 Co531 2.151 . S
N572 C571 1.330 . S
N572 C576 1.418 . S
C573 H552 0.929 . S
C573 C571 1.446 . S
C573 C574 1.332 . S
C574 H554 0.931 . S
C574 C573 1.332 . S
C574 C575 1.267 . S
C575 H543 0.929 . S
C575 C574 1.267 . S
C575 C576 1.251 . S
C576 H546 0.929 . S
C576 N572 1.418 . S
C576 C575 1.251 . S
C577 H544 0.930 . S
C577 C579 1.406 . S
C577 C582 1.261 . S
C578 H545 0.930 . S
C578 N580 1.325 . S
C578 C581 1.357 . S
C579 H547 0.928 . S
C579 C577 1.406 . S
C579 N580 1.261 . S
N580 Co531 2.214 . S
N580 C578 1.325 . S
N580 C579 1.261 . S
C581 H551 0.931 . S
C581 C578 1.357 . S
C581 C582 1.312 . S
C582 H553 0.930 . S
C582 C577 1.261 . S
C582 C581 1.312 . S
C583 O555 1.214 . S
C583 O563 1.234 . S
C584 H556 0.929 . S
C584 C587 1.391 . S
C584 C589 1.391 . S
C585 H557 0.929 . S
C585 C586 1.390 . S
C585 N588 1.391 . S
C586 H558 0.930 . S
C586 C585 1.390 . S
C586 C587 1.392 . S
C587 H559 0.929 . S
C587 C584 1.391 . S
C587 C586 1.392 . S
N588 Co532 2.257 . S
N588 C585 1.391 . S
N588 C589 1.388 . S
C589 H560 0.930 . S
C589 C584 1.391 . S
C589 N588 1.388 . S
Co590 O592 2.143 . S
Co590 O598 2.074 . S
Co590 O601 2.093 . S
Co590 O614 2.097 . S
Co590 N631 2.151 . S
Co590 N639 2.214 . S
Co591 O592 2.160 . S
Co591 O597 2.058 . S
Co591 O607 2.057 . S
Co591 O622 2.037 . S
Co591 N626 2.145 . S
Co591 N647 2.257 . S
O592 Co590 2.143 . S
O592 Co591 2.160 . S
C593 O594 1.278 . S
C593 O601 1.224 . S
O594 C593 1.278 . S
C595 O596 1.245 . S
C595 O607 1.232 . S
O596 C595 1.245 . S
O597 Co591 2.058 . S
O597 C623 1.269 . S
O598 Co590 2.074 . S
O598 C623 1.257 . S
H599 C624 0.930 . S
H600 C630 0.930 . S
O601 Co590 2.093 . S
O601 C593 1.224 . S
H602 C634 0.929 . S
H603 C636 0.930 . S
H604 C637 0.930 . S
H605 C635 0.929 . S
H606 C638 0.928 . S
O607 Co591 2.057 . S
O607 C595 1.232 . S
H608 C627 0.929 . S
H609 C628 0.929 . S
H610 C640 0.931 . S
H611 C632 0.929 . S
H612 C641 0.930 . S
H613 C633 0.931 . S
O614 Co590 2.097 . S
O614 C642 1.214 . S
H615 C643 0.929 . S
H616 C644 0.929 . S
H617 C645 0.930 . S
H618 C646 0.929 . S
H619 C648 0.930 . S
H620 C625 0.930 . S
H621 C629 0.930 . S
O622 Co591 2.037 . S
O622 C642 1.234 . S
C623 O597 1.269 . S
C623 O598 1.257 . S
C624 H599 0.930 . S
C624 C627 1.388 . S
C624 C629 1.418 . S
C625 H620 0.930 . S
C625 C628 1.404 . S
C625 C629 1.353 . S
N626 Co591 2.145 . S
N626 C627 1.397 . S
N626 C628 1.334 . S
C627 H608 0.929 . S
C627 C624 1.388 . S
C627 N626 1.397 . S
C628 H609 0.929 . S
C628 C625 1.404 . S
C628 N626 1.334 . S
C629 H621 0.930 . S
C629 C624 1.418 . S
C629 C625 1.353 . S
C630 H600 0.930 . S
C630 N631 1.330 . S
C630 C632 1.446 . S
N631 Co590 2.151 . S
N631 C630 1.330 . S
N631 C635 1.418 . S
C632 H611 0.929 . S
C632 C630 1.446 . S
C632 C633 1.332 . S
C633 H613 0.931 . S
C633 C632 1.332 . S
C633 C634 1.267 . S
C634 H602 0.929 . S
C634 C633 1.267 . S
C634 C635 1.251 . S
C635 H605 0.929 . S
C635 N631 1.418 . S
C635 C634 1.251 . S
C636 H603 0.930 . S
C636 C638 1.406 . S
C636 C641 1.261 . S
C637 H604 0.930 . S
C637 N639 1.325 . S
C637 C640 1.357 . S
C638 H606 0.928 . S
C638 C636 1.406 . S
C638 N639 1.261 . S
N639 Co590 2.214 . S
N639 C637 1.325 . S
N639 C638 1.261 . S
C640 H610 0.931 . S
C640 C637 1.357 . S
C640 C641 1.312 . S
C641 H612 0.930 . S
C641 C636 1.261 . S
C641 C640 1.312 . S
C642 O614 1.214 . S
C642 O622 1.234 . S
C643 H615 0.929 . S
C643 C646 1.391 . S
C643 C648 1.391 . S
C644 H616 0.929 . S
C644 C645 1.390 . S
C644 N647 1.391 . S
C645 H617 0.930 . S
C645 C644 1.390 . S
C645 C646 1.392 . S
C646 H618 0.929 . S
C646 C643 1.391 . S
C646 C645 1.392 . S
N647 Co591 2.257 . S
N647 C644 1.391 . S
N647 C648 1.388 . S
C648 H619 0.930 . S
C648 C643 1.391 . S
C648 N647 1.388 . S
Co649 O651 2.143 1_556 S
Co649 O657 2.074 1_556 S
Co649 O660 2.093 . S
Co649 O673 2.097 . S
Co649 N690 2.151 . S
Co649 N698 2.214 . S
Co650 O651 2.160 . S
Co650 O656 2.058 . S
Co650 O666 2.057 . S
Co650 O681 2.037 . S
Co650 N685 2.145 . S
Co650 N706 2.257 . S
O651 Co649 2.143 1_554 S
O651 Co650 2.160 . S
C652 O653 1.278 1_556 S
C652 O660 1.224 . S
O653 C652 1.278 1_554 S
C654 O655 1.245 . S
C654 O666 1.232 . S
O655 C654 1.245 . S
O656 Co650 2.058 . S
O656 C682 1.269 . S
O657 Co649 2.074 1_554 S
O657 C682 1.257 . S
H658 C683 0.930 . S
H659 C689 0.930 . S
O660 Co649 2.093 . S
O660 C652 1.224 . S
H661 C693 0.929 . S
H662 C695 0.930 . S
H663 C696 0.930 . S
H664 C694 0.929 . S
H665 C697 0.928 . S
O666 Co650 2.057 . S
O666 C654 1.232 . S
H667 C686 0.929 . S
H668 C687 0.929 . S
H669 C699 0.931 . S
H670 C691 0.929 . S
H671 C700 0.930 . S
H672 C692 0.931 . S
O673 Co649 2.097 . S
O673 C701 1.214 1_556 S
H674 C702 0.929 . S
H675 C703 0.929 . S
H676 C704 0.930 . S
H677 C705 0.929 . S
H678 C707 0.930 . S
H679 C684 0.930 . S
H680 C688 0.930 . S
O681 Co650 2.037 . S
O681 C701 1.234 . S
C682 O656 1.269 . S
C682 O657 1.257 . S
C683 H658 0.930 . S
C683 C686 1.388 . S
C683 C688 1.418 . S
C684 H679 0.930 . S
C684 C687 1.404 . S
C684 C688 1.353 . S
N685 Co650 2.145 . S
N685 C686 1.397 . S
N685 C687 1.334 . S
C686 H667 0.929 . S
C686 C683 1.388 . S
C686 N685 1.397 . S
C687 H668 0.929 . S
C687 C684 1.404 . S
C687 N685 1.334 . S
C688 H680 0.930 . S
C688 C683 1.418 . S
C688 C684 1.353 . S
C689 H659 0.930 . S
C689 N690 1.330 . S
C689 C691 1.446 . S
N690 Co649 2.151 . S
N690 C689 1.330 . S
N690 C694 1.418 . S
C691 H670 0.929 . S
C691 C689 1.446 . S
C691 C692 1.332 . S
C692 H672 0.931 . S
C692 C691 1.332 . S
C692 C693 1.267 . S
C693 H661 0.929 . S
C693 C692 1.267 . S
C693 C694 1.251 . S
C694 H664 0.929 . S
C694 N690 1.418 . S
C694 C693 1.251 . S
C695 H662 0.930 . S
C695 C697 1.406 . S
C695 C700 1.261 . S
C696 H663 0.930 . S
C696 N698 1.325 . S
C696 C699 1.357 . S
C697 H665 0.928 . S
C697 C695 1.406 . S
C697 N698 1.261 . S
N698 Co649 2.214 . S
N698 C696 1.325 . S
N698 C697 1.261 . S
C699 H669 0.931 . S
C699 C696 1.357 . S
C699 C700 1.312 . S
C700 H671 0.930 . S
C700 C695 1.261 . S
C700 C699 1.312 . S
C701 O673 1.214 1_554 S
C701 O681 1.234 . S
C702 H674 0.929 . S
C702 C705 1.391 . S
C702 C707 1.391 . S
C703 H675 0.929 . S
C703 C704 1.390 . S
C703 N706 1.391 . S
C704 H676 0.930 . S
C704 C703 1.390 . S
C704 C705 1.392 . S
C705 H677 0.929 . S
C705 C702 1.391 . S
C705 C704 1.392 . S
N706 Co650 2.257 . S
N706 C703 1.391 . S
N706 C707 1.388 . S
C707 H678 0.930 . S
C707 C702 1.391 . S
C707 N706 1.388 . S
C708 C709 1.349 . S
C708 C710 1.327 . S
C708 H733 0.950 . S
C709 C708 1.349 . S
C709 C725 1.349 . S
C710 C708 1.327 . S
C710 C729 1.429 . S
C710 H734 0.950 . S
C711 C728 1.574 . S
C711 C730 1.368 . S
C711 H735 0.949 . S
H712 C716 0.949 . S
C713 C714 1.349 . S
C713 C715 1.327 . S
C713 H736 0.950 . S
C714 C713 1.349 . S
C714 C726 1.349 . S
C715 C713 1.327 . S
C715 C731 1.429 . S
C715 H737 0.950 . S
C716 H712 0.949 . S
C716 C724 1.574 . S
C716 C732 1.368 . S
H717 C725 0.950 . S
H718 C723 0.950 . S
H719 C724 0.949 . S
H720 C726 0.950 . S
H721 C727 0.950 . S
H722 C728 0.949 . S
C723 H718 0.950 . S
C723 C725 1.327 . S
C723 C729 1.429 . S
C724 C716 1.574 . S
C724 H719 0.949 . S
C724 C730 1.368 . S
C725 C709 1.349 . S
C725 H717 0.950 . S
C725 C723 1.327 . S
C726 C714 1.349 . S
C726 H720 0.950 . S
C726 C727 1.327 . S
C727 H721 0.950 . S
C727 C726 1.327 . S
C727 C731 1.429 . S
C728 C711 1.574 . S
C728 H722 0.949 . S
C728 C732 1.368 . S
C729 C710 1.429 . S
C729 C723 1.429 . S
C729 C730 1.523 . S
C730 C711 1.368 . S
C730 C724 1.368 . S
C730 C729 1.523 . S
C731 C715 1.429 . S
C731 C727 1.429 . S
C731 C732 1.523 . S
C732 C716 1.368 . S
C732 C728 1.368 . S
C732 C731 1.523 . S
H733 C708 0.950 . S
H734 C710 0.950 . S
H735 C711 0.949 . S
H736 C713 0.950 . S
H737 C715 0.950 . S
C738 C739 1.349 . S
C738 C740 1.327 . S
C738 H763 0.950 . S
C739 C738 1.349 . S
C739 C755 1.349 . S
C740 C738 1.327 . S
C740 C759 1.429 . S
C740 H764 0.950 . S
C741 C758 1.574 1_655 S
C741 C760 1.368 . S
C741 H765 0.949 . S
H742 C746 0.949 . S
C743 C744 1.349 . S
C743 C745 1.327 . S
C743 H766 0.950 . S
C744 C743 1.349 . S
C744 C756 1.349 . S
C745 C743 1.327 . S
C745 C761 1.429 . S
C745 H767 0.950 . S
C746 H742 0.949 . S
C746 C754 1.574 1_455 S
C746 C762 1.368 . S
H747 C755 0.950 . S
H748 C753 0.950 . S
H749 C754 0.949 . S
H750 C756 0.950 . S
H751 C757 0.950 . S
H752 C758 0.949 . S
C753 H748 0.950 . S
C753 C755 1.327 . S
C753 C759 1.429 . S
C754 C746 1.574 1_655 S
C754 H749 0.949 . S
C754 C760 1.368 . S
C755 C739 1.349 . S
C755 H747 0.950 . S
C755 C753 1.327 . S
C756 C744 1.349 . S
C756 H750 0.950 . S
C756 C757 1.327 . S
C757 H751 0.950 . S
C757 C756 1.327 . S
C757 C761 1.429 . S
C758 C741 1.574 1_455 S
C758 H752 0.949 . S
C758 C762 1.368 . S
C759 C740 1.429 . S
C759 C753 1.429 . S
C759 C760 1.523 . S
C760 C741 1.368 . S
C760 C754 1.368 . S
C760 C759 1.523 . S
C761 C745 1.429 . S
C761 C757 1.429 . S
C761 C762 1.523 . S
C762 C746 1.368 . S
C762 C758 1.368 . S
C762 C761 1.523 . S
H763 C738 0.950 . S
H764 C740 0.950 . S
H765 C741 0.949 . S
H766 C743 0.950 . S
H767 C745 0.950 . S
C768 C769 1.349 . S
C768 C770 1.327 . S
C768 H793 0.950 . S
C769 C768 1.349 . S
C769 C785 1.349 . S
C770 C768 1.327 . S
C770 C789 1.429 . S
C770 H794 0.950 . S
C771 C788 1.574 1_565 S
C771 C790 1.368 1_554 S
C771 H795 0.949 . S
H772 C776 0.949 . S
C773 C774 1.349 . S
C773 C775 1.327 . S
C773 H796 0.950 . S
C774 C773 1.349 . S
C774 C786 1.349 . S
C775 C773 1.327 . S
C775 C791 1.429 . S
C775 H797 0.950 . S
C776 H772 0.949 . S
C776 C784 1.574 1_545 S
C776 C792 1.368 1_556 S
H777 C785 0.950 . S
H778 C783 0.950 1_554 S
H779 C784 0.949 . S
H780 C786 0.950 . S
H781 C787 0.950 1_556 S
H782 C788 0.949 . S
C783 H778 0.950 1_556 S
C783 C785 1.327 . S
C783 C789 1.429 . S
C784 C776 1.574 1_565 S
C784 H779 0.949 . S
C784 C790 1.368 . S
C785 C769 1.349 . S
C785 H777 0.950 . S
C785 C783 1.327 . S
C786 C774 1.349 . S
C786 H780 0.950 . S
C786 C787 1.327 . S
C787 H781 0.950 1_554 S
C787 C786 1.327 . S
C787 C791 1.429 . S
C788 C771 1.574 1_545 S
C788 H782 0.949 . S
C788 C792 1.368 . S
C789 C770 1.429 . S
C789 C783 1.429 . S
C789 C790 1.523 . S
C790 C771 1.368 1_556 S
C790 C784 1.368 . S
C790 C789 1.523 . S
C791 C775 1.429 . S
C791 C787 1.429 . S
C791 C792 1.523 . S
C792 C776 1.368 1_554 S
C792 C788 1.368 . S
C792 C791 1.523 . S
H793 C768 0.950 . S
H794 C770 0.950 . S
H795 C771 0.949 . S
H796 C773 0.950 . S
H797 C775 0.950 . S
C798 C799 1.349 . S
C798 C800 1.327 . S
C798 H823 0.950 . S
C799 C798 1.349 . S
C799 C815 1.349 . S
C800 C798 1.327 . S
C800 C819 1.429 . S
C800 H824 0.950 . S
C801 C818 1.574 . S
C801 C820 1.368 . S
C801 H825 0.949 . S
H802 C806 0.949 . S
C803 C804 1.349 . S
C803 C805 1.327 . S
C803 H826 0.950 . S
C804 C803 1.349 . S
C804 C816 1.349 . S
C805 C803 1.327 . S
C805 C821 1.429 . S
C805 H827 0.950 . S
C806 H802 0.949 . S
C806 C814 1.574 . S
C806 C822 1.368 . S
H807 C815 0.950 . S
H808 C813 0.950 . S
H809 C814 0.949 . S
H810 C816 0.950 . S
H811 C817 0.950 . S
H812 C818 0.949 . S
C813 H808 0.950 . S
C813 C815 1.327 . S
C813 C819 1.429 . S
C814 C806 1.574 . S
C814 H809 0.949 . S
C814 C820 1.368 . S
C815 C799 1.349 . S
C815 H807 0.950 . S
C815 C813 1.327 . S
C816 C804 1.349 . S
C816 H810 0.950 . S
C816 C817 1.327 . S
C817 H811 0.950 . S
C817 C816 1.327 . S
C817 C821 1.429 . S
C818 C801 1.574 . S
C818 H812 0.949 . S
C818 C822 1.368 . S
C819 C800 1.429 . S
C819 C813 1.429 . S
C819 C820 1.523 . S
C820 C801 1.368 . S
C820 C814 1.368 . S
C820 C819 1.523 . S
C821 C805 1.429 . S
C821 C817 1.429 . S
C821 C822 1.523 . S
C822 C806 1.368 . S
C822 C818 1.368 . S
C822 C821 1.523 . S
H823 C798 0.950 . S
H824 C800 0.950 . S
H825 C801 0.949 . S
H826 C803 0.950 . S
H827 C805 0.950 . S
C828 C829 1.349 . S
C828 C830 1.327 . S
C828 H853 0.950 . S
C829 C828 1.349 . S
C829 C845 1.349 . S
C830 C828 1.327 . S
C830 C849 1.429 . S
C830 H854 0.950 . S
C831 C848 1.574 1_655 S
C831 C850 1.368 . S
C831 H855 0.949 . S
H832 C836 0.949 . S
C833 C834 1.349 . S
C833 C835 1.327 . S
C833 H856 0.950 . S
C834 C833 1.349 . S
C834 C846 1.349 . S
C835 C833 1.327 . S
C835 C851 1.429 . S
C835 H857 0.950 . S
C836 H832 0.949 . S
C836 C844 1.574 1_455 S
C836 C852 1.368 . S
H837 C845 0.950 . S
H838 C843 0.950 . S
H839 C844 0.949 . S
H840 C846 0.950 . S
H841 C847 0.950 . S
H842 C848 0.949 . S
C843 H838 0.950 . S
C843 C845 1.327 . S
C843 C849 1.429 . S
C844 C836 1.574 1_655 S
C844 H839 0.949 . S
C844 C850 1.368 . S
C845 C829 1.349 . S
C845 H837 0.950 . S
C845 C843 1.327 . S
C846 C834 1.349 . S
C846 H840 0.950 . S
C846 C847 1.327 . S
C847 H841 0.950 . S
C847 C846 1.327 . S
C847 C851 1.429 . S
C848 C831 1.574 1_455 S
C848 H842 0.949 . S
C848 C852 1.368 . S
C849 C830 1.429 . S
C849 C843 1.429 . S
C849 C850 1.523 . S
C850 C831 1.368 . S
C850 C844 1.368 . S
C850 C849 1.523 . S
C851 C835 1.429 . S
C851 C847 1.429 . S
C851 C852 1.523 . S
C852 C836 1.368 . S
C852 C848 1.368 . S
C852 C851 1.523 . S
H853 C828 0.950 . S
H854 C830 0.950 . S
H855 C831 0.949 . S
H856 C833 0.950 . S
H857 C835 0.950 . S
C858 C859 1.349 . S
C858 C860 1.327 . S
C858 H883 0.950 . S
C859 C858 1.349 . S
C859 C875 1.349 . S
C860 C858 1.327 . S
C860 C879 1.429 . S
C860 H884 0.950 . S
C861 C878 1.574 1_565 S
C861 C880 1.368 . S
C861 H885 0.949 . S
H862 C866 0.949 . S
C863 C864 1.349 . S
C863 C865 1.327 . S
C863 H886 0.950 . S
C864 C863 1.349 . S
C864 C876 1.349 . S
C865 C863 1.327 . S
C865 C881 1.429 . S
C865 H887 0.950 . S
C866 H862 0.949 . S
C866 C874 1.574 1_545 S
C866 C882 1.368 . S
H867 C875 0.950 . S
H868 C873 0.950 . S
H869 C874 0.949 . S
H870 C876 0.950 . S
H871 C877 0.950 . S
H872 C878 0.949 . S
C873 H868 0.950 . S
C873 C875 1.327 . S
C873 C879 1.429 . S
C874 C866 1.574 1_565 S
C874 H869 0.949 . S
C874 C880 1.368 1_556 S
C875 C859 1.349 . S
C875 H867 0.950 . S
C875 C873 1.327 . S
C876 C864 1.349 . S
C876 H870 0.950 . S
C876 C877 1.327 . S
C877 H871 0.950 . S
C877 C876 1.327 . S
C877 C881 1.429 . S
C878 C861 1.574 1_545 S
C878 H872 0.949 . S
C878 C882 1.368 1_554 S
C879 C860 1.429 . S
C879 C873 1.429 . S
C879 C880 1.523 . S
C880 C861 1.368 . S
C880 C874 1.368 1_554 S
C880 C879 1.523 . S
C881 C865 1.429 . S
C881 C877 1.429 . S
C881 C882 1.523 . S
C882 C866 1.368 . S
C882 C878 1.368 1_556 S
C882 C881 1.523 . S
H883 C858 0.950 . S
H884 C860 0.950 . S
H885 C861 0.949 . S
H886 C863 0.950 . S
H887 C865 0.950 . S
C888 C889 1.349 . S
C888 C890 1.327 . S
C888 H913 0.950 . S
C889 C888 1.349 . S
C889 C905 1.349 . S
C890 C888 1.327 . S
C890 C909 1.429 . S
C890 H914 0.950 . S
C891 C908 1.574 1_556 S
C891 C910 1.368 . S
C891 H915 0.949 . S
H892 C896 0.949 . S
C893 C894 1.349 . S
C893 C895 1.327 . S
C893 H916 0.950 . S
C894 C893 1.349 . S
C894 C906 1.349 . S
C895 C893 1.327 . S
C895 C911 1.429 . S
C895 H917 0.950 . S
C896 H892 0.949 . S
C896 C904 1.574 1_554 S
C896 C912 1.368 . S
H897 C905 0.950 . S
H898 C903 0.950 . S
H899 C904 0.949 . S
H900 C906 0.950 . S
H901 C907 0.950 . S
H902 C908 0.949 . S
C903 H898 0.950 . S
C903 C905 1.327 . S
C903 C909 1.429 . S
C904 C896 1.574 1_556 S
C904 H899 0.949 . S
C904 C910 1.368 . S
C905 C889 1.349 . S
C905 H897 0.950 . S
C905 C903 1.327 . S
C906 C894 1.349 . S
C906 H900 0.950 . S
C906 C907 1.327 . S
C907 H901 0.950 . S
C907 C906 1.327 . S
C907 C911 1.429 . S
C908 C891 1.574 1_554 S
C908 H902 0.949 . S
C908 C912 1.368 . S
C909 C890 1.429 . S
C909 C903 1.429 . S
C909 C910 1.523 . S
C910 C891 1.368 . S
C910 C904 1.368 . S
C910 C909 1.523 . S
C911 C895 1.429 . S
C911 C907 1.429 . S
C911 C912 1.523 . S
C912 C896 1.368 . S
C912 C908 1.368 . S
C912 C911 1.523 . S
H913 C888 0.950 . S
H914 C890 0.950 . S
H915 C891 0.949 . S
H916 C893 0.950 . S
H917 C895 0.950 . S
C918 C919 1.349 . S
C918 C920 1.327 . S
C918 H943 0.950 . S
C919 C918 1.349 . S
C919 C935 1.349 . S
C920 C918 1.327 . S
C920 C939 1.429 . S
C920 H944 0.950 . S
C921 C938 1.574 . S
C921 C940 1.368 . S
C921 H945 0.949 . S
H922 C926 0.949 . S
C923 C924 1.349 . S
C923 C925 1.327 . S
C923 H946 0.950 . S
C924 C923 1.349 . S
C924 C936 1.349 . S
C925 C923 1.327 . S
C925 C941 1.429 . S
C925 H947 0.950 . S
C926 H922 0.949 . S
C926 C934 1.574 . S
C926 C942 1.368 . S
H927 C935 0.950 . S
H928 C933 0.950 . S
H929 C934 0.949 . S
H930 C936 0.950 . S
H931 C937 0.950 . S
H932 C938 0.949 . S
C933 H928 0.950 . S
C933 C935 1.327 . S
C933 C939 1.429 . S
C934 C926 1.574 . S
C934 H929 0.949 . S
C934 C940 1.368 . S
C935 C919 1.349 . S
C935 H927 0.950 . S
C935 C933 1.327 . S
C936 C924 1.349 . S
C936 H930 0.950 . S
C936 C937 1.327 . S
C937 H931 0.950 . S
C937 C936 1.327 . S
C937 C941 1.429 . S
C938 C921 1.574 . S
C938 H932 0.949 . S
C938 C942 1.368 . S
C939 C920 1.429 . S
C939 C933 1.429 . S
C939 C940 1.523 . S
C940 C921 1.368 . S
C940 C934 1.368 . S
C940 C939 1.523 . S
C941 C925 1.429 . S
C941 C937 1.429 . S
C941 C942 1.523 . S
C942 C926 1.368 . S
C942 C938 1.368 . S
C942 C941 1.523 . S
H943 C918 0.950 . S
H944 C920 0.950 . S
H945 C921 0.949 . S
H946 C923 0.950 . S
H947 C925 0.950 . S
C948 C949 1.349 . S
C948 C950 1.327 . S
C948 H973 0.950 . S
C949 C948 1.349 . S
C949 C965 1.349 . S
C950 C948 1.327 . S
C950 C969 1.429 . S
C950 H974 0.950 . S
C951 C968 1.574 . S
C951 C970 1.368 . S
C951 H975 0.949 . S
H952 C956 0.949 . S
C953 C954 1.349 . S
C953 C955 1.327 . S
C953 H976 0.950 . S
C954 C953 1.349 . S
C954 C966 1.349 . S
C955 C953 1.327 . S
C955 C971 1.429 . S
C955 H977 0.950 . S
C956 H952 0.949 . S
C956 C964 1.574 . S
C956 C972 1.368 . S
H957 C965 0.950 . S
H958 C963 0.950 . S
H959 C964 0.949 . S
H960 C966 0.950 . S
H961 C967 0.950 . S
H962 C968 0.949 . S
C963 H958 0.950 . S
C963 C965 1.327 . S
C963 C969 1.429 . S
C964 C956 1.574 . S
C964 H959 0.949 . S
C964 C970 1.368 . S
C965 C949 1.349 . S
C965 H957 0.950 . S
C965 C963 1.327 . S
C966 C954 1.349 . S
C966 H960 0.950 . S
C966 C967 1.327 . S
C967 H961 0.950 . S
C967 C966 1.327 . S
C967 C971 1.429 . S
C968 C951 1.574 . S
C968 H962 0.949 . S
C968 C972 1.368 . S
C969 C950 1.429 . S
C969 C963 1.429 . S
C969 C970 1.523 . S
C970 C951 1.368 . S
C970 C964 1.368 . S
C970 C969 1.523 . S
C971 C955 1.429 . S
C971 C967 1.429 . S
C971 C972 1.523 . S
C972 C956 1.368 . S
C972 C968 1.368 . S
C972 C971 1.523 . S
H973 C948 0.950 . S
H974 C950 0.950 . S
H975 C951 0.949 . S
H976 C953 0.950 . S
H977 C955 0.950 . S
C978 C979 1.349 . S
C978 C980 1.327 . S
C978 H1003 0.950 . S
C979 C978 1.349 . S
C979 C995 1.349 . S
C980 C978 1.327 . S
C980 C999 1.429 . S
C980 H1004 0.950 . S
C981 C998 1.574 1_554 S
C981 C1000 1.368 . S
C981 H1005 0.949 . S
H982 C986 0.949 . S
C983 C984 1.349 . S
C983 C985 1.327 . S
C983 H1006 0.950 . S
C984 C983 1.349 . S
C984 C996 1.349 . S
C985 C983 1.327 . S
C985 C1001 1.429 . S
C985 H1007 0.950 . S
C986 H982 0.949 . S
C986 C994 1.574 1_556 S
C986 C1002 1.368 . S
H987 C995 0.950 . S
H988 C993 0.950 . S
H989 C994 0.949 . S
H990 C996 0.950 . S
H991 C997 0.950 . S
H992 C998 0.949 . S
C993 H988 0.950 . S
C993 C995 1.327 . S
C993 C999 1.429 . S
C994 C986 1.574 1_554 S
C994 H989 0.949 . S
C994 C1000 1.368 . S
C995 C979 1.349 . S
C995 H987 0.950 . S
C995 C993 1.327 . S
C996 C984 1.349 . S
C996 H990 0.950 . S
C996 C997 1.327 . S
C997 H991 0.950 . S
C997 C996 1.327 . S
C997 C1001 1.429 . S
C998 C981 1.574 1_556 S
C998 H992 0.949 . S
C998 C1002 1.368 . S
C999 C980 1.429 . S
C999 C993 1.429 . S
C999 C1000 1.523 . S
C1000 C981 1.368 . S
C1000 C994 1.368 . S
C1000 C999 1.523 . S
C1001 C985 1.429 . S
C1001 C997 1.429 . S
C1001 C1002 1.523 . S
C1002 C986 1.368 . S
C1002 C998 1.368 . S
C1002 C1001 1.523 . S
H1003 C978 0.950 . S
H1004 C980 0.950 . S
H1005 C981 0.949 . S
H1006 C983 0.950 . S
H1007 C985 0.950 . S
C1008 C1009 1.349 . S
C1008 C1010 1.327 . S
C1008 H1033 0.950 . S
C1009 C1008 1.349 . S
C1009 C1025 1.349 . S
C1010 C1008 1.327 . S
C1010 C1029 1.429 . S
C1010 H1034 0.950 . S
C1011 C1028 1.574 . S
C1011 C1030 1.368 . S
C1011 H1035 0.949 . S
H1012 C1016 0.949 . S
C1013 C1014 1.349 . S
C1013 C1015 1.327 . S
C1013 H1036 0.950 . S
C1014 C1013 1.349 . S
C1014 C1026 1.349 . S
C1015 C1013 1.327 . S
C1015 C1031 1.429 . S
C1015 H1037 0.950 . S
C1016 H1012 0.949 . S
C1016 C1024 1.574 . S
C1016 C1032 1.368 . S
H1017 C1025 0.950 . S
H1018 C1023 0.950 . S
H1019 C1024 0.949 . S
H1020 C1026 0.950 . S
H1021 C1027 0.950 . S
H1022 C1028 0.949 . S
C1023 H1018 0.950 . S
C1023 C1025 1.327 . S
C1023 C1029 1.429 . S
C1024 C1016 1.574 . S
C1024 H1019 0.949 . S
C1024 C1030 1.368 . S
C1025 C1009 1.349 . S
C1025 H1017 0.950 . S
C1025 C1023 1.327 . S
C1026 C1014 1.349 . S
C1026 H1020 0.950 . S
C1026 C1027 1.327 . S
C1027 H1021 0.950 . S
C1027 C1026 1.327 . S
C1027 C1031 1.429 . S
C1028 C1011 1.574 . S
C1028 H1022 0.949 . S
C1028 C1032 1.368 . S
C1029 C1010 1.429 . S
C1029 C1023 1.429 . S
C1029 C1030 1.523 . S
C1030 C1011 1.368 . S
C1030 C1024 1.368 . S
C1030 C1029 1.523 . S
C1031 C1015 1.429 . S
C1031 C1027 1.429 . S
C1031 C1032 1.523 . S
C1032 C1016 1.368 . S
C1032 C1028 1.368 . S
C1032 C1031 1.523 . S
H1033 C1008 0.950 . S
H1034 C1010 0.950 . S
H1035 C1011 0.949 . S
H1036 C1013 0.950 . S
H1037 C1015 0.950 . S
C1038 C1039 1.349 . S
C1038 C1040 1.327 . S
C1038 H1063 0.950 . S
C1039 C1038 1.349 . S
C1039 C1055 1.349 . S
C1040 C1038 1.327 . S
C1040 C1059 1.429 . S
C1040 H1064 0.950 . S
C1041 C1058 1.574 . S
C1041 C1060 1.368 . S
C1041 H1065 0.949 . S
H1042 C1046 0.949 . S
C1043 C1044 1.349 . S
C1043 C1045 1.327 . S
C1043 H1066 0.950 . S
C1044 C1043 1.349 . S
C1044 C1056 1.349 . S
C1045 C1043 1.327 . S
C1045 C1061 1.429 . S
C1045 H1067 0.950 . S
C1046 H1042 0.949 . S
C1046 C1054 1.574 . S
C1046 C1062 1.368 . S
H1047 C1055 0.950 . S
H1048 C1053 0.950 . S
H1049 C1054 0.949 . S
H1050 C1056 0.950 . S
H1051 C1057 0.950 . S
H1052 C1058 0.949 . S
C1053 H1048 0.950 . S
C1053 C1055 1.327 . S
C1053 C1059 1.429 . S
C1054 C1046 1.574 . S
C1054 H1049 0.949 . S
C1054 C1060 1.368 . S
C1055 C1039 1.349 . S
C1055 H1047 0.950 . S
C1055 C1053 1.327 . S
C1056 C1044 1.349 . S
C1056 H1050 0.950 . S
C1056 C1057 1.327 . S
C1057 H1051 0.950 . S
C1057 C1056 1.327 . S
C1057 C1061 1.429 . S
C1058 C1041 1.574 . S
C1058 H1052 0.949 . S
C1058 C1062 1.368 . S
C1059 C1040 1.429 . S
C1059 C1053 1.429 . S
C1059 C1060 1.523 . S
C1060 C1041 1.368 . S
C1060 C1054 1.368 . S
C1060 C1059 1.523 . S
C1061 C1045 1.429 . S
C1061 C1057 1.429 . S
C1061 C1062 1.523 . S
C1062 C1046 1.368 . S
C1062 C1058 1.368 . S
C1062 C1061 1.523 . S
H1063 C1038 0.950 . S
H1064 C1040 0.950 . S
H1065 C1041 0.949 . S
H1066 C1043 0.950 . S
H1067 C1045 0.950 . S
C1068 C1069 1.349 . S
C1068 C1070 1.327 . S
C1068 H1093 0.950 . S
C1069 C1068 1.349 . S
C1069 C1085 1.349 . S
C1070 C1068 1.327 . S
C1070 C1089 1.429 . S
C1070 H1094 0.950 . S
C1071 C1088 1.574 . S
C1071 C1090 1.368 . S
C1071 H1095 0.949 . S
H1072 C1076 0.949 . S
C1073 C1074 1.349 . S
C1073 C1075 1.327 . S
C1073 H1096 0.950 . S
C1074 C1073 1.349 . S
C1074 C1086 1.349 . S
C1075 C1073 1.327 . S
C1075 C1091 1.429 . S
C1075 H1097 0.950 . S
C1076 H1072 0.949 . S
C1076 C1084 1.574 . S
C1076 C1092 1.368 . S
H1077 C1085 0.950 . S
H1078 C1083 0.950 . S
H1079 C1084 0.949 . S
H1080 C1086 0.950 . S
H1081 C1087 0.950 . S
H1082 C1088 0.949 . S
C1083 H1078 0.950 . S
C1083 C1085 1.327 . S
C1083 C1089 1.429 . S
C1084 C1076 1.574 . S
C1084 H1079 0.949 . S
C1084 C1090 1.368 . S
C1085 C1069 1.349 . S
C1085 H1077 0.950 . S
C1085 C1083 1.327 . S
C1086 C1074 1.349 . S
C1086 H1080 0.950 . S
C1086 C1087 1.327 . S
C1087 H1081 0.950 . S
C1087 C1086 1.327 . S
C1087 C1091 1.429 . S
C1088 C1071 1.574 . S
C1088 H1082 0.949 . S
C1088 C1092 1.368 . S
C1089 C1070 1.429 . S
C1089 C1083 1.429 . S
C1089 C1090 1.523 . S
C1090 C1071 1.368 . S
C1090 C1084 1.368 . S
C1090 C1089 1.523 . S
C1091 C1075 1.429 . S
C1091 C1087 1.429 . S
C1091 C1092 1.523 . S
C1092 C1076 1.368 . S
C1092 C1088 1.368 . S
C1092 C1091 1.523 . S
H1093 C1068 0.950 . S
H1094 C1070 0.950 . S
H1095 C1071 0.949 . S
H1096 C1073 0.950 . S
H1097 C1075 0.950 . S
C1098 C1099 1.349 . S
C1098 C1100 1.327 . S
C1098 H1123 0.950 . S
C1099 C1098 1.349 . S
C1099 C1115 1.349 . S
C1100 C1098 1.327 . S
C1100 C1119 1.429 . S
C1100 H1124 0.950 . S
C1101 C1118 1.574 . S
C1101 C1120 1.368 . S
C1101 H1125 0.949 . S
H1102 C1106 0.949 . S
C1103 C1104 1.349 . S
C1103 C1105 1.327 . S
C1103 H1126 0.950 . S
C1104 C1103 1.349 . S
C1104 C1116 1.349 . S
C1105 C1103 1.327 . S
C1105 C1121 1.429 . S
C1105 H1127 0.950 . S
C1106 H1102 0.949 . S
C1106 C1114 1.574 . S
C1106 C1122 1.368 . S
H1107 C1115 0.950 . S
H1108 C1113 0.950 . S
H1109 C1114 0.949 . S
H1110 C1116 0.950 . S
H1111 C1117 0.950 . S
H1112 C1118 0.949 . S
C1113 H1108 0.950 . S
C1113 C1115 1.327 . S
C1113 C1119 1.429 . S
C1114 C1106 1.574 . S
C1114 H1109 0.949 . S
C1114 C1120 1.368 . S
C1115 C1099 1.349 . S
C1115 H1107 0.950 . S
C1115 C1113 1.327 . S
C1116 C1104 1.349 . S
C1116 H1110 0.950 . S
C1116 C1117 1.327 . S
C1117 H1111 0.950 . S
C1117 C1116 1.327 . S
C1117 C1121 1.429 . S
C1118 C1101 1.574 . S
C1118 H1112 0.949 . S
C1118 C1122 1.368 . S
C1119 C1100 1.429 . S
C1119 C1113 1.429 . S
C1119 C1120 1.523 . S
C1120 C1101 1.368 . S
C1120 C1114 1.368 . S
C1120 C1119 1.523 . S
C1121 C1105 1.429 . S
C1121 C1117 1.429 . S
C1121 C1122 1.523 . S
C1122 C1106 1.368 . S
C1122 C1118 1.368 . S
C1122 C1121 1.523 . S
H1123 C1098 0.950 . S
H1124 C1100 0.950 . S
H1125 C1101 0.949 . S
H1126 C1103 0.950 . S
H1127 C1105 0.950 . S
C1128 C1129 1.349 . S
C1128 C1130 1.327 . S
C1128 H1153 0.950 . S
C1129 C1128 1.349 . S
C1129 C1145 1.349 . S
C1130 C1128 1.327 . S
C1130 C1149 1.429 . S
C1130 H1154 0.950 . S
C1131 C1148 1.574 . S
C1131 C1150 1.368 . S
C1131 H1155 0.949 . S
H1132 C1136 0.949 . S
C1133 C1134 1.349 . S
C1133 C1135 1.327 . S
C1133 H1156 0.950 . S
C1134 C1133 1.349 . S
C1134 C1146 1.349 . S
C1135 C1133 1.327 . S
C1135 C1151 1.429 . S
C1135 H1157 0.950 . S
C1136 H1132 0.949 . S
C1136 C1144 1.574 . S
C1136 C1152 1.368 . S
H1137 C1145 0.950 1_556 S
H1138 C1143 0.950 . S
H1139 C1144 0.949 . S
H1140 C1146 0.950 . S
H1141 C1147 0.950 . S
H1142 C1148 0.949 . S
C1143 H1138 0.950 . S
C1143 C1145 1.327 . S
C1143 C1149 1.429 . S
C1144 C1136 1.574 . S
C1144 H1139 0.949 . S
C1144 C1150 1.368 . S
C1145 C1129 1.349 . S
C1145 H1137 0.950 1_554 S
C1145 C1143 1.327 . S
C1146 C1134 1.349 . S
C1146 H1140 0.950 . S
C1146 C1147 1.327 . S
C1147 H1141 0.950 . S
C1147 C1146 1.327 . S
C1147 C1151 1.429 . S
C1148 C1131 1.574 . S
C1148 H1142 0.949 . S
C1148 C1152 1.368 . S
C1149 C1130 1.429 . S
C1149 C1143 1.429 . S
C1149 C1150 1.523 . S
C1150 C1131 1.368 . S
C1150 C1144 1.368 . S
C1150 C1149 1.523 . S
C1151 C1135 1.429 . S
C1151 C1147 1.429 . S
C1151 C1152 1.523 . S
C1152 C1136 1.368 . S
C1152 C1148 1.368 . S
C1152 C1151 1.523 . S
H1153 C1128 0.950 . S
H1154 C1130 0.950 . S
H1155 C1131 0.949 . S
H1156 C1133 0.950 . S
H1157 C1135 0.950 . S
C1158 C1159 1.349 . S
C1158 C1160 1.327 . S
C1158 H1183 0.950 . S
C1159 C1158 1.349 . S
C1159 C1175 1.349 . S
C1160 C1158 1.327 . S
C1160 C1179 1.429 . S
C1160 H1184 0.950 . S
C1161 C1178 1.574 . S
C1161 C1180 1.368 . S
C1161 H1185 0.949 . S
H1162 C1166 0.949 . S
C1163 C1164 1.349 . S
C1163 C1165 1.327 . S
C1163 H1186 0.950 . S
C1164 C1163 1.349 . S
C1164 C1176 1.349 . S
C1165 C1163 1.327 . S
C1165 C1181 1.429 . S
C1165 H1187 0.950 . S
C1166 H1162 0.949 . S
C1166 C1174 1.574 . S
C1166 C1182 1.368 . S
H1167 C1175 0.950 . S
H1168 C1173 0.950 . S
H1169 C1174 0.949 . S
H1170 C1176 0.950 . S
H1171 C1177 0.950 . S
H1172 C1178 0.949 . S
C1173 H1168 0.950 . S
C1173 C1175 1.327 . S
C1173 C1179 1.429 . S
C1174 C1166 1.574 . S
C1174 H1169 0.949 . S
C1174 C1180 1.368 . S
C1175 C1159 1.349 . S
C1175 H1167 0.950 . S
C1175 C1173 1.327 . S
C1176 C1164 1.349 . S
C1176 H1170 0.950 . S
C1176 C1177 1.327 . S
C1177 H1171 0.950 . S
C1177 C1176 1.327 . S
C1177 C1181 1.429 . S
C1178 C1161 1.574 . S
C1178 H1172 0.949 . S
C1178 C1182 1.368 . S
C1179 C1160 1.429 . S
C1179 C1173 1.429 . S
C1179 C1180 1.523 . S
C1180 C1161 1.368 . S
C1180 C1174 1.368 . S
C1180 C1179 1.523 . S
C1181 C1165 1.429 . S
C1181 C1177 1.429 . S
C1181 C1182 1.523 . S
C1182 C1166 1.368 . S
C1182 C1178 1.368 . S
C1182 C1181 1.523 . S
H1183 C1158 0.950 . S
H1184 C1160 0.950 . S
H1185 C1161 0.949 . S
H1186 C1163 0.950 . S
H1187 C1165 0.950 . S
C1188 C1189 1.349 . S
C1188 C1190 1.327 . S
C1188 H1213 0.950 . S
C1189 C1188 1.349 . S
C1189 C1205 1.349 . S
C1190 C1188 1.327 . S
C1190 C1209 1.429 . S
C1190 H1214 0.950 . S
C1191 C1208 1.574 . S
C1191 C1210 1.368 . S
C1191 H1215 0.949 . S
H1192 C1196 0.949 . S
C1193 C1194 1.349 . S
C1193 C1195 1.327 . S
C1193 H1216 0.950 . S
C1194 C1193 1.349 . S
C1194 C1206 1.349 . S
C1195 C1193 1.327 . S
C1195 C1211 1.429 . S
C1195 H1217 0.950 . S
C1196 H1192 0.949 . S
C1196 C1204 1.574 . S
C1196 C1212 1.368 . S
H1197 C1205 0.950 . S
H1198 C1203 0.950 . S
H1199 C1204 0.949 . S
H1200 C1206 0.950 . S
H1201 C1207 0.950 . S
H1202 C1208 0.949 . S
C1203 H1198 0.950 . S
C1203 C1205 1.327 . S
C1203 C1209 1.429 . S
C1204 C1196 1.574 . S
C1204 H1199 0.949 . S
C1204 C1210 1.368 . S
C1205 C1189 1.349 . S
C1205 H1197 0.950 . S
C1205 C1203 1.327 . S
C1206 C1194 1.349 . S
C1206 H1200 0.950 . S
C1206 C1207 1.327 . S
C1207 H1201 0.950 . S
C1207 C1206 1.327 . S
C1207 C1211 1.429 . S
C1208 C1191 1.574 . S
C1208 H1202 0.949 . S
C1208 C1212 1.368 . S
C1209 C1190 1.429 . S
C1209 C1203 1.429 . S
C1209 C1210 1.523 . S
C1210 C1191 1.368 . S
C1210 C1204 1.368 . S
C1210 C1209 1.523 . S
C1211 C1195 1.429 . S
C1211 C1207 1.429 . S
C1211 C1212 1.523 . S
C1212 C1196 1.368 . S
C1212 C1208 1.368 . S
C1212 C1211 1.523 . S
H1213 C1188 0.950 . S
H1214 C1190 0.950 . S
H1215 C1191 0.949 . S
H1216 C1193 0.950 . S
H1217 C1195 0.950 . S
C1218 C1219 1.349 . S
C1218 C1220 1.327 . S
C1218 H1243 0.931 1_554 S
C1219 C1218 1.349 . S
C1219 C1235 1.349 . S
C1220 C1218 1.327 . S
C1220 C1239 1.429 . S
C1220 H1244 0.950 . S
C1221 C1238 1.574 . S
C1221 C1240 1.368 . S
C1221 H1245 0.949 . S
H1222 C1226 0.949 . S
C1223 C1224 1.349 . S
C1223 C1225 1.327 . S
C1223 H1246 0.950 . S
C1224 C1223 1.349 . S
C1224 C1236 1.349 . S
C1225 C1223 1.327 . S
C1225 C1241 1.429 . S
C1225 H1247 0.950 . S
C1226 H1222 0.949 . S
C1226 C1234 1.574 . S
C1226 C1242 1.368 . S
H1227 C1235 0.950 . S
H1228 C1233 0.950 . S
H1229 C1234 0.949 . S
H1230 C1236 0.950 . S
H1231 C1237 0.950 . S
H1232 C1238 0.949 . S
C1233 H1228 0.950 . S
C1233 C1235 1.327 . S
C1233 C1239 1.429 . S
C1234 C1226 1.574 . S
C1234 H1229 0.949 . S
C1234 C1240 1.368 . S
C1235 C1219 1.349 . S
C1235 H1227 0.950 . S
C1235 C1233 1.327 . S
C1236 C1224 1.349 . S
C1236 H1230 0.950 . S
C1236 C1237 1.327 . S
C1237 H1231 0.950 . S
C1237 C1236 1.327 . S
C1237 C1241 1.429 . S
C1238 C1221 1.574 . S
C1238 H1232 0.949 . S
C1238 C1242 1.368 . S
C1239 C1220 1.429 . S
C1239 C1233 1.429 . S
C1239 C1240 1.523 . S
C1240 C1221 1.368 . S
C1240 C1234 1.368 . S
C1240 C1239 1.523 . S
C1241 C1225 1.429 . S
C1241 C1237 1.429 . S
C1241 C1242 1.523 . S
C1242 C1226 1.368 . S
C1242 C1238 1.368 . S
C1242 C1241 1.523 . S
H1243 C1218 0.931 1_556 S
H1244 C1220 0.950 . S
H1245 C1221 0.949 . S
H1246 C1223 0.950 . S
H1247 C1225 0.950 . S
C1248 C1249 1.349 . S
C1248 C1250 1.327 . S
C1248 H1273 0.950 . S
C1249 C1248 1.349 . S
C1249 C1265 1.349 . S
C1250 C1248 1.327 . S
C1250 C1269 1.429 . S
C1250 H1274 0.950 . S
C1251 C1268 1.574 . S
C1251 C1270 1.368 . S
C1251 H1275 0.949 . S
H1252 C1256 0.949 . S
C1253 C1254 1.349 . S
C1253 C1255 1.327 . S
C1253 H1276 0.950 . S
C1254 C1253 1.349 . S
C1254 C1266 1.349 . S
C1255 C1253 1.327 . S
C1255 C1271 1.429 . S
C1255 H1277 0.950 . S
C1256 H1252 0.949 . S
C1256 C1264 1.574 . S
C1256 C1272 1.368 . S
H1257 C1265 0.950 . S
H1258 C1263 0.950 . S
H1259 C1264 0.949 . S
H1260 C1266 0.950 . S
H1261 C1267 0.950 . S
H1262 C1268 0.949 . S
C1263 H1258 0.950 . S
C1263 C1265 1.327 . S
C1263 C1269 1.429 . S
C1264 C1256 1.574 . S
C1264 H1259 0.949 . S
C1264 C1270 1.368 . S
C1265 C1249 1.349 . S
C1265 H1257 0.950 . S
C1265 C1263 1.327 . S
C1266 C1254 1.349 . S
C1266 H1260 0.950 . S
C1266 C1267 1.327 . S
C1267 H1261 0.950 . S
C1267 C1266 1.327 . S
C1267 C1271 1.429 . S
C1268 C1251 1.574 . S
C1268 H1262 0.949 . S
C1268 C1272 1.368 . S
C1269 C1250 1.429 . S
C1269 C1263 1.429 . S
C1269 C1270 1.523 . S
C1270 C1251 1.368 . S
C1270 C1264 1.368 . S
C1270 C1269 1.523 . S
C1271 C1255 1.429 . S
C1271 C1267 1.429 . S
C1271 C1272 1.523 . S
C1272 C1256 1.368 . S
C1272 C1268 1.368 . S
C1272 C1271 1.523 . S
H1273 C1248 0.950 . S
H1274 C1250 0.950 . S
H1275 C1251 0.949 . S
H1276 C1253 0.950 . S
H1277 C1255 0.950 . S
C1278 C1279 1.349 . S
C1278 C1280 1.327 . S
C1278 H1303 0.950 . S
C1279 C1278 1.349 . S
C1279 C1295 1.349 . S
C1280 C1278 1.327 . S
C1280 C1299 1.429 . S
C1280 H1304 0.950 . S
C1281 C1298 1.574 . S
C1281 C1300 1.368 . S
C1281 H1305 0.949 . S
H1282 C1286 0.949 . S
C1283 C1284 1.349 . S
C1283 C1285 1.327 . S
C1283 H1306 0.950 . S
C1284 C1283 1.349 . S
C1284 C1296 1.349 . S
C1285 C1283 1.327 . S
C1285 C1301 1.429 . S
C1285 H1307 0.950 . S
C1286 H1282 0.949 . S
C1286 C1294 1.574 . S
C1286 C1302 1.368 . S
H1287 C1295 0.950 . S
H1288 C1293 0.950 . S
H1289 C1294 0.949 . S
H1290 C1296 0.950 . S
H1291 C1297 0.950 . S
H1292 C1298 0.949 . S
C1293 H1288 0.950 . S
C1293 C1295 1.327 . S
C1293 C1299 1.429 . S
C1294 C1286 1.574 . S
C1294 H1289 0.949 . S
C1294 C1300 1.368 . S
C1295 C1279 1.349 . S
C1295 H1287 0.950 . S
C1295 C1293 1.327 . S
C1296 C1284 1.349 . S
C1296 H1290 0.950 . S
C1296 C1297 1.327 . S
C1297 H1291 0.950 . S
C1297 C1296 1.327 . S
C1297 C1301 1.429 . S
C1298 C1281 1.574 . S
C1298 H1292 0.949 . S
C1298 C1302 1.368 . S
C1299 C1280 1.429 . S
C1299 C1293 1.429 . S
C1299 C1300 1.523 . S
C1300 C1281 1.368 . S
C1300 C1294 1.368 . S
C1300 C1299 1.523 . S
C1301 C1285 1.429 . S
C1301 C1297 1.429 . S
C1301 C1302 1.523 . S
C1302 C1286 1.368 . S
C1302 C1298 1.368 . S
C1302 C1301 1.523 . S
H1303 C1278 0.950 . S
H1304 C1280 0.950 . S
H1305 C1281 0.949 . S
H1306 C1283 0.950 . S
H1307 C1285 0.950 . S
C1308 C1309 1.349 . S
C1308 C1310 1.327 . S
C1308 H1333 0.950 . S
C1309 C1308 1.349 . S
C1309 C1325 1.349 1_556 S
C1310 C1308 1.327 . S
C1310 C1329 1.429 . S
C1310 H1334 0.950 . S
C1311 C1328 1.574 . S
C1311 C1330 1.368 1_554 S
C1311 H1335 0.949 . S
H1312 C1316 0.949 . S
C1313 C1314 1.349 . S
C1313 C1315 1.327 . S
C1313 H1336 0.950 . S
C1314 C1313 1.349 . S
C1314 C1326 1.349 1_554 S
C1315 C1313 1.327 . S
C1315 C1331 1.429 . S
C1315 H1337 0.950 . S
C1316 H1312 0.949 . S
C1316 C1324 1.574 . S
C1316 C1332 1.368 1_556 S
H1317 C1325 0.950 . S
H1318 C1323 0.950 . S
H1319 C1324 0.949 . S
H1320 C1326 0.950 . S
H1321 C1327 0.950 . S
H1322 C1328 0.949 . S
C1323 H1318 0.950 . S
C1323 C1325 1.327 . S
C1323 C1329 1.429 1_554 S
C1324 C1316 1.574 . S
C1324 H1319 0.949 . S
C1324 C1330 1.368 . S
C1325 C1309 1.349 1_554 S
C1325 H1317 0.950 . S
C1325 C1323 1.327 . S
C1326 C1314 1.349 1_556 S
C1326 H1320 0.950 . S
C1326 C1327 1.327 . S
C1327 H1321 0.950 . S
C1327 C1326 1.327 . S
C1327 C1331 1.429 1_556 S
C1328 C1311 1.574 . S
C1328 H1322 0.949 . S
C1328 C1332 1.368 . S
C1329 C1310 1.429 . S
C1329 C1323 1.429 1_556 S
C1329 C1330 1.523 . S
C1330 C1311 1.368 1_556 S
C1330 C1324 1.368 . S
C1330 C1329 1.523 . S
C1331 C1315 1.429 . S
C1331 C1327 1.429 1_554 S
C1331 C1332 1.523 . S
C1332 C1316 1.368 1_554 S
C1332 C1328 1.368 . S
C1332 C1331 1.523 . S
H1333 C1308 0.950 . S
H1334 C1310 0.950 . S
H1335 C1311 0.949 . S
H1336 C1313 0.950 . S
H1337 C1315 0.950 . S
C1338 C1339 1.349 . S
C1338 C1340 1.327 . S
C1338 H1363 0.950 . S
C1339 C1338 1.349 . S
C1339 C1355 1.349 . S
C1340 C1338 1.327 . S
C1340 C1359 1.429 . S
C1340 H1364 0.950 . S
C1341 C1358 1.574 . S
C1341 C1360 1.368 . S
C1341 H1365 0.949 . S
H1342 C1346 0.949 . S
C1343 C1344 1.349 . S
C1343 C1345 1.327 . S
C1343 H1366 0.950 . S
C1344 C1343 1.349 . S
C1344 C1356 1.349 . S
C1345 C1343 1.327 . S
C1345 C1361 1.429 . S
C1345 H1367 0.950 . S
C1346 H1342 0.949 . S
C1346 C1354 1.574 . S
C1346 C1362 1.368 . S
H1347 C1355 0.950 . S
H1348 C1353 0.950 . S
H1349 C1354 0.949 . S
H1350 C1356 0.950 . S
H1351 C1357 0.950 . S
H1352 C1358 0.949 . S
C1353 H1348 0.950 . S
C1353 C1355 1.327 . S
C1353 C1359 1.429 . S
C1354 C1346 1.574 . S
C1354 H1349 0.949 . S
C1354 C1360 1.368 . S
C1355 C1339 1.349 . S
C1355 H1347 0.950 . S
C1355 C1353 1.327 . S
C1356 C1344 1.349 . S
C1356 H1350 0.950 . S
C1356 C1357 1.327 . S
C1357 H1351 0.950 . S
C1357 C1356 1.327 . S
C1357 C1361 1.429 . S
C1358 C1341 1.574 . S
C1358 H1352 0.949 . S
C1358 C1362 1.368 . S
C1359 C1340 1.429 . S
C1359 C1353 1.429 . S
C1359 C1360 1.523 . S
C1360 C1341 1.368 . S
C1360 C1354 1.368 . S
C1360 C1359 1.523 . S
C1361 C1345 1.429 . S
C1361 C1357 1.429 . S
C1361 C1362 1.523 . S
C1362 C1346 1.368 . S
C1362 C1358 1.368 . S
C1362 C1361 1.523 . S
H1363 C1338 0.950 . S
H1364 C1340 0.950 . S
H1365 C1341 0.949 . S
H1366 C1343 0.950 . S
H1367 C1345 0.950 . S
C1368 C1369 1.349 . S
C1368 C1370 1.327 . S
C1368 H1393 0.950 . S
C1369 C1368 1.349 . S
C1369 C1385 1.349 . S
C1370 C1368 1.327 . S
C1370 C1389 1.429 . S
C1370 H1394 0.950 . S
C1371 C1388 1.574 . S
C1371 C1390 1.368 . S
C1371 H1395 0.949 . S
H1372 C1376 0.949 . S
C1373 C1374 1.349 . S
C1373 C1375 1.327 . S
C1373 H1396 0.950 . S
C1374 C1373 1.349 . S
C1374 C1386 1.349 . S
C1375 C1373 1.327 . S
C1375 C1391 1.429 . S
C1375 H1397 0.950 . S
C1376 H1372 0.949 . S
C1376 C1384 1.574 . S
C1376 C1392 1.368 . S
H1377 C1385 0.950 . S
H1378 C1383 0.950 . S
H1379 C1384 0.949 . S
H1380 C1386 0.950 . S
H1381 C1387 0.950 . S
H1382 C1388 0.949 . S
C1383 H1378 0.950 . S
C1383 C1385 1.327 . S
C1383 C1389 1.429 . S
C1384 C1376 1.574 . S
C1384 H1379 0.949 . S
C1384 C1390 1.368 . S
C1385 C1369 1.349 . S
C1385 H1377 0.950 . S
C1385 C1383 1.327 . S
C1386 C1374 1.349 . S
C1386 H1380 0.950 . S
C1386 C1387 1.327 . S
C1387 H1381 0.950 . S
C1387 C1386 1.327 . S
C1387 C1391 1.429 . S
C1388 C1371 1.574 . S
C1388 H1382 0.949 . S
C1388 C1392 1.368 . S
C1389 C1370 1.429 . S
C1389 C1383 1.429 . S
C1389 C1390 1.523 . S
C1390 C1371 1.368 . S
C1390 C1384 1.368 . S
C1390 C1389 1.523 . S
C1391 C1375 1.429 . S
C1391 C1387 1.429 . S
C1391 C1392 1.523 . S
C1392 C1376 1.368 . S
C1392 C1388 1.368 . S
C1392 C1391 1.523 . S
H1393 C1368 0.950 . S
H1394 C1370 0.950 . S
H1395 C1371 0.949 . S
H1396 C1373 0.950 . S
H1397 C1375 0.950 . S
C1398 C1399 1.349 . S
C1398 C1400 1.327 . S
C1398 H1423 0.950 . S
C1399 C1398 1.349 . S
C1399 C1415 1.349 1_554 S
C1400 C1398 1.327 . S
C1400 C1419 1.429 . S
C1400 H1424 0.950 . S
C1401 C1418 1.574 . S
C1401 C1420 1.368 1_556 S
C1401 H1425 0.949 . S
H1402 C1406 0.949 . S
C1403 C1404 1.349 . S
C1403 C1405 1.327 . S
C1403 H1426 0.950 . S
C1404 C1403 1.349 . S
C1404 C1416 1.349 1_556 S
C1405 C1403 1.327 . S
C1405 C1421 1.429 . S
C1405 H1427 0.950 . S
C1406 H1402 0.949 . S
C1406 C1414 1.574 . S
C1406 C1422 1.368 1_554 S
H1407 C1415 0.950 . S
H1408 C1413 0.950 . S
H1409 C1414 0.949 . S
H1410 C1416 0.950 . S
H1411 C1417 0.950 . S
H1412 C1418 0.949 . S
C1413 H1408 0.950 . S
C1413 C1415 1.327 . S
C1413 C1419 1.429 1_556 S
C1414 C1406 1.574 . S
C1414 H1409 0.949 . S
C1414 C1420 1.368 . S
C1415 C1399 1.349 1_556 S
C1415 H1407 0.950 . S
C1415 C1413 1.327 . S
C1416 C1404 1.349 1_554 S
C1416 H1410 0.950 . S
C1416 C1417 1.327 . S
C1417 H1411 0.950 . S
C1417 C1416 1.327 . S
C1417 C1421 1.429 1_554 S
C1418 C1401 1.574 . S
C1418 H1412 0.949 . S
C1418 C1422 1.368 . S
C1419 C1400 1.429 . S
C1419 C1413 1.429 1_554 S
C1419 C1420 1.523 . S
C1420 C1401 1.368 1_554 S
C1420 C1414 1.368 . S
C1420 C1419 1.523 . S
C1421 C1405 1.429 . S
C1421 C1417 1.429 1_556 S
C1421 C1422 1.523 . S
C1422 C1406 1.368 1_556 S
C1422 C1418 1.368 . S
C1422 C1421 1.523 . S
H1423 C1398 0.950 . S
H1424 C1400 0.950 . S
H1425 C1401 0.949 . S
H1426 C1403 0.950 . S
H1427 C1405 0.950 . S
C709 C33 1.481 . S
C714 C564 1.481 . S
C739 C92 1.481 . S
C744 C623 1.481 . S
C769 C151 1.481 . S
C774 C682 1.481 . S
C799 C210 1.481 . S
C804 C387 1.481 . S
C829 C446 1.481 . S
C834 C269 1.481 . S
C859 C505 1.481 . S
C864 C328 1.481 . S
C889 C595 2.137 . S
C894 C5 2.137 . S
C919 C64 2.137 . S
C924 C654 2.137 . S
C949 C123 2.137 . S
C954 C359 2.137 . S
C979 C182 2.137 . S
C984 C418 2.137 . S
C1009 C241 2.137 . S
C1014 C477 2.137 . S
C1039 C300 2.137 . S
C1044 C536 2.137 . S
C1069 C593 0.656 . S
C1074 C3 0.656 . S
C1099 C62 0.656 . S
C1104 C652 0.656 . S
C1129 C121 0.656 . S
C1134 C357 0.656 . S
C1159 C180 0.656 . S
C1164 C416 0.656 . S
C1189 C239 0.656 . S
C1194 C475 0.656 . S
C1219 C298 0.656 . S
C1224 C534 0.656 . S
C1249 C52 1.798 . S
C1254 C406 1.798 . S
C1279 C465 1.797 . S
C1284 C111 1.797 . S
C1309 C170 1.797 . S
C1314 C524 1.797 . S
C1339 C229 1.798 . S
C1344 C583 1.798 . S
C1369 C288 1.797 . S
C1374 C642 1.797 . S
C1399 C701 1.797 . S
C1404 C347 1.797 . S
