# Generated by pormake.
# Topology ukm, (4)-cn, num edge types: 1
# Building blocks:
#     Node 0, Type 0, BuildingBlock: GALJAG_clean_sbu_0, # of connection points: 4
#     Node 1, Type 0, BuildingBlock: GALJAG_clean_sbu_0, # of connection points: 4
#     Node 2, Type 0, BuildingBlock: GALJAG_clean_sbu_0, # of connection points: 4
#     Node 3, Type 0, BuildingBlock: GALJAG_clean_sbu_0, # of connection points: 4
#     Node 4, Type 0, BuildingBlock: GALJAG_clean_sbu_0, # of connection points: 4
#     Node 5, Type 0, BuildingBlock: GALJAG_clean_sbu_0, # of connection points: 4
#     Node 6, Type 0, BuildingBlock: GALJAG_clean_sbu_0, # of connection points: 4
#     Node 7, Type 0, BuildingBlock: GALJAG_clean_sbu_0, # of connection points: 4
#     Node 8, Type 0, BuildingBlock: GALJAG_clean_sbu_0, # of connection points: 4
#     Node 9, Type 0, BuildingBlock: GALJAG_clean_sbu_0, # of connection points: 4
#     Node 10, Type 0, BuildingBlock: GALJAG_clean_sbu_0, # of connection points: 4
#     Node 11, Type 0, BuildingBlock: GALJAG_clean_sbu_0, # of connection points: 4
#     Node 12, Type 0, BuildingBlock: GALJAG_clean_sbu_0, # of connection points: 4
#     Node 13, Type 0, BuildingBlock: GALJAG_clean_sbu_0, # of connection points: 4
#     Node 14, Type 0, BuildingBlock: GALJAG_clean_sbu_0, # of connection points: 4
#     Node 15, Type 0, BuildingBlock: GALJAG_clean_sbu_0, # of connection points: 4
#     Node 16, Type 0, BuildingBlock: GALJAG_clean_sbu_0, # of connection points: 4
#     Node 17, Type 0, BuildingBlock: GALJAG_clean_sbu_0, # of connection points: 4
#     Node 18, Type 0, BuildingBlock: GALJAG_clean_sbu_0, # of connection points: 4
#     Node 19, Type 0, BuildingBlock: GALJAG_clean_sbu_0, # of connection points: 4
#     Node 20, Type 0, BuildingBlock: GALJAG_clean_sbu_0, # of connection points: 4
#     Node 21, Type 0, BuildingBlock: GALJAG_clean_sbu_0, # of connection points: 4
#     Node 22, Type 0, BuildingBlock: GALJAG_clean_sbu_0, # of connection points: 4
#     Node 23, Type 0, BuildingBlock: GALJAG_clean_sbu_0, # of connection points: 4
#     Node 24, Type 0, BuildingBlock: GALJAG_clean_sbu_0, # of connection points: 4
#     Node 25, Type 0, BuildingBlock: GALJAG_clean_sbu_0, # of connection points: 4
#     Node 26, Type 0, BuildingBlock: GALJAG_clean_sbu_0, # of connection points: 4
#     Node 27, Type 0, BuildingBlock: GALJAG_clean_sbu_0, # of connection points: 4
#     Node 28, Type 0, BuildingBlock: GALJAG_clean_sbu_0, # of connection points: 4
#     Node 29, Type 0, BuildingBlock: GALJAG_clean_sbu_0, # of connection points: 4
#     Node 30, Type 0, BuildingBlock: GALJAG_clean_sbu_0, # of connection points: 4
#     Node 31, Type 0, BuildingBlock: GALJAG_clean_sbu_0, # of connection points: 4
#     Edge 32, Type (0, 0), BuildingBlock: UVAHIK_clean_linker_0, # of connection points: 2
#     Edge 33, Type (0, 0), BuildingBlock: UVAHIK_clean_linker_0, # of connection points: 2
#     Edge 34, Type (0, 0), BuildingBlock: UVAHIK_clean_linker_0, # of connection points: 2
#     Edge 35, Type (0, 0), BuildingBlock: UVAHIK_clean_linker_0, # of connection points: 2
#     Edge 36, Type (0, 0), BuildingBlock: UVAHIK_clean_linker_0, # of connection points: 2
#     Edge 37, Type (0, 0), BuildingBlock: UVAHIK_clean_linker_0, # of connection points: 2
#     Edge 38, Type (0, 0), BuildingBlock: UVAHIK_clean_linker_0, # of connection points: 2
#     Edge 39, Type (0, 0), BuildingBlock: UVAHIK_clean_linker_0, # of connection points: 2
#     Edge 40, Type (0, 0), BuildingBlock: UVAHIK_clean_linker_0, # of connection points: 2
#     Edge 41, Type (0, 0), BuildingBlock: UVAHIK_clean_linker_0, # of connection points: 2
#     Edge 42, Type (0, 0), BuildingBlock: UVAHIK_clean_linker_0, # of connection points: 2
#     Edge 43, Type (0, 0), BuildingBlock: UVAHIK_clean_linker_0, # of connection points: 2
#     Edge 44, Type (0, 0), BuildingBlock: UVAHIK_clean_linker_0, # of connection points: 2
#     Edge 45, Type (0, 0), BuildingBlock: UVAHIK_clean_linker_0, # of connection points: 2
#     Edge 46, Type (0, 0), BuildingBlock: UVAHIK_clean_linker_0, # of connection points: 2
#     Edge 47, Type (0, 0), BuildingBlock: UVAHIK_clean_linker_0, # of connection points: 2
#     Edge 48, Type (0, 0), BuildingBlock: UVAHIK_clean_linker_0, # of connection points: 2
#     Edge 49, Type (0, 0), BuildingBlock: UVAHIK_clean_linker_0, # of connection points: 2
#     Edge 50, Type (0, 0), BuildingBlock: UVAHIK_clean_linker_0, # of connection points: 2
#     Edge 51, Type (0, 0), BuildingBlock: UVAHIK_clean_linker_0, # of connection points: 2
#     Edge 52, Type (0, 0), BuildingBlock: UVAHIK_clean_linker_0, # of connection points: 2
#     Edge 53, Type (0, 0), BuildingBlock: UVAHIK_clean_linker_0, # of connection points: 2
#     Edge 54, Type (0, 0), BuildingBlock: UVAHIK_clean_linker_0, # of connection points: 2
#     Edge 55, Type (0, 0), BuildingBlock: UVAHIK_clean_linker_0, # of connection points: 2
#     Edge 56, Type (0, 0), BuildingBlock: UVAHIK_clean_linker_0, # of connection points: 2
#     Edge 57, Type (0, 0), BuildingBlock: UVAHIK_clean_linker_0, # of connection points: 2
#     Edge 58, Type (0, 0), BuildingBlock: UVAHIK_clean_linker_0, # of connection points: 2
#     Edge 59, Type (0, 0), BuildingBlock: UVAHIK_clean_linker_0, # of connection points: 2
#     Edge 60, Type (0, 0), BuildingBlock: UVAHIK_clean_linker_0, # of connection points: 2
#     Edge 61, Type (0, 0), BuildingBlock: UVAHIK_clean_linker_0, # of connection points: 2
#     Edge 62, Type (0, 0), BuildingBlock: UVAHIK_clean_linker_0, # of connection points: 2
#     Edge 63, Type (0, 0), BuildingBlock: UVAHIK_clean_linker_0, # of connection points: 2
#     Edge 64, Type (0, 0), BuildingBlock: UVAHIK_clean_linker_0, # of connection points: 2
#     Edge 65, Type (0, 0), BuildingBlock: UVAHIK_clean_linker_0, # of connection points: 2
#     Edge 66, Type (0, 0), BuildingBlock: UVAHIK_clean_linker_0, # of connection points: 2
#     Edge 67, Type (0, 0), BuildingBlock: UVAHIK_clean_linker_0, # of connection points: 2
#     Edge 68, Type (0, 0), BuildingBlock: UVAHIK_clean_linker_0, # of connection points: 2
#     Edge 69, Type (0, 0), BuildingBlock: UVAHIK_clean_linker_0, # of connection points: 2
#     Edge 70, Type (0, 0), BuildingBlock: UVAHIK_clean_linker_0, # of connection points: 2
#     Edge 71, Type (0, 0), BuildingBlock: UVAHIK_clean_linker_0, # of connection points: 2
#     Edge 72, Type (0, 0), BuildingBlock: UVAHIK_clean_linker_0, # of connection points: 2
#     Edge 73, Type (0, 0), BuildingBlock: UVAHIK_clean_linker_0, # of connection points: 2
#     Edge 74, Type (0, 0), BuildingBlock: UVAHIK_clean_linker_0, # of connection points: 2
#     Edge 75, Type (0, 0), BuildingBlock: UVAHIK_clean_linker_0, # of connection points: 2
#     Edge 76, Type (0, 0), BuildingBlock: UVAHIK_clean_linker_0, # of connection points: 2
#     Edge 77, Type (0, 0), BuildingBlock: UVAHIK_clean_linker_0, # of connection points: 2
#     Edge 78, Type (0, 0), BuildingBlock: UVAHIK_clean_linker_0, # of connection points: 2
#     Edge 79, Type (0, 0), BuildingBlock: UVAHIK_clean_linker_0, # of connection points: 2
#     Edge 80, Type (0, 0), BuildingBlock: UVAHIK_clean_linker_0, # of connection points: 2
#     Edge 81, Type (0, 0), BuildingBlock: UVAHIK_clean_linker_0, # of connection points: 2
#     Edge 82, Type (0, 0), BuildingBlock: UVAHIK_clean_linker_0, # of connection points: 2
#     Edge 83, Type (0, 0), BuildingBlock: UVAHIK_clean_linker_0, # of connection points: 2
#     Edge 84, Type (0, 0), BuildingBlock: UVAHIK_clean_linker_0, # of connection points: 2
#     Edge 85, Type (0, 0), BuildingBlock: UVAHIK_clean_linker_0, # of connection points: 2
#     Edge 86, Type (0, 0), BuildingBlock: UVAHIK_clean_linker_0, # of connection points: 2
#     Edge 87, Type (0, 0), BuildingBlock: UVAHIK_clean_linker_0, # of connection points: 2
#     Edge 88, Type (0, 0), BuildingBlock: UVAHIK_clean_linker_0, # of connection points: 2
#     Edge 89, Type (0, 0), BuildingBlock: UVAHIK_clean_linker_0, # of connection points: 2
#     Edge 90, Type (0, 0), BuildingBlock: UVAHIK_clean_linker_0, # of connection points: 2
#     Edge 91, Type (0, 0), BuildingBlock: UVAHIK_clean_linker_0, # of connection points: 2
#     Edge 92, Type (0, 0), BuildingBlock: UVAHIK_clean_linker_0, # of connection points: 2
#     Edge 93, Type (0, 0), BuildingBlock: UVAHIK_clean_linker_0, # of connection points: 2
#     Edge 94, Type (0, 0), BuildingBlock: UVAHIK_clean_linker_0, # of connection points: 2
#     Edge 95, Type (0, 0), BuildingBlock: UVAHIK_clean_linker_0, # of connection points: 2
# Relax obj value: 0.098
# Max RMSD: 0.122
# Mean RMSD: 0.122
data_MOF--net-ukm--node1-GALJAG_clean_sbu_0--edge1-UVAHIK_clean_linker_0
_symmetry_space_group_name_H-M    P1
_symmetry_Int_Tables_number       1
_symmetry_cell_setting            triclinic
loop_
_symmetry_equiv_pos_as_xyz
'x, y, z'
_cell_length_a     32.298097
_cell_length_b     132.53739
_cell_length_c     58.05068
_cell_angle_alpha  89.983621
_cell_angle_beta   89.999683
_cell_angle_gamma 90.003446
loop_
_atom_site_label
_atom_site_type_symbol
_atom_site_fract_x
_atom_site_fract_y
_atom_site_fract_z
_atom_type_partial_charge
In0 In 0.10689 0.31287 0.28896 0.0
O1 O 0.06002 0.31923 0.31473 0.0
O2 O 0.09425 0.32951 0.29405 0.0
C3 C 0.0805 0.29361 0.2861 0.0
C4 C 0.17876 0.31244 0.31247 0.0
C5 C 0.1044 0.31762 0.24392 0.0
O6 O 0.05653 0.30081 0.29094 0.0
O7 O 0.11786 0.29608 0.28354 0.0
O8 O 0.13757 0.31757 0.25537 0.0
O9 O 0.0724 0.31536 0.25524 0.0
C10 C 0.06708 0.32831 0.30938 0.0
O11 O 0.17674 0.31409 0.29112 0.0
O12 O 0.14428 0.31096 0.32218 0.0
In13 In 0.13729 0.92794 0.28732 0.0
O14 O 0.07185 0.92246 0.29416 0.0
O15 O 0.0986 0.93235 0.3188 0.0
C16 C 0.1285 0.9232 0.24256 0.0
C17 C 0.18311 0.91383 0.30894 0.0
C18 C 0.16635 0.94683 0.28098 0.0
O19 O 0.09832 0.92558 0.25523 0.0
O20 O 0.16325 0.92316 0.25251 0.0
O21 O 0.18975 0.93945 0.28522 0.0
O22 O 0.12831 0.94473 0.28066 0.0
C23 C 0.06746 0.92724 0.31275 0.0
O24 O 0.18074 0.92279 0.31613 0.0
O25 O 0.16242 0.91204 0.291 0.0
In26 In 0.10868 0.92886 0.95362 0.0
O27 O 0.06607 0.92349 0.92472 0.0
O28 O 0.08826 0.91264 0.94875 0.0
C29 C 0.0818 0.94808 0.95747 0.0
C30 C 0.1818 0.92933 0.93118 0.0
C31 C 0.10609 0.92287 -0.00214 0.0
O32 O 0.05795 0.94087 0.95252 0.0
O33 O 0.1193 0.94565 0.95952 0.0
O34 O 0.13806 0.92188 0.98557 0.0
O35 O 0.07543 0.92674 0.98772 0.0
C36 C 0.06651 0.91439 0.93115 0.0
O37 O 0.17911 0.92961 0.95284 0.0
O38 O 0.14757 0.92887 0.92076 0.0
In39 In 0.13829 0.31186 0.95429 0.0
O40 O 0.07309 0.3177 0.94812 0.0
O41 O 0.09817 0.30759 0.92334 0.0
C42 C 0.1281 0.31592 -0.00077 0.0
C43 C 0.18434 0.32656 0.93483 0.0
C44 C 0.16839 0.29295 0.95862 0.0
O45 O 0.09795 0.31459 0.98574 0.0
O46 O 0.16338 0.31522 0.99001 0.0
O47 O 0.19087 0.30033 0.95302 0.0
O48 O 0.13067 0.29506 0.9612 0.0
C49 C 0.06766 0.31286 0.92966 0.0
O50 O 0.1749 0.3186 0.92418 0.0
O51 O 0.17056 0.32708 0.95507 0.0
In52 In 0.89859 0.67806 0.70459 0.0
O53 O 0.82924 0.67617 0.70186 0.0
O54 O 0.86188 0.67932 0.67085 0.0
C55 C 0.88796 0.67487 0.74998 0.0
C56 C 0.93816 0.6622 0.68583 0.0
C57 C 0.9336 0.69656 0.70633 0.0
O58 O 0.8606 0.67878 0.73736 0.0
O59 O 0.92103 0.67254 0.73971 0.0
O60 O 0.95377 0.68858 0.70984 0.0
O61 O 0.89625 0.69519 0.70098 0.0
C62 C 0.82742 0.67766 0.68045 0.0
O63 O 0.9461 0.67117 0.67996 0.0
O64 O 0.91026 0.66131 0.70088 0.0
In65 In 0.87027 0.06231 0.70789 0.0
O66 O 0.82299 0.06896 0.68277 0.0
O67 O 0.85786 0.07903 0.70361 0.0
C68 C 0.83859 0.04349 0.71031 0.0
C69 C 0.94054 0.06233 0.68289 0.0
C70 C 0.87641 0.06586 0.7534 0.0
O71 O 0.81612 0.05123 0.70866 0.0
O72 O 0.87692 0.04523 0.71001 0.0
O73 O 0.90688 0.06332 0.74114 0.0
O74 O 0.8426 0.06665 0.74268 0.0
C75 C 0.83039 0.07798 0.68839 0.0
O76 O 0.93874 0.06539 0.70342 0.0
O77 O 0.90653 0.05929 0.67467 0.0
In78 In 0.89693 0.06083 0.04445 0.0
O79 O 0.82727 0.05892 0.0462 0.0
O80 O 0.85915 0.06113 0.07784 0.0
C81 C 0.89753 0.06531 -0.00078 0.0
C82 C 0.936 0.07679 0.06302 0.0
C83 C 0.9271 0.04185 0.04394 0.0
O84 O 0.86594 0.06652 0.01167 0.0
O85 O 0.92885 0.06194 0.00964 0.0
O86 O 0.94967 0.04942 0.04793 0.0
O87 O 0.88931 0.04385 0.04118 0.0
C88 C 0.82492 0.0598 0.06778 0.0
O89 O 0.9437 0.06786 0.06931 0.0
O90 O 0.90847 0.07759 0.04773 0.0
In91 In 0.85599 0.68019 0.04006 0.0
O92 O 0.92612 0.6807 0.04171 0.0
O93 O 0.89341 0.68135 0.07344 0.0
C94 C 0.85429 0.6755 0.99502 0.0
C95 C 0.81697 0.6644 0.05957 0.0
C96 C 0.82761 0.6993 0.03826 0.0
O97 O 0.8861 0.67431 0.00732 0.0
O98 O 0.82321 0.67897 0.0055 0.0
O99 O 0.80457 0.69195 0.04339 0.0
O100 O 0.86498 0.69703 0.03483 0.0
C101 C 0.92805 0.68127 0.06335 0.0
O102 O 0.80977 0.67338 0.06565 0.0
O103 O 0.84376 0.66348 0.04395 0.0
In104 In 0.10403 0.81154 0.78791 0.0
O105 O 0.06459 0.81834 0.81676 0.0
O106 O 0.07967 0.8276 0.78807 0.0
C107 C 0.07604 0.79235 0.78763 0.0
C108 C 0.17744 0.81178 0.81006 0.0
C109 C 0.10384 0.81585 0.74268 0.0
O110 O 0.05228 0.79982 0.79001 0.0
O111 O 0.11389 0.79455 0.78638 0.0
O112 O 0.13453 0.81773 0.75545 0.0
O113 O 0.07334 0.81188 0.75279 0.0
C114 C 0.06138 0.82684 0.80716 0.0
O115 O 0.17451 0.81107 0.78845 0.0
O116 O 0.1433 0.81238 0.82054 0.0
In117 In 0.14607 0.42888 0.79232 0.0
O118 O 0.18877 0.4233 0.82107 0.0
O119 O 0.16591 0.41261 0.79693 0.0
C120 C 0.17233 0.44811 0.78821 0.0
C121 C 0.07268 0.42947 0.81441 0.0
C122 C 0.14934 0.42324 0.74789 0.0
O123 O 0.19634 0.44099 0.79357 0.0
O124 O 0.13499 0.44559 0.78586 0.0
O125 O 0.11735 0.42205 0.76008 0.0
O126 O 0.17975 0.42713 0.75824 0.0
C127 C 0.18795 0.41423 0.81445 0.0
O128 O 0.0757 0.42869 0.79283 0.0
O129 O 0.10679 0.42996 0.82496 0.0
In130 In 0.11015 0.42822 0.45807 0.0
O131 O 0.1772 0.42413 0.45152 0.0
O132 O 0.14518 0.43177 0.42469 0.0
C133 C 0.12078 0.42444 0.50322 0.0
C134 C 0.06762 0.41292 0.43881 0.0
C135 C 0.07812 0.44693 0.4622 0.0
O136 O 0.14956 0.42758 0.49043 0.0
O137 O 0.08644 0.42322 0.49325 0.0
O138 O 0.0558 0.43914 0.46121 0.0
O139 O 0.1164 0.4453 0.46038 0.0
C140 C 0.17866 0.42786 0.43157 0.0
O141 O 0.06194 0.42198 0.43289 0.0
O142 O 0.09462 0.41166 0.45421 0.0
In143 In 0.14709 0.8128 0.45275 0.0
O144 O 0.18509 0.81908 0.42267 0.0
O145 O 0.17874 0.82809 0.45268 0.0
C146 C 0.17737 0.79396 0.45799 0.0
C147 C 0.07755 0.81382 0.42719 0.0
C148 C 0.13499 0.81688 0.49759 0.0
O149 O 0.20027 0.8014 0.45344 0.0
O150 O 0.13934 0.79598 0.45905 0.0
O151 O 0.10558 0.81484 0.48405 0.0
O152 O 0.17044 0.81692 0.48845 0.0
C153 C 0.19354 0.82726 0.43271 0.0
O154 O 0.08298 0.81905 0.44509 0.0
O155 O 0.10751 0.80815 0.42194 0.0
In156 In 0.89847 0.17945 0.20236 0.0
O157 O 0.94535 0.17292 0.17677 0.0
O158 O 0.91528 0.16293 0.2 0.0
C159 C 0.93068 0.19818 0.2057 0.0
C160 C 0.82928 0.17872 0.17646 0.0
C161 C 0.88759 0.17621 0.24769 0.0
O162 O 0.95298 0.19039 0.20472 0.0
O163 O 0.89237 0.19654 0.20415 0.0
O164 O 0.85892 0.1792 0.23464 0.0
O165 O 0.92201 0.17487 0.23789 0.0
C166 C 0.94094 0.16397 0.18383 0.0
O167 O 0.83156 0.17511 0.1965 0.0
O168 O 0.86233 0.18269 0.16914 0.0
In169 In 0.86498 0.56212 0.20468 0.0
O170 O 0.93512 0.56138 0.20287 0.0
O171 O 0.9021 0.56136 0.17119 0.0
C172 C 0.86169 0.56702 0.2496 0.0
C173 C 0.826 0.57784 0.185 0.0
C174 C 0.83682 0.54298 0.2066 0.0
O175 O 0.89441 0.5678 0.23788 0.0
O176 O 0.83064 0.56386 0.23861 0.0
O177 O 0.81404 0.55028 0.20079 0.0
O178 O 0.87397 0.5453 0.21055 0.0
C179 C 0.93682 0.56118 0.18118 0.0
O180 O 0.81791 0.56883 0.17954 0.0
O181 O 0.8538 0.57884 0.20007 0.0
In182 In 0.89131 0.56178 0.53991 0.0
O183 O 0.93866 0.56778 0.56589 0.0
O184 O 0.90874 0.57823 0.54368 0.0
C185 C 0.92216 0.54294 0.53617 0.0
C186 C 0.82158 0.56257 0.56533 0.0
C187 C 0.88243 0.56553 0.49464 0.0
O188 O 0.94494 0.55064 0.53722 0.0
O189 O 0.88395 0.54471 0.53775 0.0
O190 O 0.85301 0.56253 0.50716 0.0
O191 O 0.91652 0.56661 0.50494 0.0
C192 C 0.93458 0.57684 0.55962 0.0
O193 O 0.82451 0.56633 0.54546 0.0
O194 O 0.85422 0.55842 0.5727 0.0
In195 In 0.85095 0.17916 0.53744 0.0
O196 O 0.80585 0.17248 0.56378 0.0
O197 O 0.83889 0.16246 0.54189 0.0
C198 C 0.82167 0.19819 0.53525 0.0
C199 C 0.92319 0.18047 0.56046 0.0
C200 C 0.84985 0.17425 0.49249 0.0
O201 O 0.79861 0.19075 0.5396 0.0
O202 O 0.85942 0.19605 0.53289 0.0
O203 O 0.88165 0.17324 0.50488 0.0
O204 O 0.81843 0.1776 0.50287 0.0
C205 C 0.81288 0.16347 0.5579 0.0
O206 O 0.92103 0.1802 0.53879 0.0
O207 O 0.88871 0.18013 0.57069 0.0
In208 In 0.608 0.31255 0.78453 0.0
O209 O 0.67784 0.31181 0.78748 0.0
O210 O 0.64343 0.31245 0.8187 0.0
C211 C 0.61998 0.3164 0.73945 0.0
C212 C 0.57078 0.32873 0.80333 0.0
C213 C 0.57034 0.29431 0.78316 0.0
O214 O 0.64732 0.31248 0.75207 0.0
O215 O 0.58643 0.31841 0.74955 0.0
O216 O 0.55257 0.30234 0.77714 0.0
O217 O 0.60654 0.29552 0.79067 0.0
C218 C 0.67858 0.31201 0.80919 0.0
O219 O 0.56015 0.31982 0.80834 0.0
O220 O 0.60018 0.3294 0.78912 0.0
In221 In 0.6419 0.92929 0.78651 0.0
O222 O 0.57675 0.92351 0.79317 0.0
O223 O 0.60276 0.93354 0.81783 0.0
C224 C 0.62976 0.92537 0.74161 0.0
C225 C 0.68686 0.91449 0.80629 0.0
C226 C 0.67389 0.94802 0.78212 0.0
O227 O 0.60055 0.92769 0.75504 0.0
O228 O 0.6651 0.92503 0.75085 0.0
O229 O 0.69612 0.94039 0.78594 0.0
O230 O 0.63565 0.94625 0.78125 0.0
C231 C 0.57197 0.92831 0.81174 0.0
O232 O 0.67914 0.92268 0.81648 0.0
O233 O 0.67204 0.91382 0.78629 0.0
In234 In 0.60146 0.92901 0.45183 0.0
O235 O 0.67196 0.92972 0.452 0.0
O236 O 0.642 0.92751 0.41981 0.0
C237 C 0.59939 0.92437 0.49687 0.0
C238 C 0.55806 0.91404 0.43184 0.0
C239 C 0.57482 0.94833 0.45196 0.0
O240 O 0.63019 0.92235 0.48429 0.0
O241 O 0.56967 0.92863 0.48665 0.0
O242 O 0.5508 0.94099 0.44857 0.0
O243 O 0.6123 0.94595 0.45431 0.0
C244 C 0.67571 0.92848 0.43057 0.0
O245 O 0.56284 0.92253 0.4223 0.0
O246 O 0.57515 0.91316 0.45124 0.0
In247 In 0.6464 0.31255 0.44987 0.0
O248 O 0.57603 0.31294 0.44981 0.0
O249 O 0.60639 0.31174 0.41746 0.0
C250 C 0.65034 0.31764 0.49461 0.0
C251 C 0.68841 0.32737 0.42833 0.0
C252 C 0.67208 0.29322 0.45261 0.0
O253 O 0.61867 0.31929 0.48244 0.0
O254 O 0.68014 0.31356 0.4841 0.0
O255 O 0.69625 0.30037 0.44759 0.0
O256 O 0.63486 0.29579 0.45535 0.0
C257 C 0.57253 0.31229 0.42824 0.0
O258 O 0.68877 0.31837 0.4212 0.0
O259 O 0.66687 0.32883 0.44611 0.0
In260 In 0.38895 0.67952 0.20721 0.0
O261 O 0.31892 0.67897 0.20481 0.0
O262 O 0.35221 0.68184 0.17391 0.0
C263 C 0.39105 0.67473 0.25223 0.0
C264 C 0.42703 0.66382 0.18674 0.0
C265 C 0.41756 0.6986 0.20994 0.0
O266 O 0.358 0.67478 0.24067 0.0
O267 O 0.42317 0.67698 0.241 0.0
O268 O 0.44032 0.69129 0.2042 0.0
O269 O 0.38026 0.69632 0.21357 0.0
C270 C 0.31741 0.68067 0.18347 0.0
O271 O 0.43583 0.67286 0.18189 0.0
O272 O 0.39903 0.66278 0.20167 0.0
In273 In 0.35149 0.06093 0.19804 0.0
O274 O 0.4171 0.06689 0.19401 0.0
O275 O 0.39476 0.05678 0.16843 0.0
C276 C 0.3566 0.06482 0.24334 0.0
C277 C 0.30711 0.0756 0.17726 0.0
C278 C 0.32302 0.04183 0.20103 0.0
O279 O 0.38822 0.06388 0.23074 0.0
O280 O 0.32242 0.0638 0.23305 0.0
O281 O 0.3 0.04912 0.19551 0.0
O282 O 0.36037 0.04414 0.20426 0.0
C283 C 0.42451 0.06207 0.17574 0.0
O284 O 0.31768 0.06766 0.16687 0.0
O285 O 0.31879 0.07609 0.1979 0.0
In286 In 0.39538 0.06292 0.53337 0.0
O287 O 0.32569 0.0616 0.53672 0.0
O288 O 0.36073 0.06194 0.56772 0.0
C289 C 0.3904 0.06757 0.48834 0.0
C290 C 0.4335 0.07897 0.55231 0.0
C291 C 0.42666 0.04407 0.53088 0.0
O292 O 0.35974 0.06805 0.50173 0.0
O293 O 0.42382 0.06487 0.49773 0.0
O294 O 0.44935 0.05173 0.5335 0.0
O295 O 0.38843 0.04592 0.53038 0.0
C296 C 0.32543 0.06143 0.55842 0.0
O297 O 0.44212 0.07004 0.55818 0.0
O298 O 0.40588 0.07973 0.53708 0.0
In299 In 0.3609 0.68029 0.54288 0.0
O300 O 0.42702 0.67472 0.54628 0.0
O301 O 0.40203 0.68303 0.57435 0.0
C302 C 0.36882 0.67708 0.49743 0.0
C303 C 0.31572 0.66523 0.56153 0.0
C304 C 0.33202 0.69941 0.54108 0.0
O305 O 0.39954 0.67829 0.51057 0.0
O306 O 0.33397 0.67751 0.50724 0.0
O307 O 0.30877 0.69194 0.54465 0.0
O308 O 0.36984 0.69727 0.5393 0.0
C309 C 0.43284 0.67845 0.56598 0.0
O310 O 0.32451 0.67314 0.57258 0.0
O311 O 0.3297 0.66496 0.54131 0.0
In312 In 0.61435 0.81277 0.28524 0.0
O313 O 0.57172 0.81804 0.3142 0.0
O314 O 0.59088 0.8288 0.28916 0.0
C315 C 0.58358 0.79387 0.28189 0.0
C316 C 0.68682 0.81186 0.30836 0.0
C317 C 0.61806 0.81927 0.24135 0.0
O318 O 0.56103 0.80143 0.2858 0.0
O319 O 0.62166 0.79579 0.28041 0.0
O320 O 0.647 0.82074 0.25555 0.0
O321 O 0.58721 0.81461 0.24936 0.0
C322 C 0.5701 0.82704 0.30712 0.0
O323 O 0.6839 0.81001 0.28713 0.0
O324 O 0.65309 0.81407 0.31807 0.0
In325 In 0.63999 0.43013 0.288 0.0
O326 O 0.5699 0.43199 0.28885 0.0
O327 O 0.60019 0.42858 0.32036 0.0
C328 C 0.63517 0.42438 0.2437 0.0
C329 C 0.68554 0.41547 0.30781 0.0
C330 C 0.67054 0.4491 0.28633 0.0
O331 O 0.60804 0.42197 0.25837 0.0
O332 O 0.66471 0.4296 0.25145 0.0
O333 O 0.69305 0.44152 0.29019 0.0
O334 O 0.63261 0.44714 0.28424 0.0
C335 C 0.56646 0.4303 0.31013 0.0
O336 O 0.67725 0.42362 0.31808 0.0
O337 O 0.67085 0.41476 0.28778 0.0
In338 In 0.60911 0.42936 0.95573 0.0
O339 O 0.56339 0.42333 0.92892 0.0
O340 O 0.59704 0.41281 0.94926 0.0
C341 C 0.57874 0.44827 0.95966 0.0
C342 C 0.68066 0.42964 0.93194 0.0
C343 C 0.61146 0.42427 0.0006 0.0
O344 O 0.55569 0.44064 0.95806 0.0
O345 O 0.61689 0.4464 0.95858 0.0
O346 O 0.64295 0.42724 0.9897 0.0
O347 O 0.57864 0.42388 0.98887 0.0
C348 C 0.57051 0.41419 0.93366 0.0
O349 O 0.67845 0.42707 0.95282 0.0
O350 O 0.64654 0.43208 0.92286 0.0
In351 In 0.63877 0.81323 0.95402 0.0
O352 O 0.57039 0.81683 0.94973 0.0
O353 O 0.60041 0.80924 0.92217 0.0
C354 C 0.63741 0.81903 -0.00162 0.0
C355 C 0.68042 0.82762 0.93088 0.0
C356 C 0.66767 0.79434 0.96068 0.0
O357 O 0.60503 0.81671 0.98743 0.0
O358 O 0.67052 0.81844 0.98692 0.0
O359 O 0.6908 0.80157 0.95484 0.0
O360 O 0.62993 0.79659 0.96246 0.0
C361 C 0.5673 0.81297 0.92997 0.0
O362 O 0.68162 0.81846 0.92499 0.0
O363 O 0.65813 0.82946 0.94819 0.0
In364 In 0.38386 0.17965 0.70447 0.0
O365 O 0.43111 0.17352 0.67857 0.0
O366 O 0.3964 0.16306 0.6985 0.0
C367 C 0.41886 0.19806 0.70867 0.0
C368 C 0.31306 0.1798 0.68001 0.0
C369 C 0.3735 0.17568 0.74955 0.0
O370 O 0.43889 0.19001 0.71154 0.0
O371 O 0.38164 0.19683 0.70286 0.0
O372 O 0.34625 0.17998 0.73751 0.0
O373 O 0.4061 0.17335 0.73885 0.0
C374 C 0.42372 0.1644 0.68331 0.0
O375 O 0.31517 0.17668 0.70049 0.0
O376 O 0.34698 0.18281 0.67161 0.0
In377 In 0.35075 0.56109 0.69873 0.0
O378 O 0.31024 0.56709 0.66948 0.0
O379 O 0.32858 0.57727 0.69588 0.0
C380 C 0.32205 0.54198 0.69961 0.0
C381 C 0.42563 0.56078 0.67816 0.0
C382 C 0.34873 0.56618 0.74356 0.0
O383 O 0.29875 0.54946 0.69621 0.0
O384 O 0.35986 0.54412 0.70161 0.0
O385 O 0.37898 0.56831 0.73068 0.0
O386 O 0.31936 0.56163 0.73372 0.0
C387 C 0.30883 0.57596 0.6774 0.0
O388 O 0.42089 0.5596 0.69954 0.0
O389 O 0.3925 0.56205 0.66701 0.0
In390 In 0.39409 0.56373 0.03401 0.0
O391 O 0.32621 0.56741 0.03908 0.0
O392 O 0.35795 0.56062 0.06718 0.0
C393 C 0.38326 0.56702 0.98867 0.0
C394 C 0.43495 0.57917 0.05381 0.0
C395 C 0.42747 0.54511 0.03099 0.0
O396 O 0.35537 0.56342 0.00143 0.0
O397 O 0.41688 0.569 -0.00122 0.0
O398 O 0.44901 0.55302 0.02973 0.0
O399 O 0.38949 0.5466 0.03451 0.0
C400 C 0.3243 0.56408 0.05939 0.0
O401 O 0.44112 0.57012 0.05964 0.0
O402 O 0.40846 0.58035 0.0381 0.0
In403 In 0.3615 0.17988 0.03967 0.0
O404 O 0.43184 0.18081 0.03905 0.0
O405 O 0.40264 0.17944 0.07168 0.0
C406 C 0.35609 0.17505 0.9948 0.0
C407 C 0.32029 0.16474 0.06038 0.0
C408 C 0.33368 0.19907 0.039 0.0
O409 O 0.38789 0.17316 0.00667 0.0
O410 O 0.32702 0.17927 0.00564 0.0
O411 O 0.31077 0.19171 0.0442 0.0
O412 O 0.37085 0.19678 0.03504 0.0
C413 C 0.43609 0.18018 0.06058 0.0
O414 O 0.31945 0.17366 0.06799 0.0
O415 O 0.34213 0.1635 0.04261 0.0
C416 C 0.0577 0.39446 0.43369 0.0
C417 C 0.04624 0.40434 0.42787 0.0
C418 C 0.0411 0.38628 0.42184 0.0
C419 C 0.99761 0.36933 0.39806 0.0
H420 H 0.99983 0.37324 0.33194 0.0
C421 C 0.01575 0.33546 0.33737 0.0
C422 C 0.04666 0.33693 0.32068 0.0
C423 C 0.99905 0.34371 0.3492 0.0
C424 C 0.99892 0.37201 0.35037 0.0
H425 H 0.00631 0.41343 0.4062 0.0
H426 H 0.97648 0.39906 0.38563 0.0
H427 H 0.00114 0.38781 0.35719 0.0
H428 H 0.08306 0.34815 0.30255 0.0
H429 H 0.05538 0.36239 0.32353 0.0
H430 H 0.99974 0.35352 0.39126 0.0
C431 C 0.99904 0.39765 0.39905 0.0
C432 C 0.99902 0.38039 0.36491 0.0
C433 C 0.01602 0.40588 0.41084 0.0
C434 C 0.05933 0.34677 0.31536 0.0
C435 C 0.04298 0.35498 0.32725 0.0
C436 C 0.99827 0.36094 0.38352 0.0
C437 C 0.01226 0.38776 0.40399 0.0
C438 C 0.00067 0.37913 0.38894 0.0
C439 C 0.0132 0.35355 0.34464 0.0
C440 C 0.00123 0.3622 0.35953 0.0
H441 H 0.08085 0.39304 0.4468 0.0
H442 H 0.05275 0.37883 0.4259 0.0
H443 H 0.99751 0.36809 0.4165 0.0
H444 H 0.00512 0.32793 0.34163 0.0
H445 H 0.97582 0.34235 0.36229 0.0
C446 C 0.22316 0.90769 0.34306 0.0
C447 C 0.20586 0.90585 0.32127 0.0
C448 C 0.23979 0.89975 0.35594 0.0
C449 C 0.2699 0.87263 0.35362 0.0
H450 H 0.21736 0.87162 0.41358 0.0
C451 C 0.21958 0.83592 0.39737 0.0
C452 C 0.2156 0.83564 0.42142 0.0
C453 C 0.23395 0.84465 0.38648 0.0
C454 C 0.23337 0.87182 0.3972 0.0
H455 H 0.19507 0.89446 0.29513 0.0
H456 H 0.22352 0.88063 0.31763 0.0
H457 H 0.2155 0.88712 0.39159 0.0
H458 H 0.22721 0.84379 0.45314 0.0
H459 H 0.25341 0.85891 0.4342 0.0
H460 H 0.28612 0.85713 0.35892 0.0
C461 C 0.22463 0.88817 0.32478 0.0
C462 C 0.23226 0.88075 0.38454 0.0
C463 C 0.20792 0.89608 0.31197 0.0
C464 C 0.22937 0.84388 0.43451 0.0
C465 C 0.24424 0.85255 0.42366 0.0
C466 C 0.27119 0.86368 0.36636 0.0
C467 C 0.23954 0.88986 0.34719 0.0
C468 C 0.24909 0.88114 0.36227 0.0
C469 C 0.24502 0.8532 0.39949 0.0
C470 C 0.25153 0.86307 0.38793 0.0
H471 H 0.22228 0.91517 0.35057 0.0
H472 H 0.25145 0.90128 0.37308 0.0
H473 H 0.28367 0.87276 0.33661 0.0
H474 H 0.20924 0.82965 0.38689 0.0
H475 H 0.23376 0.84489 0.36784 0.0
C476 C 0.04424 0.89647 0.92758 0.0
C477 C 0.04561 0.90625 0.91835 0.0
C478 C 0.02911 0.88846 0.91447 0.0
C479 C 0.02627 0.88088 0.85492 0.0
H480 H 0.96883 0.85743 0.87895 0.0
C481 C 0.0304 0.84401 0.80472 0.0
C482 C 0.04074 0.83553 0.818 0.0
C483 C 0.01624 0.85281 0.81528 0.0
C484 C 0.9849 0.86392 0.87197 0.0
H485 H 0.0299 0.91549 0.8888 0.0
H486 H 0.00383 0.90142 0.86568 0.0
H487 H 0.97017 0.87305 0.90133 0.0
H488 H 0.04212 0.82933 0.85251 0.0
H489 H 0.01912 0.8448 0.87115 0.0
H490 H 0.04355 0.87171 0.82639 0.0
C491 C 0.01457 0.89996 0.88305 0.0
C492 C 0.98548 0.87286 0.88474 0.0
C493 C 0.02943 0.908 0.89626 0.0
C494 C 0.03438 0.83578 0.84189 0.0
C495 C 0.02087 0.84464 0.85253 0.0
C496 C 0.02602 0.87194 0.84228 0.0
C497 C 0.01531 0.89008 0.89182 0.0
C498 C 0.00728 0.88132 0.87663 0.0
C499 C 0.01293 0.85337 0.83941 0.0
C500 C 0.00647 0.86325 0.85097 0.0
H501 H 0.05626 0.89492 0.94464 0.0
H502 H 0.03052 0.88092 0.92161 0.0
H503 H 0.04383 0.88722 0.84836 0.0
H504 H 0.03444 0.84395 0.78619 0.0
H505 H 0.00942 0.85929 0.80459 0.0
C506 C 0.20946 0.39625 0.81742 0.0
C507 C 0.20898 0.406 0.82685 0.0
C508 C 0.22481 0.38815 0.83014 0.0
C509 C 0.23051 0.38036 0.88959 0.0
H510 H 0.28174 0.3565 0.86342 0.0
C511 C 0.22124 0.34302 0.93773 0.0
C512 C 0.20687 0.335 0.9241 0.0
C513 C 0.23727 0.3517 0.92746 0.0
C514 C 0.26754 0.36311 0.87101 0.0
H515 H 0.22658 0.41508 0.85633 0.0
H516 H 0.25318 0.40084 0.87875 0.0
H517 H 0.28214 0.37232 0.84177 0.0
H518 H 0.20044 0.32944 0.8892 0.0
H519 H 0.22705 0.34471 0.87116 0.0
H520 H 0.21344 0.37112 0.91809 0.0
C521 C 0.24149 0.39948 0.86154 0.0
C522 C 0.2679 0.37217 0.85866 0.0
C523 C 0.22632 0.40761 0.84873 0.0
C524 C 0.21122 0.33554 0.90009 0.0
C525 C 0.22681 0.34427 0.88979 0.0
C526 C 0.22996 0.37132 0.90186 0.0
C527 C 0.23982 0.38963 0.85259 0.0
C528 C 0.248 0.38077 0.86747 0.0
C529 C 0.23872 0.35259 0.90334 0.0
C530 C 0.24709 0.3625 0.89235 0.0
H531 H 0.19656 0.3948 0.80052 0.0
H532 H 0.2226 0.38065 0.82286 0.0
H533 H 0.21447 0.38681 0.89674 0.0
H534 H 0.2188 0.34273 0.95633 0.0
H535 H 0.247 0.35788 0.9384 0.0
C536 C 0.98547 0.58363 0.58833 0.0
C537 C 0.95648 0.5853 0.57071 0.0
C538 C 0.00295 0.59178 0.60015 0.0
C539 C 0.00352 0.60927 0.63369 0.0
H540 H 0.0079 0.63595 0.60643 0.0
C541 C 0.94443 0.64364 0.68088 0.0
C542 C 0.95841 0.65336 0.67536 0.0
C543 C 0.96061 0.63524 0.66965 0.0
C544 C 0.00795 0.62857 0.61445 0.0
H545 H 0.92464 0.59676 0.5508 0.0
H546 H 0.95357 0.61087 0.57173 0.0
H547 H 0.00973 0.62119 0.58175 0.0
H548 H 0.00209 0.66192 0.65482 0.0
H549 H 0.03113 0.64716 0.63536 0.0
H550 H 0.00172 0.61665 0.66638 0.0
C551 C 0.9639 0.60335 0.57624 0.0
C552 C 0.00837 0.62008 0.60022 0.0
C553 C 0.9468 0.59524 0.56437 0.0
C554 C 0.99045 0.6545 0.65921 0.0
C555 C 0.00699 0.64605 0.64806 0.0
C556 C 0.00388 0.61775 0.64794 0.0
C557 C 0.99147 0.60175 0.59464 0.0
C558 C 0.00344 0.61037 0.6096 0.0
C559 C 0.99153 0.63633 0.65276 0.0
C560 C 0.00337 0.6275 0.63841 0.0
H561 H 0.99381 0.57603 0.59338 0.0
H562 H 0.02452 0.59028 0.61401 0.0
H563 H 0.99997 0.60192 0.64162 0.0
H564 H 0.91981 0.64253 0.6933 0.0
H565 H 0.9472 0.62794 0.67345 0.0
C566 C 0.77786 0.08534 0.66142 0.0
C567 C 0.80995 0.08669 0.67745 0.0
C568 C 0.7609 0.09364 0.64991 0.0
C569 C 0.76158 0.12192 0.64885 0.0
H570 H 0.7528 0.11808 0.58287 0.0
C571 C 0.76626 0.15595 0.58787 0.0
C572 C 0.79439 0.1547 0.56965 0.0
C573 C 0.75239 0.14758 0.60038 0.0
C574 C 0.75498 0.11929 0.60128 0.0
H575 H 0.8484 0.09777 0.69469 0.0
H576 H 0.82019 0.11212 0.6742 0.0
H577 H 0.75859 0.10348 0.6079 0.0
H578 H 0.8284 0.14372 0.54942 0.0
H579 H 0.80557 0.12927 0.57147 0.0
H580 H 0.76199 0.13774 0.64206 0.0
C581 C 0.8071 0.10475 0.6708 0.0
C582 C 0.7577 0.11089 0.61571 0.0
C583 C 0.8237 0.09649 0.6824 0.0
C584 C 0.80681 0.14493 0.56344 0.0
C585 C 0.79326 0.1366 0.57597 0.0
C586 C 0.75951 0.13032 0.63439 0.0
C587 C 0.77598 0.10343 0.6541 0.0
C588 C 0.76308 0.11212 0.63958 0.0
C589 C 0.76662 0.13782 0.59494 0.0
C590 C 0.75825 0.1291 0.61035 0.0
H591 H 0.7664 0.07785 0.65746 0.0
H592 H 0.73661 0.09236 0.63739 0.0
H593 H 0.76443 0.12313 0.66723 0.0
H594 H 0.75589 0.1634 0.59288 0.0
H595 H 0.73144 0.14877 0.61469 0.0
C596 C 0.95189 0.14547 0.18053 0.0
C597 C 0.96202 0.15526 0.17328 0.0
C598 C 0.96789 0.13711 0.1691 0.0
C599 C 0.00466 0.13018 0.11164 0.0
H600 H 0.00802 0.10388 0.14078 0.0
C601 C 0.94246 0.09538 0.06721 0.0
C602 C 0.9563 0.0857 0.07316 0.0
C603 C 0.95906 0.10387 0.07789 0.0
C604 C 0.00831 0.11114 0.13224 0.0
H605 H 0.9991 0.16402 0.14944 0.0
H606 H 0.02793 0.14933 0.1296 0.0
H607 H 0.01188 0.11896 0.16435 0.0
H608 H 1.00001 0.07728 0.09398 0.0
H609 H 0.02979 0.0922 0.11248 0.0
H610 H 0.00115 0.12236 0.07953 0.0
C611 C 0.00683 0.14813 0.14383 0.0
C612 C 0.0099 0.11981 0.14583 0.0
C613 C 0.99044 0.15654 0.15521 0.0
C614 C 0.98848 0.08468 0.08926 0.0
C615 C 0.00545 0.09321 0.09986 0.0
C616 C 0.00385 0.12151 0.09802 0.0
C617 C 0.9948 0.13831 0.15024 0.0
C618 C 0.00542 0.12942 0.13579 0.0
C619 C 0.99029 0.10291 0.09465 0.0
C620 C 0.00299 0.11189 0.10826 0.0
H621 H 0.93015 0.14425 0.19447 0.0
H622 H 0.95717 0.12972 0.17433 0.0
H623 H 0.00138 0.13742 0.10321 0.0
H624 H 0.91772 0.09641 0.05483 0.0
H625 H 0.94585 0.11115 0.07373 0.0
C626 C 0.77428 0.58538 0.15776 0.0
C627 C 0.80584 0.58662 0.17416 0.0
C628 C 0.75756 0.59377 0.14646 0.0
C629 C 0.75768 0.62204 0.14692 0.0
H630 H 0.75307 0.61894 0.08061 0.0
C631 C 0.80987 0.64583 0.06406 0.0
C632 C 0.79745 0.65557 0.07053 0.0
C633 C 0.79495 0.63742 0.07576 0.0
C634 C 0.75405 0.61995 0.09912 0.0
H635 H 0.84352 0.59758 0.1923 0.0
H636 H 0.81569 0.61208 0.17226 0.0
H637 H 0.75712 0.60406 0.10489 0.0
H638 H 0.75761 0.66414 0.09332 0.0
H639 H 0.7308 0.64935 0.11367 0.0
H640 H 0.75875 0.63793 0.14107 0.0
C641 C 0.80286 0.60473 0.16836 0.0
C642 C 0.75578 0.61139 0.1131 0.0
C643 C 0.81927 0.59638 0.1797 0.0
C644 C 0.76802 0.65671 0.08814 0.0
C645 C 0.75277 0.64825 0.09981 0.0
C646 C 0.75663 0.6306 0.13293 0.0
C647 C 0.7723 0.60354 0.15131 0.0
C648 C 0.75979 0.61235 0.13711 0.0
C649 C 0.7669 0.63851 0.09413 0.0
C650 C 0.75698 0.62965 0.10881 0.0
H651 H 0.76309 0.57792 0.15332 0.0
H652 H 0.73375 0.59259 0.13361 0.0
H653 H 0.75948 0.62305 0.16541 0.0
H654 H 0.83244 0.64471 0.05049 0.0
H655 H 0.80723 0.63009 0.07112 0.0
C656 C 0.5619 0.39578 0.92716 0.0
C657 C 0.5509 0.40571 0.92142 0.0
C658 C 0.54656 0.38769 0.9145 0.0
C659 C 0.51036 0.38196 0.8564 0.0
H660 H 0.50303 0.35517 0.88286 0.0
C661 C 0.56789 0.34731 0.80907 0.0
C662 C 0.55177 0.33772 0.8139 0.0
C663 C 0.55269 0.3558 0.8204 0.0
C664 C 0.50389 0.36258 0.87506 0.0
H665 H 0.51341 0.41495 0.89876 0.0
H666 H 0.48606 0.40072 0.87661 0.0
H667 H 0.50096 0.36982 0.90792 0.0
H668 H 0.50546 0.3295 0.83337 0.0
H669 H 0.47831 0.34441 0.85306 0.0
H670 H 0.51363 0.37473 0.82355 0.0
C671 C 0.50709 0.39923 0.89073 0.0
C672 C 0.50328 0.371 0.8895 0.0
C673 C 0.52266 0.40737 0.90342 0.0
C674 C 0.51873 0.33681 0.8295 0.0
C675 C 0.50326 0.34534 0.84078 0.0
C676 C 0.51041 0.37355 0.84193 0.0
C677 C 0.51959 0.3893 0.89584 0.0
C678 C 0.50891 0.38074 0.88044 0.0
C679 C 0.52074 0.35491 0.83674 0.0
C680 C 0.50957 0.36375 0.8512 0.0
H681 H 0.58353 0.39426 0.941 0.0
H682 H 0.55758 0.38019 0.9187 0.0
H683 H 0.5146 0.38935 0.84877 0.0
H684 H 0.59332 0.34825 0.79708 0.0
H685 H 0.56754 0.36298 0.81713 0.0
C686 C 0.70238 0.84554 0.92693 0.0
C687 C 0.70159 0.8357 0.91801 0.0
C688 C 0.71825 0.85347 0.91386 0.0
C689 C 0.72523 0.86076 0.85417 0.0
H690 H 0.77955 0.88442 0.87929 0.0
C691 C 0.72127 0.89769 0.80418 0.0
C692 C 0.70833 0.90598 0.8174 0.0
C693 C 0.73597 0.88898 0.8149 0.0
C694 C 0.76445 0.87787 0.87199 0.0
H695 H 0.71892 0.82629 0.88904 0.0
H696 H 0.74632 0.84024 0.86595 0.0
H697 H 0.77762 0.86882 0.90171 0.0
H698 H 0.70309 0.91197 0.85199 0.0
H699 H 0.72728 0.89665 0.87081 0.0
H700 H 0.70953 0.86986 0.82521 0.0
C701 C 0.73456 0.84179 0.88306 0.0
C702 C 0.7635 0.86893 0.88478 0.0
C703 C 0.71894 0.83383 0.89625 0.0
C704 C 0.71281 0.90566 0.84142 0.0
C705 C 0.727 0.89689 0.85217 0.0
C706 C 0.72593 0.86969 0.84147 0.0
C707 C 0.73342 0.85172 0.89154 0.0
C708 C 0.74257 0.86041 0.87632 0.0
C709 C 0.73742 0.88833 0.83906 0.0
C710 C 0.74423 0.87845 0.85058 0.0
H711 H 0.68947 0.84718 0.94374 0.0
H712 H 0.71643 0.86105 0.92076 0.0
H713 H 0.70842 0.85436 0.84729 0.0
H714 H 0.7187 0.89781 0.78558 0.0
H715 H 0.74462 0.8826 0.80427 0.0
C716 C 0.53133 0.83329 0.34157 0.0
C717 C 0.54811 0.83509 0.31963 0.0
C718 C 0.51538 0.84127 0.35457 0.0
C719 C 0.48523 0.86834 0.35251 0.0
H720 H 0.53982 0.86943 0.41189 0.0
C721 C 0.53237 0.90529 0.39655 0.0
C722 C 0.53729 0.90548 0.42055 0.0
C723 C 0.51906 0.89648 0.38558 0.0
C724 C 0.52324 0.86921 0.39569 0.0
H725 H 0.55872 0.84645 0.2934 0.0
H726 H 0.53129 0.86035 0.31611 0.0
H727 H 0.54168 0.85397 0.38979 0.0
H728 H 0.52849 0.89705 0.45216 0.0
H729 H 0.50389 0.8818 0.43314 0.0
H730 H 0.46815 0.88376 0.35813 0.0
C731 C 0.53015 0.85281 0.32327 0.0
C732 C 0.52439 0.8603 0.38297 0.0
C733 C 0.54625 0.84486 0.31034 0.0
C734 C 0.52559 0.89703 0.43356 0.0
C735 C 0.51166 0.88829 0.42265 0.0
C736 C 0.48382 0.87726 0.36534 0.0
C737 C 0.51574 0.85115 0.34579 0.0
C738 C 0.5067 0.85988 0.36091 0.0
C739 C 0.50992 0.88776 0.39848 0.0
C740 C 0.50412 0.8779 0.38673 0.0
H741 H 0.53209 0.82581 0.34907 0.0
H742 H 0.50412 0.83976 0.37181 0.0
H743 H 0.47087 0.86817 0.33565 0.0
H744 H 0.54116 0.91173 0.38614 0.0
H745 H 0.5185 0.89635 0.36694 0.0
C746 C 0.70938 0.34541 0.42584 0.0
C747 C 0.70917 0.33571 0.41615 0.0
C748 C 0.72427 0.35361 0.41329 0.0
C749 C 0.72948 0.36167 0.35391 0.0
H750 H 0.78039 0.38551 0.3803 0.0
C751 C 0.72181 0.39893 0.30541 0.0
C752 C 0.70766 0.40703 0.31882 0.0
C753 C 0.73728 0.39024 0.31591 0.0
C754 C 0.76623 0.37891 0.37266 0.0
H755 H 0.72687 0.32683 0.38639 0.0
H756 H 0.75275 0.34123 0.36428 0.0
H757 H 0.78066 0.36968 0.4019 0.0
H758 H 0.70101 0.41274 0.35358 0.0
H759 H 0.7266 0.39745 0.37203 0.0
H760 H 0.71266 0.37091 0.32539 0.0
C761 C 0.74113 0.34248 0.38155 0.0
C762 C 0.76652 0.36984 0.38498 0.0
C763 C 0.72639 0.33425 0.39419 0.0
C764 C 0.71166 0.40658 0.34285 0.0
C765 C 0.72664 0.39783 0.3534 0.0
C766 C 0.729 0.37071 0.34167 0.0
C767 C 0.73912 0.35228 0.39074 0.0
C768 C 0.74687 0.36123 0.37605 0.0
C769 C 0.73831 0.38943 0.34005 0.0
C770 C 0.7461 0.37953 0.35122 0.0
H771 H 0.69656 0.34675 0.44281 0.0
H772 H 0.72183 0.36108 0.42076 0.0
H773 H 0.71357 0.35521 0.34667 0.0
H774 H 0.71963 0.39915 0.28679 0.0
H775 H 0.74689 0.384 0.30511 0.0
C776 C 0.48343 0.58633 0.08329 0.0
C777 C 0.4548 0.5878 0.06539 0.0
C778 C 0.4984 0.59457 0.09583 0.0
C779 C 0.49784 0.62286 0.09765 0.0
H780 H 0.48941 0.6186 0.16352 0.0
C781 C 0.43197 0.64534 0.17984 0.0
C782 C 0.44657 0.65511 0.17532 0.0
C783 C 0.44779 0.6371 0.16784 0.0
C784 C 0.49202 0.61992 0.14517 0.0
H785 H 0.42112 0.59903 0.04573 0.0
H786 H 0.44588 0.61327 0.06786 0.0
H787 H 0.49041 0.60416 0.13785 0.0
H788 H 0.49075 0.6639 0.15563 0.0
H789 H 0.51908 0.64942 0.13481 0.0
H790 H 0.49544 0.63863 0.10485 0.0
C791 C 0.45772 0.60586 0.07207 0.0
C792 C 0.49324 0.61162 0.13041 0.0
C793 C 0.44307 0.59766 0.05949 0.0
C794 C 0.47867 0.65644 0.15928 0.0
C795 C 0.49479 0.64816 0.14734 0.0
C796 C 0.49598 0.63116 0.11239 0.0
C797 C 0.48477 0.60441 0.09078 0.0
C798 C 0.4941 0.613 0.1064 0.0
C799 C 0.47891 0.63841 0.15114 0.0
C800 C 0.49099 0.62978 0.13624 0.0
H801 H 0.49329 0.5788 0.08805 0.0
H802 H 0.51966 0.5932 0.10992 0.0
H803 H 0.49969 0.62418 0.07927 0.0
H804 H 0.40726 0.64408 0.19213 0.0
H805 H 0.43411 0.62977 0.17095 0.0
C806 C 0.27993 0.15756 0.09334 0.0
C807 C 0.29912 0.15626 0.07184 0.0
C808 C 0.26379 0.14925 0.10515 0.0
C809 C 0.23729 0.12202 0.0994 0.0
H810 H 0.28314 0.12022 0.16095 0.0
C811 C 0.28529 0.0848 0.14173 0.0
C812 C 0.28613 0.08411 0.16583 0.0
C813 C 0.27179 0.09366 0.13106 0.0
C814 C 0.269 0.12063 0.14406 0.0
H815 H 0.31423 0.14542 0.04516 0.0
H816 H 0.28661 0.13094 0.06581 0.0
H817 H 0.28606 0.1361 0.14043 0.0
H818 H 0.2699 0.09167 0.19769 0.0
H819 H 0.24529 0.10702 0.17909 0.0
H820 H 0.22187 0.10638 0.10276 0.0
C821 C 0.28361 0.13835 0.07353 0.0
C822 C 0.27074 0.12977 0.13226 0.0
C823 C 0.29986 0.14663 0.06179 0.0
C824 C 0.27018 0.09208 0.17905 0.0
C825 C 0.25621 0.10088 0.1684 0.0
C826 C 0.23539 0.11286 0.11127 0.0
C827 C 0.2664 0.13952 0.09559 0.0
C828 C 0.25633 0.13048 0.1095 0.0
C829 C 0.25849 0.10194 0.14434 0.0
C830 C 0.25263 0.11197 0.13342 0.0
H831 H 0.27867 0.16492 0.1014 0.0
H832 H 0.25037 0.15038 0.12206 0.0
H833 H 0.22537 0.1224 0.08198 0.0
H834 H 0.29736 0.07875 0.13115 0.0
H835 H 0.27434 0.09423 0.11251 0.0
C836 C 0.48306 0.08694 0.58014 0.0
C837 C 0.45219 0.08792 0.56325 0.0
C838 C 0.49753 0.09544 0.59193 0.0
C839 C 0.49113 0.1237 0.59287 0.0
H840 H 0.49277 0.11986 0.65903 0.0
C841 C 0.47361 0.15748 0.65421 0.0
C842 C 0.44384 0.15587 0.67146 0.0
C843 C 0.48984 0.14932 0.64186 0.0
C844 C 0.49257 0.12107 0.64058 0.0
H845 H 0.4137 0.09856 0.54464 0.0
H846 H 0.43761 0.11324 0.56554 0.0
H847 H 0.49316 0.10525 0.63385 0.0
H848 H 0.409 0.14449 0.69001 0.0
H849 H 0.43607 0.13039 0.66824 0.0
H850 H 0.48655 0.13949 0.59966 0.0
C851 C 0.4516 0.10602 0.56948 0.0
C852 C 0.49341 0.11268 0.62608 0.0
C853 C 0.43746 0.09756 0.55762 0.0
C854 C 0.43185 0.14597 0.67678 0.0
C855 C 0.44782 0.13785 0.66442 0.0
C856 C 0.48966 0.13209 0.60738 0.0
C857 C 0.48116 0.10506 0.58714 0.0
C858 C 0.49065 0.11388 0.60207 0.0
C859 C 0.47645 0.13942 0.64652 0.0
C860 C 0.4883 0.13084 0.63142 0.0
H861 H 0.49524 0.07959 0.58465 0.0
H862 H 0.52073 0.09445 0.60521 0.0
H863 H 0.49018 0.12491 0.57443 0.0
H864 H 0.48363 0.16505 0.64989 0.0
H865 H 0.51217 0.15078 0.62835 0.0
C866 C 0.28882 0.65586 0.59573 0.0
C867 C 0.2936 0.65661 0.57178 0.0
C868 C 0.27348 0.64699 0.60556 0.0
C869 C 0.27172 0.62004 0.59232 0.0
H870 H 0.21665 0.61835 0.65153 0.0
C871 C 0.27266 0.58309 0.64292 0.0
C872 C 0.2883 0.58436 0.6653 0.0
C873 C 0.2583 0.59141 0.63046 0.0
C874 C 0.23177 0.6187 0.63489 0.0
H875 H 0.28277 0.64911 0.53915 0.0
H876 H 0.25506 0.63373 0.55623 0.0
H877 H 0.218 0.63441 0.63082 0.0
H878 H 0.29844 0.59513 0.69284 0.0
H879 H 0.27394 0.60962 0.67109 0.0
H880 H 0.28714 0.60451 0.59676 0.0
C881 C 0.26423 0.63985 0.5675 0.0
C882 C 0.23264 0.62789 0.62307 0.0
C883 C 0.27999 0.64866 0.55772 0.0
C884 C 0.28684 0.59394 0.67554 0.0
C885 C 0.27239 0.60224 0.66315 0.0
C886 C 0.27071 0.61088 0.60406 0.0
C887 C 0.26228 0.63876 0.59156 0.0
C888 C 0.25397 0.62874 0.60205 0.0
C889 C 0.25919 0.60111 0.64023 0.0
C890 C 0.25208 0.61019 0.62586 0.0
H891 H 0.29901 0.6619 0.60696 0.0
H892 H 0.2728 0.64639 0.62416 0.0
H893 H 0.28894 0.62043 0.57634 0.0
H894 H 0.27313 0.57575 0.63469 0.0
H895 H 0.24792 0.59031 0.6129 0.0
C896 C 0.52935 0.31242 0.39247 0.0
C897 C 0.53191 0.31219 0.41661 0.0
C898 C 0.4908 0.31246 0.38155 0.0
C899 C 0.38142 0.3058 0.39025 0.0
H900 H 0.36231 0.3243 0.33962 0.0
C901 C 0.21983 0.31125 0.349 0.0
C902 C 0.21857 0.3123 0.32494 0.0
C903 C 0.25776 0.31128 0.36063 0.0
C904 C 0.36727 0.319 0.35355 0.0
H905 H 0.49629 0.31176 0.44828 0.0
H906 H 0.42897 0.3118 0.42918 0.0
H907 H 0.42937 0.32414 0.35884 0.0
H908 H 0.25588 0.31408 0.29414 0.0
H909 H 0.32188 0.31394 0.3143 0.0
H910 H 0.3195 0.30057 0.38481 0.0
C911 C 0.45672 0.3119 0.41871 0.0
C912 C 0.40568 0.31893 0.36457 0.0
C913 C 0.49525 0.31193 0.42963 0.0
C914 C 0.25586 0.31331 0.31272 0.0
C915 C 0.2937 0.3133 0.3243 0.0
C916 C 0.34303 0.30584 0.37915 0.0
C917 C 0.4541 0.3122 0.39457 0.0
C918 C 0.4132 0.31231 0.38299 0.0
C919 C 0.29514 0.31233 0.3484 0.0
C920 C 0.33556 0.31242 0.3606 0.0
H921 H 0.55711 0.31261 0.38201 0.0
H922 H 0.4897 0.31259 0.36291 0.0
H923 H 0.38649 0.30054 0.40426 0.0
H924 H 0.19153 0.31049 0.35886 0.0
H925 H 0.25776 0.31063 0.37922 0.0
C926 C 0.02571 0.93153 0.34778 0.0
C927 C 0.02831 0.92711 0.32584 0.0
C928 C 0.98812 0.9316 0.35976 0.0
C929 C 0.87626 0.93072 0.35034 0.0
H930 H 0.86973 0.9225 0.41434 0.0
C931 C 0.71947 0.92533 0.39582 0.0
C932 C 0.71635 0.92825 0.41898 0.0
C933 C 0.75793 0.92515 0.38483 0.0
C934 C 0.87106 0.92497 0.39657 0.0
H935 H 0.99386 0.91924 0.29927 0.0
H936 H 0.92825 0.91946 0.32006 0.0
H937 H 0.93654 0.92242 0.39467 0.0
H938 H 0.75085 0.93334 0.44883 0.0
H939 H 0.81784 0.93332 0.42951 0.0
H940 H 0.81118 0.93347 0.35218 0.0
C941 C 0.95519 0.92288 0.32798 0.0
C942 C 0.90933 0.92489 0.38532 0.0
C943 C 0.99278 0.92271 0.31615 0.0
C944 C 0.75238 0.93101 0.43097 0.0
C945 C 0.79081 0.93093 0.41992 0.0
C946 C 0.83811 0.93091 0.36163 0.0
C947 C 0.95243 0.92736 0.34985 0.0
C948 C 0.9122 0.92769 0.36205 0.0
C949 C 0.79409 0.928 0.39669 0.0
C950 C 0.83494 0.92796 0.38484 0.0
H951 H 0.05264 0.93497 0.35566 0.0
H952 H 0.98674 0.93514 0.37655 0.0
H953 H 0.87773 0.93306 0.33248 0.0
H954 H 0.69221 0.9231 0.3862 0.0
H955 H 0.75932 0.92267 0.36707 0.0
C956 C 0.49709 0.92388 0.81482 0.0
C957 C 0.53274 0.92812 0.82475 0.0
C958 C 0.45942 0.92406 0.8266 0.0
C959 C 0.41367 0.92558 0.88396 0.0
H960 H 0.31615 0.93521 0.85177 0.0
C961 C 0.25846 0.93178 0.93097 0.0
C962 C 0.22192 0.92943 0.91905 0.0
C963 C 0.29655 0.93178 0.91958 0.0
C964 C 0.34289 0.93235 0.86094 0.0
H965 H 0.55725 0.93567 0.85492 0.0
H966 H 0.49132 0.93582 0.87575 0.0
H967 H 0.38247 0.93463 0.8318 0.0
H968 H 0.19642 0.92513 0.88595 0.0
H969 H 0.26295 0.92479 0.86618 0.0
H970 H 0.37418 0.92304 0.91292 0.0
C971 C 0.49261 0.93242 0.8588 0.0
C972 C 0.38089 0.93207 0.8495 0.0
C973 C 0.53022 0.93236 0.84687 0.0
C974 C 0.22411 0.92705 0.89553 0.0
C975 C 0.26226 0.92692 0.88418 0.0
C976 C 0.37556 0.92574 0.89533 0.0
C977 C 0.4568 0.92835 0.84866 0.0
C978 C 0.41662 0.92868 0.8609 0.0
C979 C 0.29899 0.9293 0.89605 0.0
C980 C 0.33965 0.92914 0.88398 0.0
H981 H 0.49812 0.92057 0.79777 0.0
H982 H 0.43234 0.92079 0.81851 0.0
H983 H 0.44072 0.92284 0.89305 0.0
H984 H 0.25762 0.93371 0.9491 0.0
H985 H 0.32401 0.93384 0.92919 0.0
C986 C 0.75504 0.30957 0.81084 0.0
C987 C 0.71778 0.31183 0.82221 0.0
C988 C 0.79244 0.30954 0.82286 0.0
C989 C 0.84391 0.32033 0.87288 0.0
H990 H 0.92031 0.29797 0.866 0.0
C991 C 0.99263 0.31722 0.92739 0.0
C992 C 0.02805 0.31308 0.91703 0.0
C993 C 0.95463 0.31709 0.91593 0.0
C994 C 0.89968 0.30435 0.86785 0.0
H995 H 0.69033 0.31587 0.855 0.0
H996 H 0.75613 0.31598 0.87603 0.0
H997 H 0.85399 0.29761 0.84599 0.0
H998 H 0.05186 0.30577 0.8864 0.0
H999 H 0.98586 0.30585 0.86598 0.0
H1000 H 0.8898 0.32724 0.89419 0.0
C1001 C 0.75619 0.31419 0.85782 0.0
C1002 C 0.86159 0.3041 0.85649 0.0
C1003 C 0.71861 0.31408 0.84584 0.0
C1004 C 0.02496 0.30896 0.89484 0.0
C1005 C 0.98704 0.30894 0.88323 0.0
C1006 C 0.88222 0.32065 0.88403 0.0
C1007 C 0.79342 0.31191 0.84642 0.0
C1008 C 0.83336 0.31209 0.85891 0.0
C1009 C 0.95129 0.31293 0.89371 0.0
C1010 C 0.91061 0.31266 0.88168 0.0
H1011 H 0.75533 0.30781 0.79262 0.0
H1012 H 0.82075 0.30785 0.81362 0.0
H1013 H 0.82287 0.32665 0.87478 0.0
H1014 H 0.99406 0.32038 0.94457 0.0
H1015 H 0.92773 0.32007 0.92473 0.0
C1016 C 0.78634 0.67704 0.64383 0.0
C1017 C 0.78767 0.67755 0.66796 0.0
C1018 C 0.74826 0.67676 0.63234 0.0
C1019 C 0.6361 0.67184 0.64267 0.0
H1020 H 0.62257 0.68581 0.58446 0.0
C1021 C 0.47697 0.68036 0.60114 0.0
C1022 C 0.47319 0.67782 0.57776 0.0
C1023 C 0.51556 0.67994 0.61201 0.0
C1024 C 0.62607 0.68183 0.60064 0.0
H1025 H 0.7505 0.67839 0.69901 0.0
H1026 H 0.68445 0.67829 0.67909 0.0
H1027 H 0.68986 0.68593 0.60356 0.0
H1028 H 0.5066 0.67288 0.54737 0.0
H1029 H 0.57412 0.67235 0.56629 0.0
H1030 H 0.5718 0.66804 0.63997 0.0
C1031 C 0.71248 0.67776 0.66893 0.0
C1032 C 0.66464 0.68184 0.61155 0.0
C1033 C 0.75041 0.6779 0.68038 0.0
C1034 C 0.50861 0.67486 0.56544 0.0
C1035 C 0.54724 0.6746 0.57619 0.0
C1036 C 0.59744 0.67196 0.63193 0.0
C1037 C 0.71082 0.67711 0.64477 0.0
C1038 C 0.67013 0.67687 0.63275 0.0
C1039 C 0.55106 0.67715 0.59956 0.0
C1040 C 0.59208 0.67696 0.61085 0.0
H1041 H 0.81466 0.67671 0.63387 0.0
H1042 H 0.74823 0.67612 0.61375 0.0
H1043 H 0.63931 0.66774 0.65871 0.0
H1044 H 0.45014 0.68266 0.61103 0.0
H1045 H 0.51781 0.68199 0.63003 0.0
C1046 C 0.01712 0.06449 0.68109 0.0
C1047 C 0.97978 0.06216 0.6699 0.0
C1048 C 0.05455 0.0642 0.66913 0.0
C1049 C 0.10339 0.05379 0.61661 0.0
H1050 H 0.18704 0.07405 0.62931 0.0
C1051 C 0.24876 0.05935 0.56026 0.0
C1052 C 0.28656 0.06089 0.57171 0.0
C1053 C 0.21164 0.05916 0.57255 0.0
C1054 C 0.16414 0.06828 0.62577 0.0
H1055 H 0.95216 0.05779 0.63738 0.0
H1056 H 0.01757 0.05751 0.61624 0.0
H1057 H 0.12106 0.07465 0.64962 0.0
H1058 H 0.31531 0.06334 0.60498 0.0
H1059 H 0.25018 0.06306 0.62652 0.0
H1060 H 0.14642 0.04754 0.59245 0.0
C1061 C 0.01802 0.05937 0.63441 0.0
C1062 C 0.12633 0.06861 0.63741 0.0
C1063 C 0.98053 0.05959 0.64645 0.0
C1064 C 0.2866 0.06215 0.59573 0.0
C1065 C 0.24937 0.06204 0.60801 0.0
C1066 C 0.14111 0.0535 0.60486 0.0
C1067 C 0.0555 0.06165 0.64563 0.0
C1068 C 0.09551 0.06136 0.633 0.0
C1069 C 0.21152 0.06058 0.59652 0.0
C1070 C 0.17186 0.06074 0.60934 0.0
H1071 H 0.01754 0.06644 0.69921 0.0
H1072 H 0.08283 0.06584 0.67843 0.0
H1073 H 0.08065 0.04799 0.61308 0.0
H1074 H 0.24778 0.05837 0.54175 0.0
H1075 H 0.18292 0.05813 0.56321 0.0
C1076 C 0.49937 0.06677 0.17553 0.0
C1077 C 0.46546 0.06223 0.1645 0.0
C1078 C 0.53868 0.06646 0.16554 0.0
C1079 C 0.59984 0.05241 0.12204 0.0
H1080 H 0.67434 0.07526 0.12713 0.0
C1081 C 0.74904 0.05639 0.06837 0.0
C1082 C 0.78492 0.05953 0.08001 0.0
C1083 C 0.71076 0.05644 0.07949 0.0
C1084 C 0.65398 0.06879 0.1258 0.0
H1085 H 0.44574 0.05403 0.13413 0.0
H1086 H 0.51409 0.05375 0.1163 0.0
H1087 H 0.60546 0.07621 0.14425 0.0
H1088 H 0.80906 0.06513 0.11241 0.0
H1089 H 0.74172 0.06534 0.13185 0.0
H1090 H 0.64817 0.04511 0.10307 0.0
C1091 C 0.51065 0.05732 0.13296 0.0
C1092 C 0.61454 0.06932 0.13562 0.0
C1093 C 0.4714 0.05754 0.14307 0.0
C1094 C 0.78187 0.06266 0.10306 0.0
C1095 C 0.7434 0.06283 0.11412 0.0
C1096 C 0.63909 0.05193 0.11203 0.0
C1097 C 0.54488 0.06168 0.14419 0.0
C1098 C 0.58692 0.06114 0.1338 0.0
C1099 C 0.70749 0.05974 0.1024 0.0
C1100 C 0.66649 0.06012 0.11377 0.0
H1101 H 0.49573 0.07038 0.19214 0.0
H1102 H 0.56436 0.06978 0.17484 0.0
H1103 H 0.57977 0.04589 0.12072 0.0
H1104 H 0.75048 0.05394 0.05059 0.0
H1105 H 0.68352 0.05411 0.06999 0.0
C1106 C 0.96918 0.68149 0.0999 0.0
C1107 C 0.96789 0.68169 0.07573 0.0
C1108 C 0.00715 0.68167 0.11146 0.0
C1109 C 0.11858 0.67653 0.10263 0.0
H1110 H 0.13156 0.69219 0.15859 0.0
C1111 C 0.2772 0.68234 0.14678 0.0
C1112 C 0.27784 0.68119 0.17083 0.0
C1113 C 0.23953 0.68266 0.13494 0.0
C1114 C 0.12829 0.68772 0.14307 0.0
H1115 H 0.00515 0.68239 0.04469 0.0
H1116 H 0.07125 0.68288 0.06481 0.0
H1117 H 0.06527 0.69226 0.13846 0.0
H1118 H 0.23973 0.67954 0.20137 0.0
H1119 H 0.17409 0.68009 0.18071 0.0
H1120 H 0.18169 0.67203 0.10724 0.0
C1121 C 0.04308 0.68239 0.07487 0.0
C1122 C 0.09031 0.68774 0.13157 0.0
C1123 C 0.00519 0.68217 0.06334 0.0
C1124 C 0.24019 0.68045 0.18282 0.0
C1125 C 0.2026 0.68082 0.17102 0.0
C1126 C 0.1566 0.67654 0.11409 0.0
C1127 C 0.04455 0.68209 0.09906 0.0
C1128 C 0.08498 0.68213 0.11125 0.0
C1129 C 0.20184 0.6819 0.14695 0.0
C1130 C 0.16181 0.68211 0.13447 0.0
H1131 H 0.94089 0.68108 0.10988 0.0
H1132 H 0.00721 0.68131 0.1301 0.0
H1133 H 0.11533 0.67199 0.08723 0.0
H1134 H 0.30577 0.68294 0.13711 0.0
H1135 H 0.23987 0.6836 0.1164 0.0
C1136 C 0.5264 0.80946 0.89421 0.0
C1137 C 0.52781 0.81275 0.91719 0.0
C1138 C 0.48881 0.80926 0.88226 0.0
C1139 C 0.3765 0.80797 0.89128 0.0
H1140 H 0.36925 0.81905 0.82959 0.0
C1141 C 0.21971 0.81379 0.84583 0.0
C1142 C 0.21767 0.81183 0.8221 0.0
C1143 C 0.25782 0.81384 0.85722 0.0
C1144 C 0.37083 0.81579 0.84667 0.0
H1145 H 0.49116 0.81839 0.94573 0.0
H1146 H 0.42557 0.81798 0.92491 0.0
H1147 H 0.43557 0.81907 0.84971 0.0
H1148 H 0.25375 0.8083 0.79166 0.0
H1149 H 0.32017 0.80813 0.81159 0.0
H1150 H 0.31206 0.80456 0.88825 0.0
C1151 C 0.45344 0.81553 0.91616 0.0
C1152 C 0.40882 0.81583 0.8582 0.0
C1153 C 0.49101 0.81582 0.92802 0.0
C1154 C 0.25442 0.80989 0.80996 0.0
C1155 C 0.2925 0.80985 0.82137 0.0
C1156 C 0.33861 0.80785 0.87971 0.0
C1157 C 0.45195 0.81225 0.89316 0.0
C1158 C 0.41196 0.81198 0.88067 0.0
C1159 C 0.29469 0.81184 0.84514 0.0
C1160 C 0.33523 0.81182 0.8573 0.0
H1161 H 0.55431 0.80706 0.88544 0.0
H1162 H 0.48848 0.80664 0.86459 0.0
H1163 H 0.37817 0.80482 0.90848 0.0
H1164 H 0.19187 0.81537 0.8556 0.0
H1165 H 0.25838 0.81556 0.87545 0.0
C1166 C 0.72143 0.43171 0.89553 0.0
C1167 C 0.72033 0.42986 0.91935 0.0
C1168 C 0.75922 0.43187 0.88378 0.0
C1169 C 0.8707 0.43567 0.89271 0.0
H1170 H 0.88287 0.42093 0.83544 0.0
C1171 C 0.03012 0.42936 0.8504 0.0
C1172 C 0.03231 0.42977 0.82627 0.0
C1173 C 0.99178 0.42955 0.86154 0.0
C1174 C 0.87987 0.42521 0.85124 0.0
H1175 H 0.75776 0.42677 0.94957 0.0
H1176 H 0.82363 0.42711 0.92908 0.0
H1177 H 0.81607 0.42111 0.85503 0.0
H1178 H 0.99627 0.43082 0.79485 0.0
H1179 H 0.92945 0.43138 0.81426 0.0
H1180 H 0.93423 0.43988 0.8889 0.0
C1181 C 0.79537 0.42847 0.91952 0.0
C1182 C 0.84161 0.42529 0.86246 0.0
C1183 C 0.75765 0.42822 0.93121 0.0
C1184 C 0.9955 0.43044 0.81349 0.0
C1185 C 0.95719 0.4307 0.82461 0.0
C1186 C 0.90886 0.43566 0.88141 0.0
C1187 C 0.79656 0.43029 0.89569 0.0
C1188 C 0.83673 0.43047 0.88338 0.0
C1189 C 0.95483 0.43022 0.84878 0.0
C1190 C 0.914 0.43038 0.8606 0.0
H1191 H 0.69311 0.43299 0.88597 0.0
H1192 H 0.75929 0.43336 0.86543 0.0
H1193 H 0.86764 0.43984 0.90867 0.0
H1194 H 0.05802 0.4288 0.86068 0.0
H1195 H 0.9911 0.42901 0.88015 0.0
C1196 C 0.52317 0.42712 0.34508 0.0
C1197 C 0.52605 0.43018 0.32198 0.0
C1198 C 0.48474 0.42676 0.35608 0.0
C1199 C 0.37915 0.43696 0.35374 0.0
H1200 H 0.35193 0.41357 0.39091 0.0
C1201 C 0.21759 0.43162 0.39519 0.0
C1202 C 0.21704 0.42782 0.41777 0.0
C1203 C 0.25443 0.4317 0.3825 0.0
C1204 C 0.35919 0.42021 0.3808 0.0
H1205 H 0.49117 0.43537 0.29233 0.0
H1206 H 0.42401 0.43478 0.31163 0.0
H1207 H 0.41833 0.41431 0.37106 0.0
H1208 H 0.25445 0.42116 0.44482 0.0
H1209 H 0.31859 0.42147 0.42296 0.0
H1210 H 0.32034 0.44296 0.36379 0.0
C1211 C 0.45147 0.43269 0.32122 0.0
C1212 C 0.39722 0.42062 0.36942 0.0
C1213 C 0.48987 0.43298 0.31016 0.0
C1214 C 0.25385 0.42409 0.4274 0.0
C1215 C 0.2906 0.4242 0.41479 0.0
C1216 C 0.34117 0.43659 0.36525 0.0
C1217 C 0.44849 0.42952 0.34425 0.0
C1218 C 0.40771 0.42902 0.3559 0.0
C1219 C 0.29139 0.42801 0.39219 0.0
C1220 C 0.33087 0.42824 0.37906 0.0
H1221 H 0.55057 0.42493 0.35462 0.0
H1222 H 0.48342 0.42439 0.37393 0.0
H1223 H 0.38658 0.44358 0.34359 0.0
H1224 H 0.18961 0.43453 0.38733 0.0
H1225 H 0.25387 0.43458 0.36504 0.0
C1226 C 0.76249 0.808 0.30979 0.0
C1227 C 0.72679 0.81173 0.32067 0.0
C1228 C 0.80061 0.80814 0.32116 0.0
C1229 C 0.85722 0.82139 0.3665 0.0
H1230 H 0.92818 0.79779 0.36669 0.0
C1231 C 0.00379 0.81911 0.42287 0.0
C1232 C 0.03844 0.81402 0.41405 0.0
C1233 C 0.96614 0.81894 0.41105 0.0
C1234 C 0.90908 0.80451 0.36651 0.0
H1235 H 0.70281 0.81849 0.35195 0.0
H1236 H 0.76961 0.81882 0.37175 0.0
H1237 H 0.86155 0.79716 0.34698 0.0
H1238 H 0.06126 0.80493 0.38575 0.0
H1239 H 0.99585 0.80485 0.36473 0.0
H1240 H 0.90481 0.82883 0.38563 0.0
C1241 C 0.76805 0.8158 0.35443 0.0
C1242 C 0.87084 0.80412 0.3553 0.0
C1243 C 0.72984 0.81556 0.34316 0.0
C1244 C 0.03497 0.80888 0.393 0.0
C1245 C 0.99739 0.80878 0.38106 0.0
C1246 C 0.89562 0.82182 0.37752 0.0
C1247 C 0.80382 0.81212 0.34351 0.0
C1248 C 0.84446 0.81254 0.35529 0.0
C1249 C 0.96239 0.81374 0.39003 0.0
C1250 C 0.92197 0.81337 0.37777 0.0
H1251 H 0.76103 0.805 0.29245 0.0
H1252 H 0.82775 0.80532 0.31228 0.0
H1253 H 0.83773 0.82804 0.36647 0.0
H1254 H 0.0055 0.82309 0.43915 0.0
H1255 H 0.93975 0.8227 0.41869 0.0
C1256 C 0.78904 0.1819 0.14023 0.0
C1257 C 0.79038 0.17853 0.16315 0.0
C1258 C 0.75167 0.18184 0.12802 0.0
C1259 C 0.64597 0.17075 0.12915 0.0
H1260 H 0.6187 0.19329 0.08935 0.0
C1261 C 0.48082 0.17788 0.09532 0.0
C1262 C 0.47708 0.18014 0.07179 0.0
C1263 C 0.51978 0.17758 0.10575 0.0
C1264 C 0.62609 0.18691 0.10026 0.0
H1265 H 0.75381 0.17251 0.19132 0.0
H1266 H 0.68879 0.17263 0.17034 0.0
H1267 H 0.68585 0.19283 0.10863 0.0
H1268 H 0.51095 0.18398 0.04074 0.0
H1269 H 0.57905 0.18355 0.05905 0.0
H1270 H 0.58579 0.16496 0.12116 0.0
C1271 C 0.71654 0.1751 0.16151 0.0
C1272 C 0.66459 0.18662 0.11123 0.0
C1273 C 0.75381 0.17509 0.17361 0.0
C1274 C 0.51294 0.18221 0.05892 0.0
C1275 C 0.55186 0.18201 0.0694 0.0
C1276 C 0.6074 0.17109 0.11835 0.0
C1277 C 0.71494 0.17846 0.13856 0.0
C1278 C 0.67487 0.17857 0.12596 0.0
C1279 C 0.55567 0.17963 0.09288 0.0
C1280 C 0.59697 0.1792 0.10392 0.0
H1281 H 0.81682 0.18457 0.13173 0.0
H1282 H 0.75164 0.18437 0.11028 0.0
H1283 H 0.65316 0.16433 0.13999 0.0
H1284 H 0.45369 0.17625 0.10565 0.0
H1285 H 0.52182 0.17582 0.12394 0.0
C1286 C 0.28457 0.56108 0.09581 0.0
C1287 C 0.28526 0.56399 0.07256 0.0
C1288 C 0.2472 0.56083 0.10797 0.0
C1289 C 0.139 0.57031 0.1058 0.0
H1290 H 0.11835 0.54852 0.14889 0.0
C1291 C 0.97763 0.56254 0.14469 0.0
C1292 C 0.9765 0.56101 0.16861 0.0
C1293 C 0.01549 0.5628 0.13304 0.0
C1294 C 0.12384 0.55468 0.13702 0.0
H1295 H 0.24753 0.56889 0.04375 0.0
H1296 H 0.18242 0.56822 0.06469 0.0
H1297 H 0.18447 0.54933 0.12864 0.0
H1298 H 0.01385 0.55837 0.19908 0.0
H1299 H 0.07991 0.55872 0.17868 0.0
H1300 H 0.078 0.57553 0.11393 0.0
C1301 C 0.21067 0.56635 0.07377 0.0
C1302 C 0.16176 0.55518 0.12549 0.0
C1303 C 0.248 0.56667 0.06171 0.0
C1304 C 0.0138 0.55957 0.18062 0.0
C1305 C 0.05159 0.55972 0.16895 0.0
C1306 C 0.10098 0.56975 0.11717 0.0
C1307 C 0.20976 0.56343 0.09705 0.0
C1308 C 0.16979 0.56299 0.10971 0.0
C1309 C 0.05282 0.56142 0.14508 0.0
C1310 C 0.09303 0.56193 0.13287 0.0
H1311 H 0.31289 0.55901 0.10462 0.0
H1312 H 0.24771 0.55869 0.12597 0.0
H1313 H 0.14438 0.57654 0.0941 0.0
H1314 H 0.94933 0.56367 0.13501 0.0
H1315 H 0.01557 0.56403 0.11459 0.0
C1316 C 0.78023 0.55899 0.60096 0.0
C1317 C 0.78243 0.56278 0.57841 0.0
C1318 C 0.7426 0.55902 0.61291 0.0
C1319 C 0.63796 0.57067 0.61229 0.0
H1320 H 0.60763 0.54736 0.64899 0.0
C1321 C 0.47135 0.56369 0.64406 0.0
C1322 C 0.46684 0.56083 0.66721 0.0
C1323 C 0.51058 0.56403 0.63395 0.0
C1324 C 0.61588 0.55396 0.63896 0.0
H1325 H 0.74715 0.56958 0.55066 0.0
H1326 H 0.68163 0.56944 0.57119 0.0
H1327 H 0.67532 0.54792 0.63032 0.0
H1328 H 0.49959 0.55597 0.69789 0.0
H1329 H 0.56812 0.55648 0.68012 0.0
H1330 H 0.57812 0.57659 0.62056 0.0
C1331 C 0.70893 0.56663 0.57992 0.0
C1332 C 0.65469 0.5543 0.62834 0.0
C1333 C 0.74647 0.56665 0.56808 0.0
C1334 C 0.50217 0.5582 0.67999 0.0
C1335 C 0.54134 0.55845 0.66982 0.0
C1336 C 0.59909 0.57029 0.62275 0.0
C1337 C 0.70646 0.56281 0.60247 0.0
C1338 C 0.66607 0.56263 0.61473 0.0
C1339 C 0.54595 0.56143 0.64674 0.0
C1340 C 0.58756 0.5619 0.63606 0.0
H1341 H 0.80752 0.55599 0.60936 0.0
H1342 H 0.74188 0.55613 0.63035 0.0
H1343 H 0.64601 0.57729 0.60232 0.0
H1344 H 0.44464 0.56575 0.63381 0.0
H1345 H 0.51322 0.56625 0.61605 0.0
C1346 C 0.99998 0.1825 0.56039 0.0
C1347 C 0.96312 0.18097 0.57273 0.0
C1348 C 0.03801 0.18275 0.5718 0.0
C1349 C 0.08494 0.1859 0.62962 0.0
H1350 H 0.17969 0.17303 0.60094 0.0
C1351 C 0.23639 0.17771 0.67852 0.0
C1352 C 0.27362 0.18006 0.66721 0.0
C1353 C 0.1988 0.1781 0.66672 0.0
C1354 C 0.1536 0.17674 0.60903 0.0
H1355 H 0.93698 0.17852 0.60666 0.0
H1356 H 0.00349 0.17872 0.62659 0.0
H1357 H 0.11319 0.17313 0.58106 0.0
H1358 H 0.30084 0.18459 0.63468 0.0
H1359 H 0.2349 0.1852 0.61393 0.0
H1360 H 0.12535 0.18932 0.65779 0.0
C1361 C 0.00303 0.17993 0.60814 0.0
C1362 C 0.1155 0.17682 0.59765 0.0
C1363 C 0.96493 0.17976 0.59673 0.0
C1364 C 0.2726 0.18274 0.64381 0.0
C1365 C 0.23494 0.18305 0.63193 0.0
C1366 C 0.12296 0.18574 0.64106 0.0
C1367 C 0.04005 0.18139 0.59579 0.0
C1368 C 0.08068 0.18139 0.60782 0.0
C1369 C 0.19767 0.18078 0.64332 0.0
C1370 C 0.15763 0.18114 0.63091 0.0
H1371 H 0.99949 0.18352 0.54188 0.0
H1372 H 0.06579 0.18407 0.5618 0.0
H1373 H 0.05899 0.18964 0.63778 0.0
H1374 H 0.23623 0.17562 0.69656 0.0
H1375 H 0.17062 0.1762 0.67586 0.0
C1376 C 0.92065 0.21642 0.21452 0.0
C1377 C 0.94756 0.20827 0.21077 0.0
C1378 C 0.93601 0.22569 0.22207 0.0
C1379 C 0.02529 0.23656 0.25275 0.0
H1380 H 0.97838 0.26196 0.23235 0.0
C1381 C 0.09371 0.27562 0.27581 0.0
C1382 C 0.0655 0.28333 0.28114 0.0
C1383 C 0.07957 0.26624 0.2682 0.0
C1384 C 0.99143 0.25491 0.23839 0.0
H1385 H 0.01177 0.20351 0.21098 0.0
H1386 H 0.03878 0.21978 0.22371 0.0
H1387 H 0.95445 0.24623 0.21515 0.0
H1388 H 0.00041 0.2872 0.28359 0.0
H1389 H 0.97568 0.27078 0.27034 0.0
H1390 H 0.06256 0.24529 0.27585 0.0
C1391 C 0.00571 0.21895 0.22129 0.0
C1392 C 0.9778 0.24591 0.22852 0.0
C1393 C 0.9903 0.20966 0.21381 0.0
C1394 C 0.02286 0.28139 0.27959 0.0
C1395 C 0.00872 0.27203 0.27183 0.0
C1396 C 0.03909 0.24558 0.26254 0.0
C1397 C 0.97863 0.22701 0.22593 0.0
C1398 C 0.99443 0.23662 0.23566 0.0
C1399 C 0.03696 0.26443 0.26564 0.0
C1400 C 0.02212 0.25484 0.25554 0.0
H1401 H 0.88752 0.21556 0.21239 0.0
H1402 H 0.91424 0.2317 0.22569 0.0
H1403 H 0.03823 0.22952 0.25894 0.0
H1404 H 0.12678 0.27691 0.27683 0.0
H1405 H 0.10204 0.26054 0.26344 0.0
C1406 C 0.15484 0.9646 0.26826 0.0
C1407 C 0.18228 0.9569 0.27484 0.0
C1408 C 0.16995 0.97383 0.26026 0.0
C1409 C 0.26273 0.99002 0.25927 0.0
H1410 H 0.212 0.00131 0.20444 0.0
C1411 C 0.33437 0.0239 0.21237 0.0
C1412 C 0.30705 0.03162 0.20578 0.0
C1413 C 0.31916 0.01458 0.21962 0.0
C1414 C 0.22624 -0.0017 0.21987 0.0
H1415 H 0.24695 0.95289 0.27885 0.0
H1416 H 0.27339 0.96901 0.26486 0.0
H1417 H 0.18502 0.98566 0.22075 0.0
H1418 H 0.24252 0.03554 0.20075 0.0
H1419 H 0.21585 0.01925 0.2136 0.0
H1420 H 0.30383 0.00265 0.25849 0.0
C1421 C 0.24021 0.96794 0.266 0.0
C1422 C 0.21075 0.98935 0.22924 0.0
C1423 C 0.22509 0.9587 0.27395 0.0
C1424 C 0.26429 0.02971 0.20568 0.0
C1425 C 0.24904 0.02038 0.21299 0.0
C1426 C 0.27817 -0.00104 0.24993 0.0
C1427 C 0.21279 0.97554 0.25874 0.0
C1428 C 0.22885 0.98512 0.24904 0.0
C1429 C 0.27631 0.01278 0.22049 0.0
C1430 C 0.26014 0.00319 0.2301 0.0
H1431 H 0.12166 0.96343 0.2688 0.0
H1432 H 0.14808 0.9796 0.25514 0.0
H1433 H 0.27696 0.98701 0.27471 0.0
H1434 H 0.36752 0.02514 0.2125 0.0
H1435 H 0.34098 0.00881 0.22486 0.0
C1436 C 0.987 0.0301 0.03906 0.0
C1437 C 0.94403 0.03169 0.03966 0.0
C1438 C 0.003 0.02089 0.03149 0.0
C1439 C 0.97512 0.99431 0.0191 0.0
H1440 H 0.06488 -0.00397 0.97486 0.0
C1441 C 0.02386 0.96017 0.96449 0.0
C1442 C 0.06655 0.95824 0.96339 0.0
C1443 C 0.00933 0.96931 0.97328 0.0
C1444 C 0.04005 0.99542 0.98733 0.0
H1445 H 0.88407 0.02477 0.03394 0.0
H1446 H 0.91191 0.00873 0.02066 0.0
H1447 H 0.03965 0.01133 0.99349 0.0
H1448 H 0.12758 0.9645 0.96958 0.0
H1449 H 0.10221 0.98048 0.98489 0.0
H1450 H 0.97532 0.97841 0.0128 0.0
C1451 C 0.93331 0.01455 0.02614 0.0
C1452 C 0.02573 0.00417 -0.00191 0.0
C1453 C 0.91735 0.02375 0.03368 0.0
C1454 C 0.09448 0.96579 0.97021 0.0
C1455 C 0.07996 0.97495 0.97893 0.0
C1456 C 0.98939 0.98557 0.00832 0.0
C1457 C 0.9763 0.0131 0.02442 0.0
C1458 C 0.99299 0.00372 0.01403 0.0
C1459 C 0.03723 0.97671 0.98105 0.0
C1460 C 0.02187 0.98604 0.99224 0.0
H1461 H 0.00829 0.03609 0.04362 0.0
H1462 H 0.03627 0.01993 0.03073 0.0
H1463 H 0.95021 0.9937 0.03151 0.0
H1464 H 0.00162 0.95448 0.95932 0.0
H1465 H 0.97622 0.97054 0.97433 0.0
C1466 C 0.2746 0.21116 0.03617 0.0
C1467 C 0.31733 0.2093 0.03486 0.0
C1468 C 0.25848 0.22041 0.02893 0.0
C1469 C 0.28631 0.24673 0.01465 0.0
H1470 H 0.19018 0.2452 0.97474 0.0
C1471 C 0.22823 0.2812 0.96366 0.0
C1472 C 0.18534 0.28292 0.96421 0.0
C1473 C 0.24456 0.27209 0.97161 0.0
C1474 C 0.2168 0.24576 0.98601 0.0
H1475 H 0.37692 0.21578 0.02604 0.0
H1476 H 0.34878 0.23191 0.01338 0.0
H1477 H 0.21778 0.22985 0.99201 0.0
H1478 H 0.12577 0.27634 0.97269 0.0
H1479 H 0.15423 0.26046 0.98665 0.0
H1480 H 0.28532 0.26266 0.00864 0.0
C1481 C 0.32773 0.22626 0.02007 0.0
C1482 C 0.23252 0.23698 0.99597 0.0
C1483 C 0.34384 0.21701 0.02727 0.0
C1484 C 0.15897 0.27522 0.97202 0.0
C1485 C 0.17527 0.26611 0.97995 0.0
C1486 C 0.27056 0.25553 0.0047 0.0
C1487 C 0.28479 0.22797 0.0203 0.0
C1488 C 0.26743 0.23737 0.01041 0.0
C1489 C 0.21828 0.26451 0.98022 0.0
C1490 C 0.23564 0.25513 0.99027 0.0
H1491 H 0.25345 0.20536 0.04201 0.0
H1492 H 0.22531 0.22158 0.02968 0.0
H1493 H 0.313 0.24728 0.02588 0.0
H1494 H 0.24928 0.28701 0.95768 0.0
H1495 H 0.27779 0.27101 0.97125 0.0
C1496 C 0.92466 0.71512 0.71122 0.0
C1497 C 0.95075 0.70665 0.71106 0.0
C1498 C 0.93927 0.72443 0.719 0.0
C1499 C 0.02042 0.7351 0.75648 0.0
H1500 H 0.98374 0.7605 0.73041 0.0
C1501 C 0.08869 0.77401 0.78101 0.0
C1502 C 0.06068 0.78205 0.78335 0.0
C1503 C 0.07501 0.76458 0.77347 0.0
C1504 C 0.99384 0.75346 0.73802 0.0
H1505 H 0.01314 0.70136 0.71769 0.0
H1506 H 0.03904 0.71769 0.73069 0.0
H1507 H 0.96242 0.7447 0.7125 0.0
H1508 H 0.99618 0.78644 0.7807 0.0
H1509 H 0.97226 0.76994 0.76751 0.0
H1510 H 0.05235 0.74391 0.7818 0.0
C1511 C 0.00699 0.71709 0.72539 0.0
C1512 C 0.9817 0.74441 0.72775 0.0
C1513 C 0.99228 0.70776 0.71774 0.0
C1514 C 0.01845 0.78037 0.77905 0.0
C1515 C 0.00483 0.77097 0.77132 0.0
C1516 C 0.03281 0.74416 0.76664 0.0
C1517 C 0.98036 0.72547 0.72664 0.0
C1518 C 0.99471 0.73512 0.73691 0.0
C1519 C 0.03313 0.76305 0.76797 0.0
C1520 C 0.01946 0.75342 0.75757 0.0
H1521 H 0.89244 0.71448 0.70626 0.0
H1522 H 0.9178 0.73069 0.71993 0.0
H1523 H 0.03036 0.72807 0.76425 0.0
H1524 H 0.12144 0.7751 0.7842 0.0
H1525 H 0.09751 0.75862 0.77096 0.0
C1526 C 0.66483 0.96621 0.77224 0.0
C1527 C 0.69128 0.95806 0.77695 0.0
C1528 C 0.68099 0.97546 0.76508 0.0
C1529 C 0.77708 0.99054 0.76292 0.0
H1530 H 0.72138 0.00414 0.71248 0.0
C1531 C 0.84829 0.02513 0.71812 0.0
C1532 C 0.82156 0.03334 0.71449 0.0
C1533 C 0.83251 0.01575 0.72461 0.0
C1534 C 0.73708 0.00047 0.72668 0.0
H1535 H 0.75536 0.95324 0.77848 0.0
H1536 H 0.78364 0.96938 0.7658 0.0
H1537 H 0.69358 0.98831 0.72729 0.0
H1538 H 0.75735 0.0381 0.714 0.0
H1539 H 0.72975 0.0217 0.72539 0.0
H1540 H 0.8206 0.00271 0.76228 0.0
C1541 C 0.75044 0.96866 0.76784 0.0
C1542 C 0.72111 0.99142 0.73522 0.0
C1543 C 0.73426 0.95941 0.77505 0.0
C1544 C 0.77866 0.0319 0.71664 0.0
C1545 C 0.76286 0.0225 0.72309 0.0
C1546 C 0.79308 -0.00042 0.75435 0.0
C1547 C 0.72392 0.97674 0.76244 0.0
C1548 C 0.74087 0.98637 0.75348 0.0
C1549 C 0.78969 0.01438 0.72756 0.0
C1550 C 0.77322 0.00465 0.73617 0.0
H1551 H 0.63155 0.96539 0.77363 0.0
H1552 H 0.65981 0.98159 0.76146 0.0
H1553 H 0.79271 0.98691 0.77718 0.0
H1554 H 0.8815 0.02602 0.71651 0.0
H1555 H 0.85388 0.00958 0.72756 0.0
C1556 C 0.65675 0.77671 0.9745 0.0
C1557 C 0.68382 0.7843 0.96687 0.0
C1558 C 0.67224 0.76751 0.9824 0.0
C1559 C 0.76477 0.75118 0.98147 0.0
H1560 H 0.71741 0.74003 0.03738 0.0
C1561 C 0.83864 0.71728 0.02723 0.0
C1562 C 0.81155 0.70955 0.03403 0.0
C1563 C 0.82319 0.72664 0.02034 0.0
C1564 C 0.73071 0.74301 0.02166 0.0
H1565 H 0.7482 0.78815 0.96097 0.0
H1566 H 0.77532 0.77209 0.97488 0.0
H1567 H 0.68976 0.7557 0.02153 0.0
H1568 H 0.74722 0.70564 0.03988 0.0
H1569 H 0.72014 0.722 0.02774 0.0
H1570 H 0.80567 0.7385 0.98156 0.0
C1571 C 0.74211 0.77321 0.97458 0.0
C1572 C 0.71484 0.75196 0.01255 0.0
C1573 C 0.7266 0.78242 0.96668 0.0
C1574 C 0.76882 0.71148 0.03476 0.0
C1575 C 0.75334 0.72085 0.02786 0.0
C1576 C 0.78065 0.74224 0.99058 0.0
C1577 C 0.71512 0.76571 0.98283 0.0
C1578 C 0.73169 0.75614 0.99234 0.0
C1579 C 0.78033 0.72845 0.0201 0.0
C1580 C 0.76382 0.73806 0.01078 0.0
H1581 H 0.6236 0.77794 0.97479 0.0
H1582 H 0.65064 0.76181 0.98828 0.0
H1583 H 0.77803 0.75413 0.96571 0.0
H1584 H 0.87176 0.71602 0.02659 0.0
H1585 H 0.8448 0.73241 0.01486 0.0
C1586 C 0.26314 0.52999 0.70493 0.0
C1587 C 0.30598 0.53176 0.70413 0.0
C1588 C 0.24789 0.52074 0.71277 0.0
C1589 C 0.27759 0.49436 0.72586 0.0
H1590 H 0.1879 0.49601 0.77016 0.0
C1591 C 0.22997 0.46029 0.78115 0.0
C1592 C 0.18733 0.45828 0.78218 0.0
C1593 C 0.24427 0.46943 0.77223 0.0
C1594 C 0.21272 0.49542 0.75768 0.0
H1595 H 0.36649 0.52511 0.70975 0.0
H1596 H 0.33993 0.50901 0.72355 0.0
H1597 H 0.21233 0.5113 0.75114 0.0
H1598 H 0.12615 0.4644 0.77571 0.0
H1599 H 0.15111 0.48037 0.76019 0.0
H1600 H 0.27814 0.47848 0.73255 0.0
C1601 C 0.31807 0.51472 0.718 0.0
C1602 C 0.22659 0.50416 0.7467 0.0
C1603 C 0.3333 0.52395 0.71016 0.0
C1604 C 0.15921 0.46575 0.77515 0.0
C1605 C 0.1735 0.4749 0.76631 0.0
C1606 C 0.26377 0.48562 0.73688 0.0
C1607 C 0.2752 0.5131 0.71995 0.0
C1608 C 0.25924 0.50373 0.73071 0.0
C1609 C 0.21618 0.47675 0.76427 0.0
C1610 C 0.23128 0.48607 0.75295 0.0
H1611 H 0.24137 0.53587 0.70031 0.0
H1612 H 0.21469 0.51965 0.71368 0.0
H1613 H 0.30247 0.49376 0.71342 0.0
H1614 H 0.25235 0.45466 0.78647 0.0
H1615 H 0.27734 0.47072 0.77123 0.0
C1616 C 0.01869 0.45831 0.47132 0.0
C1617 C 0.06121 0.45702 0.46722 0.0
C1618 C 0.00334 0.46766 0.47843 0.0
C1619 C 0.03681 0.49089 0.50757 0.0
H1620 H 0.93311 0.5017 0.48471 0.0
C1621 C 0.98105 0.53135 0.52739 0.0
C1622 C 0.93856 0.53278 0.53131 0.0
C1623 C 0.99601 0.52195 0.52043 0.0
C1624 C 0.96185 0.49872 0.49149 0.0
H1625 H 0.12082 0.46455 0.46649 0.0
H1626 H 0.09395 0.4809 0.4786 0.0
H1627 H 0.95915 0.48577 0.46949 0.0
H1628 H 0.87856 0.52544 0.53188 0.0
H1629 H 0.90477 0.50897 0.52004 0.0
H1630 H 0.03953 0.50383 0.52956 0.0
C1631 C 0.07258 0.47466 0.47672 0.0
C1632 C 0.9768 0.48961 0.48272 0.0
C1633 C 0.0879 0.46532 0.4696 0.0
C1634 C 0.91147 0.52456 0.5289 0.0
C1635 C 0.92643 0.51516 0.52194 0.0
C1636 C 0.02185 0.49999 0.51634 0.0
C1637 C 0.03025 0.47588 0.48158 0.0
C1638 C 0.01448 0.48561 0.49064 0.0
C1639 C 0.96875 0.5138 0.51727 0.0
C1640 C 0.98423 0.50401 0.50838 0.0
H1641 H 0.99742 0.45204 0.46968 0.0
H1642 H 0.97063 0.46835 0.4822 0.0
H1643 H 0.06558 0.48791 0.51432 0.0
H1644 H 0.00262 0.53757 0.52904 0.0
H1645 H 0.02874 0.52117 0.51677 0.0
C1646 C 0.34331 0.71751 0.53104 0.0
C1647 C 0.31595 0.70963 0.53654 0.0
C1648 C 0.32814 0.72682 0.52361 0.0
C1649 C 0.23726 0.73769 0.49508 0.0
H1650 H 0.28632 0.76327 0.51252 0.0
C1651 C 0.16655 0.77608 0.46993 0.0
C1652 C 0.1938 0.78392 0.464 0.0
C1653 C 0.1818 0.76692 0.47817 0.0
C1654 C 0.27267 0.75617 0.50726 0.0
H1655 H 0.2513 0.70544 0.5397 0.0
H1656 H 0.22474 0.72176 0.52696 0.0
H1657 H 0.31146 0.7477 0.53008 0.0
H1658 H 0.25837 0.78822 0.46123 0.0
H1659 H 0.28512 0.77213 0.47538 0.0
H1660 H 0.19857 0.74613 0.47221 0.0
C1661 C 0.25793 0.72068 0.52803 0.0
C1662 C 0.28696 0.74727 0.51738 0.0
C1663 C 0.27312 0.71137 0.5355 0.0
C1664 C 0.23665 0.78231 0.4657 0.0
C1665 C 0.25193 0.77313 0.47399 0.0
C1666 C 0.223 0.74658 0.48495 0.0
C1667 C 0.2853 0.72842 0.52152 0.0
C1668 C 0.26937 0.73793 0.51141 0.0
C1669 C 0.22462 0.7654 0.48065 0.0
C1670 C 0.24054 0.75592 0.49093 0.0
H1671 H 0.37651 0.71637 0.53167 0.0
H1672 H 0.35002 0.7326 0.51858 0.0
H1673 H 0.22364 0.73059 0.48978 0.0
H1674 H 0.13334 0.77712 0.46885 0.0
H1675 H 0.15995 0.76115 0.48334 0.0
C1676 C 0.66119 0.4671 0.27498 0.0
C1677 C 0.68762 0.45921 0.28163 0.0
C1678 C 0.6775 0.47626 0.26733 0.0
C1679 C 0.77186 0.49191 0.26642 0.0
H1680 H 0.72398 0.50275 0.21033 0.0
C1681 C 0.84722 0.52508 0.21852 0.0
C1682 C 0.82046 0.5328 0.21124 0.0
C1683 C 0.83136 0.51585 0.22601 0.0
C1684 C 0.73744 0.49987 0.2261 0.0
H1685 H 0.7517 0.45483 0.28653 0.0
H1686 H 0.78024 0.47086 0.27319 0.0
H1687 H 0.69507 0.48748 0.22737 0.0
H1688 H 0.75631 0.5368 0.20515 0.0
H1689 H 0.72852 0.5207 0.21839 0.0
H1690 H 0.81409 0.50432 0.26524 0.0
C1691 C 0.74693 0.46998 0.27393 0.0
C1692 C 0.72084 0.49114 0.2359 0.0
C1693 C 0.7306 0.4608 0.28154 0.0
C1694 C 0.77767 0.53097 0.21061 0.0
C1695 C 0.76177 0.52174 0.21815 0.0
C1696 C 0.78841 0.50065 0.25666 0.0
C1697 C 0.72054 0.47771 0.26625 0.0
C1698 C 0.73784 0.48708 0.25617 0.0
C1699 C 0.78841 0.51416 0.22641 0.0
C1700 C 0.77139 0.50473 0.23639 0.0
H1701 H 0.6279 0.4661 0.27494 0.0
H1702 H 0.65641 0.48215 0.26191 0.0
H1703 H 0.78533 0.48901 0.28218 0.0
H1704 H 0.88039 0.52627 0.21909 0.0
H1705 H 0.85273 0.51009 0.23183 0.0
C1706 C 0.83273 0.21617 0.52432 0.0
C1707 C 0.80545 0.20837 0.5305 0.0
C1708 C 0.81747 0.22544 0.51676 0.0
C1709 C 0.72538 0.23648 0.48956 0.0
H1710 H 0.77831 0.26186 0.50488 0.0
C1711 C 0.65861 0.27543 0.46451 0.0
C1712 C 0.68682 0.28294 0.45777 0.0
C1713 C 0.67278 0.26612 0.47249 0.0
C1714 C 0.76355 0.25482 0.50022 0.0
H1715 H 0.74089 0.20429 0.53465 0.0
H1716 H 0.71412 0.22058 0.52175 0.0
H1717 H 0.80269 0.24631 0.52273 0.0
H1718 H 0.75183 0.28645 0.45306 0.0
H1719 H 0.77662 0.27012 0.4668 0.0
H1720 H 0.68619 0.24501 0.46708 0.0
C1721 C 0.74732 0.21945 0.52237 0.0
C1722 C 0.77741 0.24592 0.5105 0.0
C1723 C 0.76262 0.21017 0.52994 0.0
C1724 C 0.72939 0.28081 0.45819 0.0
C1725 C 0.74358 0.2715 0.46624 0.0
C1726 C 0.71146 0.24539 0.47931 0.0
C1727 C 0.77459 0.22712 0.51525 0.0
C1728 C 0.75859 0.23664 0.50522 0.0
C1729 C 0.71544 0.26414 0.47394 0.0
C1730 C 0.73052 0.25464 0.48446 0.0
H1731 H 0.86592 0.215 0.52453 0.0
H1732 H 0.8393 0.23115 0.51122 0.0
H1733 H 0.71071 0.22943 0.48482 0.0
H1734 H 0.6256 0.27687 0.46439 0.0
H1735 H 0.65036 0.26062 0.47842 0.0
C1736 C 0.5755 0.27552 0.78347 0.0
C1737 C 0.55212 0.28426 0.77923 0.0
C1738 C 0.5605 0.26607 0.77688 0.0
C1739 C 0.46616 0.25227 0.75974 0.0
H1740 H 0.54337 0.23516 0.72666 0.0
C1741 C 0.41194 0.21678 0.71137 0.0
C1742 C 0.43622 0.20808 0.71405 0.0
C1743 C 0.42657 0.22613 0.71887 0.0
C1744 C 0.52154 0.23979 0.73607 0.0
H1745 H 0.49403 0.28996 0.76575 0.0
H1746 H 0.4678 0.27345 0.75427 0.0
H1747 H 0.56703 0.25118 0.74251 0.0
H1748 H 0.49528 0.20234 0.72603 0.0
H1749 H 0.52073 0.21864 0.73932 0.0
H1750 H 0.42068 0.24088 0.75336 0.0
C1751 C 0.49764 0.27389 0.76273 0.0
C1752 C 0.53511 0.24896 0.7452 0.0
C1753 C 0.51269 0.28334 0.76925 0.0
C1754 C 0.47596 0.20894 0.72366 0.0
C1755 C 0.49056 0.21828 0.73122 0.0
C1756 C 0.45261 0.24309 0.75068 0.0
C1757 C 0.52179 0.26518 0.76602 0.0
C1758 C 0.50755 0.2553 0.75709 0.0
C1759 C 0.46574 0.22696 0.72926 0.0
C1760 C 0.48012 0.23676 0.73868 0.0
H1761 H 0.60596 0.27601 0.79119 0.0
H1762 H 0.57949 0.25947 0.77997 0.0
H1763 H 0.44434 0.25695 0.76904 0.0
H1764 H 0.38122 0.21635 0.70394 0.0
H1765 H 0.40702 0.23271 0.71672 0.0
C1766 C 0.48612 0.0324 0.52375 0.0
C1767 C 0.44332 0.03393 0.5261 0.0
C1768 C 0.50136 0.02308 0.5163 0.0
C1769 C 0.47251 -0.00374 0.50821 0.0
H1770 H 0.55787 -0.00318 0.46121 0.0
C1771 C 0.51721 0.96064 0.45768 0.0
C1772 C 0.55983 0.95868 0.4561 0.0
C1773 C 0.50315 0.97006 0.46514 0.0
C1774 C 0.53423 -0.00345 0.47443 0.0
H1775 H 0.38298 0.02685 0.52341 0.0
H1776 H 0.40944 0.01066 0.5103 0.0
H1777 H 0.5341 0.01259 0.47839 0.0
H1778 H 0.62114 0.96514 0.4599 0.0
H1779 H 0.59658 0.98159 0.47285 0.0
H1780 H 0.47246 0.98022 0.50413 0.0
C1781 C 0.43134 0.01658 0.51435 0.0
C1782 C 0.52077 0.00557 0.48436 0.0
C1783 C 0.41615 0.02588 0.52179 0.0
C1784 C 0.58808 0.96645 0.46095 0.0
C1785 C 0.57403 0.97587 0.46832 0.0
C1786 C 0.48588 0.98725 0.49823 0.0
C1787 C 0.47405 0.01514 0.5111 0.0
C1788 C 0.48967 0.00552 0.50132 0.0
C1789 C 0.53146 0.97769 0.47105 0.0
C1790 C 0.51678 0.9873 0.48119 0.0
H1791 H 0.50778 0.03847 0.52699 0.0
H1792 H 0.53448 0.02214 0.51432 0.0
H1793 H 0.44893 -0.00405 0.52145 0.0
H1794 H 0.49473 0.95479 0.45402 0.0
H1795 H 0.47013 0.9713 0.46671 0.0
C1796 C 0.52358 0.78214 0.27725 0.0
C1797 C 0.56654 0.78376 0.2771 0.0
C1798 C 0.50728 0.77287 0.27029 0.0
C1799 C 0.53284 0.75102 0.2341 0.0
H1800 H 0.44113 0.73826 0.26585 0.0
C1801 C 0.47667 0.71066 0.21334 0.0
C1802 C 0.43392 0.7088 0.21433 0.0
C1803 C 0.49252 0.72001 0.22007 0.0
C1804 C 0.46637 0.7418 0.2566 0.0
H1805 H 0.62624 0.77688 0.27038 0.0
H1806 H 0.59779 0.76065 0.25844 0.0
H1807 H 0.4698 0.75398 0.28076 0.0
H1808 H 0.37403 0.71535 0.22217 0.0
H1809 H 0.40163 0.73174 0.23351 0.0
H1810 H 0.52936 0.73888 0.2099 0.0
C1811 C 0.57669 0.76659 0.2636 0.0
C1812 C 0.48286 0.75078 0.2652 0.0
C1813 C 0.59297 0.77585 0.27061 0.0
C1814 C 0.40717 0.71657 0.22133 0.0
C1815 C 0.42299 0.72592 0.228 0.0
C1816 C 0.5163 0.74206 0.22548 0.0
C1817 C 0.53365 0.76506 0.263 0.0
C1818 C 0.51633 0.75547 0.25407 0.0
C1819 C 0.4659 0.72768 0.22787 0.0
C1820 C 0.48291 0.73734 0.23665 0.0
H1821 H 0.50247 0.78812 0.28212 0.0
H1822 H 0.47397 0.77193 0.26987 0.0
H1823 H 0.55818 0.75456 0.22492 0.0
H1824 H 0.49802 0.7048 0.20809 0.0
H1825 H 0.52575 0.7211 0.21994 0.0
C1826 C 0.52048 0.45996 0.96908 0.0
C1827 C 0.56271 0.45847 0.96448 0.0
C1828 C 0.50604 0.46943 0.97595 0.0
C1829 C 0.54247 0.49302 0.00281 0.0
H1830 H 0.43668 0.50346 0.98212 0.0
C1831 C 0.48647 0.53373 0.02093 0.0
C1832 C 0.44447 0.53498 0.02648 0.0
C1833 C 0.50149 0.52429 0.01423 0.0
C1834 C 0.46608 0.50059 0.98825 0.0
H1835 H 0.62273 0.46575 0.96259 0.0
H1836 H 0.59742 0.48233 0.97413 0.0
H1837 H 0.4616 0.48737 0.96727 0.0
H1838 H 0.38555 0.52729 0.03025 0.0
H1839 H 0.41187 0.5108 0.01873 0.0
H1840 H 0.547 0.5063 0.02368 0.0
C1841 C 0.57558 0.47615 0.97292 0.0
C1842 C 0.48037 0.49138 0.97973 0.0
C1843 C 0.59002 0.46668 0.96613 0.0
C1844 C 0.41807 0.52656 0.02599 0.0
C1845 C 0.43304 0.51714 0.01923 0.0
C1846 C 0.52824 0.50225 0.01128 0.0
C1847 C 0.53355 0.47759 0.97828 0.0
C1848 C 0.5187 0.48748 0.98693 0.0
C1849 C 0.47473 0.51594 0.0129 0.0
C1850 C 0.48984 0.50611 0.00413 0.0
H1851 H 0.49876 0.45375 0.96804 0.0
H1852 H 0.47355 0.47026 0.98016 0.0
H1853 H 0.57181 0.49015 0.00902 0.0
H1854 H 0.5075 0.54009 0.02112 0.0
H1855 H 0.53373 0.5236 0.00932 0.0
C1856 C 0.06576 0.31952 0.20693 0.0
C1857 C 0.10341 0.3197 0.21901 0.0
C1858 C 0.0652 0.32076 0.18306 0.0
C1859 C 0.12851 0.32923 0.13346 0.0
H1860 H 0.0619 0.30998 0.09946 0.0
C1861 C 0.15716 0.31952 0.03818 0.0
C1862 C 0.12258 0.31797 0.02397 0.0
C1863 C 0.15208 0.32106 0.06178 0.0
C1864 C 0.08014 0.31552 0.10868 0.0
H1865 H 0.16984 0.32161 0.2158 0.0
H1866 H 0.16898 0.32362 0.1741 0.0
H1867 H 0.05768 0.31044 0.14129 0.0
H1868 H 0.05556 0.31706 0.02308 0.0
H1869 H 0.04667 0.31978 0.06439 0.0
H1870 H 0.15177 0.33411 0.10076 0.0
C1871 C 0.13982 0.32266 0.18305 0.0
C1872 C 0.0777 0.31579 0.13265 0.0
C1873 C 0.14036 0.32144 0.20691 0.0
C1874 C 0.08277 0.31819 0.03368 0.0
C1875 C 0.07769 0.31971 0.0573 0.0
C1876 C 0.13102 0.32894 0.10946 0.0
C1877 C 0.1023 0.32218 0.17082 0.0
C1878 C 0.10229 0.32255 0.14532 0.0
C1879 C 0.11232 0.32107 0.07161 0.0
C1880 C 0.10728 0.32198 0.09687 0.0
H1881 H 0.03678 0.31824 0.21586 0.0
H1882 H 0.03576 0.32049 0.17414 0.0
H1883 H 0.14738 0.33463 0.14274 0.0
H1884 H 0.18822 0.31939 0.03114 0.0
H1885 H 0.17937 0.32196 0.07243 0.0
C1886 C 0.14173 0.91759 0.0341 0.0
C1887 C 0.10522 0.92033 0.02255 0.0
C1888 C 0.14159 0.91621 0.05795 0.0
C1889 C 0.08347 0.92437 0.10894 0.0
H1890 H 0.151 0.90455 0.14065 0.0
C1891 C 0.08434 0.92151 0.20754 0.0
C1892 C 0.12361 0.921 0.21784 0.0
C1893 C 0.07991 0.92007 0.18387 0.0
C1894 C 0.13213 0.91014 0.13199 0.0
H1895 H 0.03954 0.92322 0.02657 0.0
H1896 H 0.03911 0.92062 0.06812 0.0
H1897 H 0.14668 0.90425 0.0986 0.0
H1898 H 0.18888 0.91828 0.21168 0.0
H1899 H 0.1812 0.91585 0.17021 0.0
H1900 H 0.06938 0.93036 0.14218 0.0
C1901 C 0.06803 0.91977 0.05887 0.0
C1902 C 0.12967 0.90998 0.10796 0.0
C1903 C 0.06822 0.92121 0.03507 0.0
C1904 C 0.15823 0.91873 0.20416 0.0
C1905 C 0.1538 0.91727 0.18046 0.0
C1906 C 0.08583 0.92451 0.13291 0.0
C1907 C 0.10489 0.91749 0.07065 0.0
C1908 C 0.10558 0.91715 0.09618 0.0
C1909 C 0.11467 0.91809 0.17004 0.0
C1910 C 0.11045 0.91747 0.14468 0.0
H1911 H 0.1707 0.91687 0.02485 0.0
H1912 H 0.17057 0.91455 0.06653 0.0
H1913 H 0.06531 0.93013 0.1004 0.0
H1914 H 0.05706 0.92319 0.2177 0.0
H1915 H 0.04931 0.92061 0.17634 0.0
C1916 C 0.914 0.66968 0.78876 0.0
C1917 C 0.88178 0.67336 0.77486 0.0
C1918 C 0.90844 0.66871 0.81252 0.0
C1919 C 0.84531 0.67897 0.85958 0.0
H1920 H 0.89017 0.65656 0.89455 0.0
C1921 C 0.81865 0.67554 0.95691 0.0
C1922 C 0.85409 0.67347 0.97009 0.0
C1923 C 0.81948 0.6744 0.93303 0.0
C1924 C 0.87764 0.66288 0.88498 0.0
H1925 H 0.81815 0.67859 0.77466 0.0
H1926 H 0.8083 0.67679 0.81604 0.0
H1927 H 0.89655 0.65667 0.85259 0.0
H1928 H 0.91766 0.66823 0.96885 0.0
H1929 H 0.91922 0.66631 0.92706 0.0
H1930 H 0.82688 0.68526 0.89187 0.0
C1931 C 0.83805 0.67482 0.8087 0.0
C1932 C 0.88134 0.66295 0.86101 0.0
C1933 C 0.84364 0.67581 0.785 0.0
C1934 C 0.88991 0.6699 0.95908 0.0
C1935 C 0.89073 0.66874 0.93519 0.0
C1936 C 0.84156 0.67889 0.88348 0.0
C1937 C 0.87055 0.67139 0.82275 0.0
C1938 C 0.86541 0.67104 0.84809 0.0
C1939 C 0.85575 0.67115 0.9219 0.0
C1940 C 0.85789 0.67088 0.89645 0.0
H1941 H 0.94373 0.66774 0.78135 0.0
H1942 H 0.93419 0.66615 0.82294 0.0
H1943 H 0.8334 0.6854 0.85015 0.0
H1944 H 0.79053 0.67825 0.96498 0.0
H1945 H 0.79189 0.67618 0.92323 0.0
C1946 C 0.84508 0.06985 0.7917 0.0
C1947 C 0.88004 0.06744 0.77842 0.0
C1948 C 0.84839 0.07081 0.81559 0.0
C1949 C 0.91273 0.06219 0.86366 0.0
H1950 H 0.85591 0.08302 0.89832 0.0
C1951 C 0.93367 0.06584 0.96131 0.0
C1952 C 0.8974 0.06722 0.97424 0.0
C1953 C 0.93297 0.06693 0.93742 0.0
C1954 C 0.87171 0.07712 0.88886 0.0
H1955 H 0.94603 0.06443 0.7795 0.0
H1956 H 0.95183 0.06615 0.82116 0.0
H1957 H 0.85181 0.08296 0.85626 0.0
H1958 H 0.83227 0.07112 0.97253 0.0
H1959 H 0.83088 0.07288 0.9307 0.0
H1960 H 0.93209 0.05623 0.89609 0.0
C1961 C 0.9218 0.06718 0.81318 0.0
C1962 C 0.86936 0.07709 0.86482 0.0
C1963 C 0.9185 0.06624 0.78934 0.0
C1964 C 0.86069 0.07001 0.96296 0.0
C1965 C 0.85996 0.07108 0.93903 0.0
C1966 C 0.91501 0.06221 0.88762 0.0
C1967 C 0.8867 0.06934 0.82658 0.0
C1968 C 0.88981 0.06961 0.85201 0.0
C1969 C 0.89596 0.06938 0.92599 0.0
C1970 C 0.89448 0.06966 0.90049 0.0
H1971 H 0.81505 0.07083 0.78369 0.0
H1972 H 0.82075 0.07239 0.82552 0.0
H1973 H 0.92816 0.05621 0.85427 0.0
H1974 H 0.96248 0.06376 0.96959 0.0
H1975 H 0.96136 0.06575 0.92786 0.0
C1976 C 0.14012 0.82102 0.70654 0.0
C1977 C 0.10388 0.81782 0.71771 0.0
C1978 C 0.14069 0.82225 0.68265 0.0
C1979 C 0.0864 0.81347 0.6307 0.0
H1980 H 0.14938 0.83461 0.60055 0.0
C1981 C 0.08912 0.8176 0.53215 0.0
C1982 C 0.12863 0.81868 0.52237 0.0
C1983 C 0.0836 0.81865 0.55588 0.0
C1984 C 0.13179 0.82865 0.60877 0.0
H1985 H 0.03941 0.81377 0.71288 0.0
H1986 H 0.04016 0.81608 0.67126 0.0
H1987 H 0.14399 0.83442 0.64254 0.0
H1988 H 0.19309 0.82203 0.52951 0.0
H1989 H 0.18346 0.82384 0.57099 0.0
H1990 H 0.07454 0.80764 0.59701 0.0
C1991 C 0.06839 0.81744 0.68084 0.0
C1992 C 0.12876 0.82853 0.63278 0.0
C1993 C 0.06789 0.81616 0.70469 0.0
C1994 C 0.16229 0.82114 0.53661 0.0
C1995 C 0.15674 0.82224 0.56032 0.0
C1996 C 0.08928 0.81362 0.60674 0.0
C1997 C 0.10496 0.82034 0.66951 0.0
C1998 C 0.10636 0.82088 0.644 0.0
C1999 C 0.11746 0.82085 0.57022 0.0
C2000 C 0.11232 0.82115 0.59555 0.0
H2001 H 0.16833 0.82234 0.71618 0.0
H2002 H 0.16949 0.82438 0.67442 0.0
H2003 H 0.06955 0.80736 0.63881 0.0
H2004 H 0.06259 0.81574 0.52155 0.0
H2005 H 0.0529 0.81765 0.56304 0.0
C2006 C 0.18681 0.42246 0.71039 0.0
C2007 C 0.15038 0.42091 0.7231 0.0
C2008 C 0.18683 0.42124 0.68653 0.0
C2009 C 0.12727 0.41082 0.63749 0.0
H2010 H 0.17929 0.43268 0.6038 0.0
C2011 C 0.09345 0.41942 0.54181 0.0
C2012 C 0.12675 0.42253 0.52799 0.0
C2013 C 0.09887 0.41803 0.56547 0.0
C2014 C 0.16519 0.42643 0.61291 0.0
H2015 H 0.08589 0.41645 0.72106 0.0
H2016 H 0.08574 0.41446 0.67929 0.0
H2017 H 0.18473 0.43213 0.64553 0.0
H2018 H 0.19206 0.42634 0.52781 0.0
H2019 H 0.20159 0.42385 0.56908 0.0
H2020 H 0.10701 0.40525 0.60473 0.0
C2021 C 0.11439 0.41651 0.68777 0.0
C2022 C 0.16835 0.42611 0.63683 0.0
C2023 C 0.11441 0.41771 0.71166 0.0
C2024 C 0.16577 0.42401 0.5381 0.0
C2025 C 0.17119 0.42262 0.56172 0.0
C2026 C 0.12408 0.41114 0.6135 0.0
C2027 C 0.15039 0.41848 0.67491 0.0
C2028 C 0.14916 0.41835 0.64941 0.0
C2029 C 0.13769 0.41974 0.5757 0.0
C2030 C 0.14275 0.419 0.601 0.0
H2031 H 0.21509 0.42486 0.7188 0.0
H2032 H 0.21521 0.42265 0.67712 0.0
H2033 H 0.11253 0.40469 0.64671 0.0
H2034 H 0.06304 0.41822 0.53444 0.0
H2035 H 0.07237 0.41592 0.57584 0.0
C2036 C 0.84214 0.17617 0.28238 0.0
C2037 C 0.88126 0.17455 0.27252 0.0
C2038 C 0.83623 0.17491 0.306 0.0
C2039 C 0.88156 0.16333 0.35805 0.0
H2040 H 0.82001 0.18427 0.38976 0.0
C2041 C 0.88672 0.16926 0.45648 0.0
C2042 C 0.8501 0.17229 0.46753 0.0
C2043 C 0.88797 0.16832 0.43254 0.0
C2044 C 0.83667 0.17826 0.38113 0.0
H2045 H 0.94473 0.17017 0.27945 0.0
H2046 H 0.93454 0.16809 0.32086 0.0
H2047 H 0.82725 0.18498 0.3481 0.0
H2048 H 0.78562 0.17627 0.46244 0.0
H2049 H 0.7877 0.17453 0.42063 0.0
H2050 H 0.89151 0.15672 0.39125 0.0
C2051 C 0.90833 0.17022 0.31028 0.0
C2052 C 0.84086 0.17868 0.35726 0.0
C2053 C 0.91424 0.17148 0.28663 0.0
C2054 C 0.81434 0.17398 0.45434 0.0
C2055 C 0.81559 0.17304 0.43042 0.0
C2056 C 0.87735 0.16291 0.38198 0.0
C2057 C 0.86934 0.17202 0.32023 0.0
C2058 C 0.86358 0.17127 0.34548 0.0
C2059 C 0.85263 0.17039 0.41924 0.0
C2060 C 0.8551 0.17042 0.39377 0.0
H2061 H 0.81609 0.17849 0.27188 0.0
H2062 H 0.80571 0.17622 0.31314 0.0
H2063 H 0.8988 0.15744 0.34938 0.0
H2064 H 0.91475 0.1679 0.46624 0.0
H2065 H 0.91706 0.16636 0.42441 0.0
C2066 C 0.83847 0.56625 0.45938 0.0
C2067 C 0.87738 0.56744 0.46981 0.0
C2068 C 0.83389 0.56765 0.4357 0.0
C2069 C 0.88413 0.57866 0.38429 0.0
H2070 H 0.8214 0.55818 0.35179 0.0
C2071 C 0.89644 0.57186 0.28639 0.0
C2072 C 0.8603 0.56912 0.27449 0.0
C2073 C 0.89581 0.573 0.31029 0.0
C2074 C 0.83841 0.56406 0.36062 0.0
H2075 H 0.94179 0.57125 0.46389 0.0
H2076 H 0.93392 0.57355 0.42241 0.0
H2077 H 0.82535 0.55766 0.39359 0.0
H2078 H 0.79479 0.56588 0.278 0.0
H2079 H 0.79358 0.56797 0.31973 0.0
H2080 H 0.89783 0.58494 0.35115 0.0
C2081 C 0.90687 0.57166 0.43256 0.0
C2082 C 0.8407 0.56376 0.38458 0.0
C2083 C 0.91144 0.57027 0.45626 0.0
C2084 C 0.82318 0.56792 0.28677 0.0
C2085 C 0.82253 0.56907 0.31065 0.0
C2086 C 0.88184 0.57897 0.36028 0.0
C2087 C 0.86813 0.57025 0.422 0.0
C2088 C 0.86389 0.571 0.39666 0.0
C2089 C 0.859 0.57143 0.3227 0.0
C2090 C 0.85926 0.57161 0.3482 0.0
H2091 H 0.81161 0.56414 0.46945 0.0
H2092 H 0.80354 0.56665 0.4281 0.0
H2093 H 0.90179 0.58442 0.39318 0.0
H2094 H 0.92549 0.57284 0.27733 0.0
H2095 H 0.92449 0.57473 0.31911 0.0
C2096 C 0.61659 0.32355 0.53088 0.0
C2097 C 0.65161 0.31973 0.51951 0.0
C2098 C 0.61655 0.32461 0.55481 0.0
C2099 C 0.66601 0.31377 0.60578 0.0
H2100 H 0.61305 0.33592 0.63798 0.0
C2101 C 0.66467 0.31584 0.70448 0.0
C2102 C 0.62655 0.31824 0.71471 0.0
C2103 C 0.67041 0.3171 0.68084 0.0
C2104 C 0.62773 0.32966 0.62919 0.0
H2105 H 0.71468 0.31447 0.52401 0.0
H2106 H 0.71474 0.31641 0.56577 0.0
H2107 H 0.61882 0.33639 0.596 0.0
H2108 H 0.56487 0.32409 0.70846 0.0
H2109 H 0.57471 0.32618 0.66703 0.0
H2110 H 0.67424 0.30692 0.63877 0.0
C2111 C 0.68711 0.31843 0.55626 0.0
C2112 C 0.63106 0.32994 0.6052 0.0
C2113 C 0.68714 0.31737 0.53236 0.0
C2114 C 0.59457 0.32217 0.70099 0.0
C2115 C 0.60031 0.32343 0.67732 0.0
C2116 C 0.66266 0.31349 0.6297 0.0
C2117 C 0.65154 0.32187 0.56777 0.0
C2118 C 0.65001 0.32196 0.59326 0.0
C2119 C 0.63813 0.32078 0.66697 0.0
C2120 C 0.64326 0.32139 0.64166 0.0
H2121 H 0.58878 0.32543 0.52138 0.0
H2122 H 0.58856 0.3272 0.56321 0.0
H2123 H 0.68004 0.30741 0.59704 0.0
H2124 H 0.68996 0.31286 0.71468 0.0
H2125 H 0.70009 0.31513 0.6734 0.0
C2126 C 0.63447 0.919 0.5332 0.0
C2127 C 0.59864 0.92231 0.52179 0.0
C2128 C 0.63454 0.91785 0.55711 0.0
C2129 C 0.58022 0.92728 0.60837 0.0
H2130 H 0.64249 0.9064 0.63986 0.0
C2131 C 0.58372 0.92454 0.70714 0.0
C2132 C 0.62323 0.92342 0.7169 0.0
C2133 C 0.57792 0.92319 0.68352 0.0
C2134 C 0.62509 0.91228 0.63126 0.0
H2135 H 0.53426 0.92654 0.52616 0.0
H2136 H 0.53413 0.92435 0.56783 0.0
H2137 H 0.6369 0.90604 0.59788 0.0
H2138 H 0.68742 0.91975 0.70984 0.0
H2139 H 0.67733 0.91745 0.66852 0.0
H2140 H 0.56883 0.93359 0.64164 0.0
C2141 C 0.56244 0.92286 0.55842 0.0
C2142 C 0.62193 0.91209 0.60726 0.0
C2143 C 0.56245 0.92407 0.53456 0.0
C2144 C 0.65663 0.92067 0.70275 0.0
C2145 C 0.6508 0.91929 0.67914 0.0
C2146 C 0.58324 0.92744 0.63231 0.0
C2147 C 0.5987 0.91993 0.57002 0.0
C2148 C 0.59983 0.91966 0.59555 0.0
C2149 C 0.6115 0.92067 0.66925 0.0
C2150 C 0.60607 0.92002 0.64398 0.0
H2151 H 0.66281 0.91759 0.52375 0.0
H2152 H 0.66311 0.91568 0.56554 0.0
H2153 H 0.56363 0.93332 0.59987 0.0
H2154 H 0.55737 0.9266 0.71768 0.0
H2155 H 0.5472 0.92419 0.67638 0.0
C2156 C 0.41283 0.67529 0.46237 0.0
C2157 C 0.37337 0.67534 0.47252 0.0
C2158 C 0.41716 0.6739 0.43867 0.0
C2159 C 0.36289 0.66449 0.38709 0.0
H2160 H 0.4357 0.68288 0.35455 0.0
C2161 C 0.35459 0.67106 0.28916 0.0
C2162 C 0.3917 0.67277 0.27719 0.0
C2163 C 0.35472 0.67006 0.31308 0.0
C2164 C 0.41582 0.67756 0.36339 0.0
H2165 H 0.30755 0.67383 0.46602 0.0
H2166 H 0.31508 0.67148 0.42454 0.0
H2167 H 0.43145 0.68365 0.39636 0.0
H2168 H 0.45823 0.67436 0.28063 0.0
H2169 H 0.45855 0.67249 0.32245 0.0
H2170 H 0.3468 0.65851 0.35403 0.0
C2171 C 0.34268 0.67241 0.43493 0.0
C2172 C 0.41333 0.67802 0.38735 0.0
C2173 C 0.33834 0.67383 0.45863 0.0
C2174 C 0.42913 0.6731 0.28945 0.0
C2175 C 0.42929 0.67209 0.31338 0.0
C2176 C 0.36544 0.66402 0.3631 0.0
C2177 C 0.38211 0.67251 0.4247 0.0
C2178 C 0.3865 0.67157 0.39941 0.0
C2179 C 0.392 0.67073 0.32548 0.0
C2180 C 0.39157 0.67064 0.35099 0.0
H2181 H 0.44039 0.6764 0.4727 0.0
H2182 H 0.44795 0.6739 0.43128 0.0
H2183 H 0.34238 0.65933 0.39599 0.0
H2184 H 0.32526 0.67078 0.28012 0.0
H2185 H 0.32543 0.66914 0.32192 0.0
C2186 C 0.34791 0.07132 0.45352 0.0
C2187 C 0.38682 0.06944 0.46342 0.0
C2188 C 0.34387 0.07225 0.4297 0.0
C2189 C 0.40179 0.07679 0.37601 0.0
H2190 H 0.3148 0.06069 0.34825 0.0
C2191 C 0.39806 0.06708 0.27925 0.0
C2192 C 0.35936 0.06676 0.26826 0.0
C2193 C 0.40058 0.06851 0.30302 0.0
C2194 C 0.3388 0.06537 0.35571 0.0
H2195 H 0.45223 0.06743 0.45637 0.0
H2196 H 0.44516 0.06905 0.41465 0.0
H2197 H 0.32068 0.06147 0.38999 0.0
H2198 H 0.29303 0.06797 0.2733 0.0
H2199 H 0.29741 0.07062 0.31478 0.0
H2200 H 0.42012 0.08061 0.34167 0.0
C2201 C 0.41784 0.06985 0.42533 0.0
C2202 C 0.34218 0.0658 0.37963 0.0
C2203 C 0.42185 0.06887 0.44917 0.0
C2204 C 0.32327 0.06812 0.28136 0.0
C2205 C 0.32578 0.06959 0.30512 0.0
C2206 C 0.3983 0.07639 0.35205 0.0
C2207 C 0.3787 0.07137 0.41535 0.0
C2208 C 0.3739 0.07144 0.39001 0.0
C2209 C 0.36443 0.06969 0.31625 0.0
C2210 C 0.36698 0.07059 0.34165 0.0
H2211 H 0.32039 0.07183 0.46413 0.0
H2212 H 0.31341 0.07354 0.42246 0.0
H2213 H 0.42627 0.08127 0.3836 0.0
H2214 H 0.42639 0.06605 0.26955 0.0
H2215 H 0.43079 0.06842 0.31111 0.0
C2216 C 0.67331 0.82475 0.03418 0.0
C2217 C 0.63671 0.82188 0.0229 0.0
C2218 C 0.67298 0.82687 0.05775 0.0
C2219 C 0.60292 0.83208 0.10716 0.0
H2220 H 0.69072 0.81967 0.14286 0.0
C2221 C 0.58649 0.82106 0.20238 0.0
C2222 C 0.62072 0.82232 0.217 0.0
C2223 C 0.58983 0.82318 0.17892 0.0
C2224 C 0.6664 0.82335 0.13314 0.0
H2225 H 0.57092 0.81922 0.02717 0.0
H2226 H 0.57046 0.82269 0.06833 0.0
H2227 H 0.69421 0.81939 0.10101 0.0
H2228 H 0.68483 0.82712 0.21881 0.0
H2229 H 0.69074 0.83077 0.17764 0.0
H2230 H 0.57433 0.83564 0.13944 0.0
C2231 C 0.5993 0.8235 0.05899 0.0
C2232 C 0.6684 0.8232 0.10913 0.0
C2233 C 0.5996 0.82142 0.03543 0.0
C2234 C 0.65799 0.82605 0.20789 0.0
C2235 C 0.66141 0.82811 0.18436 0.0
C2236 C 0.60083 0.83217 0.13118 0.0
C2237 C 0.63608 0.82612 0.07048 0.0
C2238 C 0.63625 0.82737 0.09587 0.0
C2239 C 0.62753 0.82654 0.16961 0.0
C2240 C 0.63213 0.82762 0.14437 0.0
H2241 H 0.70232 0.82523 0.02488 0.0
H2242 H 0.70172 0.829 0.06604 0.0
H2243 H 0.57805 0.83552 0.09742 0.0
H2244 H 0.55736 0.81821 0.20897 0.0
H2245 H 0.56334 0.82179 0.16792 0.0
C2246 C 0.57735 0.41808 0.03657 0.0
C2247 C 0.61285 0.42166 0.02525 0.0
C2248 C 0.57836 0.41605 0.06017 0.0
C2249 C 0.65023 0.41223 0.10936 0.0
H2250 H 0.55924 0.4229 0.1455 0.0
C2251 C 0.66528 0.42359 0.20425 0.0
C2252 C 0.63224 0.42154 0.21924 0.0
C2253 C 0.66182 0.42149 0.1808 0.0
C2254 C 0.58452 0.41971 0.13564 0.0
H2255 H 0.67743 0.42572 0.0295 0.0
H2256 H 0.67903 0.42239 0.0707 0.0
H2257 H 0.55499 0.4231 0.10363 0.0
H2258 H 0.57012 0.41543 0.22169 0.0
H2259 H 0.56391 0.41183 0.18049 0.0
H2260 H 0.68042 0.40925 0.14148 0.0
C2261 C 0.65059 0.42097 0.06137 0.0
C2262 C 0.58209 0.41981 0.11164 0.0
C2263 C 0.6496 0.42296 0.03779 0.0
C2264 C 0.59602 0.41711 0.21048 0.0
C2265 C 0.59242 0.41508 0.18695 0.0
C2266 C 0.65274 0.41218 0.13335 0.0
C2267 C 0.61488 0.41758 0.07287 0.0
C2268 C 0.61534 0.41629 0.09824 0.0
C2269 C 0.62514 0.41736 0.17187 0.0
C2270 C 0.6203 0.41613 0.14669 0.0
H2271 H 0.54866 0.41695 0.02725 0.0
H2272 H 0.55049 0.41334 0.0685 0.0
H2273 H 0.676 0.40928 0.0995 0.0
H2274 H 0.6936 0.42699 0.21056 0.0
H2275 H 0.68733 0.42345 0.16954 0.0
C2276 C 0.40049 0.16977 0.78756 0.0
C2277 C 0.36803 0.17381 0.77437 0.0
C2278 C 0.39599 0.16856 0.81132 0.0
C2279 C 0.33683 0.17885 0.85982 0.0
H2280 H 0.38206 0.15602 0.89324 0.0
C2281 C 0.31765 0.17538 0.95759 0.0
C2282 C 0.35373 0.17299 0.96991 0.0
C2283 C 0.31645 0.17425 0.93372 0.0
C2284 C 0.36945 0.16246 0.88412 0.0
H2285 H 0.30495 0.17939 0.77542 0.0
H2286 H 0.29691 0.17717 0.81685 0.0
H2287 H 0.38527 0.15629 0.85117 0.0
H2288 H 0.41629 0.16718 0.96717 0.0
H2289 H 0.41438 0.16531 0.92535 0.0
H2290 H 0.32162 0.18511 0.89263 0.0
C2291 C 0.32607 0.1751 0.80893 0.0
C2292 C 0.37131 0.16261 0.86007 0.0
C2293 C 0.3306 0.17633 0.78521 0.0
C2294 C 0.38809 0.16909 0.95807 0.0
C2295 C 0.3869 0.16797 0.93416 0.0
C2296 C 0.33494 0.17868 0.88379 0.0
C2297 C 0.35892 0.17135 0.82229 0.0
C2298 C 0.35525 0.17085 0.8477 0.0
C2299 C 0.35132 0.17072 0.92171 0.0
C2300 C 0.35146 0.17052 0.89621 0.0
H2301 H 0.42969 0.16776 0.77961 0.0
H2302 H 0.42201 0.16574 0.82118 0.0
H2303 H 0.32491 0.18539 0.85082 0.0
H2304 H 0.29059 0.17834 0.96631 0.0
H2305 H 0.28839 0.17628 0.92461 0.0
C2306 C 0.40944 0.57219 0.9499 0.0
C2307 C 0.37714 0.56854 0.96378 0.0
C2308 C 0.404 0.57315 0.92612 0.0
C2309 C 0.34185 0.56271 0.87904 0.0
H2310 H 0.3845 0.58537 0.84403 0.0
C2311 C 0.31398 0.56581 0.78188 0.0
C2312 C 0.34863 0.56831 0.76845 0.0
C2313 C 0.31508 0.56697 0.80575 0.0
C2314 C 0.37266 0.57897 0.85359 0.0
H2315 H 0.31349 0.56332 0.96389 0.0
H2316 H 0.30392 0.56505 0.92246 0.0
H2317 H 0.39118 0.58526 0.88599 0.0
H2318 H 0.41104 0.57433 0.76924 0.0
H2319 H 0.41322 0.57623 0.81103 0.0
H2320 H 0.32398 0.55631 0.84679 0.0
C2321 C 0.3336 0.56704 0.92986 0.0
C2322 C 0.37649 0.57891 0.87756 0.0
C2323 C 0.33903 0.56609 0.95358 0.0
C2324 C 0.38388 0.57234 0.77921 0.0
C2325 C 0.38504 0.57348 0.80311 0.0
C2326 C 0.33808 0.56276 0.85513 0.0
C2327 C 0.36618 0.57046 0.91585 0.0
C2328 C 0.36121 0.57076 0.8905 0.0
C2329 C 0.35092 0.57062 0.81666 0.0
C2330 C 0.35353 0.57087 0.84213 0.0
H2331 H 0.43914 0.57415 0.95734 0.0
H2332 H 0.42977 0.57572 0.91572 0.0
H2333 H 0.33048 0.55623 0.8885 0.0
H2334 H 0.28627 0.56276 0.77401 0.0
H2335 H 0.28805 0.56488 0.8157 0.0
loop_
_geom_bond_atom_site_label_1
_geom_bond_atom_site_label_2
_geom_bond_distance
_geom_bond_site_symmetry_2
_ccdc_geom_bond_type
In0 O1 2.294 . S
In0 O2 2.326 . S
In0 O6 2.266 . S
In0 O7 2.326 . S
In0 O8 2.266 . S
In0 O9 2.326 . S
In0 O11 2.294 . S
In0 O12 2.326 . S
O1 In0 2.294 . S
O1 C10 1.240 . S
O2 In0 2.326 . S
O2 C10 1.252 . S
C3 O6 1.252 . S
C3 O7 1.260 . S
C4 O11 1.240 . S
C4 O12 1.252 . S
C5 O8 1.252 . S
C5 O9 1.260 . S
O6 In0 2.266 . S
O6 C3 1.252 . S
O7 In0 2.326 . S
O7 C3 1.260 . S
O8 In0 2.266 . S
O8 C5 1.252 . S
O9 In0 2.326 . S
O9 C5 1.260 . S
C10 O1 1.240 . S
C10 O2 1.252 . S
O11 In0 2.294 . S
O11 C4 1.240 . S
O12 In0 2.326 . S
O12 C4 1.252 . S
In13 O14 2.294 . S
In13 O15 2.326 . S
In13 O19 2.266 . S
In13 O20 2.326 . S
In13 O21 2.266 . S
In13 O22 2.326 . S
In13 O24 2.294 . S
In13 O25 2.326 . S
O14 In13 2.294 . S
O14 C23 1.240 . S
O15 In13 2.326 . S
O15 C23 1.252 . S
C16 O19 1.252 . S
C16 O20 1.260 . S
C17 O24 1.240 . S
C17 O25 1.252 . S
C18 O21 1.252 . S
C18 O22 1.260 . S
O19 In13 2.266 . S
O19 C16 1.252 . S
O20 In13 2.326 . S
O20 C16 1.260 . S
O21 In13 2.266 . S
O21 C18 1.252 . S
O22 In13 2.326 . S
O22 C18 1.260 . S
C23 O14 1.240 . S
C23 O15 1.252 . S
O24 In13 2.294 . S
O24 C17 1.240 . S
O25 In13 2.326 . S
O25 C17 1.252 . S
In26 O27 2.294 . S
In26 O28 2.326 . S
In26 O32 2.266 . S
In26 O33 2.326 . S
In26 O34 2.302 . S
In26 O35 2.326 . S
In26 O37 2.294 . S
In26 O38 2.326 . S
O27 In26 2.294 . S
O27 C36 1.240 . S
O28 In26 2.326 . S
O28 C36 1.252 . S
C29 O32 1.252 . S
C29 O33 1.260 . S
C30 O37 1.240 . S
C30 O38 1.252 . S
C31 O34 1.238 1_554 S
C31 O35 1.260 1_554 S
O32 In26 2.266 . S
O32 C29 1.252 . S
O33 In26 2.326 . S
O33 C29 1.260 . S
O34 In26 2.302 . S
O34 C31 1.238 1_556 S
O35 In26 2.326 . S
O35 C31 1.260 1_556 S
C36 O27 1.240 . S
C36 O28 1.252 . S
O37 In26 2.294 . S
O37 C30 1.240 . S
O38 In26 2.326 . S
O38 C30 1.252 . S
In39 O40 2.294 . S
In39 O41 2.326 . S
In39 O45 2.303 . S
In39 O46 2.326 . S
In39 O47 2.266 . S
In39 O48 2.326 . S
In39 O50 2.294 . S
In39 O51 2.326 . S
O40 In39 2.294 . S
O40 C49 1.240 . S
O41 In39 2.326 . S
O41 C49 1.252 . S
C42 O45 1.238 1_554 S
C42 O46 1.260 1_554 S
C43 O50 1.240 . S
C43 O51 1.252 . S
C44 O47 1.252 . S
C44 O48 1.260 . S
O45 In39 2.303 . S
O45 C42 1.238 1_556 S
O46 In39 2.326 . S
O46 C42 1.260 1_556 S
O47 In39 2.266 . S
O47 C44 1.252 . S
O48 In39 2.326 . S
O48 C44 1.260 . S
C49 O40 1.240 . S
C49 O41 1.252 . S
O50 In39 2.294 . S
O50 C43 1.240 . S
O51 In39 2.326 . S
O51 C43 1.252 . S
In52 O53 2.294 . S
In52 O54 2.326 . S
In52 O58 2.266 . S
In52 O59 2.326 . S
In52 O60 2.266 . S
In52 O61 2.326 . S
In52 O63 2.294 . S
In52 O64 2.326 . S
O53 In52 2.294 . S
O53 C62 1.240 . S
O54 In52 2.326 . S
O54 C62 1.252 . S
C55 O58 1.252 . S
C55 O59 1.260 . S
C56 O63 1.240 . S
C56 O64 1.252 . S
C57 O60 1.252 . S
C57 O61 1.260 . S
O58 In52 2.266 . S
O58 C55 1.252 . S
O59 In52 2.326 . S
O59 C55 1.260 . S
O60 In52 2.266 . S
O60 C57 1.252 . S
O61 In52 2.326 . S
O61 C57 1.260 . S
C62 O53 1.240 . S
C62 O54 1.252 . S
O63 In52 2.294 . S
O63 C56 1.240 . S
O64 In52 2.326 . S
O64 C56 1.252 . S
In65 O66 2.294 . S
In65 O67 2.326 . S
In65 O71 2.266 . S
In65 O72 2.326 . S
In65 O73 2.266 . S
In65 O74 2.326 . S
In65 O76 2.294 . S
In65 O77 2.326 . S
O66 In65 2.294 . S
O66 C75 1.240 . S
O67 In65 2.326 . S
O67 C75 1.252 . S
C68 O71 1.252 . S
C68 O72 1.260 . S
C69 O76 1.240 . S
C69 O77 1.252 . S
C70 O73 1.252 . S
C70 O74 1.260 . S
O71 In65 2.266 . S
O71 C68 1.252 . S
O72 In65 2.326 . S
O72 C68 1.260 . S
O73 In65 2.266 . S
O73 C70 1.252 . S
O74 In65 2.326 . S
O74 C70 1.260 . S
C75 O66 1.240 . S
C75 O67 1.252 . S
O76 In65 2.294 . S
O76 C69 1.240 . S
O77 In65 2.326 . S
O77 C69 1.252 . S
In78 O79 2.294 . S
In78 O80 2.326 . S
In78 O84 2.302 . S
In78 O85 2.326 . S
In78 O86 2.266 . S
In78 O87 2.326 . S
In78 O89 2.294 . S
In78 O90 2.326 . S
O79 In78 2.294 . S
O79 C88 1.240 . S
O80 In78 2.326 . S
O80 C88 1.252 . S
C81 O84 1.238 1_556 S
C81 O85 1.260 1_556 S
C82 O89 1.240 . S
C82 O90 1.252 . S
C83 O86 1.252 . S
C83 O87 1.260 . S
O84 In78 2.302 . S
O84 C81 1.238 1_554 S
O85 In78 2.326 . S
O85 C81 1.260 1_554 S
O86 In78 2.266 . S
O86 C83 1.252 . S
O87 In78 2.326 . S
O87 C83 1.260 . S
C88 O79 1.240 . S
C88 O80 1.252 . S
O89 In78 2.294 . S
O89 C82 1.240 . S
O90 In78 2.326 . S
O90 C82 1.252 . S
In91 O92 2.294 . S
In91 O93 2.326 . S
In91 O97 2.303 . S
In91 O98 2.326 . S
In91 O99 2.266 . S
In91 O100 2.326 . S
In91 O102 2.294 . S
In91 O103 2.326 . S
O92 In91 2.294 . S
O92 C101 1.240 . S
O93 In91 2.326 . S
O93 C101 1.252 . S
C94 O97 1.238 1_556 S
C94 O98 1.260 1_556 S
C95 O102 1.240 . S
C95 O103 1.252 . S
C96 O99 1.252 . S
C96 O100 1.260 . S
O97 In91 2.303 . S
O97 C94 1.238 1_554 S
O98 In91 2.326 . S
O98 C94 1.260 1_554 S
O99 In91 2.266 . S
O99 C96 1.252 . S
O100 In91 2.326 . S
O100 C96 1.260 . S
C101 O92 1.240 . S
C101 O93 1.252 . S
O102 In91 2.294 . S
O102 C95 1.240 . S
O103 In91 2.326 . S
O103 C95 1.252 . S
In104 O105 2.294 . S
In104 O106 2.326 . S
In104 O110 2.266 . S
In104 O111 2.326 . S
In104 O112 2.266 . S
In104 O113 2.326 . S
In104 O115 2.294 . S
In104 O116 2.326 . S
O105 In104 2.294 . S
O105 C114 1.240 . S
O106 In104 2.326 . S
O106 C114 1.252 . S
C107 O110 1.252 . S
C107 O111 1.260 . S
C108 O115 1.240 . S
C108 O116 1.252 . S
C109 O112 1.252 . S
C109 O113 1.260 . S
O110 In104 2.266 . S
O110 C107 1.252 . S
O111 In104 2.326 . S
O111 C107 1.260 . S
O112 In104 2.266 . S
O112 C109 1.252 . S
O113 In104 2.326 . S
O113 C109 1.260 . S
C114 O105 1.240 . S
C114 O106 1.252 . S
O115 In104 2.294 . S
O115 C108 1.240 . S
O116 In104 2.326 . S
O116 C108 1.252 . S
In117 O118 2.294 . S
In117 O119 2.326 . S
In117 O123 2.266 . S
In117 O124 2.326 . S
In117 O125 2.266 . S
In117 O126 2.326 . S
In117 O128 2.294 . S
In117 O129 2.326 . S
O118 In117 2.294 . S
O118 C127 1.240 . S
O119 In117 2.326 . S
O119 C127 1.252 . S
C120 O123 1.252 . S
C120 O124 1.260 . S
C121 O128 1.240 . S
C121 O129 1.252 . S
C122 O125 1.252 . S
C122 O126 1.260 . S
O123 In117 2.266 . S
O123 C120 1.252 . S
O124 In117 2.326 . S
O124 C120 1.260 . S
O125 In117 2.266 . S
O125 C122 1.252 . S
O126 In117 2.326 . S
O126 C122 1.260 . S
C127 O118 1.240 . S
C127 O119 1.252 . S
O128 In117 2.294 . S
O128 C121 1.240 . S
O129 In117 2.326 . S
O129 C121 1.252 . S
In130 O131 2.294 . S
In130 O132 2.326 . S
In130 O136 2.266 . S
In130 O137 2.326 . S
In130 O138 2.266 . S
In130 O139 2.326 . S
In130 O141 2.294 . S
In130 O142 2.326 . S
O131 In130 2.294 . S
O131 C140 1.240 . S
O132 In130 2.326 . S
O132 C140 1.252 . S
C133 O136 1.252 . S
C133 O137 1.260 . S
C134 O141 1.240 . S
C134 O142 1.252 . S
C135 O138 1.252 . S
C135 O139 1.260 . S
O136 In130 2.266 . S
O136 C133 1.252 . S
O137 In130 2.326 . S
O137 C133 1.260 . S
O138 In130 2.266 . S
O138 C135 1.252 . S
O139 In130 2.326 . S
O139 C135 1.260 . S
C140 O131 1.240 . S
C140 O132 1.252 . S
O141 In130 2.294 . S
O141 C134 1.240 . S
O142 In130 2.326 . S
O142 C134 1.252 . S
In143 O144 2.294 . S
In143 O145 2.326 . S
In143 O149 2.266 . S
In143 O150 2.326 . S
In143 O151 2.266 . S
In143 O152 2.326 . S
In143 O154 2.294 . S
In143 O155 2.326 . S
O144 In143 2.294 . S
O144 C153 1.240 . S
O145 In143 2.326 . S
O145 C153 1.252 . S
C146 O149 1.252 . S
C146 O150 1.260 . S
C147 O154 1.240 . S
C147 O155 1.252 . S
C148 O151 1.252 . S
C148 O152 1.260 . S
O149 In143 2.266 . S
O149 C146 1.252 . S
O150 In143 2.326 . S
O150 C146 1.260 . S
O151 In143 2.266 . S
O151 C148 1.252 . S
O152 In143 2.326 . S
O152 C148 1.260 . S
C153 O144 1.240 . S
C153 O145 1.252 . S
O154 In143 2.294 . S
O154 C147 1.240 . S
O155 In143 2.326 . S
O155 C147 1.252 . S
In156 O157 2.294 . S
In156 O158 2.326 . S
In156 O162 2.266 . S
In156 O163 2.326 . S
In156 O164 2.266 . S
In156 O165 2.326 . S
In156 O167 2.294 . S
In156 O168 2.326 . S
O157 In156 2.294 . S
O157 C166 1.240 . S
O158 In156 2.326 . S
O158 C166 1.252 . S
C159 O162 1.252 . S
C159 O163 1.260 . S
C160 O167 1.240 . S
C160 O168 1.252 . S
C161 O164 1.252 . S
C161 O165 1.260 . S
O162 In156 2.266 . S
O162 C159 1.252 . S
O163 In156 2.326 . S
O163 C159 1.260 . S
O164 In156 2.266 . S
O164 C161 1.252 . S
O165 In156 2.326 . S
O165 C161 1.260 . S
C166 O157 1.240 . S
C166 O158 1.252 . S
O167 In156 2.294 . S
O167 C160 1.240 . S
O168 In156 2.326 . S
O168 C160 1.252 . S
In169 O170 2.294 . S
In169 O171 2.326 . S
In169 O175 2.266 . S
In169 O176 2.326 . S
In169 O177 2.266 . S
In169 O178 2.326 . S
In169 O180 2.294 . S
In169 O181 2.326 . S
O170 In169 2.294 . S
O170 C179 1.240 . S
O171 In169 2.326 . S
O171 C179 1.252 . S
C172 O175 1.252 . S
C172 O176 1.260 . S
C173 O180 1.240 . S
C173 O181 1.252 . S
C174 O177 1.252 . S
C174 O178 1.260 . S
O175 In169 2.266 . S
O175 C172 1.252 . S
O176 In169 2.326 . S
O176 C172 1.260 . S
O177 In169 2.266 . S
O177 C174 1.252 . S
O178 In169 2.326 . S
O178 C174 1.260 . S
C179 O170 1.240 . S
C179 O171 1.252 . S
O180 In169 2.294 . S
O180 C173 1.240 . S
O181 In169 2.326 . S
O181 C173 1.252 . S
In182 O183 2.294 . S
In182 O184 2.326 . S
In182 O188 2.266 . S
In182 O189 2.326 . S
In182 O190 2.266 . S
In182 O191 2.326 . S
In182 O193 2.294 . S
In182 O194 2.326 . S
O183 In182 2.294 . S
O183 C192 1.240 . S
O184 In182 2.326 . S
O184 C192 1.252 . S
C185 O188 1.252 . S
C185 O189 1.260 . S
C186 O193 1.240 . S
C186 O194 1.252 . S
C187 O190 1.252 . S
C187 O191 1.260 . S
O188 In182 2.266 . S
O188 C185 1.252 . S
O189 In182 2.326 . S
O189 C185 1.260 . S
O190 In182 2.266 . S
O190 C187 1.252 . S
O191 In182 2.326 . S
O191 C187 1.260 . S
C192 O183 1.240 . S
C192 O184 1.252 . S
O193 In182 2.294 . S
O193 C186 1.240 . S
O194 In182 2.326 . S
O194 C186 1.252 . S
In195 O196 2.294 . S
In195 O197 2.326 . S
In195 O201 2.266 . S
In195 O202 2.326 . S
In195 O203 2.266 . S
In195 O204 2.326 . S
In195 O206 2.294 . S
In195 O207 2.326 . S
O196 In195 2.294 . S
O196 C205 1.240 . S
O197 In195 2.326 . S
O197 C205 1.252 . S
C198 O201 1.252 . S
C198 O202 1.260 . S
C199 O206 1.240 . S
C199 O207 1.252 . S
C200 O203 1.252 . S
C200 O204 1.260 . S
O201 In195 2.266 . S
O201 C198 1.252 . S
O202 In195 2.326 . S
O202 C198 1.260 . S
O203 In195 2.266 . S
O203 C200 1.252 . S
O204 In195 2.326 . S
O204 C200 1.260 . S
C205 O196 1.240 . S
C205 O197 1.252 . S
O206 In195 2.294 . S
O206 C199 1.240 . S
O207 In195 2.326 . S
O207 C199 1.252 . S
In208 O209 2.294 . S
In208 O210 2.326 . S
In208 O214 2.266 . S
In208 O215 2.326 . S
In208 O216 2.266 . S
In208 O217 2.326 . S
In208 O219 2.294 . S
In208 O220 2.326 . S
O209 In208 2.294 . S
O209 C218 1.240 . S
O210 In208 2.326 . S
O210 C218 1.252 . S
C211 O214 1.252 . S
C211 O215 1.260 . S
C212 O219 1.240 . S
C212 O220 1.252 . S
C213 O216 1.252 . S
C213 O217 1.260 . S
O214 In208 2.266 . S
O214 C211 1.252 . S
O215 In208 2.326 . S
O215 C211 1.260 . S
O216 In208 2.266 . S
O216 C213 1.252 . S
O217 In208 2.326 . S
O217 C213 1.260 . S
C218 O209 1.240 . S
C218 O210 1.252 . S
O219 In208 2.294 . S
O219 C212 1.240 . S
O220 In208 2.326 . S
O220 C212 1.252 . S
In221 O222 2.294 . S
In221 O223 2.326 . S
In221 O227 2.266 . S
In221 O228 2.326 . S
In221 O229 2.266 . S
In221 O230 2.326 . S
In221 O232 2.294 . S
In221 O233 2.326 . S
O222 In221 2.294 . S
O222 C231 1.240 . S
O223 In221 2.326 . S
O223 C231 1.252 . S
C224 O227 1.252 . S
C224 O228 1.260 . S
C225 O232 1.240 . S
C225 O233 1.252 . S
C226 O229 1.252 . S
C226 O230 1.260 . S
O227 In221 2.266 . S
O227 C224 1.252 . S
O228 In221 2.326 . S
O228 C224 1.260 . S
O229 In221 2.266 . S
O229 C226 1.252 . S
O230 In221 2.326 . S
O230 C226 1.260 . S
C231 O222 1.240 . S
C231 O223 1.252 . S
O232 In221 2.294 . S
O232 C225 1.240 . S
O233 In221 2.326 . S
O233 C225 1.252 . S
In234 O235 2.294 . S
In234 O236 2.326 . S
In234 O240 2.266 . S
In234 O241 2.326 . S
In234 O242 2.266 . S
In234 O243 2.326 . S
In234 O245 2.294 . S
In234 O246 2.326 . S
O235 In234 2.294 . S
O235 C244 1.240 . S
O236 In234 2.326 . S
O236 C244 1.252 . S
C237 O240 1.252 . S
C237 O241 1.260 . S
C238 O245 1.240 . S
C238 O246 1.252 . S
C239 O242 1.252 . S
C239 O243 1.260 . S
O240 In234 2.266 . S
O240 C237 1.252 . S
O241 In234 2.326 . S
O241 C237 1.260 . S
O242 In234 2.266 . S
O242 C239 1.252 . S
O243 In234 2.326 . S
O243 C239 1.260 . S
C244 O235 1.240 . S
C244 O236 1.252 . S
O245 In234 2.294 . S
O245 C238 1.240 . S
O246 In234 2.326 . S
O246 C238 1.252 . S
In247 O248 2.294 . S
In247 O249 2.326 . S
In247 O253 2.266 . S
In247 O254 2.326 . S
In247 O255 2.266 . S
In247 O256 2.326 . S
In247 O258 2.294 . S
In247 O259 2.326 . S
O248 In247 2.294 . S
O248 C257 1.240 . S
O249 In247 2.326 . S
O249 C257 1.252 . S
C250 O253 1.252 . S
C250 O254 1.260 . S
C251 O258 1.240 . S
C251 O259 1.252 . S
C252 O255 1.252 . S
C252 O256 1.260 . S
O253 In247 2.266 . S
O253 C250 1.252 . S
O254 In247 2.326 . S
O254 C250 1.260 . S
O255 In247 2.266 . S
O255 C252 1.252 . S
O256 In247 2.326 . S
O256 C252 1.260 . S
C257 O248 1.240 . S
C257 O249 1.252 . S
O258 In247 2.294 . S
O258 C251 1.240 . S
O259 In247 2.326 . S
O259 C251 1.252 . S
In260 O261 2.294 . S
In260 O262 2.326 . S
In260 O266 2.266 . S
In260 O267 2.326 . S
In260 O268 2.266 . S
In260 O269 2.326 . S
In260 O271 2.294 . S
In260 O272 2.326 . S
O261 In260 2.294 . S
O261 C270 1.240 . S
O262 In260 2.326 . S
O262 C270 1.252 . S
C263 O266 1.252 . S
C263 O267 1.260 . S
C264 O271 1.240 . S
C264 O272 1.252 . S
C265 O268 1.252 . S
C265 O269 1.260 . S
O266 In260 2.266 . S
O266 C263 1.252 . S
O267 In260 2.326 . S
O267 C263 1.260 . S
O268 In260 2.266 . S
O268 C265 1.252 . S
O269 In260 2.326 . S
O269 C265 1.260 . S
C270 O261 1.240 . S
C270 O262 1.252 . S
O271 In260 2.294 . S
O271 C264 1.240 . S
O272 In260 2.326 . S
O272 C264 1.252 . S
In273 O274 2.294 . S
In273 O275 2.326 . S
In273 O279 2.266 . S
In273 O280 2.326 . S
In273 O281 2.266 . S
In273 O282 2.326 . S
In273 O284 2.294 . S
In273 O285 2.326 . S
O274 In273 2.294 . S
O274 C283 1.240 . S
O275 In273 2.326 . S
O275 C283 1.252 . S
C276 O279 1.252 . S
C276 O280 1.260 . S
C277 O284 1.240 . S
C277 O285 1.252 . S
C278 O281 1.252 . S
C278 O282 1.260 . S
O279 In273 2.266 . S
O279 C276 1.252 . S
O280 In273 2.326 . S
O280 C276 1.260 . S
O281 In273 2.266 . S
O281 C278 1.252 . S
O282 In273 2.326 . S
O282 C278 1.260 . S
C283 O274 1.240 . S
C283 O275 1.252 . S
O284 In273 2.294 . S
O284 C277 1.240 . S
O285 In273 2.326 . S
O285 C277 1.252 . S
In286 O287 2.294 . S
In286 O288 2.326 . S
In286 O292 2.266 . S
In286 O293 2.326 . S
In286 O294 2.266 . S
In286 O295 2.326 . S
In286 O297 2.294 . S
In286 O298 2.326 . S
O287 In286 2.294 . S
O287 C296 1.240 . S
O288 In286 2.326 . S
O288 C296 1.252 . S
C289 O292 1.252 . S
C289 O293 1.260 . S
C290 O297 1.240 . S
C290 O298 1.252 . S
C291 O294 1.252 . S
C291 O295 1.260 . S
O292 In286 2.266 . S
O292 C289 1.252 . S
O293 In286 2.326 . S
O293 C289 1.260 . S
O294 In286 2.266 . S
O294 C291 1.252 . S
O295 In286 2.326 . S
O295 C291 1.260 . S
C296 O287 1.240 . S
C296 O288 1.252 . S
O297 In286 2.294 . S
O297 C290 1.240 . S
O298 In286 2.326 . S
O298 C290 1.252 . S
In299 O300 2.294 . S
In299 O301 2.326 . S
In299 O305 2.266 . S
In299 O306 2.326 . S
In299 O307 2.266 . S
In299 O308 2.326 . S
In299 O310 2.294 . S
In299 O311 2.326 . S
O300 In299 2.294 . S
O300 C309 1.240 . S
O301 In299 2.326 . S
O301 C309 1.252 . S
C302 O305 1.252 . S
C302 O306 1.260 . S
C303 O310 1.240 . S
C303 O311 1.252 . S
C304 O307 1.252 . S
C304 O308 1.260 . S
O305 In299 2.266 . S
O305 C302 1.252 . S
O306 In299 2.326 . S
O306 C302 1.260 . S
O307 In299 2.266 . S
O307 C304 1.252 . S
O308 In299 2.326 . S
O308 C304 1.260 . S
C309 O300 1.240 . S
C309 O301 1.252 . S
O310 In299 2.294 . S
O310 C303 1.240 . S
O311 In299 2.326 . S
O311 C303 1.252 . S
In312 O313 2.294 . S
In312 O314 2.326 . S
In312 O318 2.266 . S
In312 O319 2.326 . S
In312 O320 2.266 . S
In312 O321 2.326 . S
In312 O323 2.294 . S
In312 O324 2.326 . S
O313 In312 2.294 . S
O313 C322 1.240 . S
O314 In312 2.326 . S
O314 C322 1.252 . S
C315 O318 1.252 . S
C315 O319 1.260 . S
C316 O323 1.240 . S
C316 O324 1.252 . S
C317 O320 1.252 . S
C317 O321 1.260 . S
O318 In312 2.266 . S
O318 C315 1.252 . S
O319 In312 2.326 . S
O319 C315 1.260 . S
O320 In312 2.266 . S
O320 C317 1.252 . S
O321 In312 2.326 . S
O321 C317 1.260 . S
C322 O313 1.240 . S
C322 O314 1.252 . S
O323 In312 2.294 . S
O323 C316 1.240 . S
O324 In312 2.326 . S
O324 C316 1.252 . S
In325 O326 2.294 . S
In325 O327 2.326 . S
In325 O331 2.266 . S
In325 O332 2.326 . S
In325 O333 2.266 . S
In325 O334 2.326 . S
In325 O336 2.294 . S
In325 O337 2.326 . S
O326 In325 2.294 . S
O326 C335 1.240 . S
O327 In325 2.326 . S
O327 C335 1.252 . S
C328 O331 1.252 . S
C328 O332 1.260 . S
C329 O336 1.240 . S
C329 O337 1.252 . S
C330 O333 1.252 . S
C330 O334 1.260 . S
O331 In325 2.266 . S
O331 C328 1.252 . S
O332 In325 2.326 . S
O332 C328 1.260 . S
O333 In325 2.266 . S
O333 C330 1.252 . S
O334 In325 2.326 . S
O334 C330 1.260 . S
C335 O326 1.240 . S
C335 O327 1.252 . S
O336 In325 2.294 . S
O336 C329 1.240 . S
O337 In325 2.326 . S
O337 C329 1.252 . S
In338 O339 2.294 . S
In338 O340 2.326 . S
In338 O344 2.266 . S
In338 O345 2.326 . S
In338 O346 2.302 . S
In338 O347 2.326 . S
In338 O349 2.294 . S
In338 O350 2.326 . S
O339 In338 2.294 . S
O339 C348 1.240 . S
O340 In338 2.326 . S
O340 C348 1.252 . S
C341 O344 1.252 . S
C341 O345 1.260 . S
C342 O349 1.240 . S
C342 O350 1.252 . S
C343 O346 1.238 1_554 S
C343 O347 1.260 1_554 S
O344 In338 2.266 . S
O344 C341 1.252 . S
O345 In338 2.326 . S
O345 C341 1.260 . S
O346 In338 2.302 . S
O346 C343 1.238 1_556 S
O347 In338 2.326 . S
O347 C343 1.260 1_556 S
C348 O339 1.240 . S
C348 O340 1.252 . S
O349 In338 2.294 . S
O349 C342 1.240 . S
O350 In338 2.326 . S
O350 C342 1.252 . S
In351 O352 2.294 . S
In351 O353 2.326 . S
In351 O357 2.303 . S
In351 O358 2.326 . S
In351 O359 2.266 . S
In351 O360 2.326 . S
In351 O362 2.294 . S
In351 O363 2.326 . S
O352 In351 2.294 . S
O352 C361 1.240 . S
O353 In351 2.326 . S
O353 C361 1.252 . S
C354 O357 1.238 1_554 S
C354 O358 1.260 1_554 S
C355 O362 1.240 . S
C355 O363 1.252 . S
C356 O359 1.252 . S
C356 O360 1.260 . S
O357 In351 2.303 . S
O357 C354 1.238 1_556 S
O358 In351 2.326 . S
O358 C354 1.260 1_556 S
O359 In351 2.266 . S
O359 C356 1.252 . S
O360 In351 2.326 . S
O360 C356 1.260 . S
C361 O352 1.240 . S
C361 O353 1.252 . S
O362 In351 2.294 . S
O362 C355 1.240 . S
O363 In351 2.326 . S
O363 C355 1.252 . S
In364 O365 2.294 . S
In364 O366 2.326 . S
In364 O370 2.266 . S
In364 O371 2.326 . S
In364 O372 2.266 . S
In364 O373 2.326 . S
In364 O375 2.294 . S
In364 O376 2.326 . S
O365 In364 2.294 . S
O365 C374 1.240 . S
O366 In364 2.326 . S
O366 C374 1.252 . S
C367 O370 1.252 . S
C367 O371 1.260 . S
C368 O375 1.240 . S
C368 O376 1.252 . S
C369 O372 1.252 . S
C369 O373 1.260 . S
O370 In364 2.266 . S
O370 C367 1.252 . S
O371 In364 2.326 . S
O371 C367 1.260 . S
O372 In364 2.266 . S
O372 C369 1.252 . S
O373 In364 2.326 . S
O373 C369 1.260 . S
C374 O365 1.240 . S
C374 O366 1.252 . S
O375 In364 2.294 . S
O375 C368 1.240 . S
O376 In364 2.326 . S
O376 C368 1.252 . S
In377 O378 2.294 . S
In377 O379 2.326 . S
In377 O383 2.266 . S
In377 O384 2.326 . S
In377 O385 2.266 . S
In377 O386 2.326 . S
In377 O388 2.294 . S
In377 O389 2.326 . S
O378 In377 2.294 . S
O378 C387 1.240 . S
O379 In377 2.326 . S
O379 C387 1.252 . S
C380 O383 1.252 . S
C380 O384 1.260 . S
C381 O388 1.240 . S
C381 O389 1.252 . S
C382 O385 1.252 . S
C382 O386 1.260 . S
O383 In377 2.266 . S
O383 C380 1.252 . S
O384 In377 2.326 . S
O384 C380 1.260 . S
O385 In377 2.266 . S
O385 C382 1.252 . S
O386 In377 2.326 . S
O386 C382 1.260 . S
C387 O378 1.240 . S
C387 O379 1.252 . S
O388 In377 2.294 . S
O388 C381 1.240 . S
O389 In377 2.326 . S
O389 C381 1.252 . S
In390 O391 2.294 . S
In390 O392 2.326 . S
In390 O396 2.302 . S
In390 O397 2.326 . S
In390 O398 2.266 . S
In390 O399 2.326 . S
In390 O401 2.294 . S
In390 O402 2.326 . S
O391 In390 2.294 . S
O391 C400 1.240 . S
O392 In390 2.326 . S
O392 C400 1.252 . S
C393 O396 1.238 1_556 S
C393 O397 1.260 1_556 S
C394 O401 1.240 . S
C394 O402 1.252 . S
C395 O398 1.252 . S
C395 O399 1.260 . S
O396 In390 2.302 . S
O396 C393 1.238 1_554 S
O397 In390 2.326 . S
O397 C393 1.260 1_554 S
O398 In390 2.266 . S
O398 C395 1.252 . S
O399 In390 2.326 . S
O399 C395 1.260 . S
C400 O391 1.240 . S
C400 O392 1.252 . S
O401 In390 2.294 . S
O401 C394 1.240 . S
O402 In390 2.326 . S
O402 C394 1.252 . S
In403 O404 2.294 . S
In403 O405 2.326 . S
In403 O409 2.303 . S
In403 O410 2.326 . S
In403 O411 2.266 . S
In403 O412 2.326 . S
In403 O414 2.294 . S
In403 O415 2.326 . S
O404 In403 2.294 . S
O404 C413 1.240 . S
O405 In403 2.326 . S
O405 C413 1.252 . S
C406 O409 1.238 1_556 S
C406 O410 1.260 1_556 S
C407 O414 1.240 . S
C407 O415 1.252 . S
C408 O411 1.252 . S
C408 O412 1.260 . S
O409 In403 2.303 . S
O409 C406 1.238 1_554 S
O410 In403 2.326 . S
O410 C406 1.260 1_554 S
O411 In403 2.266 . S
O411 C408 1.252 . S
O412 In403 2.326 . S
O412 C408 1.260 . S
C413 O404 1.240 . S
C413 O405 1.252 . S
O414 In403 2.294 . S
O414 C407 1.240 . S
O415 In403 2.326 . S
O415 C407 1.252 . S
C416 C417 1.349 . S
C416 C418 1.327 . S
C416 H441 0.950 . S
C417 C416 1.349 . S
C417 C433 1.349 . S
C418 C416 1.327 . S
C418 C437 1.429 . S
C418 H442 0.950 . S
C419 C436 1.574 . S
C419 C438 1.368 . S
C419 H443 0.949 . S
H420 C424 0.949 . S
C421 C422 1.349 . S
C421 C423 1.327 . S
C421 H444 0.950 . S
C422 C421 1.349 . S
C422 C434 1.349 . S
C423 C421 1.327 . S
C423 C439 1.429 . S
C423 H445 0.950 . S
C424 H420 0.949 . S
C424 C432 1.574 . S
C424 C440 1.368 . S
H425 C433 0.950 . S
H426 C431 0.950 . S
H427 C432 0.949 . S
H428 C434 0.950 . S
H429 C435 0.950 . S
H430 C436 0.949 . S
C431 H426 0.950 . S
C431 C433 1.327 . S
C431 C437 1.429 . S
C432 C424 1.574 . S
C432 H427 0.949 . S
C432 C438 1.368 . S
C433 C417 1.349 . S
C433 H425 0.950 . S
C433 C431 1.327 . S
C434 C422 1.349 . S
C434 H428 0.950 . S
C434 C435 1.327 . S
C435 H429 0.950 . S
C435 C434 1.327 . S
C435 C439 1.429 . S
C436 C419 1.574 . S
C436 H430 0.949 . S
C436 C440 1.368 . S
C437 C418 1.429 . S
C437 C431 1.429 . S
C437 C438 1.523 . S
C438 C419 1.368 . S
C438 C432 1.368 . S
C438 C437 1.523 . S
C439 C423 1.429 . S
C439 C435 1.429 . S
C439 C440 1.523 . S
C440 C424 1.368 . S
C440 C436 1.368 . S
C440 C439 1.523 . S
H441 C416 0.950 . S
H442 C418 0.950 . S
H443 C419 0.949 . S
H444 C421 0.950 . S
H445 C423 0.950 . S
C446 C447 1.349 . S
C446 C448 1.327 . S
C446 H471 0.950 . S
C447 C446 1.349 . S
C447 C463 1.349 . S
C448 C446 1.327 . S
C448 C467 1.429 . S
C448 H472 0.950 . S
C449 C466 1.574 . S
C449 C468 1.368 . S
C449 H473 0.949 . S
H450 C454 0.949 . S
C451 C452 1.349 . S
C451 C453 1.327 . S
C451 H474 0.950 . S
C452 C451 1.349 . S
C452 C464 1.349 . S
C453 C451 1.327 . S
C453 C469 1.429 . S
C453 H475 0.950 . S
C454 H450 0.949 . S
C454 C462 1.574 . S
C454 C470 1.368 . S
H455 C463 0.950 . S
H456 C461 0.950 . S
H457 C462 0.949 . S
H458 C464 0.950 . S
H459 C465 0.950 . S
H460 C466 0.949 . S
C461 H456 0.950 . S
C461 C463 1.327 . S
C461 C467 1.429 . S
C462 C454 1.574 . S
C462 H457 0.949 . S
C462 C468 1.368 . S
C463 C447 1.349 . S
C463 H455 0.950 . S
C463 C461 1.327 . S
C464 C452 1.349 . S
C464 H458 0.950 . S
C464 C465 1.327 . S
C465 H459 0.950 . S
C465 C464 1.327 . S
C465 C469 1.429 . S
C466 C449 1.574 . S
C466 H460 0.949 . S
C466 C470 1.368 . S
C467 C448 1.429 . S
C467 C461 1.429 . S
C467 C468 1.523 . S
C468 C449 1.368 . S
C468 C462 1.368 . S
C468 C467 1.523 . S
C469 C453 1.429 . S
C469 C465 1.429 . S
C469 C470 1.523 . S
C470 C454 1.368 . S
C470 C466 1.368 . S
C470 C469 1.523 . S
H471 C446 0.950 . S
H472 C448 0.950 . S
H473 C449 0.949 . S
H474 C451 0.950 . S
H475 C453 0.950 . S
C476 C477 1.349 . S
C476 C478 1.327 . S
C476 H501 0.950 . S
C477 C476 1.349 . S
C477 C493 1.349 . S
C478 C476 1.327 . S
C478 C497 1.429 . S
C478 H502 0.950 . S
C479 C496 1.574 . S
C479 C498 1.368 . S
C479 H503 0.949 . S
H480 C484 0.949 . S
C481 C482 1.349 . S
C481 C483 1.327 . S
C481 H504 0.950 . S
C482 C481 1.349 . S
C482 C494 1.349 . S
C483 C481 1.327 . S
C483 C499 1.429 . S
C483 H505 0.950 . S
C484 H480 0.949 . S
C484 C492 1.574 . S
C484 C500 1.368 . S
H485 C493 0.950 . S
H486 C491 0.950 . S
H487 C492 0.949 . S
H488 C494 0.950 . S
H489 C495 0.950 . S
H490 C496 0.949 . S
C491 H486 0.950 . S
C491 C493 1.327 . S
C491 C497 1.429 . S
C492 C484 1.574 . S
C492 H487 0.949 . S
C492 C498 1.368 . S
C493 C477 1.349 . S
C493 H485 0.950 . S
C493 C491 1.327 . S
C494 C482 1.349 . S
C494 H488 0.950 . S
C494 C495 1.327 . S
C495 H489 0.950 . S
C495 C494 1.327 . S
C495 C499 1.429 . S
C496 C479 1.574 . S
C496 H490 0.949 . S
C496 C500 1.368 . S
C497 C478 1.429 . S
C497 C491 1.429 . S
C497 C498 1.523 . S
C498 C479 1.368 . S
C498 C492 1.368 . S
C498 C497 1.523 . S
C499 C483 1.429 . S
C499 C495 1.429 . S
C499 C500 1.523 . S
C500 C484 1.368 . S
C500 C496 1.368 . S
C500 C499 1.523 . S
H501 C476 0.950 . S
H502 C478 0.950 . S
H503 C479 0.949 . S
H504 C481 0.950 . S
H505 C483 0.950 . S
C506 C507 1.349 . S
C506 C508 1.327 . S
C506 H531 0.950 . S
C507 C506 1.349 . S
C507 C523 1.349 . S
C508 C506 1.327 . S
C508 C527 1.429 . S
C508 H532 0.950 . S
C509 C526 1.574 . S
C509 C528 1.368 . S
C509 H533 0.949 . S
H510 C514 0.949 . S
C511 C512 1.349 . S
C511 C513 1.327 . S
C511 H534 0.950 . S
C512 C511 1.349 . S
C512 C524 1.349 . S
C513 C511 1.327 . S
C513 C529 1.429 . S
C513 H535 0.950 . S
C514 H510 0.949 . S
C514 C522 1.574 . S
C514 C530 1.368 . S
H515 C523 0.950 . S
H516 C521 0.950 . S
H517 C522 0.949 . S
H518 C524 0.950 . S
H519 C525 0.950 . S
H520 C526 0.949 . S
C521 H516 0.950 . S
C521 C523 1.327 . S
C521 C527 1.429 . S
C522 C514 1.574 . S
C522 H517 0.949 . S
C522 C528 1.368 . S
C523 C507 1.349 . S
C523 H515 0.950 . S
C523 C521 1.327 . S
C524 C512 1.349 . S
C524 H518 0.950 . S
C524 C525 1.327 . S
C525 H519 0.950 . S
C525 C524 1.327 . S
C525 C529 1.429 . S
C526 C509 1.574 . S
C526 H520 0.949 . S
C526 C530 1.368 . S
C527 C508 1.429 . S
C527 C521 1.429 . S
C527 C528 1.523 . S
C528 C509 1.368 . S
C528 C522 1.368 . S
C528 C527 1.523 . S
C529 C513 1.429 . S
C529 C525 1.429 . S
C529 C530 1.523 . S
C530 C514 1.368 . S
C530 C526 1.368 . S
C530 C529 1.523 . S
H531 C506 0.950 . S
H532 C508 0.950 . S
H533 C509 0.949 . S
H534 C511 0.950 . S
H535 C513 0.950 . S
C536 C537 1.349 . S
C536 C538 1.327 . S
C536 H561 0.950 . S
C537 C536 1.349 . S
C537 C553 1.349 . S
C538 C536 1.327 . S
C538 C557 1.429 . S
C538 H562 0.950 . S
C539 C556 1.574 . S
C539 C558 1.368 . S
C539 H563 0.949 . S
H540 C544 0.949 . S
C541 C542 1.349 . S
C541 C543 1.327 . S
C541 H564 0.950 . S
C542 C541 1.349 . S
C542 C554 1.349 . S
C543 C541 1.327 . S
C543 C559 1.429 . S
C543 H565 0.950 . S
C544 H540 0.949 . S
C544 C552 1.574 . S
C544 C560 1.368 . S
H545 C553 0.950 . S
H546 C551 0.950 . S
H547 C552 0.949 . S
H548 C554 0.950 . S
H549 C555 0.950 . S
H550 C556 0.949 . S
C551 H546 0.950 . S
C551 C553 1.327 . S
C551 C557 1.429 . S
C552 C544 1.574 . S
C552 H547 0.949 . S
C552 C558 1.368 . S
C553 C537 1.349 . S
C553 H545 0.950 . S
C553 C551 1.327 . S
C554 C542 1.349 . S
C554 H548 0.950 . S
C554 C555 1.327 . S
C555 H549 0.950 . S
C555 C554 1.327 . S
C555 C559 1.429 . S
C556 C539 1.574 . S
C556 H550 0.949 . S
C556 C560 1.368 . S
C557 C538 1.429 . S
C557 C551 1.429 . S
C557 C558 1.523 . S
C558 C539 1.368 . S
C558 C552 1.368 . S
C558 C557 1.523 . S
C559 C543 1.429 . S
C559 C555 1.429 . S
C559 C560 1.523 . S
C560 C544 1.368 . S
C560 C556 1.368 . S
C560 C559 1.523 . S
H561 C536 0.950 . S
H562 C538 0.950 . S
H563 C539 0.949 . S
H564 C541 0.950 . S
H565 C543 0.950 . S
C566 C567 1.349 . S
C566 C568 1.327 . S
C566 H591 0.950 . S
C567 C566 1.349 . S
C567 C583 1.349 . S
C568 C566 1.327 . S
C568 C587 1.429 . S
C568 H592 0.950 . S
C569 C586 1.574 . S
C569 C588 1.368 . S
C569 H593 0.949 . S
H570 C574 0.949 . S
C571 C572 1.349 . S
C571 C573 1.327 . S
C571 H594 0.950 . S
C572 C571 1.349 . S
C572 C584 1.349 . S
C573 C571 1.327 . S
C573 C589 1.429 . S
C573 H595 0.950 . S
C574 H570 0.949 . S
C574 C582 1.574 . S
C574 C590 1.368 . S
H575 C583 0.950 . S
H576 C581 0.950 . S
H577 C582 0.949 . S
H578 C584 0.950 . S
H579 C585 0.950 . S
H580 C586 0.949 . S
C581 H576 0.950 . S
C581 C583 1.327 . S
C581 C587 1.429 . S
C582 C574 1.574 . S
C582 H577 0.949 . S
C582 C588 1.368 . S
C583 C567 1.349 . S
C583 H575 0.950 . S
C583 C581 1.327 . S
C584 C572 1.349 . S
C584 H578 0.950 . S
C584 C585 1.327 . S
C585 H579 0.950 . S
C585 C584 1.327 . S
C585 C589 1.429 . S
C586 C569 1.574 . S
C586 H580 0.949 . S
C586 C590 1.368 . S
C587 C568 1.429 . S
C587 C581 1.429 . S
C587 C588 1.523 . S
C588 C569 1.368 . S
C588 C582 1.368 . S
C588 C587 1.523 . S
C589 C573 1.429 . S
C589 C585 1.429 . S
C589 C590 1.523 . S
C590 C574 1.368 . S
C590 C586 1.368 . S
C590 C589 1.523 . S
H591 C566 0.950 . S
H592 C568 0.950 . S
H593 C569 0.949 . S
H594 C571 0.950 . S
H595 C573 0.950 . S
C596 C597 1.349 . S
C596 C598 1.327 . S
C596 H621 0.950 . S
C597 C596 1.349 . S
C597 C613 1.349 . S
C598 C596 1.327 . S
C598 C617 1.429 . S
C598 H622 0.950 . S
C599 C616 1.574 . S
C599 C618 1.368 . S
C599 H623 0.949 . S
H600 C604 0.949 . S
C601 C602 1.349 . S
C601 C603 1.327 . S
C601 H624 0.950 . S
C602 C601 1.349 . S
C602 C614 1.349 . S
C603 C601 1.327 . S
C603 C619 1.429 . S
C603 H625 0.950 . S
C604 H600 0.949 . S
C604 C612 1.574 . S
C604 C620 1.368 . S
H605 C613 0.950 . S
H606 C611 0.950 . S
H607 C612 0.949 . S
H608 C614 0.950 . S
H609 C615 0.950 . S
H610 C616 0.949 . S
C611 H606 0.950 . S
C611 C613 1.327 . S
C611 C617 1.429 . S
C612 C604 1.574 . S
C612 H607 0.949 . S
C612 C618 1.368 . S
C613 C597 1.349 . S
C613 H605 0.950 . S
C613 C611 1.327 . S
C614 C602 1.349 . S
C614 H608 0.950 . S
C614 C615 1.327 . S
C615 H609 0.950 . S
C615 C614 1.327 . S
C615 C619 1.429 . S
C616 C599 1.574 . S
C616 H610 0.949 . S
C616 C620 1.368 . S
C617 C598 1.429 . S
C617 C611 1.429 . S
C617 C618 1.523 . S
C618 C599 1.368 . S
C618 C612 1.368 . S
C618 C617 1.523 . S
C619 C603 1.429 . S
C619 C615 1.429 . S
C619 C620 1.523 . S
C620 C604 1.368 . S
C620 C616 1.368 . S
C620 C619 1.523 . S
H621 C596 0.950 . S
H622 C598 0.950 . S
H623 C599 0.949 . S
H624 C601 0.950 . S
H625 C603 0.950 . S
C626 C627 1.349 . S
C626 C628 1.327 . S
C626 H651 0.950 . S
C627 C626 1.349 . S
C627 C643 1.349 . S
C628 C626 1.327 . S
C628 C647 1.429 . S
C628 H652 0.950 . S
C629 C646 1.574 . S
C629 C648 1.368 . S
C629 H653 0.949 . S
H630 C634 0.949 . S
C631 C632 1.349 . S
C631 C633 1.327 . S
C631 H654 0.950 . S
C632 C631 1.349 . S
C632 C644 1.349 . S
C633 C631 1.327 . S
C633 C649 1.429 . S
C633 H655 0.950 . S
C634 H630 0.949 . S
C634 C642 1.574 . S
C634 C650 1.368 . S
H635 C643 0.950 . S
H636 C641 0.950 . S
H637 C642 0.949 . S
H638 C644 0.950 . S
H639 C645 0.950 . S
H640 C646 0.949 . S
C641 H636 0.950 . S
C641 C643 1.327 . S
C641 C647 1.429 . S
C642 C634 1.574 . S
C642 H637 0.949 . S
C642 C648 1.368 . S
C643 C627 1.349 . S
C643 H635 0.950 . S
C643 C641 1.327 . S
C644 C632 1.349 . S
C644 H638 0.950 . S
C644 C645 1.327 . S
C645 H639 0.950 . S
C645 C644 1.327 . S
C645 C649 1.429 . S
C646 C629 1.574 . S
C646 H640 0.949 . S
C646 C650 1.368 . S
C647 C628 1.429 . S
C647 C641 1.429 . S
C647 C648 1.523 . S
C648 C629 1.368 . S
C648 C642 1.368 . S
C648 C647 1.523 . S
C649 C633 1.429 . S
C649 C645 1.429 . S
C649 C650 1.523 . S
C650 C634 1.368 . S
C650 C646 1.368 . S
C650 C649 1.523 . S
H651 C626 0.950 . S
H652 C628 0.950 . S
H653 C629 0.949 . S
H654 C631 0.950 . S
H655 C633 0.950 . S
C656 C657 1.349 . S
C656 C658 1.327 . S
C656 H681 0.950 . S
C657 C656 1.349 . S
C657 C673 1.349 . S
C658 C656 1.327 . S
C658 C677 1.429 . S
C658 H682 0.950 . S
C659 C676 1.574 . S
C659 C678 1.368 . S
C659 H683 0.949 . S
H660 C664 0.949 . S
C661 C662 1.349 . S
C661 C663 1.327 . S
C661 H684 0.950 . S
C662 C661 1.349 . S
C662 C674 1.349 . S
C663 C661 1.327 . S
C663 C679 1.429 . S
C663 H685 0.950 . S
C664 H660 0.949 . S
C664 C672 1.574 . S
C664 C680 1.368 . S
H665 C673 0.950 . S
H666 C671 0.950 . S
H667 C672 0.949 . S
H668 C674 0.950 . S
H669 C675 0.950 . S
H670 C676 0.949 . S
C671 H666 0.950 . S
C671 C673 1.327 . S
C671 C677 1.429 . S
C672 C664 1.574 . S
C672 H667 0.949 . S
C672 C678 1.368 . S
C673 C657 1.349 . S
C673 H665 0.950 . S
C673 C671 1.327 . S
C674 C662 1.349 . S
C674 H668 0.950 . S
C674 C675 1.327 . S
C675 H669 0.950 . S
C675 C674 1.327 . S
C675 C679 1.429 . S
C676 C659 1.574 . S
C676 H670 0.949 . S
C676 C680 1.368 . S
C677 C658 1.429 . S
C677 C671 1.429 . S
C677 C678 1.523 . S
C678 C659 1.368 . S
C678 C672 1.368 . S
C678 C677 1.523 . S
C679 C663 1.429 . S
C679 C675 1.429 . S
C679 C680 1.523 . S
C680 C664 1.368 . S
C680 C676 1.368 . S
C680 C679 1.523 . S
H681 C656 0.950 . S
H682 C658 0.950 . S
H683 C659 0.949 . S
H684 C661 0.950 . S
H685 C663 0.950 . S
C686 C687 1.349 . S
C686 C688 1.327 . S
C686 H711 0.950 . S
C687 C686 1.349 . S
C687 C703 1.349 . S
C688 C686 1.327 . S
C688 C707 1.429 . S
C688 H712 0.950 . S
C689 C706 1.574 . S
C689 C708 1.368 . S
C689 H713 0.949 . S
H690 C694 0.949 . S
C691 C692 1.349 . S
C691 C693 1.327 . S
C691 H714 0.950 . S
C692 C691 1.349 . S
C692 C704 1.349 . S
C693 C691 1.327 . S
C693 C709 1.429 . S
C693 H715 0.950 . S
C694 H690 0.949 . S
C694 C702 1.574 . S
C694 C710 1.368 . S
H695 C703 0.950 . S
H696 C701 0.950 . S
H697 C702 0.949 . S
H698 C704 0.950 . S
H699 C705 0.950 . S
H700 C706 0.949 . S
C701 H696 0.950 . S
C701 C703 1.327 . S
C701 C707 1.429 . S
C702 C694 1.574 . S
C702 H697 0.949 . S
C702 C708 1.368 . S
C703 C687 1.349 . S
C703 H695 0.950 . S
C703 C701 1.327 . S
C704 C692 1.349 . S
C704 H698 0.950 . S
C704 C705 1.327 . S
C705 H699 0.950 . S
C705 C704 1.327 . S
C705 C709 1.429 . S
C706 C689 1.574 . S
C706 H700 0.949 . S
C706 C710 1.368 . S
C707 C688 1.429 . S
C707 C701 1.429 . S
C707 C708 1.523 . S
C708 C689 1.368 . S
C708 C702 1.368 . S
C708 C707 1.523 . S
C709 C693 1.429 . S
C709 C705 1.429 . S
C709 C710 1.523 . S
C710 C694 1.368 . S
C710 C706 1.368 . S
C710 C709 1.523 . S
H711 C686 0.950 . S
H712 C688 0.950 . S
H713 C689 0.949 . S
H714 C691 0.950 . S
H715 C693 0.950 . S
C716 C717 1.349 . S
C716 C718 1.327 . S
C716 H741 0.950 . S
C717 C716 1.349 . S
C717 C733 1.349 . S
C718 C716 1.327 . S
C718 C737 1.429 . S
C718 H742 0.950 . S
C719 C736 1.574 . S
C719 C738 1.368 . S
C719 H743 0.949 . S
H720 C724 0.949 . S
C721 C722 1.349 . S
C721 C723 1.327 . S
C721 H744 0.950 . S
C722 C721 1.349 . S
C722 C734 1.349 . S
C723 C721 1.327 . S
C723 C739 1.429 . S
C723 H745 0.950 . S
C724 H720 0.949 . S
C724 C732 1.574 . S
C724 C740 1.368 . S
H725 C733 0.950 . S
H726 C731 0.950 . S
H727 C732 0.949 . S
H728 C734 0.950 . S
H729 C735 0.950 . S
H730 C736 0.949 . S
C731 H726 0.950 . S
C731 C733 1.327 . S
C731 C737 1.429 . S
C732 C724 1.574 . S
C732 H727 0.949 . S
C732 C738 1.368 . S
C733 C717 1.349 . S
C733 H725 0.950 . S
C733 C731 1.327 . S
C734 C722 1.349 . S
C734 H728 0.950 . S
C734 C735 1.327 . S
C735 H729 0.950 . S
C735 C734 1.327 . S
C735 C739 1.429 . S
C736 C719 1.574 . S
C736 H730 0.949 . S
C736 C740 1.368 . S
C737 C718 1.429 . S
C737 C731 1.429 . S
C737 C738 1.523 . S
C738 C719 1.368 . S
C738 C732 1.368 . S
C738 C737 1.523 . S
C739 C723 1.429 . S
C739 C735 1.429 . S
C739 C740 1.523 . S
C740 C724 1.368 . S
C740 C736 1.368 . S
C740 C739 1.523 . S
H741 C716 0.950 . S
H742 C718 0.950 . S
H743 C719 0.949 . S
H744 C721 0.950 . S
H745 C723 0.950 . S
C746 C747 1.349 . S
C746 C748 1.327 . S
C746 H771 0.950 . S
C747 C746 1.349 . S
C747 C763 1.349 . S
C748 C746 1.327 . S
C748 C767 1.429 . S
C748 H772 0.950 . S
C749 C766 1.574 . S
C749 C768 1.368 . S
C749 H773 0.949 . S
H750 C754 0.949 . S
C751 C752 1.349 . S
C751 C753 1.327 . S
C751 H774 0.950 . S
C752 C751 1.349 . S
C752 C764 1.349 . S
C753 C751 1.327 . S
C753 C769 1.429 . S
C753 H775 0.950 . S
C754 H750 0.949 . S
C754 C762 1.574 . S
C754 C770 1.368 . S
H755 C763 0.950 . S
H756 C761 0.950 . S
H757 C762 0.949 . S
H758 C764 0.950 . S
H759 C765 0.950 . S
H760 C766 0.949 . S
C761 H756 0.950 . S
C761 C763 1.327 . S
C761 C767 1.429 . S
C762 C754 1.574 . S
C762 H757 0.949 . S
C762 C768 1.368 . S
C763 C747 1.349 . S
C763 H755 0.950 . S
C763 C761 1.327 . S
C764 C752 1.349 . S
C764 H758 0.950 . S
C764 C765 1.327 . S
C765 H759 0.950 . S
C765 C764 1.327 . S
C765 C769 1.429 . S
C766 C749 1.574 . S
C766 H760 0.949 . S
C766 C770 1.368 . S
C767 C748 1.429 . S
C767 C761 1.429 . S
C767 C768 1.523 . S
C768 C749 1.368 . S
C768 C762 1.368 . S
C768 C767 1.523 . S
C769 C753 1.429 . S
C769 C765 1.429 . S
C769 C770 1.523 . S
C770 C754 1.368 . S
C770 C766 1.368 . S
C770 C769 1.523 . S
H771 C746 0.950 . S
H772 C748 0.950 . S
H773 C749 0.949 . S
H774 C751 0.950 . S
H775 C753 0.950 . S
C776 C777 1.349 . S
C776 C778 1.327 . S
C776 H801 0.950 . S
C777 C776 1.349 . S
C777 C793 1.349 . S
C778 C776 1.327 . S
C778 C797 1.429 . S
C778 H802 0.950 . S
C779 C796 1.574 . S
C779 C798 1.368 . S
C779 H803 0.949 . S
H780 C784 0.949 . S
C781 C782 1.349 . S
C781 C783 1.327 . S
C781 H804 0.950 . S
C782 C781 1.349 . S
C782 C794 1.349 . S
C783 C781 1.327 . S
C783 C799 1.429 . S
C783 H805 0.950 . S
C784 H780 0.949 . S
C784 C792 1.574 . S
C784 C800 1.368 . S
H785 C793 0.950 . S
H786 C791 0.950 . S
H787 C792 0.949 . S
H788 C794 0.950 . S
H789 C795 0.950 . S
H790 C796 0.949 . S
C791 H786 0.950 . S
C791 C793 1.327 . S
C791 C797 1.429 . S
C792 C784 1.574 . S
C792 H787 0.949 . S
C792 C798 1.368 . S
C793 C777 1.349 . S
C793 H785 0.950 . S
C793 C791 1.327 . S
C794 C782 1.349 . S
C794 H788 0.950 . S
C794 C795 1.327 . S
C795 H789 0.950 . S
C795 C794 1.327 . S
C795 C799 1.429 . S
C796 C779 1.574 . S
C796 H790 0.949 . S
C796 C800 1.368 . S
C797 C778 1.429 . S
C797 C791 1.429 . S
C797 C798 1.523 . S
C798 C779 1.368 . S
C798 C792 1.368 . S
C798 C797 1.523 . S
C799 C783 1.429 . S
C799 C795 1.429 . S
C799 C800 1.523 . S
C800 C784 1.368 . S
C800 C796 1.368 . S
C800 C799 1.523 . S
H801 C776 0.950 . S
H802 C778 0.950 . S
H803 C779 0.949 . S
H804 C781 0.950 . S
H805 C783 0.950 . S
C806 C807 1.349 . S
C806 C808 1.327 . S
C806 H831 0.950 . S
C807 C806 1.349 . S
C807 C823 1.349 . S
C808 C806 1.327 . S
C808 C827 1.429 . S
C808 H832 0.950 . S
C809 C826 1.574 . S
C809 C828 1.368 . S
C809 H833 0.949 . S
H810 C814 0.949 . S
C811 C812 1.349 . S
C811 C813 1.327 . S
C811 H834 0.950 . S
C812 C811 1.349 . S
C812 C824 1.349 . S
C813 C811 1.327 . S
C813 C829 1.429 . S
C813 H835 0.950 . S
C814 H810 0.949 . S
C814 C822 1.574 . S
C814 C830 1.368 . S
H815 C823 0.950 . S
H816 C821 0.950 . S
H817 C822 0.949 . S
H818 C824 0.950 . S
H819 C825 0.950 . S
H820 C826 0.949 . S
C821 H816 0.950 . S
C821 C823 1.327 . S
C821 C827 1.429 . S
C822 C814 1.574 . S
C822 H817 0.949 . S
C822 C828 1.368 . S
C823 C807 1.349 . S
C823 H815 0.950 . S
C823 C821 1.327 . S
C824 C812 1.349 . S
C824 H818 0.950 . S
C824 C825 1.327 . S
C825 H819 0.950 . S
C825 C824 1.327 . S
C825 C829 1.429 . S
C826 C809 1.574 . S
C826 H820 0.949 . S
C826 C830 1.368 . S
C827 C808 1.429 . S
C827 C821 1.429 . S
C827 C828 1.523 . S
C828 C809 1.368 . S
C828 C822 1.368 . S
C828 C827 1.523 . S
C829 C813 1.429 . S
C829 C825 1.429 . S
C829 C830 1.523 . S
C830 C814 1.368 . S
C830 C826 1.368 . S
C830 C829 1.523 . S
H831 C806 0.950 . S
H832 C808 0.950 . S
H833 C809 0.949 . S
H834 C811 0.950 . S
H835 C813 0.950 . S
C836 C837 1.349 . S
C836 C838 1.327 . S
C836 H861 0.950 . S
C837 C836 1.349 . S
C837 C853 1.349 . S
C838 C836 1.327 . S
C838 C857 1.429 . S
C838 H862 0.950 . S
C839 C856 1.574 . S
C839 C858 1.368 . S
C839 H863 0.949 . S
H840 C844 0.949 . S
C841 C842 1.349 . S
C841 C843 1.327 . S
C841 H864 0.950 . S
C842 C841 1.349 . S
C842 C854 1.349 . S
C843 C841 1.327 . S
C843 C859 1.429 . S
C843 H865 0.950 . S
C844 H840 0.949 . S
C844 C852 1.574 . S
C844 C860 1.368 . S
H845 C853 0.950 . S
H846 C851 0.950 . S
H847 C852 0.949 . S
H848 C854 0.950 . S
H849 C855 0.950 . S
H850 C856 0.949 . S
C851 H846 0.950 . S
C851 C853 1.327 . S
C851 C857 1.429 . S
C852 C844 1.574 . S
C852 H847 0.949 . S
C852 C858 1.368 . S
C853 C837 1.349 . S
C853 H845 0.950 . S
C853 C851 1.327 . S
C854 C842 1.349 . S
C854 H848 0.950 . S
C854 C855 1.327 . S
C855 H849 0.950 . S
C855 C854 1.327 . S
C855 C859 1.429 . S
C856 C839 1.574 . S
C856 H850 0.949 . S
C856 C860 1.368 . S
C857 C838 1.429 . S
C857 C851 1.429 . S
C857 C858 1.523 . S
C858 C839 1.368 . S
C858 C852 1.368 . S
C858 C857 1.523 . S
C859 C843 1.429 . S
C859 C855 1.429 . S
C859 C860 1.523 . S
C860 C844 1.368 . S
C860 C856 1.368 . S
C860 C859 1.523 . S
H861 C836 0.950 . S
H862 C838 0.950 . S
H863 C839 0.949 . S
H864 C841 0.950 . S
H865 C843 0.950 . S
C866 C867 1.349 . S
C866 C868 1.327 . S
C866 H891 0.950 . S
C867 C866 1.349 . S
C867 C883 1.349 . S
C868 C866 1.327 . S
C868 C887 1.429 . S
C868 H892 0.950 . S
C869 C886 1.574 . S
C869 C888 1.368 . S
C869 H893 0.949 . S
H870 C874 0.949 . S
C871 C872 1.349 . S
C871 C873 1.327 . S
C871 H894 0.950 . S
C872 C871 1.349 . S
C872 C884 1.349 . S
C873 C871 1.327 . S
C873 C889 1.429 . S
C873 H895 0.950 . S
C874 H870 0.949 . S
C874 C882 1.574 . S
C874 C890 1.368 . S
H875 C883 0.950 . S
H876 C881 0.950 . S
H877 C882 0.949 . S
H878 C884 0.950 . S
H879 C885 0.950 . S
H880 C886 0.949 . S
C881 H876 0.950 . S
C881 C883 1.327 . S
C881 C887 1.429 . S
C882 C874 1.574 . S
C882 H877 0.949 . S
C882 C888 1.368 . S
C883 C867 1.349 . S
C883 H875 0.950 . S
C883 C881 1.327 . S
C884 C872 1.349 . S
C884 H878 0.950 . S
C884 C885 1.327 . S
C885 H879 0.950 . S
C885 C884 1.327 . S
C885 C889 1.429 . S
C886 C869 1.574 . S
C886 H880 0.949 . S
C886 C890 1.368 . S
C887 C868 1.429 . S
C887 C881 1.429 . S
C887 C888 1.523 . S
C888 C869 1.368 . S
C888 C882 1.368 . S
C888 C887 1.523 . S
C889 C873 1.429 . S
C889 C885 1.429 . S
C889 C890 1.523 . S
C890 C874 1.368 . S
C890 C886 1.368 . S
C890 C889 1.523 . S
H891 C866 0.950 . S
H892 C868 0.950 . S
H893 C869 0.949 . S
H894 C871 0.950 . S
H895 C873 0.950 . S
C896 C897 1.349 . S
C896 C898 1.327 . S
C896 H921 0.950 . S
C897 C896 1.349 . S
C897 C913 1.349 . S
C898 C896 1.327 . S
C898 C917 1.429 . S
C898 H922 0.950 . S
C899 C916 1.574 . S
C899 C918 1.368 . S
C899 H923 0.949 . S
H900 C904 0.949 . S
C901 C902 1.349 . S
C901 C903 1.327 . S
C901 H924 0.950 . S
C902 C901 1.349 . S
C902 C914 1.349 . S
C903 C901 1.327 . S
C903 C919 1.429 . S
C903 H925 0.950 . S
C904 H900 0.949 . S
C904 C912 1.574 . S
C904 C920 1.368 . S
H905 C913 0.950 . S
H906 C911 0.950 . S
H907 C912 0.949 . S
H908 C914 0.950 . S
H909 C915 0.950 . S
H910 C916 0.949 . S
C911 H906 0.950 . S
C911 C913 1.327 . S
C911 C917 1.429 . S
C912 C904 1.574 . S
C912 H907 0.949 . S
C912 C918 1.368 . S
C913 C897 1.349 . S
C913 H905 0.950 . S
C913 C911 1.327 . S
C914 C902 1.349 . S
C914 H908 0.950 . S
C914 C915 1.327 . S
C915 H909 0.950 . S
C915 C914 1.327 . S
C915 C919 1.429 . S
C916 C899 1.574 . S
C916 H910 0.949 . S
C916 C920 1.368 . S
C917 C898 1.429 . S
C917 C911 1.429 . S
C917 C918 1.523 . S
C918 C899 1.368 . S
C918 C912 1.368 . S
C918 C917 1.523 . S
C919 C903 1.429 . S
C919 C915 1.429 . S
C919 C920 1.523 . S
C920 C904 1.368 . S
C920 C916 1.368 . S
C920 C919 1.523 . S
H921 C896 0.950 . S
H922 C898 0.950 . S
H923 C899 0.949 . S
H924 C901 0.950 . S
H925 C903 0.950 . S
C926 C927 1.349 . S
C926 C928 1.327 1_455 S
C926 H951 0.950 . S
C927 C926 1.349 . S
C927 C943 1.337 1_455 S
C928 C926 1.327 1_655 S
C928 C947 1.429 . S
C928 H952 0.950 . S
C929 C946 1.574 . S
C929 C948 1.368 . S
C929 H953 0.949 . S
H930 C934 0.949 . S
C931 C932 1.349 . S
C931 C933 1.327 . S
C931 H954 0.950 . S
C932 C931 1.349 . S
C932 C944 1.349 . S
C933 C931 1.327 . S
C933 C949 1.429 . S
C933 H955 0.950 . S
C934 H930 0.949 . S
C934 C942 1.574 . S
C934 C950 1.368 . S
H935 C943 0.946 1_455 S
H936 C941 0.950 . S
H937 C942 0.949 . S
H938 C944 0.950 . S
H939 C945 0.950 . S
H940 C946 0.949 . S
C941 H936 0.950 . S
C941 C943 1.343 . S
C941 C947 1.429 . S
C942 C934 1.574 . S
C942 H937 0.949 . S
C942 C948 1.368 . S
C943 C927 1.337 1_655 S
C943 H935 0.946 1_655 S
C943 C941 1.343 . S
C944 C932 1.349 . S
C944 H938 0.950 . S
C944 C945 1.327 . S
C945 H939 0.950 . S
C945 C944 1.327 . S
C945 C949 1.429 . S
C946 C929 1.574 . S
C946 H940 0.949 . S
C946 C950 1.368 . S
C947 C928 1.429 . S
C947 C941 1.429 . S
C947 C948 1.523 . S
C948 C929 1.368 . S
C948 C942 1.368 . S
C948 C947 1.523 . S
C949 C933 1.429 . S
C949 C945 1.429 . S
C949 C950 1.523 . S
C950 C934 1.368 . S
C950 C946 1.368 . S
C950 C949 1.523 . S
H951 C926 0.950 . S
H952 C928 0.950 . S
H953 C929 0.949 . S
H954 C931 0.950 . S
H955 C933 0.950 . S
C956 C957 1.349 . S
C956 C958 1.327 . S
C956 H981 0.950 . S
C957 C956 1.349 . S
C957 C973 1.349 . S
C958 C956 1.327 . S
C958 C977 1.429 . S
C958 H982 0.950 . S
C959 C976 1.574 . S
C959 C978 1.368 . S
C959 H983 0.949 . S
H960 C964 0.949 . S
C961 C962 1.349 . S
C961 C963 1.327 . S
C961 H984 0.950 . S
C962 C961 1.349 . S
C962 C974 1.349 . S
C963 C961 1.327 . S
C963 C979 1.429 . S
C963 H985 0.950 . S
C964 H960 0.949 . S
C964 C972 1.574 . S
C964 C980 1.368 . S
H965 C973 0.950 . S
H966 C971 0.950 . S
H967 C972 0.949 . S
H968 C974 0.950 . S
H969 C975 0.950 . S
H970 C976 0.949 . S
C971 H966 0.950 . S
C971 C973 1.327 . S
C971 C977 1.429 . S
C972 C964 1.574 . S
C972 H967 0.949 . S
C972 C978 1.368 . S
C973 C957 1.349 . S
C973 H965 0.950 . S
C973 C971 1.327 . S
C974 C962 1.349 . S
C974 H968 0.950 . S
C974 C975 1.327 . S
C975 H969 0.950 . S
C975 C974 1.327 . S
C975 C979 1.429 . S
C976 C959 1.574 . S
C976 H970 0.949 . S
C976 C980 1.368 . S
C977 C958 1.429 . S
C977 C971 1.429 . S
C977 C978 1.523 . S
C978 C959 1.368 . S
C978 C972 1.368 . S
C978 C977 1.523 . S
C979 C963 1.429 . S
C979 C975 1.429 . S
C979 C980 1.523 . S
C980 C964 1.368 . S
C980 C976 1.368 . S
C980 C979 1.523 . S
H981 C956 0.950 . S
H982 C958 0.950 . S
H983 C959 0.949 . S
H984 C961 0.950 . S
H985 C963 0.950 . S
C986 C987 1.349 . S
C986 C988 1.327 . S
C986 H1011 0.950 . S
C987 C986 1.349 . S
C987 C1003 1.349 . S
C988 C986 1.327 . S
C988 C1007 1.429 . S
C988 H1012 0.950 . S
C989 C1006 1.574 . S
C989 C1008 1.368 . S
C989 H1013 0.949 . S
H990 C994 0.949 . S
C991 C992 1.337 1_655 S
C991 C993 1.343 . S
C991 H1014 0.946 1_655 S
C992 C991 1.337 1_455 S
C992 C1004 1.349 . S
C993 C991 1.343 . S
C993 C1009 1.429 . S
C993 H1015 0.950 . S
C994 H990 0.949 . S
C994 C1002 1.574 . S
C994 C1010 1.368 . S
H995 C1003 0.950 . S
H996 C1001 0.950 . S
H997 C1002 0.949 . S
H998 C1004 0.950 . S
H999 C1005 0.950 . S
H1000 C1006 0.949 . S
C1001 H996 0.950 . S
C1001 C1003 1.327 . S
C1001 C1007 1.429 . S
C1002 C994 1.574 . S
C1002 H997 0.949 . S
C1002 C1008 1.368 . S
C1003 C987 1.349 . S
C1003 H995 0.950 . S
C1003 C1001 1.327 . S
C1004 C992 1.349 . S
C1004 H998 0.950 . S
C1004 C1005 1.327 1_455 S
C1005 H999 0.950 . S
C1005 C1004 1.327 1_655 S
C1005 C1009 1.429 . S
C1006 C989 1.574 . S
C1006 H1000 0.949 . S
C1006 C1010 1.368 . S
C1007 C988 1.429 . S
C1007 C1001 1.429 . S
C1007 C1008 1.523 . S
C1008 C989 1.368 . S
C1008 C1002 1.368 . S
C1008 C1007 1.523 . S
C1009 C993 1.429 . S
C1009 C1005 1.429 . S
C1009 C1010 1.523 . S
C1010 C994 1.368 . S
C1010 C1006 1.368 . S
C1010 C1009 1.523 . S
H1011 C986 0.950 . S
H1012 C988 0.950 . S
H1013 C989 0.949 . S
H1014 C991 0.946 1_455 S
H1015 C993 0.950 . S
C1016 C1017 1.349 . S
C1016 C1018 1.327 . S
C1016 H1041 0.950 . S
C1017 C1016 1.349 . S
C1017 C1033 1.349 . S
C1018 C1016 1.327 . S
C1018 C1037 1.429 . S
C1018 H1042 0.950 . S
C1019 C1036 1.574 . S
C1019 C1038 1.368 . S
C1019 H1043 0.949 . S
H1020 C1024 0.949 . S
C1021 C1022 1.349 . S
C1021 C1023 1.327 . S
C1021 H1044 0.950 . S
C1022 C1021 1.349 . S
C1022 C1034 1.349 . S
C1023 C1021 1.327 . S
C1023 C1039 1.429 . S
C1023 H1045 0.950 . S
C1024 H1020 0.949 . S
C1024 C1032 1.574 . S
C1024 C1040 1.368 . S
H1025 C1033 0.950 . S
H1026 C1031 0.950 . S
H1027 C1032 0.949 . S
H1028 C1034 0.950 . S
H1029 C1035 0.950 . S
H1030 C1036 0.949 . S
C1031 H1026 0.950 . S
C1031 C1033 1.327 . S
C1031 C1037 1.429 . S
C1032 C1024 1.574 . S
C1032 H1027 0.949 . S
C1032 C1038 1.368 . S
C1033 C1017 1.349 . S
C1033 H1025 0.950 . S
C1033 C1031 1.327 . S
C1034 C1022 1.349 . S
C1034 H1028 0.950 . S
C1034 C1035 1.327 . S
C1035 H1029 0.950 . S
C1035 C1034 1.327 . S
C1035 C1039 1.429 . S
C1036 C1019 1.574 . S
C1036 H1030 0.949 . S
C1036 C1040 1.368 . S
C1037 C1018 1.429 . S
C1037 C1031 1.429 . S
C1037 C1038 1.523 . S
C1038 C1019 1.368 . S
C1038 C1032 1.368 . S
C1038 C1037 1.523 . S
C1039 C1023 1.429 . S
C1039 C1035 1.429 . S
C1039 C1040 1.523 . S
C1040 C1024 1.368 . S
C1040 C1036 1.368 . S
C1040 C1039 1.523 . S
H1041 C1016 0.950 . S
H1042 C1018 0.950 . S
H1043 C1019 0.949 . S
H1044 C1021 0.950 . S
H1045 C1023 0.950 . S
C1046 C1047 1.337 1_455 S
C1046 C1048 1.343 . S
C1046 H1071 0.946 1_455 S
C1047 C1046 1.337 1_655 S
C1047 C1063 1.349 . S
C1048 C1046 1.343 . S
C1048 C1067 1.429 . S
C1048 H1072 0.950 . S
C1049 C1066 1.574 . S
C1049 C1068 1.368 . S
C1049 H1073 0.949 . S
H1050 C1054 0.949 . S
C1051 C1052 1.349 . S
C1051 C1053 1.327 . S
C1051 H1074 0.950 . S
C1052 C1051 1.349 . S
C1052 C1064 1.349 . S
C1053 C1051 1.327 . S
C1053 C1069 1.429 . S
C1053 H1075 0.950 . S
C1054 H1050 0.949 . S
C1054 C1062 1.574 . S
C1054 C1070 1.368 . S
H1055 C1063 0.950 . S
H1056 C1061 0.950 . S
H1057 C1062 0.949 . S
H1058 C1064 0.950 . S
H1059 C1065 0.950 . S
H1060 C1066 0.949 . S
C1061 H1056 0.950 . S
C1061 C1063 1.327 1_455 S
C1061 C1067 1.429 . S
C1062 C1054 1.574 . S
C1062 H1057 0.949 . S
C1062 C1068 1.368 . S
C1063 C1047 1.349 . S
C1063 H1055 0.950 . S
C1063 C1061 1.327 1_655 S
C1064 C1052 1.349 . S
C1064 H1058 0.950 . S
C1064 C1065 1.327 . S
C1065 H1059 0.950 . S
C1065 C1064 1.327 . S
C1065 C1069 1.429 . S
C1066 C1049 1.574 . S
C1066 H1060 0.949 . S
C1066 C1070 1.368 . S
C1067 C1048 1.429 . S
C1067 C1061 1.429 . S
C1067 C1068 1.523 . S
C1068 C1049 1.368 . S
C1068 C1062 1.368 . S
C1068 C1067 1.523 . S
C1069 C1053 1.429 . S
C1069 C1065 1.429 . S
C1069 C1070 1.523 . S
C1070 C1054 1.368 . S
C1070 C1066 1.368 . S
C1070 C1069 1.523 . S
H1071 C1046 0.946 1_655 S
H1072 C1048 0.950 . S
H1073 C1049 0.949 . S
H1074 C1051 0.950 . S
H1075 C1053 0.950 . S
C1076 C1077 1.349 . S
C1076 C1078 1.327 . S
C1076 H1101 0.950 . S
C1077 C1076 1.349 . S
C1077 C1093 1.349 . S
C1078 C1076 1.327 . S
C1078 C1097 1.429 . S
C1078 H1102 0.950 . S
C1079 C1096 1.574 . S
C1079 C1098 1.368 . S
C1079 H1103 0.949 . S
H1080 C1084 0.949 . S
C1081 C1082 1.349 . S
C1081 C1083 1.327 . S
C1081 H1104 0.950 . S
C1082 C1081 1.349 . S
C1082 C1094 1.349 . S
C1083 C1081 1.327 . S
C1083 C1099 1.429 . S
C1083 H1105 0.950 . S
C1084 H1080 0.949 . S
C1084 C1092 1.574 . S
C1084 C1100 1.368 . S
H1085 C1093 0.950 . S
H1086 C1091 0.950 . S
H1087 C1092 0.949 . S
H1088 C1094 0.950 . S
H1089 C1095 0.950 . S
H1090 C1096 0.949 . S
C1091 H1086 0.950 . S
C1091 C1093 1.327 . S
C1091 C1097 1.429 . S
C1092 C1084 1.574 . S
C1092 H1087 0.949 . S
C1092 C1098 1.368 . S
C1093 C1077 1.349 . S
C1093 H1085 0.950 . S
C1093 C1091 1.327 . S
C1094 C1082 1.349 . S
C1094 H1088 0.950 . S
C1094 C1095 1.327 . S
C1095 H1089 0.950 . S
C1095 C1094 1.327 . S
C1095 C1099 1.429 . S
C1096 C1079 1.574 . S
C1096 H1090 0.949 . S
C1096 C1100 1.368 . S
C1097 C1078 1.429 . S
C1097 C1091 1.429 . S
C1097 C1098 1.523 . S
C1098 C1079 1.368 . S
C1098 C1092 1.368 . S
C1098 C1097 1.523 . S
C1099 C1083 1.429 . S
C1099 C1095 1.429 . S
C1099 C1100 1.523 . S
C1100 C1084 1.368 . S
C1100 C1096 1.368 . S
C1100 C1099 1.523 . S
H1101 C1076 0.950 . S
H1102 C1078 0.950 . S
H1103 C1079 0.949 . S
H1104 C1081 0.950 . S
H1105 C1083 0.950 . S
C1106 C1107 1.349 . S
C1106 C1108 1.327 1_655 S
C1106 H1131 0.950 . S
C1107 C1106 1.349 . S
C1107 C1123 1.337 1_655 S
C1108 C1106 1.327 1_455 S
C1108 C1127 1.429 . S
C1108 H1132 0.950 . S
C1109 C1126 1.574 . S
C1109 C1128 1.368 . S
C1109 H1133 0.949 . S
H1110 C1114 0.949 . S
C1111 C1112 1.349 . S
C1111 C1113 1.327 . S
C1111 H1134 0.950 . S
C1112 C1111 1.349 . S
C1112 C1124 1.349 . S
C1113 C1111 1.327 . S
C1113 C1129 1.429 . S
C1113 H1135 0.950 . S
C1114 H1110 0.949 . S
C1114 C1122 1.574 . S
C1114 C1130 1.368 . S
H1115 C1123 0.946 1_655 S
H1116 C1121 0.950 . S
H1117 C1122 0.949 . S
H1118 C1124 0.950 . S
H1119 C1125 0.950 . S
H1120 C1126 0.949 . S
C1121 H1116 0.950 . S
C1121 C1123 1.343 . S
C1121 C1127 1.429 . S
C1122 C1114 1.574 . S
C1122 H1117 0.949 . S
C1122 C1128 1.368 . S
C1123 C1107 1.337 1_455 S
C1123 H1115 0.946 1_455 S
C1123 C1121 1.343 . S
C1124 C1112 1.349 . S
C1124 H1118 0.950 . S
C1124 C1125 1.327 . S
C1125 H1119 0.950 . S
C1125 C1124 1.327 . S
C1125 C1129 1.429 . S
C1126 C1109 1.574 . S
C1126 H1120 0.949 . S
C1126 C1130 1.368 . S
C1127 C1108 1.429 . S
C1127 C1121 1.429 . S
C1127 C1128 1.523 . S
C1128 C1109 1.368 . S
C1128 C1122 1.368 . S
C1128 C1127 1.523 . S
C1129 C1113 1.429 . S
C1129 C1125 1.429 . S
C1129 C1130 1.523 . S
C1130 C1114 1.368 . S
C1130 C1126 1.368 . S
C1130 C1129 1.523 . S
H1131 C1106 0.950 . S
H1132 C1108 0.950 . S
H1133 C1109 0.949 . S
H1134 C1111 0.950 . S
H1135 C1113 0.950 . S
C1136 C1137 1.349 . S
C1136 C1138 1.327 . S
C1136 H1161 0.950 . S
C1137 C1136 1.349 . S
C1137 C1153 1.349 . S
C1138 C1136 1.327 . S
C1138 C1157 1.429 . S
C1138 H1162 0.950 . S
C1139 C1156 1.574 . S
C1139 C1158 1.368 . S
C1139 H1163 0.949 . S
H1140 C1144 0.949 . S
C1141 C1142 1.349 . S
C1141 C1143 1.327 . S
C1141 H1164 0.950 . S
C1142 C1141 1.349 . S
C1142 C1154 1.349 . S
C1143 C1141 1.327 . S
C1143 C1159 1.429 . S
C1143 H1165 0.950 . S
C1144 H1140 0.949 . S
C1144 C1152 1.574 . S
C1144 C1160 1.368 . S
H1145 C1153 0.950 . S
H1146 C1151 0.950 . S
H1147 C1152 0.949 . S
H1148 C1154 0.950 . S
H1149 C1155 0.950 . S
H1150 C1156 0.949 . S
C1151 H1146 0.950 . S
C1151 C1153 1.327 . S
C1151 C1157 1.429 . S
C1152 C1144 1.574 . S
C1152 H1147 0.949 . S
C1152 C1158 1.368 . S
C1153 C1137 1.349 . S
C1153 H1145 0.950 . S
C1153 C1151 1.327 . S
C1154 C1142 1.349 . S
C1154 H1148 0.950 . S
C1154 C1155 1.327 . S
C1155 H1149 0.950 . S
C1155 C1154 1.327 . S
C1155 C1159 1.429 . S
C1156 C1139 1.574 . S
C1156 H1150 0.949 . S
C1156 C1160 1.368 . S
C1157 C1138 1.429 . S
C1157 C1151 1.429 . S
C1157 C1158 1.523 . S
C1158 C1139 1.368 . S
C1158 C1152 1.368 . S
C1158 C1157 1.523 . S
C1159 C1143 1.429 . S
C1159 C1155 1.429 . S
C1159 C1160 1.523 . S
C1160 C1144 1.368 . S
C1160 C1156 1.368 . S
C1160 C1159 1.523 . S
H1161 C1136 0.950 . S
H1162 C1138 0.950 . S
H1163 C1139 0.949 . S
H1164 C1141 0.950 . S
H1165 C1143 0.950 . S
C1166 C1167 1.349 . S
C1166 C1168 1.327 . S
C1166 H1191 0.950 . S
C1167 C1166 1.349 . S
C1167 C1183 1.349 . S
C1168 C1166 1.327 . S
C1168 C1187 1.429 . S
C1168 H1192 0.950 . S
C1169 C1186 1.574 . S
C1169 C1188 1.368 . S
C1169 H1193 0.949 . S
H1170 C1174 0.949 . S
C1171 C1172 1.349 . S
C1171 C1173 1.327 1_455 S
C1171 H1194 0.950 . S
C1172 C1171 1.349 . S
C1172 C1184 1.337 1_455 S
C1173 C1171 1.327 1_655 S
C1173 C1189 1.429 . S
C1173 H1195 0.950 . S
C1174 H1170 0.949 . S
C1174 C1182 1.574 . S
C1174 C1190 1.368 . S
H1175 C1183 0.950 . S
H1176 C1181 0.950 . S
H1177 C1182 0.949 . S
H1178 C1184 0.946 1_455 S
H1179 C1185 0.950 . S
H1180 C1186 0.949 . S
C1181 H1176 0.950 . S
C1181 C1183 1.327 . S
C1181 C1187 1.429 . S
C1182 C1174 1.574 . S
C1182 H1177 0.949 . S
C1182 C1188 1.368 . S
C1183 C1167 1.349 . S
C1183 H1175 0.950 . S
C1183 C1181 1.327 . S
C1184 C1172 1.337 1_655 S
C1184 H1178 0.946 1_655 S
C1184 C1185 1.343 . S
C1185 H1179 0.950 . S
C1185 C1184 1.343 . S
C1185 C1189 1.429 . S
C1186 C1169 1.574 . S
C1186 H1180 0.949 . S
C1186 C1190 1.368 . S
C1187 C1168 1.429 . S
C1187 C1181 1.429 . S
C1187 C1188 1.523 . S
C1188 C1169 1.368 . S
C1188 C1182 1.368 . S
C1188 C1187 1.523 . S
C1189 C1173 1.429 . S
C1189 C1185 1.429 . S
C1189 C1190 1.523 . S
C1190 C1174 1.368 . S
C1190 C1186 1.368 . S
C1190 C1189 1.523 . S
H1191 C1166 0.950 . S
H1192 C1168 0.950 . S
H1193 C1169 0.949 . S
H1194 C1171 0.950 . S
H1195 C1173 0.950 . S
C1196 C1197 1.349 . S
C1196 C1198 1.327 . S
C1196 H1221 0.950 . S
C1197 C1196 1.349 . S
C1197 C1213 1.349 . S
C1198 C1196 1.327 . S
C1198 C1217 1.429 . S
C1198 H1222 0.950 . S
C1199 C1216 1.574 . S
C1199 C1218 1.368 . S
C1199 H1223 0.949 . S
H1200 C1204 0.949 . S
C1201 C1202 1.349 . S
C1201 C1203 1.327 . S
C1201 H1224 0.950 . S
C1202 C1201 1.349 . S
C1202 C1214 1.349 . S
C1203 C1201 1.327 . S
C1203 C1219 1.429 . S
C1203 H1225 0.950 . S
C1204 H1200 0.949 . S
C1204 C1212 1.574 . S
C1204 C1220 1.368 . S
H1205 C1213 0.950 . S
H1206 C1211 0.950 . S
H1207 C1212 0.949 . S
H1208 C1214 0.950 . S
H1209 C1215 0.950 . S
H1210 C1216 0.949 . S
C1211 H1206 0.950 . S
C1211 C1213 1.327 . S
C1211 C1217 1.429 . S
C1212 C1204 1.574 . S
C1212 H1207 0.949 . S
C1212 C1218 1.368 . S
C1213 C1197 1.349 . S
C1213 H1205 0.950 . S
C1213 C1211 1.327 . S
C1214 C1202 1.349 . S
C1214 H1208 0.950 . S
C1214 C1215 1.327 . S
C1215 H1209 0.950 . S
C1215 C1214 1.327 . S
C1215 C1219 1.429 . S
C1216 C1199 1.574 . S
C1216 H1210 0.949 . S
C1216 C1220 1.368 . S
C1217 C1198 1.429 . S
C1217 C1211 1.429 . S
C1217 C1218 1.523 . S
C1218 C1199 1.368 . S
C1218 C1212 1.368 . S
C1218 C1217 1.523 . S
C1219 C1203 1.429 . S
C1219 C1215 1.429 . S
C1219 C1220 1.523 . S
C1220 C1204 1.368 . S
C1220 C1216 1.368 . S
C1220 C1219 1.523 . S
H1221 C1196 0.950 . S
H1222 C1198 0.950 . S
H1223 C1199 0.949 . S
H1224 C1201 0.950 . S
H1225 C1203 0.950 . S
C1226 C1227 1.349 . S
C1226 C1228 1.327 . S
C1226 H1251 0.950 . S
C1227 C1226 1.349 . S
C1227 C1243 1.349 . S
C1228 C1226 1.327 . S
C1228 C1247 1.429 . S
C1228 H1252 0.950 . S
C1229 C1246 1.574 . S
C1229 C1248 1.368 . S
C1229 H1253 0.949 . S
H1230 C1234 0.949 . S
C1231 C1232 1.337 1_655 S
C1231 C1233 1.343 . S
C1231 H1254 0.946 1_655 S
C1232 C1231 1.337 1_455 S
C1232 C1244 1.349 . S
C1233 C1231 1.343 . S
C1233 C1249 1.429 . S
C1233 H1255 0.950 . S
C1234 H1230 0.949 . S
C1234 C1242 1.574 . S
C1234 C1250 1.368 . S
H1235 C1243 0.950 . S
H1236 C1241 0.950 . S
H1237 C1242 0.949 . S
H1238 C1244 0.950 . S
H1239 C1245 0.950 . S
H1240 C1246 0.949 . S
C1241 H1236 0.950 . S
C1241 C1243 1.327 . S
C1241 C1247 1.429 . S
C1242 C1234 1.574 . S
C1242 H1237 0.949 . S
C1242 C1248 1.368 . S
C1243 C1227 1.349 . S
C1243 H1235 0.950 . S
C1243 C1241 1.327 . S
C1244 C1232 1.349 . S
C1244 H1238 0.950 . S
C1244 C1245 1.327 1_455 S
C1245 H1239 0.950 . S
C1245 C1244 1.327 1_655 S
C1245 C1249 1.429 . S
C1246 C1229 1.574 . S
C1246 H1240 0.949 . S
C1246 C1250 1.368 . S
C1247 C1228 1.429 . S
C1247 C1241 1.429 . S
C1247 C1248 1.523 . S
C1248 C1229 1.368 . S
C1248 C1242 1.368 . S
C1248 C1247 1.523 . S
C1249 C1233 1.429 . S
C1249 C1245 1.429 . S
C1249 C1250 1.523 . S
C1250 C1234 1.368 . S
C1250 C1246 1.368 . S
C1250 C1249 1.523 . S
H1251 C1226 0.950 . S
H1252 C1228 0.950 . S
H1253 C1229 0.949 . S
H1254 C1231 0.946 1_455 S
H1255 C1233 0.950 . S
C1256 C1257 1.349 . S
C1256 C1258 1.327 . S
C1256 H1281 0.950 . S
C1257 C1256 1.349 . S
C1257 C1273 1.349 . S
C1258 C1256 1.327 . S
C1258 C1277 1.429 . S
C1258 H1282 0.950 . S
C1259 C1276 1.574 . S
C1259 C1278 1.368 . S
C1259 H1283 0.949 . S
H1260 C1264 0.949 . S
C1261 C1262 1.349 . S
C1261 C1263 1.327 . S
C1261 H1284 0.950 . S
C1262 C1261 1.349 . S
C1262 C1274 1.349 . S
C1263 C1261 1.327 . S
C1263 C1279 1.429 . S
C1263 H1285 0.950 . S
C1264 H1260 0.949 . S
C1264 C1272 1.574 . S
C1264 C1280 1.368 . S
H1265 C1273 0.950 . S
H1266 C1271 0.950 . S
H1267 C1272 0.949 . S
H1268 C1274 0.950 . S
H1269 C1275 0.950 . S
H1270 C1276 0.949 . S
C1271 H1266 0.950 . S
C1271 C1273 1.327 . S
C1271 C1277 1.429 . S
C1272 C1264 1.574 . S
C1272 H1267 0.949 . S
C1272 C1278 1.368 . S
C1273 C1257 1.349 . S
C1273 H1265 0.950 . S
C1273 C1271 1.327 . S
C1274 C1262 1.349 . S
C1274 H1268 0.950 . S
C1274 C1275 1.327 . S
C1275 H1269 0.950 . S
C1275 C1274 1.327 . S
C1275 C1279 1.429 . S
C1276 C1259 1.574 . S
C1276 H1270 0.949 . S
C1276 C1280 1.368 . S
C1277 C1258 1.429 . S
C1277 C1271 1.429 . S
C1277 C1278 1.523 . S
C1278 C1259 1.368 . S
C1278 C1272 1.368 . S
C1278 C1277 1.523 . S
C1279 C1263 1.429 . S
C1279 C1275 1.429 . S
C1279 C1280 1.523 . S
C1280 C1264 1.368 . S
C1280 C1276 1.368 . S
C1280 C1279 1.523 . S
H1281 C1256 0.950 . S
H1282 C1258 0.950 . S
H1283 C1259 0.949 . S
H1284 C1261 0.950 . S
H1285 C1263 0.950 . S
C1286 C1287 1.349 . S
C1286 C1288 1.327 . S
C1286 H1311 0.950 . S
C1287 C1286 1.349 . S
C1287 C1303 1.349 . S
C1288 C1286 1.327 . S
C1288 C1307 1.429 . S
C1288 H1312 0.950 . S
C1289 C1306 1.574 . S
C1289 C1308 1.368 . S
C1289 H1313 0.949 . S
H1290 C1294 0.949 . S
C1291 C1292 1.349 . S
C1291 C1293 1.327 1_655 S
C1291 H1314 0.950 . S
C1292 C1291 1.349 . S
C1292 C1304 1.337 1_655 S
C1293 C1291 1.327 1_455 S
C1293 C1309 1.429 . S
C1293 H1315 0.950 . S
C1294 H1290 0.949 . S
C1294 C1302 1.574 . S
C1294 C1310 1.368 . S
H1295 C1303 0.950 . S
H1296 C1301 0.950 . S
H1297 C1302 0.949 . S
H1298 C1304 0.946 1_655 S
H1299 C1305 0.950 . S
H1300 C1306 0.949 . S
C1301 H1296 0.950 . S
C1301 C1303 1.327 . S
C1301 C1307 1.429 . S
C1302 C1294 1.574 . S
C1302 H1297 0.949 . S
C1302 C1308 1.368 . S
C1303 C1287 1.349 . S
C1303 H1295 0.950 . S
C1303 C1301 1.327 . S
C1304 C1292 1.337 1_455 S
C1304 H1298 0.946 1_455 S
C1304 C1305 1.343 . S
C1305 H1299 0.950 . S
C1305 C1304 1.343 . S
C1305 C1309 1.429 . S
C1306 C1289 1.574 . S
C1306 H1300 0.949 . S
C1306 C1310 1.368 . S
C1307 C1288 1.429 . S
C1307 C1301 1.429 . S
C1307 C1308 1.523 . S
C1308 C1289 1.368 . S
C1308 C1302 1.368 . S
C1308 C1307 1.523 . S
C1309 C1293 1.429 . S
C1309 C1305 1.429 . S
C1309 C1310 1.523 . S
C1310 C1294 1.368 . S
C1310 C1306 1.368 . S
C1310 C1309 1.523 . S
H1311 C1286 0.950 . S
H1312 C1288 0.950 . S
H1313 C1289 0.949 . S
H1314 C1291 0.950 . S
H1315 C1293 0.950 . S
C1316 C1317 1.349 . S
C1316 C1318 1.327 . S
C1316 H1341 0.950 . S
C1317 C1316 1.349 . S
C1317 C1333 1.349 . S
C1318 C1316 1.327 . S
C1318 C1337 1.429 . S
C1318 H1342 0.950 . S
C1319 C1336 1.574 . S
C1319 C1338 1.368 . S
C1319 H1343 0.949 . S
H1320 C1324 0.949 . S
C1321 C1322 1.349 . S
C1321 C1323 1.327 . S
C1321 H1344 0.950 . S
C1322 C1321 1.349 . S
C1322 C1334 1.349 . S
C1323 C1321 1.327 . S
C1323 C1339 1.429 . S
C1323 H1345 0.950 . S
C1324 H1320 0.949 . S
C1324 C1332 1.574 . S
C1324 C1340 1.368 . S
H1325 C1333 0.950 . S
H1326 C1331 0.950 . S
H1327 C1332 0.949 . S
H1328 C1334 0.950 . S
H1329 C1335 0.950 . S
H1330 C1336 0.949 . S
C1331 H1326 0.950 . S
C1331 C1333 1.327 . S
C1331 C1337 1.429 . S
C1332 C1324 1.574 . S
C1332 H1327 0.949 . S
C1332 C1338 1.368 . S
C1333 C1317 1.349 . S
C1333 H1325 0.950 . S
C1333 C1331 1.327 . S
C1334 C1322 1.349 . S
C1334 H1328 0.950 . S
C1334 C1335 1.327 . S
C1335 H1329 0.950 . S
C1335 C1334 1.327 . S
C1335 C1339 1.429 . S
C1336 C1319 1.574 . S
C1336 H1330 0.949 . S
C1336 C1340 1.368 . S
C1337 C1318 1.429 . S
C1337 C1331 1.429 . S
C1337 C1338 1.523 . S
C1338 C1319 1.368 . S
C1338 C1332 1.368 . S
C1338 C1337 1.523 . S
C1339 C1323 1.429 . S
C1339 C1335 1.429 . S
C1339 C1340 1.523 . S
C1340 C1324 1.368 . S
C1340 C1336 1.368 . S
C1340 C1339 1.523 . S
H1341 C1316 0.950 . S
H1342 C1318 0.950 . S
H1343 C1319 0.949 . S
H1344 C1321 0.950 . S
H1345 C1323 0.950 . S
C1346 C1347 1.337 1_455 S
C1346 C1348 1.343 . S
C1346 H1371 0.946 1_455 S
C1347 C1346 1.337 1_655 S
C1347 C1363 1.349 . S
C1348 C1346 1.343 . S
C1348 C1367 1.429 . S
C1348 H1372 0.950 . S
C1349 C1366 1.574 . S
C1349 C1368 1.368 . S
C1349 H1373 0.949 . S
H1350 C1354 0.949 . S
C1351 C1352 1.349 . S
C1351 C1353 1.327 . S
C1351 H1374 0.950 . S
C1352 C1351 1.349 . S
C1352 C1364 1.349 . S
C1353 C1351 1.327 . S
C1353 C1369 1.429 . S
C1353 H1375 0.950 . S
C1354 H1350 0.949 . S
C1354 C1362 1.574 . S
C1354 C1370 1.368 . S
H1355 C1363 0.950 . S
H1356 C1361 0.950 . S
H1357 C1362 0.949 . S
H1358 C1364 0.950 . S
H1359 C1365 0.950 . S
H1360 C1366 0.949 . S
C1361 H1356 0.950 . S
C1361 C1363 1.327 1_455 S
C1361 C1367 1.429 . S
C1362 C1354 1.574 . S
C1362 H1357 0.949 . S
C1362 C1368 1.368 . S
C1363 C1347 1.349 . S
C1363 H1355 0.950 . S
C1363 C1361 1.327 1_655 S
C1364 C1352 1.349 . S
C1364 H1358 0.950 . S
C1364 C1365 1.327 . S
C1365 H1359 0.950 . S
C1365 C1364 1.327 . S
C1365 C1369 1.429 . S
C1366 C1349 1.574 . S
C1366 H1360 0.949 . S
C1366 C1370 1.368 . S
C1367 C1348 1.429 . S
C1367 C1361 1.429 . S
C1367 C1368 1.523 . S
C1368 C1349 1.368 . S
C1368 C1362 1.368 . S
C1368 C1367 1.523 . S
C1369 C1353 1.429 . S
C1369 C1365 1.429 . S
C1369 C1370 1.523 . S
C1370 C1354 1.368 . S
C1370 C1366 1.368 . S
C1370 C1369 1.523 . S
H1371 C1346 0.946 1_655 S
H1372 C1348 0.950 . S
H1373 C1349 0.949 . S
H1374 C1351 0.950 . S
H1375 C1353 0.950 . S
C1376 C1377 1.349 . S
C1376 C1378 1.327 . S
C1376 H1401 0.950 . S
C1377 C1376 1.349 . S
C1377 C1393 1.349 . S
C1378 C1376 1.327 . S
C1378 C1397 1.429 . S
C1378 H1402 0.950 . S
C1379 C1396 1.574 . S
C1379 C1398 1.368 1_455 S
C1379 H1403 0.949 . S
H1380 C1384 0.949 . S
C1381 C1382 1.349 . S
C1381 C1383 1.327 . S
C1381 H1404 0.950 . S
C1382 C1381 1.349 . S
C1382 C1394 1.349 . S
C1383 C1381 1.327 . S
C1383 C1399 1.429 . S
C1383 H1405 0.950 . S
C1384 H1380 0.949 . S
C1384 C1392 1.574 . S
C1384 C1400 1.368 1_655 S
H1385 C1393 0.950 . S
H1386 C1391 0.967 . S
H1387 C1392 0.949 . S
H1388 C1394 0.950 . S
H1389 C1395 0.967 . S
H1390 C1396 0.949 . S
C1391 H1386 0.967 . S
C1391 C1393 1.327 . S
C1391 C1397 1.429 . S
C1392 C1384 1.574 . S
C1392 H1387 0.949 . S
C1392 C1398 1.368 . S
C1393 C1377 1.349 . S
C1393 H1385 0.950 . S
C1393 C1391 1.327 . S
C1394 C1382 1.349 . S
C1394 H1388 0.950 . S
C1394 C1395 1.327 . S
C1395 H1389 0.967 . S
C1395 C1394 1.327 . S
C1395 C1399 1.429 . S
C1396 C1379 1.574 . S
C1396 H1390 0.949 . S
C1396 C1400 1.368 . S
C1397 C1378 1.429 . S
C1397 C1391 1.429 . S
C1397 C1398 1.523 . S
C1398 C1379 1.368 1_655 S
C1398 C1392 1.368 . S
C1398 C1397 1.523 . S
C1399 C1383 1.429 . S
C1399 C1395 1.429 . S
C1399 C1400 1.523 . S
C1400 C1384 1.368 1_455 S
C1400 C1396 1.368 . S
C1400 C1399 1.523 . S
H1401 C1376 0.950 . S
H1402 C1378 0.950 . S
H1403 C1379 0.949 . S
H1404 C1381 0.950 . S
H1405 C1383 0.950 . S
C1406 C1407 1.349 . S
C1406 C1408 1.327 . S
C1406 H1431 0.950 . S
C1407 C1406 1.349 . S
C1407 C1423 1.349 . S
C1408 C1406 1.327 . S
C1408 C1427 1.429 . S
C1408 H1432 0.950 . S
C1409 C1426 1.574 1_565 S
C1409 C1428 1.368 . S
C1409 H1433 0.949 . S
H1410 C1414 0.949 . S
C1411 C1412 1.349 . S
C1411 C1413 1.327 . S
C1411 H1434 0.950 . S
C1412 C1411 1.349 . S
C1412 C1424 1.349 . S
C1413 C1411 1.327 . S
C1413 C1429 1.429 . S
C1413 H1435 0.950 . S
C1414 H1410 0.949 . S
C1414 C1422 1.574 1_545 S
C1414 C1430 1.368 . S
H1415 C1423 0.950 . S
H1416 C1421 0.950 . S
H1417 C1422 0.949 . S
H1418 C1424 0.950 . S
H1419 C1425 0.950 . S
H1420 C1426 0.949 . S
C1421 H1416 0.950 . S
C1421 C1423 1.327 . S
C1421 C1427 1.429 . S
C1422 C1414 1.574 1_565 S
C1422 H1417 0.949 . S
C1422 C1428 1.368 . S
C1423 C1407 1.349 . S
C1423 H1415 0.950 . S
C1423 C1421 1.327 . S
C1424 C1412 1.349 . S
C1424 H1418 0.950 . S
C1424 C1425 1.327 . S
C1425 H1419 0.950 . S
C1425 C1424 1.327 . S
C1425 C1429 1.429 . S
C1426 C1409 1.574 1_545 S
C1426 H1420 0.949 . S
C1426 C1430 1.368 . S
C1427 C1408 1.429 . S
C1427 C1421 1.429 . S
C1427 C1428 1.523 . S
C1428 C1409 1.368 . S
C1428 C1422 1.368 . S
C1428 C1427 1.523 . S
C1429 C1413 1.429 . S
C1429 C1425 1.429 . S
C1429 C1430 1.523 . S
C1430 C1414 1.368 . S
C1430 C1426 1.368 . S
C1430 C1429 1.523 . S
H1431 C1406 0.950 . S
H1432 C1408 0.950 . S
H1433 C1409 0.949 . S
H1434 C1411 0.950 . S
H1435 C1413 0.950 . S
C1436 C1437 1.349 . S
C1436 C1438 1.327 . S
C1436 H1461 0.950 . S
C1437 C1436 1.349 . S
C1437 C1453 1.349 . S
C1438 C1436 1.327 . S
C1438 C1457 1.429 . S
C1438 H1462 0.950 1_654 S
C1439 C1456 1.542 1_545 S
C1439 C1458 1.398 . S
C1439 H1463 0.947 . S
H1440 C1444 0.947 . S
C1441 C1442 1.349 . S
C1441 C1443 1.327 . S
C1441 H1464 0.950 . S
C1442 C1441 1.349 . S
C1442 C1454 1.349 . S
C1443 C1441 1.327 . S
C1443 C1459 1.429 . S
C1443 H1465 0.950 1_456 S
C1444 H1440 0.947 . S
C1444 C1452 1.542 1_565 S
C1444 C1460 1.398 . S
H1445 C1453 0.950 . S
H1446 C1451 0.950 . S
H1447 C1452 0.949 . S
H1448 C1454 0.950 . S
H1449 C1455 0.950 . S
H1450 C1456 0.949 . S
C1451 H1446 0.950 . S
C1451 C1453 1.327 . S
C1451 C1457 1.429 . S
C1452 C1444 1.542 1_545 S
C1452 H1447 0.949 . S
C1452 C1458 1.368 1_456 S
C1453 C1437 1.349 . S
C1453 H1445 0.950 . S
C1453 C1451 1.327 . S
C1454 C1442 1.349 . S
C1454 H1448 0.950 . S
C1454 C1455 1.327 . S
C1455 H1449 0.950 . S
C1455 C1454 1.327 . S
C1455 C1459 1.429 . S
C1456 C1439 1.542 1_565 S
C1456 H1450 0.949 . S
C1456 C1460 1.368 1_654 S
C1457 C1438 1.429 . S
C1457 C1451 1.429 . S
C1457 C1458 1.523 . S
C1458 C1439 1.398 . S
C1458 C1452 1.368 1_654 S
C1458 C1457 1.523 . S
C1459 C1443 1.429 . S
C1459 C1455 1.429 . S
C1459 C1460 1.523 . S
C1460 C1444 1.398 . S
C1460 C1456 1.368 1_456 S
C1460 C1459 1.523 . S
H1461 C1436 0.950 . S
H1462 C1438 0.950 1_456 S
H1463 C1439 0.947 . S
H1464 C1441 0.950 . S
H1465 C1443 0.950 1_654 S
C1466 C1467 1.349 . S
C1466 C1468 1.327 . S
C1466 H1491 0.950 . S
C1467 C1466 1.349 . S
C1467 C1483 1.349 . S
C1468 C1466 1.327 . S
C1468 C1487 1.429 . S
C1468 H1492 0.950 . S
C1469 C1486 1.581 . S
C1469 C1488 1.361 1_556 S
C1469 H1493 0.949 . S
H1470 C1474 0.949 . S
C1471 C1472 1.349 . S
C1471 C1473 1.327 . S
C1471 H1494 0.950 . S
C1472 C1471 1.349 . S
C1472 C1484 1.349 . S
C1473 C1471 1.327 . S
C1473 C1489 1.429 . S
C1473 H1495 0.950 . S
C1474 H1470 0.949 . S
C1474 C1482 1.581 . S
C1474 C1490 1.361 1_554 S
H1475 C1483 0.950 . S
H1476 C1481 0.950 . S
H1477 C1482 0.949 . S
H1478 C1484 0.950 . S
H1479 C1485 0.950 . S
H1480 C1486 0.949 . S
C1481 H1476 0.950 . S
C1481 C1483 1.327 . S
C1481 C1487 1.429 . S
C1482 C1474 1.581 . S
C1482 H1477 0.949 . S
C1482 C1488 1.368 . S
C1483 C1467 1.349 . S
C1483 H1475 0.950 . S
C1483 C1481 1.327 . S
C1484 C1472 1.349 . S
C1484 H1478 0.950 . S
C1484 C1485 1.327 . S
C1485 H1479 0.950 . S
C1485 C1484 1.327 . S
C1485 C1489 1.429 . S
C1486 C1469 1.581 . S
C1486 H1480 0.949 . S
C1486 C1490 1.368 . S
C1487 C1468 1.429 . S
C1487 C1481 1.429 . S
C1487 C1488 1.523 . S
C1488 C1469 1.361 1_554 S
C1488 C1482 1.368 . S
C1488 C1487 1.523 . S
C1489 C1473 1.429 . S
C1489 C1485 1.429 . S
C1489 C1490 1.523 . S
C1490 C1474 1.361 1_556 S
C1490 C1486 1.368 . S
C1490 C1489 1.523 . S
H1491 C1466 0.950 . S
H1492 C1468 0.950 . S
H1493 C1469 0.949 . S
H1494 C1471 0.950 . S
H1495 C1473 0.950 . S
C1496 C1497 1.349 . S
C1496 C1498 1.327 . S
C1496 H1521 0.950 . S
C1497 C1496 1.349 . S
C1497 C1513 1.349 . S
C1498 C1496 1.327 . S
C1498 C1517 1.429 . S
C1498 H1522 0.950 . S
C1499 C1516 1.574 . S
C1499 C1518 1.368 1_455 S
C1499 H1523 0.949 . S
H1500 C1504 0.949 . S
C1501 C1502 1.349 . S
C1501 C1503 1.327 . S
C1501 H1524 0.950 . S
C1502 C1501 1.349 . S
C1502 C1514 1.349 . S
C1503 C1501 1.327 . S
C1503 C1519 1.429 . S
C1503 H1525 0.950 . S
C1504 H1500 0.949 . S
C1504 C1512 1.574 . S
C1504 C1520 1.368 1_655 S
H1505 C1513 0.950 . S
H1506 C1511 0.950 . S
H1507 C1512 0.949 . S
H1508 C1514 0.950 . S
H1509 C1515 0.950 . S
H1510 C1516 0.949 . S
C1511 H1506 0.950 . S
C1511 C1513 1.327 . S
C1511 C1517 1.429 . S
C1512 C1504 1.574 . S
C1512 H1507 0.949 . S
C1512 C1518 1.368 . S
C1513 C1497 1.349 . S
C1513 H1505 0.950 . S
C1513 C1511 1.327 . S
C1514 C1502 1.349 . S
C1514 H1508 0.950 . S
C1514 C1515 1.327 . S
C1515 H1509 0.950 . S
C1515 C1514 1.327 . S
C1515 C1519 1.429 . S
C1516 C1499 1.574 . S
C1516 H1510 0.949 . S
C1516 C1520 1.368 . S
C1517 C1498 1.429 . S
C1517 C1511 1.429 . S
C1517 C1518 1.523 . S
C1518 C1499 1.368 1_655 S
C1518 C1512 1.368 . S
C1518 C1517 1.523 . S
C1519 C1503 1.429 . S
C1519 C1515 1.429 . S
C1519 C1520 1.523 . S
C1520 C1504 1.368 1_455 S
C1520 C1516 1.368 . S
C1520 C1519 1.523 . S
H1521 C1496 0.950 . S
H1522 C1498 0.950 . S
H1523 C1499 0.949 . S
H1524 C1501 0.950 . S
H1525 C1503 0.950 . S
C1526 C1527 1.349 . S
C1526 C1528 1.327 . S
C1526 H1551 0.950 . S
C1527 C1526 1.349 . S
C1527 C1543 1.349 . S
C1528 C1526 1.327 . S
C1528 C1547 1.429 . S
C1528 H1552 0.950 . S
C1529 C1546 1.574 1_565 S
C1529 C1548 1.368 . S
C1529 H1553 0.949 . S
H1530 C1534 0.949 . S
C1531 C1532 1.349 . S
C1531 C1533 1.327 . S
C1531 H1554 0.950 . S
C1532 C1531 1.349 . S
C1532 C1544 1.349 . S
C1533 C1531 1.327 . S
C1533 C1549 1.429 . S
C1533 H1555 0.950 . S
C1534 H1530 0.949 . S
C1534 C1542 1.574 1_545 S
C1534 C1550 1.368 . S
H1535 C1543 0.950 . S
H1536 C1541 0.950 . S
H1537 C1542 0.949 . S
H1538 C1544 0.950 . S
H1539 C1545 0.950 . S
H1540 C1546 0.949 . S
C1541 H1536 0.950 . S
C1541 C1543 1.327 . S
C1541 C1547 1.429 . S
C1542 C1534 1.574 1_565 S
C1542 H1537 0.949 . S
C1542 C1548 1.368 . S
C1543 C1527 1.349 . S
C1543 H1535 0.950 . S
C1543 C1541 1.327 . S
C1544 C1532 1.349 . S
C1544 H1538 0.950 . S
C1544 C1545 1.327 . S
C1545 H1539 0.950 . S
C1545 C1544 1.327 . S
C1545 C1549 1.429 . S
C1546 C1529 1.574 1_545 S
C1546 H1540 0.949 . S
C1546 C1550 1.368 . S
C1547 C1528 1.429 . S
C1547 C1541 1.429 . S
C1547 C1548 1.523 . S
C1548 C1529 1.368 . S
C1548 C1542 1.368 . S
C1548 C1547 1.523 . S
C1549 C1533 1.429 . S
C1549 C1545 1.429 . S
C1549 C1550 1.523 . S
C1550 C1534 1.368 . S
C1550 C1546 1.368 . S
C1550 C1549 1.523 . S
H1551 C1526 0.950 . S
H1552 C1528 0.950 . S
H1553 C1529 0.949 . S
H1554 C1531 0.950 . S
H1555 C1533 0.950 . S
C1556 C1557 1.349 . S
C1556 C1558 1.327 . S
C1556 H1581 0.950 . S
C1557 C1556 1.349 . S
C1557 C1573 1.349 . S
C1558 C1556 1.327 . S
C1558 C1577 1.429 . S
C1558 H1582 0.934 1_556 S
C1559 C1576 1.574 . S
C1559 C1578 1.368 . S
C1559 H1583 0.949 . S
H1560 C1564 0.949 . S
C1561 C1562 1.349 . S
C1561 C1563 1.327 . S
C1561 H1584 0.950 . S
C1562 C1561 1.349 . S
C1562 C1574 1.349 . S
C1563 C1561 1.327 . S
C1563 C1579 1.429 . S
C1563 H1585 0.934 1_554 S
C1564 H1560 0.949 . S
C1564 C1572 1.574 . S
C1564 C1580 1.368 . S
H1565 C1573 0.950 . S
H1566 C1571 0.950 . S
H1567 C1572 0.949 . S
H1568 C1574 0.950 . S
H1569 C1575 0.950 . S
H1570 C1576 0.949 . S
C1571 H1566 0.950 . S
C1571 C1573 1.327 . S
C1571 C1577 1.429 . S
C1572 C1564 1.574 . S
C1572 H1567 0.949 . S
C1572 C1578 1.368 1_554 S
C1573 C1557 1.349 . S
C1573 H1565 0.950 . S
C1573 C1571 1.327 . S
C1574 C1562 1.349 . S
C1574 H1568 0.950 . S
C1574 C1575 1.327 . S
C1575 H1569 0.950 . S
C1575 C1574 1.327 . S
C1575 C1579 1.429 . S
C1576 C1559 1.574 . S
C1576 H1570 0.949 . S
C1576 C1580 1.368 1_556 S
C1577 C1558 1.429 . S
C1577 C1571 1.429 . S
C1577 C1578 1.523 . S
C1578 C1559 1.368 . S
C1578 C1572 1.368 1_556 S
C1578 C1577 1.523 . S
C1579 C1563 1.429 . S
C1579 C1575 1.429 . S
C1579 C1580 1.523 . S
C1580 C1564 1.368 . S
C1580 C1576 1.368 1_554 S
C1580 C1579 1.523 . S
H1581 C1556 0.950 . S
H1582 C1558 0.934 1_554 S
H1583 C1559 0.949 . S
H1584 C1561 0.950 . S
H1585 C1563 0.934 1_556 S
C1586 C1587 1.349 . S
C1586 C1588 1.327 . S
C1586 H1611 0.950 . S
C1587 C1586 1.349 . S
C1587 C1603 1.349 . S
C1588 C1586 1.327 . S
C1588 C1607 1.429 . S
C1588 H1612 0.950 . S
C1589 C1606 1.574 . S
C1589 C1608 1.368 . S
C1589 H1613 0.949 . S
H1590 C1594 0.949 . S
C1591 C1592 1.349 . S
C1591 C1593 1.327 . S
C1591 H1614 0.950 . S
C1592 C1591 1.349 . S
C1592 C1604 1.349 . S
C1593 C1591 1.327 . S
C1593 C1609 1.429 . S
C1593 H1615 0.950 . S
C1594 H1590 0.949 . S
C1594 C1602 1.574 . S
C1594 C1610 1.368 . S
H1595 C1603 0.950 . S
H1596 C1601 0.950 . S
H1597 C1602 0.949 . S
H1598 C1604 0.950 . S
H1599 C1605 0.950 . S
H1600 C1606 0.949 . S
C1601 H1596 0.950 . S
C1601 C1603 1.327 . S
C1601 C1607 1.429 . S
C1602 C1594 1.574 . S
C1602 H1597 0.949 . S
C1602 C1608 1.368 . S
C1603 C1587 1.349 . S
C1603 H1595 0.950 . S
C1603 C1601 1.327 . S
C1604 C1592 1.349 . S
C1604 H1598 0.950 . S
C1604 C1605 1.327 . S
C1605 H1599 0.950 . S
C1605 C1604 1.327 . S
C1605 C1609 1.429 . S
C1606 C1589 1.574 . S
C1606 H1600 0.949 . S
C1606 C1610 1.368 . S
C1607 C1588 1.429 . S
C1607 C1601 1.429 . S
C1607 C1608 1.523 . S
C1608 C1589 1.368 . S
C1608 C1602 1.368 . S
C1608 C1607 1.523 . S
C1609 C1593 1.429 . S
C1609 C1605 1.429 . S
C1609 C1610 1.523 . S
C1610 C1594 1.368 . S
C1610 C1606 1.368 . S
C1610 C1609 1.523 . S
H1611 C1586 0.950 . S
H1612 C1588 0.950 . S
H1613 C1589 0.949 . S
H1614 C1591 0.950 . S
H1615 C1593 0.950 . S
C1616 C1617 1.349 . S
C1616 C1618 1.327 . S
C1616 H1641 0.950 . S
C1617 C1616 1.349 . S
C1617 C1633 1.349 . S
C1618 C1616 1.327 . S
C1618 C1637 1.429 . S
C1618 H1642 0.950 . S
C1619 C1636 1.574 . S
C1619 C1638 1.368 . S
C1619 H1643 0.949 . S
H1620 C1624 0.949 . S
C1621 C1622 1.349 . S
C1621 C1623 1.327 . S
C1621 H1644 0.950 . S
C1622 C1621 1.349 . S
C1622 C1634 1.349 . S
C1623 C1621 1.327 . S
C1623 C1639 1.429 . S
C1623 H1645 0.950 . S
C1624 H1620 0.949 . S
C1624 C1632 1.574 . S
C1624 C1640 1.368 . S
H1625 C1633 0.950 . S
H1626 C1631 0.950 . S
H1627 C1632 0.949 . S
H1628 C1634 0.950 . S
H1629 C1635 0.950 . S
H1630 C1636 0.949 . S
C1631 H1626 0.950 . S
C1631 C1633 1.327 . S
C1631 C1637 1.429 . S
C1632 C1624 1.574 . S
C1632 H1627 0.949 . S
C1632 C1638 1.368 1_655 S
C1633 C1617 1.349 . S
C1633 H1625 0.950 . S
C1633 C1631 1.327 . S
C1634 C1622 1.349 . S
C1634 H1628 0.950 . S
C1634 C1635 1.327 . S
C1635 H1629 0.950 . S
C1635 C1634 1.327 . S
C1635 C1639 1.429 . S
C1636 C1619 1.574 . S
C1636 H1630 0.949 . S
C1636 C1640 1.368 1_455 S
C1637 C1618 1.429 . S
C1637 C1631 1.429 . S
C1637 C1638 1.523 . S
C1638 C1619 1.368 . S
C1638 C1632 1.368 1_455 S
C1638 C1637 1.523 . S
C1639 C1623 1.429 . S
C1639 C1635 1.429 . S
C1639 C1640 1.523 . S
C1640 C1624 1.368 . S
C1640 C1636 1.368 1_655 S
C1640 C1639 1.523 . S
H1641 C1616 0.950 . S
H1642 C1618 0.950 . S
H1643 C1619 0.949 . S
H1644 C1621 0.950 . S
H1645 C1623 0.950 . S
C1646 C1647 1.349 . S
C1646 C1648 1.327 . S
C1646 H1671 0.950 . S
C1647 C1646 1.349 . S
C1647 C1663 1.349 . S
C1648 C1646 1.327 . S
C1648 C1667 1.429 . S
C1648 H1672 0.950 . S
C1649 C1666 1.574 . S
C1649 C1668 1.368 . S
C1649 H1673 0.949 . S
H1650 C1654 0.949 . S
C1651 C1652 1.349 . S
C1651 C1653 1.327 . S
C1651 H1674 0.950 . S
C1652 C1651 1.349 . S
C1652 C1664 1.349 . S
C1653 C1651 1.327 . S
C1653 C1669 1.429 . S
C1653 H1675 0.950 . S
C1654 H1650 0.949 . S
C1654 C1662 1.574 . S
C1654 C1670 1.368 . S
H1655 C1663 0.950 . S
H1656 C1661 0.950 . S
H1657 C1662 0.949 . S
H1658 C1664 0.950 . S
H1659 C1665 0.950 . S
H1660 C1666 0.949 . S
C1661 H1656 0.950 . S
C1661 C1663 1.327 . S
C1661 C1667 1.429 . S
C1662 C1654 1.574 . S
C1662 H1657 0.949 . S
C1662 C1668 1.368 . S
C1663 C1647 1.349 . S
C1663 H1655 0.950 . S
C1663 C1661 1.327 . S
C1664 C1652 1.349 . S
C1664 H1658 0.950 . S
C1664 C1665 1.327 . S
C1665 H1659 0.950 . S
C1665 C1664 1.327 . S
C1665 C1669 1.429 . S
C1666 C1649 1.574 . S
C1666 H1660 0.949 . S
C1666 C1670 1.368 . S
C1667 C1648 1.429 . S
C1667 C1661 1.429 . S
C1667 C1668 1.523 . S
C1668 C1649 1.368 . S
C1668 C1662 1.368 . S
C1668 C1667 1.523 . S
C1669 C1653 1.429 . S
C1669 C1665 1.429 . S
C1669 C1670 1.523 . S
C1670 C1654 1.368 . S
C1670 C1666 1.368 . S
C1670 C1669 1.523 . S
H1671 C1646 0.950 . S
H1672 C1648 0.950 . S
H1673 C1649 0.949 . S
H1674 C1651 0.950 . S
H1675 C1653 0.950 . S
C1676 C1677 1.349 . S
C1676 C1678 1.327 . S
C1676 H1701 0.950 . S
C1677 C1676 1.349 . S
C1677 C1693 1.349 . S
C1678 C1676 1.327 . S
C1678 C1697 1.429 . S
C1678 H1702 0.950 . S
C1679 C1696 1.574 . S
C1679 C1698 1.368 . S
C1679 H1703 0.949 . S
H1680 C1684 0.949 . S
C1681 C1682 1.349 . S
C1681 C1683 1.327 . S
C1681 H1704 0.950 . S
C1682 C1681 1.349 . S
C1682 C1694 1.349 . S
C1683 C1681 1.327 . S
C1683 C1699 1.429 . S
C1683 H1705 0.950 . S
C1684 H1680 0.949 . S
C1684 C1692 1.574 . S
C1684 C1700 1.368 . S
H1685 C1693 0.950 . S
H1686 C1691 0.950 . S
H1687 C1692 0.949 . S
H1688 C1694 0.950 . S
H1689 C1695 0.950 . S
H1690 C1696 0.949 . S
C1691 H1686 0.950 . S
C1691 C1693 1.327 . S
C1691 C1697 1.429 . S
C1692 C1684 1.574 . S
C1692 H1687 0.949 . S
C1692 C1698 1.368 . S
C1693 C1677 1.349 . S
C1693 H1685 0.950 . S
C1693 C1691 1.327 . S
C1694 C1682 1.349 . S
C1694 H1688 0.950 . S
C1694 C1695 1.327 . S
C1695 H1689 0.950 . S
C1695 C1694 1.327 . S
C1695 C1699 1.429 . S
C1696 C1679 1.574 . S
C1696 H1690 0.949 . S
C1696 C1700 1.368 . S
C1697 C1678 1.429 . S
C1697 C1691 1.429 . S
C1697 C1698 1.523 . S
C1698 C1679 1.368 . S
C1698 C1692 1.368 . S
C1698 C1697 1.523 . S
C1699 C1683 1.429 . S
C1699 C1695 1.429 . S
C1699 C1700 1.523 . S
C1700 C1684 1.368 . S
C1700 C1696 1.368 . S
C1700 C1699 1.523 . S
H1701 C1676 0.950 . S
H1702 C1678 0.950 . S
H1703 C1679 0.949 . S
H1704 C1681 0.950 . S
H1705 C1683 0.950 . S
C1706 C1707 1.349 . S
C1706 C1708 1.327 . S
C1706 H1731 0.950 . S
C1707 C1706 1.349 . S
C1707 C1723 1.349 . S
C1708 C1706 1.327 . S
C1708 C1727 1.429 . S
C1708 H1732 0.950 . S
C1709 C1726 1.574 . S
C1709 C1728 1.368 . S
C1709 H1733 0.949 . S
H1710 C1714 0.949 . S
C1711 C1712 1.349 . S
C1711 C1713 1.327 . S
C1711 H1734 0.950 . S
C1712 C1711 1.349 . S
C1712 C1724 1.349 . S
C1713 C1711 1.327 . S
C1713 C1729 1.429 . S
C1713 H1735 0.950 . S
C1714 H1710 0.949 . S
C1714 C1722 1.574 . S
C1714 C1730 1.368 . S
H1715 C1723 0.950 . S
H1716 C1721 0.950 . S
H1717 C1722 0.949 . S
H1718 C1724 0.950 . S
H1719 C1725 0.950 . S
H1720 C1726 0.949 . S
C1721 H1716 0.950 . S
C1721 C1723 1.327 . S
C1721 C1727 1.429 . S
C1722 C1714 1.574 . S
C1722 H1717 0.949 . S
C1722 C1728 1.368 . S
C1723 C1707 1.349 . S
C1723 H1715 0.950 . S
C1723 C1721 1.327 . S
C1724 C1712 1.349 . S
C1724 H1718 0.950 . S
C1724 C1725 1.327 . S
C1725 H1719 0.950 . S
C1725 C1724 1.327 . S
C1725 C1729 1.429 . S
C1726 C1709 1.574 . S
C1726 H1720 0.949 . S
C1726 C1730 1.368 . S
C1727 C1708 1.429 . S
C1727 C1721 1.429 . S
C1727 C1728 1.523 . S
C1728 C1709 1.368 . S
C1728 C1722 1.368 . S
C1728 C1727 1.523 . S
C1729 C1713 1.429 . S
C1729 C1725 1.429 . S
C1729 C1730 1.523 . S
C1730 C1714 1.368 . S
C1730 C1726 1.368 . S
C1730 C1729 1.523 . S
H1731 C1706 0.950 . S
H1732 C1708 0.950 . S
H1733 C1709 0.949 . S
H1734 C1711 0.950 . S
H1735 C1713 0.950 . S
C1736 C1737 1.349 . S
C1736 C1738 1.327 . S
C1736 H1761 0.950 . S
C1737 C1736 1.349 . S
C1737 C1753 1.349 . S
C1738 C1736 1.327 . S
C1738 C1757 1.429 . S
C1738 H1762 0.950 . S
C1739 C1756 1.574 . S
C1739 C1758 1.368 . S
C1739 H1763 0.949 . S
H1740 C1744 0.949 . S
C1741 C1742 1.349 . S
C1741 C1743 1.327 . S
C1741 H1764 0.950 . S
C1742 C1741 1.349 . S
C1742 C1754 1.349 . S
C1743 C1741 1.327 . S
C1743 C1759 1.429 . S
C1743 H1765 0.950 . S
C1744 H1740 0.949 . S
C1744 C1752 1.574 . S
C1744 C1760 1.368 . S
H1745 C1753 0.950 . S
H1746 C1751 0.950 . S
H1747 C1752 0.949 . S
H1748 C1754 0.950 . S
H1749 C1755 0.950 . S
H1750 C1756 0.949 . S
C1751 H1746 0.950 . S
C1751 C1753 1.327 . S
C1751 C1757 1.429 . S
C1752 C1744 1.574 . S
C1752 H1747 0.949 . S
C1752 C1758 1.368 . S
C1753 C1737 1.349 . S
C1753 H1745 0.950 . S
C1753 C1751 1.327 . S
C1754 C1742 1.349 . S
C1754 H1748 0.950 . S
C1754 C1755 1.327 . S
C1755 H1749 0.950 . S
C1755 C1754 1.327 . S
C1755 C1759 1.429 . S
C1756 C1739 1.574 . S
C1756 H1750 0.949 . S
C1756 C1760 1.368 . S
C1757 C1738 1.429 . S
C1757 C1751 1.429 . S
C1757 C1758 1.523 . S
C1758 C1739 1.368 . S
C1758 C1752 1.368 . S
C1758 C1757 1.523 . S
C1759 C1743 1.429 . S
C1759 C1755 1.429 . S
C1759 C1760 1.523 . S
C1760 C1744 1.368 . S
C1760 C1756 1.368 . S
C1760 C1759 1.523 . S
H1761 C1736 0.950 . S
H1762 C1738 0.950 . S
H1763 C1739 0.949 . S
H1764 C1741 0.950 . S
H1765 C1743 0.950 . S
C1766 C1767 1.349 . S
C1766 C1768 1.327 . S
C1766 H1791 0.950 . S
C1767 C1766 1.349 . S
C1767 C1783 1.349 . S
C1768 C1766 1.327 . S
C1768 C1787 1.429 . S
C1768 H1792 0.950 . S
C1769 C1786 1.481 1_545 S
C1769 C1788 1.451 . S
C1769 H1793 0.967 . S
H1770 C1774 0.967 . S
C1771 C1772 1.349 . S
C1771 C1773 1.327 . S
C1771 H1794 0.950 . S
C1772 C1771 1.349 . S
C1772 C1784 1.349 . S
C1773 C1771 1.327 . S
C1773 C1789 1.429 . S
C1773 H1795 0.950 . S
C1774 H1770 0.967 . S
C1774 C1782 1.481 1_565 S
C1774 C1790 1.451 . S
H1775 C1783 0.950 . S
H1776 C1781 0.950 . S
H1777 C1782 0.949 . S
H1778 C1784 0.950 . S
H1779 C1785 0.950 . S
H1780 C1786 0.949 . S
C1781 H1776 0.950 . S
C1781 C1783 1.327 . S
C1781 C1787 1.429 . S
C1782 C1774 1.481 1_545 S
C1782 H1777 0.949 . S
C1782 C1788 1.368 . S
C1783 C1767 1.349 . S
C1783 H1775 0.950 . S
C1783 C1781 1.327 . S
C1784 C1772 1.349 . S
C1784 H1778 0.950 . S
C1784 C1785 1.327 . S
C1785 H1779 0.950 . S
C1785 C1784 1.327 . S
C1785 C1789 1.429 . S
C1786 C1769 1.481 1_565 S
C1786 H1780 0.949 . S
C1786 C1790 1.368 . S
C1787 C1768 1.429 . S
C1787 C1781 1.429 . S
C1787 C1788 1.523 . S
C1788 C1769 1.451 . S
C1788 C1782 1.368 . S
C1788 C1787 1.523 . S
C1789 C1773 1.429 . S
C1789 C1785 1.429 . S
C1789 C1790 1.523 . S
C1790 C1774 1.451 . S
C1790 C1786 1.368 . S
C1790 C1789 1.523 . S
H1791 C1766 0.950 . S
H1792 C1768 0.950 . S
H1793 C1769 0.967 . S
H1794 C1771 0.950 . S
H1795 C1773 0.950 . S
C1796 C1797 1.349 . S
C1796 C1798 1.327 . S
C1796 H1821 0.950 . S
C1797 C1796 1.349 . S
C1797 C1813 1.349 . S
C1798 C1796 1.327 . S
C1798 C1817 1.429 . S
C1798 H1822 0.950 . S
C1799 C1816 1.574 . S
C1799 C1818 1.368 . S
C1799 H1823 0.949 . S
H1800 C1804 0.949 . S
C1801 C1802 1.349 . S
C1801 C1803 1.327 . S
C1801 H1824 0.950 . S
C1802 C1801 1.349 . S
C1802 C1814 1.349 . S
C1803 C1801 1.327 . S
C1803 C1819 1.429 . S
C1803 H1825 0.950 . S
C1804 H1800 0.949 . S
C1804 C1812 1.574 . S
C1804 C1820 1.368 . S
H1805 C1813 0.950 . S
H1806 C1811 0.950 . S
H1807 C1812 0.949 . S
H1808 C1814 0.950 . S
H1809 C1815 0.950 . S
H1810 C1816 0.949 . S
C1811 H1806 0.950 . S
C1811 C1813 1.327 . S
C1811 C1817 1.429 . S
C1812 C1804 1.574 . S
C1812 H1807 0.949 . S
C1812 C1818 1.368 . S
C1813 C1797 1.349 . S
C1813 H1805 0.950 . S
C1813 C1811 1.327 . S
C1814 C1802 1.349 . S
C1814 H1808 0.950 . S
C1814 C1815 1.327 . S
C1815 H1809 0.950 . S
C1815 C1814 1.327 . S
C1815 C1819 1.429 . S
C1816 C1799 1.574 . S
C1816 H1810 0.949 . S
C1816 C1820 1.368 . S
C1817 C1798 1.429 . S
C1817 C1811 1.429 . S
C1817 C1818 1.523 . S
C1818 C1799 1.368 . S
C1818 C1812 1.368 . S
C1818 C1817 1.523 . S
C1819 C1803 1.429 . S
C1819 C1815 1.429 . S
C1819 C1820 1.523 . S
C1820 C1804 1.368 . S
C1820 C1816 1.368 . S
C1820 C1819 1.523 . S
H1821 C1796 0.950 . S
H1822 C1798 0.950 . S
H1823 C1799 0.949 . S
H1824 C1801 0.950 . S
H1825 C1803 0.950 . S
C1826 C1827 1.349 . S
C1826 C1828 1.327 . S
C1826 H1851 0.950 . S
C1827 C1826 1.349 . S
C1827 C1843 1.349 . S
C1828 C1826 1.327 . S
C1828 C1847 1.429 . S
C1828 H1852 0.950 . S
C1829 C1846 1.574 . S
C1829 C1848 1.368 1_554 S
C1829 H1853 0.949 . S
H1830 C1834 0.949 . S
C1831 C1832 1.349 . S
C1831 C1833 1.327 . S
C1831 H1854 0.950 . S
C1832 C1831 1.349 . S
C1832 C1844 1.349 . S
C1833 C1831 1.327 . S
C1833 C1849 1.429 . S
C1833 H1855 0.950 . S
C1834 H1830 0.949 . S
C1834 C1842 1.574 . S
C1834 C1850 1.368 1_556 S
H1835 C1843 0.950 . S
H1836 C1841 0.950 1_554 S
H1837 C1842 0.949 . S
H1838 C1844 0.950 . S
H1839 C1845 0.950 1_556 S
H1840 C1846 0.949 . S
C1841 H1836 0.950 1_556 S
C1841 C1843 1.327 . S
C1841 C1847 1.429 . S
C1842 C1834 1.574 . S
C1842 H1837 0.949 . S
C1842 C1848 1.368 . S
C1843 C1827 1.349 . S
C1843 H1835 0.950 . S
C1843 C1841 1.327 . S
C1844 C1832 1.349 . S
C1844 H1838 0.950 . S
C1844 C1845 1.327 . S
C1845 H1839 0.950 1_554 S
C1845 C1844 1.327 . S
C1845 C1849 1.429 . S
C1846 C1829 1.574 . S
C1846 H1840 0.949 . S
C1846 C1850 1.368 . S
C1847 C1828 1.429 . S
C1847 C1841 1.429 . S
C1847 C1848 1.523 . S
C1848 C1829 1.368 1_556 S
C1848 C1842 1.368 . S
C1848 C1847 1.523 . S
C1849 C1833 1.429 . S
C1849 C1845 1.429 . S
C1849 C1850 1.523 . S
C1850 C1834 1.368 1_554 S
C1850 C1846 1.368 . S
C1850 C1849 1.523 . S
H1851 C1826 0.950 . S
H1852 C1828 0.950 . S
H1853 C1829 0.949 . S
H1854 C1831 0.950 . S
H1855 C1833 0.950 . S
C1856 C1857 1.349 . S
C1856 C1858 1.327 . S
C1856 H1881 0.950 . S
C1857 C1856 1.349 . S
C1857 C1873 1.349 . S
C1858 C1856 1.327 . S
C1858 C1877 1.429 . S
C1858 H1882 0.950 . S
C1859 C1876 1.574 . S
C1859 C1878 1.368 . S
C1859 H1883 0.949 . S
H1860 C1864 0.949 . S
C1861 C1862 1.349 . S
C1861 C1863 1.327 . S
C1861 H1884 0.950 . S
C1862 C1861 1.349 . S
C1862 C1874 1.349 . S
C1863 C1861 1.327 . S
C1863 C1879 1.429 . S
C1863 H1885 0.950 . S
C1864 H1860 0.949 . S
C1864 C1872 1.574 . S
C1864 C1880 1.368 . S
H1865 C1873 0.950 . S
H1866 C1871 0.950 . S
H1867 C1872 0.949 . S
H1868 C1874 0.950 . S
H1869 C1875 0.950 . S
H1870 C1876 0.949 . S
C1871 H1866 0.950 . S
C1871 C1873 1.327 . S
C1871 C1877 1.429 . S
C1872 C1864 1.574 . S
C1872 H1867 0.949 . S
C1872 C1878 1.368 . S
C1873 C1857 1.349 . S
C1873 H1865 0.950 . S
C1873 C1871 1.327 . S
C1874 C1862 1.349 . S
C1874 H1868 0.950 . S
C1874 C1875 1.327 . S
C1875 H1869 0.950 . S
C1875 C1874 1.327 . S
C1875 C1879 1.429 . S
C1876 C1859 1.574 . S
C1876 H1870 0.949 . S
C1876 C1880 1.368 . S
C1877 C1858 1.429 . S
C1877 C1871 1.429 . S
C1877 C1878 1.523 . S
C1878 C1859 1.368 . S
C1878 C1872 1.368 . S
C1878 C1877 1.523 . S
C1879 C1863 1.429 . S
C1879 C1875 1.429 . S
C1879 C1880 1.523 . S
C1880 C1864 1.368 . S
C1880 C1876 1.368 . S
C1880 C1879 1.523 . S
H1881 C1856 0.950 . S
H1882 C1858 0.950 . S
H1883 C1859 0.949 . S
H1884 C1861 0.950 . S
H1885 C1863 0.950 . S
C1886 C1887 1.349 . S
C1886 C1888 1.327 . S
C1886 H1911 0.950 . S
C1887 C1886 1.349 . S
C1887 C1903 1.349 . S
C1888 C1886 1.327 . S
C1888 C1907 1.429 . S
C1888 H1912 0.950 . S
C1889 C1906 1.574 . S
C1889 C1908 1.368 . S
C1889 H1913 0.949 . S
H1890 C1894 0.949 . S
C1891 C1892 1.349 . S
C1891 C1893 1.327 . S
C1891 H1914 0.950 . S
C1892 C1891 1.349 . S
C1892 C1904 1.349 . S
C1893 C1891 1.327 . S
C1893 C1909 1.429 . S
C1893 H1915 0.950 . S
C1894 H1890 0.949 . S
C1894 C1902 1.574 . S
C1894 C1910 1.368 . S
H1895 C1903 0.950 . S
H1896 C1901 0.950 . S
H1897 C1902 0.949 . S
H1898 C1904 0.950 . S
H1899 C1905 0.950 . S
H1900 C1906 0.949 . S
C1901 H1896 0.950 . S
C1901 C1903 1.327 . S
C1901 C1907 1.429 . S
C1902 C1894 1.574 . S
C1902 H1897 0.949 . S
C1902 C1908 1.368 . S
C1903 C1887 1.349 . S
C1903 H1895 0.950 . S
C1903 C1901 1.327 . S
C1904 C1892 1.349 . S
C1904 H1898 0.950 . S
C1904 C1905 1.327 . S
C1905 H1899 0.950 . S
C1905 C1904 1.327 . S
C1905 C1909 1.429 . S
C1906 C1889 1.574 . S
C1906 H1900 0.949 . S
C1906 C1910 1.368 . S
C1907 C1888 1.429 . S
C1907 C1901 1.429 . S
C1907 C1908 1.523 . S
C1908 C1889 1.368 . S
C1908 C1902 1.368 . S
C1908 C1907 1.523 . S
C1909 C1893 1.429 . S
C1909 C1905 1.429 . S
C1909 C1910 1.523 . S
C1910 C1894 1.368 . S
C1910 C1906 1.368 . S
C1910 C1909 1.523 . S
H1911 C1886 0.950 . S
H1912 C1888 0.950 . S
H1913 C1889 0.949 . S
H1914 C1891 0.950 . S
H1915 C1893 0.950 . S
C1916 C1917 1.349 . S
C1916 C1918 1.327 . S
C1916 H1941 0.950 . S
C1917 C1916 1.349 . S
C1917 C1933 1.349 . S
C1918 C1916 1.327 . S
C1918 C1937 1.429 . S
C1918 H1942 0.950 . S
C1919 C1936 1.574 . S
C1919 C1938 1.368 . S
C1919 H1943 0.949 . S
H1920 C1924 0.949 . S
C1921 C1922 1.349 . S
C1921 C1923 1.327 . S
C1921 H1944 0.950 . S
C1922 C1921 1.349 . S
C1922 C1934 1.349 . S
C1923 C1921 1.327 . S
C1923 C1939 1.429 . S
C1923 H1945 0.950 . S
C1924 H1920 0.949 . S
C1924 C1932 1.574 . S
C1924 C1940 1.368 . S
H1925 C1933 0.950 . S
H1926 C1931 0.950 . S
H1927 C1932 0.949 . S
H1928 C1934 0.950 . S
H1929 C1935 0.950 . S
H1930 C1936 0.949 . S
C1931 H1926 0.950 . S
C1931 C1933 1.327 . S
C1931 C1937 1.429 . S
C1932 C1924 1.574 . S
C1932 H1927 0.949 . S
C1932 C1938 1.368 . S
C1933 C1917 1.349 . S
C1933 H1925 0.950 . S
C1933 C1931 1.327 . S
C1934 C1922 1.349 . S
C1934 H1928 0.950 . S
C1934 C1935 1.327 . S
C1935 H1929 0.950 . S
C1935 C1934 1.327 . S
C1935 C1939 1.429 . S
C1936 C1919 1.574 . S
C1936 H1930 0.949 . S
C1936 C1940 1.368 . S
C1937 C1918 1.429 . S
C1937 C1931 1.429 . S
C1937 C1938 1.523 . S
C1938 C1919 1.368 . S
C1938 C1932 1.368 . S
C1938 C1937 1.523 . S
C1939 C1923 1.429 . S
C1939 C1935 1.429 . S
C1939 C1940 1.523 . S
C1940 C1924 1.368 . S
C1940 C1936 1.368 . S
C1940 C1939 1.523 . S
H1941 C1916 0.950 . S
H1942 C1918 0.950 . S
H1943 C1919 0.949 . S
H1944 C1921 0.950 . S
H1945 C1923 0.950 . S
C1946 C1947 1.349 . S
C1946 C1948 1.327 . S
C1946 H1971 0.950 . S
C1947 C1946 1.349 . S
C1947 C1963 1.349 . S
C1948 C1946 1.327 . S
C1948 C1967 1.429 . S
C1948 H1972 0.950 . S
C1949 C1966 1.574 . S
C1949 C1968 1.368 . S
C1949 H1973 0.949 . S
H1950 C1954 0.949 . S
C1951 C1952 1.349 . S
C1951 C1953 1.327 . S
C1951 H1974 0.950 . S
C1952 C1951 1.349 . S
C1952 C1964 1.349 . S
C1953 C1951 1.327 . S
C1953 C1969 1.429 . S
C1953 H1975 0.950 . S
C1954 H1950 0.949 . S
C1954 C1962 1.574 . S
C1954 C1970 1.368 . S
H1955 C1963 0.950 . S
H1956 C1961 0.950 . S
H1957 C1962 0.949 . S
H1958 C1964 0.950 . S
H1959 C1965 0.950 . S
H1960 C1966 0.949 . S
C1961 H1956 0.950 . S
C1961 C1963 1.327 . S
C1961 C1967 1.429 . S
C1962 C1954 1.574 . S
C1962 H1957 0.949 . S
C1962 C1968 1.368 . S
C1963 C1947 1.349 . S
C1963 H1955 0.950 . S
C1963 C1961 1.327 . S
C1964 C1952 1.349 . S
C1964 H1958 0.950 . S
C1964 C1965 1.327 . S
C1965 H1959 0.950 . S
C1965 C1964 1.327 . S
C1965 C1969 1.429 . S
C1966 C1949 1.574 . S
C1966 H1960 0.949 . S
C1966 C1970 1.368 . S
C1967 C1948 1.429 . S
C1967 C1961 1.429 . S
C1967 C1968 1.523 . S
C1968 C1949 1.368 . S
C1968 C1962 1.368 . S
C1968 C1967 1.523 . S
C1969 C1953 1.429 . S
C1969 C1965 1.429 . S
C1969 C1970 1.523 . S
C1970 C1954 1.368 . S
C1970 C1966 1.368 . S
C1970 C1969 1.523 . S
H1971 C1946 0.950 . S
H1972 C1948 0.950 . S
H1973 C1949 0.949 . S
H1974 C1951 0.950 . S
H1975 C1953 0.950 . S
C1976 C1977 1.349 . S
C1976 C1978 1.327 . S
C1976 H2001 0.950 . S
C1977 C1976 1.349 . S
C1977 C1993 1.349 . S
C1978 C1976 1.327 . S
C1978 C1997 1.429 . S
C1978 H2002 0.950 . S
C1979 C1996 1.574 . S
C1979 C1998 1.368 . S
C1979 H2003 0.949 . S
H1980 C1984 0.949 . S
C1981 C1982 1.349 . S
C1981 C1983 1.327 . S
C1981 H2004 0.950 . S
C1982 C1981 1.349 . S
C1982 C1994 1.349 . S
C1983 C1981 1.327 . S
C1983 C1999 1.429 . S
C1983 H2005 0.950 . S
C1984 H1980 0.949 . S
C1984 C1992 1.574 . S
C1984 C2000 1.368 . S
H1985 C1993 0.950 . S
H1986 C1991 0.950 . S
H1987 C1992 0.949 . S
H1988 C1994 0.950 . S
H1989 C1995 0.950 . S
H1990 C1996 0.949 . S
C1991 H1986 0.950 . S
C1991 C1993 1.327 . S
C1991 C1997 1.429 . S
C1992 C1984 1.574 . S
C1992 H1987 0.949 . S
C1992 C1998 1.368 . S
C1993 C1977 1.349 . S
C1993 H1985 0.950 . S
C1993 C1991 1.327 . S
C1994 C1982 1.349 . S
C1994 H1988 0.950 . S
C1994 C1995 1.327 . S
C1995 H1989 0.950 . S
C1995 C1994 1.327 . S
C1995 C1999 1.429 . S
C1996 C1979 1.574 . S
C1996 H1990 0.949 . S
C1996 C2000 1.368 . S
C1997 C1978 1.429 . S
C1997 C1991 1.429 . S
C1997 C1998 1.523 . S
C1998 C1979 1.368 . S
C1998 C1992 1.368 . S
C1998 C1997 1.523 . S
C1999 C1983 1.429 . S
C1999 C1995 1.429 . S
C1999 C2000 1.523 . S
C2000 C1984 1.368 . S
C2000 C1996 1.368 . S
C2000 C1999 1.523 . S
H2001 C1976 0.950 . S
H2002 C1978 0.950 . S
H2003 C1979 0.949 . S
H2004 C1981 0.950 . S
H2005 C1983 0.950 . S
C2006 C2007 1.349 . S
C2006 C2008 1.327 . S
C2006 H2031 0.950 . S
C2007 C2006 1.349 . S
C2007 C2023 1.349 . S
C2008 C2006 1.327 . S
C2008 C2027 1.429 . S
C2008 H2032 0.950 . S
C2009 C2026 1.574 . S
C2009 C2028 1.368 . S
C2009 H2033 0.949 . S
H2010 C2014 0.949 . S
C2011 C2012 1.349 . S
C2011 C2013 1.327 . S
C2011 H2034 0.950 . S
C2012 C2011 1.349 . S
C2012 C2024 1.349 . S
C2013 C2011 1.327 . S
C2013 C2029 1.429 . S
C2013 H2035 0.950 . S
C2014 H2010 0.949 . S
C2014 C2022 1.574 . S
C2014 C2030 1.368 . S
H2015 C2023 0.950 . S
H2016 C2021 0.950 . S
H2017 C2022 0.949 . S
H2018 C2024 0.950 . S
H2019 C2025 0.950 . S
H2020 C2026 0.949 . S
C2021 H2016 0.950 . S
C2021 C2023 1.327 . S
C2021 C2027 1.429 . S
C2022 C2014 1.574 . S
C2022 H2017 0.949 . S
C2022 C2028 1.368 . S
C2023 C2007 1.349 . S
C2023 H2015 0.950 . S
C2023 C2021 1.327 . S
C2024 C2012 1.349 . S
C2024 H2018 0.950 . S
C2024 C2025 1.327 . S
C2025 H2019 0.950 . S
C2025 C2024 1.327 . S
C2025 C2029 1.429 . S
C2026 C2009 1.574 . S
C2026 H2020 0.949 . S
C2026 C2030 1.368 . S
C2027 C2008 1.429 . S
C2027 C2021 1.429 . S
C2027 C2028 1.523 . S
C2028 C2009 1.368 . S
C2028 C2022 1.368 . S
C2028 C2027 1.523 . S
C2029 C2013 1.429 . S
C2029 C2025 1.429 . S
C2029 C2030 1.523 . S
C2030 C2014 1.368 . S
C2030 C2026 1.368 . S
C2030 C2029 1.523 . S
H2031 C2006 0.950 . S
H2032 C2008 0.950 . S
H2033 C2009 0.949 . S
H2034 C2011 0.950 . S
H2035 C2013 0.950 . S
C2036 C2037 1.349 . S
C2036 C2038 1.327 . S
C2036 H2061 0.950 . S
C2037 C2036 1.349 . S
C2037 C2053 1.349 . S
C2038 C2036 1.327 . S
C2038 C2057 1.429 . S
C2038 H2062 0.950 . S
C2039 C2056 1.574 . S
C2039 C2058 1.368 . S
C2039 H2063 0.949 . S
H2040 C2044 0.949 . S
C2041 C2042 1.349 . S
C2041 C2043 1.327 . S
C2041 H2064 0.950 . S
C2042 C2041 1.349 . S
C2042 C2054 1.349 . S
C2043 C2041 1.327 . S
C2043 C2059 1.429 . S
C2043 H2065 0.950 . S
C2044 H2040 0.949 . S
C2044 C2052 1.574 . S
C2044 C2060 1.368 . S
H2045 C2053 0.950 . S
H2046 C2051 0.950 . S
H2047 C2052 0.949 . S
H2048 C2054 0.950 . S
H2049 C2055 0.950 . S
H2050 C2056 0.949 . S
C2051 H2046 0.950 . S
C2051 C2053 1.327 . S
C2051 C2057 1.429 . S
C2052 C2044 1.574 . S
C2052 H2047 0.949 . S
C2052 C2058 1.368 . S
C2053 C2037 1.349 . S
C2053 H2045 0.950 . S
C2053 C2051 1.327 . S
C2054 C2042 1.349 . S
C2054 H2048 0.950 . S
C2054 C2055 1.327 . S
C2055 H2049 0.950 . S
C2055 C2054 1.327 . S
C2055 C2059 1.429 . S
C2056 C2039 1.574 . S
C2056 H2050 0.949 . S
C2056 C2060 1.368 . S
C2057 C2038 1.429 . S
C2057 C2051 1.429 . S
C2057 C2058 1.523 . S
C2058 C2039 1.368 . S
C2058 C2052 1.368 . S
C2058 C2057 1.523 . S
C2059 C2043 1.429 . S
C2059 C2055 1.429 . S
C2059 C2060 1.523 . S
C2060 C2044 1.368 . S
C2060 C2056 1.368 . S
C2060 C2059 1.523 . S
H2061 C2036 0.950 . S
H2062 C2038 0.950 . S
H2063 C2039 0.949 . S
H2064 C2041 0.950 . S
H2065 C2043 0.950 . S
C2066 C2067 1.349 . S
C2066 C2068 1.327 . S
C2066 H2091 0.950 . S
C2067 C2066 1.349 . S
C2067 C2083 1.349 . S
C2068 C2066 1.327 . S
C2068 C2087 1.429 . S
C2068 H2092 0.950 . S
C2069 C2086 1.574 . S
C2069 C2088 1.368 . S
C2069 H2093 0.949 . S
H2070 C2074 0.949 . S
C2071 C2072 1.349 . S
C2071 C2073 1.327 . S
C2071 H2094 0.950 . S
C2072 C2071 1.349 . S
C2072 C2084 1.349 . S
C2073 C2071 1.327 . S
C2073 C2089 1.429 . S
C2073 H2095 0.950 . S
C2074 H2070 0.949 . S
C2074 C2082 1.574 . S
C2074 C2090 1.368 . S
H2075 C2083 0.950 . S
H2076 C2081 0.950 . S
H2077 C2082 0.949 . S
H2078 C2084 0.950 . S
H2079 C2085 0.950 . S
H2080 C2086 0.949 . S
C2081 H2076 0.950 . S
C2081 C2083 1.327 . S
C2081 C2087 1.429 . S
C2082 C2074 1.574 . S
C2082 H2077 0.949 . S
C2082 C2088 1.368 . S
C2083 C2067 1.349 . S
C2083 H2075 0.950 . S
C2083 C2081 1.327 . S
C2084 C2072 1.349 . S
C2084 H2078 0.950 . S
C2084 C2085 1.327 . S
C2085 H2079 0.950 . S
C2085 C2084 1.327 . S
C2085 C2089 1.429 . S
C2086 C2069 1.574 . S
C2086 H2080 0.949 . S
C2086 C2090 1.368 . S
C2087 C2068 1.429 . S
C2087 C2081 1.429 . S
C2087 C2088 1.523 . S
C2088 C2069 1.368 . S
C2088 C2082 1.368 . S
C2088 C2087 1.523 . S
C2089 C2073 1.429 . S
C2089 C2085 1.429 . S
C2089 C2090 1.523 . S
C2090 C2074 1.368 . S
C2090 C2086 1.368 . S
C2090 C2089 1.523 . S
H2091 C2066 0.950 . S
H2092 C2068 0.950 . S
H2093 C2069 0.949 . S
H2094 C2071 0.950 . S
H2095 C2073 0.950 . S
C2096 C2097 1.349 . S
C2096 C2098 1.327 . S
C2096 H2121 0.950 . S
C2097 C2096 1.349 . S
C2097 C2113 1.349 . S
C2098 C2096 1.327 . S
C2098 C2117 1.429 . S
C2098 H2122 0.950 . S
C2099 C2116 1.574 . S
C2099 C2118 1.368 . S
C2099 H2123 0.949 . S
H2100 C2104 0.949 . S
C2101 C2102 1.349 . S
C2101 C2103 1.327 . S
C2101 H2124 0.950 . S
C2102 C2101 1.349 . S
C2102 C2114 1.349 . S
C2103 C2101 1.327 . S
C2103 C2119 1.429 . S
C2103 H2125 0.950 . S
C2104 H2100 0.949 . S
C2104 C2112 1.574 . S
C2104 C2120 1.368 . S
H2105 C2113 0.950 . S
H2106 C2111 0.950 . S
H2107 C2112 0.949 . S
H2108 C2114 0.950 . S
H2109 C2115 0.950 . S
H2110 C2116 0.949 . S
C2111 H2106 0.950 . S
C2111 C2113 1.327 . S
C2111 C2117 1.429 . S
C2112 C2104 1.574 . S
C2112 H2107 0.949 . S
C2112 C2118 1.368 . S
C2113 C2097 1.349 . S
C2113 H2105 0.950 . S
C2113 C2111 1.327 . S
C2114 C2102 1.349 . S
C2114 H2108 0.950 . S
C2114 C2115 1.327 . S
C2115 H2109 0.950 . S
C2115 C2114 1.327 . S
C2115 C2119 1.429 . S
C2116 C2099 1.574 . S
C2116 H2110 0.949 . S
C2116 C2120 1.368 . S
C2117 C2098 1.429 . S
C2117 C2111 1.429 . S
C2117 C2118 1.523 . S
C2118 C2099 1.368 . S
C2118 C2112 1.368 . S
C2118 C2117 1.523 . S
C2119 C2103 1.429 . S
C2119 C2115 1.429 . S
C2119 C2120 1.523 . S
C2120 C2104 1.368 . S
C2120 C2116 1.368 . S
C2120 C2119 1.523 . S
H2121 C2096 0.950 . S
H2122 C2098 0.950 . S
H2123 C2099 0.949 . S
H2124 C2101 0.950 . S
H2125 C2103 0.950 . S
C2126 C2127 1.349 . S
C2126 C2128 1.327 . S
C2126 H2151 0.950 . S
C2127 C2126 1.349 . S
C2127 C2143 1.349 . S
C2128 C2126 1.327 . S
C2128 C2147 1.429 . S
C2128 H2152 0.950 . S
C2129 C2146 1.574 . S
C2129 C2148 1.368 . S
C2129 H2153 0.949 . S
H2130 C2134 0.949 . S
C2131 C2132 1.349 . S
C2131 C2133 1.327 . S
C2131 H2154 0.950 . S
C2132 C2131 1.349 . S
C2132 C2144 1.349 . S
C2133 C2131 1.327 . S
C2133 C2149 1.429 . S
C2133 H2155 0.950 . S
C2134 H2130 0.949 . S
C2134 C2142 1.574 . S
C2134 C2150 1.368 . S
H2135 C2143 0.950 . S
H2136 C2141 0.950 . S
H2137 C2142 0.949 . S
H2138 C2144 0.950 . S
H2139 C2145 0.950 . S
H2140 C2146 0.949 . S
C2141 H2136 0.950 . S
C2141 C2143 1.327 . S
C2141 C2147 1.429 . S
C2142 C2134 1.574 . S
C2142 H2137 0.949 . S
C2142 C2148 1.368 . S
C2143 C2127 1.349 . S
C2143 H2135 0.950 . S
C2143 C2141 1.327 . S
C2144 C2132 1.349 . S
C2144 H2138 0.950 . S
C2144 C2145 1.327 . S
C2145 H2139 0.950 . S
C2145 C2144 1.327 . S
C2145 C2149 1.429 . S
C2146 C2129 1.574 . S
C2146 H2140 0.949 . S
C2146 C2150 1.368 . S
C2147 C2128 1.429 . S
C2147 C2141 1.429 . S
C2147 C2148 1.523 . S
C2148 C2129 1.368 . S
C2148 C2142 1.368 . S
C2148 C2147 1.523 . S
C2149 C2133 1.429 . S
C2149 C2145 1.429 . S
C2149 C2150 1.523 . S
C2150 C2134 1.368 . S
C2150 C2146 1.368 . S
C2150 C2149 1.523 . S
H2151 C2126 0.950 . S
H2152 C2128 0.950 . S
H2153 C2129 0.949 . S
H2154 C2131 0.950 . S
H2155 C2133 0.950 . S
C2156 C2157 1.349 . S
C2156 C2158 1.327 . S
C2156 H2181 0.950 . S
C2157 C2156 1.349 . S
C2157 C2173 1.349 . S
C2158 C2156 1.327 . S
C2158 C2177 1.429 . S
C2158 H2182 0.950 . S
C2159 C2176 1.574 . S
C2159 C2178 1.368 . S
C2159 H2183 0.949 . S
H2160 C2164 0.949 . S
C2161 C2162 1.349 . S
C2161 C2163 1.327 . S
C2161 H2184 0.950 . S
C2162 C2161 1.349 . S
C2162 C2174 1.349 . S
C2163 C2161 1.327 . S
C2163 C2179 1.429 . S
C2163 H2185 0.950 . S
C2164 H2160 0.949 . S
C2164 C2172 1.574 . S
C2164 C2180 1.368 . S
H2165 C2173 0.950 . S
H2166 C2171 0.950 . S
H2167 C2172 0.949 . S
H2168 C2174 0.950 . S
H2169 C2175 0.950 . S
H2170 C2176 0.949 . S
C2171 H2166 0.950 . S
C2171 C2173 1.327 . S
C2171 C2177 1.429 . S
C2172 C2164 1.574 . S
C2172 H2167 0.949 . S
C2172 C2178 1.368 . S
C2173 C2157 1.349 . S
C2173 H2165 0.950 . S
C2173 C2171 1.327 . S
C2174 C2162 1.349 . S
C2174 H2168 0.950 . S
C2174 C2175 1.327 . S
C2175 H2169 0.950 . S
C2175 C2174 1.327 . S
C2175 C2179 1.429 . S
C2176 C2159 1.574 . S
C2176 H2170 0.949 . S
C2176 C2180 1.368 . S
C2177 C2158 1.429 . S
C2177 C2171 1.429 . S
C2177 C2178 1.523 . S
C2178 C2159 1.368 . S
C2178 C2172 1.368 . S
C2178 C2177 1.523 . S
C2179 C2163 1.429 . S
C2179 C2175 1.429 . S
C2179 C2180 1.523 . S
C2180 C2164 1.368 . S
C2180 C2176 1.368 . S
C2180 C2179 1.523 . S
H2181 C2156 0.950 . S
H2182 C2158 0.950 . S
H2183 C2159 0.949 . S
H2184 C2161 0.950 . S
H2185 C2163 0.950 . S
C2186 C2187 1.349 . S
C2186 C2188 1.327 . S
C2186 H2211 0.950 . S
C2187 C2186 1.349 . S
C2187 C2203 1.349 . S
C2188 C2186 1.327 . S
C2188 C2207 1.429 . S
C2188 H2212 0.950 . S
C2189 C2206 1.574 . S
C2189 C2208 1.368 . S
C2189 H2213 0.949 . S
H2190 C2194 0.949 . S
C2191 C2192 1.349 . S
C2191 C2193 1.327 . S
C2191 H2214 0.950 . S
C2192 C2191 1.349 . S
C2192 C2204 1.349 . S
C2193 C2191 1.327 . S
C2193 C2209 1.429 . S
C2193 H2215 0.950 . S
C2194 H2190 0.949 . S
C2194 C2202 1.574 . S
C2194 C2210 1.368 . S
H2195 C2203 0.950 . S
H2196 C2201 0.950 . S
H2197 C2202 0.949 . S
H2198 C2204 0.950 . S
H2199 C2205 0.950 . S
H2200 C2206 0.949 . S
C2201 H2196 0.950 . S
C2201 C2203 1.327 . S
C2201 C2207 1.429 . S
C2202 C2194 1.574 . S
C2202 H2197 0.949 . S
C2202 C2208 1.368 . S
C2203 C2187 1.349 . S
C2203 H2195 0.950 . S
C2203 C2201 1.327 . S
C2204 C2192 1.349 . S
C2204 H2198 0.950 . S
C2204 C2205 1.327 . S
C2205 H2199 0.950 . S
C2205 C2204 1.327 . S
C2205 C2209 1.429 . S
C2206 C2189 1.574 . S
C2206 H2200 0.949 . S
C2206 C2210 1.368 . S
C2207 C2188 1.429 . S
C2207 C2201 1.429 . S
C2207 C2208 1.523 . S
C2208 C2189 1.368 . S
C2208 C2202 1.368 . S
C2208 C2207 1.523 . S
C2209 C2193 1.429 . S
C2209 C2205 1.429 . S
C2209 C2210 1.523 . S
C2210 C2194 1.368 . S
C2210 C2206 1.368 . S
C2210 C2209 1.523 . S
H2211 C2186 0.950 . S
H2212 C2188 0.950 . S
H2213 C2189 0.949 . S
H2214 C2191 0.950 . S
H2215 C2193 0.950 . S
C2216 C2217 1.349 . S
C2216 C2218 1.327 . S
C2216 H2241 0.950 . S
C2217 C2216 1.349 . S
C2217 C2233 1.349 . S
C2218 C2216 1.327 . S
C2218 C2237 1.429 . S
C2218 H2242 0.950 . S
C2219 C2236 1.574 . S
C2219 C2238 1.368 . S
C2219 H2243 0.949 . S
H2220 C2224 0.949 . S
C2221 C2222 1.349 . S
C2221 C2223 1.327 . S
C2221 H2244 0.950 . S
C2222 C2221 1.349 . S
C2222 C2234 1.349 . S
C2223 C2221 1.327 . S
C2223 C2239 1.429 . S
C2223 H2245 0.950 . S
C2224 H2220 0.949 . S
C2224 C2232 1.574 . S
C2224 C2240 1.368 . S
H2225 C2233 0.950 . S
H2226 C2231 0.950 . S
H2227 C2232 0.949 . S
H2228 C2234 0.950 . S
H2229 C2235 0.950 . S
H2230 C2236 0.949 . S
C2231 H2226 0.950 . S
C2231 C2233 1.327 . S
C2231 C2237 1.429 . S
C2232 C2224 1.574 . S
C2232 H2227 0.949 . S
C2232 C2238 1.368 . S
C2233 C2217 1.349 . S
C2233 H2225 0.950 . S
C2233 C2231 1.327 . S
C2234 C2222 1.349 . S
C2234 H2228 0.950 . S
C2234 C2235 1.327 . S
C2235 H2229 0.950 . S
C2235 C2234 1.327 . S
C2235 C2239 1.429 . S
C2236 C2219 1.574 . S
C2236 H2230 0.949 . S
C2236 C2240 1.368 . S
C2237 C2218 1.429 . S
C2237 C2231 1.429 . S
C2237 C2238 1.523 . S
C2238 C2219 1.368 . S
C2238 C2232 1.368 . S
C2238 C2237 1.523 . S
C2239 C2223 1.429 . S
C2239 C2235 1.429 . S
C2239 C2240 1.523 . S
C2240 C2224 1.368 . S
C2240 C2236 1.368 . S
C2240 C2239 1.523 . S
H2241 C2216 0.950 . S
H2242 C2218 0.950 . S
H2243 C2219 0.949 . S
H2244 C2221 0.950 . S
H2245 C2223 0.950 . S
C2246 C2247 1.349 . S
C2246 C2248 1.327 . S
C2246 H2271 0.950 . S
C2247 C2246 1.349 . S
C2247 C2263 1.349 . S
C2248 C2246 1.327 . S
C2248 C2267 1.429 . S
C2248 H2272 0.950 . S
C2249 C2266 1.574 . S
C2249 C2268 1.368 . S
C2249 H2273 0.949 . S
H2250 C2254 0.949 . S
C2251 C2252 1.349 . S
C2251 C2253 1.327 . S
C2251 H2274 0.950 . S
C2252 C2251 1.349 . S
C2252 C2264 1.349 . S
C2253 C2251 1.327 . S
C2253 C2269 1.429 . S
C2253 H2275 0.950 . S
C2254 H2250 0.949 . S
C2254 C2262 1.574 . S
C2254 C2270 1.368 . S
H2255 C2263 0.950 . S
H2256 C2261 0.950 . S
H2257 C2262 0.949 . S
H2258 C2264 0.950 . S
H2259 C2265 0.950 . S
H2260 C2266 0.949 . S
C2261 H2256 0.950 . S
C2261 C2263 1.327 . S
C2261 C2267 1.429 . S
C2262 C2254 1.574 . S
C2262 H2257 0.949 . S
C2262 C2268 1.368 . S
C2263 C2247 1.349 . S
C2263 H2255 0.950 . S
C2263 C2261 1.327 . S
C2264 C2252 1.349 . S
C2264 H2258 0.950 . S
C2264 C2265 1.327 . S
C2265 H2259 0.950 . S
C2265 C2264 1.327 . S
C2265 C2269 1.429 . S
C2266 C2249 1.574 . S
C2266 H2260 0.949 . S
C2266 C2270 1.368 . S
C2267 C2248 1.429 . S
C2267 C2261 1.429 . S
C2267 C2268 1.523 . S
C2268 C2249 1.368 . S
C2268 C2262 1.368 . S
C2268 C2267 1.523 . S
C2269 C2253 1.429 . S
C2269 C2265 1.429 . S
C2269 C2270 1.523 . S
C2270 C2254 1.368 . S
C2270 C2266 1.368 . S
C2270 C2269 1.523 . S
H2271 C2246 0.950 . S
H2272 C2248 0.950 . S
H2273 C2249 0.949 . S
H2274 C2251 0.950 . S
H2275 C2253 0.950 . S
C2276 C2277 1.349 . S
C2276 C2278 1.327 . S
C2276 H2301 0.950 . S
C2277 C2276 1.349 . S
C2277 C2293 1.349 . S
C2278 C2276 1.327 . S
C2278 C2297 1.429 . S
C2278 H2302 0.950 . S
C2279 C2296 1.574 . S
C2279 C2298 1.368 . S
C2279 H2303 0.949 . S
H2280 C2284 0.949 . S
C2281 C2282 1.349 . S
C2281 C2283 1.327 . S
C2281 H2304 0.950 . S
C2282 C2281 1.349 . S
C2282 C2294 1.349 . S
C2283 C2281 1.327 . S
C2283 C2299 1.429 . S
C2283 H2305 0.950 . S
C2284 H2280 0.949 . S
C2284 C2292 1.574 . S
C2284 C2300 1.368 . S
H2285 C2293 0.950 . S
H2286 C2291 0.950 . S
H2287 C2292 0.949 . S
H2288 C2294 0.950 . S
H2289 C2295 0.950 . S
H2290 C2296 0.949 . S
C2291 H2286 0.950 . S
C2291 C2293 1.327 . S
C2291 C2297 1.429 . S
C2292 C2284 1.574 . S
C2292 H2287 0.949 . S
C2292 C2298 1.368 . S
C2293 C2277 1.349 . S
C2293 H2285 0.950 . S
C2293 C2291 1.327 . S
C2294 C2282 1.349 . S
C2294 H2288 0.950 . S
C2294 C2295 1.327 . S
C2295 H2289 0.950 . S
C2295 C2294 1.327 . S
C2295 C2299 1.429 . S
C2296 C2279 1.574 . S
C2296 H2290 0.949 . S
C2296 C2300 1.368 . S
C2297 C2278 1.429 . S
C2297 C2291 1.429 . S
C2297 C2298 1.523 . S
C2298 C2279 1.368 . S
C2298 C2292 1.368 . S
C2298 C2297 1.523 . S
C2299 C2283 1.429 . S
C2299 C2295 1.429 . S
C2299 C2300 1.523 . S
C2300 C2284 1.368 . S
C2300 C2296 1.368 . S
C2300 C2299 1.523 . S
H2301 C2276 0.950 . S
H2302 C2278 0.950 . S
H2303 C2279 0.949 . S
H2304 C2281 0.950 . S
H2305 C2283 0.950 . S
C2306 C2307 1.349 . S
C2306 C2308 1.327 . S
C2306 H2331 0.950 . S
C2307 C2306 1.349 . S
C2307 C2323 1.349 . S
C2308 C2306 1.327 . S
C2308 C2327 1.429 . S
C2308 H2332 0.950 . S
C2309 C2326 1.574 . S
C2309 C2328 1.368 . S
C2309 H2333 0.949 . S
H2310 C2314 0.949 . S
C2311 C2312 1.349 . S
C2311 C2313 1.327 . S
C2311 H2334 0.950 . S
C2312 C2311 1.349 . S
C2312 C2324 1.349 . S
C2313 C2311 1.327 . S
C2313 C2329 1.429 . S
C2313 H2335 0.950 . S
C2314 H2310 0.949 . S
C2314 C2322 1.574 . S
C2314 C2330 1.368 . S
H2315 C2323 0.950 . S
H2316 C2321 0.950 . S
H2317 C2322 0.949 . S
H2318 C2324 0.950 . S
H2319 C2325 0.950 . S
H2320 C2326 0.949 . S
C2321 H2316 0.950 . S
C2321 C2323 1.327 . S
C2321 C2327 1.429 . S
C2322 C2314 1.574 . S
C2322 H2317 0.949 . S
C2322 C2328 1.368 . S
C2323 C2307 1.349 . S
C2323 H2315 0.950 . S
C2323 C2321 1.327 . S
C2324 C2312 1.349 . S
C2324 H2318 0.950 . S
C2324 C2325 1.327 . S
C2325 H2319 0.950 . S
C2325 C2324 1.327 . S
C2325 C2329 1.429 . S
C2326 C2309 1.574 . S
C2326 H2320 0.949 . S
C2326 C2330 1.368 . S
C2327 C2308 1.429 . S
C2327 C2321 1.429 . S
C2327 C2328 1.523 . S
C2328 C2309 1.368 . S
C2328 C2322 1.368 . S
C2328 C2327 1.523 . S
C2329 C2313 1.429 . S
C2329 C2325 1.429 . S
C2329 C2330 1.523 . S
C2330 C2314 1.368 . S
C2330 C2326 1.368 . S
C2330 C2329 1.523 . S
H2331 C2306 0.950 . S
H2332 C2308 0.950 . S
H2333 C2309 0.949 . S
H2334 C2311 0.950 . S
H2335 C2313 0.950 . S
C417 C134 1.304 . S
C422 C10 1.304 . S
C447 C17 1.304 . S
C452 C153 1.304 . S
C477 C36 1.304 . S
C482 C114 1.304 . S
C507 C127 1.304 . S
C512 C43 1.304 . S
C537 C192 1.304 . S
C542 C56 1.304 . S
C567 C75 1.304 . S
C572 C205 1.304 . S
C597 C166 1.304 . S
C602 C82 1.304 . S
C627 C173 1.304 . S
C632 C95 1.304 . S
C657 C348 1.304 . S
C662 C212 1.304 . S
C687 C355 1.304 . S
C692 C225 1.304 . S
C717 C322 1.304 . S
C722 C238 1.304 . S
C747 C251 1.304 . S
C752 C329 1.304 . S
C777 C394 1.304 . S
C782 C264 1.304 . S
C807 C407 1.304 . S
C812 C277 1.304 . S
C837 C290 1.304 . S
C842 C374 1.304 . S
C867 C303 1.304 . S
C872 C387 1.304 . S
C897 C257 1.257 . S
C902 C4 1.257 . S
C927 C23 1.257 . S
C932 C244 1.257 . S
C957 C231 1.257 . S
C962 C30 1.257 . S
C987 C218 1.257 . S
C992 C49 1.257 . S
C1017 C62 1.257 . S
C1022 C309 1.257 . S
C1047 C69 1.257 . S
C1052 C296 1.257 . S
C1077 C283 1.257 . S
C1082 C88 1.257 . S
C1107 C101 1.257 . S
C1112 C270 1.257 . S
C1137 C361 1.257 . S
C1142 C108 1.257 . S
C1167 C342 1.257 . S
C1172 C121 1.257 . S
C1197 C335 1.257 . S
C1202 C140 1.257 . S
C1227 C316 1.257 . S
C1232 C147 1.257 . S
C1257 C160 1.257 . S
C1262 C413 1.257 . S
C1287 C400 1.257 . S
C1292 C179 1.257 . S
C1317 C186 1.257 . S
C1322 C381 1.257 . S
C1347 C199 1.257 . S
C1352 C368 1.257 . S
C1377 C159 1.305 . S
C1382 C3 1.305 . S
C1407 C18 1.305 . S
C1412 C278 1.305 . S
C1437 C83 1.305 . S
C1442 C29 1.305 . S
C1467 C408 1.305 . S
C1472 C44 1.305 . S
C1497 C57 1.305 . S
C1502 C107 1.305 . S
C1527 C226 1.305 . S
C1532 C68 1.305 . S
C1557 C356 1.305 . S
C1562 C96 1.305 . S
C1587 C380 1.305 . S
C1592 C120 1.305 . S
C1617 C135 1.305 . S
C1622 C185 1.305 . S
C1647 C304 1.305 . S
C1652 C146 1.305 . S
C1677 C330 1.305 . S
C1682 C174 1.305 . S
C1707 C198 1.305 . S
C1712 C252 1.305 . S
C1737 C213 1.305 . S
C1742 C367 1.305 . S
C1767 C291 1.305 . S
C1772 C239 1.305 . S
C1797 C315 1.305 . S
C1802 C265 1.305 . S
C1827 C341 1.305 . S
C1832 C395 1.305 . S
C1857 C5 1.181 . S
C1862 C42 1.181 . S
C1887 C31 1.181 . S
C1892 C16 1.181 . S
C1917 C55 1.181 . S
C1922 C94 1.181 . S
C1947 C70 1.181 . S
C1952 C81 1.181 . S
C1977 C109 1.181 . S
C1982 C148 1.181 . S
C2007 C122 1.181 . S
C2012 C133 1.181 . S
C2037 C161 1.181 . S
C2042 C200 1.181 . S
C2067 C187 1.181 . S
C2072 C172 1.181 . S
C2097 C250 1.181 . S
C2102 C211 1.181 . S
C2127 C237 1.181 . S
C2132 C224 1.181 . S
C2157 C302 1.181 . S
C2162 C263 1.181 . S
C2187 C289 1.181 . S
C2192 C276 1.181 . S
C2217 C354 1.181 . S
C2222 C317 1.181 . S
C2247 C343 1.181 . S
C2252 C328 1.181 . S
C2277 C369 1.181 . S
C2282 C406 1.181 . S
C2307 C393 1.181 . S
C2312 C382 1.181 . S
