# Generated by pormake.
# Topology ilc, (8)-cn, num edge types: 1
# Building blocks:
#     Node 0, Type 0, BuildingBlock: XADDAJ01_clean_sbu_3, # of connection points: 8
#     Node 1, Type 0, BuildingBlock: XADDAJ01_clean_sbu_3, # of connection points: 8
#     Node 2, Type 0, BuildingBlock: XADDAJ01_clean_sbu_3, # of connection points: 8
#     Edge 3, Type (0, 0), BuildingBlock: UKIBIB_clean_linker_0, # of connection points: 2
#     Edge 4, Type (0, 0), BuildingBlock: UKIBIB_clean_linker_0, # of connection points: 2
#     Edge 5, Type (0, 0), BuildingBlock: UKIBIB_clean_linker_0, # of connection points: 2
#     Edge 6, Type (0, 0), BuildingBlock: UKIBIB_clean_linker_0, # of connection points: 2
#     Edge 7, Type (0, 0), BuildingBlock: UKIBIB_clean_linker_0, # of connection points: 2
#     Edge 8, Type (0, 0), BuildingBlock: UKIBIB_clean_linker_0, # of connection points: 2
#     Edge 9, Type (0, 0), BuildingBlock: UKIBIB_clean_linker_0, # of connection points: 2
#     Edge 10, Type (0, 0), BuildingBlock: UKIBIB_clean_linker_0, # of connection points: 2
#     Edge 11, Type (0, 0), BuildingBlock: UKIBIB_clean_linker_0, # of connection points: 2
#     Edge 12, Type (0, 0), BuildingBlock: UKIBIB_clean_linker_0, # of connection points: 2
#     Edge 13, Type (0, 0), BuildingBlock: UKIBIB_clean_linker_0, # of connection points: 2
#     Edge 14, Type (0, 0), BuildingBlock: UKIBIB_clean_linker_0, # of connection points: 2
# Relax obj value: 0.140
# Max RMSD: 0.200
# Mean RMSD: 0.200
data_MOF--net-ilc--node1-XADDAJ01_clean_sbu_3--edge1-UKIBIB_clean_linker_0
_symmetry_space_group_name_H-M    P1
_symmetry_Int_Tables_number       1
_symmetry_cell_setting            triclinic
loop_
_symmetry_equiv_pos_as_xyz
'x, y, z'
_cell_length_a     27.608428
_cell_length_b     37.472165
_cell_length_c     25.422529
_cell_angle_alpha  97.406469
_cell_angle_beta   82.500821
_cell_angle_gamma 138.16917
loop_
_atom_site_label
_atom_site_type_symbol
_atom_site_fract_x
_atom_site_fract_y
_atom_site_fract_z
_atom_type_partial_charge
C0 C 0.14171 1.00925 0.10552 0.0
C1 C 0.14839 0.03545 0.15349 0.0
C2 C 0.16036 0.02718 0.19971 0.0
C3 C 0.16491 0.99274 0.19859 0.0
C4 C 0.14769 0.96017 0.15387 0.0
C5 C 0.13869 0.96962 0.10578 0.0
O6 O 0.99285 0.01932 0.04709 0.0
Tb7 Tb 0.1073 0.06765 0.02959 0.0
Tb8 Tb 0.98255 0.96569 0.9335 0.0
O9 O 0.13834 0.12904 0.08987 0.0
O10 O 0.94091 0.93779 0.01404 0.0
O11 O 0.18629 0.07714 0.05297 0.0
C12 C 0.94304 1.00389 0.90844 0.0
O13 O 0.07632 0.99757 0.03985 0.0
O14 O 0.09689 1.0151 0.91362 0.0
O15 O 0.15131 0.09662 0.94907 0.0
C16 C 0.14033 0.02529 0.05613 0.0
C17 C 0.98291 0.88792 0.87323 0.0
O18 O 1.01728 0.89957 0.91462 0.0
C19 C 0.94287 0.96715 0.05075 0.0
C20 C 0.14755 0.06738 0.91063 0.0
O21 O 0.95784 0.90718 0.87211 0.0
C22 C 0.94913 0.02454 0.85967 0.0
C23 C 0.96957 0.08793 0.81197 0.0
C24 C 0.9453 0.06046 0.859 0.0
C25 C 0.96239 1.00952 0.81161 0.0
C26 C 0.9904 0.04 0.76809 0.0
C27 C 1.0079 0.08575 0.77304 0.0
C28 C 0.11293 0.14826 0.09074 0.0
O29 O 0.07204 0.13304 0.05256 0.0
O30 O 0.90143 0.95234 0.90627 0.0
O31 O 1.00546 0.03278 0.92924 0.0
H32 H 0.14399 0.06202 0.15503 0.0
H33 H 0.17379 0.98659 0.23528 0.0
H34 H 0.12915 0.94666 0.06971 0.0
H35 H 0.92256 0.06553 0.89304 0.0
H36 H 0.95341 0.9758 0.80839 0.0
H37 H 1.03306 0.11016 0.73869 0.0
C38 C 0.81899 0.34735 0.43676 0.0
C39 C 0.81992 0.37049 0.48504 0.0
C40 C 0.79148 0.34196 0.53009 0.0
C41 C 0.75669 0.28998 0.52542 0.0
C42 C 0.78639 0.27954 0.48739 0.0
C43 C 0.81139 0.30516 0.43845 0.0
O44 O 0.6663 0.35422 0.38003 0.0
Tb45 Tb 0.78156 0.40441 0.36347 0.0
Tb46 Tb 0.65245 0.30126 0.26476 0.0
O47 O 0.80465 0.46197 0.42561 0.0
O48 O 0.60949 0.27187 0.34509 0.0
O49 O 0.86345 0.41747 0.388 0.0
C50 C 0.61347 0.33959 0.23917 0.0
O51 O 0.75735 0.33677 0.36935 0.0
O52 O 0.76744 0.35144 0.24932 0.0
O53 O 0.82458 0.43397 0.2835 0.0
C54 C 0.82118 0.36587 0.38772 0.0
C55 C 0.64696 0.21977 0.20758 0.0
O56 O 0.66417 0.22176 0.25446 0.0
C57 C 0.6159 0.30203 0.38408 0.0
C58 C 0.81743 0.40345 0.24471 0.0
O59 O 0.63403 0.24656 0.20125 0.0
C60 C 0.6165 0.35968 0.19114 0.0
C61 C 0.64155 0.42671 0.14627 0.0
C62 C 0.62475 0.40225 0.19364 0.0
C63 C 0.61196 0.33642 0.14139 0.0
C64 C 0.62632 0.36031 0.0957 0.0
C65 C 0.65138 0.40903 0.09936 0.0
C66 C 0.78184 0.48278 0.42342 0.0
O67 O 0.75036 0.47292 0.3809 0.0
O68 O 0.57144 0.28794 0.23767 0.0
O69 O 0.67643 0.36878 0.25922 0.0
H70 H 0.83872 0.40836 0.48738 0.0
H71 H 0.72324 0.26481 0.55902 0.0
H72 H 0.82496 0.29352 0.40364 0.0
H73 H 0.6192 0.41631 0.23135 0.0
H74 H 0.59855 0.30071 0.13808 0.0
H75 H 0.66898 0.42918 0.06298 0.0
C76 C 0.47485 0.67421 0.77026 0.0
C77 C 0.47218 0.69465 0.81923 0.0
C78 C 0.48413 0.68612 0.86501 0.0
C79 C 0.49792 0.65732 0.86292 0.0
C80 C 0.48847 0.62904 0.81657 0.0
C81 C 0.47936 0.63868 0.76878 0.0
O82 O 0.33078 0.68811 0.71385 0.0
Tb83 Tb 0.44473 0.73621 0.69746 0.0
Tb84 Tb 0.32435 0.63682 0.60102 0.0
O85 O 0.46617 0.79186 0.76139 0.0
O86 O 0.27661 0.60632 0.68051 0.0
O87 O 0.52243 0.7452 0.72244 0.0
C88 C 0.29383 0.68117 0.57586 0.0
O89 O 0.41409 0.6658 0.7035 0.0
O90 O 0.43882 0.68499 0.58346 0.0
O91 O 0.49058 0.7662 0.61759 0.0
C92 C 0.47696 0.69305 0.72193 0.0
C93 C 0.31941 0.55682 0.53908 0.0
O94 O 0.36068 0.57223 0.57704 0.0
C95 C 0.28062 0.63609 0.71822 0.0
C96 C 0.48905 0.73728 0.58042 0.0
O97 O 0.29357 0.57577 0.54029 0.0
C98 C 0.29488 0.69892 0.52702 0.0
C99 C 0.27448 0.73925 0.47958 0.0
C100 C 0.29036 0.73438 0.52719 0.0
C101 C 0.29495 0.6765 0.47861 0.0
C102 C 0.27525 0.6798 0.43357 0.0
C103 C 0.25548 0.7047 0.43633 0.0
C104 C 0.45282 0.81852 0.75587 0.0
O105 O 0.43395 0.81594 0.70955 0.0
O106 O 0.24753 0.62905 0.57665 0.0
O107 O 0.35676 0.70788 0.59341 0.0
H108 H 0.46143 0.71741 0.82172 0.0
H109 H 0.50658 0.6511 0.89974 0.0
H110 H 0.47584 0.61922 0.73166 0.0
H111 H 0.29925 0.75745 0.56293 0.0
H112 H 0.30886 0.65581 0.47613 0.0
H113 H 0.23985 0.70622 0.40025 0.0
C114 C 0.05212 0.04192 0.68908 0.0
C115 C 0.98752 0.02033 0.71458 0.0
C116 C 0.05819 0.03967 0.63415 0.0
C117 C 0.07601 1.01259 0.26589 0.0
C118 C 0.14765 0.04037 0.25202 0.0
C119 C 0.05114 1.00299 0.31862 0.0
H120 H 0.87822 0.97949 0.70473 0.0
H121 H 0.88957 0.97595 0.60722 0.0
H122 H 0.25028 0.08141 0.28122 0.0
H123 H 0.20671 0.06624 0.3749 0.0
C124 C 0.928 0.9952 0.68512 0.0
C125 C 0.93471 0.9941 0.63006 0.0
C126 C 0.19561 0.06153 0.29168 0.0
C127 C 0.17034 0.0514 0.34447 0.0
C128 C 0.99971 1.01605 0.60506 0.0
C129 C 1.00515 1.00993 0.54969 0.0
C130 C 1.02095 1.00867 0.50447 0.0
C131 C 0.09814 0.02195 0.35741 0.0
C132 C 0.07387 1.01657 0.41086 0.0
C133 C 1.04778 1.00991 0.45436 0.0
H134 H 0.09883 0.06298 0.71162 0.0
H135 H 0.10863 0.05667 0.6144 0.0
H136 H 1.03758 0.99424 0.23574 0.0
H137 H 0.99515 0.98034 0.32907 0.0
C138 C 0.75563 0.36771 0.60352 0.0
C139 C 0.8024 0.36531 0.58307 0.0
C140 C 0.73927 0.36453 0.65766 0.0
C141 C 0.66171 0.33117 0.02546 0.0
C142 C 0.61859 0.33782 0.0424 0.0
C143 C 0.68327 0.33556 0.97219 0.0
H144 H 0.87768 0.36579 0.60128 0.0
H145 H 0.84485 0.35663 0.69688 0.0
H146 H 0.55571 0.34699 0.01793 0.0
H147 H 0.59661 0.35693 0.92451 0.0
C148 C 0.8395 0.36602 0.61709 0.0
C149 C 0.82057 0.36027 0.67094 0.0
C150 C 0.58938 0.34187 0.00509 0.0
C151 C 0.61372 0.3488 0.95242 0.0
C152 C 0.76991 0.359 0.69057 0.0
C153 C 0.75298 0.35643 0.74514 0.0
C154 C 0.73314 0.35493 0.7896 0.0
C155 C 0.66144 0.34645 0.93667 0.0
C156 C 0.68522 0.35203 0.88334 0.0
C157 C 0.70893 0.35572 0.83978 0.0
H158 H 0.727 0.36709 0.57738 0.0
H159 H 0.70088 0.36452 0.67358 0.0
H160 H 0.68455 0.32813 0.05373 0.0
H161 H 0.71942 0.33282 0.95909 0.0
C162 C 0.39366 0.6495 0.93706 0.0
C163 C 0.46446 0.69386 0.91683 0.0
C164 C 0.37776 0.64732 -0.00887 0.0
C165 C 0.36738 0.72041 0.36179 0.0
C166 C 0.29685 0.67449 0.38121 0.0
C167 C 0.3844 0.72404 0.30776 0.0
H168 H 0.57477 0.76923 0.93518 0.0
H169 H 0.54509 0.76725 0.03114 0.0
H170 H 0.18789 0.59848 0.3613 0.0
H171 H 0.21962 0.60316 0.26552 0.0
C172 C 0.51926 0.73628 0.95053 0.0
C173 C 0.50295 0.73442 0.00475 0.0
C174 C 0.24333 0.63252 0.3466 0.0
C175 C 0.26073 0.6359 0.2925 0.0
C176 C 0.43239 0.6899 0.02448 0.0
C177 C 0.41392 0.68951 0.07852 0.0
C178 C 0.39482 0.68676 0.12361 0.0
C179 C 0.33118 0.68144 0.27365 0.0
C180 C 0.35121 0.68221 0.21995 0.0
C181 C 0.37028 0.6844 0.17497 0.0
H182 H 0.35213 0.61525 0.91132 0.0
H183 H 0.32321 0.61261 0.00683 0.0
H184 H 0.40779 0.75446 0.38821 0.0
H185 H 0.43883 0.7596 0.29273 0.0
C186 C 0.331 0.81093 0.4209 0.0
C187 C 0.2869 0.78325 0.46719 0.0
C188 C 0.31662 0.82971 0.38937 0.0
C189 C 0.09335 0.88611 0.20794 0.0
C190 C 0.13818 0.91689 0.16316 0.0
C191 C 0.11124 0.86925 0.23866 0.0
H192 H 0.20181 0.76184 0.52087 0.0
H193 H 0.18235 0.80093 0.4683 0.0
H194 H 0.22861 0.94557 0.11081 0.0
H195 H 0.25486 0.91022 0.16165 0.0
C196 C 0.23663 0.78307 0.48578 0.0
C197 C 0.22447 0.80426 0.4551 0.0
C198 C 0.19307 0.92185 0.1447 0.0
C199 C 0.20914 0.90286 0.17452 0.0
C200 C 0.26159 0.82477 0.40537 0.0
C201 C 0.24013 0.83668 0.36833 0.0
C202 C 0.22649 0.84766 0.33445 0.0
C203 C 0.17087 0.87934 0.22317 0.0
C204 C 0.19522 0.86928 0.25969 0.0
C205 C 0.21053 0.85932 0.2933 0.0
H206 H 0.36953 0.811 0.40507 0.0
H207 H 0.34564 0.84518 0.35105 0.0
H208 H 0.05135 0.88237 0.22374 0.0
H209 H 0.08119 0.85131 0.27615 0.0
C210 C 0.35304 0.51824 0.47787 0.0
C211 C 0.30251 0.51838 0.49562 0.0
C212 C 0.33662 0.48174 0.43701 0.0
C213 C 0.07928 0.18682 0.15189 0.0
C214 C 0.12983 0.18672 0.13414 0.0
C215 C 0.09565 0.22328 0.1928 0.0
H216 H 0.19485 0.47934 0.48511 0.0
H217 H 0.16563 0.41492 0.41499 0.0
H218 H 0.23746 0.22572 0.1447 0.0
H219 H 0.26663 0.29009 0.21486 0.0
C220 C 0.23517 0.48077 0.472 0.0
C221 C 0.21836 0.44379 0.43198 0.0
C222 C 0.19714 0.22429 0.1578 0.0
C223 C 0.21392 0.26123 0.19785 0.0
C224 C 0.26886 0.44408 0.41382 0.0
C225 C 0.25011 0.40577 0.3713 0.0
C226 C 0.22937 0.37235 0.33582 0.0
C227 C 0.1634 0.26092 0.21602 0.0
C228 C 0.18211 0.29919 0.25856 0.0
C229 C 0.20283 0.33259 0.29406 0.0
H230 H 0.40563 0.54684 0.49509 0.0
H231 H 0.37674 0.48295 0.42365 0.0
H232 H 1.02669 0.15822 0.13466 0.0
H233 H 0.05551 0.22204 0.20616 0.0
C234 C 0.52747 0.78301 0.49648 0.0
C235 C 0.53513 0.76096 0.53056 0.0
C236 C 0.56671 0.80177 0.44721 0.0
C237 C 0.90499 0.92201 0.13475 0.0
C238 C 0.89731 0.94401 0.10067 0.0
C239 C 0.86576 0.90331 0.18396 0.0
H240 H 0.58727 0.73902 0.53906 0.0
H241 H 0.65852 0.77407 0.45364 0.0
H242 H 0.84519 0.96591 0.09184 0.0
H243 H 0.7739 0.93096 0.17727 0.0
C244 C 0.58167 0.75697 0.51399 0.0
C245 C 0.62195 0.77664 0.46508 0.0
C246 C 0.85081 0.94804 0.11705 0.0
C247 C 0.81051 0.92843 0.16592 0.0
C248 C 0.61511 0.79951 0.4314 0.0
C249 C 0.65886 0.82194 0.38155 0.0
C250 C 0.69478 0.8409 0.33982 0.0
C251 C 0.81734 0.90557 0.19964 0.0
C252 C 0.77352 0.88308 0.24941 0.0
C253 C 0.73757 0.86406 0.29111 0.0
H254 H 0.48996 0.78473 0.50752 0.0
H255 H 0.55954 0.8184 0.4216 0.0
H256 H 0.94243 0.92022 0.1237 0.0
H257 H 0.87289 0.88669 0.20961 0.0
C258 C 0.82495 0.23339 0.47609 0.0
C259 C 0.80666 0.25603 0.50815 0.0
C260 C 0.84553 0.21417 0.49981 0.0
C261 C 0.94211 0.14066 0.81918 0.0
C262 C 0.93955 0.10411 0.79218 0.0
C263 C 0.92754 0.16237 0.79198 0.0
H264 H 0.80036 0.27659 0.59232 0.0
H265 H 0.83516 0.24556 0.62963 0.0
H266 H 0.91109 0.05769 0.71737 0.0
H267 H 0.89301 0.09796 0.67082 0.0
C268 C 0.81162 0.25945 0.56395 0.0
C269 C 0.83236 0.24142 0.58672 0.0
C270 C 0.91647 0.08695 0.73952 0.0
C271 C 0.9055 0.10984 0.71238 0.0
C272 C 0.84909 0.21847 0.55549 0.0
C273 C 0.86902 0.20041 0.58411 0.0
C274 C 0.88182 0.19119 0.62072 0.0
C275 C 0.91179 0.14808 0.73778 0.0
C276 C 0.90325 0.17171 0.70519 0.0
C277 C 0.8938 0.1826 0.66782 0.0
H278 H 0.82291 0.2302 0.43334 0.0
H279 H 0.85867 0.1963 0.47498 0.0
H280 H 0.95837 0.15409 0.85981 0.0
H281 H 0.93117 0.19142 0.81248 0.0
C282 C 0.74421 0.5049 0.50568 0.0
C283 C 0.79743 0.52115 0.46593 0.0
C284 C 0.76065 0.54174 0.54614 0.0
C285 C 1.021 0.86624 0.79096 0.0
C286 C 0.96752 0.84976 0.83058 0.0
C287 C 1.00484 0.82962 0.75036 0.0
H288 H 0.9069 0.58903 0.43506 0.0
H289 H 0.93568 0.65323 0.50554 0.0
H290 H 0.85784 0.78177 0.86099 0.0
H291 H 0.82962 0.71787 0.79037 0.0
C292 C 0.86571 0.57524 0.46595 0.0
C293 C 0.88197 0.61197 0.50608 0.0
C294 C 0.89922 0.7957 0.83022 0.0
C295 C 0.8833 0.75915 0.79002 0.0
C296 C 0.83031 0.59543 0.54721 0.0
C297 C 0.8506 0.6331 0.59131 0.0
C298 C 0.87047 0.66616 0.62704 0.0
C299 C 0.93524 0.7759 0.74906 0.0
C300 C 0.91526 0.73839 0.70489 0.0
C301 C 0.89551 0.70538 0.66914 0.0
H302 H 0.69045 0.46362 0.50598 0.0
H303 H 0.71948 0.52806 0.57706 0.0
H304 H 0.07471 0.90755 0.79086 0.0
H305 H 1.04618 0.84347 0.71953 0.0
C306 C 0.5703 0.31104 0.47171 0.0
C307 C 0.56691 0.27848 0.43331 0.0
C308 C 0.52835 0.29049 0.51983 0.0
C309 C 0.19546 0.05995 0.82341 0.0
C310 C 0.19788 0.09187 0.86207 0.0
C311 C 0.23807 0.08118 0.77563 0.0
H312 H 0.51505 0.19831 0.41567 0.0
H313 H 0.44184 0.16255 0.4999 0.0
H314 H 0.24912 0.17179 0.88065 0.0
H315 H 0.32362 0.20878 0.797 0.0
C316 C 0.51912 0.22452 0.44407 0.0
C317 C 0.47732 0.20406 0.49237 0.0
C318 C 0.24569 0.14602 0.852 0.0
C319 C 0.28823 0.16718 0.80403 0.0
C320 C 0.48197 0.23691 0.53083 0.0
C321 C 0.43991 0.21579 0.58154 0.0
C322 C 0.40438 0.19737 0.62354 0.0
C323 C 0.28428 0.13486 0.76522 0.0
C324 C 0.32671 0.15652 0.71471 0.0
C325 C 0.36243 0.17519 0.67281 0.0
H326 H 0.60612 0.35279 0.46497 0.0
H327 H 0.53283 0.3167 0.54867 0.0
H328 H 0.15971 1.01812 0.82962 0.0
H329 H 0.23416 0.05539 0.74652 0.0
C330 C 0.56353 0.43804 0.14667 0.0
C331 C 0.63325 0.4606 0.13827 0.0
C332 C 0.54138 0.45159 0.11499 0.0
C333 C 0.54596 0.60083 0.81532 0.0
C334 C 0.48305 0.58777 0.82429 0.0
C335 C 0.55859 0.58111 0.84787 0.0
H336 H 0.73649 0.51921 0.09341 0.0
H337 H 0.69662 0.54065 0.03708 0.0
H338 H 0.38124 0.5403 0.87125 0.0
H339 H 0.40375 0.50648 0.92796 0.0
C340 C 0.6828 0.50166 0.10172 0.0
C341 C 0.65965 0.51317 0.06857 0.0
C342 C 0.42921 0.5497 0.86223 0.0
C343 C 0.44279 0.5314 0.89563 0.0
C344 C 0.58844 0.48738 0.07421 0.0
C345 C 0.56428 0.49689 0.03667 0.0
C346 C 0.55013 0.50783 0.00318 0.0
C347 C 0.50854 0.54842 0.88974 0.0
C348 C 0.5258 0.53487 0.92882 0.0
C349 C 0.53705 0.52222 0.96276 0.0
H350 H 0.5237 0.40585 0.17361 0.0
H351 H 0.48622 0.4317 0.12023 0.0
H352 H 0.5888 0.63086 0.78738 0.0
H353 H 0.60959 0.59434 0.84264 0.0
C354 C 0.42279 0.83663 0.84687 0.0
C355 C 0.46591 0.85557 0.799 0.0
C356 C 0.43724 0.87277 0.88728 0.0
C357 C 0.67715 0.20165 0.11672 0.0
C358 C 0.63425 0.18275 0.16467 0.0
C359 C 0.66233 0.16547 0.07617 0.0
H360 H 0.55387 0.92637 0.75459 0.0
H361 H 0.5809 0.98943 0.82573 0.0
H362 H 0.54603 0.11195 0.20902 0.0
H363 H 0.51835 0.04881 0.13764 0.0
C364 C 0.52098 0.91085 0.79147 0.0
C365 C 0.53616 0.94688 0.83206 0.0
C366 C 0.57892 0.12745 0.17213 0.0
C367 C 0.56332 0.09137 0.13139 0.0
C368 C 0.4956 0.92836 0.88079 0.0
C369 C 0.51726 0.96654 0.92477 0.0
C370 C 0.53689 0.99952 0.96052 0.0
C371 C 0.60372 0.10987 0.0826 0.0
C372 C 0.5818 0.07169 0.03853 0.0
C373 C 0.56196 0.03872 0.00269 0.0
H374 H 0.37827 0.79404 0.85311 0.0
H375 H 0.40418 0.85738 0.92412 0.0
H376 H 0.72171 0.24424 0.11047 0.0
H377 H 0.69524 0.18083 0.03927 0.0
C378 C 0.25757 0.64587 0.81496 0.0
C379 C 0.23333 0.6131 0.76794 0.0
C380 C 0.21523 0.62481 0.86276 0.0
C381 C 0.84146 0.39313 0.14858 0.0
C382 C 0.86543 0.42619 0.19533 0.0
C383 C 0.88413 0.41382 0.10092 0.0
H384 H 0.14416 0.53301 0.73413 0.0
H385 H 0.06937 0.49637 0.81788 0.0
H386 H 0.95511 0.50624 0.22909 0.0
H387 H 1.03038 0.54231 0.14546 0.0
C388 C 0.16475 0.55907 0.76968 0.0
C389 C 0.12192 0.53818 0.8175 0.0
C390 C 0.9345 0.48003 0.19365 0.0
C391 C 0.97763 0.50058 0.14592 0.0
C392 C 0.14725 0.57066 0.86454 0.0
C393 C 0.10479 0.54821 0.91476 0.0
C394 C 0.07 0.53007 0.95695 0.0
C395 C 0.9522 0.46788 0.099 0.0
C396 C 0.99442 0.4901 0.04867 0.0
C397 C 1.02935 0.50836 0.00655 0.0
H398 H 0.31023 0.68771 0.81513 0.0
H399 H 0.23607 0.65075 0.89846 0.0
H400 H 0.78866 0.35136 0.14844 0.0
H401 H 0.86331 0.38769 0.06537 0.0
loop_
_geom_bond_atom_site_label_1
_geom_bond_atom_site_label_2
_geom_bond_distance
_geom_bond_site_symmetry_2
_ccdc_geom_bond_type
C0 C1 1.386 . S
C0 C5 1.384 1_545 S
C0 C16 1.497 . S
C1 C0 1.386 . S
C1 C2 1.393 1_545 S
C1 H32 0.932 . S
C2 C1 1.393 1_565 S
C2 C3 1.387 . S
C3 C2 1.387 . S
C3 C4 1.392 . S
C3 H33 0.930 . S
C4 C3 1.392 . S
C4 C5 1.402 . S
C5 C0 1.384 1_565 S
C5 C4 1.402 . S
C5 H34 0.930 . S
O6 Tb7 2.288 1_655 S
O6 C19 1.257 1_545 S
Tb7 O6 2.288 1_455 S
Tb7 O9 2.303 . S
Tb7 O11 2.430 . S
Tb7 O13 2.459 . S
Tb7 O15 2.301 1_554 S
Tb7 C16 2.808 . S
Tb8 O10 2.301 1_556 S
Tb8 C12 2.808 . S
Tb8 O14 2.288 1_655 S
Tb8 O21 2.303 . S
Tb8 O30 2.430 . S
Tb8 O31 2.459 . S
O9 Tb7 2.303 . S
O9 C28 1.255 . S
O10 Tb8 2.301 1_554 S
O10 C19 1.237 . S
O11 Tb7 2.430 . S
O11 C16 1.248 . S
C12 Tb8 2.808 . S
C12 C22 1.497 . S
C12 O30 1.248 . S
C12 O31 1.260 . S
O13 Tb7 2.459 . S
O13 C16 1.260 . S
O14 Tb8 2.288 1_455 S
O14 C20 1.257 1_565 S
O15 Tb7 2.301 1_556 S
O15 C20 1.237 . S
C16 C0 1.497 . S
C16 Tb7 2.808 . S
C16 O11 1.248 . S
C16 O13 1.260 . S
C17 O18 1.255 . S
C17 O21 1.255 . S
O18 C17 1.255 . S
C19 O6 1.257 1_565 S
C19 O10 1.237 . S
C20 O14 1.257 1_545 S
C20 O15 1.237 . S
O21 Tb8 2.303 . S
O21 C17 1.255 . S
C22 C12 1.497 . S
C22 C24 1.384 1_565 S
C22 C25 1.386 . S
C23 C24 1.402 . S
C23 C27 1.392 . S
C24 C22 1.384 1_545 S
C24 C23 1.402 . S
C24 H35 0.930 . S
C25 C22 1.386 . S
C25 C26 1.393 1_565 S
C25 H36 0.932 . S
C26 C25 1.393 1_545 S
C26 C27 1.387 . S
C27 C23 1.392 . S
C27 C26 1.387 . S
C27 H37 0.930 . S
C28 O9 1.255 . S
C28 O29 1.255 . S
O29 C28 1.255 . S
O30 Tb8 2.430 . S
O30 C12 1.248 . S
O31 Tb8 2.459 . S
O31 C12 1.260 . S
H32 C1 0.932 . S
H33 C3 0.930 . S
H34 C5 0.930 . S
H35 C24 0.930 . S
H36 C25 0.932 . S
H37 C27 0.930 . S
C38 C39 1.386 . S
C38 C43 1.384 . S
C38 C54 1.497 . S
C39 C38 1.386 . S
C39 C40 1.393 . S
C39 H70 0.932 . S
C40 C39 1.393 . S
C40 C41 1.387 . S
C41 C40 1.387 . S
C41 C42 1.392 . S
C41 H71 0.930 . S
C42 C41 1.392 . S
C42 C43 1.402 . S
C43 C38 1.384 . S
C43 C42 1.402 . S
C43 H72 0.930 . S
O44 Tb45 2.288 . S
O44 C57 1.257 . S
Tb45 O44 2.288 . S
Tb45 O47 2.303 . S
Tb45 O49 2.430 . S
Tb45 O51 2.459 . S
Tb45 O53 2.301 . S
Tb45 C54 2.808 . S
Tb46 O48 2.301 . S
Tb46 C50 2.808 . S
Tb46 O52 2.288 . S
Tb46 O59 2.303 . S
Tb46 O68 2.430 . S
Tb46 O69 2.459 . S
O47 Tb45 2.303 . S
O47 C66 1.255 . S
O48 Tb46 2.301 . S
O48 C57 1.237 . S
O49 Tb45 2.430 . S
O49 C54 1.248 . S
C50 Tb46 2.808 . S
C50 C60 1.497 . S
C50 O68 1.248 . S
C50 O69 1.260 . S
O51 Tb45 2.459 . S
O51 C54 1.260 . S
O52 Tb46 2.288 . S
O52 C58 1.257 . S
O53 Tb45 2.301 . S
O53 C58 1.237 . S
C54 C38 1.497 . S
C54 Tb45 2.808 . S
C54 O49 1.248 . S
C54 O51 1.260 . S
C55 O56 1.255 . S
C55 O59 1.255 . S
O56 C55 1.255 . S
C57 O44 1.257 . S
C57 O48 1.237 . S
C58 O52 1.257 . S
C58 O53 1.237 . S
O59 Tb46 2.303 . S
O59 C55 1.255 . S
C60 C50 1.497 . S
C60 C62 1.384 . S
C60 C63 1.386 . S
C61 C62 1.402 . S
C61 C65 1.392 . S
C62 C60 1.384 . S
C62 C61 1.402 . S
C62 H73 0.930 . S
C63 C60 1.386 . S
C63 C64 1.393 . S
C63 H74 0.932 . S
C64 C63 1.393 . S
C64 C65 1.387 . S
C65 C61 1.392 . S
C65 C64 1.387 . S
C65 H75 0.930 . S
C66 O47 1.255 . S
C66 O67 1.255 . S
O67 C66 1.255 . S
O68 Tb46 2.430 . S
O68 C50 1.248 . S
O69 Tb46 2.459 . S
O69 C50 1.260 . S
H70 C39 0.932 . S
H71 C41 0.930 . S
H72 C43 0.930 . S
H73 C62 0.930 . S
H74 C63 0.932 . S
H75 C65 0.930 . S
C76 C77 1.386 . S
C76 C81 1.384 . S
C76 C92 1.497 . S
C77 C76 1.386 . S
C77 C78 1.393 . S
C77 H108 0.932 . S
C78 C77 1.393 . S
C78 C79 1.387 . S
C79 C78 1.387 . S
C79 C80 1.392 . S
C79 H109 0.930 . S
C80 C79 1.392 . S
C80 C81 1.402 . S
C81 C76 1.384 . S
C81 C80 1.402 . S
C81 H110 0.930 . S
O82 Tb83 2.288 . S
O82 C95 1.257 . S
Tb83 O82 2.288 . S
Tb83 O85 2.303 . S
Tb83 O87 2.430 . S
Tb83 O89 2.459 . S
Tb83 O91 2.301 . S
Tb83 C92 2.808 . S
Tb84 O86 2.301 . S
Tb84 C88 2.808 . S
Tb84 O90 2.288 . S
Tb84 O97 2.303 . S
Tb84 O106 2.430 . S
Tb84 O107 2.459 . S
O85 Tb83 2.303 . S
O85 C104 1.255 . S
O86 Tb84 2.301 . S
O86 C95 1.237 . S
O87 Tb83 2.430 . S
O87 C92 1.248 . S
C88 Tb84 2.808 . S
C88 C98 1.497 . S
C88 O106 1.248 . S
C88 O107 1.260 . S
O89 Tb83 2.459 . S
O89 C92 1.260 . S
O90 Tb84 2.288 . S
O90 C96 1.257 . S
O91 Tb83 2.301 . S
O91 C96 1.237 . S
C92 C76 1.497 . S
C92 Tb83 2.808 . S
C92 O87 1.248 . S
C92 O89 1.260 . S
C93 O94 1.255 . S
C93 O97 1.255 . S
O94 C93 1.255 . S
C95 O82 1.257 . S
C95 O86 1.237 . S
C96 O90 1.257 . S
C96 O91 1.237 . S
O97 Tb84 2.303 . S
O97 C93 1.255 . S
C98 C88 1.497 . S
C98 C100 1.384 . S
C98 C101 1.386 . S
C99 C100 1.402 . S
C99 C103 1.392 . S
C100 C98 1.384 . S
C100 C99 1.402 . S
C100 H111 0.930 . S
C101 C98 1.386 . S
C101 C102 1.393 . S
C101 H112 0.932 . S
C102 C101 1.393 . S
C102 C103 1.387 . S
C103 C99 1.392 . S
C103 C102 1.387 . S
C103 H113 0.930 . S
C104 O85 1.255 . S
C104 O105 1.255 . S
O105 C104 1.255 . S
O106 Tb84 2.430 . S
O106 C88 1.248 . S
O107 Tb84 2.459 . S
O107 C88 1.260 . S
H108 C77 0.932 . S
H109 C79 0.930 . S
H110 C81 0.930 . S
H111 C100 0.930 . S
H112 C101 0.932 . S
H113 C103 0.930 . S
C114 C115 1.332 . S
C114 C116 1.344 1_655 S
C114 H134 0.932 1_655 S
C115 C114 1.332 . S
C115 C124 1.332 1_545 S
C116 C114 1.344 1_455 S
C116 C128 1.332 1_455 S
C116 H135 0.931 . S
C117 C118 1.332 . S
C117 C119 1.344 . S
C117 H136 0.932 1_455 S
C118 C117 1.332 . S
C118 C126 1.332 1_565 S
C119 C117 1.344 . S
C119 C131 1.332 . S
C119 H137 0.931 1_455 S
H120 C124 0.932 . S
H121 C125 0.928 . S
H122 C126 0.932 . S
H123 C127 0.928 . S
C124 C115 1.332 1_565 S
C124 H120 0.932 . S
C124 C125 1.345 . S
C125 H121 0.928 . S
C125 C124 1.345 . S
C125 C128 1.334 1_565 S
C126 C118 1.332 1_545 S
C126 H122 0.932 . S
C126 C127 1.345 . S
C127 H123 0.928 . S
C127 C126 1.345 . S
C127 C131 1.334 1_545 S
C128 C116 1.332 1_655 S
C128 C125 1.334 1_545 S
C128 C129 1.487 . S
C129 C128 1.487 . S
C129 C130 1.185 . S
C130 C129 1.185 . S
C130 C133 1.477 1_645 S
C131 C119 1.332 . S
C131 C127 1.334 1_565 S
C131 C132 1.487 . S
C132 C131 1.487 . S
C132 C133 1.190 . S
C133 C130 1.477 1_465 S
C133 C132 1.190 . S
H134 C114 0.932 1_455 S
H135 C116 0.931 . S
H136 C117 0.932 1_655 S
H137 C119 0.931 1_655 S
C138 C139 1.332 . S
C138 C140 1.345 . S
C138 H158 0.932 . S
C139 C138 1.332 . S
C139 C148 1.332 . S
C140 C138 1.345 . S
C140 C152 1.334 . S
C140 H159 0.928 . S
C141 C142 1.332 . S
C141 C143 1.345 . S
C141 H160 0.932 . S
C142 C141 1.332 . S
C142 C150 1.332 . S
C143 C141 1.345 . S
C143 C155 1.334 1_554 S
C143 H161 0.928 1_554 S
H144 C148 0.932 . S
H145 C149 0.928 . S
H146 C150 0.932 . S
H147 C151 0.928 . S
C148 C139 1.332 . S
C148 H144 0.932 . S
C148 C149 1.345 . S
C149 H145 0.928 . S
C149 C148 1.345 . S
C149 C152 1.334 . S
C150 C142 1.332 . S
C150 H146 0.932 . S
C150 C151 1.345 1_554 S
C151 H147 0.928 . S
C151 C150 1.345 1_556 S
C151 C155 1.334 . S
C152 C140 1.334 . S
C152 C149 1.334 . S
C152 C153 1.487 . S
C153 C152 1.487 . S
C153 C154 1.185 . S
C154 C153 1.185 . S
C154 C157 1.482 . S
C155 C143 1.334 1_556 S
C155 C151 1.334 . S
C155 C156 1.487 . S
C156 C155 1.487 . S
C156 C157 1.185 . S
C157 C154 1.482 . S
C157 C156 1.185 . S
H158 C138 0.932 . S
H159 C140 0.928 . S
H160 C141 0.932 . S
H161 C143 0.928 1_556 S
C162 C163 1.332 . S
C162 C164 1.345 . S
C162 H182 0.932 . S
C163 C162 1.332 . S
C163 C172 1.332 . S
C164 C162 1.345 . S
C164 C176 1.334 1_556 S
C164 H183 0.928 1_556 S
C165 C166 1.332 . S
C165 C167 1.345 . S
C165 H184 0.932 . S
C166 C165 1.332 . S
C166 C174 1.332 . S
C167 C165 1.345 . S
C167 C179 1.334 . S
C167 H185 0.928 . S
H168 C172 0.932 . S
H169 C173 0.928 . S
H170 C174 0.932 . S
H171 C175 0.928 . S
C172 C163 1.332 . S
C172 H168 0.932 . S
C172 C173 1.345 1_556 S
C173 H169 0.928 . S
C173 C172 1.345 1_554 S
C173 C176 1.334 . S
C174 C166 1.332 . S
C174 H170 0.932 . S
C174 C175 1.345 . S
C175 H171 0.928 . S
C175 C174 1.345 . S
C175 C179 1.334 . S
C176 C164 1.334 1_554 S
C176 C173 1.334 . S
C176 C177 1.487 . S
C177 C176 1.487 . S
C177 C178 1.185 . S
C178 C177 1.185 . S
C178 C181 1.482 . S
C179 C167 1.334 . S
C179 C175 1.334 . S
C179 C180 1.487 . S
C180 C179 1.487 . S
C180 C181 1.185 . S
C181 C178 1.482 . S
C181 C180 1.185 . S
H182 C162 0.932 . S
H183 C164 0.928 1_554 S
H184 C165 0.932 . S
H185 C167 0.928 . S
C186 C187 1.332 . S
C186 C188 1.345 . S
C186 H206 0.932 . S
C187 C186 1.332 . S
C187 C196 1.332 . S
C188 C186 1.345 . S
C188 C200 1.334 . S
C188 H207 0.928 . S
C189 C190 1.332 . S
C189 C191 1.345 . S
C189 H208 0.932 . S
C190 C189 1.332 . S
C190 C198 1.332 . S
C191 C189 1.345 . S
C191 C203 1.334 . S
C191 H209 0.928 . S
H192 C196 0.932 . S
H193 C197 0.928 . S
H194 C198 0.932 . S
H195 C199 0.928 . S
C196 C187 1.332 . S
C196 H192 0.932 . S
C196 C197 1.345 . S
C197 H193 0.928 . S
C197 C196 1.345 . S
C197 C200 1.334 . S
C198 C190 1.332 . S
C198 H194 0.932 . S
C198 C199 1.345 . S
C199 H195 0.928 . S
C199 C198 1.345 . S
C199 C203 1.334 . S
C200 C188 1.334 . S
C200 C197 1.334 . S
C200 C201 1.487 . S
C201 C200 1.487 . S
C201 C202 1.185 . S
C202 C201 1.185 . S
C202 C205 1.482 . S
C203 C191 1.334 . S
C203 C199 1.334 . S
C203 C204 1.487 . S
C204 C203 1.487 . S
C204 C205 1.185 . S
C205 C202 1.482 . S
C205 C204 1.185 . S
H206 C186 0.932 . S
H207 C188 0.928 . S
H208 C189 0.932 . S
H209 C191 0.928 . S
C210 C211 1.332 . S
C210 C212 1.345 . S
C210 H230 0.932 . S
C211 C210 1.332 . S
C211 C220 1.332 . S
C212 C210 1.345 . S
C212 C224 1.334 . S
C212 H231 0.928 . S
C213 C214 1.332 . S
C213 C215 1.345 . S
C213 H232 0.932 1_455 S
C214 C213 1.332 . S
C214 C222 1.332 . S
C215 C213 1.345 . S
C215 C227 1.334 . S
C215 H233 0.928 . S
H216 C220 0.932 . S
H217 C221 0.928 . S
H218 C222 0.932 . S
H219 C223 0.928 . S
C220 C211 1.332 . S
C220 H216 0.932 . S
C220 C221 1.345 . S
C221 H217 0.928 . S
C221 C220 1.345 . S
C221 C224 1.334 . S
C222 C214 1.332 . S
C222 H218 0.932 . S
C222 C223 1.345 . S
C223 H219 0.928 . S
C223 C222 1.345 . S
C223 C227 1.334 . S
C224 C212 1.334 . S
C224 C221 1.334 . S
C224 C225 1.487 . S
C225 C224 1.487 . S
C225 C226 1.185 . S
C226 C225 1.185 . S
C226 C229 1.482 . S
C227 C215 1.334 . S
C227 C223 1.334 . S
C227 C228 1.487 . S
C228 C227 1.487 . S
C228 C229 1.185 . S
C229 C226 1.482 . S
C229 C228 1.185 . S
H230 C210 0.932 . S
H231 C212 0.928 . S
H232 C213 0.932 1_655 S
H233 C215 0.928 . S
C234 C235 1.332 . S
C234 C236 1.345 . S
C234 H254 0.932 . S
C235 C234 1.332 . S
C235 C244 1.332 . S
C236 C234 1.345 . S
C236 C248 1.334 . S
C236 H255 0.928 . S
C237 C238 1.332 . S
C237 C239 1.345 . S
C237 H256 0.932 . S
C238 C237 1.332 . S
C238 C246 1.332 . S
C239 C237 1.345 . S
C239 C251 1.334 . S
C239 H257 0.928 . S
H240 C244 0.932 . S
H241 C245 0.928 . S
H242 C246 0.932 . S
H243 C247 0.928 . S
C244 C235 1.332 . S
C244 H240 0.932 . S
C244 C245 1.345 . S
C245 H241 0.928 . S
C245 C244 1.345 . S
C245 C248 1.334 . S
C246 C238 1.332 . S
C246 H242 0.932 . S
C246 C247 1.345 . S
C247 H243 0.928 . S
C247 C246 1.345 . S
C247 C251 1.334 . S
C248 C236 1.334 . S
C248 C245 1.334 . S
C248 C249 1.487 . S
C249 C248 1.487 . S
C249 C250 1.185 . S
C250 C249 1.185 . S
C250 C253 1.482 . S
C251 C239 1.334 . S
C251 C247 1.334 . S
C251 C252 1.487 . S
C252 C251 1.487 . S
C252 C253 1.185 . S
C253 C250 1.482 . S
C253 C252 1.185 . S
H254 C234 0.932 . S
H255 C236 0.928 . S
H256 C237 0.932 . S
H257 C239 0.928 . S
C258 C259 1.332 . S
C258 C260 1.345 . S
C258 H278 0.932 . S
C259 C258 1.332 . S
C259 C268 1.332 . S
C260 C258 1.345 . S
C260 C272 1.334 . S
C260 H279 0.928 . S
C261 C262 1.332 . S
C261 C263 1.345 . S
C261 H280 0.932 . S
C262 C261 1.332 . S
C262 C270 1.332 . S
C263 C261 1.345 . S
C263 C275 1.334 . S
C263 H281 0.928 . S
H264 C268 0.932 . S
H265 C269 0.928 . S
H266 C270 0.932 . S
H267 C271 0.928 . S
C268 C259 1.332 . S
C268 H264 0.932 . S
C268 C269 1.345 . S
C269 H265 0.928 . S
C269 C268 1.345 . S
C269 C272 1.334 . S
C270 C262 1.332 . S
C270 H266 0.932 . S
C270 C271 1.345 . S
C271 H267 0.928 . S
C271 C270 1.345 . S
C271 C275 1.334 . S
C272 C260 1.334 . S
C272 C269 1.334 . S
C272 C273 1.487 . S
C273 C272 1.487 . S
C273 C274 1.185 . S
C274 C273 1.185 . S
C274 C277 1.482 . S
C275 C263 1.334 . S
C275 C271 1.334 . S
C275 C276 1.487 . S
C276 C275 1.487 . S
C276 C277 1.185 . S
C277 C274 1.482 . S
C277 C276 1.185 . S
H278 C258 0.932 . S
H279 C260 0.928 . S
H280 C261 0.932 . S
H281 C263 0.928 . S
C282 C283 1.332 . S
C282 C284 1.345 . S
C282 H302 0.932 . S
C283 C282 1.332 . S
C283 C292 1.332 . S
C284 C282 1.345 . S
C284 C296 1.334 . S
C284 H303 0.928 . S
C285 C286 1.332 . S
C285 C287 1.345 . S
C285 H304 0.932 1_655 S
C286 C285 1.332 . S
C286 C294 1.332 . S
C287 C285 1.345 . S
C287 C299 1.334 . S
C287 H305 0.928 . S
H288 C292 0.932 . S
H289 C293 0.928 . S
H290 C294 0.932 . S
H291 C295 0.928 . S
C292 C283 1.332 . S
C292 H288 0.932 . S
C292 C293 1.345 . S
C293 H289 0.928 . S
C293 C292 1.345 . S
C293 C296 1.334 . S
C294 C286 1.332 . S
C294 H290 0.932 . S
C294 C295 1.345 . S
C295 H291 0.928 . S
C295 C294 1.345 . S
C295 C299 1.334 . S
C296 C284 1.334 . S
C296 C293 1.334 . S
C296 C297 1.487 . S
C297 C296 1.487 . S
C297 C298 1.185 . S
C298 C297 1.185 . S
C298 C301 1.482 . S
C299 C287 1.334 . S
C299 C295 1.334 . S
C299 C300 1.487 . S
C300 C299 1.487 . S
C300 C301 1.185 . S
C301 C298 1.482 . S
C301 C300 1.185 . S
H302 C282 0.932 . S
H303 C284 0.928 . S
H304 C285 0.932 1_455 S
H305 C287 0.928 . S
C306 C307 1.332 . S
C306 C308 1.345 . S
C306 H326 0.932 . S
C307 C306 1.332 . S
C307 C316 1.332 . S
C308 C306 1.345 . S
C308 C320 1.334 . S
C308 H327 0.928 . S
C309 C310 1.332 . S
C309 C311 1.345 . S
C309 H328 0.932 . S
C310 C309 1.332 . S
C310 C318 1.332 . S
C311 C309 1.345 . S
C311 C323 1.334 . S
C311 H329 0.928 . S
H312 C316 0.932 . S
H313 C317 0.928 . S
H314 C318 0.932 . S
H315 C319 0.928 . S
C316 C307 1.332 . S
C316 H312 0.932 . S
C316 C317 1.345 . S
C317 H313 0.928 . S
C317 C316 1.345 . S
C317 C320 1.334 . S
C318 C310 1.332 . S
C318 H314 0.932 . S
C318 C319 1.345 . S
C319 H315 0.928 . S
C319 C318 1.345 . S
C319 C323 1.334 . S
C320 C308 1.334 . S
C320 C317 1.334 . S
C320 C321 1.487 . S
C321 C320 1.487 . S
C321 C322 1.185 . S
C322 C321 1.185 . S
C322 C325 1.482 . S
C323 C311 1.334 . S
C323 C319 1.334 . S
C323 C324 1.487 . S
C324 C323 1.487 . S
C324 C325 1.185 . S
C325 C322 1.482 . S
C325 C324 1.185 . S
H326 C306 0.932 . S
H327 C308 0.928 . S
H328 C309 0.932 . S
H329 C311 0.928 . S
C330 C331 1.332 . S
C330 C332 1.345 . S
C330 H350 0.932 . S
C331 C330 1.332 . S
C331 C340 1.332 . S
C332 C330 1.345 . S
C332 C344 1.334 . S
C332 H351 0.928 . S
C333 C334 1.332 . S
C333 C335 1.345 . S
C333 H352 0.932 . S
C334 C333 1.332 . S
C334 C342 1.332 . S
C335 C333 1.345 . S
C335 C347 1.334 . S
C335 H353 0.928 . S
H336 C340 0.932 . S
H337 C341 0.928 . S
H338 C342 0.932 . S
H339 C343 0.928 . S
C340 C331 1.332 . S
C340 H336 0.932 . S
C340 C341 1.345 . S
C341 H337 0.928 . S
C341 C340 1.345 . S
C341 C344 1.334 . S
C342 C334 1.332 . S
C342 H338 0.932 . S
C342 C343 1.345 . S
C343 H339 0.928 . S
C343 C342 1.345 . S
C343 C347 1.334 . S
C344 C332 1.334 . S
C344 C341 1.334 . S
C344 C345 1.487 . S
C345 C344 1.487 . S
C345 C346 1.185 . S
C346 C345 1.185 . S
C346 C349 1.482 1_554 S
C347 C335 1.334 . S
C347 C343 1.334 . S
C347 C348 1.487 . S
C348 C347 1.487 . S
C348 C349 1.185 . S
C349 C346 1.482 1_556 S
C349 C348 1.185 . S
H350 C330 0.932 . S
H351 C332 0.928 . S
H352 C333 0.932 . S
H353 C335 0.928 . S
C354 C355 1.332 . S
C354 C356 1.345 . S
C354 H374 0.932 . S
C355 C354 1.332 . S
C355 C364 1.332 . S
C356 C354 1.345 . S
C356 C368 1.334 . S
C356 H375 0.928 . S
C357 C358 1.332 . S
C357 C359 1.345 . S
C357 H376 0.932 . S
C358 C357 1.332 . S
C358 C366 1.332 . S
C359 C357 1.345 . S
C359 C371 1.334 . S
C359 H377 0.928 . S
H360 C364 0.932 . S
H361 C365 0.928 . S
H362 C366 0.932 . S
H363 C367 0.928 . S
C364 C355 1.332 . S
C364 H360 0.932 . S
C364 C365 1.345 . S
C365 H361 0.928 . S
C365 C364 1.345 . S
C365 C368 1.334 . S
C366 C358 1.332 . S
C366 H362 0.932 . S
C366 C367 1.345 . S
C367 H363 0.928 . S
C367 C366 1.345 . S
C367 C371 1.334 . S
C368 C356 1.334 . S
C368 C365 1.334 . S
C368 C369 1.487 . S
C369 C368 1.487 . S
C369 C370 1.185 . S
C370 C369 1.185 . S
C370 C373 1.482 1_566 S
C371 C359 1.334 . S
C371 C367 1.334 . S
C371 C372 1.487 . S
C372 C371 1.487 . S
C372 C373 1.185 . S
C373 C370 1.482 1_544 S
C373 C372 1.185 . S
H374 C354 0.932 . S
H375 C356 0.928 . S
H376 C357 0.932 . S
H377 C359 0.928 . S
C378 C379 1.332 . S
C378 C380 1.345 . S
C378 H398 0.932 . S
C379 C378 1.332 . S
C379 C388 1.332 . S
C380 C378 1.345 . S
C380 C392 1.334 . S
C380 H399 0.928 . S
C381 C382 1.332 . S
C381 C383 1.345 . S
C381 H400 0.932 . S
C382 C381 1.332 . S
C382 C390 1.332 . S
C383 C381 1.345 . S
C383 C395 1.334 . S
C383 H401 0.928 . S
H384 C388 0.932 . S
H385 C389 0.928 . S
H386 C390 0.932 . S
H387 C391 0.928 . S
C388 C379 1.332 . S
C388 H384 0.932 . S
C388 C389 1.345 . S
C389 H385 0.928 . S
C389 C388 1.345 . S
C389 C392 1.334 . S
C390 C382 1.332 . S
C390 H386 0.932 . S
C390 C391 1.345 . S
C391 H387 0.928 . S
C391 C390 1.345 . S
C391 C395 1.334 . S
C392 C380 1.334 . S
C392 C389 1.334 . S
C392 C393 1.487 . S
C393 C392 1.487 . S
C393 C394 1.185 . S
C394 C393 1.185 . S
C394 C397 1.482 1_456 S
C395 C383 1.334 . S
C395 C391 1.334 . S
C395 C396 1.487 . S
C396 C395 1.487 . S
C396 C397 1.185 . S
C397 C394 1.482 1_654 S
C397 C396 1.185 . S
H398 C378 0.932 . S
H399 C380 0.928 . S
H400 C381 0.932 . S
H401 C383 0.928 . S
C115 C26 0.268 . S
C118 C2 0.268 . S
C139 C40 0.268 . S
C142 C64 0.268 . S
C163 C78 0.268 . S
C166 C102 0.268 . S
C187 C99 2.662 . S
C190 C4 2.662 . S
C211 C93 1.132 . S
C214 C28 1.129 . S
C235 C96 1.395 . S
C238 C19 1.394 . S
C259 C42 2.662 . S
C262 C23 2.662 . S
C283 C66 1.132 . S
C286 C17 1.135 . S
C307 C57 1.395 . S
C310 C20 1.396 . S
C331 C61 2.662 . S
C334 C80 2.662 . S
C355 C104 1.132 . S
C358 C55 1.132 . S
C379 C95 1.395 . S
C382 C58 1.395 . S
