# Generated by pormake.
# Topology uou, (4)-cn, num edge types: 1
# Building blocks:
#     Node 0, Type 0, BuildingBlock: CEKHIL_clean_sbu_0, # of connection points: 4
#     Node 1, Type 0, BuildingBlock: CEKHIL_clean_sbu_0, # of connection points: 4
#     Node 2, Type 0, BuildingBlock: CEKHIL_clean_sbu_0, # of connection points: 4
#     Node 3, Type 0, BuildingBlock: CEKHIL_clean_sbu_0, # of connection points: 4
#     Node 4, Type 0, BuildingBlock: CEKHIL_clean_sbu_0, # of connection points: 4
#     Node 5, Type 0, BuildingBlock: CEKHIL_clean_sbu_0, # of connection points: 4
#     Node 6, Type 0, BuildingBlock: CEKHIL_clean_sbu_0, # of connection points: 4
#     Node 7, Type 0, BuildingBlock: CEKHIL_clean_sbu_0, # of connection points: 4
#     Node 8, Type 0, BuildingBlock: CEKHIL_clean_sbu_0, # of connection points: 4
#     Node 9, Type 0, BuildingBlock: CEKHIL_clean_sbu_0, # of connection points: 4
#     Node 10, Type 0, BuildingBlock: CEKHIL_clean_sbu_0, # of connection points: 4
#     Node 11, Type 0, BuildingBlock: CEKHIL_clean_sbu_0, # of connection points: 4
#     Node 12, Type 0, BuildingBlock: CEKHIL_clean_sbu_0, # of connection points: 4
#     Node 13, Type 0, BuildingBlock: CEKHIL_clean_sbu_0, # of connection points: 4
#     Node 14, Type 0, BuildingBlock: CEKHIL_clean_sbu_0, # of connection points: 4
#     Node 15, Type 0, BuildingBlock: CEKHIL_clean_sbu_0, # of connection points: 4
#     Edge 16, Type (0, 0), BuildingBlock: TEMPAE_clean_linker_10, # of connection points: 2
#     Edge 17, Type (0, 0), BuildingBlock: TEMPAE_clean_linker_10, # of connection points: 2
#     Edge 18, Type (0, 0), BuildingBlock: TEMPAE_clean_linker_10, # of connection points: 2
#     Edge 19, Type (0, 0), BuildingBlock: TEMPAE_clean_linker_10, # of connection points: 2
#     Edge 20, Type (0, 0), BuildingBlock: TEMPAE_clean_linker_10, # of connection points: 2
#     Edge 21, Type (0, 0), BuildingBlock: TEMPAE_clean_linker_10, # of connection points: 2
#     Edge 22, Type (0, 0), BuildingBlock: TEMPAE_clean_linker_10, # of connection points: 2
#     Edge 23, Type (0, 0), BuildingBlock: TEMPAE_clean_linker_10, # of connection points: 2
#     Edge 24, Type (0, 0), BuildingBlock: TEMPAE_clean_linker_10, # of connection points: 2
#     Edge 25, Type (0, 0), BuildingBlock: TEMPAE_clean_linker_10, # of connection points: 2
#     Edge 26, Type (0, 0), BuildingBlock: TEMPAE_clean_linker_10, # of connection points: 2
#     Edge 27, Type (0, 0), BuildingBlock: TEMPAE_clean_linker_10, # of connection points: 2
#     Edge 28, Type (0, 0), BuildingBlock: TEMPAE_clean_linker_10, # of connection points: 2
#     Edge 29, Type (0, 0), BuildingBlock: TEMPAE_clean_linker_10, # of connection points: 2
#     Edge 30, Type (0, 0), BuildingBlock: TEMPAE_clean_linker_10, # of connection points: 2
#     Edge 31, Type (0, 0), BuildingBlock: TEMPAE_clean_linker_10, # of connection points: 2
#     Edge 32, Type (0, 0), BuildingBlock: TEMPAE_clean_linker_10, # of connection points: 2
#     Edge 33, Type (0, 0), BuildingBlock: TEMPAE_clean_linker_10, # of connection points: 2
#     Edge 34, Type (0, 0), BuildingBlock: TEMPAE_clean_linker_10, # of connection points: 2
#     Edge 35, Type (0, 0), BuildingBlock: TEMPAE_clean_linker_10, # of connection points: 2
#     Edge 36, Type (0, 0), BuildingBlock: TEMPAE_clean_linker_10, # of connection points: 2
#     Edge 37, Type (0, 0), BuildingBlock: TEMPAE_clean_linker_10, # of connection points: 2
#     Edge 38, Type (0, 0), BuildingBlock: TEMPAE_clean_linker_10, # of connection points: 2
#     Edge 39, Type (0, 0), BuildingBlock: TEMPAE_clean_linker_10, # of connection points: 2
#     Edge 40, Type (0, 0), BuildingBlock: TEMPAE_clean_linker_10, # of connection points: 2
#     Edge 41, Type (0, 0), BuildingBlock: TEMPAE_clean_linker_10, # of connection points: 2
#     Edge 42, Type (0, 0), BuildingBlock: TEMPAE_clean_linker_10, # of connection points: 2
#     Edge 43, Type (0, 0), BuildingBlock: TEMPAE_clean_linker_10, # of connection points: 2
#     Edge 44, Type (0, 0), BuildingBlock: TEMPAE_clean_linker_10, # of connection points: 2
#     Edge 45, Type (0, 0), BuildingBlock: TEMPAE_clean_linker_10, # of connection points: 2
#     Edge 46, Type (0, 0), BuildingBlock: TEMPAE_clean_linker_10, # of connection points: 2
#     Edge 47, Type (0, 0), BuildingBlock: TEMPAE_clean_linker_10, # of connection points: 2
# Relax obj value: 0.038
# Max RMSD: 0.067
# Mean RMSD: 0.067
data_MOF--net-uou--node1-CEKHIL_clean_sbu_0--edge1-TEMPAE_clean_linker_10
_symmetry_space_group_name_H-M    P1
_symmetry_Int_Tables_number       1
_symmetry_cell_setting            triclinic
loop_
_symmetry_equiv_pos_as_xyz
'x, y, z'
_cell_length_a     38.081539
_cell_length_b     40.514801
_cell_length_c     53.84792
_cell_angle_alpha  90.00254
_cell_angle_beta   90.003281
_cell_angle_gamma 90.002524
loop_
_atom_site_label
_atom_site_type_symbol
_atom_site_fract_x
_atom_site_fract_y
_atom_site_fract_z
_atom_type_partial_charge
Co0 Co 0.08001 0.07046 0.12141 0.0
O1 O 0.10859 0.03129 0.12315 0.0
O2 O 0.12578 0.07823 0.10621 0.0
C3 C 0.06149 0.06843 0.1611 0.0
O4 O 0.05786 0.11655 0.11775 0.0
Co5 Co 0.99913 0.06614 0.13034 0.0
O6 O 1.00421 0.11429 0.13527 0.0
C7 C 0.0285 0.04763 0.08153 0.0
C8 C 0.1333 0.04794 0.11236 0.0
C9 C 0.02985 0.1306 0.12628 0.0
O10 O 0.05968 0.05573 0.08856 0.0
O11 O 1.00152 0.04864 0.09567 0.0
O12 O 0.0919 0.08121 0.15583 0.0
O13 O 0.04512 0.0549 0.14278 0.0
Co14 Co 0.43319 0.93336 0.12282 0.0
O15 O 0.40293 0.97131 0.12456 0.0
O16 O 0.3879 0.92398 0.10728 0.0
C17 C 0.45114 0.93552 0.16263 0.0
O18 O 0.45787 0.88857 0.11901 0.0
Co19 Co 0.51359 0.943 0.13197 0.0
O20 O 0.51261 0.89414 0.13443 0.0
C21 C 0.48214 0.96413 0.08471 0.0
C22 C 0.37907 0.95398 0.11346 0.0
C23 C 0.48757 0.87632 0.12617 0.0
O24 O 0.45325 0.94933 0.09025 0.0
O25 O 0.5079 0.96726 0.0998 0.0
O26 O 0.4214 0.92159 0.1571 0.0
O27 O 0.46681 0.95018 0.14454 0.0
Co28 Co 0.57789 0.93421 0.37253 0.0
O29 O 0.60574 0.97391 0.37149 0.0
O30 O 0.62367 0.92689 0.38785 0.0
C31 C 0.55995 0.93677 0.33272 0.0
O32 O 0.55661 0.88766 0.37554 0.0
Co33 Co 0.4971 0.93717 0.363 0.0
O34 O 0.50322 0.88922 0.35757 0.0
C35 C 0.52538 0.95575 0.41215 0.0
C36 C 0.63071 0.95745 0.38215 0.0
C37 C 0.52904 0.87324 0.36663 0.0
O38 O 0.5568 0.94803 0.40538 0.0
O39 O 0.49868 0.95453 0.39774 0.0
O40 O 0.5905 0.92439 0.33809 0.0
O41 O 0.54301 0.94959 0.35106 0.0
Co42 Co 0.93112 0.07104 0.36979 0.0
O43 O 0.89997 0.03378 0.36725 0.0
O44 O 0.88602 0.08084 0.38543 0.0
C45 C 0.94941 0.06974 0.33002 0.0
O46 O 0.9567 0.11525 0.37441 0.0
Co47 Co 0.01141 0.06023 0.36077 0.0
O48 O 0.01136 0.10914 0.35897 0.0
C49 C 0.97919 0.03822 0.40753 0.0
C50 C 0.87652 0.05128 0.37863 0.0
C51 C 0.98663 0.12718 0.36743 0.0
O52 O 0.95063 0.0537 0.40215 0.0
O53 O 0.00498 0.0351 0.39247 0.0
O54 O 0.91988 0.08401 0.33562 0.0
O55 O 0.96456 0.05429 0.34796 0.0
Co56 Co 0.93187 0.93645 0.87049 0.0
O57 O 0.90109 0.97393 0.868 0.0
O58 O 0.88697 0.92714 0.88651 0.0
C59 C 0.94933 0.93718 0.83057 0.0
O60 O 0.95696 0.89208 0.87517 0.0
Co61 Co 0.01206 0.94601 0.86065 0.0
O62 O 0.01102 0.89711 0.85852 0.0
C63 C 0.98117 0.96865 0.90775 0.0
C64 C 0.87762 0.95669 0.87959 0.0
C65 C 0.98629 0.8796 0.86757 0.0
O66 O 0.95211 0.95389 0.90256 0.0
O67 O 0.00686 0.97104 0.89252 0.0
O68 O 0.91983 0.92316 0.83658 0.0
O69 O 0.96509 0.95269 0.84824 0.0
Co70 Co 0.57704 0.06941 0.87134 0.0
O71 O 0.60647 0.0309 0.86869 0.0
O72 O 0.62248 0.07737 0.88689 0.0
C73 C 0.55866 0.0692 0.83157 0.0
O74 O 0.55396 0.11477 0.8763 0.0
Co75 Co 0.49626 0.06311 0.86227 0.0
O76 O 0.49773 0.11186 0.86332 0.0
C77 C 0.52625 0.04273 0.91037 0.0
C78 C 0.63067 0.04746 0.88014 0.0
C79 C 0.52397 0.12821 0.87135 0.0
O80 O 0.55699 0.05268 0.90374 0.0
O81 O 0.49939 0.04309 0.8961 0.0
O82 O 0.58881 0.08219 0.83729 0.0
O83 O 0.54261 0.05426 0.84939 0.0
Co84 Co 0.42924 0.07166 0.62247 0.0
O85 O 0.3999 0.03313 0.62566 0.0
O86 O 0.38345 0.0795 0.60747 0.0
C87 C 0.44909 0.07193 0.66187 0.0
O88 O 0.45197 0.11694 0.61716 0.0
Co89 Co 0.5103 0.06504 0.62966 0.0
O90 O 0.50975 0.11379 0.62636 0.0
C91 C 0.47705 0.0392 0.58456 0.0
C92 C 0.37545 0.04962 0.61439 0.0
C93 C 0.48254 0.13013 0.62012 0.0
O94 O 0.44845 0.05466 0.5899 0.0
O95 O 0.5032 0.03714 0.59939 0.0
O96 O 0.41856 0.08458 0.6567 0.0
O97 O 0.46446 0.0569 0.6438 0.0
Co98 Co 0.0761 0.93358 0.62085 0.0
O99 O 0.10518 0.97236 0.62281 0.0
O100 O 0.12177 0.92538 0.60564 0.0
C101 C 0.0577 0.93526 0.66057 0.0
O102 O 0.05332 0.88784 0.61693 0.0
Co103 Co 0.99528 0.93932 0.62987 0.0
O104 O 0.99889 0.89083 0.63312 0.0
C105 C 0.02497 0.95812 0.58125 0.0
C106 C 0.12971 0.9555 0.612 0.0
C107 C 0.02449 0.87418 0.62445 0.0
O108 O 0.05592 0.94896 0.58808 0.0
O109 O 0.9981 0.95775 0.59551 0.0
O110 O 0.08796 0.92229 0.65517 0.0
O111 O 0.04153 0.94929 0.64239 0.0
Co112 Co 0.57906 0.56923 0.12051 0.0
O113 O 0.60748 0.52994 0.12186 0.0
O114 O 0.6249 0.5771 0.10544 0.0
C115 C 0.56059 0.5667 0.16019 0.0
O116 O 0.55709 0.61547 0.11726 0.0
Co117 Co 0.49821 0.56498 0.12927 0.0
O118 O 0.50336 0.61303 0.13465 0.0
C119 C 0.52759 0.54697 0.08038 0.0
C120 C 0.6323 0.54666 0.11127 0.0
C121 C 0.52908 0.62945 0.12588 0.0
O122 O 0.55874 0.555 0.08752 0.0
O123 O 0.50054 0.5479 0.09446 0.0
O124 O 0.59104 0.57942 0.15497 0.0
O125 O 0.54411 0.55346 0.1418 0.0
Co126 Co 0.933 0.43386 0.12294 0.0
O127 O 0.90212 0.47131 0.12533 0.0
O128 O 0.88793 0.42432 0.10717 0.0
C129 C 0.95092 0.43509 0.16281 0.0
O130 O 0.95828 0.38948 0.11845 0.0
Co131 Co 0.01324 0.44417 0.13224 0.0
O132 O 0.0129 0.39526 0.13401 0.0
C133 C 0.98152 0.4665 0.0854 0.0
C134 C 0.87859 0.45395 0.1139 0.0
C135 C 0.98808 0.37736 0.1255 0.0
O136 O 0.95286 0.45109 0.09064 0.0
O137 O 0.0072 0.46946 0.10057 0.0
O138 O 0.92137 0.42097 0.15705 0.0
O139 O 0.96637 0.45043 0.14493 0.0
Co140 Co 0.08015 0.43372 0.37198 0.0
O141 O 0.10886 0.47281 0.3702 0.0
O142 O 0.12604 0.42576 0.38693 0.0
C143 C 0.06126 0.43581 0.33238 0.0
O144 O 0.0579 0.38766 0.37568 0.0
Co145 Co 0.99922 0.43828 0.36358 0.0
O146 O 1.0041 0.39016 0.35843 0.0
C147 C 0.02918 0.45653 0.41222 0.0
C148 C 0.13361 0.45608 0.38087 0.0
C149 C 0.02977 0.37372 0.36723 0.0
O150 O 0.06026 0.4485 0.40494 0.0
O151 O 1.00192 0.45541 0.39836 0.0
O152 O 0.0917 0.423 0.33752 0.0
O153 O 0.04508 0.4494 0.35076 0.0
Co154 Co 0.43418 0.56933 0.37027 0.0
O155 O 0.40365 0.53159 0.36822 0.0
O156 O 0.38896 0.57878 0.38588 0.0
C157 C 0.45209 0.56755 0.33043 0.0
O158 O 0.45908 0.61399 0.37437 0.0
Co159 Co 0.51448 0.55949 0.36112 0.0
O160 O 0.51382 0.60836 0.359 0.0
C161 C 0.48306 0.53815 0.40836 0.0
C162 C 0.3799 0.54896 0.37941 0.0
C163 C 0.48885 0.62621 0.36733 0.0
O164 O 0.4541 0.55284 0.40277 0.0
O165 O 0.50889 0.53527 0.3933 0.0
O166 O 0.42246 0.58157 0.33607 0.0
O167 O 0.46771 0.5526 0.34843 0.0
Co168 Co 0.42961 0.43342 0.87039 0.0
O169 O 0.40141 0.47279 0.86747 0.0
O170 O 0.38407 0.42701 0.88607 0.0
C171 C 0.44823 0.43232 0.83066 0.0
O172 O 0.45104 0.38755 0.87572 0.0
Co173 Co 0.51071 0.43698 0.8618 0.0
O174 O 0.50656 0.38817 0.86097 0.0
C175 C 0.48013 0.46335 0.90785 0.0
C176 C 0.37676 0.45701 0.87909 0.0
C177 C 0.47987 0.37298 0.8695 0.0
O178 O 0.45037 0.44992 0.9026 0.0
O179 O 0.50625 0.46384 0.89289 0.0
O180 O 0.41736 0.42086 0.8363 0.0
O181 O 0.46478 0.44679 0.84848 0.0
Co182 Co 0.07754 0.57337 0.87235 0.0
O183 O 0.10687 0.53473 0.87046 0.0
O184 O 0.12321 0.58193 0.88741 0.0
C185 C 0.05894 0.57132 0.83267 0.0
O186 O 0.0546 0.61903 0.87618 0.0
Co187 Co 0.99673 0.56763 0.86356 0.0
O188 O 1.00056 0.616 0.85936 0.0
C189 C 0.02667 0.54898 0.91216 0.0
C190 C 0.13134 0.55182 0.88115 0.0
C191 C 0.02609 0.63268 0.86813 0.0
O192 O 0.0576 0.55805 0.90521 0.0
O193 O 0.9997 0.54944 0.89799 0.0
O194 O 0.08913 0.58451 0.83797 0.0
O195 O 0.04288 0.55736 0.85095 0.0
Co196 Co 0.93279 0.56954 0.62273 0.0
O197 O 0.90227 0.53185 0.62539 0.0
O198 O 0.88781 0.57845 0.60673 0.0
C199 C 0.95029 0.56912 0.66267 0.0
O200 O 0.9574 0.61412 0.6178 0.0
Co201 Co 0.01311 0.56136 0.63269 0.0
O202 O 0.01102 0.61017 0.63531 0.0
C203 C 0.98268 0.53799 0.5855 0.0
C204 C 0.87864 0.54891 0.61378 0.0
C205 C 0.98622 0.62716 0.62583 0.0
O206 O 0.95316 0.55194 0.59073 0.0
O207 O 0.00853 0.53656 0.60066 0.0
O208 O 0.92068 0.5829 0.65662 0.0
O209 O 0.96625 0.55376 0.64502 0.0
Co210 Co 0.57847 0.43483 0.62239 0.0
O211 O 0.60726 0.47382 0.62512 0.0
O212 O 0.62417 0.42744 0.60717 0.0
C213 C 0.55957 0.43498 0.66191 0.0
O214 O 0.55677 0.38896 0.61743 0.0
Co215 Co 0.49754 0.43858 0.6307 0.0
O216 O 0.49978 0.38988 0.62891 0.0
C217 C 0.52756 0.45978 0.58281 0.0
C218 C 0.63184 0.45748 0.61387 0.0
C219 C 0.52711 0.37458 0.62164 0.0
O220 O 0.55857 0.45102 0.58976 0.0
O221 O 0.50045 0.45839 0.59678 0.0
O222 O 0.58993 0.42228 0.65647 0.0
O223 O 0.54325 0.44956 0.64404 0.0
C224 C 0.33387 0.99729 0.12162 0.0
C225 C 0.34327 0.96783 0.10957 0.0
C226 C 0.2998 0.01031 0.11978 0.0
C227 C 0.27435 0.9939 0.10513 0.0
C228 C 0.28394 0.96476 0.09216 0.0
C229 C 0.3182 0.95185 0.09474 0.0
C230 C 0.29073 0.04101 0.13437 0.0
C231 C 0.25783 0.94689 0.07594 0.0
C232 C 0.17936 0.00731 0.1246 0.0
C233 C 0.16877 0.03328 0.10905 0.0
C234 C 0.2133 0.99391 0.12313 0.0
C235 C 0.23719 0.00603 0.10515 0.0
C236 C 0.22623 0.03142 0.08873 0.0
C237 C 0.19232 0.04514 0.09114 0.0
C238 C 0.22401 0.96762 0.14153 0.0
C239 C 0.25051 0.04444 0.06888 0.0
H240 H 0.35295 0.00985 0.13318 0.0
H241 H 0.32527 0.92922 0.08525 0.0
H242 H 0.28003 0.06025 0.12183 0.0
H243 H 0.27004 0.03519 0.14821 0.0
H244 H 0.31379 0.05138 0.14431 0.0
H245 H 0.27022 0.92663 0.06515 0.0
H246 H 0.23668 0.93623 0.08762 0.0
H247 H 0.24528 0.96442 0.06283 0.0
H248 H 0.1614 0.99813 0.13861 0.0
H249 H 0.1842 0.06501 0.07894 0.0
H250 H 0.24598 0.97684 0.15316 0.0
H251 H 0.23358 0.94538 0.13162 0.0
H252 H 0.20207 0.96026 0.15395 0.0
H253 H 0.27281 0.05769 0.07762 0.0
H254 H 0.23695 0.06164 0.05598 0.0
H255 H 0.26168 0.0237 0.05798 0.0
C256 C 0.69215 0.95694 0.39981 0.0
C257 C 0.66598 0.97258 0.38575 0.0
C258 C 0.72619 0.9705 0.40165 0.0
C259 C 0.73447 1.0 0.38869 0.0
C260 C 0.70785 0.01623 0.37499 0.0
C261 C 0.67399 0.00253 0.3739 0.0
C262 C 0.75357 0.95277 0.41689 0.0
C263 C 0.71551 0.04728 0.36044 0.0
C264 C 0.81799 0.05019 0.40073 0.0
C265 C 0.84042 0.03812 0.38217 0.0
C266 C 0.78385 0.0372 0.40376 0.0
C267 C 0.77153 0.0123 0.38738 0.0
C268 C 0.79416 1.00021 0.36859 0.0
C269 C 0.82832 0.01292 0.36646 0.0
C270 C 0.76089 0.05018 0.42439 0.0
C271 C 0.782 0.9744 0.35025 0.0
H272 H 0.68617 0.93392 0.40915 0.0
H273 H 0.65403 0.01484 0.36293 0.0
H274 H 0.77384 0.94218 0.40443 0.0
H275 H 0.767 0.97034 0.42953 0.0
H276 H 0.74208 0.93246 0.42812 0.0
H277 H 0.69155 0.05784 0.35176 0.0
H278 H 0.72742 0.06624 0.37267 0.0
H279 H 0.7348 0.04177 0.34556 0.0
H280 H 0.82727 0.06947 0.41304 0.0
H281 H 0.84538 0.00359 0.35195 0.0
H282 H 0.75096 0.0294 0.43584 0.0
H283 H 0.7377 0.06293 0.41645 0.0
H284 H 0.77511 0.06774 0.43664 0.0
H285 H 0.7735 0.95182 0.36021 0.0
H286 H 0.80285 0.96753 0.33678 0.0
H287 H 0.75898 0.98376 0.33976 0.0
C288 C 0.81831 0.95668 0.90058 0.0
C289 C 0.84156 0.96996 0.88303 0.0
C290 C 0.78394 0.96927 0.90315 0.0
C291 C 0.77231 0.99509 0.88734 0.0
C292 C 0.79586 0.00858 0.86971 0.0
C293 C 0.83017 0.99616 0.868 0.0
C294 C 0.75993 0.95473 0.92256 0.0
C295 C 0.78449 0.0355 0.85202 0.0
C296 C 0.67561 0.00416 0.87109 0.0
C297 C 0.66622 0.03305 0.88387 0.0
C298 C 0.70966 0.99103 0.8727 0.0
C299 C 0.73502 0.00674 0.88786 0.0
C300 C 0.72534 0.03518 0.90164 0.0
C301 C 0.69116 0.04821 0.89928 0.0
C302 C 0.71888 0.96112 0.85727 0.0
C303 C 0.75137 0.0523 0.91839 0.0
H304 H 0.82701 0.93659 0.91235 0.0
H305 H 0.84786 0.00647 0.85427 0.0
H306 H 0.74865 0.97465 0.93424 0.0
H307 H 0.73769 0.94189 0.91342 0.0
H308 H 0.77375 0.93684 0.93477 0.0
H309 H 0.80613 0.04369 0.83964 0.0
H310 H 0.76248 0.02653 0.84032 0.0
H311 H 0.77477 0.05718 0.86255 0.0
H312 H 0.65659 0.99225 0.85909 0.0
H313 H 0.68406 0.07039 0.90935 0.0
H314 H 0.73019 0.94149 0.86918 0.0
H315 H 0.73913 0.96787 0.84335 0.0
H316 H 0.69576 0.95087 0.84733 0.0
H317 H 0.76419 0.03413 0.93087 0.0
H318 H 0.73881 0.07177 0.92989 0.0
H319 H 0.77231 0.06386 0.90703 0.0
C320 C 0.19016 0.95574 0.59275 0.0
C321 C 0.16546 0.9697 0.60896 0.0
C322 C 0.2244 0.96885 0.59083 0.0
C323 C 0.23439 0.99595 0.60596 0.0
C324 C 0.20936 0.01022 0.62217 0.0
C325 C 0.17523 0.99721 0.62323 0.0
C326 C 0.25002 0.95341 0.5729 0.0
C327 C 0.21895 0.03857 0.63909 0.0
C328 C 0.33003 0.00724 0.62461 0.0
C329 C 0.33995 0.03511 0.6108 0.0
C330 C 0.2961 0.99386 0.62275 0.0
C331 C 0.27148 0.0082 0.60626 0.0
C332 C 0.28169 0.03565 0.59158 0.0
C333 C 0.31568 0.04904 0.59425 0.0
C334 C 0.28624 0.9651 0.63918 0.0
C335 C 0.25651 0.05124 0.5734 0.0
H336 H 0.18275 0.93462 0.58157 0.0
H337 H 0.15641 0.00807 0.63593 0.0
H338 H 0.2619 0.97269 0.56091 0.0
H339 H 0.27171 0.94151 0.58333 0.0
H340 H 0.23738 0.93454 0.56089 0.0
H341 H 0.19626 0.04731 0.65027 0.0
H342 H 0.24016 0.03081 0.65197 0.0
H343 H 0.22916 0.0596 0.62806 0.0
H344 H 0.34854 0.99635 0.63752 0.0
H345 H 0.32322 0.07042 0.58338 0.0
H346 H 0.27625 0.94433 0.62777 0.0
H347 H 0.26479 0.97254 0.65196 0.0
H348 H 0.30873 0.95612 0.65045 0.0
H349 H 0.24499 0.03207 0.56113 0.0
H350 H 0.26943 0.07027 0.56169 0.0
H351 H 0.23453 0.063 0.58361 0.0
C352 C 0.8193 0.45384 0.09281 0.0
C353 C 0.84258 0.46732 0.11026 0.0
C354 C 0.78506 0.46667 0.08995 0.0
C355 C 0.77358 0.49297 0.10536 0.0
C356 C 0.79713 0.50664 0.12292 0.0
C357 C 0.83131 0.49395 0.12492 0.0
C358 C 0.76106 0.45191 0.07063 0.0
C359 C 0.78592 0.53407 0.1402 0.0
C360 C 0.69303 0.54663 0.09244 0.0
C361 C 0.66775 0.53191 0.10782 0.0
C362 C 0.72711 0.53323 0.09039 0.0
C363 C 0.73639 0.50497 0.10452 0.0
C364 C 0.7107 0.48977 0.1197 0.0
C365 C 0.67673 0.50316 0.12092 0.0
C366 C 0.75345 0.54976 0.07355 0.0
C367 C 0.71949 0.46015 0.13557 0.0
H368 H 0.82789 0.43342 0.08131 0.0
H369 H 0.84902 0.50444 0.13857 0.0
H370 H 0.73858 0.43953 0.07983 0.0
H371 H 0.75012 0.47166 0.05862 0.0
H372 H 0.77477 0.43358 0.05873 0.0
H373 H 0.80753 0.54229 0.1526 0.0
H374 H 0.7766 0.55562 0.12935 0.0
H375 H 0.76366 0.5256 0.15188 0.0
H376 H 0.68625 0.56869 0.08212 0.0
H377 H 0.65746 0.49164 0.13294 0.0
H378 H 0.76621 0.53121 0.06136 0.0
H379 H 0.77441 0.5614 0.08487 0.0
H380 H 0.74118 0.56908 0.06176 0.0
H381 H 0.73067 0.44013 0.12397 0.0
H382 H 0.69619 0.45036 0.14556 0.0
H383 H 0.73972 0.46704 0.14947 0.0
C384 C 0.33334 0.50791 0.369 0.0
C385 C 0.34394 0.5354 0.383 0.0
C386 C 0.29917 0.49513 0.37081 0.0
C387 C 0.27492 0.50965 0.38747 0.0
C388 C 0.28574 0.5368 0.40228 0.0
C389 C 0.32 0.54965 0.39964 0.0
C390 C 0.28871 0.46673 0.35419 0.0
C391 C 0.26097 0.5525 0.42068 0.0
C392 C 0.17865 0.49868 0.37044 0.0
C393 C 0.16911 0.47071 0.38428 0.0
C394 C 0.21263 0.51203 0.37182 0.0
C395 C 0.23772 0.49763 0.38792 0.0
C396 C 0.22787 0.47016 0.40272 0.0
C397 C 0.19382 0.45673 0.40048 0.0
C398 C 0.22207 0.54074 0.35521 0.0
C399 C 0.25353 0.45455 0.42055 0.0
H400 H 0.35155 0.4968 0.35598 0.0
H401 H 0.32806 0.57074 0.41063 0.0
H402 H 0.27891 0.44581 0.36551 0.0
H403 H 0.26698 0.4745 0.34176 0.0
H404 H 0.31085 0.45784 0.34254 0.0
H405 H 0.27423 0.57137 0.43235 0.0
H406 H 0.23893 0.56447 0.41066 0.0
H407 H 0.24946 0.53336 0.43297 0.0
H408 H 0.15981 0.50959 0.35777 0.0
H409 H 0.18658 0.43529 0.41137 0.0
H410 H 0.24294 0.53313 0.34201 0.0
H411 H 0.23268 0.56143 0.36641 0.0
H412 H 0.19922 0.54987 0.34438 0.0
H413 H 0.27498 0.44242 0.41001 0.0
H414 H 0.24083 0.4358 0.43262 0.0
H415 H 0.26574 0.47373 0.43246 0.0
C416 C 0.17696 0.50996 0.8704 0.0
C417 C 0.16721 0.53787 0.88423 0.0
C418 C 0.21118 0.49714 0.87152 0.0
C419 C 0.23632 0.51205 0.88731 0.0
C420 C 0.22637 0.53962 0.90197 0.0
C421 C 0.19204 0.55248 0.90002 0.0
C422 C 0.2207 0.46823 0.85512 0.0
C423 C 0.25213 0.55577 0.91945 0.0
C424 C 0.31742 0.45906 0.89976 0.0
C425 C 0.34161 0.47221 0.88279 0.0
C426 C 0.28359 0.47279 0.90237 0.0
C427 C 0.2734 0.49976 0.88719 0.0
C428 C 0.29798 0.51339 0.87032 0.0
C429 C 0.3318 0.49972 0.86855 0.0
C430 C 0.2585 0.45799 0.92098 0.0
C431 C 0.28813 0.54161 0.85336 0.0
H432 H 0.15805 0.49859 0.85802 0.0
H433 H 0.18465 0.57393 0.91085 0.0
H434 H 0.2419 0.47553 0.84208 0.0
H435 H 0.23089 0.44757 0.86654 0.0
H436 H 0.19798 0.45915 0.84412 0.0
H437 H 0.23958 0.57511 0.93107 0.0
H438 H 0.26409 0.53697 0.93182 0.0
H439 H 0.27375 0.56724 0.90868 0.0
H440 H 0.32489 0.43797 0.91097 0.0
H441 H 0.35025 0.51 0.85531 0.0
H442 H 0.23651 0.44576 0.91109 0.0
H443 H 0.24699 0.47767 0.93278 0.0
H444 H 0.27149 0.4395 0.93313 0.0
H445 H 0.26673 0.53372 0.8407 0.0
H446 H 0.31065 0.55023 0.84196 0.0
H447 H 0.27809 0.56273 0.86436 0.0
C448 C 0.67683 0.50048 0.62368 0.0
C449 C 0.66727 0.47216 0.61026 0.0
C450 C 0.71086 0.51372 0.6221 0.0
C451 C 0.73596 0.49875 0.60629 0.0
C452 C 0.72606 0.47093 0.5919 0.0
C453 C 0.69196 0.45772 0.59428 0.0
C454 C 0.72035 0.54293 0.63819 0.0
C455 C 0.75176 0.45464 0.57445 0.0
C456 C 0.8188 0.54945 0.59356 0.0
C457 C 0.84259 0.53552 0.61046 0.0
C458 C 0.78436 0.53696 0.59124 0.0
C459 C 0.77322 0.51052 0.60664 0.0
C460 C 0.7973 0.49633 0.62358 0.0
C461 C 0.83166 0.50872 0.62507 0.0
C462 C 0.75975 0.55229 0.57255 0.0
C463 C 0.78649 0.46866 0.64077 0.0
H464 H 0.65799 0.51178 0.63614 0.0
H465 H 0.68471 0.43599 0.58371 0.0
H466 H 0.74097 0.53562 0.65168 0.0
H467 H 0.7313 0.56313 0.62666 0.0
H468 H 0.69743 0.55262 0.64867 0.0
H469 H 0.73904 0.43558 0.56265 0.0
H470 H 0.76417 0.47338 0.56225 0.0
H471 H 0.77306 0.44273 0.58528 0.0
H472 H 0.82712 0.57003 0.58213 0.0
H473 H 0.84976 0.49788 0.6383 0.0
H474 H 0.73776 0.56466 0.58233 0.0
H475 H 0.74816 0.53286 0.56056 0.0
H476 H 0.77317 0.57073 0.5606 0.0
H477 H 0.76478 0.47707 0.65297 0.0
H478 H 0.80849 0.46002 0.65266 0.0
H479 H 0.77654 0.4474 0.62987 0.0
C480 C 0.99546 0.053 0.29985 0.0
C481 C 0.96598 0.07239 0.30534 0.0
C482 C 0.01145 0.0544 0.27647 0.0
C483 C 0.99786 0.07601 0.25821 0.0
C484 C 0.96861 0.09628 0.26382 0.0
C485 C 0.95282 0.09407 0.28734 0.0
C486 C 0.04235 0.03211 0.27112 0.0
C487 C 0.95374 0.11991 0.24486 0.0
C488 C 0.05817 0.09332 0.20356 0.0
C489 C 0.04507 0.07127 0.18579 0.0
C490 C 0.04231 0.09602 0.22703 0.0
C491 C 0.01314 0.07577 0.23285 0.0
C492 C 0.99969 0.05369 0.21486 0.0
C493 C 0.01567 0.0519 0.19148 0.0
C494 C 0.05698 0.1202 0.24567 0.0
C495 C 0.96895 0.03132 0.22049 0.0
H496 H 0.00575 0.03621 0.31373 0.0
H497 H 0.93021 0.10929 0.29162 0.0
H498 H 0.03559 0.01484 0.25585 0.0
H499 H 0.06517 0.04693 0.26484 0.0
H500 H 0.05034 0.01744 0.2876 0.0
H501 H 0.93245 0.13552 0.25268 0.0
H502 H 0.97479 0.1362 0.23761 0.0
H503 H 0.94306 0.10589 0.22886 0.0
H504 H 0.08069 0.10858 0.19909 0.0
H505 H 0.00546 0.03482 0.17777 0.0
H506 H 0.06764 0.10665 0.26191 0.0
H507 H 0.03582 0.1366 0.25261 0.0
H508 H 0.07824 0.13569 0.23768 0.0
H509 H 0.97582 0.01446 0.23598 0.0
H510 H 0.96109 0.01621 0.2042 0.0
H511 H 0.94601 0.04614 0.22656 0.0
C512 C 0.45486 0.91078 0.20511 0.0
C513 C 0.46724 0.93337 0.18747 0.0
C514 C 0.47032 0.9088 0.22875 0.0
C515 C 0.49831 0.93032 0.23488 0.0
C516 C 0.51099 0.95302 0.21704 0.0
C517 C 0.49547 0.95407 0.19348 0.0
C518 C 0.45652 0.88395 0.24722 0.0
C519 C 0.54043 0.97672 0.22301 0.0
C520 C 0.51387 0.9526 0.30227 0.0
C521 C 0.54409 0.93429 0.30781 0.0
C522 C 0.49843 0.95112 0.2787 0.0
C523 C 0.5133 0.93045 0.26033 0.0
C524 C 0.54339 0.91131 0.26595 0.0
C525 C 0.55864 0.91366 0.28964 0.0
C526 C 0.46664 0.97225 0.27331 0.0
C527 C 0.55963 0.88865 0.24689 0.0
H528 H 0.43324 0.89454 0.20041 0.0
H529 H 0.50509 0.97159 0.17987 0.0
H530 H 0.47832 0.86834 0.25422 0.0
H531 H 0.44511 0.89696 0.26345 0.0
H532 H 0.43605 0.86769 0.23906 0.0
H533 H 0.54767 0.99238 0.20686 0.0
H534 H 0.53252 0.99305 0.23858 0.0
H535 H 0.56405 0.96292 0.22911 0.0
H536 H 0.50255 0.9686 0.31629 0.0
H537 H 0.58183 0.89924 0.29395 0.0
H538 H 0.44455 0.95662 0.26684 0.0
H539 H 0.47277 0.98991 0.25816 0.0
H540 H 0.45785 0.98645 0.28983 0.0
H541 H 0.53952 0.87145 0.23949 0.0
H542 H 0.5817 0.87399 0.25466 0.0
H543 H 0.5696 0.90334 0.231 0.0
C544 C 0.05672 0.9128 0.70385 0.0
C545 C 0.04147 0.93243 0.68535 0.0
C546 C 0.04149 0.9106 0.72755 0.0
C547 C 0.0106 0.92877 0.73279 0.0
C548 C 0.99482 0.94816 0.71401 0.0
C549 C 0.01037 0.94962 0.69048 0.0
C550 C 0.05876 0.88936 0.74708 0.0
C551 C 0.96206 0.96814 0.71897 0.0
C552 C 0.95357 0.91013 0.78893 0.0
C553 C 0.96522 0.93414 0.80574 0.0
C554 C 0.9689 0.90731 0.7653 0.0
C555 C 0.99595 0.92943 0.75832 0.0
C556 C 0.00791 0.95354 0.77534 0.0
C557 C 0.99258 0.95541 0.79893 0.0
C558 C 0.95595 0.88094 0.74773 0.0
C559 C 0.03633 0.9779 0.76845 0.0
H560 H 0.08061 0.89926 0.69987 0.0
H561 H 0.99843 0.96479 0.6762 0.0
H562 H 0.06868 0.90514 0.76238 0.0
H563 H 0.03932 0.87208 0.75524 0.0
H564 H 0.08106 0.87485 0.73949 0.0
H565 H 0.95235 0.98095 0.70206 0.0
H566 H 0.94087 0.95196 0.72613 0.0
H567 H 0.96753 0.98693 0.73345 0.0
H568 H 0.93265 0.89344 0.79429 0.0
H569 H 1.00163 0.97401 0.81191 0.0
H570 H 0.97832 0.8658 0.74106 0.0
H571 H 0.94377 0.89259 0.7312 0.0
H572 H 0.93632 0.86439 0.75656 0.0
H573 H 0.0604 0.9646 0.7626 0.0
H574 H 0.04315 0.99466 0.78406 0.0
H575 H 0.02758 0.9931 0.75246 0.0
C576 C 0.49649 0.05714 0.69163 0.0
C577 C 0.46583 0.07501 0.68647 0.0
C578 C 0.51221 0.05845 0.71512 0.0
C579 C 0.49712 0.07843 0.73383 0.0
C580 C 0.46677 0.09737 0.72853 0.0
C581 C 0.4513 0.09527 0.70489 0.0
C582 C 0.54434 0.0376 0.72012 0.0
C583 C 0.45027 0.1193 0.74796 0.0
C584 C 0.51453 0.052 0.80014 0.0
C585 C 0.54264 0.07251 0.80677 0.0
C586 C 0.49918 0.05405 0.77656 0.0
C587 C 0.51185 0.07761 0.75936 0.0
C588 C 0.53966 0.099 0.76616 0.0
C589 C 0.55501 0.09596 0.78978 0.0
C590 C 0.46997 0.03043 0.76987 0.0
C591 C 0.5534 0.12478 0.74841 0.0
H592 H 0.50787 0.04147 0.67743 0.0
H593 H 0.42776 0.10934 0.70089 0.0
H594 H 0.56606 0.05324 0.72719 0.0
H595 H 0.53832 0.01909 0.73471 0.0
H596 H 0.55359 0.02439 0.70327 0.0
H597 H 0.42846 0.13441 0.7403 0.0
H598 H 0.43983 0.10396 0.76334 0.0
H599 H 0.47029 0.13606 0.75602 0.0
H600 H 0.50494 0.03381 0.81326 0.0
H601 H 0.57652 0.11206 0.79498 0.0
H602 H 0.47816 0.01484 0.75394 0.0
H603 H 0.4463 0.04435 0.764 0.0
H604 H 0.4627 0.01403 0.78558 0.0
H605 H 0.56518 0.11261 0.73195 0.0
H606 H 0.57356 0.14088 0.75712 0.0
H607 H 0.53151 0.14047 0.74165 0.0
C608 C 0.55854 0.59018 0.20312 0.0
C609 C 0.54449 0.56913 0.18503 0.0
C610 C 0.54322 0.59242 0.22678 0.0
C611 C 0.51357 0.57273 0.23248 0.0
C612 C 0.49914 0.55166 0.21417 0.0
C613 C 0.51464 0.5503 0.1906 0.0
C614 C 0.55896 0.61553 0.24576 0.0
C615 C 0.46783 0.52995 0.21965 0.0
C616 C 0.49658 0.54942 0.29951 0.0
C617 C 0.46803 0.56973 0.30552 0.0
C618 C 0.51188 0.55046 0.27588 0.0
C619 C 0.49862 0.57273 0.25794 0.0
C620 C 0.47027 0.59385 0.26406 0.0
C621 C 0.45508 0.5919 0.28779 0.0
C622 C 0.54176 0.52724 0.26995 0.0
C623 C 0.45582 0.61823 0.24548 0.0
H624 H 0.58143 0.605 0.19877 0.0
H625 H 0.5037 0.53399 0.17664 0.0
H626 H 0.53846 0.63234 0.25313 0.0
H627 H 0.56932 0.60114 0.26168 0.0
H628 H 0.58064 0.63062 0.23791 0.0
H629 H 0.45931 0.51554 0.20317 0.0
H630 H 0.47439 0.51246 0.23482 0.0
H631 H 0.44543 0.54519 0.22612 0.0
H632 H 0.50664 0.53221 0.31319 0.0
H633 H 0.43319 0.60783 0.29247 0.0
H634 H 0.56509 0.54142 0.26378 0.0
H635 H 0.53413 0.51068 0.25445 0.0
H636 H 0.54935 0.51181 0.28614 0.0
H637 H 0.47723 0.63423 0.23838 0.0
H638 H 0.435 0.63413 0.25359 0.0
H639 H 0.44469 0.60485 0.22933 0.0
C640 C 0.05814 0.41135 0.28978 0.0
C641 C 0.04477 0.43307 0.30769 0.0
C642 C 0.04243 0.40886 0.26626 0.0
C643 C 0.01313 0.42898 0.2605 0.0
C644 C 0.99936 0.45066 0.27865 0.0
C645 C 0.0152 0.45225 0.30209 0.0
C646 C 0.05745 0.38508 0.24746 0.0
C647 C 0.96845 0.47285 0.2731 0.0
C648 C 0.99618 0.45221 0.19347 0.0
C649 C 0.96706 0.43253 0.18763 0.0
C650 C 0.01172 0.45087 0.21701 0.0
C651 C 0.99808 0.42899 0.23506 0.0
C652 C 0.96915 0.40847 0.22913 0.0
C653 C 0.95378 0.41066 0.20546 0.0
C654 C 0.04227 0.47343 0.22272 0.0
C655 C 0.95425 0.38453 0.24785 0.0
H656 H 0.08079 0.39624 0.29417 0.0
H657 H 0.00478 0.46906 0.31591 0.0
H658 H 0.03647 0.36867 0.24025 0.0
H659 H 0.06818 0.39897 0.23141 0.0
H660 H 0.07873 0.36958 0.25541 0.0
H661 H 0.96029 0.48759 0.28951 0.0
H662 H 0.97529 0.49005 0.25781 0.0
H663 H 0.94572 0.45794 0.26676 0.0
H664 H 0.00654 0.46917 0.17973 0.0
H665 H 0.93143 0.39522 0.20092 0.0
H666 H 0.06523 0.45876 0.22895 0.0
H667 H 0.03516 0.49034 0.23813 0.0
H668 H 0.05021 0.48849 0.20642 0.0
H669 H 0.97533 0.36823 0.25504 0.0
H670 H 0.9331 0.36893 0.23984 0.0
H671 H 0.9434 0.39828 0.26392 0.0
C672 C 0.54214 0.40138 0.69861 0.0
C673 C 0.54365 0.43196 0.68659 0.0
C674 C 0.52536 0.39827 0.72174 0.0
C675 C 0.51106 0.42667 0.73329 0.0
C676 C 0.51305 0.45767 0.72121 0.0
C677 C 0.52874 0.45978 0.69774 0.0
C678 C 0.52283 0.36469 0.73375 0.0
C679 C 0.49906 0.48869 0.73323 0.0
C680 C 0.44345 0.4216 0.78504 0.0
C681 C 0.46428 0.42804 0.80593 0.0
C682 C 0.45845 0.42006 0.76123 0.0
C683 C 0.49514 0.42453 0.75843 0.0
C684 C 0.51641 0.42956 0.77963 0.0
C685 C 0.50067 0.43157 0.80308 0.0
C686 C 0.43493 0.41487 0.739 0.0
C687 C 0.55568 0.43404 0.77746 0.0
H688 H 0.55327 0.37983 0.68963 0.0
H689 H 0.53005 0.48338 0.68828 0.0
H690 H 0.53713 0.36474 0.75169 0.0
H691 H 0.49498 0.35877 0.73786 0.0
H692 H 0.53385 0.34488 0.7218 0.0
H693 H 0.50273 0.51083 0.72133 0.0
H694 H 0.47066 0.48588 0.7373 0.0
H695 H 0.51262 0.49298 0.75118 0.0
H696 H 0.4153 0.41889 0.78721 0.0
H697 H 0.51695 0.43626 0.81919 0.0
H698 H 0.44505 0.3944 0.72734 0.0
H699 H 0.43486 0.43745 0.72734 0.0
H700 H 0.40744 0.40922 0.74445 0.0
H701 H 0.56738 0.41341 0.76675 0.0
H702 H 0.56873 0.43528 0.79589 0.0
H703 H 0.56144 0.45717 0.76721 0.0
C704 C 0.05639 0.59512 0.78984 0.0
C705 C 0.04258 0.57394 0.80793 0.0
C706 C 0.04091 0.59733 0.76622 0.0
C707 C 0.01134 0.57749 0.76059 0.0
C708 C 0.99706 0.55642 0.77895 0.0
C709 C 0.01272 0.55507 0.80245 0.0
C710 C 0.05651 0.62041 0.74718 0.0
C711 C 0.96582 0.53458 0.77355 0.0
C712 C 0.95293 0.59484 0.7049 0.0
C713 C 0.96612 0.57226 0.68755 0.0
C714 C 0.96808 0.59762 0.7286 0.0
C715 C 0.99665 0.57694 0.73506 0.0
C716 C 0.0102 0.55434 0.71749 0.0
C717 C 0.99492 0.55244 0.69389 0.0
C718 C 0.95332 0.62233 0.74679 0.0
C719 C 0.04035 0.53158 0.72378 0.0
H720 H 0.07928 0.60998 0.79412 0.0
H721 H 1.00193 0.53868 0.81641 0.0
H722 H 0.06739 0.60595 0.73147 0.0
H723 H 0.03584 0.6368 0.7395 0.0
H724 H 0.07781 0.63595 0.75507 0.0
H725 H 0.95715 0.52047 0.79015 0.0
H726 H 0.94345 0.54964 0.76679 0.0
H727 H 0.97257 0.5168 0.75862 0.0
H728 H 0.93086 0.6104 0.69995 0.0
H729 H 0.0052 0.53494 0.68051 0.0
H730 H 0.97457 0.63856 0.75385 0.0
H731 H 0.94203 0.60923 0.76303 0.0
H732 H 0.93253 0.63797 0.73837 0.0
H733 H 0.06343 0.54614 0.72993 0.0
H734 H 0.0483 0.51595 0.70779 0.0
H735 H 0.03279 0.5152 0.73941 0.0
C736 C 1.00224 0.18263 0.14155 0.0
C737 C 0.02588 0.16707 0.1253 0.0
C738 C 0.99619 0.21673 0.14046 0.0
C739 C 0.0139 0.23598 0.12248 0.0
C740 C 0.03791 0.22054 0.10601 0.0
C741 C 0.04385 0.18627 0.10775 0.0
C742 C 0.97096 0.23218 0.15874 0.0
C743 C 0.0571 0.24022 0.08647 0.0
C744 C 0.97351 0.32046 0.10935 0.0
C745 C 0.99459 0.34118 0.12397 0.0
C746 C 0.98019 0.28628 0.10798 0.0
C747 C 0.00825 0.27245 0.12184 0.0
C748 C 0.02961 0.29328 0.13654 0.0
C749 C 0.02265 0.32725 0.13732 0.0
C750 C 0.95699 0.2649 0.09194 0.0
C751 C 0.05935 0.27956 0.15199 0.0
H752 H 0.98843 0.16809 0.15535 0.0
H753 H 0.06193 0.17441 0.09502 0.0
H754 H 0.98476 0.25111 0.16998 0.0
H755 H 0.94944 0.24486 0.14865 0.0
H756 H 0.9592 0.21372 0.17153 0.0
H757 H 0.07411 0.22446 0.07463 0.0
H758 H 0.03793 0.25325 0.07444 0.0
H759 H 0.07366 0.25934 0.09544 0.0
H760 H 0.95194 0.33095 0.09886 0.0
H761 H 0.03903 0.34289 0.14884 0.0
H762 H 0.94234 0.24718 0.10374 0.0
H763 H 0.97326 0.25022 0.07889 0.0
H764 H 0.93778 0.27963 0.08106 0.0
H765 H 0.04879 0.26218 0.16606 0.0
H766 H 0.07429 0.29922 0.16175 0.0
H767 H 0.07777 0.26546 0.14008 0.0
C768 C 0.52117 0.82602 0.13882 0.0
C769 C 0.49379 0.8401 0.12488 0.0
C770 C 0.52815 0.79204 0.138 0.0
C771 C 0.50753 0.7714 0.12264 0.0
C772 C 0.48009 0.78539 0.10825 0.0
C773 C 0.47335 0.81954 0.10969 0.0
C774 C 0.55717 0.77816 0.15403 0.0
C775 C 0.45768 0.7642 0.09152 0.0
C776 C 0.54387 0.68553 0.10834 0.0
C777 C 0.52516 0.66595 0.12525 0.0
C778 C 0.53802 0.71985 0.10692 0.0
C779 C 0.5133 0.73494 0.12304 0.0
C780 C 0.49484 0.71531 0.1404 0.0
C781 C 0.50086 0.68119 0.1412 0.0
C782 C 0.55808 0.73996 0.08807 0.0
C783 C 0.46878 0.73036 0.15828 0.0
H784 H 0.53701 0.84155 0.15079 0.0
H785 H 0.45233 0.83018 0.09873 0.0
H786 H 0.54603 0.76045 0.16763 0.0
H787 H 0.57625 0.76437 0.14242 0.0
H788 H 0.57152 0.79768 0.16437 0.0
H789 H 0.4388 0.77903 0.08044 0.0
H790 H 0.47458 0.7499 0.07862 0.0
H791 H 0.44272 0.74613 0.10281 0.0
H792 H 0.56249 0.67396 0.09585 0.0
H793 H 0.48647 0.66637 0.15452 0.0
H794 H 0.5741 0.75896 0.09764 0.0
H795 H 0.53945 0.75315 0.07571 0.0
H796 H 0.57572 0.72448 0.07648 0.0
H797 H 0.48203 0.74912 0.17001 0.0
H798 H 0.45654 0.71164 0.17062 0.0
H799 H 0.44767 0.74317 0.14786 0.0
C800 C 0.52392 0.67627 0.35606 0.0
C801 C 0.49518 0.66245 0.36875 0.0
C802 C 0.53077 0.71027 0.35679 0.0
C803 C 0.50858 0.73125 0.37073 0.0
C804 C 0.47982 0.71753 0.38391 0.0
C805 C 0.4733 0.68332 0.38264 0.0
C806 C 0.56134 0.72384 0.3421 0.0
C807 C 0.45568 0.73907 0.39912 0.0
C808 C 0.54289 0.81773 0.38544 0.0
C809 C 0.52571 0.83672 0.36737 0.0
C810 C 0.53716 0.78341 0.38709 0.0
C811 C 0.51421 0.76772 0.37001 0.0
C812 C 0.49743 0.78675 0.35145 0.0
C813 C 0.50321 0.8209 0.35046 0.0
C814 C 0.55535 0.76398 0.40724 0.0
C815 C 0.47338 0.77103 0.33252 0.0
H816 H 0.54096 0.66054 0.34512 0.0
H817 H 0.4512 0.67293 0.39262 0.0
H818 H 0.55157 0.74101 0.32761 0.0
H819 H 0.57904 0.73816 0.35442 0.0
H820 H 0.57688 0.7041 0.33293 0.0
H821 H 0.43588 0.72445 0.40953 0.0
H822 H 0.47118 0.75394 0.41252 0.0
H823 H 0.44171 0.75663 0.38678 0.0
H824 H 0.56007 0.8298 0.39868 0.0
H825 H 0.49004 0.83531 0.33628 0.0
H826 H 0.57227 0.74469 0.39884 0.0
H827 H 0.53556 0.75117 0.4189 0.0
H828 H 0.57181 0.77987 0.41937 0.0
H829 H 0.48788 0.75195 0.32186 0.0
H830 H 0.46243 0.7893 0.31923 0.0
H831 H 0.45127 0.75847 0.34203 0.0
C832 C 1.00163 0.3219 0.35203 0.0
C833 C 0.02569 0.33725 0.36809 0.0
C834 C 0.99545 0.28782 0.35303 0.0
C835 C 0.01348 0.26836 0.37072 0.0
C836 C 0.03794 0.28357 0.38698 0.0
C837 C 0.04398 0.31784 0.38535 0.0
C838 C 0.96971 0.27263 0.33499 0.0
C839 C 0.0575 0.26365 0.4062 0.0
C840 C 0.9728 0.18404 0.38394 0.0
C841 C 0.99339 0.16331 0.369 0.0
C842 C 0.97977 0.21815 0.3854 0.0
C843 C 0.00761 0.23192 0.37129 0.0
C844 C 0.02847 0.21108 0.35625 0.0
C845 C 0.02125 0.17715 0.3554 0.0
C846 C 0.95711 0.23955 0.40181 0.0
C847 C 0.05794 0.22472 0.34051 0.0
H848 H 0.98757 0.33661 0.33846 0.0
H849 H 0.0624 0.32953 0.39793 0.0
H850 H 0.98315 0.2537 0.32352 0.0
H851 H 0.94836 0.25999 0.34527 0.0
H852 H 0.95779 0.29123 0.32239 0.0
H853 H 0.07491 0.27923 0.41789 0.0
H854 H 0.03856 0.25065 0.41842 0.0
H855 H 0.0737 0.24451 0.39695 0.0
H856 H 0.95139 0.1736 0.39464 0.0
H857 H 0.03724 0.16149 0.34362 0.0
H858 H 0.9423 0.25745 0.39026 0.0
H859 H 0.9738 0.25404 0.41472 0.0
H860 H 0.93806 0.22485 0.41285 0.0
H861 H 0.04718 0.24226 0.32663 0.0
H862 H 0.07253 0.20505 0.33051 0.0
H863 H 0.07673 0.23865 0.35226 0.0
C864 C 0.9946 0.68414 0.85552 0.0
C865 C 0.02161 0.66914 0.86928 0.0
C866 C 0.98887 0.71829 0.85644 0.0
C867 C 0.01048 0.73821 0.87166 0.0
C868 C 0.03773 0.72336 0.88572 0.0
C869 C 0.04313 0.68899 0.88425 0.0
C870 C 0.95991 0.73309 0.84082 0.0
C871 C 0.06118 0.7438 0.90227 0.0
C872 C 0.0169 0.8285 0.8533 0.0
C873 C 0.99227 0.84343 0.86914 0.0
C874 C 0.02346 0.79446 0.85426 0.0
C875 C 0.00537 0.77473 0.87176 0.0
C876 C 0.98084 0.78965 0.88809 0.0
C877 C 0.9743 0.82381 0.88642 0.0
C878 C 0.04919 0.77951 0.8361 0.0
C879 C 0.96132 0.76948 0.90718 0.0
H880 H 0.97791 0.66918 0.84372 0.0
H881 H 0.06391 0.67765 0.89504 0.0
H882 H 0.94118 0.74673 0.8528 0.0
H883 H 0.97115 0.75109 0.82748 0.0
H884 H 0.94512 0.71412 0.83021 0.0
H885 H 0.08021 0.72842 0.91278 0.0
H886 H 0.07601 0.76192 0.89093 0.0
H887 H 0.04502 0.75803 0.91567 0.0
H888 H 0.03073 0.8434 0.83973 0.0
H889 H 0.95546 0.8352 0.89884 0.0
H890 H 0.03546 0.76146 0.82402 0.0
H891 H 0.07 0.76589 0.84623 0.0
H892 H 0.06182 0.7984 0.82411 0.0
H893 H 0.94414 0.75127 0.89774 0.0
H894 H 0.94484 0.78504 0.91954 0.0
H895 H 0.98019 0.75537 0.91875 0.0
C896 C 0.49114 0.32289 0.89507 0.0
C897 C 0.48288 0.33698 0.87207 0.0
C898 C 0.49885 0.28902 0.89702 0.0
C899 C 0.49797 0.26893 0.87547 0.0
C900 C 0.48893 0.28317 0.85228 0.0
C901 C 0.48184 0.31713 0.85084 0.0
C902 C 0.50857 0.27485 0.92202 0.0
C903 C 0.48717 0.26262 0.82892 0.0
C904 C 0.54648 0.18663 0.87232 0.0
C905 C 0.51875 0.16418 0.87502 0.0
C906 C 0.54033 0.22091 0.8731 0.0
C907 C 0.50576 0.23289 0.87705 0.0
C908 C 0.47805 0.21025 0.88096 0.0
C909 C 0.48483 0.17628 0.87975 0.0
C910 C 0.57055 0.2443 0.86876 0.0
C911 C 0.44092 0.22188 0.88555 0.0
H912 H 0.4926 0.33857 0.91136 0.0
H913 H 0.47593 0.32834 0.83304 0.0
H914 H 0.49052 0.25435 0.92688 0.0
H915 H 0.53548 0.26441 0.92125 0.0
H916 H 0.50759 0.29366 0.93702 0.0
H917 H 0.47942 0.27741 0.81243 0.0
H918 H 0.51311 0.25115 0.82524 0.0
H919 H 0.46794 0.24229 0.83133 0.0
H920 H 0.57269 0.17745 0.86859 0.0
H921 H 0.4633 0.15907 0.88219 0.0
H922 H 0.57189 0.26283 0.88389 0.0
H923 H 0.56633 0.25796 0.85115 0.0
H924 H 0.59615 0.23124 0.86763 0.0
H925 H 0.44034 0.23987 0.90108 0.0
H926 H 0.42287 0.20118 0.89004 0.0
H927 H 0.43087 0.23473 0.8688 0.0
C928 C 0.46697 0.18802 0.63126 0.0
C929 C 0.48681 0.16605 0.61694 0.0
C930 C 0.47435 0.22204 0.63104 0.0
C931 C 0.50141 0.23436 0.61547 0.0
C932 C 0.52044 0.21226 0.60017 0.0
C933 C 0.51338 0.17827 0.60149 0.0
C934 C 0.45409 0.24461 0.64813 0.0
C935 C 0.54857 0.22445 0.58268 0.0
C936 C 0.49779 0.32645 0.60201 0.0
C937 C 0.52379 0.3387 0.61793 0.0
C938 C 0.49121 0.29242 0.60028 0.0
C939 C 0.51018 0.27027 0.61557 0.0
C940 C 0.53679 0.28261 0.63151 0.0
C941 C 0.54364 0.31673 0.63223 0.0
C942 C 0.46347 0.28027 0.58245 0.0
C943 C 0.55699 0.25996 0.64858 0.0
H944 H 0.44684 0.17838 0.64352 0.0
H945 H 0.52876 0.16114 0.59048 0.0
H946 H 0.47247 0.25713 0.66107 0.0
H947 H 0.44068 0.26412 0.63724 0.0
H948 H 0.4341 0.23112 0.65921 0.0
H949 H 0.559 0.20443 0.57066 0.0
H950 H 0.53798 0.24436 0.57066 0.0
H951 H 0.57066 0.23511 0.59344 0.0
H952 H 0.48238 0.34361 0.59105 0.0
H953 H 0.56331 0.3264 0.64484 0.0
H954 H 0.44113 0.26963 0.59295 0.0
H955 H 0.47429 0.26037 0.57053 0.0
H956 H 0.45333 0.30032 0.57034 0.0
H957 H 0.53856 0.24748 0.66149 0.0
H958 H 0.57701 0.27338 0.65968 0.0
H959 H 0.57035 0.24042 0.63768 0.0
C960 C 0.98987 0.8231 0.63353 0.0
C961 C 0.01983 0.83772 0.6229 0.0
C962 C 0.98435 0.78893 0.63259 0.0
C963 C 0.00925 0.76853 0.62062 0.0
C964 C 0.03936 0.78297 0.60955 0.0
C965 C 0.04438 0.8174 0.61091 0.0
C966 C 0.9521 0.77461 0.64491 0.0
C967 C 0.06639 0.76199 0.59649 0.0
C968 C 0.01216 0.6793 0.64213 0.0
C969 C 0.99155 0.66332 0.62417 0.0
C970 C 0.01845 0.71337 0.64097 0.0
C971 C 1.00445 0.73197 0.62105 0.0
C972 C 0.98403 0.71593 0.60262 0.0
C973 C 0.97742 0.68181 0.60457 0.0
C974 C 0.03949 0.72956 0.66141 0.0
C975 C 0.96911 0.73483 0.5809 0.0
H976 H 0.97065 0.83834 0.64293 0.0
H977 H 0.06749 0.82837 0.60254 0.0
H978 H 0.93665 0.76007 0.63129 0.0
H979 H 0.96007 0.7575 0.65999 0.0
H980 H 0.93482 0.79394 0.65294 0.0
H981 H 0.08729 0.77707 0.58763 0.0
H982 H 0.07882 0.74489 0.60996 0.0
H983 H 0.05357 0.74664 0.58204 0.0
H984 H 0.02294 0.66515 0.65743 0.0
H985 H 0.96179 0.6695 0.59052 0.0
H986 H 0.02308 0.7482 0.67107 0.0
H987 H 0.0624 0.74273 0.65344 0.0
H988 H 0.04911 0.71149 0.67535 0.0
H989 H 0.94999 0.75344 0.58762 0.0
H990 H 0.95569 0.71844 0.56735 0.0
H991 H 0.99037 0.74839 0.57118 0.0
C992 C 0.97208 0.9657 0.95354 0.0
C993 C 0.98635 0.98198 0.93294 0.0
C994 C 0.97969 0.97633 0.97775 0.0
C995 C 1.00122 0.00445 0.9813 0.0
C996 C 0.01481 0.02155 0.96051 0.0
C997 C 0.00762 0.00981 0.93656 0.0
C998 C 0.96532 0.95708 -0.00049 0.0
C999 C 0.03693 0.05223 0.96355 0.0
C1000 C 0.99234 0.04791 0.04322 0.0
C1001 C 0.02277 0.03753 0.05559 0.0
C1002 C 0.98547 0.03796 0.0188 0.0
C1003 C 0.00908 0.01626 0.00679 0.0
C1004 C 0.03992 0.00568 0.01921 0.0
C1005 C 0.04671 0.01693 0.04341 0.0
C1006 C 0.95292 0.05063 0.0059 0.0
C1007 C 0.06525 0.98192 0.00715 0.0
H1008 H 0.95599 0.94393 0.95075 0.0
H1009 H 0.01853 0.02249 0.9206 0.0
H1010 H 0.98724 0.94855 0.01148 0.0
H1011 H 0.94833 0.97317 0.01105 0.0
H1012 H 0.94978 0.93526 0.99356 0.0
H1013 H 0.04438 0.06332 0.94544 0.0
H1014 H 0.02238 0.07093 0.97455 0.0
H1015 H 0.06126 0.04627 0.97395 0.0
H1016 H 0.97403 0.06417 0.05261 0.0
H1017 H 0.07012 0.00878 0.05311 0.0
H1018 H 0.93516 0.02976 0.00144 0.0
H1019 H 0.96016 0.06257 0.98807 0.0
H1020 H 0.93826 0.06873 0.01741 0.0
H1021 H 0.05138 0.95871 0.00227 0.0
H1022 H 0.08779 0.97583 0.01942 0.0
H1023 H 0.07554 0.99256 0.98963 0.0
C1024 C 0.54586 0.01264 0.94846 0.0
C1025 C 0.5207 0.03174 0.93613 0.0
C1026 C 0.53964 1.00113 0.97267 0.0
C1027 C 0.50807 0.00997 0.98495 0.0
C1028 C 0.48308 0.03003 0.97273 0.0
C1029 C 0.48947 0.04024 0.94832 0.0
C1030 C 0.56648 0.97909 0.98495 0.0
C1031 C 0.44966 0.04086 0.98547 0.0
C1032 C 0.47401 0.959 0.03895 0.0
C1033 C 0.48701 0.97673 0.05929 0.0
C1034 C 0.48128 0.96919 0.01458 0.0
C1035 C 0.50104 0.99833 0.0106 0.0
C1036 C 0.51339 0.01679 0.03113 0.0
C1037 C 0.50668 0.00546 0.05526 0.0
C1038 C 0.46837 0.94849 0.99312 0.0
C1039 C 0.53354 0.04857 0.02762 0.0
H1040 H 0.56992 0.00598 0.93892 0.0
H1041 H 0.47019 0.05539 0.93884 0.0
H1042 H 0.57624 0.99076 0.00225 0.0
H1043 H 0.5541 0.95532 0.99026 0.0
H1044 H 0.58925 0.97391 0.97266 0.0
H1045 H 0.43366 0.05762 0.9737 0.0
H1046 H 0.4335 0.01901 0.9903 0.0
H1047 H 0.45602 0.05377 0.00309 0.0
H1048 H 0.45919 0.93653 0.0421 0.0
H1049 H 0.51662 0.01922 0.07104 0.0
H1050 H 0.49085 0.94108 0.98126 0.0
H1051 H 0.45024 0.96314 0.98136 0.0
H1052 H 0.45445 0.92588 -0.00059 0.0
H1053 H 0.55815 0.04374 0.01723 0.0
H1054 H 0.54034 0.06048 0.04557 0.0
H1055 H 0.51777 0.06616 0.01643 0.0
C1056 C 0.46735 0.04065 0.53876 0.0
C1057 C 0.48131 0.02474 0.55963 0.0
C1058 C 0.47476 0.02915 0.51474 0.0
C1059 C 0.49576 1.00057 0.51167 0.0
C1060 C 0.50877 0.98372 0.53276 0.0
C1061 C 0.5018 0.99631 0.5565 0.0
C1062 C 0.46099 0.0481 0.49264 0.0
C1063 C 0.5303 0.95259 0.53026 0.0
C1064 C 0.48817 0.95617 0.45 0.0
C1065 C 0.51908 0.96605 0.43799 0.0
C1066 C 0.48066 0.96662 0.47421 0.0
C1067 C 0.50415 0.98829 0.48638 0.0
C1068 C 0.53549 0.99831 0.47435 0.0
C1069 C 0.54288 0.9866 0.45036 0.0
C1070 C 0.44757 0.95453 0.48673 0.0
C1071 C 0.56077 0.02197 0.48658 0.0
H1072 H 0.45184 0.06286 0.54119 0.0
H1073 H 0.51245 0.98391 0.57268 0.0
H1074 H 0.48326 0.05646 0.48093 0.0
H1075 H 0.44431 0.03189 0.48098 0.0
H1076 H 0.44533 0.07002 0.49822 0.0
H1077 H 0.53683 0.94152 0.54856 0.0
H1078 H 0.51578 0.93407 0.51908 0.0
H1079 H 0.55513 0.95802 0.52031 0.0
H1080 H 0.46993 0.93997 0.44047 0.0
H1081 H 0.56666 0.99439 0.44095 0.0
H1082 H 0.42997 0.97567 0.49077 0.0
H1083 H 0.45412 0.94275 0.50475 0.0
H1084 H 0.433 0.93644 0.47515 0.0
H1085 H 0.54705 0.04537 0.49112 0.0
H1086 H 0.5837 0.02769 0.47457 0.0
H1087 H 0.57048 0.01143 0.5043 0.0
C1088 C 0.04416 0.98781 0.54287 0.0
C1089 C 0.01926 0.9686 0.55538 0.0
C1090 C 0.03752 0.99932 0.51871 0.0
C1091 C 0.00578 0.99044 0.50668 0.0
C1092 C 0.9811 0.97019 0.51904 0.0
C1093 C 0.98792 0.95993 0.54339 0.0
C1094 C 0.06406 0.02151 0.50627 0.0
C1095 C 0.94749 0.95934 0.50656 0.0
C1096 C 0.97096 0.04225 0.45335 0.0
C1097 C 0.98379 0.0249 0.43278 0.0
C1098 C 0.97839 0.03157 0.47758 0.0
C1099 C 0.99818 1.00235 0.48117 0.0
C1100 C 0.01022 0.98421 0.4604 0.0
C1101 C 1.00332 0.996 0.43643 0.0
C1102 C 0.96575 0.05192 0.49931 0.0
C1103 C 0.0304 0.95237 0.46349 0.0
H1104 H 0.06828 0.99464 0.55226 0.0
H1105 H 0.96883 0.94473 0.553 0.0
H1106 H 0.07337 0.01008 0.48875 0.0
H1107 H 0.05157 0.04537 0.50131 0.0
H1108 H 0.08715 0.02651 0.5183 0.0
H1109 H 0.93185 0.94233 0.51837 0.0
H1110 H 0.9311 0.98117 0.50208 0.0
H1111 H 0.95354 0.94672 0.48877 0.0
H1112 H 0.95624 0.06485 0.45051 0.0
H1113 H 0.01312 0.98252 0.42047 0.0
H1114 H 0.98844 0.0594 0.51096 0.0
H1115 H 0.94804 0.03699 0.51119 0.0
H1116 H 0.95148 0.07447 0.49332 0.0
H1117 H 0.05529 0.9571 0.47358 0.0
H1118 H 0.03672 0.94061 0.4454 0.0
H1119 H 0.01492 0.9347 0.47481 0.0
C1120 C 0.49237 0.54787 0.04163 0.0
C1121 C 0.52207 0.53669 0.05447 0.0
C1122 C 0.48551 0.53742 0.01732 0.0
C1123 C 0.5083 0.51436 0.00594 0.0
C1124 C 0.53844 0.50304 0.01883 0.0
C1125 C 0.54532 0.51483 0.04288 0.0
C1126 C 0.4538 0.55092 0.00387 0.0
C1127 C 0.56285 0.47784 0.0075 0.0
C1128 C 0.47 0.46289 0.95361 0.0
C1129 C 0.48546 0.47757 0.93277 0.0
C1130 C 0.47756 0.47438 0.97761 0.0
C1131 C 0.50025 0.50179 0.98067 0.0
C1132 C 0.51503 0.51734 0.95959 0.0
C1133 C 0.50786 0.50471 0.93589 0.0
C1134 C 0.46191 0.45675 -0.0003 0.0
C1135 C 0.53841 0.54727 0.96207 0.0
H1136 H 0.47459 0.56505 0.0506 0.0
H1137 H 0.56813 0.50606 0.05296 0.0
H1138 H 0.46183 0.56168 0.98579 0.0
H1139 H 0.43504 0.53068 -0.00015 0.0
H1140 H 0.43996 0.57019 0.01481 0.0
H1141 H 0.58498 0.47141 0.02005 0.0
H1142 H 0.54803 0.45499 0.00309 0.0
H1143 H 0.57378 0.48732 0.9898 0.0
H1144 H 0.453 0.44166 0.95121 0.0
H1145 H 0.51967 0.51619 0.91973 0.0
H1146 H 0.44548 0.47403 0.01066 0.0
H1147 H 0.48319 0.44787 0.0121 0.0
H1148 H 0.44547 0.43533 0.99415 0.0
H1149 H 0.52455 0.56697 0.97251 0.0
H1150 H 0.54656 0.55729 0.94375 0.0
H1151 H 0.56233 0.54084 0.97277 0.0
C1152 C 0.0059 0.50897 0.0568 0.0
C1153 C 0.98625 0.48009 0.06024 0.0
C1154 C 0.01273 0.52114 0.03292 0.0
C1155 C 1.0005 0.5034 0.012 0.0
C1156 C 0.98062 0.47418 0.01538 0.0
C1157 C 0.97326 0.46312 0.03952 0.0
C1158 C 0.033 0.55296 0.03008 0.0
C1159 C 0.96777 0.45425 0.99349 0.0
C1160 C 0.98996 0.54688 0.9502 0.0
C1161 C 0.02117 0.53829 0.93801 0.0
C1162 C 0.98328 0.53626 0.97449 0.0
C1163 C 0.00797 0.51574 0.98658 0.0
C1164 C 0.0396 0.50697 0.97436 0.0
C1165 C 0.0461 0.51883 0.95028 0.0
C1166 C 0.94979 0.54701 0.98718 0.0
C1167 C 0.06615 0.4845 0.98651 0.0
H1168 H 0.01581 0.52217 0.07286 0.0
H1169 H 0.95844 0.44055 0.04219 0.0
H1170 H 0.05778 0.54835 0.01983 0.0
H1171 H 0.01749 0.5709 0.01903 0.0
H1172 H 0.03953 0.56436 0.04827 0.0
H1173 H 0.95352 0.4316 -0.0007 0.0
H1174 H 0.94998 0.46942 0.98185 0.0
H1175 H 0.99035 0.44695 0.98167 0.0
H1176 H 0.97084 0.56225 0.94077 0.0
H1177 H 0.07012 0.51205 0.94074 0.0
H1178 H 0.956 0.55925 0.00509 0.0
H1179 H 0.93333 0.52516 0.99145 0.0
H1180 H 0.93417 0.56431 0.9756 0.0
H1181 H 0.07557 0.49557 0.00413 0.0
H1182 H 0.08917 0.47968 0.97437 0.0
H1183 H 0.05362 0.46058 0.99123 0.0
C1184 C 0.01342 0.49957 0.55656 0.0
C1185 C 0.98804 0.52415 0.56039 0.0
C1186 C 0.02056 0.48753 0.53269 0.0
C1187 C 1.00237 0.50088 0.51211 0.0
C1188 C 0.97653 0.52553 0.51585 0.0
C1189 C 0.96938 0.53663 0.54002 0.0
C1190 C 0.04763 0.46061 0.52949 0.0
C1191 C 0.95697 0.54066 0.49427 0.0
C1192 C 0.04468 0.49166 0.44858 0.0
C1193 C 0.02397 0.46679 0.4381 0.0
C1194 C 0.0377 0.50333 0.47264 0.0
C1195 C 0.01022 0.48884 0.48667 0.0
C1196 C 0.99009 0.46288 0.47636 0.0
C1197 C 0.99681 0.45259 0.45199 0.0
C1198 C 0.05911 0.53163 0.48281 0.0
C1199 C 0.96141 0.44605 0.49103 0.0
H1200 H 0.02774 0.48966 0.57228 0.0
H1201 H 0.94997 0.55583 0.54287 0.0
H1202 H 0.0358 0.43918 0.51975 0.0
H1203 H 0.0696 0.46965 0.51782 0.0
H1204 H 0.05849 0.45205 0.54753 0.0
H1205 H 0.93807 0.55995 0.5003 0.0
H1206 H 0.97591 0.55188 0.48107 0.0
H1207 H 0.94238 0.52129 0.48401 0.0
H1208 H 0.06546 0.50275 0.43762 0.0
H1209 H 0.981 0.43317 0.44379 0.0
H1210 H 0.07257 0.52401 0.50015 0.0
H1211 H 0.04152 0.55253 0.48759 0.0
H1212 H 0.07916 0.54046 0.46938 0.0
H1213 H 0.9721 0.43662 0.50883 0.0
H1214 H 0.94945 0.42513 0.48071 0.0
H1215 H 0.94045 0.46403 0.49564 0.0
C1216 C 0.49234 0.45945 0.54411 0.0
C1217 C 0.52205 0.47053 0.557 0.0
C1218 C 0.48581 0.46958 0.51969 0.0
C1219 C 0.50898 0.4922 0.50821 0.0
C1220 C 0.53898 0.50363 0.52121 0.0
C1221 C 0.54552 0.49216 0.5454 0.0
C1222 C 0.45421 0.45597 0.50616 0.0
C1223 C 0.56378 0.52839 0.50975 0.0
C1224 C 0.51005 0.49826 0.43795 0.0
C1225 C 0.48789 0.52533 0.43378 0.0
C1226 C 0.5168 0.48696 0.46209 0.0
C1227 C 0.50175 0.50371 0.48254 0.0
C1228 C 0.4793 0.53106 0.47844 0.0
C1229 C 0.47225 0.54128 0.45404 0.0
C1230 C 0.53999 0.4571 0.46569 0.0
C1231 C 0.4633 0.54988 0.49984 0.0
H1232 H 0.4744 0.4424 0.55307 0.0
H1233 H 0.56836 0.50082 0.55551 0.0
H1234 H 0.436 0.4763 0.50124 0.0
H1235 H 0.46258 0.44412 0.48855 0.0
H1236 H 0.43964 0.43753 0.51743 0.0
H1237 H 0.5854 0.5354 0.52256 0.0
H1238 H 0.5754 0.51812 0.49252 0.0
H1239 H 0.54912 0.551 0.50447 0.0
H1240 H 0.52202 0.48578 0.42228 0.0
H1241 H 0.45543 0.56245 0.45085 0.0
H1242 H 0.5257 0.43791 0.47637 0.0
H1243 H 0.56357 0.46392 0.47663 0.0
H1244 H 0.5487 0.44625 0.44777 0.0
H1245 H 0.44646 0.53326 0.51106 0.0
H1246 H 0.44719 0.57113 0.4935 0.0
H1247 H 0.48437 0.55919 0.51224 0.0
loop_
_geom_bond_atom_site_label_1
_geom_bond_atom_site_label_2
_geom_bond_distance
_geom_bond_site_symmetry_2
_ccdc_geom_bond_type
Co0 O1 2.216 . S
Co0 O2 2.091 . S
Co0 O4 2.004 . S
Co0 O10 2.021 . S
Co0 O12 2.137 . S
Co0 O13 2.244 . S
O1 Co0 2.216 . S
O1 C8 1.247 . S
O2 Co0 2.091 . S
O2 C8 1.261 . S
C3 O12 1.247 . S
C3 O13 1.272 . S
O4 Co0 2.004 . S
O4 C9 1.259 . S
Co5 O6 2.061 1_655 S
Co5 O11 2.052 1_655 S
Co5 O13 2.135 1_655 S
O6 Co5 2.061 1_455 S
O6 C9 1.235 . S
C7 O10 1.238 . S
C7 O11 1.241 . S
C8 O1 1.247 . S
C8 O2 1.261 . S
C9 O4 1.259 . S
C9 O6 1.235 . S
O10 Co0 2.021 . S
O10 C7 1.238 . S
O11 Co5 2.052 1_455 S
O11 C7 1.241 . S
O12 Co0 2.137 . S
O12 C3 1.247 . S
O13 Co0 2.244 . S
O13 C3 1.272 . S
O13 Co5 2.135 1_455 S
Co14 O15 2.216 . S
Co14 O16 2.091 . S
Co14 O18 2.004 . S
Co14 O24 2.021 . S
Co14 O26 2.137 . S
Co14 O27 2.244 . S
O15 Co14 2.216 . S
O15 C22 1.247 . S
O16 Co14 2.091 . S
O16 C22 1.261 . S
C17 O26 1.247 . S
C17 O27 1.272 . S
O18 Co14 2.004 . S
O18 C23 1.259 . S
Co19 O20 2.061 . S
Co19 O25 2.052 . S
Co19 O27 2.135 . S
O20 Co19 2.061 . S
O20 C23 1.235 . S
C21 O24 1.238 . S
C21 O25 1.241 . S
C22 O15 1.247 . S
C22 O16 1.261 . S
C23 O18 1.259 . S
C23 O20 1.235 . S
O24 Co14 2.021 . S
O24 C21 1.238 . S
O25 Co19 2.052 . S
O25 C21 1.241 . S
O26 Co14 2.137 . S
O26 C17 1.247 . S
O27 Co14 2.244 . S
O27 C17 1.272 . S
O27 Co19 2.135 . S
Co28 O29 2.216 . S
Co28 O30 2.091 . S
Co28 O32 2.004 . S
Co28 O38 2.021 . S
Co28 O40 2.137 . S
Co28 O41 2.244 . S
O29 Co28 2.216 . S
O29 C36 1.247 . S
O30 Co28 2.091 . S
O30 C36 1.261 . S
C31 O40 1.247 . S
C31 O41 1.272 . S
O32 Co28 2.004 . S
O32 C37 1.259 . S
Co33 O34 2.061 . S
Co33 O39 2.052 . S
Co33 O41 2.135 . S
O34 Co33 2.061 . S
O34 C37 1.235 . S
C35 O38 1.238 . S
C35 O39 1.241 . S
C36 O29 1.247 . S
C36 O30 1.261 . S
C37 O32 1.259 . S
C37 O34 1.235 . S
O38 Co28 2.021 . S
O38 C35 1.238 . S
O39 Co33 2.052 . S
O39 C35 1.241 . S
O40 Co28 2.137 . S
O40 C31 1.247 . S
O41 Co28 2.244 . S
O41 C31 1.272 . S
O41 Co33 2.135 . S
Co42 O43 2.216 . S
Co42 O44 2.091 . S
Co42 O46 2.004 . S
Co42 O52 2.021 . S
Co42 O54 2.137 . S
Co42 O55 2.244 . S
O43 Co42 2.216 . S
O43 C50 1.247 . S
O44 Co42 2.091 . S
O44 C50 1.261 . S
C45 O54 1.247 . S
C45 O55 1.272 . S
O46 Co42 2.004 . S
O46 C51 1.259 . S
Co47 O48 2.061 1_455 S
Co47 O53 2.052 1_455 S
Co47 O55 2.135 1_455 S
O48 Co47 2.061 1_655 S
O48 C51 1.235 . S
C49 O52 1.238 . S
C49 O53 1.241 . S
C50 O43 1.247 . S
C50 O44 1.261 . S
C51 O46 1.259 . S
C51 O48 1.235 . S
O52 Co42 2.021 . S
O52 C49 1.238 . S
O53 Co47 2.052 1_655 S
O53 C49 1.241 . S
O54 Co42 2.137 . S
O54 C45 1.247 . S
O55 Co42 2.244 . S
O55 C45 1.272 . S
O55 Co47 2.135 1_655 S
Co56 O57 2.216 . S
Co56 O58 2.091 . S
Co56 O60 2.004 . S
Co56 O66 2.021 . S
Co56 O68 2.137 . S
Co56 O69 2.244 . S
O57 Co56 2.216 . S
O57 C64 1.247 . S
O58 Co56 2.091 . S
O58 C64 1.261 . S
C59 O68 1.247 . S
C59 O69 1.272 . S
O60 Co56 2.004 . S
O60 C65 1.259 . S
Co61 O62 2.061 1_455 S
Co61 O67 2.052 1_455 S
Co61 O69 2.135 1_455 S
O62 Co61 2.061 1_655 S
O62 C65 1.235 . S
C63 O66 1.238 . S
C63 O67 1.241 . S
C64 O57 1.247 . S
C64 O58 1.261 . S
C65 O60 1.259 . S
C65 O62 1.235 . S
O66 Co56 2.021 . S
O66 C63 1.238 . S
O67 Co61 2.052 1_655 S
O67 C63 1.241 . S
O68 Co56 2.137 . S
O68 C59 1.247 . S
O69 Co56 2.244 . S
O69 C59 1.272 . S
O69 Co61 2.135 1_655 S
Co70 O71 2.216 . S
Co70 O72 2.091 . S
Co70 O74 2.004 . S
Co70 O80 2.021 . S
Co70 O82 2.137 . S
Co70 O83 2.244 . S
O71 Co70 2.216 . S
O71 C78 1.247 . S
O72 Co70 2.091 . S
O72 C78 1.261 . S
C73 O82 1.247 . S
C73 O83 1.272 . S
O74 Co70 2.004 . S
O74 C79 1.259 . S
Co75 O76 2.061 . S
Co75 O81 2.052 . S
Co75 O83 2.135 . S
O76 Co75 2.061 . S
O76 C79 1.235 . S
C77 O80 1.238 . S
C77 O81 1.241 . S
C78 O71 1.247 . S
C78 O72 1.261 . S
C79 O74 1.259 . S
C79 O76 1.235 . S
O80 Co70 2.021 . S
O80 C77 1.238 . S
O81 Co75 2.052 . S
O81 C77 1.241 . S
O82 Co70 2.137 . S
O82 C73 1.247 . S
O83 Co70 2.244 . S
O83 C73 1.272 . S
O83 Co75 2.135 . S
Co84 O85 2.216 . S
Co84 O86 2.091 . S
Co84 O88 2.004 . S
Co84 O94 2.021 . S
Co84 O96 2.137 . S
Co84 O97 2.244 . S
O85 Co84 2.216 . S
O85 C92 1.247 . S
O86 Co84 2.091 . S
O86 C92 1.261 . S
C87 O96 1.247 . S
C87 O97 1.272 . S
O88 Co84 2.004 . S
O88 C93 1.259 . S
Co89 O90 2.061 . S
Co89 O95 2.052 . S
Co89 O97 2.135 . S
O90 Co89 2.061 . S
O90 C93 1.235 . S
C91 O94 1.238 . S
C91 O95 1.241 . S
C92 O85 1.247 . S
C92 O86 1.261 . S
C93 O88 1.259 . S
C93 O90 1.235 . S
O94 Co84 2.021 . S
O94 C91 1.238 . S
O95 Co89 2.052 . S
O95 C91 1.241 . S
O96 Co84 2.137 . S
O96 C87 1.247 . S
O97 Co84 2.244 . S
O97 C87 1.272 . S
O97 Co89 2.135 . S
Co98 O99 2.216 . S
Co98 O100 2.091 . S
Co98 O102 2.004 . S
Co98 O108 2.021 . S
Co98 O110 2.137 . S
Co98 O111 2.244 . S
O99 Co98 2.216 . S
O99 C106 1.247 . S
O100 Co98 2.091 . S
O100 C106 1.261 . S
C101 O110 1.247 . S
C101 O111 1.272 . S
O102 Co98 2.004 . S
O102 C107 1.259 . S
Co103 O104 2.061 1_655 S
Co103 O109 2.052 1_655 S
Co103 O111 2.135 1_655 S
O104 Co103 2.061 1_455 S
O104 C107 1.235 . S
C105 O108 1.238 . S
C105 O109 1.241 . S
C106 O99 1.247 . S
C106 O100 1.261 . S
C107 O102 1.259 . S
C107 O104 1.235 . S
O108 Co98 2.021 . S
O108 C105 1.238 . S
O109 Co103 2.052 1_455 S
O109 C105 1.241 . S
O110 Co98 2.137 . S
O110 C101 1.247 . S
O111 Co98 2.244 . S
O111 C101 1.272 . S
O111 Co103 2.135 1_455 S
Co112 O113 2.216 . S
Co112 O114 2.091 . S
Co112 O116 2.004 . S
Co112 O122 2.021 . S
Co112 O124 2.137 . S
Co112 O125 2.244 . S
O113 Co112 2.216 . S
O113 C120 1.247 . S
O114 Co112 2.091 . S
O114 C120 1.261 . S
C115 O124 1.247 . S
C115 O125 1.272 . S
O116 Co112 2.004 . S
O116 C121 1.259 . S
Co117 O118 2.061 . S
Co117 O123 2.052 . S
Co117 O125 2.135 . S
O118 Co117 2.061 . S
O118 C121 1.235 . S
C119 O122 1.238 . S
C119 O123 1.241 . S
C120 O113 1.247 . S
C120 O114 1.261 . S
C121 O116 1.259 . S
C121 O118 1.235 . S
O122 Co112 2.021 . S
O122 C119 1.238 . S
O123 Co117 2.052 . S
O123 C119 1.241 . S
O124 Co112 2.137 . S
O124 C115 1.247 . S
O125 Co112 2.244 . S
O125 C115 1.272 . S
O125 Co117 2.135 . S
Co126 O127 2.216 . S
Co126 O128 2.091 . S
Co126 O130 2.004 . S
Co126 O136 2.021 . S
Co126 O138 2.137 . S
Co126 O139 2.244 . S
O127 Co126 2.216 . S
O127 C134 1.247 . S
O128 Co126 2.091 . S
O128 C134 1.261 . S
C129 O138 1.247 . S
C129 O139 1.272 . S
O130 Co126 2.004 . S
O130 C135 1.259 . S
Co131 O132 2.061 1_455 S
Co131 O137 2.052 1_455 S
Co131 O139 2.135 1_455 S
O132 Co131 2.061 1_655 S
O132 C135 1.235 . S
C133 O136 1.238 . S
C133 O137 1.241 . S
C134 O127 1.247 . S
C134 O128 1.261 . S
C135 O130 1.259 . S
C135 O132 1.235 . S
O136 Co126 2.021 . S
O136 C133 1.238 . S
O137 Co131 2.052 1_655 S
O137 C133 1.241 . S
O138 Co126 2.137 . S
O138 C129 1.247 . S
O139 Co126 2.244 . S
O139 C129 1.272 . S
O139 Co131 2.135 1_655 S
Co140 O141 2.216 . S
Co140 O142 2.091 . S
Co140 O144 2.004 . S
Co140 O150 2.021 . S
Co140 O152 2.137 . S
Co140 O153 2.244 . S
O141 Co140 2.216 . S
O141 C148 1.247 . S
O142 Co140 2.091 . S
O142 C148 1.261 . S
C143 O152 1.247 . S
C143 O153 1.272 . S
O144 Co140 2.004 . S
O144 C149 1.259 . S
Co145 O146 2.061 1_655 S
Co145 O151 2.052 1_655 S
Co145 O153 2.135 1_655 S
O146 Co145 2.061 1_455 S
O146 C149 1.235 . S
C147 O150 1.238 . S
C147 O151 1.241 . S
C148 O141 1.247 . S
C148 O142 1.261 . S
C149 O144 1.259 . S
C149 O146 1.235 . S
O150 Co140 2.021 . S
O150 C147 1.238 . S
O151 Co145 2.052 1_455 S
O151 C147 1.241 . S
O152 Co140 2.137 . S
O152 C143 1.247 . S
O153 Co140 2.244 . S
O153 C143 1.272 . S
O153 Co145 2.135 1_455 S
Co154 O155 2.216 . S
Co154 O156 2.091 . S
Co154 O158 2.004 . S
Co154 O164 2.021 . S
Co154 O166 2.137 . S
Co154 O167 2.244 . S
O155 Co154 2.216 . S
O155 C162 1.247 . S
O156 Co154 2.091 . S
O156 C162 1.261 . S
C157 O166 1.247 . S
C157 O167 1.272 . S
O158 Co154 2.004 . S
O158 C163 1.259 . S
Co159 O160 2.061 . S
Co159 O165 2.052 . S
Co159 O167 2.135 . S
O160 Co159 2.061 . S
O160 C163 1.235 . S
C161 O164 1.238 . S
C161 O165 1.241 . S
C162 O155 1.247 . S
C162 O156 1.261 . S
C163 O158 1.259 . S
C163 O160 1.235 . S
O164 Co154 2.021 . S
O164 C161 1.238 . S
O165 Co159 2.052 . S
O165 C161 1.241 . S
O166 Co154 2.137 . S
O166 C157 1.247 . S
O167 Co154 2.244 . S
O167 C157 1.272 . S
O167 Co159 2.135 . S
Co168 O169 2.216 . S
Co168 O170 2.091 . S
Co168 O172 2.004 . S
Co168 O178 2.021 . S
Co168 O180 2.137 . S
Co168 O181 2.244 . S
O169 Co168 2.216 . S
O169 C176 1.247 . S
O170 Co168 2.091 . S
O170 C176 1.261 . S
C171 O180 1.247 . S
C171 O181 1.272 . S
O172 Co168 2.004 . S
O172 C177 1.259 . S
Co173 O174 2.061 . S
Co173 O179 2.052 . S
Co173 O181 2.135 . S
O174 Co173 2.061 . S
O174 C177 1.235 . S
C175 O178 1.238 . S
C175 O179 1.241 . S
C176 O169 1.247 . S
C176 O170 1.261 . S
C177 O172 1.259 . S
C177 O174 1.235 . S
O178 Co168 2.021 . S
O178 C175 1.238 . S
O179 Co173 2.052 . S
O179 C175 1.241 . S
O180 Co168 2.137 . S
O180 C171 1.247 . S
O181 Co168 2.244 . S
O181 C171 1.272 . S
O181 Co173 2.135 . S
Co182 O183 2.216 . S
Co182 O184 2.091 . S
Co182 O186 2.004 . S
Co182 O192 2.021 . S
Co182 O194 2.137 . S
Co182 O195 2.244 . S
O183 Co182 2.216 . S
O183 C190 1.247 . S
O184 Co182 2.091 . S
O184 C190 1.261 . S
C185 O194 1.247 . S
C185 O195 1.272 . S
O186 Co182 2.004 . S
O186 C191 1.259 . S
Co187 O188 2.061 1_655 S
Co187 O193 2.052 1_655 S
Co187 O195 2.135 1_655 S
O188 Co187 2.061 1_455 S
O188 C191 1.235 . S
C189 O192 1.238 . S
C189 O193 1.241 . S
C190 O183 1.247 . S
C190 O184 1.261 . S
C191 O186 1.259 . S
C191 O188 1.235 . S
O192 Co182 2.021 . S
O192 C189 1.238 . S
O193 Co187 2.052 1_455 S
O193 C189 1.241 . S
O194 Co182 2.137 . S
O194 C185 1.247 . S
O195 Co182 2.244 . S
O195 C185 1.272 . S
O195 Co187 2.135 1_455 S
Co196 O197 2.216 . S
Co196 O198 2.091 . S
Co196 O200 2.004 . S
Co196 O206 2.021 . S
Co196 O208 2.137 . S
Co196 O209 2.244 . S
O197 Co196 2.216 . S
O197 C204 1.247 . S
O198 Co196 2.091 . S
O198 C204 1.261 . S
C199 O208 1.247 . S
C199 O209 1.272 . S
O200 Co196 2.004 . S
O200 C205 1.259 . S
Co201 O202 2.061 1_455 S
Co201 O207 2.052 1_455 S
Co201 O209 2.135 1_455 S
O202 Co201 2.061 1_655 S
O202 C205 1.235 . S
C203 O206 1.238 . S
C203 O207 1.241 . S
C204 O197 1.247 . S
C204 O198 1.261 . S
C205 O200 1.259 . S
C205 O202 1.235 . S
O206 Co196 2.021 . S
O206 C203 1.238 . S
O207 Co201 2.052 1_655 S
O207 C203 1.241 . S
O208 Co196 2.137 . S
O208 C199 1.247 . S
O209 Co196 2.244 . S
O209 C199 1.272 . S
O209 Co201 2.135 1_655 S
Co210 O211 2.216 . S
Co210 O212 2.091 . S
Co210 O214 2.004 . S
Co210 O220 2.021 . S
Co210 O222 2.137 . S
Co210 O223 2.244 . S
O211 Co210 2.216 . S
O211 C218 1.247 . S
O212 Co210 2.091 . S
O212 C218 1.261 . S
C213 O222 1.247 . S
C213 O223 1.272 . S
O214 Co210 2.004 . S
O214 C219 1.259 . S
Co215 O216 2.061 . S
Co215 O221 2.052 . S
Co215 O223 2.135 . S
O216 Co215 2.061 . S
O216 C219 1.235 . S
C217 O220 1.238 . S
C217 O221 1.241 . S
C218 O211 1.247 . S
C218 O212 1.261 . S
C219 O214 1.259 . S
C219 O216 1.235 . S
O220 Co210 2.021 . S
O220 C217 1.238 . S
O221 Co215 2.052 . S
O221 C217 1.241 . S
O222 Co210 2.137 . S
O222 C213 1.247 . S
O223 Co210 2.244 . S
O223 C213 1.272 . S
O223 Co215 2.135 . S
C224 C225 1.391 1_545 S
C224 C226 1.394 . S
C224 H240 0.931 . S
C225 C224 1.391 1_565 S
C225 C229 1.376 . S
C226 C224 1.394 . S
C226 C227 1.369 1_545 S
C226 C230 1.531 . S
C227 C226 1.369 1_565 S
C227 C228 1.410 . S
C227 C235 1.503 1_565 S
C228 C227 1.410 . S
C228 C229 1.392 . S
C228 C231 1.511 . S
C229 C225 1.376 . S
C229 C228 1.392 . S
C229 H241 0.929 . S
C230 C226 1.531 . S
C230 H242 0.960 . S
C230 H243 0.962 . S
C230 H244 0.960 . S
C231 C228 1.511 . S
C231 H245 0.961 . S
C231 H246 0.961 . S
C231 H247 0.961 . S
C232 C233 1.370 . S
C232 C234 1.363 . S
C232 H248 0.931 . S
C233 C232 1.370 . S
C233 C237 1.408 . S
C234 C232 1.363 . S
C234 C235 1.370 . S
C234 C238 1.524 . S
C235 C227 1.503 1_545 S
C235 C234 1.370 . S
C235 C236 1.400 1_545 S
C236 C235 1.400 1_565 S
C236 C237 1.397 1_565 S
C236 C239 1.550 . S
C237 C233 1.408 . S
C237 C236 1.397 1_545 S
C237 H249 0.930 . S
C238 C234 1.524 . S
C238 H250 0.956 . S
C238 H251 0.961 . S
C238 H252 0.961 . S
C239 C236 1.550 . S
C239 H253 0.958 . S
C239 H254 0.961 . S
C239 H255 0.960 . S
H240 C224 0.931 . S
H241 C229 0.929 . S
H242 C230 0.960 . S
H243 C230 0.962 . S
H244 C230 0.960 . S
H245 C231 0.961 . S
H246 C231 0.961 . S
H247 C231 0.961 . S
H248 C232 0.931 . S
H249 C237 0.930 . S
H250 C238 0.956 . S
H251 C238 0.961 . S
H252 C238 0.961 . S
H253 C239 0.958 . S
H254 C239 0.961 . S
H255 C239 0.960 . S
C256 C257 1.391 . S
C256 C258 1.394 . S
C256 H272 0.931 . S
C257 C256 1.391 . S
C257 C261 1.376 1_565 S
C258 C256 1.394 . S
C258 C259 1.369 . S
C258 C262 1.531 . S
C259 C258 1.369 . S
C259 C260 1.410 1_565 S
C259 C267 1.503 1_565 S
C260 C259 1.410 1_545 S
C260 C261 1.392 . S
C260 C263 1.511 . S
C261 C257 1.376 1_545 S
C261 C260 1.392 . S
C261 H273 0.929 . S
C262 C258 1.531 . S
C262 H274 0.960 . S
C262 H275 0.962 . S
C262 H276 0.960 . S
C263 C260 1.511 . S
C263 H277 0.961 . S
C263 H278 0.961 . S
C263 H279 0.961 . S
C264 C265 1.370 . S
C264 C266 1.363 . S
C264 H280 0.931 . S
C265 C264 1.370 . S
C265 C269 1.408 . S
C266 C264 1.363 . S
C266 C267 1.370 . S
C266 C270 1.524 1_545 S
C267 C259 1.503 1_545 S
C267 C266 1.370 . S
C267 C268 1.403 . S
C268 C267 1.403 . S
C268 C269 1.404 . S
C268 C271 1.539 . S
C269 C265 1.408 . S
C269 C268 1.404 . S
C269 H281 0.930 . S
C270 C266 1.524 1_565 S
C270 H282 0.956 . S
C270 H283 0.961 . S
C270 H284 0.961 . S
C271 C268 1.539 . S
C271 H285 0.958 . S
C271 H286 0.961 . S
C271 H287 0.960 . S
H272 C256 0.931 . S
H273 C261 0.929 . S
H274 C262 0.960 . S
H275 C262 0.962 . S
H276 C262 0.960 . S
H277 C263 0.961 . S
H278 C263 0.961 . S
H279 C263 0.961 . S
H280 C264 0.931 . S
H281 C269 0.930 . S
H282 C270 0.956 . S
H283 C270 0.961 . S
H284 C270 0.961 . S
H285 C271 0.958 . S
H286 C271 0.961 . S
H287 C271 0.960 . S
C288 C289 1.391 . S
C288 C290 1.387 1_565 S
C288 H304 0.931 . S
C289 C288 1.391 . S
C289 C293 1.376 . S
C290 C288 1.387 1_545 S
C290 C291 1.369 . S
C290 C294 1.537 . S
C291 C290 1.369 . S
C291 C292 1.410 1_545 S
C291 C299 1.503 . S
C292 C291 1.410 1_565 S
C292 C293 1.392 . S
C292 C295 1.511 . S
C293 C289 1.376 . S
C293 C292 1.392 . S
C293 H305 0.929 . S
C294 C290 1.537 . S
C294 H306 0.960 . S
C294 H307 0.962 1_545 S
C294 H308 0.960 . S
C295 C292 1.511 . S
C295 H309 0.961 . S
C295 H310 0.961 . S
C295 H311 0.961 1_565 S
C296 C297 1.370 1_565 S
C296 C298 1.363 . S
C296 H312 0.931 . S
C297 C296 1.370 1_545 S
C297 C301 1.408 . S
C298 C296 1.363 . S
C298 C299 1.370 1_565 S
C298 C302 1.524 . S
C299 C291 1.503 . S
C299 C298 1.370 1_545 S
C299 C300 1.403 . S
C300 C299 1.403 . S
C300 C301 1.404 . S
C300 C303 1.539 . S
C301 C297 1.408 . S
C301 C300 1.404 . S
C301 H313 0.930 . S
C302 C298 1.524 . S
C302 H314 0.956 . S
C302 H315 0.961 . S
C302 H316 0.961 . S
C303 C300 1.539 . S
C303 H317 0.958 . S
C303 H318 0.961 . S
C303 H319 0.960 . S
H304 C288 0.931 . S
H305 C293 0.929 . S
H306 C294 0.960 . S
H307 C294 0.962 1_565 S
H308 C294 0.960 . S
H309 C295 0.961 . S
H310 C295 0.961 . S
H311 C295 0.961 1_545 S
H312 C296 0.931 . S
H313 C301 0.930 . S
H314 C302 0.956 . S
H315 C302 0.961 . S
H316 C302 0.961 . S
H317 C303 0.958 . S
H318 C303 0.961 . S
H319 C303 0.960 . S
C320 C321 1.391 . S
C320 C322 1.394 . S
C320 H336 0.931 . S
C321 C320 1.391 . S
C321 C325 1.376 . S
C322 C320 1.394 . S
C322 C323 1.369 1_565 S
C322 C326 1.531 . S
C323 C322 1.369 1_545 S
C323 C324 1.410 . S
C323 C331 1.503 . S
C324 C323 1.410 . S
C324 C325 1.392 1_545 S
C324 C327 1.511 . S
C325 C321 1.376 . S
C325 C324 1.392 1_565 S
C325 H337 0.929 . S
C326 C322 1.531 . S
C326 H338 0.960 1_565 S
C326 H339 0.962 . S
C326 H340 0.960 . S
C327 C324 1.511 . S
C327 H341 0.961 . S
C327 H342 0.961 . S
C327 H343 0.961 . S
C328 C329 1.370 1_565 S
C328 C330 1.363 . S
C328 H344 0.931 . S
C329 C328 1.370 1_545 S
C329 C333 1.408 . S
C330 C328 1.363 . S
C330 C331 1.370 1_565 S
C330 C334 1.524 . S
C331 C323 1.503 . S
C331 C330 1.370 1_545 S
C331 C332 1.403 . S
C332 C331 1.403 . S
C332 C333 1.404 . S
C332 C335 1.539 . S
C333 C329 1.408 . S
C333 C332 1.404 . S
C333 H345 0.930 . S
C334 C330 1.524 . S
C334 H346 0.956 . S
C334 H347 0.961 . S
C334 H348 0.961 . S
C335 C332 1.539 . S
C335 H349 0.958 . S
C335 H350 0.961 . S
C335 H351 0.960 . S
H336 C320 0.931 . S
H337 C325 0.929 . S
H338 C326 0.960 1_545 S
H339 C326 0.962 . S
H340 C326 0.960 . S
H341 C327 0.961 . S
H342 C327 0.961 . S
H343 C327 0.961 . S
H344 C328 0.931 . S
H345 C333 0.930 . S
H346 C334 0.956 . S
H347 C334 0.961 . S
H348 C334 0.961 . S
H349 C335 0.958 . S
H350 C335 0.961 . S
H351 C335 0.960 . S
C352 C353 1.391 . S
C352 C354 1.394 . S
C352 H368 0.931 . S
C353 C352 1.391 . S
C353 C357 1.376 . S
C354 C352 1.394 . S
C354 C355 1.369 . S
C354 C358 1.531 . S
C355 C354 1.369 . S
C355 C356 1.410 . S
C355 C363 1.503 . S
C356 C355 1.410 . S
C356 C357 1.392 . S
C356 C359 1.511 . S
C357 C353 1.376 . S
C357 C356 1.392 . S
C357 H369 0.929 . S
C358 C354 1.531 . S
C358 H370 0.960 . S
C358 H371 0.962 . S
C358 H372 0.960 . S
C359 C356 1.511 . S
C359 H373 0.961 . S
C359 H374 0.961 . S
C359 H375 0.961 . S
C360 C361 1.370 . S
C360 C362 1.363 . S
C360 H376 0.931 . S
C361 C360 1.370 . S
C361 C365 1.408 . S
C362 C360 1.363 . S
C362 C363 1.370 . S
C362 C366 1.524 . S
C363 C355 1.503 . S
C363 C362 1.370 . S
C363 C364 1.403 . S
C364 C363 1.403 . S
C364 C365 1.404 . S
C364 C367 1.539 . S
C365 C361 1.408 . S
C365 C364 1.404 . S
C365 H377 0.930 . S
C366 C362 1.524 . S
C366 H378 0.956 . S
C366 H379 0.961 . S
C366 H380 0.961 . S
C367 C364 1.539 . S
C367 H381 0.958 . S
C367 H382 0.961 . S
C367 H383 0.960 . S
H368 C352 0.931 . S
H369 C357 0.929 . S
H370 C358 0.960 . S
H371 C358 0.962 . S
H372 C358 0.960 . S
H373 C359 0.961 . S
H374 C359 0.961 . S
H375 C359 0.961 . S
H376 C360 0.931 . S
H377 C365 0.930 . S
H378 C366 0.956 . S
H379 C366 0.961 . S
H380 C366 0.961 . S
H381 C367 0.958 . S
H382 C367 0.961 . S
H383 C367 0.960 . S
C384 C385 1.391 . S
C384 C386 1.394 . S
C384 H400 0.931 . S
C385 C384 1.391 . S
C385 C389 1.376 . S
C386 C384 1.394 . S
C386 C387 1.369 . S
C386 C390 1.531 . S
C387 C386 1.369 . S
C387 C388 1.410 . S
C387 C395 1.503 . S
C388 C387 1.410 . S
C388 C389 1.392 . S
C388 C391 1.511 . S
C389 C385 1.376 . S
C389 C388 1.392 . S
C389 H401 0.929 . S
C390 C386 1.531 . S
C390 H402 0.960 . S
C390 H403 0.962 . S
C390 H404 0.960 . S
C391 C388 1.511 . S
C391 H405 0.961 . S
C391 H406 0.961 . S
C391 H407 0.961 . S
C392 C393 1.370 . S
C392 C394 1.363 . S
C392 H408 0.931 . S
C393 C392 1.370 . S
C393 C397 1.408 . S
C394 C392 1.363 . S
C394 C395 1.370 . S
C394 C398 1.524 . S
C395 C387 1.503 . S
C395 C394 1.370 . S
C395 C396 1.403 . S
C396 C395 1.403 . S
C396 C397 1.404 . S
C396 C399 1.539 . S
C397 C393 1.408 . S
C397 C396 1.404 . S
C397 H409 0.930 . S
C398 C394 1.524 . S
C398 H410 0.956 . S
C398 H411 0.961 . S
C398 H412 0.961 . S
C399 C396 1.539 . S
C399 H413 0.958 . S
C399 H414 0.961 . S
C399 H415 0.960 . S
H400 C384 0.931 . S
H401 C389 0.929 . S
H402 C390 0.960 . S
H403 C390 0.962 . S
H404 C390 0.960 . S
H405 C391 0.961 . S
H406 C391 0.961 . S
H407 C391 0.961 . S
H408 C392 0.931 . S
H409 C397 0.930 . S
H410 C398 0.956 . S
H411 C398 0.961 . S
H412 C398 0.961 . S
H413 C399 0.958 . S
H414 C399 0.961 . S
H415 C399 0.960 . S
C416 C417 1.391 . S
C416 C418 1.394 . S
C416 H432 0.931 . S
C417 C416 1.391 . S
C417 C421 1.376 . S
C418 C416 1.394 . S
C418 C419 1.369 . S
C418 C422 1.531 . S
C419 C418 1.369 . S
C419 C420 1.410 . S
C419 C427 1.503 . S
C420 C419 1.410 . S
C420 C421 1.392 . S
C420 C423 1.511 . S
C421 C417 1.376 . S
C421 C420 1.392 . S
C421 H433 0.929 . S
C422 C418 1.531 . S
C422 H434 0.960 . S
C422 H435 0.962 . S
C422 H436 0.960 . S
C423 C420 1.511 . S
C423 H437 0.961 . S
C423 H438 0.961 . S
C423 H439 0.961 . S
C424 C425 1.370 . S
C424 C426 1.363 . S
C424 H440 0.931 . S
C425 C424 1.370 . S
C425 C429 1.408 . S
C426 C424 1.363 . S
C426 C427 1.370 . S
C426 C430 1.524 . S
C427 C419 1.503 . S
C427 C426 1.370 . S
C427 C428 1.403 . S
C428 C427 1.403 . S
C428 C429 1.404 . S
C428 C431 1.539 . S
C429 C425 1.408 . S
C429 C428 1.404 . S
C429 H441 0.930 . S
C430 C426 1.524 . S
C430 H442 0.956 . S
C430 H443 0.961 . S
C430 H444 0.961 . S
C431 C428 1.539 . S
C431 H445 0.958 . S
C431 H446 0.961 . S
C431 H447 0.960 . S
H432 C416 0.931 . S
H433 C421 0.929 . S
H434 C422 0.960 . S
H435 C422 0.962 . S
H436 C422 0.960 . S
H437 C423 0.961 . S
H438 C423 0.961 . S
H439 C423 0.961 . S
H440 C424 0.931 . S
H441 C429 0.930 . S
H442 C430 0.956 . S
H443 C430 0.961 . S
H444 C430 0.961 . S
H445 C431 0.958 . S
H446 C431 0.961 . S
H447 C431 0.960 . S
C448 C449 1.391 . S
C448 C450 1.394 . S
C448 H464 0.931 . S
C449 C448 1.391 . S
C449 C453 1.376 . S
C450 C448 1.394 . S
C450 C451 1.369 . S
C450 C454 1.531 . S
C451 C450 1.369 . S
C451 C452 1.410 . S
C451 C459 1.503 . S
C452 C451 1.410 . S
C452 C453 1.392 . S
C452 C455 1.511 . S
C453 C449 1.376 . S
C453 C452 1.392 . S
C453 H465 0.929 . S
C454 C450 1.531 . S
C454 H466 0.960 . S
C454 H467 0.962 . S
C454 H468 0.960 . S
C455 C452 1.511 . S
C455 H469 0.961 . S
C455 H470 0.961 . S
C455 H471 0.961 . S
C456 C457 1.370 . S
C456 C458 1.363 . S
C456 H472 0.931 . S
C457 C456 1.370 . S
C457 C461 1.408 . S
C458 C456 1.363 . S
C458 C459 1.370 . S
C458 C462 1.524 . S
C459 C451 1.503 . S
C459 C458 1.370 . S
C459 C460 1.403 . S
C460 C459 1.403 . S
C460 C461 1.404 . S
C460 C463 1.539 . S
C461 C457 1.408 . S
C461 C460 1.404 . S
C461 H473 0.930 . S
C462 C458 1.524 . S
C462 H474 0.956 . S
C462 H475 0.961 . S
C462 H476 0.961 . S
C463 C460 1.539 . S
C463 H477 0.958 . S
C463 H478 0.961 . S
C463 H479 0.960 . S
H464 C448 0.931 . S
H465 C453 0.929 . S
H466 C454 0.960 . S
H467 C454 0.962 . S
H468 C454 0.960 . S
H469 C455 0.961 . S
H470 C455 0.961 . S
H471 C455 0.961 . S
H472 C456 0.931 . S
H473 C461 0.930 . S
H474 C462 0.956 . S
H475 C462 0.961 . S
H476 C462 0.961 . S
H477 C463 0.958 . S
H478 C463 0.961 . S
H479 C463 0.960 . S
C480 C481 1.391 1_455 S
C480 C482 1.394 . S
C480 H496 0.931 . S
C481 C480 1.391 1_655 S
C481 C485 1.376 . S
C482 C480 1.394 . S
C482 C483 1.369 1_455 S
C482 C486 1.531 . S
C483 C482 1.369 1_655 S
C483 C484 1.410 . S
C483 C491 1.503 1_655 S
C484 C483 1.410 . S
C484 C485 1.392 . S
C484 C487 1.511 . S
C485 C481 1.376 . S
C485 C484 1.392 . S
C485 H497 0.929 . S
C486 C482 1.531 . S
C486 H498 0.960 . S
C486 H499 0.962 . S
C486 H500 0.960 . S
C487 C484 1.511 . S
C487 H501 0.961 . S
C487 H502 0.961 . S
C487 H503 0.961 . S
C488 C489 1.370 . S
C488 C490 1.363 . S
C488 H504 0.931 . S
C489 C488 1.370 . S
C489 C493 1.408 . S
C490 C488 1.363 . S
C490 C491 1.370 . S
C490 C494 1.524 . S
C491 C483 1.503 1_455 S
C491 C490 1.370 . S
C491 C492 1.403 . S
C492 C491 1.403 . S
C492 C493 1.404 . S
C492 C495 1.539 1_545 S
C493 C489 1.408 . S
C493 C492 1.404 . S
C493 H505 0.930 . S
C494 C490 1.524 . S
C494 H506 0.956 . S
C494 H507 0.961 1_455 S
C494 H508 0.961 . S
C495 C492 1.539 1_565 S
C495 H509 0.958 . S
C495 H510 0.961 . S
C495 H511 0.960 1_455 S
H496 C480 0.931 . S
H497 C485 0.929 . S
H498 C486 0.960 . S
H499 C486 0.962 . S
H500 C486 0.960 . S
H501 C487 0.961 . S
H502 C487 0.961 . S
H503 C487 0.961 . S
H504 C488 0.931 . S
H505 C493 0.930 . S
H506 C494 0.956 . S
H507 C494 0.961 1_655 S
H508 C494 0.961 . S
H509 C495 0.958 . S
H510 C495 0.961 . S
H511 C495 0.960 1_655 S
C512 C513 1.391 . S
C512 C514 1.394 . S
C512 H528 0.931 . S
C513 C512 1.391 . S
C513 C517 1.376 . S
C514 C512 1.394 . S
C514 C515 1.369 . S
C514 C518 1.531 . S
C515 C514 1.369 . S
C515 C516 1.410 . S
C515 C523 1.503 . S
C516 C515 1.410 . S
C516 C517 1.392 . S
C516 C519 1.511 1_565 S
C517 C513 1.376 . S
C517 C516 1.392 . S
C517 H529 0.929 . S
C518 C514 1.531 . S
C518 H530 0.960 . S
C518 H531 0.962 . S
C518 H532 0.960 . S
C519 C516 1.511 1_545 S
C519 H533 0.961 . S
C519 H534 0.961 . S
C519 H535 0.961 . S
C520 C521 1.370 . S
C520 C522 1.363 . S
C520 H536 0.931 . S
C521 C520 1.370 . S
C521 C525 1.408 . S
C522 C520 1.363 . S
C522 C523 1.370 . S
C522 C526 1.524 . S
C523 C515 1.503 . S
C523 C522 1.370 . S
C523 C524 1.403 . S
C524 C523 1.403 . S
C524 C525 1.404 . S
C524 C527 1.539 . S
C525 C521 1.408 . S
C525 C524 1.404 . S
C525 H537 0.930 . S
C526 C522 1.524 . S
C526 H538 0.956 . S
C526 H539 0.961 . S
C526 H540 0.961 . S
C527 C524 1.539 . S
C527 H541 0.958 . S
C527 H542 0.961 . S
C527 H543 0.960 . S
H528 C512 0.931 . S
H529 C517 0.929 . S
H530 C518 0.960 . S
H531 C518 0.962 . S
H532 C518 0.960 . S
H533 C519 0.961 . S
H534 C519 0.961 . S
H535 C519 0.961 . S
H536 C520 0.931 . S
H537 C525 0.930 . S
H538 C526 0.956 . S
H539 C526 0.961 . S
H540 C526 0.961 . S
H541 C527 0.958 . S
H542 C527 0.961 . S
H543 C527 0.960 . S
C544 C545 1.391 . S
C544 C546 1.394 . S
C544 H560 0.931 . S
C545 C544 1.391 . S
C545 C549 1.376 1_455 S
C546 C544 1.394 . S
C546 C547 1.369 . S
C546 C550 1.531 . S
C547 C546 1.369 . S
C547 C548 1.410 1_455 S
C547 C555 1.503 1_455 S
C548 C547 1.410 1_655 S
C548 C549 1.392 . S
C548 C551 1.511 . S
C549 C545 1.376 1_655 S
C549 C548 1.392 . S
C549 H561 0.929 . S
C550 C546 1.531 . S
C550 H562 0.960 . S
C550 H563 0.962 . S
C550 H564 0.960 . S
C551 C548 1.511 . S
C551 H565 0.961 . S
C551 H566 0.961 . S
C551 H567 0.961 . S
C552 C553 1.370 . S
C552 C554 1.356 1_655 S
C552 H568 0.931 . S
C553 C552 1.370 . S
C553 C557 1.408 . S
C554 C552 1.356 1_455 S
C554 C555 1.363 1_455 S
C554 C558 1.540 . S
C555 C547 1.503 1_655 S
C555 C554 1.363 1_655 S
C555 C556 1.403 . S
C556 C555 1.403 . S
C556 C557 1.404 . S
C556 C559 1.539 1_565 S
C557 C553 1.408 . S
C557 C556 1.404 . S
C557 H569 0.930 . S
C558 C554 1.540 . S
C558 H570 0.956 . S
C558 H571 0.961 . S
C558 H572 0.961 . S
C559 C556 1.539 1_545 S
C559 H573 0.958 . S
C559 H574 0.961 . S
C559 H575 0.960 1_545 S
H560 C544 0.931 . S
H561 C549 0.929 . S
H562 C550 0.960 . S
H563 C550 0.962 . S
H564 C550 0.960 . S
H565 C551 0.961 . S
H566 C551 0.961 . S
H567 C551 0.961 . S
H568 C552 0.931 . S
H569 C557 0.930 . S
H570 C558 0.956 . S
H571 C558 0.961 . S
H572 C558 0.961 . S
H573 C559 0.958 . S
H574 C559 0.961 . S
H575 C559 0.960 1_565 S
C576 C577 1.391 . S
C576 C578 1.394 . S
C576 H592 0.931 . S
C577 C576 1.391 . S
C577 C581 1.376 . S
C578 C576 1.394 . S
C578 C579 1.369 . S
C578 C582 1.531 . S
C579 C578 1.369 . S
C579 C580 1.410 . S
C579 C587 1.503 . S
C580 C579 1.410 . S
C580 C581 1.392 . S
C580 C583 1.511 . S
C581 C577 1.376 . S
C581 C580 1.392 . S
C581 H593 0.929 . S
C582 C578 1.531 . S
C582 H594 0.960 . S
C582 H595 0.962 . S
C582 H596 0.960 . S
C583 C580 1.511 . S
C583 H597 0.961 . S
C583 H598 0.961 . S
C583 H599 0.961 . S
C584 C585 1.370 . S
C584 C586 1.363 . S
C584 H600 0.931 . S
C585 C584 1.370 . S
C585 C589 1.408 . S
C586 C584 1.363 . S
C586 C587 1.370 . S
C586 C590 1.524 . S
C587 C579 1.503 . S
C587 C586 1.370 . S
C587 C588 1.403 . S
C588 C587 1.403 . S
C588 C589 1.404 . S
C588 C591 1.539 . S
C589 C585 1.408 . S
C589 C588 1.404 . S
C589 H601 0.930 . S
C590 C586 1.524 . S
C590 H602 0.956 . S
C590 H603 0.962 . S
C590 H604 0.961 1_545 S
C591 C588 1.539 . S
C591 H605 0.958 . S
C591 H606 0.961 . S
C591 H607 0.960 . S
H592 C576 0.931 . S
H593 C581 0.929 . S
H594 C582 0.960 . S
H595 C582 0.962 . S
H596 C582 0.960 . S
H597 C583 0.961 . S
H598 C583 0.961 . S
H599 C583 0.961 . S
H600 C584 0.931 . S
H601 C589 0.930 . S
H602 C590 0.956 . S
H603 C590 0.962 . S
H604 C590 0.961 1_565 S
H605 C591 0.958 . S
H606 C591 0.961 . S
H607 C591 0.960 . S
C608 C609 1.391 . S
C608 C610 1.394 . S
C608 H624 0.931 . S
C609 C608 1.391 . S
C609 C613 1.376 . S
C610 C608 1.394 . S
C610 C611 1.369 . S
C610 C614 1.531 . S
C611 C610 1.369 . S
C611 C612 1.410 . S
C611 C619 1.503 . S
C612 C611 1.410 . S
C612 C613 1.392 . S
C612 C615 1.511 . S
C613 C609 1.376 . S
C613 C612 1.392 . S
C613 H625 0.929 . S
C614 C610 1.531 . S
C614 H626 0.960 . S
C614 H627 0.962 . S
C614 H628 0.960 . S
C615 C612 1.511 . S
C615 H629 0.961 . S
C615 H630 0.961 . S
C615 H631 0.961 . S
C616 C617 1.370 . S
C616 C618 1.363 . S
C616 H632 0.931 . S
C617 C616 1.370 . S
C617 C621 1.408 . S
C618 C616 1.363 . S
C618 C619 1.370 . S
C618 C622 1.524 . S
C619 C611 1.503 . S
C619 C618 1.370 . S
C619 C620 1.403 . S
C620 C619 1.403 . S
C620 C621 1.404 . S
C620 C623 1.539 . S
C621 C617 1.408 . S
C621 C620 1.404 . S
C621 H633 0.930 . S
C622 C618 1.524 . S
C622 H634 0.956 . S
C622 H635 0.961 . S
C622 H636 0.961 . S
C623 C620 1.539 . S
C623 H637 0.958 . S
C623 H638 0.961 . S
C623 H639 0.960 . S
H624 C608 0.931 . S
H625 C613 0.929 . S
H626 C614 0.960 . S
H627 C614 0.962 . S
H628 C614 0.960 . S
H629 C615 0.961 . S
H630 C615 0.961 . S
H631 C615 0.961 . S
H632 C616 0.931 . S
H633 C621 0.930 . S
H634 C622 0.956 . S
H635 C622 0.961 . S
H636 C622 0.961 . S
H637 C623 0.958 . S
H638 C623 0.961 . S
H639 C623 0.960 . S
C640 C641 1.391 . S
C640 C642 1.394 . S
C640 H656 0.931 . S
C641 C640 1.391 . S
C641 C645 1.376 . S
C642 C640 1.394 . S
C642 C643 1.369 1_455 S
C642 C646 1.531 . S
C643 C642 1.369 1_655 S
C643 C644 1.410 . S
C643 C651 1.503 . S
C644 C643 1.410 . S
C644 C645 1.392 1_655 S
C644 C647 1.511 . S
C645 C641 1.376 . S
C645 C644 1.392 1_455 S
C645 H657 0.929 . S
C646 C642 1.531 . S
C646 H658 0.960 1_455 S
C646 H659 0.962 . S
C646 H660 0.960 . S
C647 C644 1.511 . S
C647 H661 0.961 . S
C647 H662 0.961 . S
C647 H663 0.961 . S
C648 C649 1.370 1_455 S
C648 C650 1.363 . S
C648 H664 0.931 . S
C649 C648 1.370 1_655 S
C649 C653 1.408 . S
C650 C648 1.363 . S
C650 C651 1.370 1_455 S
C650 C654 1.524 . S
C651 C643 1.503 . S
C651 C650 1.370 1_655 S
C651 C652 1.403 . S
C652 C651 1.403 . S
C652 C653 1.404 . S
C652 C655 1.539 . S
C653 C649 1.408 . S
C653 C652 1.404 . S
C653 H665 0.930 . S
C654 C650 1.524 . S
C654 H666 0.956 . S
C654 H667 0.961 . S
C654 H668 0.961 . S
C655 C652 1.539 . S
C655 H669 0.958 . S
C655 H670 0.961 . S
C655 H671 0.960 . S
H656 C640 0.931 . S
H657 C645 0.929 . S
H658 C646 0.960 1_655 S
H659 C646 0.962 . S
H660 C646 0.960 . S
H661 C647 0.961 . S
H662 C647 0.961 . S
H663 C647 0.961 . S
H664 C648 0.931 . S
H665 C653 0.930 . S
H666 C654 0.956 . S
H667 C654 0.961 . S
H668 C654 0.961 . S
H669 C655 0.958 . S
H670 C655 0.961 . S
H671 C655 0.960 . S
C672 C673 1.391 . S
C672 C674 1.394 . S
C672 H688 0.931 . S
C673 C672 1.391 . S
C673 C677 1.376 . S
C674 C672 1.394 . S
C674 C675 1.369 . S
C674 C678 1.531 . S
C675 C674 1.369 . S
C675 C676 1.410 . S
C675 C683 1.503 . S
C676 C675 1.410 . S
C676 C677 1.392 . S
C676 C679 1.511 . S
C677 C673 1.376 . S
C677 C676 1.392 . S
C677 H689 0.929 . S
C678 C674 1.531 . S
C678 H690 0.960 . S
C678 H691 0.962 . S
C678 H692 0.960 . S
C679 C676 1.511 . S
C679 H693 0.961 . S
C679 H694 0.961 . S
C679 H695 0.961 . S
C680 C681 1.370 . S
C680 C682 1.363 . S
C680 H696 0.931 . S
C681 C680 1.370 . S
C681 C685 1.408 . S
C682 C680 1.363 . S
C682 C683 1.370 . S
C682 C686 1.524 . S
C683 C675 1.503 . S
C683 C682 1.370 . S
C683 C684 1.403 . S
C684 C683 1.403 . S
C684 C685 1.404 . S
C684 C687 1.539 . S
C685 C681 1.408 . S
C685 C684 1.404 . S
C685 H697 0.930 . S
C686 C682 1.524 . S
C686 H698 0.956 . S
C686 H699 0.961 . S
C686 H700 0.961 . S
C687 C684 1.539 . S
C687 H701 0.958 . S
C687 H702 0.961 . S
C687 H703 0.960 . S
H688 C672 0.931 . S
H689 C677 0.929 . S
H690 C678 0.960 . S
H691 C678 0.962 . S
H692 C678 0.960 . S
H693 C679 0.961 . S
H694 C679 0.961 . S
H695 C679 0.961 . S
H696 C680 0.931 . S
H697 C685 0.930 . S
H698 C686 0.956 . S
H699 C686 0.961 . S
H700 C686 0.961 . S
H701 C687 0.958 . S
H702 C687 0.961 . S
H703 C687 0.960 . S
C704 C705 1.391 . S
C704 C706 1.394 . S
C704 H720 0.931 . S
C705 C704 1.391 . S
C705 C709 1.376 . S
C706 C704 1.394 . S
C706 C707 1.369 . S
C706 C710 1.531 . S
C707 C706 1.369 . S
C707 C708 1.410 1_455 S
C707 C715 1.503 1_455 S
C708 C707 1.410 1_655 S
C708 C709 1.392 1_655 S
C708 C711 1.511 . S
C709 C705 1.376 . S
C709 C708 1.392 1_455 S
C709 H721 0.929 1_455 S
C710 C706 1.531 . S
C710 H722 0.960 . S
C710 H723 0.962 . S
C710 H724 0.960 . S
C711 C708 1.511 . S
C711 H725 0.961 . S
C711 H726 0.961 . S
C711 H727 0.961 . S
C712 C713 1.370 . S
C712 C714 1.363 . S
C712 H728 0.931 . S
C713 C712 1.370 . S
C713 C717 1.408 . S
C714 C712 1.363 . S
C714 C715 1.370 . S
C714 C718 1.524 . S
C715 C707 1.503 1_655 S
C715 C714 1.370 . S
C715 C716 1.403 1_655 S
C716 C715 1.403 1_455 S
C716 C717 1.404 1_455 S
C716 C719 1.539 . S
C717 C713 1.408 . S
C717 C716 1.404 1_655 S
C717 H729 0.930 1_655 S
C718 C714 1.524 . S
C718 H730 0.956 . S
C718 H731 0.961 . S
C718 H732 0.961 . S
C719 C716 1.539 . S
C719 H733 0.958 . S
C719 H734 0.961 . S
C719 H735 0.960 . S
H720 C704 0.931 . S
H721 C709 0.929 1_655 S
H722 C710 0.960 . S
H723 C710 0.962 . S
H724 C710 0.960 . S
H725 C711 0.961 . S
H726 C711 0.961 . S
H727 C711 0.961 . S
H728 C712 0.931 . S
H729 C717 0.930 1_455 S
H730 C718 0.956 . S
H731 C718 0.961 . S
H732 C718 0.961 . S
H733 C719 0.958 . S
H734 C719 0.961 . S
H735 C719 0.960 . S
C736 C737 1.391 . S
C736 C738 1.394 1_455 S
C736 H752 0.931 1_455 S
C737 C736 1.391 . S
C737 C741 1.376 . S
C738 C736 1.394 1_655 S
C738 C739 1.369 1_655 S
C738 C742 1.531 . S
C739 C738 1.369 1_455 S
C739 C740 1.410 . S
C739 C747 1.493 1_455 S
C740 C739 1.410 . S
C740 C741 1.392 . S
C740 C743 1.511 . S
C741 C737 1.376 . S
C741 C740 1.392 . S
C741 H753 0.929 . S
C742 C738 1.531 . S
C742 H754 0.960 . S
C742 H755 0.962 . S
C742 H756 0.960 . S
C743 C740 1.511 . S
C743 H757 0.961 . S
C743 H758 0.961 . S
C743 H759 0.961 . S
C744 C745 1.370 . S
C744 C746 1.363 . S
C744 H760 0.931 . S
C745 C744 1.370 . S
C745 C749 1.408 1_655 S
C746 C744 1.363 . S
C746 C747 1.398 . S
C746 C750 1.524 . S
C747 C739 1.493 1_655 S
C747 C746 1.398 . S
C747 C748 1.386 1_655 S
C748 C747 1.386 1_455 S
C748 C749 1.404 . S
C748 C751 1.539 . S
C749 C745 1.408 1_455 S
C749 C748 1.404 . S
C749 H761 0.930 . S
C750 C746 1.524 . S
C750 H762 0.956 . S
C750 H763 0.961 . S
C750 H764 0.961 . S
C751 C748 1.539 . S
C751 H765 0.958 . S
C751 H766 0.961 . S
C751 H767 0.960 . S
H752 C736 0.931 1_655 S
H753 C741 0.929 . S
H754 C742 0.960 . S
H755 C742 0.962 . S
H756 C742 0.960 . S
H757 C743 0.961 . S
H758 C743 0.961 . S
H759 C743 0.961 . S
H760 C744 0.931 . S
H761 C749 0.930 . S
H762 C750 0.956 . S
H763 C750 0.961 . S
H764 C750 0.961 . S
H765 C751 0.958 . S
H766 C751 0.961 . S
H767 C751 0.960 . S
C768 C769 1.391 . S
C768 C770 1.394 . S
C768 H784 0.931 . S
C769 C768 1.391 . S
C769 C773 1.376 . S
C770 C768 1.394 . S
C770 C771 1.369 . S
C770 C774 1.531 . S
C771 C770 1.369 . S
C771 C772 1.410 . S
C771 C779 1.503 . S
C772 C771 1.410 . S
C772 C773 1.392 . S
C772 C775 1.511 . S
C773 C769 1.376 . S
C773 C772 1.392 . S
C773 H785 0.929 . S
C774 C770 1.531 . S
C774 H786 0.960 . S
C774 H787 0.962 . S
C774 H788 0.960 . S
C775 C772 1.511 . S
C775 H789 0.961 . S
C775 H790 0.961 . S
C775 H791 0.961 . S
C776 C777 1.370 . S
C776 C778 1.363 . S
C776 H792 0.931 . S
C777 C776 1.370 . S
C777 C781 1.408 . S
C778 C776 1.363 . S
C778 C779 1.370 . S
C778 C782 1.524 . S
C779 C771 1.503 . S
C779 C778 1.370 . S
C779 C780 1.403 . S
C780 C779 1.403 . S
C780 C781 1.404 . S
C780 C783 1.539 . S
C781 C777 1.408 . S
C781 C780 1.404 . S
C781 H793 0.930 . S
C782 C778 1.524 . S
C782 H794 0.956 . S
C782 H795 0.961 . S
C782 H796 0.961 . S
C783 C780 1.539 . S
C783 H797 0.958 . S
C783 H798 0.961 . S
C783 H799 0.960 . S
H784 C768 0.931 . S
H785 C773 0.929 . S
H786 C774 0.960 . S
H787 C774 0.962 . S
H788 C774 0.960 . S
H789 C775 0.961 . S
H790 C775 0.961 . S
H791 C775 0.961 . S
H792 C776 0.931 . S
H793 C781 0.930 . S
H794 C782 0.956 . S
H795 C782 0.961 . S
H796 C782 0.961 . S
H797 C783 0.958 . S
H798 C783 0.961 . S
H799 C783 0.960 . S
C800 C801 1.391 . S
C800 C802 1.394 . S
C800 H816 0.931 . S
C801 C800 1.391 . S
C801 C805 1.376 . S
C802 C800 1.394 . S
C802 C803 1.369 . S
C802 C806 1.531 . S
C803 C802 1.369 . S
C803 C804 1.410 . S
C803 C811 1.503 . S
C804 C803 1.410 . S
C804 C805 1.392 . S
C804 C807 1.511 . S
C805 C801 1.376 . S
C805 C804 1.392 . S
C805 H817 0.929 . S
C806 C802 1.531 . S
C806 H818 0.960 . S
C806 H819 0.962 . S
C806 H820 0.960 . S
C807 C804 1.511 . S
C807 H821 0.961 . S
C807 H822 0.961 . S
C807 H823 0.961 . S
C808 C809 1.370 . S
C808 C810 1.363 . S
C808 H824 0.931 . S
C809 C808 1.370 . S
C809 C813 1.408 . S
C810 C808 1.363 . S
C810 C811 1.370 . S
C810 C814 1.524 . S
C811 C803 1.503 . S
C811 C810 1.370 . S
C811 C812 1.403 . S
C812 C811 1.403 . S
C812 C813 1.404 . S
C812 C815 1.539 . S
C813 C809 1.408 . S
C813 C812 1.404 . S
C813 H825 0.930 . S
C814 C810 1.524 . S
C814 H826 0.956 . S
C814 H827 0.961 . S
C814 H828 0.961 . S
C815 C812 1.539 . S
C815 H829 0.958 . S
C815 H830 0.961 . S
C815 H831 0.960 . S
H816 C800 0.931 . S
H817 C805 0.929 . S
H818 C806 0.960 . S
H819 C806 0.962 . S
H820 C806 0.960 . S
H821 C807 0.961 . S
H822 C807 0.961 . S
H823 C807 0.961 . S
H824 C808 0.931 . S
H825 C813 0.930 . S
H826 C814 0.956 . S
H827 C814 0.961 . S
H828 C814 0.961 . S
H829 C815 0.958 . S
H830 C815 0.961 . S
H831 C815 0.960 . S
C832 C833 1.391 . S
C832 C834 1.394 1_455 S
C832 H848 0.931 1_455 S
C833 C832 1.391 . S
C833 C837 1.376 . S
C834 C832 1.394 1_655 S
C834 C835 1.369 1_655 S
C834 C838 1.531 . S
C835 C834 1.369 1_455 S
C835 C836 1.410 . S
C835 C843 1.503 1_455 S
C836 C835 1.410 . S
C836 C837 1.392 . S
C836 C839 1.511 . S
C837 C833 1.376 . S
C837 C836 1.392 . S
C837 H849 0.929 . S
C838 C834 1.531 . S
C838 H850 0.960 . S
C838 H851 0.962 . S
C838 H852 0.960 . S
C839 C836 1.511 . S
C839 H853 0.961 . S
C839 H854 0.961 . S
C839 H855 0.961 . S
C840 C841 1.370 . S
C840 C842 1.363 . S
C840 H856 0.931 . S
C841 C840 1.370 . S
C841 C845 1.391 1_655 S
C842 C840 1.363 . S
C842 C843 1.370 . S
C842 C846 1.524 . S
C843 C835 1.503 1_655 S
C843 C842 1.370 . S
C843 C844 1.403 1_655 S
C844 C843 1.403 1_455 S
C844 C845 1.412 . S
C844 C847 1.539 . S
C845 C841 1.391 1_455 S
C845 C844 1.412 . S
C845 H857 0.940 . S
C846 C842 1.524 . S
C846 H858 0.956 . S
C846 H859 0.961 . S
C846 H860 0.961 . S
C847 C844 1.539 . S
C847 H861 0.958 . S
C847 H862 0.961 . S
C847 H863 0.960 . S
H848 C832 0.931 1_655 S
H849 C837 0.929 . S
H850 C838 0.960 . S
H851 C838 0.962 . S
H852 C838 0.960 . S
H853 C839 0.961 . S
H854 C839 0.961 . S
H855 C839 0.961 . S
H856 C840 0.931 . S
H857 C845 0.940 . S
H858 C846 0.956 . S
H859 C846 0.961 . S
H860 C846 0.961 . S
H861 C847 0.958 . S
H862 C847 0.961 . S
H863 C847 0.960 . S
C864 C865 1.391 1_655 S
C864 C866 1.394 . S
C864 H880 0.931 . S
C865 C864 1.391 1_455 S
C865 C869 1.376 . S
C866 C864 1.394 . S
C866 C867 1.369 1_655 S
C866 C870 1.531 . S
C867 C866 1.369 1_455 S
C867 C868 1.410 . S
C867 C875 1.503 1_455 S
C868 C867 1.410 . S
C868 C869 1.392 . S
C868 C871 1.511 . S
C869 C865 1.376 . S
C869 C868 1.392 . S
C869 H881 0.929 . S
C870 C866 1.531 . S
C870 H882 0.960 . S
C870 H883 0.962 . S
C870 H884 0.960 . S
C871 C868 1.511 . S
C871 H885 0.961 . S
C871 H886 0.961 . S
C871 H887 0.961 . S
C872 C873 1.370 . S
C872 C874 1.363 . S
C872 H888 0.931 . S
C873 C872 1.370 . S
C873 C877 1.408 . S
C874 C872 1.363 . S
C874 C875 1.370 . S
C874 C878 1.524 1_655 S
C875 C867 1.503 1_655 S
C875 C874 1.370 . S
C875 C876 1.403 . S
C876 C875 1.403 . S
C876 C877 1.404 . S
C876 C879 1.539 . S
C877 C873 1.408 . S
C877 C876 1.404 . S
C877 H889 0.930 . S
C878 C874 1.524 1_455 S
C878 H890 0.956 1_455 S
C878 H891 0.961 . S
C878 H892 0.961 . S
C879 C876 1.539 . S
C879 H893 0.958 . S
C879 H894 0.961 . S
C879 H895 0.960 1_655 S
H880 C864 0.931 . S
H881 C869 0.929 . S
H882 C870 0.960 . S
H883 C870 0.962 . S
H884 C870 0.960 . S
H885 C871 0.961 . S
H886 C871 0.961 . S
H887 C871 0.961 . S
H888 C872 0.931 . S
H889 C877 0.930 . S
H890 C878 0.956 1_655 S
H891 C878 0.961 . S
H892 C878 0.961 . S
H893 C879 0.958 . S
H894 C879 0.961 . S
H895 C879 0.960 1_455 S
C896 C897 1.391 . S
C896 C898 1.394 . S
C896 H912 0.931 . S
C897 C896 1.391 . S
C897 C901 1.376 . S
C898 C896 1.394 . S
C898 C899 1.369 . S
C898 C902 1.531 . S
C899 C898 1.369 . S
C899 C900 1.410 . S
C899 C907 1.503 . S
C900 C899 1.410 . S
C900 C901 1.392 . S
C900 C903 1.511 . S
C901 C897 1.376 . S
C901 C900 1.392 . S
C901 H913 0.929 . S
C902 C898 1.531 . S
C902 H914 0.960 . S
C902 H915 0.962 . S
C902 H916 0.960 . S
C903 C900 1.511 . S
C903 H917 0.961 . S
C903 H918 0.961 . S
C903 H919 0.961 . S
C904 C905 1.370 . S
C904 C906 1.363 . S
C904 H920 0.931 . S
C905 C904 1.370 . S
C905 C909 1.408 . S
C906 C904 1.363 . S
C906 C907 1.370 . S
C906 C910 1.524 . S
C907 C899 1.503 . S
C907 C906 1.370 . S
C907 C908 1.403 . S
C908 C907 1.403 . S
C908 C909 1.404 . S
C908 C911 1.539 . S
C909 C905 1.408 . S
C909 C908 1.404 . S
C909 H921 0.930 . S
C910 C906 1.524 . S
C910 H922 0.956 . S
C910 H923 0.961 . S
C910 H924 0.961 . S
C911 C908 1.539 . S
C911 H925 0.958 . S
C911 H926 0.961 . S
C911 H927 0.960 . S
H912 C896 0.931 . S
H913 C901 0.929 . S
H914 C902 0.960 . S
H915 C902 0.962 . S
H916 C902 0.960 . S
H917 C903 0.961 . S
H918 C903 0.961 . S
H919 C903 0.961 . S
H920 C904 0.931 . S
H921 C909 0.930 . S
H922 C910 0.956 . S
H923 C910 0.961 . S
H924 C910 0.961 . S
H925 C911 0.958 . S
H926 C911 0.961 . S
H927 C911 0.960 . S
C928 C929 1.391 . S
C928 C930 1.394 . S
C928 H944 0.931 . S
C929 C928 1.391 . S
C929 C933 1.376 . S
C930 C928 1.394 . S
C930 C931 1.369 . S
C930 C934 1.531 . S
C931 C930 1.369 . S
C931 C932 1.410 . S
C931 C939 1.503 . S
C932 C931 1.410 . S
C932 C933 1.392 . S
C932 C935 1.511 . S
C933 C929 1.376 . S
C933 C932 1.392 . S
C933 H945 0.929 . S
C934 C930 1.531 . S
C934 H946 0.960 . S
C934 H947 0.962 . S
C934 H948 0.960 . S
C935 C932 1.511 . S
C935 H949 0.961 . S
C935 H950 0.961 . S
C935 H951 0.961 . S
C936 C937 1.370 . S
C936 C938 1.363 . S
C936 H952 0.931 . S
C937 C936 1.370 . S
C937 C941 1.408 . S
C938 C936 1.363 . S
C938 C939 1.370 . S
C938 C942 1.524 . S
C939 C931 1.503 . S
C939 C938 1.370 . S
C939 C940 1.403 . S
C940 C939 1.403 . S
C940 C941 1.404 . S
C940 C943 1.539 . S
C941 C937 1.408 . S
C941 C940 1.404 . S
C941 H953 0.930 . S
C942 C938 1.524 . S
C942 H954 0.956 . S
C942 H955 0.961 . S
C942 H956 0.961 . S
C943 C940 1.539 . S
C943 H957 0.958 . S
C943 H958 0.961 . S
C943 H959 0.960 . S
H944 C928 0.931 . S
H945 C933 0.929 . S
H946 C934 0.960 . S
H947 C934 0.962 . S
H948 C934 0.960 . S
H949 C935 0.961 . S
H950 C935 0.961 . S
H951 C935 0.961 . S
H952 C936 0.931 . S
H953 C941 0.930 . S
H954 C942 0.956 . S
H955 C942 0.961 . S
H956 C942 0.961 . S
H957 C943 0.958 . S
H958 C943 0.961 . S
H959 C943 0.960 . S
C960 C961 1.391 1_655 S
C960 C962 1.394 . S
C960 H976 0.931 . S
C961 C960 1.391 1_455 S
C961 C965 1.376 . S
C962 C960 1.394 . S
C962 C963 1.369 1_655 S
C962 C966 1.531 . S
C963 C962 1.369 1_455 S
C963 C964 1.410 . S
C963 C971 1.503 1_455 S
C964 C963 1.410 . S
C964 C965 1.392 . S
C964 C967 1.511 . S
C965 C961 1.376 . S
C965 C964 1.392 . S
C965 H977 0.929 . S
C966 C962 1.531 . S
C966 H978 0.960 . S
C966 H979 0.962 . S
C966 H980 0.960 . S
C967 C964 1.511 . S
C967 H981 0.961 . S
C967 H982 0.961 . S
C967 H983 0.961 . S
C968 C969 1.370 . S
C968 C970 1.363 . S
C968 H984 0.931 . S
C969 C968 1.370 . S
C969 C973 1.408 . S
C970 C968 1.363 . S
C970 C971 1.370 . S
C970 C974 1.524 . S
C971 C963 1.503 1_655 S
C971 C970 1.370 . S
C971 C972 1.403 . S
C972 C971 1.403 . S
C972 C973 1.404 . S
C972 C975 1.539 1_655 S
C973 C969 1.408 . S
C973 C972 1.404 . S
C973 H985 0.930 . S
C974 C970 1.524 . S
C974 H986 0.956 . S
C974 H987 0.961 1_655 S
C974 H988 0.961 . S
C975 C972 1.539 1_455 S
C975 H989 0.958 1_455 S
C975 H990 0.961 . S
C975 H991 0.960 . S
H976 C960 0.931 . S
H977 C965 0.929 . S
H978 C966 0.960 . S
H979 C966 0.962 . S
H980 C966 0.960 . S
H981 C967 0.961 . S
H982 C967 0.961 . S
H983 C967 0.961 . S
H984 C968 0.931 . S
H985 C973 0.930 . S
H986 C974 0.956 . S
H987 C974 0.961 1_455 S
H988 C974 0.961 . S
H989 C975 0.958 1_655 S
H990 C975 0.961 . S
H991 C975 0.960 . S
C992 C993 1.391 . S
C992 C994 1.394 . S
C992 H1008 0.931 . S
C993 C992 1.391 . S
C993 C997 1.376 1_655 S
C994 C992 1.394 . S
C994 C995 1.369 . S
C994 C998 1.531 1_556 S
C995 C994 1.369 . S
C995 C996 1.410 1_655 S
C995 C1003 1.503 1_666 S
C996 C995 1.410 1_455 S
C996 C997 1.392 . S
C996 C999 1.511 1_565 S
C997 C993 1.376 1_455 S
C997 C996 1.392 . S
C997 H1009 0.929 . S
C998 C994 1.531 1_554 S
C998 H1010 0.960 . S
C998 H1011 0.962 . S
C998 H1012 0.960 . S
C999 C996 1.511 1_545 S
C999 H1013 0.961 . S
C999 H1014 0.961 . S
C999 H1015 0.961 . S
C1000 C1001 1.370 . S
C1000 C1002 1.363 1_455 S
C1000 H1016 0.931 1_455 S
C1001 C1000 1.370 . S
C1001 C1005 1.420 . S
C1002 C1000 1.363 1_655 S
C1002 C1003 1.370 1_655 S
C1002 C1006 1.524 . S
C1003 C995 1.503 1_444 S
C1003 C1002 1.370 1_455 S
C1003 C1004 1.403 1_545 S
C1004 C1003 1.403 1_565 S
C1004 C1005 1.398 1_565 S
C1004 C1007 1.539 . S
C1005 C1001 1.420 . S
C1005 C1004 1.398 1_545 S
C1005 H1017 0.924 1_545 S
C1006 C1002 1.524 . S
C1006 H1018 0.956 . S
C1006 H1019 0.961 1_554 S
C1006 H1020 0.961 . S
C1007 C1004 1.539 . S
C1007 H1021 0.958 . S
C1007 H1022 0.961 . S
C1007 H1023 0.960 . S
H1008 C992 0.931 . S
H1009 C997 0.929 . S
H1010 C998 0.960 . S
H1011 C998 0.962 . S
H1012 C998 0.960 . S
H1013 C999 0.961 . S
H1014 C999 0.961 . S
H1015 C999 0.961 . S
H1016 C1000 0.931 1_655 S
H1017 C1005 0.924 1_565 S
H1018 C1006 0.956 . S
H1019 C1006 0.961 1_556 S
H1020 C1006 0.961 . S
H1021 C1007 0.958 . S
H1022 C1007 0.961 . S
H1023 C1007 0.960 . S
C1024 C1025 1.391 . S
C1024 C1026 1.394 1_545 S
C1024 H1040 0.931 . S
C1025 C1024 1.391 . S
C1025 C1029 1.376 . S
C1026 C1024 1.394 1_565 S
C1026 C1027 1.369 1_565 S
C1026 C1030 1.531 . S
C1027 C1026 1.369 1_545 S
C1027 C1028 1.410 . S
C1027 C1035 1.503 1_546 S
C1028 C1027 1.410 . S
C1028 C1029 1.392 . S
C1028 C1031 1.511 . S
C1029 C1025 1.376 . S
C1029 C1028 1.392 . S
C1029 H1041 0.929 . S
C1030 C1026 1.531 . S
C1030 H1042 0.960 1_556 S
C1030 H1043 0.962 . S
C1030 H1044 0.960 . S
C1031 C1028 1.511 . S
C1031 H1045 0.961 . S
C1031 H1046 0.961 1_556 S
C1031 H1047 0.961 1_556 S
C1032 C1033 1.370 . S
C1032 C1034 1.363 . S
C1032 H1048 0.931 . S
C1033 C1032 1.370 . S
C1033 C1037 1.408 . S
C1034 C1032 1.363 . S
C1034 C1035 1.370 . S
C1034 C1038 1.524 1_554 S
C1035 C1027 1.503 1_564 S
C1035 C1034 1.370 . S
C1035 C1036 1.403 1_565 S
C1036 C1035 1.403 1_545 S
C1036 C1037 1.404 1_545 S
C1036 C1039 1.539 . S
C1037 C1033 1.408 . S
C1037 C1036 1.404 1_565 S
C1037 H1049 0.930 1_565 S
C1038 C1034 1.524 1_556 S
C1038 H1050 0.956 . S
C1038 H1051 0.961 . S
C1038 H1052 0.961 . S
C1039 C1036 1.539 . S
C1039 H1053 0.958 . S
C1039 H1054 0.961 . S
C1039 H1055 0.960 . S
H1040 C1024 0.931 . S
H1041 C1029 0.929 . S
H1042 C1030 0.960 1_554 S
H1043 C1030 0.962 . S
H1044 C1030 0.960 . S
H1045 C1031 0.961 . S
H1046 C1031 0.961 1_554 S
H1047 C1031 0.961 1_554 S
H1048 C1032 0.931 . S
H1049 C1037 0.930 1_545 S
H1050 C1038 0.956 . S
H1051 C1038 0.961 . S
H1052 C1038 0.961 . S
H1053 C1039 0.958 . S
H1054 C1039 0.961 . S
H1055 C1039 0.960 . S
C1056 C1057 1.391 . S
C1056 C1058 1.394 . S
C1056 H1072 0.931 . S
C1057 C1056 1.391 . S
C1057 C1061 1.376 . S
C1058 C1056 1.394 . S
C1058 C1059 1.369 . S
C1058 C1062 1.531 . S
C1059 C1058 1.369 . S
C1059 C1060 1.410 . S
C1059 C1067 1.503 1_545 S
C1060 C1059 1.410 . S
C1060 C1061 1.392 . S
C1060 C1063 1.511 1_545 S
C1061 C1057 1.376 . S
C1061 C1060 1.392 . S
C1061 H1073 0.929 . S
C1062 C1058 1.531 . S
C1062 H1074 0.960 . S
C1062 H1075 0.962 . S
C1062 H1076 0.960 . S
C1063 C1060 1.511 1_565 S
C1063 H1077 0.961 . S
C1063 H1078 0.961 . S
C1063 H1079 0.961 1_565 S
C1064 C1065 1.370 . S
C1064 C1066 1.363 . S
C1064 H1080 0.931 . S
C1065 C1064 1.370 . S
C1065 C1069 1.382 1_565 S
C1066 C1064 1.363 . S
C1066 C1067 1.370 . S
C1066 C1070 1.524 . S
C1067 C1059 1.503 1_565 S
C1067 C1066 1.370 . S
C1067 C1068 1.403 1_565 S
C1068 C1067 1.403 1_545 S
C1068 C1069 1.416 . S
C1068 C1071 1.539 . S
C1069 C1065 1.382 1_545 S
C1069 C1068 1.416 . S
C1069 H1081 0.944 . S
C1070 C1066 1.524 . S
C1070 H1082 0.956 . S
C1070 H1083 0.961 . S
C1070 H1084 0.961 . S
C1071 C1068 1.539 . S
C1071 H1085 0.958 . S
C1071 H1086 0.961 . S
C1071 H1087 0.960 . S
H1072 C1056 0.931 . S
H1073 C1061 0.929 . S
H1074 C1062 0.960 . S
H1075 C1062 0.962 . S
H1076 C1062 0.960 . S
H1077 C1063 0.961 . S
H1078 C1063 0.961 . S
H1079 C1063 0.961 1_545 S
H1080 C1064 0.931 . S
H1081 C1069 0.944 . S
H1082 C1070 0.956 . S
H1083 C1070 0.961 . S
H1084 C1070 0.961 . S
H1085 C1071 0.958 . S
H1086 C1071 0.961 . S
H1087 C1071 0.960 . S
C1088 C1089 1.391 . S
C1088 C1090 1.394 . S
C1088 H1104 0.931 . S
C1089 C1088 1.391 . S
C1089 C1093 1.376 1_455 S
C1090 C1088 1.394 . S
C1090 C1091 1.369 . S
C1090 C1094 1.531 1_565 S
C1091 C1090 1.369 . S
C1091 C1092 1.410 1_455 S
C1091 C1099 1.503 1_465 S
C1092 C1091 1.410 1_655 S
C1092 C1093 1.392 . S
C1092 C1095 1.511 . S
C1093 C1089 1.376 1_655 S
C1093 C1092 1.392 . S
C1093 H1105 0.929 . S
C1094 C1090 1.531 1_545 S
C1094 H1106 0.960 . S
C1094 H1107 0.962 . S
C1094 H1108 0.960 . S
C1095 C1092 1.511 . S
C1095 H1109 0.961 . S
C1095 H1110 0.961 . S
C1095 H1111 0.961 . S
C1096 C1097 1.370 . S
C1096 C1098 1.363 . S
C1096 H1112 0.931 . S
C1097 C1096 1.370 . S
C1097 C1101 1.408 . S
C1098 C1096 1.363 . S
C1098 C1099 1.370 . S
C1098 C1102 1.524 . S
C1099 C1091 1.503 1_645 S
C1099 C1098 1.370 . S
C1099 C1100 1.403 1_645 S
C1100 C1099 1.403 1_465 S
C1100 C1101 1.404 1_465 S
C1100 C1103 1.539 . S
C1101 C1097 1.408 . S
C1101 C1100 1.404 1_645 S
C1101 H1113 0.930 1_545 S
C1102 C1098 1.524 . S
C1102 H1114 0.956 . S
C1102 H1115 0.961 . S
C1102 H1116 0.961 . S
C1103 C1100 1.539 . S
C1103 H1117 0.958 . S
C1103 H1118 0.961 . S
C1103 H1119 0.960 . S
H1104 C1088 0.931 . S
H1105 C1093 0.929 . S
H1106 C1094 0.960 . S
H1107 C1094 0.962 . S
H1108 C1094 0.960 . S
H1109 C1095 0.961 . S
H1110 C1095 0.961 . S
H1111 C1095 0.961 . S
H1112 C1096 0.931 . S
H1113 C1101 0.930 1_565 S
H1114 C1102 0.956 . S
H1115 C1102 0.961 . S
H1116 C1102 0.961 . S
H1117 C1103 0.958 . S
H1118 C1103 0.961 . S
H1119 C1103 0.960 . S
C1120 C1121 1.391 . S
C1120 C1122 1.394 . S
C1120 H1136 0.931 . S
C1121 C1120 1.391 . S
C1121 C1125 1.376 . S
C1122 C1120 1.394 . S
C1122 C1123 1.369 . S
C1122 C1126 1.509 1_554 S
C1123 C1122 1.369 . S
C1123 C1124 1.410 . S
C1123 C1131 1.503 1_554 S
C1124 C1123 1.410 . S
C1124 C1125 1.392 . S
C1124 C1127 1.511 . S
C1125 C1121 1.376 . S
C1125 C1124 1.392 . S
C1125 H1137 0.929 . S
C1126 C1122 1.509 1_556 S
C1126 H1138 0.993 . S
C1126 H1139 0.958 1_556 S
C1126 H1140 0.955 1_556 S
C1127 C1124 1.511 . S
C1127 H1141 0.961 . S
C1127 H1142 0.961 . S
C1127 H1143 0.961 . S
C1128 C1129 1.370 . S
C1128 C1130 1.363 . S
C1128 H1144 0.931 . S
C1129 C1128 1.370 . S
C1129 C1133 1.408 . S
C1130 C1128 1.363 . S
C1130 C1131 1.370 . S
C1130 C1134 1.524 1_556 S
C1131 C1123 1.503 1_556 S
C1131 C1130 1.370 . S
C1131 C1132 1.403 . S
C1132 C1131 1.403 . S
C1132 C1133 1.404 . S
C1132 C1135 1.539 . S
C1133 C1129 1.408 . S
C1133 C1132 1.404 . S
C1133 H1145 0.930 . S
C1134 C1130 1.524 1_554 S
C1134 H1146 0.956 . S
C1134 H1147 0.961 . S
C1134 H1148 0.961 . S
C1135 C1132 1.539 . S
C1135 H1149 0.958 . S
C1135 H1150 0.961 . S
C1135 H1151 0.960 . S
H1136 C1120 0.931 . S
H1137 C1125 0.929 . S
H1138 C1126 0.993 . S
H1139 C1126 0.958 1_554 S
H1140 C1126 0.955 1_554 S
H1141 C1127 0.961 . S
H1142 C1127 0.961 . S
H1143 C1127 0.961 . S
H1144 C1128 0.931 . S
H1145 C1133 0.930 . S
H1146 C1134 0.956 . S
H1147 C1134 0.961 . S
H1148 C1134 0.961 . S
H1149 C1135 0.958 . S
H1150 C1135 0.961 . S
H1151 C1135 0.960 . S
C1152 C1153 1.391 . S
C1152 C1154 1.394 1_655 S
C1152 H1168 0.931 1_655 S
C1153 C1152 1.391 . S
C1153 C1157 1.376 . S
C1154 C1152 1.394 1_455 S
C1154 C1155 1.369 . S
C1154 C1158 1.531 . S
C1155 C1154 1.369 . S
C1155 C1156 1.410 1_455 S
C1155 C1163 1.503 1_554 S
C1156 C1155 1.410 1_655 S
C1156 C1157 1.392 . S
C1156 C1159 1.511 1_554 S
C1157 C1153 1.376 . S
C1157 C1156 1.392 . S
C1157 H1169 0.929 . S
C1158 C1154 1.531 . S
C1158 H1170 0.960 . S
C1158 H1171 0.962 . S
C1158 H1172 0.960 . S
C1159 C1156 1.511 1_556 S
C1159 H1173 0.961 . S
C1159 H1174 0.961 . S
C1159 H1175 0.961 . S
C1160 C1161 1.370 1_655 S
C1160 C1162 1.363 . S
C1160 H1176 0.931 . S
C1161 C1160 1.370 1_455 S
C1161 C1165 1.408 . S
C1162 C1160 1.363 . S
C1162 C1163 1.370 1_655 S
C1162 C1166 1.524 . S
C1163 C1155 1.503 1_556 S
C1163 C1162 1.370 1_455 S
C1163 C1164 1.403 . S
C1164 C1163 1.403 . S
C1164 C1165 1.404 . S
C1164 C1167 1.539 . S
C1165 C1161 1.408 . S
C1165 C1164 1.404 . S
C1165 H1177 0.930 . S
C1166 C1162 1.524 . S
C1166 H1178 0.956 1_556 S
C1166 H1179 0.961 . S
C1166 H1180 0.961 . S
C1167 C1164 1.539 . S
C1167 H1181 0.958 . S
C1167 H1182 0.961 . S
C1167 H1183 0.960 . S
H1168 C1152 0.931 1_455 S
H1169 C1157 0.929 . S
H1170 C1158 0.960 . S
H1171 C1158 0.962 . S
H1172 C1158 0.960 . S
H1173 C1159 0.961 . S
H1174 C1159 0.961 . S
H1175 C1159 0.961 . S
H1176 C1160 0.931 . S
H1177 C1165 0.930 . S
H1178 C1166 0.956 1_554 S
H1179 C1166 0.961 . S
H1180 C1166 0.961 . S
H1181 C1167 0.958 . S
H1182 C1167 0.961 . S
H1183 C1167 0.960 . S
C1184 C1185 1.391 1_455 S
C1184 C1186 1.394 . S
C1184 H1200 0.931 . S
C1185 C1184 1.391 1_655 S
C1185 C1189 1.376 . S
C1186 C1184 1.394 . S
C1186 C1187 1.369 1_455 S
C1186 C1190 1.531 . S
C1187 C1186 1.369 1_655 S
C1187 C1188 1.410 . S
C1187 C1195 1.503 1_655 S
C1188 C1187 1.410 . S
C1188 C1189 1.392 . S
C1188 C1191 1.511 . S
C1189 C1185 1.376 . S
C1189 C1188 1.392 . S
C1189 H1201 0.929 . S
C1190 C1186 1.531 . S
C1190 H1202 0.960 . S
C1190 H1203 0.962 . S
C1190 H1204 0.960 . S
C1191 C1188 1.511 . S
C1191 H1205 0.961 . S
C1191 H1206 0.961 . S
C1191 H1207 0.961 . S
C1192 C1193 1.370 . S
C1192 C1194 1.363 . S
C1192 H1208 0.931 . S
C1193 C1192 1.370 . S
C1193 C1197 1.408 . S
C1194 C1192 1.363 . S
C1194 C1195 1.370 . S
C1194 C1198 1.524 . S
C1195 C1187 1.503 1_455 S
C1195 C1194 1.370 . S
C1195 C1196 1.403 . S
C1196 C1195 1.403 . S
C1196 C1197 1.404 . S
C1196 C1199 1.539 1_455 S
C1197 C1193 1.408 . S
C1197 C1196 1.404 . S
C1197 H1209 0.930 . S
C1198 C1194 1.524 . S
C1198 H1210 0.956 . S
C1198 H1211 0.961 1_455 S
C1198 H1212 0.961 . S
C1199 C1196 1.539 1_655 S
C1199 H1213 0.958 1_655 S
C1199 H1214 0.961 . S
C1199 H1215 0.960 . S
H1200 C1184 0.931 . S
H1201 C1189 0.929 . S
H1202 C1190 0.960 . S
H1203 C1190 0.962 . S
H1204 C1190 0.960 . S
H1205 C1191 0.961 . S
H1206 C1191 0.961 . S
H1207 C1191 0.961 . S
H1208 C1192 0.931 . S
H1209 C1197 0.930 . S
H1210 C1198 0.956 . S
H1211 C1198 0.961 1_655 S
H1212 C1198 0.961 . S
H1213 C1199 0.958 1_455 S
H1214 C1199 0.961 . S
H1215 C1199 0.960 . S
C1216 C1217 1.391 . S
C1216 C1218 1.394 . S
C1216 H1232 0.931 . S
C1217 C1216 1.391 . S
C1217 C1221 1.376 . S
C1218 C1216 1.394 . S
C1218 C1219 1.369 . S
C1218 C1222 1.531 . S
C1219 C1218 1.369 . S
C1219 C1220 1.410 . S
C1219 C1227 1.503 . S
C1220 C1219 1.410 . S
C1220 C1221 1.392 . S
C1220 C1223 1.511 . S
C1221 C1217 1.376 . S
C1221 C1220 1.392 . S
C1221 H1233 0.929 . S
C1222 C1218 1.531 . S
C1222 H1234 0.960 . S
C1222 H1235 0.962 . S
C1222 H1236 0.960 . S
C1223 C1220 1.511 . S
C1223 H1237 0.961 . S
C1223 H1238 0.961 . S
C1223 H1239 0.961 . S
C1224 C1225 1.370 . S
C1224 C1226 1.363 . S
C1224 H1240 0.931 . S
C1225 C1224 1.370 . S
C1225 C1229 1.408 . S
C1226 C1224 1.363 . S
C1226 C1227 1.370 . S
C1226 C1230 1.524 . S
C1227 C1219 1.503 . S
C1227 C1226 1.370 . S
C1227 C1228 1.403 . S
C1228 C1227 1.403 . S
C1228 C1229 1.404 . S
C1228 C1231 1.539 . S
C1229 C1225 1.408 . S
C1229 C1228 1.404 . S
C1229 H1241 0.930 . S
C1230 C1226 1.524 . S
C1230 H1242 0.956 . S
C1230 H1243 0.961 . S
C1230 H1244 0.961 . S
C1231 C1228 1.539 . S
C1231 H1245 0.958 . S
C1231 H1246 0.961 . S
C1231 H1247 0.960 . S
H1232 C1216 0.931 . S
H1233 C1221 0.929 . S
H1234 C1222 0.960 . S
H1235 C1222 0.962 . S
H1236 C1222 0.960 . S
H1237 C1223 0.961 . S
H1238 C1223 0.961 . S
H1239 C1223 0.961 . S
H1240 C1224 0.931 . S
H1241 C1229 0.930 . S
H1242 C1230 0.956 . S
H1243 C1230 0.961 . S
H1244 C1230 0.961 . S
H1245 C1231 0.958 . S
H1246 C1231 0.961 . S
H1247 C1231 0.960 . S
C225 C22 1.498 . S
C233 C8 1.506 . S
C257 C36 1.500 . S
C265 C50 1.500 . S
C289 C64 1.509 . S
C297 C78 1.499 . S
C321 C106 1.510 . S
C329 C92 1.499 . S
C353 C134 1.489 . S
C361 C120 1.506 . S
C385 C162 1.507 . S
C393 C148 1.502 . S
C417 C190 1.491 . S
C425 C176 1.505 . S
C449 C218 1.495 . S
C457 C204 1.504 . S
C481 C45 1.410 . S
C489 C3 1.407 . S
C513 C17 1.403 . S
C521 C31 1.399 . S
C545 C101 1.412 . S
C553 C59 1.404 . S
C577 C87 1.384 . S
C585 C73 1.399 . S
C609 C115 1.393 . S
C617 C157 1.396 . S
C641 C143 1.401 . S
C649 C129 1.398 . S
C673 C213 1.385 . S
C681 C171 1.401 . S
C705 C185 1.404 . S
C713 C199 1.407 . S
C737 C9 1.490 . S
C745 C135 1.482 . S
C769 C23 1.490 . S
C777 C121 1.482 . S
C801 C163 1.479 . S
C809 C37 1.482 . S
C833 C149 1.486 . S
C841 C51 1.482 . S
C865 C191 1.494 . S
C873 C65 1.492 . S
C897 C177 1.502 . S
C905 C79 1.485 . S
C929 C93 1.468 . S
C937 C219 1.492 . S
C961 C107 1.498 . S
C969 C205 1.490 . S
C993 C63 1.317 . S
C1001 C7 1.346 . S
C1025 C77 1.341 . S
C1033 C21 1.337 . S
C1057 C91 1.318 . S
C1065 C35 1.346 . S
C1089 C105 1.339 . S
C1097 C49 1.338 . S
C1121 C119 1.349 . S
C1129 C175 1.331 . S
C1153 C133 1.314 . S
C1161 C189 1.346 . S
C1185 C203 1.347 . S
C1193 C147 1.332 . S
C1217 C217 1.319 . S
C1225 C161 1.344 . S
