# Generated by pormake.
# Topology und, (4)-cn, num edge types: 1
# Building blocks:
#     Node 0, Type 0, BuildingBlock: QUQFOY_clean_sbu_3, # of connection points: 4
#     Node 1, Type 0, BuildingBlock: QUQFOY_clean_sbu_3, # of connection points: 4
#     Node 2, Type 0, BuildingBlock: QUQFOY_clean_sbu_3, # of connection points: 4
#     Node 3, Type 0, BuildingBlock: QUQFOY_clean_sbu_3, # of connection points: 4
#     Node 4, Type 0, BuildingBlock: QUQFOY_clean_sbu_3, # of connection points: 4
#     Node 5, Type 0, BuildingBlock: QUQFOY_clean_sbu_3, # of connection points: 4
#     Node 6, Type 0, BuildingBlock: QUQFOY_clean_sbu_3, # of connection points: 4
#     Node 7, Type 0, BuildingBlock: QUQFOY_clean_sbu_3, # of connection points: 4
#     Node 8, Type 0, BuildingBlock: QUQFOY_clean_sbu_3, # of connection points: 4
#     Node 9, Type 0, BuildingBlock: QUQFOY_clean_sbu_3, # of connection points: 4
#     Node 10, Type 0, BuildingBlock: QUQFOY_clean_sbu_3, # of connection points: 4
#     Node 11, Type 0, BuildingBlock: QUQFOY_clean_sbu_3, # of connection points: 4
#     Node 12, Type 0, BuildingBlock: QUQFOY_clean_sbu_3, # of connection points: 4
#     Node 13, Type 0, BuildingBlock: QUQFOY_clean_sbu_3, # of connection points: 4
#     Node 14, Type 0, BuildingBlock: QUQFOY_clean_sbu_3, # of connection points: 4
#     Node 15, Type 0, BuildingBlock: QUQFOY_clean_sbu_3, # of connection points: 4
#     Edge 16, Type (0, 0), BuildingBlock: CIFDUS_clean_linker_0, # of connection points: 2
#     Edge 17, Type (0, 0), BuildingBlock: CIFDUS_clean_linker_0, # of connection points: 2
#     Edge 18, Type (0, 0), BuildingBlock: CIFDUS_clean_linker_0, # of connection points: 2
#     Edge 19, Type (0, 0), BuildingBlock: CIFDUS_clean_linker_0, # of connection points: 2
#     Edge 20, Type (0, 0), BuildingBlock: CIFDUS_clean_linker_0, # of connection points: 2
#     Edge 21, Type (0, 0), BuildingBlock: CIFDUS_clean_linker_0, # of connection points: 2
#     Edge 22, Type (0, 0), BuildingBlock: CIFDUS_clean_linker_0, # of connection points: 2
#     Edge 23, Type (0, 0), BuildingBlock: CIFDUS_clean_linker_0, # of connection points: 2
#     Edge 24, Type (0, 0), BuildingBlock: CIFDUS_clean_linker_0, # of connection points: 2
#     Edge 25, Type (0, 0), BuildingBlock: CIFDUS_clean_linker_0, # of connection points: 2
#     Edge 26, Type (0, 0), BuildingBlock: CIFDUS_clean_linker_0, # of connection points: 2
#     Edge 27, Type (0, 0), BuildingBlock: CIFDUS_clean_linker_0, # of connection points: 2
#     Edge 28, Type (0, 0), BuildingBlock: CIFDUS_clean_linker_0, # of connection points: 2
#     Edge 29, Type (0, 0), BuildingBlock: CIFDUS_clean_linker_0, # of connection points: 2
#     Edge 30, Type (0, 0), BuildingBlock: CIFDUS_clean_linker_0, # of connection points: 2
#     Edge 31, Type (0, 0), BuildingBlock: CIFDUS_clean_linker_0, # of connection points: 2
#     Edge 32, Type (0, 0), BuildingBlock: CIFDUS_clean_linker_0, # of connection points: 2
#     Edge 33, Type (0, 0), BuildingBlock: CIFDUS_clean_linker_0, # of connection points: 2
#     Edge 34, Type (0, 0), BuildingBlock: CIFDUS_clean_linker_0, # of connection points: 2
#     Edge 35, Type (0, 0), BuildingBlock: CIFDUS_clean_linker_0, # of connection points: 2
#     Edge 36, Type (0, 0), BuildingBlock: CIFDUS_clean_linker_0, # of connection points: 2
#     Edge 37, Type (0, 0), BuildingBlock: CIFDUS_clean_linker_0, # of connection points: 2
#     Edge 38, Type (0, 0), BuildingBlock: CIFDUS_clean_linker_0, # of connection points: 2
#     Edge 39, Type (0, 0), BuildingBlock: CIFDUS_clean_linker_0, # of connection points: 2
#     Edge 40, Type (0, 0), BuildingBlock: CIFDUS_clean_linker_0, # of connection points: 2
#     Edge 41, Type (0, 0), BuildingBlock: CIFDUS_clean_linker_0, # of connection points: 2
#     Edge 42, Type (0, 0), BuildingBlock: CIFDUS_clean_linker_0, # of connection points: 2
#     Edge 43, Type (0, 0), BuildingBlock: CIFDUS_clean_linker_0, # of connection points: 2
#     Edge 44, Type (0, 0), BuildingBlock: CIFDUS_clean_linker_0, # of connection points: 2
#     Edge 45, Type (0, 0), BuildingBlock: CIFDUS_clean_linker_0, # of connection points: 2
#     Edge 46, Type (0, 0), BuildingBlock: CIFDUS_clean_linker_0, # of connection points: 2
#     Edge 47, Type (0, 0), BuildingBlock: CIFDUS_clean_linker_0, # of connection points: 2
# Relax obj value: 0.006
# Max RMSD: 0.045
# Mean RMSD: 0.045
data_MOF--net-und--node1-QUQFOY_clean_sbu_3--edge1-CIFDUS_clean_linker_0
_symmetry_space_group_name_H-M    P1
_symmetry_Int_Tables_number       1
_symmetry_cell_setting            triclinic
loop_
_symmetry_equiv_pos_as_xyz
'x, y, z'
_cell_length_a     55.115912
_cell_length_b     55.25738
_cell_length_c     20.78979
_cell_angle_alpha  90.20771
_cell_angle_beta   89.843927
_cell_angle_gamma 95.510466
loop_
_atom_site_label
_atom_site_type_symbol
_atom_site_fract_x
_atom_site_fract_y
_atom_site_fract_z
_atom_type_partial_charge
C0 C 0.23742 0.30869 0.10338 0.0
O1 O 0.25944 0.31187 0.08478 0.0
Cd2 Cd 0.26993 0.33373 -0.01319 0.0
O3 O 0.22107 0.31899 0.07385 0.0
Cd4 Cd 0.21674 0.34754 -0.01539 0.0
C5 C 0.22859 0.3026 0.88508 0.0
O6 O 0.25571 0.37355 -0.01739 0.0
O7 O 0.23397 0.37167 0.89592 0.0
O8 O 0.1938 0.36942 0.0615 0.0
C9 C 0.2525 0.38119 0.92587 0.0
O10 O 0.25065 0.30799 0.90213 0.0
C11 C 0.17573 0.37159 0.02503 0.0
O12 O 0.2114 0.31314 0.91083 0.0
O13 O 0.17652 0.36244 0.96894 0.0
C14 C 0.93345 -0.01152 0.14512 0.0
O15 O 0.93008 0.96659 0.16393 0.0
Cd16 Cd 0.90777 0.95649 0.26162 0.0
O17 O 0.92322 0.00501 0.17448 0.0
Cd18 Cd 0.8946 0.01042 0.26342 0.0
C19 C 0.93905 -0.00217 0.36356 0.0
O20 O 0.86843 0.97184 0.26427 0.0
O21 O 0.86937 -0.00629 0.35094 0.0
O22 O 0.87308 0.03294 0.18576 0.0
C23 C 0.86021 0.97513 0.32055 0.0
O24 O 0.93346 0.97586 0.34618 0.0
C25 C 0.87104 0.05131 0.22142 0.0
O26 O 0.92879 0.01513 0.33797 0.0
O27 O 0.88021 0.05093 0.27745 0.0
C28 C 0.21042 0.70503 0.61523 0.0
O29 O 0.18872 0.69825 0.59819 0.0
Cd30 Cd 0.18015 0.67529 0.50074 0.0
O31 O 0.22831 0.6974 0.58502 0.0
Cd32 Cd 0.23666 0.66907 0.49757 0.0
C33 C 0.21769 0.71025 0.39633 0.0
O34 O 0.20076 0.63916 0.49497 0.0
O35 O 0.22306 0.64312 0.40906 0.0
O36 O 0.26086 0.6495 0.57525 0.0
C37 C 0.20506 0.63207 0.43809 0.0
O38 O 0.1964 0.70236 0.41543 0.0
C39 C 0.27961 0.64901 0.53993 0.0
O40 O 0.23663 0.7025 0.42116 0.0
O41 O 0.27883 0.65855 0.48445 0.0
C42 C 0.53348 0.01356 0.62477 0.0
O43 O 0.53749 0.03557 0.64255 0.0
Cd44 Cd 0.56282 0.04728 0.73353 0.0
O45 O 0.54434 -0.00289 0.65219 0.0
Cd46 Cd 0.57503 -0.00694 0.73663 0.0
C47 C 0.53424 0.00854 0.84539 0.0
O48 O 0.60159 0.03106 0.72569 0.0
O49 O 0.60343 0.01159 0.81528 0.0
O50 O 0.59407 0.96762 0.65983 0.0
C51 C 0.61185 0.02903 0.77979 0.0
O52 O 0.53969 0.0302 0.8257 0.0
C53 C 0.59684 0.95046 0.6987 0.0
O54 O 0.54327 -0.00933 0.81848 0.0
O55 O 0.58904 0.95281 0.75578 0.0
C56 C 0.72768 0.69539 0.88314 0.0
O57 O 0.70566 0.6916 0.90148 0.0
Cd58 Cd 0.69452 0.6684 -0.0031 0.0
O59 O 0.74426 0.68506 0.91166 0.0
Cd60 Cd 0.74915 0.65566 -0.00135 0.0
C61 C 0.73527 0.69887 0.10182 0.0
O62 O 0.71041 0.62951 -0.00136 0.0
O63 O 0.73224 0.63014 0.08503 0.0
O64 O 0.77259 0.6346 0.92113 0.0
C65 C 0.71348 0.62131 0.05487 0.0
O66 O 0.71338 0.69319 0.08374 0.0
C67 C 0.79073 0.63263 0.95758 0.0
O68 O 0.75294 0.6892 0.07552 0.0
O69 O 0.78977 0.64163 0.01382 0.0
C70 C 0.03481 0.0075 0.8695 0.0
O71 O 0.03793 0.02958 0.85212 0.0
Cd72 Cd 0.06286 0.0426 0.76143 0.0
O73 O 0.04644 -0.00841 0.84172 0.0
Cd74 Cd 0.07766 -0.01103 0.75674 0.0
C75 C 0.03604 0.00274 0.64881 0.0
O76 O 0.10235 0.02808 0.76888 0.0
O77 O 0.10555 0.00919 0.67855 0.0
O78 O 0.09749 0.96405 0.83285 0.0
C79 C 0.11284 0.02693 0.71463 0.0
O80 O 0.04053 0.02449 0.66915 0.0
C81 C 0.10111 0.94721 0.79332 0.0
O82 O 0.0459 -0.01468 0.67503 0.0
O83 O 0.09355 0.94955 0.73615 0.0
C84 C 0.73748 0.3019 0.39776 0.0
O85 O 0.75942 0.30585 0.41633 0.0
Cd86 Cd 0.76958 0.32842 0.51339 0.0
O87 O 0.72065 0.31178 0.42692 0.0
Cd88 Cd 0.7144 0.34061 0.51459 0.0
C89 C 0.72814 0.29695 0.61565 0.0
O90 O 0.7528 0.3668 0.51478 0.0
O91 O 0.73071 0.36667 0.601 0.0
O92 O 0.69245 0.3611 0.43393 0.0
C93 C 0.74952 0.37536 0.57066 0.0
O94 O 0.75003 0.30286 0.59766 0.0
C95 C 0.67387 0.36382 0.46837 0.0
O96 O 0.71044 0.30675 0.59033 0.0
O97 O 0.67376 0.35535 0.52522 0.0
C98 C 0.43197 -0.00237 0.35037 0.0
O99 O 0.42815 0.97576 0.33127 0.0
Cd100 Cd 0.40592 0.96557 0.23388 0.0
O101 O 0.42213 0.01442 0.32149 0.0
Cd102 Cd 0.39357 0.02019 0.23316 0.0
C103 C 0.43773 0.00685 0.13248 0.0
O104 O 0.36723 0.98189 0.2318 0.0
O105 O 0.36839 0.0037 0.14542 0.0
O106 O 0.37183 0.04231 0.31156 0.0
C107 C 0.35917 -0.01486 0.17554 0.0
O108 O 0.43178 -0.01502 0.14987 0.0
C109 C 0.36964 0.06072 0.27651 0.0
O110 O 0.4278 0.02443 0.15822 0.0
O111 O 0.37907 0.06065 0.22058 0.0
C112 C 0.74482 0.79744 0.61068 0.0
O113 O 0.76684 0.80135 0.59251 0.0
Cd114 Cd 0.77765 0.82476 0.49723 0.0
O115 O 0.72823 0.80771 0.58204 0.0
Cd116 Cd 0.72374 0.83713 0.49497 0.0
C117 C 0.73759 0.79425 0.39128 0.0
O118 O 0.76213 0.86391 0.49571 0.0
O119 O 0.74077 0.86229 0.40832 0.0
O120 O 0.70039 0.85866 0.57142 0.0
C121 C 0.75898 0.87194 0.43934 0.0
O122 O 0.75945 0.80001 0.4094 0.0
C123 C 0.68229 0.86053 0.53481 0.0
O124 O 0.71988 0.80374 0.41784 0.0
O125 O 0.68316 0.85111 0.47903 0.0
C126 C 0.42773 0.49792 0.62683 0.0
O127 O 0.42373 0.47593 0.64448 0.0
Cd128 Cd 0.40054 0.46496 0.7404 0.0
O129 O 0.4176 0.51448 0.65634 0.0
Cd130 Cd 0.38828 0.519 0.7446 0.0
C131 C 0.43165 0.50473 0.84612 0.0
O132 O 0.36139 0.48061 0.74435 0.0
O133 O 0.36303 0.50213 0.83164 0.0
O134 O 0.36723 0.54287 0.66877 0.0
C135 C 0.3535 0.48375 0.80109 0.0
O136 O 0.42573 0.48296 0.82761 0.0
C137 C 0.36541 0.56082 0.70614 0.0
O138 O 0.42209 0.52247 0.82051 0.0
O139 O 0.37447 0.55956 0.76209 0.0
C140 C 0.72153 0.20101 0.12097 0.0
O141 O 0.69945 0.19697 0.10365 0.0
Cd142 Cd 0.68779 0.17188 0.01211 0.0
O143 O 0.73801 0.19021 0.09295 0.0
Cd144 Cd 0.7422 0.15946 0.00835 0.0
C145 C 0.72702 0.20035 0.90051 0.0
O146 O 0.70396 0.13321 0.01894 0.0
O147 O 0.72369 0.13113 0.92936 0.0
O148 O 0.7667 0.14053 0.08678 0.0
C149 C 0.70606 0.12291 0.96474 0.0
O150 O 0.70532 0.195 0.92066 0.0
C151 C 0.78416 0.13718 0.04894 0.0
O152 O 0.74492 0.19121 0.92671 0.0
O153 O 0.78248 0.14466 -0.00852 0.0
C154 C 0.03129 0.52548 0.12518 0.0
O155 O 0.03777 0.5472 0.1424 0.0
Cd156 Cd 0.06068 0.55592 0.23977 0.0
O157 O 0.03922 0.5078 0.15503 0.0
Cd158 Cd 0.06779 0.49993 0.24174 0.0
C159 C 0.02615 0.51799 0.34399 0.0
O160 O 0.09737 0.53606 0.24466 0.0
O161 O 0.0936 0.51374 0.33016 0.0
O162 O 0.08768 0.47622 0.16298 0.0
C163 C 0.10452 0.5318 0.30133 0.0
O164 O 0.03374 0.53933 0.32526 0.0
C165 C 0.08838 0.45747 0.19769 0.0
O166 O 0.03422 0.49928 0.31859 0.0
O167 O 0.07886 0.45804 0.25345 0.0
C168 C 0.21707 0.20727 0.37681 0.0
O169 O 0.19494 0.20387 0.39432 0.0
Cd170 Cd 0.18336 0.17863 0.48586 0.0
O171 O 0.23308 0.19586 0.40439 0.0
Cd172 Cd 0.23598 0.16485 0.48842 0.0
C173 C 0.2226 0.20599 0.59796 0.0
O174 O 0.19735 0.13867 0.47851 0.0
O175 O 0.21716 0.13707 0.56784 0.0
O176 O 0.26072 0.1455 0.41052 0.0
C177 C 0.19965 0.12849 0.53264 0.0
O178 O 0.20074 0.20125 0.57866 0.0
C179 C 0.27804 0.14238 0.44874 0.0
O180 O 0.24004 0.19642 0.57047 0.0
O181 O 0.27601 0.14992 0.50617 0.0
C182 C 0.53013 0.51455 0.35282 0.0
O183 O 0.53459 0.5365 0.33529 0.0
Cd184 Cd 0.55839 0.54609 0.23928 0.0
O185 O 0.54017 0.49785 0.32373 0.0
Cd186 Cd 0.56993 0.49238 0.23763 0.0
C187 C 0.52727 0.50614 0.13401 0.0
O188 O 0.59759 0.53025 0.2364 0.0
O189 O 0.59544 0.50807 0.15011 0.0
O190 O 0.59024 0.46982 0.31751 0.0
C191 C 0.60549 0.52636 0.18003 0.0
O192 O 0.53333 0.52794 0.15203 0.0
C193 C 0.59221 0.45118 0.2828 0.0
O194 O 0.53653 0.4884 0.16054 0.0
O195 O 0.58363 0.45144 0.22609 0.0
C196 C 0.25732 0.80295 0.88203 0.0
O197 O 0.27903 0.80989 0.89862 0.0
Cd198 Cd 0.28769 0.83383 -0.00566 0.0
O199 O 0.23946 0.8108 0.91184 0.0
Cd200 Cd 0.23153 0.83988 -0.00202 0.0
C201 C 0.25086 0.79983 0.10193 0.0
O202 O 0.26722 0.87013 -0.00292 0.0
O203 O 0.24565 0.86671 0.08433 0.0
O204 O 0.20675 0.85886 0.92048 0.0
C205 C 0.26316 0.87782 0.05351 0.0
O206 O 0.27209 0.80759 0.08213 0.0
C207 C 0.18816 0.8594 0.95638 0.0
O208 O 0.23186 0.80726 0.07667 0.0
O209 O 0.18931 0.85014 0.01211 0.0
C210 C 0.93391 0.47693 0.85908 0.0
O211 O 0.92722 0.4552 0.84243 0.0
Cd212 Cd 0.90317 0.44638 0.74709 0.0
O213 O 0.92577 0.49457 0.82958 0.0
Cd214 Cd 0.89645 0.50201 0.74421 0.0
C215 C 0.93676 0.48325 0.63912 0.0
O216 O 0.86632 0.46619 0.74574 0.0
O217 O 0.86953 0.48754 0.65848 0.0
O218 O 0.87773 0.52687 0.82267 0.0
C219 C 0.85848 0.47012 0.68958 0.0
O220 O 0.92923 0.46201 0.65864 0.0
C221 C 0.87683 0.54525 0.78667 0.0
O222 O 0.9291 0.50208 0.66497 0.0
O223 O 0.88569 0.54392 0.73033 0.0
H224 H 0.26566 0.27829 0.16544 0.0
H225 H 0.19289 0.30108 0.16165 0.0
H226 H 0.18014 0.27164 0.24507 0.0
H227 H 0.18931 0.23885 0.31776 0.0
H228 H 0.26203 0.21596 0.32132 0.0
H229 H 0.27498 0.24589 0.23924 0.0
C230 C 0.24706 0.27696 0.18315 0.0
C231 C 0.2303 0.29191 0.15716 0.0
C232 C 0.23972 0.25981 0.23083 0.0
C233 C 0.20621 0.28981 0.18061 0.0
C234 C 0.19885 0.27292 0.2283 0.0
C235 C 0.20797 0.24033 0.30047 0.0
C236 C 0.2246 0.22507 0.32563 0.0
C237 C 0.21539 0.25769 0.25338 0.0
C238 C 0.24878 0.22741 0.30284 0.0
C239 C 0.25625 0.24457 0.2559 0.0
H240 H 0.96401 0.9653 0.42714 0.0
H241 H 0.95539 0.04204 0.41537 0.0
H242 H -0.01507 0.05024 0.5019 0.0
H243 H 0.01254 0.03558 0.58184 0.0
H244 H 0.02097 0.9588 0.59383 0.0
H245 H -0.00794 0.95072 0.50586 0.0
C246 C 0.96859 -0.01614 0.44328 0.0
C247 C 0.95742 0.00302 0.41479 0.0
C248 C -0.0145 -0.01156 0.49311 0.0
C249 C 0.96366 0.02693 0.43641 0.0
C250 C 0.98054 0.03164 0.48594 0.0
C251 C 0.00812 0.01705 0.56527 0.0
C252 C 0.0189 -0.00218 0.59463 0.0
C253 C -0.00853 0.01252 0.51479 0.0
C254 C 0.01295 0.97395 0.57226 0.0
C255 C -0.00359 0.96931 0.52194 0.0
H256 H 0.25434 0.7258 0.65682 0.0
H257 H 0.17702 0.72422 0.69338 0.0
H258 H 0.18477 0.75461 0.77826 0.0
H259 H 0.21339 0.78182 0.84135 0.0
H260 H 0.2907 0.78342 0.8046 0.0
H261 H 0.28295 0.75288 0.72014 0.0
C262 C 0.23915 0.73199 0.68347 0.0
C263 C 0.21512 0.72267 0.66866 0.0
C264 C 0.2437 0.74958 0.73192 0.0
C265 C 0.1957 0.73103 0.70369 0.0
C266 C 0.20011 0.74845 0.75219 0.0
C267 C 0.22858 0.77558 0.81478 0.0
C268 C 0.2526 0.78499 0.82932 0.0
C269 C 0.22402 0.75793 0.76649 0.0
C270 C 0.27202 0.77656 0.79446 0.0
C271 C 0.26762 0.75905 0.74619 0.0
H272 H 0.46164 0.97352 0.06814 0.0
H273 H 0.45517 0.05069 0.08076 0.0
H274 H 0.48476 0.05795 -0.0064 0.0
H275 H 0.51181 0.04231 0.9129 0.0
H276 H 0.51793 0.96506 0.90024 0.0
H277 H 0.48901 0.95797 -0.01125 0.0
C278 C 0.4667 -0.00803 0.05207 0.0
C279 C 0.45613 0.01153 0.08096 0.0
C280 C 0.4836 -0.004 0.00191 0.0
C281 C 0.46298 0.03529 0.0594 0.0
C282 C 0.47988 0.03946 0.00952 0.0
C283 C 0.50687 0.0239 0.92946 0.0
C284 C 0.51701 0.00424 0.89975 0.0
C285 C 0.4902 0.01993 -0.01974 0.0
C286 C 0.5104 0.98054 0.92206 0.0
C287 C 0.49386 0.97645 0.97269 0.0
H288 H 0.20959 0.78324 0.16659 0.0
H289 H 0.28718 0.77758 0.15962 0.0
H290 H 0.2839 0.74995 0.25092 0.0
H291 H 0.25909 0.72727 0.3327 0.0
H292 H 0.1815 0.73294 0.33957 0.0
H293 H 0.18483 0.76075 0.24871 0.0
C294 C 0.22578 0.7759 0.18484 0.0
C295 C 0.24856 0.78248 0.15612 0.0
C296 C 0.22383 0.76009 0.23763 0.0
C297 C 0.26937 0.77286 0.18071 0.0
C298 C 0.26755 0.75706 0.23304 0.0
C299 C 0.24292 0.73467 0.31458 0.0
C300 C 0.22011 0.72799 0.34303 0.0
C301 C 0.24489 0.75058 0.26197 0.0
C302 C 0.19933 0.73771 0.31865 0.0
C303 C 0.20117 0.75362 0.26655 0.0
H304 H 0.46117 0.9681 0.41195 0.0
H305 H 0.44117 0.04177 0.40934 0.0
H306 H 0.47091 0.0532 0.49328 0.0
H307 H 0.50312 0.04259 0.566 0.0
H308 H 0.52326 0.96897 0.56857 0.0
H309 H 0.49302 0.95734 0.48588 0.0
C310 C 0.46318 -0.01339 0.43001 0.0
C311 C 0.44894 0.00402 0.40424 0.0
C312 C 0.48048 -0.00683 0.47799 0.0
C313 C 0.45189 0.02797 0.42814 0.0
C314 C 0.46895 0.03457 0.47612 0.0
C315 C 0.50098 0.02401 0.54838 0.0
C316 C 0.51553 0.00674 0.57338 0.0
C317 C 0.48347 0.01738 0.501 0.0
C318 C 0.51235 -0.01731 0.55018 0.0
C319 C 0.49502 0.97598 0.50291 0.0
H320 H 0.18988 0.22939 0.66681 0.0
H321 H 0.2668 0.22089 0.65167 0.0
H322 H 0.27521 0.24958 0.7401 0.0
H323 H 0.26091 0.27754 0.81998 0.0
H324 H 0.18406 0.28635 0.8349 0.0
H325 H 0.17549 0.25691 0.74811 0.0
C326 C 0.2085 0.23375 0.68282 0.0
C327 C 0.22768 0.22303 0.65241 0.0
C328 C 0.21324 0.2503 0.73357 0.0
C329 C 0.25168 0.22888 0.67403 0.0
C330 C 0.25652 0.2453 0.72462 0.0
C331 C 0.24225 0.27302 0.80449 0.0
C332 C 0.22317 0.28422 0.8339 0.0
C333 C 0.23745 0.25618 0.75448 0.0
C334 C 0.19911 0.27805 0.81312 0.0
C335 C 0.19419 0.26123 0.76344 0.0
H336 H 0.00335 0.03534 0.92916 0.0
H337 H 0.02595 0.96266 0.92487 0.0
H338 H -0.00402 0.95009 0.00782 0.0
H339 H 0.96367 0.95984 0.08261 0.0
H340 H 0.94131 0.03263 0.08654 0.0
H341 H 0.97074 0.0449 0.00238 0.0
C342 C 0.00181 0.01676 0.94643 0.0
C343 C 0.01698 3e-05 0.9209 0.0
C344 C -0.01553 0.00959 -0.00608 0.0
C345 C 0.01456 0.97597 0.94368 0.0
C346 C -0.00261 0.96873 -0.00891 0.0
C347 C 0.9651 0.97834 0.06476 0.0
C348 C 0.95028 -0.00474 0.09103 0.0
C349 C -0.01776 -0.01461 0.01659 0.0
C350 C 0.95249 0.0192 0.0674 0.0
C351 C 0.96936 0.02628 0.01929 0.0
H352 H 0.69867 0.72558 0.82322 0.0
H353 H 0.77218 0.7047 0.8255 0.0
H354 H 0.78411 0.73481 0.743 0.0
H355 H 0.77383 0.76722 0.67049 0.0
H356 H 0.70031 0.78808 0.66822 0.0
H357 H 0.68838 0.75797 0.75068 0.0
C358 C 0.71727 0.72749 0.80545 0.0
C359 C 0.73445 0.71282 0.83057 0.0
C360 C 0.7241 0.74498 0.75827 0.0
C361 C 0.75853 0.71571 0.80712 0.0
C362 C 0.76542 0.73298 0.75997 0.0
C363 C 0.75523 0.7653 0.68826 0.0
C364 C 0.73805 0.77997 0.66317 0.0
C365 C 0.74839 0.7478 0.73542 0.0
C366 C 0.71397 0.77707 0.68659 0.0
C367 C 0.70708 0.7598 0.73371 0.0
H368 H 0.76715 0.27295 0.33467 0.0
H369 H 0.69312 0.29242 0.34021 0.0
H370 H 0.68166 0.26283 0.25581 0.0
H371 H 0.69236 0.23098 0.18166 0.0
H372 H 0.76632 0.21137 0.176 0.0
H373 H 0.77798 0.24139 0.25937 0.0
C374 C 0.74854 0.27085 0.31717 0.0
C375 C 0.73105 0.2849 0.34389 0.0
C376 C 0.74197 0.25365 0.26886 0.0
C377 C 0.70699 0.28183 0.32069 0.0
C378 C 0.70037 0.26488 0.27244 0.0
C379 C 0.71102 0.23319 0.19875 0.0
C380 C 0.72838 0.21885 0.17268 0.0
C381 C 0.71766 0.25056 0.24652 0.0
C382 C 0.75253 0.22211 0.19521 0.0
C383 C 0.75925 0.23931 0.24287 0.0
H384 H 0.6931 0.22291 0.83476 0.0
H385 H 0.77054 0.21671 0.84475 0.0
H386 H 0.77748 0.24572 0.75685 0.0
H387 H 0.76172 0.27313 0.67863 0.0
H388 H 0.68433 0.2796 0.66873 0.0
H389 H 0.67726 0.25002 0.75544 0.0
C390 C 0.71152 0.22784 0.81777 0.0
C391 C 0.73128 0.21765 0.84653 0.0
C392 C 0.7154 0.24456 0.76734 0.0
C393 C 0.755 0.22427 0.82365 0.0
C394 C 0.75899 0.24087 0.77338 0.0
C395 C 0.74326 0.26809 0.69521 0.0
C396 C 0.72359 0.27864 0.66717 0.0
C397 C 0.73934 0.25117 0.74509 0.0
C398 C 0.69982 0.27181 0.6894 0.0
C399 C 0.69576 0.2549 0.73902 0.0
H400 H 0.70176 0.72133 0.16988 0.0
H401 H 0.77928 0.71643 0.15278 0.0
H402 H 0.78667 0.74542 0.24111 0.0
H403 H 0.77116 0.77192 0.32297 0.0
H404 H 0.69363 0.77677 0.34005 0.0
H405 H 0.68626 0.74785 0.2516 0.0
C406 C 0.72031 0.72659 0.18527 0.0
C407 C 0.73994 0.71669 0.15464 0.0
C408 C 0.72443 0.74318 0.23608 0.0
C409 C 0.76383 0.72374 0.17544 0.0
C410 C 0.76807 0.74031 0.22597 0.0
C411 C 0.75262 0.76667 0.30752 0.0
C412 C 0.73298 0.77651 0.33823 0.0
C413 C 0.74851 0.75009 0.25665 0.0
C414 C 0.70909 0.76948 0.31736 0.0
C415 C 0.70486 0.75296 0.26675 0.0
H416 H 0.50527 0.53982 0.06643 0.0
H417 H 0.50932 0.46238 0.08241 0.0
H418 H 0.48028 0.45529 -0.00571 0.0
H419 H 0.45385 0.47102 0.9132 0.0
H420 H 0.44976 0.54846 0.89741 0.0
H421 H 0.4789 0.55555 -0.01473 0.0
C422 C 0.49982 0.52136 0.05082 0.0
C423 C 0.50947 0.50166 0.08114 0.0
C424 C 0.48318 0.5174 0.00016 0.0
C425 C 0.50219 0.47788 0.06004 0.0
C426 C 0.48559 0.4738 0.00961 0.0
C427 C 0.45932 0.48949 0.92878 0.0
C428 C 0.4496 0.50918 0.89864 0.0
C429 C 0.476 0.49343 -0.02063 0.0
C430 C 0.45693 0.53296 0.91967 0.0
C431 C 0.47358 0.53704 0.96995 0.0
H432 H 0.00958 0.4764 0.40658 0.0
H433 H 0.00293 0.55364 0.40233 0.0
H434 H 0.97508 0.54977 0.49362 0.0
H435 H 0.95286 0.52466 0.57536 0.0
H436 H 0.95945 0.44742 0.57977 0.0
H437 H -0.01288 0.45122 0.48799 0.0
C438 C 0.00196 0.49237 0.42537 0.0
C439 C 0.00838 0.51524 0.39754 0.0
C440 C -0.01398 0.4901 0.47821 0.0
C441 C -0.00164 0.53577 0.42277 0.0
C442 C -0.01757 0.53362 0.4751 0.0
C443 C 0.9604 0.50866 0.55645 0.0
C444 C 0.95409 0.48583 0.58459 0.0
C445 C 0.97623 0.5109 0.50341 0.0
C446 C 0.96397 0.46526 0.55913 0.0
C447 C 0.9798 0.46738 0.50653 0.0
H448 H 0.01128 0.48137 0.08316 0.0
H449 H 0.0114 0.55837 0.04788 0.0
H450 H 0.98107 0.55006 0.96325 0.0
H451 H 0.95432 0.52106 0.90009 0.0
H452 H 0.95417 0.44407 0.93559 0.0
H453 H -0.01533 0.45237 0.01974 0.0
C454 C 0.00478 0.49638 0.05685 0.0
C455 C 0.01367 0.52047 0.07193 0.0
C456 C -0.01276 0.4915 0.00856 0.0
C457 C 0.00493 0.53965 0.03734 0.0
C458 C -0.01246 0.53492 -0.011 0.0
C459 C 0.96087 0.50605 0.9263 0.0
C460 C 0.95188 0.48196 0.91151 0.0
C461 C 0.97849 0.51093 0.97443 0.0
C462 C 0.9607 0.46279 0.94593 0.0
C463 C 0.97819 0.46751 -0.00598 0.0
H464 H 0.45764 0.46884 0.56518 0.0
H465 H 0.43743 0.54241 0.57035 0.0
H466 H 0.46765 0.55422 0.4875 0.0
H467 H 0.50007 0.54379 0.41388 0.0
H468 H 0.52021 0.47018 0.40919 0.0
H469 H 0.48993 0.45842 0.49172 0.0
C470 C 0.45971 0.48742 0.54797 0.0
C471 C 0.44521 0.50465 0.574 0.0
C472 C 0.47728 0.49419 0.50062 0.0
C473 C 0.44831 0.52871 0.55125 0.0
C474 C 0.46565 0.53553 0.5039 0.0
C475 C 0.49794 0.52521 0.43115 0.0
C476 C 0.51247 0.50795 0.40531 0.0
C477 C 0.48033 0.51846 0.47846 0.0
C478 C 0.50932 0.4839 0.42809 0.0
C479 C 0.49195 0.4771 0.47528 0.0
H480 H 0.09672 0.44438 0.0746 0.0
H481 H 0.10988 0.42487 0.27127 0.0
H482 H 0.13725 0.39527 0.23471 0.0
H483 H 0.16037 0.37791 0.14718 0.0
H484 H 0.14582 0.39609 0.95034 0.0
H485 H 0.11586 0.42316 -0.01349 0.0
C486 C 0.10534 0.43339 0.10936 0.0
C487 C 0.10157 0.43696 0.1755 0.0
C488 C 0.1209 0.41636 0.08797 0.0
C489 C 0.11253 0.42242 0.22009 0.0
C490 C 0.12829 0.40562 0.19923 0.0
C491 C 0.15042 0.38762 0.11226 0.0
C492 C 0.15548 0.38534 0.0463 0.0
C493 C 0.13308 0.4029 0.13338 0.0
C494 C 0.14224 0.39764 0.00138 0.0
C495 C 0.12521 0.41318 0.02204 0.0
H496 H 0.79186 0.90495 0.49677 0.0
H497 H 0.76607 0.87873 0.31112 0.0
H498 H 0.79556 0.90778 0.25773 0.0
H499 H 0.82858 0.94092 0.26354 0.0
H500 H 0.85256 0.96901 0.44897 0.0
H501 H 0.82398 0.93908 0.50252 0.0
C502 C 0.79279 0.9056 0.44467 0.0
C503 C 0.77691 0.8897 0.408 0.0
C504 C 0.80945 0.92273 0.41416 0.0
C505 C 0.77807 0.89086 0.34048 0.0
C506 C 0.79496 0.90743 0.30984 0.0
C507 C 0.82755 0.94042 0.31564 0.0
C508 C 0.84268 0.95705 0.3522 0.0
C509 C 0.81071 0.92349 0.34616 0.0
C510 C 0.84102 0.95641 0.4197 0.0
C511 C 0.82472 0.93927 0.45042 0.0
H512 H 0.29312 0.64046 0.66227 0.0
H513 H 0.31218 0.62784 0.46444 0.0
H514 H 0.34185 0.60034 0.49888 0.0
H515 H 0.35921 0.57681 0.58486 0.0
H516 H 0.34145 0.59077 0.78288 0.0
H517 H 0.31454 0.62103 0.74887 0.0
C518 C 0.30404 0.63195 0.6268 0.0
C519 C 0.3003 0.63589 0.56093 0.0
C520 C 0.32111 0.6163 0.64699 0.0
C521 C 0.31476 0.62506 0.51542 0.0
C522 C 0.3316 0.60923 0.53508 0.0
C523 C 0.34965 0.58671 0.62052 0.0
C524 C 0.35198 0.58138 0.68617 0.0
C525 C 0.33443 0.60422 0.60063 0.0
C526 C 0.33986 0.59456 0.73205 0.0
C527 C 0.32441 0.61177 0.71262 0.0
H528 H 0.69583 0.11152 0.84047 0.0
H529 H 0.67443 0.09255 0.03501 0.0
H530 H 0.64378 0.06121 -0.0054 0.0
H531 H 0.62311 0.03942 0.90399 0.0
H532 H 0.64254 0.06032 0.70944 0.0
H533 H 0.67403 0.09083 0.74983 0.0
C534 C 0.6845 0.10045 0.874 0.0
C535 C 0.68745 0.10414 0.9406 0.0
C536 C 0.66662 0.08292 0.85041 0.0
C537 C 0.67245 0.08999 -0.01646 0.0
C538 C 0.65498 0.07208 0.96047 0.0
C539 C 0.63431 0.05061 0.87044 0.0
C540 C 0.63071 0.04755 0.80385 0.0
C541 C 0.65193 0.0684 0.89402 0.0
C542 C 0.64504 0.06238 0.7609 0.0
C543 C 0.66303 0.07977 0.78397 0.0
H544 H 0.13836 0.5653 0.24996 0.0
H545 H 0.11053 0.53606 0.43067 0.0
H546 H 0.13894 0.56461 0.48928 0.0
H547 H 0.17146 0.59833 0.48943 0.0
H548 H 0.20086 0.62601 0.30869 0.0
H549 H 0.17222 0.59769 0.25009 0.0
C550 C 0.13857 0.56522 0.30213 0.0
C551 C 0.12233 0.54872 0.33587 0.0
C552 C 0.15525 0.58141 0.33563 0.0
C553 C 0.12292 0.54858 0.40352 0.0
C554 C 0.13911 0.56493 0.43715 0.0
C555 C 0.17157 0.5981 0.43725 0.0
C556 C 0.18813 0.61427 0.40351 0.0
C557 C 0.15531 0.58149 0.40374 0.0
C558 C 0.18829 0.61367 0.33586 0.0
C559 C 0.17188 0.59753 0.30222 0.0
H560 H 0.60346 0.93401 0.5776 0.0
H561 H 0.62025 0.92054 0.77607 0.0
H562 H 0.6471 0.89002 0.74273 0.0
H563 H 0.66864 0.87007 0.65675 0.0
H564 H 0.65082 0.88247 0.45841 0.0
H565 H 0.62128 0.91036 0.49209 0.0
C566 C 0.61279 0.92418 0.61353 0.0
C567 C 0.61018 0.92971 0.67911 0.0
C568 C 0.62807 0.9066 0.59402 0.0
C569 C 0.62204 0.91661 0.72528 0.0
C570 C 0.63747 0.89926 0.70624 0.0
C571 C 0.65807 0.87868 0.62098 0.0
C572 C 0.66209 0.87452 0.55522 0.0
C573 C 0.64107 0.89455 0.64071 0.0
C574 C 0.64805 0.88545 0.50932 0.0
C575 C 0.63126 0.90148 0.52854 0.0
H576 H 0.3214 0.44936 0.74566 0.0
H577 H 0.34681 0.47762 0.92973 0.0
H578 H 0.31858 0.44788 -0.01514 0.0
H579 H 0.28619 0.41401 -0.01889 0.0
H580 H 0.2589 0.38748 0.79714 0.0
H581 H 0.28821 0.4162 0.74191 0.0
C582 C 0.32075 0.44893 0.7978 0.0
C583 C 0.33618 0.46561 0.83347 0.0
C584 C 0.30409 0.43207 0.82934 0.0
C585 C 0.33503 0.46502 0.90107 0.0
C586 C 0.31893 0.44798 0.93273 0.0
C587 C 0.28676 0.4145 0.92896 0.0
C588 C 0.27048 0.39863 0.89333 0.0
C589 C 0.30331 0.43145 0.89741 0.0
C590 C 0.27121 0.3996 0.82574 0.0
C591 C 0.28799 0.41599 0.79404 0.0
H592 H 0.79924 0.13102 0.17118 0.0
H593 H 0.81439 0.11262 0.97422 0.0
H594 H 0.84396 0.08534 0.01042 0.0
H595 H 0.86266 0.06405 0.09842 0.0
H596 H 0.84864 0.08351 0.29524 0.0
H597 H 0.82159 0.11326 0.25876 0.0
C598 C 0.80924 0.12124 0.1362 0.0
C599 C 0.80446 0.12356 0.0702 0.0
C600 C 0.82626 0.10571 0.15735 0.0
C601 C 0.81775 0.11109 0.02529 0.0
C602 C 0.83456 0.0954 0.04597 0.0
C603 C 0.85386 0.075 0.13325 0.0
C604 C 0.85733 0.0714 0.1994 0.0
C605 C 0.83851 0.09215 0.11191 0.0
C606 C 0.84617 0.08593 0.24407 0.0
C607 C 0.83064 0.10286 0.22324 0.0
H608 H 0.80565 0.62563 0.83527 0.0
H609 H 0.82135 0.60909 0.03254 0.0
H610 H 0.85117 0.58181 -0.00319 0.0
H611 H 0.86961 0.55967 0.90926 0.0
H612 H 0.85515 0.5774 0.71203 0.0
H613 H 0.82824 0.60753 0.7479 0.0
C614 C 0.81584 0.61626 0.87037 0.0
C615 C 0.81111 0.61903 0.93636 0.0
C616 C 0.83306 0.6008 0.84948 0.0
C617 C 0.82466 0.60715 -0.01852 0.0
C618 C 0.84162 0.59149 0.96107 0.0
C619 C 0.86082 0.5704 0.8742 0.0
C620 C 0.86406 0.56615 0.80814 0.0
C621 C 0.84549 0.58772 0.89519 0.0
C622 C 0.8529 0.58036 0.76314 0.0
C623 C 0.8374 0.59746 0.78363 0.0
H624 H 0.19063 0.11544 0.65631 0.0
H625 H 0.16898 0.09728 0.46144 0.0
H626 H 0.14068 0.06365 0.50071 0.0
H627 H 0.12234 0.03939 0.59055 0.0
H628 H 0.142 0.05939 0.78565 0.0
H629 H 0.17096 0.09241 0.7462 0.0
C630 C 0.17973 0.10409 0.62243 0.0
C631 C 0.18198 0.10867 0.55604 0.0
C632 C 0.16323 0.08516 0.64542 0.0
C633 C 0.16753 0.09408 0.51274 0.0
C634 C 0.15142 0.07485 0.53517 0.0
C635 C 0.13305 0.05093 0.62438 0.0
C636 C 0.13026 0.04687 0.69089 0.0
C637 C 0.14918 0.07019 0.60139 0.0
C638 C 0.1439 0.06218 0.73426 0.0
C639 C 0.16044 0.08102 0.71173 0.0
H640 H 0.66172 0.37048 0.34409 0.0
H641 H 0.64232 0.38854 0.53838 0.0
H642 H 0.61401 0.41634 0.49764 0.0
H643 H 0.59767 0.43813 0.40685 0.0
H644 H 0.61577 0.41883 0.21252 0.0
H645 H 0.64159 0.38867 0.25315 0.0
C646 C 0.65106 0.3803 0.37745 0.0
C647 C 0.65428 0.37774 0.44409 0.0
C648 C 0.63475 0.39609 0.35368 0.0
C649 C 0.64014 0.39025 0.48687 0.0
C650 C 0.62407 0.40623 0.46361 0.0
C651 C 0.60709 0.42712 0.37345 0.0
C652 C 0.60513 0.43087 0.30687 0.0
C653 C 0.62168 0.40971 0.39715 0.0
C654 C 0.61706 0.41627 0.26399 0.0
C655 C 0.63189 0.39912 0.2872 0.0
H656 H 0.32828 0.95015 0.23144 0.0
H657 H 0.35199 0.97911 0.04685 0.0
H658 H 0.32476 0.94818 -0.00763 0.0
H659 H 0.29431 0.9126 -0.0029 0.0
H660 H 0.26889 0.88528 0.18195 0.0
H661 H 0.29659 0.91578 0.23625 0.0
C662 C 0.32746 0.94965 0.17932 0.0
C663 C 0.34216 0.96676 0.14326 0.0
C664 C 0.31145 0.93209 0.14828 0.0
C665 C 0.34077 0.96612 0.07573 0.0
C666 C 0.32526 0.94841 0.04448 0.0
C667 C 0.29489 0.91337 0.04923 0.0
C668 C 0.2797 0.8967 0.08542 0.0
C669 C 0.31055 0.93126 0.08025 0.0
C670 C 0.28039 0.89799 0.15297 0.0
C671 C 0.29626 0.91539 0.18413 0.0
H672 H 0.78523 0.40514 0.51383 0.0
H673 H 0.7554 0.38337 0.69914 0.0
H674 H 0.78683 0.4103 0.75276 0.0
H675 H 0.82307 0.43997 0.74706 0.0
H676 H 0.85122 0.46353 0.5614 0.0
H677 H 0.82027 0.43605 0.50801 0.0
C678 C 0.78564 0.40633 0.56592 0.0
C679 C 0.76814 0.39225 0.60244 0.0
C680 C 0.80349 0.42217 0.59644 0.0
C681 C 0.76868 0.39411 0.66991 0.0
C682 C 0.78668 0.40944 0.70067 0.0
C683 C 0.82239 0.43901 0.69496 0.0
C684 C 0.83942 0.45362 0.65827 0.0
C685 C 0.80422 0.42352 0.66444 0.0
C686 C 0.83823 0.45247 0.59075 0.0
C687 C 0.82058 0.43674 0.56011 0.0
H688 H 0.29437 0.13723 0.32696 0.0
H689 H 0.30814 0.11815 0.52365 0.0
H690 H 0.33918 0.09229 0.48764 0.0
H691 H 0.35973 0.07248 0.39963 0.0
H692 H 0.34706 0.09264 0.20317 0.0
H693 H 0.31842 0.12101 0.23972 0.0
C694 C 0.30435 0.12758 0.36192 0.0
C695 C 0.2988 0.12929 0.42774 0.0
C696 C 0.32226 0.11293 0.34091 0.0
C697 C 0.31209 0.11705 0.4727 0.0
C698 C 0.32975 0.1022 0.45213 0.0
C699 C 0.35089 0.0833 0.36491 0.0
C700 C 0.35522 0.0803 0.2988 0.0
C701 C 0.33458 0.0996 0.38629 0.0
C702 C 0.34397 0.09465 0.25431 0.0
C703 C 0.32751 0.11075 0.27516 0.0
H704 H 0.64046 0.55777 0.23543 0.0
H705 H 0.61177 0.53278 0.0515 0.0
H706 H 0.64214 0.56034 -0.00377 0.0
H707 H 0.67724 0.59136 -0.00013 0.0
H708 H 0.70767 0.61436 0.18361 0.0
H709 H 0.67643 0.58785 0.23898 0.0
C710 C 0.64085 0.55847 0.1833 0.0
C711 C 0.62388 0.54336 0.14765 0.0
C712 C 0.65876 0.57396 0.15167 0.0
C713 C 0.62472 0.5442 0.08006 0.0
C714 C 0.64205 0.55998 0.04835 0.0
C715 C 0.67698 0.59055 0.05199 0.0
C716 C 0.69468 0.60482 0.0875 0.0
C717 C 0.65923 0.57489 0.08361 0.0
C718 C 0.69428 0.60346 0.15507 0.0
C719 C 0.67638 0.58835 0.18686 0.0
H720 H 0.17501 0.86883 0.83426 0.0
H721 H 0.15468 0.87912 0.03228 0.0
H722 H 0.12448 0.90618 -0.00131 0.0
H723 H 0.10695 0.93006 0.91375 0.0
H724 H 0.12633 0.91868 0.71551 0.0
H725 H 0.1537 0.8887 0.74838 0.0
C726 C 0.16372 0.87674 0.86996 0.0
C727 C 0.16725 0.87227 0.93567 0.0
C728 C 0.14639 0.8922 0.85029 0.0
C729 C 0.1523 0.88232 -0.01859 0.0
C730 C 0.13514 0.89791 0.96226 0.0
C731 C 0.11697 0.92079 0.87775 0.0
C732 C 0.11493 0.92679 0.81241 0.0
C733 C 0.13252 0.90348 0.89697 0.0
C734 C 0.12767 0.91441 0.76611 0.0
C735 C 0.14339 0.89735 0.7849 0.0
loop_
_geom_bond_atom_site_label_1
_geom_bond_atom_site_label_2
_geom_bond_distance
_geom_bond_site_symmetry_2
_ccdc_geom_bond_type
C0 O1 1.306 . S
C0 O3 1.160 . S
O1 C0 1.306 . S
O1 Cd2 2.228 . S
Cd2 O1 2.228 . S
Cd2 O6 2.273 . S
Cd2 O10 2.277 1_554 S
O3 C0 1.160 . S
O3 Cd4 2.203 . S
Cd4 O3 2.203 . S
Cd4 O6 2.411 . S
Cd4 O7 2.333 1_554 S
Cd4 O8 2.352 . S
Cd4 O12 2.277 1_554 S
Cd4 O13 2.356 . S
C5 O10 1.209 . S
C5 O12 1.226 . S
O6 Cd2 2.273 . S
O6 Cd4 2.411 . S
O6 C9 1.320 1_554 S
O7 Cd4 2.333 1_556 S
O7 C9 1.214 . S
O8 Cd4 2.352 . S
O8 C11 1.258 . S
C9 O6 1.320 1_556 S
C9 O7 1.214 . S
O10 Cd2 2.277 1_556 S
O10 C5 1.209 . S
C11 O8 1.258 . S
C11 O13 1.282 . S
O12 Cd4 2.277 1_556 S
O12 C5 1.226 . S
O13 Cd4 2.356 . S
O13 C11 1.282 . S
C14 O15 1.306 1_545 S
C14 O17 1.160 . S
O15 C14 1.306 1_565 S
O15 Cd16 2.228 . S
Cd16 O15 2.228 . S
Cd16 O20 2.273 . S
Cd16 O24 2.277 1_565 S
O17 C14 1.160 . S
O17 Cd18 2.203 . S
Cd18 O17 2.203 . S
Cd18 O20 2.411 1_545 S
Cd18 O21 2.333 . S
Cd18 O22 2.352 . S
Cd18 O26 2.277 . S
Cd18 O27 2.356 . S
C19 O24 1.209 . S
C19 O26 1.226 . S
O20 Cd16 2.273 . S
O20 Cd18 2.411 1_565 S
O20 C23 1.320 . S
O21 Cd18 2.333 . S
O21 C23 1.214 1_545 S
O22 Cd18 2.352 . S
O22 C25 1.258 . S
C23 O20 1.320 . S
C23 O21 1.214 1_565 S
O24 Cd16 2.277 1_545 S
O24 C19 1.209 . S
C25 O22 1.258 . S
C25 O27 1.282 . S
O26 Cd18 2.277 . S
O26 C19 1.226 . S
O27 Cd18 2.356 . S
O27 C25 1.282 . S
C28 O29 1.306 . S
C28 O31 1.160 . S
O29 C28 1.306 . S
O29 Cd30 2.228 . S
Cd30 O29 2.228 . S
Cd30 O34 2.273 . S
Cd30 O38 2.277 . S
O31 C28 1.160 . S
O31 Cd32 2.203 . S
Cd32 O31 2.203 . S
Cd32 O34 2.411 . S
Cd32 O35 2.333 . S
Cd32 O36 2.352 . S
Cd32 O40 2.277 . S
Cd32 O41 2.356 . S
C33 O38 1.209 . S
C33 O40 1.226 . S
O34 Cd30 2.273 . S
O34 Cd32 2.411 . S
O34 C37 1.320 . S
O35 Cd32 2.333 . S
O35 C37 1.214 . S
O36 Cd32 2.352 . S
O36 C39 1.258 . S
C37 O34 1.320 . S
C37 O35 1.214 . S
O38 Cd30 2.277 . S
O38 C33 1.209 . S
C39 O36 1.258 . S
C39 O41 1.282 . S
O40 Cd32 2.277 . S
O40 C33 1.226 . S
O41 Cd32 2.356 . S
O41 C39 1.282 . S
C42 O43 1.306 . S
C42 O45 1.160 . S
O43 C42 1.306 . S
O43 Cd44 2.228 . S
Cd44 O43 2.228 . S
Cd44 O48 2.273 . S
Cd44 O52 2.277 . S
O45 C42 1.160 . S
O45 Cd46 2.203 . S
Cd46 O45 2.203 . S
Cd46 O48 2.411 . S
Cd46 O49 2.333 . S
Cd46 O50 2.355 . S
Cd46 O54 2.277 1_545 S
Cd46 O55 2.356 1_545 S
C47 O52 1.209 . S
C47 O54 1.226 1_545 S
O48 Cd44 2.273 . S
O48 Cd46 2.411 . S
O48 C51 1.320 . S
O49 Cd46 2.333 . S
O49 C51 1.214 . S
O50 Cd46 2.355 . S
O50 C53 1.247 1_545 S
C51 O48 1.320 . S
C51 O49 1.214 . S
O52 Cd44 2.277 . S
O52 C47 1.209 . S
C53 O50 1.247 1_565 S
C53 O55 1.282 . S
O54 Cd46 2.277 1_565 S
O54 C47 1.226 1_565 S
O55 Cd46 2.356 1_565 S
O55 C53 1.282 . S
C56 O57 1.306 . S
C56 O59 1.160 . S
O57 C56 1.306 . S
O57 Cd58 2.228 1_556 S
Cd58 O57 2.228 1_554 S
Cd58 O62 2.273 . S
Cd58 O66 2.277 . S
O59 C56 1.160 . S
O59 Cd60 2.203 1_556 S
Cd60 O59 2.203 1_554 S
Cd60 O62 2.411 . S
Cd60 O63 2.333 . S
Cd60 O64 2.352 1_554 S
Cd60 O68 2.277 . S
Cd60 O69 2.356 . S
C61 O66 1.209 . S
C61 O68 1.226 . S
O62 Cd58 2.273 . S
O62 Cd60 2.411 . S
O62 C65 1.320 . S
O63 Cd60 2.333 . S
O63 C65 1.214 . S
O64 Cd60 2.352 1_556 S
O64 C67 1.258 . S
C65 O62 1.320 . S
C65 O63 1.214 . S
O66 Cd58 2.277 . S
O66 C61 1.209 . S
C67 O64 1.258 . S
C67 O69 1.282 1_556 S
O68 Cd60 2.277 . S
O68 C61 1.226 . S
O69 Cd60 2.356 . S
O69 C67 1.282 1_554 S
C70 O71 1.306 . S
C70 O73 1.160 . S
O71 C70 1.306 . S
O71 Cd72 2.228 . S
Cd72 O71 2.228 . S
Cd72 O76 2.273 . S
Cd72 O80 2.277 . S
O73 C70 1.160 . S
O73 Cd74 2.203 . S
Cd74 O73 2.203 . S
Cd74 O76 2.411 . S
Cd74 O77 2.333 . S
Cd74 O78 2.355 . S
Cd74 O82 2.277 1_545 S
Cd74 O83 2.356 1_545 S
C75 O80 1.209 . S
C75 O82 1.226 1_545 S
O76 Cd72 2.273 . S
O76 Cd74 2.411 . S
O76 C79 1.320 . S
O77 Cd74 2.333 . S
O77 C79 1.214 . S
O78 Cd74 2.355 . S
O78 C81 1.247 1_545 S
C79 O76 1.320 . S
C79 O77 1.214 . S
O80 Cd72 2.277 . S
O80 C75 1.209 . S
C81 O78 1.247 1_565 S
C81 O83 1.282 . S
O82 Cd74 2.277 1_565 S
O82 C75 1.226 1_565 S
O83 Cd74 2.356 1_565 S
O83 C81 1.282 . S
C84 O85 1.306 . S
C84 O87 1.160 . S
O85 C84 1.306 . S
O85 Cd86 2.228 . S
Cd86 O85 2.228 . S
Cd86 O90 2.273 . S
Cd86 O94 2.277 . S
O87 C84 1.160 . S
O87 Cd88 2.203 . S
Cd88 O87 2.203 . S
Cd88 O90 2.411 . S
Cd88 O91 2.333 . S
Cd88 O92 2.352 . S
Cd88 O96 2.277 . S
Cd88 O97 2.356 . S
C89 O94 1.209 . S
C89 O96 1.226 . S
O90 Cd86 2.273 . S
O90 Cd88 2.411 . S
O90 C93 1.320 . S
O91 Cd88 2.333 . S
O91 C93 1.214 . S
O92 Cd88 2.352 . S
O92 C95 1.258 . S
C93 O90 1.320 . S
C93 O91 1.214 . S
O94 Cd86 2.277 . S
O94 C89 1.209 . S
C95 O92 1.258 . S
C95 O97 1.282 . S
O96 Cd88 2.277 . S
O96 C89 1.226 . S
O97 Cd88 2.356 . S
O97 C95 1.282 . S
C98 O99 1.306 1_545 S
C98 O101 1.160 . S
O99 C98 1.306 1_565 S
O99 Cd100 2.228 . S
Cd100 O99 2.228 . S
Cd100 O104 2.273 . S
Cd100 O108 2.277 1_565 S
O101 C98 1.160 . S
O101 Cd102 2.203 . S
Cd102 O101 2.203 . S
Cd102 O104 2.411 1_545 S
Cd102 O105 2.333 . S
Cd102 O106 2.352 . S
Cd102 O110 2.277 . S
Cd102 O111 2.356 . S
C103 O108 1.209 . S
C103 O110 1.226 . S
O104 Cd100 2.273 . S
O104 Cd102 2.411 1_565 S
O104 C107 1.320 . S
O105 Cd102 2.333 . S
O105 C107 1.214 1_545 S
O106 Cd102 2.352 . S
O106 C109 1.258 . S
C107 O104 1.320 . S
C107 O105 1.214 1_565 S
O108 Cd100 2.277 1_545 S
O108 C103 1.209 . S
C109 O106 1.258 . S
C109 O111 1.282 . S
O110 Cd102 2.277 . S
O110 C103 1.226 . S
O111 Cd102 2.356 . S
O111 C109 1.282 . S
C112 O113 1.306 . S
C112 O115 1.160 . S
O113 C112 1.306 . S
O113 Cd114 2.228 . S
Cd114 O113 2.228 . S
Cd114 O118 2.273 . S
Cd114 O122 2.277 . S
O115 C112 1.160 . S
O115 Cd116 2.203 . S
Cd116 O115 2.203 . S
Cd116 O118 2.411 . S
Cd116 O119 2.333 . S
Cd116 O120 2.352 . S
Cd116 O124 2.277 . S
Cd116 O125 2.356 . S
C117 O122 1.209 . S
C117 O124 1.226 . S
O118 Cd114 2.273 . S
O118 Cd116 2.411 . S
O118 C121 1.320 . S
O119 Cd116 2.333 . S
O119 C121 1.214 . S
O120 Cd116 2.352 . S
O120 C123 1.258 . S
C121 O118 1.320 . S
C121 O119 1.214 . S
O122 Cd114 2.277 . S
O122 C117 1.209 . S
C123 O120 1.258 . S
C123 O125 1.282 . S
O124 Cd116 2.277 . S
O124 C117 1.226 . S
O125 Cd116 2.356 . S
O125 C123 1.282 . S
C126 O127 1.306 . S
C126 O129 1.160 . S
O127 C126 1.306 . S
O127 Cd128 2.228 . S
Cd128 O127 2.228 . S
Cd128 O132 2.273 . S
Cd128 O136 2.277 . S
O129 C126 1.160 . S
O129 Cd130 2.203 . S
Cd130 O129 2.203 . S
Cd130 O132 2.411 . S
Cd130 O133 2.333 . S
Cd130 O134 2.352 . S
Cd130 O138 2.277 . S
Cd130 O139 2.356 . S
C131 O136 1.209 . S
C131 O138 1.226 . S
O132 Cd128 2.273 . S
O132 Cd130 2.411 . S
O132 C135 1.320 . S
O133 Cd130 2.333 . S
O133 C135 1.214 . S
O134 Cd130 2.352 . S
O134 C137 1.258 . S
C135 O132 1.320 . S
C135 O133 1.214 . S
O136 Cd128 2.277 . S
O136 C131 1.209 . S
C137 O134 1.258 . S
C137 O139 1.282 . S
O138 Cd130 2.277 . S
O138 C131 1.226 . S
O139 Cd130 2.356 . S
O139 C137 1.282 . S
C140 O141 1.306 . S
C140 O143 1.160 . S
O141 C140 1.306 . S
O141 Cd142 2.228 . S
Cd142 O141 2.228 . S
Cd142 O146 2.273 . S
Cd142 O150 2.277 1_554 S
O143 C140 1.160 . S
O143 Cd144 2.203 . S
Cd144 O143 2.203 . S
Cd144 O146 2.411 . S
Cd144 O147 2.333 1_554 S
Cd144 O148 2.352 . S
Cd144 O152 2.277 1_554 S
Cd144 O153 2.356 . S
C145 O150 1.209 . S
C145 O152 1.226 . S
O146 Cd142 2.273 . S
O146 Cd144 2.411 . S
O146 C149 1.320 1_554 S
O147 Cd144 2.333 1_556 S
O147 C149 1.214 . S
O148 Cd144 2.352 . S
O148 C151 1.258 . S
C149 O146 1.320 1_556 S
C149 O147 1.214 . S
O150 Cd142 2.277 1_556 S
O150 C145 1.209 . S
C151 O148 1.258 . S
C151 O153 1.282 . S
O152 Cd144 2.277 1_556 S
O152 C145 1.226 . S
O153 Cd144 2.356 . S
O153 C151 1.282 . S
C154 O155 1.306 . S
C154 O157 1.160 . S
O155 C154 1.306 . S
O155 Cd156 2.228 . S
Cd156 O155 2.228 . S
Cd156 O160 2.273 . S
Cd156 O164 2.277 . S
O157 C154 1.160 . S
O157 Cd158 2.203 . S
Cd158 O157 2.203 . S
Cd158 O160 2.411 . S
Cd158 O161 2.333 . S
Cd158 O162 2.352 . S
Cd158 O166 2.277 . S
Cd158 O167 2.356 . S
C159 O164 1.209 . S
C159 O166 1.226 . S
O160 Cd156 2.273 . S
O160 Cd158 2.411 . S
O160 C163 1.320 . S
O161 Cd158 2.333 . S
O161 C163 1.214 . S
O162 Cd158 2.352 . S
O162 C165 1.258 . S
C163 O160 1.320 . S
C163 O161 1.214 . S
O164 Cd156 2.277 . S
O164 C159 1.209 . S
C165 O162 1.258 . S
C165 O167 1.282 . S
O166 Cd158 2.277 . S
O166 C159 1.226 . S
O167 Cd158 2.356 . S
O167 C165 1.282 . S
C168 O169 1.306 . S
C168 O171 1.160 . S
O169 C168 1.306 . S
O169 Cd170 2.228 . S
Cd170 O169 2.228 . S
Cd170 O174 2.273 . S
Cd170 O178 2.277 . S
O171 C168 1.160 . S
O171 Cd172 2.203 . S
Cd172 O171 2.203 . S
Cd172 O174 2.411 . S
Cd172 O175 2.333 . S
Cd172 O176 2.352 . S
Cd172 O180 2.277 . S
Cd172 O181 2.356 . S
C173 O178 1.209 . S
C173 O180 1.226 . S
O174 Cd170 2.273 . S
O174 Cd172 2.411 . S
O174 C177 1.320 . S
O175 Cd172 2.333 . S
O175 C177 1.214 . S
O176 Cd172 2.352 . S
O176 C179 1.258 . S
C177 O174 1.320 . S
C177 O175 1.214 . S
O178 Cd170 2.277 . S
O178 C173 1.209 . S
C179 O176 1.258 . S
C179 O181 1.282 . S
O180 Cd172 2.277 . S
O180 C173 1.226 . S
O181 Cd172 2.356 . S
O181 C179 1.282 . S
C182 O183 1.306 . S
C182 O185 1.160 . S
O183 C182 1.306 . S
O183 Cd184 2.228 . S
Cd184 O183 2.228 . S
Cd184 O188 2.273 . S
Cd184 O192 2.277 . S
O185 C182 1.160 . S
O185 Cd186 2.203 . S
Cd186 O185 2.203 . S
Cd186 O188 2.411 . S
Cd186 O189 2.333 . S
Cd186 O190 2.352 . S
Cd186 O194 2.277 . S
Cd186 O195 2.356 . S
C187 O192 1.209 . S
C187 O194 1.226 . S
O188 Cd184 2.273 . S
O188 Cd186 2.411 . S
O188 C191 1.320 . S
O189 Cd186 2.333 . S
O189 C191 1.214 . S
O190 Cd186 2.352 . S
O190 C193 1.258 . S
C191 O188 1.320 . S
C191 O189 1.214 . S
O192 Cd184 2.277 . S
O192 C187 1.209 . S
C193 O190 1.258 . S
C193 O195 1.282 . S
O194 Cd186 2.277 . S
O194 C187 1.226 . S
O195 Cd186 2.356 . S
O195 C193 1.282 . S
C196 O197 1.306 . S
C196 O199 1.160 . S
O197 C196 1.306 . S
O197 Cd198 2.228 1_556 S
Cd198 O197 2.228 1_554 S
Cd198 O202 2.273 . S
Cd198 O206 2.277 . S
O199 C196 1.160 . S
O199 Cd200 2.203 1_556 S
Cd200 O199 2.203 1_554 S
Cd200 O202 2.411 . S
Cd200 O203 2.333 . S
Cd200 O204 2.352 1_554 S
Cd200 O208 2.277 . S
Cd200 O209 2.356 . S
C201 O206 1.209 . S
C201 O208 1.226 . S
O202 Cd198 2.273 . S
O202 Cd200 2.411 . S
O202 C205 1.320 . S
O203 Cd200 2.333 . S
O203 C205 1.214 . S
O204 Cd200 2.352 1_556 S
O204 C207 1.258 . S
C205 O202 1.320 . S
C205 O203 1.214 . S
O206 Cd198 2.277 . S
O206 C201 1.209 . S
C207 O204 1.258 . S
C207 O209 1.282 1_556 S
O208 Cd200 2.277 . S
O208 C201 1.226 . S
O209 Cd200 2.356 . S
O209 C207 1.282 1_554 S
C210 O211 1.306 . S
C210 O213 1.160 . S
O211 C210 1.306 . S
O211 Cd212 2.228 . S
Cd212 O211 2.228 . S
Cd212 O216 2.273 . S
Cd212 O220 2.277 . S
O213 C210 1.160 . S
O213 Cd214 2.203 . S
Cd214 O213 2.203 . S
Cd214 O216 2.411 . S
Cd214 O217 2.333 . S
Cd214 O218 2.352 . S
Cd214 O222 2.277 . S
Cd214 O223 2.356 . S
C215 O220 1.209 . S
C215 O222 1.226 . S
O216 Cd212 2.273 . S
O216 Cd214 2.411 . S
O216 C219 1.320 . S
O217 Cd214 2.333 . S
O217 C219 1.214 . S
O218 Cd214 2.352 . S
O218 C221 1.258 . S
C219 O216 1.320 . S
C219 O217 1.214 . S
O220 Cd212 2.277 . S
O220 C215 1.209 . S
C221 O218 1.258 . S
C221 O223 1.282 . S
O222 Cd214 2.277 . S
O222 C215 1.226 . S
O223 Cd214 2.356 . S
O223 C221 1.282 . S
H224 C230 0.930 . S
H225 C233 0.930 . S
H226 C234 0.930 . S
H227 C235 0.930 . S
H228 C238 0.930 . S
H229 C239 0.930 . S
C230 H224 0.930 . S
C230 C231 1.355 . S
C230 C232 1.415 . S
C231 C230 1.355 . S
C231 C233 1.419 . S
C232 C230 1.415 . S
C232 C237 1.425 . S
C232 C239 1.409 . S
C233 H225 0.930 . S
C233 C231 1.419 . S
C233 C234 1.362 . S
C234 H226 0.930 . S
C234 C233 1.362 . S
C234 C237 1.409 . S
C235 H227 0.930 . S
C235 C236 1.355 . S
C235 C237 1.415 . S
C236 C235 1.355 . S
C236 C238 1.419 . S
C237 C232 1.425 . S
C237 C234 1.409 . S
C237 C235 1.415 . S
C238 H228 0.930 . S
C238 C236 1.419 . S
C238 C239 1.362 . S
C239 H229 0.930 . S
C239 C232 1.409 . S
C239 C238 1.362 . S
H240 C246 0.930 . S
H241 C249 0.930 . S
H242 C250 0.930 . S
H243 C251 0.930 . S
H244 C254 0.930 . S
H245 C255 0.930 . S
C246 H240 0.930 . S
C246 C247 1.355 . S
C246 C248 1.415 1_655 S
C247 C246 1.355 . S
C247 C249 1.419 . S
C248 C246 1.415 1_455 S
C248 C253 1.425 1_455 S
C248 C255 1.409 . S
C249 H241 0.930 . S
C249 C247 1.419 . S
C249 C250 1.362 . S
C250 H242 0.930 . S
C250 C249 1.362 . S
C250 C253 1.409 . S
C251 H243 0.930 . S
C251 C252 1.355 . S
C251 C253 1.415 1_455 S
C252 C251 1.355 . S
C252 C254 1.419 . S
C253 C248 1.425 1_655 S
C253 C250 1.409 . S
C253 C251 1.415 1_655 S
C254 H244 0.930 . S
C254 C252 1.419 . S
C254 C255 1.362 . S
C255 H245 0.930 . S
C255 C248 1.409 . S
C255 C254 1.362 . S
H256 C262 0.930 . S
H257 C265 0.930 . S
H258 C266 0.930 . S
H259 C267 0.930 . S
H260 C270 0.930 . S
H261 C271 0.930 . S
C262 H256 0.930 . S
C262 C263 1.355 . S
C262 C264 1.415 . S
C263 C262 1.355 . S
C263 C265 1.419 . S
C264 C262 1.415 . S
C264 C269 1.425 . S
C264 C271 1.409 . S
C265 H257 0.930 . S
C265 C263 1.419 . S
C265 C266 1.362 . S
C266 H258 0.930 . S
C266 C265 1.362 . S
C266 C269 1.409 . S
C267 H259 0.930 . S
C267 C268 1.355 . S
C267 C269 1.415 . S
C268 C267 1.355 . S
C268 C270 1.419 . S
C269 C264 1.425 . S
C269 C266 1.409 . S
C269 C267 1.415 . S
C270 H260 0.930 . S
C270 C268 1.419 . S
C270 C271 1.362 . S
C271 H261 0.930 . S
C271 C264 1.409 . S
C271 C270 1.362 . S
H272 C278 0.927 1_565 S
H273 C281 0.930 . S
H274 C282 0.930 . S
H275 C283 0.930 . S
H276 C286 0.916 1_565 S
H277 C287 0.952 . S
C278 H272 0.927 1_545 S
C278 C279 1.355 . S
C278 C280 1.415 . S
C279 C278 1.355 . S
C279 C281 1.419 . S
C280 C278 1.415 . S
C280 C285 1.425 . S
C280 C287 1.389 1_544 S
C281 H273 0.930 . S
C281 C279 1.419 . S
C281 C282 1.362 . S
C282 H274 0.930 . S
C282 C281 1.362 . S
C282 C285 1.409 . S
C283 H275 0.930 . S
C283 C284 1.355 . S
C283 C285 1.415 1_556 S
C284 C283 1.355 . S
C284 C286 1.433 . S
C285 C280 1.425 . S
C285 C282 1.409 . S
C285 C283 1.415 1_554 S
C286 H276 0.916 1_545 S
C286 C284 1.433 . S
C286 C287 1.365 1_545 S
C287 H277 0.952 . S
C287 C280 1.389 1_566 S
C287 C286 1.365 1_565 S
H288 C294 0.930 . S
H289 C297 0.930 . S
H290 C298 0.930 . S
H291 C299 0.930 . S
H292 C302 0.930 . S
H293 C303 0.930 . S
C294 H288 0.930 . S
C294 C295 1.355 . S
C294 C296 1.415 . S
C295 C294 1.355 . S
C295 C297 1.419 . S
C296 C294 1.415 . S
C296 C301 1.425 . S
C296 C303 1.409 . S
C297 H289 0.930 . S
C297 C295 1.419 . S
C297 C298 1.362 . S
C298 H290 0.930 . S
C298 C297 1.362 . S
C298 C301 1.409 . S
C299 H291 0.930 . S
C299 C300 1.355 . S
C299 C301 1.415 . S
C300 C299 1.355 . S
C300 C302 1.419 . S
C301 C296 1.425 . S
C301 C298 1.409 . S
C301 C299 1.415 . S
C302 H292 0.930 . S
C302 C300 1.419 . S
C302 C303 1.362 . S
C303 H293 0.930 . S
C303 C296 1.409 . S
C303 C302 1.362 . S
H304 C310 0.930 1_565 S
H305 C313 0.930 . S
H306 C314 0.930 . S
H307 C315 0.930 . S
H308 C318 0.930 . S
H309 C319 0.930 . S
C310 H304 0.930 1_545 S
C310 C311 1.355 . S
C310 C312 1.415 . S
C311 C310 1.355 . S
C311 C313 1.419 . S
C312 C310 1.415 . S
C312 C317 1.425 . S
C312 C319 1.409 1_545 S
C313 H305 0.930 . S
C313 C311 1.419 . S
C313 C314 1.362 . S
C314 H306 0.930 . S
C314 C313 1.362 . S
C314 C317 1.409 . S
C315 H307 0.930 . S
C315 C316 1.355 . S
C315 C317 1.415 . S
C316 C315 1.355 . S
C316 C318 1.419 1_545 S
C317 C312 1.425 . S
C317 C314 1.409 . S
C317 C315 1.415 . S
C318 H308 0.930 . S
C318 C316 1.419 1_565 S
C318 C319 1.362 . S
C319 H309 0.930 . S
C319 C312 1.409 1_565 S
C319 C318 1.362 . S
H320 C326 0.930 . S
H321 C329 0.930 . S
H322 C330 0.930 . S
H323 C331 0.930 . S
H324 C334 0.930 . S
H325 C335 0.930 . S
C326 H320 0.930 . S
C326 C327 1.355 . S
C326 C328 1.415 . S
C327 C326 1.355 . S
C327 C329 1.419 . S
C328 C326 1.415 . S
C328 C333 1.425 . S
C328 C335 1.409 . S
C329 H321 0.930 . S
C329 C327 1.419 . S
C329 C330 1.362 . S
C330 H322 0.930 . S
C330 C329 1.362 . S
C330 C333 1.409 . S
C331 H323 0.930 . S
C331 C332 1.355 . S
C331 C333 1.415 . S
C332 C331 1.355 . S
C332 C334 1.419 . S
C333 C328 1.425 . S
C333 C330 1.409 . S
C333 C331 1.415 . S
C334 H324 0.930 . S
C334 C332 1.419 . S
C334 C335 1.362 . S
C335 H325 0.930 . S
C335 C328 1.409 . S
C335 C334 1.362 . S
H336 C342 0.930 . S
H337 C345 0.930 . S
H338 C346 0.930 . S
H339 C347 0.930 1_565 S
H340 C350 0.930 . S
H341 C351 0.930 . S
C342 H336 0.930 . S
C342 C343 1.355 . S
C342 C344 1.422 1_556 S
C343 C342 1.355 . S
C343 C345 1.419 1_545 S
C344 C342 1.422 1_554 S
C344 C349 1.427 1_455 S
C344 C351 1.401 1_455 S
C345 H337 0.930 . S
C345 C343 1.419 1_565 S
C345 C346 1.362 1_556 S
C346 H338 0.930 . S
C346 C345 1.362 1_554 S
C346 C349 1.401 1_465 S
C347 H339 0.930 1_545 S
C347 C348 1.355 . S
C347 C349 1.423 . S
C348 C347 1.355 . S
C348 C350 1.419 . S
C349 C344 1.427 1_655 S
C349 C346 1.401 1_645 S
C349 C347 1.423 . S
C350 H340 0.930 . S
C350 C348 1.419 . S
C350 C351 1.362 . S
C351 H341 0.930 . S
C351 C344 1.401 1_655 S
C351 C350 1.362 . S
H352 C358 0.930 . S
H353 C361 0.930 . S
H354 C362 0.930 . S
H355 C363 0.930 . S
H356 C366 0.930 . S
H357 C367 0.930 . S
C358 H352 0.930 . S
C358 C359 1.355 . S
C358 C360 1.415 . S
C359 C358 1.355 . S
C359 C361 1.419 . S
C360 C358 1.415 . S
C360 C365 1.425 . S
C360 C367 1.409 . S
C361 H353 0.930 . S
C361 C359 1.419 . S
C361 C362 1.362 . S
C362 H354 0.930 . S
C362 C361 1.362 . S
C362 C365 1.409 . S
C363 H355 0.930 . S
C363 C364 1.355 . S
C363 C365 1.415 . S
C364 C363 1.355 . S
C364 C366 1.419 . S
C365 C360 1.425 . S
C365 C362 1.409 . S
C365 C363 1.415 . S
C366 H356 0.930 . S
C366 C364 1.419 . S
C366 C367 1.362 . S
C367 H357 0.930 . S
C367 C360 1.409 . S
C367 C366 1.362 . S
H368 C374 0.930 . S
H369 C377 0.930 . S
H370 C378 0.930 . S
H371 C379 0.930 . S
H372 C382 0.930 . S
H373 C383 0.930 . S
C374 H368 0.930 . S
C374 C375 1.355 . S
C374 C376 1.415 . S
C375 C374 1.355 . S
C375 C377 1.419 . S
C376 C374 1.415 . S
C376 C381 1.425 . S
C376 C383 1.409 . S
C377 H369 0.930 . S
C377 C375 1.419 . S
C377 C378 1.362 . S
C378 H370 0.930 . S
C378 C377 1.362 . S
C378 C381 1.409 . S
C379 H371 0.930 . S
C379 C380 1.355 . S
C379 C381 1.415 . S
C380 C379 1.355 . S
C380 C382 1.419 . S
C381 C376 1.425 . S
C381 C378 1.409 . S
C381 C379 1.415 . S
C382 H372 0.930 . S
C382 C380 1.419 . S
C382 C383 1.362 . S
C383 H373 0.930 . S
C383 C376 1.409 . S
C383 C382 1.362 . S
H384 C390 0.930 . S
H385 C393 0.930 . S
H386 C394 0.930 . S
H387 C395 0.930 . S
H388 C398 0.930 . S
H389 C399 0.930 . S
C390 H384 0.930 . S
C390 C391 1.355 . S
C390 C392 1.415 . S
C391 C390 1.355 . S
C391 C393 1.419 . S
C392 C390 1.415 . S
C392 C397 1.425 . S
C392 C399 1.409 . S
C393 H385 0.930 . S
C393 C391 1.419 . S
C393 C394 1.362 . S
C394 H386 0.930 . S
C394 C393 1.362 . S
C394 C397 1.409 . S
C395 H387 0.930 . S
C395 C396 1.355 . S
C395 C397 1.415 . S
C396 C395 1.355 . S
C396 C398 1.419 . S
C397 C392 1.425 . S
C397 C394 1.409 . S
C397 C395 1.415 . S
C398 H388 0.930 . S
C398 C396 1.419 . S
C398 C399 1.362 . S
C399 H389 0.930 . S
C399 C392 1.409 . S
C399 C398 1.362 . S
H400 C406 0.930 . S
H401 C409 0.930 . S
H402 C410 0.930 . S
H403 C411 0.930 . S
H404 C414 0.930 . S
H405 C415 0.930 . S
C406 H400 0.930 . S
C406 C407 1.355 . S
C406 C408 1.415 . S
C407 C406 1.355 . S
C407 C409 1.419 . S
C408 C406 1.415 . S
C408 C413 1.425 . S
C408 C415 1.409 . S
C409 H401 0.930 . S
C409 C407 1.419 . S
C409 C410 1.362 . S
C410 H402 0.930 . S
C410 C409 1.362 . S
C410 C413 1.409 . S
C411 H403 0.930 . S
C411 C412 1.355 . S
C411 C413 1.415 . S
C412 C411 1.355 . S
C412 C414 1.419 . S
C413 C408 1.425 . S
C413 C410 1.409 . S
C413 C411 1.415 . S
C414 H404 0.930 . S
C414 C412 1.419 . S
C414 C415 1.362 . S
C415 H405 0.930 . S
C415 C408 1.409 . S
C415 C414 1.362 . S
H416 C422 0.930 . S
H417 C425 0.930 . S
H418 C426 0.930 . S
H419 C427 0.930 1_554 S
H420 C430 0.930 . S
H421 C431 0.930 . S
C422 H416 0.930 . S
C422 C423 1.355 . S
C422 C424 1.415 . S
C423 C422 1.355 . S
C423 C425 1.419 . S
C424 C422 1.415 . S
C424 C429 1.425 . S
C424 C431 1.409 1_554 S
C425 H417 0.930 . S
C425 C423 1.419 . S
C425 C426 1.362 . S
C426 H418 0.930 . S
C426 C425 1.362 . S
C426 C429 1.409 . S
C427 H419 0.930 1_556 S
C427 C428 1.355 . S
C427 C429 1.415 1_556 S
C428 C427 1.355 . S
C428 C430 1.419 . S
C429 C424 1.425 . S
C429 C426 1.409 . S
C429 C427 1.415 1_554 S
C430 H420 0.930 . S
C430 C428 1.419 . S
C430 C431 1.362 . S
C431 H421 0.930 . S
C431 C424 1.409 1_556 S
C431 C430 1.362 . S
H432 C438 0.930 . S
H433 C441 0.930 . S
H434 C442 0.930 . S
H435 C443 0.930 . S
H436 C446 0.930 . S
H437 C447 0.930 . S
C438 H432 0.930 . S
C438 C439 1.355 . S
C438 C440 1.415 . S
C439 C438 1.355 . S
C439 C441 1.419 . S
C440 C438 1.415 . S
C440 C445 1.425 1_455 S
C440 C447 1.409 . S
C441 H433 0.930 . S
C441 C439 1.419 . S
C441 C442 1.362 1_455 S
C442 H434 0.930 . S
C442 C441 1.362 1_655 S
C442 C445 1.409 . S
C443 H435 0.930 . S
C443 C444 1.355 . S
C443 C445 1.415 . S
C444 C443 1.355 . S
C444 C446 1.419 . S
C445 C440 1.425 1_655 S
C445 C442 1.409 . S
C445 C443 1.415 . S
C446 H436 0.930 . S
C446 C444 1.419 . S
C446 C447 1.362 1_655 S
C447 H437 0.930 . S
C447 C440 1.409 . S
C447 C446 1.362 1_455 S
H448 C454 0.930 . S
H449 C457 0.930 . S
H450 C458 0.930 . S
H451 C459 0.930 . S
H452 C462 0.930 . S
H453 C463 0.930 . S
C454 H448 0.930 . S
C454 C455 1.355 . S
C454 C456 1.415 . S
C455 C454 1.355 . S
C455 C457 1.419 . S
C456 C454 1.415 . S
C456 C461 1.425 1_455 S
C456 C463 1.409 1_554 S
C457 H449 0.930 . S
C457 C455 1.419 . S
C457 C458 1.362 1_455 S
C458 H450 0.930 . S
C458 C457 1.362 1_655 S
C458 C461 1.409 . S
C459 H451 0.930 . S
C459 C460 1.355 . S
C459 C461 1.415 1_556 S
C460 C459 1.355 . S
C460 C462 1.419 . S
C461 C456 1.425 1_655 S
C461 C458 1.409 . S
C461 C459 1.415 1_554 S
C462 H452 0.930 . S
C462 C460 1.419 . S
C462 C463 1.362 1_655 S
C463 H453 0.930 . S
C463 C456 1.409 1_556 S
C463 C462 1.362 1_455 S
H464 C470 0.930 . S
H465 C473 0.930 . S
H466 C474 0.930 . S
H467 C475 0.930 . S
H468 C478 0.930 . S
H469 C479 0.930 . S
C470 H464 0.930 . S
C470 C471 1.355 . S
C470 C472 1.415 . S
C471 C470 1.355 . S
C471 C473 1.419 . S
C472 C470 1.415 . S
C472 C477 1.425 . S
C472 C479 1.409 . S
C473 H465 0.930 . S
C473 C471 1.419 . S
C473 C474 1.362 . S
C474 H466 0.930 . S
C474 C473 1.362 . S
C474 C477 1.409 . S
C475 H467 0.930 . S
C475 C476 1.355 . S
C475 C477 1.415 . S
C476 C475 1.355 . S
C476 C478 1.419 . S
C477 C472 1.425 . S
C477 C474 1.409 . S
C477 C475 1.415 . S
C478 H468 0.930 . S
C478 C476 1.419 . S
C478 C479 1.362 . S
C479 H469 0.930 . S
C479 C472 1.409 . S
C479 C478 1.362 . S
H480 C486 0.930 . S
H481 C489 0.930 . S
H482 C490 0.930 . S
H483 C491 0.930 . S
H484 C494 0.930 . S
H485 C495 0.930 . S
C486 H480 0.930 . S
C486 C487 1.355 . S
C486 C488 1.415 . S
C487 C486 1.355 . S
C487 C489 1.419 . S
C488 C486 1.415 . S
C488 C493 1.425 . S
C488 C495 1.409 . S
C489 H481 0.930 . S
C489 C487 1.419 . S
C489 C490 1.362 . S
C490 H482 0.930 . S
C490 C489 1.362 . S
C490 C493 1.409 . S
C491 H483 0.930 . S
C491 C492 1.355 . S
C491 C493 1.415 . S
C492 C491 1.355 . S
C492 C494 1.419 . S
C493 C488 1.425 . S
C493 C490 1.409 . S
C493 C491 1.415 . S
C494 H484 0.930 . S
C494 C492 1.419 . S
C494 C495 1.362 . S
C495 H485 0.930 . S
C495 C488 1.409 . S
C495 C494 1.362 . S
H496 C502 0.930 . S
H497 C505 0.930 . S
H498 C506 0.930 . S
H499 C507 0.930 . S
H500 C510 0.930 . S
H501 C511 0.930 . S
C502 H496 0.930 . S
C502 C503 1.355 . S
C502 C504 1.415 . S
C503 C502 1.355 . S
C503 C505 1.419 . S
C504 C502 1.415 . S
C504 C509 1.425 . S
C504 C511 1.409 . S
C505 H497 0.930 . S
C505 C503 1.419 . S
C505 C506 1.362 . S
C506 H498 0.930 . S
C506 C505 1.362 . S
C506 C509 1.409 . S
C507 H499 0.930 . S
C507 C508 1.355 . S
C507 C509 1.415 . S
C508 C507 1.355 . S
C508 C510 1.419 . S
C509 C504 1.425 . S
C509 C506 1.409 . S
C509 C507 1.415 . S
C510 H500 0.930 . S
C510 C508 1.419 . S
C510 C511 1.362 . S
C511 H501 0.930 . S
C511 C504 1.409 . S
C511 C510 1.362 . S
H512 C518 0.930 . S
H513 C521 0.930 . S
H514 C522 0.930 . S
H515 C523 0.930 . S
H516 C526 0.930 . S
H517 C527 0.930 . S
C518 H512 0.930 . S
C518 C519 1.355 . S
C518 C520 1.415 . S
C519 C518 1.355 . S
C519 C521 1.419 . S
C520 C518 1.415 . S
C520 C525 1.425 . S
C520 C527 1.409 . S
C521 H513 0.930 . S
C521 C519 1.419 . S
C521 C522 1.362 . S
C522 H514 0.930 . S
C522 C521 1.362 . S
C522 C525 1.409 . S
C523 H515 0.930 . S
C523 C524 1.355 . S
C523 C525 1.415 . S
C524 C523 1.355 . S
C524 C526 1.419 . S
C525 C520 1.425 . S
C525 C522 1.409 . S
C525 C523 1.415 . S
C526 H516 0.930 . S
C526 C524 1.419 . S
C526 C527 1.362 . S
C527 H517 0.930 . S
C527 C520 1.409 . S
C527 C526 1.362 . S
H528 C534 0.930 . S
H529 C537 0.930 1_554 S
H530 C538 0.930 . S
H531 C539 0.930 . S
H532 C542 0.930 . S
H533 C543 0.930 . S
C534 H528 0.930 . S
C534 C535 1.355 . S
C534 C536 1.415 . S
C535 C534 1.355 . S
C535 C537 1.419 . S
C536 C534 1.415 . S
C536 C541 1.425 . S
C536 C543 1.409 . S
C537 H529 0.930 1_556 S
C537 C535 1.419 . S
C537 C538 1.362 . S
C538 H530 0.930 . S
C538 C537 1.362 . S
C538 C541 1.409 . S
C539 H531 0.930 . S
C539 C540 1.355 . S
C539 C541 1.415 . S
C540 C539 1.355 . S
C540 C542 1.419 . S
C541 C536 1.425 . S
C541 C538 1.409 . S
C541 C539 1.415 . S
C542 H532 0.930 . S
C542 C540 1.419 . S
C542 C543 1.362 . S
C543 H533 0.930 . S
C543 C536 1.409 . S
C543 C542 1.362 . S
H544 C550 0.930 . S
H545 C553 0.930 . S
H546 C554 0.930 . S
H547 C555 0.930 . S
H548 C558 0.930 . S
H549 C559 0.930 . S
C550 H544 0.930 . S
C550 C551 1.355 . S
C550 C552 1.415 . S
C551 C550 1.355 . S
C551 C553 1.419 . S
C552 C550 1.415 . S
C552 C557 1.425 . S
C552 C559 1.409 . S
C553 H545 0.930 . S
C553 C551 1.419 . S
C553 C554 1.362 . S
C554 H546 0.930 . S
C554 C553 1.362 . S
C554 C557 1.409 . S
C555 H547 0.930 . S
C555 C556 1.355 . S
C555 C557 1.415 . S
C556 C555 1.355 . S
C556 C558 1.419 . S
C557 C552 1.425 . S
C557 C554 1.409 . S
C557 C555 1.415 . S
C558 H548 0.930 . S
C558 C556 1.419 . S
C558 C559 1.362 . S
C559 H549 0.930 . S
C559 C552 1.409 . S
C559 C558 1.362 . S
H560 C566 0.930 . S
H561 C569 0.930 . S
H562 C570 0.930 . S
H563 C571 0.930 . S
H564 C574 0.930 . S
H565 C575 0.930 . S
C566 H560 0.930 . S
C566 C567 1.355 . S
C566 C568 1.415 . S
C567 C566 1.355 . S
C567 C569 1.419 . S
C568 C566 1.415 . S
C568 C573 1.425 . S
C568 C575 1.409 . S
C569 H561 0.930 . S
C569 C567 1.419 . S
C569 C570 1.362 . S
C570 H562 0.930 . S
C570 C569 1.362 . S
C570 C573 1.409 . S
C571 H563 0.930 . S
C571 C572 1.355 . S
C571 C573 1.415 . S
C572 C571 1.355 . S
C572 C574 1.419 . S
C573 C568 1.425 . S
C573 C570 1.409 . S
C573 C571 1.415 . S
C574 H564 0.930 . S
C574 C572 1.419 . S
C574 C575 1.362 . S
C575 H565 0.930 . S
C575 C568 1.409 . S
C575 C574 1.362 . S
H576 C582 0.930 . S
H577 C585 0.930 . S
H578 C586 0.930 1_554 S
H579 C587 0.930 1_554 S
H580 C590 0.930 . S
H581 C591 0.930 . S
C582 H576 0.930 . S
C582 C583 1.355 . S
C582 C584 1.415 . S
C583 C582 1.355 . S
C583 C585 1.419 . S
C584 C582 1.415 . S
C584 C589 1.425 . S
C584 C591 1.409 . S
C585 H577 0.930 . S
C585 C583 1.419 . S
C585 C586 1.362 . S
C586 H578 0.930 1_556 S
C586 C585 1.362 . S
C586 C589 1.409 . S
C587 H579 0.930 1_556 S
C587 C588 1.355 . S
C587 C589 1.415 . S
C588 C587 1.355 . S
C588 C590 1.419 . S
C589 C584 1.425 . S
C589 C586 1.409 . S
C589 C587 1.415 . S
C590 H580 0.930 . S
C590 C588 1.419 . S
C590 C591 1.362 . S
C591 H581 0.930 . S
C591 C584 1.409 . S
C591 C590 1.362 . S
H592 C598 0.930 . S
H593 C601 0.930 . S
H594 C602 0.930 . S
H595 C603 0.930 . S
H596 C606 0.930 . S
H597 C607 0.930 . S
C598 H592 0.930 . S
C598 C599 1.355 . S
C598 C600 1.415 . S
C599 C598 1.355 . S
C599 C601 1.419 . S
C600 C598 1.415 . S
C600 C605 1.425 . S
C600 C607 1.409 . S
C601 H593 0.930 . S
C601 C599 1.419 . S
C601 C602 1.362 . S
C602 H594 0.930 . S
C602 C601 1.362 . S
C602 C605 1.409 . S
C603 H595 0.930 . S
C603 C604 1.355 . S
C603 C605 1.415 . S
C604 C603 1.355 . S
C604 C606 1.419 . S
C605 C600 1.425 . S
C605 C602 1.409 . S
C605 C603 1.415 . S
C606 H596 0.930 . S
C606 C604 1.419 . S
C606 C607 1.362 . S
C607 H597 0.930 . S
C607 C600 1.409 . S
C607 C606 1.362 . S
H608 C614 0.930 . S
H609 C617 0.930 . S
H610 C618 0.930 . S
H611 C619 0.930 . S
H612 C622 0.930 . S
H613 C623 0.930 . S
C614 H608 0.930 . S
C614 C615 1.355 . S
C614 C616 1.415 . S
C615 C614 1.355 . S
C615 C617 1.419 . S
C616 C614 1.415 . S
C616 C621 1.425 . S
C616 C623 1.409 . S
C617 H609 0.930 . S
C617 C615 1.419 . S
C617 C618 1.362 . S
C618 H610 0.930 . S
C618 C617 1.362 . S
C618 C621 1.409 . S
C619 H611 0.930 . S
C619 C620 1.355 . S
C619 C621 1.415 . S
C620 C619 1.355 . S
C620 C622 1.419 . S
C621 C616 1.425 . S
C621 C618 1.409 . S
C621 C619 1.415 . S
C622 H612 0.930 . S
C622 C620 1.419 . S
C622 C623 1.362 . S
C623 H613 0.930 . S
C623 C616 1.409 . S
C623 C622 1.362 . S
H624 C630 0.930 . S
H625 C633 0.930 . S
H626 C634 0.930 . S
H627 C635 0.930 . S
H628 C638 0.930 . S
H629 C639 0.930 . S
C630 H624 0.930 . S
C630 C631 1.355 . S
C630 C632 1.415 . S
C631 C630 1.355 . S
C631 C633 1.419 . S
C632 C630 1.415 . S
C632 C637 1.425 . S
C632 C639 1.409 . S
C633 H625 0.930 . S
C633 C631 1.419 . S
C633 C634 1.362 . S
C634 H626 0.930 . S
C634 C633 1.362 . S
C634 C637 1.409 . S
C635 H627 0.930 . S
C635 C636 1.355 . S
C635 C637 1.415 . S
C636 C635 1.355 . S
C636 C638 1.419 . S
C637 C632 1.425 . S
C637 C634 1.409 . S
C637 C635 1.415 . S
C638 H628 0.930 . S
C638 C636 1.419 . S
C638 C639 1.362 . S
C639 H629 0.930 . S
C639 C632 1.409 . S
C639 C638 1.362 . S
H640 C646 0.930 . S
H641 C649 0.930 . S
H642 C650 0.930 . S
H643 C651 0.930 . S
H644 C654 0.930 . S
H645 C655 0.930 . S
C646 H640 0.930 . S
C646 C647 1.355 . S
C646 C648 1.415 . S
C647 C646 1.355 . S
C647 C649 1.419 . S
C648 C646 1.415 . S
C648 C653 1.425 . S
C648 C655 1.409 . S
C649 H641 0.930 . S
C649 C647 1.419 . S
C649 C650 1.362 . S
C650 H642 0.930 . S
C650 C649 1.362 . S
C650 C653 1.409 . S
C651 H643 0.930 . S
C651 C652 1.355 . S
C651 C653 1.415 . S
C652 C651 1.355 . S
C652 C654 1.419 . S
C653 C648 1.425 . S
C653 C650 1.409 . S
C653 C651 1.415 . S
C654 H644 0.930 . S
C654 C652 1.419 . S
C654 C655 1.362 . S
C655 H645 0.930 . S
C655 C648 1.409 . S
C655 C654 1.362 . S
H656 C662 0.930 . S
H657 C665 0.966 . S
H658 C666 0.930 . S
H659 C667 0.930 . S
H660 C670 0.930 . S
H661 C671 0.930 . S
C662 H656 0.930 . S
C662 C663 1.355 . S
C662 C664 1.415 . S
C663 C662 1.355 . S
C663 C665 1.419 . S
C664 C662 1.415 . S
C664 C669 1.425 . S
C664 C671 1.409 . S
C665 H657 0.966 . S
C665 C663 1.419 . S
C665 C666 1.362 . S
C666 H658 0.930 . S
C666 C665 1.362 . S
C666 C669 1.409 . S
C667 H659 0.930 . S
C667 C668 1.355 . S
C667 C669 1.415 . S
C668 C667 1.355 . S
C668 C670 1.419 . S
C669 C664 1.425 . S
C669 C666 1.409 . S
C669 C667 1.415 . S
C670 H660 0.930 . S
C670 C668 1.419 . S
C670 C671 1.362 . S
C671 H661 0.930 . S
C671 C664 1.409 . S
C671 C670 1.362 . S
H672 C678 0.930 . S
H673 C681 0.930 . S
H674 C682 0.930 . S
H675 C683 0.930 . S
H676 C686 0.930 . S
H677 C687 0.930 . S
C678 H672 0.930 . S
C678 C679 1.355 . S
C678 C680 1.415 . S
C679 C678 1.355 . S
C679 C681 1.419 . S
C680 C678 1.415 . S
C680 C685 1.425 . S
C680 C687 1.409 . S
C681 H673 0.930 . S
C681 C679 1.419 . S
C681 C682 1.362 . S
C682 H674 0.930 . S
C682 C681 1.362 . S
C682 C685 1.409 . S
C683 H675 0.930 . S
C683 C684 1.355 . S
C683 C685 1.415 . S
C684 C683 1.355 . S
C684 C686 1.419 . S
C685 C680 1.425 . S
C685 C682 1.409 . S
C685 C683 1.415 . S
C686 H676 0.930 . S
C686 C684 1.419 . S
C686 C687 1.362 . S
C687 H677 0.930 . S
C687 C680 1.409 . S
C687 C686 1.362 . S
H688 C694 0.930 . S
H689 C697 0.930 . S
H690 C698 0.930 . S
H691 C699 0.930 . S
H692 C702 0.930 . S
H693 C703 0.930 . S
C694 H688 0.930 . S
C694 C695 1.355 . S
C694 C696 1.415 . S
C695 C694 1.355 . S
C695 C697 1.419 . S
C696 C694 1.415 . S
C696 C701 1.425 . S
C696 C703 1.409 . S
C697 H689 0.930 . S
C697 C695 1.419 . S
C697 C698 1.362 . S
C698 H690 0.930 . S
C698 C697 1.362 . S
C698 C701 1.409 . S
C699 H691 0.930 . S
C699 C700 1.355 . S
C699 C701 1.415 . S
C700 C699 1.355 . S
C700 C702 1.419 . S
C701 C696 1.425 . S
C701 C698 1.409 . S
C701 C699 1.415 . S
C702 H692 0.930 . S
C702 C700 1.419 . S
C702 C703 1.362 . S
C703 H693 0.930 . S
C703 C696 1.409 . S
C703 C702 1.362 . S
H704 C710 0.930 . S
H705 C713 0.930 . S
H706 C714 0.930 . S
H707 C715 0.930 . S
H708 C718 0.930 . S
H709 C719 0.930 . S
C710 H704 0.930 . S
C710 C711 1.355 . S
C710 C712 1.415 . S
C711 C710 1.355 . S
C711 C713 1.419 . S
C712 C710 1.415 . S
C712 C717 1.425 . S
C712 C719 1.409 . S
C713 H705 0.930 . S
C713 C711 1.419 . S
C713 C714 1.362 . S
C714 H706 0.930 . S
C714 C713 1.362 . S
C714 C717 1.409 . S
C715 H707 0.930 . S
C715 C716 1.355 . S
C715 C717 1.415 . S
C716 C715 1.355 . S
C716 C718 1.419 . S
C717 C712 1.425 . S
C717 C714 1.409 . S
C717 C715 1.415 . S
C718 H708 0.930 . S
C718 C716 1.419 . S
C718 C719 1.362 . S
C719 H709 0.930 . S
C719 C712 1.409 . S
C719 C718 1.362 . S
H720 C726 0.930 . S
H721 C729 0.930 1_554 S
H722 C730 0.930 1_554 S
H723 C731 0.930 . S
H724 C734 0.930 . S
H725 C735 0.930 . S
C726 H720 0.930 . S
C726 C727 1.355 . S
C726 C728 1.415 . S
C727 C726 1.355 . S
C727 C729 1.419 . S
C728 C726 1.415 . S
C728 C733 1.425 . S
C728 C735 1.409 . S
C729 H721 0.930 1_556 S
C729 C727 1.419 . S
C729 C730 1.362 . S
C730 H722 0.930 1_556 S
C730 C729 1.362 . S
C730 C733 1.409 . S
C731 H723 0.930 . S
C731 C732 1.355 . S
C731 C733 1.415 . S
C732 C731 1.355 . S
C732 C734 1.419 . S
C733 C728 1.425 . S
C733 C730 1.409 . S
C733 C731 1.415 . S
C734 H724 0.930 . S
C734 C732 1.419 . S
C734 C735 1.362 . S
C735 H725 0.930 . S
C735 C728 1.409 . S
C735 C734 1.362 . S
C231 C0 1.442 . S
C236 C168 1.442 . S
C247 C19 1.405 . S
C252 C75 1.405 . S
C263 C28 1.430 . S
C268 C196 1.430 . S
C279 C103 1.404 . S
C284 C47 1.404 . S
C295 C201 1.395 . S
C300 C33 1.395 . S
C311 C98 1.440 . S
C316 C42 1.440 . S
C327 C173 1.402 . S
C332 C5 1.402 . S
C343 C70 1.441 . S
C348 C14 1.441 . S
C359 C56 1.441 . S
C364 C112 1.441 . S
C375 C84 1.440 . S
C380 C140 1.440 . S
C391 C145 1.407 . S
C396 C89 1.407 . S
C407 C61 1.408 . S
C412 C117 1.408 . S
C423 C187 1.398 . S
C428 C131 1.398 . S
C439 C159 1.398 . S
C444 C215 1.398 . S
C455 C154 1.424 . S
C460 C210 1.424 . S
C471 C126 1.442 . S
C476 C182 1.442 . S
C487 C165 1.482 . S
C492 C11 1.479 . S
C503 C121 1.459 . S
C508 C23 1.479 . S
C519 C39 1.482 . S
C524 C137 1.479 . S
C535 C149 1.488 . S
C540 C51 1.466 . S
C551 C163 1.460 . S
C556 C37 1.485 . S
C567 C53 1.475 . S
C572 C123 1.477 . S
C583 C135 1.461 . S
C588 C9 1.472 . S
C599 C151 1.481 . S
C604 C25 1.479 . S
C615 C67 1.478 . S
C620 C221 1.481 . S
C631 C177 1.462 . S
C636 C79 1.487 . S
C647 C95 1.477 . S
C652 C193 1.480 . S
C663 C107 1.459 . S
C668 C205 1.478 . S
C679 C93 1.485 . S
C684 C219 1.460 . S
C695 C179 1.480 . S
C700 C109 1.482 . S
C711 C191 1.472 . S
C716 C65 1.461 . S
C727 C207 1.476 . S
C732 C81 1.475 . S
