# Generated by pormake.
# Topology ukf, (4)-cn, num edge types: 1
# Building blocks:
#     Node 0, Type 0, BuildingBlock: KUFVIS_clean_sbu_0, # of connection points: 4
#     Node 1, Type 0, BuildingBlock: KUFVIS_clean_sbu_0, # of connection points: 4
#     Node 2, Type 0, BuildingBlock: KUFVIS_clean_sbu_0, # of connection points: 4
#     Node 3, Type 0, BuildingBlock: KUFVIS_clean_sbu_0, # of connection points: 4
#     Node 4, Type 0, BuildingBlock: KUFVIS_clean_sbu_0, # of connection points: 4
#     Node 5, Type 0, BuildingBlock: KUFVIS_clean_sbu_0, # of connection points: 4
#     Node 6, Type 0, BuildingBlock: KUFVIS_clean_sbu_0, # of connection points: 4
#     Node 7, Type 0, BuildingBlock: KUFVIS_clean_sbu_0, # of connection points: 4
#     Node 8, Type 0, BuildingBlock: KUFVIS_clean_sbu_0, # of connection points: 4
#     Node 9, Type 0, BuildingBlock: KUFVIS_clean_sbu_0, # of connection points: 4
#     Node 10, Type 0, BuildingBlock: KUFVIS_clean_sbu_0, # of connection points: 4
#     Node 11, Type 0, BuildingBlock: KUFVIS_clean_sbu_0, # of connection points: 4
#     Edge 12, Type (0, 0), BuildingBlock: KIFKEQ_clean_linker_1, # of connection points: 2
#     Edge 13, Type (0, 0), BuildingBlock: KIFKEQ_clean_linker_1, # of connection points: 2
#     Edge 14, Type (0, 0), BuildingBlock: KIFKEQ_clean_linker_1, # of connection points: 2
#     Edge 15, Type (0, 0), BuildingBlock: KIFKEQ_clean_linker_1, # of connection points: 2
#     Edge 16, Type (0, 0), BuildingBlock: KIFKEQ_clean_linker_1, # of connection points: 2
#     Edge 17, Type (0, 0), BuildingBlock: KIFKEQ_clean_linker_1, # of connection points: 2
#     Edge 18, Type (0, 0), BuildingBlock: KIFKEQ_clean_linker_1, # of connection points: 2
#     Edge 19, Type (0, 0), BuildingBlock: KIFKEQ_clean_linker_1, # of connection points: 2
#     Edge 20, Type (0, 0), BuildingBlock: KIFKEQ_clean_linker_1, # of connection points: 2
#     Edge 21, Type (0, 0), BuildingBlock: KIFKEQ_clean_linker_1, # of connection points: 2
#     Edge 22, Type (0, 0), BuildingBlock: KIFKEQ_clean_linker_1, # of connection points: 2
#     Edge 23, Type (0, 0), BuildingBlock: KIFKEQ_clean_linker_1, # of connection points: 2
#     Edge 24, Type (0, 0), BuildingBlock: KIFKEQ_clean_linker_1, # of connection points: 2
#     Edge 25, Type (0, 0), BuildingBlock: KIFKEQ_clean_linker_1, # of connection points: 2
#     Edge 26, Type (0, 0), BuildingBlock: KIFKEQ_clean_linker_1, # of connection points: 2
#     Edge 27, Type (0, 0), BuildingBlock: KIFKEQ_clean_linker_1, # of connection points: 2
#     Edge 28, Type (0, 0), BuildingBlock: KIFKEQ_clean_linker_1, # of connection points: 2
#     Edge 29, Type (0, 0), BuildingBlock: KIFKEQ_clean_linker_1, # of connection points: 2
#     Edge 30, Type (0, 0), BuildingBlock: KIFKEQ_clean_linker_1, # of connection points: 2
#     Edge 31, Type (0, 0), BuildingBlock: KIFKEQ_clean_linker_1, # of connection points: 2
#     Edge 32, Type (0, 0), BuildingBlock: KIFKEQ_clean_linker_1, # of connection points: 2
#     Edge 33, Type (0, 0), BuildingBlock: KIFKEQ_clean_linker_1, # of connection points: 2
#     Edge 34, Type (0, 0), BuildingBlock: KIFKEQ_clean_linker_1, # of connection points: 2
#     Edge 35, Type (0, 0), BuildingBlock: KIFKEQ_clean_linker_1, # of connection points: 2
# Relax obj value: 0.098
# Max RMSD: 0.095
# Mean RMSD: 0.095
data_MOF--net-ukf--node1-KUFVIS_clean_sbu_0--edge1-KIFKEQ_clean_linker_1
_symmetry_space_group_name_H-M    P1
_symmetry_Int_Tables_number       1
_symmetry_cell_setting            triclinic
loop_
_symmetry_equiv_pos_as_xyz
'x, y, z'
_cell_length_a     33.073441
_cell_length_b     33.085846
_cell_length_c     63.94152
_cell_angle_alpha  89.983119
_cell_angle_beta   90.003536
_cell_angle_gamma 120.01145
loop_
_atom_site_label
_atom_site_type_symbol
_atom_site_fract_x
_atom_site_fract_y
_atom_site_fract_z
_atom_type_partial_charge
Mn0 Mn 0.42477 0.23326 0.04761 0.0
Mn1 Mn 0.52334 0.29942 0.07545 0.0
C2 C 0.49716 0.25577 0.03334 0.0
C3 C 0.36537 0.15834 0.03729 0.0
C4 C 0.47139 0.34011 0.05299 0.0
O5 O 0.39969 0.22484 0.07733 0.0
O6 O 0.46729 0.27284 0.09383 0.0
C7 C 0.52007 0.22224 0.10031 0.0
N8 N 0.54334 0.25898 0.08702 0.0
C9 C 0.61044 0.24873 0.08683 0.0
C10 C 0.58729 0.21098 0.10061 0.0
C11 C 0.54186 0.19761 0.10733 0.0
C12 C 0.58696 0.27195 0.08036 0.0
H13 H 0.48514 0.21174 0.10552 0.0
C14 C 0.42306 0.24495 0.09374 0.0
O15 O 0.36001 0.19454 0.03533 0.0
O16 O 0.40386 0.16572 0.04585 0.0
N17 N 0.58079 0.32706 0.06011 0.0
C18 C 0.5979 0.36341 0.04639 0.0
C19 C 0.64275 0.38065 0.03794 0.0
C20 C 0.66988 0.36084 0.04394 0.0
C21 C 0.65188 0.32392 0.05834 0.0
C22 C 0.607 0.30834 0.06629 0.0
H23 H 0.57744 0.37899 0.04189 0.0
O24 O 0.46136 0.24404 0.02136 0.0
O25 O 0.48971 0.25397 0.05335 0.0
O26 O 0.43673 0.3014 0.04666 0.0
O27 O 0.50568 0.34315 0.06347 0.0
C28 C 0.67649 0.30161 0.06492 0.0
C29 C 0.6557 0.2639 0.07908 0.0
H30 H 0.60396 0.19185 0.10604 0.0
H31 H 0.52369 0.1684 0.11791 0.0
H32 H 0.65642 0.40922 0.02688 0.0
H33 H 0.70446 0.37426 0.03738 0.0
H34 H 0.71125 0.31287 0.05905 0.0
H35 H 0.67475 0.24669 0.08384 0.0
Mn36 Mn 0.19287 0.41613 0.38266 0.0
Mn37 Mn 0.22513 0.51425 0.41078 0.0
C38 C 0.24387 0.48858 0.36878 0.0
C39 C 0.20816 0.35656 0.37237 0.0
C40 C 0.13307 0.46334 0.38774 0.0
O41 O 0.17509 0.39052 0.41222 0.0
O42 O 0.1948 0.45787 0.42896 0.0
C43 C 0.29795 0.51009 0.43616 0.0
N44 N 0.28512 0.53373 0.42277 0.0
C45 C 0.36263 0.6006 0.42317 0.0
C46 C 0.37655 0.57707 0.43707 0.0
C47 C 0.34409 0.53158 0.44354 0.0
C48 C 0.31616 0.57744 0.41636 0.0
H49 H 0.27321 0.47511 0.44118 0.0
C50 C 0.17817 0.4136 0.4287 0.0
O51 O 0.16681 0.35161 0.37013 0.0
O52 O 0.23918 0.39473 0.38118 0.0
N53 N 0.25579 0.5719 0.39561 0.0
C54 C 0.23735 0.58922 0.38158 0.0
C55 C 0.26552 0.63406 0.37324 0.0
C56 C 0.31223 0.66096 0.37963 0.0
C57 C 0.33034 0.64272 0.39432 0.0
C58 C 0.30049 0.59785 0.40215 0.0
H59 H 0.20151 0.56889 0.37674 0.0
O60 O 0.21985 0.45314 0.35662 0.0
O61 O 0.23741 0.4808 0.38875 0.0
O62 O 0.13704 0.42867 0.38136 0.0
O63 O 0.16418 0.49725 0.39843 0.0
C64 C 0.37701 0.66702 0.40127 0.0
C65 C 0.39319 0.6459 0.41561 0.0
H66 H 0.41214 0.59348 0.44276 0.0
H67 H 0.35461 0.51311 0.4542 0.0
H68 H 0.25125 0.64788 0.36192 0.0
H69 H 0.33385 0.6955 0.37313 0.0
H70 H 0.4009 0.70177 0.39551 0.0
H71 H 0.4293 0.66471 0.42064 0.0
Mn72 Mn 0.78547 0.19537 0.71726 0.0
Mn73 Mn 0.73049 0.23705 0.74744 0.0
C74 C 0.76581 0.24791 0.70362 0.0
C75 C 0.85682 0.20402 0.70547 0.0
C76 C 0.68049 0.14063 0.72772 0.0
O77 O 0.79569 0.17867 0.74681 0.0
O78 O 0.76172 0.21184 0.76531 0.0
C79 C 0.81404 0.31643 0.76651 0.0
N80 N 0.7739 0.29992 0.75525 0.0
C81 C 0.78422 0.37697 0.75192 0.0
C82 C 0.82553 0.39478 0.7636 0.0
C83 C 0.84056 0.36438 0.77087 0.0
C84 C 0.75928 0.32889 0.74805 0.0
H85 H 0.82573 0.29318 0.77211 0.0
C86 C 0.78429 0.18984 0.76403 0.0
O87 O 0.81824 0.16416 0.70402 0.0
O88 O 0.85393 0.23778 0.71412 0.0
N89 N 0.69882 0.2629 0.73229 0.0
C90 C 0.65886 0.2403 0.72079 0.0
C91 C 0.63936 0.26577 0.7122 0.0
C92 C 0.66081 0.31406 0.71572 0.0
C93 C 0.7016 0.33646 0.7278 0.0
C94 C 0.71925 0.3092 0.73608 0.0
H95 H 0.64202 0.20314 0.71815 0.0
O96 O 0.77437 0.222 0.6913 0.0
O97 O 0.76983 0.24295 0.72352 0.0
O98 O 0.71549 0.14324 0.71777 0.0
O99 O 0.68341 0.17306 0.73957 0.0
C100 C 0.72567 0.38482 0.73182 0.0
C101 C 0.76708 0.40509 0.74377 0.0
H102 H 0.84612 0.43175 0.76697 0.0
H103 H 0.87251 0.37789 0.77982 0.0
H104 H 0.60784 0.24823 0.70292 0.0
H105 H 0.64562 0.33353 0.70905 0.0
H106 H 0.71289 0.40683 0.72564 0.0
H107 H 0.78556 0.44239 0.74654 0.0
Mn108 Mn 0.58858 0.77632 0.05192 0.0
Mn109 Mn 0.4901 0.71703 0.08062 0.0
C110 C 0.51657 0.75219 0.03694 0.0
C111 C 0.64864 0.84999 0.04056 0.0
C112 C 0.54248 0.67167 0.0624 0.0
O113 O 0.61326 0.78814 0.0819 0.0
O114 O 0.5449 0.75013 0.09938 0.0
C115 C 0.48856 0.79838 0.09897 0.0
N116 N 0.46736 0.75828 0.08755 0.0
C117 C 0.39949 0.76592 0.08211 0.0
C118 C 0.42046 0.80712 0.09394 0.0
C119 C 0.46523 0.82346 0.10236 0.0
C120 C 0.42439 0.74236 0.0793 0.0
H121 H 0.52305 0.81116 0.1054 0.0
C122 C 0.58947 0.7751 0.09878 0.0
O123 O 0.65375 0.81347 0.03973 0.0
O124 O 0.60998 0.84359 0.04849 0.0
N125 N 0.43409 0.68347 0.06454 0.0
C126 C 0.41924 0.64378 0.05308 0.0
C127 C 0.3753 0.62319 0.04336 0.0
C128 C 0.34691 0.64332 0.04569 0.0
C129 C 0.36263 0.68375 0.05782 0.0
C130 C 0.40658 0.7025 0.06727 0.0
H131 H 0.44085 0.62807 0.05128 0.0
O132 O 0.55255 0.76279 0.02528 0.0
O133 O 0.52402 0.75687 0.05696 0.0
O134 O 0.57486 0.70765 0.05294 0.0
O135 O 0.51071 0.67243 0.07347 0.0
C136 C 0.33664 0.70648 0.06072 0.0
C137 C 0.35513 0.74763 0.07279 0.0
H138 H 0.40265 0.82666 0.09654 0.0
H139 H 0.48174 0.85536 0.11142 0.0
H140 H 0.36338 0.59193 0.03406 0.0
H141 H 0.31318 0.6275 0.03805 0.0
H142 H 0.30257 0.69286 0.05358 0.0
H143 H 0.33504 0.76507 0.07471 0.0
Mn144 Mn 0.81975 0.58836 0.38419 0.0
Mn145 Mn 0.777 0.4906 0.41369 0.0
C146 C 0.76915 0.51649 0.36975 0.0
C147 C 0.81049 0.65075 0.37244 0.0
C148 C 0.87479 0.53884 0.39529 0.0
O149 O 0.83422 0.61406 0.41402 0.0
O150 O 0.80013 0.54619 0.43199 0.0
C151 C 0.69543 0.49283 0.43137 0.0
N152 N 0.71331 0.47009 0.42039 0.0
C153 C 0.6368 0.40345 0.41527 0.0
C154 C 0.61758 0.42602 0.42665 0.0
C155 C 0.64703 0.47095 0.43469 0.0
C156 C 0.68528 0.42699 0.41247 0.0
H157 H 0.71793 0.52743 0.43751 0.0
C158 C 0.82189 0.5908 0.43106 0.0
O159 O 0.85082 0.6529 0.37143 0.0
O160 O 0.77664 0.61347 0.38065 0.0
N161 N 0.75306 0.43382 0.39809 0.0
C162 C 0.77707 0.41718 0.38718 0.0
C163 C 0.75272 0.37268 0.37805 0.0
C164 C 0.70408 0.34558 0.3804 0.0
C165 C 0.6802 0.36316 0.39194 0.0
C166 C 0.70639 0.40757 0.40086 0.0
H167 H 0.8145 0.43772 0.3854 0.0
O168 O 0.79533 0.55166 0.35781 0.0
O169 O 0.77255 0.52469 0.38971 0.0
O170 O 0.87239 0.57128 0.38529 0.0
O171 O 0.84188 0.50878 0.40681 0.0
C172 C 0.63143 0.33853 0.39483 0.0
C173 C 0.60972 0.35875 0.4064 0.0
H174 H 0.58026 0.4093 0.42921 0.0
H175 H 0.63243 0.48868 0.44341 0.0
H176 H 0.77141 0.35931 0.3692 0.0
H177 H 0.68545 0.31133 0.37328 0.0
H178 H 0.61022 0.30417 0.38808 0.0
H179 H 0.57214 0.33968 0.40832 0.0
Mn180 Mn 0.24032 0.82264 0.71201 0.0
Mn181 Mn 0.30178 0.78505 0.74019 0.0
C182 C 0.26042 0.7709 0.69774 0.0
C183 C 0.16722 0.81153 0.70139 0.0
C184 C 0.34731 0.87895 0.71845 0.0
O185 O 0.232 0.83947 0.74174 0.0
O186 O 0.27632 0.81556 0.75851 0.0
C187 C 0.22097 0.71181 0.76365 0.0
N188 N 0.25829 0.72446 0.75081 0.0
C189 C 0.243 0.64534 0.7492 0.0
C190 C 0.20459 0.63155 0.7625 0.0
C191 C 0.19347 0.66493 0.76971 0.0
C192 C 0.269 0.69253 0.74362 0.0
H193 H 0.21217 0.73725 0.76921 0.0
C194 C 0.25037 0.8341 0.75829 0.0
O195 O 0.20498 0.85196 0.69951 0.0
O196 O 0.17188 0.77862 0.70986 0.0
N197 N 0.32821 0.75399 0.72495 0.0
C198 C 0.36686 0.77303 0.71254 0.0
C199 C 0.38326 0.74454 0.70435 0.0
C200 C 0.36015 0.69681 0.70924 0.0
C201 C 0.32082 0.67801 0.72229 0.0
C202 C 0.30645 0.7083 0.73018 0.0
H203 H 0.38515 0.80968 0.70903 0.0
O204 O 0.25032 0.79615 0.68573 0.0
O205 O 0.25812 0.77627 0.71773 0.0
O206 O 0.30964 0.8766 0.71165 0.0
O207 O 0.34826 0.84655 0.72897 0.0
C208 C 0.29543 0.63045 0.72783 0.0
C209 C 0.25637 0.61408 0.74118 0.0
H210 H 0.18331 0.59543 0.76723 0.0
H211 H 0.16378 0.65454 0.77993 0.0
H212 H 0.41382 0.7594 0.6944 0.0
H213 H 0.37324 0.67509 0.70307 0.0
H214 H 0.30551 0.60614 0.72184 0.0
H215 H 0.23692 0.57738 0.74522 0.0
Mn216 Mn 0.78006 0.59158 0.6244 0.0
Mn217 Mn 0.71782 0.4918 0.59681 0.0
C218 C 0.76018 0.5201 0.63906 0.0
C219 C 0.85338 0.65381 0.63463 0.0
C220 C 0.67295 0.54097 0.61839 0.0
O221 O 0.78779 0.61591 0.59454 0.0
O222 O 0.74309 0.54727 0.57815 0.0
C223 C 0.79787 0.49823 0.57313 0.0
N224 N 0.76082 0.47409 0.58618 0.0
C225 C 0.77553 0.40989 0.58794 0.0
C226 C 0.81365 0.43397 0.57443 0.0
C227 C 0.82492 0.47838 0.56704 0.0
C228 C 0.74995 0.43151 0.59352 0.0
H229 H 0.80678 0.53241 0.56742 0.0
C230 C 0.76914 0.59177 0.57812 0.0
O231 O 0.81567 0.65655 0.63653 0.0
O232 O 0.84855 0.61601 0.62634 0.0
N233 N 0.69154 0.43477 0.61241 0.0
C234 C 0.65341 0.41584 0.62513 0.0
C235 C 0.63705 0.3712 0.63362 0.0
C236 C 0.65965 0.3461 0.62869 0.0
C237 C 0.69846 0.36593 0.61533 0.0
C238 C 0.71285 0.4104 0.60718 0.0
H239 H 0.63553 0.43459 0.6287 0.0
O240 O 0.77056 0.55581 0.65087 0.0
O241 O 0.76205 0.5272 0.61902 0.0
O242 O 0.7108 0.5764 0.62498 0.0
O243 O 0.67172 0.50734 0.60802 0.0
C244 C 0.7234 0.34331 0.60977 0.0
C245 C 0.76208 0.36539 0.59618 0.0
H246 H 0.8346 0.41877 0.56968 0.0
H247 H 0.85439 0.49726 0.55666 0.0
H248 H 0.60691 0.35605 0.64383 0.0
H249 H 0.6466 0.31149 0.63511 0.0
H250 H 0.71328 0.30904 0.61594 0.0
H251 H 0.78119 0.34781 0.59213 0.0
Mn252 Mn 0.19976 0.7769 0.95194 0.0
Mn253 Mn 0.23838 0.71736 0.92312 0.0
C254 C 0.24749 0.75248 0.96681 0.0
C255 C 0.21393 0.85071 0.96337 0.0
C256 C 0.14071 0.67231 0.94146 0.0
O257 O 0.18683 0.78887 0.92199 0.0
O258 O 0.21689 0.75073 0.90443 0.0
C259 C 0.32147 0.79851 0.90473 0.0
N260 N 0.30243 0.75838 0.91614 0.0
C261 C 0.3778 0.76565 0.92151 0.0
C262 C 0.39819 0.80688 0.90969 0.0
C263 C 0.3699 0.82342 0.9013 0.0
C264 C 0.32934 0.74227 0.92436 0.0
H265 H 0.29988 0.81144 0.89833 0.0
C266 C 0.19744 0.77583 0.90508 0.0
O267 O 0.17218 0.81434 0.96425 0.0
O268 O 0.24596 0.8441 0.95534 0.0
N269 N 0.26062 0.68354 0.93914 0.0
C270 C 0.23564 0.64388 0.95062 0.0
C271 C 0.25885 0.62312 0.96032 0.0
C272 C 0.30736 0.64308 0.95796 0.0
C273 C 0.33221 0.68349 0.94582 0.0
C274 C 0.30714 0.70239 0.93638 0.0
H275 H 0.19834 0.62832 0.95245 0.0
O276 O 0.22229 0.76319 0.97854 0.0
O277 O 0.24463 0.7572 0.94681 0.0
O278 O 0.14455 0.70831 0.95097 0.0
O279 O 0.1731 0.67297 0.9303 0.0
C280 C 0.38093 0.70604 0.94289 0.0
C281 C 0.40373 0.74718 0.93081 0.0
H282 H 0.43555 0.82629 0.90708 0.0
H283 H 0.38541 0.85534 0.89225 0.0
H284 H 0.23942 0.59189 0.96963 0.0
H285 H 0.32517 0.62714 0.9656 0.0
H286 H 0.40127 0.69228 0.95001 0.0
H287 H 0.44126 0.76449 0.92888 0.0
Mn288 Mn 0.42694 0.19407 0.28741 0.0
Mn289 Mn 0.52515 0.23375 0.25849 0.0
C290 C 0.49904 0.24295 0.30211 0.0
C291 C 0.36663 0.20725 0.29885 0.0
C292 C 0.47379 0.13615 0.277 0.0
O293 O 0.40186 0.18057 0.2575 0.0
O294 O 0.47006 0.21132 0.23987 0.0
C295 C 0.5256 0.31593 0.23991 0.0
N296 N 0.54723 0.29753 0.25137 0.0
C297 C 0.61468 0.37344 0.25658 0.0
C298 C 0.59326 0.39317 0.24471 0.0
C299 C 0.54849 0.36429 0.23638 0.0
C300 C 0.59021 0.32503 0.25955 0.0
H301 H 0.49112 0.29387 0.23355 0.0
C302 C 0.42547 0.19133 0.24057 0.0
O303 O 0.36192 0.1658 0.29981 0.0
O304 O 0.40502 0.23956 0.29074 0.0
N305 N 0.58139 0.25691 0.27446 0.0
C306 C 0.59674 0.23251 0.28595 0.0
C307 C 0.6408 0.25634 0.29554 0.0
C308 C 0.66877 0.30487 0.29308 0.0
C309 C 0.65252 0.32913 0.28095 0.0
C310 C 0.60848 0.30346 0.27161 0.0
H311 H 0.57547 0.19518 0.28785 0.0
O312 O 0.46339 0.2174 0.31393 0.0
O313 O 0.49123 0.2396 0.28213 0.0
O314 O 0.44131 0.13951 0.28648 0.0
O315 O 0.50524 0.16877 0.26582 0.0
C316 C 0.67808 0.37782 0.2779 0.0
C317 C 0.6591 0.39998 0.2658 0.0
H318 H 0.61074 0.43047 0.242 0.0
H319 H 0.53164 0.37928 0.22728 0.0
H320 H 0.65313 0.23735 0.30485 0.0
H321 H 0.7026 0.32314 0.30062 0.0
H322 H 0.7122 0.39862 0.28494 0.0
H323 H 0.67887 0.4375 0.26377 0.0
Mn324 Mn 0.23484 0.4194 0.62135 0.0
Mn325 Mn 0.28914 0.51548 0.59077 0.0
C326 C 0.25493 0.49187 0.63476 0.0
C327 C 0.16366 0.35699 0.63347 0.0
C328 C 0.33951 0.46923 0.61034 0.0
O329 O 0.22388 0.39196 0.59189 0.0
O330 O 0.25722 0.45876 0.57313 0.0
C331 C 0.20514 0.51127 0.57219 0.0
N332 N 0.24563 0.53498 0.58321 0.0
C333 C 0.23549 0.60179 0.58667 0.0
C334 C 0.19382 0.5782 0.57524 0.0
C335 C 0.17853 0.53269 0.56803 0.0
C336 C 0.26049 0.57865 0.59036 0.0
H337 H 0.19323 0.47625 0.56665 0.0
C338 C 0.23469 0.41421 0.57458 0.0
O339 O 0.20221 0.35563 0.63482 0.0
O340 O 0.16648 0.39356 0.62476 0.0
N341 N 0.32139 0.57321 0.60571 0.0
C342 C 0.36177 0.59071 0.61692 0.0
C343 C 0.38162 0.63582 0.62538 0.0
C344 C 0.36009 0.66265 0.62204 0.0
C345 C 0.31886 0.64412 0.61026 0.0
C346 C 0.30089 0.59909 0.60208 0.0
H347 H 0.37867 0.5704 0.61941 0.0
O348 O 0.24658 0.45763 0.6472 0.0
O349 O 0.25045 0.48249 0.61491 0.0
O350 O 0.30478 0.43715 0.62054 0.0
O351 O 0.33631 0.49847 0.5984 0.0
C352 C 0.29471 0.6684 0.60643 0.0
C353 C 0.25293 0.64716 0.59474 0.0
H354 H 0.17316 0.59459 0.57202 0.0
H355 H 0.14631 0.51419 0.55927 0.0
H356 H 0.41348 0.64991 0.63443 0.0
H357 H 0.37555 0.69741 0.62861 0.0
H358 H 0.30774 0.70328 0.61254 0.0
H359 H 0.23439 0.66598 0.59211 0.0
Mn360 Mn 0.82326 0.23267 0.95637 0.0
Mn361 Mn 0.79133 0.2985 0.92798 0.0
C362 C 0.77316 0.25527 0.97025 0.0
C363 C 0.80747 0.15778 0.96686 0.0
C364 C 0.8837 0.3394 0.95073 0.0
O365 O 0.84057 0.22412 0.92681 0.0
O366 O 0.82066 0.27139 0.90986 0.0
C367 C 0.71726 0.22111 0.90328 0.0
N368 N 0.73085 0.25807 0.91644 0.0
C369 C 0.65358 0.24804 0.91652 0.0
C370 C 0.63886 0.21007 0.90287 0.0
C371 C 0.67083 0.19649 0.89627 0.0
C372 C 0.70031 0.27127 0.92297 0.0
H373 H 0.74162 0.21043 0.89817 0.0
C374 C 0.83721 0.2437 0.91024 0.0
O375 O 0.849 0.19398 0.96897 0.0
O376 O 0.77654 0.16514 0.95809 0.0
N377 N 0.76171 0.3266 0.94309 0.0
C378 C 0.78107 0.36316 0.9567 0.0
C379 C 0.75354 0.38057 0.96505 0.0
C380 C 0.70656 0.36071 0.95908 0.0
C381 C 0.68755 0.32364 0.94477 0.0
C382 C 0.71678 0.30789 0.93691 0.0
H383 H 0.81717 0.3788 0.96118 0.0
O384 O 0.79691 0.24352 0.98242 0.0
O385 O 0.77918 0.25336 0.95027 0.0
O386 O 0.87941 0.30082 0.95741 0.0
O387 O 0.85276 0.34225 0.93992 0.0
C388 C 0.64062 0.30131 0.9382 0.0
C389 C 0.6236 0.26342 0.92416 0.0
H390 H 0.60305 0.19093 0.89746 0.0
H391 H 0.65969 0.1671 0.8858 0.0
H392 H 0.76852 0.40928 0.97604 0.0
H393 H 0.68543 0.3742 0.96559 0.0
H394 H 0.61718 0.3127 0.944 0.0
H395 H 0.58731 0.24619 0.91941 0.0
Mn396 Mn 0.59357 0.81699 0.292 0.0
Mn397 Mn 0.49436 0.78105 0.26408 0.0
C398 C 0.52178 0.76468 0.30617 0.0
C399 C 0.65565 0.80583 0.30242 0.0
C400 C 0.5431 0.87376 0.28662 0.0
O401 O 0.61863 0.8347 0.26231 0.0
O402 O 0.55043 0.81249 0.2458 0.0
C403 C 0.50116 0.70917 0.23916 0.0
N404 N 0.47661 0.72126 0.25235 0.0
C405 C 0.41086 0.64309 0.25185 0.0
C406 C 0.43533 0.62989 0.23816 0.0
C407 C 0.48073 0.66305 0.23185 0.0
C408 C 0.43305 0.68952 0.25865 0.0
H409 H 0.53604 0.73448 0.23423 0.0
C410 C 0.59489 0.83049 0.2459 0.0
O411 O 0.65819 0.84615 0.30446 0.0
O412 O 0.61818 0.77304 0.2938 0.0
N413 N 0.43679 0.74926 0.27924 0.0
C414 C 0.41843 0.76713 0.29302 0.0
C415 C 0.37332 0.73843 0.30099 0.0
C416 C 0.34723 0.69176 0.29449 0.0
C417 C 0.36666 0.67412 0.28018 0.0
C418 C 0.41171 0.70452 0.27268 0.0
H419 H 0.43812 0.80292 0.29794 0.0
O420 O 0.5572 0.78978 0.31818 0.0
O421 O 0.52918 0.77063 0.28615 0.0
O422 O 0.57858 0.87116 0.29295 0.0
O423 O 0.50947 0.84173 0.27614 0.0
C424 C 0.34331 0.62746 0.27323 0.0
C425 C 0.36549 0.61189 0.25917 0.0
H426 H 0.41971 0.59435 0.23249 0.0
H427 H 0.49992 0.6531 0.22134 0.0
H428 H 0.35862 0.75231 0.31205 0.0
H429 H 0.31236 0.66984 0.3006 0.0
H430 H 0.30846 0.60312 0.27876 0.0
H431 H 0.3474 0.57579 0.25414 0.0
H432 H 0.16105 0.87616 0.98799 0.0
H433 H 0.29716 0.93053 0.95969 0.0
H434 H 0.18938 0.95082 0.00673 0.0
H435 H 0.32484 1.00353 0.97843 0.0
H436 H 0.36885 0.07875 0.04235 0.0
H437 H 0.32427 1.00498 0.024 0.0
H438 H 0.2422 0.05624 0.99382 0.0
H439 H 0.28766 0.1315 0.01215 0.0
C440 C 0.19651 0.90412 0.98544 0.0
C441 C 0.22689 0.8971 0.97246 0.0
C442 C 0.21264 0.94675 0.99614 0.0
C443 C 0.25934 0.9827 0.99405 0.0
C444 C 0.28875 0.97634 0.98035 0.0
C445 C 0.27275 0.93433 0.96964 0.0
C446 C 0.34086 0.0744 0.0321 0.0
C447 C 0.33222 0.11141 0.02859 0.0
C448 C 0.31527 0.03197 0.02163 0.0
C449 C 0.27994 0.02501 0.00749 0.0
C450 C 0.26911 0.06073 0.00477 0.0
C451 C 0.29516 0.10373 0.01523 0.0
H452 H 0.29038 0.35863 0.37833 0.0
H453 H 0.15815 0.28023 0.34643 0.0
H454 H 0.31993 0.31424 0.36007 0.0
H455 H 0.1883 0.235 0.32817 0.0
H456 H 0.28885 0.15389 0.32371 0.0
H457 H 0.24169 0.18138 0.34236 0.0
H458 H 0.32224 0.3165 0.31351 0.0
H459 H 0.36842 0.28965 0.29486 0.0
C460 C 0.26716 0.33126 0.36773 0.0
C461 C 0.22193 0.32336 0.36373 0.0
C462 C 0.28419 0.30576 0.35732 0.0
C463 C 0.25642 0.27128 0.34275 0.0
C464 C 0.21023 0.2612 0.3395 0.0
C465 C 0.19307 0.28712 0.34991 0.0
C466 C 0.29569 0.18908 0.32101 0.0
C467 C 0.33272 0.21963 0.30791 0.0
C468 C 0.26871 0.20472 0.33166 0.0
C469 C 0.27857 0.25108 0.32936 0.0
C470 C 0.31399 0.28064 0.31555 0.0
C471 C 0.3405 0.26513 0.3049 0.0
H472 H 0.94386 0.26303 0.72019 0.0
H473 H 0.87141 0.1669 0.66983 0.0
H474 H 0.01835 0.28892 0.70246 0.0
H475 H 0.94621 0.19403 0.65167 0.0
H476 H 0.07658 0.32847 0.61871 0.0
H477 H 1.00215 0.28012 0.63653 0.0
H478 H 0.07453 0.25871 0.68764 0.0
H479 H 0.14928 0.3061 0.66939 0.0
C480 C 0.94402 0.24674 0.70551 0.0
C481 C 0.90184 0.21287 0.69641 0.0
C482 C 0.9867 0.26147 0.6954 0.0
C483 C 0.98814 0.24354 0.67568 0.0
C484 C 0.94612 0.20836 0.66689 0.0
C485 C 0.9034 0.19268 0.67731 0.0
C486 C 0.07649 0.31236 0.63348 0.0
C487 C 0.11871 0.32095 0.64264 0.0
C488 C 0.03385 0.28456 0.64365 0.0
C489 C 0.03249 0.26565 0.66348 0.0
C490 C 0.07456 0.27278 0.67234 0.0
C491 C 0.11725 0.29965 0.66186 0.0
H492 H 0.64581 0.93011 0.04412 0.0
H493 H 0.72724 0.87504 0.01619 0.0
H494 H 0.69193 1.00316 0.02548 0.0
H495 H 0.77435 0.94972 0.99755 0.0
H496 H 0.85748 0.13105 0.99262 0.0
H497 H 0.82709 0.05569 0.01095 0.0
H498 H 0.695 1.00415 0.97957 0.0
H499 H 0.72477 0.07803 0.96123 0.0
C500 C 0.67411 0.93377 0.03428 0.0
C501 C 0.68244 0.89634 0.03153 0.0
C502 C 0.70058 0.9758 0.02364 0.0
C503 C 0.73651 0.98197 0.01007 0.0
C504 C 0.74692 0.9458 0.00805 0.0
C505 C 0.71997 0.90315 0.01869 0.0
C506 C 0.82238 0.10319 0.98928 0.0
C507 C 0.79347 0.11081 0.97558 0.0
C508 C 0.80509 0.06015 0.99973 0.0
C509 C 0.7587 0.02431 0.99666 0.0
C510 C 0.73086 0.03122 0.9822 0.0
C511 C 0.74803 0.07371 0.97174 0.0
H512 H 0.71061 0.84326 0.33716 0.0
H513 H 0.67923 0.7433 0.28764 0.0
H514 H 0.758 0.81501 0.35466 0.0
H515 H 0.72771 0.71633 0.30471 0.0
H516 H 0.84521 0.70075 0.33619 0.0
H517 H 0.81685 0.74762 0.31821 0.0
H518 H 0.72583 0.72763 0.3703 0.0
H519 H 0.75275 0.67963 0.38783 0.0
C520 C 0.715 0.81631 0.3297 0.0
C521 C 0.69121 0.79548 0.31103 0.0
C522 C 0.74191 0.80002 0.33975 0.0
C523 C 0.74664 0.76355 0.33101 0.0
C524 C 0.72511 0.74476 0.31171 0.0
C525 C 0.69724 0.76012 0.30198 0.0
C526 C 0.82004 0.70742 0.34398 0.0
C527 C 0.80126 0.68668 0.36342 0.0
C528 C 0.80364 0.73396 0.33366 0.0
C529 C 0.76921 0.74136 0.34289 0.0
C530 C 0.75267 0.72295 0.36289 0.0
C531 C 0.76803 0.69541 0.3729 0.0
H532 H 0.87202 0.70826 0.66963 0.0
H533 H 0.93889 0.67837 0.61883 0.0
H534 H 0.94845 0.75592 0.6865 0.0
H535 H 0.01507 0.72716 0.63525 0.0
H536 H 0.14894 0.84597 0.66582 0.0
H537 H 0.07258 0.81677 0.6488 0.0
H538 H 1.00552 0.72399 0.70084 0.0
H539 H 0.08161 0.75177 0.71741 0.0
C540 C 0.90313 0.71307 0.66176 0.0
C541 C 0.89952 0.68964 0.64291 0.0
C542 C 0.94678 0.74011 0.67145 0.0
C543 C 0.98771 0.74534 0.66214 0.0
C544 C 0.98425 0.72416 0.64268 0.0
C545 C 0.94062 0.69614 0.63332 0.0
C546 C 0.11774 0.82016 0.67381 0.0
C547 C 0.1212 0.80118 0.69295 0.0
C548 C 0.07414 0.80331 0.66404 0.0
C549 C 0.03311 0.7682 0.67354 0.0
C550 C 0.03642 0.75135 0.69325 0.0
C551 C 0.08 0.76718 0.7027 0.0
H552 H 0.77503 0.30744 0.00339 0.0
H553 H 0.68321 0.2082 0.95758 0.0
H554 H 0.70827 0.30984 0.01893 0.0
H555 H 0.61683 0.21156 0.9728 0.0
H556 H 0.54678 0.30732 0.99988 0.0
H557 H 0.61573 0.30954 0.98415 0.0
H558 H 0.60957 0.21187 0.03047 0.0
H559 H 0.5401 0.20873 0.04588 0.0
C560 C 0.74067 0.28676 0.99654 0.0
C561 C 0.73416 0.25903 0.97889 0.0
C562 C 0.70277 0.28816 0.00536 0.0
C563 C 0.65805 0.26145 0.99674 0.0
C564 C 0.65134 0.23293 0.9794 0.0
C565 C 0.68915 0.23131 0.97067 0.0
C566 C 0.56054 0.2867 0.00671 0.0
C567 C 0.53963 0.25924 0.02448 0.0
C568 C 0.59972 0.288 0.99778 0.0
C569 C 0.61785 0.26141 0.00641 0.0
C570 C 0.5963 0.23312 0.02385 0.0
C571 C 0.55703 0.23162 0.03269 0.0
H572 H 0.33329 0.53135 0.38233 0.0
H573 H 0.24415 0.5378 0.33478 0.0
H574 H 0.40062 0.6006 0.3673 0.0
H575 H 0.3119 0.60595 0.3193 0.0
H576 H 0.47949 0.67466 0.29355 0.0
H577 H 0.40998 0.60798 0.3088 0.0
H578 H 0.40341 0.69868 0.3554 0.0
H579 H 0.4722 0.76573 0.33979 0.0
C580 C 0.32813 0.54821 0.36889 0.0
C581 C 0.28355 0.5309 0.36017 0.0
C582 C 0.3665 0.58731 0.36025 0.0
C583 C 0.36083 0.60859 0.34243 0.0
C584 C 0.31661 0.59034 0.33325 0.0
C585 C 0.27812 0.55155 0.34205 0.0
C586 C 0.46247 0.68035 0.30678 0.0
C587 C 0.47964 0.72526 0.31506 0.0
C588 C 0.42319 0.64237 0.31554 0.0
C589 C 0.40149 0.64879 0.33301 0.0
C590 C 0.41955 0.69337 0.34177 0.0
C591 C 0.45864 0.73145 0.33289 0.0
H592 H 0.82166 0.33952 0.71211 0.0
H593 H 0.7042 0.24368 0.67451 0.0
H594 H 0.81859 0.40556 0.69622 0.0
H595 H 0.70087 0.30974 0.65883 0.0
H596 H 0.81481 0.48384 0.62912 0.0
H597 H 0.81463 0.41642 0.64528 0.0
H598 H 0.70242 0.39704 0.68602 0.0
H599 H 0.70322 0.4652 0.67017 0.0
C600 C 0.7948 0.33276 0.70069 0.0
C601 C 0.76216 0.28687 0.69492 0.0
C602 C 0.79325 0.3703 0.69158 0.0
C603 C 0.75915 0.36224 0.67658 0.0
C604 C 0.727 0.31643 0.67056 0.0
C605 C 0.72892 0.2789 0.67947 0.0
C606 C 0.78988 0.46479 0.64141 0.0
C607 C 0.75813 0.47847 0.64812 0.0
C608 C 0.78998 0.42664 0.65065 0.0
C609 C 0.75833 0.40185 0.6667 0.0
C610 C 0.72689 0.41577 0.67358 0.0
C611 C 0.72732 0.45445 0.66456 0.0
H612 H 0.24002 0.68965 0.99617 0.0
H613 H 0.33952 0.80731 0.95966 0.0
H614 H 0.30465 0.68567 0.0133 0.0
H615 H 0.40388 0.80401 0.97709 0.0
H616 H 0.46126 0.68946 0.00755 0.0
H617 H 0.39276 0.6856 0.99035 0.0
H618 H 0.41205 0.80404 0.02647 0.0
H619 H 0.47958 0.80721 0.04398 0.0
C620 C 0.2757 0.71425 0.99176 0.0
C621 C 0.28523 0.74783 0.97625 0.0
C622 C 0.31236 0.712 1.00149 0.0
C623 C 0.3587 0.74436 0.99627 0.0
C624 C 0.36819 0.77855 0.98112 0.0
C625 C 0.33162 0.78027 0.97115 0.0
C626 C 0.45025 0.71412 0.01192 0.0
C627 C 0.4743 0.74768 0.02743 0.0
C628 C 0.4114 0.71194 1.00215 0.0
C629 C 0.39749 0.74435 0.00733 0.0
C630 C 0.42223 0.77855 0.02248 0.0
C631 C 0.46045 0.7802 0.03248 0.0
H632 H 0.53339 0.33443 0.29469 0.0
H633 H 0.55639 0.23812 0.33123 0.0
H634 H 0.60067 0.40033 0.31157 0.0
H635 H 0.62472 0.30425 0.34771 0.0
H636 H 0.6772 0.48214 0.37615 0.0
H637 H 0.61219 0.41399 0.35928 0.0
H638 H 0.71022 0.38903 0.32526 0.0
H639 H 0.77546 0.45827 0.34169 0.0
C640 C 0.55345 0.32757 0.3061 0.0
C641 C 0.54099 0.28164 0.31136 0.0
C642 C 0.59152 0.36502 0.31576 0.0
C643 C 0.61759 0.35688 0.33071 0.0
C644 C 0.60506 0.31098 0.33608 0.0
C645 C 0.56629 0.27344 0.32671 0.0
C646 C 0.68467 0.46173 0.3652 0.0
C647 C 0.73087 0.47417 0.36054 0.0
C648 C 0.64774 0.42315 0.35555 0.0
C649 C 0.65669 0.39656 0.34122 0.0
C650 C 0.70288 0.40912 0.33642 0.0
C651 C 0.73989 0.44839 0.34575 0.0
H652 H 0.31776 0.55089 0.6631 0.0
H653 H 0.1978 0.52625 0.62663 0.0
H654 H 0.32116 0.62067 0.67836 0.0
H655 H 0.20073 0.59552 0.64221 0.0
H656 H 0.31884 0.77243 0.66746 0.0
H657 H 0.31977 0.70471 0.65213 0.0
H658 H 0.2045 0.61252 0.69166 0.0
H659 H 0.20441 0.68013 0.70743 0.0
C660 C 0.29245 0.56076 0.65832 0.0
C661 C 0.25848 0.53455 0.6433 0.0
C662 C 0.2944 0.60043 0.667 0.0
C663 C 0.26147 0.61325 0.66123 0.0
C664 C 0.22663 0.58622 0.64667 0.0
C665 C 0.22515 0.54702 0.63775 0.0
C666 C 0.2941 0.73764 0.67292 0.0
C667 C 0.26243 0.73111 0.68892 0.0
C668 C 0.2946 0.69918 0.66419 0.0
C669 C 0.26231 0.6539 0.67087 0.0
C670 C 0.2298 0.64734 0.68645 0.0
C671 C 0.22992 0.68577 0.69546 0.0
H672 H 0.43579 0.30208 0.12653 0.0
H673 H 0.36154 0.15751 0.1077 0.0
H674 H 0.41631 0.27871 0.16302 0.0
H675 H 0.343 0.13392 0.14442 0.0
H676 H 0.3706 0.22625 0.22784 0.0
H677 H 0.35095 0.23299 0.19142 0.0
H678 H 0.40938 0.14832 0.17142 0.0
H679 H 0.43009 0.1429 0.20756 0.0
C680 C 0.41385 0.26537 0.13018 0.0
C681 C 0.40014 0.23158 0.11437 0.0
C682 C 0.40256 0.25197 0.15104 0.0
C683 C 0.3783 0.20449 0.15653 0.0
C684 C 0.36163 0.17074 0.14057 0.0
C685 C 0.37201 0.18423 0.11959 0.0
C686 C 0.37743 0.20761 0.2157 0.0
C687 C 0.40155 0.18386 0.22036 0.0
C688 C 0.36647 0.21166 0.19491 0.0
C689 C 0.37859 0.19111 0.17864 0.0
C690 C 0.39902 0.16395 0.18365 0.0
C691 C 0.41097 0.1609 0.2043 0.0
H692 H 0.20162 0.34981 0.44204 0.0
H693 H 0.13536 0.42732 0.4619 0.0
H694 H 0.20615 0.32973 0.47857 0.0
H695 H 0.13876 0.40638 0.49819 0.0
H696 H 0.14453 0.36035 0.56245 0.0
H697 H 0.11741 0.3406 0.52616 0.0
H698 H 0.25967 0.39394 0.50582 0.0
H699 H 0.28656 0.41469 0.54187 0.0
C700 C 0.18613 0.36073 0.45411 0.0
C701 C 0.16825 0.3902 0.44923 0.0
C702 C 0.18894 0.34945 0.47498 0.0
C703 C 0.17288 0.36657 0.49118 0.0
C704 C 0.15093 0.39225 0.48602 0.0
C705 C 0.14913 0.4044 0.46527 0.0
C706 C 0.16958 0.36581 0.55028 0.0
C707 C 0.2175 0.38861 0.55482 0.0
C708 C 0.15415 0.35484 0.52956 0.0
C709 C 0.18645 0.36577 0.51321 0.0
C710 C 0.23393 0.38452 0.51811 0.0
C711 C 0.24938 0.39642 0.53871 0.0
H712 H 0.88139 0.30024 0.87724 0.0
H713 H 0.81262 0.15619 0.89685 0.0
H714 H 0.87865 0.27616 0.84097 0.0
H715 H 0.80874 0.13183 0.86031 0.0
H716 H 0.73109 0.13853 0.79647 0.0
H717 H 0.75677 0.1438 0.83267 0.0
H718 H 0.8999 0.23142 0.81319 0.0
H719 H 0.87397 0.22492 0.77673 0.0
C720 C 0.86718 0.26351 0.87382 0.0
C721 C 0.8472 0.23006 0.88977 0.0
C722 C 0.86576 0.2497 0.85308 0.0
C723 C 0.84334 0.20211 0.84784 0.0
C724 C 0.82633 0.16874 0.86397 0.0
C725 C 0.82876 0.18267 0.88484 0.0
C726 C 0.76817 0.15697 0.79984 0.0
C727 C 0.80066 0.18095 0.78393 0.0
C728 C 0.78292 0.16 0.82054 0.0
C729 C 0.83033 0.18813 0.82573 0.0
C730 C 0.8632 0.20937 0.80957 0.0
C731 C 0.84845 0.20543 0.78875 0.0
H732 H 0.58427 0.72194 0.13185 0.0
H733 H 0.64468 0.86488 0.11156 0.0
H734 H 0.6057 0.74802 0.16796 0.0
H735 H 0.66501 0.89123 0.14796 0.0
H736 H 0.5819 0.87575 0.21354 0.0
H737 H 0.60031 0.87198 0.17687 0.0
H738 H 0.67357 0.79984 0.19454 0.0
H739 H 0.65617 0.80485 0.23144 0.0
C740 C 0.60366 0.75905 0.1351 0.0
C741 C 0.6132 0.79148 0.11904 0.0
C742 C 0.61604 0.77402 0.15573 0.0
C743 C 0.63705 0.82166 0.16073 0.0
C744 C 0.64909 0.85435 0.14447 0.0
C745 C 0.63771 0.83936 0.1237 0.0
C746 C 0.60371 0.86097 0.20965 0.0
C747 C 0.61773 0.8407 0.22525 0.0
C748 C 0.61434 0.85888 0.18868 0.0
C749 C 0.6382 0.83544 0.18289 0.0
C750 C 0.65525 0.81822 0.19863 0.0
C751 C 0.64555 0.82133 0.21971 0.0
H752 H 0.71135 0.57665 0.54534 0.0
H753 H 0.85593 0.65496 0.56398 0.0
H754 H 0.73413 0.59637 0.50881 0.0
H755 H 0.87903 0.67381 0.5272 0.0
H756 H 0.78397 0.64271 0.44404 0.0
H757 H 0.77698 0.66159 0.48053 0.0
H758 H 0.8677 0.60966 0.49983 0.0
H759 H 0.87349 0.58978 0.46357 0.0
C760 C 0.7479 0.59949 0.54163 0.0
C761 C 0.78189 0.61439 0.55741 0.0
C762 C 0.76096 0.61091 0.52074 0.0
C763 C 0.80837 0.63651 0.51517 0.0
C764 C 0.84225 0.65414 0.5311 0.0
C765 C 0.82904 0.64361 0.55211 0.0
C766 C 0.80393 0.63728 0.45603 0.0
C767 C 0.8296 0.61526 0.45112 0.0
C768 C 0.7997 0.64776 0.47687 0.0
C769 C 0.82182 0.63711 0.49299 0.0
C770 C 0.85082 0.61887 0.48773 0.0
C771 C 0.85415 0.60747 0.46701 0.0
H772 H 0.23162 0.86576 0.89258 0.0
H773 H 0.15022 0.72309 0.87178 0.0
H774 H 0.23814 0.8927 0.85625 0.0
H775 H 0.15538 0.74976 0.83574 0.0
H776 H 0.1629 0.80742 0.77234 0.0
H777 H 0.13953 0.80156 0.80915 0.0
H778 H 0.28455 0.87456 0.82749 0.0
H779 H 0.30767 0.87917 0.79091 0.0
C780 C 0.2134 0.8404 0.88034 0.0
C781 C 0.19025 0.79245 0.88484 0.0
C782 C 0.21731 0.85573 0.85961 0.0
C783 C 0.19716 0.8233 0.84322 0.0
C784 C 0.17067 0.77556 0.84806 0.0
C785 C 0.16779 0.76026 0.86865 0.0
C786 C 0.18968 0.82391 0.7842 0.0
C787 C 0.23705 0.84378 0.77888 0.0
C788 C 0.17633 0.8203 0.80523 0.0
C789 C 0.21024 0.83753 0.82113 0.0
C790 C 0.25769 0.86145 0.81556 0.0
C791 C 0.27095 0.86403 0.79465 0.0
H792 H 0.56179 0.6352 0.02756 0.0
H793 H 0.50997 0.60163 0.0908 0.0
H794 H 0.53891 0.55322 0.02167 0.0
H795 H 0.48841 0.52076 0.08526 0.0
H796 H 0.41424 0.37126 0.06753 0.0
H797 H 0.43165 0.45245 0.06785 0.0
H798 H 0.55452 0.49219 0.03022 0.0
H799 H 0.53544 0.41098 0.02913 0.0
C800 C 0.54666 0.61059 0.04035 0.0
C801 C 0.5378 0.62494 0.05965 0.0
C802 C 0.53315 0.56349 0.03696 0.0
C803 C 0.51072 0.52986 0.05284 0.0
C804 C 0.50403 0.54503 0.0724 0.0
C805 C 0.51713 0.5917 0.0757 0.0
C806 C 0.4439 0.39719 0.05872 0.0
C807 C 0.47362 0.38496 0.04841 0.0
C808 C 0.45452 0.44391 0.0592 0.0
C809 C 0.49532 0.47937 0.04952 0.0
C810 C 0.52296 0.4662 0.0379 0.0
C811 C 0.51219 0.41958 0.03737 0.0
H812 H 0.93213 0.55792 0.36098 0.0
H813 H 0.90864 0.50229 0.42366 0.0
H814 H 0.99041 0.53381 0.35553 0.0
H815 H 0.96722 0.47959 0.41858 0.0
H816 H 0.04396 0.40625 0.40154 0.0
H817 H 0.9804 0.42403 0.40137 0.0
H818 H 0.06582 0.54794 0.36472 0.0
H819 H 0.12764 0.52844 0.36406 0.0
C820 C 0.94017 0.54155 0.37374 0.0
C821 C 0.91576 0.53213 0.39275 0.0
C822 C 0.97336 0.52739 0.37061 0.0
C823 C 0.98308 0.50376 0.38647 0.0
C824 C 0.95981 0.49619 0.40572 0.0
C825 C 0.92659 0.50991 0.40876 0.0
C826 C 0.04826 0.43625 0.39284 0.0
C827 C 0.09076 0.46609 0.38292 0.0
C828 C 0.01227 0.44709 0.39304 0.0
C829 C 0.01823 0.48823 0.38348 0.0
C830 C 0.05968 0.51608 0.37229 0.0
C831 C 0.0954 0.50508 0.37202 0.0
H832 H 0.60798 0.1091 0.75497 0.0
H833 H 0.64413 0.08083 0.69397 0.0
H834 H 0.52726 0.04952 0.74956 0.0
H835 H 0.56223 0.0213 0.68822 0.0
H836 H 0.42096 0.88333 0.69762 0.0
H837 H 0.50177 0.94607 0.69865 0.0
H838 H 0.45886 0.03337 0.7308 0.0
H839 H 0.37785 0.96894 0.73063 0.0
C840 C 0.59868 0.09002 0.74034 0.0
C841 C 0.63273 0.09981 0.72491 0.0
C842 C 0.55203 0.05612 0.73712 0.0
C843 C 0.53763 0.03099 0.71827 0.0
C844 C 0.5719 0.03981 0.70298 0.0
C845 C 0.61896 0.07376 0.70629 0.0
C846 C 0.42875 0.91597 0.70482 0.0
C847 C 0.39321 0.92095 0.71437 0.0
C848 C 0.47519 0.9523 0.70521 0.0
C849 C 0.48736 0.99474 0.71518 0.0
C850 C 0.4511 1.0008 0.72343 0.0
C851 C 0.40452 0.96424 0.72306 0.0
H852 H 0.64203 0.59979 0.60569 0.0
H853 H 0.59996 0.47276 0.63998 0.0
H854 H 0.56101 0.58319 0.60578 0.0
H855 H 0.51911 0.4546 0.63919 0.0
H856 H 0.37686 0.4471 0.64414 0.0
H857 H 0.4589 0.46966 0.64953 0.0
H858 H 0.49204 0.53026 0.58765 0.0
H859 H 0.41116 0.50897 0.5826 0.0
C860 C 0.61559 0.5688 0.61359 0.0
C861 C 0.62718 0.53727 0.62258 0.0
C862 C 0.56899 0.55875 0.61336 0.0
C863 C 0.53299 0.51684 0.62206 0.0
C864 C 0.54548 0.48708 0.6323 0.0
C865 C 0.59194 0.49724 0.63255 0.0
C866 C 0.40165 0.46466 0.63163 0.0
C867 C 0.38732 0.47618 0.61296 0.0
C868 C 0.44881 0.47789 0.63473 0.0
C869 C 0.48262 0.50268 0.61917 0.0
C870 C 0.46765 0.51263 0.60028 0.0
C871 C 0.4209 0.49977 0.59726 0.0
H872 H 0.08685 0.63476 0.97674 0.0
H873 H 0.10138 0.60343 0.91263 0.0
H874 H 0.0285 0.55242 0.98254 0.0
H875 H 0.0428 0.5222 0.91809 0.0
H876 H 0.97134 0.37244 0.93507 0.0
H877 H 0.034 0.45413 0.93474 0.0
H878 H 0.95147 0.49046 0.97462 0.0
H879 H 0.89041 0.40866 0.97567 0.0
C880 C 0.07663 0.61058 0.96376 0.0
C881 C 0.09863 0.62563 0.94423 0.0
C882 C 0.0435 0.56327 0.96709 0.0
C883 C 0.03159 0.53015 0.95092 0.0
C884 C 0.05207 0.54607 0.93115 0.0
C885 C 0.08519 0.59294 0.9279 0.0
C886 C 0.96758 0.39772 0.94438 0.0
C887 C 0.92611 0.38434 0.95537 0.0
C888 C 1.00299 0.44472 0.94389 0.0
C889 C 0.99741 0.47938 0.95421 0.0
C890 C 0.95719 0.4651 0.96645 0.0
C891 C 0.922 0.41815 0.96699 0.0
H892 H 0.474 0.87804 0.30763 0.0
H893 H 0.60281 0.9638 0.27463 0.0
H894 H 0.45589 0.94073 0.30657 0.0
H895 H 0.58595 0.02801 0.27428 0.0
H896 H 0.5116 0.10208 0.24944 0.0
H897 H 0.53227 0.04219 0.2551 0.0
H898 H 0.47143 0.01686 0.31688 0.0
H899 H 0.44973 0.07684 0.31093 0.0
C900 C 0.49895 0.91075 0.30051 0.0
C901 C 0.53953 0.9158 0.29098 0.0
C902 C 0.48874 0.94698 0.30005 0.0
C903 C 0.51889 0.98931 0.28997 0.0
C904 C 0.56129 0.9955 0.28175 0.0
C905 C 0.57146 0.95908 0.28224 0.0
C906 C 0.50213 0.08345 0.26419 0.0
C907 C 0.47889 0.09427 0.27973 0.0
C908 C 0.51464 0.04946 0.26756 0.0
C909 C 0.50461 0.02524 0.28664 0.0
C910 C 0.47979 0.03478 0.30197 0.0
C911 C 0.46699 0.0689 0.29854 0.0
loop_
_geom_bond_atom_site_label_1
_geom_bond_atom_site_label_2
_geom_bond_distance
_geom_bond_site_symmetry_2
_ccdc_geom_bond_type
Mn0 O5 2.095 . S
Mn0 O15 2.162 . S
Mn0 O16 2.297 . S
Mn0 O24 2.385 . S
Mn0 O25 2.209 . S
Mn0 O26 2.094 . S
Mn1 O6 2.121 . S
Mn1 N8 2.257 . S
Mn1 N17 2.282 . S
Mn1 O25 2.215 . S
Mn1 O27 2.117 . S
C2 O24 1.234 . S
C2 O25 1.283 . S
C3 O15 1.281 . S
C3 O16 1.236 . S
C4 O26 1.240 . S
C4 O27 1.264 . S
O5 Mn0 2.095 . S
O5 C14 1.250 . S
O6 Mn1 2.121 . S
O6 C14 1.258 . S
C7 N8 1.326 . S
C7 C11 1.460 . S
C7 H13 0.929 . S
N8 Mn1 2.257 . S
N8 C7 1.326 . S
N8 C12 1.362 . S
C9 C10 1.258 . S
C9 C12 1.431 . S
C9 C29 1.449 . S
C10 C9 1.258 . S
C10 C11 1.477 . S
C10 H30 0.931 . S
C11 C7 1.460 . S
C11 C10 1.477 . S
C11 H31 0.930 . S
C12 N8 1.362 . S
C12 C9 1.431 . S
C12 C22 1.476 . S
H13 C7 0.929 . S
C14 O5 1.250 . S
C14 O6 1.258 . S
O15 Mn0 2.162 . S
O15 C3 1.281 . S
O16 Mn0 2.297 . S
O16 C3 1.236 . S
N17 Mn1 2.282 . S
N17 C18 1.328 . S
N17 C22 1.318 . S
C18 N17 1.328 . S
C18 C19 1.457 . S
C18 H23 0.929 . S
C19 C18 1.457 . S
C19 C20 1.291 . S
C19 H32 0.931 . S
C20 C19 1.291 . S
C20 C21 1.373 . S
C20 H33 0.929 . S
C21 C20 1.373 . S
C21 C22 1.396 . S
C21 C28 1.403 . S
C22 C12 1.476 . S
C22 N17 1.318 . S
C22 C21 1.396 . S
H23 C18 0.929 . S
O24 Mn0 2.385 . S
O24 C2 1.234 . S
O25 Mn0 2.209 . S
O25 Mn1 2.215 . S
O25 C2 1.283 . S
O26 Mn0 2.094 . S
O26 C4 1.240 . S
O27 Mn1 2.117 . S
O27 C4 1.264 . S
C28 C21 1.403 . S
C28 C29 1.399 . S
C28 H34 0.929 . S
C29 C9 1.449 . S
C29 C28 1.399 . S
C29 H35 0.930 . S
H30 C10 0.931 . S
H31 C11 0.930 . S
H32 C19 0.931 . S
H33 C20 0.929 . S
H34 C28 0.929 . S
H35 C29 0.930 . S
Mn36 O41 2.095 . S
Mn36 O51 2.162 . S
Mn36 O52 2.297 . S
Mn36 O60 2.385 . S
Mn36 O61 2.209 . S
Mn36 O62 2.094 . S
Mn37 O42 2.121 . S
Mn37 N44 2.257 . S
Mn37 N53 2.282 . S
Mn37 O61 2.215 . S
Mn37 O63 2.117 . S
C38 O60 1.234 . S
C38 O61 1.283 . S
C39 O51 1.281 . S
C39 O52 1.236 . S
C40 O62 1.240 . S
C40 O63 1.264 . S
O41 Mn36 2.095 . S
O41 C50 1.250 . S
O42 Mn37 2.121 . S
O42 C50 1.258 . S
C43 N44 1.326 . S
C43 C47 1.460 . S
C43 H49 0.929 . S
N44 Mn37 2.257 . S
N44 C43 1.326 . S
N44 C48 1.362 . S
C45 C46 1.258 . S
C45 C48 1.431 . S
C45 C65 1.449 . S
C46 C45 1.258 . S
C46 C47 1.477 . S
C46 H66 0.931 . S
C47 C43 1.460 . S
C47 C46 1.477 . S
C47 H67 0.930 . S
C48 N44 1.362 . S
C48 C45 1.431 . S
C48 C58 1.476 . S
H49 C43 0.929 . S
C50 O41 1.250 . S
C50 O42 1.258 . S
O51 Mn36 2.162 . S
O51 C39 1.281 . S
O52 Mn36 2.297 . S
O52 C39 1.236 . S
N53 Mn37 2.282 . S
N53 C54 1.328 . S
N53 C58 1.318 . S
C54 N53 1.328 . S
C54 C55 1.457 . S
C54 H59 0.929 . S
C55 C54 1.457 . S
C55 C56 1.291 . S
C55 H68 0.931 . S
C56 C55 1.291 . S
C56 C57 1.373 . S
C56 H69 0.929 . S
C57 C56 1.373 . S
C57 C58 1.396 . S
C57 C64 1.403 . S
C58 C48 1.476 . S
C58 N53 1.318 . S
C58 C57 1.396 . S
H59 C54 0.929 . S
O60 Mn36 2.385 . S
O60 C38 1.234 . S
O61 Mn36 2.209 . S
O61 Mn37 2.215 . S
O61 C38 1.283 . S
O62 Mn36 2.094 . S
O62 C40 1.240 . S
O63 Mn37 2.117 . S
O63 C40 1.264 . S
C64 C57 1.403 . S
C64 C65 1.399 . S
C64 H70 0.929 . S
C65 C45 1.449 . S
C65 C64 1.399 . S
C65 H71 0.930 . S
H66 C46 0.931 . S
H67 C47 0.930 . S
H68 C55 0.931 . S
H69 C56 0.929 . S
H70 C64 0.929 . S
H71 C65 0.930 . S
Mn72 O77 2.095 . S
Mn72 O87 2.162 . S
Mn72 O88 2.297 . S
Mn72 O96 2.385 . S
Mn72 O97 2.209 . S
Mn72 O98 2.094 . S
Mn73 O78 2.121 . S
Mn73 N80 2.257 . S
Mn73 N89 2.282 . S
Mn73 O97 2.215 . S
Mn73 O99 2.117 . S
C74 O96 1.234 . S
C74 O97 1.283 . S
C75 O87 1.281 . S
C75 O88 1.236 . S
C76 O98 1.240 . S
C76 O99 1.264 . S
O77 Mn72 2.095 . S
O77 C86 1.250 . S
O78 Mn73 2.121 . S
O78 C86 1.258 . S
C79 N80 1.326 . S
C79 C83 1.460 . S
C79 H85 0.929 . S
N80 Mn73 2.257 . S
N80 C79 1.326 . S
N80 C84 1.362 . S
C81 C82 1.258 . S
C81 C84 1.431 . S
C81 C101 1.449 . S
C82 C81 1.258 . S
C82 C83 1.477 . S
C82 H102 0.931 . S
C83 C79 1.460 . S
C83 C82 1.477 . S
C83 H103 0.930 . S
C84 N80 1.362 . S
C84 C81 1.431 . S
C84 C94 1.476 . S
H85 C79 0.929 . S
C86 O77 1.250 . S
C86 O78 1.258 . S
O87 Mn72 2.162 . S
O87 C75 1.281 . S
O88 Mn72 2.297 . S
O88 C75 1.236 . S
N89 Mn73 2.282 . S
N89 C90 1.328 . S
N89 C94 1.318 . S
C90 N89 1.328 . S
C90 C91 1.457 . S
C90 H95 0.929 . S
C91 C90 1.457 . S
C91 C92 1.291 . S
C91 H104 0.931 . S
C92 C91 1.291 . S
C92 C93 1.373 . S
C92 H105 0.929 . S
C93 C92 1.373 . S
C93 C94 1.396 . S
C93 C100 1.403 . S
C94 C84 1.476 . S
C94 N89 1.318 . S
C94 C93 1.396 . S
H95 C90 0.929 . S
O96 Mn72 2.385 . S
O96 C74 1.234 . S
O97 Mn72 2.209 . S
O97 Mn73 2.215 . S
O97 C74 1.283 . S
O98 Mn72 2.094 . S
O98 C76 1.240 . S
O99 Mn73 2.117 . S
O99 C76 1.264 . S
C100 C93 1.403 . S
C100 C101 1.399 . S
C100 H106 0.929 . S
C101 C81 1.449 . S
C101 C100 1.399 . S
C101 H107 0.930 . S
H102 C82 0.931 . S
H103 C83 0.930 . S
H104 C91 0.931 . S
H105 C92 0.929 . S
H106 C100 0.929 . S
H107 C101 0.930 . S
Mn108 O113 2.095 . S
Mn108 O123 2.162 . S
Mn108 O124 2.297 . S
Mn108 O132 2.385 . S
Mn108 O133 2.209 . S
Mn108 O134 2.094 . S
Mn109 O114 2.121 . S
Mn109 N116 2.257 . S
Mn109 N125 2.282 . S
Mn109 O133 2.215 . S
Mn109 O135 2.117 . S
C110 O132 1.234 . S
C110 O133 1.283 . S
C111 O123 1.281 . S
C111 O124 1.236 . S
C112 O134 1.240 . S
C112 O135 1.264 . S
O113 Mn108 2.095 . S
O113 C122 1.250 . S
O114 Mn109 2.121 . S
O114 C122 1.258 . S
C115 N116 1.326 . S
C115 C119 1.460 . S
C115 H121 0.929 . S
N116 Mn109 2.257 . S
N116 C115 1.326 . S
N116 C120 1.362 . S
C117 C118 1.258 . S
C117 C120 1.431 . S
C117 C137 1.449 . S
C118 C117 1.258 . S
C118 C119 1.477 . S
C118 H138 0.931 . S
C119 C115 1.460 . S
C119 C118 1.477 . S
C119 H139 0.930 . S
C120 N116 1.362 . S
C120 C117 1.431 . S
C120 C130 1.476 . S
H121 C115 0.929 . S
C122 O113 1.250 . S
C122 O114 1.258 . S
O123 Mn108 2.162 . S
O123 C111 1.281 . S
O124 Mn108 2.297 . S
O124 C111 1.236 . S
N125 Mn109 2.282 . S
N125 C126 1.328 . S
N125 C130 1.318 . S
C126 N125 1.328 . S
C126 C127 1.457 . S
C126 H131 0.929 . S
C127 C126 1.457 . S
C127 C128 1.291 . S
C127 H140 0.931 . S
C128 C127 1.291 . S
C128 C129 1.373 . S
C128 H141 0.929 . S
C129 C128 1.373 . S
C129 C130 1.396 . S
C129 C136 1.403 . S
C130 C120 1.476 . S
C130 N125 1.318 . S
C130 C129 1.396 . S
H131 C126 0.929 . S
O132 Mn108 2.385 . S
O132 C110 1.234 . S
O133 Mn108 2.209 . S
O133 Mn109 2.215 . S
O133 C110 1.283 . S
O134 Mn108 2.094 . S
O134 C112 1.240 . S
O135 Mn109 2.117 . S
O135 C112 1.264 . S
C136 C129 1.403 . S
C136 C137 1.399 . S
C136 H142 0.929 . S
C137 C117 1.449 . S
C137 C136 1.399 . S
C137 H143 0.930 . S
H138 C118 0.931 . S
H139 C119 0.930 . S
H140 C127 0.931 . S
H141 C128 0.929 . S
H142 C136 0.929 . S
H143 C137 0.930 . S
Mn144 O149 2.095 . S
Mn144 O159 2.162 . S
Mn144 O160 2.297 . S
Mn144 O168 2.385 . S
Mn144 O169 2.209 . S
Mn144 O170 2.094 . S
Mn145 O150 2.121 . S
Mn145 N152 2.257 . S
Mn145 N161 2.282 . S
Mn145 O169 2.215 . S
Mn145 O171 2.117 . S
C146 O168 1.234 . S
C146 O169 1.283 . S
C147 O159 1.281 . S
C147 O160 1.236 . S
C148 O170 1.240 . S
C148 O171 1.264 . S
O149 Mn144 2.095 . S
O149 C158 1.250 . S
O150 Mn145 2.121 . S
O150 C158 1.258 . S
C151 N152 1.326 . S
C151 C155 1.460 . S
C151 H157 0.929 . S
N152 Mn145 2.257 . S
N152 C151 1.326 . S
N152 C156 1.362 . S
C153 C154 1.258 . S
C153 C156 1.431 . S
C153 C173 1.449 . S
C154 C153 1.258 . S
C154 C155 1.477 . S
C154 H174 0.931 . S
C155 C151 1.460 . S
C155 C154 1.477 . S
C155 H175 0.930 . S
C156 N152 1.362 . S
C156 C153 1.431 . S
C156 C166 1.476 . S
H157 C151 0.929 . S
C158 O149 1.250 . S
C158 O150 1.258 . S
O159 Mn144 2.162 . S
O159 C147 1.281 . S
O160 Mn144 2.297 . S
O160 C147 1.236 . S
N161 Mn145 2.282 . S
N161 C162 1.328 . S
N161 C166 1.318 . S
C162 N161 1.328 . S
C162 C163 1.457 . S
C162 H167 0.929 . S
C163 C162 1.457 . S
C163 C164 1.291 . S
C163 H176 0.931 . S
C164 C163 1.291 . S
C164 C165 1.373 . S
C164 H177 0.929 . S
C165 C164 1.373 . S
C165 C166 1.396 . S
C165 C172 1.403 . S
C166 C156 1.476 . S
C166 N161 1.318 . S
C166 C165 1.396 . S
H167 C162 0.929 . S
O168 Mn144 2.385 . S
O168 C146 1.234 . S
O169 Mn144 2.209 . S
O169 Mn145 2.215 . S
O169 C146 1.283 . S
O170 Mn144 2.094 . S
O170 C148 1.240 . S
O171 Mn145 2.117 . S
O171 C148 1.264 . S
C172 C165 1.403 . S
C172 C173 1.399 . S
C172 H178 0.929 . S
C173 C153 1.449 . S
C173 C172 1.399 . S
C173 H179 0.930 . S
H174 C154 0.931 . S
H175 C155 0.930 . S
H176 C163 0.931 . S
H177 C164 0.929 . S
H178 C172 0.929 . S
H179 C173 0.930 . S
Mn180 O185 2.095 . S
Mn180 O195 2.162 . S
Mn180 O196 2.297 . S
Mn180 O204 2.385 . S
Mn180 O205 2.209 . S
Mn180 O206 2.094 . S
Mn181 O186 2.121 . S
Mn181 N188 2.257 . S
Mn181 N197 2.282 . S
Mn181 O205 2.215 . S
Mn181 O207 2.117 . S
C182 O204 1.234 . S
C182 O205 1.283 . S
C183 O195 1.281 . S
C183 O196 1.236 . S
C184 O206 1.240 . S
C184 O207 1.264 . S
O185 Mn180 2.095 . S
O185 C194 1.250 . S
O186 Mn181 2.121 . S
O186 C194 1.258 . S
C187 N188 1.326 . S
C187 C191 1.460 . S
C187 H193 0.929 . S
N188 Mn181 2.257 . S
N188 C187 1.326 . S
N188 C192 1.362 . S
C189 C190 1.258 . S
C189 C192 1.431 . S
C189 C209 1.449 . S
C190 C189 1.258 . S
C190 C191 1.477 . S
C190 H210 0.931 . S
C191 C187 1.460 . S
C191 C190 1.477 . S
C191 H211 0.930 . S
C192 N188 1.362 . S
C192 C189 1.431 . S
C192 C202 1.476 . S
H193 C187 0.929 . S
C194 O185 1.250 . S
C194 O186 1.258 . S
O195 Mn180 2.162 . S
O195 C183 1.281 . S
O196 Mn180 2.297 . S
O196 C183 1.236 . S
N197 Mn181 2.282 . S
N197 C198 1.328 . S
N197 C202 1.318 . S
C198 N197 1.328 . S
C198 C199 1.457 . S
C198 H203 0.929 . S
C199 C198 1.457 . S
C199 C200 1.291 . S
C199 H212 0.931 . S
C200 C199 1.291 . S
C200 C201 1.373 . S
C200 H213 0.929 . S
C201 C200 1.373 . S
C201 C202 1.396 . S
C201 C208 1.403 . S
C202 C192 1.476 . S
C202 N197 1.318 . S
C202 C201 1.396 . S
H203 C198 0.929 . S
O204 Mn180 2.385 . S
O204 C182 1.234 . S
O205 Mn180 2.209 . S
O205 Mn181 2.215 . S
O205 C182 1.283 . S
O206 Mn180 2.094 . S
O206 C184 1.240 . S
O207 Mn181 2.117 . S
O207 C184 1.264 . S
C208 C201 1.403 . S
C208 C209 1.399 . S
C208 H214 0.929 . S
C209 C189 1.449 . S
C209 C208 1.399 . S
C209 H215 0.930 . S
H210 C190 0.931 . S
H211 C191 0.930 . S
H212 C199 0.931 . S
H213 C200 0.929 . S
H214 C208 0.929 . S
H215 C209 0.930 . S
Mn216 O221 2.095 . S
Mn216 O231 2.162 . S
Mn216 O232 2.297 . S
Mn216 O240 2.385 . S
Mn216 O241 2.209 . S
Mn216 O242 2.094 . S
Mn217 O222 2.121 . S
Mn217 N224 2.257 . S
Mn217 N233 2.282 . S
Mn217 O241 2.215 . S
Mn217 O243 2.117 . S
C218 O240 1.234 . S
C218 O241 1.283 . S
C219 O231 1.281 . S
C219 O232 1.236 . S
C220 O242 1.240 . S
C220 O243 1.264 . S
O221 Mn216 2.095 . S
O221 C230 1.250 . S
O222 Mn217 2.121 . S
O222 C230 1.258 . S
C223 N224 1.326 . S
C223 C227 1.460 . S
C223 H229 0.929 . S
N224 Mn217 2.257 . S
N224 C223 1.326 . S
N224 C228 1.362 . S
C225 C226 1.258 . S
C225 C228 1.431 . S
C225 C245 1.449 . S
C226 C225 1.258 . S
C226 C227 1.477 . S
C226 H246 0.931 . S
C227 C223 1.460 . S
C227 C226 1.477 . S
C227 H247 0.930 . S
C228 N224 1.362 . S
C228 C225 1.431 . S
C228 C238 1.476 . S
H229 C223 0.929 . S
C230 O221 1.250 . S
C230 O222 1.258 . S
O231 Mn216 2.162 . S
O231 C219 1.281 . S
O232 Mn216 2.297 . S
O232 C219 1.236 . S
N233 Mn217 2.282 . S
N233 C234 1.328 . S
N233 C238 1.318 . S
C234 N233 1.328 . S
C234 C235 1.457 . S
C234 H239 0.929 . S
C235 C234 1.457 . S
C235 C236 1.291 . S
C235 H248 0.931 . S
C236 C235 1.291 . S
C236 C237 1.373 . S
C236 H249 0.929 . S
C237 C236 1.373 . S
C237 C238 1.396 . S
C237 C244 1.403 . S
C238 C228 1.476 . S
C238 N233 1.318 . S
C238 C237 1.396 . S
H239 C234 0.929 . S
O240 Mn216 2.385 . S
O240 C218 1.234 . S
O241 Mn216 2.209 . S
O241 Mn217 2.215 . S
O241 C218 1.283 . S
O242 Mn216 2.094 . S
O242 C220 1.240 . S
O243 Mn217 2.117 . S
O243 C220 1.264 . S
C244 C237 1.403 . S
C244 C245 1.399 . S
C244 H250 0.929 . S
C245 C225 1.449 . S
C245 C244 1.399 . S
C245 H251 0.930 . S
H246 C226 0.931 . S
H247 C227 0.930 . S
H248 C235 0.931 . S
H249 C236 0.929 . S
H250 C244 0.929 . S
H251 C245 0.930 . S
Mn252 O257 2.095 . S
Mn252 O267 2.162 . S
Mn252 O268 2.297 . S
Mn252 O276 2.385 . S
Mn252 O277 2.209 . S
Mn252 O278 2.094 . S
Mn253 O258 2.121 . S
Mn253 N260 2.257 . S
Mn253 N269 2.282 . S
Mn253 O277 2.215 . S
Mn253 O279 2.117 . S
C254 O276 1.234 . S
C254 O277 1.283 . S
C255 O267 1.281 . S
C255 O268 1.236 . S
C256 O278 1.240 . S
C256 O279 1.264 . S
O257 Mn252 2.095 . S
O257 C266 1.250 . S
O258 Mn253 2.121 . S
O258 C266 1.258 . S
C259 N260 1.326 . S
C259 C263 1.460 . S
C259 H265 0.929 . S
N260 Mn253 2.257 . S
N260 C259 1.326 . S
N260 C264 1.362 . S
C261 C262 1.258 . S
C261 C264 1.431 . S
C261 C281 1.449 . S
C262 C261 1.258 . S
C262 C263 1.477 . S
C262 H282 0.931 . S
C263 C259 1.460 . S
C263 C262 1.477 . S
C263 H283 0.930 . S
C264 N260 1.362 . S
C264 C261 1.431 . S
C264 C274 1.476 . S
H265 C259 0.929 . S
C266 O257 1.250 . S
C266 O258 1.258 . S
O267 Mn252 2.162 . S
O267 C255 1.281 . S
O268 Mn252 2.297 . S
O268 C255 1.236 . S
N269 Mn253 2.282 . S
N269 C270 1.328 . S
N269 C274 1.318 . S
C270 N269 1.328 . S
C270 C271 1.457 . S
C270 H275 0.929 . S
C271 C270 1.457 . S
C271 C272 1.291 . S
C271 H284 0.931 . S
C272 C271 1.291 . S
C272 C273 1.373 . S
C272 H285 0.929 . S
C273 C272 1.373 . S
C273 C274 1.396 . S
C273 C280 1.403 . S
C274 C264 1.476 . S
C274 N269 1.318 . S
C274 C273 1.396 . S
H275 C270 0.929 . S
O276 Mn252 2.385 . S
O276 C254 1.234 . S
O277 Mn252 2.209 . S
O277 Mn253 2.215 . S
O277 C254 1.283 . S
O278 Mn252 2.094 . S
O278 C256 1.240 . S
O279 Mn253 2.117 . S
O279 C256 1.264 . S
C280 C273 1.403 . S
C280 C281 1.399 . S
C280 H286 0.929 . S
C281 C261 1.449 . S
C281 C280 1.399 . S
C281 H287 0.930 . S
H282 C262 0.931 . S
H283 C263 0.930 . S
H284 C271 0.931 . S
H285 C272 0.929 . S
H286 C280 0.929 . S
H287 C281 0.930 . S
Mn288 O293 2.095 . S
Mn288 O303 2.162 . S
Mn288 O304 2.297 . S
Mn288 O312 2.385 . S
Mn288 O313 2.209 . S
Mn288 O314 2.094 . S
Mn289 O294 2.121 . S
Mn289 N296 2.257 . S
Mn289 N305 2.282 . S
Mn289 O313 2.215 . S
Mn289 O315 2.117 . S
C290 O312 1.234 . S
C290 O313 1.283 . S
C291 O303 1.281 . S
C291 O304 1.236 . S
C292 O314 1.240 . S
C292 O315 1.264 . S
O293 Mn288 2.095 . S
O293 C302 1.250 . S
O294 Mn289 2.121 . S
O294 C302 1.258 . S
C295 N296 1.326 . S
C295 C299 1.460 . S
C295 H301 0.929 . S
N296 Mn289 2.257 . S
N296 C295 1.326 . S
N296 C300 1.362 . S
C297 C298 1.258 . S
C297 C300 1.431 . S
C297 C317 1.449 . S
C298 C297 1.258 . S
C298 C299 1.477 . S
C298 H318 0.931 . S
C299 C295 1.460 . S
C299 C298 1.477 . S
C299 H319 0.930 . S
C300 N296 1.362 . S
C300 C297 1.431 . S
C300 C310 1.476 . S
H301 C295 0.929 . S
C302 O293 1.250 . S
C302 O294 1.258 . S
O303 Mn288 2.162 . S
O303 C291 1.281 . S
O304 Mn288 2.297 . S
O304 C291 1.236 . S
N305 Mn289 2.282 . S
N305 C306 1.328 . S
N305 C310 1.318 . S
C306 N305 1.328 . S
C306 C307 1.457 . S
C306 H311 0.929 . S
C307 C306 1.457 . S
C307 C308 1.291 . S
C307 H320 0.931 . S
C308 C307 1.291 . S
C308 C309 1.373 . S
C308 H321 0.929 . S
C309 C308 1.373 . S
C309 C310 1.396 . S
C309 C316 1.403 . S
C310 C300 1.476 . S
C310 N305 1.318 . S
C310 C309 1.396 . S
H311 C306 0.929 . S
O312 Mn288 2.385 . S
O312 C290 1.234 . S
O313 Mn288 2.209 . S
O313 Mn289 2.215 . S
O313 C290 1.283 . S
O314 Mn288 2.094 . S
O314 C292 1.240 . S
O315 Mn289 2.117 . S
O315 C292 1.264 . S
C316 C309 1.403 . S
C316 C317 1.399 . S
C316 H322 0.929 . S
C317 C297 1.449 . S
C317 C316 1.399 . S
C317 H323 0.930 . S
H318 C298 0.931 . S
H319 C299 0.930 . S
H320 C307 0.931 . S
H321 C308 0.929 . S
H322 C316 0.929 . S
H323 C317 0.930 . S
Mn324 O329 2.095 . S
Mn324 O339 2.162 . S
Mn324 O340 2.297 . S
Mn324 O348 2.385 . S
Mn324 O349 2.209 . S
Mn324 O350 2.094 . S
Mn325 O330 2.121 . S
Mn325 N332 2.257 . S
Mn325 N341 2.282 . S
Mn325 O349 2.215 . S
Mn325 O351 2.117 . S
C326 O348 1.234 . S
C326 O349 1.283 . S
C327 O339 1.281 . S
C327 O340 1.236 . S
C328 O350 1.240 . S
C328 O351 1.264 . S
O329 Mn324 2.095 . S
O329 C338 1.250 . S
O330 Mn325 2.121 . S
O330 C338 1.258 . S
C331 N332 1.326 . S
C331 C335 1.460 . S
C331 H337 0.929 . S
N332 Mn325 2.257 . S
N332 C331 1.326 . S
N332 C336 1.362 . S
C333 C334 1.258 . S
C333 C336 1.431 . S
C333 C353 1.449 . S
C334 C333 1.258 . S
C334 C335 1.477 . S
C334 H354 0.931 . S
C335 C331 1.460 . S
C335 C334 1.477 . S
C335 H355 0.930 . S
C336 N332 1.362 . S
C336 C333 1.431 . S
C336 C346 1.476 . S
H337 C331 0.929 . S
C338 O329 1.250 . S
C338 O330 1.258 . S
O339 Mn324 2.162 . S
O339 C327 1.281 . S
O340 Mn324 2.297 . S
O340 C327 1.236 . S
N341 Mn325 2.282 . S
N341 C342 1.328 . S
N341 C346 1.318 . S
C342 N341 1.328 . S
C342 C343 1.457 . S
C342 H347 0.929 . S
C343 C342 1.457 . S
C343 C344 1.291 . S
C343 H356 0.931 . S
C344 C343 1.291 . S
C344 C345 1.373 . S
C344 H357 0.929 . S
C345 C344 1.373 . S
C345 C346 1.396 . S
C345 C352 1.403 . S
C346 C336 1.476 . S
C346 N341 1.318 . S
C346 C345 1.396 . S
H347 C342 0.929 . S
O348 Mn324 2.385 . S
O348 C326 1.234 . S
O349 Mn324 2.209 . S
O349 Mn325 2.215 . S
O349 C326 1.283 . S
O350 Mn324 2.094 . S
O350 C328 1.240 . S
O351 Mn325 2.117 . S
O351 C328 1.264 . S
C352 C345 1.403 . S
C352 C353 1.399 . S
C352 H358 0.929 . S
C353 C333 1.449 . S
C353 C352 1.399 . S
C353 H359 0.930 . S
H354 C334 0.931 . S
H355 C335 0.930 . S
H356 C343 0.931 . S
H357 C344 0.929 . S
H358 C352 0.929 . S
H359 C353 0.930 . S
Mn360 O365 2.095 . S
Mn360 O375 2.162 . S
Mn360 O376 2.297 . S
Mn360 O384 2.385 . S
Mn360 O385 2.209 . S
Mn360 O386 2.094 . S
Mn361 O366 2.121 . S
Mn361 N368 2.257 . S
Mn361 N377 2.282 . S
Mn361 O385 2.215 . S
Mn361 O387 2.117 . S
C362 O384 1.234 . S
C362 O385 1.283 . S
C363 O375 1.281 . S
C363 O376 1.236 . S
C364 O386 1.240 . S
C364 O387 1.264 . S
O365 Mn360 2.095 . S
O365 C374 1.250 . S
O366 Mn361 2.121 . S
O366 C374 1.258 . S
C367 N368 1.326 . S
C367 C371 1.460 . S
C367 H373 0.929 . S
N368 Mn361 2.257 . S
N368 C367 1.326 . S
N368 C372 1.362 . S
C369 C370 1.258 . S
C369 C372 1.431 . S
C369 C389 1.449 . S
C370 C369 1.258 . S
C370 C371 1.477 . S
C370 H390 0.931 . S
C371 C367 1.460 . S
C371 C370 1.477 . S
C371 H391 0.930 . S
C372 N368 1.362 . S
C372 C369 1.431 . S
C372 C382 1.476 . S
H373 C367 0.929 . S
C374 O365 1.250 . S
C374 O366 1.258 . S
O375 Mn360 2.162 . S
O375 C363 1.281 . S
O376 Mn360 2.297 . S
O376 C363 1.236 . S
N377 Mn361 2.282 . S
N377 C378 1.328 . S
N377 C382 1.318 . S
C378 N377 1.328 . S
C378 C379 1.457 . S
C378 H383 0.929 . S
C379 C378 1.457 . S
C379 C380 1.291 . S
C379 H392 0.931 . S
C380 C379 1.291 . S
C380 C381 1.373 . S
C380 H393 0.929 . S
C381 C380 1.373 . S
C381 C382 1.396 . S
C381 C388 1.403 . S
C382 C372 1.476 . S
C382 N377 1.318 . S
C382 C381 1.396 . S
H383 C378 0.929 . S
O384 Mn360 2.385 . S
O384 C362 1.234 . S
O385 Mn360 2.209 . S
O385 Mn361 2.215 . S
O385 C362 1.283 . S
O386 Mn360 2.094 . S
O386 C364 1.240 . S
O387 Mn361 2.117 . S
O387 C364 1.264 . S
C388 C381 1.403 . S
C388 C389 1.399 . S
C388 H394 0.929 . S
C389 C369 1.449 . S
C389 C388 1.399 . S
C389 H395 0.930 . S
H390 C370 0.931 . S
H391 C371 0.930 . S
H392 C379 0.931 . S
H393 C380 0.929 . S
H394 C388 0.929 . S
H395 C389 0.930 . S
Mn396 O401 2.095 . S
Mn396 O411 2.162 . S
Mn396 O412 2.297 . S
Mn396 O420 2.385 . S
Mn396 O421 2.209 . S
Mn396 O422 2.094 . S
Mn397 O402 2.121 . S
Mn397 N404 2.257 . S
Mn397 N413 2.282 . S
Mn397 O421 2.215 . S
Mn397 O423 2.117 . S
C398 O420 1.234 . S
C398 O421 1.283 . S
C399 O411 1.281 . S
C399 O412 1.236 . S
C400 O422 1.240 . S
C400 O423 1.264 . S
O401 Mn396 2.095 . S
O401 C410 1.250 . S
O402 Mn397 2.121 . S
O402 C410 1.258 . S
C403 N404 1.326 . S
C403 C407 1.460 . S
C403 H409 0.929 . S
N404 Mn397 2.257 . S
N404 C403 1.326 . S
N404 C408 1.362 . S
C405 C406 1.258 . S
C405 C408 1.431 . S
C405 C425 1.449 . S
C406 C405 1.258 . S
C406 C407 1.477 . S
C406 H426 0.931 . S
C407 C403 1.460 . S
C407 C406 1.477 . S
C407 H427 0.930 . S
C408 N404 1.362 . S
C408 C405 1.431 . S
C408 C418 1.476 . S
H409 C403 0.929 . S
C410 O401 1.250 . S
C410 O402 1.258 . S
O411 Mn396 2.162 . S
O411 C399 1.281 . S
O412 Mn396 2.297 . S
O412 C399 1.236 . S
N413 Mn397 2.282 . S
N413 C414 1.328 . S
N413 C418 1.318 . S
C414 N413 1.328 . S
C414 C415 1.457 . S
C414 H419 0.929 . S
C415 C414 1.457 . S
C415 C416 1.291 . S
C415 H428 0.931 . S
C416 C415 1.291 . S
C416 C417 1.373 . S
C416 H429 0.929 . S
C417 C416 1.373 . S
C417 C418 1.396 . S
C417 C424 1.403 . S
C418 C408 1.476 . S
C418 N413 1.318 . S
C418 C417 1.396 . S
H419 C414 0.929 . S
O420 Mn396 2.385 . S
O420 C398 1.234 . S
O421 Mn396 2.209 . S
O421 Mn397 2.215 . S
O421 C398 1.283 . S
O422 Mn396 2.094 . S
O422 C400 1.240 . S
O423 Mn397 2.117 . S
O423 C400 1.264 . S
C424 C417 1.403 . S
C424 C425 1.399 . S
C424 H430 0.929 . S
C425 C405 1.449 . S
C425 C424 1.399 . S
C425 H431 0.930 . S
H426 C406 0.931 . S
H427 C407 0.930 . S
H428 C415 0.931 . S
H429 C416 0.929 . S
H430 C424 0.929 . S
H431 C425 0.930 . S
H432 C440 0.950 . S
H433 C445 0.950 . S
H434 C442 0.926 1_554 S
H435 C444 0.950 . S
H436 C446 0.950 . S
H437 C448 0.926 1_556 S
H438 C450 0.950 . S
H439 C451 0.950 . S
C440 H432 0.950 . S
C440 C441 1.386 . S
C440 C442 1.409 . S
C441 C440 1.386 . S
C441 C445 1.393 . S
C442 H434 0.926 1_556 S
C442 C440 1.409 . S
C442 C443 1.408 . S
C443 C442 1.408 . S
C443 C444 1.398 . S
C443 C449 1.491 1_566 S
C444 H435 0.950 . S
C444 C443 1.398 . S
C444 C445 1.391 . S
C445 H433 0.950 . S
C445 C441 1.393 . S
C445 C444 1.391 . S
C446 H436 0.950 . S
C446 C447 1.386 . S
C446 C448 1.409 . S
C447 C446 1.386 . S
C447 C451 1.393 . S
C448 H437 0.926 1_554 S
C448 C446 1.409 . S
C448 C449 1.408 . S
C449 C443 1.491 1_544 S
C449 C448 1.408 . S
C449 C450 1.398 . S
C450 H438 0.950 . S
C450 C449 1.398 . S
C450 C451 1.391 . S
C451 H439 0.950 . S
C451 C447 1.393 . S
C451 C450 1.391 . S
H452 C460 0.950 . S
H453 C465 0.950 . S
H454 C462 0.950 . S
H455 C464 0.950 . S
H456 C466 0.950 . S
H457 C468 0.950 . S
H458 C470 0.950 . S
H459 C471 0.950 . S
C460 H452 0.950 . S
C460 C461 1.386 . S
C460 C462 1.391 . S
C461 C460 1.386 . S
C461 C465 1.393 . S
C462 H454 0.950 . S
C462 C460 1.391 . S
C462 C463 1.400 . S
C463 C462 1.400 . S
C463 C464 1.398 . S
C463 C469 1.491 . S
C464 H455 0.950 . S
C464 C463 1.398 . S
C464 C465 1.391 . S
C465 H453 0.950 . S
C465 C461 1.393 . S
C465 C464 1.391 . S
C466 H456 0.950 . S
C466 C467 1.386 . S
C466 C468 1.391 . S
C467 C466 1.386 . S
C467 C471 1.393 . S
C468 H457 0.950 . S
C468 C466 1.391 . S
C468 C469 1.400 . S
C469 C463 1.491 . S
C469 C468 1.400 . S
C469 C470 1.398 . S
C470 H458 0.950 . S
C470 C469 1.398 . S
C470 C471 1.391 . S
C471 H459 0.950 . S
C471 C467 1.393 . S
C471 C470 1.391 . S
H472 C480 0.950 . S
H473 C485 0.950 . S
H474 C482 0.950 . S
H475 C484 0.950 . S
H476 C486 0.950 . S
H477 C488 0.950 . S
H478 C490 0.950 . S
H479 C491 0.950 . S
C480 H472 0.950 . S
C480 C481 1.386 . S
C480 C482 1.391 . S
C481 C480 1.386 . S
C481 C485 1.393 . S
C482 H474 0.950 . S
C482 C480 1.391 . S
C482 C483 1.400 . S
C483 C482 1.400 . S
C483 C484 1.398 . S
C483 C489 1.491 1_655 S
C484 H475 0.950 . S
C484 C483 1.398 . S
C484 C485 1.391 . S
C485 H473 0.950 . S
C485 C481 1.393 . S
C485 C484 1.391 . S
C486 H476 0.950 . S
C486 C487 1.386 . S
C486 C488 1.391 . S
C487 C486 1.386 . S
C487 C491 1.393 . S
C488 H477 0.950 . S
C488 C486 1.391 . S
C488 C489 1.400 . S
C489 C483 1.491 1_455 S
C489 C488 1.400 . S
C489 C490 1.398 . S
C490 H478 0.950 . S
C490 C489 1.398 . S
C490 C491 1.391 . S
C491 H479 0.950 . S
C491 C487 1.393 . S
C491 C490 1.391 . S
H492 C500 0.950 . S
H493 C505 0.950 1_556 S
H494 C502 0.950 . S
H495 C504 0.950 . S
H496 C506 0.950 . S
H497 C508 0.950 . S
H498 C510 0.950 . S
H499 C511 0.950 1_554 S
C500 H492 0.950 . S
C500 C501 1.386 . S
C500 C502 1.391 . S
C501 C500 1.386 . S
C501 C505 1.393 . S
C502 H494 0.950 . S
C502 C500 1.391 . S
C502 C503 1.400 . S
C503 C502 1.400 . S
C503 C504 1.398 1_554 S
C503 C509 1.491 1_564 S
C504 H495 0.950 . S
C504 C503 1.398 1_556 S
C504 C505 1.391 1_556 S
C505 H493 0.950 1_554 S
C505 C501 1.393 . S
C505 C504 1.391 1_554 S
C506 H496 0.950 . S
C506 C507 1.386 . S
C506 C508 1.391 . S
C507 C506 1.386 . S
C507 C511 1.393 . S
C508 H497 0.950 . S
C508 C506 1.391 . S
C508 C509 1.400 . S
C509 C503 1.491 1_546 S
C509 C508 1.400 . S
C509 C510 1.398 1_556 S
C510 H498 0.950 . S
C510 C509 1.398 1_554 S
C510 C511 1.391 1_554 S
C511 H499 0.950 1_556 S
C511 C507 1.393 . S
C511 C510 1.391 1_556 S
H512 C520 0.950 . S
H513 C525 0.950 . S
H514 C522 0.950 . S
H515 C524 0.950 . S
H516 C526 0.950 . S
H517 C528 0.950 . S
H518 C530 0.950 . S
H519 C531 0.950 . S
C520 H512 0.950 . S
C520 C521 1.386 . S
C520 C522 1.391 . S
C521 C520 1.386 . S
C521 C525 1.393 . S
C522 H514 0.950 . S
C522 C520 1.391 . S
C522 C523 1.400 . S
C523 C522 1.400 . S
C523 C524 1.398 . S
C523 C529 1.491 . S
C524 H515 0.950 . S
C524 C523 1.398 . S
C524 C525 1.391 . S
C525 H513 0.950 . S
C525 C521 1.393 . S
C525 C524 1.391 . S
C526 H516 0.950 . S
C526 C527 1.386 . S
C526 C528 1.391 . S
C527 C526 1.386 . S
C527 C531 1.393 . S
C528 H517 0.950 . S
C528 C526 1.391 . S
C528 C529 1.400 . S
C529 C523 1.491 . S
C529 C528 1.400 . S
C529 C530 1.398 . S
C530 H518 0.950 . S
C530 C529 1.398 . S
C530 C531 1.391 . S
C531 H519 0.950 . S
C531 C527 1.393 . S
C531 C530 1.391 . S
H532 C540 0.950 . S
H533 C545 0.950 . S
H534 C542 0.950 . S
H535 C544 0.950 . S
H536 C546 0.950 . S
H537 C548 0.950 . S
H538 C550 0.950 . S
H539 C551 0.950 . S
C540 H532 0.950 . S
C540 C541 1.386 . S
C540 C542 1.391 . S
C541 C540 1.386 . S
C541 C545 1.393 . S
C542 H534 0.950 . S
C542 C540 1.391 . S
C542 C543 1.400 . S
C543 C542 1.400 . S
C543 C544 1.398 . S
C543 C549 1.491 1_655 S
C544 H535 0.950 . S
C544 C543 1.398 . S
C544 C545 1.391 . S
C545 H533 0.950 . S
C545 C541 1.393 . S
C545 C544 1.391 . S
C546 H536 0.950 . S
C546 C547 1.386 . S
C546 C548 1.391 . S
C547 C546 1.386 . S
C547 C551 1.393 . S
C548 H537 0.950 . S
C548 C546 1.391 . S
C548 C549 1.400 . S
C549 C543 1.491 1_455 S
C549 C548 1.400 . S
C549 C550 1.398 . S
C550 H538 0.950 . S
C550 C549 1.398 . S
C550 C551 1.391 . S
C551 H539 0.950 . S
C551 C547 1.393 . S
C551 C550 1.391 . S
H552 C560 0.950 . S
H553 C565 0.950 . S
H554 C562 0.985 . S
H555 C564 0.950 . S
H556 C566 0.950 . S
H557 C568 0.985 . S
H558 C570 0.950 . S
H559 C571 0.950 . S
C560 H552 0.950 . S
C560 C561 1.386 . S
C560 C562 1.372 1_556 S
C561 C560 1.386 . S
C561 C565 1.393 . S
C562 H554 0.985 . S
C562 C560 1.372 1_554 S
C562 C563 1.388 1_554 S
C563 C562 1.388 1_556 S
C563 C564 1.398 . S
C563 C569 1.491 1_556 S
C564 H555 0.950 . S
C564 C563 1.398 . S
C564 C565 1.391 . S
C565 H553 0.950 . S
C565 C561 1.393 . S
C565 C564 1.391 . S
C566 H556 0.950 . S
C566 C567 1.386 . S
C566 C568 1.372 1_554 S
C567 C566 1.386 . S
C567 C571 1.393 . S
C568 H557 0.985 . S
C568 C566 1.372 1_556 S
C568 C569 1.388 1_556 S
C569 C563 1.491 1_554 S
C569 C568 1.388 1_554 S
C569 C570 1.398 . S
C570 H558 0.950 . S
C570 C569 1.398 . S
C570 C571 1.391 . S
C571 H559 0.950 . S
C571 C567 1.393 . S
C571 C570 1.391 . S
H572 C580 0.950 . S
H573 C585 0.950 . S
H574 C582 0.950 . S
H575 C584 0.950 . S
H576 C586 0.950 . S
H577 C588 0.950 . S
H578 C590 0.950 . S
H579 C591 0.950 . S
C580 H572 0.950 . S
C580 C581 1.386 . S
C580 C582 1.391 . S
C581 C580 1.386 . S
C581 C585 1.393 . S
C582 H574 0.950 . S
C582 C580 1.391 . S
C582 C583 1.400 . S
C583 C582 1.400 . S
C583 C584 1.398 . S
C583 C589 1.491 . S
C584 H575 0.950 . S
C584 C583 1.398 . S
C584 C585 1.391 . S
C585 H573 0.950 . S
C585 C581 1.393 . S
C585 C584 1.391 . S
C586 H576 0.950 . S
C586 C587 1.386 . S
C586 C588 1.391 . S
C587 C586 1.386 . S
C587 C591 1.393 . S
C588 H577 0.950 . S
C588 C586 1.391 . S
C588 C589 1.400 . S
C589 C583 1.491 . S
C589 C588 1.400 . S
C589 C590 1.398 . S
C590 H578 0.950 . S
C590 C589 1.398 . S
C590 C591 1.391 . S
C591 H579 0.950 . S
C591 C587 1.393 . S
C591 C590 1.391 . S
H592 C600 0.950 . S
H593 C605 0.950 . S
H594 C602 0.950 . S
H595 C604 0.950 . S
H596 C606 0.950 . S
H597 C608 0.950 . S
H598 C610 0.950 . S
H599 C611 0.950 . S
C600 H592 0.950 . S
C600 C601 1.386 . S
C600 C602 1.391 . S
C601 C600 1.386 . S
C601 C605 1.393 . S
C602 H594 0.950 . S
C602 C600 1.391 . S
C602 C603 1.400 . S
C603 C602 1.400 . S
C603 C604 1.398 . S
C603 C609 1.491 . S
C604 H595 0.950 . S
C604 C603 1.398 . S
C604 C605 1.391 . S
C605 H593 0.950 . S
C605 C601 1.393 . S
C605 C604 1.391 . S
C606 H596 0.950 . S
C606 C607 1.386 . S
C606 C608 1.391 . S
C607 C606 1.386 . S
C607 C611 1.393 . S
C608 H597 0.950 . S
C608 C606 1.391 . S
C608 C609 1.400 . S
C609 C603 1.491 . S
C609 C608 1.400 . S
C609 C610 1.398 . S
C610 H598 0.950 . S
C610 C609 1.398 . S
C610 C611 1.391 . S
C611 H599 0.950 . S
C611 C607 1.393 . S
C611 C610 1.391 . S
H612 C620 0.948 . S
H613 C625 0.950 . S
H614 C622 0.950 . S
H615 C624 0.950 . S
H616 C626 0.948 . S
H617 C628 0.950 . S
H618 C630 0.950 . S
H619 C631 0.950 . S
C620 H612 0.948 . S
C620 C621 1.387 1_554 S
C620 C622 1.391 . S
C621 C620 1.387 1_556 S
C621 C625 1.393 . S
C622 H614 0.950 . S
C622 C620 1.391 . S
C622 C623 1.400 1_554 S
C623 C622 1.400 1_556 S
C623 C624 1.398 . S
C623 C629 1.491 1_556 S
C624 H615 0.950 . S
C624 C623 1.398 . S
C624 C625 1.391 . S
C625 H613 0.950 . S
C625 C621 1.393 . S
C625 C624 1.391 . S
C626 H616 0.948 . S
C626 C627 1.388 1_556 S
C626 C628 1.391 . S
C627 C626 1.388 1_554 S
C627 C631 1.393 . S
C628 H617 0.950 . S
C628 C626 1.391 . S
C628 C629 1.400 1_556 S
C629 C623 1.491 1_554 S
C629 C628 1.400 1_554 S
C629 C630 1.398 . S
C630 H618 0.950 . S
C630 C629 1.398 . S
C630 C631 1.391 . S
C631 H619 0.950 . S
C631 C627 1.393 . S
C631 C630 1.391 . S
H632 C640 0.950 . S
H633 C645 0.950 . S
H634 C642 0.950 . S
H635 C644 0.950 . S
H636 C646 0.950 . S
H637 C648 0.950 . S
H638 C650 0.950 . S
H639 C651 0.950 . S
C640 H632 0.950 . S
C640 C641 1.386 . S
C640 C642 1.391 . S
C641 C640 1.386 . S
C641 C645 1.393 . S
C642 H634 0.950 . S
C642 C640 1.391 . S
C642 C643 1.400 . S
C643 C642 1.400 . S
C643 C644 1.398 . S
C643 C649 1.491 . S
C644 H635 0.950 . S
C644 C643 1.398 . S
C644 C645 1.391 . S
C645 H633 0.950 . S
C645 C641 1.393 . S
C645 C644 1.391 . S
C646 H636 0.950 . S
C646 C647 1.386 . S
C646 C648 1.391 . S
C647 C646 1.386 . S
C647 C651 1.393 . S
C648 H637 0.950 . S
C648 C646 1.391 . S
C648 C649 1.400 . S
C649 C643 1.491 . S
C649 C648 1.400 . S
C649 C650 1.398 . S
C650 H638 0.950 . S
C650 C649 1.398 . S
C650 C651 1.391 . S
C651 H639 0.950 . S
C651 C647 1.393 . S
C651 C650 1.391 . S
H652 C660 0.950 . S
H653 C665 0.950 . S
H654 C662 0.950 . S
H655 C664 0.950 . S
H656 C666 0.950 . S
H657 C668 0.950 . S
H658 C670 0.950 . S
H659 C671 0.950 . S
C660 H652 0.950 . S
C660 C661 1.386 . S
C660 C662 1.391 . S
C661 C660 1.386 . S
C661 C665 1.393 . S
C662 H654 0.950 . S
C662 C660 1.391 . S
C662 C663 1.400 . S
C663 C662 1.400 . S
C663 C664 1.398 . S
C663 C669 1.491 . S
C664 H655 0.950 . S
C664 C663 1.398 . S
C664 C665 1.391 . S
C665 H653 0.950 . S
C665 C661 1.393 . S
C665 C664 1.391 . S
C666 H656 0.950 . S
C666 C667 1.386 . S
C666 C668 1.391 . S
C667 C666 1.386 . S
C667 C671 1.393 . S
C668 H657 0.950 . S
C668 C666 1.391 . S
C668 C669 1.400 . S
C669 C663 1.491 . S
C669 C668 1.400 . S
C669 C670 1.398 . S
C670 H658 0.950 . S
C670 C669 1.398 . S
C670 C671 1.391 . S
C671 H659 0.950 . S
C671 C667 1.393 . S
C671 C670 1.391 . S
H672 C680 0.950 . S
H673 C685 0.950 . S
H674 C682 0.950 . S
H675 C684 0.950 . S
H676 C686 0.950 . S
H677 C688 0.950 . S
H678 C690 0.950 . S
H679 C691 0.950 . S
C680 H672 0.950 . S
C680 C681 1.386 . S
C680 C682 1.391 . S
C681 C680 1.386 . S
C681 C685 1.393 . S
C682 H674 0.950 . S
C682 C680 1.391 . S
C682 C683 1.400 . S
C683 C682 1.400 . S
C683 C684 1.398 . S
C683 C689 1.491 . S
C684 H675 0.950 . S
C684 C683 1.398 . S
C684 C685 1.391 . S
C685 H673 0.950 . S
C685 C681 1.393 . S
C685 C684 1.391 . S
C686 H676 0.950 . S
C686 C687 1.386 . S
C686 C688 1.391 . S
C687 C686 1.386 . S
C687 C691 1.393 . S
C688 H677 0.950 . S
C688 C686 1.391 . S
C688 C689 1.400 . S
C689 C683 1.491 . S
C689 C688 1.400 . S
C689 C690 1.398 . S
C690 H678 0.950 . S
C690 C689 1.398 . S
C690 C691 1.391 . S
C691 H679 0.950 . S
C691 C687 1.393 . S
C691 C690 1.391 . S
H692 C700 0.950 . S
H693 C705 0.950 . S
H694 C702 0.950 . S
H695 C704 0.950 . S
H696 C706 0.950 . S
H697 C708 0.950 . S
H698 C710 0.950 . S
H699 C711 0.950 . S
C700 H692 0.950 . S
C700 C701 1.386 . S
C700 C702 1.391 . S
C701 C700 1.386 . S
C701 C705 1.393 . S
C702 H694 0.950 . S
C702 C700 1.391 . S
C702 C703 1.400 . S
C703 C702 1.400 . S
C703 C704 1.398 . S
C703 C709 1.491 . S
C704 H695 0.950 . S
C704 C703 1.398 . S
C704 C705 1.391 . S
C705 H693 0.950 . S
C705 C701 1.393 . S
C705 C704 1.391 . S
C706 H696 0.950 . S
C706 C707 1.386 . S
C706 C708 1.391 . S
C707 C706 1.386 . S
C707 C711 1.393 . S
C708 H697 0.950 . S
C708 C706 1.391 . S
C708 C709 1.400 . S
C709 C703 1.491 . S
C709 C708 1.400 . S
C709 C710 1.398 . S
C710 H698 0.950 . S
C710 C709 1.398 . S
C710 C711 1.391 . S
C711 H699 0.950 . S
C711 C707 1.393 . S
C711 C710 1.391 . S
H712 C720 0.950 . S
H713 C725 0.950 . S
H714 C722 0.950 . S
H715 C724 0.950 . S
H716 C726 0.950 . S
H717 C728 0.950 . S
H718 C730 0.950 . S
H719 C731 0.950 . S
C720 H712 0.950 . S
C720 C721 1.386 . S
C720 C722 1.391 . S
C721 C720 1.386 . S
C721 C725 1.393 . S
C722 H714 0.950 . S
C722 C720 1.391 . S
C722 C723 1.400 . S
C723 C722 1.400 . S
C723 C724 1.398 . S
C723 C729 1.491 . S
C724 H715 0.950 . S
C724 C723 1.398 . S
C724 C725 1.391 . S
C725 H713 0.950 . S
C725 C721 1.393 . S
C725 C724 1.391 . S
C726 H716 0.950 . S
C726 C727 1.386 . S
C726 C728 1.391 . S
C727 C726 1.386 . S
C727 C731 1.393 . S
C728 H717 0.950 . S
C728 C726 1.391 . S
C728 C729 1.400 . S
C729 C723 1.491 . S
C729 C728 1.400 . S
C729 C730 1.398 . S
C730 H718 0.950 . S
C730 C729 1.398 . S
C730 C731 1.391 . S
C731 H719 0.950 . S
C731 C727 1.393 . S
C731 C730 1.391 . S
H732 C740 0.950 . S
H733 C745 0.950 . S
H734 C742 0.950 . S
H735 C744 0.950 . S
H736 C746 0.950 . S
H737 C748 0.950 . S
H738 C750 0.950 . S
H739 C751 0.950 . S
C740 H732 0.950 . S
C740 C741 1.386 . S
C740 C742 1.391 . S
C741 C740 1.386 . S
C741 C745 1.393 . S
C742 H734 0.950 . S
C742 C740 1.391 . S
C742 C743 1.400 . S
C743 C742 1.400 . S
C743 C744 1.398 . S
C743 C749 1.491 . S
C744 H735 0.950 . S
C744 C743 1.398 . S
C744 C745 1.391 . S
C745 H733 0.950 . S
C745 C741 1.393 . S
C745 C744 1.391 . S
C746 H736 0.950 . S
C746 C747 1.386 . S
C746 C748 1.391 . S
C747 C746 1.386 . S
C747 C751 1.393 . S
C748 H737 0.950 . S
C748 C746 1.391 . S
C748 C749 1.400 . S
C749 C743 1.491 . S
C749 C748 1.400 . S
C749 C750 1.398 . S
C750 H738 0.950 . S
C750 C749 1.398 . S
C750 C751 1.391 . S
C751 H739 0.950 . S
C751 C747 1.393 . S
C751 C750 1.391 . S
H752 C760 0.950 . S
H753 C765 0.950 . S
H754 C762 0.950 . S
H755 C764 0.950 . S
H756 C766 0.950 . S
H757 C768 0.950 . S
H758 C770 0.950 . S
H759 C771 0.950 . S
C760 H752 0.950 . S
C760 C761 1.386 . S
C760 C762 1.391 . S
C761 C760 1.386 . S
C761 C765 1.393 . S
C762 H754 0.950 . S
C762 C760 1.391 . S
C762 C763 1.400 . S
C763 C762 1.400 . S
C763 C764 1.398 . S
C763 C769 1.491 . S
C764 H755 0.950 . S
C764 C763 1.398 . S
C764 C765 1.391 . S
C765 H753 0.950 . S
C765 C761 1.393 . S
C765 C764 1.391 . S
C766 H756 0.950 . S
C766 C767 1.386 . S
C766 C768 1.391 . S
C767 C766 1.386 . S
C767 C771 1.393 . S
C768 H757 0.950 . S
C768 C766 1.391 . S
C768 C769 1.400 . S
C769 C763 1.491 . S
C769 C768 1.400 . S
C769 C770 1.398 . S
C770 H758 0.950 . S
C770 C769 1.398 . S
C770 C771 1.391 . S
C771 H759 0.950 . S
C771 C767 1.393 . S
C771 C770 1.391 . S
H772 C780 0.950 . S
H773 C785 0.950 . S
H774 C782 0.950 . S
H775 C784 0.950 . S
H776 C786 0.950 . S
H777 C788 0.950 . S
H778 C790 0.950 . S
H779 C791 0.950 . S
C780 H772 0.950 . S
C780 C781 1.386 . S
C780 C782 1.391 . S
C781 C780 1.386 . S
C781 C785 1.393 . S
C782 H774 0.950 . S
C782 C780 1.391 . S
C782 C783 1.400 . S
C783 C782 1.400 . S
C783 C784 1.398 . S
C783 C789 1.491 . S
C784 H775 0.950 . S
C784 C783 1.398 . S
C784 C785 1.391 . S
C785 H773 0.950 . S
C785 C781 1.393 . S
C785 C784 1.391 . S
C786 H776 0.950 . S
C786 C787 1.386 . S
C786 C788 1.391 . S
C787 C786 1.386 . S
C787 C791 1.393 . S
C788 H777 0.950 . S
C788 C786 1.391 . S
C788 C789 1.400 . S
C789 C783 1.491 . S
C789 C788 1.400 . S
C789 C790 1.398 . S
C790 H778 0.950 . S
C790 C789 1.398 . S
C790 C791 1.391 . S
C791 H779 0.950 . S
C791 C787 1.393 . S
C791 C790 1.391 . S
H792 C800 0.950 . S
H793 C805 0.950 . S
H794 C802 0.950 . S
H795 C804 0.950 . S
H796 C806 0.950 . S
H797 C808 0.950 . S
H798 C810 0.950 . S
H799 C811 0.950 . S
C800 H792 0.950 . S
C800 C801 1.386 . S
C800 C802 1.391 . S
C801 C800 1.386 . S
C801 C805 1.393 . S
C802 H794 0.950 . S
C802 C800 1.391 . S
C802 C803 1.400 . S
C803 C802 1.400 . S
C803 C804 1.398 . S
C803 C809 1.491 . S
C804 H795 0.950 . S
C804 C803 1.398 . S
C804 C805 1.391 . S
C805 H793 0.950 . S
C805 C801 1.393 . S
C805 C804 1.391 . S
C806 H796 0.950 . S
C806 C807 1.386 . S
C806 C808 1.391 . S
C807 C806 1.386 . S
C807 C811 1.393 . S
C808 H797 0.950 . S
C808 C806 1.391 . S
C808 C809 1.400 . S
C809 C803 1.491 . S
C809 C808 1.400 . S
C809 C810 1.398 . S
C810 H798 0.950 . S
C810 C809 1.398 . S
C810 C811 1.391 . S
C811 H799 0.950 . S
C811 C807 1.393 . S
C811 C810 1.391 . S
H812 C820 0.950 . S
H813 C825 0.950 . S
H814 C822 0.950 . S
H815 C824 0.950 1_455 S
H816 C826 0.950 . S
H817 C828 0.950 . S
H818 C830 0.950 1_655 S
H819 C831 0.950 . S
C820 H812 0.950 . S
C820 C821 1.386 . S
C820 C822 1.391 . S
C821 C820 1.386 . S
C821 C825 1.393 . S
C822 H814 0.950 . S
C822 C820 1.391 . S
C822 C823 1.400 . S
C823 C822 1.400 . S
C823 C824 1.398 . S
C823 C829 1.491 1_655 S
C824 H815 0.950 1_655 S
C824 C823 1.398 . S
C824 C825 1.391 . S
C825 H813 0.950 . S
C825 C821 1.393 . S
C825 C824 1.391 . S
C826 H816 0.950 . S
C826 C827 1.386 . S
C826 C828 1.391 . S
C827 C826 1.386 . S
C827 C831 1.393 . S
C828 H817 0.950 . S
C828 C826 1.391 . S
C828 C829 1.400 . S
C829 C823 1.491 1_455 S
C829 C828 1.400 . S
C829 C830 1.398 . S
C830 H818 0.950 1_455 S
C830 C829 1.398 . S
C830 C831 1.391 . S
C831 H819 0.950 . S
C831 C827 1.393 . S
C831 C830 1.391 . S
H832 C840 0.950 . S
H833 C845 0.950 . S
H834 C842 0.950 . S
H835 C844 0.950 1_565 S
H836 C846 0.950 . S
H837 C848 0.950 . S
H838 C850 0.950 1_545 S
H839 C851 0.950 . S
C840 H832 0.950 . S
C840 C841 1.386 . S
C840 C842 1.391 . S
C841 C840 1.386 . S
C841 C845 1.393 . S
C842 H834 0.950 . S
C842 C840 1.391 . S
C842 C843 1.400 . S
C843 C842 1.400 . S
C843 C844 1.398 . S
C843 C849 1.491 1_545 S
C844 H835 0.950 1_545 S
C844 C843 1.398 . S
C844 C845 1.391 . S
C845 H833 0.950 . S
C845 C841 1.393 . S
C845 C844 1.391 . S
C846 H836 0.950 . S
C846 C847 1.386 . S
C846 C848 1.391 . S
C847 C846 1.386 . S
C847 C851 1.393 . S
C848 H837 0.950 . S
C848 C846 1.391 . S
C848 C849 1.400 . S
C849 C843 1.491 1_565 S
C849 C848 1.400 . S
C849 C850 1.398 . S
C850 H838 0.950 1_565 S
C850 C849 1.398 . S
C850 C851 1.391 . S
C851 H839 0.950 . S
C851 C847 1.393 . S
C851 C850 1.391 . S
H852 C860 0.950 . S
H853 C865 0.950 . S
H854 C862 0.950 . S
H855 C864 0.950 . S
H856 C866 0.950 . S
H857 C868 0.950 . S
H858 C870 0.950 . S
H859 C871 0.950 . S
C860 H852 0.950 . S
C860 C861 1.386 . S
C860 C862 1.391 . S
C861 C860 1.386 . S
C861 C865 1.393 . S
C862 H854 0.950 . S
C862 C860 1.391 . S
C862 C863 1.400 . S
C863 C862 1.400 . S
C863 C864 1.398 . S
C863 C869 1.491 . S
C864 H855 0.950 . S
C864 C863 1.398 . S
C864 C865 1.391 . S
C865 H853 0.950 . S
C865 C861 1.393 . S
C865 C864 1.391 . S
C866 H856 0.950 . S
C866 C867 1.386 . S
C866 C868 1.391 . S
C867 C866 1.386 . S
C867 C871 1.393 . S
C868 H857 0.950 . S
C868 C866 1.391 . S
C868 C869 1.400 . S
C869 C863 1.491 . S
C869 C868 1.400 . S
C869 C870 1.398 . S
C870 H858 0.950 . S
C870 C869 1.398 . S
C870 C871 1.391 . S
C871 H859 0.950 . S
C871 C867 1.393 . S
C871 C870 1.391 . S
H872 C880 0.950 . S
H873 C885 0.950 . S
H874 C882 0.950 1_655 S
H875 C884 0.950 . S
H876 C886 0.950 . S
H877 C888 0.950 1_455 S
H878 C890 0.950 . S
H879 C891 0.950 . S
C880 H872 0.950 . S
C880 C881 1.386 . S
C880 C882 1.391 . S
C881 C880 1.386 . S
C881 C885 1.393 . S
C882 H874 0.950 1_455 S
C882 C880 1.391 . S
C882 C883 1.400 . S
C883 C882 1.400 . S
C883 C884 1.398 . S
C883 C889 1.491 1_455 S
C884 H875 0.950 . S
C884 C883 1.398 . S
C884 C885 1.391 . S
C885 H873 0.950 . S
C885 C881 1.393 . S
C885 C884 1.391 . S
C886 H876 0.950 . S
C886 C887 1.386 . S
C886 C888 1.391 . S
C887 C886 1.386 . S
C887 C891 1.393 . S
C888 H877 0.950 1_655 S
C888 C886 1.391 . S
C888 C889 1.400 . S
C889 C883 1.491 1_655 S
C889 C888 1.400 . S
C889 C890 1.398 . S
C890 H878 0.950 . S
C890 C889 1.398 . S
C890 C891 1.391 . S
C891 H879 0.950 . S
C891 C887 1.393 . S
C891 C890 1.391 . S
H892 C900 0.950 . S
H893 C905 0.950 . S
H894 C902 0.950 . S
H895 C904 0.950 1_545 S
H896 C906 0.950 . S
H897 C908 0.950 . S
H898 C910 0.950 1_565 S
H899 C911 0.950 . S
C900 H892 0.950 . S
C900 C901 1.386 . S
C900 C902 1.391 . S
C901 C900 1.386 . S
C901 C905 1.393 . S
C902 H894 0.950 . S
C902 C900 1.391 . S
C902 C903 1.400 . S
C903 C902 1.400 . S
C903 C904 1.398 . S
C903 C909 1.491 1_565 S
C904 H895 0.950 1_565 S
C904 C903 1.398 . S
C904 C905 1.391 . S
C905 H893 0.950 . S
C905 C901 1.393 . S
C905 C904 1.391 . S
C906 H896 0.950 . S
C906 C907 1.386 . S
C906 C908 1.391 . S
C907 C906 1.386 . S
C907 C911 1.393 . S
C908 H897 0.950 . S
C908 C906 1.391 . S
C908 C909 1.400 . S
C909 C903 1.491 1_545 S
C909 C908 1.400 . S
C909 C910 1.398 . S
C910 H898 0.950 1_545 S
C910 C909 1.398 . S
C910 C911 1.391 . S
C911 H899 0.950 . S
C911 C907 1.393 . S
C911 C910 1.391 . S
C441 C255 1.323 . S
C447 C3 1.330 . S
C461 C39 1.330 . S
C467 C291 1.319 . S
C481 C75 1.331 . S
C487 C327 1.319 . S
C501 C111 1.330 . S
C507 C363 1.319 . S
C521 C399 1.324 . S
C527 C147 1.328 . S
C541 C219 1.325 . S
C547 C183 1.328 . S
C561 C362 1.389 . S
C567 C2 1.388 . S
C581 C38 1.387 . S
C587 C398 1.389 . S
C601 C74 1.385 . S
C607 C218 1.388 . S
C621 C254 1.388 . S
C627 C110 1.385 . S
C641 C290 1.383 . S
C647 C146 1.386 . S
C661 C326 1.387 . S
C667 C182 1.384 . S
C681 C14 1.584 . S
C687 C302 1.577 . S
C701 C50 1.576 . S
C707 C338 1.599 . S
C721 C374 1.599 . S
C727 C86 1.576 . S
C741 C122 1.596 . S
C747 C410 1.584 . S
C761 C230 1.582 . S
C767 C158 1.579 . S
C781 C266 1.576 . S
C787 C194 1.586 . S
C801 C112 1.305 . S
C807 C4 1.312 . S
C821 C148 1.315 . S
C827 C40 1.310 . S
C841 C76 1.292 . S
C847 C184 1.287 . S
C861 C220 1.287 . S
C867 C328 1.293 . S
C881 C256 1.311 . S
C887 C364 1.315 . S
C901 C400 1.315 . S
C907 C292 1.311 . S
