# Generated by pormake.
# Topology wjo, (5)-cn, num edge types: 1
# Building blocks:
#     Node 0, Type 0, BuildingBlock: XOMCOT_clean_sbu_1, # of connection points: 5
#     Node 1, Type 0, BuildingBlock: XOMCOT_clean_sbu_1, # of connection points: 5
#     Node 2, Type 0, BuildingBlock: XOMCOT_clean_sbu_1, # of connection points: 5
#     Node 3, Type 0, BuildingBlock: XOMCOT_clean_sbu_1, # of connection points: 5
#     Node 4, Type 0, BuildingBlock: XOMCOT_clean_sbu_1, # of connection points: 5
#     Node 5, Type 0, BuildingBlock: XOMCOT_clean_sbu_1, # of connection points: 5
#     Node 6, Type 0, BuildingBlock: XOMCOT_clean_sbu_1, # of connection points: 5
#     Node 7, Type 0, BuildingBlock: XOMCOT_clean_sbu_1, # of connection points: 5
#     Node 8, Type 0, BuildingBlock: XOMCOT_clean_sbu_1, # of connection points: 5
#     Node 9, Type 0, BuildingBlock: XOMCOT_clean_sbu_1, # of connection points: 5
#     Node 10, Type 0, BuildingBlock: XOMCOT_clean_sbu_1, # of connection points: 5
#     Node 11, Type 0, BuildingBlock: XOMCOT_clean_sbu_1, # of connection points: 5
#     Edge 12, Type (0, 0), BuildingBlock: EZIPEK_clean_linker_0, # of connection points: 2
#     Edge 13, Type (0, 0), BuildingBlock: EZIPEK_clean_linker_0, # of connection points: 2
#     Edge 14, Type (0, 0), BuildingBlock: EZIPEK_clean_linker_0, # of connection points: 2
#     Edge 15, Type (0, 0), BuildingBlock: EZIPEK_clean_linker_0, # of connection points: 2
#     Edge 16, Type (0, 0), BuildingBlock: EZIPEK_clean_linker_0, # of connection points: 2
#     Edge 17, Type (0, 0), BuildingBlock: EZIPEK_clean_linker_0, # of connection points: 2
#     Edge 18, Type (0, 0), BuildingBlock: EZIPEK_clean_linker_0, # of connection points: 2
#     Edge 19, Type (0, 0), BuildingBlock: EZIPEK_clean_linker_0, # of connection points: 2
#     Edge 20, Type (0, 0), BuildingBlock: EZIPEK_clean_linker_0, # of connection points: 2
#     Edge 21, Type (0, 0), BuildingBlock: EZIPEK_clean_linker_0, # of connection points: 2
#     Edge 22, Type (0, 0), BuildingBlock: EZIPEK_clean_linker_0, # of connection points: 2
#     Edge 23, Type (0, 0), BuildingBlock: EZIPEK_clean_linker_0, # of connection points: 2
#     Edge 24, Type (0, 0), BuildingBlock: EZIPEK_clean_linker_0, # of connection points: 2
#     Edge 25, Type (0, 0), BuildingBlock: EZIPEK_clean_linker_0, # of connection points: 2
#     Edge 26, Type (0, 0), BuildingBlock: EZIPEK_clean_linker_0, # of connection points: 2
#     Edge 27, Type (0, 0), BuildingBlock: EZIPEK_clean_linker_0, # of connection points: 2
#     Edge 28, Type (0, 0), BuildingBlock: EZIPEK_clean_linker_0, # of connection points: 2
#     Edge 29, Type (0, 0), BuildingBlock: EZIPEK_clean_linker_0, # of connection points: 2
#     Edge 30, Type (0, 0), BuildingBlock: EZIPEK_clean_linker_0, # of connection points: 2
#     Edge 31, Type (0, 0), BuildingBlock: EZIPEK_clean_linker_0, # of connection points: 2
#     Edge 32, Type (0, 0), BuildingBlock: EZIPEK_clean_linker_0, # of connection points: 2
#     Edge 33, Type (0, 0), BuildingBlock: EZIPEK_clean_linker_0, # of connection points: 2
#     Edge 34, Type (0, 0), BuildingBlock: EZIPEK_clean_linker_0, # of connection points: 2
#     Edge 35, Type (0, 0), BuildingBlock: EZIPEK_clean_linker_0, # of connection points: 2
#     Edge 36, Type (0, 0), BuildingBlock: EZIPEK_clean_linker_0, # of connection points: 2
#     Edge 37, Type (0, 0), BuildingBlock: EZIPEK_clean_linker_0, # of connection points: 2
#     Edge 38, Type (0, 0), BuildingBlock: EZIPEK_clean_linker_0, # of connection points: 2
#     Edge 39, Type (0, 0), BuildingBlock: EZIPEK_clean_linker_0, # of connection points: 2
#     Edge 40, Type (0, 0), BuildingBlock: EZIPEK_clean_linker_0, # of connection points: 2
#     Edge 41, Type (0, 0), BuildingBlock: EZIPEK_clean_linker_0, # of connection points: 2
# Relax obj value: 0.387
# Max RMSD: 0.207
# Mean RMSD: 0.204
data_MOF--net-wjo--node1-XOMCOT_clean_sbu_1--edge1-EZIPEK_clean_linker_0
_symmetry_space_group_name_H-M    P1
_symmetry_Int_Tables_number       1
_symmetry_cell_setting            triclinic
loop_
_symmetry_equiv_pos_as_xyz
'x, y, z'
_cell_length_a     36.127666
_cell_length_b     36.102246
_cell_length_c     21.825155
_cell_angle_alpha  90.012837
_cell_angle_beta   89.825621
_cell_angle_gamma 119.76262
loop_
_atom_site_label
_atom_site_type_symbol
_atom_site_fract_x
_atom_site_fract_y
_atom_site_fract_z
_atom_type_partial_charge
C0 C 0.23825 0.32828 0.85793 0.0
C1 C 0.24738 0.30296 0.82065 0.0
N2 N 0.26714 0.28614 0.85391 0.0
N3 N 0.25001 0.3261 0.91549 0.0
C4 C 0.26473 0.29828 0.91206 0.0
H5 H 0.22471 0.34773 0.84374 0.0
Co6 Co 0.25395 0.36137 0.98155 0.0
C7 C 0.30352 0.3249 0.05897 0.0
O8 O 0.33476 0.3244 0.02906 0.0
N9 N 0.25965 0.39668 0.05087 0.0
C10 C 0.29443 0.43779 0.13093 0.0
C11 C 0.29811 0.42699 0.07237 0.0
C12 C 0.23287 0.39009 0.09888 0.0
N13 N 0.25363 0.41422 0.14815 0.0
O14 O 0.19804 0.31817 0.00916 0.0
H15 H 0.32842 0.43786 0.05025 0.0
H16 H 0.19972 0.36584 0.10023 0.0
O17 O 0.28114 0.33896 0.03384 0.0
C18 C 0.16966 0.3273 0.9925 0.0
O19 O 0.18257 0.36358 0.96336 0.0
N20 N 0.30628 0.40439 0.94939 0.0
C21 C 0.38342 0.47645 0.92115 0.0
C22 C 0.38123 0.43693 0.92877 0.0
C23 C 0.34196 0.40093 0.94198 0.0
C24 C 0.30705 0.44147 0.9343 0.0
C25 C 0.34565 0.47834 0.92124 0.0
H26 H 0.34056 0.37076 0.94752 0.0
H27 H 0.27808 0.44324 0.93752 0.0
H28 H 0.27259 0.28656 0.95216 0.0
H29 H 0.23908 0.29723 0.77273 0.0
H30 H 0.32039 0.45898 0.16054 0.0
H31 H 0.40978 0.43428 0.92665 0.0
H32 H 0.3463 0.50835 0.91416 0.0
C33 C 0.92161 0.23002 0.04281 0.0
C34 C 0.95634 0.23229 0.01284 0.0
N35 N 0.99128 0.25583 0.04707 0.0
N36 N 0.93427 0.25124 0.0964 0.0
C37 C 0.97698 0.26654 0.09757 0.0
H38 H 0.88911 0.2138 0.02657 0.0
Co39 Co 0.89764 0.25356 0.15602 0.0
C40 C 0.96447 0.3048 0.25184 0.0
O41 O 0.95613 0.33616 0.25404 0.0
N42 N 0.85959 0.25521 0.21695 0.0
C43 C 0.80695 0.2867 0.28824 0.0
C44 C 0.86402 0.30526 0.24456 0.0
C45 C 0.80851 0.20863 0.23738 0.0
N46 N 0.77803 0.22823 0.28088 0.0
O47 O 0.88079 0.1958 0.17837 0.0
H48 H 0.88988 0.33723 0.23699 0.0
H49 H 0.7994 0.17553 0.23161 0.0
O50 O 0.94368 0.27306 0.21629 0.0
C51 C 0.84793 0.16744 0.15056 0.0
O52 O 0.82825 0.18032 0.11288 0.0
N53 N 0.91175 0.30898 0.12889 0.0
C54 C 0.92218 0.38915 0.10251 0.0
C55 C 0.95771 0.38422 0.11311 0.0
C56 C 0.95175 0.3435 0.12495 0.0
C57 C 0.87766 0.31255 0.10989 0.0
C58 C 0.88196 0.35258 0.09804 0.0
H59 H 0.97903 0.34002 0.13302 0.0
H60 H 0.84634 0.28447 0.10837 0.0
H61 H 0.99753 0.28499 0.13476 0.0
H62 H 0.95615 0.21847 0.96873 0.0
H63 H 0.79856 0.30548 0.31782 0.0
H64 H 0.98951 0.41169 0.11418 0.0
H65 H 0.85397 0.35509 0.08778 0.0
C66 C 0.71286 0.91623 0.18377 0.0
C67 C 0.74487 0.95312 0.15787 0.0
N68 N 0.75021 0.98631 0.19246 0.0
N69 N 0.6987 0.92597 0.2352 0.0
C70 C 0.72221 0.96898 0.2392 0.0
H71 H 0.70095 0.88432 0.16629 0.0
Co72 Co 0.65841 0.88673 0.28998 0.0
C73 C 0.66202 0.93881 0.3969 0.0
O74 O 0.62143 0.92661 0.39091 0.0
N75 N 0.61821 0.84679 0.34859 0.0
C76 C 0.56648 0.81943 0.41921 0.0
C77 C 0.57795 0.83786 0.36237 0.0
C78 C 0.62918 0.83118 0.39785 0.0
N79 N 0.59903 0.81597 0.44223 0.0
O80 O 0.69903 0.86949 0.31226 0.0
H81 H 0.55919 0.8484 0.33759 0.0
H82 H 0.66002 0.83398 0.40385 0.0
O83 O 0.68038 0.928 0.35638 0.0
C84 C 0.69802 0.8386 0.28285 0.0
O85 O 0.66832 0.81974 0.24102 0.0
N86 N 0.61854 0.90277 0.26229 0.0
C87 C 0.54916 0.91288 0.23393 0.0
C88 C 0.58692 0.94749 0.25576 0.0
C89 C 0.62178 0.94197 0.2686 0.0
C90 C 0.58507 0.87155 0.23057 0.0
C91 C 0.54915 0.87532 0.21784 0.0
H92 H 0.64986 0.96836 0.2881 0.0
H93 H 0.58431 0.84175 0.22122 0.0
H94 H 0.71955 0.98755 0.27603 0.0
H95 H 0.7624 0.95555 0.11633 0.0
H96 H 0.53759 0.81215 0.4439 0.0
H97 H 0.58845 0.97752 0.26644 0.0
H98 H 0.52091 0.84844 0.1989 0.0
C99 C 0.78401 0.67965 0.34884 0.0
C100 C 0.77489 0.70605 0.31453 0.0
N101 N 0.76026 0.72603 0.35184 0.0
N102 N 0.77792 0.6845 0.40836 0.0
C103 C 0.76652 0.71492 0.40876 0.0
H104 H 0.79294 0.65717 0.33125 0.0
Co105 Co 0.77475 0.64845 0.47295 0.0
C106 C 0.7175 0.67615 0.54392 0.0
O107 O 0.68475 0.66368 0.50747 0.0
N108 N 0.7704 0.61311 0.54077 0.0
C109 C 0.73935 0.57302 0.6226 0.0
C110 C 0.73281 0.58746 0.56853 0.0
C111 C 0.79959 0.61453 0.58124 0.0
N112 N 0.78155 0.58851 0.63084 0.0
O113 O 0.83082 0.69077 0.50028 0.0
H114 H 0.70223 0.58218 0.5531 0.0
H115 H 0.83287 0.63786 0.57725 0.0
O116 O 0.74905 0.67121 0.52954 0.0
C117 C 0.86115 0.69311 0.46719 0.0
O118 O 0.85167 0.67089 0.41629 0.0
N119 N 0.72162 0.60454 0.44121 0.0
C120 C 0.64382 0.5336 0.41191 0.0
C121 C 0.6495 0.57464 0.40568 0.0
C122 C 0.68927 0.60991 0.4189 0.0
C123 C 0.7183 0.56519 0.43714 0.0
C124 C 0.67916 0.52897 0.42478 0.0
H125 H 0.69358 0.64123 0.41133 0.0
H126 H 0.74541 0.56138 0.44802 0.0
H127 H 0.76286 0.72825 0.45053 0.0
H128 H 0.779 0.70975 0.26545 0.0
H129 H 0.71436 0.55561 0.65578 0.0
H130 H 0.62324 0.57928 0.39226 0.0
H131 H 0.67618 0.49763 0.42722 0.0
C132 C 0.09803 0.76055 0.50968 0.0
C133 C 0.06304 0.7566 0.47894 0.0
N134 N 0.03926 0.76456 0.51862 0.0
N135 N 0.0959 0.76996 0.56897 0.0
C136 C 0.06113 0.77484 0.57177 0.0
H137 H 0.12152 0.75346 0.49095 0.0
Co138 Co 0.1296 0.76675 0.63218 0.0
C139 C 0.04656 0.73504 0.70809 0.0
O140 O 0.01721 0.7149 0.66631 0.0
N141 N 0.16347 0.76391 0.69674 0.0
C142 C 0.18898 0.73779 0.7671 0.0
C143 C 0.1736 0.7332 0.70869 0.0
C144 C 0.17488 0.78777 0.74869 0.0
N145 N 0.18965 0.77199 0.79251 0.0
O146 O 0.15177 0.82613 0.64879 0.0
H147 H 0.16829 0.70722 0.67911 0.0
H148 H 0.17043 0.81498 0.75562 0.0
O149 O 0.08612 0.75322 0.69462 0.0
C150 C 0.18651 0.8517 0.62179 0.0
O151 O 0.20306 0.83635 0.58248 0.0
N152 N 0.11009 0.70847 0.61216 0.0
C153 C 0.10204 0.62836 0.59228 0.0
C154 C 0.07151 0.63238 0.62663 0.0
C155 C 0.07623 0.6727 0.63637 0.0
C156 C 0.13746 0.70437 0.57307 0.0
C157 C 0.13444 0.66465 0.5632 0.0
H158 H 0.05367 0.67427 0.66622 0.0
H159 H 0.1642 0.7327 0.55396 0.0
H160 H 0.05011 0.78289 0.61292 0.0
H161 H 0.05341 0.7443 0.43298 0.0
H162 H 0.19823 0.71699 0.78988 0.0
H163 H 0.04567 0.60481 0.64895 0.0
H164 H 0.15843 0.66264 0.53582 0.0
C165 C 0.33375 0.09871 0.67225 0.0
C166 C 0.30611 0.06227 0.64059 0.0
N167 N 0.28825 0.02983 0.68091 0.0
N168 N 0.33327 0.08907 0.73207 0.0
C169 C 0.30501 0.0468 0.73587 0.0
H170 H 0.35433 0.12982 0.65251 0.0
Co171 Co 0.36937 0.12601 0.79215 0.0
C172 C 0.36192 0.07221 0.89738 0.0
O173 O 0.40371 0.0931 0.9022 0.0
N174 N 0.40583 0.16399 0.85486 0.0
C175 C 0.46073 0.20309 0.91678 0.0
C176 C 0.44891 0.18603 0.85917 0.0
C177 C 0.39261 0.17 0.91064 0.0
N178 N 0.42534 0.19306 0.94929 0.0
O179 O 0.32726 0.14214 0.8126 0.0
H180 H 0.47129 0.18897 0.82435 0.0
H181 H 0.35955 0.15553 0.92413 0.0
O182 O 0.34426 0.08054 0.85311 0.0
C183 C 0.32611 0.171 0.78043 0.0
O184 O 0.35331 0.18742 0.73475 0.0
N185 N 0.41113 0.1117 0.76737 0.0
C186 C 0.48127 0.10304 0.73684 0.0
C187 C 0.44514 0.069 0.76374 0.0
C188 C 0.4096 0.07351 0.77678 0.0
C189 C 0.44318 0.14219 0.73255 0.0
C190 C 0.4793 0.1391 0.71822 0.0
H191 H 0.38152 0.04671 0.79584 0.0
H192 H 0.44222 0.17071 0.72014 0.0
H193 H 0.29832 0.028 0.77721 0.0
H194 H 0.30095 0.05936 0.59158 0.0
H195 H 0.49301 0.22134 0.93383 0.0
H196 H 0.44487 0.03979 0.77596 0.0
H197 H 0.50615 0.16537 0.69537 0.0
C198 C 0.68215 0.77508 0.97923 0.0
C199 C 0.71117 0.77209 0.01686 0.0
N200 N 0.73917 0.76735 0.9814 0.0
N201 N 0.69236 0.77324 0.92028 0.0
C202 C 0.72833 0.77068 0.92339 0.0
H203 H 0.65381 0.77566 0.99389 0.0
Co204 Co 0.65827 0.76632 0.85169 0.0
C205 C 0.70283 0.71811 0.79393 0.0
O206 O 0.71258 0.70042 0.83897 0.0
N207 N 0.62453 0.7583 0.78103 0.0
C208 C 0.5855 0.72525 0.69955 0.0
C209 C 0.6002 0.72001 0.75446 0.0
C210 C 0.62481 0.78644 0.73965 0.0
N211 N 0.59971 0.76715 0.68996 0.0
O212 O 0.69958 0.82237 0.82241 0.0
H213 H 0.59567 0.69 0.77165 0.0
H214 H 0.64603 0.82006 0.74436 0.0
O215 O 0.68425 0.73981 0.80347 0.0
C216 C 0.69912 0.85243 0.85277 0.0
O217 O 0.67639 0.8428 0.90337 0.0
N218 N 0.6155 0.71373 0.88339 0.0
C219 C 0.54283 0.63625 0.9081 0.0
C220 C 0.58287 0.63903 0.90588 0.0
C221 C 0.61917 0.67858 0.895 0.0
C222 C 0.57742 0.71232 0.89236 0.0
C223 C 0.54042 0.67366 0.90412 0.0
H224 H 0.64969 0.6805 0.89437 0.0
H225 H 0.57531 0.74093 0.88599 0.0
H226 H 0.74594 0.77006 0.88393 0.0
H227 H 0.70932 0.7695 0.06624 0.0
H228 H 0.56799 0.69983 0.66707 0.0
H229 H 0.58584 0.61077 0.91103 0.0
H230 H 0.50998 0.67262 0.90706 0.0
C231 C 0.92072 0.71806 0.13756 0.0
C232 C 0.95607 0.75006 0.16669 0.0
N233 N 0.99106 0.75132 0.14267 0.0
N234 N 0.93356 0.69971 0.09496 0.0
C235 C 0.97655 0.7205 0.09968 0.0
H236 H 0.88796 0.71013 0.14483 0.0
Co237 Co 0.90063 0.66123 0.03397 0.0
C238 C 0.96091 0.67927 0.93127 0.0
O239 O 0.94498 0.63822 0.92161 0.0
N240 N 0.86762 0.62263 0.9695 0.0
C241 C 0.83657 0.56604 0.90776 0.0
C242 C 0.8521 0.57999 0.96541 0.0
C243 C 0.85933 0.63322 0.91333 0.0
N244 N 0.84104 0.59943 0.87486 0.0
O245 O 0.87827 0.69871 0.01308 0.0
H246 H 0.85273 0.55953 0.00058 0.0
H247 H 0.86817 0.66535 0.89986 0.0
O248 O 0.94746 0.69227 0.97587 0.0
C249 C 0.83855 0.68461 0.02219 0.0
O250 O 0.81488 0.64455 0.03902 0.0
N251 N 0.91968 0.62329 0.06062 0.0
C252 C 0.92864 0.55295 0.0887 0.0
C253 C 0.96152 0.58837 0.05892 0.0
C254 C 0.95682 0.62384 0.04677 0.0
C255 C 0.89068 0.59208 0.09823 0.0
C256 C 0.89397 0.5559 0.11167 0.0
H257 H 0.98244 0.65073 0.02456 0.0
H258 H 0.86254 0.59319 0.11248 0.0
H259 H 0.99731 0.715 0.06995 0.0
H260 H 0.95623 0.77153 0.20146 0.0
H261 H 0.823 0.53365 0.89099 0.0
H262 H 0.98976 0.58792 0.04316 0.0
H263 H 0.86856 0.52955 0.13657 0.0
C264 C 0.2615 0.92471 0.3153 0.0
C265 C 0.26458 0.95842 0.34919 0.0
N266 N 0.25744 0.98383 0.31164 0.0
N267 N 0.25302 0.9292 0.2565 0.0
C268 C 0.24863 0.9643 0.25658 0.0
H269 H 0.2687 0.90064 0.33132 0.0
Co270 Co 0.25592 0.89866 0.18863 0.0
C271 C 0.30122 0.98915 0.12714 0.0
O272 O 0.31493 0.01646 0.17261 0.0
N273 N 0.2595 0.8693 0.11877 0.0
C274 C 0.28811 0.8607 0.03383 0.0
C275 C 0.2957 0.88415 0.08578 0.0
C276 C 0.23017 0.83616 0.0852 0.0
N277 N 0.24686 0.82952 0.03295 0.0
O278 O 0.19954 0.88625 0.16543 0.0
H279 H 0.32571 0.91179 0.09726 0.0
H280 H 0.19728 0.81903 0.09838 0.0
O281 O 0.28105 0.94898 0.13634 0.0
C282 C 0.17058 0.85111 0.18803 0.0
O283 O 0.18247 0.82893 0.22231 0.0
N284 N 0.30976 0.90772 0.21448 0.0
C285 C 0.38821 0.91233 0.23209 0.0
C286 C 0.38533 0.94957 0.23021 0.0
C287 C 0.34555 0.94651 0.22163 0.0
C288 C 0.3116 0.87119 0.22283 0.0
C289 C 0.35071 0.87273 0.23046 0.0
H290 H 0.344 0.97527 0.21829 0.0
H291 H 0.28277 0.84055 0.21939 0.0
H292 H 0.24218 0.97727 0.21602 0.0
H293 H 0.27571 0.9661 0.39596 0.0
H294 H 0.31113 0.86802 0.9974 0.0
H295 H 0.41373 0.98067 0.23277 0.0
H296 H 0.35184 0.84335 0.23312 0.0
C297 C 0.35157 0.24998 0.48858 0.0
C298 C 0.32514 0.25424 0.53025 0.0
N299 N 0.29035 0.24896 0.50018 0.0
N300 N 0.33358 0.24232 0.43252 0.0
C301 C 0.29537 0.2397 0.44193 0.0
H302 H 0.38362 0.25625 0.49742 0.0
Co303 Co 0.36174 0.24733 0.35757 0.0
C304 C 0.30936 0.29097 0.31276 0.0
O305 O 0.29954 0.30568 0.36148 0.0
N306 N 0.38963 0.25392 0.2814 0.0
C307 C 0.42172 0.28647 0.19519 0.0
C308 C 0.40607 0.2908 0.2498 0.0
C309 C 0.3952 0.22726 0.24358 0.0
N310 N 0.4168 0.24691 0.19107 0.0
O311 O 0.31902 0.18997 0.33471 0.0
H312 H 0.40528 0.319 0.26439 0.0
H313 H 0.381 0.19383 0.25356 0.0
O314 O 0.33077 0.27164 0.31671 0.0
C315 C 0.31873 0.16054 0.3677 0.0
O316 O 0.34171 0.17129 0.41791 0.0
N317 N 0.40637 0.30108 0.38159 0.0
C318 C 0.48078 0.3782 0.40029 0.0
C319 C 0.44114 0.37636 0.40075 0.0
C320 C 0.40406 0.33713 0.39188 0.0
C321 C 0.44447 0.30199 0.38579 0.0
C322 C 0.48226 0.3404 0.39444 0.0
H323 H 0.37393 0.33602 0.39194 0.0
H324 H 0.44566 0.27289 0.37927 0.0
H325 H 0.27286 0.2344 0.4059 0.0
H326 H 0.33313 0.26536 0.57699 0.0
H327 H 0.43395 0.31061 0.15973 0.0
H328 H 0.43903 0.40507 0.40634 0.0
H329 H 0.51245 0.34082 0.39474 0.0
C330 C 0.10347 0.33481 0.66456 0.0
C331 C 0.06753 0.30366 0.69339 0.0
N332 N 0.04367 0.27422 0.65138 0.0
N333 N 0.10186 0.32547 0.60441 0.0
C334 C 0.0656 0.2877 0.59809 0.0
H335 H 0.12809 0.36374 0.68542 0.0
Co336 Co 0.14021 0.36283 0.54651 0.0
C337 C 0.09126 0.35478 0.43422 0.0
O338 O 0.11248 0.39661 0.42999 0.0
N339 N 0.18082 0.40116 0.48835 0.0
C340 C 0.22377 0.4571 0.43108 0.0
C341 C 0.2009 0.44407 0.48425 0.0
C342 C 0.19348 0.38945 0.43682 0.0
N343 N 0.22086 0.42297 0.40121 0.0
O344 O 0.1599 0.32332 0.52997 0.0
H345 H 0.19773 0.46562 0.51476 0.0
H346 H 0.1798 0.35641 0.42345 0.0
O347 O 0.09798 0.33641 0.47967 0.0
C348 C 0.18296 0.31802 0.56899 0.0
O349 O 0.19044 0.33748 0.62214 0.0
N350 N 0.12175 0.40232 0.56674 0.0
C351 C 0.10705 0.46984 0.5888 0.0
C352 C 0.07523 0.43198 0.56241 0.0
C353 C 0.08299 0.39812 0.5527 0.0
C354 C 0.14934 0.43553 0.60252 0.0
C355 C 0.14355 0.4706 0.61197 0.0
H356 H 0.05831 0.36933 0.53215 0.0
H357 H 0.17817 0.43666 0.61869 0.0
H358 H 0.0541 0.27148 0.55483 0.0
H359 H 0.05827 0.30392 0.74055 0.0
H360 H 0.23807 0.48947 0.41488 0.0
H361 H 0.04556 0.4294 0.54705 0.0
H362 H 0.16808 0.49865 0.63492 0.0
C363 C 0.77222 0.09317 0.79926 0.0
C364 C 0.76394 0.05623 0.82951 0.0
N365 N 0.76111 0.02767 0.78747 0.0
N366 N 0.77398 0.0876 0.73843 0.0
C367 C 0.76762 0.04743 0.73281 0.0
H368 H 0.77519 0.12173 0.82 0.0
Co369 Co 0.78123 0.12715 0.67695 0.0
C370 C 0.72552 0.06351 0.58302 0.0
O371 O 0.69891 0.07835 0.5809 0.0
N372 N 0.79098 0.16809 0.61503 0.0
C373 C 0.81627 0.23192 0.57031 0.0
C374 C 0.81326 0.21074 0.62434 0.0
C375 C 0.78256 0.16448 0.55415 0.0
N376 N 0.79726 0.20253 0.52621 0.0
O377 O 0.8369 0.1358 0.66055 0.0
H378 H 0.82621 0.22551 0.6681 0.0
H379 H 0.76582 0.13503 0.52949 0.0
O380 O 0.75834 0.08087 0.61729 0.0
C381 C 0.86711 0.16185 0.6947 0.0
O382 O 0.85795 0.17755 0.74296 0.0
N383 N 0.72603 0.12027 0.69543 0.0
C384 C 0.6455 0.11159 0.71526 0.0
C385 C 0.65092 0.07587 0.71647 0.0
C386 C 0.69161 0.08109 0.70765 0.0
C387 C 0.72151 0.15563 0.69947 0.0
C388 C 0.68144 0.15196 0.70826 0.0
H389 H 0.69522 0.05342 0.70849 0.0
H390 H 0.74878 0.18712 0.69603 0.0
H391 H 0.7658 0.03202 0.68953 0.0
H392 H 0.7586 0.05013 0.87821 0.0
H393 H 0.83113 0.26609 0.56385 0.0
H394 H 0.6239 0.04423 0.72351 0.0
H395 H 0.67851 0.1804 0.70928 0.0
C396 C 0.23229 0.38345 0.31463 0.0
C397 C 0.2357 0.42156 0.33909 0.0
C398 C 0.24613 0.45137 0.23607 0.0
C399 C 0.23956 0.41273 0.21046 0.0
N400 N 0.22644 0.34098 0.22479 0.0
N401 N 0.2789 0.4972 0.32174 0.0
C402 C 0.23234 0.37823 0.24961 0.0
C403 C 0.25143 0.45754 0.29988 0.0
N404 N 0.23582 0.35568 0.35334 0.0
N405 N 0.24949 0.48319 0.19877 0.0
H406 H 0.2933 0.50127 0.36448 0.0
H407 H 0.29338 0.52421 0.2938 0.0
H408 H 0.24577 0.47941 0.15134 0.0
H409 H 0.25185 0.51126 0.21595 0.0
H410 H 0.23637 0.32844 0.33921 0.0
H411 H 0.24416 0.36321 0.39925 0.0
H412 H 0.21615 0.31303 0.24986 0.0
H413 H 0.22927 0.33707 0.17812 0.0
C414 C 0.81462 0.23039 0.35805 0.0
C415 C 0.77406 0.2128 0.34014 0.0
C416 C 0.74696 0.19372 0.44246 0.0
C417 C 0.78986 0.20904 0.46318 0.0
N418 N 0.86578 0.24807 0.43991 0.0
N419 N 0.69957 0.18392 0.35766 0.0
C420 C 0.82469 0.22934 0.42055 0.0
C421 C 0.73921 0.19638 0.37953 0.0
N422 N 0.84109 0.25364 0.30896 0.0
N423 N 0.71336 0.17822 0.48195 0.0
H424 H 0.69451 0.18611 0.311 0.0
H425 H 0.67279 0.17157 0.38617 0.0
H426 H 0.71625 0.17709 0.52939 0.0
H427 H 0.71625 0.17709 0.52939 0.0
H428 H 0.8736 0.26548 0.31962 0.0
H429 H 0.81248 0.26031 0.2194 0.0
H430 H 0.89175 0.26416 0.41066 0.0
H431 H 0.87354 0.24836 0.48578 0.0
C432 C 0.56695 0.76532 0.5276 0.0
C433 C 0.60126 0.80399 0.50498 0.0
C434 C 0.62515 0.82582 0.61108 0.0
C435 C 0.59463 0.78472 0.63216 0.0
N436 N 0.5231 0.72807 0.61525 0.0
N437 N 0.66716 0.86963 0.52678 0.0
C438 C 0.56144 0.758 0.59166 0.0
C439 C 0.63188 0.83365 0.54698 0.0
N440 N 0.54063 0.73462 0.48733 0.0
N441 N 0.64163 0.85926 0.65091 0.0
H442 H 0.67275 0.87927 0.48135 0.0
H443 H 0.69242 0.88896 0.55564 0.0
H444 H 0.62731 0.85678 0.69338 0.0
H445 H 0.66232 0.89071 0.63778 0.0
H446 H 0.51738 0.70414 0.50095 0.0
H447 H 0.54523 0.73823 0.44 0.0
H448 H 0.49619 0.70999 0.58849 0.0
H449 H 0.51706 0.72556 0.66233 0.0
C450 C 0.77424 0.55655 0.73445 0.0
C451 C 0.80069 0.5847 0.68799 0.0
C452 C 0.85805 0.61882 0.76412 0.0
C453 C 0.82777 0.59724 0.81179 0.0
N454 N 0.75485 0.54937 0.84107 0.0
N455 N 0.87383 0.62109 0.65547 0.0
C456 C 0.78525 0.56714 0.79644 0.0
C457 C 0.84468 0.6107 0.70147 0.0
N458 N 0.74131 0.51737 0.71921 0.0
N459 N 0.89959 0.64606 0.77853 0.0
H460 H 0.86494 0.60588 0.61307 0.0
H461 H 0.9067 0.63844 0.66151 0.0
H462 H 0.91106 0.64924 0.82288 0.0
H463 H 0.92217 0.66667 0.74711 0.0
H464 H 0.72309 0.49425 0.75181 0.0
H465 H 0.73646 0.5064 0.67405 0.0
H466 H 0.72264 0.52951 0.83112 0.0
H467 H 0.76121 0.55824 0.88701 0.0
C468 C 0.17379 0.78622 0.89886 0.0
C469 C 0.20296 0.78634 0.85464 0.0
C470 C 0.25281 0.7963 0.93715 0.0
C471 C 0.22673 0.80251 0.97961 0.0
N472 N 0.15297 0.7746 0.00544 0.0
N473 N 0.27335 0.79884 0.83118 0.0
C474 C 0.1844 0.79 0.96223 0.0
C475 C 0.24322 0.79301 0.87389 0.0
N476 N 0.13598 0.78247 0.88098 0.0
N477 N 0.28555 0.79131 0.95835 0.0
H478 H 0.26825 0.79956 0.78426 0.0
H479 H 0.30467 0.8077 0.84243 0.0
H480 H 0.29083 0.79055 0.00526 0.0
H481 H 0.30376 0.78308 0.93036 0.0
H482 H 0.11621 0.78743 0.91068 0.0
H483 H 0.12583 0.77786 0.83583 0.0
H484 H 0.12088 0.76296 0.99556 0.0
H485 H 0.15777 0.76504 0.04827 0.0
C486 C 0.44858 0.24859 0.02894 0.0
C487 C 0.4244 0.20505 0.01252 0.0
C488 C 0.40841 0.1866 0.12223 0.0
C489 C 0.42761 0.23068 0.13622 0.0
N490 N 0.48926 0.29746 0.10946 0.0
N491 N 0.38405 0.13151 0.04445 0.0
C492 C 0.45491 0.26001 0.09148 0.0
C493 C 0.4048 0.17364 0.05949 0.0
N494 N 0.46395 0.27945 0.98477 0.0
N495 N 0.40095 0.15823 0.16831 0.0
H496 H 0.38568 0.12107 0.00082 0.0
H497 H 0.36439 0.10722 0.07452 0.0
H498 H 0.41558 0.16862 0.21079 0.0
H499 H 0.38789 0.12552 0.16214 0.0
H500 H 0.47892 0.31191 0.99509 0.0
H501 H 0.45751 0.27254 0.93832 0.0
H502 H 0.51233 0.31857 0.07886 0.0
H503 H 0.49721 0.30425 0.15567 0.0
C504 C 0.29963 0.24004 0.87631 0.0
C505 C 0.28485 0.25921 0.83334 0.0
C506 C 0.29112 0.21418 0.75365 0.0
C507 C 0.30108 0.19228 0.79905 0.0
N508 N 0.29647 0.17484 0.90692 0.0
N509 N 0.29351 0.28021 0.72707 0.0
C510 C 0.29905 0.20178 0.86138 0.0
C511 C 0.28712 0.25031 0.77028 0.0
N512 N 0.32283 0.26263 0.92551 0.0
N513 N 0.28449 0.19976 0.69466 0.0
H514 H 0.30186 0.31133 0.73916 0.0
H515 H 0.29842 0.27696 0.68079 0.0
H516 H 0.28529 0.17226 0.68202 0.0
H517 H 0.27337 0.21193 0.66053 0.0
H518 H 0.33647 0.25074 0.95628 0.0
H519 H 0.33525 0.29556 0.9272 0.0
H520 H 0.29396 0.18117 0.95297 0.0
H521 H 0.28996 0.14388 0.89815 0.0
C522 C 0.10563 0.27988 0.06216 0.0
C523 C 0.12273 0.29943 0.00431 0.0
C524 C 0.05286 0.28966 0.97535 0.0
C525 C 0.03517 0.26883 0.03171 0.0
N526 N 0.04182 0.23341 0.12079 0.0
N527 N 0.10718 0.30604 0.89868 0.0
C528 C 0.06073 0.26071 0.0728 0.0
C529 C 0.09447 0.29872 0.9586 0.0
N530 N 0.13173 0.28062 0.10782 0.0
N531 N 0.03122 0.30339 0.93933 0.0
H532 H 0.13663 0.31031 0.88425 0.0
H533 H 0.08657 0.30254 0.86299 0.0
H534 H 1.00215 0.30059 0.95218 0.0
H535 H 0.04457 0.32203 0.9003 0.0
H536 H 0.12153 0.27242 0.15301 0.0
H537 H 0.16397 0.29113 0.10183 0.0
H538 H 0.05796 0.223 0.14918 0.0
H539 H 1.00894 0.21759 0.1281 0.0
C540 C 0.80884 0.09243 0.11163 0.0
C541 C 0.82941 0.12057 0.16148 0.0
C542 C 0.8064 0.05772 0.22753 0.0
C543 C 0.77859 0.03123 0.18096 0.0
N544 N 0.74724 0.02636 0.08165 0.0
N545 N 0.84212 0.12828 0.2715 0.0
C546 C 0.77822 0.04931 0.12361 0.0
C547 C 0.82711 0.1029 0.22083 0.0
N548 N 0.81923 0.10645 0.05262 0.0
N549 N 0.81395 0.03971 0.27741 0.0
H550 H 0.85641 0.16133 0.2706 0.0
H551 H 0.83661 0.11593 0.31587 0.0
H552 H 0.80083 1.00678 0.282 0.0
H553 H 0.83688 0.05751 0.31021 0.0
H554 H 0.80716 0.0861 0.01501 0.0
H555 H 0.84388 0.13696 0.04179 0.0
H556 H 0.74386 0.03972 0.04118 0.0
H557 H 0.72203 0.99579 0.09045 0.0
C558 C 0.73473 0.75878 0.27215 0.0
C559 C 0.74231 0.75331 0.33456 0.0
C560 C 0.7319 0.8136 0.36193 0.0
C561 C 0.72473 0.81908 0.29978 0.0
N562 N 0.73563 0.80701 0.19468 0.0
N563 N 0.71613 0.75836 0.43439 0.0
C564 C 0.73153 0.79493 0.25464 0.0
C565 C 0.73305 0.77641 0.3792 0.0
N566 N 0.72251 0.72597 0.2317 0.0
N567 N 0.73777 0.84341 0.40495 0.0
H568 H 0.70298 0.72566 0.44074 0.0
H569 H 0.70661 0.773 0.46717 0.0
H570 H 0.74144 0.87308 0.39377 0.0
H571 H 0.74505 0.84077 0.45041 0.0
H572 H 0.71379 0.72737 0.18662 0.0
H573 H 0.71343 0.6951 0.24631 0.0
H574 H 0.74516 0.79307 0.16086 0.0
H575 H 0.73494 0.83435 0.18086 0.0
C576 C 0.96628 0.70275 0.51772 0.0
C577 C 0.99379 0.74745 0.51335 0.0
C578 C 0.93207 0.75722 0.49435 0.0
C579 C 0.90553 0.7122 0.49062 0.0
N580 N 0.8975 0.64162 0.49569 0.0
N581 N 1.00456 0.81776 0.49776 0.0
C582 C 0.92265 0.68486 0.50194 0.0
C583 C 0.97703 0.77492 0.50245 0.0
N584 N 0.98186 0.67742 0.5384 0.0
N585 N 0.91432 0.78283 0.48936 0.0
H586 H 0.03731 0.83101 0.50459 0.0
H587 H 0.99564 0.83986 0.48437 0.0
H588 H 0.88183 0.77076 0.48187 0.0
H589 H 0.931 0.81564 0.49639 0.0
H590 H 0.96266 0.64543 0.55006 0.0
H591 H 1.0138 0.68915 0.54937 0.0
H592 H 0.90941 0.62063 0.49443 0.0
H593 H 0.86469 0.62647 0.48863 0.0
C594 C 0.27998 0.95803 0.67082 0.0
C595 C 0.2622 0.98513 0.66688 0.0
C596 C 0.19439 0.92499 0.63182 0.0
C597 C 0.21135 0.89727 0.64011 0.0
N598 N 0.26697 0.8858 0.68093 0.0
N599 N 0.20143 0.99435 0.65296 0.0
C600 C 0.25325 0.91334 0.66346 0.0
C601 C 0.219 0.96853 0.65004 0.0
N602 N 0.32287 0.97533 0.67929 0.0
N603 N 0.15563 0.91019 0.60433 0.0
H604 H 0.21898 0.02632 0.66596 0.0
H605 H 0.16903 0.98344 0.64726 0.0
H606 H 0.13678 0.87859 0.59035 0.0
H607 H 0.14353 0.92981 0.59119 0.0
H608 H 0.33854 0.95774 0.67639 0.0
H609 H 0.34347 1.0081 0.68336 0.0
H610 H 0.29544 0.89547 0.70423 0.0
H611 H 0.24807 0.85274 0.67774 0.0
C612 C 0.78348 0.70326 0.05695 0.0
C613 C 0.81833 0.71222 0.01753 0.0
C614 C 0.80802 0.76818 0.96999 0.0
C615 C 0.76755 0.75145 0.99865 0.0
N616 N 0.71251 0.69279 0.05766 0.0
N617 N 0.8593 0.7508 0.92791 0.0
C618 C 0.75404 0.71636 0.03946 0.0
C619 C 0.8299 0.74445 0.97195 0.0
N620 N 0.77852 0.68279 0.1115 0.0
N621 N 0.82561 0.80673 0.94105 0.0
H622 H 0.87372 0.73223 0.92427 0.0
H623 H 0.8656 0.77134 0.89086 0.0
H624 H 0.81101 0.82545 0.94124 0.0
H625 H 0.85651 0.82187 0.92328 0.0
H626 H 0.75477 0.67819 0.14292 0.0
H627 H 0.8013 0.67577 0.12853 0.0
H628 H 0.70159 0.66535 0.0844 0.0
H629 H 0.68806 0.69657 0.03927 0.0
C630 C 0.06232 0.80784 0.10786 0.0
C631 C 0.03524 0.7816 0.15553 0.0
C632 C 0.09541 0.81402 0.2265 0.0
C633 C 0.12402 0.8336 0.17659 0.0
N634 N 0.13398 0.84659 0.06706 0.0
N635 N 0.02713 0.75574 0.25911 0.0
C636 C 0.10736 0.83036 0.11648 0.0
C637 C 0.05198 0.7839 0.21479 0.0
N638 N 0.04475 0.81196 0.0548 0.0
N639 N 0.10961 0.82495 0.28529 0.0
H640 H 0.99561 0.73221 0.25153 0.0
H641 H 0.03901 0.75313 0.30136 0.0
H642 H 0.14073 0.84855 0.29547 0.0
H643 H 0.0894 0.8143 0.32329 0.0
H644 H 0.0624 0.83359 0.02034 0.0
H645 H 1.01185 0.79702 0.04823 0.0
H646 H 0.12326 0.84008 0.02197 0.0
H647 H 0.16699 0.86412 0.07022 0.0
C648 C 0.31672 0.05821 0.31987 0.0
C649 C 0.27231 0.02872 0.32127 0.0
C650 C 0.25774 0.0877 0.33912 0.0
C651 C 0.30228 0.1164 0.34399 0.0
N652 N 0.37471 0.12957 0.33948 0.0
N653 N 0.20022 0.01372 0.3322 0.0
C654 C 0.33187 0.10181 0.334 0.0
C655 C 0.24267 0.04315 0.33023 0.0
N656 N 0.34444 0.04455 0.3032 0.0
N657 N 0.23008 0.1031 0.34363 0.0
H658 H 0.18891 0.98123 0.32534 0.0
H659 H 0.17636 0.02073 0.34329 0.0
H660 H 0.24024 0.13523 0.35156 0.0
H661 H 0.19743 0.0849 0.33621 0.0
H662 H 0.37647 0.0648 0.29295 0.0
H663 H 0.33482 0.0127 0.29499 0.0
H664 H 0.39758 0.12012 0.34213 0.0
H665 H 0.38779 0.16245 0.34404 0.0
C666 C 0.27984 0.31091 0.51767 0.0
C667 C 0.26335 0.26605 0.5185 0.0
C668 C 0.19243 0.25482 0.54582 0.0
C669 C 0.2098 0.29971 0.54927 0.0
N670 N 0.26987 0.37104 0.54111 0.0
N671 N 0.20588 0.1952 0.53642 0.0
C672 C 0.25348 0.32788 0.53591 0.0
C673 C 0.22003 0.23795 0.53324 0.0
N674 N 0.32036 0.3372 0.49687 0.0
N675 N 0.14957 0.22857 0.55399 0.0
H676 H 0.22571 0.18253 0.5269 0.0
H677 H 0.17569 0.17259 0.5517 0.0
H678 H 0.1289 0.24006 0.56454 0.0
H679 H 0.13392 0.19576 0.54698 0.0
H680 H 0.33269 0.3694 0.48698 0.0
H681 H 0.34119 0.3263 0.4853 0.0
H682 H 0.30232 0.39313 0.54035 0.0
H683 H 0.25113 0.38511 0.54911 0.0
C684 C 0.98739 0.20839 0.70168 0.0
C685 C 0.99955 0.24197 0.65877 0.0
C686 C 0.92594 0.21025 0.62481 0.0
C687 C 0.9123 0.18159 0.67486 0.0
N688 N 0.93009 0.15343 0.76298 0.0
N689 N 0.97724 0.28174 0.5951 0.0
C690 C 0.94314 0.18055 0.71398 0.0
C691 C 0.96806 0.24471 0.62418 0.0
N692 N 0.01805 0.203 0.72986 0.0
N693 N 0.89921 0.20503 0.57763 0.0
H694 H 1.00683 0.30938 0.59876 0.0
H695 H 0.95388 0.28618 0.57389 0.0
H696 H 0.86864 0.17895 0.57408 0.0
H697 H 0.91022 0.22344 0.53798 0.0
H698 H 1.01127 0.17711 0.75806 0.0
H699 H 0.05046 0.22281 0.72077 0.0
H700 H 0.9507 0.15438 0.79699 0.0
H701 H 0.89807 0.13102 0.77064 0.0
C702 C 0.77537 0.96836 0.80761 0.0
C703 C 0.74592 0.98288 0.79786 0.0
C704 C 0.68609 0.91065 0.8154 0.0
C705 C 0.71551 0.89594 0.82641 0.0
N706 N 0.78753 0.90857 0.8254 0.0
N707 N 0.67417 0.96825 0.78316 0.0
C708 C 0.76006 0.92411 0.8196 0.0
C709 C 0.70152 0.95398 0.79883 0.0
N710 N 0.81794 0.99751 0.80726 0.0
N711 N 0.64325 0.88336 0.82252 0.0
H712 H 0.68443 1.0003 0.77502 0.0
H713 H 0.64182 0.94846 0.77479 0.0
H714 H 0.63001 0.85065 0.8295 0.0
H715 H 0.62049 0.893 0.82364 0.0
H716 H 0.84177 0.99064 0.81894 0.0
H717 H 0.82948 0.02973 0.79753 0.0
H718 H 0.82009 0.92627 0.81667 0.0
H719 H 0.77735 0.87677 0.836 0.0
C720 C 0.33079 0.35147 0.16355 0.0
C721 C 0.30081 0.31832 0.12557 0.0
C722 C 0.26937 0.27161 0.2145 0.0
C723 C 0.30224 0.30294 0.25125 0.0
N724 N 0.36341 0.37302 0.26363 0.0
N725 N 0.24173 0.24724 0.11205 0.0
C726 C 0.33229 0.3433 0.22679 0.0
C727 C 0.2697 0.27863 0.15035 0.0
N728 N 0.35761 0.39079 0.13895 0.0
N729 N 0.23769 0.23554 0.24151 0.0
H730 H 0.24047 0.25189 0.06509 0.0
H731 H 0.22111 0.21599 0.12576 0.0
H732 H 0.23678 0.22996 0.28856 0.0
H733 H 0.21069 0.21274 0.21874 0.0
H734 H 0.3768 0.41785 0.16473 0.0
H735 H 0.35906 0.39725 0.09218 0.0
H736 H 0.39008 0.40045 0.24765 0.0
H737 H 0.3632 0.36973 0.311 0.0
C738 C 0.04196 0.33643 0.27871 0.0
C739 C 0.99859 0.30692 0.29164 0.0
C740 C 0.01706 0.29969 0.39681 0.0
C741 C 0.06034 0.33057 0.38459 0.0
N742 N 0.11548 0.36398 0.30811 0.0
N743 N 0.94823 0.2488 0.35442 0.0
C744 C 0.07325 0.34414 0.32345 0.0
C745 C 0.98737 0.28431 0.34771 0.0
N746 N 0.05332 0.35815 0.22457 0.0
N747 N 1.00321 0.28755 0.45534 0.0
H748 H 0.92576 0.23715 0.31932 0.0
H749 H 0.93982 0.22872 0.39244 0.0
H750 H 0.02334 0.29892 0.49278 0.0
H751 H 0.97112 0.26895 0.46691 0.0
H752 H 0.08356 0.38401 0.21605 0.0
H753 H 0.03183 0.35153 0.18924 0.0
H754 H 0.12665 0.3714 0.2632 0.0
H755 H 0.13887 0.36839 0.33966 0.0
C756 C 0.72823 0.99788 0.44894 0.0
C757 C 0.68508 0.96409 0.45217 0.0
C758 C 0.6798 0.98739 0.55581 0.0
C759 C 0.71705 0.02663 0.54433 0.0
N760 N 0.7802 0.06862 0.48356 0.0
N761 N 0.62257 0.92194 0.51557 0.0
C762 C 0.74265 0.03154 0.49237 0.0
C763 C 0.66181 0.95728 0.50795 0.0
N764 N 0.75612 0.99732 0.40702 0.0
N765 N 0.66284 0.97829 0.61349 0.0
H766 H 0.61106 0.89538 0.48719 0.0
H767 H 0.60135 0.91888 0.55022 0.0
H768 H 0.67764 0.99881 0.65001 0.0
H769 H 0.63773 0.94875 0.62686 0.0
H770 H 0.78853 0.01965 0.40672 0.0
H771 H 0.74919 0.97167 0.3786 0.0
H772 H 0.79668 0.07685 0.44202 0.0
H773 H 0.79429 0.09182 0.51735 0.0
C774 C 0.74472 0.72747 0.63205 0.0
C775 C 0.71383 0.68742 0.60779 0.0
C776 C 0.67494 0.66859 0.70526 0.0
C777 C 0.70728 0.70729 0.73052 0.0
N778 N 0.77562 0.77124 0.72248 0.0
N779 N 0.65399 0.61642 0.62443 0.0
C780 C 0.743 0.73612 0.6952 0.0
C781 C 0.68003 0.65706 0.64512 0.0
N782 N 0.77467 0.75779 0.59428 0.0
N783 N 0.63885 0.64316 0.73835 0.0
H784 H 0.65593 0.60614 0.58062 0.0
H785 H 0.63257 0.59158 0.6524 0.0
H786 H 0.63478 0.64923 0.7838 0.0
H787 H 0.61163 0.61773 0.71952 0.0
H788 H 0.79505 0.78919 0.60752 0.0
H789 H 0.7771 0.75256 0.54794 0.0
H790 H 0.8047 0.79105 0.70115 0.0
H791 H 0.77488 0.77889 0.76841 0.0
C792 C 1.0053 0.74689 0.78996 0.0
C793 C 0.03331 0.73176 0.77275 0.0
C794 C 0.02875 0.70419 0.87619 0.0
C795 C 0.99326 0.7094 0.88771 0.0
N796 N 0.95051 0.74092 0.86017 0.0
N797 N 0.07177 0.6949 0.80024 0.0
C798 C 0.98298 0.73329 0.84658 0.0
C799 C 0.04564 0.71063 0.81625 0.0
N800 N 1.00042 0.77442 0.75233 0.0
N801 N 0.0467 0.69389 0.92329 0.0
H802 H 0.08673 0.70013 0.75795 0.0
H803 H 0.077 0.67463 0.82834 0.0
H804 H 0.03673 0.69296 0.96834 0.0
H805 H 0.07475 0.69256 0.91905 0.0
H806 H 0.98321 0.78943 0.76437 0.0
H807 H 0.01689 0.78526 0.71096 0.0
H808 H 0.93705 0.75241 0.82866 0.0
H809 H 0.93649 0.73487 0.90335 0.0
C810 C 0.34626 1.00449 0.03347 0.0
C811 C 0.31192 1.00504 0.06389 0.0
C812 C 0.30225 0.04202 0.97686 0.0
C813 C 0.33671 0.04103 0.94617 0.0
N814 N 0.3789 1.00654 0.93595 0.0
N815 N 0.25009 0.01371 0.05919 0.0
C816 C 0.35434 0.01712 0.97144 0.0
C817 C 0.28747 0.02023 0.0337 0.0
N818 N 0.37282 0.99441 0.06455 0.0
N819 N 0.2853 0.06572 0.95462 0.0
H820 H 0.23881 0.99853 0.10134 0.0
H821 H 0.22853 0.01994 0.03618 0.0
H822 H 0.29209 0.07982 0.91165 0.0
H823 H 0.26531 0.07286 0.98033 0.0
H824 H 0.4008 0.9976 0.0457 0.0
H825 H 0.36912 0.98688 0.11098 0.0
H826 H 0.38971 0.98614 0.95079 0.0
H827 H 0.38409 0.0142 0.88948 0.0
C828 C 0.48868 0.57311 0.96834 0.0
C829 C 0.50318 0.59412 0.91114 0.0
C830 C 0.44165 0.53541 0.8594 0.0
C831 C 0.42539 0.51626 0.91724 0.0
N832 N 0.43052 0.51789 0.02752 0.0
N833 N 0.49334 0.59752 0.80237 0.0
C834 C 0.44826 0.53526 0.97194 0.0
C835 C 0.47962 0.57583 0.85663 0.0
N836 N 0.51381 0.58923 0.0191 0.0
N837 N 0.42131 0.51426 0.80714 0.0
H838 H 0.52226 0.62586 0.79765 0.0
H839 H 0.47526 0.58882 0.7625 0.0
H840 H 0.39317 0.48487 0.8077 0.0
H841 H 0.43358 0.52405 0.76323 0.0
H842 H 0.50769 0.57299 0.06059 0.0
H843 H 0.54266 0.61794 0.01884 0.0
H844 H 0.44291 0.53267 0.06931 0.0
H845 H 0.40155 0.48963 0.03214 0.0
C846 C 0.93444 0.45745 0.15211 0.0
C847 C 0.9266 0.43241 0.09829 0.0
C848 C 0.91842 0.48565 0.03899 0.0
C849 C 0.92902 0.51193 0.09189 0.0
N850 N 0.95411 0.52661 0.19594 0.0
N851 N 0.919 0.42601 0.98859 0.0
C852 C 0.93911 0.49891 0.14766 0.0
C853 C 0.92089 0.44753 0.04111 0.0
N854 N 0.93575 0.44095 0.20792 0.0
N855 N 0.90446 0.49633 0.98732 0.0
H856 H 0.92084 0.39807 0.98848 0.0
H857 H 0.91943 0.43772 0.94485 0.0
H858 H 0.90242 0.52407 0.98362 0.0
H859 H 0.89165 0.47613 0.94979 0.0
H860 H 0.93616 0.4554 0.2494 0.0
H861 H 0.93321 0.41111 0.21328 0.0
H862 H 0.96649 0.52094 0.23558 0.0
H863 H 0.95747 0.55702 0.1944 0.0
C864 C 0.48651 0.90947 0.28956 0.0
C865 C 0.50874 0.9145 0.23344 0.0
C866 C 0.45364 0.92159 0.17742 0.0
C867 C 0.43047 0.91456 0.23307 0.0
N868 N 0.42251 0.89971 0.34131 0.0
N869 N 0.51341 0.92284 0.12379 0.0
C870 C 0.4464 0.90811 0.28901 0.0
C871 C 0.49231 0.92 0.17729 0.0
N872 N 0.504 0.90622 0.34346 0.0
N873 N 0.43871 0.93018 0.12483 0.0
H874 H 0.54284 0.92402 0.12241 0.0
H875 H 0.50127 0.92209 0.08039 0.0
H876 H 0.40953 0.92945 0.12234 0.0
H877 H 0.45583 0.94013 0.08403 0.0
H878 H 0.49247 0.90754 0.38663 0.0
H879 H 0.53165 0.90401 0.34568 0.0
H880 H 0.42934 0.88988 0.38243 0.0
H881 H 0.39418 0.90074 0.34322 0.0
C882 C 0.53708 0.43974 0.46023 0.0
C883 C 0.52103 0.41975 0.40291 0.0
C884 C 0.58546 0.47452 0.35098 0.0
C885 C 0.60072 0.49544 0.40793 0.0
N886 N 0.58906 0.50257 0.51515 0.0
N887 N 0.52559 0.42111 0.29261 0.0
C888 C 0.57582 0.47945 0.4621 0.0
C889 C 0.54398 0.43808 0.34788 0.0
N890 N 0.51606 0.41992 0.513 0.0
N891 N 0.61112 0.48891 0.30027 0.0
H892 H 0.49539 0.39424 0.2886 0.0
H893 H 0.53861 0.43538 0.25064 0.0
H894 H 0.64108 0.51636 0.30049 0.0
H895 H 0.60409 0.47234 0.25903 0.0
H896 H 0.52845 0.43019 0.55665 0.0
H897 H 0.48716 0.39125 0.51328 0.0
H898 H 0.57027 0.49523 0.55441 0.0
H899 H 0.61785 0.53116 0.51881 0.0
C900 C 0.10842 0.57014 0.64645 0.0
C901 C 0.10199 0.58703 0.5912 0.0
C902 C 0.10192 0.52867 0.53374 0.0
C903 C 0.10336 0.50922 0.58972 0.0
N904 N 0.09855 0.50715 0.70006 0.0
N905 N 0.08375 0.57747 0.48396 0.0
C906 C 0.10375 0.52868 0.64635 0.0
C907 C 0.09604 0.56479 0.53529 0.0
N908 N 0.12091 0.59435 0.6985 0.0
N909 N 0.10837 0.51416 0.47912 0.0
H910 H 0.07859 0.60345 0.48353 0.0
H911 H 0.07472 0.55977 0.44358 0.0
H912 H 0.11455 0.48894 0.47571 0.0
H913 H 0.11192 0.52994 0.4377 0.0
H914 H 0.13025 0.58517 0.73815 0.0
H915 H 0.12622 0.62548 0.70029 0.0
H916 H 0.09446 0.51822 0.74223 0.0
H917 H 0.09394 0.47626 0.70171 0.0
C918 C 0.5887 0.11395 0.77919 0.0
C919 C 0.60231 0.10691 0.72151 0.0
C920 C 0.53391 0.09132 0.67589 0.0
C921 C 0.52211 0.10245 0.73204 0.0
N922 N 0.53966 0.12901 0.83549 0.0
N923 N 0.59045 0.09311 0.6132 0.0
C924 C 0.54983 0.11489 0.78337 0.0
C925 C 0.57551 0.09655 0.66935 0.0
N926 N 0.61255 0.11882 0.83024 0.0
N927 N 0.50496 0.07498 0.62931 0.0
H928 H 0.62038 0.09595 0.6068 0.0
H929 H 0.57456 0.09037 0.57229 0.0
H930 H 0.4745 0.07132 0.63245 0.0
H931 H 0.50974 0.062 0.58951 0.0
H932 H 0.60224 0.11937 0.87465 0.0
H933 H 0.64146 0.1189 0.82873 0.0
H934 H 0.56067 0.14327 0.87176 0.0
H935 H 0.51112 0.12933 0.84098 0.0
loop_
_geom_bond_atom_site_label_1
_geom_bond_atom_site_label_2
_geom_bond_distance
_geom_bond_site_symmetry_2
_ccdc_geom_bond_type
C0 C1 1.351 . S
C0 N3 1.368 . S
C0 H5 0.931 . S
C1 C0 1.351 . S
C1 N2 1.373 . S
C1 H29 0.930 . S
N2 C1 1.373 . S
N2 C4 1.340 . S
N3 C0 1.368 . S
N3 C4 1.321 . S
N3 Co6 2.135 1_556 S
C4 N2 1.340 . S
C4 N3 1.321 . S
C4 H28 0.930 . S
H5 C0 0.931 . S
Co6 N3 2.135 1_554 S
Co6 N9 2.121 . S
Co6 O14 2.055 . S
Co6 O17 2.039 . S
Co6 N20 2.140 1_554 S
C7 O8 1.227 . S
C7 O17 1.265 . S
O8 C7 1.227 . S
N9 Co6 2.121 . S
N9 C11 1.375 . S
N9 C12 1.313 . S
C10 C11 1.338 . S
C10 N13 1.377 . S
C10 H30 0.930 . S
C11 N9 1.375 . S
C11 C10 1.338 . S
C11 H15 0.931 . S
C12 N9 1.313 . S
C12 N13 1.344 . S
C12 H16 0.930 . S
N13 C10 1.377 . S
N13 C12 1.344 . S
O14 Co6 2.055 . S
O14 C18 1.253 1_554 S
H15 C11 0.931 . S
H16 C12 0.930 . S
O17 Co6 2.039 . S
O17 C7 1.265 . S
C18 O14 1.253 1_556 S
C18 O19 1.227 . S
O19 C18 1.227 . S
N20 Co6 2.140 1_556 S
N20 C23 1.346 . S
N20 C24 1.345 . S
C21 C22 1.387 . S
C21 C25 1.391 . S
C22 C21 1.387 . S
C22 C23 1.369 . S
C22 H31 0.929 . S
C23 N20 1.346 . S
C23 C22 1.369 . S
C23 H26 0.928 . S
C24 N20 1.345 . S
C24 C25 1.371 . S
C24 H27 0.931 . S
C25 C21 1.391 . S
C25 C24 1.371 . S
C25 H32 0.930 . S
H26 C23 0.928 . S
H27 C24 0.931 . S
H28 C4 0.930 . S
H29 C1 0.930 . S
H30 C10 0.930 . S
H31 C22 0.929 . S
H32 C25 0.930 . S
C33 C34 1.351 1_554 S
C33 N36 1.368 . S
C33 H38 0.931 . S
C34 C33 1.351 1_556 S
C34 N35 1.373 1_556 S
C34 H62 0.930 . S
N35 C34 1.373 1_554 S
N35 C37 1.340 . S
N36 C33 1.368 . S
N36 C37 1.321 . S
N36 Co39 2.135 . S
C37 N35 1.340 . S
C37 N36 1.321 . S
C37 H61 0.930 . S
H38 C33 0.931 . S
Co39 N36 2.135 . S
Co39 N42 2.121 . S
Co39 O47 2.055 . S
Co39 O50 2.039 . S
Co39 N53 2.140 . S
C40 O41 1.227 . S
C40 O50 1.265 . S
O41 C40 1.227 . S
N42 Co39 2.121 . S
N42 C44 1.375 . S
N42 C45 1.313 . S
C43 C44 1.338 . S
C43 N46 1.377 . S
C43 H63 0.930 . S
C44 N42 1.375 . S
C44 C43 1.338 . S
C44 H48 0.931 . S
C45 N42 1.313 . S
C45 N46 1.344 . S
C45 H49 0.930 . S
N46 C43 1.377 . S
N46 C45 1.344 . S
O47 Co39 2.055 . S
O47 C51 1.253 . S
H48 C44 0.931 . S
H49 C45 0.930 . S
O50 Co39 2.039 . S
O50 C40 1.265 . S
C51 O47 1.253 . S
C51 O52 1.227 . S
O52 C51 1.227 . S
N53 Co39 2.140 . S
N53 C56 1.346 . S
N53 C57 1.345 . S
C54 C55 1.387 . S
C54 C58 1.391 . S
C55 C54 1.387 . S
C55 C56 1.369 . S
C55 H64 0.929 . S
C56 N53 1.346 . S
C56 C55 1.369 . S
C56 H59 0.928 . S
C57 N53 1.345 . S
C57 C58 1.371 . S
C57 H60 0.931 . S
C58 C54 1.391 . S
C58 C57 1.371 . S
C58 H65 0.930 . S
H59 C56 0.928 . S
H60 C57 0.931 . S
H61 C37 0.930 . S
H62 C34 0.930 . S
H63 C43 0.930 . S
H64 C55 0.929 . S
H65 C58 0.930 . S
C66 C67 1.351 . S
C66 N69 1.368 . S
C66 H71 0.931 . S
C67 C66 1.351 . S
C67 N68 1.373 . S
C67 H95 0.930 . S
N68 C67 1.373 . S
N68 C70 1.340 . S
N69 C66 1.368 . S
N69 C70 1.321 . S
N69 Co72 2.135 . S
C70 N68 1.340 . S
C70 N69 1.321 . S
C70 H94 0.930 . S
H71 C66 0.931 . S
Co72 N69 2.135 . S
Co72 N75 2.121 . S
Co72 O80 2.055 . S
Co72 O83 2.039 . S
Co72 N86 2.140 . S
C73 O74 1.227 . S
C73 O83 1.265 . S
O74 C73 1.227 . S
N75 Co72 2.121 . S
N75 C77 1.375 . S
N75 C78 1.313 . S
C76 C77 1.338 . S
C76 N79 1.377 . S
C76 H96 0.930 . S
C77 N75 1.375 . S
C77 C76 1.338 . S
C77 H81 0.931 . S
C78 N75 1.313 . S
C78 N79 1.344 . S
C78 H82 0.930 . S
N79 C76 1.377 . S
N79 C78 1.344 . S
O80 Co72 2.055 . S
O80 C84 1.253 . S
H81 C77 0.931 . S
H82 C78 0.930 . S
O83 Co72 2.039 . S
O83 C73 1.265 . S
C84 O80 1.253 . S
C84 O85 1.227 . S
O85 C84 1.227 . S
N86 Co72 2.140 . S
N86 C89 1.346 . S
N86 C90 1.345 . S
C87 C88 1.387 . S
C87 C91 1.391 . S
C88 C87 1.387 . S
C88 C89 1.369 . S
C88 H97 0.929 . S
C89 N86 1.346 . S
C89 C88 1.369 . S
C89 H92 0.928 . S
C90 N86 1.345 . S
C90 C91 1.371 . S
C90 H93 0.931 . S
C91 C87 1.391 . S
C91 C90 1.371 . S
C91 H98 0.930 . S
H92 C89 0.928 . S
H93 C90 0.931 . S
H94 C70 0.930 . S
H95 C67 0.930 . S
H96 C76 0.930 . S
H97 C88 0.929 . S
H98 C91 0.930 . S
C99 C100 1.351 . S
C99 N102 1.368 . S
C99 H104 0.931 . S
C100 C99 1.351 . S
C100 N101 1.373 . S
C100 H128 0.930 . S
N101 C100 1.373 . S
N101 C103 1.340 . S
N102 C99 1.368 . S
N102 C103 1.321 . S
N102 Co105 2.135 . S
C103 N101 1.340 . S
C103 N102 1.321 . S
C103 H127 0.930 . S
H104 C99 0.931 . S
Co105 N102 2.135 . S
Co105 N108 2.121 . S
Co105 O113 2.055 . S
Co105 O116 2.039 . S
Co105 N119 2.140 . S
C106 O107 1.227 . S
C106 O116 1.265 . S
O107 C106 1.227 . S
N108 Co105 2.121 . S
N108 C110 1.375 . S
N108 C111 1.313 . S
C109 C110 1.338 . S
C109 N112 1.377 . S
C109 H129 0.930 . S
C110 N108 1.375 . S
C110 C109 1.338 . S
C110 H114 0.931 . S
C111 N108 1.313 . S
C111 N112 1.344 . S
C111 H115 0.930 . S
N112 C109 1.377 . S
N112 C111 1.344 . S
O113 Co105 2.055 . S
O113 C117 1.253 . S
H114 C110 0.931 . S
H115 C111 0.930 . S
O116 Co105 2.039 . S
O116 C106 1.265 . S
C117 O113 1.253 . S
C117 O118 1.227 . S
O118 C117 1.227 . S
N119 Co105 2.140 . S
N119 C122 1.346 . S
N119 C123 1.345 . S
C120 C121 1.387 . S
C120 C124 1.391 . S
C121 C120 1.387 . S
C121 C122 1.369 . S
C121 H130 0.929 . S
C122 N119 1.346 . S
C122 C121 1.369 . S
C122 H125 0.928 . S
C123 N119 1.345 . S
C123 C124 1.371 . S
C123 H126 0.931 . S
C124 C120 1.391 . S
C124 C123 1.371 . S
C124 H131 0.930 . S
H125 C122 0.928 . S
H126 C123 0.931 . S
H127 C103 0.930 . S
H128 C100 0.930 . S
H129 C109 0.930 . S
H130 C121 0.929 . S
H131 C124 0.930 . S
C132 C133 1.351 . S
C132 N135 1.368 . S
C132 H137 0.931 . S
C133 C132 1.351 . S
C133 N134 1.373 . S
C133 H161 0.930 . S
N134 C133 1.373 . S
N134 C136 1.340 . S
N135 C132 1.368 . S
N135 C136 1.321 . S
N135 Co138 2.135 . S
C136 N134 1.340 . S
C136 N135 1.321 . S
C136 H160 0.930 . S
H137 C132 0.931 . S
Co138 N135 2.135 . S
Co138 N141 2.121 . S
Co138 O146 2.055 . S
Co138 O149 2.039 . S
Co138 N152 2.140 . S
C139 O140 1.227 . S
C139 O149 1.265 . S
O140 C139 1.227 . S
N141 Co138 2.121 . S
N141 C143 1.375 . S
N141 C144 1.313 . S
C142 C143 1.338 . S
C142 N145 1.377 . S
C142 H162 0.930 . S
C143 N141 1.375 . S
C143 C142 1.338 . S
C143 H147 0.931 . S
C144 N141 1.313 . S
C144 N145 1.344 . S
C144 H148 0.930 . S
N145 C142 1.377 . S
N145 C144 1.344 . S
O146 Co138 2.055 . S
O146 C150 1.253 . S
H147 C143 0.931 . S
H148 C144 0.930 . S
O149 Co138 2.039 . S
O149 C139 1.265 . S
C150 O146 1.253 . S
C150 O151 1.227 . S
O151 C150 1.227 . S
N152 Co138 2.140 . S
N152 C155 1.346 . S
N152 C156 1.345 . S
C153 C154 1.387 . S
C153 C157 1.391 . S
C154 C153 1.387 . S
C154 C155 1.369 . S
C154 H163 0.929 . S
C155 N152 1.346 . S
C155 C154 1.369 . S
C155 H158 0.928 . S
C156 N152 1.345 . S
C156 C157 1.371 . S
C156 H159 0.931 . S
C157 C153 1.391 . S
C157 C156 1.371 . S
C157 H164 0.930 . S
H158 C155 0.928 . S
H159 C156 0.931 . S
H160 C136 0.930 . S
H161 C133 0.930 . S
H162 C142 0.930 . S
H163 C154 0.929 . S
H164 C157 0.930 . S
C165 C166 1.351 . S
C165 N168 1.368 . S
C165 H170 0.931 . S
C166 C165 1.351 . S
C166 N167 1.373 . S
C166 H194 0.930 . S
N167 C166 1.373 . S
N167 C169 1.340 . S
N168 C165 1.368 . S
N168 C169 1.321 . S
N168 Co171 2.135 . S
C169 N167 1.340 . S
C169 N168 1.321 . S
C169 H193 0.930 . S
H170 C165 0.931 . S
Co171 N168 2.135 . S
Co171 N174 2.121 . S
Co171 O179 2.055 . S
Co171 O182 2.039 . S
Co171 N185 2.140 . S
C172 O173 1.227 . S
C172 O182 1.265 . S
O173 C172 1.227 . S
N174 Co171 2.121 . S
N174 C176 1.375 . S
N174 C177 1.313 . S
C175 C176 1.338 . S
C175 N178 1.377 . S
C175 H195 0.930 1_556 S
C176 N174 1.375 . S
C176 C175 1.338 . S
C176 H180 0.931 . S
C177 N174 1.313 . S
C177 N178 1.344 . S
C177 H181 0.930 . S
N178 C175 1.377 . S
N178 C177 1.344 . S
O179 Co171 2.055 . S
O179 C183 1.253 . S
H180 C176 0.931 . S
H181 C177 0.930 . S
O182 Co171 2.039 . S
O182 C172 1.265 . S
C183 O179 1.253 . S
C183 O184 1.227 . S
O184 C183 1.227 . S
N185 Co171 2.140 . S
N185 C188 1.346 . S
N185 C189 1.345 . S
C186 C187 1.387 . S
C186 C190 1.391 . S
C187 C186 1.387 . S
C187 C188 1.369 . S
C187 H196 0.929 . S
C188 N185 1.346 . S
C188 C187 1.369 . S
C188 H191 0.928 . S
C189 N185 1.345 . S
C189 C190 1.371 . S
C189 H192 0.931 . S
C190 C186 1.391 . S
C190 C189 1.371 . S
C190 H197 0.930 . S
H191 C188 0.928 . S
H192 C189 0.931 . S
H193 C169 0.930 . S
H194 C166 0.930 . S
H195 C175 0.930 1_554 S
H196 C187 0.929 . S
H197 C190 0.930 . S
C198 C199 1.351 1_556 S
C198 N201 1.368 . S
C198 H203 0.931 . S
C199 C198 1.351 1_554 S
C199 N200 1.373 1_554 S
C199 H227 0.930 . S
N200 C199 1.373 1_556 S
N200 C202 1.340 . S
N201 C198 1.368 . S
N201 C202 1.321 . S
N201 Co204 2.135 . S
C202 N200 1.340 . S
C202 N201 1.321 . S
C202 H226 0.930 . S
H203 C198 0.931 . S
Co204 N201 2.135 . S
Co204 N207 2.121 . S
Co204 O212 2.055 . S
Co204 O215 2.039 . S
Co204 N218 2.140 . S
C205 O206 1.227 . S
C205 O215 1.265 . S
O206 C205 1.227 . S
N207 Co204 2.121 . S
N207 C209 1.375 . S
N207 C210 1.313 . S
C208 C209 1.338 . S
C208 N211 1.377 . S
C208 H228 0.930 . S
C209 N207 1.375 . S
C209 C208 1.338 . S
C209 H213 0.931 . S
C210 N207 1.313 . S
C210 N211 1.344 . S
C210 H214 0.930 . S
N211 C208 1.377 . S
N211 C210 1.344 . S
O212 Co204 2.055 . S
O212 C216 1.253 . S
H213 C209 0.931 . S
H214 C210 0.930 . S
O215 Co204 2.039 . S
O215 C205 1.265 . S
C216 O212 1.253 . S
C216 O217 1.227 . S
O217 C216 1.227 . S
N218 Co204 2.140 . S
N218 C221 1.346 . S
N218 C222 1.345 . S
C219 C220 1.387 . S
C219 C223 1.391 . S
C220 C219 1.387 . S
C220 C221 1.369 . S
C220 H229 0.929 . S
C221 N218 1.346 . S
C221 C220 1.369 . S
C221 H224 0.928 . S
C222 N218 1.345 . S
C222 C223 1.371 . S
C222 H225 0.931 . S
C223 C219 1.391 . S
C223 C222 1.371 . S
C223 H230 0.930 . S
H224 C221 0.928 . S
H225 C222 0.931 . S
H226 C202 0.930 . S
H227 C199 0.930 . S
H228 C208 0.930 . S
H229 C220 0.929 . S
H230 C223 0.930 . S
C231 C232 1.351 . S
C231 N234 1.368 . S
C231 H236 0.931 . S
C232 C231 1.351 . S
C232 N233 1.373 . S
C232 H260 0.930 . S
N233 C232 1.373 . S
N233 C235 1.340 . S
N234 C231 1.368 . S
N234 C235 1.321 . S
N234 Co237 2.135 1_554 S
C235 N233 1.340 . S
C235 N234 1.321 . S
C235 H259 0.930 . S
H236 C231 0.931 . S
Co237 N234 2.135 1_556 S
Co237 N240 2.121 . S
Co237 O245 2.055 . S
Co237 O248 2.039 . S
Co237 N251 2.140 1_556 S
C238 O239 1.227 . S
C238 O248 1.265 . S
O239 C238 1.227 . S
N240 Co237 2.121 . S
N240 C242 1.375 . S
N240 C243 1.313 . S
C241 C242 1.338 . S
C241 N244 1.377 . S
C241 H261 0.930 . S
C242 N240 1.375 . S
C242 C241 1.338 . S
C242 H246 0.931 . S
C243 N240 1.313 . S
C243 N244 1.344 . S
C243 H247 0.930 . S
N244 C241 1.377 . S
N244 C243 1.344 . S
O245 Co237 2.055 . S
O245 C249 1.253 1_556 S
H246 C242 0.931 . S
H247 C243 0.930 . S
O248 Co237 2.039 . S
O248 C238 1.265 . S
C249 O245 1.253 1_554 S
C249 O250 1.227 . S
O250 C249 1.227 . S
N251 Co237 2.140 1_554 S
N251 C254 1.346 . S
N251 C255 1.345 . S
C252 C253 1.387 . S
C252 C256 1.391 . S
C253 C252 1.387 . S
C253 C254 1.369 . S
C253 H262 0.929 . S
C254 N251 1.346 . S
C254 C253 1.369 . S
C254 H257 0.928 . S
C255 N251 1.345 . S
C255 C256 1.371 . S
C255 H258 0.931 . S
C256 C252 1.391 . S
C256 C255 1.371 . S
C256 H263 0.930 . S
H257 C254 0.928 . S
H258 C255 0.931 . S
H259 C235 0.930 . S
H260 C232 0.930 . S
H261 C241 0.930 . S
H262 C253 0.929 . S
H263 C256 0.930 . S
C264 C265 1.351 . S
C264 N267 1.368 . S
C264 H269 0.931 . S
C265 C264 1.351 . S
C265 N266 1.373 . S
C265 H293 0.930 . S
N266 C265 1.373 . S
N266 C268 1.340 . S
N267 C264 1.368 . S
N267 C268 1.321 . S
N267 Co270 2.135 . S
C268 N266 1.340 . S
C268 N267 1.321 . S
C268 H292 0.930 . S
H269 C264 0.931 . S
Co270 N267 2.135 . S
Co270 N273 2.121 . S
Co270 O278 2.055 . S
Co270 O281 2.039 . S
Co270 N284 2.140 . S
C271 O272 1.227 . S
C271 O281 1.265 . S
O272 C271 1.227 . S
N273 Co270 2.121 . S
N273 C275 1.375 . S
N273 C276 1.313 . S
C274 C275 1.338 . S
C274 N277 1.377 . S
C274 H294 0.930 1_554 S
C275 N273 1.375 . S
C275 C274 1.338 . S
C275 H279 0.931 . S
C276 N273 1.313 . S
C276 N277 1.344 . S
C276 H280 0.930 . S
N277 C274 1.377 . S
N277 C276 1.344 . S
O278 Co270 2.055 . S
O278 C282 1.253 . S
H279 C275 0.931 . S
H280 C276 0.930 . S
O281 Co270 2.039 . S
O281 C271 1.265 . S
C282 O278 1.253 . S
C282 O283 1.227 . S
O283 C282 1.227 . S
N284 Co270 2.140 . S
N284 C287 1.346 . S
N284 C288 1.345 . S
C285 C286 1.387 . S
C285 C289 1.391 . S
C286 C285 1.387 . S
C286 C287 1.369 . S
C286 H295 0.929 . S
C287 N284 1.346 . S
C287 C286 1.369 . S
C287 H290 0.928 . S
C288 N284 1.345 . S
C288 C289 1.371 . S
C288 H291 0.931 . S
C289 C285 1.391 . S
C289 C288 1.371 . S
C289 H296 0.930 . S
H290 C287 0.928 . S
H291 C288 0.931 . S
H292 C268 0.930 . S
H293 C265 0.930 . S
H294 C274 0.930 1_556 S
H295 C286 0.929 . S
H296 C289 0.930 . S
C297 C298 1.351 . S
C297 N300 1.368 . S
C297 H302 0.931 . S
C298 C297 1.351 . S
C298 N299 1.373 . S
C298 H326 0.930 . S
N299 C298 1.373 . S
N299 C301 1.340 . S
N300 C297 1.368 . S
N300 C301 1.321 . S
N300 Co303 2.135 . S
C301 N299 1.340 . S
C301 N300 1.321 . S
C301 H325 0.930 . S
H302 C297 0.931 . S
Co303 N300 2.135 . S
Co303 N306 2.121 . S
Co303 O311 2.055 . S
Co303 O314 2.039 . S
Co303 N317 2.140 . S
C304 O305 1.227 . S
C304 O314 1.265 . S
O305 C304 1.227 . S
N306 Co303 2.121 . S
N306 C308 1.375 . S
N306 C309 1.313 . S
C307 C308 1.338 . S
C307 N310 1.377 . S
C307 H327 0.930 . S
C308 N306 1.375 . S
C308 C307 1.338 . S
C308 H312 0.931 . S
C309 N306 1.313 . S
C309 N310 1.344 . S
C309 H313 0.930 . S
N310 C307 1.377 . S
N310 C309 1.344 . S
O311 Co303 2.055 . S
O311 C315 1.253 . S
H312 C308 0.931 . S
H313 C309 0.930 . S
O314 Co303 2.039 . S
O314 C304 1.265 . S
C315 O311 1.253 . S
C315 O316 1.227 . S
O316 C315 1.227 . S
N317 Co303 2.140 . S
N317 C320 1.346 . S
N317 C321 1.345 . S
C318 C319 1.387 . S
C318 C322 1.391 . S
C319 C318 1.387 . S
C319 C320 1.369 . S
C319 H328 0.929 . S
C320 N317 1.346 . S
C320 C319 1.369 . S
C320 H323 0.928 . S
C321 N317 1.345 . S
C321 C322 1.371 . S
C321 H324 0.931 . S
C322 C318 1.391 . S
C322 C321 1.371 . S
C322 H329 0.930 . S
H323 C320 0.928 . S
H324 C321 0.931 . S
H325 C301 0.930 . S
H326 C298 0.930 . S
H327 C307 0.930 . S
H328 C319 0.929 . S
H329 C322 0.930 . S
C330 C331 1.351 . S
C330 N333 1.368 . S
C330 H335 0.931 . S
C331 C330 1.351 . S
C331 N332 1.373 . S
C331 H359 0.930 . S
N332 C331 1.373 . S
N332 C334 1.340 . S
N333 C330 1.368 . S
N333 C334 1.321 . S
N333 Co336 2.135 . S
C334 N332 1.340 . S
C334 N333 1.321 . S
C334 H358 0.930 . S
H335 C330 0.931 . S
Co336 N333 2.135 . S
Co336 N339 2.121 . S
Co336 O344 2.055 . S
Co336 O347 2.039 . S
Co336 N350 2.140 . S
C337 O338 1.227 . S
C337 O347 1.265 . S
O338 C337 1.227 . S
N339 Co336 2.121 . S
N339 C341 1.375 . S
N339 C342 1.313 . S
C340 C341 1.338 . S
C340 N343 1.377 . S
C340 H360 0.930 . S
C341 N339 1.375 . S
C341 C340 1.338 . S
C341 H345 0.931 . S
C342 N339 1.313 . S
C342 N343 1.344 . S
C342 H346 0.930 . S
N343 C340 1.377 . S
N343 C342 1.344 . S
O344 Co336 2.055 . S
O344 C348 1.253 . S
H345 C341 0.931 . S
H346 C342 0.930 . S
O347 Co336 2.039 . S
O347 C337 1.265 . S
C348 O344 1.253 . S
C348 O349 1.227 . S
O349 C348 1.227 . S
N350 Co336 2.140 . S
N350 C353 1.346 . S
N350 C354 1.345 . S
C351 C352 1.387 . S
C351 C355 1.391 . S
C352 C351 1.387 . S
C352 C353 1.369 . S
C352 H361 0.929 . S
C353 N350 1.346 . S
C353 C352 1.369 . S
C353 H356 0.928 . S
C354 N350 1.345 . S
C354 C355 1.371 . S
C354 H357 0.931 . S
C355 C351 1.391 . S
C355 C354 1.371 . S
C355 H362 0.930 . S
H356 C353 0.928 . S
H357 C354 0.931 . S
H358 C334 0.930 . S
H359 C331 0.930 . S
H360 C340 0.930 . S
H361 C352 0.929 . S
H362 C355 0.930 . S
C363 C364 1.351 . S
C363 N366 1.368 . S
C363 H368 0.931 . S
C364 C363 1.351 . S
C364 N365 1.373 . S
C364 H392 0.930 . S
N365 C364 1.373 . S
N365 C367 1.340 . S
N366 C363 1.368 . S
N366 C367 1.321 . S
N366 Co369 2.135 . S
C367 N365 1.340 . S
C367 N366 1.321 . S
C367 H391 0.930 . S
H368 C363 0.931 . S
Co369 N366 2.135 . S
Co369 N372 2.121 . S
Co369 O377 2.055 . S
Co369 O380 2.039 . S
Co369 N383 2.140 . S
C370 O371 1.227 . S
C370 O380 1.265 . S
O371 C370 1.227 . S
N372 Co369 2.121 . S
N372 C374 1.375 . S
N372 C375 1.313 . S
C373 C374 1.338 . S
C373 N376 1.377 . S
C373 H393 0.930 . S
C374 N372 1.375 . S
C374 C373 1.338 . S
C374 H378 0.931 . S
C375 N372 1.313 . S
C375 N376 1.344 . S
C375 H379 0.930 . S
N376 C373 1.377 . S
N376 C375 1.344 . S
O377 Co369 2.055 . S
O377 C381 1.253 . S
H378 C374 0.931 . S
H379 C375 0.930 . S
O380 Co369 2.039 . S
O380 C370 1.265 . S
C381 O377 1.253 . S
C381 O382 1.227 . S
O382 C381 1.227 . S
N383 Co369 2.140 . S
N383 C386 1.346 . S
N383 C387 1.345 . S
C384 C385 1.387 . S
C384 C388 1.391 . S
C385 C384 1.387 . S
C385 C386 1.369 . S
C385 H394 0.929 . S
C386 N383 1.346 . S
C386 C385 1.369 . S
C386 H389 0.928 . S
C387 N383 1.345 . S
C387 C388 1.371 . S
C387 H390 0.931 . S
C388 C384 1.391 . S
C388 C387 1.371 . S
C388 H395 0.930 . S
H389 C386 0.928 . S
H390 C387 0.931 . S
H391 C367 0.930 . S
H392 C364 0.930 . S
H393 C373 0.930 . S
H394 C385 0.929 . S
H395 C388 0.930 . S
C396 C397 1.363 . S
C396 C402 1.379 . S
C396 N404 1.356 . S
C397 C396 1.363 . S
C397 C403 1.363 . S
C398 C399 1.363 . S
C398 C403 1.379 . S
C398 N405 1.356 . S
C399 C398 1.363 . S
C399 C402 1.363 . S
N400 C402 1.356 . S
N400 H412 0.984 . S
N400 H413 0.985 . S
N401 C403 1.356 . S
N401 H406 0.984 . S
N401 H407 0.985 . S
C402 C396 1.379 . S
C402 C399 1.363 . S
C402 N400 1.356 . S
C403 C397 1.363 . S
C403 C398 1.379 . S
C403 N401 1.356 . S
N404 C396 1.356 . S
N404 H410 0.984 . S
N404 H411 0.984 . S
N405 C398 1.356 . S
N405 H408 0.984 . S
N405 H409 0.985 . S
H406 N401 0.984 . S
H407 N401 0.985 . S
H408 N405 0.984 . S
H409 N405 0.985 . S
H410 N404 0.984 . S
H411 N404 0.984 . S
H412 N400 0.984 . S
H413 N400 0.985 . S
C414 C415 1.363 . S
C414 C420 1.379 . S
C414 N422 1.356 . S
C415 C414 1.363 . S
C415 C421 1.363 . S
C416 C417 1.363 . S
C416 C421 1.379 . S
C416 N423 1.356 . S
C417 C416 1.363 . S
C417 C420 1.363 . S
N418 C420 1.356 . S
N418 H430 0.984 . S
N418 H431 0.985 . S
N419 C421 1.356 . S
N419 H424 0.984 . S
N419 H425 0.985 . S
C420 C414 1.379 . S
C420 C417 1.363 . S
C420 N418 1.356 . S
C421 C415 1.363 . S
C421 C416 1.379 . S
C421 N419 1.356 . S
N422 C414 1.356 . S
N422 H428 0.984 . S
N422 H429 0.984 . S
N423 C416 1.356 . S
N423 H426 0.984 . S
N423 H427 0.985 . S
H424 N419 0.984 . S
H425 N419 0.985 . S
H426 N423 0.984 . S
H427 N423 0.985 . S
H428 N422 0.984 . S
H429 N422 0.984 . S
H430 N418 0.984 . S
H431 N418 0.985 . S
C432 C433 1.363 . S
C432 C438 1.379 . S
C432 N440 1.356 . S
C433 C432 1.363 . S
C433 C439 1.363 . S
C434 C435 1.363 . S
C434 C439 1.379 . S
C434 N441 1.356 . S
C435 C434 1.363 . S
C435 C438 1.363 . S
N436 C438 1.356 . S
N436 H448 0.984 . S
N436 H449 0.985 . S
N437 C439 1.356 . S
N437 H442 0.984 . S
N437 H443 0.985 . S
C438 C432 1.379 . S
C438 C435 1.363 . S
C438 N436 1.356 . S
C439 C433 1.363 . S
C439 C434 1.379 . S
C439 N437 1.356 . S
N440 C432 1.356 . S
N440 H446 0.984 . S
N440 H447 0.984 . S
N441 C434 1.356 . S
N441 H444 0.984 . S
N441 H445 0.985 . S
H442 N437 0.984 . S
H443 N437 0.985 . S
H444 N441 0.984 . S
H445 N441 0.985 . S
H446 N440 0.984 . S
H447 N440 0.984 . S
H448 N436 0.984 . S
H449 N436 0.985 . S
C450 C451 1.363 . S
C450 C456 1.379 . S
C450 N458 1.356 . S
C451 C450 1.363 . S
C451 C457 1.363 . S
C452 C453 1.363 . S
C452 C457 1.379 . S
C452 N459 1.356 . S
C453 C452 1.363 . S
C453 C456 1.363 . S
N454 C456 1.356 . S
N454 H466 0.984 . S
N454 H467 0.985 . S
N455 C457 1.356 . S
N455 H460 0.984 . S
N455 H461 0.985 . S
C456 C450 1.379 . S
C456 C453 1.363 . S
C456 N454 1.356 . S
C457 C451 1.363 . S
C457 C452 1.379 . S
C457 N455 1.356 . S
N458 C450 1.356 . S
N458 H464 0.984 . S
N458 H465 0.984 . S
N459 C452 1.356 . S
N459 H462 0.984 . S
N459 H463 0.985 . S
H460 N455 0.984 . S
H461 N455 0.985 . S
H462 N459 0.984 . S
H463 N459 0.985 . S
H464 N458 0.984 . S
H465 N458 0.984 . S
H466 N454 0.984 . S
H467 N454 0.985 . S
C468 C469 1.363 . S
C468 C474 1.379 . S
C468 N476 1.356 . S
C469 C468 1.363 . S
C469 C475 1.363 . S
C470 C471 1.363 . S
C470 C475 1.379 . S
C470 N477 1.356 . S
C471 C470 1.363 . S
C471 C474 1.363 . S
N472 C474 1.356 . S
N472 H484 0.984 . S
N472 H485 0.985 1_556 S
N473 C475 1.356 . S
N473 H478 0.984 . S
N473 H479 0.985 . S
C474 C468 1.379 . S
C474 C471 1.363 . S
C474 N472 1.356 . S
C475 C469 1.363 . S
C475 C470 1.379 . S
C475 N473 1.356 . S
N476 C468 1.356 . S
N476 H482 0.984 . S
N476 H483 0.984 . S
N477 C470 1.356 . S
N477 H480 0.984 1_556 S
N477 H481 0.985 . S
H478 N473 0.984 . S
H479 N473 0.985 . S
H480 N477 0.984 1_554 S
H481 N477 0.985 . S
H482 N476 0.984 . S
H483 N476 0.984 . S
H484 N472 0.984 . S
H485 N472 0.985 1_554 S
C486 C487 1.363 . S
C486 C492 1.379 . S
C486 N494 1.356 . S
C487 C486 1.363 . S
C487 C493 1.363 . S
C488 C489 1.363 . S
C488 C493 1.379 . S
C488 N495 1.356 . S
C489 C488 1.363 . S
C489 C492 1.363 . S
N490 C492 1.356 . S
N490 H502 0.984 . S
N490 H503 0.985 . S
N491 C493 1.356 . S
N491 H496 0.984 1_554 S
N491 H497 0.985 . S
C492 C486 1.379 . S
C492 C489 1.363 . S
C492 N490 1.356 . S
C493 C487 1.363 . S
C493 C488 1.379 . S
C493 N491 1.356 . S
N494 C486 1.356 . S
N494 H500 0.984 . S
N494 H501 0.984 1_554 S
N495 C488 1.356 . S
N495 H498 0.984 . S
N495 H499 0.985 . S
H496 N491 0.984 1_556 S
H497 N491 0.985 . S
H498 N495 0.984 . S
H499 N495 0.985 . S
H500 N494 0.984 . S
H501 N494 0.984 1_556 S
H502 N490 0.984 . S
H503 N490 0.985 . S
C504 C505 1.363 . S
C504 C510 1.379 . S
C504 N512 1.356 . S
C505 C504 1.363 . S
C505 C511 1.363 . S
C506 C507 1.363 . S
C506 C511 1.379 . S
C506 N513 1.356 . S
C507 C506 1.363 . S
C507 C510 1.363 . S
N508 C510 1.356 . S
N508 H520 0.984 . S
N508 H521 0.985 . S
N509 C511 1.356 . S
N509 H514 0.984 . S
N509 H515 0.985 . S
C510 C504 1.379 . S
C510 C507 1.363 . S
C510 N508 1.356 . S
C511 C505 1.363 . S
C511 C506 1.379 . S
C511 N509 1.356 . S
N512 C504 1.356 . S
N512 H518 0.984 . S
N512 H519 0.984 . S
N513 C506 1.356 . S
N513 H516 0.984 . S
N513 H517 0.985 . S
H514 N509 0.984 . S
H515 N509 0.985 . S
H516 N513 0.984 . S
H517 N513 0.985 . S
H518 N512 0.984 . S
H519 N512 0.984 . S
H520 N508 0.984 . S
H521 N508 0.985 . S
C522 C523 1.363 1_554 S
C522 C528 1.379 . S
C522 N530 1.356 . S
C523 C522 1.363 1_556 S
C523 C529 1.363 . S
C524 C525 1.363 . S
C524 C529 1.379 . S
C524 N531 1.356 . S
C525 C524 1.363 . S
C525 C528 1.363 1_556 S
N526 C528 1.356 . S
N526 H538 0.984 . S
N526 H539 0.985 . S
N527 C529 1.356 . S
N527 H532 0.984 . S
N527 H533 0.985 . S
C528 C522 1.379 . S
C528 C525 1.363 1_554 S
C528 N526 1.356 . S
C529 C523 1.363 . S
C529 C524 1.379 . S
C529 N527 1.356 . S
N530 C522 1.356 . S
N530 H536 0.984 . S
N530 H537 0.984 . S
N531 C524 1.356 . S
N531 H534 0.984 1_455 S
N531 H535 0.985 . S
H532 N527 0.984 . S
H533 N527 0.985 . S
H534 N531 0.984 1_655 S
H535 N531 0.985 . S
H536 N530 0.984 . S
H537 N530 0.984 . S
H538 N526 0.984 . S
H539 N526 0.985 . S
C540 C541 1.363 . S
C540 C546 1.379 . S
C540 N548 1.356 . S
C541 C540 1.363 . S
C541 C547 1.363 . S
C542 C543 1.363 . S
C542 C547 1.379 . S
C542 N549 1.356 . S
C543 C542 1.363 . S
C543 C546 1.363 . S
N544 C546 1.356 . S
N544 H556 0.984 . S
N544 H557 0.985 1_545 S
N545 C547 1.356 . S
N545 H550 0.984 . S
N545 H551 0.985 . S
C546 C540 1.379 . S
C546 C543 1.363 . S
C546 N544 1.356 . S
C547 C541 1.363 . S
C547 C542 1.379 . S
C547 N545 1.356 . S
N548 C540 1.356 . S
N548 H554 0.984 . S
N548 H555 0.984 . S
N549 C542 1.356 . S
N549 H552 0.984 1_545 S
N549 H553 0.985 . S
H550 N545 0.984 . S
H551 N545 0.985 . S
H552 N549 0.984 1_565 S
H553 N549 0.985 . S
H554 N548 0.984 . S
H555 N548 0.984 . S
H556 N544 0.984 . S
H557 N544 0.985 1_565 S
C558 C559 1.363 . S
C558 C564 1.379 . S
C558 N566 1.356 . S
C559 C558 1.363 . S
C559 C565 1.363 . S
C560 C561 1.363 . S
C560 C565 1.379 . S
C560 N567 1.356 . S
C561 C560 1.363 . S
C561 C564 1.363 . S
N562 C564 1.356 . S
N562 H574 0.984 . S
N562 H575 0.985 . S
N563 C565 1.356 . S
N563 H568 0.984 . S
N563 H569 0.985 . S
C564 C558 1.379 . S
C564 C561 1.363 . S
C564 N562 1.356 . S
C565 C559 1.363 . S
C565 C560 1.379 . S
C565 N563 1.356 . S
N566 C558 1.356 . S
N566 H572 0.984 . S
N566 H573 0.984 . S
N567 C560 1.356 . S
N567 H570 0.984 . S
N567 H571 0.985 . S
H568 N563 0.984 . S
H569 N563 0.985 . S
H570 N567 0.984 . S
H571 N567 0.985 . S
H572 N566 0.984 . S
H573 N566 0.984 . S
H574 N562 0.984 . S
H575 N562 0.985 . S
C576 C577 1.363 . S
C576 C582 1.379 . S
C576 N584 1.356 . S
C577 C576 1.363 . S
C577 C583 1.363 . S
C578 C579 1.363 . S
C578 C583 1.379 . S
C578 N585 1.356 . S
C579 C578 1.363 . S
C579 C582 1.363 . S
N580 C582 1.356 . S
N580 H592 0.984 . S
N580 H593 0.985 . S
N581 C583 1.356 . S
N581 H586 0.984 1_655 S
N581 H587 0.987 1_655 S
C582 C576 1.379 . S
C582 C579 1.363 . S
C582 N580 1.356 . S
C583 C577 1.363 . S
C583 C578 1.379 . S
C583 N581 1.356 . S
N584 C576 1.356 . S
N584 H590 0.984 . S
N584 H591 0.984 . S
N585 C578 1.356 . S
N585 H588 0.984 . S
N585 H589 0.985 . S
H586 N581 0.984 1_455 S
H587 N581 0.987 1_455 S
H588 N585 0.984 . S
H589 N585 0.985 . S
H590 N584 0.984 . S
H591 N584 0.984 . S
H592 N580 0.984 . S
H593 N580 0.985 . S
C594 C595 1.363 . S
C594 C600 1.379 . S
C594 N602 1.356 . S
C595 C594 1.363 . S
C595 C601 1.363 . S
C596 C597 1.363 . S
C596 C601 1.379 . S
C596 N603 1.356 . S
C597 C596 1.363 . S
C597 C600 1.363 . S
N598 C600 1.356 . S
N598 H610 0.984 . S
N598 H611 0.985 . S
N599 C601 1.340 1_545 S
N599 H604 0.994 . S
N599 H605 0.992 . S
C600 C594 1.379 . S
C600 C597 1.363 . S
C600 N598 1.356 . S
C601 C595 1.363 . S
C601 C596 1.379 . S
C601 N599 1.340 1_565 S
N602 C594 1.356 . S
N602 H608 0.984 . S
N602 H609 0.984 . S
N603 C596 1.356 . S
N603 H606 0.984 . S
N603 H607 0.985 . S
H604 N599 0.994 . S
H605 N599 0.992 . S
H606 N603 0.984 . S
H607 N603 0.985 . S
H608 N602 0.984 . S
H609 N602 0.984 . S
H610 N598 0.984 . S
H611 N598 0.985 . S
C612 C613 1.363 . S
C612 C618 1.379 . S
C612 N620 1.356 . S
C613 C612 1.363 . S
C613 C619 1.363 1_554 S
C614 C615 1.363 1_556 S
C614 C619 1.379 . S
C614 N621 1.356 . S
C615 C614 1.363 1_554 S
C615 C618 1.363 . S
N616 C618 1.356 . S
N616 H628 0.984 . S
N616 H629 0.985 . S
N617 C619 1.356 . S
N617 H622 0.984 . S
N617 H623 0.985 . S
C618 C612 1.379 . S
C618 C615 1.363 . S
C618 N616 1.356 . S
C619 C613 1.363 1_556 S
C619 C614 1.379 . S
C619 N617 1.356 . S
N620 C612 1.356 . S
N620 H626 0.984 . S
N620 H627 0.984 . S
N621 C614 1.356 . S
N621 H624 0.984 . S
N621 H625 0.985 . S
H622 N617 0.984 . S
H623 N617 0.985 . S
H624 N621 0.984 . S
H625 N621 0.985 . S
H626 N620 0.984 . S
H627 N620 0.984 . S
H628 N616 0.984 . S
H629 N616 0.985 . S
C630 C631 1.363 . S
C630 C636 1.379 . S
C630 N638 1.356 . S
C631 C630 1.363 . S
C631 C637 1.363 . S
C632 C633 1.363 . S
C632 C637 1.379 . S
C632 N639 1.356 . S
C633 C632 1.363 . S
C633 C636 1.363 . S
N634 C636 1.356 . S
N634 H646 0.984 . S
N634 H647 0.985 . S
N635 C637 1.356 . S
N635 H640 0.984 1_455 S
N635 H641 0.985 . S
C636 C630 1.379 . S
C636 C633 1.363 . S
C636 N634 1.356 . S
C637 C631 1.363 . S
C637 C632 1.379 . S
C637 N635 1.356 . S
N638 C630 1.356 . S
N638 H644 0.984 . S
N638 H645 0.984 . S
N639 C632 1.356 . S
N639 H642 0.984 . S
N639 H643 0.985 . S
H640 N635 0.984 1_655 S
H641 N635 0.985 . S
H642 N639 0.984 . S
H643 N639 0.985 . S
H644 N638 0.984 . S
H645 N638 0.984 . S
H646 N634 0.984 . S
H647 N634 0.985 . S
C648 C649 1.363 . S
C648 C654 1.379 . S
C648 N656 1.356 . S
C649 C648 1.363 . S
C649 C655 1.363 . S
C650 C651 1.363 . S
C650 C655 1.379 . S
C650 N657 1.356 . S
C651 C650 1.363 . S
C651 C654 1.363 . S
N652 C654 1.356 . S
N652 H664 0.984 . S
N652 H665 0.985 . S
N653 C655 1.356 . S
N653 H658 0.984 1_545 S
N653 H659 0.973 . S
C654 C648 1.379 . S
C654 C651 1.363 . S
C654 N652 1.356 . S
C655 C649 1.363 . S
C655 C650 1.379 . S
C655 N653 1.356 . S
N656 C648 1.356 . S
N656 H662 0.984 . S
N656 H663 0.984 . S
N657 C650 1.356 . S
N657 H660 0.984 . S
N657 H661 0.985 . S
H658 N653 0.984 1_565 S
H659 N653 0.973 . S
H660 N657 0.984 . S
H661 N657 0.985 . S
H662 N656 0.984 . S
H663 N656 0.984 . S
H664 N652 0.984 . S
H665 N652 0.985 . S
C666 C667 1.363 . S
C666 C672 1.379 . S
C666 N674 1.356 . S
C667 C666 1.363 . S
C667 C673 1.363 . S
C668 C669 1.363 . S
C668 C673 1.379 . S
C668 N675 1.356 . S
C669 C668 1.363 . S
C669 C672 1.363 . S
N670 C672 1.356 . S
N670 H682 0.984 . S
N670 H683 0.985 . S
N671 C673 1.356 . S
N671 H676 0.984 . S
N671 H677 0.985 . S
C672 C666 1.379 . S
C672 C669 1.363 . S
C672 N670 1.356 . S
C673 C667 1.363 . S
C673 C668 1.379 . S
C673 N671 1.356 . S
N674 C666 1.356 . S
N674 H680 0.984 . S
N674 H681 0.984 . S
N675 C668 1.356 . S
N675 H678 0.984 . S
N675 H679 0.985 . S
H676 N671 0.984 . S
H677 N671 0.985 . S
H678 N675 0.984 . S
H679 N675 0.985 . S
H680 N674 0.984 . S
H681 N674 0.984 . S
H682 N670 0.984 . S
H683 N670 0.985 . S
C684 C685 1.363 . S
C684 C690 1.379 . S
C684 N692 1.356 . S
C685 C684 1.363 . S
C685 C691 1.363 . S
C686 C687 1.363 . S
C686 C691 1.379 . S
C686 N693 1.356 . S
C687 C686 1.363 . S
C687 C690 1.363 . S
N688 C690 1.356 . S
N688 H700 0.984 . S
N688 H701 0.985 . S
N689 C691 1.356 . S
N689 H694 0.984 . S
N689 H695 0.985 . S
C690 C684 1.379 . S
C690 C687 1.363 . S
C690 N688 1.356 . S
C691 C685 1.363 . S
C691 C686 1.379 . S
C691 N689 1.356 . S
N692 C684 1.356 . S
N692 H698 0.984 . S
N692 H699 0.984 1_655 S
N693 C686 1.356 . S
N693 H696 0.984 . S
N693 H697 0.985 . S
H694 N689 0.984 . S
H695 N689 0.985 . S
H696 N693 0.984 . S
H697 N693 0.985 . S
H698 N692 0.984 . S
H699 N692 0.984 1_455 S
H700 N688 0.984 . S
H701 N688 0.985 . S
C702 C703 1.363 . S
C702 C708 1.379 . S
C702 N710 1.356 . S
C703 C702 1.363 . S
C703 C709 1.363 . S
C704 C705 1.363 . S
C704 C709 1.379 . S
C704 N711 1.356 . S
C705 C704 1.363 . S
C705 C708 1.363 . S
N706 C708 1.356 . S
N706 H718 0.984 . S
N706 H719 0.985 . S
N707 C709 1.356 . S
N707 H712 0.984 . S
N707 H713 0.985 . S
C708 C702 1.379 . S
C708 C705 1.363 . S
C708 N706 1.356 . S
C709 C703 1.363 . S
C709 C704 1.379 . S
C709 N707 1.356 . S
N710 C702 1.356 . S
N710 H716 0.985 1_565 S
N710 H717 0.984 1_565 S
N711 C704 1.356 . S
N711 H714 0.984 . S
N711 H715 0.985 . S
H712 N707 0.984 . S
H713 N707 0.985 . S
H714 N711 0.984 . S
H715 N711 0.985 . S
H716 N710 0.985 1_545 S
H717 N710 0.984 1_545 S
H718 N706 0.984 . S
H719 N706 0.985 . S
C720 C721 1.363 . S
C720 C726 1.379 . S
C720 N728 1.356 . S
C721 C720 1.363 . S
C721 C727 1.363 . S
C722 C723 1.363 . S
C722 C727 1.379 . S
C722 N729 1.356 . S
C723 C722 1.363 . S
C723 C726 1.363 . S
N724 C726 1.356 . S
N724 H736 0.984 . S
N724 H737 0.985 . S
N725 C727 1.356 . S
N725 H730 0.984 . S
N725 H731 0.985 . S
C726 C720 1.379 . S
C726 C723 1.363 . S
C726 N724 1.356 . S
C727 C721 1.363 . S
C727 C722 1.379 . S
C727 N725 1.356 . S
N728 C720 1.356 . S
N728 H734 0.984 . S
N728 H735 0.984 . S
N729 C722 1.356 . S
N729 H732 0.984 . S
N729 H733 0.985 . S
H730 N725 0.984 . S
H731 N725 0.985 . S
H732 N729 0.984 . S
H733 N729 0.985 . S
H734 N728 0.984 . S
H735 N728 0.984 . S
H736 N724 0.984 . S
H737 N724 0.985 . S
C738 C739 1.363 1_455 S
C738 C744 1.379 . S
C738 N746 1.356 . S
C739 C738 1.363 1_655 S
C739 C745 1.363 . S
C740 C741 1.363 1_655 S
C740 C745 1.379 . S
C740 N747 1.356 . S
C741 C740 1.363 1_455 S
C741 C744 1.363 . S
N742 C744 1.356 . S
N742 H754 0.984 . S
N742 H755 0.985 . S
N743 C745 1.356 . S
N743 H748 0.984 . S
N743 H749 0.985 . S
C744 C738 1.379 . S
C744 C741 1.363 . S
C744 N742 1.356 . S
C745 C739 1.363 . S
C745 C740 1.379 . S
C745 N743 1.356 . S
N746 C738 1.356 . S
N746 H752 0.984 . S
N746 H753 0.984 . S
N747 C740 1.356 . S
N747 H750 0.984 . S
N747 H751 0.985 . S
H748 N743 0.984 . S
H749 N743 0.985 . S
H750 N747 0.984 . S
H751 N747 0.985 . S
H752 N746 0.984 . S
H753 N746 0.984 . S
H754 N742 0.984 . S
H755 N742 0.985 . S
C756 C757 1.363 1_545 S
C756 C762 1.379 . S
C756 N764 1.356 . S
C757 C756 1.363 1_565 S
C757 C763 1.363 . S
C758 C759 1.363 1_565 S
C758 C763 1.379 . S
C758 N765 1.356 . S
C759 C758 1.363 1_545 S
C759 C762 1.363 . S
N760 C762 1.356 . S
N760 H772 0.984 . S
N760 H773 0.985 . S
N761 C763 1.356 . S
N761 H766 0.984 . S
N761 H767 0.985 . S
C762 C756 1.379 . S
C762 C759 1.363 . S
C762 N760 1.356 . S
C763 C757 1.363 . S
C763 C758 1.379 . S
C763 N761 1.356 . S
N764 C756 1.356 . S
N764 H770 0.984 . S
N764 H771 0.984 . S
N765 C758 1.356 . S
N765 H768 0.984 . S
N765 H769 0.985 . S
H766 N761 0.984 . S
H767 N761 0.985 . S
H768 N765 0.984 . S
H769 N765 0.985 . S
H770 N764 0.984 . S
H771 N764 0.984 . S
H772 N760 0.984 . S
H773 N760 0.985 . S
C774 C775 1.363 . S
C774 C780 1.379 . S
C774 N782 1.356 . S
C775 C774 1.363 . S
C775 C781 1.363 . S
C776 C777 1.363 . S
C776 C781 1.379 . S
C776 N783 1.356 . S
C777 C776 1.363 . S
C777 C780 1.363 . S
N778 C780 1.356 . S
N778 H790 0.984 . S
N778 H791 0.985 . S
N779 C781 1.356 . S
N779 H784 0.984 . S
N779 H785 0.985 . S
C780 C774 1.379 . S
C780 C777 1.363 . S
C780 N778 1.356 . S
C781 C775 1.363 . S
C781 C776 1.379 . S
C781 N779 1.356 . S
N782 C774 1.356 . S
N782 H788 0.984 . S
N782 H789 0.984 . S
N783 C776 1.356 . S
N783 H786 0.984 . S
N783 H787 0.985 . S
H784 N779 0.984 . S
H785 N779 0.985 . S
H786 N783 0.984 . S
H787 N783 0.985 . S
H788 N782 0.984 . S
H789 N782 0.984 . S
H790 N778 0.984 . S
H791 N778 0.985 . S
C792 C793 1.386 . S
C792 C798 1.370 1_455 S
C792 N800 1.348 . S
C793 C792 1.386 . S
C793 C799 1.363 . S
C794 C795 1.363 1_455 S
C794 C799 1.379 . S
C794 N801 1.356 1_455 S
C795 C794 1.363 1_655 S
C795 C798 1.363 . S
N796 C798 1.356 . S
N796 H808 0.984 . S
N796 H809 0.985 . S
N797 C799 1.356 . S
N797 H802 0.984 . S
N797 H803 0.985 . S
C798 C792 1.370 1_655 S
C798 C795 1.363 . S
C798 N796 1.356 . S
C799 C793 1.363 . S
C799 C794 1.379 . S
C799 N797 1.356 . S
N800 C792 1.348 . S
N800 H806 0.984 1_455 S
N800 H807 0.984 . S
N801 C794 1.356 1_655 S
N801 H804 0.984 . S
N801 H805 0.985 1_655 S
H802 N797 0.984 . S
H803 N797 0.985 . S
H804 N801 0.984 . S
H805 N801 0.985 1_455 S
H806 N800 0.984 1_655 S
H807 N800 0.984 . S
H808 N796 0.984 . S
H809 N796 0.985 . S
C810 C811 1.363 . S
C810 C816 1.379 1_554 S
C810 N818 1.356 . S
C811 C810 1.363 . S
C811 C817 1.363 1_565 S
C812 C813 1.363 . S
C812 C817 1.379 1_556 S
C812 N819 1.356 . S
C813 C812 1.363 . S
C813 C816 1.363 1_545 S
N814 C816 1.356 . S
N814 H826 0.984 . S
N814 H827 0.985 . S
N815 C817 1.356 . S
N815 H820 0.984 . S
N815 H821 0.985 . S
C816 C810 1.379 1_556 S
C816 C813 1.363 1_565 S
C816 N814 1.356 . S
C817 C811 1.363 1_545 S
C817 C812 1.379 1_554 S
C817 N815 1.356 . S
N818 C810 1.356 . S
N818 H824 0.984 . S
N818 H825 0.984 . S
N819 C812 1.356 . S
N819 H822 0.984 . S
N819 H823 0.985 . S
H820 N815 0.984 . S
H821 N815 0.985 . S
H822 N819 0.984 . S
H823 N819 0.985 . S
H824 N818 0.984 . S
H825 N818 0.984 . S
H826 N814 0.984 . S
H827 N814 0.985 . S
C828 C829 1.363 . S
C828 C834 1.379 . S
C828 N836 1.356 . S
C829 C828 1.363 . S
C829 C835 1.363 . S
C830 C831 1.363 . S
C830 C835 1.379 . S
C830 N837 1.356 . S
C831 C830 1.363 . S
C831 C834 1.363 . S
N832 C834 1.356 . S
N832 H844 0.984 . S
N832 H845 0.985 . S
N833 C835 1.356 . S
N833 H838 0.984 . S
N833 H839 0.985 . S
C834 C828 1.379 . S
C834 C831 1.363 . S
C834 N832 1.356 . S
C835 C829 1.363 . S
C835 C830 1.379 . S
C835 N833 1.356 . S
N836 C828 1.356 . S
N836 H842 0.984 1_556 S
N836 H843 0.984 . S
N837 C830 1.356 . S
N837 H840 0.984 . S
N837 H841 0.985 . S
H838 N833 0.984 . S
H839 N833 0.985 . S
H840 N837 0.984 . S
H841 N837 0.985 . S
H842 N836 0.984 1_554 S
H843 N836 0.984 . S
H844 N832 0.984 . S
H845 N832 0.985 . S
C846 C847 1.363 . S
C846 C852 1.379 . S
C846 N854 1.356 . S
C847 C846 1.363 . S
C847 C853 1.363 . S
C848 C849 1.363 . S
C848 C853 1.379 . S
C848 N855 1.356 . S
C849 C848 1.363 . S
C849 C852 1.363 . S
N850 C852 1.356 . S
N850 H862 0.984 . S
N850 H863 0.985 . S
N851 C853 1.356 1_556 S
N851 H856 0.984 . S
N851 H857 0.985 . S
C852 C846 1.379 . S
C852 C849 1.363 . S
C852 N850 1.356 . S
C853 C847 1.363 . S
C853 C848 1.379 . S
C853 N851 1.356 1_554 S
N854 C846 1.356 . S
N854 H860 0.984 . S
N854 H861 0.984 . S
N855 C848 1.356 . S
N855 H858 0.984 . S
N855 H859 0.985 1_554 S
H856 N851 0.984 . S
H857 N851 0.985 . S
H858 N855 0.984 . S
H859 N855 0.985 1_556 S
H860 N854 0.984 . S
H861 N854 0.984 . S
H862 N850 0.984 . S
H863 N850 0.985 . S
C864 C865 1.363 . S
C864 C870 1.379 . S
C864 N872 1.356 . S
C865 C864 1.363 . S
C865 C871 1.363 . S
C866 C867 1.363 . S
C866 C871 1.379 . S
C866 N873 1.356 . S
C867 C866 1.363 . S
C867 C870 1.363 . S
N868 C870 1.356 . S
N868 H880 0.984 . S
N868 H881 0.985 . S
N869 C871 1.356 . S
N869 H874 0.984 . S
N869 H875 0.985 . S
C870 C864 1.379 . S
C870 C867 1.363 . S
C870 N868 1.356 . S
C871 C865 1.363 . S
C871 C866 1.379 . S
C871 N869 1.356 . S
N872 C864 1.356 . S
N872 H878 0.984 . S
N872 H879 0.984 . S
N873 C866 1.356 . S
N873 H876 0.984 . S
N873 H877 0.985 . S
H874 N869 0.984 . S
H875 N869 0.985 . S
H876 N873 0.984 . S
H877 N873 0.985 . S
H878 N872 0.984 . S
H879 N872 0.984 . S
H880 N868 0.984 . S
H881 N868 0.985 . S
C882 C883 1.363 . S
C882 C888 1.379 . S
C882 N890 1.356 . S
C883 C882 1.363 . S
C883 C889 1.363 . S
C884 C885 1.363 . S
C884 C889 1.379 . S
C884 N891 1.356 . S
C885 C884 1.363 . S
C885 C888 1.363 . S
N886 C888 1.356 . S
N886 H898 0.984 . S
N886 H899 0.985 . S
N887 C889 1.356 . S
N887 H892 0.984 . S
N887 H893 0.985 . S
C888 C882 1.379 . S
C888 C885 1.363 . S
C888 N886 1.356 . S
C889 C883 1.363 . S
C889 C884 1.379 . S
C889 N887 1.356 . S
N890 C882 1.356 . S
N890 H896 0.984 . S
N890 H897 0.984 . S
N891 C884 1.356 . S
N891 H894 0.984 . S
N891 H895 0.985 . S
H892 N887 0.984 . S
H893 N887 0.985 . S
H894 N891 0.984 . S
H895 N891 0.985 . S
H896 N890 0.984 . S
H897 N890 0.984 . S
H898 N886 0.984 . S
H899 N886 0.985 . S
C900 C901 1.363 . S
C900 C906 1.379 . S
C900 N908 1.356 . S
C901 C900 1.363 . S
C901 C907 1.363 . S
C902 C903 1.363 . S
C902 C907 1.379 . S
C902 N909 1.356 . S
C903 C902 1.363 . S
C903 C906 1.363 . S
N904 C906 1.356 . S
N904 H916 0.984 . S
N904 H917 0.985 . S
N905 C907 1.356 . S
N905 H910 0.984 . S
N905 H911 0.985 . S
C906 C900 1.379 . S
C906 C903 1.363 . S
C906 N904 1.356 . S
C907 C901 1.363 . S
C907 C902 1.379 . S
C907 N905 1.356 . S
N908 C900 1.356 . S
N908 H914 0.984 . S
N908 H915 0.984 . S
N909 C902 1.356 . S
N909 H912 0.984 . S
N909 H913 0.985 . S
H910 N905 0.984 . S
H911 N905 0.985 . S
H912 N909 0.984 . S
H913 N909 0.985 . S
H914 N908 0.984 . S
H915 N908 0.984 . S
H916 N904 0.984 . S
H917 N904 0.985 . S
C918 C919 1.363 . S
C918 C924 1.379 . S
C918 N926 1.356 . S
C919 C918 1.363 . S
C919 C925 1.363 . S
C920 C921 1.363 . S
C920 C925 1.379 . S
C920 N927 1.356 . S
C921 C920 1.363 . S
C921 C924 1.363 . S
N922 C924 1.356 . S
N922 H934 0.984 . S
N922 H935 0.985 . S
N923 C925 1.356 . S
N923 H928 0.984 . S
N923 H929 0.985 . S
C924 C918 1.379 . S
C924 C921 1.363 . S
C924 N922 1.356 . S
C925 C919 1.363 . S
C925 C920 1.379 . S
C925 N923 1.356 . S
N926 C918 1.356 . S
N926 H932 0.984 . S
N926 H933 0.984 . S
N927 C920 1.356 . S
N927 H930 0.984 . S
N927 H931 0.985 . S
H928 N923 0.984 . S
H929 N923 0.985 . S
H930 N927 0.984 . S
H931 N927 0.985 . S
H932 N926 0.984 . S
H933 N926 0.984 . S
H934 N922 0.984 . S
H935 N922 0.985 . S
C397 N343 1.101 . S
C399 N13 1.100 . S
C415 N46 1.174 . S
C417 N376 1.177 . S
C433 N79 1.177 . S
C435 N211 1.174 . S
C451 N112 1.101 . S
C453 N244 1.100 . S
C469 N145 1.169 . S
C471 N277 1.168 1_556 S
C487 N178 1.168 1_554 S
C489 N310 1.169 . S
C505 N2 1.761 . S
C507 C183 1.745 . S
C523 C18 1.776 . S
C525 N35 1.769 1_456 S
C541 C51 1.783 . S
C543 N68 1.784 1_545 S
C559 N101 1.780 . S
C561 C84 1.782 . S
C577 N134 1.835 1_655 S
C579 C117 1.831 . S
C595 N167 1.797 1_565 S
C597 C150 1.785 . S
C613 C249 1.776 . S
C615 N200 1.769 1_554 S
C631 N233 1.761 1_455 S
C633 C282 1.745 . S
C649 N266 1.797 1_545 S
C651 C315 1.785 . S
C667 N299 1.835 . S
C669 C348 1.831 . S
C685 N332 1.780 1_655 S
C687 C381 1.782 . S
C703 N365 1.783 1_565 S
C705 C216 1.783 . S
C721 C7 1.097 . S
C723 C304 1.093 . S
C739 C40 1.198 . S
C741 C337 1.196 . S
C757 C73 1.171 . S
C759 C370 1.171 . S
C775 C106 1.196 . S
C777 C205 1.198 . S
C793 C139 1.094 . S
C795 C238 1.095 . S
C811 C271 1.152 . S
C813 C172 1.152 . S
C829 C219 1.506 . S
C831 C21 1.510 . S
C847 C54 1.506 . S
C849 C252 1.510 . S
C865 C87 1.539 . S
C867 C285 1.538 . S
C883 C318 1.578 . S
C885 C120 1.581 . S
C901 C153 1.578 . S
C903 C351 1.581 . S
C919 C384 1.539 . S
C921 C186 1.538 . S
