# Generated by pormake.
# Topology kfi, (4)-cn, num edge types: 1
# Building blocks:
#     Node 0, Type 0, BuildingBlock: NAHDIM_clean_sbu_0, # of connection points: 4
#     Node 1, Type 0, BuildingBlock: NAHDIM_clean_sbu_0, # of connection points: 4
#     Node 2, Type 0, BuildingBlock: NAHDIM_clean_sbu_0, # of connection points: 4
#     Node 3, Type 0, BuildingBlock: NAHDIM_clean_sbu_0, # of connection points: 4
#     Node 4, Type 0, BuildingBlock: NAHDIM_clean_sbu_0, # of connection points: 4
#     Node 5, Type 0, BuildingBlock: NAHDIM_clean_sbu_0, # of connection points: 4
#     Node 6, Type 0, BuildingBlock: NAHDIM_clean_sbu_0, # of connection points: 4
#     Node 7, Type 0, BuildingBlock: NAHDIM_clean_sbu_0, # of connection points: 4
#     Node 8, Type 0, BuildingBlock: NAHDIM_clean_sbu_0, # of connection points: 4
#     Node 9, Type 0, BuildingBlock: NAHDIM_clean_sbu_0, # of connection points: 4
#     Node 10, Type 0, BuildingBlock: NAHDIM_clean_sbu_0, # of connection points: 4
#     Node 11, Type 0, BuildingBlock: NAHDIM_clean_sbu_0, # of connection points: 4
#     Node 12, Type 0, BuildingBlock: NAHDIM_clean_sbu_0, # of connection points: 4
#     Node 13, Type 0, BuildingBlock: NAHDIM_clean_sbu_0, # of connection points: 4
#     Node 14, Type 0, BuildingBlock: NAHDIM_clean_sbu_0, # of connection points: 4
#     Node 15, Type 0, BuildingBlock: NAHDIM_clean_sbu_0, # of connection points: 4
#     Node 16, Type 0, BuildingBlock: NAHDIM_clean_sbu_0, # of connection points: 4
#     Node 17, Type 0, BuildingBlock: NAHDIM_clean_sbu_0, # of connection points: 4
#     Node 18, Type 0, BuildingBlock: NAHDIM_clean_sbu_0, # of connection points: 4
#     Node 19, Type 0, BuildingBlock: NAHDIM_clean_sbu_0, # of connection points: 4
#     Node 20, Type 0, BuildingBlock: NAHDIM_clean_sbu_0, # of connection points: 4
#     Node 21, Type 0, BuildingBlock: NAHDIM_clean_sbu_0, # of connection points: 4
#     Node 22, Type 0, BuildingBlock: NAHDIM_clean_sbu_0, # of connection points: 4
#     Node 23, Type 0, BuildingBlock: NAHDIM_clean_sbu_0, # of connection points: 4
#     Node 24, Type 0, BuildingBlock: NAHDIM_clean_sbu_0, # of connection points: 4
#     Node 25, Type 0, BuildingBlock: NAHDIM_clean_sbu_0, # of connection points: 4
#     Node 26, Type 0, BuildingBlock: NAHDIM_clean_sbu_0, # of connection points: 4
#     Node 27, Type 0, BuildingBlock: NAHDIM_clean_sbu_0, # of connection points: 4
#     Node 28, Type 0, BuildingBlock: NAHDIM_clean_sbu_0, # of connection points: 4
#     Node 29, Type 0, BuildingBlock: NAHDIM_clean_sbu_0, # of connection points: 4
#     Node 30, Type 0, BuildingBlock: NAHDIM_clean_sbu_0, # of connection points: 4
#     Node 31, Type 0, BuildingBlock: NAHDIM_clean_sbu_0, # of connection points: 4
#     Node 32, Type 0, BuildingBlock: NAHDIM_clean_sbu_0, # of connection points: 4
#     Node 33, Type 0, BuildingBlock: NAHDIM_clean_sbu_0, # of connection points: 4
#     Node 34, Type 0, BuildingBlock: NAHDIM_clean_sbu_0, # of connection points: 4
#     Node 35, Type 0, BuildingBlock: NAHDIM_clean_sbu_0, # of connection points: 4
#     Node 36, Type 0, BuildingBlock: NAHDIM_clean_sbu_0, # of connection points: 4
#     Node 37, Type 0, BuildingBlock: NAHDIM_clean_sbu_0, # of connection points: 4
#     Node 38, Type 0, BuildingBlock: NAHDIM_clean_sbu_0, # of connection points: 4
#     Node 39, Type 0, BuildingBlock: NAHDIM_clean_sbu_0, # of connection points: 4
#     Node 40, Type 0, BuildingBlock: NAHDIM_clean_sbu_0, # of connection points: 4
#     Node 41, Type 0, BuildingBlock: NAHDIM_clean_sbu_0, # of connection points: 4
#     Node 42, Type 0, BuildingBlock: NAHDIM_clean_sbu_0, # of connection points: 4
#     Node 43, Type 0, BuildingBlock: NAHDIM_clean_sbu_0, # of connection points: 4
#     Node 44, Type 0, BuildingBlock: NAHDIM_clean_sbu_0, # of connection points: 4
#     Node 45, Type 0, BuildingBlock: NAHDIM_clean_sbu_0, # of connection points: 4
#     Node 46, Type 0, BuildingBlock: NAHDIM_clean_sbu_0, # of connection points: 4
#     Node 47, Type 0, BuildingBlock: NAHDIM_clean_sbu_0, # of connection points: 4
#     Node 48, Type 0, BuildingBlock: NAHDIM_clean_sbu_0, # of connection points: 4
#     Node 49, Type 0, BuildingBlock: NAHDIM_clean_sbu_0, # of connection points: 4
#     Node 50, Type 0, BuildingBlock: NAHDIM_clean_sbu_0, # of connection points: 4
#     Node 51, Type 0, BuildingBlock: NAHDIM_clean_sbu_0, # of connection points: 4
#     Node 52, Type 0, BuildingBlock: NAHDIM_clean_sbu_0, # of connection points: 4
#     Node 53, Type 0, BuildingBlock: NAHDIM_clean_sbu_0, # of connection points: 4
#     Node 54, Type 0, BuildingBlock: NAHDIM_clean_sbu_0, # of connection points: 4
#     Node 55, Type 0, BuildingBlock: NAHDIM_clean_sbu_0, # of connection points: 4
#     Node 56, Type 0, BuildingBlock: NAHDIM_clean_sbu_0, # of connection points: 4
#     Node 57, Type 0, BuildingBlock: NAHDIM_clean_sbu_0, # of connection points: 4
#     Node 58, Type 0, BuildingBlock: NAHDIM_clean_sbu_0, # of connection points: 4
#     Node 59, Type 0, BuildingBlock: NAHDIM_clean_sbu_0, # of connection points: 4
#     Node 60, Type 0, BuildingBlock: NAHDIM_clean_sbu_0, # of connection points: 4
#     Node 61, Type 0, BuildingBlock: NAHDIM_clean_sbu_0, # of connection points: 4
#     Node 62, Type 0, BuildingBlock: NAHDIM_clean_sbu_0, # of connection points: 4
#     Node 63, Type 0, BuildingBlock: NAHDIM_clean_sbu_0, # of connection points: 4
#     Node 64, Type 0, BuildingBlock: NAHDIM_clean_sbu_0, # of connection points: 4
#     Node 65, Type 0, BuildingBlock: NAHDIM_clean_sbu_0, # of connection points: 4
#     Node 66, Type 0, BuildingBlock: NAHDIM_clean_sbu_0, # of connection points: 4
#     Node 67, Type 0, BuildingBlock: NAHDIM_clean_sbu_0, # of connection points: 4
#     Node 68, Type 0, BuildingBlock: NAHDIM_clean_sbu_0, # of connection points: 4
#     Node 69, Type 0, BuildingBlock: NAHDIM_clean_sbu_0, # of connection points: 4
#     Node 70, Type 0, BuildingBlock: NAHDIM_clean_sbu_0, # of connection points: 4
#     Node 71, Type 0, BuildingBlock: NAHDIM_clean_sbu_0, # of connection points: 4
#     Node 72, Type 0, BuildingBlock: NAHDIM_clean_sbu_0, # of connection points: 4
#     Node 73, Type 0, BuildingBlock: NAHDIM_clean_sbu_0, # of connection points: 4
#     Node 74, Type 0, BuildingBlock: NAHDIM_clean_sbu_0, # of connection points: 4
#     Node 75, Type 0, BuildingBlock: NAHDIM_clean_sbu_0, # of connection points: 4
#     Node 76, Type 0, BuildingBlock: NAHDIM_clean_sbu_0, # of connection points: 4
#     Node 77, Type 0, BuildingBlock: NAHDIM_clean_sbu_0, # of connection points: 4
#     Node 78, Type 0, BuildingBlock: NAHDIM_clean_sbu_0, # of connection points: 4
#     Node 79, Type 0, BuildingBlock: NAHDIM_clean_sbu_0, # of connection points: 4
#     Node 80, Type 0, BuildingBlock: NAHDIM_clean_sbu_0, # of connection points: 4
#     Node 81, Type 0, BuildingBlock: NAHDIM_clean_sbu_0, # of connection points: 4
#     Node 82, Type 0, BuildingBlock: NAHDIM_clean_sbu_0, # of connection points: 4
#     Node 83, Type 0, BuildingBlock: NAHDIM_clean_sbu_0, # of connection points: 4
#     Node 84, Type 0, BuildingBlock: NAHDIM_clean_sbu_0, # of connection points: 4
#     Node 85, Type 0, BuildingBlock: NAHDIM_clean_sbu_0, # of connection points: 4
#     Node 86, Type 0, BuildingBlock: NAHDIM_clean_sbu_0, # of connection points: 4
#     Node 87, Type 0, BuildingBlock: NAHDIM_clean_sbu_0, # of connection points: 4
#     Node 88, Type 0, BuildingBlock: NAHDIM_clean_sbu_0, # of connection points: 4
#     Node 89, Type 0, BuildingBlock: NAHDIM_clean_sbu_0, # of connection points: 4
#     Node 90, Type 0, BuildingBlock: NAHDIM_clean_sbu_0, # of connection points: 4
#     Node 91, Type 0, BuildingBlock: NAHDIM_clean_sbu_0, # of connection points: 4
#     Node 92, Type 0, BuildingBlock: NAHDIM_clean_sbu_0, # of connection points: 4
#     Node 93, Type 0, BuildingBlock: NAHDIM_clean_sbu_0, # of connection points: 4
#     Node 94, Type 0, BuildingBlock: NAHDIM_clean_sbu_0, # of connection points: 4
#     Node 95, Type 0, BuildingBlock: NAHDIM_clean_sbu_0, # of connection points: 4
#     Edge 96, Type (0, 0), BuildingBlock: OJICUG_clean_linker_0, # of connection points: 2
#     Edge 97, Type (0, 0), BuildingBlock: OJICUG_clean_linker_0, # of connection points: 2
#     Edge 98, Type (0, 0), BuildingBlock: OJICUG_clean_linker_0, # of connection points: 2
#     Edge 99, Type (0, 0), BuildingBlock: OJICUG_clean_linker_0, # of connection points: 2
#     Edge 100, Type (0, 0), BuildingBlock: OJICUG_clean_linker_0, # of connection points: 2
#     Edge 101, Type (0, 0), BuildingBlock: OJICUG_clean_linker_0, # of connection points: 2
#     Edge 102, Type (0, 0), BuildingBlock: OJICUG_clean_linker_0, # of connection points: 2
#     Edge 103, Type (0, 0), BuildingBlock: OJICUG_clean_linker_0, # of connection points: 2
#     Edge 104, Type (0, 0), BuildingBlock: OJICUG_clean_linker_0, # of connection points: 2
#     Edge 105, Type (0, 0), BuildingBlock: OJICUG_clean_linker_0, # of connection points: 2
#     Edge 106, Type (0, 0), BuildingBlock: OJICUG_clean_linker_0, # of connection points: 2
#     Edge 107, Type (0, 0), BuildingBlock: OJICUG_clean_linker_0, # of connection points: 2
#     Edge 108, Type (0, 0), BuildingBlock: OJICUG_clean_linker_0, # of connection points: 2
#     Edge 109, Type (0, 0), BuildingBlock: OJICUG_clean_linker_0, # of connection points: 2
#     Edge 110, Type (0, 0), BuildingBlock: OJICUG_clean_linker_0, # of connection points: 2
#     Edge 111, Type (0, 0), BuildingBlock: OJICUG_clean_linker_0, # of connection points: 2
#     Edge 112, Type (0, 0), BuildingBlock: OJICUG_clean_linker_0, # of connection points: 2
#     Edge 113, Type (0, 0), BuildingBlock: OJICUG_clean_linker_0, # of connection points: 2
#     Edge 114, Type (0, 0), BuildingBlock: OJICUG_clean_linker_0, # of connection points: 2
#     Edge 115, Type (0, 0), BuildingBlock: OJICUG_clean_linker_0, # of connection points: 2
#     Edge 116, Type (0, 0), BuildingBlock: OJICUG_clean_linker_0, # of connection points: 2
#     Edge 117, Type (0, 0), BuildingBlock: OJICUG_clean_linker_0, # of connection points: 2
#     Edge 118, Type (0, 0), BuildingBlock: OJICUG_clean_linker_0, # of connection points: 2
#     Edge 119, Type (0, 0), BuildingBlock: OJICUG_clean_linker_0, # of connection points: 2
#     Edge 120, Type (0, 0), BuildingBlock: OJICUG_clean_linker_0, # of connection points: 2
#     Edge 121, Type (0, 0), BuildingBlock: OJICUG_clean_linker_0, # of connection points: 2
#     Edge 122, Type (0, 0), BuildingBlock: OJICUG_clean_linker_0, # of connection points: 2
#     Edge 123, Type (0, 0), BuildingBlock: OJICUG_clean_linker_0, # of connection points: 2
#     Edge 124, Type (0, 0), BuildingBlock: OJICUG_clean_linker_0, # of connection points: 2
#     Edge 125, Type (0, 0), BuildingBlock: OJICUG_clean_linker_0, # of connection points: 2
#     Edge 126, Type (0, 0), BuildingBlock: OJICUG_clean_linker_0, # of connection points: 2
#     Edge 127, Type (0, 0), BuildingBlock: OJICUG_clean_linker_0, # of connection points: 2
#     Edge 128, Type (0, 0), BuildingBlock: OJICUG_clean_linker_0, # of connection points: 2
#     Edge 129, Type (0, 0), BuildingBlock: OJICUG_clean_linker_0, # of connection points: 2
#     Edge 130, Type (0, 0), BuildingBlock: OJICUG_clean_linker_0, # of connection points: 2
#     Edge 131, Type (0, 0), BuildingBlock: OJICUG_clean_linker_0, # of connection points: 2
#     Edge 132, Type (0, 0), BuildingBlock: OJICUG_clean_linker_0, # of connection points: 2
#     Edge 133, Type (0, 0), BuildingBlock: OJICUG_clean_linker_0, # of connection points: 2
#     Edge 134, Type (0, 0), BuildingBlock: OJICUG_clean_linker_0, # of connection points: 2
#     Edge 135, Type (0, 0), BuildingBlock: OJICUG_clean_linker_0, # of connection points: 2
#     Edge 136, Type (0, 0), BuildingBlock: OJICUG_clean_linker_0, # of connection points: 2
#     Edge 137, Type (0, 0), BuildingBlock: OJICUG_clean_linker_0, # of connection points: 2
#     Edge 138, Type (0, 0), BuildingBlock: OJICUG_clean_linker_0, # of connection points: 2
#     Edge 139, Type (0, 0), BuildingBlock: OJICUG_clean_linker_0, # of connection points: 2
#     Edge 140, Type (0, 0), BuildingBlock: OJICUG_clean_linker_0, # of connection points: 2
#     Edge 141, Type (0, 0), BuildingBlock: OJICUG_clean_linker_0, # of connection points: 2
#     Edge 142, Type (0, 0), BuildingBlock: OJICUG_clean_linker_0, # of connection points: 2
#     Edge 143, Type (0, 0), BuildingBlock: OJICUG_clean_linker_0, # of connection points: 2
#     Edge 144, Type (0, 0), BuildingBlock: OJICUG_clean_linker_0, # of connection points: 2
#     Edge 145, Type (0, 0), BuildingBlock: OJICUG_clean_linker_0, # of connection points: 2
#     Edge 146, Type (0, 0), BuildingBlock: OJICUG_clean_linker_0, # of connection points: 2
#     Edge 147, Type (0, 0), BuildingBlock: OJICUG_clean_linker_0, # of connection points: 2
#     Edge 148, Type (0, 0), BuildingBlock: OJICUG_clean_linker_0, # of connection points: 2
#     Edge 149, Type (0, 0), BuildingBlock: OJICUG_clean_linker_0, # of connection points: 2
#     Edge 150, Type (0, 0), BuildingBlock: OJICUG_clean_linker_0, # of connection points: 2
#     Edge 151, Type (0, 0), BuildingBlock: OJICUG_clean_linker_0, # of connection points: 2
#     Edge 152, Type (0, 0), BuildingBlock: OJICUG_clean_linker_0, # of connection points: 2
#     Edge 153, Type (0, 0), BuildingBlock: OJICUG_clean_linker_0, # of connection points: 2
#     Edge 154, Type (0, 0), BuildingBlock: OJICUG_clean_linker_0, # of connection points: 2
#     Edge 155, Type (0, 0), BuildingBlock: OJICUG_clean_linker_0, # of connection points: 2
#     Edge 156, Type (0, 0), BuildingBlock: OJICUG_clean_linker_0, # of connection points: 2
#     Edge 157, Type (0, 0), BuildingBlock: OJICUG_clean_linker_0, # of connection points: 2
#     Edge 158, Type (0, 0), BuildingBlock: OJICUG_clean_linker_0, # of connection points: 2
#     Edge 159, Type (0, 0), BuildingBlock: OJICUG_clean_linker_0, # of connection points: 2
#     Edge 160, Type (0, 0), BuildingBlock: OJICUG_clean_linker_0, # of connection points: 2
#     Edge 161, Type (0, 0), BuildingBlock: OJICUG_clean_linker_0, # of connection points: 2
#     Edge 162, Type (0, 0), BuildingBlock: OJICUG_clean_linker_0, # of connection points: 2
#     Edge 163, Type (0, 0), BuildingBlock: OJICUG_clean_linker_0, # of connection points: 2
#     Edge 164, Type (0, 0), BuildingBlock: OJICUG_clean_linker_0, # of connection points: 2
#     Edge 165, Type (0, 0), BuildingBlock: OJICUG_clean_linker_0, # of connection points: 2
#     Edge 166, Type (0, 0), BuildingBlock: OJICUG_clean_linker_0, # of connection points: 2
#     Edge 167, Type (0, 0), BuildingBlock: OJICUG_clean_linker_0, # of connection points: 2
#     Edge 168, Type (0, 0), BuildingBlock: OJICUG_clean_linker_0, # of connection points: 2
#     Edge 169, Type (0, 0), BuildingBlock: OJICUG_clean_linker_0, # of connection points: 2
#     Edge 170, Type (0, 0), BuildingBlock: OJICUG_clean_linker_0, # of connection points: 2
#     Edge 171, Type (0, 0), BuildingBlock: OJICUG_clean_linker_0, # of connection points: 2
#     Edge 172, Type (0, 0), BuildingBlock: OJICUG_clean_linker_0, # of connection points: 2
#     Edge 173, Type (0, 0), BuildingBlock: OJICUG_clean_linker_0, # of connection points: 2
#     Edge 174, Type (0, 0), BuildingBlock: OJICUG_clean_linker_0, # of connection points: 2
#     Edge 175, Type (0, 0), BuildingBlock: OJICUG_clean_linker_0, # of connection points: 2
#     Edge 176, Type (0, 0), BuildingBlock: OJICUG_clean_linker_0, # of connection points: 2
#     Edge 177, Type (0, 0), BuildingBlock: OJICUG_clean_linker_0, # of connection points: 2
#     Edge 178, Type (0, 0), BuildingBlock: OJICUG_clean_linker_0, # of connection points: 2
#     Edge 179, Type (0, 0), BuildingBlock: OJICUG_clean_linker_0, # of connection points: 2
#     Edge 180, Type (0, 0), BuildingBlock: OJICUG_clean_linker_0, # of connection points: 2
#     Edge 181, Type (0, 0), BuildingBlock: OJICUG_clean_linker_0, # of connection points: 2
#     Edge 182, Type (0, 0), BuildingBlock: OJICUG_clean_linker_0, # of connection points: 2
#     Edge 183, Type (0, 0), BuildingBlock: OJICUG_clean_linker_0, # of connection points: 2
#     Edge 184, Type (0, 0), BuildingBlock: OJICUG_clean_linker_0, # of connection points: 2
#     Edge 185, Type (0, 0), BuildingBlock: OJICUG_clean_linker_0, # of connection points: 2
#     Edge 186, Type (0, 0), BuildingBlock: OJICUG_clean_linker_0, # of connection points: 2
#     Edge 187, Type (0, 0), BuildingBlock: OJICUG_clean_linker_0, # of connection points: 2
#     Edge 188, Type (0, 0), BuildingBlock: OJICUG_clean_linker_0, # of connection points: 2
#     Edge 189, Type (0, 0), BuildingBlock: OJICUG_clean_linker_0, # of connection points: 2
#     Edge 190, Type (0, 0), BuildingBlock: OJICUG_clean_linker_0, # of connection points: 2
#     Edge 191, Type (0, 0), BuildingBlock: OJICUG_clean_linker_0, # of connection points: 2
#     Edge 192, Type (0, 0), BuildingBlock: OJICUG_clean_linker_0, # of connection points: 2
#     Edge 193, Type (0, 0), BuildingBlock: OJICUG_clean_linker_0, # of connection points: 2
#     Edge 194, Type (0, 0), BuildingBlock: OJICUG_clean_linker_0, # of connection points: 2
#     Edge 195, Type (0, 0), BuildingBlock: OJICUG_clean_linker_0, # of connection points: 2
#     Edge 196, Type (0, 0), BuildingBlock: OJICUG_clean_linker_0, # of connection points: 2
#     Edge 197, Type (0, 0), BuildingBlock: OJICUG_clean_linker_0, # of connection points: 2
#     Edge 198, Type (0, 0), BuildingBlock: OJICUG_clean_linker_0, # of connection points: 2
#     Edge 199, Type (0, 0), BuildingBlock: OJICUG_clean_linker_0, # of connection points: 2
#     Edge 200, Type (0, 0), BuildingBlock: OJICUG_clean_linker_0, # of connection points: 2
#     Edge 201, Type (0, 0), BuildingBlock: OJICUG_clean_linker_0, # of connection points: 2
#     Edge 202, Type (0, 0), BuildingBlock: OJICUG_clean_linker_0, # of connection points: 2
#     Edge 203, Type (0, 0), BuildingBlock: OJICUG_clean_linker_0, # of connection points: 2
#     Edge 204, Type (0, 0), BuildingBlock: OJICUG_clean_linker_0, # of connection points: 2
#     Edge 205, Type (0, 0), BuildingBlock: OJICUG_clean_linker_0, # of connection points: 2
#     Edge 206, Type (0, 0), BuildingBlock: OJICUG_clean_linker_0, # of connection points: 2
#     Edge 207, Type (0, 0), BuildingBlock: OJICUG_clean_linker_0, # of connection points: 2
#     Edge 208, Type (0, 0), BuildingBlock: OJICUG_clean_linker_0, # of connection points: 2
#     Edge 209, Type (0, 0), BuildingBlock: OJICUG_clean_linker_0, # of connection points: 2
#     Edge 210, Type (0, 0), BuildingBlock: OJICUG_clean_linker_0, # of connection points: 2
#     Edge 211, Type (0, 0), BuildingBlock: OJICUG_clean_linker_0, # of connection points: 2
#     Edge 212, Type (0, 0), BuildingBlock: OJICUG_clean_linker_0, # of connection points: 2
#     Edge 213, Type (0, 0), BuildingBlock: OJICUG_clean_linker_0, # of connection points: 2
#     Edge 214, Type (0, 0), BuildingBlock: OJICUG_clean_linker_0, # of connection points: 2
#     Edge 215, Type (0, 0), BuildingBlock: OJICUG_clean_linker_0, # of connection points: 2
#     Edge 216, Type (0, 0), BuildingBlock: OJICUG_clean_linker_0, # of connection points: 2
#     Edge 217, Type (0, 0), BuildingBlock: OJICUG_clean_linker_0, # of connection points: 2
#     Edge 218, Type (0, 0), BuildingBlock: OJICUG_clean_linker_0, # of connection points: 2
#     Edge 219, Type (0, 0), BuildingBlock: OJICUG_clean_linker_0, # of connection points: 2
#     Edge 220, Type (0, 0), BuildingBlock: OJICUG_clean_linker_0, # of connection points: 2
#     Edge 221, Type (0, 0), BuildingBlock: OJICUG_clean_linker_0, # of connection points: 2
#     Edge 222, Type (0, 0), BuildingBlock: OJICUG_clean_linker_0, # of connection points: 2
#     Edge 223, Type (0, 0), BuildingBlock: OJICUG_clean_linker_0, # of connection points: 2
#     Edge 224, Type (0, 0), BuildingBlock: OJICUG_clean_linker_0, # of connection points: 2
#     Edge 225, Type (0, 0), BuildingBlock: OJICUG_clean_linker_0, # of connection points: 2
#     Edge 226, Type (0, 0), BuildingBlock: OJICUG_clean_linker_0, # of connection points: 2
#     Edge 227, Type (0, 0), BuildingBlock: OJICUG_clean_linker_0, # of connection points: 2
#     Edge 228, Type (0, 0), BuildingBlock: OJICUG_clean_linker_0, # of connection points: 2
#     Edge 229, Type (0, 0), BuildingBlock: OJICUG_clean_linker_0, # of connection points: 2
#     Edge 230, Type (0, 0), BuildingBlock: OJICUG_clean_linker_0, # of connection points: 2
#     Edge 231, Type (0, 0), BuildingBlock: OJICUG_clean_linker_0, # of connection points: 2
#     Edge 232, Type (0, 0), BuildingBlock: OJICUG_clean_linker_0, # of connection points: 2
#     Edge 233, Type (0, 0), BuildingBlock: OJICUG_clean_linker_0, # of connection points: 2
#     Edge 234, Type (0, 0), BuildingBlock: OJICUG_clean_linker_0, # of connection points: 2
#     Edge 235, Type (0, 0), BuildingBlock: OJICUG_clean_linker_0, # of connection points: 2
#     Edge 236, Type (0, 0), BuildingBlock: OJICUG_clean_linker_0, # of connection points: 2
#     Edge 237, Type (0, 0), BuildingBlock: OJICUG_clean_linker_0, # of connection points: 2
#     Edge 238, Type (0, 0), BuildingBlock: OJICUG_clean_linker_0, # of connection points: 2
#     Edge 239, Type (0, 0), BuildingBlock: OJICUG_clean_linker_0, # of connection points: 2
#     Edge 240, Type (0, 0), BuildingBlock: OJICUG_clean_linker_0, # of connection points: 2
#     Edge 241, Type (0, 0), BuildingBlock: OJICUG_clean_linker_0, # of connection points: 2
#     Edge 242, Type (0, 0), BuildingBlock: OJICUG_clean_linker_0, # of connection points: 2
#     Edge 243, Type (0, 0), BuildingBlock: OJICUG_clean_linker_0, # of connection points: 2
#     Edge 244, Type (0, 0), BuildingBlock: OJICUG_clean_linker_0, # of connection points: 2
#     Edge 245, Type (0, 0), BuildingBlock: OJICUG_clean_linker_0, # of connection points: 2
#     Edge 246, Type (0, 0), BuildingBlock: OJICUG_clean_linker_0, # of connection points: 2
#     Edge 247, Type (0, 0), BuildingBlock: OJICUG_clean_linker_0, # of connection points: 2
#     Edge 248, Type (0, 0), BuildingBlock: OJICUG_clean_linker_0, # of connection points: 2
#     Edge 249, Type (0, 0), BuildingBlock: OJICUG_clean_linker_0, # of connection points: 2
#     Edge 250, Type (0, 0), BuildingBlock: OJICUG_clean_linker_0, # of connection points: 2
#     Edge 251, Type (0, 0), BuildingBlock: OJICUG_clean_linker_0, # of connection points: 2
#     Edge 252, Type (0, 0), BuildingBlock: OJICUG_clean_linker_0, # of connection points: 2
#     Edge 253, Type (0, 0), BuildingBlock: OJICUG_clean_linker_0, # of connection points: 2
#     Edge 254, Type (0, 0), BuildingBlock: OJICUG_clean_linker_0, # of connection points: 2
#     Edge 255, Type (0, 0), BuildingBlock: OJICUG_clean_linker_0, # of connection points: 2
#     Edge 256, Type (0, 0), BuildingBlock: OJICUG_clean_linker_0, # of connection points: 2
#     Edge 257, Type (0, 0), BuildingBlock: OJICUG_clean_linker_0, # of connection points: 2
#     Edge 258, Type (0, 0), BuildingBlock: OJICUG_clean_linker_0, # of connection points: 2
#     Edge 259, Type (0, 0), BuildingBlock: OJICUG_clean_linker_0, # of connection points: 2
#     Edge 260, Type (0, 0), BuildingBlock: OJICUG_clean_linker_0, # of connection points: 2
#     Edge 261, Type (0, 0), BuildingBlock: OJICUG_clean_linker_0, # of connection points: 2
#     Edge 262, Type (0, 0), BuildingBlock: OJICUG_clean_linker_0, # of connection points: 2
#     Edge 263, Type (0, 0), BuildingBlock: OJICUG_clean_linker_0, # of connection points: 2
#     Edge 264, Type (0, 0), BuildingBlock: OJICUG_clean_linker_0, # of connection points: 2
#     Edge 265, Type (0, 0), BuildingBlock: OJICUG_clean_linker_0, # of connection points: 2
#     Edge 266, Type (0, 0), BuildingBlock: OJICUG_clean_linker_0, # of connection points: 2
#     Edge 267, Type (0, 0), BuildingBlock: OJICUG_clean_linker_0, # of connection points: 2
#     Edge 268, Type (0, 0), BuildingBlock: OJICUG_clean_linker_0, # of connection points: 2
#     Edge 269, Type (0, 0), BuildingBlock: OJICUG_clean_linker_0, # of connection points: 2
#     Edge 270, Type (0, 0), BuildingBlock: OJICUG_clean_linker_0, # of connection points: 2
#     Edge 271, Type (0, 0), BuildingBlock: OJICUG_clean_linker_0, # of connection points: 2
#     Edge 272, Type (0, 0), BuildingBlock: OJICUG_clean_linker_0, # of connection points: 2
#     Edge 273, Type (0, 0), BuildingBlock: OJICUG_clean_linker_0, # of connection points: 2
#     Edge 274, Type (0, 0), BuildingBlock: OJICUG_clean_linker_0, # of connection points: 2
#     Edge 275, Type (0, 0), BuildingBlock: OJICUG_clean_linker_0, # of connection points: 2
#     Edge 276, Type (0, 0), BuildingBlock: OJICUG_clean_linker_0, # of connection points: 2
#     Edge 277, Type (0, 0), BuildingBlock: OJICUG_clean_linker_0, # of connection points: 2
#     Edge 278, Type (0, 0), BuildingBlock: OJICUG_clean_linker_0, # of connection points: 2
#     Edge 279, Type (0, 0), BuildingBlock: OJICUG_clean_linker_0, # of connection points: 2
#     Edge 280, Type (0, 0), BuildingBlock: OJICUG_clean_linker_0, # of connection points: 2
#     Edge 281, Type (0, 0), BuildingBlock: OJICUG_clean_linker_0, # of connection points: 2
#     Edge 282, Type (0, 0), BuildingBlock: OJICUG_clean_linker_0, # of connection points: 2
#     Edge 283, Type (0, 0), BuildingBlock: OJICUG_clean_linker_0, # of connection points: 2
#     Edge 284, Type (0, 0), BuildingBlock: OJICUG_clean_linker_0, # of connection points: 2
#     Edge 285, Type (0, 0), BuildingBlock: OJICUG_clean_linker_0, # of connection points: 2
#     Edge 286, Type (0, 0), BuildingBlock: OJICUG_clean_linker_0, # of connection points: 2
#     Edge 287, Type (0, 0), BuildingBlock: OJICUG_clean_linker_0, # of connection points: 2
# Relax obj value: 0.162
# Max RMSD: 0.128
# Mean RMSD: 0.128
data_MOF--net-kfi--node1-NAHDIM_clean_sbu_0--edge1-OJICUG_clean_linker_0
_symmetry_space_group_name_H-M    P1
_symmetry_Int_Tables_number       1
_symmetry_cell_setting            triclinic
loop_
_symmetry_equiv_pos_as_xyz
'x, y, z'
_cell_length_a     65.360864
_cell_length_b     65.245337
_cell_length_c     65.204047
_cell_angle_alpha  90.014979
_cell_angle_beta   89.998935
_cell_angle_gamma 90.016376
loop_
_atom_site_label
_atom_site_type_symbol
_atom_site_fract_x
_atom_site_fract_y
_atom_site_fract_z
_atom_type_partial_charge
C0 C 0.04452 0.17731 0.3275 0.0
O1 O 0.05481 0.16089 0.32209 0.0
O2 O 0.09884 0.17358 0.31744 0.0
Zn3 Zn 0.08239 0.19957 0.31839 0.0
O4 O 0.08125 0.21365 0.29079 0.0
C5 C 0.11389 0.22544 0.33233 0.0
O6 O 0.12205 0.21789 0.31557 0.0
O7 O 0.05342 0.19464 0.32756 0.0
C8 C 0.09454 0.21278 0.27656 0.0
O9 O 0.1105 0.20072 0.27859 0.0
C10 C 0.09836 0.16064 0.30288 0.0
O11 O 0.08603 0.16369 0.28726 0.0
O12 O 0.09626 0.2193 0.33779 0.0
C13 C 0.81897 0.03822 0.32463 0.0
O14 O 0.8305 0.04785 0.31123 0.0
O15 O 0.82625 0.09453 0.3277 0.0
Zn16 Zn 0.80031 0.07791 0.32821 0.0
O17 O 0.78606 0.0795 0.30098 0.0
C18 C 0.78682 0.09965 0.36473 0.0
O19 O 0.8065 0.10157 0.36835 0.0
O20 O 0.80549 0.04825 0.33443 0.0
C21 C 0.77882 0.09647 0.29478 0.0
O22 O 0.78166 0.11299 0.30596 0.0
C23 C 0.83592 0.09832 0.31122 0.0
O24 O 0.82933 0.0905 0.29386 0.0
O25 O 0.78094 0.08983 0.34897 0.0
C26 C 0.94842 0.81105 0.3123 0.0
O27 O 0.93823 0.82157 0.2985 0.0
O28 O 0.89237 0.81679 0.31746 0.0
Zn29 Zn 0.90966 0.79131 0.31694 0.0
O30 O 0.90787 0.77747 0.28955 0.0
C31 C 0.8868 0.77551 0.35177 0.0
O32 O 0.8819 0.79483 0.35464 0.0
O33 O 0.93909 0.79753 0.32274 0.0
C34 C 0.89086 0.76993 0.28389 0.0
O35 O 0.87466 0.77268 0.29552 0.0
C36 C 0.88749 0.82656 0.30133 0.0
O37 O 0.89441 0.82028 0.28348 0.0
O38 O 0.89888 0.77083 0.33726 0.0
C39 C 0.17364 0.94828 0.31638 0.0
O40 O 0.16277 0.93825 0.30272 0.0
O41 O 0.16834 0.89214 0.31838 0.0
Zn42 Zn 0.19377 0.90939 0.32014 0.0
O43 O 0.20909 0.90839 0.29346 0.0
C44 C 0.23063 0.90372 0.34316 0.0
O45 O 0.23715 0.91811 0.33067 0.0
O46 O 0.18738 0.93879 0.32635 0.0
C47 C 0.2171 0.89174 0.28733 0.0
O48 O 0.21467 0.87506 0.29835 0.0
C49 C 0.15973 0.88808 0.30138 0.0
O50 O 0.16714 0.896 0.28441 0.0
O51 O 0.21215 0.89779 0.3419 0.0
C52 C 0.03559 0.81057 0.67443 0.0
O53 O 0.04577 0.82027 0.68884 0.0
O54 O 0.09093 0.82012 0.66879 0.0
Zn55 Zn 0.0751 0.79373 0.66728 0.0
O56 O 0.07765 0.77791 0.69355 0.0
C57 C 0.09593 0.78339 0.62935 0.0
O58 O 0.09628 0.80335 0.6267 0.0
O59 O 0.04523 0.7987 0.66238 0.0
C60 C 0.09473 0.77033 0.69891 0.0
O61 O 0.11097 0.77389 0.68756 0.0
C62 C 0.09586 0.82873 0.68556 0.0
O63 O 0.08988 0.8206 0.70299 0.0
O64 O 0.08711 0.77604 0.64509 0.0
C65 C 0.17532 0.04382 0.67427 0.0
O66 O 0.16636 0.054 0.68916 0.0
O67 O 0.16966 0.09994 0.67016 0.0
Zn68 Zn 0.19496 0.08255 0.66822 0.0
O69 O 0.21115 0.08429 0.69438 0.0
C70 C 0.23133 0.08821 0.64436 0.0
O71 O 0.23843 0.07438 0.65716 0.0
O72 O 0.18799 0.0531 0.66277 0.0
C73 C 0.21964 0.10109 0.69939 0.0
O74 O 0.21698 0.11727 0.68769 0.0
C75 C 0.16152 0.1047 0.68721 0.0
O76 O 0.16944 0.09755 0.70429 0.0
O77 O 0.21271 0.09365 0.6457 0.0
C78 C 0.94775 0.17522 0.6795 0.0
O79 O 0.93821 0.16565 0.69442 0.0
O80 O 0.8921 0.16675 0.67623 0.0
Zn81 Zn 0.9082 0.19291 0.67413 0.0
O82 O 0.90658 0.20892 0.70037 0.0
C83 C 0.88756 0.20331 0.63612 0.0
O84 O 0.88755 0.18339 0.63319 0.0
O85 O 0.93773 0.18738 0.66809 0.0
C86 C 0.88967 0.21666 0.70604 0.0
O87 O 0.87319 0.21317 0.69503 0.0
C88 C 0.88768 0.15825 0.6932 0.0
O89 O 0.89429 0.1664 0.71039 0.0
O90 O 0.89595 0.21058 0.65212 0.0
C91 C 0.81018 0.94232 0.68357 0.0
O92 O 0.81691 0.93221 0.69963 0.0
O93 O 0.81671 0.88553 0.67715 0.0
Zn94 Zn 0.79187 0.90356 0.67509 0.0
O95 O 0.77504 0.90205 0.70085 0.0
C96 C 0.75598 0.89942 0.65018 0.0
O97 O 0.74903 0.91344 0.66287 0.0
O98 O 0.79948 0.93293 0.67029 0.0
C99 C 0.7655 0.88571 0.70542 0.0
O100 O 0.76761 0.8695 0.69364 0.0
C101 C 0.82447 0.87996 0.69413 0.0
O102 O 0.81651 0.88671 0.71135 0.0
O103 O 0.77433 0.89326 0.65204 0.0
C104 C 0.29564 0.03957 0.1756 0.0
O105 O 0.27905 0.04941 0.16994 0.0
O106 O 0.30341 0.09741 0.16959 0.0
Zn107 Zn 0.30456 0.07832 0.19379 0.0
O108 O 0.27839 0.07941 0.20978 0.0
C109 C 0.34099 0.0994 0.20828 0.0
O110 O 0.34264 0.10531 0.18909 0.0
O111 O 0.30941 0.04919 0.18542 0.0
C112 C 0.27326 0.09603 0.21853 0.0
O113 O 0.28457 0.11245 0.21574 0.0
C114 C 0.28669 0.10285 0.16128 0.0
O115 O 0.26939 0.09517 0.16807 0.0
O116 O 0.32648 0.08748 0.21334 0.0
C117 C 0.94958 0.31363 0.18407 0.0
O118 O 0.93934 0.303 0.17038 0.0
O119 O 0.89429 0.31093 0.18141 0.0
Zn120 Zn 0.91174 0.31128 0.20681 0.0
O121 O 0.9118 0.28385 0.22071 0.0
C122 C 0.89054 0.34721 0.2225 0.0
O123 O 0.88874 0.35221 0.20306 0.0
O124 O 0.94067 0.31919 0.20047 0.0
C125 C 0.89519 0.27705 0.22821 0.0
O126 O 0.87823 0.28745 0.22525 0.0
C127 C 0.8908 0.29466 0.17127 0.0
O128 O 0.89908 0.27733 0.17727 0.0
O129 O 0.89999 0.33092 0.2273 0.0
C130 C 0.69279 0.95145 0.18173 0.0
O131 O 0.70887 0.94129 0.17519 0.0
O132 O 0.68696 0.89545 0.17232 0.0
Zn133 Zn 0.68304 0.91219 0.19785 0.0
O134 O 0.70736 0.91006 0.21653 0.0
C135 C 0.64385 0.89254 0.20414 0.0
O136 O 0.64355 0.89193 0.184 0.0
O137 O 0.67886 0.94187 0.19135 0.0
C138 C 0.71114 0.89354 0.22612 0.0
O139 O 0.69951 0.87743 0.22288 0.0
C140 C 0.70404 0.88858 0.16607 0.0
O141 O 0.72081 0.89318 0.17619 0.0
O142 O 0.65884 0.90103 0.21319 0.0
C143 C 0.03451 0.68001 0.17555 0.0
O144 O 0.04379 0.69436 0.1649 0.0
O145 O 0.0902 0.67763 0.16729 0.0
Zn146 Zn 0.07419 0.67623 0.19358 0.0
O147 O 0.07562 0.70297 0.20867 0.0
C148 C 0.10228 0.64493 0.20764 0.0
O149 O 0.11016 0.64712 0.18924 0.0
O150 O 0.04474 0.66964 0.18844 0.0
C151 C 0.09263 0.70889 0.21601 0.0
O152 O 0.10912 0.69796 0.21239 0.0
C153 C 0.09479 0.69431 0.15836 0.0
O154 O 0.08809 0.71173 0.16592 0.0
O155 O 0.0865 0.65519 0.2125 0.0
C156 C 0.29757 0.95607 0.80627 0.0
O157 O 0.28205 0.94613 0.81432 0.0
O158 O 0.30335 0.89953 0.81211 0.0
Zn159 Zn 0.30432 0.91734 0.787 0.0
O160 O 0.27799 0.91567 0.77129 0.0
C161 C 0.34123 0.89643 0.77392 0.0
O162 O 0.34342 0.89262 0.79358 0.0
O163 O 0.30968 0.94663 0.79433 0.0
C164 C 0.27311 0.8988 0.76288 0.0
O165 O 0.28481 0.88268 0.7658 0.0
C166 C 0.28679 0.89416 0.82079 0.0
O167 O 0.26927 0.90085 0.81354 0.0
O168 O 0.32615 0.90713 0.76793 0.0
C169 C 0.03443 0.30967 0.81092 0.0
O170 O 0.04458 0.29492 0.82011 0.0
O171 O 0.09083 0.31533 0.81719 0.0
Zn172 Zn 0.07324 0.3158 0.79185 0.0
O173 O 0.07484 0.28888 0.77711 0.0
C174 C 0.09702 0.35029 0.77667 0.0
O175 O 0.10307 0.3518 0.79583 0.0
O176 O 0.04383 0.32133 0.79849 0.0
C177 C 0.09173 0.2835 0.7691 0.0
O178 O 0.10793 0.29512 0.77183 0.0
C179 C 0.09607 0.29882 0.82609 0.0
O180 O 0.0892 0.28123 0.81912 0.0
O181 O 0.0839 0.33675 0.77189 0.0
C182 C 0.68442 0.03366 0.81297 0.0
O183 O 0.70039 0.04336 0.82042 0.0
O184 O 0.6789 0.09073 0.81967 0.0
Zn185 Zn 0.67743 0.07277 0.79457 0.0
O186 O 0.70383 0.07384 0.77888 0.0
C187 C 0.64169 0.09541 0.7805 0.0
O188 O 0.64016 0.101 0.7998 0.0
O189 O 0.6718 0.04344 0.80186 0.0
C190 C 0.70911 0.09044 0.77018 0.0
O191 O 0.69772 0.10684 0.77268 0.0
C192 C 0.69577 0.09536 0.8282 0.0
O193 O 0.71288 0.08779 0.82082 0.0
O194 O 0.65584 0.08315 0.77524 0.0
C195 C 0.95437 0.66859 0.81235 0.0
O196 O 0.94458 0.68132 0.82449 0.0
O197 O 0.89923 0.66664 0.82109 0.0
Zn198 Zn 0.91458 0.66485 0.79445 0.0
O199 O 0.91241 0.69134 0.77899 0.0
C200 C 0.89168 0.62816 0.78423 0.0
O201 O 0.89128 0.62557 0.80421 0.0
O202 O 0.94439 0.65894 0.7987 0.0
C203 C 0.89524 0.69718 0.77197 0.0
O204 O 0.87888 0.68613 0.77584 0.0
C205 C 0.89511 0.68347 0.82997 0.0
O206 O 0.90187 0.70071 0.82207 0.0
O207 O 0.90139 0.64331 0.7768 0.0
C208 C 0.17073 0.31544 0.0373 0.0
O209 O 0.16239 0.29997 0.04712 0.0
O210 O 0.1632 0.32117 0.09433 0.0
Zn211 Zn 0.18843 0.32261 0.07676 0.0
O212 O 0.20402 0.29617 0.07864 0.0
C213 C 0.22531 0.3457 0.08204 0.0
O214 O 0.2319 0.3328 0.06803 0.0
O215 O 0.18201 0.32788 0.04714 0.0
C216 C 0.21169 0.29063 0.09566 0.0
O217 O 0.20858 0.30201 0.11199 0.0
C218 C 0.15458 0.30427 0.09874 0.0
O219 O 0.16167 0.2872 0.09075 0.0
O220 O 0.20675 0.34472 0.08779 0.0
C221 C 0.17506 0.68442 0.94535 0.0
O222 O 0.16777 0.70035 0.93542 0.0
O223 O 0.17094 0.67696 0.88757 0.0
Zn224 Zn 0.19499 0.67726 0.90685 0.0
O225 O 0.20944 0.70436 0.90552 0.0
C226 C 0.21129 0.64064 0.88733 0.0
O227 O 0.19215 0.63724 0.8822 0.0
O228 O 0.18662 0.67192 0.93594 0.0
C229 C 0.21787 0.70968 0.88879 0.0
O230 O 0.21589 0.69781 0.87263 0.0
C231 C 0.16161 0.69326 0.88246 0.0
O232 O 0.16732 0.71082 0.89049 0.0
O233 O 0.21565 0.65627 0.89807 0.0
C234 C 0.2988 0.18119 0.95175 0.0
O235 O 0.28307 0.17403 0.94143 0.0
O236 O 0.30504 0.17289 0.89571 0.0
Zn237 Zn 0.3082 0.19833 0.91271 0.0
O238 O 0.28345 0.21641 0.91023 0.0
C239 C 0.33586 0.23226 0.90721 0.0
O240 O 0.32386 0.24099 0.92081 0.0
O241 O 0.31225 0.19165 0.94237 0.0
C242 C 0.27936 0.22555 0.89353 0.0
O243 O 0.29114 0.22245 0.87749 0.0
C244 C 0.28799 0.1662 0.88917 0.0
O245 O 0.27104 0.17567 0.89437 0.0
O246 O 0.33238 0.21385 0.90189 0.0
C247 C 0.81365 0.30489 0.95424 0.0
O248 O 0.82036 0.28868 0.94436 0.0
O249 O 0.8178 0.3124 0.89626 0.0
Zn250 Zn 0.79389 0.31223 0.91576 0.0
O251 O 0.77969 0.28497 0.91465 0.0
C252 C 0.77702 0.34857 0.896 0.0
O253 O 0.7961 0.35221 0.89079 0.0
O254 O 0.80246 0.31772 0.94482 0.0
C255 C 0.77166 0.27927 0.89784 0.0
O256 O 0.77371 0.29096 0.88156 0.0
C257 C 0.82706 0.29597 0.8914 0.0
O258 O 0.82142 0.27861 0.8999 0.0
O259 O 0.77293 0.33297 0.90689 0.0
C260 C 0.6936 0.80738 0.95291 0.0
O261 O 0.70958 0.81408 0.94268 0.0
O262 O 0.68494 0.81268 0.89597 0.0
Zn263 Zn 0.68514 0.78812 0.91454 0.0
O264 O 0.71177 0.77295 0.9127 0.0
C265 C 0.64698 0.77376 0.89679 0.0
O266 O 0.6434 0.79338 0.89395 0.0
O267 O 0.68051 0.79628 0.94375 0.0
C268 C 0.7168 0.76446 0.8959 0.0
O269 O 0.70505 0.76697 0.87975 0.0
C270 C 0.70109 0.82175 0.89003 0.0
O271 O 0.71898 0.81523 0.89649 0.0
O272 O 0.6634 0.76829 0.90563 0.0
C273 C 0.8132 0.66887 0.04265 0.0
O274 O 0.82409 0.68191 0.05344 0.0
O275 O 0.81611 0.66731 0.09846 0.0
Zn276 Zn 0.79119 0.66499 0.08059 0.0
O277 O 0.77517 0.69123 0.08175 0.0
C278 C 0.75482 0.64091 0.08597 0.0
O279 O 0.74779 0.65342 0.07184 0.0
O280 O 0.79861 0.65931 0.05127 0.0
C281 C 0.76697 0.69688 0.09849 0.0
O282 O 0.76945 0.68553 0.11495 0.0
C283 C 0.82413 0.68452 0.10282 0.0
O284 O 0.81646 0.7013 0.09478 0.0
O285 O 0.77333 0.64257 0.09171 0.0
C286 C 0.29708 0.81487 0.03478 0.0
O287 O 0.28061 0.82079 0.04469 0.0
O288 O 0.30462 0.81996 0.09244 0.0
Zn289 Zn 0.30583 0.79578 0.07332 0.0
O290 O 0.27977 0.77958 0.07472 0.0
C291 C 0.34317 0.78183 0.09323 0.0
O292 O 0.34502 0.8011 0.09878 0.0
O293 O 0.31051 0.80443 0.04421 0.0
C294 C 0.27505 0.77073 0.09142 0.0
O295 O 0.2868 0.77337 0.10756 0.0
C296 C 0.28783 0.82815 0.09785 0.0
O297 O 0.27058 0.82111 0.09027 0.0
O298 O 0.32814 0.77652 0.0821 0.0
C299 C 0.69258 0.17432 0.04387 0.0
O300 O 0.70913 0.16866 0.05378 0.0
O301 O 0.68534 0.16967 0.10167 0.0
Zn302 Zn 0.68377 0.19362 0.0823 0.0
O303 O 0.70969 0.21008 0.08347 0.0
C304 C 0.64627 0.20719 0.1021 0.0
O305 O 0.64441 0.18781 0.10724 0.0
O306 O 0.67905 0.18468 0.05327 0.0
C307 C 0.71442 0.21897 0.10014 0.0
O308 O 0.7028 0.21621 0.11635 0.0
C309 C 0.70226 0.16167 0.10699 0.0
O310 O 0.71935 0.1687 0.09907 0.0
O311 O 0.66137 0.21272 0.09116 0.0
C312 C 0.94788 0.80492 0.68024 0.0
O313 O 0.93805 0.81466 0.69487 0.0
O314 O 0.89154 0.80823 0.67839 0.0
Zn315 Zn 0.90976 0.78341 0.67713 0.0
O316 O 0.90957 0.76828 0.70393 0.0
C317 C 0.88848 0.76928 0.64068 0.0
O318 O 0.88534 0.78891 0.63751 0.0
O319 O 0.93861 0.7911 0.67014 0.0
C320 C 0.893 0.76003 0.70992 0.0
O321 O 0.87631 0.76273 0.69902 0.0
C322 C 0.88664 0.81706 0.69506 0.0
O323 O 0.8941 0.8102 0.71246 0.0
O324 O 0.89887 0.7637 0.65616 0.0
C325 C 0.17182 0.95564 0.67278 0.0
O326 O 0.16331 0.94587 0.68819 0.0
O327 O 0.16366 0.89906 0.66787 0.0
Zn328 Zn 0.18919 0.91618 0.66624 0.0
O329 O 0.20466 0.91481 0.69278 0.0
C330 C 0.20095 0.89516 0.62885 0.0
O331 O 0.18111 0.89411 0.62579 0.0
O332 O 0.18313 0.94572 0.66042 0.0
C333 C 0.21262 0.89802 0.69857 0.0
O334 O 0.20984 0.88149 0.68738 0.0
C335 C 0.15532 0.89407 0.68476 0.0
O336 O 0.16292 0.90114 0.70201 0.0
O337 O 0.20767 0.90442 0.64462 0.0
C338 C 0.03573 0.17861 0.67906 0.0
O339 O 0.04617 0.16965 0.69375 0.0
O340 O 0.09225 0.17469 0.67333 0.0
Zn341 Zn 0.07379 0.19934 0.67321 0.0
O342 O 0.07509 0.2139 0.70027 0.0
C343 C 0.09408 0.21455 0.63662 0.0
O344 O 0.09791 0.19508 0.63322 0.0
O345 O 0.04466 0.19161 0.66765 0.0
C346 C 0.0919 0.2219 0.70586 0.0
O347 O 0.10817 0.21944 0.69428 0.0
C348 C 0.09755 0.16564 0.68975 0.0
O349 O 0.09027 0.17208 0.70739 0.0
O350 O 0.08361 0.2196 0.65223 0.0
C351 C 0.81185 0.03058 0.68363 0.0
O352 O 0.81904 0.04041 0.69967 0.0
O353 O 0.82024 0.08721 0.67735 0.0
Zn354 Zn 0.79487 0.06993 0.67566 0.0
O355 O 0.77882 0.07188 0.70184 0.0
C356 C 0.78418 0.08995 0.63752 0.0
O357 O 0.8041 0.09064 0.63495 0.0
O358 O 0.80139 0.04037 0.67046 0.0
C359 C 0.77088 0.08887 0.70706 0.0
O360 O 0.77409 0.10511 0.69557 0.0
C361 C 0.82845 0.09271 0.69413 0.0
O362 O 0.82079 0.08609 0.71154 0.0
O363 O 0.77693 0.08121 0.65334 0.0
C364 C 0.9565 0.17643 0.33094 0.0
O365 O 0.94626 0.16031 0.32462 0.0
O366 O 0.90143 0.17126 0.32687 0.0
Zn367 Zn 0.91749 0.19757 0.32679 0.0
O368 O 0.91568 0.21092 0.29914 0.0
C369 C 0.89106 0.21252 0.35929 0.0
O370 O 0.88545 0.19322 0.36049 0.0
O371 O 0.94716 0.19333 0.33343 0.0
C372 C 0.89835 0.21667 0.29244 0.0
O373 O 0.88191 0.21268 0.30333 0.0
C374 C 0.89851 0.16068 0.31076 0.0
O375 O 0.90712 0.16643 0.29349 0.0
O376 O 0.90494 0.2176 0.34663 0.0
C377 C 0.81464 0.95008 0.32277 0.0
O378 O 0.82611 0.93968 0.30991 0.0
O379 O 0.81794 0.89423 0.32302 0.0
Zn380 Zn 0.79281 0.91183 0.3252 0.0
O381 O 0.77701 0.91081 0.29877 0.0
C382 C 0.75612 0.90568 0.34848 0.0
O383 O 0.74929 0.92007 0.33616 0.0
O384 O 0.79978 0.94112 0.33158 0.0
C385 C 0.76884 0.89404 0.29315 0.0
O386 O 0.77149 0.8776 0.30448 0.0
C387 C 0.82629 0.89013 0.30589 0.0
O388 O 0.81886 0.89831 0.28906 0.0
O389 O 0.7747 0.90012 0.34711 0.0
C390 C 0.03643 0.81062 0.31071 0.0
O391 O 0.04628 0.82118 0.29668 0.0
O392 O 0.09259 0.81594 0.3141 0.0
Zn393 Zn 0.07518 0.79055 0.31406 0.0
O394 O 0.07619 0.77671 0.28662 0.0
C395 C 0.09767 0.7756 0.3493 0.0
O396 O 0.10119 0.79516 0.35254 0.0
O397 O 0.04597 0.79693 0.32072 0.0
C398 C 0.09307 0.7694 0.28029 0.0
O399 O 0.10962 0.77215 0.29139 0.0
C400 C 0.09724 0.82569 0.29789 0.0
O401 O 0.08991 0.81951 0.28018 0.0
O402 O 0.08648 0.7703 0.33428 0.0
C403 C 0.17418 0.03648 0.31554 0.0
O404 O 0.16287 0.04647 0.30223 0.0
O405 O 0.16934 0.09283 0.31835 0.0
Zn406 Zn 0.19467 0.07536 0.31847 0.0
O407 O 0.2083 0.07677 0.29097 0.0
C408 C 0.21067 0.10059 0.35152 0.0
O409 O 0.19179 0.1074 0.3525 0.0
O410 O 0.18839 0.04595 0.32488 0.0
C411 C 0.21501 0.09396 0.28475 0.0
O412 O 0.21196 0.11033 0.29609 0.0
C413 C 0.15914 0.09659 0.30219 0.0
O414 O 0.16466 0.08811 0.28477 0.0
O415 O 0.21506 0.08655 0.33875 0.0
C416 C 0.68282 0.94541 0.81322 0.0
O417 O 0.6984 0.93518 0.82077 0.0
O418 O 0.6778 0.88912 0.8205 0.0
Zn419 Zn 0.6742 0.90639 0.79524 0.0
O420 O 0.699 0.90424 0.77716 0.0
C421 C 0.64712 0.90112 0.761 0.0
O422 O 0.65919 0.91501 0.75283 0.0
O423 O 0.66982 0.93601 0.80219 0.0
C424 C 0.70328 0.88745 0.76827 0.0
O425 O 0.69163 0.87136 0.77157 0.0
C426 C 0.69526 0.88396 0.82734 0.0
O427 O 0.71181 0.89075 0.81815 0.0
O428 O 0.65024 0.89548 0.77938 0.0
C429 C 0.04208 0.67386 0.8063 0.0
O430 O 0.05241 0.68609 0.8185 0.0
O431 O 0.09795 0.67474 0.80796 0.0
Zn432 Zn 0.07972 0.67372 0.78309 0.0
O433 O 0.07991 0.70078 0.76842 0.0
C434 C 0.10114 0.63768 0.76796 0.0
O435 O 0.10475 0.63412 0.78746 0.0
O436 O 0.05083 0.66648 0.79055 0.0
C437 C 0.09655 0.70694 0.76045 0.0
O438 O 0.11323 0.69601 0.76309 0.0
C439 C 0.10164 0.6914 0.81738 0.0
O440 O 0.09298 0.70842 0.81102 0.0
O441 O 0.09056 0.65319 0.76292 0.0
C442 C 0.30005 0.04421 0.8088 0.0
O443 O 0.28459 0.05443 0.81662 0.0
O444 O 0.30544 0.09974 0.81761 0.0
Zn445 Zn 0.30864 0.08339 0.79174 0.0
O446 O 0.28371 0.08562 0.77387 0.0
C447 C 0.33565 0.08936 0.75753 0.0
O448 O 0.32366 0.07555 0.74911 0.0
O449 O 0.3131 0.05371 0.79792 0.0
C450 C 0.27952 0.10213 0.76444 0.0
O451 O 0.2912 0.11829 0.76727 0.0
C452 C 0.28833 0.10575 0.82465 0.0
O453 O 0.2714 0.1007 0.81503 0.0
O454 O 0.33247 0.0947 0.776 0.0
C455 C 0.94638 0.30779 0.81004 0.0
O456 O 0.93657 0.293 0.81953 0.0
O457 O 0.88986 0.31236 0.81563 0.0
Zn458 Zn 0.90752 0.31272 0.79032 0.0
O459 O 0.90627 0.28565 0.77572 0.0
C460 C 0.8861 0.34884 0.77531 0.0
O461 O 0.88208 0.3521 0.79478 0.0
O462 O 0.93681 0.31879 0.79716 0.0
C463 C 0.88947 0.27994 0.76774 0.0
O464 O 0.8731 0.29134 0.77035 0.0
C465 C 0.88565 0.29584 0.82504 0.0
O466 O 0.89331 0.27847 0.81835 0.0
O467 O 0.89696 0.33352 0.77026 0.0
C468 C 0.6957 0.03951 0.18629 0.0
O469 O 0.71187 0.04948 0.17966 0.0
O470 O 0.68788 0.09667 0.18129 0.0
Zn471 Zn 0.68766 0.07798 0.20581 0.0
O472 O 0.71417 0.07962 0.22127 0.0
C473 C 0.649 0.09488 0.22037 0.0
O474 O 0.64486 0.09724 0.2008 0.0
O475 O 0.68279 0.04884 0.19746 0.0
C476 C 0.71918 0.09644 0.22971 0.0
O477 O 0.70754 0.11262 0.22691 0.0
C478 C 0.70432 0.10174 0.17219 0.0
O479 O 0.72184 0.09441 0.17879 0.0
O480 O 0.66589 0.08682 0.22562 0.0
C481 C 0.94659 0.67838 0.17959 0.0
O482 O 0.93585 0.69211 0.16955 0.0
O483 O 0.89082 0.67319 0.17567 0.0
Zn484 Zn 0.90869 0.67352 0.20072 0.0
O485 O 0.90725 0.70084 0.21474 0.0
C486 C 0.88746 0.6376 0.21603 0.0
O487 O 0.88365 0.63429 0.19653 0.0
O488 O 0.93793 0.66787 0.1935 0.0
C489 C 0.89036 0.70679 0.22231 0.0
O490 O 0.87398 0.69538 0.21975 0.0
C491 C 0.8856 0.68934 0.16614 0.0
O492 O 0.89248 0.70719 0.17243 0.0
O493 O 0.89836 0.65289 0.22112 0.0
C494 C 0.29564 0.95139 0.17688 0.0
O495 O 0.27952 0.94118 0.17049 0.0
O496 O 0.30389 0.89444 0.17062 0.0
Zn497 Zn 0.30498 0.91277 0.19542 0.0
O498 O 0.27918 0.91049 0.21192 0.0
C499 C 0.34189 0.89182 0.20897 0.0
O500 O 0.34296 0.88561 0.18984 0.0
O501 O 0.30908 0.94214 0.18747 0.0
C502 C 0.27517 0.89362 0.22078 0.0
O503 O 0.2873 0.87785 0.21769 0.0
C504 C 0.28719 0.88897 0.16228 0.0
O505 O 0.2698 0.89579 0.16973 0.0
O506 O 0.32755 0.90381 0.21431 0.0
C507 C 0.03742 0.31706 0.18109 0.0
O508 O 0.04733 0.30625 0.16731 0.0
O509 O 0.09286 0.31668 0.1756 0.0
Zn510 Zn 0.0764 0.31647 0.20169 0.0
O511 O 0.07684 0.28873 0.21502 0.0
C512 C 0.09799 0.35242 0.21656 0.0
O513 O 0.09885 0.35727 0.19703 0.0
O514 O 0.04703 0.32377 0.19665 0.0
C515 C 0.0933 0.27885 0.21815 0.0
O516 O 0.11071 0.28648 0.21158 0.0
C517 C 0.09558 0.30092 0.16447 0.0
O518 O 0.08694 0.28351 0.16972 0.0
O519 O 0.08885 0.33609 0.22191 0.0
C520 C 0.81754 0.67003 0.95449 0.0
O521 O 0.82894 0.68378 0.9452 0.0
O522 O 0.82496 0.66785 0.89825 0.0
Zn523 Zn 0.799 0.66708 0.91471 0.0
O524 O 0.78452 0.69416 0.91324 0.0
C525 C 0.78621 0.6303 0.89318 0.0
O526 O 0.80594 0.62651 0.89229 0.0
O527 O 0.80412 0.66038 0.94424 0.0
C528 C 0.77722 0.7002 0.89623 0.0
O529 O 0.78022 0.689 0.87975 0.0
C530 C 0.8343 0.68439 0.89398 0.0
O531 O 0.8274 0.70182 0.90132 0.0
O532 O 0.78 0.64629 0.90239 0.0
C533 C 0.81667 0.30658 0.04247 0.0
O534 O 0.82348 0.29044 0.05239 0.0
O535 O 0.82399 0.31324 0.09986 0.0
Zn536 Zn 0.79919 0.31482 0.08167 0.0
O537 O 0.78333 0.28852 0.08313 0.0
C538 C 0.78708 0.35271 0.10156 0.0
O539 O 0.8069 0.35551 0.10344 0.0
O540 O 0.8064 0.31996 0.05219 0.0
C541 C 0.77515 0.28311 0.09995 0.0
O542 O 0.77794 0.29452 0.11633 0.0
C543 C 0.83228 0.29638 0.10494 0.0
O544 O 0.82521 0.27917 0.09724 0.0
O545 O 0.78055 0.3369 0.09227 0.0
C546 C 0.69264 0.81054 0.0411 0.0
O547 O 0.70876 0.81725 0.0511 0.0
O548 O 0.68691 0.81913 0.09733 0.0
Zn549 Zn 0.68336 0.79373 0.08033 0.0
O550 O 0.70778 0.77523 0.08243 0.0
C551 C 0.64417 0.78603 0.09985 0.0
O552 O 0.64329 0.8061 0.1013 0.0
O553 O 0.67906 0.80052 0.05075 0.0
C554 C 0.7111 0.76537 0.0989 0.0
O555 O 0.69914 0.7685 0.11479 0.0
C556 C 0.704 0.82564 0.10394 0.0
O557 O 0.72085 0.81581 0.09906 0.0
O558 O 0.65942 0.77777 0.09106 0.0
C559 C 0.17261 0.6828 0.03357 0.0
O560 O 0.16495 0.6985 0.04358 0.0
O561 O 0.16481 0.67666 0.09013 0.0
Zn562 Zn 0.1902 0.67509 0.07279 0.0
O563 O 0.20591 0.70146 0.07449 0.0
C564 C 0.20229 0.63768 0.09379 0.0
O565 O 0.1825 0.63527 0.09644 0.0
O566 O 0.18355 0.66992 0.04321 0.0
C567 C 0.21409 0.70684 0.09133 0.0
O568 O 0.21135 0.69536 0.10766 0.0
C569 C 0.15638 0.69352 0.095 0.0
O570 O 0.16397 0.71077 0.08795 0.0
O571 O 0.20874 0.65306 0.08374 0.0
C572 C 0.29627 0.18327 0.03997 0.0
O573 O 0.2802 0.17617 0.04976 0.0
O574 O 0.30304 0.17742 0.09709 0.0
Zn575 Zn 0.30375 0.20223 0.07879 0.0
O576 O 0.27727 0.21769 0.08015 0.0
C577 C 0.34116 0.2169 0.09837 0.0
O578 O 0.34442 0.19746 0.10251 0.0
O579 O 0.309 0.19443 0.04956 0.0
C580 C 0.27227 0.22647 0.0968 0.0
O581 O 0.28394 0.22405 0.11304 0.0
C582 C 0.28641 0.1685 0.10183 0.0
O583 O 0.26908 0.17548 0.0944 0.0
O584 O 0.32535 0.22196 0.08827 0.0
C585 C 0.17337 0.31423 0.94902 0.0
O586 O 0.16472 0.29909 0.93895 0.0
O587 O 0.16733 0.31807 0.89281 0.0
Zn588 Zn 0.19263 0.32023 0.91019 0.0
O589 O 0.20898 0.29417 0.9089 0.0
C590 C 0.22887 0.34427 0.90445 0.0
O591 O 0.23579 0.33207 0.9189 0.0
O592 O 0.1857 0.32598 0.93961 0.0
C593 C 0.21803 0.28921 0.89238 0.0
O594 O 0.2157 0.30079 0.87606 0.0
C595 C 0.1593 0.30102 0.88788 0.0
O596 O 0.16733 0.28394 0.89486 0.0
O597 O 0.21036 0.34258 0.89872 0.0
C598 C 0.69116 0.17206 0.95566 0.0
O599 O 0.70757 0.16626 0.94559 0.0
O600 O 0.68144 0.16524 0.89796 0.0
Zn601 Zn 0.68146 0.18971 0.91679 0.0
O602 O 0.70799 0.20504 0.91473 0.0
C603 C 0.64568 0.20581 0.89551 0.0
O604 O 0.64403 0.18709 0.88826 0.0
O605 O 0.67723 0.18177 0.94617 0.0
C606 C 0.71254 0.21379 0.89794 0.0
O607 O 0.70046 0.2113 0.88202 0.0
C608 C 0.69784 0.15634 0.89246 0.0
O609 O 0.71542 0.16279 0.89979 0.0
O610 O 0.65985 0.20989 0.90819 0.0
C611 C 0.29872 0.81714 0.94656 0.0
O612 O 0.2824 0.82314 0.93646 0.0
O613 O 0.30606 0.82483 0.88957 0.0
Zn614 Zn 0.30831 0.79992 0.90754 0.0
O615 O 0.28279 0.78291 0.90568 0.0
C616 C 0.34736 0.78938 0.88905 0.0
O617 O 0.34953 0.80933 0.88742 0.0
O618 O 0.31262 0.80741 0.93704 0.0
C619 C 0.27799 0.77435 0.88886 0.0
O620 O 0.28943 0.77756 0.8726 0.0
C621 C 0.289 0.83253 0.88427 0.0
O622 O 0.27197 0.82448 0.8913 0.0
O623 O 0.33138 0.78221 0.89752 0.0
C624 C 0.53548 0.67904 0.81687 0.0
O625 O 0.54539 0.66836 0.80298 0.0
O626 O 0.59157 0.67347 0.81894 0.0
Zn627 Zn 0.57435 0.69902 0.82048 0.0
O628 O 0.57535 0.71423 0.79376 0.0
C629 C 0.59865 0.71257 0.85523 0.0
O630 O 0.60362 0.6931 0.85655 0.0
O631 O 0.54503 0.6927 0.82693 0.0
C632 C 0.59212 0.72223 0.788 0.0
O633 O 0.6086 0.7194 0.7992 0.0
C634 C 0.59622 0.66481 0.80211 0.0
O635 O 0.58892 0.67217 0.78485 0.0
O636 O 0.58597 0.71823 0.8416 0.0
C637 C 0.31428 0.5365 0.80806 0.0
O638 O 0.32344 0.54651 0.79318 0.0
O639 O 0.31843 0.59337 0.81371 0.0
Zn640 Zn 0.29384 0.57491 0.81289 0.0
O641 O 0.28054 0.57595 0.7852 0.0
C642 C 0.27681 0.59647 0.84792 0.0
O643 O 0.29596 0.60141 0.85153 0.0
O644 O 0.30127 0.54583 0.81913 0.0
C645 C 0.27282 0.59277 0.77918 0.0
O646 O 0.27483 0.60914 0.79075 0.0
C647 C 0.32829 0.59839 0.79768 0.0
O648 O 0.32276 0.59078 0.77987 0.0
O649 O 0.27265 0.58489 0.83283 0.0
C650 C 0.45252 0.31057 0.82128 0.0
O651 O 0.44248 0.32371 0.80981 0.0
O652 O 0.39762 0.31573 0.81904 0.0
Zn653 Zn 0.41369 0.28968 0.82178 0.0
O654 O 0.41231 0.27354 0.79558 0.0
C655 C 0.39217 0.28067 0.85936 0.0
O656 O 0.39313 0.30063 0.86184 0.0
O657 O 0.44313 0.29514 0.82855 0.0
C658 C 0.39525 0.26645 0.7895 0.0
O659 O 0.37869 0.27039 0.80024 0.0
C660 C 0.39372 0.32422 0.80195 0.0
O661 O 0.40122 0.31631 0.78501 0.0
O662 O 0.40055 0.27261 0.84374 0.0
C663 C 0.67527 0.45241 0.81383 0.0
O664 O 0.66779 0.44227 0.79812 0.0
O665 O 0.66932 0.39498 0.82198 0.0
Zn666 Zn 0.6939 0.41361 0.8214 0.0
O667 O 0.70758 0.41202 0.79391 0.0
C668 C 0.71091 0.39167 0.85631 0.0
O669 O 0.69191 0.38574 0.85918 0.0
O670 O 0.68648 0.44301 0.82667 0.0
C671 C 0.71518 0.39509 0.78803 0.0
O672 O 0.713 0.37882 0.79971 0.0
C673 C 0.65968 0.39028 0.80571 0.0
O674 O 0.66534 0.39843 0.78819 0.0
O675 O 0.71493 0.40399 0.84177 0.0
C676 C 0.53931 0.30612 0.18254 0.0
O677 O 0.54958 0.31575 0.19693 0.0
O678 O 0.59529 0.30925 0.17931 0.0
Zn679 Zn 0.57708 0.28443 0.1789 0.0
O680 O 0.57758 0.27006 0.20609 0.0
C681 C 0.59862 0.26923 0.14309 0.0
O682 O 0.60228 0.28874 0.13971 0.0
O683 O 0.54817 0.29217 0.17226 0.0
C684 C 0.59427 0.26218 0.21221 0.0
O685 O 0.61087 0.26476 0.20115 0.0
C686 C 0.60023 0.31857 0.19569 0.0
O687 O 0.59292 0.31216 0.21332 0.0
O688 O 0.58772 0.26411 0.15838 0.0
C689 C 0.67004 0.53219 0.17907 0.0
O690 O 0.66192 0.54191 0.19473 0.0
O691 O 0.66232 0.58925 0.17311 0.0
Zn692 Zn 0.68752 0.57168 0.17183 0.0
O693 O 0.70317 0.57368 0.19823 0.0
C694 C 0.6993 0.59164 0.13389 0.0
O695 O 0.67945 0.59289 0.13095 0.0
O696 O 0.6811 0.54211 0.1665 0.0
C697 C 0.71091 0.59077 0.20344 0.0
O698 O 0.70772 0.6069 0.19181 0.0
C699 C 0.65388 0.59464 0.18983 0.0
O700 O 0.66101 0.58751 0.20726 0.0
O701 O 0.706 0.58268 0.14983 0.0
C702 C 0.45235 0.68082 0.16582 0.0
O703 O 0.44169 0.66648 0.17507 0.0
O704 O 0.39699 0.67731 0.16613 0.0
Zn705 Zn 0.41408 0.70293 0.16699 0.0
O706 O 0.41263 0.71587 0.19485 0.0
C707 C 0.39161 0.719 0.13211 0.0
O708 O 0.38823 0.69957 0.12805 0.0
O709 O 0.44352 0.6973 0.16044 0.0
C710 C 0.39551 0.72219 0.20154 0.0
O711 O 0.37898 0.71899 0.19051 0.0
C712 C 0.39349 0.66662 0.18203 0.0
O713 O 0.40179 0.672 0.19957 0.0
O714 O 0.40265 0.72374 0.14741 0.0
C715 C 0.31657 0.45474 0.1665 0.0
O716 O 0.32852 0.44489 0.17935 0.0
O717 O 0.32062 0.39857 0.16728 0.0
Zn718 Zn 0.29533 0.41604 0.16531 0.0
O719 O 0.28013 0.41574 0.19208 0.0
C720 C 0.28263 0.39442 0.12851 0.0
O721 O 0.30239 0.39299 0.12509 0.0
O722 O 0.30181 0.44524 0.15812 0.0
C723 C 0.27247 0.39907 0.19858 0.0
O724 O 0.27539 0.38218 0.18799 0.0
C725 C 0.32947 0.39491 0.18425 0.0
O726 O 0.32249 0.40348 0.20109 0.0
O727 O 0.27638 0.40395 0.1443 0.0
C728 C 0.79883 0.54045 0.68049 0.0
O729 O 0.78288 0.55084 0.674 0.0
O730 O 0.80604 0.59658 0.67252 0.0
Zn731 Zn 0.8087 0.5793 0.69787 0.0
O732 O 0.78361 0.58167 0.71554 0.0
C733 C 0.83548 0.58361 0.73254 0.0
O734 O 0.82295 0.56999 0.74046 0.0
O735 O 0.81257 0.54968 0.69072 0.0
C736 C 0.77932 0.59831 0.7247 0.0
O737 O 0.7911 0.61438 0.72187 0.0
C738 C 0.78892 0.60213 0.66512 0.0
O739 O 0.77193 0.59599 0.67397 0.0
O740 O 0.83269 0.58954 0.71419 0.0
C741 C 0.44616 0.80684 0.68174 0.0
O742 O 0.43633 0.7915 0.67319 0.0
O743 O 0.38969 0.81234 0.67543 0.0
Zn744 Zn 0.40728 0.81318 0.7007 0.0
O745 O 0.40579 0.78669 0.71623 0.0
C746 C 0.38679 0.85036 0.71393 0.0
O747 O 0.38355 0.85305 0.69423 0.0
O748 O 0.43656 0.81875 0.69376 0.0
C749 C 0.3891 0.7816 0.72483 0.0
O750 O 0.37286 0.79318 0.72217 0.0
C751 C 0.38427 0.7958 0.66668 0.0
O752 O 0.39075 0.77819 0.67397 0.0
O753 O 0.39692 0.83486 0.71987 0.0
C754 C 0.18981 0.44576 0.67725 0.0
O755 O 0.20567 0.4353 0.67062 0.0
O756 O 0.181 0.3888 0.67277 0.0
Zn757 Zn 0.18117 0.40773 0.69712 0.0
O758 O 0.20787 0.40601 0.7122 0.0
C759 C 0.14331 0.38982 0.71261 0.0
O760 O 0.1395 0.38587 0.69322 0.0
O761 O 0.1767 0.43688 0.68855 0.0
C762 C 0.21282 0.38935 0.72097 0.0
O763 O 0.2009 0.37327 0.71884 0.0
C764 C 0.1974 0.38344 0.66377 0.0
O765 O 0.21499 0.39061 0.67035 0.0
O766 O 0.15962 0.39926 0.71737 0.0
C767 C 0.53845 0.18165 0.68254 0.0
O768 O 0.54867 0.19653 0.67364 0.0
O769 O 0.59499 0.17521 0.67736 0.0
Zn770 Zn 0.57695 0.1755 0.70235 0.0
O771 O 0.57866 0.20261 0.71674 0.0
C772 C 0.59724 0.13893 0.71771 0.0
O773 O 0.6009 0.1353 0.69824 0.0
O774 O 0.54766 0.17004 0.69516 0.0
C775 C 0.5957 0.20823 0.72426 0.0
O776 O 0.61192 0.19673 0.7212 0.0
C777 C 0.60031 0.19143 0.66798 0.0
O778 O 0.59336 0.20923 0.67432 0.0
O779 O 0.58692 0.15465 0.72268 0.0
C780 C 0.79633 0.44943 0.31444 0.0
O781 O 0.77998 0.43937 0.32046 0.0
O782 O 0.80485 0.3922 0.32241 0.0
Zn783 Zn 0.8064 0.4103 0.29746 0.0
O784 O 0.78084 0.40779 0.28059 0.0
C785 C 0.84288 0.38832 0.28452 0.0
O786 O 0.84299 0.38156 0.30349 0.0
O787 O 0.81029 0.43985 0.30484 0.0
C788 C 0.77707 0.39093 0.2716 0.0
O789 O 0.78931 0.37526 0.27469 0.0
C790 C 0.78799 0.38676 0.33044 0.0
O791 O 0.77077 0.39371 0.32275 0.0
O792 O 0.82926 0.40107 0.27904 0.0
C793 C 0.5391 0.81839 0.3077 0.0
O794 O 0.54932 0.80807 0.32163 0.0
O795 O 0.59335 0.81636 0.3137 0.0
Zn796 Zn 0.57807 0.8186 0.28713 0.0
O797 O 0.58003 0.7924 0.27102 0.0
C798 C 0.58835 0.84274 0.25151 0.0
O799 O 0.57544 0.8303 0.24235 0.0
O800 O 0.54842 0.8249 0.29189 0.0
C801 C 0.59704 0.78634 0.2638 0.0
O802 O 0.61364 0.79702 0.26769 0.0
C803 C 0.5972 0.7995 0.32264 0.0
O804 O 0.59047 0.78229 0.31464 0.0
O805 O 0.59133 0.84092 0.27068 0.0
C806 C 0.1911 0.54754 0.30628 0.0
O807 O 0.20547 0.55731 0.31642 0.0
O808 O 0.18742 0.60424 0.3108 0.0
Zn809 Zn 0.18719 0.58627 0.28574 0.0
O810 O 0.21401 0.58714 0.27081 0.0
C811 C 0.14879 0.6032 0.27015 0.0
O812 O 0.14283 0.60313 0.2894 0.0
O813 O 0.18084 0.5571 0.29279 0.0
C814 C 0.2193 0.60372 0.26207 0.0
O815 O 0.20798 0.62016 0.26467 0.0
C816 C 0.20378 0.60877 0.32031 0.0
O817 O 0.22128 0.60129 0.31381 0.0
O818 O 0.16649 0.59659 0.26562 0.0
C819 C 0.44631 0.17436 0.31098 0.0
O820 O 0.43594 0.18542 0.32422 0.0
O821 O 0.39064 0.17675 0.31255 0.0
Zn822 Zn 0.4087 0.17599 0.28758 0.0
O823 O 0.40863 0.20339 0.27363 0.0
C824 C 0.3868 0.14053 0.27172 0.0
O825 O 0.38343 0.13643 0.29116 0.0
O826 O 0.43759 0.16834 0.29464 0.0
C827 C 0.39178 0.2102 0.26669 0.0
O828 O 0.37498 0.19959 0.26984 0.0
C829 C 0.38785 0.19324 0.32254 0.0
O830 O 0.39738 0.21 0.31675 0.0
O831 O 0.39744 0.1561 0.26699 0.0
C832 C 0.66867 0.8102 0.54032 0.0
O833 O 0.65979 0.79515 0.55032 0.0
O834 O 0.6635 0.81345 0.59662 0.0
Zn835 Zn 0.68853 0.8155 0.57892 0.0
O836 O 0.70438 0.7892 0.57972 0.0
C837 C 0.70033 0.85301 0.59966 0.0
O838 O 0.68048 0.85591 0.6011 0.0
O839 O 0.6813 0.82163 0.54973 0.0
C840 C 0.71279 0.78365 0.59638 0.0
O841 O 0.71016 0.79487 0.61291 0.0
C842 C 0.65541 0.7965 0.60174 0.0
O843 O 0.6631 0.7793 0.59464 0.0
O844 O 0.70699 0.83729 0.59031 0.0
C845 C 0.6732 0.17454 0.45662 0.0
O846 O 0.6644 0.18995 0.44714 0.0
O847 O 0.66449 0.16868 0.39991 0.0
Zn848 Zn 0.69023 0.16831 0.41678 0.0
O849 O 0.70473 0.1954 0.41492 0.0
C850 C 0.72786 0.1467 0.41095 0.0
O851 O 0.73401 0.15965 0.42511 0.0
O852 O 0.68459 0.16248 0.44645 0.0
C853 C 0.71214 0.20135 0.39793 0.0
O854 O 0.70934 0.19002 0.3815 0.0
C855 C 0.6551 0.18517 0.39555 0.0
O856 O 0.66187 0.20263 0.40296 0.0
O857 O 0.70927 0.14706 0.40526 0.0
C858 C 0.79454 0.67783 0.44924 0.0
O859 O 0.77823 0.67143 0.43937 0.0
O860 O 0.80191 0.67248 0.39175 0.0
Zn861 Zn 0.80273 0.69686 0.41062 0.0
O862 O 0.77636 0.71251 0.40944 0.0
C863 C 0.84002 0.71166 0.39104 0.0
O864 O 0.84283 0.69234 0.3861 0.0
O865 O 0.80773 0.68852 0.43974 0.0
C866 C 0.77139 0.72148 0.39289 0.0
O867 O 0.78304 0.71917 0.37663 0.0
C868 C 0.78524 0.66386 0.38662 0.0
O869 O 0.76791 0.67074 0.39417 0.0
O870 O 0.82449 0.71662 0.40163 0.0
C871 C 0.3166 0.81151 0.45203 0.0
O872 O 0.32357 0.79523 0.44243 0.0
O873 O 0.32546 0.81828 0.39456 0.0
Zn874 Zn 0.30031 0.81956 0.4123 0.0
O875 O 0.28476 0.79309 0.41061 0.0
C876 C 0.28785 0.85692 0.39158 0.0
O877 O 0.30763 0.85986 0.38953 0.0
O878 O 0.30676 0.8249 0.44191 0.0
C879 C 0.27693 0.78759 0.39365 0.0
O880 O 0.28005 0.79892 0.37728 0.0
C881 C 0.33409 0.80151 0.38972 0.0
O882 O 0.32718 0.78426 0.39745 0.0
O883 O 0.28151 0.84127 0.40128 0.0
C884 C 0.1856 0.32174 0.44919 0.0
O885 O 0.20101 0.33136 0.44053 0.0
O886 O 0.18404 0.33126 0.39292 0.0
Zn887 Zn 0.18179 0.30499 0.4089 0.0
O888 O 0.20816 0.28895 0.40849 0.0
C889 C 0.15876 0.28771 0.37617 0.0
O890 O 0.16972 0.30106 0.36585 0.0
O891 O 0.17446 0.31007 0.4383 0.0
C892 C 0.21748 0.28433 0.39201 0.0
O893 O 0.21062 0.29141 0.37447 0.0
C894 C 0.20072 0.34036 0.38874 0.0
O895 O 0.21796 0.3333 0.39628 0.0
O896 O 0.16049 0.28699 0.39557 0.0
C897 C 0.31687 0.18198 0.53705 0.0
O898 O 0.3256 0.19694 0.54732 0.0
O899 O 0.32253 0.17774 0.59355 0.0
Zn900 Zn 0.29757 0.17526 0.57574 0.0
O901 O 0.2808 0.20098 0.57692 0.0
C902 C 0.2867 0.13714 0.59597 0.0
O903 O 0.30659 0.1349 0.59787 0.0
O904 O 0.30474 0.16996 0.54637 0.0
C905 C 0.27168 0.20575 0.59344 0.0
O906 O 0.27432 0.19424 0.60977 0.0
C907 C 0.32995 0.1948 0.59933 0.0
O908 O 0.32165 0.21192 0.59278 0.0
O909 O 0.27973 0.15271 0.5866 0.0
C910 C 0.79977 0.30795 0.54349 0.0
O911 O 0.78408 0.31476 0.55408 0.0
O912 O 0.80691 0.31629 0.59944 0.0
Zn913 Zn 0.80966 0.29079 0.58235 0.0
O914 O 0.78471 0.27295 0.58488 0.0
C915 C 0.836 0.25601 0.58744 0.0
O916 O 0.82361 0.24811 0.57367 0.0
O917 O 0.81348 0.29759 0.55261 0.0
C918 C 0.78097 0.26341 0.60144 0.0
O919 O 0.793 0.26625 0.61733 0.0
C920 C 0.78979 0.3236 0.60509 0.0
O921 O 0.77281 0.31456 0.5992 0.0
O922 O 0.83347 0.27451 0.59298 0.0
C923 C 0.18576 0.67997 0.53751 0.0
O924 O 0.20143 0.67324 0.54816 0.0
O925 O 0.17842 0.67093 0.5932 0.0
Zn926 Zn 0.17552 0.69663 0.57645 0.0
O927 O 0.20048 0.71444 0.57913 0.0
C928 C 0.14885 0.73118 0.58156 0.0
O929 O 0.1612 0.73917 0.56781 0.0
O930 O 0.17185 0.69009 0.54662 0.0
C931 C 0.20435 0.72388 0.59573 0.0
O932 O 0.19231 0.72115 0.61163 0.0
C933 C 0.19563 0.66364 0.5986 0.0
O934 O 0.2125 0.6729 0.59274 0.0
O935 O 0.15157 0.71272 0.58715 0.0
C936 C 0.45158 0.31254 0.17906 0.0
O937 O 0.44182 0.32218 0.1938 0.0
O938 O 0.39532 0.32135 0.17242 0.0
Zn939 Zn 0.41196 0.29541 0.17282 0.0
O940 O 0.40989 0.28142 0.20011 0.0
C941 C 0.38809 0.28021 0.13841 0.0
O942 O 0.38284 0.29953 0.13627 0.0
O943 O 0.44161 0.30069 0.16727 0.0
C944 C 0.39283 0.27409 0.20587 0.0
O945 O 0.37656 0.2772 0.19445 0.0
C946 C 0.39056 0.33118 0.18856 0.0
O947 O 0.39729 0.32474 0.20641 0.0
O948 O 0.40075 0.2753 0.15234 0.0
C949 C 0.67383 0.44403 0.17984 0.0
O950 O 0.666 0.43385 0.19535 0.0
O951 O 0.66919 0.38744 0.17557 0.0
Zn952 Zn 0.69385 0.40572 0.17342 0.0
O953 O 0.70983 0.40504 0.19973 0.0
C954 C 0.73059 0.40058 0.1498 0.0
O955 O 0.7374 0.41464 0.16251 0.0
O956 O 0.68593 0.43486 0.16766 0.0
C957 C 0.71846 0.38858 0.20549 0.0
O958 O 0.71627 0.37194 0.19434 0.0
C959 C 0.66126 0.3825 0.19266 0.0
O960 O 0.66884 0.39015 0.20968 0.0
O961 O 0.71206 0.39481 0.15113 0.0
C962 C 0.54036 0.67884 0.16796 0.0
O963 O 0.54994 0.66401 0.17761 0.0
O964 O 0.59467 0.67219 0.17222 0.0
Zn965 Zn 0.57972 0.69898 0.17009 0.0
O966 O 0.58117 0.71482 0.1965 0.0
C967 C 0.58951 0.73497 0.14684 0.0
O968 O 0.57562 0.74318 0.15888 0.0
O969 O 0.5502 0.69484 0.16287 0.0
C970 C 0.59797 0.72261 0.20243 0.0
O971 O 0.61465 0.71912 0.19173 0.0
C972 C 0.59783 0.66288 0.18904 0.0
O973 O 0.59068 0.67068 0.20617 0.0
O974 O 0.59341 0.71596 0.14846 0.0
C975 C 0.31774 0.54297 0.16427 0.0
O976 O 0.32999 0.55312 0.17659 0.0
O977 O 0.32313 0.59912 0.16229 0.0
Zn978 Zn 0.29748 0.5821 0.16149 0.0
O979 O 0.28304 0.58393 0.18862 0.0
C980 C 0.25977 0.58898 0.1401 0.0
O981 O 0.25317 0.57528 0.1533 0.0
O982 O 0.30318 0.55244 0.1555 0.0
C983 C 0.27665 0.60117 0.19503 0.0
O984 O 0.28017 0.61763 0.18398 0.0
C985 C 0.3325 0.60276 0.17899 0.0
O986 O 0.3259 0.59434 0.19605 0.0
O987 O 0.27859 0.59392 0.14023 0.0
C988 C 0.44738 0.67854 0.81754 0.0
O989 O 0.43742 0.66761 0.80389 0.0
O990 O 0.39184 0.67184 0.81927 0.0
Zn991 Zn 0.40824 0.69782 0.82144 0.0
O992 O 0.40673 0.7135 0.79498 0.0
C993 C 0.40023 0.7345 0.84427 0.0
O994 O 0.4142 0.74189 0.83181 0.0
O995 O 0.43779 0.69215 0.82764 0.0
C996 C 0.38976 0.72092 0.78905 0.0
O997 O 0.37326 0.71748 0.80004 0.0
C998 C 0.38805 0.66334 0.80215 0.0
O999 O 0.39567 0.67127 0.78528 0.0
O1000 O 0.39568 0.71558 0.84323 0.0
C1001 C 0.31626 0.44839 0.8098 0.0
O1002 O 0.32566 0.43826 0.79516 0.0
O1003 O 0.32288 0.39224 0.81555 0.0
Zn1004 Zn 0.29742 0.40939 0.8162 0.0
O1005 O 0.28222 0.40724 0.78956 0.0
C1006 C 0.28513 0.39077 0.85467 0.0
O1007 O 0.30491 0.39013 0.8582 0.0
O1008 O 0.3038 0.43893 0.82136 0.0
C1009 C 0.27436 0.39025 0.78422 0.0
O1010 O 0.27718 0.37407 0.79589 0.0
C1011 C 0.33187 0.38712 0.79905 0.0
O1012 O 0.32477 0.39376 0.78141 0.0
O1013 O 0.27867 0.3987 0.83811 0.0
C1014 C 0.54058 0.31085 0.82189 0.0
O1015 O 0.55065 0.32384 0.81028 0.0
O1016 O 0.59678 0.3148 0.8228 0.0
Zn1017 Zn 0.57921 0.28943 0.82242 0.0
O1018 O 0.58 0.27625 0.79463 0.0
C1019 C 0.60146 0.27208 0.85722 0.0
O1020 O 0.6057 0.29123 0.8618 0.0
O1021 O 0.54992 0.29549 0.82932 0.0
C1022 C 0.59686 0.2691 0.78808 0.0
O1023 O 0.61347 0.27172 0.79913 0.0
C1024 C 0.59999 0.325 0.80651 0.0
O1025 O 0.59123 0.31915 0.78935 0.0
O1026 O 0.59027 0.26823 0.84178 0.0
C1027 C 0.67485 0.54068 0.8124 0.0
O1028 O 0.66663 0.5504 0.7968 0.0
O1029 O 0.66747 0.59733 0.81809 0.0
Zn1030 Zn 0.69288 0.58004 0.81932 0.0
O1031 O 0.70883 0.58195 0.79301 0.0
C1032 C 0.72929 0.58471 0.84323 0.0
O1033 O 0.73588 0.57042 0.83065 0.0
O1034 O 0.68633 0.5505 0.82467 0.0
C1035 C 0.71784 0.59855 0.78827 0.0
O1036 O 0.71566 0.61462 0.80022 0.0
C1037 C 0.65893 0.6025 0.80136 0.0
O1038 O 0.66646 0.5958 0.78393 0.0
O1039 O 0.71093 0.5909 0.8417 0.0
C1040 C 0.18819 0.45939 0.30735 0.0
O1041 O 0.20203 0.44903 0.31763 0.0
O1042 O 0.18401 0.40393 0.31418 0.0
Zn1043 Zn 0.18209 0.42038 0.28816 0.0
O1044 O 0.20799 0.41811 0.27179 0.0
C1045 C 0.14673 0.39603 0.27619 0.0
O1046 O 0.14727 0.38977 0.29533 0.0
O1047 O 0.17723 0.4501 0.29421 0.0
C1048 C 0.21292 0.40105 0.26381 0.0
O1049 O 0.20153 0.38486 0.2675 0.0
C1050 C 0.20081 0.3993 0.32281 0.0
O1051 O 0.2181 0.40576 0.31481 0.0
O1052 O 0.15958 0.40935 0.27016 0.0
C1053 C 0.53407 0.16946 0.3158 0.0
O1054 O 0.54396 0.18121 0.32882 0.0
O1055 O 0.58965 0.16799 0.32275 0.0
Zn1056 Zn 0.57355 0.16713 0.29645 0.0
O1057 O 0.57544 0.19413 0.28189 0.0
C1058 C 0.59971 0.13397 0.28247 0.0
O1059 O 0.60562 0.13351 0.30172 0.0
O1060 O 0.54386 0.1611 0.3012 0.0
C1061 C 0.59258 0.20003 0.27485 0.0
O1062 O 0.60891 0.18883 0.27836 0.0
C1063 C 0.59355 0.18461 0.33214 0.0
O1064 O 0.5861 0.20191 0.32507 0.0
O1065 O 0.58575 0.1464 0.27712 0.0
C1066 C 0.79488 0.53758 0.31151 0.0
O1067 O 0.7784 0.54753 0.31731 0.0
O1068 O 0.80208 0.59505 0.31642 0.0
Zn1069 Zn 0.80333 0.57593 0.29225 0.0
O1070 O 0.77713 0.57681 0.27624 0.0
C1071 C 0.8405 0.59606 0.27829 0.0
O1072 O 0.84256 0.60105 0.2977 0.0
O1073 O 0.80834 0.54693 0.30101 0.0
C1074 C 0.77198 0.59326 0.2672 0.0
O1075 O 0.7834 0.60968 0.26951 0.0
C1076 C 0.78535 0.60043 0.32475 0.0
O1077 O 0.76805 0.59289 0.31781 0.0
O1078 O 0.8254 0.58507 0.27284 0.0
C1079 C 0.45104 0.81728 0.308 0.0
O1080 O 0.44113 0.80666 0.32193 0.0
O1081 O 0.39557 0.81627 0.31287 0.0
Zn1082 Zn 0.41222 0.81631 0.28692 0.0
O1083 O 0.41129 0.78885 0.27314 0.0
C1084 C 0.3896 0.85159 0.27154 0.0
O1085 O 0.38664 0.85577 0.29103 0.0
O1086 O 0.44156 0.82348 0.29217 0.0
C1087 C 0.39439 0.78239 0.26598 0.0
O1088 O 0.37773 0.7932 0.26919 0.0
C1089 C 0.39226 0.80003 0.32311 0.0
O1090 O 0.4003 0.78266 0.31688 0.0
O1091 O 0.40027 0.83609 0.26664 0.0
C1092 C 0.19023 0.53385 0.67322 0.0
O1093 O 0.20655 0.54347 0.66646 0.0
O1094 O 0.18236 0.59142 0.66566 0.0
Zn1095 Zn 0.18197 0.57319 0.69051 0.0
O1096 O 0.20852 0.57507 0.70579 0.0
C1097 C 0.14572 0.59448 0.70506 0.0
O1098 O 0.14352 0.59958 0.68569 0.0
O1099 O 0.17693 0.54381 0.68334 0.0
C1100 C 0.21345 0.59202 0.71401 0.0
O1101 O 0.20168 0.60808 0.7111 0.0
C1102 C 0.19881 0.5973 0.65709 0.0
O1103 O 0.21644 0.59052 0.66397 0.0
O1104 O 0.16047 0.58294 0.71024 0.0
C1105 C 0.45041 0.18162 0.68065 0.0
O1106 O 0.44064 0.19676 0.67166 0.0
O1107 O 0.39493 0.17858 0.67256 0.0
Zn1108 Zn 0.41116 0.17584 0.69856 0.0
O1109 O 0.40993 0.20155 0.71544 0.0
C1110 C 0.38999 0.13794 0.70762 0.0
O1111 O 0.39012 0.13575 0.68759 0.0
O1112 O 0.4406 0.16981 0.69262 0.0
C1113 C 0.39337 0.20681 0.72417 0.0
O1114 O 0.37678 0.19587 0.72099 0.0
C1115 C 0.3895 0.19551 0.66465 0.0
O1116 O 0.39515 0.21277 0.67335 0.0
O1117 O 0.39869 0.15344 0.71556 0.0
C1118 C 0.79687 0.45222 0.68012 0.0
O1119 O 0.78042 0.44257 0.6737 0.0
O1120 O 0.80423 0.39468 0.67324 0.0
Zn1121 Zn 0.80503 0.41311 0.69796 0.0
O1122 O 0.77866 0.41156 0.71359 0.0
C1123 C 0.84144 0.39189 0.71237 0.0
O1124 O 0.84357 0.38669 0.69302 0.0
O1125 O 0.81018 0.44239 0.69035 0.0
C1126 C 0.77381 0.39476 0.72214 0.0
O1127 O 0.7855 0.37862 0.7193 0.0
C1128 C 0.78765 0.38892 0.66483 0.0
O1129 O 0.77014 0.39582 0.67191 0.0
O1130 O 0.82668 0.40344 0.71755 0.0
C1131 C 0.5342 0.80812 0.68171 0.0
O1132 O 0.54439 0.79303 0.67314 0.0
O1133 O 0.58968 0.81274 0.67429 0.0
Zn1134 Zn 0.57303 0.81492 0.70004 0.0
O1135 O 0.57476 0.78897 0.71643 0.0
C1136 C 0.59342 0.85304 0.70993 0.0
O1137 O 0.59356 0.85546 0.68992 0.0
O1138 O 0.54356 0.8203 0.69367 0.0
C1139 C 0.59165 0.78365 0.72447 0.0
O1140 O 0.60802 0.79484 0.72106 0.0
C1141 C 0.59491 0.79587 0.66612 0.0
O1142 O 0.58876 0.77855 0.67433 0.0
O1143 O 0.58483 0.83733 0.71754 0.0
C1144 C 0.31419 0.18548 0.44898 0.0
O1145 O 0.32312 0.20067 0.43925 0.0
O1146 O 0.31713 0.18046 0.39151 0.0
Zn1147 Zn 0.29302 0.18137 0.41066 0.0
O1148 O 0.27999 0.20924 0.41031 0.0
C1149 C 0.27561 0.14483 0.39207 0.0
O1150 O 0.29483 0.1395 0.3895 0.0
O1151 O 0.3011 0.1746 0.43954 0.0
C1152 C 0.27446 0.21705 0.39335 0.0
O1153 O 0.27833 0.2071 0.37626 0.0
C1154 C 0.32776 0.19625 0.38739 0.0
O1155 O 0.32336 0.21373 0.39635 0.0
O1156 O 0.27151 0.16164 0.40097 0.0
C1157 C 0.31142 0.81055 0.54021 0.0
O1158 O 0.31857 0.79481 0.55052 0.0
O1159 O 0.31617 0.81576 0.5969 0.0
Zn1160 Zn 0.2916 0.81832 0.57853 0.0
O1161 O 0.27453 0.7927 0.57984 0.0
C1162 C 0.25593 0.84364 0.5827 0.0
O1163 O 0.2488 0.83106 0.56868 0.0
O1164 O 0.29979 0.82326 0.54927 0.0
C1165 C 0.26523 0.78805 0.59631 0.0
O1166 O 0.26756 0.79977 0.61253 0.0
C1167 C 0.32354 0.79859 0.6024 0.0
O1168 O 0.31538 0.78161 0.59531 0.0
O1169 O 0.27426 0.84154 0.58884 0.0
C1170 C 0.183 0.31434 0.53709 0.0
O1171 O 0.19696 0.3234 0.54839 0.0
O1172 O 0.17806 0.31515 0.59358 0.0
Zn1173 Zn 0.17669 0.29127 0.57405 0.0
O1174 O 0.20286 0.27524 0.57526 0.0
C1175 C 0.13958 0.27716 0.59411 0.0
O1176 O 0.13764 0.2965 0.5994 0.0
O1177 O 0.17197 0.30041 0.54505 0.0
C1178 C 0.20767 0.26656 0.59203 0.0
O1179 O 0.19581 0.26908 0.60811 0.0
C1180 C 0.195 0.32307 0.59898 0.0
O1181 O 0.21209 0.31599 0.59109 0.0
O1182 O 0.15454 0.27183 0.58288 0.0
C1183 C 0.6764 0.17391 0.54491 0.0
O1184 O 0.66783 0.18887 0.55531 0.0
O1185 O 0.67071 0.16983 0.60101 0.0
Zn1186 Zn 0.69589 0.16706 0.58352 0.0
O1187 O 0.71282 0.19274 0.58507 0.0
C1188 C 0.73127 0.14151 0.58909 0.0
O1189 O 0.73896 0.15379 0.5751 0.0
O1190 O 0.68872 0.16193 0.55404 0.0
C1191 C 0.72168 0.19777 0.60167 0.0
O1192 O 0.71919 0.18625 0.61801 0.0
C1193 C 0.66318 0.1871 0.60594 0.0
O1194 O 0.67161 0.20395 0.59884 0.0
O1195 O 0.71279 0.14391 0.59465 0.0
C1196 C 0.7957 0.67704 0.53745 0.0
O1197 O 0.77971 0.67034 0.54766 0.0
O1198 O 0.80354 0.6706 0.59446 0.0
Zn1199 Zn 0.8046 0.69537 0.57616 0.0
O1200 O 0.77851 0.71141 0.57815 0.0
C1201 C 0.84173 0.70852 0.59677 0.0
O1202 O 0.84346 0.68902 0.60146 0.0
O1203 O 0.80906 0.68767 0.54679 0.0
C1204 C 0.77395 0.72003 0.59501 0.0
O1205 O 0.7859 0.71725 0.61098 0.0
C1206 C 0.78689 0.66248 0.60042 0.0
O1207 O 0.76941 0.66994 0.59387 0.0
O1208 O 0.82687 0.71435 0.58567 0.0
C1209 C 0.66784 0.81103 0.45212 0.0
O1210 O 0.65896 0.79605 0.44201 0.0
O1211 O 0.66259 0.81607 0.39534 0.0
Zn1212 Zn 0.68744 0.81742 0.41337 0.0
O1213 O 0.7031 0.79104 0.41169 0.0
C1214 C 0.6996 0.85583 0.39458 0.0
O1215 O 0.67979 0.859 0.39336 0.0
O1216 O 0.68022 0.82273 0.44273 0.0
C1217 C 0.71087 0.78567 0.39466 0.0
O1218 O 0.70778 0.79719 0.37842 0.0
C1219 C 0.65419 0.79929 0.39012 0.0
O1220 O 0.66127 0.78196 0.39751 0.0
O1221 O 0.70611 0.8395 0.40295 0.0
C1222 C 0.19045 0.68156 0.44934 0.0
O1223 O 0.20715 0.67524 0.4401 0.0
O1224 O 0.18477 0.67621 0.39123 0.0
Zn1225 Zn 0.18329 0.70041 0.41031 0.0
O1226 O 0.20958 0.71627 0.40957 0.0
C1227 C 0.146 0.71412 0.39037 0.0
O1228 O 0.14353 0.69458 0.3862 0.0
O1229 O 0.17753 0.69208 0.43931 0.0
C1230 C 0.21506 0.72462 0.39284 0.0
O1231 O 0.20388 0.72173 0.37634 0.0
C1232 C 0.20159 0.66772 0.38642 0.0
O1233 O 0.21865 0.6743 0.39478 0.0
O1234 O 0.16146 0.71978 0.40072 0.0
C1235 C 0.79624 0.30781 0.45522 0.0
O1236 O 0.77979 0.31459 0.44584 0.0
O1237 O 0.80345 0.31462 0.39751 0.0
Zn1238 Zn 0.80383 0.28982 0.41586 0.0
O1239 O 0.77724 0.27451 0.41433 0.0
C1240 C 0.84199 0.27518 0.39779 0.0
O1241 O 0.8461 0.29472 0.39513 0.0
O1242 O 0.80918 0.29733 0.44518 0.0
C1243 C 0.7721 0.2661 0.39752 0.0
O1244 O 0.78367 0.26885 0.38127 0.0
C1245 C 0.78695 0.32369 0.39264 0.0
O1246 O 0.76952 0.31706 0.40019 0.0
O1247 O 0.82534 0.27003 0.4064 0.0
C1248 C 0.14002 0.25308 0.33385 0.0
C1249 C 0.12477 0.24163 0.34376 0.0
H1250 H 0.16238 0.27681 0.33622 0.0
C1251 C 0.12022 0.24583 0.3644 0.0
H1252 H 0.14377 0.25031 0.3179 0.0
C1253 C 0.13115 0.26093 0.37505 0.0
C1254 C 0.14645 0.27234 0.36507 0.0
H1255 H 0.10851 0.23721 0.3724 0.0
H1256 H 0.12764 0.26368 0.39105 0.0
C1257 C 0.1506 0.26838 0.34432 0.0
C1258 C 0.76366 0.13407 0.40541 0.0
C1259 C 0.74275 0.13325 0.4004 0.0
H1260 H 0.79399 0.12404 0.39814 0.0
C1261 C 0.73636 0.12027 0.38444 0.0
H1262 H 0.76909 0.14388 0.41766 0.0
C1263 C 0.75063 0.10891 0.37326 0.0
C1264 C 0.77162 0.11027 0.37779 0.0
H1265 H 0.72036 0.11922 0.38023 0.0
H1266 H 0.74521 0.09942 0.36075 0.0
C1267 C 0.77795 0.1227 0.39421 0.0
C1268 C 0.84997 0.74855 0.3875 0.0
C1269 C 0.85354 0.72783 0.38271 0.0
H1270 H 0.85778 0.77985 0.38163 0.0
C1271 C 0.86931 0.7229 0.36893 0.0
H1272 H 0.83801 0.75289 0.39814 0.0
C1273 C 0.88066 0.73839 0.35946 0.0
C1274 C 0.87648 0.75914 0.36358 0.0
H1275 H 0.87251 0.7071 0.36498 0.0
H1276 H 0.8923 0.73408 0.34845 0.0
C1277 C 0.86133 0.76403 0.37805 0.0
C1278 C 0.23814 0.87736 0.37 0.0
C1279 C 0.24504 0.89317 0.35711 0.0
H1280 H 0.24619 0.85364 0.3911 0.0
C1281 C 0.266 0.89799 0.35685 0.0
H1282 H 0.22207 0.87332 0.37065 0.0
C1283 C 0.27988 0.88667 0.3686 0.0
C1284 C 0.27306 0.87033 0.38086 0.0
H1285 H 0.27181 0.91013 0.34714 0.0
H1286 H 0.296 0.89039 0.36762 0.0
C1287 C 0.25199 0.86607 0.38175 0.0
C1288 C 0.1321 0.76519 0.58776 0.0
C1289 C 0.13356 0.74414 0.59216 0.0
H1290 H 0.11897 0.7941 0.59597 0.0
C1291 C 0.12124 0.73588 0.60776 0.0
H1292 H 0.14133 0.77203 0.57578 0.0
C1293 C 0.10842 0.74853 0.61932 0.0
C1294 C 0.10764 0.76973 0.61554 0.0
H1295 H 0.12191 0.71972 0.61148 0.0
H1296 H 0.09958 0.74174 0.63162 0.0
C1297 C 0.11927 0.77785 0.59934 0.0
C1298 C 0.2799 0.10701 0.61885 0.0
C1299 C 0.27245 0.12302 0.60653 0.0
H1300 H 0.27273 0.08332 0.64039 0.0
C1301 C 0.25122 0.12632 0.60547 0.0
H1302 H 0.29617 0.10402 0.61995 0.0
C1303 C 0.23781 0.11448 0.61718 0.0
C1304 C 0.24531 0.09906 0.63021 0.0
H1305 H 0.24495 0.13845 0.59605 0.0
H1306 H 0.2216 0.11783 0.61644 0.0
C1307 C 0.26646 0.09513 0.63057 0.0
C1308 C 0.86314 0.25103 0.61404 0.0
C1309 C 0.85098 0.24288 0.59825 0.0
H1310 H 0.88431 0.24498 0.63828 0.0
C1311 C 0.85223 0.22181 0.59393 0.0
H1312 H 0.86263 0.26722 0.61772 0.0
C1313 C 0.8647 0.20901 0.60576 0.0
C1314 C 0.87615 0.21704 0.62214 0.0
H1315 H 0.84311 0.21505 0.58183 0.0
H1316 H 0.86486 0.19275 0.60244 0.0
C1317 C 0.87558 0.23826 0.62585 0.0
C1318 C 0.74936 0.87366 0.62254 0.0
C1319 C 0.74204 0.88922 0.63551 0.0
H1320 H 0.74198 0.85016 0.60094 0.0
C1321 C 0.72105 0.89393 0.63528 0.0
H1322 H 0.76545 0.86971 0.62225 0.0
C1323 C 0.70754 0.88268 0.62303 0.0
C1324 C 0.71476 0.86651 0.61077 0.0
H1325 H 0.71493 0.90588 0.64504 0.0
H1326 H 0.69137 0.88626 0.62367 0.0
C1327 C 0.73588 0.86244 0.6103 0.0
C1328 C 0.36882 0.12338 0.21925 0.0
C1329 C 0.35435 0.10829 0.22429 0.0
H1330 H 0.3905 0.14532 0.23025 0.0
C1331 C 0.3518 0.10277 0.24499 0.0
H1332 H 0.37122 0.12794 0.20346 0.0
C1333 C 0.36288 0.11273 0.26038 0.0
C1334 C 0.3767 0.12845 0.2554 0.0
H1335 H 0.34083 0.09113 0.2494 0.0
H1336 H 0.36014 0.10851 0.27621 0.0
C1337 C 0.37987 0.13336 0.23463 0.0
C1338 C 0.88169 0.35347 0.25932 0.0
C1339 C 0.88004 0.35924 0.2386 0.0
H1340 H 0.87141 0.35824 0.29009 0.0
C1341 C 0.86733 0.37578 0.23338 0.0
H1342 H 0.89145 0.34086 0.26389 0.0
C1343 C 0.85582 0.38575 0.24843 0.0
C1344 C 0.85681 0.3794 0.26902 0.0
H1345 H 0.86578 0.38066 0.21758 0.0
H1346 H 0.8457 0.39806 0.24381 0.0
C1347 C 0.87022 0.36346 0.27437 0.0
C1348 C 0.62899 0.88166 0.23777 0.0
C1349 C 0.62814 0.88157 0.21623 0.0
H1350 H 0.61702 0.86962 0.26578 0.0
C1351 C 0.61297 0.86984 0.20644 0.0
H1352 H 0.64042 0.89061 0.24581 0.0
C1353 C 0.59951 0.85775 0.21793 0.0
C1354 C 0.60097 0.85718 0.23943 0.0
H1355 H 0.61185 0.86949 0.18987 0.0
H1356 H 0.58839 0.84841 0.20991 0.0
C1357 C 0.61556 0.86961 0.24923 0.0
C1358 C 0.13136 0.62248 0.21832 0.0
C1359 C 0.11301 0.63251 0.22327 0.0
H1360 H 0.15697 0.60532 0.22919 0.0
C1361 C 0.10578 0.63165 0.24357 0.0
H1362 H 0.13733 0.62278 0.20283 0.0
C1363 C 0.11708 0.62161 0.25876 0.0
C1364 C 0.13582 0.61226 0.25393 0.0
H1365 H 0.09165 0.63919 0.24788 0.0
H1366 H 0.11137 0.62164 0.27435 0.0
C1367 C 0.14264 0.61248 0.23348 0.0
C1368 C 0.35197 0.89018 0.73759 0.0
C1369 C 0.35465 0.88642 0.75866 0.0
H1370 H 0.36014 0.88187 0.70692 0.0
C1371 C 0.36929 0.87194 0.76487 0.0
H1372 H 0.34089 0.90133 0.73229 0.0
C1373 C 0.38028 0.86075 0.75031 0.0
C1374 C 0.37692 0.86385 0.72923 0.0
H1375 H 0.37179 0.86873 0.78097 0.0
H1376 H 0.39099 0.84924 0.75561 0.0
C1377 C 0.36302 0.87904 0.72303 0.0
C1378 C 0.11319 0.369 0.72413 0.0
C1379 C 0.12995 0.38158 0.72898 0.0
H1380 H 0.08953 0.34935 0.73539 0.0
C1381 C 0.13463 0.38519 0.74973 0.0
H1382 H 0.10913 0.36598 0.70831 0.0
C1383 C 0.12338 0.37568 0.76526 0.0
C1384 C 0.10723 0.36234 0.76039 0.0
H1385 H 0.14737 0.39491 0.75401 0.0
H1386 H 0.12779 0.3783 0.78106 0.0
C1387 C 0.10195 0.35947 0.73967 0.0
C1388 C 0.62028 0.11026 0.72862 0.0
C1389 C 0.60687 0.12624 0.73385 0.0
H1390 H 0.64172 0.08789 0.73924 0.0
C1391 C 0.60377 0.13086 0.7547 0.0
H1392 H 0.62296 0.10626 0.71272 0.0
C1393 C 0.61451 0.12031 0.76992 0.0
C1394 C 0.62861 0.10495 0.76463 0.0
H1395 H 0.59346 0.14302 0.75927 0.0
H1396 H 0.6122 0.12465 0.78579 0.0
C1397 C 0.63105 0.09973 0.74384 0.0
C1398 C 0.86663 0.59953 0.77889 0.0
C1399 C 0.87898 0.61514 0.77067 0.0
H1400 H 0.84326 0.57723 0.77328 0.0
C1401 C 0.878 0.61916 0.74951 0.0
H1402 H 0.86705 0.59601 0.79512 0.0
C1403 C 0.86435 0.60843 0.73701 0.0
C1404 C 0.85138 0.59342 0.74538 0.0
H1405 H 0.88736 0.63102 0.74266 0.0
H1406 H 0.8636 0.61231 0.72088 0.0
C1407 C 0.85297 0.58877 0.76637 0.0
C1408 C 0.23288 0.37259 0.10835 0.0
C1409 C 0.23974 0.35969 0.09251 0.0
H1410 H 0.241 0.39373 0.13203 0.0
C1411 C 0.26069 0.35942 0.08765 0.0
H1412 H 0.21683 0.37323 0.11244 0.0
C1413 C 0.2746 0.37121 0.09892 0.0
C1414 C 0.26782 0.38349 0.11527 0.0
H1415 H 0.26647 0.3497 0.0755 0.0
H1416 H 0.29071 0.37026 0.09514 0.0
C1417 C 0.24676 0.38435 0.1196 0.0
C1418 C 0.22362 0.61212 0.86477 0.0
C1419 C 0.22792 0.62773 0.87896 0.0
H1420 H 0.23568 0.5899 0.8439 0.0
C1421 C 0.24843 0.63178 0.88411 0.0
H1422 H 0.20799 0.60856 0.86053 0.0
C1423 C 0.26431 0.62105 0.87461 0.0
C1424 C 0.26004 0.60609 0.85973 0.0
H1425 H 0.25228 0.64363 0.89508 0.0
H1426 H 0.27995 0.62496 0.87849 0.0
C1427 C 0.23951 0.60142 0.85523 0.0
C1428 C 0.37766 0.24675 0.8698 0.0
C1429 C 0.37951 0.26794 0.87321 0.0
H1430 H 0.36256 0.21886 0.87794 0.0
C1431 C 0.36806 0.277 0.88905 0.0
H1432 H 0.38633 0.23926 0.85779 0.0
C1433 C 0.35438 0.26527 0.90063 0.0
C1434 C 0.35189 0.24426 0.8966 0.0
H1435 H 0.36918 0.29328 0.89212 0.0
H1436 H 0.34533 0.27282 0.91232 0.0
C1437 C 0.36401 0.23505 0.88136 0.0
C1438 C 0.74824 0.38753 0.86404 0.0
C1439 C 0.72778 0.38231 0.86821 0.0
H1440 H 0.77986 0.38107 0.86964 0.0
C1441 C 0.72369 0.36703 0.88282 0.0
H1442 H 0.75193 0.39929 0.85292 0.0
C1443 C 0.73971 0.35658 0.89239 0.0
C1444 C 0.76018 0.36118 0.88756 0.0
H1445 H 0.70811 0.36269 0.88645 0.0
H1446 H 0.73601 0.34448 0.90315 0.0
C1447 C 0.76428 0.37708 0.87363 0.0
C1448 C 0.62553 0.72228 0.8808 0.0
C1449 C 0.60946 0.72809 0.86774 0.0
H1450 H 0.64993 0.73213 0.90029 0.0
C1451 C 0.60478 0.74903 0.86565 0.0
H1452 H 0.62949 0.70629 0.88281 0.0
C1453 C 0.61649 0.76387 0.8757 0.0
C1454 C 0.63316 0.75809 0.88801 0.0
H1455 H 0.59243 0.75402 0.85577 0.0
H1456 H 0.61286 0.77989 0.87329 0.0
C1457 C 0.63727 0.73712 0.8908 0.0
C1458 C 0.74826 0.61398 0.11248 0.0
C1459 C 0.74088 0.62659 0.09666 0.0
H1460 H 0.74097 0.59295 0.13652 0.0
C1461 C 0.71986 0.62632 0.0921 0.0
H1462 H 0.76438 0.61373 0.11633 0.0
C1463 C 0.70639 0.61437 0.10371 0.0
C1464 C 0.71368 0.60245 0.12011 0.0
H1465 H 0.71369 0.6358 0.07995 0.0
H1466 H 0.69021 0.61496 0.1002 0.0
C1467 C 0.73482 0.60204 0.12407 0.0
C1468 C 0.37214 0.77125 0.11604 0.0
C1469 C 0.35714 0.76603 0.10152 0.0
H1470 H 0.39488 0.7605 0.13702 0.0
C1471 C 0.35475 0.74534 0.09594 0.0
H1472 H 0.37442 0.78704 0.12063 0.0
C1473 C 0.36651 0.73011 0.10531 0.0
C1474 C 0.38086 0.73524 0.1205 0.0
H1475 H 0.34341 0.7408 0.08471 0.0
H1476 H 0.36388 0.71427 0.10108 0.0
C1477 C 0.38386 0.75601 0.12545 0.0
C1478 C 0.61738 0.21731 0.12521 0.0
C1479 C 0.63237 0.22283 0.11079 0.0
H1480 H 0.59486 0.22764 0.14664 0.0
C1481 C 0.63488 0.24365 0.10579 0.0
H1482 H 0.61499 0.20141 0.12934 0.0
C1483 C 0.62332 0.25869 0.11569 0.0
C1484 C 0.60902 0.25325 0.13082 0.0
H1485 H 0.64622 0.24841 0.09466 0.0
H1486 H 0.62608 0.27463 0.11194 0.0
C1487 C 0.60584 0.23237 0.13514 0.0
C1488 C 0.86436 0.75961 0.61244 0.0
C1489 C 0.87827 0.7537 0.62776 0.0
H1490 H 0.84198 0.74997 0.59054 0.0
C1491 C 0.88131 0.7327 0.63154 0.0
H1492 H 0.86172 0.77565 0.60909 0.0
C1493 C 0.87003 0.71796 0.62087 0.0
C1494 C 0.85542 0.72391 0.60624 0.0
H1495 H 0.89201 0.72761 0.64316 0.0
H1496 H 0.87231 0.70194 0.62459 0.0
C1497 C 0.85304 0.74487 0.60181 0.0
C1498 C 0.20792 0.87167 0.59921 0.0
C1499 C 0.21527 0.88376 0.61546 0.0
H1500 H 0.21502 0.84958 0.576 0.0
C1501 C 0.23636 0.88378 0.6197 0.0
H1502 H 0.19177 0.87136 0.5955 0.0
C1503 C 0.24967 0.8713 0.60855 0.0
C1504 C 0.2422 0.85852 0.59289 0.0
H1505 H 0.24256 0.893 0.63205 0.0
H1506 H 0.26574 0.87126 0.61261 0.0
C1507 C 0.22126 0.85918 0.58803 0.0
C1508 C 0.10037 0.25147 0.6282 0.0
C1509 C 0.10383 0.23062 0.62394 0.0
H1510 H 0.1088 0.28254 0.62199 0.0
C1511 C 0.11781 0.22534 0.60845 0.0
H1512 H 0.08961 0.25608 0.63996 0.0
C1513 C 0.12884 0.24053 0.59817 0.0
C1514 C 0.12609 0.26133 0.60312 0.0
H1515 H 0.12076 0.20943 0.60473 0.0
H1516 H 0.13998 0.2359 0.58678 0.0
C1517 C 0.11137 0.26667 0.61788 0.0
C1518 C 0.77837 0.113 0.60731 0.0
C1519 C 0.77039 0.10129 0.62354 0.0
H1520 H 0.77224 0.13482 0.58358 0.0
C1521 C 0.7492 0.10167 0.62721 0.0
H1522 H 0.79461 0.11299 0.60403 0.0
C1523 C 0.7364 0.11417 0.61551 0.0
C1524 C 0.74448 0.12658 0.59987 0.0
H1525 H 0.74253 0.09276 0.63953 0.0
H1526 H 0.72023 0.11453 0.61914 0.0
C1527 C 0.76553 0.12551 0.59558 0.0
C1528 C 0.88495 0.2493 0.36862 0.0
C1529 C 0.87981 0.22848 0.3708 0.0
H1530 H 0.87711 0.28041 0.3755 0.0
C1531 C 0.86297 0.22315 0.38307 0.0
H1532 H 0.89789 0.25392 0.35932 0.0
C1533 C 0.85104 0.23833 0.39229 0.0
C1534 C 0.85572 0.25918 0.38949 0.0
H1535 H 0.85861 0.20726 0.38512 0.0
H1536 H 0.83787 0.23368 0.40124 0.0
C1537 C 0.87304 0.2645 0.37789 0.0
C1538 C 0.74901 0.87812 0.37417 0.0
C1539 C 0.74188 0.89443 0.36205 0.0
H1540 H 0.74128 0.85324 0.39403 0.0
C1541 C 0.72085 0.89893 0.362 0.0
H1542 H 0.76512 0.87428 0.37464 0.0
C1543 C 0.70713 0.88683 0.37315 0.0
C1544 C 0.71419 0.86998 0.38456 0.0
H1545 H 0.71487 0.91144 0.35287 0.0
H1546 H 0.69096 0.89034 0.37233 0.0
C1547 C 0.73531 0.86603 0.3853 0.0
C1548 C 0.11679 0.72395 0.36753 0.0
C1549 C 0.13212 0.72967 0.3815 0.0
H1550 H 0.09379 0.73396 0.34646 0.0
C1551 C 0.13488 0.75058 0.386 0.0
H1552 H 0.11422 0.70798 0.36379 0.0
C1553 C 0.12313 0.76548 0.37612 0.0
C1554 C 0.10842 0.7598 0.36148 0.0
H1555 H 0.14648 0.7555 0.39679 0.0
H1556 H 0.12603 0.78146 0.37952 0.0
C1557 C 0.10508 0.73886 0.3576 0.0
C1558 C 0.22265 0.12757 0.37603 0.0
C1559 C 0.22709 0.11062 0.36351 0.0
H1560 H 0.23446 0.15161 0.39491 0.0
C1561 C 0.24753 0.10416 0.36159 0.0
H1562 H 0.20708 0.13292 0.3779 0.0
C1563 C 0.26327 0.11489 0.37137 0.0
C1564 C 0.25889 0.13232 0.38325 0.0
H1565 H 0.25146 0.09111 0.35211 0.0
H1566 H 0.27889 0.10982 0.36918 0.0
C1567 C 0.23838 0.13831 0.38577 0.0
C1568 C 0.62983 0.89476 0.72727 0.0
C1569 C 0.63162 0.8905 0.74833 0.0
H1570 H 0.61625 0.88635 0.6986 0.0
C1571 C 0.61938 0.875 0.75691 0.0
H1572 H 0.63899 0.90666 0.7202 0.0
C1573 C 0.60635 0.86339 0.74454 0.0
C1574 C 0.60527 0.867 0.72331 0.0
H1575 H 0.62028 0.8714 0.7731 0.0
H1576 H 0.5976 0.85116 0.75156 0.0
C1577 C 0.61679 0.88312 0.71488 0.0
C1578 C 0.13563 0.59907 0.74184 0.0
C1579 C 0.13266 0.60388 0.72102 0.0
H1580 H 0.12792 0.60587 0.77301 0.0
C1581 C 0.11805 0.61876 0.71576 0.0
H1582 H 0.14671 0.58761 0.74642 0.0
C1583 C 0.10731 0.62925 0.73102 0.0
C1584 C 0.11091 0.62505 0.75186 0.0
H1585 H 0.11533 0.62277 0.69987 0.0
H1586 H 0.09657 0.64103 0.72644 0.0
C1587 C 0.12485 0.60954 0.7571 0.0
C1588 C 0.35311 0.09625 0.724 0.0
C1589 C 0.35121 0.10018 0.74511 0.0
H1590 H 0.36696 0.10501 0.69557 0.0
C1591 C 0.36344 0.1155 0.75402 0.0
H1592 H 0.34395 0.0845 0.71668 0.0
C1593 C 0.37662 0.12723 0.74194 0.0
C1594 C 0.37786 0.12392 0.72067 0.0
H1595 H 0.36245 0.11885 0.77026 0.0
H1596 H 0.38539 0.1393 0.74922 0.0
C1597 C 0.3663 0.10801 0.71189 0.0
C1598 C 0.86227 0.37688 0.76443 0.0
C1599 C 0.87636 0.36149 0.7592 0.0
H1600 H 0.84028 0.39866 0.75374 0.0
C1601 C 0.88008 0.35739 0.73835 0.0
H1602 H 0.85911 0.38048 0.78034 0.0
C1603 C 0.8693 0.36783 0.72309 0.0
C1604 C 0.85455 0.38257 0.72834 0.0
H1605 H 0.89092 0.34569 0.73378 0.0
H1606 H 0.8721 0.36388 0.7072 0.0
C1607 C 0.85147 0.3873 0.74917 0.0
C1608 C 0.61761 0.11435 0.2308 0.0
C1609 C 0.6351 0.1031 0.23628 0.0
H1610 H 0.59261 0.13284 0.24111 0.0
C1611 C 0.63984 0.10071 0.25719 0.0
H1612 H 0.61349 0.11641 0.21485 0.0
C1613 C 0.62786 0.11007 0.27224 0.0
C1614 C 0.61089 0.12207 0.26673 0.0
H1615 H 0.65313 0.09202 0.26195 0.0
H1616 H 0.63228 0.10839 0.28816 0.0
C1617 C 0.60564 0.12376 0.24587 0.0
C1618 C 0.86292 0.61009 0.22662 0.0
C1619 C 0.87721 0.62523 0.23204 0.0
H1620 H 0.84017 0.58892 0.23698 0.0
C1621 C 0.88055 0.62944 0.25293 0.0
H1622 H 0.86003 0.60642 0.21068 0.0
C1623 C 0.86917 0.61938 0.26804 0.0
C1624 C 0.8542 0.60494 0.26256 0.0
H1625 H 0.89153 0.64096 0.25764 0.0
H1626 H 0.87169 0.62343 0.28395 0.0
C1627 C 0.85151 0.60007 0.24172 0.0
C1628 C 0.3537 0.88887 0.24541 0.0
C1629 C 0.35573 0.88316 0.2247 0.0
H1630 H 0.36289 0.88348 0.27645 0.0
C1631 C 0.37015 0.86812 0.21941 0.0
H1632 H 0.34278 0.90049 0.25001 0.0
C1633 C 0.38166 0.85836 0.23459 0.0
C1634 C 0.37901 0.86346 0.25539 0.0
H1635 H 0.37215 0.86341 0.20361 0.0
H1636 H 0.39224 0.84642 0.23003 0.0
C1637 C 0.36523 0.87913 0.26059 0.0
C1638 C 0.13291 0.39211 0.24053 0.0
C1639 C 0.13276 0.38619 0.26127 0.0
H1640 H 0.12198 0.38618 0.21016 0.0
C1641 C 0.12 0.36997 0.26736 0.0
H1642 H 0.14252 0.4046 0.23532 0.0
C1643 C 0.10826 0.35938 0.25292 0.0
C1644 C 0.10898 0.36482 0.23206 0.0
H1645 H 0.11947 0.36505 0.28322 0.0
H1646 H 0.09897 0.34663 0.25807 0.0
C1647 C 0.12113 0.38155 0.22608 0.0
C1648 C 0.75047 0.62199 0.88227 0.0
C1649 C 0.77145 0.61727 0.88196 0.0
H1650 H 0.72071 0.61535 0.87042 0.0
C1651 C 0.77824 0.60076 0.86991 0.0
H1652 H 0.7447 0.63456 0.89146 0.0
C1653 C 0.76443 0.58971 0.85782 0.0
C1654 C 0.74357 0.59496 0.85754 0.0
H1655 H 0.79429 0.59668 0.86938 0.0
H1656 H 0.77022 0.57741 0.84828 0.0
C1657 C 0.73669 0.61096 0.8702 0.0
C1658 C 0.77953 0.38284 0.12422 0.0
C1659 C 0.77248 0.36649 0.11209 0.0
H1660 H 0.77182 0.40654 0.14557 0.0
C1661 C 0.75134 0.36257 0.11121 0.0
H1662 H 0.79571 0.38632 0.12519 0.0
C1663 C 0.73766 0.37414 0.12289 0.0
C1664 C 0.7448 0.38991 0.13571 0.0
H1665 H 0.74537 0.35016 0.10194 0.0
H1666 H 0.72155 0.37032 0.12228 0.0
C1667 C 0.76583 0.39444 0.13591 0.0
C1668 C 0.61297 0.78181 0.12184 0.0
C1669 C 0.62876 0.77301 0.11015 0.0
H1670 H 0.58807 0.77668 0.14255 0.0
C1671 C 0.63047 0.75155 0.10941 0.0
H1672 H 0.61119 0.79829 0.12268 0.0
C1673 C 0.61726 0.73918 0.12079 0.0
C1674 C 0.60201 0.74799 0.13315 0.0
H1675 H 0.6424 0.74425 0.10048 0.0
H1676 H 0.61937 0.72272 0.12028 0.0
C1677 C 0.59972 0.76942 0.13323 0.0
C1678 C 0.22407 0.59607 0.12796 0.0
C1679 C 0.24518 0.60003 0.12671 0.0
H1680 H 0.19395 0.60478 0.11847 0.0
C1681 C 0.25211 0.61549 0.11341 0.0
H1682 H 0.21823 0.58422 0.13801 0.0
C1683 C 0.23819 0.62727 0.10221 0.0
C1684 C 0.21703 0.62385 0.10406 0.0
H1685 H 0.26827 0.61889 0.11202 0.0
H1686 H 0.24404 0.6394 0.09251 0.0
C1687 C 0.21014 0.60786 0.11675 0.0
C1688 C 0.37084 0.22788 0.1201 0.0
C1689 C 0.35461 0.23301 0.10694 0.0
H1690 H 0.39425 0.23878 0.14027 0.0
C1691 C 0.35059 0.25381 0.10297 0.0
H1692 H 0.37439 0.21201 0.12342 0.0
C1693 C 0.36198 0.26915 0.1126 0.0
C1694 C 0.37763 0.26404 0.12643 0.0
H1695 H 0.33826 0.25829 0.09281 0.0
H1696 H 0.35809 0.28502 0.10963 0.0
C1697 C 0.38222 0.24324 0.12976 0.0
C1698 C 0.27762 0.36958 0.88586 0.0
C1699 C 0.27056 0.38065 0.86879 0.0
H1700 H 0.26996 0.34947 0.91064 0.0
C1701 C 0.24947 0.38098 0.8646 0.0
H1702 H 0.29377 0.36907 0.88955 0.0
C1703 C 0.23584 0.36979 0.87668 0.0
C1704 C 0.24298 0.35799 0.89322 0.0
H1705 H 0.2435 0.38946 0.85164 0.0
H1706 H 0.21976 0.36993 0.87266 0.0
C1707 C 0.26397 0.35834 0.89795 0.0
C1708 C 0.61822 0.21852 0.87195 0.0
C1709 C 0.63275 0.22252 0.8873 0.0
H1710 H 0.59687 0.23099 0.8505 0.0
C1711 C 0.63575 0.24287 0.89378 0.0
H1712 H 0.61548 0.20302 0.86665 0.0
C1713 C 0.62508 0.25895 0.8845 0.0
C1714 C 0.61118 0.25502 0.86855 0.0
H1715 H 0.64678 0.24649 0.90564 0.0
H1716 H 0.62817 0.2745 0.88945 0.0
C1717 C 0.60756 0.23458 0.86268 0.0
C1718 C 0.37881 0.78299 0.86796 0.0
C1719 C 0.36226 0.7753 0.87938 0.0
H1720 H 0.40389 0.77612 0.848 0.0
C1721 C 0.35936 0.75397 0.88046 0.0
H1722 H 0.38152 0.79933 0.86687 0.0
C1723 C 0.37218 0.74068 0.86967 0.0
C1724 C 0.38819 0.7484 0.85754 0.0
H1725 H 0.34683 0.74752 0.88921 0.0
H1726 H 0.36915 0.72437 0.87039 0.0
C1727 C 0.39164 0.76967 0.85714 0.0
C1728 C 0.11109 0.23236 0.24799 0.0
C1729 C 0.09352 0.22763 0.25949 0.0
H1730 H 0.12484 0.25237 0.22588 0.0
C1731 C 0.07542 0.23863 0.25581 0.0
H1732 H 0.12528 0.22416 0.25047 0.0
C1733 C 0.07512 0.25466 0.24165 0.0
C1734 C 0.093 0.2602 0.23102 0.0
H1735 H 0.06159 0.23525 0.26433 0.0
H1736 H 0.06107 0.26322 0.23967 0.0
C1737 C 0.11086 0.24857 0.23396 0.0
C1738 C 0.75522 0.11525 0.27107 0.0
C1739 C 0.76548 0.09711 0.27646 0.0
H1740 H 0.73263 0.12932 0.25195 0.0
C1741 C 0.76177 0.07923 0.26502 0.0
H1742 H 0.75781 0.12933 0.2795 0.0
C1743 C 0.74736 0.07923 0.24921 0.0
C1744 C 0.73632 0.09711 0.24452 0.0
H1745 H 0.76953 0.06503 0.26868 0.0
H1746 H 0.74439 0.06503 0.24114 0.0
C1747 C 0.74077 0.11525 0.25527 0.0
C1748 C 0.87168 0.73009 0.2464 0.0
C1749 C 0.88975 0.7249 0.23593 0.0
H1750 H 0.8578 0.74855 0.26968 0.0
C1751 C 0.90764 0.7362 0.23985 0.0
H1752 H 0.8576 0.72178 0.24363 0.0
C1753 C 0.90775 0.75155 0.25477 0.0
C1754 C 0.88998 0.75592 0.26609 0.0
H1755 H 0.92178 0.73271 0.23193 0.0
H1756 H 0.92198 0.75945 0.25795 0.0
C1757 C 0.87179 0.74545 0.26133 0.0
C1758 C 0.2412 0.87384 0.26343 0.0
C1759 C 0.23036 0.8916 0.26895 0.0
H1760 H 0.26378 0.86049 0.24377 0.0
C1761 C 0.23316 0.90956 0.25738 0.0
H1762 H 0.23932 0.85973 0.27197 0.0
C1763 C 0.24714 0.90998 0.24118 0.0
C1764 C 0.25865 0.89248 0.23624 0.0
H1765 H 0.22494 0.92347 0.26114 0.0
H1766 H 0.24934 0.92423 0.23295 0.0
C1767 C 0.25522 0.87428 0.24725 0.0
C1768 C 0.1146 0.73039 0.736 0.0
C1769 C 0.09666 0.72483 0.74651 0.0
H1770 H 0.12811 0.74921 0.71279 0.0
C1771 C 0.0785 0.73565 0.74249 0.0
H1772 H 0.12887 0.72243 0.73881 0.0
C1773 C 0.07807 0.75101 0.72758 0.0
C1774 C 0.09579 0.75587 0.71635 0.0
H1775 H 0.06444 0.73184 0.75042 0.0
H1776 H 0.06368 0.75861 0.72443 0.0
C1777 C 0.11417 0.74575 0.72107 0.0
C1778 C 0.25133 0.08474 0.74513 0.0
C1779 C 0.26289 0.10249 0.74906 0.0
H1780 H 0.22856 0.0704 0.72644 0.0
C1781 C 0.25914 0.12019 0.73737 0.0
H1782 H 0.25377 0.07087 0.7539 0.0
C1783 C 0.24465 0.11992 0.7216 0.0
C1784 C 0.23363 0.10195 0.71719 0.0
H1785 H 0.26774 0.13413 0.74005 0.0
H1786 H 0.24247 0.13367 0.71256 0.0
C1787 C 0.23687 0.08447 0.72936 0.0
C1788 C 0.87081 0.25688 0.74337 0.0
C1789 C 0.88892 0.26208 0.75377 0.0
H1790 H 0.8568 0.23836 0.72022 0.0
C1791 C 0.90686 0.25095 0.74958 0.0
H1792 H 0.85671 0.26508 0.74632 0.0
C1793 C 0.90691 0.23564 0.7346 0.0
C1794 C 0.88903 0.23112 0.72351 0.0
H1795 H 0.92105 0.25449 0.7574 0.0
H1796 H 0.92113 0.22779 0.73131 0.0
C1797 C 0.87086 0.24155 0.7284 0.0
C1798 C 0.73246 0.90381 0.74954 0.0
C1799 C 0.72029 0.88645 0.75334 0.0
H1800 H 0.75636 0.91715 0.73155 0.0
C1801 C 0.72399 0.86845 0.74211 0.0
H1802 H 0.73008 0.9179 0.75799 0.0
C1803 C 0.73908 0.86801 0.72692 0.0
C1804 C 0.7508 0.88557 0.72267 0.0
H1805 H 0.71493 0.85479 0.74471 0.0
H1806 H 0.74123 0.85404 0.71822 0.0
C1807 C 0.74755 0.90337 0.73438 0.0
C1808 C 0.23769 0.11354 0.26081 0.0
C1809 C 0.22795 0.09511 0.26618 0.0
H1810 H 0.25958 0.12834 0.24142 0.0
C1811 C 0.23179 0.07745 0.25445 0.0
H1812 H 0.23497 0.12745 0.26947 0.0
C1813 C 0.24586 0.07798 0.23834 0.0
C1814 C 0.25642 0.09615 0.23367 0.0
H1815 H 0.2244 0.06304 0.25809 0.0
H1816 H 0.24896 0.06394 0.23004 0.0
C1817 C 0.25181 0.11406 0.24472 0.0
C1818 C 0.87752 0.25327 0.25259 0.0
C1819 C 0.89549 0.25944 0.24249 0.0
H1820 H 0.86429 0.23478 0.27622 0.0
C1821 C 0.91405 0.2498 0.24751 0.0
H1822 H 0.86294 0.26029 0.24899 0.0
C1823 C 0.91483 0.23519 0.26315 0.0
C1824 C 0.89705 0.22989 0.27406 0.0
H1825 H 0.92816 0.25409 0.23993 0.0
H1826 H 0.9295 0.2286 0.26715 0.0
C1827 C 0.87829 0.23863 0.26822 0.0
C1828 C 0.74467 0.87541 0.26988 0.0
C1829 C 0.75538 0.8934 0.27494 0.0
H1830 H 0.72236 0.86129 0.25043 0.0
C1831 C 0.75238 0.91104 0.26295 0.0
H1832 H 0.74668 0.86153 0.27876 0.0
C1833 C 0.73848 0.91089 0.24668 0.0
C1834 C 0.72723 0.89311 0.24208 0.0
H1835 H 0.76047 0.92513 0.26636 0.0
H1836 H 0.73622 0.92488 0.23804 0.0
C1837 C 0.73073 0.87527 0.25362 0.0
C1838 C 0.07538 0.73705 0.23553 0.0
C1839 C 0.09334 0.72631 0.23051 0.0
H1840 H 0.06124 0.75921 0.25509 0.0
C1841 C 0.11163 0.73134 0.24066 0.0
H1842 H 0.06106 0.73365 0.2279 0.0
C1843 C 0.11173 0.74601 0.25628 0.0
C1844 C 0.09354 0.75595 0.26204 0.0
H1845 H 0.12575 0.72344 0.23707 0.0
H1846 H 0.12593 0.74902 0.26429 0.0
C1847 C 0.07549 0.75172 0.25113 0.0
C1848 C 0.22998 0.91549 0.728 0.0
C1849 C 0.2264 0.89758 0.71655 0.0
H1850 H 0.2474 0.92989 0.75173 0.0
C1851 C 0.23707 0.87961 0.7217 0.0
H1852 H 0.22191 0.92957 0.72452 0.0
C1853 C 0.25171 0.87979 0.73732 0.0
C1854 C 0.25595 0.89795 0.74812 0.0
H1855 H 0.23459 0.86553 0.71325 0.0
H1856 H 0.26012 0.86585 0.74048 0.0
C1857 C 0.24459 0.91567 0.74362 0.0
C1858 C 0.1106 0.24637 0.72876 0.0
C1859 C 0.09256 0.23572 0.72383 0.0
H1860 H 0.12453 0.26973 0.74707 0.0
C1861 C 0.07476 0.23954 0.73531 0.0
H1862 H 0.1246 0.24369 0.72029 0.0
C1863 C 0.07473 0.25447 0.75066 0.0
C1864 C 0.09248 0.26588 0.75485 0.0
H1865 H 0.06065 0.2315 0.732 0.0
H1866 H 0.06058 0.25752 0.75876 0.0
C1867 C 0.11056 0.2613 0.74412 0.0
C1868 C 0.73125 0.10851 0.74457 0.0
C1869 C 0.7265 0.09067 0.75566 0.0
H1870 H 0.74908 0.12199 0.72058 0.0
C1871 C 0.73765 0.07267 0.75174 0.0
H1872 H 0.72302 0.12266 0.74728 0.0
C1873 C 0.75258 0.07228 0.73642 0.0
C1874 C 0.75669 0.08988 0.7247 0.0
H1875 H 0.73445 0.05868 0.76009 0.0
H1876 H 0.76048 0.058 0.7334 0.0
C1877 C 0.7462 0.10812 0.72925 0.0
C1878 C 0.87565 0.71996 0.74812 0.0
C1879 C 0.89413 0.7149 0.75788 0.0
H1880 H 0.86075 0.7383 0.72539 0.0
C1881 C 0.91186 0.72609 0.753 0.0
H1882 H 0.86169 0.71171 0.7516 0.0
C1883 C 0.91132 0.74135 0.73799 0.0
C1884 C 0.89304 0.74573 0.72752 0.0
H1885 H 0.92633 0.72268 0.76034 0.0
H1886 H 0.92538 0.74925 0.73416 0.0
C1887 C 0.87511 0.73521 0.73308 0.0
C1888 C 0.23596 0.26792 0.1148 0.0
C1889 C 0.2255 0.27271 0.09659 0.0
H1890 H 0.25886 0.24944 0.1292 0.0
C1891 C 0.2293 0.26095 0.07893 0.0
H1892 H 0.23331 0.27662 0.12869 0.0
C1893 C 0.24391 0.24534 0.07923 0.0
C1894 C 0.25507 0.24119 0.09718 0.0
H1895 H 0.2214 0.26415 0.06469 0.0
H1896 H 0.2469 0.23697 0.0652 0.0
C1897 C 0.25061 0.25232 0.11509 0.0
C1898 C 0.24237 0.73257 0.87016 0.0
C1899 C 0.23152 0.72775 0.88813 0.0
H1900 H 0.26549 0.75117 0.85624 0.0
C1901 C 0.23488 0.73954 0.90586 0.0
H1902 H 0.24006 0.72386 0.85621 0.0
C1903 C 0.24947 0.75519 0.90587 0.0
C1904 C 0.26099 0.75939 0.88816 0.0
H1905 H 0.22669 0.73631 0.91993 0.0
H1906 H 0.2521 0.76359 0.91996 0.0
C1907 C 0.25696 0.74824 0.87017 0.0
C1908 C 0.24393 0.26732 0.87441 0.0
C1909 C 0.23244 0.27173 0.89209 0.0
H1910 H 0.26771 0.24922 0.86095 0.0
C1911 C 0.23567 0.25996 0.90985 0.0
H1912 H 0.24178 0.27606 0.86046 0.0
C1913 C 0.25053 0.24459 0.91013 0.0
C1914 C 0.26249 0.24064 0.89266 0.0
H1915 H 0.22703 0.26291 0.92372 0.0
H1916 H 0.25291 0.2361 0.92421 0.0
C1917 C 0.2588 0.25193 0.87469 0.0
C1918 C 0.74109 0.23303 0.91483 0.0
C1919 C 0.72957 0.2287 0.89715 0.0
H1920 H 0.76352 0.25234 0.9289 0.0
C1921 C 0.7334 0.23993 0.87917 0.0
H1922 H 0.7386 0.22458 0.92891 0.0
C1923 C 0.7477 0.25586 0.87916 0.0
C1924 C 0.75844 0.26088 0.89715 0.0
H1925 H 0.72487 0.23691 0.86525 0.0
H1926 H 0.7498 0.26465 0.86524 0.0
C1927 C 0.75537 0.24897 0.91483 0.0
C1928 C 0.73867 0.73907 0.87721 0.0
C1929 C 0.73412 0.74989 0.89529 0.0
H1930 H 0.75597 0.71497 0.86328 0.0
C1931 C 0.74527 0.74548 0.91319 0.0
H1932 H 0.73045 0.74217 0.86313 0.0
C1933 C 0.75987 0.72986 0.91329 0.0
C1934 C 0.76368 0.71834 0.89547 0.0
H1935 H 0.74224 0.75361 0.92735 0.0
H1936 H 0.76771 0.72641 0.92751 0.0
C1937 C 0.75331 0.72347 0.8773 0.0
C1938 C 0.74317 0.72057 0.11705 0.0
C1939 C 0.75393 0.71538 0.09912 0.0
H1940 H 0.72126 0.74051 0.13108 0.0
C1941 C 0.75152 0.72763 0.08156 0.0
H1942 H 0.74475 0.7115 0.13086 0.0
C1943 C 0.73812 0.74429 0.08171 0.0
C1944 C 0.72679 0.74905 0.0994 0.0
H1945 H 0.75969 0.72413 0.06754 0.0
H1946 H 0.73628 0.75313 0.06777 0.0
C1947 C 0.72971 0.73722 0.11718 0.0
C1948 C 0.23893 0.72935 0.11 0.0
C1949 C 0.22807 0.72465 0.092 0.0
H1950 H 0.26222 0.74769 0.12398 0.0
C1951 C 0.23163 0.73639 0.07428 0.0
H1952 H 0.23648 0.72066 0.12394 0.0
C1953 C 0.24637 0.75189 0.0743 0.0
C1954 C 0.25788 0.75598 0.09205 0.0
H1955 H 0.22342 0.73326 0.06019 0.0
H1956 H 0.24913 0.76027 0.06023 0.0
C1957 C 0.25369 0.74485 0.11002 0.0
C1958 C 0.73575 0.24492 0.11869 0.0
C1959 C 0.73149 0.23385 0.1007 0.0
H1960 H 0.75296 0.26911 0.13261 0.0
C1961 C 0.74286 0.23806 0.08289 0.0
H1962 H 0.72734 0.24198 0.13269 0.0
C1963 C 0.75754 0.25362 0.08284 0.0
C1964 C 0.76118 0.26529 0.1006 0.0
H1965 H 0.74004 0.22974 0.0688 0.0
H1966 H 0.76564 0.25685 0.06871 0.0
C1967 C 0.75045 0.26048 0.11864 0.0
C1968 C 0.61052 0.76167 0.74964 0.0
C1969 C 0.59236 0.76635 0.7391 0.0
H1970 H 0.62474 0.74396 0.77328 0.0
C1971 C 0.57454 0.75517 0.74363 0.0
H1972 H 0.62454 0.76993 0.74644 0.0
C1973 C 0.57465 0.74028 0.75902 0.0
C1974 C 0.59259 0.73626 0.7702 0.0
H1975 H 0.56031 0.7583 0.73571 0.0
H1976 H 0.56051 0.73236 0.76253 0.0
C1977 C 0.61063 0.74677 0.76503 0.0
C1978 C 0.23475 0.61112 0.73955 0.0
C1979 C 0.23062 0.59295 0.72874 0.0
H1980 H 0.25146 0.62537 0.7639 0.0
C1981 C 0.242 0.57526 0.73332 0.0
H1982 H 0.22635 0.62505 0.73631 0.0
C1983 C 0.25638 0.57543 0.74915 0.0
C1984 C 0.2597 0.59331 0.76072 0.0
H1985 H 0.23929 0.56104 0.72518 0.0
H1986 H 0.26438 0.56135 0.75277 0.0
C1987 C 0.24915 0.6113 0.75538 0.0
C1988 C 0.41159 0.23394 0.74428 0.0
C1989 C 0.39335 0.2236 0.73942 0.0
H1990 H 0.42649 0.25561 0.76385 0.0
C1991 C 0.37541 0.22858 0.75021 0.0
H1992 H 0.42567 0.23054 0.73621 0.0
C1993 C 0.37588 0.24299 0.76607 0.0
C1994 C 0.39431 0.25268 0.7715 0.0
H1995 H 0.36109 0.22096 0.74678 0.0
H1996 H 0.3619 0.24609 0.77443 0.0
C1997 C 0.41207 0.2483 0.76016 0.0
C1998 C 0.73862 0.37619 0.76428 0.0
C1999 C 0.72819 0.39428 0.7695 0.0
H2000 H 0.76112 0.36209 0.74508 0.0
C2001 C 0.73144 0.41199 0.75767 0.0
H2002 H 0.73636 0.36224 0.773 0.0
C2003 C 0.74562 0.4119 0.74165 0.0
C2004 C 0.75685 0.3941 0.73714 0.0
H2005 H 0.72352 0.42615 0.76119 0.0
H2006 H 0.74826 0.42599 0.73328 0.0
C2007 C 0.75282 0.3761 0.74826 0.0
C2008 C 0.61204 0.22281 0.25089 0.0
C2009 C 0.59362 0.2178 0.26082 0.0
H2010 H 0.62673 0.24088 0.22782 0.0
C2011 C 0.57586 0.22894 0.25601 0.0
H2012 H 0.62602 0.21459 0.25433 0.0
C2013 C 0.57626 0.24402 0.24082 0.0
C2014 C 0.59444 0.24826 0.23011 0.0
H2015 H 0.56144 0.22556 0.26348 0.0
H2016 H 0.56215 0.25184 0.237 0.0
C2017 C 0.61244 0.23788 0.23568 0.0
C2018 C 0.75003 0.61097 0.24119 0.0
C2019 C 0.75474 0.59326 0.25251 0.0
H2020 H 0.7324 0.62412 0.21689 0.0
C2021 C 0.74371 0.57517 0.24865 0.0
H2022 H 0.75818 0.62518 0.24385 0.0
C2023 C 0.72895 0.57455 0.23317 0.0
C2024 C 0.72489 0.59202 0.22124 0.0
H2025 H 0.74687 0.56128 0.25717 0.0
H2026 H 0.72113 0.56021 0.23021 0.0
C2027 C 0.73525 0.61036 0.22572 0.0
C2028 C 0.41258 0.73995 0.23096 0.0
C2029 C 0.39463 0.73528 0.22004 0.0
H2030 H 0.42656 0.75835 0.25421 0.0
C2031 C 0.37617 0.74459 0.22597 0.0
H2032 H 0.42704 0.73292 0.2269 0.0
C2033 C 0.37589 0.75919 0.24165 0.0
C2034 C 0.39407 0.76476 0.25172 0.0
H2035 H 0.36204 0.74122 0.21797 0.0
H2036 H 0.36156 0.76668 0.2453 0.0
C2037 C 0.41231 0.75453 0.24664 0.0
C2038 C 0.25516 0.41729 0.22759 0.0
C2039 C 0.2589 0.39905 0.21673 0.0
H2040 H 0.23786 0.43219 0.25109 0.0
C2041 C 0.24861 0.38109 0.22267 0.0
H2042 H 0.26293 0.43137 0.2235 0.0
C2043 C 0.23421 0.38156 0.23851 0.0
C2044 C 0.22982 0.39999 0.24875 0.0
H2045 H 0.25122 0.36676 0.2147 0.0
H2046 H 0.2261 0.36758 0.2423 0.0
C2047 C 0.24079 0.41775 0.24343 0.0
C2048 C 0.74363 0.61688 0.76654 0.0
C2049 C 0.73217 0.59913 0.77072 0.0
H2050 H 0.76745 0.63059 0.74868 0.0
C2051 C 0.73542 0.58155 0.75869 0.0
H2052 H 0.74146 0.63071 0.77548 0.0
C2053 C 0.75032 0.58149 0.74333 0.0
C2054 C 0.76231 0.599 0.73966 0.0
H2055 H 0.7268 0.56764 0.76144 0.0
H2056 H 0.75275 0.56753 0.73467 0.0
C2057 C 0.75854 0.61682 0.75117 0.0
C2058 C 0.40659 0.75339 0.74404 0.0
C2059 C 0.38865 0.76438 0.73957 0.0
H2060 H 0.42101 0.73099 0.76311 0.0
C2061 C 0.37065 0.75974 0.75041 0.0
H2062 H 0.4207 0.75652 0.73591 0.0
C2063 C 0.37082 0.74507 0.76603 0.0
C2064 C 0.38901 0.73477 0.77113 0.0
H2065 H 0.35654 0.76786 0.74728 0.0
H2066 H 0.35684 0.74227 0.77449 0.0
C2067 C 0.40678 0.73876 0.75967 0.0
C2068 C 0.24962 0.37118 0.76193 0.0
C2069 C 0.26043 0.38927 0.76637 0.0
H2070 H 0.22616 0.35697 0.74398 0.0
C2071 C 0.25677 0.40682 0.75443 0.0
H2072 H 0.25216 0.35736 0.77076 0.0
C2073 C 0.24189 0.40659 0.73907 0.0
C2074 C 0.23033 0.38881 0.73533 0.0
H2075 H 0.26495 0.42096 0.75735 0.0
H2076 H 0.239 0.42057 0.73059 0.0
C2077 C 0.2347 0.37096 0.74657 0.0
C2078 C 0.57912 0.25167 0.75886 0.0
C2079 C 0.59722 0.25573 0.76977 0.0
H2080 H 0.56447 0.23359 0.73577 0.0
C2081 C 0.6153 0.24558 0.76404 0.0
H2082 H 0.56496 0.25935 0.76279 0.0
C2083 C 0.61501 0.23079 0.74854 0.0
C2084 C 0.59665 0.22587 0.73846 0.0
H2085 H 0.62953 0.24846 0.77204 0.0
H2086 H 0.62904 0.22268 0.74502 0.0
C2087 C 0.57884 0.2369 0.74336 0.0
C2088 C 0.74874 0.40704 0.25141 0.0
C2089 C 0.76057 0.38968 0.25613 0.0
H2090 H 0.72614 0.4203 0.23176 0.0
C2091 C 0.75738 0.37153 0.24497 0.0
H2092 H 0.75076 0.42125 0.25976 0.0
C2093 C 0.74324 0.37098 0.2289 0.0
C2094 C 0.73202 0.38858 0.22365 0.0
H2095 H 0.76618 0.35786 0.24827 0.0
H2096 H 0.74151 0.3569 0.22027 0.0
C2097 C 0.73464 0.4065 0.23533 0.0
C2098 C 0.61612 0.76312 0.23988 0.0
C2099 C 0.59776 0.76861 0.24967 0.0
H2100 H 0.63064 0.74418 0.21737 0.0
C2101 C 0.57982 0.75771 0.24492 0.0
H2102 H 0.63023 0.77115 0.24325 0.0
C2103 C 0.58005 0.74224 0.23012 0.0
C2104 C 0.59824 0.73733 0.2197 0.0
H2105 H 0.56543 0.76147 0.25226 0.0
H2106 H 0.56584 0.73454 0.22644 0.0
C2107 C 0.61636 0.74764 0.22505 0.0
C2108 C 0.2599 0.58469 0.22537 0.0
C2109 C 0.26388 0.60237 0.21372 0.0
H2110 H 0.24289 0.57129 0.24997 0.0
C2111 C 0.2546 0.62093 0.21943 0.0
H2112 H 0.26694 0.57017 0.22148 0.0
C2113 C 0.24079 0.62158 0.23578 0.0
C2114 C 0.23602 0.60368 0.24678 0.0
H2115 H 0.25745 0.63486 0.21086 0.0
H2116 H 0.23335 0.63598 0.23934 0.0
C2117 C 0.24614 0.58534 0.24175 0.0
C2118 C 0.37332 0.23441 0.24336 0.0
C2119 C 0.39148 0.22844 0.25324 0.0
H2120 H 0.35946 0.25366 0.22073 0.0
C2121 C 0.40965 0.23914 0.24894 0.0
H2122 H 0.35904 0.22657 0.24643 0.0
C2123 C 0.40988 0.2547 0.23423 0.0
C2124 C 0.39195 0.25986 0.22349 0.0
H2125 H 0.42387 0.23503 0.25641 0.0
H2126 H 0.42429 0.26213 0.23076 0.0
C2127 C 0.37356 0.24995 0.22862 0.0
C2128 C 0.74505 0.73896 0.57844 0.0
C2129 C 0.75675 0.7347 0.59601 0.0
H2130 H 0.72191 0.75768 0.56479 0.0
C2131 C 0.75271 0.74559 0.61417 0.0
H2132 H 0.7477 0.73078 0.56423 0.0
C2133 C 0.7379 0.76102 0.61449 0.0
C2134 C 0.72685 0.7659 0.59667 0.0
H2135 H 0.76138 0.74261 0.628 0.0
H2136 H 0.73556 0.76952 0.62857 0.0
C2137 C 0.73026 0.7544 0.57876 0.0
C2138 C 0.74387 0.24682 0.41489 0.0
C2139 C 0.7549 0.25136 0.39695 0.0
H2140 H 0.72161 0.22754 0.42924 0.0
C2141 C 0.75039 0.24053 0.37887 0.0
H2142 H 0.74688 0.25495 0.42905 0.0
C2143 C 0.73588 0.2248 0.37898 0.0
C2144 C 0.7256 0.21956 0.39717 0.0
H2145 H 0.75854 0.24373 0.36477 0.0
H2146 H 0.73323 0.2163 0.36495 0.0
C2147 C 0.72938 0.23108 0.415 0.0
C2148 C 0.74308 0.74023 0.41067 0.0
C2149 C 0.75422 0.73623 0.39267 0.0
H2150 H 0.72058 0.75892 0.4254 0.0
C2151 C 0.74976 0.74752 0.37487 0.0
H2152 H 0.74606 0.73174 0.42462 0.0
C2153 C 0.73512 0.76312 0.37532 0.0
C2154 C 0.72468 0.76776 0.39358 0.0
H2155 H 0.75799 0.74474 0.36073 0.0
H2156 H 0.73246 0.77193 0.3615 0.0
C2157 C 0.72847 0.75584 0.41112 0.0
C2158 C 0.23743 0.74975 0.37442 0.0
C2159 C 0.23249 0.73907 0.39247 0.0
H2160 H 0.25545 0.77339 0.36059 0.0
C2161 C 0.24352 0.74331 0.41049 0.0
H2162 H 0.22931 0.74677 0.36026 0.0
C2163 C 0.2585 0.75857 0.41068 0.0
C2164 C 0.26279 0.76991 0.39286 0.0
H2165 H 0.24017 0.73527 0.42463 0.0
H2166 H 0.2663 0.76187 0.42496 0.0
C2167 C 0.25243 0.76502 0.37461 0.0
C2168 C 0.25511 0.2448 0.41143 0.0
C2169 C 0.26198 0.23594 0.39302 0.0
H2170 H 0.23575 0.26714 0.42557 0.0
C2171 C 0.25563 0.2445 0.3743 0.0
H2172 H 0.25981 0.23866 0.42613 0.0
C2173 C 0.24189 0.2609 0.37398 0.0
C2174 C 0.23415 0.26901 0.39238 0.0
H2175 H 0.26077 0.23813 0.35985 0.0
H2176 H 0.23677 0.26668 0.35928 0.0
C2177 C 0.2413 0.26113 0.41111 0.0
C2178 C 0.23739 0.24888 0.57546 0.0
C2179 C 0.22537 0.25249 0.59297 0.0
H2180 H 0.26154 0.2314 0.56191 0.0
C2181 C 0.22977 0.24168 0.61108 0.0
H2182 H 0.23447 0.25704 0.56129 0.0
C2183 C 0.2453 0.22697 0.61144 0.0
C2184 C 0.25675 0.22277 0.59369 0.0
H2185 H 0.22087 0.24417 0.62487 0.0
H2186 H 0.24793 0.21852 0.62549 0.0
C2187 C 0.25291 0.23418 0.57582 0.0
C2188 C 0.76129 0.23608 0.61989 0.0
C2189 C 0.76455 0.24781 0.60211 0.0
H2190 H 0.74515 0.21112 0.63374 0.0
C2191 C 0.75272 0.2437 0.58458 0.0
H2192 H 0.77011 0.23888 0.63367 0.0
C2193 C 0.73845 0.22777 0.58461 0.0
C2194 C 0.73566 0.2156 0.60218 0.0
H2195 H 0.7548 0.25248 0.57064 0.0
H2196 H 0.72989 0.22475 0.5707 0.0
C2197 C 0.74698 0.22015 0.61993 0.0
C2198 C 0.2479 0.7584 0.57917 0.0
C2199 C 0.25084 0.77054 0.59673 0.0
H2200 H 0.23104 0.73407 0.56512 0.0
C2201 C 0.23922 0.76637 0.61439 0.0
H2202 H 0.25667 0.76115 0.56534 0.0
C2203 C 0.2245 0.75082 0.61426 0.0
C2204 C 0.22111 0.73911 0.59648 0.0
H2205 H 0.24115 0.7754 0.62819 0.0
H2206 H 0.21548 0.74829 0.62796 0.0
C2207 C 0.23321 0.74285 0.57905 0.0
C2208 C 0.01132 0.15806 0.32696 0.0
C2209 C 0.0222 0.1762 0.33103 0.0
H2210 H 0.98195 0.14384 0.32382 0.0
C2211 C 0.01134 0.19379 0.33701 0.0
H2212 H 0.01925 0.14421 0.3224 0.0
C2213 C 0.99001 0.19357 0.33787 0.0
C2214 C 0.97905 0.17576 0.3327 0.0
H2215 H 0.01926 0.20797 0.34044 0.0
H2216 H 0.98212 0.20759 0.34191 0.0
C2217 C 0.98994 0.15785 0.32776 0.0
C2218 C 0.80456 0.98374 0.33819 0.0
C2219 C 0.81751 0.97243 0.32523 0.0
H2220 H 0.795 0.01339 0.34834 0.0
C2221 C 0.83231 0.98288 0.31359 0.0
H2222 H 0.7931 0.97615 0.34747 0.0
C2223 C 0.83339 0.00426 0.31407 0.0
C2224 C 0.81972 0.01562 0.32623 0.0
H2225 H 0.84261 0.97461 0.30355 0.0
H2226 H 0.84449 0.01189 0.30438 0.0
C2227 C 0.80567 0.00511 0.3387 0.0
C2228 C 0.98162 0.82622 0.30064 0.0
C2229 C 0.9709 0.813 0.31383 0.0
H2230 H 0.0108 0.83596 0.2894 0.0
C2231 C 0.98198 0.8005 0.32741 0.0
H2232 H 0.97353 0.83615 0.29008 0.0
C2233 C 0.00333 0.80039 0.32702 0.0
C2234 C 0.01405 0.81278 0.31304 0.0
H2235 H 0.97418 0.79025 0.33788 0.0
H2236 H 0.01139 0.79006 0.3372 0.0
C2237 C 0.00299 0.82611 0.30025 0.0
C2238 C 0.1582 0.00308 0.30551 0.0
C2239 C 0.17212 0.01403 0.31776 0.0
H2240 H 0.14765 0.97366 0.29557 0.0
C2241 C 0.1851 0.00316 0.33105 0.0
H2242 H 0.14789 0.011 0.2952 0.0
C2243 C 0.18495 0.98176 0.33128 0.0
C2244 C 0.17181 0.97079 0.3182 0.0
H2245 H 0.1959 0.01114 0.3408 0.0
H2246 H 0.19564 0.97385 0.34119 0.0
C2247 C 0.15806 0.98166 0.30572 0.0
C2248 C 0.00193 0.79874 0.66045 0.0
C2249 C 0.01299 0.81122 0.67409 0.0
H2250 H 0.97267 0.78703 0.65163 0.0
C2251 C 0.00223 0.82308 0.6885 0.0
H2252 H 0.00974 0.7895 0.64909 0.0
C2253 C 0.98095 0.82167 0.68996 0.0
C2254 C 0.97001 0.80835 0.67705 0.0
H2255 H 0.01028 0.83294 0.69915 0.0
H2256 H 0.97318 0.8305 0.70167 0.0
C2257 C 0.98067 0.79731 0.66193 0.0
C2258 C 0.18282 0.01034 0.65706 0.0
C2259 C 0.1724 0.02144 0.6723 0.0
H2260 H 0.19065 0.98085 0.6451 0.0
C2261 C 0.16022 0.01075 0.68648 0.0
H2262 H 0.19223 0.01812 0.64581 0.0
C2263 C 0.15932 0.98936 0.68608 0.0
C2264 C 0.17056 0.97823 0.67148 0.0
H2265 H 0.15189 0.01885 0.69834 0.0
H2266 H 0.15034 0.98156 0.69766 0.0
C2267 C 0.1819 0.98896 0.65664 0.0
C2268 C 0.98064 0.18555 0.66281 0.0
C2269 C 0.97025 0.17391 0.67765 0.0
H2270 H 0.0095 0.19605 0.6515 0.0
C2271 C 0.98167 0.16223 0.69168 0.0
H2272 H 0.9723 0.19461 0.65168 0.0
C2273 C 0.00303 0.16305 0.69157 0.0
C2274 C 0.01338 0.17558 0.67744 0.0
H2275 H 0.97413 0.15299 0.70322 0.0
H2276 H 0.01136 0.15443 0.70304 0.0
C2277 C 0.00199 0.18638 0.6627 0.0
C2278 C 0.80447 -0.00272 0.66601 0.0
C2279 C 0.81371 0.00803 0.68223 0.0
H2280 H 0.79623 0.96808 0.65361 0.0
C2281 C 0.82344 -0.00308 0.69791 0.0
H2282 H 0.79695 0.00539 0.65362 0.0
C2283 C 0.82303 0.97551 0.6979 0.0
C2284 C 0.81288 0.96478 0.68222 0.0
H2285 H 0.83081 0.00473 0.71057 0.0
H2286 H 0.83009 0.96742 0.71056 0.0
C2287 C 0.80406 0.97588 0.666 0.0
C2288 C 0.31367 0.98487 0.18178 0.0
C2289 C 0.29692 0.97383 0.17399 0.0
H2290 H 0.32653 0.01431 0.18819 0.0
C2291 C 0.28072 0.9846 0.16479 0.0
H2292 H 0.32648 0.97703 0.18881 0.0
C2293 C 0.28075 0.00602 0.16444 0.0
C2294 C 0.29697 0.01707 0.17327 0.0
H2295 H 0.26765 0.97654 0.15853 0.0
H2296 H 0.26768 0.01388 0.15793 0.0
C2297 C 0.31371 0.00626 0.1814 0.0
C2298 C 0.98249 0.3082 0.16517 0.0
C2299 C 0.97181 0.31698 0.18168 0.0
H2300 H 0.01168 0.30147 0.15193 0.0
C2301 C 0.98282 0.32772 0.19677 0.0
H2302 H 0.97444 0.29994 0.15323 0.0
C2303 C 0.00413 0.32863 0.19601 0.0
C2304 C 0.0149 0.31879 0.18016 0.0
H2305 H 0.97504 0.33484 0.20959 0.0
H2306 H 0.01218 0.33638 0.20829 0.0
C2307 C 0.00384 0.30909 0.16442 0.0
C2308 C 0.6761 0.98508 0.1895 0.0
C2309 C 0.69221 0.97407 0.18043 0.0
H2310 H 0.6645 0.0144 0.19837 0.0
C2311 C 0.70855 0.98492 0.17158 0.0
H2312 H 0.66321 0.97719 0.19635 0.0
C2313 C 0.70928 0.00629 0.17273 0.0
C2314 C 0.6937 0.01722 0.18278 0.0
H2315 H 0.72115 0.9769 0.16437 0.0
H2316 H 0.72242 0.01416 0.16636 0.0
C2317 C 0.67684 0.00643 0.19068 0.0
C2318 C 0.00197 0.66359 0.18728 0.0
C2319 C 0.01204 0.67772 0.17452 0.0
H2320 H 0.97337 0.6526 0.19879 0.0
C2321 C 0.00032 0.69068 0.16195 0.0
H2322 H 0.01055 0.65328 0.19705 0.0
C2323 C 0.97898 0.69029 0.16294 0.0
C2324 C 0.96894 0.67693 0.17653 0.0
H2325 H 0.00762 0.70165 0.15185 0.0
H2326 H 0.97039 0.70096 0.15357 0.0
C2327 C 0.98064 0.6632 0.18828 0.0
C2328 C 0.31567 0.9892 0.79964 0.0
C2329 C 0.29961 0.97845 0.80913 0.0
H2330 H 0.32851 0.0184 0.79225 0.0
C2331 C 0.28478 0.98947 0.82016 0.0
H2332 H 0.32743 0.98115 0.79115 0.0
C2333 C 0.28539 0.01086 0.82079 0.0
C2334 C 0.30087 0.02164 0.81041 0.0
H2335 H 0.27228 0.98163 0.82775 0.0
H2336 H 0.27335 0.01894 0.82884 0.0
C2337 C 0.31629 0.01057 0.80029 0.0
C2338 C 0.00121 0.29674 0.82498 0.0
C2339 C 0.01193 0.31096 0.81288 0.0
H2340 H 0.97204 0.28466 0.83369 0.0
C2341 C 0.00083 0.32542 0.80142 0.0
H2342 H 0.0093 0.28547 0.83409 0.0
C2343 C 0.97948 0.32494 0.80118 0.0
C2344 C 0.96877 0.31001 0.81241 0.0
H2345 H 0.00863 0.33668 0.79204 0.0
H2346 H 0.9714 0.33586 0.79163 0.0
C2347 C 0.97984 0.29627 0.82475 0.0
C2348 C 0.69761 3e-05 0.82586 0.0
C2349 C 0.68254 0.0112 0.8153 0.0
H2350 H 0.70944 0.97047 0.83362 0.0
C2351 C 0.6665 0.00053 0.8057 0.0
H2352 H 0.71011 0.00779 0.83353 0.0
C2353 C 0.66611 0.97912 0.80575 0.0
C2354 C 0.68177 0.96794 0.81541 0.0
H2355 H 0.65457 0.00867 0.79754 0.0
H2356 H 0.65391 0.97136 0.79762 0.0
C2357 C 0.69722 0.97862 0.82591 0.0
C2358 C 0.98817 0.67966 0.82663 0.0
C2359 C 0.97697 0.66774 0.81261 0.0
H2360 H 0.01757 0.69085 0.83574 0.0
C2361 C 0.98758 0.65633 0.79775 0.0
H2362 H 0.98046 0.68854 0.83835 0.0
C2363 C 0.00885 0.6577 0.79621 0.0
C2364 C 0.01995 0.67046 0.80955 0.0
H2365 H 0.97943 0.64689 0.78678 0.0
H2366 H 0.01649 0.64924 0.78415 0.0
C2367 C 0.00945 0.68099 0.82513 0.0
C2368 C 0.18033 0.33176 0.0039 0.0
C2369 C 0.16925 0.31678 0.01471 0.0
H2370 H 0.19024 0.34278 0.97465 0.0
C2371 C 0.15803 0.30211 0.00363 0.0
H2372 H 0.18906 0.34334 0.01197 0.0
C2373 C 0.1587 0.3018 0.98222 0.0
C2374 C 0.17063 0.31613 0.97145 0.0
H2375 H 0.14924 0.29044 0.01149 0.0
H2376 H 0.1504 0.28989 0.97417 0.0
C2377 C 0.18102 0.33143 0.98249 0.0
C2378 C 0.18129 0.66637 0.97863 0.0
C2379 C 0.17204 0.68248 0.96774 0.0
H2380 H 0.18858 0.65372 0.00799 0.0
C2381 C 0.16122 0.69756 0.97865 0.0
H2382 H 0.18963 0.65442 0.97068 0.0
C2383 C 0.16061 0.69715 7e-05 0.0
C2384 C 0.17082 0.68166 0.01099 0.0
H2385 H 0.15381 0.71011 0.97071 0.0
H2386 H 0.15275 0.7094 0.00804 0.0
C2387 C 0.18069 0.66596 4e-05 0.0
C2388 C 0.28296 0.17014 0.00644 0.0
C2389 C 0.29827 0.1804 0.01757 0.0
H2390 H 0.27119 0.16219 0.97687 0.0
C2391 C 0.31476 0.1892 0.0069 0.0
H2392 H 0.27012 0.16309 0.01421 0.0
C2393 C 0.31538 0.18867 0.98551 0.0
C2394 C 0.29952 0.17936 0.97433 0.0
H2395 H 0.32688 0.19709 0.01502 0.0
H2396 H 0.32796 0.19619 0.97774 0.0
C2397 C 0.28358 0.16962 0.98503 0.0
C2398 C 0.82728 0.29143 0.98749 0.0
C2399 C 0.81688 0.30682 0.97662 0.0
H2400 H 0.83554 0.27937 0.01684 0.0
C2401 C 0.80824 0.32326 0.98755 0.0
H2402 H 0.83423 0.27863 0.97953 0.0
C2403 C 0.809 0.32369 0.00895 0.0
C2404 C 0.81842 0.30769 0.01988 0.0
H2405 H 0.80023 0.33545 0.97962 0.0
H2406 H 0.80155 0.33619 0.01694 0.0
C2407 C 0.82804 0.29186 0.0089 0.0
C2408 C 0.70769 0.82124 0.00745 0.0
C2409 C 0.69159 0.81222 0.01852 0.0
H2410 H 0.7209 0.82692 0.97797 0.0
C2411 C 0.67521 0.80338 0.00772 0.0
H2412 H 0.72049 0.82829 0.01532 0.0
C2413 C 0.67546 0.80258 0.98633 0.0
C2414 C 0.69209 0.81062 0.97529 0.0
H2415 H 0.66249 0.79643 0.01578 0.0
H2416 H 0.66292 0.79504 0.97851 0.0
C2417 C 0.70793 0.82046 0.98603 0.0
C2418 C 0.80369 0.65419 0.0085 0.0
C2419 C 0.81622 0.66719 0.02024 0.0
H2420 H 0.79442 0.64474 0.97852 0.0
C2421 C 0.83062 0.67964 0.01019 0.0
H2422 H 0.79254 0.64429 0.01578 0.0
C2423 C 0.83169 0.67992 0.98879 0.0
C2424 C 0.81839 0.66773 0.97703 0.0
H2425 H 0.84059 0.68974 0.0188 0.0
H2426 H 0.84245 0.69022 0.98148 0.0
C2427 C 0.80478 0.65445 0.98713 0.0
C2428 C 0.31574 0.81035 0.00156 0.0
C2429 C 0.29878 0.81801 0.01238 0.0
H2430 H 0.32912 0.80423 0.97227 0.0
C2431 C 0.28278 0.82728 0.0014 0.0
H2432 H 0.32841 0.80325 0.00957 0.0
C2433 C 0.28319 0.82785 0.97998 0.0
C2434 C 0.29962 0.81916 0.96913 0.0
H2435 H 0.26955 0.83346 0.00928 0.0
H2436 H 0.27027 0.83444 0.97194 0.0
C2437 C 0.31615 0.81092 0.98016 0.0
C2438 C 0.70669 0.16141 0.9891 0.0
C2439 C 0.6902 0.16993 0.97822 0.0
H2440 H 0.72033 0.15597 0.01843 0.0
C2441 C 0.67353 0.17795 0.98923 0.0
H2442 H 0.71971 0.15499 0.98109 0.0
C2443 C 0.67389 0.17853 0.01063 0.0
C2444 C 0.69092 0.17109 0.02148 0.0
H2445 H 0.66051 0.1845 0.98132 0.0
H2446 H 0.66113 0.18549 0.01862 0.0
C2447 C 0.70705 0.16198 0.01052 0.0
C2448 C 0.4808 0.68974 0.8326 0.0
C2449 C 0.46987 0.67679 0.81931 0.0
H2450 H 0.51012 0.7005 0.84238 0.0
C2451 C 0.48075 0.6632 0.80663 0.0
H2452 H 0.47288 0.70031 0.84266 0.0
C2453 C 0.50212 0.66332 0.80646 0.0
C2454 C 0.51304 0.67702 0.81898 0.0
H2455 H 0.47278 0.65293 0.7963 0.0
H2456 H 0.51004 0.65313 0.79601 0.0
C2457 C 0.50217 0.68985 0.83244 0.0
C2458 C 0.30617 0.50327 0.82533 0.0
C2459 C 0.31705 0.51414 0.81025 0.0
H2460 H 0.29754 0.47396 0.83714 0.0
C2461 C 0.32934 0.50323 0.79634 0.0
H2462 H 0.29669 0.51122 0.83639 0.0
C2463 C 0.32982 0.48183 0.79677 0.0
C2464 C 0.31804 0.47093 0.81112 0.0
H2465 H 0.33801 0.51116 0.78462 0.0
H2466 H 0.33886 0.47384 0.78537 0.0
C2467 C 0.30667 0.48189 0.82576 0.0
C2468 C 0.50725 0.32795 0.81374 0.0
C2469 C 0.51812 0.31248 0.82404 0.0
H2470 H 0.47794 0.33958 0.80489 0.0
C2471 C 0.50718 0.29759 0.8351 0.0
H2472 H 0.51522 0.33972 0.80518 0.0
C2473 C 0.48582 0.29749 0.83492 0.0
C2474 C 0.47495 0.3123 0.82369 0.0
H2475 H 0.51508 0.28554 0.84333 0.0
H2476 H 0.47788 0.28539 0.84303 0.0
C2477 C 0.48587 0.32786 0.81357 0.0
C2478 C 0.68294 0.48616 0.83046 0.0
C2479 C 0.67293 0.47493 0.81504 0.0
H2480 H 0.6913 0.51576 0.8418 0.0
C2481 C 0.66195 0.48555 0.79985 0.0
H2482 H 0.69144 0.47845 0.84244 0.0
C2483 C 0.66187 0.50696 0.79948 0.0
C2484 C 0.67277 0.51818 0.81428 0.0
H2485 H 0.65397 0.47735 0.78783 0.0
H2486 H 0.65382 0.51467 0.78718 0.0
C2487 C 0.68287 0.50757 0.83007 0.0
C2488 C 0.48539 0.32477 0.19229 0.0
C2489 C 0.47417 0.31311 0.17808 0.0
H2490 H 0.51484 0.33183 0.20475 0.0
C2491 C 0.48475 0.30064 0.16406 0.0
H2492 H 0.47771 0.33462 0.20322 0.0
C2493 C 0.50602 0.299 0.16497 0.0
C2494 C 0.51716 0.30982 0.17989 0.0
H2495 H 0.47657 0.29155 0.15283 0.0
H2496 H 0.51365 0.28873 0.1544 0.0
C2497 C 0.50669 0.32316 0.19317 0.0
C2498 C 0.65907 0.47696 0.19286 0.0
C2499 C 0.67061 0.46639 0.17805 0.0
H2500 H 0.6497 0.50606 0.20471 0.0
C2501 C 0.68026 0.47761 0.1624 0.0
H2502 H 0.65134 0.46877 0.20505 0.0
C2503 C 0.67929 0.49899 0.16219 0.0
C2504 C 0.66868 0.50961 0.17764 0.0
H2505 H 0.68915 0.46993 0.15067 0.0
H2506 H 0.68749 0.5072 0.15031 0.0
C2507 C 0.65813 0.49835 0.19266 0.0
C2508 C 0.50763 0.69451 0.15582 0.0
C2509 C 0.51794 0.67804 0.16509 0.0
H2510 H 0.47884 0.70821 0.14861 0.0
C2511 C 0.50649 0.66153 0.17283 0.0
H2512 H 0.516 0.7074 0.14955 0.0
C2513 C 0.48512 0.662 0.17228 0.0
C2514 C 0.47481 0.67899 0.16398 0.0
H2515 H 0.51398 0.64855 0.17995 0.0
H2516 H 0.47671 0.64937 0.17901 0.0
C2517 C 0.4863 0.69497 0.15527 0.0
C2518 C 0.33354 0.48817 0.17476 0.0
C2519 C 0.31864 0.47716 0.1638 0.0
H2520 H 0.34506 0.51763 0.18339 0.0
C2521 C 0.30473 0.48796 0.1514 0.0
H2522 H 0.34456 0.48031 0.18435 0.0
C2523 C 0.30502 0.50935 0.15086 0.0
C2524 C 0.31921 0.52041 0.16269 0.0
H2525 H 0.29315 0.47994 0.14264 0.0
H2526 H 0.29364 0.51722 0.1417 0.0
C2527 C 0.33382 0.50958 0.17421 0.0
C2528 C 0.81588 0.50661 0.6864 0.0
C2529 C 0.7996 0.51793 0.67804 0.0
H2530 H 0.82788 0.47697 0.69344 0.0
C2531 C 0.78335 0.50741 0.66863 0.0
H2532 H 0.8287 0.51426 0.69364 0.0
C2533 C 0.78288 0.486 0.66851 0.0
C2534 C 0.79865 0.47469 0.67781 0.0
H2535 H 0.77063 0.51568 0.66193 0.0
H2536 H 0.76981 0.47835 0.66175 0.0
C2537 C 0.81541 0.48522 0.68628 0.0
C2538 C 0.50105 0.79453 0.66814 0.0
C2539 C 0.51173 0.80939 0.6795 0.0
H2540 H 0.4719 0.78214 0.65981 0.0
C2541 C 0.50062 0.82457 0.68996 0.0
H2542 H 0.50916 0.78269 0.6598 0.0
C2543 C 0.47926 0.82425 0.68996 0.0
C2544 C 0.46858 0.80875 0.6795 0.0
H2545 H 0.50839 0.83632 0.69874 0.0
H2546 H 0.47117 0.83578 0.69874 0.0
C2547 C 0.47968 0.79421 0.66814 0.0
C2548 C 0.17225 0.50085 0.68077 0.0
C2549 C 0.18871 0.51129 0.67166 0.0
H2550 H 0.1596 0.47194 0.68958 0.0
C2551 C 0.20453 0.49988 0.66256 0.0
H2552 H 0.15974 0.50918 0.6878 0.0
C2553 C 0.20444 0.47849 0.66358 0.0
C2554 C 0.18855 0.4681 0.67373 0.0
H2555 H 0.21737 0.50746 0.6553 0.0
H2556 H 0.21721 0.47016 0.65706 0.0
C2557 C 0.17217 0.47948 0.68181 0.0
C2558 C 0.48356 0.16495 0.69012 0.0
C2559 C 0.4729 0.17995 0.67895 0.0
H2560 H 0.51266 0.15362 0.6999 0.0
C2561 C 0.48404 0.19429 0.66738 0.0
H2562 H 0.47543 0.15359 0.69908 0.0
C2563 C 0.50541 0.19431 0.66784 0.0
C2564 C 0.51605 0.17999 0.67989 0.0
H2565 H 0.47628 0.20597 0.6585 0.0
H2566 H 0.51354 0.206 0.65931 0.0
C2567 C 0.50492 0.16497 0.69059 0.0
C2568 C 0.81385 0.48293 0.30802 0.0
C2569 C 0.79725 0.472 0.31628 0.0
H2570 H 0.82619 0.51225 0.30016 0.0
C2571 C 0.78082 0.48294 0.32485 0.0
H2572 H 0.82682 0.47498 0.30142 0.0
C2573 C 0.78046 0.50434 0.32412 0.0
C2574 C 0.79653 0.51522 0.31481 0.0
H2575 H 0.76786 0.47497 0.33146 0.0
H2576 H 0.76724 0.51228 0.3302 0.0
C2577 C 0.81349 0.50432 0.30728 0.0
C2578 C 0.5059 0.81122 0.32548 0.0
C2579 C 0.51662 0.82036 0.30919 0.0
H2580 H 0.47671 0.80319 0.33798 0.0
C2581 C 0.50555 0.83018 0.29356 0.0
H2582 H 0.51399 0.80364 0.33784 0.0
C2583 C 0.4842 0.82993 0.29365 0.0
C2584 C 0.47347 0.81985 0.30937 0.0
H2585 H 0.51334 0.83751 0.28086 0.0
H2586 H 0.47614 0.83707 0.28101 0.0
C2587 C 0.48452 0.81096 0.32557 0.0
C2588 C 0.17341 0.49317 0.29694 0.0
C2589 C 0.18712 0.48195 0.30915 0.0
H2590 H 0.16379 0.52271 0.28658 0.0
C2591 C 0.20081 0.49257 0.32193 0.0
H2592 H 0.16256 0.48546 0.28702 0.0
C2593 C 0.20152 0.51397 0.32168 0.0
C2594 C 0.18855 0.52515 0.30863 0.0
H2595 H 0.21148 0.48437 0.33163 0.0
H2596 H 0.21272 0.52169 0.33118 0.0
C2597 C 0.17412 0.51455 0.29668 0.0
C2598 C 0.50035 0.17915 0.33124 0.0
C2599 C 0.51148 0.16836 0.3163 0.0
H2600 H 0.47094 0.18941 0.34138 0.0
C2601 C 0.5008 0.15789 0.3008 0.0
H2602 H 0.50811 0.18727 0.34346 0.0
C2603 C 0.47953 0.15916 0.29957 0.0
C2604 C 0.46847 0.17087 0.31386 0.0
H2605 H 0.50891 0.14931 0.28912 0.0
H2606 H 0.47183 0.15149 0.28702 0.0
C2607 C 0.47903 0.18037 0.33005 0.0
C2608 C 0.67657 0.82757 0.4856 0.0
C2609 C 0.66568 0.81257 0.47463 0.0
H2610 H 0.68592 0.8387 0.51498 0.0
C2611 C 0.65406 0.79808 0.48552 0.0
H2612 H 0.68555 0.83906 0.47768 0.0
C2613 C 0.65427 0.79788 0.50694 0.0
C2614 C 0.66611 0.81216 0.51788 0.0
H2615 H 0.64539 0.7864 0.47752 0.0
H2616 H 0.64575 0.78605 0.51488 0.0
C2617 C 0.67678 0.82736 0.507 0.0
C2618 C 0.68326 0.15768 0.48962 0.0
C2619 C 0.67196 0.17276 0.4792 0.0
H2620 H 0.69343 0.14612 0.51856 0.0
C2621 C 0.66067 0.18707 0.49066 0.0
H2622 H 0.69205 0.14636 0.48125 0.0
C2623 C 0.66146 0.18693 0.51207 0.0
C2624 C 0.67357 0.17248 0.52245 0.0
H2625 H 0.65171 0.19882 0.48311 0.0
H2626 H 0.65308 0.19857 0.52042 0.0
C2627 C 0.68406 0.15754 0.51102 0.0
C2628 C 0.78071 0.66525 0.50415 0.0
C2629 C 0.79679 0.67465 0.51494 0.0
H2630 H 0.76745 0.65874 0.47486 0.0
C2631 C 0.81315 0.68319 0.50387 0.0
H2632 H 0.76794 0.65841 0.51222 0.0
C2633 C 0.81287 0.68338 0.48246 0.0
C2634 C 0.79622 0.67503 0.47168 0.0
H2635 H 0.82586 0.69041 0.51172 0.0
H2636 H 0.82537 0.69074 0.47442 0.0
C2637 C 0.78043 0.66544 0.48272 0.0
C2638 C 0.32717 0.79713 0.48601 0.0
C2639 C 0.31765 0.81276 0.47466 0.0
H2640 H 0.3328 0.78425 0.51563 0.0
C2641 C 0.3077 0.82869 0.48521 0.0
H2642 H 0.33507 0.7847 0.47836 0.0
C2643 C 0.30635 0.82841 0.50659 0.0
C2644 C 0.31497 0.81221 0.51787 0.0
H2645 H 0.30029 0.84102 0.47693 0.0
H2646 H 0.29799 0.84055 0.5142 0.0
C2647 C 0.32586 0.79687 0.50739 0.0
C2648 C 0.19655 0.33351 0.48405 0.0
C2649 C 0.18305 0.32214 0.47172 0.0
H2650 H 0.20702 0.3401 0.51443 0.0
C2651 C 0.16818 0.3098 0.48121 0.0
H2652 H 0.2081 0.34327 0.47722 0.0
C2653 C 0.16759 0.30795 0.50254 0.0
C2654 C 0.18183 0.31843 0.51482 0.0
H2655 H 0.15746 0.30094 0.47216 0.0
H2656 H 0.15641 0.29774 0.50933 0.0
C2657 C 0.19594 0.33169 0.50539 0.0
C2658 C 0.3302 0.19569 0.50377 0.0
C2659 C 0.31868 0.18097 0.51447 0.0
H2660 H 0.33796 0.20856 0.47462 0.0
C2661 C 0.30745 0.16639 0.50328 0.0
H2662 H 0.33913 0.20705 0.51193 0.0
C2663 C 0.30674 0.16728 0.48191 0.0
C2664 C 0.31729 0.18275 0.47127 0.0
H2665 H 0.29852 0.15475 0.51105 0.0
H2666 H 0.29732 0.15628 0.47379 0.0
C2667 C 0.32952 0.19656 0.48237 0.0
C2668 C 0.81516 0.3013 0.48796 0.0
C2669 C 0.79845 0.31014 0.47768 0.0
H2670 H 0.82878 0.29378 0.51682 0.0
C2671 C 0.78314 0.31992 0.48922 0.0
H2672 H 0.82729 0.29375 0.47952 0.0
C2673 C 0.784 0.31994 0.51063 0.0
C2674 C 0.80019 0.31018 0.52093 0.0
H2675 H 0.77012 0.32698 0.48176 0.0
H2676 H 0.77163 0.32703 0.51909 0.0
C2677 C 0.81602 0.30131 0.50936 0.0
C2678 C 0.20203 0.66861 0.50468 0.0
C2679 C 0.1856 0.67802 0.51492 0.0
H2680 H 0.21639 0.66221 0.4759 0.0
C2681 C 0.16981 0.68685 0.50329 0.0
H2682 H 0.21439 0.66154 0.51319 0.0
C2683 C 0.17095 0.68722 0.4819 0.0
C2684 C 0.18792 0.67877 0.47171 0.0
H2685 H 0.15687 0.69412 0.5107 0.0
H2686 H 0.15885 0.69476 0.47343 0.0
C2687 C 0.20318 0.66898 0.48329 0.0
C2688 C 0.13055 0.11573 0.28517 0.0
C2689 C 0.14235 0.11174 0.30275 0.0
H2690 H 0.1072 0.13425 0.27146 0.0
C2691 C 0.13865 0.12312 0.32066 0.0
H2692 H 0.13298 0.10717 0.27115 0.0
C2693 C 0.12401 0.13866 0.3208 0.0
C2694 C 0.11263 0.14308 0.30307 0.0
H2695 H 0.14744 0.12041 0.33449 0.0
H2696 H 0.12187 0.14744 0.33474 0.0
C2697 C 0.11576 0.13122 0.28536 0.0
C2698 C 0.87864 0.13306 0.29296 0.0
C2699 C 0.88399 0.1433 0.31115 0.0
H2700 H 0.85929 0.11075 0.2787 0.0
C2701 C 0.8744 0.13758 0.32958 0.0
H2702 H 0.88578 0.13707 0.27852 0.0
C2703 C 0.85924 0.1225 0.32969 0.0
C2704 C 0.85331 0.11283 0.31137 0.0
H2705 H 0.87823 0.1451 0.34389 0.0
H2706 H 0.85182 0.11882 0.34408 0.0
C2707 C 0.86343 0.11799 0.29307 0.0
C2708 C 0.86512 0.85012 0.32163 0.0
C2709 C 0.87304 0.84393 0.30257 0.0
H2710 H 0.84426 0.86963 0.33764 0.0
C2711 C 0.86633 0.85391 0.2847 0.0
H2712 H 0.87002 0.84281 0.33571 0.0
C2713 C 0.85152 0.86933 0.28582 0.0
C2714 C 0.84314 0.87506 0.30482 0.0
H2715 H 0.87218 0.84955 0.26979 0.0
H2716 H 0.84635 0.87643 0.27173 0.0
C2717 C 0.85034 0.86552 0.32274 0.0
C2718 C 0.12029 0.84894 0.3178 0.0
C2719 C 0.112 0.84283 0.29887 0.0
H2720 H 0.14175 0.86809 0.33345 0.0
C2721 C 0.11867 0.8526 0.28087 0.0
H2722 H 0.11543 0.84178 0.33197 0.0
C2723 C 0.13381 0.86772 0.28172 0.0
C2724 C 0.14256 0.87335 0.30059 0.0
H2725 H 0.11255 0.84829 0.26605 0.0
H2726 H 0.13895 0.87465 0.26754 0.0
C2727 C 0.13539 0.86404 0.31865 0.0
C2728 C 0.13076 0.87142 0.70365 0.0
C2729 C 0.13861 0.8788 0.68499 0.0
H2730 H 0.11102 0.84984 0.7185 0.0
C2731 C 0.1312 0.87052 0.66653 0.0
H2732 H 0.1361 0.87752 0.71815 0.0
C2733 C 0.11685 0.85468 0.66673 0.0
C2734 C 0.10959 0.84675 0.6854 0.0
H2735 H 0.13686 0.87591 0.65187 0.0
H2736 H 0.11185 0.84833 0.65222 0.0
C2737 C 0.11639 0.85555 0.70385 0.0
C2738 C 0.13647 0.12774 0.6696 0.0
C2739 C 0.14415 0.1192 0.68782 0.0
H2740 H 0.11571 0.14902 0.6559 0.0
C2741 C 0.13562 0.12529 0.70665 0.0
H2742 H 0.14265 0.12333 0.65483 0.0
C2743 C 0.12012 0.14003 0.70726 0.0
C2744 C 0.11286 0.14899 0.68907 0.0
H2745 H 0.14116 0.11896 0.72096 0.0
H2746 H 0.11413 0.14467 0.72204 0.0
C2747 C 0.12101 0.14247 0.67021 0.0
C2748 C 0.86662 0.13187 0.67508 0.0
C2749 C 0.87396 0.14024 0.69353 0.0
H2750 H 0.84665 0.11023 0.66081 0.0
C2751 C 0.86728 0.13184 0.71222 0.0
H2752 H 0.87153 0.1379 0.66041 0.0
C2753 C 0.85297 0.11591 0.71245 0.0
C2754 C 0.84507 0.10808 0.694 0.0
H2755 H 0.87271 0.1379 0.7267 0.0
H2756 H 0.84772 0.11012 0.7271 0.0
C2757 C 0.85235 0.11597 0.67531 0.0
C2758 C 0.86389 0.84144 0.6762 0.0
C2759 C 0.87175 0.83412 0.69487 0.0
H2760 H 0.84295 0.86171 0.66131 0.0
C2761 C 0.86465 0.84273 0.71331 0.0
H2762 H 0.86908 0.8352 0.66171 0.0
C2763 C 0.8496 0.85795 0.71308 0.0
C2764 C 0.84138 0.8649 0.69442 0.0
H2765 H 0.87042 0.83745 0.72795 0.0
H2766 H 0.84418 0.86402 0.72756 0.0
C2767 C 0.8489 0.85667 0.67597 0.0
C2768 C 0.30505 0.1438 0.12449 0.0
C2769 C 0.28654 0.15098 0.11621 0.0
H2770 H 0.31963 0.12294 0.1451 0.0
C2771 C 0.26813 0.14158 0.12221 0.0
H2772 H 0.31951 0.15066 0.12015 0.0
C2773 C 0.2682 0.12565 0.13654 0.0
C2774 C 0.28668 0.11878 0.14514 0.0
H2775 H 0.25361 0.14671 0.11607 0.0
H2776 H 0.25373 0.11895 0.14108 0.0
C2777 C 0.30512 0.12788 0.13879 0.0
C2778 C 0.87135 0.27702 0.14323 0.0
C2779 C 0.87688 0.29519 0.1534 0.0
H2780 H 0.85298 0.26313 0.11987 0.0
C2781 C 0.86847 0.31386 0.14673 0.0
H2782 H 0.87759 0.26239 0.14796 0.0
C2783 C 0.85444 0.31429 0.1306 0.0
C2784 C 0.84844 0.29606 0.12082 0.0
H2785 H 0.87248 0.32815 0.15417 0.0
H2786 H 0.84797 0.3289 0.12612 0.0
C2787 C 0.85724 0.27744 0.12712 0.0
C2788 C 0.72292 0.86427 0.14302 0.0
C2789 C 0.70458 0.87394 0.14877 0.0
H2790 H 0.73718 0.84142 0.12424 0.0
C2791 C 0.68639 0.86858 0.1386 0.0
H2792 H 0.73721 0.86809 0.15052 0.0
C2793 C 0.68637 0.85334 0.12361 0.0
C2794 C 0.70455 0.84309 0.1184 0.0
H2795 H 0.67199 0.8758 0.14257 0.0
H2796 H 0.67197 0.84928 0.11645 0.0
C2797 C 0.72291 0.84898 0.12797 0.0
C2798 C 0.13186 0.67528 0.11811 0.0
C2799 C 0.13927 0.69373 0.10984 0.0
H2800 H 0.11193 0.66099 0.13979 0.0
C2801 C 0.1309 0.71236 0.11667 0.0
H2802 H 0.13791 0.66065 0.11312 0.0
C2803 C 0.11595 0.71255 0.13201 0.0
C2804 C 0.10909 0.69412 0.1408 0.0
H2805 H 0.13623 0.72684 0.11055 0.0
H2806 H 0.11016 0.72718 0.13731 0.0
C2807 C 0.11694 0.67547 0.13341 0.0
C2808 C 0.30608 0.87203 0.84541 0.0
C2809 C 0.28729 0.87947 0.83804 0.0
H2810 H 0.32136 0.8515 0.86582 0.0
C2811 C 0.26905 0.87213 0.84679 0.0
H2812 H 0.32043 0.87742 0.83906 0.0
C2813 C 0.2696 0.85722 0.86218 0.0
C2814 C 0.28838 0.84938 0.86912 0.0
H2815 H 0.25433 0.8776 0.84149 0.0
H2816 H 0.25527 0.85159 0.86833 0.0
C2817 C 0.30662 0.85716 0.86078 0.0
C2818 C 0.13418 0.31873 0.86498 0.0
C2819 C 0.142 0.30045 0.87327 0.0
H2820 H 0.11351 0.33255 0.84368 0.0
C2821 C 0.13373 0.28166 0.86677 0.0
H2822 H 0.14015 0.33348 0.86971 0.0
C2823 C 0.1184 0.28113 0.85183 0.0
C2824 C 0.11105 0.29938 0.84308 0.0
H2825 H 0.13937 0.26731 0.87291 0.0
H2826 H 0.11264 0.26638 0.84684 0.0
C2827 C 0.11888 0.3182 0.85005 0.0
C2828 C 0.71537 0.13057 0.87003 0.0
C2829 C 0.6972 0.1398 0.87695 0.0
H2830 H 0.72917 0.10927 0.84927 0.0
C2831 C 0.67848 0.13362 0.86831 0.0
H2832 H 0.73004 0.13496 0.87639 0.0
C2833 C 0.67798 0.11889 0.85277 0.0
C2834 C 0.69619 0.11002 0.84551 0.0
H2835 H 0.6642 0.14039 0.87332 0.0
H2836 H 0.66333 0.11472 0.84622 0.0
C2837 C 0.71487 0.11584 0.85447 0.0
C2838 C 0.87501 0.70229 0.85674 0.0
C2839 C 0.8812 0.68368 0.84784 0.0
H2840 H 0.85539 0.71713 0.87844 0.0
C2841 C 0.873 0.66525 0.85539 0.0
H2842 H 0.8811 0.71675 0.85133 0.0
C2843 C 0.85829 0.66547 0.87089 0.0
C2844 C 0.85145 0.68412 0.8792 0.0
H2845 H 0.87752 0.65063 0.84895 0.0
H2846 H 0.85188 0.65101 0.87595 0.0
C2847 C 0.86027 0.70251 0.87229 0.0
C2848 C 0.12892 0.28495 0.11974 0.0
C2849 C 0.13811 0.30365 0.11427 0.0
H2850 H 0.10817 0.26942 0.13983 0.0
C2851 C 0.13225 0.3216 0.12463 0.0
H2852 H 0.13305 0.27086 0.11201 0.0
C2853 C 0.11806 0.32077 0.14061 0.0
C2854 C 0.10936 0.30197 0.14653 0.0
H2855 H 0.13899 0.33627 0.12077 0.0
H2856 H 0.11422 0.33482 0.14857 0.0
C2857 C 0.11465 0.28413 0.13569 0.0
C2858 C 0.14021 0.67402 0.85706 0.0
C2859 C 0.14541 0.69261 0.86663 0.0
H2860 H 0.12232 0.65904 0.83405 0.0
C2861 C 0.1355 0.71068 0.8604 0.0
H2862 H 0.14754 0.65981 0.86151 0.0
C2863 C 0.12103 0.71024 0.84464 0.0
C2864 C 0.11617 0.69172 0.83476 0.0
H2865 H 0.13912 0.72526 0.86749 0.0
H2866 H 0.11387 0.72448 0.84001 0.0
C2867 C 0.12576 0.67358 0.84129 0.0
C2868 C 0.30592 0.13962 0.86825 0.0
C2869 C 0.2876 0.14921 0.87416 0.0
H2870 H 0.32049 0.11833 0.84811 0.0
C2871 C 0.26922 0.14326 0.86467 0.0
H2872 H 0.32034 0.14373 0.87533 0.0
C2873 C 0.26931 0.12863 0.84899 0.0
C2874 C 0.28778 0.11969 0.84251 0.0
H2875 H 0.25484 0.15032 0.86893 0.0
H2876 H 0.25499 0.12477 0.84157 0.0
C2877 C 0.30601 0.12504 0.85261 0.0
C2878 C 0.86246 0.31448 0.8493 0.0
C2879 C 0.87153 0.29606 0.84277 0.0
H2880 H 0.84137 0.32893 0.86981 0.0
C2881 C 0.86653 0.27777 0.85298 0.0
H2882 H 0.86602 0.32885 0.84179 0.0
C2883 C 0.85241 0.27782 0.86907 0.0
C2884 C 0.84299 0.29616 0.87529 0.0
H2885 H 0.87329 0.26333 0.84838 0.0
H2886 H 0.84866 0.26341 0.8764 0.0
C2887 C 0.84834 0.31452 0.86538 0.0
C2888 C 0.71605 0.86261 0.85157 0.0
C2889 C 0.69684 0.86917 0.84445 0.0
H2890 H 0.73249 0.84253 0.87163 0.0
C2891 C 0.67908 0.86075 0.85321 0.0
H2892 H 0.73003 0.86884 0.84517 0.0
C2893 C 0.68049 0.84566 0.86831 0.0
C2894 C 0.6997 0.83869 0.87504 0.0
H2895 H 0.66403 0.86549 0.84812 0.0
H2896 H 0.66649 0.83924 0.87446 0.0
C2897 C 0.71747 0.84753 0.86673 0.0
C2898 C 0.84842 0.6678 0.12726 0.0
C2899 C 0.84095 0.6857 0.11791 0.0
H2900 H 0.8684 0.65491 0.14976 0.0
C2901 C 0.84907 0.70476 0.1238 0.0
H2902 H 0.84253 0.65286 0.12303 0.0
C2903 C 0.86394 0.70593 0.13916 0.0
C2904 C 0.87096 0.68808 0.14892 0.0
H2905 H 0.84367 0.71883 0.11684 0.0
H2906 H 0.86962 0.72088 0.14363 0.0
C2907 C 0.86325 0.66898 0.14261 0.0
C2908 C 0.26911 0.85289 0.12049 0.0
C2909 C 0.28768 0.84458 0.11349 0.0
H2910 H 0.25437 0.87347 0.14136 0.0
C2911 C 0.3061 0.85159 0.12211 0.0
H2912 H 0.25465 0.84784 0.11414 0.0
C2913 C 0.30594 0.86627 0.1377 0.0
C2914 C 0.28736 0.87426 0.14502 0.0
H2915 H 0.32068 0.84553 0.11705 0.0
H2916 H 0.32041 0.87112 0.1442 0.0
C2917 C 0.26895 0.86758 0.1361 0.0
C2918 C 0.68451 0.13885 0.13221 0.0
C2919 C 0.70272 0.14552 0.12289 0.0
H2920 H 0.67072 0.11981 0.15505 0.0
C2921 C 0.72142 0.13713 0.12944 0.0
H2922 H 0.66984 0.14498 0.12752 0.0
C2923 C 0.72192 0.12268 0.14525 0.0
C2924 C 0.70374 0.11633 0.15485 0.0
H2925 H 0.73572 0.14192 0.12256 0.0
H2926 H 0.7366 0.1167 0.15012 0.0
C2927 C 0.68502 0.12442 0.14802 0.0
C2928 C 0.61777 0.63919 0.78329 0.0
C2929 C 0.61101 0.64765 0.80192 0.0
H2930 H 0.63818 0.61822 0.76848 0.0
C2931 C 0.61927 0.64025 0.82039 0.0
H2932 H 0.61167 0.64452 0.7688 0.0
C2933 C 0.63443 0.62518 0.8202 0.0
C2934 C 0.6417 0.61719 0.80155 0.0
H2935 H 0.61435 0.64638 0.83502 0.0
H2936 H 0.64076 0.62013 0.8347 0.0
C2937 C 0.63297 0.62411 0.78311 0.0
C2938 C 0.35447 0.62098 0.78108 0.0
C2939 C 0.34477 0.61385 0.79894 0.0
H2940 H 0.37583 0.64218 0.76808 0.0
C2941 C 0.35031 0.62232 0.81796 0.0
H2942 H 0.35059 0.61473 0.76619 0.0
C2943 C 0.36477 0.63802 0.81905 0.0
C2944 C 0.374 0.64562 0.80113 0.0
H2945 H 0.34318 0.61711 0.83203 0.0
H2946 H 0.36839 0.64448 0.83392 0.0
C2947 C 0.36894 0.63672 0.78216 0.0
C2948 C 0.37104 0.34967 0.81933 0.0
C2949 C 0.37938 0.34171 0.80114 0.0
H2950 H 0.34961 0.3703 0.83294 0.0
C2951 C 0.37299 0.34984 0.78224 0.0
H2952 H 0.3757 0.34383 0.83416 0.0
C2953 C 0.35797 0.36507 0.78154 0.0
C2954 C 0.34908 0.37245 0.79972 0.0
H2955 H 0.37918 0.34407 0.76795 0.0
H2956 H 0.35298 0.37067 0.76672 0.0
C2957 C 0.35606 0.36487 0.81863 0.0
C2958 C 0.62419 0.34853 0.8248 0.0
C2959 C 0.61426 0.3426 0.80663 0.0
H2960 H 0.64625 0.36832 0.83881 0.0
C2961 C 0.61863 0.35319 0.78838 0.0
H2962 H 0.62113 0.34072 0.83913 0.0
C2963 C 0.63303 0.36901 0.78819 0.0
C2964 C 0.64336 0.37459 0.80625 0.0
H2965 H 0.61119 0.34905 0.77413 0.0
H2966 H 0.63631 0.37661 0.7738 0.0
C2967 C 0.63858 0.36437 0.82462 0.0
C2968 C 0.63643 0.36078 0.21229 0.0
C2969 C 0.64464 0.36714 0.19341 0.0
H2970 H 0.6159 0.34049 0.22784 0.0
C2971 C 0.63743 0.35803 0.17527 0.0
H2972 H 0.64163 0.36752 0.22655 0.0
C2973 C 0.62273 0.34254 0.17601 0.0
C2974 C 0.61489 0.33581 0.19491 0.0
H2975 H 0.6434 0.3626 0.16046 0.0
H2976 H 0.61776 0.33562 0.16174 0.0
C2977 C 0.62168 0.34528 0.21303 0.0
C2978 C 0.61795 0.63585 0.17084 0.0
C2979 C 0.6106 0.64418 0.1893 0.0
H2980 H 0.63718 0.61359 0.15651 0.0
C2981 C 0.61636 0.63502 0.20793 0.0
H2982 H 0.61369 0.64243 0.1562 0.0
C2983 C 0.62988 0.61841 0.20811 0.0
C2984 C 0.63786 0.61063 0.18966 0.0
H2985 H 0.61089 0.64102 0.22242 0.0
H2986 H 0.6345 0.61205 0.22274 0.0
C2987 C 0.63141 0.61926 0.17101 0.0
C2988 C 0.37382 0.63827 0.19882 0.0
C2989 C 0.37917 0.64911 0.18099 0.0
H2990 H 0.35495 0.61503 0.21217 0.0
C2991 C 0.37001 0.64364 0.16227 0.0
H2992 H 0.38066 0.64205 0.21347 0.0
C2993 C 0.35531 0.62814 0.16151 0.0
C2994 C 0.34942 0.61779 0.17947 0.0
H2995 H 0.37386 0.65163 0.14823 0.0
H2996 H 0.34821 0.62463 0.14692 0.0
C2997 C 0.35908 0.62277 0.19807 0.0
C2998 C 0.36802 0.35468 0.16832 0.0
C2999 C 0.37623 0.34868 0.18732 0.0
H3000 H 0.34692 0.37403 0.15244 0.0
C3001 C 0.36985 0.35891 0.20518 0.0
H3002 H 0.37266 0.34717 0.15426 0.0
C3003 C 0.35507 0.37436 0.20413 0.0
C3004 C 0.34637 0.37987 0.18521 0.0
H3005 H 0.37592 0.35471 0.22005 0.0
H3006 H 0.35014 0.38164 0.21822 0.0
C3007 C 0.35325 0.3701 0.16728 0.0
C3008 C 0.769 0.63814 0.62415 0.0
C3009 C 0.78728 0.64588 0.61585 0.0
H3010 H 0.75515 0.61819 0.64622 0.0
C3011 C 0.80604 0.63829 0.62314 0.0
H3012 H 0.75429 0.64365 0.61884 0.0
C3013 C 0.80653 0.62371 0.63879 0.0
C3014 C 0.78827 0.61642 0.64754 0.0
H3015 H 0.82041 0.64387 0.61703 0.0
H3016 H 0.82126 0.61848 0.64429 0.0
C3017 C 0.76949 0.62356 0.63985 0.0
C3018 C 0.34764 0.77891 0.62491 0.0
C3019 C 0.34015 0.79781 0.61778 0.0
H3020 H 0.36752 0.76343 0.6459 0.0
C3021 C 0.34807 0.816 0.62616 0.0
H3022 H 0.34189 0.76461 0.61874 0.0
C3023 C 0.36272 0.81532 0.64172 0.0
C3024 C 0.3698 0.79643 0.64925 0.0
H3025 H 0.34269 0.83083 0.62098 0.0
H3026 H 0.36822 0.82964 0.64808 0.0
C3027 C 0.36233 0.77823 0.64048 0.0
C3028 C 0.21426 0.34764 0.62129 0.0
C3029 C 0.19552 0.33927 0.61482 0.0
H3030 H 0.22956 0.36817 0.64177 0.0
C3031 C 0.17735 0.34605 0.62413 0.0
H3032 H 0.22854 0.34276 0.61441 0.0
C3033 C 0.17793 0.3606 0.63984 0.0
C3034 C 0.19671 0.36869 0.64656 0.0
H3035 H 0.16265 0.33993 0.6195 0.0
H3036 H 0.16367 0.36531 0.64686 0.0
C3037 C 0.21485 0.3622 0.63699 0.0
C3038 C 0.63807 0.20724 0.62686 0.0
C3039 C 0.64602 0.1882 0.62068 0.0
H3040 H 0.61731 0.22321 0.64658 0.0
C3041 C 0.63801 0.17021 0.6294 0.0
H3042 H 0.64387 0.22138 0.62038 0.0
C3043 C 0.62283 0.17126 0.64442 0.0
C3044 C 0.61528 0.19032 0.65102 0.0
H3045 H 0.64374 0.15529 0.62494 0.0
H3046 H 0.61728 0.15711 0.6511 0.0
C3047 C 0.62284 0.20829 0.64187 0.0
C3048 C 0.80589 0.34766 0.36942 0.0
C3049 C 0.78727 0.34075 0.3777 0.0
H3050 H 0.82074 0.36765 0.34813 0.0
C3051 C 0.76894 0.3498 0.371 0.0
H3052 H 0.8203 0.34106 0.37429 0.0
C3053 C 0.76919 0.36507 0.35596 0.0
C3054 C 0.78777 0.37162 0.34733 0.0
H3055 H 0.75433 0.34486 0.3771 0.0
H3056 H 0.75477 0.37148 0.35087 0.0
C3057 C 0.80614 0.36293 0.35442 0.0
C3058 C 0.6312 0.81783 0.3658 0.0
C3059 C 0.63806 0.79926 0.37425 0.0
H3060 H 0.61288 0.83247 0.34299 0.0
C3061 C 0.63026 0.78073 0.3665 0.0
H3062 H 0.63682 0.83239 0.37147 0.0
C3063 C 0.61649 0.78077 0.35008 0.0
C3064 C 0.61028 0.79934 0.34113 0.0
H3065 H 0.6352 0.76616 0.37272 0.0
H3066 H 0.61115 0.76624 0.3441 0.0
C3067 C 0.61747 0.81787 0.34943 0.0
C3068 C 0.22072 0.643 0.3641 0.0
C3069 C 0.20206 0.65166 0.37041 0.0
H3070 H 0.23591 0.62263 0.34335 0.0
C3071 C 0.18391 0.64545 0.36065 0.0
H3072 H 0.23497 0.64743 0.37132 0.0
C3073 C 0.18445 0.63127 0.34462 0.0
C3074 C 0.20315 0.62297 0.33798 0.0
H3075 H 0.16927 0.6518 0.36515 0.0
H3076 H 0.17021 0.62706 0.33724 0.0
C3077 C 0.22126 0.62879 0.34805 0.0
C3078 C 0.34805 0.17673 0.36133 0.0
C3079 C 0.34402 0.1952 0.37166 0.0
H3080 H 0.36507 0.1616 0.33777 0.0
C3081 C 0.35514 0.21283 0.36627 0.0
H3082 H 0.33977 0.16285 0.36514 0.0
C3083 C 0.36965 0.21211 0.35055 0.0
C3084 C 0.37333 0.19375 0.33991 0.0
H3085 H 0.35243 0.2273 0.37396 0.0
H3086 H 0.37774 0.22604 0.34656 0.0
C3087 C 0.36255 0.17601 0.34563 0.0
C3088 C 0.6308 0.81466 0.62474 0.0
C3089 C 0.63863 0.79619 0.61692 0.0
H3090 H 0.61081 0.82903 0.64628 0.0
C3091 C 0.63101 0.77753 0.62453 0.0
H3092 H 0.63628 0.8293 0.61915 0.0
C3093 C 0.61636 0.77738 0.64016 0.0
C3094 C 0.60907 0.79587 0.64845 0.0
H3095 H 0.63669 0.76304 0.61878 0.0
H3096 H 0.61112 0.76277 0.64605 0.0
C3097 C 0.61619 0.8145 0.64032 0.0
C3098 C 0.61367 0.20308 0.35913 0.0
C3099 C 0.60783 0.1846 0.34973 0.0
H3100 H 0.63312 0.21777 0.38107 0.0
C3101 C 0.61663 0.16617 0.35657 0.0
H3102 H 0.60712 0.21753 0.35427 0.0
C3103 C 0.63152 0.16631 0.37191 0.0
C3104 C 0.63795 0.18487 0.38077 0.0
H3105 H 0.61241 0.15165 0.34972 0.0
H3106 H 0.63835 0.15188 0.37646 0.0
C3107 C 0.62858 0.20322 0.37449 0.0
C3108 C 0.80382 0.62463 0.3481 0.0
C3109 C 0.78535 0.61589 0.34135 0.0
H3110 H 0.81828 0.64656 0.36769 0.0
C3111 C 0.76688 0.62254 0.35015 0.0
H3112 H 0.81833 0.61984 0.34166 0.0
C3113 C 0.76686 0.6379 0.3651 0.0
C3114 C 0.7853 0.64691 0.37156 0.0
H3115 H 0.75239 0.6161 0.34531 0.0
H3116 H 0.75235 0.64287 0.37139 0.0
C3117 C 0.80379 0.63997 0.36303 0.0
C3118 C 0.37333 0.78239 0.35149 0.0
C3119 C 0.37861 0.80056 0.34119 0.0
H3120 H 0.35519 0.76843 0.37498 0.0
C3121 C 0.37011 0.81919 0.34786 0.0
H3122 H 0.37967 0.76779 0.34677 0.0
C3123 C 0.35614 0.81956 0.36406 0.0
C3124 C 0.35033 0.80131 0.37391 0.0
H3125 H 0.37393 0.83348 0.34033 0.0
H3126 H 0.34955 0.83413 0.36851 0.0
C3127 C 0.35931 0.78276 0.36767 0.0
C3128 C 0.21933 0.37943 0.35002 0.0
C3129 C 0.20085 0.38569 0.34095 0.0
H3130 H 0.23381 0.36031 0.37241 0.0
C3131 C 0.18232 0.3781 0.34882 0.0
H3132 H 0.23386 0.38509 0.34438 0.0
C3133 C 0.18229 0.36396 0.36486 0.0
C3134 C 0.20079 0.35708 0.37342 0.0
H3135 H 0.16779 0.38269 0.34227 0.0
H3136 H 0.16775 0.35803 0.37017 0.0
C3137 C 0.2193 0.36527 0.36612 0.0
C3138 C 0.36789 0.21406 0.63884 0.0
C3139 C 0.37564 0.19558 0.64673 0.0
H3140 H 0.34741 0.22834 0.61756 0.0
C3141 C 0.36924 0.17697 0.63795 0.0
H3142 H 0.37257 0.22865 0.64523 0.0
C3143 C 0.35487 0.1768 0.62213 0.0
C3144 C 0.34656 0.19522 0.61472 0.0
H3145 H 0.37498 0.16246 0.64358 0.0
H3146 H 0.34995 0.16215 0.61605 0.0
C3147 C 0.35348 0.21388 0.62298 0.0
C3148 C 0.80687 0.36586 0.64099 0.0
C3149 C 0.78809 0.37333 0.64837 0.0
H3150 H 0.82213 0.34443 0.62149 0.0
C3151 C 0.76983 0.36504 0.64057 0.0
H3152 H 0.82123 0.37196 0.64662 0.0
C3153 C 0.77034 0.34918 0.62615 0.0
C3154 C 0.78913 0.34133 0.61922 0.0
H3155 H 0.75511 0.37048 0.64592 0.0
H3156 H 0.75601 0.34284 0.62074 0.0
C3157 C 0.80738 0.35006 0.62656 0.0
C3158 C 0.21622 0.62165 0.63301 0.0
C3159 C 0.19809 0.61309 0.64083 0.0
H3160 H 0.22968 0.64434 0.61351 0.0
C3161 C 0.17919 0.62054 0.63377 0.0
H3162 H 0.23103 0.61623 0.63812 0.0
C3163 C 0.17842 0.63662 0.61967 0.0
C3164 C 0.19654 0.64564 0.61235 0.0
H3165 H 0.16493 0.61425 0.63942 0.0
H3166 H 0.16359 0.64225 0.61486 0.0
C3167 C 0.21545 0.63779 0.61893 0.0
loop_
_geom_bond_atom_site_label_1
_geom_bond_atom_site_label_2
_geom_bond_distance
_geom_bond_site_symmetry_2
_ccdc_geom_bond_type
C0 O1 1.160 . S
C0 O7 1.185 . S
O1 C0 1.160 . S
O2 Zn3 1.899 . S
O2 C10 1.284 . S
Zn3 O2 1.899 . S
Zn3 O4 2.032 . S
Zn3 O7 2.086 . S
Zn3 O12 1.977 . S
O4 Zn3 2.032 . S
O4 C8 1.278 . S
C5 O6 1.203 . S
C5 O12 1.267 . S
O6 C5 1.203 . S
O7 C0 1.185 . S
O7 Zn3 2.086 . S
C8 O4 1.278 . S
C8 O9 1.211 . S
O9 C8 1.211 . S
C10 O2 1.284 . S
C10 O11 1.273 . S
O11 C10 1.273 . S
O12 Zn3 1.977 . S
O12 C5 1.267 . S
C13 O14 1.160 . S
C13 O20 1.185 . S
O14 C13 1.160 . S
O15 Zn16 1.899 . S
O15 C23 1.284 . S
Zn16 O15 1.899 . S
Zn16 O17 2.032 . S
Zn16 O20 2.086 . S
Zn16 O25 1.977 . S
O17 Zn16 2.032 . S
O17 C21 1.278 . S
C18 O19 1.203 . S
C18 O25 1.267 . S
O19 C18 1.203 . S
O20 C13 1.185 . S
O20 Zn16 2.086 . S
C21 O17 1.278 . S
C21 O22 1.211 . S
O22 C21 1.211 . S
C23 O15 1.284 . S
C23 O24 1.273 . S
O24 C23 1.273 . S
O25 Zn16 1.977 . S
O25 C18 1.267 . S
C26 O27 1.160 . S
C26 O33 1.185 . S
O27 C26 1.160 . S
O28 Zn29 1.899 . S
O28 C36 1.284 . S
Zn29 O28 1.899 . S
Zn29 O30 2.032 . S
Zn29 O33 2.086 . S
Zn29 O38 1.977 . S
O30 Zn29 2.032 . S
O30 C34 1.278 . S
C31 O32 1.203 . S
C31 O38 1.267 . S
O32 C31 1.203 . S
O33 C26 1.185 . S
O33 Zn29 2.086 . S
C34 O30 1.278 . S
C34 O35 1.211 . S
O35 C34 1.211 . S
C36 O28 1.284 . S
C36 O37 1.273 . S
O37 C36 1.273 . S
O38 Zn29 1.977 . S
O38 C31 1.267 . S
C39 O40 1.160 . S
C39 O46 1.185 . S
O40 C39 1.160 . S
O41 Zn42 1.899 . S
O41 C49 1.284 . S
Zn42 O41 1.899 . S
Zn42 O43 2.032 . S
Zn42 O46 2.086 . S
Zn42 O51 1.977 . S
O43 Zn42 2.032 . S
O43 C47 1.278 . S
C44 O45 1.203 . S
C44 O51 1.267 . S
O45 C44 1.203 . S
O46 C39 1.185 . S
O46 Zn42 2.086 . S
C47 O43 1.278 . S
C47 O48 1.211 . S
O48 C47 1.211 . S
C49 O41 1.284 . S
C49 O50 1.273 . S
O50 C49 1.273 . S
O51 Zn42 1.977 . S
O51 C44 1.267 . S
C52 O53 1.160 . S
C52 O59 1.185 . S
O53 C52 1.160 . S
O54 Zn55 1.899 . S
O54 C62 1.284 . S
Zn55 O54 1.899 . S
Zn55 O56 2.032 . S
Zn55 O59 2.086 . S
Zn55 O64 1.977 . S
O56 Zn55 2.032 . S
O56 C60 1.278 . S
C57 O58 1.203 . S
C57 O64 1.267 . S
O58 C57 1.203 . S
O59 C52 1.185 . S
O59 Zn55 2.086 . S
C60 O56 1.278 . S
C60 O61 1.211 . S
O61 C60 1.211 . S
C62 O54 1.284 . S
C62 O63 1.273 . S
O63 C62 1.273 . S
O64 Zn55 1.977 . S
O64 C57 1.267 . S
C65 O66 1.160 . S
C65 O72 1.185 . S
O66 C65 1.160 . S
O67 Zn68 1.899 . S
O67 C75 1.284 . S
Zn68 O67 1.899 . S
Zn68 O69 2.032 . S
Zn68 O72 2.086 . S
Zn68 O77 1.977 . S
O69 Zn68 2.032 . S
O69 C73 1.278 . S
C70 O71 1.203 . S
C70 O77 1.267 . S
O71 C70 1.203 . S
O72 C65 1.185 . S
O72 Zn68 2.086 . S
C73 O69 1.278 . S
C73 O74 1.211 . S
O74 C73 1.211 . S
C75 O67 1.284 . S
C75 O76 1.273 . S
O76 C75 1.273 . S
O77 Zn68 1.977 . S
O77 C70 1.267 . S
C78 O79 1.160 . S
C78 O85 1.185 . S
O79 C78 1.160 . S
O80 Zn81 1.899 . S
O80 C88 1.284 . S
Zn81 O80 1.899 . S
Zn81 O82 2.032 . S
Zn81 O85 2.086 . S
Zn81 O90 1.977 . S
O82 Zn81 2.032 . S
O82 C86 1.278 . S
C83 O84 1.203 . S
C83 O90 1.267 . S
O84 C83 1.203 . S
O85 C78 1.185 . S
O85 Zn81 2.086 . S
C86 O82 1.278 . S
C86 O87 1.211 . S
O87 C86 1.211 . S
C88 O80 1.284 . S
C88 O89 1.273 . S
O89 C88 1.273 . S
O90 Zn81 1.977 . S
O90 C83 1.267 . S
C91 O92 1.160 . S
C91 O98 1.185 . S
O92 C91 1.160 . S
O93 Zn94 1.899 . S
O93 C101 1.284 . S
Zn94 O93 1.899 . S
Zn94 O95 2.032 . S
Zn94 O98 2.086 . S
Zn94 O103 1.977 . S
O95 Zn94 2.032 . S
O95 C99 1.278 . S
C96 O97 1.203 . S
C96 O103 1.267 . S
O97 C96 1.203 . S
O98 C91 1.185 . S
O98 Zn94 2.086 . S
C99 O95 1.278 . S
C99 O100 1.211 . S
O100 C99 1.211 . S
C101 O93 1.284 . S
C101 O102 1.273 . S
O102 C101 1.273 . S
O103 Zn94 1.977 . S
O103 C96 1.267 . S
C104 O105 1.160 . S
C104 O111 1.185 . S
O105 C104 1.160 . S
O106 Zn107 1.899 . S
O106 C114 1.284 . S
Zn107 O106 1.899 . S
Zn107 O108 2.032 . S
Zn107 O111 2.086 . S
Zn107 O116 1.977 . S
O108 Zn107 2.032 . S
O108 C112 1.278 . S
C109 O110 1.203 . S
C109 O116 1.267 . S
O110 C109 1.203 . S
O111 C104 1.185 . S
O111 Zn107 2.086 . S
C112 O108 1.278 . S
C112 O113 1.211 . S
O113 C112 1.211 . S
C114 O106 1.284 . S
C114 O115 1.273 . S
O115 C114 1.273 . S
O116 Zn107 1.977 . S
O116 C109 1.267 . S
C117 O118 1.160 . S
C117 O124 1.185 . S
O118 C117 1.160 . S
O119 Zn120 1.899 . S
O119 C127 1.284 . S
Zn120 O119 1.899 . S
Zn120 O121 2.032 . S
Zn120 O124 2.086 . S
Zn120 O129 1.977 . S
O121 Zn120 2.032 . S
O121 C125 1.278 . S
C122 O123 1.203 . S
C122 O129 1.267 . S
O123 C122 1.203 . S
O124 C117 1.185 . S
O124 Zn120 2.086 . S
C125 O121 1.278 . S
C125 O126 1.211 . S
O126 C125 1.211 . S
C127 O119 1.284 . S
C127 O128 1.273 . S
O128 C127 1.273 . S
O129 Zn120 1.977 . S
O129 C122 1.267 . S
C130 O131 1.160 . S
C130 O137 1.185 . S
O131 C130 1.160 . S
O132 Zn133 1.899 . S
O132 C140 1.284 . S
Zn133 O132 1.899 . S
Zn133 O134 2.032 . S
Zn133 O137 2.086 . S
Zn133 O142 1.977 . S
O134 Zn133 2.032 . S
O134 C138 1.278 . S
C135 O136 1.203 . S
C135 O142 1.267 . S
O136 C135 1.203 . S
O137 C130 1.185 . S
O137 Zn133 2.086 . S
C138 O134 1.278 . S
C138 O139 1.211 . S
O139 C138 1.211 . S
C140 O132 1.284 . S
C140 O141 1.273 . S
O141 C140 1.273 . S
O142 Zn133 1.977 . S
O142 C135 1.267 . S
C143 O144 1.160 . S
C143 O150 1.185 . S
O144 C143 1.160 . S
O145 Zn146 1.899 . S
O145 C153 1.284 . S
Zn146 O145 1.899 . S
Zn146 O147 2.032 . S
Zn146 O150 2.086 . S
Zn146 O155 1.977 . S
O147 Zn146 2.032 . S
O147 C151 1.278 . S
C148 O149 1.203 . S
C148 O155 1.267 . S
O149 C148 1.203 . S
O150 C143 1.185 . S
O150 Zn146 2.086 . S
C151 O147 1.278 . S
C151 O152 1.211 . S
O152 C151 1.211 . S
C153 O145 1.284 . S
C153 O154 1.273 . S
O154 C153 1.273 . S
O155 Zn146 1.977 . S
O155 C148 1.267 . S
C156 O157 1.160 . S
C156 O163 1.185 . S
O157 C156 1.160 . S
O158 Zn159 1.899 . S
O158 C166 1.284 . S
Zn159 O158 1.899 . S
Zn159 O160 2.032 . S
Zn159 O163 2.086 . S
Zn159 O168 1.977 . S
O160 Zn159 2.032 . S
O160 C164 1.278 . S
C161 O162 1.203 . S
C161 O168 1.267 . S
O162 C161 1.203 . S
O163 C156 1.185 . S
O163 Zn159 2.086 . S
C164 O160 1.278 . S
C164 O165 1.211 . S
O165 C164 1.211 . S
C166 O158 1.284 . S
C166 O167 1.273 . S
O167 C166 1.273 . S
O168 Zn159 1.977 . S
O168 C161 1.267 . S
C169 O170 1.160 . S
C169 O176 1.185 . S
O170 C169 1.160 . S
O171 Zn172 1.899 . S
O171 C179 1.284 . S
Zn172 O171 1.899 . S
Zn172 O173 2.032 . S
Zn172 O176 2.086 . S
Zn172 O181 1.977 . S
O173 Zn172 2.032 . S
O173 C177 1.278 . S
C174 O175 1.203 . S
C174 O181 1.267 . S
O175 C174 1.203 . S
O176 C169 1.185 . S
O176 Zn172 2.086 . S
C177 O173 1.278 . S
C177 O178 1.211 . S
O178 C177 1.211 . S
C179 O171 1.284 . S
C179 O180 1.273 . S
O180 C179 1.273 . S
O181 Zn172 1.977 . S
O181 C174 1.267 . S
C182 O183 1.160 . S
C182 O189 1.185 . S
O183 C182 1.160 . S
O184 Zn185 1.899 . S
O184 C192 1.284 . S
Zn185 O184 1.899 . S
Zn185 O186 2.032 . S
Zn185 O189 2.086 . S
Zn185 O194 1.977 . S
O186 Zn185 2.032 . S
O186 C190 1.278 . S
C187 O188 1.203 . S
C187 O194 1.267 . S
O188 C187 1.203 . S
O189 C182 1.185 . S
O189 Zn185 2.086 . S
C190 O186 1.278 . S
C190 O191 1.211 . S
O191 C190 1.211 . S
C192 O184 1.284 . S
C192 O193 1.273 . S
O193 C192 1.273 . S
O194 Zn185 1.977 . S
O194 C187 1.267 . S
C195 O196 1.160 . S
C195 O202 1.185 . S
O196 C195 1.160 . S
O197 Zn198 1.899 . S
O197 C205 1.284 . S
Zn198 O197 1.899 . S
Zn198 O199 2.032 . S
Zn198 O202 2.086 . S
Zn198 O207 1.977 . S
O199 Zn198 2.032 . S
O199 C203 1.278 . S
C200 O201 1.203 . S
C200 O207 1.267 . S
O201 C200 1.203 . S
O202 C195 1.185 . S
O202 Zn198 2.086 . S
C203 O199 1.278 . S
C203 O204 1.211 . S
O204 C203 1.211 . S
C205 O197 1.284 . S
C205 O206 1.273 . S
O206 C205 1.273 . S
O207 Zn198 1.977 . S
O207 C200 1.267 . S
C208 O209 1.160 . S
C208 O215 1.185 . S
O209 C208 1.160 . S
O210 Zn211 1.899 . S
O210 C218 1.284 . S
Zn211 O210 1.899 . S
Zn211 O212 2.032 . S
Zn211 O215 2.086 . S
Zn211 O220 1.977 . S
O212 Zn211 2.032 . S
O212 C216 1.278 . S
C213 O214 1.203 . S
C213 O220 1.267 . S
O214 C213 1.203 . S
O215 C208 1.185 . S
O215 Zn211 2.086 . S
C216 O212 1.278 . S
C216 O217 1.211 . S
O217 C216 1.211 . S
C218 O210 1.284 . S
C218 O219 1.273 . S
O219 C218 1.273 . S
O220 Zn211 1.977 . S
O220 C213 1.267 . S
C221 O222 1.160 . S
C221 O228 1.185 . S
O222 C221 1.160 . S
O223 Zn224 1.899 . S
O223 C231 1.284 . S
Zn224 O223 1.899 . S
Zn224 O225 2.032 . S
Zn224 O228 2.086 . S
Zn224 O233 1.977 . S
O225 Zn224 2.032 . S
O225 C229 1.278 . S
C226 O227 1.203 . S
C226 O233 1.267 . S
O227 C226 1.203 . S
O228 C221 1.185 . S
O228 Zn224 2.086 . S
C229 O225 1.278 . S
C229 O230 1.211 . S
O230 C229 1.211 . S
C231 O223 1.284 . S
C231 O232 1.273 . S
O232 C231 1.273 . S
O233 Zn224 1.977 . S
O233 C226 1.267 . S
C234 O235 1.160 . S
C234 O241 1.185 . S
O235 C234 1.160 . S
O236 Zn237 1.899 . S
O236 C244 1.284 . S
Zn237 O236 1.899 . S
Zn237 O238 2.032 . S
Zn237 O241 2.086 . S
Zn237 O246 1.977 . S
O238 Zn237 2.032 . S
O238 C242 1.278 . S
C239 O240 1.203 . S
C239 O246 1.267 . S
O240 C239 1.203 . S
O241 C234 1.185 . S
O241 Zn237 2.086 . S
C242 O238 1.278 . S
C242 O243 1.211 . S
O243 C242 1.211 . S
C244 O236 1.284 . S
C244 O245 1.273 . S
O245 C244 1.273 . S
O246 Zn237 1.977 . S
O246 C239 1.267 . S
C247 O248 1.160 . S
C247 O254 1.185 . S
O248 C247 1.160 . S
O249 Zn250 1.899 . S
O249 C257 1.284 . S
Zn250 O249 1.899 . S
Zn250 O251 2.032 . S
Zn250 O254 2.086 . S
Zn250 O259 1.977 . S
O251 Zn250 2.032 . S
O251 C255 1.278 . S
C252 O253 1.203 . S
C252 O259 1.267 . S
O253 C252 1.203 . S
O254 C247 1.185 . S
O254 Zn250 2.086 . S
C255 O251 1.278 . S
C255 O256 1.211 . S
O256 C255 1.211 . S
C257 O249 1.284 . S
C257 O258 1.273 . S
O258 C257 1.273 . S
O259 Zn250 1.977 . S
O259 C252 1.267 . S
C260 O261 1.160 . S
C260 O267 1.185 . S
O261 C260 1.160 . S
O262 Zn263 1.899 . S
O262 C270 1.284 . S
Zn263 O262 1.899 . S
Zn263 O264 2.032 . S
Zn263 O267 2.086 . S
Zn263 O272 1.977 . S
O264 Zn263 2.032 . S
O264 C268 1.278 . S
C265 O266 1.203 . S
C265 O272 1.267 . S
O266 C265 1.203 . S
O267 C260 1.185 . S
O267 Zn263 2.086 . S
C268 O264 1.278 . S
C268 O269 1.211 . S
O269 C268 1.211 . S
C270 O262 1.284 . S
C270 O271 1.273 . S
O271 C270 1.273 . S
O272 Zn263 1.977 . S
O272 C265 1.267 . S
C273 O274 1.160 . S
C273 O280 1.185 . S
O274 C273 1.160 . S
O275 Zn276 1.899 . S
O275 C283 1.284 . S
Zn276 O275 1.899 . S
Zn276 O277 2.032 . S
Zn276 O280 2.086 . S
Zn276 O285 1.977 . S
O277 Zn276 2.032 . S
O277 C281 1.278 . S
C278 O279 1.203 . S
C278 O285 1.267 . S
O279 C278 1.203 . S
O280 C273 1.185 . S
O280 Zn276 2.086 . S
C281 O277 1.278 . S
C281 O282 1.211 . S
O282 C281 1.211 . S
C283 O275 1.284 . S
C283 O284 1.273 . S
O284 C283 1.273 . S
O285 Zn276 1.977 . S
O285 C278 1.267 . S
C286 O287 1.160 . S
C286 O293 1.185 . S
O287 C286 1.160 . S
O288 Zn289 1.899 . S
O288 C296 1.284 . S
Zn289 O288 1.899 . S
Zn289 O290 2.032 . S
Zn289 O293 2.086 . S
Zn289 O298 1.977 . S
O290 Zn289 2.032 . S
O290 C294 1.278 . S
C291 O292 1.203 . S
C291 O298 1.267 . S
O292 C291 1.203 . S
O293 C286 1.185 . S
O293 Zn289 2.086 . S
C294 O290 1.278 . S
C294 O295 1.211 . S
O295 C294 1.211 . S
C296 O288 1.284 . S
C296 O297 1.273 . S
O297 C296 1.273 . S
O298 Zn289 1.977 . S
O298 C291 1.267 . S
C299 O300 1.160 . S
C299 O306 1.185 . S
O300 C299 1.160 . S
O301 Zn302 1.899 . S
O301 C309 1.284 . S
Zn302 O301 1.899 . S
Zn302 O303 2.032 . S
Zn302 O306 2.086 . S
Zn302 O311 1.977 . S
O303 Zn302 2.032 . S
O303 C307 1.278 . S
C304 O305 1.203 . S
C304 O311 1.267 . S
O305 C304 1.203 . S
O306 C299 1.185 . S
O306 Zn302 2.086 . S
C307 O303 1.278 . S
C307 O308 1.211 . S
O308 C307 1.211 . S
C309 O301 1.284 . S
C309 O310 1.273 . S
O310 C309 1.273 . S
O311 Zn302 1.977 . S
O311 C304 1.267 . S
C312 O313 1.160 . S
C312 O319 1.185 . S
O313 C312 1.160 . S
O314 Zn315 1.899 . S
O314 C322 1.284 . S
Zn315 O314 1.899 . S
Zn315 O316 2.032 . S
Zn315 O319 2.086 . S
Zn315 O324 1.977 . S
O316 Zn315 2.032 . S
O316 C320 1.278 . S
C317 O318 1.203 . S
C317 O324 1.267 . S
O318 C317 1.203 . S
O319 C312 1.185 . S
O319 Zn315 2.086 . S
C320 O316 1.278 . S
C320 O321 1.211 . S
O321 C320 1.211 . S
C322 O314 1.284 . S
C322 O323 1.273 . S
O323 C322 1.273 . S
O324 Zn315 1.977 . S
O324 C317 1.267 . S
C325 O326 1.160 . S
C325 O332 1.185 . S
O326 C325 1.160 . S
O327 Zn328 1.899 . S
O327 C335 1.284 . S
Zn328 O327 1.899 . S
Zn328 O329 2.032 . S
Zn328 O332 2.086 . S
Zn328 O337 1.977 . S
O329 Zn328 2.032 . S
O329 C333 1.278 . S
C330 O331 1.203 . S
C330 O337 1.267 . S
O331 C330 1.203 . S
O332 C325 1.185 . S
O332 Zn328 2.086 . S
C333 O329 1.278 . S
C333 O334 1.211 . S
O334 C333 1.211 . S
C335 O327 1.284 . S
C335 O336 1.273 . S
O336 C335 1.273 . S
O337 Zn328 1.977 . S
O337 C330 1.267 . S
C338 O339 1.160 . S
C338 O345 1.185 . S
O339 C338 1.160 . S
O340 Zn341 1.899 . S
O340 C348 1.284 . S
Zn341 O340 1.899 . S
Zn341 O342 2.032 . S
Zn341 O345 2.086 . S
Zn341 O350 1.977 . S
O342 Zn341 2.032 . S
O342 C346 1.278 . S
C343 O344 1.203 . S
C343 O350 1.267 . S
O344 C343 1.203 . S
O345 C338 1.185 . S
O345 Zn341 2.086 . S
C346 O342 1.278 . S
C346 O347 1.211 . S
O347 C346 1.211 . S
C348 O340 1.284 . S
C348 O349 1.273 . S
O349 C348 1.273 . S
O350 Zn341 1.977 . S
O350 C343 1.267 . S
C351 O352 1.160 . S
C351 O358 1.185 . S
O352 C351 1.160 . S
O353 Zn354 1.899 . S
O353 C361 1.284 . S
Zn354 O353 1.899 . S
Zn354 O355 2.032 . S
Zn354 O358 2.086 . S
Zn354 O363 1.977 . S
O355 Zn354 2.032 . S
O355 C359 1.278 . S
C356 O357 1.203 . S
C356 O363 1.267 . S
O357 C356 1.203 . S
O358 C351 1.185 . S
O358 Zn354 2.086 . S
C359 O355 1.278 . S
C359 O360 1.211 . S
O360 C359 1.211 . S
C361 O353 1.284 . S
C361 O362 1.273 . S
O362 C361 1.273 . S
O363 Zn354 1.977 . S
O363 C356 1.267 . S
C364 O365 1.160 . S
C364 O371 1.185 . S
O365 C364 1.160 . S
O366 Zn367 1.899 . S
O366 C374 1.284 . S
Zn367 O366 1.899 . S
Zn367 O368 2.032 . S
Zn367 O371 2.086 . S
Zn367 O376 1.977 . S
O368 Zn367 2.032 . S
O368 C372 1.278 . S
C369 O370 1.203 . S
C369 O376 1.267 . S
O370 C369 1.203 . S
O371 C364 1.185 . S
O371 Zn367 2.086 . S
C372 O368 1.278 . S
C372 O373 1.211 . S
O373 C372 1.211 . S
C374 O366 1.284 . S
C374 O375 1.273 . S
O375 C374 1.273 . S
O376 Zn367 1.977 . S
O376 C369 1.267 . S
C377 O378 1.160 . S
C377 O384 1.185 . S
O378 C377 1.160 . S
O379 Zn380 1.899 . S
O379 C387 1.284 . S
Zn380 O379 1.899 . S
Zn380 O381 2.032 . S
Zn380 O384 2.086 . S
Zn380 O389 1.977 . S
O381 Zn380 2.032 . S
O381 C385 1.278 . S
C382 O383 1.203 . S
C382 O389 1.267 . S
O383 C382 1.203 . S
O384 C377 1.185 . S
O384 Zn380 2.086 . S
C385 O381 1.278 . S
C385 O386 1.211 . S
O386 C385 1.211 . S
C387 O379 1.284 . S
C387 O388 1.273 . S
O388 C387 1.273 . S
O389 Zn380 1.977 . S
O389 C382 1.267 . S
C390 O391 1.160 . S
C390 O397 1.185 . S
O391 C390 1.160 . S
O392 Zn393 1.899 . S
O392 C400 1.284 . S
Zn393 O392 1.899 . S
Zn393 O394 2.032 . S
Zn393 O397 2.086 . S
Zn393 O402 1.977 . S
O394 Zn393 2.032 . S
O394 C398 1.278 . S
C395 O396 1.203 . S
C395 O402 1.267 . S
O396 C395 1.203 . S
O397 C390 1.185 . S
O397 Zn393 2.086 . S
C398 O394 1.278 . S
C398 O399 1.211 . S
O399 C398 1.211 . S
C400 O392 1.284 . S
C400 O401 1.273 . S
O401 C400 1.273 . S
O402 Zn393 1.977 . S
O402 C395 1.267 . S
C403 O404 1.160 . S
C403 O410 1.185 . S
O404 C403 1.160 . S
O405 Zn406 1.899 . S
O405 C413 1.284 . S
Zn406 O405 1.899 . S
Zn406 O407 2.032 . S
Zn406 O410 2.086 . S
Zn406 O415 1.977 . S
O407 Zn406 2.032 . S
O407 C411 1.278 . S
C408 O409 1.203 . S
C408 O415 1.267 . S
O409 C408 1.203 . S
O410 C403 1.185 . S
O410 Zn406 2.086 . S
C411 O407 1.278 . S
C411 O412 1.211 . S
O412 C411 1.211 . S
C413 O405 1.284 . S
C413 O414 1.273 . S
O414 C413 1.273 . S
O415 Zn406 1.977 . S
O415 C408 1.267 . S
C416 O417 1.160 . S
C416 O423 1.185 . S
O417 C416 1.160 . S
O418 Zn419 1.899 . S
O418 C426 1.284 . S
Zn419 O418 1.899 . S
Zn419 O420 2.032 . S
Zn419 O423 2.086 . S
Zn419 O428 1.977 . S
O420 Zn419 2.032 . S
O420 C424 1.278 . S
C421 O422 1.203 . S
C421 O428 1.267 . S
O422 C421 1.203 . S
O423 C416 1.185 . S
O423 Zn419 2.086 . S
C424 O420 1.278 . S
C424 O425 1.211 . S
O425 C424 1.211 . S
C426 O418 1.284 . S
C426 O427 1.273 . S
O427 C426 1.273 . S
O428 Zn419 1.977 . S
O428 C421 1.267 . S
C429 O430 1.160 . S
C429 O436 1.185 . S
O430 C429 1.160 . S
O431 Zn432 1.899 . S
O431 C439 1.284 . S
Zn432 O431 1.899 . S
Zn432 O433 2.032 . S
Zn432 O436 2.086 . S
Zn432 O441 1.977 . S
O433 Zn432 2.032 . S
O433 C437 1.278 . S
C434 O435 1.203 . S
C434 O441 1.267 . S
O435 C434 1.203 . S
O436 C429 1.185 . S
O436 Zn432 2.086 . S
C437 O433 1.278 . S
C437 O438 1.211 . S
O438 C437 1.211 . S
C439 O431 1.284 . S
C439 O440 1.273 . S
O440 C439 1.273 . S
O441 Zn432 1.977 . S
O441 C434 1.267 . S
C442 O443 1.160 . S
C442 O449 1.185 . S
O443 C442 1.160 . S
O444 Zn445 1.899 . S
O444 C452 1.284 . S
Zn445 O444 1.899 . S
Zn445 O446 2.032 . S
Zn445 O449 2.086 . S
Zn445 O454 1.977 . S
O446 Zn445 2.032 . S
O446 C450 1.278 . S
C447 O448 1.203 . S
C447 O454 1.267 . S
O448 C447 1.203 . S
O449 C442 1.185 . S
O449 Zn445 2.086 . S
C450 O446 1.278 . S
C450 O451 1.211 . S
O451 C450 1.211 . S
C452 O444 1.284 . S
C452 O453 1.273 . S
O453 C452 1.273 . S
O454 Zn445 1.977 . S
O454 C447 1.267 . S
C455 O456 1.160 . S
C455 O462 1.185 . S
O456 C455 1.160 . S
O457 Zn458 1.899 . S
O457 C465 1.284 . S
Zn458 O457 1.899 . S
Zn458 O459 2.032 . S
Zn458 O462 2.086 . S
Zn458 O467 1.977 . S
O459 Zn458 2.032 . S
O459 C463 1.278 . S
C460 O461 1.203 . S
C460 O467 1.267 . S
O461 C460 1.203 . S
O462 C455 1.185 . S
O462 Zn458 2.086 . S
C463 O459 1.278 . S
C463 O464 1.211 . S
O464 C463 1.211 . S
C465 O457 1.284 . S
C465 O466 1.273 . S
O466 C465 1.273 . S
O467 Zn458 1.977 . S
O467 C460 1.267 . S
C468 O469 1.160 . S
C468 O475 1.185 . S
O469 C468 1.160 . S
O470 Zn471 1.899 . S
O470 C478 1.284 . S
Zn471 O470 1.899 . S
Zn471 O472 2.032 . S
Zn471 O475 2.086 . S
Zn471 O480 1.977 . S
O472 Zn471 2.032 . S
O472 C476 1.278 . S
C473 O474 1.203 . S
C473 O480 1.267 . S
O474 C473 1.203 . S
O475 C468 1.185 . S
O475 Zn471 2.086 . S
C476 O472 1.278 . S
C476 O477 1.211 . S
O477 C476 1.211 . S
C478 O470 1.284 . S
C478 O479 1.273 . S
O479 C478 1.273 . S
O480 Zn471 1.977 . S
O480 C473 1.267 . S
C481 O482 1.160 . S
C481 O488 1.185 . S
O482 C481 1.160 . S
O483 Zn484 1.899 . S
O483 C491 1.284 . S
Zn484 O483 1.899 . S
Zn484 O485 2.032 . S
Zn484 O488 2.086 . S
Zn484 O493 1.977 . S
O485 Zn484 2.032 . S
O485 C489 1.278 . S
C486 O487 1.203 . S
C486 O493 1.267 . S
O487 C486 1.203 . S
O488 C481 1.185 . S
O488 Zn484 2.086 . S
C489 O485 1.278 . S
C489 O490 1.211 . S
O490 C489 1.211 . S
C491 O483 1.284 . S
C491 O492 1.273 . S
O492 C491 1.273 . S
O493 Zn484 1.977 . S
O493 C486 1.267 . S
C494 O495 1.160 . S
C494 O501 1.185 . S
O495 C494 1.160 . S
O496 Zn497 1.899 . S
O496 C504 1.284 . S
Zn497 O496 1.899 . S
Zn497 O498 2.032 . S
Zn497 O501 2.086 . S
Zn497 O506 1.977 . S
O498 Zn497 2.032 . S
O498 C502 1.278 . S
C499 O500 1.203 . S
C499 O506 1.267 . S
O500 C499 1.203 . S
O501 C494 1.185 . S
O501 Zn497 2.086 . S
C502 O498 1.278 . S
C502 O503 1.211 . S
O503 C502 1.211 . S
C504 O496 1.284 . S
C504 O505 1.273 . S
O505 C504 1.273 . S
O506 Zn497 1.977 . S
O506 C499 1.267 . S
C507 O508 1.160 . S
C507 O514 1.185 . S
O508 C507 1.160 . S
O509 Zn510 1.899 . S
O509 C517 1.284 . S
Zn510 O509 1.899 . S
Zn510 O511 2.032 . S
Zn510 O514 2.086 . S
Zn510 O519 1.977 . S
O511 Zn510 2.032 . S
O511 C515 1.278 . S
C512 O513 1.203 . S
C512 O519 1.267 . S
O513 C512 1.203 . S
O514 C507 1.185 . S
O514 Zn510 2.086 . S
C515 O511 1.278 . S
C515 O516 1.211 . S
O516 C515 1.211 . S
C517 O509 1.284 . S
C517 O518 1.273 . S
O518 C517 1.273 . S
O519 Zn510 1.977 . S
O519 C512 1.267 . S
C520 O521 1.160 . S
C520 O527 1.185 . S
O521 C520 1.160 . S
O522 Zn523 1.899 . S
O522 C530 1.284 . S
Zn523 O522 1.899 . S
Zn523 O524 2.032 . S
Zn523 O527 2.086 . S
Zn523 O532 1.977 . S
O524 Zn523 2.032 . S
O524 C528 1.278 . S
C525 O526 1.203 . S
C525 O532 1.267 . S
O526 C525 1.203 . S
O527 C520 1.185 . S
O527 Zn523 2.086 . S
C528 O524 1.278 . S
C528 O529 1.211 . S
O529 C528 1.211 . S
C530 O522 1.284 . S
C530 O531 1.273 . S
O531 C530 1.273 . S
O532 Zn523 1.977 . S
O532 C525 1.267 . S
C533 O534 1.160 . S
C533 O540 1.185 . S
O534 C533 1.160 . S
O535 Zn536 1.899 . S
O535 C543 1.284 . S
Zn536 O535 1.899 . S
Zn536 O537 2.032 . S
Zn536 O540 2.086 . S
Zn536 O545 1.977 . S
O537 Zn536 2.032 . S
O537 C541 1.278 . S
C538 O539 1.203 . S
C538 O545 1.267 . S
O539 C538 1.203 . S
O540 C533 1.185 . S
O540 Zn536 2.086 . S
C541 O537 1.278 . S
C541 O542 1.211 . S
O542 C541 1.211 . S
C543 O535 1.284 . S
C543 O544 1.273 . S
O544 C543 1.273 . S
O545 Zn536 1.977 . S
O545 C538 1.267 . S
C546 O547 1.160 . S
C546 O553 1.185 . S
O547 C546 1.160 . S
O548 Zn549 1.899 . S
O548 C556 1.284 . S
Zn549 O548 1.899 . S
Zn549 O550 2.032 . S
Zn549 O553 2.086 . S
Zn549 O558 1.977 . S
O550 Zn549 2.032 . S
O550 C554 1.278 . S
C551 O552 1.203 . S
C551 O558 1.267 . S
O552 C551 1.203 . S
O553 C546 1.185 . S
O553 Zn549 2.086 . S
C554 O550 1.278 . S
C554 O555 1.211 . S
O555 C554 1.211 . S
C556 O548 1.284 . S
C556 O557 1.273 . S
O557 C556 1.273 . S
O558 Zn549 1.977 . S
O558 C551 1.267 . S
C559 O560 1.160 . S
C559 O566 1.185 . S
O560 C559 1.160 . S
O561 Zn562 1.899 . S
O561 C569 1.284 . S
Zn562 O561 1.899 . S
Zn562 O563 2.032 . S
Zn562 O566 2.086 . S
Zn562 O571 1.977 . S
O563 Zn562 2.032 . S
O563 C567 1.278 . S
C564 O565 1.203 . S
C564 O571 1.267 . S
O565 C564 1.203 . S
O566 C559 1.185 . S
O566 Zn562 2.086 . S
C567 O563 1.278 . S
C567 O568 1.211 . S
O568 C567 1.211 . S
C569 O561 1.284 . S
C569 O570 1.273 . S
O570 C569 1.273 . S
O571 Zn562 1.977 . S
O571 C564 1.267 . S
C572 O573 1.160 . S
C572 O579 1.185 . S
O573 C572 1.160 . S
O574 Zn575 1.899 . S
O574 C582 1.284 . S
Zn575 O574 1.899 . S
Zn575 O576 2.032 . S
Zn575 O579 2.086 . S
Zn575 O584 1.977 . S
O576 Zn575 2.032 . S
O576 C580 1.278 . S
C577 O578 1.203 . S
C577 O584 1.267 . S
O578 C577 1.203 . S
O579 C572 1.185 . S
O579 Zn575 2.086 . S
C580 O576 1.278 . S
C580 O581 1.211 . S
O581 C580 1.211 . S
C582 O574 1.284 . S
C582 O583 1.273 . S
O583 C582 1.273 . S
O584 Zn575 1.977 . S
O584 C577 1.267 . S
C585 O586 1.160 . S
C585 O592 1.185 . S
O586 C585 1.160 . S
O587 Zn588 1.899 . S
O587 C595 1.284 . S
Zn588 O587 1.899 . S
Zn588 O589 2.032 . S
Zn588 O592 2.086 . S
Zn588 O597 1.977 . S
O589 Zn588 2.032 . S
O589 C593 1.278 . S
C590 O591 1.203 . S
C590 O597 1.267 . S
O591 C590 1.203 . S
O592 C585 1.185 . S
O592 Zn588 2.086 . S
C593 O589 1.278 . S
C593 O594 1.211 . S
O594 C593 1.211 . S
C595 O587 1.284 . S
C595 O596 1.273 . S
O596 C595 1.273 . S
O597 Zn588 1.977 . S
O597 C590 1.267 . S
C598 O599 1.160 . S
C598 O605 1.185 . S
O599 C598 1.160 . S
O600 Zn601 1.899 . S
O600 C608 1.284 . S
Zn601 O600 1.899 . S
Zn601 O602 2.032 . S
Zn601 O605 2.086 . S
Zn601 O610 1.977 . S
O602 Zn601 2.032 . S
O602 C606 1.278 . S
C603 O604 1.203 . S
C603 O610 1.267 . S
O604 C603 1.203 . S
O605 C598 1.185 . S
O605 Zn601 2.086 . S
C606 O602 1.278 . S
C606 O607 1.211 . S
O607 C606 1.211 . S
C608 O600 1.284 . S
C608 O609 1.273 . S
O609 C608 1.273 . S
O610 Zn601 1.977 . S
O610 C603 1.267 . S
C611 O612 1.160 . S
C611 O618 1.185 . S
O612 C611 1.160 . S
O613 Zn614 1.899 . S
O613 C621 1.284 . S
Zn614 O613 1.899 . S
Zn614 O615 2.032 . S
Zn614 O618 2.086 . S
Zn614 O623 1.977 . S
O615 Zn614 2.032 . S
O615 C619 1.278 . S
C616 O617 1.203 . S
C616 O623 1.267 . S
O617 C616 1.203 . S
O618 C611 1.185 . S
O618 Zn614 2.086 . S
C619 O615 1.278 . S
C619 O620 1.211 . S
O620 C619 1.211 . S
C621 O613 1.284 . S
C621 O622 1.273 . S
O622 C621 1.273 . S
O623 Zn614 1.977 . S
O623 C616 1.267 . S
C624 O625 1.160 . S
C624 O631 1.185 . S
O625 C624 1.160 . S
O626 Zn627 1.899 . S
O626 C634 1.284 . S
Zn627 O626 1.899 . S
Zn627 O628 2.032 . S
Zn627 O631 2.086 . S
Zn627 O636 1.977 . S
O628 Zn627 2.032 . S
O628 C632 1.278 . S
C629 O630 1.203 . S
C629 O636 1.267 . S
O630 C629 1.203 . S
O631 C624 1.185 . S
O631 Zn627 2.086 . S
C632 O628 1.278 . S
C632 O633 1.211 . S
O633 C632 1.211 . S
C634 O626 1.284 . S
C634 O635 1.273 . S
O635 C634 1.273 . S
O636 Zn627 1.977 . S
O636 C629 1.267 . S
C637 O638 1.160 . S
C637 O644 1.185 . S
O638 C637 1.160 . S
O639 Zn640 1.899 . S
O639 C647 1.284 . S
Zn640 O639 1.899 . S
Zn640 O641 2.032 . S
Zn640 O644 2.086 . S
Zn640 O649 1.977 . S
O641 Zn640 2.032 . S
O641 C645 1.278 . S
C642 O643 1.203 . S
C642 O649 1.267 . S
O643 C642 1.203 . S
O644 C637 1.185 . S
O644 Zn640 2.086 . S
C645 O641 1.278 . S
C645 O646 1.211 . S
O646 C645 1.211 . S
C647 O639 1.284 . S
C647 O648 1.273 . S
O648 C647 1.273 . S
O649 Zn640 1.977 . S
O649 C642 1.267 . S
C650 O651 1.160 . S
C650 O657 1.185 . S
O651 C650 1.160 . S
O652 Zn653 1.899 . S
O652 C660 1.284 . S
Zn653 O652 1.899 . S
Zn653 O654 2.032 . S
Zn653 O657 2.086 . S
Zn653 O662 1.977 . S
O654 Zn653 2.032 . S
O654 C658 1.278 . S
C655 O656 1.203 . S
C655 O662 1.267 . S
O656 C655 1.203 . S
O657 C650 1.185 . S
O657 Zn653 2.086 . S
C658 O654 1.278 . S
C658 O659 1.211 . S
O659 C658 1.211 . S
C660 O652 1.284 . S
C660 O661 1.273 . S
O661 C660 1.273 . S
O662 Zn653 1.977 . S
O662 C655 1.267 . S
C663 O664 1.160 . S
C663 O670 1.185 . S
O664 C663 1.160 . S
O665 Zn666 1.899 . S
O665 C673 1.284 . S
Zn666 O665 1.899 . S
Zn666 O667 2.032 . S
Zn666 O670 2.086 . S
Zn666 O675 1.977 . S
O667 Zn666 2.032 . S
O667 C671 1.278 . S
C668 O669 1.203 . S
C668 O675 1.267 . S
O669 C668 1.203 . S
O670 C663 1.185 . S
O670 Zn666 2.086 . S
C671 O667 1.278 . S
C671 O672 1.211 . S
O672 C671 1.211 . S
C673 O665 1.284 . S
C673 O674 1.273 . S
O674 C673 1.273 . S
O675 Zn666 1.977 . S
O675 C668 1.267 . S
C676 O677 1.160 . S
C676 O683 1.185 . S
O677 C676 1.160 . S
O678 Zn679 1.899 . S
O678 C686 1.284 . S
Zn679 O678 1.899 . S
Zn679 O680 2.032 . S
Zn679 O683 2.086 . S
Zn679 O688 1.977 . S
O680 Zn679 2.032 . S
O680 C684 1.278 . S
C681 O682 1.203 . S
C681 O688 1.267 . S
O682 C681 1.203 . S
O683 C676 1.185 . S
O683 Zn679 2.086 . S
C684 O680 1.278 . S
C684 O685 1.211 . S
O685 C684 1.211 . S
C686 O678 1.284 . S
C686 O687 1.273 . S
O687 C686 1.273 . S
O688 Zn679 1.977 . S
O688 C681 1.267 . S
C689 O690 1.160 . S
C689 O696 1.185 . S
O690 C689 1.160 . S
O691 Zn692 1.899 . S
O691 C699 1.284 . S
Zn692 O691 1.899 . S
Zn692 O693 2.032 . S
Zn692 O696 2.086 . S
Zn692 O701 1.977 . S
O693 Zn692 2.032 . S
O693 C697 1.278 . S
C694 O695 1.203 . S
C694 O701 1.267 . S
O695 C694 1.203 . S
O696 C689 1.185 . S
O696 Zn692 2.086 . S
C697 O693 1.278 . S
C697 O698 1.211 . S
O698 C697 1.211 . S
C699 O691 1.284 . S
C699 O700 1.273 . S
O700 C699 1.273 . S
O701 Zn692 1.977 . S
O701 C694 1.267 . S
C702 O703 1.160 . S
C702 O709 1.185 . S
O703 C702 1.160 . S
O704 Zn705 1.899 . S
O704 C712 1.284 . S
Zn705 O704 1.899 . S
Zn705 O706 2.032 . S
Zn705 O709 2.086 . S
Zn705 O714 1.977 . S
O706 Zn705 2.032 . S
O706 C710 1.278 . S
C707 O708 1.203 . S
C707 O714 1.267 . S
O708 C707 1.203 . S
O709 C702 1.185 . S
O709 Zn705 2.086 . S
C710 O706 1.278 . S
C710 O711 1.211 . S
O711 C710 1.211 . S
C712 O704 1.284 . S
C712 O713 1.273 . S
O713 C712 1.273 . S
O714 Zn705 1.977 . S
O714 C707 1.267 . S
C715 O716 1.160 . S
C715 O722 1.185 . S
O716 C715 1.160 . S
O717 Zn718 1.899 . S
O717 C725 1.284 . S
Zn718 O717 1.899 . S
Zn718 O719 2.032 . S
Zn718 O722 2.086 . S
Zn718 O727 1.977 . S
O719 Zn718 2.032 . S
O719 C723 1.278 . S
C720 O721 1.203 . S
C720 O727 1.267 . S
O721 C720 1.203 . S
O722 C715 1.185 . S
O722 Zn718 2.086 . S
C723 O719 1.278 . S
C723 O724 1.211 . S
O724 C723 1.211 . S
C725 O717 1.284 . S
C725 O726 1.273 . S
O726 C725 1.273 . S
O727 Zn718 1.977 . S
O727 C720 1.267 . S
C728 O729 1.160 . S
C728 O735 1.185 . S
O729 C728 1.160 . S
O730 Zn731 1.899 . S
O730 C738 1.284 . S
Zn731 O730 1.899 . S
Zn731 O732 2.032 . S
Zn731 O735 2.086 . S
Zn731 O740 1.977 . S
O732 Zn731 2.032 . S
O732 C736 1.278 . S
C733 O734 1.203 . S
C733 O740 1.267 . S
O734 C733 1.203 . S
O735 C728 1.185 . S
O735 Zn731 2.086 . S
C736 O732 1.278 . S
C736 O737 1.211 . S
O737 C736 1.211 . S
C738 O730 1.284 . S
C738 O739 1.273 . S
O739 C738 1.273 . S
O740 Zn731 1.977 . S
O740 C733 1.267 . S
C741 O742 1.160 . S
C741 O748 1.185 . S
O742 C741 1.160 . S
O743 Zn744 1.899 . S
O743 C751 1.284 . S
Zn744 O743 1.899 . S
Zn744 O745 2.032 . S
Zn744 O748 2.086 . S
Zn744 O753 1.977 . S
O745 Zn744 2.032 . S
O745 C749 1.278 . S
C746 O747 1.203 . S
C746 O753 1.267 . S
O747 C746 1.203 . S
O748 C741 1.185 . S
O748 Zn744 2.086 . S
C749 O745 1.278 . S
C749 O750 1.211 . S
O750 C749 1.211 . S
C751 O743 1.284 . S
C751 O752 1.273 . S
O752 C751 1.273 . S
O753 Zn744 1.977 . S
O753 C746 1.267 . S
C754 O755 1.160 . S
C754 O761 1.185 . S
O755 C754 1.160 . S
O756 Zn757 1.899 . S
O756 C764 1.284 . S
Zn757 O756 1.899 . S
Zn757 O758 2.032 . S
Zn757 O761 2.086 . S
Zn757 O766 1.977 . S
O758 Zn757 2.032 . S
O758 C762 1.278 . S
C759 O760 1.203 . S
C759 O766 1.267 . S
O760 C759 1.203 . S
O761 C754 1.185 . S
O761 Zn757 2.086 . S
C762 O758 1.278 . S
C762 O763 1.211 . S
O763 C762 1.211 . S
C764 O756 1.284 . S
C764 O765 1.273 . S
O765 C764 1.273 . S
O766 Zn757 1.977 . S
O766 C759 1.267 . S
C767 O768 1.160 . S
C767 O774 1.185 . S
O768 C767 1.160 . S
O769 Zn770 1.899 . S
O769 C777 1.284 . S
Zn770 O769 1.899 . S
Zn770 O771 2.032 . S
Zn770 O774 2.086 . S
Zn770 O779 1.977 . S
O771 Zn770 2.032 . S
O771 C775 1.278 . S
C772 O773 1.203 . S
C772 O779 1.267 . S
O773 C772 1.203 . S
O774 C767 1.185 . S
O774 Zn770 2.086 . S
C775 O771 1.278 . S
C775 O776 1.211 . S
O776 C775 1.211 . S
C777 O769 1.284 . S
C777 O778 1.273 . S
O778 C777 1.273 . S
O779 Zn770 1.977 . S
O779 C772 1.267 . S
C780 O781 1.160 . S
C780 O787 1.185 . S
O781 C780 1.160 . S
O782 Zn783 1.899 . S
O782 C790 1.284 . S
Zn783 O782 1.899 . S
Zn783 O784 2.032 . S
Zn783 O787 2.086 . S
Zn783 O792 1.977 . S
O784 Zn783 2.032 . S
O784 C788 1.278 . S
C785 O786 1.203 . S
C785 O792 1.267 . S
O786 C785 1.203 . S
O787 C780 1.185 . S
O787 Zn783 2.086 . S
C788 O784 1.278 . S
C788 O789 1.211 . S
O789 C788 1.211 . S
C790 O782 1.284 . S
C790 O791 1.273 . S
O791 C790 1.273 . S
O792 Zn783 1.977 . S
O792 C785 1.267 . S
C793 O794 1.160 . S
C793 O800 1.185 . S
O794 C793 1.160 . S
O795 Zn796 1.899 . S
O795 C803 1.284 . S
Zn796 O795 1.899 . S
Zn796 O797 2.032 . S
Zn796 O800 2.086 . S
Zn796 O805 1.977 . S
O797 Zn796 2.032 . S
O797 C801 1.278 . S
C798 O799 1.203 . S
C798 O805 1.267 . S
O799 C798 1.203 . S
O800 C793 1.185 . S
O800 Zn796 2.086 . S
C801 O797 1.278 . S
C801 O802 1.211 . S
O802 C801 1.211 . S
C803 O795 1.284 . S
C803 O804 1.273 . S
O804 C803 1.273 . S
O805 Zn796 1.977 . S
O805 C798 1.267 . S
C806 O807 1.160 . S
C806 O813 1.185 . S
O807 C806 1.160 . S
O808 Zn809 1.899 . S
O808 C816 1.284 . S
Zn809 O808 1.899 . S
Zn809 O810 2.032 . S
Zn809 O813 2.086 . S
Zn809 O818 1.977 . S
O810 Zn809 2.032 . S
O810 C814 1.278 . S
C811 O812 1.203 . S
C811 O818 1.267 . S
O812 C811 1.203 . S
O813 C806 1.185 . S
O813 Zn809 2.086 . S
C814 O810 1.278 . S
C814 O815 1.211 . S
O815 C814 1.211 . S
C816 O808 1.284 . S
C816 O817 1.273 . S
O817 C816 1.273 . S
O818 Zn809 1.977 . S
O818 C811 1.267 . S
C819 O820 1.160 . S
C819 O826 1.185 . S
O820 C819 1.160 . S
O821 Zn822 1.899 . S
O821 C829 1.284 . S
Zn822 O821 1.899 . S
Zn822 O823 2.032 . S
Zn822 O826 2.086 . S
Zn822 O831 1.977 . S
O823 Zn822 2.032 . S
O823 C827 1.278 . S
C824 O825 1.203 . S
C824 O831 1.267 . S
O825 C824 1.203 . S
O826 C819 1.185 . S
O826 Zn822 2.086 . S
C827 O823 1.278 . S
C827 O828 1.211 . S
O828 C827 1.211 . S
C829 O821 1.284 . S
C829 O830 1.273 . S
O830 C829 1.273 . S
O831 Zn822 1.977 . S
O831 C824 1.267 . S
C832 O833 1.160 . S
C832 O839 1.185 . S
O833 C832 1.160 . S
O834 Zn835 1.899 . S
O834 C842 1.284 . S
Zn835 O834 1.899 . S
Zn835 O836 2.032 . S
Zn835 O839 2.086 . S
Zn835 O844 1.977 . S
O836 Zn835 2.032 . S
O836 C840 1.278 . S
C837 O838 1.203 . S
C837 O844 1.267 . S
O838 C837 1.203 . S
O839 C832 1.185 . S
O839 Zn835 2.086 . S
C840 O836 1.278 . S
C840 O841 1.211 . S
O841 C840 1.211 . S
C842 O834 1.284 . S
C842 O843 1.273 . S
O843 C842 1.273 . S
O844 Zn835 1.977 . S
O844 C837 1.267 . S
C845 O846 1.160 . S
C845 O852 1.185 . S
O846 C845 1.160 . S
O847 Zn848 1.899 . S
O847 C855 1.284 . S
Zn848 O847 1.899 . S
Zn848 O849 2.032 . S
Zn848 O852 2.086 . S
Zn848 O857 1.977 . S
O849 Zn848 2.032 . S
O849 C853 1.278 . S
C850 O851 1.203 . S
C850 O857 1.267 . S
O851 C850 1.203 . S
O852 C845 1.185 . S
O852 Zn848 2.086 . S
C853 O849 1.278 . S
C853 O854 1.211 . S
O854 C853 1.211 . S
C855 O847 1.284 . S
C855 O856 1.273 . S
O856 C855 1.273 . S
O857 Zn848 1.977 . S
O857 C850 1.267 . S
C858 O859 1.160 . S
C858 O865 1.185 . S
O859 C858 1.160 . S
O860 Zn861 1.899 . S
O860 C868 1.284 . S
Zn861 O860 1.899 . S
Zn861 O862 2.032 . S
Zn861 O865 2.086 . S
Zn861 O870 1.977 . S
O862 Zn861 2.032 . S
O862 C866 1.278 . S
C863 O864 1.203 . S
C863 O870 1.267 . S
O864 C863 1.203 . S
O865 C858 1.185 . S
O865 Zn861 2.086 . S
C866 O862 1.278 . S
C866 O867 1.211 . S
O867 C866 1.211 . S
C868 O860 1.284 . S
C868 O869 1.273 . S
O869 C868 1.273 . S
O870 Zn861 1.977 . S
O870 C863 1.267 . S
C871 O872 1.160 . S
C871 O878 1.185 . S
O872 C871 1.160 . S
O873 Zn874 1.899 . S
O873 C881 1.284 . S
Zn874 O873 1.899 . S
Zn874 O875 2.032 . S
Zn874 O878 2.086 . S
Zn874 O883 1.977 . S
O875 Zn874 2.032 . S
O875 C879 1.278 . S
C876 O877 1.203 . S
C876 O883 1.267 . S
O877 C876 1.203 . S
O878 C871 1.185 . S
O878 Zn874 2.086 . S
C879 O875 1.278 . S
C879 O880 1.211 . S
O880 C879 1.211 . S
C881 O873 1.284 . S
C881 O882 1.273 . S
O882 C881 1.273 . S
O883 Zn874 1.977 . S
O883 C876 1.267 . S
C884 O885 1.160 . S
C884 O891 1.185 . S
O885 C884 1.160 . S
O886 Zn887 1.899 . S
O886 C894 1.284 . S
Zn887 O886 1.899 . S
Zn887 O888 2.032 . S
Zn887 O891 2.086 . S
Zn887 O896 1.977 . S
O888 Zn887 2.032 . S
O888 C892 1.278 . S
C889 O890 1.203 . S
C889 O896 1.267 . S
O890 C889 1.203 . S
O891 C884 1.185 . S
O891 Zn887 2.086 . S
C892 O888 1.278 . S
C892 O893 1.211 . S
O893 C892 1.211 . S
C894 O886 1.284 . S
C894 O895 1.273 . S
O895 C894 1.273 . S
O896 Zn887 1.977 . S
O896 C889 1.267 . S
C897 O898 1.160 . S
C897 O904 1.185 . S
O898 C897 1.160 . S
O899 Zn900 1.899 . S
O899 C907 1.284 . S
Zn900 O899 1.899 . S
Zn900 O901 2.032 . S
Zn900 O904 2.086 . S
Zn900 O909 1.977 . S
O901 Zn900 2.032 . S
O901 C905 1.278 . S
C902 O903 1.203 . S
C902 O909 1.267 . S
O903 C902 1.203 . S
O904 C897 1.185 . S
O904 Zn900 2.086 . S
C905 O901 1.278 . S
C905 O906 1.211 . S
O906 C905 1.211 . S
C907 O899 1.284 . S
C907 O908 1.273 . S
O908 C907 1.273 . S
O909 Zn900 1.977 . S
O909 C902 1.267 . S
C910 O911 1.160 . S
C910 O917 1.185 . S
O911 C910 1.160 . S
O912 Zn913 1.899 . S
O912 C920 1.284 . S
Zn913 O912 1.899 . S
Zn913 O914 2.032 . S
Zn913 O917 2.086 . S
Zn913 O922 1.977 . S
O914 Zn913 2.032 . S
O914 C918 1.278 . S
C915 O916 1.203 . S
C915 O922 1.267 . S
O916 C915 1.203 . S
O917 C910 1.185 . S
O917 Zn913 2.086 . S
C918 O914 1.278 . S
C918 O919 1.211 . S
O919 C918 1.211 . S
C920 O912 1.284 . S
C920 O921 1.273 . S
O921 C920 1.273 . S
O922 Zn913 1.977 . S
O922 C915 1.267 . S
C923 O924 1.160 . S
C923 O930 1.185 . S
O924 C923 1.160 . S
O925 Zn926 1.899 . S
O925 C933 1.284 . S
Zn926 O925 1.899 . S
Zn926 O927 2.032 . S
Zn926 O930 2.086 . S
Zn926 O935 1.977 . S
O927 Zn926 2.032 . S
O927 C931 1.278 . S
C928 O929 1.203 . S
C928 O935 1.267 . S
O929 C928 1.203 . S
O930 C923 1.185 . S
O930 Zn926 2.086 . S
C931 O927 1.278 . S
C931 O932 1.211 . S
O932 C931 1.211 . S
C933 O925 1.284 . S
C933 O934 1.273 . S
O934 C933 1.273 . S
O935 Zn926 1.977 . S
O935 C928 1.267 . S
C936 O937 1.160 . S
C936 O943 1.185 . S
O937 C936 1.160 . S
O938 Zn939 1.899 . S
O938 C946 1.284 . S
Zn939 O938 1.899 . S
Zn939 O940 2.032 . S
Zn939 O943 2.086 . S
Zn939 O948 1.977 . S
O940 Zn939 2.032 . S
O940 C944 1.278 . S
C941 O942 1.203 . S
C941 O948 1.267 . S
O942 C941 1.203 . S
O943 C936 1.185 . S
O943 Zn939 2.086 . S
C944 O940 1.278 . S
C944 O945 1.211 . S
O945 C944 1.211 . S
C946 O938 1.284 . S
C946 O947 1.273 . S
O947 C946 1.273 . S
O948 Zn939 1.977 . S
O948 C941 1.267 . S
C949 O950 1.160 . S
C949 O956 1.185 . S
O950 C949 1.160 . S
O951 Zn952 1.899 . S
O951 C959 1.284 . S
Zn952 O951 1.899 . S
Zn952 O953 2.032 . S
Zn952 O956 2.086 . S
Zn952 O961 1.977 . S
O953 Zn952 2.032 . S
O953 C957 1.278 . S
C954 O955 1.203 . S
C954 O961 1.267 . S
O955 C954 1.203 . S
O956 C949 1.185 . S
O956 Zn952 2.086 . S
C957 O953 1.278 . S
C957 O958 1.211 . S
O958 C957 1.211 . S
C959 O951 1.284 . S
C959 O960 1.273 . S
O960 C959 1.273 . S
O961 Zn952 1.977 . S
O961 C954 1.267 . S
C962 O963 1.160 . S
C962 O969 1.185 . S
O963 C962 1.160 . S
O964 Zn965 1.899 . S
O964 C972 1.284 . S
Zn965 O964 1.899 . S
Zn965 O966 2.032 . S
Zn965 O969 2.086 . S
Zn965 O974 1.977 . S
O966 Zn965 2.032 . S
O966 C970 1.278 . S
C967 O968 1.203 . S
C967 O974 1.267 . S
O968 C967 1.203 . S
O969 C962 1.185 . S
O969 Zn965 2.086 . S
C970 O966 1.278 . S
C970 O971 1.211 . S
O971 C970 1.211 . S
C972 O964 1.284 . S
C972 O973 1.273 . S
O973 C972 1.273 . S
O974 Zn965 1.977 . S
O974 C967 1.267 . S
C975 O976 1.160 . S
C975 O982 1.185 . S
O976 C975 1.160 . S
O977 Zn978 1.899 . S
O977 C985 1.284 . S
Zn978 O977 1.899 . S
Zn978 O979 2.032 . S
Zn978 O982 2.086 . S
Zn978 O987 1.977 . S
O979 Zn978 2.032 . S
O979 C983 1.278 . S
C980 O981 1.203 . S
C980 O987 1.267 . S
O981 C980 1.203 . S
O982 C975 1.185 . S
O982 Zn978 2.086 . S
C983 O979 1.278 . S
C983 O984 1.211 . S
O984 C983 1.211 . S
C985 O977 1.284 . S
C985 O986 1.273 . S
O986 C985 1.273 . S
O987 Zn978 1.977 . S
O987 C980 1.267 . S
C988 O989 1.160 . S
C988 O995 1.185 . S
O989 C988 1.160 . S
O990 Zn991 1.899 . S
O990 C998 1.284 . S
Zn991 O990 1.899 . S
Zn991 O992 2.032 . S
Zn991 O995 2.086 . S
Zn991 O1000 1.977 . S
O992 Zn991 2.032 . S
O992 C996 1.278 . S
C993 O994 1.203 . S
C993 O1000 1.267 . S
O994 C993 1.203 . S
O995 C988 1.185 . S
O995 Zn991 2.086 . S
C996 O992 1.278 . S
C996 O997 1.211 . S
O997 C996 1.211 . S
C998 O990 1.284 . S
C998 O999 1.273 . S
O999 C998 1.273 . S
O1000 Zn991 1.977 . S
O1000 C993 1.267 . S
C1001 O1002 1.160 . S
C1001 O1008 1.185 . S
O1002 C1001 1.160 . S
O1003 Zn1004 1.899 . S
O1003 C1011 1.284 . S
Zn1004 O1003 1.899 . S
Zn1004 O1005 2.032 . S
Zn1004 O1008 2.086 . S
Zn1004 O1013 1.977 . S
O1005 Zn1004 2.032 . S
O1005 C1009 1.278 . S
C1006 O1007 1.203 . S
C1006 O1013 1.267 . S
O1007 C1006 1.203 . S
O1008 C1001 1.185 . S
O1008 Zn1004 2.086 . S
C1009 O1005 1.278 . S
C1009 O1010 1.211 . S
O1010 C1009 1.211 . S
C1011 O1003 1.284 . S
C1011 O1012 1.273 . S
O1012 C1011 1.273 . S
O1013 Zn1004 1.977 . S
O1013 C1006 1.267 . S
C1014 O1015 1.160 . S
C1014 O1021 1.185 . S
O1015 C1014 1.160 . S
O1016 Zn1017 1.899 . S
O1016 C1024 1.284 . S
Zn1017 O1016 1.899 . S
Zn1017 O1018 2.032 . S
Zn1017 O1021 2.086 . S
Zn1017 O1026 1.977 . S
O1018 Zn1017 2.032 . S
O1018 C1022 1.278 . S
C1019 O1020 1.203 . S
C1019 O1026 1.267 . S
O1020 C1019 1.203 . S
O1021 C1014 1.185 . S
O1021 Zn1017 2.086 . S
C1022 O1018 1.278 . S
C1022 O1023 1.211 . S
O1023 C1022 1.211 . S
C1024 O1016 1.284 . S
C1024 O1025 1.273 . S
O1025 C1024 1.273 . S
O1026 Zn1017 1.977 . S
O1026 C1019 1.267 . S
C1027 O1028 1.160 . S
C1027 O1034 1.185 . S
O1028 C1027 1.160 . S
O1029 Zn1030 1.899 . S
O1029 C1037 1.284 . S
Zn1030 O1029 1.899 . S
Zn1030 O1031 2.032 . S
Zn1030 O1034 2.086 . S
Zn1030 O1039 1.977 . S
O1031 Zn1030 2.032 . S
O1031 C1035 1.278 . S
C1032 O1033 1.203 . S
C1032 O1039 1.267 . S
O1033 C1032 1.203 . S
O1034 C1027 1.185 . S
O1034 Zn1030 2.086 . S
C1035 O1031 1.278 . S
C1035 O1036 1.211 . S
O1036 C1035 1.211 . S
C1037 O1029 1.284 . S
C1037 O1038 1.273 . S
O1038 C1037 1.273 . S
O1039 Zn1030 1.977 . S
O1039 C1032 1.267 . S
C1040 O1041 1.160 . S
C1040 O1047 1.185 . S
O1041 C1040 1.160 . S
O1042 Zn1043 1.899 . S
O1042 C1050 1.284 . S
Zn1043 O1042 1.899 . S
Zn1043 O1044 2.032 . S
Zn1043 O1047 2.086 . S
Zn1043 O1052 1.977 . S
O1044 Zn1043 2.032 . S
O1044 C1048 1.278 . S
C1045 O1046 1.203 . S
C1045 O1052 1.267 . S
O1046 C1045 1.203 . S
O1047 C1040 1.185 . S
O1047 Zn1043 2.086 . S
C1048 O1044 1.278 . S
C1048 O1049 1.211 . S
O1049 C1048 1.211 . S
C1050 O1042 1.284 . S
C1050 O1051 1.273 . S
O1051 C1050 1.273 . S
O1052 Zn1043 1.977 . S
O1052 C1045 1.267 . S
C1053 O1054 1.160 . S
C1053 O1060 1.185 . S
O1054 C1053 1.160 . S
O1055 Zn1056 1.899 . S
O1055 C1063 1.284 . S
Zn1056 O1055 1.899 . S
Zn1056 O1057 2.032 . S
Zn1056 O1060 2.086 . S
Zn1056 O1065 1.977 . S
O1057 Zn1056 2.032 . S
O1057 C1061 1.278 . S
C1058 O1059 1.203 . S
C1058 O1065 1.267 . S
O1059 C1058 1.203 . S
O1060 C1053 1.185 . S
O1060 Zn1056 2.086 . S
C1061 O1057 1.278 . S
C1061 O1062 1.211 . S
O1062 C1061 1.211 . S
C1063 O1055 1.284 . S
C1063 O1064 1.273 . S
O1064 C1063 1.273 . S
O1065 Zn1056 1.977 . S
O1065 C1058 1.267 . S
C1066 O1067 1.160 . S
C1066 O1073 1.185 . S
O1067 C1066 1.160 . S
O1068 Zn1069 1.899 . S
O1068 C1076 1.284 . S
Zn1069 O1068 1.899 . S
Zn1069 O1070 2.032 . S
Zn1069 O1073 2.086 . S
Zn1069 O1078 1.977 . S
O1070 Zn1069 2.032 . S
O1070 C1074 1.278 . S
C1071 O1072 1.203 . S
C1071 O1078 1.267 . S
O1072 C1071 1.203 . S
O1073 C1066 1.185 . S
O1073 Zn1069 2.086 . S
C1074 O1070 1.278 . S
C1074 O1075 1.211 . S
O1075 C1074 1.211 . S
C1076 O1068 1.284 . S
C1076 O1077 1.273 . S
O1077 C1076 1.273 . S
O1078 Zn1069 1.977 . S
O1078 C1071 1.267 . S
C1079 O1080 1.160 . S
C1079 O1086 1.185 . S
O1080 C1079 1.160 . S
O1081 Zn1082 1.899 . S
O1081 C1089 1.284 . S
Zn1082 O1081 1.899 . S
Zn1082 O1083 2.032 . S
Zn1082 O1086 2.086 . S
Zn1082 O1091 1.977 . S
O1083 Zn1082 2.032 . S
O1083 C1087 1.278 . S
C1084 O1085 1.203 . S
C1084 O1091 1.267 . S
O1085 C1084 1.203 . S
O1086 C1079 1.185 . S
O1086 Zn1082 2.086 . S
C1087 O1083 1.278 . S
C1087 O1088 1.211 . S
O1088 C1087 1.211 . S
C1089 O1081 1.284 . S
C1089 O1090 1.273 . S
O1090 C1089 1.273 . S
O1091 Zn1082 1.977 . S
O1091 C1084 1.267 . S
C1092 O1093 1.160 . S
C1092 O1099 1.185 . S
O1093 C1092 1.160 . S
O1094 Zn1095 1.899 . S
O1094 C1102 1.284 . S
Zn1095 O1094 1.899 . S
Zn1095 O1096 2.032 . S
Zn1095 O1099 2.086 . S
Zn1095 O1104 1.977 . S
O1096 Zn1095 2.032 . S
O1096 C1100 1.278 . S
C1097 O1098 1.203 . S
C1097 O1104 1.267 . S
O1098 C1097 1.203 . S
O1099 C1092 1.185 . S
O1099 Zn1095 2.086 . S
C1100 O1096 1.278 . S
C1100 O1101 1.211 . S
O1101 C1100 1.211 . S
C1102 O1094 1.284 . S
C1102 O1103 1.273 . S
O1103 C1102 1.273 . S
O1104 Zn1095 1.977 . S
O1104 C1097 1.267 . S
C1105 O1106 1.160 . S
C1105 O1112 1.185 . S
O1106 C1105 1.160 . S
O1107 Zn1108 1.899 . S
O1107 C1115 1.284 . S
Zn1108 O1107 1.899 . S
Zn1108 O1109 2.032 . S
Zn1108 O1112 2.086 . S
Zn1108 O1117 1.977 . S
O1109 Zn1108 2.032 . S
O1109 C1113 1.278 . S
C1110 O1111 1.203 . S
C1110 O1117 1.267 . S
O1111 C1110 1.203 . S
O1112 C1105 1.185 . S
O1112 Zn1108 2.086 . S
C1113 O1109 1.278 . S
C1113 O1114 1.211 . S
O1114 C1113 1.211 . S
C1115 O1107 1.284 . S
C1115 O1116 1.273 . S
O1116 C1115 1.273 . S
O1117 Zn1108 1.977 . S
O1117 C1110 1.267 . S
C1118 O1119 1.160 . S
C1118 O1125 1.185 . S
O1119 C1118 1.160 . S
O1120 Zn1121 1.899 . S
O1120 C1128 1.284 . S
Zn1121 O1120 1.899 . S
Zn1121 O1122 2.032 . S
Zn1121 O1125 2.086 . S
Zn1121 O1130 1.977 . S
O1122 Zn1121 2.032 . S
O1122 C1126 1.278 . S
C1123 O1124 1.203 . S
C1123 O1130 1.267 . S
O1124 C1123 1.203 . S
O1125 C1118 1.185 . S
O1125 Zn1121 2.086 . S
C1126 O1122 1.278 . S
C1126 O1127 1.211 . S
O1127 C1126 1.211 . S
C1128 O1120 1.284 . S
C1128 O1129 1.273 . S
O1129 C1128 1.273 . S
O1130 Zn1121 1.977 . S
O1130 C1123 1.267 . S
C1131 O1132 1.160 . S
C1131 O1138 1.185 . S
O1132 C1131 1.160 . S
O1133 Zn1134 1.899 . S
O1133 C1141 1.284 . S
Zn1134 O1133 1.899 . S
Zn1134 O1135 2.032 . S
Zn1134 O1138 2.086 . S
Zn1134 O1143 1.977 . S
O1135 Zn1134 2.032 . S
O1135 C1139 1.278 . S
C1136 O1137 1.203 . S
C1136 O1143 1.267 . S
O1137 C1136 1.203 . S
O1138 C1131 1.185 . S
O1138 Zn1134 2.086 . S
C1139 O1135 1.278 . S
C1139 O1140 1.211 . S
O1140 C1139 1.211 . S
C1141 O1133 1.284 . S
C1141 O1142 1.273 . S
O1142 C1141 1.273 . S
O1143 Zn1134 1.977 . S
O1143 C1136 1.267 . S
C1144 O1145 1.160 . S
C1144 O1151 1.185 . S
O1145 C1144 1.160 . S
O1146 Zn1147 1.899 . S
O1146 C1154 1.284 . S
Zn1147 O1146 1.899 . S
Zn1147 O1148 2.032 . S
Zn1147 O1151 2.086 . S
Zn1147 O1156 1.977 . S
O1148 Zn1147 2.032 . S
O1148 C1152 1.278 . S
C1149 O1150 1.203 . S
C1149 O1156 1.267 . S
O1150 C1149 1.203 . S
O1151 C1144 1.185 . S
O1151 Zn1147 2.086 . S
C1152 O1148 1.278 . S
C1152 O1153 1.211 . S
O1153 C1152 1.211 . S
C1154 O1146 1.284 . S
C1154 O1155 1.273 . S
O1155 C1154 1.273 . S
O1156 Zn1147 1.977 . S
O1156 C1149 1.267 . S
C1157 O1158 1.160 . S
C1157 O1164 1.185 . S
O1158 C1157 1.160 . S
O1159 Zn1160 1.899 . S
O1159 C1167 1.284 . S
Zn1160 O1159 1.899 . S
Zn1160 O1161 2.032 . S
Zn1160 O1164 2.086 . S
Zn1160 O1169 1.977 . S
O1161 Zn1160 2.032 . S
O1161 C1165 1.278 . S
C1162 O1163 1.203 . S
C1162 O1169 1.267 . S
O1163 C1162 1.203 . S
O1164 C1157 1.185 . S
O1164 Zn1160 2.086 . S
C1165 O1161 1.278 . S
C1165 O1166 1.211 . S
O1166 C1165 1.211 . S
C1167 O1159 1.284 . S
C1167 O1168 1.273 . S
O1168 C1167 1.273 . S
O1169 Zn1160 1.977 . S
O1169 C1162 1.267 . S
C1170 O1171 1.160 . S
C1170 O1177 1.185 . S
O1171 C1170 1.160 . S
O1172 Zn1173 1.899 . S
O1172 C1180 1.284 . S
Zn1173 O1172 1.899 . S
Zn1173 O1174 2.032 . S
Zn1173 O1177 2.086 . S
Zn1173 O1182 1.977 . S
O1174 Zn1173 2.032 . S
O1174 C1178 1.278 . S
C1175 O1176 1.203 . S
C1175 O1182 1.267 . S
O1176 C1175 1.203 . S
O1177 C1170 1.185 . S
O1177 Zn1173 2.086 . S
C1178 O1174 1.278 . S
C1178 O1179 1.211 . S
O1179 C1178 1.211 . S
C1180 O1172 1.284 . S
C1180 O1181 1.273 . S
O1181 C1180 1.273 . S
O1182 Zn1173 1.977 . S
O1182 C1175 1.267 . S
C1183 O1184 1.160 . S
C1183 O1190 1.185 . S
O1184 C1183 1.160 . S
O1185 Zn1186 1.899 . S
O1185 C1193 1.284 . S
Zn1186 O1185 1.899 . S
Zn1186 O1187 2.032 . S
Zn1186 O1190 2.086 . S
Zn1186 O1195 1.977 . S
O1187 Zn1186 2.032 . S
O1187 C1191 1.278 . S
C1188 O1189 1.203 . S
C1188 O1195 1.267 . S
O1189 C1188 1.203 . S
O1190 C1183 1.185 . S
O1190 Zn1186 2.086 . S
C1191 O1187 1.278 . S
C1191 O1192 1.211 . S
O1192 C1191 1.211 . S
C1193 O1185 1.284 . S
C1193 O1194 1.273 . S
O1194 C1193 1.273 . S
O1195 Zn1186 1.977 . S
O1195 C1188 1.267 . S
C1196 O1197 1.160 . S
C1196 O1203 1.185 . S
O1197 C1196 1.160 . S
O1198 Zn1199 1.899 . S
O1198 C1206 1.284 . S
Zn1199 O1198 1.899 . S
Zn1199 O1200 2.032 . S
Zn1199 O1203 2.086 . S
Zn1199 O1208 1.977 . S
O1200 Zn1199 2.032 . S
O1200 C1204 1.278 . S
C1201 O1202 1.203 . S
C1201 O1208 1.267 . S
O1202 C1201 1.203 . S
O1203 C1196 1.185 . S
O1203 Zn1199 2.086 . S
C1204 O1200 1.278 . S
C1204 O1205 1.211 . S
O1205 C1204 1.211 . S
C1206 O1198 1.284 . S
C1206 O1207 1.273 . S
O1207 C1206 1.273 . S
O1208 Zn1199 1.977 . S
O1208 C1201 1.267 . S
C1209 O1210 1.160 . S
C1209 O1216 1.185 . S
O1210 C1209 1.160 . S
O1211 Zn1212 1.899 . S
O1211 C1219 1.284 . S
Zn1212 O1211 1.899 . S
Zn1212 O1213 2.032 . S
Zn1212 O1216 2.086 . S
Zn1212 O1221 1.977 . S
O1213 Zn1212 2.032 . S
O1213 C1217 1.278 . S
C1214 O1215 1.203 . S
C1214 O1221 1.267 . S
O1215 C1214 1.203 . S
O1216 C1209 1.185 . S
O1216 Zn1212 2.086 . S
C1217 O1213 1.278 . S
C1217 O1218 1.211 . S
O1218 C1217 1.211 . S
C1219 O1211 1.284 . S
C1219 O1220 1.273 . S
O1220 C1219 1.273 . S
O1221 Zn1212 1.977 . S
O1221 C1214 1.267 . S
C1222 O1223 1.160 . S
C1222 O1229 1.185 . S
O1223 C1222 1.160 . S
O1224 Zn1225 1.899 . S
O1224 C1232 1.284 . S
Zn1225 O1224 1.899 . S
Zn1225 O1226 2.032 . S
Zn1225 O1229 2.086 . S
Zn1225 O1234 1.977 . S
O1226 Zn1225 2.032 . S
O1226 C1230 1.278 . S
C1227 O1228 1.203 . S
C1227 O1234 1.267 . S
O1228 C1227 1.203 . S
O1229 C1222 1.185 . S
O1229 Zn1225 2.086 . S
C1230 O1226 1.278 . S
C1230 O1231 1.211 . S
O1231 C1230 1.211 . S
C1232 O1224 1.284 . S
C1232 O1233 1.273 . S
O1233 C1232 1.273 . S
O1234 Zn1225 1.977 . S
O1234 C1227 1.267 . S
C1235 O1236 1.160 . S
C1235 O1242 1.185 . S
O1236 C1235 1.160 . S
O1237 Zn1238 1.899 . S
O1237 C1245 1.284 . S
Zn1238 O1237 1.899 . S
Zn1238 O1239 2.032 . S
Zn1238 O1242 2.086 . S
Zn1238 O1247 1.977 . S
O1239 Zn1238 2.032 . S
O1239 C1243 1.278 . S
C1240 O1241 1.203 . S
C1240 O1247 1.267 . S
O1241 C1240 1.203 . S
O1242 C1235 1.185 . S
O1242 Zn1238 2.086 . S
C1243 O1239 1.278 . S
C1243 O1244 1.211 . S
O1244 C1243 1.211 . S
C1245 O1237 1.284 . S
C1245 O1246 1.273 . S
O1246 C1245 1.273 . S
O1247 Zn1238 1.977 . S
O1247 C1240 1.267 . S
C1248 C1249 1.387 . S
C1248 H1252 0.950 . S
C1248 C1257 1.390 . S
C1249 C1248 1.387 . S
C1249 C1251 1.387 . S
H1250 C1257 0.950 . S
C1251 C1249 1.387 . S
C1251 C1253 1.390 . S
C1251 H1255 0.950 . S
H1252 C1248 0.950 . S
C1253 C1251 1.390 . S
C1253 C1254 1.387 . S
C1253 H1256 0.950 . S
C1254 C1253 1.387 . S
C1254 C1257 1.387 . S
H1255 C1251 0.950 . S
H1256 C1253 0.950 . S
C1257 C1248 1.390 . S
C1257 H1250 0.950 . S
C1257 C1254 1.387 . S
C1258 C1259 1.387 . S
C1258 H1262 0.950 . S
C1258 C1267 1.390 . S
C1259 C1258 1.387 . S
C1259 C1261 1.387 . S
H1260 C1267 0.950 . S
C1261 C1259 1.387 . S
C1261 C1263 1.390 . S
C1261 H1265 0.950 . S
H1262 C1258 0.950 . S
C1263 C1261 1.390 . S
C1263 C1264 1.387 . S
C1263 H1266 0.950 . S
C1264 C1263 1.387 . S
C1264 C1267 1.387 . S
H1265 C1261 0.950 . S
H1266 C1263 0.950 . S
C1267 C1258 1.390 . S
C1267 H1260 0.950 . S
C1267 C1264 1.387 . S
C1268 C1269 1.387 . S
C1268 H1272 0.950 . S
C1268 C1277 1.390 . S
C1269 C1268 1.387 . S
C1269 C1271 1.387 . S
H1270 C1277 0.950 . S
C1271 C1269 1.387 . S
C1271 C1273 1.390 . S
C1271 H1275 0.950 . S
H1272 C1268 0.950 . S
C1273 C1271 1.390 . S
C1273 C1274 1.387 . S
C1273 H1276 0.950 . S
C1274 C1273 1.387 . S
C1274 C1277 1.387 . S
H1275 C1271 0.950 . S
H1276 C1273 0.950 . S
C1277 C1268 1.390 . S
C1277 H1270 0.950 . S
C1277 C1274 1.387 . S
C1278 C1279 1.387 . S
C1278 H1282 0.950 . S
C1278 C1287 1.390 . S
C1279 C1278 1.387 . S
C1279 C1281 1.387 . S
H1280 C1287 0.950 . S
C1281 C1279 1.387 . S
C1281 C1283 1.390 . S
C1281 H1285 0.950 . S
H1282 C1278 0.950 . S
C1283 C1281 1.390 . S
C1283 C1284 1.387 . S
C1283 H1286 0.950 . S
C1284 C1283 1.387 . S
C1284 C1287 1.387 . S
H1285 C1281 0.950 . S
H1286 C1283 0.950 . S
C1287 C1278 1.390 . S
C1287 H1280 0.950 . S
C1287 C1284 1.387 . S
C1288 C1289 1.387 . S
C1288 H1292 0.950 . S
C1288 C1297 1.390 . S
C1289 C1288 1.387 . S
C1289 C1291 1.387 . S
H1290 C1297 0.950 . S
C1291 C1289 1.387 . S
C1291 C1293 1.390 . S
C1291 H1295 0.950 . S
H1292 C1288 0.950 . S
C1293 C1291 1.390 . S
C1293 C1294 1.387 . S
C1293 H1296 0.950 . S
C1294 C1293 1.387 . S
C1294 C1297 1.387 . S
H1295 C1291 0.950 . S
H1296 C1293 0.950 . S
C1297 C1288 1.390 . S
C1297 H1290 0.950 . S
C1297 C1294 1.387 . S
C1298 C1299 1.387 . S
C1298 H1302 0.950 . S
C1298 C1307 1.390 . S
C1299 C1298 1.387 . S
C1299 C1301 1.387 . S
H1300 C1307 0.950 . S
C1301 C1299 1.387 . S
C1301 C1303 1.390 . S
C1301 H1305 0.950 . S
H1302 C1298 0.950 . S
C1303 C1301 1.390 . S
C1303 C1304 1.387 . S
C1303 H1306 0.950 . S
C1304 C1303 1.387 . S
C1304 C1307 1.387 . S
H1305 C1301 0.950 . S
H1306 C1303 0.950 . S
C1307 C1298 1.390 . S
C1307 H1300 0.950 . S
C1307 C1304 1.387 . S
C1308 C1309 1.387 . S
C1308 H1312 0.950 . S
C1308 C1317 1.390 . S
C1309 C1308 1.387 . S
C1309 C1311 1.387 . S
H1310 C1317 0.950 . S
C1311 C1309 1.387 . S
C1311 C1313 1.390 . S
C1311 H1315 0.950 . S
H1312 C1308 0.950 . S
C1313 C1311 1.390 . S
C1313 C1314 1.387 . S
C1313 H1316 0.950 . S
C1314 C1313 1.387 . S
C1314 C1317 1.387 . S
H1315 C1311 0.950 . S
H1316 C1313 0.950 . S
C1317 C1308 1.390 . S
C1317 H1310 0.950 . S
C1317 C1314 1.387 . S
C1318 C1319 1.387 . S
C1318 H1322 0.950 . S
C1318 C1327 1.390 . S
C1319 C1318 1.387 . S
C1319 C1321 1.387 . S
H1320 C1327 0.950 . S
C1321 C1319 1.387 . S
C1321 C1323 1.390 . S
C1321 H1325 0.950 . S
H1322 C1318 0.950 . S
C1323 C1321 1.390 . S
C1323 C1324 1.387 . S
C1323 H1326 0.950 . S
C1324 C1323 1.387 . S
C1324 C1327 1.387 . S
H1325 C1321 0.950 . S
H1326 C1323 0.950 . S
C1327 C1318 1.390 . S
C1327 H1320 0.950 . S
C1327 C1324 1.387 . S
C1328 C1329 1.387 . S
C1328 H1332 0.950 . S
C1328 C1337 1.390 . S
C1329 C1328 1.387 . S
C1329 C1331 1.387 . S
H1330 C1337 0.950 . S
C1331 C1329 1.387 . S
C1331 C1333 1.390 . S
C1331 H1335 0.950 . S
H1332 C1328 0.950 . S
C1333 C1331 1.390 . S
C1333 C1334 1.387 . S
C1333 H1336 0.950 . S
C1334 C1333 1.387 . S
C1334 C1337 1.387 . S
H1335 C1331 0.950 . S
H1336 C1333 0.950 . S
C1337 C1328 1.390 . S
C1337 H1330 0.950 . S
C1337 C1334 1.387 . S
C1338 C1339 1.387 . S
C1338 H1342 0.950 . S
C1338 C1347 1.390 . S
C1339 C1338 1.387 . S
C1339 C1341 1.387 . S
H1340 C1347 0.950 . S
C1341 C1339 1.387 . S
C1341 C1343 1.390 . S
C1341 H1345 0.950 . S
H1342 C1338 0.950 . S
C1343 C1341 1.390 . S
C1343 C1344 1.387 . S
C1343 H1346 0.950 . S
C1344 C1343 1.387 . S
C1344 C1347 1.387 . S
H1345 C1341 0.950 . S
H1346 C1343 0.950 . S
C1347 C1338 1.390 . S
C1347 H1340 0.950 . S
C1347 C1344 1.387 . S
C1348 C1349 1.387 . S
C1348 H1352 0.950 . S
C1348 C1357 1.390 . S
C1349 C1348 1.387 . S
C1349 C1351 1.387 . S
H1350 C1357 0.950 . S
C1351 C1349 1.387 . S
C1351 C1353 1.390 . S
C1351 H1355 0.950 . S
H1352 C1348 0.950 . S
C1353 C1351 1.390 . S
C1353 C1354 1.387 . S
C1353 H1356 0.950 . S
C1354 C1353 1.387 . S
C1354 C1357 1.387 . S
H1355 C1351 0.950 . S
H1356 C1353 0.950 . S
C1357 C1348 1.390 . S
C1357 H1350 0.950 . S
C1357 C1354 1.387 . S
C1358 C1359 1.387 . S
C1358 H1362 0.950 . S
C1358 C1367 1.390 . S
C1359 C1358 1.387 . S
C1359 C1361 1.387 . S
H1360 C1367 0.950 . S
C1361 C1359 1.387 . S
C1361 C1363 1.390 . S
C1361 H1365 0.950 . S
H1362 C1358 0.950 . S
C1363 C1361 1.390 . S
C1363 C1364 1.387 . S
C1363 H1366 0.950 . S
C1364 C1363 1.387 . S
C1364 C1367 1.387 . S
H1365 C1361 0.950 . S
H1366 C1363 0.950 . S
C1367 C1358 1.390 . S
C1367 H1360 0.950 . S
C1367 C1364 1.387 . S
C1368 C1369 1.387 . S
C1368 H1372 0.950 . S
C1368 C1377 1.390 . S
C1369 C1368 1.387 . S
C1369 C1371 1.387 . S
H1370 C1377 0.950 . S
C1371 C1369 1.387 . S
C1371 C1373 1.390 . S
C1371 H1375 0.950 . S
H1372 C1368 0.950 . S
C1373 C1371 1.390 . S
C1373 C1374 1.387 . S
C1373 H1376 0.950 . S
C1374 C1373 1.387 . S
C1374 C1377 1.387 . S
H1375 C1371 0.950 . S
H1376 C1373 0.950 . S
C1377 C1368 1.390 . S
C1377 H1370 0.950 . S
C1377 C1374 1.387 . S
C1378 C1379 1.387 . S
C1378 H1382 0.950 . S
C1378 C1387 1.390 . S
C1379 C1378 1.387 . S
C1379 C1381 1.387 . S
H1380 C1387 0.950 . S
C1381 C1379 1.387 . S
C1381 C1383 1.390 . S
C1381 H1385 0.950 . S
H1382 C1378 0.950 . S
C1383 C1381 1.390 . S
C1383 C1384 1.387 . S
C1383 H1386 0.950 . S
C1384 C1383 1.387 . S
C1384 C1387 1.387 . S
H1385 C1381 0.950 . S
H1386 C1383 0.950 . S
C1387 C1378 1.390 . S
C1387 H1380 0.950 . S
C1387 C1384 1.387 . S
C1388 C1389 1.387 . S
C1388 H1392 0.950 . S
C1388 C1397 1.390 . S
C1389 C1388 1.387 . S
C1389 C1391 1.387 . S
H1390 C1397 0.950 . S
C1391 C1389 1.387 . S
C1391 C1393 1.390 . S
C1391 H1395 0.950 . S
H1392 C1388 0.950 . S
C1393 C1391 1.390 . S
C1393 C1394 1.387 . S
C1393 H1396 0.950 . S
C1394 C1393 1.387 . S
C1394 C1397 1.387 . S
H1395 C1391 0.950 . S
H1396 C1393 0.950 . S
C1397 C1388 1.390 . S
C1397 H1390 0.950 . S
C1397 C1394 1.387 . S
C1398 C1399 1.387 . S
C1398 H1402 0.950 . S
C1398 C1407 1.390 . S
C1399 C1398 1.387 . S
C1399 C1401 1.387 . S
H1400 C1407 0.950 . S
C1401 C1399 1.387 . S
C1401 C1403 1.390 . S
C1401 H1405 0.950 . S
H1402 C1398 0.950 . S
C1403 C1401 1.390 . S
C1403 C1404 1.387 . S
C1403 H1406 0.950 . S
C1404 C1403 1.387 . S
C1404 C1407 1.387 . S
H1405 C1401 0.950 . S
H1406 C1403 0.950 . S
C1407 C1398 1.390 . S
C1407 H1400 0.950 . S
C1407 C1404 1.387 . S
C1408 C1409 1.387 . S
C1408 H1412 0.950 . S
C1408 C1417 1.390 . S
C1409 C1408 1.387 . S
C1409 C1411 1.387 . S
H1410 C1417 0.950 . S
C1411 C1409 1.387 . S
C1411 C1413 1.390 . S
C1411 H1415 0.950 . S
H1412 C1408 0.950 . S
C1413 C1411 1.390 . S
C1413 C1414 1.387 . S
C1413 H1416 0.950 . S
C1414 C1413 1.387 . S
C1414 C1417 1.387 . S
H1415 C1411 0.950 . S
H1416 C1413 0.950 . S
C1417 C1408 1.390 . S
C1417 H1410 0.950 . S
C1417 C1414 1.387 . S
C1418 C1419 1.387 . S
C1418 H1422 0.950 . S
C1418 C1427 1.390 . S
C1419 C1418 1.387 . S
C1419 C1421 1.387 . S
H1420 C1427 0.950 . S
C1421 C1419 1.387 . S
C1421 C1423 1.390 . S
C1421 H1425 0.950 . S
H1422 C1418 0.950 . S
C1423 C1421 1.390 . S
C1423 C1424 1.387 . S
C1423 H1426 0.950 . S
C1424 C1423 1.387 . S
C1424 C1427 1.387 . S
H1425 C1421 0.950 . S
H1426 C1423 0.950 . S
C1427 C1418 1.390 . S
C1427 H1420 0.950 . S
C1427 C1424 1.387 . S
C1428 C1429 1.387 . S
C1428 H1432 0.950 . S
C1428 C1437 1.390 . S
C1429 C1428 1.387 . S
C1429 C1431 1.387 . S
H1430 C1437 0.950 . S
C1431 C1429 1.387 . S
C1431 C1433 1.390 . S
C1431 H1435 0.950 . S
H1432 C1428 0.950 . S
C1433 C1431 1.390 . S
C1433 C1434 1.387 . S
C1433 H1436 0.950 . S
C1434 C1433 1.387 . S
C1434 C1437 1.387 . S
H1435 C1431 0.950 . S
H1436 C1433 0.950 . S
C1437 C1428 1.390 . S
C1437 H1430 0.950 . S
C1437 C1434 1.387 . S
C1438 C1439 1.387 . S
C1438 H1442 0.950 . S
C1438 C1447 1.390 . S
C1439 C1438 1.387 . S
C1439 C1441 1.387 . S
H1440 C1447 0.950 . S
C1441 C1439 1.387 . S
C1441 C1443 1.390 . S
C1441 H1445 0.950 . S
H1442 C1438 0.950 . S
C1443 C1441 1.390 . S
C1443 C1444 1.387 . S
C1443 H1446 0.950 . S
C1444 C1443 1.387 . S
C1444 C1447 1.387 . S
H1445 C1441 0.950 . S
H1446 C1443 0.950 . S
C1447 C1438 1.390 . S
C1447 H1440 0.950 . S
C1447 C1444 1.387 . S
C1448 C1449 1.387 . S
C1448 H1452 0.950 . S
C1448 C1457 1.390 . S
C1449 C1448 1.387 . S
C1449 C1451 1.387 . S
H1450 C1457 0.950 . S
C1451 C1449 1.387 . S
C1451 C1453 1.390 . S
C1451 H1455 0.950 . S
H1452 C1448 0.950 . S
C1453 C1451 1.390 . S
C1453 C1454 1.387 . S
C1453 H1456 0.950 . S
C1454 C1453 1.387 . S
C1454 C1457 1.387 . S
H1455 C1451 0.950 . S
H1456 C1453 0.950 . S
C1457 C1448 1.390 . S
C1457 H1450 0.950 . S
C1457 C1454 1.387 . S
C1458 C1459 1.387 . S
C1458 H1462 0.950 . S
C1458 C1467 1.390 . S
C1459 C1458 1.387 . S
C1459 C1461 1.387 . S
H1460 C1467 0.950 . S
C1461 C1459 1.387 . S
C1461 C1463 1.390 . S
C1461 H1465 0.950 . S
H1462 C1458 0.950 . S
C1463 C1461 1.390 . S
C1463 C1464 1.387 . S
C1463 H1466 0.950 . S
C1464 C1463 1.387 . S
C1464 C1467 1.387 . S
H1465 C1461 0.950 . S
H1466 C1463 0.950 . S
C1467 C1458 1.390 . S
C1467 H1460 0.950 . S
C1467 C1464 1.387 . S
C1468 C1469 1.387 . S
C1468 H1472 0.950 . S
C1468 C1477 1.390 . S
C1469 C1468 1.387 . S
C1469 C1471 1.387 . S
H1470 C1477 0.950 . S
C1471 C1469 1.387 . S
C1471 C1473 1.390 . S
C1471 H1475 0.950 . S
H1472 C1468 0.950 . S
C1473 C1471 1.390 . S
C1473 C1474 1.387 . S
C1473 H1476 0.950 . S
C1474 C1473 1.387 . S
C1474 C1477 1.387 . S
H1475 C1471 0.950 . S
H1476 C1473 0.950 . S
C1477 C1468 1.390 . S
C1477 H1470 0.950 . S
C1477 C1474 1.387 . S
C1478 C1479 1.387 . S
C1478 H1482 0.950 . S
C1478 C1487 1.390 . S
C1479 C1478 1.387 . S
C1479 C1481 1.387 . S
H1480 C1487 0.950 . S
C1481 C1479 1.387 . S
C1481 C1483 1.390 . S
C1481 H1485 0.950 . S
H1482 C1478 0.950 . S
C1483 C1481 1.390 . S
C1483 C1484 1.387 . S
C1483 H1486 0.950 . S
C1484 C1483 1.387 . S
C1484 C1487 1.387 . S
H1485 C1481 0.950 . S
H1486 C1483 0.950 . S
C1487 C1478 1.390 . S
C1487 H1480 0.950 . S
C1487 C1484 1.387 . S
C1488 C1489 1.387 . S
C1488 H1492 0.950 . S
C1488 C1497 1.390 . S
C1489 C1488 1.387 . S
C1489 C1491 1.387 . S
H1490 C1497 0.950 . S
C1491 C1489 1.387 . S
C1491 C1493 1.390 . S
C1491 H1495 0.950 . S
H1492 C1488 0.950 . S
C1493 C1491 1.390 . S
C1493 C1494 1.387 . S
C1493 H1496 0.950 . S
C1494 C1493 1.387 . S
C1494 C1497 1.387 . S
H1495 C1491 0.950 . S
H1496 C1493 0.950 . S
C1497 C1488 1.390 . S
C1497 H1490 0.950 . S
C1497 C1494 1.387 . S
C1498 C1499 1.387 . S
C1498 H1502 0.950 . S
C1498 C1507 1.390 . S
C1499 C1498 1.387 . S
C1499 C1501 1.387 . S
H1500 C1507 0.950 . S
C1501 C1499 1.387 . S
C1501 C1503 1.390 . S
C1501 H1505 0.950 . S
H1502 C1498 0.950 . S
C1503 C1501 1.390 . S
C1503 C1504 1.387 . S
C1503 H1506 0.950 . S
C1504 C1503 1.387 . S
C1504 C1507 1.387 . S
H1505 C1501 0.950 . S
H1506 C1503 0.950 . S
C1507 C1498 1.390 . S
C1507 H1500 0.950 . S
C1507 C1504 1.387 . S
C1508 C1509 1.387 . S
C1508 H1512 0.950 . S
C1508 C1517 1.390 . S
C1509 C1508 1.387 . S
C1509 C1511 1.387 . S
H1510 C1517 0.950 . S
C1511 C1509 1.387 . S
C1511 C1513 1.390 . S
C1511 H1515 0.950 . S
H1512 C1508 0.950 . S
C1513 C1511 1.390 . S
C1513 C1514 1.387 . S
C1513 H1516 0.950 . S
C1514 C1513 1.387 . S
C1514 C1517 1.387 . S
H1515 C1511 0.950 . S
H1516 C1513 0.950 . S
C1517 C1508 1.390 . S
C1517 H1510 0.950 . S
C1517 C1514 1.387 . S
C1518 C1519 1.387 . S
C1518 H1522 0.950 . S
C1518 C1527 1.390 . S
C1519 C1518 1.387 . S
C1519 C1521 1.387 . S
H1520 C1527 0.950 . S
C1521 C1519 1.387 . S
C1521 C1523 1.390 . S
C1521 H1525 0.950 . S
H1522 C1518 0.950 . S
C1523 C1521 1.390 . S
C1523 C1524 1.387 . S
C1523 H1526 0.950 . S
C1524 C1523 1.387 . S
C1524 C1527 1.387 . S
H1525 C1521 0.950 . S
H1526 C1523 0.950 . S
C1527 C1518 1.390 . S
C1527 H1520 0.950 . S
C1527 C1524 1.387 . S
C1528 C1529 1.387 . S
C1528 H1532 0.950 . S
C1528 C1537 1.390 . S
C1529 C1528 1.387 . S
C1529 C1531 1.387 . S
H1530 C1537 0.950 . S
C1531 C1529 1.387 . S
C1531 C1533 1.390 . S
C1531 H1535 0.950 . S
H1532 C1528 0.950 . S
C1533 C1531 1.390 . S
C1533 C1534 1.387 . S
C1533 H1536 0.950 . S
C1534 C1533 1.387 . S
C1534 C1537 1.387 . S
H1535 C1531 0.950 . S
H1536 C1533 0.950 . S
C1537 C1528 1.390 . S
C1537 H1530 0.950 . S
C1537 C1534 1.387 . S
C1538 C1539 1.387 . S
C1538 H1542 0.950 . S
C1538 C1547 1.390 . S
C1539 C1538 1.387 . S
C1539 C1541 1.387 . S
H1540 C1547 0.950 . S
C1541 C1539 1.387 . S
C1541 C1543 1.390 . S
C1541 H1545 0.950 . S
H1542 C1538 0.950 . S
C1543 C1541 1.390 . S
C1543 C1544 1.387 . S
C1543 H1546 0.950 . S
C1544 C1543 1.387 . S
C1544 C1547 1.387 . S
H1545 C1541 0.950 . S
H1546 C1543 0.950 . S
C1547 C1538 1.390 . S
C1547 H1540 0.950 . S
C1547 C1544 1.387 . S
C1548 C1549 1.387 . S
C1548 H1552 0.950 . S
C1548 C1557 1.390 . S
C1549 C1548 1.387 . S
C1549 C1551 1.387 . S
H1550 C1557 0.950 . S
C1551 C1549 1.387 . S
C1551 C1553 1.390 . S
C1551 H1555 0.950 . S
H1552 C1548 0.950 . S
C1553 C1551 1.390 . S
C1553 C1554 1.387 . S
C1553 H1556 0.950 . S
C1554 C1553 1.387 . S
C1554 C1557 1.387 . S
H1555 C1551 0.950 . S
H1556 C1553 0.950 . S
C1557 C1548 1.390 . S
C1557 H1550 0.950 . S
C1557 C1554 1.387 . S
C1558 C1559 1.387 . S
C1558 H1562 0.950 . S
C1558 C1567 1.390 . S
C1559 C1558 1.387 . S
C1559 C1561 1.387 . S
H1560 C1567 0.950 . S
C1561 C1559 1.387 . S
C1561 C1563 1.390 . S
C1561 H1565 0.950 . S
H1562 C1558 0.950 . S
C1563 C1561 1.390 . S
C1563 C1564 1.387 . S
C1563 H1566 0.950 . S
C1564 C1563 1.387 . S
C1564 C1567 1.387 . S
H1565 C1561 0.950 . S
H1566 C1563 0.950 . S
C1567 C1558 1.390 . S
C1567 H1560 0.950 . S
C1567 C1564 1.387 . S
C1568 C1569 1.387 . S
C1568 H1572 0.950 . S
C1568 C1577 1.390 . S
C1569 C1568 1.387 . S
C1569 C1571 1.387 . S
H1570 C1577 0.950 . S
C1571 C1569 1.387 . S
C1571 C1573 1.390 . S
C1571 H1575 0.950 . S
H1572 C1568 0.950 . S
C1573 C1571 1.390 . S
C1573 C1574 1.387 . S
C1573 H1576 0.950 . S
C1574 C1573 1.387 . S
C1574 C1577 1.387 . S
H1575 C1571 0.950 . S
H1576 C1573 0.950 . S
C1577 C1568 1.390 . S
C1577 H1570 0.950 . S
C1577 C1574 1.387 . S
C1578 C1579 1.387 . S
C1578 H1582 0.950 . S
C1578 C1587 1.390 . S
C1579 C1578 1.387 . S
C1579 C1581 1.387 . S
H1580 C1587 0.950 . S
C1581 C1579 1.387 . S
C1581 C1583 1.390 . S
C1581 H1585 0.950 . S
H1582 C1578 0.950 . S
C1583 C1581 1.390 . S
C1583 C1584 1.387 . S
C1583 H1586 0.950 . S
C1584 C1583 1.387 . S
C1584 C1587 1.387 . S
H1585 C1581 0.950 . S
H1586 C1583 0.950 . S
C1587 C1578 1.390 . S
C1587 H1580 0.950 . S
C1587 C1584 1.387 . S
C1588 C1589 1.387 . S
C1588 H1592 0.950 . S
C1588 C1597 1.390 . S
C1589 C1588 1.387 . S
C1589 C1591 1.387 . S
H1590 C1597 0.950 . S
C1591 C1589 1.387 . S
C1591 C1593 1.390 . S
C1591 H1595 0.950 . S
H1592 C1588 0.950 . S
C1593 C1591 1.390 . S
C1593 C1594 1.387 . S
C1593 H1596 0.950 . S
C1594 C1593 1.387 . S
C1594 C1597 1.387 . S
H1595 C1591 0.950 . S
H1596 C1593 0.950 . S
C1597 C1588 1.390 . S
C1597 H1590 0.950 . S
C1597 C1594 1.387 . S
C1598 C1599 1.387 . S
C1598 H1602 0.950 . S
C1598 C1607 1.390 . S
C1599 C1598 1.387 . S
C1599 C1601 1.387 . S
H1600 C1607 0.950 . S
C1601 C1599 1.387 . S
C1601 C1603 1.390 . S
C1601 H1605 0.950 . S
H1602 C1598 0.950 . S
C1603 C1601 1.390 . S
C1603 C1604 1.387 . S
C1603 H1606 0.950 . S
C1604 C1603 1.387 . S
C1604 C1607 1.387 . S
H1605 C1601 0.950 . S
H1606 C1603 0.950 . S
C1607 C1598 1.390 . S
C1607 H1600 0.950 . S
C1607 C1604 1.387 . S
C1608 C1609 1.387 . S
C1608 H1612 0.950 . S
C1608 C1617 1.390 . S
C1609 C1608 1.387 . S
C1609 C1611 1.387 . S
H1610 C1617 0.950 . S
C1611 C1609 1.387 . S
C1611 C1613 1.390 . S
C1611 H1615 0.950 . S
H1612 C1608 0.950 . S
C1613 C1611 1.390 . S
C1613 C1614 1.387 . S
C1613 H1616 0.950 . S
C1614 C1613 1.387 . S
C1614 C1617 1.387 . S
H1615 C1611 0.950 . S
H1616 C1613 0.950 . S
C1617 C1608 1.390 . S
C1617 H1610 0.950 . S
C1617 C1614 1.387 . S
C1618 C1619 1.387 . S
C1618 H1622 0.950 . S
C1618 C1627 1.390 . S
C1619 C1618 1.387 . S
C1619 C1621 1.387 . S
H1620 C1627 0.950 . S
C1621 C1619 1.387 . S
C1621 C1623 1.390 . S
C1621 H1625 0.950 . S
H1622 C1618 0.950 . S
C1623 C1621 1.390 . S
C1623 C1624 1.387 . S
C1623 H1626 0.950 . S
C1624 C1623 1.387 . S
C1624 C1627 1.387 . S
H1625 C1621 0.950 . S
H1626 C1623 0.950 . S
C1627 C1618 1.390 . S
C1627 H1620 0.950 . S
C1627 C1624 1.387 . S
C1628 C1629 1.387 . S
C1628 H1632 0.950 . S
C1628 C1637 1.390 . S
C1629 C1628 1.387 . S
C1629 C1631 1.387 . S
H1630 C1637 0.950 . S
C1631 C1629 1.387 . S
C1631 C1633 1.390 . S
C1631 H1635 0.950 . S
H1632 C1628 0.950 . S
C1633 C1631 1.390 . S
C1633 C1634 1.387 . S
C1633 H1636 0.950 . S
C1634 C1633 1.387 . S
C1634 C1637 1.387 . S
H1635 C1631 0.950 . S
H1636 C1633 0.950 . S
C1637 C1628 1.390 . S
C1637 H1630 0.950 . S
C1637 C1634 1.387 . S
C1638 C1639 1.387 . S
C1638 H1642 0.950 . S
C1638 C1647 1.390 . S
C1639 C1638 1.387 . S
C1639 C1641 1.387 . S
H1640 C1647 0.950 . S
C1641 C1639 1.387 . S
C1641 C1643 1.390 . S
C1641 H1645 0.950 . S
H1642 C1638 0.950 . S
C1643 C1641 1.390 . S
C1643 C1644 1.387 . S
C1643 H1646 0.950 . S
C1644 C1643 1.387 . S
C1644 C1647 1.387 . S
H1645 C1641 0.950 . S
H1646 C1643 0.950 . S
C1647 C1638 1.390 . S
C1647 H1640 0.950 . S
C1647 C1644 1.387 . S
C1648 C1649 1.387 . S
C1648 H1652 0.950 . S
C1648 C1657 1.390 . S
C1649 C1648 1.387 . S
C1649 C1651 1.387 . S
H1650 C1657 0.950 . S
C1651 C1649 1.387 . S
C1651 C1653 1.390 . S
C1651 H1655 0.950 . S
H1652 C1648 0.950 . S
C1653 C1651 1.390 . S
C1653 C1654 1.387 . S
C1653 H1656 0.950 . S
C1654 C1653 1.387 . S
C1654 C1657 1.387 . S
H1655 C1651 0.950 . S
H1656 C1653 0.950 . S
C1657 C1648 1.390 . S
C1657 H1650 0.950 . S
C1657 C1654 1.387 . S
C1658 C1659 1.387 . S
C1658 H1662 0.950 . S
C1658 C1667 1.390 . S
C1659 C1658 1.387 . S
C1659 C1661 1.387 . S
H1660 C1667 0.950 . S
C1661 C1659 1.387 . S
C1661 C1663 1.390 . S
C1661 H1665 0.950 . S
H1662 C1658 0.950 . S
C1663 C1661 1.390 . S
C1663 C1664 1.387 . S
C1663 H1666 0.950 . S
C1664 C1663 1.387 . S
C1664 C1667 1.387 . S
H1665 C1661 0.950 . S
H1666 C1663 0.950 . S
C1667 C1658 1.390 . S
C1667 H1660 0.950 . S
C1667 C1664 1.387 . S
C1668 C1669 1.387 . S
C1668 H1672 0.950 . S
C1668 C1677 1.390 . S
C1669 C1668 1.387 . S
C1669 C1671 1.387 . S
H1670 C1677 0.950 . S
C1671 C1669 1.387 . S
C1671 C1673 1.390 . S
C1671 H1675 0.950 . S
H1672 C1668 0.950 . S
C1673 C1671 1.390 . S
C1673 C1674 1.387 . S
C1673 H1676 0.950 . S
C1674 C1673 1.387 . S
C1674 C1677 1.387 . S
H1675 C1671 0.950 . S
H1676 C1673 0.950 . S
C1677 C1668 1.390 . S
C1677 H1670 0.950 . S
C1677 C1674 1.387 . S
C1678 C1679 1.387 . S
C1678 H1682 0.950 . S
C1678 C1687 1.390 . S
C1679 C1678 1.387 . S
C1679 C1681 1.387 . S
H1680 C1687 0.950 . S
C1681 C1679 1.387 . S
C1681 C1683 1.390 . S
C1681 H1685 0.950 . S
H1682 C1678 0.950 . S
C1683 C1681 1.390 . S
C1683 C1684 1.387 . S
C1683 H1686 0.950 . S
C1684 C1683 1.387 . S
C1684 C1687 1.387 . S
H1685 C1681 0.950 . S
H1686 C1683 0.950 . S
C1687 C1678 1.390 . S
C1687 H1680 0.950 . S
C1687 C1684 1.387 . S
C1688 C1689 1.387 . S
C1688 H1692 0.950 . S
C1688 C1697 1.390 . S
C1689 C1688 1.387 . S
C1689 C1691 1.387 . S
H1690 C1697 0.950 . S
C1691 C1689 1.387 . S
C1691 C1693 1.390 . S
C1691 H1695 0.950 . S
H1692 C1688 0.950 . S
C1693 C1691 1.390 . S
C1693 C1694 1.387 . S
C1693 H1696 0.950 . S
C1694 C1693 1.387 . S
C1694 C1697 1.387 . S
H1695 C1691 0.950 . S
H1696 C1693 0.950 . S
C1697 C1688 1.390 . S
C1697 H1690 0.950 . S
C1697 C1694 1.387 . S
C1698 C1699 1.387 . S
C1698 H1702 0.950 . S
C1698 C1707 1.390 . S
C1699 C1698 1.387 . S
C1699 C1701 1.387 . S
H1700 C1707 0.950 . S
C1701 C1699 1.387 . S
C1701 C1703 1.390 . S
C1701 H1705 0.950 . S
H1702 C1698 0.950 . S
C1703 C1701 1.390 . S
C1703 C1704 1.387 . S
C1703 H1706 0.950 . S
C1704 C1703 1.387 . S
C1704 C1707 1.387 . S
H1705 C1701 0.950 . S
H1706 C1703 0.950 . S
C1707 C1698 1.390 . S
C1707 H1700 0.950 . S
C1707 C1704 1.387 . S
C1708 C1709 1.387 . S
C1708 H1712 0.950 . S
C1708 C1717 1.390 . S
C1709 C1708 1.387 . S
C1709 C1711 1.387 . S
H1710 C1717 0.950 . S
C1711 C1709 1.387 . S
C1711 C1713 1.390 . S
C1711 H1715 0.950 . S
H1712 C1708 0.950 . S
C1713 C1711 1.390 . S
C1713 C1714 1.387 . S
C1713 H1716 0.950 . S
C1714 C1713 1.387 . S
C1714 C1717 1.387 . S
H1715 C1711 0.950 . S
H1716 C1713 0.950 . S
C1717 C1708 1.390 . S
C1717 H1710 0.950 . S
C1717 C1714 1.387 . S
C1718 C1719 1.387 . S
C1718 H1722 0.950 . S
C1718 C1727 1.390 . S
C1719 C1718 1.387 . S
C1719 C1721 1.387 . S
H1720 C1727 0.950 . S
C1721 C1719 1.387 . S
C1721 C1723 1.390 . S
C1721 H1725 0.950 . S
H1722 C1718 0.950 . S
C1723 C1721 1.390 . S
C1723 C1724 1.387 . S
C1723 H1726 0.950 . S
C1724 C1723 1.387 . S
C1724 C1727 1.387 . S
H1725 C1721 0.950 . S
H1726 C1723 0.950 . S
C1727 C1718 1.390 . S
C1727 H1720 0.950 . S
C1727 C1724 1.387 . S
C1728 C1729 1.387 . S
C1728 H1732 0.950 . S
C1728 C1737 1.390 . S
C1729 C1728 1.387 . S
C1729 C1731 1.387 . S
H1730 C1737 0.950 . S
C1731 C1729 1.387 . S
C1731 C1733 1.390 . S
C1731 H1735 0.950 . S
H1732 C1728 0.950 . S
C1733 C1731 1.390 . S
C1733 C1734 1.387 . S
C1733 H1736 0.950 . S
C1734 C1733 1.387 . S
C1734 C1737 1.387 . S
H1735 C1731 0.950 . S
H1736 C1733 0.950 . S
C1737 C1728 1.390 . S
C1737 H1730 0.950 . S
C1737 C1734 1.387 . S
C1738 C1739 1.387 . S
C1738 H1742 0.950 . S
C1738 C1747 1.390 . S
C1739 C1738 1.387 . S
C1739 C1741 1.387 . S
H1740 C1747 0.950 . S
C1741 C1739 1.387 . S
C1741 C1743 1.390 . S
C1741 H1745 0.950 . S
H1742 C1738 0.950 . S
C1743 C1741 1.390 . S
C1743 C1744 1.387 . S
C1743 H1746 0.950 . S
C1744 C1743 1.387 . S
C1744 C1747 1.387 . S
H1745 C1741 0.950 . S
H1746 C1743 0.950 . S
C1747 C1738 1.390 . S
C1747 H1740 0.950 . S
C1747 C1744 1.387 . S
C1748 C1749 1.387 . S
C1748 H1752 0.950 . S
C1748 C1757 1.390 . S
C1749 C1748 1.387 . S
C1749 C1751 1.387 . S
H1750 C1757 0.950 . S
C1751 C1749 1.387 . S
C1751 C1753 1.390 . S
C1751 H1755 0.950 . S
H1752 C1748 0.950 . S
C1753 C1751 1.390 . S
C1753 C1754 1.387 . S
C1753 H1756 0.950 . S
C1754 C1753 1.387 . S
C1754 C1757 1.387 . S
H1755 C1751 0.950 . S
H1756 C1753 0.950 . S
C1757 C1748 1.390 . S
C1757 H1750 0.950 . S
C1757 C1754 1.387 . S
C1758 C1759 1.387 . S
C1758 H1762 0.950 . S
C1758 C1767 1.390 . S
C1759 C1758 1.387 . S
C1759 C1761 1.387 . S
H1760 C1767 0.950 . S
C1761 C1759 1.387 . S
C1761 C1763 1.390 . S
C1761 H1765 0.950 . S
H1762 C1758 0.950 . S
C1763 C1761 1.390 . S
C1763 C1764 1.387 . S
C1763 H1766 0.950 . S
C1764 C1763 1.387 . S
C1764 C1767 1.387 . S
H1765 C1761 0.950 . S
H1766 C1763 0.950 . S
C1767 C1758 1.390 . S
C1767 H1760 0.950 . S
C1767 C1764 1.387 . S
C1768 C1769 1.387 . S
C1768 H1772 0.950 . S
C1768 C1777 1.390 . S
C1769 C1768 1.387 . S
C1769 C1771 1.387 . S
H1770 C1777 0.950 . S
C1771 C1769 1.387 . S
C1771 C1773 1.390 . S
C1771 H1775 0.950 . S
H1772 C1768 0.950 . S
C1773 C1771 1.390 . S
C1773 C1774 1.387 . S
C1773 H1776 0.950 . S
C1774 C1773 1.387 . S
C1774 C1777 1.387 . S
H1775 C1771 0.950 . S
H1776 C1773 0.950 . S
C1777 C1768 1.390 . S
C1777 H1770 0.950 . S
C1777 C1774 1.387 . S
C1778 C1779 1.387 . S
C1778 H1782 0.950 . S
C1778 C1787 1.390 . S
C1779 C1778 1.387 . S
C1779 C1781 1.387 . S
H1780 C1787 0.950 . S
C1781 C1779 1.387 . S
C1781 C1783 1.390 . S
C1781 H1785 0.950 . S
H1782 C1778 0.950 . S
C1783 C1781 1.390 . S
C1783 C1784 1.387 . S
C1783 H1786 0.950 . S
C1784 C1783 1.387 . S
C1784 C1787 1.387 . S
H1785 C1781 0.950 . S
H1786 C1783 0.950 . S
C1787 C1778 1.390 . S
C1787 H1780 0.950 . S
C1787 C1784 1.387 . S
C1788 C1789 1.387 . S
C1788 H1792 0.950 . S
C1788 C1797 1.390 . S
C1789 C1788 1.387 . S
C1789 C1791 1.387 . S
H1790 C1797 0.950 . S
C1791 C1789 1.387 . S
C1791 C1793 1.390 . S
C1791 H1795 0.950 . S
H1792 C1788 0.950 . S
C1793 C1791 1.390 . S
C1793 C1794 1.387 . S
C1793 H1796 0.950 . S
C1794 C1793 1.387 . S
C1794 C1797 1.387 . S
H1795 C1791 0.950 . S
H1796 C1793 0.950 . S
C1797 C1788 1.390 . S
C1797 H1790 0.950 . S
C1797 C1794 1.387 . S
C1798 C1799 1.387 . S
C1798 H1802 0.950 . S
C1798 C1807 1.390 . S
C1799 C1798 1.387 . S
C1799 C1801 1.387 . S
H1800 C1807 0.950 . S
C1801 C1799 1.387 . S
C1801 C1803 1.390 . S
C1801 H1805 0.950 . S
H1802 C1798 0.950 . S
C1803 C1801 1.390 . S
C1803 C1804 1.387 . S
C1803 H1806 0.950 . S
C1804 C1803 1.387 . S
C1804 C1807 1.387 . S
H1805 C1801 0.950 . S
H1806 C1803 0.950 . S
C1807 C1798 1.390 . S
C1807 H1800 0.950 . S
C1807 C1804 1.387 . S
C1808 C1809 1.387 . S
C1808 H1812 0.950 . S
C1808 C1817 1.390 . S
C1809 C1808 1.387 . S
C1809 C1811 1.387 . S
H1810 C1817 0.950 . S
C1811 C1809 1.387 . S
C1811 C1813 1.390 . S
C1811 H1815 0.950 . S
H1812 C1808 0.950 . S
C1813 C1811 1.390 . S
C1813 C1814 1.387 . S
C1813 H1816 0.950 . S
C1814 C1813 1.387 . S
C1814 C1817 1.387 . S
H1815 C1811 0.950 . S
H1816 C1813 0.950 . S
C1817 C1808 1.390 . S
C1817 H1810 0.950 . S
C1817 C1814 1.387 . S
C1818 C1819 1.387 . S
C1818 H1822 0.950 . S
C1818 C1827 1.390 . S
C1819 C1818 1.387 . S
C1819 C1821 1.387 . S
H1820 C1827 0.950 . S
C1821 C1819 1.387 . S
C1821 C1823 1.390 . S
C1821 H1825 0.950 . S
H1822 C1818 0.950 . S
C1823 C1821 1.390 . S
C1823 C1824 1.387 . S
C1823 H1826 0.950 . S
C1824 C1823 1.387 . S
C1824 C1827 1.387 . S
H1825 C1821 0.950 . S
H1826 C1823 0.950 . S
C1827 C1818 1.390 . S
C1827 H1820 0.950 . S
C1827 C1824 1.387 . S
C1828 C1829 1.387 . S
C1828 H1832 0.950 . S
C1828 C1837 1.390 . S
C1829 C1828 1.387 . S
C1829 C1831 1.387 . S
H1830 C1837 0.950 . S
C1831 C1829 1.387 . S
C1831 C1833 1.390 . S
C1831 H1835 0.950 . S
H1832 C1828 0.950 . S
C1833 C1831 1.390 . S
C1833 C1834 1.387 . S
C1833 H1836 0.950 . S
C1834 C1833 1.387 . S
C1834 C1837 1.387 . S
H1835 C1831 0.950 . S
H1836 C1833 0.950 . S
C1837 C1828 1.390 . S
C1837 H1830 0.950 . S
C1837 C1834 1.387 . S
C1838 C1839 1.387 . S
C1838 H1842 0.950 . S
C1838 C1847 1.390 . S
C1839 C1838 1.387 . S
C1839 C1841 1.387 . S
H1840 C1847 0.950 . S
C1841 C1839 1.387 . S
C1841 C1843 1.390 . S
C1841 H1845 0.950 . S
H1842 C1838 0.950 . S
C1843 C1841 1.390 . S
C1843 C1844 1.387 . S
C1843 H1846 0.950 . S
C1844 C1843 1.387 . S
C1844 C1847 1.387 . S
H1845 C1841 0.950 . S
H1846 C1843 0.950 . S
C1847 C1838 1.390 . S
C1847 H1840 0.950 . S
C1847 C1844 1.387 . S
C1848 C1849 1.387 . S
C1848 H1852 0.950 . S
C1848 C1857 1.390 . S
C1849 C1848 1.387 . S
C1849 C1851 1.387 . S
H1850 C1857 0.950 . S
C1851 C1849 1.387 . S
C1851 C1853 1.390 . S
C1851 H1855 0.950 . S
H1852 C1848 0.950 . S
C1853 C1851 1.390 . S
C1853 C1854 1.387 . S
C1853 H1856 0.950 . S
C1854 C1853 1.387 . S
C1854 C1857 1.387 . S
H1855 C1851 0.950 . S
H1856 C1853 0.950 . S
C1857 C1848 1.390 . S
C1857 H1850 0.950 . S
C1857 C1854 1.387 . S
C1858 C1859 1.387 . S
C1858 H1862 0.950 . S
C1858 C1867 1.390 . S
C1859 C1858 1.387 . S
C1859 C1861 1.387 . S
H1860 C1867 0.950 . S
C1861 C1859 1.387 . S
C1861 C1863 1.390 . S
C1861 H1865 0.950 . S
H1862 C1858 0.950 . S
C1863 C1861 1.390 . S
C1863 C1864 1.387 . S
C1863 H1866 0.950 . S
C1864 C1863 1.387 . S
C1864 C1867 1.387 . S
H1865 C1861 0.950 . S
H1866 C1863 0.950 . S
C1867 C1858 1.390 . S
C1867 H1860 0.950 . S
C1867 C1864 1.387 . S
C1868 C1869 1.387 . S
C1868 H1872 0.950 . S
C1868 C1877 1.390 . S
C1869 C1868 1.387 . S
C1869 C1871 1.387 . S
H1870 C1877 0.950 . S
C1871 C1869 1.387 . S
C1871 C1873 1.390 . S
C1871 H1875 0.950 . S
H1872 C1868 0.950 . S
C1873 C1871 1.390 . S
C1873 C1874 1.387 . S
C1873 H1876 0.950 . S
C1874 C1873 1.387 . S
C1874 C1877 1.387 . S
H1875 C1871 0.950 . S
H1876 C1873 0.950 . S
C1877 C1868 1.390 . S
C1877 H1870 0.950 . S
C1877 C1874 1.387 . S
C1878 C1879 1.387 . S
C1878 H1882 0.950 . S
C1878 C1887 1.390 . S
C1879 C1878 1.387 . S
C1879 C1881 1.387 . S
H1880 C1887 0.950 . S
C1881 C1879 1.387 . S
C1881 C1883 1.390 . S
C1881 H1885 0.950 . S
H1882 C1878 0.950 . S
C1883 C1881 1.390 . S
C1883 C1884 1.387 . S
C1883 H1886 0.950 . S
C1884 C1883 1.387 . S
C1884 C1887 1.387 . S
H1885 C1881 0.950 . S
H1886 C1883 0.950 . S
C1887 C1878 1.390 . S
C1887 H1880 0.950 . S
C1887 C1884 1.387 . S
C1888 C1889 1.387 . S
C1888 H1892 0.950 . S
C1888 C1897 1.390 . S
C1889 C1888 1.387 . S
C1889 C1891 1.387 . S
H1890 C1897 0.950 . S
C1891 C1889 1.387 . S
C1891 C1893 1.390 . S
C1891 H1895 0.950 . S
H1892 C1888 0.950 . S
C1893 C1891 1.390 . S
C1893 C1894 1.387 . S
C1893 H1896 0.950 . S
C1894 C1893 1.387 . S
C1894 C1897 1.387 . S
H1895 C1891 0.950 . S
H1896 C1893 0.950 . S
C1897 C1888 1.390 . S
C1897 H1890 0.950 . S
C1897 C1894 1.387 . S
C1898 C1899 1.387 . S
C1898 H1902 0.950 . S
C1898 C1907 1.390 . S
C1899 C1898 1.387 . S
C1899 C1901 1.387 . S
H1900 C1907 0.950 . S
C1901 C1899 1.387 . S
C1901 C1903 1.390 . S
C1901 H1905 0.950 . S
H1902 C1898 0.950 . S
C1903 C1901 1.390 . S
C1903 C1904 1.387 . S
C1903 H1906 0.950 . S
C1904 C1903 1.387 . S
C1904 C1907 1.387 . S
H1905 C1901 0.950 . S
H1906 C1903 0.950 . S
C1907 C1898 1.390 . S
C1907 H1900 0.950 . S
C1907 C1904 1.387 . S
C1908 C1909 1.387 . S
C1908 H1912 0.950 . S
C1908 C1917 1.390 . S
C1909 C1908 1.387 . S
C1909 C1911 1.387 . S
H1910 C1917 0.950 . S
C1911 C1909 1.387 . S
C1911 C1913 1.390 . S
C1911 H1915 0.950 . S
H1912 C1908 0.950 . S
C1913 C1911 1.390 . S
C1913 C1914 1.387 . S
C1913 H1916 0.950 . S
C1914 C1913 1.387 . S
C1914 C1917 1.387 . S
H1915 C1911 0.950 . S
H1916 C1913 0.950 . S
C1917 C1908 1.390 . S
C1917 H1910 0.950 . S
C1917 C1914 1.387 . S
C1918 C1919 1.387 . S
C1918 H1922 0.950 . S
C1918 C1927 1.390 . S
C1919 C1918 1.387 . S
C1919 C1921 1.387 . S
H1920 C1927 0.950 . S
C1921 C1919 1.387 . S
C1921 C1923 1.390 . S
C1921 H1925 0.950 . S
H1922 C1918 0.950 . S
C1923 C1921 1.390 . S
C1923 C1924 1.387 . S
C1923 H1926 0.950 . S
C1924 C1923 1.387 . S
C1924 C1927 1.387 . S
H1925 C1921 0.950 . S
H1926 C1923 0.950 . S
C1927 C1918 1.390 . S
C1927 H1920 0.950 . S
C1927 C1924 1.387 . S
C1928 C1929 1.387 . S
C1928 H1932 0.950 . S
C1928 C1937 1.390 . S
C1929 C1928 1.387 . S
C1929 C1931 1.387 . S
H1930 C1937 0.950 . S
C1931 C1929 1.387 . S
C1931 C1933 1.390 . S
C1931 H1935 0.950 . S
H1932 C1928 0.950 . S
C1933 C1931 1.390 . S
C1933 C1934 1.387 . S
C1933 H1936 0.950 . S
C1934 C1933 1.387 . S
C1934 C1937 1.387 . S
H1935 C1931 0.950 . S
H1936 C1933 0.950 . S
C1937 C1928 1.390 . S
C1937 H1930 0.950 . S
C1937 C1934 1.387 . S
C1938 C1939 1.387 . S
C1938 H1942 0.950 . S
C1938 C1947 1.390 . S
C1939 C1938 1.387 . S
C1939 C1941 1.387 . S
H1940 C1947 0.950 . S
C1941 C1939 1.387 . S
C1941 C1943 1.390 . S
C1941 H1945 0.950 . S
H1942 C1938 0.950 . S
C1943 C1941 1.390 . S
C1943 C1944 1.387 . S
C1943 H1946 0.950 . S
C1944 C1943 1.387 . S
C1944 C1947 1.387 . S
H1945 C1941 0.950 . S
H1946 C1943 0.950 . S
C1947 C1938 1.390 . S
C1947 H1940 0.950 . S
C1947 C1944 1.387 . S
C1948 C1949 1.387 . S
C1948 H1952 0.950 . S
C1948 C1957 1.390 . S
C1949 C1948 1.387 . S
C1949 C1951 1.387 . S
H1950 C1957 0.950 . S
C1951 C1949 1.387 . S
C1951 C1953 1.390 . S
C1951 H1955 0.950 . S
H1952 C1948 0.950 . S
C1953 C1951 1.390 . S
C1953 C1954 1.387 . S
C1953 H1956 0.950 . S
C1954 C1953 1.387 . S
C1954 C1957 1.387 . S
H1955 C1951 0.950 . S
H1956 C1953 0.950 . S
C1957 C1948 1.390 . S
C1957 H1950 0.950 . S
C1957 C1954 1.387 . S
C1958 C1959 1.387 . S
C1958 H1962 0.950 . S
C1958 C1967 1.390 . S
C1959 C1958 1.387 . S
C1959 C1961 1.387 . S
H1960 C1967 0.950 . S
C1961 C1959 1.387 . S
C1961 C1963 1.390 . S
C1961 H1965 0.950 . S
H1962 C1958 0.950 . S
C1963 C1961 1.390 . S
C1963 C1964 1.387 . S
C1963 H1966 0.950 . S
C1964 C1963 1.387 . S
C1964 C1967 1.387 . S
H1965 C1961 0.950 . S
H1966 C1963 0.950 . S
C1967 C1958 1.390 . S
C1967 H1960 0.950 . S
C1967 C1964 1.387 . S
C1968 C1969 1.387 . S
C1968 H1972 0.950 . S
C1968 C1977 1.390 . S
C1969 C1968 1.387 . S
C1969 C1971 1.387 . S
H1970 C1977 0.950 . S
C1971 C1969 1.387 . S
C1971 C1973 1.390 . S
C1971 H1975 0.950 . S
H1972 C1968 0.950 . S
C1973 C1971 1.390 . S
C1973 C1974 1.387 . S
C1973 H1976 0.950 . S
C1974 C1973 1.387 . S
C1974 C1977 1.387 . S
H1975 C1971 0.950 . S
H1976 C1973 0.950 . S
C1977 C1968 1.390 . S
C1977 H1970 0.950 . S
C1977 C1974 1.387 . S
C1978 C1979 1.387 . S
C1978 H1982 0.950 . S
C1978 C1987 1.390 . S
C1979 C1978 1.387 . S
C1979 C1981 1.387 . S
H1980 C1987 0.950 . S
C1981 C1979 1.387 . S
C1981 C1983 1.390 . S
C1981 H1985 0.950 . S
H1982 C1978 0.950 . S
C1983 C1981 1.390 . S
C1983 C1984 1.387 . S
C1983 H1986 0.950 . S
C1984 C1983 1.387 . S
C1984 C1987 1.387 . S
H1985 C1981 0.950 . S
H1986 C1983 0.950 . S
C1987 C1978 1.390 . S
C1987 H1980 0.950 . S
C1987 C1984 1.387 . S
C1988 C1989 1.387 . S
C1988 H1992 0.950 . S
C1988 C1997 1.390 . S
C1989 C1988 1.387 . S
C1989 C1991 1.387 . S
H1990 C1997 0.950 . S
C1991 C1989 1.387 . S
C1991 C1993 1.390 . S
C1991 H1995 0.950 . S
H1992 C1988 0.950 . S
C1993 C1991 1.390 . S
C1993 C1994 1.387 . S
C1993 H1996 0.950 . S
C1994 C1993 1.387 . S
C1994 C1997 1.387 . S
H1995 C1991 0.950 . S
H1996 C1993 0.950 . S
C1997 C1988 1.390 . S
C1997 H1990 0.950 . S
C1997 C1994 1.387 . S
C1998 C1999 1.387 . S
C1998 H2002 0.950 . S
C1998 C2007 1.390 . S
C1999 C1998 1.387 . S
C1999 C2001 1.387 . S
H2000 C2007 0.950 . S
C2001 C1999 1.387 . S
C2001 C2003 1.390 . S
C2001 H2005 0.950 . S
H2002 C1998 0.950 . S
C2003 C2001 1.390 . S
C2003 C2004 1.387 . S
C2003 H2006 0.950 . S
C2004 C2003 1.387 . S
C2004 C2007 1.387 . S
H2005 C2001 0.950 . S
H2006 C2003 0.950 . S
C2007 C1998 1.390 . S
C2007 H2000 0.950 . S
C2007 C2004 1.387 . S
C2008 C2009 1.387 . S
C2008 H2012 0.950 . S
C2008 C2017 1.390 . S
C2009 C2008 1.387 . S
C2009 C2011 1.387 . S
H2010 C2017 0.950 . S
C2011 C2009 1.387 . S
C2011 C2013 1.390 . S
C2011 H2015 0.950 . S
H2012 C2008 0.950 . S
C2013 C2011 1.390 . S
C2013 C2014 1.387 . S
C2013 H2016 0.950 . S
C2014 C2013 1.387 . S
C2014 C2017 1.387 . S
H2015 C2011 0.950 . S
H2016 C2013 0.950 . S
C2017 C2008 1.390 . S
C2017 H2010 0.950 . S
C2017 C2014 1.387 . S
C2018 C2019 1.387 . S
C2018 H2022 0.950 . S
C2018 C2027 1.390 . S
C2019 C2018 1.387 . S
C2019 C2021 1.387 . S
H2020 C2027 0.950 . S
C2021 C2019 1.387 . S
C2021 C2023 1.390 . S
C2021 H2025 0.950 . S
H2022 C2018 0.950 . S
C2023 C2021 1.390 . S
C2023 C2024 1.387 . S
C2023 H2026 0.950 . S
C2024 C2023 1.387 . S
C2024 C2027 1.387 . S
H2025 C2021 0.950 . S
H2026 C2023 0.950 . S
C2027 C2018 1.390 . S
C2027 H2020 0.950 . S
C2027 C2024 1.387 . S
C2028 C2029 1.387 . S
C2028 H2032 0.950 . S
C2028 C2037 1.390 . S
C2029 C2028 1.387 . S
C2029 C2031 1.387 . S
H2030 C2037 0.950 . S
C2031 C2029 1.387 . S
C2031 C2033 1.390 . S
C2031 H2035 0.950 . S
H2032 C2028 0.950 . S
C2033 C2031 1.390 . S
C2033 C2034 1.387 . S
C2033 H2036 0.950 . S
C2034 C2033 1.387 . S
C2034 C2037 1.387 . S
H2035 C2031 0.950 . S
H2036 C2033 0.950 . S
C2037 C2028 1.390 . S
C2037 H2030 0.950 . S
C2037 C2034 1.387 . S
C2038 C2039 1.387 . S
C2038 H2042 0.950 . S
C2038 C2047 1.390 . S
C2039 C2038 1.387 . S
C2039 C2041 1.387 . S
H2040 C2047 0.950 . S
C2041 C2039 1.387 . S
C2041 C2043 1.390 . S
C2041 H2045 0.950 . S
H2042 C2038 0.950 . S
C2043 C2041 1.390 . S
C2043 C2044 1.387 . S
C2043 H2046 0.950 . S
C2044 C2043 1.387 . S
C2044 C2047 1.387 . S
H2045 C2041 0.950 . S
H2046 C2043 0.950 . S
C2047 C2038 1.390 . S
C2047 H2040 0.950 . S
C2047 C2044 1.387 . S
C2048 C2049 1.387 . S
C2048 H2052 0.950 . S
C2048 C2057 1.390 . S
C2049 C2048 1.387 . S
C2049 C2051 1.387 . S
H2050 C2057 0.950 . S
C2051 C2049 1.387 . S
C2051 C2053 1.390 . S
C2051 H2055 0.950 . S
H2052 C2048 0.950 . S
C2053 C2051 1.390 . S
C2053 C2054 1.387 . S
C2053 H2056 0.950 . S
C2054 C2053 1.387 . S
C2054 C2057 1.387 . S
H2055 C2051 0.950 . S
H2056 C2053 0.950 . S
C2057 C2048 1.390 . S
C2057 H2050 0.950 . S
C2057 C2054 1.387 . S
C2058 C2059 1.387 . S
C2058 H2062 0.950 . S
C2058 C2067 1.390 . S
C2059 C2058 1.387 . S
C2059 C2061 1.387 . S
H2060 C2067 0.950 . S
C2061 C2059 1.387 . S
C2061 C2063 1.390 . S
C2061 H2065 0.950 . S
H2062 C2058 0.950 . S
C2063 C2061 1.390 . S
C2063 C2064 1.387 . S
C2063 H2066 0.950 . S
C2064 C2063 1.387 . S
C2064 C2067 1.387 . S
H2065 C2061 0.950 . S
H2066 C2063 0.950 . S
C2067 C2058 1.390 . S
C2067 H2060 0.950 . S
C2067 C2064 1.387 . S
C2068 C2069 1.387 . S
C2068 H2072 0.950 . S
C2068 C2077 1.390 . S
C2069 C2068 1.387 . S
C2069 C2071 1.387 . S
H2070 C2077 0.950 . S
C2071 C2069 1.387 . S
C2071 C2073 1.390 . S
C2071 H2075 0.950 . S
H2072 C2068 0.950 . S
C2073 C2071 1.390 . S
C2073 C2074 1.387 . S
C2073 H2076 0.950 . S
C2074 C2073 1.387 . S
C2074 C2077 1.387 . S
H2075 C2071 0.950 . S
H2076 C2073 0.950 . S
C2077 C2068 1.390 . S
C2077 H2070 0.950 . S
C2077 C2074 1.387 . S
C2078 C2079 1.387 . S
C2078 H2082 0.950 . S
C2078 C2087 1.390 . S
C2079 C2078 1.387 . S
C2079 C2081 1.387 . S
H2080 C2087 0.950 . S
C2081 C2079 1.387 . S
C2081 C2083 1.390 . S
C2081 H2085 0.950 . S
H2082 C2078 0.950 . S
C2083 C2081 1.390 . S
C2083 C2084 1.387 . S
C2083 H2086 0.950 . S
C2084 C2083 1.387 . S
C2084 C2087 1.387 . S
H2085 C2081 0.950 . S
H2086 C2083 0.950 . S
C2087 C2078 1.390 . S
C2087 H2080 0.950 . S
C2087 C2084 1.387 . S
C2088 C2089 1.387 . S
C2088 H2092 0.950 . S
C2088 C2097 1.390 . S
C2089 C2088 1.387 . S
C2089 C2091 1.387 . S
H2090 C2097 0.950 . S
C2091 C2089 1.387 . S
C2091 C2093 1.390 . S
C2091 H2095 0.950 . S
H2092 C2088 0.950 . S
C2093 C2091 1.390 . S
C2093 C2094 1.387 . S
C2093 H2096 0.950 . S
C2094 C2093 1.387 . S
C2094 C2097 1.387 . S
H2095 C2091 0.950 . S
H2096 C2093 0.950 . S
C2097 C2088 1.390 . S
C2097 H2090 0.950 . S
C2097 C2094 1.387 . S
C2098 C2099 1.387 . S
C2098 H2102 0.950 . S
C2098 C2107 1.390 . S
C2099 C2098 1.387 . S
C2099 C2101 1.387 . S
H2100 C2107 0.950 . S
C2101 C2099 1.387 . S
C2101 C2103 1.390 . S
C2101 H2105 0.950 . S
H2102 C2098 0.950 . S
C2103 C2101 1.390 . S
C2103 C2104 1.387 . S
C2103 H2106 0.950 . S
C2104 C2103 1.387 . S
C2104 C2107 1.387 . S
H2105 C2101 0.950 . S
H2106 C2103 0.950 . S
C2107 C2098 1.390 . S
C2107 H2100 0.950 . S
C2107 C2104 1.387 . S
C2108 C2109 1.387 . S
C2108 H2112 0.950 . S
C2108 C2117 1.390 . S
C2109 C2108 1.387 . S
C2109 C2111 1.387 . S
H2110 C2117 0.950 . S
C2111 C2109 1.387 . S
C2111 C2113 1.390 . S
C2111 H2115 0.950 . S
H2112 C2108 0.950 . S
C2113 C2111 1.390 . S
C2113 C2114 1.387 . S
C2113 H2116 0.950 . S
C2114 C2113 1.387 . S
C2114 C2117 1.387 . S
H2115 C2111 0.950 . S
H2116 C2113 0.950 . S
C2117 C2108 1.390 . S
C2117 H2110 0.950 . S
C2117 C2114 1.387 . S
C2118 C2119 1.387 . S
C2118 H2122 0.950 . S
C2118 C2127 1.390 . S
C2119 C2118 1.387 . S
C2119 C2121 1.387 . S
H2120 C2127 0.950 . S
C2121 C2119 1.387 . S
C2121 C2123 1.390 . S
C2121 H2125 0.950 . S
H2122 C2118 0.950 . S
C2123 C2121 1.390 . S
C2123 C2124 1.387 . S
C2123 H2126 0.950 . S
C2124 C2123 1.387 . S
C2124 C2127 1.387 . S
H2125 C2121 0.950 . S
H2126 C2123 0.950 . S
C2127 C2118 1.390 . S
C2127 H2120 0.950 . S
C2127 C2124 1.387 . S
C2128 C2129 1.387 . S
C2128 H2132 0.950 . S
C2128 C2137 1.390 . S
C2129 C2128 1.387 . S
C2129 C2131 1.387 . S
H2130 C2137 0.950 . S
C2131 C2129 1.387 . S
C2131 C2133 1.390 . S
C2131 H2135 0.950 . S
H2132 C2128 0.950 . S
C2133 C2131 1.390 . S
C2133 C2134 1.387 . S
C2133 H2136 0.950 . S
C2134 C2133 1.387 . S
C2134 C2137 1.387 . S
H2135 C2131 0.950 . S
H2136 C2133 0.950 . S
C2137 C2128 1.390 . S
C2137 H2130 0.950 . S
C2137 C2134 1.387 . S
C2138 C2139 1.387 . S
C2138 H2142 0.950 . S
C2138 C2147 1.390 . S
C2139 C2138 1.387 . S
C2139 C2141 1.387 . S
H2140 C2147 0.950 . S
C2141 C2139 1.387 . S
C2141 C2143 1.390 . S
C2141 H2145 0.950 . S
H2142 C2138 0.950 . S
C2143 C2141 1.390 . S
C2143 C2144 1.387 . S
C2143 H2146 0.950 . S
C2144 C2143 1.387 . S
C2144 C2147 1.387 . S
H2145 C2141 0.950 . S
H2146 C2143 0.950 . S
C2147 C2138 1.390 . S
C2147 H2140 0.950 . S
C2147 C2144 1.387 . S
C2148 C2149 1.387 . S
C2148 H2152 0.950 . S
C2148 C2157 1.390 . S
C2149 C2148 1.387 . S
C2149 C2151 1.387 . S
H2150 C2157 0.950 . S
C2151 C2149 1.387 . S
C2151 C2153 1.390 . S
C2151 H2155 0.950 . S
H2152 C2148 0.950 . S
C2153 C2151 1.390 . S
C2153 C2154 1.387 . S
C2153 H2156 0.950 . S
C2154 C2153 1.387 . S
C2154 C2157 1.387 . S
H2155 C2151 0.950 . S
H2156 C2153 0.950 . S
C2157 C2148 1.390 . S
C2157 H2150 0.950 . S
C2157 C2154 1.387 . S
C2158 C2159 1.387 . S
C2158 H2162 0.950 . S
C2158 C2167 1.390 . S
C2159 C2158 1.387 . S
C2159 C2161 1.387 . S
H2160 C2167 0.950 . S
C2161 C2159 1.387 . S
C2161 C2163 1.390 . S
C2161 H2165 0.950 . S
H2162 C2158 0.950 . S
C2163 C2161 1.390 . S
C2163 C2164 1.387 . S
C2163 H2166 0.950 . S
C2164 C2163 1.387 . S
C2164 C2167 1.387 . S
H2165 C2161 0.950 . S
H2166 C2163 0.950 . S
C2167 C2158 1.390 . S
C2167 H2160 0.950 . S
C2167 C2164 1.387 . S
C2168 C2169 1.387 . S
C2168 H2172 0.950 . S
C2168 C2177 1.390 . S
C2169 C2168 1.387 . S
C2169 C2171 1.387 . S
H2170 C2177 0.950 . S
C2171 C2169 1.387 . S
C2171 C2173 1.390 . S
C2171 H2175 0.950 . S
H2172 C2168 0.950 . S
C2173 C2171 1.390 . S
C2173 C2174 1.387 . S
C2173 H2176 0.950 . S
C2174 C2173 1.387 . S
C2174 C2177 1.387 . S
H2175 C2171 0.950 . S
H2176 C2173 0.950 . S
C2177 C2168 1.390 . S
C2177 H2170 0.950 . S
C2177 C2174 1.387 . S
C2178 C2179 1.387 . S
C2178 H2182 0.950 . S
C2178 C2187 1.390 . S
C2179 C2178 1.387 . S
C2179 C2181 1.387 . S
H2180 C2187 0.950 . S
C2181 C2179 1.387 . S
C2181 C2183 1.390 . S
C2181 H2185 0.950 . S
H2182 C2178 0.950 . S
C2183 C2181 1.390 . S
C2183 C2184 1.387 . S
C2183 H2186 0.950 . S
C2184 C2183 1.387 . S
C2184 C2187 1.387 . S
H2185 C2181 0.950 . S
H2186 C2183 0.950 . S
C2187 C2178 1.390 . S
C2187 H2180 0.950 . S
C2187 C2184 1.387 . S
C2188 C2189 1.387 . S
C2188 H2192 0.950 . S
C2188 C2197 1.390 . S
C2189 C2188 1.387 . S
C2189 C2191 1.387 . S
H2190 C2197 0.950 . S
C2191 C2189 1.387 . S
C2191 C2193 1.390 . S
C2191 H2195 0.950 . S
H2192 C2188 0.950 . S
C2193 C2191 1.390 . S
C2193 C2194 1.387 . S
C2193 H2196 0.950 . S
C2194 C2193 1.387 . S
C2194 C2197 1.387 . S
H2195 C2191 0.950 . S
H2196 C2193 0.950 . S
C2197 C2188 1.390 . S
C2197 H2190 0.950 . S
C2197 C2194 1.387 . S
C2198 C2199 1.387 . S
C2198 H2202 0.950 . S
C2198 C2207 1.390 . S
C2199 C2198 1.387 . S
C2199 C2201 1.387 . S
H2200 C2207 0.950 . S
C2201 C2199 1.387 . S
C2201 C2203 1.390 . S
C2201 H2205 0.950 . S
H2202 C2198 0.950 . S
C2203 C2201 1.390 . S
C2203 C2204 1.387 . S
C2203 H2206 0.950 . S
C2204 C2203 1.387 . S
C2204 C2207 1.387 . S
H2205 C2201 0.950 . S
H2206 C2203 0.950 . S
C2207 C2198 1.390 . S
C2207 H2200 0.950 . S
C2207 C2204 1.387 . S
C2208 C2209 1.387 . S
C2208 H2212 0.950 . S
C2208 C2217 1.390 1_455 S
C2209 C2208 1.387 . S
C2209 C2211 1.387 . S
H2210 C2217 0.950 . S
C2211 C2209 1.387 . S
C2211 C2213 1.390 1_455 S
C2211 H2215 0.950 . S
H2212 C2208 0.950 . S
C2213 C2211 1.390 1_655 S
C2213 C2214 1.387 . S
C2213 H2216 0.950 . S
C2214 C2213 1.387 . S
C2214 C2217 1.387 . S
H2215 C2211 0.950 . S
H2216 C2213 0.950 . S
C2217 C2208 1.390 1_655 S
C2217 H2210 0.950 . S
C2217 C2214 1.387 . S
C2218 C2219 1.387 . S
C2218 H2222 0.950 . S
C2218 C2227 1.390 1_565 S
C2219 C2218 1.387 . S
C2219 C2221 1.387 . S
H2220 C2227 0.950 . S
C2221 C2219 1.387 . S
C2221 C2223 1.390 1_565 S
C2221 H2225 0.950 . S
H2222 C2218 0.950 . S
C2223 C2221 1.390 1_545 S
C2223 C2224 1.387 . S
C2223 H2226 0.950 . S
C2224 C2223 1.387 . S
C2224 C2227 1.387 . S
H2225 C2221 0.950 . S
H2226 C2223 0.950 . S
C2227 C2218 1.390 1_545 S
C2227 H2220 0.950 . S
C2227 C2224 1.387 . S
C2228 C2229 1.387 . S
C2228 H2232 0.950 . S
C2228 C2237 1.390 1_655 S
C2229 C2228 1.387 . S
C2229 C2231 1.387 . S
H2230 C2237 0.950 . S
C2231 C2229 1.387 . S
C2231 C2233 1.390 1_655 S
C2231 H2235 0.950 . S
H2232 C2228 0.950 . S
C2233 C2231 1.390 1_455 S
C2233 C2234 1.387 . S
C2233 H2236 0.950 . S
C2234 C2233 1.387 . S
C2234 C2237 1.387 . S
H2235 C2231 0.950 . S
H2236 C2233 0.950 . S
C2237 C2228 1.390 1_455 S
C2237 H2230 0.950 . S
C2237 C2234 1.387 . S
C2238 C2239 1.387 . S
C2238 H2242 0.950 . S
C2238 C2247 1.390 1_545 S
C2239 C2238 1.387 . S
C2239 C2241 1.387 . S
H2240 C2247 0.950 . S
C2241 C2239 1.387 . S
C2241 C2243 1.390 1_545 S
C2241 H2245 0.950 . S
H2242 C2238 0.950 . S
C2243 C2241 1.390 1_565 S
C2243 C2244 1.387 . S
C2243 H2246 0.950 . S
C2244 C2243 1.387 . S
C2244 C2247 1.387 . S
H2245 C2241 0.950 . S
H2246 C2243 0.950 . S
C2247 C2238 1.390 1_565 S
C2247 H2240 0.950 . S
C2247 C2244 1.387 . S
C2248 C2249 1.387 . S
C2248 H2252 0.950 . S
C2248 C2257 1.390 1_455 S
C2249 C2248 1.387 . S
C2249 C2251 1.387 . S
H2250 C2257 0.950 . S
C2251 C2249 1.387 . S
C2251 C2253 1.390 1_455 S
C2251 H2255 0.950 . S
H2252 C2248 0.950 . S
C2253 C2251 1.390 1_655 S
C2253 C2254 1.387 . S
C2253 H2256 0.950 . S
C2254 C2253 1.387 . S
C2254 C2257 1.387 . S
H2255 C2251 0.950 . S
H2256 C2253 0.950 . S
C2257 C2248 1.390 1_655 S
C2257 H2250 0.950 . S
C2257 C2254 1.387 . S
C2258 C2259 1.387 . S
C2258 H2262 0.950 . S
C2258 C2267 1.390 1_545 S
C2259 C2258 1.387 . S
C2259 C2261 1.387 . S
H2260 C2267 0.950 . S
C2261 C2259 1.387 . S
C2261 C2263 1.390 1_545 S
C2261 H2265 0.950 . S
H2262 C2258 0.950 . S
C2263 C2261 1.390 1_565 S
C2263 C2264 1.387 . S
C2263 H2266 0.950 . S
C2264 C2263 1.387 . S
C2264 C2267 1.387 . S
H2265 C2261 0.950 . S
H2266 C2263 0.950 . S
C2267 C2258 1.390 1_565 S
C2267 H2260 0.950 . S
C2267 C2264 1.387 . S
C2268 C2269 1.387 . S
C2268 H2272 0.950 . S
C2268 C2277 1.390 1_655 S
C2269 C2268 1.387 . S
C2269 C2271 1.387 . S
H2270 C2277 0.950 . S
C2271 C2269 1.387 . S
C2271 C2273 1.390 1_655 S
C2271 H2275 0.950 . S
H2272 C2268 0.950 . S
C2273 C2271 1.390 1_455 S
C2273 C2274 1.387 . S
C2273 H2276 0.950 . S
C2274 C2273 1.387 . S
C2274 C2277 1.387 . S
H2275 C2271 0.950 . S
H2276 C2273 0.950 . S
C2277 C2268 1.390 1_455 S
C2277 H2270 0.950 . S
C2277 C2274 1.387 . S
C2278 C2279 1.387 . S
C2278 H2282 0.950 . S
C2278 C2287 1.390 1_545 S
C2279 C2278 1.387 . S
C2279 C2281 1.387 . S
H2280 C2287 0.950 . S
C2281 C2279 1.387 . S
C2281 C2283 1.390 1_545 S
C2281 H2285 0.950 . S
H2282 C2278 0.950 . S
C2283 C2281 1.390 1_565 S
C2283 C2284 1.387 . S
C2283 H2286 0.950 . S
C2284 C2283 1.387 . S
C2284 C2287 1.387 . S
H2285 C2281 0.950 . S
H2286 C2283 0.950 . S
C2287 C2278 1.390 1_565 S
C2287 H2280 0.950 . S
C2287 C2284 1.387 . S
C2288 C2289 1.387 . S
C2288 H2292 0.950 . S
C2288 C2297 1.390 1_565 S
C2289 C2288 1.387 . S
C2289 C2291 1.387 . S
H2290 C2297 0.950 . S
C2291 C2289 1.387 . S
C2291 C2293 1.390 1_565 S
C2291 H2295 0.950 . S
H2292 C2288 0.950 . S
C2293 C2291 1.390 1_545 S
C2293 C2294 1.387 . S
C2293 H2296 0.950 . S
C2294 C2293 1.387 . S
C2294 C2297 1.387 . S
H2295 C2291 0.950 . S
H2296 C2293 0.950 . S
C2297 C2288 1.390 1_545 S
C2297 H2290 0.950 . S
C2297 C2294 1.387 . S
C2298 C2299 1.387 . S
C2298 H2302 0.950 . S
C2298 C2307 1.390 1_655 S
C2299 C2298 1.387 . S
C2299 C2301 1.387 . S
H2300 C2307 0.950 . S
C2301 C2299 1.387 . S
C2301 C2303 1.390 1_655 S
C2301 H2305 0.950 . S
H2302 C2298 0.950 . S
C2303 C2301 1.390 1_455 S
C2303 C2304 1.387 . S
C2303 H2306 0.950 . S
C2304 C2303 1.387 . S
C2304 C2307 1.387 . S
H2305 C2301 0.950 . S
H2306 C2303 0.950 . S
C2307 C2298 1.390 1_455 S
C2307 H2300 0.950 . S
C2307 C2304 1.387 . S
C2308 C2309 1.387 . S
C2308 H2312 0.950 . S
C2308 C2317 1.390 1_565 S
C2309 C2308 1.387 . S
C2309 C2311 1.387 . S
H2310 C2317 0.950 . S
C2311 C2309 1.387 . S
C2311 C2313 1.390 1_565 S
C2311 H2315 0.950 . S
H2312 C2308 0.950 . S
C2313 C2311 1.390 1_545 S
C2313 C2314 1.387 . S
C2313 H2316 0.950 . S
C2314 C2313 1.387 . S
C2314 C2317 1.387 . S
H2315 C2311 0.950 . S
H2316 C2313 0.950 . S
C2317 C2308 1.390 1_545 S
C2317 H2310 0.950 . S
C2317 C2314 1.387 . S
C2318 C2319 1.387 . S
C2318 H2322 0.950 . S
C2318 C2327 1.390 1_455 S
C2319 C2318 1.387 . S
C2319 C2321 1.387 . S
H2320 C2327 0.950 . S
C2321 C2319 1.387 . S
C2321 C2323 1.390 1_455 S
C2321 H2325 0.950 . S
H2322 C2318 0.950 . S
C2323 C2321 1.390 1_655 S
C2323 C2324 1.387 . S
C2323 H2326 0.950 . S
C2324 C2323 1.387 . S
C2324 C2327 1.387 . S
H2325 C2321 0.950 . S
H2326 C2323 0.950 . S
C2327 C2318 1.390 1_655 S
C2327 H2320 0.950 . S
C2327 C2324 1.387 . S
C2328 C2329 1.387 . S
C2328 H2332 0.950 . S
C2328 C2337 1.390 1_565 S
C2329 C2328 1.387 . S
C2329 C2331 1.387 . S
H2330 C2337 0.950 . S
C2331 C2329 1.387 . S
C2331 C2333 1.390 1_565 S
C2331 H2335 0.950 . S
H2332 C2328 0.950 . S
C2333 C2331 1.390 1_545 S
C2333 C2334 1.387 . S
C2333 H2336 0.950 . S
C2334 C2333 1.387 . S
C2334 C2337 1.387 . S
H2335 C2331 0.950 . S
H2336 C2333 0.950 . S
C2337 C2328 1.390 1_545 S
C2337 H2330 0.950 . S
C2337 C2334 1.387 . S
C2338 C2339 1.387 . S
C2338 H2342 0.950 . S
C2338 C2347 1.390 1_455 S
C2339 C2338 1.387 . S
C2339 C2341 1.387 . S
H2340 C2347 0.950 . S
C2341 C2339 1.387 . S
C2341 C2343 1.390 1_455 S
C2341 H2345 0.950 . S
H2342 C2338 0.950 . S
C2343 C2341 1.390 1_655 S
C2343 C2344 1.387 . S
C2343 H2346 0.950 . S
C2344 C2343 1.387 . S
C2344 C2347 1.387 . S
H2345 C2341 0.950 . S
H2346 C2343 0.950 . S
C2347 C2338 1.390 1_655 S
C2347 H2340 0.950 . S
C2347 C2344 1.387 . S
C2348 C2349 1.387 . S
C2348 H2352 0.950 . S
C2348 C2357 1.390 1_545 S
C2349 C2348 1.387 . S
C2349 C2351 1.387 . S
H2350 C2357 0.950 . S
C2351 C2349 1.387 . S
C2351 C2353 1.390 1_545 S
C2351 H2355 0.950 . S
H2352 C2348 0.950 . S
C2353 C2351 1.390 1_565 S
C2353 C2354 1.387 . S
C2353 H2356 0.950 . S
C2354 C2353 1.387 . S
C2354 C2357 1.387 . S
H2355 C2351 0.950 . S
H2356 C2353 0.950 . S
C2357 C2348 1.390 1_565 S
C2357 H2350 0.950 . S
C2357 C2354 1.387 . S
C2358 C2359 1.387 . S
C2358 H2362 0.950 . S
C2358 C2367 1.390 1_655 S
C2359 C2358 1.387 . S
C2359 C2361 1.387 . S
H2360 C2367 0.950 . S
C2361 C2359 1.387 . S
C2361 C2363 1.390 1_655 S
C2361 H2365 0.950 . S
H2362 C2358 0.950 . S
C2363 C2361 1.390 1_455 S
C2363 C2364 1.387 . S
C2363 H2366 0.950 . S
C2364 C2363 1.387 . S
C2364 C2367 1.387 . S
H2365 C2361 0.950 . S
H2366 C2363 0.950 . S
C2367 C2358 1.390 1_455 S
C2367 H2360 0.950 . S
C2367 C2364 1.387 . S
C2368 C2369 1.387 . S
C2368 H2372 0.950 . S
C2368 C2377 1.390 1_554 S
C2369 C2368 1.387 . S
C2369 C2371 1.387 . S
H2370 C2377 0.950 . S
C2371 C2369 1.387 . S
C2371 C2373 1.390 1_554 S
C2371 H2375 0.950 . S
H2372 C2368 0.950 . S
C2373 C2371 1.390 1_556 S
C2373 C2374 1.387 . S
C2373 H2376 0.950 . S
C2374 C2373 1.387 . S
C2374 C2377 1.387 . S
H2375 C2371 0.950 . S
H2376 C2373 0.950 . S
C2377 C2368 1.390 1_556 S
C2377 H2370 0.950 . S
C2377 C2374 1.387 . S
C2378 C2379 1.387 . S
C2378 H2382 0.950 . S
C2378 C2387 1.390 1_556 S
C2379 C2378 1.387 . S
C2379 C2381 1.387 . S
H2380 C2387 0.950 . S
C2381 C2379 1.387 . S
C2381 C2383 1.390 1_556 S
C2381 H2385 0.950 . S
H2382 C2378 0.950 . S
C2383 C2381 1.390 1_554 S
C2383 C2384 1.387 . S
C2383 H2386 0.950 . S
C2384 C2383 1.387 . S
C2384 C2387 1.387 . S
H2385 C2381 0.950 . S
H2386 C2383 0.950 . S
C2387 C2378 1.390 1_554 S
C2387 H2380 0.950 . S
C2387 C2384 1.387 . S
C2388 C2389 1.387 . S
C2388 H2392 0.950 . S
C2388 C2397 1.390 1_554 S
C2389 C2388 1.387 . S
C2389 C2391 1.387 . S
H2390 C2397 0.950 . S
C2391 C2389 1.387 . S
C2391 C2393 1.390 1_554 S
C2391 H2395 0.950 . S
H2392 C2388 0.950 . S
C2393 C2391 1.390 1_556 S
C2393 C2394 1.387 . S
C2393 H2396 0.950 . S
C2394 C2393 1.387 . S
C2394 C2397 1.387 . S
H2395 C2391 0.950 . S
H2396 C2393 0.950 . S
C2397 C2388 1.390 1_556 S
C2397 H2390 0.950 . S
C2397 C2394 1.387 . S
C2398 C2399 1.387 . S
C2398 H2402 0.950 . S
C2398 C2407 1.390 1_556 S
C2399 C2398 1.387 . S
C2399 C2401 1.387 . S
H2400 C2407 0.950 . S
C2401 C2399 1.387 . S
C2401 C2403 1.390 1_556 S
C2401 H2405 0.950 . S
H2402 C2398 0.950 . S
C2403 C2401 1.390 1_554 S
C2403 C2404 1.387 . S
C2403 H2406 0.950 . S
C2404 C2403 1.387 . S
C2404 C2407 1.387 . S
H2405 C2401 0.950 . S
H2406 C2403 0.950 . S
C2407 C2398 1.390 1_554 S
C2407 H2400 0.950 . S
C2407 C2404 1.387 . S
C2408 C2409 1.387 . S
C2408 H2412 0.950 . S
C2408 C2417 1.390 1_554 S
C2409 C2408 1.387 . S
C2409 C2411 1.387 . S
H2410 C2417 0.950 . S
C2411 C2409 1.387 . S
C2411 C2413 1.390 1_554 S
C2411 H2415 0.950 . S
H2412 C2408 0.950 . S
C2413 C2411 1.390 1_556 S
C2413 C2414 1.387 . S
C2413 H2416 0.950 . S
C2414 C2413 1.387 . S
C2414 C2417 1.387 . S
H2415 C2411 0.950 . S
H2416 C2413 0.950 . S
C2417 C2408 1.390 1_556 S
C2417 H2410 0.950 . S
C2417 C2414 1.387 . S
C2418 C2419 1.387 . S
C2418 H2422 0.950 . S
C2418 C2427 1.390 1_554 S
C2419 C2418 1.387 . S
C2419 C2421 1.387 . S
H2420 C2427 0.950 . S
C2421 C2419 1.387 . S
C2421 C2423 1.390 1_554 S
C2421 H2425 0.950 . S
H2422 C2418 0.950 . S
C2423 C2421 1.390 1_556 S
C2423 C2424 1.387 . S
C2423 H2426 0.950 . S
C2424 C2423 1.387 . S
C2424 C2427 1.387 . S
H2425 C2421 0.950 . S
H2426 C2423 0.950 . S
C2427 C2418 1.390 1_556 S
C2427 H2420 0.950 . S
C2427 C2424 1.387 . S
C2428 C2429 1.387 . S
C2428 H2432 0.950 . S
C2428 C2437 1.390 1_554 S
C2429 C2428 1.387 . S
C2429 C2431 1.387 . S
H2430 C2437 0.950 . S
C2431 C2429 1.387 . S
C2431 C2433 1.390 1_554 S
C2431 H2435 0.950 . S
H2432 C2428 0.950 . S
C2433 C2431 1.390 1_556 S
C2433 C2434 1.387 . S
C2433 H2436 0.950 . S
C2434 C2433 1.387 . S
C2434 C2437 1.387 . S
H2435 C2431 0.950 . S
H2436 C2433 0.950 . S
C2437 C2428 1.390 1_556 S
C2437 H2430 0.950 . S
C2437 C2434 1.387 . S
C2438 C2439 1.387 . S
C2438 H2442 0.950 . S
C2438 C2447 1.390 1_556 S
C2439 C2438 1.387 . S
C2439 C2441 1.387 . S
H2440 C2447 0.950 . S
C2441 C2439 1.387 . S
C2441 C2443 1.390 1_556 S
C2441 H2445 0.950 . S
H2442 C2438 0.950 . S
C2443 C2441 1.390 1_554 S
C2443 C2444 1.387 . S
C2443 H2446 0.950 . S
C2444 C2443 1.387 . S
C2444 C2447 1.387 . S
H2445 C2441 0.950 . S
H2446 C2443 0.950 . S
C2447 C2438 1.390 1_554 S
C2447 H2440 0.950 . S
C2447 C2444 1.387 . S
C2448 C2449 1.387 . S
C2448 H2452 0.950 . S
C2448 C2457 1.390 . S
C2449 C2448 1.387 . S
C2449 C2451 1.387 . S
H2450 C2457 0.950 . S
C2451 C2449 1.387 . S
C2451 C2453 1.390 . S
C2451 H2455 0.950 . S
H2452 C2448 0.950 . S
C2453 C2451 1.390 . S
C2453 C2454 1.387 . S
C2453 H2456 0.950 . S
C2454 C2453 1.387 . S
C2454 C2457 1.387 . S
H2455 C2451 0.950 . S
H2456 C2453 0.950 . S
C2457 C2448 1.390 . S
C2457 H2450 0.950 . S
C2457 C2454 1.387 . S
C2458 C2459 1.387 . S
C2458 H2462 0.950 . S
C2458 C2467 1.390 . S
C2459 C2458 1.387 . S
C2459 C2461 1.387 . S
H2460 C2467 0.950 . S
C2461 C2459 1.387 . S
C2461 C2463 1.390 . S
C2461 H2465 0.950 . S
H2462 C2458 0.950 . S
C2463 C2461 1.390 . S
C2463 C2464 1.387 . S
C2463 H2466 0.950 . S
C2464 C2463 1.387 . S
C2464 C2467 1.387 . S
H2465 C2461 0.950 . S
H2466 C2463 0.950 . S
C2467 C2458 1.390 . S
C2467 H2460 0.950 . S
C2467 C2464 1.387 . S
C2468 C2469 1.387 . S
C2468 H2472 0.950 . S
C2468 C2477 1.390 . S
C2469 C2468 1.387 . S
C2469 C2471 1.387 . S
H2470 C2477 0.950 . S
C2471 C2469 1.387 . S
C2471 C2473 1.390 . S
C2471 H2475 0.950 . S
H2472 C2468 0.950 . S
C2473 C2471 1.390 . S
C2473 C2474 1.387 . S
C2473 H2476 0.950 . S
C2474 C2473 1.387 . S
C2474 C2477 1.387 . S
H2475 C2471 0.950 . S
H2476 C2473 0.950 . S
C2477 C2468 1.390 . S
C2477 H2470 0.950 . S
C2477 C2474 1.387 . S
C2478 C2479 1.387 . S
C2478 H2482 0.950 . S
C2478 C2487 1.390 . S
C2479 C2478 1.387 . S
C2479 C2481 1.387 . S
H2480 C2487 0.950 . S
C2481 C2479 1.387 . S
C2481 C2483 1.390 . S
C2481 H2485 0.950 . S
H2482 C2478 0.950 . S
C2483 C2481 1.390 . S
C2483 C2484 1.387 . S
C2483 H2486 0.950 . S
C2484 C2483 1.387 . S
C2484 C2487 1.387 . S
H2485 C2481 0.950 . S
H2486 C2483 0.950 . S
C2487 C2478 1.390 . S
C2487 H2480 0.950 . S
C2487 C2484 1.387 . S
C2488 C2489 1.387 . S
C2488 H2492 0.950 . S
C2488 C2497 1.390 . S
C2489 C2488 1.387 . S
C2489 C2491 1.387 . S
H2490 C2497 0.950 . S
C2491 C2489 1.387 . S
C2491 C2493 1.390 . S
C2491 H2495 0.950 . S
H2492 C2488 0.950 . S
C2493 C2491 1.390 . S
C2493 C2494 1.387 . S
C2493 H2496 0.950 . S
C2494 C2493 1.387 . S
C2494 C2497 1.387 . S
H2495 C2491 0.950 . S
H2496 C2493 0.950 . S
C2497 C2488 1.390 . S
C2497 H2490 0.950 . S
C2497 C2494 1.387 . S
C2498 C2499 1.387 . S
C2498 H2502 0.950 . S
C2498 C2507 1.390 . S
C2499 C2498 1.387 . S
C2499 C2501 1.387 . S
H2500 C2507 0.950 . S
C2501 C2499 1.387 . S
C2501 C2503 1.390 . S
C2501 H2505 0.950 . S
H2502 C2498 0.950 . S
C2503 C2501 1.390 . S
C2503 C2504 1.387 . S
C2503 H2506 0.950 . S
C2504 C2503 1.387 . S
C2504 C2507 1.387 . S
H2505 C2501 0.950 . S
H2506 C2503 0.950 . S
C2507 C2498 1.390 . S
C2507 H2500 0.950 . S
C2507 C2504 1.387 . S
C2508 C2509 1.387 . S
C2508 H2512 0.950 . S
C2508 C2517 1.390 . S
C2509 C2508 1.387 . S
C2509 C2511 1.387 . S
H2510 C2517 0.950 . S
C2511 C2509 1.387 . S
C2511 C2513 1.390 . S
C2511 H2515 0.950 . S
H2512 C2508 0.950 . S
C2513 C2511 1.390 . S
C2513 C2514 1.387 . S
C2513 H2516 0.950 . S
C2514 C2513 1.387 . S
C2514 C2517 1.387 . S
H2515 C2511 0.950 . S
H2516 C2513 0.950 . S
C2517 C2508 1.390 . S
C2517 H2510 0.950 . S
C2517 C2514 1.387 . S
C2518 C2519 1.387 . S
C2518 H2522 0.950 . S
C2518 C2527 1.390 . S
C2519 C2518 1.387 . S
C2519 C2521 1.387 . S
H2520 C2527 0.950 . S
C2521 C2519 1.387 . S
C2521 C2523 1.390 . S
C2521 H2525 0.950 . S
H2522 C2518 0.950 . S
C2523 C2521 1.390 . S
C2523 C2524 1.387 . S
C2523 H2526 0.950 . S
C2524 C2523 1.387 . S
C2524 C2527 1.387 . S
H2525 C2521 0.950 . S
H2526 C2523 0.950 . S
C2527 C2518 1.390 . S
C2527 H2520 0.950 . S
C2527 C2524 1.387 . S
C2528 C2529 1.387 . S
C2528 H2532 0.950 . S
C2528 C2537 1.390 . S
C2529 C2528 1.387 . S
C2529 C2531 1.387 . S
H2530 C2537 0.950 . S
C2531 C2529 1.387 . S
C2531 C2533 1.390 . S
C2531 H2535 0.950 . S
H2532 C2528 0.950 . S
C2533 C2531 1.390 . S
C2533 C2534 1.387 . S
C2533 H2536 0.950 . S
C2534 C2533 1.387 . S
C2534 C2537 1.387 . S
H2535 C2531 0.950 . S
H2536 C2533 0.950 . S
C2537 C2528 1.390 . S
C2537 H2530 0.950 . S
C2537 C2534 1.387 . S
C2538 C2539 1.387 . S
C2538 H2542 0.950 . S
C2538 C2547 1.390 . S
C2539 C2538 1.387 . S
C2539 C2541 1.387 . S
H2540 C2547 0.950 . S
C2541 C2539 1.387 . S
C2541 C2543 1.390 . S
C2541 H2545 0.950 . S
H2542 C2538 0.950 . S
C2543 C2541 1.390 . S
C2543 C2544 1.387 . S
C2543 H2546 0.950 . S
C2544 C2543 1.387 . S
C2544 C2547 1.387 . S
H2545 C2541 0.950 . S
H2546 C2543 0.950 . S
C2547 C2538 1.390 . S
C2547 H2540 0.950 . S
C2547 C2544 1.387 . S
C2548 C2549 1.387 . S
C2548 H2552 0.950 . S
C2548 C2557 1.390 . S
C2549 C2548 1.387 . S
C2549 C2551 1.387 . S
H2550 C2557 0.950 . S
C2551 C2549 1.387 . S
C2551 C2553 1.390 . S
C2551 H2555 0.950 . S
H2552 C2548 0.950 . S
C2553 C2551 1.390 . S
C2553 C2554 1.387 . S
C2553 H2556 0.950 . S
C2554 C2553 1.387 . S
C2554 C2557 1.387 . S
H2555 C2551 0.950 . S
H2556 C2553 0.950 . S
C2557 C2548 1.390 . S
C2557 H2550 0.950 . S
C2557 C2554 1.387 . S
C2558 C2559 1.387 . S
C2558 H2562 0.950 . S
C2558 C2567 1.390 . S
C2559 C2558 1.387 . S
C2559 C2561 1.387 . S
H2560 C2567 0.950 . S
C2561 C2559 1.387 . S
C2561 C2563 1.390 . S
C2561 H2565 0.950 . S
H2562 C2558 0.950 . S
C2563 C2561 1.390 . S
C2563 C2564 1.387 . S
C2563 H2566 0.950 . S
C2564 C2563 1.387 . S
C2564 C2567 1.387 . S
H2565 C2561 0.950 . S
H2566 C2563 0.950 . S
C2567 C2558 1.390 . S
C2567 H2560 0.950 . S
C2567 C2564 1.387 . S
C2568 C2569 1.387 . S
C2568 H2572 0.950 . S
C2568 C2577 1.390 . S
C2569 C2568 1.387 . S
C2569 C2571 1.387 . S
H2570 C2577 0.950 . S
C2571 C2569 1.387 . S
C2571 C2573 1.390 . S
C2571 H2575 0.950 . S
H2572 C2568 0.950 . S
C2573 C2571 1.390 . S
C2573 C2574 1.387 . S
C2573 H2576 0.950 . S
C2574 C2573 1.387 . S
C2574 C2577 1.387 . S
H2575 C2571 0.950 . S
H2576 C2573 0.950 . S
C2577 C2568 1.390 . S
C2577 H2570 0.950 . S
C2577 C2574 1.387 . S
C2578 C2579 1.387 . S
C2578 H2582 0.950 . S
C2578 C2587 1.390 . S
C2579 C2578 1.387 . S
C2579 C2581 1.387 . S
H2580 C2587 0.950 . S
C2581 C2579 1.387 . S
C2581 C2583 1.390 . S
C2581 H2585 0.950 . S
H2582 C2578 0.950 . S
C2583 C2581 1.390 . S
C2583 C2584 1.387 . S
C2583 H2586 0.950 . S
C2584 C2583 1.387 . S
C2584 C2587 1.387 . S
H2585 C2581 0.950 . S
H2586 C2583 0.950 . S
C2587 C2578 1.390 . S
C2587 H2580 0.950 . S
C2587 C2584 1.387 . S
C2588 C2589 1.387 . S
C2588 H2592 0.950 . S
C2588 C2597 1.390 . S
C2589 C2588 1.387 . S
C2589 C2591 1.387 . S
H2590 C2597 0.950 . S
C2591 C2589 1.387 . S
C2591 C2593 1.390 . S
C2591 H2595 0.950 . S
H2592 C2588 0.950 . S
C2593 C2591 1.390 . S
C2593 C2594 1.387 . S
C2593 H2596 0.950 . S
C2594 C2593 1.387 . S
C2594 C2597 1.387 . S
H2595 C2591 0.950 . S
H2596 C2593 0.950 . S
C2597 C2588 1.390 . S
C2597 H2590 0.950 . S
C2597 C2594 1.387 . S
C2598 C2599 1.387 . S
C2598 H2602 0.950 . S
C2598 C2607 1.390 . S
C2599 C2598 1.387 . S
C2599 C2601 1.387 . S
H2600 C2607 0.950 . S
C2601 C2599 1.387 . S
C2601 C2603 1.390 . S
C2601 H2605 0.950 . S
H2602 C2598 0.950 . S
C2603 C2601 1.390 . S
C2603 C2604 1.387 . S
C2603 H2606 0.950 . S
C2604 C2603 1.387 . S
C2604 C2607 1.387 . S
H2605 C2601 0.950 . S
H2606 C2603 0.950 . S
C2607 C2598 1.390 . S
C2607 H2600 0.950 . S
C2607 C2604 1.387 . S
C2608 C2609 1.387 . S
C2608 H2612 0.950 . S
C2608 C2617 1.390 . S
C2609 C2608 1.387 . S
C2609 C2611 1.387 . S
H2610 C2617 0.950 . S
C2611 C2609 1.387 . S
C2611 C2613 1.390 . S
C2611 H2615 0.950 . S
H2612 C2608 0.950 . S
C2613 C2611 1.390 . S
C2613 C2614 1.387 . S
C2613 H2616 0.950 . S
C2614 C2613 1.387 . S
C2614 C2617 1.387 . S
H2615 C2611 0.950 . S
H2616 C2613 0.950 . S
C2617 C2608 1.390 . S
C2617 H2610 0.950 . S
C2617 C2614 1.387 . S
C2618 C2619 1.387 . S
C2618 H2622 0.950 . S
C2618 C2627 1.390 . S
C2619 C2618 1.387 . S
C2619 C2621 1.387 . S
H2620 C2627 0.950 . S
C2621 C2619 1.387 . S
C2621 C2623 1.390 . S
C2621 H2625 0.950 . S
H2622 C2618 0.950 . S
C2623 C2621 1.390 . S
C2623 C2624 1.387 . S
C2623 H2626 0.950 . S
C2624 C2623 1.387 . S
C2624 C2627 1.387 . S
H2625 C2621 0.950 . S
H2626 C2623 0.950 . S
C2627 C2618 1.390 . S
C2627 H2620 0.950 . S
C2627 C2624 1.387 . S
C2628 C2629 1.387 . S
C2628 H2632 0.950 . S
C2628 C2637 1.390 . S
C2629 C2628 1.387 . S
C2629 C2631 1.387 . S
H2630 C2637 0.950 . S
C2631 C2629 1.387 . S
C2631 C2633 1.390 . S
C2631 H2635 0.950 . S
H2632 C2628 0.950 . S
C2633 C2631 1.390 . S
C2633 C2634 1.387 . S
C2633 H2636 0.950 . S
C2634 C2633 1.387 . S
C2634 C2637 1.387 . S
H2635 C2631 0.950 . S
H2636 C2633 0.950 . S
C2637 C2628 1.390 . S
C2637 H2630 0.950 . S
C2637 C2634 1.387 . S
C2638 C2639 1.387 . S
C2638 H2642 0.950 . S
C2638 C2647 1.390 . S
C2639 C2638 1.387 . S
C2639 C2641 1.387 . S
H2640 C2647 0.950 . S
C2641 C2639 1.387 . S
C2641 C2643 1.390 . S
C2641 H2645 0.950 . S
H2642 C2638 0.950 . S
C2643 C2641 1.390 . S
C2643 C2644 1.387 . S
C2643 H2646 0.950 . S
C2644 C2643 1.387 . S
C2644 C2647 1.387 . S
H2645 C2641 0.950 . S
H2646 C2643 0.950 . S
C2647 C2638 1.390 . S
C2647 H2640 0.950 . S
C2647 C2644 1.387 . S
C2648 C2649 1.387 . S
C2648 H2652 0.950 . S
C2648 C2657 1.390 . S
C2649 C2648 1.387 . S
C2649 C2651 1.387 . S
H2650 C2657 0.950 . S
C2651 C2649 1.387 . S
C2651 C2653 1.390 . S
C2651 H2655 0.950 . S
H2652 C2648 0.950 . S
C2653 C2651 1.390 . S
C2653 C2654 1.387 . S
C2653 H2656 0.950 . S
C2654 C2653 1.387 . S
C2654 C2657 1.387 . S
H2655 C2651 0.950 . S
H2656 C2653 0.950 . S
C2657 C2648 1.390 . S
C2657 H2650 0.950 . S
C2657 C2654 1.387 . S
C2658 C2659 1.387 . S
C2658 H2662 0.950 . S
C2658 C2667 1.390 . S
C2659 C2658 1.387 . S
C2659 C2661 1.387 . S
H2660 C2667 0.950 . S
C2661 C2659 1.387 . S
C2661 C2663 1.390 . S
C2661 H2665 0.950 . S
H2662 C2658 0.950 . S
C2663 C2661 1.390 . S
C2663 C2664 1.387 . S
C2663 H2666 0.950 . S
C2664 C2663 1.387 . S
C2664 C2667 1.387 . S
H2665 C2661 0.950 . S
H2666 C2663 0.950 . S
C2667 C2658 1.390 . S
C2667 H2660 0.950 . S
C2667 C2664 1.387 . S
C2668 C2669 1.387 . S
C2668 H2672 0.950 . S
C2668 C2677 1.390 . S
C2669 C2668 1.387 . S
C2669 C2671 1.387 . S
H2670 C2677 0.950 . S
C2671 C2669 1.387 . S
C2671 C2673 1.390 . S
C2671 H2675 0.950 . S
H2672 C2668 0.950 . S
C2673 C2671 1.390 . S
C2673 C2674 1.387 . S
C2673 H2676 0.950 . S
C2674 C2673 1.387 . S
C2674 C2677 1.387 . S
H2675 C2671 0.950 . S
H2676 C2673 0.950 . S
C2677 C2668 1.390 . S
C2677 H2670 0.950 . S
C2677 C2674 1.387 . S
C2678 C2679 1.387 . S
C2678 H2682 0.950 . S
C2678 C2687 1.390 . S
C2679 C2678 1.387 . S
C2679 C2681 1.387 . S
H2680 C2687 0.950 . S
C2681 C2679 1.387 . S
C2681 C2683 1.390 . S
C2681 H2685 0.950 . S
H2682 C2678 0.950 . S
C2683 C2681 1.390 . S
C2683 C2684 1.387 . S
C2683 H2686 0.950 . S
C2684 C2683 1.387 . S
C2684 C2687 1.387 . S
H2685 C2681 0.950 . S
H2686 C2683 0.950 . S
C2687 C2678 1.390 . S
C2687 H2680 0.950 . S
C2687 C2684 1.387 . S
C2688 C2689 1.387 . S
C2688 H2692 0.950 . S
C2688 C2697 1.390 . S
C2689 C2688 1.387 . S
C2689 C2691 1.387 . S
H2690 C2697 0.950 . S
C2691 C2689 1.387 . S
C2691 C2693 1.390 . S
C2691 H2695 0.950 . S
H2692 C2688 0.950 . S
C2693 C2691 1.390 . S
C2693 C2694 1.387 . S
C2693 H2696 0.950 . S
C2694 C2693 1.387 . S
C2694 C2697 1.387 . S
H2695 C2691 0.950 . S
H2696 C2693 0.950 . S
C2697 C2688 1.390 . S
C2697 H2690 0.950 . S
C2697 C2694 1.387 . S
C2698 C2699 1.387 . S
C2698 H2702 0.950 . S
C2698 C2707 1.390 . S
C2699 C2698 1.387 . S
C2699 C2701 1.387 . S
H2700 C2707 0.950 . S
C2701 C2699 1.387 . S
C2701 C2703 1.390 . S
C2701 H2705 0.950 . S
H2702 C2698 0.950 . S
C2703 C2701 1.390 . S
C2703 C2704 1.387 . S
C2703 H2706 0.950 . S
C2704 C2703 1.387 . S
C2704 C2707 1.387 . S
H2705 C2701 0.950 . S
H2706 C2703 0.950 . S
C2707 C2698 1.390 . S
C2707 H2700 0.950 . S
C2707 C2704 1.387 . S
C2708 C2709 1.387 . S
C2708 H2712 0.950 . S
C2708 C2717 1.390 . S
C2709 C2708 1.387 . S
C2709 C2711 1.387 . S
H2710 C2717 0.950 . S
C2711 C2709 1.387 . S
C2711 C2713 1.390 . S
C2711 H2715 0.950 . S
H2712 C2708 0.950 . S
C2713 C2711 1.390 . S
C2713 C2714 1.387 . S
C2713 H2716 0.950 . S
C2714 C2713 1.387 . S
C2714 C2717 1.387 . S
H2715 C2711 0.950 . S
H2716 C2713 0.950 . S
C2717 C2708 1.390 . S
C2717 H2710 0.950 . S
C2717 C2714 1.387 . S
C2718 C2719 1.387 . S
C2718 H2722 0.950 . S
C2718 C2727 1.390 . S
C2719 C2718 1.387 . S
C2719 C2721 1.387 . S
H2720 C2727 0.950 . S
C2721 C2719 1.387 . S
C2721 C2723 1.390 . S
C2721 H2725 0.950 . S
H2722 C2718 0.950 . S
C2723 C2721 1.390 . S
C2723 C2724 1.387 . S
C2723 H2726 0.950 . S
C2724 C2723 1.387 . S
C2724 C2727 1.387 . S
H2725 C2721 0.950 . S
H2726 C2723 0.950 . S
C2727 C2718 1.390 . S
C2727 H2720 0.950 . S
C2727 C2724 1.387 . S
C2728 C2729 1.387 . S
C2728 H2732 0.950 . S
C2728 C2737 1.390 . S
C2729 C2728 1.387 . S
C2729 C2731 1.387 . S
H2730 C2737 0.950 . S
C2731 C2729 1.387 . S
C2731 C2733 1.390 . S
C2731 H2735 0.950 . S
H2732 C2728 0.950 . S
C2733 C2731 1.390 . S
C2733 C2734 1.387 . S
C2733 H2736 0.950 . S
C2734 C2733 1.387 . S
C2734 C2737 1.387 . S
H2735 C2731 0.950 . S
H2736 C2733 0.950 . S
C2737 C2728 1.390 . S
C2737 H2730 0.950 . S
C2737 C2734 1.387 . S
C2738 C2739 1.387 . S
C2738 H2742 0.950 . S
C2738 C2747 1.390 . S
C2739 C2738 1.387 . S
C2739 C2741 1.387 . S
H2740 C2747 0.950 . S
C2741 C2739 1.387 . S
C2741 C2743 1.390 . S
C2741 H2745 0.950 . S
H2742 C2738 0.950 . S
C2743 C2741 1.390 . S
C2743 C2744 1.387 . S
C2743 H2746 0.950 . S
C2744 C2743 1.387 . S
C2744 C2747 1.387 . S
H2745 C2741 0.950 . S
H2746 C2743 0.950 . S
C2747 C2738 1.390 . S
C2747 H2740 0.950 . S
C2747 C2744 1.387 . S
C2748 C2749 1.387 . S
C2748 H2752 0.950 . S
C2748 C2757 1.390 . S
C2749 C2748 1.387 . S
C2749 C2751 1.387 . S
H2750 C2757 0.950 . S
C2751 C2749 1.387 . S
C2751 C2753 1.390 . S
C2751 H2755 0.950 . S
H2752 C2748 0.950 . S
C2753 C2751 1.390 . S
C2753 C2754 1.387 . S
C2753 H2756 0.950 . S
C2754 C2753 1.387 . S
C2754 C2757 1.387 . S
H2755 C2751 0.950 . S
H2756 C2753 0.950 . S
C2757 C2748 1.390 . S
C2757 H2750 0.950 . S
C2757 C2754 1.387 . S
C2758 C2759 1.387 . S
C2758 H2762 0.950 . S
C2758 C2767 1.390 . S
C2759 C2758 1.387 . S
C2759 C2761 1.387 . S
H2760 C2767 0.950 . S
C2761 C2759 1.387 . S
C2761 C2763 1.390 . S
C2761 H2765 0.950 . S
H2762 C2758 0.950 . S
C2763 C2761 1.390 . S
C2763 C2764 1.387 . S
C2763 H2766 0.950 . S
C2764 C2763 1.387 . S
C2764 C2767 1.387 . S
H2765 C2761 0.950 . S
H2766 C2763 0.950 . S
C2767 C2758 1.390 . S
C2767 H2760 0.950 . S
C2767 C2764 1.387 . S
C2768 C2769 1.387 . S
C2768 H2772 0.950 . S
C2768 C2777 1.390 . S
C2769 C2768 1.387 . S
C2769 C2771 1.387 . S
H2770 C2777 0.950 . S
C2771 C2769 1.387 . S
C2771 C2773 1.390 . S
C2771 H2775 0.950 . S
H2772 C2768 0.950 . S
C2773 C2771 1.390 . S
C2773 C2774 1.387 . S
C2773 H2776 0.950 . S
C2774 C2773 1.387 . S
C2774 C2777 1.387 . S
H2775 C2771 0.950 . S
H2776 C2773 0.950 . S
C2777 C2768 1.390 . S
C2777 H2770 0.950 . S
C2777 C2774 1.387 . S
C2778 C2779 1.387 . S
C2778 H2782 0.950 . S
C2778 C2787 1.390 . S
C2779 C2778 1.387 . S
C2779 C2781 1.387 . S
H2780 C2787 0.950 . S
C2781 C2779 1.387 . S
C2781 C2783 1.390 . S
C2781 H2785 0.950 . S
H2782 C2778 0.950 . S
C2783 C2781 1.390 . S
C2783 C2784 1.387 . S
C2783 H2786 0.950 . S
C2784 C2783 1.387 . S
C2784 C2787 1.387 . S
H2785 C2781 0.950 . S
H2786 C2783 0.950 . S
C2787 C2778 1.390 . S
C2787 H2780 0.950 . S
C2787 C2784 1.387 . S
C2788 C2789 1.387 . S
C2788 H2792 0.950 . S
C2788 C2797 1.390 . S
C2789 C2788 1.387 . S
C2789 C2791 1.387 . S
H2790 C2797 0.950 . S
C2791 C2789 1.387 . S
C2791 C2793 1.390 . S
C2791 H2795 0.950 . S
H2792 C2788 0.950 . S
C2793 C2791 1.390 . S
C2793 C2794 1.387 . S
C2793 H2796 0.950 . S
C2794 C2793 1.387 . S
C2794 C2797 1.387 . S
H2795 C2791 0.950 . S
H2796 C2793 0.950 . S
C2797 C2788 1.390 . S
C2797 H2790 0.950 . S
C2797 C2794 1.387 . S
C2798 C2799 1.387 . S
C2798 H2802 0.950 . S
C2798 C2807 1.390 . S
C2799 C2798 1.387 . S
C2799 C2801 1.387 . S
H2800 C2807 0.950 . S
C2801 C2799 1.387 . S
C2801 C2803 1.390 . S
C2801 H2805 0.950 . S
H2802 C2798 0.950 . S
C2803 C2801 1.390 . S
C2803 C2804 1.387 . S
C2803 H2806 0.950 . S
C2804 C2803 1.387 . S
C2804 C2807 1.387 . S
H2805 C2801 0.950 . S
H2806 C2803 0.950 . S
C2807 C2798 1.390 . S
C2807 H2800 0.950 . S
C2807 C2804 1.387 . S
C2808 C2809 1.387 . S
C2808 H2812 0.950 . S
C2808 C2817 1.390 . S
C2809 C2808 1.387 . S
C2809 C2811 1.387 . S
H2810 C2817 0.950 . S
C2811 C2809 1.387 . S
C2811 C2813 1.390 . S
C2811 H2815 0.950 . S
H2812 C2808 0.950 . S
C2813 C2811 1.390 . S
C2813 C2814 1.387 . S
C2813 H2816 0.950 . S
C2814 C2813 1.387 . S
C2814 C2817 1.387 . S
H2815 C2811 0.950 . S
H2816 C2813 0.950 . S
C2817 C2808 1.390 . S
C2817 H2810 0.950 . S
C2817 C2814 1.387 . S
C2818 C2819 1.387 . S
C2818 H2822 0.950 . S
C2818 C2827 1.390 . S
C2819 C2818 1.387 . S
C2819 C2821 1.387 . S
H2820 C2827 0.950 . S
C2821 C2819 1.387 . S
C2821 C2823 1.390 . S
C2821 H2825 0.950 . S
H2822 C2818 0.950 . S
C2823 C2821 1.390 . S
C2823 C2824 1.387 . S
C2823 H2826 0.950 . S
C2824 C2823 1.387 . S
C2824 C2827 1.387 . S
H2825 C2821 0.950 . S
H2826 C2823 0.950 . S
C2827 C2818 1.390 . S
C2827 H2820 0.950 . S
C2827 C2824 1.387 . S
C2828 C2829 1.387 . S
C2828 H2832 0.950 . S
C2828 C2837 1.390 . S
C2829 C2828 1.387 . S
C2829 C2831 1.387 . S
H2830 C2837 0.950 . S
C2831 C2829 1.387 . S
C2831 C2833 1.390 . S
C2831 H2835 0.950 . S
H2832 C2828 0.950 . S
C2833 C2831 1.390 . S
C2833 C2834 1.387 . S
C2833 H2836 0.950 . S
C2834 C2833 1.387 . S
C2834 C2837 1.387 . S
H2835 C2831 0.950 . S
H2836 C2833 0.950 . S
C2837 C2828 1.390 . S
C2837 H2830 0.950 . S
C2837 C2834 1.387 . S
C2838 C2839 1.387 . S
C2838 H2842 0.950 . S
C2838 C2847 1.390 . S
C2839 C2838 1.387 . S
C2839 C2841 1.387 . S
H2840 C2847 0.950 . S
C2841 C2839 1.387 . S
C2841 C2843 1.390 . S
C2841 H2845 0.950 . S
H2842 C2838 0.950 . S
C2843 C2841 1.390 . S
C2843 C2844 1.387 . S
C2843 H2846 0.950 . S
C2844 C2843 1.387 . S
C2844 C2847 1.387 . S
H2845 C2841 0.950 . S
H2846 C2843 0.950 . S
C2847 C2838 1.390 . S
C2847 H2840 0.950 . S
C2847 C2844 1.387 . S
C2848 C2849 1.387 . S
C2848 H2852 0.950 . S
C2848 C2857 1.390 . S
C2849 C2848 1.387 . S
C2849 C2851 1.387 . S
H2850 C2857 0.950 . S
C2851 C2849 1.387 . S
C2851 C2853 1.390 . S
C2851 H2855 0.950 . S
H2852 C2848 0.950 . S
C2853 C2851 1.390 . S
C2853 C2854 1.387 . S
C2853 H2856 0.950 . S
C2854 C2853 1.387 . S
C2854 C2857 1.387 . S
H2855 C2851 0.950 . S
H2856 C2853 0.950 . S
C2857 C2848 1.390 . S
C2857 H2850 0.950 . S
C2857 C2854 1.387 . S
C2858 C2859 1.387 . S
C2858 H2862 0.950 . S
C2858 C2867 1.390 . S
C2859 C2858 1.387 . S
C2859 C2861 1.387 . S
H2860 C2867 0.950 . S
C2861 C2859 1.387 . S
C2861 C2863 1.390 . S
C2861 H2865 0.950 . S
H2862 C2858 0.950 . S
C2863 C2861 1.390 . S
C2863 C2864 1.387 . S
C2863 H2866 0.950 . S
C2864 C2863 1.387 . S
C2864 C2867 1.387 . S
H2865 C2861 0.950 . S
H2866 C2863 0.950 . S
C2867 C2858 1.390 . S
C2867 H2860 0.950 . S
C2867 C2864 1.387 . S
C2868 C2869 1.387 . S
C2868 H2872 0.950 . S
C2868 C2877 1.390 . S
C2869 C2868 1.387 . S
C2869 C2871 1.387 . S
H2870 C2877 0.950 . S
C2871 C2869 1.387 . S
C2871 C2873 1.390 . S
C2871 H2875 0.950 . S
H2872 C2868 0.950 . S
C2873 C2871 1.390 . S
C2873 C2874 1.387 . S
C2873 H2876 0.950 . S
C2874 C2873 1.387 . S
C2874 C2877 1.387 . S
H2875 C2871 0.950 . S
H2876 C2873 0.950 . S
C2877 C2868 1.390 . S
C2877 H2870 0.950 . S
C2877 C2874 1.387 . S
C2878 C2879 1.387 . S
C2878 H2882 0.950 . S
C2878 C2887 1.390 . S
C2879 C2878 1.387 . S
C2879 C2881 1.387 . S
H2880 C2887 0.950 . S
C2881 C2879 1.387 . S
C2881 C2883 1.390 . S
C2881 H2885 0.950 . S
H2882 C2878 0.950 . S
C2883 C2881 1.390 . S
C2883 C2884 1.387 . S
C2883 H2886 0.950 . S
C2884 C2883 1.387 . S
C2884 C2887 1.387 . S
H2885 C2881 0.950 . S
H2886 C2883 0.950 . S
C2887 C2878 1.390 . S
C2887 H2880 0.950 . S
C2887 C2884 1.387 . S
C2888 C2889 1.387 . S
C2888 H2892 0.950 . S
C2888 C2897 1.390 . S
C2889 C2888 1.387 . S
C2889 C2891 1.387 . S
H2890 C2897 0.950 . S
C2891 C2889 1.387 . S
C2891 C2893 1.390 . S
C2891 H2895 0.950 . S
H2892 C2888 0.950 . S
C2893 C2891 1.390 . S
C2893 C2894 1.387 . S
C2893 H2896 0.950 . S
C2894 C2893 1.387 . S
C2894 C2897 1.387 . S
H2895 C2891 0.950 . S
H2896 C2893 0.950 . S
C2897 C2888 1.390 . S
C2897 H2890 0.950 . S
C2897 C2894 1.387 . S
C2898 C2899 1.387 . S
C2898 H2902 0.950 . S
C2898 C2907 1.390 . S
C2899 C2898 1.387 . S
C2899 C2901 1.387 . S
H2900 C2907 0.950 . S
C2901 C2899 1.387 . S
C2901 C2903 1.390 . S
C2901 H2905 0.950 . S
H2902 C2898 0.950 . S
C2903 C2901 1.390 . S
C2903 C2904 1.387 . S
C2903 H2906 0.950 . S
C2904 C2903 1.387 . S
C2904 C2907 1.387 . S
H2905 C2901 0.950 . S
H2906 C2903 0.950 . S
C2907 C2898 1.390 . S
C2907 H2900 0.950 . S
C2907 C2904 1.387 . S
C2908 C2909 1.387 . S
C2908 H2912 0.950 . S
C2908 C2917 1.390 . S
C2909 C2908 1.387 . S
C2909 C2911 1.387 . S
H2910 C2917 0.950 . S
C2911 C2909 1.387 . S
C2911 C2913 1.390 . S
C2911 H2915 0.950 . S
H2912 C2908 0.950 . S
C2913 C2911 1.390 . S
C2913 C2914 1.387 . S
C2913 H2916 0.950 . S
C2914 C2913 1.387 . S
C2914 C2917 1.387 . S
H2915 C2911 0.950 . S
H2916 C2913 0.950 . S
C2917 C2908 1.390 . S
C2917 H2910 0.950 . S
C2917 C2914 1.387 . S
C2918 C2919 1.387 . S
C2918 H2922 0.950 . S
C2918 C2927 1.390 . S
C2919 C2918 1.387 . S
C2919 C2921 1.387 . S
H2920 C2927 0.950 . S
C2921 C2919 1.387 . S
C2921 C2923 1.390 . S
C2921 H2925 0.950 . S
H2922 C2918 0.950 . S
C2923 C2921 1.390 . S
C2923 C2924 1.387 . S
C2923 H2926 0.950 . S
C2924 C2923 1.387 . S
C2924 C2927 1.387 . S
H2925 C2921 0.950 . S
H2926 C2923 0.950 . S
C2927 C2918 1.390 . S
C2927 H2920 0.950 . S
C2927 C2924 1.387 . S
C2928 C2929 1.387 . S
C2928 H2932 0.950 . S
C2928 C2937 1.390 . S
C2929 C2928 1.387 . S
C2929 C2931 1.387 . S
H2930 C2937 0.950 . S
C2931 C2929 1.387 . S
C2931 C2933 1.390 . S
C2931 H2935 0.950 . S
H2932 C2928 0.950 . S
C2933 C2931 1.390 . S
C2933 C2934 1.387 . S
C2933 H2936 0.950 . S
C2934 C2933 1.387 . S
C2934 C2937 1.387 . S
H2935 C2931 0.950 . S
H2936 C2933 0.950 . S
C2937 C2928 1.390 . S
C2937 H2930 0.950 . S
C2937 C2934 1.387 . S
C2938 C2939 1.387 . S
C2938 H2942 0.950 . S
C2938 C2947 1.390 . S
C2939 C2938 1.387 . S
C2939 C2941 1.387 . S
H2940 C2947 0.950 . S
C2941 C2939 1.387 . S
C2941 C2943 1.390 . S
C2941 H2945 0.950 . S
H2942 C2938 0.950 . S
C2943 C2941 1.390 . S
C2943 C2944 1.387 . S
C2943 H2946 0.950 . S
C2944 C2943 1.387 . S
C2944 C2947 1.387 . S
H2945 C2941 0.950 . S
H2946 C2943 0.950 . S
C2947 C2938 1.390 . S
C2947 H2940 0.950 . S
C2947 C2944 1.387 . S
C2948 C2949 1.387 . S
C2948 H2952 0.950 . S
C2948 C2957 1.390 . S
C2949 C2948 1.387 . S
C2949 C2951 1.387 . S
H2950 C2957 0.950 . S
C2951 C2949 1.387 . S
C2951 C2953 1.390 . S
C2951 H2955 0.950 . S
H2952 C2948 0.950 . S
C2953 C2951 1.390 . S
C2953 C2954 1.387 . S
C2953 H2956 0.950 . S
C2954 C2953 1.387 . S
C2954 C2957 1.387 . S
H2955 C2951 0.950 . S
H2956 C2953 0.950 . S
C2957 C2948 1.390 . S
C2957 H2950 0.950 . S
C2957 C2954 1.387 . S
C2958 C2959 1.387 . S
C2958 H2962 0.950 . S
C2958 C2967 1.390 . S
C2959 C2958 1.387 . S
C2959 C2961 1.387 . S
H2960 C2967 0.950 . S
C2961 C2959 1.387 . S
C2961 C2963 1.390 . S
C2961 H2965 0.950 . S
H2962 C2958 0.950 . S
C2963 C2961 1.390 . S
C2963 C2964 1.387 . S
C2963 H2966 0.950 . S
C2964 C2963 1.387 . S
C2964 C2967 1.387 . S
H2965 C2961 0.950 . S
H2966 C2963 0.950 . S
C2967 C2958 1.390 . S
C2967 H2960 0.950 . S
C2967 C2964 1.387 . S
C2968 C2969 1.387 . S
C2968 H2972 0.950 . S
C2968 C2977 1.390 . S
C2969 C2968 1.387 . S
C2969 C2971 1.387 . S
H2970 C2977 0.950 . S
C2971 C2969 1.387 . S
C2971 C2973 1.390 . S
C2971 H2975 0.950 . S
H2972 C2968 0.950 . S
C2973 C2971 1.390 . S
C2973 C2974 1.387 . S
C2973 H2976 0.950 . S
C2974 C2973 1.387 . S
C2974 C2977 1.387 . S
H2975 C2971 0.950 . S
H2976 C2973 0.950 . S
C2977 C2968 1.390 . S
C2977 H2970 0.950 . S
C2977 C2974 1.387 . S
C2978 C2979 1.387 . S
C2978 H2982 0.950 . S
C2978 C2987 1.390 . S
C2979 C2978 1.387 . S
C2979 C2981 1.387 . S
H2980 C2987 0.950 . S
C2981 C2979 1.387 . S
C2981 C2983 1.390 . S
C2981 H2985 0.950 . S
H2982 C2978 0.950 . S
C2983 C2981 1.390 . S
C2983 C2984 1.387 . S
C2983 H2986 0.950 . S
C2984 C2983 1.387 . S
C2984 C2987 1.387 . S
H2985 C2981 0.950 . S
H2986 C2983 0.950 . S
C2987 C2978 1.390 . S
C2987 H2980 0.950 . S
C2987 C2984 1.387 . S
C2988 C2989 1.387 . S
C2988 H2992 0.950 . S
C2988 C2997 1.390 . S
C2989 C2988 1.387 . S
C2989 C2991 1.387 . S
H2990 C2997 0.950 . S
C2991 C2989 1.387 . S
C2991 C2993 1.390 . S
C2991 H2995 0.950 . S
H2992 C2988 0.950 . S
C2993 C2991 1.390 . S
C2993 C2994 1.387 . S
C2993 H2996 0.950 . S
C2994 C2993 1.387 . S
C2994 C2997 1.387 . S
H2995 C2991 0.950 . S
H2996 C2993 0.950 . S
C2997 C2988 1.390 . S
C2997 H2990 0.950 . S
C2997 C2994 1.387 . S
C2998 C2999 1.387 . S
C2998 H3002 0.950 . S
C2998 C3007 1.390 . S
C2999 C2998 1.387 . S
C2999 C3001 1.387 . S
H3000 C3007 0.950 . S
C3001 C2999 1.387 . S
C3001 C3003 1.390 . S
C3001 H3005 0.950 . S
H3002 C2998 0.950 . S
C3003 C3001 1.390 . S
C3003 C3004 1.387 . S
C3003 H3006 0.950 . S
C3004 C3003 1.387 . S
C3004 C3007 1.387 . S
H3005 C3001 0.950 . S
H3006 C3003 0.950 . S
C3007 C2998 1.390 . S
C3007 H3000 0.950 . S
C3007 C3004 1.387 . S
C3008 C3009 1.387 . S
C3008 H3012 0.950 . S
C3008 C3017 1.390 . S
C3009 C3008 1.387 . S
C3009 C3011 1.387 . S
H3010 C3017 0.950 . S
C3011 C3009 1.387 . S
C3011 C3013 1.390 . S
C3011 H3015 0.950 . S
H3012 C3008 0.950 . S
C3013 C3011 1.390 . S
C3013 C3014 1.387 . S
C3013 H3016 0.950 . S
C3014 C3013 1.387 . S
C3014 C3017 1.387 . S
H3015 C3011 0.950 . S
H3016 C3013 0.950 . S
C3017 C3008 1.390 . S
C3017 H3010 0.950 . S
C3017 C3014 1.387 . S
C3018 C3019 1.387 . S
C3018 H3022 0.950 . S
C3018 C3027 1.390 . S
C3019 C3018 1.387 . S
C3019 C3021 1.387 . S
H3020 C3027 0.950 . S
C3021 C3019 1.387 . S
C3021 C3023 1.390 . S
C3021 H3025 0.950 . S
H3022 C3018 0.950 . S
C3023 C3021 1.390 . S
C3023 C3024 1.387 . S
C3023 H3026 0.950 . S
C3024 C3023 1.387 . S
C3024 C3027 1.387 . S
H3025 C3021 0.950 . S
H3026 C3023 0.950 . S
C3027 C3018 1.390 . S
C3027 H3020 0.950 . S
C3027 C3024 1.387 . S
C3028 C3029 1.387 . S
C3028 H3032 0.950 . S
C3028 C3037 1.390 . S
C3029 C3028 1.387 . S
C3029 C3031 1.387 . S
H3030 C3037 0.950 . S
C3031 C3029 1.387 . S
C3031 C3033 1.390 . S
C3031 H3035 0.950 . S
H3032 C3028 0.950 . S
C3033 C3031 1.390 . S
C3033 C3034 1.387 . S
C3033 H3036 0.950 . S
C3034 C3033 1.387 . S
C3034 C3037 1.387 . S
H3035 C3031 0.950 . S
H3036 C3033 0.950 . S
C3037 C3028 1.390 . S
C3037 H3030 0.950 . S
C3037 C3034 1.387 . S
C3038 C3039 1.387 . S
C3038 H3042 0.950 . S
C3038 C3047 1.390 . S
C3039 C3038 1.387 . S
C3039 C3041 1.387 . S
H3040 C3047 0.950 . S
C3041 C3039 1.387 . S
C3041 C3043 1.390 . S
C3041 H3045 0.950 . S
H3042 C3038 0.950 . S
C3043 C3041 1.390 . S
C3043 C3044 1.387 . S
C3043 H3046 0.950 . S
C3044 C3043 1.387 . S
C3044 C3047 1.387 . S
H3045 C3041 0.950 . S
H3046 C3043 0.950 . S
C3047 C3038 1.390 . S
C3047 H3040 0.950 . S
C3047 C3044 1.387 . S
C3048 C3049 1.387 . S
C3048 H3052 0.950 . S
C3048 C3057 1.390 . S
C3049 C3048 1.387 . S
C3049 C3051 1.387 . S
H3050 C3057 0.950 . S
C3051 C3049 1.387 . S
C3051 C3053 1.390 . S
C3051 H3055 0.950 . S
H3052 C3048 0.950 . S
C3053 C3051 1.390 . S
C3053 C3054 1.387 . S
C3053 H3056 0.950 . S
C3054 C3053 1.387 . S
C3054 C3057 1.387 . S
H3055 C3051 0.950 . S
H3056 C3053 0.950 . S
C3057 C3048 1.390 . S
C3057 H3050 0.950 . S
C3057 C3054 1.387 . S
C3058 C3059 1.387 . S
C3058 H3062 0.950 . S
C3058 C3067 1.390 . S
C3059 C3058 1.387 . S
C3059 C3061 1.387 . S
H3060 C3067 0.950 . S
C3061 C3059 1.387 . S
C3061 C3063 1.390 . S
C3061 H3065 0.950 . S
H3062 C3058 0.950 . S
C3063 C3061 1.390 . S
C3063 C3064 1.387 . S
C3063 H3066 0.950 . S
C3064 C3063 1.387 . S
C3064 C3067 1.387 . S
H3065 C3061 0.950 . S
H3066 C3063 0.950 . S
C3067 C3058 1.390 . S
C3067 H3060 0.950 . S
C3067 C3064 1.387 . S
C3068 C3069 1.387 . S
C3068 H3072 0.950 . S
C3068 C3077 1.390 . S
C3069 C3068 1.387 . S
C3069 C3071 1.387 . S
H3070 C3077 0.950 . S
C3071 C3069 1.387 . S
C3071 C3073 1.390 . S
C3071 H3075 0.950 . S
H3072 C3068 0.950 . S
C3073 C3071 1.390 . S
C3073 C3074 1.387 . S
C3073 H3076 0.950 . S
C3074 C3073 1.387 . S
C3074 C3077 1.387 . S
H3075 C3071 0.950 . S
H3076 C3073 0.950 . S
C3077 C3068 1.390 . S
C3077 H3070 0.950 . S
C3077 C3074 1.387 . S
C3078 C3079 1.387 . S
C3078 H3082 0.950 . S
C3078 C3087 1.390 . S
C3079 C3078 1.387 . S
C3079 C3081 1.387 . S
H3080 C3087 0.950 . S
C3081 C3079 1.387 . S
C3081 C3083 1.390 . S
C3081 H3085 0.950 . S
H3082 C3078 0.950 . S
C3083 C3081 1.390 . S
C3083 C3084 1.387 . S
C3083 H3086 0.950 . S
C3084 C3083 1.387 . S
C3084 C3087 1.387 . S
H3085 C3081 0.950 . S
H3086 C3083 0.950 . S
C3087 C3078 1.390 . S
C3087 H3080 0.950 . S
C3087 C3084 1.387 . S
C3088 C3089 1.387 . S
C3088 H3092 0.950 . S
C3088 C3097 1.390 . S
C3089 C3088 1.387 . S
C3089 C3091 1.387 . S
H3090 C3097 0.950 . S
C3091 C3089 1.387 . S
C3091 C3093 1.390 . S
C3091 H3095 0.950 . S
H3092 C3088 0.950 . S
C3093 C3091 1.390 . S
C3093 C3094 1.387 . S
C3093 H3096 0.950 . S
C3094 C3093 1.387 . S
C3094 C3097 1.387 . S
H3095 C3091 0.950 . S
H3096 C3093 0.950 . S
C3097 C3088 1.390 . S
C3097 H3090 0.950 . S
C3097 C3094 1.387 . S
C3098 C3099 1.387 . S
C3098 H3102 0.950 . S
C3098 C3107 1.390 . S
C3099 C3098 1.387 . S
C3099 C3101 1.387 . S
H3100 C3107 0.950 . S
C3101 C3099 1.387 . S
C3101 C3103 1.390 . S
C3101 H3105 0.950 . S
H3102 C3098 0.950 . S
C3103 C3101 1.390 . S
C3103 C3104 1.387 . S
C3103 H3106 0.950 . S
C3104 C3103 1.387 . S
C3104 C3107 1.387 . S
H3105 C3101 0.950 . S
H3106 C3103 0.950 . S
C3107 C3098 1.390 . S
C3107 H3100 0.950 . S
C3107 C3104 1.387 . S
C3108 C3109 1.387 . S
C3108 H3112 0.950 . S
C3108 C3117 1.390 . S
C3109 C3108 1.387 . S
C3109 C3111 1.387 . S
H3110 C3117 0.950 . S
C3111 C3109 1.387 . S
C3111 C3113 1.390 . S
C3111 H3115 0.950 . S
H3112 C3108 0.950 . S
C3113 C3111 1.390 . S
C3113 C3114 1.387 . S
C3113 H3116 0.950 . S
C3114 C3113 1.387 . S
C3114 C3117 1.387 . S
H3115 C3111 0.950 . S
H3116 C3113 0.950 . S
C3117 C3108 1.390 . S
C3117 H3110 0.950 . S
C3117 C3114 1.387 . S
C3118 C3119 1.387 . S
C3118 H3122 0.950 . S
C3118 C3127 1.390 . S
C3119 C3118 1.387 . S
C3119 C3121 1.387 . S
H3120 C3127 0.950 . S
C3121 C3119 1.387 . S
C3121 C3123 1.390 . S
C3121 H3125 0.950 . S
H3122 C3118 0.950 . S
C3123 C3121 1.390 . S
C3123 C3124 1.387 . S
C3123 H3126 0.950 . S
C3124 C3123 1.387 . S
C3124 C3127 1.387 . S
H3125 C3121 0.950 . S
H3126 C3123 0.950 . S
C3127 C3118 1.390 . S
C3127 H3120 0.950 . S
C3127 C3124 1.387 . S
C3128 C3129 1.387 . S
C3128 H3132 0.950 . S
C3128 C3137 1.390 . S
C3129 C3128 1.387 . S
C3129 C3131 1.387 . S
H3130 C3137 0.950 . S
C3131 C3129 1.387 . S
C3131 C3133 1.390 . S
C3131 H3135 0.950 . S
H3132 C3128 0.950 . S
C3133 C3131 1.390 . S
C3133 C3134 1.387 . S
C3133 H3136 0.950 . S
C3134 C3133 1.387 . S
C3134 C3137 1.387 . S
H3135 C3131 0.950 . S
H3136 C3133 0.950 . S
C3137 C3128 1.390 . S
C3137 H3130 0.950 . S
C3137 C3134 1.387 . S
C3138 C3139 1.387 . S
C3138 H3142 0.950 . S
C3138 C3147 1.390 . S
C3139 C3138 1.387 . S
C3139 C3141 1.387 . S
H3140 C3147 0.950 . S
C3141 C3139 1.387 . S
C3141 C3143 1.390 . S
C3141 H3145 0.950 . S
H3142 C3138 0.950 . S
C3143 C3141 1.390 . S
C3143 C3144 1.387 . S
C3143 H3146 0.950 . S
C3144 C3143 1.387 . S
C3144 C3147 1.387 . S
H3145 C3141 0.950 . S
H3146 C3143 0.950 . S
C3147 C3138 1.390 . S
C3147 H3140 0.950 . S
C3147 C3144 1.387 . S
C3148 C3149 1.387 . S
C3148 H3152 0.950 . S
C3148 C3157 1.390 . S
C3149 C3148 1.387 . S
C3149 C3151 1.387 . S
H3150 C3157 0.950 . S
C3151 C3149 1.387 . S
C3151 C3153 1.390 . S
C3151 H3155 0.950 . S
H3152 C3148 0.950 . S
C3153 C3151 1.390 . S
C3153 C3154 1.387 . S
C3153 H3156 0.950 . S
C3154 C3153 1.387 . S
C3154 C3157 1.387 . S
H3155 C3151 0.950 . S
H3156 C3153 0.950 . S
C3157 C3148 1.390 . S
C3157 H3150 0.950 . S
C3157 C3154 1.387 . S
C3158 C3159 1.387 . S
C3158 H3162 0.950 . S
C3158 C3167 1.390 . S
C3159 C3158 1.387 . S
C3159 C3161 1.387 . S
H3160 C3167 0.950 . S
C3161 C3159 1.387 . S
C3161 C3163 1.390 . S
C3161 H3165 0.950 . S
H3162 C3158 0.950 . S
C3163 C3161 1.390 . S
C3163 C3164 1.387 . S
C3163 H3166 0.950 . S
C3164 C3163 1.387 . S
C3164 C3167 1.387 . S
H3165 C3161 0.950 . S
H3166 C3163 0.950 . S
C3167 C3158 1.390 . S
C3167 H3160 0.950 . S
C3167 C3164 1.387 . S
C1249 C5 1.499 . S
C1254 C889 1.499 . S
C1259 C850 1.500 . S
C1264 C18 1.499 . S
C1269 C863 1.498 . S
C1274 C31 1.500 . S
C1279 C44 1.499 . S
C1284 C876 1.499 . S
C1289 C928 1.500 . S
C1294 C57 1.499 . S
C1299 C902 1.499 . S
C1304 C70 1.499 . S
C1309 C915 1.499 . S
C1314 C83 1.500 . S
C1319 C96 1.500 . S
C1324 C837 1.499 . S
C1329 C109 1.501 . S
C1334 C824 1.498 . S
C1339 C122 1.498 . S
C1344 C785 1.500 . S
C1349 C135 1.500 . S
C1354 C798 1.499 . S
C1359 C148 1.500 . S
C1364 C811 1.498 . S
C1369 C161 1.498 . S
C1374 C746 1.500 . S
C1379 C759 1.500 . S
C1384 C174 1.498 . S
C1389 C772 1.500 . S
C1394 C187 1.498 . S
C1399 C200 1.499 . S
C1404 C733 1.500 . S
C1409 C213 1.500 . S
C1414 C720 1.499 . S
C1419 C226 1.500 . S
C1424 C642 1.498 . S
C1429 C655 1.500 . S
C1434 C239 1.499 . S
C1439 C668 1.498 . S
C1444 C252 1.500 . S
C1449 C629 1.500 . S
C1454 C265 1.498 . S
C1459 C278 1.499 . S
C1464 C694 1.499 . S
C1469 C291 1.500 . S
C1474 C707 1.498 . S
C1479 C304 1.500 . S
C1484 C681 1.498 . S
C1489 C317 1.498 . S
C1494 C1201 1.501 . S
C1499 C330 1.498 . S
C1504 C1162 1.500 . S
C1509 C343 1.501 . S
C1514 C1175 1.498 . S
C1519 C356 1.499 . S
C1524 C1188 1.499 . S
C1529 C369 1.500 . S
C1534 C1240 1.498 . S
C1539 C382 1.499 . S
C1544 C1214 1.500 . S
C1549 C1227 1.498 . S
C1554 C395 1.500 . S
C1559 C408 1.498 . S
C1564 C1149 1.500 . S
C1569 C421 1.499 . S
C1574 C1136 1.499 . S
C1579 C1097 1.501 . S
C1584 C434 1.498 . S
C1589 C447 1.499 . S
C1594 C1110 1.499 . S
C1599 C460 1.498 . S
C1604 C1123 1.500 . S
C1609 C473 1.498 . S
C1614 C1058 1.500 . S
C1619 C486 1.498 . S
C1624 C1071 1.500 . S
C1629 C499 1.500 . S
C1634 C1084 1.498 . S
C1639 C1045 1.500 . S
C1644 C512 1.498 . S
C1649 C525 1.500 . S
C1654 C1032 1.499 . S
C1659 C538 1.499 . S
C1664 C954 1.499 . S
C1669 C551 1.499 . S
C1674 C967 1.499 . S
C1679 C980 1.499 . S
C1684 C564 1.499 . S
C1689 C577 1.498 . S
C1694 C941 1.500 . S
C1699 C1006 1.499 . S
C1704 C590 1.499 . S
C1709 C603 1.498 . S
C1714 C1019 1.501 . S
C1719 C616 1.499 . S
C1724 C993 1.500 . S
C1729 C8 1.391 . S
C1734 C515 1.394 . S
C1739 C21 1.391 . S
C1744 C476 1.394 . S
C1749 C489 1.394 . S
C1754 C34 1.391 . S
C1759 C47 1.391 . S
C1764 C502 1.394 . S
C1769 C437 1.394 . S
C1774 C60 1.391 . S
C1779 C450 1.391 . S
C1784 C73 1.394 . S
C1789 C463 1.394 . S
C1794 C86 1.391 . S
C1799 C424 1.391 . S
C1804 C99 1.394 . S
C1809 C411 1.394 . S
C1814 C112 1.391 . S
C1819 C125 1.391 . S
C1824 C372 1.394 . S
C1829 C385 1.394 . S
C1834 C138 1.391 . S
C1839 C151 1.394 . S
C1844 C398 1.391 . S
C1849 C333 1.391 . S
C1854 C164 1.394 . S
C1859 C346 1.394 . S
C1864 C177 1.391 . S
C1869 C190 1.391 . S
C1874 C359 1.394 . S
C1879 C203 1.391 . S
C1884 C320 1.394 . S
C1889 C216 1.391 . S
C1894 C580 1.394 . S
C1899 C229 1.391 . S
C1904 C619 1.394 . S
C1909 C593 1.394 . S
C1914 C242 1.391 . S
C1919 C606 1.391 . S
C1924 C255 1.394 . S
C1929 C268 1.391 . S
C1934 C528 1.394 . S
C1939 C281 1.391 . S
C1944 C554 1.394 . S
C1949 C567 1.394 . S
C1954 C294 1.391 . S
C1959 C307 1.391 . S
C1964 C541 1.394 . S
C1969 C1139 1.394 . S
C1974 C632 1.391 . S
C1979 C1100 1.394 . S
C1984 C645 1.391 . S
C1989 C1113 1.391 . S
C1994 C658 1.394 . S
C1999 C671 1.391 . S
C2004 C1126 1.394 . S
C2009 C1061 1.394 . S
C2014 C684 1.391 . S
C2019 C1074 1.394 . S
C2024 C697 1.391 . S
C2029 C710 1.394 . S
C2034 C1087 1.391 . S
C2039 C723 1.394 . S
C2044 C1048 1.391 . S
C2049 C1035 1.394 . S
C2054 C736 1.391 . S
C2059 C749 1.394 . S
C2064 C996 1.391 . S
C2069 C1009 1.394 . S
C2074 C762 1.391 . S
C2079 C1022 1.391 . S
C2084 C775 1.394 . S
C2089 C788 1.394 . S
C2094 C957 1.391 . S
C2099 C801 1.391 . S
C2104 C970 1.394 . S
C2109 C983 1.391 . S
C2114 C814 1.394 . S
C2119 C827 1.391 . S
C2124 C944 1.394 . S
C2129 C1204 1.391 . S
C2134 C840 1.394 . S
C2139 C1243 1.391 . S
C2144 C853 1.394 . S
C2149 C866 1.394 . S
C2154 C1217 1.391 . S
C2159 C1230 1.394 . S
C2164 C879 1.391 . S
C2169 C1152 1.391 . S
C2174 C892 1.394 . S
C2179 C1178 1.391 . S
C2184 C905 1.394 . S
C2189 C918 1.391 . S
C2194 C1191 1.394 . S
C2199 C1165 1.391 . S
C2204 C931 1.394 . S
C2209 C0 1.316 . S
C2214 C364 1.315 . S
C2219 C377 1.316 . S
C2224 C13 1.315 . S
C2229 C26 1.315 . S
C2234 C390 1.315 . S
C2239 C403 1.316 . S
C2244 C39 1.315 . S
C2249 C52 1.315 . S
C2254 C312 1.315 . S
C2259 C65 1.315 . S
C2264 C325 1.316 . S
C2269 C78 1.315 . S
C2274 C338 1.315 . S
C2279 C351 1.315 . S
C2284 C91 1.315 . S
C2289 C494 1.315 . S
C2294 C104 1.315 . S
C2299 C117 1.316 . S
C2304 C507 1.315 . S
C2309 C130 1.316 . S
C2314 C468 1.315 . S
C2319 C143 1.315 . S
C2324 C481 1.315 . S
C2329 C156 1.316 . S
C2334 C442 1.315 . S
C2339 C169 1.315 . S
C2344 C455 1.315 . S
C2349 C182 1.315 . S
C2354 C416 1.316 . S
C2359 C195 1.315 . S
C2364 C429 1.316 . S
C2369 C208 1.315 . S
C2374 C585 1.315 . S
C2379 C221 1.315 . S
C2384 C559 1.316 . S
C2389 C572 1.316 . S
C2394 C234 1.315 . S
C2399 C247 1.316 . S
C2404 C533 1.315 . S
C2409 C546 1.316 . S
C2414 C260 1.315 . S
C2419 C273 1.315 . S
C2424 C520 1.316 . S
C2429 C286 1.315 . S
C2434 C611 1.316 . S
C2439 C598 1.316 . S
C2444 C299 1.315 . S
C2449 C988 1.315 . S
C2454 C624 1.316 . S
C2459 C637 1.315 . S
C2464 C1001 1.316 . S
C2469 C1014 1.315 . S
C2474 C650 1.316 . S
C2479 C663 1.315 . S
C2484 C1027 1.316 . S
C2489 C936 1.316 . S
C2494 C676 1.315 . S
C2499 C949 1.315 . S
C2504 C689 1.316 . S
C2509 C962 1.316 . S
C2514 C702 1.315 . S
C2519 C715 1.316 . S
C2524 C975 1.315 . S
C2529 C728 1.316 . S
C2534 C1118 1.315 . S
C2539 C1131 1.315 . S
C2544 C741 1.316 . S
C2549 C1092 1.315 . S
C2554 C754 1.316 . S
C2559 C1105 1.315 . S
C2564 C767 1.315 . S
C2569 C780 1.316 . S
C2574 C1066 1.315 . S
C2579 C793 1.315 . S
C2584 C1079 1.315 . S
C2589 C1040 1.315 . S
C2594 C806 1.316 . S
C2599 C1053 1.316 . S
C2604 C819 1.315 . S
C2609 C1209 1.316 . S
C2614 C832 1.315 . S
C2619 C845 1.316 . S
C2624 C1183 1.315 . S
C2629 C1196 1.316 . S
C2634 C858 1.315 . S
C2639 C871 1.316 . S
C2644 C1157 1.315 . S
C2649 C884 1.315 . S
C2654 C1170 1.316 . S
C2659 C897 1.315 . S
C2664 C1144 1.315 . S
C2669 C1235 1.315 . S
C2674 C910 1.316 . S
C2679 C923 1.315 . S
C2684 C1222 1.316 . S
C2689 C413 1.240 . S
C2694 C10 1.242 . S
C2699 C374 1.240 . S
C2704 C23 1.242 . S
C2709 C36 1.240 . S
C2714 C387 1.242 . S
C2719 C400 1.242 . S
C2724 C49 1.240 . S
C2729 C335 1.240 . S
C2734 C62 1.242 . S
C2739 C75 1.240 . S
C2744 C348 1.242 . S
C2749 C88 1.240 . S
C2754 C361 1.242 . S
C2759 C322 1.242 . S
C2764 C101 1.240 . S
C2769 C582 1.242 . S
C2774 C114 1.240 . S
C2779 C127 1.242 . S
C2784 C543 1.240 . S
C2789 C140 1.242 . S
C2794 C556 1.240 . S
C2799 C569 1.242 . S
C2804 C153 1.240 . S
C2809 C166 1.240 . S
C2814 C621 1.242 . S
C2819 C595 1.242 . S
C2824 C179 1.240 . S
C2829 C608 1.240 . S
C2834 C192 1.242 . S
C2839 C205 1.242 . S
C2844 C530 1.240 . S
C2849 C218 1.242 . S
C2854 C517 1.240 . S
C2859 C231 1.240 . S
C2864 C439 1.242 . S
C2869 C244 1.240 . S
C2874 C452 1.242 . S
C2879 C465 1.242 . S
C2884 C257 1.240 . S
C2889 C426 1.240 . S
C2894 C270 1.242 . S
C2899 C283 1.240 . S
C2904 C491 1.242 . S
C2909 C296 1.242 . S
C2914 C504 1.240 . S
C2919 C309 1.240 . S
C2924 C478 1.242 . S
C2929 C634 1.242 . S
C2934 C1037 1.240 . S
C2939 C647 1.242 . S
C2944 C998 1.240 . S
C2949 C660 1.240 . S
C2954 C1011 1.242 . S
C2959 C1024 1.242 . S
C2964 C673 1.240 . S
C2969 C959 1.240 . S
C2974 C686 1.242 . S
C2979 C972 1.242 . S
C2984 C699 1.240 . S
C2989 C712 1.242 . S
C2994 C985 1.240 . S
C2999 C946 1.242 . S
C3004 C725 1.240 . S
C3009 C1206 1.240 . S
C3014 C738 1.242 . S
C3019 C1167 1.240 . S
C3024 C751 1.242 . S
C3029 C1180 1.240 . S
C3034 C764 1.242 . S
C3039 C1193 1.240 . S
C3044 C777 1.242 . S
C3049 C1245 1.242 . S
C3054 C790 1.240 . S
C3059 C1219 1.242 . S
C3064 C803 1.240 . S
C3069 C1232 1.240 . S
C3074 C816 1.242 . S
C3079 C1154 1.242 . S
C3084 C829 1.240 . S
C3089 C842 1.240 . S
C3094 C1141 1.242 . S
C3099 C1063 1.240 . S
C3104 C855 1.242 . S
C3109 C1076 1.242 . S
C3114 C868 1.240 . S
C3119 C1089 1.240 . S
C3124 C881 1.242 . S
C3129 C1050 1.240 . S
C3134 C894 1.242 . S
C3139 C1115 1.240 . S
C3144 C907 1.242 . S
C3149 C1128 1.242 . S
C3154 C920 1.240 . S
C3159 C1102 1.240 . S
C3164 C933 1.242 . S
