# Generated by pormake.
# Topology wjs, (5)-cn, num edge types: 1
# Building blocks:
#     Node 0, Type 0, BuildingBlock: BEQFEK_clean_sbu_0, # of connection points: 5
#     Node 1, Type 0, BuildingBlock: BEQFEK_clean_sbu_0, # of connection points: 5
#     Node 2, Type 0, BuildingBlock: BEQFEK_clean_sbu_0, # of connection points: 5
#     Node 3, Type 0, BuildingBlock: BEQFEK_clean_sbu_0, # of connection points: 5
#     Node 4, Type 0, BuildingBlock: BEQFEK_clean_sbu_0, # of connection points: 5
#     Node 5, Type 0, BuildingBlock: BEQFEK_clean_sbu_0, # of connection points: 5
#     Node 6, Type 0, BuildingBlock: BEQFEK_clean_sbu_0, # of connection points: 5
#     Node 7, Type 0, BuildingBlock: BEQFEK_clean_sbu_0, # of connection points: 5
#     Node 8, Type 0, BuildingBlock: BEQFEK_clean_sbu_0, # of connection points: 5
#     Node 9, Type 0, BuildingBlock: BEQFEK_clean_sbu_0, # of connection points: 5
#     Node 10, Type 0, BuildingBlock: BEQFEK_clean_sbu_0, # of connection points: 5
#     Node 11, Type 0, BuildingBlock: BEQFEK_clean_sbu_0, # of connection points: 5
#     Edge 12, Type (0, 0), BuildingBlock: TEMPAE_clean_linker_10, # of connection points: 2
#     Edge 13, Type (0, 0), BuildingBlock: TEMPAE_clean_linker_10, # of connection points: 2
#     Edge 14, Type (0, 0), BuildingBlock: TEMPAE_clean_linker_10, # of connection points: 2
#     Edge 15, Type (0, 0), BuildingBlock: TEMPAE_clean_linker_10, # of connection points: 2
#     Edge 16, Type (0, 0), BuildingBlock: TEMPAE_clean_linker_10, # of connection points: 2
#     Edge 17, Type (0, 0), BuildingBlock: TEMPAE_clean_linker_10, # of connection points: 2
#     Edge 18, Type (0, 0), BuildingBlock: TEMPAE_clean_linker_10, # of connection points: 2
#     Edge 19, Type (0, 0), BuildingBlock: TEMPAE_clean_linker_10, # of connection points: 2
#     Edge 20, Type (0, 0), BuildingBlock: TEMPAE_clean_linker_10, # of connection points: 2
#     Edge 21, Type (0, 0), BuildingBlock: TEMPAE_clean_linker_10, # of connection points: 2
#     Edge 22, Type (0, 0), BuildingBlock: TEMPAE_clean_linker_10, # of connection points: 2
#     Edge 23, Type (0, 0), BuildingBlock: TEMPAE_clean_linker_10, # of connection points: 2
#     Edge 24, Type (0, 0), BuildingBlock: TEMPAE_clean_linker_10, # of connection points: 2
#     Edge 25, Type (0, 0), BuildingBlock: TEMPAE_clean_linker_10, # of connection points: 2
#     Edge 26, Type (0, 0), BuildingBlock: TEMPAE_clean_linker_10, # of connection points: 2
#     Edge 27, Type (0, 0), BuildingBlock: TEMPAE_clean_linker_10, # of connection points: 2
#     Edge 28, Type (0, 0), BuildingBlock: TEMPAE_clean_linker_10, # of connection points: 2
#     Edge 29, Type (0, 0), BuildingBlock: TEMPAE_clean_linker_10, # of connection points: 2
#     Edge 30, Type (0, 0), BuildingBlock: TEMPAE_clean_linker_10, # of connection points: 2
#     Edge 31, Type (0, 0), BuildingBlock: TEMPAE_clean_linker_10, # of connection points: 2
#     Edge 32, Type (0, 0), BuildingBlock: TEMPAE_clean_linker_10, # of connection points: 2
#     Edge 33, Type (0, 0), BuildingBlock: TEMPAE_clean_linker_10, # of connection points: 2
#     Edge 34, Type (0, 0), BuildingBlock: TEMPAE_clean_linker_10, # of connection points: 2
#     Edge 35, Type (0, 0), BuildingBlock: TEMPAE_clean_linker_10, # of connection points: 2
#     Edge 36, Type (0, 0), BuildingBlock: TEMPAE_clean_linker_10, # of connection points: 2
#     Edge 37, Type (0, 0), BuildingBlock: TEMPAE_clean_linker_10, # of connection points: 2
#     Edge 38, Type (0, 0), BuildingBlock: TEMPAE_clean_linker_10, # of connection points: 2
#     Edge 39, Type (0, 0), BuildingBlock: TEMPAE_clean_linker_10, # of connection points: 2
#     Edge 40, Type (0, 0), BuildingBlock: TEMPAE_clean_linker_10, # of connection points: 2
#     Edge 41, Type (0, 0), BuildingBlock: TEMPAE_clean_linker_10, # of connection points: 2
# Relax obj value: 0.267
# Max RMSD: 0.222
# Mean RMSD: 0.222
data_MOF--net-wjs--node1-BEQFEK_clean_sbu_0--edge1-TEMPAE_clean_linker_10
_symmetry_space_group_name_H-M    P1
_symmetry_Int_Tables_number       1
_symmetry_cell_setting            triclinic
loop_
_symmetry_equiv_pos_as_xyz
'x, y, z'
_cell_length_a     30.429866
_cell_length_b     30.429748
_cell_length_c     76.40175
_cell_angle_alpha  89.988636
_cell_angle_beta   90.003666
_cell_angle_gamma 119.97696
loop_
_atom_site_label
_atom_site_type_symbol
_atom_site_fract_x
_atom_site_fract_y
_atom_site_fract_z
_atom_type_partial_charge
Co0 Co 0.20617 0.31001 0.01963 0.0
Co1 Co 0.19237 0.39971 0.00646 0.0
C2 C 0.19684 0.32388 0.98194 0.0
O3 O 0.19988 0.29766 0.99436 0.0
O4 O 0.19387 0.36351 0.98494 0.0
C5 C 0.18699 0.20896 0.02804 0.0
O6 O 0.15543 0.19327 0.01473 0.0
C7 C 0.12831 0.43427 0.99044 0.0
C8 C 0.16532 0.51463 -0.00154 0.0
C9 C 0.12315 0.47716 0.98971 0.0
N10 N 0.17087 0.44593 -0.00065 0.0
N11 N 0.1933 0.49422 0.00387 0.0
C12 C 0.09153 0.38165 0.98434 0.0
H13 H 0.0987 0.35348 0.99104 0.0
H14 H 0.0519 0.37248 0.98681 0.0
H15 H 0.09646 0.37902 0.97006 0.0
C16 C 0.11525 0.28672 0.04011 0.0
N17 N 0.15166 0.3155 0.02852 0.0
N18 N 0.14626 0.3541 0.02375 0.0
C19 C 0.10632 0.35137 0.03252 0.0
C20 C 0.0849 0.30794 0.04281 0.0
C21 C 0.11183 0.24184 0.04947 0.0
H22 H 0.14961 0.25161 0.0547 0.0
H23 H 0.09934 0.20992 0.04013 0.0
H24 H 0.08465 0.2294 0.06055 0.0
O25 O 0.27083 0.37208 0.02402 0.0
O26 O 0.26389 0.43788 0.01525 0.0
H27 H 0.12215 0.42817 0.02969 0.0
H28 H 0.06749 0.38868 0.0431 0.0
C29 C 0.08911 0.38954 0.03131 0.0
H30 H 0.06362 0.3805 0.01988 0.0
H31 H 0.22665 0.51268 0.0112 0.0
O32 O 0.21149 0.25587 0.03174 0.0
C33 C 0.28989 0.4196 0.02183 0.0
Co34 Co 0.89054 0.19363 0.18352 0.0
Co35 Co 0.78909 0.18478 0.17052 0.0
C36 C 0.86503 0.17606 0.14659 0.0
O37 O 0.8935 0.17715 0.15899 0.0
O38 O 0.82561 0.17946 0.1496 0.0
C39 C 0.97102 0.1744 0.19453 0.0
O40 O 0.95651 0.14118 0.18174 0.0
C41 C 0.69015 0.12038 0.15504 0.0
C42 C 0.64926 0.16165 0.16066 0.0
C43 C 0.64307 0.11703 0.15341 0.0
N44 N 0.72202 0.16439 0.163 0.0
N45 N 0.69766 0.18931 0.1661 0.0
C46 C 0.70403 0.0808 0.15078 0.0
H47 H 0.73852 0.08795 0.15806 0.0
H48 H 0.67229 0.04236 0.15398 0.0
H49 H 0.71222 0.08231 0.13657 0.0
C50 C 0.82069 0.11163 0.20697 0.0
N51 N 0.82969 0.14551 0.19419 0.0
N52 N 0.78667 0.14217 0.18932 0.0
C53 C 0.74876 0.10628 0.19916 0.0
C54 C 0.76917 0.08523 0.21038 0.0
C55 C 0.8611 0.1068 0.2165 0.0
H56 H 0.87889 0.09185 0.2074 0.0
H57 H 0.84587 0.08119 0.22797 0.0
H58 H 0.89065 0.14464 0.22118 0.0
O59 O 0.89863 0.2618 0.18371 0.0
O60 O 0.8255 0.25791 0.17736 0.0
H61 H 0.67313 0.07382 0.20999 0.0
H62 H 0.67612 0.06436 0.18702 0.0
C63 C 0.69414 0.092 0.1978 0.0
H64 H 0.69095 0.12602 0.195 0.0
H65 H 0.71354 0.22428 0.17247 0.0
O66 O 0.94867 0.19972 0.1968 0.0
C67 C 0.87225 0.28317 0.18154 0.0
Co68 Co 0.6807 0.89549 0.35549 0.0
Co69 Co 0.59089 0.79369 0.34143 0.0
C70 C 0.67006 0.87413 0.31772 0.0
O71 O 0.69577 0.90256 0.33037 0.0
O72 O 0.62954 0.83207 0.32038 0.0
C73 C 0.78155 0.97563 0.36451 0.0
O74 O 0.79689 0.96103 0.35076 0.0
C75 C 0.55757 0.69664 0.32467 0.0
C76 C 0.47626 0.65289 0.33146 0.0
C77 C 0.51471 0.64886 0.32314 0.0
N78 N 0.54495 0.72678 0.3336 0.0
N79 N 0.49613 0.70073 0.3374 0.0
C80 C 0.6109 0.71276 0.31937 0.0
H81 H 0.63828 0.7472 0.32666 0.0
H82 H 0.61949 0.68185 0.32175 0.0
H83 H 0.61554 0.72193 0.3052 0.0
C84 C 0.69955 0.82577 0.37652 0.0
N85 N 0.67275 0.83457 0.36443 0.0
N86 N 0.63415 0.7912 0.35922 0.0
C87 C 0.63494 0.75316 0.36814 0.0
C88 C 0.67705 0.77399 0.37908 0.0
C89 C 0.74351 0.8664 0.38649 0.0
H90 H 0.77653 0.8861 0.37759 0.0
H91 H 0.75439 0.85092 0.39777 0.0
H92 H 0.73348 0.89439 0.39154 0.0
O93 O 0.6191 0.89954 0.35914 0.0
O94 O 0.55304 0.82779 0.34983 0.0
H95 H 0.59576 0.67608 0.37795 0.0
H96 H 0.60607 0.68234 0.35483 0.0
C97 C 0.59635 0.69808 0.3663 0.0
H98 H 0.55812 0.69327 0.36433 0.0
H99 H 0.47687 0.71506 0.34457 0.0
O100 O 0.73464 0.95335 0.36821 0.0
C101 C 0.57166 0.87196 0.35652 0.0
Co102 Co 0.78482 0.67964 0.52195 0.0
Co103 Co 0.80816 0.59868 0.50589 0.0
C104 C 0.80116 0.6764 0.4837 0.0
O105 O 0.79285 0.69692 0.49685 0.0
O106 O 0.80846 0.63894 0.48547 0.0
C107 C 0.80018 0.77781 0.5316 0.0
O108 O 0.83133 0.79433 0.51818 0.0
C109 C 0.87589 0.56938 0.48923 0.0
C110 C 0.83972 0.48792 0.4957 0.0
C111 C 0.88212 0.52725 0.48766 0.0
N112 N 0.83249 0.55547 0.49795 0.0
N113 N 0.81061 0.50659 0.50154 0.0
C114 C 0.91211 0.62307 0.48403 0.0
H115 H 0.9037 0.64965 0.49126 0.0
H116 H 0.95185 0.63274 0.4866 0.0
H117 H 0.90791 0.62763 0.46983 0.0
C118 C 0.87336 0.70158 0.54362 0.0
N119 N 0.84015 0.67535 0.53082 0.0
N120 N 0.84972 0.64056 0.52469 0.0
C121 C 0.88934 0.64333 0.53368 0.0
C122 C 0.90605 0.68275 0.54568 0.0
C123 C 0.87139 0.7413 0.55463 0.0
H124 H 0.83187 0.72767 0.55892 0.0
H125 H 0.88444 0.77623 0.54674 0.0
H126 H 0.89567 0.75067 0.56643 0.0
O127 O 0.72138 0.61497 0.52488 0.0
O128 O 0.73548 0.55665 0.5128 0.0
H129 H 0.88001 0.56982 0.52843 0.0
H130 H 0.93345 0.60929 0.54231 0.0
C131 C 0.91092 0.60914 0.5309 0.0
H132 H 0.93657 0.62259 0.51943 0.0
H133 H 0.77675 0.48641 0.50849 0.0
O134 O 0.77643 0.7307 0.53506 0.0
C135 C 0.7062 0.56934 0.52042 0.0
Co136 Co 0.10732 0.78297 0.68983 0.0
Co137 Co 0.21252 0.81191 0.67295 0.0
C138 C 0.12622 0.80002 0.65116 0.0
O139 O 0.09785 0.78962 0.66457 0.0
O140 O 0.17212 0.81031 0.65246 0.0
C141 C 0.02751 0.80151 0.69943 0.0
O142 O 0.04715 0.83632 0.68715 0.0
C143 C 0.30975 0.87216 0.65421 0.0
C144 C 0.36079 0.85816 0.67087 0.0
C145 C 0.36061 0.88707 0.65686 0.0
N146 N 0.28188 0.83772 0.66654 0.0
N147 N 0.31256 0.82872 0.67617 0.0
C148 C 0.28744 0.88921 0.64012 0.0
H149 H 0.25167 0.85659 0.63533 0.0
H150 H 0.27869 0.91782 0.64552 0.0
H151 H 0.31366 0.90555 0.62884 0.0
C152 C 0.17152 0.87351 0.71107 0.0
N153 N 0.16553 0.84023 0.6984 0.0
N154 N 0.20975 0.8539 0.69114 0.0
C155 C 0.24522 0.89735 0.69881 0.0
C156 C 0.22191 0.91117 0.71153 0.0
C157 C 0.13079 0.86732 0.72353 0.0
H158 H 0.10529 0.82666 0.72655 0.0
H159 H 0.10843 0.88304 0.71749 0.0
H160 H 0.14715 0.88789 0.73597 0.0
O161 O 0.11133 0.72149 0.69336 0.0
O162 O 0.18352 0.73924 0.68021 0.0
H163 H 0.31835 0.90401 0.69699 0.0
H164 H 0.32025 0.96363 0.70036 0.0
C165 C 0.2999 0.9264 0.69362 0.0
H166 H 0.30282 0.93299 0.67931 0.0
H167 H 0.30082 0.80433 0.68693 0.0
O168 O 0.04686 0.7737 0.70238 0.0
C169 C 0.14305 0.70852 0.68836 0.0
Co170 Co 0.31777 0.10671 0.85662 0.0
Co171 Co 0.40586 0.20609 0.84027 0.0
C172 C 0.32237 0.12332 0.81848 0.0
O173 O 0.29936 0.09629 0.83176 0.0
O174 O 0.36307 0.16586 0.82015 0.0
C175 C 0.21798 0.02775 0.86731 0.0
O176 O 0.20158 0.03933 0.85311 0.0
C177 C 0.43859 0.30199 0.82264 0.0
C178 C 0.52074 0.34488 0.82819 0.0
C179 C 0.48174 0.34929 0.82049 0.0
N180 N 0.45158 0.2718 0.83136 0.0
N181 N 0.50087 0.29729 0.83438 0.0
C182 C 0.38487 0.2866 0.81817 0.0
H183 H 0.35799 0.25271 0.82582 0.0
H184 H 0.37732 0.31812 0.82075 0.0
H185 H 0.37832 0.27685 0.80406 0.0
C186 C 0.30174 0.18019 0.87645 0.0
N187 N 0.3275 0.16926 0.86459 0.0
N188 N 0.36592 0.21164 0.85861 0.0
C189 C 0.36634 0.25113 0.86692 0.0
C190 C 0.32497 0.23228 0.87812 0.0
C191 C 0.25743 0.14137 0.88678 0.0
H192 H 0.26722 0.11423 0.89281 0.0
H193 H 0.22469 0.12017 0.87788 0.0
H194 H 0.24627 0.15879 0.89736 0.0
O195 O 0.3794 0.10221 0.8596 0.0
O196 O 0.44388 0.17179 0.8483 0.0
H197 H 0.44291 0.30963 0.86158 0.0
H198 H 0.40856 0.32848 0.87616 0.0
C199 C 0.40543 0.30576 0.8644 0.0
H200 H 0.39412 0.32139 0.8533 0.0
H201 H 0.52051 0.28289 0.84128 0.0
O202 O 0.26513 0.05119 0.87069 0.0
C203 C 0.42626 0.12881 0.85584 0.0
Co204 Co 0.68087 0.78517 0.7964 0.0
Co205 Co 0.59209 0.79808 0.81114 0.0
C206 C 0.67188 0.79582 0.83433 0.0
O207 O 0.69677 0.79259 0.82149 0.0
O208 O 0.63162 0.79812 0.83195 0.0
C209 C 0.78029 0.80085 0.78721 0.0
O210 O 0.79628 0.82601 0.80199 0.0
C211 C 0.55954 0.86267 0.82791 0.0
C212 C 0.47789 0.82459 0.82159 0.0
C213 C 0.51665 0.86758 0.82956 0.0
N214 N 0.54661 0.81945 0.81923 0.0
N215 N 0.4976 0.79639 0.81573 0.0
C216 C 0.61307 0.9002 0.83288 0.0
H217 H 0.64015 0.89257 0.82563 0.0
H218 H 0.62155 0.93951 0.83017 0.0
H219 H 0.61826 0.8967 0.84708 0.0
C220 C 0.69957 0.87388 0.77562 0.0
N221 N 0.67316 0.83859 0.78783 0.0
N222 N 0.63473 0.84348 0.79318 0.0
C223 C 0.6351 0.88196 0.78417 0.0
C224 C 0.67681 0.90294 0.77304 0.0
C225 C 0.74323 0.87675 0.76557 0.0
H226 H 0.73179 0.83916 0.75977 0.0
H227 H 0.77538 0.88691 0.77463 0.0
H228 H 0.75597 0.90499 0.75483 0.0
O229 O 0.61874 0.71996 0.79281 0.0
O230 O 0.5535 0.7262 0.80274 0.0
H231 H 0.55829 0.86478 0.78829 0.0
H232 H 0.59504 0.91898 0.77432 0.0
C233 C 0.59632 0.89822 0.78605 0.0
H234 H 0.60639 0.92422 0.79737 0.0
H235 H 0.47807 0.76245 0.80878 0.0
O236 O 0.73383 0.78091 0.78306 0.0
C237 C 0.57146 0.70048 0.79569 0.0
Co238 Co 0.89154 0.68445 0.96537 0.0
Co239 Co 0.78911 0.59442 0.97909 0.0
C240 C 0.86929 0.67252 0.00314 0.0
O241 O 0.89806 0.69847 0.99059 0.0
O242 O 0.82705 0.63232 0.00033 0.0
C243 C 0.97225 0.78555 0.95644 0.0
O244 O 0.95695 0.80116 0.96993 0.0
C245 C 0.69087 0.56002 0.9953 0.0
C246 C 0.64797 0.47904 0.98802 0.0
C247 C 0.64311 0.51692 0.9964 0.0
N248 N 0.7218 0.54808 0.98654 0.0
N249 N 0.69622 0.49945 0.98246 0.0
C250 C 0.7063 0.613 0.00085 0.0
H251 H 0.74122 0.64087 0.99388 0.0
H252 H 0.67541 0.62147 0.99826 0.0
H253 H 0.7144 0.61694 0.0151 0.0
C254 C 0.82234 0.7037 0.94409 0.0
N255 N 0.83083 0.677 0.95632 0.0
N256 N 0.78734 0.63824 0.96137 0.0
C257 C 0.74957 0.63876 0.95218 0.0
C258 C 0.77065 0.68086 0.94123 0.0
C259 C 0.86327 0.74759 0.93418 0.0
H260 H 0.8913 0.73743 0.92925 0.0
H261 H 0.88289 0.78058 0.94309 0.0
H262 H 0.84811 0.75858 0.92284 0.0
O263 O 0.89529 0.62268 0.96152 0.0
O264 O 0.82319 0.55665 0.97062 0.0
H265 H 0.69014 0.56148 0.9554 0.0
H266 H 0.67291 0.5994 0.94196 0.0
C267 C 0.69456 0.59963 0.95365 0.0
H268 H 0.67809 0.6084 0.96513 0.0
H269 H 0.71117 0.4807 0.97533 0.0
O270 O 0.95005 0.73857 0.95284 0.0
C271 C 0.86745 0.5752 0.964 0.0
Co272 Co 0.20485 0.8894 0.1305 0.0
Co273 Co 0.19089 0.7887 0.1466 0.0
C274 C 0.19708 0.87498 0.16854 0.0
O275 O 0.19954 0.90182 0.1554 0.0
O276 O 0.19379 0.83184 0.16662 0.0
C277 C 0.18929 0.97179 0.11945 0.0
O278 O 0.16354 0.96387 0.13405 0.0
C279 C 0.12344 0.69385 0.16414 0.0
C280 C 0.16415 0.65099 0.1623 0.0
C281 C 0.11949 0.64769 0.16817 0.0
N282 N 0.16813 0.72302 0.15613 0.0
N283 N 0.19266 0.69748 0.15525 0.0
C284 C 0.08631 0.71094 0.16843 0.0
H285 H 0.09743 0.74789 0.16212 0.0
H286 H 0.04752 0.68231 0.16424 0.0
H287 H 0.08533 0.71508 0.18284 0.0
C288 C 0.11345 0.818 0.11105 0.0
N289 N 0.14978 0.82774 0.12294 0.0
N290 N 0.14492 0.78478 0.12869 0.0
C291 C 0.10573 0.74608 0.12015 0.0
C292 C 0.08396 0.76603 0.10906 0.0
C293 C 0.10973 0.85786 0.10071 0.0
H294 H 0.14656 0.88294 0.09424 0.0
H295 H 0.10106 0.88113 0.1097 0.0
H296 H 0.08 0.84137 0.09047 0.0
O297 O 0.26921 0.89017 0.12704 0.0
O298 O 0.26189 0.81893 0.13772 0.0
H299 H 0.12274 0.68688 0.1258 0.0
H300 H 0.07253 0.66978 0.11003 0.0
C301 C 0.08983 0.69122 0.12222 0.0
H302 H 0.06073 0.67457 0.13264 0.0
H303 H 0.22825 0.71129 0.14948 0.0
O304 O 0.20976 0.94524 0.1161 0.0
C305 C 0.288 0.86188 0.13023 0.0
Co306 Co 0.31548 0.21311 0.29704 0.0
Co307 Co 0.40498 0.20099 0.31152 0.0
C308 C 0.32503 0.20202 0.33492 0.0
O309 O 0.29994 0.20532 0.32216 0.0
O310 O 0.36542 0.20008 0.33241 0.0
C311 C 0.21482 0.19275 0.28737 0.0
O312 O 0.19881 0.16413 0.30144 0.0
C313 C 0.43835 0.13723 0.32831 0.0
C314 C 0.51976 0.17508 0.32164 0.0
C315 C 0.48128 0.13241 0.32985 0.0
N316 N 0.45095 0.18013 0.31947 0.0
N317 N 0.49983 0.20307 0.31576 0.0
C318 C 0.38498 0.09974 0.33348 0.0
H319 H 0.35762 0.1068 0.32615 0.0
H320 H 0.37665 0.06037 0.33103 0.0
H321 H 0.38004 0.10395 0.34765 0.0
C322 C 0.29743 0.12463 0.27611 0.0
N323 N 0.32377 0.16012 0.28828 0.0
N324 N 0.36241 0.15553 0.2936 0.0
C325 C 0.36217 0.11702 0.28466 0.0
C326 C 0.32035 0.09572 0.2736 0.0
C327 C 0.25356 0.12114 0.26602 0.0
H328 H 0.22065 0.10861 0.27492 0.0
H329 H 0.24238 0.09414 0.25493 0.0
H330 H 0.26389 0.15895 0.26068 0.0
O331 O 0.37716 0.27871 0.29346 0.0
O332 O 0.44285 0.27297 0.30321 0.0
H333 H 0.43917 0.13461 0.28857 0.0
H334 H 0.40214 0.07997 0.27481 0.0
C335 C 0.40113 0.10101 0.2865 0.0
H336 H 0.39148 0.07537 0.29792 0.0
H337 H 0.51909 0.23677 0.30865 0.0
O338 O 0.26188 0.2167 0.28387 0.0
C339 C 0.4245 0.29852 0.2963 0.0
Co340 Co 0.10762 0.32101 0.46231 0.0
Co341 Co 0.20984 0.40638 0.47823 0.0
C342 C 0.12484 0.32894 0.50067 0.0
O343 O 0.09743 0.30597 0.48746 0.0
O344 O 0.16863 0.36798 0.49888 0.0
C345 C 0.02762 0.22113 0.45271 0.0
O346 O 0.04207 0.20539 0.4664 0.0
C347 C 0.30606 0.44455 0.49725 0.0
C348 C 0.35565 0.5146 0.48251 0.0
C349 C 0.35639 0.48277 0.49538 0.0
N350 N 0.27773 0.45248 0.48552 0.0
N351 N 0.30741 0.49512 0.47708 0.0
C352 C 0.28466 0.40132 0.50997 0.0
H353 H 0.2481 0.39519 0.51518 0.0
H354 H 0.27757 0.36615 0.50317 0.0
H355 H 0.31059 0.40898 0.52121 0.0
C356 C 0.17697 0.29848 0.44262 0.0
N357 N 0.16828 0.3259 0.4545 0.0
N358 N 0.21172 0.36143 0.46096 0.0
C359 C 0.24965 0.35731 0.45333 0.0
C360 C 0.22862 0.31693 0.44169 0.0
C361 C 0.13696 0.25809 0.43131 0.0
H362 H 0.11509 0.22307 0.43915 0.0
H363 H 0.15356 0.24917 0.41986 0.0
H364 H 0.11076 0.27071 0.42644 0.0
O365 O 0.10704 0.38398 0.45803 0.0
O366 O 0.17859 0.44635 0.46904 0.0
H367 H 0.32876 0.38064 0.44905 0.0
H368 H 0.31196 0.38618 0.47115 0.0
C369 C 0.30487 0.39057 0.45722 0.0
H370 H 0.31595 0.43071 0.45483 0.0
H371 H 0.29523 0.50935 0.46691 0.0
O372 O 0.04992 0.26816 0.4492 0.0
C373 C 0.13616 0.43078 0.46132 0.0
Co374 Co 0.78434 0.10728 0.6291 0.0
Co375 Co 0.80996 0.21187 0.64583 0.0
C376 C 0.79632 0.12418 0.66773 0.0
O377 O 0.78878 0.09625 0.65436 0.0
O378 O 0.80537 0.16965 0.66626 0.0
C379 C 0.79902 0.0241 0.61946 0.0
O380 O 0.82955 0.03812 0.63304 0.0
C381 C 0.87219 0.30855 0.66453 0.0
C382 C 0.85254 0.35904 0.64996 0.0
C383 C 0.88517 0.35918 0.66267 0.0
N384 N 0.83523 0.28061 0.65295 0.0
N385 N 0.8229 0.3109 0.64459 0.0
C386 C 0.89382 0.28659 0.6771 0.0
H387 H 0.9229 0.28094 0.67034 0.0
H388 H 0.9111 0.31174 0.68859 0.0
H389 H 0.86363 0.24924 0.68185 0.0
C390 C 0.87635 0.17304 0.60876 0.0
N391 N 0.84212 0.16624 0.62117 0.0
N392 N 0.85362 0.21037 0.62803 0.0
C393 C 0.89613 0.2468 0.62017 0.0
C394 C 0.91199 0.22411 0.60788 0.0
C395 C 0.87252 0.13207 0.59689 0.0
H396 H 0.83271 0.10771 0.59259 0.0
H397 H 0.88477 0.10841 0.60411 0.0
H398 H 0.89674 0.14787 0.58511 0.0
O399 O 0.72277 0.11124 0.62517 0.0
O400 O 0.73851 0.18372 0.63759 0.0
H401 H 0.89498 0.31628 0.62219 0.0
H402 H 0.95623 0.32459 0.6164 0.0
C403 C 0.92172 0.30212 0.62444 0.0
H404 H 0.93298 0.30771 0.6384 0.0
H405 H 0.79601 0.29907 0.63459 0.0
O406 O 0.77572 0.04787 0.61591 0.0
C407 C 0.70883 0.14275 0.62951 0.0
C408 C 0.15181 0.12111 0.04 0.0
C409 C 0.18926 0.17251 0.04025 0.0
C410 C 0.15127 0.08744 0.05269 0.0
C411 C 0.18931 0.1057 0.06577 0.0
C412 C 0.22794 0.15723 0.06579 0.0
C413 C 0.22737 0.19003 0.05305 0.0
C414 C 0.10945 0.03265 0.05232 0.0
C415 C 0.26948 0.17794 0.07941 0.0
C416 C 0.16421 0.03388 0.10863 0.0
C417 C 0.19016 0.00719 0.10601 0.0
C418 C 0.16321 0.06579 0.09556 0.0
C419 C 0.18881 0.07107 0.07954 0.0
C420 C 0.21516 0.04435 0.07684 0.0
C421 C 0.21554 0.01277 0.0901 0.0
C422 C 0.13478 0.09386 0.09887 0.0
C423 C 0.24304 0.04919 0.05994 0.0
H424 H 0.1221 0.10744 0.0302 0.0
H425 H 0.25659 0.22969 0.05327 0.0
H426 H 0.12591 0.00736 0.0516 0.0
H427 H 0.08706 0.02329 0.06459 0.0
H428 H 0.08337 0.02424 0.04104 0.0
H429 H 0.29742 0.21872 0.07732 0.0
H430 H 0.25272 0.17335 0.09265 0.0
H431 H 0.28991 0.15627 0.07921 0.0
H432 H 0.14438 0.02962 0.12085 0.0
H433 H 0.23559 0.99218 0.08792 0.0
H434 H 0.10538 0.08399 0.08866 0.0
H435 H 0.16122 0.13537 0.09805 0.0
H436 H 0.11615 0.08499 0.11191 0.0
H437 H 0.21643 0.03797 0.04872 0.0
H438 H 0.26121 0.02532 0.05984 0.0
H439 H 0.27281 0.08929 0.05785 0.0
C440 C 0.12614 0.16067 0.2766 0.0
C441 C 0.17858 0.19196 0.2743 0.0
C442 C 0.09193 0.15725 0.2636 0.0
C443 C 0.11074 0.18579 0.248 0.0
C444 C 0.16355 0.21788 0.24571 0.0
C445 C 0.1968 0.22063 0.25889 0.0
C446 C 0.03574 0.12281 0.26648 0.0
C447 C 0.18499 0.24905 0.22928 0.0
C448 C 0.02776 0.14502 0.20736 0.0
C449 C 0.00858 0.17839 0.20766 0.0
C450 C 0.06094 0.1468 0.22047 0.0
C451 C 0.07525 0.18287 0.23413 0.0
C452 C 0.05645 0.21698 0.23439 0.0
C453 C 0.02338 0.21433 0.22116 0.0
C454 C 0.08045 0.10992 0.2198 0.0
C455 C 0.07109 0.25616 0.24869 0.0
H456 H 0.1118 0.13831 0.28843 0.0
H457 H 0.23727 0.2449 0.25698 0.0
H458 H 0.01592 0.14501 0.26573 0.0
H459 H 0.01984 0.09369 0.25601 0.0
H460 H 0.02727 0.1033 0.27936 0.0
H461 H 0.22706 0.27216 0.22956 0.0
H462 H 0.17351 0.22376 0.21768 0.0
H463 H 0.16943 0.27486 0.22752 0.0
H464 H 0.01633 0.11702 0.19702 0.0
H465 H 0.00877 0.24032 0.22151 0.0
H466 H 0.06944 0.08665 0.2319 0.0
H467 H 0.1225 0.13095 0.2192 0.0
H468 H 0.0656 0.08412 0.20833 0.0
H469 H 0.05999 0.23719 0.26164 0.0
H470 H 0.05295 0.27977 0.24701 0.0
H471 H 0.11286 0.28152 0.24886 0.0
C472 C 0.97579 0.20254 0.42557 0.0
C473 C 0.99022 0.18466 0.44016 0.0
C474 C 0.94256 0.16904 0.41297 0.0
C475 C 0.92327 0.11636 0.41499 0.0
C476 C 0.93736 0.09792 0.42972 0.0
C477 C 0.97069 0.13235 0.44217 0.0
C478 C 0.92814 0.19005 0.39747 0.0
C479 C 0.91736 0.04186 0.43227 0.0
C480 C 0.80081 0.02774 0.39159 0.0
C481 C 0.81835 0.01331 0.37691 0.0
C482 C 0.83459 0.0611 0.4041 0.0
C483 C 0.88723 0.08055 0.40189 0.0
C484 C 0.90536 0.06657 0.38706 0.0
C485 C 0.87063 0.03308 0.3747 0.0
C486 C 0.81389 0.07538 0.41972 0.0
C487 C 0.96137 0.08676 0.38431 0.0
H488 H 0.99073 0.24293 0.4239 0.0
H489 H 0.98187 0.11831 0.45337 0.0
H490 H 0.93869 0.17851 0.38511 0.0
H491 H 0.88645 0.17421 0.39722 0.0
H492 H 0.94688 0.23211 0.39777 0.0
H493 H 0.93243 0.03374 0.44434 0.0
H494 H 0.87534 0.02144 0.43305 0.0
H495 H 0.9277 0.02629 0.42087 0.0
H496 H 0.76045 0.01264 0.39342 0.0
H497 H 0.88443 0.02192 0.36343 0.0
H498 H 0.82984 0.11708 0.42007 0.0
H499 H 0.82557 0.06457 0.432 0.0
H500 H 0.77184 0.05673 0.41951 0.0
H501 H 0.9817 0.1288 0.38366 0.0
H502 H 0.96926 0.07202 0.37211 0.0
H503 H 0.97724 0.07619 0.39556 0.0
C504 C 0.76348 0.79535 0.55812 0.0
C505 C 0.79711 0.81373 0.54389 0.0
C506 C 0.76225 0.8285 0.57058 0.0
C507 C 0.79554 0.8813 0.5688 0.0
C508 C 0.82907 0.90023 0.55435 0.0
C509 C 0.82938 0.86618 0.54202 0.0
C510 C 0.72574 0.80696 0.58577 0.0
C511 C 0.8651 0.95638 0.55204 0.0
C512 C 0.76406 0.97156 0.59248 0.0
C513 C 0.79624 0.98538 0.6071 0.0
C514 C 0.76322 0.93746 0.57998 0.0
C515 C 0.79538 0.91673 0.58212 0.0
C516 C 0.82742 0.92988 0.59696 0.0
C517 C 0.82741 0.96403 0.6093 0.0
C518 C 0.72834 0.92408 0.56438 0.0
C519 C 0.8622 0.90841 0.59965 0.0
H520 H 0.73834 0.75487 0.55966 0.0
H521 H 0.85557 0.88065 0.5311 0.0
H522 H 0.7471 0.81701 0.59828 0.0
H523 H 0.70071 0.82375 0.58609 0.0
H524 H 0.70165 0.76503 0.58505 0.0
H525 H 0.88828 0.96499 0.53995 0.0
H526 H 0.84358 0.97692 0.55149 0.0
H527 H 0.89102 0.97138 0.56345 0.0
H528 H 0.73981 0.98784 0.59067 0.0
H529 H 0.85246 0.97462 0.62052 0.0
H530 H 0.70254 0.88243 0.56375 0.0
H531 H 0.75093 0.93553 0.55212 0.0
H532 H 0.70503 0.94283 0.56481 0.0
H533 H 0.8398 0.86636 0.59997 0.0
H534 H 0.88432 0.92198 0.61199 0.0
H535 H 0.8891 0.91925 0.58853 0.0
C536 C 0.96563 0.76012 0.72379 0.0
C537 C 0.98855 0.79945 0.71148 0.0
C538 C 0.93148 0.7595 0.73621 0.0
C539 C 0.9202 0.7993 0.73639 0.0
C540 C 0.94265 0.83878 0.72387 0.0
C541 C 0.97647 0.83828 0.7115 0.0
C542 C 0.90783 0.7165 0.74926 0.0
C543 C 0.93149 0.88187 0.72371 0.0
C544 C 0.7986 0.77535 0.7583 0.0
C545 C 0.81627 0.79928 0.77456 0.0
C546 C 0.83205 0.77511 0.74578 0.0
C547 C 0.88447 0.7993 0.74959 0.0
C548 C 0.90262 0.8232 0.76601 0.0
C549 C 0.86825 0.82292 0.77832 0.0
C550 C 0.8113 0.74919 0.72841 0.0
C551 C 0.95837 0.84929 0.7705 0.0
H552 H 0.97473 0.72993 0.72382 0.0
H553 H 0.9943 0.86895 0.7021 0.0
H554 H 0.91812 0.73166 0.76276 0.0
H555 H 0.86587 0.69695 0.74827 0.0
H556 H 0.92018 0.68814 0.74722 0.0
H557 H 0.95185 0.90948 0.71303 0.0
H558 H 0.89016 0.8668 0.72209 0.0
H559 H 0.94268 0.90227 0.7364 0.0
H560 H 0.7585 0.75706 0.75525 0.0
H561 H 0.88217 0.84153 0.79084 0.0
H562 H 0.82116 0.71905 0.72634 0.0
H563 H 0.82884 0.77693 0.71759 0.0
H564 H 0.76944 0.73187 0.72755 0.0
H565 H 0.97225 0.82186 0.76966 0.0
H566 H 0.96633 0.86598 0.78385 0.0
H567 H 0.98041 0.87993 0.76091 0.0
C568 C 0.12954 0.9697 0.87796 0.0
C569 C 0.18205 0.99157 0.88029 0.0
C570 C 0.09544 0.937 0.89062 0.0
C571 C 0.11441 0.9259 0.90591 0.0
C572 C 0.16732 0.94769 0.9083 0.0
C573 C 0.20049 0.98027 0.89547 0.0
C574 C 0.03915 0.91434 0.88766 0.0
C575 C 0.18892 0.93649 0.92439 0.0
C576 C 0.02881 0.8743 0.94575 0.0
C577 C 0.01073 0.82212 0.94417 0.0
C578 C 0.06269 0.90867 0.93338 0.0
C579 C 0.0789 0.8903 0.9192 0.0
C580 C 0.06144 0.83781 0.91771 0.0
C581 C 0.02755 0.80437 0.9302 0.0
C582 C 0.08065 0.9645 0.93535 0.0
C583 C 0.0782 0.81686 0.90283 0.0
H584 H 0.11502 0.97842 0.86631 0.0
H585 H 0.24103 0.99705 0.8974 0.0
H586 H 0.02049 0.87234 0.88736 0.0
H587 H 0.0221 0.92454 0.89865 0.0
H588 H 0.03059 0.92745 0.87522 0.0
H589 H 0.23107 0.95703 0.92434 0.0
H590 H 0.17588 0.94733 0.93633 0.0
H591 H 0.17496 0.89519 0.92525 0.0
H592 H 0.01582 0.88825 0.95646 0.0
H593 H 0.01387 0.7641 0.92889 0.0
H594 H 0.06941 0.97831 0.92369 0.0
H595 H 0.12267 0.98641 0.93612 0.0
H596 H 0.06484 0.97268 0.94721 0.0
H597 H 0.06703 0.82609 0.89014 0.0
H598 H 0.0615 0.77507 0.90369 0.0
H599 H 0.12015 0.83478 0.9028 0.0
C600 C 0.5493 0.47745 0.99421 0.0
C601 C 0.59456 0.51204 0.00256 0.0
C602 C 0.50256 0.47136 -0.00044 0.0
C603 C 0.50082 0.50078 0.01362 0.0
C604 C 0.54634 0.53618 0.02205 0.0
C605 C 0.59265 0.54088 0.01658 0.0
C606 C 0.45486 0.43271 0.99029 0.0
C607 C 0.54607 0.56832 0.03705 0.0
C608 C 0.3736 0.49455 0.0137 0.0
C609 C 0.34543 0.45152 0.02416 0.0
C610 C 0.42615 0.51489 0.01152 0.0
C611 C 0.45059 0.49141 0.01995 0.0
C612 C 0.42333 0.45197 0.03214 0.0
C613 C 0.37112 0.4327 0.03416 0.0
C614 C 0.45429 0.55802 -0.00119 0.0
C615 C 0.44779 0.42599 0.04153 0.0
H616 H 0.55035 0.45505 0.98335 0.0
H617 H 0.62701 0.56637 0.02356 0.0
H618 H 0.42902 0.40345 -0.00027 0.0
H619 H 0.43445 0.45132 0.98485 0.0
H620 H 0.46288 0.41345 0.97943 0.0
H621 H 0.5849 0.59907 0.04044 0.0
H622 H 0.52241 0.58554 0.0338 0.0
H623 H 0.52917 0.54418 0.04878 0.0
H624 H 0.35411 0.50956 0.00602 0.0
H625 H 0.34967 0.39997 0.04252 0.0
H626 H 0.45919 0.54277 0.98622 0.0
H627 H 0.49263 0.58534 0.00384 0.0
H628 H 0.43336 0.57857 0.99619 0.0
H629 H 0.45329 0.40126 0.03216 0.0
H630 H 0.42408 0.4021 0.05255 0.0
H631 H 0.48564 0.45412 0.04667 0.0
C632 C 0.94464 0.36264 0.17093 0.0
C633 C 0.89995 0.33892 0.1808 0.0
C634 C 0.97466 0.41539 0.17037 0.0
C635 C 0.9603 0.44543 0.18032 0.0
C636 C 0.91468 0.42178 0.19017 0.0
C637 C 0.88446 0.36843 0.19013 0.0
C638 C 0.02222 0.43883 0.1593 0.0
C639 C 0.89877 0.45267 0.20113 0.0
C640 C 0.07756 0.57248 0.18778 0.0
C641 C 0.07421 0.60059 0.17389 0.0
C642 C 0.03768 0.5233 0.19133 0.0
C643 C 0.99438 0.5014 0.18033 0.0
C644 C 0.98962 0.531 0.16697 0.0
C645 C 0.02967 0.58037 0.16393 0.0
C646 C 0.04385 0.49334 0.20591 0.0
C647 C 0.9447 0.50896 0.15472 0.0
H648 H 0.95619 0.33961 0.16356 0.0
H649 H 0.84993 0.34984 0.19782 0.0
H650 H 0.02199 0.46692 0.15009 0.0
H651 H 0.0561 0.45927 0.16779 0.0
H652 H 0.02623 0.41007 0.15159 0.0
H653 H 0.86074 0.42892 0.20711 0.0
H654 H 0.92684 0.47193 0.21176 0.0
H655 H 0.89818 0.48271 0.19309 0.0
H656 H 0.11217 0.58824 0.19542 0.0
H657 H 0.02761 0.6016 0.15289 0.0
H658 H 0.05375 0.4658 0.20026 0.0
H659 H 0.00785 0.47144 0.21327 0.0
H660 H 0.07434 0.51825 0.21518 0.0
H661 H 0.94836 0.48326 0.14528 0.0
H662 H 0.94227 0.53894 0.14721 0.0
H663 H 0.90874 0.48619 0.162 0.0
C664 C 0.45568 0.0579 0.35011 0.0
C665 C 0.48546 0.08854 0.33622 0.0
C666 C 0.45938 0.01582 0.3557 0.0
C667 C 0.49472 0.0051 0.34754 0.0
C668 C 0.5252 0.03625 0.33364 0.0
C669 C 0.52009 0.07738 0.32816 0.0
C670 C 0.42617 0.98345 0.37052 0.0
C671 C 0.56386 0.02658 0.32467 0.0
C672 C 0.5595 0.94088 0.36864 0.0
C673 C 0.5405 0.89653 0.35856 0.0
C674 C 0.54133 0.97468 0.36643 0.0
C675 C 0.50278 0.96351 0.35396 0.0
C676 C 0.47902 0.91579 0.34541 0.0
C677 C 0.49828 0.88272 0.34778 0.0
C678 C 0.56763 0.0249 0.37593 0.0
C679 C 0.4368 0.90189 0.33239 0.0
H680 H 0.43015 0.06717 0.35687 0.0
H681 H 0.54322 0.10078 0.31741 0.0
H682 H 0.40788 0.94264 0.36706 0.0
H683 H 0.44971 0.98937 0.38232 0.0
H684 H 0.39617 0.99268 0.37389 0.0
H685 H 0.58412 0.05403 0.31394 0.0
H686 H 0.5923 0.02917 0.33433 0.0
H687 H 0.54499 0.9877 0.31912 0.0
H688 H 0.59159 0.95135 0.37725 0.0
H689 H 0.48313 0.84835 0.34003 0.0
H690 H 0.5398 0.0354 0.3808 0.0
H691 H 0.5934 0.05501 0.36671 0.0
H692 H 0.5905 0.02426 0.38716 0.0
H693 H 0.40973 0.91354 0.3372 0.0
H694 H 0.41573 0.86049 0.32966 0.0
H695 H 0.45306 0.92219 0.3199 0.0
C696 C 0.44753 0.5341 0.50362 0.0
C697 C 0.40337 0.4865 0.5027 0.0
C698 C 0.49424 0.53876 0.50825 0.0
C699 C 0.49673 0.49478 0.5126 0.0
C700 C 0.45203 0.44679 0.51242 0.0
C701 C 0.40622 0.44304 0.50694 0.0
C702 C 0.54128 0.59065 0.5078 0.0
C703 C 0.45272 0.39912 0.5174 0.0
C704 C 0.62728 0.51308 0.50446 0.0
C705 C 0.65108 0.53456 0.52039 0.0
C706 C 0.5756 0.49635 0.50203 0.0
C707 C 0.54697 0.49949 0.51611 0.0
C708 C 0.56958 0.5151 0.53283 0.0
C709 C 0.62184 0.53369 0.53468 0.0
C710 C 0.5534 0.48105 0.48389 0.0
C711 C 0.53966 0.51637 0.54837 0.0
H712 H 0.44587 0.56781 0.50017 0.0
H713 H 0.37344 0.40573 0.50532 0.0
H714 H 0.5595 0.60031 0.52087 0.0
H715 H 0.56917 0.59062 0.49844 0.0
H716 H 0.5329 0.62084 0.50385 0.0
H717 H 0.41405 0.36743 0.52044 0.0
H718 H 0.46805 0.38714 0.50638 0.0
H719 H 0.47751 0.40584 0.52892 0.0
H720 H 0.65014 0.51453 0.49335 0.0
H721 H 0.6404 0.55045 0.54699 0.0
H722 H 0.54715 0.51123 0.47835 0.0
H723 H 0.5161 0.44567 0.48432 0.0
H724 H 0.57878 0.47526 0.47491 0.0
H725 H 0.53428 0.54974 0.54733 0.0
H726 H 0.55945 0.51919 0.5609 0.0
H727 H 0.5015 0.48189 0.5487 0.0
C728 C 0.92525 0.45017 0.67107 0.0
C729 C 0.92849 0.40589 0.67012 0.0
C730 C 0.96727 0.49671 0.67582 0.0
C731 C 0.0136 0.49898 0.68023 0.0
C732 C 0.01669 0.45413 0.68003 0.0
C733 C 0.97456 0.40841 0.67449 0.0
C734 C 0.9625 0.54383 0.67547 0.0
C735 C 0.06488 0.45454 0.68503 0.0
C736 C 0.1243 0.63049 0.67244 0.0
C737 C 0.1254 0.65383 0.68835 0.0
C738 C 0.09071 0.57849 0.66995 0.0
C739 C 0.05902 0.54917 0.68394 0.0
C740 C 0.06529 0.5714 0.70069 0.0
C741 C 0.09766 0.62387 0.70262 0.0
C742 C 0.0848 0.55662 0.6518 0.0
C743 C 0.03424 0.54082 0.71616 0.0
H744 H 0.89003 0.44876 0.66758 0.0
H745 H 0.97885 0.37545 0.67295 0.0
H746 H 0.97069 0.56165 0.68861 0.0
H747 H 0.99069 0.57199 0.66624 0.0
H748 H 0.92408 0.53565 0.67142 0.0
H749 H 0.05755 0.41588 0.68832 0.0
H750 H 0.09188 0.46898 0.67391 0.0
H751 H 0.08344 0.47987 0.6964 0.0
H752 H 0.1453 0.65379 0.66134 0.0
H753 H 0.09859 0.642 0.71494 0.0
H754 H 0.04854 0.55021 0.64605 0.0
H755 H 0.08321 0.51946 0.65226 0.0
H756 H 0.11628 0.58233 0.64298 0.0
H757 H 0.99529 0.53494 0.71513 0.0
H758 H 0.05094 0.56042 0.72873 0.0
H759 H 0.03114 0.5029 0.71636 0.0
C760 C 0.47697 0.92186 0.82794 0.0
C761 C 0.51256 0.91166 0.83578 0.0
C762 C 0.47179 0.96306 0.83328 0.0
C763 C 0.50322 0.99533 0.84679 0.0
C764 C 0.53951 0.9856 0.85474 0.0
C765 C 0.54323 0.94338 0.84932 0.0
C766 C 0.43208 0.97162 0.82456 0.0
C767 C 0.57378 0.01918 0.86914 0.0
C768 C 0.49872 0.11726 0.8464 0.0
C769 C 0.45745 0.10412 0.85759 0.0
C770 C 0.51803 0.08421 0.84404 0.0
C771 C 0.49528 0.03718 0.85303 0.0
C772 C 0.45776 0.02676 0.86584 0.0
C773 C 0.43951 0.06051 0.86803 0.0
C774 C 0.55919 0.09736 0.83065 0.0
C775 C 0.4326 0.9773 0.87582 0.0
H776 H 0.45311 0.89765 0.81747 0.0
H777 H 0.5695 0.9349 0.85595 0.0
H778 H 0.4044 0.96955 0.83446 0.0
H779 H 0.45016 0.01004 0.81865 0.0
H780 H 0.41103 0.94328 0.81416 0.0
H781 H 0.60445 0.01072 0.87226 0.0
H782 H 0.59123 0.05973 0.8654 0.0
H783 H 0.5512 0.01368 0.88117 0.0
H784 H 0.51312 0.15107 0.83838 0.0
H785 H 0.40822 0.05058 0.87696 0.0
H786 H 0.54199 0.0759 0.81842 0.0
H787 H 0.58693 0.08648 0.83536 0.0
H788 H 0.57967 0.1385 0.82748 0.0
H789 H 0.40624 0.94637 0.86697 0.0
H790 H 0.41055 0.97862 0.8872 0.0
H791 H 0.46105 0.96749 0.88056 0.0
C792 C 0.45465 0.3984 0.80091 0.0
C793 C 0.4858 0.39743 0.81429 0.0
C794 C 0.45804 0.44427 0.7956 0.0
C795 C 0.4944 0.49027 0.80352 0.0
C796 C 0.52633 0.4895 0.81687 0.0
C797 C 0.52154 0.44319 0.82209 0.0
C798 C 0.42332 0.44355 0.78136 0.0
C799 C 0.56609 0.53775 0.82557 0.0
C800 C 0.55752 0.61962 0.78276 0.0
C801 C 0.53976 0.64489 0.79348 0.0
C802 C 0.53918 0.56753 0.78464 0.0
C803 C 0.50184 0.54 0.79746 0.0
C804 C 0.47916 0.56395 0.8067 0.0
C805 C 0.49849 0.61638 0.80462 0.0
C806 C 0.56423 0.54361 0.77438 0.0
C807 C 0.43824 0.53551 0.82013 0.0
H808 H 0.42819 0.36359 0.79435 0.0
H809 H 0.54573 0.44285 0.83244 0.0
H810 H 0.40553 0.46619 0.78532 0.0
H811 H 0.4456 0.46113 0.76932 0.0
H812 H 0.39289 0.40439 0.77817 0.0
H813 H 0.58753 0.53049 0.83584 0.0
H814 H 0.59343 0.56356 0.81564 0.0
H815 H 0.54797 0.55784 0.83165 0.0
H816 H 0.58885 0.64136 0.77388 0.0
H817 H 0.48432 0.63556 0.81287 0.0
H818 H 0.5358 0.50534 0.76965 0.0
H819 H 0.59107 0.53917 0.78303 0.0
H820 H 0.58575 0.56718 0.76296 0.0
H821 H 0.4106 0.49693 0.81537 0.0
H822 H 0.4176 0.55592 0.82345 0.0
H823 H 0.45571 0.53117 0.83228 0.0
C824 C 0.93652 0.56291 0.95204 0.0
C825 C 0.89161 0.54367 0.96183 0.0
C826 C 0.96938 0.54354 0.95409 0.0
C827 C 0.95673 0.50357 0.9661 0.0
C828 C 0.90853 0.47981 0.97432 0.0
C829 C 0.87641 0.50026 0.97212 0.0
C830 C 0.02015 0.56987 0.94493 0.0
C831 C 0.89303 0.43608 0.98681 0.0
C832 C 0.04926 0.45398 0.96934 0.0
C833 C 0.07953 0.48214 0.98355 0.0
C834 C 0.00775 0.45884 0.96386 0.0
C835 C 0.9973 0.49381 0.97246 0.0
C836 C 0.02795 0.52253 0.98672 0.0
C837 C 0.06845 0.51621 0.99209 0.0
C838 C 0.97585 0.4274 0.94867 0.0
C839 C 0.01857 0.56074 0.99617 0.0
H840 H 0.94806 0.5959 0.94379 0.0
H841 H 0.84159 0.48489 0.97963 0.0
H842 H 0.05005 0.59397 0.95449 0.0
H843 H 0.02991 0.54191 0.93964 0.0
H844 H 0.02084 0.59442 0.93405 0.0
H845 H 0.85149 0.41553 0.98927 0.0
H846 H 0.90413 0.40891 0.98166 0.0
H847 H 0.91279 0.45071 -0.00051 0.0
H848 H 0.05844 0.42892 0.96222 0.0
H849 H 0.09151 0.53809 0.00309 0.0
H850 H 0.98385 0.45199 0.93701 0.0
H851 H 0.93487 0.4104 0.9517 0.0
H852 H 0.98374 0.39652 0.94526 0.0
H853 H 0.02229 0.59045 0.98687 0.0
H854 H 0.04548 0.57947 0.00716 0.0
H855 H 0.97938 0.54187 0.00145 0.0
C856 C 0.36944 0.92739 0.11716 0.0
C857 C 0.34347 0.88459 0.12794 0.0
C858 C 0.42179 0.96004 0.11892 0.0
C859 C 0.44885 0.94934 0.13167 0.0
C860 C 0.42402 0.9029 0.14099 0.0
C861 C 0.37138 0.87092 0.13903 0.0
C862 C 0.44668 0.00885 0.10856 0.0
C863 C 0.45191 0.88948 0.15436 0.0
C864 C 0.59133 0.04019 0.13441 0.0
C865 C 0.59401 0.07333 0.14769 0.0
C866 C 0.54457 0.99848 0.12938 0.0
C867 C 0.49942 0.99063 0.1375 0.0
C868 C 0.50193 0.02426 0.1508 0.0
C869 C 0.5491 0.06501 0.15572 0.0
C870 C 0.54344 0.96345 0.11518 0.0
C871 C 0.45465 0.01764 0.15971 0.0
H872 H 0.34818 0.93769 0.10831 0.0
H873 H 0.35166 0.83774 0.14733 0.0
H874 H 0.45254 0.04066 0.11721 0.0
H875 H 0.48439 0.01732 0.10366 0.0
H876 H 0.42306 0.0075 0.09726 0.0
H877 H 0.43052 0.84855 0.15781 0.0
H878 H 0.49002 0.89909 0.14947 0.0
H879 H 0.45734 0.91181 0.16646 0.0
H880 H 0.62548 0.04723 0.12766 0.0
H881 H 0.55078 0.09036 0.166 0.0
H882 H 0.52607 0.96873 0.10319 0.0
H883 H 0.51977 0.92326 0.11926 0.0
H884 H 0.58204 0.97067 0.11186 0.0
H885 H 0.42906 0.02009 0.1499 0.0
H886 H 0.46326 0.04676 0.16996 0.0
H887 H 0.43369 0.9796 0.16587 0.0
C888 C 0.47579 0.55501 0.32462 0.0
C889 C 0.51056 0.60093 0.31666 0.0
C890 C 0.47076 0.50887 0.31906 0.0
C891 C 0.50151 0.50845 0.30521 0.0
C892 C 0.53696 0.55461 0.29715 0.0
C893 C 0.54051 0.60027 0.30279 0.0
C894 C 0.43193 0.46042 0.32791 0.0
C895 C 0.57049 0.55573 0.28239 0.0
C896 C 0.4979 0.38255 0.30508 0.0
C897 C 0.4558 0.35422 0.29424 0.0
C898 C 0.51724 0.43488 0.30741 0.0
C899 C 0.49367 0.45891 0.29877 0.0
C900 C 0.45535 0.43163 0.28622 0.0
C901 C 0.4371 0.37965 0.28405 0.0
C902 C 0.55928 0.46313 0.32049 0.0
C903 C 0.42931 0.45565 0.2766 0.0
H904 H 0.45249 0.55509 0.33534 0.0
H905 H 0.5661 0.63515 0.29609 0.0
H906 H 0.40378 0.43468 0.31816 0.0
H907 H 0.45072 0.44039 0.33352 0.0
H908 H 0.41133 0.4674 0.33856 0.0
H909 H 0.60084 0.59496 0.27925 0.0
H910 H 0.58833 0.53272 0.28578 0.0
H911 H 0.54726 0.53883 0.27048 0.0
H912 H 0.51285 0.36327 0.3129 0.0
H913 H 0.40515 0.3581 0.27538 0.0
H914 H 0.54285 0.46718 0.33294 0.0
H915 H 0.58644 0.50182 0.31569 0.0
H916 H 0.58027 0.44274 0.32329 0.0
H917 H 0.40328 0.45991 0.28572 0.0
H918 H 0.40676 0.43226 0.26531 0.0
H919 H 0.45726 0.49401 0.2718 0.0
C920 C 0.95795 0.55494 0.46777 0.0
C921 C 0.92661 0.52404 0.48134 0.0
C922 C 0.0001 0.55142 0.46212 0.0
C923 C 0.01004 0.51497 0.46984 0.0
C924 C 0.97831 0.48352 0.48346 0.0
C925 C 0.9373 0.48862 0.48906 0.0
C926 C 0.03309 0.58582 0.44764 0.0
C927 C 0.98707 0.44367 0.49196 0.0
C928 C 0.07167 0.44844 0.44836 0.0
C929 C 0.11475 0.46468 0.45896 0.0
C930 C 0.03953 0.46865 0.45042 0.0
C931 C 0.0512 0.50651 0.46321 0.0
C932 C 0.09831 0.52807 0.47212 0.0
C933 C 0.12964 0.50672 0.46993 0.0
C934 C 0.99003 0.44484 0.44047 0.0
C935 C 0.113 0.56988 0.48536 0.0
H936 H 0.94915 0.58113 0.46124 0.0
H937 H 0.91345 0.46463 0.49957 0.0
H938 H 0.07381 0.60005 0.45039 0.0
H939 H 0.02365 0.56426 0.43519 0.0
H940 H 0.02728 0.61877 0.44575 0.0
H941 H 0.95911 0.42261 0.50247 0.0
H942 H 0.98452 0.41599 0.48198 0.0
H943 H 0.0257 0.46161 0.4977 0.0
H944 H 0.06051 0.41666 0.43955 0.0
H945 H 0.16319 0.51995 0.47802 0.0
H946 H 0.98147 0.47418 0.43574 0.0
H947 H 0.95876 0.41917 0.44935 0.0
H948 H 0.99046 0.42233 0.4291 0.0
H949 H 0.10275 0.59809 0.48065 0.0
H950 H 0.15429 0.58963 0.48827 0.0
H951 H 0.09204 0.55347 0.49774 0.0
C952 C 0.45206 0.92718 0.64914 0.0
C953 C 0.40708 0.92924 0.64885 0.0
C954 C 0.49828 0.96871 0.64384 0.0
C955 C 0.49952 0.01317 0.6376 0.0
C956 C 0.454 0.0149 0.63656 0.0
C957 C 0.40858 0.97349 0.64268 0.0
C958 C 0.54611 0.96554 0.64557 0.0
C959 C 0.45331 0.06098 0.62961 0.0
C960 C 0.62976 0.12691 0.64411 0.0
C961 C 0.65401 0.12453 0.62886 0.0
C962 C 0.57773 0.09351 0.64662 0.0
C963 C 0.54933 0.05832 0.63327 0.0
C964 C 0.57237 0.06099 0.61692 0.0
C965 C 0.62483 0.09342 0.61501 0.0
C966 C 0.55488 0.09169 0.66433 0.0
C967 C 0.54274 0.02609 0.60204 0.0
H968 H 0.45141 0.8934 0.65402 0.0
H969 H 0.375 0.97704 0.64323 0.0
H970 H 0.56447 0.97091 0.6326 0.0
H971 H 0.57352 0.99628 0.65426 0.0
H972 H 0.53868 0.92857 0.651 0.0
H973 H 0.41462 0.05154 0.62539 0.0
H974 H 0.46573 0.09013 0.64003 0.0
H975 H 0.47963 0.07789 0.61837 0.0
H976 H 0.65237 0.15065 0.65488 0.0
H977 H 0.64359 0.09177 0.60317 0.0
H978 H 0.5487 0.05721 0.67142 0.0
H979 H 0.51749 0.08928 0.66293 0.0
H980 H 0.57986 0.12542 0.67242 0.0
H981 H 0.53742 0.9878 0.60452 0.0
H982 H 0.56277 0.03999 0.58934 0.0
H983 H 0.50456 0.02221 0.60102 0.0
C984 C 0.33737 0.28631 0.90412 0.0
C985 C 0.30819 0.25984 0.88962 0.0
C986 C 0.31672 0.30242 0.91735 0.0
C987 C 0.26564 0.29112 0.916 0.0
C988 C 0.23746 0.26781 0.90068 0.0
C989 C 0.25919 0.25237 0.88763 0.0
C990 C 0.34818 0.32776 0.93342 0.0
C991 C 0.18306 0.25529 0.89871 0.0
C992 C 0.20117 0.26545 0.96007 0.0
C993 C 0.20469 0.31218 0.96383 0.0
C994 C 0.2184 0.25727 0.94408 0.0
C995 C 0.23996 0.29693 0.9316 0.0
C996 C 0.24041 0.34294 0.93479 0.0
C997 C 0.22252 0.34998 0.95088 0.0
C998 C 0.21631 0.2072 0.94101 0.0
C999 C 0.26279 0.38589 0.92173 0.0
H1000 H 0.37506 0.2914 0.90567 0.0
H1001 H 0.23677 0.23163 0.87635 0.0
H1002 H 0.34533 0.36157 0.937 0.0
H1003 H 0.33351 0.30101 0.94462 0.0
H1004 H 0.3888 0.33963 0.93147 0.0
H1005 H 0.16963 0.24554 0.88497 0.0
H1006 H 0.15843 0.22233 0.90713 0.0
H1007 H 0.17838 0.28754 0.903 0.0
H1008 H 0.18692 0.23591 0.96995 0.0
H1009 H 0.2254 0.38625 0.95369 0.0
H1010 H 0.2554 0.21321 0.94073 0.0
H1011 H 0.19863 0.19115 0.92815 0.0
H1012 H 0.19455 0.17892 0.95136 0.0
H1013 H 0.30468 0.40327 0.92163 0.0
H1014 H 0.2534 0.41587 0.92495 0.0
H1015 H 0.24906 0.37172 0.90831 0.0
C1016 C 0.00064 0.23863 0.05235 0.0
C1017 C 0.04092 0.2882 0.05466 0.0
C1018 C 0.9636 0.21485 0.06535 0.0
C1019 C 0.96729 0.24149 0.08095 0.0
C1020 C 0.00614 0.29282 0.08278 0.0
C1021 C 0.04279 0.31553 0.06959 0.0
C1022 C 0.92277 0.16023 0.06288 0.0
C1023 C 0.01107 0.32265 0.09918 0.0
C1024 C 0.86374 0.19802 0.11514 0.0
C1025 C 0.88341 0.18071 0.12838 0.0
C1026 C 0.88897 0.21518 0.09907 0.0
C1027 C 0.93455 0.21455 0.09618 0.0
C1028 C 0.9519 0.19273 0.10884 0.0
C1029 C 0.92614 0.17612 0.1248 0.0
C1030 C 0.869 0.23762 0.08579 0.0
C1031 C -0.00012 0.19043 0.10608 0.0
H1032 H -0.00033 0.2176 0.04076 0.0
H1033 H 0.07452 0.35358 0.07143 0.0
H1034 H 0.93124 0.13557 0.07125 0.0
H1035 H 0.88525 0.15445 0.06695 0.0
H1036 H 0.92027 0.14772 0.04907 0.0
H1037 H 0.04006 0.36341 0.0978 0.0
H1038 H 0.97417 0.31962 0.10252 0.0
H1039 H 0.02201 0.30668 0.11031 0.0
H1040 H 0.83058 0.2015 0.11773 0.0
H1041 H 0.94122 0.1622 0.13487 0.0
H1042 H 0.87048 0.22432 0.07241 0.0
H1043 H 0.89323 0.27955 0.08587 0.0
H1044 H 0.82936 0.22786 0.08869 0.0
H1045 H -0.00057 0.17406 0.09307 0.0
H1046 H 0.00514 0.16747 0.1163 0.0
H1047 H 0.03312 0.22941 0.1064 0.0
C1048 C 0.64678 0.87507 0.28642 0.0
C1049 C 0.68365 0.8939 0.29968 0.0
C1050 C 0.65599 0.89987 0.27021 0.0
C1051 C 0.70335 0.94402 0.26719 0.0
C1052 C 0.7419 0.96104 0.28007 0.0
C1053 C 0.73147 0.93592 0.2962 0.0
C1054 C 0.61402 0.88066 0.25679 0.0
C1055 C 0.79332 0.00743 0.27717 0.0
C1056 C 0.74946 0.00158 0.22236 0.0
C1057 C 0.74336 0.04419 0.22328 0.0
C1058 C 0.73403 0.96679 0.23621 0.0
C1059 C 0.71179 0.97494 0.25121 0.0
C1060 C 0.70249 0.01617 0.25164 0.0
C1061 C 0.7188 0.05064 0.23767 0.0
C1062 C 0.74472 0.92346 0.23527 0.0
C1063 C 0.67828 0.02572 0.26734 0.0
H1064 H 0.60965 0.84266 0.28902 0.0
H1065 H 0.76026 0.95036 0.30634 0.0
H1066 H 0.59951 0.90755 0.25581 0.0
H1067 H 0.62849 0.87855 0.24367 0.0
H1068 H 0.58188 0.84262 0.26024 0.0
H1069 H 0.82046 0.01295 0.28783 0.0
H1070 H 0.80965 0.00445 0.26455 0.0
H1071 H 0.78927 0.04166 0.27647 0.0
H1072 H 0.76868 0.99696 0.21116 0.0
H1073 H 0.71486 0.08409 0.23842 0.0
H1074 H 0.71104 0.88743 0.23942 0.0
H1075 H 0.77611 0.93089 0.24437 0.0
H1076 H 0.75581 0.91849 0.22188 0.0
H1077 H 0.64323 0.99045 0.27117 0.0
H1078 H 0.66863 0.05586 0.26482 0.0
H1079 H 0.70475 0.0375 0.27862 0.0
C1080 C 0.66455 0.72115 0.40552 0.0
C1081 C 0.69467 0.74858 0.3913 0.0
C1082 C 0.68479 0.70557 0.41907 0.0
C1083 C 0.73652 0.71875 0.41843 0.0
C1084 C 0.76617 0.74399 0.40357 0.0
C1085 C 0.7447 0.7584 0.3901 0.0
C1086 C 0.65172 0.67791 0.43459 0.0
C1087 C 0.82146 0.759 0.40244 0.0
C1088 C 0.79556 0.73752 0.46335 0.0
C1089 C 0.79405 0.69122 0.46597 0.0
C1090 C 0.77944 0.74801 0.44751 0.0
C1091 C 0.76061 0.71092 0.4341 0.0
C1092 C 0.76164 0.66529 0.43628 0.0
C1093 C 0.77878 0.65614 0.45217 0.0
C1094 C 0.78009 0.79772 0.44549 0.0
C1095 C 0.7416 0.62478 0.42232 0.0
H1096 H 0.62613 0.7144 0.40654 0.0
H1097 H 0.76787 0.77989 0.37906 0.0
H1098 H 0.65515 0.64424 0.43789 0.0
H1099 H 0.6645 0.7033 0.44617 0.0
H1100 H 0.61114 0.66533 0.43214 0.0
H1101 H 0.83724 0.77238 0.38913 0.0
H1102 H 0.84359 0.79004 0.41189 0.0
H1103 H 0.82686 0.72668 0.40602 0.0
H1104 H 0.80766 0.76488 0.47393 0.0
H1105 H 0.77723 0.6201 0.45414 0.0
H1106 H 0.74059 0.79055 0.44507 0.0
H1107 H 0.79861 0.81633 0.43299 0.0
H1108 H 0.80031 0.82432 0.45643 0.0
H1109 H 0.69978 0.60744 0.42142 0.0
H1110 H 0.75057 0.5943 0.42515 0.0
H1111 H 0.75752 0.64143 0.40933 0.0
C1112 C 0.94779 0.6692 0.5715 0.0
C1113 C 0.94823 0.70114 0.55828 0.0
C1114 C 0.98304 0.6886 0.58523 0.0
C1115 C 0.01873 0.74125 0.58579 0.0
C1116 C 0.02075 0.77314 0.57197 0.0
C1117 C 0.98544 0.75256 0.55831 0.0
C1118 C 0.9801 0.65329 0.59965 0.0
C1119 C 0.05796 0.82944 0.57216 0.0
C1120 C 0.05654 0.79181 0.63183 0.0
C1121 C 0.10319 0.79352 0.63365 0.0
C1122 C 0.02986 0.77722 0.61599 0.0
C1123 C 0.05008 0.76341 0.60171 0.0
C1124 C 0.09838 0.76762 0.60315 0.0
C1125 C 0.12459 0.78298 0.61911 0.0
C1126 C 0.97885 0.77421 0.61482 0.0
C1127 C 0.12101 0.75307 0.58821 0.0
H1128 H 0.91833 0.62962 0.57159 0.0
H1129 H 0.98537 0.77712 0.54804 0.0
H1130 H 0.01829 0.65869 0.60242 0.0
H1131 H 0.96631 0.66219 0.61185 0.0
H1132 H 0.95409 0.61282 0.59631 0.0
H1133 H 0.05872 0.84773 0.55949 0.0
H1134 H 0.04727 0.84762 0.58263 0.0
H1135 H 0.09678 0.8369 0.57513 0.0
H1136 H 0.04004 0.80035 0.64298 0.0
H1137 H 0.16056 0.78402 0.62045 0.0
H1138 H 0.94852 0.734 0.61349 0.0
H1139 H 0.97718 0.7947 0.60306 0.0
H1140 H 0.97062 0.79045 0.62656 0.0
H1141 H 0.09861 0.71144 0.58615 0.0
H1142 H 0.16108 0.76375 0.59075 0.0
H1143 H 0.11929 0.77141 0.57588 0.0
C1144 C 0.28296 0.95985 0.73525 0.0
C1145 C 0.24476 0.95429 0.72378 0.0
C1146 C 0.29808 0.99443 0.74917 0.0
C1147 C 0.27438 0.024 0.75149 0.0
C1148 C 0.23837 0.02101 0.73913 0.0
C1149 C 0.22379 0.98588 0.72542 0.0
C1150 C 0.33667 0.99659 0.76209 0.0
C1151 C 0.21275 0.05231 0.74103 0.0
C1152 C 0.26325 0.05284 0.79887 0.0
C1153 C 0.30518 0.10176 0.80077 0.0
C1154 C 0.25166 0.02799 0.78269 0.0
C1155 C 0.28253 0.05279 0.76799 0.0
C1156 C 0.32283 0.10337 0.76951 0.0
C1157 C 0.33378 0.12731 0.78592 0.0
C1158 C 0.20803 0.97408 0.78155 0.0
C1159 C 0.35596 0.13125 0.75404 0.0
H1160 H 0.29878 0.93501 0.73397 0.0
H1161 H 0.19433 0.98148 0.7164 0.0
H1162 H 0.36636 0.03649 0.76457 0.0
H1163 H 0.31772 0.98016 0.77476 0.0
H1164 H 0.35522 0.97522 0.75744 0.0
H1165 H 0.192 0.05153 0.72896 0.0
H1166 H 0.18522 0.03719 0.752 0.0
H1167 H 0.2409 0.09229 0.74418 0.0
H1168 H 0.24064 0.0329 0.81022 0.0
H1169 H 0.36607 0.16526 0.78722 0.0
H1170 H 0.22279 0.94813 0.77858 0.0
H1171 H 0.18201 0.97042 0.77077 0.0
H1172 H 0.1859 0.96137 0.79391 0.0
H1173 H 0.37989 0.11447 0.75062 0.0
H1174 H 0.38124 0.17226 0.7568 0.0
H1175 H 0.33238 0.12723 0.74241 0.0
C1176 C 0.65028 0.7732 0.86585 0.0
C1177 C 0.68615 0.78953 0.85227 0.0
C1178 C 0.65984 0.75763 0.882 0.0
C1179 C 0.70653 0.75906 0.88466 0.0
C1180 C 0.74419 0.77884 0.87145 0.0
C1181 C 0.73345 0.79361 0.85538 0.0
C1182 C 0.61881 0.73679 0.89579 0.0
C1183 C 0.79491 0.7819 0.87393 0.0
C1184 C 0.75389 0.74687 0.92922 0.0
C1185 C 0.74554 0.6973 0.92843 0.0
C1186 C 0.73898 0.76691 0.91542 0.0
C1187 C 0.71497 0.73636 0.90061 0.0
C1188 C 0.70361 0.68515 0.9003 0.0
C1189 C 0.71947 0.66632 0.9142 0.0
C1190 C 0.75195 0.82167 0.91621 0.0
C1191 C 0.67754 0.6512 0.8848 0.0
H1192 H 0.61357 0.76984 0.86355 0.0
H1193 H 0.7615 0.80663 0.84501 0.0
H1194 H 0.60309 0.69524 0.897 0.0
H1195 H 0.63459 0.75381 0.90875 0.0
H1196 H 0.58728 0.74386 0.89256 0.0
H1197 H 0.82161 0.8024 0.86304 0.0
H1198 H 0.81259 0.8014 0.88641 0.0
H1199 H 0.78941 0.74305 0.8747 0.0
H1200 H 0.77439 0.77074 0.94026 0.0
H1201 H 0.71391 0.62828 0.91351 0.0
H1202 H 0.71886 0.82544 0.91234 0.0
H1203 H 0.783 0.84433 0.90683 0.0
H1204 H 0.76448 0.83812 0.92949 0.0
H1205 H 0.643 0.65277 0.88123 0.0
H1206 H 0.6666 0.6111 0.88742 0.0
H1207 H 0.70332 0.66468 0.87332 0.0
C1208 C 0.93208 0.73219 0.02481 0.0
C1209 C 0.88898 0.68522 0.02124 0.0
C1210 C 0.95721 0.74135 0.04091 0.0
C1211 C 0.93902 0.70242 0.05368 0.0
C1212 C 0.89374 0.6561 0.0506 0.0
C1213 C 0.86903 0.64811 0.03442 0.0
C1214 C 0.00489 0.79173 0.04386 0.0
C1215 C 0.87317 0.61381 0.06393 0.0
C1216 C 0.04532 0.71372 0.08244 0.0
C1217 C 0.04111 0.73963 0.09685 0.0
C1218 C 0.0099 0.698 0.06877 0.0
C1219 C 0.96999 0.70925 0.06954 0.0
C1220 C 0.96385 0.7325 0.08465 0.0
C1221 C -0.00041 0.74738 0.09818 0.0
C1222 C 0.01735 0.67269 0.05295 0.0
C1223 C 0.92192 0.74517 0.08597 0.0
H1224 H 0.94742 0.7612 0.01476 0.0
H1225 H 0.83576 0.61165 0.03176 0.0
H1226 H 0.0029 0.80829 0.05656 0.0
H1227 H 0.03814 0.786 0.04441 0.0
H1228 H 0.0114 0.81945 0.0333 0.0
H1229 H 0.83432 0.58304 0.06056 0.0
H1230 H 0.89845 0.59734 0.06462 0.0
H1231 H 0.87238 0.6285 0.07714 0.0
H1232 H 0.07798 0.70856 0.08135 0.0
H1233 H 0.99679 0.76777 0.10937 0.0
H1234 H 0.02984 0.69926 0.04168 0.0
H1235 H 0.98109 0.63862 0.04922 0.0
H1236 H 0.04626 0.66122 0.05528 0.0
H1237 H 0.93048 0.77744 0.07715 0.0
H1238 H 0.91774 0.75595 0.09951 0.0
H1239 H 0.88519 0.71259 0.08173 0.0
C1240 C 0.2225 0.8785 0.19983 0.0
C1241 C 0.20561 0.89747 0.18623 0.0
C1242 C 0.23978 0.90483 0.21569 0.0
C1243 C 0.23945 0.95074 0.21807 0.0
C1244 C 0.21936 0.9683 0.20485 0.0
C1245 C 0.20295 0.9416 0.18904 0.0
C1246 C 0.26105 0.88506 0.22948 0.0
C1247 C 0.2174 0.01663 0.20706 0.0
C1248 C 0.25395 0.01231 0.26232 0.0
C1249 C 0.3036 0.05324 0.26122 0.0
C1250 C 0.23314 0.97682 0.24873 0.0
C1251 C 0.26304 0.98246 0.23381 0.0
C1252 C 0.31441 0.02185 0.23322 0.0
C1253 C 0.33401 0.05715 0.24693 0.0
C1254 C 0.17822 0.93557 0.24981 0.0
C1255 C 0.34768 0.02864 0.21762 0.0
H1256 H 0.22485 0.84449 0.19775 0.0
H1257 H 0.18958 0.95624 0.17864 0.0
H1258 H 0.30267 0.91078 0.23048 0.0
H1259 H 0.24458 0.88446 0.24249 0.0
H1260 H 0.25369 0.84626 0.22642 0.0
H1261 H 0.19679 0.02274 0.19619 0.0
H1262 H 0.19858 0.01587 0.21959 0.0
H1263 H 0.25655 0.04953 0.20758 0.0
H1264 H 0.23054 0.00973 0.27342 0.0
H1265 H 0.37213 0.08938 0.246 0.0
H1266 H 0.17383 0.89835 0.2461 0.0
H1267 H 0.15551 0.94395 0.24043 0.0
H1268 H 0.16228 0.93244 0.26313 0.0
H1269 H 0.34534 0.99213 0.21414 0.0
H1270 H 0.38803 0.05738 0.22006 0.0
H1271 H 0.33419 0.04097 0.20614 0.0
C1272 C 0.28587 0.33138 0.41649 0.0
C1273 C 0.25423 0.29919 0.42963 0.0
C1274 C 0.3015 0.31213 0.40265 0.0
C1275 C 0.28487 0.25953 0.40206 0.0
C1276 C 0.25606 0.22772 0.41606 0.0
C1277 C 0.24088 0.248 0.42969 0.0
C1278 C 0.33248 0.34734 0.388 0.0
C1279 C 0.23806 0.17164 0.41602 0.0
C1280 C 0.26549 0.20794 0.35597 0.0
C1281 C 0.31082 0.20769 0.35296 0.0
C1282 C 0.25561 0.22247 0.37222 0.0
C1283 C 0.29196 0.23715 0.38579 0.0
C1284 C 0.33625 0.23386 0.38324 0.0
C1285 C 0.34514 0.21903 0.36683 0.0
C1286 C 0.20748 0.22478 0.37453 0.0
C1287 C 0.37559 0.24877 0.39747 0.0
H1288 H 0.2957 0.3709 0.41645 0.0
H1289 H 0.2163 0.22331 0.43995 0.0
H1290 H 0.3651 0.3421 0.38475 0.0
H1291 H 0.30865 0.33821 0.37607 0.0
H1292 H 0.34705 0.38782 0.39136 0.0
H1293 H 0.22344 0.15409 0.42903 0.0
H1294 H 0.2071 0.15238 0.4063 0.0
H1295 H 0.26918 0.16467 0.41213 0.0
H1296 H 0.23853 0.19875 0.34539 0.0
H1297 H 0.38024 0.21884 0.36465 0.0
H1298 H 0.21708 0.26483 0.37624 0.0
H1299 H 0.18703 0.20381 0.38648 0.0
H1300 H 0.18151 0.20863 0.36315 0.0
H1301 H 0.39547 0.29051 0.39931 0.0
H1302 H 0.40428 0.23759 0.39427 0.0
H1303 H 0.35739 0.23114 0.41011 0.0
C1304 C 0.98952 0.23168 0.59415 0.0
C1305 C 0.95421 0.24827 0.59531 0.0
C1306 C 0.02455 0.24759 0.58037 0.0
C1307 C 0.02369 0.28048 0.56745 0.0
C1308 C 0.99004 0.29973 0.5692 0.0
C1309 C 0.95556 0.28329 0.58317 0.0
C1310 C 0.0601 0.22663 0.57903 0.0
C1311 C 0.98801 0.3349 0.55569 0.0
C1312 C 0.12639 0.34403 0.53297 0.0
C1313 C 0.10289 0.31295 0.51839 0.0
C1314 C 0.102 0.33293 0.54931 0.0
C1315 C 0.05313 0.2898 0.55103 0.0
C1316 C 0.0305 0.25683 0.53662 0.0
C1317 C 0.05566 0.26878 0.52049 0.0
C1318 C 0.12744 0.36862 0.56446 0.0
C1319 C 0.97854 0.21015 0.538 0.0
H1320 H 0.98823 0.20456 0.60365 0.0
H1321 H 0.9278 0.29563 0.58406 0.0
H1322 H 0.04742 0.19838 0.56828 0.0
H1323 H 0.09911 0.25721 0.57583 0.0
H1324 H 0.06125 0.20779 0.59134 0.0
H1325 H 0.9636 0.35052 0.55992 0.0
H1326 H 0.02666 0.36691 0.55297 0.0
H1327 H 0.97274 0.31398 0.54324 0.0
H1328 H 0.16291 0.37821 0.53149 0.0
H1329 H 0.03741 0.24428 0.50935 0.0
H1330 H 0.12602 0.34713 0.57638 0.0
H1331 H 0.10686 0.38924 0.56744 0.0
H1332 H 0.16766 0.39692 0.56158 0.0
H1333 H 0.9773 0.18619 0.54914 0.0
H1334 H 0.96768 0.18685 0.52588 0.0
H1335 H 0.94976 0.2216 0.54054 0.0
C1336 C 0.77212 0.12022 0.69915 0.0
C1337 C 0.78773 0.10097 0.68528 0.0
C1338 C 0.75523 0.09361 0.715 0.0
C1339 C 0.75488 0.04724 0.71707 0.0
C1340 C 0.77355 0.02928 0.70351 0.0
C1341 C 0.78932 0.05615 0.68771 0.0
C1342 C 0.73516 0.11364 0.72911 0.0
C1343 C 0.77486 0.98053 0.70539 0.0
C1344 C 0.74309 0.98578 0.76121 0.0
C1345 C 0.69327 0.94503 0.76046 0.0
C1346 C 0.76316 0.02108 0.74753 0.0
C1347 C 0.73227 0.0156 0.73292 0.0
C1348 C 0.68079 0.97641 0.7327 0.0
C1349 C 0.66201 0.94115 0.74645 0.0
C1350 C 0.81828 0.062 0.74818 0.0
C1351 C 0.64644 0.96986 0.71747 0.0
H1352 H 0.77046 0.15469 0.69732 0.0
H1353 H 0.80167 0.04132 0.67706 0.0
H1354 H 0.69359 0.08812 0.73044 0.0
H1355 H 0.75249 0.11416 0.74194 0.0
H1356 H 0.74256 0.15251 0.72616 0.0
H1357 H 0.79446 0.97414 0.69425 0.0
H1358 H 0.79441 0.98093 0.7177 0.0
H1359 H 0.73556 0.94797 0.70614 0.0
H1360 H 0.76715 0.98841 0.7721 0.0
H1361 H 0.62375 0.90906 0.74577 0.0
H1362 H 0.82267 0.0994 0.74474 0.0
H1363 H 0.83998 0.05354 0.73839 0.0
H1364 H 0.8353 0.0648 0.76129 0.0
H1365 H 0.64899 0.00654 0.71412 0.0
H1366 H 0.60618 0.9415 0.72026 0.0
H1367 H 0.65872 0.95711 0.70579 0.0
loop_
_geom_bond_atom_site_label_1
_geom_bond_atom_site_label_2
_geom_bond_distance
_geom_bond_site_symmetry_2
_ccdc_geom_bond_type
Co0 O3 1.970 . S
Co0 N17 1.989 . S
Co0 O25 1.967 . S
Co0 O32 1.920 . S
Co1 O4 1.966 1_554 S
Co1 N10 2.022 . S
Co1 N18 1.993 . S
Co1 O26 1.941 . S
C2 O3 1.258 1_556 S
C2 O4 1.263 . S
O3 Co0 1.970 . S
O3 C2 1.258 1_554 S
O4 Co1 1.966 1_556 S
O4 C2 1.263 . S
C5 O6 1.235 . S
C5 O32 1.289 . S
O6 C5 1.235 . S
C7 C9 1.400 . S
C7 N10 1.351 1_556 S
C7 C12 1.501 . S
C8 C9 1.387 1_554 S
C8 N11 1.341 . S
C9 C7 1.400 . S
C9 C8 1.387 1_556 S
N10 Co1 2.022 . S
N10 C7 1.351 1_554 S
N10 N11 1.365 . S
N11 C8 1.341 . S
N11 N10 1.365 . S
N11 H31 0.862 . S
C12 C7 1.501 . S
C12 H13 0.961 . S
C12 H14 0.961 . S
C12 H15 0.960 . S
H13 C12 0.961 . S
H14 C12 0.961 . S
H15 C12 0.960 . S
C16 N17 1.342 . S
C16 C20 1.401 . S
C16 C21 1.499 . S
N17 Co0 1.989 . S
N17 C16 1.342 . S
N17 N18 1.388 . S
N18 Co1 1.993 . S
N18 N17 1.388 . S
N18 C19 1.346 . S
C19 N18 1.346 . S
C19 C20 1.396 . S
C19 C29 1.510 . S
C20 C16 1.401 . S
C20 C19 1.396 . S
C21 C16 1.499 . S
C21 H22 0.959 . S
C21 H23 0.960 . S
C21 H24 0.961 . S
H22 C21 0.959 . S
H23 C21 0.960 . S
H24 C21 0.961 . S
O25 Co0 1.967 . S
O25 C33 1.258 . S
O26 Co1 1.941 . S
O26 C33 1.266 . S
H27 C29 0.959 . S
H28 C29 0.961 . S
C29 C19 1.510 . S
C29 H27 0.959 . S
C29 H28 0.961 . S
C29 H30 0.960 . S
H30 C29 0.960 . S
H31 N11 0.862 . S
O32 Co0 1.920 . S
O32 C5 1.289 . S
C33 O25 1.258 . S
C33 O26 1.266 . S
Co34 O37 1.970 . S
Co34 N51 1.989 . S
Co34 O59 1.967 . S
Co34 O66 1.920 . S
Co35 O38 1.966 . S
Co35 N44 2.022 . S
Co35 N52 1.993 . S
Co35 O60 1.941 . S
C36 O37 1.258 . S
C36 O38 1.263 . S
O37 Co34 1.970 . S
O37 C36 1.258 . S
O38 Co35 1.966 . S
O38 C36 1.263 . S
C39 O40 1.235 . S
C39 O66 1.289 . S
O40 C39 1.235 . S
C41 C43 1.400 . S
C41 N44 1.351 . S
C41 C46 1.501 . S
C42 C43 1.387 . S
C42 N45 1.341 . S
C43 C41 1.400 . S
C43 C42 1.387 . S
N44 Co35 2.022 . S
N44 C41 1.351 . S
N44 N45 1.365 . S
N45 C42 1.341 . S
N45 N44 1.365 . S
N45 H65 0.862 . S
C46 C41 1.501 . S
C46 H47 0.961 . S
C46 H48 0.961 . S
C46 H49 0.960 . S
H47 C46 0.961 . S
H48 C46 0.961 . S
H49 C46 0.960 . S
C50 N51 1.342 . S
C50 C54 1.401 . S
C50 C55 1.499 . S
N51 Co34 1.989 . S
N51 C50 1.342 . S
N51 N52 1.388 . S
N52 Co35 1.993 . S
N52 N51 1.388 . S
N52 C53 1.346 . S
C53 N52 1.346 . S
C53 C54 1.396 . S
C53 C63 1.510 . S
C54 C50 1.401 . S
C54 C53 1.396 . S
C55 C50 1.499 . S
C55 H56 0.959 . S
C55 H57 0.960 . S
C55 H58 0.961 . S
H56 C55 0.959 . S
H57 C55 0.960 . S
H58 C55 0.961 . S
O59 Co34 1.967 . S
O59 C67 1.258 . S
O60 Co35 1.941 . S
O60 C67 1.266 . S
H61 C63 0.959 . S
H62 C63 0.961 . S
C63 C53 1.510 . S
C63 H61 0.959 . S
C63 H62 0.961 . S
C63 H64 0.960 . S
H64 C63 0.960 . S
H65 N45 0.862 . S
O66 Co34 1.920 . S
O66 C39 1.289 . S
C67 O59 1.258 . S
C67 O60 1.266 . S
Co68 O71 1.970 . S
Co68 N85 1.989 . S
Co68 O93 1.967 . S
Co68 O100 1.920 . S
Co69 O72 1.966 . S
Co69 N78 2.022 . S
Co69 N86 1.993 . S
Co69 O94 1.941 . S
C70 O71 1.258 . S
C70 O72 1.263 . S
O71 Co68 1.970 . S
O71 C70 1.258 . S
O72 Co69 1.966 . S
O72 C70 1.263 . S
C73 O74 1.235 . S
C73 O100 1.289 . S
O74 C73 1.235 . S
C75 C77 1.400 . S
C75 N78 1.351 . S
C75 C80 1.501 . S
C76 C77 1.387 . S
C76 N79 1.341 . S
C77 C75 1.400 . S
C77 C76 1.387 . S
N78 Co69 2.022 . S
N78 C75 1.351 . S
N78 N79 1.365 . S
N79 C76 1.341 . S
N79 N78 1.365 . S
N79 H99 0.862 . S
C80 C75 1.501 . S
C80 H81 0.961 . S
C80 H82 0.961 . S
C80 H83 0.960 . S
H81 C80 0.961 . S
H82 C80 0.961 . S
H83 C80 0.960 . S
C84 N85 1.342 . S
C84 C88 1.401 . S
C84 C89 1.499 . S
N85 Co68 1.989 . S
N85 C84 1.342 . S
N85 N86 1.388 . S
N86 Co69 1.993 . S
N86 N85 1.388 . S
N86 C87 1.346 . S
C87 N86 1.346 . S
C87 C88 1.396 . S
C87 C97 1.510 . S
C88 C84 1.401 . S
C88 C87 1.396 . S
C89 C84 1.499 . S
C89 H90 0.959 . S
C89 H91 0.960 . S
C89 H92 0.961 . S
H90 C89 0.959 . S
H91 C89 0.960 . S
H92 C89 0.961 . S
O93 Co68 1.967 . S
O93 C101 1.258 . S
O94 Co69 1.941 . S
O94 C101 1.266 . S
H95 C97 0.959 . S
H96 C97 0.961 . S
C97 C87 1.510 . S
C97 H95 0.959 . S
C97 H96 0.961 . S
C97 H98 0.960 . S
H98 C97 0.960 . S
H99 N79 0.862 . S
O100 Co68 1.920 . S
O100 C73 1.289 . S
C101 O93 1.258 . S
C101 O94 1.266 . S
Co102 O105 1.970 . S
Co102 N119 1.989 . S
Co102 O127 1.967 . S
Co102 O134 1.920 . S
Co103 O106 1.966 . S
Co103 N112 2.022 . S
Co103 N120 1.993 . S
Co103 O128 1.941 . S
C104 O105 1.258 . S
C104 O106 1.263 . S
O105 Co102 1.970 . S
O105 C104 1.258 . S
O106 Co103 1.966 . S
O106 C104 1.263 . S
C107 O108 1.235 . S
C107 O134 1.289 . S
O108 C107 1.235 . S
C109 C111 1.400 . S
C109 N112 1.351 . S
C109 C114 1.501 . S
C110 C111 1.387 . S
C110 N113 1.341 . S
C111 C109 1.400 . S
C111 C110 1.387 . S
N112 Co103 2.022 . S
N112 C109 1.351 . S
N112 N113 1.365 . S
N113 C110 1.341 . S
N113 N112 1.365 . S
N113 H133 0.862 . S
C114 C109 1.501 . S
C114 H115 0.961 . S
C114 H116 0.961 . S
C114 H117 0.960 . S
H115 C114 0.961 . S
H116 C114 0.961 . S
H117 C114 0.960 . S
C118 N119 1.342 . S
C118 C122 1.401 . S
C118 C123 1.499 . S
N119 Co102 1.989 . S
N119 C118 1.342 . S
N119 N120 1.388 . S
N120 Co103 1.993 . S
N120 N119 1.388 . S
N120 C121 1.346 . S
C121 N120 1.346 . S
C121 C122 1.396 . S
C121 C131 1.510 . S
C122 C118 1.401 . S
C122 C121 1.396 . S
C123 C118 1.499 . S
C123 H124 0.959 . S
C123 H125 0.960 . S
C123 H126 0.961 . S
H124 C123 0.959 . S
H125 C123 0.960 . S
H126 C123 0.961 . S
O127 Co102 1.967 . S
O127 C135 1.258 . S
O128 Co103 1.941 . S
O128 C135 1.266 . S
H129 C131 0.959 . S
H130 C131 0.961 . S
C131 C121 1.510 . S
C131 H129 0.959 . S
C131 H130 0.961 . S
C131 H132 0.960 . S
H132 C131 0.960 . S
H133 N113 0.862 . S
O134 Co102 1.920 . S
O134 C107 1.289 . S
C135 O127 1.258 . S
C135 O128 1.266 . S
Co136 O139 1.970 . S
Co136 N153 1.989 . S
Co136 O161 1.967 . S
Co136 O168 1.920 . S
Co137 O140 1.966 . S
Co137 N146 2.022 . S
Co137 N154 1.993 . S
Co137 O162 1.941 . S
C138 O139 1.258 . S
C138 O140 1.263 . S
O139 Co136 1.970 . S
O139 C138 1.258 . S
O140 Co137 1.966 . S
O140 C138 1.263 . S
C141 O142 1.235 . S
C141 O168 1.289 . S
O142 C141 1.235 . S
C143 C145 1.400 . S
C143 N146 1.351 . S
C143 C148 1.501 . S
C144 C145 1.387 . S
C144 N147 1.341 . S
C145 C143 1.400 . S
C145 C144 1.387 . S
N146 Co137 2.022 . S
N146 C143 1.351 . S
N146 N147 1.365 . S
N147 C144 1.341 . S
N147 N146 1.365 . S
N147 H167 0.862 . S
C148 C143 1.501 . S
C148 H149 0.961 . S
C148 H150 0.961 . S
C148 H151 0.960 . S
H149 C148 0.961 . S
H150 C148 0.961 . S
H151 C148 0.960 . S
C152 N153 1.342 . S
C152 C156 1.401 . S
C152 C157 1.499 . S
N153 Co136 1.989 . S
N153 C152 1.342 . S
N153 N154 1.388 . S
N154 Co137 1.993 . S
N154 N153 1.388 . S
N154 C155 1.346 . S
C155 N154 1.346 . S
C155 C156 1.396 . S
C155 C165 1.510 . S
C156 C152 1.401 . S
C156 C155 1.396 . S
C157 C152 1.499 . S
C157 H158 0.959 . S
C157 H159 0.960 . S
C157 H160 0.961 . S
H158 C157 0.959 . S
H159 C157 0.960 . S
H160 C157 0.961 . S
O161 Co136 1.967 . S
O161 C169 1.258 . S
O162 Co137 1.941 . S
O162 C169 1.266 . S
H163 C165 0.959 . S
H164 C165 0.961 . S
C165 C155 1.510 . S
C165 H163 0.959 . S
C165 H164 0.961 . S
C165 H166 0.960 . S
H166 C165 0.960 . S
H167 N147 0.862 . S
O168 Co136 1.920 . S
O168 C141 1.289 . S
C169 O161 1.258 . S
C169 O162 1.266 . S
Co170 O173 1.970 . S
Co170 N187 1.989 . S
Co170 O195 1.967 . S
Co170 O202 1.920 . S
Co171 O174 1.966 . S
Co171 N180 2.022 . S
Co171 N188 1.993 . S
Co171 O196 1.941 . S
C172 O173 1.258 . S
C172 O174 1.263 . S
O173 Co170 1.970 . S
O173 C172 1.258 . S
O174 Co171 1.966 . S
O174 C172 1.263 . S
C175 O176 1.235 . S
C175 O202 1.289 . S
O176 C175 1.235 . S
C177 C179 1.400 . S
C177 N180 1.351 . S
C177 C182 1.501 . S
C178 C179 1.387 . S
C178 N181 1.341 . S
C179 C177 1.400 . S
C179 C178 1.387 . S
N180 Co171 2.022 . S
N180 C177 1.351 . S
N180 N181 1.365 . S
N181 C178 1.341 . S
N181 N180 1.365 . S
N181 H201 0.862 . S
C182 C177 1.501 . S
C182 H183 0.961 . S
C182 H184 0.961 . S
C182 H185 0.960 . S
H183 C182 0.961 . S
H184 C182 0.961 . S
H185 C182 0.960 . S
C186 N187 1.342 . S
C186 C190 1.401 . S
C186 C191 1.499 . S
N187 Co170 1.989 . S
N187 C186 1.342 . S
N187 N188 1.388 . S
N188 Co171 1.993 . S
N188 N187 1.388 . S
N188 C189 1.346 . S
C189 N188 1.346 . S
C189 C190 1.396 . S
C189 C199 1.510 . S
C190 C186 1.401 . S
C190 C189 1.396 . S
C191 C186 1.499 . S
C191 H192 0.959 . S
C191 H193 0.960 . S
C191 H194 0.961 . S
H192 C191 0.959 . S
H193 C191 0.960 . S
H194 C191 0.961 . S
O195 Co170 1.967 . S
O195 C203 1.258 . S
O196 Co171 1.941 . S
O196 C203 1.266 . S
H197 C199 0.959 . S
H198 C199 0.961 . S
C199 C189 1.510 . S
C199 H197 0.959 . S
C199 H198 0.961 . S
C199 H200 0.960 . S
H200 C199 0.960 . S
H201 N181 0.862 . S
O202 Co170 1.920 . S
O202 C175 1.289 . S
C203 O195 1.258 . S
C203 O196 1.266 . S
Co204 O207 1.970 . S
Co204 N221 1.989 . S
Co204 O229 1.967 . S
Co204 O236 1.920 . S
Co205 O208 1.966 . S
Co205 N214 2.022 . S
Co205 N222 1.993 . S
Co205 O230 1.941 . S
C206 O207 1.258 . S
C206 O208 1.263 . S
O207 Co204 1.970 . S
O207 C206 1.258 . S
O208 Co205 1.966 . S
O208 C206 1.263 . S
C209 O210 1.235 . S
C209 O236 1.289 . S
O210 C209 1.235 . S
C211 C213 1.400 . S
C211 N214 1.351 . S
C211 C216 1.501 . S
C212 C213 1.387 . S
C212 N215 1.341 . S
C213 C211 1.400 . S
C213 C212 1.387 . S
N214 Co205 2.022 . S
N214 C211 1.351 . S
N214 N215 1.365 . S
N215 C212 1.341 . S
N215 N214 1.365 . S
N215 H235 0.862 . S
C216 C211 1.501 . S
C216 H217 0.961 . S
C216 H218 0.961 . S
C216 H219 0.960 . S
H217 C216 0.961 . S
H218 C216 0.961 . S
H219 C216 0.960 . S
C220 N221 1.342 . S
C220 C224 1.401 . S
C220 C225 1.499 . S
N221 Co204 1.989 . S
N221 C220 1.342 . S
N221 N222 1.388 . S
N222 Co205 1.993 . S
N222 N221 1.388 . S
N222 C223 1.346 . S
C223 N222 1.346 . S
C223 C224 1.396 . S
C223 C233 1.510 . S
C224 C220 1.401 . S
C224 C223 1.396 . S
C225 C220 1.499 . S
C225 H226 0.959 . S
C225 H227 0.960 . S
C225 H228 0.961 . S
H226 C225 0.959 . S
H227 C225 0.960 . S
H228 C225 0.961 . S
O229 Co204 1.967 . S
O229 C237 1.258 . S
O230 Co205 1.941 . S
O230 C237 1.266 . S
H231 C233 0.959 . S
H232 C233 0.961 . S
C233 C223 1.510 . S
C233 H231 0.959 . S
C233 H232 0.961 . S
C233 H234 0.960 . S
H234 C233 0.960 . S
H235 N215 0.862 . S
O236 Co204 1.920 . S
O236 C209 1.289 . S
C237 O229 1.258 . S
C237 O230 1.266 . S
Co238 O241 1.970 . S
Co238 N255 1.989 . S
Co238 O263 1.967 . S
Co238 O270 1.920 . S
Co239 O242 1.966 . S
Co239 N248 2.022 . S
Co239 N256 1.993 . S
Co239 O264 1.941 . S
C240 O241 1.258 . S
C240 O242 1.263 . S
O241 Co238 1.970 . S
O241 C240 1.258 . S
O242 Co239 1.966 . S
O242 C240 1.263 . S
C243 O244 1.235 . S
C243 O270 1.289 . S
O244 C243 1.235 . S
C245 C247 1.400 . S
C245 N248 1.351 . S
C245 C250 1.501 1_556 S
C246 C247 1.387 . S
C246 N249 1.341 . S
C247 C245 1.400 . S
C247 C246 1.387 . S
N248 Co239 2.022 . S
N248 C245 1.351 . S
N248 N249 1.365 . S
N249 C246 1.341 . S
N249 N248 1.365 . S
N249 H269 0.862 . S
C250 C245 1.501 1_554 S
C250 H251 0.961 . S
C250 H252 0.961 . S
C250 H253 0.960 . S
H251 C250 0.961 . S
H252 C250 0.961 . S
H253 C250 0.960 . S
C254 N255 1.342 . S
C254 C258 1.401 . S
C254 C259 1.499 . S
N255 Co238 1.989 . S
N255 C254 1.342 . S
N255 N256 1.388 . S
N256 Co239 1.993 . S
N256 N255 1.388 . S
N256 C257 1.346 . S
C257 N256 1.346 . S
C257 C258 1.396 . S
C257 C267 1.510 . S
C258 C254 1.401 . S
C258 C257 1.396 . S
C259 C254 1.499 . S
C259 H260 0.959 . S
C259 H261 0.960 . S
C259 H262 0.961 . S
H260 C259 0.959 . S
H261 C259 0.960 . S
H262 C259 0.961 . S
O263 Co238 1.967 . S
O263 C271 1.258 . S
O264 Co239 1.941 . S
O264 C271 1.266 . S
H265 C267 0.959 . S
H266 C267 0.961 . S
C267 C257 1.510 . S
C267 H265 0.959 . S
C267 H266 0.961 . S
C267 H268 0.960 . S
H268 C267 0.960 . S
H269 N249 0.862 . S
O270 Co238 1.920 . S
O270 C243 1.289 . S
C271 O263 1.258 . S
C271 O264 1.266 . S
Co272 O275 1.970 . S
Co272 N289 1.989 . S
Co272 O297 1.967 . S
Co272 O304 1.920 . S
Co273 O276 1.966 . S
Co273 N282 2.022 . S
Co273 N290 1.993 . S
Co273 O298 1.941 . S
C274 O275 1.258 . S
C274 O276 1.263 . S
O275 Co272 1.970 . S
O275 C274 1.258 . S
O276 Co273 1.966 . S
O276 C274 1.263 . S
C277 O278 1.235 . S
C277 O304 1.289 . S
O278 C277 1.235 . S
C279 C281 1.400 . S
C279 N282 1.351 . S
C279 C284 1.501 . S
C280 C281 1.387 . S
C280 N283 1.341 . S
C281 C279 1.400 . S
C281 C280 1.387 . S
N282 Co273 2.022 . S
N282 C279 1.351 . S
N282 N283 1.365 . S
N283 C280 1.341 . S
N283 N282 1.365 . S
N283 H303 0.862 . S
C284 C279 1.501 . S
C284 H285 0.961 . S
C284 H286 0.961 . S
C284 H287 0.960 . S
H285 C284 0.961 . S
H286 C284 0.961 . S
H287 C284 0.960 . S
C288 N289 1.342 . S
C288 C292 1.401 . S
C288 C293 1.499 . S
N289 Co272 1.989 . S
N289 C288 1.342 . S
N289 N290 1.388 . S
N290 Co273 1.993 . S
N290 N289 1.388 . S
N290 C291 1.346 . S
C291 N290 1.346 . S
C291 C292 1.396 . S
C291 C301 1.510 . S
C292 C288 1.401 . S
C292 C291 1.396 . S
C293 C288 1.499 . S
C293 H294 0.959 . S
C293 H295 0.960 . S
C293 H296 0.961 . S
H294 C293 0.959 . S
H295 C293 0.960 . S
H296 C293 0.961 . S
O297 Co272 1.967 . S
O297 C305 1.258 . S
O298 Co273 1.941 . S
O298 C305 1.266 . S
H299 C301 0.959 . S
H300 C301 0.961 . S
C301 C291 1.510 . S
C301 H299 0.959 . S
C301 H300 0.961 . S
C301 H302 0.960 . S
H302 C301 0.960 . S
H303 N283 0.862 . S
O304 Co272 1.920 . S
O304 C277 1.289 . S
C305 O297 1.258 . S
C305 O298 1.266 . S
Co306 O309 1.970 . S
Co306 N323 1.989 . S
Co306 O331 1.967 . S
Co306 O338 1.920 . S
Co307 O310 1.966 . S
Co307 N316 2.022 . S
Co307 N324 1.993 . S
Co307 O332 1.941 . S
C308 O309 1.258 . S
C308 O310 1.263 . S
O309 Co306 1.970 . S
O309 C308 1.258 . S
O310 Co307 1.966 . S
O310 C308 1.263 . S
C311 O312 1.235 . S
C311 O338 1.289 . S
O312 C311 1.235 . S
C313 C315 1.400 . S
C313 N316 1.351 . S
C313 C318 1.501 . S
C314 C315 1.387 . S
C314 N317 1.341 . S
C315 C313 1.400 . S
C315 C314 1.387 . S
N316 Co307 2.022 . S
N316 C313 1.351 . S
N316 N317 1.365 . S
N317 C314 1.341 . S
N317 N316 1.365 . S
N317 H337 0.862 . S
C318 C313 1.501 . S
C318 H319 0.961 . S
C318 H320 0.961 . S
C318 H321 0.960 . S
H319 C318 0.961 . S
H320 C318 0.961 . S
H321 C318 0.960 . S
C322 N323 1.342 . S
C322 C326 1.401 . S
C322 C327 1.499 . S
N323 Co306 1.989 . S
N323 C322 1.342 . S
N323 N324 1.388 . S
N324 Co307 1.993 . S
N324 N323 1.388 . S
N324 C325 1.346 . S
C325 N324 1.346 . S
C325 C326 1.396 . S
C325 C335 1.510 . S
C326 C322 1.401 . S
C326 C325 1.396 . S
C327 C322 1.499 . S
C327 H328 0.959 . S
C327 H329 0.960 . S
C327 H330 0.961 . S
H328 C327 0.959 . S
H329 C327 0.960 . S
H330 C327 0.961 . S
O331 Co306 1.967 . S
O331 C339 1.258 . S
O332 Co307 1.941 . S
O332 C339 1.266 . S
H333 C335 0.959 . S
H334 C335 0.961 . S
C335 C325 1.510 . S
C335 H333 0.959 . S
C335 H334 0.961 . S
C335 H336 0.960 . S
H336 C335 0.960 . S
H337 N317 0.862 . S
O338 Co306 1.920 . S
O338 C311 1.289 . S
C339 O331 1.258 . S
C339 O332 1.266 . S
Co340 O343 1.970 . S
Co340 N357 1.989 . S
Co340 O365 1.967 . S
Co340 O372 1.920 . S
Co341 O344 1.966 . S
Co341 N350 2.022 . S
Co341 N358 1.993 . S
Co341 O366 1.941 . S
C342 O343 1.258 . S
C342 O344 1.263 . S
O343 Co340 1.970 . S
O343 C342 1.258 . S
O344 Co341 1.966 . S
O344 C342 1.263 . S
C345 O346 1.235 . S
C345 O372 1.289 . S
O346 C345 1.235 . S
C347 C349 1.400 . S
C347 N350 1.351 . S
C347 C352 1.501 . S
C348 C349 1.387 . S
C348 N351 1.341 . S
C349 C347 1.400 . S
C349 C348 1.387 . S
N350 Co341 2.022 . S
N350 C347 1.351 . S
N350 N351 1.365 . S
N351 C348 1.341 . S
N351 N350 1.365 . S
N351 H371 0.862 . S
C352 C347 1.501 . S
C352 H353 0.961 . S
C352 H354 0.961 . S
C352 H355 0.960 . S
H353 C352 0.961 . S
H354 C352 0.961 . S
H355 C352 0.960 . S
C356 N357 1.342 . S
C356 C360 1.401 . S
C356 C361 1.499 . S
N357 Co340 1.989 . S
N357 C356 1.342 . S
N357 N358 1.388 . S
N358 Co341 1.993 . S
N358 N357 1.388 . S
N358 C359 1.346 . S
C359 N358 1.346 . S
C359 C360 1.396 . S
C359 C369 1.510 . S
C360 C356 1.401 . S
C360 C359 1.396 . S
C361 C356 1.499 . S
C361 H362 0.959 . S
C361 H363 0.960 . S
C361 H364 0.961 . S
H362 C361 0.959 . S
H363 C361 0.960 . S
H364 C361 0.961 . S
O365 Co340 1.967 . S
O365 C373 1.258 . S
O366 Co341 1.941 . S
O366 C373 1.266 . S
H367 C369 0.959 . S
H368 C369 0.961 . S
C369 C359 1.510 . S
C369 H367 0.959 . S
C369 H368 0.961 . S
C369 H370 0.960 . S
H370 C369 0.960 . S
H371 N351 0.862 . S
O372 Co340 1.920 . S
O372 C345 1.289 . S
C373 O365 1.258 . S
C373 O366 1.266 . S
Co374 O377 1.970 . S
Co374 N391 1.989 . S
Co374 O399 1.967 . S
Co374 O406 1.920 . S
Co375 O378 1.966 . S
Co375 N384 2.022 . S
Co375 N392 1.993 . S
Co375 O400 1.941 . S
C376 O377 1.258 . S
C376 O378 1.263 . S
O377 Co374 1.970 . S
O377 C376 1.258 . S
O378 Co375 1.966 . S
O378 C376 1.263 . S
C379 O380 1.235 . S
C379 O406 1.289 . S
O380 C379 1.235 . S
C381 C383 1.400 . S
C381 N384 1.351 . S
C381 C386 1.501 . S
C382 C383 1.387 . S
C382 N385 1.341 . S
C383 C381 1.400 . S
C383 C382 1.387 . S
N384 Co375 2.022 . S
N384 C381 1.351 . S
N384 N385 1.365 . S
N385 C382 1.341 . S
N385 N384 1.365 . S
N385 H405 0.862 . S
C386 C381 1.501 . S
C386 H387 0.961 . S
C386 H388 0.961 . S
C386 H389 0.960 . S
H387 C386 0.961 . S
H388 C386 0.961 . S
H389 C386 0.960 . S
C390 N391 1.342 . S
C390 C394 1.401 . S
C390 C395 1.499 . S
N391 Co374 1.989 . S
N391 C390 1.342 . S
N391 N392 1.388 . S
N392 Co375 1.993 . S
N392 N391 1.388 . S
N392 C393 1.346 . S
C393 N392 1.346 . S
C393 C394 1.396 . S
C393 C403 1.510 . S
C394 C390 1.401 . S
C394 C393 1.396 . S
C395 C390 1.499 . S
C395 H396 0.959 . S
C395 H397 0.960 . S
C395 H398 0.961 . S
H396 C395 0.959 . S
H397 C395 0.960 . S
H398 C395 0.961 . S
O399 Co374 1.967 . S
O399 C407 1.258 . S
O400 Co375 1.941 . S
O400 C407 1.266 . S
H401 C403 0.959 . S
H402 C403 0.961 . S
C403 C393 1.510 . S
C403 H401 0.959 . S
C403 H402 0.961 . S
C403 H404 0.960 . S
H404 C403 0.960 . S
H405 N385 0.862 . S
O406 Co374 1.920 . S
O406 C379 1.289 . S
C407 O399 1.258 . S
C407 O400 1.266 . S
C408 C409 1.391 . S
C408 C410 1.394 . S
C408 H424 0.931 . S
C409 C408 1.391 . S
C409 C413 1.376 . S
C410 C408 1.394 . S
C410 C411 1.369 . S
C410 C414 1.531 . S
C411 C410 1.369 . S
C411 C412 1.410 . S
C411 C419 1.503 . S
C412 C411 1.410 . S
C412 C413 1.392 . S
C412 C415 1.511 . S
C413 C409 1.376 . S
C413 C412 1.392 . S
C413 H425 0.929 . S
C414 C410 1.531 . S
C414 H426 0.960 . S
C414 H427 0.962 . S
C414 H428 0.960 . S
C415 C412 1.511 . S
C415 H429 0.961 . S
C415 H430 0.961 . S
C415 H431 0.961 . S
C416 C417 1.370 . S
C416 C418 1.363 . S
C416 H432 0.931 . S
C417 C416 1.370 . S
C417 C421 1.408 1_545 S
C418 C416 1.363 . S
C418 C419 1.370 . S
C418 C422 1.524 . S
C419 C411 1.503 . S
C419 C418 1.370 . S
C419 C420 1.403 . S
C420 C419 1.403 . S
C420 C421 1.404 1_545 S
C420 C423 1.539 1_545 S
C421 C417 1.408 1_565 S
C421 C420 1.404 1_565 S
C421 H433 0.930 . S
C422 C418 1.524 . S
C422 H434 0.956 . S
C422 H435 0.961 . S
C422 H436 0.961 . S
C423 C420 1.539 1_565 S
C423 H437 0.958 . S
C423 H438 0.961 . S
C423 H439 0.960 1_565 S
H424 C408 0.931 . S
H425 C413 0.929 . S
H426 C414 0.960 . S
H427 C414 0.962 . S
H428 C414 0.960 . S
H429 C415 0.961 . S
H430 C415 0.961 . S
H431 C415 0.961 . S
H432 C416 0.931 . S
H433 C421 0.930 . S
H434 C422 0.956 . S
H435 C422 0.961 . S
H436 C422 0.961 . S
H437 C423 0.958 . S
H438 C423 0.961 . S
H439 C423 0.960 1_545 S
C440 C441 1.391 . S
C440 C442 1.394 . S
C440 H456 0.931 . S
C441 C440 1.391 . S
C441 C445 1.376 . S
C442 C440 1.394 . S
C442 C443 1.369 . S
C442 C446 1.531 . S
C443 C442 1.369 . S
C443 C444 1.410 . S
C443 C451 1.503 . S
C444 C443 1.410 . S
C444 C445 1.392 . S
C444 C447 1.511 . S
C445 C441 1.376 . S
C445 C444 1.392 . S
C445 H457 0.929 . S
C446 C442 1.531 . S
C446 H458 0.960 . S
C446 H459 0.962 . S
C446 H460 0.960 . S
C447 C444 1.511 . S
C447 H461 0.961 . S
C447 H462 0.961 . S
C447 H463 0.961 . S
C448 C449 1.370 . S
C448 C450 1.363 . S
C448 H464 0.931 1_455 S
C449 C448 1.370 . S
C449 C453 1.408 . S
C450 C448 1.363 . S
C450 C451 1.370 . S
C450 C454 1.524 . S
C451 C443 1.503 . S
C451 C450 1.370 . S
C451 C452 1.403 . S
C452 C451 1.403 . S
C452 C453 1.404 . S
C452 C455 1.539 . S
C453 C449 1.408 . S
C453 C452 1.404 . S
C453 H465 0.930 . S
C454 C450 1.524 . S
C454 H466 0.956 . S
C454 H467 0.961 . S
C454 H468 0.961 . S
C455 C452 1.539 . S
C455 H469 0.958 . S
C455 H470 0.961 . S
C455 H471 0.960 . S
H456 C440 0.931 . S
H457 C445 0.929 . S
H458 C446 0.960 . S
H459 C446 0.962 . S
H460 C446 0.960 . S
H461 C447 0.961 . S
H462 C447 0.961 . S
H463 C447 0.961 . S
H464 C448 0.931 1_655 S
H465 C453 0.930 . S
H466 C454 0.956 . S
H467 C454 0.961 . S
H468 C454 0.961 . S
H469 C455 0.958 . S
H470 C455 0.961 . S
H471 C455 0.960 . S
C472 C473 1.391 . S
C472 C474 1.394 . S
C472 H488 0.931 . S
C473 C472 1.391 . S
C473 C477 1.376 . S
C474 C472 1.394 . S
C474 C475 1.369 . S
C474 C478 1.531 . S
C475 C474 1.369 . S
C475 C476 1.410 . S
C475 C483 1.503 . S
C476 C475 1.410 . S
C476 C477 1.392 . S
C476 C479 1.511 . S
C477 C473 1.376 . S
C477 C476 1.392 . S
C477 H489 0.929 . S
C478 C474 1.531 . S
C478 H490 0.960 . S
C478 H491 0.962 . S
C478 H492 0.960 . S
C479 C476 1.511 . S
C479 H493 0.961 . S
C479 H494 0.961 . S
C479 H495 0.961 . S
C480 C481 1.370 . S
C480 C482 1.363 . S
C480 H496 0.931 . S
C481 C480 1.370 . S
C481 C485 1.408 . S
C482 C480 1.363 . S
C482 C483 1.370 . S
C482 C486 1.524 . S
C483 C475 1.503 . S
C483 C482 1.370 . S
C483 C484 1.403 . S
C484 C483 1.403 . S
C484 C485 1.404 . S
C484 C487 1.539 . S
C485 C481 1.408 . S
C485 C484 1.404 . S
C485 H497 0.930 . S
C486 C482 1.524 . S
C486 H498 0.956 . S
C486 H499 0.961 . S
C486 H500 0.961 . S
C487 C484 1.539 . S
C487 H501 0.958 . S
C487 H502 0.961 . S
C487 H503 0.960 . S
H488 C472 0.931 . S
H489 C477 0.929 . S
H490 C478 0.960 . S
H491 C478 0.962 . S
H492 C478 0.960 . S
H493 C479 0.961 . S
H494 C479 0.961 . S
H495 C479 0.961 . S
H496 C480 0.931 . S
H497 C485 0.930 . S
H498 C486 0.956 . S
H499 C486 0.961 . S
H500 C486 0.961 . S
H501 C487 0.958 . S
H502 C487 0.961 . S
H503 C487 0.960 . S
C504 C505 1.391 . S
C504 C506 1.394 . S
C504 H520 0.931 . S
C505 C504 1.391 . S
C505 C509 1.376 . S
C506 C504 1.394 . S
C506 C507 1.369 . S
C506 C510 1.531 . S
C507 C506 1.369 . S
C507 C508 1.410 . S
C507 C515 1.503 . S
C508 C507 1.410 . S
C508 C509 1.392 . S
C508 C511 1.511 . S
C509 C505 1.376 . S
C509 C508 1.392 . S
C509 H521 0.929 . S
C510 C506 1.531 . S
C510 H522 0.960 . S
C510 H523 0.962 . S
C510 H524 0.960 . S
C511 C508 1.511 . S
C511 H525 0.961 . S
C511 H526 0.961 . S
C511 H527 0.961 . S
C512 C513 1.370 . S
C512 C514 1.363 . S
C512 H528 0.931 . S
C513 C512 1.370 . S
C513 C517 1.408 . S
C514 C512 1.363 . S
C514 C515 1.370 . S
C514 C518 1.524 . S
C515 C507 1.503 . S
C515 C514 1.370 . S
C515 C516 1.403 . S
C516 C515 1.403 . S
C516 C517 1.404 . S
C516 C519 1.539 . S
C517 C513 1.408 . S
C517 C516 1.404 . S
C517 H529 0.930 . S
C518 C514 1.524 . S
C518 H530 0.956 . S
C518 H531 0.961 . S
C518 H532 0.961 . S
C519 C516 1.539 . S
C519 H533 0.958 . S
C519 H534 0.961 . S
C519 H535 0.960 . S
H520 C504 0.931 . S
H521 C509 0.929 . S
H522 C510 0.960 . S
H523 C510 0.962 . S
H524 C510 0.960 . S
H525 C511 0.961 . S
H526 C511 0.961 . S
H527 C511 0.961 . S
H528 C512 0.931 . S
H529 C517 0.930 . S
H530 C518 0.956 . S
H531 C518 0.961 . S
H532 C518 0.961 . S
H533 C519 0.958 . S
H534 C519 0.961 . S
H535 C519 0.960 . S
C536 C537 1.391 . S
C536 C538 1.394 . S
C536 H552 0.931 . S
C537 C536 1.391 . S
C537 C541 1.374 1_655 S
C538 C536 1.394 . S
C538 C539 1.369 . S
C538 C542 1.531 . S
C539 C538 1.369 . S
C539 C540 1.410 . S
C539 C547 1.503 . S
C540 C539 1.410 . S
C540 C541 1.374 1_655 S
C540 C543 1.511 . S
C541 C537 1.374 1_455 S
C541 C540 1.374 1_455 S
C541 H553 0.950 . S
C542 C538 1.531 . S
C542 H554 0.960 . S
C542 H555 0.962 . S
C542 H556 0.960 . S
C543 C540 1.511 . S
C543 H557 0.961 1_655 S
C543 H558 0.961 . S
C543 H559 0.969 . S
C544 C545 1.370 . S
C544 C546 1.363 . S
C544 H560 0.931 . S
C545 C544 1.370 . S
C545 C549 1.408 . S
C546 C544 1.363 . S
C546 C547 1.370 . S
C546 C550 1.524 . S
C547 C539 1.503 . S
C547 C546 1.370 . S
C547 C548 1.403 . S
C548 C547 1.403 . S
C548 C549 1.404 . S
C548 C551 1.539 . S
C549 C545 1.408 . S
C549 C548 1.404 . S
C549 H561 0.930 . S
C550 C546 1.524 . S
C550 H562 0.956 . S
C550 H563 0.961 . S
C550 H564 0.961 . S
C551 C548 1.539 . S
C551 H565 0.958 . S
C551 H566 0.961 . S
C551 H567 0.960 . S
H552 C536 0.931 . S
H553 C541 0.950 . S
H554 C542 0.960 . S
H555 C542 0.962 . S
H556 C542 0.960 . S
H557 C543 0.961 1_455 S
H558 C543 0.961 . S
H559 C543 0.969 . S
H560 C544 0.931 . S
H561 C549 0.930 . S
H562 C550 0.956 . S
H563 C550 0.961 . S
H564 C550 0.961 . S
H565 C551 0.958 . S
H566 C551 0.961 . S
H567 C551 0.960 . S
C568 C569 1.391 . S
C568 C570 1.394 . S
C568 H584 0.931 . S
C569 C568 1.391 . S
C569 C573 1.376 . S
C570 C568 1.394 . S
C570 C571 1.369 . S
C570 C574 1.531 . S
C571 C570 1.369 . S
C571 C572 1.410 . S
C571 C579 1.503 . S
C572 C571 1.410 . S
C572 C573 1.392 . S
C572 C575 1.511 . S
C573 C569 1.376 . S
C573 C572 1.392 . S
C573 H585 0.929 . S
C574 C570 1.531 . S
C574 H586 0.960 . S
C574 H587 0.962 . S
C574 H588 0.960 . S
C575 C572 1.511 . S
C575 H589 0.961 . S
C575 H590 0.961 . S
C575 H591 0.961 . S
C576 C577 1.370 . S
C576 C578 1.363 . S
C576 H592 0.931 . S
C577 C576 1.370 . S
C577 C581 1.408 . S
C578 C576 1.363 . S
C578 C579 1.370 . S
C578 C582 1.524 . S
C579 C571 1.503 . S
C579 C578 1.370 . S
C579 C580 1.403 . S
C580 C579 1.403 . S
C580 C581 1.404 . S
C580 C583 1.539 . S
C581 C577 1.408 . S
C581 C580 1.404 . S
C581 H593 0.930 . S
C582 C578 1.524 . S
C582 H594 0.956 . S
C582 H595 0.961 . S
C582 H596 0.961 . S
C583 C580 1.539 . S
C583 H597 0.958 . S
C583 H598 0.961 . S
C583 H599 0.960 . S
H584 C568 0.931 . S
H585 C573 0.929 . S
H586 C574 0.960 . S
H587 C574 0.962 . S
H588 C574 0.960 . S
H589 C575 0.961 . S
H590 C575 0.961 . S
H591 C575 0.961 . S
H592 C576 0.931 . S
H593 C581 0.930 . S
H594 C582 0.956 . S
H595 C582 0.961 . S
H596 C582 0.961 . S
H597 C583 0.958 . S
H598 C583 0.961 . S
H599 C583 0.960 . S
C600 C601 1.391 1_556 S
C600 C602 1.394 . S
C600 H616 0.931 . S
C601 C600 1.391 1_554 S
C601 C605 1.376 . S
C602 C600 1.394 . S
C602 C603 1.369 1_556 S
C602 C606 1.531 . S
C603 C602 1.369 1_554 S
C603 C604 1.410 . S
C603 C611 1.503 . S
C604 C603 1.410 . S
C604 C605 1.392 . S
C604 C607 1.511 . S
C605 C601 1.376 . S
C605 C604 1.392 . S
C605 H617 0.929 . S
C606 C602 1.531 . S
C606 H618 0.960 . S
C606 H619 0.962 . S
C606 H620 0.960 . S
C607 C604 1.511 . S
C607 H621 0.961 . S
C607 H622 0.961 . S
C607 H623 0.961 . S
C608 C609 1.370 . S
C608 C610 1.363 . S
C608 H624 0.931 . S
C609 C608 1.370 . S
C609 C613 1.408 . S
C610 C608 1.363 . S
C610 C611 1.370 . S
C610 C614 1.524 . S
C611 C603 1.503 . S
C611 C610 1.370 . S
C611 C612 1.403 . S
C612 C611 1.403 . S
C612 C613 1.404 . S
C612 C615 1.539 . S
C613 C609 1.408 . S
C613 C612 1.404 . S
C613 H625 0.930 . S
C614 C610 1.524 . S
C614 H626 0.956 . S
C614 H627 0.961 . S
C614 H628 0.961 . S
C615 C612 1.539 . S
C615 H629 0.958 1_554 S
C615 H630 0.961 . S
C615 H631 0.960 . S
H616 C600 0.931 . S
H617 C605 0.929 . S
H618 C606 0.960 . S
H619 C606 0.962 . S
H620 C606 0.960 . S
H621 C607 0.961 . S
H622 C607 0.961 . S
H623 C607 0.961 . S
H624 C608 0.931 . S
H625 C613 0.930 . S
H626 C614 0.956 . S
H627 C614 0.961 . S
H628 C614 0.961 . S
H629 C615 0.958 1_556 S
H630 C615 0.961 . S
H631 C615 0.960 . S
C632 C633 1.391 . S
C632 C634 1.394 . S
C632 H648 0.931 . S
C633 C632 1.391 . S
C633 C637 1.376 . S
C634 C632 1.394 . S
C634 C635 1.369 . S
C634 C638 1.531 1_655 S
C635 C634 1.369 . S
C635 C636 1.410 . S
C635 C643 1.503 1_655 S
C636 C635 1.410 . S
C636 C637 1.392 . S
C636 C639 1.511 . S
C637 C633 1.376 . S
C637 C636 1.392 . S
C637 H649 0.929 . S
C638 C634 1.531 1_455 S
C638 H650 0.960 . S
C638 H651 0.962 . S
C638 H652 0.960 . S
C639 C636 1.511 . S
C639 H653 0.961 . S
C639 H654 0.961 . S
C639 H655 0.961 . S
C640 C641 1.370 . S
C640 C642 1.363 . S
C640 H656 0.931 . S
C641 C640 1.370 . S
C641 C645 1.408 . S
C642 C640 1.363 . S
C642 C643 1.370 . S
C642 C646 1.524 . S
C643 C635 1.503 1_455 S
C643 C642 1.370 . S
C643 C644 1.403 1_455 S
C644 C643 1.403 1_655 S
C644 C645 1.404 1_655 S
C644 C647 1.539 . S
C645 C641 1.408 . S
C645 C644 1.404 1_455 S
C645 H657 0.930 . S
C646 C642 1.524 . S
C646 H658 0.956 . S
C646 H659 0.961 . S
C646 H660 0.961 . S
C647 C644 1.539 . S
C647 H661 0.958 . S
C647 H662 0.961 . S
C647 H663 0.960 . S
H648 C632 0.931 . S
H649 C637 0.929 . S
H650 C638 0.960 . S
H651 C638 0.962 . S
H652 C638 0.960 . S
H653 C639 0.961 . S
H654 C639 0.961 . S
H655 C639 0.961 . S
H656 C640 0.931 . S
H657 C645 0.930 . S
H658 C646 0.956 . S
H659 C646 0.961 . S
H660 C646 0.961 . S
H661 C647 0.958 . S
H662 C647 0.961 . S
H663 C647 0.960 . S
C664 C665 1.391 . S
C664 C666 1.394 . S
C664 H680 0.931 . S
C665 C664 1.391 . S
C665 C669 1.376 . S
C666 C664 1.394 . S
C666 C667 1.369 1_545 S
C666 C670 1.531 . S
C667 C666 1.369 1_565 S
C667 C668 1.410 . S
C667 C675 1.503 . S
C668 C667 1.410 . S
C668 C669 1.392 1_565 S
C668 C671 1.511 . S
C669 C665 1.376 . S
C669 C668 1.392 1_545 S
C669 H681 0.929 . S
C670 C666 1.531 . S
C670 H682 0.960 . S
C670 H683 0.962 . S
C670 H684 0.960 . S
C671 C668 1.511 . S
C671 H685 0.961 . S
C671 H686 0.961 . S
C671 H687 0.961 . S
C672 C673 1.370 . S
C672 C674 1.363 . S
C672 H688 0.931 . S
C673 C672 1.370 . S
C673 C677 1.408 . S
C674 C672 1.363 . S
C674 C675 1.370 . S
C674 C678 1.524 1_565 S
C675 C667 1.503 . S
C675 C674 1.370 . S
C675 C676 1.403 . S
C676 C675 1.403 . S
C676 C677 1.404 . S
C676 C679 1.539 . S
C677 C673 1.408 . S
C677 C676 1.404 . S
C677 H689 0.930 . S
C678 C674 1.524 1_545 S
C678 H690 0.956 . S
C678 H691 0.961 . S
C678 H692 0.961 . S
C679 C676 1.539 . S
C679 H693 0.958 . S
C679 H694 0.961 . S
C679 H695 0.960 . S
H680 C664 0.931 . S
H681 C669 0.929 . S
H682 C670 0.960 . S
H683 C670 0.962 . S
H684 C670 0.960 . S
H685 C671 0.961 . S
H686 C671 0.961 . S
H687 C671 0.961 . S
H688 C672 0.931 . S
H689 C677 0.930 . S
H690 C678 0.956 . S
H691 C678 0.961 . S
H692 C678 0.961 . S
H693 C679 0.958 . S
H694 C679 0.961 . S
H695 C679 0.960 . S
C696 C697 1.391 . S
C696 C698 1.394 . S
C696 H712 0.931 . S
C697 C696 1.391 . S
C697 C701 1.376 . S
C698 C696 1.394 . S
C698 C699 1.369 . S
C698 C702 1.531 . S
C699 C698 1.369 . S
C699 C700 1.410 . S
C699 C707 1.503 . S
C700 C699 1.410 . S
C700 C701 1.392 . S
C700 C703 1.511 . S
C701 C697 1.376 . S
C701 C700 1.392 . S
C701 H713 0.929 . S
C702 C698 1.531 . S
C702 H714 0.960 . S
C702 H715 0.962 . S
C702 H716 0.960 . S
C703 C700 1.511 . S
C703 H717 0.961 . S
C703 H718 0.961 . S
C703 H719 0.961 . S
C704 C705 1.370 . S
C704 C706 1.363 . S
C704 H720 0.931 . S
C705 C704 1.370 . S
C705 C709 1.408 . S
C706 C704 1.363 . S
C706 C707 1.370 . S
C706 C710 1.524 . S
C707 C699 1.503 . S
C707 C706 1.370 . S
C707 C708 1.403 . S
C708 C707 1.403 . S
C708 C709 1.404 . S
C708 C711 1.539 . S
C709 C705 1.408 . S
C709 C708 1.404 . S
C709 H721 0.930 . S
C710 C706 1.524 . S
C710 H722 0.956 . S
C710 H723 0.961 . S
C710 H724 0.961 . S
C711 C708 1.539 . S
C711 H725 0.958 . S
C711 H726 0.961 . S
C711 H727 0.960 . S
H712 C696 0.931 . S
H713 C701 0.929 . S
H714 C702 0.960 . S
H715 C702 0.962 . S
H716 C702 0.960 . S
H717 C703 0.961 . S
H718 C703 0.961 . S
H719 C703 0.961 . S
H720 C704 0.931 . S
H721 C709 0.930 . S
H722 C710 0.956 . S
H723 C710 0.961 . S
H724 C710 0.961 . S
H725 C711 0.958 . S
H726 C711 0.961 . S
H727 C711 0.960 . S
C728 C729 1.391 . S
C728 C730 1.394 . S
C728 H744 0.931 . S
C729 C728 1.391 . S
C729 C733 1.376 . S
C730 C728 1.394 . S
C730 C731 1.369 . S
C730 C734 1.531 . S
C731 C730 1.369 . S
C731 C732 1.410 1_655 S
C731 C739 1.503 1_655 S
C732 C731 1.410 1_455 S
C732 C733 1.392 1_455 S
C732 C735 1.511 . S
C733 C729 1.376 . S
C733 C732 1.392 1_655 S
C733 H745 0.929 . S
C734 C730 1.531 . S
C734 H746 0.960 . S
C734 H747 0.962 . S
C734 H748 0.960 . S
C735 C732 1.511 . S
C735 H749 0.961 . S
C735 H750 0.961 . S
C735 H751 0.961 . S
C736 C737 1.370 . S
C736 C738 1.363 . S
C736 H752 0.931 . S
C737 C736 1.370 . S
C737 C741 1.408 . S
C738 C736 1.363 . S
C738 C739 1.370 . S
C738 C742 1.524 1_455 S
C739 C731 1.503 1_455 S
C739 C738 1.370 . S
C739 C740 1.403 . S
C740 C739 1.403 . S
C740 C741 1.404 . S
C740 C743 1.539 . S
C741 C737 1.408 . S
C741 C740 1.404 . S
C741 H753 0.930 . S
C742 C738 1.524 1_655 S
C742 H754 0.956 . S
C742 H755 0.961 . S
C742 H756 0.961 . S
C743 C740 1.539 . S
C743 H757 0.958 . S
C743 H758 0.961 . S
C743 H759 0.960 . S
H744 C728 0.931 . S
H745 C733 0.929 . S
H746 C734 0.960 . S
H747 C734 0.962 . S
H748 C734 0.960 . S
H749 C735 0.961 . S
H750 C735 0.961 . S
H751 C735 0.961 . S
H752 C736 0.931 . S
H753 C741 0.930 . S
H754 C742 0.956 . S
H755 C742 0.961 . S
H756 C742 0.961 . S
H757 C743 0.958 . S
H758 C743 0.961 . S
H759 C743 0.960 . S
C760 C761 1.391 . S
C760 C762 1.394 . S
C760 H776 0.931 . S
C761 C760 1.391 . S
C761 C765 1.376 . S
C762 C760 1.394 . S
C762 C763 1.369 . S
C762 C766 1.531 . S
C763 C762 1.369 . S
C763 C764 1.410 . S
C763 C771 1.503 1_565 S
C764 C763 1.410 . S
C764 C765 1.392 . S
C764 C767 1.511 1_565 S
C765 C761 1.376 . S
C765 C764 1.392 . S
C765 H777 0.929 . S
C766 C762 1.531 . S
C766 H778 0.960 . S
C766 H779 0.962 . S
C766 H780 0.960 . S
C767 C764 1.511 1_545 S
C767 H781 0.961 . S
C767 H782 0.961 . S
C767 H783 0.961 1_545 S
C768 C769 1.370 . S
C768 C770 1.363 . S
C768 H784 0.931 . S
C769 C768 1.370 . S
C769 C773 1.408 . S
C770 C768 1.363 . S
C770 C771 1.370 . S
C770 C774 1.524 . S
C771 C763 1.503 1_545 S
C771 C770 1.370 . S
C771 C772 1.403 . S
C772 C771 1.403 . S
C772 C773 1.404 . S
C772 C775 1.539 1_545 S
C773 C769 1.408 . S
C773 C772 1.404 . S
C773 H785 0.930 . S
C774 C770 1.524 . S
C774 H786 0.956 . S
C774 H787 0.961 . S
C774 H788 0.961 . S
C775 C772 1.539 1_565 S
C775 H789 0.958 . S
C775 H790 0.961 . S
C775 H791 0.960 . S
H776 C760 0.931 . S
H777 C765 0.929 . S
H778 C766 0.960 . S
H779 C766 0.962 . S
H780 C766 0.960 . S
H781 C767 0.961 . S
H782 C767 0.961 . S
H783 C767 0.961 1_565 S
H784 C768 0.931 . S
H785 C773 0.930 . S
H786 C774 0.956 . S
H787 C774 0.961 . S
H788 C774 0.961 . S
H789 C775 0.958 . S
H790 C775 0.961 . S
H791 C775 0.960 . S
C792 C793 1.391 . S
C792 C794 1.394 . S
C792 H808 0.931 . S
C793 C792 1.391 . S
C793 C797 1.376 . S
C794 C792 1.394 . S
C794 C795 1.369 . S
C794 C798 1.531 . S
C795 C794 1.369 . S
C795 C796 1.410 . S
C795 C803 1.503 . S
C796 C795 1.410 . S
C796 C797 1.392 . S
C796 C799 1.511 . S
C797 C793 1.376 . S
C797 C796 1.392 . S
C797 H809 0.929 . S
C798 C794 1.531 . S
C798 H810 0.960 . S
C798 H811 0.962 . S
C798 H812 0.960 . S
C799 C796 1.511 . S
C799 H813 0.961 . S
C799 H814 0.961 . S
C799 H815 0.961 . S
C800 C801 1.370 . S
C800 C802 1.363 . S
C800 H816 0.931 . S
C801 C800 1.370 . S
C801 C805 1.408 . S
C802 C800 1.363 . S
C802 C803 1.370 . S
C802 C806 1.524 . S
C803 C795 1.503 . S
C803 C802 1.370 . S
C803 C804 1.403 . S
C804 C803 1.403 . S
C804 C805 1.404 . S
C804 C807 1.539 . S
C805 C801 1.408 . S
C805 C804 1.404 . S
C805 H817 0.930 . S
C806 C802 1.524 . S
C806 H818 0.956 . S
C806 H819 0.961 . S
C806 H820 0.961 . S
C807 C804 1.539 . S
C807 H821 0.958 . S
C807 H822 0.961 . S
C807 H823 0.960 . S
H808 C792 0.931 . S
H809 C797 0.929 . S
H810 C798 0.960 . S
H811 C798 0.962 . S
H812 C798 0.960 . S
H813 C799 0.961 . S
H814 C799 0.961 . S
H815 C799 0.961 . S
H816 C800 0.931 . S
H817 C805 0.930 . S
H818 C806 0.956 . S
H819 C806 0.961 . S
H820 C806 0.961 . S
H821 C807 0.958 . S
H822 C807 0.961 . S
H823 C807 0.960 . S
C824 C825 1.391 . S
C824 C826 1.394 . S
C824 H840 0.931 . S
C825 C824 1.391 . S
C825 C829 1.376 . S
C826 C824 1.394 . S
C826 C827 1.369 . S
C826 C830 1.531 1_655 S
C827 C826 1.369 . S
C827 C828 1.410 . S
C827 C835 1.503 1_655 S
C828 C827 1.410 . S
C828 C829 1.392 . S
C828 C831 1.542 . S
C829 C825 1.376 . S
C829 C828 1.392 . S
C829 H841 0.929 . S
C830 C826 1.531 1_455 S
C830 H842 0.960 . S
C830 H843 0.962 . S
C830 H844 0.960 . S
C831 C828 1.542 . S
C831 H845 0.965 . S
C831 H846 0.973 . S
C831 H847 0.917 1_556 S
C832 C833 1.370 . S
C832 C834 1.363 . S
C832 H848 0.931 . S
C833 C832 1.370 . S
C833 C837 1.408 . S
C834 C832 1.363 . S
C834 C835 1.370 . S
C834 C838 1.524 1_455 S
C835 C827 1.503 1_455 S
C835 C834 1.370 . S
C835 C836 1.403 . S
C836 C835 1.403 . S
C836 C837 1.404 . S
C836 C839 1.539 1_556 S
C837 C833 1.408 . S
C837 C836 1.404 . S
C837 H849 0.930 1_556 S
C838 C834 1.524 1_655 S
C838 H850 0.956 . S
C838 H851 0.961 . S
C838 H852 0.961 . S
C839 C836 1.539 1_554 S
C839 H853 0.958 . S
C839 H854 0.961 . S
C839 H855 0.960 . S
H840 C824 0.931 . S
H841 C829 0.929 . S
H842 C830 0.960 . S
H843 C830 0.962 . S
H844 C830 0.960 . S
H845 C831 0.965 . S
H846 C831 0.973 . S
H847 C831 0.917 1_554 S
H848 C832 0.931 . S
H849 C837 0.930 1_554 S
H850 C838 0.956 . S
H851 C838 0.961 . S
H852 C838 0.961 . S
H853 C839 0.958 . S
H854 C839 0.961 . S
H855 C839 0.960 . S
C856 C857 1.391 . S
C856 C858 1.394 . S
C856 H872 0.931 . S
C857 C856 1.391 . S
C857 C861 1.376 . S
C858 C856 1.394 . S
C858 C859 1.369 . S
C858 C862 1.531 1_565 S
C859 C858 1.369 . S
C859 C860 1.410 . S
C859 C867 1.503 1_565 S
C860 C859 1.410 . S
C860 C861 1.392 . S
C860 C863 1.511 . S
C861 C857 1.376 . S
C861 C860 1.392 . S
C861 H873 0.929 . S
C862 C858 1.531 1_545 S
C862 H874 0.960 . S
C862 H875 0.962 . S
C862 H876 0.960 . S
C863 C860 1.511 . S
C863 H877 0.961 . S
C863 H878 0.961 . S
C863 H879 0.961 . S
C864 C865 1.370 . S
C864 C866 1.363 . S
C864 H880 0.931 . S
C865 C864 1.370 . S
C865 C869 1.408 . S
C866 C864 1.363 . S
C866 C867 1.370 . S
C866 C870 1.524 1_545 S
C867 C859 1.503 1_545 S
C867 C866 1.370 . S
C867 C868 1.403 . S
C868 C867 1.403 . S
C868 C869 1.404 . S
C868 C871 1.539 . S
C869 C865 1.408 . S
C869 C868 1.404 . S
C869 H881 0.930 . S
C870 C866 1.524 1_565 S
C870 H882 0.956 . S
C870 H883 0.961 . S
C870 H884 0.961 . S
C871 C868 1.539 . S
C871 H885 0.958 . S
C871 H886 0.961 . S
C871 H887 0.960 1_545 S
H872 C856 0.931 . S
H873 C861 0.929 . S
H874 C862 0.960 . S
H875 C862 0.962 . S
H876 C862 0.960 . S
H877 C863 0.961 . S
H878 C863 0.961 . S
H879 C863 0.961 . S
H880 C864 0.931 . S
H881 C869 0.930 . S
H882 C870 0.956 . S
H883 C870 0.961 . S
H884 C870 0.961 . S
H885 C871 0.958 . S
H886 C871 0.961 . S
H887 C871 0.960 1_565 S
C888 C889 1.391 . S
C888 C890 1.394 . S
C888 H904 0.931 . S
C889 C888 1.391 . S
C889 C893 1.376 . S
C890 C888 1.394 . S
C890 C891 1.369 . S
C890 C894 1.531 . S
C891 C890 1.369 . S
C891 C892 1.410 . S
C891 C899 1.503 . S
C892 C891 1.410 . S
C892 C893 1.392 . S
C892 C895 1.511 . S
C893 C889 1.376 . S
C893 C892 1.392 . S
C893 H905 0.929 . S
C894 C890 1.531 . S
C894 H906 0.960 . S
C894 H907 0.962 . S
C894 H908 0.960 . S
C895 C892 1.511 . S
C895 H909 0.961 . S
C895 H910 0.961 . S
C895 H911 0.961 . S
C896 C897 1.370 . S
C896 C898 1.363 . S
C896 H912 0.931 . S
C897 C896 1.370 . S
C897 C901 1.408 . S
C898 C896 1.363 . S
C898 C899 1.370 . S
C898 C902 1.524 . S
C899 C891 1.503 . S
C899 C898 1.370 . S
C899 C900 1.403 . S
C900 C899 1.403 . S
C900 C901 1.404 . S
C900 C903 1.539 . S
C901 C897 1.408 . S
C901 C900 1.404 . S
C901 H913 0.930 . S
C902 C898 1.524 . S
C902 H914 0.956 . S
C902 H915 0.961 . S
C902 H916 0.961 . S
C903 C900 1.539 . S
C903 H917 0.958 . S
C903 H918 0.961 . S
C903 H919 0.960 . S
H904 C888 0.931 . S
H905 C893 0.929 . S
H906 C894 0.960 . S
H907 C894 0.962 . S
H908 C894 0.960 . S
H909 C895 0.961 . S
H910 C895 0.961 . S
H911 C895 0.961 . S
H912 C896 0.931 . S
H913 C901 0.930 . S
H914 C902 0.956 . S
H915 C902 0.961 . S
H916 C902 0.961 . S
H917 C903 0.958 . S
H918 C903 0.961 . S
H919 C903 0.960 . S
C920 C921 1.391 . S
C920 C922 1.394 1_655 S
C920 H936 0.931 . S
C921 C920 1.391 . S
C921 C925 1.376 . S
C922 C920 1.394 1_455 S
C922 C923 1.369 . S
C922 C926 1.531 . S
C923 C922 1.369 . S
C923 C924 1.410 1_455 S
C923 C931 1.503 . S
C924 C923 1.410 1_655 S
C924 C925 1.392 . S
C924 C927 1.511 . S
C925 C921 1.376 . S
C925 C924 1.392 . S
C925 H937 0.929 . S
C926 C922 1.531 . S
C926 H938 0.960 . S
C926 H939 0.962 . S
C926 H940 0.960 . S
C927 C924 1.511 . S
C927 H941 0.961 . S
C927 H942 0.961 . S
C927 H943 0.961 . S
C928 C929 1.370 . S
C928 C930 1.363 . S
C928 H944 0.931 . S
C929 C928 1.370 . S
C929 C933 1.408 . S
C930 C928 1.363 . S
C930 C931 1.370 . S
C930 C934 1.524 1_455 S
C931 C923 1.503 . S
C931 C930 1.370 . S
C931 C932 1.403 . S
C932 C931 1.403 . S
C932 C933 1.404 . S
C932 C935 1.539 . S
C933 C929 1.408 . S
C933 C932 1.404 . S
C933 H945 0.930 . S
C934 C930 1.524 1_655 S
C934 H946 0.956 . S
C934 H947 0.961 . S
C934 H948 0.961 . S
C935 C932 1.539 . S
C935 H949 0.958 . S
C935 H950 0.961 . S
C935 H951 0.960 . S
H936 C920 0.931 . S
H937 C925 0.929 . S
H938 C926 0.960 . S
H939 C926 0.962 . S
H940 C926 0.960 . S
H941 C927 0.961 . S
H942 C927 0.961 . S
H943 C927 0.961 . S
H944 C928 0.931 . S
H945 C933 0.930 . S
H946 C934 0.956 . S
H947 C934 0.961 . S
H948 C934 0.961 . S
H949 C935 0.958 . S
H950 C935 0.961 . S
H951 C935 0.960 . S
C952 C953 1.391 . S
C952 C954 1.394 . S
C952 H968 0.931 . S
C953 C952 1.391 . S
C953 C957 1.376 . S
C954 C952 1.394 . S
C954 C955 1.369 . S
C954 C958 1.531 . S
C955 C954 1.369 . S
C955 C956 1.410 1_565 S
C955 C963 1.503 1_565 S
C956 C955 1.410 1_545 S
C956 C957 1.392 1_545 S
C956 C959 1.511 . S
C957 C953 1.376 . S
C957 C956 1.392 1_565 S
C957 H969 0.944 . S
C958 C954 1.531 . S
C958 H970 0.960 . S
C958 H971 0.962 . S
C958 H972 0.960 . S
C959 C956 1.511 . S
C959 H973 0.961 . S
C959 H974 0.961 . S
C959 H975 0.961 . S
C960 C961 1.370 . S
C960 C962 1.363 . S
C960 H976 0.931 . S
C961 C960 1.370 . S
C961 C965 1.408 . S
C962 C960 1.363 . S
C962 C963 1.370 . S
C962 C966 1.524 . S
C963 C955 1.503 1_545 S
C963 C962 1.370 . S
C963 C964 1.403 . S
C964 C963 1.403 . S
C964 C965 1.404 . S
C964 C967 1.539 . S
C965 C961 1.408 . S
C965 C964 1.404 . S
C965 H977 0.930 . S
C966 C962 1.524 . S
C966 H978 0.956 1_545 S
C966 H979 0.961 . S
C966 H980 0.961 . S
C967 C964 1.539 . S
C967 H981 0.958 . S
C967 H982 0.961 . S
C967 H983 0.960 . S
H968 C952 0.931 . S
H969 C957 0.944 . S
H970 C958 0.960 . S
H971 C958 0.962 . S
H972 C958 0.960 . S
H973 C959 0.961 . S
H974 C959 0.961 . S
H975 C959 0.961 . S
H976 C960 0.931 . S
H977 C965 0.930 . S
H978 C966 0.956 1_565 S
H979 C966 0.961 . S
H980 C966 0.961 . S
H981 C967 0.958 . S
H982 C967 0.961 . S
H983 C967 0.960 . S
C984 C985 1.391 . S
C984 C986 1.394 . S
C984 H1000 0.931 . S
C985 C984 1.391 . S
C985 C989 1.376 . S
C986 C984 1.394 . S
C986 C987 1.369 . S
C986 C990 1.531 . S
C987 C986 1.369 . S
C987 C988 1.410 . S
C987 C995 1.503 . S
C988 C987 1.410 . S
C988 C989 1.392 . S
C988 C991 1.511 . S
C989 C985 1.376 . S
C989 C988 1.392 . S
C989 H1001 0.929 . S
C990 C986 1.531 . S
C990 H1002 0.960 . S
C990 H1003 0.962 . S
C990 H1004 0.960 . S
C991 C988 1.511 . S
C991 H1005 0.961 . S
C991 H1006 0.961 . S
C991 H1007 0.961 . S
C992 C993 1.370 . S
C992 C994 1.363 . S
C992 H1008 0.931 . S
C993 C992 1.370 . S
C993 C997 1.408 . S
C994 C992 1.363 . S
C994 C995 1.370 . S
C994 C998 1.524 . S
C995 C987 1.503 . S
C995 C994 1.370 . S
C995 C996 1.403 . S
C996 C995 1.403 . S
C996 C997 1.404 . S
C996 C999 1.539 . S
C997 C993 1.408 . S
C997 C996 1.404 . S
C997 H1009 0.930 . S
C998 C994 1.524 . S
C998 H1010 0.956 . S
C998 H1011 0.961 . S
C998 H1012 0.961 . S
C999 C996 1.539 . S
C999 H1013 0.958 . S
C999 H1014 0.961 . S
C999 H1015 0.960 . S
H1000 C984 0.931 . S
H1001 C989 0.929 . S
H1002 C990 0.960 . S
H1003 C990 0.962 . S
H1004 C990 0.960 . S
H1005 C991 0.961 . S
H1006 C991 0.961 . S
H1007 C991 0.961 . S
H1008 C992 0.931 . S
H1009 C997 0.930 . S
H1010 C998 0.956 . S
H1011 C998 0.961 . S
H1012 C998 0.961 . S
H1013 C999 0.958 . S
H1014 C999 0.961 . S
H1015 C999 0.960 . S
C1016 C1017 1.391 . S
C1016 C1018 1.394 . S
C1016 H1032 0.931 . S
C1017 C1016 1.391 . S
C1017 C1021 1.376 . S
C1018 C1016 1.394 . S
C1018 C1019 1.369 . S
C1018 C1022 1.531 1_455 S
C1019 C1018 1.369 . S
C1019 C1020 1.410 . S
C1019 C1027 1.503 1_455 S
C1020 C1019 1.410 . S
C1020 C1021 1.392 . S
C1020 C1023 1.511 . S
C1021 C1017 1.376 . S
C1021 C1020 1.392 . S
C1021 H1033 0.929 . S
C1022 C1018 1.531 1_655 S
C1022 H1034 0.960 . S
C1022 H1035 0.962 . S
C1022 H1036 0.960 1_655 S
C1023 C1020 1.511 . S
C1023 H1037 0.961 . S
C1023 H1038 0.961 . S
C1023 H1039 0.961 . S
C1024 C1025 1.370 . S
C1024 C1026 1.363 . S
C1024 H1040 0.931 . S
C1025 C1024 1.370 . S
C1025 C1029 1.408 . S
C1026 C1024 1.363 . S
C1026 C1027 1.370 . S
C1026 C1030 1.524 . S
C1027 C1019 1.503 1_655 S
C1027 C1026 1.370 . S
C1027 C1028 1.403 . S
C1028 C1027 1.403 . S
C1028 C1029 1.404 . S
C1028 C1031 1.539 1_655 S
C1029 C1025 1.408 . S
C1029 C1028 1.404 . S
C1029 H1041 0.930 . S
C1030 C1026 1.524 . S
C1030 H1042 0.956 . S
C1030 H1043 0.961 . S
C1030 H1044 0.961 . S
C1031 C1028 1.539 1_455 S
C1031 H1045 0.958 . S
C1031 H1046 0.961 . S
C1031 H1047 0.960 . S
H1032 C1016 0.931 . S
H1033 C1021 0.929 . S
H1034 C1022 0.960 . S
H1035 C1022 0.962 . S
H1036 C1022 0.960 1_455 S
H1037 C1023 0.961 . S
H1038 C1023 0.961 . S
H1039 C1023 0.961 . S
H1040 C1024 0.931 . S
H1041 C1029 0.930 . S
H1042 C1030 0.956 . S
H1043 C1030 0.961 . S
H1044 C1030 0.961 . S
H1045 C1031 0.958 . S
H1046 C1031 0.961 . S
H1047 C1031 0.960 . S
C1048 C1049 1.391 . S
C1048 C1050 1.394 . S
C1048 H1064 0.931 . S
C1049 C1048 1.391 . S
C1049 C1053 1.376 . S
C1050 C1048 1.394 . S
C1050 C1051 1.369 . S
C1050 C1054 1.531 1_565 S
C1051 C1050 1.369 . S
C1051 C1052 1.410 . S
C1051 C1059 1.503 1_565 S
C1052 C1051 1.410 . S
C1052 C1053 1.392 . S
C1052 C1055 1.511 . S
C1053 C1049 1.376 . S
C1053 C1052 1.392 . S
C1053 H1065 0.929 . S
C1054 C1050 1.531 1_545 S
C1054 H1066 0.960 . S
C1054 H1067 0.962 1_545 S
C1054 H1068 0.960 . S
C1055 C1052 1.511 . S
C1055 H1069 0.961 . S
C1055 H1070 0.961 . S
C1055 H1071 0.961 . S
C1056 C1057 1.370 . S
C1056 C1058 1.363 1_545 S
C1056 H1072 0.931 . S
C1057 C1056 1.370 . S
C1057 C1061 1.408 . S
C1058 C1056 1.363 1_565 S
C1058 C1059 1.370 1_565 S
C1058 C1062 1.524 . S
C1059 C1051 1.503 1_545 S
C1059 C1058 1.370 1_545 S
C1059 C1060 1.403 . S
C1060 C1059 1.403 . S
C1060 C1061 1.404 . S
C1060 C1063 1.539 . S
C1061 C1057 1.408 . S
C1061 C1060 1.404 . S
C1061 H1073 0.930 . S
C1062 C1058 1.524 . S
C1062 H1074 0.956 . S
C1062 H1075 0.961 . S
C1062 H1076 0.961 . S
C1063 C1060 1.539 . S
C1063 H1077 0.958 . S
C1063 H1078 0.961 . S
C1063 H1079 0.960 . S
H1064 C1048 0.931 . S
H1065 C1053 0.929 . S
H1066 C1054 0.960 . S
H1067 C1054 0.962 1_565 S
H1068 C1054 0.960 . S
H1069 C1055 0.961 . S
H1070 C1055 0.961 . S
H1071 C1055 0.961 . S
H1072 C1056 0.931 . S
H1073 C1061 0.930 . S
H1074 C1062 0.956 . S
H1075 C1062 0.961 . S
H1076 C1062 0.961 . S
H1077 C1063 0.958 . S
H1078 C1063 0.961 . S
H1079 C1063 0.960 . S
C1080 C1081 1.391 . S
C1080 C1082 1.394 . S
C1080 H1096 0.931 . S
C1081 C1080 1.391 . S
C1081 C1085 1.376 . S
C1082 C1080 1.394 . S
C1082 C1083 1.369 . S
C1082 C1086 1.531 . S
C1083 C1082 1.369 . S
C1083 C1084 1.410 . S
C1083 C1091 1.503 . S
C1084 C1083 1.410 . S
C1084 C1085 1.392 . S
C1084 C1087 1.511 . S
C1085 C1081 1.376 . S
C1085 C1084 1.392 . S
C1085 H1097 0.929 . S
C1086 C1082 1.531 . S
C1086 H1098 0.960 . S
C1086 H1099 0.962 . S
C1086 H1100 0.960 . S
C1087 C1084 1.511 . S
C1087 H1101 0.961 . S
C1087 H1102 0.961 . S
C1087 H1103 0.961 . S
C1088 C1089 1.370 . S
C1088 C1090 1.363 . S
C1088 H1104 0.931 . S
C1089 C1088 1.370 . S
C1089 C1093 1.408 . S
C1090 C1088 1.363 . S
C1090 C1091 1.370 . S
C1090 C1094 1.524 . S
C1091 C1083 1.503 . S
C1091 C1090 1.370 . S
C1091 C1092 1.403 . S
C1092 C1091 1.403 . S
C1092 C1093 1.404 . S
C1092 C1095 1.539 . S
C1093 C1089 1.408 . S
C1093 C1092 1.404 . S
C1093 H1105 0.930 . S
C1094 C1090 1.524 . S
C1094 H1106 0.956 . S
C1094 H1107 0.961 . S
C1094 H1108 0.961 . S
C1095 C1092 1.539 . S
C1095 H1109 0.958 . S
C1095 H1110 0.961 . S
C1095 H1111 0.960 . S
H1096 C1080 0.931 . S
H1097 C1085 0.929 . S
H1098 C1086 0.960 . S
H1099 C1086 0.962 . S
H1100 C1086 0.960 . S
H1101 C1087 0.961 . S
H1102 C1087 0.961 . S
H1103 C1087 0.961 . S
H1104 C1088 0.931 . S
H1105 C1093 0.930 . S
H1106 C1094 0.956 . S
H1107 C1094 0.961 . S
H1108 C1094 0.961 . S
H1109 C1095 0.958 . S
H1110 C1095 0.961 . S
H1111 C1095 0.960 . S
C1112 C1113 1.391 . S
C1112 C1114 1.394 . S
C1112 H1128 0.931 . S
C1113 C1112 1.391 . S
C1113 C1117 1.376 . S
C1114 C1112 1.394 . S
C1114 C1115 1.369 . S
C1114 C1118 1.531 . S
C1115 C1114 1.369 . S
C1115 C1116 1.410 1_655 S
C1115 C1123 1.503 1_655 S
C1116 C1115 1.410 1_455 S
C1116 C1117 1.392 1_455 S
C1116 C1119 1.511 . S
C1117 C1113 1.376 . S
C1117 C1116 1.392 1_655 S
C1117 H1129 0.929 . S
C1118 C1114 1.531 . S
C1118 H1130 0.960 . S
C1118 H1131 0.962 . S
C1118 H1132 0.960 . S
C1119 C1116 1.511 . S
C1119 H1133 0.961 . S
C1119 H1134 0.961 . S
C1119 H1135 0.961 . S
C1120 C1121 1.370 . S
C1120 C1122 1.363 . S
C1120 H1136 0.931 . S
C1121 C1120 1.370 . S
C1121 C1125 1.408 . S
C1122 C1120 1.363 . S
C1122 C1123 1.370 . S
C1122 C1126 1.524 . S
C1123 C1115 1.503 1_455 S
C1123 C1122 1.370 . S
C1123 C1124 1.403 . S
C1124 C1123 1.403 . S
C1124 C1125 1.404 . S
C1124 C1127 1.539 . S
C1125 C1121 1.408 . S
C1125 C1124 1.404 . S
C1125 H1137 0.930 . S
C1126 C1122 1.524 . S
C1126 H1138 0.956 1_455 S
C1126 H1139 0.961 . S
C1126 H1140 0.961 . S
C1127 C1124 1.539 . S
C1127 H1141 0.958 . S
C1127 H1142 0.961 . S
C1127 H1143 0.960 . S
H1128 C1112 0.931 . S
H1129 C1117 0.929 . S
H1130 C1118 0.960 . S
H1131 C1118 0.962 . S
H1132 C1118 0.960 . S
H1133 C1119 0.961 . S
H1134 C1119 0.961 . S
H1135 C1119 0.961 . S
H1136 C1120 0.931 . S
H1137 C1125 0.930 . S
H1138 C1126 0.956 1_655 S
H1139 C1126 0.961 . S
H1140 C1126 0.961 . S
H1141 C1127 0.958 . S
H1142 C1127 0.961 . S
H1143 C1127 0.960 . S
C1144 C1145 1.391 . S
C1144 C1146 1.394 . S
C1144 H1160 0.931 . S
C1145 C1144 1.391 . S
C1145 C1149 1.376 . S
C1146 C1144 1.394 . S
C1146 C1147 1.376 . S
C1146 C1150 1.531 . S
C1147 C1146 1.376 . S
C1147 C1148 1.408 . S
C1147 C1155 1.499 1_565 S
C1148 C1147 1.408 . S
C1148 C1149 1.392 . S
C1148 C1151 1.511 1_565 S
C1149 C1145 1.376 . S
C1149 C1148 1.392 . S
C1149 H1161 0.929 . S
C1150 C1146 1.531 . S
C1150 H1162 0.960 1_565 S
C1150 H1163 0.962 . S
C1150 H1164 0.960 . S
C1151 C1148 1.511 1_545 S
C1151 H1165 0.961 . S
C1151 H1166 0.961 . S
C1151 H1167 0.961 . S
C1152 C1153 1.370 . S
C1152 C1154 1.363 . S
C1152 H1168 0.931 . S
C1153 C1152 1.370 . S
C1153 C1157 1.408 . S
C1154 C1152 1.363 . S
C1154 C1155 1.370 . S
C1154 C1158 1.524 1_545 S
C1155 C1147 1.499 1_545 S
C1155 C1154 1.370 . S
C1155 C1156 1.403 . S
C1156 C1155 1.403 . S
C1156 C1157 1.404 . S
C1156 C1159 1.539 . S
C1157 C1153 1.408 . S
C1157 C1156 1.404 . S
C1157 H1169 0.930 . S
C1158 C1154 1.524 1_565 S
C1158 H1170 0.956 . S
C1158 H1171 0.961 . S
C1158 H1172 0.961 . S
C1159 C1156 1.539 . S
C1159 H1173 0.958 . S
C1159 H1174 0.961 . S
C1159 H1175 0.960 . S
H1160 C1144 0.931 . S
H1161 C1149 0.929 . S
H1162 C1150 0.960 1_545 S
H1163 C1150 0.962 . S
H1164 C1150 0.960 . S
H1165 C1151 0.961 . S
H1166 C1151 0.961 . S
H1167 C1151 0.961 . S
H1168 C1152 0.931 . S
H1169 C1157 0.930 . S
H1170 C1158 0.956 . S
H1171 C1158 0.961 . S
H1172 C1158 0.961 . S
H1173 C1159 0.958 . S
H1174 C1159 0.961 . S
H1175 C1159 0.960 . S
C1176 C1177 1.391 . S
C1176 C1178 1.394 . S
C1176 H1192 0.931 . S
C1177 C1176 1.391 . S
C1177 C1181 1.376 . S
C1178 C1176 1.394 . S
C1178 C1179 1.369 . S
C1178 C1182 1.531 . S
C1179 C1178 1.369 . S
C1179 C1180 1.410 . S
C1179 C1187 1.503 . S
C1180 C1179 1.410 . S
C1180 C1181 1.392 . S
C1180 C1183 1.511 . S
C1181 C1177 1.376 . S
C1181 C1180 1.392 . S
C1181 H1193 0.929 . S
C1182 C1178 1.531 . S
C1182 H1194 0.960 . S
C1182 H1195 0.962 . S
C1182 H1196 0.960 . S
C1183 C1180 1.511 . S
C1183 H1197 0.961 . S
C1183 H1198 0.961 . S
C1183 H1199 0.961 . S
C1184 C1185 1.370 . S
C1184 C1186 1.363 . S
C1184 H1200 0.931 . S
C1185 C1184 1.370 . S
C1185 C1189 1.408 . S
C1186 C1184 1.363 . S
C1186 C1187 1.370 . S
C1186 C1190 1.524 . S
C1187 C1179 1.503 . S
C1187 C1186 1.370 . S
C1187 C1188 1.403 . S
C1188 C1187 1.403 . S
C1188 C1189 1.404 . S
C1188 C1191 1.539 . S
C1189 C1185 1.408 . S
C1189 C1188 1.404 . S
C1189 H1201 0.930 . S
C1190 C1186 1.524 . S
C1190 H1202 0.956 . S
C1190 H1203 0.961 . S
C1190 H1204 0.961 . S
C1191 C1188 1.539 . S
C1191 H1205 0.958 . S
C1191 H1206 0.961 . S
C1191 H1207 0.960 . S
H1192 C1176 0.931 . S
H1193 C1181 0.929 . S
H1194 C1182 0.960 . S
H1195 C1182 0.962 . S
H1196 C1182 0.960 . S
H1197 C1183 0.961 . S
H1198 C1183 0.961 . S
H1199 C1183 0.961 . S
H1200 C1184 0.931 . S
H1201 C1189 0.930 . S
H1202 C1190 0.956 . S
H1203 C1190 0.961 . S
H1204 C1190 0.961 . S
H1205 C1191 0.958 . S
H1206 C1191 0.961 . S
H1207 C1191 0.960 . S
C1208 C1209 1.391 . S
C1208 C1210 1.394 . S
C1208 H1224 0.931 1_554 S
C1209 C1208 1.391 . S
C1209 C1213 1.376 . S
C1210 C1208 1.394 . S
C1210 C1211 1.369 . S
C1210 C1214 1.531 1_655 S
C1211 C1210 1.369 . S
C1211 C1212 1.410 . S
C1211 C1219 1.503 1_655 S
C1212 C1211 1.410 . S
C1212 C1213 1.392 . S
C1212 C1215 1.511 . S
C1213 C1209 1.376 . S
C1213 C1212 1.392 . S
C1213 H1225 0.929 . S
C1214 C1210 1.531 1_455 S
C1214 H1226 0.960 . S
C1214 H1227 0.962 . S
C1214 H1228 0.960 . S
C1215 C1212 1.511 . S
C1215 H1229 0.961 . S
C1215 H1230 0.961 . S
C1215 H1231 0.961 . S
C1216 C1217 1.370 . S
C1216 C1218 1.363 . S
C1216 H1232 0.931 . S
C1217 C1216 1.370 . S
C1217 C1221 1.408 . S
C1218 C1216 1.363 . S
C1218 C1219 1.370 . S
C1218 C1222 1.524 1_455 S
C1219 C1211 1.503 1_455 S
C1219 C1218 1.370 . S
C1219 C1220 1.403 . S
C1220 C1219 1.403 . S
C1220 C1221 1.404 . S
C1220 C1223 1.539 . S
C1221 C1217 1.408 . S
C1221 C1220 1.404 . S
C1221 H1233 0.930 . S
C1222 C1218 1.524 1_655 S
C1222 H1234 0.956 1_655 S
C1222 H1235 0.961 . S
C1222 H1236 0.961 1_655 S
C1223 C1220 1.539 . S
C1223 H1237 0.958 . S
C1223 H1238 0.961 . S
C1223 H1239 0.960 1_455 S
H1224 C1208 0.931 1_556 S
H1225 C1213 0.929 . S
H1226 C1214 0.960 . S
H1227 C1214 0.962 . S
H1228 C1214 0.960 . S
H1229 C1215 0.961 . S
H1230 C1215 0.961 . S
H1231 C1215 0.961 . S
H1232 C1216 0.931 . S
H1233 C1221 0.930 . S
H1234 C1222 0.956 1_455 S
H1235 C1222 0.961 . S
H1236 C1222 0.961 1_455 S
H1237 C1223 0.958 . S
H1238 C1223 0.961 . S
H1239 C1223 0.960 1_655 S
C1240 C1241 1.391 . S
C1240 C1242 1.394 . S
C1240 H1256 0.931 . S
C1241 C1240 1.391 . S
C1241 C1245 1.376 . S
C1242 C1240 1.394 . S
C1242 C1243 1.369 . S
C1242 C1246 1.531 . S
C1243 C1242 1.369 . S
C1243 C1244 1.410 . S
C1243 C1251 1.503 1_565 S
C1244 C1243 1.410 . S
C1244 C1245 1.392 . S
C1244 C1247 1.511 1_565 S
C1245 C1241 1.376 . S
C1245 C1244 1.392 . S
C1245 H1257 0.929 . S
C1246 C1242 1.531 . S
C1246 H1258 0.960 . S
C1246 H1259 0.962 . S
C1246 H1260 0.960 . S
C1247 C1244 1.511 1_545 S
C1247 H1261 0.961 . S
C1247 H1262 0.961 . S
C1247 H1263 0.961 . S
C1248 C1249 1.370 . S
C1248 C1250 1.363 . S
C1248 H1264 0.931 . S
C1249 C1248 1.370 . S
C1249 C1253 1.408 . S
C1250 C1248 1.363 . S
C1250 C1251 1.370 . S
C1250 C1254 1.524 1_545 S
C1251 C1243 1.503 1_545 S
C1251 C1250 1.370 . S
C1251 C1252 1.403 . S
C1252 C1251 1.403 . S
C1252 C1253 1.404 . S
C1252 C1255 1.539 . S
C1253 C1249 1.408 . S
C1253 C1252 1.404 . S
C1253 H1265 0.930 . S
C1254 C1250 1.524 1_565 S
C1254 H1266 0.956 . S
C1254 H1267 0.961 . S
C1254 H1268 0.961 . S
C1255 C1252 1.539 . S
C1255 H1269 0.958 . S
C1255 H1270 0.961 . S
C1255 H1271 0.960 . S
H1256 C1240 0.931 . S
H1257 C1245 0.929 . S
H1258 C1246 0.960 . S
H1259 C1246 0.962 . S
H1260 C1246 0.960 . S
H1261 C1247 0.961 . S
H1262 C1247 0.961 . S
H1263 C1247 0.961 . S
H1264 C1248 0.931 . S
H1265 C1253 0.930 . S
H1266 C1254 0.956 . S
H1267 C1254 0.961 . S
H1268 C1254 0.961 . S
H1269 C1255 0.958 . S
H1270 C1255 0.961 . S
H1271 C1255 0.960 . S
C1272 C1273 1.391 . S
C1272 C1274 1.394 . S
C1272 H1288 0.931 . S
C1273 C1272 1.391 . S
C1273 C1277 1.376 . S
C1274 C1272 1.394 . S
C1274 C1275 1.369 . S
C1274 C1278 1.531 . S
C1275 C1274 1.369 . S
C1275 C1276 1.410 . S
C1275 C1283 1.503 . S
C1276 C1275 1.410 . S
C1276 C1277 1.392 . S
C1276 C1279 1.511 . S
C1277 C1273 1.376 . S
C1277 C1276 1.392 . S
C1277 H1289 0.929 . S
C1278 C1274 1.531 . S
C1278 H1290 0.960 . S
C1278 H1291 0.962 . S
C1278 H1292 0.960 . S
C1279 C1276 1.511 . S
C1279 H1293 0.961 . S
C1279 H1294 0.961 . S
C1279 H1295 0.961 . S
C1280 C1281 1.370 . S
C1280 C1282 1.363 . S
C1280 H1296 0.931 . S
C1281 C1280 1.370 . S
C1281 C1285 1.408 . S
C1282 C1280 1.363 . S
C1282 C1283 1.370 . S
C1282 C1286 1.524 . S
C1283 C1275 1.503 . S
C1283 C1282 1.370 . S
C1283 C1284 1.403 . S
C1284 C1283 1.403 . S
C1284 C1285 1.404 . S
C1284 C1287 1.539 . S
C1285 C1281 1.408 . S
C1285 C1284 1.404 . S
C1285 H1297 0.930 . S
C1286 C1282 1.524 . S
C1286 H1298 0.956 . S
C1286 H1299 0.961 . S
C1286 H1300 0.961 . S
C1287 C1284 1.539 . S
C1287 H1301 0.958 . S
C1287 H1302 0.961 . S
C1287 H1303 0.960 . S
H1288 C1272 0.931 . S
H1289 C1277 0.929 . S
H1290 C1278 0.960 . S
H1291 C1278 0.962 . S
H1292 C1278 0.960 . S
H1293 C1279 0.961 . S
H1294 C1279 0.961 . S
H1295 C1279 0.961 . S
H1296 C1280 0.931 . S
H1297 C1285 0.930 . S
H1298 C1286 0.956 . S
H1299 C1286 0.961 . S
H1300 C1286 0.961 . S
H1301 C1287 0.958 . S
H1302 C1287 0.961 . S
H1303 C1287 0.960 . S
C1304 C1305 1.391 . S
C1304 C1306 1.394 1_655 S
C1304 H1320 0.931 . S
C1305 C1304 1.391 . S
C1305 C1309 1.376 . S
C1306 C1304 1.394 1_455 S
C1306 C1307 1.369 1_455 S
C1306 C1310 1.531 . S
C1307 C1306 1.369 1_655 S
C1307 C1308 1.410 . S
C1307 C1315 1.503 1_655 S
C1308 C1307 1.410 . S
C1308 C1309 1.392 . S
C1308 C1311 1.511 . S
C1309 C1305 1.376 . S
C1309 C1308 1.392 . S
C1309 H1321 0.929 . S
C1310 C1306 1.531 . S
C1310 H1322 0.960 . S
C1310 H1323 0.962 . S
C1310 H1324 0.960 . S
C1311 C1308 1.511 . S
C1311 H1325 0.961 . S
C1311 H1326 0.961 . S
C1311 H1327 0.961 . S
C1312 C1313 1.370 . S
C1312 C1314 1.363 . S
C1312 H1328 0.931 . S
C1313 C1312 1.370 . S
C1313 C1317 1.408 . S
C1314 C1312 1.363 . S
C1314 C1315 1.370 . S
C1314 C1318 1.524 . S
C1315 C1307 1.503 1_455 S
C1315 C1314 1.370 . S
C1315 C1316 1.403 . S
C1316 C1315 1.403 . S
C1316 C1317 1.404 . S
C1316 C1319 1.539 . S
C1317 C1313 1.408 . S
C1317 C1316 1.404 . S
C1317 H1329 0.930 . S
C1318 C1314 1.524 . S
C1318 H1330 0.956 . S
C1318 H1331 0.961 . S
C1318 H1332 0.961 . S
C1319 C1316 1.539 . S
C1319 H1333 0.958 . S
C1319 H1334 0.957 . S
C1319 H1335 0.960 1_455 S
H1320 C1304 0.931 . S
H1321 C1309 0.929 . S
H1322 C1310 0.960 . S
H1323 C1310 0.962 . S
H1324 C1310 0.960 . S
H1325 C1311 0.961 . S
H1326 C1311 0.961 . S
H1327 C1311 0.961 . S
H1328 C1312 0.931 . S
H1329 C1317 0.930 . S
H1330 C1318 0.956 . S
H1331 C1318 0.961 . S
H1332 C1318 0.961 . S
H1333 C1319 0.958 . S
H1334 C1319 0.957 . S
H1335 C1319 0.960 1_655 S
C1336 C1337 1.391 . S
C1336 C1338 1.394 . S
C1336 H1352 0.931 . S
C1337 C1336 1.391 . S
C1337 C1341 1.376 . S
C1338 C1336 1.394 . S
C1338 C1339 1.369 . S
C1338 C1342 1.531 . S
C1339 C1338 1.369 . S
C1339 C1340 1.410 . S
C1339 C1347 1.503 1_545 S
C1340 C1339 1.410 . S
C1340 C1341 1.392 . S
C1340 C1343 1.511 1_545 S
C1341 C1337 1.376 . S
C1341 C1340 1.392 . S
C1341 H1353 0.929 . S
C1342 C1338 1.531 . S
C1342 H1354 0.960 . S
C1342 H1355 0.962 . S
C1342 H1356 0.960 . S
C1343 C1340 1.511 1_565 S
C1343 H1357 0.961 . S
C1343 H1358 0.961 . S
C1343 H1359 0.961 . S
C1344 C1345 1.370 . S
C1344 C1346 1.363 . S
C1344 H1360 0.931 . S
C1345 C1344 1.370 . S
C1345 C1349 1.408 . S
C1346 C1344 1.363 . S
C1346 C1347 1.370 . S
C1346 C1350 1.524 1_565 S
C1347 C1339 1.503 1_565 S
C1347 C1346 1.370 . S
C1347 C1348 1.403 . S
C1348 C1347 1.403 . S
C1348 C1349 1.404 . S
C1348 C1351 1.539 . S
C1349 C1345 1.408 . S
C1349 C1348 1.404 . S
C1349 H1361 0.930 . S
C1350 C1346 1.524 1_545 S
C1350 H1362 0.956 . S
C1350 H1363 0.961 . S
C1350 H1364 0.961 . S
C1351 C1348 1.539 . S
C1351 H1365 0.958 . S
C1351 H1366 0.961 . S
C1351 H1367 0.960 . S
H1352 C1336 0.931 . S
H1353 C1341 0.929 . S
H1354 C1342 0.960 . S
H1355 C1342 0.962 . S
H1356 C1342 0.960 . S
H1357 C1343 0.961 . S
H1358 C1343 0.961 . S
H1359 C1343 0.961 . S
H1360 C1344 0.931 . S
H1361 C1349 0.930 . S
H1362 C1350 0.956 . S
H1363 C1350 0.961 . S
H1364 C1350 0.961 . S
H1365 C1351 0.958 . S
H1366 C1351 0.961 . S
H1367 C1351 0.960 . S
C409 C5 0.808 . S
C417 C277 0.788 1_545 S
C441 C311 0.847 . S
C449 C39 0.824 1_455 S
C473 C345 0.760 1_655 S
C481 C73 0.804 1_545 S
C505 C107 0.756 . S
C513 C379 0.800 1_565 S
C537 C141 0.814 1_655 S
C545 C209 0.824 . S
C569 C175 0.853 1_565 S
C577 C243 0.814 1_455 S
C601 C247 1.490 1_554 S
C609 C33 1.540 . S
C633 C67 1.537 . S
C641 C281 1.515 . S
C665 C315 1.539 . S
C673 C101 1.553 . S
C697 C349 1.536 . S
C705 C135 1.553 . S
C729 C383 1.543 . S
C737 C169 1.555 . S
C761 C213 1.510 . S
C769 C203 1.546 . S
C793 C179 1.532 . S
C801 C237 1.550 . S
C825 C271 1.522 . S
C833 C9 1.505 . S
C857 C305 1.523 . S
C865 C43 1.506 . S
C889 C77 1.507 . S
C897 C339 1.545 . S
C921 C111 1.516 . S
C929 C373 1.546 . S
C953 C145 1.539 . S
C961 C407 1.554 . S
C985 C190 1.292 . S
C993 C2 1.261 . S
C1017 C20 1.268 . S
C1025 C36 1.254 . S
C1049 C70 1.246 . S
C1057 C54 1.272 . S
C1081 C88 1.303 . S
C1089 C104 1.250 . S
C1113 C122 1.303 . S
C1121 C138 1.252 . S
C1145 C156 1.274 . S
C1153 C172 1.271 . S
C1177 C206 1.232 . S
C1185 C258 1.289 . S
C1209 C240 1.283 1_554 S
C1217 C292 1.263 . S
C1241 C274 1.222 . S
C1249 C326 1.286 . S
C1273 C360 1.302 . S
C1281 C308 1.247 . S
C1305 C394 1.246 . S
C1313 C342 1.268 . S
C1337 C376 1.222 . S
C1345 C224 1.285 . S
