# Generated by pormake.
# Topology bsn, (6)-cn, num edge types: 1
# Building blocks:
#     Node 0, Type 0, BuildingBlock: UKALOJ_clean_sbu_0, # of connection points: 6
#     Node 1, Type 0, BuildingBlock: UKALOJ_clean_sbu_0, # of connection points: 6
#     Node 2, Type 0, BuildingBlock: UKALOJ_clean_sbu_0, # of connection points: 6
#     Node 3, Type 0, BuildingBlock: UKALOJ_clean_sbu_0, # of connection points: 6
#     Edge 4, Type (0, 0), BuildingBlock: FUNLAD_clean_linker_1, # of connection points: 2
#     Edge 5, Type (0, 0), BuildingBlock: FUNLAD_clean_linker_1, # of connection points: 2
#     Edge 6, Type (0, 0), BuildingBlock: FUNLAD_clean_linker_1, # of connection points: 2
#     Edge 7, Type (0, 0), BuildingBlock: FUNLAD_clean_linker_1, # of connection points: 2
#     Edge 8, Type (0, 0), BuildingBlock: FUNLAD_clean_linker_1, # of connection points: 2
#     Edge 9, Type (0, 0), BuildingBlock: FUNLAD_clean_linker_1, # of connection points: 2
#     Edge 10, Type (0, 0), BuildingBlock: FUNLAD_clean_linker_1, # of connection points: 2
#     Edge 11, Type (0, 0), BuildingBlock: FUNLAD_clean_linker_1, # of connection points: 2
#     Edge 12, Type (0, 0), BuildingBlock: FUNLAD_clean_linker_1, # of connection points: 2
#     Edge 13, Type (0, 0), BuildingBlock: FUNLAD_clean_linker_1, # of connection points: 2
#     Edge 14, Type (0, 0), BuildingBlock: FUNLAD_clean_linker_1, # of connection points: 2
#     Edge 15, Type (0, 0), BuildingBlock: FUNLAD_clean_linker_1, # of connection points: 2
# Relax obj value: 0.174
# Max RMSD: 0.166
# Mean RMSD: 0.152
data_MOF--net-bsn--node1-UKALOJ_clean_sbu_0--edge1-FUNLAD_clean_linker_1
_symmetry_space_group_name_H-M    P1
_symmetry_Int_Tables_number       1
_symmetry_cell_setting            triclinic
loop_
_symmetry_equiv_pos_as_xyz
'x, y, z'
_cell_length_a     31.885701
_cell_length_b     37.173341
_cell_length_c     15.710188
_cell_angle_alpha  89.8615
_cell_angle_beta   97.554957
_cell_angle_gamma 90.735573
loop_
_atom_site_label
_atom_site_type_symbol
_atom_site_fract_x
_atom_site_fract_y
_atom_site_fract_z
_atom_type_partial_charge
Zn0 Zn 0.04394 0.2998 0.32843 0.0
O1 O 0.97591 0.29525 0.3237 0.0
C2 C 0.05151 0.28031 0.51103 0.0
Zn3 Zn 0.04565 0.23955 0.34582 0.0
C4 C 0.95721 0.26504 0.33065 0.0
O5 O 0.97895 0.23655 0.34089 0.0
C6 C 0.1323 0.27303 0.34196 0.0
O7 O 0.04045 0.23164 0.21228 0.0
O8 O 0.03855 0.29047 0.19511 0.0
N9 N 0.05156 0.18497 0.36973 0.0
C10 C 1.03121 0.1551 0.33602 0.0
C11 C 0.07922 0.13782 0.43413 0.0
N12 N 0.08135 0.17399 0.43067 0.0
N13 N 0.04797 0.12515 0.37529 0.0
C14 C 0.05824 0.38402 0.34488 0.0
C15 C 1.01056 0.40308 0.24834 0.0
N16 N 0.03835 0.35475 0.30672 0.0
N17 N 1.00881 0.36683 0.24665 0.0
N18 N 0.0413 0.41469 0.3097 0.0
H19 H 0.08273 0.39459 0.47573 0.0
H20 H 0.12061 0.39938 0.40169 0.0
H21 H 0.10421 0.35494 0.43198 0.0
C22 C 0.09356 0.38276 0.41772 0.0
C23 C 0.9951 0.15508 0.26475 0.0
H24 H 1.00363 0.13902 0.21024 0.0
H25 H 0.98687 0.18268 0.24251 0.0
H26 H 0.9671 0.14191 0.28719 0.0
O27 O 0.11239 0.24365 0.35013 0.0
O28 O 0.11187 0.30234 0.33226 0.0
C29 C 0.03815 0.25899 0.16334 0.0
O30 O 0.04929 0.30764 0.46214 0.0
O31 O 0.05091 0.24889 0.47909 0.0
Zn32 Zn 1.00819 0.77226 0.37756 0.0
O33 O 1.00513 0.71443 0.37828 0.0
C34 C 0.0536 0.76782 0.55453 0.0
Zn35 Zn 0.07775 0.76714 0.38026 0.0
C36 C 0.03726 0.69498 0.37268 0.0
O37 O 0.07321 0.70999 0.37015 0.0
C38 C 0.04873 0.84432 0.38281 0.0
O39 O 0.06912 0.77145 0.24549 0.0
O40 O 0.99981 0.7714 0.24262 0.0
N41 N 0.14233 0.76615 0.38337 0.0
C42 C 0.17248 0.77781 0.44581 0.0
C43 C 0.20415 0.75617 0.34662 0.0
N44 N 0.16206 0.75293 0.32133 0.0
N45 N 0.2112 0.7719 0.42437 0.0
C46 C 0.92184 0.76498 0.44326 0.0
C47 C 0.88304 0.80051 0.36216 0.0
N48 N 0.94438 0.77565 0.38074 0.0
N49 N 0.91995 0.79739 0.32951 0.0
N50 N 0.88357 0.78029 0.43353 0.0
H51 H 0.96392 0.72381 0.50173 0.0
H52 H 0.9108 0.72206 0.52942 0.0
H53 H 0.94655 0.7563 0.57499 0.0
C54 C 0.93705 0.74024 0.5161 0.0
C55 C 0.16458 0.79622 0.52706 0.0
H56 H 0.19129 0.81432 0.55104 0.0
H57 H 0.16163 0.77567 0.57735 0.0
H58 H 0.13549 0.81241 0.51691 0.0
O59 O 0.0813 0.82466 0.3889 0.0
O60 O 1.01228 0.82952 0.37523 0.0
C61 C 1.0322 0.77204 0.20336 0.0
O62 O 1.01786 0.77432 0.51257 0.0
O63 O 0.08465 0.76172 0.51462 0.0
Zn64 Zn 0.58138 0.83503 0.82366 0.0
O65 O 0.51494 0.83968 0.80586 0.0
C66 C 0.58019 0.81327 0.00465 0.0
Zn67 Zn 0.57208 0.77589 0.83748 0.0
C68 C 0.49057 0.81245 0.80494 0.0
O69 O 0.50607 0.78149 0.82124 0.0
C70 C 0.66253 0.79763 0.83918 0.0
O71 O 0.56924 0.76985 0.70502 0.0
O72 O 0.5786 0.82828 0.68963 0.0
N73 N 0.56516 0.72174 0.85246 0.0
C74 C 0.5842 0.69937 0.91285 0.0
C75 C 0.53662 0.66886 0.83561 0.0
N76 N 0.53575 0.70268 0.80416 0.0
N77 N 0.56675 0.66622 0.90398 0.0
C78 C 0.56801 0.91602 0.85223 0.0
C79 C 0.61706 0.94132 0.7929 0.0
N80 N 0.58804 0.88983 0.81469 0.0
N81 N 0.61842 0.90564 0.77751 0.0
N82 N 0.58557 0.94836 0.83959 0.0
H83 H 0.52743 0.88182 0.9213 0.0
H84 H 0.50377 0.92216 0.87473 0.0
H85 H 0.54161 0.92471 -0.03064 0.0
C86 C 0.53339 0.91033 0.90745 0.0
C87 C 0.61817 0.71002 -0.01591 0.0
H88 H 0.64486 0.69102 -0.01357 0.0
H89 H 0.60537 0.70795 0.04631 0.0
H90 H 0.63038 0.73758 -0.02332 0.0
O91 O 0.63826 0.77078 0.84631 0.0
O92 O 0.64736 0.82914 0.83437 0.0
C93 C 0.57315 0.79691 0.65723 0.0
O94 O 0.58497 0.84048 0.95818 0.0
O95 O 0.57404 0.78254 -0.02971 0.0
Zn96 Zn 0.54146 0.27461 0.28804 0.0
O97 O 0.54953 0.26702 0.42171 0.0
C98 C 0.4553 0.30703 0.29686 0.0
Zn99 Zn 0.54366 0.3343 0.30445 0.0
C100 C 0.55225 0.29445 0.47042 0.0
O101 O 0.55112 0.32598 0.43834 0.0
C102 C 0.53237 0.31364 0.12163 0.0
O103 O 0.61042 0.33302 0.30668 0.0
O104 O 0.60909 0.27458 0.28812 0.0
N105 N 0.54625 0.38892 0.31997 0.0
C106 C 0.5628 0.41466 0.27314 0.0
C107 C 0.52472 0.44081 0.35527 0.0
N108 N 0.52309 0.40528 0.37184 0.0
N109 N 0.54967 0.44754 0.29409 0.0
C110 C 0.56354 0.19404 0.25477 0.0
C111 C 0.50294 0.17485 0.19895 0.0
N112 N 0.53557 0.22033 0.26356 0.0
N113 N 0.49789 0.20798 0.22995 0.0
N114 N 0.54399 0.16558 0.21261 0.0
H115 H 0.61613 0.21277 0.34393 0.0
H116 H 0.6259 0.20981 0.23299 0.0
H117 H 0.62392 0.16977 0.29694 0.0
C118 C 0.61009 0.19675 0.28403 0.0
C119 C 0.58756 0.40726 0.20028 0.0
H120 H 0.5961 0.37876 0.19644 0.0
H121 H 0.61764 0.42278 0.20881 0.0
H122 H 0.56877 0.41539 0.13894 0.0
O123 O 0.53457 0.34098 0.1699 0.0
O124 O 0.53401 0.28244 0.15451 0.0
C125 C 0.62996 0.30403 0.29789 0.0
O126 O 0.47326 0.27701 0.2889 0.0
O127 O 0.47754 0.33564 0.30367 0.0
H128 H 0.07932 0.45706 0.38137 0.0
C129 C 0.0525 0.45161 0.33275 0.0
H130 H 1.00408 0.47441 0.2456 0.0
H131 H 0.04936 0.61292 0.50959 0.0
H132 H 1.02706 0.57465 0.62096 0.0
H133 H 1.00983 0.51053 0.59311 0.0
H134 H 1.01551 0.4841 0.45439 0.0
C135 C 1.03026 0.47952 0.29582 0.0
C136 C 0.04184 0.51811 0.31533 0.0
C137 C 0.03719 0.53343 0.39631 0.0
C138 C 0.04543 0.57088 0.41135 0.0
C139 C 0.04214 0.58503 0.49377 0.0
C140 C 1.02958 0.56331 0.55845 0.0
C141 C 1.02001 0.52718 0.54284 0.0
C142 C 1.02363 0.51229 0.46289 0.0
H143 H 1.00031 0.64413 0.36838 0.0
C144 C 1.0319 0.65532 0.36715 0.0
H145 H 0.09536 0.64386 0.3537 0.0
H146 H 0.05556 0.49761 0.15425 0.0
H147 H 0.07565 0.53636 0.04162 0.0
H148 H 0.08701 0.6015 0.06582 0.0
H149 H 0.0787 0.62826 0.20299 0.0
C150 C 0.06395 0.63295 0.35819 0.0
C151 C 0.05682 0.59334 0.34458 0.0
C152 C 0.06176 0.57798 0.26398 0.0
C153 C 0.05443 0.54044 0.24949 0.0
C154 C 0.05997 0.52599 0.1684 0.0
C155 C 0.07166 0.54791 0.1032 0.0
C156 C 0.07814 0.58456 0.11687 0.0
C157 C 0.07332 0.59956 0.1961 0.0
H158 H 0.71108 0.76295 0.79952 0.0
C159 C 0.70409 0.79087 0.81192 0.0
H160 H 0.71842 0.84507 0.78894 0.0
H161 H 0.84517 0.73206 0.60279 0.0
H162 H 0.86844 0.70821 0.7447 0.0
H163 H 0.84066 0.7324 0.87208 0.0
H164 H 0.78803 0.77944 0.85732 0.0
C165 C 0.72611 0.81719 0.77837 0.0
C166 C 0.7508 0.80902 0.70659 0.0
C167 C 0.78426 0.784 0.71758 0.0
C168 C 0.80314 0.77249 0.64541 0.0
C169 C 0.8324 0.74395 0.65643 0.0
C170 C 0.8456 0.72966 0.73743 0.0
C171 C 0.82978 0.74312 0.80902 0.0
C172 C 0.79939 0.76992 0.79958 0.0
H173 H 0.87535 0.794 0.56425 0.0
C174 C 0.85884 0.78642 0.5017 0.0
H175 H 0.80028 0.77432 0.42916 0.0
H176 H 0.68417 0.85463 0.65908 0.0
H177 H 0.66503 0.88148 0.5196 0.0
H178 H 0.70512 0.86828 0.39969 0.0
H179 H 0.76372 0.82705 0.41811 0.0
C180 C 0.8168 0.78183 0.49164 0.0
C181 C 0.7923 0.78932 0.56422 0.0
C182 C 0.75959 0.81506 0.55358 0.0
C183 C 0.73791 0.82408 0.62406 0.0
C184 C 0.70319 0.84784 0.60951 0.0
C185 C 0.69162 0.86344 0.52933 0.0
C186 C 0.71412 0.85594 0.46179 0.0
C187 C 0.74773 0.83212 0.47336 0.0
H188 H 0.5183 0.494 0.23177 0.0
C189 C 0.54833 0.48015 0.24448 0.0
H190 H 0.61279 0.48115 0.22617 0.0
H191 H 0.56968 0.55708 0.86244 0.0
H192 H 0.59453 0.49891 0.82193 0.0
H193 H 0.61286 0.45178 0.93087 0.0
H194 H 0.60653 0.46266 0.08057 0.0
C195 C 0.58212 0.49351 0.21176 0.0
C196 C 0.57727 0.52373 0.14908 0.0
C197 C 0.58253 0.51735 0.06209 0.0
C198 C 0.5724 0.54459 -0.00059 0.0
C199 C 0.57701 0.5373 0.91267 0.0
C200 C 0.59125 0.50404 0.88852 0.0
C201 C 0.60151 0.4775 0.94981 0.0
C202 C 0.59739 0.48398 0.0356 0.0
H203 H 0.60287 0.63765 0.01035 0.0
C204 C 0.57567 0.63614 0.96083 0.0
H205 H 0.52249 0.60468 0.91029 0.0
H206 H 0.57096 0.54676 0.31226 0.0
H207 H 0.54608 0.60491 0.35283 0.0
H208 H 0.52492 0.65116 0.24316 0.0
H209 H 0.52908 0.63973 0.0927 0.0
C210 C 0.54976 0.60739 0.95919 0.0
C211 C 0.55824 0.57845 0.02425 0.0
C212 C 0.55395 0.58518 0.11157 0.0
C213 C 0.56432 0.55801 0.1743 0.0
C214 C 0.56182 0.56598 0.26159 0.0
C215 C 0.5479 0.59933 0.28582 0.0
C216 C 0.53615 0.62541 0.22414 0.0
C217 C 0.53898 0.61856 0.13796 0.0
H218 H 0.89671 0.23556 0.33161 0.0
C219 C 0.91057 0.26226 0.32704 0.0
H220 H 0.89814 0.31769 0.3118 0.0
H221 H 0.70774 0.29929 0.14416 0.0
H222 H 0.74073 0.32221 0.02419 0.0
H223 H 0.8183 0.32907 0.0349 0.0
H224 H 0.86338 0.31306 0.16562 0.0
C225 C 0.88494 0.29093 0.31907 0.0
C226 C 0.8378 0.28691 0.31369 0.0
C227 C 0.8117 0.29677 0.2371 0.0
C228 C 0.76682 0.29303 0.23104 0.0
C229 C 0.74182 0.30224 0.15293 0.0
C230 C 0.76038 0.31525 0.08332 0.0
C231 C 0.80405 0.31909 0.08934 0.0
C232 C 0.82956 0.30989 0.16495 0.0
H233 H 0.69161 0.33205 0.30251 0.0
C234 C 0.6765 0.3056 0.29886 0.0
H235 H 0.68669 0.2496 0.2968 0.0
H236 H 0.87745 0.2693 0.47373 0.0
H237 H 0.84425 0.24611 0.59296 0.0
H238 H 0.76688 0.2376 0.58042 0.0
H239 H 0.72209 0.2526 0.44852 0.0
C240 C 0.70075 0.27635 0.29679 0.0
C241 C 0.74787 0.27969 0.30185 0.0
C242 C 0.77389 0.26973 0.3783 0.0
C243 C 0.81875 0.27384 0.3848 0.0
C244 C 0.84349 0.26551 0.46383 0.0
C245 C 0.8248 0.25245 0.53322 0.0
C246 C 0.78122 0.24771 0.52621 0.0
C247 C 0.75589 0.25636 0.45001 0.0
H248 H 0.39623 0.33668 0.30104 0.0
C249 C 0.40913 0.30979 0.29907 0.0
H250 H 0.39519 0.25418 0.30317 0.0
H251 H 0.23164 0.28091 0.4871 0.0
H252 H 0.27971 0.25645 0.60457 0.0
H253 H 0.35419 0.2451 0.58811 0.0
H254 H 0.38129 0.25849 0.45416 0.0
C255 C 0.38283 0.28131 0.30112 0.0
C256 C 0.33688 0.28634 0.30866 0.0
C257 C 0.32111 0.2774 0.38649 0.0
C258 C 0.27773 0.28314 0.39531 0.0
C259 C 0.26369 0.27576 0.4755 0.0
C260 C 0.2911 0.26204 0.54388 0.0
C261 C 0.33308 0.25572 0.53466 0.0
C262 C 0.34816 0.26343 0.45728 0.0
H263 H 0.19323 0.24536 0.34771 0.0
C264 C 0.1787 0.27171 0.34142 0.0
H265 H 0.18925 0.3271 0.32229 0.0
H266 H 0.35573 0.30459 0.149 0.0
H267 H 0.30797 0.32997 0.03217 0.0
H268 H 0.23323 0.34064 0.04794 0.0
H269 H 0.20548 0.32526 0.17988 0.0
C270 C 0.20334 0.30069 0.33167 0.0
C271 C 0.24964 0.29684 0.32531 0.0
C272 C 0.26557 0.30623 0.24785 0.0
C273 C 0.30902 0.3007 0.23926 0.0
C274 C 0.32345 0.30913 0.15999 0.0
C275 C 0.29628 0.32348 0.09209 0.0
C276 C 0.25415 0.32937 0.10087 0.0
C277 C 0.2387 0.32059 0.17728 0.0
H278 H 0.43472 0.84332 0.75278 0.0
C279 C 0.44635 0.81625 0.76629 0.0
H280 H 0.43763 0.76117 0.73694 0.0
H281 H 0.25789 0.83968 0.56566 0.0
H282 H 0.2484 0.85932 0.70966 0.0
H283 H 0.30286 0.84688 0.8327 0.0
H284 H 0.36747 0.81613 0.81192 0.0
C285 C 0.42461 0.78804 0.72896 0.0
C286 C 0.38974 0.7935 0.65785 0.0
C287 C 0.3512 0.80919 0.67304 0.0
C288 C 0.31831 0.8136 0.60382 0.0
C289 C 0.28199 0.83295 0.61803 0.0
C290 C 0.27662 0.84485 0.69985 0.0
C291 C 0.30739 0.83805 0.76898 0.0
C292 C 0.3444 0.8205 0.75609 0.0
H293 H 0.2512 0.76518 0.54571 0.0
C294 C 0.25034 0.77503 0.48025 0.0
H295 H 0.28286 0.80383 0.39312 0.0
H296 H 0.46317 0.77071 0.60253 0.0
H297 H 0.47238 0.75365 0.45739 0.0
H298 H 0.41262 0.75573 0.34062 0.0
H299 H 0.34346 0.7757 0.36803 0.0
C300 C 0.28376 0.79327 0.45783 0.0
C301 C 0.32218 0.79878 0.52201 0.0
C302 C 0.36185 0.78593 0.50512 0.0
C303 C 0.39594 0.78378 0.573 0.0
C304 C 0.43581 0.77203 0.55399 0.0
C305 C 0.4416 0.76224 0.47083 0.0
C306 C 0.40796 0.76347 0.40507 0.0
C307 C 0.3684 0.77494 0.42172 0.0
H308 H 0.54435 0.98429 0.8985 0.0
C309 C 0.57528 0.98182 0.8771 0.0
H310 H 0.6359 1.00611 0.88053 0.0
H311 H 0.54048 0.15224 -0.02723 0.0
H312 H 0.54555 0.16427 0.8225 0.0
H313 H 0.57309 0.11847 0.73153 0.0
H314 H 0.59592 0.06031 0.79058 0.0
C315 C 0.60419 1.0079 0.89814 0.0
C316 C 0.59413 1.0375 0.95531 0.0
C317 C 0.58142 0.07131 0.92021 0.0
C318 C 0.56528 0.09754 -0.0274 0.0
C319 C 0.55255 0.13114 0.93571 0.0
C320 C 0.55541 0.13844 0.84959 0.0
C321 C 0.57093 0.11265 0.79837 0.0
C322 C 0.58382 0.07941 0.83292 0.0
H323 H 0.59677 0.13118 0.18988 0.0
C324 C 0.56312 0.13589 0.17379 0.0
H325 H 0.50799 0.12165 0.09052 0.0
H326 H 0.62172 0.97724 0.04505 0.0
H327 H 0.61678 0.96491 0.19526 0.0
H328 H 0.58601 1.00931 0.28494 0.0
H329 H 0.56037 0.06636 0.2253 0.0
C330 C 0.54109 0.11604 0.11141 0.0
C331 C 0.56198 0.08981 0.06001 0.0
C332 C 0.5765 0.05653 0.09612 0.0
C333 C 0.59316 1.03054 0.04388 0.0
C334 C 0.60792 0.99761 0.08148 0.0
C335 C 0.60543 0.99025 0.16765 0.0
C336 C 0.5882 1.01528 0.21817 0.0
C337 C 0.57376 0.04803 0.18316 0.0
H338 H 0.08602 0.89495 0.39001 0.0
C339 C 0.054 0.88396 0.38368 0.0
H340 H 0.98897 0.89623 0.37304 0.0
H341 H 1.02389 0.05071 0.54199 0.0
H342 H 0.99744 1.01816 0.65834 0.0
H343 H 0.98469 0.9526 0.64908 0.0
H344 H 0.99811 0.91919 0.52323 0.0
C345 C 1.02116 0.90665 0.37677 0.0
C346 C 1.02791 0.94652 0.3806 0.0
C347 C 1.01969 0.96577 0.4543 0.0
C348 C 1.02758 1.00355 0.46008 0.0
C349 C 1.01905 1.02196 0.53465 0.0
C350 C 1.00372 1.00363 0.60182 0.0
C351 C 0.99648 0.96673 0.59656 0.0
C352 C 1.00429 0.94788 0.52387 0.0
H353 H 1.00938 0.08145 0.31044 0.0
C354 C 0.03577 0.0879 0.35928 0.0
H355 H 0.08197 0.06712 0.45464 0.0
H356 H 0.04233 0.91874 0.22617 0.0
H357 H 0.06999 0.95096 0.11073 0.0
H358 H 0.08703 1.0158 0.12354 0.0
H359 H 0.07594 0.04895 0.25117 0.0
C360 C 0.05641 0.06092 0.40385 0.0
C361 C 0.04373 1.0222 0.39219 0.0
C362 C 0.05117 1.00306 0.31761 0.0
C363 C 0.0427 0.96531 0.31137 0.0
C364 C 0.04931 0.94713 0.23526 0.0
C365 C 0.06501 0.96533 0.16834 0.0
C366 C 0.0745 1.00186 0.17547 0.0
C367 C 0.06781 1.02062 0.24908 0.0
H368 H 0.03388 0.22677 0.04483 0.0
C369 C 0.0365 0.254 0.0703 0.0
H370 H 0.0448 0.30912 0.04208 0.0
H371 H 0.12903 0.26906 0.7104 0.0
H372 H 0.19181 0.28418 0.80926 0.0
H373 H 0.18701 0.2956 0.96224 0.0
H374 H 0.11942 0.29241 0.01725 0.0
C375 C 0.04019 0.28188 0.01737 0.0
C376 C 0.04257 0.27586 0.9251 0.0
C377 C 0.08222 0.27868 0.89398 0.0
C378 C 0.08496 0.27216 0.8059 0.0
C379 C 0.12508 0.27426 0.77658 0.0
C380 C 0.16138 0.28277 0.8327 0.0
C381 C 0.15868 0.28925 0.91883 0.0
C382 C 0.11967 0.2873 0.94953 0.0
H383 H 0.05561 0.31247 0.62965 0.0
C384 C 0.05335 0.28524 0.60414 0.0
H385 H 0.04619 0.22998 0.63244 0.0
H386 H 0.96146 0.27 0.96404 0.0
H387 H 0.89889 0.25389 0.86567 0.0
H388 H 0.90386 0.24159 0.71312 0.0
H389 H 0.97133 0.24561 0.65777 0.0
C390 C 0.05031 0.25726 0.65712 0.0
C391 C 0.04797 0.26315 0.74945 0.0
C392 C 1.00837 0.2601 0.78068 0.0
C393 C 1.00559 0.26676 0.86868 0.0
C394 C 0.96548 0.26457 0.898 0.0
C395 C 0.92928 0.25551 0.84215 0.0
C396 C 0.93206 0.24864 0.75622 0.0
C397 C 0.97102 0.25097 0.72537 0.0
H398 H 0.08886 0.75706 0.68195 0.0
C399 C 0.05931 0.76722 0.64863 0.0
H400 H 1.00076 0.7913 0.66185 0.0
H401 H 0.05159 0.70874 0.03566 0.0
H402 H 0.03498 0.65369 0.95484 0.0
H403 H 1.01744 0.65519 0.7971 0.0
H404 H 1.01696 0.71168 0.71931 0.0
C405 C 1.02946 0.7792 0.69372 0.0
C406 C 0.03624 0.77848 0.78864 0.0
C407 C 0.03521 0.74527 0.8329 0.0
C408 C 0.044 0.74453 0.92378 0.0
C409 C 0.04416 0.71093 -0.03336 0.0
C410 C 0.03482 0.67911 0.92103 0.0
C411 C 1.02505 0.67995 0.83223 0.0
C412 C 1.02514 0.71255 0.78833 0.0
H413 H 0.99462 0.77084 0.07534 0.0
C414 C 1.02656 0.77307 0.10924 0.0
H415 H 0.09155 0.77993 0.09702 0.0
H416 H 0.03951 0.84661 0.72258 0.0
H417 H 0.05415 0.90184 0.80389 0.0
H418 H 0.06819 0.9006 0.96218 0.0
H419 H 0.0678 0.84409 0.04004 0.0
C420 C 0.05945 0.77656 0.06473 0.0
C421 C 0.05249 0.77709 -0.03013 0.0
C422 C 0.05299 0.81031 0.92573 0.0
C423 C 0.0447 0.81103 0.83476 0.0
C424 C 0.04543 0.84455 0.79184 0.0
C425 C 0.05381 0.87644 0.83771 0.0
C426 C 0.06172 0.87575 0.92682 0.0
C427 C 0.06138 0.84315 -0.02931 0.0
H428 H 0.58496 0.84465 0.12426 0.0
C429 C 0.58076 0.8177 0.09743 0.0
H430 H 0.57222 0.76238 0.12385 0.0
H431 H 0.65137 0.78577 0.5137 0.0
H432 H 0.70832 0.75403 0.45949 0.0
H433 H 0.70588 0.74169 0.30473 0.0
H434 H 0.6458 0.76014 0.20344 0.0
C435 C 0.5754 0.78966 0.14884 0.0
C436 C 0.57557 0.79511 0.24198 0.0
C437 C 0.61098 0.78425 0.29978 0.0
C438 C 0.61256 0.79167 0.38867 0.0
C439 C 0.64832 0.7806 0.44543 0.0
C440 C 0.68136 0.7625 0.41514 0.0
C441 C 0.67998 0.75553 0.328 0.0
C442 C 0.64533 0.76629 0.27061 0.0
H443 H 0.56539 0.76402 0.5402 0.0
C444 C 0.57199 0.7911 0.56493 0.0
H445 H 0.58602 0.84498 0.53384 0.0
H446 H 0.50033 0.81441 0.14899 0.0
H447 H 0.44122 0.84252 0.20449 0.0
H448 H 0.44446 0.85632 0.35882 0.0
H449 H 0.5069 0.84219 0.45842 0.0
C450 C 0.57994 0.81756 0.51134 0.0
C451 C 0.57866 0.80994 0.41887 0.0
C452 C 0.54249 0.81946 0.36156 0.0
C453 C 0.54077 0.81176 0.27281 0.0
C454 C 0.50367 0.82035 0.21694 0.0
C455 C 0.46941 0.8363 0.24802 0.0
C456 C 0.47122 0.84407 0.33489 0.0
C457 C 0.50728 0.83587 0.39132 0.0
H458 H 0.55995 0.26248 0.58955 0.0
C459 C 0.55416 0.28936 0.56347 0.0
H460 H 0.53945 0.34314 0.58998 0.0
H461 H 0.48058 0.24917 0.9172 0.0
H462 H 0.42882 0.22046 0.81118 0.0
H463 H 0.42775 0.23351 0.6569 0.0
H464 H 0.47832 0.27521 0.60782 0.0
C465 C 0.54526 0.31613 0.61507 0.0
C466 C 0.54376 0.30994 0.7079 0.0
C467 C 0.5128 0.28636 0.73541 0.0
C468 C 0.51273 0.27954 0.82436 0.0
C469 C 0.482 0.25545 0.85035 0.0
C470 C 0.452 0.23884 0.7902 0.0
C471 C 0.45141 0.24617 0.70337 0.0
C472 C 0.48106 0.26987 0.67598 0.0
H473 H 0.52491 0.3451 0.00173 0.0
C474 C 0.53093 0.3184 0.02863 0.0
H475 H 0.54678 0.26466 0.00419 0.0
H476 H 0.60635 0.35744 0.67623 0.0
H477 H 0.65827 0.38594 0.78236 0.0
H478 H 0.65905 0.37311 0.9367 0.0
H479 H 0.60774 0.33205 -0.01426 0.0
C480 C 0.54063 0.29149 -0.0218 0.0
C481 C 0.54252 0.29728 0.88542 0.0
C482 C 0.57354 0.32077 0.85797 0.0
C483 C 0.57373 0.3275 0.76901 0.0
C484 C 0.60475 0.35131 0.7431 0.0
C485 C 0.63485 0.36779 0.80332 0.0
C486 C 0.63523 0.36064 0.8902 0.0
C487 C 0.60525 0.33724 0.91753 0.0
loop_
_geom_bond_atom_site_label_1
_geom_bond_atom_site_label_2
_geom_bond_distance
_geom_bond_site_symmetry_2
_ccdc_geom_bond_type
Zn0 O1 2.055 1_455 S
Zn0 O8 2.046 . S
Zn0 N16 2.036 . S
Zn0 O28 2.053 . S
Zn0 O30 2.066 . S
O1 Zn0 2.055 1_655 S
O1 C4 1.259 . S
C2 O30 1.256 . S
C2 O31 1.244 . S
Zn3 O5 2.046 1_455 S
Zn3 O7 2.055 . S
Zn3 N9 2.036 . S
Zn3 O27 2.066 . S
Zn3 O31 2.053 . S
C4 O1 1.259 . S
C4 O5 1.254 . S
O5 Zn3 2.046 1_655 S
O5 C4 1.254 . S
C6 O27 1.256 . S
C6 O28 1.244 . S
O7 Zn3 2.055 . S
O7 C29 1.259 . S
O8 Zn0 2.046 . S
O8 C29 1.254 . S
N9 Zn3 2.036 . S
N9 C10 1.298 . S
N9 N12 1.398 . S
C10 N9 1.298 . S
C10 N13 1.367 . S
C10 C23 1.481 . S
C11 N12 1.299 . S
C11 N13 1.379 . S
N12 N9 1.398 . S
N12 C11 1.299 . S
N13 C10 1.367 . S
N13 C11 1.379 . S
C14 N16 1.298 . S
C14 N18 1.367 . S
C14 C22 1.481 1_455 S
C15 N17 1.299 . S
C15 N18 1.379 . S
N16 Zn0 2.036 . S
N16 C14 1.298 . S
N16 N17 1.398 . S
N17 C15 1.299 . S
N17 N16 1.398 . S
N18 C14 1.367 . S
N18 C15 1.379 . S
H19 C22 0.980 . S
H20 C22 0.981 . S
H21 C22 0.981 . S
C22 C14 1.481 1_655 S
C22 H19 0.980 . S
C22 H20 0.981 . S
C22 H21 0.981 . S
C23 C10 1.481 . S
C23 H24 0.980 . S
C23 H25 0.981 . S
C23 H26 0.981 . S
H24 C23 0.980 . S
H25 C23 0.981 . S
H26 C23 0.981 . S
O27 Zn3 2.066 . S
O27 C6 1.256 . S
O28 Zn0 2.053 . S
O28 C6 1.244 . S
C29 O7 1.259 . S
C29 O8 1.254 . S
O30 Zn0 2.066 . S
O30 C2 1.256 . S
O31 C2 1.244 . S
O31 Zn3 2.053 . S
Zn32 O33 2.055 . S
Zn32 O40 2.046 . S
Zn32 N48 2.036 . S
Zn32 O60 2.053 . S
Zn32 O62 2.066 . S
O33 Zn32 2.055 . S
O33 C36 1.259 1_655 S
C34 O62 1.256 1_455 S
C34 O63 1.244 . S
Zn35 O37 2.046 . S
Zn35 O39 2.055 . S
Zn35 N41 2.036 . S
Zn35 O59 2.066 . S
Zn35 O63 2.053 . S
C36 O33 1.259 1_455 S
C36 O37 1.254 . S
O37 Zn35 2.046 . S
O37 C36 1.254 . S
C38 O59 1.256 . S
C38 O60 1.244 1_455 S
O39 Zn35 2.055 . S
O39 C61 1.259 . S
O40 Zn32 2.046 . S
O40 C61 1.254 1_655 S
N41 Zn35 2.036 . S
N41 C42 1.298 . S
N41 N44 1.398 . S
C42 N41 1.298 . S
C42 N45 1.367 . S
C42 C55 1.481 . S
C43 N44 1.299 . S
C43 N45 1.379 . S
N44 N41 1.398 . S
N44 C43 1.299 . S
N45 C42 1.367 . S
N45 C43 1.379 . S
C46 N48 1.298 . S
C46 N50 1.367 . S
C46 C54 1.481 . S
C47 N49 1.299 . S
C47 N50 1.379 . S
N48 Zn32 2.036 . S
N48 C46 1.298 . S
N48 N49 1.398 . S
N49 C47 1.299 . S
N49 N48 1.398 . S
N50 C46 1.367 . S
N50 C47 1.379 . S
H51 C54 0.980 . S
H52 C54 0.981 . S
H53 C54 0.981 . S
C54 C46 1.481 . S
C54 H51 0.980 . S
C54 H52 0.981 . S
C54 H53 0.981 . S
C55 C42 1.481 . S
C55 H56 0.980 . S
C55 H57 0.981 . S
C55 H58 0.981 . S
H56 C55 0.980 . S
H57 C55 0.981 . S
H58 C55 0.981 . S
O59 Zn35 2.066 . S
O59 C38 1.256 . S
O60 Zn32 2.053 . S
O60 C38 1.244 1_655 S
C61 O39 1.259 . S
C61 O40 1.254 1_455 S
O62 Zn32 2.066 . S
O62 C34 1.256 1_655 S
O63 C34 1.244 . S
O63 Zn35 2.053 . S
Zn64 O65 2.055 . S
Zn64 O72 2.046 . S
Zn64 N80 2.036 . S
Zn64 O92 2.053 . S
Zn64 O94 2.066 . S
O65 Zn64 2.055 . S
O65 C68 1.259 . S
C66 O94 1.256 1_554 S
C66 O95 1.244 1_554 S
Zn67 O69 2.046 . S
Zn67 O71 2.055 . S
Zn67 N73 2.036 . S
Zn67 O91 2.066 . S
Zn67 O95 2.053 . S
C68 O65 1.259 . S
C68 O69 1.254 . S
O69 Zn67 2.046 . S
O69 C68 1.254 . S
C70 O91 1.256 . S
C70 O92 1.244 . S
O71 Zn67 2.055 . S
O71 C93 1.259 . S
O72 Zn64 2.046 . S
O72 C93 1.254 . S
N73 Zn67 2.036 . S
N73 C74 1.298 . S
N73 N76 1.398 . S
C74 N73 1.298 . S
C74 N77 1.367 . S
C74 C87 1.481 . S
C75 N76 1.299 . S
C75 N77 1.379 . S
N76 N73 1.398 . S
N76 C75 1.299 . S
N77 C74 1.367 . S
N77 C75 1.379 . S
C78 N80 1.298 . S
C78 N82 1.367 . S
C78 C86 1.481 . S
C79 N81 1.299 . S
C79 N82 1.379 . S
N80 Zn64 2.036 . S
N80 C78 1.298 . S
N80 N81 1.398 . S
N81 C79 1.299 . S
N81 N80 1.398 . S
N82 C78 1.367 . S
N82 C79 1.379 . S
H83 C86 0.980 . S
H84 C86 0.981 . S
H85 C86 0.981 . S
C86 C78 1.481 . S
C86 H83 0.980 . S
C86 H84 0.981 . S
C86 H85 0.981 . S
C87 C74 1.481 . S
C87 H88 0.980 . S
C87 H89 0.981 . S
C87 H90 0.981 . S
H88 C87 0.980 . S
H89 C87 0.981 . S
H90 C87 0.981 . S
O91 Zn67 2.066 . S
O91 C70 1.256 . S
O92 Zn64 2.053 . S
O92 C70 1.244 . S
C93 O71 1.259 . S
C93 O72 1.254 . S
O94 Zn64 2.066 . S
O94 C66 1.256 1_556 S
O95 C66 1.244 1_556 S
O95 Zn67 2.053 . S
Zn96 O97 2.055 . S
Zn96 O104 2.046 . S
Zn96 N112 2.036 . S
Zn96 O124 2.053 . S
Zn96 O126 2.066 . S
O97 Zn96 2.055 . S
O97 C100 1.259 . S
C98 O126 1.256 . S
C98 O127 1.244 . S
Zn99 O101 2.046 . S
Zn99 O103 2.055 . S
Zn99 N105 2.036 . S
Zn99 O123 2.066 . S
Zn99 O127 2.053 . S
C100 O97 1.259 . S
C100 O101 1.254 . S
O101 Zn99 2.046 . S
O101 C100 1.254 . S
C102 O123 1.256 1_556 S
C102 O124 1.244 1_556 S
O103 Zn99 2.055 . S
O103 C125 1.259 . S
O104 Zn96 2.046 . S
O104 C125 1.254 . S
N105 Zn99 2.036 . S
N105 C106 1.298 . S
N105 N108 1.398 . S
C106 N105 1.298 . S
C106 N109 1.367 . S
C106 C119 1.481 . S
C107 N108 1.299 . S
C107 N109 1.379 . S
N108 N105 1.398 . S
N108 C107 1.299 . S
N109 C106 1.367 . S
N109 C107 1.379 . S
C110 N112 1.298 . S
C110 N114 1.367 . S
C110 C118 1.481 . S
C111 N113 1.299 . S
C111 N114 1.379 . S
N112 Zn96 2.036 . S
N112 C110 1.298 . S
N112 N113 1.398 . S
N113 C111 1.299 . S
N113 N112 1.398 . S
N114 C110 1.367 . S
N114 C111 1.379 . S
H115 C118 0.980 . S
H116 C118 0.981 . S
H117 C118 0.981 . S
C118 C110 1.481 . S
C118 H115 0.980 . S
C118 H116 0.981 . S
C118 H117 0.981 . S
C119 C106 1.481 . S
C119 H120 0.980 . S
C119 H121 0.981 . S
C119 H122 0.981 . S
H120 C119 0.980 . S
H121 C119 0.981 . S
H122 C119 0.981 . S
O123 Zn99 2.066 . S
O123 C102 1.256 1_554 S
O124 Zn96 2.053 . S
O124 C102 1.244 1_554 S
C125 O103 1.259 . S
C125 O104 1.254 . S
O126 Zn96 2.066 . S
O126 C98 1.256 . S
O127 C98 1.244 . S
O127 Zn99 2.053 . S
H128 C129 0.951 . S
C129 H128 0.951 . S
C129 C135 1.265 . S
H130 C135 0.950 1_655 S
H131 C139 0.949 . S
H132 C140 0.950 . S
H133 C141 0.951 . S
H134 C142 0.951 . S
C135 C129 1.265 . S
C135 H130 0.950 1_455 S
C135 C136 1.478 . S
C136 C135 1.478 . S
C136 C137 1.389 1_455 S
C136 C153 1.394 . S
C137 C136 1.389 1_655 S
C137 C138 1.436 1_655 S
C137 C142 1.438 . S
C138 C137 1.436 1_455 S
C138 C139 1.428 1_455 S
C138 C151 1.394 . S
C139 H131 0.949 . S
C139 C138 1.428 1_655 S
C139 C140 1.345 . S
C140 H132 0.950 . S
C140 C139 1.345 . S
C140 C141 1.424 . S
C141 H133 0.951 . S
C141 C140 1.424 . S
C141 C142 1.347 . S
C142 H134 0.951 . S
C142 C137 1.438 . S
C142 C141 1.347 . S
H143 C144 0.951 1_655 S
C144 H143 0.951 1_455 S
C144 C150 1.265 . S
H145 C150 0.950 . S
H146 C154 0.949 . S
H147 C155 0.950 . S
H148 C156 0.951 . S
H149 C157 0.951 . S
C150 C144 1.265 . S
C150 H145 0.950 . S
C150 C151 1.478 . S
C151 C138 1.394 . S
C151 C150 1.478 . S
C151 C152 1.397 . S
C152 C151 1.397 . S
C152 C153 1.438 . S
C152 C157 1.429 . S
C153 C136 1.394 . S
C153 C152 1.438 . S
C153 C154 1.428 . S
C154 H146 0.949 . S
C154 C153 1.428 . S
C154 C155 1.345 . S
C155 H147 0.950 . S
C155 C154 1.345 . S
C155 C156 1.424 . S
C156 H148 0.951 . S
C156 C155 1.424 . S
C156 C157 1.347 . S
C157 H149 0.951 . S
C157 C152 1.429 . S
C157 C156 1.347 . S
H158 C159 0.951 . S
C159 H158 0.951 . S
C159 C165 1.265 . S
H160 C165 0.950 . S
H161 C169 0.949 . S
H162 C170 0.950 . S
H163 C171 0.951 . S
H164 C172 0.951 . S
C165 C159 1.265 . S
C165 H160 0.950 . S
C165 C166 1.478 . S
C166 C165 1.478 . S
C166 C167 1.397 . S
C166 C183 1.394 . S
C167 C166 1.397 . S
C167 C168 1.438 . S
C167 C172 1.429 . S
C168 C167 1.438 . S
C168 C169 1.428 . S
C168 C181 1.394 . S
C169 H161 0.949 . S
C169 C168 1.428 . S
C169 C170 1.345 . S
C170 H162 0.950 . S
C170 C169 1.345 . S
C170 C171 1.424 . S
C171 H163 0.951 . S
C171 C170 1.424 . S
C171 C172 1.347 . S
C172 H164 0.951 . S
C172 C167 1.429 . S
C172 C171 1.347 . S
H173 C174 0.951 . S
C174 H173 0.951 . S
C174 C180 1.265 . S
H175 C180 0.950 . S
H176 C184 0.949 . S
H177 C185 0.950 . S
H178 C186 0.951 . S
H179 C187 0.951 . S
C180 C174 1.265 . S
C180 H175 0.950 . S
C180 C181 1.478 . S
C181 C168 1.394 . S
C181 C180 1.478 . S
C181 C182 1.397 . S
C182 C181 1.397 . S
C182 C183 1.438 . S
C182 C187 1.429 . S
C183 C166 1.394 . S
C183 C182 1.438 . S
C183 C184 1.428 . S
C184 H176 0.949 . S
C184 C183 1.428 . S
C184 C185 1.345 . S
C185 H177 0.950 . S
C185 C184 1.345 . S
C185 C186 1.424 . S
C186 H178 0.951 . S
C186 C185 1.424 . S
C186 C187 1.347 . S
C187 H179 0.951 . S
C187 C182 1.429 . S
C187 C186 1.347 . S
H188 C189 0.951 . S
C189 H188 0.951 . S
C189 C195 1.265 . S
H190 C195 0.950 . S
H191 C199 0.949 . S
H192 C200 0.950 . S
H193 C201 0.951 . S
H194 C202 0.951 . S
C195 C189 1.265 . S
C195 H190 0.950 . S
C195 C196 1.478 . S
C196 C195 1.478 . S
C196 C197 1.397 1_554 S
C196 C213 1.394 . S
C197 C196 1.397 1_556 S
C197 C198 1.438 . S
C197 C202 1.429 . S
C198 C197 1.438 . S
C198 C199 1.428 . S
C198 C211 1.394 . S
C199 H191 0.949 . S
C199 C198 1.428 . S
C199 C200 1.345 . S
C200 H192 0.950 . S
C200 C199 1.345 . S
C200 C201 1.424 . S
C201 H193 0.951 . S
C201 C200 1.424 . S
C201 C202 1.347 . S
C202 H194 0.951 . S
C202 C197 1.429 . S
C202 C201 1.347 . S
H203 C204 0.951 . S
C204 H203 0.951 . S
C204 C210 1.265 . S
H205 C210 0.950 . S
H206 C214 0.949 . S
H207 C215 0.950 . S
H208 C216 0.951 . S
H209 C217 0.951 . S
C210 C204 1.265 . S
C210 H205 0.950 . S
C210 C211 1.478 . S
C211 C198 1.394 . S
C211 C210 1.478 . S
C211 C212 1.397 1_556 S
C212 C211 1.397 1_554 S
C212 C213 1.438 . S
C212 C217 1.429 . S
C213 C196 1.394 . S
C213 C212 1.438 . S
C213 C214 1.428 . S
C214 H206 0.949 . S
C214 C213 1.428 . S
C214 C215 1.345 . S
C215 H207 0.950 . S
C215 C214 1.345 . S
C215 C216 1.424 . S
C216 H208 0.951 . S
C216 C215 1.424 . S
C216 C217 1.347 . S
C217 H209 0.951 . S
C217 C212 1.429 . S
C217 C216 1.347 . S
H218 C219 0.951 . S
C219 H218 0.951 . S
C219 C225 1.265 . S
H220 C225 0.950 . S
H221 C229 0.949 . S
H222 C230 0.950 . S
H223 C231 0.951 . S
H224 C232 0.951 . S
C225 C219 1.265 . S
C225 H220 0.950 . S
C225 C226 1.478 . S
C226 C225 1.478 . S
C226 C227 1.397 . S
C226 C243 1.394 . S
C227 C226 1.397 . S
C227 C228 1.438 . S
C227 C232 1.429 . S
C228 C227 1.438 . S
C228 C229 1.428 . S
C228 C241 1.394 . S
C229 H221 0.949 . S
C229 C228 1.428 . S
C229 C230 1.345 . S
C230 H222 0.950 . S
C230 C229 1.345 . S
C230 C231 1.424 . S
C231 H223 0.951 . S
C231 C230 1.424 . S
C231 C232 1.347 . S
C232 H224 0.951 . S
C232 C227 1.429 . S
C232 C231 1.347 . S
H233 C234 0.951 . S
C234 H233 0.951 . S
C234 C240 1.265 . S
H235 C240 0.950 . S
H236 C244 0.949 . S
H237 C245 0.950 . S
H238 C246 0.951 . S
H239 C247 0.951 . S
C240 C234 1.265 . S
C240 H235 0.950 . S
C240 C241 1.478 . S
C241 C228 1.394 . S
C241 C240 1.478 . S
C241 C242 1.397 . S
C242 C241 1.397 . S
C242 C243 1.438 . S
C242 C247 1.429 . S
C243 C226 1.394 . S
C243 C242 1.438 . S
C243 C244 1.428 . S
C244 H236 0.949 . S
C244 C243 1.428 . S
C244 C245 1.345 . S
C245 H237 0.950 . S
C245 C244 1.345 . S
C245 C246 1.424 . S
C246 H238 0.951 . S
C246 C245 1.424 . S
C246 C247 1.347 . S
C247 H239 0.951 . S
C247 C242 1.429 . S
C247 C246 1.347 . S
H248 C249 0.951 . S
C249 H248 0.951 . S
C249 C255 1.265 . S
H250 C255 0.950 . S
H251 C259 0.949 . S
H252 C260 0.950 . S
H253 C261 0.951 . S
H254 C262 0.951 . S
C255 C249 1.265 . S
C255 H250 0.950 . S
C255 C256 1.478 . S
C256 C255 1.478 . S
C256 C257 1.397 . S
C256 C273 1.394 . S
C257 C256 1.397 . S
C257 C258 1.438 . S
C257 C262 1.429 . S
C258 C257 1.438 . S
C258 C259 1.428 . S
C258 C271 1.394 . S
C259 H251 0.949 . S
C259 C258 1.428 . S
C259 C260 1.345 . S
C260 H252 0.950 . S
C260 C259 1.345 . S
C260 C261 1.424 . S
C261 H253 0.951 . S
C261 C260 1.424 . S
C261 C262 1.347 . S
C262 H254 0.951 . S
C262 C257 1.429 . S
C262 C261 1.347 . S
H263 C264 0.951 . S
C264 H263 0.951 . S
C264 C270 1.265 . S
H265 C270 0.950 . S
H266 C274 0.949 . S
H267 C275 0.950 . S
H268 C276 0.951 . S
H269 C277 0.951 . S
C270 C264 1.265 . S
C270 H265 0.950 . S
C270 C271 1.478 . S
C271 C258 1.394 . S
C271 C270 1.478 . S
C271 C272 1.397 . S
C272 C271 1.397 . S
C272 C273 1.438 . S
C272 C277 1.429 . S
C273 C256 1.394 . S
C273 C272 1.438 . S
C273 C274 1.428 . S
C274 H266 0.949 . S
C274 C273 1.428 . S
C274 C275 1.345 . S
C275 H267 0.950 . S
C275 C274 1.345 . S
C275 C276 1.424 . S
C276 H268 0.951 . S
C276 C275 1.424 . S
C276 C277 1.347 . S
C277 H269 0.951 . S
C277 C272 1.429 . S
C277 C276 1.347 . S
H278 C279 0.951 . S
C279 H278 0.951 . S
C279 C285 1.265 . S
H280 C285 0.950 . S
H281 C289 0.949 . S
H282 C290 0.950 . S
H283 C291 0.951 . S
H284 C292 0.951 . S
C285 C279 1.265 . S
C285 H280 0.950 . S
C285 C286 1.478 . S
C286 C285 1.478 . S
C286 C287 1.397 . S
C286 C303 1.394 . S
C287 C286 1.397 . S
C287 C288 1.438 . S
C287 C292 1.429 . S
C288 C287 1.438 . S
C288 C289 1.428 . S
C288 C301 1.394 . S
C289 H281 0.949 . S
C289 C288 1.428 . S
C289 C290 1.345 . S
C290 H282 0.950 . S
C290 C289 1.345 . S
C290 C291 1.424 . S
C291 H283 0.951 . S
C291 C290 1.424 . S
C291 C292 1.347 . S
C292 H284 0.951 . S
C292 C287 1.429 . S
C292 C291 1.347 . S
H293 C294 0.951 . S
C294 H293 0.951 . S
C294 C300 1.265 . S
H295 C300 0.950 . S
H296 C304 0.949 . S
H297 C305 0.950 . S
H298 C306 0.951 . S
H299 C307 0.951 . S
C300 C294 1.265 . S
C300 H295 0.950 . S
C300 C301 1.478 . S
C301 C288 1.394 . S
C301 C300 1.478 . S
C301 C302 1.397 . S
C302 C301 1.397 . S
C302 C303 1.438 . S
C302 C307 1.429 . S
C303 C286 1.394 . S
C303 C302 1.438 . S
C303 C304 1.428 . S
C304 H296 0.949 . S
C304 C303 1.428 . S
C304 C305 1.345 . S
C305 H297 0.950 . S
C305 C304 1.345 . S
C305 C306 1.424 . S
C306 H298 0.951 . S
C306 C305 1.424 . S
C306 C307 1.347 . S
C307 H299 0.951 . S
C307 C302 1.429 . S
C307 C306 1.347 . S
H308 C309 0.951 . S
C309 H308 0.951 . S
C309 C315 1.265 . S
H310 C315 0.950 . S
H311 C319 0.949 . S
H312 C320 0.950 . S
H313 C321 0.951 . S
H314 C322 0.951 1_565 S
C315 C309 1.265 . S
C315 H310 0.950 . S
C315 C316 1.478 . S
C316 C315 1.478 . S
C316 C317 1.397 1_565 S
C316 C333 1.394 1_556 S
C317 C316 1.397 1_545 S
C317 C318 1.438 . S
C317 C322 1.429 . S
C318 C317 1.438 . S
C318 C319 1.428 . S
C318 C331 1.394 1_556 S
C319 H311 0.949 . S
C319 C318 1.428 . S
C319 C320 1.345 . S
C320 H312 0.950 . S
C320 C319 1.345 . S
C320 C321 1.424 . S
C321 H313 0.951 . S
C321 C320 1.424 . S
C321 C322 1.347 . S
C322 H314 0.951 1_545 S
C322 C317 1.429 . S
C322 C321 1.347 . S
H323 C324 0.951 . S
C324 H323 0.951 . S
C324 C330 1.265 . S
H325 C330 0.950 . S
H326 C334 0.949 . S
H327 C335 0.950 . S
H328 C336 0.951 . S
H329 C337 0.964 . S
C330 C324 1.265 . S
C330 H325 0.950 . S
C330 C331 1.478 . S
C331 C318 1.394 1_554 S
C331 C330 1.478 . S
C331 C332 1.397 . S
C332 C331 1.397 . S
C332 C333 1.438 1_545 S
C332 C337 1.430 . S
C333 C316 1.394 1_554 S
C333 C332 1.438 1_565 S
C333 C334 1.428 . S
C334 H326 0.949 . S
C334 C333 1.428 . S
C334 C335 1.345 . S
C335 H327 0.950 . S
C335 C334 1.345 . S
C335 C336 1.424 . S
C336 H328 0.951 . S
C336 C335 1.424 . S
C336 C337 1.333 1_565 S
C337 H329 0.964 . S
C337 C332 1.430 . S
C337 C336 1.333 1_545 S
H338 C339 0.951 . S
C339 H338 0.951 . S
C339 C345 1.265 . S
H340 C345 0.950 1_655 S
H341 C349 0.949 . S
H342 C350 0.936 1_545 S
H343 C351 0.951 . S
H344 C352 0.951 . S
C345 C339 1.265 . S
C345 H340 0.950 1_455 S
C345 C346 1.478 . S
C346 C345 1.478 . S
C346 C347 1.397 1_455 S
C346 C363 1.394 . S
C347 C346 1.397 1_655 S
C347 C348 1.438 1_655 S
C347 C352 1.429 . S
C348 C347 1.438 1_455 S
C348 C349 1.428 1_465 S
C348 C361 1.394 . S
C349 H341 0.949 . S
C349 C348 1.428 1_645 S
C349 C350 1.341 1_545 S
C350 H342 0.936 1_565 S
C350 C349 1.341 1_565 S
C350 C351 1.442 . S
C351 H343 0.951 . S
C351 C350 1.442 . S
C351 C352 1.347 . S
C352 H344 0.951 . S
C352 C347 1.429 . S
C352 C351 1.347 . S
H353 C354 0.951 . S
C354 H353 0.951 . S
C354 C360 1.265 . S
H355 C360 0.950 . S
H356 C364 0.949 . S
H357 C365 0.950 . S
H358 C366 0.951 . S
H359 C367 0.951 . S
C360 C354 1.265 . S
C360 H355 0.950 . S
C360 C361 1.478 1_545 S
C361 C348 1.394 . S
C361 C360 1.478 1_565 S
C361 C362 1.397 . S
C362 C361 1.397 . S
C362 C363 1.438 . S
C362 C367 1.429 . S
C363 C346 1.394 . S
C363 C362 1.438 . S
C363 C364 1.428 . S
C364 H356 0.949 . S
C364 C363 1.428 . S
C364 C365 1.345 . S
C365 H357 0.950 . S
C365 C364 1.345 . S
C365 C366 1.424 . S
C366 H358 0.951 . S
C366 C365 1.424 . S
C366 C367 1.347 . S
C367 H359 0.951 . S
C367 C362 1.429 . S
C367 C366 1.347 . S
H368 C369 0.951 1_655 S
C369 H368 0.951 1_455 S
C369 C375 1.265 . S
H370 C375 0.950 . S
H371 C379 0.949 . S
H372 C380 0.950 . S
H373 C381 0.951 . S
H374 C382 0.951 1_554 S
C375 C369 1.265 . S
C375 H370 0.950 . S
C375 C376 1.478 1_554 S
C376 C375 1.478 1_556 S
C376 C377 1.397 . S
C376 C393 1.394 . S
C377 C376 1.397 . S
C377 C378 1.438 . S
C377 C382 1.429 . S
C378 C377 1.438 . S
C378 C379 1.428 . S
C378 C391 1.394 . S
C379 H371 0.949 . S
C379 C378 1.428 . S
C379 C380 1.345 . S
C380 H372 0.950 . S
C380 C379 1.345 . S
C380 C381 1.424 . S
C381 H373 0.951 . S
C381 C380 1.424 . S
C381 C382 1.347 . S
C382 H374 0.951 1_556 S
C382 C377 1.429 . S
C382 C381 1.347 . S
H383 C384 0.951 . S
C384 H383 0.951 . S
C384 C390 1.265 . S
H385 C390 0.950 1_655 S
H386 C394 0.949 1_554 S
H387 C395 0.950 . S
H388 C396 0.951 . S
H389 C397 0.951 . S
C390 C384 1.265 . S
C390 H385 0.950 1_455 S
C390 C391 1.478 . S
C391 C378 1.394 . S
C391 C390 1.478 . S
C391 C392 1.397 . S
C392 C391 1.397 . S
C392 C393 1.438 . S
C392 C397 1.429 1_455 S
C393 C376 1.394 . S
C393 C392 1.438 . S
C393 C394 1.428 . S
C394 H386 0.949 1_556 S
C394 C393 1.428 . S
C394 C395 1.345 1_455 S
C395 H387 0.950 . S
C395 C394 1.345 1_655 S
C395 C396 1.424 . S
C396 H388 0.951 . S
C396 C395 1.424 . S
C396 C397 1.347 . S
C397 H389 0.951 . S
C397 C392 1.429 1_655 S
C397 C396 1.347 . S
H398 C399 0.951 . S
C399 H398 0.951 . S
C399 C405 1.265 1_455 S
H400 C405 0.950 . S
H401 C409 0.949 . S
H402 C410 0.950 . S
H403 C411 0.951 . S
H404 C412 0.951 1_556 S
C405 C399 1.265 1_655 S
C405 H400 0.950 . S
C405 C406 1.478 1_655 S
C406 C405 1.478 1_455 S
C406 C407 1.397 1_456 S
C406 C423 1.394 1_556 S
C407 C406 1.397 1_654 S
C407 C408 1.438 1_655 S
C407 C412 1.429 . S
C408 C407 1.438 1_455 S
C408 C409 1.428 . S
C408 C421 1.394 . S
C409 H401 0.949 . S
C409 C408 1.428 . S
C409 C410 1.345 1_455 S
C410 H402 0.950 . S
C410 C409 1.345 1_655 S
C410 C411 1.424 . S
C411 H403 0.951 . S
C411 C410 1.424 . S
C411 C412 1.347 . S
C412 H404 0.951 1_554 S
C412 C407 1.429 . S
C412 C411 1.347 . S
H413 C414 0.951 1_655 S
C414 H413 0.951 1_455 S
C414 C420 1.265 . S
H415 C420 0.950 . S
H416 C424 0.949 . S
H417 C425 0.945 1_556 S
H418 C426 0.951 . S
H419 C427 0.951 . S
C420 C414 1.265 . S
C420 H415 0.950 . S
C420 C421 1.478 . S
C421 C408 1.394 . S
C421 C420 1.478 . S
C421 C422 1.397 . S
C422 C421 1.397 . S
C422 C423 1.438 . S
C422 C427 1.429 . S
C423 C406 1.394 1_554 S
C423 C422 1.438 . S
C423 C424 1.428 1_554 S
C424 H416 0.949 . S
C424 C423 1.428 1_556 S
C424 C425 1.343 1_556 S
C425 H417 0.945 1_554 S
C425 C424 1.343 1_554 S
C425 C426 1.430 . S
C426 H418 0.951 . S
C426 C425 1.430 . S
C426 C427 1.347 . S
C427 H419 0.951 . S
C427 C422 1.429 . S
C427 C426 1.347 . S
H428 C429 0.951 . S
C429 H428 0.951 . S
C429 C435 1.265 . S
H430 C435 0.950 . S
H431 C439 0.949 . S
H432 C440 0.950 . S
H433 C441 0.951 . S
H434 C442 0.951 . S
C435 C429 1.265 . S
C435 H430 0.950 . S
C435 C436 1.478 . S
C436 C435 1.478 . S
C436 C437 1.397 . S
C436 C453 1.394 . S
C437 C436 1.397 . S
C437 C438 1.438 . S
C437 C442 1.429 . S
C438 C437 1.438 . S
C438 C439 1.428 . S
C438 C451 1.394 . S
C439 H431 0.949 . S
C439 C438 1.428 . S
C439 C440 1.345 . S
C440 H432 0.950 . S
C440 C439 1.345 . S
C440 C441 1.424 . S
C441 H433 0.951 . S
C441 C440 1.424 . S
C441 C442 1.347 . S
C442 H434 0.951 . S
C442 C437 1.429 . S
C442 C441 1.347 . S
H443 C444 0.951 . S
C444 H443 0.951 . S
C444 C450 1.265 . S
H445 C450 0.950 . S
H446 C454 0.949 . S
H447 C455 0.950 . S
H448 C456 0.951 . S
H449 C457 0.951 . S
C450 C444 1.265 . S
C450 H445 0.950 . S
C450 C451 1.478 . S
C451 C438 1.394 . S
C451 C450 1.478 . S
C451 C452 1.397 . S
C452 C451 1.397 . S
C452 C453 1.438 . S
C452 C457 1.429 . S
C453 C436 1.394 . S
C453 C452 1.438 . S
C453 C454 1.428 . S
C454 H446 0.949 . S
C454 C453 1.428 . S
C454 C455 1.345 . S
C455 H447 0.950 . S
C455 C454 1.345 . S
C455 C456 1.424 . S
C456 H448 0.951 . S
C456 C455 1.424 . S
C456 C457 1.347 . S
C457 H449 0.951 . S
C457 C452 1.429 . S
C457 C456 1.347 . S
H458 C459 0.951 . S
C459 H458 0.951 . S
C459 C465 1.265 . S
H460 C465 0.950 . S
H461 C469 0.949 . S
H462 C470 0.950 . S
H463 C471 0.951 . S
H464 C472 0.951 . S
C465 C459 1.265 . S
C465 H460 0.950 . S
C465 C466 1.478 . S
C466 C465 1.478 . S
C466 C467 1.397 . S
C466 C483 1.394 . S
C467 C466 1.397 . S
C467 C468 1.438 . S
C467 C472 1.429 . S
C468 C467 1.438 . S
C468 C469 1.428 . S
C468 C481 1.394 . S
C469 H461 0.949 . S
C469 C468 1.428 . S
C469 C470 1.345 . S
C470 H462 0.950 . S
C470 C469 1.345 . S
C470 C471 1.424 . S
C471 H463 0.951 . S
C471 C470 1.424 . S
C471 C472 1.347 . S
C472 H464 0.951 . S
C472 C467 1.429 . S
C472 C471 1.347 . S
H473 C474 0.951 . S
C474 H473 0.951 . S
C474 C480 1.265 . S
H475 C480 0.950 . S
H476 C484 0.949 . S
H477 C485 0.950 . S
H478 C486 0.951 . S
H479 C487 0.951 . S
C480 C474 1.265 . S
C480 H475 0.950 . S
C480 C481 1.478 . S
C481 C468 1.394 . S
C481 C480 1.478 . S
C481 C482 1.397 . S
C482 C481 1.397 . S
C482 C483 1.438 . S
C482 C487 1.429 . S
C483 C466 1.394 . S
C483 C482 1.438 . S
C483 C484 1.428 . S
C484 H476 0.949 . S
C484 C483 1.428 . S
C484 C485 1.345 . S
C485 H477 0.950 . S
C485 C484 1.345 . S
C485 C486 1.424 . S
C486 H478 0.951 . S
C486 C485 1.424 . S
C486 C487 1.347 . S
C487 H479 0.951 . S
C487 C482 1.429 . S
C487 C486 1.347 . S
C129 N18 2.290 . S
C144 C36 2.265 . S
C159 C70 1.296 . S
C174 N50 1.339 . S
C189 N109 1.203 . S
C204 N77 1.205 . S
C219 C4 2.053 . S
C234 C125 2.050 . S
C249 C98 2.671 . S
C264 C6 2.671 . S
C279 C68 0.776 . S
C294 N45 0.756 . S
C309 N82 1.123 . S
C324 N114 0.923 . S
C339 C38 2.540 . S
C354 N13 2.376 . S
C369 C29 0.965 . S
C384 C2 0.981 . S
C399 C34 1.000 . S
C414 C61 0.989 . S
C429 C66 1.009 . S
C444 C93 1.019 . S
C459 C100 0.965 . S
C474 C102 0.982 . S
