# Generated by pormake.
# Topology ukt, (4)-cn, num edge types: 1
# Building blocks:
#     Node 0, Type 0, BuildingBlock: KUFVIS_clean_sbu_0, # of connection points: 4
#     Node 1, Type 0, BuildingBlock: KUFVIS_clean_sbu_0, # of connection points: 4
#     Node 2, Type 0, BuildingBlock: KUFVIS_clean_sbu_0, # of connection points: 4
#     Node 3, Type 0, BuildingBlock: KUFVIS_clean_sbu_0, # of connection points: 4
#     Node 4, Type 0, BuildingBlock: KUFVIS_clean_sbu_0, # of connection points: 4
#     Node 5, Type 0, BuildingBlock: KUFVIS_clean_sbu_0, # of connection points: 4
#     Node 6, Type 0, BuildingBlock: KUFVIS_clean_sbu_0, # of connection points: 4
#     Node 7, Type 0, BuildingBlock: KUFVIS_clean_sbu_0, # of connection points: 4
#     Node 8, Type 0, BuildingBlock: KUFVIS_clean_sbu_0, # of connection points: 4
#     Node 9, Type 0, BuildingBlock: KUFVIS_clean_sbu_0, # of connection points: 4
#     Node 10, Type 0, BuildingBlock: KUFVIS_clean_sbu_0, # of connection points: 4
#     Node 11, Type 0, BuildingBlock: KUFVIS_clean_sbu_0, # of connection points: 4
#     Node 12, Type 0, BuildingBlock: KUFVIS_clean_sbu_0, # of connection points: 4
#     Node 13, Type 0, BuildingBlock: KUFVIS_clean_sbu_0, # of connection points: 4
#     Node 14, Type 0, BuildingBlock: KUFVIS_clean_sbu_0, # of connection points: 4
#     Node 15, Type 0, BuildingBlock: KUFVIS_clean_sbu_0, # of connection points: 4
#     Edge 16, Type (0, 0), BuildingBlock: UVAHIK_clean_linker_0, # of connection points: 2
#     Edge 17, Type (0, 0), BuildingBlock: UVAHIK_clean_linker_0, # of connection points: 2
#     Edge 18, Type (0, 0), BuildingBlock: UVAHIK_clean_linker_0, # of connection points: 2
#     Edge 19, Type (0, 0), BuildingBlock: UVAHIK_clean_linker_0, # of connection points: 2
#     Edge 20, Type (0, 0), BuildingBlock: UVAHIK_clean_linker_0, # of connection points: 2
#     Edge 21, Type (0, 0), BuildingBlock: UVAHIK_clean_linker_0, # of connection points: 2
#     Edge 22, Type (0, 0), BuildingBlock: UVAHIK_clean_linker_0, # of connection points: 2
#     Edge 23, Type (0, 0), BuildingBlock: UVAHIK_clean_linker_0, # of connection points: 2
#     Edge 24, Type (0, 0), BuildingBlock: UVAHIK_clean_linker_0, # of connection points: 2
#     Edge 25, Type (0, 0), BuildingBlock: UVAHIK_clean_linker_0, # of connection points: 2
#     Edge 26, Type (0, 0), BuildingBlock: UVAHIK_clean_linker_0, # of connection points: 2
#     Edge 27, Type (0, 0), BuildingBlock: UVAHIK_clean_linker_0, # of connection points: 2
#     Edge 28, Type (0, 0), BuildingBlock: UVAHIK_clean_linker_0, # of connection points: 2
#     Edge 29, Type (0, 0), BuildingBlock: UVAHIK_clean_linker_0, # of connection points: 2
#     Edge 30, Type (0, 0), BuildingBlock: UVAHIK_clean_linker_0, # of connection points: 2
#     Edge 31, Type (0, 0), BuildingBlock: UVAHIK_clean_linker_0, # of connection points: 2
#     Edge 32, Type (0, 0), BuildingBlock: UVAHIK_clean_linker_0, # of connection points: 2
#     Edge 33, Type (0, 0), BuildingBlock: UVAHIK_clean_linker_0, # of connection points: 2
#     Edge 34, Type (0, 0), BuildingBlock: UVAHIK_clean_linker_0, # of connection points: 2
#     Edge 35, Type (0, 0), BuildingBlock: UVAHIK_clean_linker_0, # of connection points: 2
#     Edge 36, Type (0, 0), BuildingBlock: UVAHIK_clean_linker_0, # of connection points: 2
#     Edge 37, Type (0, 0), BuildingBlock: UVAHIK_clean_linker_0, # of connection points: 2
#     Edge 38, Type (0, 0), BuildingBlock: UVAHIK_clean_linker_0, # of connection points: 2
#     Edge 39, Type (0, 0), BuildingBlock: UVAHIK_clean_linker_0, # of connection points: 2
#     Edge 40, Type (0, 0), BuildingBlock: UVAHIK_clean_linker_0, # of connection points: 2
#     Edge 41, Type (0, 0), BuildingBlock: UVAHIK_clean_linker_0, # of connection points: 2
#     Edge 42, Type (0, 0), BuildingBlock: UVAHIK_clean_linker_0, # of connection points: 2
#     Edge 43, Type (0, 0), BuildingBlock: UVAHIK_clean_linker_0, # of connection points: 2
#     Edge 44, Type (0, 0), BuildingBlock: UVAHIK_clean_linker_0, # of connection points: 2
#     Edge 45, Type (0, 0), BuildingBlock: UVAHIK_clean_linker_0, # of connection points: 2
#     Edge 46, Type (0, 0), BuildingBlock: UVAHIK_clean_linker_0, # of connection points: 2
#     Edge 47, Type (0, 0), BuildingBlock: UVAHIK_clean_linker_0, # of connection points: 2
# Relax obj value: 0.285
# Max RMSD: 0.185
# Mean RMSD: 0.185
data_MOF--net-ukt--node1-KUFVIS_clean_sbu_0--edge1-UVAHIK_clean_linker_0
_symmetry_space_group_name_H-M    P1
_symmetry_Int_Tables_number       1
_symmetry_cell_setting            triclinic
loop_
_symmetry_equiv_pos_as_xyz
'x, y, z'
_cell_length_a     53.527279
_cell_length_b     53.549353
_cell_length_c     45.366243
_cell_angle_alpha  89.963059
_cell_angle_beta   89.970643
_cell_angle_gamma 89.981257
loop_
_atom_site_label
_atom_site_type_symbol
_atom_site_fract_x
_atom_site_fract_y
_atom_site_fract_z
_atom_type_partial_charge
Mn0 Mn 0.54466 0.12763 0.09736 0.0
Mn1 Mn 0.59116 0.1485 0.1412 0.0
C2 C 0.58473 0.11278 0.09096 0.0
C3 C 0.51373 0.09898 0.08595 0.0
C4 C 0.57105 0.17776 0.08911 0.0
O5 O 0.52541 0.14447 0.13045 0.0
O6 O 0.55798 0.15577 0.15901 0.0
C7 C 0.58312 0.11353 0.19087 0.0
N8 N 0.59853 0.12371 0.17022 0.0
C9 C 0.63331 0.09921 0.18737 0.0
C10 C 0.61788 0.08868 0.20906 0.0
C11 C 0.59265 0.0958 0.21073 0.0
C12 C 0.62276 0.1168 0.16822 0.0
H13 H 0.56369 0.11884 0.19209 0.0
C14 C 0.53452 0.15437 0.15361 0.0
O15 O 0.51379 0.12116 0.0743 0.0
O16 O 0.53006 0.09458 0.10642 0.0
N17 N 0.62441 0.14285 0.1272 0.0
C18 C 0.63652 0.15403 0.10429 0.0
C19 C 0.66179 0.14851 0.09914 0.0
C20 C 0.67445 0.13187 0.11783 0.0
C21 C 0.66171 0.12088 0.14153 0.0
C22 C 0.63656 0.12718 0.14566 0.0
H23 H 0.62693 0.16694 0.08992 0.0
O24 O 0.5684 0.11119 0.07002 0.0
O25 O 0.57709 0.12256 0.11566 0.0
O26 O 0.55472 0.16178 0.08118 0.0
O27 O 0.58532 0.17479 0.11142 0.0
C28 C 0.67285 0.10359 0.16093 0.0
C29 C 0.65863 0.09269 0.18375 0.0
H30 H 0.62514 0.07495 0.22437 0.0
H31 H 0.58058 0.08762 0.22727 0.0
H32 H 0.6715 0.15708 0.08081 0.0
H33 H 0.69392 0.1276 0.11371 0.0
H34 H 0.69226 0.09832 0.15827 0.0
H35 H 0.66732 0.07918 0.19827 0.0
Mn36 Mn 0.35861 0.55423 0.08493 0.0
Mn37 Mn 0.33184 0.60987 0.09915 0.0
C38 C 0.37356 0.58984 0.06261 0.0
C39 C 0.38894 0.52389 0.09222 0.0
C40 C 0.31112 0.57408 0.05464 0.0
O41 O 0.33854 0.54601 0.12167 0.0
O42 O 0.3188 0.5829 0.12517 0.0
C43 C 0.35526 0.61544 0.15793 0.0
N44 N 0.35078 0.62456 0.1304 0.0
C45 C 0.37451 0.66173 0.14057 0.0
C46 C 0.37928 0.65279 0.16907 0.0
C47 C 0.36966 0.62951 0.17776 0.0
C48 C 0.36017 0.64681 0.12173 0.0
H49 H 0.34793 0.59757 0.16473 0.0
C50 C 0.32201 0.56015 0.13306 0.0
O51 O 0.36814 0.51874 0.07874 0.0
O52 O 0.3907 0.54578 0.10423 0.0
N53 N 0.34197 0.63818 0.0763 0.0
C54 C 0.33494 0.64455 0.04842 0.0
C55 C 0.34265 0.6675 0.03652 0.0
C56 C 0.35705 0.68392 0.05362 0.0
C57 C 0.36347 0.6773 0.08254 0.0
C58 C 0.35513 0.65422 0.09326 0.0
H59 H 0.32377 0.63208 0.03524 0.0
O60 O 0.37754 0.56808 0.05122 0.0
O61 O 0.36126 0.59044 0.08745 0.0
O62 O 0.32604 0.55619 0.06092 0.0
O63 O 0.31233 0.59577 0.06635 0.0
C64 C 0.37786 0.69267 0.10115 0.0
C65 C 0.38347 0.68484 0.1301 0.0
H66 H 0.39033 0.66361 0.18445 0.0
H67 H 0.37331 0.62245 0.19969 0.0
H68 H 0.3375 0.67252 0.01423 0.0
H69 H 0.363 0.70159 0.04434 0.0
H70 H 0.38474 0.71053 0.09339 0.0
H71 H 0.39462 0.69678 0.14417 0.0
Mn72 Mn 0.95414 0.36263 0.07896 0.0
Mn73 Mn 0.90191 0.34256 0.11328 0.0
C74 C 0.91549 0.37153 0.05917 0.0
C75 C 0.98348 0.39368 0.07059 0.0
C76 C 0.93478 0.30922 0.07547 0.0
O77 O 0.96734 0.35228 0.1193 0.0
O78 O 0.93064 0.3424 0.14093 0.0
C79 C 0.8959 0.38483 0.15467 0.0
N80 N 0.88644 0.37004 0.13298 0.0
C81 C 0.84747 0.39243 0.1333 0.0
C82 C 0.85669 0.40775 0.15587 0.0
C83 C 0.88105 0.40398 0.16653 0.0
C84 C 0.86312 0.37362 0.1224 0.0
H85 H 0.91465 0.38208 0.16278 0.0
C86 C 0.95439 0.34527 0.14143 0.0
O87 O 0.98809 0.37061 0.06346 0.0
O88 O 0.96321 0.39792 0.08539 0.0
N89 N 0.87248 0.34174 0.08937 0.0
C90 C 0.8667 0.32586 0.06692 0.0
C91 C 0.8432 0.32757 0.05331 0.0
C92 C 0.82577 0.34531 0.0632 0.0
C93 C 0.83194 0.36108 0.08675 0.0
C94 C 0.85562 0.35846 0.09952 0.0
H95 H 0.87999 0.31214 0.05928 0.0
O96 O 0.9354 0.3726 0.04307 0.0
O97 O 0.91872 0.36594 0.08683 0.0
O98 O 0.95047 0.32589 0.06763 0.0
O99 O 0.91642 0.31337 0.09286 0.0
C100 C 0.81569 0.37955 0.09777 0.0
C101 C 0.82348 0.39528 0.12095 0.0
H102 H 0.84532 0.42259 0.16501 0.0
H103 H 0.88836 0.41583 0.1838 0.0
H104 H 0.83855 0.31528 0.0352 0.0
H105 H 0.80774 0.34672 0.05248 0.0
H106 H 0.79726 0.382 0.08838 0.0
H107 H 0.81094 0.40963 0.12897 0.0
Mn108 Mn 0.1381 0.93779 0.08129 0.0
Mn109 Mn 0.16211 0.88866 0.11823 0.0
C110 C 0.12268 0.89826 0.07313 0.0
C111 C 0.10865 0.96899 0.07442 0.0
C112 C 0.18679 0.91075 0.06463 0.0
O113 O 0.1569 0.95529 0.11429 0.0
O114 O 0.17373 0.92091 0.13487 0.0
C115 C 0.13426 0.89753 0.17363 0.0
N116 N 0.14072 0.88208 0.15105 0.0
C117 C 0.11637 0.84846 0.1714 0.0
C118 C 0.10955 0.86397 0.19497 0.0
C119 C 0.11847 0.88863 0.19604 0.0
C120 C 0.13207 0.8584 0.14968 0.0
H121 H 0.14109 0.91648 0.17451 0.0
C122 C 0.17133 0.94464 0.13276 0.0
O123 O 0.13014 0.96979 0.06111 0.0
O124 O 0.10563 0.95168 0.09413 0.0
N125 N 0.15313 0.85601 0.10491 0.0
C126 C 0.16146 0.84354 0.08063 0.0
C127 C 0.15433 0.81859 0.07627 0.0
C128 C 0.13914 0.80658 0.09718 0.0
C129 C 0.13116 0.81967 0.12224 0.0
C130 C 0.13899 0.84446 0.12549 0.0
H131 H 0.17337 0.85261 0.06466 0.0
O132 O 0.12003 0.9157 0.05365 0.0
O133 O 0.13407 0.90436 0.09749 0.0
O134 O 0.17141 0.9288 0.06138 0.0
O135 O 0.18457 0.89403 0.08456 0.0
C136 C 0.11558 0.80917 0.14401 0.0
C137 C 0.10809 0.8236 0.1685 0.0
H138 H 0.09739 0.85717 0.21231 0.0
H139 H 0.11322 0.90074 0.2141 0.0
H140 H 0.16061 0.80859 0.05692 0.0
H141 H 0.13379 0.7873 0.09378 0.0
H142 H 0.10909 0.79009 0.14201 0.0
H143 H 0.09595 0.81539 0.18497 0.0
Mn144 Mn 0.55594 0.36118 0.40027 0.0
Mn145 Mn 0.60387 0.32725 0.373 0.0
C146 C 0.59633 0.37154 0.41241 0.0
C147 C 0.52846 0.3946 0.39871 0.0
C148 C 0.57338 0.31086 0.42534 0.0
O149 O 0.53898 0.34184 0.36735 0.0
O150 O 0.57221 0.31946 0.35218 0.0
C151 C 0.60557 0.35193 0.31464 0.0
N152 N 0.61726 0.34491 0.33998 0.0
C153 C 0.6562 0.36252 0.32355 0.0
C154 C 0.64463 0.36982 0.29719 0.0
C155 C 0.61918 0.36455 0.29276 0.0
C156 C 0.64167 0.35005 0.34457 0.0
H157 H 0.58601 0.34793 0.3112 0.0
C158 C 0.54899 0.32517 0.35119 0.0
O159 O 0.52367 0.37487 0.4144 0.0
O160 O 0.54797 0.39377 0.38175 0.0
N161 N 0.63585 0.3322 0.39082 0.0
C162 C 0.6441 0.32406 0.41757 0.0
C163 C 0.66915 0.3279 0.42552 0.0
C164 C 0.68555 0.33964 0.4057 0.0
C165 C 0.67674 0.34741 0.37807 0.0
C166 C 0.65161 0.34295 0.37131 0.0
H167 H 0.63161 0.31484 0.43279 0.0
O168 O 0.57777 0.37871 0.42863 0.0
O169 O 0.59083 0.35887 0.38872 0.0
O170 O 0.55828 0.32931 0.42532 0.0
O171 O 0.59138 0.30832 0.4071 0.0
C172 C 0.69181 0.35968 0.35711 0.0
C173 C 0.68152 0.36732 0.32992 0.0
H174 H 0.65506 0.37957 0.28026 0.0
H175 H 0.6101 0.37021 0.27252 0.0
H176 H 0.67583 0.32179 0.44685 0.0
H177 H 0.70485 0.34256 0.41194 0.0
H178 H 0.71127 0.36352 0.36178 0.0
H179 H 0.69324 0.37693 0.31408 0.0
Mn180 Mn 0.13299 0.5476 0.41782 0.0
Mn181 Mn 0.15276 0.60041 0.3845 0.0
C182 C 0.12223 0.58591 0.43713 0.0
C183 C 0.10251 0.51735 0.4246 0.0
C184 C 0.18552 0.56896 0.42461 0.0
O185 O 0.14525 0.53467 0.37813 0.0
O186 O 0.15546 0.57152 0.35728 0.0
C187 C 0.11225 0.60425 0.34037 0.0
N188 N 0.12562 0.61453 0.36282 0.0
C189 C 0.10169 0.65251 0.36044 0.0
C190 C 0.0878 0.64243 0.33709 0.0
C191 C 0.09306 0.61816 0.32708 0.0
C192 C 0.12058 0.63776 0.37279 0.0
H193 H 0.11615 0.58556 0.33273 0.0
C194 C 0.15323 0.54771 0.35654 0.0
O195 O 0.12542 0.51344 0.43298 0.0
O196 O 0.09824 0.53746 0.40955 0.0
N197 N 0.15134 0.63011 0.40788 0.0
C198 C 0.16616 0.63691 0.43094 0.0
C199 C 0.163 0.66052 0.44389 0.0
C200 C 0.14496 0.67704 0.43268 0.0
C201 C 0.13037 0.66988 0.40846 0.0
C202 C 0.13441 0.64614 0.39642 0.0
H203 H 0.18013 0.62433 0.43957 0.0
O204 O 0.12111 0.56596 0.45312 0.0
O205 O 0.12889 0.58292 0.40974 0.0
O206 O 0.16921 0.55245 0.43112 0.0
O207 O 0.18138 0.58725 0.40712 0.0
C208 C 0.11175 0.68521 0.39604 0.0
C209 C 0.09734 0.67649 0.37214 0.0
H210 H 0.07296 0.65308 0.32682 0.0
H211 H 0.08233 0.6102 0.3092 0.0
H212 H 0.17441 0.66595 0.46249 0.0
H213 H 0.14243 0.69515 0.44288 0.0
H214 H 0.10819 0.70366 0.40489 0.0
H215 H 0.08288 0.68835 0.363 0.0
Mn216 Mn 0.94641 0.14071 0.41981 0.0
Mn217 Mn 0.89114 0.16946 0.40996 0.0
C218 C 0.91095 0.12517 0.44193 0.0
C219 C 0.97586 0.11023 0.40927 0.0
C220 C 0.92818 0.18629 0.45515 0.0
O221 O 0.95429 0.16268 0.38449 0.0
O222 O 0.91804 0.18385 0.38491 0.0
C223 C 0.88437 0.15052 0.34913 0.0
N224 N 0.87567 0.1532 0.37718 0.0
C225 C 0.83782 0.13116 0.36531 0.0
C226 C 0.84633 0.12826 0.33628 0.0
C227 C 0.86975 0.13793 0.32819 0.0
C228 C 0.85331 0.14368 0.38528 0.0
H229 H 0.90233 0.15791 0.34277 0.0
C230 C 0.94041 0.1805 0.37572 0.0
O231 O 0.9818 0.13011 0.42411 0.0
O232 O 0.95371 0.10967 0.39771 0.0
N233 N 0.86285 0.15835 0.4322 0.0
C234 C 0.8568 0.16382 0.46066 0.0
C235 C 0.83366 0.1561 0.47204 0.0
C236 C 0.81672 0.14334 0.45387 0.0
C237 C 0.82303 0.13854 0.42441 0.0
C238 C 0.84632 0.14684 0.41426 0.0
H239 H 0.86963 0.17382 0.47464 0.0
O240 O 0.93285 0.1201 0.45234 0.0
O241 O 0.9101 0.13894 0.41822 0.0
O242 O 0.94573 0.17181 0.44655 0.0
O243 O 0.90611 0.1861 0.44434 0.0
C244 C 0.80709 0.12595 0.40469 0.0
C245 C 0.81454 0.12213 0.3752 0.0
H246 H 0.83506 0.11865 0.32003 0.0
H247 H 0.87648 0.13573 0.30584 0.0
H248 H 0.82887 0.16002 0.49475 0.0
H249 H 0.79887 0.13747 0.46272 0.0
H250 H 0.78907 0.11913 0.41198 0.0
H251 H 0.80216 0.11237 0.36026 0.0
Mn252 Mn 0.36083 0.9588 0.4012 0.0
Mn253 Mn 0.34102 0.9077 0.36439 0.0
C254 C 0.37235 0.91973 0.41745 0.0
C255 C 0.39053 0.98966 0.40873 0.0
C256 C 0.30884 0.93594 0.4082 0.0
O257 O 0.34754 0.9737 0.36315 0.0
O258 O 0.33708 0.93815 0.3397 0.0
C259 C 0.38061 0.90756 0.31881 0.0
N260 N 0.36798 0.89561 0.34073 0.0
C261 C 0.39295 0.85859 0.33468 0.0
C262 C 0.40607 0.87042 0.31185 0.0
C263 C 0.39991 0.89504 0.30394 0.0
C264 C 0.37389 0.87201 0.34868 0.0
H265 H 0.37603 0.92653 0.3128 0.0
C266 C 0.33909 0.96197 0.34087 0.0
O267 O 0.36777 0.99235 0.41825 0.0
O268 O 0.39517 0.97021 0.39264 0.0
N269 N 0.3435 0.87659 0.38498 0.0
C270 C 0.32901 0.86783 0.40743 0.0
C271 C 0.33291 0.84353 0.41815 0.0
C272 C 0.35133 0.82833 0.40533 0.0
C273 C 0.36549 0.83748 0.38166 0.0
C274 C 0.36068 0.86181 0.37183 0.0
H275 H 0.31474 0.87939 0.41729 0.0
O276 O 0.37378 0.93891 0.43468 0.0
O277 O 0.36517 0.924 0.39045 0.0
O278 O 0.32502 0.95245 0.41518 0.0
O279 O 0.31276 0.91878 0.38912 0.0
C280 C 0.38442 0.82353 0.36769 0.0
C281 C 0.39819 0.83411 0.34428 0.0
H282 H 0.42101 0.86084 0.30036 0.0
H283 H 0.41005 0.90435 0.28646 0.0
H284 H 0.32179 0.83656 0.4363 0.0
H285 H 0.35444 0.80968 0.41383 0.0
H286 H 0.38866 0.80472 0.37493 0.0
H287 H 0.41283 0.82327 0.33387 0.0
Mn288 Mn 0.4523 0.85986 0.89163 0.0
Mn289 Mn 0.4038 0.83515 0.85401 0.0
C290 C 0.41212 0.86823 0.90655 0.0
C291 C 0.48041 0.89206 0.89963 0.0
C292 C 0.43377 0.80619 0.89928 0.0
O293 O 0.46903 0.84738 0.8543 0.0
O294 O 0.43504 0.83317 0.83037 0.0
C295 C 0.40154 0.87371 0.80731 0.0
N296 N 0.39016 0.86064 0.8293 0.0
C297 C 0.35157 0.88284 0.82188 0.0
C298 C 0.36283 0.8964 0.79899 0.0
C299 C 0.38794 0.89184 0.79173 0.0
C300 C 0.36607 0.865 0.83661 0.0
H301 H 0.42088 0.87037 0.80178 0.0
C302 C 0.45856 0.83733 0.83207 0.0
O303 O 0.48477 0.86968 0.9095 0.0
O304 O 0.46104 0.89495 0.88282 0.0
N305 N 0.37215 0.83554 0.87364 0.0
C306 C 0.36402 0.82071 0.89611 0.0
C307 C 0.33931 0.82301 0.90617 0.0
C308 C 0.32309 0.84017 0.89269 0.0
C309 C 0.33164 0.85465 0.86897 0.0
C310 C 0.35642 0.85144 0.8598 0.0
H311 H 0.37638 0.80742 0.90651 0.0
O312 O 0.43075 0.87151 0.92427 0.0
O313 O 0.4175 0.86105 0.87983 0.0
O314 O 0.44872 0.82383 0.90617 0.0
O315 O 0.41659 0.8083 0.87981 0.0
C316 C 0.31664 0.87236 0.85432 0.0
C317 C 0.32662 0.8865 0.83085 0.0
H318 H 0.35241 0.91044 0.78696 0.0
H319 H 0.39679 0.90231 0.77419 0.0
H320 H 0.33281 0.81164 0.92435 0.0
H321 H 0.30412 0.84207 0.9007 0.0
H322 H 0.29746 0.87538 0.86106 0.0
H323 H 0.31496 0.90018 0.81989 0.0
Mn324 Mn 0.63282 0.43973 0.91135 0.0
Mn325 Mn 0.65437 0.39147 0.87066 0.0
C326 C 0.62611 0.39935 0.92697 0.0
C327 C 0.60098 0.46731 0.92349 0.0
C328 C 0.687 0.42161 0.9121 0.0
O329 O 0.64187 0.45671 0.87263 0.0
O330 O 0.65394 0.42272 0.84706 0.0
C331 C 0.61184 0.38896 0.8291 0.0
N332 N 0.62694 0.37765 0.84924 0.0
C333 C 0.60474 0.33881 0.84429 0.0
C334 C 0.58909 0.34998 0.8233 0.0
C335 C 0.59262 0.37519 0.81574 0.0
C336 C 0.62358 0.35348 0.85686 0.0
H337 H 0.61441 0.40836 0.82336 0.0
C338 C 0.64989 0.44622 0.84924 0.0
O339 O 0.62402 0.47201 0.93066 0.0
O340 O 0.59704 0.448 0.90694 0.0
N341 N 0.65604 0.3598 0.89012 0.0
C342 C 0.6729 0.35177 0.91055 0.0
C343 C 0.67187 0.32698 0.9206 0.0
C344 C 0.65384 0.31059 0.90916 0.0
C345 C 0.63721 0.31906 0.88747 0.0
C346 C 0.63922 0.34393 0.87819 0.0
H347 H 0.68687 0.36426 0.91933 0.0
O348 O 0.62434 0.41784 0.94517 0.0
O349 O 0.63085 0.40497 0.89958 0.0
O350 O 0.66999 0.43647 0.92123 0.0
O351 O 0.68322 0.40444 0.893 0.0
C352 C 0.61854 0.30388 0.87493 0.0
C353 C 0.60226 0.31377 0.85343 0.0
H354 H 0.57421 0.33943 0.81298 0.0
H355 H 0.58053 0.38398 0.79968 0.0
H356 H 0.68489 0.32054 0.93719 0.0
H357 H 0.65295 0.29155 0.91717 0.0
H358 H 0.61642 0.28462 0.88181 0.0
H359 H 0.58786 0.30198 0.8441 0.0
Mn360 Mn 0.05045 0.6345 0.90449 0.0
Mn361 Mn 0.1043 0.66412 0.88893 0.0
C362 C 0.08803 0.61791 0.9197 0.0
C363 C 0.02002 0.6044 0.89695 0.0
C364 C 0.07162 0.67873 0.93967 0.0
O365 O 0.03908 0.65801 0.87196 0.0
O366 O 0.07527 0.67908 0.86799 0.0
C367 C 0.10629 0.64807 0.82649 0.0
N368 N 0.11722 0.64969 0.85353 0.0
C369 C 0.15471 0.62999 0.83568 0.0
C370 C 0.14389 0.62821 0.80762 0.0
C371 C 0.11954 0.63721 0.80304 0.0
C372 C 0.14052 0.64081 0.85825 0.0
H373 H 0.08762 0.65502 0.82282 0.0
C374 C 0.0521 0.67602 0.86187 0.0
O375 O 0.01581 0.62378 0.91344 0.0
O376 O 0.0407 0.6043 0.88199 0.0
N377 N 0.1343 0.65232 0.90715 0.0
C378 C 0.14209 0.65555 0.93549 0.0
C379 C 0.16616 0.64779 0.94369 0.0
C380 C 0.18216 0.63725 0.92255 0.0
C381 C 0.17389 0.63445 0.89341 0.0
C382 C 0.14973 0.64261 0.88653 0.0
H383 H 0.12996 0.66384 0.95176 0.0
O384 O 0.0675 0.61251 0.93332 0.0
O385 O 0.08628 0.63302 0.89725 0.0
O386 O 0.0536 0.66427 0.9328 0.0
O387 O 0.09241 0.67931 0.92587 0.0
C388 C 0.18864 0.62382 0.87095 0.0
C389 C 0.17899 0.62143 0.84216 0.0
H390 H 0.15408 0.61993 0.78945 0.0
H391 H 0.11104 0.63585 0.78146 0.0
H392 H 0.1724 0.65002 0.96622 0.0
H393 H 0.20075 0.63139 0.92896 0.0
H394 H 0.20738 0.61729 0.87562 0.0
H395 H 0.19044 0.61305 0.82513 0.0
Mn396 Mn 0.85492 0.04165 0.93302 0.0
Mn397 Mn 0.82623 0.09611 0.91811 0.0
C398 C 0.87108 0.07849 0.95067 0.0
C399 C 0.88494 0.01123 0.92489 0.0
C400 C 0.80998 0.06273 0.96734 0.0
O401 O 0.83249 0.03142 0.89911 0.0
O402 O 0.81112 0.06755 0.89641 0.0
C403 C 0.84374 0.09831 0.85618 0.0
N404 N 0.84186 0.10898 0.88335 0.0
C405 C 0.86407 0.14554 0.867 0.0
C406 C 0.86615 0.13497 0.83883 0.0
C407 C 0.85599 0.11123 0.83343 0.0
C408 C 0.85179 0.13171 0.88884 0.0
H409 H 0.83598 0.08009 0.85188 0.0
C410 C 0.81452 0.04463 0.88941 0.0
O411 O 0.86528 0.00665 0.94084 0.0
O412 O 0.88556 0.03245 0.91112 0.0
N413 N 0.83813 0.12575 0.93703 0.0
C414 C 0.83367 0.13374 0.96506 0.0
C415 C 0.8422 0.15737 0.9739 0.0
C416 C 0.85474 0.17277 0.95367 0.0
C417 C 0.85847 0.16446 0.9247 0.0
C418 C 0.84943 0.14077 0.91712 0.0
H419 H 0.82388 0.12207 0.98062 0.0
O420 O 0.87607 0.05749 0.96347 0.0
O421 O 0.85685 0.0776 0.92735 0.0
O422 O 0.82418 0.04452 0.96017 0.0
O423 O 0.81019 0.08394 0.9544 0.0
C424 C 0.8708 0.17874 0.90305 0.0
C425 C 0.87371 0.16924 0.87425 0.0
H426 H 0.87552 0.1449 0.8212 0.0
H427 H 0.85756 0.10292 0.81177 0.0
H428 H 0.83911 0.16371 0.99625 0.0
H429 H 0.86132 0.19097 0.9606 0.0
H430 H 0.87815 0.19705 0.90832 0.0
H431 H 0.88329 0.18036 0.85781 0.0
Mn432 Mn 0.45507 0.6408 0.57136 0.0
Mn433 Mn 0.40548 0.65913 0.612 0.0
C434 C 0.41566 0.62747 0.55876 0.0
C435 C 0.48645 0.61223 0.56129 0.0
C436 C 0.42972 0.69177 0.56545 0.0
O437 O 0.47165 0.65497 0.60787 0.0
O438 O 0.4372 0.66509 0.63378 0.0
C439 C 0.41 0.6208 0.65873 0.0
N440 N 0.39619 0.63223 0.63743 0.0
C441 C 0.36093 0.60564 0.64732 0.0
C442 C 0.37472 0.5937 0.66951 0.0
C443 C 0.39938 0.60128 0.67519 0.0
C444 C 0.3725 0.62499 0.63168 0.0
H445 H 0.429 0.6265 0.66306 0.0
C446 C 0.46097 0.66375 0.63073 0.0
O447 O 0.48772 0.63499 0.55142 0.0
O448 O 0.46831 0.60706 0.57922 0.0
N449 N 0.37338 0.65468 0.59422 0.0
C450 C 0.36267 0.66805 0.57199 0.0
C451 C 0.33807 0.66261 0.56335 0.0
C452 C 0.32461 0.64381 0.57797 0.0
C453 C 0.33577 0.63079 0.60134 0.0
C454 C 0.3603 0.63711 0.60906 0.0
H455 H 0.3729 0.68258 0.56072 0.0
O456 O 0.43375 0.62679 0.53987 0.0
O457 O 0.42124 0.63516 0.58523 0.0
O458 O 0.44657 0.67623 0.55762 0.0
O459 O 0.41364 0.68734 0.58567 0.0
C460 C 0.32368 0.61153 0.61697 0.0
C461 C 0.33627 0.59892 0.6399 0.0
H462 H 0.36661 0.57859 0.68221 0.0
H463 H 0.41018 0.59208 0.69219 0.0
H464 H 0.32954 0.67283 0.5454 0.0
H465 H 0.30572 0.6395 0.57106 0.0
H466 H 0.30477 0.60612 0.61138 0.0
H467 H 0.32684 0.58401 0.6516 0.0
Mn468 Mn 0.86053 0.44457 0.5937 0.0
Mn469 Mn 0.83382 0.39097 0.61628 0.0
C470 C 0.87847 0.40674 0.58204 0.0
C471 C 0.88945 0.47668 0.59651 0.0
C472 C 0.81643 0.41874 0.56276 0.0
O473 O 0.83738 0.45742 0.62582 0.0
O474 O 0.81802 0.42086 0.63457 0.0
C475 C 0.85149 0.39456 0.67801 0.0
N476 N 0.84976 0.38153 0.65232 0.0
C477 C 0.87195 0.34666 0.67318 0.0
C478 C 0.87387 0.35966 0.6999 0.0
C479 C 0.86366 0.38375 0.70228 0.0
C480 C 0.85974 0.35845 0.6497 0.0
H481 H 0.84363 0.41305 0.67998 0.0
C482 C 0.82023 0.44451 0.63801 0.0
O483 O 0.86945 0.47874 0.58047 0.0
O484 O 0.89084 0.45737 0.61374 0.0
N485 N 0.84662 0.36026 0.60087 0.0
C486 C 0.84317 0.35022 0.57357 0.0
C487 C 0.85212 0.3261 0.56758 0.0
C488 C 0.8641 0.31238 0.58984 0.0
C489 C 0.86711 0.32294 0.6179 0.0
C490 C 0.8577 0.34702 0.6226 0.0
H491 H 0.83383 0.36061 0.55644 0.0
O492 O 0.88252 0.4263 0.566 0.0
O493 O 0.86386 0.40959 0.6048 0.0
O494 O 0.83024 0.43782 0.56704 0.0
O495 O 0.81713 0.39918 0.57886 0.0
C496 C 0.8792 0.31059 0.64132 0.0
C497 C 0.88175 0.3225 0.66889 0.0
H498 H 0.8832 0.35137 0.7187 0.0
H499 H 0.86512 0.39393 0.72281 0.0
H500 H 0.84973 0.31808 0.54588 0.0
H501 H 0.87092 0.29376 0.58513 0.0
H502 H 0.88675 0.29199 0.63832 0.0
H503 H 0.89124 0.31289 0.68667 0.0
Mn504 Mn 0.04921 0.86727 0.58664 0.0
Mn505 Mn 0.10065 0.84796 0.62316 0.0
C506 C 0.08822 0.87673 0.56846 0.0
C507 C 0.01953 0.89774 0.577 0.0
C508 C 0.07034 0.81433 0.58304 0.0
O509 O 0.03481 0.85668 0.62618 0.0
O510 O 0.07067 0.84593 0.64895 0.0
C511 C 0.10286 0.8895 0.66607 0.0
N512 N 0.11393 0.87567 0.64453 0.0
C513 C 0.15148 0.90026 0.64728 0.0
C514 C 0.14056 0.91464 0.66967 0.0
C515 C 0.11613 0.90926 0.67906 0.0
C516 C 0.13738 0.88077 0.63522 0.0
H517 H 0.08403 0.88553 0.6732 0.0
C518 C 0.04689 0.84872 0.64851 0.0
O519 O 0.01563 0.87459 0.56965 0.0
O520 O 0.03924 0.90238 0.59261 0.0
N521 N 0.13123 0.84879 0.6013 0.0
C522 C 0.13896 0.83328 0.57929 0.0
C523 C 0.1629 0.83638 0.56714 0.0
C524 C 0.17876 0.85512 0.57803 0.0
C525 C 0.17065 0.87039 0.60123 0.0
C526 C 0.14665 0.86633 0.61258 0.0
H527 H 0.12686 0.81883 0.57086 0.0
O528 O 0.06877 0.87754 0.55162 0.0
O529 O 0.08433 0.87121 0.59606 0.0
O530 O 0.05404 0.83056 0.57552 0.0
O531 O 0.08831 0.81883 0.60087 0.0
C532 C 0.18528 0.88974 0.61323 0.0
C533 C 0.17568 0.9047 0.63619 0.0
H534 H 0.15069 0.92995 0.67968 0.0
H535 H 0.10752 0.92036 0.69622 0.0
H536 H 0.16906 0.82443 0.54934 0.0
H537 H 0.19711 0.85762 0.56839 0.0
H538 H 0.20385 0.89342 0.60479 0.0
H539 H 0.18702 0.91966 0.64507 0.0
Mn540 Mn 0.63374 0.05892 0.60007 0.0
Mn541 Mn 0.65997 0.10433 0.64127 0.0
C542 C 0.62764 0.10026 0.58795 0.0
C543 C 0.60022 0.03311 0.58915 0.0
C544 C 0.68864 0.07394 0.59603 0.0
O545 O 0.64408 0.04005 0.63707 0.0
O546 O 0.65879 0.0725 0.66374 0.0
C547 C 0.6202 0.1084 0.68637 0.0
N548 N 0.63465 0.11923 0.66521 0.0
C549 C 0.61452 0.15897 0.67231 0.0
C550 C 0.59957 0.14829 0.69436 0.0
C551 C 0.6024 0.12289 0.70138 0.0
C552 C 0.632 0.14363 0.6582 0.0
H553 H 0.62218 0.08885 0.69166 0.0
C554 C 0.65336 0.04937 0.66049 0.0
O555 O 0.62259 0.02792 0.57978 0.0
O556 O 0.59794 0.0519 0.60695 0.0
N557 N 0.66221 0.13621 0.62237 0.0
C558 C 0.67791 0.14357 0.60034 0.0
C559 C 0.67729 0.16844 0.59052 0.0
C560 C 0.66074 0.18552 0.6036 0.0
C561 C 0.64516 0.17764 0.62665 0.0
C562 C 0.64679 0.15269 0.63573 0.0
H563 H 0.69065 0.13053 0.59018 0.0
O564 O 0.62426 0.08291 0.56851 0.0
O565 O 0.63401 0.09293 0.61422 0.0
O566 O 0.67023 0.06081 0.5872 0.0
O567 O 0.68696 0.09033 0.61646 0.0
C568 C 0.62786 0.19348 0.64074 0.0
C569 C 0.61251 0.18414 0.66351 0.0
H570 H 0.58574 0.15937 0.70589 0.0
H571 H 0.59083 0.11447 0.71825 0.0
H572 H 0.68945 0.1744 0.5728 0.0
H573 H 0.66015 0.20462 0.59576 0.0
H574 H 0.62606 0.21282 0.63406 0.0
H575 H 0.59913 0.19644 0.67399 0.0
C576 C 0.5945 0.21677 0.07644 0.0
C577 C 0.57478 0.20019 0.07049 0.0
C578 C 0.59934 0.23682 0.05768 0.0
C579 C 0.57128 0.27746 0.00169 0.0
H580 H 0.64049 0.29151 0.98239 0.0
C581 C 0.60135 0.35995 0.92651 0.0
C582 C 0.62116 0.37412 0.93785 0.0
C583 C 0.59526 0.33695 0.93928 0.0
C584 C 0.62108 0.28783 0.98764 0.0
H585 H 0.54423 0.19221 0.04042 0.0
H586 H 0.55271 0.22742 0.00772 0.0
H587 H 0.63025 0.25486 0.01194 0.0
H588 H 0.64907 0.37666 0.97216 0.0
H589 H 0.63871 0.33648 0.99436 0.0
H590 H 0.56223 0.31084 0.97789 0.0
C591 C 0.56439 0.22477 0.02697 0.0
C592 C 0.61523 0.26691 0.00459 0.0
C593 C 0.5596 0.20458 0.04569 0.0
C594 C 0.63424 0.36554 0.96258 0.0
C595 C 0.62835 0.34257 0.97515 0.0
C596 C 0.57716 0.29847 0.98473 0.0
C597 C 0.58454 0.24087 0.03257 0.0
C598 C 0.59034 0.26183 0.01237 0.0
C599 C 0.60881 0.32801 0.96366 0.0
C600 C 0.60218 0.30416 0.97817 0.0
H601 H 0.60656 0.21406 0.09534 0.0
H602 H 0.61471 0.24922 0.06287 0.0
H603 H 0.55194 0.27404 0.00744 0.0
H604 H 0.59047 0.36681 0.90808 0.0
H605 H 0.58004 0.32615 0.93007 0.0
C606 C 0.11724 0.60235 0.95774 0.0
C607 C 0.111 0.60469 0.9279 0.0
C608 C 0.13885 0.58968 0.96606 0.0
C609 C 0.20063 0.57487 0.93788 0.0
H610 H 0.20643 0.54281 0.01426 0.0
C611 C 0.28158 0.58961 0.01638 0.0
C612 C 0.29114 0.56959 0.03289 0.0
C613 C 0.2615 0.58606 0.99736 0.0
C614 C 0.20512 0.55122 0.99258 0.0
H615 H 0.12051 0.59345 0.88349 0.0
H616 H 0.15881 0.57139 0.89795 0.0
H617 H 0.16518 0.54954 0.99276 0.0
H618 H 0.28761 0.52996 0.04186 0.0
H619 H 0.25158 0.52396 0.00915 0.0
H620 H 0.24051 0.57802 0.93868 0.0
C621 C 0.14735 0.5799 0.91487 0.0
C622 C 0.18152 0.55529 0.9804 0.0
C623 C 0.12566 0.59268 0.90656 0.0
C624 C 0.28064 0.54571 0.02933 0.0
C625 C 0.26009 0.54226 0.01069 0.0
C626 C 0.2242 0.5711 0.95023 0.0
C627 C 0.1544 0.57865 0.94471 0.0
C628 C 0.17899 0.56838 0.95368 0.0
C629 C 0.25022 0.56251 0.99479 0.0
C630 C 0.22654 0.5603 0.9783 0.0
H631 H 0.1058 0.61103 0.97457 0.0
H632 H 0.14387 0.58943 0.98918 0.0
H633 H 0.19937 0.58465 0.91707 0.0
H634 H 0.28932 0.60818 0.01851 0.0
H635 H 0.25401 0.60207 0.98572 0.0
C636 C 0.88298 0.1066 0.99142 0.0
C637 C 0.88344 0.10114 0.96126 0.0
C638 C 0.89526 0.12763 0.00217 0.0
C639 C 0.9183 0.18899 0.97838 0.0
H640 H 0.94446 0.18999 0.0581 0.0
C641 C 0.9494 0.28019 0.03571 0.0
C642 C 0.93703 0.28396 0.0627 0.0
C643 C 0.94908 0.25674 0.02219 0.0
C644 C 0.93736 0.18994 0.03575 0.0
H645 H 0.89894 0.11149 0.91894 0.0
H646 H 0.92077 0.14848 0.93772 0.0
H647 H 0.93295 0.15029 0.03561 0.0
H648 H 0.91574 0.26588 0.09738 0.0
H649 H 0.91547 0.225 0.07398 0.0
H650 H 0.92221 0.22878 0.9789 0.0
C651 C 0.91018 0.13705 0.95294 0.0
C652 C 0.93065 0.16726 0.0229 0.0
C653 C 0.89764 0.11605 0.94215 0.0
C654 C 0.92534 0.2636 0.07653 0.0
C655 C 0.92534 0.24014 0.06324 0.0
C656 C 0.92518 0.21168 0.99119 0.0
C657 C 0.90885 0.14325 0.98305 0.0
C658 C 0.92012 0.16662 0.99451 0.0
C659 C 0.93678 0.2366 0.0357 0.0
C660 C 0.93394 0.21241 0.02035 0.0
H661 H 0.87252 0.09495 0.00656 0.0
H662 H 0.89346 0.132 0.02538 0.0
H663 H 0.91023 0.1892 0.95651 0.0
H664 H 0.9585 0.29556 0.02448 0.0
H665 H 0.95809 0.25442 0.00097 0.0
C666 C 0.37936 0.86271 0.94395 0.0
C667 C 0.38698 0.87366 0.91741 0.0
C668 C 0.35698 0.86979 0.95706 0.0
C669 C 0.31989 0.90103 0.99004 0.0
H670 H 0.25638 0.90263 0.94894 0.0
C671 C 0.22796 0.89211 0.05121 0.0
C672 C 0.20874 0.90917 0.04487 0.0
C673 C 0.24916 0.89093 0.03354 0.0
C674 C 0.27407 0.90265 0.96052 0.0
H675 H 0.37832 0.90155 0.88442 0.0
H676 H 0.33846 0.91391 0.90734 0.0
H677 H 0.29506 0.89469 0.92122 0.0
H678 H 0.1965 0.93795 0.01436 0.0
H679 H 0.23386 0.93561 0.98312 0.0
H680 H 0.29914 0.90816 0.02936 0.0
C681 C 0.3496 0.89938 0.91751 0.0
C682 C 0.29611 0.89812 0.94471 0.0
C683 C 0.37218 0.89226 0.90436 0.0
C684 C 0.21104 0.92469 0.01994 0.0
C685 C 0.2323 0.92332 0.002 0.0
C686 C 0.29802 0.90546 0.00572 0.0
C687 C 0.34202 0.88839 0.94421 0.0
C688 C 0.31909 0.89653 0.95957 0.0
C689 C 0.25168 0.90666 0.00897 0.0
C690 C 0.27484 0.90557 0.99129 0.0
H691 H 0.39086 0.84872 0.95464 0.0
H692 H 0.35145 0.86083 0.97746 0.0
H693 H 0.33745 0.90044 0.0019 0.0
H694 H 0.22685 0.87979 0.07011 0.0
H695 H 0.26368 0.87764 0.03912 0.0
C696 C 0.57453 0.26639 0.44063 0.0
C697 C 0.57062 0.2915 0.44807 0.0
C698 C 0.57465 0.24807 0.46243 0.0
C699 C 0.56219 0.21272 0.51348 0.0
H700 H 0.6184 0.21959 0.56689 0.0
C701 C 0.60048 0.13726 0.59633 0.0
C702 C 0.62013 0.12583 0.58086 0.0
C703 C 0.59108 0.1603 0.58694 0.0
C704 C 0.60227 0.21777 0.55265 0.0
H705 H 0.56333 0.31731 0.48382 0.0
H706 H 0.56456 0.28506 0.52246 0.0
H707 H 0.60519 0.25539 0.53679 0.0
H708 H 0.64489 0.12861 0.54332 0.0
H709 H 0.62891 0.16935 0.52734 0.0
H710 H 0.56015 0.17473 0.52822 0.0
C711 C 0.56695 0.27966 0.49962 0.0
C712 C 0.59469 0.23813 0.53555 0.0
C713 C 0.56617 0.29798 0.47761 0.0
C714 C 0.63017 0.13752 0.55592 0.0
C715 C 0.62111 0.16068 0.54687 0.0
C716 C 0.5695 0.19253 0.53091 0.0
C717 C 0.57142 0.25462 0.49214 0.0
C718 C 0.57524 0.23542 0.51502 0.0
C719 C 0.60135 0.17202 0.5621 0.0
C720 C 0.59011 0.19472 0.54977 0.0
H721 H 0.57798 0.261 0.41796 0.0
H722 H 0.57843 0.2289 0.45622 0.0
H723 H 0.54721 0.21026 0.4977 0.0
H724 H 0.59197 0.12802 0.61506 0.0
H725 H 0.57554 0.1687 0.5986 0.0
C726 C 0.38107 0.62703 0.5231 0.0
C727 C 0.39115 0.61821 0.54961 0.0
C728 C 0.35943 0.61646 0.51166 0.0
C729 C 0.32527 0.57881 0.48313 0.0
H730 H 0.26345 0.5764 0.52763 0.0
C731 C 0.21412 0.55347 0.46458 0.0
C732 C 0.21031 0.56773 0.4389 0.0
C733 C 0.23707 0.55427 0.47933 0.0
C734 C 0.28069 0.57642 0.51512 0.0
H735 H 0.38777 0.59054 0.58417 0.0
H736 H 0.34898 0.57227 0.56445 0.0
H737 H 0.30241 0.58817 0.55243 0.0
H738 H 0.22789 0.59327 0.40803 0.0
H739 H 0.26764 0.59459 0.43357 0.0
H740 H 0.30371 0.56789 0.44568 0.0
C741 C 0.3577 0.58769 0.55292 0.0
C742 C 0.3029 0.58319 0.52929 0.0
C743 C 0.37962 0.59822 0.56429 0.0
C744 C 0.23013 0.5821 0.42778 0.0
C745 C 0.25302 0.58272 0.4423 0.0
C746 C 0.3032 0.57198 0.46905 0.0
C747 C 0.34765 0.59659 0.5263 0.0
C748 C 0.32515 0.58529 0.5131 0.0
C749 C 0.25667 0.56906 0.4684 0.0
C750 C 0.28053 0.57163 0.48463 0.0
H751 H 0.39008 0.64206 0.51112 0.0
H752 H 0.35191 0.62379 0.49124 0.0
H753 H 0.34233 0.57991 0.47033 0.0
H754 H 0.19917 0.54227 0.47377 0.0
H755 H 0.23944 0.54351 0.49935 0.0
C756 C 0.90587 0.37147 0.59811 0.0
C757 C 0.89262 0.3839 0.57581 0.0
C758 C 0.91979 0.35006 0.59149 0.0
C759 C 0.94629 0.3141 0.52869 0.0
H760 H 0.92646 0.25576 0.57358 0.0
C761 C 0.95732 0.21589 0.4806 0.0
C762 C 0.93358 0.20486 0.47827 0.0
C763 C 0.96116 0.23599 0.49978 0.0
C764 C 0.93262 0.27192 0.56116 0.0
H765 H 0.88509 0.38543 0.52902 0.0
H766 H 0.90885 0.34794 0.51738 0.0
H767 H 0.91777 0.29736 0.59296 0.0
H768 H 0.89589 0.20478 0.49579 0.0
H769 H 0.90259 0.23943 0.52929 0.0
H770 H 0.95978 0.28867 0.49605 0.0
C771 C 0.90862 0.35447 0.53997 0.0
C772 C 0.92767 0.29573 0.57225 0.0
C773 C 0.89474 0.37572 0.54662 0.0
C774 C 0.91431 0.21305 0.49689 0.0
C775 C 0.91825 0.23273 0.51636 0.0
C776 C 0.95147 0.29031 0.51775 0.0
C777 C 0.92105 0.3412 0.56235 0.0
C778 C 0.93299 0.31698 0.55519 0.0
C779 C 0.94145 0.24493 0.51735 0.0
C780 C 0.94334 0.26904 0.53309 0.0
H781 H 0.90526 0.37819 0.62061 0.0
H782 H 0.92929 0.34029 0.60913 0.0
H783 H 0.95112 0.33021 0.51541 0.0
H784 H 0.9725 0.2099 0.46647 0.0
H785 H 0.9792 0.24514 0.50011 0.0
C786 C 0.12007 0.87336 0.52949 0.0
C787 C 0.11233 0.88419 0.55605 0.0
C788 C 0.14112 0.88234 0.51492 0.0
C789 C 0.17385 0.91674 0.47926 0.0
H790 H 0.23782 0.92585 0.51784 0.0
C791 C 0.28117 0.94999 0.4498 0.0
C792 C 0.28478 0.93548 0.42429 0.0
C793 C 0.25931 0.94756 0.46646 0.0
C794 C 0.21996 0.92385 0.50688 0.0
H795 H 0.11926 0.9137 0.58756 0.0
H796 H 0.15681 0.92929 0.56223 0.0
H797 H 0.20122 0.91383 0.54704 0.0
H798 H 0.26781 0.90763 0.39583 0.0
H799 H 0.22996 0.90343 0.42479 0.0
H800 H 0.19242 0.92628 0.4391 0.0
C801 C 0.14686 0.91347 0.55312 0.0
C802 C 0.19909 0.91693 0.52358 0.0
C803 C 0.12562 0.90449 0.56767 0.0
C804 C 0.26571 0.91912 0.41533 0.0
C805 C 0.2439 0.9168 0.43185 0.0
C806 C 0.1946 0.92372 0.46265 0.0
C807 C 0.15455 0.90264 0.52639 0.0
C808 C 0.17604 0.91269 0.50972 0.0
C809 C 0.24057 0.93075 0.45778 0.0
C810 C 0.21801 0.9267 0.47613 0.0
H811 H 0.10967 0.85804 0.51987 0.0
H812 H 0.14679 0.87351 0.49451 0.0
H813 H 0.15614 0.91406 0.46816 0.0
H814 H 0.2955 0.96274 0.45737 0.0
H815 H 0.25714 0.95868 0.48623 0.0
C816 C 0.42263 0.76116 0.90557 0.0
C817 C 0.4353 0.78242 0.91584 0.0
C818 C 0.42202 0.73936 0.9224 0.0
C819 C 0.42402 0.7184 0.99858 0.0
H820 H 0.42744 0.65278 0.96271 0.0
C821 C 0.40029 0.62804 0.06324 0.0
C822 C 0.38436 0.61175 0.04805 0.0
C823 C 0.41158 0.64801 0.0484 0.0
C824 C 0.42637 0.67098 0.97306 0.0
H825 H 0.45786 0.7972 0.95155 0.0
H826 H 0.45659 0.75901 0.98107 0.0
H827 H 0.43848 0.68953 0.93379 0.0
H828 H 0.36894 0.60209 0.00551 0.0
H829 H 0.38787 0.63719 0.9797 0.0
H830 H 0.41107 0.69994 0.03756 0.0
C831 C 0.44715 0.75935 0.95996 0.0
C832 C 0.43276 0.69199 0.95651 0.0
C833 C 0.44798 0.78113 0.94296 0.0
C834 C 0.38078 0.61484 0.0177 0.0
C835 C 0.39187 0.63476 0.00292 0.0
C836 C 0.41756 0.69735 0.01515 0.0
C837 C 0.4339 0.73836 0.94997 0.0
C838 C 0.43093 0.71596 0.96882 0.0
C839 C 0.40732 0.65166 0.01808 0.0
C840 C 0.41787 0.67349 0.00224 0.0
H841 H 0.4127 0.76147 0.88477 0.0
H842 H 0.4114 0.72358 0.91428 0.0
H843 H 0.4223 0.73668 0.0086 0.0
H844 H 0.404 0.62532 0.08649 0.0
H845 H 0.42362 0.66053 0.0606 0.0
C846 C 0.71647 0.43827 0.95043 0.0
C847 C 0.71212 0.42314 0.92561 0.0
C848 C 0.73951 0.43755 0.96492 0.0
C849 C 0.78206 0.41654 0.00227 0.0
H850 H 0.84417 0.40859 0.95923 0.0
C851 C 0.88421 0.36922 0.01933 0.0
C852 C 0.89168 0.3794 0.04634 0.0
C853 C 0.8629 0.37811 0.0052 0.0
C854 C 0.82695 0.41077 0.97153 0.0
H855 H 0.72901 0.39617 0.8959 0.0
H856 H 0.76888 0.39485 0.92118 0.0
H857 H 0.80603 0.41911 0.93262 0.0
H858 H 0.88425 0.40799 0.07887 0.0
H859 H 0.84635 0.42344 0.05435 0.0
H860 H 0.80304 0.40774 0.04112 0.0
C861 C 0.75461 0.40742 0.92935 0.0
C862 C 0.80515 0.41679 0.95632 0.0
C863 C 0.73164 0.40806 0.91496 0.0
C864 C 0.8781 0.39923 0.05862 0.0
C865 C 0.85664 0.40814 0.04451 0.0
C866 C 0.80395 0.41061 0.01753 0.0
C867 C 0.75868 0.42183 0.95476 0.0
C868 C 0.78234 0.41906 0.97141 0.0
C869 C 0.84895 0.39771 0.01757 0.0
C870 C 0.82643 0.40698 0.00216 0.0
H871 H 0.70187 0.45014 0.95922 0.0
H872 H 0.74221 0.44905 0.9843 0.0
H873 H 0.76473 0.41797 0.01448 0.0
H874 H 0.89486 0.35429 0.00921 0.0
H875 H 0.85726 0.36955 0.98463 0.0
C876 C 0.04455 0.70706 0.96977 0.0
C877 C 0.06811 0.69648 0.96415 0.0
C878 C 0.0421 0.7265 0.99016 0.0
C879 C 0.07366 0.76078 0.05014 0.0
H880 H 0.05495 0.82052 0.00713 0.0
C881 C 0.09468 0.86311 0.08836 0.0
C882 C 0.11085 0.87402 0.06765 0.0
C883 C 0.08225 0.8408 0.08165 0.0
C884 C 0.05962 0.80397 0.01973 0.0
H885 H 0.1071 0.69646 0.97701 0.0
H886 H 0.10275 0.72995 0.0129 0.0
H887 H 0.04524 0.77957 0.98656 0.0
H888 H 0.12539 0.87165 0.02323 0.0
H889 H 0.10355 0.83298 0.01133 0.0
H890 H 0.08907 0.7854 0.08264 0.0
C891 C 0.08622 0.72338 0.00151 0.0
C892 C 0.05398 0.78057 0.00806 0.0
C893 C 0.08877 0.7044 0.98073 0.0
C894 C 0.11344 0.86318 0.03974 0.0
C895 C 0.10081 0.84125 0.03289 0.0
C896 C 0.07884 0.78426 0.06212 0.0
C897 C 0.06306 0.73516 0.00571 0.0
C898 C 0.06217 0.75882 0.02238 0.0
C899 C 0.08518 0.82983 0.05376 0.0
C900 C 0.07315 0.80595 0.04612 0.0
H901 H 0.02832 0.7013 0.95724 0.0
H902 H 0.0241 0.73544 0.99294 0.0
H903 H 0.08004 0.74421 0.06161 0.0
H904 H 0.09164 0.87185 0.10958 0.0
H905 H 0.07024 0.83226 0.09802 0.0
C906 C 0.62204 0.10638 0.06 0.0
C907 C 0.60941 0.10157 0.08643 0.0
C908 C 0.64447 0.09434 0.05381 0.0
C909 C 0.69981 0.07054 0.08401 0.0
H910 H 0.70686 0.03803 0.00803 0.0
C911 C 0.78385 0.07935 0.00828 0.0
C912 C 0.79146 0.059 0.99098 0.0
C913 C 0.76393 0.07695 0.02785 0.0
C914 C 0.70519 0.04644 0.02966 0.0
H915 H 0.60892 0.07909 0.12611 0.0
H916 H 0.64933 0.05868 0.11588 0.0
H917 H 0.6653 0.04812 0.0267 0.0
H918 H 0.78519 0.0198 0.98167 0.0
H919 H 0.74955 0.01583 0.01536 0.0
H920 H 0.73985 0.07092 0.08571 0.0
C921 C 0.64183 0.072 0.10022 0.0
C922 C 0.68144 0.0523 0.04022 0.0
C923 C 0.61905 0.08384 0.10621 0.0
C924 C 0.77968 0.03578 0.9948 0.0
C925 C 0.75935 0.0335 0.01401 0.0
C926 C 0.72365 0.06506 0.0732 0.0
C927 C 0.65455 0.07712 0.07385 0.0
C928 C 0.67867 0.0653 0.06686 0.0
C929 C 0.75094 0.05426 0.03013 0.0
C930 C 0.72652 0.05388 0.04536 0.0
H931 H 0.61456 0.11954 0.04414 0.0
H932 H 0.6541 0.09864 0.03341 0.0
H933 H 0.69801 0.08056 0.10461 0.0
H934 H 0.79273 0.0974 0.00597 0.0
H935 H 0.75764 0.09335 0.03971 0.0
C936 C 0.44233 0.72056 0.52423 0.0
C937 C 0.42802 0.71594 0.5497 0.0
C938 C 0.43962 0.74296 0.50869 0.0
C939 C 0.41676 0.80749 0.51709 0.0
H940 H 0.40717 0.80582 0.43233 0.0
C941 C 0.36935 0.88723 0.45569 0.0
C942 C 0.37979 0.89534 0.42905 0.0
C943 C 0.37791 0.86548 0.46909 0.0
C944 C 0.4102 0.80659 0.45592 0.0
H945 H 0.39987 0.73149 0.57893 0.0
H946 H 0.39522 0.77032 0.5519 0.0
H947 H 0.4179 0.76736 0.45873 0.0
H948 H 0.40841 0.88844 0.39635 0.0
H949 H 0.42336 0.84973 0.4197 0.0
H950 H 0.40851 0.84648 0.51449 0.0
C951 C 0.40867 0.75674 0.54407 0.0
C952 C 0.41636 0.78463 0.47102 0.0
C953 C 0.41125 0.73438 0.55947 0.0
C954 C 0.39949 0.88185 0.41634 0.0
C955 C 0.4081 0.85992 0.42976 0.0
C956 C 0.41062 0.82933 0.50207 0.0
C957 C 0.42273 0.76125 0.51845 0.0
C958 C 0.4191 0.7848 0.50185 0.0
C959 C 0.39747 0.85168 0.45639 0.0
C960 C 0.40669 0.82899 0.47147 0.0
H961 H 0.45538 0.70674 0.51603 0.0
H962 H 0.45079 0.74602 0.4891 0.0
H963 H 0.41927 0.80828 0.54076 0.0
H964 H 0.35451 0.89778 0.46614 0.0
H965 H 0.3692 0.85944 0.48943 0.0
C966 C 0.78988 0.39693 0.52562 0.0
C967 C 0.79823 0.41933 0.53832 0.0
C968 C 0.77122 0.39716 0.5042 0.0
C969 C 0.71544 0.4301 0.4875 0.0
H970 H 0.71369 0.38817 0.41778 0.0
C971 C 0.62905 0.37765 0.44991 0.0
C972 C 0.62151 0.3798 0.42046 0.0
C973 C 0.65186 0.38744 0.45899 0.0
C974 C 0.71404 0.40022 0.43693 0.0
H975 H 0.79421 0.45964 0.53787 0.0
H976 H 0.76072 0.45991 0.50102 0.0
H977 H 0.75367 0.39634 0.44242 0.0
H978 H 0.63067 0.39543 0.37778 0.0
H979 H 0.67162 0.41174 0.39349 0.0
H980 H 0.67565 0.43233 0.48344 0.0
C981 C 0.76905 0.44227 0.50739 0.0
C982 C 0.7368 0.40487 0.45098 0.0
C983 C 0.78814 0.44208 0.52843 0.0
C984 C 0.63673 0.39265 0.40032 0.0
C985 C 0.65986 0.40219 0.40933 0.0
C986 C 0.69268 0.42504 0.47382 0.0
C987 C 0.76022 0.41976 0.49543 0.0
C988 C 0.73754 0.4192 0.47691 0.0
C989 C 0.66745 0.39975 0.43882 0.0
C990 C 0.69173 0.40936 0.44906 0.0
H991 H 0.79739 0.37912 0.53265 0.0
H992 H 0.76449 0.37953 0.4956 0.0
H993 H 0.7155 0.44105 0.50757 0.0
H994 H 0.61727 0.36832 0.46593 0.0
H995 H 0.65743 0.38521 0.4818 0.0
C996 C 0.09416 0.62305 0.43723 0.0
C997 C 0.11387 0.60955 0.4499 0.0
C998 C 0.0849 0.64441 0.45123 0.0
C999 C 0.08202 0.69709 0.47795 0.0
H1000 H 0.07345 0.69564 0.56287 0.0
C1001 C 0.08498 0.77011 0.57961 0.0
C1002 C 0.06933 0.7893 0.56931 0.0
C1003 C 0.08574 0.74712 0.56528 0.0
C1004 C 0.07576 0.69633 0.53916 0.0
H1005 H 0.13838 0.60637 0.4876 0.0
H1006 H 0.12262 0.64382 0.51192 0.0
H1007 H 0.08374 0.65727 0.53664 0.0
H1008 H 0.04165 0.79907 0.53627 0.0
H1009 H 0.04305 0.75872 0.5112 0.0
H1010 H 0.07476 0.73635 0.48063 0.0
C1011 C 0.11435 0.63818 0.49118 0.0
C1012 C 0.08166 0.6744 0.52416 0.0
C1013 C 0.12354 0.61696 0.4772 0.0
C1014 C 0.05391 0.78469 0.5448 0.0
C1015 C 0.0548 0.76166 0.53033 0.0
C1016 C 0.07612 0.71909 0.49299 0.0
C1017 C 0.09491 0.65211 0.4784 0.0
C1018 C 0.08553 0.6747 0.49354 0.0
C1019 C 0.07093 0.74276 0.54026 0.0
C1020 C 0.0736 0.71902 0.52384 0.0
H1021 H 0.0858 0.61693 0.41673 0.0
H1022 H 0.06974 0.65467 0.44107 0.0
H1023 H 0.08498 0.69785 0.45436 0.0
H1024 H 0.09709 0.77296 0.59843 0.0
H1025 H 0.09861 0.73303 0.57324 0.0
C1026 C 0.71451 0.05808 0.55387 0.0
C1027 C 0.71293 0.07105 0.58079 0.0
C1028 C 0.73695 0.0574 0.53813 0.0
C1029 C 0.80489 0.06788 0.54462 0.0
H1030 H 0.80043 0.08965 0.46326 0.0
C1031 C 0.88628 0.11604 0.48666 0.0
C1032 C 0.88906 0.11397 0.45608 0.0
C1033 C 0.86593 0.10509 0.50077 0.0
C1034 C 0.8021 0.0831 0.48575 0.0
H1035 H 0.73401 0.09252 0.61283 0.0
H1036 H 0.77306 0.09123 0.58541 0.0
H1037 H 0.76241 0.08061 0.49067 0.0
H1038 H 0.87465 0.0968 0.41645 0.0
H1039 H 0.83891 0.07717 0.44114 0.0
H1040 H 0.8445 0.07087 0.54 0.0
C1041 C 0.75697 0.08155 0.57654 0.0
C1042 C 0.78026 0.0779 0.50146 0.0
C1043 C 0.73452 0.08244 0.59215 0.0
C1044 C 0.87219 0.09936 0.43996 0.0
C1045 C 0.85189 0.08809 0.45413 0.0
C1046 C 0.82672 0.07297 0.5289 0.0
C1047 C 0.7583 0.06942 0.54913 0.0
C1048 C 0.78143 0.07102 0.53131 0.0
C1049 C 0.8483 0.09118 0.48467 0.0
C1050 C 0.82554 0.08156 0.49962 0.0
H1051 H 0.69824 0.04909 0.54446 0.0
H1052 H 0.73751 0.04778 0.51714 0.0
H1053 H 0.80633 0.06213 0.56745 0.0
H1054 H 0.89948 0.12683 0.49953 0.0
H1055 H 0.86364 0.10824 0.52419 0.0
C1056 C 0.48646 0.93808 0.90232 0.0
C1057 C 0.49235 0.91415 0.91298 0.0
C1058 C 0.49019 0.95909 0.91997 0.0
C1059 C 0.51771 0.98157 0.99045 0.0
H1060 H 0.4589 0.02401 0.99157 0.0
C1061 C 0.50486 0.05352 0.08158 0.0
C1062 C 0.50104 0.07795 0.07117 0.0
C1063 C 0.50101 0.03312 0.06302 0.0
C1064 C 0.47546 0.01238 0.99142 0.0
H1065 H 0.50932 0.89373 0.94908 0.0
H1066 H 0.51569 0.93028 0.97992 0.0
H1067 H 0.46211 0.9906 0.95527 0.0
H1068 H 0.48716 0.09997 0.03451 0.0
H1069 H 0.4802 0.0643 0.00224 0.0
H1070 H 0.53089 0.00322 0.02684 0.0
C1071 C 0.50817 0.93293 0.95799 0.0
C1072 C 0.47745 0.99338 0.97047 0.0
C1073 C 0.50459 0.91192 0.94023 0.0
C1074 C 0.49039 0.08138 0.04315 0.0
C1075 C 0.48648 0.06093 0.02459 0.0
C1076 C 0.51564 0.00047 0.01149 0.0
C1077 C 0.49979 0.95655 0.94864 0.0
C1078 C 0.49861 0.97773 0.96973 0.0
C1079 C 0.4931 0.03676 0.03382 0.0
C1080 C 0.49446 0.01602 0.01227 0.0
H1081 H 0.47722 0.9404 0.88125 0.0
H1082 H 0.48427 0.97714 0.91177 0.0
H1083 H 0.53434 0.97005 0.99031 0.0
H1084 H 0.51282 0.05023 0.10319 0.0
H1085 H 0.50561 0.01459 0.07097 0.0
C1086 C 0.43473 0.51722 0.09828 0.0
C1087 C 0.41181 0.50921 0.0865 0.0
C1088 C 0.45722 0.5101 0.08508 0.0
C1089 C 0.48518 0.47014 0.02619 0.0
H1090 H 0.52631 0.52866 0.01215 0.0
C1091 C 0.55526 0.47228 0.93144 0.0
C1092 C 0.57977 0.47919 0.93894 0.0
C1093 C 0.53553 0.477 0.95074 0.0
C1094 C 0.51514 0.51212 0.01608 0.0
H1095 H 0.39463 0.48487 0.05415 0.0
H1096 H 0.43365 0.47262 0.03108 0.0
H1097 H 0.49175 0.53098 0.04707 0.0
H1098 H 0.60245 0.49854 0.97127 0.0
H1099 H 0.56778 0.50715 0.00485 0.0
H1100 H 0.50818 0.45156 0.99446 0.0
C1101 C 0.43443 0.48447 0.05039 0.0
C1102 C 0.49545 0.51333 0.03628 0.0
C1103 C 0.41195 0.49147 0.0637 0.0
C1104 C 0.58377 0.49304 0.96483 0.0
C1105 C 0.56394 0.49784 0.98415 0.0
C1106 C 0.50474 0.469 0.00585 0.0
C1107 C 0.4572 0.49486 0.05986 0.0
C1108 C 0.48 0.49245 0.04129 0.0
C1109 C 0.53985 0.48883 0.97787 0.0
C1110 C 0.51966 0.49009 0.00022 0.0
H1111 H 0.43526 0.53068 0.11609 0.0
H1112 H 0.47451 0.51781 0.09351 0.0
H1113 H 0.47392 0.45362 0.0298 0.0
H1114 H 0.55152 0.46176 0.91154 0.0
H1115 H 0.51702 0.47044 0.94498 0.0
C1116 C 0.9899 0.57926 0.92636 0.0
C1117 C 0.0068 0.58066 0.90271 0.0
C1118 C 0.98526 0.55643 0.94019 0.0
C1119 C 0.02013 0.49849 0.95338 0.0
H1120 H 0.9622 0.48204 0.0008 0.0
C1121 C 0.00875 0.41071 0.0289 0.0
C1122 C 0.99591 0.41474 0.05553 0.0
C1123 C 0.01218 0.43038 0.00896 0.0
C1124 C 0.97859 0.48655 0.98781 0.0
H1125 H 0.02879 0.55875 0.87197 0.0
H1126 H 0.01998 0.51881 0.8955 0.0
H1127 H 0.95921 0.51504 0.96397 0.0
H1128 H 0.97963 0.443 0.08387 0.0
H1129 H 0.9859 0.47723 0.0493 0.0
H1130 H 0.03939 0.46978 0.97736 0.0
C1131 C 0.01122 0.53548 0.90421 0.0
C1132 C 0.97684 0.50537 0.96663 0.0
C1133 C 0.01597 0.55836 0.89046 0.0
C1134 C 0.98934 0.43925 0.06338 0.0
C1135 C 0.99266 0.45881 0.04346 0.0
C1136 C 0.02179 0.47945 0.97441 0.0
C1137 C 0.99717 0.53453 0.93038 0.0
C1138 C 0.99773 0.51198 0.94957 0.0
C1139 C 0.00283 0.45427 0.01545 0.0
C1140 C 0.00119 0.47372 0.99229 0.0
H1141 H 0.98233 0.59607 0.93621 0.0
H1142 H 0.9742 0.55648 0.96018 0.0
H1143 H 0.03676 0.50333 0.94104 0.0
H1144 H 0.01401 0.39202 0.0222 0.0
H1145 H 0.0203 0.42645 0.98758 0.0
C1146 C 0.08826 0.99349 0.03422 0.0
C1147 C 0.08657 0.98167 0.06184 0.0
C1148 C 0.06678 0.99743 0.0173 0.0
C1149 C 0.00697 0.96674 0.0063 0.0
H1150 H 0.98961 0.02415 0.95855 0.0
C1151 C 0.91047 0.98127 0.95403 0.0
C1152 C 0.90836 0.99721 0.92956 0.0
C1153 C 0.93391 0.97593 0.96598 0.0
C1154 C 0.9945 0.00771 0.9712 0.0
H1155 H 0.06084 0.96772 0.09497 0.0
H1156 H 0.02347 0.97483 0.06555 0.0
H1157 H 0.02627 0.0259 0.99038 0.0
H1158 H 0.92919 0.01673 0.89562 0.0
H1159 H 0.97012 0.0066 0.91581 0.0
H1160 H 0.97542 0.94841 0.98714 0.0
C1161 C 0.04142 0.98041 0.05667 0.0
C1162 C 0.01536 0.00887 0.98966 0.0
C1163 C 0.06282 0.97661 0.07363 0.0
C1164 C 0.9302 0.0047 0.91479 0.0
C1165 C 0.95366 -0.00081 0.9266 0.0
C1166 C 0.98628 0.96547 0.98765 0.0
C1167 C 0.04335 0.98959 0.02777 0.0
C1168 C 0.02151 0.98857 0.00779 0.0
C1169 C 0.95567 0.98614 0.9534 0.0
C1170 C 0.97952 0.98608 0.97021 0.0
H1171 H 0.10628 0.99767 0.02454 0.0
H1172 H 0.06876 0.00476 0.99516 0.0
H1173 H 0.01168 0.95055 0.01951 0.0
H1174 H 0.89401 0.97508 0.96586 0.0
H1175 H 0.93467 0.96571 0.98656 0.0
C1176 C 0.4966 0.56714 0.5573 0.0
C1177 C 0.50016 0.59162 0.54698 0.0
C1178 C 0.50119 0.54684 0.53887 0.0
C1179 C 0.52946 0.52429 0.47061 0.0
H1180 H 0.46886 0.48476 0.46501 0.0
C1181 C 0.52525 0.44077 0.39231 0.0
C1182 C 0.51656 0.41875 0.40572 0.0
C1183 C 0.52056 0.46399 0.40523 0.0
C1184 C 0.48597 0.49547 0.46638 0.0
H1185 H 0.51441 0.61393 0.51075 0.0
H1186 H 0.52297 0.57822 0.47872 0.0
H1187 H 0.47065 0.51989 0.49901 0.0
H1188 H 0.49369 0.404 0.44115 0.0
H1189 H 0.48578 0.44417 0.46381 0.0
H1190 H 0.5452 0.49935 0.43887 0.0
C1191 C 0.51619 0.57487 0.50087 0.0
C1192 C 0.48701 0.51555 0.48591 0.0
C1193 C 0.51143 0.59528 0.5193 0.0
C1194 C 0.50076 0.4206 0.43033 0.0
C1195 C 0.49621 0.44375 0.44336 0.0
C1196 C 0.52856 0.50395 0.45131 0.0
C1197 C 0.5097 0.55065 0.50996 0.0
C1198 C 0.50888 0.52985 0.48857 0.0
C1199 C 0.50713 0.46558 0.43182 0.0
C1200 C 0.50691 0.48905 0.4493 0.0
H1201 H 0.48821 0.56369 0.57865 0.0
H1202 H 0.49661 0.52823 0.54658 0.0
H1203 H 0.54648 0.53515 0.47221 0.0
H1204 H 0.53729 0.43998 0.37313 0.0
H1205 H 0.5286 0.48052 0.39528 0.0
C1206 C 0.0569 0.5097 0.42893 0.0
C1207 C 0.08126 0.50429 0.43853 0.0
C1208 C 0.03654 0.50578 0.44758 0.0
C1209 C 0.01473 0.47729 0.51704 0.0
H1210 H 0.97461 0.53755 0.52209 0.0
C1211 C 0.93541 0.48331 0.60087 0.0
C1212 C 0.91244 0.49035 0.58834 0.0
C1213 C 0.9578 0.48825 0.58611 0.0
C1214 C 0.98553 0.52055 0.5209 0.0
H1215 H 0.10308 0.48769 0.47373 0.0
H1216 H 0.06739 0.4805 0.50617 0.0
H1217 H 0.00867 0.53519 0.48656 0.0
H1218 H 0.89521 0.51116 0.5527 0.0
H1219 H 0.93403 0.5197 0.52704 0.0
H1220 H 0.99126 0.46239 0.55089 0.0
C1221 C 0.06409 0.48807 0.48437 0.0
C1222 C 0.00496 0.51913 0.50043 0.0
C1223 C 0.08453 0.49203 0.46567 0.0
C1224 C 0.91256 0.5053 0.56288 0.0
C1225 C 0.93492 0.51016 0.54807 0.0
C1226 C 0.99516 0.47863 0.53741 0.0
C1227 C 0.04013 0.49625 0.47611 0.0
C1228 C 0.01955 0.49738 0.49799 0.0
C1229 C 0.95762 0.5004 0.55863 0.0
C1230 C 0.98014 0.5002 0.53938 0.0
H1231 H 0.05375 0.51894 0.40801 0.0
H1232 H 0.01816 0.51159 0.44032 0.0
H1233 H 0.02567 0.46031 0.51566 0.0
H1234 H 0.936 0.472 0.62067 0.0
H1235 H 0.97507 0.48118 0.59533 0.0
C1236 C 0.01297 0.9432 0.56957 0.0
C1237 C 0.00692 0.91856 0.56168 0.0
C1238 C 0.00919 0.96272 0.54972 0.0
C1239 C 0.9788 0.98332 0.48174 0.0
H1240 H 0.04036 0.02042 0.47038 0.0
C1241 C 0.98057 0.06451 0.40081 0.0
C1242 C 0.98972 0.08664 0.4135 0.0
C1243 C 0.98627 0.04136 0.41336 0.0
C1244 C 0.023 0.01033 0.4733 0.0
H1245 H 0.98939 0.89551 0.52828 0.0
H1246 H 0.98221 0.92991 0.4938 0.0
H1247 H 0.03885 0.98665 0.50638 0.0
H1248 H 0.01495 0.1016 0.44643 0.0
H1249 H 0.02464 0.06155 0.46841 0.0
H1250 H 0.96256 0.00758 0.44964 0.0
C1251 C 0.9903 0.93394 0.51516 0.0
C1252 C 0.02211 0.99105 0.49399 0.0
C1253 C 0.99423 0.91429 0.53501 0.0
C1254 C 0.00742 0.08493 0.43625 0.0
C1255 C 0.01296 0.06182 0.44894 0.0
C1256 C 0.97958 0.00283 0.46125 0.0
C1257 C -0.00096 0.95803 0.52175 0.0
C1258 C -0.00012 0.9777 0.49882 0.0
C1259 C 0.00118 0.03995 0.43881 0.0
C1260 C 0.00158 0.01689 0.45716 0.0
H1261 H 0.02255 0.94714 0.59008 0.0
H1262 H 0.01549 0.98129 0.55562 0.0
H1263 H 0.96146 0.97325 0.48501 0.0
H1264 H 0.96715 0.06518 0.38296 0.0
H1265 H 0.97757 0.02477 0.40437 0.0
C1266 C 0.55398 0.02947 0.5849 0.0
C1267 C 0.57784 0.02238 0.57501 0.0
C1268 C 0.53304 0.02583 0.56708 0.0
C1269 C 0.51807 0.02265 0.48859 0.0
H1270 H 0.45164 0.00529 0.5157 0.0
C1271 C 0.43591 -0.00076 0.41166 0.0
C1272 C 0.41147 0.00391 0.42153 0.0
C1273 C 0.45636 0.00543 0.42924 0.0
C1274 C 0.46999 0.01068 0.5079 0.0
H1275 H 0.59815 0.00375 0.53997 0.0
H1276 H 0.56148 0.99704 0.50903 0.0
H1277 H 0.48659 0.00376 0.55006 0.0
H1278 H 0.38938 0.02147 0.45583 0.0
H1279 H 0.42519 0.03281 0.48627 0.0
H1280 H 0.5015 0.02953 0.44642 0.0
C1281 C 0.55909 0.00593 0.53029 0.0
C1282 C 0.49004 0.00956 0.52755 0.0
C1283 C 0.58003 0.00947 0.54819 0.0
C1284 C 0.40799 0.01749 0.4477 0.0
C1285 C 0.42848 0.02368 0.46533 0.0
C1286 C 0.49801 0.02384 0.46896 0.0
C1287 C 0.53559 0.01505 0.53901 0.0
C1288 C 0.51433 0.01535 0.51805 0.0
C1289 C 0.45276 0.01651 0.45699 0.0
C1290 C 0.47375 0.01773 0.47834 0.0
H1291 H 0.55168 0.03941 0.60551 0.0
H1292 H 0.51519 0.03301 0.57446 0.0
H1293 H 0.53649 0.0278 0.48079 0.0
H1294 H 0.4392 0.98892 0.39149 0.0
H1295 H 0.47479 -0.00032 0.42208 0.0
C1296 C 0.53773 0.28347 0.33226 0.0
C1297 C 0.53294 0.30921 0.33277 0.0
C1298 C 0.52366 0.26768 0.31455 0.0
C1299 C 0.49485 0.26544 0.24462 0.0
H1300 H 0.47847 0.19852 0.27112 0.0
C1301 C 0.49913 0.1834 0.16442 0.0
C1302 C 0.51774 0.167 0.17456 0.0
C1303 C 0.48775 0.20021 0.18393 0.0
C1304 C 0.48241 0.21724 0.26332 0.0
H1305 H 0.50929 0.33872 0.31581 0.0
H1306 H 0.48508 0.31084 0.28319 0.0
H1307 H 0.48299 0.2321 0.3071 0.0
H1308 H 0.53742 0.15358 0.21311 0.0
H1309 H 0.51729 0.1822 0.24713 0.0
H1310 H 0.49664 0.25011 0.20113 0.0
C1311 C 0.49951 0.30302 0.29717 0.0
C1312 C 0.48495 0.23644 0.28388 0.0
C1313 C 0.51332 0.3189 0.31565 0.0
C1314 C 0.52311 0.16602 0.20478 0.0
C1315 C 0.51142 0.18236 0.22428 0.0
C1316 C 0.49234 0.24619 0.22401 0.0
C1317 C 0.50467 0.27726 0.29648 0.0
C1318 C 0.49285 0.26028 0.27487 0.0
C1319 C 0.49446 0.20039 0.2139 0.0
C1320 C 0.48778 0.22157 0.23344 0.0
H1321 H 0.55256 0.27549 0.34554 0.0
H1322 H 0.52839 0.24801 0.31409 0.0
H1323 H 0.501 0.28364 0.23711 0.0
H1324 H 0.49485 0.18462 0.14112 0.0
H1325 H 0.47475 0.21392 0.17537 0.0
C1326 C 0.16132 0.54718 0.30265 0.0
C1327 C 0.16316 0.53517 0.33006 0.0
C1328 C 0.17584 0.53934 0.2789 0.0
C1329 C 0.23743 0.51352 0.26657 0.0
H1330 H 0.21859 0.52329 0.18488 0.0
C1331 C 0.30896 0.52733 0.17012 0.0
C1332 C 0.30418 0.54974 0.15487 0.0
C1333 C 0.29128 0.51768 0.18997 0.0
C1334 C 0.22412 0.52018 0.20756 0.0
H1335 H 0.18035 0.50449 0.35367 0.0
H1336 H 0.20611 0.49078 0.31194 0.0
H1337 H 0.18618 0.51838 0.22229 0.0
H1338 H 0.27688 0.57927 0.14828 0.0
H1339 H 0.24637 0.56241 0.18231 0.0
H1340 H 0.27542 0.51665 0.25184 0.0
C1341 C 0.19333 0.50626 0.30891 0.0
C1342 C 0.20559 0.51739 0.22896 0.0
C1343 C 0.17843 0.51393 0.33267 0.0
C1344 C 0.28136 0.56208 0.15972 0.0
C1345 C 0.26367 0.55227 0.179 0.0
C1346 C 0.25602 0.51619 0.24506 0.0
C1347 C 0.19281 0.51947 0.28209 0.0
C1348 C 0.21201 0.51531 0.2589 0.0
C1349 C 0.26835 0.52998 0.1943 0.0
C1350 C 0.24946 0.52079 0.2156 0.0
H1351 H 0.14973 0.56363 0.30007 0.0
H1352 H 0.17512 0.55013 0.25872 0.0
H1353 H 0.24303 0.51209 0.28945 0.0
H1354 H 0.32636 0.51737 0.16683 0.0
H1355 H 0.29537 0.50052 0.20168 0.0
C1356 C 0.95822 0.34527 0.19575 0.0
C1357 C 0.96696 0.33681 0.16841 0.0
C1358 C 0.96304 0.33161 0.22129 0.0
C1359 C 0.99445 0.27539 0.25294 0.0
H1360 H 0.93004 0.26778 0.29102 0.0
C1361 C 0.9668 0.19327 0.33214 0.0
C1362 C 0.95043 0.19945 0.35524 0.0
C1363 C 0.9737 0.21144 0.31132 0.0
C1364 C 0.94833 0.26991 0.2811 0.0
H1365 H 0.98927 0.30876 0.14636 0.0
H1366 H 0.99721 0.28435 0.19101 0.0
H1367 H 0.93502 0.29846 0.2525 0.0
H1368 H 0.93035 0.22972 0.37633 0.0
H1369 H 0.94285 0.26126 0.34093 0.0
H1370 H 0.00738 0.24608 0.28157 0.0
C1371 C 0.98711 0.30179 0.19291 0.0
C1372 C 0.95123 0.28765 0.25897 0.0
C1373 C 0.98264 0.3158 0.16735 0.0
C1374 C 0.94247 0.22428 0.35831 0.0
C1375 C 0.94962 0.24236 0.33797 0.0
C1376 C 0.99154 0.25751 0.27536 0.0
C1377 C 0.97607 0.30881 0.21982 0.0
C1378 C 0.9743 0.29076 0.24467 0.0
C1379 C 0.96454 0.23603 0.31361 0.0
C1380 C 0.96842 0.25471 0.28977 0.0
H1381 H 0.94606 0.36141 0.19704 0.0
H1382 H 0.95487 0.33787 0.24184 0.0
H1383 H 0.01242 0.27724 0.24218 0.0
H1384 H 0.9733 0.17425 0.32944 0.0
H1385 H 0.98522 0.20598 0.29278 0.0
C1386 C 0.31398 0.99762 0.32107 0.0
C1387 C 0.32857 0.97621 0.31598 0.0
C1388 C 0.29901 0.00745 0.29854 0.0
C1389 C 0.28543 0.00317 0.21828 0.0
H1390 H 0.21615 0.99777 0.24262 0.0
C1391 C 0.21355 0.95131 0.1531 0.0
C1392 C 0.18889 0.95985 0.15016 0.0
C1393 C 0.23072 0.96446 0.16997 0.0
C1394 C 0.23531 0.0002 0.23545 0.0
H1395 H 0.34074 0.94967 0.28298 0.0
H1396 H 0.31526 0.96703 0.24365 0.0
H1397 H 0.24883 0.00194 0.2798 0.0
H1398 H 0.16289 0.98918 0.16192 0.0
H1399 H 0.19311 0.01198 0.19305 0.0
H1400 H 0.27204 -0.00074 0.17407 0.0
C1401 C 0.31514 0.97625 0.2649 0.0
C1402 C 0.25406 0.00258 0.25675 0.0
C1403 C 0.32965 0.96617 0.28747 0.0
C1404 C 0.18181 0.98224 0.16397 0.0
C1405 C 0.19903 0.99523 0.18164 0.0
C1406 C 0.26672 0.00081 0.19705 0.0
C1407 C 0.29888 0.99633 0.27048 0.0
C1408 C 0.27939 0.00249 0.2484 0.0
C1409 C 0.22365 0.98635 0.18475 0.0
C1410 C 0.24166 0.99771 0.20557 0.0
H1411 H 0.31268 0.00559 0.34297 0.0
H1412 H 0.28666 0.02294 0.30341 0.0
H1413 H 0.30476 0.00348 0.21122 0.0
H1414 H 0.21959 0.93426 0.14237 0.0
H1415 H 0.24939 0.95689 0.17237 0.0
C1416 C 0.49702 0.81503 0.81535 0.0
C1417 C 0.47428 0.82679 0.80844 0.0
C1418 C 0.50843 0.79908 0.79494 0.0
C1419 C 0.50601 0.77629 0.71757 0.0
H1420 H 0.50734 0.71038 0.75306 0.0
C1421 C 0.46719 0.67806 0.68245 0.0
C1422 C 0.47634 0.67597 0.65355 0.0
C1423 C 0.47832 0.69448 0.70235 0.0
C1424 C 0.50757 0.72868 0.74285 0.0
H1425 H 0.44705 0.83328 0.77398 0.0
H1426 H 0.46713 0.80598 0.73826 0.0
H1427 H 0.50678 0.7473 0.78452 0.0
H1428 H 0.50545 0.68797 0.62346 0.0
H1429 H 0.52466 0.71715 0.65824 0.0
H1430 H 0.50485 0.75761 0.67594 0.0
C1431 C 0.47614 0.80882 0.75937 0.0
C1432 C 0.50744 0.74984 0.76085 0.0
C1433 C 0.46453 0.82437 0.77988 0.0
C1434 C 0.49806 0.68914 0.64565 0.0
C1435 C 0.50897 0.70593 0.66546 0.0
C1436 C 0.50635 0.75513 0.69957 0.0
C1437 C 0.49751 0.79507 0.76717 0.0
C1438 C 0.50531 0.7738 0.74838 0.0
C1439 C 0.49861 0.70943 0.69363 0.0
C1440 C 0.50579 0.73111 0.7121 0.0
H1441 H 0.50487 0.81647 0.83729 0.0
H1442 H 0.52496 0.78878 0.80145 0.0
H1443 H 0.50455 0.79455 0.70741 0.0
H1444 H 0.45053 0.66806 0.68916 0.0
H1445 H 0.46974 0.6969 0.7238 0.0
C1446 C 0.80581 0.47875 0.67228 0.0
C1447 C 0.80082 0.45706 0.65586 0.0
C1448 C 0.78725 0.48912 0.69045 0.0
C1449 C 0.71886 0.48821 0.70448 0.0
H1450 H 0.7364 0.49072 0.78728 0.0
C1451 C 0.6566 0.45212 0.79551 0.0
C1452 C 0.65824 0.46172 0.82421 0.0
C1453 C 0.67047 0.46269 0.77268 0.0
C1454 C 0.73117 0.4909 0.76422 0.0
H1455 H 0.77223 0.43009 0.64428 0.0
H1456 H 0.74016 0.44813 0.67538 0.0
H1457 H 0.76935 0.48871 0.75024 0.0
H1458 H 0.67409 0.49108 0.85117 0.0
H1459 H 0.69871 0.50953 0.81111 0.0
H1460 H 0.68067 0.48869 0.71852 0.0
C1461 C 0.75824 0.45719 0.67448 0.0
C1462 C 0.7501 0.48972 0.74298 0.0
C1463 C 0.77676 0.44664 0.65692 0.0
C1464 C 0.67235 0.48344 0.82916 0.0
C1465 C 0.6866 0.49385 0.80632 0.0
C1466 C 0.69996 0.48943 0.72567 0.0
C1467 C 0.7633 0.4783 0.69178 0.0
C1468 C 0.74407 0.48697 0.71303 0.0
C1469 C 0.68658 0.48292 0.77812 0.0
C1470 C 0.70589 0.48939 0.75584 0.0
H1471 H 0.8242 0.48717 0.67183 0.0
H1472 H 0.79165 0.50536 0.70367 0.0
H1473 H 0.7137 0.48656 0.68148 0.0
H1474 H 0.64589 0.43536 0.79113 0.0
H1475 H 0.67014 0.45363 0.75134 0.0
C1476 C 0.04413 0.84006 0.70227 0.0
C1477 C 0.03303 0.83917 0.67428 0.0
C1478 C 0.03458 0.82579 0.7254 0.0
C1479 C 0.00616 0.76545 0.73489 0.0
H1480 H 0.01219 0.78269 0.81754 0.0
C1481 C 0.01859 0.69054 0.82655 0.0
C1482 C 0.04015 0.69539 0.84332 0.0
C1483 C 0.0085 0.70915 0.80825 0.0
C1484 C 0.01012 0.77759 0.79457 0.0
H1485 H 0.00223 0.82406 0.64896 0.0
H1486 H 0.98568 0.79865 0.68949 0.0
H1487 H 0.00982 0.81581 0.78064 0.0
H1488 H 0.06726 0.72384 0.85509 0.0
H1489 H 0.04981 0.75588 0.82363 0.0
H1490 H 0.00823 0.72723 0.74869 0.0
C1491 C 0.00169 0.81054 0.6935 0.0
C1492 C 0.00873 0.79654 0.77348 0.0
C1493 C 0.01104 0.82521 0.67041 0.0
C1494 C 0.05081 0.71935 0.84224 0.0
C1495 C 0.04059 0.73789 0.82446 0.0
C1496 C 0.00758 0.74646 0.75603 0.0
C1497 C 0.01393 0.81002 0.72092 0.0
C1498 C 0.00804 0.79066 0.74332 0.0
C1499 C 0.01951 0.733 0.80702 0.0
C1500 C 0.01092 0.75239 0.78592 0.0
H1501 H 0.0611 0.85066 0.70584 0.0
H1502 H 0.04462 0.82566 0.74613 0.0
H1503 H 0.00577 0.76031 0.7118 0.0
H1504 H 0.00995 0.67225 0.82701 0.0
H1505 H 0.99228 0.70487 0.79493 0.0
C1506 C 0.65001 0.03562 0.71237 0.0
C1507 C 0.661 0.03282 0.68457 0.0
C1508 C 0.66228 0.0269 0.73749 0.0
C1509 C 0.72024 0.99509 0.76507 0.0
H1510 H 0.7197 0.05097 0.8193 0.0
C1511 C 0.80169 0.02072 0.84439 0.0
C1512 C 0.79541 0.0331 0.8706 0.0
C1513 C 0.78288 0.01372 0.82452 0.0
C1514 C 0.7198 0.03484 0.80491 0.0
H1515 H 0.69226 0.01735 0.66053 0.0
H1516 H 0.71424 0.00278 0.70442 0.0
H1517 H 0.68968 0.0496 0.77985 0.0
H1518 H 0.76497 0.04579 0.8982 0.0
H1519 H 0.73221 0.03267 0.86443 0.0
H1520 H 0.75139 0.98104 0.78992 0.0
C1521 C 0.69588 0.01098 0.70703 0.0
C1522 C 0.70242 0.03401 0.78217 0.0
C1523 C 0.68331 0.01929 0.68184 0.0
C1524 C 0.7702 0.03661 0.87781 0.0
C1525 C 0.75149 0.0292 0.85841 0.0
C1526 C 0.73778 0.99592 0.78802 0.0
C1527 C 0.68617 0.01602 0.73525 0.0
C1528 C 0.70255 0.01435 0.76167 0.0
C1529 C 0.75759 0.01871 0.83092 0.0
C1530 C 0.73791 0.01601 0.808 0.0
H1531 H 0.63285 0.04614 0.71488 0.0
H1532 H 0.65396 0.03047 0.75884 0.0
H1533 H 0.72082 0.97964 0.74969 0.0
H1534 H 0.82109 0.01789 0.83847 0.0
H1535 H 0.78824 0.00578 0.80351 0.0
loop_
_geom_bond_atom_site_label_1
_geom_bond_atom_site_label_2
_geom_bond_distance
_geom_bond_site_symmetry_2
_ccdc_geom_bond_type
Mn0 O5 2.095 . S
Mn0 O15 2.162 . S
Mn0 O16 2.297 . S
Mn0 O24 2.385 . S
Mn0 O25 2.209 . S
Mn0 O26 2.094 . S
Mn1 O6 2.121 . S
Mn1 N8 2.257 . S
Mn1 N17 2.282 . S
Mn1 O25 2.215 . S
Mn1 O27 2.117 . S
C2 O24 1.234 . S
C2 O25 1.283 . S
C3 O15 1.281 . S
C3 O16 1.236 . S
C4 O26 1.240 . S
C4 O27 1.264 . S
O5 Mn0 2.095 . S
O5 C14 1.250 . S
O6 Mn1 2.121 . S
O6 C14 1.258 . S
C7 N8 1.326 . S
C7 C11 1.460 . S
C7 H13 0.929 . S
N8 Mn1 2.257 . S
N8 C7 1.326 . S
N8 C12 1.362 . S
C9 C10 1.258 . S
C9 C12 1.431 . S
C9 C29 1.449 . S
C10 C9 1.258 . S
C10 C11 1.477 . S
C10 H30 0.931 . S
C11 C7 1.460 . S
C11 C10 1.477 . S
C11 H31 0.930 . S
C12 N8 1.362 . S
C12 C9 1.431 . S
C12 C22 1.476 . S
H13 C7 0.929 . S
C14 O5 1.250 . S
C14 O6 1.258 . S
O15 Mn0 2.162 . S
O15 C3 1.281 . S
O16 Mn0 2.297 . S
O16 C3 1.236 . S
N17 Mn1 2.282 . S
N17 C18 1.328 . S
N17 C22 1.318 . S
C18 N17 1.328 . S
C18 C19 1.457 . S
C18 H23 0.929 . S
C19 C18 1.457 . S
C19 C20 1.291 . S
C19 H32 0.931 1_554 S
C20 C19 1.291 . S
C20 C21 1.373 . S
C20 H33 0.929 . S
C21 C20 1.373 . S
C21 C22 1.396 . S
C21 C28 1.403 . S
C22 C12 1.476 . S
C22 N17 1.318 . S
C22 C21 1.396 . S
H23 C18 0.929 . S
O24 Mn0 2.385 . S
O24 C2 1.234 . S
O25 Mn0 2.209 . S
O25 Mn1 2.215 . S
O25 C2 1.283 . S
O26 Mn0 2.094 . S
O26 C4 1.240 . S
O27 Mn1 2.117 . S
O27 C4 1.264 . S
C28 C21 1.403 . S
C28 C29 1.399 . S
C28 H34 0.929 . S
C29 C9 1.449 . S
C29 C28 1.399 . S
C29 H35 0.930 . S
H30 C10 0.931 . S
H31 C11 0.930 . S
H32 C19 0.931 1_556 S
H33 C20 0.929 . S
H34 C28 0.929 . S
H35 C29 0.930 . S
Mn36 O41 2.095 . S
Mn36 O51 2.162 . S
Mn36 O52 2.297 . S
Mn36 O60 2.385 . S
Mn36 O61 2.209 . S
Mn36 O62 2.094 . S
Mn37 O42 2.121 . S
Mn37 N44 2.257 . S
Mn37 N53 2.282 . S
Mn37 O61 2.215 . S
Mn37 O63 2.117 . S
C38 O60 1.234 . S
C38 O61 1.283 . S
C39 O51 1.281 . S
C39 O52 1.236 . S
C40 O62 1.240 . S
C40 O63 1.264 . S
O41 Mn36 2.095 . S
O41 C50 1.250 . S
O42 Mn37 2.121 . S
O42 C50 1.258 . S
C43 N44 1.326 . S
C43 C47 1.460 . S
C43 H49 0.929 . S
N44 Mn37 2.257 . S
N44 C43 1.326 . S
N44 C48 1.362 . S
C45 C46 1.258 . S
C45 C48 1.431 . S
C45 C65 1.449 . S
C46 C45 1.258 . S
C46 C47 1.477 . S
C46 H66 0.931 . S
C47 C43 1.460 . S
C47 C46 1.477 . S
C47 H67 0.930 . S
C48 N44 1.362 . S
C48 C45 1.431 . S
C48 C58 1.476 . S
H49 C43 0.929 . S
C50 O41 1.250 . S
C50 O42 1.258 . S
O51 Mn36 2.162 . S
O51 C39 1.281 . S
O52 Mn36 2.297 . S
O52 C39 1.236 . S
N53 Mn37 2.282 . S
N53 C54 1.328 . S
N53 C58 1.318 . S
C54 N53 1.328 . S
C54 C55 1.457 . S
C54 H59 0.929 . S
C55 C54 1.457 . S
C55 C56 1.291 . S
C55 H68 0.931 1_554 S
C56 C55 1.291 . S
C56 C57 1.373 . S
C56 H69 0.929 . S
C57 C56 1.373 . S
C57 C58 1.396 . S
C57 C64 1.403 . S
C58 C48 1.476 . S
C58 N53 1.318 . S
C58 C57 1.396 . S
H59 C54 0.929 . S
O60 Mn36 2.385 . S
O60 C38 1.234 . S
O61 Mn36 2.209 . S
O61 Mn37 2.215 . S
O61 C38 1.283 . S
O62 Mn36 2.094 . S
O62 C40 1.240 . S
O63 Mn37 2.117 . S
O63 C40 1.264 . S
C64 C57 1.403 . S
C64 C65 1.399 . S
C64 H70 0.929 . S
C65 C45 1.449 . S
C65 C64 1.399 . S
C65 H71 0.930 . S
H66 C46 0.931 . S
H67 C47 0.930 . S
H68 C55 0.931 1_556 S
H69 C56 0.929 . S
H70 C64 0.929 . S
H71 C65 0.930 . S
Mn72 O77 2.095 . S
Mn72 O87 2.162 . S
Mn72 O88 2.297 . S
Mn72 O96 2.385 . S
Mn72 O97 2.209 . S
Mn72 O98 2.094 . S
Mn73 O78 2.121 . S
Mn73 N80 2.257 . S
Mn73 N89 2.282 . S
Mn73 O97 2.215 . S
Mn73 O99 2.117 . S
C74 O96 1.234 . S
C74 O97 1.283 . S
C75 O87 1.281 . S
C75 O88 1.236 . S
C76 O98 1.240 . S
C76 O99 1.264 . S
O77 Mn72 2.095 . S
O77 C86 1.250 . S
O78 Mn73 2.121 . S
O78 C86 1.258 . S
C79 N80 1.326 . S
C79 C83 1.460 . S
C79 H85 0.929 . S
N80 Mn73 2.257 . S
N80 C79 1.326 . S
N80 C84 1.362 . S
C81 C82 1.258 . S
C81 C84 1.431 . S
C81 C101 1.449 . S
C82 C81 1.258 . S
C82 C83 1.477 . S
C82 H102 0.931 . S
C83 C79 1.460 . S
C83 C82 1.477 . S
C83 H103 0.930 . S
C84 N80 1.362 . S
C84 C81 1.431 . S
C84 C94 1.476 . S
H85 C79 0.929 . S
C86 O77 1.250 . S
C86 O78 1.258 . S
O87 Mn72 2.162 . S
O87 C75 1.281 . S
O88 Mn72 2.297 . S
O88 C75 1.236 . S
N89 Mn73 2.282 . S
N89 C90 1.328 . S
N89 C94 1.318 . S
C90 N89 1.328 . S
C90 C91 1.457 . S
C90 H95 0.929 . S
C91 C90 1.457 . S
C91 C92 1.291 . S
C91 H104 0.931 1_554 S
C92 C91 1.291 . S
C92 C93 1.373 . S
C92 H105 0.929 . S
C93 C92 1.373 . S
C93 C94 1.396 . S
C93 C100 1.403 . S
C94 C84 1.476 . S
C94 N89 1.318 . S
C94 C93 1.396 . S
H95 C90 0.929 . S
O96 Mn72 2.385 . S
O96 C74 1.234 . S
O97 Mn72 2.209 . S
O97 Mn73 2.215 . S
O97 C74 1.283 . S
O98 Mn72 2.094 . S
O98 C76 1.240 . S
O99 Mn73 2.117 . S
O99 C76 1.264 . S
C100 C93 1.403 . S
C100 C101 1.399 . S
C100 H106 0.929 . S
C101 C81 1.449 . S
C101 C100 1.399 . S
C101 H107 0.930 . S
H102 C82 0.931 . S
H103 C83 0.930 . S
H104 C91 0.931 1_556 S
H105 C92 0.929 . S
H106 C100 0.929 . S
H107 C101 0.930 . S
Mn108 O113 2.095 . S
Mn108 O123 2.162 . S
Mn108 O124 2.297 . S
Mn108 O132 2.385 . S
Mn108 O133 2.209 . S
Mn108 O134 2.094 . S
Mn109 O114 2.121 . S
Mn109 N116 2.257 . S
Mn109 N125 2.282 . S
Mn109 O133 2.215 . S
Mn109 O135 2.117 . S
C110 O132 1.234 . S
C110 O133 1.283 . S
C111 O123 1.281 . S
C111 O124 1.236 . S
C112 O134 1.240 . S
C112 O135 1.264 . S
O113 Mn108 2.095 . S
O113 C122 1.250 . S
O114 Mn109 2.121 . S
O114 C122 1.258 . S
C115 N116 1.326 . S
C115 C119 1.460 . S
C115 H121 0.929 . S
N116 Mn109 2.257 . S
N116 C115 1.326 . S
N116 C120 1.362 . S
C117 C118 1.258 . S
C117 C120 1.431 . S
C117 C137 1.449 . S
C118 C117 1.258 . S
C118 C119 1.477 . S
C118 H138 0.931 . S
C119 C115 1.460 . S
C119 C118 1.477 . S
C119 H139 0.930 . S
C120 N116 1.362 . S
C120 C117 1.431 . S
C120 C130 1.476 . S
H121 C115 0.929 . S
C122 O113 1.250 . S
C122 O114 1.258 . S
O123 Mn108 2.162 . S
O123 C111 1.281 . S
O124 Mn108 2.297 . S
O124 C111 1.236 . S
N125 Mn109 2.282 . S
N125 C126 1.328 . S
N125 C130 1.318 . S
C126 N125 1.328 . S
C126 C127 1.457 . S
C126 H131 0.929 . S
C127 C126 1.457 . S
C127 C128 1.291 . S
C127 H140 0.931 1_554 S
C128 C127 1.291 . S
C128 C129 1.373 . S
C128 H141 0.929 . S
C129 C128 1.373 . S
C129 C130 1.396 . S
C129 C136 1.403 . S
C130 C120 1.476 . S
C130 N125 1.318 . S
C130 C129 1.396 . S
H131 C126 0.929 . S
O132 Mn108 2.385 . S
O132 C110 1.234 . S
O133 Mn108 2.209 . S
O133 Mn109 2.215 . S
O133 C110 1.283 . S
O134 Mn108 2.094 . S
O134 C112 1.240 . S
O135 Mn109 2.117 . S
O135 C112 1.264 . S
C136 C129 1.403 . S
C136 C137 1.399 . S
C136 H142 0.929 . S
C137 C117 1.449 . S
C137 C136 1.399 . S
C137 H143 0.930 . S
H138 C118 0.931 . S
H139 C119 0.930 . S
H140 C127 0.931 1_556 S
H141 C128 0.929 . S
H142 C136 0.929 . S
H143 C137 0.930 . S
Mn144 O149 2.095 . S
Mn144 O159 2.162 . S
Mn144 O160 2.297 . S
Mn144 O168 2.385 . S
Mn144 O169 2.209 . S
Mn144 O170 2.094 . S
Mn145 O150 2.121 . S
Mn145 N152 2.257 . S
Mn145 N161 2.282 . S
Mn145 O169 2.215 . S
Mn145 O171 2.117 . S
C146 O168 1.234 . S
C146 O169 1.283 . S
C147 O159 1.281 . S
C147 O160 1.236 . S
C148 O170 1.240 . S
C148 O171 1.264 . S
O149 Mn144 2.095 . S
O149 C158 1.250 . S
O150 Mn145 2.121 . S
O150 C158 1.258 . S
C151 N152 1.326 . S
C151 C155 1.460 . S
C151 H157 0.929 . S
N152 Mn145 2.257 . S
N152 C151 1.326 . S
N152 C156 1.362 . S
C153 C154 1.258 . S
C153 C156 1.431 . S
C153 C173 1.449 . S
C154 C153 1.258 . S
C154 C155 1.477 . S
C154 H174 0.931 . S
C155 C151 1.460 . S
C155 C154 1.477 . S
C155 H175 0.930 . S
C156 N152 1.362 . S
C156 C153 1.431 . S
C156 C166 1.476 . S
H157 C151 0.929 . S
C158 O149 1.250 . S
C158 O150 1.258 . S
O159 Mn144 2.162 . S
O159 C147 1.281 . S
O160 Mn144 2.297 . S
O160 C147 1.236 . S
N161 Mn145 2.282 . S
N161 C162 1.328 . S
N161 C166 1.318 . S
C162 N161 1.328 . S
C162 C163 1.457 . S
C162 H167 0.929 . S
C163 C162 1.457 . S
C163 C164 1.291 . S
C163 H176 0.931 . S
C164 C163 1.291 . S
C164 C165 1.373 . S
C164 H177 0.929 . S
C165 C164 1.373 . S
C165 C166 1.396 . S
C165 C172 1.403 . S
C166 C156 1.476 . S
C166 N161 1.318 . S
C166 C165 1.396 . S
H167 C162 0.929 . S
O168 Mn144 2.385 . S
O168 C146 1.234 . S
O169 Mn144 2.209 . S
O169 Mn145 2.215 . S
O169 C146 1.283 . S
O170 Mn144 2.094 . S
O170 C148 1.240 . S
O171 Mn145 2.117 . S
O171 C148 1.264 . S
C172 C165 1.403 . S
C172 C173 1.399 . S
C172 H178 0.929 . S
C173 C153 1.449 . S
C173 C172 1.399 . S
C173 H179 0.930 . S
H174 C154 0.931 . S
H175 C155 0.930 . S
H176 C163 0.931 . S
H177 C164 0.929 . S
H178 C172 0.929 . S
H179 C173 0.930 . S
Mn180 O185 2.095 . S
Mn180 O195 2.162 . S
Mn180 O196 2.297 . S
Mn180 O204 2.385 . S
Mn180 O205 2.209 . S
Mn180 O206 2.094 . S
Mn181 O186 2.121 . S
Mn181 N188 2.257 . S
Mn181 N197 2.282 . S
Mn181 O205 2.215 . S
Mn181 O207 2.117 . S
C182 O204 1.234 . S
C182 O205 1.283 . S
C183 O195 1.281 . S
C183 O196 1.236 . S
C184 O206 1.240 . S
C184 O207 1.264 . S
O185 Mn180 2.095 . S
O185 C194 1.250 . S
O186 Mn181 2.121 . S
O186 C194 1.258 . S
C187 N188 1.326 . S
C187 C191 1.460 . S
C187 H193 0.929 . S
N188 Mn181 2.257 . S
N188 C187 1.326 . S
N188 C192 1.362 . S
C189 C190 1.258 . S
C189 C192 1.431 . S
C189 C209 1.449 . S
C190 C189 1.258 . S
C190 C191 1.477 . S
C190 H210 0.931 . S
C191 C187 1.460 . S
C191 C190 1.477 . S
C191 H211 0.930 . S
C192 N188 1.362 . S
C192 C189 1.431 . S
C192 C202 1.476 . S
H193 C187 0.929 . S
C194 O185 1.250 . S
C194 O186 1.258 . S
O195 Mn180 2.162 . S
O195 C183 1.281 . S
O196 Mn180 2.297 . S
O196 C183 1.236 . S
N197 Mn181 2.282 . S
N197 C198 1.328 . S
N197 C202 1.318 . S
C198 N197 1.328 . S
C198 C199 1.457 . S
C198 H203 0.929 . S
C199 C198 1.457 . S
C199 C200 1.291 . S
C199 H212 0.931 . S
C200 C199 1.291 . S
C200 C201 1.373 . S
C200 H213 0.929 . S
C201 C200 1.373 . S
C201 C202 1.396 . S
C201 C208 1.403 . S
C202 C192 1.476 . S
C202 N197 1.318 . S
C202 C201 1.396 . S
H203 C198 0.929 . S
O204 Mn180 2.385 . S
O204 C182 1.234 . S
O205 Mn180 2.209 . S
O205 Mn181 2.215 . S
O205 C182 1.283 . S
O206 Mn180 2.094 . S
O206 C184 1.240 . S
O207 Mn181 2.117 . S
O207 C184 1.264 . S
C208 C201 1.403 . S
C208 C209 1.399 . S
C208 H214 0.929 . S
C209 C189 1.449 . S
C209 C208 1.399 . S
C209 H215 0.930 . S
H210 C190 0.931 . S
H211 C191 0.930 . S
H212 C199 0.931 . S
H213 C200 0.929 . S
H214 C208 0.929 . S
H215 C209 0.930 . S
Mn216 O221 2.095 . S
Mn216 O231 2.162 . S
Mn216 O232 2.297 . S
Mn216 O240 2.385 . S
Mn216 O241 2.209 . S
Mn216 O242 2.094 . S
Mn217 O222 2.121 . S
Mn217 N224 2.257 . S
Mn217 N233 2.282 . S
Mn217 O241 2.215 . S
Mn217 O243 2.117 . S
C218 O240 1.234 . S
C218 O241 1.283 . S
C219 O231 1.281 . S
C219 O232 1.236 . S
C220 O242 1.240 . S
C220 O243 1.264 . S
O221 Mn216 2.095 . S
O221 C230 1.250 . S
O222 Mn217 2.121 . S
O222 C230 1.258 . S
C223 N224 1.326 . S
C223 C227 1.460 . S
C223 H229 0.929 . S
N224 Mn217 2.257 . S
N224 C223 1.326 . S
N224 C228 1.362 . S
C225 C226 1.258 . S
C225 C228 1.431 . S
C225 C245 1.449 . S
C226 C225 1.258 . S
C226 C227 1.477 . S
C226 H246 0.931 . S
C227 C223 1.460 . S
C227 C226 1.477 . S
C227 H247 0.930 . S
C228 N224 1.362 . S
C228 C225 1.431 . S
C228 C238 1.476 . S
H229 C223 0.929 . S
C230 O221 1.250 . S
C230 O222 1.258 . S
O231 Mn216 2.162 . S
O231 C219 1.281 . S
O232 Mn216 2.297 . S
O232 C219 1.236 . S
N233 Mn217 2.282 . S
N233 C234 1.328 . S
N233 C238 1.318 . S
C234 N233 1.328 . S
C234 C235 1.457 . S
C234 H239 0.929 . S
C235 C234 1.457 . S
C235 C236 1.291 . S
C235 H248 0.931 . S
C236 C235 1.291 . S
C236 C237 1.373 . S
C236 H249 0.929 . S
C237 C236 1.373 . S
C237 C238 1.396 . S
C237 C244 1.403 . S
C238 C228 1.476 . S
C238 N233 1.318 . S
C238 C237 1.396 . S
H239 C234 0.929 . S
O240 Mn216 2.385 . S
O240 C218 1.234 . S
O241 Mn216 2.209 . S
O241 Mn217 2.215 . S
O241 C218 1.283 . S
O242 Mn216 2.094 . S
O242 C220 1.240 . S
O243 Mn217 2.117 . S
O243 C220 1.264 . S
C244 C237 1.403 . S
C244 C245 1.399 . S
C244 H250 0.929 . S
C245 C225 1.449 . S
C245 C244 1.399 . S
C245 H251 0.930 . S
H246 C226 0.931 . S
H247 C227 0.930 . S
H248 C235 0.931 . S
H249 C236 0.929 . S
H250 C244 0.929 . S
H251 C245 0.930 . S
Mn252 O257 2.095 . S
Mn252 O267 2.162 . S
Mn252 O268 2.297 . S
Mn252 O276 2.385 . S
Mn252 O277 2.209 . S
Mn252 O278 2.094 . S
Mn253 O258 2.121 . S
Mn253 N260 2.257 . S
Mn253 N269 2.282 . S
Mn253 O277 2.215 . S
Mn253 O279 2.117 . S
C254 O276 1.234 . S
C254 O277 1.283 . S
C255 O267 1.281 . S
C255 O268 1.236 . S
C256 O278 1.240 . S
C256 O279 1.264 . S
O257 Mn252 2.095 . S
O257 C266 1.250 . S
O258 Mn253 2.121 . S
O258 C266 1.258 . S
C259 N260 1.326 . S
C259 C263 1.460 . S
C259 H265 0.929 . S
N260 Mn253 2.257 . S
N260 C259 1.326 . S
N260 C264 1.362 . S
C261 C262 1.258 . S
C261 C264 1.431 . S
C261 C281 1.449 . S
C262 C261 1.258 . S
C262 C263 1.477 . S
C262 H282 0.931 . S
C263 C259 1.460 . S
C263 C262 1.477 . S
C263 H283 0.930 . S
C264 N260 1.362 . S
C264 C261 1.431 . S
C264 C274 1.476 . S
H265 C259 0.929 . S
C266 O257 1.250 . S
C266 O258 1.258 . S
O267 Mn252 2.162 . S
O267 C255 1.281 . S
O268 Mn252 2.297 . S
O268 C255 1.236 . S
N269 Mn253 2.282 . S
N269 C270 1.328 . S
N269 C274 1.318 . S
C270 N269 1.328 . S
C270 C271 1.457 . S
C270 H275 0.929 . S
C271 C270 1.457 . S
C271 C272 1.291 . S
C271 H284 0.931 . S
C272 C271 1.291 . S
C272 C273 1.373 . S
C272 H285 0.929 . S
C273 C272 1.373 . S
C273 C274 1.396 . S
C273 C280 1.403 . S
C274 C264 1.476 . S
C274 N269 1.318 . S
C274 C273 1.396 . S
H275 C270 0.929 . S
O276 Mn252 2.385 . S
O276 C254 1.234 . S
O277 Mn252 2.209 . S
O277 Mn253 2.215 . S
O277 C254 1.283 . S
O278 Mn252 2.094 . S
O278 C256 1.240 . S
O279 Mn253 2.117 . S
O279 C256 1.264 . S
C280 C273 1.403 . S
C280 C281 1.399 . S
C280 H286 0.929 . S
C281 C261 1.449 . S
C281 C280 1.399 . S
C281 H287 0.930 . S
H282 C262 0.931 . S
H283 C263 0.930 . S
H284 C271 0.931 . S
H285 C272 0.929 . S
H286 C280 0.929 . S
H287 C281 0.930 . S
Mn288 O293 2.095 . S
Mn288 O303 2.162 . S
Mn288 O304 2.297 . S
Mn288 O312 2.385 . S
Mn288 O313 2.209 . S
Mn288 O314 2.094 . S
Mn289 O294 2.121 . S
Mn289 N296 2.257 . S
Mn289 N305 2.282 . S
Mn289 O313 2.215 . S
Mn289 O315 2.117 . S
C290 O312 1.234 . S
C290 O313 1.283 . S
C291 O303 1.281 . S
C291 O304 1.236 . S
C292 O314 1.240 . S
C292 O315 1.264 . S
O293 Mn288 2.095 . S
O293 C302 1.250 . S
O294 Mn289 2.121 . S
O294 C302 1.258 . S
C295 N296 1.326 . S
C295 C299 1.460 . S
C295 H301 0.929 . S
N296 Mn289 2.257 . S
N296 C295 1.326 . S
N296 C300 1.362 . S
C297 C298 1.258 . S
C297 C300 1.431 . S
C297 C317 1.449 . S
C298 C297 1.258 . S
C298 C299 1.477 . S
C298 H318 0.931 . S
C299 C295 1.460 . S
C299 C298 1.477 . S
C299 H319 0.930 . S
C300 N296 1.362 . S
C300 C297 1.431 . S
C300 C310 1.476 . S
H301 C295 0.929 . S
C302 O293 1.250 . S
C302 O294 1.258 . S
O303 Mn288 2.162 . S
O303 C291 1.281 . S
O304 Mn288 2.297 . S
O304 C291 1.236 . S
N305 Mn289 2.282 . S
N305 C306 1.328 . S
N305 C310 1.318 . S
C306 N305 1.328 . S
C306 C307 1.457 . S
C306 H311 0.929 . S
C307 C306 1.457 . S
C307 C308 1.291 . S
C307 H320 0.931 1_556 S
C308 C307 1.291 . S
C308 C309 1.373 . S
C308 H321 0.929 . S
C309 C308 1.373 . S
C309 C310 1.396 . S
C309 C316 1.403 . S
C310 C300 1.476 . S
C310 N305 1.318 . S
C310 C309 1.396 . S
H311 C306 0.929 . S
O312 Mn288 2.385 . S
O312 C290 1.234 . S
O313 Mn288 2.209 . S
O313 Mn289 2.215 . S
O313 C290 1.283 . S
O314 Mn288 2.094 . S
O314 C292 1.240 . S
O315 Mn289 2.117 . S
O315 C292 1.264 . S
C316 C309 1.403 . S
C316 C317 1.399 . S
C316 H322 0.929 . S
C317 C297 1.449 . S
C317 C316 1.399 . S
C317 H323 0.930 . S
H318 C298 0.931 . S
H319 C299 0.930 . S
H320 C307 0.931 1_554 S
H321 C308 0.929 . S
H322 C316 0.929 . S
H323 C317 0.930 . S
Mn324 O329 2.095 . S
Mn324 O339 2.162 . S
Mn324 O340 2.297 . S
Mn324 O348 2.385 . S
Mn324 O349 2.209 . S
Mn324 O350 2.094 . S
Mn325 O330 2.121 . S
Mn325 N332 2.257 . S
Mn325 N341 2.282 . S
Mn325 O349 2.215 . S
Mn325 O351 2.117 . S
C326 O348 1.234 . S
C326 O349 1.283 . S
C327 O339 1.281 . S
C327 O340 1.236 . S
C328 O350 1.240 . S
C328 O351 1.264 . S
O329 Mn324 2.095 . S
O329 C338 1.250 . S
O330 Mn325 2.121 . S
O330 C338 1.258 . S
C331 N332 1.326 . S
C331 C335 1.460 . S
C331 H337 0.929 . S
N332 Mn325 2.257 . S
N332 C331 1.326 . S
N332 C336 1.362 . S
C333 C334 1.258 . S
C333 C336 1.431 . S
C333 C353 1.449 . S
C334 C333 1.258 . S
C334 C335 1.477 . S
C334 H354 0.931 . S
C335 C331 1.460 . S
C335 C334 1.477 . S
C335 H355 0.930 . S
C336 N332 1.362 . S
C336 C333 1.431 . S
C336 C346 1.476 . S
H337 C331 0.929 . S
C338 O329 1.250 . S
C338 O330 1.258 . S
O339 Mn324 2.162 . S
O339 C327 1.281 . S
O340 Mn324 2.297 . S
O340 C327 1.236 . S
N341 Mn325 2.282 . S
N341 C342 1.328 . S
N341 C346 1.318 . S
C342 N341 1.328 . S
C342 C343 1.457 . S
C342 H347 0.929 . S
C343 C342 1.457 . S
C343 C344 1.291 . S
C343 H356 0.931 1_556 S
C344 C343 1.291 . S
C344 C345 1.373 . S
C344 H357 0.929 . S
C345 C344 1.373 . S
C345 C346 1.396 . S
C345 C352 1.403 . S
C346 C336 1.476 . S
C346 N341 1.318 . S
C346 C345 1.396 . S
H347 C342 0.929 . S
O348 Mn324 2.385 . S
O348 C326 1.234 . S
O349 Mn324 2.209 . S
O349 Mn325 2.215 . S
O349 C326 1.283 . S
O350 Mn324 2.094 . S
O350 C328 1.240 . S
O351 Mn325 2.117 . S
O351 C328 1.264 . S
C352 C345 1.403 . S
C352 C353 1.399 . S
C352 H358 0.929 . S
C353 C333 1.449 . S
C353 C352 1.399 . S
C353 H359 0.930 . S
H354 C334 0.931 . S
H355 C335 0.930 . S
H356 C343 0.931 1_554 S
H357 C344 0.929 . S
H358 C352 0.929 . S
H359 C353 0.930 . S
Mn360 O365 2.095 . S
Mn360 O375 2.162 . S
Mn360 O376 2.297 . S
Mn360 O384 2.385 . S
Mn360 O385 2.209 . S
Mn360 O386 2.094 . S
Mn361 O366 2.121 . S
Mn361 N368 2.257 . S
Mn361 N377 2.282 . S
Mn361 O385 2.215 . S
Mn361 O387 2.117 . S
C362 O384 1.234 . S
C362 O385 1.283 . S
C363 O375 1.281 . S
C363 O376 1.236 . S
C364 O386 1.240 . S
C364 O387 1.264 . S
O365 Mn360 2.095 . S
O365 C374 1.250 . S
O366 Mn361 2.121 . S
O366 C374 1.258 . S
C367 N368 1.326 . S
C367 C371 1.460 . S
C367 H373 0.929 . S
N368 Mn361 2.257 . S
N368 C367 1.326 . S
N368 C372 1.362 . S
C369 C370 1.258 . S
C369 C372 1.431 . S
C369 C389 1.449 . S
C370 C369 1.258 . S
C370 C371 1.477 . S
C370 H390 0.931 . S
C371 C367 1.460 . S
C371 C370 1.477 . S
C371 H391 0.930 . S
C372 N368 1.362 . S
C372 C369 1.431 . S
C372 C382 1.476 . S
H373 C367 0.929 . S
C374 O365 1.250 . S
C374 O366 1.258 . S
O375 Mn360 2.162 . S
O375 C363 1.281 . S
O376 Mn360 2.297 . S
O376 C363 1.236 . S
N377 Mn361 2.282 . S
N377 C378 1.328 . S
N377 C382 1.318 . S
C378 N377 1.328 . S
C378 C379 1.457 . S
C378 H383 0.929 . S
C379 C378 1.457 . S
C379 C380 1.291 . S
C379 H392 0.931 1_556 S
C380 C379 1.291 . S
C380 C381 1.373 . S
C380 H393 0.929 . S
C381 C380 1.373 . S
C381 C382 1.396 . S
C381 C388 1.403 . S
C382 C372 1.476 . S
C382 N377 1.318 . S
C382 C381 1.396 . S
H383 C378 0.929 . S
O384 Mn360 2.385 . S
O384 C362 1.234 . S
O385 Mn360 2.209 . S
O385 Mn361 2.215 . S
O385 C362 1.283 . S
O386 Mn360 2.094 . S
O386 C364 1.240 . S
O387 Mn361 2.117 . S
O387 C364 1.264 . S
C388 C381 1.403 . S
C388 C389 1.399 . S
C388 H394 0.929 . S
C389 C369 1.449 . S
C389 C388 1.399 . S
C389 H395 0.930 . S
H390 C370 0.931 . S
H391 C371 0.930 . S
H392 C379 0.931 1_554 S
H393 C380 0.929 . S
H394 C388 0.929 . S
H395 C389 0.930 . S
Mn396 O401 2.095 . S
Mn396 O411 2.162 . S
Mn396 O412 2.297 . S
Mn396 O420 2.385 . S
Mn396 O421 2.209 . S
Mn396 O422 2.094 . S
Mn397 O402 2.121 . S
Mn397 N404 2.257 . S
Mn397 N413 2.282 . S
Mn397 O421 2.215 . S
Mn397 O423 2.117 . S
C398 O420 1.234 . S
C398 O421 1.283 . S
C399 O411 1.281 . S
C399 O412 1.236 . S
C400 O422 1.240 . S
C400 O423 1.264 . S
O401 Mn396 2.095 . S
O401 C410 1.250 . S
O402 Mn397 2.121 . S
O402 C410 1.258 . S
C403 N404 1.326 . S
C403 C407 1.460 . S
C403 H409 0.929 . S
N404 Mn397 2.257 . S
N404 C403 1.326 . S
N404 C408 1.362 . S
C405 C406 1.258 . S
C405 C408 1.431 . S
C405 C425 1.449 . S
C406 C405 1.258 . S
C406 C407 1.477 . S
C406 H426 0.931 . S
C407 C403 1.460 . S
C407 C406 1.477 . S
C407 H427 0.930 . S
C408 N404 1.362 . S
C408 C405 1.431 . S
C408 C418 1.476 . S
H409 C403 0.929 . S
C410 O401 1.250 . S
C410 O402 1.258 . S
O411 Mn396 2.162 . S
O411 C399 1.281 . S
O412 Mn396 2.297 . S
O412 C399 1.236 . S
N413 Mn397 2.282 . S
N413 C414 1.328 . S
N413 C418 1.318 . S
C414 N413 1.328 . S
C414 C415 1.457 . S
C414 H419 0.929 . S
C415 C414 1.457 . S
C415 C416 1.291 . S
C415 H428 0.931 1_556 S
C416 C415 1.291 . S
C416 C417 1.373 . S
C416 H429 0.929 . S
C417 C416 1.373 . S
C417 C418 1.396 . S
C417 C424 1.403 . S
C418 C408 1.476 . S
C418 N413 1.318 . S
C418 C417 1.396 . S
H419 C414 0.929 . S
O420 Mn396 2.385 . S
O420 C398 1.234 . S
O421 Mn396 2.209 . S
O421 Mn397 2.215 . S
O421 C398 1.283 . S
O422 Mn396 2.094 . S
O422 C400 1.240 . S
O423 Mn397 2.117 . S
O423 C400 1.264 . S
C424 C417 1.403 . S
C424 C425 1.399 . S
C424 H430 0.929 . S
C425 C405 1.449 . S
C425 C424 1.399 . S
C425 H431 0.930 . S
H426 C406 0.931 . S
H427 C407 0.930 . S
H428 C415 0.931 1_554 S
H429 C416 0.929 . S
H430 C424 0.929 . S
H431 C425 0.930 . S
Mn432 O437 2.095 . S
Mn432 O447 2.162 . S
Mn432 O448 2.297 . S
Mn432 O456 2.385 . S
Mn432 O457 2.209 . S
Mn432 O458 2.094 . S
Mn433 O438 2.121 . S
Mn433 N440 2.257 . S
Mn433 N449 2.282 . S
Mn433 O457 2.215 . S
Mn433 O459 2.117 . S
C434 O456 1.234 . S
C434 O457 1.283 . S
C435 O447 1.281 . S
C435 O448 1.236 . S
C436 O458 1.240 . S
C436 O459 1.264 . S
O437 Mn432 2.095 . S
O437 C446 1.250 . S
O438 Mn433 2.121 . S
O438 C446 1.258 . S
C439 N440 1.326 . S
C439 C443 1.460 . S
C439 H445 0.929 . S
N440 Mn433 2.257 . S
N440 C439 1.326 . S
N440 C444 1.362 . S
C441 C442 1.258 . S
C441 C444 1.431 . S
C441 C461 1.449 . S
C442 C441 1.258 . S
C442 C443 1.477 . S
C442 H462 0.931 . S
C443 C439 1.460 . S
C443 C442 1.477 . S
C443 H463 0.930 . S
C444 N440 1.362 . S
C444 C441 1.431 . S
C444 C454 1.476 . S
H445 C439 0.929 . S
C446 O437 1.250 . S
C446 O438 1.258 . S
O447 Mn432 2.162 . S
O447 C435 1.281 . S
O448 Mn432 2.297 . S
O448 C435 1.236 . S
N449 Mn433 2.282 . S
N449 C450 1.328 . S
N449 C454 1.318 . S
C450 N449 1.328 . S
C450 C451 1.457 . S
C450 H455 0.929 . S
C451 C450 1.457 . S
C451 C452 1.291 . S
C451 H464 0.931 . S
C452 C451 1.291 . S
C452 C453 1.373 . S
C452 H465 0.929 . S
C453 C452 1.373 . S
C453 C454 1.396 . S
C453 C460 1.403 . S
C454 C444 1.476 . S
C454 N449 1.318 . S
C454 C453 1.396 . S
H455 C450 0.929 . S
O456 Mn432 2.385 . S
O456 C434 1.234 . S
O457 Mn432 2.209 . S
O457 Mn433 2.215 . S
O457 C434 1.283 . S
O458 Mn432 2.094 . S
O458 C436 1.240 . S
O459 Mn433 2.117 . S
O459 C436 1.264 . S
C460 C453 1.403 . S
C460 C461 1.399 . S
C460 H466 0.929 . S
C461 C441 1.449 . S
C461 C460 1.399 . S
C461 H467 0.930 . S
H462 C442 0.931 . S
H463 C443 0.930 . S
H464 C451 0.931 . S
H465 C452 0.929 . S
H466 C460 0.929 . S
H467 C461 0.930 . S
Mn468 O473 2.095 . S
Mn468 O483 2.162 . S
Mn468 O484 2.297 . S
Mn468 O492 2.385 . S
Mn468 O493 2.209 . S
Mn468 O494 2.094 . S
Mn469 O474 2.121 . S
Mn469 N476 2.257 . S
Mn469 N485 2.282 . S
Mn469 O493 2.215 . S
Mn469 O495 2.117 . S
C470 O492 1.234 . S
C470 O493 1.283 . S
C471 O483 1.281 . S
C471 O484 1.236 . S
C472 O494 1.240 . S
C472 O495 1.264 . S
O473 Mn468 2.095 . S
O473 C482 1.250 . S
O474 Mn469 2.121 . S
O474 C482 1.258 . S
C475 N476 1.326 . S
C475 C479 1.460 . S
C475 H481 0.929 . S
N476 Mn469 2.257 . S
N476 C475 1.326 . S
N476 C480 1.362 . S
C477 C478 1.258 . S
C477 C480 1.431 . S
C477 C497 1.449 . S
C478 C477 1.258 . S
C478 C479 1.477 . S
C478 H498 0.931 . S
C479 C475 1.460 . S
C479 C478 1.477 . S
C479 H499 0.930 . S
C480 N476 1.362 . S
C480 C477 1.431 . S
C480 C490 1.476 . S
H481 C475 0.929 . S
C482 O473 1.250 . S
C482 O474 1.258 . S
O483 Mn468 2.162 . S
O483 C471 1.281 . S
O484 Mn468 2.297 . S
O484 C471 1.236 . S
N485 Mn469 2.282 . S
N485 C486 1.328 . S
N485 C490 1.318 . S
C486 N485 1.328 . S
C486 C487 1.457 . S
C486 H491 0.929 . S
C487 C486 1.457 . S
C487 C488 1.291 . S
C487 H500 0.931 . S
C488 C487 1.291 . S
C488 C489 1.373 . S
C488 H501 0.929 . S
C489 C488 1.373 . S
C489 C490 1.396 . S
C489 C496 1.403 . S
C490 C480 1.476 . S
C490 N485 1.318 . S
C490 C489 1.396 . S
H491 C486 0.929 . S
O492 Mn468 2.385 . S
O492 C470 1.234 . S
O493 Mn468 2.209 . S
O493 Mn469 2.215 . S
O493 C470 1.283 . S
O494 Mn468 2.094 . S
O494 C472 1.240 . S
O495 Mn469 2.117 . S
O495 C472 1.264 . S
C496 C489 1.403 . S
C496 C497 1.399 . S
C496 H502 0.929 . S
C497 C477 1.449 . S
C497 C496 1.399 . S
C497 H503 0.930 . S
H498 C478 0.931 . S
H499 C479 0.930 . S
H500 C487 0.931 . S
H501 C488 0.929 . S
H502 C496 0.929 . S
H503 C497 0.930 . S
Mn504 O509 2.095 . S
Mn504 O519 2.162 . S
Mn504 O520 2.297 . S
Mn504 O528 2.385 . S
Mn504 O529 2.209 . S
Mn504 O530 2.094 . S
Mn505 O510 2.121 . S
Mn505 N512 2.257 . S
Mn505 N521 2.282 . S
Mn505 O529 2.215 . S
Mn505 O531 2.117 . S
C506 O528 1.234 . S
C506 O529 1.283 . S
C507 O519 1.281 . S
C507 O520 1.236 . S
C508 O530 1.240 . S
C508 O531 1.264 . S
O509 Mn504 2.095 . S
O509 C518 1.250 . S
O510 Mn505 2.121 . S
O510 C518 1.258 . S
C511 N512 1.326 . S
C511 C515 1.460 . S
C511 H517 0.929 . S
N512 Mn505 2.257 . S
N512 C511 1.326 . S
N512 C516 1.362 . S
C513 C514 1.258 . S
C513 C516 1.431 . S
C513 C533 1.449 . S
C514 C513 1.258 . S
C514 C515 1.477 . S
C514 H534 0.931 . S
C515 C511 1.460 . S
C515 C514 1.477 . S
C515 H535 0.930 . S
C516 N512 1.362 . S
C516 C513 1.431 . S
C516 C526 1.476 . S
H517 C511 0.929 . S
C518 O509 1.250 . S
C518 O510 1.258 . S
O519 Mn504 2.162 . S
O519 C507 1.281 . S
O520 Mn504 2.297 . S
O520 C507 1.236 . S
N521 Mn505 2.282 . S
N521 C522 1.328 . S
N521 C526 1.318 . S
C522 N521 1.328 . S
C522 C523 1.457 . S
C522 H527 0.929 . S
C523 C522 1.457 . S
C523 C524 1.291 . S
C523 H536 0.931 . S
C524 C523 1.291 . S
C524 C525 1.373 . S
C524 H537 0.929 . S
C525 C524 1.373 . S
C525 C526 1.396 . S
C525 C532 1.403 . S
C526 C516 1.476 . S
C526 N521 1.318 . S
C526 C525 1.396 . S
H527 C522 0.929 . S
O528 Mn504 2.385 . S
O528 C506 1.234 . S
O529 Mn504 2.209 . S
O529 Mn505 2.215 . S
O529 C506 1.283 . S
O530 Mn504 2.094 . S
O530 C508 1.240 . S
O531 Mn505 2.117 . S
O531 C508 1.264 . S
C532 C525 1.403 . S
C532 C533 1.399 . S
C532 H538 0.929 . S
C533 C513 1.449 . S
C533 C532 1.399 . S
C533 H539 0.930 . S
H534 C514 0.931 . S
H535 C515 0.930 . S
H536 C523 0.931 . S
H537 C524 0.929 . S
H538 C532 0.929 . S
H539 C533 0.930 . S
Mn540 O545 2.095 . S
Mn540 O555 2.162 . S
Mn540 O556 2.297 . S
Mn540 O564 2.385 . S
Mn540 O565 2.209 . S
Mn540 O566 2.094 . S
Mn541 O546 2.121 . S
Mn541 N548 2.257 . S
Mn541 N557 2.282 . S
Mn541 O565 2.215 . S
Mn541 O567 2.117 . S
C542 O564 1.234 . S
C542 O565 1.283 . S
C543 O555 1.281 . S
C543 O556 1.236 . S
C544 O566 1.240 . S
C544 O567 1.264 . S
O545 Mn540 2.095 . S
O545 C554 1.250 . S
O546 Mn541 2.121 . S
O546 C554 1.258 . S
C547 N548 1.326 . S
C547 C551 1.460 . S
C547 H553 0.929 . S
N548 Mn541 2.257 . S
N548 C547 1.326 . S
N548 C552 1.362 . S
C549 C550 1.258 . S
C549 C552 1.431 . S
C549 C569 1.449 . S
C550 C549 1.258 . S
C550 C551 1.477 . S
C550 H570 0.931 . S
C551 C547 1.460 . S
C551 C550 1.477 . S
C551 H571 0.930 . S
C552 N548 1.362 . S
C552 C549 1.431 . S
C552 C562 1.476 . S
H553 C547 0.929 . S
C554 O545 1.250 . S
C554 O546 1.258 . S
O555 Mn540 2.162 . S
O555 C543 1.281 . S
O556 Mn540 2.297 . S
O556 C543 1.236 . S
N557 Mn541 2.282 . S
N557 C558 1.328 . S
N557 C562 1.318 . S
C558 N557 1.328 . S
C558 C559 1.457 . S
C558 H563 0.929 . S
C559 C558 1.457 . S
C559 C560 1.291 . S
C559 H572 0.931 . S
C560 C559 1.291 . S
C560 C561 1.373 . S
C560 H573 0.929 . S
C561 C560 1.373 . S
C561 C562 1.396 . S
C561 C568 1.403 . S
C562 C552 1.476 . S
C562 N557 1.318 . S
C562 C561 1.396 . S
H563 C558 0.929 . S
O564 Mn540 2.385 . S
O564 C542 1.234 . S
O565 Mn540 2.209 . S
O565 Mn541 2.215 . S
O565 C542 1.283 . S
O566 Mn540 2.094 . S
O566 C544 1.240 . S
O567 Mn541 2.117 . S
O567 C544 1.264 . S
C568 C561 1.403 . S
C568 C569 1.399 . S
C568 H574 0.929 . S
C569 C549 1.449 . S
C569 C568 1.399 . S
C569 H575 0.930 . S
H570 C550 0.931 . S
H571 C551 0.930 . S
H572 C559 0.931 . S
H573 C560 0.929 . S
H574 C568 0.929 . S
H575 C569 0.930 . S
C576 C577 1.349 . S
C576 C578 1.327 . S
C576 H601 0.950 . S
C577 C576 1.349 . S
C577 C593 1.349 1_554 S
C578 C576 1.327 . S
C578 C597 1.429 . S
C578 H602 0.950 . S
C579 C596 1.574 . S
C579 C598 1.406 . S
C579 H603 0.949 . S
H580 C584 0.949 . S
C581 C582 1.349 . S
C581 C583 1.327 . S
C581 H604 0.950 . S
C582 C581 1.349 . S
C582 C594 1.349 . S
C583 C581 1.327 . S
C583 C599 1.429 . S
C583 H605 0.950 . S
C584 H580 0.949 . S
C584 C592 1.574 . S
C584 C600 1.368 1_554 S
H585 C593 0.950 . S
H586 C591 0.950 . S
H587 C592 0.949 . S
H588 C594 0.950 1_554 S
H589 C595 0.950 1_554 S
H590 C596 0.949 . S
C591 H586 0.950 . S
C591 C593 1.327 . S
C591 C597 1.429 1_556 S
C592 C584 1.574 . S
C592 H587 0.949 . S
C592 C598 1.339 1_554 S
C593 C577 1.349 1_556 S
C593 H585 0.950 . S
C593 C591 1.327 . S
C594 C582 1.349 . S
C594 H588 0.950 1_556 S
C594 C595 1.327 . S
C595 H589 0.950 1_556 S
C595 C594 1.327 . S
C595 C599 1.429 . S
C596 C579 1.574 . S
C596 H590 0.949 . S
C596 C600 1.368 . S
C597 C578 1.429 . S
C597 C591 1.429 1_554 S
C597 C598 1.513 1_554 S
C598 C579 1.406 . S
C598 C592 1.339 1_556 S
C598 C597 1.513 1_556 S
C599 C583 1.429 . S
C599 C595 1.429 . S
C599 C600 1.523 . S
C600 C584 1.368 1_556 S
C600 C596 1.368 . S
C600 C599 1.523 . S
H601 C576 0.950 . S
H602 C578 0.950 . S
H603 C579 0.949 . S
H604 C581 0.950 . S
H605 C583 0.950 . S
C606 C607 1.349 . S
C606 C608 1.327 . S
C606 H631 0.950 1_556 S
C607 C606 1.349 . S
C607 C623 1.349 . S
C608 C606 1.327 . S
C608 C627 1.429 . S
C608 H632 0.950 1_556 S
C609 C626 1.574 . S
C609 C628 1.368 . S
C609 H633 0.949 . S
H610 C614 0.949 . S
C611 C612 1.349 1_556 S
C611 C613 1.327 . S
C611 H634 0.950 . S
C612 C611 1.349 1_554 S
C612 C624 1.349 . S
C613 C611 1.327 . S
C613 C629 1.429 1_556 S
C613 H635 0.950 . S
C614 H610 0.949 . S
C614 C622 1.574 . S
C614 C630 1.337 1_554 S
H615 C623 0.950 . S
H616 C621 0.950 . S
H617 C622 0.949 . S
H618 C624 0.950 . S
H619 C625 0.950 . S
H620 C626 0.949 . S
C621 H616 0.950 . S
C621 C623 1.327 . S
C621 C627 1.429 . S
C622 C614 1.574 . S
C622 H617 0.949 . S
C622 C628 1.368 1_554 S
C623 C607 1.349 . S
C623 H615 0.950 . S
C623 C621 1.327 . S
C624 C612 1.349 . S
C624 H618 0.950 . S
C624 C625 1.327 . S
C625 H619 0.950 . S
C625 C624 1.327 . S
C625 C629 1.429 . S
C626 C609 1.574 . S
C626 H620 0.949 . S
C626 C630 1.407 . S
C627 C608 1.429 . S
C627 C621 1.429 . S
C627 C628 1.523 . S
C628 C609 1.368 . S
C628 C622 1.368 1_556 S
C628 C627 1.523 . S
C629 C613 1.429 1_554 S
C629 C625 1.429 . S
C629 C630 1.513 1_554 S
C630 C614 1.337 1_556 S
C630 C626 1.407 . S
C630 C629 1.513 1_556 S
H631 C606 0.950 1_554 S
H632 C608 0.950 1_554 S
H633 C609 0.949 . S
H634 C611 0.950 . S
H635 C613 0.950 . S
C636 C637 1.349 . S
C636 C638 1.327 . S
C636 H661 0.950 . S
C637 C636 1.349 . S
C637 C653 1.349 . S
C638 C636 1.327 . S
C638 C657 1.429 . S
C638 H662 0.950 1_556 S
C639 C656 1.574 . S
C639 C658 1.368 . S
C639 H663 0.949 . S
H640 C644 0.949 . S
C641 C642 1.349 . S
C641 C643 1.327 1_554 S
C641 H664 0.950 1_554 S
C642 C641 1.349 . S
C642 C654 1.349 . S
C643 C641 1.327 1_556 S
C643 C659 1.429 1_556 S
C643 H665 0.950 . S
C644 H640 0.949 . S
C644 C652 1.574 . S
C644 C660 1.349 1_554 S
H645 C653 0.950 . S
H646 C651 0.950 . S
H647 C652 0.949 . S
H648 C654 0.950 . S
H649 C655 0.950 . S
H650 C656 0.949 . S
C651 H646 0.950 . S
C651 C653 1.327 . S
C651 C657 1.429 . S
C652 C644 1.574 . S
C652 H647 0.949 . S
C652 C658 1.368 1_554 S
C653 C637 1.349 . S
C653 H645 0.950 . S
C653 C651 1.327 . S
C654 C642 1.349 . S
C654 H648 0.950 . S
C654 C655 1.327 . S
C655 H649 0.950 . S
C655 C654 1.327 . S
C655 C659 1.429 . S
C656 C639 1.574 . S
C656 H650 0.949 . S
C656 C660 1.396 . S
C657 C638 1.429 . S
C657 C651 1.429 . S
C657 C658 1.523 . S
C658 C639 1.368 . S
C658 C652 1.368 1_556 S
C658 C657 1.523 . S
C659 C643 1.429 1_554 S
C659 C655 1.429 . S
C659 C660 1.513 1_554 S
C660 C644 1.349 1_556 S
C660 C656 1.396 . S
C660 C659 1.513 1_556 S
H661 C636 0.950 . S
H662 C638 0.950 1_554 S
H663 C639 0.949 . S
H664 C641 0.950 1_556 S
H665 C643 0.950 . S
C666 C667 1.349 . S
C666 C668 1.327 . S
C666 H691 0.950 . S
C667 C666 1.349 . S
C667 C683 1.349 . S
C668 C666 1.327 . S
C668 C687 1.429 . S
C668 H692 0.950 . S
C669 C686 1.574 . S
C669 C688 1.368 . S
C669 H693 0.949 . S
H670 C674 0.949 . S
C671 C672 1.349 . S
C671 C673 1.327 . S
C671 H694 0.950 . S
C672 C671 1.349 . S
C672 C684 1.349 . S
C673 C671 1.327 . S
C673 C689 1.429 . S
C673 H695 0.950 1_554 S
C674 H670 0.949 . S
C674 C682 1.574 1_554 S
C674 C690 1.358 1_554 S
H675 C683 0.950 . S
H676 C681 0.950 . S
H677 C682 0.949 1_554 S
H678 C684 0.950 . S
H679 C685 0.950 . S
H680 C686 0.949 . S
C681 H676 0.950 . S
C681 C683 1.327 . S
C681 C687 1.429 . S
C682 C674 1.574 1_556 S
C682 H677 0.949 1_556 S
C682 C688 1.368 . S
C683 C667 1.349 . S
C683 H675 0.950 . S
C683 C681 1.327 . S
C684 C672 1.349 . S
C684 H678 0.950 . S
C684 C685 1.327 . S
C685 H679 0.950 . S
C685 C684 1.327 . S
C685 C689 1.429 . S
C686 C669 1.574 . S
C686 H680 0.949 . S
C686 C690 1.387 . S
C687 C668 1.429 . S
C687 C681 1.429 . S
C687 C688 1.523 . S
C688 C669 1.368 . S
C688 C682 1.368 . S
C688 C687 1.523 . S
C689 C673 1.429 . S
C689 C685 1.429 . S
C689 C690 1.513 1_554 S
C690 C674 1.358 1_556 S
C690 C686 1.387 . S
C690 C689 1.513 1_556 S
H691 C666 0.950 . S
H692 C668 0.950 . S
H693 C669 0.949 . S
H694 C671 0.950 . S
H695 C673 0.950 1_556 S
C696 C697 1.349 . S
C696 C698 1.327 . S
C696 H721 0.950 . S
C697 C696 1.349 . S
C697 C713 1.349 . S
C698 C696 1.327 . S
C698 C717 1.429 . S
C698 H722 0.950 . S
C699 C716 1.574 . S
C699 C718 1.368 . S
C699 H723 0.949 . S
H700 C704 0.949 . S
C701 C702 1.349 . S
C701 C703 1.327 . S
C701 H724 0.950 . S
C702 C701 1.349 . S
C702 C714 1.349 . S
C703 C701 1.327 . S
C703 C719 1.429 . S
C703 H725 0.950 . S
C704 H700 0.949 . S
C704 C712 1.574 . S
C704 C720 1.368 . S
H705 C713 0.950 . S
H706 C711 0.950 . S
H707 C712 0.949 . S
H708 C714 0.950 . S
H709 C715 0.950 . S
H710 C716 0.949 . S
C711 H706 0.950 . S
C711 C713 1.327 . S
C711 C717 1.429 . S
C712 C704 1.574 . S
C712 H707 0.949 . S
C712 C718 1.368 . S
C713 C697 1.349 . S
C713 H705 0.950 . S
C713 C711 1.327 . S
C714 C702 1.349 . S
C714 H708 0.950 . S
C714 C715 1.327 . S
C715 H709 0.950 . S
C715 C714 1.327 . S
C715 C719 1.429 . S
C716 C699 1.574 . S
C716 H710 0.949 . S
C716 C720 1.368 . S
C717 C698 1.429 . S
C717 C711 1.429 . S
C717 C718 1.523 . S
C718 C699 1.368 . S
C718 C712 1.368 . S
C718 C717 1.523 . S
C719 C703 1.429 . S
C719 C715 1.429 . S
C719 C720 1.523 . S
C720 C704 1.368 . S
C720 C716 1.368 . S
C720 C719 1.523 . S
H721 C696 0.950 . S
H722 C698 0.950 . S
H723 C699 0.949 . S
H724 C701 0.950 . S
H725 C703 0.950 . S
C726 C727 1.349 . S
C726 C728 1.327 . S
C726 H751 0.950 . S
C727 C726 1.349 . S
C727 C743 1.349 . S
C728 C726 1.327 . S
C728 C747 1.429 . S
C728 H752 0.950 . S
C729 C746 1.574 . S
C729 C748 1.368 . S
C729 H753 0.949 . S
H730 C734 0.949 . S
C731 C732 1.349 . S
C731 C733 1.327 . S
C731 H754 0.950 . S
C732 C731 1.349 . S
C732 C744 1.349 . S
C733 C731 1.327 . S
C733 C749 1.429 . S
C733 H755 0.950 . S
C734 H730 0.949 . S
C734 C742 1.574 . S
C734 C750 1.368 . S
H735 C743 0.950 . S
H736 C741 0.950 . S
H737 C742 0.949 . S
H738 C744 0.950 . S
H739 C745 0.950 . S
H740 C746 0.949 . S
C741 H736 0.950 . S
C741 C743 1.327 . S
C741 C747 1.429 . S
C742 C734 1.574 . S
C742 H737 0.949 . S
C742 C748 1.368 . S
C743 C727 1.349 . S
C743 H735 0.950 . S
C743 C741 1.327 . S
C744 C732 1.349 . S
C744 H738 0.950 . S
C744 C745 1.327 . S
C745 H739 0.950 . S
C745 C744 1.327 . S
C745 C749 1.429 . S
C746 C729 1.574 . S
C746 H740 0.949 . S
C746 C750 1.368 . S
C747 C728 1.429 . S
C747 C741 1.429 . S
C747 C748 1.523 . S
C748 C729 1.368 . S
C748 C742 1.368 . S
C748 C747 1.523 . S
C749 C733 1.429 . S
C749 C745 1.429 . S
C749 C750 1.523 . S
C750 C734 1.368 . S
C750 C746 1.368 . S
C750 C749 1.523 . S
H751 C726 0.950 . S
H752 C728 0.950 . S
H753 C729 0.949 . S
H754 C731 0.950 . S
H755 C733 0.950 . S
C756 C757 1.349 . S
C756 C758 1.327 . S
C756 H781 0.950 . S
C757 C756 1.349 . S
C757 C773 1.349 . S
C758 C756 1.327 . S
C758 C777 1.429 . S
C758 H782 0.950 . S
C759 C776 1.574 . S
C759 C778 1.368 . S
C759 H783 0.949 . S
H760 C764 0.949 . S
C761 C762 1.349 . S
C761 C763 1.327 . S
C761 H784 0.950 . S
C762 C761 1.349 . S
C762 C774 1.349 . S
C763 C761 1.327 . S
C763 C779 1.429 . S
C763 H785 0.950 . S
C764 H760 0.949 . S
C764 C772 1.574 . S
C764 C780 1.368 . S
H765 C773 0.950 . S
H766 C771 0.950 . S
H767 C772 0.949 . S
H768 C774 0.950 . S
H769 C775 0.950 . S
H770 C776 0.949 . S
C771 H766 0.950 . S
C771 C773 1.327 . S
C771 C777 1.429 . S
C772 C764 1.574 . S
C772 H767 0.949 . S
C772 C778 1.368 . S
C773 C757 1.349 . S
C773 H765 0.950 . S
C773 C771 1.327 . S
C774 C762 1.349 . S
C774 H768 0.950 . S
C774 C775 1.327 . S
C775 H769 0.950 . S
C775 C774 1.327 . S
C775 C779 1.429 . S
C776 C759 1.574 . S
C776 H770 0.949 . S
C776 C780 1.368 . S
C777 C758 1.429 . S
C777 C771 1.429 . S
C777 C778 1.523 . S
C778 C759 1.368 . S
C778 C772 1.368 . S
C778 C777 1.523 . S
C779 C763 1.429 . S
C779 C775 1.429 . S
C779 C780 1.523 . S
C780 C764 1.368 . S
C780 C776 1.368 . S
C780 C779 1.523 . S
H781 C756 0.950 . S
H782 C758 0.950 . S
H783 C759 0.949 . S
H784 C761 0.950 . S
H785 C763 0.950 . S
C786 C787 1.349 . S
C786 C788 1.327 . S
C786 H811 0.950 . S
C787 C786 1.349 . S
C787 C803 1.349 . S
C788 C786 1.327 . S
C788 C807 1.429 . S
C788 H812 0.950 . S
C789 C806 1.574 . S
C789 C808 1.368 . S
C789 H813 0.949 . S
H790 C794 0.949 . S
C791 C792 1.349 . S
C791 C793 1.327 . S
C791 H814 0.950 . S
C792 C791 1.349 . S
C792 C804 1.349 . S
C793 C791 1.327 . S
C793 C809 1.429 . S
C793 H815 0.950 . S
C794 H790 0.949 . S
C794 C802 1.574 . S
C794 C810 1.368 . S
H795 C803 0.950 . S
H796 C801 0.950 . S
H797 C802 0.949 . S
H798 C804 0.950 . S
H799 C805 0.950 . S
H800 C806 0.949 . S
C801 H796 0.950 . S
C801 C803 1.327 . S
C801 C807 1.429 . S
C802 C794 1.574 . S
C802 H797 0.949 . S
C802 C808 1.368 . S
C803 C787 1.349 . S
C803 H795 0.950 . S
C803 C801 1.327 . S
C804 C792 1.349 . S
C804 H798 0.950 . S
C804 C805 1.327 . S
C805 H799 0.950 . S
C805 C804 1.327 . S
C805 C809 1.429 . S
C806 C789 1.574 . S
C806 H800 0.949 . S
C806 C810 1.368 . S
C807 C788 1.429 . S
C807 C801 1.429 . S
C807 C808 1.523 . S
C808 C789 1.368 . S
C808 C802 1.368 . S
C808 C807 1.523 . S
C809 C793 1.429 . S
C809 C805 1.429 . S
C809 C810 1.523 . S
C810 C794 1.368 . S
C810 C806 1.368 . S
C810 C809 1.523 . S
H811 C786 0.950 . S
H812 C788 0.950 . S
H813 C789 0.949 . S
H814 C791 0.950 . S
H815 C793 0.950 . S
C816 C817 1.349 . S
C816 C818 1.327 . S
C816 H841 0.950 . S
C817 C816 1.349 . S
C817 C833 1.349 . S
C818 C816 1.327 . S
C818 C837 1.429 . S
C818 H842 0.950 . S
C819 C836 1.574 . S
C819 C838 1.395 . S
C819 H843 0.949 . S
H820 C824 0.949 . S
C821 C822 1.349 . S
C821 C823 1.327 . S
C821 H844 0.950 . S
C822 C821 1.349 . S
C822 C834 1.349 . S
C823 C821 1.327 . S
C823 C839 1.429 . S
C823 H845 0.950 . S
C824 H820 0.949 . S
C824 C832 1.574 . S
C824 C840 1.368 1_556 S
H825 C833 0.950 1_554 S
H826 C831 0.950 . S
H827 C832 0.949 . S
H828 C834 0.950 . S
H829 C835 0.950 1_556 S
H830 C836 0.949 . S
C831 H826 0.950 . S
C831 C833 1.327 1_554 S
C831 C837 1.429 1_554 S
C832 C824 1.574 . S
C832 H827 0.949 . S
C832 C838 1.350 1_556 S
C833 C817 1.349 . S
C833 H825 0.950 1_556 S
C833 C831 1.327 1_556 S
C834 C822 1.349 . S
C834 H828 0.950 . S
C834 C835 1.327 . S
C835 H829 0.950 1_554 S
C835 C834 1.327 . S
C835 C839 1.429 . S
C836 C819 1.574 . S
C836 H830 0.949 . S
C836 C840 1.368 . S
C837 C818 1.429 . S
C837 C831 1.429 1_556 S
C837 C838 1.513 1_556 S
C838 C819 1.395 . S
C838 C832 1.350 1_554 S
C838 C837 1.513 1_554 S
C839 C823 1.429 . S
C839 C835 1.429 . S
C839 C840 1.523 . S
C840 C824 1.368 1_554 S
C840 C836 1.368 . S
C840 C839 1.523 . S
H841 C816 0.950 . S
H842 C818 0.950 . S
H843 C819 0.949 . S
H844 C821 0.950 . S
H845 C823 0.950 . S
C846 C847 1.349 . S
C846 C848 1.327 1_556 S
C846 H871 0.950 1_556 S
C847 C846 1.349 . S
C847 C863 1.349 . S
C848 C846 1.327 1_554 S
C848 C867 1.429 1_554 S
C848 H872 0.950 . S
C849 C866 1.574 . S
C849 C868 1.351 1_556 S
C849 H873 0.949 . S
H850 C854 0.949 . S
C851 C852 1.349 . S
C851 C853 1.327 . S
C851 H874 0.950 . S
C852 C851 1.349 . S
C852 C864 1.349 . S
C853 C851 1.327 . S
C853 C869 1.429 . S
C853 H875 0.946 1_554 S
C854 H850 0.949 . S
C854 C862 1.574 . S
C854 C870 1.368 . S
H855 C863 0.950 . S
H856 C861 0.950 . S
H857 C862 0.949 . S
H858 C864 0.950 . S
H859 C865 0.950 . S
H860 C866 0.949 . S
C861 H856 0.950 . S
C861 C863 1.327 . S
C861 C867 1.429 . S
C862 C854 1.574 . S
C862 H857 0.949 . S
C862 C868 1.394 . S
C863 C847 1.349 . S
C863 H855 0.950 . S
C863 C861 1.327 . S
C864 C852 1.349 . S
C864 H858 0.950 . S
C864 C865 1.327 . S
C865 H859 0.950 . S
C865 C864 1.327 . S
C865 C869 1.429 . S
C866 C849 1.574 . S
C866 H860 0.949 . S
C866 C870 1.368 1_556 S
C867 C848 1.429 1_556 S
C867 C861 1.429 . S
C867 C868 1.513 1_556 S
C868 C849 1.351 1_554 S
C868 C862 1.394 . S
C868 C867 1.513 1_554 S
C869 C853 1.429 . S
C869 C865 1.429 . S
C869 C870 1.523 . S
C870 C854 1.368 . S
C870 C866 1.368 1_554 S
C870 C869 1.523 . S
H871 C846 0.950 1_554 S
H872 C848 0.950 . S
H873 C849 0.949 . S
H874 C851 0.950 . S
H875 C853 0.946 1_556 S
C876 C877 1.349 . S
C876 C878 1.327 . S
C876 H901 0.950 . S
C877 C876 1.349 . S
C877 C893 1.349 1_556 S
C878 C876 1.327 . S
C878 C897 1.429 . S
C878 H902 0.950 . S
C879 C896 1.574 . S
C879 C898 1.404 . S
C879 H903 0.949 . S
H880 C884 0.949 . S
C881 C882 1.349 . S
C881 C883 1.327 . S
C881 H904 0.950 . S
C882 C881 1.349 . S
C882 C894 1.349 . S
C883 C881 1.327 . S
C883 C899 1.429 . S
C883 H905 0.950 . S
C884 H880 0.949 . S
C884 C892 1.574 . S
C884 C900 1.368 1_556 S
H885 C893 0.950 . S
H886 C891 0.950 . S
H887 C892 0.949 . S
H888 C894 0.950 . S
H889 C895 0.950 1_556 S
H890 C896 0.949 . S
C891 H886 0.950 . S
C891 C893 1.327 . S
C891 C897 1.429 1_554 S
C892 C884 1.574 . S
C892 H887 0.949 . S
C892 C898 1.341 1_556 S
C893 C877 1.349 1_554 S
C893 H885 0.950 . S
C893 C891 1.327 . S
C894 C882 1.349 . S
C894 H888 0.950 . S
C894 C895 1.327 . S
C895 H889 0.950 1_554 S
C895 C894 1.327 . S
C895 C899 1.429 . S
C896 C879 1.574 . S
C896 H890 0.949 . S
C896 C900 1.368 . S
C897 C878 1.429 . S
C897 C891 1.429 1_556 S
C897 C898 1.513 1_556 S
C898 C879 1.404 . S
C898 C892 1.341 1_554 S
C898 C897 1.513 1_554 S
C899 C883 1.429 . S
C899 C895 1.429 . S
C899 C900 1.523 . S
C900 C884 1.368 1_554 S
C900 C896 1.368 . S
C900 C899 1.523 . S
H901 C876 0.950 . S
H902 C878 0.950 . S
H903 C879 0.949 . S
H904 C881 0.950 . S
H905 C883 0.950 . S
C906 C907 1.349 . S
C906 C908 1.327 . S
C906 H931 0.950 1_554 S
C907 C906 1.349 . S
C907 C923 1.349 . S
C908 C906 1.327 . S
C908 C927 1.429 . S
C908 H932 0.950 1_554 S
C909 C926 1.574 . S
C909 C928 1.368 . S
C909 H933 0.949 . S
H910 C914 0.949 . S
C911 C912 1.349 1_554 S
C911 C913 1.327 . S
C911 H934 0.950 . S
C912 C911 1.349 1_556 S
C912 C924 1.349 . S
C913 C911 1.327 . S
C913 C929 1.429 1_554 S
C913 H935 0.950 . S
C914 H910 0.949 . S
C914 C922 1.574 . S
C914 C930 1.337 1_556 S
H915 C923 0.950 . S
H916 C921 0.950 . S
H917 C922 0.949 . S
H918 C924 0.950 . S
H919 C925 0.950 . S
H920 C926 0.949 . S
C921 H916 0.950 . S
C921 C923 1.327 . S
C921 C927 1.429 . S
C922 C914 1.574 . S
C922 H917 0.949 . S
C922 C928 1.368 1_556 S
C923 C907 1.349 . S
C923 H915 0.950 . S
C923 C921 1.327 . S
C924 C912 1.349 . S
C924 H918 0.950 . S
C924 C925 1.327 . S
C925 H919 0.950 . S
C925 C924 1.327 . S
C925 C929 1.429 . S
C926 C909 1.574 . S
C926 H920 0.949 . S
C926 C930 1.408 . S
C927 C908 1.429 . S
C927 C921 1.429 . S
C927 C928 1.523 . S
C928 C909 1.368 . S
C928 C922 1.368 1_554 S
C928 C927 1.523 . S
C929 C913 1.429 1_556 S
C929 C925 1.429 . S
C929 C930 1.513 1_556 S
C930 C914 1.337 1_554 S
C930 C926 1.408 . S
C930 C929 1.513 1_554 S
H931 C906 0.950 1_556 S
H932 C908 0.950 1_556 S
H933 C909 0.949 . S
H934 C911 0.950 . S
H935 C913 0.950 . S
C936 C937 1.349 . S
C936 C938 1.327 . S
C936 H961 0.950 . S
C937 C936 1.349 . S
C937 C953 1.349 . S
C938 C936 1.327 . S
C938 C957 1.429 . S
C938 H962 0.950 . S
C939 C956 1.574 . S
C939 C958 1.368 . S
C939 H963 0.949 . S
H940 C944 0.949 . S
C941 C942 1.349 . S
C941 C943 1.327 . S
C941 H964 0.950 . S
C942 C941 1.349 . S
C942 C954 1.349 . S
C943 C941 1.327 . S
C943 C959 1.429 . S
C943 H965 0.950 . S
C944 H940 0.949 . S
C944 C952 1.574 . S
C944 C960 1.368 . S
H945 C953 0.950 . S
H946 C951 0.950 . S
H947 C952 0.949 . S
H948 C954 0.950 . S
H949 C955 0.950 . S
H950 C956 0.949 . S
C951 H946 0.950 . S
C951 C953 1.327 . S
C951 C957 1.429 . S
C952 C944 1.574 . S
C952 H947 0.949 . S
C952 C958 1.368 . S
C953 C937 1.349 . S
C953 H945 0.950 . S
C953 C951 1.327 . S
C954 C942 1.349 . S
C954 H948 0.950 . S
C954 C955 1.327 . S
C955 H949 0.950 . S
C955 C954 1.327 . S
C955 C959 1.429 . S
C956 C939 1.574 . S
C956 H950 0.949 . S
C956 C960 1.368 . S
C957 C938 1.429 . S
C957 C951 1.429 . S
C957 C958 1.523 . S
C958 C939 1.368 . S
C958 C952 1.368 . S
C958 C957 1.523 . S
C959 C943 1.429 . S
C959 C955 1.429 . S
C959 C960 1.523 . S
C960 C944 1.368 . S
C960 C956 1.368 . S
C960 C959 1.523 . S
H961 C936 0.950 . S
H962 C938 0.950 . S
H963 C939 0.949 . S
H964 C941 0.950 . S
H965 C943 0.950 . S
C966 C967 1.349 . S
C966 C968 1.327 . S
C966 H991 0.950 . S
C967 C966 1.349 . S
C967 C983 1.349 . S
C968 C966 1.327 . S
C968 C987 1.429 . S
C968 H992 0.950 . S
C969 C986 1.574 . S
C969 C988 1.368 . S
C969 H993 0.949 . S
H970 C974 0.949 . S
C971 C972 1.349 . S
C971 C973 1.327 . S
C971 H994 0.950 . S
C972 C971 1.349 . S
C972 C984 1.349 . S
C973 C971 1.327 . S
C973 C989 1.429 . S
C973 H995 0.950 . S
C974 H970 0.949 . S
C974 C982 1.574 . S
C974 C990 1.368 . S
H975 C983 0.950 . S
H976 C981 0.950 . S
H977 C982 0.949 . S
H978 C984 0.950 . S
H979 C985 0.950 . S
H980 C986 0.949 . S
C981 H976 0.950 . S
C981 C983 1.327 . S
C981 C987 1.429 . S
C982 C974 1.574 . S
C982 H977 0.949 . S
C982 C988 1.368 . S
C983 C967 1.349 . S
C983 H975 0.950 . S
C983 C981 1.327 . S
C984 C972 1.349 . S
C984 H978 0.950 . S
C984 C985 1.327 . S
C985 H979 0.950 . S
C985 C984 1.327 . S
C985 C989 1.429 . S
C986 C969 1.574 . S
C986 H980 0.949 . S
C986 C990 1.368 . S
C987 C968 1.429 . S
C987 C981 1.429 . S
C987 C988 1.523 . S
C988 C969 1.368 . S
C988 C982 1.368 . S
C988 C987 1.523 . S
C989 C973 1.429 . S
C989 C985 1.429 . S
C989 C990 1.523 . S
C990 C974 1.368 . S
C990 C986 1.368 . S
C990 C989 1.523 . S
H991 C966 0.950 . S
H992 C968 0.950 . S
H993 C969 0.949 . S
H994 C971 0.950 . S
H995 C973 0.950 . S
C996 C997 1.349 . S
C996 C998 1.327 . S
C996 H1021 0.950 . S
C997 C996 1.349 . S
C997 C1013 1.349 . S
C998 C996 1.327 . S
C998 C1017 1.429 . S
C998 H1022 0.950 . S
C999 C1016 1.574 . S
C999 C1018 1.368 . S
C999 H1023 0.949 . S
H1000 C1004 0.949 . S
C1001 C1002 1.349 . S
C1001 C1003 1.327 . S
C1001 H1024 0.950 . S
C1002 C1001 1.349 . S
C1002 C1014 1.349 . S
C1003 C1001 1.327 . S
C1003 C1019 1.429 . S
C1003 H1025 0.950 . S
C1004 H1000 0.949 . S
C1004 C1012 1.574 . S
C1004 C1020 1.368 . S
H1005 C1013 0.950 . S
H1006 C1011 0.950 . S
H1007 C1012 0.949 . S
H1008 C1014 0.950 . S
H1009 C1015 0.950 . S
H1010 C1016 0.949 . S
C1011 H1006 0.950 . S
C1011 C1013 1.327 . S
C1011 C1017 1.429 . S
C1012 C1004 1.574 . S
C1012 H1007 0.949 . S
C1012 C1018 1.368 . S
C1013 C997 1.349 . S
C1013 H1005 0.950 . S
C1013 C1011 1.327 . S
C1014 C1002 1.349 . S
C1014 H1008 0.950 . S
C1014 C1015 1.327 . S
C1015 H1009 0.950 . S
C1015 C1014 1.327 . S
C1015 C1019 1.429 . S
C1016 C999 1.574 . S
C1016 H1010 0.949 . S
C1016 C1020 1.368 . S
C1017 C998 1.429 . S
C1017 C1011 1.429 . S
C1017 C1018 1.523 . S
C1018 C999 1.368 . S
C1018 C1012 1.368 . S
C1018 C1017 1.523 . S
C1019 C1003 1.429 . S
C1019 C1015 1.429 . S
C1019 C1020 1.523 . S
C1020 C1004 1.368 . S
C1020 C1016 1.368 . S
C1020 C1019 1.523 . S
H1021 C996 0.950 . S
H1022 C998 0.950 . S
H1023 C999 0.949 . S
H1024 C1001 0.950 . S
H1025 C1003 0.950 . S
C1026 C1027 1.349 . S
C1026 C1028 1.327 . S
C1026 H1051 0.950 . S
C1027 C1026 1.349 . S
C1027 C1043 1.349 . S
C1028 C1026 1.327 . S
C1028 C1047 1.429 . S
C1028 H1052 0.950 . S
C1029 C1046 1.574 . S
C1029 C1048 1.368 . S
C1029 H1053 0.949 . S
H1030 C1034 0.949 . S
C1031 C1032 1.349 . S
C1031 C1033 1.327 . S
C1031 H1054 0.950 . S
C1032 C1031 1.349 . S
C1032 C1044 1.349 . S
C1033 C1031 1.327 . S
C1033 C1049 1.429 . S
C1033 H1055 0.950 . S
C1034 H1030 0.949 . S
C1034 C1042 1.574 . S
C1034 C1050 1.368 . S
H1035 C1043 0.950 . S
H1036 C1041 0.950 . S
H1037 C1042 0.949 . S
H1038 C1044 0.950 . S
H1039 C1045 0.950 . S
H1040 C1046 0.949 . S
C1041 H1036 0.950 . S
C1041 C1043 1.327 . S
C1041 C1047 1.429 . S
C1042 C1034 1.574 . S
C1042 H1037 0.949 . S
C1042 C1048 1.368 . S
C1043 C1027 1.349 . S
C1043 H1035 0.950 . S
C1043 C1041 1.327 . S
C1044 C1032 1.349 . S
C1044 H1038 0.950 . S
C1044 C1045 1.327 . S
C1045 H1039 0.950 . S
C1045 C1044 1.327 . S
C1045 C1049 1.429 . S
C1046 C1029 1.574 . S
C1046 H1040 0.949 . S
C1046 C1050 1.368 . S
C1047 C1028 1.429 . S
C1047 C1041 1.429 . S
C1047 C1048 1.523 . S
C1048 C1029 1.368 . S
C1048 C1042 1.368 . S
C1048 C1047 1.523 . S
C1049 C1033 1.429 . S
C1049 C1045 1.429 . S
C1049 C1050 1.523 . S
C1050 C1034 1.368 . S
C1050 C1046 1.368 . S
C1050 C1049 1.523 . S
H1051 C1026 0.950 . S
H1052 C1028 0.950 . S
H1053 C1029 0.949 . S
H1054 C1031 0.950 . S
H1055 C1033 0.950 . S
C1056 C1057 1.349 . S
C1056 C1058 1.327 . S
C1056 H1081 0.950 . S
C1057 C1056 1.349 . S
C1057 C1073 1.349 . S
C1058 C1056 1.327 . S
C1058 C1077 1.429 . S
C1058 H1082 0.950 . S
C1059 C1076 1.574 1_565 S
C1059 C1078 1.368 1_554 S
C1059 H1083 0.949 . S
H1060 C1064 0.949 . S
C1061 C1062 1.349 . S
C1061 C1063 1.327 . S
C1061 H1084 0.950 . S
C1062 C1061 1.349 . S
C1062 C1074 1.349 . S
C1063 C1061 1.327 . S
C1063 C1079 1.429 . S
C1063 H1085 0.950 . S
C1064 H1060 0.949 . S
C1064 C1072 1.574 1_545 S
C1064 C1080 1.368 1_556 S
H1065 C1073 0.950 1_554 S
H1066 C1071 0.950 1_554 S
H1067 C1072 0.949 . S
H1068 C1074 0.950 1_556 S
H1069 C1075 0.950 1_556 S
H1070 C1076 0.949 . S
C1071 H1066 0.950 1_556 S
C1071 C1073 1.327 . S
C1071 C1077 1.429 . S
C1072 C1064 1.574 1_565 S
C1072 H1067 0.949 . S
C1072 C1078 1.368 . S
C1073 C1057 1.349 . S
C1073 H1065 0.950 1_556 S
C1073 C1071 1.327 . S
C1074 C1062 1.349 . S
C1074 H1068 0.950 1_554 S
C1074 C1075 1.327 . S
C1075 H1069 0.950 1_554 S
C1075 C1074 1.327 . S
C1075 C1079 1.429 . S
C1076 C1059 1.574 1_545 S
C1076 H1070 0.949 . S
C1076 C1080 1.368 . S
C1077 C1058 1.429 . S
C1077 C1071 1.429 . S
C1077 C1078 1.523 . S
C1078 C1059 1.368 1_556 S
C1078 C1072 1.368 . S
C1078 C1077 1.523 . S
C1079 C1063 1.429 . S
C1079 C1075 1.429 . S
C1079 C1080 1.523 . S
C1080 C1064 1.368 1_554 S
C1080 C1076 1.368 . S
C1080 C1079 1.523 . S
H1081 C1056 0.950 . S
H1082 C1058 0.950 . S
H1083 C1059 0.949 . S
H1084 C1061 0.950 . S
H1085 C1063 0.950 . S
C1086 C1087 1.349 . S
C1086 C1088 1.327 . S
C1086 H1111 0.950 . S
C1087 C1086 1.349 . S
C1087 C1103 1.349 . S
C1088 C1086 1.327 . S
C1088 C1107 1.429 . S
C1088 H1112 0.950 . S
C1089 C1106 1.574 . S
C1089 C1108 1.368 1_556 S
C1089 H1113 0.949 . S
H1090 C1094 0.949 . S
C1091 C1092 1.349 . S
C1091 C1093 1.327 . S
C1091 H1114 0.950 . S
C1092 C1091 1.349 . S
C1092 C1104 1.349 . S
C1093 C1091 1.327 . S
C1093 C1109 1.429 . S
C1093 H1115 0.950 . S
C1094 H1090 0.949 . S
C1094 C1102 1.574 . S
C1094 C1110 1.368 1_554 S
H1095 C1103 0.950 . S
H1096 C1101 0.950 1_556 S
H1097 C1102 0.949 . S
H1098 C1104 0.950 . S
H1099 C1105 0.950 1_554 S
H1100 C1106 0.949 . S
C1101 H1096 0.950 1_554 S
C1101 C1103 1.327 . S
C1101 C1107 1.429 . S
C1102 C1094 1.574 . S
C1102 H1097 0.949 . S
C1102 C1108 1.368 . S
C1103 C1087 1.349 . S
C1103 H1095 0.950 . S
C1103 C1101 1.327 . S
C1104 C1092 1.349 . S
C1104 H1098 0.950 . S
C1104 C1105 1.327 . S
C1105 H1099 0.950 1_556 S
C1105 C1104 1.327 . S
C1105 C1109 1.429 . S
C1106 C1089 1.574 . S
C1106 H1100 0.949 . S
C1106 C1110 1.368 . S
C1107 C1088 1.429 . S
C1107 C1101 1.429 . S
C1107 C1108 1.523 . S
C1108 C1089 1.368 1_554 S
C1108 C1102 1.368 . S
C1108 C1107 1.523 . S
C1109 C1093 1.429 . S
C1109 C1105 1.429 . S
C1109 C1110 1.523 . S
C1110 C1094 1.368 1_556 S
C1110 C1106 1.368 . S
C1110 C1109 1.523 . S
H1111 C1086 0.950 . S
H1112 C1088 0.950 . S
H1113 C1089 0.949 . S
H1114 C1091 0.950 . S
H1115 C1093 0.950 . S
C1116 C1117 1.349 1_655 S
C1116 C1118 1.323 1_556 S
C1116 H1141 0.950 1_556 S
C1117 C1116 1.349 1_455 S
C1117 C1133 1.349 . S
C1118 C1116 1.323 1_554 S
C1118 C1137 1.421 1_654 S
C1118 H1142 0.962 . S
C1119 C1136 1.574 . S
C1119 C1138 1.380 . S
C1119 H1143 0.949 . S
H1120 C1124 0.949 . S
C1121 C1122 1.349 1_455 S
C1121 C1123 1.323 1_554 S
C1121 H1144 0.950 1_554 S
C1122 C1121 1.349 1_655 S
C1122 C1134 1.349 . S
C1123 C1121 1.323 1_556 S
C1123 C1139 1.421 1_456 S
C1123 H1145 0.962 . S
C1124 H1120 0.949 . S
C1124 C1132 1.574 . S
C1124 C1140 1.380 . S
H1125 C1133 0.950 . S
H1126 C1131 0.950 . S
H1127 C1132 0.949 . S
H1128 C1134 0.950 . S
H1129 C1135 0.950 . S
H1130 C1136 0.949 . S
C1131 H1126 0.950 . S
C1131 C1133 1.327 . S
C1131 C1137 1.429 . S
C1132 C1124 1.574 . S
C1132 H1127 0.949 . S
C1132 C1138 1.356 1_654 S
C1133 C1117 1.349 . S
C1133 H1125 0.950 . S
C1133 C1131 1.327 . S
C1134 C1122 1.349 . S
C1134 H1128 0.950 . S
C1134 C1135 1.327 . S
C1135 H1129 0.950 . S
C1135 C1134 1.327 . S
C1135 C1139 1.429 . S
C1136 C1119 1.574 . S
C1136 H1130 0.949 . S
C1136 C1140 1.356 1_456 S
C1137 C1118 1.421 1_456 S
C1137 C1131 1.429 . S
C1137 C1138 1.524 . S
C1138 C1119 1.380 . S
C1138 C1132 1.356 1_456 S
C1138 C1137 1.524 . S
C1139 C1123 1.421 1_654 S
C1139 C1135 1.429 . S
C1139 C1140 1.524 . S
C1140 C1124 1.380 . S
C1140 C1136 1.356 1_654 S
C1140 C1139 1.524 . S
H1141 C1116 0.950 1_554 S
H1142 C1118 0.962 . S
H1143 C1119 0.949 . S
H1144 C1121 0.950 1_556 S
H1145 C1123 0.962 . S
C1146 C1147 1.349 1_545 S
C1146 C1148 1.327 . S
C1146 H1171 0.950 . S
C1147 C1146 1.349 1_565 S
C1147 C1163 1.349 . S
C1148 C1146 1.327 . S
C1148 C1167 1.429 1_545 S
C1148 H1172 0.950 1_554 S
C1149 C1166 1.574 1_455 S
C1149 C1168 1.396 . S
C1149 H1173 0.949 . S
H1150 C1154 0.949 . S
C1151 C1152 1.349 1_565 S
C1151 C1153 1.327 . S
C1151 H1174 0.950 . S
C1152 C1151 1.349 1_545 S
C1152 C1164 1.349 . S
C1153 C1151 1.327 . S
C1153 C1169 1.429 1_565 S
C1153 H1175 0.950 1_556 S
C1154 H1150 0.949 . S
C1154 C1162 1.574 1_655 S
C1154 C1170 1.396 . S
H1155 C1163 0.950 . S
H1156 C1161 0.950 . S
H1157 C1162 0.949 . S
H1158 C1164 0.950 . S
H1159 C1165 0.950 . S
H1160 C1166 0.949 . S
C1161 H1156 0.950 . S
C1161 C1163 1.327 . S
C1161 C1167 1.429 . S
C1162 C1154 1.574 1_455 S
C1162 H1157 0.949 . S
C1162 C1168 1.341 1_546 S
C1163 C1147 1.349 . S
C1163 H1155 0.950 . S
C1163 C1161 1.327 . S
C1164 C1152 1.349 . S
C1164 H1158 0.950 . S
C1164 C1165 1.327 . S
C1165 H1159 0.950 . S
C1165 C1164 1.327 . S
C1165 C1169 1.429 . S
C1166 C1149 1.574 1_655 S
C1166 H1160 0.949 . S
C1166 C1170 1.341 1_564 S
C1167 C1148 1.429 1_565 S
C1167 C1161 1.429 . S
C1167 C1168 1.524 . S
C1168 C1149 1.396 . S
C1168 C1162 1.341 1_564 S
C1168 C1167 1.524 . S
C1169 C1153 1.429 1_545 S
C1169 C1165 1.429 . S
C1169 C1170 1.524 . S
C1170 C1154 1.396 . S
C1170 C1166 1.341 1_546 S
C1170 C1169 1.524 . S
H1171 C1146 0.950 . S
H1172 C1148 0.950 1_556 S
H1173 C1149 0.949 . S
H1174 C1151 0.950 . S
H1175 C1153 0.950 1_554 S
C1176 C1177 1.349 . S
C1176 C1178 1.327 . S
C1176 H1201 0.950 . S
C1177 C1176 1.349 . S
C1177 C1193 1.349 . S
C1178 C1176 1.327 . S
C1178 C1197 1.429 . S
C1178 H1202 0.950 . S
C1179 C1196 1.574 . S
C1179 C1198 1.368 . S
C1179 H1203 0.949 . S
H1180 C1184 0.949 . S
C1181 C1182 1.349 . S
C1181 C1183 1.327 . S
C1181 H1204 0.950 . S
C1182 C1181 1.349 . S
C1182 C1194 1.349 . S
C1183 C1181 1.327 . S
C1183 C1199 1.429 . S
C1183 H1205 0.950 . S
C1184 H1180 0.949 . S
C1184 C1192 1.574 . S
C1184 C1200 1.368 . S
H1185 C1193 0.950 . S
H1186 C1191 0.950 . S
H1187 C1192 0.949 . S
H1188 C1194 0.950 . S
H1189 C1195 0.950 . S
H1190 C1196 0.949 . S
C1191 H1186 0.950 . S
C1191 C1193 1.327 . S
C1191 C1197 1.429 . S
C1192 C1184 1.574 . S
C1192 H1187 0.949 . S
C1192 C1198 1.368 . S
C1193 C1177 1.349 . S
C1193 H1185 0.950 . S
C1193 C1191 1.327 . S
C1194 C1182 1.349 . S
C1194 H1188 0.950 . S
C1194 C1195 1.327 . S
C1195 H1189 0.950 . S
C1195 C1194 1.327 . S
C1195 C1199 1.429 . S
C1196 C1179 1.574 . S
C1196 H1190 0.949 . S
C1196 C1200 1.368 . S
C1197 C1178 1.429 . S
C1197 C1191 1.429 . S
C1197 C1198 1.523 . S
C1198 C1179 1.368 . S
C1198 C1192 1.368 . S
C1198 C1197 1.523 . S
C1199 C1183 1.429 . S
C1199 C1195 1.429 . S
C1199 C1200 1.523 . S
C1200 C1184 1.368 . S
C1200 C1196 1.368 . S
C1200 C1199 1.523 . S
H1201 C1176 0.950 . S
H1202 C1178 0.950 . S
H1203 C1179 0.949 . S
H1204 C1181 0.950 . S
H1205 C1183 0.950 . S
C1206 C1207 1.349 . S
C1206 C1208 1.327 . S
C1206 H1231 0.950 . S
C1207 C1206 1.349 . S
C1207 C1223 1.349 . S
C1208 C1206 1.327 . S
C1208 C1227 1.429 . S
C1208 H1232 0.950 . S
C1209 C1226 1.574 1_455 S
C1209 C1228 1.368 . S
C1209 H1233 0.949 . S
H1210 C1214 0.949 . S
C1211 C1212 1.349 . S
C1211 C1213 1.327 . S
C1211 H1234 0.950 . S
C1212 C1211 1.349 . S
C1212 C1224 1.349 . S
C1213 C1211 1.327 . S
C1213 C1229 1.429 . S
C1213 H1235 0.950 . S
C1214 H1210 0.949 . S
C1214 C1222 1.574 1_655 S
C1214 C1230 1.368 . S
H1215 C1223 0.950 . S
H1216 C1221 0.950 . S
H1217 C1222 0.949 . S
H1218 C1224 0.950 . S
H1219 C1225 0.950 . S
H1220 C1226 0.949 . S
C1221 H1216 0.950 . S
C1221 C1223 1.327 . S
C1221 C1227 1.429 . S
C1222 C1214 1.574 1_455 S
C1222 H1217 0.949 . S
C1222 C1228 1.368 . S
C1223 C1207 1.349 . S
C1223 H1215 0.950 . S
C1223 C1221 1.327 . S
C1224 C1212 1.349 . S
C1224 H1218 0.950 . S
C1224 C1225 1.327 . S
C1225 H1219 0.950 . S
C1225 C1224 1.327 . S
C1225 C1229 1.429 . S
C1226 C1209 1.574 1_655 S
C1226 H1220 0.949 . S
C1226 C1230 1.368 . S
C1227 C1208 1.429 . S
C1227 C1221 1.429 . S
C1227 C1228 1.523 . S
C1228 C1209 1.368 . S
C1228 C1222 1.368 . S
C1228 C1227 1.523 . S
C1229 C1213 1.429 . S
C1229 C1225 1.429 . S
C1229 C1230 1.523 . S
C1230 C1214 1.368 . S
C1230 C1226 1.368 . S
C1230 C1229 1.523 . S
H1231 C1206 0.950 . S
H1232 C1208 0.950 . S
H1233 C1209 0.949 . S
H1234 C1211 0.950 . S
H1235 C1213 0.950 . S
C1236 C1237 1.349 . S
C1236 C1238 1.327 . S
C1236 H1261 0.950 . S
C1237 C1236 1.349 . S
C1237 C1253 1.349 1_455 S
C1238 C1236 1.327 . S
C1238 C1257 1.429 . S
C1238 H1262 0.950 . S
C1239 C1256 1.574 1_565 S
C1239 C1258 1.347 1_655 S
C1239 H1263 0.949 . S
H1240 C1244 0.949 . S
C1241 C1242 1.349 . S
C1241 C1243 1.327 . S
C1241 H1264 0.950 . S
C1242 C1241 1.349 . S
C1242 C1254 1.349 1_655 S
C1243 C1241 1.327 . S
C1243 C1259 1.429 . S
C1243 H1265 0.950 . S
C1244 H1240 0.949 . S
C1244 C1252 1.574 1_545 S
C1244 C1260 1.347 1_455 S
H1245 C1253 0.950 . S
H1246 C1251 0.950 . S
H1247 C1252 0.949 . S
H1248 C1254 0.950 . S
H1249 C1255 0.950 . S
H1250 C1256 0.949 . S
C1251 H1246 0.950 . S
C1251 C1253 1.327 . S
C1251 C1257 1.429 1_655 S
C1252 C1244 1.574 1_565 S
C1252 H1247 0.949 . S
C1252 C1258 1.389 . S
C1253 C1237 1.349 1_655 S
C1253 H1245 0.950 . S
C1253 C1251 1.327 . S
C1254 C1242 1.349 1_455 S
C1254 H1248 0.950 . S
C1254 C1255 1.327 . S
C1255 H1249 0.950 . S
C1255 C1254 1.327 . S
C1255 C1259 1.429 1_455 S
C1256 C1239 1.574 1_545 S
C1256 H1250 0.949 . S
C1256 C1260 1.389 . S
C1257 C1238 1.429 . S
C1257 C1251 1.429 1_455 S
C1257 C1258 1.524 . S
C1258 C1239 1.347 1_455 S
C1258 C1252 1.389 . S
C1258 C1257 1.524 . S
C1259 C1243 1.429 . S
C1259 C1255 1.429 1_655 S
C1259 C1260 1.524 . S
C1260 C1244 1.347 1_655 S
C1260 C1256 1.389 . S
C1260 C1259 1.524 . S
H1261 C1236 0.950 . S
H1262 C1238 0.950 . S
H1263 C1239 0.949 . S
H1264 C1241 0.950 . S
H1265 C1243 0.950 . S
C1266 C1267 1.349 1_565 S
C1266 C1268 1.327 . S
C1266 H1291 0.950 . S
C1267 C1266 1.349 1_545 S
C1267 C1283 1.349 . S
C1268 C1266 1.327 . S
C1268 C1287 1.429 1_565 S
C1268 H1292 0.950 . S
C1269 C1286 1.574 . S
C1269 C1288 1.395 . S
C1269 H1293 0.949 . S
H1270 C1274 0.949 . S
C1271 C1272 1.349 1_545 S
C1271 C1273 1.327 . S
C1271 H1294 0.950 . S
C1272 C1271 1.349 1_565 S
C1272 C1284 1.349 . S
C1273 C1271 1.327 . S
C1273 C1289 1.429 1_545 S
C1273 H1295 0.950 . S
C1274 H1270 0.949 . S
C1274 C1282 1.574 . S
C1274 C1290 1.395 . S
H1275 C1283 0.950 . S
H1276 C1281 0.950 . S
H1277 C1282 0.949 . S
H1278 C1284 0.950 . S
H1279 C1285 0.950 . S
H1280 C1286 0.949 . S
C1281 H1276 0.950 . S
C1281 C1283 1.327 . S
C1281 C1287 1.429 . S
C1282 C1274 1.574 . S
C1282 H1277 0.949 . S
C1282 C1288 1.341 1_565 S
C1283 C1267 1.349 . S
C1283 H1275 0.950 . S
C1283 C1281 1.327 . S
C1284 C1272 1.349 . S
C1284 H1278 0.950 . S
C1284 C1285 1.327 . S
C1285 H1279 0.950 . S
C1285 C1284 1.327 . S
C1285 C1289 1.429 . S
C1286 C1269 1.574 . S
C1286 H1280 0.949 . S
C1286 C1290 1.341 1_545 S
C1287 C1268 1.429 1_545 S
C1287 C1281 1.429 . S
C1287 C1288 1.524 . S
C1288 C1269 1.395 . S
C1288 C1282 1.341 1_545 S
C1288 C1287 1.524 . S
C1289 C1273 1.429 1_565 S
C1289 C1285 1.429 . S
C1289 C1290 1.524 . S
C1290 C1274 1.395 . S
C1290 C1286 1.341 1_565 S
C1290 C1289 1.524 . S
H1291 C1266 0.950 . S
H1292 C1268 0.950 . S
H1293 C1269 0.949 . S
H1294 C1271 0.950 . S
H1295 C1273 0.950 . S
C1296 C1297 1.349 . S
C1296 C1298 1.327 . S
C1296 H1321 0.950 . S
C1297 C1296 1.349 . S
C1297 C1313 1.349 . S
C1298 C1296 1.327 . S
C1298 C1317 1.429 . S
C1298 H1322 0.950 . S
C1299 C1316 1.574 . S
C1299 C1318 1.368 . S
C1299 H1323 0.949 . S
H1300 C1304 0.949 . S
C1301 C1302 1.349 . S
C1301 C1303 1.327 . S
C1301 H1324 0.950 . S
C1302 C1301 1.349 . S
C1302 C1314 1.349 . S
C1303 C1301 1.327 . S
C1303 C1319 1.429 . S
C1303 H1325 0.950 . S
C1304 H1300 0.949 . S
C1304 C1312 1.574 . S
C1304 C1320 1.368 . S
H1305 C1313 0.950 . S
H1306 C1311 0.950 . S
H1307 C1312 0.949 . S
H1308 C1314 0.950 . S
H1309 C1315 0.950 . S
H1310 C1316 0.949 . S
C1311 H1306 0.950 . S
C1311 C1313 1.327 . S
C1311 C1317 1.429 . S
C1312 C1304 1.574 . S
C1312 H1307 0.949 . S
C1312 C1318 1.368 . S
C1313 C1297 1.349 . S
C1313 H1305 0.950 . S
C1313 C1311 1.327 . S
C1314 C1302 1.349 . S
C1314 H1308 0.950 . S
C1314 C1315 1.327 . S
C1315 H1309 0.950 . S
C1315 C1314 1.327 . S
C1315 C1319 1.429 . S
C1316 C1299 1.574 . S
C1316 H1310 0.949 . S
C1316 C1320 1.368 . S
C1317 C1298 1.429 . S
C1317 C1311 1.429 . S
C1317 C1318 1.523 . S
C1318 C1299 1.368 . S
C1318 C1312 1.368 . S
C1318 C1317 1.523 . S
C1319 C1303 1.429 . S
C1319 C1315 1.429 . S
C1319 C1320 1.523 . S
C1320 C1304 1.368 . S
C1320 C1316 1.368 . S
C1320 C1319 1.523 . S
H1321 C1296 0.950 . S
H1322 C1298 0.950 . S
H1323 C1299 0.949 . S
H1324 C1301 0.950 . S
H1325 C1303 0.950 . S
C1326 C1327 1.349 . S
C1326 C1328 1.327 . S
C1326 H1351 0.950 . S
C1327 C1326 1.349 . S
C1327 C1343 1.349 . S
C1328 C1326 1.327 . S
C1328 C1347 1.429 . S
C1328 H1352 0.950 . S
C1329 C1346 1.574 . S
C1329 C1348 1.368 . S
C1329 H1353 0.949 . S
H1330 C1334 0.949 . S
C1331 C1332 1.349 . S
C1331 C1333 1.327 . S
C1331 H1354 0.950 . S
C1332 C1331 1.349 . S
C1332 C1344 1.349 . S
C1333 C1331 1.327 . S
C1333 C1349 1.429 . S
C1333 H1355 0.950 . S
C1334 H1330 0.949 . S
C1334 C1342 1.574 . S
C1334 C1350 1.368 . S
H1335 C1343 0.950 . S
H1336 C1341 0.950 . S
H1337 C1342 0.949 . S
H1338 C1344 0.950 . S
H1339 C1345 0.950 . S
H1340 C1346 0.949 . S
C1341 H1336 0.950 . S
C1341 C1343 1.327 . S
C1341 C1347 1.429 . S
C1342 C1334 1.574 . S
C1342 H1337 0.949 . S
C1342 C1348 1.368 . S
C1343 C1327 1.349 . S
C1343 H1335 0.950 . S
C1343 C1341 1.327 . S
C1344 C1332 1.349 . S
C1344 H1338 0.950 . S
C1344 C1345 1.327 . S
C1345 H1339 0.950 . S
C1345 C1344 1.327 . S
C1345 C1349 1.429 . S
C1346 C1329 1.574 . S
C1346 H1340 0.949 . S
C1346 C1350 1.368 . S
C1347 C1328 1.429 . S
C1347 C1341 1.429 . S
C1347 C1348 1.523 . S
C1348 C1329 1.368 . S
C1348 C1342 1.368 . S
C1348 C1347 1.523 . S
C1349 C1333 1.429 . S
C1349 C1345 1.429 . S
C1349 C1350 1.523 . S
C1350 C1334 1.368 . S
C1350 C1346 1.368 . S
C1350 C1349 1.523 . S
H1351 C1326 0.950 . S
H1352 C1328 0.950 . S
H1353 C1329 0.949 . S
H1354 C1331 0.950 . S
H1355 C1333 0.950 . S
C1356 C1357 1.349 . S
C1356 C1358 1.327 . S
C1356 H1381 0.950 . S
C1357 C1356 1.349 . S
C1357 C1373 1.349 . S
C1358 C1356 1.327 . S
C1358 C1377 1.429 . S
C1358 H1382 0.950 . S
C1359 C1376 1.574 . S
C1359 C1378 1.368 . S
C1359 H1383 0.949 . S
H1360 C1364 0.949 . S
C1361 C1362 1.349 . S
C1361 C1363 1.327 . S
C1361 H1384 0.950 . S
C1362 C1361 1.349 . S
C1362 C1374 1.349 . S
C1363 C1361 1.327 . S
C1363 C1379 1.429 . S
C1363 H1385 0.950 . S
C1364 H1360 0.949 . S
C1364 C1372 1.574 . S
C1364 C1380 1.368 . S
H1365 C1373 0.950 . S
H1366 C1371 0.950 . S
H1367 C1372 0.949 . S
H1368 C1374 0.950 . S
H1369 C1375 0.950 . S
H1370 C1376 0.949 . S
C1371 H1366 0.950 . S
C1371 C1373 1.327 . S
C1371 C1377 1.429 . S
C1372 C1364 1.574 . S
C1372 H1367 0.949 . S
C1372 C1378 1.368 . S
C1373 C1357 1.349 . S
C1373 H1365 0.950 . S
C1373 C1371 1.327 . S
C1374 C1362 1.349 . S
C1374 H1368 0.950 . S
C1374 C1375 1.327 . S
C1375 H1369 0.950 . S
C1375 C1374 1.327 . S
C1375 C1379 1.429 . S
C1376 C1359 1.574 . S
C1376 H1370 0.949 . S
C1376 C1380 1.368 . S
C1377 C1358 1.429 . S
C1377 C1371 1.429 . S
C1377 C1378 1.523 . S
C1378 C1359 1.368 . S
C1378 C1372 1.368 . S
C1378 C1377 1.523 . S
C1379 C1363 1.429 . S
C1379 C1375 1.429 . S
C1379 C1380 1.523 . S
C1380 C1364 1.368 . S
C1380 C1376 1.368 . S
C1380 C1379 1.523 . S
H1381 C1356 0.950 . S
H1382 C1358 0.950 . S
H1383 C1359 0.949 . S
H1384 C1361 0.950 . S
H1385 C1363 0.950 . S
C1386 C1387 1.349 . S
C1386 C1388 1.327 . S
C1386 H1411 0.950 . S
C1387 C1386 1.349 . S
C1387 C1403 1.349 . S
C1388 C1386 1.327 . S
C1388 C1407 1.429 . S
C1388 H1412 0.950 . S
C1389 C1406 1.574 . S
C1389 C1408 1.368 . S
C1389 H1413 0.973 . S
H1390 C1394 0.949 . S
C1391 C1392 1.349 . S
C1391 C1393 1.327 . S
C1391 H1414 0.950 . S
C1392 C1391 1.349 . S
C1392 C1404 1.349 . S
C1393 C1391 1.327 . S
C1393 C1409 1.429 . S
C1393 H1415 0.983 . S
C1394 H1390 0.949 . S
C1394 C1402 1.574 . S
C1394 C1410 1.368 . S
H1395 C1403 0.950 . S
H1396 C1401 0.983 . S
H1397 C1402 0.949 . S
H1398 C1404 0.950 . S
H1399 C1405 0.950 . S
H1400 C1406 0.973 . S
C1401 H1396 0.983 . S
C1401 C1403 1.327 . S
C1401 C1407 1.429 . S
C1402 C1394 1.574 . S
C1402 H1397 0.949 . S
C1402 C1408 1.368 . S
C1403 C1387 1.349 . S
C1403 H1395 0.950 . S
C1403 C1401 1.327 . S
C1404 C1392 1.349 . S
C1404 H1398 0.950 . S
C1404 C1405 1.327 . S
C1405 H1399 0.950 . S
C1405 C1404 1.327 . S
C1405 C1409 1.429 . S
C1406 C1389 1.574 . S
C1406 H1400 0.973 . S
C1406 C1410 1.368 . S
C1407 C1388 1.429 . S
C1407 C1401 1.429 . S
C1407 C1408 1.523 . S
C1408 C1389 1.368 . S
C1408 C1402 1.368 . S
C1408 C1407 1.523 . S
C1409 C1393 1.429 . S
C1409 C1405 1.429 . S
C1409 C1410 1.523 . S
C1410 C1394 1.368 . S
C1410 C1406 1.368 . S
C1410 C1409 1.523 . S
H1411 C1386 0.950 . S
H1412 C1388 0.950 . S
H1413 C1389 0.973 . S
H1414 C1391 0.950 . S
H1415 C1393 0.983 . S
C1416 C1417 1.349 . S
C1416 C1418 1.327 . S
C1416 H1441 0.950 . S
C1417 C1416 1.349 . S
C1417 C1433 1.349 . S
C1418 C1416 1.327 . S
C1418 C1437 1.429 . S
C1418 H1442 0.950 . S
C1419 C1436 1.574 . S
C1419 C1438 1.368 . S
C1419 H1443 0.949 . S
H1420 C1424 0.949 . S
C1421 C1422 1.349 . S
C1421 C1423 1.327 . S
C1421 H1444 0.950 . S
C1422 C1421 1.349 . S
C1422 C1434 1.349 . S
C1423 C1421 1.327 . S
C1423 C1439 1.429 . S
C1423 H1445 0.950 . S
C1424 H1420 0.949 . S
C1424 C1432 1.574 . S
C1424 C1440 1.368 . S
H1425 C1433 0.950 . S
H1426 C1431 0.950 . S
H1427 C1432 0.949 . S
H1428 C1434 0.950 . S
H1429 C1435 0.950 . S
H1430 C1436 0.949 . S
C1431 H1426 0.950 . S
C1431 C1433 1.327 . S
C1431 C1437 1.429 . S
C1432 C1424 1.574 . S
C1432 H1427 0.949 . S
C1432 C1438 1.368 . S
C1433 C1417 1.349 . S
C1433 H1425 0.950 . S
C1433 C1431 1.327 . S
C1434 C1422 1.349 . S
C1434 H1428 0.950 . S
C1434 C1435 1.327 . S
C1435 H1429 0.950 . S
C1435 C1434 1.327 . S
C1435 C1439 1.429 . S
C1436 C1419 1.574 . S
C1436 H1430 0.949 . S
C1436 C1440 1.368 . S
C1437 C1418 1.429 . S
C1437 C1431 1.429 . S
C1437 C1438 1.523 . S
C1438 C1419 1.368 . S
C1438 C1432 1.368 . S
C1438 C1437 1.523 . S
C1439 C1423 1.429 . S
C1439 C1435 1.429 . S
C1439 C1440 1.523 . S
C1440 C1424 1.368 . S
C1440 C1436 1.368 . S
C1440 C1439 1.523 . S
H1441 C1416 0.950 . S
H1442 C1418 0.950 . S
H1443 C1419 0.949 . S
H1444 C1421 0.950 . S
H1445 C1423 0.950 . S
C1446 C1447 1.349 . S
C1446 C1448 1.327 . S
C1446 H1471 0.950 . S
C1447 C1446 1.349 . S
C1447 C1463 1.349 . S
C1448 C1446 1.327 . S
C1448 C1467 1.429 . S
C1448 H1472 0.950 . S
C1449 C1466 1.574 . S
C1449 C1468 1.368 . S
C1449 H1473 0.949 . S
H1450 C1454 0.949 . S
C1451 C1452 1.349 . S
C1451 C1453 1.327 . S
C1451 H1474 0.950 . S
C1452 C1451 1.349 . S
C1452 C1464 1.349 . S
C1453 C1451 1.327 . S
C1453 C1469 1.429 . S
C1453 H1475 0.950 . S
C1454 H1450 0.949 . S
C1454 C1462 1.574 . S
C1454 C1470 1.368 . S
H1455 C1463 0.950 . S
H1456 C1461 0.950 . S
H1457 C1462 0.949 . S
H1458 C1464 0.950 . S
H1459 C1465 0.950 . S
H1460 C1466 0.949 . S
C1461 H1456 0.950 . S
C1461 C1463 1.327 . S
C1461 C1467 1.429 . S
C1462 C1454 1.574 . S
C1462 H1457 0.949 . S
C1462 C1468 1.368 . S
C1463 C1447 1.349 . S
C1463 H1455 0.950 . S
C1463 C1461 1.327 . S
C1464 C1452 1.349 . S
C1464 H1458 0.950 . S
C1464 C1465 1.327 . S
C1465 H1459 0.950 . S
C1465 C1464 1.327 . S
C1465 C1469 1.429 . S
C1466 C1449 1.574 . S
C1466 H1460 0.949 . S
C1466 C1470 1.368 . S
C1467 C1448 1.429 . S
C1467 C1461 1.429 . S
C1467 C1468 1.523 . S
C1468 C1449 1.368 . S
C1468 C1462 1.368 . S
C1468 C1467 1.523 . S
C1469 C1453 1.429 . S
C1469 C1465 1.429 . S
C1469 C1470 1.523 . S
C1470 C1454 1.368 . S
C1470 C1466 1.368 . S
C1470 C1469 1.523 . S
H1471 C1446 0.950 . S
H1472 C1448 0.950 . S
H1473 C1449 0.949 . S
H1474 C1451 0.950 . S
H1475 C1453 0.950 . S
C1476 C1477 1.349 . S
C1476 C1478 1.327 . S
C1476 H1501 0.950 . S
C1477 C1476 1.349 . S
C1477 C1493 1.349 . S
C1478 C1476 1.327 . S
C1478 C1497 1.429 . S
C1478 H1502 0.950 . S
C1479 C1496 1.574 . S
C1479 C1498 1.368 . S
C1479 H1503 0.949 . S
H1480 C1484 0.949 . S
C1481 C1482 1.349 . S
C1481 C1483 1.327 . S
C1481 H1504 0.950 . S
C1482 C1481 1.349 . S
C1482 C1494 1.349 . S
C1483 C1481 1.327 . S
C1483 C1499 1.429 . S
C1483 H1505 0.950 . S
C1484 H1480 0.949 . S
C1484 C1492 1.574 . S
C1484 C1500 1.368 . S
H1485 C1493 0.950 . S
H1486 C1491 0.950 . S
H1487 C1492 0.949 . S
H1488 C1494 0.950 . S
H1489 C1495 0.950 . S
H1490 C1496 0.949 . S
C1491 H1486 0.950 . S
C1491 C1493 1.327 . S
C1491 C1497 1.429 . S
C1492 C1484 1.574 . S
C1492 H1487 0.949 . S
C1492 C1498 1.368 . S
C1493 C1477 1.349 . S
C1493 H1485 0.950 . S
C1493 C1491 1.327 . S
C1494 C1482 1.349 . S
C1494 H1488 0.950 . S
C1494 C1495 1.327 . S
C1495 H1489 0.950 . S
C1495 C1494 1.327 . S
C1495 C1499 1.429 . S
C1496 C1479 1.574 . S
C1496 H1490 0.949 . S
C1496 C1500 1.368 . S
C1497 C1478 1.429 . S
C1497 C1491 1.429 . S
C1497 C1498 1.523 . S
C1498 C1479 1.368 . S
C1498 C1492 1.368 . S
C1498 C1497 1.523 . S
C1499 C1483 1.429 . S
C1499 C1495 1.429 . S
C1499 C1500 1.523 . S
C1500 C1484 1.368 . S
C1500 C1496 1.368 . S
C1500 C1499 1.523 . S
H1501 C1476 0.950 . S
H1502 C1478 0.950 . S
H1503 C1479 0.949 . S
H1504 C1481 0.950 . S
H1505 C1483 0.950 . S
C1506 C1507 1.349 . S
C1506 C1508 1.327 . S
C1506 H1531 0.950 . S
C1507 C1506 1.349 . S
C1507 C1523 1.349 . S
C1508 C1506 1.327 . S
C1508 C1527 1.429 . S
C1508 H1532 0.950 . S
C1509 C1526 1.574 . S
C1509 C1528 1.368 . S
C1509 H1533 0.973 . S
H1510 C1514 0.949 . S
C1511 C1512 1.349 . S
C1511 C1513 1.327 . S
C1511 H1534 0.950 . S
C1512 C1511 1.349 . S
C1512 C1524 1.349 . S
C1513 C1511 1.327 . S
C1513 C1529 1.429 . S
C1513 H1535 0.983 . S
C1514 H1510 0.949 . S
C1514 C1522 1.574 . S
C1514 C1530 1.368 . S
H1515 C1523 0.950 . S
H1516 C1521 0.983 . S
H1517 C1522 0.949 . S
H1518 C1524 0.950 . S
H1519 C1525 0.950 . S
H1520 C1526 0.973 . S
C1521 H1516 0.983 . S
C1521 C1523 1.327 . S
C1521 C1527 1.429 . S
C1522 C1514 1.574 . S
C1522 H1517 0.949 . S
C1522 C1528 1.368 . S
C1523 C1507 1.349 . S
C1523 H1515 0.950 . S
C1523 C1521 1.327 . S
C1524 C1512 1.349 . S
C1524 H1518 0.950 . S
C1524 C1525 1.327 . S
C1525 H1519 0.950 . S
C1525 C1524 1.327 . S
C1525 C1529 1.429 . S
C1526 C1509 1.574 . S
C1526 H1520 0.973 . S
C1526 C1530 1.368 . S
C1527 C1508 1.429 . S
C1527 C1521 1.429 . S
C1527 C1528 1.523 . S
C1528 C1509 1.368 . S
C1528 C1522 1.368 . S
C1528 C1527 1.523 . S
C1529 C1513 1.429 . S
C1529 C1525 1.429 . S
C1529 C1530 1.523 . S
C1530 C1514 1.368 . S
C1530 C1526 1.368 . S
C1530 C1529 1.523 . S
H1531 C1506 0.950 . S
H1532 C1508 0.950 . S
H1533 C1509 0.973 . S
H1534 C1511 0.950 . S
H1535 C1513 0.983 . S
C577 C4 0.602 . S
C582 C326 0.551 . S
C607 C362 0.551 . S
C612 C40 0.601 . S
C637 C398 0.551 . S
C642 C76 0.602 . S
C667 C290 0.551 . S
C672 C112 0.601 . S
C697 C148 0.601 . S
C702 C542 0.551 . S
C727 C434 0.551 . S
C732 C184 0.602 . S
C757 C470 0.551 . S
C762 C220 0.601 . S
C787 C506 0.551 . S
C792 C256 0.602 . S
C817 C292 0.602 . S
C822 C38 0.551 . S
C847 C328 0.601 . S
C852 C74 0.551 . S
C877 C364 0.602 . S
C882 C110 0.551 . S
C907 C2 0.551 . S
C912 C400 0.601 . S
C937 C436 0.601 . S
C942 C254 0.551 . S
C967 C472 0.602 . S
C972 C146 0.551 . S
C997 C182 0.551 . S
C1002 C508 0.601 . S
C1027 C544 0.602 . S
C1032 C218 0.551 . S
C1057 C291 1.679 . S
C1062 C3 1.679 . S
C1087 C39 1.679 . S
C1092 C327 1.679 . S
C1117 C363 1.679 . S
C1122 C75 1.679 . S
C1147 C111 1.679 . S
C1152 C399 1.679 . S
C1177 C435 1.679 . S
C1182 C147 1.679 . S
C1207 C183 1.679 . S
C1212 C471 1.679 . S
C1237 C507 1.679 . S
C1242 C219 1.679 . S
C1267 C543 1.679 . S
C1272 C255 1.679 . S
C1297 C158 1.547 . S
C1302 C14 1.547 . S
C1327 C194 1.547 . S
C1332 C50 1.547 . S
C1357 C86 1.547 . S
C1362 C230 1.547 . S
C1387 C266 1.547 . S
C1392 C122 1.547 . S
C1417 C302 1.547 . S
C1422 C446 1.547 . S
C1447 C482 1.547 . S
C1452 C338 1.547 . S
C1477 C518 1.547 . S
C1482 C374 1.547 . S
C1507 C554 1.547 . S
C1512 C410 1.547 . S
