# Generated by pormake.
# Topology uoc, (4)-cn, num edge types: 1
# Building blocks:
#     Node 0, Type 0, BuildingBlock: ICAMEG_clean_sbu_1, # of connection points: 4
#     Node 1, Type 0, BuildingBlock: ICAMEG_clean_sbu_1, # of connection points: 4
#     Node 2, Type 0, BuildingBlock: ICAMEG_clean_sbu_1, # of connection points: 4
#     Node 3, Type 0, BuildingBlock: ICAMEG_clean_sbu_1, # of connection points: 4
#     Node 4, Type 0, BuildingBlock: ICAMEG_clean_sbu_1, # of connection points: 4
#     Node 5, Type 0, BuildingBlock: ICAMEG_clean_sbu_1, # of connection points: 4
#     Node 6, Type 0, BuildingBlock: ICAMEG_clean_sbu_1, # of connection points: 4
#     Node 7, Type 0, BuildingBlock: ICAMEG_clean_sbu_1, # of connection points: 4
#     Edge 8, Type (0, 0), BuildingBlock: EZIPEK_clean_linker_0, # of connection points: 2
#     Edge 9, Type (0, 0), BuildingBlock: EZIPEK_clean_linker_0, # of connection points: 2
#     Edge 10, Type (0, 0), BuildingBlock: EZIPEK_clean_linker_0, # of connection points: 2
#     Edge 11, Type (0, 0), BuildingBlock: EZIPEK_clean_linker_0, # of connection points: 2
#     Edge 12, Type (0, 0), BuildingBlock: EZIPEK_clean_linker_0, # of connection points: 2
#     Edge 13, Type (0, 0), BuildingBlock: EZIPEK_clean_linker_0, # of connection points: 2
#     Edge 14, Type (0, 0), BuildingBlock: EZIPEK_clean_linker_0, # of connection points: 2
#     Edge 15, Type (0, 0), BuildingBlock: EZIPEK_clean_linker_0, # of connection points: 2
#     Edge 16, Type (0, 0), BuildingBlock: EZIPEK_clean_linker_0, # of connection points: 2
#     Edge 17, Type (0, 0), BuildingBlock: EZIPEK_clean_linker_0, # of connection points: 2
#     Edge 18, Type (0, 0), BuildingBlock: EZIPEK_clean_linker_0, # of connection points: 2
#     Edge 19, Type (0, 0), BuildingBlock: EZIPEK_clean_linker_0, # of connection points: 2
#     Edge 20, Type (0, 0), BuildingBlock: EZIPEK_clean_linker_0, # of connection points: 2
#     Edge 21, Type (0, 0), BuildingBlock: EZIPEK_clean_linker_0, # of connection points: 2
#     Edge 22, Type (0, 0), BuildingBlock: EZIPEK_clean_linker_0, # of connection points: 2
#     Edge 23, Type (0, 0), BuildingBlock: EZIPEK_clean_linker_0, # of connection points: 2
# Relax obj value: 0.095
# Max RMSD: 0.097
# Mean RMSD: 0.097
data_MOF--net-uoc--node1-ICAMEG_clean_sbu_1--edge1-EZIPEK_clean_linker_0
_symmetry_space_group_name_H-M    P1
_symmetry_Int_Tables_number       1
_symmetry_cell_setting            triclinic
loop_
_symmetry_equiv_pos_as_xyz
'x, y, z'
_cell_length_a     21.135008
_cell_length_b     21.146966
_cell_length_c     44.064226
_cell_angle_alpha  89.897841
_cell_angle_beta   89.894625
_cell_angle_gamma 100.91971
loop_
_atom_site_label
_atom_site_type_symbol
_atom_site_fract_x
_atom_site_fract_y
_atom_site_fract_z
_atom_type_partial_charge
Co0 Co 0.1656 0.2396 0.12952 0.0
Co1 Co 0.01987 0.2527 0.09728 0.0
O2 O 0.0949 0.28589 0.12248 0.0
C3 C 0.12467 0.2707 0.19114 0.0
O4 O 0.06504 0.24962 0.18259 0.0
C5 C 0.05914 0.39158 0.07888 0.0
O6 O 0.12029 0.38799 0.08075 0.0
O7 O 0.07818 0.24001 0.06245 0.0
O8 O 0.16305 0.21068 0.08583 0.0
H9 H 0.87998 0.08835 0.03252 0.0
H10 H 0.18317 0.37742 0.14658 0.0
O11 O 0.17125 0.26907 0.173 0.0
H12 H 0.35192 0.36653 0.07054 0.0
H13 H 0.38211 0.21753 0.17115 0.0
H14 H 0.18841 0.10757 0.11727 0.0
H15 H 0.27721 0.26813 0.08666 0.0
H16 H 0.29233 0.27379 0.16088 0.0
O17 O 0.01544 0.3423 0.08359 0.0
H18 H 0.98173 0.14059 0.05638 0.0
H19 H 0.89698 0.29759 0.08396 0.0
H20 H 0.27731 0.04971 0.12654 0.0
H21 H 0.25744 0.47695 0.13153 0.0
H22 H 0.37522 0.10482 0.15368 0.0
H23 H 0.3425 0.47192 0.0931 0.0
O24 O 0.10334 0.15906 0.14148 0.0
H25 H 0.9456 0.37136 0.18526 0.0
H26 H 0.90707 0.16858 0.12725 0.0
H27 H 0.83792 0.18021 0.17116 0.0
H28 H 0.85665 0.28233 0.20043 0.0
H29 H 0.01429 0.35664 0.14159 0.0
H30 H 0.79621 0.25047 0.05774 0.0
H31 H 0.78633 0.14385 0.03276 0.0
O32 O 0.01966 0.16358 0.11088 0.0
C33 C 0.1312 0.21842 0.06179 0.0
C34 C 0.88357 0.13481 0.04332 0.0
C35 C 0.83657 0.22569 0.05754 0.0
N36 N 0.94484 0.22082 0.07241 0.0
C37 C 0.9409 0.16407 0.05723 0.0
C38 C 0.8941 0.25252 0.07204 0.0
C39 C 0.83103 0.16587 0.04356 0.0
C40 C 0.22046 0.37475 0.13019 0.0
N41 N 0.22582 0.31698 0.11767 0.0
C42 C 0.26222 0.43131 0.1216 0.0
C43 C 0.30982 0.42847 0.1 0.0
C44 C 0.31508 0.36937 0.08731 0.0
C45 C 0.27241 0.31382 0.09644 0.0
C46 C 0.34007 0.19324 0.15897 0.0
C47 C 0.23138 0.13237 0.12832 0.0
C48 C 0.28912 0.22492 0.153 0.0
N49 N 0.23611 0.19481 0.13735 0.0
C50 C 0.28134 0.09913 0.13387 0.0
C51 C 0.33616 0.13 0.14918 0.0
C52 C 0.04934 0.13396 0.12959 0.0
C53 C 0.93652 0.3268 0.17256 0.0
C54 C 0.91576 0.21316 0.13987 0.0
C55 C 0.87628 0.21948 0.16471 0.0
C56 C 0.88678 0.27679 0.1811 0.0
N57 N 0.96422 0.26265 0.13147 0.0
C58 C 0.97496 0.31865 0.1476 0.0
Co59 Co 0.7293 0.66121 0.38291 0.0
Co60 Co 0.7481 0.51477 0.41258 0.0
O61 O 0.778 0.5917 0.38787 0.0
C62 C 0.76123 0.62983 0.31929 0.0
O63 O 0.74471 0.56822 0.32555 0.0
C64 C 0.88701 0.55686 0.43019 0.0
O65 O 0.88184 0.61763 0.42882 0.0
O66 O 0.73554 0.57011 0.44858 0.0
O67 O 0.70251 0.65468 0.42678 0.0
H68 H 0.59016 0.36613 0.47742 0.0
H69 H 0.86632 0.68294 0.36372 0.0
O70 O 0.75661 0.67197 0.33931 0.0
H71 H 0.85594 0.84514 0.44291 0.0
H72 H 0.69797 0.87823 0.34534 0.0
H73 H 0.59754 0.67972 0.39887 0.0
H74 H 0.75781 0.76979 0.42722 0.0
H75 H 0.75794 0.79022 0.353 0.0
O76 O 0.83881 0.51229 0.42503 0.0
H77 H 0.63906 0.47079 0.45493 0.0
H78 H 0.79763 0.39331 0.42316 0.0
H79 H 0.53608 0.76683 0.39224 0.0
H80 H 0.96541 0.75805 0.3784 0.0
H81 H 0.58637 0.8671 0.36526 0.0
H82 H 0.96067 0.83973 0.41836 0.0
O83 O 0.64953 0.59803 0.37115 0.0
H84 H 0.86607 0.44955 0.32213 0.0
H85 H 0.66523 0.40253 0.38198 0.0
H86 H 0.67704 0.33698 0.3369 0.0
H87 H 0.7782 0.36001 0.3067 0.0
H88 H 0.85124 0.51462 0.36701 0.0
H89 H 0.75467 0.29001 0.44843 0.0
H90 H 0.64894 0.27506 0.47488 0.0
O91 O 0.65775 0.51282 0.40026 0.0
C92 C 0.71274 0.6223 0.45023 0.0
C93 C 0.63626 0.37194 0.46598 0.0
C94 C 0.72849 0.32923 0.44967 0.0
N95 N 0.71958 0.43763 0.43674 0.0
C96 C 0.66348 0.43088 0.45278 0.0
C97 C 0.75298 0.38821 0.43574 0.0
C98 C 0.66914 0.32083 0.46444 0.0
C99 C 0.86367 0.71884 0.38086 0.0
N100 N 0.80623 0.72204 0.39449 0.0
C101 C 0.92003 0.76105 0.38919 0.0
C102 C 0.91735 0.80677 0.41166 0.0
C103 C 0.85862 0.80978 0.42546 0.0
C104 C 0.80324 0.76678 0.41656 0.0
C105 C 0.67575 0.83507 0.35741 0.0
C106 C 0.6202 0.72364 0.38777 0.0
C107 C 0.70951 0.78508 0.36187 0.0
N108 N 0.68196 0.73059 0.3773 0.0
C109 C 0.58496 0.77262 0.38378 0.0
C110 C 0.61314 0.82878 0.36857 0.0
C111 C 0.62625 0.54282 0.38251 0.0
C112 C 0.82193 0.43865 0.33522 0.0
C113 C 0.70935 0.41315 0.36893 0.0
C114 C 0.71579 0.37568 0.34344 0.0
C115 C 0.77256 0.38858 0.32653 0.0
N116 N 0.75818 0.46201 0.37743 0.0
C117 C 0.81368 0.47508 0.36082 0.0
Co118 Co 0.35032 0.27335 0.62717 0.0
Co119 Co 0.49636 0.25966 0.59479 0.0
O120 O 0.42164 0.22706 0.62073 0.0
C121 C 0.37424 0.21586 0.68843 0.0
O122 O 0.42462 0.19548 0.67774 0.0
C123 C 0.45807 0.12075 0.57733 0.0
O124 O 0.397 0.1249 0.57845 0.0
O125 O 0.43759 0.26916 0.55986 0.0
O126 O 0.35381 0.30047 0.58322 0.0
H127 H 0.63337 0.42183 0.52742 0.0
H128 H 0.33623 0.13322 0.64154 0.0
O129 O 0.34197 0.2474 0.67162 0.0
H130 H 0.16213 0.1484 0.56934 0.0
H131 H 0.13291 0.2995 0.66678 0.0
H132 H 0.32907 0.40502 0.61285 0.0
H133 H 0.2367 0.24609 0.58597 0.0
H134 H 0.22217 0.24172 0.65799 0.0
O135 O 0.50186 0.16968 0.58237 0.0
H136 H 0.53208 0.36891 0.55179 0.0
H137 H 0.62048 0.21644 0.58224 0.0
H138 H 0.24065 0.4643 0.62056 0.0
H139 H 0.26245 0.03452 0.62582 0.0
H140 H 0.14151 0.41144 0.64773 0.0
H141 H 0.17442 0.04159 0.58943 0.0
O142 O 0.41283 0.35369 0.63859 0.0
H143 H 0.5801 0.14626 0.6823 0.0
H144 H 0.60565 0.34907 0.62431 0.0
H145 H 0.67611 0.34186 0.66807 0.0
H146 H 0.66386 0.23982 0.6974 0.0
H147 H 0.50973 0.15646 0.6388 0.0
H148 H 0.7208 0.26388 0.55546 0.0
H149 H 0.72858 0.36866 0.52877 0.0
O150 O 0.49503 0.34921 0.60691 0.0
C151 C 0.38487 0.2911 0.55916 0.0
C152 C 0.63078 0.37631 0.53908 0.0
C153 C 0.67979 0.2877 0.55481 0.0
N154 N 0.5709 0.29112 0.56937 0.0
C155 C 0.5737 0.34668 0.55324 0.0
C156 C 0.62251 0.26066 0.56962 0.0
C157 C 0.68417 0.34652 0.5399 0.0
C158 C 0.29764 0.13708 0.62615 0.0
N159 N 0.29003 0.19581 0.61544 0.0
C160 C 0.25612 0.08082 0.61713 0.0
C161 C 0.20686 0.0848 0.59667 0.0
C162 C 0.19992 0.14469 0.58542 0.0
C163 C 0.24234 0.1999 0.59497 0.0
C164 C 0.17554 0.32283 0.65461 0.0
C165 C 0.28562 0.38119 0.62396 0.0
C166 C 0.22626 0.29031 0.64952 0.0
N167 N 0.28 0.31916 0.63387 0.0
C168 C 0.2359 0.41523 0.62861 0.0
C169 C 0.1804 0.38563 0.64393 0.0
C170 C 0.46602 0.37897 0.62584 0.0
C171 C 0.58602 0.19101 0.66971 0.0
C172 C 0.59925 0.30466 0.6371 0.0
C173 C 0.6397 0.30079 0.66179 0.0
C174 C 0.63289 0.24352 0.6782 0.0
N175 N 0.55306 0.25299 0.62897 0.0
C176 C 0.54645 0.19676 0.64491 0.0
Co177 Co 0.77126 0.83566 0.88225 0.0
Co178 Co 0.75405 0.98131 0.91304 0.0
O179 O 0.72367 0.90583 0.88778 0.0
C180 C 0.74226 0.87118 0.81896 0.0
O181 O 0.76023 0.93226 0.82588 0.0
C182 C 0.61537 0.94041 0.93122 0.0
O183 O 0.62046 0.87956 0.93068 0.0
O184 O 0.76522 0.92405 0.94846 0.0
O185 O 0.79783 0.83984 0.92614 0.0
H186 H 0.91139 0.12343 0.98017 0.0
H187 H 0.63466 0.81719 0.86294 0.0
O188 O 0.7446 0.82757 0.83861 0.0
H189 H 0.64067 0.65137 0.94114 0.0
H190 H 0.79687 0.61805 0.84345 0.0
H191 H 0.90396 0.81508 0.89559 0.0
H192 H 0.74016 0.72552 0.92584 0.0
H193 H 0.73922 0.70727 0.85232 0.0
O194 O 0.6635 0.98462 0.92535 0.0
H195 H 0.86173 0.02088 0.95628 0.0
H196 H 0.70698 0.10386 0.92423 0.0
H197 H 0.96313 0.72674 0.88776 0.0
H198 H 0.53422 0.74343 0.87728 0.0
H199 H 0.9095 0.62713 0.86149 0.0
H200 H 0.53676 0.65991 0.91673 0.0
O201 O 0.85204 0.89841 0.87107 0.0
H202 H 0.6393 0.05265 0.82302 0.0
H203 H 0.83909 0.09377 0.88334 0.0
H204 H 0.82936 0.1616 0.83873 0.0
H205 H 0.72874 0.14154 0.80829 0.0
H206 H 0.652 0.98523 0.86745 0.0
H207 H 0.75098 0.20534 0.95058 0.0
H208 H 0.85524 0.2165 0.97787 0.0
O209 O 0.84427 0.98239 0.90096 0.0
C210 C 0.78841 0.87205 0.94976 0.0
C211 C 0.86591 0.11929 0.96841 0.0
C212 C 0.77604 0.16527 0.95169 0.0
N213 N 0.78312 0.05698 0.93789 0.0
C214 C 0.8383 0.06156 0.95439 0.0
C215 C 0.75099 0.10736 0.9371 0.0
C216 C 0.83452 0.17151 0.96698 0.0
C217 C 0.63634 0.78051 0.87987 0.0
N218 N 0.69332 0.77557 0.89342 0.0
C219 C 0.57923 0.73906 0.888 0.0
C220 C 0.58067 0.69231 0.91018 0.0
C221 C 0.63894 0.68754 0.92391 0.0
C222 C 0.6951 0.72986 0.91523 0.0
C223 C 0.82048 0.66078 0.85533 0.0
C224 C 0.87965 0.77135 0.88503 0.0
C225 C 0.78797 0.71142 0.86055 0.0
N226 N 0.81719 0.76538 0.87579 0.0
C227 C 0.9137 0.7217 0.88025 0.0
C228 C 0.88367 0.66594 0.86542 0.0
C229 C 0.87579 0.95269 0.88311 0.0
C230 C 0.68322 0.06224 0.83621 0.0
C231 C 0.7952 0.08443 0.87018 0.0
C232 C 0.78993 0.12319 0.84497 0.0
C233 C 0.73346 0.11196 0.82792 0.0
N234 N 0.74551 0.03593 0.8783 0.0
C235 C 0.69029 0.02448 0.86156 0.0
Co236 Co 0.69319 0.75974 0.63514 0.0
Co237 Co 0.54388 0.75453 0.60394 0.0
O238 O 0.61484 0.79499 0.62975 0.0
C239 C 0.65566 0.78228 0.69893 0.0
O240 O 0.5963 0.7537 0.69297 0.0
C241 C 0.5654 0.89008 0.58111 0.0
O242 O 0.62568 0.88751 0.57505 0.0
O243 O 0.60419 0.75358 0.56884 0.0
O244 O 0.69145 0.73053 0.59146 0.0
H245 H 0.42971 0.58481 0.53326 0.0
H246 H 0.68962 0.89417 0.65226 0.0
O247 O 0.69888 0.78865 0.67846 0.0
H248 H 0.8624 0.91103 0.5757 0.0
H249 H 0.91728 0.76474 0.67493 0.0
H250 H 0.73322 0.63568 0.62089 0.0
H251 H 0.80277 0.80499 0.59207 0.0
H252 H 0.81948 0.80895 0.66493 0.0
O253 O 0.52751 0.84183 0.59249 0.0
H254 H 0.52249 0.64282 0.56201 0.0
H255 H 0.41322 0.78144 0.59029 0.0
H256 H 0.82999 0.58954 0.63041 0.0
H257 H 0.74835 1.00135 0.63672 0.0
H258 H 0.92312 0.65434 0.65751 0.0
H259 H 0.83541 0.01032 0.59812 0.0
O260 O 0.64112 0.67385 0.64733 0.0
H261 H 0.45145 0.84615 0.69567 0.0
H262 H 0.44044 0.65441 0.631 0.0
H263 H 0.36805 0.64968 0.67515 0.0
H264 H 0.37296 0.74615 0.70779 0.0
H265 H 0.52354 0.84797 0.65157 0.0
H266 H 0.32007 0.72651 0.56061 0.0
H267 H 0.32733 0.62641 0.53254 0.0
O268 O 0.55738 0.66802 0.6155 0.0
C269 C 0.65903 0.73611 0.56746 0.0
C270 C 0.42586 0.62836 0.54538 0.0
C271 C 0.36434 0.70783 0.56081 0.0
N272 N 0.47307 0.715 0.57815 0.0
C273 C 0.47819 0.66126 0.56187 0.0
C274 C 0.41744 0.73905 0.57735 0.0
C275 C 0.36847 0.65169 0.54503 0.0
C276 C 0.72768 0.89757 0.63558 0.0
N277 N 0.74266 0.84311 0.62309 0.0
C278 C 0.76067 0.95845 0.62682 0.0
C279 C 0.80942 0.96346 0.60513 0.0
C280 C 0.82454 0.90777 0.59252 0.0
C281 C 0.79038 0.84771 0.60179 0.0
C282 C 0.87727 0.73623 0.66285 0.0
C283 C 0.77355 0.66431 0.63255 0.0
C284 C 0.82181 0.7611 0.65701 0.0
N285 N 0.77116 0.72554 0.64163 0.0
C286 C 0.82826 0.63788 0.63792 0.0
C287 C 0.88046 0.67425 0.65313 0.0
C288 C 0.59062 0.64285 0.6344 0.0
C289 C 0.44833 0.80397 0.68146 0.0
C290 C 0.4429 0.69671 0.64501 0.0
C291 C 0.40171 0.69369 0.67001 0.0
C292 C 0.40447 0.74782 0.6883 0.0
N293 N 0.48548 0.75218 0.63827 0.0
C294 C 0.48873 0.80511 0.65627 0.0
Co295 Co 0.25651 0.18163 0.87549 0.0
Co296 Co 0.25025 0.03513 0.90984 0.0
O297 O 0.2917 0.10324 0.88232 0.0
C298 C 0.31044 0.15019 0.81441 0.0
O299 O 0.32212 0.09527 0.82453 0.0
C300 C 0.38752 0.05244 0.92999 0.0
O301 O 0.38835 0.11379 0.93483 0.0
O302 O 0.25448 0.0988 0.94371 0.0
O303 O 0.22669 0.18179 0.91926 0.0
H304 H 0.08006 0.93239 0.98353 0.0
H305 H 0.3937 0.17347 0.86433 0.0
O306 O 0.28487 0.18704 0.83148 0.0
H307 H 0.4014 0.35958 0.93217 0.0
H308 H 0.25833 0.40363 0.83328 0.0
H309 H 0.13117 0.21987 0.88878 0.0
H310 H 0.2975 0.2979 0.91464 0.0
H311 H 0.30425 0.3073 0.84437 0.0
O312 O 0.33684 0.01553 0.92045 0.0
H313 H 0.14111 0.02169 0.95338 0.0
H314 H 0.27211 0.9035 0.92543 0.0
H315 H 0.0833 0.3151 0.87812 0.0
H316 H 0.49866 0.23384 0.8812 0.0
H317 H 0.14718 0.40812 0.85034 0.0
H318 H 0.50319 0.32792 0.91534 0.0
O319 O 0.17177 0.1278 0.86329 0.0
H320 H 0.33217 0.9249 0.82078 0.0
H321 H 0.14344 0.93566 0.88506 0.0
H322 H 0.13241 0.85923 0.84249 0.0
H323 H 0.22726 0.85323 0.80999 0.0
H324 H 0.34032 1.00142 0.86329 0.0
H325 H 0.21436 0.81388 0.95665 0.0
H326 H 0.11632 0.82727 0.98514 0.0
O327 O 0.16416 0.05152 0.89922 0.0
C328 C 0.23575 0.15304 0.944 0.0
C329 C 0.12269 0.92587 0.97122 0.0
C330 C 0.19799 0.85935 0.95605 0.0
N331 N 0.20965 0.96762 0.93732 0.0
C332 C 0.1573 0.97621 0.95395 0.0
C333 C 0.23087 0.9105 0.93865 0.0
C334 C 0.14304 0.86694 0.97208 0.0
C335 C 0.39491 0.21452 0.87893 0.0
N336 N 0.33905 0.23268 0.88787 0.0
C337 C 0.4547 0.2485 0.88851 0.0
C338 C 0.45721 0.30117 0.9077 0.0
C339 C 0.40014 0.31897 0.91712 0.0
C340 C 0.34126 0.28377 0.90708 0.0
C341 C 0.2302 0.36365 0.84564 0.0
C342 C 0.15934 0.26011 0.87675 0.0
C343 C 0.256 0.30901 0.85207 0.0
N344 N 0.22102 0.25853 0.86793 0.0
C345 C 0.13196 0.31396 0.87077 0.0
C346 C 0.16781 0.3661 0.85517 0.0
C347 C 0.13989 0.08035 0.87817 0.0
C348 C 0.29047 0.92691 0.83478 0.0
C349 C 0.18495 0.93389 0.87095 0.0
C350 C 0.1784 0.8902 0.84692 0.0
C351 C 0.23161 0.88681 0.82872 0.0
N352 N 0.24286 0.97336 0.87672 0.0
C353 C 0.2951 0.97003 0.85901 0.0
Co354 Co 0.82072 0.75273 0.13715 0.0
Co355 Co 0.97077 0.75535 0.10632 0.0
O356 O 0.89781 0.71542 0.13142 0.0
C357 C 0.85569 0.72704 0.20113 0.0
O358 O 0.91552 0.75535 0.19586 0.0
C359 C 0.94679 0.61916 0.08354 0.0
O360 O 0.88594 0.62117 0.07873 0.0
O361 O 0.91187 0.76055 0.07103 0.0
O362 O 0.82314 0.78224 0.09344 0.0
H363 H 0.09357 0.92685 0.03845 0.0
H364 H 0.81867 0.61647 0.15371 0.0
O365 O 0.81355 0.72219 0.18029 0.0
H366 H 0.65116 0.60921 0.07536 0.0
H367 H 0.59419 0.74688 0.17443 0.0
H368 H 0.787 0.88341 0.13013 0.0
H369 H 0.71347 0.71323 0.09284 0.0
H370 H 0.69111 0.70205 0.16373 0.0
O371 O 0.98521 0.66774 0.09415 0.0
H372 H 0.9978 0.86939 0.06557 0.0
H373 H 0.10012 0.72442 0.09293 0.0
H374 H 0.69105 0.92987 0.1402 0.0
H375 H 0.75701 0.51145 0.13709 0.0
H376 H 0.59336 0.86148 0.16238 0.0
H377 H 0.67261 0.50736 0.09761 0.0
O378 O 0.87523 0.83758 0.14976 0.0
H379 H 0.05521 0.6558 0.19795 0.0
H380 H 0.07657 0.85085 0.13443 0.0
H381 H 0.1473 0.85069 0.17878 0.0
H382 H 0.13724 0.75249 0.21082 0.0
H383 H 0.98481 0.65903 0.15371 0.0
H384 H 0.19581 0.7782 0.0644 0.0
H385 H 0.19354 0.88113 0.03758 0.0
O386 O 0.95994 0.84205 0.11854 0.0
C387 C 0.85715 0.77856 0.06964 0.0
C388 C 0.09516 0.88194 0.04994 0.0
C389 C 0.15256 0.79861 0.0646 0.0
N390 N 0.04352 0.79411 0.08123 0.0
C391 C 0.04116 0.84943 0.06556 0.0
C392 C 0.09796 0.76801 0.08046 0.0
C393 C 0.15127 0.85637 0.04957 0.0
C394 C 0.78159 0.61514 0.13673 0.0
N395 N 0.76942 0.67098 0.12444 0.0
C396 C 0.74702 0.5555 0.12732 0.0
C397 C 0.69977 0.55324 0.10512 0.0
C398 C 0.68773 0.61037 0.09262 0.0
C399 C 0.72335 0.66913 0.10253 0.0
C400 C 0.63592 0.77684 0.16411 0.0
C401 C 0.74435 0.8525 0.13885 0.0
C402 C 0.69087 0.75154 0.15767 0.0
N403 N 0.74369 0.78875 0.14434 0.0
C404 C 0.69024 0.87947 0.14491 0.0
C405 C 0.63554 0.84116 0.15745 0.0
C406 C 0.92679 0.86788 0.13719 0.0
C407 C 0.06066 0.69865 0.18398 0.0
C408 C 0.07192 0.80779 0.14815 0.0
C409 C 0.11215 0.80805 0.17328 0.0
C410 C 0.10649 0.75296 0.19124 0.0
N411 N 0.02754 0.75401 0.14093 0.0
C412 C 0.02129 0.70028 0.15868 0.0
Co413 Co 0.24533 0.31658 0.3752 0.0
Co414 Co 0.25278 0.46442 0.40718 0.0
O415 O 0.21014 0.39488 0.38115 0.0
C416 C 0.20564 0.34999 0.31266 0.0
O417 O 0.23924 0.40841 0.31623 0.0
C418 C 0.11667 0.44749 0.42919 0.0
O419 O 0.11701 0.38677 0.43523 0.0
O420 O 0.25074 0.40264 0.44186 0.0
O421 O 0.28031 0.32015 0.41796 0.0
H422 H 0.42568 0.57128 0.47817 0.0
H423 H 0.10802 0.31898 0.36324 0.0
O424 O 0.20914 0.308 0.33296 0.0
H425 H 0.10491 0.14822 0.43981 0.0
H426 H 0.23698 0.08898 0.33907 0.0
H427 H 0.3735 0.28034 0.38405 0.0
H428 H 0.20773 0.20793 0.41969 0.0
H429 H 0.19267 0.18616 0.34978 0.0
O430 O 0.16646 0.48411 0.4184 0.0
H431 H 0.36427 0.48066 0.44922 0.0
H432 H 0.23091 0.59654 0.42159 0.0
H433 H 0.41985 0.18427 0.37378 0.0
H434 H 0.00395 0.26005 0.38254 0.0
H435 H 0.35138 0.08738 0.35123 0.0
H436 H 1.00187 0.17394 0.42115 0.0
O437 O 0.32897 0.36992 0.36052 0.0
H438 H 0.16687 0.56577 0.31637 0.0
H439 H 0.35691 0.56497 0.38093 0.0
H440 H 0.36523 0.63962 0.33755 0.0
H441 H 0.26958 0.64077 0.305 0.0
H442 H 0.1617 0.49058 0.35948 0.0
H443 H 0.28935 0.68766 0.45145 0.0
H444 H 0.38867 0.67604 0.47919 0.0
O445 O 0.33842 0.44774 0.39571 0.0
C446 C 0.27139 0.34939 0.4425 0.0
C447 C 0.38253 0.57705 0.46616 0.0
C448 C 0.30607 0.64236 0.45109 0.0
N449 N 0.29448 0.53348 0.4334 0.0
C450 C 0.34767 0.52593 0.44958 0.0
C451 C 0.27283 0.59039 0.43445 0.0
C452 C 0.36174 0.63576 0.4667 0.0
C453 C 0.10766 0.28133 0.37988 0.0
N454 N 0.16423 0.26681 0.39015 0.0
C455 C 0.0485 0.24821 0.39079 0.0
C456 C 0.04737 0.2 0.41247 0.0
C457 C 0.10515 0.18558 0.42296 0.0
C458 C 0.1634 0.21978 0.41155 0.0
C459 C 0.26726 0.13075 0.34905 0.0
C460 C 0.34328 0.23865 0.37425 0.0
C461 C 0.24238 0.18605 0.35518 0.0
N462 N 0.28002 0.23892 0.36803 0.0
C463 C 0.36985 0.18421 0.3685 0.0
C464 C 0.33143 0.1299 0.35584 0.0
C465 C 0.36187 0.41766 0.37484 0.0
C466 C 0.20877 0.56609 0.3305 0.0
C467 C 0.31503 0.56487 0.36688 0.0
C468 C 0.32007 0.60742 0.34233 0.0
C469 C 0.26642 0.60805 0.3241 0.0
N470 N 0.25812 0.52405 0.37317 0.0
C471 C 0.20572 0.52397 0.35514 0.0
C472 C 0.15825 0.2463 0.00623 0.0
C473 C 0.16011 0.20477 0.03151 0.0
C474 C 0.23316 0.15065 1.00175 0.0
C475 C 0.21787 0.18006 0.9744 0.0
N476 N 0.16666 0.26372 0.95251 0.0
N477 N 0.19239 0.10719 0.04975 0.0
C478 C 0.18019 0.22968 0.97711 0.0
C479 C 0.19559 0.15407 0.02826 0.0
N480 N 0.14133 0.30505 0.01024 0.0
N481 N 0.28633 0.12285 1.00332 0.0
H482 H 0.16273 0.10452 0.0686 0.0
H483 H 0.21327 0.0667 0.04676 0.0
H484 H 0.32055 0.12763 0.98599 0.0
H485 H 0.30152 0.10458 0.02347 0.0
H486 H 0.14503 0.3398 0.9932 0.0
H487 H 0.13184 0.32299 0.03137 0.0
H488 H 0.12798 0.28791 0.95211 0.0
H489 H 0.19704 0.27299 0.93397 0.0
C490 C 0.84126 0.63437 0.27629 0.0
C491 C 0.78487 0.6521 0.28856 0.0
C492 C 0.78258 0.72654 0.24599 0.0
C493 C 0.83444 0.70355 0.23202 0.0
N494 N 0.90594 0.6271 0.23136 0.0
N495 N 0.69443 0.70542 0.282 0.0
C496 C 0.86196 0.65515 0.24648 0.0
C497 C 0.75342 0.69551 0.27252 0.0
N498 N 0.8767 0.60013 0.29353 0.0
N499 N 0.76268 0.7797 0.23458 0.0
H500 H 0.67048 0.68219 0.30083 0.0
H501 H 0.66631 0.73144 0.26946 0.0
H502 H 0.78423 0.80528 0.21581 0.0
H503 H 0.72946 0.8024 0.24556 0.0
H504 H 0.92174 0.5917 0.28697 0.0
H505 H 0.86402 0.5852 0.31564 0.0
H506 H 0.92243 0.58689 0.23951 0.0
H507 H 0.92169 0.64032 0.20941 0.0
C508 C 0.31982 0.35424 0.52571 0.0
C509 C 0.35515 0.30351 0.52899 0.0
C510 C 0.33091 0.27559 0.4753 0.0
C511 C 0.29242 0.32466 0.4728 0.0
N512 N 0.22653 0.38355 0.50246 0.0
N513 N 0.37282 0.20229 0.50843 0.0
C514 C 0.27962 0.3558 0.50005 0.0
C515 C 0.35522 0.26065 0.50416 0.0
N516 N 0.32564 0.40283 0.54636 0.0
N517 N 0.3433 0.24063 0.45082 0.0
H518 H 0.38461 0.18566 0.52946 0.0
H519 H 0.36766 0.16658 0.49185 0.0
H520 H 0.31221 0.23035 0.43266 0.0
H521 H 0.38236 0.21698 0.45012 0.0
H522 H 0.30448 0.44313 0.5433 0.0
H523 H 0.35779 0.40692 0.56428 0.0
H524 H 0.21356 0.40328 0.5227 0.0
H525 H 0.19038 0.37732 0.48609 0.0
C526 C 0.66553 0.87027 0.77504 0.0
C527 C 0.72077 0.85122 0.78776 0.0
C528 C 0.72581 0.77965 0.74446 0.0
C529 C 0.67506 0.80383 0.73019 0.0
N530 N 0.60366 0.88037 0.72956 0.0
N531 N 0.81126 0.79774 0.78175 0.0
C532 C 0.64669 0.85139 0.74484 0.0
C533 C 0.75313 0.80869 0.77165 0.0
N534 N 0.62942 0.904 0.79219 0.0
N535 N 0.74632 0.72721 0.73268 0.0
H536 H 0.83387 0.81947 0.80113 0.0
H537 H 0.84015 0.77241 0.76928 0.0
H538 H 0.72611 0.70307 0.71335 0.0
H539 H 0.77862 0.70355 0.74377 0.0
H540 H 0.58498 0.9133 0.78525 0.0
H541 H 0.64095 0.91778 0.81451 0.0
H542 H 0.5867 0.92013 0.73789 0.0
H543 H 0.5891 0.86833 0.70737 0.0
C544 C 0.15044 0.26382 0.27605 0.0
C545 C 0.16994 0.33013 0.28341 0.0
C546 C 0.14288 0.35735 0.2311 0.0
C547 C 0.13825 0.29164 0.22292 0.0
N548 N 0.14399 0.18268 0.23716 0.0
N549 N 0.15525 0.4375 0.27139 0.0
C550 C 0.14399 0.24504 0.24525 0.0
C551 C 0.15821 0.37673 0.26178 0.0
N552 N 0.13044 0.21939 0.29823 0.0
N553 N 0.13262 0.40077 0.20949 0.0
H554 H 0.15426 0.44903 0.29435 0.0
H555 H 0.14641 0.4745 0.25744 0.0
H556 H 0.11639 0.38693 0.18772 0.0
H557 H 0.14084 0.45035 0.21258 0.0
H558 H 0.11238 0.17097 0.29371 0.0
H559 H 0.12014 0.23275 0.32014 0.0
H560 H 0.15473 0.14853 0.25245 0.0
H561 H 0.13908 0.16661 0.21477 0.0
C562 C 0.64788 0.72498 0.51016 0.0
C563 C 0.6824 0.71516 0.53684 0.0
C564 C 0.74606 0.653 0.50486 0.0
C565 C 0.70087 0.6506 0.4808 0.0
N566 N 0.59874 0.67583 0.46483 0.0
N567 N 0.77141 0.67025 0.55756 0.0
C568 C 0.64884 0.684 0.48475 0.0
C569 C 0.73306 0.67881 0.53371 0.0
N570 N 0.61753 0.77632 0.50794 0.0
N571 N 0.80464 0.63641 0.49975 0.0
H572 H 0.78277 0.70366 0.57476 0.0
H573 H 0.79674 0.63246 0.55847 0.0
H574 H 0.81947 0.6228 0.47868 0.0
H575 H 0.84197 0.64365 0.51553 0.0
H576 H 0.59528 0.78746 0.48804 0.0
H577 H 0.62381 0.81313 0.52398 0.0
H578 H 0.5575 0.69524 0.46845 0.0
H579 H 0.5949 0.64371 0.4469 0.0
C580 C 0.29832 0.15727 0.72806 0.0
C581 C 0.35524 0.20239 0.72073 0.0
C582 C 0.37767 0.21982 0.7751 0.0
C583 C 0.32528 0.16911 0.78223 0.0
N584 N 0.23861 0.08535 0.76557 0.0
N585 N 0.45232 0.27327 0.73703 0.0
C586 C 0.28651 0.13656 0.7587 0.0
C587 C 0.39587 0.23262 0.74421 0.0
N588 N 0.2547 0.13508 0.7059 0.0
N589 N 0.40934 0.25677 0.79779 0.0
H590 H 0.46556 0.28719 0.71484 0.0
H591 H 0.488 0.29029 0.75285 0.0
H592 H 0.39829 0.24841 0.8206 0.0
H593 H 0.44285 0.29892 0.79401 0.0
H594 H 0.20916 0.1078 0.7102 0.0
H595 H 0.26146 0.14873 0.68331 0.0
H596 H 0.21403 0.05447 0.74931 0.0
H597 H 0.22601 0.07085 0.78776 0.0
C598 C 0.8607 0.77851 0.01174 0.0
C599 C 0.83329 0.79808 0.03889 0.0
C600 C 0.76366 0.85046 0.00578 0.0
C601 C 0.80343 0.84572 0.98029 0.0
N602 N 0.9021 0.81456 0.96269 0.0
N603 N 0.76255 0.86765 0.05924 0.0
C604 C 0.85557 0.81246 0.98427 0.0
C605 C 0.78565 0.83809 0.03534 0.0
N606 N 0.8885 0.72531 0.01129 0.0
N607 N 0.70352 0.86412 1.00212 0.0
H608 H 0.77858 0.86602 0.08116 0.0
H609 H 0.73281 0.90137 0.05645 0.0
H610 H 0.68302 0.86806 0.98092 0.0
H611 H 0.67095 0.86253 0.02005 0.0
H612 H 0.90561 0.70791 0.99134 0.0
H613 H 0.88491 0.69316 0.0294 0.0
H614 H 0.94304 0.79452 0.96605 0.0
H615 H 0.9042 0.84318 0.94349 0.0
C616 C 0.00449 0.03709 0.16333 0.0
C617 C 0.02063 0.0647 0.13415 0.0
C618 C 0.95359 0.97146 0.11071 0.0
C619 C 0.94579 0.93894 0.13887 0.0
N620 N 0.96963 0.93835 0.19226 0.0
N621 N 0.02528 0.04661 0.0801 0.0
C622 C 0.97268 0.97107 0.16544 0.0
C623 C 0.99948 0.02839 0.10789 0.0
N624 N 0.01726 0.07391 0.18876 0.0
N625 N 0.91737 0.94734 0.08632 0.0
H626 H 0.06019 0.0878 0.07693 0.0
H627 H 0.01612 0.01767 0.06086 0.0
H628 H 0.88279 0.90549 0.08787 0.0
H629 H 0.91743 0.97227 0.06586 0.0
H630 H 1.00119 0.05788 0.2103 0.0
H631 H 0.03954 0.12219 0.18792 0.0
H632 H 0.99441 0.95714 0.21165 0.0
H633 H 0.94496 0.89095 0.19449 0.0
C634 C 0.02837 0.48949 0.40342 0.0
C635 C 0.05588 0.47277 0.43081 0.0
C636 C 0.97286 0.51474 0.45935 0.0
C637 C 0.951 0.53817 0.43182 0.0
N638 N 0.97092 0.56359 0.3789 0.0
N639 N 0.05932 0.47568 0.48546 0.0
C640 C 0.98311 0.53079 0.40426 0.0
C641 C 0.02957 0.48715 0.45908 0.0
N642 N 0.04216 0.46236 0.37674 0.0
N643 N 0.93893 0.51797 0.48552 0.0
H644 H 0.09988 0.45421 0.48591 0.0
H645 H 0.04628 0.49106 0.50661 0.0
H646 H 0.89909 0.54047 0.48657 0.0
H647 H 0.94824 0.49556 0.50566 0.0
H648 H 0.01935 0.46919 0.35636 0.0
H649 H 0.07018 0.42672 0.37596 0.0
H650 H 0.99688 0.56319 0.35877 0.0
H651 H 0.93968 0.59634 0.37908 0.0
C652 C 0.50987 0.47485 0.66001 0.0
C653 C 0.49605 0.44777 0.63063 0.0
C654 C 0.56837 0.53957 0.60832 0.0
C655 C 0.57298 0.57201 0.63635 0.0
N656 N 0.54315 0.57323 0.68907 0.0
N657 N 0.49749 0.46707 0.57646 0.0
C658 C 0.54258 0.54039 0.66244 0.0
C659 C 0.52117 0.48385 0.60468 0.0
N660 N 0.49413 0.43808 0.68538 0.0
N661 N 0.60802 0.56321 0.58478 0.0
H662 H 0.46052 0.42788 0.5728 0.0
H663 H 0.51019 0.49582 0.55732 0.0
H664 H 0.64416 0.6039 0.58709 0.0
H665 H 0.60924 0.53848 0.56439 0.0
H666 H 0.50862 0.45397 0.70709 0.0
H667 H 0.47117 0.38998 0.68452 0.0
H668 H 0.51573 0.55495 0.7079 0.0
H669 H 0.56869 0.6202 0.69163 0.0
C670 C 0.52001 0.96733 0.90516 0.0
C671 C 0.55154 0.95942 0.93277 0.0
C672 C 0.47353 0.01147 0.95989 0.0
C673 C 0.44777 0.02627 0.93159 0.0
N674 N 0.46106 0.03559 0.8774 0.0
N675 N 0.56308 0.97906 0.98647 0.0
C676 C 0.47503 0.00896 0.90421 0.0
C677 C 0.52964 0.98296 0.96026 0.0
N678 N 0.53247 0.93458 0.87985 0.0
N679 N 0.44382 0.02349 0.98624 0.0
H680 H 0.60242 0.95584 0.98758 0.0
H681 H 0.55388 1.00152 0.00658 0.0
H682 H 0.4038 0.04577 0.98663 0.0
H683 H 0.45635 0.00787 0.00743 0.0
H684 H 0.50685 0.93508 0.85968 0.0
H685 H 0.56371 0.90184 0.88012 0.0
H686 H 0.4839 0.02859 0.85702 0.0
H687 H 0.43248 0.07071 0.87638 0.0
C688 C 0.98439 0.53286 0.0522 0.0
C689 C 0.97071 0.55774 0.08088 0.0
C690 C 0.03168 0.48568 0.10596 0.0
C691 C 0.03868 0.45485 0.07804 0.0
N692 N 0.01593 0.44418 0.02456 0.0
N693 N 0.96194 0.54092 0.13481 0.0
C694 C 0.01321 0.47695 0.05105 0.0
C695 C 0.9889 0.52937 0.10773 0.0
N696 N 0.97122 0.56325 0.02626 0.0
N697 N 0.06622 0.47392 0.13078 0.0
H698 H 0.925 0.56734 0.13614 0.0
H699 H 0.97014 0.51752 0.15487 0.0
H700 H 0.09982 0.44364 0.13 0.0
H701 H 0.06595 0.49919 0.15107 0.0
H702 H 0.98602 0.55137 1.0048 0.0
H703 H 0.94868 0.60307 0.02648 0.0
H704 H 0.99225 0.45367 1.00484 0.0
H705 H 0.03942 0.40511 0.02285 0.0
C706 C 0.46303 0.46872 0.34641 0.0
C707 C 0.43283 0.43512 0.37209 0.0
C708 C 0.52265 0.48404 0.40366 0.0
C709 C 0.55744 0.51199 0.37789 0.0
N710 N 0.56391 0.52085 0.32317 0.0
N711 N 0.4446 0.39522 0.42262 0.0
C712 C 0.5287 0.5015 0.34865 0.0
C713 C 0.46692 0.43698 0.39967 0.0
N714 N 0.4286 0.47149 0.32045 0.0
N715 N 0.54029 0.50529 0.43216 0.0
H716 H 0.40363 0.35956 0.42025 0.0
H717 H 0.47059 0.39205 0.4425 0.0
H718 H 0.57931 0.54225 0.43615 0.0
H719 H 0.51231 0.49064 0.45135 0.0
H720 H 0.44579 0.50126 0.30219 0.0
H721 H 0.38138 0.44646 0.318 0.0
H722 H 0.54689 0.50899 0.30134 0.0
H723 H 0.61186 0.54435 0.32389 0.0
C724 C 0.48469 0.02616 0.60441 0.0
C725 C 0.47773 0.05721 0.5765 0.0
C726 C 0.5284 0.97723 0.5502 0.0
C727 C 0.54203 0.95173 0.57876 0.0
N728 N 0.552 0.96723 0.63273 0.0
N729 N 0.49866 0.06719 0.52279 0.0
C730 C 0.52544 0.98049 0.60582 0.0
C731 C 0.50136 0.03421 0.54928 0.0
N732 N 0.45188 0.03959 0.62956 0.0
N733 N 0.5398 0.94633 0.52414 0.0
H734 H 0.47652 0.10722 0.52128 0.0
H735 H 0.52121 0.05696 0.50285 0.0
H736 H 0.56082 0.9055 0.52415 0.0
H737 H 0.52482 0.95875 0.50281 0.0
H738 H 0.45166 0.01413 0.64986 0.0
H739 H 0.42004 0.07167 0.6291 0.0
H740 H 0.54527 0.99088 0.65289 0.0
H741 H 0.58719 0.93871 0.6339 0.0
C742 C 0.97868 0.00865 0.90561 0.0
C743 C 0.94499 0.98276 0.87927 0.0
C744 C 0.04042 0.02886 0.84886 0.0
C745 C 0.06927 0.06079 0.87514 0.0
N746 N 0.0553 0.09671 0.92615 0.0
N747 N 0.94079 0.978 0.82445 0.0
C748 C 0.03425 0.0564 0.90256 0.0
C749 C 0.97486 0.99558 0.85034 0.0
N750 N 0.9599 0.98503 0.93369 0.0
N751 N 0.07598 0.02804 0.82304 0.0
H752 H 0.89301 0.95393 0.82461 0.0
H753 H 0.9586 0.99175 0.80288 0.0
H754 H 0.1233 0.05316 0.82113 0.0
H755 H 0.05967 0.9995 0.80435 0.0
H756 H 0.98698 0.99836 0.95321 0.0
H757 H 0.92082 0.94761 0.93694 0.0
H758 H 0.02852 0.09791 0.94599 0.0
H759 H 0.09605 0.13309 0.92443 0.0
loop_
_geom_bond_atom_site_label_1
_geom_bond_atom_site_label_2
_geom_bond_distance
_geom_bond_site_symmetry_2
_ccdc_geom_bond_type
Co0 O2 2.143 . S
Co0 O8 2.074 . S
Co0 O11 2.093 . S
Co0 O24 2.097 . S
Co0 N41 2.151 . S
Co0 N49 2.214 . S
Co1 O2 2.160 . S
Co1 O7 2.058 . S
Co1 O17 2.057 . S
Co1 O32 2.037 . S
Co1 N36 2.145 1_455 S
Co1 N57 2.257 1_455 S
O2 Co0 2.143 . S
O2 Co1 2.160 . S
C3 O4 1.278 . S
C3 O11 1.224 . S
O4 C3 1.278 . S
C5 O6 1.245 . S
C5 O17 1.232 . S
O6 C5 1.245 . S
O7 Co1 2.058 . S
O7 C33 1.269 . S
O8 Co0 2.074 . S
O8 C33 1.257 . S
H9 C34 0.930 . S
H10 C40 0.930 . S
O11 Co0 2.093 . S
O11 C3 1.224 . S
H12 C44 0.929 . S
H13 C46 0.930 . S
H14 C47 0.930 . S
H15 C45 0.929 . S
H16 C48 0.928 . S
O17 Co1 2.057 . S
O17 C5 1.232 . S
H18 C37 0.929 1_455 S
H19 C38 0.929 . S
H20 C50 0.931 . S
H21 C42 0.929 . S
H22 C51 0.930 . S
H23 C43 0.931 . S
O24 Co0 2.097 . S
O24 C52 1.214 . S
H25 C53 0.929 . S
H26 C54 0.929 . S
H27 C55 0.930 . S
H28 C56 0.929 . S
H29 C58 0.930 1_455 S
H30 C35 0.930 . S
H31 C39 0.930 . S
O32 Co1 2.037 . S
O32 C52 1.234 . S
C33 O7 1.269 . S
C33 O8 1.257 . S
C34 H9 0.930 . S
C34 C37 1.388 . S
C34 C39 1.418 . S
C35 H30 0.930 . S
C35 C38 1.404 . S
C35 C39 1.353 . S
N36 Co1 2.145 1_655 S
N36 C37 1.397 . S
N36 C38 1.334 . S
C37 H18 0.929 1_655 S
C37 C34 1.388 . S
C37 N36 1.397 . S
C38 H19 0.929 . S
C38 C35 1.404 . S
C38 N36 1.334 . S
C39 H31 0.930 . S
C39 C34 1.418 . S
C39 C35 1.353 . S
C40 H10 0.930 . S
C40 N41 1.330 . S
C40 C42 1.446 . S
N41 Co0 2.151 . S
N41 C40 1.330 . S
N41 C45 1.418 . S
C42 H21 0.929 . S
C42 C40 1.446 . S
C42 C43 1.332 . S
C43 H23 0.931 . S
C43 C42 1.332 . S
C43 C44 1.267 . S
C44 H12 0.929 . S
C44 C43 1.267 . S
C44 C45 1.251 . S
C45 H15 0.929 . S
C45 N41 1.418 . S
C45 C44 1.251 . S
C46 H13 0.930 . S
C46 C48 1.406 . S
C46 C51 1.261 . S
C47 H14 0.930 . S
C47 N49 1.325 . S
C47 C50 1.357 . S
C48 H16 0.928 . S
C48 C46 1.406 . S
C48 N49 1.261 . S
N49 Co0 2.214 . S
N49 C47 1.325 . S
N49 C48 1.261 . S
C50 H20 0.931 . S
C50 C47 1.357 . S
C50 C51 1.312 . S
C51 H22 0.930 . S
C51 C46 1.261 . S
C51 C50 1.312 . S
C52 O24 1.214 . S
C52 O32 1.234 . S
C53 H25 0.929 . S
C53 C56 1.391 . S
C53 C58 1.391 . S
C54 H26 0.929 . S
C54 C55 1.390 . S
C54 N57 1.391 . S
C55 H27 0.930 . S
C55 C54 1.390 . S
C55 C56 1.392 . S
C56 H28 0.929 . S
C56 C53 1.391 . S
C56 C55 1.392 . S
N57 Co1 2.257 1_655 S
N57 C54 1.391 . S
N57 C58 1.388 . S
C58 H29 0.930 1_655 S
C58 C53 1.391 . S
C58 N57 1.388 . S
Co59 O61 2.143 . S
Co59 O67 2.074 . S
Co59 O70 2.093 . S
Co59 O83 2.097 . S
Co59 N100 2.151 . S
Co59 N108 2.214 . S
Co60 O61 2.160 . S
Co60 O66 2.058 . S
Co60 O76 2.057 . S
Co60 O91 2.037 . S
Co60 N95 2.145 . S
Co60 N116 2.257 . S
O61 Co59 2.143 . S
O61 Co60 2.160 . S
C62 O63 1.278 . S
C62 O70 1.224 . S
O63 C62 1.278 . S
C64 O65 1.245 . S
C64 O76 1.232 . S
O65 C64 1.245 . S
O66 Co60 2.058 . S
O66 C92 1.269 . S
O67 Co59 2.074 . S
O67 C92 1.257 . S
H68 C93 0.930 . S
H69 C99 0.930 . S
O70 Co59 2.093 . S
O70 C62 1.224 . S
H71 C103 0.929 . S
H72 C105 0.930 . S
H73 C106 0.930 . S
H74 C104 0.929 . S
H75 C107 0.928 . S
O76 Co60 2.057 . S
O76 C64 1.232 . S
H77 C96 0.929 . S
H78 C97 0.929 . S
H79 C109 0.931 . S
H80 C101 0.929 . S
H81 C110 0.930 . S
H82 C102 0.931 . S
O83 Co59 2.097 . S
O83 C111 1.214 . S
H84 C112 0.929 . S
H85 C113 0.929 . S
H86 C114 0.930 . S
H87 C115 0.929 . S
H88 C117 0.930 . S
H89 C94 0.930 . S
H90 C98 0.930 . S
O91 Co60 2.037 . S
O91 C111 1.234 . S
C92 O66 1.269 . S
C92 O67 1.257 . S
C93 H68 0.930 . S
C93 C96 1.388 . S
C93 C98 1.418 . S
C94 H89 0.930 . S
C94 C97 1.404 . S
C94 C98 1.353 . S
N95 Co60 2.145 . S
N95 C96 1.397 . S
N95 C97 1.334 . S
C96 H77 0.929 . S
C96 C93 1.388 . S
C96 N95 1.397 . S
C97 H78 0.929 . S
C97 C94 1.404 . S
C97 N95 1.334 . S
C98 H90 0.930 . S
C98 C93 1.418 . S
C98 C94 1.353 . S
C99 H69 0.930 . S
C99 N100 1.330 . S
C99 C101 1.446 . S
N100 Co59 2.151 . S
N100 C99 1.330 . S
N100 C104 1.418 . S
C101 H80 0.929 . S
C101 C99 1.446 . S
C101 C102 1.332 . S
C102 H82 0.931 . S
C102 C101 1.332 . S
C102 C103 1.267 . S
C103 H71 0.929 . S
C103 C102 1.267 . S
C103 C104 1.251 . S
C104 H74 0.929 . S
C104 N100 1.418 . S
C104 C103 1.251 . S
C105 H72 0.930 . S
C105 C107 1.406 . S
C105 C110 1.261 . S
C106 H73 0.930 . S
C106 N108 1.325 . S
C106 C109 1.357 . S
C107 H75 0.928 . S
C107 C105 1.406 . S
C107 N108 1.261 . S
N108 Co59 2.214 . S
N108 C106 1.325 . S
N108 C107 1.261 . S
C109 H79 0.931 . S
C109 C106 1.357 . S
C109 C110 1.312 . S
C110 H81 0.930 . S
C110 C105 1.261 . S
C110 C109 1.312 . S
C111 O83 1.214 . S
C111 O91 1.234 . S
C112 H84 0.929 . S
C112 C115 1.391 . S
C112 C117 1.391 . S
C113 H85 0.929 . S
C113 C114 1.390 . S
C113 N116 1.391 . S
C114 H86 0.930 . S
C114 C113 1.390 . S
C114 C115 1.392 . S
C115 H87 0.929 . S
C115 C112 1.391 . S
C115 C114 1.392 . S
N116 Co60 2.257 . S
N116 C113 1.391 . S
N116 C117 1.388 . S
C117 H88 0.930 . S
C117 C112 1.391 . S
C117 N116 1.388 . S
Co118 O120 2.143 . S
Co118 O126 2.074 . S
Co118 O129 2.093 . S
Co118 O142 2.097 . S
Co118 N159 2.151 . S
Co118 N167 2.214 . S
Co119 O120 2.160 . S
Co119 O125 2.058 . S
Co119 O135 2.057 . S
Co119 O150 2.037 . S
Co119 N154 2.145 . S
Co119 N175 2.257 . S
O120 Co118 2.143 . S
O120 Co119 2.160 . S
C121 O122 1.278 . S
C121 O129 1.224 . S
O122 C121 1.278 . S
C123 O124 1.245 . S
C123 O135 1.232 . S
O124 C123 1.245 . S
O125 Co119 2.058 . S
O125 C151 1.269 . S
O126 Co118 2.074 . S
O126 C151 1.257 . S
H127 C152 0.930 . S
H128 C158 0.930 . S
O129 Co118 2.093 . S
O129 C121 1.224 . S
H130 C162 0.929 . S
H131 C164 0.930 . S
H132 C165 0.930 . S
H133 C163 0.929 . S
H134 C166 0.928 . S
O135 Co119 2.057 . S
O135 C123 1.232 . S
H136 C155 0.929 . S
H137 C156 0.929 . S
H138 C168 0.931 . S
H139 C160 0.929 . S
H140 C169 0.930 . S
H141 C161 0.931 . S
O142 Co118 2.097 . S
O142 C170 1.214 . S
H143 C171 0.929 . S
H144 C172 0.929 . S
H145 C173 0.930 . S
H146 C174 0.929 . S
H147 C176 0.930 . S
H148 C153 0.930 . S
H149 C157 0.930 . S
O150 Co119 2.037 . S
O150 C170 1.234 . S
C151 O125 1.269 . S
C151 O126 1.257 . S
C152 H127 0.930 . S
C152 C155 1.388 . S
C152 C157 1.418 . S
C153 H148 0.930 . S
C153 C156 1.404 . S
C153 C157 1.353 . S
N154 Co119 2.145 . S
N154 C155 1.397 . S
N154 C156 1.334 . S
C155 H136 0.929 . S
C155 C152 1.388 . S
C155 N154 1.397 . S
C156 H137 0.929 . S
C156 C153 1.404 . S
C156 N154 1.334 . S
C157 H149 0.930 . S
C157 C152 1.418 . S
C157 C153 1.353 . S
C158 H128 0.930 . S
C158 N159 1.330 . S
C158 C160 1.446 . S
N159 Co118 2.151 . S
N159 C158 1.330 . S
N159 C163 1.418 . S
C160 H139 0.929 . S
C160 C158 1.446 . S
C160 C161 1.332 . S
C161 H141 0.931 . S
C161 C160 1.332 . S
C161 C162 1.267 . S
C162 H130 0.929 . S
C162 C161 1.267 . S
C162 C163 1.251 . S
C163 H133 0.929 . S
C163 N159 1.418 . S
C163 C162 1.251 . S
C164 H131 0.930 . S
C164 C166 1.406 . S
C164 C169 1.261 . S
C165 H132 0.930 . S
C165 N167 1.325 . S
C165 C168 1.357 . S
C166 H134 0.928 . S
C166 C164 1.406 . S
C166 N167 1.261 . S
N167 Co118 2.214 . S
N167 C165 1.325 . S
N167 C166 1.261 . S
C168 H138 0.931 . S
C168 C165 1.357 . S
C168 C169 1.312 . S
C169 H140 0.930 . S
C169 C164 1.261 . S
C169 C168 1.312 . S
C170 O142 1.214 . S
C170 O150 1.234 . S
C171 H143 0.929 . S
C171 C174 1.391 . S
C171 C176 1.391 . S
C172 H144 0.929 . S
C172 C173 1.390 . S
C172 N175 1.391 . S
C173 H145 0.930 . S
C173 C172 1.390 . S
C173 C174 1.392 . S
C174 H146 0.929 . S
C174 C171 1.391 . S
C174 C173 1.392 . S
N175 Co119 2.257 . S
N175 C172 1.391 . S
N175 C176 1.388 . S
C176 H147 0.930 . S
C176 C171 1.391 . S
C176 N175 1.388 . S
Co177 O179 2.143 . S
Co177 O185 2.074 . S
Co177 O188 2.093 . S
Co177 O201 2.097 . S
Co177 N218 2.151 . S
Co177 N226 2.214 . S
Co178 O179 2.160 . S
Co178 O184 2.058 . S
Co178 O194 2.057 . S
Co178 O209 2.037 . S
Co178 N213 2.145 1_565 S
Co178 N234 2.257 1_565 S
O179 Co177 2.143 . S
O179 Co178 2.160 . S
C180 O181 1.278 . S
C180 O188 1.224 . S
O181 C180 1.278 . S
C182 O183 1.245 . S
C182 O194 1.232 . S
O183 C182 1.245 . S
O184 Co178 2.058 . S
O184 C210 1.269 . S
O185 Co177 2.074 . S
O185 C210 1.257 . S
H186 C211 0.930 . S
H187 C217 0.930 . S
O188 Co177 2.093 . S
O188 C180 1.224 . S
H189 C221 0.929 . S
H190 C223 0.930 . S
H191 C224 0.930 . S
H192 C222 0.929 . S
H193 C225 0.928 . S
O194 Co178 2.057 . S
O194 C182 1.232 . S
H195 C214 0.929 1_565 S
H196 C215 0.929 . S
H197 C227 0.931 . S
H198 C219 0.929 . S
H199 C228 0.930 . S
H200 C220 0.931 . S
O201 Co177 2.097 . S
O201 C229 1.214 . S
H202 C230 0.929 . S
H203 C231 0.929 . S
H204 C232 0.930 . S
H205 C233 0.929 . S
H206 C235 0.930 1_565 S
H207 C212 0.930 . S
H208 C216 0.930 . S
O209 Co178 2.037 . S
O209 C229 1.234 . S
C210 O184 1.269 . S
C210 O185 1.257 . S
C211 H186 0.930 . S
C211 C214 1.388 . S
C211 C216 1.418 . S
C212 H207 0.930 . S
C212 C215 1.404 . S
C212 C216 1.353 . S
N213 Co178 2.145 1_545 S
N213 C214 1.397 . S
N213 C215 1.334 . S
C214 H195 0.929 1_545 S
C214 C211 1.388 . S
C214 N213 1.397 . S
C215 H196 0.929 . S
C215 C212 1.404 . S
C215 N213 1.334 . S
C216 H208 0.930 . S
C216 C211 1.418 . S
C216 C212 1.353 . S
C217 H187 0.930 . S
C217 N218 1.330 . S
C217 C219 1.446 . S
N218 Co177 2.151 . S
N218 C217 1.330 . S
N218 C222 1.418 . S
C219 H198 0.929 . S
C219 C217 1.446 . S
C219 C220 1.332 . S
C220 H200 0.931 . S
C220 C219 1.332 . S
C220 C221 1.267 . S
C221 H189 0.929 . S
C221 C220 1.267 . S
C221 C222 1.251 . S
C222 H192 0.929 . S
C222 N218 1.418 . S
C222 C221 1.251 . S
C223 H190 0.930 . S
C223 C225 1.406 . S
C223 C228 1.261 . S
C224 H191 0.930 . S
C224 N226 1.325 . S
C224 C227 1.357 . S
C225 H193 0.928 . S
C225 C223 1.406 . S
C225 N226 1.261 . S
N226 Co177 2.214 . S
N226 C224 1.325 . S
N226 C225 1.261 . S
C227 H197 0.931 . S
C227 C224 1.357 . S
C227 C228 1.312 . S
C228 H199 0.930 . S
C228 C223 1.261 . S
C228 C227 1.312 . S
C229 O201 1.214 . S
C229 O209 1.234 . S
C230 H202 0.929 . S
C230 C233 1.391 . S
C230 C235 1.391 . S
C231 H203 0.929 . S
C231 C232 1.390 . S
C231 N234 1.391 . S
C232 H204 0.930 . S
C232 C231 1.390 . S
C232 C233 1.392 . S
C233 H205 0.929 . S
C233 C230 1.391 . S
C233 C232 1.392 . S
N234 Co178 2.257 1_545 S
N234 C231 1.391 . S
N234 C235 1.388 . S
C235 H206 0.930 1_545 S
C235 C230 1.391 . S
C235 N234 1.388 . S
Co236 O238 2.143 . S
Co236 O244 2.074 . S
Co236 O247 2.093 . S
Co236 O260 2.097 . S
Co236 N277 2.151 . S
Co236 N285 2.214 . S
Co237 O238 2.160 . S
Co237 O243 2.058 . S
Co237 O253 2.057 . S
Co237 O268 2.037 . S
Co237 N272 2.145 . S
Co237 N293 2.257 . S
O238 Co236 2.143 . S
O238 Co237 2.160 . S
C239 O240 1.278 . S
C239 O247 1.224 . S
O240 C239 1.278 . S
C241 O242 1.245 . S
C241 O253 1.232 . S
O242 C241 1.245 . S
O243 Co237 2.058 . S
O243 C269 1.269 . S
O244 Co236 2.074 . S
O244 C269 1.257 . S
H245 C270 0.930 . S
H246 C276 0.930 . S
O247 Co236 2.093 . S
O247 C239 1.224 . S
H248 C280 0.929 . S
H249 C282 0.930 . S
H250 C283 0.930 . S
H251 C281 0.929 . S
H252 C284 0.928 . S
O253 Co237 2.057 . S
O253 C241 1.232 . S
H254 C273 0.929 . S
H255 C274 0.929 . S
H256 C286 0.931 . S
H257 C278 0.929 . S
H258 C287 0.930 . S
H259 C279 0.931 . S
O260 Co236 2.097 . S
O260 C288 1.214 . S
H261 C289 0.929 . S
H262 C290 0.929 . S
H263 C291 0.930 . S
H264 C292 0.929 . S
H265 C294 0.930 . S
H266 C271 0.930 . S
H267 C275 0.930 . S
O268 Co237 2.037 . S
O268 C288 1.234 . S
C269 O243 1.269 . S
C269 O244 1.257 . S
C270 H245 0.930 . S
C270 C273 1.388 . S
C270 C275 1.418 . S
C271 H266 0.930 . S
C271 C274 1.404 . S
C271 C275 1.353 . S
N272 Co237 2.145 . S
N272 C273 1.397 . S
N272 C274 1.334 . S
C273 H254 0.929 . S
C273 C270 1.388 . S
C273 N272 1.397 . S
C274 H255 0.929 . S
C274 C271 1.404 . S
C274 N272 1.334 . S
C275 H267 0.930 . S
C275 C270 1.418 . S
C275 C271 1.353 . S
C276 H246 0.930 . S
C276 N277 1.330 . S
C276 C278 1.446 . S
N277 Co236 2.151 . S
N277 C276 1.330 . S
N277 C281 1.418 . S
C278 H257 0.929 . S
C278 C276 1.446 . S
C278 C279 1.332 . S
C279 H259 0.931 . S
C279 C278 1.332 . S
C279 C280 1.267 . S
C280 H248 0.929 . S
C280 C279 1.267 . S
C280 C281 1.251 . S
C281 H251 0.929 . S
C281 N277 1.418 . S
C281 C280 1.251 . S
C282 H249 0.930 . S
C282 C284 1.406 . S
C282 C287 1.261 . S
C283 H250 0.930 . S
C283 N285 1.325 . S
C283 C286 1.357 . S
C284 H252 0.928 . S
C284 C282 1.406 . S
C284 N285 1.261 . S
N285 Co236 2.214 . S
N285 C283 1.325 . S
N285 C284 1.261 . S
C286 H256 0.931 . S
C286 C283 1.357 . S
C286 C287 1.312 . S
C287 H258 0.930 . S
C287 C282 1.261 . S
C287 C286 1.312 . S
C288 O260 1.214 . S
C288 O268 1.234 . S
C289 H261 0.929 . S
C289 C292 1.391 . S
C289 C294 1.391 . S
C290 H262 0.929 . S
C290 C291 1.390 . S
C290 N293 1.391 . S
C291 H263 0.930 . S
C291 C290 1.390 . S
C291 C292 1.392 . S
C292 H264 0.929 . S
C292 C289 1.391 . S
C292 C291 1.392 . S
N293 Co237 2.257 . S
N293 C290 1.391 . S
N293 C294 1.388 . S
C294 H265 0.930 . S
C294 C289 1.391 . S
C294 N293 1.388 . S
Co295 O297 2.143 . S
Co295 O303 2.074 . S
Co295 O306 2.093 . S
Co295 O319 2.097 . S
Co295 N336 2.151 . S
Co295 N344 2.214 . S
Co296 O297 2.160 . S
Co296 O302 2.058 . S
Co296 O312 2.057 . S
Co296 O327 2.037 . S
Co296 N331 2.145 1_545 S
Co296 N352 2.257 1_545 S
O297 Co295 2.143 . S
O297 Co296 2.160 . S
C298 O299 1.278 . S
C298 O306 1.224 . S
O299 C298 1.278 . S
C300 O301 1.245 . S
C300 O312 1.232 . S
O301 C300 1.245 . S
O302 Co296 2.058 . S
O302 C328 1.269 . S
O303 Co295 2.074 . S
O303 C328 1.257 . S
H304 C329 0.930 . S
H305 C335 0.930 . S
O306 Co295 2.093 . S
O306 C298 1.224 . S
H307 C339 0.929 . S
H308 C341 0.930 . S
H309 C342 0.930 . S
H310 C340 0.929 . S
H311 C343 0.928 . S
O312 Co296 2.057 . S
O312 C300 1.232 . S
H313 C332 0.929 1_545 S
H314 C333 0.929 . S
H315 C345 0.931 . S
H316 C337 0.929 . S
H317 C346 0.930 . S
H318 C338 0.931 . S
O319 Co295 2.097 . S
O319 C347 1.214 . S
H320 C348 0.929 . S
H321 C349 0.929 . S
H322 C350 0.930 . S
H323 C351 0.929 . S
H324 C353 0.930 1_545 S
H325 C330 0.930 . S
H326 C334 0.930 . S
O327 Co296 2.037 . S
O327 C347 1.234 . S
C328 O302 1.269 . S
C328 O303 1.257 . S
C329 H304 0.930 . S
C329 C332 1.388 . S
C329 C334 1.418 . S
C330 H325 0.930 . S
C330 C333 1.404 . S
C330 C334 1.353 . S
N331 Co296 2.145 1_565 S
N331 C332 1.397 . S
N331 C333 1.334 . S
C332 H313 0.929 1_565 S
C332 C329 1.388 . S
C332 N331 1.397 . S
C333 H314 0.929 . S
C333 C330 1.404 . S
C333 N331 1.334 . S
C334 H326 0.930 . S
C334 C329 1.418 . S
C334 C330 1.353 . S
C335 H305 0.930 . S
C335 N336 1.330 . S
C335 C337 1.446 . S
N336 Co295 2.151 . S
N336 C335 1.330 . S
N336 C340 1.418 . S
C337 H316 0.929 . S
C337 C335 1.446 . S
C337 C338 1.332 . S
C338 H318 0.931 . S
C338 C337 1.332 . S
C338 C339 1.267 . S
C339 H307 0.929 . S
C339 C338 1.267 . S
C339 C340 1.251 . S
C340 H310 0.929 . S
C340 N336 1.418 . S
C340 C339 1.251 . S
C341 H308 0.930 . S
C341 C343 1.406 . S
C341 C346 1.261 . S
C342 H309 0.930 . S
C342 N344 1.325 . S
C342 C345 1.357 . S
C343 H311 0.928 . S
C343 C341 1.406 . S
C343 N344 1.261 . S
N344 Co295 2.214 . S
N344 C342 1.325 . S
N344 C343 1.261 . S
C345 H315 0.931 . S
C345 C342 1.357 . S
C345 C346 1.312 . S
C346 H317 0.930 . S
C346 C341 1.261 . S
C346 C345 1.312 . S
C347 O319 1.214 . S
C347 O327 1.234 . S
C348 H320 0.929 . S
C348 C351 1.391 . S
C348 C353 1.391 . S
C349 H321 0.929 . S
C349 C350 1.390 . S
C349 N352 1.391 . S
C350 H322 0.930 . S
C350 C349 1.390 . S
C350 C351 1.392 . S
C351 H323 0.929 . S
C351 C348 1.391 . S
C351 C350 1.392 . S
N352 Co296 2.257 1_565 S
N352 C349 1.391 . S
N352 C353 1.388 . S
C353 H324 0.930 1_565 S
C353 C348 1.391 . S
C353 N352 1.388 . S
Co354 O356 2.143 . S
Co354 O362 2.074 . S
Co354 O365 2.093 . S
Co354 O378 2.097 . S
Co354 N395 2.151 . S
Co354 N403 2.214 . S
Co355 O356 2.160 . S
Co355 O361 2.058 . S
Co355 O371 2.057 . S
Co355 O386 2.037 . S
Co355 N390 2.145 1_655 S
Co355 N411 2.257 1_655 S
O356 Co354 2.143 . S
O356 Co355 2.160 . S
C357 O358 1.278 . S
C357 O365 1.224 . S
O358 C357 1.278 . S
C359 O360 1.245 . S
C359 O371 1.232 . S
O360 C359 1.245 . S
O361 Co355 2.058 . S
O361 C387 1.269 . S
O362 Co354 2.074 . S
O362 C387 1.257 . S
H363 C388 0.930 . S
H364 C394 0.930 . S
O365 Co354 2.093 . S
O365 C357 1.224 . S
H366 C398 0.929 . S
H367 C400 0.930 . S
H368 C401 0.930 . S
H369 C399 0.929 . S
H370 C402 0.928 . S
O371 Co355 2.057 . S
O371 C359 1.232 . S
H372 C391 0.929 1_655 S
H373 C392 0.929 . S
H374 C404 0.931 . S
H375 C396 0.929 . S
H376 C405 0.930 . S
H377 C397 0.931 . S
O378 Co354 2.097 . S
O378 C406 1.214 . S
H379 C407 0.929 . S
H380 C408 0.929 . S
H381 C409 0.930 . S
H382 C410 0.929 . S
H383 C412 0.930 1_655 S
H384 C389 0.930 . S
H385 C393 0.930 . S
O386 Co355 2.037 . S
O386 C406 1.234 . S
C387 O361 1.269 . S
C387 O362 1.257 . S
C388 H363 0.930 . S
C388 C391 1.388 . S
C388 C393 1.418 . S
C389 H384 0.930 . S
C389 C392 1.404 . S
C389 C393 1.353 . S
N390 Co355 2.145 1_455 S
N390 C391 1.397 . S
N390 C392 1.334 . S
C391 H372 0.929 1_455 S
C391 C388 1.388 . S
C391 N390 1.397 . S
C392 H373 0.929 . S
C392 C389 1.404 . S
C392 N390 1.334 . S
C393 H385 0.930 . S
C393 C388 1.418 . S
C393 C389 1.353 . S
C394 H364 0.930 . S
C394 N395 1.330 . S
C394 C396 1.446 . S
N395 Co354 2.151 . S
N395 C394 1.330 . S
N395 C399 1.418 . S
C396 H375 0.929 . S
C396 C394 1.446 . S
C396 C397 1.332 . S
C397 H377 0.931 . S
C397 C396 1.332 . S
C397 C398 1.267 . S
C398 H366 0.929 . S
C398 C397 1.267 . S
C398 C399 1.251 . S
C399 H369 0.929 . S
C399 N395 1.418 . S
C399 C398 1.251 . S
C400 H367 0.930 . S
C400 C402 1.406 . S
C400 C405 1.261 . S
C401 H368 0.930 . S
C401 N403 1.325 . S
C401 C404 1.357 . S
C402 H370 0.928 . S
C402 C400 1.406 . S
C402 N403 1.261 . S
N403 Co354 2.214 . S
N403 C401 1.325 . S
N403 C402 1.261 . S
C404 H374 0.931 . S
C404 C401 1.357 . S
C404 C405 1.312 . S
C405 H376 0.930 . S
C405 C400 1.261 . S
C405 C404 1.312 . S
C406 O378 1.214 . S
C406 O386 1.234 . S
C407 H379 0.929 . S
C407 C410 1.391 . S
C407 C412 1.391 . S
C408 H380 0.929 . S
C408 C409 1.390 . S
C408 N411 1.391 . S
C409 H381 0.930 . S
C409 C408 1.390 . S
C409 C410 1.392 . S
C410 H382 0.929 . S
C410 C407 1.391 . S
C410 C409 1.392 . S
N411 Co355 2.257 1_455 S
N411 C408 1.391 . S
N411 C412 1.388 . S
C412 H383 0.930 1_455 S
C412 C407 1.391 . S
C412 N411 1.388 . S
Co413 O415 2.143 . S
Co413 O421 2.074 . S
Co413 O424 2.093 . S
Co413 O437 2.097 . S
Co413 N454 2.151 . S
Co413 N462 2.214 . S
Co414 O415 2.160 . S
Co414 O420 2.058 . S
Co414 O430 2.057 . S
Co414 O445 2.037 . S
Co414 N449 2.145 . S
Co414 N470 2.257 . S
O415 Co413 2.143 . S
O415 Co414 2.160 . S
C416 O417 1.278 . S
C416 O424 1.224 . S
O417 C416 1.278 . S
C418 O419 1.245 . S
C418 O430 1.232 . S
O419 C418 1.245 . S
O420 Co414 2.058 . S
O420 C446 1.269 . S
O421 Co413 2.074 . S
O421 C446 1.257 . S
H422 C447 0.930 . S
H423 C453 0.930 . S
O424 Co413 2.093 . S
O424 C416 1.224 . S
H425 C457 0.929 . S
H426 C459 0.930 . S
H427 C460 0.930 . S
H428 C458 0.929 . S
H429 C461 0.928 . S
O430 Co414 2.057 . S
O430 C418 1.232 . S
H431 C450 0.929 . S
H432 C451 0.929 . S
H433 C463 0.931 . S
H434 C455 0.929 . S
H435 C464 0.930 . S
H436 C456 0.931 . S
O437 Co413 2.097 . S
O437 C465 1.214 . S
H438 C466 0.929 . S
H439 C467 0.929 . S
H440 C468 0.930 . S
H441 C469 0.929 . S
H442 C471 0.930 . S
H443 C448 0.930 . S
H444 C452 0.930 . S
O445 Co414 2.037 . S
O445 C465 1.234 . S
C446 O420 1.269 . S
C446 O421 1.257 . S
C447 H422 0.930 . S
C447 C450 1.388 . S
C447 C452 1.418 . S
C448 H443 0.930 . S
C448 C451 1.404 . S
C448 C452 1.353 . S
N449 Co414 2.145 . S
N449 C450 1.397 . S
N449 C451 1.334 . S
C450 H431 0.929 . S
C450 C447 1.388 . S
C450 N449 1.397 . S
C451 H432 0.929 . S
C451 C448 1.404 . S
C451 N449 1.334 . S
C452 H444 0.930 . S
C452 C447 1.418 . S
C452 C448 1.353 . S
C453 H423 0.930 . S
C453 N454 1.330 . S
C453 C455 1.446 . S
N454 Co413 2.151 . S
N454 C453 1.330 . S
N454 C458 1.418 . S
C455 H434 0.929 . S
C455 C453 1.446 . S
C455 C456 1.332 . S
C456 H436 0.931 . S
C456 C455 1.332 . S
C456 C457 1.267 . S
C457 H425 0.929 . S
C457 C456 1.267 . S
C457 C458 1.251 . S
C458 H428 0.929 . S
C458 N454 1.418 . S
C458 C457 1.251 . S
C459 H426 0.930 . S
C459 C461 1.406 . S
C459 C464 1.261 . S
C460 H427 0.930 . S
C460 N462 1.325 . S
C460 C463 1.357 . S
C461 H429 0.928 . S
C461 C459 1.406 . S
C461 N462 1.261 . S
N462 Co413 2.214 . S
N462 C460 1.325 . S
N462 C461 1.261 . S
C463 H433 0.931 . S
C463 C460 1.357 . S
C463 C464 1.312 . S
C464 H435 0.930 . S
C464 C459 1.261 . S
C464 C463 1.312 . S
C465 O437 1.214 . S
C465 O445 1.234 . S
C466 H438 0.929 . S
C466 C469 1.391 . S
C466 C471 1.391 . S
C467 H439 0.929 . S
C467 C468 1.390 . S
C467 N470 1.391 . S
C468 H440 0.930 . S
C468 C467 1.390 . S
C468 C469 1.392 . S
C469 H441 0.929 . S
C469 C466 1.391 . S
C469 C468 1.392 . S
N470 Co414 2.257 . S
N470 C467 1.391 . S
N470 C471 1.388 . S
C471 H442 0.930 . S
C471 C466 1.391 . S
C471 N470 1.388 . S
C472 C473 1.363 . S
C472 C478 1.379 1_554 S
C472 N480 1.356 . S
C473 C472 1.363 . S
C473 C479 1.363 . S
C474 C475 1.363 . S
C474 C479 1.379 1_556 S
C474 N481 1.356 . S
C475 C474 1.363 . S
C475 C478 1.363 . S
N476 C478 1.356 . S
N476 H488 0.984 . S
N476 H489 0.985 . S
N477 C479 1.356 . S
N477 H482 0.984 . S
N477 H483 0.985 . S
C478 C472 1.379 1_556 S
C478 C475 1.363 . S
C478 N476 1.356 . S
C479 C473 1.363 . S
C479 C474 1.379 1_554 S
C479 N477 1.356 . S
N480 C472 1.356 . S
N480 H486 0.984 . S
N480 H487 0.984 . S
N481 C474 1.356 . S
N481 H484 0.984 . S
N481 H485 0.985 . S
H482 N477 0.984 . S
H483 N477 0.985 . S
H484 N481 0.984 . S
H485 N481 0.985 . S
H486 N480 0.984 . S
H487 N480 0.984 . S
H488 N476 0.984 . S
H489 N476 0.985 . S
C490 C491 1.363 . S
C490 C496 1.379 . S
C490 N498 1.356 . S
C491 C490 1.363 . S
C491 C497 1.363 . S
C492 C493 1.363 . S
C492 C497 1.379 . S
C492 N499 1.356 . S
C493 C492 1.363 . S
C493 C496 1.363 . S
N494 C496 1.356 . S
N494 H506 0.984 . S
N494 H507 0.985 . S
N495 C497 1.356 . S
N495 H500 0.984 . S
N495 H501 0.985 . S
C496 C490 1.379 . S
C496 C493 1.363 . S
C496 N494 1.356 . S
C497 C491 1.363 . S
C497 C492 1.379 . S
C497 N495 1.356 . S
N498 C490 1.356 . S
N498 H504 0.984 . S
N498 H505 0.984 . S
N499 C492 1.356 . S
N499 H502 0.984 . S
N499 H503 0.985 . S
H500 N495 0.984 . S
H501 N495 0.985 . S
H502 N499 0.984 . S
H503 N499 0.985 . S
H504 N498 0.984 . S
H505 N498 0.984 . S
H506 N494 0.984 . S
H507 N494 0.985 . S
C508 C509 1.363 . S
C508 C514 1.379 . S
C508 N516 1.356 . S
C509 C508 1.363 . S
C509 C515 1.363 . S
C510 C511 1.363 . S
C510 C515 1.379 . S
C510 N517 1.356 . S
C511 C510 1.363 . S
C511 C514 1.363 . S
N512 C514 1.356 . S
N512 H524 0.984 . S
N512 H525 0.985 . S
N513 C515 1.356 . S
N513 H518 0.984 . S
N513 H519 0.985 . S
C514 C508 1.379 . S
C514 C511 1.363 . S
C514 N512 1.356 . S
C515 C509 1.363 . S
C515 C510 1.379 . S
C515 N513 1.356 . S
N516 C508 1.356 . S
N516 H522 0.984 . S
N516 H523 0.984 . S
N517 C510 1.356 . S
N517 H520 0.984 . S
N517 H521 0.985 . S
H518 N513 0.984 . S
H519 N513 0.985 . S
H520 N517 0.984 . S
H521 N517 0.985 . S
H522 N516 0.984 . S
H523 N516 0.984 . S
H524 N512 0.984 . S
H525 N512 0.985 . S
C526 C527 1.363 . S
C526 C532 1.379 . S
C526 N534 1.356 . S
C527 C526 1.363 . S
C527 C533 1.363 . S
C528 C529 1.363 . S
C528 C533 1.379 . S
C528 N535 1.356 . S
C529 C528 1.363 . S
C529 C532 1.363 . S
N530 C532 1.356 . S
N530 H542 0.984 . S
N530 H543 0.985 . S
N531 C533 1.356 . S
N531 H536 0.984 . S
N531 H537 0.985 . S
C532 C526 1.379 . S
C532 C529 1.363 . S
C532 N530 1.356 . S
C533 C527 1.363 . S
C533 C528 1.379 . S
C533 N531 1.356 . S
N534 C526 1.356 . S
N534 H540 0.984 . S
N534 H541 0.984 . S
N535 C528 1.356 . S
N535 H538 0.984 . S
N535 H539 0.985 . S
H536 N531 0.984 . S
H537 N531 0.985 . S
H538 N535 0.984 . S
H539 N535 0.985 . S
H540 N534 0.984 . S
H541 N534 0.984 . S
H542 N530 0.984 . S
H543 N530 0.985 . S
C544 C545 1.363 . S
C544 C550 1.379 . S
C544 N552 1.356 . S
C545 C544 1.363 . S
C545 C551 1.363 . S
C546 C547 1.363 . S
C546 C551 1.379 . S
C546 N553 1.356 . S
C547 C546 1.363 . S
C547 C550 1.363 . S
N548 C550 1.356 . S
N548 H560 0.984 . S
N548 H561 0.985 . S
N549 C551 1.356 . S
N549 H554 0.984 . S
N549 H555 0.985 . S
C550 C544 1.379 . S
C550 C547 1.363 . S
C550 N548 1.356 . S
C551 C545 1.363 . S
C551 C546 1.379 . S
C551 N549 1.356 . S
N552 C544 1.356 . S
N552 H558 0.984 . S
N552 H559 0.984 . S
N553 C546 1.356 . S
N553 H556 0.984 . S
N553 H557 0.985 . S
H554 N549 0.984 . S
H555 N549 0.985 . S
H556 N553 0.984 . S
H557 N553 0.985 . S
H558 N552 0.984 . S
H559 N552 0.984 . S
H560 N548 0.984 . S
H561 N548 0.985 . S
C562 C563 1.363 . S
C562 C568 1.379 . S
C562 N570 1.356 . S
C563 C562 1.363 . S
C563 C569 1.363 . S
C564 C565 1.363 . S
C564 C569 1.379 . S
C564 N571 1.356 . S
C565 C564 1.363 . S
C565 C568 1.363 . S
N566 C568 1.356 . S
N566 H578 0.984 . S
N566 H579 0.985 . S
N567 C569 1.356 . S
N567 H572 0.984 . S
N567 H573 0.985 . S
C568 C562 1.379 . S
C568 C565 1.363 . S
C568 N566 1.356 . S
C569 C563 1.363 . S
C569 C564 1.379 . S
C569 N567 1.356 . S
N570 C562 1.356 . S
N570 H576 0.984 . S
N570 H577 0.984 . S
N571 C564 1.356 . S
N571 H574 0.984 . S
N571 H575 0.985 . S
H572 N567 0.984 . S
H573 N567 0.985 . S
H574 N571 0.984 . S
H575 N571 0.985 . S
H576 N570 0.984 . S
H577 N570 0.984 . S
H578 N566 0.984 . S
H579 N566 0.985 . S
C580 C581 1.363 . S
C580 C586 1.379 . S
C580 N588 1.356 . S
C581 C580 1.363 . S
C581 C587 1.363 . S
C582 C583 1.363 . S
C582 C587 1.379 . S
C582 N589 1.356 . S
C583 C582 1.363 . S
C583 C586 1.363 . S
N584 C586 1.356 . S
N584 H596 0.984 . S
N584 H597 0.985 . S
N585 C587 1.356 . S
N585 H590 0.984 . S
N585 H591 0.985 . S
C586 C580 1.379 . S
C586 C583 1.363 . S
C586 N584 1.356 . S
C587 C581 1.363 . S
C587 C582 1.379 . S
C587 N585 1.356 . S
N588 C580 1.356 . S
N588 H594 0.984 . S
N588 H595 0.984 . S
N589 C582 1.356 . S
N589 H592 0.984 . S
N589 H593 0.985 . S
H590 N585 0.984 . S
H591 N585 0.985 . S
H592 N589 0.984 . S
H593 N589 0.985 . S
H594 N588 0.984 . S
H595 N588 0.984 . S
H596 N584 0.984 . S
H597 N584 0.985 . S
C598 C599 1.363 . S
C598 C604 1.379 1_554 S
C598 N606 1.356 . S
C599 C598 1.363 . S
C599 C605 1.363 . S
C600 C601 1.363 . S
C600 C605 1.379 1_556 S
C600 N607 1.356 . S
C601 C600 1.363 . S
C601 C604 1.363 . S
N602 C604 1.356 . S
N602 H614 0.984 . S
N602 H615 0.985 . S
N603 C605 1.356 . S
N603 H608 0.984 . S
N603 H609 0.985 . S
C604 C598 1.379 1_556 S
C604 C601 1.363 . S
C604 N602 1.356 . S
C605 C599 1.363 . S
C605 C600 1.379 1_554 S
C605 N603 1.356 . S
N606 C598 1.356 . S
N606 H612 0.984 . S
N606 H613 0.984 . S
N607 C600 1.356 . S
N607 H610 0.984 . S
N607 H611 0.985 . S
H608 N603 0.984 . S
H609 N603 0.985 . S
H610 N607 0.984 . S
H611 N607 0.985 . S
H612 N606 0.984 . S
H613 N606 0.984 . S
H614 N602 0.984 . S
H615 N602 0.985 . S
C616 C617 1.363 . S
C616 C622 1.376 1_445 S
C616 N624 1.356 . S
C617 C616 1.363 . S
C617 C623 1.367 . S
C618 C619 1.363 . S
C618 C623 1.376 1_665 S
C618 N625 1.356 . S
C619 C618 1.363 . S
C619 C622 1.367 . S
N620 C622 1.357 . S
N620 H632 0.984 1_655 S
N620 H633 0.985 . S
N621 C623 1.357 . S
N621 H626 0.984 . S
N621 H627 0.985 1_455 S
C622 C616 1.376 1_665 S
C622 C619 1.367 . S
C622 N620 1.357 . S
C623 C617 1.367 . S
C623 C618 1.376 1_445 S
C623 N621 1.357 . S
N624 C616 1.356 . S
N624 H630 0.984 . S
N624 H631 0.984 . S
N625 C618 1.356 . S
N625 H628 0.984 . S
N625 H629 0.985 . S
H626 N621 0.984 . S
H627 N621 0.985 1_655 S
H628 N625 0.984 . S
H629 N625 0.985 . S
H630 N624 0.984 . S
H631 N624 0.984 . S
H632 N620 0.984 1_455 S
H633 N620 0.985 . S
C634 C635 1.363 . S
C634 C640 1.379 . S
C634 N642 1.356 . S
C635 C634 1.363 . S
C635 C641 1.363 1_455 S
C636 C637 1.363 . S
C636 C641 1.379 . S
C636 N643 1.356 . S
C637 C636 1.363 . S
C637 C640 1.363 1_655 S
N638 C640 1.356 1_655 S
N638 H650 0.984 1_655 S
N638 H651 0.985 . S
N639 C641 1.356 1_455 S
N639 H644 0.984 . S
N639 H645 0.985 1_455 S
C640 C634 1.379 . S
C640 C637 1.363 1_455 S
C640 N638 1.356 1_455 S
C641 C635 1.363 1_655 S
C641 C636 1.379 . S
C641 N639 1.356 1_655 S
N642 C634 1.356 . S
N642 H648 0.984 . S
N642 H649 0.984 . S
N643 C636 1.356 . S
N643 H646 0.984 . S
N643 H647 0.985 . S
H644 N639 0.984 . S
H645 N639 0.985 1_655 S
H646 N643 0.984 . S
H647 N643 0.985 . S
H648 N642 0.984 . S
H649 N642 0.984 . S
H650 N638 0.984 1_455 S
H651 N638 0.985 . S
C652 C653 1.363 . S
C652 C658 1.379 . S
C652 N660 1.356 . S
C653 C652 1.363 . S
C653 C659 1.363 . S
C654 C655 1.363 . S
C654 C659 1.379 . S
C654 N661 1.356 . S
C655 C654 1.363 . S
C655 C658 1.363 . S
N656 C658 1.356 . S
N656 H668 0.984 . S
N656 H669 0.985 . S
N657 C659 1.356 . S
N657 H662 0.984 . S
N657 H663 0.985 . S
C658 C652 1.379 . S
C658 C655 1.363 . S
C658 N656 1.356 . S
C659 C653 1.363 . S
C659 C654 1.379 . S
C659 N657 1.356 . S
N660 C652 1.356 . S
N660 H666 0.984 . S
N660 H667 0.984 . S
N661 C654 1.356 . S
N661 H664 0.984 . S
N661 H665 0.985 . S
H662 N657 0.984 . S
H663 N657 0.985 . S
H664 N661 0.984 . S
H665 N661 0.985 . S
H666 N660 0.984 . S
H667 N660 0.984 . S
H668 N656 0.984 . S
H669 N656 0.985 . S
C670 C671 1.363 1_545 S
C670 C676 1.379 . S
C670 N678 1.356 1_545 S
C671 C670 1.363 1_565 S
C671 C677 1.363 . S
C672 C673 1.363 1_565 S
C672 C677 1.379 . S
C672 N679 1.356 1_565 S
C673 C672 1.363 1_545 S
C673 C676 1.363 . S
N674 C676 1.356 . S
N674 H686 0.984 . S
N674 H687 0.985 . S
N675 C677 1.356 . S
N675 H680 0.984 . S
N675 H681 0.985 . S
C676 C670 1.379 . S
C676 C673 1.363 . S
C676 N674 1.356 . S
C677 C671 1.363 . S
C677 C672 1.379 . S
C677 N675 1.356 . S
N678 C670 1.356 1_565 S
N678 H684 0.984 1_565 S
N678 H685 0.984 . S
N679 C672 1.356 1_545 S
N679 H682 0.984 . S
N679 H683 0.985 1_545 S
H680 N675 0.984 . S
H681 N675 0.985 . S
H682 N679 0.984 . S
H683 N679 0.985 1_565 S
H684 N678 0.984 1_545 S
H685 N678 0.984 . S
H686 N674 0.984 . S
H687 N674 0.985 . S
C688 C689 1.363 . S
C688 C694 1.379 . S
C688 N696 1.356 . S
C689 C688 1.363 . S
C689 C695 1.363 1_655 S
C690 C691 1.363 . S
C690 C695 1.379 . S
C690 N697 1.356 . S
C691 C690 1.363 . S
C691 C694 1.363 1_455 S
N692 C694 1.356 1_455 S
N692 H704 0.984 1_455 S
N692 H705 0.985 . S
N693 C695 1.356 1_655 S
N693 H698 0.984 . S
N693 H699 0.985 1_655 S
C694 C688 1.379 . S
C694 C691 1.363 1_655 S
C694 N692 1.356 1_655 S
C695 C689 1.363 1_455 S
C695 C690 1.379 . S
C695 N693 1.356 1_455 S
N696 C688 1.356 . S
N696 H702 0.984 . S
N696 H703 0.984 . S
N697 C690 1.356 . S
N697 H700 0.984 . S
N697 H701 0.985 . S
H698 N693 0.984 . S
H699 N693 0.985 1_455 S
H700 N697 0.984 . S
H701 N697 0.985 . S
H702 N696 0.984 . S
H703 N696 0.984 . S
H704 N692 0.984 1_655 S
H705 N692 0.985 . S
C706 C707 1.363 . S
C706 C712 1.379 . S
C706 N714 1.356 . S
C707 C706 1.363 . S
C707 C713 1.363 . S
C708 C709 1.363 . S
C708 C713 1.379 . S
C708 N715 1.356 . S
C709 C708 1.363 . S
C709 C712 1.363 . S
N710 C712 1.356 . S
N710 H722 0.984 . S
N710 H723 0.985 . S
N711 C713 1.356 . S
N711 H716 0.984 . S
N711 H717 0.985 . S
C712 C706 1.379 . S
C712 C709 1.363 . S
C712 N710 1.356 . S
C713 C707 1.363 . S
C713 C708 1.379 . S
C713 N711 1.356 . S
N714 C706 1.356 . S
N714 H720 0.984 . S
N714 H721 0.984 . S
N715 C708 1.356 . S
N715 H718 0.984 . S
N715 H719 0.985 . S
H716 N711 0.984 . S
H717 N711 0.985 . S
H718 N715 0.984 . S
H719 N715 0.985 . S
H720 N714 0.984 . S
H721 N714 0.984 . S
H722 N710 0.984 . S
H723 N710 0.985 . S
C724 C725 1.363 . S
C724 C730 1.379 . S
C724 N732 1.356 . S
C725 C724 1.363 . S
C725 C731 1.363 1_545 S
C726 C727 1.363 . S
C726 C731 1.379 . S
C726 N733 1.356 . S
C727 C726 1.363 . S
C727 C730 1.363 1_565 S
N728 C730 1.356 1_565 S
N728 H740 0.984 1_565 S
N728 H741 0.985 . S
N729 C731 1.356 1_545 S
N729 H734 0.984 . S
N729 H735 0.985 1_545 S
C730 C724 1.379 . S
C730 C727 1.363 1_545 S
C730 N728 1.356 1_545 S
C731 C725 1.363 1_565 S
C731 C726 1.379 . S
C731 N729 1.356 1_565 S
N732 C724 1.356 . S
N732 H738 0.984 . S
N732 H739 0.984 . S
N733 C726 1.356 . S
N733 H736 0.984 . S
N733 H737 0.985 . S
H734 N729 0.984 . S
H735 N729 0.985 1_565 S
H736 N733 0.984 . S
H737 N733 0.985 . S
H738 N732 0.984 . S
H739 N732 0.984 . S
H740 N728 0.984 1_545 S
H741 N728 0.985 . S
C742 C743 1.367 . S
C742 C748 1.376 1_665 S
C742 N750 1.357 . S
C743 C742 1.367 . S
C743 C749 1.363 . S
C744 C745 1.367 . S
C744 C749 1.376 1_445 S
C744 N751 1.357 . S
C745 C744 1.367 . S
C745 C748 1.363 . S
N746 C748 1.356 . S
N746 H758 0.984 . S
N746 H759 0.985 . S
N747 C749 1.356 . S
N747 H752 0.984 . S
N747 H753 0.985 . S
C748 C742 1.376 1_445 S
C748 C745 1.363 . S
C748 N746 1.356 . S
C749 C743 1.363 . S
C749 C744 1.376 1_665 S
C749 N747 1.356 . S
N750 C742 1.357 . S
N750 H756 0.984 1_565 S
N750 H757 0.984 . S
N751 C744 1.357 . S
N751 H754 0.984 . S
N751 H755 0.985 1_545 S
H752 N747 0.984 . S
H753 N747 0.985 . S
H754 N751 0.984 . S
H755 N751 0.985 1_565 S
H756 N750 0.984 1_545 S
H757 N750 0.984 . S
H758 N746 0.984 . S
H759 N746 0.985 . S
C473 C33 1.345 . S
C475 C328 1.345 . S
C491 C62 1.451 . S
C493 C357 1.451 . S
C509 C151 1.345 . S
C511 C446 1.345 . S
C527 C180 1.451 . S
C529 C239 1.451 . S
C545 C416 1.451 . S
C547 C3 1.451 . S
C563 C269 1.345 . S
C565 C92 1.345 . S
C581 C121 1.451 . S
C583 C298 1.451 . S
C599 C387 1.345 . S
C601 C210 1.345 . S
C617 C52 1.651 . S
C619 C406 1.651 . S
C635 C418 1.649 . S
C637 C64 1.649 . S
C653 C170 1.651 . S
C655 C288 1.651 . S
C671 C182 1.649 . S
C673 C300 1.649 . S
C689 C359 1.649 . S
C691 C5 1.649 . S
C707 C465 1.651 . S
C709 C111 1.651 . S
C725 C123 1.649 . S
C727 C241 1.649 . S
C743 C229 1.651 . S
C745 C347 1.651 . S
