# Generated by pormake.
# Topology sxf, (6)-cn, num edge types: 1
# Building blocks:
#     Node 0, Type 0, BuildingBlock: OJICUG_clean_sbu_0, # of connection points: 6
#     Node 1, Type 0, BuildingBlock: OJICUG_clean_sbu_0, # of connection points: 6
#     Node 2, Type 0, BuildingBlock: OJICUG_clean_sbu_0, # of connection points: 6
#     Node 3, Type 0, BuildingBlock: OJICUG_clean_sbu_0, # of connection points: 6
#     Node 4, Type 0, BuildingBlock: OJICUG_clean_sbu_0, # of connection points: 6
#     Node 5, Type 0, BuildingBlock: OJICUG_clean_sbu_0, # of connection points: 6
#     Node 6, Type 0, BuildingBlock: OJICUG_clean_sbu_0, # of connection points: 6
#     Node 7, Type 0, BuildingBlock: OJICUG_clean_sbu_0, # of connection points: 6
#     Node 8, Type 0, BuildingBlock: OJICUG_clean_sbu_0, # of connection points: 6
#     Node 9, Type 0, BuildingBlock: OJICUG_clean_sbu_0, # of connection points: 6
#     Node 10, Type 0, BuildingBlock: OJICUG_clean_sbu_0, # of connection points: 6
#     Node 11, Type 0, BuildingBlock: OJICUG_clean_sbu_0, # of connection points: 6
#     Node 12, Type 0, BuildingBlock: OJICUG_clean_sbu_0, # of connection points: 6
#     Node 13, Type 0, BuildingBlock: OJICUG_clean_sbu_0, # of connection points: 6
#     Node 14, Type 0, BuildingBlock: OJICUG_clean_sbu_0, # of connection points: 6
#     Node 15, Type 0, BuildingBlock: OJICUG_clean_sbu_0, # of connection points: 6
#     Node 16, Type 0, BuildingBlock: OJICUG_clean_sbu_0, # of connection points: 6
#     Node 17, Type 0, BuildingBlock: OJICUG_clean_sbu_0, # of connection points: 6
#     Node 18, Type 0, BuildingBlock: OJICUG_clean_sbu_0, # of connection points: 6
#     Node 19, Type 0, BuildingBlock: OJICUG_clean_sbu_0, # of connection points: 6
#     Node 20, Type 0, BuildingBlock: OJICUG_clean_sbu_0, # of connection points: 6
#     Node 21, Type 0, BuildingBlock: OJICUG_clean_sbu_0, # of connection points: 6
#     Node 22, Type 0, BuildingBlock: OJICUG_clean_sbu_0, # of connection points: 6
#     Node 23, Type 0, BuildingBlock: OJICUG_clean_sbu_0, # of connection points: 6
#     Edge 24, Type (0, 0), BuildingBlock: CIFDUS_clean_linker_0, # of connection points: 2
#     Edge 25, Type (0, 0), BuildingBlock: CIFDUS_clean_linker_0, # of connection points: 2
#     Edge 26, Type (0, 0), BuildingBlock: CIFDUS_clean_linker_0, # of connection points: 2
#     Edge 27, Type (0, 0), BuildingBlock: CIFDUS_clean_linker_0, # of connection points: 2
#     Edge 28, Type (0, 0), BuildingBlock: CIFDUS_clean_linker_0, # of connection points: 2
#     Edge 29, Type (0, 0), BuildingBlock: CIFDUS_clean_linker_0, # of connection points: 2
#     Edge 30, Type (0, 0), BuildingBlock: CIFDUS_clean_linker_0, # of connection points: 2
#     Edge 31, Type (0, 0), BuildingBlock: CIFDUS_clean_linker_0, # of connection points: 2
#     Edge 32, Type (0, 0), BuildingBlock: CIFDUS_clean_linker_0, # of connection points: 2
#     Edge 33, Type (0, 0), BuildingBlock: CIFDUS_clean_linker_0, # of connection points: 2
#     Edge 34, Type (0, 0), BuildingBlock: CIFDUS_clean_linker_0, # of connection points: 2
#     Edge 35, Type (0, 0), BuildingBlock: CIFDUS_clean_linker_0, # of connection points: 2
#     Edge 36, Type (0, 0), BuildingBlock: CIFDUS_clean_linker_0, # of connection points: 2
#     Edge 37, Type (0, 0), BuildingBlock: CIFDUS_clean_linker_0, # of connection points: 2
#     Edge 38, Type (0, 0), BuildingBlock: CIFDUS_clean_linker_0, # of connection points: 2
#     Edge 39, Type (0, 0), BuildingBlock: CIFDUS_clean_linker_0, # of connection points: 2
#     Edge 40, Type (0, 0), BuildingBlock: CIFDUS_clean_linker_0, # of connection points: 2
#     Edge 41, Type (0, 0), BuildingBlock: CIFDUS_clean_linker_0, # of connection points: 2
#     Edge 42, Type (0, 0), BuildingBlock: CIFDUS_clean_linker_0, # of connection points: 2
#     Edge 43, Type (0, 0), BuildingBlock: CIFDUS_clean_linker_0, # of connection points: 2
#     Edge 44, Type (0, 0), BuildingBlock: CIFDUS_clean_linker_0, # of connection points: 2
#     Edge 45, Type (0, 0), BuildingBlock: CIFDUS_clean_linker_0, # of connection points: 2
#     Edge 46, Type (0, 0), BuildingBlock: CIFDUS_clean_linker_0, # of connection points: 2
#     Edge 47, Type (0, 0), BuildingBlock: CIFDUS_clean_linker_0, # of connection points: 2
#     Edge 48, Type (0, 0), BuildingBlock: CIFDUS_clean_linker_0, # of connection points: 2
#     Edge 49, Type (0, 0), BuildingBlock: CIFDUS_clean_linker_0, # of connection points: 2
#     Edge 50, Type (0, 0), BuildingBlock: CIFDUS_clean_linker_0, # of connection points: 2
#     Edge 51, Type (0, 0), BuildingBlock: CIFDUS_clean_linker_0, # of connection points: 2
#     Edge 52, Type (0, 0), BuildingBlock: CIFDUS_clean_linker_0, # of connection points: 2
#     Edge 53, Type (0, 0), BuildingBlock: CIFDUS_clean_linker_0, # of connection points: 2
#     Edge 54, Type (0, 0), BuildingBlock: CIFDUS_clean_linker_0, # of connection points: 2
#     Edge 55, Type (0, 0), BuildingBlock: CIFDUS_clean_linker_0, # of connection points: 2
#     Edge 56, Type (0, 0), BuildingBlock: CIFDUS_clean_linker_0, # of connection points: 2
#     Edge 57, Type (0, 0), BuildingBlock: CIFDUS_clean_linker_0, # of connection points: 2
#     Edge 58, Type (0, 0), BuildingBlock: CIFDUS_clean_linker_0, # of connection points: 2
#     Edge 59, Type (0, 0), BuildingBlock: CIFDUS_clean_linker_0, # of connection points: 2
#     Edge 60, Type (0, 0), BuildingBlock: CIFDUS_clean_linker_0, # of connection points: 2
#     Edge 61, Type (0, 0), BuildingBlock: CIFDUS_clean_linker_0, # of connection points: 2
#     Edge 62, Type (0, 0), BuildingBlock: CIFDUS_clean_linker_0, # of connection points: 2
#     Edge 63, Type (0, 0), BuildingBlock: CIFDUS_clean_linker_0, # of connection points: 2
#     Edge 64, Type (0, 0), BuildingBlock: CIFDUS_clean_linker_0, # of connection points: 2
#     Edge 65, Type (0, 0), BuildingBlock: CIFDUS_clean_linker_0, # of connection points: 2
#     Edge 66, Type (0, 0), BuildingBlock: CIFDUS_clean_linker_0, # of connection points: 2
#     Edge 67, Type (0, 0), BuildingBlock: CIFDUS_clean_linker_0, # of connection points: 2
#     Edge 68, Type (0, 0), BuildingBlock: CIFDUS_clean_linker_0, # of connection points: 2
#     Edge 69, Type (0, 0), BuildingBlock: CIFDUS_clean_linker_0, # of connection points: 2
#     Edge 70, Type (0, 0), BuildingBlock: CIFDUS_clean_linker_0, # of connection points: 2
#     Edge 71, Type (0, 0), BuildingBlock: CIFDUS_clean_linker_0, # of connection points: 2
#     Edge 72, Type (0, 0), BuildingBlock: CIFDUS_clean_linker_0, # of connection points: 2
#     Edge 73, Type (0, 0), BuildingBlock: CIFDUS_clean_linker_0, # of connection points: 2
#     Edge 74, Type (0, 0), BuildingBlock: CIFDUS_clean_linker_0, # of connection points: 2
#     Edge 75, Type (0, 0), BuildingBlock: CIFDUS_clean_linker_0, # of connection points: 2
#     Edge 76, Type (0, 0), BuildingBlock: CIFDUS_clean_linker_0, # of connection points: 2
#     Edge 77, Type (0, 0), BuildingBlock: CIFDUS_clean_linker_0, # of connection points: 2
#     Edge 78, Type (0, 0), BuildingBlock: CIFDUS_clean_linker_0, # of connection points: 2
#     Edge 79, Type (0, 0), BuildingBlock: CIFDUS_clean_linker_0, # of connection points: 2
#     Edge 80, Type (0, 0), BuildingBlock: CIFDUS_clean_linker_0, # of connection points: 2
#     Edge 81, Type (0, 0), BuildingBlock: CIFDUS_clean_linker_0, # of connection points: 2
#     Edge 82, Type (0, 0), BuildingBlock: CIFDUS_clean_linker_0, # of connection points: 2
#     Edge 83, Type (0, 0), BuildingBlock: CIFDUS_clean_linker_0, # of connection points: 2
#     Edge 84, Type (0, 0), BuildingBlock: CIFDUS_clean_linker_0, # of connection points: 2
#     Edge 85, Type (0, 0), BuildingBlock: CIFDUS_clean_linker_0, # of connection points: 2
#     Edge 86, Type (0, 0), BuildingBlock: CIFDUS_clean_linker_0, # of connection points: 2
#     Edge 87, Type (0, 0), BuildingBlock: CIFDUS_clean_linker_0, # of connection points: 2
#     Edge 88, Type (0, 0), BuildingBlock: CIFDUS_clean_linker_0, # of connection points: 2
#     Edge 89, Type (0, 0), BuildingBlock: CIFDUS_clean_linker_0, # of connection points: 2
#     Edge 90, Type (0, 0), BuildingBlock: CIFDUS_clean_linker_0, # of connection points: 2
#     Edge 91, Type (0, 0), BuildingBlock: CIFDUS_clean_linker_0, # of connection points: 2
#     Edge 92, Type (0, 0), BuildingBlock: CIFDUS_clean_linker_0, # of connection points: 2
#     Edge 93, Type (0, 0), BuildingBlock: CIFDUS_clean_linker_0, # of connection points: 2
#     Edge 94, Type (0, 0), BuildingBlock: CIFDUS_clean_linker_0, # of connection points: 2
#     Edge 95, Type (0, 0), BuildingBlock: CIFDUS_clean_linker_0, # of connection points: 2
# Relax obj value: 0.447
# Max RMSD: 0.186
# Mean RMSD: 0.186
data_MOF--net-sxf--node1-OJICUG_clean_sbu_0--edge1-CIFDUS_clean_linker_0
_symmetry_space_group_name_H-M    P1
_symmetry_Int_Tables_number       1
_symmetry_cell_setting            triclinic
loop_
_symmetry_equiv_pos_as_xyz
'x, y, z'
_cell_length_a     41.005557
_cell_length_b     40.997677
_cell_length_c     40.930605
_cell_angle_alpha  89.935934
_cell_angle_beta   89.961021
_cell_angle_gamma 89.995406
loop_
_atom_site_label
_atom_site_type_symbol
_atom_site_fract_x
_atom_site_fract_y
_atom_site_fract_z
_atom_type_partial_charge
Sc0 Sc 0.00196 0.44019 0.18998 0.0
Sc1 Sc 0.06506 0.39296 0.22257 0.0
Sc2 Sc 0.03234 0.45982 0.26533 0.0
O3 O 0.03387 0.43097 0.22549 0.0
C4 C 0.02913 0.51107 0.21098 0.0
C5 C 0.06715 0.4237 0.15075 0.0
C6 C 0.10721 0.43936 0.26525 0.0
C7 C 0.00343 0.36259 0.18675 0.0
C8 C 0.95774 0.46199 0.24525 0.0
C9 C 0.0301 0.38856 0.29284 0.0
O10 O 0.00996 0.49229 0.19512 0.0
O11 O 0.07995 0.4062 0.17323 0.0
O12 O 0.08235 0.45232 0.27812 0.0
O13 O 0.99076 0.39013 0.18061 0.0
O14 O 0.9819 0.47413 0.26015 0.0
O15 O 0.05023 0.37768 0.27148 0.0
O16 O 0.9617 0.44062 0.22337 0.0
O17 O 0.02977 0.35947 0.20271 0.0
O18 O 0.01887 0.41761 0.293 0.0
O19 O 0.03997 0.43845 0.15404 0.0
O20 O 0.04507 0.50175 0.23609 0.0
O21 O 0.10577 0.42034 0.24101 0.0
Sc22 Sc 0.43296 0.54174 0.73899 0.0
Sc23 Sc 0.40649 0.6156 0.70544 0.0
Sc24 Sc 0.39851 0.54446 0.66124 0.0
O25 O 0.41311 0.56698 0.70179 0.0
C26 C 0.46521 0.50808 0.67664 0.0
C27 C 0.47151 0.60595 0.74699 0.0
C28 C 0.43705 0.60848 0.63671 0.0
C29 C 0.37812 0.58695 0.77014 0.0
C30 C 0.37919 0.49187 0.71552 0.0
C31 C 0.34506 0.59714 0.66179 0.0
O32 O 0.46418 0.51352 0.70726 0.0
O33 O 0.4472 0.62298 0.73815 0.0
O34 O 0.41953 0.58313 0.63181 0.0
O35 O 0.40283 0.56822 0.77352 0.0
O36 O 0.3777 0.50377 0.68688 0.0
O37 O 0.36508 0.618 0.67277 0.0
O38 O 0.39688 0.50382 0.73794 0.0
O39 O 0.37402 0.60556 0.74547 0.0
O40 O 0.35129 0.56691 0.66249 0.0
O41 O 0.4722 0.57531 0.7439 0.0
O42 O 0.44395 0.51894 0.65679 0.0
O43 O 0.43826 0.6232 0.66418 0.0
Sc44 Sc 0.5274 0.05635 0.74987 0.0
Sc45 Sc 0.58188 0.12101 0.76205 0.0
Sc46 Sc 0.5616 0.07013 0.82626 0.0
O47 O 0.5566 0.08247 0.77942 0.0
C48 C 0.48675 0.05733 0.81663 0.0
C49 C 0.51564 0.12503 0.72135 0.0
C50 C 0.55704 0.14838 0.82755 0.0
C51 C 0.59202 0.0686 0.70806 0.0
C52 C 0.55875 0.00046 0.79158 0.0
C53 C 0.63262 0.09113 0.81255 0.0
O54 O 0.49016 0.05036 0.78653 0.0
O55 O 0.54505 0.13324 0.72659 0.0
O56 O 0.56183 0.1208 0.84122 0.0
O57 O 0.56265 0.05869 0.71073 0.0
O58 O 0.56215 0.01876 0.81634 0.0
O59 O 0.62325 0.11503 0.79508 0.0
O60 O 0.54853 0.01048 0.76409 0.0
O61 O 0.60482 0.08957 0.72713 0.0
O62 O 0.61339 0.06876 0.82157 0.0
O63 O 0.50296 0.09949 0.73332 0.0
O64 O 0.50979 0.06884 0.83396 0.0
O65 O 0.5587 0.15279 0.79683 0.0
Sc66 Sc 0.97319 0.98825 0.31379 0.0
Sc67 Sc 0.93669 0.91632 0.28493 0.0
Sc68 Sc 0.9652 0.97594 0.22929 0.0
O69 O 0.95822 0.96017 0.27602 0.0
C70 C 0.93827 0.03883 0.26577 0.0
C71 C 0.90753 0.95802 0.34319 0.0
C72 C 0.89651 0.9395 0.22355 0.0
C73 C 0.99465 0.9178 0.33732 0.0
C74 C 0.02961 0.00254 0.26241 0.0
C75 C 0.98498 0.90136 0.22548 0.0
O76 O 0.94931 0.02996 0.2934 0.0
O77 O 0.90552 0.93464 0.32299 0.0
O78 O 0.91937 0.95757 0.21324 0.0
O79 O -0.00205 0.94861 0.33715 0.0
O80 O 0.01322 0.99546 0.23726 0.0
O81 O 0.96593 0.8928 0.24846 0.0
O82 O 0.01847 0.00043 0.29116 0.0
O83 O 0.97341 0.903 0.32018 0.0
O84 O 0.98842 0.93084 0.21626 0.0
O85 O 0.93037 0.97893 0.34252 0.0
O86 O 0.94123 0.02208 0.23971 0.0
O87 O 0.89745 0.92461 0.25074 0.0
Sc88 Sc 0.17879 -0.00186 0.42124 0.0
Sc89 Sc 0.21875 0.06738 0.3913 0.0
Sc90 Sc 0.25081 0.0242 0.45869 0.0
O91 O 0.21608 0.03002 0.42402 0.0
C92 C 0.18572 0.01025 0.49818 0.0
C93 C 0.14466 0.06791 0.40816 0.0
C94 C 0.24955 0.10134 0.45362 0.0
C95 C 0.18837 0.01092 0.34678 0.0
C96 C 0.23532 0.94974 0.44305 0.0
C97 C 0.28949 0.03682 0.39226 0.0
O98 O 0.16933 0.00195 0.47306 0.0
O99 O 0.17073 0.08427 0.40397 0.0
O100 O 0.25331 0.07518 0.4696 0.0
O101 O 0.18518 0.99046 0.36982 0.0
O102 O 0.25335 0.97198 0.4547 0.0
O103 O 0.26642 0.05135 0.37735 0.0
O104 O 0.20826 0.95571 0.42933 0.0
O105 O 0.19796 0.03992 0.35167 0.0
O106 O 0.28802 0.02719 0.42183 0.0
O107 O 0.14437 0.03708 0.41238 0.0
O108 O 0.21525 0.01974 0.49691 0.0
O109 O 0.23919 0.10207 0.42455 0.0
Sc110 Sc 0.32406 0.93435 0.96441 0.0
Sc111 Sc 0.27347 0.91851 0.89771 0.0
Sc112 Sc 0.24279 0.96049 0.96721 0.0
O113 O 0.27996 0.93779 0.9431 0.0
C114 C 0.2761 0.91947 0.02397 0.0
C115 C 0.32022 0.86551 0.92976 0.0
C116 C 0.2089 0.8983 0.9343 0.0
C117 C 0.34141 0.95421 0.89092 0.0
C118 C 0.30298 0.00649 0.9838 0.0
C119 C 0.23006 0.98348 0.89474 0.0
O120 O 0.3036 0.91879 0.00979 0.0
O121 O 0.30263 0.87531 0.90623 0.0
O122 O 0.20908 0.9229 0.95323 0.0
O123 O 0.34861 0.94974 0.92079 0.0
O124 O 0.27246 0.0012 0.98275 0.0
O125 O 0.24333 0.95843 0.88227 0.0
O126 O 0.32408 0.98469 0.97779 0.0
O127 O 0.31468 0.94482 0.87829 0.0
O128 O 0.22967 0.98894 0.92526 0.0
O129 O 0.32866 0.88376 0.95321 0.0
O130 O 0.25128 0.93394 0.01232 0.0
O131 O 0.23166 0.89152 0.91429 0.0
Sc132 Sc 0.65798 0.41042 0.55013 0.0
Sc133 Sc 0.6995 0.39304 0.62125 0.0
Sc134 Sc 0.73296 0.44757 0.56456 0.0
O135 O 0.69693 0.4173 0.57839 0.0
C136 C 0.71466 0.41679 0.49655 0.0
C137 C 0.6603 0.34145 0.5778 0.0
C138 C 0.76845 0.38297 0.59125 0.0
C139 C 0.62877 0.41868 0.62245 0.0
C140 C 0.66922 0.48621 0.54182 0.0
C141 C 0.73683 0.45876 0.6392 0.0
O142 O 0.68581 0.40993 0.50564 0.0
O143 O 0.6694 0.35225 0.60543 0.0
O144 O 0.76909 0.41219 0.58028 0.0
O145 O 0.62582 0.41144 0.59224 0.0
O146 O 0.69982 0.48459 0.54696 0.0
O147 O 0.72911 0.42939 0.64526 0.0
O148 O 0.65018 0.46189 0.54483 0.0
O149 O 0.65592 0.41711 0.63758 0.0
O150 O 0.73317 0.47125 0.61111 0.0
O151 O 0.66331 0.35847 0.55217 0.0
O152 O 0.73607 0.42857 0.51559 0.0
O153 O 0.74316 0.3699 0.60401 0.0
Sc154 Sc 0.76311 0.52849 0.03789 0.0
Sc155 Sc 0.76036 0.56988 0.11403 0.0
Sc156 Sc 0.8355 0.55249 0.07654 0.0
O157 O 0.78622 0.55035 0.07609 0.0
C158 C 0.82385 0.48088 0.05039 0.0
C159 C 0.72224 0.5036 0.09911 0.0
C160 C 0.81986 0.53921 0.15187 0.0
C161 C 0.71744 0.58972 0.05241 0.0
C162 C 0.82122 0.56273 0.00026 0.0
C163 C 0.81576 0.62318 0.10121 0.0
O164 O 0.79613 0.48722 0.03781 0.0
O165 O 0.73051 0.52688 0.11785 0.0
O166 O 0.83881 0.54068 0.12745 0.0
O167 O 0.72859 0.56772 0.03361 0.0
O168 O 0.83956 0.56347 0.02526 0.0
O169 O 0.78858 0.61499 0.11395 0.0
O170 O 0.79199 0.55264 0.00126 0.0
O171 O 0.72633 0.59323 0.08189 0.0
O172 O 0.83449 0.60347 0.08642 0.0
O173 O 0.73128 0.50126 0.06955 0.0
O174 O 0.84023 0.50166 0.06647 0.0
O175 O 0.79029 0.5479 0.15099 0.0
Sc176 Sc 0.47264 0.26885 0.04321 0.0
Sc177 Sc 0.40122 0.2279 0.06777 0.0
Sc178 Sc 0.47258 0.18523 0.04977 0.0
O179 O 0.44833 0.22726 0.05336 0.0
C180 C 0.4991 0.22613 0.98814 0.0
C181 C 0.40099 0.28663 0.0192 0.0
C182 C 0.4047 0.16635 0.01952 0.0
C183 C 0.43525 0.28536 0.10769 0.0
C184 C 0.52892 0.22617 0.0759 0.0
C185 C 0.42708 0.17048 0.11137 0.0
O186 O 0.48429 0.25266 0.99447 0.0
O187 O 0.38783 0.26021 0.02858 0.0
O188 O 0.43574 0.16528 0.01835 0.0
O189 O 0.46169 0.28553 0.09134 0.0
O190 O 0.51008 0.20241 0.08192 0.0
O191 O 0.40865 0.19517 0.10845 0.0
O192 O 0.51966 0.25045 0.05898 0.0
O193 O 0.41013 0.26856 0.10037 0.0
O194 O 0.44929 0.16338 0.09107 0.0
O195 O 0.43034 0.29398 0.02548 0.0
O196 O 0.49947 0.20186 0.00758 0.0
O197 O 0.38901 0.18658 0.03725 0.0
Sc198 Sc 0.98739 0.30907 0.96205 0.0
Sc199 Sc 0.92409 0.27223 0.91918 0.0
Sc200 Sc 0.97763 0.22557 0.96626 0.0
O201 O 0.96296 0.26918 0.9489 0.0
C202 C 0.04247 0.25678 0.94396 0.0
C203 C 0.97227 0.32546 0.88829 0.0
C204 C 0.95256 0.20712 0.89524 0.0
C205 C 0.91305 0.33277 0.96494 0.0
C206 C 0.99092 0.27026 0.02722 0.0
C207 C 0.90313 0.22221 0.97579 0.0
O208 O 0.03382 0.28424 0.95587 0.0
O209 O 0.94593 0.30897 0.88801 0.0
O210 O 0.96077 0.19937 0.92408 0.0
O211 O 0.94346 0.33702 0.96961 0.0
O212 O -0.0036 0.24363 0.01247 0.0
O213 O 0.89824 0.23633 0.94836 0.0
O214 O 0.98352 0.29625 0.01233 0.0
O215 O 0.90157 0.3092 0.94848 0.0
O216 O 0.93122 0.21937 0.98869 0.0
O217 O 0.99165 0.32569 0.91253 0.0
O218 O 0.02372 0.23216 0.94244 0.0
O219 O 0.94369 0.23564 0.88729 0.0
Sc220 Sc 0.54661 0.67134 0.41872 0.0
Sc221 Sc 0.62112 0.70711 0.39856 0.0
Sc222 Sc 0.56445 0.74825 0.44941 0.0
O223 O 0.5777 0.70889 0.42246 0.0
C224 C 0.49551 0.72714 0.41939 0.0
C225 C 0.57789 0.66703 0.34822 0.0
C226 C 0.58895 0.77511 0.37989 0.0
C227 C 0.61615 0.63901 0.43458 0.0
C228 C 0.54004 0.69234 0.49457 0.0
C229 C 0.64143 0.75073 0.45888 0.0
O230 O 0.50635 0.70184 0.40529 0.0
O231 O 0.60404 0.68073 0.35697 0.0
O232 O 0.57261 0.7778 0.40643 0.0
O233 O 0.58511 0.63842 0.43248 0.0
O234 O 0.55484 0.71961 0.49267 0.0
O235 O 0.6479 0.73323 0.43442 0.0
O236 O 0.53416 0.67473 0.46966 0.0
O237 O 0.63363 0.66239 0.42363 0.0
O238 O 0.61261 0.7577 0.46747 0.0
O239 O 0.55405 0.66317 0.36748 0.0
O240 O 0.51309 0.74474 0.43783 0.0
O241 O 0.60817 0.75141 0.37359 0.0
Sc242 Sc 0.05533 0.78387 0.54057 0.0
Sc243 Sc 0.12968 0.76989 0.58145 0.0
Sc244 Sc 0.10055 0.85 0.57054 0.0
O245 O 0.09512 0.80124 0.56429 0.0
C246 C 0.07261 0.84636 0.498 0.0
C247 C 0.11308 0.74002 0.51204 0.0
C248 C 0.17322 0.82858 0.5553 0.0
C249 C 0.06354 0.73053 0.59521 0.0
C250 C 0.02437 0.84194 0.58284 0.0
C251 C 0.12316 0.82051 0.63943 0.0
O252 O 0.06101 0.81783 0.50127 0.0
O253 O 0.13356 0.74672 0.53439 0.0
O254 O 0.14978 0.84865 0.55385 0.0
O255 O 0.04559 0.74817 0.57722 0.0
O256 O 0.05127 0.85662 0.58759 0.0
O257 O 0.12754 0.79128 0.6299 0.0
O258 O 0.02222 0.81605 0.56589 0.0
O259 O 0.09417 0.73458 0.59769 0.0
O260 O 0.11525 0.84372 0.62041 0.0
O261 O 0.08358 0.74954 0.51241 0.0
O262 O 0.08652 0.86159 0.52115 0.0
O263 O 0.17049 0.79986 0.56652 0.0
Sc264 Sc 0.98962 0.55163 0.79538 0.0
Sc265 Sc 0.92437 0.59557 0.76316 0.0
Sc266 Sc 0.9597 0.53043 0.7203 0.0
O267 O 0.95708 0.55909 0.76017 0.0
C268 C 0.03454 0.53353 0.73964 0.0
C269 C 0.9849 0.62923 0.7967 0.0
C270 C 0.95729 0.60122 0.69244 0.0
C271 C 0.92513 0.5657 0.83567 0.0
C272 C 0.96638 0.47943 0.77424 0.0
C273 C 0.8837 0.54638 0.72293 0.0
O274 O 0.02899 0.55476 0.76124 0.0
O275 O 0.959 0.63124 0.77989 0.0
O276 O 0.97078 0.57317 0.69267 0.0
O277 O 0.95204 0.55059 0.83186 0.0
O278 O 0.94945 0.48815 0.7496 0.0
O279 O 0.88508 0.56487 0.74759 0.0
O280 O 0.98499 0.49903 0.78982 0.0
O281 O 0.9122 0.58342 0.81345 0.0
O282 O 0.90879 0.53568 0.70833 0.0
O283 O -0.00241 0.60222 0.80482 0.0
O284 O 0.01127 0.51894 0.72538 0.0
O285 O 0.9359 0.61037 0.71332 0.0
Sc286 Sc 0.54757 0.45266 0.24159 0.0
Sc287 Sc 0.58276 0.38801 0.28667 0.0
Sc288 Sc 0.57847 0.46632 0.31996 0.0
O289 O 0.56951 0.43552 0.28276 0.0
C290 C 0.59302 0.51284 0.26097 0.0
C291 C 0.6086 0.411 0.21677 0.0
C292 C 0.63982 0.42011 0.32881 0.0
C293 C 0.51876 0.38085 0.24347 0.0
C294 C 0.50663 0.4877 0.29553 0.0
C295 C 0.54884 0.40308 0.35485 0.0
O296 O 0.57219 0.49915 0.24261 0.0
O297 O 0.61092 0.39269 0.24198 0.0
O298 O 0.62648 0.44793 0.33119 0.0
O299 O 0.51811 0.41034 0.23444 0.0
O300 O 0.53092 0.48877 0.31492 0.0
O301 O 0.55552 0.38305 0.33188 0.0
O302 O 0.50761 0.47341 0.26805 0.0
O303 O 0.54107 0.3695 0.26149 0.0
O304 O 0.55672 0.43311 0.35403 0.0
O305 O 0.58657 0.43265 0.21306 0.0
O306 O 0.60112 0.50143 0.28861 0.0
O307 O 0.62647 0.39672 0.31376 0.0
Sc308 Sc 0.46098 0.94956 0.22791 0.0
Sc309 Sc 0.41713 0.87521 0.22635 0.0
Sc310 Sc 0.4315 0.91961 0.15388 0.0
O311 O 0.43645 0.91468 0.20279 0.0
C312 C 0.42286 0.99312 0.17561 0.0
C313 C 0.40113 0.93516 0.27384 0.0
C314 C 0.36175 0.89224 0.17481 0.0
C315 C 0.48326 0.88531 0.26514 0.0
C316 C 0.50527 0.94144 0.1657 0.0
C317 C 0.4463 0.84373 0.16132 0.0
O318 O 0.44034 0.98956 0.20091 0.0
O319 O 0.39738 0.90556 0.26505 0.0
O320 O 0.38133 0.90641 0.15549 0.0
O321 O 0.48493 0.91557 0.2593 0.0
O322 O 0.48166 0.93334 0.1473 0.0
O323 O 0.43589 0.84086 0.19048 0.0
O324 O 0.50199 0.94696 0.19601 0.0
O325 O 0.46133 0.86679 0.25352 0.0
O326 O 0.44639 0.87043 0.14568 0.0
O327 O 0.42209 0.95421 0.26142 0.0
O328 O 0.41594 0.96959 0.15673 0.0
O329 O 0.37032 0.87942 0.20177 0.0
Sc330 Sc 0.00706 0.97961 0.69105 0.0
Sc331 Sc 0.05451 0.04883 0.70798 0.0
Sc332 Sc 0.02494 5e-05 0.77245 0.0
O333 O 0.02919 0.00936 0.7238 0.0
C334 C 0.95343 0.98736 0.74633 0.0
C335 C 0.99429 0.04962 0.65967 0.0
C336 C 0.01708 0.07696 0.77006 0.0
C337 C 0.07325 0.99442 0.65471 0.0
C338 C 0.03433 0.92896 0.74388 0.0
C339 C 0.09868 0.02468 0.76605 0.0
O340 O 0.96227 0.98375 0.7169 0.0
O341 O 0.01573 0.06436 0.67646 0.0
O342 O 0.01084 0.0492 0.78233 0.0
O343 O 0.05011 0.97478 0.66121 0.0
O344 O 0.03957 0.94965 0.76638 0.0
O345 O 0.09601 0.03745 0.73793 0.0
O346 O 0.0211 0.93628 0.71681 0.0
O347 O 0.07679 0.02169 0.66908 0.0
O348 O 0.07514 0.01152 0.78136 0.0
O349 O 0.98995 0.01902 0.66118 0.0
O350 O 0.97322 0.9901 0.76997 0.0
O351 O 0.03435 0.08073 0.74456 0.0
Sc352 Sc 0.74923 0.94834 0.54726 0.0
Sc353 Sc 0.76938 0.91325 0.62256 0.0
Sc354 Sc 0.81515 0.97844 0.59256 0.0
O355 O 0.77796 0.94674 0.58722 0.0
C356 C 0.81914 0.95916 0.51654 0.0
C357 C 0.74391 0.87325 0.56174 0.0
C358 C 0.84472 0.90805 0.61245 0.0
C359 C 0.70152 0.94634 0.60911 0.0
C360 C 0.76388 0.02435 0.55684 0.0
C361 C 0.79794 0.97094 0.66626 0.0
O362 O 0.79011 0.94836 0.51427 0.0
O363 O 0.7488 0.87665 0.59194 0.0
O364 O 0.84693 0.93882 0.60775 0.0
O365 O 0.70683 0.95006 0.57859 0.0
O366 O 0.7876 0.02067 0.5766 0.0
O367 O 0.78806 0.94216 0.66146 0.0
O368 O 0.74814 0.00045 0.54517 0.0
O369 O 0.72213 0.93457 0.62927 0.0
O370 O 0.80359 0.99032 0.64271 0.0
O371 O 0.74671 0.8965 0.54163 0.0
O372 O 0.83093 0.9706 0.54294 0.0
O373 O 0.81748 0.89312 0.61524 0.0
Sc374 Sc 0.67854 0.0549 0.03256 0.0
Sc375 Sc 0.73152 0.06242 0.09906 0.0
Sc376 Sc 0.76025 0.03323 0.02227 0.0
O377 O 0.72356 0.05018 0.05139 0.0
C378 C 0.7028 0.98604 0.00384 0.0
C379 C 0.66588 0.02289 0.10262 0.0
C380 C 0.77975 0.00214 0.09092 0.0
C381 C 0.67906 0.11626 0.07954 0.0
C382 C 0.72029 0.0775 0.97183 0.0
C383 C 0.78978 0.09474 0.05969 0.0
O384 O 0.68128 0.00748 0.01025 0.0
O385 O 0.6923 0.032 0.11601 0.0
O386 O 0.78165 0.00347 0.06002 0.0
O387 O 0.67036 0.1022 0.05339 0.0
O388 O 0.74475 0.05989 0.97909 0.0
O389 O 0.77132 0.09362 0.08469 0.0
O390 O 0.6952 0.07951 0.98975 0.0
O391 O 0.69978 0.10424 0.09909 0.0
O392 O 0.78866 0.07472 0.03594 0.0
O393 O 0.65769 0.03078 0.07375 0.0
O394 O 0.7332 0.99087 0.00729 0.0
O395 O 0.7631 0.0221 0.10753 0.0
Sc396 Sc 0.31572 0.58379 0.45231 0.0
Sc397 Sc 0.28348 0.59887 0.3746 0.0
Sc398 Sc 0.23734 0.55784 0.43505 0.0
O399 O 0.27901 0.57994 0.42017 0.0
C400 C 0.28763 0.51125 0.46582 0.0
C401 C 0.35053 0.56077 0.38644 0.0
C402 C 0.23707 0.53895 0.35945 0.0
C403 C 0.32764 0.64978 0.4128 0.0
C404 C 0.25919 0.5946 0.50055 0.0
C405 C 0.21516 0.62487 0.40263 0.0
O406 O 0.30651 0.53525 0.4719 0.0
O407 O 0.32899 0.57224 0.36685 0.0
O408 O 0.22705 0.53626 0.38859 0.0
O409 O 0.3311 0.63202 0.43795 0.0
O410 O 0.24129 0.57428 0.48542 0.0
O411 O 0.23919 0.62706 0.38274 0.0
O412 O 0.28503 0.60608 0.48805 0.0
O413 O 0.31055 0.64107 0.38865 0.0
O414 O 0.21117 0.60125 0.42256 0.0
O415 O 0.34832 0.56284 0.41744 0.0
O416 O 0.26245 0.51391 0.44798 0.0
O417 O 0.25779 0.5601 0.35082 0.0
Sc418 Sc 0.15202 0.43109 0.90875 0.0
Sc419 Sc 0.22496 0.41492 0.8676 0.0
Sc420 Sc 0.22534 0.45799 0.94269 0.0
O421 O 0.20095 0.43489 0.90622 0.0
C422 C 0.16289 0.50391 0.92917 0.0
C423 C 0.16159 0.43739 0.83144 0.0
C424 C 0.26291 0.48203 0.87912 0.0
C425 C 0.17417 0.36013 0.88944 0.0
C426 C 0.16979 0.4268 0.98496 0.0
C427 C 0.27106 0.39713 0.92757 0.0
O428 O 0.14691 0.48288 0.91281 0.0
O429 O 0.19233 0.43453 0.83134 0.0
O430 O 0.25456 0.48494 0.90881 0.0
O431 O 0.15613 0.3795 0.90558 0.0
O432 O 0.19969 0.43389 0.98179 0.0
O433 O 0.26009 0.3926 0.89898 0.0
O434 O 0.1502 0.42683 0.96101 0.0
O435 O 0.19807 0.36924 0.8717 0.0
O436 O 0.26173 0.42022 0.94608 0.0
O437 O 0.14447 0.43467 0.85705 0.0
O438 O 0.19027 0.49773 0.94274 0.0
O439 O 0.2543 0.4583 0.861 0.0
Sc440 Sc 0.53065 0.72497 0.94234 0.0
Sc441 Sc 0.59154 0.77567 0.9095 0.0
Sc442 Sc 0.525 0.80873 0.95021 0.0
O443 O 0.54925 0.76981 0.93408 0.0
C444 C 0.46771 0.76237 0.92446 0.0
C445 C 0.55956 0.71929 0.87028 0.0
C446 C 0.54801 0.83402 0.88183 0.0
C447 C 0.60446 0.71349 0.95526 0.0
C448 C 0.51286 0.76211 0.00861 0.0
C449 C 0.59934 0.82941 0.96285 0.0
O450 O 0.48501 0.73722 0.91924 0.0
O451 O 0.57315 0.74705 0.86993 0.0
O452 O 0.52516 0.83057 0.90254 0.0
O453 O 0.57525 0.71067 0.96538 0.0
O454 O 0.52348 0.78947 -0.00121 0.0
O455 O 0.61252 0.80632 0.94681 0.0
O456 O 0.51012 0.7375 0.98987 0.0
O457 O 0.61298 0.73323 0.9327 0.0
O458 O 0.56871 0.83411 0.9636 0.0
O459 O 0.54776 0.70643 0.89601 0.0
O460 O 0.47833 0.78777 0.93874 0.0
O461 O 0.57476 0.81836 0.88351 0.0
Sc462 Sc 0.00419 0.67835 0.02041 0.0
Sc463 Sc 0.06956 0.71661 0.05985 0.0
Sc464 Sc 0.01007 0.76333 0.01748 0.0
O465 O 0.02791 0.71949 0.0329 0.0
C466 C -0.00375 0.71937 0.95557 0.0
C467 C 0.0783 0.65612 0.01229 0.0
C468 C 0.08582 0.76971 0.00458 0.0
C469 C 0.02474 0.66264 0.09385 0.0
C470 C 0.946 0.72725 0.0393 0.0
C471 C 0.03908 0.78133 0.08754 0.0
O472 O 0.00129 0.69266 0.97031 0.0
O473 O 0.08999 0.67821 0.03054 0.0
O474 O 0.0564 0.77576 -0.00321 0.0
O475 O 0.0058 0.65988 0.06942 0.0
O476 O 0.9622 0.75366 0.03763 0.0
O477 O 0.05473 0.75507 0.09237 0.0
O478 O 0.95764 0.69947 0.03194 0.0
O479 O 0.04942 0.6815 0.09402 0.0
O480 O 0.02322 0.78736 0.06169 0.0
O481 O 0.04794 0.65285 0.00724 0.0
O482 O 0.99528 0.74673 0.96983 0.0
O483 O 0.09389 0.75065 0.02783 0.0
Sc484 Sc 0.43408 0.3319 0.57461 0.0
Sc485 Sc 0.36297 0.28776 0.58567 0.0
Sc486 Sc 0.42647 0.25485 0.53898 0.0
O487 O 0.40794 0.29169 0.56589 0.0
C488 C 0.45122 0.31718 0.49998 0.0
C489 C 0.36175 0.35825 0.55837 0.0
C490 C 0.35379 0.24719 0.52004 0.0
C491 C 0.39749 0.3297 0.64072 0.0
C492 C 0.48896 0.27698 0.5793 0.0
C493 C 0.39771 0.22225 0.60309 0.0
O494 O 0.44696 0.33696 0.52362 0.0
O495 O 0.34702 0.33073 0.5591 0.0
O496 O 0.38288 0.25062 0.5102 0.0
O497 O 0.42488 0.33041 0.62638 0.0
O498 O 0.47326 0.25516 0.5638 0.0
O499 O 0.38082 0.24645 0.61296 0.0
O500 O 0.47804 0.30552 0.58416 0.0
O501 O 0.37224 0.3185 0.62699 0.0
O502 O 0.40875 0.21976 0.57404 0.0
O503 O 0.39166 0.36187 0.56625 0.0
O504 O 0.44546 0.28681 0.5022 0.0
O505 O 0.34464 0.25622 0.54818 0.0
Sc506 Sc 0.94235 0.22733 0.47169 0.0
Sc507 Sc 0.86873 0.22466 0.42636 0.0
Sc508 Sc 0.91062 0.15246 0.44505 0.0
O509 O 0.90741 0.2016 0.44751 0.0
C510 C 0.98436 0.17296 0.43435 0.0
C511 C 0.92842 0.2722 0.41001 0.0
C512 C 0.88451 0.17058 0.37365 0.0
C513 C 0.87647 0.26181 0.49389 0.0
C514 C 0.93556 0.16588 0.51779 0.0
C515 C 0.83582 0.16309 0.46087 0.0
O516 O 0.98184 0.19972 0.44994 0.0
O517 O 0.89928 0.26243 0.40558 0.0
O518 O 0.89639 0.15117 0.39466 0.0
O519 O 0.90691 0.25702 0.49708 0.0
O520 O 0.92539 0.14746 0.49506 0.0
O521 O 0.83339 0.19056 0.4466 0.0
O522 O 0.94183 0.19586 0.51348 0.0
O523 O 0.85991 0.25171 0.46981 0.0
O524 O 0.86204 0.14685 0.46212 0.0
O525 O 0.94682 0.26124 0.43236 0.0
O526 O 0.96025 0.15418 0.42919 0.0
O527 O 0.87441 0.19902 0.38057 0.0
H528 H 0.15302 0.48214 0.24552 0.0
H529 H 0.12907 0.41287 0.32096 0.0
H530 H 0.1719 0.43509 0.35599 0.0
H531 H 0.20879 0.48014 0.36839 0.0
H532 H 0.23127 0.55144 0.2941 0.0
H533 H 0.19689 0.52231 0.25508 0.0
C534 C 0.15821 0.47127 0.26914 0.0
C535 C 0.13846 0.44596 0.28086 0.0
C536 C 0.18207 0.48496 0.2895 0.0
C537 C 0.1445 0.43222 0.31162 0.0
C538 C 0.16868 0.44511 0.33169 0.0
C539 C 0.20658 0.48899 0.34349 0.0
C540 C 0.22185 0.51824 0.33432 0.0
C541 C 0.18647 0.47245 0.32145 0.0
C542 C 0.21946 0.52909 0.30182 0.0
C543 C 0.1997 0.51254 0.27953 0.0
H544 H 0.25493 0.51887 0.82483 0.0
H545 H 0.32068 0.49994 0.90471 0.0
H546 H 0.36109 0.53685 0.88081 0.0
H547 H 0.38008 0.56837 0.83354 0.0
H548 H 0.31379 0.58882 0.75435 0.0
H549 H 0.27063 0.55875 0.78229 0.0
C550 C 0.27802 0.52322 0.837 0.0
C551 C 0.28542 0.50641 0.8659 0.0
C552 C 0.30076 0.54498 0.8235 0.0
C553 C 0.31489 0.51253 0.88214 0.0
C554 C 0.33788 0.53361 0.86857 0.0
C555 C 0.35585 0.56716 0.82298 0.0
C556 C 0.35022 0.58036 0.79183 0.0
C557 C 0.33141 0.54925 0.83881 0.0
C558 C 0.31869 0.57895 0.77842 0.0
C559 C 0.29413 0.56127 0.79412 0.0
H560 H 0.58322 0.0085 0.68262 0.0
H561 H 0.6482 0.09141 0.68051 0.0
H562 H 0.68643 0.06088 0.64641 0.0
H563 H 0.7034 0.00926 0.62172 0.0
H564 H 0.64112 0.9249 0.62779 0.0
H565 H 0.5992 0.95748 0.65585 0.0
C566 C 0.60545 0.02013 0.67417 0.0
C567 C 0.61295 0.05216 0.68398 0.0
C568 C 0.6277 0.0021 0.65563 0.0
C569 C 0.64202 0.06676 0.67329 0.0
C570 C 0.66385 0.04933 0.6539 0.0
C571 C 0.68036 -0.00171 0.62889 0.0
C572 C 0.6748 0.96514 0.62291 0.0
C573 C 0.65725 0.01681 0.64565 0.0
C574 C 0.64542 0.95057 0.63231 0.0
C575 C 0.6217 0.96913 0.64829 0.0
H576 H 0.89534 0.93188 0.15874 0.0
H577 H 0.83293 0.94493 0.24246 0.0
H578 H 0.78763 0.96022 0.2065 0.0
H579 H 0.77039 0.98072 0.15283 0.0
H580 H 0.83443 0.97052 0.06965 0.0
H581 H 0.87444 0.94251 0.10374 0.0
C582 C 0.87147 0.93713 0.16893 0.0
C583 C 0.86733 0.93796 0.20298 0.0
C584 C 0.84617 0.94688 0.14828 0.0
C585 C 0.83645 0.94425 0.21623 0.0
C586 C 0.81077 0.95333 0.19571 0.0
C587 C 0.79286 0.97181 0.14203 0.0
C588 C 0.79996 0.97854 0.10904 0.0
C589 C 0.81601 0.95648 0.16191 0.0
C590 C 0.82864 0.96605 0.09509 0.0
C591 C 0.85158 0.95018 0.1146 0.0
H592 H 0.30317 0.21222 0.54284 0.0
H593 H 0.35453 0.23637 0.45397 0.0
H594 H 0.32235 0.19587 0.42409 0.0
H595 H 0.28479 0.149 0.42519 0.0
H596 H 0.23934 0.12089 0.51597 0.0
H597 H 0.2638 0.16791 0.54333 0.0
C598 C 0.30688 0.20918 0.51677 0.0
C599 C 0.33119 0.22716 0.50059 0.0
C600 C 0.28954 0.18493 0.50029 0.0
C601 C 0.336 0.22265 0.46692 0.0
C602 C 0.3177 0.19948 0.44991 0.0
C603 C 0.27979 0.1537 0.45079 0.0
C604 C 0.2604 0.13183 0.46871 0.0
C605 C 0.29518 0.17978 0.4666 0.0
C606 C 0.25434 0.13755 0.50192 0.0
C607 C 0.26832 0.16431 0.51749 0.0
H608 H 0.21321 0.83479 0.94939 0.0
H609 H 0.14471 0.91192 0.92932 0.0
H610 H 0.09938 0.87663 0.94566 0.0
H611 H 0.08044 0.82667 0.97191 0.0
H612 H 0.14956 0.75157 -0.00211 0.0
H613 H 0.19364 0.78314 0.97298 0.0
C614 C 0.18821 0.84337 0.94787 0.0
C615 C 0.18188 0.87548 0.93804 0.0
C616 C 0.16263 0.82357 0.95888 0.0
C617 C 0.14975 0.88703 0.93673 0.0
C618 C 0.12399 0.867 0.94622 0.0
C619 C 0.10506 0.81696 0.97168 0.0
C620 C 0.11185 0.78702 0.98689 0.0
C621 C 0.13029 0.83563 0.95832 0.0
C622 C 0.14387 0.77481 0.98662 0.0
C623 C 0.16903 0.79278 0.97234 0.0
H624 H 0.88893 0.31996 0.52305 0.0
H625 H 0.82308 0.23803 0.52319 0.0
H626 H 0.78649 0.26647 0.56052 0.0
H627 H 0.76893 0.31754 0.58486 0.0
H628 H 0.83136 0.40212 0.57997 0.0
H629 H 0.8739 0.36974 0.55357 0.0
C630 C 0.86692 0.30827 0.53198 0.0
C631 C 0.85828 0.27734 0.52037 0.0
C632 C 0.8453 0.32535 0.55235 0.0
C633 C 0.82977 0.26213 0.53173 0.0
C634 C 0.80891 0.27833 0.55301 0.0
C635 C 0.79219 0.32869 0.57892 0.0
C636 C 0.79683 0.3622 0.58385 0.0
C637 C 0.81575 0.31043 0.56234 0.0
C638 C 0.82709 0.37635 0.57596 0.0
C639 C 0.85135 0.35792 0.56073 0.0
H640 H 0.71675 0.61552 0.99184 0.0
H641 H 0.66544 0.61614 0.08384 0.0
H642 H 0.6257 0.65489 0.06182 0.0
H643 H 0.60545 0.68801 0.01619 0.0
H644 H 0.65895 0.69019 0.92538 0.0
H645 H 0.69829 0.65108 0.94725 0.0
C646 C 0.69673 0.62408 0.00692 0.0
C647 C 0.6936 0.61288 0.03916 0.0
C648 C 0.67462 0.64691 0.99441 0.0
C649 C 0.66811 0.62451 0.05886 0.0
C650 C 0.64546 0.64659 0.04631 0.0
C651 C 0.62577 0.67993 0.00126 0.0
C652 C 0.62928 0.6917 0.96923 0.0
C653 C 0.64847 0.65789 0.01411 0.0
C654 C 0.6559 0.68149 0.9502 0.0
C655 C 0.67826 0.65904 0.9626 0.0
H656 H 0.45725 0.2668 0.1659 0.0
H657 H 0.41453 0.34754 0.11401 0.0
H658 H 0.43139 0.38499 0.15744 0.0
H659 H 0.46852 0.39548 0.20285 0.0
H660 H 0.51534 0.31473 0.25198 0.0
H661 H 0.48589 0.27635 0.21758 0.0
C662 C 0.45057 0.29242 0.16499 0.0
C663 C 0.43485 0.30479 0.13732 0.0
C664 C 0.46162 0.31375 0.18917 0.0
C665 C 0.42647 0.33784 0.13555 0.0
C666 C 0.4364 0.35917 0.16012 0.0
C667 C 0.47178 0.36948 0.20656 0.0
C668 C 0.49499 0.35802 0.22908 0.0
C669 C 0.45564 0.34759 0.18599 0.0
C670 C 0.49822 0.32425 0.23423 0.0
C671 C 0.48145 0.30224 0.21452 0.0
H672 H 0.98264 0.21113 0.83666 0.0
H673 H 0.92888 0.14613 0.89964 0.0
H674 H 0.94165 0.10015 0.864 0.0
H675 H 0.97311 0.07779 0.81917 0.0
H676 H 0.0306 0.14144 0.75776 0.0
H677 H 0.01126 0.18877 0.78849 0.0
C678 C 0.97312 0.18699 0.84192 0.0
C679 C 0.9549 0.18169 0.87042 0.0
C680 C 0.98172 0.16049 0.82207 0.0
C681 C 0.943 0.15044 0.87766 0.0
C682 C 0.95043 0.12424 0.85746 0.0
C683 C 0.9814 0.10198 0.81232 0.0
C684 C 0.00375 0.106 0.78662 0.0
C685 C 0.97069 0.12883 0.8303 0.0
C686 C 0.01366 0.13763 0.77773 0.0
C687 C 0.00262 0.1647 0.79525 0.0
H688 H 0.52182 0.8327 0.25641 0.0
H689 H 0.49722 0.90836 0.32512 0.0
H690 H 0.53259 0.88342 0.36629 0.0
H691 H 0.56517 0.83662 0.38431 0.0
H692 H 0.59151 0.76198 0.31482 0.0
H693 H 0.56191 0.79067 0.27194 0.0
C694 C 0.52458 0.84372 0.28034 0.0
C695 C 0.50672 0.87171 0.28828 0.0
C696 C 0.54543 0.82968 0.30352 0.0
C697 C 0.51073 0.88652 0.31889 0.0
C698 C 0.5309 0.87234 0.34232 0.0
C699 C 0.56511 0.82711 0.35957 0.0
C700 C 0.58001 0.79705 0.35286 0.0
C701 C 0.54771 0.84347 0.33514 0.0
C702 C 0.58021 0.78515 0.32064 0.0
C703 C 0.56293 0.80129 0.29616 0.0
H704 H -0.00049 0.72385 0.61054 0.0
H705 H 0.09304 0.67619 0.61964 0.0
H706 H 0.06734 0.63035 0.64761 0.0
H707 H 0.01895 0.60478 0.67082 0.0
H708 H 0.92592 0.6537 0.66558 0.0
H709 H 0.95077 0.69806 0.63402 0.0
C710 C 0.01425 0.70338 0.61857 0.0
C711 C 0.04812 0.7034 0.61307 0.0
C712 C -0.0006 0.67732 0.63497 0.0
C713 C 0.06696 0.67688 0.62384 0.0
C714 C 0.05228 0.65058 0.63963 0.0
C715 C 0.00395 0.62484 0.66222 0.0
C716 C 0.97062 0.62589 0.67004 0.0
C717 C 0.01858 0.65063 0.64536 0.0
C718 C 0.95163 0.65239 0.65957 0.0
C719 C 0.96584 0.67775 0.64173 0.0
H720 H 0.83957 0.50208 0.74361 0.0
H721 H 0.85814 0.57447 0.66958 0.0
H722 H 0.80941 0.5574 0.63967 0.0
H723 H 0.7668 0.51712 0.63091 0.0
H724 H 0.75057 0.44127 0.70242 0.0
H725 H 0.79246 0.46495 0.73752 0.0
C726 C 0.83233 0.51442 0.7213 0.0
C727 C 0.85196 0.53932 0.70851 0.0
C728 C 0.80491 0.50375 0.70379 0.0
C729 C 0.84302 0.5552 0.67956 0.0
C730 C 0.81532 0.54541 0.66253 0.0
C731 C 0.77186 0.50606 0.65445 0.0
C732 C 0.75598 0.47709 0.66369 0.0
C733 C 0.79677 0.51899 0.67385 0.0
C734 C 0.7627 0.46337 0.69449 0.0
C735 C 0.78679 0.47678 0.71452 0.0
H736 H 0.60546 0.42194 0.15177 0.0
H737 H 0.67311 0.4062 0.23083 0.0
H738 H 0.71671 0.43135 0.19889 0.0
H739 H 0.73193 0.4679 0.15345 0.0
H740 H 0.66459 0.4832 0.07414 0.0
H741 H 0.62429 0.44822 0.10117 0.0
C742 C 0.63009 0.42288 0.16142 0.0
C743 C 0.63605 0.41279 0.19368 0.0
C744 C 0.65472 0.43817 0.14329 0.0
C745 C 0.668 0.41377 0.20598 0.0
C746 C 0.6928 0.42866 0.18794 0.0
C747 C 0.70861 0.46295 0.14193 0.0
C748 C 0.70063 0.47843 0.11243 0.0
C749 C 0.68587 0.44262 0.15742 0.0
C750 C 0.67085 0.47161 0.0971 0.0
C751 C 0.6479 0.4517 0.11253 0.0
H752 H 0.38656 -0.0016 0.282 0.0
H753 H 0.36952 0.90289 0.32322 0.0
H754 H 0.33688 0.9274 0.36696 0.0
H755 H 0.3115 0.97568 0.39153 0.0
H756 H 0.32477 0.07015 0.34702 0.0
H757 H 0.36196 0.04637 0.30666 0.0
C758 C 0.37591 0.98289 0.30068 0.0
C759 C 0.3804 0.94893 0.29957 0.0
C760 C 0.35712 -0.00298 0.32523 0.0
C761 C 0.36609 0.92909 0.32355 0.0
C762 C 0.34773 0.94309 0.3486 0.0
C763 C 0.32331 0.9911 0.37347 0.0
C764 C 0.31623 0.02457 0.37231 0.0
C765 C 0.34303 0.977 0.34954 0.0
C766 C 0.33051 0.04438 0.34836 0.0
C767 C 0.35138 0.03076 0.32525 0.0
H768 H 0.23088 0.98572 0.82838 0.0
H769 H 0.18356 0.02758 0.91287 0.0
H770 H 0.14028 0.049 0.87832 0.0
H771 H 0.11071 0.04597 0.82644 0.0
H772 H 0.15679 0.00347 0.742 0.0
H773 H 0.20602 0.99221 0.77417 0.0
C774 C 0.21149 0.00016 0.83914 0.0
C775 C 0.20988 0.00415 0.87325 0.0
C776 C 0.18626 0.01177 0.81925 0.0
C777 C 0.18514 0.02369 0.88675 0.0
C778 C 0.16021 0.03577 0.86704 0.0
C779 C 0.13193 0.03496 0.81503 0.0
C780 C 0.13034 0.02491 0.78237 0.0
C781 C 0.15969 0.02839 0.83365 0.0
C782 C 0.15777 0.01117 0.7673 0.0
C783 C 0.18571 0.00461 0.7857 0.0
H784 H 0.75209 0.8449 0.50274 0.0
H785 H 0.70256 0.83385 0.59511 0.0
H786 H 0.668 0.79127 0.57209 0.0
H787 H 0.64632 0.76391 0.52334 0.0
H788 H 0.69699 0.77358 0.43146 0.0
H789 H 0.73699 0.8097 0.45671 0.0
C790 C 0.73422 0.83256 0.51793 0.0
C791 C 0.72934 0.84273 0.55023 0.0
C792 C 0.71444 0.80822 0.50456 0.0
C793 C 0.7066 0.82638 0.57005 0.0
C794 C 0.68666 0.80225 0.55687 0.0
C795 C 0.66653 0.77349 0.50913 0.0
C796 C 0.66853 0.76682 0.47564 0.0
C797 C 0.68947 0.79403 0.5238 0.0
C798 C 0.69501 0.77867 0.45736 0.0
C799 C 0.71776 0.79941 0.47169 0.0
H800 H 0.90289 0.19247 0.03519 0.0
H801 H 0.84105 0.21561 0.95278 0.0
H802 H 0.7981 0.1813 0.97517 0.0
H803 H 0.78158 0.13876 0.0134 0.0
H804 H 0.84334 0.11339 0.09459 0.0
H805 H 0.88307 0.15507 0.07766 0.0
C806 C 0.8799 0.19033 0.02228 0.0
C807 C 0.87551 0.20586 0.99192 0.0
C808 C 0.8555 0.17014 0.03498 0.0
C809 C 0.84529 0.20348 0.97592 0.0
C810 C 0.82071 0.18385 0.98865 0.0
C811 C 0.80349 0.14301 0.02769 0.0
C812 C 0.81014 0.12332 0.0548 0.0
C813 C 0.8261 0.16619 0.01742 0.0
C814 C 0.83813 0.12862 0.07358 0.0
C815 C 0.86077 0.15216 0.06377 0.0
H816 H 0.16666 0.74762 0.47435 0.0
H817 H 0.08291 0.68589 0.48935 0.0
H818 H 0.10437 0.64646 0.44993 0.0
H819 H 0.15119 0.62599 0.41856 0.0
H820 H 0.23445 0.68821 0.40257 0.0
H821 H 0.20835 0.73176 0.43377 0.0
C822 C 0.15299 0.72573 0.46848 0.0
C823 C 0.12376 0.71904 0.48504 0.0
C824 C 0.16523 0.70353 0.44547 0.0
C825 C 0.10567 0.69116 0.47697 0.0
C826 C 0.11792 0.66869 0.45449 0.0
C827 C 0.163 0.64956 0.42086 0.0
C828 C 0.19478 0.65381 0.40872 0.0
C829 C 0.14821 0.67412 0.43949 0.0
C830 C 0.20988 0.68444 0.41158 0.0
C831 C 0.19521 0.70915 0.42993 0.0
H832 H 0.35108 0.27603 0.97718 0.0
H833 H 0.40588 0.35226 0.02465 0.0
H834 H 0.37043 0.39357 0.00049 0.0
H835 H 0.32268 0.4079 0.96724 0.0
H836 H 0.27014 0.33203 0.91681 0.0
H837 H 0.30587 0.29068 0.94061 0.0
C838 C 0.35524 0.30171 0.98204 0.0
C839 C 0.3808 0.31118 0.00266 0.0
C840 C 0.33519 0.32534 0.96761 0.0
C841 C 0.38636 0.34448 0.00861 0.0
C842 C 0.36605 0.36809 0.99497 0.0
C843 C 0.31925 0.3823 0.96146 0.0
C844 C 0.29393 0.37287 0.94055 0.0
C845 C 0.34024 0.35878 0.97466 0.0
C846 C 0.28973 0.33975 0.93278 0.0
C847 C 0.31001 0.31612 0.94645 0.0
H848 H 0.48975 0.66963 0.74567 0.0
H849 H 0.51203 0.57706 0.79089 0.0
H850 H 0.54664 0.60421 0.83073 0.0
H851 H 0.56223 0.65484 0.85834 0.0
H852 H 0.5408 0.74746 0.8133 0.0
H853 H 0.51477 0.71971 0.76732 0.0
C854 C 0.50273 0.6554 0.76386 0.0
C855 C 0.49771 0.62159 0.7659 0.0
C856 C 0.52254 0.67116 0.78682 0.0
C857 C 0.51522 0.60323 0.78903 0.0
C858 C 0.53492 0.61872 0.81195 0.0
C859 C 0.55264 0.6688 0.83795 0.0
C860 C 0.55279 0.70293 0.83922 0.0
C861 C 0.53752 0.65275 0.81193 0.0
C862 C 0.54083 0.72104 0.81267 0.0
C863 C 0.52568 0.70522 0.78659 0.0
H864 H 0.01712 0.90763 0.16808 0.0
H865 H 0.9906 0.83679 0.24163 0.0
H866 H 0.01048 0.79279 0.20683 0.0
H867 H 0.02788 0.77411 0.15231 0.0
H868 H 0.04963 0.84527 0.0778 0.0
H869 H 0.03972 0.88954 0.11634 0.0
C870 C 0.01616 0.88265 0.1768 0.0
C871 C 0.0018 0.87547 0.20706 0.0
C872 C 0.02666 0.85748 0.15637 0.0
C873 C 0.00104 0.84294 0.2181 0.0
C874 C 0.01239 0.81774 0.19825 0.0
C875 C 0.03116 0.79933 0.14496 0.0
C876 C 0.03911 0.80673 0.11252 0.0
C877 C 0.02412 0.82464 0.16685 0.0
C878 C 0.04315 0.83932 0.10279 0.0
C879 C 0.03745 0.86455 0.12471 0.0
H880 H 0.45029 0.1378 0.72102 0.0
H881 H 0.53967 0.15387 0.66747 0.0
H882 H 0.50985 0.18273 0.62504 0.0
H883 H 0.45942 0.20353 0.60348 0.0
H884 H 0.36996 0.1945 0.6581 0.0
H885 H 0.39867 0.16211 0.69994 0.0
C886 C 0.46304 0.14772 0.70002 0.0
C887 C 0.49702 0.1438 0.69721 0.0
C888 C 0.44579 0.16505 0.67596 0.0
C889 C 0.51355 0.15691 0.67021 0.0
C890 C 0.49654 0.17317 0.64585 0.0
C891 C 0.44596 0.19407 0.62427 0.0
C892 C 0.41254 0.20053 0.62744 0.0
C893 C 0.46277 0.17725 0.64849 0.0
C894 C 0.39566 0.18922 0.65504 0.0
C895 C 0.4121 0.17095 0.67891 0.0
H896 H 0.99129 0.27759 0.39163 0.0
H897 H 0.89654 0.32138 0.37823 0.0
H898 H 0.92044 0.36269 0.34218 0.0
H899 H 0.96816 0.38573 0.3142 0.0
H900 H 0.06199 0.33921 0.3241 0.0
H901 H 0.03859 0.29946 0.36225 0.0
C902 C 0.97591 0.2963 0.38093 0.0
C903 C 0.94229 0.29674 0.38771 0.0
C904 C 0.98967 0.31939 0.35982 0.0
C905 C 0.92248 0.32063 0.37326 0.0
C906 C 0.93614 0.34425 0.3528 0.0
C907 C 0.98351 0.36708 0.32505 0.0
C908 C 0.01677 0.36551 0.31689 0.0
C909 C 0.96969 0.34384 0.34596 0.0
C910 C 0.03634 0.34085 0.33029 0.0
C911 C 0.02298 0.31818 0.35199 0.0
H912 H 0.10723 0.43467 0.00299 0.0
H913 H 0.20174 0.4091 0.04151 0.0
H914 H 0.17842 0.40515 0.09664 0.0
H915 H 0.13087 0.41058 0.13401 0.0
H916 H 0.03784 0.43953 0.09365 0.0
H917 H 0.06107 0.44067 0.03925 0.0
C918 C 0.12279 0.42782 0.02331 0.0
C919 C 0.15611 0.42188 0.01808 0.0
C920 C 0.10951 0.42655 0.05476 0.0
C921 C 0.17595 0.41368 0.04488 0.0
C922 C 0.16264 0.41151 0.07639 0.0
C923 C 0.11578 0.41716 0.11328 0.0
C924 C 0.08269 0.42513 0.11809 0.0
C925 C 0.12943 0.41821 0.08168 0.0
C926 C 0.06346 0.43366 0.09092 0.0
C927 C 0.07664 0.43415 0.05964 0.0
H928 H 0.27714 0.64615 0.53777 0.0
H929 H 0.23495 0.54997 0.54351 0.0
H930 H 0.25228 0.54519 0.60025 0.0
H931 H 0.29247 0.56207 0.64144 0.0
H932 H 0.33677 0.65735 0.6344 0.0
H933 H 0.30496 0.66905 0.5856 0.0
C934 C 0.27054 0.62474 0.55192 0.0
C935 C 0.25574 0.59808 0.53627 0.0
C936 C 0.2817 0.62165 0.58415 0.0
C937 C 0.24665 0.57073 0.55491 0.0
C938 C 0.25699 0.56778 0.58729 0.0
C939 C 0.29436 0.5858 0.62984 0.0
C940 C 0.31787 0.60827 0.64078 0.0
C941 C 0.27663 0.59208 0.60121 0.0
C942 C 0.31935 0.63929 0.62613 0.0
C943 C 0.3013 0.64597 0.59801 0.0
H944 H 0.65377 0.13846 0.85234 0.0
H945 H 0.67959 0.04467 0.81288 0.0
H946 H 0.71853 0.03607 0.85727 0.0
H947 H 0.73298 0.04873 0.91404 0.0
H948 H 0.69979 0.13863 0.95709 0.0
H949 H 0.67677 0.15582 0.90478 0.0
C950 C 0.66922 0.11696 0.85267 0.0
C951 C 0.6641 0.09226 0.82954 0.0
C952 C 0.68969 0.11122 0.87956 0.0
C953 C 0.68347 0.06404 0.83044 0.0
C954 C 0.70539 0.05897 0.85605 0.0
C955 C 0.72202 0.07269 0.91145 0.0
C956 C 0.71782 0.09236 0.93918 0.0
C957 C 0.707 0.0814 0.88186 0.0
C958 C 0.70313 0.12313 0.93591 0.0
C959 C 0.68974 0.13282 0.9061 0.0
H960 H 0.80463 0.93615 0.45559 0.0
H961 H 0.87937 0.9867 0.51016 0.0
H962 H 0.91153 0.99317 0.4607 0.0
H963 H 0.91906 0.98405 0.40247 0.0
H964 H 0.84636 0.93133 0.34761 0.0
H965 H 0.81247 0.92669 0.39671 0.0
C966 C 0.828 0.94847 0.45673 0.0
C967 C 0.83948 0.96084 0.48668 0.0
C968 C 0.84657 0.95209 0.42811 0.0
C969 C 0.86988 0.97674 0.48758 0.0
C970 C 0.88829 0.98065 0.45925 0.0
C971 C 0.89556 0.97199 0.40105 0.0
C972 C 0.88507 0.95834 0.37139 0.0
C973 C 0.87683 0.96853 0.42943 0.0
C974 C 0.85487 0.94218 0.37017 0.0
C975 C 0.8356 0.93938 0.39824 0.0
H976 H 0.13205 0.13187 0.42195 0.0
H977 H 0.08607 0.04188 0.39227 0.0
H978 H 0.03285 0.06802 0.39375 0.0
H979 H -0.00087 0.1145 0.40753 0.0
H980 H 0.04352 0.20408 0.4407 0.0
H981 H 0.09767 0.18018 0.43307 0.0
C982 C 0.11038 0.11814 0.41556 0.0
C983 C 0.11295 0.0849 0.40745 0.0
C984 C 0.0796 0.13318 0.41704 0.0
C985 C 0.08469 0.06736 0.39916 0.0
C986 C 0.05424 0.0823 0.39984 0.0
C987 C 0.02055 0.12911 0.41277 0.0
C988 C 0.01715 0.16096 0.42501 0.0
C989 C 0.05138 0.11495 0.40937 0.0
C990 C 0.04536 0.17942 0.43142 0.0
C991 C 0.07634 0.16572 0.42722 0.0
H992 H 0.34887 0.83579 0.87813 0.0
H993 H 0.32542 0.82313 0.98002 0.0
H994 H 0.36518 0.77908 0.98436 0.0
H995 H 0.41614 0.75656 0.96339 0.0
H996 H 0.44435 0.77427 0.86372 0.0
H997 H 0.39292 0.8029 0.85364 0.0
C998 C 0.35155 0.82234 0.90081 0.0
C999 C 0.33484 0.83281 0.92886 0.0
C1000 C 0.37574 0.79821 0.90352 0.0
C1001 C 0.33847 0.81555 0.95828 0.0
C1002 C 0.36128 0.79051 0.96079 0.0
C1003 C 0.41004 0.76514 0.93903 0.0
C1004 C 0.43358 0.76349 0.9143 0.0
C1005 C 0.38154 0.7833 0.9342 0.0
C1006 C 0.42616 0.77505 0.88292 0.0
C1007 C 0.39703 0.79192 0.87738 0.0
H1008 H 0.53843 0.26306 0.53854 0.0
H1009 H 0.51582 0.28221 0.63943 0.0
H1010 H 0.57278 0.29615 0.65012 0.0
H1011 H 0.62401 0.31658 0.62741 0.0
H1012 H 0.64438 0.30421 0.52474 0.0
H1013 H 0.594 0.27319 0.51817 0.0
C1014 C 0.54646 0.26871 0.56315 0.0
C1015 C 0.52325 0.27163 0.58821 0.0
C1016 C 0.57879 0.27875 0.56854 0.0
C1017 C 0.5335 0.27967 0.6199 0.0
C1018 C 0.56596 0.28802 0.62588 0.0
C1019 C 0.61813 0.30601 0.60385 0.0
C1020 C 0.63756 0.31336 0.57645 0.0
C1021 C 0.58824 0.28976 0.5999 0.0
C1022 C 0.62956 0.29936 0.54613 0.0
C1023 C 0.60061 0.28179 0.54231 0.0
H1024 H 0.81157 0.66833 0.05424 0.0
H1025 H 0.84935 0.65085 0.1507 0.0
H1026 H 0.89164 0.692 0.14206 0.0
H1027 H 0.92635 0.71927 0.10124 0.0
H1028 H 0.89132 0.73188 0.00296 0.0
H1029 H 0.83908 0.70729 0.01796 0.0
C1030 C 0.8279 0.67507 0.07397 0.0
C1031 C 0.82752 0.65686 0.10303 0.0
C1032 C 0.85318 0.69738 0.06802 0.0
C1033 C 0.84906 0.66501 0.12833 0.0
C1034 C 0.87359 0.68812 0.12312 0.0
C1035 C 0.90651 0.71823 0.08373 0.0
C1036 C 0.91231 0.72735 0.05117 0.0
C1037 C 0.87724 0.70258 0.09223 0.0
C1038 C 0.88701 0.72531 0.02825 0.0
C1039 C 0.85735 0.71085 0.03676 0.0
H1040 H 0.44447 0.0506 0.2007 0.0
H1041 H 0.37791 0.01061 0.12945 0.0
H1042 H 0.36751 0.06518 0.10805 0.0
H1043 H 0.38456 0.12233 0.10353 0.0
H1044 H 0.4554 0.16109 0.17059 0.0
H1045 H 0.45628 0.1092 0.20046 0.0
C1046 C 0.42719 0.05383 0.18092 0.0
C1047 C 0.41247 0.02645 0.1663 0.0
C1048 C 0.42206 0.08516 0.16809 0.0
C1049 C 0.39001 0.03118 0.14079 0.0
C1050 C 0.38399 0.06239 0.12856 0.0
C1051 C 0.39906 0.11968 0.12557 0.0
C1052 C 0.41941 0.14532 0.13546 0.0
C1053 C 0.40083 0.08932 0.1412 0.0
C1054 C 0.43906 0.14169 0.16321 0.0
C1055 C 0.43988 0.11193 0.17989 0.0
H1056 H 0.01415 0.4452 0.80359 0.0
H1057 H 0.91404 0.43807 0.77214 0.0
H1058 H 0.90837 0.38609 0.80123 0.0
H1059 H 0.92975 0.34732 0.84195 0.0
H1060 H 0.0297 0.35597 0.87415 0.0
H1061 H 0.03769 0.40246 0.83791 0.0
C1062 C 0.99119 0.43204 0.80279 0.0
C1063 C 0.96433 0.44564 0.78641 0.0
C1064 C 0.98805 0.40259 0.81984 0.0
C1065 C 0.93498 0.42808 0.78481 0.0
C1066 C 0.93171 0.39849 0.80157 0.0
C1067 C 0.95349 0.35889 0.84051 0.0
C1068 C 0.97887 0.34857 0.86127 0.0
C1069 C 0.95776 0.38614 0.82011 0.0
C1070 C 0.00955 0.36375 0.8589 0.0
C1071 C 0.01415 0.39041 0.83824 0.0
H1072 H 0.54899 0.559 0.24937 0.0
H1073 H 0.65175 0.54387 0.26479 0.0
H1074 H 0.6572 0.59939 0.28576 0.0
H1075 H 0.62969 0.64293 0.31559 0.0
H1076 H 0.52494 0.65151 0.31083 0.0
H1077 H 0.52299 0.60843 0.26971 0.0
C1078 C 0.57286 0.56858 0.25566 0.0
C1079 C 0.59988 0.54756 0.25603 0.0
C1080 C 0.575 0.59904 0.27092 0.0
C1081 C 0.63068 0.55982 0.26445 0.0
C1082 C 0.63361 0.59133 0.27698 0.0
C1083 C 0.60656 0.63621 0.30464 0.0
C1084 C 0.57741 0.64967 0.31673 0.0
C1085 C 0.60546 0.60989 0.28291 0.0
C1086 C 0.54761 0.64092 0.30231 0.0
C1087 C 0.54651 0.61625 0.27888 0.0
H1088 H 0.0984 0.91727 0.7462 0.0
H1089 H 0.00502 0.86976 0.74036 0.0
H1090 H 0.0302 0.82219 0.71483 0.0
H1091 H 0.07427 0.80376 0.67893 0.0
H1092 H 0.16453 0.85712 0.67578 0.0
H1093 H 0.14613 0.89191 0.7206 0.0
C1094 C 0.08403 0.89564 0.74103 0.0
C1095 C 0.05003 0.8968 0.74503 0.0
C1096 C 0.0983 0.86966 0.72384 0.0
C1097 C 0.0313 0.86914 0.73764 0.0
C1098 C 0.04567 0.84217 0.72257 0.0
C1099 C 0.09055 0.82176 0.68951 0.0
C1100 C 0.12064 0.82798 0.67436 0.0
C1101 C 0.07858 0.84338 0.71325 0.0
C1102 C 0.1414 0.85181 0.68745 0.0
C1103 C 0.13059 0.87205 0.71268 0.0
H1104 H 0.86232 0.58131 0.85263 0.0
H1105 H 0.95386 0.5477 0.89267 0.0
H1106 H 0.93048 0.5472 0.94718 0.0
H1107 H 0.88412 0.55451 0.98345 0.0
H1108 H 0.79107 0.58418 0.94437 0.0
H1109 H 0.8151 0.58853 0.88965 0.0
C1110 C 0.8771 0.57386 0.87329 0.0
C1111 C 0.90976 0.56438 0.8684 0.0
C1112 C 0.86336 0.57319 0.90481 0.0
C1113 C 0.92856 0.55474 0.89551 0.0
C1114 C 0.9153 0.55464 0.92682 0.0
C1115 C 0.86917 0.56249 0.96309 0.0
C1116 C 0.83598 0.56937 0.96799 0.0
C1117 C 0.88277 0.56371 0.93173 0.0
C1118 C 0.81677 0.57892 0.9412 0.0
C1119 C 0.83045 0.58125 0.90992 0.0
H1120 H 0.68166 0.4624 0.35912 0.0
H1121 H 0.65997 0.35987 0.34849 0.0
H1122 H 0.68926 0.3479 0.3986 0.0
H1123 H 0.70752 0.36864 0.45198 0.0
H1124 H 0.73081 0.4705 0.46239 0.0
H1125 H 0.71517 0.48053 0.4057 0.0
C1126 C 0.68437 0.43731 0.36712 0.0
C1127 C 0.66752 0.41233 0.35073 0.0
C1128 C 0.70116 0.43047 0.39626 0.0
C1129 C 0.67205 0.37981 0.36092 0.0
C1130 C 0.68866 0.37285 0.38982 0.0
C1131 C 0.71074 0.39263 0.44121 0.0
C1132 C 0.71991 0.41884 0.46114 0.0
C1133 C 0.70133 0.39826 0.40874 0.0
C1134 C 0.72398 0.44993 0.44726 0.0
C1135 C 0.71456 0.45576 0.41498 0.0
H1136 H 0.26367 0.9463 0.08304 0.0
H1137 H 0.28709 0.85581 0.03517 0.0
H1138 H 0.30726 0.83314 0.08643 0.0
H1139 H 0.3337 0.84608 0.13836 0.0
H1140 H 0.31619 0.9388 0.18407 0.0
H1141 H 0.27721 0.95322 0.14135 0.0
C1142 C 0.27159 0.92108 0.08441 0.0
C1143 C 0.27432 0.90275 0.05563 0.0
C1144 C 0.28478 0.90885 0.11368 0.0
C1145 C 0.28497 0.87025 0.05724 0.0
C1146 C 0.29677 0.85741 0.08647 0.0
C1147 C 0.31968 0.86848 0.13998 0.0
C1148 C 0.32776 0.89146 0.16395 0.0
C1149 C 0.29909 0.87739 0.11411 0.0
C1150 C 0.31003 0.92069 0.16582 0.0
C1151 C 0.28825 0.9292 0.14098 0.0
H1152 H 0.13539 0.97108 0.51648 0.0
H1153 H 0.20142 0.04473 0.55263 0.0
H1154 H 0.17482 0.043 0.60589 0.0
H1155 H 0.13062 0.02376 0.64066 0.0
H1156 H 0.06395 0.95042 0.6051 0.0
H1157 H 0.09378 0.94806 0.55341 0.0
C1158 C 0.14389 0.98677 0.53604 0.0
C1159 C 0.16995 0.00841 0.53051 0.0
C1160 C 0.12866 0.98547 0.56672 0.0
C1161 C 0.18126 0.02803 0.55623 0.0
C1162 C 0.16611 0.02703 0.58669 0.0
C1163 C 0.12278 0.00694 0.62178 0.0
C1164 C 0.09479 0.9877 0.62655 0.0
C1165 C 0.13951 0.00624 0.59201 0.0
C1166 C 0.08536 0.96559 0.60205 0.0
C1167 C 0.10221 0.96446 0.57236 0.0
H1168 H 0.96356 0.81499 0.5848 0.0
H1169 H 0.01659 0.90258 0.60965 0.0
H1170 H 0.96567 0.92968 0.62401 0.0
H1171 H 0.90591 0.93033 0.62433 0.0
H1172 H 0.85262 0.84302 0.5995 0.0
H1173 H 0.90392 0.81392 0.59074 0.0
C1174 C 0.96406 0.83992 0.59363 0.0
C1175 C 0.99392 0.85683 0.59556 0.0
C1176 C 0.93463 0.85549 0.60171 0.0
C1177 C 0.99404 0.88897 0.60762 0.0
C1178 C 0.96488 0.90457 0.61577 0.0
C1179 C 0.90547 0.90483 0.61731 0.0
C1180 C 0.87544 0.88901 0.61212 0.0
C1181 C 0.93501 0.88835 0.61208 0.0
C1182 C 0.87536 0.85581 0.6036 0.0
C1183 C 0.9047 0.8392 0.5984 0.0
H1184 H 0.66478 0.17094 0.04529 0.0
H1185 H 0.64821 0.12266 0.13736 0.0
H1186 H 0.60169 0.15827 0.14832 0.0
H1187 H 0.55923 0.19423 0.12548 0.0
H1188 H 0.57729 0.24429 0.03452 0.0
H1189 H 0.63022 0.21771 0.02976 0.0
C1190 C 0.65168 0.16919 0.06827 0.0
C1191 C 0.65937 0.14414 0.0903 0.0
C1192 C 0.62504 0.18977 0.0744 0.0
C1193 C 0.64258 0.14195 0.12012 0.0
C1194 C 0.61581 0.16207 0.12625 0.0
C1195 C 0.57538 0.20025 0.10534 0.0
C1196 C 0.56415 0.22046 0.08002 0.0
C1197 C 0.6058 0.18481 0.1027 0.0
C1198 C 0.58533 0.22857 0.05423 0.0
C1199 C 0.6155 0.21311 0.05129 0.0
H1200 H 0.45148 0.72291 0.37022 0.0
H1201 H 0.46012 0.73578 0.47432 0.0
H1202 H 0.40381 0.71809 0.48184 0.0
H1203 H 0.35782 0.68632 0.45966 0.0
H1204 H 0.34877 0.67523 0.35518 0.0
H1205 H 0.39888 0.70575 0.34695 0.0
C1206 C 0.44046 0.72324 0.39433 0.0
C1207 C 0.45986 0.73008 0.42167 0.0
C1208 C 0.40816 0.71276 0.39851 0.0
C1209 C 0.44551 0.73066 0.45287 0.0
C1210 C 0.41343 0.72011 0.45725 0.0
C1211 C 0.36622 0.6916 0.43508 0.0
C1212 C 0.35016 0.6776 0.40821 0.0
C1213 C 0.39529 0.70914 0.43041 0.0
C1214 C 0.36087 0.68528 0.37642 0.0
C1215 C 0.38976 0.70256 0.37161 0.0
H1216 H 0.10408 0.25999 0.96692 0.0
H1217 H 0.04723 0.25628 0.87866 0.0
H1218 H 0.09148 0.28204 0.84814 0.0
H1219 H 0.13769 0.3203 0.85197 0.0
H1220 H 0.19396 0.3245 0.94055 0.0
H1221 H 0.15968 0.28259 0.9653 0.0
C1222 C 0.1023 0.26317 0.94066 0.0
C1223 C 0.07267 0.25682 0.92496 0.0
C1224 C 0.12763 0.27848 0.92347 0.0
C1225 C 0.07011 0.26104 0.89103 0.0
C1226 C 0.09524 0.27612 0.87368 0.0
C1227 C 0.14362 0.3104 0.87584 0.0
C1228 C 0.16776 0.32548 0.89472 0.0
C1229 C 0.12303 0.28712 0.89026 0.0
C1230 C 0.17533 0.31298 0.92573 0.0
C1231 C 0.1554 0.28944 0.94007 0.0
H1232 H 0.5966 0.86677 0.85133 0.0
H1233 H 0.49174 0.8593 0.85685 0.0
H1234 H 0.48616 0.90785 0.82264 0.0
H1235 H 0.51108 0.95686 0.79879 0.0
H1236 H 0.6155 0.96761 0.79915 0.0
H1237 H 0.62156 0.91296 0.82277 0.0
C1238 C 0.57254 0.87533 0.84442 0.0
C1239 C 0.54462 0.85974 0.85685 0.0
C1240 C 0.56955 0.9039 0.82585 0.0
C1241 C 0.51358 0.87119 0.84788 0.0
C1242 C 0.51038 0.8989 0.82834 0.0
C1243 C 0.53511 0.94657 0.80303 0.0
C1244 C 0.56287 0.96553 0.79696 0.0
C1245 C 0.53817 0.91609 0.81822 0.0
C1246 C 0.59396 0.95286 0.8033 0.0
C1247 C 0.59734 0.92188 0.81705 0.0
H1248 H 0.06923 0.63953 0.13793 0.0
H1249 H 0.96719 0.63552 0.11216 0.0
H1250 H 0.9589 0.59062 0.15024 0.0
H1251 H 0.98195 0.54773 0.1844 0.0
H1252 H 0.08399 0.54943 0.20952 0.0
H1253 H 0.09093 0.60039 0.17867 0.0
C1254 C 0.04505 0.62933 0.14127 0.0
C1255 C 0.01898 0.64048 0.12182 0.0
C1256 C 0.04055 0.60289 0.16278 0.0
C1257 C 0.98777 0.62703 0.12643 0.0
C1258 C 0.98299 0.60132 0.14817 0.0
C1259 C 0.00563 0.55955 0.18352 0.0
C1260 C 0.03256 0.54471 0.19862 0.0
C1261 C 0.00944 0.58826 0.1654 0.0
C1262 C 0.06294 0.56046 0.19795 0.0
C1263 C 0.06692 0.58943 0.18013 0.0
H1264 H 0.41548 0.44262 0.73717 0.0
H1265 H 0.32054 0.46544 0.69841 0.0
H1266 H 0.31444 0.40927 0.67935 0.0
H1267 H 0.34291 0.36105 0.6595 0.0
H1268 H 0.44283 0.34382 0.68768 0.0
H1269 H 0.44036 0.38991 0.72544 0.0
C1270 C 0.39278 0.43475 0.72606 0.0
C1271 C 0.36853 0.45791 0.71892 0.0
C1272 C 0.39103 0.40359 0.71224 0.0
C1273 C 0.33941 0.44783 0.70411 0.0
C1274 C 0.33622 0.41589 0.69277 0.0
C1275 C 0.36378 0.36661 0.6748 0.0
C1276 C 0.39324 0.34955 0.67042 0.0
C1277 C 0.36293 0.39452 0.69443 0.0
C1278 C 0.42007 0.35699 0.69034 0.0
C1279 C 0.41867 0.3834 0.7118 0.0
H1280 H 0.95666 0.10197 0.26489 0.0
H1281 H 0.87317 0.0388 0.27193 0.0
H1282 H 0.84329 0.08057 0.3021 0.0
H1283 H 0.84825 0.1273 0.33971 0.0
H1284 H 0.93195 0.19028 0.33303 0.0
H1285 H 0.95423 0.15707 0.28881 0.0
C1286 C 0.93124 0.09828 0.27129 0.0
C1287 C 0.91705 0.06754 0.26648 0.0
C1288 C 0.91461 0.12213 0.28943 0.0
C1289 C 0.88433 0.06254 0.27522 0.0
C1290 C 0.86746 0.08622 0.29296 0.0
C1291 C 0.8704 0.13468 0.32721 0.0
C1292 C 0.88861 0.16089 0.33945 0.0
C1293 C 0.8833 0.11506 0.30223 0.0
C1294 C 0.91751 0.17024 0.32363 0.0
C1295 C 0.93045 0.151 0.29866 0.0
H1296 H 0.03773 0.31046 0.16464 0.0
H1297 H 0.94135 0.35279 0.16543 0.0
H1298 H 0.92657 0.32094 0.11742 0.0
H1299 H 0.94577 0.29285 0.06831 0.0
H1300 H 0.04289 0.25305 0.06512 0.0
H1301 H 0.05276 0.27179 0.12119 0.0
C1302 C 0.01305 0.31163 0.15518 0.0
C1303 C 0.99089 0.33454 0.16801 0.0
C1304 C 0.00523 0.29438 0.12663 0.0
C1305 C 0.95897 0.3357 0.1556 0.0
C1306 C 0.95061 0.31773 0.12797 0.0
C1307 C 0.96868 0.28739 0.08043 0.0
C1308 C 0.99381 0.27222 0.06286 0.0
C1309 C 0.97427 0.29885 0.1121 0.0
C1310 C 0.02333 0.26484 0.07844 0.0
C1311 C 0.02899 0.27576 0.11033 0.0
H1312 H 0.51619 0.63263 0.50776 0.0
H1313 H 0.53306 0.72645 0.55239 0.0
H1314 H 0.50356 0.70851 0.60142 0.0
H1315 H 0.46944 0.66698 0.62977 0.0
H1316 H 0.45164 0.57476 0.58175 0.0
H1317 H 0.48464 0.59167 0.53574 0.0
C1318 C 0.51364 0.64929 0.52819 0.0
C1319 C 0.52656 0.68098 0.5262 0.0
C1320 C 0.49601 0.63924 0.55559 0.0
C1321 C 0.52337 0.7019 0.55323 0.0
C1322 C 0.50628 0.69172 0.58116 0.0
C1323 C 0.47286 0.65063 0.60924 0.0
C1324 C 0.45762 0.6198 0.60918 0.0
C1325 C 0.49187 0.66062 0.58233 0.0
C1326 C 0.46251 0.59884 0.58241 0.0
C1327 C 0.48159 0.60836 0.55604 0.0
H1328 H 0.47971 0.23494 0.925 0.0
H1329 H 0.56176 0.20829 0.98517 0.0
H1330 H 0.59067 0.18733 0.93766 0.0
H1331 H 0.58762 0.1664 0.88211 0.0
H1332 H 0.50504 0.1895 0.82147 0.0
H1333 H 0.48144 0.22252 0.86557 0.0
C1334 C 0.50436 0.22562 0.92728 0.0
C1335 C 0.51864 0.22282 0.95832 0.0
C1336 C 0.52042 0.21246 0.89988 0.0
C1337 C 0.55042 0.21046 0.96136 0.0
C1338 C 0.56685 0.19831 0.93429 0.0
C1339 C 0.56495 0.17957 0.87831 0.0
C1340 C 0.54779 0.17544 0.84907 0.0
C1341 C 0.55137 0.19761 0.90387 0.0
C1342 C 0.51859 0.19256 0.84397 0.0
C1343 C 0.50499 0.21112 0.86927 0.0
H1344 H 0.04797 0.82051 0.44229 0.0
H1345 H 0.08521 0.91033 0.48292 0.0
H1346 H 0.06813 0.93976 0.43397 0.0
H1347 H 0.03637 0.94105 0.38339 0.0
H1348 H -0.00316 0.85147 0.34435 0.0
H1349 H 0.02153 0.82085 0.38898 0.0
C1350 C 0.0527 0.84648 0.4404 0.0
C1351 C 0.06721 0.86329 0.46657 0.0
C1352 C 0.0422 0.86334 0.41261 0.0
C1353 C 0.07373 0.89681 0.46332 0.0
C1354 C 0.06388 0.9137 0.43538 0.0
C1355 C 0.03351 0.91476 0.38429 0.0
C1356 C 0.01419 0.8987 0.36088 0.0
C1357 C 0.0471 0.89738 0.41042 0.0
C1358 C 0.01116 0.86456 0.36228 0.0
C1359 C 0.02522 0.84701 0.38784 0.0
H1360 H 0.16181 0.05422 0.30475 0.0
H1361 H 0.17615 0.95104 0.31994 0.0
H1362 H 0.12998 0.93914 0.28429 0.0
H1363 H 0.07724 0.95863 0.26384 0.0
H1364 H 0.05865 0.06171 0.25712 0.0
H1365 H 0.11475 0.07341 0.27391 0.0
C1366 C 0.15574 0.02908 0.29918 0.0
C1367 C 0.1717 0.00354 0.31571 0.0
C1368 C 0.12775 0.02258 0.28073 0.0
C1369 C 0.16378 0.97111 0.30796 0.0
C1370 C 0.13717 0.96433 0.28785 0.0
C1371 C 0.08617 0.98355 0.2646 0.0
C1372 C 0.06439 0.00937 0.25933 0.0
C1373 C 0.11759 0.98991 0.27632 0.0
C1374 C 0.07543 0.04164 0.26086 0.0
C1375 C 0.10732 0.04823 0.27079 0.0
H1376 H 0.43705 0.02138 0.79115 0.0
H1377 H 0.46896 0.06844 0.88004 0.0
H1378 H 0.42592 0.04095 0.91042 0.0
H1379 H 0.38291 1e-05 0.91279 0.0
H1380 H 0.35058 0.95248 0.82456 0.0
H1381 H 0.39041 0.98386 0.79274 0.0
C1382 C 0.43425 0.02621 0.81704 0.0
C1383 C 0.45657 0.04666 0.83332 0.0
C1384 C 0.40981 0.00986 0.83455 0.0
C1385 C 0.45236 0.05267 0.86687 0.0
C1386 C 0.42784 0.03683 0.88434 0.0
C1387 C 0.3846 -0.00357 0.88658 0.0
C1388 C 0.36441 0.97347 0.87107 0.0
C1389 C 0.40717 0.01464 0.86861 0.0
C1390 C 0.36618 0.96977 0.83703 0.0
C1391 C 0.38886 0.98773 0.81889 0.0
H1392 H 0.56893 0.42877 0.59651 0.0
H1393 H 0.62309 0.4383 0.68649 0.0
H1394 H 0.57639 0.46542 0.71191 0.0
H1395 H 0.52157 0.48971 0.70716 0.0
H1396 H 0.46931 0.4815 0.61586 0.0
H1397 H 0.51418 0.45064 0.59243 0.0
C1398 C 0.57061 0.43644 0.62181 0.0
C1399 C 0.59964 0.43163 0.63946 0.0
C1400 C 0.54411 0.45259 0.63596 0.0
C1401 C 0.6011 0.44173 0.67225 0.0
C1402 C 0.57445 0.45737 0.68678 0.0
C1403 C 0.51992 0.481 0.68221 0.0
C1404 C 0.49218 0.48822 0.66326 0.0
C1405 C 0.54605 0.46348 0.66863 0.0
C1406 C 0.49046 0.47668 0.63095 0.0
C1407 C 0.51608 0.45891 0.6175 0.0
H1408 H 0.89769 0.43887 0.22999 0.0
H1409 H 0.94856 0.52621 0.2592 0.0
H1410 H 0.9045 0.55969 0.23778 0.0
H1411 H 0.85953 0.56371 0.19809 0.0
H1412 H 0.80909 0.47668 0.16809 0.0
H1413 H 0.8445 0.44343 0.20281 0.0
C1414 C 0.89844 0.46517 0.23282 0.0
C1415 C 0.92666 0.48006 0.24521 0.0
C1416 C 0.87335 0.48435 0.21972 0.0
C1417 C 0.92722 0.51411 0.24941 0.0
C1418 C 0.90217 0.53337 0.23681 0.0
C1419 C 0.8555 0.53765 0.20046 0.0
C1420 C 0.8322 0.52238 0.18074 0.0
C1421 C 0.87629 0.51876 0.21998 0.0
C1422 C 0.82699 0.48869 0.18341 0.0
C1423 C 0.84738 0.46971 0.20297 0.0
H1424 H 0.34239 0.14687 0.03191 0.0
H1425 H 0.42649 0.12496 0.97215 0.0
H1426 H 0.40127 0.07406 0.95485 0.0
H1427 H 0.35831 0.03341 0.96103 0.0
H1428 H 0.27411 0.05429 0.02069 0.0
H1429 H 0.29652 0.10819 0.03374 0.0
C1430 C 0.35492 0.13136 0.0145 0.0
C1431 C 0.38647 0.1396 0.00362 0.0
C1432 C 0.34058 0.10172 0.00515 0.0
C1433 C 0.40233 0.11911 0.98113 0.0
C1434 C 0.38801 0.0899 0.97133 0.0
C1435 C 0.34482 0.04976 0.9769 0.0
C1436 C 0.31497 0.03973 0.99048 0.0
C1437 C 0.3577 0.08051 0.98405 0.0
C1438 C 0.29731 0.06144 0.01023 0.0
C1439 C 0.31011 0.09219 0.01766 0.0
H1440 H 0.9222 0.36826 0.01963 0.0
H1441 H 0.85233 0.34941 0.94319 0.0
H1442 H 0.81614 0.3913 0.96549 0.0
H1443 H 0.80701 0.43663 0.00369 0.0
H1444 H 0.87731 0.45486 0.08012 0.0
H1445 H 0.91034 0.40935 0.06115 0.0
C1446 C 0.89901 0.3733 0.0079 0.0
C1447 C 0.89017 0.35632 0.97951 0.0
C1448 C 0.87836 0.39717 0.02089 0.0
C1449 C 0.85973 0.36242 0.96498 0.0
C1450 C 0.83906 0.38634 0.9777 0.0
C1451 C 0.8292 0.43026 0.01661 0.0
C1452 C 0.8399 0.44949 0.04293 0.0
C1453 C 0.84844 0.40432 0.00527 0.0
C1454 C 0.8687 0.44077 0.05948 0.0
C1455 C 0.88771 0.41481 0.0486 0.0
H1456 H 0.58672 0.59657 0.47563 0.0
H1457 H 0.68105 0.62225 0.43626 0.0
H1458 H 0.70638 0.57888 0.46868 0.0
H1459 H 0.70113 0.53239 0.50652 0.0
H1460 H 0.60628 0.507 0.54478 0.0
H1461 H 0.58178 0.55218 0.51472 0.0
C1462 C 0.61283 0.59264 0.47385 0.0
C1463 C 0.6319 0.61235 0.45314 0.0
C1464 C 0.62715 0.56801 0.49264 0.0
C1465 C 0.66577 0.60726 0.45179 0.0
C1466 C 0.68027 0.58256 0.4704 0.0
C1467 C 0.6752 0.53715 0.50877 0.0
C1468 C 0.65553 0.51643 0.52788 0.0
C1469 C 0.66114 0.56272 0.49082 0.0
C1470 C 0.62191 0.52259 0.53019 0.0
C1471 C 0.60786 0.54828 0.5129 0.0
H1472 H 0.18751 0.81985 0.49258 0.0
H1473 H 0.22372 0.86221 0.58156 0.0
H1474 H 0.25827 0.89949 0.55021 0.0
H1475 H 0.26323 0.93011 0.49931 0.0
H1476 H 0.21819 0.89355 0.41151 0.0
H1477 H 0.20336 0.84324 0.43979 0.0
C1478 C 0.20438 0.83611 0.50491 0.0
C1479 C 0.20335 0.83856 0.53907 0.0
C1480 C 0.22205 0.85903 0.48667 0.0
C1481 C 0.22456 0.85992 0.5552 0.0
C1482 C 0.24391 0.8815 0.53723 0.0
C1483 C 0.25159 0.91047 0.48592 0.0
C1484 C 0.24095 0.91581 0.45368 0.0
C1485 C 0.24078 0.8829 0.50309 0.0
C1486 C 0.2261 0.89013 0.43654 0.0
C1487 C 0.21727 0.86154 0.45284 0.0
H1488 H 0.94881 0.6798 0.8187 0.0
H1489 H 0.04713 0.64253 0.81517 0.0
H1490 H 0.06153 0.6748 0.86303 0.0
H1491 H 0.04181 0.70048 0.91328 0.0
H1492 H 0.94261 0.73428 0.91951 0.0
H1493 H 0.93266 0.71669 0.8631 0.0
C1494 C 0.97377 0.67998 0.82748 0.0
C1495 C -0.00329 0.65828 0.8141 0.0
C1496 C 0.98132 0.69715 0.8561 0.0
C1497 C 0.029 0.65875 0.82553 0.0
C1498 C 0.03712 0.67688 0.8531 0.0
C1499 C 0.01841 0.70494 0.90171 0.0
C1500 C 0.99276 0.71801 0.92011 0.0
C1501 C 0.01282 0.69409 0.86986 0.0
C1502 C 0.96252 0.72406 0.90542 0.0
C1503 C 0.95686 0.71387 0.87335 0.0
H1504 H 0.51922 0.34408 0.36427 0.0
H1505 H 0.5372 0.43684 0.41101 0.0
H1506 H 0.50698 0.41921 0.45888 0.0
H1507 H 0.47675 0.37725 0.48835 0.0
H1508 H 0.45884 0.28418 0.44238 0.0
H1509 H 0.48741 0.30239 0.39341 0.0
C1510 C 0.5166 0.3604 0.38494 0.0
C1511 C 0.53066 0.39165 0.38395 0.0
C1512 C 0.49904 0.35019 0.41259 0.0
C1513 C 0.52674 0.41259 0.41095 0.0
C1514 C 0.50939 0.40258 0.43844 0.0
C1515 C 0.47877 0.36101 0.46754 0.0
C1516 C 0.46572 0.32938 0.46919 0.0
C1517 C 0.49554 0.37143 0.43958 0.0
C1518 C 0.46873 0.30867 0.44192 0.0
C1519 C 0.48515 0.319 0.41387 0.0
H1520 H 0.54089 0.7791 0.06567 0.0
H1521 H 0.45066 0.74584 0.02351 0.0
H1522 H 0.42096 0.76278 0.07254 0.0
H1523 H 0.41985 0.79823 0.12147 0.0
H1524 H 0.51034 0.83118 0.16326 0.0
H1525 H 0.54103 0.80243 0.12098 0.0
C1526 C 0.51494 0.77437 0.06792 0.0
C1527 C 0.49784 0.76151 0.04122 0.0
C1528 C 0.4981 0.78442 0.09602 0.0
C1529 C 0.46425 0.75551 0.04403 0.0
C1530 C 0.44724 0.76553 0.0719 0.0
C1531 C 0.44629 0.79762 0.12214 0.0
C1532 C 0.46298 0.81647 0.14533 0.0
C1533 C 0.46371 0.78155 0.0973 0.0
C1534 C 0.49719 0.81633 0.14578 0.0
C1535 C 0.51468 0.80028 0.12137 0.0
H1536 H 0.91927 0.10519 0.53852 0.0
H1537 H 0.96841 0.19324 0.56908 0.0
H1538 H 0.98797 0.16564 0.61808 0.0
H1539 H -0.00345 0.11498 0.64849 0.0
H1540 H 0.94871 0.02655 0.61679 0.0
H1541 H 0.923 0.05611 0.5721 0.0
C1542 C 0.93399 0.1185 0.55603 0.0
C1543 C 0.94293 0.15101 0.54978 0.0
C1544 C 0.94563 0.10239 0.58381 0.0
C1545 C 0.96143 0.16807 0.57309 0.0
C1546 C 0.97275 0.15229 0.60108 0.0
C1547 C 0.98023 0.10219 0.63205 0.0
C1548 C 0.97516 0.06846 0.63562 0.0
C1549 C 0.96588 0.11917 0.60609 0.0
C1550 C 0.95347 0.05243 0.61439 0.0
C1551 C 0.93875 0.06929 0.58876 0.0
H1552 H 0.82704 0.02715 0.68752 0.0
H1553 H 0.80092 0.93012 0.71914 0.0
H1554 H 0.84636 0.92948 0.75701 0.0
H1555 H 0.90285 0.94892 0.76525 0.0
H1556 H 0.9283 0.04617 0.73481 0.0
H1557 H 0.87361 0.05463 0.71317 0.0
C1558 C 0.83033 0.00647 0.70374 0.0
C1559 C 0.81211 0.97792 0.69882 0.0
C1560 C 0.85694 0.00598 0.72528 0.0
C1561 C 0.81564 0.95195 0.7212 0.0
C1562 C 0.84185 0.95138 0.74286 0.0
C1563 C 0.89567 0.97256 0.75572 0.0
C1564 C 0.91933 -0.00336 0.75085 0.0
C1565 C 0.86429 0.97704 0.74277 0.0
C1566 C 0.91015 0.02728 0.73851 0.0
C1567 C 0.87902 0.03199 0.72576 0.0
H1568 H 0.62265 0.98088 0.07741 0.0
H1569 H 0.65761 0.01955 0.16895 0.0
H1570 H 0.61246 0.99296 0.19775 0.0
H1571 H 0.55931 0.96587 0.19517 0.0
H1572 H 0.52354 0.92985 0.10261 0.0
H1573 H 0.57332 0.94813 0.07585 0.0
C1574 C 0.6206 0.98321 0.10374 0.0
C1575 C 0.64277 0.0027 0.12104 0.0
C1576 C 0.59444 0.96861 0.11979 0.0
C1577 C 0.64051 0.00486 0.15517 0.0
C1578 C 0.61468 0.98983 0.17155 0.0
C1579 C 0.56254 0.96156 0.16923 0.0
C1580 C 0.53739 0.9473 0.15075 0.0
C1581 C 0.59085 0.97275 0.15386 0.0
C1582 C 0.54224 0.94137 0.11729 0.0
C1583 C 0.57068 0.95179 0.10195 0.0
H1584 H 0.48855 0.50039 0.3575 0.0
H1585 H 0.45457 0.50703 0.25799 0.0
H1586 H 0.40275 0.53 0.27701 0.0
H1587 H 0.3672 0.54838 0.32242 0.0
H1588 H 0.40241 0.53912 0.42162 0.0
H1589 H 0.45337 0.51693 0.40203 0.0
C1590 C 0.46995 0.50707 0.33987 0.0
C1591 C 0.47552 0.50229 0.30641 0.0
C1592 C 0.44024 0.51967 0.35092 0.0
C1593 C 0.45088 0.51054 0.28396 0.0
C1594 C 0.42126 0.52366 0.29481 0.0
C1595 C 0.38596 0.5414 0.33971 0.0
C1596 C 0.38073 0.54562 0.37345 0.0
C1597 C 0.41562 0.5283 0.32832 0.0
C1598 C 0.40544 0.53627 0.39549 0.0
C1599 C 0.43482 0.52358 0.38437 0.0
H1600 H 0.16657 0.4936 0.79778 0.0
H1601 H 0.11636 0.4014 0.80025 0.0
H1602 H 0.07552 0.42195 0.76195 0.0
H1603 H 0.04784 0.46942 0.7392 0.0
H1604 H 0.09342 0.56398 0.74427 0.0
H1605 H 0.14287 0.53938 0.76686 0.0
C1606 C 0.14743 0.47776 0.78869 0.0
C1607 C 0.14429 0.44614 0.8014 0.0
C1608 C 0.12301 0.49043 0.76825 0.0
C1609 C 0.11912 0.42579 0.79038 0.0
C1610 C 0.0957 0.43762 0.76871 0.0
C1611 C 0.06917 0.4844 0.74383 0.0
C1612 C 0.06709 0.51841 0.74029 0.0
C1613 C 0.09643 0.47041 0.75899 0.0
C1614 C 0.09461 0.5377 0.74688 0.0
C1615 C 0.12269 0.52368 0.76015 0.0
H1616 H 0.6599 0.85068 0.94497 0.0
H1617 H 0.58387 0.86406 0.01675 0.0
H1618 H 0.61067 0.91304 0.03683 0.0
H1619 H 0.6517 0.95524 0.02986 0.0
H1620 H 0.7285 0.94338 0.95899 0.0
H1621 H 0.70545 0.89051 0.94252 0.0
C1622 C 0.64975 0.86389 0.96554 0.0
C1623 C 0.61979 0.85405 0.97914 0.0
C1624 C 0.66498 0.89258 0.97659 0.0
C1625 C 0.60673 0.87142 0.00568 0.0
C1626 C 0.62192 0.89949 0.01708 0.0
C1627 C 0.66343 0.94101 0.01085 0.0
C1628 C 0.69116 0.95329 0.99504 0.0
C1629 C 0.6503 0.91089 0.00191 0.0
C1630 C 0.70682 0.93437 0.97116 0.0
C1631 C 0.69367 0.90425 0.96181 0.0
H1632 H 0.18229 0.55092 0.97199 0.0
H1633 H 0.10716 0.52803 0.90164 0.0
H1634 H 0.07549 0.57486 0.91976 0.0
H1635 H 0.06634 0.61847 0.95936 0.0
H1636 H 0.14079 0.6412 0.0303 0.0
H1637 H 0.1756 0.59831 0.0079 0.0
C1638 C 0.15927 0.55645 0.96018 0.0
C1639 C 0.14693 0.53559 0.93586 0.0
C1640 C 0.14083 0.58312 0.97109 0.0
C1641 C 0.11712 0.54337 0.92072 0.0
C1642 C 0.09888 0.57011 0.93112 0.0
C1643 C 0.09025 0.61416 0.96984 0.0
C1644 C 0.10072 0.63256 -0.00318 0.0
C1645 C 0.11002 0.58946 0.95699 0.0
C1646 C 0.13206 0.6272 0.00965 0.0
C1647 C 0.15195 0.60265 -0.00309 0.0
H1648 H 0.31688 0.36598 0.50935 0.0
H1649 H 0.36882 0.41777 0.58486 0.0
H1650 H 0.34928 0.46965 0.56361 0.0
H1651 H 0.32178 0.5006 0.52106 0.0
H1652 H 0.26954 0.45035 0.44481 0.0
H1653 H 0.28473 0.39768 0.46878 0.0
C1654 C 0.32324 0.38863 0.52144 0.0
C1655 C 0.34446 0.38816 0.54839 0.0
C1656 C 0.31236 0.41866 0.50867 0.0
C1657 C 0.35277 0.41762 0.56382 0.0
C1658 C 0.34172 0.44731 0.55166 0.0
C1659 C 0.31369 0.47814 0.50966 0.0
C1660 C 0.29508 0.47934 0.48093 0.0
C1661 C 0.32234 0.44816 0.52358 0.0
C1662 C 0.28412 0.45003 0.46687 0.0
C1663 C 0.2928 0.41992 0.48055 0.0
H1664 H 0.78256 0.12567 0.44802 0.0
H1665 H 0.83487 0.17432 0.52498 0.0
H1666 H 0.81067 0.13805 0.56556 0.0
H1667 H 0.78644 0.08419 0.57613 0.0
H1668 H 0.73264 0.03637 0.49921 0.0
H1669 H 0.74452 0.08105 0.46217 0.0
C1670 C 0.78713 0.12937 0.47385 0.0
C1671 C 0.81041 0.15235 0.48365 0.0
C1672 C 0.77348 0.10803 0.49707 0.0
C1673 C 0.8167 0.15681 0.51709 0.0
C1674 C 0.80323 0.13579 0.54026 0.0
C1675 C 0.77626 0.08412 0.55167 0.0
C1676 C 0.75985 0.05631 0.54022 0.0
C1677 C 0.78333 0.10995 0.53018 0.0
C1678 C 0.74605 0.05706 0.50866 0.0
C1679 C 0.75302 0.08259 0.48719 0.0
loop_
_geom_bond_atom_site_label_1
_geom_bond_atom_site_label_2
_geom_bond_distance
_geom_bond_site_symmetry_2
_ccdc_geom_bond_type
Sc0 O3 2.025 . S
Sc0 O10 2.105 . S
Sc0 O13 2.105 . S
Sc0 O16 2.105 1_455 S
Sc0 O19 2.105 . S
Sc1 O3 2.025 . S
Sc1 O11 2.105 . S
Sc1 O15 2.105 . S
Sc1 O17 2.105 . S
Sc1 O21 2.105 . S
Sc2 O3 2.025 . S
Sc2 O12 2.105 . S
Sc2 O14 2.105 1_455 S
Sc2 O18 2.105 . S
Sc2 O20 2.105 . S
O3 Sc0 2.025 . S
O3 Sc1 2.025 . S
O3 Sc2 2.025 . S
C4 O10 1.268 . S
C4 O20 1.268 . S
C5 O11 1.268 . S
C5 O19 1.268 . S
C6 O12 1.268 . S
C6 O21 1.268 . S
C7 O13 1.268 . S
C7 O17 1.268 . S
C8 O14 1.268 . S
C8 O16 1.268 . S
C9 O15 1.268 . S
C9 O18 1.268 . S
O10 Sc0 2.105 . S
O10 C4 1.268 . S
O11 Sc1 2.105 . S
O11 C5 1.268 . S
O12 Sc2 2.105 . S
O12 C6 1.268 . S
O13 Sc0 2.105 . S
O13 C7 1.268 . S
O14 Sc2 2.105 1_655 S
O14 C8 1.268 . S
O15 Sc1 2.105 . S
O15 C9 1.268 . S
O16 Sc0 2.105 1_655 S
O16 C8 1.268 . S
O17 Sc1 2.105 . S
O17 C7 1.268 . S
O18 Sc2 2.105 . S
O18 C9 1.268 . S
O19 Sc0 2.105 . S
O19 C5 1.268 . S
O20 Sc2 2.105 . S
O20 C4 1.268 . S
O21 Sc1 2.105 . S
O21 C6 1.268 . S
Sc22 O25 2.025 . S
Sc22 O32 2.105 . S
Sc22 O35 2.105 . S
Sc22 O38 2.105 . S
Sc22 O41 2.105 . S
Sc23 O25 2.025 . S
Sc23 O33 2.105 . S
Sc23 O37 2.105 . S
Sc23 O39 2.105 . S
Sc23 O43 2.105 . S
Sc24 O25 2.025 . S
Sc24 O34 2.105 . S
Sc24 O36 2.105 . S
Sc24 O40 2.105 . S
Sc24 O42 2.105 . S
O25 Sc22 2.025 . S
O25 Sc23 2.025 . S
O25 Sc24 2.025 . S
C26 O32 1.268 . S
C26 O42 1.268 . S
C27 O33 1.268 . S
C27 O41 1.268 . S
C28 O34 1.268 . S
C28 O43 1.268 . S
C29 O35 1.268 . S
C29 O39 1.268 . S
C30 O36 1.268 . S
C30 O38 1.268 . S
C31 O37 1.268 . S
C31 O40 1.268 . S
O32 Sc22 2.105 . S
O32 C26 1.268 . S
O33 Sc23 2.105 . S
O33 C27 1.268 . S
O34 Sc24 2.105 . S
O34 C28 1.268 . S
O35 Sc22 2.105 . S
O35 C29 1.268 . S
O36 Sc24 2.105 . S
O36 C30 1.268 . S
O37 Sc23 2.105 . S
O37 C31 1.268 . S
O38 Sc22 2.105 . S
O38 C30 1.268 . S
O39 Sc23 2.105 . S
O39 C29 1.268 . S
O40 Sc24 2.105 . S
O40 C31 1.268 . S
O41 Sc22 2.105 . S
O41 C27 1.268 . S
O42 Sc24 2.105 . S
O42 C26 1.268 . S
O43 Sc23 2.105 . S
O43 C28 1.268 . S
Sc44 O47 2.025 . S
Sc44 O54 2.105 . S
Sc44 O57 2.105 . S
Sc44 O60 2.105 . S
Sc44 O63 2.105 . S
Sc45 O47 2.025 . S
Sc45 O55 2.105 . S
Sc45 O59 2.105 . S
Sc45 O61 2.105 . S
Sc45 O65 2.105 . S
Sc46 O47 2.025 . S
Sc46 O56 2.105 . S
Sc46 O58 2.105 . S
Sc46 O62 2.105 . S
Sc46 O64 2.105 . S
O47 Sc44 2.025 . S
O47 Sc45 2.025 . S
O47 Sc46 2.025 . S
C48 O54 1.268 . S
C48 O64 1.268 . S
C49 O55 1.268 . S
C49 O63 1.268 . S
C50 O56 1.268 . S
C50 O65 1.268 . S
C51 O57 1.268 . S
C51 O61 1.268 . S
C52 O58 1.268 1_565 S
C52 O60 1.268 1_565 S
C53 O59 1.268 . S
C53 O62 1.268 . S
O54 Sc44 2.105 . S
O54 C48 1.268 . S
O55 Sc45 2.105 . S
O55 C49 1.268 . S
O56 Sc46 2.105 . S
O56 C50 1.268 . S
O57 Sc44 2.105 . S
O57 C51 1.268 . S
O58 Sc46 2.105 . S
O58 C52 1.268 1_545 S
O59 Sc45 2.105 . S
O59 C53 1.268 . S
O60 Sc44 2.105 . S
O60 C52 1.268 1_545 S
O61 Sc45 2.105 . S
O61 C51 1.268 . S
O62 Sc46 2.105 . S
O62 C53 1.268 . S
O63 Sc44 2.105 . S
O63 C49 1.268 . S
O64 Sc46 2.105 . S
O64 C48 1.268 . S
O65 Sc45 2.105 . S
O65 C50 1.268 . S
Sc66 O69 2.025 . S
Sc66 O76 2.105 . S
Sc66 O79 2.105 . S
Sc66 O82 2.105 1_655 S
Sc66 O85 2.105 . S
Sc67 O69 2.025 . S
Sc67 O77 2.105 . S
Sc67 O81 2.105 . S
Sc67 O83 2.105 . S
Sc67 O87 2.105 . S
Sc68 O69 2.025 . S
Sc68 O78 2.105 . S
Sc68 O80 2.105 1_655 S
Sc68 O84 2.105 . S
Sc68 O86 2.105 . S
O69 Sc66 2.025 . S
O69 Sc67 2.025 . S
O69 Sc68 2.025 . S
C70 O76 1.268 1_545 S
C70 O86 1.268 1_545 S
C71 O77 1.268 . S
C71 O85 1.268 . S
C72 O78 1.268 . S
C72 O87 1.268 . S
C73 O79 1.268 . S
C73 O83 1.268 . S
C74 O80 1.268 . S
C74 O82 1.268 . S
C75 O81 1.268 . S
C75 O84 1.268 . S
O76 Sc66 2.105 . S
O76 C70 1.268 1_565 S
O77 Sc67 2.105 . S
O77 C71 1.268 . S
O78 Sc68 2.105 . S
O78 C72 1.268 . S
O79 Sc66 2.105 . S
O79 C73 1.268 . S
O80 Sc68 2.105 1_455 S
O80 C74 1.268 . S
O81 Sc67 2.105 . S
O81 C75 1.268 . S
O82 Sc66 2.105 1_455 S
O82 C74 1.268 . S
O83 Sc67 2.105 . S
O83 C73 1.268 . S
O84 Sc68 2.105 . S
O84 C75 1.268 . S
O85 Sc66 2.105 . S
O85 C71 1.268 . S
O86 Sc68 2.105 . S
O86 C70 1.268 1_565 S
O87 Sc67 2.105 . S
O87 C72 1.268 . S
Sc88 O91 2.025 . S
Sc88 O98 2.105 . S
Sc88 O101 2.105 . S
Sc88 O104 2.105 1_545 S
Sc88 O107 2.105 . S
Sc89 O91 2.025 . S
Sc89 O99 2.105 . S
Sc89 O103 2.105 . S
Sc89 O105 2.105 . S
Sc89 O109 2.105 . S
Sc90 O91 2.025 . S
Sc90 O100 2.105 . S
Sc90 O102 2.105 1_545 S
Sc90 O106 2.105 . S
Sc90 O108 2.105 . S
O91 Sc88 2.025 . S
O91 Sc89 2.025 . S
O91 Sc90 2.025 . S
C92 O98 1.268 . S
C92 O108 1.268 . S
C93 O99 1.268 . S
C93 O107 1.268 . S
C94 O100 1.268 . S
C94 O109 1.268 . S
C95 O101 1.268 . S
C95 O105 1.268 . S
C96 O102 1.268 . S
C96 O104 1.268 . S
C97 O103 1.268 . S
C97 O106 1.268 . S
O98 Sc88 2.105 . S
O98 C92 1.268 . S
O99 Sc89 2.105 . S
O99 C93 1.268 . S
O100 Sc90 2.105 . S
O100 C94 1.268 . S
O101 Sc88 2.105 . S
O101 C95 1.268 . S
O102 Sc90 2.105 1_565 S
O102 C96 1.268 . S
O103 Sc89 2.105 . S
O103 C97 1.268 . S
O104 Sc88 2.105 1_565 S
O104 C96 1.268 . S
O105 Sc89 2.105 . S
O105 C95 1.268 . S
O106 Sc90 2.105 . S
O106 C97 1.268 . S
O107 Sc88 2.105 . S
O107 C93 1.268 . S
O108 Sc90 2.105 . S
O108 C92 1.268 . S
O109 Sc89 2.105 . S
O109 C94 1.268 . S
Sc110 O113 2.025 . S
Sc110 O120 2.105 . S
Sc110 O123 2.105 . S
Sc110 O126 2.105 1_565 S
Sc110 O129 2.105 . S
Sc111 O113 2.025 . S
Sc111 O121 2.105 . S
Sc111 O125 2.105 . S
Sc111 O127 2.105 . S
Sc111 O131 2.105 . S
Sc112 O113 2.025 . S
Sc112 O122 2.105 . S
Sc112 O124 2.105 1_565 S
Sc112 O128 2.105 . S
Sc112 O130 2.105 . S
O113 Sc110 2.025 . S
O113 Sc111 2.025 . S
O113 Sc112 2.025 . S
C114 O120 1.268 1_554 S
C114 O130 1.268 1_554 S
C115 O121 1.268 . S
C115 O129 1.268 . S
C116 O122 1.268 . S
C116 O131 1.268 . S
C117 O123 1.268 . S
C117 O127 1.268 . S
C118 O124 1.268 . S
C118 O126 1.268 . S
C119 O125 1.268 . S
C119 O128 1.268 . S
O120 Sc110 2.105 . S
O120 C114 1.268 1_556 S
O121 Sc111 2.105 . S
O121 C115 1.268 . S
O122 Sc112 2.105 . S
O122 C116 1.268 . S
O123 Sc110 2.105 . S
O123 C117 1.268 . S
O124 Sc112 2.105 1_545 S
O124 C118 1.268 . S
O125 Sc111 2.105 . S
O125 C119 1.268 . S
O126 Sc110 2.105 1_545 S
O126 C118 1.268 . S
O127 Sc111 2.105 . S
O127 C117 1.268 . S
O128 Sc112 2.105 . S
O128 C119 1.268 . S
O129 Sc110 2.105 . S
O129 C115 1.268 . S
O130 Sc112 2.105 . S
O130 C114 1.268 1_556 S
O131 Sc111 2.105 . S
O131 C116 1.268 . S
Sc132 O135 2.025 . S
Sc132 O142 2.105 . S
Sc132 O145 2.105 . S
Sc132 O148 2.105 . S
Sc132 O151 2.105 . S
Sc133 O135 2.025 . S
Sc133 O143 2.105 . S
Sc133 O147 2.105 . S
Sc133 O149 2.105 . S
Sc133 O153 2.105 . S
Sc134 O135 2.025 . S
Sc134 O144 2.105 . S
Sc134 O146 2.105 . S
Sc134 O150 2.105 . S
Sc134 O152 2.105 . S
O135 Sc132 2.025 . S
O135 Sc133 2.025 . S
O135 Sc134 2.025 . S
C136 O142 1.268 . S
C136 O152 1.268 . S
C137 O143 1.268 . S
C137 O151 1.268 . S
C138 O144 1.268 . S
C138 O153 1.268 . S
C139 O145 1.268 . S
C139 O149 1.268 . S
C140 O146 1.268 . S
C140 O148 1.268 . S
C141 O147 1.268 . S
C141 O150 1.268 . S
O142 Sc132 2.105 . S
O142 C136 1.268 . S
O143 Sc133 2.105 . S
O143 C137 1.268 . S
O144 Sc134 2.105 . S
O144 C138 1.268 . S
O145 Sc132 2.105 . S
O145 C139 1.268 . S
O146 Sc134 2.105 . S
O146 C140 1.268 . S
O147 Sc133 2.105 . S
O147 C141 1.268 . S
O148 Sc132 2.105 . S
O148 C140 1.268 . S
O149 Sc133 2.105 . S
O149 C139 1.268 . S
O150 Sc134 2.105 . S
O150 C141 1.268 . S
O151 Sc132 2.105 . S
O151 C137 1.268 . S
O152 Sc134 2.105 . S
O152 C136 1.268 . S
O153 Sc133 2.105 . S
O153 C138 1.268 . S
Sc154 O157 2.025 . S
Sc154 O164 2.105 . S
Sc154 O167 2.105 . S
Sc154 O170 2.105 . S
Sc154 O173 2.105 . S
Sc155 O157 2.025 . S
Sc155 O165 2.105 . S
Sc155 O169 2.105 . S
Sc155 O171 2.105 . S
Sc155 O175 2.105 . S
Sc156 O157 2.025 . S
Sc156 O166 2.105 . S
Sc156 O168 2.105 . S
Sc156 O172 2.105 . S
Sc156 O174 2.105 . S
O157 Sc154 2.025 . S
O157 Sc155 2.025 . S
O157 Sc156 2.025 . S
C158 O164 1.268 . S
C158 O174 1.268 . S
C159 O165 1.268 . S
C159 O173 1.268 . S
C160 O166 1.268 . S
C160 O175 1.268 . S
C161 O167 1.268 . S
C161 O171 1.268 . S
C162 O168 1.268 1_556 S
C162 O170 1.268 1_556 S
C163 O169 1.268 . S
C163 O172 1.268 . S
O164 Sc154 2.105 . S
O164 C158 1.268 . S
O165 Sc155 2.105 . S
O165 C159 1.268 . S
O166 Sc156 2.105 . S
O166 C160 1.268 . S
O167 Sc154 2.105 . S
O167 C161 1.268 . S
O168 Sc156 2.105 . S
O168 C162 1.268 1_554 S
O169 Sc155 2.105 . S
O169 C163 1.268 . S
O170 Sc154 2.105 . S
O170 C162 1.268 1_554 S
O171 Sc155 2.105 . S
O171 C161 1.268 . S
O172 Sc156 2.105 . S
O172 C163 1.268 . S
O173 Sc154 2.105 . S
O173 C159 1.268 . S
O174 Sc156 2.105 . S
O174 C158 1.268 . S
O175 Sc155 2.105 . S
O175 C160 1.268 . S
Sc176 O179 2.025 . S
Sc176 O186 2.105 1_554 S
Sc176 O189 2.105 . S
Sc176 O192 2.105 . S
Sc176 O195 2.105 . S
Sc177 O179 2.025 . S
Sc177 O187 2.105 . S
Sc177 O191 2.105 . S
Sc177 O193 2.105 . S
Sc177 O197 2.105 . S
Sc178 O179 2.025 . S
Sc178 O188 2.105 . S
Sc178 O190 2.105 . S
Sc178 O194 2.105 . S
Sc178 O196 2.105 1_554 S
O179 Sc176 2.025 . S
O179 Sc177 2.025 . S
O179 Sc178 2.025 . S
C180 O186 1.268 . S
C180 O196 1.268 . S
C181 O187 1.268 . S
C181 O195 1.268 . S
C182 O188 1.268 . S
C182 O197 1.268 . S
C183 O189 1.268 . S
C183 O193 1.268 . S
C184 O190 1.268 . S
C184 O192 1.268 . S
C185 O191 1.268 . S
C185 O194 1.268 . S
O186 Sc176 2.105 1_556 S
O186 C180 1.268 . S
O187 Sc177 2.105 . S
O187 C181 1.268 . S
O188 Sc178 2.105 . S
O188 C182 1.268 . S
O189 Sc176 2.105 . S
O189 C183 1.268 . S
O190 Sc178 2.105 . S
O190 C184 1.268 . S
O191 Sc177 2.105 . S
O191 C185 1.268 . S
O192 Sc176 2.105 . S
O192 C184 1.268 . S
O193 Sc177 2.105 . S
O193 C183 1.268 . S
O194 Sc178 2.105 . S
O194 C185 1.268 . S
O195 Sc176 2.105 . S
O195 C181 1.268 . S
O196 Sc178 2.105 1_556 S
O196 C180 1.268 . S
O197 Sc177 2.105 . S
O197 C182 1.268 . S
Sc198 O201 2.025 . S
Sc198 O208 2.105 . S
Sc198 O211 2.105 . S
Sc198 O214 2.105 1_556 S
Sc198 O217 2.105 . S
Sc199 O201 2.025 . S
Sc199 O209 2.105 . S
Sc199 O213 2.105 . S
Sc199 O215 2.105 . S
Sc199 O219 2.105 . S
Sc200 O201 2.025 . S
Sc200 O210 2.105 . S
Sc200 O212 2.105 1_556 S
Sc200 O216 2.105 . S
Sc200 O218 2.105 . S
O201 Sc198 2.025 . S
O201 Sc199 2.025 . S
O201 Sc200 2.025 . S
C202 O208 1.268 1_455 S
C202 O218 1.268 1_455 S
C203 O209 1.268 . S
C203 O217 1.268 . S
C204 O210 1.268 . S
C204 O219 1.268 . S
C205 O211 1.268 . S
C205 O215 1.268 . S
C206 O212 1.268 . S
C206 O214 1.268 . S
C207 O213 1.268 . S
C207 O216 1.268 . S
O208 Sc198 2.105 . S
O208 C202 1.268 1_655 S
O209 Sc199 2.105 . S
O209 C203 1.268 . S
O210 Sc200 2.105 . S
O210 C204 1.268 . S
O211 Sc198 2.105 . S
O211 C205 1.268 . S
O212 Sc200 2.105 1_554 S
O212 C206 1.268 . S
O213 Sc199 2.105 . S
O213 C207 1.268 . S
O214 Sc198 2.105 1_554 S
O214 C206 1.268 . S
O215 Sc199 2.105 . S
O215 C205 1.268 . S
O216 Sc200 2.105 . S
O216 C207 1.268 . S
O217 Sc198 2.105 . S
O217 C203 1.268 . S
O218 Sc200 2.105 . S
O218 C202 1.268 1_655 S
O219 Sc199 2.105 . S
O219 C204 1.268 . S
Sc220 O223 2.025 . S
Sc220 O230 2.105 . S
Sc220 O233 2.105 . S
Sc220 O236 2.105 . S
Sc220 O239 2.105 . S
Sc221 O223 2.025 . S
Sc221 O231 2.105 . S
Sc221 O235 2.105 . S
Sc221 O237 2.105 . S
Sc221 O241 2.105 . S
Sc222 O223 2.025 . S
Sc222 O232 2.105 . S
Sc222 O234 2.105 . S
Sc222 O238 2.105 . S
Sc222 O240 2.105 . S
O223 Sc220 2.025 . S
O223 Sc221 2.025 . S
O223 Sc222 2.025 . S
C224 O230 1.268 . S
C224 O240 1.268 . S
C225 O231 1.268 . S
C225 O239 1.268 . S
C226 O232 1.268 . S
C226 O241 1.268 . S
C227 O233 1.268 . S
C227 O237 1.268 . S
C228 O234 1.268 . S
C228 O236 1.268 . S
C229 O235 1.268 . S
C229 O238 1.268 . S
O230 Sc220 2.105 . S
O230 C224 1.268 . S
O231 Sc221 2.105 . S
O231 C225 1.268 . S
O232 Sc222 2.105 . S
O232 C226 1.268 . S
O233 Sc220 2.105 . S
O233 C227 1.268 . S
O234 Sc222 2.105 . S
O234 C228 1.268 . S
O235 Sc221 2.105 . S
O235 C229 1.268 . S
O236 Sc220 2.105 . S
O236 C228 1.268 . S
O237 Sc221 2.105 . S
O237 C227 1.268 . S
O238 Sc222 2.105 . S
O238 C229 1.268 . S
O239 Sc220 2.105 . S
O239 C225 1.268 . S
O240 Sc222 2.105 . S
O240 C224 1.268 . S
O241 Sc221 2.105 . S
O241 C226 1.268 . S
Sc242 O245 2.025 . S
Sc242 O252 2.105 . S
Sc242 O255 2.105 . S
Sc242 O258 2.105 . S
Sc242 O261 2.105 . S
Sc243 O245 2.025 . S
Sc243 O253 2.105 . S
Sc243 O257 2.105 . S
Sc243 O259 2.105 . S
Sc243 O263 2.105 . S
Sc244 O245 2.025 . S
Sc244 O254 2.105 . S
Sc244 O256 2.105 . S
Sc244 O260 2.105 . S
Sc244 O262 2.105 . S
O245 Sc242 2.025 . S
O245 Sc243 2.025 . S
O245 Sc244 2.025 . S
C246 O252 1.268 . S
C246 O262 1.268 . S
C247 O253 1.268 . S
C247 O261 1.268 . S
C248 O254 1.268 . S
C248 O263 1.268 . S
C249 O255 1.268 . S
C249 O259 1.268 . S
C250 O256 1.268 1_655 S
C250 O258 1.268 1_655 S
C251 O257 1.268 . S
C251 O260 1.268 . S
O252 Sc242 2.105 . S
O252 C246 1.268 . S
O253 Sc243 2.105 . S
O253 C247 1.268 . S
O254 Sc244 2.105 . S
O254 C248 1.268 . S
O255 Sc242 2.105 . S
O255 C249 1.268 . S
O256 Sc244 2.105 . S
O256 C250 1.268 1_455 S
O257 Sc243 2.105 . S
O257 C251 1.268 . S
O258 Sc242 2.105 . S
O258 C250 1.268 1_455 S
O259 Sc243 2.105 . S
O259 C249 1.268 . S
O260 Sc244 2.105 . S
O260 C251 1.268 . S
O261 Sc242 2.105 . S
O261 C247 1.268 . S
O262 Sc244 2.105 . S
O262 C246 1.268 . S
O263 Sc243 2.105 . S
O263 C248 1.268 . S
Sc264 O267 2.025 . S
Sc264 O274 2.105 1_655 S
Sc264 O277 2.105 . S
Sc264 O280 2.105 . S
Sc264 O283 2.105 . S
Sc265 O267 2.025 . S
Sc265 O275 2.105 . S
Sc265 O279 2.105 . S
Sc265 O281 2.105 . S
Sc265 O285 2.105 . S
Sc266 O267 2.025 . S
Sc266 O276 2.105 . S
Sc266 O278 2.105 . S
Sc266 O282 2.105 . S
Sc266 O284 2.105 1_655 S
O267 Sc264 2.025 . S
O267 Sc265 2.025 . S
O267 Sc266 2.025 . S
C268 O274 1.268 . S
C268 O284 1.268 . S
C269 O275 1.268 . S
C269 O283 1.268 . S
C270 O276 1.268 . S
C270 O285 1.268 . S
C271 O277 1.268 . S
C271 O281 1.268 . S
C272 O278 1.268 . S
C272 O280 1.268 . S
C273 O279 1.268 . S
C273 O282 1.268 . S
O274 Sc264 2.105 1_455 S
O274 C268 1.268 . S
O275 Sc265 2.105 . S
O275 C269 1.268 . S
O276 Sc266 2.105 . S
O276 C270 1.268 . S
O277 Sc264 2.105 . S
O277 C271 1.268 . S
O278 Sc266 2.105 . S
O278 C272 1.268 . S
O279 Sc265 2.105 . S
O279 C273 1.268 . S
O280 Sc264 2.105 . S
O280 C272 1.268 . S
O281 Sc265 2.105 . S
O281 C271 1.268 . S
O282 Sc266 2.105 . S
O282 C273 1.268 . S
O283 Sc264 2.105 . S
O283 C269 1.268 . S
O284 Sc266 2.105 1_455 S
O284 C268 1.268 . S
O285 Sc265 2.105 . S
O285 C270 1.268 . S
Sc286 O289 2.025 . S
Sc286 O296 2.105 . S
Sc286 O299 2.105 . S
Sc286 O302 2.105 . S
Sc286 O305 2.105 . S
Sc287 O289 2.025 . S
Sc287 O297 2.105 . S
Sc287 O301 2.105 . S
Sc287 O303 2.105 . S
Sc287 O307 2.105 . S
Sc288 O289 2.025 . S
Sc288 O298 2.105 . S
Sc288 O300 2.105 . S
Sc288 O304 2.105 . S
Sc288 O306 2.105 . S
O289 Sc286 2.025 . S
O289 Sc287 2.025 . S
O289 Sc288 2.025 . S
C290 O296 1.268 . S
C290 O306 1.268 . S
C291 O297 1.268 . S
C291 O305 1.268 . S
C292 O298 1.268 . S
C292 O307 1.268 . S
C293 O299 1.268 . S
C293 O303 1.268 . S
C294 O300 1.268 . S
C294 O302 1.268 . S
C295 O301 1.268 . S
C295 O304 1.268 . S
O296 Sc286 2.105 . S
O296 C290 1.268 . S
O297 Sc287 2.105 . S
O297 C291 1.268 . S
O298 Sc288 2.105 . S
O298 C292 1.268 . S
O299 Sc286 2.105 . S
O299 C293 1.268 . S
O300 Sc288 2.105 . S
O300 C294 1.268 . S
O301 Sc287 2.105 . S
O301 C295 1.268 . S
O302 Sc286 2.105 . S
O302 C294 1.268 . S
O303 Sc287 2.105 . S
O303 C293 1.268 . S
O304 Sc288 2.105 . S
O304 C295 1.268 . S
O305 Sc286 2.105 . S
O305 C291 1.268 . S
O306 Sc288 2.105 . S
O306 C290 1.268 . S
O307 Sc287 2.105 . S
O307 C292 1.268 . S
Sc308 O311 2.025 . S
Sc308 O318 2.105 . S
Sc308 O321 2.105 . S
Sc308 O324 2.105 . S
Sc308 O327 2.105 . S
Sc309 O311 2.025 . S
Sc309 O319 2.105 . S
Sc309 O323 2.105 . S
Sc309 O325 2.105 . S
Sc309 O329 2.105 . S
Sc310 O311 2.025 . S
Sc310 O320 2.105 . S
Sc310 O322 2.105 . S
Sc310 O326 2.105 . S
Sc310 O328 2.105 . S
O311 Sc308 2.025 . S
O311 Sc309 2.025 . S
O311 Sc310 2.025 . S
C312 O318 1.268 1_545 S
C312 O328 1.268 1_545 S
C313 O319 1.268 . S
C313 O327 1.268 . S
C314 O320 1.268 . S
C314 O329 1.268 . S
C315 O321 1.268 . S
C315 O325 1.268 . S
C316 O322 1.268 . S
C316 O324 1.268 . S
C317 O323 1.268 . S
C317 O326 1.268 . S
O318 Sc308 2.105 . S
O318 C312 1.268 1_565 S
O319 Sc309 2.105 . S
O319 C313 1.268 . S
O320 Sc310 2.105 . S
O320 C314 1.268 . S
O321 Sc308 2.105 . S
O321 C315 1.268 . S
O322 Sc310 2.105 . S
O322 C316 1.268 . S
O323 Sc309 2.105 . S
O323 C317 1.268 . S
O324 Sc308 2.105 . S
O324 C316 1.268 . S
O325 Sc309 2.105 . S
O325 C315 1.268 . S
O326 Sc310 2.105 . S
O326 C317 1.268 . S
O327 Sc308 2.105 . S
O327 C313 1.268 . S
O328 Sc310 2.105 . S
O328 C312 1.268 1_565 S
O329 Sc309 2.105 . S
O329 C314 1.268 . S
Sc330 O333 2.025 . S
Sc330 O340 2.105 1_455 S
Sc330 O343 2.105 . S
Sc330 O346 2.105 . S
Sc330 O349 2.105 . S
Sc331 O333 2.025 . S
Sc331 O341 2.105 . S
Sc331 O345 2.105 . S
Sc331 O347 2.105 . S
Sc331 O351 2.105 . S
Sc332 O333 2.025 . S
Sc332 O342 2.105 . S
Sc332 O344 2.105 . S
Sc332 O348 2.105 . S
Sc332 O350 2.105 1_455 S
O333 Sc330 2.025 . S
O333 Sc331 2.025 . S
O333 Sc332 2.025 . S
C334 O340 1.268 . S
C334 O350 1.268 . S
C335 O341 1.268 . S
C335 O349 1.268 . S
C336 O342 1.268 . S
C336 O351 1.268 . S
C337 O343 1.268 . S
C337 O347 1.268 . S
C338 O344 1.268 1_565 S
C338 O346 1.268 1_565 S
C339 O345 1.268 . S
C339 O348 1.268 . S
O340 Sc330 2.105 1_655 S
O340 C334 1.268 . S
O341 Sc331 2.105 . S
O341 C335 1.268 . S
O342 Sc332 2.105 . S
O342 C336 1.268 . S
O343 Sc330 2.105 . S
O343 C337 1.268 . S
O344 Sc332 2.105 . S
O344 C338 1.268 1_545 S
O345 Sc331 2.105 . S
O345 C339 1.268 . S
O346 Sc330 2.105 . S
O346 C338 1.268 1_545 S
O347 Sc331 2.105 . S
O347 C337 1.268 . S
O348 Sc332 2.105 . S
O348 C339 1.268 . S
O349 Sc330 2.105 . S
O349 C335 1.268 . S
O350 Sc332 2.105 1_655 S
O350 C334 1.268 . S
O351 Sc331 2.105 . S
O351 C336 1.268 . S
Sc352 O355 2.025 . S
Sc352 O362 2.105 . S
Sc352 O365 2.105 . S
Sc352 O368 2.105 1_565 S
Sc352 O371 2.105 . S
Sc353 O355 2.025 . S
Sc353 O363 2.105 . S
Sc353 O367 2.105 . S
Sc353 O369 2.105 . S
Sc353 O373 2.105 . S
Sc354 O355 2.025 . S
Sc354 O364 2.105 . S
Sc354 O366 2.105 1_565 S
Sc354 O370 2.105 . S
Sc354 O372 2.105 . S
O355 Sc352 2.025 . S
O355 Sc353 2.025 . S
O355 Sc354 2.025 . S
C356 O362 1.268 . S
C356 O372 1.268 . S
C357 O363 1.268 . S
C357 O371 1.268 . S
C358 O364 1.268 . S
C358 O373 1.268 . S
C359 O365 1.268 . S
C359 O369 1.268 . S
C360 O366 1.268 . S
C360 O368 1.268 . S
C361 O367 1.268 . S
C361 O370 1.268 . S
O362 Sc352 2.105 . S
O362 C356 1.268 . S
O363 Sc353 2.105 . S
O363 C357 1.268 . S
O364 Sc354 2.105 . S
O364 C358 1.268 . S
O365 Sc352 2.105 . S
O365 C359 1.268 . S
O366 Sc354 2.105 1_545 S
O366 C360 1.268 . S
O367 Sc353 2.105 . S
O367 C361 1.268 . S
O368 Sc352 2.105 1_545 S
O368 C360 1.268 . S
O369 Sc353 2.105 . S
O369 C359 1.268 . S
O370 Sc354 2.105 . S
O370 C361 1.268 . S
O371 Sc352 2.105 . S
O371 C357 1.268 . S
O372 Sc354 2.105 . S
O372 C356 1.268 . S
O373 Sc353 2.105 . S
O373 C358 1.268 . S
Sc374 O377 2.025 . S
Sc374 O384 2.105 1_545 S
Sc374 O387 2.105 . S
Sc374 O390 2.105 . S
Sc374 O393 2.105 . S
Sc375 O377 2.025 . S
Sc375 O385 2.105 . S
Sc375 O389 2.105 . S
Sc375 O391 2.105 . S
Sc375 O395 2.105 . S
Sc376 O377 2.025 . S
Sc376 O386 2.105 . S
Sc376 O388 2.105 . S
Sc376 O392 2.105 . S
Sc376 O394 2.105 1_545 S
O377 Sc374 2.025 . S
O377 Sc375 2.025 . S
O377 Sc376 2.025 . S
C378 O384 1.268 . S
C378 O394 1.268 . S
C379 O385 1.268 . S
C379 O393 1.268 . S
C380 O386 1.268 . S
C380 O395 1.268 . S
C381 O387 1.268 . S
C381 O391 1.268 . S
C382 O388 1.268 1_556 S
C382 O390 1.268 1_556 S
C383 O389 1.268 . S
C383 O392 1.268 . S
O384 Sc374 2.105 1_565 S
O384 C378 1.268 . S
O385 Sc375 2.105 . S
O385 C379 1.268 . S
O386 Sc376 2.105 . S
O386 C380 1.268 . S
O387 Sc374 2.105 . S
O387 C381 1.268 . S
O388 Sc376 2.105 . S
O388 C382 1.268 1_554 S
O389 Sc375 2.105 . S
O389 C383 1.268 . S
O390 Sc374 2.105 . S
O390 C382 1.268 1_554 S
O391 Sc375 2.105 . S
O391 C381 1.268 . S
O392 Sc376 2.105 . S
O392 C383 1.268 . S
O393 Sc374 2.105 . S
O393 C379 1.268 . S
O394 Sc376 2.105 1_565 S
O394 C378 1.268 . S
O395 Sc375 2.105 . S
O395 C380 1.268 . S
Sc396 O399 2.025 . S
Sc396 O406 2.105 . S
Sc396 O409 2.105 . S
Sc396 O412 2.105 . S
Sc396 O415 2.105 . S
Sc397 O399 2.025 . S
Sc397 O407 2.105 . S
Sc397 O411 2.105 . S
Sc397 O413 2.105 . S
Sc397 O417 2.105 . S
Sc398 O399 2.025 . S
Sc398 O408 2.105 . S
Sc398 O410 2.105 . S
Sc398 O414 2.105 . S
Sc398 O416 2.105 . S
O399 Sc396 2.025 . S
O399 Sc397 2.025 . S
O399 Sc398 2.025 . S
C400 O406 1.268 . S
C400 O416 1.268 . S
C401 O407 1.268 . S
C401 O415 1.268 . S
C402 O408 1.268 . S
C402 O417 1.268 . S
C403 O409 1.268 . S
C403 O413 1.268 . S
C404 O410 1.268 . S
C404 O412 1.268 . S
C405 O411 1.268 . S
C405 O414 1.268 . S
O406 Sc396 2.105 . S
O406 C400 1.268 . S
O407 Sc397 2.105 . S
O407 C401 1.268 . S
O408 Sc398 2.105 . S
O408 C402 1.268 . S
O409 Sc396 2.105 . S
O409 C403 1.268 . S
O410 Sc398 2.105 . S
O410 C404 1.268 . S
O411 Sc397 2.105 . S
O411 C405 1.268 . S
O412 Sc396 2.105 . S
O412 C404 1.268 . S
O413 Sc397 2.105 . S
O413 C403 1.268 . S
O414 Sc398 2.105 . S
O414 C405 1.268 . S
O415 Sc396 2.105 . S
O415 C401 1.268 . S
O416 Sc398 2.105 . S
O416 C400 1.268 . S
O417 Sc397 2.105 . S
O417 C402 1.268 . S
Sc418 O421 2.025 . S
Sc418 O428 2.105 . S
Sc418 O431 2.105 . S
Sc418 O434 2.105 . S
Sc418 O437 2.105 . S
Sc419 O421 2.025 . S
Sc419 O429 2.105 . S
Sc419 O433 2.105 . S
Sc419 O435 2.105 . S
Sc419 O439 2.105 . S
Sc420 O421 2.025 . S
Sc420 O430 2.105 . S
Sc420 O432 2.105 . S
Sc420 O436 2.105 . S
Sc420 O438 2.105 . S
O421 Sc418 2.025 . S
O421 Sc419 2.025 . S
O421 Sc420 2.025 . S
C422 O428 1.268 . S
C422 O438 1.268 . S
C423 O429 1.268 . S
C423 O437 1.268 . S
C424 O430 1.268 . S
C424 O439 1.268 . S
C425 O431 1.268 . S
C425 O435 1.268 . S
C426 O432 1.268 1_554 S
C426 O434 1.268 1_554 S
C427 O433 1.268 . S
C427 O436 1.268 . S
O428 Sc418 2.105 . S
O428 C422 1.268 . S
O429 Sc419 2.105 . S
O429 C423 1.268 . S
O430 Sc420 2.105 . S
O430 C424 1.268 . S
O431 Sc418 2.105 . S
O431 C425 1.268 . S
O432 Sc420 2.105 . S
O432 C426 1.268 1_556 S
O433 Sc419 2.105 . S
O433 C427 1.268 . S
O434 Sc418 2.105 . S
O434 C426 1.268 1_556 S
O435 Sc419 2.105 . S
O435 C425 1.268 . S
O436 Sc420 2.105 . S
O436 C427 1.268 . S
O437 Sc418 2.105 . S
O437 C423 1.268 . S
O438 Sc420 2.105 . S
O438 C422 1.268 . S
O439 Sc419 2.105 . S
O439 C424 1.268 . S
Sc440 O443 2.025 . S
Sc440 O450 2.105 . S
Sc440 O453 2.105 . S
Sc440 O456 2.105 1_556 S
Sc440 O459 2.105 . S
Sc441 O443 2.025 . S
Sc441 O451 2.105 . S
Sc441 O455 2.105 . S
Sc441 O457 2.105 . S
Sc441 O461 2.105 . S
Sc442 O443 2.025 . S
Sc442 O452 2.105 . S
Sc442 O454 2.105 1_556 S
Sc442 O458 2.105 . S
Sc442 O460 2.105 . S
O443 Sc440 2.025 . S
O443 Sc441 2.025 . S
O443 Sc442 2.025 . S
C444 O450 1.268 . S
C444 O460 1.268 . S
C445 O451 1.268 . S
C445 O459 1.268 . S
C446 O452 1.268 . S
C446 O461 1.268 . S
C447 O453 1.268 . S
C447 O457 1.268 . S
C448 O454 1.268 . S
C448 O456 1.268 . S
C449 O455 1.268 . S
C449 O458 1.268 . S
O450 Sc440 2.105 . S
O450 C444 1.268 . S
O451 Sc441 2.105 . S
O451 C445 1.268 . S
O452 Sc442 2.105 . S
O452 C446 1.268 . S
O453 Sc440 2.105 . S
O453 C447 1.268 . S
O454 Sc442 2.105 1_554 S
O454 C448 1.268 . S
O455 Sc441 2.105 . S
O455 C449 1.268 . S
O456 Sc440 2.105 1_554 S
O456 C448 1.268 . S
O457 Sc441 2.105 . S
O457 C447 1.268 . S
O458 Sc442 2.105 . S
O458 C449 1.268 . S
O459 Sc440 2.105 . S
O459 C445 1.268 . S
O460 Sc442 2.105 . S
O460 C444 1.268 . S
O461 Sc441 2.105 . S
O461 C446 1.268 . S
Sc462 O465 2.025 . S
Sc462 O472 2.105 1_554 S
Sc462 O475 2.105 . S
Sc462 O478 2.105 . S
Sc462 O481 2.105 . S
Sc463 O465 2.025 . S
Sc463 O473 2.105 . S
Sc463 O477 2.105 . S
Sc463 O479 2.105 . S
Sc463 O483 2.105 . S
Sc464 O465 2.025 . S
Sc464 O474 2.105 . S
Sc464 O476 2.105 . S
Sc464 O480 2.105 . S
Sc464 O482 2.105 1_554 S
O465 Sc462 2.025 . S
O465 Sc463 2.025 . S
O465 Sc464 2.025 . S
C466 O472 1.268 . S
C466 O482 1.268 . S
C467 O473 1.268 . S
C467 O481 1.268 . S
C468 O474 1.268 . S
C468 O483 1.268 . S
C469 O475 1.268 . S
C469 O479 1.268 . S
C470 O476 1.268 1_655 S
C470 O478 1.268 1_655 S
C471 O477 1.268 . S
C471 O480 1.268 . S
O472 Sc462 2.105 1_556 S
O472 C466 1.268 . S
O473 Sc463 2.105 . S
O473 C467 1.268 . S
O474 Sc464 2.105 . S
O474 C468 1.268 . S
O475 Sc462 2.105 . S
O475 C469 1.268 . S
O476 Sc464 2.105 . S
O476 C470 1.268 1_455 S
O477 Sc463 2.105 . S
O477 C471 1.268 . S
O478 Sc462 2.105 . S
O478 C470 1.268 1_455 S
O479 Sc463 2.105 . S
O479 C469 1.268 . S
O480 Sc464 2.105 . S
O480 C471 1.268 . S
O481 Sc462 2.105 . S
O481 C467 1.268 . S
O482 Sc464 2.105 1_556 S
O482 C466 1.268 . S
O483 Sc463 2.105 . S
O483 C468 1.268 . S
Sc484 O487 2.025 . S
Sc484 O494 2.105 . S
Sc484 O497 2.105 . S
Sc484 O500 2.105 . S
Sc484 O503 2.105 . S
Sc485 O487 2.025 . S
Sc485 O495 2.105 . S
Sc485 O499 2.105 . S
Sc485 O501 2.105 . S
Sc485 O505 2.105 . S
Sc486 O487 2.025 . S
Sc486 O496 2.105 . S
Sc486 O498 2.105 . S
Sc486 O502 2.105 . S
Sc486 O504 2.105 . S
O487 Sc484 2.025 . S
O487 Sc485 2.025 . S
O487 Sc486 2.025 . S
C488 O494 1.268 . S
C488 O504 1.268 . S
C489 O495 1.268 . S
C489 O503 1.268 . S
C490 O496 1.268 . S
C490 O505 1.268 . S
C491 O497 1.268 . S
C491 O501 1.268 . S
C492 O498 1.268 . S
C492 O500 1.268 . S
C493 O499 1.268 . S
C493 O502 1.268 . S
O494 Sc484 2.105 . S
O494 C488 1.268 . S
O495 Sc485 2.105 . S
O495 C489 1.268 . S
O496 Sc486 2.105 . S
O496 C490 1.268 . S
O497 Sc484 2.105 . S
O497 C491 1.268 . S
O498 Sc486 2.105 . S
O498 C492 1.268 . S
O499 Sc485 2.105 . S
O499 C493 1.268 . S
O500 Sc484 2.105 . S
O500 C492 1.268 . S
O501 Sc485 2.105 . S
O501 C491 1.268 . S
O502 Sc486 2.105 . S
O502 C493 1.268 . S
O503 Sc484 2.105 . S
O503 C489 1.268 . S
O504 Sc486 2.105 . S
O504 C488 1.268 . S
O505 Sc485 2.105 . S
O505 C490 1.268 . S
Sc506 O509 2.025 . S
Sc506 O516 2.105 . S
Sc506 O519 2.105 . S
Sc506 O522 2.105 . S
Sc506 O525 2.105 . S
Sc507 O509 2.025 . S
Sc507 O517 2.105 . S
Sc507 O521 2.105 . S
Sc507 O523 2.105 . S
Sc507 O527 2.105 . S
Sc508 O509 2.025 . S
Sc508 O518 2.105 . S
Sc508 O520 2.105 . S
Sc508 O524 2.105 . S
Sc508 O526 2.105 . S
O509 Sc506 2.025 . S
O509 Sc507 2.025 . S
O509 Sc508 2.025 . S
C510 O516 1.268 1_455 S
C510 O526 1.268 1_455 S
C511 O517 1.268 . S
C511 O525 1.268 . S
C512 O518 1.268 . S
C512 O527 1.268 . S
C513 O519 1.268 . S
C513 O523 1.268 . S
C514 O520 1.268 . S
C514 O522 1.268 . S
C515 O521 1.268 . S
C515 O524 1.268 . S
O516 Sc506 2.105 . S
O516 C510 1.268 1_655 S
O517 Sc507 2.105 . S
O517 C511 1.268 . S
O518 Sc508 2.105 . S
O518 C512 1.268 . S
O519 Sc506 2.105 . S
O519 C513 1.268 . S
O520 Sc508 2.105 . S
O520 C514 1.268 . S
O521 Sc507 2.105 . S
O521 C515 1.268 . S
O522 Sc506 2.105 . S
O522 C514 1.268 . S
O523 Sc507 2.105 . S
O523 C513 1.268 . S
O524 Sc508 2.105 . S
O524 C515 1.268 . S
O525 Sc506 2.105 . S
O525 C511 1.268 . S
O526 Sc508 2.105 . S
O526 C510 1.268 1_655 S
O527 Sc507 2.105 . S
O527 C512 1.268 . S
H528 C534 0.930 . S
H529 C537 0.930 . S
H530 C538 0.930 . S
H531 C539 0.930 . S
H532 C542 0.930 . S
H533 C543 0.930 . S
C534 H528 0.930 . S
C534 C535 1.355 . S
C534 C536 1.415 . S
C535 C534 1.355 . S
C535 C537 1.419 . S
C536 C534 1.415 . S
C536 C541 1.425 . S
C536 C543 1.409 . S
C537 H529 0.930 . S
C537 C535 1.419 . S
C537 C538 1.362 . S
C538 H530 0.930 . S
C538 C537 1.362 . S
C538 C541 1.409 . S
C539 H531 0.930 . S
C539 C540 1.355 . S
C539 C541 1.415 . S
C540 C539 1.355 . S
C540 C542 1.419 . S
C541 C536 1.425 . S
C541 C538 1.409 . S
C541 C539 1.415 . S
C542 H532 0.930 . S
C542 C540 1.419 . S
C542 C543 1.362 . S
C543 H533 0.930 . S
C543 C536 1.409 . S
C543 C542 1.362 . S
H544 C550 0.930 . S
H545 C553 0.930 . S
H546 C554 0.930 . S
H547 C555 0.930 . S
H548 C558 0.930 . S
H549 C559 0.930 . S
C550 H544 0.930 . S
C550 C551 1.355 . S
C550 C552 1.415 . S
C551 C550 1.355 . S
C551 C553 1.419 . S
C552 C550 1.415 . S
C552 C557 1.425 . S
C552 C559 1.409 . S
C553 H545 0.930 . S
C553 C551 1.419 . S
C553 C554 1.362 . S
C554 H546 0.930 . S
C554 C553 1.362 . S
C554 C557 1.409 . S
C555 H547 0.930 . S
C555 C556 1.355 . S
C555 C557 1.415 . S
C556 C555 1.355 . S
C556 C558 1.419 . S
C557 C552 1.425 . S
C557 C554 1.409 . S
C557 C555 1.415 . S
C558 H548 0.930 . S
C558 C556 1.419 . S
C558 C559 1.362 . S
C559 H549 0.930 . S
C559 C552 1.409 . S
C559 C558 1.362 . S
H560 C566 0.930 . S
H561 C569 0.930 . S
H562 C570 0.930 . S
H563 C571 0.930 . S
H564 C574 0.930 . S
H565 C575 0.930 . S
C566 H560 0.930 . S
C566 C567 1.355 . S
C566 C568 1.415 . S
C567 C566 1.355 . S
C567 C569 1.419 . S
C568 C566 1.415 . S
C568 C573 1.425 . S
C568 C575 1.409 . S
C569 H561 0.930 . S
C569 C567 1.419 . S
C569 C570 1.362 1_545 S
C570 H562 0.930 . S
C570 C569 1.362 1_565 S
C570 C573 1.409 1_565 S
C571 H563 0.930 . S
C571 C572 1.355 . S
C571 C573 1.415 1_565 S
C572 C571 1.355 . S
C572 C574 1.419 1_565 S
C573 C568 1.425 . S
C573 C570 1.409 1_545 S
C573 C571 1.415 1_545 S
C574 H564 0.930 . S
C574 C572 1.419 1_545 S
C574 C575 1.362 . S
C575 H565 0.930 . S
C575 C568 1.409 . S
C575 C574 1.362 . S
H576 C582 0.930 . S
H577 C585 0.930 . S
H578 C586 0.930 . S
H579 C587 0.930 . S
H580 C590 0.930 . S
H581 C591 0.930 . S
C582 H576 0.930 . S
C582 C583 1.355 . S
C582 C584 1.415 . S
C583 C582 1.355 . S
C583 C585 1.419 . S
C584 C582 1.415 . S
C584 C589 1.425 . S
C584 C591 1.409 . S
C585 H577 0.930 . S
C585 C583 1.419 . S
C585 C586 1.362 1_565 S
C586 H578 0.930 . S
C586 C585 1.362 1_545 S
C586 C589 1.409 1_545 S
C587 H579 0.930 . S
C587 C588 1.355 . S
C587 C589 1.415 1_545 S
C588 C587 1.355 . S
C588 C590 1.419 1_545 S
C589 C584 1.425 . S
C589 C586 1.409 1_565 S
C589 C587 1.415 1_565 S
C590 H580 0.930 . S
C590 C588 1.419 1_565 S
C590 C591 1.362 . S
C591 H581 0.930 . S
C591 C584 1.409 . S
C591 C590 1.362 . S
H592 C598 0.930 . S
H593 C601 0.930 . S
H594 C602 0.930 . S
H595 C603 0.930 . S
H596 C606 0.930 . S
H597 C607 0.930 . S
C598 H592 0.930 . S
C598 C599 1.355 . S
C598 C600 1.415 . S
C599 C598 1.355 . S
C599 C601 1.419 . S
C600 C598 1.415 . S
C600 C605 1.425 . S
C600 C607 1.409 . S
C601 H593 0.930 . S
C601 C599 1.419 . S
C601 C602 1.362 . S
C602 H594 0.930 . S
C602 C601 1.362 . S
C602 C605 1.409 . S
C603 H595 0.930 . S
C603 C604 1.355 . S
C603 C605 1.415 . S
C604 C603 1.355 . S
C604 C606 1.419 . S
C605 C600 1.425 . S
C605 C602 1.409 . S
C605 C603 1.415 . S
C606 H596 0.930 . S
C606 C604 1.419 . S
C606 C607 1.362 . S
C607 H597 0.930 . S
C607 C600 1.409 . S
C607 C606 1.362 . S
H608 C614 0.930 . S
H609 C617 0.930 . S
H610 C618 0.930 . S
H611 C619 0.930 . S
H612 C622 0.930 . S
H613 C623 0.930 . S
C614 H608 0.930 . S
C614 C615 1.355 . S
C614 C616 1.415 . S
C615 C614 1.355 . S
C615 C617 1.419 . S
C616 C614 1.415 . S
C616 C621 1.425 . S
C616 C623 1.409 1_556 S
C617 H609 0.930 . S
C617 C615 1.419 . S
C617 C618 1.362 . S
C618 H610 0.930 . S
C618 C617 1.362 . S
C618 C621 1.409 . S
C619 H611 0.930 . S
C619 C620 1.355 1_556 S
C619 C621 1.415 . S
C620 C619 1.355 1_554 S
C620 C622 1.419 . S
C621 C616 1.425 . S
C621 C618 1.409 . S
C621 C619 1.415 . S
C622 H612 0.930 . S
C622 C620 1.419 . S
C622 C623 1.362 . S
C623 H613 0.930 . S
C623 C616 1.409 1_554 S
C623 C622 1.362 . S
H624 C630 0.930 . S
H625 C633 0.930 . S
H626 C634 0.930 . S
H627 C635 0.930 . S
H628 C638 0.930 . S
H629 C639 0.930 . S
C630 H624 0.930 . S
C630 C631 1.355 . S
C630 C632 1.415 . S
C631 C630 1.355 . S
C631 C633 1.419 . S
C632 C630 1.415 . S
C632 C637 1.425 . S
C632 C639 1.409 . S
C633 H625 0.930 . S
C633 C631 1.419 . S
C633 C634 1.362 . S
C634 H626 0.930 . S
C634 C633 1.362 . S
C634 C637 1.409 . S
C635 H627 0.930 . S
C635 C636 1.355 . S
C635 C637 1.415 . S
C636 C635 1.355 . S
C636 C638 1.419 . S
C637 C632 1.425 . S
C637 C634 1.409 . S
C637 C635 1.415 . S
C638 H628 0.930 . S
C638 C636 1.419 . S
C638 C639 1.362 . S
C639 H629 0.930 . S
C639 C632 1.409 . S
C639 C638 1.362 . S
H640 C646 0.930 . S
H641 C649 0.930 . S
H642 C650 0.930 . S
H643 C651 0.930 . S
H644 C654 0.930 . S
H645 C655 0.930 . S
C646 H640 0.930 . S
C646 C647 1.355 . S
C646 C648 1.415 . S
C647 C646 1.355 . S
C647 C649 1.419 . S
C648 C646 1.415 . S
C648 C653 1.425 . S
C648 C655 1.409 1_554 S
C649 H641 0.930 . S
C649 C647 1.419 . S
C649 C650 1.362 . S
C650 H642 0.930 . S
C650 C649 1.362 . S
C650 C653 1.409 . S
C651 H643 0.930 . S
C651 C652 1.355 1_554 S
C651 C653 1.415 . S
C652 C651 1.355 1_556 S
C652 C654 1.419 . S
C653 C648 1.425 . S
C653 C650 1.409 . S
C653 C651 1.415 . S
C654 H644 0.930 . S
C654 C652 1.419 . S
C654 C655 1.362 . S
C655 H645 0.930 . S
C655 C648 1.409 1_556 S
C655 C654 1.362 . S
H656 C662 0.930 . S
H657 C665 0.930 . S
H658 C666 0.930 . S
H659 C667 0.930 . S
H660 C670 0.930 . S
H661 C671 0.930 . S
C662 H656 0.930 . S
C662 C663 1.355 . S
C662 C664 1.415 . S
C663 C662 1.355 . S
C663 C665 1.419 . S
C664 C662 1.415 . S
C664 C669 1.425 . S
C664 C671 1.409 . S
C665 H657 0.930 . S
C665 C663 1.419 . S
C665 C666 1.362 . S
C666 H658 0.930 . S
C666 C665 1.362 . S
C666 C669 1.409 . S
C667 H659 0.930 . S
C667 C668 1.355 . S
C667 C669 1.415 . S
C668 C667 1.355 . S
C668 C670 1.419 . S
C669 C664 1.425 . S
C669 C666 1.409 . S
C669 C667 1.415 . S
C670 H660 0.930 . S
C670 C668 1.419 . S
C670 C671 1.362 . S
C671 H661 0.930 . S
C671 C664 1.409 . S
C671 C670 1.362 . S
H672 C678 0.930 . S
H673 C681 0.930 . S
H674 C682 0.930 1_455 S
H675 C683 0.930 . S
H676 C686 0.930 . S
H677 C687 0.930 . S
C678 H672 0.930 . S
C678 C679 1.355 . S
C678 C680 1.415 . S
C679 C678 1.355 . S
C679 C681 1.419 . S
C680 C678 1.415 . S
C680 C685 1.425 . S
C680 C687 1.409 . S
C681 H673 0.930 . S
C681 C679 1.419 . S
C681 C682 1.362 . S
C682 H674 0.930 1_655 S
C682 C681 1.362 . S
C682 C685 1.409 . S
C683 H675 0.930 . S
C683 C684 1.355 . S
C683 C685 1.415 1_455 S
C684 C683 1.355 . S
C684 C686 1.419 1_455 S
C685 C680 1.425 . S
C685 C682 1.409 . S
C685 C683 1.415 1_655 S
C686 H676 0.930 . S
C686 C684 1.419 1_655 S
C686 C687 1.362 . S
C687 H677 0.930 . S
C687 C680 1.409 . S
C687 C686 1.362 . S
H688 C694 0.930 . S
H689 C697 0.930 . S
H690 C698 0.930 . S
H691 C699 0.930 . S
H692 C702 0.930 . S
H693 C703 0.930 . S
C694 H688 0.930 . S
C694 C695 1.355 . S
C694 C696 1.415 . S
C695 C694 1.355 . S
C695 C697 1.419 . S
C696 C694 1.415 . S
C696 C701 1.425 . S
C696 C703 1.409 . S
C697 H689 0.930 . S
C697 C695 1.419 . S
C697 C698 1.362 . S
C698 H690 0.930 . S
C698 C697 1.362 . S
C698 C701 1.409 . S
C699 H691 0.930 . S
C699 C700 1.355 . S
C699 C701 1.415 . S
C700 C699 1.355 . S
C700 C702 1.419 . S
C701 C696 1.425 . S
C701 C698 1.409 . S
C701 C699 1.415 . S
C702 H692 0.930 . S
C702 C700 1.419 . S
C702 C703 1.362 . S
C703 H693 0.930 . S
C703 C696 1.409 . S
C703 C702 1.362 . S
H704 C710 0.930 . S
H705 C713 0.930 . S
H706 C714 0.930 . S
H707 C715 0.930 . S
H708 C718 0.930 . S
H709 C719 0.930 . S
C710 H704 0.930 . S
C710 C711 1.355 . S
C710 C712 1.415 . S
C711 C710 1.355 . S
C711 C713 1.419 . S
C712 C710 1.415 . S
C712 C717 1.425 . S
C712 C719 1.409 . S
C713 H705 0.930 . S
C713 C711 1.419 . S
C713 C714 1.362 . S
C714 H706 0.930 . S
C714 C713 1.362 . S
C714 C717 1.409 . S
C715 H707 0.930 . S
C715 C716 1.355 1_455 S
C715 C717 1.415 . S
C716 C715 1.355 1_655 S
C716 C718 1.419 . S
C717 C712 1.425 . S
C717 C714 1.409 . S
C717 C715 1.415 . S
C718 H708 0.930 . S
C718 C716 1.419 . S
C718 C719 1.362 1_655 S
C719 H709 0.930 . S
C719 C712 1.409 . S
C719 C718 1.362 1_455 S
H720 C726 0.930 . S
H721 C729 0.930 . S
H722 C730 0.930 . S
H723 C731 0.930 . S
H724 C734 0.930 . S
H725 C735 0.930 . S
C726 H720 0.930 . S
C726 C727 1.355 . S
C726 C728 1.415 . S
C727 C726 1.355 . S
C727 C729 1.419 . S
C728 C726 1.415 . S
C728 C733 1.425 . S
C728 C735 1.409 . S
C729 H721 0.930 . S
C729 C727 1.419 . S
C729 C730 1.362 . S
C730 H722 0.930 . S
C730 C729 1.362 . S
C730 C733 1.409 . S
C731 H723 0.930 . S
C731 C732 1.355 . S
C731 C733 1.415 . S
C732 C731 1.355 . S
C732 C734 1.419 . S
C733 C728 1.425 . S
C733 C730 1.409 . S
C733 C731 1.415 . S
C734 H724 0.930 . S
C734 C732 1.419 . S
C734 C735 1.362 . S
C735 H725 0.930 . S
C735 C728 1.409 . S
C735 C734 1.362 . S
H736 C742 0.930 . S
H737 C745 0.930 . S
H738 C746 0.930 . S
H739 C747 0.930 . S
H740 C750 0.930 . S
H741 C751 0.930 . S
C742 H736 0.930 . S
C742 C743 1.355 . S
C742 C744 1.415 . S
C743 C742 1.355 . S
C743 C745 1.419 . S
C744 C742 1.415 . S
C744 C749 1.425 . S
C744 C751 1.409 . S
C745 H737 0.930 . S
C745 C743 1.419 . S
C745 C746 1.362 . S
C746 H738 0.930 . S
C746 C745 1.362 . S
C746 C749 1.409 . S
C747 H739 0.930 . S
C747 C748 1.355 . S
C747 C749 1.415 . S
C748 C747 1.355 . S
C748 C750 1.419 . S
C749 C744 1.425 . S
C749 C746 1.409 . S
C749 C747 1.415 . S
C750 H740 0.930 . S
C750 C748 1.419 . S
C750 C751 1.362 . S
C751 H741 0.930 . S
C751 C744 1.409 . S
C751 C750 1.362 . S
H752 C758 0.930 . S
H753 C761 0.930 . S
H754 C762 0.930 . S
H755 C763 0.930 . S
H756 C766 0.930 . S
H757 C767 0.930 . S
C758 H752 0.930 . S
C758 C759 1.355 . S
C758 C760 1.415 . S
C759 C758 1.355 . S
C759 C761 1.419 . S
C760 C758 1.415 . S
C760 C765 1.425 . S
C760 C767 1.409 . S
C761 H753 0.930 . S
C761 C759 1.419 . S
C761 C762 1.362 . S
C762 H754 0.930 . S
C762 C761 1.362 . S
C762 C765 1.409 . S
C763 H755 0.930 . S
C763 C764 1.355 . S
C763 C765 1.415 1_545 S
C764 C763 1.355 . S
C764 C766 1.419 1_545 S
C765 C760 1.425 . S
C765 C762 1.409 . S
C765 C763 1.415 1_565 S
C766 H756 0.930 . S
C766 C764 1.419 1_565 S
C766 C767 1.362 . S
C767 H757 0.930 . S
C767 C760 1.409 . S
C767 C766 1.362 . S
H768 C774 0.930 . S
H769 C777 0.930 . S
H770 C778 0.930 . S
H771 C779 0.930 . S
H772 C782 0.930 . S
H773 C783 0.930 . S
C774 H768 0.930 . S
C774 C775 1.355 . S
C774 C776 1.415 1_565 S
C775 C774 1.355 . S
C775 C777 1.419 1_565 S
C776 C774 1.415 1_545 S
C776 C781 1.425 . S
C776 C783 1.409 1_545 S
C777 H769 0.930 . S
C777 C775 1.419 1_545 S
C777 C778 1.362 . S
C778 H770 0.930 . S
C778 C777 1.362 . S
C778 C781 1.409 . S
C779 H771 0.930 . S
C779 C780 1.355 . S
C779 C781 1.415 . S
C780 C779 1.355 . S
C780 C782 1.419 . S
C781 C776 1.425 . S
C781 C778 1.409 . S
C781 C779 1.415 . S
C782 H772 0.930 . S
C782 C780 1.419 . S
C782 C783 1.362 1_545 S
C783 H773 0.930 . S
C783 C776 1.409 1_565 S
C783 C782 1.362 1_565 S
H784 C790 0.930 . S
H785 C793 0.930 . S
H786 C794 0.930 . S
H787 C795 0.930 . S
H788 C798 0.930 . S
H789 C799 0.930 . S
C790 H784 0.930 . S
C790 C791 1.355 . S
C790 C792 1.415 . S
C791 C790 1.355 . S
C791 C793 1.419 . S
C792 C790 1.415 . S
C792 C797 1.425 . S
C792 C799 1.409 . S
C793 H785 0.930 . S
C793 C791 1.419 . S
C793 C794 1.362 . S
C794 H786 0.930 . S
C794 C793 1.362 . S
C794 C797 1.409 . S
C795 H787 0.930 . S
C795 C796 1.355 . S
C795 C797 1.415 . S
C796 C795 1.355 . S
C796 C798 1.419 . S
C797 C792 1.425 . S
C797 C794 1.409 . S
C797 C795 1.415 . S
C798 H788 0.930 . S
C798 C796 1.419 . S
C798 C799 1.362 . S
C799 H789 0.930 . S
C799 C792 1.409 . S
C799 C798 1.362 . S
H800 C806 0.930 . S
H801 C809 0.930 . S
H802 C810 0.930 . S
H803 C811 0.930 . S
H804 C814 0.930 . S
H805 C815 0.930 . S
C806 H800 0.930 . S
C806 C807 1.355 1_554 S
C806 C808 1.415 . S
C807 C806 1.355 1_556 S
C807 C809 1.419 . S
C808 C806 1.415 . S
C808 C813 1.425 . S
C808 C815 1.409 . S
C809 H801 0.930 . S
C809 C807 1.419 . S
C809 C810 1.362 . S
C810 H802 0.930 . S
C810 C809 1.362 . S
C810 C813 1.409 1_556 S
C811 H803 0.930 . S
C811 C812 1.355 . S
C811 C813 1.415 . S
C812 C811 1.355 . S
C812 C814 1.419 . S
C813 C808 1.425 . S
C813 C810 1.409 1_554 S
C813 C811 1.415 . S
C814 H804 0.930 . S
C814 C812 1.419 . S
C814 C815 1.362 . S
C815 H805 0.930 . S
C815 C808 1.409 . S
C815 C814 1.362 . S
H816 C822 0.930 . S
H817 C825 0.930 . S
H818 C826 0.930 . S
H819 C827 0.930 . S
H820 C830 0.930 . S
H821 C831 0.930 . S
C822 H816 0.930 . S
C822 C823 1.355 . S
C822 C824 1.415 . S
C823 C822 1.355 . S
C823 C825 1.419 . S
C824 C822 1.415 . S
C824 C829 1.425 . S
C824 C831 1.409 . S
C825 H817 0.930 . S
C825 C823 1.419 . S
C825 C826 1.362 . S
C826 H818 0.930 . S
C826 C825 1.362 . S
C826 C829 1.409 . S
C827 H819 0.930 . S
C827 C828 1.355 . S
C827 C829 1.415 . S
C828 C827 1.355 . S
C828 C830 1.419 . S
C829 C824 1.425 . S
C829 C826 1.409 . S
C829 C827 1.415 . S
C830 H820 0.930 . S
C830 C828 1.419 . S
C830 C831 1.362 . S
C831 H821 0.930 . S
C831 C824 1.409 . S
C831 C830 1.362 . S
H832 C838 0.930 . S
H833 C841 0.930 . S
H834 C842 0.930 . S
H835 C843 0.930 . S
H836 C846 0.930 . S
H837 C847 0.930 1_554 S
C838 H832 0.930 . S
C838 C839 1.355 . S
C838 C840 1.415 1_554 S
C839 C838 1.355 . S
C839 C841 1.419 1_554 S
C840 C838 1.415 1_556 S
C840 C845 1.425 . S
C840 C847 1.409 . S
C841 H833 0.930 . S
C841 C839 1.419 1_556 S
C841 C842 1.362 . S
C842 H834 0.930 . S
C842 C841 1.362 . S
C842 C845 1.409 . S
C843 H835 0.930 . S
C843 C844 1.355 . S
C843 C845 1.415 . S
C844 C843 1.355 . S
C844 C846 1.419 . S
C845 C840 1.425 . S
C845 C842 1.409 . S
C845 C843 1.415 . S
C846 H836 0.930 . S
C846 C844 1.419 . S
C846 C847 1.362 . S
C847 H837 0.930 1_556 S
C847 C840 1.409 . S
C847 C846 1.362 . S
H848 C854 0.930 . S
H849 C857 0.930 . S
H850 C858 0.930 . S
H851 C859 0.930 . S
H852 C862 0.930 . S
H853 C863 0.930 . S
C854 H848 0.930 . S
C854 C855 1.355 . S
C854 C856 1.415 . S
C855 C854 1.355 . S
C855 C857 1.419 . S
C856 C854 1.415 . S
C856 C861 1.425 . S
C856 C863 1.409 . S
C857 H849 0.930 . S
C857 C855 1.419 . S
C857 C858 1.362 . S
C858 H850 0.930 . S
C858 C857 1.362 . S
C858 C861 1.409 . S
C859 H851 0.930 . S
C859 C860 1.355 . S
C859 C861 1.415 . S
C860 C859 1.355 . S
C860 C862 1.419 . S
C861 C856 1.425 . S
C861 C858 1.409 . S
C861 C859 1.415 . S
C862 H852 0.930 . S
C862 C860 1.419 . S
C862 C863 1.362 . S
C863 H853 0.930 . S
C863 C856 1.409 . S
C863 C862 1.362 . S
H864 C870 0.930 . S
H865 C873 0.930 . S
H866 C874 0.930 . S
H867 C875 0.930 . S
H868 C878 0.930 . S
H869 C879 0.930 . S
C870 H864 0.930 . S
C870 C871 1.355 1_455 S
C870 C872 1.415 . S
C871 C870 1.355 1_655 S
C871 C873 1.419 . S
C872 C870 1.415 . S
C872 C877 1.425 . S
C872 C879 1.409 . S
C873 H865 0.930 . S
C873 C871 1.419 . S
C873 C874 1.362 . S
C874 H866 0.930 . S
C874 C873 1.362 . S
C874 C877 1.409 1_655 S
C875 H867 0.930 . S
C875 C876 1.355 . S
C875 C877 1.415 . S
C876 C875 1.355 . S
C876 C878 1.419 . S
C877 C872 1.425 . S
C877 C874 1.409 1_455 S
C877 C875 1.415 . S
C878 H868 0.930 . S
C878 C876 1.419 . S
C878 C879 1.362 . S
C879 H869 0.930 . S
C879 C872 1.409 . S
C879 C878 1.362 . S
H880 C886 0.930 . S
H881 C889 0.930 . S
H882 C890 0.930 . S
H883 C891 0.930 . S
H884 C894 0.930 . S
H885 C895 0.930 . S
C886 H880 0.930 . S
C886 C887 1.355 . S
C886 C888 1.415 . S
C887 C886 1.355 . S
C887 C889 1.419 . S
C888 C886 1.415 . S
C888 C893 1.425 . S
C888 C895 1.409 . S
C889 H881 0.930 . S
C889 C887 1.419 . S
C889 C890 1.362 . S
C890 H882 0.930 . S
C890 C889 1.362 . S
C890 C893 1.409 . S
C891 H883 0.930 . S
C891 C892 1.355 . S
C891 C893 1.415 . S
C892 C891 1.355 . S
C892 C894 1.419 . S
C893 C888 1.425 . S
C893 C890 1.409 . S
C893 C891 1.415 . S
C894 H884 0.930 . S
C894 C892 1.419 . S
C894 C895 1.362 . S
C895 H885 0.930 . S
C895 C888 1.409 . S
C895 C894 1.362 . S
H896 C902 0.930 . S
H897 C905 0.930 . S
H898 C906 0.930 . S
H899 C907 0.930 . S
H900 C910 0.930 . S
H901 C911 0.930 . S
C902 H896 0.930 . S
C902 C903 1.355 . S
C902 C904 1.415 . S
C903 C902 1.355 . S
C903 C905 1.419 . S
C904 C902 1.415 . S
C904 C909 1.425 . S
C904 C911 1.409 1_655 S
C905 H897 0.930 . S
C905 C903 1.419 . S
C905 C906 1.362 . S
C906 H898 0.930 . S
C906 C905 1.362 . S
C906 C909 1.409 . S
C907 H899 0.930 . S
C907 C908 1.355 1_655 S
C907 C909 1.415 . S
C908 C907 1.355 1_455 S
C908 C910 1.419 . S
C909 C904 1.425 . S
C909 C906 1.409 . S
C909 C907 1.415 . S
C910 H900 0.930 . S
C910 C908 1.419 . S
C910 C911 1.362 . S
C911 H901 0.930 . S
C911 C904 1.409 1_455 S
C911 C910 1.362 . S
H912 C918 0.930 . S
H913 C921 0.930 . S
H914 C922 0.930 . S
H915 C923 0.930 . S
H916 C926 0.930 . S
H917 C927 0.930 . S
C918 H912 0.930 . S
C918 C919 1.355 . S
C918 C920 1.415 . S
C919 C918 1.355 . S
C919 C921 1.419 . S
C920 C918 1.415 . S
C920 C925 1.425 . S
C920 C927 1.409 . S
C921 H913 0.930 . S
C921 C919 1.419 . S
C921 C922 1.362 . S
C922 H914 0.930 . S
C922 C921 1.362 . S
C922 C925 1.409 . S
C923 H915 0.930 . S
C923 C924 1.355 . S
C923 C925 1.415 . S
C924 C923 1.355 . S
C924 C926 1.419 . S
C925 C920 1.425 . S
C925 C922 1.409 . S
C925 C923 1.415 . S
C926 H916 0.930 . S
C926 C924 1.419 . S
C926 C927 1.362 . S
C927 H917 0.930 . S
C927 C920 1.409 . S
C927 C926 1.362 . S
H928 C934 0.930 . S
H929 C937 0.930 . S
H930 C938 0.930 . S
H931 C939 0.930 . S
H932 C942 0.930 . S
H933 C943 0.930 . S
C934 H928 0.930 . S
C934 C935 1.355 . S
C934 C936 1.415 . S
C935 C934 1.355 . S
C935 C937 1.419 . S
C936 C934 1.415 . S
C936 C941 1.425 . S
C936 C943 1.409 . S
C937 H929 0.930 . S
C937 C935 1.419 . S
C937 C938 1.362 . S
C938 H930 0.930 . S
C938 C937 1.362 . S
C938 C941 1.409 . S
C939 H931 0.930 . S
C939 C940 1.355 . S
C939 C941 1.415 . S
C940 C939 1.355 . S
C940 C942 1.419 . S
C941 C936 1.425 . S
C941 C938 1.409 . S
C941 C939 1.415 . S
C942 H932 0.930 . S
C942 C940 1.419 . S
C942 C943 1.362 . S
C943 H933 0.930 . S
C943 C936 1.409 . S
C943 C942 1.362 . S
H944 C950 0.930 . S
H945 C953 0.930 . S
H946 C954 0.930 . S
H947 C955 0.930 . S
H948 C958 0.930 . S
H949 C959 0.930 . S
C950 H944 0.930 . S
C950 C951 1.355 . S
C950 C952 1.415 . S
C951 C950 1.355 . S
C951 C953 1.419 . S
C952 C950 1.415 . S
C952 C957 1.425 . S
C952 C959 1.409 . S
C953 H945 0.930 . S
C953 C951 1.419 . S
C953 C954 1.362 . S
C954 H946 0.930 . S
C954 C953 1.362 . S
C954 C957 1.409 . S
C955 H947 0.930 . S
C955 C956 1.355 . S
C955 C957 1.415 . S
C956 C955 1.355 . S
C956 C958 1.419 . S
C957 C952 1.425 . S
C957 C954 1.409 . S
C957 C955 1.415 . S
C958 H948 0.930 . S
C958 C956 1.419 . S
C958 C959 1.362 . S
C959 H949 0.930 . S
C959 C952 1.409 . S
C959 C958 1.362 . S
H960 C966 0.930 . S
H961 C969 0.930 . S
H962 C970 0.930 . S
H963 C971 0.930 . S
H964 C974 0.930 . S
H965 C975 0.930 . S
C966 H960 0.930 . S
C966 C967 1.355 . S
C966 C968 1.415 . S
C967 C966 1.355 . S
C967 C969 1.419 . S
C968 C966 1.415 . S
C968 C973 1.425 . S
C968 C975 1.409 . S
C969 H961 0.930 . S
C969 C967 1.419 . S
C969 C970 1.362 . S
C970 H962 0.930 . S
C970 C969 1.362 . S
C970 C973 1.409 . S
C971 H963 0.930 . S
C971 C972 1.355 . S
C971 C973 1.415 . S
C972 C971 1.355 . S
C972 C974 1.419 . S
C973 C968 1.425 . S
C973 C970 1.409 . S
C973 C971 1.415 . S
C974 H964 0.930 . S
C974 C972 1.419 . S
C974 C975 1.362 . S
C975 H965 0.930 . S
C975 C968 1.409 . S
C975 C974 1.362 . S
H976 C982 0.930 . S
H977 C985 0.930 . S
H978 C986 0.930 . S
H979 C987 0.930 . S
H980 C990 0.930 . S
H981 C991 0.930 . S
C982 H976 0.930 . S
C982 C983 1.355 . S
C982 C984 1.415 . S
C983 C982 1.355 . S
C983 C985 1.419 . S
C984 C982 1.415 . S
C984 C989 1.425 . S
C984 C991 1.409 . S
C985 H977 0.930 . S
C985 C983 1.419 . S
C985 C986 1.362 . S
C986 H978 0.930 . S
C986 C985 1.362 . S
C986 C989 1.409 . S
C987 H979 0.930 . S
C987 C988 1.355 . S
C987 C989 1.415 . S
C988 C987 1.355 . S
C988 C990 1.419 . S
C989 C984 1.425 . S
C989 C986 1.409 . S
C989 C987 1.415 . S
C990 H980 0.930 . S
C990 C988 1.419 . S
C990 C991 1.362 . S
C991 H981 0.930 . S
C991 C984 1.409 . S
C991 C990 1.362 . S
H992 C998 0.930 . S
H993 C1001 0.930 . S
H994 C1002 0.930 . S
H995 C1003 0.930 . S
H996 C1006 0.930 . S
H997 C1007 0.930 . S
C998 H992 0.930 . S
C998 C999 1.355 . S
C998 C1000 1.415 . S
C999 C998 1.355 . S
C999 C1001 1.419 . S
C1000 C998 1.415 . S
C1000 C1005 1.425 . S
C1000 C1007 1.409 . S
C1001 H993 0.930 . S
C1001 C999 1.419 . S
C1001 C1002 1.362 . S
C1002 H994 0.930 . S
C1002 C1001 1.362 . S
C1002 C1005 1.409 . S
C1003 H995 0.930 . S
C1003 C1004 1.355 . S
C1003 C1005 1.415 . S
C1004 C1003 1.355 . S
C1004 C1006 1.419 . S
C1005 C1000 1.425 . S
C1005 C1002 1.409 . S
C1005 C1003 1.415 . S
C1006 H996 0.930 . S
C1006 C1004 1.419 . S
C1006 C1007 1.362 . S
C1007 H997 0.930 . S
C1007 C1000 1.409 . S
C1007 C1006 1.362 . S
H1008 C1014 0.930 . S
H1009 C1017 0.930 . S
H1010 C1018 0.930 . S
H1011 C1019 0.930 . S
H1012 C1022 0.930 . S
H1013 C1023 0.930 . S
C1014 H1008 0.930 . S
C1014 C1015 1.355 . S
C1014 C1016 1.415 . S
C1015 C1014 1.355 . S
C1015 C1017 1.419 . S
C1016 C1014 1.415 . S
C1016 C1021 1.425 . S
C1016 C1023 1.409 . S
C1017 H1009 0.930 . S
C1017 C1015 1.419 . S
C1017 C1018 1.362 . S
C1018 H1010 0.930 . S
C1018 C1017 1.362 . S
C1018 C1021 1.409 . S
C1019 H1011 0.930 . S
C1019 C1020 1.355 . S
C1019 C1021 1.415 . S
C1020 C1019 1.355 . S
C1020 C1022 1.419 . S
C1021 C1016 1.425 . S
C1021 C1018 1.409 . S
C1021 C1019 1.415 . S
C1022 H1012 0.930 . S
C1022 C1020 1.419 . S
C1022 C1023 1.362 . S
C1023 H1013 0.930 . S
C1023 C1016 1.409 . S
C1023 C1022 1.362 . S
H1024 C1030 0.930 . S
H1025 C1033 0.930 . S
H1026 C1034 0.930 . S
H1027 C1035 0.930 . S
H1028 C1038 0.930 . S
H1029 C1039 0.930 . S
C1030 H1024 0.930 . S
C1030 C1031 1.355 . S
C1030 C1032 1.415 . S
C1031 C1030 1.355 . S
C1031 C1033 1.419 . S
C1032 C1030 1.415 . S
C1032 C1037 1.425 . S
C1032 C1039 1.409 . S
C1033 H1025 0.930 . S
C1033 C1031 1.419 . S
C1033 C1034 1.362 . S
C1034 H1026 0.930 . S
C1034 C1033 1.362 . S
C1034 C1037 1.409 . S
C1035 H1027 0.930 . S
C1035 C1036 1.355 . S
C1035 C1037 1.415 . S
C1036 C1035 1.355 . S
C1036 C1038 1.419 . S
C1037 C1032 1.425 . S
C1037 C1034 1.409 . S
C1037 C1035 1.415 . S
C1038 H1028 0.930 . S
C1038 C1036 1.419 . S
C1038 C1039 1.362 . S
C1039 H1029 0.930 . S
C1039 C1032 1.409 . S
C1039 C1038 1.362 . S
H1040 C1046 0.930 . S
H1041 C1049 0.930 . S
H1042 C1050 0.930 . S
H1043 C1051 0.930 . S
H1044 C1054 0.930 . S
H1045 C1055 0.930 . S
C1046 H1040 0.930 . S
C1046 C1047 1.355 . S
C1046 C1048 1.415 . S
C1047 C1046 1.355 . S
C1047 C1049 1.419 . S
C1048 C1046 1.415 . S
C1048 C1053 1.425 . S
C1048 C1055 1.409 . S
C1049 H1041 0.930 . S
C1049 C1047 1.419 . S
C1049 C1050 1.362 . S
C1050 H1042 0.930 . S
C1050 C1049 1.362 . S
C1050 C1053 1.409 . S
C1051 H1043 0.930 . S
C1051 C1052 1.355 . S
C1051 C1053 1.415 . S
C1052 C1051 1.355 . S
C1052 C1054 1.419 . S
C1053 C1048 1.425 . S
C1053 C1050 1.409 . S
C1053 C1051 1.415 . S
C1054 H1044 0.930 . S
C1054 C1052 1.419 . S
C1054 C1055 1.362 . S
C1055 H1045 0.930 . S
C1055 C1048 1.409 . S
C1055 C1054 1.362 . S
H1056 C1062 0.930 . S
H1057 C1065 0.930 . S
H1058 C1066 0.930 . S
H1059 C1067 0.930 . S
H1060 C1070 0.930 . S
H1061 C1071 0.930 . S
C1062 H1056 0.930 . S
C1062 C1063 1.355 . S
C1062 C1064 1.415 . S
C1063 C1062 1.355 . S
C1063 C1065 1.419 . S
C1064 C1062 1.415 . S
C1064 C1069 1.425 . S
C1064 C1071 1.409 . S
C1065 H1057 0.930 . S
C1065 C1063 1.419 . S
C1065 C1066 1.362 . S
C1066 H1058 0.930 . S
C1066 C1065 1.362 . S
C1066 C1069 1.409 . S
C1067 H1059 0.930 . S
C1067 C1068 1.355 . S
C1067 C1069 1.415 . S
C1068 C1067 1.355 . S
C1068 C1070 1.419 . S
C1069 C1064 1.425 . S
C1069 C1066 1.409 . S
C1069 C1067 1.415 . S
C1070 H1060 0.930 . S
C1070 C1068 1.419 . S
C1070 C1071 1.362 . S
C1071 H1061 0.930 . S
C1071 C1064 1.409 . S
C1071 C1070 1.362 . S
H1072 C1078 0.930 . S
H1073 C1081 0.930 . S
H1074 C1082 0.930 . S
H1075 C1083 0.930 . S
H1076 C1086 0.930 . S
H1077 C1087 0.930 . S
C1078 H1072 0.930 . S
C1078 C1079 1.355 . S
C1078 C1080 1.415 . S
C1079 C1078 1.355 . S
C1079 C1081 1.419 . S
C1080 C1078 1.415 . S
C1080 C1085 1.425 . S
C1080 C1087 1.409 . S
C1081 H1073 0.930 . S
C1081 C1079 1.419 . S
C1081 C1082 1.362 . S
C1082 H1074 0.930 . S
C1082 C1081 1.362 . S
C1082 C1085 1.409 . S
C1083 H1075 0.930 . S
C1083 C1084 1.355 . S
C1083 C1085 1.415 . S
C1084 C1083 1.355 . S
C1084 C1086 1.419 . S
C1085 C1080 1.425 . S
C1085 C1082 1.409 . S
C1085 C1083 1.415 . S
C1086 H1076 0.930 . S
C1086 C1084 1.419 . S
C1086 C1087 1.362 . S
C1087 H1077 0.930 . S
C1087 C1080 1.409 . S
C1087 C1086 1.362 . S
H1088 C1094 0.930 . S
H1089 C1097 0.930 . S
H1090 C1098 0.930 . S
H1091 C1099 0.930 . S
H1092 C1102 0.930 . S
H1093 C1103 0.930 . S
C1094 H1088 0.930 . S
C1094 C1095 1.355 . S
C1094 C1096 1.415 . S
C1095 C1094 1.355 . S
C1095 C1097 1.419 . S
C1096 C1094 1.415 . S
C1096 C1101 1.425 . S
C1096 C1103 1.409 . S
C1097 H1089 0.930 . S
C1097 C1095 1.419 . S
C1097 C1098 1.362 . S
C1098 H1090 0.930 . S
C1098 C1097 1.362 . S
C1098 C1101 1.409 . S
C1099 H1091 0.930 . S
C1099 C1100 1.355 . S
C1099 C1101 1.415 . S
C1100 C1099 1.355 . S
C1100 C1102 1.419 . S
C1101 C1096 1.425 . S
C1101 C1098 1.409 . S
C1101 C1099 1.415 . S
C1102 H1092 0.930 . S
C1102 C1100 1.419 . S
C1102 C1103 1.362 . S
C1103 H1093 0.930 . S
C1103 C1096 1.409 . S
C1103 C1102 1.362 . S
H1104 C1110 0.930 . S
H1105 C1113 0.930 . S
H1106 C1114 0.930 . S
H1107 C1115 0.930 . S
H1108 C1118 0.930 . S
H1109 C1119 0.930 . S
C1110 H1104 0.930 . S
C1110 C1111 1.355 . S
C1110 C1112 1.415 . S
C1111 C1110 1.355 . S
C1111 C1113 1.419 . S
C1112 C1110 1.415 . S
C1112 C1117 1.425 . S
C1112 C1119 1.409 . S
C1113 H1105 0.930 . S
C1113 C1111 1.419 . S
C1113 C1114 1.362 . S
C1114 H1106 0.930 . S
C1114 C1113 1.362 . S
C1114 C1117 1.409 . S
C1115 H1107 0.930 . S
C1115 C1116 1.355 . S
C1115 C1117 1.415 . S
C1116 C1115 1.355 . S
C1116 C1118 1.419 . S
C1117 C1112 1.425 . S
C1117 C1114 1.409 . S
C1117 C1115 1.415 . S
C1118 H1108 0.930 . S
C1118 C1116 1.419 . S
C1118 C1119 1.362 . S
C1119 H1109 0.930 . S
C1119 C1112 1.409 . S
C1119 C1118 1.362 . S
H1120 C1126 0.930 . S
H1121 C1129 0.930 . S
H1122 C1130 0.930 . S
H1123 C1131 0.930 . S
H1124 C1134 0.930 . S
H1125 C1135 0.930 . S
C1126 H1120 0.930 . S
C1126 C1127 1.355 . S
C1126 C1128 1.415 . S
C1127 C1126 1.355 . S
C1127 C1129 1.419 . S
C1128 C1126 1.415 . S
C1128 C1133 1.425 . S
C1128 C1135 1.409 . S
C1129 H1121 0.930 . S
C1129 C1127 1.419 . S
C1129 C1130 1.362 . S
C1130 H1122 0.930 . S
C1130 C1129 1.362 . S
C1130 C1133 1.409 . S
C1131 H1123 0.930 . S
C1131 C1132 1.355 . S
C1131 C1133 1.415 . S
C1132 C1131 1.355 . S
C1132 C1134 1.419 . S
C1133 C1128 1.425 . S
C1133 C1130 1.409 . S
C1133 C1131 1.415 . S
C1134 H1124 0.930 . S
C1134 C1132 1.419 . S
C1134 C1135 1.362 . S
C1135 H1125 0.930 . S
C1135 C1128 1.409 . S
C1135 C1134 1.362 . S
H1136 C1142 0.930 . S
H1137 C1145 0.930 . S
H1138 C1146 0.930 . S
H1139 C1147 0.930 . S
H1140 C1150 0.930 . S
H1141 C1151 0.930 . S
C1142 H1136 0.930 . S
C1142 C1143 1.355 . S
C1142 C1144 1.415 . S
C1143 C1142 1.355 . S
C1143 C1145 1.419 . S
C1144 C1142 1.415 . S
C1144 C1149 1.425 . S
C1144 C1151 1.409 . S
C1145 H1137 0.930 . S
C1145 C1143 1.419 . S
C1145 C1146 1.362 . S
C1146 H1138 0.930 . S
C1146 C1145 1.362 . S
C1146 C1149 1.409 . S
C1147 H1139 0.930 . S
C1147 C1148 1.355 . S
C1147 C1149 1.415 . S
C1148 C1147 1.355 . S
C1148 C1150 1.419 . S
C1149 C1144 1.425 . S
C1149 C1146 1.409 . S
C1149 C1147 1.415 . S
C1150 H1140 0.930 . S
C1150 C1148 1.419 . S
C1150 C1151 1.362 . S
C1151 H1141 0.930 . S
C1151 C1144 1.409 . S
C1151 C1150 1.362 . S
H1152 C1158 0.930 . S
H1153 C1161 0.930 . S
H1154 C1162 0.930 . S
H1155 C1163 0.930 . S
H1156 C1166 0.930 . S
H1157 C1167 0.930 . S
C1158 H1152 0.930 . S
C1158 C1159 1.355 . S
C1158 C1160 1.415 . S
C1159 C1158 1.355 . S
C1159 C1161 1.419 . S
C1160 C1158 1.415 . S
C1160 C1165 1.425 . S
C1160 C1167 1.409 . S
C1161 H1153 0.930 . S
C1161 C1159 1.419 . S
C1161 C1162 1.362 . S
C1162 H1154 0.930 . S
C1162 C1161 1.362 . S
C1162 C1165 1.409 . S
C1163 H1155 0.930 . S
C1163 C1164 1.355 . S
C1163 C1165 1.415 . S
C1164 C1163 1.355 . S
C1164 C1166 1.419 . S
C1165 C1160 1.425 . S
C1165 C1162 1.409 . S
C1165 C1163 1.415 . S
C1166 H1156 0.930 . S
C1166 C1164 1.419 . S
C1166 C1167 1.362 . S
C1167 H1157 0.930 . S
C1167 C1160 1.409 . S
C1167 C1166 1.362 . S
H1168 C1174 0.930 . S
H1169 C1177 0.930 . S
H1170 C1178 0.930 . S
H1171 C1179 0.930 . S
H1172 C1182 0.930 . S
H1173 C1183 0.930 . S
C1174 H1168 0.930 . S
C1174 C1175 1.355 . S
C1174 C1176 1.415 . S
C1175 C1174 1.355 . S
C1175 C1177 1.419 . S
C1176 C1174 1.415 . S
C1176 C1181 1.425 . S
C1176 C1183 1.409 . S
C1177 H1169 0.930 . S
C1177 C1175 1.419 . S
C1177 C1178 1.362 . S
C1178 H1170 0.930 . S
C1178 C1177 1.362 . S
C1178 C1181 1.409 . S
C1179 H1171 0.930 . S
C1179 C1180 1.355 . S
C1179 C1181 1.415 . S
C1180 C1179 1.355 . S
C1180 C1182 1.419 . S
C1181 C1176 1.425 . S
C1181 C1178 1.409 . S
C1181 C1179 1.415 . S
C1182 H1172 0.930 . S
C1182 C1180 1.419 . S
C1182 C1183 1.362 . S
C1183 H1173 0.930 . S
C1183 C1176 1.409 . S
C1183 C1182 1.362 . S
H1184 C1190 0.930 . S
H1185 C1193 0.930 . S
H1186 C1194 0.930 . S
H1187 C1195 0.930 . S
H1188 C1198 0.930 . S
H1189 C1199 0.930 . S
C1190 H1184 0.930 . S
C1190 C1191 1.355 . S
C1190 C1192 1.415 . S
C1191 C1190 1.355 . S
C1191 C1193 1.419 . S
C1192 C1190 1.415 . S
C1192 C1197 1.425 . S
C1192 C1199 1.409 . S
C1193 H1185 0.930 . S
C1193 C1191 1.419 . S
C1193 C1194 1.362 . S
C1194 H1186 0.930 . S
C1194 C1193 1.362 . S
C1194 C1197 1.409 . S
C1195 H1187 0.930 . S
C1195 C1196 1.355 . S
C1195 C1197 1.415 . S
C1196 C1195 1.355 . S
C1196 C1198 1.419 . S
C1197 C1192 1.425 . S
C1197 C1194 1.409 . S
C1197 C1195 1.415 . S
C1198 H1188 0.930 . S
C1198 C1196 1.419 . S
C1198 C1199 1.362 . S
C1199 H1189 0.930 . S
C1199 C1192 1.409 . S
C1199 C1198 1.362 . S
H1200 C1206 0.930 . S
H1201 C1209 0.930 . S
H1202 C1210 0.930 . S
H1203 C1211 0.930 . S
H1204 C1214 0.930 . S
H1205 C1215 0.930 . S
C1206 H1200 0.930 . S
C1206 C1207 1.355 . S
C1206 C1208 1.415 . S
C1207 C1206 1.355 . S
C1207 C1209 1.419 . S
C1208 C1206 1.415 . S
C1208 C1213 1.425 . S
C1208 C1215 1.409 . S
C1209 H1201 0.930 . S
C1209 C1207 1.419 . S
C1209 C1210 1.362 . S
C1210 H1202 0.930 . S
C1210 C1209 1.362 . S
C1210 C1213 1.409 . S
C1211 H1203 0.930 . S
C1211 C1212 1.355 . S
C1211 C1213 1.415 . S
C1212 C1211 1.355 . S
C1212 C1214 1.419 . S
C1213 C1208 1.425 . S
C1213 C1210 1.409 . S
C1213 C1211 1.415 . S
C1214 H1204 0.930 . S
C1214 C1212 1.419 . S
C1214 C1215 1.362 . S
C1215 H1205 0.930 . S
C1215 C1208 1.409 . S
C1215 C1214 1.362 . S
H1216 C1222 0.930 . S
H1217 C1225 0.930 . S
H1218 C1226 0.930 . S
H1219 C1227 0.930 . S
H1220 C1230 0.930 . S
H1221 C1231 0.930 . S
C1222 H1216 0.930 . S
C1222 C1223 1.355 . S
C1222 C1224 1.415 . S
C1223 C1222 1.355 . S
C1223 C1225 1.419 . S
C1224 C1222 1.415 . S
C1224 C1229 1.425 . S
C1224 C1231 1.409 . S
C1225 H1217 0.930 . S
C1225 C1223 1.419 . S
C1225 C1226 1.362 . S
C1226 H1218 0.930 . S
C1226 C1225 1.362 . S
C1226 C1229 1.409 . S
C1227 H1219 0.930 . S
C1227 C1228 1.355 . S
C1227 C1229 1.415 . S
C1228 C1227 1.355 . S
C1228 C1230 1.419 . S
C1229 C1224 1.425 . S
C1229 C1226 1.409 . S
C1229 C1227 1.415 . S
C1230 H1220 0.930 . S
C1230 C1228 1.419 . S
C1230 C1231 1.362 . S
C1231 H1221 0.930 . S
C1231 C1224 1.409 . S
C1231 C1230 1.362 . S
H1232 C1238 0.930 . S
H1233 C1241 0.930 . S
H1234 C1242 0.930 . S
H1235 C1243 0.930 . S
H1236 C1246 0.930 . S
H1237 C1247 0.930 . S
C1238 H1232 0.930 . S
C1238 C1239 1.355 . S
C1238 C1240 1.415 . S
C1239 C1238 1.355 . S
C1239 C1241 1.419 . S
C1240 C1238 1.415 . S
C1240 C1245 1.425 . S
C1240 C1247 1.409 . S
C1241 H1233 0.930 . S
C1241 C1239 1.419 . S
C1241 C1242 1.362 . S
C1242 H1234 0.930 . S
C1242 C1241 1.362 . S
C1242 C1245 1.409 . S
C1243 H1235 0.930 . S
C1243 C1244 1.355 . S
C1243 C1245 1.415 . S
C1244 C1243 1.355 . S
C1244 C1246 1.419 . S
C1245 C1240 1.425 . S
C1245 C1242 1.409 . S
C1245 C1243 1.415 . S
C1246 H1236 0.930 . S
C1246 C1244 1.419 . S
C1246 C1247 1.362 . S
C1247 H1237 0.930 . S
C1247 C1240 1.409 . S
C1247 C1246 1.362 . S
H1248 C1254 0.930 . S
H1249 C1257 0.930 . S
H1250 C1258 0.930 . S
H1251 C1259 0.930 . S
H1252 C1262 0.930 . S
H1253 C1263 0.930 . S
C1254 H1248 0.930 . S
C1254 C1255 1.355 . S
C1254 C1256 1.415 . S
C1255 C1254 1.355 . S
C1255 C1257 1.419 . S
C1256 C1254 1.415 . S
C1256 C1261 1.425 . S
C1256 C1263 1.409 . S
C1257 H1249 0.930 . S
C1257 C1255 1.419 . S
C1257 C1258 1.362 . S
C1258 H1250 0.930 . S
C1258 C1257 1.362 . S
C1258 C1261 1.409 . S
C1259 H1251 0.930 . S
C1259 C1260 1.355 . S
C1259 C1261 1.415 . S
C1260 C1259 1.355 . S
C1260 C1262 1.419 . S
C1261 C1256 1.425 . S
C1261 C1258 1.409 . S
C1261 C1259 1.415 . S
C1262 H1252 0.930 . S
C1262 C1260 1.419 . S
C1262 C1263 1.362 . S
C1263 H1253 0.930 . S
C1263 C1256 1.409 . S
C1263 C1262 1.362 . S
H1264 C1270 0.930 . S
H1265 C1273 0.930 . S
H1266 C1274 0.930 . S
H1267 C1275 0.930 . S
H1268 C1278 0.930 . S
H1269 C1279 0.930 . S
C1270 H1264 0.930 . S
C1270 C1271 1.355 . S
C1270 C1272 1.415 . S
C1271 C1270 1.355 . S
C1271 C1273 1.419 . S
C1272 C1270 1.415 . S
C1272 C1277 1.425 . S
C1272 C1279 1.409 . S
C1273 H1265 0.930 . S
C1273 C1271 1.419 . S
C1273 C1274 1.362 . S
C1274 H1266 0.930 . S
C1274 C1273 1.362 . S
C1274 C1277 1.409 . S
C1275 H1267 0.930 . S
C1275 C1276 1.355 . S
C1275 C1277 1.415 . S
C1276 C1275 1.355 . S
C1276 C1278 1.419 . S
C1277 C1272 1.425 . S
C1277 C1274 1.409 . S
C1277 C1275 1.415 . S
C1278 H1268 0.930 . S
C1278 C1276 1.419 . S
C1278 C1279 1.362 . S
C1279 H1269 0.930 . S
C1279 C1272 1.409 . S
C1279 C1278 1.362 . S
H1280 C1286 0.930 . S
H1281 C1289 0.930 . S
H1282 C1290 0.930 . S
H1283 C1291 0.930 . S
H1284 C1294 0.930 . S
H1285 C1295 0.930 . S
C1286 H1280 0.930 . S
C1286 C1287 1.355 . S
C1286 C1288 1.415 . S
C1287 C1286 1.355 . S
C1287 C1289 1.419 . S
C1288 C1286 1.415 . S
C1288 C1293 1.425 . S
C1288 C1295 1.409 . S
C1289 H1281 0.930 . S
C1289 C1287 1.419 . S
C1289 C1290 1.362 . S
C1290 H1282 0.930 . S
C1290 C1289 1.362 . S
C1290 C1293 1.409 . S
C1291 H1283 0.930 . S
C1291 C1292 1.355 . S
C1291 C1293 1.415 . S
C1292 C1291 1.355 . S
C1292 C1294 1.419 . S
C1293 C1288 1.425 . S
C1293 C1290 1.409 . S
C1293 C1291 1.415 . S
C1294 H1284 0.930 . S
C1294 C1292 1.419 . S
C1294 C1295 1.362 . S
C1295 H1285 0.930 . S
C1295 C1288 1.409 . S
C1295 C1294 1.362 . S
H1296 C1302 0.930 . S
H1297 C1305 0.930 . S
H1298 C1306 0.930 . S
H1299 C1307 0.930 . S
H1300 C1310 0.930 . S
H1301 C1311 0.930 . S
C1302 H1296 0.930 . S
C1302 C1303 1.355 . S
C1302 C1304 1.415 1_455 S
C1303 C1302 1.355 . S
C1303 C1305 1.419 1_455 S
C1304 C1302 1.415 1_655 S
C1304 C1309 1.425 . S
C1304 C1311 1.409 1_655 S
C1305 H1297 0.930 . S
C1305 C1303 1.419 1_655 S
C1305 C1306 1.362 . S
C1306 H1298 0.930 . S
C1306 C1305 1.362 . S
C1306 C1309 1.409 . S
C1307 H1299 0.930 . S
C1307 C1308 1.355 . S
C1307 C1309 1.415 . S
C1308 C1307 1.355 . S
C1308 C1310 1.419 . S
C1309 C1304 1.425 . S
C1309 C1306 1.409 . S
C1309 C1307 1.415 . S
C1310 H1300 0.930 . S
C1310 C1308 1.419 . S
C1310 C1311 1.362 1_655 S
C1311 H1301 0.930 . S
C1311 C1304 1.409 1_455 S
C1311 C1310 1.362 1_455 S
H1312 C1318 0.930 . S
H1313 C1321 0.930 . S
H1314 C1322 0.930 . S
H1315 C1323 0.930 . S
H1316 C1326 0.930 . S
H1317 C1327 0.930 . S
C1318 H1312 0.930 . S
C1318 C1319 1.355 . S
C1318 C1320 1.415 . S
C1319 C1318 1.355 . S
C1319 C1321 1.419 . S
C1320 C1318 1.415 . S
C1320 C1325 1.425 . S
C1320 C1327 1.409 . S
C1321 H1313 0.930 . S
C1321 C1319 1.419 . S
C1321 C1322 1.362 . S
C1322 H1314 0.930 . S
C1322 C1321 1.362 . S
C1322 C1325 1.409 . S
C1323 H1315 0.930 . S
C1323 C1324 1.355 . S
C1323 C1325 1.415 . S
C1324 C1323 1.355 . S
C1324 C1326 1.419 . S
C1325 C1320 1.425 . S
C1325 C1322 1.409 . S
C1325 C1323 1.415 . S
C1326 H1316 0.930 . S
C1326 C1324 1.419 . S
C1326 C1327 1.362 . S
C1327 H1317 0.930 . S
C1327 C1320 1.409 . S
C1327 C1326 1.362 . S
H1328 C1334 0.930 . S
H1329 C1337 0.930 . S
H1330 C1338 0.930 . S
H1331 C1339 0.930 . S
H1332 C1342 0.930 . S
H1333 C1343 0.930 . S
C1334 H1328 0.930 . S
C1334 C1335 1.355 . S
C1334 C1336 1.415 . S
C1335 C1334 1.355 . S
C1335 C1337 1.419 . S
C1336 C1334 1.415 . S
C1336 C1341 1.425 . S
C1336 C1343 1.409 . S
C1337 H1329 0.930 . S
C1337 C1335 1.419 . S
C1337 C1338 1.362 . S
C1338 H1330 0.930 . S
C1338 C1337 1.362 . S
C1338 C1341 1.409 . S
C1339 H1331 0.930 . S
C1339 C1340 1.355 . S
C1339 C1341 1.415 . S
C1340 C1339 1.355 . S
C1340 C1342 1.419 . S
C1341 C1336 1.425 . S
C1341 C1338 1.409 . S
C1341 C1339 1.415 . S
C1342 H1332 0.930 . S
C1342 C1340 1.419 . S
C1342 C1343 1.362 . S
C1343 H1333 0.930 . S
C1343 C1336 1.409 . S
C1343 C1342 1.362 . S
H1344 C1350 0.930 . S
H1345 C1353 0.930 . S
H1346 C1354 0.930 . S
H1347 C1355 0.930 . S
H1348 C1358 0.930 . S
H1349 C1359 0.930 . S
C1350 H1344 0.930 . S
C1350 C1351 1.355 . S
C1350 C1352 1.415 . S
C1351 C1350 1.355 . S
C1351 C1353 1.419 . S
C1352 C1350 1.415 . S
C1352 C1357 1.425 . S
C1352 C1359 1.409 1_455 S
C1353 H1345 0.930 . S
C1353 C1351 1.419 . S
C1353 C1354 1.362 . S
C1354 H1346 0.930 . S
C1354 C1353 1.362 . S
C1354 C1357 1.409 . S
C1355 H1347 0.930 . S
C1355 C1356 1.355 1_455 S
C1355 C1357 1.415 . S
C1356 C1355 1.355 1_655 S
C1356 C1358 1.419 . S
C1357 C1352 1.425 . S
C1357 C1354 1.409 . S
C1357 C1355 1.415 . S
C1358 H1348 0.930 . S
C1358 C1356 1.419 . S
C1358 C1359 1.363 . S
C1359 H1349 0.930 . S
C1359 C1352 1.409 1_655 S
C1359 C1358 1.363 . S
H1360 C1366 0.930 . S
H1361 C1369 0.930 . S
H1362 C1370 0.930 . S
H1363 C1371 0.930 . S
H1364 C1374 0.930 . S
H1365 C1375 0.930 . S
C1366 H1360 0.930 . S
C1366 C1367 1.355 . S
C1366 C1368 1.415 1_545 S
C1367 C1366 1.355 . S
C1367 C1369 1.419 . S
C1368 C1366 1.415 1_565 S
C1368 C1373 1.425 . S
C1368 C1375 1.409 . S
C1369 H1361 0.930 . S
C1369 C1367 1.419 . S
C1369 C1370 1.362 1_545 S
C1370 H1362 0.930 . S
C1370 C1369 1.362 1_565 S
C1370 C1373 1.409 . S
C1371 H1363 0.930 . S
C1371 C1372 1.355 . S
C1371 C1373 1.415 . S
C1372 C1371 1.355 . S
C1372 C1374 1.419 . S
C1373 C1368 1.425 . S
C1373 C1370 1.409 . S
C1373 C1371 1.415 . S
C1374 H1364 0.930 . S
C1374 C1372 1.419 . S
C1374 C1375 1.362 . S
C1375 H1365 0.930 . S
C1375 C1368 1.409 . S
C1375 C1374 1.362 . S
H1376 C1382 0.930 . S
H1377 C1385 0.930 . S
H1378 C1386 0.930 . S
H1379 C1387 0.930 . S
H1380 C1390 0.930 . S
H1381 C1391 0.930 . S
C1382 H1376 0.930 . S
C1382 C1383 1.355 . S
C1382 C1384 1.415 . S
C1383 C1382 1.355 . S
C1383 C1385 1.419 . S
C1384 C1382 1.415 . S
C1384 C1389 1.425 . S
C1384 C1391 1.409 . S
C1385 H1377 0.930 . S
C1385 C1383 1.419 . S
C1385 C1386 1.362 . S
C1386 H1378 0.930 . S
C1386 C1385 1.362 . S
C1386 C1389 1.409 . S
C1387 H1379 0.930 . S
C1387 C1388 1.355 . S
C1387 C1389 1.415 1_565 S
C1388 C1387 1.355 . S
C1388 C1390 1.419 . S
C1389 C1384 1.425 . S
C1389 C1386 1.409 . S
C1389 C1387 1.415 1_545 S
C1390 H1380 0.930 . S
C1390 C1388 1.419 . S
C1390 C1391 1.362 1_565 S
C1391 H1381 0.930 . S
C1391 C1384 1.409 . S
C1391 C1390 1.362 1_545 S
H1392 C1398 0.930 . S
H1393 C1401 0.930 . S
H1394 C1402 0.930 . S
H1395 C1403 0.930 . S
H1396 C1406 0.930 . S
H1397 C1407 0.930 . S
C1398 H1392 0.930 . S
C1398 C1399 1.355 . S
C1398 C1400 1.415 . S
C1399 C1398 1.355 . S
C1399 C1401 1.419 . S
C1400 C1398 1.415 . S
C1400 C1405 1.425 . S
C1400 C1407 1.409 . S
C1401 H1393 0.930 . S
C1401 C1399 1.419 . S
C1401 C1402 1.362 . S
C1402 H1394 0.930 . S
C1402 C1401 1.362 . S
C1402 C1405 1.409 . S
C1403 H1395 0.930 . S
C1403 C1404 1.355 . S
C1403 C1405 1.415 . S
C1404 C1403 1.355 . S
C1404 C1406 1.419 . S
C1405 C1400 1.425 . S
C1405 C1402 1.409 . S
C1405 C1403 1.415 . S
C1406 H1396 0.930 . S
C1406 C1404 1.419 . S
C1406 C1407 1.362 . S
C1407 H1397 0.930 . S
C1407 C1400 1.409 . S
C1407 C1406 1.362 . S
H1408 C1414 0.930 . S
H1409 C1417 0.930 . S
H1410 C1418 0.930 . S
H1411 C1419 0.930 . S
H1412 C1422 0.930 . S
H1413 C1423 0.930 . S
C1414 H1408 0.930 . S
C1414 C1415 1.355 . S
C1414 C1416 1.415 . S
C1415 C1414 1.355 . S
C1415 C1417 1.419 . S
C1416 C1414 1.415 . S
C1416 C1421 1.425 . S
C1416 C1423 1.409 . S
C1417 H1409 0.930 . S
C1417 C1415 1.419 . S
C1417 C1418 1.362 . S
C1418 H1410 0.930 . S
C1418 C1417 1.362 . S
C1418 C1421 1.409 . S
C1419 H1411 0.930 . S
C1419 C1420 1.355 . S
C1419 C1421 1.415 . S
C1420 C1419 1.355 . S
C1420 C1422 1.419 . S
C1421 C1416 1.425 . S
C1421 C1418 1.409 . S
C1421 C1419 1.415 . S
C1422 H1412 0.930 . S
C1422 C1420 1.419 . S
C1422 C1423 1.362 . S
C1423 H1413 0.930 . S
C1423 C1416 1.409 . S
C1423 C1422 1.362 . S
H1424 C1430 0.930 . S
H1425 C1433 0.930 . S
H1426 C1434 0.930 . S
H1427 C1435 0.930 . S
H1428 C1438 0.944 . S
H1429 C1439 0.930 . S
C1430 H1424 0.930 . S
C1430 C1431 1.355 . S
C1430 C1432 1.416 . S
C1431 C1430 1.355 . S
C1431 C1433 1.419 1_554 S
C1432 C1430 1.416 . S
C1432 C1437 1.422 1_554 S
C1432 C1439 1.410 . S
C1433 H1425 0.930 . S
C1433 C1431 1.419 1_556 S
C1433 C1434 1.362 . S
C1434 H1426 0.930 . S
C1434 C1433 1.362 . S
C1434 C1437 1.409 . S
C1435 H1427 0.930 . S
C1435 C1436 1.355 . S
C1435 C1437 1.415 . S
C1436 C1435 1.355 . S
C1436 C1438 1.419 . S
C1437 C1432 1.422 1_556 S
C1437 C1434 1.409 . S
C1437 C1435 1.415 . S
C1438 H1428 0.944 . S
C1438 C1436 1.419 . S
C1438 C1439 1.362 1_556 S
C1439 H1429 0.930 . S
C1439 C1432 1.410 . S
C1439 C1438 1.362 1_554 S
H1440 C1446 0.930 . S
H1441 C1449 0.930 . S
H1442 C1450 0.930 . S
H1443 C1451 0.930 . S
H1444 C1454 0.930 . S
H1445 C1455 0.930 . S
C1446 H1440 0.930 . S
C1446 C1447 1.355 1_554 S
C1446 C1448 1.415 . S
C1447 C1446 1.355 1_556 S
C1447 C1449 1.419 . S
C1448 C1446 1.415 . S
C1448 C1453 1.425 . S
C1448 C1455 1.409 . S
C1449 H1441 0.930 . S
C1449 C1447 1.419 . S
C1449 C1450 1.362 . S
C1450 H1442 0.930 . S
C1450 C1449 1.362 . S
C1450 C1453 1.409 1_556 S
C1451 H1443 0.930 . S
C1451 C1452 1.355 . S
C1451 C1453 1.415 . S
C1452 C1451 1.355 . S
C1452 C1454 1.419 . S
C1453 C1448 1.425 . S
C1453 C1450 1.409 1_554 S
C1453 C1451 1.415 . S
C1454 H1444 0.930 . S
C1454 C1452 1.419 . S
C1454 C1455 1.362 . S
C1455 H1445 0.930 . S
C1455 C1448 1.409 . S
C1455 C1454 1.362 . S
H1456 C1462 0.930 . S
H1457 C1465 0.930 . S
H1458 C1466 0.930 . S
H1459 C1467 0.930 . S
H1460 C1470 0.930 . S
H1461 C1471 0.930 . S
C1462 H1456 0.930 . S
C1462 C1463 1.355 . S
C1462 C1464 1.415 . S
C1463 C1462 1.355 . S
C1463 C1465 1.419 . S
C1464 C1462 1.415 . S
C1464 C1469 1.425 . S
C1464 C1471 1.409 . S
C1465 H1457 0.930 . S
C1465 C1463 1.419 . S
C1465 C1466 1.362 . S
C1466 H1458 0.930 . S
C1466 C1465 1.362 . S
C1466 C1469 1.409 . S
C1467 H1459 0.930 . S
C1467 C1468 1.355 . S
C1467 C1469 1.415 . S
C1468 C1467 1.355 . S
C1468 C1470 1.419 . S
C1469 C1464 1.425 . S
C1469 C1466 1.409 . S
C1469 C1467 1.415 . S
C1470 H1460 0.930 . S
C1470 C1468 1.419 . S
C1470 C1471 1.362 . S
C1471 H1461 0.930 . S
C1471 C1464 1.409 . S
C1471 C1470 1.362 . S
H1472 C1478 0.930 . S
H1473 C1481 0.930 . S
H1474 C1482 0.930 . S
H1475 C1483 0.930 . S
H1476 C1486 0.930 . S
H1477 C1487 0.930 . S
C1478 H1472 0.930 . S
C1478 C1479 1.355 . S
C1478 C1480 1.415 . S
C1479 C1478 1.355 . S
C1479 C1481 1.419 . S
C1480 C1478 1.415 . S
C1480 C1485 1.425 . S
C1480 C1487 1.409 . S
C1481 H1473 0.930 . S
C1481 C1479 1.419 . S
C1481 C1482 1.362 . S
C1482 H1474 0.930 . S
C1482 C1481 1.362 . S
C1482 C1485 1.409 . S
C1483 H1475 0.930 . S
C1483 C1484 1.355 . S
C1483 C1485 1.415 . S
C1484 C1483 1.355 . S
C1484 C1486 1.419 . S
C1485 C1480 1.425 . S
C1485 C1482 1.409 . S
C1485 C1483 1.415 . S
C1486 H1476 0.930 . S
C1486 C1484 1.419 . S
C1486 C1487 1.362 . S
C1487 H1477 0.930 . S
C1487 C1480 1.409 . S
C1487 C1486 1.362 . S
H1488 C1494 0.930 . S
H1489 C1497 0.930 . S
H1490 C1498 0.930 . S
H1491 C1499 0.930 . S
H1492 C1502 0.930 . S
H1493 C1503 0.930 1_655 S
C1494 H1488 0.930 . S
C1494 C1495 1.355 . S
C1494 C1496 1.415 1_655 S
C1495 C1494 1.355 . S
C1495 C1497 1.419 1_655 S
C1496 C1494 1.415 1_455 S
C1496 C1501 1.425 . S
C1496 C1503 1.409 . S
C1497 H1489 0.930 . S
C1497 C1495 1.419 1_455 S
C1497 C1498 1.362 . S
C1498 H1490 0.930 . S
C1498 C1497 1.362 . S
C1498 C1501 1.409 . S
C1499 H1491 0.930 . S
C1499 C1500 1.355 . S
C1499 C1501 1.415 . S
C1500 C1499 1.355 . S
C1500 C1502 1.419 . S
C1501 C1496 1.425 . S
C1501 C1498 1.409 . S
C1501 C1499 1.415 . S
C1502 H1492 0.930 . S
C1502 C1500 1.419 . S
C1502 C1503 1.362 . S
C1503 H1493 0.930 1_455 S
C1503 C1496 1.409 . S
C1503 C1502 1.362 . S
H1504 C1510 0.930 . S
H1505 C1513 0.930 . S
H1506 C1514 0.930 . S
H1507 C1515 0.930 . S
H1508 C1518 0.930 . S
H1509 C1519 0.930 . S
C1510 H1504 0.930 . S
C1510 C1511 1.355 . S
C1510 C1512 1.415 . S
C1511 C1510 1.355 . S
C1511 C1513 1.419 . S
C1512 C1510 1.415 . S
C1512 C1517 1.425 . S
C1512 C1519 1.409 . S
C1513 H1505 0.930 . S
C1513 C1511 1.419 . S
C1513 C1514 1.362 . S
C1514 H1506 0.930 . S
C1514 C1513 1.362 . S
C1514 C1517 1.409 . S
C1515 H1507 0.930 . S
C1515 C1516 1.355 . S
C1515 C1517 1.415 . S
C1516 C1515 1.355 . S
C1516 C1518 1.419 . S
C1517 C1512 1.425 . S
C1517 C1514 1.409 . S
C1517 C1515 1.415 . S
C1518 H1508 0.930 . S
C1518 C1516 1.419 . S
C1518 C1519 1.362 . S
C1519 H1509 0.930 . S
C1519 C1512 1.409 . S
C1519 C1518 1.362 . S
H1520 C1526 0.930 . S
H1521 C1529 0.930 . S
H1522 C1530 0.930 . S
H1523 C1531 0.930 . S
H1524 C1534 0.930 . S
H1525 C1535 0.930 . S
C1526 H1520 0.930 . S
C1526 C1527 1.355 . S
C1526 C1528 1.415 . S
C1527 C1526 1.355 . S
C1527 C1529 1.419 . S
C1528 C1526 1.415 . S
C1528 C1533 1.425 . S
C1528 C1535 1.409 . S
C1529 H1521 0.930 . S
C1529 C1527 1.419 . S
C1529 C1530 1.362 . S
C1530 H1522 0.930 . S
C1530 C1529 1.362 . S
C1530 C1533 1.409 . S
C1531 H1523 0.930 . S
C1531 C1532 1.355 . S
C1531 C1533 1.415 . S
C1532 C1531 1.355 . S
C1532 C1534 1.419 . S
C1533 C1528 1.425 . S
C1533 C1530 1.409 . S
C1533 C1531 1.415 . S
C1534 H1524 0.930 . S
C1534 C1532 1.419 . S
C1534 C1535 1.362 . S
C1535 H1525 0.930 . S
C1535 C1528 1.409 . S
C1535 C1534 1.362 . S
H1536 C1542 0.930 . S
H1537 C1545 0.930 . S
H1538 C1546 0.930 . S
H1539 C1547 0.930 . S
H1540 C1550 0.930 . S
H1541 C1551 0.930 . S
C1542 H1536 0.930 . S
C1542 C1543 1.355 . S
C1542 C1544 1.415 . S
C1543 C1542 1.355 . S
C1543 C1545 1.419 . S
C1544 C1542 1.415 . S
C1544 C1549 1.425 . S
C1544 C1551 1.409 . S
C1545 H1537 0.930 . S
C1545 C1543 1.419 . S
C1545 C1546 1.362 . S
C1546 H1538 0.930 . S
C1546 C1545 1.362 . S
C1546 C1549 1.409 . S
C1547 H1539 0.930 . S
C1547 C1548 1.355 . S
C1547 C1549 1.415 1_455 S
C1548 C1547 1.355 . S
C1548 C1550 1.419 . S
C1549 C1544 1.425 . S
C1549 C1546 1.409 . S
C1549 C1547 1.415 1_655 S
C1550 H1540 0.930 . S
C1550 C1548 1.419 . S
C1550 C1551 1.362 1_455 S
C1551 H1541 0.930 . S
C1551 C1544 1.409 . S
C1551 C1550 1.362 1_655 S
H1552 C1558 0.930 . S
H1553 C1561 0.930 . S
H1554 C1562 0.930 . S
H1555 C1563 0.930 . S
H1556 C1566 0.930 . S
H1557 C1567 0.930 . S
C1558 H1552 0.930 . S
C1558 C1559 1.355 1_545 S
C1558 C1560 1.415 . S
C1559 C1558 1.355 1_565 S
C1559 C1561 1.419 . S
C1560 C1558 1.415 . S
C1560 C1565 1.425 . S
C1560 C1567 1.409 . S
C1561 H1553 0.930 . S
C1561 C1559 1.419 . S
C1561 C1562 1.362 . S
C1562 H1554 0.930 . S
C1562 C1561 1.362 . S
C1562 C1565 1.409 1_565 S
C1563 H1555 0.930 . S
C1563 C1564 1.355 . S
C1563 C1565 1.415 . S
C1564 C1563 1.355 . S
C1564 C1566 1.419 . S
C1565 C1560 1.425 . S
C1565 C1562 1.409 1_545 S
C1565 C1563 1.415 . S
C1566 H1556 0.930 . S
C1566 C1564 1.419 . S
C1566 C1567 1.362 . S
C1567 H1557 0.930 . S
C1567 C1560 1.409 . S
C1567 C1566 1.362 . S
H1568 C1574 0.930 . S
H1569 C1577 0.930 . S
H1570 C1578 0.930 . S
H1571 C1579 0.930 . S
H1572 C1582 0.930 . S
H1573 C1583 0.930 . S
C1574 H1568 0.930 . S
C1574 C1575 1.355 1_565 S
C1574 C1576 1.415 . S
C1575 C1574 1.355 1_545 S
C1575 C1577 1.419 . S
C1576 C1574 1.415 . S
C1576 C1581 1.425 . S
C1576 C1583 1.409 . S
C1577 H1569 0.930 . S
C1577 C1575 1.419 . S
C1577 C1578 1.362 . S
C1578 H1570 0.930 . S
C1578 C1577 1.362 . S
C1578 C1581 1.409 1_545 S
C1579 H1571 0.930 . S
C1579 C1580 1.355 . S
C1579 C1581 1.415 . S
C1580 C1579 1.355 . S
C1580 C1582 1.419 . S
C1581 C1576 1.425 . S
C1581 C1578 1.409 1_565 S
C1581 C1579 1.415 . S
C1582 H1572 0.930 . S
C1582 C1580 1.419 . S
C1582 C1583 1.362 . S
C1583 H1573 0.930 . S
C1583 C1576 1.409 . S
C1583 C1582 1.362 . S
H1584 C1590 0.930 . S
H1585 C1593 0.930 . S
H1586 C1594 0.930 . S
H1587 C1595 0.930 . S
H1588 C1598 0.930 . S
H1589 C1599 0.930 . S
C1590 H1584 0.930 . S
C1590 C1591 1.355 . S
C1590 C1592 1.415 . S
C1591 C1590 1.355 . S
C1591 C1593 1.419 . S
C1592 C1590 1.415 . S
C1592 C1597 1.425 . S
C1592 C1599 1.409 . S
C1593 H1585 0.930 . S
C1593 C1591 1.419 . S
C1593 C1594 1.362 . S
C1594 H1586 0.930 . S
C1594 C1593 1.362 . S
C1594 C1597 1.409 . S
C1595 H1587 0.930 . S
C1595 C1596 1.355 . S
C1595 C1597 1.415 . S
C1596 C1595 1.355 . S
C1596 C1598 1.419 . S
C1597 C1592 1.425 . S
C1597 C1594 1.409 . S
C1597 C1595 1.415 . S
C1598 H1588 0.930 . S
C1598 C1596 1.419 . S
C1598 C1599 1.362 . S
C1599 H1589 0.930 . S
C1599 C1592 1.409 . S
C1599 C1598 1.362 . S
H1600 C1606 0.930 . S
H1601 C1609 0.930 . S
H1602 C1610 0.930 . S
H1603 C1611 0.930 . S
H1604 C1614 0.930 . S
H1605 C1615 0.930 . S
C1606 H1600 0.930 . S
C1606 C1607 1.355 . S
C1606 C1608 1.415 . S
C1607 C1606 1.355 . S
C1607 C1609 1.419 . S
C1608 C1606 1.415 . S
C1608 C1613 1.425 . S
C1608 C1615 1.409 . S
C1609 H1601 0.930 . S
C1609 C1607 1.419 . S
C1609 C1610 1.362 . S
C1610 H1602 0.930 . S
C1610 C1609 1.362 . S
C1610 C1613 1.409 . S
C1611 H1603 0.930 . S
C1611 C1612 1.355 . S
C1611 C1613 1.415 . S
C1612 C1611 1.355 . S
C1612 C1614 1.419 . S
C1613 C1608 1.425 . S
C1613 C1610 1.409 . S
C1613 C1611 1.415 . S
C1614 H1604 0.930 . S
C1614 C1612 1.419 . S
C1614 C1615 1.362 . S
C1615 H1605 0.930 . S
C1615 C1608 1.409 . S
C1615 C1614 1.362 . S
H1616 C1622 0.930 . S
H1617 C1625 0.930 . S
H1618 C1626 0.930 . S
H1619 C1627 0.930 . S
H1620 C1630 0.930 . S
H1621 C1631 0.930 . S
C1622 H1616 0.930 . S
C1622 C1623 1.355 . S
C1622 C1624 1.397 1_556 S
C1623 C1622 1.355 . S
C1623 C1625 1.419 1_556 S
C1624 C1622 1.397 1_554 S
C1624 C1629 1.453 . S
C1624 C1631 1.400 1_554 S
C1625 H1617 0.930 . S
C1625 C1623 1.419 1_554 S
C1625 C1626 1.362 . S
C1626 H1618 0.930 . S
C1626 C1625 1.362 . S
C1626 C1629 1.409 . S
C1627 H1619 0.930 . S
C1627 C1628 1.355 . S
C1627 C1629 1.415 . S
C1628 C1627 1.355 . S
C1628 C1630 1.419 . S
C1629 C1624 1.453 . S
C1629 C1626 1.409 . S
C1629 C1627 1.415 . S
C1630 H1620 0.930 . S
C1630 C1628 1.419 . S
C1630 C1631 1.362 1_554 S
C1631 H1621 0.930 . S
C1631 C1624 1.400 1_556 S
C1631 C1630 1.362 1_556 S
H1632 C1638 0.930 . S
H1633 C1641 0.930 . S
H1634 C1642 0.930 . S
H1635 C1643 0.930 . S
H1636 C1646 0.930 . S
H1637 C1647 0.930 . S
C1638 H1632 0.930 . S
C1638 C1639 1.355 . S
C1638 C1640 1.415 . S
C1639 C1638 1.355 . S
C1639 C1641 1.419 . S
C1640 C1638 1.415 . S
C1640 C1645 1.425 . S
C1640 C1647 1.409 1_556 S
C1641 H1633 0.930 . S
C1641 C1639 1.419 . S
C1641 C1642 1.362 . S
C1642 H1634 0.930 . S
C1642 C1641 1.362 . S
C1642 C1645 1.409 . S
C1643 H1635 0.930 . S
C1643 C1644 1.355 1_556 S
C1643 C1645 1.415 . S
C1644 C1643 1.355 1_554 S
C1644 C1646 1.419 . S
C1645 C1640 1.425 . S
C1645 C1642 1.409 . S
C1645 C1643 1.415 . S
C1646 H1636 0.930 . S
C1646 C1644 1.419 . S
C1646 C1647 1.362 . S
C1647 H1637 0.930 . S
C1647 C1640 1.409 1_554 S
C1647 C1646 1.362 . S
H1648 C1654 0.930 . S
H1649 C1657 0.930 . S
H1650 C1658 0.930 . S
H1651 C1659 0.930 . S
H1652 C1662 0.930 . S
H1653 C1663 0.930 . S
C1654 H1648 0.930 . S
C1654 C1655 1.355 . S
C1654 C1656 1.415 . S
C1655 C1654 1.355 . S
C1655 C1657 1.419 . S
C1656 C1654 1.415 . S
C1656 C1661 1.425 . S
C1656 C1663 1.409 . S
C1657 H1649 0.930 . S
C1657 C1655 1.419 . S
C1657 C1658 1.362 . S
C1658 H1650 0.930 . S
C1658 C1657 1.362 . S
C1658 C1661 1.409 . S
C1659 H1651 0.930 . S
C1659 C1660 1.355 . S
C1659 C1661 1.415 . S
C1660 C1659 1.355 . S
C1660 C1662 1.419 . S
C1661 C1656 1.425 . S
C1661 C1658 1.409 . S
C1661 C1659 1.415 . S
C1662 H1652 0.930 . S
C1662 C1660 1.419 . S
C1662 C1663 1.362 . S
C1663 H1653 0.930 . S
C1663 C1656 1.409 . S
C1663 C1662 1.362 . S
H1664 C1670 0.930 . S
H1665 C1673 0.930 . S
H1666 C1674 0.930 . S
H1667 C1675 0.930 . S
H1668 C1678 0.930 . S
H1669 C1679 0.930 . S
C1670 H1664 0.930 . S
C1670 C1671 1.355 . S
C1670 C1672 1.415 . S
C1671 C1670 1.355 . S
C1671 C1673 1.419 . S
C1672 C1670 1.415 . S
C1672 C1677 1.425 . S
C1672 C1679 1.409 . S
C1673 H1665 0.930 . S
C1673 C1671 1.419 . S
C1673 C1674 1.362 . S
C1674 H1666 0.930 . S
C1674 C1673 1.362 . S
C1674 C1677 1.409 . S
C1675 H1667 0.930 . S
C1675 C1676 1.355 . S
C1675 C1677 1.415 . S
C1676 C1675 1.355 . S
C1676 C1678 1.419 . S
C1677 C1672 1.425 . S
C1677 C1674 1.409 . S
C1677 C1675 1.415 . S
C1678 H1668 0.930 . S
C1678 C1676 1.419 . S
C1678 C1679 1.362 . S
C1679 H1669 0.930 . S
C1679 C1672 1.409 . S
C1679 C1678 1.362 . S
C535 C6 1.263 . S
C540 C402 1.245 . S
C551 C424 1.258 . S
C556 C29 1.235 . S
C567 C51 1.209 . S
C572 C359 1.262 . S
C583 C72 1.213 . S
C588 C380 1.261 . S
C599 C490 1.260 . S
C604 C94 1.226 . S
C615 C116 1.254 . S
C620 C468 1.242 . S
C631 C513 1.261 . S
C636 C138 1.204 . S
C647 C161 1.260 . S
C652 C447 1.243 . S
C663 C183 1.258 . S
C668 C293 1.242 . S
C679 C204 1.201 . S
C684 C336 1.260 . S
C695 C315 1.257 . S
C700 C226 1.236 . S
C711 C249 1.253 . S
C716 C270 1.252 . S
C727 C273 1.215 . S
C732 C141 1.250 . S
C743 C291 1.257 . S
C748 C159 1.242 . S
C759 C313 1.201 . S
C764 C97 1.261 . S
C775 C119 1.261 . S
C780 C339 1.215 . S
C791 C357 1.253 . S
C796 C229 1.242 . S
C807 C207 1.247 . S
C812 C383 1.226 . S
C823 C247 1.246 . S
C828 C405 1.262 . S
C839 C181 1.258 . S
C844 C427 1.233 . S
C855 C27 1.254 . S
C860 C445 1.247 . S
C871 C75 1.248 . S
C876 C471 1.224 . S
C887 C49 1.249 . S
C892 C493 1.259 . S
C903 C511 1.238 . S
C908 C9 1.244 . S
C919 C426 1.273 . S
C924 C5 1.184 . S
C935 C404 1.275 . S
C940 C31 1.185 . S
C951 C53 1.272 . S
C956 C382 1.257 . S
C967 C356 1.248 . S
C972 C71 1.277 . S
C983 C93 1.187 . S
C988 C510 1.282 . S
C999 C115 1.276 . S
C1004 C444 1.225 . S
C1015 C492 1.268 . S
C1020 C137 1.263 . S
C1031 C163 1.258 . S
C1036 C470 1.216 . S
C1047 C312 1.291 . S
C1052 C185 1.216 . S
C1063 C272 1.268 . S
C1068 C203 1.263 . S
C1079 C290 1.260 . S
C1084 C225 1.270 . S
C1095 C338 1.221 . S
C1100 C251 1.233 . S
C1111 C271 1.205 . S
C1116 C162 1.291 . S
C1127 C292 1.277 . S
C1132 C136 1.228 . S
C1143 C114 1.222 . S
C1148 C314 1.273 . S
C1159 C92 1.218 . S
C1164 C337 1.266 . S
C1175 C250 1.257 . S
C1180 C358 1.271 . S
C1191 C381 1.184 . S
C1196 C184 1.274 . S
C1207 C224 1.285 . S
C1212 C403 1.190 . S
C1223 C202 1.289 . S
C1228 C425 1.225 . S
C1239 C446 1.256 . S
C1244 C52 1.274 . S
C1255 C469 1.274 . S
C1260 C4 1.253 . S
C1271 C30 1.264 . S
C1276 C491 1.267 . S
C1287 C70 1.285 . S
C1292 C512 1.237 . S
C1303 C7 1.088 . S
C1308 C206 1.113 . S
C1319 C228 1.055 . S
C1324 C28 1.167 . S
C1335 C180 1.069 . S
C1340 C50 1.133 . S
C1351 C246 1.102 . S
C1356 C73 1.144 . S
C1367 C95 1.060 . S
C1372 C74 1.154 . S
C1383 C48 1.086 . S
C1388 C117 1.155 . S
C1399 C139 1.120 . S
C1404 C26 1.080 . S
C1415 C8 1.082 . S
C1420 C160 1.118 . S
C1431 C182 1.110 . S
C1436 C118 1.090 . S
C1447 C205 1.087 . S
C1452 C158 1.155 . S
C1463 C227 1.167 . S
C1468 C140 1.058 . S
C1479 C248 1.063 . S
C1484 C96 1.165 . S
C1495 C269 1.101 . S
C1500 C466 1.099 . S
C1511 C295 1.158 . S
C1516 C488 1.053 . S
C1527 C448 1.053 . S
C1532 C317 1.165 . S
C1543 C514 1.155 . S
C1548 C335 1.060 . S
C1559 C361 1.063 . S
C1564 C334 1.147 . S
C1575 C379 1.059 . S
C1580 C316 1.162 . S
C1591 C294 1.123 . S
C1596 C401 1.080 . S
C1607 C423 1.060 . S
C1612 C268 1.163 . S
C1623 C449 1.133 . S
C1628 C378 1.069 . S
C1639 C422 1.093 . S
C1644 C467 1.150 . S
C1655 C489 1.161 . S
C1660 C400 1.052 . S
C1671 C515 1.152 . S
C1676 C360 1.056 . S
