# Generated by pormake.
# Topology ukn, (4)-cn, num edge types: 1
# Building blocks:
#     Node 0, Type 0, BuildingBlock: QUQFOY_clean_sbu_1, # of connection points: 4
#     Node 1, Type 0, BuildingBlock: QUQFOY_clean_sbu_1, # of connection points: 4
#     Node 2, Type 0, BuildingBlock: QUQFOY_clean_sbu_1, # of connection points: 4
#     Node 3, Type 0, BuildingBlock: QUQFOY_clean_sbu_1, # of connection points: 4
#     Node 4, Type 0, BuildingBlock: QUQFOY_clean_sbu_1, # of connection points: 4
#     Node 5, Type 0, BuildingBlock: QUQFOY_clean_sbu_1, # of connection points: 4
#     Node 6, Type 0, BuildingBlock: QUQFOY_clean_sbu_1, # of connection points: 4
#     Node 7, Type 0, BuildingBlock: QUQFOY_clean_sbu_1, # of connection points: 4
#     Node 8, Type 0, BuildingBlock: QUQFOY_clean_sbu_1, # of connection points: 4
#     Node 9, Type 0, BuildingBlock: QUQFOY_clean_sbu_1, # of connection points: 4
#     Node 10, Type 0, BuildingBlock: QUQFOY_clean_sbu_1, # of connection points: 4
#     Node 11, Type 0, BuildingBlock: QUQFOY_clean_sbu_1, # of connection points: 4
#     Node 12, Type 0, BuildingBlock: QUQFOY_clean_sbu_1, # of connection points: 4
#     Node 13, Type 0, BuildingBlock: QUQFOY_clean_sbu_1, # of connection points: 4
#     Node 14, Type 0, BuildingBlock: QUQFOY_clean_sbu_1, # of connection points: 4
#     Node 15, Type 0, BuildingBlock: QUQFOY_clean_sbu_1, # of connection points: 4
#     Node 16, Type 0, BuildingBlock: QUQFOY_clean_sbu_1, # of connection points: 4
#     Node 17, Type 0, BuildingBlock: QUQFOY_clean_sbu_1, # of connection points: 4
#     Node 18, Type 0, BuildingBlock: QUQFOY_clean_sbu_1, # of connection points: 4
#     Node 19, Type 0, BuildingBlock: QUQFOY_clean_sbu_1, # of connection points: 4
#     Node 20, Type 0, BuildingBlock: QUQFOY_clean_sbu_1, # of connection points: 4
#     Node 21, Type 0, BuildingBlock: QUQFOY_clean_sbu_1, # of connection points: 4
#     Node 22, Type 0, BuildingBlock: QUQFOY_clean_sbu_1, # of connection points: 4
#     Node 23, Type 0, BuildingBlock: QUQFOY_clean_sbu_1, # of connection points: 4
#     Node 24, Type 0, BuildingBlock: QUQFOY_clean_sbu_1, # of connection points: 4
#     Node 25, Type 0, BuildingBlock: QUQFOY_clean_sbu_1, # of connection points: 4
#     Node 26, Type 0, BuildingBlock: QUQFOY_clean_sbu_1, # of connection points: 4
#     Node 27, Type 0, BuildingBlock: QUQFOY_clean_sbu_1, # of connection points: 4
#     Node 28, Type 0, BuildingBlock: QUQFOY_clean_sbu_1, # of connection points: 4
#     Node 29, Type 0, BuildingBlock: QUQFOY_clean_sbu_1, # of connection points: 4
#     Node 30, Type 0, BuildingBlock: QUQFOY_clean_sbu_1, # of connection points: 4
#     Node 31, Type 0, BuildingBlock: QUQFOY_clean_sbu_1, # of connection points: 4
#     Node 32, Type 0, BuildingBlock: QUQFOY_clean_sbu_1, # of connection points: 4
#     Node 33, Type 0, BuildingBlock: QUQFOY_clean_sbu_1, # of connection points: 4
#     Node 34, Type 0, BuildingBlock: QUQFOY_clean_sbu_1, # of connection points: 4
#     Node 35, Type 0, BuildingBlock: QUQFOY_clean_sbu_1, # of connection points: 4
#     Edge 36, Type (0, 0), BuildingBlock: CIFDUS_clean_linker_0, # of connection points: 2
#     Edge 37, Type (0, 0), BuildingBlock: CIFDUS_clean_linker_0, # of connection points: 2
#     Edge 38, Type (0, 0), BuildingBlock: CIFDUS_clean_linker_0, # of connection points: 2
#     Edge 39, Type (0, 0), BuildingBlock: CIFDUS_clean_linker_0, # of connection points: 2
#     Edge 40, Type (0, 0), BuildingBlock: CIFDUS_clean_linker_0, # of connection points: 2
#     Edge 41, Type (0, 0), BuildingBlock: CIFDUS_clean_linker_0, # of connection points: 2
#     Edge 42, Type (0, 0), BuildingBlock: CIFDUS_clean_linker_0, # of connection points: 2
#     Edge 43, Type (0, 0), BuildingBlock: CIFDUS_clean_linker_0, # of connection points: 2
#     Edge 44, Type (0, 0), BuildingBlock: CIFDUS_clean_linker_0, # of connection points: 2
#     Edge 45, Type (0, 0), BuildingBlock: CIFDUS_clean_linker_0, # of connection points: 2
#     Edge 46, Type (0, 0), BuildingBlock: CIFDUS_clean_linker_0, # of connection points: 2
#     Edge 47, Type (0, 0), BuildingBlock: CIFDUS_clean_linker_0, # of connection points: 2
#     Edge 48, Type (0, 0), BuildingBlock: CIFDUS_clean_linker_0, # of connection points: 2
#     Edge 49, Type (0, 0), BuildingBlock: CIFDUS_clean_linker_0, # of connection points: 2
#     Edge 50, Type (0, 0), BuildingBlock: CIFDUS_clean_linker_0, # of connection points: 2
#     Edge 51, Type (0, 0), BuildingBlock: CIFDUS_clean_linker_0, # of connection points: 2
#     Edge 52, Type (0, 0), BuildingBlock: CIFDUS_clean_linker_0, # of connection points: 2
#     Edge 53, Type (0, 0), BuildingBlock: CIFDUS_clean_linker_0, # of connection points: 2
#     Edge 54, Type (0, 0), BuildingBlock: CIFDUS_clean_linker_0, # of connection points: 2
#     Edge 55, Type (0, 0), BuildingBlock: CIFDUS_clean_linker_0, # of connection points: 2
#     Edge 56, Type (0, 0), BuildingBlock: CIFDUS_clean_linker_0, # of connection points: 2
#     Edge 57, Type (0, 0), BuildingBlock: CIFDUS_clean_linker_0, # of connection points: 2
#     Edge 58, Type (0, 0), BuildingBlock: CIFDUS_clean_linker_0, # of connection points: 2
#     Edge 59, Type (0, 0), BuildingBlock: CIFDUS_clean_linker_0, # of connection points: 2
#     Edge 60, Type (0, 0), BuildingBlock: CIFDUS_clean_linker_0, # of connection points: 2
#     Edge 61, Type (0, 0), BuildingBlock: CIFDUS_clean_linker_0, # of connection points: 2
#     Edge 62, Type (0, 0), BuildingBlock: CIFDUS_clean_linker_0, # of connection points: 2
#     Edge 63, Type (0, 0), BuildingBlock: CIFDUS_clean_linker_0, # of connection points: 2
#     Edge 64, Type (0, 0), BuildingBlock: CIFDUS_clean_linker_0, # of connection points: 2
#     Edge 65, Type (0, 0), BuildingBlock: CIFDUS_clean_linker_0, # of connection points: 2
#     Edge 66, Type (0, 0), BuildingBlock: CIFDUS_clean_linker_0, # of connection points: 2
#     Edge 67, Type (0, 0), BuildingBlock: CIFDUS_clean_linker_0, # of connection points: 2
#     Edge 68, Type (0, 0), BuildingBlock: CIFDUS_clean_linker_0, # of connection points: 2
#     Edge 69, Type (0, 0), BuildingBlock: CIFDUS_clean_linker_0, # of connection points: 2
#     Edge 70, Type (0, 0), BuildingBlock: CIFDUS_clean_linker_0, # of connection points: 2
#     Edge 71, Type (0, 0), BuildingBlock: CIFDUS_clean_linker_0, # of connection points: 2
#     Edge 72, Type (0, 0), BuildingBlock: CIFDUS_clean_linker_0, # of connection points: 2
#     Edge 73, Type (0, 0), BuildingBlock: CIFDUS_clean_linker_0, # of connection points: 2
#     Edge 74, Type (0, 0), BuildingBlock: CIFDUS_clean_linker_0, # of connection points: 2
#     Edge 75, Type (0, 0), BuildingBlock: CIFDUS_clean_linker_0, # of connection points: 2
#     Edge 76, Type (0, 0), BuildingBlock: CIFDUS_clean_linker_0, # of connection points: 2
#     Edge 77, Type (0, 0), BuildingBlock: CIFDUS_clean_linker_0, # of connection points: 2
#     Edge 78, Type (0, 0), BuildingBlock: CIFDUS_clean_linker_0, # of connection points: 2
#     Edge 79, Type (0, 0), BuildingBlock: CIFDUS_clean_linker_0, # of connection points: 2
#     Edge 80, Type (0, 0), BuildingBlock: CIFDUS_clean_linker_0, # of connection points: 2
#     Edge 81, Type (0, 0), BuildingBlock: CIFDUS_clean_linker_0, # of connection points: 2
#     Edge 82, Type (0, 0), BuildingBlock: CIFDUS_clean_linker_0, # of connection points: 2
#     Edge 83, Type (0, 0), BuildingBlock: CIFDUS_clean_linker_0, # of connection points: 2
#     Edge 84, Type (0, 0), BuildingBlock: CIFDUS_clean_linker_0, # of connection points: 2
#     Edge 85, Type (0, 0), BuildingBlock: CIFDUS_clean_linker_0, # of connection points: 2
#     Edge 86, Type (0, 0), BuildingBlock: CIFDUS_clean_linker_0, # of connection points: 2
#     Edge 87, Type (0, 0), BuildingBlock: CIFDUS_clean_linker_0, # of connection points: 2
#     Edge 88, Type (0, 0), BuildingBlock: CIFDUS_clean_linker_0, # of connection points: 2
#     Edge 89, Type (0, 0), BuildingBlock: CIFDUS_clean_linker_0, # of connection points: 2
#     Edge 90, Type (0, 0), BuildingBlock: CIFDUS_clean_linker_0, # of connection points: 2
#     Edge 91, Type (0, 0), BuildingBlock: CIFDUS_clean_linker_0, # of connection points: 2
#     Edge 92, Type (0, 0), BuildingBlock: CIFDUS_clean_linker_0, # of connection points: 2
#     Edge 93, Type (0, 0), BuildingBlock: CIFDUS_clean_linker_0, # of connection points: 2
#     Edge 94, Type (0, 0), BuildingBlock: CIFDUS_clean_linker_0, # of connection points: 2
#     Edge 95, Type (0, 0), BuildingBlock: CIFDUS_clean_linker_0, # of connection points: 2
#     Edge 96, Type (0, 0), BuildingBlock: CIFDUS_clean_linker_0, # of connection points: 2
#     Edge 97, Type (0, 0), BuildingBlock: CIFDUS_clean_linker_0, # of connection points: 2
#     Edge 98, Type (0, 0), BuildingBlock: CIFDUS_clean_linker_0, # of connection points: 2
#     Edge 99, Type (0, 0), BuildingBlock: CIFDUS_clean_linker_0, # of connection points: 2
#     Edge 100, Type (0, 0), BuildingBlock: CIFDUS_clean_linker_0, # of connection points: 2
#     Edge 101, Type (0, 0), BuildingBlock: CIFDUS_clean_linker_0, # of connection points: 2
#     Edge 102, Type (0, 0), BuildingBlock: CIFDUS_clean_linker_0, # of connection points: 2
#     Edge 103, Type (0, 0), BuildingBlock: CIFDUS_clean_linker_0, # of connection points: 2
#     Edge 104, Type (0, 0), BuildingBlock: CIFDUS_clean_linker_0, # of connection points: 2
#     Edge 105, Type (0, 0), BuildingBlock: CIFDUS_clean_linker_0, # of connection points: 2
#     Edge 106, Type (0, 0), BuildingBlock: CIFDUS_clean_linker_0, # of connection points: 2
#     Edge 107, Type (0, 0), BuildingBlock: CIFDUS_clean_linker_0, # of connection points: 2
# Relax obj value: 0.012
# Max RMSD: 0.054
# Mean RMSD: 0.054
data_MOF--net-ukn--node1-QUQFOY_clean_sbu_1--edge1-CIFDUS_clean_linker_0
_symmetry_space_group_name_H-M    P1
_symmetry_Int_Tables_number       1
_symmetry_cell_setting            triclinic
loop_
_symmetry_equiv_pos_as_xyz
'x, y, z'
_cell_length_a     96.233868
_cell_length_b     96.505945
_cell_length_c     24.696054
_cell_angle_alpha  89.961913
_cell_angle_beta   90.126346
_cell_angle_gamma 120.07495
loop_
_atom_site_label
_atom_site_type_symbol
_atom_site_fract_x
_atom_site_fract_y
_atom_site_fract_z
_atom_type_partial_charge
O0 O 0.10752 0.30333 0.12183 0.0
Cd1 Cd 0.09171 0.31192 0.11828 0.0
Cd2 Cd 0.07546 0.28393 0.05636 0.0
O3 O 0.09347 0.27975 0.08218 0.0
O4 O 0.10175 0.33081 0.16766 0.0
O5 O 0.07829 0.30936 0.1846 0.0
C6 C 0.08962 0.32335 0.19933 0.0
C7 C 0.04839 0.26452 0.05796 0.0
C8 C 0.10608 0.29006 0.10682 0.0
C9 C 0.0866 0.31558 1.0006 0.0
O10 O 0.08116 0.30063 0.9962 0.0
O11 O 0.09052 0.32232 0.04668 0.0
O12 O 0.05796 0.26415 0.02224 0.0
O13 O 0.05441 0.27542 0.09509 0.0
O14 O 0.69709 0.8005 0.10855 0.0
Cd15 Cd 0.69468 0.77811 0.10113 0.0
Cd16 Cd 0.72408 0.79606 0.06272 0.0
O17 O 0.72349 0.81447 0.10349 0.0
O18 O 0.6778 0.7642 0.1555 0.0
O19 O 0.70355 0.77201 0.16496 0.0
C20 C 0.68926 0.76508 0.18538 0.0
C21 C 0.74363 0.78883 0.0666 0.0
C22 C 0.71017 0.81375 0.11317 0.0
C23 C 0.69885 0.77646 0.98227 0.0
O24 O 0.71206 0.78929 0.99045 0.0
O25 O 0.69028 0.76838 0.02252 0.0
O26 O 0.74669 0.80226 0.04513 0.0
O27 O 0.72997 0.78023 0.09038 0.0
O28 O 0.20236 0.89904 0.11841 0.0
Cd29 Cd 0.22682 0.91537 0.11956 0.0
Cd30 Cd 0.21537 0.93363 0.06923 0.0
O31 O 0.19313 0.91464 0.08982 0.0
O32 O 0.23658 0.90845 0.17875 0.0
O33 O 0.23476 0.93033 0.18409 0.0
C34 C 0.23852 0.92057 0.20685 0.0
C35 C 0.22146 0.96027 0.07238 0.0
C36 C 0.19063 0.90113 0.10684 0.0
C37 C 0.23602 0.92414 1.00325 0.0
O38 O 0.22674 0.9299 1.00568 0.0
O39 O 0.23889 0.91841 0.04567 0.0
O40 O 0.21171 0.95047 0.03674 0.0
O41 O 0.22687 0.95468 0.1092 0.0
O42 O 0.30863 0.10888 0.92219 0.0
Cd43 Cd 0.31488 0.09131 0.9279 0.0
Cd44 Cd 0.2869 0.07856 0.99042 0.0
O45 O 0.28487 0.09762 0.96172 0.0
O46 O 0.33402 0.09976 0.87961 0.0
O47 O 0.31132 0.07753 0.86166 0.0
C48 C 0.32579 0.08791 0.84755 0.0
C49 C 0.2666 0.05195 0.98888 0.0
C50 C 0.29611 0.10928 0.93608 0.0
C51 C 0.31781 0.08668 0.0466 0.0
O52 O 0.30333 0.08335 0.05094 0.0
O53 O 0.32439 0.08912 1.00034 0.0
O54 O 0.26645 0.06186 0.02357 0.0
O55 O 0.27769 0.05743 0.95228 0.0
O56 O 0.8957 0.19571 0.92086 0.0
Cd57 Cd 0.91162 0.22015 0.91853 0.0
Cd58 Cd 0.9287 0.20973 0.98104 0.0
O59 O 0.9107 0.18711 0.95967 0.0
O60 O 0.90308 0.22849 0.86049 0.0
O61 O 0.92595 0.22852 0.85267 0.0
C62 C 0.91531 0.2313 0.83137 0.0
C63 C 0.95583 0.21749 0.97976 0.0
C64 C 0.89762 0.18425 0.93716 0.0
C65 C 0.91763 0.23061 0.03477 0.0
O66 O 0.92313 0.22117 0.03969 0.0
O67 O 0.91343 0.23306 0.9884 0.0
O68 O 0.94636 0.20796 1.0165 0.0
O69 O 0.94968 0.22185 0.94141 0.0
O70 O 0.81114 0.70405 0.93235 0.0
Cd71 Cd 0.78685 0.69656 0.93471 0.0
Cd72 Cd 0.79918 0.7257 0.97948 0.0
O73 O 0.82083 0.72978 0.94857 0.0
O74 O 0.77605 0.67951 0.87723 0.0
O75 O 0.77884 0.70361 0.87061 0.0
C76 C 0.77448 0.68986 0.84864 0.0
C77 C 0.78775 0.74185 0.97277 0.0
C78 C 0.82304 0.71824 0.93595 0.0
C79 C 0.7811 0.69776 0.05317 0.0
O80 O 0.79175 0.71241 0.04871 0.0
O81 O 0.77575 0.68898 1.01092 0.0
O82 O 0.8006 0.74629 1.00102 0.0
O83 O 0.78242 0.72902 0.94372 0.0
O84 O 0.90236 0.69845 0.92146 0.0
Cd85 Cd 0.92092 0.69358 0.9245 0.0
Cd86 Cd 0.93335 0.72102 0.98425 0.0
O87 O 0.91411 0.72292 0.95518 0.0
O88 O 0.91492 0.67665 0.86794 0.0
O89 O 0.9359 0.70101 0.86035 0.0
C90 C 0.92669 0.68708 0.8392 0.0
C91 C 0.96018 0.74109 0.98095 0.0
C92 C 0.90202 0.71113 0.93291 0.0
C93 C 0.92566 0.69048 0.04212 0.0
O94 O 0.92854 0.70481 0.04558 0.0
O95 O 0.92362 0.68385 0.99599 0.0
O96 O 0.95048 0.74158 1.01588 0.0
O97 O 0.95437 0.72977 0.9452 0.0
O98 O 0.30585 0.20089 0.93545 0.0
Cd99 Cd 0.3146 0.22535 0.93488 0.0
Cd100 Cd 0.28744 0.21495 0.99594 0.0
O101 O 0.28166 0.19245 0.96886 0.0
O102 O 0.3317 0.23399 0.87762 0.0
O103 O 0.30885 0.23402 0.86927 0.0
C104 C 0.32233 0.23688 0.84834 0.0
C105 C 0.27073 0.22588 0.99376 0.0
C106 C 0.29197 0.18948 0.94812 0.0
C107 C 0.31886 0.23445 0.05251 0.0
O108 O 0.304 0.22437 0.05719 0.0
O109 O 0.32539 0.23789 1.00588 0.0
O110 O 0.26794 0.21429 0.02626 0.0
O111 O 0.2823 0.23035 0.95926 0.0
O112 O 0.79932 0.10443 0.91277 0.0
Cd113 Cd 0.77534 0.08712 0.91821 0.0
Cd114 Cd 0.79036 0.07411 0.98281 0.0
O115 O 0.81152 0.0932 0.95454 0.0
O116 O 0.76495 0.09575 0.8693 0.0
O117 O 0.76492 0.07329 0.85209 0.0
C118 C 0.76108 0.0838 0.83754 0.0
C119 C 0.78501 0.04783 0.98524 0.0
C120 C 0.81215 0.10479 0.92784 0.0
C121 C 0.76739 0.08246 0.03664 0.0
O122 O 0.7783 0.07882 0.04169 0.0
O123 O 0.7636 0.08519 0.99017 0.0
O124 O 0.79471 0.0583 1.01956 0.0
O125 O 0.77919 0.05256 0.94689 0.0
O126 O 0.70008 0.89561 0.12034 0.0
Cd127 Cd 0.69153 0.91147 0.11715 0.0
Cd128 Cd 0.72209 0.92988 0.07349 0.0
O129 O 0.72572 0.91183 0.1018 0.0
O130 O 0.67224 0.90195 0.16602 0.0
O131 O 0.69462 0.92432 0.18575 0.0
C132 C 0.68039 0.91333 0.20005 0.0
C133 C 0.74156 0.95693 0.07705 0.0
C134 C 0.71433 0.89811 0.11567 0.0
C135 C 0.69332 0.91956 0.99946 0.0
O136 O 0.70825 0.92483 1.00519 0.0
O137 O 0.68411 0.9148 0.04065 0.0
O138 O 0.74294 0.94722 0.04475 0.0
O139 O 0.72969 0.95106 0.1107 0.0
O140 O 0.11035 0.80256 0.11988 0.0
Cd141 Cd 0.09241 0.77887 0.11511 0.0
Cd142 Cd 0.07967 0.79419 0.05417 0.0
O143 O 0.09893 0.81527 0.08319 0.0
O144 O 0.10088 0.76815 0.16323 0.0
O145 O 0.07899 0.76912 0.18237 0.0
C146 C 0.08933 0.76496 0.19618 0.0
C147 C 0.05285 0.78743 0.05775 0.0
C148 C 0.11079 0.81556 0.1073 0.0
C149 C 0.08745 0.77144 0.99668 0.0
O150 O 0.08441 0.78278 0.99286 0.0
O151 O 0.0897 0.76703 0.04278 0.0
O152 O 0.06252 0.79763 0.02279 0.0
O153 O 0.05869 0.7819 0.09342 0.0
O154 O 0.20474 0.31106 0.11986 0.0
Cd155 Cd 0.22819 0.31603 0.11218 0.0
Cd156 Cd 0.21212 0.28613 0.07241 0.0
O157 O 0.19237 0.28484 0.10986 0.0
O158 O 0.24096 0.33542 0.15903 0.0
O159 O 0.2372 0.31153 0.17995 0.0
C160 C 0.24263 0.3263 0.1935 0.0
C161 C 0.22103 0.26795 0.07957 0.0
C162 C 0.19196 0.29746 0.12147 0.0
C163 C 0.23059 0.31203 0.99285 0.0
O164 O 0.21862 0.29812 1.00025 0.0
O165 O 0.23784 0.32094 0.0335 0.0
O166 O 0.2077 0.26411 0.05533 0.0
O167 O 0.22869 0.28168 0.10361 0.0
O168 O 0.78142 0.64761 0.4614 0.0
Cd169 Cd 0.76341 0.65322 0.45587 0.0
Cd170 Cd 0.7489 0.62389 0.4113 0.0
O171 O 0.76712 0.62156 0.44681 0.0
O172 O 0.76894 0.67046 0.51187 0.0
O173 O 0.7485 0.64581 0.52026 0.0
C174 C 0.75754 0.65979 0.54145 0.0
C175 C 0.72132 0.60682 0.41514 0.0
C176 C 0.7803 0.6339 0.46018 0.0
C177 C 0.75766 0.65133 0.33644 0.0
O178 O 0.75496 0.63711 0.34187 0.0
O179 O 0.7597 0.65994 0.37829 0.0
O180 O 0.73038 0.60275 0.38929 0.0
O181 O 0.72817 0.61981 0.4437 0.0
O182 O 0.36744 0.1376 0.46446 0.0
Cd183 Cd 0.36035 0.11358 0.4585 0.0
Cd184 Cd 0.38848 0.1283 0.39417 0.0
O185 O 0.39096 0.14952 0.42315 0.0
O186 O 0.34122 0.10346 0.50699 0.0
O187 O 0.36345 0.10295 0.52461 0.0
C188 C 0.34914 0.09938 0.53889 0.0
C189 C 0.40904 0.12231 0.39139 0.0
C190 C 0.38007 0.15031 0.4498 0.0
C191 C 0.35696 0.10588 0.33978 0.0
O192 O 0.37159 0.11665 0.33499 0.0
O193 O 0.35044 0.10205 0.38618 0.0
O194 O 0.40859 0.13228 0.35762 0.0
O195 O 0.39842 0.11661 0.42952 0.0
O196 O 0.86139 0.22834 0.44139 0.0
Cd197 Cd 0.88599 0.24395 0.4437 0.0
Cd198 Cd 0.87535 0.26099 0.37733 0.0
O199 O 0.85285 0.24317 0.40098 0.0
O200 O 0.8942 0.23545 0.50232 0.0
O201 O 0.89462 0.25847 0.50914 0.0
C202 C 0.89728 0.24784 0.5309 0.0
C203 C 0.88196 0.28761 0.3659 0.0
C204 C 0.84995 0.23027 0.42461 0.0
C205 C 0.89658 0.24938 0.32768 0.0
O206 O 0.88706 0.25477 0.32174 0.0
O207 O 0.89899 0.2454 0.37443 0.0
O208 O 0.87226 0.27655 0.33329 0.0
O209 O 0.88699 0.28338 0.40787 0.0
O210 O 0.9759 0.43855 0.24917 0.0
Cd211 Cd 0.98269 0.42135 0.25297 0.0
Cd212 Cd 0.95495 0.40793 0.32007 0.0
O213 O 0.95245 0.42665 0.29104 0.0
O214 O 0.99959 0.42807 0.19559 0.0
O215 O 0.97594 0.406 0.18965 0.0
C216 C 0.98964 0.41573 0.16786 0.0
C217 C 0.93335 0.38208 0.33167 0.0
C218 C 0.96321 0.43844 0.26446 0.0
C219 C 0.98723 0.41721 0.37096 0.0
O220 O 0.97261 0.4133 0.37653 0.0
O221 O 0.99355 0.4199 0.32409 0.0
O222 O 0.93546 0.39361 0.36321 0.0
O223 O 0.94287 0.38545 0.29077 0.0
O224 O 0.57177 0.54099 0.2693 0.0
Cd225 Cd 0.59089 0.5639 0.27925 0.0
Cd226 Cd 0.60325 0.54653 0.31824 0.0
O227 O 0.58485 0.52774 0.27604 0.0
O228 O 0.58497 0.5774 0.23349 0.0
O229 O 0.60465 0.57291 0.21219 0.0
C230 C 0.59564 0.57879 0.19897 0.0
C231 C 0.63053 0.55563 0.31522 0.0
C232 C 0.57208 0.52801 0.26485 0.0
C233 C 0.59622 0.56487 0.39878 0.0
O234 O 0.59713 0.55236 0.39051 0.0
O235 O 0.59565 0.57293 0.35866 0.0
O236 O 0.62071 0.54181 0.33571 0.0
O237 O 0.62468 0.56358 0.2917 0.0
O238 O 0.47137 0.03349 0.24349 0.0
Cd239 Cd 0.44707 0.02584 0.24168 0.0
Cd240 Cd 0.45908 0.05556 0.29334 0.0
O241 O 0.48111 0.0584 0.27202 0.0
O242 O 0.43737 0.00922 0.1825 0.0
O243 O 0.43952 0.03307 0.17659 0.0
C244 C 0.43572 0.01952 0.15398 0.0
C245 C 0.45367 0.07658 0.29367 0.0
C246 C 0.4833 0.04718 0.25503 0.0
C247 C 0.43793 0.02519 0.35787 0.0
O248 O 0.44747 0.04019 0.35605 0.0
O249 O 0.43486 0.01672 0.31511 0.0
O250 O 0.46336 0.07595 0.32827 0.0
O251 O 0.44798 0.06593 0.25574 0.0
O252 O 0.56226 0.02665 0.2444 0.0
Cd253 Cd 0.58081 0.02173 0.24739 0.0
Cd254 Cd 0.59325 0.0492 0.30811 0.0
O255 O 0.57394 0.05095 0.27955 0.0
O256 O 0.57483 0.00482 0.19076 0.0
O257 O 0.59581 0.02919 0.18325 0.0
C258 C 0.58662 0.01526 0.16208 0.0
C259 C 0.61985 0.06977 0.30606 0.0
C260 C 0.56191 0.03928 0.2566 0.0
C261 C 0.58586 0.01862 0.36501 0.0
O262 O 0.58872 0.03294 0.36889 0.0
O263 O 0.58365 0.01202 0.31875 0.0
O264 O 0.60989 0.06978 0.34093 0.0
O265 O 0.61441 0.05862 0.26969 0.0
O266 O 0.96915 0.52809 0.25779 0.0
Cd267 Cd 0.97998 0.5528 0.2581 0.0
Cd268 Cd 0.95275 0.54304 0.32432 0.0
O269 O 0.94677 0.52 0.30392 0.0
O270 O 0.997 0.55795 0.2027 0.0
O271 O 0.97831 0.56462 0.19234 0.0
C272 C 0.99048 0.5641 0.17297 0.0
C273 C 0.93431 0.55191 0.32273 0.0
C274 C 0.95608 0.51684 0.27694 0.0
C275 C 0.98575 0.56276 0.37499 0.0
O276 O 0.97064 0.55434 0.38077 0.0
O277 O 0.99208 0.56452 0.32841 0.0
O278 O 0.93403 0.54254 0.36047 0.0
O279 O 0.94455 0.55558 0.28389 0.0
O280 O 0.48032 0.44584 0.25323 0.0
Cd281 Cd 0.45576 0.43016 0.25609 0.0
Cd282 Cd 0.46764 0.41162 0.30094 0.0
O283 O 0.48954 0.42958 0.27322 0.0
O284 O 0.44616 0.4398 0.20687 0.0
O285 O 0.44583 0.41732 0.18739 0.0
C286 C 0.44274 0.42837 0.17294 0.0
C287 C 0.45957 0.38447 0.29771 0.0
C288 C 0.49202 0.4433 0.25879 0.0
C289 C 0.44939 0.42221 0.37405 0.0
O290 O 0.45895 0.41685 0.36878 0.0
O291 O 0.44502 0.42697 0.33255 0.0
O292 O 0.47076 0.3941 0.33009 0.0
O293 O 0.45376 0.39045 0.26375 0.0
O294 O 0.37324 0.23393 0.45887 0.0
Cd295 Cd 0.36444 0.24959 0.46138 0.0
Cd296 Cd 0.39196 0.26665 0.39548 0.0
O297 O 0.3964 0.24853 0.41677 0.0
O298 O 0.34772 0.24107 0.51991 0.0
O299 O 0.37043 0.2641 0.52685 0.0
C300 C 0.35709 0.25346 0.54852 0.0
C301 C 0.4122 0.29342 0.39033 0.0
C302 C 0.38643 0.23569 0.44087 0.0
C303 C 0.35911 0.25513 0.34549 0.0
O304 O 0.37411 0.26091 0.33963 0.0
O305 O 0.35273 0.25084 0.39211 0.0
O306 O 0.41096 0.28313 0.35463 0.0
O307 O 0.40253 0.28833 0.43117 0.0
O308 O 0.76944 0.1328 0.45319 0.0
Cd309 Cd 0.75201 0.10891 0.44789 0.0
Cd310 Cd 0.73875 0.12364 0.38551 0.0
O311 O 0.75785 0.14492 0.41335 0.0
O312 O 0.76076 0.09853 0.4963 0.0
O313 O 0.73834 0.0986 0.51429 0.0
C314 C 0.7489 0.09477 0.52845 0.0
C315 C 0.71198 0.117 0.38786 0.0
C316 C 0.76967 0.14559 0.43892 0.0
C317 C 0.74716 0.10118 0.32936 0.0
O318 O 0.74353 0.11209 0.32499 0.0
O319 O 0.74986 0.09723 0.37561 0.0
O320 O 0.72176 0.12706 0.3528 0.0
O321 O 0.71769 0.11157 0.42433 0.0
O322 O 0.87085 0.64009 0.4553 0.0
Cd323 Cd 0.89515 0.64774 0.45354 0.0
Cd324 Cd 0.88347 0.62054 0.39155 0.0
O325 O 0.86119 0.61658 0.41527 0.0
O326 O 0.90491 0.66425 0.51204 0.0
O327 O 0.90399 0.64091 0.51581 0.0
C328 C 0.90771 0.6544 0.53857 0.0
C329 C 0.89057 0.60081 0.39476 0.0
C330 C 0.85894 0.62691 0.43952 0.0
C331 C 0.90495 0.6522 0.337 0.0
O332 O 0.8952 0.6373 0.3321 0.0
O333 O 0.9076 0.65884 0.3833 0.0
O334 O 0.88097 0.60067 0.35797 0.0
O335 O 0.89543 0.61169 0.43196 0.0
O336 O 0.44359 0.97688 0.76823 0.0
Cd337 Cd 0.42559 0.98252 0.76152 0.0
Cd338 Cd 0.4111 0.95307 0.71982 0.0
O339 O 0.429 0.95068 0.75758 0.0
O340 O 0.43103 1.00001 0.81667 0.0
O341 O 0.41074 0.97532 0.82596 0.0
C342 C 0.41969 0.98939 0.84661 0.0
C343 C 0.38339 0.93725 0.72602 0.0
C344 C 0.4423 0.96309 0.76951 0.0
C345 C 0.41982 0.97965 0.64197 0.0
O346 O 0.41755 0.96563 0.64898 0.0
O347 O 0.4214 0.98841 0.68301 0.0
O348 O 0.39173 0.93209 0.70131 0.0
O349 O 0.39101 0.95066 0.75206 0.0
O350 O 0.03803 0.46823 0.78714 0.0
Cd351 Cd 0.03088 0.44416 0.7831 0.0
Cd352 Cd 0.0584 0.45771 0.71967 0.0
O353 O 0.06163 0.47941 0.74648 0.0
O354 O 0.01374 0.43416 0.8398 0.0
O355 O 0.03717 0.4353 0.84686 0.0
C356 C 0.02348 0.43159 0.86813 0.0
C357 C 0.07828 0.45077 0.72175 0.0
C358 C 0.0509 0.48068 0.7723 0.0
C359 C 0.02679 0.43578 0.66479 0.0
O360 O 0.04154 0.44623 0.66014 0.0
O361 O 0.02024 0.43216 0.71134 0.0
O362 O 0.07846 0.4606 0.68595 0.0
O363 O 0.06732 0.44563 0.75872 0.0
O364 O 0.54658 0.56762 0.80414 0.0
Cd365 Cd 0.57073 0.58457 0.80068 0.0
Cd366 Cd 0.55472 0.59985 0.74208 0.0
O367 O 0.53423 0.58001 0.77146 0.0
O368 O 0.58098 0.57577 0.85056 0.0
O369 O 0.58049 0.59787 0.86884 0.0
C370 C 0.58416 0.58727 0.88382 0.0
C371 C 0.55644 0.62448 0.72393 0.0
C372 C 0.53372 0.56776 0.79302 0.0
C373 C 0.57778 0.59164 0.68227 0.0
O374 O 0.56727 0.59589 0.68319 0.0
O375 O 0.58189 0.58743 0.72561 0.0
O376 O 0.54715 0.61185 0.69634 0.0
O377 O 0.56359 0.62284 0.76572 0.0
O378 O 0.64833 0.77421 0.57675 0.0
Cd379 Cd 0.6541 0.75629 0.57906 0.0
Cd380 Cd 0.62377 0.7418 0.63489 0.0
O381 O 0.62314 0.7616 0.60518 0.0
O382 O 0.67082 0.76207 0.52104 0.0
O383 O 0.64634 0.74116 0.51503 0.0
C384 C 0.66014 0.75028 0.49271 0.0
C385 C 0.60106 0.71679 0.65072 0.0
C386 C 0.63524 0.77405 0.586 0.0
C387 C 0.65457 0.74948 0.69663 0.0
O388 O 0.63994 0.7458 0.69538 0.0
O389 O 0.66282 0.75318 0.65321 0.0
O390 O 0.60381 0.72922 0.67835 0.0
O391 O 0.61027 0.71885 0.60988 0.0
O392 O 0.23146 0.87212 0.59345 0.0
Cd393 Cd 0.25005 0.89544 0.59977 0.0
Cd394 Cd 0.26407 0.87972 0.64126 0.0
O395 O 0.24558 0.85999 0.60303 0.0
O396 O 0.24505 0.90776 0.54453 0.0
O397 O 0.2648 0.90254 0.535 0.0
C398 C 0.25609 0.90797 0.51431 0.0
C399 C 0.29126 0.88795 0.63859 0.0
C400 C 0.23242 0.85946 0.59162 0.0
C401 C 0.25603 0.89831 0.71915 0.0
O402 O 0.25817 0.88647 0.71212 0.0
O403 O 0.25443 0.9055 0.67816 0.0
O404 O 0.28117 0.87469 0.66169 0.0
O405 O 0.28575 0.89588 0.61296 0.0
O406 O 0.13982 0.36298 0.5835 0.0
Cd407 Cd 0.11604 0.35708 0.58892 0.0
Cd408 Cd 0.13129 0.38489 0.65015 0.0
O409 O 0.15242 0.38686 0.62188 0.0
O410 O 0.10503 0.33809 0.54025 0.0
O411 O 0.10604 0.36102 0.52275 0.0
C412 C 0.10166 0.34654 0.50833 0.0
C413 C 0.12471 0.40493 0.64566 0.0
C414 C 0.15281 0.37552 0.59692 0.0
C415 C 0.10838 0.35444 0.70734 0.0
O416 O 0.11969 0.36884 0.71153 0.0
O417 O 0.1042 0.34781 0.66116 0.0
O418 O 0.13488 0.40548 0.68096 0.0
O419 O 0.11912 0.39354 0.61015 0.0
O420 O 0.23597 0.36751 0.5914 0.0
Cd421 Cd 0.25108 0.35803 0.59251 0.0
Cd422 Cd 0.2704 0.38841 0.64492 0.0
O423 O 0.25171 0.39202 0.62289 0.0
O424 O 0.24071 0.33914 0.54204 0.0
O425 O 0.26388 0.36074 0.52384 0.0
C426 C 0.2524 0.34686 0.5087 0.0
C427 C 0.29719 0.40898 0.64498 0.0
C428 C 0.23828 0.38134 0.60364 0.0
C429 C 0.25953 0.35771 0.70978 0.0
O430 O 0.266 0.37283 0.70749 0.0
O431 O 0.25348 0.3492 0.66743 0.0
O432 O 0.28711 0.40857 0.68003 0.0
O433 O 0.29183 0.3983 0.6071 0.0
O434 O 0.64101 0.86425 0.59452 0.0
Cd435 Cd 0.64882 0.88853 0.59782 0.0
Cd436 Cd 0.61827 0.87557 0.64202 0.0
O437 O 0.61541 0.85398 0.61576 0.0
O438 O 0.66804 0.8989 0.54873 0.0
O439 O 0.64522 0.89807 0.52949 0.0
C440 C 0.6596 0.90185 0.515 0.0
C441 C 0.59856 0.88275 0.63499 0.0
C442 C 0.62703 0.85215 0.60075 0.0
C443 C 0.64684 0.89504 0.71548 0.0
O444 O 0.63198 0.88508 0.71013 0.0
O445 O 0.65603 0.89943 0.67421 0.0
O446 O 0.59718 0.87194 0.66871 0.0
O447 O 0.61057 0.88866 0.60197 0.0
O448 O 0.14209 0.77481 0.58455 0.0
Cd449 Cd 0.11765 0.7588 0.58681 0.0
Cd450 Cd 0.12934 0.7426 0.64909 0.0
O451 O 0.15162 0.76097 0.62568 0.0
O452 O 0.10859 0.7685 0.53673 0.0
O453 O 0.10697 0.74524 0.52043 0.0
C454 C 0.10404 0.75634 0.50535 0.0
C455 C 0.12234 0.7158 0.64553 0.0
C456 C 0.15394 0.77352 0.60092 0.0
C457 C 0.10807 0.75295 0.70387 0.0
O458 O 0.11759 0.74752 0.70875 0.0
O459 O 0.10568 0.75727 0.65783 0.0
O460 O 0.13191 0.72522 0.6824 0.0
O461 O 0.11745 0.72183 0.60845 0.0
O462 O 0.04469 0.56398 0.77869 0.0
Cd463 Cd 0.03302 0.57705 0.78186 0.0
Cd464 Cd 0.06094 0.59577 0.71488 0.0
O465 O 0.06714 0.57874 0.73335 0.0
O466 O 0.0152 0.56251 0.83121 0.0
O467 O 0.03257 0.58747 0.85333 0.0
C468 C 0.02058 0.57375 0.86678 0.0
C469 C 0.07934 0.6231 0.71647 0.0
C470 C 0.05785 0.56607 0.75946 0.0
C471 C 0.0277 0.58268 0.66544 0.0
O472 O 0.0428 0.58933 0.6595 0.0
O473 O 0.02134 0.57779 0.71185 0.0
O474 O 0.07944 0.61408 0.67818 0.0
O475 O 0.06931 0.61643 0.75584 0.0
O476 O 0.45016 0.47706 0.77914 0.0
Cd477 Cd 0.43432 0.45259 0.7751 0.0
Cd478 Cd 0.41612 0.46489 0.72867 0.0
O479 O 0.43442 0.48668 0.75599 0.0
O480 O 0.44381 0.44284 0.82436 0.0
O481 O 0.42129 0.44259 0.84334 0.0
C482 C 0.4323 0.43941 0.85798 0.0
C483 C 0.38896 0.45705 0.73239 0.0
C484 C 0.44793 0.48889 0.77234 0.0
C485 C 0.42636 0.44611 0.65675 0.0
O486 O 0.42106 0.45573 0.66154 0.0
O487 O 0.43118 0.44189 0.69846 0.0
O488 O 0.39856 0.46801 0.6994 0.0
O489 O 0.39501 0.45137 0.76662 0.0
O490 O 0.53221 0.9678 0.77579 0.0
Cd491 Cd 0.55652 0.97548 0.77566 0.0
Cd492 Cd 0.5449 0.9482 0.71261 0.0
O493 O 0.52256 0.94425 0.73599 0.0
O494 O 0.5659 0.99205 0.8342 0.0
O495 O 0.56516 0.96882 0.839 0.0
C496 C 0.56868 0.98229 0.86141 0.0
C497 C 0.55202 0.92844 0.71296 0.0
C498 C 0.5203 0.95466 0.75973 0.0
C499 C 0.56654 0.98018 0.6595 0.0
O500 O 0.55674 0.9653 0.65428 0.0
O501 O 0.56922 0.98673 0.70596 0.0
O502 O 0.54249 0.92863 0.67659 0.0
O503 O 0.55672 0.9389 0.7515 0.0
H504 H 0.13447 0.30979 0.15626 0.0
H505 H 0.10876 0.2643 0.07383 0.0
H506 H 0.13276 0.2617 0.0765 0.0
H507 H 0.16181 0.27369 0.09423 0.0
H508 H 0.18745 0.31982 0.17263 0.0
H509 H 0.16267 0.32072 0.17992 0.0
C510 C 0.134 0.2992 0.13934 0.0
C511 C 0.11984 0.28735 0.11436 0.0
C512 C 0.1479 0.29793 0.14003 0.0
C513 C 0.1195 0.27366 0.09307 0.0
C514 C 0.13325 0.27218 0.09445 0.0
C515 C 0.1619 0.2838 0.11375 0.0
C516 C 0.17649 0.29672 0.13249 0.0
C517 C 0.14763 0.28444 0.11666 0.0
C518 C 0.17642 0.30978 0.15743 0.0
C519 C 0.16226 0.31032 0.16157 0.0
H520 H 0.73407 0.84493 0.10222 0.0
H521 H 0.68469 0.81555 0.15199 0.0
H522 H 0.68218 0.83929 0.16202 0.0
H523 H 0.69308 0.86795 0.14884 0.0
H524 H 0.74215 0.89757 0.09639 0.0
H525 H 0.74572 0.87421 0.09597 0.0
C526 C 0.72284 0.84375 0.11603 0.0
C527 C 0.70955 0.82844 0.12577 0.0
C528 C 0.72136 0.85748 0.1209 0.0
C529 C 0.69507 0.82715 0.14364 0.0
C530 C 0.69361 0.84073 0.14939 0.0
C531 C 0.70463 0.86938 0.13782 0.0
C532 C 0.71726 0.88449 0.12208 0.0
C533 C 0.70653 0.85589 0.13683 0.0
C534 C 0.73218 0.88608 0.10846 0.0
C535 C 0.73423 0.87271 0.10802 0.0
H536 H 0.11862 0.8459 0.07526 0.0
H537 H 0.13682 0.81981 0.16454 0.0
H538 H 0.1626 0.84413 0.17541 0.0
H539 H 0.18073 0.87228 0.15412 0.0
H540 H 0.16311 0.8988 0.06484 0.0
H541 H 0.13642 0.87496 0.06012 0.0
C542 C 0.12816 0.84558 0.09762 0.0
C543 C 0.12575 0.83094 0.11843 0.0
C544 C 0.14315 0.85969 0.10359 0.0
C545 C 0.13829 0.83081 0.14752 0.0
C546 C 0.1531 0.84474 0.15382 0.0
C547 C 0.17104 0.87292 0.134 0.0
C548 C 0.174 0.88729 0.10944 0.0
C549 C 0.15578 0.85916 0.13109 0.0
C550 C 0.16121 0.8879 0.08406 0.0
C551 C 0.14593 0.87423 0.08114 0.0
H552 H 0.27433 0.11739 0.97394 0.0
H553 H 0.31662 0.13465 0.87404 0.0
H554 H 0.31813 0.16046 0.86514 0.0
H555 H 0.3091 0.17896 0.89217 0.0
H556 H 0.2671 0.16232 0.99276 0.0
H557 H 0.26373 0.13545 0.99417 0.0
C558 C 0.28374 0.12672 0.9496 0.0
C559 C 0.29546 0.12409 0.92534 0.0
C560 C 0.28468 0.14172 0.94496 0.0
C561 C 0.30753 0.13633 0.89375 0.0
C562 C 0.30843 0.15115 0.88859 0.0
C563 C 0.29909 0.16943 0.91399 0.0
C564 C 0.2885 0.17273 0.94284 0.0
C565 C 0.29733 0.1541 0.91511 0.0
C566 C 0.27548 0.16016 0.97028 0.0
C567 C 0.27359 0.14479 0.97133 0.0
H568 H 0.84184 0.11279 0.96787 0.0
H569 H 0.81758 0.12989 0.86336 0.0
H570 H 0.84226 0.15544 0.85354 0.0
H571 H 0.86996 0.17377 0.88055 0.0
H572 H 0.89452 0.15728 0.98592 0.0
H573 H 0.87058 0.13065 0.98878 0.0
C574 C 0.84201 0.12202 0.94237 0.0
C575 C 0.82778 0.11943 0.91698 0.0
C576 C 0.85628 0.13687 0.93724 0.0
C577 C 0.82827 0.13155 0.88392 0.0
C578 C 0.8424 0.14622 0.87823 0.0
C579 C 0.87017 0.16433 0.90378 0.0
C580 C 0.88397 0.1676 0.93347 0.0
C581 C 0.85635 0.14914 0.90572 0.0
C582 C 0.88405 0.15513 0.96279 0.0
C583 C 0.87033 0.1399 0.96463 0.0
H584 H 0.83174 0.69785 0.89335 0.0
H585 H 0.85146 0.7445 0.96705 0.0
H586 H 0.87805 0.74702 0.96959 0.0
H587 H 0.8952 0.73484 0.95797 0.0
H588 H 0.87485 0.68805 0.88421 0.0
H589 H 0.84914 0.68682 0.87462 0.0
C590 C 0.84188 0.70866 0.90949 0.0
C591 C 0.83955 0.72088 0.93047 0.0
C592 C 0.85706 0.70996 0.91128 0.0
C593 C 0.85288 0.73488 0.95063 0.0
C594 C 0.86809 0.73629 0.95239 0.0
C595 C 0.88519 0.72446 0.93929 0.0
C596 C 0.88699 0.71149 0.92254 0.0
C597 C 0.87025 0.72374 0.93395 0.0
C598 C 0.87386 0.69817 0.89806 0.0
C599 C 0.85909 0.69742 0.89248 0.0
H600 H 0.8501 0.64575 0.49345 0.0
H601 H 0.8306 0.60195 0.40112 0.0
H602 H 0.80395 0.59922 0.40448 0.0
H603 H 0.78673 0.61072 0.42634 0.0
H604 H 0.80692 0.65508 0.51574 0.0
H605 H 0.83265 0.65601 0.52125 0.0
C606 C 0.84002 0.63551 0.47442 0.0
C607 C 0.84243 0.62418 0.44654 0.0
C608 C 0.82481 0.63413 0.47582 0.0
C609 C 0.82914 0.61091 0.42263 0.0
C610 C 0.81388 0.60935 0.42443 0.0
C611 C 0.79668 0.62042 0.44787 0.0
C612 C 0.79493 0.63287 0.47021 0.0
C613 C 0.81164 0.62109 0.44989 0.0
C614 C 0.80798 0.64541 0.49774 0.0
C615 C 0.82272 0.64598 0.50086 0.0
H616 H 0.40164 0.17974 0.4085 0.0
H617 H 0.36103 0.1561 0.51625 0.0
H618 H 0.36039 0.18083 0.52654 0.0
H619 H 0.36966 0.20837 0.49899 0.0
H620 H 0.4099 0.23229 0.39015 0.0
H621 H 0.41249 0.20835 0.38695 0.0
C622 C 0.39281 0.18006 0.43483 0.0
C623 C 0.38129 0.16598 0.461 0.0
C624 C 0.39235 0.19436 0.44018 0.0
C625 C 0.36994 0.16666 0.49508 0.0
C626 C 0.36954 0.18082 0.50104 0.0
C627 C 0.37912 0.20844 0.47493 0.0
C628 C 0.38944 0.22207 0.44438 0.0
C629 C 0.38042 0.19461 0.47276 0.0
C630 C 0.40174 0.22196 0.41397 0.0
C631 C 0.40319 0.20824 0.41193 0.0
H632 H 0.83931 0.20296 0.48287 0.0
H633 H 0.82286 0.22721 0.37607 0.0
H634 H 0.796 0.20356 0.37477 0.0
H635 H 0.77786 0.17507 0.39743 0.0
H636 H 0.79492 0.1511 0.5033 0.0
H637 H 0.82074 0.17557 0.51164 0.0
C638 C 0.82983 0.20316 0.45966 0.0
C639 C 0.83319 0.2168 0.42913 0.0
C640 C 0.81449 0.1895 0.45863 0.0
C641 C 0.82066 0.21687 0.39985 0.0
C642 C 0.80529 0.20331 0.3989 0.0
C643 C 0.78714 0.17527 0.42295 0.0
C644 C 0.78445 0.16117 0.44914 0.0
C645 C 0.80215 0.18942 0.42717 0.0
C646 C 0.79665 0.16169 0.48214 0.0
C647 C 0.81147 0.1757 0.48697 0.0
H648 H 0.97194 0.50619 0.21471 0.0
H649 H 0.93296 0.48993 0.3289 0.0
H650 H 0.93065 0.4635 0.33133 0.0
H651 H 0.94171 0.446 0.30826 0.0
H652 H 0.98136 0.46312 0.19622 0.0
H653 H 0.98132 0.48817 0.18577 0.0
C654 C 0.96279 0.49684 0.23972 0.0
C655 C 0.95278 0.50013 0.27208 0.0
C656 C 0.96175 0.48183 0.24175 0.0
C657 C 0.94087 0.48776 0.30368 0.0
C658 C 0.93961 0.47266 0.30533 0.0
C659 C 0.95019 0.45512 0.28099 0.0
C660 C 0.96165 0.45272 0.25364 0.0
C661 C 0.95029 0.4697 0.27566 0.0
C662 C 0.97252 0.46468 0.21834 0.0
C663 C 0.97252 0.47904 0.21226 0.0
H664 H 0.56492 0.49697 0.27889 0.0
H665 H 0.54527 0.52566 0.21915 0.0
H666 H 0.51917 0.50171 0.20696 0.0
H667 H 0.50128 0.47313 0.22149 0.0
H668 H 0.52027 0.44414 0.28373 0.0
H669 H 0.54724 0.46763 0.28593 0.0
C670 C 0.55499 0.49794 0.26238 0.0
C671 C 0.55704 0.51313 0.25057 0.0
C672 C 0.53983 0.48408 0.25628 0.0
C673 C 0.54402 0.51416 0.22921 0.0
C674 C 0.52905 0.50046 0.22221 0.0
C675 C 0.51132 0.47186 0.23502 0.0
C676 C 0.50868 0.4569 0.25303 0.0
C677 C 0.52672 0.48543 0.23699 0.0
C678 C 0.52191 0.45551 0.26983 0.0
C679 C 0.53735 0.46897 0.27131 0.0
H680 H 0.55484 0.06246 0.28614 0.0
H681 H 0.53527 0.01711 0.20283 0.0
H682 H 0.50976 0.01624 0.19161 0.0
H683 H 0.49234 0.02722 0.21061 0.0
H684 H 0.51128 0.07237 0.29447 0.0
H685 H 0.53767 0.07451 0.29955 0.0
C686 C 0.54505 0.05247 0.26507 0.0
C687 C 0.54699 0.0398 0.24593 0.0
C688 C 0.53023 0.05195 0.25893 0.0
C689 C 0.53415 0.02698 0.21851 0.0
C690 C 0.5195 0.02645 0.21199 0.0
C691 C 0.50225 0.03762 0.22963 0.0
C692 C 0.49975 0.04953 0.25254 0.0
C693 C 0.51731 0.0387 0.2329 0.0
C694 C 0.51282 0.06299 0.27653 0.0
C695 C 0.52792 0.06419 0.27968 0.0
H696 H 0.44844 0.93933 0.74025 0.0
H697 H 0.46894 0.9846 0.82423 0.0
H698 H 0.49442 0.98514 0.83301 0.0
H699 H 0.5116 0.97421 0.80954 0.0
H700 H 0.4919 0.92954 0.72219 0.0
H701 H 0.46541 0.92725 0.72258 0.0
C702 C 0.45841 0.94916 0.76129 0.0
C703 C 0.45681 0.96196 0.78118 0.0
C704 C 0.47323 0.9496 0.76515 0.0
C705 C 0.46987 0.97466 0.80809 0.0
C706 C 0.48448 0.975 0.8131 0.0
C707 C 0.50151 0.96386 0.791 0.0
C708 C 0.50383 0.95216 0.76537 0.0
C709 C 0.48641 0.96276 0.79054 0.0
C710 C 0.49052 0.93879 0.742 0.0
C711 C 0.47535 0.93749 0.74207 0.0
H712 H 0.0429 0.53997 0.82372 0.0
H713 H 0.0804 0.56209 0.70413 0.0
H714 H 0.08274 0.53796 0.70126 0.0
H715 H 0.07196 0.50949 0.72573 0.0
H716 H 0.03371 0.48764 0.84312 0.0
H717 H 0.0339 0.51278 0.85379 0.0
C718 C 0.05173 0.53964 0.79739 0.0
C719 C 0.06131 0.55276 0.76368 0.0
C720 C 0.05277 0.52568 0.79514 0.0
C721 C 0.07284 0.55215 0.73042 0.0
C722 C 0.07411 0.53831 0.72853 0.0
C723 C 0.06384 0.51031 0.75422 0.0
C724 C 0.0527 0.49661 0.78305 0.0
C725 C 0.06382 0.52483 0.75963 0.0
C726 C 0.04227 0.4979 0.81986 0.0
C727 C 0.04237 0.51229 0.82607 0.0
H728 H 0.47602 0.49764 0.82399 0.0
H729 H 0.45077 0.51719 0.73723 0.0
H730 H 0.47477 0.5438 0.73987 0.0
H731 H 0.50372 0.56098 0.7597 0.0
H732 H 0.52858 0.54086 0.84605 0.0
H733 H 0.50393 0.51512 0.8509 0.0
C734 C 0.47569 0.50773 0.80604 0.0
C735 C 0.46166 0.50536 0.77989 0.0
C736 C 0.48953 0.52293 0.80734 0.0
C737 C 0.46141 0.51865 0.75753 0.0
C738 C 0.47517 0.53387 0.75882 0.0
C739 C 0.5037 0.55104 0.78024 0.0
C740 C 0.5181 0.55288 0.80183 0.0
C741 C 0.48942 0.53609 0.78256 0.0
C742 C 0.51777 0.53982 0.82849 0.0
C743 C 0.50365 0.52504 0.8313 0.0
H744 H 0.64775 0.84416 0.55573 0.0
H745 H 0.60117 0.82343 0.63135 0.0
H746 H 0.59897 0.79706 0.6299 0.0
H747 H 0.61133 0.78032 0.61384 0.0
H748 H 0.65809 0.80161 0.53881 0.0
H749 H 0.65905 0.82722 0.53321 0.0
C750 C 0.63703 0.83387 0.57152 0.0
C751 C 0.62473 0.83584 0.59413 0.0
C752 C 0.6359 0.8188 0.57099 0.0
C753 C 0.61086 0.8223 0.61379 0.0
C754 C 0.60961 0.8072 0.61319 0.0
C755 C 0.62164 0.79051 0.59567 0.0
C756 C 0.63469 0.78901 0.57738 0.0
C757 C 0.62222 0.80537 0.59288 0.0
C758 C 0.64792 0.80237 0.55376 0.0
C759 C 0.64851 0.81708 0.55052 0.0
H760 H 0.1627 0.80198 0.55251 0.0
H761 H 0.18235 0.77631 0.63602 0.0
H762 H 0.20895 0.80034 0.63535 0.0
H763 H 0.22605 0.82938 0.61876 0.0
H764 H 0.20564 0.85492 0.53908 0.0
H765 H 0.17999 0.83017 0.5302 0.0
C766 C 0.1728 0.80153 0.57011 0.0
C767 C 0.17044 0.78736 0.59477 0.0
C768 C 0.18796 0.81544 0.57053 0.0
C769 C 0.18376 0.78706 0.61699 0.0
C770 C 0.19899 0.80082 0.61675 0.0
C771 C 0.21606 0.82945 0.59864 0.0
C772 C 0.21773 0.844 0.57999 0.0
C773 C 0.20116 0.81519 0.59476 0.0
C774 C 0.20464 0.84392 0.55426 0.0
C775 C 0.18995 0.82977 0.54918 0.0
H776 H 0.21002 0.36323 0.55127 0.0
H777 H 0.23581 0.4062 0.64708 0.0
H778 H 0.21193 0.40901 0.65002 0.0
H779 H 0.18294 0.39781 0.63216 0.0
H780 H 0.15752 0.35458 0.53706 0.0
H781 H 0.18204 0.35343 0.52701 0.0
C782 C 0.21051 0.37332 0.5724 0.0
C783 C 0.22465 0.38438 0.59941 0.0
C784 C 0.19672 0.37477 0.57444 0.0
C785 C 0.22508 0.39747 0.626 0.0
C786 C 0.21139 0.39905 0.62793 0.0
C787 C 0.18281 0.38826 0.60868 0.0
C788 C 0.1683 0.3762 0.58603 0.0
C789 C 0.19702 0.38755 0.60333 0.0
C790 C 0.16842 0.36395 0.55551 0.0
C791 C 0.18246 0.36325 0.54968 0.0
H792 H 0.03135 0.2529 0.96573 0.0
H793 H 0.02626 0.25254 0.13922 0.0
H794 H 0.997 0.23636 0.13002 0.0
H795 H 0.97292 0.22389 0.07227 0.0
H796 H 0.97798 0.22712 0.89857 0.0
H797 H 0.00726 0.24056 0.90794 0.0
C798 C 0.02382 0.24907 1.00152 0.0
C799 C 0.03089 0.25373 0.05314 0.0
C800 C 0.00705 0.24038 0.99572 0.0
C801 C 0.02104 0.24902 0.09915 0.0
C802 C 1.00435 0.23981 0.09385 0.0
C803 C 0.98045 0.22734 0.03648 0.0
C804 C 0.97336 0.2244 0.98476 0.0
C805 C 0.99722 0.23563 0.04231 0.0
C806 C 0.98321 0.22923 0.93873 0.0
C807 C 0.99991 0.23691 0.94412 0.0
H808 H 0.79706 0.77078 1.01995 0.0
H809 H 0.75655 0.73042 0.94405 0.0
H810 H 0.73919 0.74094 0.97024 0.0
H811 H 0.7352 0.761 1.01786 0.0
H812 H 0.77578 0.80258 0.08687 0.0
H813 H 0.79346 0.7921 0.06128 0.0
C814 C 0.78449 0.76441 1.00847 0.0
C815 C 0.77812 0.7498 0.98019 0.0
C816 C 0.77454 0.77057 0.02352 0.0
C817 C 0.76181 0.74173 0.96546 0.0
C818 C 0.75182 0.74765 0.98092 0.0
C819 C 0.74789 0.76762 0.02783 0.0
C820 C 0.7542 0.78225 0.05553 0.0
C821 C 0.75799 0.76189 1.01078 0.0
C822 C 0.77071 0.79111 0.06654 0.0
C823 C 0.78078 0.78518 0.05155 0.0
H824 H 0.22604 0.97667 0.97952 0.0
H825 H 0.2315 0.98279 0.15265 0.0
H826 H 0.24428 0.0119 0.14173 0.0
H827 H 0.25577 0.03558 0.08241 0.0
H828 H 0.25344 0.02942 0.90913 0.0
H829 H 0.23743 1.0003 0.92033 0.0
C830 C 0.22978 0.98438 1.0149 0.0
C831 C 0.22769 0.97765 0.06689 0.0
C832 C 0.23775 1.00106 1.00807 0.0
C833 C 0.23294 0.98774 0.11231 0.0
C834 C 0.24026 0.00435 0.10602 0.0
C835 C 0.2515 0.02785 0.04714 0.0
C836 C 0.25557 0.03457 0.99497 0.0
C837 C 0.24298 0.01115 0.05405 0.0
C838 C 0.25035 0.02447 0.94959 0.0
C839 C 0.24125 0.00785 0.95604 0.0
H840 H 0.97734 0.7526 0.07307 0.0
H841 H 0.9822 0.75357 0.89944 0.0
H842 H 0.01147 0.76977 0.90828 0.0
H843 H 0.03568 0.78188 0.96571 0.0
H844 H 0.03082 0.77774 0.13931 0.0
H845 H 1.00154 0.76464 0.13051 0.0
C846 C 0.98482 0.75661 0.03719 0.0
C847 C 0.97767 0.75211 0.98562 0.0
C848 C 1.00162 0.76525 0.04277 0.0
C849 C 0.98747 0.75699 0.93947 0.0
C850 C 1.00418 0.7662 0.94457 0.0
C851 C 0.02819 0.77834 1.0016 0.0
C852 C 0.03535 0.78093 0.05315 0.0
C853 C 0.01139 0.77017 0.99603 0.0
C854 C 0.02555 0.77593 0.0993 0.0
C855 C 0.00884 0.76843 0.09422 0.0
H856 H 0.24351 0.21721 0.05179 0.0
H857 H 0.27902 0.25516 0.95204 0.0
H858 H 0.26731 0.27184 0.97316 0.0
H859 H 0.24748 0.27602 0.02209 0.0
H860 H 0.21069 0.23763 0.11608 0.0
H861 H 0.22251 0.22077 0.09605 0.0
C862 C 0.24858 0.22907 0.03422 0.0
C863 C 0.26216 0.23493 1.00047 0.0
C864 C 0.24173 0.23859 0.04638 0.0
C865 C 0.26853 0.2503 0.97785 0.0
C866 C 0.26193 0.25991 0.99028 0.0
C867 C 0.24222 0.26401 0.03862 0.0
C868 C 0.22857 0.25811 0.07161 0.0
C869 C 0.24869 0.25427 0.02508 0.0
C870 C 0.22142 0.24242 0.09147 0.0
C871 C 0.22811 0.23279 0.07969 0.0
H872 H 0.77909 0.03237 0.08069 0.0
H873 H 0.77749 0.02488 0.9082 0.0
H874 H 0.76561 0.99599 0.92253 0.0
H875 H 0.75382 0.97282 0.98382 0.0
H876 H 0.75202 0.98005 0.15532 0.0
H877 H 0.76721 0.00915 0.14207 0.0
C878 C 0.77638 0.02441 0.04635 0.0
C879 C 0.77931 0.03067 0.99348 0.0
C880 C 0.76887 0.00781 0.05489 0.0
C881 C 0.77539 0.02027 0.94919 0.0
C882 C 0.76859 0.00379 0.95742 0.0
C883 C 0.75701 0.98079 1.01838 0.0
C884 C 0.75203 0.97438 0.07058 0.0
C885 C 0.76502 0.99741 1.01003 0.0
C886 C 0.75583 0.98477 0.11488 0.0
C887 C 0.76447 1.00137 0.10724 0.0
H888 H 0.64897 0.58423 0.36165 0.0
H889 H 0.65028 0.5433 0.29877 0.0
H890 H 0.67853 0.5552 0.32639 0.0
H891 H 0.70284 0.57745 0.36841 0.0
H892 H 0.70037 0.61713 0.43849 0.0
H893 H 0.67248 0.60535 0.40944 0.0
C894 C 0.65556 0.57807 0.35334 0.0
C895 C 0.64783 0.56319 0.32687 0.0
C896 C 0.67146 0.58461 0.37166 0.0
C897 C 0.65619 0.55495 0.31811 0.0
C898 C 0.67226 0.56169 0.33428 0.0
C899 C 0.69613 0.58341 0.37796 0.0
C900 C 0.70373 0.59819 0.40556 0.0
C901 C 0.68 0.5765 0.36134 0.0
C902 C 0.69483 0.60571 0.41771 0.0
C903 C 0.6789 0.59906 0.40062 0.0
H904 H 0.44984 0.08781 0.38899 0.0
H905 H 0.44337 0.08988 0.21695 0.0
H906 H 0.4307 0.10614 0.23246 0.0
H907 H 0.41946 0.11771 0.29543 0.0
H908 H 0.42282 0.11247 0.46757 0.0
H909 H 0.43886 0.09959 0.45182 0.0
C910 C 0.44592 0.09208 0.35485 0.0
C911 C 0.44767 0.08784 0.30183 0.0
C912 C 0.43801 0.10074 0.36429 0.0
C913 C 0.4422 0.09309 0.25804 0.0
C914 C 0.43494 0.10233 0.26695 0.0
C915 C 0.42397 0.114 0.32947 0.0
C916 C 0.42015 0.11617 0.38263 0.0
C917 C 0.4325 0.10595 0.31995 0.0
C918 C 0.4257 0.11098 0.42638 0.0
C919 C 0.43481 0.10359 0.41734 0.0
H920 H 0.8935 0.31332 0.43383 0.0
H921 H 0.88574 0.30005 0.26508 0.0
H922 H 0.90038 0.3282 0.2388 0.0
H923 H 0.91742 0.35662 0.26375 0.0
H924 H 0.92342 0.37002 0.43235 0.0
H925 H 0.90737 0.34194 0.45865 0.0
C926 C 0.89483 0.31664 0.39139 0.0
C927 C 0.88868 0.30465 0.35151 0.0
C928 C 0.90303 0.33289 0.37647 0.0
C929 C 0.89033 0.30908 0.29661 0.0
C930 C 0.89879 0.32518 0.28147 0.0
C931 C 0.915 0.35336 0.30615 0.0
C932 C 0.92169 0.36532 0.34602 0.0
C933 C 0.90549 0.33719 0.32102 0.0
C934 C 0.91835 0.36101 0.40085 0.0
C935 C 0.90924 0.34494 0.41599 0.0
H936 H 0.69527 0.11154 0.2949 0.0
H937 H 0.68959 0.10719 0.46826 0.0
H938 H 0.66034 0.09383 0.45778 0.0
H939 H 0.63645 0.0815 0.39899 0.0
H940 H 0.6422 0.08271 0.22569 0.0
H941 H 0.67139 0.0993 0.23613 0.0
C942 C 0.68762 0.10791 0.33037 0.0
C943 C 0.69451 0.11048 0.38233 0.0
C944 C 0.67085 0.09959 0.32385 0.0
C945 C 0.6845 0.10538 0.42794 0.0
C946 C 0.66781 0.09773 0.42191 0.0
C947 C 0.6441 0.08565 0.36352 0.0
C948 C 0.63724 0.08109 0.31159 0.0
C949 C 0.66086 0.09451 0.37004 0.0
C950 C 0.64726 0.08617 0.26598 0.0
C951 C 0.66391 0.0956 0.272 0.0
H952 H 0.89577 0.58866 0.30374 0.0
H953 H 0.90024 0.58883 0.47754 0.0
H954 H 0.91281 0.57222 0.47033 0.0
H955 H 0.924 0.55915 0.41421 0.0
H956 H 0.92235 0.56171 0.24017 0.0
H957 H 0.9071 0.57572 0.24761 0.0
C958 C 0.8993 0.58485 0.34005 0.0
C959 C 0.89697 0.58979 0.39116 0.0
C960 C 0.90708 0.5759 0.33539 0.0
C961 C 0.90189 0.58511 0.43784 0.0
C962 C 0.90908 0.57565 0.43368 0.0
C963 C 0.9201 0.56258 0.37794 0.0
C964 C 0.92413 0.55929 0.32668 0.0
C965 C 0.91193 0.57117 0.38263 0.0
C966 C 0.91933 0.5641 0.28 0.0
C967 C 0.91064 0.57211 0.28428 0.0
H968 H 0.4561 0.36855 0.39089 0.0
H969 H 0.4461 0.36129 0.21978 0.0
H970 H 0.4319 0.33219 0.23321 0.0
H971 H 0.42084 0.30897 0.29463 0.0
H972 H 0.42796 0.31651 0.46689 0.0
H973 H 0.44488 0.34541 0.45227 0.0
C974 C 0.45104 0.36057 0.35644 0.0
C975 C 0.4523 0.36698 0.30429 0.0
C976 C 0.4423 0.34396 0.3649 0.0
C977 C 0.44534 0.35658 0.26018 0.0
C978 C 0.43721 0.33998 0.26792 0.0
C979 C 0.4263 0.31695 0.32887 0.0
C980 C 0.42334 0.31068 0.38176 0.0
C981 C 0.43541 0.33355 0.32021 0.0
C982 C 0.43014 0.32111 0.42589 0.0
C983 C 0.43979 0.3376 0.41749 0.0
H984 H 0.31136 0.91727 0.67765 0.0
H985 H 0.30948 0.87378 0.62569 0.0
H986 H 0.33788 0.88492 0.65012 0.0
H987 H 0.36325 0.90724 0.68632 0.0
H988 H 0.364 0.94965 0.74598 0.0
H989 H 0.33596 0.93861 0.71983 0.0
C990 C 0.31729 0.91036 0.67103 0.0
C991 C 0.3086 0.89495 0.64856 0.0
C992 C 0.3333 0.91654 0.68757 0.0
C993 C 0.31611 0.88581 0.64197 0.0
C994 C 0.33227 0.89213 0.65631 0.0
C995 C 0.35721 0.91397 0.69422 0.0
C996 C 0.36576 0.92928 0.71805 0.0
C997 C 0.34098 0.90748 0.6794 0.0
C998 C 0.35772 0.93781 0.72812 0.0
C999 C 0.34171 0.93157 0.71268 0.0
H1000 H 0.08953 0.44501 0.62962 0.0
H1001 H 0.0911 0.4416 0.80336 0.0
H1002 H 0.10744 0.42876 0.79462 0.0
H1003 H 0.11947 0.41673 0.73734 0.0
H1004 H 0.11478 0.41697 0.56376 0.0
H1005 H 0.10156 0.43295 0.57232 0.0
C1006 C 0.09368 0.44167 0.66554 0.0
C1007 C 0.0893 0.44437 0.7171 0.0
C1008 C 0.10242 0.43367 0.66004 0.0
C1009 C 0.0944 0.43968 0.76332 0.0
C1010 C 0.1037 0.43233 0.75829 0.0
C1011 C 0.11579 0.42054 0.70139 0.0
C1012 C 0.11824 0.41589 0.64993 0.0
C1013 C 0.10755 0.42903 0.70684 0.0
C1014 C 0.11308 0.42051 0.6037 0.0
C1015 C 0.1055 0.42959 0.60864 0.0
H1016 H 0.56631 0.65219 0.78062 0.0
H1017 H 0.55687 0.63271 0.61889 0.0
H1018 H 0.56884 0.6596 0.58078 0.0
H1019 H 0.5848 0.6889 0.59344 0.0
H1020 H 0.59229 0.70831 0.75504 0.0
H1021 H 0.57815 0.68136 0.79292 0.0
C1022 C 0.5666 0.65385 0.73711 0.0
C1023 C 0.56086 0.64051 0.7027 0.0
C1024 C 0.57327 0.66938 0.71531 0.0
C1025 C 0.56117 0.6428 0.64634 0.0
C1026 C 0.56812 0.65819 0.62441 0.0
C1027 C 0.58302 0.68719 0.63682 0.0
C1028 C 0.5897 0.70057 0.67131 0.0
C1029 C 0.57462 0.67161 0.65847 0.0
C1030 C 0.58721 0.6982 0.72749 0.0
C1031 C 0.57922 0.68278 0.74932 0.0
H1032 H 0.37259 0.45224 0.63917 0.0
H1033 H 0.36612 0.44509 0.81164 0.0
H1034 H 0.33688 0.43102 0.79958 0.0
H1035 H 0.3133 0.4192 0.73933 0.0
H1036 H 0.31994 0.42327 0.56628 0.0
H1037 H 0.34903 0.4402 0.5789 0.0
C1038 C 0.36475 0.44782 0.67415 0.0
C1039 C 0.37142 0.44986 0.72631 0.0
C1040 C 0.34803 0.43912 0.66659 0.0
C1041 C 0.3612 0.44373 0.77121 0.0
C1042 C 0.34452 0.43567 0.76426 0.0
C1043 C 0.32112 0.42401 0.70443 0.0
C1044 C 0.31455 0.4202 0.65192 0.0
C1045 C 0.33782 0.43309 0.71207 0.0
C1046 C 0.32478 0.42614 0.607 0.0
C1047 C 0.34137 0.43577 0.61426 0.0
H1048 H 0.58561 0.8868 0.72592 0.0
H1049 H 0.58817 0.8945 0.5534 0.0
H1050 H 0.57231 0.90788 0.56224 0.0
H1051 H 0.55937 0.91895 0.61996 0.0
H1052 H 0.56003 0.91431 0.79344 0.0
H1053 H 0.57293 0.89807 0.78361 0.0
C1054 C 0.58246 0.89119 0.69018 0.0
C1055 C 0.58782 0.88951 0.63895 0.0
C1056 C 0.57402 0.89948 0.69598 0.0
C1057 C 0.58405 0.89559 0.59312 0.0
C1058 C 0.57504 0.90325 0.59824 0.0
C1059 C 0.56213 0.91416 0.65552 0.0
C1060 C 0.55861 0.91762 0.70735 0.0
C1061 C 0.57018 0.90548 0.64956 0.0
C1062 C 0.56258 0.91172 0.75321 0.0
C1063 C 0.56996 0.90247 0.74755 0.0
H1064 H 0.08926 0.64076 0.62508 0.0
H1065 H 0.09149 0.64476 0.79918 0.0
H1066 H 0.10654 0.67402 0.792 0.0
H1067 H 0.11753 0.69835 0.73619 0.0
H1068 H 0.11252 0.69424 0.56248 0.0
H1069 H 0.10015 0.66509 0.56928 0.0
C1070 C 0.09325 0.64806 0.66142 0.0
C1071 C 0.08944 0.64068 0.71262 0.0
C1072 C 0.10131 0.66481 0.65691 0.0
C1073 C 0.09434 0.65022 0.7594 0.0
C1074 C 0.10292 0.66692 0.75527 0.0
C1075 C 0.11393 0.69107 0.69979 0.0
C1076 C 0.11605 0.69839 0.64883 0.0
C1077 C 0.10627 0.67433 0.70425 0.0
C1078 C 0.11103 0.68884 0.60207 0.0
C1079 C 0.10396 0.6722 0.60599 0.0
H1080 H 0.11214 0.36563 0.8104 0.0
H1081 H 0.08758 0.32223 0.71584 0.0
H1082 H 0.07751 0.30649 0.79863 0.0
H1083 H 0.0776 0.30486 0.89762 0.0
H1084 H 0.10243 0.34824 0.99221 0.0
H1085 H 0.11031 0.36418 0.90942 0.0
C1086 C 0.10448 0.35274 0.8078 0.0
C1087 C 0.10081 0.34511 0.75698 0.0
C1088 C 0.09882 0.34374 0.85553 0.0
C1089 C 0.09068 0.32841 0.7544 0.0
C1090 C 0.08494 0.31939 0.80174 0.0
C1091 C 0.08461 0.31781 0.90025 0.0
C1092 C 0.08958 0.32532 0.95108 0.0
C1093 C 0.08924 0.3269 0.85251 0.0
C1094 C 0.0985 0.34213 0.95366 0.0
C1095 C 0.10306 0.35126 0.9063 0.0
H1096 H 0.66998 0.752 0.9455 0.0
H1097 H 0.71604 0.78984 0.89031 0.0
H1098 H 0.70721 0.78365 0.79662 0.0
H1099 H 0.68559 0.76908 0.72985 0.0
H1100 H 0.6393 0.73187 0.78525 0.0
H1101 H 0.64909 0.73602 0.8783 0.0
C1102 C 0.67814 0.75878 0.913 0.0
C1103 C 0.69358 0.77149 0.92534 0.0
C1104 C 0.67294 0.75528 0.85874 0.0
C1105 C 0.704 0.78009 0.88239 0.0
C1106 C 0.69898 0.77655 0.82852 0.0
C1107 C 0.67779 0.76165 0.76216 0.0
C1108 C 0.66174 0.75024 0.75056 0.0
C1109 C 0.68337 0.76438 0.81613 0.0
C1110 C 0.65171 0.74083 0.79308 0.0
C1111 C 0.65726 0.74322 0.84645 0.0
H1112 H 0.24797 0.90495 0.97071 0.0
H1113 H 0.23762 0.94103 0.91289 0.0
H1114 H 0.24363 0.93698 0.82051 0.0
H1115 H 0.24974 0.92167 0.75434 0.0
H1116 H 0.25984 0.8854 0.81233 0.0
H1117 H 0.2561 0.8911 0.90528 0.0
C1118 C 0.24732 0.91212 0.93807 0.0
C1119 C 0.24222 0.92318 0.94901 0.0
C1120 C 0.25057 0.90958 0.88443 0.0
C1121 C 0.24137 0.93231 0.90586 0.0
C1122 C 0.24478 0.92999 0.85276 0.0
C1123 C 0.25126 0.91511 0.78729 0.0
C1124 C 0.2549 0.903 0.77581 0.0
C1125 C 0.24902 0.91838 0.84126 0.0
C1126 C 0.2569 0.8947 0.81944 0.0
C1127 C 0.25477 0.89795 0.87295 0.0
H1128 H 0.30673 0.07873 0.14953 0.0
H1129 H 0.35032 0.09951 0.05519 0.0
H1130 H 0.36624 0.10607 0.13812 0.0
H1131 H 0.36785 0.10807 0.23707 0.0
H1132 H 0.32428 0.08751 0.33147 0.0
H1133 H 0.30827 0.07854 0.2486 0.0
C1134 C 0.31971 0.08457 0.14702 0.0
C1135 C 0.32732 0.08882 0.09622 0.0
C1136 C 0.32879 0.08841 0.19481 0.0
C1137 C 0.34414 0.09617 0.09373 0.0
C1138 C 0.35326 0.09998 0.14115 0.0
C1139 C 0.35485 0.1015 0.23961 0.0
C1140 C 0.34728 0.09867 0.29038 0.0
C1141 C 0.34573 0.0965 0.19187 0.0
C1142 C 0.33042 0.08993 0.29294 0.0
C1143 C 0.32126 0.08485 0.24555 0.0
H1144 H 0.89476 0.25807 0.22437 0.0
H1145 H 0.91487 0.23491 0.32027 0.0
H1146 H 0.92435 0.22831 0.23781 0.0
H1147 H 0.92499 0.22723 0.13863 0.0
H1148 H 0.90412 0.2497 0.04288 0.0
H1149 H 0.89699 0.25857 0.12555 0.0
C1150 C 0.90133 0.25168 0.22748 0.0
C1151 C 0.90394 0.24685 0.27862 0.0
C1152 C 0.90654 0.24774 0.17993 0.0
C1153 C 0.91262 0.23873 0.28159 0.0
C1154 C 0.91801 0.2349 0.2344 0.0
C1155 C 0.91902 0.23421 0.13564 0.0
C1156 C 0.91497 0.23765 0.08439 0.0
C1157 C 0.91474 0.23906 0.18334 0.0
C1158 C 0.90733 0.2468 0.0816 0.0
C1159 C 0.90321 0.25184 0.12892 0.0
H1160 H 0.76975 0.68247 0.30358 0.0
H1161 H 0.7484 0.63412 0.24285 0.0
H1162 H 0.75262 0.64391 0.15015 0.0
H1163 H 0.76412 0.66633 0.08542 0.0
H1164 H 0.78594 0.71471 0.14619 0.0
H1165 H 0.7797 0.7048 0.23865 0.0
C1166 C 0.76585 0.67407 0.27009 0.0
C1167 C 0.75891 0.6576 0.28052 0.0
C1168 C 0.76849 0.67979 0.21636 0.0
C1169 C 0.75394 0.6469 0.23634 0.0
C1170 C 0.75634 0.65247 0.18305 0.0
C1171 C 0.76733 0.67468 0.11882 0.0
C1172 C 0.77562 0.69123 0.10856 0.0
C1173 C 0.76388 0.66892 0.17245 0.0
C1174 C 0.7797 0.70188 0.15262 0.0
C1175 C 0.77613 0.69624 0.20576 0.0
H1176 H 0.932 0.70187 0.14529 0.0
H1177 H 0.91418 0.65828 0.05255 0.0
H1178 H 0.9074 0.64273 0.13622 0.0
H1179 H 0.9044 0.64132 0.23502 0.0
H1180 H 0.92191 0.68488 0.32771 0.0
H1181 H 0.93107 0.70064 0.24453 0.0
C1182 C 0.92677 0.68898 0.14326 0.0
C1183 C 0.92344 0.68125 0.09256 0.0
C1184 C 0.92276 0.6801 0.1915 0.0
C1185 C 0.91683 0.66455 0.09089 0.0
C1186 C 0.91289 0.65564 0.13876 0.0
C1187 C 0.91035 0.65428 0.23719 0.0
C1188 C 0.91228 0.66189 0.2876 0.0
C1189 C 0.91546 0.66325 0.1892 0.0
C1190 C 0.92019 0.6787 0.28955 0.0
C1191 C 0.92539 0.68772 0.24195 0.0
H1192 H 0.30816 0.23057 0.1564 0.0
H1193 H 0.35144 0.2542 0.06063 0.0
H1194 H 0.36753 0.26382 0.14322 0.0
H1195 H 0.36942 0.26386 0.2421 0.0
H1196 H 0.32623 0.23969 0.33809 0.0
H1197 H 0.30997 0.23211 0.25557 0.0
C1198 C 0.32111 0.23791 0.15342 0.0
C1199 C 0.32857 0.24151 0.10221 0.0
C1200 C 0.3303 0.24328 0.20107 0.0
C1201 C 0.34536 0.25118 0.09936 0.0
C1202 C 0.35458 0.25667 0.14662 0.0
C1203 C 0.35644 0.25706 0.24521 0.0
C1204 C 0.34908 0.25223 0.2964 0.0
C1205 C 0.34719 0.25254 0.19764 0.0
C1206 C 0.33223 0.24354 0.29937 0.0
C1207 C 0.32292 0.23914 0.25215 0.0
H1208 H 0.76951 0.07363 0.13932 0.0
H1209 H 0.74857 0.0962 0.04452 0.0
H1210 H 0.73922 0.10277 0.12719 0.0
H1211 H 0.73918 0.10427 0.22627 0.0
H1212 H 0.76038 0.08193 0.32099 0.0
H1213 H 0.76729 0.07297 0.23819 0.0
C1214 C 0.76277 0.07987 0.13664 0.0
C1215 C 0.75994 0.08461 0.08584 0.0
C1216 C 0.75755 0.08372 0.18427 0.0
C1217 C 0.75099 0.09247 0.08309 0.0
C1218 C 0.74568 0.09629 0.13036 0.0
C1219 C 0.74518 0.09731 0.22889 0.0
C1220 C 0.74945 0.09397 0.27977 0.0
C1221 C 0.74924 0.09231 0.18117 0.0
C1222 C 0.75702 0.08475 0.28239 0.0
C1223 C 0.76103 0.07966 0.23505 0.0
H1224 H 0.67824 0.91328 0.74832 0.0
H1225 H 0.62962 0.88904 0.80868 0.0
H1226 H 0.63948 0.89526 0.90127 0.0
H1227 H 0.66191 0.9059 0.9663 0.0
H1228 H 0.71053 0.93016 0.90597 0.0
H1229 H 0.70067 0.92572 0.81326 0.0
C1230 C 0.6698 0.90952 0.78165 0.0
C1231 C 0.65322 0.90055 0.77114 0.0
C1232 C 0.67554 0.91305 0.83536 0.0
C1233 C 0.64248 0.89583 0.81517 0.0
C1234 C 0.64809 0.89937 0.86843 0.0
C1235 C 0.67034 0.91038 0.93294 0.0
C1236 C 0.68694 0.91821 0.94353 0.0
C1237 C 0.6646 0.90771 0.87918 0.0
C1238 C 0.69767 0.92396 0.89943 0.0
C1239 C 0.69205 0.92142 0.84611 0.0
H1240 H 0.10861 0.74286 0.80624 0.0
H1241 H 0.09105 0.7686 0.71177 0.0
H1242 H 0.08186 0.77543 0.7942 0.0
H1243 H 0.081 0.77612 0.89326 0.0
H1244 H 0.09887 0.75066 0.98783 0.0
H1245 H 0.10559 0.74157 0.90494 0.0
C1246 C 0.10264 0.74984 0.80354 0.0
C1247 C 0.10072 0.75538 0.7529 0.0
C1248 C 0.09751 0.75385 0.8511 0.0
C1249 C 0.09277 0.76424 0.75019 0.0
C1250 C 0.08755 0.7682 0.79734 0.0
C1251 C 0.08623 0.76845 0.89583 0.0
C1252 C 0.08961 0.76426 0.94675 0.0
C1253 C 0.0902 0.76339 0.84806 0.0
C1254 C 0.0962 0.75415 0.94923 0.0
C1255 C 0.10011 0.74898 0.90183 0.0
H1256 H 0.25539 0.34089 0.95825 0.0
H1257 H 0.21674 0.29578 0.89952 0.0
H1258 H 0.22321 0.3052 0.80661 0.0
H1259 H 0.23855 0.32695 0.74162 0.0
H1260 H 0.27694 0.37217 0.80037 0.0
H1261 H 0.27201 0.36193 0.89269 0.0
C1262 C 0.24845 0.33308 0.92515 0.0
C1263 C 0.2355 0.31771 0.9363 0.0
C1264 C 0.25219 0.33858 0.87135 0.0
C1265 C 0.22673 0.30773 0.89256 0.0
C1266 C 0.23041 0.31309 0.83914 0.0
C1267 C 0.24602 0.33446 0.77447 0.0
C1268 C 0.25801 0.35034 0.76389 0.0
C1269 C 0.24295 0.32859 0.82798 0.0
C1270 C 0.26752 0.35992 0.80721 0.0
C1271 C 0.2647 0.3541 0.86022 0.0
H1272 H 0.03765 0.43903 0.56129 0.0
H1273 H 0.99412 0.41689 0.65599 0.0
H1274 H 0.97812 0.40813 0.573 0.0
H1275 H 0.97648 0.40868 0.47403 0.0
H1276 H 0.01997 0.43113 0.37916 0.0
H1277 H 0.03601 0.43772 0.46202 0.0
C1278 C 0.02466 0.43216 0.56393 0.0
C1279 C 0.01711 0.42878 0.61497 0.0
C1280 C 0.01554 0.42729 0.51604 0.0
C1281 C 1.00027 0.41972 0.6174 0.0
C1282 C 0.9911 0.41475 0.56991 0.0
C1283 C 0.98948 0.41491 0.4713 0.0
C1284 C 0.997 0.41956 0.42033 0.0
C1285 C 0.99861 0.41878 0.51907 0.0
C1286 C 0.01385 0.42744 0.41773 0.0
C1287 C 0.02303 0.43127 0.46515 0.0
H1288 H 0.59163 0.58914 0.43451 0.0
H1289 H 0.59912 0.55106 0.49139 0.0
H1290 H 0.59597 0.55712 0.58468 0.0
H1291 H 0.58886 0.57178 0.65036 0.0
H1292 H 0.58053 0.60923 0.59305 0.0
H1293 H 0.58647 0.60505 0.50061 0.0
C1294 C 0.59271 0.58226 0.46729 0.0
C1295 C 0.59544 0.56956 0.45557 0.0
C1296 C 0.59074 0.58569 0.52121 0.0
C1297 C 0.59687 0.56083 0.49886 0.0
C1298 C 0.59509 0.56428 0.55248 0.0
C1299 C 0.58869 0.57923 0.61778 0.0
C1300 C 0.58419 0.59074 0.62864 0.0
C1301 C 0.59174 0.5765 0.56418 0.0
C1302 C 0.58386 0.6002 0.58579 0.0
C1303 C 0.5872 0.5978 0.53278 0.0
H1304 H 0.42471 0.00882 0.60664 0.0
H1305 H 0.41725 0.96335 0.54898 0.0
H1306 H 0.42044 0.97266 0.45601 0.0
H1307 H 0.42732 0.99434 0.39041 0.0
H1308 H 0.43519 0.03995 0.44762 0.0
H1309 H 0.42963 0.0299 0.54022 0.0
C1310 C 0.42367 1.00092 0.57375 0.0
C1311 C 0.4209 0.98546 0.58533 0.0
C1312 C 0.42558 0.00636 0.51972 0.0
C1313 C 0.4195 0.97538 0.5418 0.0
C1314 C 0.42131 0.98066 0.48827 0.0
C1315 C 0.42749 1.00196 0.42297 0.0
C1316 C 0.43175 0.0179 0.41189 0.0
C1317 C 0.42459 0.99621 0.47666 0.0
C1318 C 0.43205 0.02765 0.45487 0.0
C1319 C 0.42893 0.02194 0.50805 0.0
H1320 H 0.56587 0.96943 0.55732 0.0
H1321 H 0.5834 0.01289 0.65061 0.0
H1322 H 0.59216 0.02871 0.56746 0.0
H1323 H 0.59261 0.02998 0.46818 0.0
H1324 H 0.57469 0.98646 0.37494 0.0
H1325 H 0.56845 0.9709 0.45845 0.0
C1326 C 0.57175 0.98238 0.55963 0.0
C1327 C 0.57379 0.98994 0.6102 0.0
C1328 C 0.5766 0.99138 0.51167 0.0
C1329 C 0.58161 0.00674 0.61233 0.0
C1330 C 0.58657 0.0158 0.56474 0.0
C1331 C 0.58747 0.0171 0.466 0.0
C1332 C 0.58394 0.00939 0.41523 0.0
C1333 C 0.58377 0.00821 0.51416 0.0
C1334 C 0.57747 0.99272 0.41334 0.0
C1335 C 0.57384 0.9838 0.46112 0.0
H1336 H 0.97582 0.55979 0.47952 0.0
H1337 H 0.01858 0.58099 0.3808 0.0
H1338 H 0.03524 0.59003 0.46234 0.0
H1339 H 0.03764 0.5903 0.56114 0.0
H1340 H 0.99488 0.5683 0.65983 0.0
H1341 H 0.97823 0.56129 0.57839 0.0
C1342 C 0.98879 0.56651 0.47562 0.0
C1343 C 0.99592 0.56959 0.42392 0.0
C1344 C 0.99829 0.57146 0.52263 0.0
C1345 C 0.01275 0.57837 0.41994 0.0
C1346 C 0.02229 0.58353 0.46659 0.0
C1347 C 0.02467 0.58409 0.56506 0.0
C1348 C 0.01754 0.57974 0.61672 0.0
C1349 C 0.01518 0.57989 0.51809 0.0
C1350 C 1.00071 0.57175 0.62073 0.0
C1351 C 0.99118 0.56771 0.57413 0.0
H1352 H 0.43132 0.43552 0.40625 0.0
H1353 H 0.45627 0.41208 0.46819 0.0
H1354 H 0.45065 0.41646 0.56055 0.0
H1355 H 0.44021 0.42851 0.62484 0.0
H1356 H 0.41517 0.45186 0.56284 0.0
H1357 H 0.41917 0.44584 0.47058 0.0
C1358 C 0.43538 0.43122 0.43989 0.0
C1359 C 0.44434 0.42362 0.42982 0.0
C1360 C 0.43218 0.43383 0.49348 0.0
C1361 C 0.44944 0.4181 0.47428 0.0
C1362 C 0.44626 0.42059 0.52743 0.0
C1363 C 0.43548 0.43213 0.59122 0.0
C1364 C 0.42755 0.44077 0.60121 0.0
C1365 C 0.43787 0.4287 0.53766 0.0
C1366 C 0.42147 0.44531 0.55678 0.0
C1367 C 0.42374 0.44188 0.50369 0.0
H1368 H 0.07601 0.30743 0.29251 0.0
H1369 H 0.10376 0.35487 0.22553 0.0
H1370 H 0.10778 0.36654 0.31599 0.0
H1371 H 0.1064 0.36305 0.41484 0.0
H1372 H 0.08118 0.31545 0.48204 0.0
H1373 H 0.07297 0.30406 0.39133 0.0
C1374 C 0.08261 0.32033 0.29774 0.0
C1375 C 0.08959 0.33028 0.25259 0.0
C1376 C 0.08545 0.32692 0.35013 0.0
C1377 C 0.09833 0.34697 0.25984 0.0
C1378 C 0.10066 0.35365 0.31154 0.0
C1379 C 0.09878 0.35022 0.40958 0.0
C1380 C 0.09439 0.34009 0.45488 0.0
C1381 C 0.09472 0.34372 0.35714 0.0
C1382 C 0.08474 0.32347 0.44761 0.0
C1383 C 0.08009 0.31695 0.39577 0.0
H1384 H 0.68895 0.76234 0.44069 0.0
H1385 H 0.63785 0.7346 0.41341 0.0
H1386 H 0.64228 0.73552 0.31572 0.0
H1387 H 0.6606 0.74661 0.23739 0.0
H1388 H 0.71175 0.77346 0.26509 0.0
H1389 H 0.70738 0.77028 0.3627 0.0
C1390 C 0.67879 0.75627 0.41343 0.0
C1391 C 0.66308 0.74854 0.43453 0.0
C1392 C 0.68143 0.75676 0.3571 0.0
C1393 C 0.65007 0.74062 0.3985 0.0
C1394 C 0.6526 0.74122 0.34246 0.0
C1395 C 0.6708 0.75152 0.26473 0.0
C1396 C 0.68649 0.76039 0.24364 0.0
C1397 C 0.66821 0.74961 0.32117 0.0
C1398 C 0.69955 0.76656 0.27987 0.0
C1399 C 0.69706 0.76484 0.33591 0.0
H1400 H 0.25564 0.90877 0.25833 0.0
H1401 H 0.23187 0.9359 0.28667 0.0
H1402 H 0.2361 0.93543 0.38417 0.0
H1403 H 0.24443 0.9252 0.46234 0.0
H1404 H 0.26961 0.89944 0.43353 0.0
H1405 H 0.26716 0.90168 0.3359 0.0
C1406 C 0.25159 0.91478 0.2858 0.0
C1407 C 0.24332 0.92225 0.26504 0.0
C1408 C 0.25427 0.91465 0.34203 0.0
C1409 C 0.2383 0.93009 0.30131 0.0
C1410 C 0.24064 0.92975 0.35725 0.0
C1411 C 0.24964 0.92033 0.43471 0.0
C1412 C 0.25711 0.91206 0.45557 0.0
C1413 C 0.24831 0.92178 0.37823 0.0
C1414 C 0.26385 0.90591 0.41893 0.0
C1415 C 0.26235 0.90709 0.3629 0.0
H1416 H 0.36533 0.10257 0.63244 0.0
H1417 H 0.31764 0.08067 0.56467 0.0
H1418 H 0.306 0.07279 0.65507 0.0
H1419 H 0.30944 0.07534 0.75396 0.0
H1420 H 0.35718 0.09979 0.82176 0.0
H1421 H 0.36874 0.10327 0.73134 0.0
C1422 C 0.3524 0.09573 0.63748 0.0
C1423 C 0.34235 0.09221 0.59211 0.0
C1424 C 0.3458 0.09185 0.68981 0.0
C1425 C 0.32561 0.08356 0.59913 0.0
C1426 C 0.31895 0.0791 0.65081 0.0
C1427 C 0.32235 0.08107 0.74892 0.0
C1428 C 0.33245 0.08732 0.79431 0.0
C1429 C 0.32892 0.08364 0.69659 0.0
C1430 C 0.34917 0.09494 0.78729 0.0
C1431 C 0.35579 0.09697 0.7356 0.0
H1432 H 0.90309 0.2486 0.78534 0.0
H1433 H 0.92908 0.22418 0.74786 0.0
H1434 H 0.92662 0.22789 0.65101 0.0
H1435 H 0.9148 0.23585 0.57681 0.0
H1436 H 0.89048 0.26193 0.61421 0.0
H1437 H 0.8947 0.25998 0.71102 0.0
C1438 C 0.90843 0.24432 0.75593 0.0
C1439 C 0.91613 0.23599 0.77373 0.0
C1440 C 0.90717 0.24671 0.70026 0.0
C1441 C 0.92314 0.23066 0.73524 0.0
C1442 C 0.92164 0.23269 0.6798 0.0
C1443 C 0.91066 0.24132 0.60618 0.0
C1444 C 0.9022 0.24889 0.58841 0.0
C1445 C 0.91335 0.24036 0.66181 0.0
C1446 C 0.89705 0.25607 0.62683 0.0
C1447 C 0.89937 0.25487 0.68224 0.0
H1448 H 0.75714 0.66093 0.79732 0.0
H1449 H 0.78134 0.71184 0.76871 0.0
H1450 H 0.77736 0.70717 0.67123 0.0
H1451 H 0.76922 0.68864 0.59322 0.0
H1452 H 0.7436 0.63771 0.62197 0.0
H1453 H 0.74571 0.64235 0.71963 0.0
C1454 C 0.76131 0.67099 0.7698 0.0
C1455 C 0.76966 0.68673 0.7905 0.0
C1456 C 0.7588 0.66822 0.71352 0.0
C1457 C 0.77486 0.69961 0.75414 0.0
C1458 C 0.77267 0.69695 0.6982 0.0
C1459 C 0.76385 0.67856 0.62084 0.0
C1460 C 0.75636 0.66284 0.60003 0.0
C1461 C 0.76497 0.68132 0.67728 0.0
C1462 C 0.74938 0.64993 0.63659 0.0
C1463 C 0.75069 0.65258 0.69263 0.0
H1464 H 0.92581 0.68362 0.58522 0.0
H1465 H 0.90222 0.63303 0.61939 0.0
H1466 H 0.9074 0.6387 0.71618 0.0
H1467 H 0.91581 0.658 0.79166 0.0
H1468 H 0.94045 0.70862 0.7572 0.0
H1469 H 0.93794 0.703 0.66006 0.0
C1470 C 0.92206 0.67386 0.61383 0.0
C1471 C 0.91347 0.65793 0.59529 0.0
C1472 C 0.92519 0.67721 0.66939 0.0
C1473 C 0.90886 0.64539 0.63264 0.0
C1474 C 0.91173 0.64863 0.68805 0.0
C1475 C 0.92091 0.6678 0.76285 0.0
C1476 C 0.92814 0.6837 0.7816 0.0
C1477 C 0.91947 0.66448 0.70699 0.0
C1478 C 0.93484 0.69628 0.74386 0.0
C1479 C 0.9333 0.69307 0.68826 0.0
H1480 H 0.35198 0.25412 0.80286 0.0
H1481 H 0.30146 0.22996 0.76447 0.0
H1482 H 0.3077 0.23371 0.66775 0.0
H1483 H 0.32753 0.24161 0.59391 0.0
H1484 H 0.37806 0.26742 0.63214 0.0
H1485 H 0.37185 0.26545 0.72886 0.0
C1486 C 0.34235 0.24991 0.77328 0.0
C1487 C 0.32627 0.24164 0.7908 0.0
C1488 C 0.34604 0.25232 0.71767 0.0
C1489 C 0.31393 0.2364 0.75208 0.0
C1490 C 0.31749 0.23845 0.69672 0.0
C1491 C 0.33716 0.24701 0.62345 0.0
C1492 C 0.35323 0.25451 0.60595 0.0
C1493 C 0.33349 0.24605 0.679 0.0
C1494 C 0.3656 0.26162 0.64456 0.0
C1495 C 0.36205 0.26041 0.69991 0.0
H1496 H 0.76448 0.07091 0.74434 0.0
H1497 H 0.74191 0.09597 0.81121 0.0
H1498 H 0.73376 0.09935 0.72064 0.0
H1499 H 0.73623 0.09836 0.62182 0.0
H1500 H 0.76133 0.07583 0.55484 0.0
H1501 H 0.76512 0.06809 0.64552 0.0
C1502 C 0.75745 0.07676 0.73907 0.0
C1503 C 0.75381 0.0832 0.78423 0.0
C1504 C 0.7534 0.07926 0.68663 0.0
C1505 C 0.7449 0.09097 0.77691 0.0
C1506 C 0.74028 0.09295 0.72513 0.0
C1507 C 0.74218 0.09142 0.6271 0.0
C1508 C 0.7485 0.08768 0.58187 0.0
C1509 C 0.74492 0.08761 0.67955 0.0
C1510 C 0.7564 0.07889 0.5892 0.0
C1511 C 0.75862 0.0745 0.64103 0.0
H1512 H 0.69732 0.92527 0.29373 0.0
H1513 H 0.64905 0.89956 0.2307 0.0
H1514 H 0.63826 0.89541 0.32262 0.0
H1515 H 0.64254 0.89686 0.42154 0.0
H1516 H 0.69086 0.92025 0.48445 0.0
H1517 H 0.70159 0.92763 0.39267 0.0
C1518 C 0.68444 0.91904 0.30011 0.0
C1519 C 0.67401 0.91282 0.2553 0.0
C1520 C 0.67831 0.91615 0.35337 0.0
C1521 C 0.65734 0.90449 0.2644 0.0
C1522 C 0.65116 0.90207 0.31704 0.0
C1523 C 0.65541 0.90384 0.41518 0.0
C1524 C 0.66588 0.90807 0.45991 0.0
C1525 C 0.66152 0.90753 0.36196 0.0
C1526 C 0.68253 0.91685 0.45082 0.0
C1527 C 0.68868 0.92105 0.39826 0.0
H1528 H 0.10571 0.74206 0.41274 0.0
H1529 H 0.08635 0.77016 0.47906 0.0
H1530 H 0.07762 0.77312 0.38897 0.0
H1531 H 0.07854 0.7706 0.29019 0.0
H1532 H 0.10052 0.745 0.22311 0.0
H1533 H 0.10494 0.73796 0.31414 0.0
C1534 C 0.09927 0.74853 0.40749 0.0
C1535 C 0.09669 0.75591 0.45232 0.0
C1536 C 0.09486 0.75073 0.35521 0.0
C1537 C 0.08854 0.76445 0.445 0.0
C1538 C 0.08356 0.76616 0.3935 0.0
C1539 C 0.08392 0.76315 0.29559 0.0
C1540 C 0.08917 0.75829 0.25017 0.0
C1541 C 0.08709 0.75977 0.3481 0.0
C1542 C 0.0964 0.74888 0.25761 0.0
C1543 C 0.09899 0.74491 0.30963 0.0
H1544 H 0.23558 0.30909 0.28699 0.0
H1545 H 0.26309 0.35714 0.22475 0.0
H1546 H 0.27014 0.36765 0.31701 0.0
H1547 H 0.26631 0.36346 0.41586 0.0
H1548 H 0.23667 0.31559 0.47743 0.0
H1549 H 0.23275 0.30478 0.38566 0.0
C1550 C 0.2434 0.32182 0.2936 0.0
C1551 C 0.24888 0.33229 0.2489 0.0
C1552 C 0.24689 0.32786 0.34697 0.0
C1553 C 0.25874 0.34881 0.25834 0.0
C1554 C 0.26273 0.35484 0.31118 0.0
C1555 C 0.25924 0.35064 0.40923 0.0
C1556 C 0.25184 0.34035 0.45359 0.0
C1557 C 0.25656 0.34452 0.35591 0.0
C1558 C 0.24249 0.32379 0.44411 0.0
C1559 C 0.24022 0.31759 0.39154 0.0
H1560 H 0.99397 0.41398 0.91407 0.0
H1561 H 0.04458 0.43794 0.95092 0.0
H1562 H 0.03859 0.43403 0.04775 0.0
H1563 H 0.01899 0.42652 0.12206 0.0
H1564 H 0.96835 0.40127 0.08531 0.0
H1565 H 0.97429 0.40275 0.98853 0.0
C1566 C 1.00367 0.41807 0.94331 0.0
C1567 C 0.0197 0.42639 0.92536 0.0
C1568 C 1.00012 0.41565 0.99898 0.0
C1569 C 0.03214 0.43148 0.96363 0.0
C1570 C 0.02872 0.42934 1.01907 0.0
C1571 C 0.00926 0.42109 0.09287 0.0
C1572 C 0.99325 0.41395 0.11079 0.0
C1573 C 0.01277 0.42186 0.03725 0.0
C1574 C 0.98077 0.40681 0.0726 0.0
C1575 C 0.98416 0.40775 1.01719 0.0
H1576 H 0.60653 0.57232 0.10601 0.0
H1577 H 0.58469 0.59873 0.16716 0.0
H1578 H 0.58094 0.60538 0.0747 0.0
H1579 H 0.5812 0.60125 0.97605 0.0
H1580 H 0.60099 0.57288 0.91558 0.0
H1581 H 0.60829 0.56957 1.00751 0.0
C1582 C 0.60128 0.57983 0.09915 0.0
C1583 C 0.59596 0.58506 0.14361 0.0
C1584 C 0.59861 0.58312 0.04567 0.0
C1585 C 0.58892 0.59456 0.13379 0.0
C1586 C 0.5867 0.59831 0.08083 0.0
C1587 C 0.5874 0.59461 0.98293 0.0
C1588 C 0.59054 0.58733 0.93885 0.0
C1589 C 0.59111 0.5923 0.03635 0.0
C1590 C 0.59838 0.57858 0.94867 0.0
C1591 C 0.60254 0.57665 1.00134 0.0
H1592 H 0.41844 0.99071 0.10239 0.0
H1593 H 0.44333 0.04162 0.07379 0.0
H1594 H 0.43976 0.03697 0.97611 0.0
H1595 H 0.43167 0.01838 0.8981 0.0
H1596 H 0.40534 0.96746 0.92719 0.0
H1597 H 0.40718 0.97216 0.02473 0.0
C1598 C 0.42287 1.00078 0.0748 0.0
C1599 C 0.43127 0.0165 0.09555 0.0
C1600 C 0.42058 0.99801 1.01848 0.0
C1601 C 0.43679 0.0294 0.05913 0.0
C1602 C 0.43484 0.02675 1.00311 0.0
C1603 C 0.42609 0.00831 0.92576 0.0
C1604 C 0.41847 0.99257 0.90505 0.0
C1605 C 0.42705 0.0111 0.98219 0.0
C1606 C 0.41124 0.9797 0.94169 0.0
C1607 C 0.41238 0.98237 0.99768 0.0
H1608 H 0.58637 0.01159 0.90806 0.0
H1609 H 0.56305 0.96105 0.94282 0.0
H1610 H 0.56788 0.96681 0.03967 0.0
H1611 H 0.57596 0.98617 0.11491 0.0
H1612 H 0.60037 0.03675 0.07993 0.0
H1613 H 0.59813 0.03105 0.98286 0.0
C1614 C 0.5826 1.00186 0.93682 0.0
C1615 C 0.57419 0.98591 0.91839 0.0
C1616 C 0.58553 0.00527 0.99243 0.0
C1617 C 0.56954 0.97342 0.95597 0.0
C1618 C 0.57221 0.97671 1.01141 0.0
C1619 C 0.58106 0.99594 0.08601 0.0
C1620 C 0.58816 0.01185 0.10458 0.0
C1621 C 0.57979 0.99257 0.0302 0.0
C1622 C 0.59487 0.0244 0.06674 0.0
C1623 C 0.59348 0.02115 1.01116 0.0
H1624 H 0.01539 0.5926 0.93836 0.0
H1625 H 0.01203 0.54654 0.92086 0.0
H1626 H 1.00303 0.53985 1.0142 0.0
H1627 H 0.99636 0.547 0.1012 0.0
H1628 H 0.99642 0.5914 0.11854 0.0
H1629 H 0.00637 0.59889 0.0252 0.0
C1630 C 0.01262 0.58112 0.95518 0.0
C1631 C 0.01443 0.57009 0.9229 0.0
C1632 C 0.00689 0.57708 1.00882 0.0
C1633 C 0.01065 0.55517 0.94481 0.0
C1634 C 0.00555 0.55135 0.99826 0.0
C1635 C 0.99858 0.55833 0.08447 0.0
C1636 C 0.99592 0.56875 0.11658 0.0
C1637 C 1.00369 0.56221 0.03064 0.0
C1638 C 0.99847 0.58324 0.09436 0.0
C1639 C 1.00417 0.5875 0.04113 0.0
H1640 H 0.4477 0.41663 0.07899 0.0
H1641 H 0.42494 0.44188 0.1426 0.0
H1642 H 0.41794 0.44584 0.05084 0.0
H1643 H 0.42043 0.44429 0.9518 0.0
H1644 H 0.44564 0.42147 0.88824 0.0
H1645 H 0.44941 0.4143 0.97995 0.0
C1646 C 0.44094 0.42273 0.07277 0.0
C1647 C 0.43676 0.42886 0.11771 0.0
C1648 C 0.43751 0.42552 1.01957 0.0
C1649 C 0.42828 0.43702 0.1088 0.0
C1650 C 0.42431 0.43933 0.05625 0.0
C1651 C 0.42647 0.43748 0.95801 0.0
C1652 C 0.43265 0.43333 0.9131 0.0
C1653 C 0.42915 0.43394 1.01119 0.0
C1654 C 0.44075 0.42479 0.92201 0.0
C1655 C 0.44294 0.42072 0.97453 0.0
loop_
_geom_bond_atom_site_label_1
_geom_bond_atom_site_label_2
_geom_bond_distance
_geom_bond_site_symmetry_2
_ccdc_geom_bond_type
O0 Cd1 2.223 . S
O0 C8 1.315 . S
Cd1 O0 2.223 . S
Cd1 O4 2.297 . S
Cd1 O5 2.439 . S
Cd1 O11 2.240 . S
Cd2 O3 2.240 . S
Cd2 O10 2.223 1_554 S
Cd2 O12 2.297 1_554 S
Cd2 O13 2.439 . S
O3 Cd2 2.240 . S
O3 C8 1.279 . S
O4 Cd1 2.297 . S
O4 C6 1.247 . S
O5 Cd1 2.439 . S
O5 C6 1.208 . S
C6 O4 1.247 . S
C6 O5 1.208 . S
C7 O12 1.247 1_554 S
C7 O13 1.208 . S
C8 O0 1.315 . S
C8 O3 1.279 . S
C9 O10 1.315 . S
C9 O11 1.279 1_556 S
O10 Cd2 2.223 1_556 S
O10 C9 1.315 . S
O11 Cd1 2.240 . S
O11 C9 1.279 1_554 S
O12 Cd2 2.297 1_556 S
O12 C7 1.247 1_556 S
O13 Cd2 2.439 . S
O13 C7 1.208 . S
O14 Cd15 2.223 . S
O14 C22 1.315 . S
Cd15 O14 2.223 . S
Cd15 O18 2.297 . S
Cd15 O19 2.439 . S
Cd15 O25 2.240 . S
Cd16 O17 2.240 . S
Cd16 O24 2.223 1_554 S
Cd16 O26 2.297 1_554 S
Cd16 O27 2.439 . S
O17 Cd16 2.240 . S
O17 C22 1.279 . S
O18 Cd15 2.297 . S
O18 C20 1.247 . S
O19 Cd15 2.439 . S
O19 C20 1.208 . S
C20 O18 1.247 . S
C20 O19 1.208 . S
C21 O26 1.247 1_554 S
C21 O27 1.208 . S
C22 O14 1.315 . S
C22 O17 1.279 . S
C23 O24 1.315 . S
C23 O25 1.279 1_556 S
O24 Cd16 2.223 1_556 S
O24 C23 1.315 . S
O25 Cd15 2.240 . S
O25 C23 1.279 1_554 S
O26 Cd16 2.297 1_556 S
O26 C21 1.247 1_556 S
O27 Cd16 2.439 . S
O27 C21 1.208 . S
O28 Cd29 2.223 . S
O28 C36 1.315 . S
Cd29 O28 2.223 . S
Cd29 O32 2.297 . S
Cd29 O33 2.439 . S
Cd29 O39 2.240 . S
Cd30 O31 2.240 . S
Cd30 O38 2.223 1_554 S
Cd30 O40 2.297 1_554 S
Cd30 O41 2.439 . S
O31 Cd30 2.240 . S
O31 C36 1.279 . S
O32 Cd29 2.297 . S
O32 C34 1.247 . S
O33 Cd29 2.439 . S
O33 C34 1.208 . S
C34 O32 1.247 . S
C34 O33 1.208 . S
C35 O40 1.247 1_554 S
C35 O41 1.208 . S
C36 O28 1.315 . S
C36 O31 1.279 . S
C37 O38 1.315 . S
C37 O39 1.279 1_556 S
O38 Cd30 2.223 1_556 S
O38 C37 1.315 . S
O39 Cd29 2.240 . S
O39 C37 1.279 1_554 S
O40 Cd30 2.297 1_556 S
O40 C35 1.247 1_556 S
O41 Cd30 2.439 . S
O41 C35 1.208 . S
O42 Cd43 2.223 . S
O42 C50 1.315 . S
Cd43 O42 2.223 . S
Cd43 O46 2.297 . S
Cd43 O47 2.439 . S
Cd43 O53 2.240 . S
Cd44 O45 2.240 . S
Cd44 O52 2.223 1_556 S
Cd44 O54 2.297 1_556 S
Cd44 O55 2.439 . S
O45 Cd44 2.240 . S
O45 C50 1.279 . S
O46 Cd43 2.297 . S
O46 C48 1.247 . S
O47 Cd43 2.439 . S
O47 C48 1.208 . S
C48 O46 1.247 . S
C48 O47 1.208 . S
C49 O54 1.247 1_556 S
C49 O55 1.208 . S
C50 O42 1.315 . S
C50 O45 1.279 . S
C51 O52 1.315 . S
C51 O53 1.279 1_554 S
O52 Cd44 2.223 1_554 S
O52 C51 1.315 . S
O53 Cd43 2.240 . S
O53 C51 1.279 1_556 S
O54 Cd44 2.297 1_554 S
O54 C49 1.247 1_554 S
O55 Cd44 2.439 . S
O55 C49 1.208 . S
O56 Cd57 2.223 . S
O56 C64 1.315 . S
Cd57 O56 2.223 . S
Cd57 O60 2.297 . S
Cd57 O61 2.439 . S
Cd57 O67 2.240 . S
Cd58 O59 2.240 . S
Cd58 O66 2.223 1_556 S
Cd58 O68 2.297 1_556 S
Cd58 O69 2.439 . S
O59 Cd58 2.240 . S
O59 C64 1.279 . S
O60 Cd57 2.297 . S
O60 C62 1.247 . S
O61 Cd57 2.439 . S
O61 C62 1.208 . S
C62 O60 1.247 . S
C62 O61 1.208 . S
C63 O68 1.247 1_556 S
C63 O69 1.208 . S
C64 O56 1.315 . S
C64 O59 1.279 . S
C65 O66 1.315 . S
C65 O67 1.279 1_554 S
O66 Cd58 2.223 1_554 S
O66 C65 1.315 . S
O67 Cd57 2.240 . S
O67 C65 1.279 1_556 S
O68 Cd58 2.297 1_554 S
O68 C63 1.247 1_554 S
O69 Cd58 2.439 . S
O69 C63 1.208 . S
O70 Cd71 2.223 . S
O70 C78 1.315 . S
Cd71 O70 2.223 . S
Cd71 O74 2.297 . S
Cd71 O75 2.439 . S
Cd71 O81 2.240 . S
Cd72 O73 2.240 . S
Cd72 O80 2.223 1_556 S
Cd72 O82 2.297 1_556 S
Cd72 O83 2.439 . S
O73 Cd72 2.240 . S
O73 C78 1.279 . S
O74 Cd71 2.297 . S
O74 C76 1.247 . S
O75 Cd71 2.439 . S
O75 C76 1.208 . S
C76 O74 1.247 . S
C76 O75 1.208 . S
C77 O82 1.247 1_556 S
C77 O83 1.208 . S
C78 O70 1.315 . S
C78 O73 1.279 . S
C79 O80 1.315 . S
C79 O81 1.279 1_554 S
O80 Cd72 2.223 1_554 S
O80 C79 1.315 . S
O81 Cd71 2.240 . S
O81 C79 1.279 1_556 S
O82 Cd72 2.297 1_554 S
O82 C77 1.247 1_554 S
O83 Cd72 2.439 . S
O83 C77 1.208 . S
O84 Cd85 2.223 . S
O84 C92 1.315 . S
Cd85 O84 2.223 . S
Cd85 O88 2.297 . S
Cd85 O89 2.439 . S
Cd85 O95 2.240 . S
Cd86 O87 2.240 . S
Cd86 O94 2.223 1_556 S
Cd86 O96 2.297 1_556 S
Cd86 O97 2.439 . S
O87 Cd86 2.240 . S
O87 C92 1.279 . S
O88 Cd85 2.297 . S
O88 C90 1.247 . S
O89 Cd85 2.439 . S
O89 C90 1.208 . S
C90 O88 1.247 . S
C90 O89 1.208 . S
C91 O96 1.247 1_556 S
C91 O97 1.208 . S
C92 O84 1.315 . S
C92 O87 1.279 . S
C93 O94 1.315 . S
C93 O95 1.279 1_554 S
O94 Cd86 2.223 1_554 S
O94 C93 1.315 . S
O95 Cd85 2.240 . S
O95 C93 1.279 1_556 S
O96 Cd86 2.297 1_554 S
O96 C91 1.247 1_554 S
O97 Cd86 2.439 . S
O97 C91 1.208 . S
O98 Cd99 2.223 . S
O98 C106 1.315 . S
Cd99 O98 2.223 . S
Cd99 O102 2.297 . S
Cd99 O103 2.439 . S
Cd99 O109 2.240 . S
Cd100 O101 2.240 . S
Cd100 O108 2.223 1_556 S
Cd100 O110 2.297 1_556 S
Cd100 O111 2.439 . S
O101 Cd100 2.240 . S
O101 C106 1.279 . S
O102 Cd99 2.297 . S
O102 C104 1.247 . S
O103 Cd99 2.439 . S
O103 C104 1.208 . S
C104 O102 1.247 . S
C104 O103 1.208 . S
C105 O110 1.247 1_556 S
C105 O111 1.208 . S
C106 O98 1.315 . S
C106 O101 1.279 . S
C107 O108 1.315 . S
C107 O109 1.279 1_554 S
O108 Cd100 2.223 1_554 S
O108 C107 1.315 . S
O109 Cd99 2.240 . S
O109 C107 1.279 1_556 S
O110 Cd100 2.297 1_554 S
O110 C105 1.247 1_554 S
O111 Cd100 2.439 . S
O111 C105 1.208 . S
O112 Cd113 2.223 . S
O112 C120 1.315 . S
Cd113 O112 2.223 . S
Cd113 O116 2.297 . S
Cd113 O117 2.439 . S
Cd113 O123 2.240 . S
Cd114 O115 2.240 . S
Cd114 O122 2.223 1_556 S
Cd114 O124 2.297 1_556 S
Cd114 O125 2.439 . S
O115 Cd114 2.240 . S
O115 C120 1.279 . S
O116 Cd113 2.297 . S
O116 C118 1.247 . S
O117 Cd113 2.439 . S
O117 C118 1.208 . S
C118 O116 1.247 . S
C118 O117 1.208 . S
C119 O124 1.247 1_556 S
C119 O125 1.208 . S
C120 O112 1.315 . S
C120 O115 1.279 . S
C121 O122 1.315 . S
C121 O123 1.279 1_554 S
O122 Cd114 2.223 1_554 S
O122 C121 1.315 . S
O123 Cd113 2.240 . S
O123 C121 1.279 1_556 S
O124 Cd114 2.297 1_554 S
O124 C119 1.247 1_554 S
O125 Cd114 2.439 . S
O125 C119 1.208 . S
O126 Cd127 2.223 . S
O126 C134 1.315 . S
Cd127 O126 2.223 . S
Cd127 O130 2.297 . S
Cd127 O131 2.439 . S
Cd127 O137 2.240 . S
Cd128 O129 2.240 . S
Cd128 O136 2.223 1_554 S
Cd128 O138 2.297 1_554 S
Cd128 O139 2.439 . S
O129 Cd128 2.240 . S
O129 C134 1.279 . S
O130 Cd127 2.297 . S
O130 C132 1.247 . S
O131 Cd127 2.439 . S
O131 C132 1.208 . S
C132 O130 1.247 . S
C132 O131 1.208 . S
C133 O138 1.247 1_554 S
C133 O139 1.208 . S
C134 O126 1.315 . S
C134 O129 1.279 . S
C135 O136 1.315 . S
C135 O137 1.279 1_556 S
O136 Cd128 2.223 1_556 S
O136 C135 1.315 . S
O137 Cd127 2.240 . S
O137 C135 1.279 1_554 S
O138 Cd128 2.297 1_556 S
O138 C133 1.247 1_556 S
O139 Cd128 2.439 . S
O139 C133 1.208 . S
O140 Cd141 2.223 . S
O140 C148 1.315 . S
Cd141 O140 2.223 . S
Cd141 O144 2.297 . S
Cd141 O145 2.439 . S
Cd141 O151 2.240 . S
Cd142 O143 2.240 . S
Cd142 O150 2.223 1_554 S
Cd142 O152 2.297 1_554 S
Cd142 O153 2.439 . S
O143 Cd142 2.240 . S
O143 C148 1.279 . S
O144 Cd141 2.297 . S
O144 C146 1.247 . S
O145 Cd141 2.439 . S
O145 C146 1.208 . S
C146 O144 1.247 . S
C146 O145 1.208 . S
C147 O152 1.247 1_554 S
C147 O153 1.208 . S
C148 O140 1.315 . S
C148 O143 1.279 . S
C149 O150 1.315 . S
C149 O151 1.279 1_556 S
O150 Cd142 2.223 1_556 S
O150 C149 1.315 . S
O151 Cd141 2.240 . S
O151 C149 1.279 1_554 S
O152 Cd142 2.297 1_556 S
O152 C147 1.247 1_556 S
O153 Cd142 2.439 . S
O153 C147 1.208 . S
O154 Cd155 2.223 . S
O154 C162 1.315 . S
Cd155 O154 2.223 . S
Cd155 O158 2.297 . S
Cd155 O159 2.439 . S
Cd155 O165 2.240 . S
Cd156 O157 2.240 . S
Cd156 O164 2.223 1_554 S
Cd156 O166 2.297 1_554 S
Cd156 O167 2.439 . S
O157 Cd156 2.240 . S
O157 C162 1.279 . S
O158 Cd155 2.297 . S
O158 C160 1.247 . S
O159 Cd155 2.439 . S
O159 C160 1.208 . S
C160 O158 1.247 . S
C160 O159 1.208 . S
C161 O166 1.247 1_554 S
C161 O167 1.208 . S
C162 O154 1.315 . S
C162 O157 1.279 . S
C163 O164 1.315 . S
C163 O165 1.279 1_556 S
O164 Cd156 2.223 1_556 S
O164 C163 1.315 . S
O165 Cd155 2.240 . S
O165 C163 1.279 1_554 S
O166 Cd156 2.297 1_556 S
O166 C161 1.247 1_556 S
O167 Cd156 2.439 . S
O167 C161 1.208 . S
O168 Cd169 2.223 . S
O168 C176 1.315 . S
Cd169 O168 2.223 . S
Cd169 O172 2.297 . S
Cd169 O173 2.439 . S
Cd169 O179 2.240 . S
Cd170 O171 2.240 . S
Cd170 O178 2.223 . S
Cd170 O180 2.297 . S
Cd170 O181 2.439 . S
O171 Cd170 2.240 . S
O171 C176 1.279 . S
O172 Cd169 2.297 . S
O172 C174 1.247 . S
O173 Cd169 2.439 . S
O173 C174 1.208 . S
C174 O172 1.247 . S
C174 O173 1.208 . S
C175 O180 1.247 . S
C175 O181 1.208 . S
C176 O168 1.315 . S
C176 O171 1.279 . S
C177 O178 1.315 . S
C177 O179 1.279 . S
O178 Cd170 2.223 . S
O178 C177 1.315 . S
O179 Cd169 2.240 . S
O179 C177 1.279 . S
O180 Cd170 2.297 . S
O180 C175 1.247 . S
O181 Cd170 2.439 . S
O181 C175 1.208 . S
O182 Cd183 2.223 . S
O182 C190 1.315 . S
Cd183 O182 2.223 . S
Cd183 O186 2.297 . S
Cd183 O187 2.439 . S
Cd183 O193 2.240 . S
Cd184 O185 2.240 . S
Cd184 O192 2.223 . S
Cd184 O194 2.297 . S
Cd184 O195 2.439 . S
O185 Cd184 2.240 . S
O185 C190 1.279 . S
O186 Cd183 2.297 . S
O186 C188 1.247 . S
O187 Cd183 2.439 . S
O187 C188 1.208 . S
C188 O186 1.247 . S
C188 O187 1.208 . S
C189 O194 1.247 . S
C189 O195 1.208 . S
C190 O182 1.315 . S
C190 O185 1.279 . S
C191 O192 1.315 . S
C191 O193 1.279 . S
O192 Cd184 2.223 . S
O192 C191 1.315 . S
O193 Cd183 2.240 . S
O193 C191 1.279 . S
O194 Cd184 2.297 . S
O194 C189 1.247 . S
O195 Cd184 2.439 . S
O195 C189 1.208 . S
O196 Cd197 2.223 . S
O196 C204 1.315 . S
Cd197 O196 2.223 . S
Cd197 O200 2.297 . S
Cd197 O201 2.439 . S
Cd197 O207 2.240 . S
Cd198 O199 2.240 . S
Cd198 O206 2.223 . S
Cd198 O208 2.297 . S
Cd198 O209 2.439 . S
O199 Cd198 2.240 . S
O199 C204 1.279 . S
O200 Cd197 2.297 . S
O200 C202 1.247 . S
O201 Cd197 2.439 . S
O201 C202 1.208 . S
C202 O200 1.247 . S
C202 O201 1.208 . S
C203 O208 1.247 . S
C203 O209 1.208 . S
C204 O196 1.315 . S
C204 O199 1.279 . S
C205 O206 1.315 . S
C205 O207 1.279 . S
O206 Cd198 2.223 . S
O206 C205 1.315 . S
O207 Cd197 2.240 . S
O207 C205 1.279 . S
O208 Cd198 2.297 . S
O208 C203 1.247 . S
O209 Cd198 2.439 . S
O209 C203 1.208 . S
O210 Cd211 2.223 . S
O210 C218 1.315 . S
Cd211 O210 2.223 . S
Cd211 O214 2.297 . S
Cd211 O215 2.439 . S
Cd211 O221 2.240 . S
Cd212 O213 2.240 . S
Cd212 O220 2.223 . S
Cd212 O222 2.297 . S
Cd212 O223 2.439 . S
O213 Cd212 2.240 . S
O213 C218 1.279 . S
O214 Cd211 2.297 . S
O214 C216 1.247 . S
O215 Cd211 2.439 . S
O215 C216 1.208 . S
C216 O214 1.247 . S
C216 O215 1.208 . S
C217 O222 1.247 . S
C217 O223 1.208 . S
C218 O210 1.315 . S
C218 O213 1.279 . S
C219 O220 1.315 . S
C219 O221 1.279 . S
O220 Cd212 2.223 . S
O220 C219 1.315 . S
O221 Cd211 2.240 . S
O221 C219 1.279 . S
O222 Cd212 2.297 . S
O222 C217 1.247 . S
O223 Cd212 2.439 . S
O223 C217 1.208 . S
O224 Cd225 2.223 . S
O224 C232 1.315 . S
Cd225 O224 2.223 . S
Cd225 O228 2.297 . S
Cd225 O229 2.439 . S
Cd225 O235 2.240 . S
Cd226 O227 2.240 . S
Cd226 O234 2.223 . S
Cd226 O236 2.297 . S
Cd226 O237 2.439 . S
O227 Cd226 2.240 . S
O227 C232 1.279 . S
O228 Cd225 2.297 . S
O228 C230 1.247 . S
O229 Cd225 2.439 . S
O229 C230 1.208 . S
C230 O228 1.247 . S
C230 O229 1.208 . S
C231 O236 1.247 . S
C231 O237 1.208 . S
C232 O224 1.315 . S
C232 O227 1.279 . S
C233 O234 1.315 . S
C233 O235 1.279 . S
O234 Cd226 2.223 . S
O234 C233 1.315 . S
O235 Cd225 2.240 . S
O235 C233 1.279 . S
O236 Cd226 2.297 . S
O236 C231 1.247 . S
O237 Cd226 2.439 . S
O237 C231 1.208 . S
O238 Cd239 2.223 . S
O238 C246 1.315 . S
Cd239 O238 2.223 . S
Cd239 O242 2.297 . S
Cd239 O243 2.439 . S
Cd239 O249 2.240 . S
Cd240 O241 2.240 . S
Cd240 O248 2.223 . S
Cd240 O250 2.297 . S
Cd240 O251 2.439 . S
O241 Cd240 2.240 . S
O241 C246 1.279 . S
O242 Cd239 2.297 . S
O242 C244 1.247 . S
O243 Cd239 2.439 . S
O243 C244 1.208 . S
C244 O242 1.247 . S
C244 O243 1.208 . S
C245 O250 1.247 . S
C245 O251 1.208 . S
C246 O238 1.315 . S
C246 O241 1.279 . S
C247 O248 1.315 . S
C247 O249 1.279 . S
O248 Cd240 2.223 . S
O248 C247 1.315 . S
O249 Cd239 2.240 . S
O249 C247 1.279 . S
O250 Cd240 2.297 . S
O250 C245 1.247 . S
O251 Cd240 2.439 . S
O251 C245 1.208 . S
O252 Cd253 2.223 . S
O252 C260 1.315 . S
Cd253 O252 2.223 . S
Cd253 O256 2.297 . S
Cd253 O257 2.439 . S
Cd253 O263 2.240 . S
Cd254 O255 2.240 . S
Cd254 O262 2.223 . S
Cd254 O264 2.297 . S
Cd254 O265 2.439 . S
O255 Cd254 2.240 . S
O255 C260 1.279 . S
O256 Cd253 2.297 . S
O256 C258 1.247 . S
O257 Cd253 2.439 . S
O257 C258 1.208 . S
C258 O256 1.247 . S
C258 O257 1.208 . S
C259 O264 1.247 . S
C259 O265 1.208 . S
C260 O252 1.315 . S
C260 O255 1.279 . S
C261 O262 1.315 . S
C261 O263 1.279 . S
O262 Cd254 2.223 . S
O262 C261 1.315 . S
O263 Cd253 2.240 . S
O263 C261 1.279 . S
O264 Cd254 2.297 . S
O264 C259 1.247 . S
O265 Cd254 2.439 . S
O265 C259 1.208 . S
O266 Cd267 2.223 . S
O266 C274 1.315 . S
Cd267 O266 2.223 . S
Cd267 O270 2.297 . S
Cd267 O271 2.439 . S
Cd267 O277 2.240 . S
Cd268 O269 2.240 . S
Cd268 O276 2.223 . S
Cd268 O278 2.297 . S
Cd268 O279 2.439 . S
O269 Cd268 2.240 . S
O269 C274 1.279 . S
O270 Cd267 2.297 . S
O270 C272 1.247 . S
O271 Cd267 2.439 . S
O271 C272 1.208 . S
C272 O270 1.247 . S
C272 O271 1.208 . S
C273 O278 1.247 . S
C273 O279 1.208 . S
C274 O266 1.315 . S
C274 O269 1.279 . S
C275 O276 1.315 . S
C275 O277 1.279 . S
O276 Cd268 2.223 . S
O276 C275 1.315 . S
O277 Cd267 2.240 . S
O277 C275 1.279 . S
O278 Cd268 2.297 . S
O278 C273 1.247 . S
O279 Cd268 2.439 . S
O279 C273 1.208 . S
O280 Cd281 2.223 . S
O280 C288 1.315 . S
Cd281 O280 2.223 . S
Cd281 O284 2.297 . S
Cd281 O285 2.439 . S
Cd281 O291 2.240 . S
Cd282 O283 2.240 . S
Cd282 O290 2.223 . S
Cd282 O292 2.297 . S
Cd282 O293 2.439 . S
O283 Cd282 2.240 . S
O283 C288 1.279 . S
O284 Cd281 2.297 . S
O284 C286 1.247 . S
O285 Cd281 2.439 . S
O285 C286 1.208 . S
C286 O284 1.247 . S
C286 O285 1.208 . S
C287 O292 1.247 . S
C287 O293 1.208 . S
C288 O280 1.315 . S
C288 O283 1.279 . S
C289 O290 1.315 . S
C289 O291 1.279 . S
O290 Cd282 2.223 . S
O290 C289 1.315 . S
O291 Cd281 2.240 . S
O291 C289 1.279 . S
O292 Cd282 2.297 . S
O292 C287 1.247 . S
O293 Cd282 2.439 . S
O293 C287 1.208 . S
O294 Cd295 2.223 . S
O294 C302 1.315 . S
Cd295 O294 2.223 . S
Cd295 O298 2.297 . S
Cd295 O299 2.439 . S
Cd295 O305 2.240 . S
Cd296 O297 2.240 . S
Cd296 O304 2.223 . S
Cd296 O306 2.297 . S
Cd296 O307 2.439 . S
O297 Cd296 2.240 . S
O297 C302 1.279 . S
O298 Cd295 2.297 . S
O298 C300 1.247 . S
O299 Cd295 2.439 . S
O299 C300 1.208 . S
C300 O298 1.247 . S
C300 O299 1.208 . S
C301 O306 1.247 . S
C301 O307 1.208 . S
C302 O294 1.315 . S
C302 O297 1.279 . S
C303 O304 1.315 . S
C303 O305 1.279 . S
O304 Cd296 2.223 . S
O304 C303 1.315 . S
O305 Cd295 2.240 . S
O305 C303 1.279 . S
O306 Cd296 2.297 . S
O306 C301 1.247 . S
O307 Cd296 2.439 . S
O307 C301 1.208 . S
O308 Cd309 2.223 . S
O308 C316 1.315 . S
Cd309 O308 2.223 . S
Cd309 O312 2.297 . S
Cd309 O313 2.439 . S
Cd309 O319 2.240 . S
Cd310 O311 2.240 . S
Cd310 O318 2.223 . S
Cd310 O320 2.297 . S
Cd310 O321 2.439 . S
O311 Cd310 2.240 . S
O311 C316 1.279 . S
O312 Cd309 2.297 . S
O312 C314 1.247 . S
O313 Cd309 2.439 . S
O313 C314 1.208 . S
C314 O312 1.247 . S
C314 O313 1.208 . S
C315 O320 1.247 . S
C315 O321 1.208 . S
C316 O308 1.315 . S
C316 O311 1.279 . S
C317 O318 1.315 . S
C317 O319 1.279 . S
O318 Cd310 2.223 . S
O318 C317 1.315 . S
O319 Cd309 2.240 . S
O319 C317 1.279 . S
O320 Cd310 2.297 . S
O320 C315 1.247 . S
O321 Cd310 2.439 . S
O321 C315 1.208 . S
O322 Cd323 2.223 . S
O322 C330 1.315 . S
Cd323 O322 2.223 . S
Cd323 O326 2.297 . S
Cd323 O327 2.439 . S
Cd323 O333 2.240 . S
Cd324 O325 2.240 . S
Cd324 O332 2.223 . S
Cd324 O334 2.297 . S
Cd324 O335 2.439 . S
O325 Cd324 2.240 . S
O325 C330 1.279 . S
O326 Cd323 2.297 . S
O326 C328 1.247 . S
O327 Cd323 2.439 . S
O327 C328 1.208 . S
C328 O326 1.247 . S
C328 O327 1.208 . S
C329 O334 1.247 . S
C329 O335 1.208 . S
C330 O322 1.315 . S
C330 O325 1.279 . S
C331 O332 1.315 . S
C331 O333 1.279 . S
O332 Cd324 2.223 . S
O332 C331 1.315 . S
O333 Cd323 2.240 . S
O333 C331 1.279 . S
O334 Cd324 2.297 . S
O334 C329 1.247 . S
O335 Cd324 2.439 . S
O335 C329 1.208 . S
O336 Cd337 2.223 . S
O336 C344 1.315 . S
Cd337 O336 2.223 . S
Cd337 O340 2.297 . S
Cd337 O341 2.439 . S
Cd337 O347 2.240 . S
Cd338 O339 2.240 . S
Cd338 O346 2.223 . S
Cd338 O348 2.297 . S
Cd338 O349 2.439 . S
O339 Cd338 2.240 . S
O339 C344 1.279 . S
O340 Cd337 2.297 . S
O340 C342 1.247 . S
O341 Cd337 2.439 . S
O341 C342 1.208 . S
C342 O340 1.247 . S
C342 O341 1.208 . S
C343 O348 1.247 . S
C343 O349 1.208 . S
C344 O336 1.315 . S
C344 O339 1.279 . S
C345 O346 1.315 . S
C345 O347 1.279 . S
O346 Cd338 2.223 . S
O346 C345 1.315 . S
O347 Cd337 2.240 . S
O347 C345 1.279 . S
O348 Cd338 2.297 . S
O348 C343 1.247 . S
O349 Cd338 2.439 . S
O349 C343 1.208 . S
O350 Cd351 2.223 . S
O350 C358 1.315 . S
Cd351 O350 2.223 . S
Cd351 O354 2.297 . S
Cd351 O355 2.439 . S
Cd351 O361 2.240 . S
Cd352 O353 2.240 . S
Cd352 O360 2.223 . S
Cd352 O362 2.297 . S
Cd352 O363 2.439 . S
O353 Cd352 2.240 . S
O353 C358 1.279 . S
O354 Cd351 2.297 . S
O354 C356 1.247 . S
O355 Cd351 2.439 . S
O355 C356 1.208 . S
C356 O354 1.247 . S
C356 O355 1.208 . S
C357 O362 1.247 . S
C357 O363 1.208 . S
C358 O350 1.315 . S
C358 O353 1.279 . S
C359 O360 1.315 . S
C359 O361 1.279 . S
O360 Cd352 2.223 . S
O360 C359 1.315 . S
O361 Cd351 2.240 . S
O361 C359 1.279 . S
O362 Cd352 2.297 . S
O362 C357 1.247 . S
O363 Cd352 2.439 . S
O363 C357 1.208 . S
O364 Cd365 2.223 . S
O364 C372 1.315 . S
Cd365 O364 2.223 . S
Cd365 O368 2.297 . S
Cd365 O369 2.439 . S
Cd365 O375 2.240 . S
Cd366 O367 2.240 . S
Cd366 O374 2.223 . S
Cd366 O376 2.297 . S
Cd366 O377 2.439 . S
O367 Cd366 2.240 . S
O367 C372 1.279 . S
O368 Cd365 2.297 . S
O368 C370 1.247 . S
O369 Cd365 2.439 . S
O369 C370 1.208 . S
C370 O368 1.247 . S
C370 O369 1.208 . S
C371 O376 1.247 . S
C371 O377 1.208 . S
C372 O364 1.315 . S
C372 O367 1.279 . S
C373 O374 1.315 . S
C373 O375 1.279 . S
O374 Cd366 2.223 . S
O374 C373 1.315 . S
O375 Cd365 2.240 . S
O375 C373 1.279 . S
O376 Cd366 2.297 . S
O376 C371 1.247 . S
O377 Cd366 2.439 . S
O377 C371 1.208 . S
O378 Cd379 2.223 . S
O378 C386 1.315 . S
Cd379 O378 2.223 . S
Cd379 O382 2.297 . S
Cd379 O383 2.439 . S
Cd379 O389 2.240 . S
Cd380 O381 2.240 . S
Cd380 O388 2.223 . S
Cd380 O390 2.297 . S
Cd380 O391 2.439 . S
O381 Cd380 2.240 . S
O381 C386 1.279 . S
O382 Cd379 2.297 . S
O382 C384 1.247 . S
O383 Cd379 2.439 . S
O383 C384 1.208 . S
C384 O382 1.247 . S
C384 O383 1.208 . S
C385 O390 1.247 . S
C385 O391 1.208 . S
C386 O378 1.315 . S
C386 O381 1.279 . S
C387 O388 1.315 . S
C387 O389 1.279 . S
O388 Cd380 2.223 . S
O388 C387 1.315 . S
O389 Cd379 2.240 . S
O389 C387 1.279 . S
O390 Cd380 2.297 . S
O390 C385 1.247 . S
O391 Cd380 2.439 . S
O391 C385 1.208 . S
O392 Cd393 2.223 . S
O392 C400 1.315 . S
Cd393 O392 2.223 . S
Cd393 O396 2.297 . S
Cd393 O397 2.439 . S
Cd393 O403 2.240 . S
Cd394 O395 2.240 . S
Cd394 O402 2.223 . S
Cd394 O404 2.297 . S
Cd394 O405 2.439 . S
O395 Cd394 2.240 . S
O395 C400 1.279 . S
O396 Cd393 2.297 . S
O396 C398 1.247 . S
O397 Cd393 2.439 . S
O397 C398 1.208 . S
C398 O396 1.247 . S
C398 O397 1.208 . S
C399 O404 1.247 . S
C399 O405 1.208 . S
C400 O392 1.315 . S
C400 O395 1.279 . S
C401 O402 1.315 . S
C401 O403 1.279 . S
O402 Cd394 2.223 . S
O402 C401 1.315 . S
O403 Cd393 2.240 . S
O403 C401 1.279 . S
O404 Cd394 2.297 . S
O404 C399 1.247 . S
O405 Cd394 2.439 . S
O405 C399 1.208 . S
O406 Cd407 2.223 . S
O406 C414 1.315 . S
Cd407 O406 2.223 . S
Cd407 O410 2.297 . S
Cd407 O411 2.439 . S
Cd407 O417 2.240 . S
Cd408 O409 2.240 . S
Cd408 O416 2.223 . S
Cd408 O418 2.297 . S
Cd408 O419 2.439 . S
O409 Cd408 2.240 . S
O409 C414 1.279 . S
O410 Cd407 2.297 . S
O410 C412 1.247 . S
O411 Cd407 2.439 . S
O411 C412 1.208 . S
C412 O410 1.247 . S
C412 O411 1.208 . S
C413 O418 1.247 . S
C413 O419 1.208 . S
C414 O406 1.315 . S
C414 O409 1.279 . S
C415 O416 1.315 . S
C415 O417 1.279 . S
O416 Cd408 2.223 . S
O416 C415 1.315 . S
O417 Cd407 2.240 . S
O417 C415 1.279 . S
O418 Cd408 2.297 . S
O418 C413 1.247 . S
O419 Cd408 2.439 . S
O419 C413 1.208 . S
O420 Cd421 2.223 . S
O420 C428 1.315 . S
Cd421 O420 2.223 . S
Cd421 O424 2.297 . S
Cd421 O425 2.439 . S
Cd421 O431 2.240 . S
Cd422 O423 2.240 . S
Cd422 O430 2.223 . S
Cd422 O432 2.297 . S
Cd422 O433 2.439 . S
O423 Cd422 2.240 . S
O423 C428 1.279 . S
O424 Cd421 2.297 . S
O424 C426 1.247 . S
O425 Cd421 2.439 . S
O425 C426 1.208 . S
C426 O424 1.247 . S
C426 O425 1.208 . S
C427 O432 1.247 . S
C427 O433 1.208 . S
C428 O420 1.315 . S
C428 O423 1.279 . S
C429 O430 1.315 . S
C429 O431 1.279 . S
O430 Cd422 2.223 . S
O430 C429 1.315 . S
O431 Cd421 2.240 . S
O431 C429 1.279 . S
O432 Cd422 2.297 . S
O432 C427 1.247 . S
O433 Cd422 2.439 . S
O433 C427 1.208 . S
O434 Cd435 2.223 . S
O434 C442 1.315 . S
Cd435 O434 2.223 . S
Cd435 O438 2.297 . S
Cd435 O439 2.439 . S
Cd435 O445 2.240 . S
Cd436 O437 2.240 . S
Cd436 O444 2.223 . S
Cd436 O446 2.297 . S
Cd436 O447 2.439 . S
O437 Cd436 2.240 . S
O437 C442 1.279 . S
O438 Cd435 2.297 . S
O438 C440 1.247 . S
O439 Cd435 2.439 . S
O439 C440 1.208 . S
C440 O438 1.247 . S
C440 O439 1.208 . S
C441 O446 1.247 . S
C441 O447 1.208 . S
C442 O434 1.315 . S
C442 O437 1.279 . S
C443 O444 1.315 . S
C443 O445 1.279 . S
O444 Cd436 2.223 . S
O444 C443 1.315 . S
O445 Cd435 2.240 . S
O445 C443 1.279 . S
O446 Cd436 2.297 . S
O446 C441 1.247 . S
O447 Cd436 2.439 . S
O447 C441 1.208 . S
O448 Cd449 2.223 . S
O448 C456 1.315 . S
Cd449 O448 2.223 . S
Cd449 O452 2.297 . S
Cd449 O453 2.439 . S
Cd449 O459 2.240 . S
Cd450 O451 2.240 . S
Cd450 O458 2.223 . S
Cd450 O460 2.297 . S
Cd450 O461 2.439 . S
O451 Cd450 2.240 . S
O451 C456 1.279 . S
O452 Cd449 2.297 . S
O452 C454 1.247 . S
O453 Cd449 2.439 . S
O453 C454 1.208 . S
C454 O452 1.247 . S
C454 O453 1.208 . S
C455 O460 1.247 . S
C455 O461 1.208 . S
C456 O448 1.315 . S
C456 O451 1.279 . S
C457 O458 1.315 . S
C457 O459 1.279 . S
O458 Cd450 2.223 . S
O458 C457 1.315 . S
O459 Cd449 2.240 . S
O459 C457 1.279 . S
O460 Cd450 2.297 . S
O460 C455 1.247 . S
O461 Cd450 2.439 . S
O461 C455 1.208 . S
O462 Cd463 2.223 . S
O462 C470 1.315 . S
Cd463 O462 2.223 . S
Cd463 O466 2.297 . S
Cd463 O467 2.439 . S
Cd463 O473 2.240 . S
Cd464 O465 2.240 . S
Cd464 O472 2.223 . S
Cd464 O474 2.297 . S
Cd464 O475 2.439 . S
O465 Cd464 2.240 . S
O465 C470 1.279 . S
O466 Cd463 2.297 . S
O466 C468 1.247 . S
O467 Cd463 2.439 . S
O467 C468 1.208 . S
C468 O466 1.247 . S
C468 O467 1.208 . S
C469 O474 1.247 . S
C469 O475 1.208 . S
C470 O462 1.315 . S
C470 O465 1.279 . S
C471 O472 1.315 . S
C471 O473 1.279 . S
O472 Cd464 2.223 . S
O472 C471 1.315 . S
O473 Cd463 2.240 . S
O473 C471 1.279 . S
O474 Cd464 2.297 . S
O474 C469 1.247 . S
O475 Cd464 2.439 . S
O475 C469 1.208 . S
O476 Cd477 2.223 . S
O476 C484 1.315 . S
Cd477 O476 2.223 . S
Cd477 O480 2.297 . S
Cd477 O481 2.439 . S
Cd477 O487 2.240 . S
Cd478 O479 2.240 . S
Cd478 O486 2.223 . S
Cd478 O488 2.297 . S
Cd478 O489 2.439 . S
O479 Cd478 2.240 . S
O479 C484 1.279 . S
O480 Cd477 2.297 . S
O480 C482 1.247 . S
O481 Cd477 2.439 . S
O481 C482 1.208 . S
C482 O480 1.247 . S
C482 O481 1.208 . S
C483 O488 1.247 . S
C483 O489 1.208 . S
C484 O476 1.315 . S
C484 O479 1.279 . S
C485 O486 1.315 . S
C485 O487 1.279 . S
O486 Cd478 2.223 . S
O486 C485 1.315 . S
O487 Cd477 2.240 . S
O487 C485 1.279 . S
O488 Cd478 2.297 . S
O488 C483 1.247 . S
O489 Cd478 2.439 . S
O489 C483 1.208 . S
O490 Cd491 2.223 . S
O490 C498 1.315 . S
Cd491 O490 2.223 . S
Cd491 O494 2.297 . S
Cd491 O495 2.439 . S
Cd491 O501 2.240 . S
Cd492 O493 2.240 . S
Cd492 O500 2.223 . S
Cd492 O502 2.297 . S
Cd492 O503 2.439 . S
O493 Cd492 2.240 . S
O493 C498 1.279 . S
O494 Cd491 2.297 . S
O494 C496 1.247 . S
O495 Cd491 2.439 . S
O495 C496 1.208 . S
C496 O494 1.247 . S
C496 O495 1.208 . S
C497 O502 1.247 . S
C497 O503 1.208 . S
C498 O490 1.315 . S
C498 O493 1.279 . S
C499 O500 1.315 . S
C499 O501 1.279 . S
O500 Cd492 2.223 . S
O500 C499 1.315 . S
O501 Cd491 2.240 . S
O501 C499 1.279 . S
O502 Cd492 2.297 . S
O502 C497 1.247 . S
O503 Cd492 2.439 . S
O503 C497 1.208 . S
H504 C510 0.930 . S
H505 C513 0.931 . S
H506 C514 0.930 . S
H507 C515 0.930 1_556 S
H508 C518 0.930 . S
H509 C519 0.930 . S
C510 H504 0.930 . S
C510 C511 1.355 . S
C510 C512 1.415 . S
C511 C510 1.355 . S
C511 C513 1.418 1_554 S
C512 C510 1.415 . S
C512 C517 1.425 . S
C512 C519 1.409 . S
C513 H505 0.931 . S
C513 C511 1.418 1_556 S
C513 C514 1.363 . S
C514 H506 0.930 . S
C514 C513 1.363 . S
C514 C517 1.409 1_556 S
C515 H507 0.930 1_554 S
C515 C516 1.355 . S
C515 C517 1.415 . S
C516 C515 1.355 . S
C516 C518 1.419 . S
C517 C512 1.425 . S
C517 C514 1.409 1_554 S
C517 C515 1.415 . S
C518 H508 0.930 . S
C518 C516 1.419 . S
C518 C519 1.362 . S
C519 H509 0.930 . S
C519 C512 1.409 . S
C519 C518 1.362 . S
H520 C526 0.930 . S
H521 C529 0.930 . S
H522 C530 0.930 1_556 S
H523 C531 0.930 . S
H524 C534 0.930 . S
H525 C535 0.930 . S
C526 H520 0.930 . S
C526 C527 1.355 . S
C526 C528 1.415 . S
C527 C526 1.355 . S
C527 C529 1.419 . S
C528 C526 1.415 . S
C528 C533 1.425 . S
C528 C535 1.409 . S
C529 H521 0.930 . S
C529 C527 1.419 . S
C529 C530 1.362 . S
C530 H522 0.930 1_554 S
C530 C529 1.362 . S
C530 C533 1.409 . S
C531 H523 0.930 . S
C531 C532 1.355 . S
C531 C533 1.415 . S
C532 C531 1.355 . S
C532 C534 1.419 . S
C533 C528 1.425 . S
C533 C530 1.409 . S
C533 C531 1.415 . S
C534 H524 0.930 . S
C534 C532 1.419 . S
C534 C535 1.362 . S
C535 H525 0.930 . S
C535 C528 1.409 . S
C535 C534 1.362 . S
H536 C542 0.930 . S
H537 C545 0.930 1_556 S
H538 C546 0.923 1_556 S
H539 C547 0.930 . S
H540 C550 0.930 . S
H541 C551 0.930 . S
C542 H536 0.930 . S
C542 C543 1.355 . S
C542 C544 1.415 . S
C543 C542 1.355 . S
C543 C545 1.419 . S
C544 C542 1.415 . S
C544 C549 1.425 . S
C544 C551 1.409 . S
C545 H537 0.930 1_554 S
C545 C543 1.419 . S
C545 C546 1.364 . S
C546 H538 0.923 1_554 S
C546 C545 1.364 . S
C546 C549 1.415 . S
C547 H539 0.930 . S
C547 C548 1.355 . S
C547 C549 1.415 . S
C548 C547 1.355 . S
C548 C550 1.419 . S
C549 C544 1.425 . S
C549 C546 1.415 . S
C549 C547 1.415 . S
C550 H540 0.930 . S
C550 C548 1.419 . S
C550 C551 1.362 . S
C551 H541 0.930 . S
C551 C544 1.409 . S
C551 C550 1.362 . S
H552 C558 0.930 . S
H553 C561 0.930 . S
H554 C562 0.930 . S
H555 C563 0.930 . S
H556 C566 0.930 . S
H557 C567 0.930 . S
C558 H552 0.930 . S
C558 C559 1.355 . S
C558 C560 1.415 . S
C559 C558 1.355 . S
C559 C561 1.419 . S
C560 C558 1.415 . S
C560 C565 1.425 . S
C560 C567 1.409 . S
C561 H553 0.930 . S
C561 C559 1.419 . S
C561 C562 1.362 . S
C562 H554 0.930 . S
C562 C561 1.362 . S
C562 C565 1.409 . S
C563 H555 0.930 . S
C563 C564 1.355 . S
C563 C565 1.415 . S
C564 C563 1.355 . S
C564 C566 1.419 . S
C565 C560 1.425 . S
C565 C562 1.409 . S
C565 C563 1.415 . S
C566 H556 0.930 . S
C566 C564 1.419 . S
C566 C567 1.362 . S
C567 H557 0.930 . S
C567 C560 1.409 . S
C567 C566 1.362 . S
H568 C574 0.930 . S
H569 C577 0.930 . S
H570 C578 0.930 . S
H571 C579 0.930 . S
H572 C582 0.930 1_554 S
H573 C583 0.930 1_554 S
C574 H568 0.930 . S
C574 C575 1.355 . S
C574 C576 1.415 . S
C575 C574 1.355 . S
C575 C577 1.419 . S
C576 C574 1.415 . S
C576 C581 1.425 . S
C576 C583 1.409 . S
C577 H569 0.930 . S
C577 C575 1.419 . S
C577 C578 1.362 . S
C578 H570 0.930 . S
C578 C577 1.362 . S
C578 C581 1.409 . S
C579 H571 0.930 . S
C579 C580 1.355 . S
C579 C581 1.415 . S
C580 C579 1.355 . S
C580 C582 1.419 . S
C581 C576 1.425 . S
C581 C578 1.409 . S
C581 C579 1.415 . S
C582 H572 0.930 1_556 S
C582 C580 1.419 . S
C582 C583 1.362 . S
C583 H573 0.930 1_556 S
C583 C576 1.409 . S
C583 C582 1.362 . S
H584 C590 0.930 . S
H585 C593 0.919 1_554 S
H586 C594 0.930 . S
H587 C595 0.930 1_554 S
H588 C598 0.930 . S
H589 C599 0.930 . S
C590 H584 0.930 . S
C590 C591 1.355 . S
C590 C592 1.415 . S
C591 C590 1.355 . S
C591 C593 1.433 . S
C592 C590 1.415 . S
C592 C597 1.425 . S
C592 C599 1.409 . S
C593 H585 0.919 1_556 S
C593 C591 1.433 . S
C593 C594 1.360 1_556 S
C594 H586 0.930 . S
C594 C593 1.360 1_554 S
C594 C597 1.409 1_554 S
C595 H587 0.930 1_556 S
C595 C596 1.355 . S
C595 C597 1.415 . S
C596 C595 1.355 . S
C596 C598 1.419 . S
C597 C592 1.425 . S
C597 C594 1.409 1_556 S
C597 C595 1.415 . S
C598 H588 0.930 . S
C598 C596 1.419 . S
C598 C599 1.362 . S
C599 H589 0.930 . S
C599 C592 1.409 . S
C599 C598 1.362 . S
H600 C606 0.930 . S
H601 C609 0.930 . S
H602 C610 0.930 . S
H603 C611 0.930 . S
H604 C614 0.930 . S
H605 C615 0.930 . S
C606 H600 0.930 . S
C606 C607 1.355 . S
C606 C608 1.415 . S
C607 C606 1.355 . S
C607 C609 1.419 . S
C608 C606 1.415 . S
C608 C613 1.425 . S
C608 C615 1.409 . S
C609 H601 0.930 . S
C609 C607 1.419 . S
C609 C610 1.362 . S
C610 H602 0.930 . S
C610 C609 1.362 . S
C610 C613 1.409 . S
C611 H603 0.930 . S
C611 C612 1.355 . S
C611 C613 1.415 . S
C612 C611 1.355 . S
C612 C614 1.419 . S
C613 C608 1.425 . S
C613 C610 1.409 . S
C613 C611 1.415 . S
C614 H604 0.930 . S
C614 C612 1.419 . S
C614 C615 1.362 . S
C615 H605 0.930 . S
C615 C608 1.409 . S
C615 C614 1.362 . S
H616 C622 0.930 . S
H617 C625 0.930 . S
H618 C626 0.930 . S
H619 C627 0.930 . S
H620 C630 0.930 . S
H621 C631 0.930 . S
C622 H616 0.930 . S
C622 C623 1.355 . S
C622 C624 1.415 . S
C623 C622 1.355 . S
C623 C625 1.419 . S
C624 C622 1.415 . S
C624 C629 1.425 . S
C624 C631 1.409 . S
C625 H617 0.930 . S
C625 C623 1.419 . S
C625 C626 1.362 . S
C626 H618 0.930 . S
C626 C625 1.362 . S
C626 C629 1.409 . S
C627 H619 0.930 . S
C627 C628 1.355 . S
C627 C629 1.415 . S
C628 C627 1.355 . S
C628 C630 1.419 . S
C629 C624 1.425 . S
C629 C626 1.409 . S
C629 C627 1.415 . S
C630 H620 0.930 . S
C630 C628 1.419 . S
C630 C631 1.362 . S
C631 H621 0.930 . S
C631 C624 1.409 . S
C631 C630 1.362 . S
H632 C638 0.930 . S
H633 C641 0.930 . S
H634 C642 0.930 . S
H635 C643 0.930 . S
H636 C646 0.930 . S
H637 C647 0.930 . S
C638 H632 0.930 . S
C638 C639 1.355 . S
C638 C640 1.415 . S
C639 C638 1.355 . S
C639 C641 1.419 . S
C640 C638 1.415 . S
C640 C645 1.425 . S
C640 C647 1.409 . S
C641 H633 0.930 . S
C641 C639 1.419 . S
C641 C642 1.362 . S
C642 H634 0.930 . S
C642 C641 1.362 . S
C642 C645 1.409 . S
C643 H635 0.930 . S
C643 C644 1.355 . S
C643 C645 1.415 . S
C644 C643 1.355 . S
C644 C646 1.419 . S
C645 C640 1.425 . S
C645 C642 1.409 . S
C645 C643 1.415 . S
C646 H636 0.930 . S
C646 C644 1.419 . S
C646 C647 1.362 . S
C647 H637 0.930 . S
C647 C640 1.409 . S
C647 C646 1.362 . S
H648 C654 0.930 . S
H649 C657 0.930 . S
H650 C658 0.930 . S
H651 C659 0.930 . S
H652 C662 0.930 . S
H653 C663 0.930 . S
C654 H648 0.930 . S
C654 C655 1.355 . S
C654 C656 1.415 . S
C655 C654 1.355 . S
C655 C657 1.419 . S
C656 C654 1.415 . S
C656 C661 1.425 . S
C656 C663 1.409 . S
C657 H649 0.930 . S
C657 C655 1.419 . S
C657 C658 1.362 . S
C658 H650 0.930 . S
C658 C657 1.362 . S
C658 C661 1.409 . S
C659 H651 0.930 . S
C659 C660 1.355 . S
C659 C661 1.415 . S
C660 C659 1.355 . S
C660 C662 1.419 . S
C661 C656 1.425 . S
C661 C658 1.409 . S
C661 C659 1.415 . S
C662 H652 0.930 . S
C662 C660 1.419 . S
C662 C663 1.362 . S
C663 H653 0.930 . S
C663 C656 1.409 . S
C663 C662 1.362 . S
H664 C670 0.930 . S
H665 C673 0.930 . S
H666 C674 0.930 . S
H667 C675 0.930 . S
H668 C678 0.930 . S
H669 C679 0.930 . S
C670 H664 0.930 . S
C670 C671 1.355 . S
C670 C672 1.415 . S
C671 C670 1.355 . S
C671 C673 1.419 . S
C672 C670 1.415 . S
C672 C677 1.425 . S
C672 C679 1.409 . S
C673 H665 0.930 . S
C673 C671 1.419 . S
C673 C674 1.362 . S
C674 H666 0.930 . S
C674 C673 1.362 . S
C674 C677 1.409 . S
C675 H667 0.930 . S
C675 C676 1.355 . S
C675 C677 1.415 . S
C676 C675 1.355 . S
C676 C678 1.419 . S
C677 C672 1.425 . S
C677 C674 1.409 . S
C677 C675 1.415 . S
C678 H668 0.930 . S
C678 C676 1.419 . S
C678 C679 1.362 . S
C679 H669 0.930 . S
C679 C672 1.409 . S
C679 C678 1.362 . S
H680 C686 0.930 . S
H681 C689 0.930 . S
H682 C690 0.930 . S
H683 C691 0.930 . S
H684 C694 0.930 . S
H685 C695 0.930 . S
C686 H680 0.930 . S
C686 C687 1.355 . S
C686 C688 1.415 . S
C687 C686 1.355 . S
C687 C689 1.419 . S
C688 C686 1.415 . S
C688 C693 1.425 . S
C688 C695 1.409 . S
C689 H681 0.930 . S
C689 C687 1.419 . S
C689 C690 1.362 . S
C690 H682 0.930 . S
C690 C689 1.362 . S
C690 C693 1.409 . S
C691 H683 0.930 . S
C691 C692 1.355 . S
C691 C693 1.415 . S
C692 C691 1.355 . S
C692 C694 1.419 . S
C693 C688 1.425 . S
C693 C690 1.409 . S
C693 C691 1.415 . S
C694 H684 0.930 . S
C694 C692 1.419 . S
C694 C695 1.362 . S
C695 H685 0.930 . S
C695 C688 1.409 . S
C695 C694 1.362 . S
H696 C702 0.930 . S
H697 C705 0.930 . S
H698 C706 0.930 . S
H699 C707 0.930 . S
H700 C710 0.930 . S
H701 C711 0.930 . S
C702 H696 0.930 . S
C702 C703 1.355 . S
C702 C704 1.415 . S
C703 C702 1.355 . S
C703 C705 1.419 . S
C704 C702 1.415 . S
C704 C709 1.425 . S
C704 C711 1.409 . S
C705 H697 0.930 . S
C705 C703 1.419 . S
C705 C706 1.362 . S
C706 H698 0.930 . S
C706 C705 1.362 . S
C706 C709 1.409 . S
C707 H699 0.930 . S
C707 C708 1.355 . S
C707 C709 1.415 . S
C708 C707 1.355 . S
C708 C710 1.419 . S
C709 C704 1.425 . S
C709 C706 1.409 . S
C709 C707 1.415 . S
C710 H700 0.930 . S
C710 C708 1.419 . S
C710 C711 1.362 . S
C711 H701 0.930 . S
C711 C704 1.409 . S
C711 C710 1.362 . S
H712 C718 0.930 . S
H713 C721 0.930 . S
H714 C722 0.930 . S
H715 C723 0.930 . S
H716 C726 0.930 . S
H717 C727 0.930 . S
C718 H712 0.930 . S
C718 C719 1.355 . S
C718 C720 1.415 . S
C719 C718 1.355 . S
C719 C721 1.419 . S
C720 C718 1.415 . S
C720 C725 1.425 . S
C720 C727 1.409 . S
C721 H713 0.930 . S
C721 C719 1.419 . S
C721 C722 1.362 . S
C722 H714 0.930 . S
C722 C721 1.362 . S
C722 C725 1.409 . S
C723 H715 0.930 . S
C723 C724 1.355 . S
C723 C725 1.415 . S
C724 C723 1.355 . S
C724 C726 1.419 . S
C725 C720 1.425 . S
C725 C722 1.409 . S
C725 C723 1.415 . S
C726 H716 0.930 . S
C726 C724 1.419 . S
C726 C727 1.362 . S
C727 H717 0.930 . S
C727 C720 1.409 . S
C727 C726 1.362 . S
H728 C734 0.930 . S
H729 C737 0.930 . S
H730 C738 0.930 . S
H731 C739 0.930 . S
H732 C742 0.930 . S
H733 C743 0.930 . S
C734 H728 0.930 . S
C734 C735 1.355 . S
C734 C736 1.415 . S
C735 C734 1.355 . S
C735 C737 1.419 . S
C736 C734 1.415 . S
C736 C741 1.425 . S
C736 C743 1.409 . S
C737 H729 0.930 . S
C737 C735 1.419 . S
C737 C738 1.362 . S
C738 H730 0.930 . S
C738 C737 1.362 . S
C738 C741 1.409 . S
C739 H731 0.930 . S
C739 C740 1.355 . S
C739 C741 1.415 . S
C740 C739 1.355 . S
C740 C742 1.419 . S
C741 C736 1.425 . S
C741 C738 1.409 . S
C741 C739 1.415 . S
C742 H732 0.930 . S
C742 C740 1.419 . S
C742 C743 1.362 . S
C743 H733 0.930 . S
C743 C736 1.409 . S
C743 C742 1.362 . S
H744 C750 0.930 . S
H745 C753 0.930 . S
H746 C754 0.930 . S
H747 C755 0.930 . S
H748 C758 0.930 . S
H749 C759 0.930 . S
C750 H744 0.930 . S
C750 C751 1.355 . S
C750 C752 1.415 . S
C751 C750 1.355 . S
C751 C753 1.419 . S
C752 C750 1.415 . S
C752 C757 1.425 . S
C752 C759 1.409 . S
C753 H745 0.930 . S
C753 C751 1.419 . S
C753 C754 1.362 . S
C754 H746 0.930 . S
C754 C753 1.362 . S
C754 C757 1.409 . S
C755 H747 0.930 . S
C755 C756 1.355 . S
C755 C757 1.415 . S
C756 C755 1.355 . S
C756 C758 1.419 . S
C757 C752 1.425 . S
C757 C754 1.409 . S
C757 C755 1.415 . S
C758 H748 0.930 . S
C758 C756 1.419 . S
C758 C759 1.362 . S
C759 H749 0.930 . S
C759 C752 1.409 . S
C759 C758 1.362 . S
H760 C766 0.930 . S
H761 C769 0.930 . S
H762 C770 0.930 . S
H763 C771 0.930 . S
H764 C774 0.930 . S
H765 C775 0.930 . S
C766 H760 0.930 . S
C766 C767 1.355 . S
C766 C768 1.415 . S
C767 C766 1.355 . S
C767 C769 1.419 . S
C768 C766 1.415 . S
C768 C773 1.425 . S
C768 C775 1.409 . S
C769 H761 0.930 . S
C769 C767 1.419 . S
C769 C770 1.362 . S
C770 H762 0.930 . S
C770 C769 1.362 . S
C770 C773 1.409 . S
C771 H763 0.930 . S
C771 C772 1.355 . S
C771 C773 1.415 . S
C772 C771 1.355 . S
C772 C774 1.419 . S
C773 C768 1.425 . S
C773 C770 1.409 . S
C773 C771 1.415 . S
C774 H764 0.930 . S
C774 C772 1.419 . S
C774 C775 1.362 . S
C775 H765 0.930 . S
C775 C768 1.409 . S
C775 C774 1.362 . S
H776 C782 0.930 . S
H777 C785 0.930 . S
H778 C786 0.930 . S
H779 C787 0.930 . S
H780 C790 0.930 . S
H781 C791 0.930 . S
C782 H776 0.930 . S
C782 C783 1.355 . S
C782 C784 1.415 . S
C783 C782 1.355 . S
C783 C785 1.419 . S
C784 C782 1.415 . S
C784 C789 1.425 . S
C784 C791 1.409 . S
C785 H777 0.930 . S
C785 C783 1.419 . S
C785 C786 1.362 . S
C786 H778 0.930 . S
C786 C785 1.362 . S
C786 C789 1.409 . S
C787 H779 0.930 . S
C787 C788 1.355 . S
C787 C789 1.415 . S
C788 C787 1.355 . S
C788 C790 1.419 . S
C789 C784 1.425 . S
C789 C786 1.409 . S
C789 C787 1.415 . S
C790 H780 0.930 . S
C790 C788 1.419 . S
C790 C791 1.362 . S
C791 H781 0.930 . S
C791 C784 1.409 . S
C791 C790 1.362 . S
H792 C798 0.930 . S
H793 C801 0.930 . S
H794 C802 0.930 1_655 S
H795 C803 0.930 . S
H796 C806 0.930 . S
H797 C807 0.930 1_455 S
C798 H792 0.930 . S
C798 C799 1.355 1_556 S
C798 C800 1.415 . S
C799 C798 1.355 1_554 S
C799 C801 1.419 . S
C800 C798 1.415 . S
C800 C805 1.425 1_456 S
C800 C807 1.409 1_455 S
C801 H793 0.930 . S
C801 C799 1.419 . S
C801 C802 1.362 . S
C802 H794 0.930 1_455 S
C802 C801 1.362 . S
C802 C805 1.409 1_455 S
C803 H795 0.930 . S
C803 C804 1.355 1_554 S
C803 C805 1.415 . S
C804 C803 1.355 1_556 S
C804 C806 1.419 . S
C805 C800 1.425 1_654 S
C805 C802 1.409 1_655 S
C805 C803 1.415 . S
C806 H796 0.930 . S
C806 C804 1.419 . S
C806 C807 1.362 . S
C807 H797 0.930 1_655 S
C807 C800 1.409 1_655 S
C807 C806 1.362 . S
H808 C814 0.930 . S
H809 C817 0.930 . S
H810 C818 0.930 . S
H811 C819 0.930 . S
H812 C822 0.930 . S
H813 C823 0.930 . S
C814 H808 0.930 . S
C814 C815 1.355 . S
C814 C816 1.415 . S
C815 C814 1.355 . S
C815 C817 1.419 1_556 S
C816 C814 1.415 . S
C816 C821 1.425 1_556 S
C816 C823 1.409 . S
C817 H809 0.930 . S
C817 C815 1.419 1_554 S
C817 C818 1.362 . S
C818 H810 0.930 . S
C818 C817 1.362 . S
C818 C821 1.409 . S
C819 H811 0.930 . S
C819 C820 1.355 . S
C819 C821 1.415 . S
C820 C819 1.355 . S
C820 C822 1.419 1_554 S
C821 C816 1.425 1_554 S
C821 C818 1.409 . S
C821 C819 1.415 . S
C822 H812 0.930 . S
C822 C820 1.419 1_556 S
C822 C823 1.362 . S
C823 H813 0.930 . S
C823 C816 1.409 . S
C823 C822 1.362 . S
H824 C830 0.930 . S
H825 C833 0.930 . S
H826 C834 0.930 . S
H827 C835 0.930 . S
H828 C838 0.930 . S
H829 C839 0.930 . S
C830 H824 0.930 . S
C830 C831 1.355 . S
C830 C832 1.415 . S
C831 C830 1.355 . S
C831 C833 1.419 1_554 S
C832 C830 1.415 . S
C832 C837 1.425 1_564 S
C832 C839 1.409 1_565 S
C833 H825 0.930 . S
C833 C831 1.419 1_556 S
C833 C834 1.362 . S
C834 H826 0.930 . S
C834 C833 1.362 . S
C834 C837 1.409 1_565 S
C835 H827 0.930 . S
C835 C836 1.355 . S
C835 C837 1.415 . S
C836 C835 1.355 . S
C836 C838 1.419 1_556 S
C837 C832 1.425 1_546 S
C837 C834 1.409 1_545 S
C837 C835 1.415 . S
C838 H828 0.930 . S
C838 C836 1.419 1_554 S
C838 C839 1.362 . S
C839 H829 0.930 . S
C839 C832 1.409 1_545 S
C839 C838 1.362 . S
H840 C846 0.930 . S
H841 C849 0.930 . S
H842 C850 0.930 . S
H843 C851 0.930 . S
H844 C854 0.930 . S
H845 C855 0.930 . S
C846 H840 0.930 . S
C846 C847 1.355 . S
C846 C848 1.415 . S
C847 C846 1.355 . S
C847 C849 1.419 . S
C848 C846 1.415 . S
C848 C853 1.425 1_656 S
C848 C855 1.409 1_656 S
C849 H841 0.930 . S
C849 C847 1.419 . S
C849 C850 1.362 . S
C850 H842 0.930 . S
C850 C849 1.362 . S
C850 C853 1.409 1_656 S
C851 H843 0.930 . S
C851 C852 1.355 . S
C851 C853 1.415 . S
C852 C851 1.355 . S
C852 C854 1.419 . S
C853 C848 1.425 1_454 S
C853 C850 1.409 1_454 S
C853 C851 1.415 . S
C854 H844 0.930 . S
C854 C852 1.419 . S
C854 C855 1.362 . S
C855 H845 0.930 . S
C855 C848 1.409 1_454 S
C855 C854 1.362 . S
H856 C862 0.930 . S
H857 C865 0.930 . S
H858 C866 0.930 . S
H859 C867 0.930 . S
H860 C870 0.930 . S
H861 C871 0.930 . S
C862 H856 0.930 . S
C862 C863 1.355 . S
C862 C864 1.415 . S
C863 C862 1.355 . S
C863 C865 1.419 1_556 S
C864 C862 1.415 . S
C864 C869 1.425 1_556 S
C864 C871 1.409 . S
C865 H857 0.930 . S
C865 C863 1.419 1_554 S
C865 C866 1.362 . S
C866 H858 0.930 . S
C866 C865 1.362 . S
C866 C869 1.409 . S
C867 H859 0.930 . S
C867 C868 1.355 . S
C867 C869 1.415 . S
C868 C867 1.355 . S
C868 C870 1.419 1_554 S
C869 C864 1.425 1_554 S
C869 C866 1.409 . S
C869 C867 1.415 . S
C870 H860 0.930 . S
C870 C868 1.419 1_556 S
C870 C871 1.362 . S
C871 H861 0.930 . S
C871 C864 1.409 . S
C871 C870 1.362 . S
H872 C878 0.930 . S
H873 C881 0.930 . S
H874 C882 0.930 . S
H875 C883 0.930 . S
H876 C886 0.930 . S
H877 C887 0.930 . S
C878 H872 0.930 . S
C878 C879 1.355 1_554 S
C878 C880 1.415 . S
C879 C878 1.355 1_556 S
C879 C881 1.419 . S
C880 C878 1.415 . S
C880 C885 1.425 1_544 S
C880 C887 1.409 1_545 S
C881 H873 0.930 . S
C881 C879 1.419 . S
C881 C882 1.362 . S
C882 H874 0.930 . S
C882 C881 1.362 . S
C882 C885 1.409 1_545 S
C883 H875 0.930 . S
C883 C884 1.355 1_556 S
C883 C885 1.415 . S
C884 C883 1.355 1_554 S
C884 C886 1.419 . S
C885 C880 1.425 1_566 S
C885 C882 1.409 1_565 S
C885 C883 1.415 . S
C886 H876 0.930 . S
C886 C884 1.419 . S
C886 C887 1.362 . S
C887 H877 0.930 . S
C887 C880 1.409 1_565 S
C887 C886 1.362 . S
H888 C894 0.930 . S
H889 C897 0.930 . S
H890 C898 0.930 . S
H891 C899 0.930 . S
H892 C902 0.930 . S
H893 C903 0.930 . S
C894 H888 0.930 . S
C894 C895 1.355 . S
C894 C896 1.415 . S
C895 C894 1.355 . S
C895 C897 1.419 . S
C896 C894 1.415 . S
C896 C901 1.425 . S
C896 C903 1.409 . S
C897 H889 0.930 . S
C897 C895 1.419 . S
C897 C898 1.362 . S
C898 H890 0.930 . S
C898 C897 1.362 . S
C898 C901 1.409 . S
C899 H891 0.930 . S
C899 C900 1.355 . S
C899 C901 1.415 . S
C900 C899 1.355 . S
C900 C902 1.419 . S
C901 C896 1.425 . S
C901 C898 1.409 . S
C901 C899 1.415 . S
C902 H892 0.930 . S
C902 C900 1.419 . S
C902 C903 1.362 . S
C903 H893 0.930 . S
C903 C896 1.409 . S
C903 C902 1.362 . S
H904 C910 0.930 . S
H905 C913 0.930 . S
H906 C914 0.930 . S
H907 C915 0.930 . S
H908 C918 0.930 . S
H909 C919 0.930 . S
C910 H904 0.930 . S
C910 C911 1.355 . S
C910 C912 1.415 . S
C911 C910 1.355 . S
C911 C913 1.419 . S
C912 C910 1.415 . S
C912 C917 1.425 . S
C912 C919 1.409 . S
C913 H905 0.930 . S
C913 C911 1.419 . S
C913 C914 1.362 . S
C914 H906 0.930 . S
C914 C913 1.362 . S
C914 C917 1.409 . S
C915 H907 0.930 . S
C915 C916 1.355 . S
C915 C917 1.415 . S
C916 C915 1.355 . S
C916 C918 1.419 . S
C917 C912 1.425 . S
C917 C914 1.409 . S
C917 C915 1.415 . S
C918 H908 0.930 . S
C918 C916 1.419 . S
C918 C919 1.362 . S
C919 H909 0.930 . S
C919 C912 1.409 . S
C919 C918 1.362 . S
H920 C926 0.930 . S
H921 C929 0.930 . S
H922 C930 0.930 . S
H923 C931 0.930 . S
H924 C934 0.930 . S
H925 C935 0.930 . S
C926 H920 0.930 . S
C926 C927 1.355 . S
C926 C928 1.415 . S
C927 C926 1.355 . S
C927 C929 1.419 . S
C928 C926 1.415 . S
C928 C933 1.425 . S
C928 C935 1.409 . S
C929 H921 0.930 . S
C929 C927 1.419 . S
C929 C930 1.362 . S
C930 H922 0.930 . S
C930 C929 1.362 . S
C930 C933 1.409 . S
C931 H923 0.930 . S
C931 C932 1.355 . S
C931 C933 1.415 . S
C932 C931 1.355 . S
C932 C934 1.419 . S
C933 C928 1.425 . S
C933 C930 1.409 . S
C933 C931 1.415 . S
C934 H924 0.930 . S
C934 C932 1.419 . S
C934 C935 1.362 . S
C935 H925 0.930 . S
C935 C928 1.409 . S
C935 C934 1.362 . S
H936 C942 0.930 . S
H937 C945 0.930 . S
H938 C946 0.930 . S
H939 C947 0.930 . S
H940 C950 0.930 . S
H941 C951 0.930 . S
C942 H936 0.930 . S
C942 C943 1.355 . S
C942 C944 1.415 . S
C943 C942 1.355 . S
C943 C945 1.419 . S
C944 C942 1.415 . S
C944 C949 1.425 . S
C944 C951 1.409 . S
C945 H937 0.930 . S
C945 C943 1.419 . S
C945 C946 1.362 . S
C946 H938 0.930 . S
C946 C945 1.362 . S
C946 C949 1.409 . S
C947 H939 0.930 . S
C947 C948 1.355 . S
C947 C949 1.415 . S
C948 C947 1.355 . S
C948 C950 1.419 . S
C949 C944 1.425 . S
C949 C946 1.409 . S
C949 C947 1.415 . S
C950 H940 0.930 . S
C950 C948 1.419 . S
C950 C951 1.362 . S
C951 H941 0.930 . S
C951 C944 1.409 . S
C951 C950 1.362 . S
H952 C958 0.930 . S
H953 C961 0.930 . S
H954 C962 0.930 . S
H955 C963 0.930 . S
H956 C966 0.930 . S
H957 C967 0.930 . S
C958 H952 0.930 . S
C958 C959 1.355 . S
C958 C960 1.415 . S
C959 C958 1.355 . S
C959 C961 1.419 . S
C960 C958 1.415 . S
C960 C965 1.425 . S
C960 C967 1.409 . S
C961 H953 0.930 . S
C961 C959 1.419 . S
C961 C962 1.362 . S
C962 H954 0.930 . S
C962 C961 1.362 . S
C962 C965 1.409 . S
C963 H955 0.930 . S
C963 C964 1.355 . S
C963 C965 1.415 . S
C964 C963 1.355 . S
C964 C966 1.419 . S
C965 C960 1.425 . S
C965 C962 1.409 . S
C965 C963 1.415 . S
C966 H956 0.930 . S
C966 C964 1.419 . S
C966 C967 1.362 . S
C967 H957 0.930 . S
C967 C960 1.409 . S
C967 C966 1.362 . S
H968 C974 0.930 . S
H969 C977 0.930 . S
H970 C978 0.930 . S
H971 C979 0.930 . S
H972 C982 0.930 . S
H973 C983 0.930 . S
C974 H968 0.930 . S
C974 C975 1.355 . S
C974 C976 1.415 . S
C975 C974 1.355 . S
C975 C977 1.419 . S
C976 C974 1.415 . S
C976 C981 1.425 . S
C976 C983 1.409 . S
C977 H969 0.930 . S
C977 C975 1.419 . S
C977 C978 1.362 . S
C978 H970 0.930 . S
C978 C977 1.362 . S
C978 C981 1.409 . S
C979 H971 0.930 . S
C979 C980 1.355 . S
C979 C981 1.415 . S
C980 C979 1.355 . S
C980 C982 1.419 . S
C981 C976 1.425 . S
C981 C978 1.409 . S
C981 C979 1.415 . S
C982 H972 0.930 . S
C982 C980 1.419 . S
C982 C983 1.362 . S
C983 H973 0.930 . S
C983 C976 1.409 . S
C983 C982 1.362 . S
H984 C990 0.930 . S
H985 C993 0.930 . S
H986 C994 0.930 . S
H987 C995 0.930 . S
H988 C998 0.930 . S
H989 C999 0.930 . S
C990 H984 0.930 . S
C990 C991 1.355 . S
C990 C992 1.415 . S
C991 C990 1.355 . S
C991 C993 1.419 . S
C992 C990 1.415 . S
C992 C997 1.425 . S
C992 C999 1.409 . S
C993 H985 0.930 . S
C993 C991 1.419 . S
C993 C994 1.362 . S
C994 H986 0.930 . S
C994 C993 1.362 . S
C994 C997 1.409 . S
C995 H987 0.930 . S
C995 C996 1.355 . S
C995 C997 1.415 . S
C996 C995 1.355 . S
C996 C998 1.419 . S
C997 C992 1.425 . S
C997 C994 1.409 . S
C997 C995 1.415 . S
C998 H988 0.930 . S
C998 C996 1.419 . S
C998 C999 1.362 . S
C999 H989 0.930 . S
C999 C992 1.409 . S
C999 C998 1.362 . S
H1000 C1006 0.930 . S
H1001 C1009 0.930 . S
H1002 C1010 0.930 . S
H1003 C1011 0.930 . S
H1004 C1014 0.930 . S
H1005 C1015 0.930 . S
C1006 H1000 0.930 . S
C1006 C1007 1.355 . S
C1006 C1008 1.415 . S
C1007 C1006 1.355 . S
C1007 C1009 1.419 . S
C1008 C1006 1.415 . S
C1008 C1013 1.425 . S
C1008 C1015 1.409 . S
C1009 H1001 0.930 . S
C1009 C1007 1.419 . S
C1009 C1010 1.362 . S
C1010 H1002 0.930 . S
C1010 C1009 1.362 . S
C1010 C1013 1.409 . S
C1011 H1003 0.930 . S
C1011 C1012 1.355 . S
C1011 C1013 1.415 . S
C1012 C1011 1.355 . S
C1012 C1014 1.419 . S
C1013 C1008 1.425 . S
C1013 C1010 1.409 . S
C1013 C1011 1.415 . S
C1014 H1004 0.930 . S
C1014 C1012 1.419 . S
C1014 C1015 1.362 . S
C1015 H1005 0.930 . S
C1015 C1008 1.409 . S
C1015 C1014 1.362 . S
H1016 C1022 0.930 . S
H1017 C1025 0.930 . S
H1018 C1026 0.930 . S
H1019 C1027 0.930 . S
H1020 C1030 0.930 . S
H1021 C1031 0.930 . S
C1022 H1016 0.930 . S
C1022 C1023 1.355 . S
C1022 C1024 1.415 . S
C1023 C1022 1.355 . S
C1023 C1025 1.419 . S
C1024 C1022 1.415 . S
C1024 C1029 1.425 . S
C1024 C1031 1.409 . S
C1025 H1017 0.930 . S
C1025 C1023 1.419 . S
C1025 C1026 1.362 . S
C1026 H1018 0.930 . S
C1026 C1025 1.362 . S
C1026 C1029 1.409 . S
C1027 H1019 0.930 . S
C1027 C1028 1.355 . S
C1027 C1029 1.415 . S
C1028 C1027 1.355 . S
C1028 C1030 1.419 . S
C1029 C1024 1.425 . S
C1029 C1026 1.409 . S
C1029 C1027 1.415 . S
C1030 H1020 0.930 . S
C1030 C1028 1.419 . S
C1030 C1031 1.362 . S
C1031 H1021 0.930 . S
C1031 C1024 1.409 . S
C1031 C1030 1.362 . S
H1032 C1038 0.930 . S
H1033 C1041 0.930 . S
H1034 C1042 0.930 . S
H1035 C1043 0.930 . S
H1036 C1046 0.930 . S
H1037 C1047 0.930 . S
C1038 H1032 0.930 . S
C1038 C1039 1.355 . S
C1038 C1040 1.415 . S
C1039 C1038 1.355 . S
C1039 C1041 1.419 . S
C1040 C1038 1.415 . S
C1040 C1045 1.425 . S
C1040 C1047 1.409 . S
C1041 H1033 0.930 . S
C1041 C1039 1.419 . S
C1041 C1042 1.362 . S
C1042 H1034 0.930 . S
C1042 C1041 1.362 . S
C1042 C1045 1.409 . S
C1043 H1035 0.930 . S
C1043 C1044 1.355 . S
C1043 C1045 1.415 . S
C1044 C1043 1.355 . S
C1044 C1046 1.419 . S
C1045 C1040 1.425 . S
C1045 C1042 1.409 . S
C1045 C1043 1.415 . S
C1046 H1036 0.930 . S
C1046 C1044 1.419 . S
C1046 C1047 1.362 . S
C1047 H1037 0.930 . S
C1047 C1040 1.409 . S
C1047 C1046 1.362 . S
H1048 C1054 0.930 . S
H1049 C1057 0.930 . S
H1050 C1058 0.930 . S
H1051 C1059 0.930 . S
H1052 C1062 0.930 . S
H1053 C1063 0.930 . S
C1054 H1048 0.930 . S
C1054 C1055 1.355 . S
C1054 C1056 1.415 . S
C1055 C1054 1.355 . S
C1055 C1057 1.419 . S
C1056 C1054 1.415 . S
C1056 C1061 1.425 . S
C1056 C1063 1.409 . S
C1057 H1049 0.930 . S
C1057 C1055 1.419 . S
C1057 C1058 1.362 . S
C1058 H1050 0.930 . S
C1058 C1057 1.362 . S
C1058 C1061 1.409 . S
C1059 H1051 0.930 . S
C1059 C1060 1.355 . S
C1059 C1061 1.415 . S
C1060 C1059 1.355 . S
C1060 C1062 1.419 . S
C1061 C1056 1.425 . S
C1061 C1058 1.409 . S
C1061 C1059 1.415 . S
C1062 H1052 0.930 . S
C1062 C1060 1.419 . S
C1062 C1063 1.362 . S
C1063 H1053 0.930 . S
C1063 C1056 1.409 . S
C1063 C1062 1.362 . S
H1064 C1070 0.930 . S
H1065 C1073 0.930 . S
H1066 C1074 0.930 . S
H1067 C1075 0.930 . S
H1068 C1078 0.930 . S
H1069 C1079 0.930 . S
C1070 H1064 0.930 . S
C1070 C1071 1.355 . S
C1070 C1072 1.415 . S
C1071 C1070 1.355 . S
C1071 C1073 1.419 . S
C1072 C1070 1.415 . S
C1072 C1077 1.425 . S
C1072 C1079 1.409 . S
C1073 H1065 0.930 . S
C1073 C1071 1.419 . S
C1073 C1074 1.362 . S
C1074 H1066 0.930 . S
C1074 C1073 1.362 . S
C1074 C1077 1.409 . S
C1075 H1067 0.930 . S
C1075 C1076 1.355 . S
C1075 C1077 1.415 . S
C1076 C1075 1.355 . S
C1076 C1078 1.419 . S
C1077 C1072 1.425 . S
C1077 C1074 1.409 . S
C1077 C1075 1.415 . S
C1078 H1068 0.930 . S
C1078 C1076 1.419 . S
C1078 C1079 1.362 . S
C1079 H1069 0.930 . S
C1079 C1072 1.409 . S
C1079 C1078 1.362 . S
H1080 C1086 0.930 . S
H1081 C1089 0.930 . S
H1082 C1090 0.930 . S
H1083 C1091 0.930 . S
H1084 C1094 0.930 . S
H1085 C1095 0.930 . S
C1086 H1080 0.930 . S
C1086 C1087 1.355 . S
C1086 C1088 1.415 . S
C1087 C1086 1.355 . S
C1087 C1089 1.419 . S
C1088 C1086 1.415 . S
C1088 C1093 1.425 . S
C1088 C1095 1.409 . S
C1089 H1081 0.930 . S
C1089 C1087 1.419 . S
C1089 C1090 1.362 . S
C1090 H1082 0.930 . S
C1090 C1089 1.362 . S
C1090 C1093 1.409 . S
C1091 H1083 0.930 . S
C1091 C1092 1.355 . S
C1091 C1093 1.415 . S
C1092 C1091 1.355 . S
C1092 C1094 1.419 . S
C1093 C1088 1.425 . S
C1093 C1090 1.409 . S
C1093 C1091 1.415 . S
C1094 H1084 0.930 . S
C1094 C1092 1.419 . S
C1094 C1095 1.362 . S
C1095 H1085 0.930 . S
C1095 C1088 1.409 . S
C1095 C1094 1.362 . S
H1096 C1102 0.930 . S
H1097 C1105 0.930 . S
H1098 C1106 0.930 . S
H1099 C1107 0.930 . S
H1100 C1110 0.930 . S
H1101 C1111 0.930 . S
C1102 H1096 0.930 . S
C1102 C1103 1.355 . S
C1102 C1104 1.415 . S
C1103 C1102 1.355 . S
C1103 C1105 1.419 . S
C1104 C1102 1.415 . S
C1104 C1109 1.425 . S
C1104 C1111 1.409 . S
C1105 H1097 0.930 . S
C1105 C1103 1.419 . S
C1105 C1106 1.362 . S
C1106 H1098 0.930 . S
C1106 C1105 1.362 . S
C1106 C1109 1.409 . S
C1107 H1099 0.930 . S
C1107 C1108 1.355 . S
C1107 C1109 1.415 . S
C1108 C1107 1.355 . S
C1108 C1110 1.419 . S
C1109 C1104 1.425 . S
C1109 C1106 1.409 . S
C1109 C1107 1.415 . S
C1110 H1100 0.930 . S
C1110 C1108 1.419 . S
C1110 C1111 1.362 . S
C1111 H1101 0.930 . S
C1111 C1104 1.409 . S
C1111 C1110 1.362 . S
H1112 C1118 0.930 . S
H1113 C1121 0.930 . S
H1114 C1122 0.930 . S
H1115 C1123 0.930 . S
H1116 C1126 0.930 . S
H1117 C1127 0.930 . S
C1118 H1112 0.930 . S
C1118 C1119 1.355 . S
C1118 C1120 1.415 . S
C1119 C1118 1.355 . S
C1119 C1121 1.419 . S
C1120 C1118 1.415 . S
C1120 C1125 1.425 . S
C1120 C1127 1.409 . S
C1121 H1113 0.930 . S
C1121 C1119 1.419 . S
C1121 C1122 1.362 . S
C1122 H1114 0.930 . S
C1122 C1121 1.362 . S
C1122 C1125 1.409 . S
C1123 H1115 0.930 . S
C1123 C1124 1.355 . S
C1123 C1125 1.415 . S
C1124 C1123 1.355 . S
C1124 C1126 1.419 . S
C1125 C1120 1.425 . S
C1125 C1122 1.409 . S
C1125 C1123 1.415 . S
C1126 H1116 0.930 . S
C1126 C1124 1.419 . S
C1126 C1127 1.362 . S
C1127 H1117 0.930 . S
C1127 C1120 1.409 . S
C1127 C1126 1.362 . S
H1128 C1134 0.930 . S
H1129 C1137 0.930 . S
H1130 C1138 0.930 . S
H1131 C1139 0.930 . S
H1132 C1142 0.930 . S
H1133 C1143 0.930 . S
C1134 H1128 0.930 . S
C1134 C1135 1.355 . S
C1134 C1136 1.415 . S
C1135 C1134 1.355 . S
C1135 C1137 1.419 . S
C1136 C1134 1.415 . S
C1136 C1141 1.425 . S
C1136 C1143 1.409 . S
C1137 H1129 0.930 . S
C1137 C1135 1.419 . S
C1137 C1138 1.362 . S
C1138 H1130 0.930 . S
C1138 C1137 1.362 . S
C1138 C1141 1.409 . S
C1139 H1131 0.930 . S
C1139 C1140 1.355 . S
C1139 C1141 1.415 . S
C1140 C1139 1.355 . S
C1140 C1142 1.419 . S
C1141 C1136 1.425 . S
C1141 C1138 1.409 . S
C1141 C1139 1.415 . S
C1142 H1132 0.930 . S
C1142 C1140 1.419 . S
C1142 C1143 1.362 . S
C1143 H1133 0.930 . S
C1143 C1136 1.409 . S
C1143 C1142 1.362 . S
H1144 C1150 0.930 . S
H1145 C1153 0.930 . S
H1146 C1154 0.930 . S
H1147 C1155 0.930 . S
H1148 C1158 0.930 . S
H1149 C1159 0.930 . S
C1150 H1144 0.930 . S
C1150 C1151 1.355 . S
C1150 C1152 1.415 . S
C1151 C1150 1.355 . S
C1151 C1153 1.419 . S
C1152 C1150 1.415 . S
C1152 C1157 1.425 . S
C1152 C1159 1.409 . S
C1153 H1145 0.930 . S
C1153 C1151 1.419 . S
C1153 C1154 1.362 . S
C1154 H1146 0.930 . S
C1154 C1153 1.362 . S
C1154 C1157 1.409 . S
C1155 H1147 0.930 . S
C1155 C1156 1.355 . S
C1155 C1157 1.415 . S
C1156 C1155 1.355 . S
C1156 C1158 1.419 . S
C1157 C1152 1.425 . S
C1157 C1154 1.409 . S
C1157 C1155 1.415 . S
C1158 H1148 0.930 . S
C1158 C1156 1.419 . S
C1158 C1159 1.362 . S
C1159 H1149 0.930 . S
C1159 C1152 1.409 . S
C1159 C1158 1.362 . S
H1160 C1166 0.930 . S
H1161 C1169 0.930 . S
H1162 C1170 0.930 . S
H1163 C1171 0.930 . S
H1164 C1174 0.930 . S
H1165 C1175 0.930 . S
C1166 H1160 0.930 . S
C1166 C1167 1.355 . S
C1166 C1168 1.415 . S
C1167 C1166 1.355 . S
C1167 C1169 1.419 . S
C1168 C1166 1.415 . S
C1168 C1173 1.425 . S
C1168 C1175 1.409 . S
C1169 H1161 0.930 . S
C1169 C1167 1.419 . S
C1169 C1170 1.362 . S
C1170 H1162 0.930 . S
C1170 C1169 1.362 . S
C1170 C1173 1.409 . S
C1171 H1163 0.930 . S
C1171 C1172 1.355 . S
C1171 C1173 1.415 . S
C1172 C1171 1.355 . S
C1172 C1174 1.419 . S
C1173 C1168 1.425 . S
C1173 C1170 1.409 . S
C1173 C1171 1.415 . S
C1174 H1164 0.930 . S
C1174 C1172 1.419 . S
C1174 C1175 1.362 . S
C1175 H1165 0.930 . S
C1175 C1168 1.409 . S
C1175 C1174 1.362 . S
H1176 C1182 0.930 . S
H1177 C1185 0.930 . S
H1178 C1186 0.930 . S
H1179 C1187 0.930 . S
H1180 C1190 0.930 . S
H1181 C1191 0.930 . S
C1182 H1176 0.930 . S
C1182 C1183 1.355 . S
C1182 C1184 1.415 . S
C1183 C1182 1.355 . S
C1183 C1185 1.419 . S
C1184 C1182 1.415 . S
C1184 C1189 1.425 . S
C1184 C1191 1.409 . S
C1185 H1177 0.930 . S
C1185 C1183 1.419 . S
C1185 C1186 1.362 . S
C1186 H1178 0.930 . S
C1186 C1185 1.362 . S
C1186 C1189 1.409 . S
C1187 H1179 0.930 . S
C1187 C1188 1.355 . S
C1187 C1189 1.415 . S
C1188 C1187 1.355 . S
C1188 C1190 1.419 . S
C1189 C1184 1.425 . S
C1189 C1186 1.409 . S
C1189 C1187 1.415 . S
C1190 H1180 0.930 . S
C1190 C1188 1.419 . S
C1190 C1191 1.362 . S
C1191 H1181 0.930 . S
C1191 C1184 1.409 . S
C1191 C1190 1.362 . S
H1192 C1198 0.930 . S
H1193 C1201 0.930 . S
H1194 C1202 0.930 . S
H1195 C1203 0.930 . S
H1196 C1206 0.930 . S
H1197 C1207 0.930 . S
C1198 H1192 0.930 . S
C1198 C1199 1.355 . S
C1198 C1200 1.415 . S
C1199 C1198 1.355 . S
C1199 C1201 1.419 . S
C1200 C1198 1.415 . S
C1200 C1205 1.425 . S
C1200 C1207 1.409 . S
C1201 H1193 0.930 . S
C1201 C1199 1.419 . S
C1201 C1202 1.362 . S
C1202 H1194 0.930 . S
C1202 C1201 1.362 . S
C1202 C1205 1.409 . S
C1203 H1195 0.930 . S
C1203 C1204 1.355 . S
C1203 C1205 1.415 . S
C1204 C1203 1.355 . S
C1204 C1206 1.419 . S
C1205 C1200 1.425 . S
C1205 C1202 1.409 . S
C1205 C1203 1.415 . S
C1206 H1196 0.930 . S
C1206 C1204 1.419 . S
C1206 C1207 1.362 . S
C1207 H1197 0.930 . S
C1207 C1200 1.409 . S
C1207 C1206 1.362 . S
H1208 C1214 0.930 . S
H1209 C1217 0.930 . S
H1210 C1218 0.930 . S
H1211 C1219 0.930 . S
H1212 C1222 0.930 . S
H1213 C1223 0.930 . S
C1214 H1208 0.930 . S
C1214 C1215 1.355 . S
C1214 C1216 1.415 . S
C1215 C1214 1.355 . S
C1215 C1217 1.419 . S
C1216 C1214 1.415 . S
C1216 C1221 1.425 . S
C1216 C1223 1.409 . S
C1217 H1209 0.930 . S
C1217 C1215 1.419 . S
C1217 C1218 1.362 . S
C1218 H1210 0.930 . S
C1218 C1217 1.362 . S
C1218 C1221 1.409 . S
C1219 H1211 0.930 . S
C1219 C1220 1.355 . S
C1219 C1221 1.415 . S
C1220 C1219 1.355 . S
C1220 C1222 1.419 . S
C1221 C1216 1.425 . S
C1221 C1218 1.409 . S
C1221 C1219 1.415 . S
C1222 H1212 0.930 . S
C1222 C1220 1.419 . S
C1222 C1223 1.362 . S
C1223 H1213 0.930 . S
C1223 C1216 1.409 . S
C1223 C1222 1.362 . S
H1224 C1230 0.930 . S
H1225 C1233 0.930 . S
H1226 C1234 0.930 . S
H1227 C1235 0.930 . S
H1228 C1238 0.930 . S
H1229 C1239 0.930 . S
C1230 H1224 0.930 . S
C1230 C1231 1.355 . S
C1230 C1232 1.415 . S
C1231 C1230 1.355 . S
C1231 C1233 1.419 . S
C1232 C1230 1.415 . S
C1232 C1237 1.425 . S
C1232 C1239 1.409 . S
C1233 H1225 0.930 . S
C1233 C1231 1.419 . S
C1233 C1234 1.362 . S
C1234 H1226 0.930 . S
C1234 C1233 1.362 . S
C1234 C1237 1.409 . S
C1235 H1227 0.930 . S
C1235 C1236 1.355 . S
C1235 C1237 1.415 . S
C1236 C1235 1.355 . S
C1236 C1238 1.419 . S
C1237 C1232 1.425 . S
C1237 C1234 1.409 . S
C1237 C1235 1.415 . S
C1238 H1228 0.930 . S
C1238 C1236 1.419 . S
C1238 C1239 1.362 . S
C1239 H1229 0.930 . S
C1239 C1232 1.409 . S
C1239 C1238 1.362 . S
H1240 C1246 0.930 . S
H1241 C1249 0.930 . S
H1242 C1250 0.930 . S
H1243 C1251 0.930 . S
H1244 C1254 0.930 . S
H1245 C1255 0.930 . S
C1246 H1240 0.930 . S
C1246 C1247 1.355 . S
C1246 C1248 1.415 . S
C1247 C1246 1.355 . S
C1247 C1249 1.419 . S
C1248 C1246 1.415 . S
C1248 C1253 1.425 . S
C1248 C1255 1.409 . S
C1249 H1241 0.930 . S
C1249 C1247 1.419 . S
C1249 C1250 1.362 . S
C1250 H1242 0.930 . S
C1250 C1249 1.362 . S
C1250 C1253 1.409 . S
C1251 H1243 0.930 . S
C1251 C1252 1.355 . S
C1251 C1253 1.415 . S
C1252 C1251 1.355 . S
C1252 C1254 1.419 . S
C1253 C1248 1.425 . S
C1253 C1250 1.409 . S
C1253 C1251 1.415 . S
C1254 H1244 0.930 . S
C1254 C1252 1.419 . S
C1254 C1255 1.362 . S
C1255 H1245 0.930 . S
C1255 C1248 1.409 . S
C1255 C1254 1.362 . S
H1256 C1262 0.930 . S
H1257 C1265 0.930 . S
H1258 C1266 0.930 . S
H1259 C1267 0.930 . S
H1260 C1270 0.930 . S
H1261 C1271 0.930 . S
C1262 H1256 0.930 . S
C1262 C1263 1.355 . S
C1262 C1264 1.415 . S
C1263 C1262 1.355 . S
C1263 C1265 1.419 . S
C1264 C1262 1.415 . S
C1264 C1269 1.425 . S
C1264 C1271 1.409 . S
C1265 H1257 0.930 . S
C1265 C1263 1.419 . S
C1265 C1266 1.362 . S
C1266 H1258 0.930 . S
C1266 C1265 1.362 . S
C1266 C1269 1.409 . S
C1267 H1259 0.930 . S
C1267 C1268 1.355 . S
C1267 C1269 1.415 . S
C1268 C1267 1.355 . S
C1268 C1270 1.419 . S
C1269 C1264 1.425 . S
C1269 C1266 1.409 . S
C1269 C1267 1.415 . S
C1270 H1260 0.930 . S
C1270 C1268 1.419 . S
C1270 C1271 1.362 . S
C1271 H1261 0.930 . S
C1271 C1264 1.409 . S
C1271 C1270 1.362 . S
H1272 C1278 0.930 . S
H1273 C1281 0.930 . S
H1274 C1282 0.930 . S
H1275 C1283 0.930 . S
H1276 C1286 0.930 . S
H1277 C1287 0.930 . S
C1278 H1272 0.930 . S
C1278 C1279 1.355 . S
C1278 C1280 1.444 . S
C1279 C1278 1.355 . S
C1279 C1281 1.419 . S
C1280 C1278 1.444 . S
C1280 C1285 1.368 1_455 S
C1280 C1287 1.413 1_455 S
C1281 H1273 0.930 . S
C1281 C1279 1.419 . S
C1281 C1282 1.362 . S
C1282 H1274 0.930 . S
C1282 C1281 1.362 . S
C1282 C1285 1.412 1_455 S
C1283 H1275 0.930 . S
C1283 C1284 1.355 . S
C1283 C1285 1.440 . S
C1284 C1283 1.355 . S
C1284 C1286 1.419 . S
C1285 C1280 1.368 1_655 S
C1285 C1282 1.412 1_655 S
C1285 C1283 1.440 . S
C1286 H1276 0.930 . S
C1286 C1284 1.419 . S
C1286 C1287 1.362 . S
C1287 H1277 0.930 . S
C1287 C1280 1.413 1_655 S
C1287 C1286 1.362 . S
H1288 C1294 0.930 . S
H1289 C1297 0.930 . S
H1290 C1298 0.930 . S
H1291 C1299 0.930 . S
H1292 C1302 0.930 . S
H1293 C1303 0.930 . S
C1294 H1288 0.930 . S
C1294 C1295 1.355 . S
C1294 C1296 1.415 . S
C1295 C1294 1.355 . S
C1295 C1297 1.419 . S
C1296 C1294 1.415 . S
C1296 C1301 1.425 . S
C1296 C1303 1.409 . S
C1297 H1289 0.930 . S
C1297 C1295 1.419 . S
C1297 C1298 1.362 . S
C1298 H1290 0.930 . S
C1298 C1297 1.362 . S
C1298 C1301 1.409 . S
C1299 H1291 0.930 . S
C1299 C1300 1.355 . S
C1299 C1301 1.415 . S
C1300 C1299 1.355 . S
C1300 C1302 1.419 . S
C1301 C1296 1.425 . S
C1301 C1298 1.409 . S
C1301 C1299 1.415 . S
C1302 H1292 0.930 . S
C1302 C1300 1.419 . S
C1302 C1303 1.362 . S
C1303 H1293 0.930 . S
C1303 C1296 1.409 . S
C1303 C1302 1.362 . S
H1304 C1310 0.930 . S
H1305 C1313 0.930 . S
H1306 C1314 0.930 . S
H1307 C1315 0.930 . S
H1308 C1318 0.930 . S
H1309 C1319 0.930 . S
C1310 H1304 0.930 . S
C1310 C1311 1.355 . S
C1310 C1312 1.415 1_565 S
C1311 C1310 1.355 . S
C1311 C1313 1.419 . S
C1312 C1310 1.415 1_545 S
C1312 C1317 1.425 1_545 S
C1312 C1319 1.409 . S
C1313 H1305 0.930 . S
C1313 C1311 1.419 . S
C1313 C1314 1.362 . S
C1314 H1306 0.930 . S
C1314 C1313 1.362 . S
C1314 C1317 1.409 . S
C1315 H1307 0.930 . S
C1315 C1316 1.355 . S
C1315 C1317 1.415 1_545 S
C1316 C1315 1.355 . S
C1316 C1318 1.419 . S
C1317 C1312 1.425 1_565 S
C1317 C1314 1.409 . S
C1317 C1315 1.415 1_565 S
C1318 H1308 0.930 . S
C1318 C1316 1.419 . S
C1318 C1319 1.362 . S
C1319 H1309 0.930 . S
C1319 C1312 1.409 . S
C1319 C1318 1.362 . S
H1320 C1326 0.930 . S
H1321 C1329 0.930 . S
H1322 C1330 0.930 . S
H1323 C1331 0.930 . S
H1324 C1334 0.930 . S
H1325 C1335 0.930 . S
C1326 H1320 0.930 . S
C1326 C1327 1.355 . S
C1326 C1328 1.415 . S
C1327 C1326 1.355 . S
C1327 C1329 1.419 1_565 S
C1328 C1326 1.415 . S
C1328 C1333 1.425 1_565 S
C1328 C1335 1.409 . S
C1329 H1321 0.930 . S
C1329 C1327 1.419 1_545 S
C1329 C1330 1.362 . S
C1330 H1322 0.930 . S
C1330 C1329 1.362 . S
C1330 C1333 1.409 . S
C1331 H1323 0.930 . S
C1331 C1332 1.355 . S
C1331 C1333 1.415 . S
C1332 C1331 1.355 . S
C1332 C1334 1.419 1_545 S
C1333 C1328 1.425 1_545 S
C1333 C1330 1.409 . S
C1333 C1331 1.415 . S
C1334 H1324 0.930 . S
C1334 C1332 1.419 1_565 S
C1334 C1335 1.362 . S
C1335 H1325 0.930 . S
C1335 C1328 1.409 . S
C1335 C1334 1.362 . S
H1336 C1342 0.930 . S
H1337 C1345 0.930 . S
H1338 C1346 0.930 . S
H1339 C1347 0.930 . S
H1340 C1350 0.930 . S
H1341 C1351 0.930 . S
C1342 H1336 0.930 . S
C1342 C1343 1.355 . S
C1342 C1344 1.415 . S
C1343 C1342 1.355 . S
C1343 C1345 1.419 1_655 S
C1344 C1342 1.415 . S
C1344 C1349 1.425 1_655 S
C1344 C1351 1.409 . S
C1345 H1337 0.930 . S
C1345 C1343 1.419 1_455 S
C1345 C1346 1.362 . S
C1346 H1338 0.930 . S
C1346 C1345 1.362 . S
C1346 C1349 1.409 . S
C1347 H1339 0.930 . S
C1347 C1348 1.355 . S
C1347 C1349 1.415 . S
C1348 C1347 1.355 . S
C1348 C1350 1.419 1_455 S
C1349 C1344 1.425 1_455 S
C1349 C1346 1.409 . S
C1349 C1347 1.415 . S
C1350 H1340 0.930 . S
C1350 C1348 1.419 1_655 S
C1350 C1351 1.362 . S
C1351 H1341 0.930 . S
C1351 C1344 1.409 . S
C1351 C1350 1.362 . S
H1352 C1358 0.930 . S
H1353 C1361 0.930 . S
H1354 C1362 0.930 . S
H1355 C1363 0.930 . S
H1356 C1366 0.930 . S
H1357 C1367 0.930 . S
C1358 H1352 0.930 . S
C1358 C1359 1.355 . S
C1358 C1360 1.415 . S
C1359 C1358 1.355 . S
C1359 C1361 1.419 . S
C1360 C1358 1.415 . S
C1360 C1365 1.425 . S
C1360 C1367 1.409 . S
C1361 H1353 0.930 . S
C1361 C1359 1.419 . S
C1361 C1362 1.362 . S
C1362 H1354 0.930 . S
C1362 C1361 1.362 . S
C1362 C1365 1.409 . S
C1363 H1355 0.930 . S
C1363 C1364 1.355 . S
C1363 C1365 1.415 . S
C1364 C1363 1.355 . S
C1364 C1366 1.419 . S
C1365 C1360 1.425 . S
C1365 C1362 1.409 . S
C1365 C1363 1.415 . S
C1366 H1356 0.930 . S
C1366 C1364 1.419 . S
C1366 C1367 1.362 . S
C1367 H1357 0.930 . S
C1367 C1360 1.409 . S
C1367 C1366 1.362 . S
H1368 C1374 0.930 . S
H1369 C1377 0.930 . S
H1370 C1378 0.930 . S
H1371 C1379 0.930 . S
H1372 C1382 0.930 . S
H1373 C1383 0.930 . S
C1374 H1368 0.930 . S
C1374 C1375 1.355 . S
C1374 C1376 1.415 . S
C1375 C1374 1.355 . S
C1375 C1377 1.419 . S
C1376 C1374 1.415 . S
C1376 C1381 1.425 . S
C1376 C1383 1.409 . S
C1377 H1369 0.930 . S
C1377 C1375 1.419 . S
C1377 C1378 1.362 . S
C1378 H1370 0.930 . S
C1378 C1377 1.362 . S
C1378 C1381 1.409 . S
C1379 H1371 0.930 . S
C1379 C1380 1.355 . S
C1379 C1381 1.415 . S
C1380 C1379 1.355 . S
C1380 C1382 1.419 . S
C1381 C1376 1.425 . S
C1381 C1378 1.409 . S
C1381 C1379 1.415 . S
C1382 H1372 0.930 . S
C1382 C1380 1.419 . S
C1382 C1383 1.362 . S
C1383 H1373 0.930 . S
C1383 C1376 1.409 . S
C1383 C1382 1.362 . S
H1384 C1390 0.930 . S
H1385 C1393 0.930 . S
H1386 C1394 0.930 . S
H1387 C1395 0.930 . S
H1388 C1398 0.930 . S
H1389 C1399 0.930 . S
C1390 H1384 0.930 . S
C1390 C1391 1.355 . S
C1390 C1392 1.415 . S
C1391 C1390 1.355 . S
C1391 C1393 1.419 . S
C1392 C1390 1.415 . S
C1392 C1397 1.425 . S
C1392 C1399 1.409 . S
C1393 H1385 0.930 . S
C1393 C1391 1.419 . S
C1393 C1394 1.362 . S
C1394 H1386 0.930 . S
C1394 C1393 1.362 . S
C1394 C1397 1.409 . S
C1395 H1387 0.930 . S
C1395 C1396 1.355 . S
C1395 C1397 1.415 . S
C1396 C1395 1.355 . S
C1396 C1398 1.419 . S
C1397 C1392 1.425 . S
C1397 C1394 1.409 . S
C1397 C1395 1.415 . S
C1398 H1388 0.930 . S
C1398 C1396 1.419 . S
C1398 C1399 1.362 . S
C1399 H1389 0.930 . S
C1399 C1392 1.409 . S
C1399 C1398 1.362 . S
H1400 C1406 0.930 . S
H1401 C1409 0.930 . S
H1402 C1410 0.930 . S
H1403 C1411 0.930 . S
H1404 C1414 0.930 . S
H1405 C1415 0.930 . S
C1406 H1400 0.930 . S
C1406 C1407 1.355 . S
C1406 C1408 1.415 . S
C1407 C1406 1.355 . S
C1407 C1409 1.419 . S
C1408 C1406 1.415 . S
C1408 C1413 1.425 . S
C1408 C1415 1.409 . S
C1409 H1401 0.930 . S
C1409 C1407 1.419 . S
C1409 C1410 1.362 . S
C1410 H1402 0.930 . S
C1410 C1409 1.362 . S
C1410 C1413 1.409 . S
C1411 H1403 0.930 . S
C1411 C1412 1.355 . S
C1411 C1413 1.415 . S
C1412 C1411 1.355 . S
C1412 C1414 1.419 . S
C1413 C1408 1.425 . S
C1413 C1410 1.409 . S
C1413 C1411 1.415 . S
C1414 H1404 0.930 . S
C1414 C1412 1.419 . S
C1414 C1415 1.362 . S
C1415 H1405 0.930 . S
C1415 C1408 1.409 . S
C1415 C1414 1.362 . S
H1416 C1422 0.930 . S
H1417 C1425 0.930 . S
H1418 C1426 0.930 . S
H1419 C1427 0.930 . S
H1420 C1430 0.930 . S
H1421 C1431 0.930 . S
C1422 H1416 0.930 . S
C1422 C1423 1.355 . S
C1422 C1424 1.415 . S
C1423 C1422 1.355 . S
C1423 C1425 1.419 . S
C1424 C1422 1.415 . S
C1424 C1429 1.425 . S
C1424 C1431 1.409 . S
C1425 H1417 0.930 . S
C1425 C1423 1.419 . S
C1425 C1426 1.362 . S
C1426 H1418 0.930 . S
C1426 C1425 1.362 . S
C1426 C1429 1.409 . S
C1427 H1419 0.930 . S
C1427 C1428 1.355 . S
C1427 C1429 1.415 . S
C1428 C1427 1.355 . S
C1428 C1430 1.419 . S
C1429 C1424 1.425 . S
C1429 C1426 1.409 . S
C1429 C1427 1.415 . S
C1430 H1420 0.930 . S
C1430 C1428 1.419 . S
C1430 C1431 1.362 . S
C1431 H1421 0.930 . S
C1431 C1424 1.409 . S
C1431 C1430 1.362 . S
H1432 C1438 0.930 . S
H1433 C1441 0.930 . S
H1434 C1442 0.930 . S
H1435 C1443 0.930 . S
H1436 C1446 0.930 . S
H1437 C1447 0.930 . S
C1438 H1432 0.930 . S
C1438 C1439 1.355 . S
C1438 C1440 1.415 . S
C1439 C1438 1.355 . S
C1439 C1441 1.419 . S
C1440 C1438 1.415 . S
C1440 C1445 1.425 . S
C1440 C1447 1.409 . S
C1441 H1433 0.930 . S
C1441 C1439 1.419 . S
C1441 C1442 1.362 . S
C1442 H1434 0.930 . S
C1442 C1441 1.362 . S
C1442 C1445 1.409 . S
C1443 H1435 0.930 . S
C1443 C1444 1.355 . S
C1443 C1445 1.415 . S
C1444 C1443 1.355 . S
C1444 C1446 1.419 . S
C1445 C1440 1.425 . S
C1445 C1442 1.409 . S
C1445 C1443 1.415 . S
C1446 H1436 0.930 . S
C1446 C1444 1.419 . S
C1446 C1447 1.362 . S
C1447 H1437 0.930 . S
C1447 C1440 1.409 . S
C1447 C1446 1.362 . S
H1448 C1454 0.930 . S
H1449 C1457 0.930 . S
H1450 C1458 0.930 . S
H1451 C1459 0.930 . S
H1452 C1462 0.930 . S
H1453 C1463 0.930 . S
C1454 H1448 0.930 . S
C1454 C1455 1.355 . S
C1454 C1456 1.415 . S
C1455 C1454 1.355 . S
C1455 C1457 1.419 . S
C1456 C1454 1.415 . S
C1456 C1461 1.425 . S
C1456 C1463 1.409 . S
C1457 H1449 0.930 . S
C1457 C1455 1.419 . S
C1457 C1458 1.362 . S
C1458 H1450 0.930 . S
C1458 C1457 1.362 . S
C1458 C1461 1.409 . S
C1459 H1451 0.930 . S
C1459 C1460 1.355 . S
C1459 C1461 1.415 . S
C1460 C1459 1.355 . S
C1460 C1462 1.419 . S
C1461 C1456 1.425 . S
C1461 C1458 1.409 . S
C1461 C1459 1.415 . S
C1462 H1452 0.930 . S
C1462 C1460 1.419 . S
C1462 C1463 1.362 . S
C1463 H1453 0.930 . S
C1463 C1456 1.409 . S
C1463 C1462 1.362 . S
H1464 C1470 0.930 . S
H1465 C1473 0.930 . S
H1466 C1474 0.930 . S
H1467 C1475 0.930 . S
H1468 C1478 0.930 . S
H1469 C1479 0.930 . S
C1470 H1464 0.930 . S
C1470 C1471 1.355 . S
C1470 C1472 1.415 . S
C1471 C1470 1.355 . S
C1471 C1473 1.419 . S
C1472 C1470 1.415 . S
C1472 C1477 1.425 . S
C1472 C1479 1.409 . S
C1473 H1465 0.930 . S
C1473 C1471 1.419 . S
C1473 C1474 1.362 . S
C1474 H1466 0.930 . S
C1474 C1473 1.362 . S
C1474 C1477 1.409 . S
C1475 H1467 0.930 . S
C1475 C1476 1.355 . S
C1475 C1477 1.415 . S
C1476 C1475 1.355 . S
C1476 C1478 1.419 . S
C1477 C1472 1.425 . S
C1477 C1474 1.409 . S
C1477 C1475 1.415 . S
C1478 H1468 0.930 . S
C1478 C1476 1.419 . S
C1478 C1479 1.362 . S
C1479 H1469 0.930 . S
C1479 C1472 1.409 . S
C1479 C1478 1.362 . S
H1480 C1486 0.930 . S
H1481 C1489 0.930 . S
H1482 C1490 0.930 . S
H1483 C1491 0.930 . S
H1484 C1494 0.930 . S
H1485 C1495 0.930 . S
C1486 H1480 0.930 . S
C1486 C1487 1.355 . S
C1486 C1488 1.415 . S
C1487 C1486 1.355 . S
C1487 C1489 1.419 . S
C1488 C1486 1.415 . S
C1488 C1493 1.425 . S
C1488 C1495 1.409 . S
C1489 H1481 0.930 . S
C1489 C1487 1.419 . S
C1489 C1490 1.362 . S
C1490 H1482 0.930 . S
C1490 C1489 1.362 . S
C1490 C1493 1.409 . S
C1491 H1483 0.930 . S
C1491 C1492 1.355 . S
C1491 C1493 1.415 . S
C1492 C1491 1.355 . S
C1492 C1494 1.419 . S
C1493 C1488 1.425 . S
C1493 C1490 1.409 . S
C1493 C1491 1.415 . S
C1494 H1484 0.930 . S
C1494 C1492 1.419 . S
C1494 C1495 1.362 . S
C1495 H1485 0.930 . S
C1495 C1488 1.409 . S
C1495 C1494 1.362 . S
H1496 C1502 0.930 . S
H1497 C1505 0.930 . S
H1498 C1506 0.930 . S
H1499 C1507 0.930 . S
H1500 C1510 0.930 . S
H1501 C1511 0.930 . S
C1502 H1496 0.930 . S
C1502 C1503 1.355 . S
C1502 C1504 1.415 . S
C1503 C1502 1.355 . S
C1503 C1505 1.419 . S
C1504 C1502 1.415 . S
C1504 C1509 1.425 . S
C1504 C1511 1.409 . S
C1505 H1497 0.930 . S
C1505 C1503 1.419 . S
C1505 C1506 1.362 . S
C1506 H1498 0.930 . S
C1506 C1505 1.362 . S
C1506 C1509 1.409 . S
C1507 H1499 0.930 . S
C1507 C1508 1.355 . S
C1507 C1509 1.415 . S
C1508 C1507 1.355 . S
C1508 C1510 1.419 . S
C1509 C1504 1.425 . S
C1509 C1506 1.409 . S
C1509 C1507 1.415 . S
C1510 H1500 0.930 . S
C1510 C1508 1.419 . S
C1510 C1511 1.362 . S
C1511 H1501 0.930 . S
C1511 C1504 1.409 . S
C1511 C1510 1.362 . S
H1512 C1518 0.930 . S
H1513 C1521 0.930 . S
H1514 C1522 0.930 . S
H1515 C1523 0.930 . S
H1516 C1526 0.930 . S
H1517 C1527 0.930 . S
C1518 H1512 0.930 . S
C1518 C1519 1.355 . S
C1518 C1520 1.415 . S
C1519 C1518 1.355 . S
C1519 C1521 1.419 . S
C1520 C1518 1.415 . S
C1520 C1525 1.425 . S
C1520 C1527 1.409 . S
C1521 H1513 0.930 . S
C1521 C1519 1.419 . S
C1521 C1522 1.362 . S
C1522 H1514 0.930 . S
C1522 C1521 1.362 . S
C1522 C1525 1.409 . S
C1523 H1515 0.930 . S
C1523 C1524 1.355 . S
C1523 C1525 1.415 . S
C1524 C1523 1.355 . S
C1524 C1526 1.419 . S
C1525 C1520 1.425 . S
C1525 C1522 1.409 . S
C1525 C1523 1.415 . S
C1526 H1516 0.930 . S
C1526 C1524 1.419 . S
C1526 C1527 1.362 . S
C1527 H1517 0.930 . S
C1527 C1520 1.409 . S
C1527 C1526 1.362 . S
H1528 C1534 0.930 . S
H1529 C1537 0.930 . S
H1530 C1538 0.930 . S
H1531 C1539 0.930 . S
H1532 C1542 0.930 . S
H1533 C1543 0.930 . S
C1534 H1528 0.930 . S
C1534 C1535 1.355 . S
C1534 C1536 1.415 . S
C1535 C1534 1.355 . S
C1535 C1537 1.419 . S
C1536 C1534 1.415 . S
C1536 C1541 1.425 . S
C1536 C1543 1.409 . S
C1537 H1529 0.930 . S
C1537 C1535 1.419 . S
C1537 C1538 1.362 . S
C1538 H1530 0.930 . S
C1538 C1537 1.362 . S
C1538 C1541 1.409 . S
C1539 H1531 0.930 . S
C1539 C1540 1.355 . S
C1539 C1541 1.415 . S
C1540 C1539 1.355 . S
C1540 C1542 1.419 . S
C1541 C1536 1.425 . S
C1541 C1538 1.409 . S
C1541 C1539 1.415 . S
C1542 H1532 0.930 . S
C1542 C1540 1.419 . S
C1542 C1543 1.362 . S
C1543 H1533 0.930 . S
C1543 C1536 1.409 . S
C1543 C1542 1.362 . S
H1544 C1550 0.930 . S
H1545 C1553 0.930 . S
H1546 C1554 0.930 . S
H1547 C1555 0.930 . S
H1548 C1558 0.930 . S
H1549 C1559 0.930 . S
C1550 H1544 0.930 . S
C1550 C1551 1.355 . S
C1550 C1552 1.415 . S
C1551 C1550 1.355 . S
C1551 C1553 1.419 . S
C1552 C1550 1.415 . S
C1552 C1557 1.425 . S
C1552 C1559 1.409 . S
C1553 H1545 0.930 . S
C1553 C1551 1.419 . S
C1553 C1554 1.362 . S
C1554 H1546 0.930 . S
C1554 C1553 1.362 . S
C1554 C1557 1.409 . S
C1555 H1547 0.930 . S
C1555 C1556 1.355 . S
C1555 C1557 1.415 . S
C1556 C1555 1.355 . S
C1556 C1558 1.419 . S
C1557 C1552 1.425 . S
C1557 C1554 1.409 . S
C1557 C1555 1.415 . S
C1558 H1548 0.930 . S
C1558 C1556 1.419 . S
C1558 C1559 1.362 . S
C1559 H1549 0.930 . S
C1559 C1552 1.409 . S
C1559 C1558 1.362 . S
H1560 C1566 0.930 . S
H1561 C1569 0.930 . S
H1562 C1570 0.930 . S
H1563 C1571 0.930 . S
H1564 C1574 0.930 . S
H1565 C1575 0.930 . S
C1566 H1560 0.930 . S
C1566 C1567 1.355 . S
C1566 C1568 1.429 . S
C1567 C1566 1.355 . S
C1567 C1569 1.419 . S
C1568 C1566 1.429 . S
C1568 C1573 1.465 1_456 S
C1568 C1575 1.377 1_456 S
C1569 H1561 0.930 . S
C1569 C1567 1.419 . S
C1569 C1570 1.362 . S
C1570 H1562 0.930 . S
C1570 C1569 1.362 . S
C1570 C1573 1.381 1_456 S
C1571 H1563 0.930 . S
C1571 C1572 1.355 . S
C1571 C1573 1.427 . S
C1572 C1571 1.355 . S
C1572 C1574 1.419 . S
C1573 C1568 1.465 1_654 S
C1573 C1570 1.381 1_654 S
C1573 C1571 1.427 . S
C1574 H1564 0.930 . S
C1574 C1572 1.419 . S
C1574 C1575 1.362 . S
C1575 H1565 0.930 . S
C1575 C1568 1.377 1_654 S
C1575 C1574 1.362 . S
H1576 C1582 0.930 . S
H1577 C1585 0.930 . S
H1578 C1586 0.930 . S
H1579 C1587 0.930 . S
H1580 C1590 0.930 . S
H1581 C1591 0.930 . S
C1582 H1576 0.930 . S
C1582 C1583 1.355 . S
C1582 C1584 1.415 . S
C1583 C1582 1.355 . S
C1583 C1585 1.419 . S
C1584 C1582 1.415 . S
C1584 C1589 1.425 1_554 S
C1584 C1591 1.409 1_554 S
C1585 H1577 0.930 . S
C1585 C1583 1.419 . S
C1585 C1586 1.362 . S
C1586 H1578 0.930 . S
C1586 C1585 1.362 . S
C1586 C1589 1.409 1_554 S
C1587 H1579 0.930 . S
C1587 C1588 1.355 . S
C1587 C1589 1.415 . S
C1588 C1587 1.355 . S
C1588 C1590 1.419 . S
C1589 C1584 1.425 1_556 S
C1589 C1586 1.409 1_556 S
C1589 C1587 1.415 . S
C1590 H1580 0.930 . S
C1590 C1588 1.419 . S
C1590 C1591 1.362 . S
C1591 H1581 0.930 . S
C1591 C1584 1.409 1_556 S
C1591 C1590 1.362 . S
H1592 C1598 0.930 . S
H1593 C1601 0.930 . S
H1594 C1602 0.927 1_556 S
H1595 C1603 0.930 . S
H1596 C1606 0.930 . S
H1597 C1607 0.926 1_554 S
C1598 H1592 0.930 . S
C1598 C1599 1.355 1_565 S
C1598 C1600 1.415 . S
C1599 C1598 1.355 1_545 S
C1599 C1601 1.419 . S
C1600 C1598 1.415 . S
C1600 C1605 1.425 1_564 S
C1600 C1607 1.407 1_554 S
C1601 H1593 0.930 . S
C1601 C1599 1.419 . S
C1601 C1602 1.367 . S
C1602 H1594 0.927 1_554 S
C1602 C1601 1.367 . S
C1602 C1605 1.407 1_554 S
C1603 H1595 0.930 . S
C1603 C1604 1.355 1_545 S
C1603 C1605 1.415 . S
C1604 C1603 1.355 1_565 S
C1604 C1606 1.419 . S
C1605 C1600 1.425 1_546 S
C1605 C1602 1.407 1_556 S
C1605 C1603 1.415 . S
C1606 H1596 0.930 . S
C1606 C1604 1.419 . S
C1606 C1607 1.369 . S
C1607 H1597 0.926 1_556 S
C1607 C1600 1.407 1_556 S
C1607 C1606 1.369 . S
H1608 C1614 0.930 . S
H1609 C1617 0.930 . S
H1610 C1618 0.918 1_554 S
H1611 C1619 0.930 . S
H1612 C1622 0.930 . S
H1613 C1623 0.917 1_556 S
C1614 H1608 0.930 . S
C1614 C1615 1.355 1_545 S
C1614 C1616 1.415 . S
C1615 C1614 1.355 1_565 S
C1615 C1617 1.419 . S
C1616 C1614 1.415 . S
C1616 C1621 1.425 1_546 S
C1616 C1623 1.402 1_556 S
C1617 H1609 0.930 . S
C1617 C1615 1.419 . S
C1617 C1618 1.381 . S
C1618 H1610 0.918 1_556 S
C1618 C1617 1.381 . S
C1618 C1621 1.403 1_556 S
C1619 H1611 0.930 . S
C1619 C1620 1.355 1_565 S
C1619 C1621 1.415 . S
C1620 C1619 1.355 1_545 S
C1620 C1622 1.419 . S
C1621 C1616 1.425 1_564 S
C1621 C1618 1.403 1_554 S
C1621 C1619 1.415 . S
C1622 H1612 0.930 . S
C1622 C1620 1.419 . S
C1622 C1623 1.383 . S
C1623 H1613 0.917 1_554 S
C1623 C1616 1.402 1_554 S
C1623 C1622 1.383 . S
H1624 C1630 0.930 . S
H1625 C1633 0.930 . S
H1626 C1634 0.930 . S
H1627 C1635 0.930 . S
H1628 C1638 0.930 . S
H1629 C1639 0.930 . S
C1630 H1624 0.930 . S
C1630 C1631 1.355 . S
C1630 C1632 1.430 . S
C1631 C1630 1.355 . S
C1631 C1633 1.419 . S
C1632 C1630 1.430 . S
C1632 C1637 1.474 1_456 S
C1632 C1639 1.375 1_456 S
C1633 H1625 0.930 . S
C1633 C1631 1.419 . S
C1633 C1634 1.362 . S
C1634 H1626 0.930 . S
C1634 C1633 1.362 . S
C1634 C1637 1.371 1_456 S
C1635 H1627 0.930 . S
C1635 C1636 1.355 . S
C1635 C1637 1.432 . S
C1636 C1635 1.355 . S
C1636 C1638 1.419 . S
C1637 C1632 1.474 1_654 S
C1637 C1634 1.371 1_654 S
C1637 C1635 1.432 . S
C1638 H1628 0.930 . S
C1638 C1636 1.419 . S
C1638 C1639 1.362 . S
C1639 H1629 0.930 . S
C1639 C1632 1.375 1_654 S
C1639 C1638 1.362 . S
H1640 C1646 0.930 . S
H1641 C1649 0.930 . S
H1642 C1650 0.930 . S
H1643 C1651 0.930 . S
H1644 C1654 0.930 . S
H1645 C1655 0.930 . S
C1646 H1640 0.930 . S
C1646 C1647 1.355 . S
C1646 C1648 1.415 . S
C1647 C1646 1.355 . S
C1647 C1649 1.419 . S
C1648 C1646 1.415 . S
C1648 C1653 1.425 1_554 S
C1648 C1655 1.409 1_554 S
C1649 H1641 0.930 . S
C1649 C1647 1.419 . S
C1649 C1650 1.362 . S
C1650 H1642 0.930 . S
C1650 C1649 1.362 . S
C1650 C1653 1.409 1_554 S
C1651 H1643 0.930 . S
C1651 C1652 1.355 . S
C1651 C1653 1.415 . S
C1652 C1651 1.355 . S
C1652 C1654 1.419 . S
C1653 C1648 1.425 1_556 S
C1653 C1650 1.409 1_556 S
C1653 C1651 1.415 . S
C1654 H1644 0.930 . S
C1654 C1652 1.419 . S
C1654 C1655 1.362 . S
C1655 H1645 0.930 . S
C1655 C1648 1.409 1_556 S
C1655 C1654 1.362 . S
C511 C8 1.312 . S
C516 C162 1.321 . S
C527 C22 1.292 . S
C532 C134 1.340 . S
C543 C148 1.321 . S
C548 C36 1.311 . S
C559 C50 1.284 . S
C564 C106 1.348 . S
C575 C120 1.280 . S
C580 C64 1.351 . S
C591 C78 1.332 . S
C596 C92 1.300 . S
C607 C330 1.344 . S
C612 C176 1.289 . S
C623 C190 1.284 . S
C628 C302 1.348 . S
C639 C204 1.350 . S
C644 C316 1.281 . S
C655 C274 1.342 . S
C660 C218 1.290 . S
C671 C232 1.298 . S
C676 C288 1.334 . S
C687 C260 1.282 . S
C692 C246 1.351 . S
C703 C344 1.282 . S
C708 C498 1.351 . S
C719 C470 1.335 . S
C724 C358 1.298 . S
C735 C484 1.349 . S
C740 C372 1.282 . S
C751 C442 1.351 . S
C756 C386 1.282 . S
C767 C456 1.332 . S
C772 C400 1.300 . S
C783 C428 1.336 . S
C788 C414 1.297 . S
C799 C7 1.430 . S
C804 C63 1.426 . S
C815 C77 1.407 . S
C820 C21 1.389 . S
C831 C35 1.407 . S
C836 C49 1.388 . S
C847 C91 1.432 . S
C852 C147 1.403 . S
C863 C105 1.426 . S
C868 C161 1.395 . S
C879 C119 1.400 . S
C884 C133 1.430 . S
C895 C231 1.406 . S
C900 C175 1.433 . S
C911 C245 1.429 . S
C916 C189 1.399 . S
C927 C203 1.388 . S
C932 C217 1.411 . S
C943 C315 1.388 . S
C948 C259 1.407 . S
C959 C329 1.433 . S
C964 C273 1.426 . S
C975 C287 1.433 . S
C980 C301 1.406 . S
C991 C399 1.413 . S
C996 C343 1.434 . S
C1007 C357 1.407 . S
C1012 C413 1.434 . S
C1023 C371 1.395 . S
C1028 C385 1.393 . S
C1039 C483 1.429 . S
C1044 C427 1.399 . S
C1055 C441 1.396 . S
C1060 C497 1.426 . S
C1071 C469 1.398 . S
C1076 C455 1.428 . S
C1087 C415 1.492 . S
C1092 C9 1.492 . S
C1103 C23 1.449 . S
C1108 C387 1.450 . S
C1119 C37 1.456 . S
C1124 C401 1.469 . S
C1135 C51 1.474 . S
C1140 C191 1.487 . S
C1151 C205 1.477 . S
C1156 C65 1.488 . S
C1167 C177 1.449 . S
C1172 C79 1.453 . S
C1183 C93 1.488 . S
C1188 C331 1.493 . S
C1199 C107 1.455 . S
C1204 C303 1.467 . S
C1215 C121 1.473 . S
C1220 C317 1.486 . S
C1231 C443 1.449 . S
C1236 C135 1.450 . S
C1247 C457 1.481 . S
C1252 C149 1.490 . S
C1263 C163 1.459 . S
C1268 C429 1.450 . S
C1279 C359 1.469 . S
C1284 C219 1.456 . S
C1295 C233 1.448 . S
C1300 C373 1.450 . S
C1311 C345 1.460 . S
C1316 C247 1.451 . S
C1327 C499 1.477 . S
C1332 C261 1.488 . S
C1343 C275 1.493 . S
C1348 C471 1.488 . S
C1359 C289 1.460 . S
C1364 C485 1.451 . S
C1375 C6 1.505 . S
C1380 C412 1.497 . S
C1391 C384 1.553 . S
C1396 C20 1.548 . S
C1407 C34 1.528 . S
C1412 C398 1.545 . S
C1423 C188 1.504 . S
C1428 C48 1.521 . S
C1439 C62 1.553 . S
C1444 C202 1.546 . S
C1455 C76 1.531 . S
C1460 C174 1.547 . S
C1471 C328 1.550 . S
C1476 C90 1.536 . S
C1487 C104 1.532 . S
C1492 C300 1.548 . S
C1503 C118 1.500 . S
C1508 C314 1.497 . S
C1519 C132 1.514 . S
C1524 C440 1.534 . S
C1535 C454 1.514 . S
C1540 C146 1.499 . S
C1551 C160 1.497 . S
C1556 C426 1.508 . S
C1567 C356 1.544 . S
C1572 C216 1.527 . S
C1583 C230 1.497 . S
C1588 C370 1.506 . S
C1599 C244 1.541 . S
C1604 C342 1.552 . S
C1615 C496 1.551 . S
C1620 C258 1.552 . S
C1631 C468 1.527 . S
C1636 C272 1.544 . S
C1647 C286 1.506 . S
C1652 C482 1.523 . S
