# Generated by pormake.
# Topology wne, (6)-cn, num edge types: 1
# Building blocks:
#     Node 0, Type 0, BuildingBlock: IZENUY_clean_sbu_0, # of connection points: 6
#     Node 1, Type 0, BuildingBlock: IZENUY_clean_sbu_0, # of connection points: 6
#     Node 2, Type 0, BuildingBlock: IZENUY_clean_sbu_0, # of connection points: 6
#     Node 3, Type 0, BuildingBlock: IZENUY_clean_sbu_0, # of connection points: 6
#     Node 4, Type 0, BuildingBlock: IZENUY_clean_sbu_0, # of connection points: 6
#     Node 5, Type 0, BuildingBlock: IZENUY_clean_sbu_0, # of connection points: 6
#     Node 6, Type 0, BuildingBlock: IZENUY_clean_sbu_0, # of connection points: 6
#     Node 7, Type 0, BuildingBlock: IZENUY_clean_sbu_0, # of connection points: 6
#     Node 8, Type 0, BuildingBlock: IZENUY_clean_sbu_0, # of connection points: 6
#     Node 9, Type 0, BuildingBlock: IZENUY_clean_sbu_0, # of connection points: 6
#     Node 10, Type 0, BuildingBlock: IZENUY_clean_sbu_0, # of connection points: 6
#     Node 11, Type 0, BuildingBlock: IZENUY_clean_sbu_0, # of connection points: 6
#     Node 12, Type 0, BuildingBlock: IZENUY_clean_sbu_0, # of connection points: 6
#     Node 13, Type 0, BuildingBlock: IZENUY_clean_sbu_0, # of connection points: 6
#     Node 14, Type 0, BuildingBlock: IZENUY_clean_sbu_0, # of connection points: 6
#     Node 15, Type 0, BuildingBlock: IZENUY_clean_sbu_0, # of connection points: 6
#     Node 16, Type 0, BuildingBlock: IZENUY_clean_sbu_0, # of connection points: 6
#     Node 17, Type 0, BuildingBlock: IZENUY_clean_sbu_0, # of connection points: 6
#     Node 18, Type 0, BuildingBlock: IZENUY_clean_sbu_0, # of connection points: 6
#     Node 19, Type 0, BuildingBlock: IZENUY_clean_sbu_0, # of connection points: 6
#     Node 20, Type 0, BuildingBlock: IZENUY_clean_sbu_0, # of connection points: 6
#     Node 21, Type 0, BuildingBlock: IZENUY_clean_sbu_0, # of connection points: 6
#     Node 22, Type 0, BuildingBlock: IZENUY_clean_sbu_0, # of connection points: 6
#     Node 23, Type 0, BuildingBlock: IZENUY_clean_sbu_0, # of connection points: 6
#     Node 24, Type 0, BuildingBlock: IZENUY_clean_sbu_0, # of connection points: 6
#     Node 25, Type 0, BuildingBlock: IZENUY_clean_sbu_0, # of connection points: 6
#     Node 26, Type 0, BuildingBlock: IZENUY_clean_sbu_0, # of connection points: 6
#     Node 27, Type 0, BuildingBlock: IZENUY_clean_sbu_0, # of connection points: 6
#     Node 28, Type 0, BuildingBlock: IZENUY_clean_sbu_0, # of connection points: 6
#     Node 29, Type 0, BuildingBlock: IZENUY_clean_sbu_0, # of connection points: 6
#     Node 30, Type 0, BuildingBlock: IZENUY_clean_sbu_0, # of connection points: 6
#     Node 31, Type 0, BuildingBlock: IZENUY_clean_sbu_0, # of connection points: 6
#     Node 32, Type 0, BuildingBlock: IZENUY_clean_sbu_0, # of connection points: 6
#     Node 33, Type 0, BuildingBlock: IZENUY_clean_sbu_0, # of connection points: 6
#     Node 34, Type 0, BuildingBlock: IZENUY_clean_sbu_0, # of connection points: 6
#     Node 35, Type 0, BuildingBlock: IZENUY_clean_sbu_0, # of connection points: 6
#     Edge 36, Type (0, 0), BuildingBlock: XIVTED_clean_linker_0, # of connection points: 2
#     Edge 37, Type (0, 0), BuildingBlock: XIVTED_clean_linker_0, # of connection points: 2
#     Edge 38, Type (0, 0), BuildingBlock: XIVTED_clean_linker_0, # of connection points: 2
#     Edge 39, Type (0, 0), BuildingBlock: XIVTED_clean_linker_0, # of connection points: 2
#     Edge 40, Type (0, 0), BuildingBlock: XIVTED_clean_linker_0, # of connection points: 2
#     Edge 41, Type (0, 0), BuildingBlock: XIVTED_clean_linker_0, # of connection points: 2
#     Edge 42, Type (0, 0), BuildingBlock: XIVTED_clean_linker_0, # of connection points: 2
#     Edge 43, Type (0, 0), BuildingBlock: XIVTED_clean_linker_0, # of connection points: 2
#     Edge 44, Type (0, 0), BuildingBlock: XIVTED_clean_linker_0, # of connection points: 2
#     Edge 45, Type (0, 0), BuildingBlock: XIVTED_clean_linker_0, # of connection points: 2
#     Edge 46, Type (0, 0), BuildingBlock: XIVTED_clean_linker_0, # of connection points: 2
#     Edge 47, Type (0, 0), BuildingBlock: XIVTED_clean_linker_0, # of connection points: 2
#     Edge 48, Type (0, 0), BuildingBlock: XIVTED_clean_linker_0, # of connection points: 2
#     Edge 49, Type (0, 0), BuildingBlock: XIVTED_clean_linker_0, # of connection points: 2
#     Edge 50, Type (0, 0), BuildingBlock: XIVTED_clean_linker_0, # of connection points: 2
#     Edge 51, Type (0, 0), BuildingBlock: XIVTED_clean_linker_0, # of connection points: 2
#     Edge 52, Type (0, 0), BuildingBlock: XIVTED_clean_linker_0, # of connection points: 2
#     Edge 53, Type (0, 0), BuildingBlock: XIVTED_clean_linker_0, # of connection points: 2
#     Edge 54, Type (0, 0), BuildingBlock: XIVTED_clean_linker_0, # of connection points: 2
#     Edge 55, Type (0, 0), BuildingBlock: XIVTED_clean_linker_0, # of connection points: 2
#     Edge 56, Type (0, 0), BuildingBlock: XIVTED_clean_linker_0, # of connection points: 2
#     Edge 57, Type (0, 0), BuildingBlock: XIVTED_clean_linker_0, # of connection points: 2
#     Edge 58, Type (0, 0), BuildingBlock: XIVTED_clean_linker_0, # of connection points: 2
#     Edge 59, Type (0, 0), BuildingBlock: XIVTED_clean_linker_0, # of connection points: 2
#     Edge 60, Type (0, 0), BuildingBlock: XIVTED_clean_linker_0, # of connection points: 2
#     Edge 61, Type (0, 0), BuildingBlock: XIVTED_clean_linker_0, # of connection points: 2
#     Edge 62, Type (0, 0), BuildingBlock: XIVTED_clean_linker_0, # of connection points: 2
#     Edge 63, Type (0, 0), BuildingBlock: XIVTED_clean_linker_0, # of connection points: 2
#     Edge 64, Type (0, 0), BuildingBlock: XIVTED_clean_linker_0, # of connection points: 2
#     Edge 65, Type (0, 0), BuildingBlock: XIVTED_clean_linker_0, # of connection points: 2
#     Edge 66, Type (0, 0), BuildingBlock: XIVTED_clean_linker_0, # of connection points: 2
#     Edge 67, Type (0, 0), BuildingBlock: XIVTED_clean_linker_0, # of connection points: 2
#     Edge 68, Type (0, 0), BuildingBlock: XIVTED_clean_linker_0, # of connection points: 2
#     Edge 69, Type (0, 0), BuildingBlock: XIVTED_clean_linker_0, # of connection points: 2
#     Edge 70, Type (0, 0), BuildingBlock: XIVTED_clean_linker_0, # of connection points: 2
#     Edge 71, Type (0, 0), BuildingBlock: XIVTED_clean_linker_0, # of connection points: 2
#     Edge 72, Type (0, 0), BuildingBlock: XIVTED_clean_linker_0, # of connection points: 2
#     Edge 73, Type (0, 0), BuildingBlock: XIVTED_clean_linker_0, # of connection points: 2
#     Edge 74, Type (0, 0), BuildingBlock: XIVTED_clean_linker_0, # of connection points: 2
#     Edge 75, Type (0, 0), BuildingBlock: XIVTED_clean_linker_0, # of connection points: 2
#     Edge 76, Type (0, 0), BuildingBlock: XIVTED_clean_linker_0, # of connection points: 2
#     Edge 77, Type (0, 0), BuildingBlock: XIVTED_clean_linker_0, # of connection points: 2
#     Edge 78, Type (0, 0), BuildingBlock: XIVTED_clean_linker_0, # of connection points: 2
#     Edge 79, Type (0, 0), BuildingBlock: XIVTED_clean_linker_0, # of connection points: 2
#     Edge 80, Type (0, 0), BuildingBlock: XIVTED_clean_linker_0, # of connection points: 2
#     Edge 81, Type (0, 0), BuildingBlock: XIVTED_clean_linker_0, # of connection points: 2
#     Edge 82, Type (0, 0), BuildingBlock: XIVTED_clean_linker_0, # of connection points: 2
#     Edge 83, Type (0, 0), BuildingBlock: XIVTED_clean_linker_0, # of connection points: 2
#     Edge 84, Type (0, 0), BuildingBlock: XIVTED_clean_linker_0, # of connection points: 2
#     Edge 85, Type (0, 0), BuildingBlock: XIVTED_clean_linker_0, # of connection points: 2
#     Edge 86, Type (0, 0), BuildingBlock: XIVTED_clean_linker_0, # of connection points: 2
#     Edge 87, Type (0, 0), BuildingBlock: XIVTED_clean_linker_0, # of connection points: 2
#     Edge 88, Type (0, 0), BuildingBlock: XIVTED_clean_linker_0, # of connection points: 2
#     Edge 89, Type (0, 0), BuildingBlock: XIVTED_clean_linker_0, # of connection points: 2
#     Edge 90, Type (0, 0), BuildingBlock: XIVTED_clean_linker_0, # of connection points: 2
#     Edge 91, Type (0, 0), BuildingBlock: XIVTED_clean_linker_0, # of connection points: 2
#     Edge 92, Type (0, 0), BuildingBlock: XIVTED_clean_linker_0, # of connection points: 2
#     Edge 93, Type (0, 0), BuildingBlock: XIVTED_clean_linker_0, # of connection points: 2
#     Edge 94, Type (0, 0), BuildingBlock: XIVTED_clean_linker_0, # of connection points: 2
#     Edge 95, Type (0, 0), BuildingBlock: XIVTED_clean_linker_0, # of connection points: 2
#     Edge 96, Type (0, 0), BuildingBlock: XIVTED_clean_linker_0, # of connection points: 2
#     Edge 97, Type (0, 0), BuildingBlock: XIVTED_clean_linker_0, # of connection points: 2
#     Edge 98, Type (0, 0), BuildingBlock: XIVTED_clean_linker_0, # of connection points: 2
#     Edge 99, Type (0, 0), BuildingBlock: XIVTED_clean_linker_0, # of connection points: 2
#     Edge 100, Type (0, 0), BuildingBlock: XIVTED_clean_linker_0, # of connection points: 2
#     Edge 101, Type (0, 0), BuildingBlock: XIVTED_clean_linker_0, # of connection points: 2
#     Edge 102, Type (0, 0), BuildingBlock: XIVTED_clean_linker_0, # of connection points: 2
#     Edge 103, Type (0, 0), BuildingBlock: XIVTED_clean_linker_0, # of connection points: 2
#     Edge 104, Type (0, 0), BuildingBlock: XIVTED_clean_linker_0, # of connection points: 2
#     Edge 105, Type (0, 0), BuildingBlock: XIVTED_clean_linker_0, # of connection points: 2
#     Edge 106, Type (0, 0), BuildingBlock: XIVTED_clean_linker_0, # of connection points: 2
#     Edge 107, Type (0, 0), BuildingBlock: XIVTED_clean_linker_0, # of connection points: 2
#     Edge 108, Type (0, 0), BuildingBlock: XIVTED_clean_linker_0, # of connection points: 2
#     Edge 109, Type (0, 0), BuildingBlock: XIVTED_clean_linker_0, # of connection points: 2
#     Edge 110, Type (0, 0), BuildingBlock: XIVTED_clean_linker_0, # of connection points: 2
#     Edge 111, Type (0, 0), BuildingBlock: XIVTED_clean_linker_0, # of connection points: 2
#     Edge 112, Type (0, 0), BuildingBlock: XIVTED_clean_linker_0, # of connection points: 2
#     Edge 113, Type (0, 0), BuildingBlock: XIVTED_clean_linker_0, # of connection points: 2
#     Edge 114, Type (0, 0), BuildingBlock: XIVTED_clean_linker_0, # of connection points: 2
#     Edge 115, Type (0, 0), BuildingBlock: XIVTED_clean_linker_0, # of connection points: 2
#     Edge 116, Type (0, 0), BuildingBlock: XIVTED_clean_linker_0, # of connection points: 2
#     Edge 117, Type (0, 0), BuildingBlock: XIVTED_clean_linker_0, # of connection points: 2
#     Edge 118, Type (0, 0), BuildingBlock: XIVTED_clean_linker_0, # of connection points: 2
#     Edge 119, Type (0, 0), BuildingBlock: XIVTED_clean_linker_0, # of connection points: 2
#     Edge 120, Type (0, 0), BuildingBlock: XIVTED_clean_linker_0, # of connection points: 2
#     Edge 121, Type (0, 0), BuildingBlock: XIVTED_clean_linker_0, # of connection points: 2
#     Edge 122, Type (0, 0), BuildingBlock: XIVTED_clean_linker_0, # of connection points: 2
#     Edge 123, Type (0, 0), BuildingBlock: XIVTED_clean_linker_0, # of connection points: 2
#     Edge 124, Type (0, 0), BuildingBlock: XIVTED_clean_linker_0, # of connection points: 2
#     Edge 125, Type (0, 0), BuildingBlock: XIVTED_clean_linker_0, # of connection points: 2
#     Edge 126, Type (0, 0), BuildingBlock: XIVTED_clean_linker_0, # of connection points: 2
#     Edge 127, Type (0, 0), BuildingBlock: XIVTED_clean_linker_0, # of connection points: 2
#     Edge 128, Type (0, 0), BuildingBlock: XIVTED_clean_linker_0, # of connection points: 2
#     Edge 129, Type (0, 0), BuildingBlock: XIVTED_clean_linker_0, # of connection points: 2
#     Edge 130, Type (0, 0), BuildingBlock: XIVTED_clean_linker_0, # of connection points: 2
#     Edge 131, Type (0, 0), BuildingBlock: XIVTED_clean_linker_0, # of connection points: 2
#     Edge 132, Type (0, 0), BuildingBlock: XIVTED_clean_linker_0, # of connection points: 2
#     Edge 133, Type (0, 0), BuildingBlock: XIVTED_clean_linker_0, # of connection points: 2
#     Edge 134, Type (0, 0), BuildingBlock: XIVTED_clean_linker_0, # of connection points: 2
#     Edge 135, Type (0, 0), BuildingBlock: XIVTED_clean_linker_0, # of connection points: 2
#     Edge 136, Type (0, 0), BuildingBlock: XIVTED_clean_linker_0, # of connection points: 2
#     Edge 137, Type (0, 0), BuildingBlock: XIVTED_clean_linker_0, # of connection points: 2
#     Edge 138, Type (0, 0), BuildingBlock: XIVTED_clean_linker_0, # of connection points: 2
#     Edge 139, Type (0, 0), BuildingBlock: XIVTED_clean_linker_0, # of connection points: 2
#     Edge 140, Type (0, 0), BuildingBlock: XIVTED_clean_linker_0, # of connection points: 2
#     Edge 141, Type (0, 0), BuildingBlock: XIVTED_clean_linker_0, # of connection points: 2
#     Edge 142, Type (0, 0), BuildingBlock: XIVTED_clean_linker_0, # of connection points: 2
#     Edge 143, Type (0, 0), BuildingBlock: XIVTED_clean_linker_0, # of connection points: 2
# Relax obj value: 0.280
# Max RMSD: 0.272
# Mean RMSD: 0.272
data_MOF--net-wne--node1-IZENUY_clean_sbu_0--edge1-XIVTED_clean_linker_0
_symmetry_space_group_name_H-M    P1
_symmetry_Int_Tables_number       1
_symmetry_cell_setting            triclinic
loop_
_symmetry_equiv_pos_as_xyz
'x, y, z'
_cell_length_a     63.073679
_cell_length_b     63.04108
_cell_length_c     40.523451
_cell_angle_alpha  89.96558
_cell_angle_beta   89.957294
_cell_angle_gamma 119.89172
loop_
_atom_site_label
_atom_site_type_symbol
_atom_site_fract_x
_atom_site_fract_y
_atom_site_fract_z
_atom_type_partial_charge
Fe0 Fe 0.25313 0.21296 0.02758 0.0
Fe1 Fe 0.29303 0.22795 0.07982 0.0
O2 O 0.26386 0.20668 0.06445 0.0
Fe3 Fe 0.24515 0.17928 0.08641 0.0
O4 O 0.24487 0.16088 0.05223 0.0
O5 O 0.23539 0.18024 0.0148 0.0
O6 O 0.27796 0.2144 0.00435 0.0
C7 C 0.30016 0.22881 0.01021 0.0
C8 C 0.21141 0.19364 0.06363 0.0
O9 O 0.3071 0.23848 0.03853 0.0
C10 C 0.26278 0.21218 0.13646 0.0
O11 O 0.2691 0.24677 0.03366 0.0
O12 O 0.28484 0.25128 0.08311 0.0
O13 O 0.21559 0.17678 0.07301 0.0
O14 O 0.22762 0.21206 0.04877 0.0
C15 C 0.29377 0.18691 0.09596 0.0
O16 O 0.28397 0.22159 0.12373 0.0
O17 O 0.24425 0.19627 0.12128 0.0
C18 C 0.27716 0.259 0.06017 0.0
O19 O 0.30299 0.20568 0.07802 0.0
O20 O 0.27133 0.17702 0.10443 0.0
C21 C 0.23694 0.16169 0.02395 0.0
Fe22 Fe 0.8225 0.04653 0.02448 0.0
Fe23 Fe 0.80637 0.06755 0.08059 0.0
O24 O 0.82829 0.06124 0.06315 0.0
Fe25 Fe 0.85557 0.06922 0.08476 0.0
O26 O 0.87421 0.08884 0.05172 0.0
O27 O 0.85529 0.06231 0.01174 0.0
O28 O 0.82091 0.0713 0.00477 0.0
C29 C 0.80585 0.07792 0.01275 0.0
C30 C 0.84173 0.02243 0.05743 0.0
O31 O 0.79509 0.072 0.04048 0.0
C32 C 0.82254 0.05151 0.13491 0.0
O33 O 0.7886 0.028 0.03049 0.0
O34 O 0.78411 0.03566 0.082 0.0
O35 O 0.85829 0.04283 0.06889 0.0
O36 O 0.82376 0.02099 0.0421 0.0
C37 C 0.84708 0.10938 0.09735 0.0
O38 O 0.8132 0.06383 0.12384 0.0
O39 O 0.83862 0.0498 0.11869 0.0
C40 C 0.77654 0.02176 0.05744 0.0
O41 O 0.82779 0.09989 0.08049 0.0
O42 O 0.85731 0.09688 0.10479 0.0
C43 C 0.87384 0.08162 0.02261 0.0
Fe44 Fe 0.9909 0.78444 0.02695 0.0
Fe45 Fe 0.96358 0.74332 0.07712 0.0
O46 O 0.97282 0.77315 0.06289 0.0
Fe47 Fe 0.96433 0.79191 0.08521 0.0
O48 O 0.94729 0.79358 0.05061 0.0
O49 O 0.9766 0.80281 0.0139 0.0
O50 O 0.9681 0.7604 0.00211 0.0
C51 C 0.95941 0.73796 0.00731 0.0
C52 C 1.0129 0.82546 0.06436 0.0
O53 O 0.96096 0.73016 0.03558 0.0
C54 C 0.97719 0.77193 0.13517 0.0
O55 O 1.00809 0.76786 0.03372 0.0
O56 O 0.99463 0.75034 0.08193 0.0
O57 O 0.99188 0.82145 0.07325 0.0
O58 O 1.01511 0.80924 0.04953 0.0
C59 C 0.92235 0.74371 0.09208 0.0
O60 O 0.96509 0.75124 0.12126 0.0
O61 O 0.98115 0.79127 0.12065 0.0
C62 C 1.01099 0.75878 0.06023 0.0
O63 O 0.93176 0.73461 0.07365 0.0
O64 O 0.93527 0.76581 0.10174 0.0
C65 C 0.95655 0.80158 0.02253 0.0
Fe66 Fe 0.18833 0.23706 0.4052 0.0
Fe67 Fe 0.22153 0.24512 0.46457 0.0
O68 O 0.21556 0.25575 0.42736 0.0
Fe69 Fe 0.23699 0.28484 0.4118 0.0
O70 O 0.21483 0.29489 0.41325 0.0
O71 O 0.18635 0.26326 0.38673 0.0
O72 O 0.16972 0.23697 0.43897 0.0
C73 C 0.17028 0.22917 0.46745 0.0
C74 C 0.22165 0.25438 0.35554 0.0
O75 O 0.18872 0.22762 0.47711 0.0
C76 C 0.26758 0.26858 0.43201 0.0
O77 O 0.18557 0.20749 0.41899 0.0
O78 O 0.22054 0.21939 0.44394 0.0
O79 O 0.23082 0.27565 0.36793 0.0
O80 O 0.20555 0.23596 0.37075 0.0
C81 C 0.23742 0.29238 0.48113 0.0
O82 O 0.25535 0.26086 0.45863 0.0
O83 O 0.26016 0.27645 0.40896 0.0
C84 C 0.20233 0.2033 0.42866 0.0
O85 O 0.22305 0.2702 0.48731 0.0
O86 O 0.24738 0.29909 0.45292 0.0
C87 C 0.19614 0.28567 0.39527 0.0
Fe88 Fe 0.792 0.98209 0.46736 0.0
Fe89 Fe 0.75247 0.95777 0.41454 0.0
O90 O 0.78167 0.96571 0.42998 0.0
Fe91 Fe 0.80073 0.9577 0.40754 0.0
O92 O 0.80126 0.93922 0.44111 0.0
O93 O 0.80991 0.96711 0.47966 0.0
O94 O 0.76706 0.95825 0.49 0.0
C95 C 0.74487 0.95049 0.48397 0.0
C96 C 0.83385 1.00544 0.4315 0.0
O97 O 0.73813 0.95366 0.45574 0.0
C98 C 0.78284 0.97316 0.35793 0.0
O99 O 0.77585 0.99985 0.46162 0.0
O100 O 0.76043 0.9892 0.4119 0.0
O101 O 0.83005 0.98473 0.42137 0.0
O102 O 0.81754 1.00713 0.44696 0.0
C103 C 0.75238 0.91652 0.39751 0.0
O104 O 0.76166 0.96097 0.37061 0.0
O105 O 0.80145 0.97597 0.37314 0.0
C106 C 0.76809 1.00438 0.43505 0.0
O107 O 0.7429 0.92566 0.41575 0.0
O108 O 0.7748 0.92938 0.38907 0.0
C109 C 0.80893 0.94744 0.46965 0.0
Fe110 Fe 0.05159 0.81455 0.46506 0.0
Fe111 Fe 0.07096 0.79208 0.41466 0.0
O112 O 0.06637 0.81654 0.42691 0.0
Fe113 Fe 0.07539 0.84216 0.40082 0.0
O114 O 0.08373 0.86405 0.43516 0.0
O115 O 0.07822 0.84228 0.48039 0.0
O116 O 0.06351 0.79689 0.48536 0.0
C117 C 0.08301 0.79646 0.47987 0.0
C118 C 0.03085 0.83477 0.42401 0.0
O119 O 0.09015 0.79674 0.45063 0.0
C120 C 0.05443 0.80218 0.35743 0.0
O121 O 0.02385 0.7868 0.45125 0.0
O122 O 0.04382 0.76837 0.43549 0.0
O123 O 0.04377 0.83656 0.39914 0.0
O124 O 0.0372 0.83209 0.45235 0.0
C125 C 0.11394 0.83365 0.39108 0.0
O126 O 0.05197 0.78613 0.37815 0.0
O127 O 0.06863 0.82467 0.36285 0.0
C128 C 0.02391 0.76795 0.44068 0.0
O129 O 0.09877 0.81102 0.39133 0.0
O130 O 0.1075 0.84911 0.39928 0.0
C131 C 0.08769 0.86275 0.46566 0.0
Fe132 Fe 0.80094 0.84832 0.90368 0.0
Fe133 Fe 0.79281 0.81428 0.96217 0.0
O134 O 0.78226 0.82069 0.92524 0.0
Fe135 Fe 0.75328 0.79936 0.90941 0.0
O136 O 0.7431 0.8214 0.91147 0.0
O137 O 0.77475 0.85039 0.88549 0.0
O138 O 0.8007 0.86637 0.93798 0.0
C139 C 0.80834 0.86543 0.96641 0.0
C140 C 0.78403 0.81582 0.85307 0.0
O141 O 0.81007 0.84696 0.97549 0.0
C142 C 0.76938 0.76846 0.92882 0.0
O143 O 0.83049 0.8511 0.91741 0.0
O144 O 0.81867 0.81574 0.94127 0.0
O145 O 0.76272 0.80615 0.86557 0.0
O146 O 0.80235 0.83172 0.86862 0.0
C147 C 0.74547 0.79799 0.97889 0.0
O148 O 0.77723 0.78051 0.95553 0.0
O149 O 0.76173 0.77624 0.90595 0.0
C150 C 0.83482 0.83434 0.92664 0.0
O151 O 0.76763 0.8123 0.98515 0.0
O152 O 0.73882 0.78842 0.95046 0.0
C153 C 0.75234 0.8404 0.89402 0.0
Fe154 Fe 0.18538 0.95751 0.90501 0.0
Fe155 Fe 0.21902 0.98181 0.96425 0.0
O156 O 0.21257 0.96534 0.92693 0.0
Fe157 Fe 0.23345 0.95699 0.91113 0.0
O158 O 0.21072 0.92505 0.91266 0.0
O159 O 0.18268 0.92907 0.88625 0.0
O160 O 0.16663 0.93916 0.93888 0.0
C161 C 0.16763 0.94745 0.96755 0.0
C162 C 0.21853 0.97287 0.85512 0.0
O163 O 0.18632 0.96723 0.97703 0.0
C164 C 0.26502 1.00344 0.93147 0.0
O165 O 0.18344 0.9847 0.91915 0.0
O166 O 0.21866 1.00699 0.94389 0.0
O167 O 0.22729 0.96033 0.86737 0.0
O168 O 0.20275 0.97567 0.87049 0.0
C169 C 0.23328 0.94894 0.98004 0.0
O170 O 0.25288 0.99913 0.95816 0.0
O171 O 0.25718 0.98829 0.9083 0.0
C172 C 0.20056 1.0054 0.92884 0.0
O173 O 0.21975 0.9577 0.98665 0.0
O174 O 0.24365 0.95262 0.95208 0.0
C175 C 0.19204 0.91602 0.89471 0.0
Fe176 Fe 0.07879 0.28368 0.91315 0.0
Fe177 Fe 0.07955 0.23573 0.90667 0.0
O178 O 0.07101 0.25455 0.92874 0.0
Fe179 Fe 0.05429 0.24405 0.96589 0.0
O180 O 0.07774 0.26909 0.98871 0.0
O181 O 0.08224 0.2979 0.95421 0.0
O182 O 0.11093 0.2936 0.91511 0.0
C183 C 0.1205 0.28438 0.8972 0.0
C184 C 0.03195 0.26763 0.93284 0.0
O185 O 0.10794 0.26197 0.88855 0.0
C186 C 0.03166 0.2022 0.93003 0.0
O187 O 0.07624 0.27463 0.8693 0.0
O188 O 0.06156 0.23488 0.87187 0.0
O189 O 0.03634 0.25995 0.95959 0.0
O190 O 0.04729 0.27535 0.90985 0.0
C191 C 0.08936 0.22772 0.9692 0.0
O192 O 0.05254 0.20622 0.92023 0.0
O193 O 0.02964 0.21839 0.94529 0.0
C194 C 0.06425 0.25346 0.85664 0.0
O195 O 0.09777 0.23533 0.94067 0.0
O196 O 0.06945 0.22643 0.97873 0.0
C197 C 0.08532 0.29124 0.98254 0.0
Fe198 Fe 0.85724 0.79052 0.58088 0.0
Fe199 Fe 0.82287 0.7837 0.52375 0.0
O200 O 0.82915 0.77253 0.56021 0.0
Fe201 Fe 0.8075 0.74377 0.57632 0.0
O202 O 0.82892 0.73272 0.57413 0.0
O203 O 0.85843 0.76406 0.5996 0.0
O204 O 0.87393 0.78855 0.54579 0.0
C205 C 0.87272 0.79598 0.51728 0.0
C206 C 0.82488 0.77503 0.63192 0.0
O207 O 0.85548 0.80017 0.5098 0.0
C208 C 0.77729 0.76101 0.55771 0.0
O209 O 0.86112 0.82055 0.56681 0.0
O210 O 0.82536 0.80976 0.54528 0.0
O211 O 0.81483 0.75354 0.61989 0.0
O212 O 0.84147 0.79301 0.61636 0.0
C213 C 0.80531 0.73619 0.50664 0.0
O214 O 0.78925 0.76895 0.53095 0.0
O215 O 0.78488 0.75285 0.58017 0.0
C216 C 0.84453 0.82556 0.55911 0.0
O217 O 0.81982 0.75831 0.50034 0.0
O218 O 0.79616 0.72943 0.53533 0.0
C219 C 0.84779 0.74152 0.59174 0.0
Fe220 Fe 0.24214 0.06888 0.58327 0.0
Fe221 Fe 0.25209 0.04543 0.52345 0.0
O222 O 0.26162 0.06116 0.56137 0.0
Fe223 Fe 0.29044 0.06872 0.57781 0.0
O224 O 0.30017 0.10085 0.57721 0.0
O225 O 0.26777 0.09703 0.60267 0.0
O226 O 0.24219 0.08777 0.54989 0.0
C227 C 0.23508 0.07994 0.52105 0.0
C228 C 0.25903 0.05269 0.63325 0.0
O229 O 0.23427 0.06041 0.51086 0.0
C230 C 0.27532 0.02257 0.55602 0.0
O231 O 0.21313 0.04189 0.56844 0.0
O232 O 0.22629 0.02004 0.54271 0.0
O233 O 0.28046 0.06499 0.62143 0.0
O234 O 0.24079 0.0502 0.61742 0.0
C235 C 0.29941 0.07714 0.50877 0.0
O236 O 0.26827 0.02771 0.52929 0.0
O237 O 0.28224 0.03718 0.57982 0.0
C238 C 0.20972 0.02137 0.558 0.0
O239 O 0.27739 0.06975 0.50207 0.0
O240 O 0.30553 0.07333 0.53708 0.0
C241 C 0.29037 0.1099 0.59501 0.0
Fe242 Fe 0.98971 0.21492 0.52463 0.0
Fe243 Fe 0.96879 0.23112 0.58079 0.0
O244 O 0.97485 0.20907 0.56323 0.0
Fe245 Fe 0.9665 0.18157 0.58463 0.0
O246 O 0.94693 0.16323 0.55143 0.0
O247 O 0.97377 0.18222 0.51172 0.0
O248 O 0.9652 0.21686 0.50488 0.0
C249 C 0.95871 0.23202 0.5129 0.0
C250 C 1.01328 0.19521 0.55774 0.0
O251 O 0.96456 0.24265 0.5407 0.0
C252 C 0.98435 0.21435 0.63498 0.0
O253 O 1.00844 0.24878 0.53075 0.0
O254 O 1.00073 0.25319 0.58227 0.0
O255 O 0.99274 0.17863 0.56884 0.0
O256 O 1.01499 0.2133 0.54237 0.0
C257 C 0.92674 0.1906 0.59753 0.0
O258 O 0.97235 0.22405 0.62398 0.0
O259 O 0.98584 0.19819 0.61868 0.0
C260 C 1.01469 0.26073 0.55773 0.0
O261 O 0.9364 0.20995 0.58068 0.0
O262 O 0.93898 0.18005 0.60465 0.0
C263 C 0.95427 0.16374 0.52234 0.0
Fe264 Fe 0.9177 0.54951 0.35628 0.0
Fe265 Fe 0.95794 0.56588 0.40846 0.0
O266 O 0.92896 0.54393 0.3932 0.0
Fe267 Fe 0.91086 0.5165 0.41546 0.0
O268 O 0.9113 0.49818 0.38165 0.0
O269 O 0.90098 0.51664 0.34382 0.0
O270 O 0.94282 0.55178 0.33307 0.0
C271 C 0.96496 0.56642 0.33886 0.0
C272 C 0.87606 0.52921 0.39259 0.0
O273 O 0.97191 0.57626 0.3671 0.0
C274 C 0.92749 0.55003 0.46483 0.0
O275 O 0.93264 0.58334 0.362 0.0
O276 O 0.949 0.58872 0.41119 0.0
O277 O 0.88088 0.5128 0.40186 0.0
O278 O 0.8918 0.54776 0.37745 0.0
C279 C 0.95994 0.52564 0.42552 0.0
O280 O 0.9488 0.55966 0.45239 0.0
O281 O 0.9093 0.5335 0.4498 0.0
C282 C 0.94064 0.59581 0.38834 0.0
O283 O 0.96875 0.54425 0.4073 0.0
O284 O 0.93747 0.51532 0.43391 0.0
C285 C 0.9034 0.49862 0.35319 0.0
Fe286 Fe 0.48894 0.3785 0.3595 0.0
Fe287 Fe 0.47445 0.40403 0.41166 0.0
O288 O 0.49551 0.3958 0.3961 0.0
Fe289 Fe 0.52302 0.40446 0.4177 0.0
O290 O 0.54119 0.42239 0.38324 0.0
O291 O 0.52157 0.39338 0.34619 0.0
O292 O 0.48728 0.40168 0.33605 0.0
C293 C 0.47327 0.40999 0.34209 0.0
C294 C 0.50864 0.35636 0.39541 0.0
O295 O 0.46376 0.40753 0.3705 0.0
C296 C 0.4902 0.38927 0.46799 0.0
O297 O 0.45522 0.36078 0.36622 0.0
O298 O 0.45103 0.37268 0.41542 0.0
O299 O 0.52553 0.37742 0.40431 0.0
O300 O 0.49006 0.35406 0.3809 0.0
C301 C 0.51561 0.44559 0.42718 0.0
O302 O 0.48104 0.4014 0.4555 0.0
O303 O 0.50616 0.38669 0.45272 0.0
C304 C 0.44327 0.35695 0.39296 0.0
O305 O 0.49682 0.43611 0.40938 0.0
O306 O 0.52538 0.43292 0.43571 0.0
C307 C 0.54016 0.41349 0.355 0.0
Fe308 Fe 0.66095 0.11963 0.36247 0.0
Fe309 Fe 0.63463 0.07922 0.41382 0.0
O310 O 0.64404 0.10902 0.39938 0.0
Fe311 Fe 0.63691 0.12838 0.42271 0.0
O312 O 0.61887 0.13011 0.38948 0.0
O313 O 0.64656 0.13818 0.35058 0.0
O314 O 0.63718 0.09544 0.33881 0.0
C315 C 0.62857 0.07303 0.34425 0.0
C316 C 0.68475 0.1611 0.39884 0.0
O317 O 0.63078 0.06552 0.3724 0.0
C318 C 0.65129 0.10838 0.47072 0.0
O319 O 0.67794 0.1027 0.36826 0.0
O320 O 0.66559 0.08573 0.41709 0.0
O321 O 0.66421 0.15752 0.40922 0.0
O322 O 0.68613 0.14455 0.38361 0.0
C323 C 0.59437 0.08073 0.43079 0.0
O324 O 0.63733 0.08762 0.45795 0.0
O325 O 0.65514 0.12778 0.45661 0.0
C326 C 0.68138 0.0938 0.39461 0.0
O327 O 0.60298 0.07122 0.41168 0.0
O328 O 0.6081 0.10266 0.44078 0.0
C329 C 0.62711 0.13761 0.3608 0.0
Fe330 Fe 0.88931 0.57655 0.79762 0.0
Fe331 Fe 0.90286 0.61626 0.74527 0.0
O332 O 0.88237 0.58688 0.76091 0.0
Fe333 Fe 0.85501 0.56755 0.73933 0.0
O334 O 0.8366 0.56701 0.77366 0.0
O335 O 0.85672 0.55839 0.811 0.0
O336 O 0.89035 0.60116 0.82089 0.0
C337 C 0.90389 0.62348 0.81474 0.0
C338 C 0.87038 0.53467 0.76208 0.0
O339 O 0.91332 0.63062 0.78632 0.0
C340 C 0.88759 0.58575 0.68896 0.0
O341 O 0.92307 0.59312 0.79085 0.0
O342 O 0.92691 0.60914 0.74163 0.0
O343 O 0.8532 0.53839 0.75302 0.0
O344 O 0.88881 0.55122 0.77645 0.0
C345 C 0.86117 0.61552 0.72935 0.0
O346 O 0.89642 0.60694 0.70152 0.0
O347 O 0.87214 0.567 0.70435 0.0
C348 C 0.93506 0.60161 0.76419 0.0
O349 O 0.87982 0.62517 0.74741 0.0
O350 O 0.8519 0.59313 0.72105 0.0
C351 C 0.83791 0.55956 0.80208 0.0
Fe352 Fe 0.46619 0.29148 0.73787 0.0
Fe353 Fe 0.45854 0.31819 0.79569 0.0
O354 O 0.44757 0.30057 0.75937 0.0
Fe355 Fe 0.41831 0.29248 0.74403 0.0
O356 O 0.40843 0.26032 0.74667 0.0
O357 O 0.43996 0.263 0.72033 0.0
O358 O 0.46643 0.27374 0.77259 0.0
C359 C 0.47431 0.28278 0.80074 0.0
C360 C 0.44847 0.30628 0.68728 0.0
O361 O 0.47611 0.30312 0.80921 0.0
C362 C 0.4344 0.33975 0.76211 0.0
O363 O 0.49583 0.31848 0.75081 0.0
O364 O 0.48402 0.34228 0.77384 0.0
O365 O 0.4273 0.29469 0.70013 0.0
O366 O 0.46705 0.30896 0.7025 0.0
C367 C 0.41154 0.28728 0.81377 0.0
O368 O 0.44271 0.33611 0.7888 0.0
O369 O 0.42635 0.32387 0.73985 0.0
C370 C 0.50016 0.33968 0.7594 0.0
O371 O 0.43381 0.2954 0.81958 0.0
O372 O 0.40436 0.28941 0.7853 0.0
C373 C 0.41755 0.25059 0.72887 0.0
Fe374 Fe 0.72099 0.14949 0.80175 0.0
Fe375 Fe 0.74454 0.13429 0.7479 0.0
O376 O 0.73638 0.15535 0.76362 0.0
Fe377 Fe 0.74326 0.18186 0.74057 0.0
O378 O 0.76216 0.20174 0.77325 0.0
O379 O 0.73592 0.18234 0.81362 0.0
O380 O 0.74579 0.14898 0.82303 0.0
C381 C 0.75332 0.13445 0.81632 0.0
C382 C 0.69607 0.16701 0.76682 0.0
O383 O 0.74866 0.12371 0.78867 0.0
C384 C 0.7276 0.14761 0.69215 0.0
O385 O 0.70342 0.11557 0.79614 0.0
O386 O 0.71313 0.11079 0.74568 0.0
O387 O 0.71623 0.18379 0.75518 0.0
O388 O 0.69519 0.1496 0.78295 0.0
C389 C 0.78514 0.17566 0.7305 0.0
O390 O 0.74145 0.14042 0.70418 0.0
O391 O 0.72427 0.16325 0.70696 0.0
C392 C 0.69838 0.10332 0.76942 0.0
O393 O 0.77648 0.15713 0.74894 0.0
O394 O 0.77165 0.18451 0.72161 0.0
C395 C 0.755 0.20108 0.80254 0.0
Fe396 Fe 0.42315 0.13194 0.24785 0.0
Fe397 Fe 0.4697 0.1818 0.24109 0.0
O398 O 0.45171 0.15446 0.26352 0.0
Fe399 Fe 0.46263 0.14938 0.3011 0.0
O400 O 0.437 0.147 0.32329 0.0
O401 O 0.40883 0.12146 0.28902 0.0
O402 O 0.41157 0.15295 0.24821 0.0
C403 C 0.42033 0.17172 0.23026 0.0
C404 C 0.44111 0.10304 0.26957 0.0
O405 O 0.4429 0.18247 0.22223 0.0
C406 C 0.5046 0.16966 0.26541 0.0
O407 O 0.43251 0.13817 0.20409 0.0
O408 O 0.47181 0.16486 0.20701 0.0
O409 O 0.44803 0.11559 0.29595 0.0
O410 O 0.43305 0.10973 0.24589 0.0
C411 C 0.47669 0.20019 0.30311 0.0
O412 O 0.49968 0.18583 0.25527 0.0
O413 O 0.48893 0.15129 0.28094 0.0
C414 C 0.45388 0.14811 0.19187 0.0
O415 O 0.46884 0.20025 0.27449 0.0
O416 O 0.47903 0.18228 0.31312 0.0
C417 C 0.41507 0.13174 0.3171 0.0
Fe418 Fe 0.90603 0.29374 0.24549 0.0
Fe419 Fe 0.85834 0.29469 0.2377 0.0
O420 O 0.88488 0.30193 0.2608 0.0
Fe421 Fe 0.89066 0.31774 0.29854 0.0
O422 O 0.89125 0.29322 0.32049 0.0
O423 O 0.91653 0.28995 0.28651 0.0
O424 O 0.88329 0.26175 0.24698 0.0
C425 C 0.86476 0.25286 0.2286 0.0
C426 C 0.93679 0.34021 0.2662 0.0
O427 O 0.85588 0.26622 0.21925 0.0
C428 C 0.8728 0.34207 0.26312 0.0
O429 O 0.89994 0.29653 0.20166 0.0
O430 O 0.8769 0.31353 0.2039 0.0
O431 O 0.92454 0.33536 0.2929 0.0
O432 O 0.92945 0.32517 0.24282 0.0
C433 C 0.83919 0.2835 0.29973 0.0
O434 O 0.85616 0.32171 0.25183 0.0
O435 O 0.89043 0.34329 0.27902 0.0
C436 C 0.89271 0.3103 0.18936 0.0
O437 O 0.83857 0.27597 0.27066 0.0
O438 O 0.85784 0.30281 0.31041 0.0
C439 C 0.90571 0.28554 0.31411 0.0
Fe440 Fe 0.7162 0.57483 0.29502 0.0
Fe441 Fe 0.74194 0.61549 0.2438 0.0
O442 O 0.73376 0.58607 0.25865 0.0
Fe443 Fe 0.74276 0.56759 0.23662 0.0
O444 O 0.76046 0.56696 0.27106 0.0
O445 O 0.73119 0.55705 0.30798 0.0
O446 O 0.73901 0.59935 0.31913 0.0
C447 C 0.74701 0.62166 0.31365 0.0
C448 C 0.6946 0.5336 0.25802 0.0
O449 O 0.74491 0.62906 0.28529 0.0
C450 C 0.72826 0.58593 0.1865 0.0
O451 O 0.69835 0.59082 0.28861 0.0
O452 O 0.71059 0.60753 0.23978 0.0
O453 O 0.71574 0.53788 0.24928 0.0
O454 O 0.69208 0.54959 0.27301 0.0
C455 C 0.78371 0.61622 0.22825 0.0
O456 O 0.73982 0.60695 0.19973 0.0
O457 O 0.72533 0.56713 0.20143 0.0
C458 C 0.69473 0.59938 0.26211 0.0
O459 O 0.77404 0.62522 0.24638 0.0
O460 O 0.77125 0.59392 0.21927 0.0
C461 C 0.75147 0.55885 0.2992 0.0
Fe462 Fe 0.48731 0.1179 0.85884 0.0
Fe463 Fe 0.47374 0.0782 0.91117 0.0
O464 O 0.49435 0.10749 0.89538 0.0
Fe465 Fe 0.52193 0.12661 0.91665 0.0
O466 O 0.54001 0.12692 0.88205 0.0
O467 O 0.51984 0.13576 0.84504 0.0
O468 O 0.48579 0.09311 0.83544 0.0
C469 C 0.47203 0.07084 0.84171 0.0
C470 C 0.50684 0.15982 0.89443 0.0
O471 O 0.46278 0.06386 0.87024 0.0
C472 C 0.48971 0.10871 0.96745 0.0
O473 O 0.45359 0.10162 0.8661 0.0
O474 O 0.45001 0.08573 0.91536 0.0
O475 O 0.52396 0.15591 0.90317 0.0
O476 O 0.48827 0.1434 0.88014 0.0
C477 C 0.51534 0.07844 0.92607 0.0
O478 O 0.48066 0.0875 0.95488 0.0
O479 O 0.50515 0.12738 0.95192 0.0
C480 C 0.44179 0.0933 0.89293 0.0
O481 O 0.49649 0.06894 0.9084 0.0
O482 O 0.52482 0.1008 0.93463 0.0
C483 C 0.53856 0.13432 0.85365 0.0
Fe484 Fe 0.91308 0.40348 0.92225 0.0
Fe485 Fe 0.92071 0.37868 0.86204 0.0
O486 O 0.93202 0.39603 0.89846 0.0
Fe487 Fe 0.96203 0.40548 0.91201 0.0
O488 O 0.97014 0.43722 0.90981 0.0
O489 O 0.93913 0.43235 0.93969 0.0
O490 O 0.91106 0.42138 0.88897 0.0
C491 C 0.90321 0.4129 0.8605 0.0
C492 C 0.93355 0.3891 0.96962 0.0
O493 O 0.90222 0.39319 0.85056 0.0
C494 C 0.94679 0.35836 0.89354 0.0
O495 O 0.88363 0.37619 0.90957 0.0
O496 O 0.89607 0.35381 0.88411 0.0
O497 O 0.95418 0.40295 0.95637 0.0
O498 O 0.91402 0.38539 0.95612 0.0
C499 C 0.967 0.41078 0.84213 0.0
O500 O 0.93748 0.36153 0.86744 0.0
O501 O 0.95552 0.37451 0.91547 0.0
C502 C 0.87973 0.35546 0.89949 0.0
O503 O 0.94452 0.40206 0.83747 0.0
O504 O 0.97508 0.40908 0.87011 0.0
C505 C 0.96099 0.44595 0.92934 0.0
Fe506 Fe 0.65909 0.54617 0.85562 0.0
Fe507 Fe 0.63432 0.5612 0.90823 0.0
O508 O 0.64227 0.53995 0.89265 0.0
Fe509 Fe 0.63384 0.51261 0.9147 0.0
O510 O 0.61547 0.49409 0.88082 0.0
O511 O 0.64391 0.51341 0.84285 0.0
O512 O 0.63568 0.54776 0.83267 0.0
C513 C 0.6276 0.56194 0.83878 0.0
C514 C 0.6816 0.52679 0.89153 0.0
O515 O 0.63044 0.57167 0.86709 0.0
C516 C 0.64975 0.54595 0.96435 0.0
O517 O 0.67699 0.58 0.86176 0.0
O518 O 0.66572 0.5846 0.91121 0.0
O519 O 0.66067 0.50993 0.90089 0.0
O520 O 0.68373 0.54513 0.87646 0.0
C521 C 0.5929 0.52018 0.92475 0.0
O522 O 0.63736 0.5549 0.9521 0.0
O523 O 0.65207 0.52982 0.94917 0.0
C524 C 0.68112 0.59223 0.88829 0.0
O525 O 0.60223 0.53887 0.90668 0.0
O526 O 0.60563 0.51047 0.93323 0.0
C527 C 0.62389 0.49492 0.85228 0.0
Fe528 Fe 0.5847 0.88151 0.6964 0.0
Fe529 Fe 0.62461 0.89518 0.74831 0.0
O530 O 0.59502 0.87487 0.7333 0.0
Fe531 Fe 0.57554 0.8481 0.75607 0.0
O532 O 0.57437 0.82874 0.72253 0.0
O533 O 0.56659 0.84877 0.68386 0.0
O534 O 0.60922 0.88233 0.67295 0.0
C535 C 0.63156 0.89599 0.67875 0.0
C536 C 0.5429 0.86332 0.73238 0.0
O537 O 0.63879 0.90538 0.7071 0.0
C538 C 0.59468 0.88211 0.80464 0.0
O539 O 0.6013 0.9153 0.70276 0.0
O540 O 0.61794 0.91954 0.75168 0.0
O541 O 0.54647 0.84624 0.74229 0.0
O542 O 0.55945 0.88136 0.71735 0.0
C543 C 0.62318 0.85335 0.76484 0.0
O544 O 0.61564 0.8891 0.79231 0.0
O545 O 0.57555 0.8665 0.79019 0.0
C546 C 0.60999 0.92742 0.72926 0.0
O547 O 0.63281 0.87166 0.74609 0.0
O548 O 0.60113 0.84497 0.77442 0.0
C549 C 0.56739 0.82991 0.69368 0.0
Fe550 Fe 0.15782 0.71228 0.69088 0.0
Fe551 Fe 0.14287 0.73779 0.74234 0.0
O552 O 0.16388 0.72921 0.72777 0.0
Fe553 Fe 0.19082 0.73728 0.75048 0.0
O554 O 0.20994 0.75524 0.71663 0.0
O555 O 0.19065 0.7268 0.67876 0.0
O556 O 0.15722 0.73605 0.66737 0.0
C557 C 0.1436 0.74483 0.67309 0.0
C558 C 0.17599 0.68916 0.7279 0.0
O559 O 0.1331 0.74165 0.70086 0.0
C560 C 0.15724 0.72272 0.79969 0.0
O561 O 0.12392 0.69497 0.69642 0.0
O562 O 0.11908 0.70655 0.74553 0.0
O563 O 0.19296 0.70996 0.73752 0.0
O564 O 0.15802 0.68738 0.71229 0.0
C565 C 0.18406 0.77888 0.75896 0.0
O566 O 0.14854 0.73498 0.78641 0.0
O567 O 0.17309 0.71956 0.78514 0.0
C568 C 0.11151 0.69105 0.72278 0.0
O569 O 0.16567 0.76973 0.74044 0.0
O570 O 0.19333 0.7659 0.76818 0.0
C571 C 0.2092 0.74671 0.68821 0.0
Fe572 Fe 0.32461 0.45284 0.69233 0.0
Fe573 Fe 0.29943 0.41255 0.74414 0.0
O574 O 0.30831 0.44224 0.72971 0.0
Fe575 Fe 0.30128 0.46148 0.75353 0.0
O576 O 0.28267 0.46305 0.72088 0.0
O577 O 0.3097 0.47102 0.68105 0.0
O578 O 0.30062 0.42836 0.66925 0.0
C579 C 0.29245 0.40603 0.67478 0.0
C580 C 0.34873 0.49446 0.72855 0.0
O581 O 0.29523 0.39877 0.70278 0.0
C582 C 0.31664 0.44177 0.8008 0.0
O583 O 0.34204 0.43628 0.69748 0.0
O584 O 0.33057 0.4195 0.74658 0.0
O585 O 0.32831 0.49075 0.73967 0.0
O586 O 0.34998 0.47806 0.71273 0.0
C587 C 0.25912 0.41353 0.7624 0.0
O588 O 0.30257 0.42099 0.78822 0.0
O589 O 0.32007 0.46109 0.78686 0.0
C590 C 0.34604 0.42768 0.72371 0.0
O591 O 0.26764 0.40415 0.74288 0.0
O592 O 0.27278 0.43556 0.77211 0.0
C593 C 0.29036 0.47037 0.69194 0.0
Fe594 Fe 0.55506 0.91268 0.13289 0.0
Fe595 Fe 0.5694 0.95232 0.08012 0.0
O596 O 0.54853 0.92325 0.09612 0.0
Fe597 Fe 0.52094 0.90445 0.07479 0.0
O598 O 0.50337 0.90586 0.10917 0.0
O599 O 0.52236 0.8958 0.14655 0.0
O600 O 0.55742 0.93797 0.156 0.0
C601 C 0.57144 0.96017 0.14955 0.0
C602 C 0.53449 0.87044 0.09817 0.0
O603 O 0.5805 0.96694 0.12088 0.0
C604 C 0.55407 0.92108 0.02489 0.0
O605 O 0.58873 0.92804 0.12555 0.0
O606 O 0.59289 0.94443 0.07643 0.0
O607 O 0.5177 0.87486 0.08955 0.0
O608 O 0.55335 0.88669 0.11205 0.0
C609 C 0.52839 0.95273 0.06417 0.0
O610 O 0.56231 0.94248 0.03654 0.0
O611 O 0.53792 0.90256 0.04008 0.0
C612 C 0.60068 0.93634 0.09879 0.0
O613 O 0.5469 0.96195 0.08246 0.0
O614 O 0.51898 0.93041 0.05546 0.0
C615 C 0.50474 0.8992 0.13815 0.0
Fe616 Fe 0.12765 0.65279 0.13189 0.0
Fe617 Fe 0.08876 0.62927 0.07825 0.0
O618 O 0.11774 0.63692 0.09416 0.0
Fe619 Fe 0.13705 0.62921 0.07181 0.0
O620 O 0.13724 0.61029 0.10503 0.0
O621 O 0.14559 0.63785 0.14396 0.0
O622 O 0.10266 0.6285 0.15364 0.0
C623 C 0.08055 0.6209 0.1474 0.0
C624 C 0.16972 0.67676 0.09679 0.0
O625 O 0.07404 0.62461 0.11929 0.0
C626 C 0.1199 0.64606 0.02285 0.0
O627 O 0.11131 0.67041 0.12661 0.0
O628 O 0.0968 0.66078 0.07636 0.0
O629 O 0.1662 0.65617 0.08643 0.0
O630 O 0.15322 0.67815 0.11218 0.0
C631 C 0.08878 0.5881 0.06076 0.0
O632 O 0.09848 0.6331 0.03447 0.0
O633 O 0.13816 0.64805 0.03806 0.0
C634 C 0.10388 0.67542 0.10013 0.0
O635 O 0.07911 0.59716 0.07877 0.0
O636 O 0.11125 0.60106 0.0525 0.0
C637 C 0.14454 0.61819 0.13381 0.0
Fe638 Fe 0.41078 0.51452 0.06719 0.0
Fe639 Fe 0.38708 0.4823 0.12797 0.0
O640 O 0.40372 0.48819 0.09087 0.0
Fe641 Fe 0.41289 0.46755 0.07659 0.0
O642 O 0.44462 0.49103 0.07799 0.0
O643 O 0.43935 0.51727 0.04884 0.0
O644 O 0.42914 0.5345 0.10007 0.0
C645 C 0.42118 0.53395 0.12888 0.0
C646 C 0.39578 0.47967 0.01977 0.0
O647 O 0.40169 0.51528 0.13936 0.0
C648 C 0.36627 0.43575 0.09672 0.0
O649 O 0.38366 0.51666 0.08077 0.0
O650 O 0.36182 0.48207 0.10699 0.0
O651 O 0.40979 0.47286 0.03245 0.0
O652 O 0.39225 0.49551 0.03366 0.0
C653 C 0.41943 0.46794 0.14614 0.0
O654 O 0.36994 0.44839 0.1228 0.0
O655 O 0.38185 0.4432 0.07398 0.0
C656 C 0.36315 0.4998 0.09125 0.0
O657 O 0.41096 0.48189 0.15146 0.0
O658 O 0.41706 0.45805 0.11811 0.0
C659 C 0.45307 0.50894 0.05852 0.0
Fe660 Fe 0.12585 0.48263 0.6283 0.0
Fe661 Fe 0.08586 0.46889 0.57643 0.0
O662 O 0.11521 0.48959 0.59189 0.0
Fe663 Fe 0.1342 0.5172 0.57049 0.0
O664 O 0.13454 0.53524 0.60516 0.0
O665 O 0.14376 0.51519 0.64188 0.0
O666 O 0.10123 0.48115 0.65199 0.0
C667 C 0.07892 0.46741 0.64614 0.0
C668 C 0.16767 0.50228 0.5926 0.0
O669 O 0.07168 0.45812 0.61768 0.0
C670 C 0.11631 0.4849 0.51983 0.0
O671 O 0.10963 0.4489 0.62131 0.0
O672 O 0.09337 0.44514 0.57236 0.0
O673 O 0.16362 0.51933 0.5838 0.0
O674 O 0.15123 0.48357 0.60666 0.0
C675 C 0.0859 0.5104 0.5611 0.0
O676 O 0.09509 0.4756 0.53256 0.0
O677 O 0.13495 0.50049 0.53518 0.0
C678 C 0.10124 0.43707 0.59458 0.0
O679 O 0.07652 0.4916 0.57897 0.0
O680 O 0.1083 0.52002 0.5526 0.0
C681 C 0.14226 0.5339 0.63337 0.0
Fe682 Fe 0.52263 0.62882 0.56914 0.0
Fe683 Fe 0.55509 0.65235 0.62967 0.0
O684 O 0.54901 0.63575 0.59254 0.0
Fe685 Fe 0.56951 0.6265 0.57791 0.0
O686 O 0.54596 0.59479 0.57942 0.0
O687 O 0.51977 0.60024 0.55052 0.0
O688 O 0.50276 0.61034 0.6021 0.0
C689 C 0.50341 0.61817 0.63102 0.0
C690 C 0.55733 0.64392 0.52141 0.0
O691 O 0.52213 0.63762 0.64147 0.0
C692 C 0.60142 0.67317 0.59774 0.0
O693 O 0.52052 0.65591 0.58312 0.0
O694 O 0.55521 0.67768 0.60895 0.0
O695 O 0.56404 0.62975 0.53388 0.0
O696 O 0.54158 0.64749 0.53555 0.0
C697 C 0.56941 0.61984 0.64741 0.0
O698 O 0.58898 0.66956 0.62403 0.0
O699 O 0.5939 0.6575 0.57515 0.0
C700 C 0.53732 0.67639 0.59375 0.0
O701 O 0.55561 0.62843 0.65297 0.0
O702 O 0.57916 0.62218 0.61926 0.0
C703 C 0.52803 0.58642 0.56005 0.0
Fe704 Fe 0.412 0.90343 0.57006 0.0
Fe705 Fe 0.38608 0.91127 0.6288 0.0
O706 O 0.40358 0.92224 0.59239 0.0
Fe707 Fe 0.41226 0.95178 0.57755 0.0
O708 O 0.44418 0.96089 0.58047 0.0
O709 O 0.44067 0.9296 0.55255 0.0
O710 O 0.42975 0.90246 0.60425 0.0
C711 C 0.42096 0.89477 0.63264 0.0
C712 C 0.39721 0.92226 0.52077 0.0
O713 O 0.40093 0.8934 0.64173 0.0
C714 C 0.36505 0.93609 0.59558 0.0
O715 O 0.3849 0.87389 0.58303 0.0
O716 O 0.3617 0.88601 0.60707 0.0
O717 O 0.41024 0.94324 0.53356 0.0
O718 O 0.39424 0.90329 0.53529 0.0
C719 C 0.41735 0.95812 0.64716 0.0
O720 O 0.36848 0.92745 0.62215 0.0
O721 O 0.38104 0.94432 0.57339 0.0
C722 C 0.36392 0.86976 0.59231 0.0
O723 O 0.40909 0.93579 0.65283 0.0
O724 O 0.41525 0.96545 0.61882 0.0
C725 C 0.4536 0.95172 0.5622 0.0
Fe726 Fe 0.19182 0.46162 0.24995 0.0
Fe727 Fe 0.15769 0.45337 0.19164 0.0
O728 O 0.16422 0.44286 0.22851 0.0
Fe729 Fe 0.143 0.41387 0.24452 0.0
O730 O 0.16513 0.4038 0.24234 0.0
O731 O 0.19391 0.43547 0.2684 0.0
O732 O 0.20987 0.46136 0.2156 0.0
C733 C 0.20871 0.46876 0.18706 0.0
C734 C 0.15899 0.44473 0.30031 0.0
O735 O 0.19025 0.47054 0.17812 0.0
C736 C 0.1121 0.43004 0.22538 0.0
O737 O 0.19462 0.49116 0.23603 0.0
O738 O 0.1592 0.47927 0.21249 0.0
O739 O 0.14985 0.42337 0.28821 0.0
O740 O 0.17509 0.46304 0.28486 0.0
C741 C 0.14134 0.40602 0.17511 0.0
O742 O 0.12402 0.43784 0.19857 0.0
O743 O 0.11985 0.42223 0.24811 0.0
C744 C 0.17782 0.49545 0.22697 0.0
O745 O 0.15562 0.42816 0.16866 0.0
O746 O 0.13197 0.39939 0.20366 0.0
C747 C 0.18401 0.41304 0.25996 0.0
Fe748 Fe 0.57658 0.7355 0.25278 0.0
Fe749 Fe 0.58523 0.71272 0.19103 0.0
O750 O 0.5958 0.72864 0.22865 0.0
Fe751 Fe 0.62542 0.73724 0.24305 0.0
O752 O 0.63398 0.76912 0.24251 0.0
O753 O 0.60244 0.76373 0.27169 0.0
O754 O 0.57518 0.7545 0.22057 0.0
C755 C 0.5678 0.74709 0.1916 0.0
C756 C 0.59599 0.71951 0.29963 0.0
O757 O 0.56719 0.72789 0.18022 0.0
C758 C 0.61008 0.69074 0.22182 0.0
O759 O 0.54732 0.70871 0.23867 0.0
O760 O 0.55991 0.68721 0.21115 0.0
O761 O 0.61684 0.73361 0.28717 0.0
O762 O 0.57677 0.71631 0.28572 0.0
C763 C 0.63213 0.74477 0.1736 0.0
O764 O 0.60159 0.69506 0.19573 0.0
O765 O 0.61832 0.70603 0.24486 0.0
C766 C 0.54356 0.68837 0.22722 0.0
O767 O 0.60985 0.73687 0.16818 0.0
O768 O 0.6393 0.74183 0.2016 0.0
C769 C 0.62453 0.77744 0.26224 0.0
Fe770 Fe 0.32616 0.88404 0.19206 0.0
Fe771 Fe 0.30221 0.90218 0.24161 0.0
O772 O 0.30988 0.87976 0.22962 0.0
Fe773 Fe 0.30223 0.85406 0.25511 0.0
O774 O 0.29581 0.83312 0.22006 0.0
O775 O 0.30141 0.85547 0.17525 0.0
O776 O 0.31244 0.89996 0.17146 0.0
C777 C 0.29171 0.898 0.17597 0.0
C778 C 0.34834 0.8651 0.23308 0.0
O779 O 0.2834 0.89621 0.20486 0.0
C780 C 0.31841 0.89349 0.30015 0.0
O781 O 0.35212 0.91286 0.20768 0.0
O782 O 0.32849 0.9275 0.22168 0.0
O783 O 0.33449 0.86165 0.25752 0.0
O784 O 0.3426 0.86859 0.2048 0.0
C785 C 0.26107 0.85859 0.26409 0.0
O786 O 0.32047 0.90915 0.279 0.0
O787 O 0.30734 0.87084 0.29364 0.0
C788 C 0.3496 0.9303 0.21863 0.0
O789 O 0.27467 0.88145 0.26392 0.0
O790 O 0.26936 0.84459 0.25611 0.0
C791 C 0.29245 0.83479 0.18943 0.0
H792 H 0.20588 0.11568 0.04537 0.0
H793 H 0.22997 0.04952 0.90054 0.0
H794 H 0.24301 0.15595 0.95783 0.0
H795 H 0.16697 1.01152 0.96352 0.0
H796 H 0.2342 0.08864 0.91831 0.0
H797 H 0.1909 0.07741 0.01486 0.0
C798 C 0.21066 0.11642 0.01953 0.0
C799 C 0.22579 0.13896 0.00409 0.0
C800 C 0.21896 0.07176 0.92744 0.0
C801 C 0.20905 0.09513 0.96909 0.0
C802 C 0.21642 0.04944 0.91708 0.0
C803 C 0.19784 0.02731 0.93017 0.0
C804 C 0.20333 0.07195 0.95198 0.0
C805 C 0.18122 0.02817 0.95235 0.0
C806 C 0.20199 0.09458 0.00208 0.0
C807 C 0.23134 0.13892 0.97056 0.0
N808 N 0.18469 0.05015 0.96314 0.0
N809 N 0.22338 0.11728 0.9543 0.0
H810 H 0.98818 0.18661 0.89932 0.0
H811 H 0.91973 0.09784 0.04562 0.0
H812 H 0.02515 0.16322 0.9668 0.0
H813 H 0.8808 0.09385 0.95637 0.0
H814 H 0.95842 0.12145 0.01624 0.0
H815 H 0.94881 0.15208 0.91699 0.0
C816 C 0.98802 0.17352 0.91682 0.0
C817 C 1.00995 0.17744 0.93114 0.0
C818 C 0.94147 0.11519 0.00285 0.0
C819 C 0.96494 0.13874 0.95286 0.0
C820 C 0.91935 0.10183 0.01968 0.0
C821 C 0.897 0.09401 0.00346 0.0
C822 C 0.94146 0.12146 0.96962 0.0
C823 C 0.89763 0.09953 0.96977 0.0
C824 C 0.96554 0.15397 0.92715 0.0
C825 C 1.00871 0.16051 0.9546 0.0
N826 N 0.91952 0.11334 0.95408 0.0
N827 N 0.98658 0.14222 0.96525 0.0
H828 H 0.87387 0.86974 0.96018 0.0
H829 H 0.94629 0.7951 0.95615 0.0
H830 H 0.85124 0.80571 0.90004 0.0
H831 H 0.9403 0.83219 0.0419 0.0
H832 H 0.92181 0.80889 0.92472 0.0
H833 H 0.9094 0.86668 0.97861 0.0
C834 C 0.87704 0.85574 0.94969 0.0
C835 C 0.85984 0.83811 0.92831 0.0
C836 C 0.9263 0.81434 0.95025 0.0
C837 C 0.89996 0.83417 0.9497 0.0
C838 C 0.94028 0.80658 0.96809 0.0
C839 C 0.94508 0.81237 0.00166 0.0
C840 C 0.91766 0.82847 0.96599 0.0
C841 C 0.93676 0.82713 0.01612 0.0
C842 C 0.89707 0.85378 0.96055 0.0
C843 C 0.8643 0.81981 0.91627 0.0
N844 N 0.92346 0.83464 -0.00175 0.0
N845 N 0.88381 0.81817 0.92731 0.0
H846 H 0.05707 0.22406 0.58686 0.0
H847 H 0.12468 0.19741 0.44573 0.0
H848 H 1.01938 0.16155 0.52316 0.0
H849 H 0.1637 0.23635 0.53289 0.0
H850 H 0.08601 0.18305 0.47502 0.0
H851 H 0.09617 0.22761 0.57054 0.0
C852 C 0.05703 0.21048 0.57042 0.0
C853 C 0.03502 0.19222 0.55674 0.0
C854 C 0.10298 0.19439 0.48803 0.0
C855 C 0.07968 0.19691 0.53663 0.0
C856 C 0.12506 0.20269 0.47126 0.0
C857 C 0.14737 0.21816 0.48692 0.0
C858 C 0.10306 0.20217 0.52051 0.0
C859 C 0.14686 0.22438 0.52003 0.0
C860 C 0.07934 0.21263 0.5609 0.0
C861 C 0.03594 0.17556 0.53475 0.0
N862 N 0.12501 0.21677 0.53557 0.0
N863 N 0.05794 0.17861 0.52483 0.0
H864 H 0.80482 0.93721 0.53631 0.0
H865 H 0.87798 0.86357 0.52187 0.0
H866 H 0.83808 0.93033 0.44703 0.0
H867 H 0.81875 0.84344 0.5904 0.0
H868 H 0.8742 0.89893 0.50458 0.0
H869 H 0.8197 0.91278 0.56563 0.0
C870 C 0.81562 0.93096 0.52309 0.0
C871 C 0.82001 0.93552 0.48917 0.0
C872 C 0.86256 0.88721 0.52417 0.0
C873 C 0.83742 0.90818 0.52245 0.0
C874 C 0.865 0.86729 0.5344 0.0
C875 C 0.84888 0.85082 0.5579 0.0
C876 C 0.84395 0.89069 0.53769 0.0
C877 C 0.83173 0.85596 0.57252 0.0
C878 C 0.82403 0.91701 0.53974 0.0
C879 C 0.83402 0.92694 0.47311 0.0
N880 N 0.82955 0.8753 0.562 0.0
N881 N 0.84218 0.9137 0.48982 0.0
H882 H 0.09759 0.90862 0.44775 0.0
H883 H 0.19654 0.97773 0.58648 0.0
H884 H 0.10995 0.87001 0.52657 0.0
H885 H 0.16934 1.01394 0.52372 0.0
H886 H 0.16285 0.93806 0.56866 0.0
H887 H 0.12216 0.94699 0.47718 0.0
C888 C 0.10544 0.90816 0.47132 0.0
C889 C 0.10184 0.88596 0.48449 0.0
C890 C 0.16375 0.95462 0.55947 0.0
C891 C 0.13023 0.9302 0.5185 0.0
C892 C 0.1828 0.97728 0.56998 0.0
C893 C 0.18541 0.99911 0.55703 0.0
C894 C 0.14754 0.95375 0.53505 0.0
C895 C 0.16764 0.99754 0.53485 0.0
C896 C 0.11936 0.93015 0.48826 0.0
C897 C 0.11228 0.88664 0.51538 0.0
N898 N 0.14972 0.97525 0.52409 0.0
N899 N 0.12625 0.90842 0.53112 0.0
H900 H 0.87662 0.01725 0.02443 0.0
H901 H 0.79982 0.87035 0.03187 0.0
H902 H 0.81174 0.97764 0.08367 0.0
H903 H 0.84001 0.91177 0.9466 0.0
H904 H 0.8131 0.90913 0.06171 0.0
H905 H 0.87289 0.9781 0.00723 0.0
C906 C 0.86223 1.00036 0.03493 0.0
C907 C 0.84464 1.00061 0.05581 0.0
C908 C 0.81932 0.90963 0.03665 0.0
C909 C 0.83993 0.95587 0.0358 0.0
C910 C 0.81185 0.88757 0.01974 0.0
C911 C 0.81872 0.88795 0.98672 0.0
C912 C 0.8342 0.93209 0.0206 0.0
C913 C 0.83416 0.91073 0.97197 0.0
C914 C 0.85989 0.97803 0.02477 0.0
C915 C 0.82584 0.97816 0.06785 0.0
N916 N 0.84135 0.93184 0.98895 0.0
N917 N 0.82386 0.95668 0.05753 0.0
H918 H 0.16376 0.93667 0.03387 0.0
H919 H 1.01697 0.86486 0.03103 0.0
H920 H 0.12067 0.93021 0.948 0.0
H921 H 0.05798 0.84124 0.0904 0.0
H922 H 0.05562 0.89994 0.01202 0.0
H923 H 0.1256 0.91189 0.0653 0.0
C924 C 0.1463 0.93045 0.02187 0.0
C925 C 0.1453 0.93527 0.98827 0.0
C926 C 0.05611 0.8875 0.03004 0.0
C927 C 0.10186 0.90754 0.02401 0.0
C928 C 0.03407 0.86773 0.04127 0.0
C929 C 0.03434 0.85037 0.06263 0.0
C930 C 0.0785 0.89 0.04052 0.0
C931 C 0.05705 0.85444 0.07425 0.0
C932 C 0.12461 0.9163 0.03972 0.0
C933 C 0.12222 0.92667 0.97379 0.0
N934 N 0.07824 0.87373 0.06288 0.0
N935 N 0.10146 0.91326 0.99169 0.0
H936 H 0.17249 0.15912 0.02894 0.0
H937 H 0.10005 0.23377 0.03563 0.0
H938 H 0.19514 0.22219 0.09104 0.0
H939 H 0.10667 0.19824 0.94859 0.0
H940 H 0.12489 0.21998 0.06624 0.0
H941 H 0.13743 0.16298 0.01042 0.0
C942 C 0.16941 0.17305 0.03984 0.0
C943 C 0.18648 0.19015 0.06188 0.0
C944 C 0.12051 0.21491 0.04057 0.0
C945 C 0.14689 0.19506 0.04032 0.0
C946 C 0.10632 0.22269 0.0232 0.0
C947 C 0.10153 0.2173 0.98951 0.0
C948 C 0.12933 0.20113 0.02429 0.0
C949 C 0.11019 0.203 0.97446 0.0
C950 C 0.14966 0.1755 0.0289 0.0
C951 C 0.18215 0.20844 0.07436 0.0
N952 N 0.12362 0.19543 0.9919 0.0
N953 N 0.1629 0.21055 0.06326 0.0
H954 H 1.01787 0.86885 0.43976 0.0
H955 H 0.89062 0.76641 0.50015 0.0
H956 H 0.98842 0.79445 0.40722 0.0
H957 H 0.90147 0.83856 0.48259 0.0
H958 H 0.92709 0.77685 0.46713 0.0
H959 H 0.97639 0.85971 0.45505 0.0
C960 C 1.0025 0.85091 0.43443 0.0
C961 C 1.00646 0.83255 0.42136 0.0
C962 C 0.92133 0.79031 0.46999 0.0
C963 C 0.95927 0.82153 0.44073 0.0
C964 C 0.90056 0.78438 0.48891 0.0
C965 C 0.89299 0.8016 0.49393 0.0
C966 C 0.93523 0.81397 0.45681 0.0
C967 C 0.90661 0.8247 0.47901 0.0
C968 C 0.97888 0.84561 0.44351 0.0
C969 C 0.98605 0.80927 0.41637 0.0
N970 N 0.92738 0.8304 0.46165 0.0
N971 N 0.96346 0.80429 0.4267 0.0
H972 H 0.20413 0.0951 0.54253 0.0
H973 H 0.23118 0.18801 0.39995 0.0
H974 H 0.24205 0.09288 0.45526 0.0
H975 H 0.16808 0.16359 0.4626 0.0
H976 H 0.23448 0.1524 0.41688 0.0
H977 H 0.19004 0.11942 0.51258 0.0
C978 C 0.20927 0.09956 0.51687 0.0
C979 C 0.22438 0.0921 0.50136 0.0
C980 C 0.21942 0.15435 0.42612 0.0
C981 C 0.20864 0.12038 0.46699 0.0
C982 C 0.21741 0.17454 0.41624 0.0
C983 C 0.19908 0.17846 0.42949 0.0
C984 C 0.2035 0.13843 0.45034 0.0
C985 C 0.18216 0.16094 0.45133 0.0
C986 C 0.20111 0.11333 0.49972 0.0
C987 C 0.23039 0.09826 0.46804 0.0
N988 N 0.1851 0.14198 0.46165 0.0
N989 N 0.22292 0.11249 0.45211 0.0
H990 H 0.94271 0.15802 0.45607 0.0
H991 H 0.87321 1.01132 0.46659 0.0
H992 H 0.93717 0.11734 0.5443 0.0
H993 H 0.84896 0.04958 0.4027 0.0
H994 H 0.90757 0.05085 0.48435 0.0
H995 H 0.91819 0.11895 0.42646 0.0
C996 C 0.93668 0.14091 0.46901 0.0
C997 C 0.94171 0.14086 0.50273 0.0
C998 C 0.89516 0.05054 0.46565 0.0
C999 C 0.91435 0.09639 0.46905 0.0
C1000 C 0.87581 0.02799 0.45514 0.0
C1001 C 0.85851 0.02724 0.43279 0.0
C1002 C 0.89726 0.07244 0.45352 0.0
C1003 C 0.86218 0.04945 0.41961 0.0
C1004 C 0.9227 0.11869 0.45219 0.0
C1005 C 0.93342 0.11818 0.51841 0.0
N1006 N 0.88104 0.07116 0.43033 0.0
N1007 N 0.92022 0.09693 0.50149 0.0
H1008 H 0.91232 0.49387 0.2879 0.0
H1009 H 0.83714 0.34701 0.29417 0.0
H1010 H 0.87278 0.45205 0.37328 0.0
H1011 H 0.90368 0.3872 0.2383 0.0
H1012 H 0.84037 0.38598 0.31119 0.0
H1013 H 0.90005 0.45522 0.25824 0.0
C1014 C 0.90064 0.47658 0.30009 0.0
C1015 C 0.89365 0.47606 0.33308 0.0
C1016 C 0.85385 0.38621 0.2944 0.0
C1017 C 0.87928 0.43208 0.29939 0.0
C1018 C 0.85181 0.364 0.28434 0.0
C1019 C 0.87 0.36396 0.26449 0.0
C1020 C 0.87408 0.40847 0.28423 0.0
C1021 C 0.88914 0.38653 0.25331 0.0
C1022 C 0.89375 0.4546 0.28328 0.0
C1023 C 0.8787 0.4532 0.34793 0.0
N1024 N 0.89078 0.40789 0.26345 0.0
N1025 N 0.87201 0.43216 0.33102 0.0
H1026 H 0.65048 0.51772 0.22917 0.0
H1027 H 0.58639 0.42887 0.37572 0.0
H1028 H 0.68967 0.49435 0.29262 0.0
H1029 H 0.54526 0.42447 0.28861 0.0
H1030 H 0.62434 0.45193 0.34446 0.0
H1031 H 0.61182 0.48251 0.24731 0.0
C1032 C 0.65094 0.50452 0.24585 0.0
C1033 C 0.67326 0.50866 0.25904 0.0
C1034 C 0.60706 0.44562 0.33193 0.0
C1035 C 0.62912 0.46915 0.28128 0.0
C1036 C 0.58539 0.43259 0.34982 0.0
C1037 C 0.5627 0.42491 0.33472 0.0
C1038 C 0.60617 0.45172 0.29884 0.0
C1039 C 0.56242 0.43007 0.30109 0.0
C1040 C 0.62888 0.48456 0.25644 0.0
C1041 C 0.67287 0.4915 0.2814 0.0
N1042 N 0.58387 0.44362 0.28439 0.0
N1043 N 0.65112 0.47282 0.29242 0.0
H1044 H 0.52207 0.14309 0.23537 0.0
H1045 H 0.61046 0.16731 0.38265 0.0
H1046 H 0.54274 0.20355 0.30173 0.0
H1047 H 0.61636 0.13252 0.29436 0.0
H1048 H 0.58663 0.1817 0.35217 0.0
H1049 H 0.55771 0.14028 0.2534 0.0
C1050 C 0.53478 0.15647 0.2527 0.0
C1051 C 0.52978 0.17388 0.26666 0.0
C1052 C 0.59342 0.17126 0.33922 0.0
C1053 C 0.56976 0.16992 0.28878 0.0
C1054 C 0.60691 0.16292 0.35667 0.0
C1055 C 0.61526 0.14859 0.34102 0.0
C1056 C 0.58754 0.16468 0.30599 0.0
C1057 C 0.61028 0.14356 0.30728 0.0
C1058 C 0.55497 0.15471 0.26323 0.0
C1059 C 0.54628 0.19024 0.28987 0.0
N1060 N 0.5963 0.15118 0.29101 0.0
N1061 N 0.56523 0.18751 0.30075 0.0
H1062 H 0.83329 0.56866 0.86728 0.0
H1063 H 0.68659 0.49094 0.861 0.0
H1064 H 0.79175 0.52671 0.78327 0.0
H1065 H 0.72621 0.55703 0.91779 0.0
H1066 H 0.72569 0.49415 0.84481 0.0
H1067 H 0.79462 0.5552 0.8975 0.0
C1068 C 0.81607 0.55618 0.85555 0.0
C1069 C 0.81559 0.54889 0.82274 0.0
C1070 C 0.72576 0.50752 0.86164 0.0
C1071 C 0.77161 0.53323 0.85702 0.0
C1072 C 0.70346 0.50548 0.87123 0.0
C1073 C 0.70326 0.52362 0.89098 0.0
C1074 C 0.7479 0.5277 0.87215 0.0
C1075 C 0.72568 0.54257 0.90276 0.0
C1076 C 0.79408 0.5486 0.87267 0.0
C1077 C 0.79284 0.53289 0.80847 0.0
N1078 N 0.74711 0.54425 0.89298 0.0
N1079 N 0.77179 0.52564 0.82562 0.0
H1080 H 0.54252 0.19992 0.86258 0.0
H1081 H 0.4661 0.27056 0.86653 0.0
H1082 H 0.47681 0.1749 0.92 0.0
H1083 H 0.50587 0.26768 0.78177 0.0
H1084 H 0.47945 0.24551 0.89748 0.0
H1085 H 0.53926 0.23554 0.84492 0.0
C1086 C 0.52806 0.20253 0.87263 0.0
C1087 C 0.51004 0.18465 0.893 0.0
C1088 C 0.48558 0.2508 0.87229 0.0
C1089 C 0.50592 0.22491 0.87253 0.0
C1090 C 0.47806 0.26511 0.85474 0.0
C1091 C 0.48477 0.27096 0.82155 0.0
C1092 C 0.50036 0.24288 0.85669 0.0
C1093 C 0.50014 0.26333 0.80726 0.0
C1094 C 0.526 0.22263 0.86221 0.0
C1095 C 0.49119 0.18846 0.90452 0.0
N1096 N 0.50738 0.24969 0.82485 0.0
N1097 N 0.48949 0.20806 0.89395 0.0
H1098 H 0.76647 0.20498 0.86859 0.0
H1099 H 0.84061 0.35183 0.86608 0.0
H1100 H 0.77381 0.24832 0.78248 0.0
H1101 H 0.86383 0.30991 0.92427 0.0
H1102 H 0.80544 0.31345 0.8466 0.0
H1103 H 0.79238 0.24302 0.89954 0.0
C1104 C 0.77315 0.22248 0.85642 0.0
C1105 C 0.76817 0.22354 0.82289 0.0
C1106 C 0.81783 0.3127 0.86444 0.0
C1107 C 0.79721 0.2669 0.85815 0.0
C1108 C 0.83765 0.33458 0.87594 0.0
C1109 C 0.85489 0.33398 0.89718 0.0
C1110 C 0.81513 0.29013 0.87456 0.0
C1111 C 0.8507 0.31109 0.90827 0.0
C1112 C 0.78795 0.24411 0.87401 0.0
C1113 C 0.77741 0.24668 0.80821 0.0
N1114 N 0.83134 0.29006 0.89671 0.0
N1115 N 0.79142 0.2674 0.82589 0.0
H1116 H 0.47128 0.20537 0.36957 0.0
H1117 H 0.54322 0.35208 0.3605 0.0
H1118 H 0.50426 0.24686 0.2811 0.0
H1119 H 0.48042 0.31164 0.42313 0.0
H1120 H 0.53977 0.31326 0.34232 0.0
H1121 H 0.48448 0.2441 0.39949 0.0
C1122 C 0.48164 0.22261 0.35665 0.0
C1123 C 0.48648 0.22297 0.32279 0.0
C1124 C 0.52723 0.31296 0.36084 0.0
C1125 C 0.50206 0.26706 0.3568 0.0
C1126 C 0.52943 0.33509 0.37157 0.0
C1127 C 0.51227 0.335 0.39365 0.0
C1128 C 0.50788 0.29066 0.37255 0.0
C1129 C 0.49419 0.31243 0.40639 0.0
C1130 C 0.4891 0.24463 0.37365 0.0
C1131 C 0.4999 0.24578 0.30711 0.0
N1132 N 0.49233 0.29113 0.39551 0.0
N1133 N 0.50723 0.26686 0.3242 0.0
H1134 H 0.68866 0.19998 0.36447 0.0
H1135 H 0.83533 0.27317 0.36612 0.0
H1136 H 0.73017 0.17689 0.42372 0.0
H1137 H 0.79201 0.26436 0.27957 0.0
H1138 H 0.79731 0.24802 0.39759 0.0
H1139 H 0.72715 0.23472 0.34433 0.0
C1140 C 0.70586 0.2029 0.3744 0.0
C1141 C 0.70632 0.18582 0.39612 0.0
C1142 C 0.79623 0.25196 0.37183 0.0
C1143 C 0.75025 0.22505 0.3728 0.0
C1144 C 0.81784 0.26631 0.35394 0.0
C1145 C 0.81676 0.27064 0.32017 0.0
C1146 C 0.77346 0.24252 0.35599 0.0
C1147 C 0.79364 0.26123 0.30548 0.0
C1148 C 0.72778 0.22246 0.36255 0.0
C1149 C 0.72912 0.18992 0.40733 0.0
N1150 N 0.77295 0.24767 0.32345 0.0
N1151 N 0.7502 0.20903 0.39542 0.0
H1152 H 0.76604 0.5272 0.27889 0.0
H1153 H 0.85966 0.55714 0.42127 0.0
H1154 H 0.76429 0.56644 0.36489 0.0
H1155 H 0.83675 0.49416 0.35896 0.0
H1156 H 0.82348 0.55933 0.40437 0.0
H1157 H 0.79056 0.5136 0.30934 0.0
C1158 C 0.77059 0.53266 0.30443 0.0
C1159 C 0.76323 0.54801 0.31941 0.0
C1160 C 0.82588 0.54453 0.39519 0.0
C1161 C 0.79182 0.53293 0.35432 0.0
C1162 C 0.84641 0.54315 0.40506 0.0
C1163 C 0.85093 0.52519 0.39188 0.0
C1164 C 0.81021 0.52835 0.37105 0.0
C1165 C 0.83365 0.50797 0.37017 0.0
C1166 C 0.7845 0.52481 0.32186 0.0
C1167 C 0.76956 0.55454 0.35253 0.0
N1168 N 0.81434 0.51029 0.35985 0.0
N1169 N 0.78394 0.54738 0.36872 0.0
H1170 H 0.68987 0.20338 0.79351 0.0
H1171 H 0.54327 0.12169 0.79034 0.0
H1172 H 0.65122 0.13389 0.74391 0.0
H1173 H 0.5843 0.16969 0.87024 0.0
H1174 H 0.582 0.13434 0.76074 0.0
H1175 H 0.65037 0.19974 0.80866 0.0
C1176 C 0.67308 0.18787 0.78467 0.0
C1177 C 0.67371 0.16901 0.76721 0.0
C1178 C 0.58241 0.14245 0.78445 0.0
C1179 C 0.62865 0.1645 0.78479 0.0
C1180 C 0.56037 0.13535 0.80119 0.0
C1181 C 0.56072 0.14465 0.83272 0.0
C1182 C 0.60479 0.15928 0.79917 0.0
C1183 C 0.58334 0.16205 0.84599 0.0
C1184 C 0.65058 0.18563 0.79364 0.0
C1185 C 0.65143 0.14891 0.75716 0.0
N1186 N 0.60445 0.16876 0.82923 0.0
N1187 N 0.6298 0.14709 0.76625 0.0
H1188 H 0.89926 0.51874 0.73498 0.0
H1189 H 0.87388 0.43015 0.88198 0.0
H1190 H 0.83625 0.4958 0.79737 0.0
H1191 H 0.90846 0.42334 0.79403 0.0
H1192 H 0.85974 0.45401 0.85089 0.0
H1193 H 0.90248 0.48346 0.75382 0.0
C1194 C 0.88551 0.50566 0.75165 0.0
C1195 C 0.86721 0.50989 0.76424 0.0
C1196 C 0.87008 0.44699 0.83818 0.0
C1197 C 0.87156 0.47031 0.78726 0.0
C1198 C 0.87827 0.4335 0.85596 0.0
C1199 C 0.89244 0.42487 0.84055 0.0
C1200 C 0.87668 0.4526 0.80489 0.0
C1201 C 0.89752 0.42963 0.80676 0.0
C1202 C 0.88747 0.48566 0.7626 0.0
C1203 C 0.8503 0.49287 0.78659 0.0
N1204 N 0.89008 0.44363 0.79017 0.0
N1205 N 0.85322 0.47414 0.79798 0.0
H1206 H 0.61238 0.49048 0.78617 0.0
H1207 H 0.53947 0.3436 0.79277 0.0
H1208 H 0.60719 0.44818 0.87249 0.0
H1209 H 0.51633 0.38456 0.73239 0.0
H1210 H 0.57506 0.38225 0.8106 0.0
H1211 H 0.5871 0.452 0.7557 0.0
C1212 C 0.60635 0.47312 0.79845 0.0
C1213 C 0.61165 0.47243 0.83191 0.0
C1214 C 0.56259 0.38271 0.79263 0.0
C1215 C 0.58332 0.42863 0.79729 0.0
C1216 C 0.54252 0.36066 0.7821 0.0
C1217 C 0.52517 0.36095 0.76079 0.0
C1218 C 0.56539 0.40512 0.78152 0.0
C1219 C 0.52951 0.38362 0.74855 0.0
C1220 C 0.59191 0.45124 0.78115 0.0
C1221 C 0.60328 0.44948 0.84679 0.0
N1222 N 0.54907 0.40482 0.75925 0.0
N1223 N 0.58956 0.42855 0.82944 0.0
H1224 H 0.57508 0.82682 0.62747 0.0
H1225 H 0.50161 0.67998 0.62677 0.0
H1226 H 0.53814 0.78259 0.71249 0.0
H1227 H 0.56744 0.72216 0.57017 0.0
H1228 H 0.5047 0.71828 0.64671 0.0
H1229 H 0.56278 0.78909 0.59558 0.0
C1230 C 0.56399 0.80919 0.63918 0.0
C1231 C 0.55776 0.80776 0.67268 0.0
C1232 C 0.51803 0.71911 0.62911 0.0
C1233 C 0.54328 0.76479 0.63639 0.0
C1234 C 0.51606 0.69729 0.61738 0.0
C1235 C 0.53412 0.69799 0.59649 0.0
C1236 C 0.53804 0.74171 0.61956 0.0
C1237 C 0.55299 0.72092 0.58594 0.0
C1238 C 0.55706 0.78774 0.62107 0.0
C1239 C 0.54351 0.78448 0.68679 0.0
N1240 N 0.55456 0.74189 0.59772 0.0
N1241 N 0.53674 0.76395 0.66862 0.0
H1242 H 0.21335 0.75731 0.62184 0.0
H1243 H 0.36013 0.83069 0.62622 0.0
H1244 H 0.25611 0.76431 0.7083 0.0
H1245 H 0.31882 0.85351 0.56608 0.0
H1246 H 0.32161 0.79535 0.64506 0.0
H1247 H 0.25162 0.78244 0.5908 0.0
C1248 C 0.23077 0.7637 0.63404 0.0
C1249 C 0.23164 0.75893 0.66769 0.0
C1250 C 0.32104 0.80769 0.62693 0.0
C1251 C 0.27521 0.78709 0.63241 0.0
C1252 C 0.343 0.82761 0.61581 0.0
C1253 C 0.34259 0.8448 0.59426 0.0
C1254 C 0.29858 0.80487 0.61613 0.0
C1255 C 0.31985 0.84045 0.58239 0.0
C1256 C 0.25253 0.77806 0.61642 0.0
C1257 C 0.25466 0.76778 0.68246 0.0
N1258 N 0.29872 0.82101 0.59364 0.0
N1259 N 0.27548 0.7814 0.66478 0.0
H1260 H 0.18504 0.47488 0.56449 0.0
H1261 H 0.27133 0.49805 0.7142 0.0
H1262 H 0.20535 0.53564 0.63018 0.0
H1263 H 0.28031 0.4659 0.62525 0.0
H1264 H 0.24706 0.51184 0.68347 0.0
H1265 H 0.22011 0.4716 0.58412 0.0
C1266 C 0.19753 0.48819 0.58206 0.0
C1267 C 0.19262 0.50588 0.59526 0.0
C1268 C 0.2546 0.50208 0.67048 0.0
C1269 C 0.23192 0.50137 0.61922 0.0
C1270 C 0.26834 0.49407 0.68806 0.0
C1271 C 0.27776 0.48071 0.67228 0.0
C1272 C 0.24955 0.49614 0.63695 0.0
C1273 C 0.27342 0.4762 0.63832 0.0
C1274 C 0.2174 0.48616 0.59349 0.0
C1275 C 0.20884 0.52213 0.61883 0.0
N1276 N 0.25922 0.48347 0.62189 0.0
N1277 N 0.22744 0.51914 0.6306 0.0
H1278 H 0.36113 0.83002 0.22316 0.0
H1279 H 0.48707 0.92937 0.1523 0.0
H1280 H 0.39102 0.90652 0.24464 0.0
H1281 H 0.4763 0.85803 0.17595 0.0
H1282 H 0.45124 0.92056 0.18564 0.0
H1283 H 0.40221 0.83824 0.20712 0.0
C1284 C 0.37656 0.84833 0.22602 0.0
C1285 C 0.37281 0.86751 0.23614 0.0
C1286 C 0.45684 0.90691 0.18403 0.0
C1287 C 0.41949 0.87732 0.21588 0.0
C1288 C 0.47726 0.91192 0.16491 0.0
C1289 C 0.4847 0.89445 0.1615 0.0
C1290 C 0.44312 0.88391 0.19914 0.0
C1291 C 0.47125 0.87206 0.17822 0.0
C1292 C 0.39994 0.85308 0.21645 0.0
C1293 C 0.39324 0.89112 0.23784 0.0
N1294 N 0.45081 0.86722 0.19584 0.0
N1295 N 0.41553 0.89543 0.22721 0.0
H1296 H 0.13906 0.60779 0.20028 0.0
H1297 H 0.21239 0.5342 0.19199 0.0
H1298 H 0.17333 0.60025 0.11245 0.0
H1299 H 0.14978 0.51207 0.25495 0.0
H1300 H 0.2089 0.56956 0.17382 0.0
H1301 H 0.15288 0.58289 0.23064 0.0
C1302 C 0.14985 0.60128 0.18761 0.0
C1303 C 0.15486 0.60581 0.15379 0.0
C1304 C 0.19642 0.55738 0.19241 0.0
C1305 C 0.17109 0.57799 0.18827 0.0
C1306 C 0.19865 0.53745 0.20313 0.0
C1307 C 0.18153 0.52045 0.22527 0.0
C1308 C 0.17707 0.56036 0.20417 0.0
C1309 C 0.1635 0.525 0.23814 0.0
C1310 C 0.15766 0.58708 0.20485 0.0
C1311 C 0.16883 0.5969 0.13842 0.0
N1312 N 0.1616 0.54442 0.22723 0.0
N1313 N 0.17644 0.58345 0.15573 0.0
H1314 H 0.5279 0.64354 0.25413 0.0
H1315 H 0.43879 0.58059 0.10744 0.0
H1316 H 0.5047 0.68357 0.19201 0.0
H1317 H 0.43219 0.53908 0.19521 0.0
H1318 H 0.46306 0.61846 0.13837 0.0
H1319 H 0.49278 0.60506 0.23515 0.0
C1320 C 0.51479 0.6442 0.23752 0.0
C1321 C 0.51886 0.66672 0.22509 0.0
C1322 C 0.45602 0.60112 0.15108 0.0
C1323 C 0.47951 0.62284 0.20188 0.0
C1324 C 0.44229 0.57949 0.13338 0.0
C1325 C 0.43355 0.55668 0.14878 0.0
C1326 C 0.46177 0.60006 0.18428 0.0
C1327 C 0.43853 0.55631 0.18248 0.0
C1328 C 0.49489 0.62226 0.22647 0.0
C1329 C 0.50186 0.66661 0.20272 0.0
N1330 N 0.45275 0.57769 0.19899 0.0
N1331 N 0.48324 0.645 0.19127 0.0
H1332 H 0.14565 0.64483 0.75498 0.0
H1333 H 0.17548 0.57983 0.6142 0.0
H1334 H 0.21088 0.68333 0.69615 0.0
H1335 H 0.1335 0.53888 0.69868 0.0
H1336 H 0.18971 0.61781 0.64521 0.0
H1337 H 0.1421 0.60587 0.73797 0.0
C1338 C 0.15979 0.64505 0.73954 0.0
C1339 C 0.17881 0.66728 0.72734 0.0
C1340 C 0.17774 0.60055 0.65727 0.0
C1341 C 0.17417 0.62281 0.70637 0.0
C1342 C 0.16953 0.57888 0.63952 0.0
C1343 C 0.15326 0.55626 0.65393 0.0
C1344 C 0.16906 0.59974 0.68943 0.0
C1345 C 0.14612 0.55599 0.68679 0.0
C1346 C 0.15765 0.62282 0.7296 0.0
C1347 C 0.19624 0.6666 0.70659 0.0
N1348 N 0.15367 0.57748 0.70326 0.0
N1349 N 0.1932 0.6447 0.69615 0.0
H1350 H 0.45685 0.60153 0.6102 0.0
H1351 H 0.39361 0.5096 0.75479 0.0
H1352 H 0.49824 0.60579 0.69697 0.0
H1353 H 0.35373 0.5339 0.69429 0.0
H1354 H 0.43212 0.5449 0.73616 0.0
H1355 H 0.41895 0.57677 0.64098 0.0
C1356 C 0.45792 0.59743 0.63591 0.0
C1357 C 0.48071 0.60567 0.65105 0.0
C1358 C 0.41496 0.54298 0.72775 0.0
C1359 C 0.43727 0.57684 0.68636 0.0
C1360 C 0.39298 0.52297 0.7386 0.0
C1361 C 0.37049 0.51915 0.72655 0.0
C1362 C 0.41444 0.55879 0.70372 0.0
C1363 C 0.37067 0.53651 0.70472 0.0
C1364 C 0.43627 0.5834 0.65353 0.0
C1365 C 0.48103 0.59988 0.68445 0.0
N1366 N 0.39231 0.55527 0.69345 0.0
N1367 N 0.45963 0.58539 0.70084 0.0
H1368 H 0.52805 0.89361 0.75757 0.0
H1369 H 0.43694 0.86402 0.61311 0.0
H1370 H 0.50315 0.8282 0.69968 0.0
H1371 H 0.43239 0.9021 0.69868 0.0
H1372 H 0.46086 0.8504 0.64504 0.0
H1373 H 0.49262 0.89658 0.73889 0.0
C1374 C 0.51454 0.87933 0.74194 0.0
C1375 C 0.51825 0.86042 0.73051 0.0
C1376 C 0.45432 0.86138 0.65708 0.0
C1377 C 0.47846 0.86439 0.7077 0.0
C1378 C 0.44079 0.86928 0.63882 0.0
C1379 C 0.43281 0.88427 0.6533 0.0
C1380 C 0.46061 0.86914 0.68987 0.0
C1381 C 0.43819 0.89049 0.6867 0.0
C1382 C 0.49444 0.88113 0.7311 0.0
C1383 C 0.50065 0.84277 0.70952 0.0
N1384 N 0.45222 0.88332 0.70372 0.0
N1385 N 0.48181 0.8455 0.69816 0.0
H1386 H 0.21204 0.45976 0.12145 0.0
H1387 H 0.35875 0.53599 0.12155 0.0
H1388 H 0.2556 0.49972 0.20532 0.0
H1389 H 0.3178 0.46871 0.06757 0.0
H1390 H 0.32004 0.5328 0.13977 0.0
H1391 H 0.25002 0.4724 0.08988 0.0
C1392 C 0.22957 0.47159 0.13292 0.0
C1393 C 0.2308 0.47857 0.16603 0.0
C1394 C 0.31958 0.51916 0.12309 0.0
C1395 C 0.27397 0.49341 0.13016 0.0
C1396 C 0.34162 0.52117 0.11234 0.0
C1397 C 0.34137 0.50272 0.09279 0.0
C1398 C 0.29723 0.49871 0.11388 0.0
C1399 C 0.31868 0.48342 0.08238 0.0
C1400 C 0.25115 0.47871 0.11501 0.0
C1401 C 0.25392 0.49377 0.17991 0.0
N1402 N 0.29749 0.4818 0.09322 0.0
N1403 N 0.27457 0.50067 0.16196 0.0
H1404 H 0.53984 0.76525 0.21551 0.0
H1405 H 0.56062 0.85272 0.06739 0.0
H1406 H 0.57165 0.75796 0.12509 0.0
H1407 H 0.50201 0.83286 0.13686 0.0
H1408 H 0.5641 0.81741 0.0855 0.0
H1409 H 0.52548 0.78962 0.18632 0.0
C1410 C 0.54363 0.76864 0.18936 0.0
C1411 C 0.55709 0.75968 0.17273 0.0
C1412 C 0.54993 0.82027 0.09606 0.0
C1413 C 0.54096 0.78801 0.13913 0.0
C1414 C 0.54779 0.84027 0.08549 0.0
C1415 C 0.53068 0.84538 0.10021 0.0
C1416 C 0.53543 0.80578 0.12237 0.0
C1417 C 0.51506 0.82922 0.12438 0.0
C1418 C 0.53529 0.78244 0.17266 0.0
C1419 C 0.56131 0.7645 0.1388 0.0
N1420 N 0.51815 0.81046 0.13521 0.0
N1421 N 0.55369 0.77875 0.12322 0.0
H1422 H 0.28347 0.78899 0.20611 0.0
H1423 H 0.18297 0.72059 0.06883 0.0
H1424 H 0.27016 0.82785 0.12861 0.0
H1425 H 0.21027 0.68387 0.13042 0.0
H1426 H 0.21704 0.7601 0.0864 0.0
H1427 H 0.2587 0.75073 0.17647 0.0
C1428 C 0.27543 0.78953 0.18273 0.0
C1429 C 0.27878 0.81176 0.17004 0.0
C1430 C 0.21608 0.74346 0.09539 0.0
C1431 C 0.2501 0.76765 0.13584 0.0
C1432 C 0.19679 0.72089 0.08503 0.0
C1433 C 0.19411 0.69896 0.09771 0.0
C1434 C 0.23246 0.74415 0.11941 0.0
C1435 C 0.21201 0.70035 0.11949 0.0
C1436 C 0.26136 0.76761 0.1657 0.0
C1437 C 0.26806 0.8112 0.13942 0.0
N1438 N 0.23017 0.72256 0.13013 0.0
N1439 N 0.25395 0.78949 0.12361 0.0
H1440 H 0.34058 0.20016 0.078 0.0
H1441 H 0.37295 0.15677 0.24749 0.0
H1442 H 0.28751 0.16199 0.15472 0.0
H1443 H 0.42634 0.197 0.17194 0.0
H1444 H 0.34168 0.15871 0.21425 0.0
H1445 H 0.37166 0.19787 0.1112 0.0
C1446 C 0.33531 0.19093 0.10166 0.0
C1447 C 0.31122 0.18122 0.11345 0.0
C1448 C 0.36024 0.16729 0.20497 0.0
C1449 C 0.34721 0.17896 0.15215 0.0
C1450 C 0.37823 0.16635 0.22407 0.0
C1451 C 0.40249 0.17678 0.21263 0.0
C1452 C 0.3663 0.17865 0.17389 0.0
C1453 C 0.40803 0.18887 0.182 0.0
C1454 C 0.35321 0.18981 0.12075 0.0
C1455 C 0.30569 0.16955 0.14439 0.0
N1456 N 0.39009 0.18931 0.16366 0.0
N1457 N 0.32355 0.16891 0.1627 0.0
H1458 H 0.83672 0.14451 0.07731 0.0
H1459 H 0.87461 0.21734 0.24891 0.0
H1460 H 0.87042 0.12686 0.15719 0.0
H1461 H 0.8424 0.23594 0.1681 0.0
H1462 H 0.87221 0.18362 0.21639 0.0
H1463 H 0.83937 0.17838 0.10972 0.0
C1464 C 0.84508 0.148 0.10152 0.0
C1465 C 0.8534 0.13273 0.11445 0.0
C1466 C 0.86547 0.19491 0.20579 0.0
C1467 C 0.856 0.17144 0.15223 0.0
C1468 C 0.86664 0.21411 0.22447 0.0
C1469 C 0.85866 0.22961 0.21133 0.0
C1470 C 0.85631 0.19103 0.17347 0.0
C1471 C 0.84857 0.22442 0.17946 0.0
C1472 C 0.8464 0.16729 0.12014 0.0
C1473 C 0.86398 0.13821 0.14602 0.0
N1474 N 0.84786 0.20573 0.16158 0.0
N1475 N 0.86478 0.15696 0.1639 0.0
H1476 H 0.81742 0.66276 0.24675 0.0
H1477 H 0.88826 0.69736 0.07331 0.0
H1478 H 0.80133 0.61061 0.16841 0.0
H1479 H 0.90496 0.7493 0.15212 0.0
H1480 H 0.85573 0.6658 0.10709 0.0
H1481 H 0.84992 0.69434 0.21296 0.0
C1482 C 0.82098 0.65781 0.22262 0.0
C1483 C 0.80653 0.63385 0.21052 0.0
C1484 C 0.86633 0.68413 0.11696 0.0
C1485 C 0.84363 0.67035 0.17118 0.0
C1486 C 0.88482 0.70229 0.09754 0.0
C1487 C 0.89947 0.72617 0.10977 0.0
C1488 C 0.86233 0.68969 0.1491 0.0
C1489 C 0.89409 0.73129 0.14145 0.0
C1490 C 0.83946 0.67597 0.2032 0.0
C1491 C 0.81206 0.62868 0.17897 0.0
N1492 N 0.87613 0.71319 0.16005 0.0
N1493 N 0.83 0.64679 0.16034 0.0
H1494 H 0.17217 0.36688 0.24093 0.0
H1495 H 0.20786 0.3318 0.41428 0.0
H1496 H 0.20693 0.41862 0.32 0.0
H1497 H 0.17343 0.28013 0.33505 0.0
H1498 H 0.20673 0.36339 0.38072 0.0
H1499 H 0.17334 0.33529 0.27445 0.0
C1500 C 0.18046 0.37174 0.26518 0.0
C1501 C 0.18951 0.39557 0.27757 0.0
C1502 C 0.19922 0.34512 0.3707 0.0
C1503 C 0.1904 0.35905 0.31659 0.0
C1504 C 0.19966 0.32695 0.38999 0.0
C1505 C 0.19069 0.30314 0.37757 0.0
C1506 C 0.18984 0.33966 0.3385 0.0
C1507 C 0.18035 0.29809 0.34584 0.0
C1508 C 0.18092 0.35357 0.28443 0.0
C1509 C 0.19995 0.40064 0.30923 0.0
N1510 N 0.1804 0.31622 0.32735 0.0
N1511 N 0.19992 0.38251 0.3277 0.0
H1512 H 0.6181 0.79324 0.32314 0.0
H1513 H 0.75908 0.89944 0.33784 0.0
H1514 H 0.67097 0.8123 0.24484 0.0
H1515 H 0.70571 0.88228 0.41494 0.0
H1516 H 0.72745 0.86647 0.30428 0.0
H1517 H 0.64973 0.82593 0.35703 0.0
C1518 C 0.63617 0.80457 0.31278 0.0
C1519 C 0.64175 0.79992 0.28097 0.0
C1520 C 0.72271 0.86978 0.32868 0.0
C1521 C 0.67837 0.8371 0.32007 0.0
C1522 C 0.74089 0.88844 0.34804 0.0
C1523 C 0.73516 0.89373 0.37937 0.0
C1524 C 0.69857 0.85622 0.34065 0.0
C1525 C 0.71106 0.87898 0.39094 0.0
C1526 C 0.65435 0.82308 0.33232 0.0
C1527 C 0.66572 0.81509 0.2692 0.0
N1528 N 0.69372 0.8611 0.37161 0.0
N1529 N 0.68308 0.83279 0.28872 0.0
H1530 H 0.2295 0.87397 0.24747 0.0
H1531 H 0.14215 0.81349 0.40438 0.0
H1532 H 0.23742 0.82533 0.31446 0.0
H1533 H 0.13995 0.86813 0.34294 0.0
H1534 H 0.17648 0.81707 0.37187 0.0
H1535 H 0.19491 0.86966 0.27996 0.0
C1536 C 0.22343 0.86173 0.26854 0.0
C1537 C 0.23617 0.84965 0.27789 0.0
C1538 C 0.16879 0.82855 0.36567 0.0
C1539 C 0.19692 0.84539 0.31626 0.0
C1540 C 0.14934 0.82674 0.38448 0.0
C1541 C 0.13833 0.8408 0.37671 0.0
C1542 C 0.17725 0.8443 0.33831 0.0
C1543 C 0.14814 0.85731 0.35027 0.0
C1544 C 0.20388 0.85959 0.2874 0.0
C1545 C 0.22782 0.8345 0.30586 0.0
N1546 N 0.16686 0.85842 0.33186 0.0
N1547 N 0.20887 0.83296 0.32419 0.0
H1548 H 0.75824 0.86465 0.83503 0.0
H1549 H 0.61735 0.83098 0.82548 0.0
H1550 H 0.70602 0.82794 0.91317 0.0
H1551 H 0.66874 0.86353 0.74532 0.0
H1552 H 0.64935 0.82943 0.85804 0.0
H1553 H 0.7261 0.86618 0.80285 0.0
C1554 C 0.7402 0.8574 0.84574 0.0
C1555 C 0.73491 0.84616 0.87691 0.0
C1556 C 0.65354 0.8367 0.8332 0.0
C1557 C 0.69775 0.84729 0.83983 0.0
C1558 C 0.63514 0.83729 0.81443 0.0
C1559 C 0.64026 0.84738 0.78253 0.0
C1560 C 0.67728 0.84632 0.82005 0.0
C1561 C 0.6639 0.85565 0.7698 0.0
C1562 C 0.72172 0.85798 0.82717 0.0
C1563 C 0.71098 0.83673 0.88923 0.0
N1564 N 0.68148 0.85509 0.7886 0.0
N1565 N 0.69334 0.83738 0.87067 0.0
H1566 H 0.17432 0.81442 0.7385 0.0
H1567 H 0.20073 0.87986 0.91522 0.0
H1568 H 0.20391 0.79438 0.82096 0.0
H1569 H 0.17235 0.90098 0.83248 0.0
H1570 H 0.20066 0.84769 0.88163 0.0
H1571 H 0.17414 0.84653 0.77202 0.0
C1572 C 0.18124 0.81707 0.76351 0.0
C1573 C 0.18923 0.80163 0.77682 0.0
C1574 C 0.1942 0.85914 0.87083 0.0
C1575 C 0.18846 0.8382 0.81582 0.0
C1576 C 0.194 0.87742 0.89012 0.0
C1577 C 0.18645 0.89319 0.87676 0.0
C1578 C 0.18693 0.85653 0.83766 0.0
C1579 C 0.17806 0.88914 0.84401 0.0
C1580 C 0.1809 0.83531 0.78276 0.0
C1581 C 0.19785 0.80594 0.80946 0.0
N1582 N 0.17873 0.87137 0.82553 0.0
N1583 N 0.19703 0.82364 0.82788 0.0
H1584 H 0.15552 0.32977 0.91766 0.0
H1585 H 0.22302 0.36866 0.74198 0.0
H1586 H 0.13705 0.27995 0.83581 0.0
H1587 H 0.24419 0.4177 0.82514 0.0
H1588 H 0.19066 0.33662 0.77537 0.0
H1589 H 0.18818 0.3619 0.88462 0.0
C1590 C 0.15861 0.32542 0.89289 0.0
C1591 C 0.14345 0.30196 0.87963 0.0
C1592 C 0.20219 0.35441 0.78632 0.0
C1593 C 0.18071 0.33915 0.84114 0.0
C1594 C 0.2206 0.37287 0.76714 0.0
C1595 C 0.23643 0.39608 0.78063 0.0
C1596 C 0.19943 0.35896 0.8195 0.0
C1597 C 0.23235 0.40027 0.81348 0.0
C1598 C 0.17719 0.34391 0.87392 0.0
C1599 C 0.14836 0.29758 0.84729 0.0
N1600 N 0.2144 0.38187 0.83181 0.0
N1601 N 0.16638 0.31602 0.82911 0.0
H1602 H 0.87512 0.74924 0.6482 0.0
H1603 H 0.83497 0.60728 0.67151 0.0
H1604 H 0.83071 0.6931 0.57796 0.0
H1605 H 0.87527 0.66307 0.7442 0.0
H1606 H 0.83283 0.63815 0.63697 0.0
H1607 H 0.87673 0.71808 0.68257 0.0
C1608 C 0.86609 0.73048 0.63966 0.0
C1609 C 0.85277 0.7239 0.61004 0.0
C1610 C 0.84196 0.64358 0.66062 0.0
C1611 C 0.85409 0.68787 0.64975 0.0
C1612 C 0.84293 0.62586 0.68056 0.0
C1613 C 0.85532 0.63248 0.71091 0.0
C1614 C 0.8535 0.66816 0.67101 0.0
C1615 C 0.86558 0.65703 0.72099 0.0
C1616 C 0.86677 0.71259 0.65951 0.0
C1617 C 0.84117 0.69911 0.60059 0.0
N1618 N 0.86458 0.67391 0.70108 0.0
N1619 N 0.84201 0.68207 0.62037 0.0
H1620 H 0.28294 0.12731 0.65408 0.0
H1621 H 0.42451 0.23164 0.67107 0.0
H1622 H 0.33717 0.14401 0.57837 0.0
H1623 H 0.37006 0.21789 0.74532 0.0
H1624 H 0.39297 0.19844 0.6378 0.0
H1625 H 0.31424 0.16056 0.68779 0.0
C1626 C 0.30124 0.13825 0.64421 0.0
C1627 C 0.30731 0.13276 0.61323 0.0
C1628 C 0.38795 0.20255 0.66151 0.0
C1629 C 0.34351 0.17051 0.65213 0.0
C1630 C 0.40608 0.22136 0.68073 0.0
C1631 C 0.40006 0.22768 0.71116 0.0
C1632 C 0.36355 0.18985 0.67271 0.0
C1633 C 0.37564 0.21379 0.72203 0.0
C1634 C 0.31922 0.15706 0.66366 0.0
C1635 C 0.33155 0.14743 0.60209 0.0
N1636 N 0.35835 0.19571 0.70284 0.0
N1637 N 0.34867 0.16541 0.62151 0.0
H1638 H 0.90866 0.16524 0.65592 0.0
H1639 H 0.80187 0.19945 0.67076 0.0
H1640 H 0.89294 0.20366 0.58035 0.0
H1641 H 0.82007 0.16426 0.74819 0.0
H1642 H 0.83531 0.20151 0.63735 0.0
H1643 H 0.87507 0.16309 0.68911 0.0
C1644 C 0.89786 0.17276 0.64598 0.0
C1645 C 0.90371 0.18464 0.61525 0.0
C1646 C 0.83211 0.19352 0.66178 0.0
C1647 C 0.86554 0.1828 0.65349 0.0
C1648 C 0.81318 0.19263 0.68105 0.0
C1649 C 0.80806 0.18168 0.71241 0.0
C1650 C 0.84605 0.18336 0.67388 0.0
C1651 C 0.82322 0.17281 0.72413 0.0
C1652 C 0.87885 0.17182 0.66513 0.0
C1653 C 0.8892 0.19438 0.60394 0.0
N1654 N 0.84132 0.1737 0.70487 0.0
N1655 N 0.87097 0.19336 0.62305 0.0
H1656 H 1.00724 0.54011 0.40835 0.0
H1657 H 0.03924 0.49777 0.57902 0.0
H1658 H 0.95382 0.50081 0.48425 0.0
H1659 H 0.09236 0.535 0.50203 0.0
H1660 H 1.0083 0.50008 0.54552 0.0
H1661 H 0.03842 0.53823 0.44193 0.0
C1662 C 1.00193 0.53074 0.43191 0.0
C1663 C 0.97769 0.52055 0.44334 0.0
C1664 C 0.02674 0.50794 0.53598 0.0
C1665 C 1.01376 0.51878 0.48248 0.0
C1666 C 0.04456 0.50681 0.55525 0.0
C1667 C 0.06861 0.51624 0.54347 0.0
C1668 C 0.03278 0.51851 0.50441 0.0
C1669 C 0.07421 0.52767 0.51236 0.0
C1670 C 1.01986 0.52984 0.45121 0.0
C1671 C 0.97211 0.50874 0.47418 0.0
N1672 N 0.05643 0.52832 0.49388 0.0
N1673 N 0.98999 0.50834 0.4927 0.0
H1674 H 0.50549 0.57024 0.49946 0.0
H1675 H 0.5401 0.46358 0.48609 0.0
H1676 H 0.53924 0.55134 0.578 0.0
H1677 H 0.50259 0.47942 0.40942 0.0
H1678 H 0.54166 0.49696 0.51906 0.0
H1679 H 0.50406 0.53707 0.46605 0.0
C1680 C 0.51213 0.55885 0.50998 0.0
C1681 C 0.52247 0.56368 0.5417 0.0
C1682 C 0.53327 0.49327 0.49488 0.0
C1683 C 0.5215 0.52598 0.50317 0.0
C1684 C 0.53266 0.47437 0.47585 0.0
C1685 C 0.52122 0.46859 0.44483 0.0
C1686 C 0.5224 0.50659 0.48288 0.0
C1687 C 0.51156 0.4831 0.43319 0.0
C1688 C 0.51159 0.54006 0.49072 0.0
C1689 C 0.53114 0.54842 0.5537 0.0
N1690 N 0.51225 0.50124 0.4522 0.0
N1691 N 0.5306 0.53047 0.53444 0.0
H1692 H 0.55795 0.03647 0.40922 0.0
H1693 H 0.48885 0.99669 0.58368 0.0
H1694 H 0.57899 0.08473 0.49323 0.0
H1695 H 0.47039 0.94766 0.50087 0.0
H1696 H 0.52202 0.02889 0.55138 0.0
H1697 H 0.52493 1.00443 0.4418 0.0
C1698 C 0.55536 0.04051 0.4344 0.0
C1699 C 0.57134 0.06347 0.44839 0.0
C1700 C 0.51091 1.01105 0.54031 0.0
C1701 C 0.53362 0.02638 0.48631 0.0
C1702 C 0.49204 0.99252 0.55886 0.0
C1703 C 0.47674 0.96929 0.54508 0.0
C1704 C 0.51457 1.00654 0.50747 0.0
C1705 C 0.48179 0.96513 0.51271 0.0
C1706 C 0.53658 0.02206 0.45311 0.0
C1707 C 0.56704 0.06748 0.48122 0.0
N1708 N 0.50009 0.9836 0.49496 0.0
N1709 N 0.54874 0.04909 0.49909 0.0
H1710 H 0.54043 0.99919 0.08202 0.0
H1711 H 0.50382 0.03219 0.90779 0.0
H1712 H 0.50578 0.94665 0.00378 0.0
H1713 H 0.53862 0.08476 0.98596 0.0
H1714 H 0.50544 1.00108 0.94189 0.0
H1715 H 0.53921 0.03041 0.04768 0.0
C1716 C 0.53218 0.99408 0.05778 0.0
C1717 C 0.52314 0.97013 0.04588 0.0
C1718 C 0.51294 0.01945 0.95155 0.0
C1719 C 0.52218 1.0062 0.00593 0.0
C1720 C 0.51222 0.03735 0.93195 0.0
C1721 C 0.52113 0.06126 0.94392 0.0
C1722 C 0.52253 0.0253 0.98362 0.0
C1723 C 0.53172 0.06671 0.9755 0.0
C1724 C 0.53168 1.01203 0.03805 0.0
C1725 C 0.51275 0.96473 0.01418 0.0
N1726 N 0.53193 0.04884 0.99431 0.0
N1727 N 0.51273 0.98264 -0.00473 0.0
H1728 H 1.00606 0.48158 0.90828 0.0
H1729 H 0.04394 0.5523 0.08166 0.0
H1730 H 0.95676 0.46231 0.99103 0.0
H1731 H 0.09361 0.57163 -0.00063 0.0
H1732 H 1.01235 0.51881 0.04931 0.0
H1733 H 0.0379 0.51493 0.94064 0.0
C1734 C 1.00175 0.48459 0.93312 0.0
C1735 C 0.97851 0.46901 0.9468 0.0
C1736 C 0.03018 0.53018 0.03833 0.0
C1737 C 1.0154 0.50717 0.98449 0.0
C1738 C 0.04838 0.54925 0.05691 0.0
C1739 C 0.07163 0.56489 0.04335 0.0
C1740 C 0.035 0.52657 0.00561 0.0
C1741 C 0.07613 0.55997 0.01106 0.0
C1742 C 1.02009 0.50358 0.9517 0.0
C1743 C 0.97421 0.47389 0.97922 0.0
N1744 N 0.05795 0.54141 0.99326 0.0
N1745 N 0.99249 0.49238 -0.00304 0.0
H1746 H 0.4692 0.53132 -0.00218 0.0
H1747 H 0.57547 0.49628 0.98422 0.0
H1748 H 0.48802 0.49759 0.07653 0.0
H1749 H 0.55886 0.53283 0.90696 0.0
H1750 H 0.54234 0.49502 0.01751 0.0
H1751 H 0.50213 0.53241 0.96426 0.0
C1752 C 0.48054 0.52462 0.00834 0.0
C1753 C 0.47574 0.51437 0.04015 0.0
C1754 C 0.54581 0.50313 0.99314 0.0
C1755 C 0.51317 0.51496 0.00145 0.0
C1756 C 0.56456 0.50356 0.97394 0.0
C1757 C 0.57004 0.51466 0.94266 0.0
C1758 C 0.53237 0.51384 0.98104 0.0
C1759 C 0.5554 0.52413 0.93094 0.0
C1760 C 0.49918 0.52496 0.989 0.0
C1761 C 0.49093 0.50562 0.05215 0.0
N1762 N 0.53743 0.52363 0.95012 0.0
N1763 N 0.50875 0.50597 0.03281 0.0
H1764 H 0.35015 0.2591 0.01033 0.0
H1765 H 0.36117 0.26399 0.81346 0.0
H1766 H 0.28909 0.21636 0.9455 0.0
H1767 H 0.42318 0.28874 0.87876 0.0
H1768 H 0.33403 0.24909 0.8617 0.0
H1769 H 0.37727 0.27293 0.96212 0.0
C1770 C 0.34247 0.25257 0.98608 0.0
C1771 C 0.31733 0.23661 0.98202 0.0
C1772 C 0.35361 0.25774 0.86532 0.0
C1773 C 0.34807 0.25247 0.92688 0.0
C1774 C 0.36906 0.26628 0.83783 0.0
C1775 C 0.39446 0.27763 0.84201 0.0
C1776 C 0.3637 0.26085 0.89711 0.0
C1777 C 0.40371 0.28007 0.87423 0.0
C1778 C 0.35792 0.26044 0.95858 0.0
C1779 C 0.30836 0.2287 0.94992 0.0
N1780 N 0.38837 0.27187 0.90048 0.0
N1781 N 0.32367 0.23682 0.92362 0.0
H1782 H 0.75919 0.06258 0.9928 0.0
H1783 H 0.78968 0.16375 0.85823 0.0
H1784 H 0.8344 0.11618 0.97288 0.0
H1785 H 0.73867 0.08804 0.83685 0.0
H1786 H 0.80284 0.15096 0.90787 0.0
H1787 H 0.74691 0.07651 0.94331 0.0
C1788 C 0.77298 0.07765 0.97841 0.0
C1789 C 0.79775 0.08847 0.98678 0.0
C1790 C 0.78892 0.13721 0.89209 0.0
C1791 C 0.78399 0.10429 0.93086 0.0
C1792 C 0.78153 0.14443 0.86388 0.0
C1793 C 0.76341 0.12682 0.84343 0.0
C1794 C 0.77741 0.11233 0.90038 0.0
C1795 C 0.75302 0.10205 0.85184 0.0
C1796 C 0.76604 0.08533 0.95013 0.0
C1797 C 0.81509 0.10756 0.96712 0.0
N1798 N 0.75993 0.0955 0.88006 0.0
N1799 N 0.80787 0.11504 0.94009 0.0
H1800 H 0.88975 0.61251 0.87896 0.0
H1801 H 0.96103 0.75019 0.94233 0.0
H1802 H 0.93316 0.67373 0.81441 0.0
H1803 H 0.93601 0.68769 0.00703 0.0
H1804 H 0.94658 0.72276 0.89505 0.0
H1805 H 0.90214 0.64029 0.92558 0.0
C1806 C 0.90187 0.63184 0.87448 0.0
C1807 C 0.9106 0.64078 0.8426 0.0
C1808 C 0.94426 0.71507 0.91958 0.0
C1809 C 0.92477 0.67272 0.89628 0.0
C1810 C 0.95241 0.73067 0.94668 0.0
C1811 C 0.94982 0.72121 0.9788 0.0
C1812 C 0.93319 0.68977 0.92454 0.0
C1813 C 0.93849 0.69578 0.98275 0.0
C1814 C 0.90897 0.64767 0.90125 0.0
C1815 C 0.92611 0.66603 0.83852 0.0
N1816 N 0.93056 0.68092 0.9559 0.0
N1817 N 0.93273 0.68117 0.86512 0.0
H1818 H 0.26619 0.34261 0.47961 0.0
H1819 H 0.26972 0.35585 0.67581 0.0
H1820 H 0.22477 0.282 0.54591 0.0
H1821 H 0.29257 0.41722 0.60961 0.0
H1822 H 0.25534 0.32834 0.6282 0.0
H1823 H 0.27849 0.37051 0.52695 0.0
C1824 C 0.25966 0.33519 0.504 0.0
C1825 C 0.24452 0.30994 0.50875 0.0
C1826 C 0.2634 0.34784 0.62418 0.0
C1827 C 0.25858 0.34158 0.56284 0.0
C1828 C 0.27163 0.36352 0.65134 0.0
C1829 C 0.28241 0.38886 0.64673 0.0
C1830 C 0.26625 0.3576 0.59222 0.0
C1831 C 0.28437 0.3978 0.6144 0.0
C1832 C 0.26661 0.35108 0.53097 0.0
C1833 C 0.23651 0.30132 0.54096 0.0
N1834 N 0.27653 0.38221 0.58838 0.0
N1835 N 0.24375 0.31707 0.56673 0.0
H1836 H 0.6819 0.92266 0.6796 0.0
H1837 H 0.69475 0.93001 0.483 0.0
H1838 H 0.62039 0.88524 0.61361 0.0
H1839 H 0.75535 0.94854 0.54886 0.0
H1840 H 0.66708 0.91577 0.53069 0.0
H1841 H 0.7094 0.93485 0.63182 0.0
C1842 C 0.67419 0.91697 0.65516 0.0
C1843 C 0.64881 0.90297 0.65068 0.0
C1844 C 0.68645 0.92287 0.53457 0.0
C1845 C 0.68005 0.91695 0.59599 0.0
C1846 C 0.70222 0.93101 0.50737 0.0
C1847 C 0.72741 0.94056 0.51186 0.0
C1848 C 0.696 0.92455 0.56644 0.0
C1849 C 0.73607 0.94136 0.5441 0.0
C1850 C 0.68986 0.92388 0.62792 0.0
C1851 C 0.63983 0.89605 0.61837 0.0
N1852 N 0.72045 0.93364 0.5701 0.0
N1853 N 0.6554 0.90323 0.5923 0.0
H1854 H 0.0762 0.80255 0.54447 0.0
H1855 H 0.16304 0.75385 0.61101 0.0
H1856 H 0.11842 0.78289 0.48038 0.0
H1857 H 0.11162 0.76251 0.67194 0.0
H1858 H 0.15153 0.77007 0.56413 0.0
H1859 H 0.09385 0.79379 0.59212 0.0
C1860 C 0.08924 0.79637 0.54038 0.0
C1861 C 0.09548 0.79295 0.50833 0.0
C1862 C 0.14285 0.76853 0.58777 0.0
C1863 C 0.11585 0.78295 0.56308 0.0
C1864 C 0.14937 0.75925 0.61462 0.0
C1865 C 0.13797 0.75646 0.64543 0.0
C1866 C 0.12485 0.77516 0.59168 0.0
C1867 C 0.12069 0.76411 0.64863 0.0
C1868 C 0.09934 0.79143 0.56769 0.0
C1869 C 0.1129 0.7855 0.50464 0.0
N1870 N 0.11454 0.77298 0.62198 0.0
N1871 N 0.12235 0.78051 0.53179 0.0
H1872 H 0.68223 0.76634 0.17415 0.0
H1873 H 0.69509 0.76991 0.97757 0.0
H1874 H 0.62097 0.74494 0.10845 0.0
H1875 H 0.756 0.80955 0.04384 0.0
H1876 H 0.66726 0.75789 0.02513 0.0
H1877 H 0.70959 0.77989 0.12629 0.0
C1878 C 0.67455 0.76459 0.14974 0.0
C1879 C 0.64928 0.75446 0.14537 0.0
C1880 C 0.68674 0.76929 0.02909 0.0
C1881 C 0.68038 0.76966 0.09051 0.0
C1882 C 0.7026 0.77609 0.00199 0.0
C1883 C 0.72791 0.7907 0.00664 0.0
C1884 C 0.69634 0.77696 0.06098 0.0
C1885 C 0.73663 0.79825 0.03892 0.0
C1886 C 0.69015 0.77232 0.12242 0.0
C1887 C 0.64034 0.75265 0.11308 0.0
N1888 N 0.72092 0.7912 0.06477 0.0
N1889 N 0.65584 0.76001 0.08689 0.0
H1890 H 0.26642 0.93264 0.98032 0.0
H1891 H 0.25246 0.90592 0.17438 0.0
H1892 H 0.21271 0.93736 0.04133 0.0
H1893 H 0.30241 0.89639 0.11149 0.0
H1894 H 0.23506 0.91415 0.1252 0.0
H1895 H 0.27748 0.91589 0.02746 0.0
C1896 C 0.25686 0.93001 0.0035 0.0
C1897 C 0.23894 0.9368 0.007 0.0
C1898 C 0.24973 0.91008 0.12224 0.0
C1899 C 0.25148 0.91778 0.06102 0.0
C1900 C 0.25963 0.9054 0.15029 0.0
C1901 C 0.27921 0.90097 0.14708 0.0
C1902 C 0.25953 0.9103 0.09092 0.0
C1903 C 0.28765 0.90024 0.11523 0.0
C1904 C 0.26315 0.92045 0.03043 0.0
C1905 C 0.22695 0.93276 0.03759 0.0
N1906 N 0.27792 0.90507 0.08847 0.0
N1907 N 0.2336 0.92375 0.06347 0.0
H1908 H 0.11301 0.35577 0.17711 0.0
H1909 H 0.10643 0.34136 0.98079 0.0
H1910 H 0.15223 0.41631 0.10989 0.0
H1911 H 0.08596 0.28082 0.04777 0.0
H1912 H 0.12065 0.36927 0.02808 0.0
H1913 H 0.1 0.32772 0.12991 0.0
C1914 C 0.1189 0.36315 0.15254 0.0
C1915 C 0.13367 0.3884 0.14751 0.0
C1916 C 0.11311 0.34986 0.03231 0.0
C1917 C 0.1188 0.3566 0.09357 0.0
C1918 C 0.10498 0.33396 0.00535 0.0
C1919 C 0.09497 0.30874 0.01028 0.0
C1920 C 0.11094 0.34041 0.06436 0.0
C1921 C 0.09356 0.30014 0.0427 0.0
C1922 C 0.11153 0.34717 0.12564 0.0
C1923 C 0.14083 0.39697 0.11506 0.0
N1924 N 0.10132 0.31591 0.06849 0.0
N1925 N 0.13322 0.38113 0.08937 0.0
H1926 H 0.8175 0.74712 0.44189 0.0
H1927 H 0.74542 0.60962 0.37864 0.0
H1928 H 0.77501 0.68599 0.50701 0.0
H1929 H 0.76963 0.67198 0.31389 0.0
H1930 H 0.75969 0.63703 0.42587 0.0
H1931 H 0.80374 0.71945 0.39517 0.0
C1932 C 0.80528 0.72782 0.44649 0.0
C1933 C 0.79732 0.71889 0.47861 0.0
C1934 C 0.76185 0.64471 0.40136 0.0
C1935 C 0.78152 0.68705 0.4247 0.0
C1936 C 0.75381 0.62912 0.37426 0.0
C1937 C 0.7563 0.63853 0.34211 0.0
C1938 C 0.77274 0.66998 0.39641 0.0
C1939 C 0.76729 0.66393 0.33817 0.0
C1940 C 0.79737 0.71206 0.41962 0.0
C1941 C 0.78154 0.69369 0.48274 0.0
N1942 N 0.77518 0.6788 0.36504 0.0
N1943 N 0.77417 0.67859 0.45604 0.0
H1944 H 0.34935 0.09667 0.51108 0.0
H1945 H 0.36486 0.10367 0.31499 0.0
H1946 H 0.28988 0.07957 0.44368 0.0
H1947 H 0.42529 0.14226 0.38232 0.0
H1948 H 0.33669 0.09108 0.36213 0.0
H1949 H 0.37758 0.11038 0.46402 0.0
C1950 C 0.34225 0.09589 0.4865 0.0
C1951 C 0.31723 0.08692 0.48137 0.0
C1952 C 0.35615 0.10237 0.36643 0.0
C1953 C 0.34922 0.10223 0.42758 0.0
C1954 C 0.37218 0.10947 0.33959 0.0
C1955 C 0.39743 0.12402 0.34468 0.0
C1956 C 0.36551 0.10964 0.3985 0.0
C1957 C 0.40595 0.1311 0.37713 0.0
C1958 C 0.35833 0.1037 0.45968 0.0
C1959 C 0.30903 0.08633 0.44892 0.0
N1960 N 0.39005 0.12374 0.40277 0.0
N1961 N 0.32494 0.09371 0.42328 0.0
H1962 H 0.97497 0.27885 0.49265 0.0
H1963 H 0.87577 0.24886 0.35521 0.0
H1964 H 0.92045 0.20393 0.47302 0.0
H1965 H 0.95176 0.30022 0.3361 0.0
H1966 H 0.88763 0.2356 0.40556 0.0
H1967 H 0.96196 0.29143 0.44256 0.0
C1968 C 0.95987 0.2652 0.47821 0.0
C1969 C 0.94853 0.24041 0.48684 0.0
C1970 C 0.90165 0.24961 0.39013 0.0
C1971 C 0.9338 0.2545 0.43018 0.0
C1972 C 0.89496 0.25705 0.3615 0.0
C1973 C 0.91292 0.2753 0.34149 0.0
C1974 C 0.92635 0.26119 0.39927 0.0
C1975 C 0.93751 0.28575 0.35073 0.0
C1976 C 0.95273 0.2723 0.44958 0.0
C1977 C 0.92944 0.22325 0.46709 0.0
N1978 N 0.94354 0.27878 0.37935 0.0
N1979 N 0.92251 0.23062 0.43969 0.0
H1980 H 0.0908 0.61676 0.21164 0.0
H1981 H 0.95343 0.55621 0.2739 0.0
H1982 H 0.03072 0.60257 0.1469 0.0
H1983 H 1.01534 0.59313 0.33941 0.0
H1984 H 0.98117 0.56834 0.22715 0.0
H1985 H 0.06289 0.60314 0.25831 0.0
C1986 C 0.07168 0.61067 0.20712 0.0
C1987 C 0.0631 0.61096 0.17518 0.0
C1988 C 0.9887 0.57383 0.25171 0.0
C1989 C 0.03108 0.59529 0.22886 0.0
C1990 C 0.97291 0.56685 0.27855 0.0
C1991 C 0.9821 0.57373 0.31076 0.0
C1992 C 1.01393 0.58756 0.25698 0.0
C1993 C 1.00748 0.58753 0.31504 0.0
C1994 C 0.05582 0.60301 0.23392 0.0
C1995 C 0.03813 0.60274 0.17104 0.0
N1996 N 0.02258 0.59395 0.28839 0.0
N1997 N 0.02295 0.5952 0.19765 0.0
H1998 H 0.44494 0.43207 0.34273 0.0
H1999 H 0.44182 0.44007 0.14612 0.0
H2000 H 0.48559 0.41118 0.2774 0.0
H2001 H 0.41925 0.47954 0.21103 0.0
H2002 H 0.45579 0.427 0.19431 0.0
H2003 H 0.43289 0.44745 0.2948 0.0
C2004 C 0.45135 0.43076 0.31844 0.0
C2005 C 0.4662 0.42024 0.31414 0.0
C2006 C 0.44787 0.43863 0.19791 0.0
C2007 C 0.45244 0.43757 0.25939 0.0
C2008 C 0.43989 0.44606 0.17042 0.0
C2009 C 0.4293 0.46085 0.17449 0.0
C2010 C 0.44499 0.44583 0.22967 0.0
C2011 C 0.42729 0.46811 0.20664 0.0
C2012 C 0.44453 0.43956 0.29112 0.0
C2013 C 0.47406 0.41908 0.28203 0.0
N2014 N 0.4349 0.46039 0.23298 0.0
N2015 N 0.46697 0.42748 0.25594 0.0
H2016 H 0.60531 0.02279 0.34476 0.0
H2017 H 0.6005 1.01044 0.14817 0.0
H2018 H 0.62916 0.08463 0.27916 0.0
H2019 H 0.55958 0.94969 0.21448 0.0
H2020 H 0.61353 0.03819 0.19576 0.0
H2021 H 0.5906 0.99555 0.29689 0.0
C2022 C 0.60739 0.03063 0.32037 0.0
C2023 C 0.61852 0.05601 0.31602 0.0
C2024 C 0.60161 0.01876 0.19973 0.0
C2025 C 0.60195 0.02505 0.26118 0.0
C2026 C 0.59422 1.00296 0.17261 0.0
C2027 C 0.57901 0.97771 0.17727 0.0
C2028 C 0.59391 1.00917 0.23165 0.0
C2029 C 0.57136 0.96901 0.20956 0.0
C2030 C 0.59898 0.0151 0.29306 0.0
C2031 C 0.62069 0.06517 0.28377 0.0
N2032 N 0.579 0.98467 0.23544 0.0
N2033 N 0.61262 0.04972 0.25759 0.0
H2034 H 0.43978 1.00832 0.64642 0.0
H2035 H 0.44352 0.02058 0.8429 0.0
H2036 H 0.41661 0.9467 0.71229 0.0
H2037 H 0.48424 0.08161 0.7769 0.0
H2038 H 0.43103 0.99294 0.79528 0.0
H2039 H 0.45392 0.03565 0.69425 0.0
C2040 C 0.43772 1.00056 0.67085 0.0
C2041 C 0.42695 0.97521 0.67531 0.0
C2042 C 0.44279 1.01241 0.79138 0.0
C2043 C 0.44287 1.00623 0.73004 0.0
C2044 C 0.44986 0.02815 0.81852 0.0
C2045 C 0.46484 0.05343 0.81393 0.0
C2046 C 0.45057 0.0221 0.75954 0.0
C2047 C 0.4726 0.06225 0.78173 0.0
C2048 C 0.44581 0.01613 0.69813 0.0
C2049 C 0.4248 0.96614 0.7076 0.0
N2050 N 0.46527 0.04664 0.7558 0.0
N2051 N 0.43254 0.98162 0.73372 0.0
H2052 H 0.09048 0.48151 0.71021 0.0
H2053 H 0.9539 0.40913 0.77756 0.0
H2054 H 0.02868 0.4374 0.64713 0.0
H2055 H 1.01731 0.43444 0.84032 0.0
H2056 H 0.98061 0.42359 0.72948 0.0
H2057 H 0.06336 0.46872 0.75758 0.0
C2058 C 0.07115 0.46915 0.70619 0.0
C2059 C 0.06188 0.46037 0.67447 0.0
C2060 C 0.98866 0.42598 0.75375 0.0
C2061 C 0.03066 0.44572 0.72912 0.0
C2062 C 0.97347 0.41783 0.78133 0.0
C2063 C 0.98339 0.4205 0.81316 0.0
C2064 C 1.01401 0.43716 0.75793 0.0
C2065 C 1.00886 0.43192 0.81632 0.0
C2066 C 0.0557 0.46181 0.73342 0.0
C2067 C 0.03664 0.44453 0.67107 0.0
N2068 N 0.02332 0.43988 0.78901 0.0
N2069 N 1.02186 0.43769 0.69814 0.0
H2070 H 0.55782 0.61977 0.71237 0.0
H2071 H 0.6251 0.54873 0.77423 0.0
H2072 H 0.59669 0.59676 0.64703 0.0
H2073 H 0.60659 0.59125 0.83953 0.0
H2074 H 0.60986 0.56158 0.7278 0.0
H2075 H 0.57072 0.6048 0.75923 0.0
C2076 C 0.56899 0.61146 0.70778 0.0
C2077 C 0.57629 0.60962 0.6756 0.0
C2078 C 0.60913 0.56811 0.75226 0.0
C2079 C 0.59103 0.59239 0.72942 0.0
C2080 C 0.61775 0.56074 0.77892 0.0
C2081 C 0.61728 0.56906 0.81097 0.0
C2082 C 0.59968 0.58376 0.75752 0.0
C2083 C 0.60743 0.5845 0.8153 0.0
C2084 C 0.57641 0.60302 0.73466 0.0
C2085 C 0.59073 0.59865 0.67135 0.0
N2086 N 0.59899 0.59136 0.78881 0.0
N2087 N 0.59762 0.59042 0.698 0.0
H2088 H 0.26261 0.28518 0.31899 0.0
H2089 H 0.22556 0.18423 0.17779 0.0
H2090 H 0.19687 0.21444 0.31695 0.0
H2091 H 0.29153 0.25453 0.17138 0.0
H2092 H 0.21657 0.19563 0.23063 0.0
H2093 H 0.27479 0.27553 0.26577 0.0
C2094 C 0.25067 0.26781 0.30722 0.0
C2095 C 0.22874 0.25057 0.3224 0.0
C2096 C 0.2331 0.20868 0.21793 0.0
C2097 C 0.24258 0.23939 0.26234 0.0
C2098 C 0.23827 0.20211 0.18767 0.0
C2099 C 0.25924 0.21853 0.17013 0.0
C2100 C 0.2489 0.23198 0.23091 0.0
C2101 C 0.27519 0.24135 0.18432 0.0
C2102 C 0.25769 0.26226 0.27708 0.0
C2103 C 0.21402 0.22826 0.30636 0.0
N2104 N 0.26959 0.24755 0.21395 0.0
N2105 N 0.22124 0.22336 0.27737 0.0
H2106 H 0.84417 0.02996 0.16814 0.0
H2107 H 0.75223 0.98359 0.32151 0.0
H2108 H 0.78519 0.04587 0.17613 0.0
H2109 H 0.82137 0.98507 0.3175 0.0
H2110 H 0.76061 1.00247 0.26627 0.0
H2111 H 0.83267 1.0095 0.22101 0.0
C2112 C 0.8288 0.02925 0.18109 0.0
C2113 C 0.81573 0.03984 0.16773 0.0
C2114 C 0.77382 0.99854 0.27761 0.0
C2115 C 0.80233 0.01617 0.22875 0.0
C2116 C 0.76899 0.98766 0.30891 0.0
C2117 C 0.78616 0.98283 0.32407 0.0
C2118 C 0.79579 1.00426 0.26151 0.0
C2119 C 0.80767 0.98861 0.3069 0.0
C2120 C 0.82222 0.01751 0.21141 0.0
C2121 C 0.79589 0.03814 0.18572 0.0
N2122 N 0.81183 0.99897 0.27665 0.0
N2123 N 0.78973 0.02647 0.21544 0.0
H2124 H 0.98033 0.73701 0.17239 0.0
H2125 H 0.04511 0.83162 0.31952 0.0
H2126 H 0.99296 0.8109 0.17615 0.0
H2127 H 0.03223 0.75767 0.32453 0.0
H2128 H 0.02388 0.82241 0.26757 0.0
H2129 H 0.99698 0.74221 0.22857 0.0
C2130 C 0.98637 0.75419 0.18511 0.0
C2131 C 0.98544 0.77363 0.16953 0.0
C2132 C 0.02559 0.80805 0.27978 0.0
C2133 C 1.00436 0.77962 0.23324 0.0
C2134 C 0.0379 0.81337 0.30952 0.0
C2135 C 0.04081 0.79549 0.32613 0.0
C2136 C 1.01612 0.78466 0.26604 0.0
C2137 C 0.03052 0.77201 0.31228 0.0
C2138 C 0.99588 0.75713 0.21704 0.0
C2139 C 0.99353 0.79549 0.18697 0.0
N2140 N 1.01873 0.76727 0.28269 0.0
N2141 N 1.00268 0.79786 0.21774 0.0
H2142 H 0.78569 0.74362 0.67073 0.0
H2143 H 0.82224 0.8438 0.81285 0.0
H2144 H 0.84792 0.81682 0.66804 0.0
H2145 H 0.75514 0.77434 0.81651 0.0
H2146 H 0.83125 0.83315 0.75937 0.0
H2147 H 0.77384 0.75313 0.72415 0.0
C2148 C 0.79694 0.76157 0.68144 0.0
C2149 C 0.8179 0.77941 0.66495 0.0
C2150 C 0.81445 0.82017 0.77161 0.0
C2151 C 0.80436 0.7904 0.72553 0.0
C2152 C 0.80928 0.82627 0.80226 0.0
C2153 C 0.78792 0.80989 0.81921 0.0
C2154 C 0.7983 0.79736 0.75761 0.0
C2155 C 0.77175 0.78752 0.8041 0.0
C2156 C 0.79008 0.76702 0.71176 0.0
C2157 C 0.83165 0.80244 0.67976 0.0
N2158 N 0.77736 0.78178 0.77413 0.0
N2159 N 0.82464 0.8072 0.70909 0.0
H2160 H 0.25859 0.98121 0.81777 0.0
H2161 H 0.21884 0.03865 0.67103 0.0
H2162 H 0.1943 0.98895 0.81678 0.0
H2163 H 0.2892 0.04259 0.67143 0.0
H2164 H 0.20978 0.01872 0.72413 0.0
H2165 H 0.27019 1.00155 0.7635 0.0
C2166 C 0.24686 0.98697 0.80605 0.0
C2167 C 0.22546 0.98339 0.82175 0.0
C2168 C 0.2273 0.02397 0.71289 0.0
C2169 C 0.2386 1.00661 0.7604 0.0
C2170 C 0.2325 0.03539 0.68241 0.0
C2171 C 0.25482 0.04228 0.66674 0.0
C2172 C 0.24445 0.01917 0.72809 0.0
C2173 C 0.27182 0.03767 0.68286 0.0
C2174 C 0.25356 0.99869 0.77531 0.0
C2175 C 0.21101 0.99138 0.80575 0.0
N2176 N 0.26623 0.02622 0.71276 0.0
N2177 N 0.21786 1.00256 0.77609 0.0
H2178 H 1.00453 0.19149 0.66842 0.0
H2179 H 0.05393 0.28426 0.82053 0.0
H2180 H 0.99127 0.25227 0.67591 0.0
H2181 H 0.05171 0.21473 0.81633 0.0
H2182 H 0.03452 0.27589 0.76575 0.0
H2183 H 0.02529 0.20271 0.721 0.0
C2184 C 1.00588 0.2072 0.68121 0.0
C2185 C 0.99599 0.22088 0.66778 0.0
C2186 C 0.03841 0.26259 0.77693 0.0
C2187 C 1.02002 0.23397 0.72845 0.0
C2188 C 0.0496 0.26742 0.80797 0.0
C2189 C 0.05439 0.25014 0.82294 0.0
C2190 C 0.03229 0.2405 0.76092 0.0
C2191 C 0.04825 0.22852 0.80585 0.0
C2192 C 1.0178 0.21362 0.71136 0.0
C2193 C 0.99846 0.24111 0.68557 0.0
N2194 N 0.03755 0.22436 0.77585 0.0
N2195 N 1.01031 0.24712 0.71512 0.0
H2196 H 0.86031 0.54781 0.64834 0.0
H2197 H 0.95986 0.58779 0.50502 0.0
H2198 H 0.9286 0.61614 0.6526 0.0
H2199 H 0.88537 0.52796 0.49996 0.0
H2200 H 0.95073 0.59859 0.55957 0.0
H2201 H 0.87098 0.54039 0.59402 0.0
C2202 C 0.87759 0.56135 0.6377 0.0
C2203 C 0.89364 0.5826 0.65497 0.0
C2204 C 0.9365 0.58315 0.5463 0.0
C2205 C 0.90616 0.57414 0.59243 0.0
C2206 C 0.94172 0.5769 0.51538 0.0
C2207 C 0.92341 0.55687 0.49801 0.0
C2208 C 0.91292 0.56913 0.55966 0.0
C2209 C 0.90015 0.54351 0.51234 0.0
C2210 C 0.8837 0.55713 0.60656 0.0
C2211 C 0.91571 0.59958 0.63987 0.0
N2212 N 0.89565 0.54988 0.54221 0.0
N2213 N 0.92147 0.59491 0.60935 0.0
H2214 H 0.44952 0.37984 0.5047 0.0
H2215 H 0.48495 0.31401 0.64539 0.0
H2216 H 0.5146 0.37348 0.50649 0.0
H2217 H 0.42028 0.32077 0.65262 0.0
H2218 H 0.49406 0.33424 0.59236 0.0
H2219 H 0.4371 0.35795 0.55784 0.0
C2220 C 0.46128 0.37411 0.5164 0.0
C2221 C 0.48309 0.37843 0.50117 0.0
C2222 C 0.47779 0.33132 0.60529 0.0
C2223 C 0.46894 0.35331 0.56114 0.0
C2224 C 0.47255 0.31967 0.63563 0.0
C2225 C 0.45192 0.31587 0.65345 0.0
C2226 C 0.46243 0.33951 0.59254 0.0
C2227 C 0.43634 0.32334 0.63945 0.0
C2228 C 0.45411 0.3615 0.5465 0.0
C2229 C 0.49755 0.37045 0.51713 0.0
N2230 N 0.44203 0.33507 0.60977 0.0
N2231 N 0.49019 0.35828 0.54608 0.0
H2232 H 0.62836 0.08397 0.5271 0.0
H2233 H 0.74792 0.13948 0.63757 0.0
H2234 H 0.69862 0.13703 0.48766 0.0
H2235 H 0.68168 0.13554 0.67363 0.0
H2236 H 0.72884 0.12642 0.58283 0.0
H2237 H 0.64691 0.09064 0.58244 0.0
C2238 C 0.64773 0.09669 0.53013 0.0
C2239 C 0.66209 0.11017 0.50326 0.0
C2240 C 0.71852 0.12824 0.60293 0.0
C2241 C 0.6832 0.11733 0.56537 0.0
C2242 C 0.72931 0.13561 0.63396 0.0
C2243 C 0.71634 0.13881 0.65972 0.0
C2244 C 0.69447 0.12334 0.59823 0.0
C2245 C 0.69229 0.13358 0.65407 0.0
C2246 C 0.6582 0.10053 0.56147 0.0
C2247 C 0.68704 0.12654 0.50809 0.0
N2248 N 0.68201 0.12596 0.62386 0.0
N2249 N 0.69691 0.12962 0.53865 0.0
H2250 H 0.49603 0.17067 0.1567 0.0
H2251 H 0.44965 0.07767 0.00497 0.0
H2252 H 0.42206 0.10982 0.15214 0.0
H2253 H 0.51641 0.14754 0.00717 0.0
H2254 H 0.4398 0.08591 0.06066 0.0
H2255 H 0.50435 0.15922 0.10352 0.0
C2256 C 0.48142 0.15489 0.14443 0.0
C2257 C 0.45823 0.14127 0.15885 0.0
C2258 C 0.45659 0.09931 0.04882 0.0
C2259 C 0.46776 0.12795 0.09742 0.0
C2260 C 0.46228 0.09456 0.01727 0.0
C2261 C 0.48383 0.11198 0.00151 0.0
C2262 C 0.47275 0.12145 0.06448 0.0
C2263 C 0.49951 0.13365 0.01826 0.0
C2264 C 0.48622 0.14833 0.11393 0.0
C2265 C 0.44014 0.12093 0.1417 0.0
N2266 N 0.49364 0.13773 0.04874 0.0
N2267 N 0.44529 0.11482 0.11172 0.0
H2268 H 0.90226 0.29084 0.13498 0.0
H2269 H 0.95694 0.41185 0.02652 0.0
H2270 H 0.90452 0.35625 0.1713 0.0
H2271 H 0.90647 0.34134 0.98537 0.0
H2272 H 0.9502 0.3927 0.08151 0.0
H2273 H 0.91615 0.31062 0.08068 0.0
C2274 C 0.90593 0.30942 0.13152 0.0
C2275 C 0.902 0.32193 0.1572 0.0
C2276 C 0.94093 0.38149 0.06025 0.0
C2277 C 0.91842 0.34462 0.09626 0.0
C2278 C 0.94481 0.3923 0.02911 0.0
C2279 C 0.93203 0.37802 0.00187 0.0
C2280 C 0.92478 0.35625 0.06359 0.0
C2281 C 0.91641 0.35284 0.00611 0.0
C2282 C 0.91379 0.32061 0.10075 0.0
C2283 C 0.90702 0.34596 0.15178 0.0
N2284 N 0.91324 0.34266 0.0365 0.0
N2285 N 0.9151 0.35663 0.12184 0.0
H2286 H 0.72315 0.55102 0.14354 0.0
H2287 H 0.65439 0.58369 0.00413 0.0
H2288 H 0.71321 0.61375 0.15202 0.0
H2289 H 0.67149 0.52537 -0.00075 0.0
H2290 H 0.67554 0.59601 0.05772 0.0
H2291 H 0.70473 0.54279 0.08937 0.0
C2292 C 0.71716 0.56318 0.13381 0.0
C2293 C 0.71955 0.583 0.15228 0.0
C2294 C 0.67458 0.58054 0.04474 0.0
C2295 C 0.69803 0.57352 0.09002 0.0
C2296 C 0.66241 0.57342 0.01436 0.0
C2297 C 0.66106 0.5534 -0.00274 0.0
C2298 C 0.68531 0.56746 0.05783 0.0
C2299 C 0.67196 0.54088 0.01141 0.0
C2300 C 0.7066 0.55848 0.10279 0.0
C2301 C 0.71172 0.59832 0.13834 0.0
N2302 N 0.68355 0.54812 0.04073 0.0
N2303 N 0.70102 0.59312 0.10799 0.0
H2304 H 0.56715 0.90274 0.81851 0.0
H2305 H 0.56404 0.88538 0.00832 0.0
H2306 H 0.61635 0.88218 0.86305 0.0
H2307 H 0.56406 0.949 0.96911 0.0
H2308 H 0.5779 0.879 0.95453 0.0
H2309 H 0.5604 0.91555 0.87289 0.0
C2310 C 0.57662 0.90111 0.83984 0.0
C2311 C 0.59226 0.89144 0.83668 0.0
C2312 C 0.57502 0.89443 0.95786 0.0
C2313 C 0.58424 0.90538 0.89844 0.0
C2314 C 0.56694 0.89795 0.98828 0.0
C2315 C 0.56279 0.91762 0.99283 0.0
C2316 C 0.57821 0.91027 0.93166 0.0
C2317 C 0.56706 0.93361 0.9664 0.0
C2318 C 0.57287 0.9085 0.87063 0.0
C2319 C 0.60422 0.88967 0.86474 0.0
N2320 N 0.57415 0.92934 0.9366 0.0
N2321 N 0.59959 0.89616 0.89475 0.0
H2322 H 0.16381 0.67621 0.99476 0.0
H2323 H 0.11438 0.70932 0.83313 0.0
H2324 H 0.08624 0.6452 0.97812 0.0
H2325 H 0.18534 0.71542 0.8433 0.0
H2326 H 0.10378 0.69146 0.88905 0.0
H2327 H 0.17199 0.69689 0.9423 0.0
C2328 C 0.14838 0.67358 0.97997 0.0
C2329 C 0.12422 0.65853 0.99067 0.0
C2330 C 0.12165 0.69685 0.87889 0.0
C2331 C 0.13366 0.68248 0.93003 0.0
C2332 C 0.12775 0.70715 0.84726 0.0
C2333 C 0.15073 0.71376 0.83372 0.0
C2334 C 0.13887 0.69367 0.8969 0.0
C2335 C 0.16736 0.71043 0.85271 0.0
C2336 C 0.15313 0.6855 0.94991 0.0
C2337 C 0.10512 0.65638 0.97055 0.0
N2338 N 0.16111 0.70066 0.88327 0.0
N2339 N 0.11024 0.66819 0.94092 0.0
H2340 H 0.4173 0.47543 0.9636 0.0
H2341 H 0.29606 0.41408 0.85592 0.0
H2342 H 0.34849 0.46246 0.00367 0.0
H2343 H 0.36344 0.47346 0.8177 0.0
H2344 H 0.3157 0.41977 0.91027 0.0
H2345 H 0.39787 0.46258 0.90892 0.0
C2346 C 0.39805 0.46951 0.96087 0.0
C2347 C 0.38439 0.47016 0.98769 0.0
C2348 C 0.32614 0.43129 0.88976 0.0
C2349 C 0.36224 0.45503 0.92636 0.0
C2350 C 0.31504 0.42806 0.85897 0.0
C2351 C 0.32819 0.44358 0.83278 0.0
C2352 C 0.35065 0.44959 0.89373 0.0
C2353 C 0.35271 0.46143 0.83765 0.0
C2354 C 0.38708 0.46229 0.9299 0.0
C2355 C 0.35956 0.46242 0.98325 0.0
N2356 N 0.36325 0.46393 0.86763 0.0
N2357 N 0.34918 0.45506 0.95306 0.0
H2358 H 0.15231 0.51419 0.47776 0.0
H2359 H 0.11969 0.41268 0.33857 0.0
H2360 H 0.08857 0.44229 0.48501 0.0
H2361 H 0.18117 0.48636 0.33652 0.0
H2362 H 0.1069 0.422 0.39147 0.0
H2363 H 0.1615 0.5036 0.4244 0.0
C2364 C 0.14012 0.49614 0.46792 0.0
C2365 C 0.11973 0.47903 0.48584 0.0
C2366 C 0.12318 0.43601 0.37931 0.0
C2367 C 0.13034 0.46651 0.42454 0.0
C2368 C 0.13058 0.43067 0.34933 0.0
C2369 C 0.15156 0.44875 0.33316 0.0
C2370 C 0.13694 0.45952 0.39295 0.0
C2371 C 0.16486 0.47182 0.34796 0.0
C2372 C 0.1454 0.49004 0.43738 0.0
C2373 C 0.10443 0.456 0.47176 0.0
N2374 N 0.15731 0.47648 0.37687 0.0
N2375 N 0.11017 0.45026 0.4419 0.0
H2376 H 0.56479 0.67242 0.31591 0.0
H2377 H 0.57321 0.69097 0.50474 0.0
H2378 H 0.62229 0.74027 0.35561 0.0
H2379 H 0.56289 0.62287 0.46564 0.0
H2380 H 0.58702 0.70981 0.45015 0.0
H2381 H 0.55919 0.65348 0.37054 0.0
C2382 C 0.57629 0.68322 0.33621 0.0
C2383 C 0.59392 0.70786 0.33165 0.0
C2384 C 0.58198 0.69083 0.45369 0.0
C2385 C 0.58734 0.68664 0.39368 0.0
C2386 C 0.57397 0.68008 0.48458 0.0
C2387 C 0.56684 0.6554 0.48929 0.0
C2388 C 0.58207 0.67653 0.4273 0.0
C2389 C 0.56828 0.64198 0.46272 0.0
C2390 C 0.57322 0.67241 0.36712 0.0
C2391 C 0.60854 0.72118 0.35839 0.0
N2392 N 0.5753 0.65261 0.4325 0.0
N2393 N 0.60459 0.7105 0.38863 0.0
H2394 H 0.36126 0.88042 0.49388 0.0
H2395 H 0.35639 0.93779 0.32138 0.0
H2396 H 0.40555 0.95792 0.47481 0.0
H2397 H 0.3027 0.86583 0.35545 0.0
H2398 H 0.37504 0.94678 0.37648 0.0
H2399 H 0.34064 0.87547 0.44174 0.0
C2400 C 0.36677 0.89644 0.47858 0.0
C2401 C 0.38532 0.9196 0.48857 0.0
C2402 C 0.35898 0.92917 0.37187 0.0
C2403 C 0.3615 0.91406 0.42857 0.0
C2404 C 0.34827 0.9241 0.34053 0.0
C2405 C 0.32814 0.90096 0.33376 0.0
C2406 C 0.34944 0.9109 0.39627 0.0
C2407 C 0.31845 0.88377 0.35939 0.0
C2408 C 0.35481 0.89363 0.44884 0.0
C2409 C 0.39139 0.93972 0.46789 0.0
N2410 N 0.32931 0.88903 0.38935 0.0
N2411 N 0.37959 0.93647 0.43861 0.0
H2412 H 0.28561 0.29347 0.01205 0.0
H2413 H 0.34003 0.40144 0.14493 0.0
H2414 H 0.27873 0.28197 0.11738 0.0
H2415 H 0.34499 0.41285 0.03958 0.0
H2416 H 0.31118 0.35777 0.13556 0.0
H2417 H 0.3009 0.33723 0.02145 0.0
C2418 C 0.28677 0.30004 0.03705 0.0
C2419 C 0.2813 0.28416 0.06394 0.0
C2420 C 0.31829 0.36993 0.11452 0.0
C2421 C 0.29906 0.33411 0.07503 0.0
C2422 C 0.33463 0.39487 0.11994 0.0
C2423 C 0.34523 0.41066 0.09302 0.0
C2424 C 0.31259 0.36086 0.08198 0.0
C2425 C 0.33761 0.40117 0.06107 0.0
C2426 C 0.29564 0.32504 0.04249 0.0
C2427 C 0.28319 0.29368 0.0959 0.0
N2428 N 0.32207 0.37691 0.05644 0.0
N2429 N 0.29221 0.31801 0.10056 0.0
H2430 H 0.63589 0.94335 0.14508 0.0
H2431 H 0.7411 1.00012 0.00919 0.0
H2432 H 0.62212 0.93773 0.04029 0.0
H2433 H 0.75461 0.99587 0.11264 0.0
H2434 H 0.69732 0.97211 0.01905 0.0
H2435 H 0.67918 0.95747 0.13344 0.0
C2436 C 0.64184 0.94455 0.11972 0.0
C2437 C 0.62549 0.9398 0.09366 0.0
C2438 C 0.70995 0.97694 0.03949 0.0
C2439 C 0.6749 0.95624 0.08004 0.0
C2440 C 0.73496 0.99277 0.03373 0.0
C2441 C 0.75143 1.00058 0.06017 0.0
C2442 C 0.70147 0.96906 0.0719 0.0
C2443 C 0.74244 0.99061 0.0916 0.0
C2444 C 0.66657 0.95274 0.11301 0.0
C2445 C 0.63422 0.9417 0.06118 0.0
N2446 N 0.7181 0.97574 0.09669 0.0
N2447 N 0.6583 0.9501 0.05531 0.0
H2448 H 0.0411 0.75449 0.01422 0.0
H2449 H 0.09142 0.69792 0.14878 0.0
H2450 H 0.02897 0.75453 0.11903 0.0
H2451 H 0.10562 0.69986 0.04437 0.0
H2452 H 0.07497 0.72549 0.13951 0.0
H2453 H 0.07097 0.74115 0.02544 0.0
C2454 C 0.04506 0.75216 0.03954 0.0
C2455 C 0.03219 0.75514 0.06564 0.0
C2456 C 0.08212 0.72024 0.1187 0.0
C2457 C 0.06606 0.73974 0.07875 0.0
C2458 C 0.09168 0.70466 0.1241 0.0
C2459 C 0.09951 0.69632 0.09727 0.0
C2460 C 0.08038 0.72739 0.08627 0.0
C2461 C 0.09934 0.70554 0.06571 0.0
C2462 C 0.06202 0.74445 0.046 0.0
C2463 C 0.03809 0.75192 0.09806 0.0
N2464 N 0.08959 0.72024 0.06101 0.0
N2465 N 0.05429 0.74411 0.10365 0.0
H2466 H 0.4225 0.33543 0.45105 0.0
H2467 H 0.28847 0.26585 0.37509 0.0
H2468 H 0.40747 0.33043 0.34666 0.0
H2469 H 0.30338 0.2798 0.47907 0.0
H2470 H 0.33173 0.28065 0.36502 0.0
H2471 H 0.37944 0.30673 0.46174 0.0
C2472 C 0.41014 0.32792 0.43026 0.0
C2473 C 0.41851 0.33564 0.39789 0.0
C2474 C 0.32557 0.28013 0.39012 0.0
C2475 C 0.36896 0.30284 0.41012 0.0
C2476 C 0.30085 0.2716 0.39596 0.0
C2477 C 0.29239 0.27193 0.42797 0.0
C2478 C 0.34214 0.28925 0.41643 0.0
C2479 C 0.30914 0.27929 0.45405 0.0
C2480 C 0.38553 0.31156 0.43645 0.0
C2481 C 0.40179 0.32506 0.37196 0.0
N2482 N 0.33333 0.28806 0.44762 0.0
N2483 N 0.37769 0.30948 0.37869 0.0
H2484 H 0.75885 0.03008 0.48281 0.0
H2485 H 0.70795 0.08529 0.34736 0.0
H2486 H 0.76867 0.0269 0.37793 0.0
H2487 H 0.70221 0.09254 0.45236 0.0
H2488 H 0.73647 0.07016 0.35798 0.0
H2489 H 0.74439 0.0592 0.4726 0.0
C2490 C 0.75852 0.03595 0.45778 0.0
C2491 C 0.76454 0.02576 0.43118 0.0
C2492 C 0.72927 0.07547 0.37867 0.0
C2493 C 0.74773 0.05865 0.41916 0.0
C2494 C 0.71312 0.08424 0.37253 0.0
C2495 C 0.70238 0.08972 0.39899 0.0
C2496 C 0.73459 0.07217 0.41147 0.0
C2497 C 0.7097 0.08801 0.43121 0.0
C2498 C 0.75013 0.05244 0.45187 0.0
C2499 C 0.76374 0.03397 0.39915 0.0
N2500 N 0.72502 0.07907 0.43655 0.0
N2501 N 0.75514 0.0496 0.39401 0.0
H2502 H 0.99366 0.73229 0.48387 0.0
H2503 H 0.95183 0.63216 0.34182 0.0
H2504 H 1.00481 0.75042 0.38054 0.0
H2505 H 0.9359 0.61545 0.44516 0.0
H2506 H 0.96475 0.67522 0.35387 0.0
H2507 H 0.96559 0.68945 0.46923 0.0
C2508 C 0.98941 0.72737 0.45813 0.0
C2509 C 1.0013 0.74486 0.43338 0.0
C2510 C 0.95794 0.662 0.37379 0.0
C2511 C 0.97024 0.69577 0.41621 0.0
C2512 C 0.95042 0.63741 0.36682 0.0
C2513 C 0.94309 0.62031 0.39257 0.0
C2514 C 0.95809 0.6694 0.40669 0.0
C2515 C 0.94178 0.62813 0.42461 0.0
C2516 C 0.97365 0.70286 0.44967 0.0
C2517 C 0.99583 0.73743 0.40033 0.0
N2518 N 0.9495 0.65205 0.43079 0.0
N2519 N 0.98104 0.71342 0.39266 0.0
H2520 H 0.70706 0.6273 0.84074 0.0
H2521 H 0.76042 0.73333 0.97623 0.0
H2522 H 0.70286 0.61427 0.94568 0.0
H2523 H 0.76885 0.74639 0.87126 0.0
H2524 H 0.74538 0.68971 0.96575 0.0
H2525 H 0.73571 0.67088 0.8511 0.0
C2526 C 0.71261 0.63349 0.86582 0.0
C2527 C 0.70228 0.61724 0.89236 0.0
C2528 C 0.75093 0.70222 0.94503 0.0
C2529 C 0.73464 0.66698 0.90457 0.0
C2530 C 0.75968 0.72714 0.9511 0.0
C2531 C 0.76551 0.74341 0.9246 0.0
C2532 C 0.748 0.69363 0.91227 0.0
C2533 C 0.76411 0.73437 0.89244 0.0
C2534 C 0.72883 0.65839 0.87183 0.0
C2535 C 0.71006 0.62628 0.92447 0.0
N2536 N 0.75519 0.71012 0.88717 0.0
N2537 N 0.72544 0.6505 0.92969 0.0
H2538 H 0.28636 0.02636 0.87432 0.0
H2539 H 0.42031 0.09264 0.9511 0.0
H2540 H 0.30087 0.02807 0.97855 0.0
H2541 H 0.40576 0.08329 0.84657 0.0
H2542 H 0.37697 0.07701 0.96159 0.0
H2543 H 0.3296 0.05478 0.86441 0.0
C2544 C 0.29865 0.03308 0.89527 0.0
C2545 C 0.29004 0.02456 0.92733 0.0
C2546 C 0.38321 0.07868 0.93632 0.0
C2547 C 0.33984 0.05704 0.91597 0.0
C2548 C 0.408 0.08767 0.93024 0.0
C2549 C 0.41664 0.08895 0.89786 0.0
C2550 C 0.36672 0.07071 0.90989 0.0
C2551 C 0.39991 0.08256 0.87187 0.0
C2552 C 0.32338 0.04929 0.88952 0.0
C2553 C 0.30672 0.03412 0.95349 0.0
N2554 N 0.37566 0.07334 0.87848 0.0
N2555 N 0.33092 0.04957 0.94716 0.0
H2556 H 0.94622 0.33714 0.95172 0.0
H2557 H 1.00868 0.26537 0.8758 0.0
H2558 H 0.95529 0.33115 0.84728 0.0
H2559 H 1.00753 0.2792 0.97981 0.0
H2560 H 0.98071 0.28081 0.86567 0.0
H2561 H 0.9599 0.30784 0.96246 0.0
C2562 C 0.95075 0.32931 0.93094 0.0
C2563 C 0.95002 0.33689 0.89853 0.0
C2564 C 0.98618 0.28012 0.89078 0.0
C2565 C 0.96599 0.30341 0.9108 0.0
C2566 C 1.0021 0.27122 0.89666 0.0
C2567 C 1.01071 0.27133 0.9287 0.0
C2568 C 0.97885 0.2894 0.91709 0.0
C2569 C 1.0014 0.27885 0.95476 0.0
C2570 C 0.95859 0.31259 0.93715 0.0
C2571 C 0.95569 0.32588 0.8726 0.0
N2572 N 0.98627 0.28799 0.94831 0.0
N2573 N 0.96386 0.30997 0.87934 0.0
H2574 H 0.75661 0.76243 0.61561 0.0
H2575 H 0.62227 0.69573 0.54027 0.0
H2576 H 0.74132 0.75112 0.51139 0.0
H2577 H 0.63743 0.69839 0.6444 0.0
H2578 H 0.66543 0.72418 0.52979 0.0
H2579 H 0.71343 0.74762 0.62637 0.0
C2580 C 0.74418 0.75726 0.59486 0.0
C2581 C 0.75253 0.75769 0.56253 0.0
C2582 C 0.65936 0.7189 0.55499 0.0
C2583 C 0.70283 0.74037 0.57485 0.0
C2584 C 0.63469 0.70269 0.56107 0.0
C2585 C 0.62631 0.6944 0.59327 0.0
C2586 C 0.67599 0.72689 0.58126 0.0
C2587 C 0.64312 0.70425 0.61924 0.0
C2588 C 0.71949 0.74873 0.60109 0.0
C2589 C 0.73568 0.75105 0.53665 0.0
N2590 N 0.66727 0.7197 0.6126 0.0
N2591 N 0.71153 0.74227 0.54343 0.0
H2592 H 0.33674 0.94248 0.64234 0.0
H2593 H 0.28645 0.99875 0.50765 0.0
H2594 H 0.34539 0.93852 0.53729 0.0
H2595 H 0.27388 0.99875 0.6123 0.0
H2596 H 0.30179 0.97028 0.51719 0.0
H2597 H 0.30753 0.9567 0.63153 0.0
C2598 C 0.3321 0.94408 0.61708 0.0
C2599 C 0.34384 0.93978 0.59072 0.0
C2600 C 0.29525 0.97618 0.538 0.0
C2601 C 0.3108 0.95628 0.57806 0.0
C2602 C 0.28635 0.9923 0.53246 0.0
C2603 C 0.27931 1.00143 0.55925 0.0
C2604 C 0.29714 0.9693 0.57053 0.0
C2605 C 0.2796 0.9925 0.59098 0.0
C2606 C 0.31554 0.95233 0.61085 0.0
C2607 C 0.33714 0.94215 0.5584 0.0
N2608 N 0.28872 0.97727 0.59579 0.0
N2609 N 0.32138 0.95055 0.553 0.0
H2610 H 0.10023 0.41598 0.53601 0.0
H2611 H 0.04109 0.28206 0.6127 0.0
H2612 H 0.09318 0.40127 0.64061 0.0
H2613 H 0.03612 0.29658 0.50983 0.0
H2614 H 0.06902 0.32557 0.62173 0.0
H2615 H 0.08586 0.37292 0.52525 0.0
C2616 C 0.096 0.4037 0.55682 0.0
C2617 C 0.09752 0.41218 0.58932 0.0
C2618 C 0.0622 0.31927 0.59706 0.0
C2619 C 0.08083 0.3626 0.57698 0.0
C2620 C 0.04633 0.2944 0.5918 0.0
C2621 C 0.03601 0.28572 0.56049 0.0
C2622 C 0.06784 0.33575 0.57087 0.0
C2623 C 0.04361 0.30247 0.53432 0.0
C2624 C 0.08775 0.37908 0.55058 0.0
C2625 C 0.09218 0.39552 0.61522 0.0
N2626 N 0.0588 0.32678 0.54021 0.0
N2627 N 0.0837 0.3714 0.60847 0.0
H2628 H 0.97033 0.61031 0.81118 0.0
H2629 H 0.07648 0.66518 0.67526 0.0
H2630 H 0.95738 0.60364 0.70619 0.0
H2631 H 0.08937 0.66938 0.7802 0.0
H2632 H 0.0329 0.6365 0.68569 0.0
H2633 H 1.01398 0.62582 0.80038 0.0
C2634 C 0.97656 0.61158 0.78596 0.0
C2635 C 0.96029 0.60607 0.75959 0.0
C2636 C 0.04537 0.6434 0.7064 0.0
C2637 C 1.0101 0.62406 0.7469 0.0
C2638 C 0.07026 0.65963 0.70036 0.0
C2639 C 0.08646 0.66995 0.72688 0.0
C2640 C 0.03675 0.63755 0.73916 0.0
C2641 C 0.07739 0.66218 0.75901 0.0
C2642 C 1.00149 0.62057 0.77972 0.0
C2643 C 0.96939 0.60811 0.7273 0.0
N2644 N 0.05318 0.64676 0.76426 0.0
N2645 N 0.99364 0.61722 0.72188 0.0
H2646 H 0.43449 0.36089 0.70392 0.0
H2647 H 0.36946 0.43003 0.78056 0.0
H2648 H 0.42521 0.36642 0.80842 0.0
H2649 H 0.37067 0.41653 0.67646 0.0
H2650 H 0.39805 0.4153 0.7904 0.0
H2651 H 0.41969 0.38933 0.69335 0.0
C2652 C 0.42972 0.36847 0.72475 0.0
C2653 C 0.43073 0.36098 0.75714 0.0
C2654 C 0.39243 0.41589 0.76533 0.0
C2655 C 0.41345 0.39347 0.74505 0.0
C2656 C 0.37614 0.42436 0.75963 0.0
C2657 C 0.36741 0.42416 0.72765 0.0
C2658 C 0.40001 0.40693 0.73891 0.0
C2659 C 0.37689 0.41693 0.70147 0.0
C2660 C 0.42122 0.38469 0.71863 0.0
C2661 C 0.42465 0.37163 0.78312 0.0
N2662 N 0.3924 0.4082 0.70775 0.0
N2663 N 0.41587 0.38705 0.77647 0.0
H2664 H 0.67429 0.06825 0.81758 0.0
H2665 H 0.61798 0.96255 0.68231 0.0
H2666 H 0.67449 0.08149 0.7131 0.0
H2667 H 0.61147 0.94933 0.78729 0.0
H2668 H 0.63284 1.00607 0.6932 0.0
H2669 H 0.64544 0.02467 0.80772 0.0
C2670 C 0.6678 0.06209 0.79275 0.0
C2671 C 0.67708 0.07837 0.7661 0.0
C2672 C 0.62776 0.99354 0.71384 0.0
C2673 C 0.64454 0.02867 0.75443 0.0
C2674 C 0.61915 0.96869 0.70754 0.0
C2675 C 0.61395 0.95244 0.7339 0.0
C2676 C 0.6312 1.00206 0.74667 0.0
C2677 C 0.6158 0.96138 0.76621 0.0
C2678 C 0.65147 0.0372 0.78702 0.0
C2679 C 0.66813 0.06942 0.73432 0.0
N2680 N 0.62459 0.98557 0.77168 0.0
N2681 N 0.6527 0.04519 0.72932 0.0
H2682 H 0.44852 0.08213 0.21557 0.0
H2683 H 0.34946 0.9547 0.27274 0.0
H2684 H 0.42558 0.06726 0.31721 0.0
H2685 H 0.39581 0.96029 0.19108 0.0
H2686 H 0.3794 0.99529 0.29046 0.0
H2687 H 0.433 0.03841 0.20666 0.0
C2688 C 0.44083 0.06968 0.23628 0.0
C2689 C 0.43809 0.07826 0.26713 0.0
C2690 C 0.38348 0.98763 0.26909 0.0
C2691 C 0.41979 0.02818 0.25683 0.0
C2692 C 0.36633 0.96424 0.25894 0.0
C2693 C 0.3702 0.9538 0.2306 0.0
C2694 C 0.40442 1.00153 0.24998 0.0
C2695 C 0.39218 0.96755 0.21323 0.0
C2696 C 0.43201 0.04474 0.23115 0.0
C2697 C 0.42805 0.06143 0.29308 0.0
N2698 N 0.40827 0.99105 0.22273 0.0
N2699 N 0.41872 0.03711 0.28713 0.0
H2700 H 0.97164 0.36555 0.314 0.0
H2701 H 0.07703 0.42146 0.17828 0.0
H2702 H 0.95832 0.36349 0.20934 0.0
H2703 H 0.09032 0.42961 0.28317 0.0
H2704 H 0.03349 0.40638 0.1891 0.0
H2705 H 1.015 0.39508 0.30377 0.0
C2706 C 0.97772 0.37175 0.28903 0.0
C2707 C 0.96152 0.36175 0.26246 0.0
C2708 C 0.04603 0.4119 0.20972 0.0
C2709 C 1.01094 0.3951 0.2504 0.0
C2710 C 0.0709 0.42065 0.20346 0.0
C2711 C 0.08719 0.42635 0.22985 0.0
C2712 C 0.03753 0.4088 0.24256 0.0
C2713 C 0.07826 0.42493 0.26208 0.0
C2714 C 1.00248 0.38848 0.2831 0.0
C2715 C 0.97035 0.37039 0.23051 0.0
N2716 N 0.05404 0.41595 0.26755 0.0
N2717 N 0.99447 0.38623 0.22533 0.0
H2718 H 0.61917 0.66505 0.17383 0.0
H2719 H 0.66803 0.60781 0.3092 0.0
H2720 H 0.6088 0.66768 0.27865 0.0
H2721 H 0.67413 0.60088 0.20422 0.0
H2722 H 0.63997 0.62348 0.29848 0.0
H2723 H 0.63299 0.63538 0.18387 0.0
C2724 C 0.61924 0.65895 0.1988 0.0
C2725 C 0.61327 0.66913 0.22545 0.0
C2726 C 0.64712 0.61811 0.2778 0.0
C2727 C 0.62932 0.63561 0.2373 0.0
C2728 C 0.66299 0.60901 0.28401 0.0
C2729 C 0.67372 0.60344 0.25759 0.0
C2730 C 0.64207 0.62168 0.24499 0.0
C2731 C 0.66661 0.60541 0.22534 0.0
C2732 C 0.62727 0.64214 0.20463 0.0
C2733 C 0.61373 0.66062 0.2574 0.0
N2734 N 0.65158 0.61469 0.21994 0.0
N2735 N 0.62196 0.64469 0.26247 0.0
loop_
_geom_bond_atom_site_label_1
_geom_bond_atom_site_label_2
_geom_bond_distance
_geom_bond_site_symmetry_2
_ccdc_geom_bond_type
Fe0 O2 1.918 . S
Fe0 O5 1.997 . S
Fe0 O6 2.002 . S
Fe0 O11 1.976 . S
Fe0 O14 1.996 . S
Fe1 O2 1.918 . S
Fe1 O9 1.997 . S
Fe1 O12 1.996 . S
Fe1 O16 1.976 . S
Fe1 O19 2.002 . S
O2 Fe0 1.918 . S
O2 Fe1 1.918 . S
O2 Fe3 1.918 . S
Fe3 O2 1.918 . S
Fe3 O4 2.002 . S
Fe3 O13 1.976 . S
Fe3 O17 1.996 . S
Fe3 O20 1.997 . S
O4 Fe3 2.002 . S
O4 C21 1.295 . S
O5 Fe0 1.997 . S
O5 C21 1.235 . S
O6 Fe0 2.002 . S
O6 C7 1.295 . S
C7 O6 1.295 . S
C7 O9 1.235 . S
C8 O13 1.287 . S
C8 O14 1.255 . S
O9 Fe1 1.997 . S
O9 C7 1.235 . S
C10 O16 1.287 . S
C10 O17 1.255 . S
O11 Fe0 1.976 . S
O11 C18 1.287 . S
O12 Fe1 1.996 . S
O12 C18 1.255 . S
O13 Fe3 1.976 . S
O13 C8 1.287 . S
O14 Fe0 1.996 . S
O14 C8 1.255 . S
C15 O19 1.295 . S
C15 O20 1.235 . S
O16 Fe1 1.976 . S
O16 C10 1.287 . S
O17 Fe3 1.996 . S
O17 C10 1.255 . S
C18 O11 1.287 . S
C18 O12 1.255 . S
O19 Fe1 2.002 . S
O19 C15 1.295 . S
O20 Fe3 1.997 . S
O20 C15 1.235 . S
C21 O4 1.295 . S
C21 O5 1.235 . S
Fe22 O24 1.918 . S
Fe22 O27 1.997 . S
Fe22 O28 2.002 . S
Fe22 O33 1.976 . S
Fe22 O36 1.996 . S
Fe23 O24 1.918 . S
Fe23 O31 1.997 . S
Fe23 O34 1.996 . S
Fe23 O38 1.976 . S
Fe23 O41 2.002 . S
O24 Fe22 1.918 . S
O24 Fe23 1.918 . S
O24 Fe25 1.918 . S
Fe25 O24 1.918 . S
Fe25 O26 2.002 . S
Fe25 O35 1.976 . S
Fe25 O39 1.996 . S
Fe25 O42 1.997 . S
O26 Fe25 2.002 . S
O26 C43 1.295 . S
O27 Fe22 1.997 . S
O27 C43 1.235 . S
O28 Fe22 2.002 . S
O28 C29 1.295 . S
C29 O28 1.295 . S
C29 O31 1.235 . S
C30 O35 1.287 . S
C30 O36 1.255 . S
O31 Fe23 1.997 . S
O31 C29 1.235 . S
C32 O38 1.287 . S
C32 O39 1.255 . S
O33 Fe22 1.976 . S
O33 C40 1.287 . S
O34 Fe23 1.996 . S
O34 C40 1.255 . S
O35 Fe25 1.976 . S
O35 C30 1.287 . S
O36 Fe22 1.996 . S
O36 C30 1.255 . S
C37 O41 1.295 . S
C37 O42 1.235 . S
O38 Fe23 1.976 . S
O38 C32 1.287 . S
O39 Fe25 1.996 . S
O39 C32 1.255 . S
C40 O33 1.287 . S
C40 O34 1.255 . S
O41 Fe23 2.002 . S
O41 C37 1.295 . S
O42 Fe25 1.997 . S
O42 C37 1.235 . S
C43 O26 1.295 . S
C43 O27 1.235 . S
Fe44 O46 1.918 . S
Fe44 O49 1.997 . S
Fe44 O50 2.002 . S
Fe44 O55 1.976 . S
Fe44 O58 1.996 . S
Fe45 O46 1.918 . S
Fe45 O53 1.997 . S
Fe45 O56 1.996 . S
Fe45 O60 1.976 . S
Fe45 O63 2.002 . S
O46 Fe44 1.918 . S
O46 Fe45 1.918 . S
O46 Fe47 1.918 . S
Fe47 O46 1.918 . S
Fe47 O48 2.002 . S
Fe47 O57 1.976 . S
Fe47 O61 1.996 . S
Fe47 O64 1.997 . S
O48 Fe47 2.002 . S
O48 C65 1.295 . S
O49 Fe44 1.997 . S
O49 C65 1.235 . S
O50 Fe44 2.002 . S
O50 C51 1.295 . S
C51 O50 1.295 . S
C51 O53 1.235 . S
C52 O57 1.287 . S
C52 O58 1.255 . S
O53 Fe45 1.997 . S
O53 C51 1.235 . S
C54 O60 1.287 . S
C54 O61 1.255 . S
O55 Fe44 1.976 . S
O55 C62 1.287 . S
O56 Fe45 1.996 . S
O56 C62 1.255 . S
O57 Fe47 1.976 . S
O57 C52 1.287 . S
O58 Fe44 1.996 . S
O58 C52 1.255 . S
C59 O63 1.295 . S
C59 O64 1.235 . S
O60 Fe45 1.976 . S
O60 C54 1.287 . S
O61 Fe47 1.996 . S
O61 C54 1.255 . S
C62 O55 1.287 . S
C62 O56 1.255 . S
O63 Fe45 2.002 . S
O63 C59 1.295 . S
O64 Fe47 1.997 . S
O64 C59 1.235 . S
C65 O48 1.295 . S
C65 O49 1.235 . S
Fe66 O68 1.918 . S
Fe66 O71 1.997 . S
Fe66 O72 2.002 . S
Fe66 O77 1.976 . S
Fe66 O80 1.996 . S
Fe67 O68 1.918 . S
Fe67 O75 1.997 . S
Fe67 O78 1.996 . S
Fe67 O82 1.976 . S
Fe67 O85 2.002 . S
O68 Fe66 1.918 . S
O68 Fe67 1.918 . S
O68 Fe69 1.918 . S
Fe69 O68 1.918 . S
Fe69 O70 2.002 . S
Fe69 O79 1.976 . S
Fe69 O83 1.996 . S
Fe69 O86 1.997 . S
O70 Fe69 2.002 . S
O70 C87 1.295 . S
O71 Fe66 1.997 . S
O71 C87 1.235 . S
O72 Fe66 2.002 . S
O72 C73 1.295 . S
C73 O72 1.295 . S
C73 O75 1.235 . S
C74 O79 1.287 . S
C74 O80 1.255 . S
O75 Fe67 1.997 . S
O75 C73 1.235 . S
C76 O82 1.287 . S
C76 O83 1.255 . S
O77 Fe66 1.976 . S
O77 C84 1.287 . S
O78 Fe67 1.996 . S
O78 C84 1.255 . S
O79 Fe69 1.976 . S
O79 C74 1.287 . S
O80 Fe66 1.996 . S
O80 C74 1.255 . S
C81 O85 1.295 . S
C81 O86 1.235 . S
O82 Fe67 1.976 . S
O82 C76 1.287 . S
O83 Fe69 1.996 . S
O83 C76 1.255 . S
C84 O77 1.287 . S
C84 O78 1.255 . S
O85 Fe67 2.002 . S
O85 C81 1.295 . S
O86 Fe69 1.997 . S
O86 C81 1.235 . S
C87 O70 1.295 . S
C87 O71 1.235 . S
Fe88 O90 1.918 . S
Fe88 O93 1.997 . S
Fe88 O94 2.002 . S
Fe88 O99 1.976 . S
Fe88 O102 1.996 . S
Fe89 O90 1.918 . S
Fe89 O97 1.997 . S
Fe89 O100 1.996 . S
Fe89 O104 1.976 . S
Fe89 O107 2.002 . S
O90 Fe88 1.918 . S
O90 Fe89 1.918 . S
O90 Fe91 1.918 . S
Fe91 O90 1.918 . S
Fe91 O92 2.002 . S
Fe91 O101 1.976 . S
Fe91 O105 1.996 . S
Fe91 O108 1.997 . S
O92 Fe91 2.002 . S
O92 C109 1.295 . S
O93 Fe88 1.997 . S
O93 C109 1.235 . S
O94 Fe88 2.002 . S
O94 C95 1.295 . S
C95 O94 1.295 . S
C95 O97 1.235 . S
C96 O101 1.287 . S
C96 O102 1.255 . S
O97 Fe89 1.997 . S
O97 C95 1.235 . S
C98 O104 1.287 . S
C98 O105 1.255 . S
O99 Fe88 1.976 . S
O99 C106 1.287 . S
O100 Fe89 1.996 . S
O100 C106 1.255 . S
O101 Fe91 1.976 . S
O101 C96 1.287 . S
O102 Fe88 1.996 . S
O102 C96 1.255 . S
C103 O107 1.295 . S
C103 O108 1.235 . S
O104 Fe89 1.976 . S
O104 C98 1.287 . S
O105 Fe91 1.996 . S
O105 C98 1.255 . S
C106 O99 1.287 . S
C106 O100 1.255 . S
O107 Fe89 2.002 . S
O107 C103 1.295 . S
O108 Fe91 1.997 . S
O108 C103 1.235 . S
C109 O92 1.295 . S
C109 O93 1.235 . S
Fe110 O112 1.918 . S
Fe110 O115 1.997 . S
Fe110 O116 2.002 . S
Fe110 O121 1.976 . S
Fe110 O124 1.996 . S
Fe111 O112 1.918 . S
Fe111 O119 1.997 . S
Fe111 O122 1.996 . S
Fe111 O126 1.976 . S
Fe111 O129 2.002 . S
O112 Fe110 1.918 . S
O112 Fe111 1.918 . S
O112 Fe113 1.918 . S
Fe113 O112 1.918 . S
Fe113 O114 2.002 . S
Fe113 O123 1.976 . S
Fe113 O127 1.996 . S
Fe113 O130 1.997 . S
O114 Fe113 2.002 . S
O114 C131 1.295 . S
O115 Fe110 1.997 . S
O115 C131 1.235 . S
O116 Fe110 2.002 . S
O116 C117 1.295 . S
C117 O116 1.295 . S
C117 O119 1.235 . S
C118 O123 1.287 . S
C118 O124 1.255 . S
O119 Fe111 1.997 . S
O119 C117 1.235 . S
C120 O126 1.287 . S
C120 O127 1.255 . S
O121 Fe110 1.976 . S
O121 C128 1.287 . S
O122 Fe111 1.996 . S
O122 C128 1.255 . S
O123 Fe113 1.976 . S
O123 C118 1.287 . S
O124 Fe110 1.996 . S
O124 C118 1.255 . S
C125 O129 1.295 . S
C125 O130 1.235 . S
O126 Fe111 1.976 . S
O126 C120 1.287 . S
O127 Fe113 1.996 . S
O127 C120 1.255 . S
C128 O121 1.287 . S
C128 O122 1.255 . S
O129 Fe111 2.002 . S
O129 C125 1.295 . S
O130 Fe113 1.997 . S
O130 C125 1.235 . S
C131 O114 1.295 . S
C131 O115 1.235 . S
Fe132 O134 1.918 . S
Fe132 O137 1.997 . S
Fe132 O138 2.002 . S
Fe132 O143 1.976 . S
Fe132 O146 1.996 . S
Fe133 O134 1.918 . S
Fe133 O141 1.997 . S
Fe133 O144 1.996 . S
Fe133 O148 1.976 . S
Fe133 O151 2.002 . S
O134 Fe132 1.918 . S
O134 Fe133 1.918 . S
O134 Fe135 1.918 . S
Fe135 O134 1.918 . S
Fe135 O136 2.002 . S
Fe135 O145 1.976 . S
Fe135 O149 1.996 . S
Fe135 O152 1.997 . S
O136 Fe135 2.002 . S
O136 C153 1.295 . S
O137 Fe132 1.997 . S
O137 C153 1.235 . S
O138 Fe132 2.002 . S
O138 C139 1.295 . S
C139 O138 1.295 . S
C139 O141 1.235 . S
C140 O145 1.287 . S
C140 O146 1.255 . S
O141 Fe133 1.997 . S
O141 C139 1.235 . S
C142 O148 1.287 . S
C142 O149 1.255 . S
O143 Fe132 1.976 . S
O143 C150 1.287 . S
O144 Fe133 1.996 . S
O144 C150 1.255 . S
O145 Fe135 1.976 . S
O145 C140 1.287 . S
O146 Fe132 1.996 . S
O146 C140 1.255 . S
C147 O151 1.295 . S
C147 O152 1.235 . S
O148 Fe133 1.976 . S
O148 C142 1.287 . S
O149 Fe135 1.996 . S
O149 C142 1.255 . S
C150 O143 1.287 . S
C150 O144 1.255 . S
O151 Fe133 2.002 . S
O151 C147 1.295 . S
O152 Fe135 1.997 . S
O152 C147 1.235 . S
C153 O136 1.295 . S
C153 O137 1.235 . S
Fe154 O156 1.918 . S
Fe154 O159 1.997 . S
Fe154 O160 2.002 . S
Fe154 O165 1.976 . S
Fe154 O168 1.996 . S
Fe155 O156 1.918 . S
Fe155 O163 1.997 . S
Fe155 O166 1.996 . S
Fe155 O170 1.976 . S
Fe155 O173 2.002 . S
O156 Fe154 1.918 . S
O156 Fe155 1.918 . S
O156 Fe157 1.918 . S
Fe157 O156 1.918 . S
Fe157 O158 2.002 . S
Fe157 O167 1.976 . S
Fe157 O171 1.996 . S
Fe157 O174 1.997 . S
O158 Fe157 2.002 . S
O158 C175 1.295 . S
O159 Fe154 1.997 . S
O159 C175 1.235 . S
O160 Fe154 2.002 . S
O160 C161 1.295 . S
C161 O160 1.295 . S
C161 O163 1.235 . S
C162 O167 1.287 . S
C162 O168 1.255 . S
O163 Fe155 1.997 . S
O163 C161 1.235 . S
C164 O170 1.287 . S
C164 O171 1.255 . S
O165 Fe154 1.976 . S
O165 C172 1.287 . S
O166 Fe155 1.996 . S
O166 C172 1.255 . S
O167 Fe157 1.976 . S
O167 C162 1.287 . S
O168 Fe154 1.996 . S
O168 C162 1.255 . S
C169 O173 1.295 . S
C169 O174 1.235 . S
O170 Fe155 1.976 . S
O170 C164 1.287 . S
O171 Fe157 1.996 . S
O171 C164 1.255 . S
C172 O165 1.287 . S
C172 O166 1.255 . S
O173 Fe155 2.002 . S
O173 C169 1.295 . S
O174 Fe157 1.997 . S
O174 C169 1.235 . S
C175 O158 1.295 . S
C175 O159 1.235 . S
Fe176 O178 1.918 . S
Fe176 O181 1.997 . S
Fe176 O182 2.002 . S
Fe176 O187 1.976 . S
Fe176 O190 1.996 . S
Fe177 O178 1.918 . S
Fe177 O185 1.997 . S
Fe177 O188 1.996 . S
Fe177 O192 1.976 . S
Fe177 O195 2.002 . S
O178 Fe176 1.918 . S
O178 Fe177 1.918 . S
O178 Fe179 1.918 . S
Fe179 O178 1.918 . S
Fe179 O180 2.002 . S
Fe179 O189 1.976 . S
Fe179 O193 1.996 . S
Fe179 O196 1.997 . S
O180 Fe179 2.002 . S
O180 C197 1.295 . S
O181 Fe176 1.997 . S
O181 C197 1.235 . S
O182 Fe176 2.002 . S
O182 C183 1.295 . S
C183 O182 1.295 . S
C183 O185 1.235 . S
C184 O189 1.287 . S
C184 O190 1.255 . S
O185 Fe177 1.997 . S
O185 C183 1.235 . S
C186 O192 1.287 . S
C186 O193 1.255 . S
O187 Fe176 1.976 . S
O187 C194 1.287 . S
O188 Fe177 1.996 . S
O188 C194 1.255 . S
O189 Fe179 1.976 . S
O189 C184 1.287 . S
O190 Fe176 1.996 . S
O190 C184 1.255 . S
C191 O195 1.295 . S
C191 O196 1.235 . S
O192 Fe177 1.976 . S
O192 C186 1.287 . S
O193 Fe179 1.996 . S
O193 C186 1.255 . S
C194 O187 1.287 . S
C194 O188 1.255 . S
O195 Fe177 2.002 . S
O195 C191 1.295 . S
O196 Fe179 1.997 . S
O196 C191 1.235 . S
C197 O180 1.295 . S
C197 O181 1.235 . S
Fe198 O200 1.918 . S
Fe198 O203 1.997 . S
Fe198 O204 2.002 . S
Fe198 O209 1.976 . S
Fe198 O212 1.996 . S
Fe199 O200 1.918 . S
Fe199 O207 1.997 . S
Fe199 O210 1.996 . S
Fe199 O214 1.976 . S
Fe199 O217 2.002 . S
O200 Fe198 1.918 . S
O200 Fe199 1.918 . S
O200 Fe201 1.918 . S
Fe201 O200 1.918 . S
Fe201 O202 2.002 . S
Fe201 O211 1.976 . S
Fe201 O215 1.996 . S
Fe201 O218 1.997 . S
O202 Fe201 2.002 . S
O202 C219 1.295 . S
O203 Fe198 1.997 . S
O203 C219 1.235 . S
O204 Fe198 2.002 . S
O204 C205 1.295 . S
C205 O204 1.295 . S
C205 O207 1.235 . S
C206 O211 1.287 . S
C206 O212 1.255 . S
O207 Fe199 1.997 . S
O207 C205 1.235 . S
C208 O214 1.287 . S
C208 O215 1.255 . S
O209 Fe198 1.976 . S
O209 C216 1.287 . S
O210 Fe199 1.996 . S
O210 C216 1.255 . S
O211 Fe201 1.976 . S
O211 C206 1.287 . S
O212 Fe198 1.996 . S
O212 C206 1.255 . S
C213 O217 1.295 . S
C213 O218 1.235 . S
O214 Fe199 1.976 . S
O214 C208 1.287 . S
O215 Fe201 1.996 . S
O215 C208 1.255 . S
C216 O209 1.287 . S
C216 O210 1.255 . S
O217 Fe199 2.002 . S
O217 C213 1.295 . S
O218 Fe201 1.997 . S
O218 C213 1.235 . S
C219 O202 1.295 . S
C219 O203 1.235 . S
Fe220 O222 1.918 . S
Fe220 O225 1.997 . S
Fe220 O226 2.002 . S
Fe220 O231 1.976 . S
Fe220 O234 1.996 . S
Fe221 O222 1.918 . S
Fe221 O229 1.997 . S
Fe221 O232 1.996 . S
Fe221 O236 1.976 . S
Fe221 O239 2.002 . S
O222 Fe220 1.918 . S
O222 Fe221 1.918 . S
O222 Fe223 1.918 . S
Fe223 O222 1.918 . S
Fe223 O224 2.002 . S
Fe223 O233 1.976 . S
Fe223 O237 1.996 . S
Fe223 O240 1.997 . S
O224 Fe223 2.002 . S
O224 C241 1.295 . S
O225 Fe220 1.997 . S
O225 C241 1.235 . S
O226 Fe220 2.002 . S
O226 C227 1.295 . S
C227 O226 1.295 . S
C227 O229 1.235 . S
C228 O233 1.287 . S
C228 O234 1.255 . S
O229 Fe221 1.997 . S
O229 C227 1.235 . S
C230 O236 1.287 . S
C230 O237 1.255 . S
O231 Fe220 1.976 . S
O231 C238 1.287 . S
O232 Fe221 1.996 . S
O232 C238 1.255 . S
O233 Fe223 1.976 . S
O233 C228 1.287 . S
O234 Fe220 1.996 . S
O234 C228 1.255 . S
C235 O239 1.295 . S
C235 O240 1.235 . S
O236 Fe221 1.976 . S
O236 C230 1.287 . S
O237 Fe223 1.996 . S
O237 C230 1.255 . S
C238 O231 1.287 . S
C238 O232 1.255 . S
O239 Fe221 2.002 . S
O239 C235 1.295 . S
O240 Fe223 1.997 . S
O240 C235 1.235 . S
C241 O224 1.295 . S
C241 O225 1.235 . S
Fe242 O244 1.918 . S
Fe242 O247 1.997 . S
Fe242 O248 2.002 . S
Fe242 O253 1.976 . S
Fe242 O256 1.996 . S
Fe243 O244 1.918 . S
Fe243 O251 1.997 . S
Fe243 O254 1.996 . S
Fe243 O258 1.976 . S
Fe243 O261 2.002 . S
O244 Fe242 1.918 . S
O244 Fe243 1.918 . S
O244 Fe245 1.918 . S
Fe245 O244 1.918 . S
Fe245 O246 2.002 . S
Fe245 O255 1.976 . S
Fe245 O259 1.996 . S
Fe245 O262 1.997 . S
O246 Fe245 2.002 . S
O246 C263 1.295 . S
O247 Fe242 1.997 . S
O247 C263 1.235 . S
O248 Fe242 2.002 . S
O248 C249 1.295 . S
C249 O248 1.295 . S
C249 O251 1.235 . S
C250 O255 1.287 . S
C250 O256 1.255 . S
O251 Fe243 1.997 . S
O251 C249 1.235 . S
C252 O258 1.287 . S
C252 O259 1.255 . S
O253 Fe242 1.976 . S
O253 C260 1.287 . S
O254 Fe243 1.996 . S
O254 C260 1.255 . S
O255 Fe245 1.976 . S
O255 C250 1.287 . S
O256 Fe242 1.996 . S
O256 C250 1.255 . S
C257 O261 1.295 . S
C257 O262 1.235 . S
O258 Fe243 1.976 . S
O258 C252 1.287 . S
O259 Fe245 1.996 . S
O259 C252 1.255 . S
C260 O253 1.287 . S
C260 O254 1.255 . S
O261 Fe243 2.002 . S
O261 C257 1.295 . S
O262 Fe245 1.997 . S
O262 C257 1.235 . S
C263 O246 1.295 . S
C263 O247 1.235 . S
Fe264 O266 1.918 . S
Fe264 O269 1.997 . S
Fe264 O270 2.002 . S
Fe264 O275 1.976 . S
Fe264 O278 1.996 . S
Fe265 O266 1.918 . S
Fe265 O273 1.997 . S
Fe265 O276 1.996 . S
Fe265 O280 1.976 . S
Fe265 O283 2.002 . S
O266 Fe264 1.918 . S
O266 Fe265 1.918 . S
O266 Fe267 1.918 . S
Fe267 O266 1.918 . S
Fe267 O268 2.002 . S
Fe267 O277 1.976 . S
Fe267 O281 1.996 . S
Fe267 O284 1.997 . S
O268 Fe267 2.002 . S
O268 C285 1.295 . S
O269 Fe264 1.997 . S
O269 C285 1.235 . S
O270 Fe264 2.002 . S
O270 C271 1.295 . S
C271 O270 1.295 . S
C271 O273 1.235 . S
C272 O277 1.287 . S
C272 O278 1.255 . S
O273 Fe265 1.997 . S
O273 C271 1.235 . S
C274 O280 1.287 . S
C274 O281 1.255 . S
O275 Fe264 1.976 . S
O275 C282 1.287 . S
O276 Fe265 1.996 . S
O276 C282 1.255 . S
O277 Fe267 1.976 . S
O277 C272 1.287 . S
O278 Fe264 1.996 . S
O278 C272 1.255 . S
C279 O283 1.295 . S
C279 O284 1.235 . S
O280 Fe265 1.976 . S
O280 C274 1.287 . S
O281 Fe267 1.996 . S
O281 C274 1.255 . S
C282 O275 1.287 . S
C282 O276 1.255 . S
O283 Fe265 2.002 . S
O283 C279 1.295 . S
O284 Fe267 1.997 . S
O284 C279 1.235 . S
C285 O268 1.295 . S
C285 O269 1.235 . S
Fe286 O288 1.918 . S
Fe286 O291 1.997 . S
Fe286 O292 2.002 . S
Fe286 O297 1.976 . S
Fe286 O300 1.996 . S
Fe287 O288 1.918 . S
Fe287 O295 1.997 . S
Fe287 O298 1.996 . S
Fe287 O302 1.976 . S
Fe287 O305 2.002 . S
O288 Fe286 1.918 . S
O288 Fe287 1.918 . S
O288 Fe289 1.918 . S
Fe289 O288 1.918 . S
Fe289 O290 2.002 . S
Fe289 O299 1.976 . S
Fe289 O303 1.996 . S
Fe289 O306 1.997 . S
O290 Fe289 2.002 . S
O290 C307 1.295 . S
O291 Fe286 1.997 . S
O291 C307 1.235 . S
O292 Fe286 2.002 . S
O292 C293 1.295 . S
C293 O292 1.295 . S
C293 O295 1.235 . S
C294 O299 1.287 . S
C294 O300 1.255 . S
O295 Fe287 1.997 . S
O295 C293 1.235 . S
C296 O302 1.287 . S
C296 O303 1.255 . S
O297 Fe286 1.976 . S
O297 C304 1.287 . S
O298 Fe287 1.996 . S
O298 C304 1.255 . S
O299 Fe289 1.976 . S
O299 C294 1.287 . S
O300 Fe286 1.996 . S
O300 C294 1.255 . S
C301 O305 1.295 . S
C301 O306 1.235 . S
O302 Fe287 1.976 . S
O302 C296 1.287 . S
O303 Fe289 1.996 . S
O303 C296 1.255 . S
C304 O297 1.287 . S
C304 O298 1.255 . S
O305 Fe287 2.002 . S
O305 C301 1.295 . S
O306 Fe289 1.997 . S
O306 C301 1.235 . S
C307 O290 1.295 . S
C307 O291 1.235 . S
Fe308 O310 1.918 . S
Fe308 O313 1.997 . S
Fe308 O314 2.002 . S
Fe308 O319 1.976 . S
Fe308 O322 1.996 . S
Fe309 O310 1.918 . S
Fe309 O317 1.997 . S
Fe309 O320 1.996 . S
Fe309 O324 1.976 . S
Fe309 O327 2.002 . S
O310 Fe308 1.918 . S
O310 Fe309 1.918 . S
O310 Fe311 1.918 . S
Fe311 O310 1.918 . S
Fe311 O312 2.002 . S
Fe311 O321 1.976 . S
Fe311 O325 1.996 . S
Fe311 O328 1.997 . S
O312 Fe311 2.002 . S
O312 C329 1.295 . S
O313 Fe308 1.997 . S
O313 C329 1.235 . S
O314 Fe308 2.002 . S
O314 C315 1.295 . S
C315 O314 1.295 . S
C315 O317 1.235 . S
C316 O321 1.287 . S
C316 O322 1.255 . S
O317 Fe309 1.997 . S
O317 C315 1.235 . S
C318 O324 1.287 . S
C318 O325 1.255 . S
O319 Fe308 1.976 . S
O319 C326 1.287 . S
O320 Fe309 1.996 . S
O320 C326 1.255 . S
O321 Fe311 1.976 . S
O321 C316 1.287 . S
O322 Fe308 1.996 . S
O322 C316 1.255 . S
C323 O327 1.295 . S
C323 O328 1.235 . S
O324 Fe309 1.976 . S
O324 C318 1.287 . S
O325 Fe311 1.996 . S
O325 C318 1.255 . S
C326 O319 1.287 . S
C326 O320 1.255 . S
O327 Fe309 2.002 . S
O327 C323 1.295 . S
O328 Fe311 1.997 . S
O328 C323 1.235 . S
C329 O312 1.295 . S
C329 O313 1.235 . S
Fe330 O332 1.918 . S
Fe330 O335 1.997 . S
Fe330 O336 2.002 . S
Fe330 O341 1.976 . S
Fe330 O344 1.996 . S
Fe331 O332 1.918 . S
Fe331 O339 1.997 . S
Fe331 O342 1.996 . S
Fe331 O346 1.976 . S
Fe331 O349 2.002 . S
O332 Fe330 1.918 . S
O332 Fe331 1.918 . S
O332 Fe333 1.918 . S
Fe333 O332 1.918 . S
Fe333 O334 2.002 . S
Fe333 O343 1.976 . S
Fe333 O347 1.996 . S
Fe333 O350 1.997 . S
O334 Fe333 2.002 . S
O334 C351 1.295 . S
O335 Fe330 1.997 . S
O335 C351 1.235 . S
O336 Fe330 2.002 . S
O336 C337 1.295 . S
C337 O336 1.295 . S
C337 O339 1.235 . S
C338 O343 1.287 . S
C338 O344 1.255 . S
O339 Fe331 1.997 . S
O339 C337 1.235 . S
C340 O346 1.287 . S
C340 O347 1.255 . S
O341 Fe330 1.976 . S
O341 C348 1.287 . S
O342 Fe331 1.996 . S
O342 C348 1.255 . S
O343 Fe333 1.976 . S
O343 C338 1.287 . S
O344 Fe330 1.996 . S
O344 C338 1.255 . S
C345 O349 1.295 . S
C345 O350 1.235 . S
O346 Fe331 1.976 . S
O346 C340 1.287 . S
O347 Fe333 1.996 . S
O347 C340 1.255 . S
C348 O341 1.287 . S
C348 O342 1.255 . S
O349 Fe331 2.002 . S
O349 C345 1.295 . S
O350 Fe333 1.997 . S
O350 C345 1.235 . S
C351 O334 1.295 . S
C351 O335 1.235 . S
Fe352 O354 1.918 . S
Fe352 O357 1.997 . S
Fe352 O358 2.002 . S
Fe352 O363 1.976 . S
Fe352 O366 1.996 . S
Fe353 O354 1.918 . S
Fe353 O361 1.997 . S
Fe353 O364 1.996 . S
Fe353 O368 1.976 . S
Fe353 O371 2.002 . S
O354 Fe352 1.918 . S
O354 Fe353 1.918 . S
O354 Fe355 1.918 . S
Fe355 O354 1.918 . S
Fe355 O356 2.002 . S
Fe355 O365 1.976 . S
Fe355 O369 1.996 . S
Fe355 O372 1.997 . S
O356 Fe355 2.002 . S
O356 C373 1.295 . S
O357 Fe352 1.997 . S
O357 C373 1.235 . S
O358 Fe352 2.002 . S
O358 C359 1.295 . S
C359 O358 1.295 . S
C359 O361 1.235 . S
C360 O365 1.287 . S
C360 O366 1.255 . S
O361 Fe353 1.997 . S
O361 C359 1.235 . S
C362 O368 1.287 . S
C362 O369 1.255 . S
O363 Fe352 1.976 . S
O363 C370 1.287 . S
O364 Fe353 1.996 . S
O364 C370 1.255 . S
O365 Fe355 1.976 . S
O365 C360 1.287 . S
O366 Fe352 1.996 . S
O366 C360 1.255 . S
C367 O371 1.295 . S
C367 O372 1.235 . S
O368 Fe353 1.976 . S
O368 C362 1.287 . S
O369 Fe355 1.996 . S
O369 C362 1.255 . S
C370 O363 1.287 . S
C370 O364 1.255 . S
O371 Fe353 2.002 . S
O371 C367 1.295 . S
O372 Fe355 1.997 . S
O372 C367 1.235 . S
C373 O356 1.295 . S
C373 O357 1.235 . S
Fe374 O376 1.918 . S
Fe374 O379 1.997 . S
Fe374 O380 2.002 . S
Fe374 O385 1.976 . S
Fe374 O388 1.996 . S
Fe375 O376 1.918 . S
Fe375 O383 1.997 . S
Fe375 O386 1.996 . S
Fe375 O390 1.976 . S
Fe375 O393 2.002 . S
O376 Fe374 1.918 . S
O376 Fe375 1.918 . S
O376 Fe377 1.918 . S
Fe377 O376 1.918 . S
Fe377 O378 2.002 . S
Fe377 O387 1.976 . S
Fe377 O391 1.996 . S
Fe377 O394 1.997 . S
O378 Fe377 2.002 . S
O378 C395 1.295 . S
O379 Fe374 1.997 . S
O379 C395 1.235 . S
O380 Fe374 2.002 . S
O380 C381 1.295 . S
C381 O380 1.295 . S
C381 O383 1.235 . S
C382 O387 1.287 . S
C382 O388 1.255 . S
O383 Fe375 1.997 . S
O383 C381 1.235 . S
C384 O390 1.287 . S
C384 O391 1.255 . S
O385 Fe374 1.976 . S
O385 C392 1.287 . S
O386 Fe375 1.996 . S
O386 C392 1.255 . S
O387 Fe377 1.976 . S
O387 C382 1.287 . S
O388 Fe374 1.996 . S
O388 C382 1.255 . S
C389 O393 1.295 . S
C389 O394 1.235 . S
O390 Fe375 1.976 . S
O390 C384 1.287 . S
O391 Fe377 1.996 . S
O391 C384 1.255 . S
C392 O385 1.287 . S
C392 O386 1.255 . S
O393 Fe375 2.002 . S
O393 C389 1.295 . S
O394 Fe377 1.997 . S
O394 C389 1.235 . S
C395 O378 1.295 . S
C395 O379 1.235 . S
Fe396 O398 1.918 . S
Fe396 O401 1.997 . S
Fe396 O402 2.002 . S
Fe396 O407 1.976 . S
Fe396 O410 1.996 . S
Fe397 O398 1.918 . S
Fe397 O405 1.997 . S
Fe397 O408 1.996 . S
Fe397 O412 1.976 . S
Fe397 O415 2.002 . S
O398 Fe396 1.918 . S
O398 Fe397 1.918 . S
O398 Fe399 1.918 . S
Fe399 O398 1.918 . S
Fe399 O400 2.002 . S
Fe399 O409 1.976 . S
Fe399 O413 1.996 . S
Fe399 O416 1.997 . S
O400 Fe399 2.002 . S
O400 C417 1.295 . S
O401 Fe396 1.997 . S
O401 C417 1.235 . S
O402 Fe396 2.002 . S
O402 C403 1.295 . S
C403 O402 1.295 . S
C403 O405 1.235 . S
C404 O409 1.287 . S
C404 O410 1.255 . S
O405 Fe397 1.997 . S
O405 C403 1.235 . S
C406 O412 1.287 . S
C406 O413 1.255 . S
O407 Fe396 1.976 . S
O407 C414 1.287 . S
O408 Fe397 1.996 . S
O408 C414 1.255 . S
O409 Fe399 1.976 . S
O409 C404 1.287 . S
O410 Fe396 1.996 . S
O410 C404 1.255 . S
C411 O415 1.295 . S
C411 O416 1.235 . S
O412 Fe397 1.976 . S
O412 C406 1.287 . S
O413 Fe399 1.996 . S
O413 C406 1.255 . S
C414 O407 1.287 . S
C414 O408 1.255 . S
O415 Fe397 2.002 . S
O415 C411 1.295 . S
O416 Fe399 1.997 . S
O416 C411 1.235 . S
C417 O400 1.295 . S
C417 O401 1.235 . S
Fe418 O420 1.918 . S
Fe418 O423 1.997 . S
Fe418 O424 2.002 . S
Fe418 O429 1.976 . S
Fe418 O432 1.996 . S
Fe419 O420 1.918 . S
Fe419 O427 1.997 . S
Fe419 O430 1.996 . S
Fe419 O434 1.976 . S
Fe419 O437 2.002 . S
O420 Fe418 1.918 . S
O420 Fe419 1.918 . S
O420 Fe421 1.918 . S
Fe421 O420 1.918 . S
Fe421 O422 2.002 . S
Fe421 O431 1.976 . S
Fe421 O435 1.996 . S
Fe421 O438 1.997 . S
O422 Fe421 2.002 . S
O422 C439 1.295 . S
O423 Fe418 1.997 . S
O423 C439 1.235 . S
O424 Fe418 2.002 . S
O424 C425 1.295 . S
C425 O424 1.295 . S
C425 O427 1.235 . S
C426 O431 1.287 . S
C426 O432 1.255 . S
O427 Fe419 1.997 . S
O427 C425 1.235 . S
C428 O434 1.287 . S
C428 O435 1.255 . S
O429 Fe418 1.976 . S
O429 C436 1.287 . S
O430 Fe419 1.996 . S
O430 C436 1.255 . S
O431 Fe421 1.976 . S
O431 C426 1.287 . S
O432 Fe418 1.996 . S
O432 C426 1.255 . S
C433 O437 1.295 . S
C433 O438 1.235 . S
O434 Fe419 1.976 . S
O434 C428 1.287 . S
O435 Fe421 1.996 . S
O435 C428 1.255 . S
C436 O429 1.287 . S
C436 O430 1.255 . S
O437 Fe419 2.002 . S
O437 C433 1.295 . S
O438 Fe421 1.997 . S
O438 C433 1.235 . S
C439 O422 1.295 . S
C439 O423 1.235 . S
Fe440 O442 1.918 . S
Fe440 O445 1.997 . S
Fe440 O446 2.002 . S
Fe440 O451 1.976 . S
Fe440 O454 1.996 . S
Fe441 O442 1.918 . S
Fe441 O449 1.997 . S
Fe441 O452 1.996 . S
Fe441 O456 1.976 . S
Fe441 O459 2.002 . S
O442 Fe440 1.918 . S
O442 Fe441 1.918 . S
O442 Fe443 1.918 . S
Fe443 O442 1.918 . S
Fe443 O444 2.002 . S
Fe443 O453 1.976 . S
Fe443 O457 1.996 . S
Fe443 O460 1.997 . S
O444 Fe443 2.002 . S
O444 C461 1.295 . S
O445 Fe440 1.997 . S
O445 C461 1.235 . S
O446 Fe440 2.002 . S
O446 C447 1.295 . S
C447 O446 1.295 . S
C447 O449 1.235 . S
C448 O453 1.287 . S
C448 O454 1.255 . S
O449 Fe441 1.997 . S
O449 C447 1.235 . S
C450 O456 1.287 . S
C450 O457 1.255 . S
O451 Fe440 1.976 . S
O451 C458 1.287 . S
O452 Fe441 1.996 . S
O452 C458 1.255 . S
O453 Fe443 1.976 . S
O453 C448 1.287 . S
O454 Fe440 1.996 . S
O454 C448 1.255 . S
C455 O459 1.295 . S
C455 O460 1.235 . S
O456 Fe441 1.976 . S
O456 C450 1.287 . S
O457 Fe443 1.996 . S
O457 C450 1.255 . S
C458 O451 1.287 . S
C458 O452 1.255 . S
O459 Fe441 2.002 . S
O459 C455 1.295 . S
O460 Fe443 1.997 . S
O460 C455 1.235 . S
C461 O444 1.295 . S
C461 O445 1.235 . S
Fe462 O464 1.918 . S
Fe462 O467 1.997 . S
Fe462 O468 2.002 . S
Fe462 O473 1.976 . S
Fe462 O476 1.996 . S
Fe463 O464 1.918 . S
Fe463 O471 1.997 . S
Fe463 O474 1.996 . S
Fe463 O478 1.976 . S
Fe463 O481 2.002 . S
O464 Fe462 1.918 . S
O464 Fe463 1.918 . S
O464 Fe465 1.918 . S
Fe465 O464 1.918 . S
Fe465 O466 2.002 . S
Fe465 O475 1.976 . S
Fe465 O479 1.996 . S
Fe465 O482 1.997 . S
O466 Fe465 2.002 . S
O466 C483 1.295 . S
O467 Fe462 1.997 . S
O467 C483 1.235 . S
O468 Fe462 2.002 . S
O468 C469 1.295 . S
C469 O468 1.295 . S
C469 O471 1.235 . S
C470 O475 1.287 . S
C470 O476 1.255 . S
O471 Fe463 1.997 . S
O471 C469 1.235 . S
C472 O478 1.287 . S
C472 O479 1.255 . S
O473 Fe462 1.976 . S
O473 C480 1.287 . S
O474 Fe463 1.996 . S
O474 C480 1.255 . S
O475 Fe465 1.976 . S
O475 C470 1.287 . S
O476 Fe462 1.996 . S
O476 C470 1.255 . S
C477 O481 1.295 . S
C477 O482 1.235 . S
O478 Fe463 1.976 . S
O478 C472 1.287 . S
O479 Fe465 1.996 . S
O479 C472 1.255 . S
C480 O473 1.287 . S
C480 O474 1.255 . S
O481 Fe463 2.002 . S
O481 C477 1.295 . S
O482 Fe465 1.997 . S
O482 C477 1.235 . S
C483 O466 1.295 . S
C483 O467 1.235 . S
Fe484 O486 1.918 . S
Fe484 O489 1.997 . S
Fe484 O490 2.002 . S
Fe484 O495 1.976 . S
Fe484 O498 1.996 . S
Fe485 O486 1.918 . S
Fe485 O493 1.997 . S
Fe485 O496 1.996 . S
Fe485 O500 1.976 . S
Fe485 O503 2.002 . S
O486 Fe484 1.918 . S
O486 Fe485 1.918 . S
O486 Fe487 1.918 . S
Fe487 O486 1.918 . S
Fe487 O488 2.002 . S
Fe487 O497 1.976 . S
Fe487 O501 1.996 . S
Fe487 O504 1.997 . S
O488 Fe487 2.002 . S
O488 C505 1.295 . S
O489 Fe484 1.997 . S
O489 C505 1.235 . S
O490 Fe484 2.002 . S
O490 C491 1.295 . S
C491 O490 1.295 . S
C491 O493 1.235 . S
C492 O497 1.287 . S
C492 O498 1.255 . S
O493 Fe485 1.997 . S
O493 C491 1.235 . S
C494 O500 1.287 . S
C494 O501 1.255 . S
O495 Fe484 1.976 . S
O495 C502 1.287 . S
O496 Fe485 1.996 . S
O496 C502 1.255 . S
O497 Fe487 1.976 . S
O497 C492 1.287 . S
O498 Fe484 1.996 . S
O498 C492 1.255 . S
C499 O503 1.295 . S
C499 O504 1.235 . S
O500 Fe485 1.976 . S
O500 C494 1.287 . S
O501 Fe487 1.996 . S
O501 C494 1.255 . S
C502 O495 1.287 . S
C502 O496 1.255 . S
O503 Fe485 2.002 . S
O503 C499 1.295 . S
O504 Fe487 1.997 . S
O504 C499 1.235 . S
C505 O488 1.295 . S
C505 O489 1.235 . S
Fe506 O508 1.918 . S
Fe506 O511 1.997 . S
Fe506 O512 2.002 . S
Fe506 O517 1.976 . S
Fe506 O520 1.996 . S
Fe507 O508 1.918 . S
Fe507 O515 1.997 . S
Fe507 O518 1.996 . S
Fe507 O522 1.976 . S
Fe507 O525 2.002 . S
O508 Fe506 1.918 . S
O508 Fe507 1.918 . S
O508 Fe509 1.918 . S
Fe509 O508 1.918 . S
Fe509 O510 2.002 . S
Fe509 O519 1.976 . S
Fe509 O523 1.996 . S
Fe509 O526 1.997 . S
O510 Fe509 2.002 . S
O510 C527 1.295 . S
O511 Fe506 1.997 . S
O511 C527 1.235 . S
O512 Fe506 2.002 . S
O512 C513 1.295 . S
C513 O512 1.295 . S
C513 O515 1.235 . S
C514 O519 1.287 . S
C514 O520 1.255 . S
O515 Fe507 1.997 . S
O515 C513 1.235 . S
C516 O522 1.287 . S
C516 O523 1.255 . S
O517 Fe506 1.976 . S
O517 C524 1.287 . S
O518 Fe507 1.996 . S
O518 C524 1.255 . S
O519 Fe509 1.976 . S
O519 C514 1.287 . S
O520 Fe506 1.996 . S
O520 C514 1.255 . S
C521 O525 1.295 . S
C521 O526 1.235 . S
O522 Fe507 1.976 . S
O522 C516 1.287 . S
O523 Fe509 1.996 . S
O523 C516 1.255 . S
C524 O517 1.287 . S
C524 O518 1.255 . S
O525 Fe507 2.002 . S
O525 C521 1.295 . S
O526 Fe509 1.997 . S
O526 C521 1.235 . S
C527 O510 1.295 . S
C527 O511 1.235 . S
Fe528 O530 1.918 . S
Fe528 O533 1.997 . S
Fe528 O534 2.002 . S
Fe528 O539 1.976 . S
Fe528 O542 1.996 . S
Fe529 O530 1.918 . S
Fe529 O537 1.997 . S
Fe529 O540 1.996 . S
Fe529 O544 1.976 . S
Fe529 O547 2.002 . S
O530 Fe528 1.918 . S
O530 Fe529 1.918 . S
O530 Fe531 1.918 . S
Fe531 O530 1.918 . S
Fe531 O532 2.002 . S
Fe531 O541 1.976 . S
Fe531 O545 1.996 . S
Fe531 O548 1.997 . S
O532 Fe531 2.002 . S
O532 C549 1.295 . S
O533 Fe528 1.997 . S
O533 C549 1.235 . S
O534 Fe528 2.002 . S
O534 C535 1.295 . S
C535 O534 1.295 . S
C535 O537 1.235 . S
C536 O541 1.287 . S
C536 O542 1.255 . S
O537 Fe529 1.997 . S
O537 C535 1.235 . S
C538 O544 1.287 . S
C538 O545 1.255 . S
O539 Fe528 1.976 . S
O539 C546 1.287 . S
O540 Fe529 1.996 . S
O540 C546 1.255 . S
O541 Fe531 1.976 . S
O541 C536 1.287 . S
O542 Fe528 1.996 . S
O542 C536 1.255 . S
C543 O547 1.295 . S
C543 O548 1.235 . S
O544 Fe529 1.976 . S
O544 C538 1.287 . S
O545 Fe531 1.996 . S
O545 C538 1.255 . S
C546 O539 1.287 . S
C546 O540 1.255 . S
O547 Fe529 2.002 . S
O547 C543 1.295 . S
O548 Fe531 1.997 . S
O548 C543 1.235 . S
C549 O532 1.295 . S
C549 O533 1.235 . S
Fe550 O552 1.918 . S
Fe550 O555 1.997 . S
Fe550 O556 2.002 . S
Fe550 O561 1.976 . S
Fe550 O564 1.996 . S
Fe551 O552 1.918 . S
Fe551 O559 1.997 . S
Fe551 O562 1.996 . S
Fe551 O566 1.976 . S
Fe551 O569 2.002 . S
O552 Fe550 1.918 . S
O552 Fe551 1.918 . S
O552 Fe553 1.918 . S
Fe553 O552 1.918 . S
Fe553 O554 2.002 . S
Fe553 O563 1.976 . S
Fe553 O567 1.996 . S
Fe553 O570 1.997 . S
O554 Fe553 2.002 . S
O554 C571 1.295 . S
O555 Fe550 1.997 . S
O555 C571 1.235 . S
O556 Fe550 2.002 . S
O556 C557 1.295 . S
C557 O556 1.295 . S
C557 O559 1.235 . S
C558 O563 1.287 . S
C558 O564 1.255 . S
O559 Fe551 1.997 . S
O559 C557 1.235 . S
C560 O566 1.287 . S
C560 O567 1.255 . S
O561 Fe550 1.976 . S
O561 C568 1.287 . S
O562 Fe551 1.996 . S
O562 C568 1.255 . S
O563 Fe553 1.976 . S
O563 C558 1.287 . S
O564 Fe550 1.996 . S
O564 C558 1.255 . S
C565 O569 1.295 . S
C565 O570 1.235 . S
O566 Fe551 1.976 . S
O566 C560 1.287 . S
O567 Fe553 1.996 . S
O567 C560 1.255 . S
C568 O561 1.287 . S
C568 O562 1.255 . S
O569 Fe551 2.002 . S
O569 C565 1.295 . S
O570 Fe553 1.997 . S
O570 C565 1.235 . S
C571 O554 1.295 . S
C571 O555 1.235 . S
Fe572 O574 1.918 . S
Fe572 O577 1.997 . S
Fe572 O578 2.002 . S
Fe572 O583 1.976 . S
Fe572 O586 1.996 . S
Fe573 O574 1.918 . S
Fe573 O581 1.997 . S
Fe573 O584 1.996 . S
Fe573 O588 1.976 . S
Fe573 O591 2.002 . S
O574 Fe572 1.918 . S
O574 Fe573 1.918 . S
O574 Fe575 1.918 . S
Fe575 O574 1.918 . S
Fe575 O576 2.002 . S
Fe575 O585 1.976 . S
Fe575 O589 1.996 . S
Fe575 O592 1.997 . S
O576 Fe575 2.002 . S
O576 C593 1.295 . S
O577 Fe572 1.997 . S
O577 C593 1.235 . S
O578 Fe572 2.002 . S
O578 C579 1.295 . S
C579 O578 1.295 . S
C579 O581 1.235 . S
C580 O585 1.287 . S
C580 O586 1.255 . S
O581 Fe573 1.997 . S
O581 C579 1.235 . S
C582 O588 1.287 . S
C582 O589 1.255 . S
O583 Fe572 1.976 . S
O583 C590 1.287 . S
O584 Fe573 1.996 . S
O584 C590 1.255 . S
O585 Fe575 1.976 . S
O585 C580 1.287 . S
O586 Fe572 1.996 . S
O586 C580 1.255 . S
C587 O591 1.295 . S
C587 O592 1.235 . S
O588 Fe573 1.976 . S
O588 C582 1.287 . S
O589 Fe575 1.996 . S
O589 C582 1.255 . S
C590 O583 1.287 . S
C590 O584 1.255 . S
O591 Fe573 2.002 . S
O591 C587 1.295 . S
O592 Fe575 1.997 . S
O592 C587 1.235 . S
C593 O576 1.295 . S
C593 O577 1.235 . S
Fe594 O596 1.918 . S
Fe594 O599 1.997 . S
Fe594 O600 2.002 . S
Fe594 O605 1.976 . S
Fe594 O608 1.996 . S
Fe595 O596 1.918 . S
Fe595 O603 1.997 . S
Fe595 O606 1.996 . S
Fe595 O610 1.976 . S
Fe595 O613 2.002 . S
O596 Fe594 1.918 . S
O596 Fe595 1.918 . S
O596 Fe597 1.918 . S
Fe597 O596 1.918 . S
Fe597 O598 2.002 . S
Fe597 O607 1.976 . S
Fe597 O611 1.996 . S
Fe597 O614 1.997 . S
O598 Fe597 2.002 . S
O598 C615 1.295 . S
O599 Fe594 1.997 . S
O599 C615 1.235 . S
O600 Fe594 2.002 . S
O600 C601 1.295 . S
C601 O600 1.295 . S
C601 O603 1.235 . S
C602 O607 1.287 . S
C602 O608 1.255 . S
O603 Fe595 1.997 . S
O603 C601 1.235 . S
C604 O610 1.287 . S
C604 O611 1.255 . S
O605 Fe594 1.976 . S
O605 C612 1.287 . S
O606 Fe595 1.996 . S
O606 C612 1.255 . S
O607 Fe597 1.976 . S
O607 C602 1.287 . S
O608 Fe594 1.996 . S
O608 C602 1.255 . S
C609 O613 1.295 . S
C609 O614 1.235 . S
O610 Fe595 1.976 . S
O610 C604 1.287 . S
O611 Fe597 1.996 . S
O611 C604 1.255 . S
C612 O605 1.287 . S
C612 O606 1.255 . S
O613 Fe595 2.002 . S
O613 C609 1.295 . S
O614 Fe597 1.997 . S
O614 C609 1.235 . S
C615 O598 1.295 . S
C615 O599 1.235 . S
Fe616 O618 1.918 . S
Fe616 O621 1.997 . S
Fe616 O622 2.002 . S
Fe616 O627 1.976 . S
Fe616 O630 1.996 . S
Fe617 O618 1.918 . S
Fe617 O625 1.997 . S
Fe617 O628 1.996 . S
Fe617 O632 1.976 . S
Fe617 O635 2.002 . S
O618 Fe616 1.918 . S
O618 Fe617 1.918 . S
O618 Fe619 1.918 . S
Fe619 O618 1.918 . S
Fe619 O620 2.002 . S
Fe619 O629 1.976 . S
Fe619 O633 1.996 . S
Fe619 O636 1.997 . S
O620 Fe619 2.002 . S
O620 C637 1.295 . S
O621 Fe616 1.997 . S
O621 C637 1.235 . S
O622 Fe616 2.002 . S
O622 C623 1.295 . S
C623 O622 1.295 . S
C623 O625 1.235 . S
C624 O629 1.287 . S
C624 O630 1.255 . S
O625 Fe617 1.997 . S
O625 C623 1.235 . S
C626 O632 1.287 . S
C626 O633 1.255 . S
O627 Fe616 1.976 . S
O627 C634 1.287 . S
O628 Fe617 1.996 . S
O628 C634 1.255 . S
O629 Fe619 1.976 . S
O629 C624 1.287 . S
O630 Fe616 1.996 . S
O630 C624 1.255 . S
C631 O635 1.295 . S
C631 O636 1.235 . S
O632 Fe617 1.976 . S
O632 C626 1.287 . S
O633 Fe619 1.996 . S
O633 C626 1.255 . S
C634 O627 1.287 . S
C634 O628 1.255 . S
O635 Fe617 2.002 . S
O635 C631 1.295 . S
O636 Fe619 1.997 . S
O636 C631 1.235 . S
C637 O620 1.295 . S
C637 O621 1.235 . S
Fe638 O640 1.918 . S
Fe638 O643 1.997 . S
Fe638 O644 2.002 . S
Fe638 O649 1.976 . S
Fe638 O652 1.996 . S
Fe639 O640 1.918 . S
Fe639 O647 1.997 . S
Fe639 O650 1.996 . S
Fe639 O654 1.976 . S
Fe639 O657 2.002 . S
O640 Fe638 1.918 . S
O640 Fe639 1.918 . S
O640 Fe641 1.918 . S
Fe641 O640 1.918 . S
Fe641 O642 2.002 . S
Fe641 O651 1.976 . S
Fe641 O655 1.996 . S
Fe641 O658 1.997 . S
O642 Fe641 2.002 . S
O642 C659 1.295 . S
O643 Fe638 1.997 . S
O643 C659 1.235 . S
O644 Fe638 2.002 . S
O644 C645 1.295 . S
C645 O644 1.295 . S
C645 O647 1.235 . S
C646 O651 1.287 . S
C646 O652 1.255 . S
O647 Fe639 1.997 . S
O647 C645 1.235 . S
C648 O654 1.287 . S
C648 O655 1.255 . S
O649 Fe638 1.976 . S
O649 C656 1.287 . S
O650 Fe639 1.996 . S
O650 C656 1.255 . S
O651 Fe641 1.976 . S
O651 C646 1.287 . S
O652 Fe638 1.996 . S
O652 C646 1.255 . S
C653 O657 1.295 . S
C653 O658 1.235 . S
O654 Fe639 1.976 . S
O654 C648 1.287 . S
O655 Fe641 1.996 . S
O655 C648 1.255 . S
C656 O649 1.287 . S
C656 O650 1.255 . S
O657 Fe639 2.002 . S
O657 C653 1.295 . S
O658 Fe641 1.997 . S
O658 C653 1.235 . S
C659 O642 1.295 . S
C659 O643 1.235 . S
Fe660 O662 1.918 . S
Fe660 O665 1.997 . S
Fe660 O666 2.002 . S
Fe660 O671 1.976 . S
Fe660 O674 1.996 . S
Fe661 O662 1.918 . S
Fe661 O669 1.997 . S
Fe661 O672 1.996 . S
Fe661 O676 1.976 . S
Fe661 O679 2.002 . S
O662 Fe660 1.918 . S
O662 Fe661 1.918 . S
O662 Fe663 1.918 . S
Fe663 O662 1.918 . S
Fe663 O664 2.002 . S
Fe663 O673 1.976 . S
Fe663 O677 1.996 . S
Fe663 O680 1.997 . S
O664 Fe663 2.002 . S
O664 C681 1.295 . S
O665 Fe660 1.997 . S
O665 C681 1.235 . S
O666 Fe660 2.002 . S
O666 C667 1.295 . S
C667 O666 1.295 . S
C667 O669 1.235 . S
C668 O673 1.287 . S
C668 O674 1.255 . S
O669 Fe661 1.997 . S
O669 C667 1.235 . S
C670 O676 1.287 . S
C670 O677 1.255 . S
O671 Fe660 1.976 . S
O671 C678 1.287 . S
O672 Fe661 1.996 . S
O672 C678 1.255 . S
O673 Fe663 1.976 . S
O673 C668 1.287 . S
O674 Fe660 1.996 . S
O674 C668 1.255 . S
C675 O679 1.295 . S
C675 O680 1.235 . S
O676 Fe661 1.976 . S
O676 C670 1.287 . S
O677 Fe663 1.996 . S
O677 C670 1.255 . S
C678 O671 1.287 . S
C678 O672 1.255 . S
O679 Fe661 2.002 . S
O679 C675 1.295 . S
O680 Fe663 1.997 . S
O680 C675 1.235 . S
C681 O664 1.295 . S
C681 O665 1.235 . S
Fe682 O684 1.918 . S
Fe682 O687 1.997 . S
Fe682 O688 2.002 . S
Fe682 O693 1.976 . S
Fe682 O696 1.996 . S
Fe683 O684 1.918 . S
Fe683 O691 1.997 . S
Fe683 O694 1.996 . S
Fe683 O698 1.976 . S
Fe683 O701 2.002 . S
O684 Fe682 1.918 . S
O684 Fe683 1.918 . S
O684 Fe685 1.918 . S
Fe685 O684 1.918 . S
Fe685 O686 2.002 . S
Fe685 O695 1.976 . S
Fe685 O699 1.996 . S
Fe685 O702 1.997 . S
O686 Fe685 2.002 . S
O686 C703 1.295 . S
O687 Fe682 1.997 . S
O687 C703 1.235 . S
O688 Fe682 2.002 . S
O688 C689 1.295 . S
C689 O688 1.295 . S
C689 O691 1.235 . S
C690 O695 1.287 . S
C690 O696 1.255 . S
O691 Fe683 1.997 . S
O691 C689 1.235 . S
C692 O698 1.287 . S
C692 O699 1.255 . S
O693 Fe682 1.976 . S
O693 C700 1.287 . S
O694 Fe683 1.996 . S
O694 C700 1.255 . S
O695 Fe685 1.976 . S
O695 C690 1.287 . S
O696 Fe682 1.996 . S
O696 C690 1.255 . S
C697 O701 1.295 . S
C697 O702 1.235 . S
O698 Fe683 1.976 . S
O698 C692 1.287 . S
O699 Fe685 1.996 . S
O699 C692 1.255 . S
C700 O693 1.287 . S
C700 O694 1.255 . S
O701 Fe683 2.002 . S
O701 C697 1.295 . S
O702 Fe685 1.997 . S
O702 C697 1.235 . S
C703 O686 1.295 . S
C703 O687 1.235 . S
Fe704 O706 1.918 . S
Fe704 O709 1.997 . S
Fe704 O710 2.002 . S
Fe704 O715 1.976 . S
Fe704 O718 1.996 . S
Fe705 O706 1.918 . S
Fe705 O713 1.997 . S
Fe705 O716 1.996 . S
Fe705 O720 1.976 . S
Fe705 O723 2.002 . S
O706 Fe704 1.918 . S
O706 Fe705 1.918 . S
O706 Fe707 1.918 . S
Fe707 O706 1.918 . S
Fe707 O708 2.002 . S
Fe707 O717 1.976 . S
Fe707 O721 1.996 . S
Fe707 O724 1.997 . S
O708 Fe707 2.002 . S
O708 C725 1.295 . S
O709 Fe704 1.997 . S
O709 C725 1.235 . S
O710 Fe704 2.002 . S
O710 C711 1.295 . S
C711 O710 1.295 . S
C711 O713 1.235 . S
C712 O717 1.287 . S
C712 O718 1.255 . S
O713 Fe705 1.997 . S
O713 C711 1.235 . S
C714 O720 1.287 . S
C714 O721 1.255 . S
O715 Fe704 1.976 . S
O715 C722 1.287 . S
O716 Fe705 1.996 . S
O716 C722 1.255 . S
O717 Fe707 1.976 . S
O717 C712 1.287 . S
O718 Fe704 1.996 . S
O718 C712 1.255 . S
C719 O723 1.295 . S
C719 O724 1.235 . S
O720 Fe705 1.976 . S
O720 C714 1.287 . S
O721 Fe707 1.996 . S
O721 C714 1.255 . S
C722 O715 1.287 . S
C722 O716 1.255 . S
O723 Fe705 2.002 . S
O723 C719 1.295 . S
O724 Fe707 1.997 . S
O724 C719 1.235 . S
C725 O708 1.295 . S
C725 O709 1.235 . S
Fe726 O728 1.918 . S
Fe726 O731 1.997 . S
Fe726 O732 2.002 . S
Fe726 O737 1.976 . S
Fe726 O740 1.996 . S
Fe727 O728 1.918 . S
Fe727 O735 1.997 . S
Fe727 O738 1.996 . S
Fe727 O742 1.976 . S
Fe727 O745 2.002 . S
O728 Fe726 1.918 . S
O728 Fe727 1.918 . S
O728 Fe729 1.918 . S
Fe729 O728 1.918 . S
Fe729 O730 2.002 . S
Fe729 O739 1.976 . S
Fe729 O743 1.996 . S
Fe729 O746 1.997 . S
O730 Fe729 2.002 . S
O730 C747 1.295 . S
O731 Fe726 1.997 . S
O731 C747 1.235 . S
O732 Fe726 2.002 . S
O732 C733 1.295 . S
C733 O732 1.295 . S
C733 O735 1.235 . S
C734 O739 1.287 . S
C734 O740 1.255 . S
O735 Fe727 1.997 . S
O735 C733 1.235 . S
C736 O742 1.287 . S
C736 O743 1.255 . S
O737 Fe726 1.976 . S
O737 C744 1.287 . S
O738 Fe727 1.996 . S
O738 C744 1.255 . S
O739 Fe729 1.976 . S
O739 C734 1.287 . S
O740 Fe726 1.996 . S
O740 C734 1.255 . S
C741 O745 1.295 . S
C741 O746 1.235 . S
O742 Fe727 1.976 . S
O742 C736 1.287 . S
O743 Fe729 1.996 . S
O743 C736 1.255 . S
C744 O737 1.287 . S
C744 O738 1.255 . S
O745 Fe727 2.002 . S
O745 C741 1.295 . S
O746 Fe729 1.997 . S
O746 C741 1.235 . S
C747 O730 1.295 . S
C747 O731 1.235 . S
Fe748 O750 1.918 . S
Fe748 O753 1.997 . S
Fe748 O754 2.002 . S
Fe748 O759 1.976 . S
Fe748 O762 1.996 . S
Fe749 O750 1.918 . S
Fe749 O757 1.997 . S
Fe749 O760 1.996 . S
Fe749 O764 1.976 . S
Fe749 O767 2.002 . S
O750 Fe748 1.918 . S
O750 Fe749 1.918 . S
O750 Fe751 1.918 . S
Fe751 O750 1.918 . S
Fe751 O752 2.002 . S
Fe751 O761 1.976 . S
Fe751 O765 1.996 . S
Fe751 O768 1.997 . S
O752 Fe751 2.002 . S
O752 C769 1.295 . S
O753 Fe748 1.997 . S
O753 C769 1.235 . S
O754 Fe748 2.002 . S
O754 C755 1.295 . S
C755 O754 1.295 . S
C755 O757 1.235 . S
C756 O761 1.287 . S
C756 O762 1.255 . S
O757 Fe749 1.997 . S
O757 C755 1.235 . S
C758 O764 1.287 . S
C758 O765 1.255 . S
O759 Fe748 1.976 . S
O759 C766 1.287 . S
O760 Fe749 1.996 . S
O760 C766 1.255 . S
O761 Fe751 1.976 . S
O761 C756 1.287 . S
O762 Fe748 1.996 . S
O762 C756 1.255 . S
C763 O767 1.295 . S
C763 O768 1.235 . S
O764 Fe749 1.976 . S
O764 C758 1.287 . S
O765 Fe751 1.996 . S
O765 C758 1.255 . S
C766 O759 1.287 . S
C766 O760 1.255 . S
O767 Fe749 2.002 . S
O767 C763 1.295 . S
O768 Fe751 1.997 . S
O768 C763 1.235 . S
C769 O752 1.295 . S
C769 O753 1.235 . S
Fe770 O772 1.918 . S
Fe770 O775 1.997 . S
Fe770 O776 2.002 . S
Fe770 O781 1.976 . S
Fe770 O784 1.996 . S
Fe771 O772 1.918 . S
Fe771 O779 1.997 . S
Fe771 O782 1.996 . S
Fe771 O786 1.976 . S
Fe771 O789 2.002 . S
O772 Fe770 1.918 . S
O772 Fe771 1.918 . S
O772 Fe773 1.918 . S
Fe773 O772 1.918 . S
Fe773 O774 2.002 . S
Fe773 O783 1.976 . S
Fe773 O787 1.996 . S
Fe773 O790 1.997 . S
O774 Fe773 2.002 . S
O774 C791 1.295 . S
O775 Fe770 1.997 . S
O775 C791 1.235 . S
O776 Fe770 2.002 . S
O776 C777 1.295 . S
C777 O776 1.295 . S
C777 O779 1.235 . S
C778 O783 1.287 . S
C778 O784 1.255 . S
O779 Fe771 1.997 . S
O779 C777 1.235 . S
C780 O786 1.287 . S
C780 O787 1.255 . S
O781 Fe770 1.976 . S
O781 C788 1.287 . S
O782 Fe771 1.996 . S
O782 C788 1.255 . S
O783 Fe773 1.976 . S
O783 C778 1.287 . S
O784 Fe770 1.996 . S
O784 C778 1.255 . S
C785 O789 1.295 . S
C785 O790 1.235 . S
O786 Fe771 1.976 . S
O786 C780 1.287 . S
O787 Fe773 1.996 . S
O787 C780 1.255 . S
C788 O781 1.287 . S
C788 O782 1.255 . S
O789 Fe771 2.002 . S
O789 C785 1.295 . S
O790 Fe773 1.997 . S
O790 C785 1.235 . S
C791 O774 1.295 . S
C791 O775 1.235 . S
H792 C798 0.930 . S
H793 C802 0.930 . S
H794 C807 0.929 . S
H795 C805 0.929 . S
H796 C800 0.929 . S
H797 C806 0.929 . S
C798 H792 0.930 . S
C798 C799 1.367 . S
C798 C806 1.378 . S
C799 C798 1.367 . S
C799 C807 1.433 1_554 S
C800 H796 0.929 . S
C800 C802 1.378 . S
C800 C804 1.350 . S
C801 C804 1.463 . S
C801 C806 1.350 1_556 S
C801 N809 1.427 . S
C802 H793 0.930 . S
C802 C800 1.378 . S
C802 C803 1.367 . S
C803 C802 1.367 . S
C803 C805 1.433 . S
C804 C800 1.350 . S
C804 C801 1.463 . S
C804 N808 1.427 . S
C805 H795 0.929 . S
C805 C803 1.433 . S
C805 N808 1.384 . S
C806 H797 0.929 . S
C806 C798 1.378 . S
C806 C801 1.350 1_554 S
C807 H794 0.929 . S
C807 C799 1.433 1_556 S
C807 N809 1.384 . S
N808 C804 1.427 . S
N808 C805 1.384 . S
N809 C801 1.427 . S
N809 C807 1.384 . S
H810 C816 0.930 . S
H811 C820 0.930 . S
H812 C825 0.929 . S
H813 C823 0.929 . S
H814 C818 0.929 . S
H815 C824 0.929 . S
C816 H810 0.930 . S
C816 C817 1.367 . S
C816 C824 1.378 . S
C817 C816 1.367 . S
C817 C825 1.433 . S
C818 H814 0.929 . S
C818 C820 1.378 . S
C818 C822 1.350 1_554 S
C819 C822 1.463 . S
C819 C824 1.350 . S
C819 N827 1.427 . S
C820 H811 0.930 . S
C820 C818 1.378 . S
C820 C821 1.367 . S
C821 C820 1.367 . S
C821 C823 1.433 1_554 S
C822 C818 1.350 1_556 S
C822 C819 1.463 . S
C822 N826 1.427 . S
C823 H813 0.929 . S
C823 C821 1.433 1_556 S
C823 N826 1.384 . S
C824 H815 0.929 . S
C824 C816 1.378 . S
C824 C819 1.350 . S
C825 H812 0.929 . S
C825 C817 1.433 . S
C825 N827 1.384 . S
N826 C822 1.427 . S
N826 C823 1.384 . S
N827 C819 1.427 . S
N827 C825 1.384 . S
H828 C834 0.930 . S
H829 C838 0.930 . S
H830 C843 0.929 . S
H831 C841 0.929 . S
H832 C836 0.929 . S
H833 C842 0.929 . S
C834 H828 0.930 . S
C834 C835 1.367 . S
C834 C842 1.378 . S
C835 C834 1.367 . S
C835 C843 1.433 . S
C836 H832 0.929 . S
C836 C838 1.378 1_556 S
C836 C840 1.350 . S
C837 C840 1.463 . S
C837 C842 1.350 . S
C837 N845 1.427 . S
C838 H829 0.930 . S
C838 C836 1.378 1_554 S
C838 C839 1.367 . S
C839 C838 1.367 . S
C839 C841 1.433 . S
C840 C836 1.350 . S
C840 C837 1.463 . S
C840 N844 1.427 . S
C841 H831 0.929 . S
C841 C839 1.433 . S
C841 N844 1.384 1_554 S
C842 H833 0.929 . S
C842 C834 1.378 . S
C842 C837 1.350 . S
C843 H830 0.929 . S
C843 C835 1.433 . S
C843 N845 1.384 . S
N844 C840 1.427 . S
N844 C841 1.384 1_556 S
N845 C837 1.427 . S
N845 C843 1.384 . S
H846 C852 0.930 . S
H847 C856 0.930 . S
H848 C861 0.929 . S
H849 C859 0.929 . S
H850 C854 0.929 . S
H851 C860 0.929 . S
C852 H846 0.930 . S
C852 C853 1.367 . S
C852 C860 1.378 . S
C853 C852 1.367 . S
C853 C861 1.433 . S
C854 H850 0.929 . S
C854 C856 1.378 . S
C854 C858 1.350 . S
C855 C858 1.463 . S
C855 C860 1.350 . S
C855 N863 1.427 . S
C856 H847 0.930 . S
C856 C854 1.378 . S
C856 C857 1.367 . S
C857 C856 1.367 . S
C857 C859 1.433 . S
C858 C854 1.350 . S
C858 C855 1.463 . S
C858 N862 1.427 . S
C859 H849 0.929 . S
C859 C857 1.433 . S
C859 N862 1.384 . S
C860 H851 0.929 . S
C860 C852 1.378 . S
C860 C855 1.350 . S
C861 H848 0.929 . S
C861 C853 1.433 . S
C861 N863 1.384 . S
N862 C858 1.427 . S
N862 C859 1.384 . S
N863 C855 1.427 . S
N863 C861 1.384 . S
H864 C870 0.930 . S
H865 C874 0.930 . S
H866 C879 0.929 . S
H867 C877 0.929 . S
H868 C872 0.929 . S
H869 C878 0.929 . S
C870 H864 0.930 . S
C870 C871 1.367 . S
C870 C878 1.378 . S
C871 C870 1.367 . S
C871 C879 1.433 . S
C872 H868 0.929 . S
C872 C874 1.378 . S
C872 C876 1.350 . S
C873 C876 1.463 . S
C873 C878 1.350 . S
C873 N881 1.427 . S
C874 H865 0.930 . S
C874 C872 1.378 . S
C874 C875 1.367 . S
C875 C874 1.367 . S
C875 C877 1.433 . S
C876 C872 1.350 . S
C876 C873 1.463 . S
C876 N880 1.427 . S
C877 H867 0.929 . S
C877 C875 1.433 . S
C877 N880 1.384 . S
C878 H869 0.929 . S
C878 C870 1.378 . S
C878 C873 1.350 . S
C879 H866 0.929 . S
C879 C871 1.433 . S
C879 N881 1.384 . S
N880 C876 1.427 . S
N880 C877 1.384 . S
N881 C873 1.427 . S
N881 C879 1.384 . S
H882 C888 0.930 . S
H883 C892 0.930 . S
H884 C897 0.929 . S
H885 C895 0.929 . S
H886 C890 0.929 . S
H887 C896 0.929 . S
C888 H882 0.930 . S
C888 C889 1.367 . S
C888 C896 1.378 . S
C889 C888 1.367 . S
C889 C897 1.433 . S
C890 H886 0.929 . S
C890 C892 1.378 . S
C890 C894 1.350 . S
C891 C894 1.463 . S
C891 C896 1.350 . S
C891 N899 1.427 . S
C892 H883 0.930 . S
C892 C890 1.378 . S
C892 C893 1.367 . S
C893 C892 1.367 . S
C893 C895 1.433 . S
C894 C890 1.350 . S
C894 C891 1.463 . S
C894 N898 1.427 . S
C895 H885 0.929 . S
C895 C893 1.433 . S
C895 N898 1.384 . S
C896 H887 0.929 . S
C896 C888 1.378 . S
C896 C891 1.350 . S
C897 H884 0.929 . S
C897 C889 1.433 . S
C897 N899 1.384 . S
N898 C894 1.427 . S
N898 C895 1.384 . S
N899 C891 1.427 . S
N899 C897 1.384 . S
H900 C906 0.930 . S
H901 C910 0.930 . S
H902 C915 0.929 . S
H903 C913 0.929 . S
H904 C908 0.929 . S
H905 C914 0.929 1_556 S
C906 H900 0.930 . S
C906 C907 1.367 . S
C906 C914 1.378 . S
C907 C906 1.367 . S
C907 C915 1.433 . S
C908 H904 0.929 . S
C908 C910 1.378 . S
C908 C912 1.350 . S
C909 C912 1.463 . S
C909 C914 1.350 . S
C909 N917 1.427 . S
C910 H901 0.930 . S
C910 C908 1.378 . S
C910 C911 1.367 1_554 S
C911 C910 1.367 1_556 S
C911 C913 1.433 . S
C912 C908 1.350 . S
C912 C909 1.463 . S
C912 N916 1.427 1_554 S
C913 H903 0.929 . S
C913 C911 1.433 . S
C913 N916 1.384 . S
C914 H905 0.929 1_554 S
C914 C906 1.378 . S
C914 C909 1.350 . S
C915 H902 0.929 . S
C915 C907 1.433 . S
C915 N917 1.384 . S
N916 C912 1.427 1_556 S
N916 C913 1.384 . S
N917 C909 1.427 . S
N917 C915 1.384 . S
H918 C924 0.930 . S
H919 C928 0.930 . S
H920 C933 0.929 . S
H921 C931 0.929 . S
H922 C926 0.929 1_556 S
H923 C932 0.929 . S
C924 H918 0.930 . S
C924 C925 1.367 1_554 S
C924 C932 1.378 . S
C925 C924 1.367 1_556 S
C925 C933 1.433 . S
C926 H922 0.929 1_554 S
C926 C928 1.378 . S
C926 C930 1.350 . S
C927 C930 1.463 . S
C927 C932 1.350 . S
C927 N935 1.427 1_554 S
C928 H919 0.930 . S
C928 C926 1.378 . S
C928 C929 1.367 . S
C929 C928 1.367 . S
C929 C931 1.433 . S
C930 C926 1.350 . S
C930 C927 1.463 . S
C930 N934 1.427 . S
C931 H921 0.929 . S
C931 C929 1.433 . S
C931 N934 1.384 . S
C932 H923 0.929 . S
C932 C924 1.378 . S
C932 C927 1.350 . S
C933 H920 0.929 . S
C933 C925 1.433 . S
C933 N935 1.384 . S
N934 C930 1.427 . S
N934 C931 1.384 . S
N935 C927 1.427 1_556 S
N935 C933 1.384 . S
H936 C942 0.930 . S
H937 C946 0.930 . S
H938 C951 0.929 . S
H939 C949 0.929 . S
H940 C944 0.929 . S
H941 C950 0.929 1_556 S
C942 H936 0.930 . S
C942 C943 1.367 . S
C942 C950 1.378 . S
C943 C942 1.367 . S
C943 C951 1.433 . S
C944 H940 0.929 . S
C944 C946 1.378 . S
C944 C948 1.350 . S
C945 C948 1.463 . S
C945 C950 1.350 . S
C945 N953 1.427 . S
C946 H937 0.930 . S
C946 C944 1.378 . S
C946 C947 1.367 1_554 S
C947 C946 1.367 1_556 S
C947 C949 1.433 . S
C948 C944 1.350 . S
C948 C945 1.463 . S
C948 N952 1.427 1_554 S
C949 H939 0.929 . S
C949 C947 1.433 . S
C949 N952 1.384 . S
C950 H941 0.929 1_554 S
C950 C942 1.378 . S
C950 C945 1.350 . S
C951 H938 0.929 . S
C951 C943 1.433 . S
C951 N953 1.384 . S
N952 C948 1.427 1_556 S
N952 C949 1.384 . S
N953 C945 1.427 . S
N953 C951 1.384 . S
H954 C960 0.930 . S
H955 C964 0.930 . S
H956 C969 0.929 . S
H957 C967 0.929 . S
H958 C962 0.929 . S
H959 C968 0.929 . S
C960 H954 0.930 . S
C960 C961 1.367 . S
C960 C968 1.378 . S
C961 C960 1.367 . S
C961 C969 1.433 . S
C962 H958 0.929 . S
C962 C964 1.378 . S
C962 C966 1.350 . S
C963 C966 1.463 . S
C963 C968 1.350 . S
C963 N971 1.427 . S
C964 H955 0.930 . S
C964 C962 1.378 . S
C964 C965 1.367 . S
C965 C964 1.367 . S
C965 C967 1.433 . S
C966 C962 1.350 . S
C966 C963 1.463 . S
C966 N970 1.427 . S
C967 H957 0.929 . S
C967 C965 1.433 . S
C967 N970 1.384 . S
C968 H959 0.929 . S
C968 C960 1.378 . S
C968 C963 1.350 . S
C969 H956 0.929 . S
C969 C961 1.433 . S
C969 N971 1.384 . S
N970 C966 1.427 . S
N970 C967 1.384 . S
N971 C963 1.427 . S
N971 C969 1.384 . S
H972 C978 0.930 . S
H973 C982 0.930 . S
H974 C987 0.929 . S
H975 C985 0.929 . S
H976 C980 0.929 . S
H977 C986 0.929 . S
C978 H972 0.930 . S
C978 C979 1.367 . S
C978 C986 1.378 . S
C979 C978 1.367 . S
C979 C987 1.433 . S
C980 H976 0.929 . S
C980 C982 1.378 . S
C980 C984 1.350 . S
C981 C984 1.463 . S
C981 C986 1.350 . S
C981 N989 1.427 . S
C982 H973 0.930 . S
C982 C980 1.378 . S
C982 C983 1.367 . S
C983 C982 1.367 . S
C983 C985 1.433 . S
C984 C980 1.350 . S
C984 C981 1.463 . S
C984 N988 1.427 . S
C985 H975 0.929 . S
C985 C983 1.433 . S
C985 N988 1.384 . S
C986 H977 0.929 . S
C986 C978 1.378 . S
C986 C981 1.350 . S
C987 H974 0.929 . S
C987 C979 1.433 . S
C987 N989 1.384 . S
N988 C984 1.427 . S
N988 C985 1.384 . S
N989 C981 1.427 . S
N989 C987 1.384 . S
H990 C996 0.930 . S
H991 C1000 0.930 . S
H992 C1005 0.929 . S
H993 C1003 0.929 . S
H994 C998 0.929 . S
H995 C1004 0.929 . S
C996 H990 0.930 . S
C996 C997 1.367 . S
C996 C1004 1.378 . S
C997 C996 1.367 . S
C997 C1005 1.433 . S
C998 H994 0.929 . S
C998 C1000 1.378 . S
C998 C1002 1.350 . S
C999 C1002 1.463 . S
C999 C1004 1.350 . S
C999 N1007 1.427 . S
C1000 H991 0.930 . S
C1000 C998 1.378 . S
C1000 C1001 1.367 . S
C1001 C1000 1.367 . S
C1001 C1003 1.433 . S
C1002 C998 1.350 . S
C1002 C999 1.463 . S
C1002 N1006 1.427 . S
C1003 H993 0.929 . S
C1003 C1001 1.433 . S
C1003 N1006 1.384 . S
C1004 H995 0.929 . S
C1004 C996 1.378 . S
C1004 C999 1.350 . S
C1005 H992 0.929 . S
C1005 C997 1.433 . S
C1005 N1007 1.384 . S
N1006 C1002 1.427 . S
N1006 C1003 1.384 . S
N1007 C999 1.427 . S
N1007 C1005 1.384 . S
H1008 C1014 0.930 . S
H1009 C1018 0.930 . S
H1010 C1023 0.929 . S
H1011 C1021 0.929 . S
H1012 C1016 0.929 . S
H1013 C1022 0.929 . S
C1014 H1008 0.930 . S
C1014 C1015 1.367 . S
C1014 C1022 1.378 . S
C1015 C1014 1.367 . S
C1015 C1023 1.433 . S
C1016 H1012 0.929 . S
C1016 C1018 1.378 . S
C1016 C1020 1.350 . S
C1017 C1020 1.463 . S
C1017 C1022 1.350 . S
C1017 N1025 1.427 . S
C1018 H1009 0.930 . S
C1018 C1016 1.378 . S
C1018 C1019 1.367 . S
C1019 C1018 1.367 . S
C1019 C1021 1.433 . S
C1020 C1016 1.350 . S
C1020 C1017 1.463 . S
C1020 N1024 1.427 . S
C1021 H1011 0.929 . S
C1021 C1019 1.433 . S
C1021 N1024 1.384 . S
C1022 H1013 0.929 . S
C1022 C1014 1.378 . S
C1022 C1017 1.350 . S
C1023 H1010 0.929 . S
C1023 C1015 1.433 . S
C1023 N1025 1.384 . S
N1024 C1020 1.427 . S
N1024 C1021 1.384 . S
N1025 C1017 1.427 . S
N1025 C1023 1.384 . S
H1026 C1032 0.930 . S
H1027 C1036 0.930 . S
H1028 C1041 0.929 . S
H1029 C1039 0.929 . S
H1030 C1034 0.929 . S
H1031 C1040 0.929 . S
C1032 H1026 0.930 . S
C1032 C1033 1.367 . S
C1032 C1040 1.378 . S
C1033 C1032 1.367 . S
C1033 C1041 1.433 . S
C1034 H1030 0.929 . S
C1034 C1036 1.378 . S
C1034 C1038 1.350 . S
C1035 C1038 1.463 . S
C1035 C1040 1.350 . S
C1035 N1043 1.427 . S
C1036 H1027 0.930 . S
C1036 C1034 1.378 . S
C1036 C1037 1.367 . S
C1037 C1036 1.367 . S
C1037 C1039 1.433 . S
C1038 C1034 1.350 . S
C1038 C1035 1.463 . S
C1038 N1042 1.427 . S
C1039 H1029 0.929 . S
C1039 C1037 1.433 . S
C1039 N1042 1.384 . S
C1040 H1031 0.929 . S
C1040 C1032 1.378 . S
C1040 C1035 1.350 . S
C1041 H1028 0.929 . S
C1041 C1033 1.433 . S
C1041 N1043 1.384 . S
N1042 C1038 1.427 . S
N1042 C1039 1.384 . S
N1043 C1035 1.427 . S
N1043 C1041 1.384 . S
H1044 C1050 0.930 . S
H1045 C1054 0.930 . S
H1046 C1059 0.929 . S
H1047 C1057 0.929 . S
H1048 C1052 0.929 . S
H1049 C1058 0.929 . S
C1050 H1044 0.930 . S
C1050 C1051 1.367 . S
C1050 C1058 1.378 . S
C1051 C1050 1.367 . S
C1051 C1059 1.433 . S
C1052 H1048 0.929 . S
C1052 C1054 1.378 . S
C1052 C1056 1.350 . S
C1053 C1056 1.463 . S
C1053 C1058 1.350 . S
C1053 N1061 1.427 . S
C1054 H1045 0.930 . S
C1054 C1052 1.378 . S
C1054 C1055 1.367 . S
C1055 C1054 1.367 . S
C1055 C1057 1.433 . S
C1056 C1052 1.350 . S
C1056 C1053 1.463 . S
C1056 N1060 1.427 . S
C1057 H1047 0.929 . S
C1057 C1055 1.433 . S
C1057 N1060 1.384 . S
C1058 H1049 0.929 . S
C1058 C1050 1.378 . S
C1058 C1053 1.350 . S
C1059 H1046 0.929 . S
C1059 C1051 1.433 . S
C1059 N1061 1.384 . S
N1060 C1056 1.427 . S
N1060 C1057 1.384 . S
N1061 C1053 1.427 . S
N1061 C1059 1.384 . S
H1062 C1068 0.930 . S
H1063 C1072 0.930 . S
H1064 C1077 0.929 . S
H1065 C1075 0.929 . S
H1066 C1070 0.929 . S
H1067 C1076 0.929 . S
C1068 H1062 0.930 . S
C1068 C1069 1.367 . S
C1068 C1076 1.378 . S
C1069 C1068 1.367 . S
C1069 C1077 1.433 . S
C1070 H1066 0.929 . S
C1070 C1072 1.378 . S
C1070 C1074 1.350 . S
C1071 C1074 1.463 . S
C1071 C1076 1.350 . S
C1071 N1079 1.427 . S
C1072 H1063 0.930 . S
C1072 C1070 1.378 . S
C1072 C1073 1.367 . S
C1073 C1072 1.367 . S
C1073 C1075 1.433 . S
C1074 C1070 1.350 . S
C1074 C1071 1.463 . S
C1074 N1078 1.427 . S
C1075 H1065 0.929 . S
C1075 C1073 1.433 . S
C1075 N1078 1.384 . S
C1076 H1067 0.929 . S
C1076 C1068 1.378 . S
C1076 C1071 1.350 . S
C1077 H1064 0.929 . S
C1077 C1069 1.433 . S
C1077 N1079 1.384 . S
N1078 C1074 1.427 . S
N1078 C1075 1.384 . S
N1079 C1071 1.427 . S
N1079 C1077 1.384 . S
H1080 C1086 0.930 . S
H1081 C1090 0.930 . S
H1082 C1095 0.929 . S
H1083 C1093 0.929 . S
H1084 C1088 0.929 . S
H1085 C1094 0.929 . S
C1086 H1080 0.930 . S
C1086 C1087 1.367 . S
C1086 C1094 1.378 . S
C1087 C1086 1.367 . S
C1087 C1095 1.433 . S
C1088 H1084 0.929 . S
C1088 C1090 1.378 . S
C1088 C1092 1.350 . S
C1089 C1092 1.463 . S
C1089 C1094 1.350 . S
C1089 N1097 1.427 . S
C1090 H1081 0.930 . S
C1090 C1088 1.378 . S
C1090 C1091 1.367 . S
C1091 C1090 1.367 . S
C1091 C1093 1.433 . S
C1092 C1088 1.350 . S
C1092 C1089 1.463 . S
C1092 N1096 1.427 . S
C1093 H1083 0.929 . S
C1093 C1091 1.433 . S
C1093 N1096 1.384 . S
C1094 H1085 0.929 . S
C1094 C1086 1.378 . S
C1094 C1089 1.350 . S
C1095 H1082 0.929 . S
C1095 C1087 1.433 . S
C1095 N1097 1.384 . S
N1096 C1092 1.427 . S
N1096 C1093 1.384 . S
N1097 C1089 1.427 . S
N1097 C1095 1.384 . S
H1098 C1104 0.930 . S
H1099 C1108 0.930 . S
H1100 C1113 0.929 . S
H1101 C1111 0.929 . S
H1102 C1106 0.929 . S
H1103 C1112 0.929 . S
C1104 H1098 0.930 . S
C1104 C1105 1.367 . S
C1104 C1112 1.378 . S
C1105 C1104 1.367 . S
C1105 C1113 1.433 . S
C1106 H1102 0.929 . S
C1106 C1108 1.378 . S
C1106 C1110 1.350 . S
C1107 C1110 1.463 . S
C1107 C1112 1.350 . S
C1107 N1115 1.427 . S
C1108 H1099 0.930 . S
C1108 C1106 1.378 . S
C1108 C1109 1.367 . S
C1109 C1108 1.367 . S
C1109 C1111 1.433 . S
C1110 C1106 1.350 . S
C1110 C1107 1.463 . S
C1110 N1114 1.427 . S
C1111 H1101 0.929 . S
C1111 C1109 1.433 . S
C1111 N1114 1.384 . S
C1112 H1103 0.929 . S
C1112 C1104 1.378 . S
C1112 C1107 1.350 . S
C1113 H1100 0.929 . S
C1113 C1105 1.433 . S
C1113 N1115 1.384 . S
N1114 C1110 1.427 . S
N1114 C1111 1.384 . S
N1115 C1107 1.427 . S
N1115 C1113 1.384 . S
H1116 C1122 0.930 . S
H1117 C1126 0.930 . S
H1118 C1131 0.929 . S
H1119 C1129 0.929 . S
H1120 C1124 0.929 . S
H1121 C1130 0.929 . S
C1122 H1116 0.930 . S
C1122 C1123 1.367 . S
C1122 C1130 1.378 . S
C1123 C1122 1.367 . S
C1123 C1131 1.433 . S
C1124 H1120 0.929 . S
C1124 C1126 1.378 . S
C1124 C1128 1.350 . S
C1125 C1128 1.463 . S
C1125 C1130 1.350 . S
C1125 N1133 1.427 . S
C1126 H1117 0.930 . S
C1126 C1124 1.378 . S
C1126 C1127 1.367 . S
C1127 C1126 1.367 . S
C1127 C1129 1.433 . S
C1128 C1124 1.350 . S
C1128 C1125 1.463 . S
C1128 N1132 1.427 . S
C1129 H1119 0.929 . S
C1129 C1127 1.433 . S
C1129 N1132 1.384 . S
C1130 H1121 0.929 . S
C1130 C1122 1.378 . S
C1130 C1125 1.350 . S
C1131 H1118 0.929 . S
C1131 C1123 1.433 . S
C1131 N1133 1.384 . S
N1132 C1128 1.427 . S
N1132 C1129 1.384 . S
N1133 C1125 1.427 . S
N1133 C1131 1.384 . S
H1134 C1140 0.930 . S
H1135 C1144 0.930 . S
H1136 C1149 0.929 . S
H1137 C1147 0.929 . S
H1138 C1142 0.929 . S
H1139 C1148 0.929 . S
C1140 H1134 0.930 . S
C1140 C1141 1.367 . S
C1140 C1148 1.378 . S
C1141 C1140 1.367 . S
C1141 C1149 1.433 . S
C1142 H1138 0.929 . S
C1142 C1144 1.378 . S
C1142 C1146 1.350 . S
C1143 C1146 1.463 . S
C1143 C1148 1.350 . S
C1143 N1151 1.427 . S
C1144 H1135 0.930 . S
C1144 C1142 1.378 . S
C1144 C1145 1.367 . S
C1145 C1144 1.367 . S
C1145 C1147 1.433 . S
C1146 C1142 1.350 . S
C1146 C1143 1.463 . S
C1146 N1150 1.427 . S
C1147 H1137 0.929 . S
C1147 C1145 1.433 . S
C1147 N1150 1.384 . S
C1148 H1139 0.929 . S
C1148 C1140 1.378 . S
C1148 C1143 1.350 . S
C1149 H1136 0.929 . S
C1149 C1141 1.433 . S
C1149 N1151 1.384 . S
N1150 C1146 1.427 . S
N1150 C1147 1.384 . S
N1151 C1143 1.427 . S
N1151 C1149 1.384 . S
H1152 C1158 0.930 . S
H1153 C1162 0.930 . S
H1154 C1167 0.929 . S
H1155 C1165 0.929 . S
H1156 C1160 0.929 . S
H1157 C1166 0.929 . S
C1158 H1152 0.930 . S
C1158 C1159 1.367 . S
C1158 C1166 1.378 . S
C1159 C1158 1.367 . S
C1159 C1167 1.433 . S
C1160 H1156 0.929 . S
C1160 C1162 1.378 . S
C1160 C1164 1.350 . S
C1161 C1164 1.463 . S
C1161 C1166 1.350 . S
C1161 N1169 1.427 . S
C1162 H1153 0.930 . S
C1162 C1160 1.378 . S
C1162 C1163 1.367 . S
C1163 C1162 1.367 . S
C1163 C1165 1.433 . S
C1164 C1160 1.350 . S
C1164 C1161 1.463 . S
C1164 N1168 1.427 . S
C1165 H1155 0.929 . S
C1165 C1163 1.433 . S
C1165 N1168 1.384 . S
C1166 H1157 0.929 . S
C1166 C1158 1.378 . S
C1166 C1161 1.350 . S
C1167 H1154 0.929 . S
C1167 C1159 1.433 . S
C1167 N1169 1.384 . S
N1168 C1164 1.427 . S
N1168 C1165 1.384 . S
N1169 C1161 1.427 . S
N1169 C1167 1.384 . S
H1170 C1176 0.930 . S
H1171 C1180 0.930 . S
H1172 C1185 0.929 . S
H1173 C1183 0.929 . S
H1174 C1178 0.929 . S
H1175 C1184 0.929 . S
C1176 H1170 0.930 . S
C1176 C1177 1.367 . S
C1176 C1184 1.378 . S
C1177 C1176 1.367 . S
C1177 C1185 1.433 . S
C1178 H1174 0.929 . S
C1178 C1180 1.378 . S
C1178 C1182 1.350 . S
C1179 C1182 1.463 . S
C1179 C1184 1.350 . S
C1179 N1187 1.427 . S
C1180 H1171 0.930 . S
C1180 C1178 1.378 . S
C1180 C1181 1.367 . S
C1181 C1180 1.367 . S
C1181 C1183 1.433 . S
C1182 C1178 1.350 . S
C1182 C1179 1.463 . S
C1182 N1186 1.427 . S
C1183 H1173 0.929 . S
C1183 C1181 1.433 . S
C1183 N1186 1.384 . S
C1184 H1175 0.929 . S
C1184 C1176 1.378 . S
C1184 C1179 1.350 . S
C1185 H1172 0.929 . S
C1185 C1177 1.433 . S
C1185 N1187 1.384 . S
N1186 C1182 1.427 . S
N1186 C1183 1.384 . S
N1187 C1179 1.427 . S
N1187 C1185 1.384 . S
H1188 C1194 0.930 . S
H1189 C1198 0.930 . S
H1190 C1203 0.929 . S
H1191 C1201 0.929 . S
H1192 C1196 0.929 . S
H1193 C1202 0.929 . S
C1194 H1188 0.930 . S
C1194 C1195 1.367 . S
C1194 C1202 1.378 . S
C1195 C1194 1.367 . S
C1195 C1203 1.433 . S
C1196 H1192 0.929 . S
C1196 C1198 1.378 . S
C1196 C1200 1.350 . S
C1197 C1200 1.463 . S
C1197 C1202 1.350 . S
C1197 N1205 1.427 . S
C1198 H1189 0.930 . S
C1198 C1196 1.378 . S
C1198 C1199 1.367 . S
C1199 C1198 1.367 . S
C1199 C1201 1.433 . S
C1200 C1196 1.350 . S
C1200 C1197 1.463 . S
C1200 N1204 1.427 . S
C1201 H1191 0.929 . S
C1201 C1199 1.433 . S
C1201 N1204 1.384 . S
C1202 H1193 0.929 . S
C1202 C1194 1.378 . S
C1202 C1197 1.350 . S
C1203 H1190 0.929 . S
C1203 C1195 1.433 . S
C1203 N1205 1.384 . S
N1204 C1200 1.427 . S
N1204 C1201 1.384 . S
N1205 C1197 1.427 . S
N1205 C1203 1.384 . S
H1206 C1212 0.930 . S
H1207 C1216 0.930 . S
H1208 C1221 0.929 . S
H1209 C1219 0.929 . S
H1210 C1214 0.929 . S
H1211 C1220 0.929 . S
C1212 H1206 0.930 . S
C1212 C1213 1.367 . S
C1212 C1220 1.378 . S
C1213 C1212 1.367 . S
C1213 C1221 1.433 . S
C1214 H1210 0.929 . S
C1214 C1216 1.378 . S
C1214 C1218 1.350 . S
C1215 C1218 1.463 . S
C1215 C1220 1.350 . S
C1215 N1223 1.427 . S
C1216 H1207 0.930 . S
C1216 C1214 1.378 . S
C1216 C1217 1.367 . S
C1217 C1216 1.367 . S
C1217 C1219 1.433 . S
C1218 C1214 1.350 . S
C1218 C1215 1.463 . S
C1218 N1222 1.427 . S
C1219 H1209 0.929 . S
C1219 C1217 1.433 . S
C1219 N1222 1.384 . S
C1220 H1211 0.929 . S
C1220 C1212 1.378 . S
C1220 C1215 1.350 . S
C1221 H1208 0.929 . S
C1221 C1213 1.433 . S
C1221 N1223 1.384 . S
N1222 C1218 1.427 . S
N1222 C1219 1.384 . S
N1223 C1215 1.427 . S
N1223 C1221 1.384 . S
H1224 C1230 0.930 . S
H1225 C1234 0.930 . S
H1226 C1239 0.929 . S
H1227 C1237 0.929 . S
H1228 C1232 0.929 . S
H1229 C1238 0.929 . S
C1230 H1224 0.930 . S
C1230 C1231 1.367 . S
C1230 C1238 1.378 . S
C1231 C1230 1.367 . S
C1231 C1239 1.433 . S
C1232 H1228 0.929 . S
C1232 C1234 1.378 . S
C1232 C1236 1.350 . S
C1233 C1236 1.463 . S
C1233 C1238 1.350 . S
C1233 N1241 1.427 . S
C1234 H1225 0.930 . S
C1234 C1232 1.378 . S
C1234 C1235 1.367 . S
C1235 C1234 1.367 . S
C1235 C1237 1.433 . S
C1236 C1232 1.350 . S
C1236 C1233 1.463 . S
C1236 N1240 1.427 . S
C1237 H1227 0.929 . S
C1237 C1235 1.433 . S
C1237 N1240 1.384 . S
C1238 H1229 0.929 . S
C1238 C1230 1.378 . S
C1238 C1233 1.350 . S
C1239 H1226 0.929 . S
C1239 C1231 1.433 . S
C1239 N1241 1.384 . S
N1240 C1236 1.427 . S
N1240 C1237 1.384 . S
N1241 C1233 1.427 . S
N1241 C1239 1.384 . S
H1242 C1248 0.930 . S
H1243 C1252 0.930 . S
H1244 C1257 0.929 . S
H1245 C1255 0.929 . S
H1246 C1250 0.929 . S
H1247 C1256 0.929 . S
C1248 H1242 0.930 . S
C1248 C1249 1.367 . S
C1248 C1256 1.378 . S
C1249 C1248 1.367 . S
C1249 C1257 1.433 . S
C1250 H1246 0.929 . S
C1250 C1252 1.378 . S
C1250 C1254 1.350 . S
C1251 C1254 1.463 . S
C1251 C1256 1.350 . S
C1251 N1259 1.427 . S
C1252 H1243 0.930 . S
C1252 C1250 1.378 . S
C1252 C1253 1.367 . S
C1253 C1252 1.367 . S
C1253 C1255 1.433 . S
C1254 C1250 1.350 . S
C1254 C1251 1.463 . S
C1254 N1258 1.427 . S
C1255 H1245 0.929 . S
C1255 C1253 1.433 . S
C1255 N1258 1.384 . S
C1256 H1247 0.929 . S
C1256 C1248 1.378 . S
C1256 C1251 1.350 . S
C1257 H1244 0.929 . S
C1257 C1249 1.433 . S
C1257 N1259 1.384 . S
N1258 C1254 1.427 . S
N1258 C1255 1.384 . S
N1259 C1251 1.427 . S
N1259 C1257 1.384 . S
H1260 C1266 0.930 . S
H1261 C1270 0.930 . S
H1262 C1275 0.929 . S
H1263 C1273 0.929 . S
H1264 C1268 0.929 . S
H1265 C1274 0.929 . S
C1266 H1260 0.930 . S
C1266 C1267 1.367 . S
C1266 C1274 1.378 . S
C1267 C1266 1.367 . S
C1267 C1275 1.433 . S
C1268 H1264 0.929 . S
C1268 C1270 1.378 . S
C1268 C1272 1.350 . S
C1269 C1272 1.463 . S
C1269 C1274 1.350 . S
C1269 N1277 1.427 . S
C1270 H1261 0.930 . S
C1270 C1268 1.378 . S
C1270 C1271 1.367 . S
C1271 C1270 1.367 . S
C1271 C1273 1.433 . S
C1272 C1268 1.350 . S
C1272 C1269 1.463 . S
C1272 N1276 1.427 . S
C1273 H1263 0.929 . S
C1273 C1271 1.433 . S
C1273 N1276 1.384 . S
C1274 H1265 0.929 . S
C1274 C1266 1.378 . S
C1274 C1269 1.350 . S
C1275 H1262 0.929 . S
C1275 C1267 1.433 . S
C1275 N1277 1.384 . S
N1276 C1272 1.427 . S
N1276 C1273 1.384 . S
N1277 C1269 1.427 . S
N1277 C1275 1.384 . S
H1278 C1284 0.930 . S
H1279 C1288 0.930 . S
H1280 C1293 0.929 . S
H1281 C1291 0.929 . S
H1282 C1286 0.929 . S
H1283 C1292 0.929 . S
C1284 H1278 0.930 . S
C1284 C1285 1.367 . S
C1284 C1292 1.378 . S
C1285 C1284 1.367 . S
C1285 C1293 1.433 . S
C1286 H1282 0.929 . S
C1286 C1288 1.378 . S
C1286 C1290 1.350 . S
C1287 C1290 1.463 . S
C1287 C1292 1.350 . S
C1287 N1295 1.427 . S
C1288 H1279 0.930 . S
C1288 C1286 1.378 . S
C1288 C1289 1.367 . S
C1289 C1288 1.367 . S
C1289 C1291 1.433 . S
C1290 C1286 1.350 . S
C1290 C1287 1.463 . S
C1290 N1294 1.427 . S
C1291 H1281 0.929 . S
C1291 C1289 1.433 . S
C1291 N1294 1.384 . S
C1292 H1283 0.929 . S
C1292 C1284 1.378 . S
C1292 C1287 1.350 . S
C1293 H1280 0.929 . S
C1293 C1285 1.433 . S
C1293 N1295 1.384 . S
N1294 C1290 1.427 . S
N1294 C1291 1.384 . S
N1295 C1287 1.427 . S
N1295 C1293 1.384 . S
H1296 C1302 0.930 . S
H1297 C1306 0.930 . S
H1298 C1311 0.929 . S
H1299 C1309 0.929 . S
H1300 C1304 0.929 . S
H1301 C1310 0.929 . S
C1302 H1296 0.930 . S
C1302 C1303 1.367 . S
C1302 C1310 1.378 . S
C1303 C1302 1.367 . S
C1303 C1311 1.433 . S
C1304 H1300 0.929 . S
C1304 C1306 1.378 . S
C1304 C1308 1.350 . S
C1305 C1308 1.463 . S
C1305 C1310 1.350 . S
C1305 N1313 1.427 . S
C1306 H1297 0.930 . S
C1306 C1304 1.378 . S
C1306 C1307 1.367 . S
C1307 C1306 1.367 . S
C1307 C1309 1.433 . S
C1308 C1304 1.350 . S
C1308 C1305 1.463 . S
C1308 N1312 1.427 . S
C1309 H1299 0.929 . S
C1309 C1307 1.433 . S
C1309 N1312 1.384 . S
C1310 H1301 0.929 . S
C1310 C1302 1.378 . S
C1310 C1305 1.350 . S
C1311 H1298 0.929 . S
C1311 C1303 1.433 . S
C1311 N1313 1.384 . S
N1312 C1308 1.427 . S
N1312 C1309 1.384 . S
N1313 C1305 1.427 . S
N1313 C1311 1.384 . S
H1314 C1320 0.930 . S
H1315 C1324 0.930 . S
H1316 C1329 0.929 . S
H1317 C1327 0.929 . S
H1318 C1322 0.929 . S
H1319 C1328 0.929 . S
C1320 H1314 0.930 . S
C1320 C1321 1.367 . S
C1320 C1328 1.378 . S
C1321 C1320 1.367 . S
C1321 C1329 1.433 . S
C1322 H1318 0.929 . S
C1322 C1324 1.378 . S
C1322 C1326 1.350 . S
C1323 C1326 1.463 . S
C1323 C1328 1.350 . S
C1323 N1331 1.427 . S
C1324 H1315 0.930 . S
C1324 C1322 1.378 . S
C1324 C1325 1.367 . S
C1325 C1324 1.367 . S
C1325 C1327 1.433 . S
C1326 C1322 1.350 . S
C1326 C1323 1.463 . S
C1326 N1330 1.427 . S
C1327 H1317 0.929 . S
C1327 C1325 1.433 . S
C1327 N1330 1.384 . S
C1328 H1319 0.929 . S
C1328 C1320 1.378 . S
C1328 C1323 1.350 . S
C1329 H1316 0.929 . S
C1329 C1321 1.433 . S
C1329 N1331 1.384 . S
N1330 C1326 1.427 . S
N1330 C1327 1.384 . S
N1331 C1323 1.427 . S
N1331 C1329 1.384 . S
H1332 C1338 0.930 . S
H1333 C1342 0.930 . S
H1334 C1347 0.929 . S
H1335 C1345 0.929 . S
H1336 C1340 0.929 . S
H1337 C1346 0.929 . S
C1338 H1332 0.930 . S
C1338 C1339 1.367 . S
C1338 C1346 1.378 . S
C1339 C1338 1.367 . S
C1339 C1347 1.433 . S
C1340 H1336 0.929 . S
C1340 C1342 1.378 . S
C1340 C1344 1.350 . S
C1341 C1344 1.463 . S
C1341 C1346 1.350 . S
C1341 N1349 1.427 . S
C1342 H1333 0.930 . S
C1342 C1340 1.378 . S
C1342 C1343 1.367 . S
C1343 C1342 1.367 . S
C1343 C1345 1.433 . S
C1344 C1340 1.350 . S
C1344 C1341 1.463 . S
C1344 N1348 1.427 . S
C1345 H1335 0.929 . S
C1345 C1343 1.433 . S
C1345 N1348 1.384 . S
C1346 H1337 0.929 . S
C1346 C1338 1.378 . S
C1346 C1341 1.350 . S
C1347 H1334 0.929 . S
C1347 C1339 1.433 . S
C1347 N1349 1.384 . S
N1348 C1344 1.427 . S
N1348 C1345 1.384 . S
N1349 C1341 1.427 . S
N1349 C1347 1.384 . S
H1350 C1356 0.930 . S
H1351 C1360 0.930 . S
H1352 C1365 0.929 . S
H1353 C1363 0.929 . S
H1354 C1358 0.929 . S
H1355 C1364 0.929 . S
C1356 H1350 0.930 . S
C1356 C1357 1.367 . S
C1356 C1364 1.378 . S
C1357 C1356 1.367 . S
C1357 C1365 1.433 . S
C1358 H1354 0.929 . S
C1358 C1360 1.378 . S
C1358 C1362 1.350 . S
C1359 C1362 1.463 . S
C1359 C1364 1.350 . S
C1359 N1367 1.427 . S
C1360 H1351 0.930 . S
C1360 C1358 1.378 . S
C1360 C1361 1.367 . S
C1361 C1360 1.367 . S
C1361 C1363 1.433 . S
C1362 C1358 1.350 . S
C1362 C1359 1.463 . S
C1362 N1366 1.427 . S
C1363 H1353 0.929 . S
C1363 C1361 1.433 . S
C1363 N1366 1.384 . S
C1364 H1355 0.929 . S
C1364 C1356 1.378 . S
C1364 C1359 1.350 . S
C1365 H1352 0.929 . S
C1365 C1357 1.433 . S
C1365 N1367 1.384 . S
N1366 C1362 1.427 . S
N1366 C1363 1.384 . S
N1367 C1359 1.427 . S
N1367 C1365 1.384 . S
H1368 C1374 0.930 . S
H1369 C1378 0.930 . S
H1370 C1383 0.929 . S
H1371 C1381 0.929 . S
H1372 C1376 0.929 . S
H1373 C1382 0.929 . S
C1374 H1368 0.930 . S
C1374 C1375 1.367 . S
C1374 C1382 1.378 . S
C1375 C1374 1.367 . S
C1375 C1383 1.433 . S
C1376 H1372 0.929 . S
C1376 C1378 1.378 . S
C1376 C1380 1.350 . S
C1377 C1380 1.463 . S
C1377 C1382 1.350 . S
C1377 N1385 1.427 . S
C1378 H1369 0.930 . S
C1378 C1376 1.378 . S
C1378 C1379 1.367 . S
C1379 C1378 1.367 . S
C1379 C1381 1.433 . S
C1380 C1376 1.350 . S
C1380 C1377 1.463 . S
C1380 N1384 1.427 . S
C1381 H1371 0.929 . S
C1381 C1379 1.433 . S
C1381 N1384 1.384 . S
C1382 H1373 0.929 . S
C1382 C1374 1.378 . S
C1382 C1377 1.350 . S
C1383 H1370 0.929 . S
C1383 C1375 1.433 . S
C1383 N1385 1.384 . S
N1384 C1380 1.427 . S
N1384 C1381 1.384 . S
N1385 C1377 1.427 . S
N1385 C1383 1.384 . S
H1386 C1392 0.930 . S
H1387 C1396 0.930 . S
H1388 C1401 0.929 . S
H1389 C1399 0.929 . S
H1390 C1394 0.929 . S
H1391 C1400 0.929 . S
C1392 H1386 0.930 . S
C1392 C1393 1.367 . S
C1392 C1400 1.378 . S
C1393 C1392 1.367 . S
C1393 C1401 1.433 . S
C1394 H1390 0.929 . S
C1394 C1396 1.378 . S
C1394 C1398 1.350 . S
C1395 C1398 1.463 . S
C1395 C1400 1.350 . S
C1395 N1403 1.427 . S
C1396 H1387 0.930 . S
C1396 C1394 1.378 . S
C1396 C1397 1.367 . S
C1397 C1396 1.367 . S
C1397 C1399 1.433 . S
C1398 C1394 1.350 . S
C1398 C1395 1.463 . S
C1398 N1402 1.427 . S
C1399 H1389 0.929 . S
C1399 C1397 1.433 . S
C1399 N1402 1.384 . S
C1400 H1391 0.929 . S
C1400 C1392 1.378 . S
C1400 C1395 1.350 . S
C1401 H1388 0.929 . S
C1401 C1393 1.433 . S
C1401 N1403 1.384 . S
N1402 C1398 1.427 . S
N1402 C1399 1.384 . S
N1403 C1395 1.427 . S
N1403 C1401 1.384 . S
H1404 C1410 0.930 . S
H1405 C1414 0.930 . S
H1406 C1419 0.929 . S
H1407 C1417 0.929 . S
H1408 C1412 0.929 . S
H1409 C1418 0.929 . S
C1410 H1404 0.930 . S
C1410 C1411 1.367 . S
C1410 C1418 1.378 . S
C1411 C1410 1.367 . S
C1411 C1419 1.433 . S
C1412 H1408 0.929 . S
C1412 C1414 1.378 . S
C1412 C1416 1.350 . S
C1413 C1416 1.463 . S
C1413 C1418 1.350 . S
C1413 N1421 1.427 . S
C1414 H1405 0.930 . S
C1414 C1412 1.378 . S
C1414 C1415 1.367 . S
C1415 C1414 1.367 . S
C1415 C1417 1.433 . S
C1416 C1412 1.350 . S
C1416 C1413 1.463 . S
C1416 N1420 1.427 . S
C1417 H1407 0.929 . S
C1417 C1415 1.433 . S
C1417 N1420 1.384 . S
C1418 H1409 0.929 . S
C1418 C1410 1.378 . S
C1418 C1413 1.350 . S
C1419 H1406 0.929 . S
C1419 C1411 1.433 . S
C1419 N1421 1.384 . S
N1420 C1416 1.427 . S
N1420 C1417 1.384 . S
N1421 C1413 1.427 . S
N1421 C1419 1.384 . S
H1422 C1428 0.930 . S
H1423 C1432 0.930 . S
H1424 C1437 0.929 . S
H1425 C1435 0.929 . S
H1426 C1430 0.929 . S
H1427 C1436 0.929 . S
C1428 H1422 0.930 . S
C1428 C1429 1.367 . S
C1428 C1436 1.378 . S
C1429 C1428 1.367 . S
C1429 C1437 1.433 . S
C1430 H1426 0.929 . S
C1430 C1432 1.378 . S
C1430 C1434 1.350 . S
C1431 C1434 1.463 . S
C1431 C1436 1.350 . S
C1431 N1439 1.427 . S
C1432 H1423 0.930 . S
C1432 C1430 1.378 . S
C1432 C1433 1.367 . S
C1433 C1432 1.367 . S
C1433 C1435 1.433 . S
C1434 C1430 1.350 . S
C1434 C1431 1.463 . S
C1434 N1438 1.427 . S
C1435 H1425 0.929 . S
C1435 C1433 1.433 . S
C1435 N1438 1.384 . S
C1436 H1427 0.929 . S
C1436 C1428 1.378 . S
C1436 C1431 1.350 . S
C1437 H1424 0.929 . S
C1437 C1429 1.433 . S
C1437 N1439 1.384 . S
N1438 C1434 1.427 . S
N1438 C1435 1.384 . S
N1439 C1431 1.427 . S
N1439 C1437 1.384 . S
H1440 C1446 0.930 . S
H1441 C1450 0.930 . S
H1442 C1455 0.929 . S
H1443 C1453 0.929 . S
H1444 C1448 0.929 . S
H1445 C1454 0.929 . S
C1446 H1440 0.930 . S
C1446 C1447 1.367 . S
C1446 C1454 1.378 . S
C1447 C1446 1.367 . S
C1447 C1455 1.433 . S
C1448 H1444 0.929 . S
C1448 C1450 1.378 . S
C1448 C1452 1.350 . S
C1449 C1452 1.463 . S
C1449 C1454 1.350 . S
C1449 N1457 1.427 . S
C1450 H1441 0.930 . S
C1450 C1448 1.378 . S
C1450 C1451 1.367 . S
C1451 C1450 1.367 . S
C1451 C1453 1.433 . S
C1452 C1448 1.350 . S
C1452 C1449 1.463 . S
C1452 N1456 1.427 . S
C1453 H1443 0.929 . S
C1453 C1451 1.433 . S
C1453 N1456 1.384 . S
C1454 H1445 0.929 . S
C1454 C1446 1.378 . S
C1454 C1449 1.350 . S
C1455 H1442 0.929 . S
C1455 C1447 1.433 . S
C1455 N1457 1.384 . S
N1456 C1452 1.427 . S
N1456 C1453 1.384 . S
N1457 C1449 1.427 . S
N1457 C1455 1.384 . S
H1458 C1464 0.930 . S
H1459 C1468 0.930 . S
H1460 C1473 0.929 . S
H1461 C1471 0.929 . S
H1462 C1466 0.929 . S
H1463 C1472 0.929 . S
C1464 H1458 0.930 . S
C1464 C1465 1.367 . S
C1464 C1472 1.378 . S
C1465 C1464 1.367 . S
C1465 C1473 1.433 . S
C1466 H1462 0.929 . S
C1466 C1468 1.378 . S
C1466 C1470 1.350 . S
C1467 C1470 1.463 . S
C1467 C1472 1.350 . S
C1467 N1475 1.427 . S
C1468 H1459 0.930 . S
C1468 C1466 1.378 . S
C1468 C1469 1.367 . S
C1469 C1468 1.367 . S
C1469 C1471 1.433 . S
C1470 C1466 1.350 . S
C1470 C1467 1.463 . S
C1470 N1474 1.427 . S
C1471 H1461 0.929 . S
C1471 C1469 1.433 . S
C1471 N1474 1.384 . S
C1472 H1463 0.929 . S
C1472 C1464 1.378 . S
C1472 C1467 1.350 . S
C1473 H1460 0.929 . S
C1473 C1465 1.433 . S
C1473 N1475 1.384 . S
N1474 C1470 1.427 . S
N1474 C1471 1.384 . S
N1475 C1467 1.427 . S
N1475 C1473 1.384 . S
H1476 C1482 0.930 . S
H1477 C1486 0.930 . S
H1478 C1491 0.929 . S
H1479 C1489 0.929 . S
H1480 C1484 0.929 . S
H1481 C1490 0.929 . S
C1482 H1476 0.930 . S
C1482 C1483 1.367 . S
C1482 C1490 1.378 . S
C1483 C1482 1.367 . S
C1483 C1491 1.433 . S
C1484 H1480 0.929 . S
C1484 C1486 1.378 . S
C1484 C1488 1.350 . S
C1485 C1488 1.463 . S
C1485 C1490 1.350 . S
C1485 N1493 1.427 . S
C1486 H1477 0.930 . S
C1486 C1484 1.378 . S
C1486 C1487 1.367 . S
C1487 C1486 1.367 . S
C1487 C1489 1.433 . S
C1488 C1484 1.350 . S
C1488 C1485 1.463 . S
C1488 N1492 1.427 . S
C1489 H1479 0.929 . S
C1489 C1487 1.433 . S
C1489 N1492 1.384 . S
C1490 H1481 0.929 . S
C1490 C1482 1.378 . S
C1490 C1485 1.350 . S
C1491 H1478 0.929 . S
C1491 C1483 1.433 . S
C1491 N1493 1.384 . S
N1492 C1488 1.427 . S
N1492 C1489 1.384 . S
N1493 C1485 1.427 . S
N1493 C1491 1.384 . S
H1494 C1500 0.930 . S
H1495 C1504 0.930 . S
H1496 C1509 0.929 . S
H1497 C1507 0.929 . S
H1498 C1502 0.929 . S
H1499 C1508 0.929 . S
C1500 H1494 0.930 . S
C1500 C1501 1.367 . S
C1500 C1508 1.378 . S
C1501 C1500 1.367 . S
C1501 C1509 1.433 . S
C1502 H1498 0.929 . S
C1502 C1504 1.378 . S
C1502 C1506 1.350 . S
C1503 C1506 1.463 . S
C1503 C1508 1.350 . S
C1503 N1511 1.427 . S
C1504 H1495 0.930 . S
C1504 C1502 1.378 . S
C1504 C1505 1.367 . S
C1505 C1504 1.367 . S
C1505 C1507 1.433 . S
C1506 C1502 1.350 . S
C1506 C1503 1.463 . S
C1506 N1510 1.427 . S
C1507 H1497 0.929 . S
C1507 C1505 1.433 . S
C1507 N1510 1.384 . S
C1508 H1499 0.929 . S
C1508 C1500 1.378 . S
C1508 C1503 1.350 . S
C1509 H1496 0.929 . S
C1509 C1501 1.433 . S
C1509 N1511 1.384 . S
N1510 C1506 1.427 . S
N1510 C1507 1.384 . S
N1511 C1503 1.427 . S
N1511 C1509 1.384 . S
H1512 C1518 0.930 . S
H1513 C1522 0.930 . S
H1514 C1527 0.929 . S
H1515 C1525 0.929 . S
H1516 C1520 0.929 . S
H1517 C1526 0.929 . S
C1518 H1512 0.930 . S
C1518 C1519 1.367 . S
C1518 C1526 1.378 . S
C1519 C1518 1.367 . S
C1519 C1527 1.433 . S
C1520 H1516 0.929 . S
C1520 C1522 1.378 . S
C1520 C1524 1.350 . S
C1521 C1524 1.463 . S
C1521 C1526 1.350 . S
C1521 N1529 1.427 . S
C1522 H1513 0.930 . S
C1522 C1520 1.378 . S
C1522 C1523 1.367 . S
C1523 C1522 1.367 . S
C1523 C1525 1.433 . S
C1524 C1520 1.350 . S
C1524 C1521 1.463 . S
C1524 N1528 1.427 . S
C1525 H1515 0.929 . S
C1525 C1523 1.433 . S
C1525 N1528 1.384 . S
C1526 H1517 0.929 . S
C1526 C1518 1.378 . S
C1526 C1521 1.350 . S
C1527 H1514 0.929 . S
C1527 C1519 1.433 . S
C1527 N1529 1.384 . S
N1528 C1524 1.427 . S
N1528 C1525 1.384 . S
N1529 C1521 1.427 . S
N1529 C1527 1.384 . S
H1530 C1536 0.930 . S
H1531 C1540 0.930 . S
H1532 C1545 0.929 . S
H1533 C1543 0.929 . S
H1534 C1538 0.929 . S
H1535 C1544 0.929 . S
C1536 H1530 0.930 . S
C1536 C1537 1.367 . S
C1536 C1544 1.378 . S
C1537 C1536 1.367 . S
C1537 C1545 1.433 . S
C1538 H1534 0.929 . S
C1538 C1540 1.378 . S
C1538 C1542 1.350 . S
C1539 C1542 1.463 . S
C1539 C1544 1.350 . S
C1539 N1547 1.427 . S
C1540 H1531 0.930 . S
C1540 C1538 1.378 . S
C1540 C1541 1.367 . S
C1541 C1540 1.367 . S
C1541 C1543 1.433 . S
C1542 C1538 1.350 . S
C1542 C1539 1.463 . S
C1542 N1546 1.427 . S
C1543 H1533 0.929 . S
C1543 C1541 1.433 . S
C1543 N1546 1.384 . S
C1544 H1535 0.929 . S
C1544 C1536 1.378 . S
C1544 C1539 1.350 . S
C1545 H1532 0.929 . S
C1545 C1537 1.433 . S
C1545 N1547 1.384 . S
N1546 C1542 1.427 . S
N1546 C1543 1.384 . S
N1547 C1539 1.427 . S
N1547 C1545 1.384 . S
H1548 C1554 0.930 . S
H1549 C1558 0.930 . S
H1550 C1563 0.929 . S
H1551 C1561 0.929 . S
H1552 C1556 0.929 . S
H1553 C1562 0.929 . S
C1554 H1548 0.930 . S
C1554 C1555 1.367 . S
C1554 C1562 1.378 . S
C1555 C1554 1.367 . S
C1555 C1563 1.433 . S
C1556 H1552 0.929 . S
C1556 C1558 1.378 . S
C1556 C1560 1.350 . S
C1557 C1560 1.463 . S
C1557 C1562 1.350 . S
C1557 N1565 1.427 . S
C1558 H1549 0.930 . S
C1558 C1556 1.378 . S
C1558 C1559 1.367 . S
C1559 C1558 1.367 . S
C1559 C1561 1.433 . S
C1560 C1556 1.350 . S
C1560 C1557 1.463 . S
C1560 N1564 1.427 . S
C1561 H1551 0.929 . S
C1561 C1559 1.433 . S
C1561 N1564 1.384 . S
C1562 H1553 0.929 . S
C1562 C1554 1.378 . S
C1562 C1557 1.350 . S
C1563 H1550 0.929 . S
C1563 C1555 1.433 . S
C1563 N1565 1.384 . S
N1564 C1560 1.427 . S
N1564 C1561 1.384 . S
N1565 C1557 1.427 . S
N1565 C1563 1.384 . S
H1566 C1572 0.930 . S
H1567 C1576 0.930 . S
H1568 C1581 0.929 . S
H1569 C1579 0.929 . S
H1570 C1574 0.929 . S
H1571 C1580 0.929 . S
C1572 H1566 0.930 . S
C1572 C1573 1.367 . S
C1572 C1580 1.378 . S
C1573 C1572 1.367 . S
C1573 C1581 1.433 . S
C1574 H1570 0.929 . S
C1574 C1576 1.378 . S
C1574 C1578 1.350 . S
C1575 C1578 1.463 . S
C1575 C1580 1.350 . S
C1575 N1583 1.427 . S
C1576 H1567 0.930 . S
C1576 C1574 1.378 . S
C1576 C1577 1.367 . S
C1577 C1576 1.367 . S
C1577 C1579 1.433 . S
C1578 C1574 1.350 . S
C1578 C1575 1.463 . S
C1578 N1582 1.427 . S
C1579 H1569 0.929 . S
C1579 C1577 1.433 . S
C1579 N1582 1.384 . S
C1580 H1571 0.929 . S
C1580 C1572 1.378 . S
C1580 C1575 1.350 . S
C1581 H1568 0.929 . S
C1581 C1573 1.433 . S
C1581 N1583 1.384 . S
N1582 C1578 1.427 . S
N1582 C1579 1.384 . S
N1583 C1575 1.427 . S
N1583 C1581 1.384 . S
H1584 C1590 0.930 . S
H1585 C1594 0.930 . S
H1586 C1599 0.929 . S
H1587 C1597 0.929 . S
H1588 C1592 0.929 . S
H1589 C1598 0.929 . S
C1590 H1584 0.930 . S
C1590 C1591 1.367 . S
C1590 C1598 1.378 . S
C1591 C1590 1.367 . S
C1591 C1599 1.433 . S
C1592 H1588 0.929 . S
C1592 C1594 1.378 . S
C1592 C1596 1.350 . S
C1593 C1596 1.463 . S
C1593 C1598 1.350 . S
C1593 N1601 1.427 . S
C1594 H1585 0.930 . S
C1594 C1592 1.378 . S
C1594 C1595 1.367 . S
C1595 C1594 1.367 . S
C1595 C1597 1.433 . S
C1596 C1592 1.350 . S
C1596 C1593 1.463 . S
C1596 N1600 1.427 . S
C1597 H1587 0.929 . S
C1597 C1595 1.433 . S
C1597 N1600 1.384 . S
C1598 H1589 0.929 . S
C1598 C1590 1.378 . S
C1598 C1593 1.350 . S
C1599 H1586 0.929 . S
C1599 C1591 1.433 . S
C1599 N1601 1.384 . S
N1600 C1596 1.427 . S
N1600 C1597 1.384 . S
N1601 C1593 1.427 . S
N1601 C1599 1.384 . S
H1602 C1608 0.930 . S
H1603 C1612 0.930 . S
H1604 C1617 0.929 . S
H1605 C1615 0.929 . S
H1606 C1610 0.929 . S
H1607 C1616 0.929 . S
C1608 H1602 0.930 . S
C1608 C1609 1.367 . S
C1608 C1616 1.378 . S
C1609 C1608 1.367 . S
C1609 C1617 1.433 . S
C1610 H1606 0.929 . S
C1610 C1612 1.378 . S
C1610 C1614 1.350 . S
C1611 C1614 1.463 . S
C1611 C1616 1.350 . S
C1611 N1619 1.427 . S
C1612 H1603 0.930 . S
C1612 C1610 1.378 . S
C1612 C1613 1.367 . S
C1613 C1612 1.367 . S
C1613 C1615 1.433 . S
C1614 C1610 1.350 . S
C1614 C1611 1.463 . S
C1614 N1618 1.427 . S
C1615 H1605 0.929 . S
C1615 C1613 1.433 . S
C1615 N1618 1.384 . S
C1616 H1607 0.929 . S
C1616 C1608 1.378 . S
C1616 C1611 1.350 . S
C1617 H1604 0.929 . S
C1617 C1609 1.433 . S
C1617 N1619 1.384 . S
N1618 C1614 1.427 . S
N1618 C1615 1.384 . S
N1619 C1611 1.427 . S
N1619 C1617 1.384 . S
H1620 C1626 0.930 . S
H1621 C1630 0.930 . S
H1622 C1635 0.929 . S
H1623 C1633 0.929 . S
H1624 C1628 0.929 . S
H1625 C1634 0.929 . S
C1626 H1620 0.930 . S
C1626 C1627 1.367 . S
C1626 C1634 1.378 . S
C1627 C1626 1.367 . S
C1627 C1635 1.433 . S
C1628 H1624 0.929 . S
C1628 C1630 1.378 . S
C1628 C1632 1.350 . S
C1629 C1632 1.463 . S
C1629 C1634 1.350 . S
C1629 N1637 1.427 . S
C1630 H1621 0.930 . S
C1630 C1628 1.378 . S
C1630 C1631 1.367 . S
C1631 C1630 1.367 . S
C1631 C1633 1.433 . S
C1632 C1628 1.350 . S
C1632 C1629 1.463 . S
C1632 N1636 1.427 . S
C1633 H1623 0.929 . S
C1633 C1631 1.433 . S
C1633 N1636 1.384 . S
C1634 H1625 0.929 . S
C1634 C1626 1.378 . S
C1634 C1629 1.350 . S
C1635 H1622 0.929 . S
C1635 C1627 1.433 . S
C1635 N1637 1.384 . S
N1636 C1632 1.427 . S
N1636 C1633 1.384 . S
N1637 C1629 1.427 . S
N1637 C1635 1.384 . S
H1638 C1644 0.930 . S
H1639 C1648 0.930 . S
H1640 C1653 0.929 . S
H1641 C1651 0.929 . S
H1642 C1646 0.929 . S
H1643 C1652 0.929 . S
C1644 H1638 0.930 . S
C1644 C1645 1.367 . S
C1644 C1652 1.378 . S
C1645 C1644 1.367 . S
C1645 C1653 1.433 . S
C1646 H1642 0.929 . S
C1646 C1648 1.378 . S
C1646 C1650 1.350 . S
C1647 C1650 1.463 . S
C1647 C1652 1.350 . S
C1647 N1655 1.427 . S
C1648 H1639 0.930 . S
C1648 C1646 1.378 . S
C1648 C1649 1.367 . S
C1649 C1648 1.367 . S
C1649 C1651 1.433 . S
C1650 C1646 1.350 . S
C1650 C1647 1.463 . S
C1650 N1654 1.427 . S
C1651 H1641 0.929 . S
C1651 C1649 1.433 . S
C1651 N1654 1.384 . S
C1652 H1643 0.929 . S
C1652 C1644 1.378 . S
C1652 C1647 1.350 . S
C1653 H1640 0.929 . S
C1653 C1645 1.433 . S
C1653 N1655 1.384 . S
N1654 C1650 1.427 . S
N1654 C1651 1.384 . S
N1655 C1647 1.427 . S
N1655 C1653 1.384 . S
H1656 C1662 0.930 . S
H1657 C1666 0.930 . S
H1658 C1671 0.929 . S
H1659 C1669 0.929 . S
H1660 C1664 0.929 . S
H1661 C1670 0.929 . S
C1662 H1656 0.930 . S
C1662 C1663 1.367 . S
C1662 C1670 1.378 . S
C1663 C1662 1.367 . S
C1663 C1671 1.433 . S
C1664 H1660 0.929 . S
C1664 C1666 1.378 . S
C1664 C1668 1.350 . S
C1665 C1668 1.463 1_655 S
C1665 C1670 1.350 . S
C1665 N1673 1.427 . S
C1666 H1657 0.930 . S
C1666 C1664 1.378 . S
C1666 C1667 1.367 . S
C1667 C1666 1.367 . S
C1667 C1669 1.433 . S
C1668 C1664 1.350 . S
C1668 C1665 1.463 1_455 S
C1668 N1672 1.427 . S
C1669 H1659 0.929 . S
C1669 C1667 1.433 . S
C1669 N1672 1.384 . S
C1670 H1661 0.929 . S
C1670 C1662 1.378 . S
C1670 C1665 1.350 . S
C1671 H1658 0.929 . S
C1671 C1663 1.433 . S
C1671 N1673 1.384 . S
N1672 C1668 1.427 . S
N1672 C1669 1.384 . S
N1673 C1665 1.427 . S
N1673 C1671 1.384 . S
H1674 C1680 0.930 . S
H1675 C1684 0.930 . S
H1676 C1689 0.929 . S
H1677 C1687 0.929 . S
H1678 C1682 0.929 . S
H1679 C1688 0.929 . S
C1680 H1674 0.930 . S
C1680 C1681 1.367 . S
C1680 C1688 1.378 . S
C1681 C1680 1.367 . S
C1681 C1689 1.433 . S
C1682 H1678 0.929 . S
C1682 C1684 1.378 . S
C1682 C1686 1.350 . S
C1683 C1686 1.463 . S
C1683 C1688 1.350 . S
C1683 N1691 1.427 . S
C1684 H1675 0.930 . S
C1684 C1682 1.378 . S
C1684 C1685 1.367 . S
C1685 C1684 1.367 . S
C1685 C1687 1.433 . S
C1686 C1682 1.350 . S
C1686 C1683 1.463 . S
C1686 N1690 1.427 . S
C1687 H1677 0.929 . S
C1687 C1685 1.433 . S
C1687 N1690 1.384 . S
C1688 H1679 0.929 . S
C1688 C1680 1.378 . S
C1688 C1683 1.350 . S
C1689 H1676 0.929 . S
C1689 C1681 1.433 . S
C1689 N1691 1.384 . S
N1690 C1686 1.427 . S
N1690 C1687 1.384 . S
N1691 C1683 1.427 . S
N1691 C1689 1.384 . S
H1692 C1698 0.930 . S
H1693 C1702 0.930 . S
H1694 C1707 0.929 . S
H1695 C1705 0.929 . S
H1696 C1700 0.929 1_545 S
H1697 C1706 0.929 1_565 S
C1698 H1692 0.930 . S
C1698 C1699 1.367 . S
C1698 C1706 1.378 . S
C1699 C1698 1.367 . S
C1699 C1707 1.433 . S
C1700 H1696 0.929 1_565 S
C1700 C1702 1.378 . S
C1700 C1704 1.350 . S
C1701 C1704 1.463 1_545 S
C1701 C1706 1.350 . S
C1701 N1709 1.427 . S
C1702 H1693 0.930 . S
C1702 C1700 1.378 . S
C1702 C1703 1.367 . S
C1703 C1702 1.367 . S
C1703 C1705 1.433 . S
C1704 C1700 1.350 . S
C1704 C1701 1.463 1_565 S
C1704 N1708 1.427 . S
C1705 H1695 0.929 . S
C1705 C1703 1.433 . S
C1705 N1708 1.384 . S
C1706 H1697 0.929 1_545 S
C1706 C1698 1.378 . S
C1706 C1701 1.350 . S
C1707 H1694 0.929 . S
C1707 C1699 1.433 . S
C1707 N1709 1.384 . S
N1708 C1704 1.427 . S
N1708 C1705 1.384 . S
N1709 C1701 1.427 . S
N1709 C1707 1.384 . S
H1710 C1716 0.930 . S
H1711 C1720 0.930 . S
H1712 C1725 0.922 1_556 S
H1713 C1723 0.922 1_554 S
H1714 C1718 0.929 1_565 S
H1715 C1724 0.929 1_545 S
C1716 H1710 0.930 . S
C1716 C1717 1.367 . S
C1716 C1724 1.378 . S
C1717 C1716 1.367 . S
C1717 C1725 1.445 . S
C1718 H1714 0.929 1_545 S
C1718 C1720 1.378 . S
C1718 C1722 1.350 . S
C1719 C1722 1.463 1_564 S
C1719 C1724 1.350 . S
C1719 N1727 1.427 1_554 S
C1720 H1711 0.930 . S
C1720 C1718 1.378 . S
C1720 C1721 1.367 . S
C1721 C1720 1.367 . S
C1721 C1723 1.445 . S
C1722 C1718 1.350 . S
C1722 C1719 1.463 1_546 S
C1722 N1726 1.427 1_556 S
C1723 H1713 0.922 1_556 S
C1723 C1721 1.445 . S
C1723 N1726 1.379 1_556 S
C1724 H1715 0.929 1_565 S
C1724 C1716 1.378 . S
C1724 C1719 1.350 . S
C1725 H1712 0.922 1_554 S
C1725 C1717 1.445 . S
C1725 N1727 1.379 1_554 S
N1726 C1722 1.427 1_554 S
N1726 C1723 1.379 1_554 S
N1727 C1719 1.427 1_556 S
N1727 C1725 1.379 1_556 S
H1728 C1734 0.930 . S
H1729 C1738 0.930 . S
H1730 C1743 0.929 . S
H1731 C1741 0.929 . S
H1732 C1736 0.929 . S
H1733 C1742 0.929 . S
C1734 H1728 0.930 . S
C1734 C1735 1.367 . S
C1734 C1742 1.378 . S
C1735 C1734 1.367 . S
C1735 C1743 1.433 . S
C1736 H1732 0.929 . S
C1736 C1738 1.378 . S
C1736 C1740 1.350 . S
C1737 C1740 1.463 1_656 S
C1737 C1742 1.350 . S
C1737 N1745 1.427 1_556 S
C1738 H1729 0.930 . S
C1738 C1736 1.378 . S
C1738 C1739 1.367 . S
C1739 C1738 1.367 . S
C1739 C1741 1.433 . S
C1740 C1736 1.350 . S
C1740 C1737 1.463 1_454 S
C1740 N1744 1.427 1_554 S
C1741 H1731 0.929 . S
C1741 C1739 1.433 . S
C1741 N1744 1.384 1_554 S
C1742 H1733 0.929 . S
C1742 C1734 1.378 . S
C1742 C1737 1.350 . S
C1743 H1730 0.929 . S
C1743 C1735 1.433 . S
C1743 N1745 1.384 1_556 S
N1744 C1740 1.427 1_556 S
N1744 C1741 1.384 1_556 S
N1745 C1737 1.427 1_554 S
N1745 C1743 1.384 1_554 S
H1746 C1752 0.930 . S
H1747 C1756 0.930 . S
H1748 C1761 0.929 . S
H1749 C1759 0.929 . S
H1750 C1754 0.934 . S
H1751 C1760 0.934 . S
C1752 H1746 0.930 . S
C1752 C1753 1.367 . S
C1752 C1760 1.378 . S
C1753 C1752 1.367 . S
C1753 C1761 1.433 . S
C1754 H1750 0.934 . S
C1754 C1756 1.378 . S
C1754 C1758 1.350 . S
C1755 C1758 1.463 1_554 S
C1755 C1760 1.350 . S
C1755 N1763 1.427 . S
C1756 H1747 0.930 . S
C1756 C1754 1.378 . S
C1756 C1757 1.367 . S
C1757 C1756 1.367 . S
C1757 C1759 1.433 . S
C1758 C1754 1.350 . S
C1758 C1755 1.463 1_556 S
C1758 N1762 1.427 . S
C1759 H1749 0.929 . S
C1759 C1757 1.433 . S
C1759 N1762 1.384 . S
C1760 H1751 0.934 . S
C1760 C1752 1.378 . S
C1760 C1755 1.350 . S
C1761 H1748 0.929 . S
C1761 C1753 1.433 . S
C1761 N1763 1.384 . S
N1762 C1758 1.427 . S
N1762 C1759 1.384 . S
N1763 C1755 1.427 . S
N1763 C1761 1.384 . S
H1764 C1770 0.930 1_554 S
H1765 C1774 0.930 . S
H1766 C1779 0.929 . S
H1767 C1777 0.929 . S
H1768 C1772 0.929 . S
H1769 C1778 0.929 . S
C1770 H1764 0.930 1_556 S
C1770 C1771 1.367 . S
C1770 C1778 1.378 . S
C1771 C1770 1.367 . S
C1771 C1779 1.433 . S
C1772 H1768 0.929 . S
C1772 C1774 1.378 . S
C1772 C1776 1.350 . S
C1773 C1776 1.463 . S
C1773 C1778 1.350 . S
C1773 N1781 1.427 . S
C1774 H1765 0.930 . S
C1774 C1772 1.378 . S
C1774 C1775 1.367 . S
C1775 C1774 1.367 . S
C1775 C1777 1.433 . S
C1776 C1772 1.350 . S
C1776 C1773 1.463 . S
C1776 N1780 1.427 . S
C1777 H1767 0.929 . S
C1777 C1775 1.433 . S
C1777 N1780 1.384 . S
C1778 H1769 0.929 . S
C1778 C1770 1.378 . S
C1778 C1773 1.350 . S
C1779 H1766 0.929 . S
C1779 C1771 1.433 . S
C1779 N1781 1.384 . S
N1780 C1776 1.427 . S
N1780 C1777 1.384 . S
N1781 C1773 1.427 . S
N1781 C1779 1.384 . S
H1782 C1788 0.930 . S
H1783 C1792 0.930 . S
H1784 C1797 0.929 . S
H1785 C1795 0.929 . S
H1786 C1790 0.929 . S
H1787 C1796 0.929 . S
C1788 H1782 0.930 . S
C1788 C1789 1.367 . S
C1788 C1796 1.378 . S
C1789 C1788 1.367 . S
C1789 C1797 1.433 . S
C1790 H1786 0.929 . S
C1790 C1792 1.378 . S
C1790 C1794 1.350 . S
C1791 C1794 1.463 . S
C1791 C1796 1.350 . S
C1791 N1799 1.427 . S
C1792 H1783 0.930 . S
C1792 C1790 1.378 . S
C1792 C1793 1.367 . S
C1793 C1792 1.367 . S
C1793 C1795 1.433 . S
C1794 C1790 1.350 . S
C1794 C1791 1.463 . S
C1794 N1798 1.427 . S
C1795 H1785 0.929 . S
C1795 C1793 1.433 . S
C1795 N1798 1.384 . S
C1796 H1787 0.929 . S
C1796 C1788 1.378 . S
C1796 C1791 1.350 . S
C1797 H1784 0.929 . S
C1797 C1789 1.433 . S
C1797 N1799 1.384 . S
N1798 C1794 1.427 . S
N1798 C1795 1.384 . S
N1799 C1791 1.427 . S
N1799 C1797 1.384 . S
H1800 C1806 0.930 . S
H1801 C1810 0.930 . S
H1802 C1815 0.929 . S
H1803 C1813 0.929 1_554 S
H1804 C1808 0.929 . S
H1805 C1814 0.929 . S
C1806 H1800 0.930 . S
C1806 C1807 1.367 . S
C1806 C1814 1.378 . S
C1807 C1806 1.367 . S
C1807 C1815 1.433 . S
C1808 H1804 0.929 . S
C1808 C1810 1.378 . S
C1808 C1812 1.350 . S
C1809 C1812 1.463 . S
C1809 C1814 1.350 . S
C1809 N1817 1.427 . S
C1810 H1801 0.930 . S
C1810 C1808 1.378 . S
C1810 C1811 1.367 . S
C1811 C1810 1.367 . S
C1811 C1813 1.433 . S
C1812 C1808 1.350 . S
C1812 C1809 1.463 . S
C1812 N1816 1.427 . S
C1813 H1803 0.929 1_556 S
C1813 C1811 1.433 . S
C1813 N1816 1.384 . S
C1814 H1805 0.929 . S
C1814 C1806 1.378 . S
C1814 C1809 1.350 . S
C1815 H1802 0.929 . S
C1815 C1807 1.433 . S
C1815 N1817 1.384 . S
N1816 C1812 1.427 . S
N1816 C1813 1.384 . S
N1817 C1809 1.427 . S
N1817 C1815 1.384 . S
H1818 C1824 0.930 . S
H1819 C1828 0.930 . S
H1820 C1833 0.929 . S
H1821 C1831 0.929 . S
H1822 C1826 0.929 . S
H1823 C1832 0.929 . S
C1824 H1818 0.930 . S
C1824 C1825 1.367 . S
C1824 C1832 1.378 . S
C1825 C1824 1.367 . S
C1825 C1833 1.433 . S
C1826 H1822 0.929 . S
C1826 C1828 1.378 . S
C1826 C1830 1.350 . S
C1827 C1830 1.463 . S
C1827 C1832 1.350 . S
C1827 N1835 1.427 . S
C1828 H1819 0.930 . S
C1828 C1826 1.378 . S
C1828 C1829 1.367 . S
C1829 C1828 1.367 . S
C1829 C1831 1.433 . S
C1830 C1826 1.350 . S
C1830 C1827 1.463 . S
C1830 N1834 1.427 . S
C1831 H1821 0.929 . S
C1831 C1829 1.433 . S
C1831 N1834 1.384 . S
C1832 H1823 0.929 . S
C1832 C1824 1.378 . S
C1832 C1827 1.350 . S
C1833 H1820 0.929 . S
C1833 C1825 1.433 . S
C1833 N1835 1.384 . S
N1834 C1830 1.427 . S
N1834 C1831 1.384 . S
N1835 C1827 1.427 . S
N1835 C1833 1.384 . S
H1836 C1842 0.930 . S
H1837 C1846 0.930 . S
H1838 C1851 0.929 . S
H1839 C1849 0.929 . S
H1840 C1844 0.929 . S
H1841 C1850 0.929 . S
C1842 H1836 0.930 . S
C1842 C1843 1.367 . S
C1842 C1850 1.378 . S
C1843 C1842 1.367 . S
C1843 C1851 1.433 . S
C1844 H1840 0.929 . S
C1844 C1846 1.378 . S
C1844 C1848 1.350 . S
C1845 C1848 1.463 . S
C1845 C1850 1.350 . S
C1845 N1853 1.427 . S
C1846 H1837 0.930 . S
C1846 C1844 1.378 . S
C1846 C1847 1.367 . S
C1847 C1846 1.367 . S
C1847 C1849 1.433 . S
C1848 C1844 1.350 . S
C1848 C1845 1.463 . S
C1848 N1852 1.427 . S
C1849 H1839 0.929 . S
C1849 C1847 1.433 . S
C1849 N1852 1.384 . S
C1850 H1841 0.929 . S
C1850 C1842 1.378 . S
C1850 C1845 1.350 . S
C1851 H1838 0.929 . S
C1851 C1843 1.433 . S
C1851 N1853 1.384 . S
N1852 C1848 1.427 . S
N1852 C1849 1.384 . S
N1853 C1845 1.427 . S
N1853 C1851 1.384 . S
H1854 C1860 0.930 . S
H1855 C1864 0.930 . S
H1856 C1869 0.929 . S
H1857 C1867 0.929 . S
H1858 C1862 0.929 . S
H1859 C1868 0.929 . S
C1860 H1854 0.930 . S
C1860 C1861 1.367 . S
C1860 C1868 1.378 . S
C1861 C1860 1.367 . S
C1861 C1869 1.433 . S
C1862 H1858 0.929 . S
C1862 C1864 1.378 . S
C1862 C1866 1.350 . S
C1863 C1866 1.463 . S
C1863 C1868 1.350 . S
C1863 N1871 1.427 . S
C1864 H1855 0.930 . S
C1864 C1862 1.378 . S
C1864 C1865 1.367 . S
C1865 C1864 1.367 . S
C1865 C1867 1.433 . S
C1866 C1862 1.350 . S
C1866 C1863 1.463 . S
C1866 N1870 1.427 . S
C1867 H1857 0.929 . S
C1867 C1865 1.433 . S
C1867 N1870 1.384 . S
C1868 H1859 0.929 . S
C1868 C1860 1.378 . S
C1868 C1863 1.350 . S
C1869 H1856 0.929 . S
C1869 C1861 1.433 . S
C1869 N1871 1.384 . S
N1870 C1866 1.427 . S
N1870 C1867 1.384 . S
N1871 C1863 1.427 . S
N1871 C1869 1.384 . S
H1872 C1878 0.930 . S
H1873 C1882 0.930 1_556 S
H1874 C1887 0.929 . S
H1875 C1885 0.929 . S
H1876 C1880 0.929 . S
H1877 C1886 0.929 . S
C1878 H1872 0.930 . S
C1878 C1879 1.367 . S
C1878 C1886 1.378 . S
C1879 C1878 1.367 . S
C1879 C1887 1.433 . S
C1880 H1876 0.929 . S
C1880 C1882 1.378 . S
C1880 C1884 1.350 . S
C1881 C1884 1.463 . S
C1881 C1886 1.350 . S
C1881 N1889 1.427 . S
C1882 H1873 0.930 1_554 S
C1882 C1880 1.378 . S
C1882 C1883 1.367 . S
C1883 C1882 1.367 . S
C1883 C1885 1.433 . S
C1884 C1880 1.350 . S
C1884 C1881 1.463 . S
C1884 N1888 1.427 . S
C1885 H1875 0.929 . S
C1885 C1883 1.433 . S
C1885 N1888 1.384 . S
C1886 H1877 0.929 . S
C1886 C1878 1.378 . S
C1886 C1881 1.350 . S
C1887 H1874 0.929 . S
C1887 C1879 1.433 . S
C1887 N1889 1.384 . S
N1888 C1884 1.427 . S
N1888 C1885 1.384 . S
N1889 C1881 1.427 . S
N1889 C1887 1.384 . S
H1890 C1896 0.930 1_556 S
H1891 C1900 0.930 . S
H1892 C1905 0.929 . S
H1893 C1903 0.929 . S
H1894 C1898 0.929 . S
H1895 C1904 0.929 . S
C1896 H1890 0.930 1_554 S
C1896 C1897 1.367 . S
C1896 C1904 1.378 . S
C1897 C1896 1.367 . S
C1897 C1905 1.433 . S
C1898 H1894 0.929 . S
C1898 C1900 1.378 . S
C1898 C1902 1.350 . S
C1899 C1902 1.463 . S
C1899 C1904 1.350 . S
C1899 N1907 1.427 . S
C1900 H1891 0.930 . S
C1900 C1898 1.378 . S
C1900 C1901 1.367 . S
C1901 C1900 1.367 . S
C1901 C1903 1.433 . S
C1902 C1898 1.350 . S
C1902 C1899 1.463 . S
C1902 N1906 1.427 . S
C1903 H1893 0.929 . S
C1903 C1901 1.433 . S
C1903 N1906 1.384 . S
C1904 H1895 0.929 . S
C1904 C1896 1.378 . S
C1904 C1899 1.350 . S
C1905 H1892 0.929 . S
C1905 C1897 1.433 . S
C1905 N1907 1.384 . S
N1906 C1902 1.427 . S
N1906 C1903 1.384 . S
N1907 C1899 1.427 . S
N1907 C1905 1.384 . S
H1908 C1914 0.930 . S
H1909 C1918 0.922 1_556 S
H1910 C1923 0.929 . S
H1911 C1921 0.929 . S
H1912 C1916 0.929 . S
H1913 C1922 0.929 . S
C1914 H1908 0.930 . S
C1914 C1915 1.367 . S
C1914 C1922 1.378 . S
C1915 C1914 1.367 . S
C1915 C1923 1.433 . S
C1916 H1912 0.929 . S
C1916 C1918 1.378 . S
C1916 C1920 1.350 . S
C1917 C1920 1.463 . S
C1917 C1922 1.350 . S
C1917 N1925 1.427 . S
C1918 H1909 0.922 1_554 S
C1918 C1916 1.378 . S
C1918 C1919 1.367 . S
C1919 C1918 1.367 . S
C1919 C1921 1.433 . S
C1920 C1916 1.350 . S
C1920 C1917 1.463 . S
C1920 N1924 1.427 . S
C1921 H1911 0.929 . S
C1921 C1919 1.433 . S
C1921 N1924 1.384 . S
C1922 H1913 0.929 . S
C1922 C1914 1.378 . S
C1922 C1917 1.350 . S
C1923 H1910 0.929 . S
C1923 C1915 1.433 . S
C1923 N1925 1.384 . S
N1924 C1920 1.427 . S
N1924 C1921 1.384 . S
N1925 C1917 1.427 . S
N1925 C1923 1.384 . S
H1926 C1932 0.930 . S
H1927 C1936 0.930 . S
H1928 C1941 0.929 . S
H1929 C1939 0.929 . S
H1930 C1934 0.929 . S
H1931 C1940 0.929 . S
C1932 H1926 0.930 . S
C1932 C1933 1.367 . S
C1932 C1940 1.378 . S
C1933 C1932 1.367 . S
C1933 C1941 1.433 . S
C1934 H1930 0.929 . S
C1934 C1936 1.378 . S
C1934 C1938 1.350 . S
C1935 C1938 1.463 . S
C1935 C1940 1.350 . S
C1935 N1943 1.427 . S
C1936 H1927 0.930 . S
C1936 C1934 1.378 . S
C1936 C1937 1.367 . S
C1937 C1936 1.367 . S
C1937 C1939 1.433 . S
C1938 C1934 1.350 . S
C1938 C1935 1.463 . S
C1938 N1942 1.427 . S
C1939 H1929 0.929 . S
C1939 C1937 1.433 . S
C1939 N1942 1.384 . S
C1940 H1931 0.929 . S
C1940 C1932 1.378 . S
C1940 C1935 1.350 . S
C1941 H1928 0.929 . S
C1941 C1933 1.433 . S
C1941 N1943 1.384 . S
N1942 C1938 1.427 . S
N1942 C1939 1.384 . S
N1943 C1935 1.427 . S
N1943 C1941 1.384 . S
H1944 C1950 0.930 . S
H1945 C1954 0.930 . S
H1946 C1959 0.929 . S
H1947 C1957 0.929 . S
H1948 C1952 0.929 . S
H1949 C1958 0.929 . S
C1950 H1944 0.930 . S
C1950 C1951 1.367 . S
C1950 C1958 1.378 . S
C1951 C1950 1.367 . S
C1951 C1959 1.433 . S
C1952 H1948 0.929 . S
C1952 C1954 1.378 . S
C1952 C1956 1.350 . S
C1953 C1956 1.463 . S
C1953 C1958 1.350 . S
C1953 N1961 1.427 . S
C1954 H1945 0.930 . S
C1954 C1952 1.378 . S
C1954 C1955 1.367 . S
C1955 C1954 1.367 . S
C1955 C1957 1.433 . S
C1956 C1952 1.350 . S
C1956 C1953 1.463 . S
C1956 N1960 1.427 . S
C1957 H1947 0.929 . S
C1957 C1955 1.433 . S
C1957 N1960 1.384 . S
C1958 H1949 0.929 . S
C1958 C1950 1.378 . S
C1958 C1953 1.350 . S
C1959 H1946 0.929 . S
C1959 C1951 1.433 . S
C1959 N1961 1.384 . S
N1960 C1956 1.427 . S
N1960 C1957 1.384 . S
N1961 C1953 1.427 . S
N1961 C1959 1.384 . S
H1962 C1968 0.930 . S
H1963 C1972 0.930 . S
H1964 C1977 0.929 . S
H1965 C1975 0.929 . S
H1966 C1970 0.929 . S
H1967 C1976 0.929 . S
C1968 H1962 0.930 . S
C1968 C1969 1.367 . S
C1968 C1976 1.378 . S
C1969 C1968 1.367 . S
C1969 C1977 1.433 . S
C1970 H1966 0.929 . S
C1970 C1972 1.378 . S
C1970 C1974 1.350 . S
C1971 C1974 1.463 . S
C1971 C1976 1.350 . S
C1971 N1979 1.427 . S
C1972 H1963 0.930 . S
C1972 C1970 1.378 . S
C1972 C1973 1.367 . S
C1973 C1972 1.367 . S
C1973 C1975 1.433 . S
C1974 C1970 1.350 . S
C1974 C1971 1.463 . S
C1974 N1978 1.427 . S
C1975 H1965 0.929 . S
C1975 C1973 1.433 . S
C1975 N1978 1.384 . S
C1976 H1967 0.929 . S
C1976 C1968 1.378 . S
C1976 C1971 1.350 . S
C1977 H1964 0.929 . S
C1977 C1969 1.433 . S
C1977 N1979 1.384 . S
N1978 C1974 1.427 . S
N1978 C1975 1.384 . S
N1979 C1971 1.427 . S
N1979 C1977 1.384 . S
H1980 C1986 0.930 . S
H1981 C1990 0.930 . S
H1982 C1995 0.929 . S
H1983 C1993 0.929 . S
H1984 C1988 0.929 . S
H1985 C1994 0.929 . S
C1986 H1980 0.930 . S
C1986 C1987 1.367 . S
C1986 C1994 1.378 . S
C1987 C1986 1.367 . S
C1987 C1995 1.433 . S
C1988 H1984 0.929 . S
C1988 C1990 1.378 . S
C1988 C1992 1.350 . S
C1989 C1992 1.463 1_455 S
C1989 C1994 1.350 . S
C1989 N1997 1.430 1_455 S
C1990 H1981 0.930 . S
C1990 C1988 1.378 . S
C1990 C1991 1.367 . S
C1991 C1990 1.367 . S
C1991 C1993 1.433 . S
C1992 C1988 1.350 . S
C1992 C1989 1.463 1_655 S
C1992 N1996 1.430 1_655 S
C1993 H1983 0.929 . S
C1993 C1991 1.433 . S
C1993 N1996 1.372 1_655 S
C1994 H1985 0.929 . S
C1994 C1986 1.378 . S
C1994 C1989 1.350 . S
C1995 H1982 0.929 . S
C1995 C1987 1.433 . S
C1995 N1997 1.372 1_455 S
N1996 C1992 1.430 1_455 S
N1996 C1993 1.372 1_455 S
N1997 C1989 1.430 1_655 S
N1997 C1995 1.372 1_655 S
H1998 C2004 0.930 . S
H1999 C2008 0.930 . S
H2000 C2013 0.929 . S
H2001 C2011 0.929 . S
H2002 C2006 0.929 . S
H2003 C2012 0.929 . S
C2004 H1998 0.930 . S
C2004 C2005 1.367 . S
C2004 C2012 1.378 . S
C2005 C2004 1.367 . S
C2005 C2013 1.433 . S
C2006 H2002 0.929 . S
C2006 C2008 1.378 . S
C2006 C2010 1.350 . S
C2007 C2010 1.463 . S
C2007 C2012 1.350 . S
C2007 N2015 1.427 . S
C2008 H1999 0.930 . S
C2008 C2006 1.378 . S
C2008 C2009 1.367 . S
C2009 C2008 1.367 . S
C2009 C2011 1.433 . S
C2010 C2006 1.350 . S
C2010 C2007 1.463 . S
C2010 N2014 1.427 . S
C2011 H2001 0.929 . S
C2011 C2009 1.433 . S
C2011 N2014 1.384 . S
C2012 H2003 0.929 . S
C2012 C2004 1.378 . S
C2012 C2007 1.350 . S
C2013 H2000 0.929 . S
C2013 C2005 1.433 . S
C2013 N2015 1.384 . S
N2014 C2010 1.427 . S
N2014 C2011 1.384 . S
N2015 C2007 1.427 . S
N2015 C2013 1.384 . S
H2016 C2022 0.930 . S
H2017 C2026 0.930 . S
H2018 C2031 0.929 . S
H2019 C2029 0.929 . S
H2020 C2024 0.929 1_545 S
H2021 C2030 0.929 1_565 S
C2022 H2016 0.930 . S
C2022 C2023 1.367 . S
C2022 C2030 1.378 . S
C2023 C2022 1.367 . S
C2023 C2031 1.433 . S
C2024 H2020 0.929 1_565 S
C2024 C2026 1.378 . S
C2024 C2028 1.350 . S
C2025 C2028 1.463 1_545 S
C2025 C2030 1.350 . S
C2025 N2033 1.427 . S
C2026 H2017 0.930 . S
C2026 C2024 1.378 . S
C2026 C2027 1.367 . S
C2027 C2026 1.367 . S
C2027 C2029 1.433 . S
C2028 C2024 1.350 . S
C2028 C2025 1.463 1_565 S
C2028 N2032 1.427 . S
C2029 H2019 0.929 . S
C2029 C2027 1.433 . S
C2029 N2032 1.384 . S
C2030 H2021 0.929 1_545 S
C2030 C2022 1.378 . S
C2030 C2025 1.350 . S
C2031 H2018 0.929 . S
C2031 C2023 1.433 . S
C2031 N2033 1.384 . S
N2032 C2028 1.427 . S
N2032 C2029 1.384 . S
N2033 C2025 1.427 . S
N2033 C2031 1.384 . S
H2034 C2040 0.930 . S
H2035 C2044 0.930 . S
H2036 C2049 0.929 . S
H2037 C2047 0.929 . S
H2038 C2042 0.929 1_565 S
H2039 C2048 0.929 1_545 S
C2040 H2034 0.930 . S
C2040 C2041 1.367 . S
C2040 C2048 1.378 . S
C2041 C2040 1.367 . S
C2041 C2049 1.433 . S
C2042 H2038 0.929 1_545 S
C2042 C2044 1.378 . S
C2042 C2046 1.350 . S
C2043 C2046 1.463 1_565 S
C2043 C2048 1.350 . S
C2043 N2051 1.427 . S
C2044 H2035 0.930 . S
C2044 C2042 1.378 . S
C2044 C2045 1.367 . S
C2045 C2044 1.367 . S
C2045 C2047 1.433 . S
C2046 C2042 1.350 . S
C2046 C2043 1.463 1_545 S
C2046 N2050 1.427 . S
C2047 H2037 0.929 . S
C2047 C2045 1.433 . S
C2047 N2050 1.384 . S
C2048 H2039 0.929 1_565 S
C2048 C2040 1.378 . S
C2048 C2043 1.350 . S
C2049 H2036 0.929 . S
C2049 C2041 1.433 . S
C2049 N2051 1.384 . S
N2050 C2046 1.427 . S
N2050 C2047 1.384 . S
N2051 C2043 1.427 . S
N2051 C2049 1.384 . S
H2052 C2058 0.930 . S
H2053 C2062 0.930 . S
H2054 C2067 0.929 1_655 S
H2055 C2065 0.929 1_455 S
H2056 C2060 0.929 . S
H2057 C2066 0.929 . S
C2058 H2052 0.930 . S
C2058 C2059 1.367 . S
C2058 C2066 1.378 . S
C2059 C2058 1.367 . S
C2059 C2067 1.433 . S
C2060 H2056 0.929 . S
C2060 C2062 1.378 . S
C2060 C2064 1.350 . S
C2061 C2064 1.463 1_455 S
C2061 C2066 1.350 . S
C2061 N2069 1.427 1_455 S
C2062 H2053 0.930 . S
C2062 C2060 1.378 . S
C2062 C2063 1.367 . S
C2063 C2062 1.367 . S
C2063 C2065 1.433 . S
C2064 C2060 1.350 . S
C2064 C2061 1.463 1_655 S
C2064 N2068 1.427 1_655 S
C2065 H2055 0.929 1_655 S
C2065 C2063 1.433 . S
C2065 N2068 1.384 1_655 S
C2066 H2057 0.929 . S
C2066 C2058 1.378 . S
C2066 C2061 1.350 . S
C2067 H2054 0.929 1_455 S
C2067 C2059 1.433 . S
C2067 N2069 1.384 1_455 S
N2068 C2064 1.427 1_455 S
N2068 C2065 1.384 1_455 S
N2069 C2061 1.427 1_655 S
N2069 C2067 1.384 1_655 S
H2070 C2076 0.930 . S
H2071 C2080 0.930 . S
H2072 C2085 0.929 . S
H2073 C2083 0.929 . S
H2074 C2078 0.929 . S
H2075 C2084 0.929 . S
C2076 H2070 0.930 . S
C2076 C2077 1.367 . S
C2076 C2084 1.378 . S
C2077 C2076 1.367 . S
C2077 C2085 1.433 . S
C2078 H2074 0.929 . S
C2078 C2080 1.378 . S
C2078 C2082 1.350 . S
C2079 C2082 1.463 . S
C2079 C2084 1.350 . S
C2079 N2087 1.427 . S
C2080 H2071 0.930 . S
C2080 C2078 1.378 . S
C2080 C2081 1.367 . S
C2081 C2080 1.367 . S
C2081 C2083 1.433 . S
C2082 C2078 1.350 . S
C2082 C2079 1.463 . S
C2082 N2086 1.427 . S
C2083 H2073 0.929 . S
C2083 C2081 1.433 . S
C2083 N2086 1.384 . S
C2084 H2075 0.929 . S
C2084 C2076 1.378 . S
C2084 C2079 1.350 . S
C2085 H2072 0.929 . S
C2085 C2077 1.433 . S
C2085 N2087 1.384 . S
N2086 C2082 1.427 . S
N2086 C2083 1.384 . S
N2087 C2079 1.427 . S
N2087 C2085 1.384 . S
H2088 C2094 0.930 . S
H2089 C2098 0.930 . S
H2090 C2103 0.929 . S
H2091 C2101 0.929 . S
H2092 C2096 0.929 . S
H2093 C2102 0.929 . S
C2094 H2088 0.930 . S
C2094 C2095 1.367 . S
C2094 C2102 1.378 . S
C2095 C2094 1.367 . S
C2095 C2103 1.433 . S
C2096 H2092 0.929 . S
C2096 C2098 1.378 . S
C2096 C2100 1.350 . S
C2097 C2100 1.463 . S
C2097 C2102 1.350 . S
C2097 N2105 1.427 . S
C2098 H2089 0.930 . S
C2098 C2096 1.378 . S
C2098 C2099 1.367 . S
C2099 C2098 1.367 . S
C2099 C2101 1.433 . S
C2100 C2096 1.350 . S
C2100 C2097 1.463 . S
C2100 N2104 1.427 . S
C2101 H2091 0.929 . S
C2101 C2099 1.433 . S
C2101 N2104 1.384 . S
C2102 H2093 0.929 . S
C2102 C2094 1.378 . S
C2102 C2097 1.350 . S
C2103 H2090 0.929 . S
C2103 C2095 1.433 . S
C2103 N2105 1.384 . S
N2104 C2100 1.427 . S
N2104 C2101 1.384 . S
N2105 C2097 1.427 . S
N2105 C2103 1.384 . S
H2106 C2112 0.930 . S
H2107 C2116 0.930 . S
H2108 C2121 0.929 . S
H2109 C2119 0.929 . S
H2110 C2114 0.929 1_545 S
H2111 C2120 0.929 1_565 S
C2112 H2106 0.930 . S
C2112 C2113 1.367 . S
C2112 C2120 1.378 . S
C2113 C2112 1.367 . S
C2113 C2121 1.433 . S
C2114 H2110 0.929 1_565 S
C2114 C2116 1.378 . S
C2114 C2118 1.350 . S
C2115 C2118 1.463 1_545 S
C2115 C2120 1.350 . S
C2115 N2123 1.427 . S
C2116 H2107 0.930 . S
C2116 C2114 1.378 . S
C2116 C2117 1.367 . S
C2117 C2116 1.367 . S
C2117 C2119 1.433 . S
C2118 C2114 1.350 . S
C2118 C2115 1.463 1_565 S
C2118 N2122 1.427 . S
C2119 H2109 0.929 . S
C2119 C2117 1.433 . S
C2119 N2122 1.384 . S
C2120 H2111 0.929 1_545 S
C2120 C2112 1.378 . S
C2120 C2115 1.350 . S
C2121 H2108 0.929 . S
C2121 C2113 1.433 . S
C2121 N2123 1.384 . S
N2122 C2118 1.427 . S
N2122 C2119 1.384 . S
N2123 C2115 1.427 . S
N2123 C2121 1.384 . S
H2124 C2130 0.930 . S
H2125 C2134 0.930 . S
H2126 C2139 0.929 . S
H2127 C2137 0.929 . S
H2128 C2132 0.929 . S
H2129 C2138 0.929 . S
C2130 H2124 0.930 . S
C2130 C2131 1.367 . S
C2130 C2138 1.378 . S
C2131 C2130 1.367 . S
C2131 C2139 1.433 . S
C2132 H2128 0.929 . S
C2132 C2134 1.378 . S
C2132 C2136 1.350 . S
C2133 C2136 1.463 1_655 S
C2133 C2138 1.350 . S
C2133 N2141 1.427 . S
C2134 H2125 0.930 . S
C2134 C2132 1.378 . S
C2134 C2135 1.367 . S
C2135 C2134 1.367 . S
C2135 C2137 1.433 . S
C2136 C2132 1.350 . S
C2136 C2133 1.463 1_455 S
C2136 N2140 1.427 . S
C2137 H2127 0.929 . S
C2137 C2135 1.433 . S
C2137 N2140 1.384 . S
C2138 H2129 0.929 . S
C2138 C2130 1.378 . S
C2138 C2133 1.350 . S
C2139 H2126 0.929 . S
C2139 C2131 1.433 . S
C2139 N2141 1.384 . S
N2140 C2136 1.427 . S
N2140 C2137 1.384 . S
N2141 C2133 1.427 . S
N2141 C2139 1.384 . S
H2142 C2148 0.930 . S
H2143 C2152 0.930 . S
H2144 C2157 0.929 . S
H2145 C2155 0.929 . S
H2146 C2150 0.929 . S
H2147 C2156 0.929 . S
C2148 H2142 0.930 . S
C2148 C2149 1.367 . S
C2148 C2156 1.378 . S
C2149 C2148 1.367 . S
C2149 C2157 1.433 . S
C2150 H2146 0.929 . S
C2150 C2152 1.378 . S
C2150 C2154 1.350 . S
C2151 C2154 1.463 . S
C2151 C2156 1.350 . S
C2151 N2159 1.427 . S
C2152 H2143 0.930 . S
C2152 C2150 1.378 . S
C2152 C2153 1.367 . S
C2153 C2152 1.367 . S
C2153 C2155 1.433 . S
C2154 C2150 1.350 . S
C2154 C2151 1.463 . S
C2154 N2158 1.427 . S
C2155 H2145 0.929 . S
C2155 C2153 1.433 . S
C2155 N2158 1.384 . S
C2156 H2147 0.929 . S
C2156 C2148 1.378 . S
C2156 C2151 1.350 . S
C2157 H2144 0.929 . S
C2157 C2149 1.433 . S
C2157 N2159 1.384 . S
N2158 C2154 1.427 . S
N2158 C2155 1.384 . S
N2159 C2151 1.427 . S
N2159 C2157 1.384 . S
H2160 C2166 0.930 1_545 S
H2161 C2170 0.930 1_565 S
H2162 C2175 0.929 . S
H2163 C2173 0.929 . S
H2164 C2168 0.929 . S
H2165 C2174 0.929 . S
C2166 H2160 0.930 1_565 S
C2166 C2167 1.367 . S
C2166 C2174 1.378 1_565 S
C2167 C2166 1.367 . S
C2167 C2175 1.433 . S
C2168 H2164 0.929 . S
C2168 C2170 1.378 1_565 S
C2168 C2172 1.350 1_565 S
C2169 C2172 1.463 1_565 S
C2169 C2174 1.350 1_565 S
C2169 N2177 1.427 . S
C2170 H2161 0.930 1_545 S
C2170 C2168 1.378 1_545 S
C2170 C2171 1.367 . S
C2171 C2170 1.367 . S
C2171 C2173 1.433 . S
C2172 C2168 1.350 1_545 S
C2172 C2169 1.463 1_545 S
C2172 N2176 1.427 . S
C2173 H2163 0.929 . S
C2173 C2171 1.433 . S
C2173 N2176 1.384 . S
C2174 H2165 0.929 . S
C2174 C2166 1.378 1_545 S
C2174 C2169 1.350 1_545 S
C2175 H2162 0.929 . S
C2175 C2167 1.433 . S
C2175 N2177 1.384 . S
N2176 C2172 1.427 . S
N2176 C2173 1.384 . S
N2177 C2169 1.427 . S
N2177 C2175 1.384 . S
H2178 C2184 0.930 . S
H2179 C2188 0.930 . S
H2180 C2193 0.929 . S
H2181 C2191 0.929 . S
H2182 C2186 0.929 . S
H2183 C2192 0.929 . S
C2184 H2178 0.930 . S
C2184 C2185 1.367 . S
C2184 C2192 1.378 . S
C2185 C2184 1.367 . S
C2185 C2193 1.433 . S
C2186 H2182 0.929 . S
C2186 C2188 1.378 . S
C2186 C2190 1.350 . S
C2187 C2190 1.463 1_655 S
C2187 C2192 1.350 . S
C2187 N2195 1.427 . S
C2188 H2179 0.930 . S
C2188 C2186 1.378 . S
C2188 C2189 1.367 . S
C2189 C2188 1.367 . S
C2189 C2191 1.433 . S
C2190 C2186 1.350 . S
C2190 C2187 1.463 1_455 S
C2190 N2194 1.427 . S
C2191 H2181 0.929 . S
C2191 C2189 1.433 . S
C2191 N2194 1.384 . S
C2192 H2183 0.929 . S
C2192 C2184 1.378 . S
C2192 C2187 1.350 . S
C2193 H2180 0.929 . S
C2193 C2185 1.433 . S
C2193 N2195 1.384 . S
N2194 C2190 1.427 . S
N2194 C2191 1.384 . S
N2195 C2187 1.427 . S
N2195 C2193 1.384 . S
H2196 C2202 0.930 . S
H2197 C2206 0.930 . S
H2198 C2211 0.929 . S
H2199 C2209 0.929 . S
H2200 C2204 0.929 . S
H2201 C2210 0.929 . S
C2202 H2196 0.930 . S
C2202 C2203 1.367 . S
C2202 C2210 1.378 . S
C2203 C2202 1.367 . S
C2203 C2211 1.433 . S
C2204 H2200 0.929 . S
C2204 C2206 1.378 . S
C2204 C2208 1.350 . S
C2205 C2208 1.463 . S
C2205 C2210 1.350 . S
C2205 N2213 1.427 . S
C2206 H2197 0.930 . S
C2206 C2204 1.378 . S
C2206 C2207 1.367 . S
C2207 C2206 1.367 . S
C2207 C2209 1.433 . S
C2208 C2204 1.350 . S
C2208 C2205 1.463 . S
C2208 N2212 1.427 . S
C2209 H2199 0.929 . S
C2209 C2207 1.433 . S
C2209 N2212 1.384 . S
C2210 H2201 0.929 . S
C2210 C2202 1.378 . S
C2210 C2205 1.350 . S
C2211 H2198 0.929 . S
C2211 C2203 1.433 . S
C2211 N2213 1.384 . S
N2212 C2208 1.427 . S
N2212 C2209 1.384 . S
N2213 C2205 1.427 . S
N2213 C2211 1.384 . S
H2214 C2220 0.930 . S
H2215 C2224 0.930 . S
H2216 C2229 0.929 . S
H2217 C2227 0.929 . S
H2218 C2222 0.929 . S
H2219 C2228 0.929 . S
C2220 H2214 0.930 . S
C2220 C2221 1.367 . S
C2220 C2228 1.378 . S
C2221 C2220 1.367 . S
C2221 C2229 1.433 . S
C2222 H2218 0.929 . S
C2222 C2224 1.378 . S
C2222 C2226 1.350 . S
C2223 C2226 1.463 . S
C2223 C2228 1.350 . S
C2223 N2231 1.427 . S
C2224 H2215 0.930 . S
C2224 C2222 1.378 . S
C2224 C2225 1.367 . S
C2225 C2224 1.367 . S
C2225 C2227 1.433 . S
C2226 C2222 1.350 . S
C2226 C2223 1.463 . S
C2226 N2230 1.427 . S
C2227 H2217 0.929 . S
C2227 C2225 1.433 . S
C2227 N2230 1.384 . S
C2228 H2219 0.929 . S
C2228 C2220 1.378 . S
C2228 C2223 1.350 . S
C2229 H2216 0.929 . S
C2229 C2221 1.433 . S
C2229 N2231 1.384 . S
N2230 C2226 1.427 . S
N2230 C2227 1.384 . S
N2231 C2223 1.427 . S
N2231 C2229 1.384 . S
H2232 C2238 0.930 . S
H2233 C2242 0.930 . S
H2234 C2247 0.929 . S
H2235 C2245 0.929 . S
H2236 C2240 0.929 . S
H2237 C2246 0.929 . S
C2238 H2232 0.930 . S
C2238 C2239 1.367 . S
C2238 C2246 1.378 . S
C2239 C2238 1.367 . S
C2239 C2247 1.433 . S
C2240 H2236 0.929 . S
C2240 C2242 1.378 . S
C2240 C2244 1.350 . S
C2241 C2244 1.463 . S
C2241 C2246 1.350 . S
C2241 N2249 1.427 . S
C2242 H2233 0.930 . S
C2242 C2240 1.378 . S
C2242 C2243 1.367 . S
C2243 C2242 1.367 . S
C2243 C2245 1.433 . S
C2244 C2240 1.350 . S
C2244 C2241 1.463 . S
C2244 N2248 1.427 . S
C2245 H2235 0.929 . S
C2245 C2243 1.433 . S
C2245 N2248 1.384 . S
C2246 H2237 0.929 . S
C2246 C2238 1.378 . S
C2246 C2241 1.350 . S
C2247 H2234 0.929 . S
C2247 C2239 1.433 . S
C2247 N2249 1.384 . S
N2248 C2244 1.427 . S
N2248 C2245 1.384 . S
N2249 C2241 1.427 . S
N2249 C2247 1.384 . S
H2250 C2256 0.930 . S
H2251 C2260 0.930 . S
H2252 C2265 0.929 . S
H2253 C2263 0.929 . S
H2254 C2258 0.929 . S
H2255 C2264 0.929 . S
C2256 H2250 0.930 . S
C2256 C2257 1.367 . S
C2256 C2264 1.378 . S
C2257 C2256 1.367 . S
C2257 C2265 1.433 . S
C2258 H2254 0.929 . S
C2258 C2260 1.378 . S
C2258 C2262 1.350 . S
C2259 C2262 1.463 . S
C2259 C2264 1.350 . S
C2259 N2267 1.427 . S
C2260 H2251 0.930 . S
C2260 C2258 1.378 . S
C2260 C2261 1.367 . S
C2261 C2260 1.367 . S
C2261 C2263 1.433 . S
C2262 C2258 1.350 . S
C2262 C2259 1.463 . S
C2262 N2266 1.427 . S
C2263 H2253 0.929 . S
C2263 C2261 1.433 . S
C2263 N2266 1.384 . S
C2264 H2255 0.929 . S
C2264 C2256 1.378 . S
C2264 C2259 1.350 . S
C2265 H2252 0.929 . S
C2265 C2257 1.433 . S
C2265 N2267 1.384 . S
N2266 C2262 1.427 . S
N2266 C2263 1.384 . S
N2267 C2259 1.427 . S
N2267 C2265 1.384 . S
H2268 C2274 0.930 . S
H2269 C2278 0.930 . S
H2270 C2283 0.929 . S
H2271 C2281 0.929 1_556 S
H2272 C2276 0.929 . S
H2273 C2282 0.929 . S
C2274 H2268 0.930 . S
C2274 C2275 1.367 . S
C2274 C2282 1.378 . S
C2275 C2274 1.367 . S
C2275 C2283 1.433 . S
C2276 H2272 0.929 . S
C2276 C2278 1.378 . S
C2276 C2280 1.350 . S
C2277 C2280 1.463 . S
C2277 C2282 1.350 . S
C2277 N2285 1.427 . S
C2278 H2269 0.930 . S
C2278 C2276 1.378 . S
C2278 C2279 1.367 . S
C2279 C2278 1.367 . S
C2279 C2281 1.433 . S
C2280 C2276 1.350 . S
C2280 C2277 1.463 . S
C2280 N2284 1.427 . S
C2281 H2271 0.929 1_554 S
C2281 C2279 1.433 . S
C2281 N2284 1.384 . S
C2282 H2273 0.929 . S
C2282 C2274 1.378 . S
C2282 C2277 1.350 . S
C2283 H2270 0.929 . S
C2283 C2275 1.433 . S
C2283 N2285 1.384 . S
N2284 C2280 1.427 . S
N2284 C2281 1.384 . S
N2285 C2277 1.427 . S
N2285 C2283 1.384 . S
H2286 C2292 0.930 . S
H2287 C2296 0.930 . S
H2288 C2301 0.929 . S
H2289 C2299 0.929 . S
H2290 C2294 0.929 . S
H2291 C2300 0.929 . S
C2292 H2286 0.930 . S
C2292 C2293 1.367 . S
C2292 C2300 1.378 . S
C2293 C2292 1.367 . S
C2293 C2301 1.433 . S
C2294 H2290 0.929 . S
C2294 C2296 1.378 . S
C2294 C2298 1.350 . S
C2295 C2298 1.463 . S
C2295 C2300 1.350 . S
C2295 N2303 1.427 . S
C2296 H2287 0.930 . S
C2296 C2294 1.378 . S
C2296 C2297 1.367 . S
C2297 C2296 1.367 . S
C2297 C2299 1.433 . S
C2298 C2294 1.350 . S
C2298 C2295 1.463 . S
C2298 N2302 1.427 . S
C2299 H2289 0.929 . S
C2299 C2297 1.433 . S
C2299 N2302 1.384 . S
C2300 H2291 0.929 . S
C2300 C2292 1.378 . S
C2300 C2295 1.350 . S
C2301 H2288 0.929 . S
C2301 C2293 1.433 . S
C2301 N2303 1.384 . S
N2302 C2298 1.427 . S
N2302 C2299 1.384 . S
N2303 C2295 1.427 . S
N2303 C2301 1.384 . S
H2304 C2310 0.930 . S
H2305 C2314 0.930 1_554 S
H2306 C2319 0.929 . S
H2307 C2317 0.929 . S
H2308 C2312 0.929 . S
H2309 C2318 0.929 . S
C2310 H2304 0.930 . S
C2310 C2311 1.367 . S
C2310 C2318 1.378 . S
C2311 C2310 1.367 . S
C2311 C2319 1.433 . S
C2312 H2308 0.929 . S
C2312 C2314 1.378 . S
C2312 C2316 1.350 . S
C2313 C2316 1.463 . S
C2313 C2318 1.350 . S
C2313 N2321 1.427 . S
C2314 H2305 0.930 1_556 S
C2314 C2312 1.378 . S
C2314 C2315 1.367 . S
C2315 C2314 1.367 . S
C2315 C2317 1.433 . S
C2316 C2312 1.350 . S
C2316 C2313 1.463 . S
C2316 N2320 1.427 . S
C2317 H2307 0.929 . S
C2317 C2315 1.433 . S
C2317 N2320 1.384 . S
C2318 H2309 0.929 . S
C2318 C2310 1.378 . S
C2318 C2313 1.350 . S
C2319 H2306 0.929 . S
C2319 C2311 1.433 . S
C2319 N2321 1.384 . S
N2320 C2316 1.427 . S
N2320 C2317 1.384 . S
N2321 C2313 1.427 . S
N2321 C2319 1.384 . S
H2322 C2328 0.930 1_554 S
H2323 C2332 0.930 . S
H2324 C2337 0.929 . S
H2325 C2335 0.929 . S
H2326 C2330 0.929 . S
H2327 C2336 0.929 . S
C2328 H2322 0.930 1_556 S
C2328 C2329 1.367 . S
C2328 C2336 1.378 . S
C2329 C2328 1.367 . S
C2329 C2337 1.433 . S
C2330 H2326 0.929 . S
C2330 C2332 1.378 . S
C2330 C2334 1.350 . S
C2331 C2334 1.463 . S
C2331 C2336 1.350 . S
C2331 N2339 1.427 . S
C2332 H2323 0.930 . S
C2332 C2330 1.378 . S
C2332 C2333 1.367 . S
C2333 C2332 1.367 . S
C2333 C2335 1.433 . S
C2334 C2330 1.350 . S
C2334 C2331 1.463 . S
C2334 N2338 1.427 . S
C2335 H2325 0.929 . S
C2335 C2333 1.433 . S
C2335 N2338 1.384 . S
C2336 H2327 0.929 . S
C2336 C2328 1.378 . S
C2336 C2331 1.350 . S
C2337 H2324 0.929 . S
C2337 C2329 1.433 . S
C2337 N2339 1.384 . S
N2338 C2334 1.427 . S
N2338 C2335 1.384 . S
N2339 C2331 1.427 . S
N2339 C2337 1.384 . S
H2340 C2346 0.930 . S
H2341 C2350 0.930 . S
H2342 C2355 0.929 1_554 S
H2343 C2353 0.929 . S
H2344 C2348 0.929 . S
H2345 C2354 0.929 . S
C2346 H2340 0.930 . S
C2346 C2347 1.367 . S
C2346 C2354 1.378 . S
C2347 C2346 1.367 . S
C2347 C2355 1.433 . S
C2348 H2344 0.929 . S
C2348 C2350 1.378 . S
C2348 C2352 1.350 . S
C2349 C2352 1.463 . S
C2349 C2354 1.350 . S
C2349 N2357 1.427 . S
C2350 H2341 0.930 . S
C2350 C2348 1.378 . S
C2350 C2351 1.367 . S
C2351 C2350 1.367 . S
C2351 C2353 1.433 . S
C2352 C2348 1.350 . S
C2352 C2349 1.463 . S
C2352 N2356 1.427 . S
C2353 H2343 0.929 . S
C2353 C2351 1.433 . S
C2353 N2356 1.384 . S
C2354 H2345 0.929 . S
C2354 C2346 1.378 . S
C2354 C2349 1.350 . S
C2355 H2342 0.929 1_556 S
C2355 C2347 1.433 . S
C2355 N2357 1.384 . S
N2356 C2352 1.427 . S
N2356 C2353 1.384 . S
N2357 C2349 1.427 . S
N2357 C2355 1.384 . S
H2358 C2364 0.930 . S
H2359 C2368 0.930 . S
H2360 C2373 0.929 . S
H2361 C2371 0.929 . S
H2362 C2366 0.929 . S
H2363 C2372 0.929 . S
C2364 H2358 0.930 . S
C2364 C2365 1.367 . S
C2364 C2372 1.378 . S
C2365 C2364 1.367 . S
C2365 C2373 1.433 . S
C2366 H2362 0.929 . S
C2366 C2368 1.378 . S
C2366 C2370 1.350 . S
C2367 C2370 1.463 . S
C2367 C2372 1.350 . S
C2367 N2375 1.427 . S
C2368 H2359 0.930 . S
C2368 C2366 1.378 . S
C2368 C2369 1.367 . S
C2369 C2368 1.367 . S
C2369 C2371 1.433 . S
C2370 C2366 1.350 . S
C2370 C2367 1.463 . S
C2370 N2374 1.427 . S
C2371 H2361 0.929 . S
C2371 C2369 1.433 . S
C2371 N2374 1.384 . S
C2372 H2363 0.929 . S
C2372 C2364 1.378 . S
C2372 C2367 1.350 . S
C2373 H2360 0.929 . S
C2373 C2365 1.433 . S
C2373 N2375 1.384 . S
N2374 C2370 1.427 . S
N2374 C2371 1.384 . S
N2375 C2367 1.427 . S
N2375 C2373 1.384 . S
H2376 C2382 0.930 . S
H2377 C2386 0.930 . S
H2378 C2391 0.929 . S
H2379 C2389 0.929 . S
H2380 C2384 0.929 . S
H2381 C2390 0.929 . S
C2382 H2376 0.930 . S
C2382 C2383 1.367 . S
C2382 C2390 1.378 . S
C2383 C2382 1.367 . S
C2383 C2391 1.433 . S
C2384 H2380 0.929 . S
C2384 C2386 1.378 . S
C2384 C2388 1.350 . S
C2385 C2388 1.463 . S
C2385 C2390 1.350 . S
C2385 N2393 1.427 . S
C2386 H2377 0.930 . S
C2386 C2384 1.378 . S
C2386 C2387 1.367 . S
C2387 C2386 1.367 . S
C2387 C2389 1.433 . S
C2388 C2384 1.350 . S
C2388 C2385 1.463 . S
C2388 N2392 1.427 . S
C2389 H2379 0.929 . S
C2389 C2387 1.433 . S
C2389 N2392 1.384 . S
C2390 H2381 0.929 . S
C2390 C2382 1.378 . S
C2390 C2385 1.350 . S
C2391 H2378 0.929 . S
C2391 C2383 1.433 . S
C2391 N2393 1.384 . S
N2392 C2388 1.427 . S
N2392 C2389 1.384 . S
N2393 C2385 1.427 . S
N2393 C2391 1.384 . S
H2394 C2400 0.930 . S
H2395 C2404 0.930 . S
H2396 C2409 0.929 . S
H2397 C2407 0.929 . S
H2398 C2402 0.929 . S
H2399 C2408 0.929 . S
C2400 H2394 0.930 . S
C2400 C2401 1.367 . S
C2400 C2408 1.378 . S
C2401 C2400 1.367 . S
C2401 C2409 1.433 . S
C2402 H2398 0.929 . S
C2402 C2404 1.378 . S
C2402 C2406 1.350 . S
C2403 C2406 1.463 . S
C2403 C2408 1.350 . S
C2403 N2411 1.427 . S
C2404 H2395 0.930 . S
C2404 C2402 1.378 . S
C2404 C2405 1.367 . S
C2405 C2404 1.367 . S
C2405 C2407 1.433 . S
C2406 C2402 1.350 . S
C2406 C2403 1.463 . S
C2406 N2410 1.427 . S
C2407 H2397 0.929 . S
C2407 C2405 1.433 . S
C2407 N2410 1.384 . S
C2408 H2399 0.929 . S
C2408 C2400 1.378 . S
C2408 C2403 1.350 . S
C2409 H2396 0.929 . S
C2409 C2401 1.433 . S
C2409 N2411 1.384 . S
N2410 C2406 1.427 . S
N2410 C2407 1.384 . S
N2411 C2403 1.427 . S
N2411 C2409 1.384 . S
H2412 C2418 0.930 . S
H2413 C2422 0.930 . S
H2414 C2427 0.929 . S
H2415 C2425 0.929 . S
H2416 C2420 0.929 . S
H2417 C2426 0.929 . S
C2418 H2412 0.930 . S
C2418 C2419 1.367 . S
C2418 C2426 1.378 . S
C2419 C2418 1.367 . S
C2419 C2427 1.433 . S
C2420 H2416 0.929 . S
C2420 C2422 1.378 . S
C2420 C2424 1.350 . S
C2421 C2424 1.463 . S
C2421 C2426 1.350 . S
C2421 N2429 1.427 . S
C2422 H2413 0.930 . S
C2422 C2420 1.378 . S
C2422 C2423 1.367 . S
C2423 C2422 1.367 . S
C2423 C2425 1.433 . S
C2424 C2420 1.350 . S
C2424 C2421 1.463 . S
C2424 N2428 1.427 . S
C2425 H2415 0.929 . S
C2425 C2423 1.433 . S
C2425 N2428 1.384 . S
C2426 H2417 0.929 . S
C2426 C2418 1.378 . S
C2426 C2421 1.350 . S
C2427 H2414 0.929 . S
C2427 C2419 1.433 . S
C2427 N2429 1.384 . S
N2428 C2424 1.427 . S
N2428 C2425 1.384 . S
N2429 C2421 1.427 . S
N2429 C2427 1.384 . S
H2430 C2436 0.930 . S
H2431 C2440 0.930 . S
H2432 C2445 0.929 . S
H2433 C2443 0.929 . S
H2434 C2438 0.929 . S
H2435 C2444 0.929 . S
C2436 H2430 0.930 . S
C2436 C2437 1.367 . S
C2436 C2444 1.378 . S
C2437 C2436 1.367 . S
C2437 C2445 1.433 . S
C2438 H2434 0.929 . S
C2438 C2440 1.378 1_565 S
C2438 C2442 1.350 . S
C2439 C2442 1.463 . S
C2439 C2444 1.350 . S
C2439 N2447 1.427 . S
C2440 H2431 0.930 . S
C2440 C2438 1.378 1_545 S
C2440 C2441 1.367 1_545 S
C2441 C2440 1.367 1_565 S
C2441 C2443 1.433 . S
C2442 C2438 1.350 . S
C2442 C2439 1.463 . S
C2442 N2446 1.427 . S
C2443 H2433 0.929 . S
C2443 C2441 1.433 . S
C2443 N2446 1.384 . S
C2444 H2435 0.929 . S
C2444 C2436 1.378 . S
C2444 C2439 1.350 . S
C2445 H2432 0.929 . S
C2445 C2437 1.433 . S
C2445 N2447 1.384 . S
N2446 C2442 1.427 . S
N2446 C2443 1.384 . S
N2447 C2439 1.427 . S
N2447 C2445 1.384 . S
H2448 C2454 0.930 . S
H2449 C2458 0.930 . S
H2450 C2463 0.929 . S
H2451 C2461 0.929 . S
H2452 C2456 0.929 . S
H2453 C2462 0.929 . S
C2454 H2448 0.930 . S
C2454 C2455 1.367 . S
C2454 C2462 1.378 . S
C2455 C2454 1.367 . S
C2455 C2463 1.433 . S
C2456 H2452 0.929 . S
C2456 C2458 1.378 . S
C2456 C2460 1.350 . S
C2457 C2460 1.463 . S
C2457 C2462 1.350 . S
C2457 N2465 1.427 . S
C2458 H2449 0.930 . S
C2458 C2456 1.378 . S
C2458 C2459 1.367 . S
C2459 C2458 1.367 . S
C2459 C2461 1.433 . S
C2460 C2456 1.350 . S
C2460 C2457 1.463 . S
C2460 N2464 1.427 . S
C2461 H2451 0.929 . S
C2461 C2459 1.433 . S
C2461 N2464 1.384 . S
C2462 H2453 0.929 . S
C2462 C2454 1.378 . S
C2462 C2457 1.350 . S
C2463 H2450 0.929 . S
C2463 C2455 1.433 . S
C2463 N2465 1.384 . S
N2464 C2460 1.427 . S
N2464 C2461 1.384 . S
N2465 C2457 1.427 . S
N2465 C2463 1.384 . S
H2466 C2472 0.930 . S
H2467 C2476 0.930 . S
H2468 C2481 0.929 . S
H2469 C2479 0.929 . S
H2470 C2474 0.929 . S
H2471 C2480 0.929 . S
C2472 H2466 0.930 . S
C2472 C2473 1.367 . S
C2472 C2480 1.378 . S
C2473 C2472 1.367 . S
C2473 C2481 1.433 . S
C2474 H2470 0.929 . S
C2474 C2476 1.378 . S
C2474 C2478 1.350 . S
C2475 C2478 1.463 . S
C2475 C2480 1.350 . S
C2475 N2483 1.427 . S
C2476 H2467 0.930 . S
C2476 C2474 1.378 . S
C2476 C2477 1.367 . S
C2477 C2476 1.367 . S
C2477 C2479 1.433 . S
C2478 C2474 1.350 . S
C2478 C2475 1.463 . S
C2478 N2482 1.427 . S
C2479 H2469 0.929 . S
C2479 C2477 1.433 . S
C2479 N2482 1.384 . S
C2480 H2471 0.929 . S
C2480 C2472 1.378 . S
C2480 C2475 1.350 . S
C2481 H2468 0.929 . S
C2481 C2473 1.433 . S
C2481 N2483 1.384 . S
N2482 C2478 1.427 . S
N2482 C2479 1.384 . S
N2483 C2475 1.427 . S
N2483 C2481 1.384 . S
H2484 C2490 0.930 . S
H2485 C2494 0.930 . S
H2486 C2499 0.929 . S
H2487 C2497 0.929 . S
H2488 C2492 0.929 . S
H2489 C2498 0.929 . S
C2490 H2484 0.930 . S
C2490 C2491 1.367 . S
C2490 C2498 1.378 . S
C2491 C2490 1.367 . S
C2491 C2499 1.433 1_545 S
C2492 H2488 0.929 . S
C2492 C2494 1.378 . S
C2492 C2496 1.350 . S
C2493 C2496 1.463 . S
C2493 C2498 1.350 . S
C2493 N2501 1.427 . S
C2494 H2485 0.930 . S
C2494 C2492 1.378 . S
C2494 C2495 1.367 . S
C2495 C2494 1.367 . S
C2495 C2497 1.433 . S
C2496 C2492 1.350 . S
C2496 C2493 1.463 . S
C2496 N2500 1.427 . S
C2497 H2487 0.929 . S
C2497 C2495 1.433 . S
C2497 N2500 1.384 . S
C2498 H2489 0.929 . S
C2498 C2490 1.378 . S
C2498 C2493 1.350 . S
C2499 H2486 0.929 . S
C2499 C2491 1.433 1_565 S
C2499 N2501 1.384 1_565 S
N2500 C2496 1.427 . S
N2500 C2497 1.384 . S
N2501 C2493 1.427 . S
N2501 C2499 1.384 1_545 S
H2502 C2508 0.930 . S
H2503 C2512 0.930 . S
H2504 C2517 0.929 1_455 S
H2505 C2515 0.929 . S
H2506 C2510 0.929 . S
H2507 C2516 0.929 . S
C2508 H2502 0.930 . S
C2508 C2509 1.367 . S
C2508 C2516 1.378 . S
C2509 C2508 1.367 . S
C2509 C2517 1.433 . S
C2510 H2506 0.929 . S
C2510 C2512 1.378 . S
C2510 C2514 1.350 . S
C2511 C2514 1.463 . S
C2511 C2516 1.350 . S
C2511 N2519 1.427 . S
C2512 H2503 0.930 . S
C2512 C2510 1.378 . S
C2512 C2513 1.367 . S
C2513 C2512 1.367 . S
C2513 C2515 1.433 . S
C2514 C2510 1.350 . S
C2514 C2511 1.463 . S
C2514 N2518 1.427 . S
C2515 H2505 0.929 . S
C2515 C2513 1.433 . S
C2515 N2518 1.384 . S
C2516 H2507 0.929 . S
C2516 C2508 1.378 . S
C2516 C2511 1.350 . S
C2517 H2504 0.929 1_655 S
C2517 C2509 1.433 . S
C2517 N2519 1.384 . S
N2518 C2514 1.427 . S
N2518 C2515 1.384 . S
N2519 C2511 1.427 . S
N2519 C2517 1.384 . S
H2520 C2526 0.930 . S
H2521 C2530 0.930 . S
H2522 C2535 0.929 . S
H2523 C2533 0.929 . S
H2524 C2528 0.929 . S
H2525 C2534 0.929 . S
C2526 H2520 0.930 . S
C2526 C2527 1.367 . S
C2526 C2534 1.378 . S
C2527 C2526 1.367 . S
C2527 C2535 1.433 . S
C2528 H2524 0.929 . S
C2528 C2530 1.378 . S
C2528 C2532 1.350 . S
C2529 C2532 1.463 . S
C2529 C2534 1.350 . S
C2529 N2537 1.427 . S
C2530 H2521 0.930 . S
C2530 C2528 1.378 . S
C2530 C2531 1.367 . S
C2531 C2530 1.367 . S
C2531 C2533 1.433 . S
C2532 C2528 1.350 . S
C2532 C2529 1.463 . S
C2532 N2536 1.427 . S
C2533 H2523 0.929 . S
C2533 C2531 1.433 . S
C2533 N2536 1.384 . S
C2534 H2525 0.929 . S
C2534 C2526 1.378 . S
C2534 C2529 1.350 . S
C2535 H2522 0.929 . S
C2535 C2527 1.433 . S
C2535 N2537 1.384 . S
N2536 C2532 1.427 . S
N2536 C2533 1.384 . S
N2537 C2529 1.427 . S
N2537 C2535 1.384 . S
H2538 C2544 0.938 . S
H2539 C2548 0.930 . S
H2540 C2553 0.929 . S
H2541 C2551 0.929 . S
H2542 C2546 0.929 . S
H2543 C2552 0.929 . S
C2544 H2538 0.938 . S
C2544 C2545 1.367 . S
C2544 C2552 1.378 . S
C2545 C2544 1.367 . S
C2545 C2553 1.433 . S
C2546 H2542 0.929 . S
C2546 C2548 1.378 . S
C2546 C2550 1.350 . S
C2547 C2550 1.463 . S
C2547 C2552 1.350 . S
C2547 N2555 1.427 . S
C2548 H2539 0.930 . S
C2548 C2546 1.378 . S
C2548 C2549 1.367 . S
C2549 C2548 1.367 . S
C2549 C2551 1.433 . S
C2550 C2546 1.350 . S
C2550 C2547 1.463 . S
C2550 N2554 1.427 . S
C2551 H2541 0.929 . S
C2551 C2549 1.433 . S
C2551 N2554 1.384 . S
C2552 H2543 0.929 . S
C2552 C2544 1.378 . S
C2552 C2547 1.350 . S
C2553 H2540 0.929 . S
C2553 C2545 1.433 . S
C2553 N2555 1.384 . S
N2554 C2550 1.427 . S
N2554 C2551 1.384 . S
N2555 C2547 1.427 . S
N2555 C2553 1.384 . S
H2556 C2562 0.930 . S
H2557 C2566 0.930 . S
H2558 C2571 0.929 . S
H2559 C2569 0.929 . S
H2560 C2564 0.929 . S
H2561 C2570 0.929 . S
C2562 H2556 0.930 . S
C2562 C2563 1.367 . S
C2562 C2570 1.378 . S
C2563 C2562 1.367 . S
C2563 C2571 1.433 . S
C2564 H2560 0.929 . S
C2564 C2566 1.378 . S
C2564 C2568 1.350 . S
C2565 C2568 1.463 . S
C2565 C2570 1.350 . S
C2565 N2573 1.427 . S
C2566 H2557 0.930 . S
C2566 C2564 1.378 . S
C2566 C2567 1.367 . S
C2567 C2566 1.367 . S
C2567 C2569 1.433 . S
C2568 C2564 1.350 . S
C2568 C2565 1.463 . S
C2568 N2572 1.427 . S
C2569 H2559 0.929 . S
C2569 C2567 1.433 . S
C2569 N2572 1.384 . S
C2570 H2561 0.929 . S
C2570 C2562 1.378 . S
C2570 C2565 1.350 . S
C2571 H2558 0.929 . S
C2571 C2563 1.433 . S
C2571 N2573 1.384 . S
N2572 C2568 1.427 . S
N2572 C2569 1.384 . S
N2573 C2565 1.427 . S
N2573 C2571 1.384 . S
H2574 C2580 0.930 . S
H2575 C2584 0.930 . S
H2576 C2589 0.929 . S
H2577 C2587 0.929 . S
H2578 C2582 0.929 . S
H2579 C2588 0.929 . S
C2580 H2574 0.930 . S
C2580 C2581 1.367 . S
C2580 C2588 1.378 . S
C2581 C2580 1.367 . S
C2581 C2589 1.433 . S
C2582 H2578 0.929 . S
C2582 C2584 1.378 . S
C2582 C2586 1.350 . S
C2583 C2586 1.463 . S
C2583 C2588 1.350 . S
C2583 N2591 1.427 . S
C2584 H2575 0.930 . S
C2584 C2582 1.378 . S
C2584 C2585 1.367 . S
C2585 C2584 1.367 . S
C2585 C2587 1.433 . S
C2586 C2582 1.350 . S
C2586 C2583 1.463 . S
C2586 N2590 1.427 . S
C2587 H2577 0.929 . S
C2587 C2585 1.433 . S
C2587 N2590 1.384 . S
C2588 H2579 0.929 . S
C2588 C2580 1.378 . S
C2588 C2583 1.350 . S
C2589 H2576 0.929 . S
C2589 C2581 1.433 . S
C2589 N2591 1.384 . S
N2590 C2586 1.427 . S
N2590 C2587 1.384 . S
N2591 C2583 1.427 . S
N2591 C2589 1.384 . S
H2592 C2598 0.930 . S
H2593 C2602 0.930 . S
H2594 C2607 0.929 . S
H2595 C2605 0.929 . S
H2596 C2600 0.928 . S
H2597 C2606 0.929 . S
C2598 H2592 0.930 . S
C2598 C2599 1.367 . S
C2598 C2606 1.378 . S
C2599 C2598 1.367 . S
C2599 C2607 1.433 . S
C2600 H2596 0.928 . S
C2600 C2602 1.378 1_565 S
C2600 C2604 1.350 . S
C2601 C2604 1.463 . S
C2601 C2606 1.350 . S
C2601 N2609 1.427 . S
C2602 H2593 0.930 . S
C2602 C2600 1.378 1_545 S
C2602 C2603 1.367 1_545 S
C2603 C2602 1.367 1_565 S
C2603 C2605 1.433 . S
C2604 C2600 1.350 . S
C2604 C2601 1.463 . S
C2604 N2608 1.427 . S
C2605 H2595 0.929 . S
C2605 C2603 1.433 . S
C2605 N2608 1.384 . S
C2606 H2597 0.929 . S
C2606 C2598 1.378 . S
C2606 C2601 1.350 . S
C2607 H2594 0.929 . S
C2607 C2599 1.433 . S
C2607 N2609 1.384 . S
N2608 C2604 1.427 . S
N2608 C2605 1.384 . S
N2609 C2601 1.427 . S
N2609 C2607 1.384 . S
H2610 C2616 0.930 . S
H2611 C2620 0.930 1_655 S
H2612 C2625 0.929 . S
H2613 C2623 0.929 . S
H2614 C2618 0.929 . S
H2615 C2624 0.929 . S
C2616 H2610 0.930 . S
C2616 C2617 1.367 . S
C2616 C2624 1.378 . S
C2617 C2616 1.367 . S
C2617 C2625 1.433 . S
C2618 H2614 0.929 . S
C2618 C2620 1.378 . S
C2618 C2622 1.350 . S
C2619 C2622 1.463 . S
C2619 C2624 1.350 . S
C2619 N2627 1.427 . S
C2620 H2611 0.930 1_455 S
C2620 C2618 1.378 . S
C2620 C2621 1.367 . S
C2621 C2620 1.367 . S
C2621 C2623 1.433 . S
C2622 C2618 1.350 . S
C2622 C2619 1.463 . S
C2622 N2626 1.427 . S
C2623 H2613 0.929 . S
C2623 C2621 1.433 . S
C2623 N2626 1.384 . S
C2624 H2615 0.929 . S
C2624 C2616 1.378 . S
C2624 C2619 1.350 . S
C2625 H2612 0.929 . S
C2625 C2617 1.433 . S
C2625 N2627 1.384 . S
N2626 C2622 1.427 . S
N2626 C2623 1.384 . S
N2627 C2619 1.427 . S
N2627 C2625 1.384 . S
H2628 C2634 0.930 . S
H2629 C2638 0.930 . S
H2630 C2643 0.929 . S
H2631 C2641 0.929 . S
H2632 C2636 0.929 . S
H2633 C2642 0.929 . S
C2634 H2628 0.930 . S
C2634 C2635 1.367 . S
C2634 C2642 1.378 . S
C2635 C2634 1.367 . S
C2635 C2643 1.433 . S
C2636 H2632 0.929 . S
C2636 C2638 1.378 . S
C2636 C2640 1.350 . S
C2637 C2640 1.463 1_655 S
C2637 C2642 1.350 . S
C2637 N2645 1.427 . S
C2638 H2629 0.930 . S
C2638 C2636 1.378 . S
C2638 C2639 1.367 . S
C2639 C2638 1.367 . S
C2639 C2641 1.433 . S
C2640 C2636 1.350 . S
C2640 C2637 1.463 1_455 S
C2640 N2644 1.427 . S
C2641 H2631 0.929 . S
C2641 C2639 1.433 . S
C2641 N2644 1.384 . S
C2642 H2633 0.929 . S
C2642 C2634 1.378 . S
C2642 C2637 1.350 . S
C2643 H2630 0.929 . S
C2643 C2635 1.433 . S
C2643 N2645 1.384 . S
N2644 C2640 1.427 . S
N2644 C2641 1.384 . S
N2645 C2637 1.427 . S
N2645 C2643 1.384 . S
H2646 C2652 0.930 . S
H2647 C2656 0.930 . S
H2648 C2661 0.929 . S
H2649 C2659 0.929 . S
H2650 C2654 0.929 . S
H2651 C2660 0.929 . S
C2652 H2646 0.930 . S
C2652 C2653 1.367 . S
C2652 C2660 1.378 . S
C2653 C2652 1.367 . S
C2653 C2661 1.433 . S
C2654 H2650 0.929 . S
C2654 C2656 1.378 . S
C2654 C2658 1.350 . S
C2655 C2658 1.463 . S
C2655 C2660 1.350 . S
C2655 N2663 1.427 . S
C2656 H2647 0.930 . S
C2656 C2654 1.378 . S
C2656 C2657 1.367 . S
C2657 C2656 1.367 . S
C2657 C2659 1.433 . S
C2658 C2654 1.350 . S
C2658 C2655 1.463 . S
C2658 N2662 1.427 . S
C2659 H2649 0.929 . S
C2659 C2657 1.433 . S
C2659 N2662 1.384 . S
C2660 H2651 0.929 . S
C2660 C2652 1.378 . S
C2660 C2655 1.350 . S
C2661 H2648 0.929 . S
C2661 C2653 1.433 . S
C2661 N2663 1.384 . S
N2662 C2658 1.427 . S
N2662 C2659 1.384 . S
N2663 C2655 1.427 . S
N2663 C2661 1.384 . S
H2664 C2670 0.930 . S
H2665 C2674 0.930 . S
H2666 C2679 0.929 . S
H2667 C2677 0.929 . S
H2668 C2672 0.929 . S
H2669 C2678 0.929 . S
C2670 H2664 0.930 . S
C2670 C2671 1.367 . S
C2670 C2678 1.378 . S
C2671 C2670 1.367 . S
C2671 C2679 1.433 . S
C2672 H2668 0.929 . S
C2672 C2674 1.378 . S
C2672 C2676 1.350 . S
C2673 C2676 1.463 1_545 S
C2673 C2678 1.350 . S
C2673 N2681 1.427 . S
C2674 H2665 0.930 . S
C2674 C2672 1.378 . S
C2674 C2675 1.367 . S
C2675 C2674 1.367 . S
C2675 C2677 1.433 . S
C2676 C2672 1.350 . S
C2676 C2673 1.463 1_565 S
C2676 N2680 1.427 . S
C2677 H2667 0.929 . S
C2677 C2675 1.433 . S
C2677 N2680 1.384 . S
C2678 H2669 0.929 . S
C2678 C2670 1.378 . S
C2678 C2673 1.350 . S
C2679 H2666 0.929 . S
C2679 C2671 1.433 . S
C2679 N2681 1.384 . S
N2680 C2676 1.427 . S
N2680 C2677 1.384 . S
N2681 C2673 1.427 . S
N2681 C2679 1.384 . S
H2682 C2688 0.930 . S
H2683 C2692 0.930 . S
H2684 C2697 0.929 . S
H2685 C2695 0.929 . S
H2686 C2690 0.929 . S
H2687 C2696 0.929 . S
C2688 H2682 0.930 . S
C2688 C2689 1.367 . S
C2688 C2696 1.378 . S
C2689 C2688 1.367 . S
C2689 C2697 1.433 . S
C2690 H2686 0.929 . S
C2690 C2692 1.378 . S
C2690 C2694 1.350 . S
C2691 C2694 1.463 1_545 S
C2691 C2696 1.350 . S
C2691 N2699 1.427 . S
C2692 H2683 0.930 . S
C2692 C2690 1.378 . S
C2692 C2693 1.367 . S
C2693 C2692 1.367 . S
C2693 C2695 1.433 . S
C2694 C2690 1.350 . S
C2694 C2691 1.463 1_565 S
C2694 N2698 1.427 . S
C2695 H2685 0.929 . S
C2695 C2693 1.433 . S
C2695 N2698 1.384 . S
C2696 H2687 0.929 . S
C2696 C2688 1.378 . S
C2696 C2691 1.350 . S
C2697 H2684 0.929 . S
C2697 C2689 1.433 . S
C2697 N2699 1.384 . S
N2698 C2694 1.427 . S
N2698 C2695 1.384 . S
N2699 C2691 1.427 . S
N2699 C2697 1.384 . S
H2700 C2706 0.930 . S
H2701 C2710 0.930 . S
H2702 C2715 0.929 . S
H2703 C2713 0.929 . S
H2704 C2708 0.929 . S
H2705 C2714 0.929 . S
C2706 H2700 0.930 . S
C2706 C2707 1.367 . S
C2706 C2714 1.378 . S
C2707 C2706 1.367 . S
C2707 C2715 1.433 . S
C2708 H2704 0.929 . S
C2708 C2710 1.378 . S
C2708 C2712 1.350 . S
C2709 C2712 1.463 1_655 S
C2709 C2714 1.350 . S
C2709 N2717 1.427 . S
C2710 H2701 0.930 . S
C2710 C2708 1.378 . S
C2710 C2711 1.367 . S
C2711 C2710 1.367 . S
C2711 C2713 1.433 . S
C2712 C2708 1.350 . S
C2712 C2709 1.463 1_455 S
C2712 N2716 1.427 . S
C2713 H2703 0.929 . S
C2713 C2711 1.433 . S
C2713 N2716 1.384 . S
C2714 H2705 0.929 . S
C2714 C2706 1.378 . S
C2714 C2709 1.350 . S
C2715 H2702 0.929 . S
C2715 C2707 1.433 . S
C2715 N2717 1.384 . S
N2716 C2712 1.427 . S
N2716 C2713 1.384 . S
N2717 C2709 1.427 . S
N2717 C2715 1.384 . S
H2718 C2724 0.930 . S
H2719 C2728 0.930 . S
H2720 C2733 0.929 . S
H2721 C2731 0.929 . S
H2722 C2726 0.929 . S
H2723 C2732 0.929 . S
C2724 H2718 0.930 . S
C2724 C2725 1.367 . S
C2724 C2732 1.378 . S
C2725 C2724 1.367 . S
C2725 C2733 1.433 . S
C2726 H2722 0.929 . S
C2726 C2728 1.378 . S
C2726 C2730 1.350 . S
C2727 C2730 1.463 . S
C2727 C2732 1.350 . S
C2727 N2735 1.427 . S
C2728 H2719 0.930 . S
C2728 C2726 1.378 . S
C2728 C2729 1.367 . S
C2729 C2728 1.367 . S
C2729 C2731 1.433 . S
C2730 C2726 1.350 . S
C2730 C2727 1.463 . S
C2730 N2734 1.427 . S
C2731 H2721 0.929 . S
C2731 C2729 1.433 . S
C2731 N2734 1.384 . S
C2732 H2723 0.929 . S
C2732 C2724 1.378 . S
C2732 C2727 1.350 . S
C2733 H2720 0.929 . S
C2733 C2725 1.433 . S
C2733 N2735 1.384 . S
N2734 C2730 1.427 . S
N2734 C2731 1.384 . S
N2735 C2727 1.427 . S
N2735 C2733 1.384 . S
C799 C21 1.319 . S
C803 C172 1.298 1_545 S
C817 C186 1.301 1_655 S
C821 C43 1.318 . S
C835 C150 1.307 . S
C839 C65 1.323 . S
C853 C250 1.301 1_455 S
C857 C73 1.318 . S
C871 C109 1.326 . S
C875 C216 1.294 . S
C889 C131 1.322 . S
C893 C238 1.293 1_565 S
C907 C30 1.301 1_565 S
C911 C139 1.326 . S
C925 C161 1.325 . S
C929 C52 1.293 1_455 S
C943 C8 1.300 . S
C947 C191 1.326 . S
C961 C118 1.307 1_655 S
C965 C205 1.320 . S
C979 C227 1.324 . S
C983 C84 1.293 . S
C997 C263 1.325 . S
C1001 C96 1.293 1_545 S
C1015 C285 1.326 . S
C1019 C428 1.294 . S
C1033 C448 1.307 . S
C1037 C307 1.320 . S
C1051 C406 1.302 . S
C1055 C329 1.318 . S
C1069 C351 1.320 . S
C1073 C514 1.307 . S
C1087 C470 1.306 . S
C1091 C359 1.323 . S
C1105 C395 1.323 . S
C1109 C502 1.306 . S
C1123 C411 1.325 . S
C1127 C294 1.293 . S
C1141 C316 1.294 . S
C1145 C433 1.326 . S
C1159 C461 1.321 . S
C1163 C272 1.296 . S
C1177 C382 1.296 . S
C1181 C483 1.327 . S
C1195 C338 1.300 . S
C1199 C491 1.319 . S
C1213 C527 1.327 . S
C1217 C370 1.296 . S
C1231 C549 1.326 . S
C1235 C700 1.297 . S
C1249 C571 1.325 . S
C1253 C722 1.293 . S
C1267 C668 1.299 . S
C1271 C593 1.319 . S
C1285 C778 1.307 . S
C1289 C615 1.321 . S
C1303 C637 1.327 . S
C1307 C744 1.299 . S
C1321 C766 1.303 . S
C1325 C645 1.318 . S
C1339 C558 1.304 . S
C1343 C681 1.318 . S
C1357 C689 1.322 . S
C1361 C580 1.294 . S
C1375 C536 1.294 . S
C1379 C711 1.322 . S
C1393 C733 1.323 . S
C1397 C656 1.306 . S
C1411 C755 1.319 . S
C1415 C602 1.307 . S
C1429 C791 1.318 . S
C1433 C624 1.304 . S
C1447 C15 1.813 . S
C1451 C403 1.813 . S
C1465 C37 1.813 . S
C1469 C425 1.813 . S
C1483 C455 1.812 . S
C1487 C59 1.812 . S
C1501 C747 1.820 . S
C1505 C87 1.820 . S
C1519 C769 1.817 . S
C1523 C103 1.817 . S
C1537 C785 1.814 . S
C1541 C125 1.814 . S
C1555 C153 1.814 . S
C1559 C543 1.814 . S
C1573 C565 1.819 . S
C1577 C175 1.819 . S
C1591 C183 1.821 . S
C1595 C587 1.821 . S
C1609 C219 1.820 . S
C1613 C345 1.820 . S
C1627 C241 1.815 . S
C1631 C373 1.815 . S
C1645 C257 1.822 . S
C1649 C389 1.822 . S
C1663 C279 1.813 . S
C1667 C675 1.813 . S
C1681 C703 1.816 . S
C1685 C301 1.816 . S
C1699 C323 1.815 . S
C1703 C725 1.815 . S
C1717 C609 1.817 . S
C1721 C477 1.817 . S
C1735 C505 1.824 . S
C1739 C631 1.824 . S
C1753 C659 1.826 . S
C1757 C521 1.826 . S
C1771 C7 1.669 1_556 S
C1775 C367 1.671 . S
C1789 C29 1.662 1_556 S
C1793 C381 1.670 . S
C1807 C337 1.658 . S
C1811 C51 1.663 1_556 S
C1825 C81 1.671 . S
C1829 C579 1.668 . S
C1843 C535 1.666 . S
C1847 C95 1.672 . S
C1861 C117 1.664 . S
C1865 C557 1.658 . S
C1879 C763 1.668 . S
C1883 C147 1.671 1_554 S
C1897 C169 1.671 1_554 S
C1901 C777 1.669 . S
C1915 C741 1.664 . S
C1919 C197 1.671 1_554 S
C1933 C213 1.665 . S
C1937 C447 1.659 . S
C1951 C235 1.671 . S
C1955 C417 1.669 . S
C1969 C249 1.661 . S
C1973 C439 1.669 . S
C1987 C623 1.659 . S
C1991 C271 1.665 . S
C2005 C293 1.671 . S
C2009 C653 1.665 . S
C2023 C315 1.671 . S
C2027 C601 1.665 . S
C2041 C719 1.665 . S
C2045 C469 1.671 . S
C2059 C667 1.660 . S
C2063 C499 1.660 . S
C2077 C697 1.659 . S
C2081 C513 1.666 . S
C2095 C74 0.965 . S
C2099 C10 0.962 . S
C2113 C32 0.963 . S
C2117 C98 0.965 . S
C2131 C54 0.965 . S
C2135 C120 0.962 . S
C2149 C206 0.964 . S
C2153 C140 0.962 . S
C2167 C162 0.965 . S
C2171 C228 0.963 . S
C2185 C252 0.962 . S
C2189 C194 0.965 . S
C2203 C340 0.962 . S
C2207 C274 0.965 . S
C2221 C296 0.964 . S
C2225 C360 0.962 . S
C2239 C318 0.963 . S
C2243 C384 0.963 . S
C2257 C414 0.962 . S
C2261 C472 0.965 1_554 S
C2275 C436 0.963 . S
C2279 C492 0.964 1_554 S
C2293 C450 0.962 . S
C2297 C516 0.965 1_554 S
C2311 C538 0.965 . S
C2315 C604 0.964 1_556 S
C2329 C626 0.964 1_556 S
C2333 C560 0.965 . S
C2347 C646 0.963 1_556 S
C2351 C582 0.963 . S
C2365 C670 0.962 . S
C2369 C734 0.965 . S
C2383 C756 0.965 . S
C2387 C690 0.964 . S
C2401 C712 0.964 . S
C2405 C780 0.965 . S
C2419 C18 1.461 . S
C2423 C648 1.453 . S
C2437 C612 1.461 . S
C2441 C40 1.452 1_565 S
C2455 C62 1.461 1_455 S
C2459 C634 1.460 . S
C2473 C304 1.454 . S
C2477 C76 1.447 . S
C2491 C106 1.461 1_545 S
C2495 C326 1.452 . S
C2509 C128 1.462 1_655 S
C2513 C282 1.457 . S
C2527 C524 1.460 . S
C2531 C142 1.461 . S
C2545 C164 1.447 1_545 S
C2549 C480 1.449 . S
C2563 C494 1.447 . S
C2567 C184 1.450 1_655 S
C2581 C208 1.457 . S
C2585 C692 1.448 . S
C2599 C714 1.460 . S
C2603 C230 1.450 1_565 S
C2617 C678 1.452 . S
C2621 C260 1.446 1_455 S
C2635 C348 1.461 . S
C2639 C568 1.458 . S
C2653 C362 1.449 . S
C2657 C590 1.447 . S
C2671 C392 1.461 . S
C2675 C546 1.453 . S
C2689 C404 1.452 . S
C2693 C788 1.446 . S
C2707 C426 1.460 . S
C2711 C736 1.461 . S
C2725 C758 1.462 . S
C2729 C458 1.458 . S
