# Generated by pormake.
# Topology wkr, (6)-cn, num edge types: 1
# Building blocks:
#     Node 0, Type 0, BuildingBlock: VOLQOD_clean_sbu_1, # of connection points: 6
#     Node 1, Type 0, BuildingBlock: VOLQOD_clean_sbu_1, # of connection points: 6
#     Node 2, Type 0, BuildingBlock: VOLQOD_clean_sbu_1, # of connection points: 6
#     Node 3, Type 0, BuildingBlock: VOLQOD_clean_sbu_1, # of connection points: 6
#     Node 4, Type 0, BuildingBlock: VOLQOD_clean_sbu_1, # of connection points: 6
#     Node 5, Type 0, BuildingBlock: VOLQOD_clean_sbu_1, # of connection points: 6
#     Node 6, Type 0, BuildingBlock: VOLQOD_clean_sbu_1, # of connection points: 6
#     Node 7, Type 0, BuildingBlock: VOLQOD_clean_sbu_1, # of connection points: 6
#     Node 8, Type 0, BuildingBlock: VOLQOD_clean_sbu_1, # of connection points: 6
#     Node 9, Type 0, BuildingBlock: VOLQOD_clean_sbu_1, # of connection points: 6
#     Node 10, Type 0, BuildingBlock: VOLQOD_clean_sbu_1, # of connection points: 6
#     Node 11, Type 0, BuildingBlock: VOLQOD_clean_sbu_1, # of connection points: 6
#     Node 12, Type 0, BuildingBlock: VOLQOD_clean_sbu_1, # of connection points: 6
#     Node 13, Type 0, BuildingBlock: VOLQOD_clean_sbu_1, # of connection points: 6
#     Node 14, Type 0, BuildingBlock: VOLQOD_clean_sbu_1, # of connection points: 6
#     Node 15, Type 0, BuildingBlock: VOLQOD_clean_sbu_1, # of connection points: 6
#     Node 16, Type 0, BuildingBlock: VOLQOD_clean_sbu_1, # of connection points: 6
#     Node 17, Type 0, BuildingBlock: VOLQOD_clean_sbu_1, # of connection points: 6
#     Node 18, Type 0, BuildingBlock: VOLQOD_clean_sbu_1, # of connection points: 6
#     Node 19, Type 0, BuildingBlock: VOLQOD_clean_sbu_1, # of connection points: 6
#     Node 20, Type 0, BuildingBlock: VOLQOD_clean_sbu_1, # of connection points: 6
#     Node 21, Type 0, BuildingBlock: VOLQOD_clean_sbu_1, # of connection points: 6
#     Node 22, Type 0, BuildingBlock: VOLQOD_clean_sbu_1, # of connection points: 6
#     Node 23, Type 0, BuildingBlock: VOLQOD_clean_sbu_1, # of connection points: 6
#     Edge 24, Type (0, 0), BuildingBlock: AJUNOK_clean_linker_0, # of connection points: 2
#     Edge 25, Type (0, 0), BuildingBlock: AJUNOK_clean_linker_0, # of connection points: 2
#     Edge 26, Type (0, 0), BuildingBlock: AJUNOK_clean_linker_0, # of connection points: 2
#     Edge 27, Type (0, 0), BuildingBlock: AJUNOK_clean_linker_0, # of connection points: 2
#     Edge 28, Type (0, 0), BuildingBlock: AJUNOK_clean_linker_0, # of connection points: 2
#     Edge 29, Type (0, 0), BuildingBlock: AJUNOK_clean_linker_0, # of connection points: 2
#     Edge 30, Type (0, 0), BuildingBlock: AJUNOK_clean_linker_0, # of connection points: 2
#     Edge 31, Type (0, 0), BuildingBlock: AJUNOK_clean_linker_0, # of connection points: 2
#     Edge 32, Type (0, 0), BuildingBlock: AJUNOK_clean_linker_0, # of connection points: 2
#     Edge 33, Type (0, 0), BuildingBlock: AJUNOK_clean_linker_0, # of connection points: 2
#     Edge 34, Type (0, 0), BuildingBlock: AJUNOK_clean_linker_0, # of connection points: 2
#     Edge 35, Type (0, 0), BuildingBlock: AJUNOK_clean_linker_0, # of connection points: 2
#     Edge 36, Type (0, 0), BuildingBlock: AJUNOK_clean_linker_0, # of connection points: 2
#     Edge 37, Type (0, 0), BuildingBlock: AJUNOK_clean_linker_0, # of connection points: 2
#     Edge 38, Type (0, 0), BuildingBlock: AJUNOK_clean_linker_0, # of connection points: 2
#     Edge 39, Type (0, 0), BuildingBlock: AJUNOK_clean_linker_0, # of connection points: 2
#     Edge 40, Type (0, 0), BuildingBlock: AJUNOK_clean_linker_0, # of connection points: 2
#     Edge 41, Type (0, 0), BuildingBlock: AJUNOK_clean_linker_0, # of connection points: 2
#     Edge 42, Type (0, 0), BuildingBlock: AJUNOK_clean_linker_0, # of connection points: 2
#     Edge 43, Type (0, 0), BuildingBlock: AJUNOK_clean_linker_0, # of connection points: 2
#     Edge 44, Type (0, 0), BuildingBlock: AJUNOK_clean_linker_0, # of connection points: 2
#     Edge 45, Type (0, 0), BuildingBlock: AJUNOK_clean_linker_0, # of connection points: 2
#     Edge 46, Type (0, 0), BuildingBlock: AJUNOK_clean_linker_0, # of connection points: 2
#     Edge 47, Type (0, 0), BuildingBlock: AJUNOK_clean_linker_0, # of connection points: 2
#     Edge 48, Type (0, 0), BuildingBlock: AJUNOK_clean_linker_0, # of connection points: 2
#     Edge 49, Type (0, 0), BuildingBlock: AJUNOK_clean_linker_0, # of connection points: 2
#     Edge 50, Type (0, 0), BuildingBlock: AJUNOK_clean_linker_0, # of connection points: 2
#     Edge 51, Type (0, 0), BuildingBlock: AJUNOK_clean_linker_0, # of connection points: 2
#     Edge 52, Type (0, 0), BuildingBlock: AJUNOK_clean_linker_0, # of connection points: 2
#     Edge 53, Type (0, 0), BuildingBlock: AJUNOK_clean_linker_0, # of connection points: 2
#     Edge 54, Type (0, 0), BuildingBlock: AJUNOK_clean_linker_0, # of connection points: 2
#     Edge 55, Type (0, 0), BuildingBlock: AJUNOK_clean_linker_0, # of connection points: 2
#     Edge 56, Type (0, 0), BuildingBlock: AJUNOK_clean_linker_0, # of connection points: 2
#     Edge 57, Type (0, 0), BuildingBlock: AJUNOK_clean_linker_0, # of connection points: 2
#     Edge 58, Type (0, 0), BuildingBlock: AJUNOK_clean_linker_0, # of connection points: 2
#     Edge 59, Type (0, 0), BuildingBlock: AJUNOK_clean_linker_0, # of connection points: 2
#     Edge 60, Type (0, 0), BuildingBlock: AJUNOK_clean_linker_0, # of connection points: 2
#     Edge 61, Type (0, 0), BuildingBlock: AJUNOK_clean_linker_0, # of connection points: 2
#     Edge 62, Type (0, 0), BuildingBlock: AJUNOK_clean_linker_0, # of connection points: 2
#     Edge 63, Type (0, 0), BuildingBlock: AJUNOK_clean_linker_0, # of connection points: 2
#     Edge 64, Type (0, 0), BuildingBlock: AJUNOK_clean_linker_0, # of connection points: 2
#     Edge 65, Type (0, 0), BuildingBlock: AJUNOK_clean_linker_0, # of connection points: 2
#     Edge 66, Type (0, 0), BuildingBlock: AJUNOK_clean_linker_0, # of connection points: 2
#     Edge 67, Type (0, 0), BuildingBlock: AJUNOK_clean_linker_0, # of connection points: 2
#     Edge 68, Type (0, 0), BuildingBlock: AJUNOK_clean_linker_0, # of connection points: 2
#     Edge 69, Type (0, 0), BuildingBlock: AJUNOK_clean_linker_0, # of connection points: 2
#     Edge 70, Type (0, 0), BuildingBlock: AJUNOK_clean_linker_0, # of connection points: 2
#     Edge 71, Type (0, 0), BuildingBlock: AJUNOK_clean_linker_0, # of connection points: 2
#     Edge 72, Type (0, 0), BuildingBlock: AJUNOK_clean_linker_0, # of connection points: 2
#     Edge 73, Type (0, 0), BuildingBlock: AJUNOK_clean_linker_0, # of connection points: 2
#     Edge 74, Type (0, 0), BuildingBlock: AJUNOK_clean_linker_0, # of connection points: 2
#     Edge 75, Type (0, 0), BuildingBlock: AJUNOK_clean_linker_0, # of connection points: 2
#     Edge 76, Type (0, 0), BuildingBlock: AJUNOK_clean_linker_0, # of connection points: 2
#     Edge 77, Type (0, 0), BuildingBlock: AJUNOK_clean_linker_0, # of connection points: 2
#     Edge 78, Type (0, 0), BuildingBlock: AJUNOK_clean_linker_0, # of connection points: 2
#     Edge 79, Type (0, 0), BuildingBlock: AJUNOK_clean_linker_0, # of connection points: 2
#     Edge 80, Type (0, 0), BuildingBlock: AJUNOK_clean_linker_0, # of connection points: 2
#     Edge 81, Type (0, 0), BuildingBlock: AJUNOK_clean_linker_0, # of connection points: 2
#     Edge 82, Type (0, 0), BuildingBlock: AJUNOK_clean_linker_0, # of connection points: 2
#     Edge 83, Type (0, 0), BuildingBlock: AJUNOK_clean_linker_0, # of connection points: 2
#     Edge 84, Type (0, 0), BuildingBlock: AJUNOK_clean_linker_0, # of connection points: 2
#     Edge 85, Type (0, 0), BuildingBlock: AJUNOK_clean_linker_0, # of connection points: 2
#     Edge 86, Type (0, 0), BuildingBlock: AJUNOK_clean_linker_0, # of connection points: 2
#     Edge 87, Type (0, 0), BuildingBlock: AJUNOK_clean_linker_0, # of connection points: 2
#     Edge 88, Type (0, 0), BuildingBlock: AJUNOK_clean_linker_0, # of connection points: 2
#     Edge 89, Type (0, 0), BuildingBlock: AJUNOK_clean_linker_0, # of connection points: 2
#     Edge 90, Type (0, 0), BuildingBlock: AJUNOK_clean_linker_0, # of connection points: 2
#     Edge 91, Type (0, 0), BuildingBlock: AJUNOK_clean_linker_0, # of connection points: 2
#     Edge 92, Type (0, 0), BuildingBlock: AJUNOK_clean_linker_0, # of connection points: 2
#     Edge 93, Type (0, 0), BuildingBlock: AJUNOK_clean_linker_0, # of connection points: 2
#     Edge 94, Type (0, 0), BuildingBlock: AJUNOK_clean_linker_0, # of connection points: 2
#     Edge 95, Type (0, 0), BuildingBlock: AJUNOK_clean_linker_0, # of connection points: 2
# Relax obj value: 0.730
# Max RMSD: 0.278
# Mean RMSD: 0.278
data_MOF--net-wkr--node1-VOLQOD_clean_sbu_1--edge1-AJUNOK_clean_linker_0
_symmetry_space_group_name_H-M    P1
_symmetry_Int_Tables_number       1
_symmetry_cell_setting            triclinic
loop_
_symmetry_equiv_pos_as_xyz
'x, y, z'
_cell_length_a     39.449482
_cell_length_b     39.453732
_cell_length_c     38.852854
_cell_angle_alpha  89.969397
_cell_angle_beta   90.026958
_cell_angle_gamma 120.05479
loop_
_atom_site_label
_atom_site_type_symbol
_atom_site_fract_x
_atom_site_fract_y
_atom_site_fract_z
_atom_type_partial_charge
O0 O 0.48133 0.08663 0.19613 0.0
Zn1 Zn 0.47069 0.13284 0.18141 0.0
O2 O 0.52119 0.17818 0.16572 0.0
Zn3 Zn 0.52921 0.22674 0.18544 0.0
Zn4 Zn 0.56363 0.17071 0.18064 0.0
Zn5 Zn 0.527 0.18722 0.11583 0.0
O6 O 0.52956 0.26359 0.15118 0.0
O7 O 0.52847 0.23712 0.10071 0.0
O8 O 0.44786 0.15367 0.22278 0.0
O9 O 0.48754 0.21786 0.21742 0.0
O10 O 0.57714 0.25359 0.21468 0.0
O11 O 0.59326 0.20724 0.21863 0.0
O12 O 0.6016 0.18187 0.1435 0.0
O13 O 0.43555 0.11208 0.13639 0.0
O14 O 0.57659 0.19125 0.0959 0.0
O15 O 0.47998 0.1439 0.09493 0.0
C16 C 0.51314 0.08513 0.19872 0.0
C17 C 0.52855 0.26409 0.11861 0.0
C18 C 0.59777 0.24028 0.22744 0.0
C19 C 0.45834 0.18928 0.23153 0.0
C20 C 0.60348 0.18848 0.11144 0.0
C21 C 0.44576 0.11814 0.10446 0.0
O22 O 0.54608 0.11579 0.19402 0.0
O23 O 0.40674 0.47703 0.19438 0.0
Zn24 Zn 0.3501 0.46671 0.17907 0.0
O25 O 0.35546 0.51703 0.16287 0.0
Zn26 Zn 0.31424 0.52464 0.18166 0.0
Zn27 Zn 0.4051 0.55915 0.1786 0.0
Zn28 Zn 0.35377 0.52316 0.11283 0.0
O29 O 0.28033 0.52803 0.14621 0.0
O30 O 0.3069 0.52688 0.09638 0.0
O31 O 0.30575 0.44381 0.21959 0.0
O32 O 0.27938 0.48158 0.21208 0.0
O33 O 0.33484 0.5715 0.21227 0.0
O34 O 0.39749 0.58819 0.21639 0.0
O35 O 0.43234 0.59793 0.14232 0.0
O36 O 0.33558 0.43133 0.1346 0.0
O37 O 0.40029 0.57267 0.09374 0.0
O38 O 0.34898 0.47531 0.09249 0.0
C39 C 0.4401 0.50882 0.19706 0.0
C40 C 0.2802 0.52815 0.11359 0.0
C41 C 0.36872 0.59232 0.22511 0.0
C42 C 0.27933 0.45299 0.2269 0.0
C43 C 0.42885 0.59996 0.1101 0.0
C44 C 0.33986 0.44105 0.10258 0.0
O45 O 0.44248 0.54174 0.19219 0.0
O46 O 0.93908 0.40116 0.19286 0.0
Zn47 Zn 0.89286 0.34351 0.179 0.0
O48 O 0.84774 0.34784 0.16211 0.0
Zn49 Zn 0.79887 0.30698 0.18137 0.0
Zn50 Zn 0.85496 0.39807 0.17588 0.0
Zn51 Zn 0.84011 0.34419 0.11218 0.0
O52 O 0.76021 0.27367 0.14609 0.0
O53 O 0.79028 0.29643 0.09622 0.0
O54 O 0.8709 0.30062 0.22104 0.0
O55 O 0.80672 0.27159 0.21172 0.0
O56 O 0.77443 0.32866 0.21297 0.0
O57 O 0.82067 0.39142 0.21572 0.0
O58 O 0.83802 0.42097 0.13927 0.0
O59 O 0.91379 0.32764 0.13502 0.0
O60 O 0.83357 0.38775 0.09194 0.0
O61 O 0.88393 0.34075 0.0921 0.0
C62 C 0.94108 0.43484 0.193 0.0
C63 C 0.76092 0.27182 0.11352 0.0
C64 C 0.78822 0.36272 0.22565 0.0
C65 C 0.8354 0.27344 0.22807 0.0
C66 C 0.83164 0.41518 0.10724 0.0
C67 C 0.90887 0.33168 0.10277 0.0
O68 O 0.91068 0.43714 0.18665 0.0
O69 O 0.54872 0.93571 0.19653 0.0
Zn70 Zn 0.55897 0.88922 0.18084 0.0
O71 O 0.50876 0.84435 0.16377 0.0
Zn72 Zn 0.49877 0.79484 0.18356 0.0
Zn73 Zn 0.46672 0.85301 0.17694 0.0
Zn74 Zn 0.5044 0.83678 0.11365 0.0
O75 O 0.49507 0.75694 0.14813 0.0
O76 O 0.50161 0.78661 0.09809 0.0
O77 O 0.58132 0.86668 0.22104 0.0
O78 O 0.54126 0.80254 0.21484 0.0
O79 O 0.45036 0.76953 0.21307 0.0
O80 O 0.43477 0.81633 0.21323 0.0
O81 O 0.4295 0.84249 0.13947 0.0
O82 O 0.59521 0.91104 0.13691 0.0
O83 O 0.45508 0.83247 0.09273 0.0
O84 O 0.55244 0.88039 0.09401 0.0
C85 C 0.51689 0.93731 0.19818 0.0
C86 C 0.49748 0.75758 0.11554 0.0
C87 C 0.42906 0.78326 0.2233 0.0
C88 C 0.57086 0.83085 0.22898 0.0
C89 C 0.42786 0.8352 0.10762 0.0
C90 C 0.5863 0.90583 0.10471 0.0
O91 O 0.48431 0.90718 0.19141 0.0
O92 O 0.62479 0.54484 0.19492 0.0
Zn93 Zn 0.68158 0.55464 0.1804 0.0
O94 O 0.67499 0.50396 0.16502 0.0
Zn95 Zn 0.71839 0.49841 0.18171 0.0
Zn96 Zn 0.62697 0.46221 0.18365 0.0
Zn97 Zn 0.67196 0.49612 0.11515 0.0
O98 O 0.74592 0.48796 0.14434 0.0
O99 O 0.71367 0.48545 0.0968 0.0
O100 O 0.72532 0.57529 0.2215 0.0
O101 O 0.75775 0.54475 0.20722 0.0
O102 O 0.70072 0.4552 0.21656 0.0
O103 O 0.63723 0.43485 0.22134 0.0
O104 O 0.59692 0.42217 0.14888 0.0
O105 O 0.69825 0.59024 0.13558 0.0
O106 O 0.6218 0.44917 0.0984 0.0
O107 O 0.68053 0.54503 0.094 0.0
C108 C 0.59209 0.51298 0.20034 0.0
C109 C 0.74124 0.48371 0.11202 0.0
C110 C 0.66747 0.43337 0.23022 0.0
C111 C 0.75464 0.56952 0.22571 0.0
C112 C 0.59593 0.42117 0.11629 0.0
C113 C 0.69261 0.58007 0.10363 0.0
O114 O 0.59047 0.48014 0.19817 0.0
O115 O 0.09101 0.62013 0.19259 0.0
Zn116 Zn 0.13792 0.67733 0.1783 0.0
O117 O 0.18304 0.67203 0.16257 0.0
Zn118 Zn 0.23183 0.71419 0.18076 0.0
Zn119 Zn 0.17597 0.62287 0.17925 0.0
Zn120 Zn 0.19043 0.67255 0.11261 0.0
O121 O 0.26969 0.74673 0.14483 0.0
O122 O 0.2416 0.71825 0.0956 0.0
O123 O 0.15951 0.72193 0.21885 0.0
O124 O 0.22363 0.75007 0.20983 0.0
O125 O 0.2577 0.69454 0.21283 0.0
O126 O 0.21245 0.63166 0.21773 0.0
O127 O 0.18804 0.59528 0.14347 0.0
O128 O 0.11799 0.69259 0.1337 0.0
O129 O 0.19203 0.62523 0.09419 0.0
O130 O 0.14799 0.67809 0.09193 0.0
C131 C 0.08981 0.587 0.19602 0.0
C132 C 0.26989 0.7454 0.11223 0.0
C133 C 0.24501 0.66106 0.22638 0.0
C134 C 0.19505 0.7494 0.22529 0.0
C135 C 0.1921 0.59764 0.11105 0.0
C136 C 0.12334 0.68793 0.10176 0.0
O137 O 0.12085 0.58523 0.19233 0.0
O138 O 0.94072 0.54221 0.37874 0.0
Zn139 Zn 0.89507 0.55359 0.39449 0.0
O140 O 0.85029 0.50375 0.4119 0.0
Zn141 Zn 0.80068 0.49421 0.39284 0.0
Zn142 Zn 0.85777 0.46085 0.3988 0.0
Zn143 Zn 0.84399 0.50033 0.462 0.0
O144 O 0.76319 0.49041 0.42889 0.0
O145 O 0.79439 0.498 0.47827 0.0
O146 O 0.87233 0.57507 0.35375 0.0
O147 O 0.8082 0.53684 0.36173 0.0
O148 O 0.77532 0.44625 0.36269 0.0
O149 O 0.82143 0.42972 0.36185 0.0
O150 O 0.84601 0.4233 0.43636 0.0
O151 O 0.91729 0.59071 0.43818 0.0
O152 O 0.83968 0.45145 0.48314 0.0
O153 O 0.88768 0.5481 0.48133 0.0
C154 C 0.94194 0.51016 0.37729 0.0
C155 C 0.76482 0.49346 0.46146 0.0
C156 C 0.78867 0.42486 0.3518 0.0
C157 C 0.83652 0.56529 0.34641 0.0
C158 C 0.84009 0.42293 0.4684 0.0
C159 C 0.91267 0.58199 0.47046 0.0
O160 O 0.91177 0.47777 0.38449 0.0
O161 O 0.4044 0.93579 0.3815 0.0
Zn162 Zn 0.34669 0.88989 0.39547 0.0
O163 O 0.35066 0.84403 0.41082 0.0
Zn164 Zn 0.30981 0.79558 0.39107 0.0
Zn165 Zn 0.40061 0.85103 0.39636 0.0
Zn166 Zn 0.34684 0.83492 0.46042 0.0
O167 O 0.2743 0.75718 0.42529 0.0
O168 O 0.29807 0.7857 0.47546 0.0
O169 O 0.30323 0.86927 0.35377 0.0
O170 O 0.27636 0.80483 0.36008 0.0
O171 O 0.33122 0.77008 0.36059 0.0
O172 O 0.39366 0.81673 0.35655 0.0
O173 O 0.42427 0.83443 0.43237 0.0
O174 O 0.33222 0.91047 0.44067 0.0
O175 O 0.38979 0.82677 0.47961 0.0
O176 O 0.34509 0.87879 0.48206 0.0
C177 C 0.4378 0.93721 0.38038 0.0
C178 C 0.27234 0.75744 0.45783 0.0
C179 C 0.36505 0.78383 0.34748 0.0
C180 C 0.27704 0.83381 0.34542 0.0
C181 C 0.41804 0.82654 0.46413 0.0
C182 C 0.33665 0.90455 0.4726 0.0
O183 O 0.43967 0.90642 0.38566 0.0
O184 O 0.48691 0.4031 0.38257 0.0
Zn185 Zn 0.47649 0.34648 0.39877 0.0
O186 O 0.52696 0.3519 0.41505 0.0
Zn187 Zn 0.53645 0.312 0.39546 0.0
Zn188 Zn 0.56899 0.40218 0.40083 0.0
Zn189 Zn 0.53215 0.34969 0.46523 0.0
O190 O 0.5396 0.27776 0.43133 0.0
O191 O 0.53504 0.30254 0.48117 0.0
O192 O 0.45362 0.30149 0.35874 0.0
O193 O 0.49349 0.27717 0.36441 0.0
O194 O 0.58484 0.33469 0.36557 0.0
O195 O 0.60099 0.39722 0.36473 0.0
O196 O 0.606 0.42985 0.43796 0.0
O197 O 0.44084 0.33239 0.44328 0.0
O198 O 0.58134 0.39546 0.48548 0.0
O199 O 0.48443 0.34513 0.48552 0.0
C200 C 0.51895 0.43626 0.37981 0.0
C201 C 0.53793 0.27677 0.46398 0.0
C202 C 0.60635 0.36959 0.35492 0.0
C203 C 0.46391 0.2761 0.35047 0.0
C204 C 0.60803 0.42527 0.46996 0.0
C205 C 0.45034 0.33641 0.47537 0.0
O206 O 0.5515 0.43841 0.38578 0.0
O207 O 0.09122 0.4747 0.38037 0.0
Zn208 Zn 0.13896 0.46633 0.39551 0.0
O209 O 0.18366 0.5179 0.41004 0.0
Zn210 Zn 0.23291 0.52767 0.38995 0.0
Zn211 Zn 0.17376 0.55853 0.39475 0.0
Zn212 Zn 0.19282 0.52529 0.45979 0.0
O213 O 0.27058 0.52972 0.42471 0.0
O214 O 0.24403 0.52981 0.47491 0.0
O215 O 0.1605 0.44345 0.35505 0.0
O216 O 0.22454 0.48555 0.35824 0.0
O217 O 0.25884 0.57676 0.36128 0.0
O218 O 0.21112 0.59098 0.35908 0.0
O219 O 0.18122 0.59577 0.43119 0.0
O220 O 0.12016 0.43213 0.44109 0.0
O221 O 0.19446 0.57405 0.47877 0.0
O222 O 0.15121 0.4779 0.48168 0.0
C223 C 0.08931 0.50611 0.37601 0.0
C224 C 0.27135 0.53017 0.45734 0.0
C225 C 0.24487 0.59759 0.35028 0.0
C226 C 0.1961 0.45503 0.34542 0.0
C227 C 0.18879 0.59905 0.46303 0.0
C228 C 0.12637 0.44309 0.47282 0.0
O229 O 0.1197 0.53937 0.37957 0.0
O230 O 0.62395 0.08592 0.38278 0.0
Zn231 Zn 0.68117 0.13287 0.39771 0.0
O232 O 0.67557 0.17762 0.41431 0.0
Zn233 Zn 0.7158 0.22719 0.39512 0.0
Zn234 Zn 0.62529 0.16945 0.40009 0.0
Zn235 Zn 0.67764 0.18464 0.46444 0.0
O236 O 0.74853 0.26557 0.43097 0.0
O237 O 0.72345 0.23564 0.48053 0.0
O238 O 0.72554 0.15581 0.35679 0.0
O239 O 0.75151 0.21996 0.36467 0.0
O240 O 0.69338 0.25204 0.36433 0.0
O241 O 0.63065 0.20597 0.36318 0.0
O242 O 0.59824 0.17982 0.43726 0.0
O243 O 0.69692 0.11224 0.442 0.0
O244 O 0.63129 0.18637 0.48506 0.0
O245 O 0.68383 0.1425 0.48446 0.0
C246 C 0.59065 0.08459 0.38042 0.0
C247 C 0.74881 0.26492 0.46362 0.0
C248 C 0.6587 0.23873 0.35324 0.0
C249 C 0.75174 0.19164 0.34953 0.0
C250 C 0.60227 0.18491 0.46949 0.0
C251 C 0.69317 0.11767 0.47416 0.0
O252 O 0.5886 0.11513 0.38603 0.0
O253 O 0.55368 0.62106 0.38142 0.0
Zn254 Zn 0.56235 0.67739 0.39611 0.0
O255 O 0.51108 0.67008 0.41131 0.0
Zn256 Zn 0.50202 0.71037 0.39202 0.0
Zn257 Zn 0.47003 0.61995 0.39537 0.0
Zn258 Zn 0.50425 0.6705 0.46127 0.0
O259 O 0.49302 0.74066 0.42755 0.0
O260 O 0.49468 0.71371 0.47709 0.0
O261 O 0.58363 0.72142 0.35513 0.0
O262 O 0.54571 0.74765 0.36304 0.0
O263 O 0.4556 0.68825 0.36038 0.0
O264 O 0.43929 0.62568 0.35837 0.0
O265 O 0.4312 0.5912 0.43113 0.0
O266 O 0.59767 0.69364 0.44114 0.0
O267 O 0.45643 0.62225 0.48 0.0
O268 O 0.55304 0.67893 0.4828 0.0
C269 C 0.52231 0.58747 0.37782 0.0
C270 C 0.49098 0.73916 0.46011 0.0
C271 C 0.43437 0.65374 0.34896 0.0
C272 C 0.57415 0.74767 0.34785 0.0
C273 C 0.42927 0.59384 0.46342 0.0
C274 C 0.58778 0.68952 0.47315 0.0
O275 O 0.48898 0.58438 0.3816 0.0
O276 O 0.5524 0.93754 0.8829 0.0
Zn277 Zn 0.56278 0.8912 0.89883 0.0
O278 O 0.5122 0.8459 0.91487 0.0
Zn279 Zn 0.50273 0.79679 0.89476 0.0
Zn280 Zn 0.47012 0.85439 0.90116 0.0
Zn281 Zn 0.50707 0.83755 0.96489 0.0
O282 O 0.49877 0.75845 0.9299 0.0
O283 O 0.50453 0.78741 0.98016 0.0
O284 O 0.58668 0.86945 0.85935 0.0
O285 O 0.54616 0.80529 0.86443 0.0
O286 O 0.45496 0.77184 0.86442 0.0
O287 O 0.43833 0.81787 0.86451 0.0
O288 O 0.43278 0.84398 0.93843 0.0
O289 O 0.59803 0.91276 0.94336 0.0
O290 O 0.45759 0.83312 0.9853 0.0
O291 O 0.5545 0.8809 0.98541 0.0
C292 C 0.52048 0.93894 0.88071 0.0
C293 C 0.50089 0.75872 0.9625 0.0
C294 C 0.43333 0.78517 0.85412 0.0
C295 C 0.57638 0.83373 0.85118 0.0
C296 C 0.43075 0.83639 0.97025 0.0
C297 C 0.58846 0.9068 0.97539 0.0
O298 O 0.48784 0.90861 0.88687 0.0
O299 O 0.63083 0.54584 0.88128 0.0
Zn300 Zn 0.68813 0.5569 0.89559 0.0
O301 O 0.6836 0.50674 0.91111 0.0
Zn302 Zn 0.72577 0.50038 0.8923 0.0
Zn303 Zn 0.63435 0.46431 0.89483 0.0
Zn304 Zn 0.68489 0.49996 0.96106 0.0
O305 O 0.76027 0.49757 0.92785 0.0
O306 O 0.73135 0.49544 0.97726 0.0
O307 O 0.7313 0.57937 0.85385 0.0
O308 O 0.75988 0.5436 0.86154 0.0
O309 O 0.70583 0.45357 0.86137 0.0
O310 O 0.64282 0.43556 0.85734 0.0
O311 O 0.60644 0.42556 0.93106 0.0
O312 O 0.70328 0.59218 0.94055 0.0
O313 O 0.63755 0.45107 0.97998 0.0
O314 O 0.69055 0.54777 0.98206 0.0
C315 C 0.59802 0.51372 0.8772 0.0
C316 C 0.75917 0.49585 0.96045 0.0
C317 C 0.67201 0.43219 0.84852 0.0
C318 C 0.75824 0.57101 0.8461 0.0
C319 C 0.60923 0.42377 0.9634 0.0
C320 C 0.69961 0.58215 0.97252 0.0
O321 O 0.5966 0.48107 0.88069 0.0
O322 O 0.09653 0.62086 0.88077 0.0
Zn323 Zn 0.14298 0.67756 0.89632 0.0
O324 O 0.18761 0.672 0.91326 0.0
Zn325 Zn 0.2371 0.71261 0.89445 0.0
Zn326 Zn 0.17956 0.62184 0.89875 0.0
Zn327 Zn 0.19417 0.6736 0.96347 0.0
O328 O 0.27433 0.74609 0.93065 0.0
O329 O 0.24435 0.72034 0.98006 0.0
O330 O 0.16534 0.72242 0.85627 0.0
O331 O 0.2295 0.74794 0.86359 0.0
O332 O 0.26312 0.69046 0.8648 0.0
O333 O 0.21669 0.62787 0.86222 0.0
O334 O 0.1904 0.59474 0.9356 0.0
O335 O 0.12163 0.69241 0.94016 0.0
O336 O 0.19767 0.62776 0.98355 0.0
O337 O 0.15075 0.67837 0.98308 0.0
C338 C 0.09479 0.58738 0.87887 0.0
C339 C 0.27337 0.74635 0.9633 0.0
C340 C 0.24998 0.65594 0.85336 0.0
C341 C 0.2011 0.74851 0.84887 0.0
C342 C 0.19629 0.59889 0.96773 0.0
C343 C 0.12615 0.6879 0.97233 0.0
O344 O 0.1251 0.58489 0.88469 0.0
O345 O 0.4854 0.08907 0.88211 0.0
Zn346 Zn 0.4751 0.13564 0.89721 0.0
O347 O 0.52558 0.18039 0.91353 0.0
Zn348 Zn 0.53609 0.22969 0.89321 0.0
Zn349 Zn 0.56777 0.17156 0.90098 0.0
Zn350 Zn 0.52965 0.18864 0.96343 0.0
O351 O 0.53838 0.26749 0.92791 0.0
O352 O 0.52859 0.23703 0.97793 0.0
O353 O 0.45281 0.15799 0.85654 0.0
O354 O 0.49433 0.22199 0.86136 0.0
O355 O 0.58491 0.25462 0.86425 0.0
O356 O 0.59944 0.20706 0.86355 0.0
O357 O 0.60556 0.18399 0.93854 0.0
O358 O 0.43933 0.11444 0.94181 0.0
O359 O 0.58071 0.19694 0.98424 0.0
O360 O 0.4833 0.14398 0.98407 0.0
C361 C 0.51692 0.0868 0.88144 0.0
C362 C 0.53334 0.26614 0.96023 0.0
C363 C 0.60559 0.24034 0.8536 0.0
C364 C 0.4642 0.19384 0.84777 0.0
C365 C 0.60787 0.19364 0.96989 0.0
C366 C 0.44908 0.11895 0.97386 0.0
O367 O 0.54974 0.11673 0.88816 0.0
O368 O 0.41238 0.47879 0.8815 0.0
Zn369 Zn 0.35586 0.46979 0.89676 0.0
O370 O 0.36255 0.52061 0.91337 0.0
Zn371 Zn 0.32314 0.53093 0.89418 0.0
Zn372 Zn 0.41328 0.56194 0.89899 0.0
Zn373 Zn 0.36024 0.52575 0.9635 0.0
O374 O 0.28929 0.53491 0.92969 0.0
O375 O 0.31356 0.5298 0.97958 0.0
O376 O 0.31083 0.44787 0.85664 0.0
O377 O 0.28777 0.48865 0.86314 0.0
O378 O 0.34639 0.57927 0.86485 0.0
O379 O 0.40853 0.59398 0.86245 0.0
O380 O 0.44074 0.59939 0.93605 0.0
O381 O 0.34003 0.43376 0.94093 0.0
O382 O 0.40646 0.5746 0.98362 0.0
O383 O 0.35463 0.47741 0.98349 0.0
C384 C 0.44621 0.51021 0.87946 0.0
C385 C 0.2882 0.53337 0.9623 0.0
C386 C 0.38105 0.60006 0.85353 0.0
C387 C 0.28577 0.45881 0.84896 0.0
C388 C 0.43614 0.60145 0.96806 0.0
C389 C 0.34459 0.44306 0.97305 0.0
O390 O 0.44932 0.54331 0.88502 0.0
O391 O 0.94538 0.40272 0.88124 0.0
Zn392 Zn 0.89841 0.34614 0.89632 0.0
O393 O 0.85424 0.35266 0.91233 0.0
Zn394 Zn 0.80496 0.31055 0.89469 0.0
Zn395 Zn 0.86156 0.40187 0.89544 0.0
Zn396 Zn 0.84816 0.35323 0.96229 0.0
O397 O 0.76651 0.28053 0.93125 0.0
O398 O 0.79539 0.3102 0.97993 0.0
O399 O 0.8754 0.30229 0.85535 0.0
O400 O 0.81174 0.27255 0.86712 0.0
O401 O 0.78043 0.3301 0.86085 0.0
O402 O 0.82501 0.39328 0.8572 0.0
O403 O 0.85137 0.43087 0.93129 0.0
O404 O 0.91827 0.32993 0.94078 0.0
O405 O 0.85193 0.40298 0.98053 0.0
O406 O 0.8885 0.34436 0.98273 0.0
C407 C 0.94677 0.43583 0.87705 0.0
C408 C 0.76636 0.28329 0.96377 0.0
C409 C 0.79308 0.36373 0.84762 0.0
C410 C 0.83987 0.27424 0.84999 0.0
C411 C 0.8506 0.43005 0.9639 0.0
C412 C 0.91265 0.33393 0.97284 0.0
O413 O 0.91613 0.43818 0.88105 0.0
O414 O 0.09829 0.48274 0.69505 0.0
Zn415 Zn 0.14454 0.47175 0.68109 0.0
O416 O 0.1902 0.52198 0.66572 0.0
Zn417 Zn 0.23844 0.52787 0.68463 0.0
Zn418 Zn 0.18359 0.56437 0.68243 0.0
Zn419 Zn 0.19846 0.52907 0.6158 0.0
O420 O 0.27571 0.53063 0.64941 0.0
O421 O 0.2498 0.53362 0.59979 0.0
O422 O 0.16478 0.44871 0.72264 0.0
O423 O 0.22914 0.48441 0.71491 0.0
O424 O 0.26557 0.57431 0.71573 0.0
O425 O 0.22076 0.59249 0.72023 0.0
O426 O 0.19474 0.60372 0.64663 0.0
O427 O 0.12469 0.43666 0.63623 0.0
O428 O 0.20011 0.57843 0.59752 0.0
O429 O 0.15598 0.48111 0.59462 0.0
C430 C 0.09763 0.51482 0.69928 0.0
C431 C 0.27689 0.53277 0.61685 0.0
C432 C 0.25328 0.59562 0.72889 0.0
C433 C 0.20006 0.45686 0.7302 0.0
C434 C 0.19927 0.60574 0.61428 0.0
C435 C 0.13078 0.44666 0.60427 0.0
O436 O 0.12897 0.54751 0.69625 0.0
O437 O 0.62747 0.09192 0.69527 0.0
Zn438 Zn 0.68495 0.13713 0.68024 0.0
O439 O 0.68128 0.18279 0.66363 0.0
Zn440 Zn 0.72365 0.23135 0.68219 0.0
Zn441 Zn 0.63223 0.17715 0.67886 0.0
Zn442 Zn 0.68283 0.1894 0.61357 0.0
O443 O 0.7562 0.26926 0.64597 0.0
O444 O 0.72962 0.23942 0.59672 0.0
O445 O 0.72842 0.15844 0.72153 0.0
O446 O 0.75942 0.2225 0.71124 0.0
O447 O 0.70406 0.25683 0.71515 0.0
O448 O 0.64066 0.21273 0.7178 0.0
O449 O 0.60687 0.19131 0.64251 0.0
O450 O 0.69954 0.11537 0.63613 0.0
O451 O 0.63735 0.19341 0.59404 0.0
O452 O 0.6868 0.14583 0.59352 0.0
C453 C 0.59464 0.09151 0.69745 0.0
C454 C 0.7559 0.26841 0.61331 0.0
C455 C 0.67021 0.24436 0.7279 0.0
C456 C 0.75667 0.1936 0.7279 0.0
C457 C 0.61036 0.1954 0.61013 0.0
C458 C 0.69551 0.12055 0.60396 0.0
O459 O 0.59348 0.12258 0.69184 0.0
O460 O 0.55875 0.62703 0.69657 0.0
Zn461 Zn 0.56936 0.68406 0.68221 0.0
O462 O 0.51871 0.67914 0.66751 0.0
Zn463 Zn 0.51193 0.72062 0.68717 0.0
Zn464 Zn 0.47655 0.62945 0.68353 0.0
Zn465 Zn 0.51138 0.68156 0.61785 0.0
O466 O 0.51057 0.75686 0.65298 0.0
O467 O 0.50773 0.72909 0.60285 0.0
O468 O 0.59262 0.72735 0.72388 0.0
O469 O 0.5544 0.7535 0.71849 0.0
O470 O 0.46466 0.70016 0.71728 0.0
O471 O 0.44759 0.63738 0.72126 0.0
O472 O 0.43765 0.60121 0.64739 0.0
O473 O 0.60368 0.69876 0.63658 0.0
O474 O 0.46217 0.6343 0.59913 0.0
O475 O 0.55852 0.68675 0.59598 0.0
C476 C 0.52684 0.59401 0.70052 0.0
C477 C 0.50895 0.75687 0.62042 0.0
C478 C 0.44366 0.66626 0.73004 0.0
C479 C 0.58303 0.75311 0.73271 0.0
C480 C 0.43542 0.60495 0.61523 0.0
C481 C 0.59296 0.69529 0.6048 0.0
O482 O 0.49395 0.59212 0.69725 0.0
O483 O 0.94659 0.54909 0.69284 0.0
Zn484 Zn 0.89906 0.55787 0.67719 0.0
O485 O 0.85463 0.50669 0.66125 0.0
Zn486 Zn 0.80515 0.4957 0.6816 0.0
Zn487 Zn 0.86464 0.46551 0.67474 0.0
Zn488 Zn 0.84577 0.50138 0.61127 0.0
O489 O 0.76656 0.49184 0.64693 0.0
O490 O 0.79529 0.49847 0.59641 0.0
O491 O 0.87631 0.58014 0.71742 0.0
O492 O 0.81246 0.53786 0.71293 0.0
O493 O 0.78101 0.44735 0.71102 0.0
O494 O 0.82885 0.43325 0.71179 0.0
O495 O 0.8543 0.42817 0.63738 0.0
O496 O 0.91931 0.59315 0.63228 0.0
O497 O 0.84156 0.45201 0.59085 0.0
O498 O 0.88854 0.54897 0.59041 0.0
C499 C 0.94923 0.51782 0.69454 0.0
C500 C 0.76662 0.49437 0.61438 0.0
C501 C 0.79549 0.42687 0.72171 0.0
C502 C 0.84041 0.56841 0.72622 0.0
C503 C 0.84581 0.42567 0.60572 0.0
C504 C 0.91367 0.58331 0.60026 0.0
O505 O 0.91946 0.48469 0.68841 0.0
O506 O 0.40913 0.94205 0.69575 0.0
Zn507 Zn 0.35265 0.89447 0.68153 0.0
O508 O 0.35957 0.8501 0.66686 0.0
Zn509 Zn 0.31815 0.80096 0.68509 0.0
Zn510 Zn 0.40867 0.85814 0.68471 0.0
Zn511 Zn 0.35992 0.84252 0.61704 0.0
O512 O 0.28372 0.76462 0.64941 0.0
O513 O 0.31332 0.79131 0.60022 0.0
O514 O 0.30878 0.87283 0.72271 0.0
O515 O 0.28372 0.80872 0.71602 0.0
O516 O 0.33825 0.77369 0.71515 0.0
O517 O 0.3999 0.8211 0.72265 0.0
O518 O 0.43855 0.84817 0.64974 0.0
O519 O 0.33677 0.91294 0.63602 0.0
O520 O 0.4084 0.84164 0.6001 0.0
O521 O 0.35489 0.88491 0.59525 0.0
C522 C 0.44234 0.94386 0.70057 0.0
C523 C 0.28498 0.76405 0.61685 0.0
C524 C 0.37137 0.7873 0.72969 0.0
C525 C 0.28315 0.83706 0.73063 0.0
C526 C 0.43669 0.84345 0.61741 0.0
C527 C 0.34331 0.90845 0.6043 0.0
O528 O 0.44482 0.91309 0.69842 0.0
O529 O 0.48844 0.40812 0.69708 0.0
Zn530 Zn 0.47758 0.35094 0.68173 0.0
O531 O 0.52778 0.3563 0.66511 0.0
Zn532 Zn 0.53628 0.3153 0.68361 0.0
Zn533 Zn 0.57022 0.40603 0.68001 0.0
Zn534 Zn 0.53297 0.35528 0.61495 0.0
O535 O 0.54034 0.28235 0.64718 0.0
O536 O 0.53735 0.30934 0.59812 0.0
O537 O 0.4557 0.3064 0.72238 0.0
O538 O 0.49346 0.28 0.71441 0.0
O539 O 0.58445 0.33676 0.71341 0.0
O540 O 0.60154 0.39954 0.71596 0.0
O541 O 0.60793 0.43375 0.64318 0.0
O542 O 0.44129 0.33562 0.63744 0.0
O543 O 0.58173 0.40154 0.59499 0.0
O544 O 0.48499 0.35011 0.59498 0.0
C545 C 0.52067 0.4411 0.70019 0.0
C546 C 0.53994 0.28292 0.61454 0.0
C547 C 0.60636 0.37125 0.72475 0.0
C548 C 0.46507 0.28005 0.72964 0.0
C549 C 0.60933 0.43018 0.61093 0.0
C550 C 0.45068 0.3403 0.60531 0.0
O551 O 0.55317 0.44279 0.695 0.0
C552 C 0.44545 0.21059 0.32417 0.0
C553 C 0.44598 0.24675 0.32152 0.0
C554 C 0.44341 0.18818 0.29491 0.0
C555 C 0.44187 0.20086 0.26141 0.0
H556 H 0.45025 0.2012 0.34901 0.0
H557 H 0.44738 0.16315 0.29847 0.0
S558 S 0.43706 0.29032 0.23994 0.0
N559 N 0.44035 0.29146 0.28236 0.0
N560 N 0.43634 0.24985 0.22774 0.0
C561 C 0.43836 0.23485 0.25867 0.0
C562 C 0.44041 0.2576 0.28848 0.0
C563 C 0.26405 0.43593 0.28988 0.0
C564 C 0.25066 0.43597 0.25634 0.0
C565 C 0.24299 0.43667 0.31912 0.0
C566 C 0.20742 0.4373 0.31638 0.0
H567 H 0.29294 0.43965 0.29362 0.0
H568 H 0.25664 0.44054 0.34412 0.0
S569 S 0.1568 0.4319 0.23452 0.0
N570 N 0.19686 0.43176 0.22237 0.0
N571 N 0.15798 0.43338 0.27702 0.0
C572 C 0.19178 0.43319 0.28318 0.0
C573 C 0.2132 0.43252 0.25337 0.0
C574 C 0.78869 0.20926 0.25694 0.0
C575 C 0.82369 0.2462 0.25878 0.0
C576 C 0.76764 0.18852 0.28667 0.0
C577 C 0.78044 0.20372 0.31991 0.0
H578 H 0.77552 0.19775 0.23206 0.0
H579 H 0.73929 0.16246 0.28335 0.0
S580 S 0.87291 0.29609 0.33982 0.0
N581 N 0.87204 0.29441 0.29733 0.0
N582 N 0.8333 0.25589 0.35282 0.0
C583 C 0.81735 0.23864 0.32218 0.0
C584 C 0.83875 0.25968 0.29188 0.0
C585 C 0.59128 0.83368 0.29131 0.0
C586 C 0.58849 0.81897 0.25782 0.0
C587 C 0.59207 0.81258 0.32056 0.0
C588 C 0.59031 0.77582 0.31789 0.0
H589 H 0.58873 0.85949 0.29522 0.0
H590 H 0.5904 0.82348 0.34572 0.0
S591 S 0.58897 0.7274 0.23581 0.0
N592 N 0.58912 0.76762 0.2237 0.0
N593 N 0.59041 0.72847 0.27831 0.0
C594 C 0.59173 0.76299 0.28448 0.0
C595 C 0.5908 0.78435 0.25469 0.0
C596 C 0.76795 0.5831 0.2896 0.0
C597 C 0.78227 0.58435 0.25618 0.0
C598 C 0.78849 0.58188 0.31908 0.0
C599 C 0.82445 0.58192 0.3168 0.0
H600 H 0.73892 0.57911 0.29299 0.0
H601 H 0.77431 0.57749 0.34387 0.0
S602 S 0.87785 0.59147 0.23568 0.0
N603 N 0.83763 0.59101 0.22303 0.0
N604 N 0.87541 0.58827 0.2781 0.0
C605 C 0.84095 0.58725 0.28384 0.0
C606 C 0.82009 0.5885 0.25377 0.0
C607 C 0.21248 0.78756 0.31735 0.0
C608 C 0.24934 0.82262 0.3152 0.0
C609 C 0.19173 0.76605 0.28784 0.0
C610 C 0.20681 0.77848 0.25453 0.0
H611 H 0.20125 0.77457 0.34235 0.0
H612 H 0.16588 0.73759 0.29143 0.0
S613 S 0.29875 0.87107 0.2338 0.0
N614 N 0.29726 0.87066 0.2763 0.0
N615 N 0.25858 0.83122 0.22114 0.0
C616 C 0.24151 0.81556 0.2519 0.0
C617 C 0.26261 0.83736 0.282 0.0
C618 C 0.60254 0.81785 0.76065 0.0
C619 C 0.59947 0.78048 0.76308 0.0
C620 C 0.60049 0.83824 0.78989 0.0
C621 C 0.59517 0.8222 0.82312 0.0
H622 H 0.60259 0.82973 0.73549 0.0
H623 H 0.5989 0.86459 0.78595 0.0
S624 S 0.59191 0.72868 0.84478 0.0
N625 N 0.59576 0.7311 0.80239 0.0
N626 N 0.59254 0.76909 0.85704 0.0
C627 C 0.59643 0.78701 0.82623 0.0
C628 C 0.59848 0.7663 0.79644 0.0
C629 C 0.8439 0.59009 0.78823 0.0
C630 C 0.8282 0.58585 0.75496 0.0
C631 C 0.82303 0.59071 0.81771 0.0
C632 C 0.78548 0.58728 0.81553 0.0
H633 H 0.87048 0.58884 0.79189 0.0
H634 H 0.83488 0.59025 0.84276 0.0
S635 S 0.73397 0.58149 0.73406 0.0
N636 N 0.77481 0.58322 0.72147 0.0
N637 N 0.73604 0.58403 0.77651 0.0
C638 C 0.77144 0.58712 0.78226 0.0
C639 C 0.79261 0.58644 0.75223 0.0
C640 C 0.26899 0.83715 0.79404 0.0
C641 C 0.25491 0.82493 0.76042 0.0
C642 C 0.24849 0.81431 0.82307 0.0
C643 C 0.21287 0.77811 0.82008 0.0
H644 H 0.29797 0.8622 0.79781 0.0
H645 H 0.26255 0.82342 0.84799 0.0
S646 S 0.1606 0.73577 0.73816 0.0
N647 N 0.20047 0.77642 0.72633 0.0
N648 N 0.1626 0.73397 0.78055 0.0
C649 C 0.19657 0.76774 0.78697 0.0
C650 C 0.21741 0.79094 0.75738 0.0
C651 C 0.44594 0.19244 0.78507 0.0
C652 C 0.447 0.20596 0.81876 0.0
C653 C 0.44655 0.21452 0.75602 0.0
C654 C 0.44814 0.25117 0.75907 0.0
H655 H 0.44884 0.16685 0.78099 0.0
H656 H 0.44938 0.20441 0.73084 0.0
S657 S 0.44547 0.2968 0.84158 0.0
N658 N 0.44476 0.25619 0.85329 0.0
N659 N 0.44606 0.29716 0.79906 0.0
C660 C 0.44506 0.26286 0.79252 0.0
C661 C 0.44452 0.24047 0.82212 0.0
C662 C 0.24521 0.43683 0.75775 0.0
C663 C 0.21108 0.44017 0.76037 0.0
C664 C 0.26704 0.43741 0.78697 0.0
C665 C 0.25586 0.44147 0.82038 0.0
H666 H 0.25731 0.43748 0.73257 0.0
H667 H 0.29488 0.43879 0.783 0.0
S668 S 0.16584 0.44501 0.8424 0.0
N669 N 0.16505 0.44284 0.79992 0.0
N670 N 0.20518 0.44343 0.85452 0.0
C671 C 0.21958 0.44059 0.82355 0.0
C672 C 0.19743 0.44001 0.79378 0.0
C673 C 0.82106 0.23981 0.75673 0.0
C674 C 0.78413 0.20479 0.75839 0.0
C675 C 0.84212 0.26007 0.78658 0.0
C676 C 0.82733 0.24636 0.81975 0.0
H677 H 0.83231 0.25362 0.73201 0.0
H678 H 0.86809 0.28854 0.7835 0.0
S679 S 0.73552 0.15307 0.83901 0.0
N680 N 0.73655 0.15522 0.79654 0.0
N681 N 0.77582 0.19239 0.85227 0.0
C682 C 0.79254 0.20931 0.82173 0.0
C683 C 0.77111 0.18877 0.7913 0.0
C684 C 0.54907 0.04678 0.20047 0.0
C685 C 0.51337 0.04716 0.20362 0.0
C686 C 0.55053 1.01171 0.20066 0.0
C687 C 0.51641 0.97499 0.20417 0.0
H688 H 0.57635 0.07386 0.19651 0.0
H689 H 0.5785 0.01341 0.19655 0.0
S690 S 0.41585 0.95931 0.21775 0.0
N691 N 0.44346 1.0072 0.21331 0.0
N692 N 0.44586 0.94171 0.21439 0.0
C693 C 0.48074 0.97505 0.20937 0.0
C694 C 0.4793 1.01082 0.2089 0.0
C695 C 0.55096 0.54623 0.2001 0.0
C696 C 0.55357 0.51227 0.20485 0.0
C697 C 0.51441 0.54469 0.19907 0.0
C698 C 0.47826 0.50909 0.20246 0.0
H699 H 0.57727 0.57415 0.1959 0.0
H700 H 0.51469 0.5719 0.19433 0.0
S701 S 0.46831 0.41189 0.21892 0.0
N702 N 0.51601 0.44187 0.21596 0.0
N703 N 0.44812 0.43939 0.21327 0.0
C704 C 0.48045 0.47515 0.20871 0.0
C705 C 0.5177 0.47667 0.21011 0.0
C706 C 0.98004 0.50933 0.19403 0.0
C707 C 0.97923 0.47313 0.19797 0.0
C708 C 1.01522 0.54588 0.19512 0.0
C709 C 0.05174 0.54848 0.20036 0.0
H710 H 0.9532 0.50964 0.18898 0.0
H711 H 1.01378 0.57222 0.19057 0.0
S712 S 0.06626 0.46318 0.21584 0.0
N713 N 0.0186 0.44303 0.20981 0.0
N714 N 0.08422 0.51087 0.21239 0.0
C715 C 0.05122 0.51258 0.20601 0.0
C716 C 1.01532 0.47534 0.20469 0.0
C717 C 1.01607 0.54344 0.37371 0.0
C718 C 0.97931 0.50931 0.37095 0.0
C719 C 0.05102 0.54187 0.37363 0.0
C720 C 0.05128 0.50607 0.37102 0.0
H721 H 1.01792 0.57152 0.37747 0.0
H722 H 0.07816 0.56927 0.37708 0.0
S723 S 0.96322 0.40849 0.35824 0.0
N724 N 0.94571 0.4386 0.36151 0.0
N725 N 1.01118 0.43606 0.3622 0.0
C726 C 1.01489 0.47195 0.36631 0.0
C727 C 0.97917 0.4735 0.36605 0.0
C728 C 0.51227 0.97517 0.37935 0.0
C729 C 0.47635 0.97507 0.37585 0.0
C730 C 0.54907 1.01007 0.37899 0.0
C731 C 0.55214 0.04693 0.37494 0.0
H732 H 0.51214 0.94799 0.38359 0.0
H733 H 0.57518 1.00814 0.38328 0.0
S734 S 0.46779 0.06331 0.36068 0.0
N735 N 0.44706 0.01544 0.36552 0.0
N736 N 0.51536 0.08056 0.36414 0.0
C737 C 0.51654 0.04711 0.36954 0.0
C738 C 0.47907 1.01152 0.37018 0.0
C739 C 0.48549 0.4769 0.37504 0.0
C740 C 0.51983 0.47455 0.37355 0.0
C741 C 0.48687 0.51335 0.3747 0.0
C742 C 0.52265 0.54959 0.37313 0.0
H743 H 0.45734 0.4505 0.37785 0.0
H744 H 0.45927 0.51288 0.37704 0.0
S745 S 0.62107 0.56009 0.36469 0.0
N746 N 0.591 0.51235 0.36692 0.0
N747 N 0.59308 0.58009 0.36717 0.0
C748 C 0.55708 0.54765 0.36987 0.0
C749 C 0.55576 0.5105 0.36985 0.0
C750 C 0.55263 0.04834 0.87884 0.0
C751 C 0.51694 0.0488 0.87607 0.0
C752 C 0.55407 0.01328 0.87839 0.0
C753 C 0.51991 0.97661 0.87495 0.0
H754 H 0.58 0.07537 0.88268 0.0
H755 H 0.58206 0.01495 0.88223 0.0
S756 S 0.41926 0.9611 0.86232 0.0
N757 N 0.44695 1.00897 0.8668 0.0
N758 N 0.44926 0.94343 0.8652 0.0
C759 C 0.48421 0.97673 0.87006 0.0
C760 C 0.48281 0.01253 0.8708 0.0
C761 C 0.55694 0.54698 0.87617 0.0
C762 C 0.55942 0.51285 0.87243 0.0
C763 C 0.52046 0.5456 0.87687 0.0
C764 C 0.48419 0.50999 0.87411 0.0
H765 H 0.58331 0.57497 0.87985 0.0
H766 H 0.52095 0.57302 0.88085 0.0
S767 S 0.4739 0.41231 0.85996 0.0
N768 N 0.52165 0.44222 0.86271 0.0
N769 N 0.45383 0.44003 0.86473 0.0
C770 C 0.48623 0.47584 0.86874 0.0
C771 C 0.52346 0.47719 0.86772 0.0
C772 C 0.02111 0.47661 0.87801 0.0
C773 C 0.98476 0.47391 0.87169 0.0
C774 C 0.05617 0.51313 0.8788 0.0
C775 C 0.05695 0.54915 0.87352 0.0
H776 H 0.02244 0.45046 0.88384 0.0
H777 H 0.08287 0.51297 0.88494 0.0
S778 S 0.97053 0.55846 0.85144 0.0
N779 N 0.95248 0.5109 0.8564 0.0
N780 N 1.01802 0.5789 0.85863 0.0
C781 C 0.02112 0.54678 0.86543 0.0
C782 C 0.98533 0.50951 0.86431 0.0
C783 C 0.02329 0.48143 0.69934 0.0
C784 C 0.05982 0.5156 0.70347 0.0
C785 C 0.98816 0.48267 0.69799 0.0
C786 C 0.98741 0.51822 0.70048 0.0
H787 H 0.02176 0.45344 0.69583 0.0
H788 H 0.96134 0.45524 0.69378 0.0
S789 S 0.07452 0.61602 0.71543 0.0
N790 N 0.09249 0.58622 0.71322 0.0
N791 N 0.02677 0.58818 0.71004 0.0
C792 C 0.0235 0.55243 0.70625 0.0
C793 C 0.05941 0.55121 0.7079 0.0
C794 C 0.55318 0.01734 0.70229 0.0
C795 C 0.55592 0.05424 0.70326 0.0
C796 C 0.51659 0.98233 0.70303 0.0
C797 C 0.4805 0.98212 0.70455 0.0
H798 H 0.57946 0.01532 0.69974 0.0
H799 H 0.51679 0.95506 0.70113 0.0
S800 S 0.47094 0.07069 0.71162 0.0
N801 N 0.51862 0.0881 0.70914 0.0
N802 N 0.45058 0.02259 0.7098 0.0
C803 C 0.48282 0.01874 0.70715 0.0
C804 C 0.52014 0.05451 0.7067 0.0
C805 C 0.48809 0.48285 0.70292 0.0
C806 C 0.52196 0.47975 0.70584 0.0
C807 C 0.49014 0.51967 0.70275 0.0
C808 C 0.52617 0.55556 0.70523 0.0
H809 H 0.45983 0.45675 0.6994 0.0
H810 H 0.46295 0.5198 0.69935 0.0
S811 S 0.62343 0.56414 0.71732 0.0
N812 N 0.59284 0.51654 0.71461 0.0
N813 N 0.59622 0.58488 0.71344 0.0
C814 C 0.56006 0.55285 0.70979 0.0
C815 C 0.55805 0.51536 0.71032 0.0
C816 C 0.65811 0.26393 0.26166 0.0
C817 C 0.62002 0.25789 0.25877 0.0
C818 C 0.6737 0.2639 0.29398 0.0
C819 C 0.65124 0.25726 0.32387 0.0
H820 H 0.6741 0.26433 0.23884 0.0
H821 H 0.70091 0.26353 0.29504 0.0
S822 S 0.55247 0.24585 0.32989 0.0
N823 N 0.56231 0.25019 0.28828 0.0
N824 N 0.59187 0.25041 0.34914 0.0
C825 C 0.61527 0.25623 0.32148 0.0
C826 C 0.59949 0.25643 0.2887 0.0
C827 C 0.42208 0.66889 0.29047 0.0
C828 C 0.40741 0.64632 0.32046 0.0
C829 C 0.40537 0.65314 0.25849 0.0
C830 C 0.37338 0.61489 0.25616 0.0
H831 H 0.44954 0.6964 0.29109 0.0
H832 H 0.42019 0.66907 0.23538 0.0
S833 S 0.31988 0.54771 0.32814 0.0
N834 N 0.3555 0.58715 0.34674 0.0
N835 N 0.32414 0.55734 0.28649 0.0
C836 C 0.35517 0.5945 0.28638 0.0
C837 C 0.37227 0.6104 0.3188 0.0
C838 C 0.76511 0.39981 0.25997 0.0
C839 C 0.77119 0.36779 0.25717 0.0
C840 C 0.76445 0.41509 0.29226 0.0
C841 C 0.77051 0.399 0.32228 0.0
H842 H 0.76497 0.41552 0.23712 0.0
H843 H 0.76466 0.4426 0.29331 0.0
S844 S 0.78179 0.31157 0.3285 0.0
N845 N 0.77828 0.31748 0.28682 0.0
N846 N 0.77695 0.34626 0.34766 0.0
C847 C 0.77169 0.36413 0.3199 0.0
C848 C 0.77212 0.34845 0.28712 0.0
C849 C 0.41542 0.75625 0.28201 0.0
C850 C 0.40163 0.76479 0.25178 0.0
C851 C 0.39973 0.75739 0.31398 0.0
C852 C 0.36958 0.76636 0.3161 0.0
H853 H 0.44174 0.75411 0.28148 0.0
H854 H 0.4139 0.75536 0.33717 0.0
S855 S 0.31927 0.78398 0.24378 0.0
N856 N 0.35233 0.77603 0.22531 0.0
N857 N 0.32349 0.77917 0.28553 0.0
C858 C 0.35225 0.76974 0.2858 0.0
C859 C 0.36809 0.76849 0.25339 0.0
C860 C 0.61832 0.35573 0.29588 0.0
C861 C 0.6332 0.37795 0.32601 0.0
C862 C 0.63366 0.37224 0.26374 0.0
C863 C 0.66444 0.41112 0.26121 0.0
H864 H 0.59135 0.3279 0.29663 0.0
H865 H 0.6185 0.35621 0.24078 0.0
S866 S 0.71796 0.47839 0.33302 0.0
N867 N 0.68421 0.43796 0.35188 0.0
N868 N 0.71285 0.46928 0.29129 0.0
C869 C 0.683 0.43152 0.29131 0.0
C870 C 0.66738 0.41473 0.32396 0.0
C871 C 0.27327 0.61197 0.2922 0.0
C872 C 0.26408 0.62545 0.32223 0.0
C873 C 0.27262 0.62777 0.26016 0.0
C874 C 0.26324 0.6576 0.25774 0.0
H875 H 0.27515 0.58557 0.2928 0.0
H876 H 0.27497 0.61363 0.2371 0.0
S877 S 0.24369 0.70704 0.32954 0.0
N878 N 0.25181 0.6742 0.3483 0.0
N879 N 0.24938 0.70316 0.2879 0.0
C880 C 0.25928 0.67475 0.28791 0.0
C881 C 0.26016 0.65884 0.32042 0.0
C882 C 0.42173 0.75989 0.79487 0.0
C883 C 0.40669 0.7669 0.82507 0.0
C884 C 0.40618 0.76084 0.76278 0.0
C885 C 0.37495 0.76821 0.76043 0.0
H886 H 0.44886 0.75934 0.79556 0.0
H887 H 0.4214 0.76031 0.73975 0.0
S888 S 0.32096 0.78086 0.83243 0.0
N889 N 0.3552 0.77489 0.85116 0.0
N890 N 0.32611 0.77705 0.79067 0.0
C891 C 0.35637 0.76979 0.7906 0.0
C892 C 0.37224 0.76894 0.82317 0.0
C893 C 0.63565 0.37142 0.815 0.0
C894 C 0.66764 0.40968 0.81744 0.0
C895 C 0.61887 0.35578 0.783 0.0
C896 C 0.63359 0.37831 0.753 0.0
H897 H 0.62077 0.35546 0.83808 0.0
H898 H 0.59123 0.32848 0.7824 0.0
S899 S 0.72091 0.47704 0.7455 0.0
N900 N 0.7167 0.46735 0.78714 0.0
N901 N 0.68544 0.43757 0.72684 0.0
C902 C 0.66874 0.41423 0.75474 0.0
C903 C 0.68581 0.43012 0.78721 0.0
C904 C 0.27758 0.67155 0.79499 0.0
C905 C 0.2697 0.64876 0.82484 0.0
C906 C 0.27837 0.6561 0.76284 0.0
C907 C 0.27163 0.61774 0.76008 0.0
H908 H 0.2774 0.69885 0.79582 0.0
H909 H 0.2795 0.67232 0.73993 0.0
S910 S 0.25724 0.54962 0.8314 0.0
N911 N 0.26175 0.58907 0.85045 0.0
N912 N 0.26258 0.55963 0.78981 0.0
C913 C 0.26929 0.59697 0.79009 0.0
C914 C 0.26848 0.61268 0.82274 0.0
C915 C 0.61891 0.26823 0.79513 0.0
C916 C 0.63266 0.25867 0.82481 0.0
C917 C 0.63528 0.26923 0.76296 0.0
C918 C 0.66596 0.26109 0.75996 0.0
H919 H 0.59228 0.26978 0.7961 0.0
H920 H 0.62114 0.27208 0.7401 0.0
S921 S 0.71611 0.24093 0.83085 0.0
N922 N 0.68216 0.24693 0.85007 0.0
N923 N 0.71237 0.24784 0.78942 0.0
C924 C 0.68305 0.25645 0.7899 0.0
C925 C 0.66644 0.25547 0.82256 0.0
C926 C 0.38266 0.62964 0.7631 0.0
C927 C 0.42093 0.66159 0.761 0.0
C928 C 0.36671 0.61274 0.79496 0.0
C929 C 0.38892 0.62728 0.82515 0.0
H930 H 0.36692 0.6149 0.7399 0.0
H931 H 0.33948 0.58511 0.7953 0.0
S932 S 0.4876 0.71442 0.83342 0.0
N933 N 0.4783 0.71052 0.79171 0.0
N934 N 0.448 0.67879 0.85179 0.0
C935 C 0.42494 0.66229 0.82371 0.0
C936 C 0.44111 0.67957 0.79137 0.0
C937 C 0.76798 0.41387 0.78026 0.0
C938 C 0.77737 0.39994 0.75062 0.0
C939 C 0.76745 0.39792 0.81252 0.0
C940 C 0.77594 0.36752 0.81564 0.0
H941 H 0.76645 0.44045 0.77922 0.0
H942 H 0.76478 0.41226 0.83531 0.0
S943 S 0.79573 0.31692 0.74498 0.0
N944 N 0.78921 0.35046 0.72557 0.0
N945 N 0.78927 0.32104 0.78642 0.0
C946 C 0.78038 0.35018 0.78579 0.0
C947 C 0.78082 0.36634 0.75303 0.0
C948 C 0.5705 0.32335 0.08518 0.0
C949 C 0.53506 0.30047 0.1026 0.0
C950 C 0.58781 0.3642 0.08418 0.0
C951 C 0.57002 0.38292 0.10068 0.0
H952 H 0.58759 0.31028 0.07698 0.0
H953 H 0.61778 0.38126 0.07536 0.0
S954 S 0.47298 0.33512 0.14302 0.0
N955 N 0.47947 0.29852 0.13127 0.0
N956 N 0.51202 0.37542 0.12935 0.0
C957 C 0.53198 0.35992 0.1137 0.0
C958 C 0.51445 0.31846 0.11477 0.0
C959 C 0.24272 0.59077 0.07995 0.0
C960 C 0.20541 0.57257 0.0952 0.0
C961 C 0.26565 0.57276 0.08071 0.0
C962 C 0.25173 0.5363 0.09686 0.0
H963 H 0.25631 0.62104 0.07171 0.0
H964 H 0.29605 0.58969 0.07287 0.0
S965 S 0.15264 0.47303 0.13282 0.0
N966 N 0.15281 0.51321 0.12053 0.0
N967 N 0.1961 0.47957 0.12233 0.0
C968 C 0.21251 0.51556 0.10746 0.0
C969 C 0.18918 0.53371 0.10649 0.0
C970 C 0.70265 0.25962 0.08043 0.0
C971 C 0.72414 0.24439 0.09639 0.0
C972 C 0.66158 0.23802 0.07983 0.0
C973 C 0.64137 0.20065 0.0949 0.0
H974 H 0.71718 0.29004 0.0726 0.0
H975 H 0.64585 0.25269 0.07189 0.0
S976 S 0.68509 0.14407 0.13037 0.0
N977 N 0.72303 0.18722 0.12062 0.0
N978 N 0.64589 0.14607 0.1186 0.0
C979 C 0.6629 0.18288 0.10535 0.0
C980 C 0.70448 0.20502 0.10642 0.0
C981 C 0.43483 0.65789 0.08059 0.0
C982 C 0.45354 0.63863 0.0945 0.0
C983 C 0.45252 0.69878 0.08245 0.0
C984 C 0.4891 0.7211 0.09849 0.0
H985 H 0.40449 0.64123 0.07253 0.0
H986 H 0.43537 0.71225 0.07542 0.0
S987 S 0.5535 0.68523 0.13125 0.0
N988 N 0.51352 0.64536 0.11832 0.0
N989 N 0.54629 0.72216 0.12262 0.0
C990 C 0.51021 0.7027 0.10791 0.0
C991 C 0.49252 0.6613 0.10557 0.0
C992 C 0.82727 0.47336 0.09074 0.0
C993 C 0.81006 0.43243 0.09156 0.0
C994 C 0.80399 0.49094 0.09215 0.0
C995 C 0.76303 0.46794 0.0943 0.0
H996 H 0.85876 0.49174 0.09295 0.0
H997 H 0.81816 0.52241 0.09539 0.0
S998 S 0.70405 0.35979 0.09558 0.0
N999 N 0.74986 0.36959 0.09273 0.0
N1000 N 0.70619 0.40267 0.09468 0.0
C1001 C 0.74548 0.42718 0.09156 0.0
C1002 C 0.76909 0.40933 0.0904 0.0
C1003 C 0.37029 0.78116 0.07944 0.0
C1004 C 0.38925 0.81998 0.09146 0.0
C1005 C 0.32938 0.75779 0.08101 0.0
C1006 C 0.30664 0.77269 0.09493 0.0
H1007 H 0.38719 0.76722 0.07308 0.0
H1008 H 0.31616 0.7268 0.0755 0.0
S1009 S 0.34166 0.87467 0.12259 0.0
N1010 N 0.38182 0.87418 0.11145 0.0
N1011 N 0.305 0.82996 0.11521 0.0
C1012 C 0.32479 0.81274 0.1025 0.0
C1013 C 0.36624 0.83659 0.10045 0.0
C1014 C 0.70702 0.44863 0.4956 0.0
C1015 C 0.72889 0.48518 0.47945 0.0
C1016 C 0.66624 0.43103 0.49849 0.0
C1017 C 0.64665 0.44989 0.48565 0.0
H1018 H 0.72066 0.43147 0.5019 0.0
H1019 H 0.64979 0.40061 0.50637 0.0
S1020 S 0.69241 0.5501 0.44956 0.0
N1021 N 0.72947 0.54263 0.45655 0.0
N1022 N 0.6529 0.51019 0.46315 0.0
C1023 C 0.66911 0.489 0.47479 0.0
C1024 C 0.71038 0.5065 0.4712 0.0
C1025 C 0.23924 0.65837 0.4917 0.0
C1026 C 0.20122 0.63764 0.47813 0.0
C1027 C 0.26083 0.6993 0.48996 0.0
C1028 C 0.245 0.7204 0.4745 0.0
H1029 H 0.25439 0.64288 0.49876 0.0
H1030 H 0.29174 0.71399 0.49609 0.0
S1031 S 0.14404 0.68028 0.44172 0.0
N1032 N 0.14622 0.64145 0.45444 0.0
N1033 N 0.18739 0.71853 0.45042 0.0
C1034 C 0.20545 0.70043 0.46498 0.0
C1035 C 0.18329 0.65886 0.46715 0.0
C1036 C 0.58127 0.26124 0.49777 0.0
C1037 C 0.54506 0.24799 0.48137 0.0
C1038 C 0.59773 0.23699 0.5 0.0
C1039 C 0.57821 0.1991 0.4859 0.0
H1040 H 0.59923 0.29187 0.50459 0.0
H1041 H 0.62803 0.24998 0.50798 0.0
S1042 S 0.47832 0.14804 0.44894 0.0
N1043 N 0.48693 0.19272 0.45733 0.0
N1044 N 0.51752 0.14683 0.46216 0.0
C1045 C 0.53936 0.18372 0.47484 0.0
C1046 C 0.52288 0.20845 0.47219 0.0
C1047 C 0.33153 0.57496 0.48864 0.0
C1048 C 0.30797 0.53801 0.47382 0.0
C1049 C 0.37218 0.59103 0.49085 0.0
C1050 C 0.39015 0.57046 0.4785 0.0
H1051 H 0.31928 0.59357 0.49415 0.0
H1052 H 0.38996 0.62174 0.4973 0.0
S1053 S 0.34006 0.46959 0.44373 0.0
N1054 N 0.30434 0.4789 0.45144 0.0
N1055 N 0.38085 0.50895 0.45614 0.0
C1056 C 0.36625 0.53149 0.46793 0.0
C1057 C 0.32498 0.5153 0.46533 0.0
C1058 C 0.83874 0.36063 0.47852 0.0
C1059 C 0.82226 0.38441 0.48497 0.0
C1060 C 0.815 0.31987 0.47635 0.0
C1061 C 0.77437 0.30196 0.48114 0.0
H1062 H 0.86913 0.37382 0.47074 0.0
H1063 H 0.8278 0.30282 0.46719 0.0
S1064 S 0.71798 0.35082 0.50258 0.0
N1065 N 0.76374 0.38686 0.49959 0.0
N1066 N 0.71931 0.31011 0.49638 0.0
C1067 C 0.75841 0.32491 0.49192 0.0
C1068 C 0.78246 0.36637 0.49378 0.0
C1069 C 0.49599 0.80152 0.47853 0.0
C1070 C 0.47394 0.76053 0.47632 0.0
C1071 C 0.47733 0.82382 0.47987 0.0
C1072 C 0.43627 0.80555 0.47897 0.0
H1073 H 0.52754 0.81646 0.47572 0.0
H1074 H 0.495 0.8554 0.47797 0.0
S1075 S 0.3659 0.69899 0.47459 0.0
N1076 N 0.40942 0.70253 0.47517 0.0
N1077 N 0.37434 0.74434 0.4775 0.0
C1078 C 0.41411 0.76454 0.47956 0.0
C1079 C 0.43303 0.74196 0.47824 0.0
C1080 C 0.45739 0.6994 0.9958 0.0
C1081 C 0.49353 0.72243 0.97932 0.0
C1082 C 0.44086 0.65864 0.9979 0.0
C1083 C 0.46027 0.64022 0.98372 0.0
H1084 H 0.43962 0.71212 1.00301 0.0
H1085 H 0.41067 0.64133 1.0062 0.0
S1086 S 0.5598 0.6892 0.94593 0.0
N1087 N 0.55129 0.72526 0.95456 0.0
N1088 N 0.52075 0.64876 0.95937 0.0
C1089 C 0.49901 0.66377 0.9723 0.0
C1090 C 0.5155 0.70502 0.96968 0.0
C1091 C 0.851 0.49248 0.96994 0.0
C1092 C 0.83589 0.45348 0.98056 0.0
C1093 C 0.82686 0.50905 0.96839 0.0
C1094 C 0.7871 0.48702 0.97748 0.0
H1095 H 0.87993 0.50836 0.95854 0.0
H1096 H 0.83807 0.53739 0.95619 0.0
S1097 S 0.73535 0.38532 1.00942 0.0
N1098 N 0.7807 0.39516 1.00381 0.0
N1099 N 0.73499 0.426 1.00044 0.0
C1100 C 0.77327 0.45005 0.99241 0.0
C1101 C 0.79797 0.43335 0.99424 0.0
C1102 C 0.37296 0.78243 0.99803 0.0
C1103 C 0.39202 0.82126 0.98606 0.0
C1104 C 0.33214 0.75894 0.99565 0.0
C1105 C 0.30964 0.77377 0.98106 0.0
H1106 H 0.38979 0.76856 1.00489 0.0
H1107 H 0.31891 0.72793 1.00112 0.0
S1108 S 0.34479 0.87585 0.95371 0.0
N1109 N 0.3848 0.8755 0.96573 0.0
N1110 N 0.3081 0.83098 0.96042 0.0
C1111 C 0.32775 0.81383 0.97364 0.0
C1112 C 0.3691 0.83782 0.97653 0.0
C1113 C 0.52455 0.32353 0.96556 0.0
C1114 C 0.54269 0.30287 0.97725 0.0
C1115 C 0.54427 0.36445 0.96705 0.0
C1116 C 0.58298 0.38565 0.97939 0.0
H1117 H 0.49714 0.30841 0.95157 0.0
H1118 H 0.53128 0.37959 0.95418 0.0
S1119 S 0.63978 0.34392 1.01792 0.0
N1120 N 0.59796 0.30543 1.0066 0.0
N1121 N 0.63611 0.38267 1.00802 0.0
C1122 C 0.59902 0.365 0.99544 0.0
C1123 C 0.5785 0.32328 0.99459 0.0
C1124 C 0.24955 0.59486 0.99691 0.0
C1125 C 0.2113 0.57515 0.98351 0.0
C1126 C 0.27356 0.57809 0.99493 0.0
C1127 C 0.25983 0.54136 0.97939 0.0
H1128 H 0.26273 0.62526 1.00462 0.0
H1129 H 0.30427 0.59597 1.00153 0.0
S1130 S 0.15939 0.47461 0.94791 0.0
N1131 N 0.15862 0.51419 0.96054 0.0
N1132 N 0.20406 0.48307 0.95616 0.0
C1133 C 0.22017 0.51931 0.97047 0.0
C1134 C 0.19568 0.53611 0.97286 0.0
C1135 C 0.70685 0.27265 0.9943 0.0
C1136 C 0.72947 0.25706 0.9815 0.0
C1137 C 0.66591 0.2494 0.99636 0.0
C1138 C 0.64683 0.21001 0.98577 0.0
H1139 H 0.7202 0.30382 0.99867 0.0
H1140 H 0.6491 0.2636 1.00196 0.0
S1141 S 0.69417 0.15365 0.95864 0.0
N1142 N 0.7309 0.19871 0.96435 0.0
N1143 N 0.65409 0.15478 0.96882 0.0
C1144 C 0.66977 0.19296 0.97807 0.0
C1145 C 0.7112 0.21664 0.97564 0.0
C1146 C 0.3335 0.52233 0.61267 0.0
C1147 C 0.31408 0.54164 0.60048 0.0
C1148 C 0.37442 0.5408 0.61195 0.0
C1149 C 0.39699 0.57921 0.59929 0.0
H1150 H 0.31737 0.49496 0.62658 0.0
H1151 H 0.38847 0.52704 0.62538 0.0
S1152 S 0.35965 0.63828 0.55841 0.0
N1153 N 0.31977 0.59774 0.57001 0.0
N1154 N 0.397 0.63274 0.56895 0.0
C1155 C 0.37771 0.59601 0.58224 0.0
C1156 C 0.33596 0.5771 0.58284 0.0
C1157 C 0.79231 0.36766 0.57748 0.0
C1158 C 0.83092 0.38686 0.59003 0.0
C1159 C 0.76883 0.32684 0.57999 0.0
C1160 C 0.78344 0.30454 0.59537 0.0
H1161 H 0.77845 0.38441 0.57034 0.0
H1162 H 0.7379 0.31353 0.57416 0.0
S1163 S 0.88524 0.33992 0.62373 0.0
N1164 N 0.885 0.37982 0.61119 0.0
N1165 N 0.84044 0.30319 0.61687 0.0
C1166 C 0.82342 0.32272 0.60314 0.0
C1167 C 0.84742 0.36403 0.60005 0.0
C1168 C 0.50088 0.84657 0.61678 0.0
C1169 C 0.46325 0.83127 0.60244 0.0
C1170 C 0.51927 0.82408 0.61797 0.0
C1171 C 0.5007 0.78587 0.60455 0.0
H1172 H 0.51388 0.87385 0.63101 0.0
H1173 H 0.54585 0.83479 0.63299 0.0
S1174 S 0.40607 0.73598 0.55941 0.0
N1175 N 0.41124 0.77868 0.56999 0.0
N1176 N 0.44614 0.73644 0.57195 0.0
C1177 C 0.46623 0.77295 0.58552 0.0
C1178 C 0.44738 0.79581 0.58445 0.0
C1179 C 0.70669 0.45082 0.58193 0.0
C1180 C 0.73017 0.48712 0.598 0.0
C1181 C 0.66592 0.4344 0.58051 0.0
C1182 C 0.64791 0.45408 0.59495 0.0
H1183 H 0.71915 0.43288 0.57449 0.0
H1184 H 0.64834 0.40415 0.57244 0.0
S1185 S 0.69784 0.55369 0.63251 0.0
N1186 N 0.73366 0.54507 0.62304 0.0
N1187 N 0.65708 0.51463 0.61963 0.0
C1188 C 0.67175 0.4928 0.60621 0.0
C1189 C 0.71304 0.50923 0.60808 0.0
C1190 C 0.19573 0.66644 0.61142 0.0
C1191 C 0.21181 0.64421 0.59855 0.0
C1192 C 0.21795 0.70738 0.61229 0.0
C1193 C 0.25667 0.72716 0.60002 0.0
H1194 H 0.16795 0.6521 0.6249 0.0
H1195 H 0.20657 0.72321 0.62643 0.0
S1196 S 0.30827 0.68279 0.55724 0.0
N1197 N 0.26571 0.64502 0.56817 0.0
N1198 N 0.30715 0.72232 0.56896 0.0
C1199 C 0.27041 0.70566 0.58211 0.0
C1200 C 0.24795 0.66388 0.58157 0.0
C1201 C 0.53011 0.21724 0.60238 0.0
C1202 C 0.55172 0.2578 0.59675 0.0
C1203 C 0.54827 0.19456 0.60064 0.0
C1204 C 0.58855 0.21205 0.5937 0.0
H1205 H 0.50037 0.20384 0.61198 0.0
H1206 H 0.53198 0.16433 0.60906 0.0
S1207 S 0.65643 0.31645 0.5737 0.0
N1208 N 0.61377 0.31369 0.58006 0.0
N1209 N 0.64832 0.27131 0.57771 0.0
C1210 C 0.60916 0.25164 0.58403 0.0
C1211 C 0.59054 0.27457 0.5854 0.0
C1212 C 0.40657 0.11853 1.0202 0.0
C1213 C 0.42115 0.09764 1.00205 0.0
C1214 C 0.40538 0.11812 0.05646 0.0
C1215 C 0.41884 0.09689 0.07566 0.0
H1216 H 0.4024 0.14029 1.00683 0.0
H1217 H 0.40042 0.13965 0.06929 0.0
S1218 S 0.44694 0.02746 0.04004 0.0
N1219 N 0.43919 0.0474 1.00573 0.0
N1220 N 0.43691 0.04661 0.07362 0.0
C1221 C 0.42557 0.06995 0.05762 0.0
C1222 C 0.42682 0.07039 1.02077 0.0
C1223 C 0.36803 0.41935 1.02055 0.0
C1224 C 0.33581 0.4144 1.00097 0.0
C1225 C 0.36669 0.41877 0.05678 0.0
C1226 C 0.33311 0.41325 0.07438 0.0
H1227 H 0.39628 0.43038 1.00825 0.0
H1228 H 0.39399 0.42939 0.07068 0.0
S1229 S 0.23742 0.38576 1.03482 0.0
N1230 N 0.26663 0.39329 1.00171 0.0
N1231 N 0.26414 0.39226 0.06958 0.0
C1232 C 0.29865 0.4001 0.05506 0.0
C1233 C 0.3 0.40065 1.01824 0.0
C1234 C 0.95829 0.35713 0.05693 0.0
C1235 C 0.9298 0.3241 0.07492 0.0
C1236 C 0.95944 0.35765 1.02067 0.0
C1237 C 0.93202 0.32522 1.00133 0.0
H1238 H 0.97517 0.38467 0.07043 0.0
H1239 H 0.97715 0.3856 1.00798 0.0
S1240 S 0.86075 0.22795 1.03648 0.0
N1241 N 0.88101 0.25528 0.07092 0.0
N1242 N 0.88304 0.25634 1.00303 0.0
C1243 C 0.90931 0.2899 1.01917 0.0
C1244 C 0.9082 0.28933 0.05603 0.0
C1245 C 0.63007 0.90753 1.02246 0.0
C1246 C 0.61599 0.92844 1.00362 0.0
C1247 C 0.62936 0.90717 0.0587 0.0
C1248 C 0.61461 0.92777 0.07706 0.0
H1249 H 0.63501 0.88609 1.00944 0.0
H1250 H 0.63381 0.88549 0.07188 0.0
S1251 S 0.5881 0.99773 0.03987 0.0
N1252 N 0.59776 0.97859 1.00607 0.0
N1253 N 0.59646 0.97795 0.07398 0.0
C1254 C 0.60877 0.95507 0.05864 0.0
C1255 C 0.60948 0.95542 1.02181 0.0
C1256 C 0.6729 0.60462 1.01849 0.0
C1257 C 0.70645 0.60943 1.0013 0.0
C1258 C 0.67096 0.60398 0.05472 0.0
C1259 C 0.70253 0.60817 0.0749 0.0
H1260 H 0.64596 0.59479 1.0042 0.0
H1261 H 0.64262 0.5937 0.06662 0.0
S1262 S 0.80063 0.63366 0.04236 0.0
N1263 N 0.77476 0.62813 1.00722 0.0
N1264 N 0.77113 0.62695 0.07505 0.0
C1265 C 0.73838 0.62069 0.05805 0.0
C1266 C 0.74034 0.62132 1.02121 0.0
C1267 C 0.07603 0.66285 0.05448 0.0
C1268 C 0.10335 0.69577 0.07333 0.0
C1269 C 0.07699 0.66275 1.01826 0.0
C1270 C 0.10518 0.69564 0.99993 0.0
H1271 H 0.05869 0.63509 0.06756 0.0
H1272 H 0.06032 0.63494 1.00512 0.0
S1273 S 0.17346 0.79278 1.03704 0.0
N1274 N 0.15156 0.76487 0.07083 0.0
N1275 N 0.15331 0.76474 1.00295 0.0
C1276 C 0.12649 0.73082 1.01827 0.0
C1277 C 0.12553 0.73089 0.0551 0.0
C1278 C 0.96139 0.60531 0.55311 0.0
C1279 C 0.93408 0.61107 0.57176 0.0
C1280 C 0.96129 0.60517 0.51684 0.0
C1281 C 0.93379 0.61066 0.49816 0.0
H1282 H 0.97816 0.5943 0.56625 0.0
H1283 H 0.97795 0.59399 0.50378 0.0
S1284 S 0.86565 0.63983 0.53488 0.0
N1285 N 0.8865 0.63268 0.56886 0.0
N1286 N 0.88632 0.63241 0.50095 0.0
C1287 C 0.91248 0.62453 0.51649 0.0
C1288 C 0.91256 0.62467 0.55336 0.0
C1289 C 0.36672 0.95388 0.55513 0.0
C1290 C 0.3346 0.92711 0.57515 0.0
C1291 C 0.36479 0.95317 0.5189 0.0
C1292 C 0.33075 0.92548 0.50151 0.0
H1293 H 0.39519 0.97101 0.56713 0.0
H1294 H 0.39189 0.96969 0.50469 0.0
S1295 S 0.23562 0.85739 0.54221 0.0
N1296 N 0.26541 0.87899 0.57503 0.0
N1297 N 0.26182 0.87757 0.50718 0.0
C1298 C 0.29664 0.90416 0.52134 0.0
C1299 C 0.29858 0.9049 0.55819 0.0
C1300 C 0.42815 0.3634 0.52128 0.0
C1301 C 0.42251 0.32983 0.50358 0.0
C1302 C 0.42798 0.36442 0.55753 0.0
C1303 C 0.42232 0.33193 0.57714 0.0
H1304 H 0.43927 0.39084 0.5075 0.0
H1305 H 0.43904 0.39261 0.56994 0.0
S1306 S 0.39347 0.23363 0.5429 0.0
N1307 N 0.4009 0.26072 0.50821 0.0
N1308 N 0.40062 0.26264 0.57609 0.0
C1309 C 0.40862 0.29625 0.55965 0.0
C1310 C 0.40879 0.29521 0.52279 0.0
C1311 C 0.08217 0.42364 0.55759 0.0
C1312 C 0.11047 0.41896 0.57572 0.0
C1313 C 0.08058 0.42213 0.52136 0.0
C1314 C 0.10745 0.41619 0.50215 0.0
H1315 H 0.06557 0.43472 0.5709 0.0
H1316 H 0.06292 0.43225 0.50845 0.0
S1317 S 0.17885 0.39074 0.53783 0.0
N1318 N 0.15914 0.39881 0.57212 0.0
N1319 N 0.15622 0.39609 0.50427 0.0
C1320 C 0.13029 0.40395 0.52025 0.0
C1321 C 0.1319 0.40546 0.55708 0.0
C1322 C 0.66852 0.07047 0.52164 0.0
C1323 C 0.70124 0.09748 0.50235 0.0
C1324 C 0.66908 0.07145 0.5579 0.0
C1325 C 0.70244 0.09934 0.57594 0.0
H1326 H 0.64048 0.05336 0.50894 0.0
H1327 H 0.64146 0.05503 0.57139 0.0
S1328 S 0.79915 0.16681 0.53758 0.0
N1329 N 0.77053 0.14515 0.5041 0.0
N1330 N 0.77163 0.14691 0.572 0.0
C1331 C 0.7373 0.12037 0.55707 0.0
C1332 C 0.73671 0.1194 0.52021 0.0
C1333 C 0.63085 0.73524 0.55556 0.0
C1334 C 0.61926 0.70125 0.5754 0.0
C1335 C 0.629 0.73356 0.51932 0.0
C1336 C 0.61573 0.69789 0.50176 0.0
H1337 H 0.6349 0.76161 0.56798 0.0
H1338 H 0.63178 0.75873 0.50555 0.0
S1339 S 0.59436 0.60387 0.54138 0.0
N1340 N 0.60381 0.6336 0.57445 0.0
N1341 N 0.60046 0.63047 0.50661 0.0
C1342 C 0.61167 0.66591 0.52104 0.0
C1343 C 0.61352 0.66761 0.55789 0.0
loop_
_geom_bond_atom_site_label_1
_geom_bond_atom_site_label_2
_geom_bond_distance
_geom_bond_site_symmetry_2
_ccdc_geom_bond_type
O0 Zn1 1.953 . S
O0 C16 1.225 . S
Zn1 O0 1.953 . S
Zn1 O2 1.949 . S
Zn1 O8 1.919 . S
Zn1 O13 1.924 . S
O2 Zn1 1.949 . S
O2 Zn3 1.923 . S
O2 Zn4 1.950 . S
O2 Zn5 1.945 . S
Zn3 O2 1.923 . S
Zn3 O6 1.933 . S
Zn3 O9 1.941 . S
Zn3 O10 1.965 . S
Zn4 O2 1.950 . S
Zn4 O11 1.938 . S
Zn4 O12 1.906 . S
Zn4 O22 1.953 . S
Zn5 O2 1.945 . S
Zn5 O7 1.932 . S
Zn5 O14 1.977 . S
Zn5 O15 1.910 . S
O6 Zn3 1.933 . S
O6 C17 1.226 . S
O7 Zn5 1.932 . S
O7 C17 1.307 . S
O8 Zn1 1.919 . S
O8 C19 1.253 . S
O9 Zn3 1.941 . S
O9 C19 1.283 . S
O10 Zn3 1.965 . S
O10 C18 1.303 . S
O11 Zn4 1.938 . S
O11 C18 1.247 . S
O12 Zn4 1.906 . S
O12 C20 1.304 . S
O13 Zn1 1.924 . S
O13 C21 1.311 . S
O14 Zn5 1.977 . S
O14 C20 1.272 . S
O15 Zn5 1.910 . S
O15 C21 1.231 . S
C16 O0 1.225 . S
C16 O22 1.298 . S
C17 O6 1.226 . S
C17 O7 1.307 . S
C18 O10 1.303 . S
C18 O11 1.247 . S
C19 O8 1.253 . S
C19 O9 1.283 . S
C20 O12 1.304 . S
C20 O14 1.272 . S
C21 O13 1.311 . S
C21 O15 1.231 . S
O22 Zn4 1.953 . S
O22 C16 1.298 . S
O23 Zn24 1.953 . S
O23 C39 1.225 . S
Zn24 O23 1.953 . S
Zn24 O25 1.949 . S
Zn24 O31 1.919 . S
Zn24 O36 1.924 . S
O25 Zn24 1.949 . S
O25 Zn26 1.923 . S
O25 Zn27 1.950 . S
O25 Zn28 1.945 . S
Zn26 O25 1.923 . S
Zn26 O29 1.933 . S
Zn26 O32 1.941 . S
Zn26 O33 1.965 . S
Zn27 O25 1.950 . S
Zn27 O34 1.938 . S
Zn27 O35 1.906 . S
Zn27 O45 1.953 . S
Zn28 O25 1.945 . S
Zn28 O30 1.932 . S
Zn28 O37 1.977 . S
Zn28 O38 1.910 . S
O29 Zn26 1.933 . S
O29 C40 1.226 . S
O30 Zn28 1.932 . S
O30 C40 1.307 . S
O31 Zn24 1.919 . S
O31 C42 1.253 . S
O32 Zn26 1.941 . S
O32 C42 1.283 . S
O33 Zn26 1.965 . S
O33 C41 1.303 . S
O34 Zn27 1.938 . S
O34 C41 1.247 . S
O35 Zn27 1.906 . S
O35 C43 1.304 . S
O36 Zn24 1.924 . S
O36 C44 1.311 . S
O37 Zn28 1.977 . S
O37 C43 1.272 . S
O38 Zn28 1.910 . S
O38 C44 1.231 . S
C39 O23 1.225 . S
C39 O45 1.298 . S
C40 O29 1.226 . S
C40 O30 1.307 . S
C41 O33 1.303 . S
C41 O34 1.247 . S
C42 O31 1.253 . S
C42 O32 1.283 . S
C43 O35 1.304 . S
C43 O37 1.272 . S
C44 O36 1.311 . S
C44 O38 1.231 . S
O45 Zn27 1.953 . S
O45 C39 1.298 . S
O46 Zn47 1.953 . S
O46 C62 1.225 . S
Zn47 O46 1.953 . S
Zn47 O48 1.949 . S
Zn47 O54 1.919 . S
Zn47 O59 1.924 . S
O48 Zn47 1.949 . S
O48 Zn49 1.923 . S
O48 Zn50 1.950 . S
O48 Zn51 1.945 . S
Zn49 O48 1.923 . S
Zn49 O52 1.933 . S
Zn49 O55 1.941 . S
Zn49 O56 1.965 . S
Zn50 O48 1.950 . S
Zn50 O57 1.938 . S
Zn50 O58 1.906 . S
Zn50 O68 1.953 . S
Zn51 O48 1.945 . S
Zn51 O53 1.932 . S
Zn51 O60 1.977 . S
Zn51 O61 1.910 . S
O52 Zn49 1.933 . S
O52 C63 1.226 . S
O53 Zn51 1.932 . S
O53 C63 1.307 . S
O54 Zn47 1.919 . S
O54 C65 1.253 . S
O55 Zn49 1.941 . S
O55 C65 1.283 . S
O56 Zn49 1.965 . S
O56 C64 1.303 . S
O57 Zn50 1.938 . S
O57 C64 1.247 . S
O58 Zn50 1.906 . S
O58 C66 1.304 . S
O59 Zn47 1.924 . S
O59 C67 1.311 . S
O60 Zn51 1.977 . S
O60 C66 1.272 . S
O61 Zn51 1.910 . S
O61 C67 1.231 . S
C62 O46 1.225 . S
C62 O68 1.298 . S
C63 O52 1.226 . S
C63 O53 1.307 . S
C64 O56 1.303 . S
C64 O57 1.247 . S
C65 O54 1.253 . S
C65 O55 1.283 . S
C66 O58 1.304 . S
C66 O60 1.272 . S
C67 O59 1.311 . S
C67 O61 1.231 . S
O68 Zn50 1.953 . S
O68 C62 1.298 . S
O69 Zn70 1.953 . S
O69 C85 1.225 . S
Zn70 O69 1.953 . S
Zn70 O71 1.949 . S
Zn70 O77 1.919 . S
Zn70 O82 1.924 . S
O71 Zn70 1.949 . S
O71 Zn72 1.923 . S
O71 Zn73 1.950 . S
O71 Zn74 1.945 . S
Zn72 O71 1.923 . S
Zn72 O75 1.933 . S
Zn72 O78 1.941 . S
Zn72 O79 1.965 . S
Zn73 O71 1.950 . S
Zn73 O80 1.938 . S
Zn73 O81 1.906 . S
Zn73 O91 1.953 . S
Zn74 O71 1.945 . S
Zn74 O76 1.932 . S
Zn74 O83 1.977 . S
Zn74 O84 1.910 . S
O75 Zn72 1.933 . S
O75 C86 1.226 . S
O76 Zn74 1.932 . S
O76 C86 1.307 . S
O77 Zn70 1.919 . S
O77 C88 1.253 . S
O78 Zn72 1.941 . S
O78 C88 1.283 . S
O79 Zn72 1.965 . S
O79 C87 1.303 . S
O80 Zn73 1.938 . S
O80 C87 1.247 . S
O81 Zn73 1.906 . S
O81 C89 1.304 . S
O82 Zn70 1.924 . S
O82 C90 1.311 . S
O83 Zn74 1.977 . S
O83 C89 1.272 . S
O84 Zn74 1.910 . S
O84 C90 1.231 . S
C85 O69 1.225 . S
C85 O91 1.298 . S
C86 O75 1.226 . S
C86 O76 1.307 . S
C87 O79 1.303 . S
C87 O80 1.247 . S
C88 O77 1.253 . S
C88 O78 1.283 . S
C89 O81 1.304 . S
C89 O83 1.272 . S
C90 O82 1.311 . S
C90 O84 1.231 . S
O91 Zn73 1.953 . S
O91 C85 1.298 . S
O92 Zn93 1.953 . S
O92 C108 1.225 . S
Zn93 O92 1.953 . S
Zn93 O94 1.949 . S
Zn93 O100 1.919 . S
Zn93 O105 1.924 . S
O94 Zn93 1.949 . S
O94 Zn95 1.923 . S
O94 Zn96 1.950 . S
O94 Zn97 1.945 . S
Zn95 O94 1.923 . S
Zn95 O98 1.933 . S
Zn95 O101 1.941 . S
Zn95 O102 1.965 . S
Zn96 O94 1.950 . S
Zn96 O103 1.938 . S
Zn96 O104 1.906 . S
Zn96 O114 1.953 . S
Zn97 O94 1.945 . S
Zn97 O99 1.932 . S
Zn97 O106 1.977 . S
Zn97 O107 1.910 . S
O98 Zn95 1.933 . S
O98 C109 1.226 . S
O99 Zn97 1.932 . S
O99 C109 1.307 . S
O100 Zn93 1.919 . S
O100 C111 1.253 . S
O101 Zn95 1.941 . S
O101 C111 1.283 . S
O102 Zn95 1.965 . S
O102 C110 1.303 . S
O103 Zn96 1.938 . S
O103 C110 1.247 . S
O104 Zn96 1.906 . S
O104 C112 1.304 . S
O105 Zn93 1.924 . S
O105 C113 1.311 . S
O106 Zn97 1.977 . S
O106 C112 1.272 . S
O107 Zn97 1.910 . S
O107 C113 1.231 . S
C108 O92 1.225 . S
C108 O114 1.298 . S
C109 O98 1.226 . S
C109 O99 1.307 . S
C110 O102 1.303 . S
C110 O103 1.247 . S
C111 O100 1.253 . S
C111 O101 1.283 . S
C112 O104 1.304 . S
C112 O106 1.272 . S
C113 O105 1.311 . S
C113 O107 1.231 . S
O114 Zn96 1.953 . S
O114 C108 1.298 . S
O115 Zn116 1.953 . S
O115 C131 1.225 . S
Zn116 O115 1.953 . S
Zn116 O117 1.949 . S
Zn116 O123 1.919 . S
Zn116 O128 1.924 . S
O117 Zn116 1.949 . S
O117 Zn118 1.923 . S
O117 Zn119 1.950 . S
O117 Zn120 1.945 . S
Zn118 O117 1.923 . S
Zn118 O121 1.933 . S
Zn118 O124 1.941 . S
Zn118 O125 1.965 . S
Zn119 O117 1.950 . S
Zn119 O126 1.938 . S
Zn119 O127 1.906 . S
Zn119 O137 1.953 . S
Zn120 O117 1.945 . S
Zn120 O122 1.932 . S
Zn120 O129 1.977 . S
Zn120 O130 1.910 . S
O121 Zn118 1.933 . S
O121 C132 1.226 . S
O122 Zn120 1.932 . S
O122 C132 1.307 . S
O123 Zn116 1.919 . S
O123 C134 1.253 . S
O124 Zn118 1.941 . S
O124 C134 1.283 . S
O125 Zn118 1.965 . S
O125 C133 1.303 . S
O126 Zn119 1.938 . S
O126 C133 1.247 . S
O127 Zn119 1.906 . S
O127 C135 1.304 . S
O128 Zn116 1.924 . S
O128 C136 1.311 . S
O129 Zn120 1.977 . S
O129 C135 1.272 . S
O130 Zn120 1.910 . S
O130 C136 1.231 . S
C131 O115 1.225 . S
C131 O137 1.298 . S
C132 O121 1.226 . S
C132 O122 1.307 . S
C133 O125 1.303 . S
C133 O126 1.247 . S
C134 O123 1.253 . S
C134 O124 1.283 . S
C135 O127 1.304 . S
C135 O129 1.272 . S
C136 O128 1.311 . S
C136 O130 1.231 . S
O137 Zn119 1.953 . S
O137 C131 1.298 . S
O138 Zn139 1.953 . S
O138 C154 1.225 . S
Zn139 O138 1.953 . S
Zn139 O140 1.949 . S
Zn139 O146 1.919 . S
Zn139 O151 1.924 . S
O140 Zn139 1.949 . S
O140 Zn141 1.923 . S
O140 Zn142 1.950 . S
O140 Zn143 1.945 . S
Zn141 O140 1.923 . S
Zn141 O144 1.933 . S
Zn141 O147 1.941 . S
Zn141 O148 1.965 . S
Zn142 O140 1.950 . S
Zn142 O149 1.938 . S
Zn142 O150 1.906 . S
Zn142 O160 1.953 . S
Zn143 O140 1.945 . S
Zn143 O145 1.932 . S
Zn143 O152 1.977 . S
Zn143 O153 1.910 . S
O144 Zn141 1.933 . S
O144 C155 1.226 . S
O145 Zn143 1.932 . S
O145 C155 1.307 . S
O146 Zn139 1.919 . S
O146 C157 1.253 . S
O147 Zn141 1.941 . S
O147 C157 1.283 . S
O148 Zn141 1.965 . S
O148 C156 1.303 . S
O149 Zn142 1.938 . S
O149 C156 1.247 . S
O150 Zn142 1.906 . S
O150 C158 1.304 . S
O151 Zn139 1.924 . S
O151 C159 1.311 . S
O152 Zn143 1.977 . S
O152 C158 1.272 . S
O153 Zn143 1.910 . S
O153 C159 1.231 . S
C154 O138 1.225 . S
C154 O160 1.298 . S
C155 O144 1.226 . S
C155 O145 1.307 . S
C156 O148 1.303 . S
C156 O149 1.247 . S
C157 O146 1.253 . S
C157 O147 1.283 . S
C158 O150 1.304 . S
C158 O152 1.272 . S
C159 O151 1.311 . S
C159 O153 1.231 . S
O160 Zn142 1.953 . S
O160 C154 1.298 . S
O161 Zn162 1.953 . S
O161 C177 1.225 . S
Zn162 O161 1.953 . S
Zn162 O163 1.949 . S
Zn162 O169 1.919 . S
Zn162 O174 1.924 . S
O163 Zn162 1.949 . S
O163 Zn164 1.923 . S
O163 Zn165 1.950 . S
O163 Zn166 1.945 . S
Zn164 O163 1.923 . S
Zn164 O167 1.933 . S
Zn164 O170 1.941 . S
Zn164 O171 1.965 . S
Zn165 O163 1.950 . S
Zn165 O172 1.938 . S
Zn165 O173 1.906 . S
Zn165 O183 1.953 . S
Zn166 O163 1.945 . S
Zn166 O168 1.932 . S
Zn166 O175 1.977 . S
Zn166 O176 1.910 . S
O167 Zn164 1.933 . S
O167 C178 1.226 . S
O168 Zn166 1.932 . S
O168 C178 1.307 . S
O169 Zn162 1.919 . S
O169 C180 1.253 . S
O170 Zn164 1.941 . S
O170 C180 1.283 . S
O171 Zn164 1.965 . S
O171 C179 1.303 . S
O172 Zn165 1.938 . S
O172 C179 1.247 . S
O173 Zn165 1.906 . S
O173 C181 1.304 . S
O174 Zn162 1.924 . S
O174 C182 1.311 . S
O175 Zn166 1.977 . S
O175 C181 1.272 . S
O176 Zn166 1.910 . S
O176 C182 1.231 . S
C177 O161 1.225 . S
C177 O183 1.298 . S
C178 O167 1.226 . S
C178 O168 1.307 . S
C179 O171 1.303 . S
C179 O172 1.247 . S
C180 O169 1.253 . S
C180 O170 1.283 . S
C181 O173 1.304 . S
C181 O175 1.272 . S
C182 O174 1.311 . S
C182 O176 1.231 . S
O183 Zn165 1.953 . S
O183 C177 1.298 . S
O184 Zn185 1.953 . S
O184 C200 1.225 . S
Zn185 O184 1.953 . S
Zn185 O186 1.949 . S
Zn185 O192 1.919 . S
Zn185 O197 1.924 . S
O186 Zn185 1.949 . S
O186 Zn187 1.923 . S
O186 Zn188 1.950 . S
O186 Zn189 1.945 . S
Zn187 O186 1.923 . S
Zn187 O190 1.933 . S
Zn187 O193 1.941 . S
Zn187 O194 1.965 . S
Zn188 O186 1.950 . S
Zn188 O195 1.938 . S
Zn188 O196 1.906 . S
Zn188 O206 1.953 . S
Zn189 O186 1.945 . S
Zn189 O191 1.932 . S
Zn189 O198 1.977 . S
Zn189 O199 1.910 . S
O190 Zn187 1.933 . S
O190 C201 1.226 . S
O191 Zn189 1.932 . S
O191 C201 1.307 . S
O192 Zn185 1.919 . S
O192 C203 1.253 . S
O193 Zn187 1.941 . S
O193 C203 1.283 . S
O194 Zn187 1.965 . S
O194 C202 1.303 . S
O195 Zn188 1.938 . S
O195 C202 1.247 . S
O196 Zn188 1.906 . S
O196 C204 1.304 . S
O197 Zn185 1.924 . S
O197 C205 1.311 . S
O198 Zn189 1.977 . S
O198 C204 1.272 . S
O199 Zn189 1.910 . S
O199 C205 1.231 . S
C200 O184 1.225 . S
C200 O206 1.298 . S
C201 O190 1.226 . S
C201 O191 1.307 . S
C202 O194 1.303 . S
C202 O195 1.247 . S
C203 O192 1.253 . S
C203 O193 1.283 . S
C204 O196 1.304 . S
C204 O198 1.272 . S
C205 O197 1.311 . S
C205 O199 1.231 . S
O206 Zn188 1.953 . S
O206 C200 1.298 . S
O207 Zn208 1.953 . S
O207 C223 1.225 . S
Zn208 O207 1.953 . S
Zn208 O209 1.949 . S
Zn208 O215 1.919 . S
Zn208 O220 1.924 . S
O209 Zn208 1.949 . S
O209 Zn210 1.923 . S
O209 Zn211 1.950 . S
O209 Zn212 1.945 . S
Zn210 O209 1.923 . S
Zn210 O213 1.933 . S
Zn210 O216 1.941 . S
Zn210 O217 1.965 . S
Zn211 O209 1.950 . S
Zn211 O218 1.938 . S
Zn211 O219 1.906 . S
Zn211 O229 1.953 . S
Zn212 O209 1.945 . S
Zn212 O214 1.932 . S
Zn212 O221 1.977 . S
Zn212 O222 1.910 . S
O213 Zn210 1.933 . S
O213 C224 1.226 . S
O214 Zn212 1.932 . S
O214 C224 1.307 . S
O215 Zn208 1.919 . S
O215 C226 1.253 . S
O216 Zn210 1.941 . S
O216 C226 1.283 . S
O217 Zn210 1.965 . S
O217 C225 1.303 . S
O218 Zn211 1.938 . S
O218 C225 1.247 . S
O219 Zn211 1.906 . S
O219 C227 1.304 . S
O220 Zn208 1.924 . S
O220 C228 1.311 . S
O221 Zn212 1.977 . S
O221 C227 1.272 . S
O222 Zn212 1.910 . S
O222 C228 1.231 . S
C223 O207 1.225 . S
C223 O229 1.298 . S
C224 O213 1.226 . S
C224 O214 1.307 . S
C225 O217 1.303 . S
C225 O218 1.247 . S
C226 O215 1.253 . S
C226 O216 1.283 . S
C227 O219 1.304 . S
C227 O221 1.272 . S
C228 O220 1.311 . S
C228 O222 1.231 . S
O229 Zn211 1.953 . S
O229 C223 1.298 . S
O230 Zn231 1.953 . S
O230 C246 1.225 . S
Zn231 O230 1.953 . S
Zn231 O232 1.949 . S
Zn231 O238 1.919 . S
Zn231 O243 1.924 . S
O232 Zn231 1.949 . S
O232 Zn233 1.923 . S
O232 Zn234 1.950 . S
O232 Zn235 1.945 . S
Zn233 O232 1.923 . S
Zn233 O236 1.933 . S
Zn233 O239 1.941 . S
Zn233 O240 1.965 . S
Zn234 O232 1.950 . S
Zn234 O241 1.938 . S
Zn234 O242 1.906 . S
Zn234 O252 1.953 . S
Zn235 O232 1.945 . S
Zn235 O237 1.932 . S
Zn235 O244 1.977 . S
Zn235 O245 1.910 . S
O236 Zn233 1.933 . S
O236 C247 1.226 . S
O237 Zn235 1.932 . S
O237 C247 1.307 . S
O238 Zn231 1.919 . S
O238 C249 1.253 . S
O239 Zn233 1.941 . S
O239 C249 1.283 . S
O240 Zn233 1.965 . S
O240 C248 1.303 . S
O241 Zn234 1.938 . S
O241 C248 1.247 . S
O242 Zn234 1.906 . S
O242 C250 1.304 . S
O243 Zn231 1.924 . S
O243 C251 1.311 . S
O244 Zn235 1.977 . S
O244 C250 1.272 . S
O245 Zn235 1.910 . S
O245 C251 1.231 . S
C246 O230 1.225 . S
C246 O252 1.298 . S
C247 O236 1.226 . S
C247 O237 1.307 . S
C248 O240 1.303 . S
C248 O241 1.247 . S
C249 O238 1.253 . S
C249 O239 1.283 . S
C250 O242 1.304 . S
C250 O244 1.272 . S
C251 O243 1.311 . S
C251 O245 1.231 . S
O252 Zn234 1.953 . S
O252 C246 1.298 . S
O253 Zn254 1.953 . S
O253 C269 1.225 . S
Zn254 O253 1.953 . S
Zn254 O255 1.949 . S
Zn254 O261 1.919 . S
Zn254 O266 1.924 . S
O255 Zn254 1.949 . S
O255 Zn256 1.923 . S
O255 Zn257 1.950 . S
O255 Zn258 1.945 . S
Zn256 O255 1.923 . S
Zn256 O259 1.933 . S
Zn256 O262 1.941 . S
Zn256 O263 1.965 . S
Zn257 O255 1.950 . S
Zn257 O264 1.938 . S
Zn257 O265 1.906 . S
Zn257 O275 1.953 . S
Zn258 O255 1.945 . S
Zn258 O260 1.932 . S
Zn258 O267 1.977 . S
Zn258 O268 1.910 . S
O259 Zn256 1.933 . S
O259 C270 1.226 . S
O260 Zn258 1.932 . S
O260 C270 1.307 . S
O261 Zn254 1.919 . S
O261 C272 1.253 . S
O262 Zn256 1.941 . S
O262 C272 1.283 . S
O263 Zn256 1.965 . S
O263 C271 1.303 . S
O264 Zn257 1.938 . S
O264 C271 1.247 . S
O265 Zn257 1.906 . S
O265 C273 1.304 . S
O266 Zn254 1.924 . S
O266 C274 1.311 . S
O267 Zn258 1.977 . S
O267 C273 1.272 . S
O268 Zn258 1.910 . S
O268 C274 1.231 . S
C269 O253 1.225 . S
C269 O275 1.298 . S
C270 O259 1.226 . S
C270 O260 1.307 . S
C271 O263 1.303 . S
C271 O264 1.247 . S
C272 O261 1.253 . S
C272 O262 1.283 . S
C273 O265 1.304 . S
C273 O267 1.272 . S
C274 O266 1.311 . S
C274 O268 1.231 . S
O275 Zn257 1.953 . S
O275 C269 1.298 . S
O276 Zn277 1.953 . S
O276 C292 1.225 . S
Zn277 O276 1.953 . S
Zn277 O278 1.949 . S
Zn277 O284 1.919 . S
Zn277 O289 1.924 . S
O278 Zn277 1.949 . S
O278 Zn279 1.923 . S
O278 Zn280 1.950 . S
O278 Zn281 1.945 . S
Zn279 O278 1.923 . S
Zn279 O282 1.933 . S
Zn279 O285 1.941 . S
Zn279 O286 1.965 . S
Zn280 O278 1.950 . S
Zn280 O287 1.938 . S
Zn280 O288 1.906 . S
Zn280 O298 1.953 . S
Zn281 O278 1.945 . S
Zn281 O283 1.932 . S
Zn281 O290 1.977 . S
Zn281 O291 1.910 . S
O282 Zn279 1.933 . S
O282 C293 1.226 . S
O283 Zn281 1.932 . S
O283 C293 1.307 . S
O284 Zn277 1.919 . S
O284 C295 1.253 . S
O285 Zn279 1.941 . S
O285 C295 1.283 . S
O286 Zn279 1.965 . S
O286 C294 1.303 . S
O287 Zn280 1.938 . S
O287 C294 1.247 . S
O288 Zn280 1.906 . S
O288 C296 1.304 . S
O289 Zn277 1.924 . S
O289 C297 1.311 . S
O290 Zn281 1.977 . S
O290 C296 1.272 . S
O291 Zn281 1.910 . S
O291 C297 1.231 . S
C292 O276 1.225 . S
C292 O298 1.298 . S
C293 O282 1.226 . S
C293 O283 1.307 . S
C294 O286 1.303 . S
C294 O287 1.247 . S
C295 O284 1.253 . S
C295 O285 1.283 . S
C296 O288 1.304 . S
C296 O290 1.272 . S
C297 O289 1.311 . S
C297 O291 1.231 . S
O298 Zn280 1.953 . S
O298 C292 1.298 . S
O299 Zn300 1.953 . S
O299 C315 1.225 . S
Zn300 O299 1.953 . S
Zn300 O301 1.949 . S
Zn300 O307 1.919 . S
Zn300 O312 1.924 . S
O301 Zn300 1.949 . S
O301 Zn302 1.923 . S
O301 Zn303 1.950 . S
O301 Zn304 1.945 . S
Zn302 O301 1.923 . S
Zn302 O305 1.933 . S
Zn302 O308 1.941 . S
Zn302 O309 1.965 . S
Zn303 O301 1.950 . S
Zn303 O310 1.938 . S
Zn303 O311 1.906 . S
Zn303 O321 1.953 . S
Zn304 O301 1.945 . S
Zn304 O306 1.932 . S
Zn304 O313 1.977 . S
Zn304 O314 1.910 . S
O305 Zn302 1.933 . S
O305 C316 1.226 . S
O306 Zn304 1.932 . S
O306 C316 1.307 . S
O307 Zn300 1.919 . S
O307 C318 1.253 . S
O308 Zn302 1.941 . S
O308 C318 1.283 . S
O309 Zn302 1.965 . S
O309 C317 1.303 . S
O310 Zn303 1.938 . S
O310 C317 1.247 . S
O311 Zn303 1.906 . S
O311 C319 1.304 . S
O312 Zn300 1.924 . S
O312 C320 1.311 . S
O313 Zn304 1.977 . S
O313 C319 1.272 . S
O314 Zn304 1.910 . S
O314 C320 1.231 . S
C315 O299 1.225 . S
C315 O321 1.298 . S
C316 O305 1.226 . S
C316 O306 1.307 . S
C317 O309 1.303 . S
C317 O310 1.247 . S
C318 O307 1.253 . S
C318 O308 1.283 . S
C319 O311 1.304 . S
C319 O313 1.272 . S
C320 O312 1.311 . S
C320 O314 1.231 . S
O321 Zn303 1.953 . S
O321 C315 1.298 . S
O322 Zn323 1.953 . S
O322 C338 1.225 . S
Zn323 O322 1.953 . S
Zn323 O324 1.949 . S
Zn323 O330 1.919 . S
Zn323 O335 1.924 . S
O324 Zn323 1.949 . S
O324 Zn325 1.923 . S
O324 Zn326 1.950 . S
O324 Zn327 1.945 . S
Zn325 O324 1.923 . S
Zn325 O328 1.933 . S
Zn325 O331 1.941 . S
Zn325 O332 1.965 . S
Zn326 O324 1.950 . S
Zn326 O333 1.938 . S
Zn326 O334 1.906 . S
Zn326 O344 1.953 . S
Zn327 O324 1.945 . S
Zn327 O329 1.932 . S
Zn327 O336 1.977 . S
Zn327 O337 1.910 . S
O328 Zn325 1.933 . S
O328 C339 1.226 . S
O329 Zn327 1.932 . S
O329 C339 1.307 . S
O330 Zn323 1.919 . S
O330 C341 1.253 . S
O331 Zn325 1.941 . S
O331 C341 1.283 . S
O332 Zn325 1.965 . S
O332 C340 1.303 . S
O333 Zn326 1.938 . S
O333 C340 1.247 . S
O334 Zn326 1.906 . S
O334 C342 1.304 . S
O335 Zn323 1.924 . S
O335 C343 1.311 . S
O336 Zn327 1.977 . S
O336 C342 1.272 . S
O337 Zn327 1.910 . S
O337 C343 1.231 . S
C338 O322 1.225 . S
C338 O344 1.298 . S
C339 O328 1.226 . S
C339 O329 1.307 . S
C340 O332 1.303 . S
C340 O333 1.247 . S
C341 O330 1.253 . S
C341 O331 1.283 . S
C342 O334 1.304 . S
C342 O336 1.272 . S
C343 O335 1.311 . S
C343 O337 1.231 . S
O344 Zn326 1.953 . S
O344 C338 1.298 . S
O345 Zn346 1.953 . S
O345 C361 1.225 . S
Zn346 O345 1.953 . S
Zn346 O347 1.949 . S
Zn346 O353 1.919 . S
Zn346 O358 1.924 . S
O347 Zn346 1.949 . S
O347 Zn348 1.923 . S
O347 Zn349 1.950 . S
O347 Zn350 1.945 . S
Zn348 O347 1.923 . S
Zn348 O351 1.933 . S
Zn348 O354 1.941 . S
Zn348 O355 1.965 . S
Zn349 O347 1.950 . S
Zn349 O356 1.938 . S
Zn349 O357 1.906 . S
Zn349 O367 1.953 . S
Zn350 O347 1.945 . S
Zn350 O352 1.932 . S
Zn350 O359 1.977 . S
Zn350 O360 1.910 . S
O351 Zn348 1.933 . S
O351 C362 1.226 . S
O352 Zn350 1.932 . S
O352 C362 1.307 . S
O353 Zn346 1.919 . S
O353 C364 1.253 . S
O354 Zn348 1.941 . S
O354 C364 1.283 . S
O355 Zn348 1.965 . S
O355 C363 1.303 . S
O356 Zn349 1.938 . S
O356 C363 1.247 . S
O357 Zn349 1.906 . S
O357 C365 1.304 . S
O358 Zn346 1.924 . S
O358 C366 1.311 . S
O359 Zn350 1.977 . S
O359 C365 1.272 . S
O360 Zn350 1.910 . S
O360 C366 1.231 . S
C361 O345 1.225 . S
C361 O367 1.298 . S
C362 O351 1.226 . S
C362 O352 1.307 . S
C363 O355 1.303 . S
C363 O356 1.247 . S
C364 O353 1.253 . S
C364 O354 1.283 . S
C365 O357 1.304 . S
C365 O359 1.272 . S
C366 O358 1.311 . S
C366 O360 1.231 . S
O367 Zn349 1.953 . S
O367 C361 1.298 . S
O368 Zn369 1.953 . S
O368 C384 1.225 . S
Zn369 O368 1.953 . S
Zn369 O370 1.949 . S
Zn369 O376 1.919 . S
Zn369 O381 1.924 . S
O370 Zn369 1.949 . S
O370 Zn371 1.923 . S
O370 Zn372 1.950 . S
O370 Zn373 1.945 . S
Zn371 O370 1.923 . S
Zn371 O374 1.933 . S
Zn371 O377 1.941 . S
Zn371 O378 1.965 . S
Zn372 O370 1.950 . S
Zn372 O379 1.938 . S
Zn372 O380 1.906 . S
Zn372 O390 1.953 . S
Zn373 O370 1.945 . S
Zn373 O375 1.932 . S
Zn373 O382 1.977 . S
Zn373 O383 1.910 . S
O374 Zn371 1.933 . S
O374 C385 1.226 . S
O375 Zn373 1.932 . S
O375 C385 1.307 . S
O376 Zn369 1.919 . S
O376 C387 1.253 . S
O377 Zn371 1.941 . S
O377 C387 1.283 . S
O378 Zn371 1.965 . S
O378 C386 1.303 . S
O379 Zn372 1.938 . S
O379 C386 1.247 . S
O380 Zn372 1.906 . S
O380 C388 1.304 . S
O381 Zn369 1.924 . S
O381 C389 1.311 . S
O382 Zn373 1.977 . S
O382 C388 1.272 . S
O383 Zn373 1.910 . S
O383 C389 1.231 . S
C384 O368 1.225 . S
C384 O390 1.298 . S
C385 O374 1.226 . S
C385 O375 1.307 . S
C386 O378 1.303 . S
C386 O379 1.247 . S
C387 O376 1.253 . S
C387 O377 1.283 . S
C388 O380 1.304 . S
C388 O382 1.272 . S
C389 O381 1.311 . S
C389 O383 1.231 . S
O390 Zn372 1.953 . S
O390 C384 1.298 . S
O391 Zn392 1.953 . S
O391 C407 1.225 . S
Zn392 O391 1.953 . S
Zn392 O393 1.949 . S
Zn392 O399 1.919 . S
Zn392 O404 1.924 . S
O393 Zn392 1.949 . S
O393 Zn394 1.923 . S
O393 Zn395 1.950 . S
O393 Zn396 1.945 . S
Zn394 O393 1.923 . S
Zn394 O397 1.933 . S
Zn394 O400 1.941 . S
Zn394 O401 1.965 . S
Zn395 O393 1.950 . S
Zn395 O402 1.938 . S
Zn395 O403 1.906 . S
Zn395 O413 1.953 . S
Zn396 O393 1.945 . S
Zn396 O398 1.932 . S
Zn396 O405 1.977 . S
Zn396 O406 1.910 . S
O397 Zn394 1.933 . S
O397 C408 1.226 . S
O398 Zn396 1.932 . S
O398 C408 1.307 . S
O399 Zn392 1.919 . S
O399 C410 1.253 . S
O400 Zn394 1.941 . S
O400 C410 1.283 . S
O401 Zn394 1.965 . S
O401 C409 1.303 . S
O402 Zn395 1.938 . S
O402 C409 1.247 . S
O403 Zn395 1.906 . S
O403 C411 1.304 . S
O404 Zn392 1.924 . S
O404 C412 1.311 . S
O405 Zn396 1.977 . S
O405 C411 1.272 . S
O406 Zn396 1.910 . S
O406 C412 1.231 . S
C407 O391 1.225 . S
C407 O413 1.298 . S
C408 O397 1.226 . S
C408 O398 1.307 . S
C409 O401 1.303 . S
C409 O402 1.247 . S
C410 O399 1.253 . S
C410 O400 1.283 . S
C411 O403 1.304 . S
C411 O405 1.272 . S
C412 O404 1.311 . S
C412 O406 1.231 . S
O413 Zn395 1.953 . S
O413 C407 1.298 . S
O414 Zn415 1.953 . S
O414 C430 1.225 . S
Zn415 O414 1.953 . S
Zn415 O416 1.949 . S
Zn415 O422 1.919 . S
Zn415 O427 1.924 . S
O416 Zn415 1.949 . S
O416 Zn417 1.923 . S
O416 Zn418 1.950 . S
O416 Zn419 1.945 . S
Zn417 O416 1.923 . S
Zn417 O420 1.933 . S
Zn417 O423 1.941 . S
Zn417 O424 1.965 . S
Zn418 O416 1.950 . S
Zn418 O425 1.938 . S
Zn418 O426 1.906 . S
Zn418 O436 1.953 . S
Zn419 O416 1.945 . S
Zn419 O421 1.932 . S
Zn419 O428 1.977 . S
Zn419 O429 1.910 . S
O420 Zn417 1.933 . S
O420 C431 1.226 . S
O421 Zn419 1.932 . S
O421 C431 1.307 . S
O422 Zn415 1.919 . S
O422 C433 1.253 . S
O423 Zn417 1.941 . S
O423 C433 1.283 . S
O424 Zn417 1.965 . S
O424 C432 1.303 . S
O425 Zn418 1.938 . S
O425 C432 1.247 . S
O426 Zn418 1.906 . S
O426 C434 1.304 . S
O427 Zn415 1.924 . S
O427 C435 1.311 . S
O428 Zn419 1.977 . S
O428 C434 1.272 . S
O429 Zn419 1.910 . S
O429 C435 1.231 . S
C430 O414 1.225 . S
C430 O436 1.298 . S
C431 O420 1.226 . S
C431 O421 1.307 . S
C432 O424 1.303 . S
C432 O425 1.247 . S
C433 O422 1.253 . S
C433 O423 1.283 . S
C434 O426 1.304 . S
C434 O428 1.272 . S
C435 O427 1.311 . S
C435 O429 1.231 . S
O436 Zn418 1.953 . S
O436 C430 1.298 . S
O437 Zn438 1.953 . S
O437 C453 1.225 . S
Zn438 O437 1.953 . S
Zn438 O439 1.949 . S
Zn438 O445 1.919 . S
Zn438 O450 1.924 . S
O439 Zn438 1.949 . S
O439 Zn440 1.923 . S
O439 Zn441 1.950 . S
O439 Zn442 1.945 . S
Zn440 O439 1.923 . S
Zn440 O443 1.933 . S
Zn440 O446 1.941 . S
Zn440 O447 1.965 . S
Zn441 O439 1.950 . S
Zn441 O448 1.938 . S
Zn441 O449 1.906 . S
Zn441 O459 1.953 . S
Zn442 O439 1.945 . S
Zn442 O444 1.932 . S
Zn442 O451 1.977 . S
Zn442 O452 1.910 . S
O443 Zn440 1.933 . S
O443 C454 1.226 . S
O444 Zn442 1.932 . S
O444 C454 1.307 . S
O445 Zn438 1.919 . S
O445 C456 1.253 . S
O446 Zn440 1.941 . S
O446 C456 1.283 . S
O447 Zn440 1.965 . S
O447 C455 1.303 . S
O448 Zn441 1.938 . S
O448 C455 1.247 . S
O449 Zn441 1.906 . S
O449 C457 1.304 . S
O450 Zn438 1.924 . S
O450 C458 1.311 . S
O451 Zn442 1.977 . S
O451 C457 1.272 . S
O452 Zn442 1.910 . S
O452 C458 1.231 . S
C453 O437 1.225 . S
C453 O459 1.298 . S
C454 O443 1.226 . S
C454 O444 1.307 . S
C455 O447 1.303 . S
C455 O448 1.247 . S
C456 O445 1.253 . S
C456 O446 1.283 . S
C457 O449 1.304 . S
C457 O451 1.272 . S
C458 O450 1.311 . S
C458 O452 1.231 . S
O459 Zn441 1.953 . S
O459 C453 1.298 . S
O460 Zn461 1.953 . S
O460 C476 1.225 . S
Zn461 O460 1.953 . S
Zn461 O462 1.949 . S
Zn461 O468 1.919 . S
Zn461 O473 1.924 . S
O462 Zn461 1.949 . S
O462 Zn463 1.923 . S
O462 Zn464 1.950 . S
O462 Zn465 1.945 . S
Zn463 O462 1.923 . S
Zn463 O466 1.933 . S
Zn463 O469 1.941 . S
Zn463 O470 1.965 . S
Zn464 O462 1.950 . S
Zn464 O471 1.938 . S
Zn464 O472 1.906 . S
Zn464 O482 1.953 . S
Zn465 O462 1.945 . S
Zn465 O467 1.932 . S
Zn465 O474 1.977 . S
Zn465 O475 1.910 . S
O466 Zn463 1.933 . S
O466 C477 1.226 . S
O467 Zn465 1.932 . S
O467 C477 1.307 . S
O468 Zn461 1.919 . S
O468 C479 1.253 . S
O469 Zn463 1.941 . S
O469 C479 1.283 . S
O470 Zn463 1.965 . S
O470 C478 1.303 . S
O471 Zn464 1.938 . S
O471 C478 1.247 . S
O472 Zn464 1.906 . S
O472 C480 1.304 . S
O473 Zn461 1.924 . S
O473 C481 1.311 . S
O474 Zn465 1.977 . S
O474 C480 1.272 . S
O475 Zn465 1.910 . S
O475 C481 1.231 . S
C476 O460 1.225 . S
C476 O482 1.298 . S
C477 O466 1.226 . S
C477 O467 1.307 . S
C478 O470 1.303 . S
C478 O471 1.247 . S
C479 O468 1.253 . S
C479 O469 1.283 . S
C480 O472 1.304 . S
C480 O474 1.272 . S
C481 O473 1.311 . S
C481 O475 1.231 . S
O482 Zn464 1.953 . S
O482 C476 1.298 . S
O483 Zn484 1.953 . S
O483 C499 1.225 . S
Zn484 O483 1.953 . S
Zn484 O485 1.949 . S
Zn484 O491 1.919 . S
Zn484 O496 1.924 . S
O485 Zn484 1.949 . S
O485 Zn486 1.923 . S
O485 Zn487 1.950 . S
O485 Zn488 1.945 . S
Zn486 O485 1.923 . S
Zn486 O489 1.933 . S
Zn486 O492 1.941 . S
Zn486 O493 1.965 . S
Zn487 O485 1.950 . S
Zn487 O494 1.938 . S
Zn487 O495 1.906 . S
Zn487 O505 1.953 . S
Zn488 O485 1.945 . S
Zn488 O490 1.932 . S
Zn488 O497 1.977 . S
Zn488 O498 1.910 . S
O489 Zn486 1.933 . S
O489 C500 1.226 . S
O490 Zn488 1.932 . S
O490 C500 1.307 . S
O491 Zn484 1.919 . S
O491 C502 1.253 . S
O492 Zn486 1.941 . S
O492 C502 1.283 . S
O493 Zn486 1.965 . S
O493 C501 1.303 . S
O494 Zn487 1.938 . S
O494 C501 1.247 . S
O495 Zn487 1.906 . S
O495 C503 1.304 . S
O496 Zn484 1.924 . S
O496 C504 1.311 . S
O497 Zn488 1.977 . S
O497 C503 1.272 . S
O498 Zn488 1.910 . S
O498 C504 1.231 . S
C499 O483 1.225 . S
C499 O505 1.298 . S
C500 O489 1.226 . S
C500 O490 1.307 . S
C501 O493 1.303 . S
C501 O494 1.247 . S
C502 O491 1.253 . S
C502 O492 1.283 . S
C503 O495 1.304 . S
C503 O497 1.272 . S
C504 O496 1.311 . S
C504 O498 1.231 . S
O505 Zn487 1.953 . S
O505 C499 1.298 . S
O506 Zn507 1.953 . S
O506 C522 1.225 . S
Zn507 O506 1.953 . S
Zn507 O508 1.949 . S
Zn507 O514 1.919 . S
Zn507 O519 1.924 . S
O508 Zn507 1.949 . S
O508 Zn509 1.923 . S
O508 Zn510 1.950 . S
O508 Zn511 1.945 . S
Zn509 O508 1.923 . S
Zn509 O512 1.933 . S
Zn509 O515 1.941 . S
Zn509 O516 1.965 . S
Zn510 O508 1.950 . S
Zn510 O517 1.938 . S
Zn510 O518 1.906 . S
Zn510 O528 1.953 . S
Zn511 O508 1.945 . S
Zn511 O513 1.932 . S
Zn511 O520 1.977 . S
Zn511 O521 1.910 . S
O512 Zn509 1.933 . S
O512 C523 1.226 . S
O513 Zn511 1.932 . S
O513 C523 1.307 . S
O514 Zn507 1.919 . S
O514 C525 1.253 . S
O515 Zn509 1.941 . S
O515 C525 1.283 . S
O516 Zn509 1.965 . S
O516 C524 1.303 . S
O517 Zn510 1.938 . S
O517 C524 1.247 . S
O518 Zn510 1.906 . S
O518 C526 1.304 . S
O519 Zn507 1.924 . S
O519 C527 1.311 . S
O520 Zn511 1.977 . S
O520 C526 1.272 . S
O521 Zn511 1.910 . S
O521 C527 1.231 . S
C522 O506 1.225 . S
C522 O528 1.298 . S
C523 O512 1.226 . S
C523 O513 1.307 . S
C524 O516 1.303 . S
C524 O517 1.247 . S
C525 O514 1.253 . S
C525 O515 1.283 . S
C526 O518 1.304 . S
C526 O520 1.272 . S
C527 O519 1.311 . S
C527 O521 1.231 . S
O528 Zn510 1.953 . S
O528 C522 1.298 . S
O529 Zn530 1.953 . S
O529 C545 1.225 . S
Zn530 O529 1.953 . S
Zn530 O531 1.949 . S
Zn530 O537 1.919 . S
Zn530 O542 1.924 . S
O531 Zn530 1.949 . S
O531 Zn532 1.923 . S
O531 Zn533 1.950 . S
O531 Zn534 1.945 . S
Zn532 O531 1.923 . S
Zn532 O535 1.933 . S
Zn532 O538 1.941 . S
Zn532 O539 1.965 . S
Zn533 O531 1.950 . S
Zn533 O540 1.938 . S
Zn533 O541 1.906 . S
Zn533 O551 1.953 . S
Zn534 O531 1.945 . S
Zn534 O536 1.932 . S
Zn534 O543 1.977 . S
Zn534 O544 1.910 . S
O535 Zn532 1.933 . S
O535 C546 1.226 . S
O536 Zn534 1.932 . S
O536 C546 1.307 . S
O537 Zn530 1.919 . S
O537 C548 1.253 . S
O538 Zn532 1.941 . S
O538 C548 1.283 . S
O539 Zn532 1.965 . S
O539 C547 1.303 . S
O540 Zn533 1.938 . S
O540 C547 1.247 . S
O541 Zn533 1.906 . S
O541 C549 1.304 . S
O542 Zn530 1.924 . S
O542 C550 1.311 . S
O543 Zn534 1.977 . S
O543 C549 1.272 . S
O544 Zn534 1.910 . S
O544 C550 1.231 . S
C545 O529 1.225 . S
C545 O551 1.298 . S
C546 O535 1.226 . S
C546 O536 1.307 . S
C547 O539 1.303 . S
C547 O540 1.247 . S
C548 O537 1.253 . S
C548 O538 1.283 . S
C549 O541 1.304 . S
C549 O543 1.272 . S
C550 O542 1.311 . S
C550 O544 1.231 . S
O551 Zn533 1.953 . S
O551 C545 1.298 . S
C552 C553 1.369 . S
C552 C554 1.419 . S
C552 H556 0.930 . S
C553 C552 1.369 . S
C553 C562 1.429 . S
C554 C552 1.419 . S
C554 C555 1.363 . S
C554 H557 0.929 . S
C555 C554 1.363 . S
C555 C561 1.428 . S
H556 C552 0.930 . S
H557 C554 0.929 . S
S558 N559 1.613 . S
S558 N560 1.610 . S
N559 S558 1.613 . S
N559 C562 1.350 . S
N560 S558 1.610 . S
N560 C561 1.351 . S
C561 C555 1.428 . S
C561 N560 1.351 . S
C561 C562 1.434 . S
C562 C553 1.429 . S
C562 N559 1.350 . S
C562 C561 1.434 . S
C563 C564 1.369 . S
C563 C565 1.419 . S
C563 H567 0.930 . S
C564 C563 1.369 . S
C564 C573 1.429 . S
C565 C563 1.419 . S
C565 C566 1.363 . S
C565 H568 0.929 . S
C566 C565 1.363 . S
C566 C572 1.428 . S
H567 C563 0.930 . S
H568 C565 0.929 . S
S569 N570 1.613 . S
S569 N571 1.610 . S
N570 S569 1.613 . S
N570 C573 1.350 . S
N571 S569 1.610 . S
N571 C572 1.351 . S
C572 C566 1.428 . S
C572 N571 1.351 . S
C572 C573 1.434 . S
C573 C564 1.429 . S
C573 N570 1.350 . S
C573 C572 1.434 . S
C574 C575 1.369 . S
C574 C576 1.419 . S
C574 H578 0.930 . S
C575 C574 1.369 . S
C575 C584 1.429 . S
C576 C574 1.419 . S
C576 C577 1.363 . S
C576 H579 0.929 . S
C577 C576 1.363 . S
C577 C583 1.428 . S
H578 C574 0.930 . S
H579 C576 0.929 . S
S580 N581 1.613 . S
S580 N582 1.610 . S
N581 S580 1.613 . S
N581 C584 1.350 . S
N582 S580 1.610 . S
N582 C583 1.351 . S
C583 C577 1.428 . S
C583 N582 1.351 . S
C583 C584 1.434 . S
C584 C575 1.429 . S
C584 N581 1.350 . S
C584 C583 1.434 . S
C585 C586 1.369 . S
C585 C587 1.419 . S
C585 H589 0.930 . S
C586 C585 1.369 . S
C586 C595 1.429 . S
C587 C585 1.419 . S
C587 C588 1.363 . S
C587 H590 0.929 . S
C588 C587 1.363 . S
C588 C594 1.428 . S
H589 C585 0.930 . S
H590 C587 0.929 . S
S591 N592 1.613 . S
S591 N593 1.610 . S
N592 S591 1.613 . S
N592 C595 1.350 . S
N593 S591 1.610 . S
N593 C594 1.351 . S
C594 C588 1.428 . S
C594 N593 1.351 . S
C594 C595 1.434 . S
C595 C586 1.429 . S
C595 N592 1.350 . S
C595 C594 1.434 . S
C596 C597 1.369 . S
C596 C598 1.419 . S
C596 H600 0.930 . S
C597 C596 1.369 . S
C597 C606 1.429 . S
C598 C596 1.419 . S
C598 C599 1.363 . S
C598 H601 0.929 . S
C599 C598 1.363 . S
C599 C605 1.428 . S
H600 C596 0.930 . S
H601 C598 0.929 . S
S602 N603 1.613 . S
S602 N604 1.610 . S
N603 S602 1.613 . S
N603 C606 1.350 . S
N604 S602 1.610 . S
N604 C605 1.351 . S
C605 C599 1.428 . S
C605 N604 1.351 . S
C605 C606 1.434 . S
C606 C597 1.429 . S
C606 N603 1.350 . S
C606 C605 1.434 . S
C607 C608 1.369 . S
C607 C609 1.419 . S
C607 H611 0.930 . S
C608 C607 1.369 . S
C608 C617 1.429 . S
C609 C607 1.419 . S
C609 C610 1.363 . S
C609 H612 0.929 . S
C610 C609 1.363 . S
C610 C616 1.428 . S
H611 C607 0.930 . S
H612 C609 0.929 . S
S613 N614 1.613 . S
S613 N615 1.610 . S
N614 S613 1.613 . S
N614 C617 1.350 . S
N615 S613 1.610 . S
N615 C616 1.351 . S
C616 C610 1.428 . S
C616 N615 1.351 . S
C616 C617 1.434 . S
C617 C608 1.429 . S
C617 N614 1.350 . S
C617 C616 1.434 . S
C618 C619 1.369 . S
C618 C620 1.419 . S
C618 H622 0.930 . S
C619 C618 1.369 . S
C619 C628 1.429 . S
C620 C618 1.419 . S
C620 C621 1.363 . S
C620 H623 0.929 . S
C621 C620 1.363 . S
C621 C627 1.428 . S
H622 C618 0.930 . S
H623 C620 0.929 . S
S624 N625 1.613 . S
S624 N626 1.610 . S
N625 S624 1.613 . S
N625 C628 1.350 . S
N626 S624 1.610 . S
N626 C627 1.351 . S
C627 C621 1.428 . S
C627 N626 1.351 . S
C627 C628 1.434 . S
C628 C619 1.429 . S
C628 N625 1.350 . S
C628 C627 1.434 . S
C629 C630 1.369 . S
C629 C631 1.419 . S
C629 H633 0.930 . S
C630 C629 1.369 . S
C630 C639 1.429 . S
C631 C629 1.419 . S
C631 C632 1.363 . S
C631 H634 0.929 . S
C632 C631 1.363 . S
C632 C638 1.428 . S
H633 C629 0.930 . S
H634 C631 0.929 . S
S635 N636 1.613 . S
S635 N637 1.610 . S
N636 S635 1.613 . S
N636 C639 1.350 . S
N637 S635 1.610 . S
N637 C638 1.351 . S
C638 C632 1.428 . S
C638 N637 1.351 . S
C638 C639 1.434 . S
C639 C630 1.429 . S
C639 N636 1.350 . S
C639 C638 1.434 . S
C640 C641 1.369 . S
C640 C642 1.419 . S
C640 H644 0.930 . S
C641 C640 1.369 . S
C641 C650 1.429 . S
C642 C640 1.419 . S
C642 C643 1.363 . S
C642 H645 0.929 . S
C643 C642 1.363 . S
C643 C649 1.428 . S
H644 C640 0.930 . S
H645 C642 0.929 . S
S646 N647 1.613 . S
S646 N648 1.610 . S
N647 S646 1.613 . S
N647 C650 1.350 . S
N648 S646 1.610 . S
N648 C649 1.351 . S
C649 C643 1.428 . S
C649 N648 1.351 . S
C649 C650 1.434 . S
C650 C641 1.429 . S
C650 N647 1.350 . S
C650 C649 1.434 . S
C651 C652 1.369 . S
C651 C653 1.419 . S
C651 H655 0.930 . S
C652 C651 1.369 . S
C652 C661 1.429 . S
C653 C651 1.419 . S
C653 C654 1.363 . S
C653 H656 0.929 . S
C654 C653 1.363 . S
C654 C660 1.428 . S
H655 C651 0.930 . S
H656 C653 0.929 . S
S657 N658 1.613 . S
S657 N659 1.610 . S
N658 S657 1.613 . S
N658 C661 1.350 . S
N659 S657 1.610 . S
N659 C660 1.351 . S
C660 C654 1.428 . S
C660 N659 1.351 . S
C660 C661 1.434 . S
C661 C652 1.429 . S
C661 N658 1.350 . S
C661 C660 1.434 . S
C662 C663 1.369 . S
C662 C664 1.419 . S
C662 H666 0.930 . S
C663 C662 1.369 . S
C663 C672 1.429 . S
C664 C662 1.419 . S
C664 C665 1.363 . S
C664 H667 0.929 . S
C665 C664 1.363 . S
C665 C671 1.428 . S
H666 C662 0.930 . S
H667 C664 0.929 . S
S668 N669 1.613 . S
S668 N670 1.610 . S
N669 S668 1.613 . S
N669 C672 1.350 . S
N670 S668 1.610 . S
N670 C671 1.351 . S
C671 C665 1.428 . S
C671 N670 1.351 . S
C671 C672 1.434 . S
C672 C663 1.429 . S
C672 N669 1.350 . S
C672 C671 1.434 . S
C673 C674 1.369 . S
C673 C675 1.419 . S
C673 H677 0.930 . S
C674 C673 1.369 . S
C674 C683 1.429 . S
C675 C673 1.419 . S
C675 C676 1.363 . S
C675 H678 0.929 . S
C676 C675 1.363 . S
C676 C682 1.428 . S
H677 C673 0.930 . S
H678 C675 0.929 . S
S679 N680 1.613 . S
S679 N681 1.610 . S
N680 S679 1.613 . S
N680 C683 1.350 . S
N681 S679 1.610 . S
N681 C682 1.351 . S
C682 C676 1.428 . S
C682 N681 1.351 . S
C682 C683 1.434 . S
C683 C674 1.429 . S
C683 N680 1.350 . S
C683 C682 1.434 . S
C684 C685 1.369 . S
C684 C686 1.419 1_545 S
C684 H688 0.930 . S
C685 C684 1.369 . S
C685 C694 1.429 . S
C686 C684 1.419 1_565 S
C686 C687 1.363 . S
C686 H689 0.929 . S
C687 C686 1.363 . S
C687 C693 1.428 . S
H688 C684 0.930 . S
H689 C686 0.929 . S
S690 N691 1.613 . S
S690 N692 1.610 1_545 S
N691 S690 1.613 . S
N691 C694 1.350 . S
N692 S690 1.610 1_565 S
N692 C693 1.351 . S
C693 C687 1.428 . S
C693 N692 1.351 . S
C693 C694 1.434 1_565 S
C694 C685 1.429 . S
C694 N691 1.350 . S
C694 C693 1.434 1_545 S
C695 C696 1.369 . S
C695 C697 1.419 . S
C695 H699 0.930 . S
C696 C695 1.369 . S
C696 C705 1.429 . S
C697 C695 1.419 . S
C697 C698 1.363 . S
C697 H700 0.929 . S
C698 C697 1.363 . S
C698 C704 1.428 . S
H699 C695 0.930 . S
H700 C697 0.929 . S
S701 N702 1.613 . S
S701 N703 1.610 . S
N702 S701 1.613 . S
N702 C705 1.350 . S
N703 S701 1.610 . S
N703 C704 1.351 . S
C704 C698 1.428 . S
C704 N703 1.351 . S
C704 C705 1.434 . S
C705 C696 1.429 . S
C705 N702 1.350 . S
C705 C704 1.434 . S
C706 C707 1.369 . S
C706 C708 1.419 . S
C706 H710 0.930 . S
C707 C706 1.369 . S
C707 C716 1.429 1_655 S
C708 C706 1.419 . S
C708 C709 1.363 1_655 S
C708 H711 0.929 . S
C709 C708 1.363 1_455 S
C709 C715 1.428 . S
H710 C706 0.930 . S
H711 C708 0.929 . S
S712 N713 1.613 . S
S712 N714 1.610 . S
N713 S712 1.613 . S
N713 C716 1.350 . S
N714 S712 1.610 . S
N714 C715 1.351 . S
C715 C709 1.428 . S
C715 N714 1.351 . S
C715 C716 1.434 . S
C716 C707 1.429 1_455 S
C716 N713 1.350 . S
C716 C715 1.434 . S
C717 C718 1.369 1_455 S
C717 C719 1.419 . S
C717 H721 0.930 . S
C718 C717 1.369 1_655 S
C718 C727 1.429 . S
C719 C717 1.419 . S
C719 C720 1.363 . S
C719 H722 0.929 . S
C720 C719 1.363 . S
C720 C726 1.428 1_455 S
H721 C717 0.930 . S
H722 C719 0.929 . S
S723 N724 1.613 . S
S723 N725 1.610 . S
N724 S723 1.613 . S
N724 C727 1.350 . S
N725 S723 1.610 . S
N725 C726 1.351 . S
C726 C720 1.428 1_655 S
C726 N725 1.351 . S
C726 C727 1.434 . S
C727 C718 1.429 . S
C727 N724 1.350 . S
C727 C726 1.434 . S
C728 C729 1.369 . S
C728 C730 1.419 1_565 S
C728 H732 0.930 . S
C729 C728 1.369 . S
C729 C738 1.423 1_565 S
C730 C728 1.419 1_545 S
C730 C731 1.363 . S
C730 H733 0.929 . S
C731 C730 1.363 . S
C731 C737 1.428 . S
H732 C728 0.930 . S
H733 C730 0.929 . S
S734 N735 1.613 . S
S734 N736 1.610 . S
N735 S734 1.613 . S
N735 C738 1.356 . S
N736 S734 1.610 . S
N736 C737 1.351 . S
C737 C731 1.428 . S
C737 N736 1.351 . S
C737 C738 1.434 . S
C738 C729 1.423 1_545 S
C738 N735 1.356 . S
C738 C737 1.434 . S
C739 C740 1.369 . S
C739 C741 1.419 . S
C739 H743 0.930 . S
C740 C739 1.369 . S
C740 C749 1.429 . S
C741 C739 1.419 . S
C741 C742 1.363 . S
C741 H744 0.929 . S
C742 C741 1.363 . S
C742 C748 1.428 . S
H743 C739 0.930 . S
H744 C741 0.929 . S
S745 N746 1.613 . S
S745 N747 1.610 . S
N746 S745 1.613 . S
N746 C749 1.350 . S
N747 S745 1.610 . S
N747 C748 1.351 . S
C748 C742 1.428 . S
C748 N747 1.351 . S
C748 C749 1.434 . S
C749 C740 1.429 . S
C749 N746 1.350 . S
C749 C748 1.434 . S
C750 C751 1.369 . S
C750 C752 1.419 . S
C750 H754 0.930 . S
C751 C750 1.369 . S
C751 C760 1.429 1_545 S
C752 C750 1.419 . S
C752 C753 1.363 1_545 S
C752 H755 0.929 . S
C753 C752 1.363 1_565 S
C753 C759 1.428 . S
H754 C750 0.930 . S
H755 C752 0.929 . S
S756 N757 1.613 . S
S756 N758 1.610 . S
N757 S756 1.613 . S
N757 C760 1.350 . S
N758 S756 1.610 . S
N758 C759 1.351 . S
C759 C753 1.428 . S
C759 N758 1.351 . S
C759 C760 1.434 . S
C760 C751 1.429 1_565 S
C760 N757 1.350 . S
C760 C759 1.434 . S
C761 C762 1.369 . S
C761 C763 1.419 . S
C761 H765 0.930 . S
C762 C761 1.369 . S
C762 C771 1.429 . S
C763 C761 1.419 . S
C763 C764 1.363 . S
C763 H766 0.929 . S
C764 C763 1.363 . S
C764 C770 1.428 . S
H765 C761 0.930 . S
H766 C763 0.929 . S
S767 N768 1.613 . S
S767 N769 1.610 . S
N768 S767 1.613 . S
N768 C771 1.350 . S
N769 S767 1.610 . S
N769 C770 1.351 . S
C770 C764 1.428 . S
C770 N769 1.351 . S
C770 C771 1.434 . S
C771 C762 1.429 . S
C771 N768 1.350 . S
C771 C770 1.434 . S
C772 C773 1.369 1_455 S
C772 C774 1.419 . S
C772 H776 0.930 . S
C773 C772 1.369 1_655 S
C773 C782 1.429 . S
C774 C772 1.419 . S
C774 C775 1.363 . S
C774 H777 0.929 . S
C775 C774 1.363 . S
C775 C781 1.428 1_455 S
H776 C772 0.930 . S
H777 C774 0.929 . S
S778 N779 1.613 . S
S778 N780 1.610 . S
N779 S778 1.613 . S
N779 C782 1.350 . S
N780 S778 1.610 . S
N780 C781 1.351 . S
C781 C775 1.428 1_655 S
C781 N780 1.351 . S
C781 C782 1.434 . S
C782 C773 1.429 . S
C782 N779 1.350 . S
C782 C781 1.434 . S
C783 C784 1.369 1_655 S
C783 C785 1.419 . S
C783 H787 0.930 . S
C784 C783 1.369 1_455 S
C784 C793 1.429 . S
C785 C783 1.419 . S
C785 C786 1.363 . S
C785 H788 0.929 . S
C786 C785 1.363 . S
C786 C792 1.428 1_655 S
H787 C783 0.930 . S
H788 C785 0.929 . S
S789 N790 1.613 . S
S789 N791 1.610 . S
N790 S789 1.613 . S
N790 C793 1.350 . S
N791 S789 1.610 . S
N791 C792 1.351 . S
C792 C786 1.428 1_455 S
C792 N791 1.351 . S
C792 C793 1.434 . S
C793 C784 1.429 . S
C793 N790 1.350 . S
C793 C792 1.434 . S
C794 C795 1.369 1_565 S
C794 C796 1.419 . S
C794 H798 0.930 . S
C795 C794 1.369 1_545 S
C795 C804 1.429 . S
C796 C794 1.419 . S
C796 C797 1.363 . S
C796 H799 0.929 . S
C797 C796 1.363 . S
C797 C803 1.428 1_565 S
H798 C794 0.930 . S
H799 C796 0.929 . S
S800 N801 1.613 . S
S800 N802 1.610 . S
N801 S800 1.613 . S
N801 C804 1.350 . S
N802 S800 1.610 . S
N802 C803 1.351 . S
C803 C797 1.428 1_545 S
C803 N802 1.351 . S
C803 C804 1.434 . S
C804 C795 1.429 . S
C804 N801 1.350 . S
C804 C803 1.434 . S
C805 C806 1.369 . S
C805 C807 1.419 . S
C805 H809 0.930 . S
C806 C805 1.369 . S
C806 C815 1.429 . S
C807 C805 1.419 . S
C807 C808 1.363 . S
C807 H810 0.929 . S
C808 C807 1.363 . S
C808 C814 1.428 . S
H809 C805 0.930 . S
H810 C807 0.929 . S
S811 N812 1.613 . S
S811 N813 1.610 . S
N812 S811 1.613 . S
N812 C815 1.350 . S
N813 S811 1.610 . S
N813 C814 1.351 . S
C814 C808 1.428 . S
C814 N813 1.351 . S
C814 C815 1.434 . S
C815 C806 1.429 . S
C815 N812 1.350 . S
C815 C814 1.434 . S
C816 C817 1.369 . S
C816 C818 1.419 . S
C816 H820 0.930 . S
C817 C816 1.369 . S
C817 C826 1.429 . S
C818 C816 1.419 . S
C818 C819 1.363 . S
C818 H821 0.929 . S
C819 C818 1.363 . S
C819 C825 1.428 . S
H820 C816 0.930 . S
H821 C818 0.929 . S
S822 N823 1.613 . S
S822 N824 1.610 . S
N823 S822 1.613 . S
N823 C826 1.350 . S
N824 S822 1.610 . S
N824 C825 1.351 . S
C825 C819 1.428 . S
C825 N824 1.351 . S
C825 C826 1.434 . S
C826 C817 1.429 . S
C826 N823 1.350 . S
C826 C825 1.434 . S
C827 C828 1.369 . S
C827 C829 1.419 . S
C827 H831 0.930 . S
C828 C827 1.369 . S
C828 C837 1.429 . S
C829 C827 1.419 . S
C829 C830 1.363 . S
C829 H832 0.929 . S
C830 C829 1.363 . S
C830 C836 1.428 . S
H831 C827 0.930 . S
H832 C829 0.929 . S
S833 N834 1.613 . S
S833 N835 1.610 . S
N834 S833 1.613 . S
N834 C837 1.350 . S
N835 S833 1.610 . S
N835 C836 1.351 . S
C836 C830 1.428 . S
C836 N835 1.351 . S
C836 C837 1.434 . S
C837 C828 1.429 . S
C837 N834 1.350 . S
C837 C836 1.434 . S
C838 C839 1.369 . S
C838 C840 1.419 . S
C838 H842 0.930 . S
C839 C838 1.369 . S
C839 C848 1.429 . S
C840 C838 1.419 . S
C840 C841 1.363 . S
C840 H843 0.929 . S
C841 C840 1.363 . S
C841 C847 1.428 . S
H842 C838 0.930 . S
H843 C840 0.929 . S
S844 N845 1.613 . S
S844 N846 1.610 . S
N845 S844 1.613 . S
N845 C848 1.350 . S
N846 S844 1.610 . S
N846 C847 1.351 . S
C847 C841 1.428 . S
C847 N846 1.351 . S
C847 C848 1.434 . S
C848 C839 1.429 . S
C848 N845 1.350 . S
C848 C847 1.434 . S
C849 C850 1.369 . S
C849 C851 1.419 . S
C849 H853 0.930 . S
C850 C849 1.369 . S
C850 C859 1.429 . S
C851 C849 1.419 . S
C851 C852 1.363 . S
C851 H854 0.929 . S
C852 C851 1.363 . S
C852 C858 1.428 . S
H853 C849 0.930 . S
H854 C851 0.929 . S
S855 N856 1.613 . S
S855 N857 1.610 . S
N856 S855 1.613 . S
N856 C859 1.350 . S
N857 S855 1.610 . S
N857 C858 1.351 . S
C858 C852 1.428 . S
C858 N857 1.351 . S
C858 C859 1.434 . S
C859 C850 1.429 . S
C859 N856 1.350 . S
C859 C858 1.434 . S
C860 C861 1.369 . S
C860 C862 1.419 . S
C860 H864 0.930 . S
C861 C860 1.369 . S
C861 C870 1.429 . S
C862 C860 1.419 . S
C862 C863 1.363 . S
C862 H865 0.929 . S
C863 C862 1.363 . S
C863 C869 1.428 . S
H864 C860 0.930 . S
H865 C862 0.929 . S
S866 N867 1.613 . S
S866 N868 1.610 . S
N867 S866 1.613 . S
N867 C870 1.350 . S
N868 S866 1.610 . S
N868 C869 1.351 . S
C869 C863 1.428 . S
C869 N868 1.351 . S
C869 C870 1.434 . S
C870 C861 1.429 . S
C870 N867 1.350 . S
C870 C869 1.434 . S
C871 C872 1.369 . S
C871 C873 1.419 . S
C871 H875 0.930 . S
C872 C871 1.369 . S
C872 C881 1.429 . S
C873 C871 1.419 . S
C873 C874 1.363 . S
C873 H876 0.929 . S
C874 C873 1.363 . S
C874 C880 1.428 . S
H875 C871 0.930 . S
H876 C873 0.929 . S
S877 N878 1.613 . S
S877 N879 1.610 . S
N878 S877 1.613 . S
N878 C881 1.350 . S
N879 S877 1.610 . S
N879 C880 1.351 . S
C880 C874 1.428 . S
C880 N879 1.351 . S
C880 C881 1.434 . S
C881 C872 1.429 . S
C881 N878 1.350 . S
C881 C880 1.434 . S
C882 C883 1.369 . S
C882 C884 1.419 . S
C882 H886 0.930 . S
C883 C882 1.369 . S
C883 C892 1.429 . S
C884 C882 1.419 . S
C884 C885 1.363 . S
C884 H887 0.929 . S
C885 C884 1.363 . S
C885 C891 1.428 . S
H886 C882 0.930 . S
H887 C884 0.929 . S
S888 N889 1.613 . S
S888 N890 1.610 . S
N889 S888 1.613 . S
N889 C892 1.350 . S
N890 S888 1.610 . S
N890 C891 1.351 . S
C891 C885 1.428 . S
C891 N890 1.351 . S
C891 C892 1.434 . S
C892 C883 1.429 . S
C892 N889 1.350 . S
C892 C891 1.434 . S
C893 C894 1.369 . S
C893 C895 1.419 . S
C893 H897 0.930 . S
C894 C893 1.369 . S
C894 C903 1.429 . S
C895 C893 1.419 . S
C895 C896 1.363 . S
C895 H898 0.929 . S
C896 C895 1.363 . S
C896 C902 1.428 . S
H897 C893 0.930 . S
H898 C895 0.929 . S
S899 N900 1.613 . S
S899 N901 1.610 . S
N900 S899 1.613 . S
N900 C903 1.350 . S
N901 S899 1.610 . S
N901 C902 1.351 . S
C902 C896 1.428 . S
C902 N901 1.351 . S
C902 C903 1.434 . S
C903 C894 1.429 . S
C903 N900 1.350 . S
C903 C902 1.434 . S
C904 C905 1.369 . S
C904 C906 1.419 . S
C904 H908 0.930 . S
C905 C904 1.369 . S
C905 C914 1.429 . S
C906 C904 1.419 . S
C906 C907 1.363 . S
C906 H909 0.929 . S
C907 C906 1.363 . S
C907 C913 1.428 . S
H908 C904 0.930 . S
H909 C906 0.929 . S
S910 N911 1.613 . S
S910 N912 1.610 . S
N911 S910 1.613 . S
N911 C914 1.350 . S
N912 S910 1.610 . S
N912 C913 1.351 . S
C913 C907 1.428 . S
C913 N912 1.351 . S
C913 C914 1.434 . S
C914 C905 1.429 . S
C914 N911 1.350 . S
C914 C913 1.434 . S
C915 C916 1.369 . S
C915 C917 1.419 . S
C915 H919 0.930 . S
C916 C915 1.369 . S
C916 C925 1.429 . S
C917 C915 1.419 . S
C917 C918 1.363 . S
C917 H920 0.929 . S
C918 C917 1.363 . S
C918 C924 1.428 . S
H919 C915 0.930 . S
H920 C917 0.929 . S
S921 N922 1.613 . S
S921 N923 1.610 . S
N922 S921 1.613 . S
N922 C925 1.350 . S
N923 S921 1.610 . S
N923 C924 1.351 . S
C924 C918 1.428 . S
C924 N923 1.351 . S
C924 C925 1.434 . S
C925 C916 1.429 . S
C925 N922 1.350 . S
C925 C924 1.434 . S
C926 C927 1.369 . S
C926 C928 1.419 . S
C926 H930 0.930 . S
C927 C926 1.369 . S
C927 C936 1.429 . S
C928 C926 1.419 . S
C928 C929 1.363 . S
C928 H931 0.929 . S
C929 C928 1.363 . S
C929 C935 1.428 . S
H930 C926 0.930 . S
H931 C928 0.929 . S
S932 N933 1.613 . S
S932 N934 1.610 . S
N933 S932 1.613 . S
N933 C936 1.350 . S
N934 S932 1.610 . S
N934 C935 1.351 . S
C935 C929 1.428 . S
C935 N934 1.351 . S
C935 C936 1.434 . S
C936 C927 1.429 . S
C936 N933 1.350 . S
C936 C935 1.434 . S
C937 C938 1.369 . S
C937 C939 1.419 . S
C937 H941 0.930 . S
C938 C937 1.369 . S
C938 C947 1.429 . S
C939 C937 1.419 . S
C939 C940 1.363 . S
C939 H942 0.929 . S
C940 C939 1.363 . S
C940 C946 1.428 . S
H941 C937 0.930 . S
H942 C939 0.929 . S
S943 N944 1.613 . S
S943 N945 1.610 . S
N944 S943 1.613 . S
N944 C947 1.350 . S
N945 S943 1.610 . S
N945 C946 1.351 . S
C946 C940 1.428 . S
C946 N945 1.351 . S
C946 C947 1.434 . S
C947 C938 1.429 . S
C947 N944 1.350 . S
C947 C946 1.434 . S
C948 C949 1.369 . S
C948 C950 1.419 . S
C948 H952 0.930 . S
C949 C948 1.369 . S
C949 C958 1.429 . S
C950 C948 1.419 . S
C950 C951 1.363 . S
C950 H953 0.929 . S
C951 C950 1.363 . S
C951 C957 1.428 . S
H952 C948 0.930 . S
H953 C950 0.929 . S
S954 N955 1.613 . S
S954 N956 1.610 . S
N955 S954 1.613 . S
N955 C958 1.350 . S
N956 S954 1.610 . S
N956 C957 1.351 . S
C957 C951 1.428 . S
C957 N956 1.351 . S
C957 C958 1.434 . S
C958 C949 1.429 . S
C958 N955 1.350 . S
C958 C957 1.434 . S
C959 C960 1.369 . S
C959 C961 1.419 . S
C959 H963 0.930 . S
C960 C959 1.369 . S
C960 C969 1.429 . S
C961 C959 1.419 . S
C961 C962 1.363 . S
C961 H964 0.929 . S
C962 C961 1.363 . S
C962 C968 1.428 . S
H963 C959 0.930 . S
H964 C961 0.929 . S
S965 N966 1.613 . S
S965 N967 1.610 . S
N966 S965 1.613 . S
N966 C969 1.350 . S
N967 S965 1.610 . S
N967 C968 1.351 . S
C968 C962 1.428 . S
C968 N967 1.351 . S
C968 C969 1.434 . S
C969 C960 1.429 . S
C969 N966 1.350 . S
C969 C968 1.434 . S
C970 C971 1.369 . S
C970 C972 1.419 . S
C970 H974 0.930 . S
C971 C970 1.369 . S
C971 C980 1.429 . S
C972 C970 1.419 . S
C972 C973 1.363 . S
C972 H975 0.929 . S
C973 C972 1.363 . S
C973 C979 1.428 . S
H974 C970 0.930 . S
H975 C972 0.929 . S
S976 N977 1.613 . S
S976 N978 1.610 . S
N977 S976 1.613 . S
N977 C980 1.350 . S
N978 S976 1.610 . S
N978 C979 1.351 . S
C979 C973 1.428 . S
C979 N978 1.351 . S
C979 C980 1.434 . S
C980 C971 1.429 . S
C980 N977 1.350 . S
C980 C979 1.434 . S
C981 C982 1.369 . S
C981 C983 1.419 . S
C981 H985 0.930 . S
C982 C981 1.369 . S
C982 C991 1.429 . S
C983 C981 1.419 . S
C983 C984 1.363 . S
C983 H986 0.929 . S
C984 C983 1.363 . S
C984 C990 1.428 . S
H985 C981 0.930 . S
H986 C983 0.929 . S
S987 N988 1.613 . S
S987 N989 1.610 . S
N988 S987 1.613 . S
N988 C991 1.350 . S
N989 S987 1.610 . S
N989 C990 1.351 . S
C990 C984 1.428 . S
C990 N989 1.351 . S
C990 C991 1.434 . S
C991 C982 1.429 . S
C991 N988 1.350 . S
C991 C990 1.434 . S
C992 C993 1.369 . S
C992 C994 1.419 . S
C992 H996 0.930 . S
C993 C992 1.369 . S
C993 C1002 1.429 . S
C994 C992 1.419 . S
C994 C995 1.363 . S
C994 H997 0.929 . S
C995 C994 1.363 . S
C995 C1001 1.428 . S
H996 C992 0.930 . S
H997 C994 0.929 . S
S998 N999 1.613 . S
S998 N1000 1.610 . S
N999 S998 1.613 . S
N999 C1002 1.350 . S
N1000 S998 1.610 . S
N1000 C1001 1.351 . S
C1001 C995 1.428 . S
C1001 N1000 1.351 . S
C1001 C1002 1.434 . S
C1002 C993 1.429 . S
C1002 N999 1.350 . S
C1002 C1001 1.434 . S
C1003 C1004 1.369 . S
C1003 C1005 1.419 . S
C1003 H1007 0.930 . S
C1004 C1003 1.369 . S
C1004 C1013 1.429 . S
C1005 C1003 1.419 . S
C1005 C1006 1.363 . S
C1005 H1008 0.929 . S
C1006 C1005 1.363 . S
C1006 C1012 1.428 . S
H1007 C1003 0.930 . S
H1008 C1005 0.929 . S
S1009 N1010 1.613 . S
S1009 N1011 1.610 . S
N1010 S1009 1.613 . S
N1010 C1013 1.350 . S
N1011 S1009 1.610 . S
N1011 C1012 1.351 . S
C1012 C1006 1.428 . S
C1012 N1011 1.351 . S
C1012 C1013 1.434 . S
C1013 C1004 1.429 . S
C1013 N1010 1.350 . S
C1013 C1012 1.434 . S
C1014 C1015 1.369 . S
C1014 C1016 1.419 . S
C1014 H1018 0.930 . S
C1015 C1014 1.369 . S
C1015 C1024 1.429 . S
C1016 C1014 1.419 . S
C1016 C1017 1.363 . S
C1016 H1019 0.929 . S
C1017 C1016 1.363 . S
C1017 C1023 1.428 . S
H1018 C1014 0.930 . S
H1019 C1016 0.929 . S
S1020 N1021 1.613 . S
S1020 N1022 1.610 . S
N1021 S1020 1.613 . S
N1021 C1024 1.350 . S
N1022 S1020 1.610 . S
N1022 C1023 1.351 . S
C1023 C1017 1.428 . S
C1023 N1022 1.351 . S
C1023 C1024 1.434 . S
C1024 C1015 1.429 . S
C1024 N1021 1.350 . S
C1024 C1023 1.434 . S
C1025 C1026 1.369 . S
C1025 C1027 1.419 . S
C1025 H1029 0.930 . S
C1026 C1025 1.369 . S
C1026 C1035 1.429 . S
C1027 C1025 1.419 . S
C1027 C1028 1.363 . S
C1027 H1030 0.929 . S
C1028 C1027 1.363 . S
C1028 C1034 1.428 . S
H1029 C1025 0.930 . S
H1030 C1027 0.929 . S
S1031 N1032 1.613 . S
S1031 N1033 1.610 . S
N1032 S1031 1.613 . S
N1032 C1035 1.350 . S
N1033 S1031 1.610 . S
N1033 C1034 1.351 . S
C1034 C1028 1.428 . S
C1034 N1033 1.351 . S
C1034 C1035 1.434 . S
C1035 C1026 1.429 . S
C1035 N1032 1.350 . S
C1035 C1034 1.434 . S
C1036 C1037 1.369 . S
C1036 C1038 1.419 . S
C1036 H1040 0.930 . S
C1037 C1036 1.369 . S
C1037 C1046 1.429 . S
C1038 C1036 1.419 . S
C1038 C1039 1.363 . S
C1038 H1041 0.929 . S
C1039 C1038 1.363 . S
C1039 C1045 1.428 . S
H1040 C1036 0.930 . S
H1041 C1038 0.929 . S
S1042 N1043 1.613 . S
S1042 N1044 1.610 . S
N1043 S1042 1.613 . S
N1043 C1046 1.350 . S
N1044 S1042 1.610 . S
N1044 C1045 1.351 . S
C1045 C1039 1.428 . S
C1045 N1044 1.351 . S
C1045 C1046 1.434 . S
C1046 C1037 1.429 . S
C1046 N1043 1.350 . S
C1046 C1045 1.434 . S
C1047 C1048 1.369 . S
C1047 C1049 1.419 . S
C1047 H1051 0.930 . S
C1048 C1047 1.369 . S
C1048 C1057 1.429 . S
C1049 C1047 1.419 . S
C1049 C1050 1.363 . S
C1049 H1052 0.929 . S
C1050 C1049 1.363 . S
C1050 C1056 1.428 . S
H1051 C1047 0.930 . S
H1052 C1049 0.929 . S
S1053 N1054 1.613 . S
S1053 N1055 1.610 . S
N1054 S1053 1.613 . S
N1054 C1057 1.350 . S
N1055 S1053 1.610 . S
N1055 C1056 1.351 . S
C1056 C1050 1.428 . S
C1056 N1055 1.351 . S
C1056 C1057 1.434 . S
C1057 C1048 1.429 . S
C1057 N1054 1.350 . S
C1057 C1056 1.434 . S
C1058 C1059 1.369 . S
C1058 C1060 1.419 . S
C1058 H1062 0.930 . S
C1059 C1058 1.369 . S
C1059 C1068 1.429 . S
C1060 C1058 1.419 . S
C1060 C1061 1.363 . S
C1060 H1063 0.929 . S
C1061 C1060 1.363 . S
C1061 C1067 1.428 . S
H1062 C1058 0.930 . S
H1063 C1060 0.929 . S
S1064 N1065 1.613 . S
S1064 N1066 1.610 . S
N1065 S1064 1.613 . S
N1065 C1068 1.350 . S
N1066 S1064 1.610 . S
N1066 C1067 1.351 . S
C1067 C1061 1.428 . S
C1067 N1066 1.351 . S
C1067 C1068 1.434 . S
C1068 C1059 1.429 . S
C1068 N1065 1.350 . S
C1068 C1067 1.434 . S
C1069 C1070 1.369 . S
C1069 C1071 1.419 . S
C1069 H1073 0.930 . S
C1070 C1069 1.369 . S
C1070 C1079 1.429 . S
C1071 C1069 1.419 . S
C1071 C1072 1.363 . S
C1071 H1074 0.929 . S
C1072 C1071 1.363 . S
C1072 C1078 1.428 . S
H1073 C1069 0.930 . S
H1074 C1071 0.929 . S
S1075 N1076 1.613 . S
S1075 N1077 1.610 . S
N1076 S1075 1.613 . S
N1076 C1079 1.350 . S
N1077 S1075 1.610 . S
N1077 C1078 1.351 . S
C1078 C1072 1.428 . S
C1078 N1077 1.351 . S
C1078 C1079 1.434 . S
C1079 C1070 1.429 . S
C1079 N1076 1.350 . S
C1079 C1078 1.434 . S
C1080 C1081 1.369 . S
C1080 C1082 1.419 . S
C1080 H1084 0.930 . S
C1081 C1080 1.369 . S
C1081 C1090 1.429 . S
C1082 C1080 1.419 . S
C1082 C1083 1.363 . S
C1082 H1085 0.929 . S
C1083 C1082 1.363 . S
C1083 C1089 1.428 . S
H1084 C1080 0.930 . S
H1085 C1082 0.929 . S
S1086 N1087 1.613 . S
S1086 N1088 1.610 . S
N1087 S1086 1.613 . S
N1087 C1090 1.350 . S
N1088 S1086 1.610 . S
N1088 C1089 1.351 . S
C1089 C1083 1.428 . S
C1089 N1088 1.351 . S
C1089 C1090 1.434 . S
C1090 C1081 1.429 . S
C1090 N1087 1.350 . S
C1090 C1089 1.434 . S
C1091 C1092 1.369 . S
C1091 C1093 1.419 . S
C1091 H1095 0.930 . S
C1092 C1091 1.369 . S
C1092 C1101 1.429 . S
C1093 C1091 1.419 . S
C1093 C1094 1.363 . S
C1093 H1096 0.929 . S
C1094 C1093 1.363 . S
C1094 C1100 1.428 . S
H1095 C1091 0.930 . S
H1096 C1093 0.929 . S
S1097 N1098 1.613 . S
S1097 N1099 1.610 . S
N1098 S1097 1.613 . S
N1098 C1101 1.350 . S
N1099 S1097 1.610 . S
N1099 C1100 1.351 . S
C1100 C1094 1.428 . S
C1100 N1099 1.351 . S
C1100 C1101 1.434 . S
C1101 C1092 1.429 . S
C1101 N1098 1.350 . S
C1101 C1100 1.434 . S
C1102 C1103 1.369 . S
C1102 C1104 1.419 . S
C1102 H1106 0.930 . S
C1103 C1102 1.369 . S
C1103 C1112 1.429 . S
C1104 C1102 1.419 . S
C1104 C1105 1.363 . S
C1104 H1107 0.929 . S
C1105 C1104 1.363 . S
C1105 C1111 1.428 . S
H1106 C1102 0.930 . S
H1107 C1104 0.929 . S
S1108 N1109 1.613 . S
S1108 N1110 1.610 . S
N1109 S1108 1.613 . S
N1109 C1112 1.350 . S
N1110 S1108 1.610 . S
N1110 C1111 1.351 . S
C1111 C1105 1.428 . S
C1111 N1110 1.351 . S
C1111 C1112 1.434 . S
C1112 C1103 1.429 . S
C1112 N1109 1.350 . S
C1112 C1111 1.434 . S
C1113 C1114 1.369 . S
C1113 C1115 1.419 . S
C1113 H1117 0.930 . S
C1114 C1113 1.369 . S
C1114 C1123 1.429 . S
C1115 C1113 1.419 . S
C1115 C1116 1.363 . S
C1115 H1118 0.929 . S
C1116 C1115 1.363 . S
C1116 C1122 1.428 . S
H1117 C1113 0.930 . S
H1118 C1115 0.929 . S
S1119 N1120 1.613 . S
S1119 N1121 1.610 . S
N1120 S1119 1.613 . S
N1120 C1123 1.350 . S
N1121 S1119 1.610 . S
N1121 C1122 1.351 . S
C1122 C1116 1.428 . S
C1122 N1121 1.351 . S
C1122 C1123 1.434 . S
C1123 C1114 1.429 . S
C1123 N1120 1.350 . S
C1123 C1122 1.434 . S
C1124 C1125 1.369 . S
C1124 C1126 1.419 . S
C1124 H1128 0.930 . S
C1125 C1124 1.369 . S
C1125 C1134 1.429 . S
C1126 C1124 1.419 . S
C1126 C1127 1.363 . S
C1126 H1129 0.929 . S
C1127 C1126 1.363 . S
C1127 C1133 1.428 . S
H1128 C1124 0.930 . S
H1129 C1126 0.929 . S
S1130 N1131 1.613 . S
S1130 N1132 1.610 . S
N1131 S1130 1.613 . S
N1131 C1134 1.350 . S
N1132 S1130 1.610 . S
N1132 C1133 1.351 . S
C1133 C1127 1.428 . S
C1133 N1132 1.351 . S
C1133 C1134 1.434 . S
C1134 C1125 1.429 . S
C1134 N1131 1.350 . S
C1134 C1133 1.434 . S
C1135 C1136 1.369 . S
C1135 C1137 1.419 . S
C1135 H1139 0.930 . S
C1136 C1135 1.369 . S
C1136 C1145 1.429 . S
C1137 C1135 1.419 . S
C1137 C1138 1.363 . S
C1137 H1140 0.929 . S
C1138 C1137 1.363 . S
C1138 C1144 1.428 . S
H1139 C1135 0.930 . S
H1140 C1137 0.929 . S
S1141 N1142 1.613 . S
S1141 N1143 1.610 . S
N1142 S1141 1.613 . S
N1142 C1145 1.350 . S
N1143 S1141 1.610 . S
N1143 C1144 1.351 . S
C1144 C1138 1.428 . S
C1144 N1143 1.351 . S
C1144 C1145 1.434 . S
C1145 C1136 1.429 . S
C1145 N1142 1.350 . S
C1145 C1144 1.434 . S
C1146 C1147 1.369 . S
C1146 C1148 1.419 . S
C1146 H1150 0.930 . S
C1147 C1146 1.369 . S
C1147 C1156 1.429 . S
C1148 C1146 1.419 . S
C1148 C1149 1.363 . S
C1148 H1151 0.929 . S
C1149 C1148 1.363 . S
C1149 C1155 1.428 . S
H1150 C1146 0.930 . S
H1151 C1148 0.929 . S
S1152 N1153 1.613 . S
S1152 N1154 1.610 . S
N1153 S1152 1.613 . S
N1153 C1156 1.350 . S
N1154 S1152 1.610 . S
N1154 C1155 1.351 . S
C1155 C1149 1.428 . S
C1155 N1154 1.351 . S
C1155 C1156 1.434 . S
C1156 C1147 1.429 . S
C1156 N1153 1.350 . S
C1156 C1155 1.434 . S
C1157 C1158 1.369 . S
C1157 C1159 1.419 . S
C1157 H1161 0.930 . S
C1158 C1157 1.369 . S
C1158 C1167 1.429 . S
C1159 C1157 1.419 . S
C1159 C1160 1.363 . S
C1159 H1162 0.929 . S
C1160 C1159 1.363 . S
C1160 C1166 1.428 . S
H1161 C1157 0.930 . S
H1162 C1159 0.929 . S
S1163 N1164 1.613 . S
S1163 N1165 1.610 . S
N1164 S1163 1.613 . S
N1164 C1167 1.350 . S
N1165 S1163 1.610 . S
N1165 C1166 1.351 . S
C1166 C1160 1.428 . S
C1166 N1165 1.351 . S
C1166 C1167 1.434 . S
C1167 C1158 1.429 . S
C1167 N1164 1.350 . S
C1167 C1166 1.434 . S
C1168 C1169 1.369 . S
C1168 C1170 1.419 . S
C1168 H1172 0.930 . S
C1169 C1168 1.369 . S
C1169 C1178 1.429 . S
C1170 C1168 1.419 . S
C1170 C1171 1.363 . S
C1170 H1173 0.929 . S
C1171 C1170 1.363 . S
C1171 C1177 1.428 . S
H1172 C1168 0.930 . S
H1173 C1170 0.929 . S
S1174 N1175 1.613 . S
S1174 N1176 1.610 . S
N1175 S1174 1.613 . S
N1175 C1178 1.350 . S
N1176 S1174 1.610 . S
N1176 C1177 1.351 . S
C1177 C1171 1.428 . S
C1177 N1176 1.351 . S
C1177 C1178 1.434 . S
C1178 C1169 1.429 . S
C1178 N1175 1.350 . S
C1178 C1177 1.434 . S
C1179 C1180 1.369 . S
C1179 C1181 1.419 . S
C1179 H1183 0.930 . S
C1180 C1179 1.369 . S
C1180 C1189 1.429 . S
C1181 C1179 1.419 . S
C1181 C1182 1.363 . S
C1181 H1184 0.929 . S
C1182 C1181 1.363 . S
C1182 C1188 1.428 . S
H1183 C1179 0.930 . S
H1184 C1181 0.929 . S
S1185 N1186 1.613 . S
S1185 N1187 1.610 . S
N1186 S1185 1.613 . S
N1186 C1189 1.350 . S
N1187 S1185 1.610 . S
N1187 C1188 1.351 . S
C1188 C1182 1.428 . S
C1188 N1187 1.351 . S
C1188 C1189 1.434 . S
C1189 C1180 1.429 . S
C1189 N1186 1.350 . S
C1189 C1188 1.434 . S
C1190 C1191 1.369 . S
C1190 C1192 1.419 . S
C1190 H1194 0.930 . S
C1191 C1190 1.369 . S
C1191 C1200 1.429 . S
C1192 C1190 1.419 . S
C1192 C1193 1.363 . S
C1192 H1195 0.929 . S
C1193 C1192 1.363 . S
C1193 C1199 1.428 . S
H1194 C1190 0.930 . S
H1195 C1192 0.929 . S
S1196 N1197 1.613 . S
S1196 N1198 1.610 . S
N1197 S1196 1.613 . S
N1197 C1200 1.350 . S
N1198 S1196 1.610 . S
N1198 C1199 1.351 . S
C1199 C1193 1.428 . S
C1199 N1198 1.351 . S
C1199 C1200 1.434 . S
C1200 C1191 1.429 . S
C1200 N1197 1.350 . S
C1200 C1199 1.434 . S
C1201 C1202 1.369 . S
C1201 C1203 1.419 . S
C1201 H1205 0.930 . S
C1202 C1201 1.369 . S
C1202 C1211 1.429 . S
C1203 C1201 1.419 . S
C1203 C1204 1.363 . S
C1203 H1206 0.929 . S
C1204 C1203 1.363 . S
C1204 C1210 1.428 . S
H1205 C1201 0.930 . S
H1206 C1203 0.929 . S
S1207 N1208 1.613 . S
S1207 N1209 1.610 . S
N1208 S1207 1.613 . S
N1208 C1211 1.350 . S
N1209 S1207 1.610 . S
N1209 C1210 1.351 . S
C1210 C1204 1.428 . S
C1210 N1209 1.351 . S
C1210 C1211 1.434 . S
C1211 C1202 1.429 . S
C1211 N1208 1.350 . S
C1211 C1210 1.434 . S
C1212 C1213 1.369 . S
C1212 C1214 1.419 1_556 S
C1212 H1216 0.930 . S
C1213 C1212 1.369 . S
C1213 C1222 1.429 . S
C1214 C1212 1.419 1_554 S
C1214 C1215 1.363 . S
C1214 H1217 0.929 . S
C1215 C1214 1.363 . S
C1215 C1221 1.428 . S
H1216 C1212 0.930 . S
H1217 C1214 0.929 . S
S1218 N1219 1.616 1_554 S
S1218 N1220 1.608 . S
N1219 S1218 1.616 1_556 S
N1219 C1222 1.350 . S
N1220 S1218 1.608 . S
N1220 C1221 1.351 . S
C1221 C1215 1.428 . S
C1221 N1220 1.351 . S
C1221 C1222 1.434 1_554 S
C1222 C1213 1.429 . S
C1222 N1219 1.350 . S
C1222 C1221 1.434 1_556 S
C1223 C1224 1.369 . S
C1223 C1225 1.419 1_556 S
C1223 H1227 0.930 . S
C1224 C1223 1.369 . S
C1224 C1233 1.429 . S
C1225 C1223 1.419 1_554 S
C1225 C1226 1.363 . S
C1225 H1228 0.929 . S
C1226 C1225 1.363 . S
C1226 C1232 1.428 . S
H1227 C1223 0.930 . S
H1228 C1225 0.929 . S
S1229 N1230 1.616 1_554 S
S1229 N1231 1.608 . S
N1230 S1229 1.616 1_556 S
N1230 C1233 1.350 . S
N1231 S1229 1.608 . S
N1231 C1232 1.351 . S
C1232 C1226 1.428 . S
C1232 N1231 1.351 . S
C1232 C1233 1.434 1_554 S
C1233 C1224 1.429 . S
C1233 N1230 1.350 . S
C1233 C1232 1.434 1_556 S
C1234 C1235 1.369 . S
C1234 C1236 1.419 1_554 S
C1234 H1238 0.930 . S
C1235 C1234 1.369 . S
C1235 C1244 1.429 . S
C1236 C1234 1.419 1_556 S
C1236 C1237 1.363 . S
C1236 H1239 0.929 . S
C1237 C1236 1.363 . S
C1237 C1243 1.428 . S
H1238 C1234 0.930 . S
H1239 C1236 0.929 . S
S1240 N1241 1.616 1_556 S
S1240 N1242 1.608 . S
N1241 S1240 1.616 1_554 S
N1241 C1244 1.350 . S
N1242 S1240 1.608 . S
N1242 C1243 1.351 . S
C1243 C1237 1.428 . S
C1243 N1242 1.351 . S
C1243 C1244 1.434 1_556 S
C1244 C1235 1.429 . S
C1244 N1241 1.350 . S
C1244 C1243 1.434 1_554 S
C1245 C1246 1.369 . S
C1245 C1247 1.419 1_556 S
C1245 H1249 0.930 . S
C1246 C1245 1.369 . S
C1246 C1255 1.429 . S
C1247 C1245 1.419 1_554 S
C1247 C1248 1.363 . S
C1247 H1250 0.929 . S
C1248 C1247 1.363 . S
C1248 C1254 1.428 . S
H1249 C1245 0.930 . S
H1250 C1247 0.929 . S
S1251 N1252 1.616 1_554 S
S1251 N1253 1.608 . S
N1252 S1251 1.616 1_556 S
N1252 C1255 1.350 . S
N1253 S1251 1.608 . S
N1253 C1254 1.351 . S
C1254 C1248 1.428 . S
C1254 N1253 1.351 . S
C1254 C1255 1.434 1_554 S
C1255 C1246 1.429 . S
C1255 N1252 1.350 . S
C1255 C1254 1.434 1_556 S
C1256 C1257 1.369 . S
C1256 C1258 1.419 1_556 S
C1256 H1260 0.930 . S
C1257 C1256 1.369 . S
C1257 C1266 1.429 . S
C1258 C1256 1.419 1_554 S
C1258 C1259 1.363 . S
C1258 H1261 0.929 . S
C1259 C1258 1.363 . S
C1259 C1265 1.428 . S
H1260 C1256 0.930 . S
H1261 C1258 0.929 . S
S1262 N1263 1.616 1_554 S
S1262 N1264 1.608 . S
N1263 S1262 1.616 1_556 S
N1263 C1266 1.350 . S
N1264 S1262 1.608 . S
N1264 C1265 1.351 . S
C1265 C1259 1.428 . S
C1265 N1264 1.351 . S
C1265 C1266 1.434 1_554 S
C1266 C1257 1.429 . S
C1266 N1263 1.350 . S
C1266 C1265 1.434 1_556 S
C1267 C1268 1.369 . S
C1267 C1269 1.419 1_554 S
C1267 H1271 0.930 . S
C1268 C1267 1.369 . S
C1268 C1277 1.429 . S
C1269 C1267 1.419 1_556 S
C1269 C1270 1.363 . S
C1269 H1272 0.929 . S
C1270 C1269 1.363 . S
C1270 C1276 1.428 . S
H1271 C1267 0.930 . S
H1272 C1269 0.929 . S
S1273 N1274 1.616 1_556 S
S1273 N1275 1.608 . S
N1274 S1273 1.616 1_554 S
N1274 C1277 1.350 . S
N1275 S1273 1.608 . S
N1275 C1276 1.351 . S
C1276 C1270 1.428 . S
C1276 N1275 1.351 . S
C1276 C1277 1.434 1_556 S
C1277 C1268 1.429 . S
C1277 N1274 1.350 . S
C1277 C1276 1.434 1_554 S
C1278 C1279 1.369 . S
C1278 C1280 1.419 . S
C1278 H1282 0.930 . S
C1279 C1278 1.369 . S
C1279 C1288 1.429 . S
C1280 C1278 1.419 . S
C1280 C1281 1.363 . S
C1280 H1283 0.929 . S
C1281 C1280 1.363 . S
C1281 C1287 1.428 . S
H1282 C1278 0.930 . S
H1283 C1280 0.929 . S
S1284 N1285 1.613 . S
S1284 N1286 1.610 . S
N1285 S1284 1.613 . S
N1285 C1288 1.350 . S
N1286 S1284 1.610 . S
N1286 C1287 1.351 . S
C1287 C1281 1.428 . S
C1287 N1286 1.351 . S
C1287 C1288 1.434 . S
C1288 C1279 1.429 . S
C1288 N1285 1.350 . S
C1288 C1287 1.434 . S
C1289 C1290 1.369 . S
C1289 C1291 1.419 . S
C1289 H1293 0.930 . S
C1290 C1289 1.369 . S
C1290 C1299 1.429 . S
C1291 C1289 1.419 . S
C1291 C1292 1.363 . S
C1291 H1294 0.929 . S
C1292 C1291 1.363 . S
C1292 C1298 1.428 . S
H1293 C1289 0.930 . S
H1294 C1291 0.929 . S
S1295 N1296 1.613 . S
S1295 N1297 1.610 . S
N1296 S1295 1.613 . S
N1296 C1299 1.350 . S
N1297 S1295 1.610 . S
N1297 C1298 1.351 . S
C1298 C1292 1.428 . S
C1298 N1297 1.351 . S
C1298 C1299 1.434 . S
C1299 C1290 1.429 . S
C1299 N1296 1.350 . S
C1299 C1298 1.434 . S
C1300 C1301 1.369 . S
C1300 C1302 1.419 . S
C1300 H1304 0.930 . S
C1301 C1300 1.369 . S
C1301 C1310 1.429 . S
C1302 C1300 1.419 . S
C1302 C1303 1.363 . S
C1302 H1305 0.929 . S
C1303 C1302 1.363 . S
C1303 C1309 1.428 . S
H1304 C1300 0.930 . S
H1305 C1302 0.929 . S
S1306 N1307 1.613 . S
S1306 N1308 1.610 . S
N1307 S1306 1.613 . S
N1307 C1310 1.350 . S
N1308 S1306 1.610 . S
N1308 C1309 1.351 . S
C1309 C1303 1.428 . S
C1309 N1308 1.351 . S
C1309 C1310 1.434 . S
C1310 C1301 1.429 . S
C1310 N1307 1.350 . S
C1310 C1309 1.434 . S
C1311 C1312 1.369 . S
C1311 C1313 1.419 . S
C1311 H1315 0.930 . S
C1312 C1311 1.369 . S
C1312 C1321 1.429 . S
C1313 C1311 1.419 . S
C1313 C1314 1.363 . S
C1313 H1316 0.929 . S
C1314 C1313 1.363 . S
C1314 C1320 1.428 . S
H1315 C1311 0.930 . S
H1316 C1313 0.929 . S
S1317 N1318 1.613 . S
S1317 N1319 1.610 . S
N1318 S1317 1.613 . S
N1318 C1321 1.350 . S
N1319 S1317 1.610 . S
N1319 C1320 1.351 . S
C1320 C1314 1.428 . S
C1320 N1319 1.351 . S
C1320 C1321 1.434 . S
C1321 C1312 1.429 . S
C1321 N1318 1.350 . S
C1321 C1320 1.434 . S
C1322 C1323 1.369 . S
C1322 C1324 1.419 . S
C1322 H1326 0.930 . S
C1323 C1322 1.369 . S
C1323 C1332 1.429 . S
C1324 C1322 1.419 . S
C1324 C1325 1.363 . S
C1324 H1327 0.929 . S
C1325 C1324 1.363 . S
C1325 C1331 1.428 . S
H1326 C1322 0.930 . S
H1327 C1324 0.929 . S
S1328 N1329 1.613 . S
S1328 N1330 1.610 . S
N1329 S1328 1.613 . S
N1329 C1332 1.350 . S
N1330 S1328 1.610 . S
N1330 C1331 1.351 . S
C1331 C1325 1.428 . S
C1331 N1330 1.351 . S
C1331 C1332 1.434 . S
C1332 C1323 1.429 . S
C1332 N1329 1.350 . S
C1332 C1331 1.434 . S
C1333 C1334 1.369 . S
C1333 C1335 1.419 . S
C1333 H1337 0.930 . S
C1334 C1333 1.369 . S
C1334 C1343 1.429 . S
C1335 C1333 1.419 . S
C1335 C1336 1.363 . S
C1335 H1338 0.929 . S
C1336 C1335 1.363 . S
C1336 C1342 1.428 . S
H1337 C1333 0.930 . S
H1338 C1335 0.929 . S
S1339 N1340 1.613 . S
S1339 N1341 1.610 . S
N1340 S1339 1.613 . S
N1340 C1343 1.350 . S
N1341 S1339 1.610 . S
N1341 C1342 1.351 . S
C1342 C1336 1.428 . S
C1342 N1341 1.351 . S
C1342 C1343 1.434 . S
C1343 C1334 1.429 . S
C1343 N1340 1.350 . S
C1343 C1342 1.434 . S
C553 C203 2.120 . S
C555 C19 2.120 . S
C564 C42 2.119 . S
C566 C226 2.114 . S
C575 C65 2.114 . S
C577 C249 2.119 . S
C586 C88 2.119 . S
C588 C272 2.114 . S
C597 C111 2.118 . S
C599 C157 2.114 . S
C608 C180 2.120 . S
C610 C134 2.119 . S
C619 C479 2.112 . S
C621 C295 2.117 . S
C630 C502 2.119 . S
C632 C318 2.120 . S
C641 C525 2.117 . S
C643 C341 2.113 . S
C652 C364 2.121 . S
C654 C548 2.118 . S
C663 C433 2.112 . S
C665 C387 2.113 . S
C674 C456 2.112 . S
C676 C410 2.118 . S
C685 C16 2.136 . S
C687 C85 2.133 . S
C696 C108 2.129 . S
C698 C39 2.137 . S
C707 C62 2.138 . S
C709 C131 2.131 . S
C718 C154 2.130 . S
C720 C223 2.137 . S
C729 C177 2.137 . S
C731 C246 2.132 . S
C740 C200 2.130 . S
C742 C269 2.137 . S
C751 C361 2.138 . S
C753 C292 2.130 . S
C762 C315 2.129 . S
C764 C384 2.137 . S
C773 C407 2.132 . S
C775 C338 2.135 . S
C784 C430 2.130 . S
C786 C499 2.136 . S
C795 C453 2.129 . S
C797 C522 2.137 . S
C806 C545 2.134 . S
C808 C476 2.133 . S
C817 C18 0.913 . S
C819 C248 0.910 . S
C828 C271 0.913 . S
C830 C41 0.896 . S
C839 C64 0.916 . S
C841 C156 0.896 . S
C850 C87 0.900 . S
C852 C179 0.916 . S
C861 C202 0.907 . S
C863 C110 0.914 . S
C872 C225 0.897 . S
C874 C133 0.916 . S
C883 C294 0.894 . S
C885 C524 0.910 . S
C894 C317 0.907 . S
C896 C547 0.898 . S
C905 C340 0.895 . S
C907 C432 0.916 . S
C916 C363 0.904 . S
C918 C455 0.900 . S
C927 C478 0.917 . S
C929 C386 0.896 . S
C938 C501 0.893 . S
C940 C409 0.913 . S
C949 C17 1.215 . S
C951 C112 1.197 . S
C960 C135 1.190 . S
C962 C40 1.217 . S
C971 C63 1.216 . S
C973 C20 1.196 . S
C982 C43 1.190 . S
C984 C86 1.218 . S
C993 C66 1.202 . S
C995 C109 1.211 . S
C1004 C89 1.200 . S
C1006 C132 1.213 . S
C1015 C155 1.218 . S
C1017 C204 1.194 . S
C1026 C227 1.199 . S
C1028 C178 1.214 . S
C1037 C201 1.215 . S
C1039 C250 1.197 . S
C1048 C224 1.215 . S
C1050 C273 1.197 . S
C1059 C158 1.190 . S
C1061 C247 1.217 . S
C1070 C270 1.220 . S
C1072 C181 1.192 . S
C1081 C293 1.212 . S
C1083 C388 1.200 . S
C1092 C411 1.194 . S
C1094 C316 1.213 . S
C1103 C296 1.195 . S
C1105 C339 1.217 . S
C1114 C362 1.214 . S
C1116 C319 1.194 . S
C1125 C342 1.198 . S
C1127 C385 1.215 . S
C1136 C408 1.219 . S
C1138 C365 1.193 . S
C1147 C431 1.214 . S
C1149 C480 1.194 . S
C1158 C503 1.190 . S
C1160 C454 1.218 . S
C1169 C526 1.202 . S
C1171 C477 1.210 . S
C1180 C500 1.219 . S
C1182 C549 1.193 . S
C1191 C434 1.190 . S
C1193 C523 1.216 . S
C1202 C546 1.209 . S
C1204 C457 1.200 . S
C1213 C366 1.480 . S
C1215 C21 1.479 . S
C1224 C389 1.473 . S
C1226 C44 1.474 . S
C1235 C67 1.479 . S
C1237 C412 1.479 . S
C1246 C297 1.477 . S
C1248 C90 1.476 . S
C1257 C320 1.473 . S
C1259 C113 1.474 . S
C1268 C136 1.476 . S
C1270 C343 1.476 . S
C1279 C504 1.473 . S
C1281 C159 1.474 . S
C1290 C527 1.473 . S
C1292 C182 1.474 . S
C1301 C205 1.480 . S
C1303 C550 1.479 . S
C1312 C435 1.473 . S
C1314 C228 1.474 . S
C1323 C251 1.480 . S
C1325 C458 1.480 . S
C1334 C481 1.476 . S
C1336 C274 1.476 . S
