# Generated by pormake.
# Topology hbo, (4)-cn, num edge types: 1
# Building blocks:
#     Node 0, Type 0, BuildingBlock: QUQFOY_clean_sbu_1, # of connection points: 4
#     Node 1, Type 0, BuildingBlock: QUQFOY_clean_sbu_1, # of connection points: 4
#     Node 2, Type 0, BuildingBlock: QUQFOY_clean_sbu_1, # of connection points: 4
#     Node 3, Type 0, BuildingBlock: QUQFOY_clean_sbu_1, # of connection points: 4
#     Node 4, Type 0, BuildingBlock: QUQFOY_clean_sbu_1, # of connection points: 4
#     Node 5, Type 0, BuildingBlock: QUQFOY_clean_sbu_1, # of connection points: 4
#     Node 6, Type 0, BuildingBlock: QUQFOY_clean_sbu_1, # of connection points: 4
#     Node 7, Type 0, BuildingBlock: QUQFOY_clean_sbu_1, # of connection points: 4
#     Node 8, Type 0, BuildingBlock: QUQFOY_clean_sbu_1, # of connection points: 4
#     Node 9, Type 0, BuildingBlock: QUQFOY_clean_sbu_1, # of connection points: 4
#     Node 10, Type 0, BuildingBlock: QUQFOY_clean_sbu_1, # of connection points: 4
#     Node 11, Type 0, BuildingBlock: QUQFOY_clean_sbu_1, # of connection points: 4
#     Node 12, Type 0, BuildingBlock: QUQFOY_clean_sbu_1, # of connection points: 4
#     Node 13, Type 0, BuildingBlock: QUQFOY_clean_sbu_1, # of connection points: 4
#     Node 14, Type 0, BuildingBlock: QUQFOY_clean_sbu_1, # of connection points: 4
#     Node 15, Type 0, BuildingBlock: QUQFOY_clean_sbu_1, # of connection points: 4
#     Node 16, Type 0, BuildingBlock: QUQFOY_clean_sbu_1, # of connection points: 4
#     Node 17, Type 0, BuildingBlock: QUQFOY_clean_sbu_1, # of connection points: 4
#     Node 18, Type 0, BuildingBlock: QUQFOY_clean_sbu_1, # of connection points: 4
#     Node 19, Type 0, BuildingBlock: QUQFOY_clean_sbu_1, # of connection points: 4
#     Node 20, Type 0, BuildingBlock: QUQFOY_clean_sbu_1, # of connection points: 4
#     Node 21, Type 0, BuildingBlock: QUQFOY_clean_sbu_1, # of connection points: 4
#     Node 22, Type 0, BuildingBlock: QUQFOY_clean_sbu_1, # of connection points: 4
#     Node 23, Type 0, BuildingBlock: QUQFOY_clean_sbu_1, # of connection points: 4
#     Edge 24, Type (0, 0), BuildingBlock: OJICUG_clean_linker_0, # of connection points: 2
#     Edge 25, Type (0, 0), BuildingBlock: OJICUG_clean_linker_0, # of connection points: 2
#     Edge 26, Type (0, 0), BuildingBlock: OJICUG_clean_linker_0, # of connection points: 2
#     Edge 27, Type (0, 0), BuildingBlock: OJICUG_clean_linker_0, # of connection points: 2
#     Edge 28, Type (0, 0), BuildingBlock: OJICUG_clean_linker_0, # of connection points: 2
#     Edge 29, Type (0, 0), BuildingBlock: OJICUG_clean_linker_0, # of connection points: 2
#     Edge 30, Type (0, 0), BuildingBlock: OJICUG_clean_linker_0, # of connection points: 2
#     Edge 31, Type (0, 0), BuildingBlock: OJICUG_clean_linker_0, # of connection points: 2
#     Edge 32, Type (0, 0), BuildingBlock: OJICUG_clean_linker_0, # of connection points: 2
#     Edge 33, Type (0, 0), BuildingBlock: OJICUG_clean_linker_0, # of connection points: 2
#     Edge 34, Type (0, 0), BuildingBlock: OJICUG_clean_linker_0, # of connection points: 2
#     Edge 35, Type (0, 0), BuildingBlock: OJICUG_clean_linker_0, # of connection points: 2
#     Edge 36, Type (0, 0), BuildingBlock: OJICUG_clean_linker_0, # of connection points: 2
#     Edge 37, Type (0, 0), BuildingBlock: OJICUG_clean_linker_0, # of connection points: 2
#     Edge 38, Type (0, 0), BuildingBlock: OJICUG_clean_linker_0, # of connection points: 2
#     Edge 39, Type (0, 0), BuildingBlock: OJICUG_clean_linker_0, # of connection points: 2
#     Edge 40, Type (0, 0), BuildingBlock: OJICUG_clean_linker_0, # of connection points: 2
#     Edge 41, Type (0, 0), BuildingBlock: OJICUG_clean_linker_0, # of connection points: 2
#     Edge 42, Type (0, 0), BuildingBlock: OJICUG_clean_linker_0, # of connection points: 2
#     Edge 43, Type (0, 0), BuildingBlock: OJICUG_clean_linker_0, # of connection points: 2
#     Edge 44, Type (0, 0), BuildingBlock: OJICUG_clean_linker_0, # of connection points: 2
#     Edge 45, Type (0, 0), BuildingBlock: OJICUG_clean_linker_0, # of connection points: 2
#     Edge 46, Type (0, 0), BuildingBlock: OJICUG_clean_linker_0, # of connection points: 2
#     Edge 47, Type (0, 0), BuildingBlock: OJICUG_clean_linker_0, # of connection points: 2
#     Edge 48, Type (0, 0), BuildingBlock: OJICUG_clean_linker_0, # of connection points: 2
#     Edge 49, Type (0, 0), BuildingBlock: OJICUG_clean_linker_0, # of connection points: 2
#     Edge 50, Type (0, 0), BuildingBlock: OJICUG_clean_linker_0, # of connection points: 2
#     Edge 51, Type (0, 0), BuildingBlock: OJICUG_clean_linker_0, # of connection points: 2
#     Edge 52, Type (0, 0), BuildingBlock: OJICUG_clean_linker_0, # of connection points: 2
#     Edge 53, Type (0, 0), BuildingBlock: OJICUG_clean_linker_0, # of connection points: 2
#     Edge 54, Type (0, 0), BuildingBlock: OJICUG_clean_linker_0, # of connection points: 2
#     Edge 55, Type (0, 0), BuildingBlock: OJICUG_clean_linker_0, # of connection points: 2
#     Edge 56, Type (0, 0), BuildingBlock: OJICUG_clean_linker_0, # of connection points: 2
#     Edge 57, Type (0, 0), BuildingBlock: OJICUG_clean_linker_0, # of connection points: 2
#     Edge 58, Type (0, 0), BuildingBlock: OJICUG_clean_linker_0, # of connection points: 2
#     Edge 59, Type (0, 0), BuildingBlock: OJICUG_clean_linker_0, # of connection points: 2
#     Edge 60, Type (0, 0), BuildingBlock: OJICUG_clean_linker_0, # of connection points: 2
#     Edge 61, Type (0, 0), BuildingBlock: OJICUG_clean_linker_0, # of connection points: 2
#     Edge 62, Type (0, 0), BuildingBlock: OJICUG_clean_linker_0, # of connection points: 2
#     Edge 63, Type (0, 0), BuildingBlock: OJICUG_clean_linker_0, # of connection points: 2
#     Edge 64, Type (0, 0), BuildingBlock: OJICUG_clean_linker_0, # of connection points: 2
#     Edge 65, Type (0, 0), BuildingBlock: OJICUG_clean_linker_0, # of connection points: 2
#     Edge 66, Type (0, 0), BuildingBlock: OJICUG_clean_linker_0, # of connection points: 2
#     Edge 67, Type (0, 0), BuildingBlock: OJICUG_clean_linker_0, # of connection points: 2
#     Edge 68, Type (0, 0), BuildingBlock: OJICUG_clean_linker_0, # of connection points: 2
#     Edge 69, Type (0, 0), BuildingBlock: OJICUG_clean_linker_0, # of connection points: 2
#     Edge 70, Type (0, 0), BuildingBlock: OJICUG_clean_linker_0, # of connection points: 2
#     Edge 71, Type (0, 0), BuildingBlock: OJICUG_clean_linker_0, # of connection points: 2
# Relax obj value: 0.233
# Max RMSD: 0.214
# Mean RMSD: 0.214
data_MOF--net-hbo--node1-QUQFOY_clean_sbu_1--edge1-OJICUG_clean_linker_0
_symmetry_space_group_name_H-M    P1
_symmetry_Int_Tables_number       1
_symmetry_cell_setting            triclinic
loop_
_symmetry_equiv_pos_as_xyz
'x, y, z'
_cell_length_a     40.526915
_cell_length_b     40.494768
_cell_length_c     40.463773
_cell_angle_alpha  90.017189
_cell_angle_beta   90.015869
_cell_angle_gamma 90.00468
loop_
_atom_site_label
_atom_site_type_symbol
_atom_site_fract_x
_atom_site_fract_y
_atom_site_fract_z
_atom_type_partial_charge
O0 O 0.13523 0.30417 0.26852 0.0
Cd1 Cd 0.12751 0.33871 0.23188 0.0
Cd2 Cd 0.16416 0.37561 0.27092 0.0
O3 O 0.15944 0.33723 0.30433 0.0
O4 O 0.08743 0.32359 0.20763 0.0
O5 O 0.08937 0.37006 0.23635 0.0
C6 C 0.07247 0.34938 0.21888 0.0
C7 C 0.15389 0.43069 0.28435 0.0
C8 C 0.14826 0.30886 0.29671 0.0
C9 C 0.19405 0.35488 0.20604 0.0
O10 O 0.19863 0.368 0.23422 0.0
O11 O 0.16578 0.34351 0.19841 0.0
O12 O 0.1796 0.41548 0.29537 0.0
O13 O 0.13306 0.41404 0.26685 0.0
O14 O 0.13581 0.69926 0.73555 0.0
Cd15 Cd 0.12829 0.66479 0.77231 0.0
Cd16 Cd 0.16507 0.62804 0.73327 0.0
O17 O 0.16023 0.66633 0.69978 0.0
O18 O 0.08857 0.68031 0.79686 0.0
O19 O 0.08986 0.63368 0.76841 0.0
C20 C 0.07331 0.65456 0.78594 0.0
C21 C 0.15442 0.57297 0.7202 0.0
C22 C 0.14887 0.69463 0.70737 0.0
C23 C 0.19502 0.64888 0.79804 0.0
O24 O 0.19964 0.63577 0.76987 0.0
O25 O 0.1667 0.66013 0.80566 0.0
O26 O 0.18018 0.58797 0.70898 0.0
O27 O 0.13376 0.58984 0.73769 0.0
O28 O 0.8052 0.63584 0.23494 0.0
Cd29 Cd 0.83982 0.62846 0.27157 0.0
Cd30 Cd 0.8763 0.66525 0.23233 0.0
O31 O 0.83792 0.66028 0.19901 0.0
O32 O 0.82447 0.58876 0.29629 0.0
O33 O 0.87094 0.59004 0.26765 0.0
C34 C 0.85017 0.5735 0.28532 0.0
C35 C 0.93124 0.65468 0.21892 0.0
C36 C 0.8097 0.64886 0.20671 0.0
C37 C 0.85581 0.69527 0.29716 0.0
O38 O 0.86875 0.69989 0.26892 0.0
O39 O 0.84462 0.66694 0.30485 0.0
O40 O 0.91613 0.68043 0.20778 0.0
O41 O 0.91455 0.634 0.23655 0.0
O42 O 0.80397 0.36944 0.76975 0.0
Cd43 Cd 0.83842 0.37697 0.73302 0.0
Cd44 Cd 0.87514 0.33998 0.77188 0.0
O45 O 0.83689 0.3448 0.80536 0.0
O46 O 0.82334 0.41706 0.70876 0.0
O47 O 0.86988 0.41507 0.73727 0.0
C48 C 0.8492 0.43199 0.71985 0.0
C49 C 0.9302 0.34999 0.7854 0.0
C50 C 0.80862 0.35626 0.79787 0.0
C51 C 0.85413 0.3103 0.70698 0.0
O52 O 0.86732 0.30558 0.73509 0.0
O53 O 0.84287 0.33866 0.69949 0.0
O54 O 0.91488 0.32427 0.79629 0.0
O55 O 0.91368 0.37095 0.76793 0.0
O56 O 0.23295 0.19906 0.36783 0.0
Cd57 Cd 0.26998 0.16509 0.37597 0.0
Cd58 Cd 0.23217 0.1278 0.33842 0.0
O59 O 0.1982 0.16573 0.3425 0.0
O60 O 0.2937 0.18112 0.41603 0.0
O61 O 0.26609 0.13403 0.41452 0.0
C62 C 0.28305 0.15525 0.43125 0.0
C63 C 0.21932 0.07258 0.34861 0.0
C64 C 0.20517 0.1941 0.35409 0.0
C65 C 0.29706 0.14954 0.3096 0.0
O66 O 0.26926 0.13593 0.3045 0.0
O67 O 0.30398 0.16099 0.33806 0.0
O68 O 0.20857 0.0876 0.32263 0.0
O69 O 0.23623 0.0895 0.36973 0.0
O70 O 0.36799 0.76989 0.80506 0.0
Cd71 Cd 0.3761 0.73282 0.83905 0.0
Cd72 Cd 0.33901 0.77083 0.87658 0.0
O73 O 0.34301 0.80474 0.83856 0.0
O74 O 0.41611 0.70898 0.82321 0.0
O75 O 0.41448 0.73676 0.87026 0.0
C76 C 0.43123 0.71968 0.84916 0.0
C77 C 0.34937 0.7839 0.93176 0.0
C78 C 0.3544 0.79774 0.8101 0.0
C79 C 0.30984 0.70597 0.855 0.0
O80 O 0.30496 0.7338 0.86869 0.0
O81 O 0.33813 0.69895 0.84333 0.0
O82 O 0.32342 0.79466 0.91675 0.0
O83 O 0.37036 0.76684 0.91486 0.0
O84 O 0.77124 0.80501 0.36837 0.0
Cd85 Cd 0.73409 0.83888 0.37641 0.0
Cd86 Cd 0.77178 0.87619 0.3388 0.0
O87 O 0.80581 0.83835 0.34288 0.0
O88 O 0.71045 0.82296 0.41656 0.0
O89 O 0.73793 0.87012 0.41485 0.0
C90 C 0.72105 0.84894 0.43167 0.0
C91 C 0.78471 0.93139 0.34894 0.0
C92 C 0.79896 0.81001 0.35458 0.0
C93 C 0.70693 0.85421 0.31 0.0
O94 O 0.73467 0.86795 0.30489 0.0
O95 O 0.70009 0.84275 0.33846 0.0
O96 O 0.79538 0.91634 0.32295 0.0
O97 O 0.76778 0.91453 0.37008 0.0
O98 O 0.63506 0.23638 0.80482 0.0
Cd99 Cd 0.62724 0.27332 0.83903 0.0
Cd100 Cd 0.66419 0.23492 0.87629 0.0
O101 O 0.65972 0.20117 0.83815 0.0
O102 O 0.5872 0.29734 0.82356 0.0
O103 O 0.58904 0.26922 0.8704 0.0
C104 C 0.5722 0.28645 0.84948 0.0
C105 C 0.6542 0.22168 0.93149 0.0
C106 C 0.64837 0.20838 0.80974 0.0
C107 C 0.69366 0.29973 0.85493 0.0
O108 O 0.69842 0.27177 0.86839 0.0
O109 O 0.66536 0.30701 0.84342 0.0
O110 O 0.67997 0.21085 0.91624 0.0
O111 O 0.63316 0.23891 0.91483 0.0
O112 O 0.26846 0.86838 0.70074 0.0
Cd113 Cd 0.2316 0.87629 0.66651 0.0
Cd114 Cd 0.26999 0.83943 0.62919 0.0
O115 O 0.30371 0.84387 0.66734 0.0
O116 O 0.20766 0.91638 0.68203 0.0
O117 O 0.23578 0.91458 0.63521 0.0
C118 C 0.2186 0.93143 0.65616 0.0
C119 C 0.28329 0.84934 0.57398 0.0
C120 C 0.29646 0.85513 0.69579 0.0
C121 C 0.20524 0.80984 0.6505 0.0
O122 O 0.2332 0.80513 0.63706 0.0
O123 O 0.19793 0.83815 0.66202 0.0
O124 O 0.2941 0.82359 0.5893 0.0
O125 O 0.26605 0.87042 0.59059 0.0
O126 O 0.69902 0.73301 0.13662 0.0
Cd127 Cd 0.66473 0.76987 0.12902 0.0
Cd128 Cd 0.62803 0.73136 0.16639 0.0
O129 O 0.66615 0.69774 0.16179 0.0
O130 O 0.68031 0.79412 0.08909 0.0
O131 O 0.63352 0.76603 0.09059 0.0
C132 C 0.65447 0.78335 0.0739 0.0
C133 C 0.573 0.71813 0.156 0.0
C134 C 0.69437 0.70504 0.15011 0.0
C135 C 0.64926 0.79623 0.19575 0.0
O136 O 0.63596 0.76823 0.20066 0.0
O137 O 0.66048 0.8035 0.16729 0.0
O138 O 0.58807 0.70724 0.18189 0.0
O139 O 0.58975 0.73546 0.13511 0.0
O140 O 0.73338 0.13706 0.70021 0.0
Cd141 Cd 0.77034 0.12901 0.66611 0.0
Cd142 Cd 0.73214 0.16603 0.62873 0.0
O143 O 0.69835 0.16189 0.66681 0.0
O144 O 0.79434 0.08911 0.68202 0.0
O145 O 0.76647 0.09047 0.63503 0.0
C146 C 0.78364 0.07385 0.65616 0.0
C147 C 0.71909 0.15556 0.57356 0.0
C148 C 0.70549 0.15054 0.69525 0.0
C149 C 0.79692 0.19542 0.65009 0.0
O150 O 0.76903 0.20024 0.63655 0.0
O151 O 0.80407 0.1671 0.66168 0.0
O152 O 0.70824 0.18149 0.58856 0.0
O153 O 0.73623 0.13464 0.59047 0.0
O154 O 0.30477 0.27035 0.13629 0.0
Cd155 Cd 0.33917 0.2336 0.12867 0.0
Cd156 Cd 0.3758 0.27222 0.16603 0.0
O157 O 0.3376 0.30577 0.16132 0.0
O158 O 0.32375 0.20935 0.08868 0.0
O159 O 0.37042 0.23762 0.09033 0.0
C160 C 0.34957 0.22025 0.07357 0.0
C161 C 0.43089 0.28547 0.1559 0.0
C162 C 0.30938 0.29837 0.14968 0.0
C163 C 0.35469 0.20731 0.19536 0.0
O164 O 0.36788 0.23536 0.20029 0.0
O165 O 0.34353 0.19997 0.16689 0.0
O166 O 0.4157 0.29638 0.1817 0.0
O167 O 0.41421 0.26816 0.13491 0.0
O168 O 0.86888 0.7004 0.73661 0.0
Cd169 Cd 0.87652 0.66588 0.77329 0.0
Cd170 Cd 0.83987 0.62896 0.73425 0.0
O171 O 0.84459 0.66735 0.70086 0.0
O172 O 0.91652 0.68099 0.79764 0.0
O173 O 0.91465 0.63449 0.76898 0.0
C174 C 0.93149 0.65517 0.78649 0.0
C175 C 0.85 0.57392 0.7206 0.0
C176 C 0.85582 0.6957 0.70843 0.0
C177 C 0.80995 0.64971 0.79911 0.0
O178 O 0.80538 0.63654 0.77095 0.0
O179 O 0.8382 0.66113 0.80671 0.0
O180 O 0.8243 0.58923 0.70968 0.0
O181 O 0.87088 0.59045 0.73815 0.0
O182 O 0.86805 0.30534 0.27069 0.0
Cd183 Cd 0.87566 0.33976 0.23391 0.0
Cd184 Cd 0.83887 0.3766 0.27285 0.0
O185 O 0.8435 0.33831 0.30633 0.0
O186 O 0.91533 0.32413 0.20935 0.0
O187 O 0.91416 0.37081 0.23772 0.0
C188 C 0.93064 0.34988 0.22018 0.0
C189 C 0.84963 0.43161 0.28606 0.0
C190 C 0.85487 0.31 0.29881 0.0
C191 C 0.80901 0.35586 0.20802 0.0
O192 O 0.80436 0.36902 0.23616 0.0
O193 O 0.8373 0.34449 0.2005 0.0
O194 O 0.8238 0.41665 0.29718 0.0
O195 O 0.87028 0.41472 0.26858 0.0
O196 O 0.19816 0.36825 0.77145 0.0
Cd197 Cd 0.16387 0.37593 0.73457 0.0
Cd198 Cd 0.12709 0.33872 0.77316 0.0
O199 O 0.16523 0.34329 0.80682 0.0
O200 O 0.17959 0.41574 0.71025 0.0
O201 O 0.13282 0.41444 0.73837 0.0
C202 C 0.15381 0.43102 0.72101 0.0
C203 C 0.07205 0.3493 0.78617 0.0
C204 C 0.19349 0.35486 0.79947 0.0
C205 C 0.14818 0.30929 0.70826 0.0
O206 O 0.13494 0.30442 0.73631 0.0
O207 O 0.15945 0.3377 0.70094 0.0
O208 O 0.087 0.32342 0.79721 0.0
O209 O 0.08895 0.3701 0.76888 0.0
O210 O 0.19913 0.63526 0.2342 0.0
Cd211 Cd 0.16474 0.62769 0.271 0.0
Cd212 Cd 0.12806 0.66484 0.23223 0.0
O213 O 0.16626 0.66011 0.1987 0.0
O214 O 0.18008 0.58772 0.2953 0.0
O215 O 0.13344 0.58942 0.26695 0.0
C216 C 0.15425 0.57265 0.28435 0.0
C217 C 0.07304 0.65451 0.21889 0.0
C218 C 0.1945 0.64856 0.20613 0.0
C219 C 0.14907 0.69439 0.29715 0.0
O220 O 0.13587 0.69919 0.26905 0.0
O221 O 0.16031 0.66599 0.30456 0.0
O222 O 0.08817 0.68031 0.20794 0.0
O223 O 0.08974 0.63365 0.23632 0.0
O224 O 0.77105 0.80532 0.63725 0.0
Cd225 Cd 0.73397 0.83924 0.62912 0.0
Cd226 Cd 0.77179 0.8766 0.66658 0.0
O227 O 0.8058 0.83873 0.66246 0.0
O228 O 0.71028 0.82326 0.589 0.0
O229 O 0.73788 0.87036 0.59062 0.0
C230 C 0.72095 0.84916 0.57383 0.0
C231 C 0.78455 0.93183 0.65638 0.0
C232 C 0.79885 0.81033 0.65092 0.0
C233 C 0.70697 0.8548 0.69553 0.0
O234 O 0.73478 0.86843 0.70057 0.0
O235 O 0.70001 0.84333 0.66708 0.0
O236 O 0.79536 0.91682 0.68233 0.0
O237 O 0.76762 0.9149 0.63528 0.0
O238 O 0.63586 0.2354 0.20026 0.0
Cd239 Cd 0.62788 0.27249 0.16628 0.0
Cd240 Cd 0.66499 0.23444 0.12883 0.0
O241 O 0.66081 0.2005 0.1668 0.0
O242 O 0.58784 0.29634 0.18204 0.0
O243 O 0.58956 0.26856 0.13499 0.0
C244 C 0.57276 0.28562 0.15608 0.0
C245 C 0.65471 0.22145 0.0736 0.0
C246 C 0.64938 0.20752 0.19523 0.0
C247 C 0.69422 0.29923 0.15054 0.0
O248 O 0.69908 0.27139 0.13686 0.0
O249 O 0.6659 0.30632 0.16212 0.0
O250 O 0.68061 0.21064 0.08864 0.0
O251 O 0.63372 0.23853 0.09049 0.0
O252 O 0.23332 0.19999 0.63674 0.0
Cd253 Cd 0.27034 0.16601 0.62862 0.0
Cd254 Cd 0.23251 0.1286 0.66598 0.0
O255 O 0.19861 0.16657 0.66195 0.0
O256 O 0.29399 0.18174 0.58843 0.0
O257 O 0.26628 0.13471 0.59028 0.0
C258 C 0.28325 0.15578 0.57338 0.0
C259 C 0.21925 0.07343 0.65597 0.0
C260 C 0.20555 0.19497 0.65044 0.0
C261 C 0.29741 0.15031 0.69495 0.0
O262 O 0.26963 0.13661 0.69994 0.0
O263 O 0.30432 0.16191 0.66656 0.0
O264 O 0.20869 0.08861 0.68193 0.0
O265 O 0.23626 0.09014 0.63479 0.0
O266 O 0.36831 0.76783 0.20048 0.0
Cd267 Cd 0.37613 0.73114 0.166 0.0
Cd268 Cd 0.33949 0.76997 0.12893 0.0
O269 O 0.34403 0.80345 0.1673 0.0
O270 O 0.41602 0.70687 0.18147 0.0
O271 O 0.41447 0.73536 0.13484 0.0
C272 C 0.43117 0.71792 0.1557 0.0
C273 C 0.34972 0.78346 0.07383 0.0
C274 C 0.3552 0.79595 0.19571 0.0
C275 C 0.30968 0.70512 0.14967 0.0
O276 O 0.30506 0.73322 0.13648 0.0
O277 O 0.33793 0.69762 0.16116 0.0
O278 O 0.32397 0.79436 0.08907 0.0
O279 O 0.37062 0.76604 0.09048 0.0
O280 O 0.73479 0.13657 0.30482 0.0
Cd281 Cd 0.77155 0.12855 0.33914 0.0
Cd282 Cd 0.7331 0.16542 0.37638 0.0
O283 O 0.6995 0.16114 0.33812 0.0
O284 O 0.79559 0.08859 0.32345 0.0
O285 O 0.7674 0.09009 0.37024 0.0
C286 C 0.78466 0.07339 0.34924 0.0
C287 C 0.71965 0.15521 0.43149 0.0
C288 C 0.70681 0.14989 0.30969 0.0
C289 C 0.79796 0.19493 0.3554 0.0
O290 O 0.76998 0.19969 0.36875 0.0
O291 O 0.80524 0.16663 0.34382 0.0
O292 O 0.7089 0.18106 0.41629 0.0
O293 O 0.73693 0.13422 0.41481 0.0
O294 O 0.30425 0.27014 0.86899 0.0
Cd295 Cd 0.33884 0.23354 0.87647 0.0
Cd296 Cd 0.37535 0.27254 0.83947 0.0
O297 O 0.337 0.3059 0.84437 0.0
O298 O 0.32365 0.2091 0.91643 0.0
O299 O 0.37013 0.23769 0.91477 0.0
C300 C 0.34942 0.22017 0.93153 0.0
C301 C 0.43036 0.286 0.84975 0.0
C302 C 0.30878 0.29828 0.85584 0.0
C303 C 0.35459 0.20769 0.80968 0.0
O304 O 0.36762 0.23585 0.80496 0.0
O305 O 0.34344 0.20012 0.83808 0.0
O306 O 0.41513 0.297 0.824 0.0
O307 O 0.41376 0.26848 0.8706 0.0
O308 O 0.27025 0.86723 0.30526 0.0
Cd309 Cd 0.23312 0.87532 0.33916 0.0
Cd310 Cd 0.27097 0.83804 0.37664 0.0
O311 O 0.30497 0.84207 0.33873 0.0
O312 O 0.20933 0.91529 0.32308 0.0
O313 O 0.23688 0.91388 0.37025 0.0
C314 C 0.2199 0.93054 0.349 0.0
C315 C 0.2838 0.84848 0.43187 0.0
C316 C 0.29803 0.85357 0.3103 0.0
C317 C 0.20622 0.80894 0.35483 0.0
O318 O 0.234 0.80399 0.36856 0.0
O319 O 0.19925 0.83731 0.34326 0.0
O320 O 0.29461 0.82249 0.41694 0.0
O321 O 0.26681 0.86946 0.41487 0.0
O322 O 0.69931 0.7342 0.86895 0.0
Cd323 Cd 0.66494 0.77096 0.87665 0.0
Cd324 Cd 0.62826 0.73236 0.83934 0.0
O325 O 0.6664 0.69874 0.84406 0.0
O326 O 0.68033 0.79506 0.91676 0.0
O327 O 0.63367 0.76678 0.91496 0.0
C328 C 0.65452 0.78406 0.93182 0.0
C329 C 0.57312 0.71928 0.84943 0.0
C330 C 0.69466 0.70616 0.85561 0.0
C331 C 0.64944 0.79723 0.80996 0.0
O332 O 0.63626 0.76917 0.80506 0.0
O333 O 0.66057 0.80462 0.83843 0.0
O334 O 0.5883 0.70829 0.82365 0.0
O335 O 0.58984 0.73655 0.87042 0.0
C336 C 0.17405 0.51887 0.30728 0.0
C337 C 0.15049 0.53657 0.28896 0.0
H338 H 0.19334 0.47157 0.32052 0.0
C339 C 0.1255 0.51903 0.27241 0.0
H340 H 0.1935 0.53161 0.32051 0.0
C341 C 0.12541 0.48444 0.27241 0.0
C342 C 0.15031 0.46679 0.28897 0.0
H343 H 0.10692 0.53194 0.25816 0.0
H344 H 0.10676 0.47161 0.25817 0.0
C345 C 0.17396 0.48439 0.30728 0.0
C346 C 0.98536 0.67477 0.80933 0.0
C347 C 0.96755 0.6513 0.79098 0.0
H348 H 0.03272 0.69395 0.82246 0.0
C349 C 0.98495 0.62633 0.77427 0.0
H350 H 0.97273 0.69421 0.82269 0.0
C351 C 0.01951 0.62618 0.77414 0.0
C352 C 0.03726 0.651 0.79072 0.0
H353 H 0.97195 0.60781 0.76 0.0
H354 H 0.03223 0.60754 0.75977 0.0
C355 C 0.01981 0.67463 0.8092 0.0
C356 C 0.83012 0.48552 0.30893 0.0
C357 C 0.85352 0.46769 0.29054 0.0
H358 H 0.81097 0.53292 0.32203 0.0
C359 C 0.87843 0.48509 0.27376 0.0
H360 H 0.81075 0.47288 0.32235 0.0
C361 C 0.87856 0.51967 0.27358 0.0
C362 C 0.85378 0.53744 0.29017 0.0
H363 H 0.8969 0.47207 0.25946 0.0
H364 H 0.89713 0.53239 0.25914 0.0
C365 C 0.83025 0.51999 0.30875 0.0
C366 C 0.0186 0.37817 0.77394 0.0
C367 C 0.03597 0.35312 0.79056 0.0
H368 H 0.97135 0.39705 0.75945 0.0
C369 C 0.01813 0.32956 0.80875 0.0
H370 H 0.03163 0.39675 0.75979 0.0
C371 C 0.98368 0.32973 0.80855 0.0
C372 C 0.96626 0.35346 0.79017 0.0
H373 H 0.03074 0.31007 0.82203 0.0
H374 H 0.97075 0.31036 0.8217 0.0
C375 C 0.98405 0.37834 0.77375 0.0
C376 C 0.12546 0.48489 0.73268 0.0
C377 C 0.15031 0.4671 0.71622 0.0
H378 H 0.10705 0.53251 0.74665 0.0
C379 C 0.17398 0.48453 0.6978 0.0
H380 H 0.10679 0.47218 0.747 0.0
C381 C 0.17412 0.51901 0.69759 0.0
C382 C 0.1506 0.53686 0.71581 0.0
H383 H 0.19332 0.47159 0.68463 0.0
H384 H 0.19357 0.53163 0.68427 0.0
C385 C 0.1256 0.51947 0.73247 0.0
C386 C 0.98493 0.67443 0.19584 0.0
C387 C 0.96728 0.65092 0.21427 0.0
H388 H 0.03217 0.69375 0.18253 0.0
C389 C 0.98483 0.62601 0.23092 0.0
H390 H 0.97218 0.69381 0.18253 0.0
C391 C 0.01938 0.62597 0.23091 0.0
C392 C 0.03698 0.65084 0.21427 0.0
H393 H 0.97195 0.60746 0.24524 0.0
H394 H 0.03223 0.60739 0.24524 0.0
C395 C 0.01938 0.67439 0.19584 0.0
C396 C 0.82985 0.52042 0.6973 0.0
C397 C 0.8535 0.53784 0.71578 0.0
H398 H 0.81021 0.47333 0.68376 0.0
C399 C 0.8783 0.52003 0.7323 0.0
H400 H 0.81054 0.53337 0.68408 0.0
C401 C 0.87811 0.48544 0.73211 0.0
C402 C 0.85311 0.46807 0.71541 0.0
H403 H 0.89695 0.53272 0.74667 0.0
H404 H 0.89661 0.4724 0.74635 0.0
C405 C 0.82966 0.48594 0.69711 0.0
C406 C 0.9845 0.37829 0.23169 0.0
C407 C 0.96668 0.35343 0.21526 0.0
H408 H 0.03211 0.39674 0.24553 0.0
C409 C 0.98405 0.32979 0.19672 0.0
H410 H 0.97184 0.39694 0.2461 0.0
C411 C 0.0185 0.32968 0.19638 0.0
C412 C 0.03639 0.3532 0.21459 0.0
H413 H 0.97108 0.31043 0.18356 0.0
H414 H 0.03107 0.31023 0.18298 0.0
C415 C 0.01905 0.37818 0.23136 0.0
C416 C 0.30564 0.17589 0.51947 0.0
C417 C 0.28768 0.15211 0.53724 0.0
H418 H 0.31859 0.19527 0.4721 0.0
C419 C 0.27138 0.12692 0.51974 0.0
H420 H 0.31867 0.1955 0.53218 0.0
C421 C 0.27134 0.12678 0.48512 0.0
C422 C 0.28758 0.15184 0.46741 0.0
H423 H 0.2574 0.10817 0.53271 0.0
H424 H 0.25732 0.10794 0.47231 0.0
C425 C 0.30559 0.17576 0.48497 0.0
C426 C 0.37814 0.77186 0.98539 0.0
C427 C 0.3531 0.78837 0.96789 0.0
H428 H 0.39693 0.75755 0.03279 0.0
C429 C 0.32948 0.80652 0.98567 0.0
H430 H 0.39677 0.75774 0.97241 0.0
C431 C 0.32957 0.80643 0.02017 0.0
C432 C 0.35329 0.78816 0.03772 0.0
H433 H 0.30999 0.81972 0.97297 0.0
H434 H 0.31015 0.81955 0.03305 0.0
C435 C 0.37823 0.77176 0.02 0.0
C436 C 0.73272 0.87771 0.48542 0.0
C437 C 0.71654 0.8525 0.46782 0.0
H438 H 0.74661 0.89664 0.53291 0.0
C439 C 0.69864 0.82862 0.4855 0.0
H440 H 0.74665 0.89654 0.47252 0.0
C441 C 0.69861 0.82867 0.52001 0.0
C442 C 0.71649 0.85262 0.53766 0.0
H443 H 0.6857 0.80898 0.47273 0.0
H444 H 0.68566 0.80908 0.53281 0.0
C445 C 0.73269 0.87777 0.52003 0.0
C446 C 0.6259 0.23339 0.01997 0.0
C447 C 0.65101 0.21699 0.03746 0.0
H448 H 0.607 0.24755 0.97256 0.0
C449 C 0.6747 0.19892 0.01969 0.0
H450 H 0.60722 0.24745 0.03295 0.0
C451 C 0.67457 0.19897 0.98518 0.0
C452 C 0.65075 0.2171 0.96764 0.0
H453 H 0.69424 0.18581 0.03239 0.0
H454 H 0.69402 0.1859 0.97231 0.0
C455 C 0.62577 0.23344 0.98536 0.0
C456 C 0.30624 0.82867 0.48588 0.0
C457 C 0.28817 0.85229 0.46801 0.0
H458 H 0.31921 0.80948 0.53333 0.0
C459 C 0.2717 0.87743 0.48541 0.0
H460 H 0.31941 0.8091 0.47325 0.0
C461 C 0.27158 0.87764 0.52002 0.0
C462 C 0.28793 0.85272 0.53784 0.0
H463 H 0.25763 0.89606 0.47236 0.0
H464 H 0.25742 0.89643 0.53275 0.0
C465 C 0.30613 0.82889 0.52038 0.0
C466 C 0.67447 0.80644 0.02025 0.0
C467 C 0.65083 0.7881 0.03779 0.0
H468 H 0.69392 0.81989 0.97304 0.0
C469 C 0.62587 0.77169 0.02008 0.0
H470 H 0.6939 0.81958 0.03312 0.0
C471 C 0.62588 0.77187 0.98547 0.0
C472 C 0.65085 0.78847 0.96796 0.0
H473 H 0.60723 0.75742 0.03288 0.0
H474 H 0.60724 0.75773 0.9725 0.0
C475 C 0.67448 0.80663 0.98574 0.0
C476 C 0.6965 0.17542 0.51964 0.0
C477 C 0.71466 0.15181 0.53743 0.0
H478 H 0.6835 0.19475 0.47225 0.0
C479 C 0.7312 0.12677 0.51995 0.0
H480 H 0.68326 0.1949 0.53233 0.0
C481 C 0.73134 0.12669 0.48533 0.0
C482 C 0.71493 0.15163 0.4676 0.0
H483 H 0.74534 0.10815 0.53293 0.0
H484 H 0.74558 0.108 0.47255 0.0
C485 C 0.69663 0.17534 0.48514 0.0
C486 C 0.32971 0.19719 0.01983 0.0
C487 C 0.35325 0.21562 0.03746 0.0
H488 H 0.31032 0.18384 0.97255 0.0
C489 C 0.3781 0.23225 0.01983 0.0
H490 H 0.31038 0.18389 0.03263 0.0
C491 C 0.37806 0.23223 0.98522 0.0
C492 C 0.35318 0.21557 0.96764 0.0
H493 H 0.39666 0.24658 0.0327 0.0
H494 H 0.3966 0.24654 0.97232 0.0
C495 C 0.32968 0.19716 0.98532 0.0
C496 C 0.51901 0.30823 0.1762 0.0
C497 C 0.53668 0.29013 0.15244 0.0
H498 H 0.47176 0.32128 0.19567 0.0
C499 C 0.51915 0.27374 0.12733 0.0
H500 H 0.53175 0.32134 0.19575 0.0
C501 C 0.48459 0.2737 0.12728 0.0
C502 C 0.46697 0.29006 0.15235 0.0
H503 H 0.53204 0.25966 0.10859 0.0
H504 H 0.47176 0.2596 0.10851 0.0
C505 C 0.48456 0.3082 0.17615 0.0
C506 C 0.51937 0.69681 0.82909 0.0
C507 C 0.53702 0.71485 0.85294 0.0
H508 H 0.47214 0.68389 0.80944 0.0
C509 C 0.51944 0.73127 0.87799 0.0
H510 H 0.53213 0.68369 0.80958 0.0
C511 C 0.48488 0.73137 0.87792 0.0
C512 C 0.4673 0.71507 0.85278 0.0
H513 H 0.53232 0.7453 0.89679 0.0
H514 H 0.47203 0.74549 0.89666 0.0
C515 C 0.48492 0.69693 0.82901 0.0
C516 C 0.8073 0.9852 0.32886 0.0
C517 C 0.78919 0.9675 0.35259 0.0
H518 H 0.8204 0.03249 0.30946 0.0
C519 C 0.77281 0.98504 0.3777 0.0
H520 H 0.8204 0.97246 0.30932 0.0
C521 C 0.77281 0.01963 0.37778 0.0
C522 C 0.78919 0.03727 0.35275 0.0
H523 H 0.75873 0.97212 0.39642 0.0
H524 H 0.75871 0.03247 0.39655 0.0
C525 C 0.8073 0.01968 0.32894 0.0
C526 C 0.48394 0.30909 0.8297 0.0
C527 C 0.46642 0.29071 0.85336 0.0
H528 H 0.53108 0.32247 0.81018 0.0
C529 C 0.4841 0.27422 0.87828 0.0
H530 H 0.47109 0.32228 0.8103 0.0
C531 C 0.51865 0.27433 0.87822 0.0
C532 C 0.53613 0.29093 0.85322 0.0
H533 H 0.47132 0.25993 0.89694 0.0
H534 H 0.5316 0.26012 0.89683 0.0
C535 C 0.51839 0.30919 0.82963 0.0
C536 C 0.23141 0.9844 0.37756 0.0
C537 C 0.21527 0.96666 0.35242 0.0
H538 H 0.24517 0.03198 0.39628 0.0
C539 C 0.19727 0.98417 0.32846 0.0
H540 H 0.24542 0.97164 0.39644 0.0
C541 C 0.19712 0.01865 0.32837 0.0
C542 C 0.21498 0.03645 0.35224 0.0
H543 H 0.18436 0.97128 0.30888 0.0
H544 H 0.1841 0.03131 0.30872 0.0
C545 C 0.23126 0.01899 0.37747 0.0
C546 C 0.51939 0.73005 0.12727 0.0
C547 C 0.53695 0.71351 0.15226 0.0
H548 H 0.47199 0.74424 0.10854 0.0
C549 C 0.5193 0.69514 0.17582 0.0
H550 H 0.53227 0.74434 0.10868 0.0
C551 C 0.48485 0.69507 0.17574 0.0
C552 C 0.46724 0.71338 0.15209 0.0
H553 H 0.53205 0.6819 0.19526 0.0
H554 H 0.47206 0.68179 0.19512 0.0
C555 C 0.48484 0.72999 0.12719 0.0
C556 C 0.80674 0.98578 0.67657 0.0
C557 C 0.78882 0.96797 0.65276 0.0
H558 H 0.81947 0.03316 0.69607 0.0
C559 C 0.77239 0.98541 0.62762 0.0
H560 H 0.81986 0.97312 0.69615 0.0
C561 C 0.77215 0.02 0.62757 0.0
C562 C 0.78835 0.03775 0.65267 0.0
H563 H 0.75844 0.97241 0.60885 0.0
H564 H 0.75804 0.03275 0.60877 0.0
C565 C 0.80651 0.02026 0.67653 0.0
C566 C 0.23084 0.01962 0.62737 0.0
C567 C 0.21456 0.03733 0.65243 0.0
H568 H 0.24469 0.97207 0.60868 0.0
C569 C 0.19638 0.0198 0.67622 0.0
H570 H 0.24498 0.03241 0.6086 0.0
C571 C 0.1962 0.98532 0.67626 0.0
C572 C 0.21422 0.96756 0.6525 0.0
H573 H 0.18335 0.03267 0.69573 0.0
H574 H 0.18305 0.97264 0.6958 0.0
C575 C 0.23067 0.98504 0.62741 0.0
C576 C 0.17817 0.28271 0.34418 0.0
C577 C 0.1556 0.27992 0.31795 0.0
H578 H 0.21131 0.25752 0.37669 0.0
C579 C 0.14454 0.24828 0.30874 0.0
H580 H 0.18699 0.30667 0.35216 0.0
C581 C 0.15844 0.22002 0.3229 0.0
C582 C 0.1838 0.22284 0.34644 0.0
H583 H 0.12682 0.24523 0.28892 0.0
H584 H 0.15112 0.19608 0.31347 0.0
C585 C 0.19218 0.25445 0.35823 0.0
C586 C 0.24954 0.69302 0.85931 0.0
C587 C 0.28108 0.68457 0.8475 0.0
H588 H 0.19735 0.68784 0.85335 0.0
C589 C 0.28384 0.65908 0.82407 0.0
H590 H 0.24653 0.71224 0.87769 0.0
C591 C 0.25556 0.64512 0.81002 0.0
C592 C 0.22398 0.65626 0.81922 0.0
H593 H 0.30773 0.65169 0.81464 0.0
H594 H 0.25855 0.62731 0.79027 0.0
C595 C 0.22126 0.67895 0.84537 0.0
C596 C 0.8595 0.75588 0.30907 0.0
C597 C 0.84856 0.72425 0.31839 0.0
H598 H 0.85282 0.80808 0.31372 0.0
C599 C 0.82617 0.72147 0.34477 0.0
H600 H 0.87708 0.75893 0.28914 0.0
C601 C 0.81217 0.74973 0.35884 0.0
C602 C 0.8204 0.78132 0.34692 0.0
H603 H 0.81746 0.69751 0.35285 0.0
H604 H 0.79317 0.74666 0.37741 0.0
C605 C 0.84562 0.78414 0.32325 0.0
C606 C 0.78236 0.32621 0.84517 0.0
C607 C 0.7797 0.34902 0.81913 0.0
H608 H 0.757 0.29295 0.87741 0.0
C609 C 0.74816 0.36042 0.81009 0.0
H610 H 0.80625 0.31713 0.85302 0.0
C611 C 0.71984 0.34659 0.82417 0.0
C612 C 0.72251 0.32099 0.84745 0.0
H613 H 0.74522 0.37833 0.79043 0.0
H614 H 0.69596 0.35418 0.81484 0.0
C615 C 0.75404 0.31227 0.85914 0.0
C616 C 0.15843 0.78353 0.6812 0.0
C617 C 0.18404 0.78092 0.65792 0.0
H618 H 0.12674 0.75804 0.71489 0.0
C619 C 0.19279 0.74939 0.6462 0.0
H620 H 0.15082 0.8074 0.69055 0.0
C621 C 0.17889 0.72101 0.66012 0.0
C622 C 0.15608 0.72361 0.68615 0.0
H623 H 0.21211 0.74649 0.62793 0.0
H624 H 0.188 0.69713 0.65224 0.0
C625 C 0.14465 0.75515 0.69523 0.0
C626 C 0.75473 0.69254 0.14556 0.0
C627 C 0.72328 0.68382 0.15743 0.0
H628 H 0.80697 0.68779 0.15143 0.0
C629 C 0.72078 0.65826 0.1808 0.0
H630 H 0.75755 0.71182 0.12722 0.0
C631 C 0.74919 0.64452 0.19477 0.0
C632 C 0.78066 0.65596 0.18555 0.0
H633 H 0.69696 0.65066 0.19026 0.0
H634 H 0.74638 0.62666 0.2145 0.0
C635 C 0.78314 0.67869 0.15943 0.0
C636 C 0.80964 0.25582 0.6459 0.0
C637 C 0.81827 0.22424 0.65753 0.0
H638 H 0.81473 0.30805 0.652 0.0
C639 C 0.84395 0.22148 0.68073 0.0
H640 H 0.79027 0.25885 0.6277 0.0
C641 C 0.85794 0.24977 0.69476 0.0
C642 C 0.84666 0.28138 0.68575 0.0
H643 H 0.85148 0.19755 0.69001 0.0
H644 H 0.87592 0.24675 0.71434 0.0
C645 C 0.82375 0.28412 0.65981 0.0
C646 C 0.25453 0.35917 0.19398 0.0
C647 C 0.22305 0.34762 0.18489 0.0
H648 H 0.30676 0.35307 0.18944 0.0
C649 C 0.22055 0.32463 0.15898 0.0
H650 H 0.25735 0.37722 0.21354 0.0
C651 C 0.24896 0.31069 0.1452 0.0
C652 C 0.28043 0.31958 0.15694 0.0
H653 H 0.19672 0.31543 0.1511 0.0
H654 H 0.24613 0.29125 0.12703 0.0
C655 C 0.28294 0.34535 0.18008 0.0
C656 C 0.32439 0.15989 0.22109 0.0
C657 C 0.34713 0.18592 0.22414 0.0
H658 H 0.29094 0.12748 0.24595 0.0
C659 C 0.35817 0.19481 0.2559 0.0
H660 H 0.31558 0.15216 0.19702 0.0
C661 C 0.34408 0.18056 0.28404 0.0
C662 C 0.31856 0.15725 0.28096 0.0
H663 H 0.37601 0.21446 0.25916 0.0
H664 H 0.3514 0.18975 0.30809 0.0
C665 C 0.31019 0.14575 0.24922 0.0
C666 C 0.35805 0.81069 0.74967 0.0
C667 C 0.34665 0.81917 0.78141 0.0
H668 H 0.35153 0.81593 0.69747 0.0
C669 C 0.32339 0.84474 0.78445 0.0
H670 H 0.37629 0.7914 0.74643 0.0
C671 C 0.3091 0.85877 0.7563 0.0
C672 C 0.31789 0.84762 0.72455 0.0
H673 H 0.31427 0.85215 0.80849 0.0
H674 H 0.28949 0.87665 0.75954 0.0
C675 C 0.34387 0.82483 0.72152 0.0
C676 C 0.65998 0.82304 0.28443 0.0
C677 C 0.68545 0.84639 0.28134 0.0
H678 H 0.62807 0.78907 0.25958 0.0
C679 C 0.69379 0.85786 0.2496 0.0
H680 H 0.65269 0.81387 0.30849 0.0
C681 C 0.67958 0.84367 0.22147 0.0
C682 C 0.65686 0.81762 0.22454 0.0
H683 H 0.713 0.87617 0.24631 0.0
H684 H 0.68836 0.8514 0.1974 0.0
C685 C 0.64588 0.80874 0.25631 0.0
C686 C 0.69276 0.14685 0.75572 0.0
C687 C 0.68414 0.15823 0.72401 0.0
H688 H 0.68769 0.15339 0.80794 0.0
C689 C 0.6585 0.18142 0.72105 0.0
H690 H 0.7121 0.12867 0.7589 0.0
C691 C 0.64454 0.19569 0.74925 0.0
C692 C 0.65582 0.18694 0.78096 0.0
H693 H 0.65098 0.19051 0.69703 0.0
H694 H 0.62659 0.21526 0.74606 0.0
C695 C 0.67868 0.16101 0.78392 0.0
C696 C 0.81193 0.75001 0.64681 0.0
C697 C 0.82026 0.78163 0.65859 0.0
H698 H 0.81717 0.69781 0.65293 0.0
C699 C 0.8456 0.78451 0.68215 0.0
H700 H 0.79283 0.74691 0.62834 0.0
C701 C 0.85953 0.75627 0.69634 0.0
C702 C 0.8485 0.72462 0.68716 0.0
H703 H 0.85289 0.80847 0.69156 0.0
H704 H 0.87721 0.75936 0.71618 0.0
C705 C 0.82596 0.72178 0.66089 0.0
C706 C 0.75456 0.31201 0.14647 0.0
C707 C 0.723 0.32054 0.15819 0.0
H708 H 0.80675 0.31702 0.15263 0.0
C709 C 0.72025 0.34598 0.18166 0.0
H710 H 0.75758 0.29283 0.12805 0.0
C711 C 0.74852 0.35982 0.19585 0.0
C712 C 0.7801 0.3486 0.18674 0.0
H713 H 0.69634 0.35343 0.19103 0.0
H714 H 0.74551 0.3776 0.21563 0.0
C715 C 0.78283 0.32596 0.16054 0.0
C716 C 0.14458 0.2488 0.69576 0.0
C717 C 0.15568 0.2805 0.68686 0.0
H718 H 0.15124 0.19664 0.6907 0.0
C719 C 0.17841 0.28348 0.66081 0.0
H720 H 0.12674 0.2456 0.71543 0.0
C721 C 0.19254 0.25533 0.64665 0.0
C722 C 0.18411 0.22365 0.65816 0.0
H723 H 0.18726 0.30751 0.65306 0.0
H724 H 0.21178 0.25855 0.62835 0.0
C725 C 0.15861 0.22065 0.6815 0.0
C726 C 0.25491 0.64417 0.19381 0.0
C727 C 0.22343 0.65582 0.1849 0.0
H728 H 0.30713 0.65021 0.18911 0.0
C729 C 0.22087 0.67892 0.1591 0.0
H730 H 0.25777 0.62604 0.21327 0.0
C731 C 0.24925 0.69288 0.14529 0.0
C732 C 0.28074 0.6839 0.15688 0.0
H733 H 0.19703 0.6882 0.15136 0.0
H734 H 0.24639 0.71241 0.12723 0.0
C735 C 0.28329 0.65801 0.17987 0.0
C736 C 0.85893 0.24949 0.31101 0.0
C737 C 0.84752 0.28105 0.32002 0.0
H738 H 0.85263 0.19725 0.31566 0.0
C739 C 0.82458 0.28369 0.34593 0.0
H740 H 0.87694 0.24655 0.29145 0.0
C741 C 0.81054 0.25535 0.35978 0.0
C742 C 0.81928 0.2238 0.3481 0.0
H743 H 0.81548 0.3076 0.35376 0.0
H744 H 0.79113 0.25829 0.37794 0.0
C745 C 0.84501 0.22114 0.32497 0.0
C746 C 0.25387 0.35931 0.81194 0.0
C747 C 0.22241 0.34752 0.82071 0.0
H748 H 0.30611 0.35341 0.81671 0.0
C749 C 0.21988 0.32424 0.84635 0.0
H750 H 0.25671 0.37759 0.79261 0.0
C751 C 0.24828 0.31027 0.86013 0.0
C752 C 0.27976 0.31943 0.84867 0.0
H753 H 0.19605 0.31483 0.85398 0.0
H754 H 0.24545 0.29061 0.87805 0.0
C755 C 0.28227 0.34547 0.82584 0.0
C756 C 0.19332 0.74855 0.3587 0.0
C757 C 0.18484 0.7802 0.34712 0.0
H758 H 0.18813 0.69636 0.35238 0.0
C759 C 0.15935 0.78311 0.32374 0.0
H760 H 0.21255 0.74541 0.37703 0.0
C761 C 0.14538 0.75491 0.30952 0.0
C762 C 0.15652 0.72324 0.31849 0.0
H763 H 0.15195 0.80709 0.31449 0.0
H764 H 0.12755 0.75804 0.28981 0.0
C765 C 0.17924 0.72035 0.34458 0.0
C766 C 0.78347 0.6799 0.84622 0.0
C767 C 0.78095 0.65695 0.82027 0.0
H768 H 0.75792 0.71323 0.87824 0.0
C769 C 0.74947 0.64542 0.81119 0.0
H770 H 0.80731 0.68909 0.8541 0.0
C771 C 0.72107 0.65922 0.82513 0.0
C772 C 0.7236 0.68495 0.84831 0.0
H773 H 0.74663 0.6274 0.7916 0.0
H774 H 0.69724 0.65152 0.81577 0.0
C775 C 0.75507 0.69381 0.86005 0.0
C776 C 0.69397 0.85864 0.75594 0.0
C777 C 0.68553 0.84712 0.72423 0.0
H778 H 0.68866 0.85231 0.80816 0.0
C779 C 0.65998 0.82383 0.72123 0.0
H780 H 0.71324 0.8769 0.75915 0.0
C781 C 0.64592 0.80965 0.7494 0.0
C782 C 0.657 0.81857 0.78114 0.0
H783 H 0.65261 0.81463 0.6972 0.0
H784 H 0.62804 0.79002 0.7462 0.0
C785 C 0.6798 0.84456 0.78412 0.0
C786 C 0.69437 0.14634 0.24913 0.0
C787 C 0.6855 0.15747 0.28086 0.0
H788 H 0.68938 0.15302 0.19693 0.0
C789 C 0.65957 0.18033 0.28382 0.0
H790 H 0.71395 0.12841 0.24594 0.0
C791 C 0.64551 0.19453 0.25564 0.0
C792 C 0.65699 0.18605 0.22394 0.0
H793 H 0.65185 0.18922 0.30786 0.0
H794 H 0.62731 0.21385 0.25884 0.0
C795 C 0.6802 0.16043 0.22095 0.0
C796 C 0.34423 0.18143 0.7208 0.0
C797 C 0.31884 0.15795 0.72368 0.0
H798 H 0.37593 0.21536 0.74596 0.0
C799 C 0.31051 0.1462 0.75532 0.0
H800 H 0.35152 0.19081 0.69682 0.0
C801 C 0.3246 0.16025 0.78357 0.0
C802 C 0.34719 0.18644 0.78074 0.0
H803 H 0.29137 0.12779 0.75843 0.0
H804 H 0.31582 0.15231 0.80757 0.0
C805 C 0.35821 0.19558 0.74905 0.0
C806 C 0.34483 0.82238 0.28454 0.0
C807 C 0.31946 0.84586 0.2816 0.0
H808 H 0.37652 0.78838 0.25947 0.0
C809 C 0.31113 0.85754 0.24993 0.0
H810 H 0.35212 0.81304 0.30854 0.0
C811 C 0.32521 0.84343 0.22171 0.0
C812 C 0.34779 0.81724 0.22461 0.0
H813 H 0.292 0.87595 0.24677 0.0
H814 H 0.31642 0.85132 0.1977 0.0
C815 C 0.3588 0.80816 0.25632 0.0
loop_
_geom_bond_atom_site_label_1
_geom_bond_atom_site_label_2
_geom_bond_distance
_geom_bond_site_symmetry_2
_ccdc_geom_bond_type
O0 Cd1 2.223 . S
O0 C8 1.315 . S
Cd1 O0 2.223 . S
Cd1 O4 2.297 . S
Cd1 O5 2.439 . S
Cd1 O11 2.240 . S
Cd2 O3 2.240 . S
Cd2 O10 2.223 . S
Cd2 O12 2.297 . S
Cd2 O13 2.439 . S
O3 Cd2 2.240 . S
O3 C8 1.279 . S
O4 Cd1 2.297 . S
O4 C6 1.247 . S
O5 Cd1 2.439 . S
O5 C6 1.208 . S
C6 O4 1.247 . S
C6 O5 1.208 . S
C7 O12 1.247 . S
C7 O13 1.208 . S
C8 O0 1.315 . S
C8 O3 1.279 . S
C9 O10 1.315 . S
C9 O11 1.279 . S
O10 Cd2 2.223 . S
O10 C9 1.315 . S
O11 Cd1 2.240 . S
O11 C9 1.279 . S
O12 Cd2 2.297 . S
O12 C7 1.247 . S
O13 Cd2 2.439 . S
O13 C7 1.208 . S
O14 Cd15 2.223 . S
O14 C22 1.315 . S
Cd15 O14 2.223 . S
Cd15 O18 2.297 . S
Cd15 O19 2.439 . S
Cd15 O25 2.240 . S
Cd16 O17 2.240 . S
Cd16 O24 2.223 . S
Cd16 O26 2.297 . S
Cd16 O27 2.439 . S
O17 Cd16 2.240 . S
O17 C22 1.279 . S
O18 Cd15 2.297 . S
O18 C20 1.247 . S
O19 Cd15 2.439 . S
O19 C20 1.208 . S
C20 O18 1.247 . S
C20 O19 1.208 . S
C21 O26 1.247 . S
C21 O27 1.208 . S
C22 O14 1.315 . S
C22 O17 1.279 . S
C23 O24 1.315 . S
C23 O25 1.279 . S
O24 Cd16 2.223 . S
O24 C23 1.315 . S
O25 Cd15 2.240 . S
O25 C23 1.279 . S
O26 Cd16 2.297 . S
O26 C21 1.247 . S
O27 Cd16 2.439 . S
O27 C21 1.208 . S
O28 Cd29 2.223 . S
O28 C36 1.315 . S
Cd29 O28 2.223 . S
Cd29 O32 2.297 . S
Cd29 O33 2.439 . S
Cd29 O39 2.240 . S
Cd30 O31 2.240 . S
Cd30 O38 2.223 . S
Cd30 O40 2.297 . S
Cd30 O41 2.439 . S
O31 Cd30 2.240 . S
O31 C36 1.279 . S
O32 Cd29 2.297 . S
O32 C34 1.247 . S
O33 Cd29 2.439 . S
O33 C34 1.208 . S
C34 O32 1.247 . S
C34 O33 1.208 . S
C35 O40 1.247 . S
C35 O41 1.208 . S
C36 O28 1.315 . S
C36 O31 1.279 . S
C37 O38 1.315 . S
C37 O39 1.279 . S
O38 Cd30 2.223 . S
O38 C37 1.315 . S
O39 Cd29 2.240 . S
O39 C37 1.279 . S
O40 Cd30 2.297 . S
O40 C35 1.247 . S
O41 Cd30 2.439 . S
O41 C35 1.208 . S
O42 Cd43 2.223 . S
O42 C50 1.315 . S
Cd43 O42 2.223 . S
Cd43 O46 2.297 . S
Cd43 O47 2.439 . S
Cd43 O53 2.240 . S
Cd44 O45 2.240 . S
Cd44 O52 2.223 . S
Cd44 O54 2.297 . S
Cd44 O55 2.439 . S
O45 Cd44 2.240 . S
O45 C50 1.279 . S
O46 Cd43 2.297 . S
O46 C48 1.247 . S
O47 Cd43 2.439 . S
O47 C48 1.208 . S
C48 O46 1.247 . S
C48 O47 1.208 . S
C49 O54 1.247 . S
C49 O55 1.208 . S
C50 O42 1.315 . S
C50 O45 1.279 . S
C51 O52 1.315 . S
C51 O53 1.279 . S
O52 Cd44 2.223 . S
O52 C51 1.315 . S
O53 Cd43 2.240 . S
O53 C51 1.279 . S
O54 Cd44 2.297 . S
O54 C49 1.247 . S
O55 Cd44 2.439 . S
O55 C49 1.208 . S
O56 Cd57 2.223 . S
O56 C64 1.315 . S
Cd57 O56 2.223 . S
Cd57 O60 2.297 . S
Cd57 O61 2.439 . S
Cd57 O67 2.240 . S
Cd58 O59 2.240 . S
Cd58 O66 2.223 . S
Cd58 O68 2.297 . S
Cd58 O69 2.439 . S
O59 Cd58 2.240 . S
O59 C64 1.279 . S
O60 Cd57 2.297 . S
O60 C62 1.247 . S
O61 Cd57 2.439 . S
O61 C62 1.208 . S
C62 O60 1.247 . S
C62 O61 1.208 . S
C63 O68 1.247 . S
C63 O69 1.208 . S
C64 O56 1.315 . S
C64 O59 1.279 . S
C65 O66 1.315 . S
C65 O67 1.279 . S
O66 Cd58 2.223 . S
O66 C65 1.315 . S
O67 Cd57 2.240 . S
O67 C65 1.279 . S
O68 Cd58 2.297 . S
O68 C63 1.247 . S
O69 Cd58 2.439 . S
O69 C63 1.208 . S
O70 Cd71 2.223 . S
O70 C78 1.315 . S
Cd71 O70 2.223 . S
Cd71 O74 2.297 . S
Cd71 O75 2.439 . S
Cd71 O81 2.240 . S
Cd72 O73 2.240 . S
Cd72 O80 2.223 . S
Cd72 O82 2.297 . S
Cd72 O83 2.439 . S
O73 Cd72 2.240 . S
O73 C78 1.279 . S
O74 Cd71 2.297 . S
O74 C76 1.247 . S
O75 Cd71 2.439 . S
O75 C76 1.208 . S
C76 O74 1.247 . S
C76 O75 1.208 . S
C77 O82 1.247 . S
C77 O83 1.208 . S
C78 O70 1.315 . S
C78 O73 1.279 . S
C79 O80 1.315 . S
C79 O81 1.279 . S
O80 Cd72 2.223 . S
O80 C79 1.315 . S
O81 Cd71 2.240 . S
O81 C79 1.279 . S
O82 Cd72 2.297 . S
O82 C77 1.247 . S
O83 Cd72 2.439 . S
O83 C77 1.208 . S
O84 Cd85 2.223 . S
O84 C92 1.315 . S
Cd85 O84 2.223 . S
Cd85 O88 2.297 . S
Cd85 O89 2.439 . S
Cd85 O95 2.240 . S
Cd86 O87 2.240 . S
Cd86 O94 2.223 . S
Cd86 O96 2.297 . S
Cd86 O97 2.439 . S
O87 Cd86 2.240 . S
O87 C92 1.279 . S
O88 Cd85 2.297 . S
O88 C90 1.247 . S
O89 Cd85 2.439 . S
O89 C90 1.208 . S
C90 O88 1.247 . S
C90 O89 1.208 . S
C91 O96 1.247 . S
C91 O97 1.208 . S
C92 O84 1.315 . S
C92 O87 1.279 . S
C93 O94 1.315 . S
C93 O95 1.279 . S
O94 Cd86 2.223 . S
O94 C93 1.315 . S
O95 Cd85 2.240 . S
O95 C93 1.279 . S
O96 Cd86 2.297 . S
O96 C91 1.247 . S
O97 Cd86 2.439 . S
O97 C91 1.208 . S
O98 Cd99 2.223 . S
O98 C106 1.315 . S
Cd99 O98 2.223 . S
Cd99 O102 2.297 . S
Cd99 O103 2.439 . S
Cd99 O109 2.240 . S
Cd100 O101 2.240 . S
Cd100 O108 2.223 . S
Cd100 O110 2.297 . S
Cd100 O111 2.439 . S
O101 Cd100 2.240 . S
O101 C106 1.279 . S
O102 Cd99 2.297 . S
O102 C104 1.247 . S
O103 Cd99 2.439 . S
O103 C104 1.208 . S
C104 O102 1.247 . S
C104 O103 1.208 . S
C105 O110 1.247 . S
C105 O111 1.208 . S
C106 O98 1.315 . S
C106 O101 1.279 . S
C107 O108 1.315 . S
C107 O109 1.279 . S
O108 Cd100 2.223 . S
O108 C107 1.315 . S
O109 Cd99 2.240 . S
O109 C107 1.279 . S
O110 Cd100 2.297 . S
O110 C105 1.247 . S
O111 Cd100 2.439 . S
O111 C105 1.208 . S
O112 Cd113 2.223 . S
O112 C120 1.315 . S
Cd113 O112 2.223 . S
Cd113 O116 2.297 . S
Cd113 O117 2.439 . S
Cd113 O123 2.240 . S
Cd114 O115 2.240 . S
Cd114 O122 2.223 . S
Cd114 O124 2.297 . S
Cd114 O125 2.439 . S
O115 Cd114 2.240 . S
O115 C120 1.279 . S
O116 Cd113 2.297 . S
O116 C118 1.247 . S
O117 Cd113 2.439 . S
O117 C118 1.208 . S
C118 O116 1.247 . S
C118 O117 1.208 . S
C119 O124 1.247 . S
C119 O125 1.208 . S
C120 O112 1.315 . S
C120 O115 1.279 . S
C121 O122 1.315 . S
C121 O123 1.279 . S
O122 Cd114 2.223 . S
O122 C121 1.315 . S
O123 Cd113 2.240 . S
O123 C121 1.279 . S
O124 Cd114 2.297 . S
O124 C119 1.247 . S
O125 Cd114 2.439 . S
O125 C119 1.208 . S
O126 Cd127 2.223 . S
O126 C134 1.315 . S
Cd127 O126 2.223 . S
Cd127 O130 2.297 . S
Cd127 O131 2.439 . S
Cd127 O137 2.240 . S
Cd128 O129 2.240 . S
Cd128 O136 2.223 . S
Cd128 O138 2.297 . S
Cd128 O139 2.439 . S
O129 Cd128 2.240 . S
O129 C134 1.279 . S
O130 Cd127 2.297 . S
O130 C132 1.247 . S
O131 Cd127 2.439 . S
O131 C132 1.208 . S
C132 O130 1.247 . S
C132 O131 1.208 . S
C133 O138 1.247 . S
C133 O139 1.208 . S
C134 O126 1.315 . S
C134 O129 1.279 . S
C135 O136 1.315 . S
C135 O137 1.279 . S
O136 Cd128 2.223 . S
O136 C135 1.315 . S
O137 Cd127 2.240 . S
O137 C135 1.279 . S
O138 Cd128 2.297 . S
O138 C133 1.247 . S
O139 Cd128 2.439 . S
O139 C133 1.208 . S
O140 Cd141 2.223 . S
O140 C148 1.315 . S
Cd141 O140 2.223 . S
Cd141 O144 2.297 . S
Cd141 O145 2.439 . S
Cd141 O151 2.240 . S
Cd142 O143 2.240 . S
Cd142 O150 2.223 . S
Cd142 O152 2.297 . S
Cd142 O153 2.439 . S
O143 Cd142 2.240 . S
O143 C148 1.279 . S
O144 Cd141 2.297 . S
O144 C146 1.247 . S
O145 Cd141 2.439 . S
O145 C146 1.208 . S
C146 O144 1.247 . S
C146 O145 1.208 . S
C147 O152 1.247 . S
C147 O153 1.208 . S
C148 O140 1.315 . S
C148 O143 1.279 . S
C149 O150 1.315 . S
C149 O151 1.279 . S
O150 Cd142 2.223 . S
O150 C149 1.315 . S
O151 Cd141 2.240 . S
O151 C149 1.279 . S
O152 Cd142 2.297 . S
O152 C147 1.247 . S
O153 Cd142 2.439 . S
O153 C147 1.208 . S
O154 Cd155 2.223 . S
O154 C162 1.315 . S
Cd155 O154 2.223 . S
Cd155 O158 2.297 . S
Cd155 O159 2.439 . S
Cd155 O165 2.240 . S
Cd156 O157 2.240 . S
Cd156 O164 2.223 . S
Cd156 O166 2.297 . S
Cd156 O167 2.439 . S
O157 Cd156 2.240 . S
O157 C162 1.279 . S
O158 Cd155 2.297 . S
O158 C160 1.247 . S
O159 Cd155 2.439 . S
O159 C160 1.208 . S
C160 O158 1.247 . S
C160 O159 1.208 . S
C161 O166 1.247 . S
C161 O167 1.208 . S
C162 O154 1.315 . S
C162 O157 1.279 . S
C163 O164 1.315 . S
C163 O165 1.279 . S
O164 Cd156 2.223 . S
O164 C163 1.315 . S
O165 Cd155 2.240 . S
O165 C163 1.279 . S
O166 Cd156 2.297 . S
O166 C161 1.247 . S
O167 Cd156 2.439 . S
O167 C161 1.208 . S
O168 Cd169 2.223 . S
O168 C176 1.315 . S
Cd169 O168 2.223 . S
Cd169 O172 2.297 . S
Cd169 O173 2.439 . S
Cd169 O179 2.240 . S
Cd170 O171 2.240 . S
Cd170 O178 2.223 . S
Cd170 O180 2.297 . S
Cd170 O181 2.439 . S
O171 Cd170 2.240 . S
O171 C176 1.279 . S
O172 Cd169 2.297 . S
O172 C174 1.247 . S
O173 Cd169 2.439 . S
O173 C174 1.208 . S
C174 O172 1.247 . S
C174 O173 1.208 . S
C175 O180 1.247 . S
C175 O181 1.208 . S
C176 O168 1.315 . S
C176 O171 1.279 . S
C177 O178 1.315 . S
C177 O179 1.279 . S
O178 Cd170 2.223 . S
O178 C177 1.315 . S
O179 Cd169 2.240 . S
O179 C177 1.279 . S
O180 Cd170 2.297 . S
O180 C175 1.247 . S
O181 Cd170 2.439 . S
O181 C175 1.208 . S
O182 Cd183 2.223 . S
O182 C190 1.315 . S
Cd183 O182 2.223 . S
Cd183 O186 2.297 . S
Cd183 O187 2.439 . S
Cd183 O193 2.240 . S
Cd184 O185 2.240 . S
Cd184 O192 2.223 . S
Cd184 O194 2.297 . S
Cd184 O195 2.439 . S
O185 Cd184 2.240 . S
O185 C190 1.279 . S
O186 Cd183 2.297 . S
O186 C188 1.247 . S
O187 Cd183 2.439 . S
O187 C188 1.208 . S
C188 O186 1.247 . S
C188 O187 1.208 . S
C189 O194 1.247 . S
C189 O195 1.208 . S
C190 O182 1.315 . S
C190 O185 1.279 . S
C191 O192 1.315 . S
C191 O193 1.279 . S
O192 Cd184 2.223 . S
O192 C191 1.315 . S
O193 Cd183 2.240 . S
O193 C191 1.279 . S
O194 Cd184 2.297 . S
O194 C189 1.247 . S
O195 Cd184 2.439 . S
O195 C189 1.208 . S
O196 Cd197 2.223 . S
O196 C204 1.315 . S
Cd197 O196 2.223 . S
Cd197 O200 2.297 . S
Cd197 O201 2.439 . S
Cd197 O207 2.240 . S
Cd198 O199 2.240 . S
Cd198 O206 2.223 . S
Cd198 O208 2.297 . S
Cd198 O209 2.439 . S
O199 Cd198 2.240 . S
O199 C204 1.279 . S
O200 Cd197 2.297 . S
O200 C202 1.247 . S
O201 Cd197 2.439 . S
O201 C202 1.208 . S
C202 O200 1.247 . S
C202 O201 1.208 . S
C203 O208 1.247 . S
C203 O209 1.208 . S
C204 O196 1.315 . S
C204 O199 1.279 . S
C205 O206 1.315 . S
C205 O207 1.279 . S
O206 Cd198 2.223 . S
O206 C205 1.315 . S
O207 Cd197 2.240 . S
O207 C205 1.279 . S
O208 Cd198 2.297 . S
O208 C203 1.247 . S
O209 Cd198 2.439 . S
O209 C203 1.208 . S
O210 Cd211 2.223 . S
O210 C218 1.315 . S
Cd211 O210 2.223 . S
Cd211 O214 2.297 . S
Cd211 O215 2.439 . S
Cd211 O221 2.240 . S
Cd212 O213 2.240 . S
Cd212 O220 2.223 . S
Cd212 O222 2.297 . S
Cd212 O223 2.439 . S
O213 Cd212 2.240 . S
O213 C218 1.279 . S
O214 Cd211 2.297 . S
O214 C216 1.247 . S
O215 Cd211 2.439 . S
O215 C216 1.208 . S
C216 O214 1.247 . S
C216 O215 1.208 . S
C217 O222 1.247 . S
C217 O223 1.208 . S
C218 O210 1.315 . S
C218 O213 1.279 . S
C219 O220 1.315 . S
C219 O221 1.279 . S
O220 Cd212 2.223 . S
O220 C219 1.315 . S
O221 Cd211 2.240 . S
O221 C219 1.279 . S
O222 Cd212 2.297 . S
O222 C217 1.247 . S
O223 Cd212 2.439 . S
O223 C217 1.208 . S
O224 Cd225 2.223 . S
O224 C232 1.315 . S
Cd225 O224 2.223 . S
Cd225 O228 2.297 . S
Cd225 O229 2.439 . S
Cd225 O235 2.240 . S
Cd226 O227 2.240 . S
Cd226 O234 2.223 . S
Cd226 O236 2.297 . S
Cd226 O237 2.439 . S
O227 Cd226 2.240 . S
O227 C232 1.279 . S
O228 Cd225 2.297 . S
O228 C230 1.247 . S
O229 Cd225 2.439 . S
O229 C230 1.208 . S
C230 O228 1.247 . S
C230 O229 1.208 . S
C231 O236 1.247 . S
C231 O237 1.208 . S
C232 O224 1.315 . S
C232 O227 1.279 . S
C233 O234 1.315 . S
C233 O235 1.279 . S
O234 Cd226 2.223 . S
O234 C233 1.315 . S
O235 Cd225 2.240 . S
O235 C233 1.279 . S
O236 Cd226 2.297 . S
O236 C231 1.247 . S
O237 Cd226 2.439 . S
O237 C231 1.208 . S
O238 Cd239 2.223 . S
O238 C246 1.315 . S
Cd239 O238 2.223 . S
Cd239 O242 2.297 . S
Cd239 O243 2.439 . S
Cd239 O249 2.240 . S
Cd240 O241 2.240 . S
Cd240 O248 2.223 . S
Cd240 O250 2.297 . S
Cd240 O251 2.439 . S
O241 Cd240 2.240 . S
O241 C246 1.279 . S
O242 Cd239 2.297 . S
O242 C244 1.247 . S
O243 Cd239 2.439 . S
O243 C244 1.208 . S
C244 O242 1.247 . S
C244 O243 1.208 . S
C245 O250 1.247 . S
C245 O251 1.208 . S
C246 O238 1.315 . S
C246 O241 1.279 . S
C247 O248 1.315 . S
C247 O249 1.279 . S
O248 Cd240 2.223 . S
O248 C247 1.315 . S
O249 Cd239 2.240 . S
O249 C247 1.279 . S
O250 Cd240 2.297 . S
O250 C245 1.247 . S
O251 Cd240 2.439 . S
O251 C245 1.208 . S
O252 Cd253 2.223 . S
O252 C260 1.315 . S
Cd253 O252 2.223 . S
Cd253 O256 2.297 . S
Cd253 O257 2.439 . S
Cd253 O263 2.240 . S
Cd254 O255 2.240 . S
Cd254 O262 2.223 . S
Cd254 O264 2.297 . S
Cd254 O265 2.439 . S
O255 Cd254 2.240 . S
O255 C260 1.279 . S
O256 Cd253 2.297 . S
O256 C258 1.247 . S
O257 Cd253 2.439 . S
O257 C258 1.208 . S
C258 O256 1.247 . S
C258 O257 1.208 . S
C259 O264 1.247 . S
C259 O265 1.208 . S
C260 O252 1.315 . S
C260 O255 1.279 . S
C261 O262 1.315 . S
C261 O263 1.279 . S
O262 Cd254 2.223 . S
O262 C261 1.315 . S
O263 Cd253 2.240 . S
O263 C261 1.279 . S
O264 Cd254 2.297 . S
O264 C259 1.247 . S
O265 Cd254 2.439 . S
O265 C259 1.208 . S
O266 Cd267 2.223 . S
O266 C274 1.315 . S
Cd267 O266 2.223 . S
Cd267 O270 2.297 . S
Cd267 O271 2.439 . S
Cd267 O277 2.240 . S
Cd268 O269 2.240 . S
Cd268 O276 2.223 . S
Cd268 O278 2.297 . S
Cd268 O279 2.439 . S
O269 Cd268 2.240 . S
O269 C274 1.279 . S
O270 Cd267 2.297 . S
O270 C272 1.247 . S
O271 Cd267 2.439 . S
O271 C272 1.208 . S
C272 O270 1.247 . S
C272 O271 1.208 . S
C273 O278 1.247 . S
C273 O279 1.208 . S
C274 O266 1.315 . S
C274 O269 1.279 . S
C275 O276 1.315 . S
C275 O277 1.279 . S
O276 Cd268 2.223 . S
O276 C275 1.315 . S
O277 Cd267 2.240 . S
O277 C275 1.279 . S
O278 Cd268 2.297 . S
O278 C273 1.247 . S
O279 Cd268 2.439 . S
O279 C273 1.208 . S
O280 Cd281 2.223 . S
O280 C288 1.315 . S
Cd281 O280 2.223 . S
Cd281 O284 2.297 . S
Cd281 O285 2.439 . S
Cd281 O291 2.240 . S
Cd282 O283 2.240 . S
Cd282 O290 2.223 . S
Cd282 O292 2.297 . S
Cd282 O293 2.439 . S
O283 Cd282 2.240 . S
O283 C288 1.279 . S
O284 Cd281 2.297 . S
O284 C286 1.247 . S
O285 Cd281 2.439 . S
O285 C286 1.208 . S
C286 O284 1.247 . S
C286 O285 1.208 . S
C287 O292 1.247 . S
C287 O293 1.208 . S
C288 O280 1.315 . S
C288 O283 1.279 . S
C289 O290 1.315 . S
C289 O291 1.279 . S
O290 Cd282 2.223 . S
O290 C289 1.315 . S
O291 Cd281 2.240 . S
O291 C289 1.279 . S
O292 Cd282 2.297 . S
O292 C287 1.247 . S
O293 Cd282 2.439 . S
O293 C287 1.208 . S
O294 Cd295 2.223 . S
O294 C302 1.315 . S
Cd295 O294 2.223 . S
Cd295 O298 2.297 . S
Cd295 O299 2.439 . S
Cd295 O305 2.240 . S
Cd296 O297 2.240 . S
Cd296 O304 2.223 . S
Cd296 O306 2.297 . S
Cd296 O307 2.439 . S
O297 Cd296 2.240 . S
O297 C302 1.279 . S
O298 Cd295 2.297 . S
O298 C300 1.247 . S
O299 Cd295 2.439 . S
O299 C300 1.208 . S
C300 O298 1.247 . S
C300 O299 1.208 . S
C301 O306 1.247 . S
C301 O307 1.208 . S
C302 O294 1.315 . S
C302 O297 1.279 . S
C303 O304 1.315 . S
C303 O305 1.279 . S
O304 Cd296 2.223 . S
O304 C303 1.315 . S
O305 Cd295 2.240 . S
O305 C303 1.279 . S
O306 Cd296 2.297 . S
O306 C301 1.247 . S
O307 Cd296 2.439 . S
O307 C301 1.208 . S
O308 Cd309 2.223 . S
O308 C316 1.315 . S
Cd309 O308 2.223 . S
Cd309 O312 2.297 . S
Cd309 O313 2.439 . S
Cd309 O319 2.240 . S
Cd310 O311 2.240 . S
Cd310 O318 2.223 . S
Cd310 O320 2.297 . S
Cd310 O321 2.439 . S
O311 Cd310 2.240 . S
O311 C316 1.279 . S
O312 Cd309 2.297 . S
O312 C314 1.247 . S
O313 Cd309 2.439 . S
O313 C314 1.208 . S
C314 O312 1.247 . S
C314 O313 1.208 . S
C315 O320 1.247 . S
C315 O321 1.208 . S
C316 O308 1.315 . S
C316 O311 1.279 . S
C317 O318 1.315 . S
C317 O319 1.279 . S
O318 Cd310 2.223 . S
O318 C317 1.315 . S
O319 Cd309 2.240 . S
O319 C317 1.279 . S
O320 Cd310 2.297 . S
O320 C315 1.247 . S
O321 Cd310 2.439 . S
O321 C315 1.208 . S
O322 Cd323 2.223 . S
O322 C330 1.315 . S
Cd323 O322 2.223 . S
Cd323 O326 2.297 . S
Cd323 O327 2.439 . S
Cd323 O333 2.240 . S
Cd324 O325 2.240 . S
Cd324 O332 2.223 . S
Cd324 O334 2.297 . S
Cd324 O335 2.439 . S
O325 Cd324 2.240 . S
O325 C330 1.279 . S
O326 Cd323 2.297 . S
O326 C328 1.247 . S
O327 Cd323 2.439 . S
O327 C328 1.208 . S
C328 O326 1.247 . S
C328 O327 1.208 . S
C329 O334 1.247 . S
C329 O335 1.208 . S
C330 O322 1.315 . S
C330 O325 1.279 . S
C331 O332 1.315 . S
C331 O333 1.279 . S
O332 Cd324 2.223 . S
O332 C331 1.315 . S
O333 Cd323 2.240 . S
O333 C331 1.279 . S
O334 Cd324 2.297 . S
O334 C329 1.247 . S
O335 Cd324 2.439 . S
O335 C329 1.208 . S
C336 C337 1.387 . S
C336 H340 0.950 . S
C336 C345 1.390 . S
C337 C336 1.387 . S
C337 C339 1.387 . S
H338 C345 0.950 . S
C339 C337 1.387 . S
C339 C341 1.390 . S
C339 H343 0.950 . S
H340 C336 0.950 . S
C341 C339 1.390 . S
C341 C342 1.387 . S
C341 H344 0.950 . S
C342 C341 1.387 . S
C342 C345 1.387 . S
H343 C339 0.950 . S
H344 C341 0.950 . S
C345 C336 1.390 . S
C345 H338 0.950 . S
C345 C342 1.387 . S
C346 C347 1.387 . S
C346 H350 0.950 . S
C346 C355 1.390 1_655 S
C347 C346 1.387 . S
C347 C349 1.387 . S
H348 C355 0.950 . S
C349 C347 1.387 . S
C349 C351 1.390 1_655 S
C349 H353 0.950 . S
H350 C346 0.950 . S
C351 C349 1.390 1_455 S
C351 C352 1.387 . S
C351 H354 0.950 . S
C352 C351 1.387 . S
C352 C355 1.387 . S
H353 C349 0.950 . S
H354 C351 0.950 . S
C355 C346 1.390 1_455 S
C355 H348 0.950 . S
C355 C352 1.387 . S
C356 C357 1.387 . S
C356 H360 0.950 . S
C356 C365 1.390 . S
C357 C356 1.387 . S
C357 C359 1.387 . S
H358 C365 0.950 . S
C359 C357 1.387 . S
C359 C361 1.390 . S
C359 H363 0.950 . S
H360 C356 0.950 . S
C361 C359 1.390 . S
C361 C362 1.387 . S
C361 H364 0.950 . S
C362 C361 1.387 . S
C362 C365 1.387 . S
H363 C359 0.950 . S
H364 C361 0.950 . S
C365 C356 1.390 . S
C365 H358 0.950 . S
C365 C362 1.387 . S
C366 C367 1.387 . S
C366 H370 0.950 . S
C366 C375 1.390 1_455 S
C367 C366 1.387 . S
C367 C369 1.387 . S
H368 C375 0.950 . S
C369 C367 1.387 . S
C369 C371 1.390 1_455 S
C369 H373 0.950 . S
H370 C366 0.950 . S
C371 C369 1.390 1_655 S
C371 C372 1.387 . S
C371 H374 0.950 . S
C372 C371 1.387 . S
C372 C375 1.387 . S
H373 C369 0.950 . S
H374 C371 0.950 . S
C375 C366 1.390 1_655 S
C375 H368 0.950 . S
C375 C372 1.387 . S
C376 C377 1.387 . S
C376 H380 0.950 . S
C376 C385 1.390 . S
C377 C376 1.387 . S
C377 C379 1.387 . S
H378 C385 0.950 . S
C379 C377 1.387 . S
C379 C381 1.390 . S
C379 H383 0.950 . S
H380 C376 0.950 . S
C381 C379 1.390 . S
C381 C382 1.387 . S
C381 H384 0.950 . S
C382 C381 1.387 . S
C382 C385 1.387 . S
H383 C379 0.950 . S
H384 C381 0.950 . S
C385 C376 1.390 . S
C385 H378 0.950 . S
C385 C382 1.387 . S
C386 C387 1.387 . S
C386 H390 0.950 . S
C386 C395 1.390 1_655 S
C387 C386 1.387 . S
C387 C389 1.387 . S
H388 C395 0.950 . S
C389 C387 1.387 . S
C389 C391 1.390 1_655 S
C389 H393 0.950 . S
H390 C386 0.950 . S
C391 C389 1.390 1_455 S
C391 C392 1.387 . S
C391 H394 0.950 . S
C392 C391 1.387 . S
C392 C395 1.387 . S
H393 C389 0.950 . S
H394 C391 0.950 . S
C395 C386 1.390 1_455 S
C395 H388 0.950 . S
C395 C392 1.387 . S
C396 C397 1.387 . S
C396 H400 0.950 . S
C396 C405 1.390 . S
C397 C396 1.387 . S
C397 C399 1.387 . S
H398 C405 0.950 . S
C399 C397 1.387 . S
C399 C401 1.390 . S
C399 H403 0.950 . S
H400 C396 0.950 . S
C401 C399 1.390 . S
C401 C402 1.387 . S
C401 H404 0.950 . S
C402 C401 1.387 . S
C402 C405 1.387 . S
H403 C399 0.950 . S
H404 C401 0.950 . S
C405 C396 1.390 . S
C405 H398 0.950 . S
C405 C402 1.387 . S
C406 C407 1.387 . S
C406 H410 0.950 . S
C406 C415 1.390 1_655 S
C407 C406 1.387 . S
C407 C409 1.387 . S
H408 C415 0.950 . S
C409 C407 1.387 . S
C409 C411 1.390 1_655 S
C409 H413 0.950 . S
H410 C406 0.950 . S
C411 C409 1.390 1_455 S
C411 C412 1.387 . S
C411 H414 0.950 . S
C412 C411 1.387 . S
C412 C415 1.387 . S
H413 C409 0.950 . S
H414 C411 0.950 . S
C415 C406 1.390 1_455 S
C415 H408 0.950 . S
C415 C412 1.387 . S
C416 C417 1.387 . S
C416 H420 0.950 . S
C416 C425 1.390 . S
C417 C416 1.387 . S
C417 C419 1.387 . S
H418 C425 0.950 . S
C419 C417 1.387 . S
C419 C421 1.390 . S
C419 H423 0.950 . S
H420 C416 0.950 . S
C421 C419 1.390 . S
C421 C422 1.387 . S
C421 H424 0.950 . S
C422 C421 1.387 . S
C422 C425 1.387 . S
H423 C419 0.950 . S
H424 C421 0.950 . S
C425 C416 1.390 . S
C425 H418 0.950 . S
C425 C422 1.387 . S
C426 C427 1.387 . S
C426 H430 0.950 . S
C426 C435 1.390 1_556 S
C427 C426 1.387 . S
C427 C429 1.387 . S
H428 C435 0.950 . S
C429 C427 1.387 . S
C429 C431 1.390 1_556 S
C429 H433 0.950 . S
H430 C426 0.950 . S
C431 C429 1.390 1_554 S
C431 C432 1.387 . S
C431 H434 0.950 . S
C432 C431 1.387 . S
C432 C435 1.387 . S
H433 C429 0.950 . S
H434 C431 0.950 . S
C435 C426 1.390 1_554 S
C435 H428 0.950 . S
C435 C432 1.387 . S
C436 C437 1.387 . S
C436 H440 0.950 . S
C436 C445 1.390 . S
C437 C436 1.387 . S
C437 C439 1.387 . S
H438 C445 0.950 . S
C439 C437 1.387 . S
C439 C441 1.390 . S
C439 H443 0.950 . S
H440 C436 0.950 . S
C441 C439 1.390 . S
C441 C442 1.387 . S
C441 H444 0.950 . S
C442 C441 1.387 . S
C442 C445 1.387 . S
H443 C439 0.950 . S
H444 C441 0.950 . S
C445 C436 1.390 . S
C445 H438 0.950 . S
C445 C442 1.387 . S
C446 C447 1.387 . S
C446 H450 0.950 . S
C446 C455 1.390 1_554 S
C447 C446 1.387 . S
C447 C449 1.387 . S
H448 C455 0.950 . S
C449 C447 1.387 . S
C449 C451 1.390 1_554 S
C449 H453 0.950 . S
H450 C446 0.950 . S
C451 C449 1.390 1_556 S
C451 C452 1.387 . S
C451 H454 0.950 . S
C452 C451 1.387 . S
C452 C455 1.387 . S
H453 C449 0.950 . S
H454 C451 0.950 . S
C455 C446 1.390 1_556 S
C455 H448 0.950 . S
C455 C452 1.387 . S
C456 C457 1.387 . S
C456 H460 0.950 . S
C456 C465 1.390 . S
C457 C456 1.387 . S
C457 C459 1.387 . S
H458 C465 0.950 . S
C459 C457 1.387 . S
C459 C461 1.390 . S
C459 H463 0.950 . S
H460 C456 0.950 . S
C461 C459 1.390 . S
C461 C462 1.387 . S
C461 H464 0.950 . S
C462 C461 1.387 . S
C462 C465 1.387 . S
H463 C459 0.950 . S
H464 C461 0.950 . S
C465 C456 1.390 . S
C465 H458 0.950 . S
C465 C462 1.387 . S
C466 C467 1.387 . S
C466 H470 0.950 . S
C466 C475 1.390 1_554 S
C467 C466 1.387 . S
C467 C469 1.387 . S
H468 C475 0.950 . S
C469 C467 1.387 . S
C469 C471 1.390 1_554 S
C469 H473 0.950 . S
H470 C466 0.950 . S
C471 C469 1.390 1_556 S
C471 C472 1.387 . S
C471 H474 0.950 . S
C472 C471 1.387 . S
C472 C475 1.387 . S
H473 C469 0.950 . S
H474 C471 0.950 . S
C475 C466 1.390 1_556 S
C475 H468 0.950 . S
C475 C472 1.387 . S
C476 C477 1.387 . S
C476 H480 0.950 . S
C476 C485 1.390 . S
C477 C476 1.387 . S
C477 C479 1.387 . S
H478 C485 0.950 . S
C479 C477 1.387 . S
C479 C481 1.390 . S
C479 H483 0.950 . S
H480 C476 0.950 . S
C481 C479 1.390 . S
C481 C482 1.387 . S
C481 H484 0.950 . S
C482 C481 1.387 . S
C482 C485 1.387 . S
H483 C479 0.950 . S
H484 C481 0.950 . S
C485 C476 1.390 . S
C485 H478 0.950 . S
C485 C482 1.387 . S
C486 C487 1.387 . S
C486 H490 0.950 . S
C486 C495 1.390 1_554 S
C487 C486 1.387 . S
C487 C489 1.387 . S
H488 C495 0.950 . S
C489 C487 1.387 . S
C489 C491 1.390 1_554 S
C489 H493 0.950 . S
H490 C486 0.950 . S
C491 C489 1.390 1_556 S
C491 C492 1.387 . S
C491 H494 0.950 . S
C492 C491 1.387 . S
C492 C495 1.387 . S
H493 C489 0.950 . S
H494 C491 0.950 . S
C495 C486 1.390 1_556 S
C495 H488 0.950 . S
C495 C492 1.387 . S
C496 C497 1.387 . S
C496 H500 0.950 . S
C496 C505 1.390 . S
C497 C496 1.387 . S
C497 C499 1.387 . S
H498 C505 0.950 . S
C499 C497 1.387 . S
C499 C501 1.390 . S
C499 H503 0.950 . S
H500 C496 0.950 . S
C501 C499 1.390 . S
C501 C502 1.387 . S
C501 H504 0.950 . S
C502 C501 1.387 . S
C502 C505 1.387 . S
H503 C499 0.950 . S
H504 C501 0.950 . S
C505 C496 1.390 . S
C505 H498 0.950 . S
C505 C502 1.387 . S
C506 C507 1.387 . S
C506 H510 0.950 . S
C506 C515 1.390 . S
C507 C506 1.387 . S
C507 C509 1.387 . S
H508 C515 0.950 . S
C509 C507 1.387 . S
C509 C511 1.390 . S
C509 H513 0.950 . S
H510 C506 0.950 . S
C511 C509 1.390 . S
C511 C512 1.387 . S
C511 H514 0.950 . S
C512 C511 1.387 . S
C512 C515 1.387 . S
H513 C509 0.950 . S
H514 C511 0.950 . S
C515 C506 1.390 . S
C515 H508 0.950 . S
C515 C512 1.387 . S
C516 C517 1.387 . S
C516 H520 0.950 . S
C516 C525 1.390 1_565 S
C517 C516 1.387 . S
C517 C519 1.387 . S
H518 C525 0.950 . S
C519 C517 1.387 . S
C519 C521 1.390 1_565 S
C519 H523 0.950 . S
H520 C516 0.950 . S
C521 C519 1.390 1_545 S
C521 C522 1.387 . S
C521 H524 0.950 . S
C522 C521 1.387 . S
C522 C525 1.387 . S
H523 C519 0.950 . S
H524 C521 0.950 . S
C525 C516 1.390 1_545 S
C525 H518 0.950 . S
C525 C522 1.387 . S
C526 C527 1.387 . S
C526 H530 0.950 . S
C526 C535 1.390 . S
C527 C526 1.387 . S
C527 C529 1.387 . S
H528 C535 0.950 . S
C529 C527 1.387 . S
C529 C531 1.390 . S
C529 H533 0.950 . S
H530 C526 0.950 . S
C531 C529 1.390 . S
C531 C532 1.387 . S
C531 H534 0.950 . S
C532 C531 1.387 . S
C532 C535 1.387 . S
H533 C529 0.950 . S
H534 C531 0.950 . S
C535 C526 1.390 . S
C535 H528 0.950 . S
C535 C532 1.387 . S
C536 C537 1.387 . S
C536 H540 0.950 . S
C536 C545 1.390 1_565 S
C537 C536 1.387 . S
C537 C539 1.387 . S
H538 C545 0.950 . S
C539 C537 1.387 . S
C539 C541 1.390 1_565 S
C539 H543 0.950 . S
H540 C536 0.950 . S
C541 C539 1.390 1_545 S
C541 C542 1.387 . S
C541 H544 0.950 . S
C542 C541 1.387 . S
C542 C545 1.387 . S
H543 C539 0.950 . S
H544 C541 0.950 . S
C545 C536 1.390 1_545 S
C545 H538 0.950 . S
C545 C542 1.387 . S
C546 C547 1.387 . S
C546 H550 0.950 . S
C546 C555 1.390 . S
C547 C546 1.387 . S
C547 C549 1.387 . S
H548 C555 0.950 . S
C549 C547 1.387 . S
C549 C551 1.390 . S
C549 H553 0.950 . S
H550 C546 0.950 . S
C551 C549 1.390 . S
C551 C552 1.387 . S
C551 H554 0.950 . S
C552 C551 1.387 . S
C552 C555 1.387 . S
H553 C549 0.950 . S
H554 C551 0.950 . S
C555 C546 1.390 . S
C555 H548 0.950 . S
C555 C552 1.387 . S
C556 C557 1.387 . S
C556 H560 0.950 . S
C556 C565 1.390 1_565 S
C557 C556 1.387 . S
C557 C559 1.387 . S
H558 C565 0.950 . S
C559 C557 1.387 . S
C559 C561 1.390 1_565 S
C559 H563 0.950 . S
H560 C556 0.950 . S
C561 C559 1.390 1_545 S
C561 C562 1.387 . S
C561 H564 0.950 . S
C562 C561 1.387 . S
C562 C565 1.387 . S
H563 C559 0.950 . S
H564 C561 0.950 . S
C565 C556 1.390 1_545 S
C565 H558 0.950 . S
C565 C562 1.387 . S
C566 C567 1.387 . S
C566 H570 0.950 . S
C566 C575 1.390 1_545 S
C567 C566 1.387 . S
C567 C569 1.387 . S
H568 C575 0.950 . S
C569 C567 1.387 . S
C569 C571 1.390 1_545 S
C569 H573 0.950 . S
H570 C566 0.950 . S
C571 C569 1.390 1_565 S
C571 C572 1.387 . S
C571 H574 0.950 . S
C572 C571 1.387 . S
C572 C575 1.387 . S
H573 C569 0.950 . S
H574 C571 0.950 . S
C575 C566 1.390 1_565 S
C575 H568 0.950 . S
C575 C572 1.387 . S
C576 C577 1.387 . S
C576 H580 0.950 . S
C576 C585 1.390 . S
C577 C576 1.387 . S
C577 C579 1.387 . S
H578 C585 0.950 . S
C579 C577 1.387 . S
C579 C581 1.390 . S
C579 H583 0.950 . S
H580 C576 0.950 . S
C581 C579 1.390 . S
C581 C582 1.387 . S
C581 H584 0.950 . S
C582 C581 1.387 . S
C582 C585 1.387 . S
H583 C579 0.950 . S
H584 C581 0.950 . S
C585 C576 1.390 . S
C585 H578 0.950 . S
C585 C582 1.387 . S
C586 C587 1.387 . S
C586 H590 0.950 . S
C586 C595 1.390 . S
C587 C586 1.387 . S
C587 C589 1.387 . S
H588 C595 0.950 . S
C589 C587 1.387 . S
C589 C591 1.390 . S
C589 H593 0.950 . S
H590 C586 0.950 . S
C591 C589 1.390 . S
C591 C592 1.387 . S
C591 H594 0.950 . S
C592 C591 1.387 . S
C592 C595 1.387 . S
H593 C589 0.950 . S
H594 C591 0.950 . S
C595 C586 1.390 . S
C595 H588 0.950 . S
C595 C592 1.387 . S
C596 C597 1.387 . S
C596 H600 0.950 . S
C596 C605 1.390 . S
C597 C596 1.387 . S
C597 C599 1.387 . S
H598 C605 0.950 . S
C599 C597 1.387 . S
C599 C601 1.390 . S
C599 H603 0.950 . S
H600 C596 0.950 . S
C601 C599 1.390 . S
C601 C602 1.387 . S
C601 H604 0.950 . S
C602 C601 1.387 . S
C602 C605 1.387 . S
H603 C599 0.950 . S
H604 C601 0.950 . S
C605 C596 1.390 . S
C605 H598 0.950 . S
C605 C602 1.387 . S
C606 C607 1.387 . S
C606 H610 0.950 . S
C606 C615 1.390 . S
C607 C606 1.387 . S
C607 C609 1.387 . S
H608 C615 0.950 . S
C609 C607 1.387 . S
C609 C611 1.390 . S
C609 H613 0.950 . S
H610 C606 0.950 . S
C611 C609 1.390 . S
C611 C612 1.387 . S
C611 H614 0.950 . S
C612 C611 1.387 . S
C612 C615 1.387 . S
H613 C609 0.950 . S
H614 C611 0.950 . S
C615 C606 1.390 . S
C615 H608 0.950 . S
C615 C612 1.387 . S
C616 C617 1.387 . S
C616 H620 0.950 . S
C616 C625 1.390 . S
C617 C616 1.387 . S
C617 C619 1.387 . S
H618 C625 0.950 . S
C619 C617 1.387 . S
C619 C621 1.390 . S
C619 H623 0.950 . S
H620 C616 0.950 . S
C621 C619 1.390 . S
C621 C622 1.387 . S
C621 H624 0.950 . S
C622 C621 1.387 . S
C622 C625 1.387 . S
H623 C619 0.950 . S
H624 C621 0.950 . S
C625 C616 1.390 . S
C625 H618 0.950 . S
C625 C622 1.387 . S
C626 C627 1.387 . S
C626 H630 0.950 . S
C626 C635 1.390 . S
C627 C626 1.387 . S
C627 C629 1.387 . S
H628 C635 0.950 . S
C629 C627 1.387 . S
C629 C631 1.390 . S
C629 H633 0.950 . S
H630 C626 0.950 . S
C631 C629 1.390 . S
C631 C632 1.387 . S
C631 H634 0.950 . S
C632 C631 1.387 . S
C632 C635 1.387 . S
H633 C629 0.950 . S
H634 C631 0.950 . S
C635 C626 1.390 . S
C635 H628 0.950 . S
C635 C632 1.387 . S
C636 C637 1.387 . S
C636 H640 0.950 . S
C636 C645 1.390 . S
C637 C636 1.387 . S
C637 C639 1.387 . S
H638 C645 0.950 . S
C639 C637 1.387 . S
C639 C641 1.390 . S
C639 H643 0.950 . S
H640 C636 0.950 . S
C641 C639 1.390 . S
C641 C642 1.387 . S
C641 H644 0.950 . S
C642 C641 1.387 . S
C642 C645 1.387 . S
H643 C639 0.950 . S
H644 C641 0.950 . S
C645 C636 1.390 . S
C645 H638 0.950 . S
C645 C642 1.387 . S
C646 C647 1.387 . S
C646 H650 0.950 . S
C646 C655 1.390 . S
C647 C646 1.387 . S
C647 C649 1.387 . S
H648 C655 0.950 . S
C649 C647 1.387 . S
C649 C651 1.390 . S
C649 H653 0.950 . S
H650 C646 0.950 . S
C651 C649 1.390 . S
C651 C652 1.387 . S
C651 H654 0.950 . S
C652 C651 1.387 . S
C652 C655 1.387 . S
H653 C649 0.950 . S
H654 C651 0.950 . S
C655 C646 1.390 . S
C655 H648 0.950 . S
C655 C652 1.387 . S
C656 C657 1.387 . S
C656 H660 0.950 . S
C656 C665 1.390 . S
C657 C656 1.387 . S
C657 C659 1.387 . S
H658 C665 0.950 . S
C659 C657 1.387 . S
C659 C661 1.390 . S
C659 H663 0.950 . S
H660 C656 0.950 . S
C661 C659 1.390 . S
C661 C662 1.387 . S
C661 H664 0.950 . S
C662 C661 1.387 . S
C662 C665 1.387 . S
H663 C659 0.950 . S
H664 C661 0.950 . S
C665 C656 1.390 . S
C665 H658 0.950 . S
C665 C662 1.387 . S
C666 C667 1.387 . S
C666 H670 0.950 . S
C666 C675 1.390 . S
C667 C666 1.387 . S
C667 C669 1.387 . S
H668 C675 0.950 . S
C669 C667 1.387 . S
C669 C671 1.390 . S
C669 H673 0.950 . S
H670 C666 0.950 . S
C671 C669 1.390 . S
C671 C672 1.387 . S
C671 H674 0.950 . S
C672 C671 1.387 . S
C672 C675 1.387 . S
H673 C669 0.950 . S
H674 C671 0.950 . S
C675 C666 1.390 . S
C675 H668 0.950 . S
C675 C672 1.387 . S
C676 C677 1.387 . S
C676 H680 0.950 . S
C676 C685 1.390 . S
C677 C676 1.387 . S
C677 C679 1.387 . S
H678 C685 0.950 . S
C679 C677 1.387 . S
C679 C681 1.390 . S
C679 H683 0.950 . S
H680 C676 0.950 . S
C681 C679 1.390 . S
C681 C682 1.387 . S
C681 H684 0.950 . S
C682 C681 1.387 . S
C682 C685 1.387 . S
H683 C679 0.950 . S
H684 C681 0.950 . S
C685 C676 1.390 . S
C685 H678 0.950 . S
C685 C682 1.387 . S
C686 C687 1.387 . S
C686 H690 0.950 . S
C686 C695 1.390 . S
C687 C686 1.387 . S
C687 C689 1.387 . S
H688 C695 0.950 . S
C689 C687 1.387 . S
C689 C691 1.390 . S
C689 H693 0.950 . S
H690 C686 0.950 . S
C691 C689 1.390 . S
C691 C692 1.387 . S
C691 H694 0.950 . S
C692 C691 1.387 . S
C692 C695 1.387 . S
H693 C689 0.950 . S
H694 C691 0.950 . S
C695 C686 1.390 . S
C695 H688 0.950 . S
C695 C692 1.387 . S
C696 C697 1.387 . S
C696 H700 0.950 . S
C696 C705 1.390 . S
C697 C696 1.387 . S
C697 C699 1.387 . S
H698 C705 0.950 . S
C699 C697 1.387 . S
C699 C701 1.390 . S
C699 H703 0.950 . S
H700 C696 0.950 . S
C701 C699 1.390 . S
C701 C702 1.387 . S
C701 H704 0.950 . S
C702 C701 1.387 . S
C702 C705 1.387 . S
H703 C699 0.950 . S
H704 C701 0.950 . S
C705 C696 1.390 . S
C705 H698 0.950 . S
C705 C702 1.387 . S
C706 C707 1.387 . S
C706 H710 0.950 . S
C706 C715 1.390 . S
C707 C706 1.387 . S
C707 C709 1.387 . S
H708 C715 0.950 . S
C709 C707 1.387 . S
C709 C711 1.390 . S
C709 H713 0.950 . S
H710 C706 0.950 . S
C711 C709 1.390 . S
C711 C712 1.387 . S
C711 H714 0.950 . S
C712 C711 1.387 . S
C712 C715 1.387 . S
H713 C709 0.950 . S
H714 C711 0.950 . S
C715 C706 1.390 . S
C715 H708 0.950 . S
C715 C712 1.387 . S
C716 C717 1.387 . S
C716 H720 0.950 . S
C716 C725 1.390 . S
C717 C716 1.387 . S
C717 C719 1.387 . S
H718 C725 0.950 . S
C719 C717 1.387 . S
C719 C721 1.390 . S
C719 H723 0.950 . S
H720 C716 0.950 . S
C721 C719 1.390 . S
C721 C722 1.387 . S
C721 H724 0.950 . S
C722 C721 1.387 . S
C722 C725 1.387 . S
H723 C719 0.950 . S
H724 C721 0.950 . S
C725 C716 1.390 . S
C725 H718 0.950 . S
C725 C722 1.387 . S
C726 C727 1.387 . S
C726 H730 0.950 . S
C726 C735 1.390 . S
C727 C726 1.387 . S
C727 C729 1.387 . S
H728 C735 0.950 . S
C729 C727 1.387 . S
C729 C731 1.390 . S
C729 H733 0.950 . S
H730 C726 0.950 . S
C731 C729 1.390 . S
C731 C732 1.387 . S
C731 H734 0.950 . S
C732 C731 1.387 . S
C732 C735 1.387 . S
H733 C729 0.950 . S
H734 C731 0.950 . S
C735 C726 1.390 . S
C735 H728 0.950 . S
C735 C732 1.387 . S
C736 C737 1.387 . S
C736 H740 0.950 . S
C736 C745 1.390 . S
C737 C736 1.387 . S
C737 C739 1.387 . S
H738 C745 0.950 . S
C739 C737 1.387 . S
C739 C741 1.390 . S
C739 H743 0.950 . S
H740 C736 0.950 . S
C741 C739 1.390 . S
C741 C742 1.387 . S
C741 H744 0.950 . S
C742 C741 1.387 . S
C742 C745 1.387 . S
H743 C739 0.950 . S
H744 C741 0.950 . S
C745 C736 1.390 . S
C745 H738 0.950 . S
C745 C742 1.387 . S
C746 C747 1.387 . S
C746 H750 0.950 . S
C746 C755 1.390 . S
C747 C746 1.387 . S
C747 C749 1.387 . S
H748 C755 0.950 . S
C749 C747 1.387 . S
C749 C751 1.390 . S
C749 H753 0.950 . S
H750 C746 0.950 . S
C751 C749 1.390 . S
C751 C752 1.387 . S
C751 H754 0.950 . S
C752 C751 1.387 . S
C752 C755 1.387 . S
H753 C749 0.950 . S
H754 C751 0.950 . S
C755 C746 1.390 . S
C755 H748 0.950 . S
C755 C752 1.387 . S
C756 C757 1.387 . S
C756 H760 0.950 . S
C756 C765 1.390 . S
C757 C756 1.387 . S
C757 C759 1.387 . S
H758 C765 0.950 . S
C759 C757 1.387 . S
C759 C761 1.390 . S
C759 H763 0.950 . S
H760 C756 0.950 . S
C761 C759 1.390 . S
C761 C762 1.387 . S
C761 H764 0.950 . S
C762 C761 1.387 . S
C762 C765 1.387 . S
H763 C759 0.950 . S
H764 C761 0.950 . S
C765 C756 1.390 . S
C765 H758 0.950 . S
C765 C762 1.387 . S
C766 C767 1.387 . S
C766 H770 0.950 . S
C766 C775 1.390 . S
C767 C766 1.387 . S
C767 C769 1.387 . S
H768 C775 0.950 . S
C769 C767 1.387 . S
C769 C771 1.390 . S
C769 H773 0.950 . S
H770 C766 0.950 . S
C771 C769 1.390 . S
C771 C772 1.387 . S
C771 H774 0.950 . S
C772 C771 1.387 . S
C772 C775 1.387 . S
H773 C769 0.950 . S
H774 C771 0.950 . S
C775 C766 1.390 . S
C775 H768 0.950 . S
C775 C772 1.387 . S
C776 C777 1.387 . S
C776 H780 0.950 . S
C776 C785 1.390 . S
C777 C776 1.387 . S
C777 C779 1.387 . S
H778 C785 0.950 . S
C779 C777 1.387 . S
C779 C781 1.390 . S
C779 H783 0.950 . S
H780 C776 0.950 . S
C781 C779 1.390 . S
C781 C782 1.387 . S
C781 H784 0.950 . S
C782 C781 1.387 . S
C782 C785 1.387 . S
H783 C779 0.950 . S
H784 C781 0.950 . S
C785 C776 1.390 . S
C785 H778 0.950 . S
C785 C782 1.387 . S
C786 C787 1.387 . S
C786 H790 0.950 . S
C786 C795 1.390 . S
C787 C786 1.387 . S
C787 C789 1.387 . S
H788 C795 0.950 . S
C789 C787 1.387 . S
C789 C791 1.390 . S
C789 H793 0.950 . S
H790 C786 0.950 . S
C791 C789 1.390 . S
C791 C792 1.387 . S
C791 H794 0.950 . S
C792 C791 1.387 . S
C792 C795 1.387 . S
H793 C789 0.950 . S
H794 C791 0.950 . S
C795 C786 1.390 . S
C795 H788 0.950 . S
C795 C792 1.387 . S
C796 C797 1.387 . S
C796 H800 0.950 . S
C796 C805 1.390 . S
C797 C796 1.387 . S
C797 C799 1.387 . S
H798 C805 0.950 . S
C799 C797 1.387 . S
C799 C801 1.390 . S
C799 H803 0.950 . S
H800 C796 0.950 . S
C801 C799 1.390 . S
C801 C802 1.387 . S
C801 H804 0.950 . S
C802 C801 1.387 . S
C802 C805 1.387 . S
H803 C799 0.950 . S
H804 C801 0.950 . S
C805 C796 1.390 . S
C805 H798 0.950 . S
C805 C802 1.387 . S
C806 C807 1.387 . S
C806 H810 0.950 . S
C806 C815 1.390 . S
C807 C806 1.387 . S
C807 C809 1.387 . S
H808 C815 0.950 . S
C809 C807 1.387 . S
C809 C811 1.390 . S
C809 H813 0.950 . S
H810 C806 0.950 . S
C811 C809 1.390 . S
C811 C812 1.387 . S
C811 H814 0.950 . S
C812 C811 1.387 . S
C812 C815 1.387 . S
H813 C809 0.950 . S
H814 C811 0.950 . S
C815 C806 1.390 . S
C815 H808 0.950 . S
C815 C812 1.387 . S
C337 C216 1.448 . S
C342 C7 1.449 . S
C347 C174 1.448 . S
C352 C20 1.449 . S
C357 C189 1.448 . S
C362 C34 1.449 . S
C367 C203 1.449 . S
C372 C49 1.448 . S
C377 C202 1.449 . S
C382 C21 1.448 . S
C387 C35 1.449 . S
C392 C217 1.448 . S
C397 C175 1.448 . S
C402 C48 1.449 . S
C407 C188 1.449 . S
C412 C6 1.448 . S
C417 C258 1.449 . S
C422 C62 1.448 . S
C427 C77 1.448 . S
C432 C273 1.449 . S
C437 C90 1.449 . S
C442 C230 1.448 . S
C447 C245 1.448 . S
C452 C105 1.449 . S
C457 C315 1.449 . S
C462 C119 1.448 . S
C467 C132 1.448 . S
C472 C328 1.449 . S
C477 C147 1.448 . S
C482 C287 1.449 . S
C487 C160 1.449 . S
C492 C300 1.448 . S
C497 C244 1.448 . S
C502 C161 1.449 . S
C507 C329 1.449 . S
C512 C76 1.448 . S
C517 C91 1.448 . S
C522 C286 1.449 . S
C527 C301 1.448 . S
C532 C104 1.449 . S
C537 C314 1.448 . S
C542 C63 1.449 . S
C547 C133 1.448 . S
C552 C272 1.449 . S
C557 C231 1.449 . S
C562 C146 1.448 . S
C567 C259 1.448 . S
C572 C118 1.449 . S
C577 C8 1.075 . S
C582 C64 1.077 . S
C587 C79 1.078 . S
C592 C23 1.077 . S
C597 C37 1.075 . S
C602 C92 1.074 . S
C607 C50 1.074 . S
C612 C107 1.075 . S
C617 C121 1.076 . S
C622 C22 1.077 . S
C627 C134 1.077 . S
C632 C36 1.077 . S
C637 C149 1.078 . S
C642 C51 1.077 . S
C647 C9 1.075 . S
C652 C162 1.074 . S
C657 C163 1.077 . S
C662 C65 1.078 . S
C667 C78 1.078 . S
C672 C120 1.077 . S
C677 C93 1.074 . S
C682 C135 1.075 . S
C687 C148 1.075 . S
C692 C106 1.074 . S
C697 C232 1.074 . S
C702 C176 1.075 . S
C707 C247 1.074 . S
C712 C191 1.075 . S
C717 C205 1.076 . S
C722 C260 1.077 . S
C727 C218 1.074 . S
C732 C275 1.075 . S
C737 C190 1.074 . S
C742 C289 1.075 . S
C747 C204 1.074 . S
C752 C302 1.075 . S
C757 C317 1.075 . S
C762 C219 1.076 . S
C767 C177 1.078 . S
C772 C330 1.077 . S
C777 C233 1.074 . S
C782 C331 1.076 . S
C787 C288 1.077 . S
C792 C246 1.078 . S
C797 C261 1.078 . S
C802 C303 1.077 . S
C807 C316 1.078 . S
C812 C274 1.077 . S
