# Generated by pormake.
# Topology umm, (4)-cn, num edge types: 1
# Building blocks:
#     Node 0, Type 0, BuildingBlock: MUDLON_clean_sbu_0, # of connection points: 4
#     Node 1, Type 0, BuildingBlock: MUDLON_clean_sbu_0, # of connection points: 4
#     Node 2, Type 0, BuildingBlock: MUDLON_clean_sbu_0, # of connection points: 4
#     Node 3, Type 0, BuildingBlock: MUDLON_clean_sbu_0, # of connection points: 4
#     Node 4, Type 0, BuildingBlock: MUDLON_clean_sbu_0, # of connection points: 4
#     Node 5, Type 0, BuildingBlock: MUDLON_clean_sbu_0, # of connection points: 4
#     Node 6, Type 0, BuildingBlock: MUDLON_clean_sbu_0, # of connection points: 4
#     Node 7, Type 0, BuildingBlock: MUDLON_clean_sbu_0, # of connection points: 4
#     Node 8, Type 0, BuildingBlock: MUDLON_clean_sbu_0, # of connection points: 4
#     Node 9, Type 0, BuildingBlock: MUDLON_clean_sbu_0, # of connection points: 4
#     Node 10, Type 0, BuildingBlock: MUDLON_clean_sbu_0, # of connection points: 4
#     Node 11, Type 0, BuildingBlock: MUDLON_clean_sbu_0, # of connection points: 4
#     Edge 12, Type (0, 0), BuildingBlock: XIVTED_clean_linker_0, # of connection points: 2
#     Edge 13, Type (0, 0), BuildingBlock: XIVTED_clean_linker_0, # of connection points: 2
#     Edge 14, Type (0, 0), BuildingBlock: XIVTED_clean_linker_0, # of connection points: 2
#     Edge 15, Type (0, 0), BuildingBlock: XIVTED_clean_linker_0, # of connection points: 2
#     Edge 16, Type (0, 0), BuildingBlock: XIVTED_clean_linker_0, # of connection points: 2
#     Edge 17, Type (0, 0), BuildingBlock: XIVTED_clean_linker_0, # of connection points: 2
#     Edge 18, Type (0, 0), BuildingBlock: XIVTED_clean_linker_0, # of connection points: 2
#     Edge 19, Type (0, 0), BuildingBlock: XIVTED_clean_linker_0, # of connection points: 2
#     Edge 20, Type (0, 0), BuildingBlock: XIVTED_clean_linker_0, # of connection points: 2
#     Edge 21, Type (0, 0), BuildingBlock: XIVTED_clean_linker_0, # of connection points: 2
#     Edge 22, Type (0, 0), BuildingBlock: XIVTED_clean_linker_0, # of connection points: 2
#     Edge 23, Type (0, 0), BuildingBlock: XIVTED_clean_linker_0, # of connection points: 2
#     Edge 24, Type (0, 0), BuildingBlock: XIVTED_clean_linker_0, # of connection points: 2
#     Edge 25, Type (0, 0), BuildingBlock: XIVTED_clean_linker_0, # of connection points: 2
#     Edge 26, Type (0, 0), BuildingBlock: XIVTED_clean_linker_0, # of connection points: 2
#     Edge 27, Type (0, 0), BuildingBlock: XIVTED_clean_linker_0, # of connection points: 2
#     Edge 28, Type (0, 0), BuildingBlock: XIVTED_clean_linker_0, # of connection points: 2
#     Edge 29, Type (0, 0), BuildingBlock: XIVTED_clean_linker_0, # of connection points: 2
#     Edge 30, Type (0, 0), BuildingBlock: XIVTED_clean_linker_0, # of connection points: 2
#     Edge 31, Type (0, 0), BuildingBlock: XIVTED_clean_linker_0, # of connection points: 2
#     Edge 32, Type (0, 0), BuildingBlock: XIVTED_clean_linker_0, # of connection points: 2
#     Edge 33, Type (0, 0), BuildingBlock: XIVTED_clean_linker_0, # of connection points: 2
#     Edge 34, Type (0, 0), BuildingBlock: XIVTED_clean_linker_0, # of connection points: 2
#     Edge 35, Type (0, 0), BuildingBlock: XIVTED_clean_linker_0, # of connection points: 2
# Relax obj value: 0.065
# Max RMSD: 0.172
# Mean RMSD: 0.172
data_MOF--net-umm--node1-MUDLON_clean_sbu_0--edge1-XIVTED_clean_linker_0
_symmetry_space_group_name_H-M    P1
_symmetry_Int_Tables_number       1
_symmetry_cell_setting            triclinic
loop_
_symmetry_equiv_pos_as_xyz
'x, y, z'
_cell_length_a     59.143424
_cell_length_b     59.167136
_cell_length_c     29.886125
_cell_angle_alpha  89.891022
_cell_angle_beta   90.072675
_cell_angle_gamma 120.01551
loop_
_atom_site_label
_atom_site_type_symbol
_atom_site_fract_x
_atom_site_fract_y
_atom_site_fract_z
_atom_type_partial_charge
Mg0 Mg 0.4016 0.54665 0.08683 0.0
C1 C 0.4483 0.5419 0.08402 0.0
O2 O 0.45699 0.56702 0.08838 0.0
C3 C 0.34177 0.51688 0.10225 0.0
O4 O 0.34792 0.5224 0.14463 0.0
C5 C 0.40149 0.57442 0.17758 0.0
O6 O 0.38192 0.57664 0.16195 0.0
O7 O 0.41169 0.56419 0.15343 0.0
O8 O 0.42374 0.52646 0.08177 0.0
O9 O 0.4164 0.57426 0.0313 0.0
C10 C 0.40057 0.57462 1.00277 0.0
O11 O 0.3754 0.5611 1.01089 0.0
O12 O 0.35982 0.5224 0.07394 0.0
Mg13 Mg 0.86853 0.39255 0.42745 0.0
C14 C 0.91998 0.43818 0.43114 0.0
O15 O 0.90326 0.44667 0.43098 0.0
C16 C 0.82443 0.33857 0.43578 0.0
O17 O 0.81702 0.35218 0.46008 0.0
C18 C 0.85918 0.3934 0.52474 0.0
O19 O 0.86822 0.37718 0.52215 0.0
O20 O 0.85632 0.40326 0.48878 0.0
O21 O 0.91105 0.41362 0.42979 0.0
O22 O 0.85922 0.40633 0.36668 0.0
C23 C 0.85929 0.39419 0.33162 0.0
O24 O 0.86408 0.37486 0.33566 0.0
O25 O 0.84739 0.35011 0.41955 0.0
Mg26 Mg 0.46574 0.85516 0.75561 0.0
C27 C 0.47103 0.90765 0.75181 0.0
O28 O 0.4469 0.8922 0.73849 0.0
C29 C 0.47696 0.81633 0.72081 0.0
O30 O 0.4515 0.80606 0.7189 0.0
C31 C 0.43155 0.84464 0.83936 0.0
O32 O 0.42383 0.85895 0.8178 0.0
O33 O 0.44711 0.83878 0.8201 0.0
O34 O 0.48513 0.89761 0.76139 0.0
O35 O 0.44227 0.84579 0.69458 0.0
C36 C 0.45747 0.85637 0.66131 0.0
O37 O 0.48251 0.87167 0.66928 0.0
O38 O 0.49058 0.83875 0.73853 0.0
Mg39 Mg 0.6233 0.47268 0.09057 0.0
C40 C 0.57839 0.47967 0.08666 0.0
O41 O 0.5693 0.45434 0.08659 0.0
C42 C 0.6764 0.48092 0.09926 0.0
O43 O 0.66183 0.45928 0.1217 0.0
C44 C 0.62248 0.46411 0.18885 0.0
O45 O 0.64054 0.48879 0.1848 0.0
O46 O 0.61155 0.45115 0.1536 0.0
O47 O 0.60303 0.49483 0.08831 0.0
O48 O 0.6101 0.44876 0.0306 0.0
C49 C 0.62256 0.46083 0.99558 0.0
O50 O 0.64172 0.48504 0.99949 0.0
O51 O 0.66577 0.49347 0.08407 0.0
Mg52 Mg 0.16213 0.62039 0.43309 0.0
C53 C 0.11133 0.5723 0.43852 0.0
O54 O 0.12843 0.56429 0.43968 0.0
C55 C 0.19873 0.67883 0.4366 0.0
O56 O 0.20868 0.6716 0.46915 0.0
C57 C 0.17197 0.62328 0.53129 0.0
O58 O 0.15937 0.63623 0.52729 0.0
O59 O 0.17695 0.61447 0.49615 0.0
O60 O 0.11973 0.59674 0.43627 0.0
O61 O 0.17208 0.605 0.37513 0.0
C62 C 0.18815 0.62034 0.34604 0.0
O63 O 0.20151 0.64546 0.35451 0.0
O64 O 0.1777 0.66172 0.41805 0.0
Mg65 Mg 0.54743 0.15312 0.76473 0.0
C66 C 0.53666 0.10022 0.77474 0.0
O67 O 0.56187 0.1155 0.78101 0.0
C68 C 0.54713 0.19924 0.73514 0.0
O69 O 0.57156 0.20462 0.7352 0.0
C70 C 0.57273 0.18253 0.85284 0.0
O71 O 0.56479 0.19857 0.83943 0.0
O72 O 0.56929 0.16378 0.82757 0.0
O73 O 0.5228 0.1108 0.76734 0.0
O74 O 0.56991 0.1584 0.70399 0.0
C75 C 0.55584 0.15417 0.66925 0.0
O76 O 0.53113 0.14714 0.67458 0.0
O77 O 0.5298 0.17728 0.75068 0.0
Mg78 Mg 0.47213 0.62001 0.59247 0.0
C79 C 0.47551 0.5722 0.59362 0.0
O80 O 0.45031 0.5638 0.59327 0.0
C81 C 0.49371 0.67756 0.57694 0.0
O82 O 0.47809 0.66806 0.54223 0.0
C83 C 0.46569 0.61289 0.49556 0.0
O84 O 0.48979 0.61851 0.5037 0.0
O85 O 0.45153 0.61187 0.52844 0.0
O86 O 0.4913 0.59673 0.59348 0.0
O87 O 0.44912 0.60925 0.65361 0.0
C88 C 0.46439 0.61669 0.68726 0.0
O89 O 0.48967 0.6282 0.67994 0.0
O90 O 0.49726 0.66202 0.60146 0.0
Mg91 Mg 0.8669 0.4699 0.92597 0.0
C92 C 0.9189 0.47793 0.91773 0.0
O93 O 0.9028 0.45259 0.91623 0.0
C94 C 0.82126 0.47133 0.95215 0.0
O95 O 0.81512 0.44674 0.94922 0.0
C96 C 0.8512 0.45777 0.8301 0.0
O97 O 0.85496 0.48156 0.83323 0.0
O98 O 0.85362 0.44687 0.86507 0.0
O99 O 0.90926 0.49287 0.92142 0.0
O100 O 0.86044 0.44692 0.98629 0.0
C101 C 0.86449 0.46043 0.02157 0.0
O102 O 0.87228 0.48539 0.01738 0.0
O103 O 0.84398 0.48878 0.93977 0.0
Mg104 Mg 0.39693 0.85487 0.2595 0.0
C105 C 0.44655 0.90566 0.26081 0.0
O106 O 0.45471 0.88874 0.26389 0.0
C107 C 0.3382 0.8218 0.26441 0.0
O108 O 0.34258 0.81158 0.22877 0.0
C109 C 0.41467 0.83899 0.17317 0.0
O110 O 0.4349 0.84307 0.19742 0.0
O111 O 0.39642 0.84122 0.19127 0.0
O112 O 0.42208 0.89715 0.25842 0.0
O113 O 0.41294 0.84205 0.31336 0.0
C114 C 0.39765 0.82549 0.34202 0.0
O115 O 0.3725 0.81243 0.33359 0.0
O116 O 0.35719 0.84204 0.28176 0.0
Mg117 Mg 0.54282 0.39561 0.59294 0.0
C118 C 0.53607 0.4407 0.5929 0.0
O119 O 0.56137 0.44964 0.59164 0.0
C120 C 0.53508 0.34271 0.58636 0.0
O121 O 0.55675 0.35732 0.56407 0.0
C122 C 0.55183 0.39566 0.49487 0.0
O123 O 0.52713 0.3776 0.49868 0.0
O124 O 0.56459 0.40686 0.53015 0.0
O125 O 0.52079 0.41607 0.59375 0.0
O126 O 0.56667 0.40887 0.65301 0.0
C127 C 0.55407 0.39705 0.68808 0.0
O128 O 0.52942 0.3789 0.68404 0.0
O129 O 0.52222 0.35318 0.60065 0.0
Mg130 Mg 0.16382 0.55141 0.93439 0.0
C131 C 0.11232 0.54555 0.92439 0.0
O132 O 0.12866 0.57083 0.92584 0.0
C133 C 0.2037 0.54167 0.97151 0.0
O134 O 0.21147 0.56616 0.9808 0.0
C135 C 0.18268 0.56479 0.84007 0.0
O136 O 0.17934 0.54116 0.84357 0.0
O137 O 0.17908 0.57523 0.87448 0.0
O138 O 0.12156 0.53021 0.92674 0.0
O139 O 0.16992 0.57296 0.99623 0.0
C140 C 0.15942 0.55752 0.02915 0.0
O141 O 0.14556 0.53234 0.02115 0.0
O142 O 0.18315 0.52874 0.94806 0.0
Mg143 Mg 0.62123 0.14994 0.26029 0.0
C144 C 0.57794 0.09774 0.25611 0.0
O145 O 0.56868 0.11378 0.25302 0.0
C146 C 0.6684 0.19527 0.29064 0.0
O147 O 0.64978 0.20121 0.29197 0.0
C148 C 0.62194 0.18085 0.17434 0.0
O149 O 0.64186 0.20131 0.19257 0.0
O150 O 0.61049 0.15941 0.19585 0.0
O151 O 0.60257 0.10751 0.25957 0.0
O152 O 0.60426 0.15639 0.32026 0.0
C153 C 0.61355 0.15167 0.35524 0.0
O154 O 0.63043 0.14358 0.35031 0.0
O155 O 0.66317 0.17335 0.27407 0.0
H156 H 0.37913 0.58787 0.24594 0.0
H157 H 0.49043 0.60908 0.42177 0.0
H158 H 0.44516 0.57819 0.21585 0.0
H159 H 0.41874 0.60558 0.46247 0.0
H160 H 0.47504 0.60122 0.34493 0.0
H161 H 0.39428 0.59793 0.32385 0.0
C162 C 0.39687 0.58803 0.25556 0.0
C163 C 0.41086 0.58211 0.22423 0.0
C164 C 0.46258 0.60213 0.37052 0.0
C165 C 0.42821 0.59356 0.31317 0.0
C166 C 0.47139 0.60668 0.41459 0.0
C167 C 0.45585 0.60796 0.44883 0.0
C168 C 0.43799 0.59891 0.36008 0.0
C169 C 0.43133 0.60465 0.43719 0.0
C170 C 0.40542 0.59365 0.30007 0.0
C171 C 0.43365 0.58252 0.23871 0.0
N172 N 0.42315 0.60031 0.39372 0.0
N173 N 0.44155 0.58812 0.28194 0.0
H174 H 0.84666 0.43122 0.54445 0.0
H175 H 0.84874 0.41138 0.80962 0.0
H176 H 0.85929 0.37243 0.60617 0.0
H177 H 0.84523 0.47586 0.74906 0.0
H178 H 0.847 0.39364 0.73511 0.0
H179 H 0.84074 0.44477 0.61888 0.0
C180 C 0.84799 0.42103 0.57358 0.0
C181 C 0.85369 0.40079 0.56905 0.0
C182 C 0.84643 0.41158 0.73812 0.0
C183 C 0.84694 0.41618 0.65429 0.0
C184 C 0.84733 0.42168 0.78071 0.0
C185 C 0.84735 0.44528 0.78565 0.0
C186 C 0.84551 0.42512 0.7001 0.0
C187 C 0.84545 0.45771 0.74689 0.0
C188 C 0.84466 0.4288 0.61607 0.0
C189 C 0.85514 0.38827 0.60801 0.0
N190 N 0.84478 0.44758 0.70578 0.0
N191 N 0.8519 0.39623 0.64891 0.0
H192 H 0.39592 0.85044 0.88926 0.0
H193 H 0.44885 0.8307 0.12329 0.0
H194 H 0.45314 0.82576 0.89981 0.0
H195 H 0.38021 0.83825 0.11079 0.0
H196 H 0.45042 0.82812 0.0417 0.0
H197 H 0.38938 0.84531 0.97021 0.0
C198 C 0.40693 0.84368 0.9085 0.0
C199 C 0.4252 0.83864 0.88758 0.0
C200 C 0.43487 0.83009 0.05684 0.0
C201 C 0.41803 0.83303 0.98065 0.0
C202 C 0.43397 0.83159 0.10348 0.0
C203 C 0.41445 0.83484 0.12407 0.0
C204 C 0.41629 0.83215 0.03043 0.0
C205 C 0.39566 0.8358 0.09652 0.0
C206 C 0.40318 0.84075 0.9548 0.0
C207 C 0.43885 0.82988 0.91438 0.0
N208 N 0.39721 0.83473 0.05122 0.0
N209 N 0.4352 0.82764 0.95951 0.0
H210 H 0.64511 0.48537 0.26928 0.0
H211 H 0.53106 0.37247 0.41453 0.0
H212 H 0.58078 0.41625 0.21147 0.0
H213 H 0.59986 0.43715 0.47248 0.0
H214 H 0.54959 0.38744 0.34013 0.0
H215 H 0.62958 0.46736 0.3438 0.0
C216 C 0.62777 0.46632 0.27221 0.0
C217 C 0.61415 0.45237 0.23397 0.0
C218 C 0.56073 0.39829 0.36908 0.0
C219 C 0.59614 0.43166 0.31951 0.0
C220 C 0.55015 0.38977 0.41167 0.0
C221 C 0.56385 0.40366 0.4499 0.0
C222 C 0.58517 0.42102 0.36449 0.0
C223 C 0.58857 0.42585 0.444 0.0
C224 C 0.61893 0.45603 0.31486 0.0
C225 C 0.59189 0.42772 0.23996 0.0
N226 N 0.59834 0.43394 0.40211 0.0
N227 N 0.58348 0.41824 0.28191 0.0
H228 H 0.1906 0.59052 0.55387 0.0
H229 H 0.18213 0.60954 0.81769 0.0
H230 H 0.16818 0.64327 0.61149 0.0
H231 H 0.19235 0.54829 0.76054 0.0
H232 H 0.18368 0.62657 0.74245 0.0
H233 H 0.19775 0.57912 0.62936 0.0
C234 C 0.18742 0.59989 0.58233 0.0
C235 C 0.17856 0.61771 0.57632 0.0
C236 C 0.18581 0.60953 0.74641 0.0
C237 C 0.18669 0.60476 0.66279 0.0
C238 C 0.18503 0.59986 0.78941 0.0
C239 C 0.18688 0.5773 0.79548 0.0
C240 C 0.18851 0.59662 0.70913 0.0
C241 C 0.19063 0.5656 0.75748 0.0
C242 C 0.19144 0.59332 0.62543 0.0
C243 C 0.17479 0.62926 0.61448 0.0
N244 N 0.19115 0.57529 0.71596 0.0
N245 N 0.17876 0.6225 0.65601 0.0
H246 H 0.59129 0.13969 0.1198 0.0
H247 H 0.59002 0.22339 0.91208 0.0
H248 H 0.63547 0.22391 0.12133 0.0
H249 H 0.57712 0.14513 0.89962 0.0
H250 H 0.60256 0.2239 0.99062 0.0
H251 H 0.58077 0.14104 0.04122 0.0
C252 C 0.59865 0.15851 0.10374 0.0
C253 C 0.61434 0.18174 0.12729 0.0
C254 C 0.59715 0.20673 0.97049 0.0
C255 C 0.60226 0.18337 0.03703 0.0
C256 C 0.58998 0.2064 0.92572 0.0
C257 C 0.5825 0.18418 0.89917 0.0
C258 C 0.59631 0.18449 0.98905 0.0
C259 C 0.58282 0.16273 0.91867 0.0
C260 C 0.59277 0.15924 0.05873 0.0
C261 C 0.62338 0.20552 0.10446 0.0
N262 N 0.58933 0.16333 0.96247 0.0
N263 N 0.61711 0.20575 0.06062 0.0
H264 H 0.3017 0.51556 0.15022 0.0
H265 H 0.21789 0.508 0.93395 0.0
H266 H 0.32209 0.5041 0.01686 0.0
H267 H 0.22166 0.54839 0.05609 0.0
H268 H 0.24711 0.49413 0.96798 0.0
H269 H 0.2627 0.51431 0.11997 0.0
C270 C 0.29773 0.51221 0.11473 0.0
C271 C 0.31548 0.51039 0.08597 0.0
C272 C 0.24112 0.50567 0.98742 0.0
C273 C 0.27087 0.50908 0.05112 0.0
C274 C 0.22442 0.51344 0.96815 0.0
C275 C 0.21768 0.52953 0.99222 0.0
C276 C 0.2505 0.51365 0.03121 0.0
C277 C 0.2267 0.53623 0.03629 0.0
C278 C 0.27551 0.51164 0.09745 0.0
C279 C 0.30913 0.50594 0.04022 0.0
N280 N 0.24267 0.52833 0.0543 0.0
N281 N 0.2875 0.50575 0.0241 0.0
H282 H 0.7779 0.30632 0.47533 0.0
H283 H 0.71833 0.20439 0.27294 0.0
H284 H 0.8251 0.31085 0.36195 0.0
H285 H 0.67444 0.22468 0.3632 0.0
H286 H 0.75881 0.2356 0.31263 0.0
H287 H 0.74125 0.26742 0.44333 0.0
C288 C 0.78069 0.29886 0.44399 0.0
C289 C 0.80449 0.31209 0.42099 0.0
C290 C 0.74021 0.23295 0.32373 0.0
C291 C 0.76231 0.26762 0.38364 0.0
C292 C 0.71721 0.21519 0.30124 0.0
C293 C 0.69312 0.21227 0.31448 0.0
C294 C 0.73878 0.24721 0.36019 0.0
C295 C 0.69263 0.22663 0.35136 0.0
C296 C 0.7597 0.27669 0.42561 0.0
C297 C 0.80703 0.30129 0.3807 0.0
N298 N 0.71503 0.24337 0.37282 0.0
N299 N 0.78602 0.27984 0.36286 0.0
H300 H 0.51235 0.80239 0.75109 0.0
H301 H 0.49015 0.71589 0.53207 0.0
H302 H 0.4675 0.79987 0.63555 0.0
H303 H 0.51471 0.69992 0.65853 0.0
H304 H 0.49392 0.75556 0.56381 0.0
H305 H 0.52456 0.77326 0.71213 0.0
C306 C 0.50568 0.79623 0.71716 0.0
C307 C 0.48883 0.80328 0.6964 0.0
C308 C 0.49887 0.74359 0.58448 0.0
C309 C 0.50258 0.77034 0.65196 0.0
C310 C 0.49681 0.72095 0.5663 0.0
C311 C 0.50165 0.70425 0.59287 0.0
C312 C 0.50571 0.74963 0.62969 0.0
C313 C 0.51053 0.71208 0.63691 0.0
C314 C 0.51247 0.77954 0.6951 0.0
C315 C 0.4804 0.79465 0.6527 0.0
N316 N 0.51187 0.73401 0.65421 0.0
N317 N 0.48725 0.77857 0.63205 0.0
H318 H 0.70605 0.4623 0.13517 0.0
H319 H 0.81524 0.51475 0.94369 0.0
H320 H 0.70673 0.51286 0.03026 0.0
H321 H 0.78684 0.44247 0.01635 0.0
H322 H 0.78339 0.52261 0.98439 0.0
H323 H 0.7449 0.46461 0.10289 0.0
C324 C 0.71462 0.47426 0.1057 0.0
C325 C 0.70286 0.48706 0.08501 0.0
C326 C 0.78438 0.50516 0.99136 0.0
C327 C 0.74734 0.48954 0.04744 0.0
C328 C 0.80247 0.50069 0.96829 0.0
C329 C 0.8034 0.47777 0.97629 0.0
C330 C 0.76779 0.48688 0.02328 0.0
C331 C 0.78654 0.4602 1.00856 0.0
C332 C 0.73677 0.47548 0.08716 0.0
C333 C 0.71511 0.50256 0.04714 0.0
N334 N 0.76957 0.46516 0.03083 0.0
N335 N 0.73656 0.5031 0.0291 0.0
H336 H 0.24088 0.72172 0.47224 0.0
H337 H 0.32678 0.83018 0.34977 0.0
H338 H 0.19393 0.69481 0.35256 0.0
H339 H 0.29347 0.77809 0.23729 0.0
H340 H 0.28947 0.79999 0.39532 0.0
H341 H 0.27211 0.76112 0.43266 0.0
C342 C 0.2368 0.72442 0.43792 0.0
C343 C 0.21479 0.70486 0.4157 0.0
C344 C 0.2903 0.79513 0.3607 0.0
C345 C 0.25053 0.75017 0.36987 0.0
C346 C 0.31146 0.81257 0.33444 0.0
C347 C 0.31353 0.80646 0.28978 0.0
C348 C 0.27109 0.77135 0.34222 0.0
C349 C 0.29292 0.78343 0.27173 0.0
C350 C 0.25461 0.7471 0.4153 0.0
C351 C 0.21059 0.70938 0.3711 0.0
N352 N 0.27271 0.76662 0.2981 0.0
N353 N 0.22856 0.73132 0.34941 0.0
H354 H 0.50443 0.20621 0.74653 0.0
H355 H 0.55335 0.31285 0.55058 0.0
H356 H 0.57462 0.23261 0.66863 0.0
H357 H 0.50423 0.31311 0.65698 0.0
H358 H 0.55172 0.27447 0.58371 0.0
H359 H 0.49597 0.23773 0.70589 0.0
C360 C 0.51791 0.21847 0.72083 0.0
C361 C 0.54042 0.21705 0.71129 0.0
C362 C 0.54102 0.28269 0.59963 0.0
C363 C 0.53062 0.25233 0.6644 0.0
C364 C 0.54184 0.30456 0.58059 0.0
C365 C 0.52923 0.31645 0.60137 0.0
C366 C 0.52758 0.27253 0.64 0.0
C367 C 0.51433 0.3046 0.63997 0.0
C368 C 0.51311 0.23639 0.69778 0.0
C369 C 0.55724 0.23328 0.67763 0.0
N370 N 0.5142 0.28343 0.65851 0.0
N371 N 0.55196 0.2501 0.65546 0.0
H372 H 0.43802 0.49121 0.0779 0.0
H373 H 0.58915 0.5307 0.08834 0.0
H374 H 0.50154 0.5707 0.08738 0.0
H375 H 0.52528 0.45127 0.08136 0.0
H376 H 0.55749 0.54594 0.08645 0.0
H377 H 0.46986 0.47625 0.07745 0.0
C378 C 0.45863 0.50551 0.0798 0.0
C379 C 0.46708 0.53223 0.08275 0.0
C380 C 0.55044 0.52518 0.08529 0.0
C381 C 0.50367 0.51529 0.08231 0.0
C382 C 0.56852 0.51648 0.08636 0.0
C383 C 0.5599 0.48968 0.08509 0.0
C384 C 0.52356 0.50693 0.0829 0.0
C385 C 0.53289 0.47213 0.0825 0.0
C386 C 0.47683 0.49698 0.07957 0.0
C387 C 0.49408 0.54989 0.08512 0.0
N388 N 0.51574 0.48105 0.08153 0.0
N389 N 0.51137 0.54112 0.0849 0.0
H390 H 0.96122 0.42879 0.43326 0.0
H391 H 0.06986 0.58111 0.43588 0.0
H392 H 0.9435 0.49126 0.43263 0.0
H393 H 0.0882 0.51911 0.441 0.0
H394 H 0.02336 0.5483 0.43451 0.0
H395 H 1.00789 0.46142 0.43577 0.0
C396 C 0.96711 0.44931 0.43365 0.0
C397 C 0.94838 0.45725 0.43272 0.0
C398 C 0.03757 0.54188 0.436 0.0
C399 C 1.00169 0.4947 0.43558 0.0
C400 C 0.06413 0.56063 0.4368 0.0
C401 C 0.083 0.5529 0.43855 0.0
C402 C 0.02977 0.51517 0.43687 0.0
C403 C 0.07439 0.52603 0.43965 0.0
C404 C 0.99375 0.46795 0.43511 0.0
C405 C 0.95718 0.48416 0.43331 0.0
N406 N 0.04846 0.50818 0.43873 0.0
N407 N 0.98311 0.50184 0.43466 0.0
H408 H 0.48656 0.06168 0.75361 0.0
H409 H 0.51974 0.9461 0.77891 0.0
H410 H 0.56177 0.07335 0.79394 0.0
H411 H 0.44488 0.93397 0.73518 0.0
H412 H 0.53509 0.99277 0.78649 0.0
H413 H 0.47025 0.01459 0.7491 0.0
C414 C 0.49958 0.05436 0.76175 0.0
C415 C 0.52558 0.07153 0.77403 0.0
C416 C 0.51529 0.97988 0.77525 0.0
C417 C 0.50716 0.01776 0.76877 0.0
C418 C 0.50654 0.95323 0.77087 0.0
C419 C 0.481 0.93606 0.75632 0.0
C420 C 0.49839 0.98948 0.76503 0.0
C421 C 0.46475 0.94644 0.74646 0.0
C422 C 0.49031 0.02749 0.75906 0.0
C423 C 0.5416 0.06092 0.78414 0.0
N424 N 0.4737 0.97242 0.75098 0.0
N425 N 0.53217 0.03481 0.78119 0.0
H426 H 0.52613 0.58195 0.59325 0.0
H427 H 0.4851 0.43034 0.59482 0.0
H428 H 0.44614 0.51893 0.59461 0.0
H429 H 0.56484 0.49385 0.59189 0.0
H430 H 0.47023 0.46232 0.59531 0.0
H431 H 0.54062 0.54978 0.59334 0.0
C432 C 0.51162 0.56137 0.5936 0.0
C433 C 0.48489 0.55317 0.59391 0.0
C434 C 0.49098 0.46922 0.59456 0.0
C435 C 0.50131 0.51617 0.594 0.0
C436 C 0.49946 0.45095 0.59429 0.0
C437 C 0.52625 0.45937 0.5933 0.0
C438 C 0.50942 0.49608 0.59386 0.0
C439 C 0.54398 0.48638 0.59265 0.0
C440 C 0.51989 0.54298 0.59363 0.0
C441 C 0.46696 0.5262 0.59434 0.0
N442 N 0.53527 0.50369 0.59294 0.0
N443 N 0.47549 0.50871 0.59436 0.0
H444 H 0.08772 0.57417 0.9212 0.0
H445 H 0.94386 0.44984 0.91161 0.0
H446 H 0.07198 0.49461 0.92094 0.0
H447 H 0.95909 0.52904 0.92138 0.0
H448 H 0.99067 0.46607 0.91171 0.0
H449 H 0.04093 0.55816 0.91804 0.0
C450 C 0.07444 0.55329 0.92038 0.0
C451 C 0.08386 0.53569 0.92141 0.0
C452 C 0.98384 0.47995 0.91378 0.0
C453 C 0.03004 0.51722 0.9178 0.0
C454 C 0.95705 0.47071 0.91368 0.0
C455 C 0.94745 0.48811 0.91658 0.0
C456 C 1.00136 0.50686 0.91673 0.0
C457 C 0.96558 0.51491 0.91913 0.0
C458 C 0.04767 0.54418 0.91862 0.0
C459 C 0.06563 0.50889 0.92025 0.0
N460 N 0.99167 0.52346 0.91919 0.0
N461 N 0.0396 0.50048 0.91854 0.0
H462 H 0.43717 0.94655 0.25375 0.0
H463 H 0.58862 0.05744 0.26368 0.0
H464 H 0.49982 0.92945 0.26599 0.0
H465 H 0.525 0.07294 0.24898 0.0
H466 H 0.55676 0.01046 0.26473 0.0
H467 H 0.46943 0.99311 0.25226 0.0
C468 C 0.45769 0.95256 0.25614 0.0
C469 C 0.46575 0.93402 0.25999 0.0
C470 C 0.54984 0.0242 0.26124 0.0
C471 C 0.50291 0.9874 0.2583 0.0
C472 C 0.56802 0.051 0.26061 0.0
C473 C 0.55951 0.06919 0.25625 0.0
C474 C 0.523 0.0156 0.25751 0.0
C475 C 0.53255 0.05972 0.25244 0.0
C476 C 0.47615 0.97918 0.25527 0.0
C477 C 0.49267 0.94302 0.26296 0.0
N478 N 0.51534 0.03368 0.25319 0.0
N479 N 0.51027 0.96904 0.26207 0.0
H480 H 0.49341 0.63119 0.76353 0.0
H481 H 0.37125 0.5723 0.92997 0.0
H482 H 0.41351 0.5939 0.71762 0.0
H483 H 0.451 0.60163 0.97201 0.0
H484 H 0.3864 0.58478 0.85301 0.0
H485 H 0.47811 0.62465 0.84041 0.0
C486 C 0.47257 0.62162 0.76955 0.0
C487 C 0.4547 0.61292 0.73391 0.0
C488 C 0.40059 0.58869 0.87914 0.0
C489 C 0.43699 0.60539 0.82253 0.0
C490 C 0.39199 0.5817 0.9232 0.0
C491 C 0.40987 0.58572 0.95757 0.0
C492 C 0.42727 0.59986 0.86934 0.0
C493 C 0.43649 0.59801 0.94666 0.0
C494 C 0.46386 0.61792 0.81364 0.0
C495 C 0.42797 0.6008 0.74404 0.0
N496 N 0.44433 0.60447 0.90351 0.0
N497 N 0.41991 0.5973 0.78748 0.0
H498 H 0.85688 0.43788 0.30827 0.0
H499 H 0.85379 0.41102 0.04469 0.0
H500 H 0.8545 0.36953 0.2522 0.0
H501 H 0.8662 0.48343 0.10137 0.0
H502 H 0.84917 0.39336 0.1205 0.0
H503 H 0.85519 0.45271 0.23246 0.0
C504 C 0.85578 0.42589 0.28008 0.0
C505 C 0.85605 0.40255 0.28657 0.0
C506 C 0.85282 0.41309 0.11627 0.0
C507 C 0.85422 0.41941 0.19981 0.0
C508 C 0.85544 0.42315 0.07302 0.0
C509 C 0.86061 0.4488 0.0667 0.0
C510 C 0.85529 0.42876 0.15336 0.0
C511 C 0.86246 0.46363 0.10462 0.0
C512 C 0.8549 0.43439 0.2368 0.0
C513 C 0.85456 0.38777 0.24878 0.0
N514 N 0.85987 0.45343 0.14626 0.0
N515 N 0.85383 0.3965 0.20705 0.0
H516 H 0.48636 0.87723 0.58605 0.0
H517 H 0.36903 0.79727 0.41458 0.0
H518 H 0.40807 0.82195 0.62904 0.0
H519 H 0.44747 0.85431 0.37509 0.0
H520 H 0.38331 0.80309 0.49263 0.0
H521 H 0.47254 0.86688 0.50866 0.0
C522 C 0.46616 0.86292 0.57927 0.0
C523 C 0.44831 0.85053 0.6143 0.0
C524 C 0.39744 0.81413 0.46684 0.0
C525 C 0.43231 0.83842 0.52494 0.0
C526 C 0.38936 0.81072 0.42216 0.0
C527 C 0.40704 0.82546 0.38808 0.0
C528 C 0.4234 0.83243 0.47764 0.0
C529 C 0.43311 0.84258 0.4001 0.0
C530 C 0.4583 0.85695 0.53486 0.0
C531 C 0.42245 0.8321 0.60315 0.0
N532 N 0.44041 0.84573 0.44384 0.0
N533 N 0.4152 0.82661 0.55939 0.0
H534 H 0.5328 0.3725 0.7671 0.0
H535 H 0.64806 0.48055 0.91666 0.0
H536 H 0.60236 0.43769 0.71193 0.0
H537 H 0.57915 0.41454 0.97168 0.0
H538 H 0.63324 0.46333 0.84168 0.0
H539 H 0.55096 0.38581 0.84195 0.0
C540 C 0.55199 0.38958 0.77067 0.0
C541 C 0.566 0.40414 0.73312 0.0
C542 C 0.62142 0.45249 0.8701 0.0
C543 C 0.58692 0.41954 0.8191 0.0
C544 C 0.62986 0.46231 0.91302 0.0
C545 C 0.6147 0.44907 0.95056 0.0
C546 C 0.59754 0.42928 0.86448 0.0
C547 C 0.59141 0.42543 0.94372 0.0
C548 C 0.56236 0.39714 0.81353 0.0
C549 C 0.59084 0.42595 0.73991 0.0
N550 N 0.58344 0.4164 0.90146 0.0
N551 N 0.60043 0.43309 0.78211 0.0
H552 H 0.13904 0.52872 0.10486 0.0
H553 H 0.21523 0.6488 0.27261 0.0
H554 H 0.19147 0.60747 0.06019 0.0
H555 H 0.16015 0.57021 0.31468 0.0
H556 H 0.20962 0.63369 0.19518 0.0
H557 H 0.14861 0.54346 0.18205 0.0
C558 C 0.15253 0.54918 0.11125 0.0
C559 C 0.1644 0.56692 0.07591 0.0
C560 C 0.19893 0.61973 0.2214 0.0
C561 C 0.17561 0.58395 0.16468 0.0
C562 C 0.20222 0.6283 0.2657 0.0
C563 C 0.18799 0.61078 0.30024 0.0
C564 C 0.18128 0.59345 0.21155 0.0
C565 C 0.17144 0.58445 0.28919 0.0
C566 C 0.15805 0.55758 0.15547 0.0
C567 C 0.18177 0.59316 0.08639 0.0
N568 N 0.16842 0.57665 0.24581 0.0
N569 N 0.18685 0.6009 0.12989 0.0
H570 H 0.60331 0.16044 0.64325 0.0
H571 H 0.57349 0.15987 0.38084 0.0
H572 H 0.53235 0.15417 0.59082 0.0
H573 H 0.63683 0.15143 0.43372 0.0
H574 H 0.56084 0.16326 0.45764 0.0
H575 H 0.61875 0.16262 0.56638 0.0
C576 C 0.59106 0.15966 0.61564 0.0
C577 C 0.56642 0.15688 0.62347 0.0
C578 C 0.57756 0.16075 0.45233 0.0
C579 C 0.58392 0.15942 0.53559 0.0
C580 C 0.5848 0.15888 0.40853 0.0
C581 C 0.60607 0.15512 0.40087 0.0
C582 C 0.59185 0.15906 0.48861 0.0
C583 C 0.6201 0.15403 0.43802 0.0
C584 C 0.59983 0.16085 0.57178 0.0
C585 C 0.55137 0.15604 0.5864 0.0
N586 N 0.61272 0.15593 0.48019 0.0
N587 N 0.56032 0.15725 0.54415 0.0
loop_
_geom_bond_atom_site_label_1
_geom_bond_atom_site_label_2
_geom_bond_distance
_geom_bond_site_symmetry_2
_ccdc_geom_bond_type
Mg0 O7 2.141 . S
Mg0 O8 2.048 . S
Mg0 O9 2.054 . S
Mg0 O12 2.141 . S
C1 O2 1.313 . S
C1 O8 1.195 . S
O2 C1 1.313 . S
C3 O4 1.245 . S
C3 O12 1.289 . S
O4 C3 1.245 . S
C5 O6 1.245 . S
C5 O7 1.289 . S
O6 C5 1.245 . S
O7 Mg0 2.141 . S
O7 C5 1.289 . S
O8 Mg0 2.048 . S
O8 C1 1.195 . S
O9 Mg0 2.054 . S
O9 C10 1.191 1_554 S
C10 O9 1.191 1_556 S
C10 O11 1.313 . S
O11 C10 1.313 . S
O12 Mg0 2.141 . S
O12 C3 1.289 . S
Mg13 O20 2.141 . S
Mg13 O21 2.048 . S
Mg13 O22 2.048 . S
Mg13 O25 2.141 . S
C14 O15 1.313 . S
C14 O21 1.195 . S
O15 C14 1.313 . S
C16 O17 1.245 . S
C16 O25 1.289 . S
O17 C16 1.245 . S
C18 O19 1.245 . S
C18 O20 1.289 . S
O19 C18 1.245 . S
O20 Mg13 2.141 . S
O20 C18 1.289 . S
O21 Mg13 2.048 . S
O21 C14 1.195 . S
O22 Mg13 2.048 . S
O22 C23 1.195 . S
C23 O22 1.195 . S
C23 O24 1.313 . S
O24 C23 1.313 . S
O25 Mg13 2.141 . S
O25 C16 1.289 . S
Mg26 O33 2.141 . S
Mg26 O34 2.048 . S
Mg26 O35 2.048 . S
Mg26 O38 2.141 . S
C27 O28 1.313 . S
C27 O34 1.195 . S
O28 C27 1.313 . S
C29 O30 1.245 . S
C29 O38 1.289 . S
O30 C29 1.245 . S
C31 O32 1.245 . S
C31 O33 1.289 . S
O32 C31 1.245 . S
O33 Mg26 2.141 . S
O33 C31 1.289 . S
O34 Mg26 2.048 . S
O34 C27 1.195 . S
O35 Mg26 2.048 . S
O35 C36 1.195 . S
C36 O35 1.195 . S
C36 O37 1.313 . S
O37 C36 1.313 . S
O38 Mg26 2.141 . S
O38 C29 1.289 . S
Mg39 O46 2.141 . S
Mg39 O47 2.048 . S
Mg39 O48 2.054 . S
Mg39 O51 2.141 . S
C40 O41 1.313 . S
C40 O47 1.195 . S
O41 C40 1.313 . S
C42 O43 1.245 . S
C42 O51 1.289 . S
O43 C42 1.245 . S
C44 O45 1.245 . S
C44 O46 1.289 . S
O45 C44 1.245 . S
O46 Mg39 2.141 . S
O46 C44 1.289 . S
O47 Mg39 2.048 . S
O47 C40 1.195 . S
O48 Mg39 2.054 . S
O48 C49 1.191 1_554 S
C49 O48 1.191 1_556 S
C49 O50 1.313 . S
O50 C49 1.313 . S
O51 Mg39 2.141 . S
O51 C42 1.289 . S
Mg52 O59 2.141 . S
Mg52 O60 2.048 . S
Mg52 O61 2.048 . S
Mg52 O64 2.141 . S
C53 O54 1.313 . S
C53 O60 1.195 . S
O54 C53 1.313 . S
C55 O56 1.245 . S
C55 O64 1.289 . S
O56 C55 1.245 . S
C57 O58 1.245 . S
C57 O59 1.289 . S
O58 C57 1.245 . S
O59 Mg52 2.141 . S
O59 C57 1.289 . S
O60 Mg52 2.048 . S
O60 C53 1.195 . S
O61 Mg52 2.048 . S
O61 C62 1.195 . S
C62 O61 1.195 . S
C62 O63 1.313 . S
O63 C62 1.313 . S
O64 Mg52 2.141 . S
O64 C55 1.289 . S
Mg65 O72 2.141 . S
Mg65 O73 2.048 . S
Mg65 O74 2.048 . S
Mg65 O77 2.141 . S
C66 O67 1.313 . S
C66 O73 1.195 . S
O67 C66 1.313 . S
C68 O69 1.245 . S
C68 O77 1.289 . S
O69 C68 1.245 . S
C70 O71 1.245 . S
C70 O72 1.289 . S
O71 C70 1.245 . S
O72 Mg65 2.141 . S
O72 C70 1.289 . S
O73 Mg65 2.048 . S
O73 C66 1.195 . S
O74 Mg65 2.048 . S
O74 C75 1.195 . S
C75 O74 1.195 . S
C75 O76 1.313 . S
O76 C75 1.313 . S
O77 Mg65 2.141 . S
O77 C68 1.289 . S
Mg78 O85 2.141 . S
Mg78 O86 2.048 . S
Mg78 O87 2.048 . S
Mg78 O90 2.141 . S
C79 O80 1.313 . S
C79 O86 1.195 . S
O80 C79 1.313 . S
C81 O82 1.245 . S
C81 O90 1.289 . S
O82 C81 1.245 . S
C83 O84 1.245 . S
C83 O85 1.289 . S
O84 C83 1.245 . S
O85 Mg78 2.141 . S
O85 C83 1.289 . S
O86 Mg78 2.048 . S
O86 C79 1.195 . S
O87 Mg78 2.048 . S
O87 C88 1.195 . S
C88 O87 1.195 . S
C88 O89 1.313 . S
O89 C88 1.313 . S
O90 Mg78 2.141 . S
O90 C81 1.289 . S
Mg91 O98 2.141 . S
Mg91 O99 2.048 . S
Mg91 O100 2.054 . S
Mg91 O103 2.141 . S
C92 O93 1.313 . S
C92 O99 1.195 . S
O93 C92 1.313 . S
C94 O95 1.245 . S
C94 O103 1.289 . S
O95 C94 1.245 . S
C96 O97 1.245 . S
C96 O98 1.289 . S
O97 C96 1.245 . S
O98 Mg91 2.141 . S
O98 C96 1.289 . S
O99 Mg91 2.048 . S
O99 C92 1.195 . S
O100 Mg91 2.054 . S
O100 C101 1.191 1_556 S
C101 O100 1.191 1_554 S
C101 O102 1.313 . S
O102 C101 1.313 . S
O103 Mg91 2.141 . S
O103 C94 1.289 . S
Mg104 O111 2.141 . S
Mg104 O112 2.048 . S
Mg104 O113 2.048 . S
Mg104 O116 2.141 . S
C105 O106 1.313 . S
C105 O112 1.195 . S
O106 C105 1.313 . S
C107 O108 1.245 . S
C107 O116 1.289 . S
O108 C107 1.245 . S
C109 O110 1.245 . S
C109 O111 1.289 . S
O110 C109 1.245 . S
O111 Mg104 2.141 . S
O111 C109 1.289 . S
O112 Mg104 2.048 . S
O112 C105 1.195 . S
O113 Mg104 2.048 . S
O113 C114 1.195 . S
C114 O113 1.195 . S
C114 O115 1.313 . S
O115 C114 1.313 . S
O116 Mg104 2.141 . S
O116 C107 1.289 . S
Mg117 O124 2.141 . S
Mg117 O125 2.048 . S
Mg117 O126 2.048 . S
Mg117 O129 2.141 . S
C118 O119 1.313 . S
C118 O125 1.195 . S
O119 C118 1.313 . S
C120 O121 1.245 . S
C120 O129 1.289 . S
O121 C120 1.245 . S
C122 O123 1.245 . S
C122 O124 1.289 . S
O123 C122 1.245 . S
O124 Mg117 2.141 . S
O124 C122 1.289 . S
O125 Mg117 2.048 . S
O125 C118 1.195 . S
O126 Mg117 2.048 . S
O126 C127 1.195 . S
C127 O126 1.195 . S
C127 O128 1.313 . S
O128 C127 1.313 . S
O129 Mg117 2.141 . S
O129 C120 1.289 . S
Mg130 O137 2.141 . S
Mg130 O138 2.048 . S
Mg130 O139 2.054 . S
Mg130 O142 2.141 . S
C131 O132 1.313 . S
C131 O138 1.195 . S
O132 C131 1.313 . S
C133 O134 1.245 . S
C133 O142 1.289 . S
O134 C133 1.245 . S
C135 O136 1.245 . S
C135 O137 1.289 . S
O136 C135 1.245 . S
O137 Mg130 2.141 . S
O137 C135 1.289 . S
O138 Mg130 2.048 . S
O138 C131 1.195 . S
O139 Mg130 2.054 . S
O139 C140 1.191 1_556 S
C140 O139 1.191 1_554 S
C140 O141 1.313 . S
O141 C140 1.313 . S
O142 Mg130 2.141 . S
O142 C133 1.289 . S
Mg143 O150 2.141 . S
Mg143 O151 2.048 . S
Mg143 O152 2.048 . S
Mg143 O155 2.141 . S
C144 O145 1.313 . S
C144 O151 1.195 . S
O145 C144 1.313 . S
C146 O147 1.245 . S
C146 O155 1.289 . S
O147 C146 1.245 . S
C148 O149 1.245 . S
C148 O150 1.289 . S
O149 C148 1.245 . S
O150 Mg143 2.141 . S
O150 C148 1.289 . S
O151 Mg143 2.048 . S
O151 C144 1.195 . S
O152 Mg143 2.048 . S
O152 C153 1.195 . S
C153 O152 1.195 . S
C153 O154 1.313 . S
O154 C153 1.313 . S
O155 Mg143 2.141 . S
O155 C146 1.289 . S
H156 C162 0.930 . S
H157 C166 0.930 . S
H158 C171 0.929 . S
H159 C169 0.929 . S
H160 C164 0.929 . S
H161 C170 0.929 . S
C162 H156 0.930 . S
C162 C163 1.367 . S
C162 C170 1.378 . S
C163 C162 1.367 . S
C163 C171 1.433 . S
C164 H160 0.929 . S
C164 C166 1.378 . S
C164 C168 1.350 . S
C165 C168 1.463 . S
C165 C170 1.350 . S
C165 N173 1.427 . S
C166 H157 0.930 . S
C166 C164 1.378 . S
C166 C167 1.367 . S
C167 C166 1.367 . S
C167 C169 1.433 . S
C168 C164 1.350 . S
C168 C165 1.463 . S
C168 N172 1.427 . S
C169 H159 0.929 . S
C169 C167 1.433 . S
C169 N172 1.384 . S
C170 H161 0.929 . S
C170 C162 1.378 . S
C170 C165 1.350 . S
C171 H158 0.929 . S
C171 C163 1.433 . S
C171 N173 1.384 . S
N172 C168 1.427 . S
N172 C169 1.384 . S
N173 C165 1.427 . S
N173 C171 1.384 . S
H174 C180 0.930 . S
H175 C184 0.930 . S
H176 C189 0.929 . S
H177 C187 0.929 . S
H178 C182 0.929 . S
H179 C188 0.929 . S
C180 H174 0.930 . S
C180 C181 1.367 . S
C180 C188 1.378 . S
C181 C180 1.367 . S
C181 C189 1.433 . S
C182 H178 0.929 . S
C182 C184 1.378 . S
C182 C186 1.350 . S
C183 C186 1.463 . S
C183 C188 1.350 . S
C183 N191 1.427 . S
C184 H175 0.930 . S
C184 C182 1.378 . S
C184 C185 1.367 . S
C185 C184 1.367 . S
C185 C187 1.433 . S
C186 C182 1.350 . S
C186 C183 1.463 . S
C186 N190 1.427 . S
C187 H177 0.929 . S
C187 C185 1.433 . S
C187 N190 1.384 . S
C188 H179 0.929 . S
C188 C180 1.378 . S
C188 C183 1.350 . S
C189 H176 0.929 . S
C189 C181 1.433 . S
C189 N191 1.384 . S
N190 C186 1.427 . S
N190 C187 1.384 . S
N191 C183 1.427 . S
N191 C189 1.384 . S
H192 C198 0.930 . S
H193 C202 0.930 . S
H194 C207 0.929 . S
H195 C205 0.929 . S
H196 C200 0.929 . S
H197 C206 0.929 . S
C198 H192 0.930 . S
C198 C199 1.367 . S
C198 C206 1.378 . S
C199 C198 1.367 . S
C199 C207 1.433 . S
C200 H196 0.929 . S
C200 C202 1.378 . S
C200 C204 1.350 . S
C201 C204 1.463 1_556 S
C201 C206 1.350 . S
C201 N209 1.427 . S
C202 H193 0.930 . S
C202 C200 1.378 . S
C202 C203 1.367 . S
C203 C202 1.367 . S
C203 C205 1.433 . S
C204 C200 1.350 . S
C204 C201 1.463 1_554 S
C204 N208 1.427 . S
C205 H195 0.929 . S
C205 C203 1.433 . S
C205 N208 1.384 . S
C206 H197 0.929 . S
C206 C198 1.378 . S
C206 C201 1.350 . S
C207 H194 0.929 . S
C207 C199 1.433 . S
C207 N209 1.384 . S
N208 C204 1.427 . S
N208 C205 1.384 . S
N209 C201 1.427 . S
N209 C207 1.384 . S
H210 C216 0.930 . S
H211 C220 0.930 . S
H212 C225 0.929 . S
H213 C223 0.929 . S
H214 C218 0.929 . S
H215 C224 0.929 . S
C216 H210 0.930 . S
C216 C217 1.367 . S
C216 C224 1.378 . S
C217 C216 1.367 . S
C217 C225 1.433 . S
C218 H214 0.929 . S
C218 C220 1.378 . S
C218 C222 1.350 . S
C219 C222 1.463 . S
C219 C224 1.350 . S
C219 N227 1.427 . S
C220 H211 0.930 . S
C220 C218 1.378 . S
C220 C221 1.367 . S
C221 C220 1.367 . S
C221 C223 1.433 . S
C222 C218 1.350 . S
C222 C219 1.463 . S
C222 N226 1.427 . S
C223 H213 0.929 . S
C223 C221 1.433 . S
C223 N226 1.384 . S
C224 H215 0.929 . S
C224 C216 1.378 . S
C224 C219 1.350 . S
C225 H212 0.929 . S
C225 C217 1.433 . S
C225 N227 1.384 . S
N226 C222 1.427 . S
N226 C223 1.384 . S
N227 C219 1.427 . S
N227 C225 1.384 . S
H228 C234 0.930 . S
H229 C238 0.930 . S
H230 C243 0.929 . S
H231 C241 0.929 . S
H232 C236 0.929 . S
H233 C242 0.929 . S
C234 H228 0.930 . S
C234 C235 1.367 . S
C234 C242 1.378 . S
C235 C234 1.367 . S
C235 C243 1.433 . S
C236 H232 0.929 . S
C236 C238 1.378 . S
C236 C240 1.350 . S
C237 C240 1.463 . S
C237 C242 1.350 . S
C237 N245 1.427 . S
C238 H229 0.930 . S
C238 C236 1.378 . S
C238 C239 1.367 . S
C239 C238 1.367 . S
C239 C241 1.433 . S
C240 C236 1.350 . S
C240 C237 1.463 . S
C240 N244 1.427 . S
C241 H231 0.929 . S
C241 C239 1.433 . S
C241 N244 1.384 . S
C242 H233 0.929 . S
C242 C234 1.378 . S
C242 C237 1.350 . S
C243 H230 0.929 . S
C243 C235 1.433 . S
C243 N245 1.384 . S
N244 C240 1.427 . S
N244 C241 1.384 . S
N245 C237 1.427 . S
N245 C243 1.384 . S
H246 C252 0.930 . S
H247 C256 0.930 . S
H248 C261 0.929 . S
H249 C259 0.929 . S
H250 C254 0.929 . S
H251 C260 0.929 . S
C252 H246 0.930 . S
C252 C253 1.367 . S
C252 C260 1.378 . S
C253 C252 1.367 . S
C253 C261 1.433 . S
C254 H250 0.929 . S
C254 C256 1.378 . S
C254 C258 1.350 . S
C255 C258 1.463 1_554 S
C255 C260 1.350 . S
C255 N263 1.427 . S
C256 H247 0.930 . S
C256 C254 1.378 . S
C256 C257 1.367 . S
C257 C256 1.367 . S
C257 C259 1.433 . S
C258 C254 1.350 . S
C258 C255 1.463 1_556 S
C258 N262 1.427 . S
C259 H249 0.929 . S
C259 C257 1.433 . S
C259 N262 1.384 . S
C260 H251 0.929 . S
C260 C252 1.378 . S
C260 C255 1.350 . S
C261 H248 0.929 . S
C261 C253 1.433 . S
C261 N263 1.384 . S
N262 C258 1.427 . S
N262 C259 1.384 . S
N263 C255 1.427 . S
N263 C261 1.384 . S
H264 C270 0.930 . S
H265 C274 0.930 . S
H266 C279 0.929 . S
H267 C277 0.929 . S
H268 C272 0.929 . S
H269 C278 0.929 . S
C270 H264 0.930 . S
C270 C271 1.367 . S
C270 C278 1.378 1_554 S
C271 C270 1.367 . S
C271 C279 1.433 . S
C272 H268 0.929 . S
C272 C274 1.378 1_554 S
C272 C276 1.350 1_554 S
C273 C276 1.463 1_554 S
C273 C278 1.350 1_554 S
C273 N281 1.427 . S
C274 H265 0.930 . S
C274 C272 1.378 1_556 S
C274 C275 1.367 . S
C275 C274 1.367 . S
C275 C277 1.433 . S
C276 C272 1.350 1_556 S
C276 C273 1.463 1_556 S
C276 N280 1.427 . S
C277 H267 0.929 . S
C277 C275 1.433 . S
C277 N280 1.384 . S
C278 H269 0.929 . S
C278 C270 1.378 1_556 S
C278 C273 1.350 1_556 S
C279 H266 0.929 . S
C279 C271 1.433 . S
C279 N281 1.384 . S
N280 C276 1.427 . S
N280 C277 1.384 . S
N281 C273 1.427 . S
N281 C279 1.384 . S
H282 C288 0.930 . S
H283 C292 0.930 . S
H284 C297 0.929 . S
H285 C295 0.929 . S
H286 C290 0.929 . S
H287 C296 0.929 . S
C288 H282 0.930 . S
C288 C289 1.367 . S
C288 C296 1.378 . S
C289 C288 1.367 . S
C289 C297 1.433 . S
C290 H286 0.929 . S
C290 C292 1.378 . S
C290 C294 1.350 . S
C291 C294 1.463 . S
C291 C296 1.350 . S
C291 N299 1.427 . S
C292 H283 0.930 . S
C292 C290 1.378 . S
C292 C293 1.367 . S
C293 C292 1.367 . S
C293 C295 1.433 . S
C294 C290 1.350 . S
C294 C291 1.463 . S
C294 N298 1.427 . S
C295 H285 0.929 . S
C295 C293 1.433 . S
C295 N298 1.384 . S
C296 H287 0.929 . S
C296 C288 1.378 . S
C296 C291 1.350 . S
C297 H284 0.929 . S
C297 C289 1.433 . S
C297 N299 1.384 . S
N298 C294 1.427 . S
N298 C295 1.384 . S
N299 C291 1.427 . S
N299 C297 1.384 . S
H300 C306 0.930 . S
H301 C310 0.930 . S
H302 C315 0.929 . S
H303 C313 0.929 . S
H304 C308 0.929 . S
H305 C314 0.929 . S
C306 H300 0.930 . S
C306 C307 1.367 . S
C306 C314 1.378 . S
C307 C306 1.367 . S
C307 C315 1.433 . S
C308 H304 0.929 . S
C308 C310 1.378 . S
C308 C312 1.350 . S
C309 C312 1.463 . S
C309 C314 1.350 . S
C309 N317 1.427 . S
C310 H301 0.930 . S
C310 C308 1.378 . S
C310 C311 1.367 . S
C311 C310 1.367 . S
C311 C313 1.433 . S
C312 C308 1.350 . S
C312 C309 1.463 . S
C312 N316 1.427 . S
C313 H303 0.929 . S
C313 C311 1.433 . S
C313 N316 1.384 . S
C314 H305 0.929 . S
C314 C306 1.378 . S
C314 C309 1.350 . S
C315 H302 0.929 . S
C315 C307 1.433 . S
C315 N317 1.384 . S
N316 C312 1.427 . S
N316 C313 1.384 . S
N317 C309 1.427 . S
N317 C315 1.384 . S
H318 C324 0.930 . S
H319 C328 0.930 . S
H320 C333 0.929 . S
H321 C331 0.929 . S
H322 C326 0.929 . S
H323 C332 0.929 . S
C324 H318 0.930 . S
C324 C325 1.367 . S
C324 C332 1.378 . S
C325 C324 1.367 . S
C325 C333 1.433 . S
C326 H322 0.929 . S
C326 C328 1.378 . S
C326 C330 1.350 . S
C327 C330 1.463 1_554 S
C327 C332 1.350 . S
C327 N335 1.427 1_554 S
C328 H319 0.930 . S
C328 C326 1.378 . S
C328 C329 1.367 . S
C329 C328 1.367 . S
C329 C331 1.433 . S
C330 C326 1.350 . S
C330 C327 1.463 1_556 S
C330 N334 1.427 1_556 S
C331 H321 0.929 . S
C331 C329 1.433 . S
C331 N334 1.384 1_556 S
C332 H323 0.929 . S
C332 C324 1.378 . S
C332 C327 1.350 . S
C333 H320 0.929 . S
C333 C325 1.433 . S
C333 N335 1.384 1_554 S
N334 C330 1.427 1_554 S
N334 C331 1.384 1_554 S
N335 C327 1.427 1_556 S
N335 C333 1.384 1_556 S
H336 C342 0.930 . S
H337 C346 0.930 . S
H338 C351 0.929 . S
H339 C349 0.929 . S
H340 C344 0.929 . S
H341 C350 0.929 . S
C342 H336 0.930 . S
C342 C343 1.367 . S
C342 C350 1.378 . S
C343 C342 1.367 . S
C343 C351 1.433 . S
C344 H340 0.929 . S
C344 C346 1.378 . S
C344 C348 1.350 . S
C345 C348 1.463 . S
C345 C350 1.350 . S
C345 N353 1.427 . S
C346 H337 0.930 . S
C346 C344 1.378 . S
C346 C347 1.367 . S
C347 C346 1.367 . S
C347 C349 1.433 . S
C348 C344 1.350 . S
C348 C345 1.463 . S
C348 N352 1.427 . S
C349 H339 0.929 . S
C349 C347 1.433 . S
C349 N352 1.384 . S
C350 H341 0.929 . S
C350 C342 1.378 . S
C350 C345 1.350 . S
C351 H338 0.929 . S
C351 C343 1.433 . S
C351 N353 1.384 . S
N352 C348 1.427 . S
N352 C349 1.384 . S
N353 C345 1.427 . S
N353 C351 1.384 . S
H354 C360 0.930 . S
H355 C364 0.930 . S
H356 C369 0.929 . S
H357 C367 0.929 . S
H358 C362 0.929 . S
H359 C368 0.929 . S
C360 H354 0.930 . S
C360 C361 1.367 . S
C360 C368 1.378 . S
C361 C360 1.367 . S
C361 C369 1.433 . S
C362 H358 0.929 . S
C362 C364 1.378 . S
C362 C366 1.350 . S
C363 C366 1.463 . S
C363 C368 1.350 . S
C363 N371 1.427 . S
C364 H355 0.930 . S
C364 C362 1.378 . S
C364 C365 1.367 . S
C365 C364 1.367 . S
C365 C367 1.433 . S
C366 C362 1.350 . S
C366 C363 1.463 . S
C366 N370 1.427 . S
C367 H357 0.929 . S
C367 C365 1.433 . S
C367 N370 1.384 . S
C368 H359 0.929 . S
C368 C360 1.378 . S
C368 C363 1.350 . S
C369 H356 0.929 . S
C369 C361 1.433 . S
C369 N371 1.384 . S
N370 C366 1.427 . S
N370 C367 1.384 . S
N371 C363 1.427 . S
N371 C369 1.384 . S
H372 C378 0.930 . S
H373 C382 0.930 . S
H374 C387 0.929 . S
H375 C385 0.929 . S
H376 C380 0.929 . S
H377 C386 0.929 . S
C378 H372 0.930 . S
C378 C379 1.367 . S
C378 C386 1.378 . S
C379 C378 1.367 . S
C379 C387 1.433 . S
C380 H376 0.929 . S
C380 C382 1.378 . S
C380 C384 1.350 . S
C381 C384 1.463 . S
C381 C386 1.350 . S
C381 N389 1.427 . S
C382 H373 0.930 . S
C382 C380 1.378 . S
C382 C383 1.367 . S
C383 C382 1.367 . S
C383 C385 1.433 . S
C384 C380 1.350 . S
C384 C381 1.463 . S
C384 N388 1.427 . S
C385 H375 0.929 . S
C385 C383 1.433 . S
C385 N388 1.384 . S
C386 H377 0.929 . S
C386 C378 1.378 . S
C386 C381 1.350 . S
C387 H374 0.929 . S
C387 C379 1.433 . S
C387 N389 1.384 . S
N388 C384 1.427 . S
N388 C385 1.384 . S
N389 C381 1.427 . S
N389 C387 1.384 . S
H390 C396 0.930 . S
H391 C400 0.930 . S
H392 C405 0.929 . S
H393 C403 0.929 . S
H394 C398 0.929 . S
H395 C404 0.929 . S
C396 H390 0.930 . S
C396 C397 1.367 . S
C396 C404 1.378 . S
C397 C396 1.367 . S
C397 C405 1.433 . S
C398 H394 0.929 . S
C398 C400 1.378 . S
C398 C402 1.350 . S
C399 C402 1.463 1_655 S
C399 C404 1.350 . S
C399 N407 1.427 . S
C400 H391 0.930 . S
C400 C398 1.378 . S
C400 C401 1.367 . S
C401 C400 1.367 . S
C401 C403 1.433 . S
C402 C398 1.350 . S
C402 C399 1.463 1_455 S
C402 N406 1.427 . S
C403 H393 0.929 . S
C403 C401 1.433 . S
C403 N406 1.384 . S
C404 H395 0.929 . S
C404 C396 1.378 . S
C404 C399 1.350 . S
C405 H392 0.929 . S
C405 C397 1.433 . S
C405 N407 1.384 . S
N406 C402 1.427 . S
N406 C403 1.384 . S
N407 C399 1.427 . S
N407 C405 1.384 . S
H408 C414 0.930 . S
H409 C418 0.930 . S
H410 C423 0.929 . S
H411 C421 0.929 . S
H412 C416 0.929 . S
H413 C422 0.929 . S
C414 H408 0.930 . S
C414 C415 1.367 . S
C414 C422 1.378 . S
C415 C414 1.367 . S
C415 C423 1.433 . S
C416 H412 0.929 . S
C416 C418 1.378 . S
C416 C420 1.350 . S
C417 C420 1.463 1_545 S
C417 C422 1.350 . S
C417 N425 1.427 . S
C418 H409 0.930 . S
C418 C416 1.378 . S
C418 C419 1.367 . S
C419 C418 1.367 . S
C419 C421 1.433 . S
C420 C416 1.350 . S
C420 C417 1.463 1_565 S
C420 N424 1.427 . S
C421 H411 0.929 . S
C421 C419 1.433 . S
C421 N424 1.384 . S
C422 H413 0.929 . S
C422 C414 1.378 . S
C422 C417 1.350 . S
C423 H410 0.929 . S
C423 C415 1.433 . S
C423 N425 1.384 . S
N424 C420 1.427 . S
N424 C421 1.384 . S
N425 C417 1.427 . S
N425 C423 1.384 . S
H426 C432 0.930 . S
H427 C436 0.930 . S
H428 C441 0.929 . S
H429 C439 0.929 . S
H430 C434 0.929 . S
H431 C440 0.929 . S
C432 H426 0.930 . S
C432 C433 1.367 . S
C432 C440 1.378 . S
C433 C432 1.367 . S
C433 C441 1.433 . S
C434 H430 0.929 . S
C434 C436 1.378 . S
C434 C438 1.350 . S
C435 C438 1.463 . S
C435 C440 1.350 . S
C435 N443 1.427 . S
C436 H427 0.930 . S
C436 C434 1.378 . S
C436 C437 1.367 . S
C437 C436 1.367 . S
C437 C439 1.433 . S
C438 C434 1.350 . S
C438 C435 1.463 . S
C438 N442 1.427 . S
C439 H429 0.929 . S
C439 C437 1.433 . S
C439 N442 1.384 . S
C440 H431 0.929 . S
C440 C432 1.378 . S
C440 C435 1.350 . S
C441 H428 0.929 . S
C441 C433 1.433 . S
C441 N443 1.384 . S
N442 C438 1.427 . S
N442 C439 1.384 . S
N443 C435 1.427 . S
N443 C441 1.384 . S
H444 C450 0.930 . S
H445 C454 0.930 . S
H446 C459 0.929 . S
H447 C457 0.929 . S
H448 C452 0.929 . S
H449 C458 0.929 . S
C450 H444 0.930 . S
C450 C451 1.367 . S
C450 C458 1.378 . S
C451 C450 1.367 . S
C451 C459 1.433 . S
C452 H448 0.929 . S
C452 C454 1.378 . S
C452 C456 1.350 . S
C453 C456 1.463 1_455 S
C453 C458 1.350 . S
C453 N461 1.427 . S
C454 H445 0.930 . S
C454 C452 1.378 . S
C454 C455 1.367 . S
C455 C454 1.367 . S
C455 C457 1.433 . S
C456 C452 1.350 . S
C456 C453 1.463 1_655 S
C456 N460 1.427 . S
C457 H447 0.929 . S
C457 C455 1.433 . S
C457 N460 1.384 . S
C458 H449 0.929 . S
C458 C450 1.378 . S
C458 C453 1.350 . S
C459 H446 0.929 . S
C459 C451 1.433 . S
C459 N461 1.384 . S
N460 C456 1.427 . S
N460 C457 1.384 . S
N461 C453 1.427 . S
N461 C459 1.384 . S
H462 C468 0.930 . S
H463 C472 0.930 . S
H464 C477 0.929 . S
H465 C475 0.929 . S
H466 C470 0.929 . S
H467 C476 0.929 . S
C468 H462 0.930 . S
C468 C469 1.367 . S
C468 C476 1.378 . S
C469 C468 1.367 . S
C469 C477 1.433 . S
C470 H466 0.929 . S
C470 C472 1.378 . S
C470 C474 1.350 . S
C471 C474 1.463 1_565 S
C471 C476 1.350 . S
C471 N479 1.427 . S
C472 H463 0.930 . S
C472 C470 1.378 . S
C472 C473 1.367 . S
C473 C472 1.367 . S
C473 C475 1.433 . S
C474 C470 1.350 . S
C474 C471 1.463 1_545 S
C474 N478 1.427 . S
C475 H465 0.929 . S
C475 C473 1.433 . S
C475 N478 1.384 . S
C476 H467 0.929 . S
C476 C468 1.378 . S
C476 C471 1.350 . S
C477 H464 0.929 . S
C477 C469 1.433 . S
C477 N479 1.384 . S
N478 C474 1.427 . S
N478 C475 1.384 . S
N479 C471 1.427 . S
N479 C477 1.384 . S
H480 C486 0.930 . S
H481 C490 0.930 . S
H482 C495 0.929 . S
H483 C493 0.929 . S
H484 C488 0.929 . S
H485 C494 0.929 . S
C486 H480 0.930 . S
C486 C487 1.367 . S
C486 C494 1.378 . S
C487 C486 1.367 . S
C487 C495 1.433 . S
C488 H484 0.929 . S
C488 C490 1.378 . S
C488 C492 1.350 . S
C489 C492 1.463 . S
C489 C494 1.350 . S
C489 N497 1.427 . S
C490 H481 0.930 . S
C490 C488 1.378 . S
C490 C491 1.367 . S
C491 C490 1.367 . S
C491 C493 1.433 . S
C492 C488 1.350 . S
C492 C489 1.463 . S
C492 N496 1.427 . S
C493 H483 0.929 . S
C493 C491 1.433 . S
C493 N496 1.384 . S
C494 H485 0.929 . S
C494 C486 1.378 . S
C494 C489 1.350 . S
C495 H482 0.929 . S
C495 C487 1.433 . S
C495 N497 1.384 . S
N496 C492 1.427 . S
N496 C493 1.384 . S
N497 C489 1.427 . S
N497 C495 1.384 . S
H498 C504 0.930 . S
H499 C508 0.930 . S
H500 C513 0.929 . S
H501 C511 0.929 . S
H502 C506 0.929 . S
H503 C512 0.929 . S
C504 H498 0.930 . S
C504 C505 1.367 . S
C504 C512 1.378 . S
C505 C504 1.367 . S
C505 C513 1.433 . S
C506 H502 0.929 . S
C506 C508 1.378 . S
C506 C510 1.350 . S
C507 C510 1.463 . S
C507 C512 1.350 . S
C507 N515 1.427 . S
C508 H499 0.930 . S
C508 C506 1.378 . S
C508 C509 1.367 . S
C509 C508 1.367 . S
C509 C511 1.433 . S
C510 C506 1.350 . S
C510 C507 1.463 . S
C510 N514 1.427 . S
C511 H501 0.929 . S
C511 C509 1.433 . S
C511 N514 1.384 . S
C512 H503 0.929 . S
C512 C504 1.378 . S
C512 C507 1.350 . S
C513 H500 0.929 . S
C513 C505 1.433 . S
C513 N515 1.384 . S
N514 C510 1.427 . S
N514 C511 1.384 . S
N515 C507 1.427 . S
N515 C513 1.384 . S
H516 C522 0.930 . S
H517 C526 0.930 . S
H518 C531 0.929 . S
H519 C529 0.929 . S
H520 C524 0.929 . S
H521 C530 0.929 . S
C522 H516 0.930 . S
C522 C523 1.367 . S
C522 C530 1.378 . S
C523 C522 1.367 . S
C523 C531 1.433 . S
C524 H520 0.929 . S
C524 C526 1.378 . S
C524 C528 1.350 . S
C525 C528 1.463 . S
C525 C530 1.350 . S
C525 N533 1.427 . S
C526 H517 0.930 . S
C526 C524 1.378 . S
C526 C527 1.367 . S
C527 C526 1.367 . S
C527 C529 1.433 . S
C528 C524 1.350 . S
C528 C525 1.463 . S
C528 N532 1.427 . S
C529 H519 0.929 . S
C529 C527 1.433 . S
C529 N532 1.384 . S
C530 H521 0.929 . S
C530 C522 1.378 . S
C530 C525 1.350 . S
C531 H518 0.929 . S
C531 C523 1.433 . S
C531 N533 1.384 . S
N532 C528 1.427 . S
N532 C529 1.384 . S
N533 C525 1.427 . S
N533 C531 1.384 . S
H534 C540 0.930 . S
H535 C544 0.930 . S
H536 C549 0.929 . S
H537 C547 0.929 . S
H538 C542 0.929 . S
H539 C548 0.929 . S
C540 H534 0.930 . S
C540 C541 1.367 . S
C540 C548 1.378 . S
C541 C540 1.367 . S
C541 C549 1.433 . S
C542 H538 0.929 . S
C542 C544 1.378 . S
C542 C546 1.350 . S
C543 C546 1.463 . S
C543 C548 1.350 . S
C543 N551 1.427 . S
C544 H535 0.930 . S
C544 C542 1.378 . S
C544 C545 1.367 . S
C545 C544 1.367 . S
C545 C547 1.433 . S
C546 C542 1.350 . S
C546 C543 1.463 . S
C546 N550 1.427 . S
C547 H537 0.929 . S
C547 C545 1.433 . S
C547 N550 1.384 . S
C548 H539 0.929 . S
C548 C540 1.378 . S
C548 C543 1.350 . S
C549 H536 0.929 . S
C549 C541 1.433 . S
C549 N551 1.384 . S
N550 C546 1.427 . S
N550 C547 1.384 . S
N551 C543 1.427 . S
N551 C549 1.384 . S
H552 C558 0.930 . S
H553 C562 0.930 . S
H554 C567 0.929 . S
H555 C565 0.929 . S
H556 C560 0.929 . S
H557 C566 0.929 . S
C558 H552 0.930 . S
C558 C559 1.367 . S
C558 C566 1.378 . S
C559 C558 1.367 . S
C559 C567 1.433 . S
C560 H556 0.929 . S
C560 C562 1.378 . S
C560 C564 1.350 . S
C561 C564 1.463 . S
C561 C566 1.350 . S
C561 N569 1.427 . S
C562 H553 0.930 . S
C562 C560 1.378 . S
C562 C563 1.367 . S
C563 C562 1.367 . S
C563 C565 1.433 . S
C564 C560 1.350 . S
C564 C561 1.463 . S
C564 N568 1.427 . S
C565 H555 0.929 . S
C565 C563 1.433 . S
C565 N568 1.384 . S
C566 H557 0.929 . S
C566 C558 1.378 . S
C566 C561 1.350 . S
C567 H554 0.929 . S
C567 C559 1.433 . S
C567 N569 1.384 . S
N568 C564 1.427 . S
N568 C565 1.384 . S
N569 C561 1.427 . S
N569 C567 1.384 . S
H570 C576 0.930 . S
H571 C580 0.930 . S
H572 C585 0.929 . S
H573 C583 0.929 . S
H574 C578 0.929 . S
H575 C584 0.929 . S
C576 H570 0.930 . S
C576 C577 1.367 . S
C576 C584 1.378 . S
C577 C576 1.367 . S
C577 C585 1.433 . S
C578 H574 0.929 . S
C578 C580 1.378 . S
C578 C582 1.350 . S
C579 C582 1.463 . S
C579 C584 1.350 . S
C579 N587 1.427 . S
C580 H571 0.930 . S
C580 C578 1.378 . S
C580 C581 1.367 . S
C581 C580 1.367 . S
C581 C583 1.433 . S
C582 C578 1.350 . S
C582 C579 1.463 . S
C582 N586 1.427 . S
C583 H573 0.929 . S
C583 C581 1.433 . S
C583 N586 1.384 . S
C584 H575 0.929 . S
C584 C576 1.378 . S
C584 C579 1.350 . S
C585 H572 0.929 . S
C585 C577 1.433 . S
C585 N587 1.384 . S
N586 C582 1.427 . S
N586 C583 1.384 . S
N587 C579 1.427 . S
N587 C585 1.384 . S
C163 C5 1.758 . S
C167 C83 1.760 . S
C181 C18 1.761 . S
C185 C96 1.763 . S
C199 C31 1.760 . S
C203 C109 1.759 . S
C217 C44 1.759 . S
C221 C122 1.761 . S
C235 C57 1.764 . S
C239 C135 1.765 . S
C253 C148 1.762 . S
C257 C70 1.760 . S
C271 C3 1.804 . S
C275 C133 1.805 . S
C289 C16 1.809 . S
C293 C146 1.809 . S
C307 C29 1.810 . S
C311 C81 1.809 . S
C325 C42 1.808 . S
C329 C94 1.808 . S
C343 C55 1.804 . S
C347 C107 1.804 . S
C361 C68 1.809 . S
C365 C120 1.809 . S
C379 C1 1.787 . S
C383 C40 1.789 . S
C397 C14 1.788 . S
C401 C53 1.788 . S
C415 C66 1.789 . S
C419 C27 1.787 . S
C433 C79 1.789 . S
C437 C118 1.788 . S
C451 C131 1.793 . S
C455 C92 1.792 . S
C469 C105 1.791 . S
C473 C144 1.788 . S
C487 C88 0.894 . S
C491 C10 0.893 . S
C505 C23 0.902 . S
C509 C101 0.904 . S
C523 C36 0.897 . S
C527 C114 0.895 . S
C541 C127 0.891 . S
C545 C49 0.890 . S
C559 C140 0.891 . S
C563 C62 0.891 . S
C577 C75 0.905 . S
C581 C153 0.905 . S
