# Generated by pormake.
# Topology fch, (5)-cn, num edge types: 1
# Building blocks:
#     Node 0, Type 0, BuildingBlock: BEQFEK_clean_sbu_0, # of connection points: 5
#     Node 1, Type 0, BuildingBlock: BEQFEK_clean_sbu_0, # of connection points: 5
#     Node 2, Type 0, BuildingBlock: BEQFEK_clean_sbu_0, # of connection points: 5
#     Node 3, Type 0, BuildingBlock: BEQFEK_clean_sbu_0, # of connection points: 5
#     Node 4, Type 0, BuildingBlock: BEQFEK_clean_sbu_0, # of connection points: 5
#     Node 5, Type 0, BuildingBlock: BEQFEK_clean_sbu_0, # of connection points: 5
#     Node 6, Type 0, BuildingBlock: BEQFEK_clean_sbu_0, # of connection points: 5
#     Node 7, Type 0, BuildingBlock: BEQFEK_clean_sbu_0, # of connection points: 5
#     Node 8, Type 0, BuildingBlock: BEQFEK_clean_sbu_0, # of connection points: 5
#     Node 9, Type 0, BuildingBlock: BEQFEK_clean_sbu_0, # of connection points: 5
#     Node 10, Type 0, BuildingBlock: BEQFEK_clean_sbu_0, # of connection points: 5
#     Node 11, Type 0, BuildingBlock: BEQFEK_clean_sbu_0, # of connection points: 5
#     Node 12, Type 0, BuildingBlock: BEQFEK_clean_sbu_0, # of connection points: 5
#     Node 13, Type 0, BuildingBlock: BEQFEK_clean_sbu_0, # of connection points: 5
#     Node 14, Type 0, BuildingBlock: BEQFEK_clean_sbu_0, # of connection points: 5
#     Node 15, Type 0, BuildingBlock: BEQFEK_clean_sbu_0, # of connection points: 5
#     Node 16, Type 0, BuildingBlock: BEQFEK_clean_sbu_0, # of connection points: 5
#     Node 17, Type 0, BuildingBlock: BEQFEK_clean_sbu_0, # of connection points: 5
#     Node 18, Type 0, BuildingBlock: BEQFEK_clean_sbu_0, # of connection points: 5
#     Node 19, Type 0, BuildingBlock: BEQFEK_clean_sbu_0, # of connection points: 5
#     Node 20, Type 0, BuildingBlock: BEQFEK_clean_sbu_0, # of connection points: 5
#     Node 21, Type 0, BuildingBlock: BEQFEK_clean_sbu_0, # of connection points: 5
#     Node 22, Type 0, BuildingBlock: BEQFEK_clean_sbu_0, # of connection points: 5
#     Node 23, Type 0, BuildingBlock: BEQFEK_clean_sbu_0, # of connection points: 5
#     Node 24, Type 0, BuildingBlock: BEQFEK_clean_sbu_0, # of connection points: 5
#     Node 25, Type 0, BuildingBlock: BEQFEK_clean_sbu_0, # of connection points: 5
#     Node 26, Type 0, BuildingBlock: BEQFEK_clean_sbu_0, # of connection points: 5
#     Node 27, Type 0, BuildingBlock: BEQFEK_clean_sbu_0, # of connection points: 5
#     Node 28, Type 0, BuildingBlock: BEQFEK_clean_sbu_0, # of connection points: 5
#     Node 29, Type 0, BuildingBlock: BEQFEK_clean_sbu_0, # of connection points: 5
#     Node 30, Type 0, BuildingBlock: BEQFEK_clean_sbu_0, # of connection points: 5
#     Node 31, Type 0, BuildingBlock: BEQFEK_clean_sbu_0, # of connection points: 5
#     Node 32, Type 0, BuildingBlock: BEQFEK_clean_sbu_0, # of connection points: 5
#     Node 33, Type 0, BuildingBlock: BEQFEK_clean_sbu_0, # of connection points: 5
#     Node 34, Type 0, BuildingBlock: BEQFEK_clean_sbu_0, # of connection points: 5
#     Node 35, Type 0, BuildingBlock: BEQFEK_clean_sbu_0, # of connection points: 5
#     Node 36, Type 0, BuildingBlock: BEQFEK_clean_sbu_0, # of connection points: 5
#     Node 37, Type 0, BuildingBlock: BEQFEK_clean_sbu_0, # of connection points: 5
#     Node 38, Type 0, BuildingBlock: BEQFEK_clean_sbu_0, # of connection points: 5
#     Node 39, Type 0, BuildingBlock: BEQFEK_clean_sbu_0, # of connection points: 5
#     Node 40, Type 0, BuildingBlock: BEQFEK_clean_sbu_0, # of connection points: 5
#     Node 41, Type 0, BuildingBlock: BEQFEK_clean_sbu_0, # of connection points: 5
#     Node 42, Type 0, BuildingBlock: BEQFEK_clean_sbu_0, # of connection points: 5
#     Node 43, Type 0, BuildingBlock: BEQFEK_clean_sbu_0, # of connection points: 5
#     Node 44, Type 0, BuildingBlock: BEQFEK_clean_sbu_0, # of connection points: 5
#     Node 45, Type 0, BuildingBlock: BEQFEK_clean_sbu_0, # of connection points: 5
#     Node 46, Type 0, BuildingBlock: BEQFEK_clean_sbu_0, # of connection points: 5
#     Node 47, Type 0, BuildingBlock: BEQFEK_clean_sbu_0, # of connection points: 5
#     Edge 48, Type (0, 0), None
#     Edge 49, Type (0, 0), None
#     Edge 50, Type (0, 0), None
#     Edge 51, Type (0, 0), None
#     Edge 52, Type (0, 0), None
#     Edge 53, Type (0, 0), None
#     Edge 54, Type (0, 0), None
#     Edge 55, Type (0, 0), None
#     Edge 56, Type (0, 0), None
#     Edge 57, Type (0, 0), None
#     Edge 58, Type (0, 0), None
#     Edge 59, Type (0, 0), None
#     Edge 60, Type (0, 0), None
#     Edge 61, Type (0, 0), None
#     Edge 62, Type (0, 0), None
#     Edge 63, Type (0, 0), None
#     Edge 64, Type (0, 0), None
#     Edge 65, Type (0, 0), None
#     Edge 66, Type (0, 0), None
#     Edge 67, Type (0, 0), None
#     Edge 68, Type (0, 0), None
#     Edge 69, Type (0, 0), None
#     Edge 70, Type (0, 0), None
#     Edge 71, Type (0, 0), None
#     Edge 72, Type (0, 0), None
#     Edge 73, Type (0, 0), None
#     Edge 74, Type (0, 0), None
#     Edge 75, Type (0, 0), None
#     Edge 76, Type (0, 0), None
#     Edge 77, Type (0, 0), None
#     Edge 78, Type (0, 0), None
#     Edge 79, Type (0, 0), None
#     Edge 80, Type (0, 0), None
#     Edge 81, Type (0, 0), None
#     Edge 82, Type (0, 0), None
#     Edge 83, Type (0, 0), None
#     Edge 84, Type (0, 0), None
#     Edge 85, Type (0, 0), None
#     Edge 86, Type (0, 0), None
#     Edge 87, Type (0, 0), None
#     Edge 88, Type (0, 0), None
#     Edge 89, Type (0, 0), None
#     Edge 90, Type (0, 0), None
#     Edge 91, Type (0, 0), None
#     Edge 92, Type (0, 0), None
#     Edge 93, Type (0, 0), None
#     Edge 94, Type (0, 0), None
#     Edge 95, Type (0, 0), None
#     Edge 96, Type (0, 0), None
#     Edge 97, Type (0, 0), None
#     Edge 98, Type (0, 0), None
#     Edge 99, Type (0, 0), None
#     Edge 100, Type (0, 0), None
#     Edge 101, Type (0, 0), None
#     Edge 102, Type (0, 0), None
#     Edge 103, Type (0, 0), None
#     Edge 104, Type (0, 0), None
#     Edge 105, Type (0, 0), None
#     Edge 106, Type (0, 0), None
#     Edge 107, Type (0, 0), None
#     Edge 108, Type (0, 0), None
#     Edge 109, Type (0, 0), None
#     Edge 110, Type (0, 0), None
#     Edge 111, Type (0, 0), None
#     Edge 112, Type (0, 0), None
#     Edge 113, Type (0, 0), None
#     Edge 114, Type (0, 0), None
#     Edge 115, Type (0, 0), None
#     Edge 116, Type (0, 0), None
#     Edge 117, Type (0, 0), None
#     Edge 118, Type (0, 0), None
#     Edge 119, Type (0, 0), None
#     Edge 120, Type (0, 0), None
#     Edge 121, Type (0, 0), None
#     Edge 122, Type (0, 0), None
#     Edge 123, Type (0, 0), None
#     Edge 124, Type (0, 0), None
#     Edge 125, Type (0, 0), None
#     Edge 126, Type (0, 0), None
#     Edge 127, Type (0, 0), None
#     Edge 128, Type (0, 0), None
#     Edge 129, Type (0, 0), None
#     Edge 130, Type (0, 0), None
#     Edge 131, Type (0, 0), None
#     Edge 132, Type (0, 0), None
#     Edge 133, Type (0, 0), None
#     Edge 134, Type (0, 0), None
#     Edge 135, Type (0, 0), None
#     Edge 136, Type (0, 0), None
#     Edge 137, Type (0, 0), None
#     Edge 138, Type (0, 0), None
#     Edge 139, Type (0, 0), None
#     Edge 140, Type (0, 0), None
#     Edge 141, Type (0, 0), None
#     Edge 142, Type (0, 0), None
#     Edge 143, Type (0, 0), None
#     Edge 144, Type (0, 0), None
#     Edge 145, Type (0, 0), None
#     Edge 146, Type (0, 0), None
#     Edge 147, Type (0, 0), None
#     Edge 148, Type (0, 0), None
#     Edge 149, Type (0, 0), None
#     Edge 150, Type (0, 0), None
#     Edge 151, Type (0, 0), None
#     Edge 152, Type (0, 0), None
#     Edge 153, Type (0, 0), None
#     Edge 154, Type (0, 0), None
#     Edge 155, Type (0, 0), None
#     Edge 156, Type (0, 0), None
#     Edge 157, Type (0, 0), None
#     Edge 158, Type (0, 0), None
#     Edge 159, Type (0, 0), None
#     Edge 160, Type (0, 0), None
#     Edge 161, Type (0, 0), None
#     Edge 162, Type (0, 0), None
#     Edge 163, Type (0, 0), None
#     Edge 164, Type (0, 0), None
#     Edge 165, Type (0, 0), None
#     Edge 166, Type (0, 0), None
#     Edge 167, Type (0, 0), None
# Relax obj value: 0.974
# Max RMSD: 0.218
# Mean RMSD: 0.218
data_MOF--net-fch--node1-BEQFEK_clean_sbu_0--edge1-none
_symmetry_space_group_name_H-M    P1
_symmetry_Int_Tables_number       1
_symmetry_cell_setting            triclinic
loop_
_symmetry_equiv_pos_as_xyz
'x, y, z'
_cell_length_a     38.679842
_cell_length_b     38.680684
_cell_length_c     38.678261
_cell_angle_alpha  90.000034
_cell_angle_beta   89.999513
_cell_angle_gamma 90.000159
loop_
_atom_site_label
_atom_site_type_symbol
_atom_site_fract_x
_atom_site_fract_y
_atom_site_fract_z
_atom_type_partial_charge
Co0 Co 0.07341 0.45073 0.15747 0.0
Co1 Co 0.01284 0.40217 0.15196 0.0
C2 C 0.0031 0.47615 0.13565 0.0
O3 O 0.0348 0.48221 0.14212 0.0
O4 O -0.00839 0.44573 0.13717 0.0
C5 C 0.14292 0.48121 0.16555 0.0
O6 O 0.15239 0.468 0.19533 0.0
C7 C 0.94199 0.38324 0.14219 0.0
C8 C 0.94558 0.33822 0.10779 0.0
C9 C 0.92318 0.36458 0.1175 0.0
N10 N 0.97427 0.37033 0.14453 0.0
N11 N 0.97554 0.34212 0.12533 0.0
C12 C 0.93055 0.41394 0.16271 0.0
H13 H 0.95175 0.4239 0.17922 0.0
H14 H 0.92069 0.43447 0.1453 0.0
H15 H 0.91006 0.40595 0.18096 0.0
C16 C 0.10749 0.39772 0.11553 0.0
N17 N 0.07954 0.40842 0.13325 0.0
N18 N 0.05195 0.39221 0.12235 0.0
C19 C 0.06099 0.37364 0.09396 0.0
C20 C 0.09694 0.37606 0.08878 0.0
C21 C 0.1434 0.4024 0.12903 0.0
H22 H 0.14289 0.40325 0.15771 0.0
H23 H 0.15412 0.4273 0.12001 0.0
H24 H 0.16034 0.38079 0.12069 0.0
O25 O 0.07212 0.44662 0.20449 0.0
O26 O 0.02899 0.40859 0.20403 0.0
H27 H 0.0351 0.33056 0.07084 0.0
H28 H 0.04278 0.36604 0.04196 0.0
C29 C 0.03538 0.35916 0.06881 0.0
H30 H 0.00921 0.36968 0.07383 0.0
H31 H -0.00214 0.32754 0.12139 0.0
O32 O 0.11387 0.47496 0.15195 0.0
C33 C 0.05161 0.42736 0.22021 0.0
Co34 Co 0.5303 0.07341 0.15746 0.0
Co35 Co 0.57885 0.01283 0.15195 0.0
C36 C 0.50487 0.00311 0.13565 0.0
O37 O 0.49882 0.0348 0.14212 0.0
O38 O 0.53529 -0.00839 0.13716 0.0
C39 C 0.49981 0.14292 0.16553 0.0
O40 O 0.51301 0.15242 0.19531 0.0
C41 C 0.59778 0.94198 0.14218 0.0
C42 C 0.64279 0.94558 0.10778 0.0
C43 C 0.61644 0.92318 0.1175 0.0
N44 N 0.61069 0.97427 0.14452 0.0
N45 N 0.6389 0.97553 0.12533 0.0
C46 C 0.56707 0.93055 0.16269 0.0
H47 H 0.55711 0.95175 0.17921 0.0
H48 H 0.54654 0.92068 0.14529 0.0
H49 H 0.57506 0.91006 0.18095 0.0
C50 C 0.58331 0.10748 0.11552 0.0
N51 N 0.57261 0.07953 0.13325 0.0
N52 N 0.58881 0.05194 0.12234 0.0
C53 C 0.60738 0.06097 0.09395 0.0
C54 C 0.60496 0.09693 0.08877 0.0
C55 C 0.57863 0.14339 0.12901 0.0
H56 H 0.57778 0.14289 0.1577 0.0
H57 H 0.55373 0.15411 0.11999 0.0
H58 H 0.60023 0.16033 0.12066 0.0
O59 O 0.53441 0.07213 0.20449 0.0
O60 O 0.57242 0.02898 0.20403 0.0
H61 H 0.65046 0.03508 0.07083 0.0
H62 H 0.61497 0.04276 0.04195 0.0
C63 C 0.62185 0.03537 0.0688 0.0
H64 H 0.61133 0.0092 0.07383 0.0
H65 H 0.65348 -0.00215 0.12139 0.0
O66 O 0.50607 0.11387 0.15194 0.0
C67 C 0.55365 0.0516 0.22021 0.0
Co68 Co 0.90764 0.53026 0.15747 0.0
Co69 Co 0.96822 0.57883 0.15195 0.0
C70 C 0.97794 0.50485 0.13565 0.0
O71 O 0.94625 0.49879 0.14211 0.0
O72 O 0.98944 0.53526 0.13716 0.0
C73 C 0.83814 0.49979 0.1656 0.0
O74 O 0.8287 0.51302 0.19538 0.0
C75 C 0.03906 0.59776 0.14217 0.0
C76 C 0.03546 0.64277 0.10776 0.0
C77 C 0.05786 0.61641 0.11747 0.0
N78 N 0.00678 0.61067 0.14451 0.0
N79 N 0.00551 0.63888 0.12531 0.0
C80 C 0.0505 0.56706 0.16268 0.0
H81 H 0.02931 0.55711 0.1792 0.0
H82 H 0.06036 0.54653 0.14528 0.0
H83 H 0.071 0.57505 0.18093 0.0
C84 C 0.87355 0.58328 0.11555 0.0
N85 N 0.90151 0.57258 0.13326 0.0
N86 N 0.9291 0.58878 0.12235 0.0
C87 C 0.92005 0.60736 0.09397 0.0
C88 C 0.88409 0.60494 0.08881 0.0
C89 C 0.83765 0.5786 0.12907 0.0
H90 H 0.83817 0.57775 0.15775 0.0
H91 H 0.82692 0.55371 0.12006 0.0
H92 H 0.8207 0.60021 0.12074 0.0
O93 O 0.90895 0.53438 0.20449 0.0
O94 O 0.95207 0.57241 0.20403 0.0
H95 H 0.94592 0.65045 0.07084 0.0
H96 H 0.93824 0.61496 0.04196 0.0
C97 C 0.94564 0.62184 0.06881 0.0
H98 H 0.97181 0.61132 0.07382 0.0
H99 H 0.98318 0.65346 0.12138 0.0
O100 O 0.86719 0.50603 0.15197 0.0
C101 C 0.92946 0.55364 0.22021 0.0
Co102 Co 0.45076 0.90765 0.15746 0.0
Co103 Co 0.40219 0.96822 0.15195 0.0
C104 C 0.47617 0.97795 0.13564 0.0
O105 O 0.48224 0.94625 0.14211 0.0
O106 O 0.44576 0.98944 0.13717 0.0
C107 C 0.48122 0.83815 0.16558 0.0
O108 O 0.468 0.8287 0.19537 0.0
C109 C 0.38326 0.03906 0.14216 0.0
C110 C 0.33826 0.03545 0.10775 0.0
C111 C 0.36461 0.05785 0.11746 0.0
N112 N 0.37034 0.00678 0.14451 0.0
N113 N 0.34214 0.0055 0.1253 0.0
C114 C 0.41396 0.0505 0.16268 0.0
H115 H 0.42391 0.02931 0.17921 0.0
H116 H 0.4345 0.06035 0.14528 0.0
H117 H 0.40596 0.071 0.18092 0.0
C118 C 0.39775 0.87356 0.11554 0.0
N119 N 0.40844 0.90151 0.13325 0.0
N120 N 0.39224 0.9291 0.12234 0.0
C121 C 0.37366 0.92005 0.09396 0.0
C122 C 0.37608 0.88409 0.0888 0.0
C123 C 0.40241 0.83765 0.12906 0.0
H124 H 0.40327 0.83817 0.15774 0.0
H125 H 0.42731 0.82693 0.12004 0.0
H126 H 0.38081 0.82071 0.12073 0.0
O127 O 0.44664 0.90895 0.20449 0.0
O128 O 0.4086 0.95206 0.20403 0.0
H129 H 0.33057 0.94593 0.07083 0.0
H130 H 0.36606 0.93824 0.04195 0.0
C131 C 0.35918 0.94565 0.0688 0.0
H132 H 0.3697 0.97182 0.07382 0.0
H133 H 0.32756 0.98318 0.12137 0.0
O134 O 0.47499 0.86719 0.15196 0.0
C135 C 0.42738 0.92945 0.22021 0.0
Co136 Co 0.07338 0.53022 0.82358 0.0
Co137 Co 0.01285 0.57883 0.8291 0.0
C138 C 0.00306 0.50484 0.84539 0.0
O139 O 0.03476 0.49877 0.83893 0.0
O140 O -0.00841 0.53527 0.84388 0.0
C141 C 0.14282 0.49976 0.81536 0.0
O142 O 0.15218 0.51307 0.78558 0.0
C143 C 0.94201 0.59782 0.83883 0.0
C144 C 0.94562 0.64285 0.87321 0.0
C145 C 0.9232 0.61651 0.86349 0.0
N146 N 0.97431 0.6107 0.83652 0.0
N147 N 0.97559 0.63892 0.8557 0.0
C148 C 0.93056 0.56712 0.81833 0.0
H149 H 0.95176 0.55714 0.80182 0.0
H150 H 0.92068 0.5466 0.83573 0.0
H151 H 0.91008 0.57512 0.80006 0.0
C152 C 0.10752 0.58322 0.86548 0.0
N153 N 0.07954 0.57253 0.8478 0.0
N154 N 0.05198 0.58876 0.85871 0.0
C155 C 0.06105 0.60736 0.88707 0.0
C156 C 0.09701 0.60492 0.89221 0.0
C157 C 0.14341 0.57854 0.85193 0.0
H158 H 0.14285 0.57768 0.82324 0.0
H159 H 0.15414 0.55364 0.86094 0.0
H160 H 0.16036 0.60015 0.86023 0.0
O161 O 0.07208 0.53436 0.77656 0.0
O162 O 0.029 0.57243 0.77703 0.0
H163 H 0.03523 0.6505 0.91016 0.0
H164 H 0.04287 0.61501 0.93907 0.0
C165 C 0.03547 0.62189 0.91221 0.0
H166 H 0.00929 0.61141 0.9072 0.0
H167 H -0.00208 0.65348 0.85965 0.0
O168 O 0.11381 0.50594 0.82908 0.0
C169 C 0.0516 0.55365 0.76084 0.0
Co170 Co 0.45081 0.07336 0.82358 0.0
Co171 Co 0.40219 0.01283 0.8291 0.0
C172 C 0.47618 0.00305 0.84538 0.0
O173 O 0.48226 0.03474 0.83893 0.0
O174 O 0.44575 -0.00842 0.84386 0.0
C175 C 0.48126 0.14279 0.81533 0.0
O176 O 0.46794 0.15213 0.78555 0.0
C177 C 0.38319 0.942 0.83882 0.0
C178 C 0.33816 0.9456 0.8732 0.0
C179 C 0.36451 0.92319 0.86348 0.0
N180 N 0.37032 0.9743 0.83651 0.0
N181 N 0.3421 0.97557 0.85569 0.0
C182 C 0.4139 0.93055 0.81831 0.0
H183 H 0.42387 0.95175 0.80181 0.0
H184 H 0.43442 0.92067 0.83571 0.0
H185 H 0.4059 0.91007 0.80005 0.0
C186 C 0.3978 0.1075 0.86547 0.0
N187 N 0.4085 0.07953 0.84779 0.0
N188 N 0.39226 0.05196 0.8587 0.0
C189 C 0.37366 0.06104 0.88706 0.0
C190 C 0.3761 0.097 0.8922 0.0
C191 C 0.40248 0.14339 0.85191 0.0
H192 H 0.40335 0.14283 0.82323 0.0
H193 H 0.42738 0.15413 0.86092 0.0
H194 H 0.38087 0.16034 0.86021 0.0
O195 O 0.44667 0.07206 0.77655 0.0
O196 O 0.40858 0.02899 0.77703 0.0
H197 H 0.33051 0.03523 0.91015 0.0
H198 H 0.366 0.04285 0.93906 0.0
C199 C 0.35912 0.03546 0.9122 0.0
H200 H 0.3696 0.00928 0.90719 0.0
H201 H 0.32753 -0.0021 0.85964 0.0
O202 O 0.47509 0.11379 0.82907 0.0
C203 C 0.42737 0.05158 0.76084 0.0
Co204 Co 0.90758 0.45077 0.82357 0.0
Co205 Co 0.96813 0.40218 0.8291 0.0
C206 C 0.97789 0.47615 0.84539 0.0
O207 O 0.9462 0.48223 0.83892 0.0
O208 O 0.98937 0.44573 0.84389 0.0
C209 C 0.83812 0.48126 0.81539 0.0
O210 O 0.82871 0.468 0.78561 0.0
C211 C 0.03897 0.38319 0.83882 0.0
C212 C 0.03539 0.33815 0.87318 0.0
C213 C 0.05779 0.3645 0.86346 0.0
N214 N 0.00668 0.37031 0.83651 0.0
N215 N 0.00541 0.34209 0.85569 0.0
C216 C 0.05041 0.41391 0.81832 0.0
H217 H 0.02921 0.42389 0.80183 0.0
H218 H 0.06031 0.43441 0.83572 0.0
H219 H 0.07088 0.40591 0.80004 0.0
C220 C 0.87346 0.39777 0.86549 0.0
N221 N 0.90143 0.40846 0.8478 0.0
N222 N 0.929 0.39223 0.8587 0.0
C223 C 0.91994 0.37364 0.88707 0.0
C224 C 0.88398 0.37608 0.89223 0.0
C225 C 0.83756 0.40246 0.85196 0.0
H226 H 0.8381 0.40332 0.82328 0.0
H227 H 0.82684 0.42736 0.86098 0.0
H228 H 0.82061 0.38086 0.86028 0.0
O229 O 0.90888 0.44663 0.77655 0.0
O230 O 0.95199 0.40858 0.77703 0.0
H231 H 0.94577 0.33051 0.91016 0.0
H232 H 0.93814 0.366 0.93906 0.0
C233 C 0.94553 0.35912 0.91221 0.0
H234 H 0.97171 0.36961 0.90719 0.0
H235 H 0.98308 0.32752 0.85963 0.0
O236 O 0.86714 0.47503 0.82907 0.0
C237 C 0.92938 0.42735 0.76084 0.0
Co238 Co 0.53026 0.90756 0.82356 0.0
Co239 Co 0.57885 0.96811 0.82909 0.0
C240 C 0.50487 0.97787 0.84539 0.0
O241 O 0.49879 0.94619 0.83891 0.0
O242 O 0.53529 0.98935 0.84389 0.0
C243 C 0.49977 0.8381 0.81538 0.0
O244 O 0.51304 0.82871 0.7856 0.0
C245 C 0.59784 0.03895 0.8388 0.0
C246 C 0.64288 0.03537 0.87316 0.0
C247 C 0.61654 0.05778 0.86344 0.0
N248 N 0.61072 0.00666 0.8365 0.0
N249 N 0.63894 0.00539 0.85567 0.0
C250 C 0.56712 0.05039 0.8183 0.0
H251 H 0.55713 0.02918 0.80182 0.0
H252 H 0.54661 0.06029 0.83571 0.0
H253 H 0.57511 0.07086 0.80002 0.0
C254 C 0.58326 0.87345 0.86548 0.0
N255 N 0.57256 0.90141 0.84779 0.0
N256 N 0.5888 0.92899 0.85869 0.0
C257 C 0.60738 0.91993 0.88705 0.0
C258 C 0.60495 0.88397 0.89221 0.0
C259 C 0.57857 0.83755 0.85195 0.0
H260 H 0.57771 0.83809 0.82327 0.0
H261 H 0.55367 0.82683 0.86097 0.0
H262 H 0.60017 0.8206 0.86027 0.0
O263 O 0.5344 0.90886 0.77654 0.0
O264 O 0.57243 0.95197 0.77702 0.0
H265 H 0.65052 0.94576 0.91015 0.0
H266 H 0.61503 0.93813 0.93905 0.0
C267 C 0.62191 0.94551 0.9122 0.0
H268 H 0.61142 0.9717 0.90717 0.0
H269 H 0.65351 0.98306 0.85962 0.0
O270 O 0.50599 0.86713 0.82906 0.0
C271 C 0.55366 0.92937 0.76083 0.0
Co272 Co 0.15743 0.07305 0.45095 0.0
Co273 Co 0.15196 0.01259 0.40226 0.0
C274 C 0.13566 0.00274 0.47626 0.0
O275 O 0.14201 0.03444 0.48237 0.0
O276 O 0.13728 -0.00872 0.44584 0.0
C277 C 0.1658 0.14244 0.48131 0.0
O278 O 0.19558 0.15165 0.46789 0.0
C279 C 0.14213 0.94178 0.38325 0.0
C280 C 0.10768 0.94546 0.33828 0.0
C281 C 0.11738 0.92303 0.36462 0.0
N282 N 0.1445 0.97407 0.37036 0.0
N283 N 0.12528 0.97539 0.34217 0.0
C284 C 0.16268 0.93029 0.41391 0.0
H285 H 0.17927 0.95145 0.42383 0.0
H286 H 0.1453 0.92048 0.43449 0.0
H287 H 0.18086 0.90975 0.40588 0.0
C288 C 0.11564 0.10726 0.39792 0.0
N289 N 0.13326 0.07926 0.40863 0.0
N290 N 0.12233 0.05171 0.39237 0.0
C291 C 0.094 0.06083 0.37375 0.0
C292 C 0.08891 0.0968 0.37619 0.0
C293 C 0.12927 0.14313 0.40257 0.0
H294 H 0.15795 0.14251 0.40344 0.0
H295 H 0.12027 0.15391 0.42745 0.0
H296 H 0.12102 0.16008 0.38094 0.0
O297 O 0.20446 0.07172 0.44685 0.0
O298 O 0.20402 0.0288 0.40858 0.0
H299 H 0.07091 0.03506 0.33058 0.0
H300 H 0.04199 0.04273 0.36604 0.0
C301 C 0.06883 0.0353 0.35919 0.0
H302 H 0.07379 0.0091 0.36967 0.0
H303 H 0.12137 -0.00228 0.32761 0.0
O304 O 0.15196 0.11347 0.47525 0.0
C305 C 0.22019 0.05135 0.42744 0.0
Co306 Co 0.90794 0.15745 0.45093 0.0
Co307 Co 0.9684 0.15195 0.40223 0.0
C308 C 0.97825 0.13567 0.47624 0.0
O309 O 0.94655 0.14204 0.48235 0.0
O310 O 0.9897 0.13727 0.44581 0.0
C311 C 0.83853 0.1658 0.48133 0.0
O312 O 0.82929 0.19558 0.46794 0.0
C313 C 0.0392 0.14204 0.38324 0.0
C314 C 0.03548 0.1076 0.33825 0.0
C315 C 0.05789 0.11723 0.36463 0.0
N316 N 0.00692 0.14446 0.37034 0.0
N317 N 0.00559 0.12525 0.34215 0.0
C318 C 0.05073 0.16259 0.41389 0.0
H319 H 0.02959 0.17919 0.42383 0.0
H320 H 0.06057 0.14522 0.43445 0.0
H321 H 0.07126 0.18077 0.40583 0.0
C322 C 0.87372 0.11563 0.3979 0.0
N323 N 0.90172 0.13326 0.40861 0.0
N324 N 0.92927 0.12233 0.39235 0.0
C325 C 0.92015 0.094 0.37374 0.0
C326 C 0.88419 0.08891 0.37618 0.0
C327 C 0.83785 0.12925 0.40257 0.0
H328 H 0.83846 0.15793 0.40345 0.0
H329 H 0.82709 0.12025 0.42746 0.0
H330 H 0.8209 0.121 0.38095 0.0
O331 O 0.90927 0.20447 0.4468 0.0
O332 O 0.9522 0.20402 0.40856 0.0
H333 H 0.94593 0.07091 0.33057 0.0
H334 H 0.93826 0.04198 0.36603 0.0
C335 C 0.94569 0.06883 0.35918 0.0
H336 H 0.97188 0.07379 0.36967 0.0
H337 H 0.98325 0.12138 0.32757 0.0
O338 O 0.86752 0.15198 0.47522 0.0
C339 C 0.92965 0.22019 0.42741 0.0
Co340 Co 0.82358 0.90792 0.45093 0.0
Co341 Co 0.82907 0.96838 0.40224 0.0
C342 C 0.84536 0.97823 0.47624 0.0
O343 O 0.83899 0.94653 0.48235 0.0
O344 O 0.84376 0.98968 0.44582 0.0
C345 C 0.81519 0.83853 0.48131 0.0
O346 O 0.78542 0.82932 0.4679 0.0
C347 C 0.83897 0.03918 0.38324 0.0
C348 C 0.87339 0.03548 0.33825 0.0
C349 C 0.86376 0.05788 0.36462 0.0
N350 N 0.83655 0.0069 0.37034 0.0
N351 N 0.85576 0.00557 0.34214 0.0
C352 C 0.81842 0.05071 0.4139 0.0
H353 H 0.80183 0.02956 0.42384 0.0
H354 H 0.83579 0.06055 0.43445 0.0
H355 H 0.80023 0.07123 0.40584 0.0
C356 C 0.8654 0.8737 0.3979 0.0
N357 N 0.84777 0.90171 0.40861 0.0
N358 N 0.85869 0.92925 0.39235 0.0
C359 C 0.88702 0.92014 0.37374 0.0
C360 C 0.89212 0.88417 0.37618 0.0
C361 C 0.85177 0.83784 0.40257 0.0
H362 H 0.82309 0.83846 0.40344 0.0
H363 H 0.86077 0.82707 0.42745 0.0
H364 H 0.86002 0.82089 0.38094 0.0
O365 O 0.77656 0.90925 0.4468 0.0
O366 O 0.77701 0.95219 0.40856 0.0
H367 H 0.91011 0.94591 0.33057 0.0
H368 H 0.93904 0.93825 0.36602 0.0
C369 C 0.91219 0.94568 0.35917 0.0
H370 H 0.90723 0.97187 0.36966 0.0
H371 H 0.85963 0.98323 0.32757 0.0
O372 O 0.82904 0.8675 0.47522 0.0
C373 C 0.76083 0.92963 0.42741 0.0
Co374 Co 0.07306 0.82355 0.45101 0.0
Co375 Co 0.01263 0.82905 0.40227 0.0
C376 C 0.00274 0.84533 0.47627 0.0
O377 O 0.03444 0.83897 0.4824 0.0
O378 O -0.00869 0.84371 0.44584 0.0
C379 C 0.14244 0.81517 0.48143 0.0
O380 O 0.15167 0.7854 0.46802 0.0
C381 C 0.94184 0.83895 0.38324 0.0
C382 C 0.94557 0.87339 0.33826 0.0
C383 C 0.92315 0.86374 0.36463 0.0
N384 N 0.97413 0.83654 0.37036 0.0
N385 N 0.97547 0.85575 0.34216 0.0
C386 C 0.93031 0.81838 0.41388 0.0
H387 H 0.95145 0.80178 0.42382 0.0
H388 H 0.92046 0.83575 0.43445 0.0
H389 H 0.90978 0.8002 0.40581 0.0
C390 C 0.10732 0.86536 0.39801 0.0
N391 N 0.0793 0.84774 0.4087 0.0
N392 N 0.05177 0.85868 0.39242 0.0
C393 C 0.06091 0.88701 0.37382 0.0
C394 C 0.09687 0.89211 0.37632 0.0
C395 C 0.14318 0.85173 0.4027 0.0
H396 H 0.14256 0.82305 0.40361 0.0
H397 H 0.15394 0.86076 0.42758 0.0
H398 H 0.16015 0.85996 0.38107 0.0
O399 O 0.07173 0.77653 0.44688 0.0
O400 O 0.02885 0.77699 0.40857 0.0
H401 H 0.03518 0.91005 0.33059 0.0
H402 H 0.04281 0.93902 0.36602 0.0
C403 C 0.03539 0.91217 0.3592 0.0
H404 H 0.00918 0.90722 0.36966 0.0
H405 H -0.00219 0.85962 0.32759 0.0
O406 O 0.11347 0.82901 0.47533 0.0
C407 C 0.05138 0.76081 0.42744 0.0
Co408 Co 0.15749 0.90726 0.53044 0.0
Co409 Co 0.1519 0.96791 0.57892 0.0
C410 C 0.13564 0.97757 0.50496 0.0
O411 O 0.14222 0.94589 0.49892 0.0
O412 O 0.13702 0.98907 0.53538 0.0
C413 C 0.1654 0.83769 0.49984 0.0
O414 O 0.19511 0.82797 0.51304 0.0
C415 C 0.14221 0.03879 0.59784 0.0
C416 C 0.10787 0.03527 0.6429 0.0
C417 C 0.1176 0.05765 0.61654 0.0
N418 N 0.14449 0.0065 0.61074 0.0
N419 N 0.12533 0.00527 0.63898 0.0
C420 C 0.16268 0.05019 0.56709 0.0
H421 H 0.17911 0.02895 0.55708 0.0
H422 H 0.14526 0.06012 0.54661 0.0
H423 H 0.18101 0.07062 0.57505 0.0
C424 C 0.11544 0.87326 0.58342 0.0
N425 N 0.13321 0.90118 0.57273 0.0
N426 N 0.12233 0.92879 0.58892 0.0
C427 C 0.09391 0.91979 0.60747 0.0
C428 C 0.0887 0.88384 0.60505 0.0
C429 C 0.12886 0.83732 0.57871 0.0
H430 H 0.15754 0.83776 0.57787 0.0
H431 H 0.11983 0.82666 0.55378 0.0
H432 H 0.12046 0.82037 0.60028 0.0
O433 O 0.20451 0.90852 0.53461 0.0
O434 O 0.20399 0.95183 0.57243 0.0
H435 H 0.07079 0.94573 0.65052 0.0
H436 H 0.04193 0.93807 0.61501 0.0
C437 C 0.06878 0.94543 0.62191 0.0
H438 H 0.07385 0.97159 0.61138 0.0
H439 H 0.12136 0.98296 0.65356 0.0
O440 O 0.15198 0.8668 0.50621 0.0
C441 C 0.2202 0.92917 0.55375 0.0
Co442 Co 0.07374 0.15751 0.53037 0.0
Co443 Co 0.01312 0.15189 0.57889 0.0
C444 C 0.00342 0.13565 0.50493 0.0
O445 O 0.0351 0.14224 0.49887 0.0
O446 O -0.00807 0.13704 0.53535 0.0
C447 C 0.14329 0.16542 0.49972 0.0
O448 O 0.15303 0.19513 0.51291 0.0
C449 C 0.94224 0.14219 0.59784 0.0
C450 C 0.94578 0.10783 0.64289 0.0
C451 C 0.92339 0.11757 0.61654 0.0
N452 N 0.97454 0.14447 0.61073 0.0
N453 N 0.97578 0.12529 0.63895 0.0
C454 C 0.93083 0.16268 0.5671 0.0
H455 H 0.95207 0.17912 0.5571 0.0
H456 H 0.9209 0.14527 0.54661 0.0
H457 H 0.9104 0.181 0.57509 0.0
C458 C 0.10779 0.11546 0.58331 0.0
N459 N 0.07985 0.13322 0.57265 0.0
N460 N 0.05225 0.12232 0.58885 0.0
C461 C 0.06127 0.0939 0.60739 0.0
C462 C 0.09722 0.08869 0.60492 0.0
C463 C 0.14372 0.12888 0.57857 0.0
H464 H 0.14327 0.15757 0.5777 0.0
H465 H 0.15437 0.11982 0.55365 0.0
H466 H 0.16068 0.12051 0.60014 0.0
O467 O 0.07247 0.20452 0.53456 0.0
O468 O 0.0292 0.20398 0.57243 0.0
H469 H 0.03539 0.07082 0.6505 0.0
H470 H 0.04303 0.04192 0.61501 0.0
C471 C 0.03566 0.06878 0.62189 0.0
H472 H 0.00949 0.07382 0.61138 0.0
H473 H -0.0019 0.12133 0.65353 0.0
O474 O 0.11419 0.15201 0.50611 0.0
C475 C 0.05185 0.2202 0.55373 0.0
Co476 Co 0.82352 0.07372 0.53037 0.0
Co477 Co 0.82913 0.01311 0.57889 0.0
C478 C 0.84537 0.0034 0.50493 0.0
O479 O 0.83879 0.03508 0.49888 0.0
O480 O 0.84398 -0.00809 0.53535 0.0
C481 C 0.81559 0.14326 0.49974 0.0
O482 O 0.78588 0.15297 0.51296 0.0
C483 C 0.8388 0.94223 0.59785 0.0
C484 C 0.87315 0.94576 0.64291 0.0
C485 C 0.86341 0.92337 0.61656 0.0
N486 N 0.83653 0.97453 0.61074 0.0
N487 N 0.8557 0.97577 0.63897 0.0
C488 C 0.81832 0.93083 0.56711 0.0
H489 H 0.80189 0.95207 0.5571 0.0
H490 H 0.83573 0.92089 0.54662 0.0
H491 H 0.79999 0.9104 0.57509 0.0
C492 C 0.86557 0.10777 0.58331 0.0
N493 N 0.84781 0.07983 0.57265 0.0
N494 N 0.85871 0.05223 0.58886 0.0
C495 C 0.88712 0.06125 0.6074 0.0
C496 C 0.89235 0.0972 0.60492 0.0
C497 C 0.85215 0.1437 0.57858 0.0
H498 H 0.82346 0.14325 0.57771 0.0
H499 H 0.86121 0.15436 0.55367 0.0
H500 H 0.86052 0.16065 0.60016 0.0
O501 O 0.77651 0.07246 0.53456 0.0
O502 O 0.77704 0.0292 0.57243 0.0
H503 H 0.9102 0.03537 0.65051 0.0
H504 H 0.9391 0.04299 0.61501 0.0
C505 C 0.91224 0.03563 0.6219 0.0
H506 H 0.90719 0.00946 0.6114 0.0
H507 H 0.85967 -0.00191 0.65354 0.0
O508 O 0.82903 0.11416 0.50611 0.0
C509 C 0.76082 0.05184 0.55373 0.0
Co510 Co 0.90724 0.82349 0.5304 0.0
Co511 Co 0.96788 0.82913 0.57892 0.0
C512 C 0.97756 0.84536 0.50495 0.0
O513 O 0.94589 0.83875 0.4989 0.0
O514 O 0.98905 0.84399 0.53538 0.0
C515 C 0.8377 0.81556 0.49974 0.0
O516 O 0.82796 0.78585 0.51291 0.0
C517 C 0.03875 0.83889 0.59784 0.0
C518 C 0.03518 0.87322 0.64292 0.0
C519 C 0.05755 0.86355 0.61653 0.0
N520 N 0.00646 0.83657 0.61075 0.0
N521 N 0.0052 0.85572 0.63899 0.0
C522 C 0.05018 0.81841 0.56711 0.0
H523 H 0.02896 0.80197 0.55709 0.0
H524 H 0.06015 0.83582 0.54664 0.0
H525 H 0.0706 0.80007 0.57512 0.0
C526 C 0.8732 0.86555 0.58334 0.0
N527 N 0.90114 0.84779 0.57268 0.0
N528 N 0.92874 0.85869 0.58888 0.0
C529 C 0.91972 0.88711 0.60742 0.0
C530 C 0.88378 0.89233 0.60494 0.0
C531 C 0.83727 0.85214 0.57859 0.0
H532 H 0.83771 0.82345 0.57772 0.0
H533 H 0.82662 0.8612 0.55368 0.0
H534 H 0.82031 0.86051 0.60017 0.0
O535 O 0.90852 0.77648 0.53461 0.0
O536 O 0.95181 0.77703 0.57244 0.0
H537 H 0.94562 0.91019 0.65052 0.0
H538 H 0.93798 0.93909 0.61503 0.0
C539 C 0.94534 0.91223 0.62191 0.0
H540 H 0.97151 0.90718 0.61139 0.0
H541 H 0.98288 0.85965 0.65357 0.0
O542 O 0.86679 0.82898 0.50615 0.0
C543 C 0.92917 0.7608 0.55375 0.0
Co544 Co 0.45094 0.15746 0.07328 0.0
Co545 Co 0.40224 0.15196 0.01282 0.0
C546 C 0.47623 0.13569 0.00295 0.0
O547 O 0.48234 0.14208 0.03464 0.0
O548 O 0.4458 0.13727 -0.0085 0.0
C549 C 0.48143 0.16564 0.14272 0.0
O550 O 0.46799 0.19532 0.15218 0.0
C551 C 0.38322 0.14213 0.942 0.0
C552 C 0.33821 0.10772 0.94568 0.0
C553 C 0.36458 0.11738 0.92327 0.0
N554 N 0.37034 0.14451 0.9743 0.0
N555 N 0.34213 0.12531 0.97561 0.0
C556 C 0.41387 0.16269 0.93049 0.0
H557 H 0.42383 0.17924 0.95166 0.0
H558 H 0.43442 0.14531 0.92061 0.0
H559 H 0.40581 0.18091 0.91 0.0
C560 C 0.39797 0.11556 0.10748 0.0
N561 N 0.40864 0.13323 0.07949 0.0
N562 N 0.39238 0.12232 0.05194 0.0
C563 C 0.37379 0.09396 0.06103 0.0
C564 C 0.3763 0.08881 0.09699 0.0
C565 C 0.40268 0.12911 0.14337 0.0
H566 H 0.40358 0.15779 0.14281 0.0
H567 H 0.42757 0.12006 0.1541 0.0
H568 H 0.38107 0.12084 0.16033 0.0
O569 O 0.44679 0.20448 0.072 0.0
O570 O 0.40858 0.20403 0.02904 0.0
H571 H 0.33059 0.07094 0.03526 0.0
H572 H 0.36602 0.04197 0.04288 0.0
C573 C 0.35919 0.06884 0.03548 0.0
H574 H 0.36966 0.07382 0.00928 0.0
H575 H 0.32757 0.12141 -0.00205 0.0
O576 O 0.47527 0.15197 0.11368 0.0
C577 C 0.42741 0.2202 0.0516 0.0
Co578 Co 0.45075 0.82349 0.90755 0.0
Co579 Co 0.40215 0.82912 0.96812 0.0
C580 C 0.47614 0.84534 0.97785 0.0
O581 O 0.48222 0.83882 0.94617 0.0
O582 O 0.44572 0.8439 0.98932 0.0
C583 C 0.48132 0.81533 0.83806 0.0
O584 O 0.46802 0.7856 0.82851 0.0
C585 C 0.38321 0.839 0.03896 0.0
C586 C 0.33818 0.87339 0.03531 0.0
C587 C 0.36457 0.86374 0.05771 0.0
N588 N 0.37031 0.83662 0.00667 0.0
N589 N 0.3421 0.85581 0.00538 0.0
C590 C 0.4139 0.81848 0.05044 0.0
H591 H 0.42389 0.80197 0.02926 0.0
H592 H 0.43441 0.83587 0.06035 0.0
H593 H 0.40586 0.80022 0.07091 0.0
C594 C 0.39779 0.86543 0.87341 0.0
N595 N 0.40846 0.84774 0.90139 0.0
N596 N 0.39224 0.85868 0.92895 0.0
C597 C 0.37367 0.88706 0.91988 0.0
C598 C 0.37615 0.8922 0.88392 0.0
C599 C 0.40252 0.85192 0.83751 0.0
H600 H 0.4034 0.82324 0.83803 0.0
H601 H 0.42742 0.86096 0.82681 0.0
H602 H 0.38093 0.86023 0.82053 0.0
O603 O 0.44655 0.77648 0.90888 0.0
O604 O 0.40855 0.77702 0.95204 0.0
H605 H 0.33054 0.91016 0.94571 0.0
H606 H 0.36601 0.93906 0.93803 0.0
C607 C 0.35915 0.91222 0.94544 0.0
H608 H 0.36965 0.90723 0.97163 0.0
H609 H 0.32751 0.8597 0.98305 0.0
O610 O 0.47503 0.82892 0.86711 0.0
C611 C 0.4273 0.7608 0.92944 0.0
Co612 Co 0.15753 0.45071 0.90749 0.0
Co613 Co 0.15189 0.40214 0.96808 0.0
C614 C 0.13568 0.47613 0.9778 0.0
O615 O 0.14222 0.48219 0.94612 0.0
O616 O 0.13709 0.4457 0.98927 0.0
C617 C 0.16565 0.48131 0.83799 0.0
O618 O 0.19537 0.46805 0.8284 0.0
C619 C 0.14202 0.38321 0.03893 0.0
C620 C 0.10763 0.33817 0.03529 0.0
C621 C 0.11729 0.36456 0.05768 0.0
N622 N 0.14439 0.3703 0.00664 0.0
N623 N 0.1252 0.34209 0.00535 0.0
C624 C 0.16253 0.4139 0.0504 0.0
H625 H 0.17903 0.42389 0.02922 0.0
H626 H 0.14514 0.43441 0.06032 0.0
H627 H 0.1808 0.40586 0.07086 0.0
C628 C 0.11557 0.39776 0.87337 0.0
N629 N 0.13326 0.40843 0.90134 0.0
N630 N 0.12233 0.39222 0.92892 0.0
C631 C 0.09395 0.37366 0.91985 0.0
C632 C 0.08879 0.37613 0.88389 0.0
C633 C 0.12906 0.4025 0.83747 0.0
H634 H 0.15774 0.40338 0.83797 0.0
H635 H 0.12001 0.42741 0.82678 0.0
H636 H 0.12074 0.38091 0.82049 0.0
O637 O 0.20454 0.44651 0.90882 0.0
O638 O 0.20399 0.40855 0.95201 0.0
H639 H 0.07084 0.33054 0.94569 0.0
H640 H 0.04194 0.36601 0.93801 0.0
C641 C 0.06879 0.35915 0.94542 0.0
H642 H 0.07379 0.36965 0.9716 0.0
H643 H 0.12131 0.3275 0.98303 0.0
O644 O 0.15209 0.47499 0.86705 0.0
C645 C 0.22022 0.42728 0.9294 0.0
Co646 Co 0.53033 0.15753 0.90746 0.0
Co647 Co 0.57889 0.15186 0.96806 0.0
C648 C 0.50491 0.13566 0.97776 0.0
O649 O 0.49884 0.14223 0.94608 0.0
O650 O 0.53533 0.13705 0.98924 0.0
C651 C 0.49972 0.16563 0.83795 0.0
O652 O 0.51296 0.19535 0.82834 0.0
C653 C 0.59781 0.14199 0.03891 0.0
C654 C 0.64285 0.10761 0.03528 0.0
C655 C 0.61647 0.11727 0.05767 0.0
N656 N 0.61072 0.14436 0.00662 0.0
N657 N 0.63894 0.12518 0.00534 0.0
C658 C 0.56712 0.1625 0.05038 0.0
H659 H 0.55712 0.17899 0.02919 0.0
H660 H 0.54661 0.1451 0.0603 0.0
H661 H 0.57515 0.18078 0.07083 0.0
C662 C 0.58328 0.11555 0.87334 0.0
N663 N 0.57261 0.13325 0.90131 0.0
N664 N 0.58882 0.12232 0.92889 0.0
C665 C 0.60738 0.09393 0.91982 0.0
C666 C 0.6049 0.08877 0.88386 0.0
C667 C 0.57854 0.12904 0.83743 0.0
H668 H 0.57766 0.15772 0.83794 0.0
H669 H 0.55363 0.12 0.82676 0.0
H670 H 0.60012 0.12071 0.82046 0.0
O671 O 0.53454 0.20453 0.90878 0.0
O672 O 0.57247 0.20397 0.95201 0.0
H673 H 0.65049 0.07082 0.94567 0.0
H674 H 0.61501 0.04192 0.93799 0.0
C675 C 0.62188 0.06877 0.9454 0.0
H676 H 0.61137 0.07377 0.97158 0.0
H677 H 0.65353 0.12128 0.98301 0.0
O678 O 0.50605 0.15209 0.86701 0.0
C679 C 0.55375 0.2202 0.92938 0.0
Co680 Co 0.8235 0.53027 0.90756 0.0
Co681 Co 0.82913 0.57886 0.96813 0.0
C682 C 0.84535 0.50487 0.97787 0.0
O683 O 0.83882 0.4988 0.94619 0.0
O684 O 0.84392 0.5353 0.98934 0.0
C685 C 0.81535 0.49971 0.83808 0.0
O686 O 0.78563 0.51301 0.82854 0.0
C687 C 0.839 0.59781 0.03897 0.0
C688 C 0.87338 0.64284 0.03533 0.0
C689 C 0.86373 0.61646 0.05772 0.0
N690 N 0.83662 0.61071 0.00668 0.0
N691 N 0.85581 0.63892 0.00539 0.0
C692 C 0.81848 0.56712 0.05046 0.0
H693 H 0.80197 0.55713 0.02927 0.0
H694 H 0.83587 0.54661 0.06037 0.0
H695 H 0.80022 0.57516 0.07092 0.0
C696 C 0.86544 0.58323 0.87342 0.0
N697 N 0.84776 0.57255 0.9014 0.0
N698 N 0.85869 0.58878 0.92897 0.0
C699 C 0.88707 0.60734 0.91989 0.0
C700 C 0.89222 0.60487 0.88393 0.0
C701 C 0.85193 0.5785 0.83752 0.0
H702 H 0.82325 0.57762 0.83805 0.0
H703 H 0.86097 0.5536 0.82683 0.0
H704 H 0.86024 0.60009 0.82055 0.0
O705 O 0.77649 0.53446 0.9089 0.0
O706 O 0.77703 0.57246 0.95205 0.0
H707 H 0.91017 0.65047 0.94572 0.0
H708 H 0.93908 0.615 0.93805 0.0
C709 C 0.91223 0.62187 0.94546 0.0
H710 H 0.90723 0.61137 0.97164 0.0
H711 H 0.8597 0.65351 0.98306 0.0
O712 O 0.82894 0.50598 0.86713 0.0
C713 C 0.76081 0.5537 0.92945 0.0
Co714 Co 0.53013 0.82354 0.07337 0.0
Co715 Co 0.5788 0.82906 0.01287 0.0
C716 C 0.50482 0.84534 0.00304 0.0
O717 O 0.49871 0.8389 0.03473 0.0
O718 O 0.53525 0.84379 -0.00842 0.0
C719 C 0.49961 0.8154 0.14283 0.0
O720 O 0.51301 0.78571 0.15233 0.0
C721 C 0.59781 0.83887 0.94205 0.0
C722 C 0.64283 0.87327 0.94571 0.0
C723 C 0.61646 0.86361 0.9233 0.0
N724 N 0.61069 0.83651 0.97434 0.0
N725 N 0.6389 0.8557 0.97565 0.0
C726 C 0.56714 0.81833 0.93055 0.0
H727 H 0.55717 0.8018 0.95173 0.0
H728 H 0.54661 0.83571 0.92065 0.0
H729 H 0.57519 0.80008 0.91008 0.0
C730 C 0.5831 0.86546 0.10754 0.0
N731 N 0.57243 0.84777 0.07956 0.0
N732 N 0.58868 0.85868 0.052 0.0
C733 C 0.60726 0.88705 0.06109 0.0
C734 C 0.60476 0.89221 0.09704 0.0
C735 C 0.57838 0.85193 0.14344 0.0
H736 H 0.57748 0.82325 0.1429 0.0
H737 H 0.55349 0.86098 0.15415 0.0
H738 H 0.59998 0.86021 0.1604 0.0
O739 O 0.53428 0.77652 0.07208 0.0
O740 O 0.57243 0.77699 0.02906 0.0
H741 H 0.65045 0.91008 0.0353 0.0
H742 H 0.61501 0.93904 0.04292 0.0
C743 C 0.62185 0.91218 0.03552 0.0
H744 H 0.61137 0.90719 0.00933 0.0
H745 H 0.65347 0.8596 -0.00202 0.0
O746 O 0.50581 0.82903 0.11377 0.0
C747 C 0.55362 0.76081 0.05164 0.0
Co748 Co 0.15748 0.5301 0.07332 0.0
Co749 Co 0.15197 0.57878 0.01284 0.0
C750 C 0.13569 0.5048 0.00299 0.0
O751 O 0.14211 0.49869 0.03468 0.0
O752 O 0.13725 0.53523 -0.00846 0.0
C753 C 0.16564 0.4996 0.14277 0.0
O754 O 0.19533 0.51301 0.15224 0.0
C755 C 0.14214 0.5978 0.94202 0.0
C756 C 0.10773 0.64281 0.9457 0.0
C757 C 0.11739 0.61644 0.92329 0.0
N758 N 0.14451 0.61068 0.97431 0.0
N759 N 0.12532 0.63889 0.97563 0.0
C760 C 0.16269 0.56713 0.93051 0.0
H761 H 0.17923 0.55717 0.95168 0.0
H762 H 0.14531 0.5466 0.92062 0.0
H763 H 0.18092 0.57519 0.91003 0.0
C764 C 0.11558 0.58307 0.10751 0.0
N765 N 0.13325 0.5724 0.07952 0.0
N766 N 0.12234 0.58865 0.05196 0.0
C767 C 0.09398 0.60724 0.06105 0.0
C768 C 0.08882 0.60474 0.09701 0.0
C769 C 0.12912 0.57836 0.1434 0.0
H770 H 0.1578 0.57746 0.14285 0.0
H771 H 0.12007 0.55347 0.15412 0.0
H772 H 0.12084 0.59996 0.16036 0.0
O773 O 0.2045 0.53425 0.07203 0.0
O774 O 0.20404 0.57242 0.02903 0.0
H775 H 0.07095 0.65043 0.03527 0.0
H776 H 0.04199 0.61499 0.04289 0.0
C777 C 0.06885 0.62183 0.0355 0.0
H778 H 0.07383 0.61135 0.0093 0.0
H779 H 0.12142 0.65346 -0.00204 0.0
O780 O 0.15199 0.50578 0.11372 0.0
C781 C 0.22022 0.5536 0.05161 0.0
Co782 Co 0.82354 0.45088 0.07338 0.0
Co783 Co 0.82906 0.40222 0.01288 0.0
C784 C 0.84534 0.4762 0.00306 0.0
O785 O 0.83891 0.4823 0.03475 0.0
O786 O 0.84379 0.44577 -0.0084 0.0
C787 C 0.81539 0.4814 0.14285 0.0
O788 O 0.7857 0.46801 0.15235 0.0
C789 C 0.83888 0.38322 0.94206 0.0
C790 C 0.87328 0.3382 0.94572 0.0
C791 C 0.86362 0.36457 0.92331 0.0
N792 N 0.83652 0.37033 0.97435 0.0
N793 N 0.85571 0.34212 0.97566 0.0
C794 C 0.81834 0.41389 0.93056 0.0
H795 H 0.80181 0.42386 0.95174 0.0
H796 H 0.83572 0.43442 0.92066 0.0
H797 H 0.8001 0.40584 0.91009 0.0
C798 C 0.86546 0.39791 0.10756 0.0
N799 N 0.84777 0.40859 0.07958 0.0
N800 N 0.85868 0.39233 0.05201 0.0
C801 C 0.88705 0.37375 0.0611 0.0
C802 C 0.89221 0.37625 0.09705 0.0
C803 C 0.85193 0.40263 0.14345 0.0
H804 H 0.82325 0.40353 0.14291 0.0
H805 H 0.86098 0.42752 0.15416 0.0
H806 H 0.86021 0.38103 0.16042 0.0
O807 O 0.77653 0.44673 0.07209 0.0
O808 O 0.77699 0.40858 0.02907 0.0
H809 H 0.91008 0.33056 0.03531 0.0
H810 H 0.93904 0.36601 0.04293 0.0
C811 C 0.91218 0.35917 0.03553 0.0
H812 H 0.90719 0.36965 0.00934 0.0
H813 H 0.8596 0.32755 -0.00201 0.0
O814 O 0.82903 0.4752 0.1138 0.0
C815 C 0.76081 0.4274 0.05165 0.0
Co816 Co 0.57257 0.94487 0.66333 0.0
Co817 Co 0.51091 0.9033 0.65304 0.0
C818 C 0.50206 0.97543 0.64555 0.0
O819 O 0.53152 0.97752 0.65968 0.0
O820 O 0.49111 0.94659 0.63525 0.0
C821 C 0.59694 0.97952 0.6172 0.0
O822 O 0.56853 0.96619 0.60429 0.0
C823 C 0.4394 0.88472 0.64104 0.0
C824 C 0.44482 0.83906 0.60766 0.0
C825 C 0.4217 0.86517 0.61611 0.0
N826 N 0.4717 0.87205 0.64516 0.0
N827 N 0.47401 0.84366 0.6263 0.0
C828 C 0.42717 0.9166 0.65922 0.0
H829 H 0.44786 0.92784 0.67551 0.0
H830 H 0.41736 0.93581 0.64033 0.0
H831 H 0.4064 0.9096 0.67754 0.0
C832 C 0.60559 0.89353 0.61959 0.0
N833 N 0.57753 0.90356 0.63751 0.0
N834 N 0.54962 0.89017 0.62423 0.0
C835 C 0.55885 0.87353 0.59468 0.0
C836 C 0.59508 0.87497 0.59062 0.0
C837 C 0.64152 0.89902 0.63273 0.0
H838 H 0.64155 0.89766 0.66141 0.0
H839 H 0.65069 0.92522 0.62572 0.0
H840 H 0.65937 0.87911 0.62233 0.0
O841 O 0.58021 0.93785 0.70845 0.0
O842 O 0.52789 0.91312 0.70599 0.0
H843 H 0.53205 0.83293 0.56848 0.0
H844 H 0.54195 0.86961 0.54184 0.0
C845 C 0.53347 0.86157 0.56804 0.0
H846 H 0.5075 0.87259 0.57315 0.0
H847 H 0.49676 0.82954 0.62311 0.0
O848 O 0.60701 0.97252 0.6474 0.0
C849 C 0.55388 0.92619 0.72324 0.0
Co850 Co 0.03615 0.57255 0.66334 0.0
Co851 Co 0.07771 0.5109 0.65306 0.0
C852 C 0.00559 0.50205 0.64557 0.0
O853 O 0.0035 0.5315 0.65969 0.0
O854 O 0.03443 0.4911 0.63526 0.0
C855 C 0.0015 0.59691 0.6172 0.0
O856 O 0.01484 0.5685 0.6043 0.0
C857 C 0.09629 0.43939 0.64107 0.0
C858 C 0.14196 0.44481 0.6077 0.0
C859 C 0.11585 0.42169 0.61615 0.0
N860 N 0.10896 0.47169 0.64519 0.0
N861 N 0.13736 0.47401 0.62634 0.0
C862 C 0.06441 0.42716 0.65924 0.0
H863 H 0.05316 0.44785 0.67553 0.0
H864 H 0.04521 0.41735 0.64034 0.0
H865 H 0.0714 0.4064 0.67756 0.0
C866 C 0.08749 0.60557 0.61961 0.0
N867 N 0.07746 0.57752 0.63753 0.0
N868 N 0.09085 0.5496 0.62425 0.0
C869 C 0.10749 0.55883 0.59471 0.0
C870 C 0.10606 0.59507 0.59064 0.0
C871 C 0.08199 0.64151 0.63274 0.0
H872 H 0.08335 0.64154 0.66142 0.0
H873 H 0.0558 0.65067 0.62572 0.0
H874 H 0.1019 0.65935 0.62233 0.0
O875 O 0.04315 0.58021 0.70846 0.0
O876 O 0.06786 0.52788 0.70601 0.0
H877 H 0.1481 0.53202 0.56851 0.0
H878 H 0.11141 0.54193 0.54186 0.0
C879 C 0.11945 0.53345 0.56807 0.0
H880 H 0.10843 0.50748 0.57317 0.0
H881 H 0.15148 0.49675 0.62315 0.0
O882 O 0.0085 0.60699 0.6474 0.0
C883 C 0.0548 0.55387 0.72326 0.0
Co884 Co 0.40845 0.03614 0.66334 0.0
Co885 Co 0.47011 0.0777 0.65305 0.0
C886 C 0.47896 0.00558 0.64556 0.0
O887 O 0.4495 0.00349 0.65969 0.0
O888 O 0.48991 0.03442 0.63525 0.0
C889 C 0.38409 0.00149 0.6172 0.0
O890 O 0.4125 0.01482 0.6043 0.0
C891 C 0.54162 0.09628 0.64106 0.0
C892 C 0.5362 0.14195 0.60769 0.0
C893 C 0.55932 0.11584 0.61613 0.0
N894 N 0.50932 0.10895 0.64518 0.0
N895 N 0.50701 0.13735 0.62632 0.0
C896 C 0.55385 0.0644 0.65922 0.0
H897 H 0.53316 0.05315 0.67551 0.0
H898 H 0.56366 0.0452 0.64033 0.0
H899 H 0.57461 0.07139 0.67755 0.0
C900 C 0.37543 0.08748 0.6196 0.0
N901 N 0.40349 0.07745 0.63753 0.0
N902 N 0.4314 0.09084 0.62425 0.0
C903 C 0.42217 0.10748 0.5947 0.0
C904 C 0.38594 0.10605 0.59064 0.0
C905 C 0.33949 0.08198 0.63274 0.0
H906 H 0.33947 0.08335 0.66142 0.0
H907 H 0.33033 0.05579 0.62573 0.0
H908 H 0.32165 0.10189 0.62234 0.0
O909 O 0.4008 0.04315 0.70846 0.0
O910 O 0.45314 0.06785 0.706 0.0
H911 H 0.44898 0.14808 0.5685 0.0
H912 H 0.43907 0.1114 0.54185 0.0
C913 C 0.44755 0.11944 0.56806 0.0
H914 H 0.47352 0.10841 0.57316 0.0
H915 H 0.48426 0.15147 0.62314 0.0
O916 O 0.37401 0.00849 0.6474 0.0
C917 C 0.42715 0.05479 0.72325 0.0
Co918 Co 0.94487 0.40844 0.66334 0.0
Co919 Co 0.90331 0.4701 0.65305 0.0
C920 C 0.97543 0.47895 0.64556 0.0
O921 O 0.97752 0.44949 0.65969 0.0
O922 O 0.9466 0.4899 0.63526 0.0
C923 C 0.97953 0.38408 0.61721 0.0
O924 O 0.96619 0.41249 0.6043 0.0
C925 C 0.88474 0.54161 0.64105 0.0
C926 C 0.83907 0.5362 0.60766 0.0
C927 C 0.86519 0.55931 0.61612 0.0
N928 N 0.87207 0.50932 0.64516 0.0
N929 N 0.84367 0.507 0.6263 0.0
C930 C 0.91661 0.55384 0.65922 0.0
H931 H 0.92785 0.53315 0.67552 0.0
H932 H 0.93583 0.56364 0.64033 0.0
H933 H 0.90962 0.57461 0.67754 0.0
C934 C 0.89353 0.37543 0.61959 0.0
N935 N 0.90356 0.40348 0.63752 0.0
N936 N 0.89017 0.43139 0.62424 0.0
C937 C 0.87353 0.42216 0.59469 0.0
C938 C 0.87497 0.38593 0.59062 0.0
C939 C 0.89903 0.33949 0.63274 0.0
H940 H 0.89766 0.33947 0.66141 0.0
H941 H 0.92522 0.33032 0.62572 0.0
H942 H 0.87912 0.32165 0.62233 0.0
O943 O 0.93785 0.40079 0.70846 0.0
O944 O 0.91313 0.45312 0.70599 0.0
H945 H 0.83294 0.44897 0.56848 0.0
H946 H 0.86962 0.43906 0.54184 0.0
C947 C 0.86158 0.44755 0.56805 0.0
H948 H 0.8726 0.47352 0.57315 0.0
H949 H 0.82954 0.48426 0.62312 0.0
O950 O 0.97252 0.374 0.6474 0.0
C951 C 0.9262 0.42713 0.72325 0.0
Co952 Co 0.57254 0.03617 0.31774 0.0
Co953 Co 0.51086 0.07772 0.32798 0.0
C954 C 0.50205 0.00559 0.33553 0.0
O955 O 0.53151 0.00351 0.32143 0.0
O956 O 0.49107 0.03444 0.34579 0.0
C957 C 0.59695 0.00155 0.36387 0.0
O958 O 0.56854 0.01487 0.3768 0.0
C959 C 0.43934 0.09629 0.33997 0.0
C960 C 0.44475 0.14197 0.37334 0.0
C961 C 0.42163 0.11585 0.36489 0.0
N962 N 0.47164 0.10896 0.33586 0.0
N963 N 0.47395 0.13736 0.3547 0.0
C964 C 0.42711 0.0644 0.32182 0.0
H965 H 0.44781 0.05314 0.30554 0.0
H966 H 0.41729 0.04521 0.34072 0.0
H967 H 0.40635 0.07139 0.30349 0.0
C968 C 0.60553 0.08756 0.36144 0.0
N969 N 0.57748 0.07751 0.34352 0.0
N970 N 0.54956 0.09088 0.3568 0.0
C971 C 0.55878 0.10754 0.38634 0.0
C972 C 0.59502 0.10613 0.3904 0.0
C973 C 0.64147 0.0821 0.34828 0.0
H974 H 0.64148 0.08344 0.31961 0.0
H975 H 0.65067 0.05592 0.35531 0.0
H976 H 0.65929 0.10204 0.35866 0.0
O977 O 0.58018 0.04315 0.27261 0.0
O978 O 0.52785 0.06787 0.27504 0.0
H979 H 0.53196 0.14813 0.41254 0.0
H980 H 0.54188 0.11144 0.43918 0.0
C981 C 0.53339 0.11948 0.41298 0.0
H982 H 0.50742 0.10845 0.40787 0.0
H983 H 0.49669 0.15149 0.35789 0.0
O984 O 0.60701 0.00856 0.33367 0.0
C985 C 0.55385 0.05479 0.2578 0.0
Co986 Co 0.94487 0.57255 0.31773 0.0
Co987 Co 0.90333 0.51087 0.32799 0.0
C988 C 0.97545 0.50205 0.33553 0.0
O989 O 0.97754 0.53152 0.32142 0.0
O990 O 0.94661 0.49108 0.3458 0.0
C991 C 0.9795 0.59695 0.36386 0.0
O992 O 0.96618 0.56855 0.37679 0.0
C993 C 0.88477 0.43934 0.33997 0.0
C994 C 0.83908 0.44475 0.37333 0.0
C995 C 0.8652 0.42164 0.36489 0.0
N996 N 0.87209 0.47164 0.33586 0.0
N997 N 0.84368 0.47395 0.3547 0.0
C998 C 0.91666 0.42712 0.32182 0.0
H999 H 0.92791 0.44781 0.30554 0.0
H1000 H 0.93585 0.4173 0.34072 0.0
H1001 H 0.90967 0.40636 0.30349 0.0
C1002 C 0.89348 0.60553 0.36143 0.0
N1003 N 0.90354 0.57749 0.34351 0.0
N1004 N 0.89016 0.54956 0.35679 0.0
C1005 C 0.8735 0.55879 0.38633 0.0
C1006 C 0.87491 0.59502 0.39039 0.0
C1007 C 0.89894 0.64147 0.34827 0.0
H1008 H 0.8976 0.64148 0.3196 0.0
H1009 H 0.92512 0.65067 0.3553 0.0
H1010 H 0.879 0.65929 0.35865 0.0
O1011 O 0.9379 0.58018 0.2726 0.0
O1012 O 0.91319 0.52785 0.27505 0.0
H1013 H 0.83291 0.53196 0.41254 0.0
H1014 H 0.8696 0.54188 0.43918 0.0
C1015 C 0.86156 0.5334 0.41297 0.0
H1016 H 0.87259 0.50743 0.40787 0.0
H1017 H 0.82956 0.49669 0.35788 0.0
O1018 O 0.97248 0.60701 0.33367 0.0
C1019 C 0.92626 0.55384 0.2578 0.0
Co1020 Co 0.40846 0.94485 0.31773 0.0
Co1021 Co 0.47015 0.90332 0.32798 0.0
C1022 C 0.47896 0.97543 0.33553 0.0
O1023 O 0.44949 0.97752 0.32142 0.0
O1024 O 0.48993 0.94659 0.3458 0.0
C1025 C 0.38406 0.97948 0.36386 0.0
O1026 O 0.41246 0.96615 0.37679 0.0
C1027 C 0.54167 0.88475 0.33997 0.0
C1028 C 0.53627 0.83907 0.37333 0.0
C1029 C 0.55938 0.86519 0.36489 0.0
N1030 N 0.50938 0.87208 0.33585 0.0
N1031 N 0.50707 0.84367 0.3547 0.0
C1032 C 0.55389 0.91664 0.32182 0.0
H1033 H 0.5332 0.9279 0.30555 0.0
H1034 H 0.56371 0.93584 0.34072 0.0
H1035 H 0.57466 0.90966 0.30349 0.0
C1036 C 0.37548 0.89345 0.36142 0.0
N1037 N 0.40353 0.90351 0.34351 0.0
N1038 N 0.43145 0.89014 0.35679 0.0
C1039 C 0.42223 0.87348 0.38633 0.0
C1040 C 0.38599 0.87489 0.39039 0.0
C1041 C 0.33954 0.89892 0.34827 0.0
H1042 H 0.33953 0.89758 0.31959 0.0
H1043 H 0.33034 0.9251 0.35529 0.0
H1044 H 0.32171 0.87898 0.35865 0.0
O1045 O 0.40083 0.93788 0.2726 0.0
O1046 O 0.45317 0.91318 0.27504 0.0
H1047 H 0.44905 0.8329 0.41254 0.0
H1048 H 0.43913 0.86958 0.43917 0.0
C1049 C 0.44762 0.86154 0.41297 0.0
H1050 H 0.47358 0.87258 0.40786 0.0
H1051 H 0.48433 0.82954 0.35788 0.0
O1052 O 0.374 0.97246 0.33367 0.0
C1053 C 0.42717 0.92625 0.2578 0.0
Co1054 Co 0.0362 0.40847 0.31774 0.0
Co1055 Co 0.07774 0.47015 0.32798 0.0
C1056 C 0.00562 0.47897 0.33553 0.0
O1057 O 0.00353 0.4495 0.32143 0.0
O1058 O 0.03446 0.48994 0.3458 0.0
C1059 C 0.00157 0.38407 0.36387 0.0
O1060 O 0.01489 0.41248 0.3768 0.0
C1061 C 0.09631 0.54167 0.33997 0.0
C1062 C 0.14199 0.53625 0.37333 0.0
C1063 C 0.11588 0.55937 0.36489 0.0
N1064 N 0.10898 0.50937 0.33585 0.0
N1065 N 0.13739 0.50706 0.3547 0.0
C1066 C 0.06442 0.55389 0.32182 0.0
H1067 H 0.05317 0.5332 0.30554 0.0
H1068 H 0.04523 0.56372 0.34072 0.0
H1069 H 0.07141 0.57466 0.30348 0.0
C1070 C 0.08758 0.37548 0.36144 0.0
N1071 N 0.07753 0.40353 0.34352 0.0
N1072 N 0.0909 0.43145 0.3568 0.0
C1073 C 0.10756 0.42223 0.38634 0.0
C1074 C 0.10615 0.386 0.3904 0.0
C1075 C 0.08212 0.33955 0.34829 0.0
H1076 H 0.08346 0.33954 0.31961 0.0
H1077 H 0.05594 0.33035 0.35531 0.0
H1078 H 0.10206 0.32172 0.35867 0.0
O1079 O 0.04317 0.40083 0.27261 0.0
O1080 O 0.06788 0.45316 0.27504 0.0
H1081 H 0.14814 0.44906 0.41255 0.0
H1082 H 0.11146 0.43914 0.43918 0.0
C1083 C 0.1195 0.44763 0.41298 0.0
H1084 H 0.10847 0.47359 0.40787 0.0
H1085 H 0.15151 0.48431 0.35788 0.0
O1086 O 0.00858 0.37401 0.33368 0.0
C1087 C 0.0548 0.42717 0.2578 0.0
Co1088 Co 0.66331 0.57256 0.94502 0.0
Co1089 Co 0.65303 0.5109 0.90344 0.0
C1090 C 0.64553 0.50206 0.97558 0.0
O1091 O 0.65965 0.53152 0.97767 0.0
O1092 O 0.63525 0.4911 0.94674 0.0
C1093 C 0.61717 0.59693 0.97966 0.0
O1094 O 0.60426 0.56852 0.96633 0.0
C1095 C 0.64105 0.43939 0.88488 0.0
C1096 C 0.60767 0.44479 0.83921 0.0
C1097 C 0.61612 0.42168 0.86533 0.0
N1098 N 0.64516 0.47168 0.8722 0.0
N1099 N 0.6263 0.47399 0.8438 0.0
C1100 C 0.65922 0.42717 0.91676 0.0
H1101 H 0.67552 0.44786 0.928 0.0
H1102 H 0.64034 0.41736 0.93598 0.0
H1103 H 0.67754 0.4064 0.90977 0.0
C1104 C 0.61959 0.60557 0.89365 0.0
N1105 N 0.6375 0.57751 0.9037 0.0
N1106 N 0.62422 0.5496 0.8903 0.0
C1107 C 0.59469 0.55883 0.87364 0.0
C1108 C 0.59063 0.59507 0.87507 0.0
C1109 C 0.63274 0.6415 0.89914 0.0
H1110 H 0.66141 0.64151 0.89781 0.0
H1111 H 0.6257 0.65068 0.92533 0.0
H1112 H 0.62236 0.65934 0.87921 0.0
O1113 O 0.70842 0.58022 0.93802 0.0
O1114 O 0.70597 0.52791 0.91325 0.0
H1115 H 0.5685 0.53203 0.83303 0.0
H1116 H 0.54184 0.54194 0.86971 0.0
C1117 C 0.56805 0.53345 0.86168 0.0
H1118 H 0.57315 0.50748 0.8727 0.0
H1119 H 0.62312 0.49673 0.82967 0.0
O1120 O 0.64736 0.607 0.97266 0.0
C1121 C 0.72322 0.5539 0.92632 0.0
Co1122 Co 0.40846 0.6633 0.94501 0.0
Co1123 Co 0.47011 0.65303 0.90343 0.0
C1124 C 0.47896 0.64554 0.97557 0.0
O1125 O 0.4495 0.65966 0.97766 0.0
O1126 O 0.48991 0.63524 0.94673 0.0
C1127 C 0.3841 0.61716 0.97966 0.0
O1128 O 0.41251 0.60426 0.96633 0.0
C1129 C 0.54162 0.64098 0.88487 0.0
C1130 C 0.53618 0.60762 0.83918 0.0
C1131 C 0.55927 0.61601 0.86533 0.0
N1132 N 0.50933 0.64514 0.87219 0.0
N1133 N 0.507 0.6263 0.84378 0.0
C1134 C 0.55386 0.65916 0.91674 0.0
H1135 H 0.53319 0.67545 0.928 0.0
H1136 H 0.5637 0.64027 0.93594 0.0
H1137 H 0.57462 0.67749 0.90972 0.0
C1138 C 0.37544 0.61958 0.89365 0.0
N1139 N 0.4035 0.63749 0.90369 0.0
N1140 N 0.43141 0.62422 0.8903 0.0
C1141 C 0.42218 0.59468 0.87363 0.0
C1142 C 0.38595 0.59062 0.87507 0.0
C1143 C 0.33951 0.63272 0.89915 0.0
H1144 H 0.33949 0.6614 0.89782 0.0
H1145 H 0.33033 0.62568 0.92533 0.0
H1146 H 0.32167 0.62234 0.87922 0.0
O1147 O 0.40079 0.70842 0.938 0.0
O1148 O 0.4531 0.70596 0.91323 0.0
H1149 H 0.44899 0.5685 0.83302 0.0
H1150 H 0.43908 0.54184 0.86969 0.0
C1151 C 0.44756 0.56805 0.86166 0.0
H1152 H 0.47353 0.57314 0.87269 0.0
H1153 H 0.48426 0.62315 0.82964 0.0
O1154 O 0.37402 0.64735 0.97265 0.0
C1155 C 0.42711 0.72321 0.92631 0.0
Co1156 Co 0.31772 0.40844 0.94501 0.0
Co1157 Co 0.328 0.47009 0.90343 0.0
C1158 C 0.33549 0.47894 0.97557 0.0
O1159 O 0.32138 0.44948 0.97767 0.0
O1160 O 0.34577 0.48989 0.94672 0.0
C1161 C 0.36384 0.38406 0.97967 0.0
O1162 O 0.37676 0.41246 0.96634 0.0
C1163 C 0.34003 0.5416 0.88487 0.0
C1164 C 0.37339 0.53617 0.83917 0.0
C1165 C 0.365 0.55926 0.86533 0.0
N1166 N 0.33589 0.50931 0.87218 0.0
N1167 N 0.35473 0.50699 0.84377 0.0
C1168 C 0.32186 0.55385 0.91673 0.0
H1169 H 0.30556 0.53317 0.92799 0.0
H1170 H 0.34074 0.56368 0.93594 0.0
H1171 H 0.30353 0.5746 0.90972 0.0
C1172 C 0.36145 0.37543 0.89365 0.0
N1173 N 0.34354 0.40348 0.90369 0.0
N1174 N 0.35681 0.4314 0.8903 0.0
C1175 C 0.38635 0.42217 0.87364 0.0
C1176 C 0.39041 0.38594 0.87507 0.0
C1177 C 0.3483 0.3395 0.89914 0.0
H1178 H 0.31963 0.33949 0.89781 0.0
H1179 H 0.35534 0.33031 0.92532 0.0
H1180 H 0.35867 0.32166 0.8792 0.0
O1181 O 0.2726 0.40079 0.938 0.0
O1182 O 0.27506 0.45309 0.91321 0.0
H1183 H 0.41253 0.44898 0.83302 0.0
H1184 H 0.43919 0.43907 0.86969 0.0
C1185 C 0.41298 0.44755 0.86167 0.0
H1186 H 0.40788 0.47352 0.87269 0.0
H1187 H 0.35787 0.48425 0.82963 0.0
O1188 O 0.33365 0.37399 0.97265 0.0
C1189 C 0.25781 0.4271 0.92629 0.0
Co1190 Co 0.57254 0.3177 0.94508 0.0
Co1191 Co 0.51093 0.32798 0.90345 0.0
C1192 C 0.50203 0.33545 0.97559 0.0
O1193 O 0.53149 0.32133 0.97771 0.0
O1194 O 0.49109 0.34574 0.94674 0.0
C1195 C 0.59689 0.36383 0.97974 0.0
O1196 O 0.56848 0.37674 0.96641 0.0
C1197 C 0.43942 0.34002 0.88486 0.0
C1198 C 0.44487 0.3734 0.83919 0.0
C1199 C 0.42177 0.36499 0.86533 0.0
N1200 N 0.47172 0.33588 0.87219 0.0
N1201 N 0.47405 0.35473 0.84379 0.0
C1202 C 0.42717 0.32183 0.91672 0.0
H1203 H 0.44784 0.30553 0.92797 0.0
H1204 H 0.41733 0.3407 0.93593 0.0
H1205 H 0.40641 0.3035 0.90968 0.0
C1206 C 0.6056 0.36143 0.89375 0.0
N1207 N 0.57753 0.34352 0.90377 0.0
N1208 N 0.54963 0.35681 0.89036 0.0
C1209 C 0.55888 0.38634 0.8737 0.0
C1210 C 0.59511 0.3904 0.8752 0.0
C1211 C 0.64152 0.34827 0.89928 0.0
H1212 H 0.64153 0.3196 0.89799 0.0
H1213 H 0.6507 0.35535 0.92545 0.0
H1214 H 0.65937 0.35861 0.87934 0.0
O1215 O 0.58022 0.27259 0.93806 0.0
O1216 O 0.52794 0.27504 0.91322 0.0
H1217 H 0.53212 0.41248 0.83303 0.0
H1218 H 0.54199 0.43918 0.86969 0.0
C1219 C 0.53351 0.41296 0.86168 0.0
H1220 H 0.50753 0.40788 0.87268 0.0
H1221 H 0.4968 0.35788 0.82966 0.0
O1222 O 0.60696 0.33364 0.97274 0.0
C1223 C 0.55392 0.25779 0.92631 0.0
Co1224 Co 0.66331 0.40846 0.03632 0.0
Co1225 Co 0.65303 0.47012 0.07784 0.0
C1226 C 0.64552 0.47896 0.00574 0.0
O1227 O 0.65967 0.44951 0.00366 0.0
O1228 O 0.6352 0.48991 0.03457 0.0
C1229 C 0.61717 0.3841 0.00168 0.0
O1230 O 0.60427 0.41252 0.01501 0.0
C1231 C 0.64103 0.54164 0.09642 0.0
C1232 C 0.60767 0.53622 0.1421 0.0
C1233 C 0.61612 0.55934 0.11598 0.0
N1234 N 0.64516 0.50935 0.10909 0.0
N1235 N 0.62631 0.50703 0.13749 0.0
C1236 C 0.65918 0.55387 0.06453 0.0
H1237 H 0.67546 0.53318 0.05327 0.0
H1238 H 0.64028 0.56369 0.04533 0.0
H1239 H 0.67752 0.57463 0.07151 0.0
C1240 C 0.61959 0.37545 0.08768 0.0
N1241 N 0.63752 0.4035 0.07764 0.0
N1242 N 0.62423 0.43142 0.09101 0.0
C1243 C 0.59468 0.4222 0.10766 0.0
C1244 C 0.59062 0.38596 0.10623 0.0
C1245 C 0.63273 0.33952 0.08219 0.0
H1246 H 0.6614 0.33949 0.08356 0.0
H1247 H 0.62572 0.33034 0.056 0.0
H1248 H 0.62232 0.32168 0.10211 0.0
O1249 O 0.70843 0.40079 0.04331 0.0
O1250 O 0.70597 0.45315 0.06795 0.0
H1251 H 0.56847 0.44902 0.14824 0.0
H1252 H 0.54184 0.4391 0.11155 0.0
C1253 C 0.56804 0.44759 0.1196 0.0
H1254 H 0.57315 0.47355 0.10856 0.0
H1255 H 0.62313 0.48429 0.15162 0.0
O1256 O 0.64736 0.37403 0.00868 0.0
C1257 C 0.72323 0.42716 0.0549 0.0
Co1258 Co 0.57256 0.66333 0.03628 0.0
Co1259 Co 0.51092 0.65302 0.07782 0.0
C1260 C 0.50206 0.64553 0.00572 0.0
O1261 O 0.53151 0.65969 0.00364 0.0
O1262 O 0.49112 0.63519 0.03455 0.0
C1263 C 0.59691 0.6172 0.00162 0.0
O1264 O 0.5685 0.60429 0.01496 0.0
C1265 C 0.43939 0.64101 0.09641 0.0
C1266 C 0.44482 0.60764 0.14208 0.0
C1267 C 0.4217 0.61609 0.11597 0.0
N1268 N 0.47169 0.64513 0.10907 0.0
N1269 N 0.47402 0.62628 0.13748 0.0
C1270 C 0.42716 0.65917 0.06453 0.0
H1271 H 0.44785 0.67545 0.05327 0.0
H1272 H 0.41734 0.64027 0.04533 0.0
H1273 H 0.4064 0.6775 0.07152 0.0
C1274 C 0.6056 0.61962 0.08762 0.0
N1275 N 0.57754 0.63753 0.07759 0.0
N1276 N 0.54963 0.62423 0.09097 0.0
C1277 C 0.55887 0.59468 0.10761 0.0
C1278 C 0.59511 0.59063 0.10614 0.0
C1279 C 0.64153 0.63277 0.08211 0.0
H1280 H 0.64154 0.66144 0.08343 0.0
H1281 H 0.6507 0.62572 0.05593 0.0
H1282 H 0.65938 0.6224 0.10203 0.0
O1283 O 0.58023 0.70844 0.04328 0.0
O1284 O 0.52788 0.70597 0.06794 0.0
H1285 H 0.53209 0.56849 0.14824 0.0
H1286 H 0.542 0.54184 0.11156 0.0
C1287 C 0.5335 0.56804 0.11959 0.0
H1288 H 0.50753 0.57313 0.10858 0.0
H1289 H 0.49676 0.6231 0.1516 0.0
O1290 O 0.60699 0.64739 0.00862 0.0
C1291 C 0.55387 0.72323 0.05488 0.0
Co1292 Co 0.3177 0.57255 0.03628 0.0
Co1293 Co 0.328 0.5109 0.07782 0.0
C1294 C 0.3355 0.50204 0.00572 0.0
O1295 O 0.32134 0.53149 0.00364 0.0
O1296 O 0.34583 0.4911 0.03455 0.0
C1297 C 0.36384 0.5969 0.00162 0.0
O1298 O 0.37674 0.56849 0.01495 0.0
C1299 C 0.33999 0.43938 0.09642 0.0
C1300 C 0.37335 0.44481 0.1421 0.0
C1301 C 0.3649 0.42169 0.116 0.0
N1302 N 0.33587 0.47169 0.10908 0.0
N1303 N 0.35472 0.47401 0.13749 0.0
C1304 C 0.32184 0.42715 0.06454 0.0
H1305 H 0.30556 0.44784 0.05327 0.0
H1306 H 0.34074 0.41732 0.04535 0.0
H1307 H 0.3035 0.4064 0.07153 0.0
C1308 C 0.36141 0.60558 0.08762 0.0
N1309 N 0.3435 0.57752 0.07759 0.0
N1310 N 0.3568 0.54961 0.09097 0.0
C1311 C 0.38635 0.55885 0.10761 0.0
C1312 C 0.39041 0.59508 0.10614 0.0
C1313 C 0.34826 0.64151 0.08212 0.0
H1314 H 0.31959 0.64153 0.08344 0.0
H1315 H 0.35531 0.65069 0.05593 0.0
H1316 H 0.35864 0.65936 0.10204 0.0
O1317 O 0.27259 0.58022 0.04328 0.0
O1318 O 0.27505 0.52786 0.06793 0.0
H1319 H 0.41254 0.53207 0.14824 0.0
H1320 H 0.43919 0.54196 0.11155 0.0
C1321 C 0.41298 0.53348 0.11959 0.0
H1322 H 0.40789 0.5075 0.10858 0.0
H1323 H 0.35791 0.49676 0.1516 0.0
O1324 O 0.33364 0.60697 0.00863 0.0
C1325 C 0.2578 0.55385 0.05487 0.0
Co1326 Co 0.40842 0.31767 0.03632 0.0
Co1327 Co 0.47008 0.328 0.07784 0.0
C1328 C 0.47892 0.33547 0.00574 0.0
O1329 O 0.44948 0.32129 0.00367 0.0
O1330 O 0.48985 0.34584 0.03456 0.0
C1331 C 0.38409 0.3638 0.00164 0.0
O1332 O 0.41249 0.3767 0.01499 0.0
C1333 C 0.5416 0.34006 0.0964 0.0
C1334 C 0.53615 0.3734 0.1421 0.0
C1335 C 0.55925 0.36502 0.11595 0.0
N1336 N 0.50931 0.33589 0.10908 0.0
N1337 N 0.50698 0.35473 0.13749 0.0
C1338 C 0.55385 0.32191 0.06452 0.0
H1339 H 0.53317 0.30564 0.05324 0.0
H1340 H 0.5637 0.34081 0.04534 0.0
H1341 H 0.5746 0.30357 0.07152 0.0
C1342 C 0.3754 0.36139 0.08766 0.0
N1343 N 0.40346 0.34348 0.07763 0.0
N1344 N 0.43137 0.35678 0.091 0.0
C1345 C 0.42213 0.38633 0.10763 0.0
C1346 C 0.3859 0.39039 0.10617 0.0
C1347 C 0.33946 0.34825 0.08216 0.0
H1348 H 0.33944 0.31958 0.08349 0.0
H1349 H 0.33029 0.35529 0.05597 0.0
H1350 H 0.32162 0.35864 0.10208 0.0
O1351 O 0.40075 0.27256 0.04334 0.0
O1352 O 0.45314 0.27504 0.06793 0.0
H1353 H 0.44894 0.41252 0.14825 0.0
H1354 H 0.43902 0.43918 0.11157 0.0
C1355 C 0.44751 0.41297 0.1196 0.0
H1356 H 0.47348 0.40788 0.10857 0.0
H1357 H 0.48424 0.35787 0.15163 0.0
O1358 O 0.374 0.33361 0.00866 0.0
C1359 C 0.42714 0.25778 0.05489 0.0
Co1360 Co 0.94491 0.6633 0.57254 0.0
Co1361 Co 0.90328 0.65302 0.51091 0.0
C1362 C 0.97543 0.64556 0.50202 0.0
O1363 O 0.97755 0.65965 0.53149 0.0
O1364 O 0.94658 0.63529 0.49108 0.0
C1365 C 0.97957 0.61718 0.59691 0.0
O1366 O 0.96625 0.60427 0.5685 0.0
C1367 C 0.88469 0.64095 0.4394 0.0
C1368 C 0.83903 0.60755 0.44486 0.0
C1369 C 0.86517 0.61596 0.42176 0.0
N1370 N 0.87202 0.64509 0.4717 0.0
N1371 N 0.84363 0.62623 0.47404 0.0
C1372 C 0.91654 0.65915 0.42714 0.0
H1373 H 0.92779 0.67546 0.44781 0.0
H1374 H 0.93575 0.64029 0.4173 0.0
H1375 H 0.90949 0.67747 0.40638 0.0
C1376 C 0.89359 0.61957 0.60559 0.0
N1377 N 0.90361 0.63748 0.57752 0.0
N1378 N 0.8902 0.62419 0.54962 0.0
C1379 C 0.87355 0.59465 0.55887 0.0
C1380 C 0.87504 0.59059 0.5951 0.0
C1381 C 0.89911 0.63273 0.64152 0.0
H1382 H 0.89782 0.66141 0.64152 0.0
H1383 H 0.92528 0.62566 0.6507 0.0
H1384 H 0.87917 0.62238 0.65937 0.0
O1385 O 0.93789 0.70841 0.58019 0.0
O1386 O 0.91301 0.70596 0.52793 0.0
H1387 H 0.83289 0.56849 0.53211 0.0
H1388 H 0.86955 0.54181 0.54199 0.0
C1389 C 0.86154 0.56802 0.53351 0.0
H1390 H 0.87254 0.5731 0.50752 0.0
H1391 H 0.8295 0.62308 0.49678 0.0
O1392 O 0.97257 0.64738 0.60698 0.0
C1393 C 0.92611 0.72321 0.55391 0.0
Co1394 Co 0.94491 0.31766 0.40843 0.0
Co1395 Co 0.90339 0.32798 0.47009 0.0
C1396 C 0.97548 0.33547 0.47893 0.0
O1397 O 0.97755 0.32129 0.4495 0.0
O1398 O 0.94666 0.34584 0.48986 0.0
C1399 C 0.97959 0.3638 0.38411 0.0
O1400 O 0.96623 0.3767 0.41251 0.0
C1401 C 0.88482 0.34003 0.5416 0.0
C1402 C 0.83911 0.37336 0.53615 0.0
C1403 C 0.86526 0.36499 0.55925 0.0
N1404 N 0.87215 0.33586 0.50931 0.0
N1405 N 0.84373 0.35469 0.50698 0.0
C1406 C 0.9167 0.32189 0.55386 0.0
H1407 H 0.92799 0.30562 0.53317 0.0
H1408 H 0.93588 0.34079 0.5637 0.0
H1409 H 0.9097 0.30354 0.5746 0.0
C1410 C 0.89357 0.36136 0.3754 0.0
N1411 N 0.9036 0.34346 0.40346 0.0
N1412 N 0.89022 0.35675 0.43137 0.0
C1413 C 0.87357 0.38629 0.42213 0.0
C1414 C 0.87504 0.39035 0.38589 0.0
C1415 C 0.89908 0.34822 0.33946 0.0
H1416 H 0.89776 0.31954 0.33945 0.0
H1417 H 0.92527 0.35527 0.3303 0.0
H1418 H 0.87916 0.35859 0.32161 0.0
O1419 O 0.93792 0.27255 0.40075 0.0
O1420 O 0.91331 0.27503 0.45314 0.0
H1421 H 0.83294 0.41246 0.44892 0.0
H1422 H 0.8696 0.43914 0.43901 0.0
C1423 C 0.86159 0.41293 0.4475 0.0
H1424 H 0.87262 0.40785 0.47347 0.0
H1425 H 0.82959 0.35782 0.48423 0.0
O1426 O 0.97258 0.33362 0.37401 0.0
C1427 C 0.92636 0.25777 0.42714 0.0
Co1428 Co 0.66336 0.9449 0.40843 0.0
Co1429 Co 0.65304 0.90338 0.47008 0.0
C1430 C 0.64555 0.97547 0.47893 0.0
O1431 O 0.65974 0.97754 0.4495 0.0
O1432 O 0.63519 0.94665 0.48986 0.0
C1433 C 0.61722 0.97958 0.38411 0.0
O1434 O 0.60432 0.96622 0.41251 0.0
C1435 C 0.64099 0.88481 0.5416 0.0
C1436 C 0.60766 0.8391 0.53615 0.0
C1437 C 0.61603 0.86526 0.55925 0.0
N1438 N 0.64516 0.87214 0.50931 0.0
N1439 N 0.62633 0.84372 0.50698 0.0
C1440 C 0.65913 0.9167 0.55385 0.0
H1441 H 0.6754 0.92798 0.53317 0.0
H1442 H 0.64023 0.93587 0.5637 0.0
H1443 H 0.67748 0.9097 0.5746 0.0
C1444 C 0.61966 0.89356 0.3754 0.0
N1445 N 0.63756 0.90359 0.40346 0.0
N1446 N 0.62427 0.89021 0.43137 0.0
C1447 C 0.59472 0.87356 0.42213 0.0
C1448 C 0.59067 0.87503 0.38589 0.0
C1449 C 0.6328 0.89907 0.33946 0.0
H1450 H 0.66147 0.89775 0.33945 0.0
H1451 H 0.62575 0.92526 0.33029 0.0
H1452 H 0.62243 0.87915 0.32161 0.0
O1453 O 0.70847 0.9379 0.40075 0.0
O1454 O 0.70599 0.9133 0.45314 0.0
H1455 H 0.56855 0.83293 0.44892 0.0
H1456 H 0.54188 0.86959 0.43901 0.0
C1457 C 0.56809 0.86158 0.4475 0.0
H1458 H 0.57317 0.87261 0.47347 0.0
H1459 H 0.6232 0.82958 0.48423 0.0
O1460 O 0.6474 0.97256 0.37401 0.0
C1461 C 0.72326 0.92635 0.42714 0.0
Co1462 Co 0.03617 0.66335 0.40842 0.0
Co1463 Co 0.07766 0.65302 0.47009 0.0
C1464 C 0.00558 0.64553 0.47891 0.0
O1465 O 0.00352 0.65973 0.44948 0.0
O1466 O 0.03439 0.63515 0.48984 0.0
C1467 C 0.00148 0.61722 0.3841 0.0
O1468 O 0.01484 0.60431 0.4125 0.0
C1469 C 0.09621 0.64096 0.54161 0.0
C1470 C 0.14193 0.60764 0.53617 0.0
C1471 C 0.11577 0.61601 0.55927 0.0
N1472 N 0.10889 0.64513 0.50932 0.0
N1473 N 0.13732 0.62631 0.507 0.0
C1474 C 0.06432 0.6591 0.55386 0.0
H1475 H 0.05304 0.67536 0.53317 0.0
H1476 H 0.04515 0.64019 0.5637 0.0
H1477 H 0.07131 0.67745 0.5746 0.0
C1478 C 0.08752 0.61965 0.3754 0.0
N1479 N 0.07748 0.63755 0.40346 0.0
N1480 N 0.09085 0.62425 0.43137 0.0
C1481 C 0.10749 0.59471 0.42213 0.0
C1482 C 0.10604 0.59066 0.38589 0.0
C1483 C 0.08201 0.6328 0.33946 0.0
H1484 H 0.08334 0.66147 0.33945 0.0
H1485 H 0.05582 0.62575 0.33029 0.0
H1486 H 0.10193 0.62242 0.32161 0.0
O1487 O 0.04317 0.70846 0.40074 0.0
O1488 O 0.06773 0.70597 0.45315 0.0
H1489 H 0.14811 0.56853 0.44893 0.0
H1490 H 0.11145 0.54186 0.439 0.0
C1491 C 0.11947 0.56807 0.4475 0.0
H1492 H 0.10843 0.57315 0.47347 0.0
H1493 H 0.15146 0.62317 0.48425 0.0
O1494 O 0.00851 0.6474 0.374 0.0
C1495 C 0.05469 0.72324 0.42715 0.0
Co1496 Co 0.31766 0.03614 0.40843 0.0
Co1497 Co 0.32798 0.07764 0.47009 0.0
C1498 C 0.33548 0.00555 0.47892 0.0
O1499 O 0.32129 0.00349 0.44949 0.0
O1500 O 0.34585 0.03437 0.48985 0.0
C1501 C 0.3638 0.00146 0.3841 0.0
O1502 O 0.3767 0.01482 0.4125 0.0
C1503 C 0.34004 0.0962 0.54161 0.0
C1504 C 0.37336 0.14191 0.53617 0.0
C1505 C 0.36499 0.11575 0.55927 0.0
N1506 N 0.33587 0.10887 0.50932 0.0
N1507 N 0.35469 0.1373 0.50699 0.0
C1508 C 0.3219 0.06431 0.55386 0.0
H1509 H 0.30564 0.05302 0.53318 0.0
H1510 H 0.34081 0.04514 0.56371 0.0
H1511 H 0.30355 0.0713 0.57461 0.0
C1512 C 0.36136 0.08749 0.3754 0.0
N1513 N 0.34345 0.07745 0.40346 0.0
N1514 N 0.35675 0.09082 0.43138 0.0
C1515 C 0.38629 0.10747 0.42213 0.0
C1516 C 0.39035 0.10601 0.3859 0.0
C1517 C 0.34821 0.08198 0.33947 0.0
H1518 H 0.31954 0.0833 0.33945 0.0
H1519 H 0.35526 0.05579 0.33029 0.0
H1520 H 0.35859 0.1019 0.32162 0.0
O1521 O 0.27255 0.04313 0.40076 0.0
O1522 O 0.27503 0.0677 0.45316 0.0
H1523 H 0.41247 0.14809 0.44894 0.0
H1524 H 0.43914 0.11143 0.43901 0.0
C1525 C 0.41293 0.11944 0.44751 0.0
H1526 H 0.40785 0.10841 0.47348 0.0
H1527 H 0.35782 0.15144 0.48425 0.0
O1528 O 0.33361 0.00848 0.374 0.0
C1529 C 0.25777 0.05466 0.42716 0.0
Co1530 Co 0.03614 0.3177 0.57256 0.0
Co1531 Co 0.07777 0.328 0.51093 0.0
C1532 C 0.00562 0.33546 0.50204 0.0
O1533 O 0.00351 0.32134 0.53151 0.0
O1534 O 0.03447 0.34574 0.4911 0.0
C1535 C 0.00147 0.36381 0.59693 0.0
O1536 O 0.0148 0.37673 0.56852 0.0
C1537 C 0.09635 0.34008 0.43942 0.0
C1538 C 0.14202 0.37347 0.44488 0.0
C1539 C 0.11588 0.36506 0.42177 0.0
N1540 N 0.10902 0.33593 0.47171 0.0
N1541 N 0.13742 0.35479 0.47405 0.0
C1542 C 0.06451 0.32187 0.42715 0.0
H1543 H 0.05326 0.30557 0.44783 0.0
H1544 H 0.04529 0.34074 0.41731 0.0
H1545 H 0.07155 0.30355 0.4064 0.0
C1546 C 0.08746 0.36143 0.60561 0.0
N1547 N 0.07744 0.34353 0.57754 0.0
N1548 N 0.09085 0.35682 0.54964 0.0
C1549 C 0.10749 0.38636 0.5589 0.0
C1550 C 0.106 0.39042 0.59513 0.0
C1551 C 0.08194 0.34827 0.64154 0.0
H1552 H 0.08324 0.3196 0.64154 0.0
H1553 H 0.05576 0.35533 0.65072 0.0
H1554 H 0.10187 0.35862 0.65939 0.0
O1555 O 0.04317 0.27259 0.5802 0.0
O1556 O 0.06802 0.27505 0.52793 0.0
H1557 H 0.14815 0.41253 0.53214 0.0
H1558 H 0.11149 0.4392 0.54202 0.0
C1559 C 0.1195 0.41299 0.53354 0.0
H1560 H 0.1085 0.40791 0.50755 0.0
H1561 H 0.15155 0.35794 0.4968 0.0
O1562 O 0.00848 0.33362 0.607 0.0
C1563 C 0.05493 0.2578 0.55391 0.0
Co1564 Co 0.66332 0.03614 0.57255 0.0
Co1565 Co 0.65302 0.07776 0.51092 0.0
C1566 C 0.64557 0.00561 0.50204 0.0
O1567 O 0.65968 0.0035 0.5315 0.0
O1568 O 0.63528 0.03446 0.4911 0.0
C1569 C 0.61721 0.00147 0.59693 0.0
O1570 O 0.6043 0.0148 0.56852 0.0
C1571 C 0.64094 0.09634 0.43941 0.0
C1572 C 0.60755 0.142 0.44487 0.0
C1573 C 0.61596 0.11586 0.42177 0.0
N1574 N 0.64509 0.10901 0.47171 0.0
N1575 N 0.62623 0.13741 0.47404 0.0
C1576 C 0.65915 0.0645 0.42715 0.0
H1577 H 0.67546 0.05325 0.44782 0.0
H1578 H 0.64028 0.04528 0.41731 0.0
H1579 H 0.67747 0.07154 0.40639 0.0
C1580 C 0.61959 0.08745 0.6056 0.0
N1581 N 0.63749 0.07744 0.57753 0.0
N1582 N 0.6242 0.09084 0.54963 0.0
C1583 C 0.59466 0.10748 0.55889 0.0
C1584 C 0.5906 0.10599 0.59512 0.0
C1585 C 0.63274 0.08193 0.64153 0.0
H1586 H 0.66142 0.08324 0.64154 0.0
H1587 H 0.62568 0.05576 0.65071 0.0
H1588 H 0.62239 0.10187 0.65938 0.0
O1589 O 0.70843 0.04317 0.5802 0.0
O1590 O 0.70597 0.06802 0.52792 0.0
H1591 H 0.56849 0.14814 0.53212 0.0
H1592 H 0.54181 0.11147 0.54201 0.0
C1593 C 0.56802 0.11949 0.53352 0.0
H1594 H 0.5731 0.10848 0.50754 0.0
H1595 H 0.62308 0.15153 0.49679 0.0
O1596 O 0.6474 0.00847 0.60699 0.0
C1597 C 0.72323 0.05493 0.5539 0.0
Co1598 Co 0.31771 0.94489 0.57254 0.0
Co1599 Co 0.32799 0.90326 0.51091 0.0
C1600 C 0.33546 0.97541 0.50203 0.0
O1601 O 0.32136 0.97752 0.5315 0.0
O1602 O 0.34573 0.94656 0.49108 0.0
C1603 C 0.36383 0.97955 0.59692 0.0
O1604 O 0.37674 0.96622 0.56851 0.0
C1605 C 0.34006 0.88468 0.4394 0.0
C1606 C 0.37346 0.83902 0.44486 0.0
C1607 C 0.36505 0.86515 0.42175 0.0
N1608 N 0.33592 0.872 0.47169 0.0
N1609 N 0.35478 0.84361 0.47403 0.0
C1610 C 0.32186 0.91652 0.42713 0.0
H1611 H 0.30555 0.92777 0.44781 0.0
H1612 H 0.34073 0.93574 0.4173 0.0
H1613 H 0.30354 0.90948 0.40638 0.0
C1614 C 0.36144 0.89356 0.60559 0.0
N1615 N 0.34353 0.90358 0.57752 0.0
N1616 N 0.35682 0.89018 0.54962 0.0
C1617 C 0.38636 0.87353 0.55887 0.0
C1618 C 0.39042 0.87502 0.5951 0.0
C1619 C 0.34828 0.89908 0.64152 0.0
H1620 H 0.3196 0.89778 0.64152 0.0
H1621 H 0.35534 0.92525 0.6507 0.0
H1622 H 0.35863 0.87914 0.65936 0.0
O1623 O 0.2726 0.93787 0.58018 0.0
O1624 O 0.27504 0.913 0.52792 0.0
H1625 H 0.41252 0.83288 0.5321 0.0
H1626 H 0.4392 0.86954 0.54199 0.0
C1627 C 0.41299 0.86152 0.5335 0.0
H1628 H 0.40791 0.87253 0.50752 0.0
H1629 H 0.35793 0.82948 0.49678 0.0
O1630 O 0.33363 0.97254 0.60699 0.0
C1631 C 0.25779 0.9261 0.5539 0.0
loop_
_geom_bond_atom_site_label_1
_geom_bond_atom_site_label_2
_geom_bond_distance
_geom_bond_site_symmetry_2
_ccdc_geom_bond_type
Co0 O3 1.970 . S
Co0 N17 1.989 . S
Co0 O25 1.967 . S
Co0 O32 1.920 . S
Co1 O4 1.966 . S
Co1 N10 2.022 1_455 S
Co1 N18 1.993 . S
Co1 O26 1.941 . S
C2 O3 1.258 . S
C2 O4 1.263 . S
O3 Co0 1.970 . S
O3 C2 1.258 . S
O4 Co1 1.966 . S
O4 C2 1.263 . S
C5 O6 1.235 . S
C5 O32 1.289 . S
O6 C5 1.235 . S
C7 C9 1.400 . S
C7 N10 1.351 . S
C7 C12 1.501 . S
C8 C9 1.387 . S
C8 N11 1.341 . S
C9 C7 1.400 . S
C9 C8 1.387 . S
N10 Co1 2.022 1_655 S
N10 C7 1.351 . S
N10 N11 1.365 . S
N11 C8 1.341 . S
N11 N10 1.365 . S
N11 H31 0.862 1_655 S
C12 C7 1.501 . S
C12 H13 0.961 . S
C12 H14 0.961 . S
C12 H15 0.960 . S
H13 C12 0.961 . S
H14 C12 0.961 . S
H15 C12 0.960 . S
C16 N17 1.342 . S
C16 C20 1.401 . S
C16 C21 1.499 . S
N17 Co0 1.989 . S
N17 C16 1.342 . S
N17 N18 1.388 . S
N18 Co1 1.993 . S
N18 N17 1.388 . S
N18 C19 1.346 . S
C19 N18 1.346 . S
C19 C20 1.396 . S
C19 C29 1.510 . S
C20 C16 1.401 . S
C20 C19 1.396 . S
C21 C16 1.499 . S
C21 H22 0.959 . S
C21 H23 0.960 . S
C21 H24 0.961 . S
H22 C21 0.959 . S
H23 C21 0.960 . S
H24 C21 0.961 . S
O25 Co0 1.967 . S
O25 C33 1.258 . S
O26 Co1 1.941 . S
O26 C33 1.266 . S
H27 C29 0.959 . S
H28 C29 0.961 . S
C29 C19 1.510 . S
C29 H27 0.959 . S
C29 H28 0.961 . S
C29 H30 0.960 . S
H30 C29 0.960 . S
H31 N11 0.862 1_455 S
O32 Co0 1.920 . S
O32 C5 1.289 . S
C33 O25 1.258 . S
C33 O26 1.266 . S
Co34 O37 1.970 . S
Co34 N51 1.989 . S
Co34 O59 1.967 . S
Co34 O66 1.920 . S
Co35 O38 1.966 . S
Co35 N44 2.022 1_545 S
Co35 N52 1.993 . S
Co35 O60 1.941 . S
C36 O37 1.258 . S
C36 O38 1.263 . S
O37 Co34 1.970 . S
O37 C36 1.258 . S
O38 Co35 1.966 . S
O38 C36 1.263 . S
C39 O40 1.235 . S
C39 O66 1.289 . S
O40 C39 1.235 . S
C41 C43 1.400 . S
C41 N44 1.351 . S
C41 C46 1.501 . S
C42 C43 1.387 . S
C42 N45 1.341 . S
C43 C41 1.400 . S
C43 C42 1.387 . S
N44 Co35 2.022 1_565 S
N44 C41 1.351 . S
N44 N45 1.365 . S
N45 C42 1.341 . S
N45 N44 1.365 . S
N45 H65 0.862 1_565 S
C46 C41 1.501 . S
C46 H47 0.961 . S
C46 H48 0.961 . S
C46 H49 0.960 . S
H47 C46 0.961 . S
H48 C46 0.961 . S
H49 C46 0.960 . S
C50 N51 1.342 . S
C50 C54 1.401 . S
C50 C55 1.499 . S
N51 Co34 1.989 . S
N51 C50 1.342 . S
N51 N52 1.388 . S
N52 Co35 1.993 . S
N52 N51 1.388 . S
N52 C53 1.346 . S
C53 N52 1.346 . S
C53 C54 1.396 . S
C53 C63 1.510 . S
C54 C50 1.401 . S
C54 C53 1.396 . S
C55 C50 1.499 . S
C55 H56 0.959 . S
C55 H57 0.960 . S
C55 H58 0.961 . S
H56 C55 0.959 . S
H57 C55 0.960 . S
H58 C55 0.961 . S
O59 Co34 1.967 . S
O59 C67 1.258 . S
O60 Co35 1.941 . S
O60 C67 1.266 . S
H61 C63 0.959 . S
H62 C63 0.961 . S
C63 C53 1.510 . S
C63 H61 0.959 . S
C63 H62 0.961 . S
C63 H64 0.960 . S
H64 C63 0.960 . S
H65 N45 0.862 1_545 S
O66 Co34 1.920 . S
O66 C39 1.289 . S
C67 O59 1.258 . S
C67 O60 1.266 . S
Co68 O71 1.970 . S
Co68 N85 1.989 . S
Co68 O93 1.967 . S
Co68 O100 1.920 . S
Co69 O72 1.966 . S
Co69 N78 2.022 1_655 S
Co69 N86 1.993 . S
Co69 O94 1.941 . S
C70 O71 1.258 . S
C70 O72 1.263 . S
O71 Co68 1.970 . S
O71 C70 1.258 . S
O72 Co69 1.966 . S
O72 C70 1.263 . S
C73 O74 1.235 . S
C73 O100 1.289 . S
O74 C73 1.235 . S
C75 C77 1.400 . S
C75 N78 1.351 . S
C75 C80 1.501 . S
C76 C77 1.387 . S
C76 N79 1.341 . S
C77 C75 1.400 . S
C77 C76 1.387 . S
N78 Co69 2.022 1_455 S
N78 C75 1.351 . S
N78 N79 1.365 . S
N79 C76 1.341 . S
N79 N78 1.365 . S
N79 H99 0.862 1_455 S
C80 C75 1.501 . S
C80 H81 0.961 . S
C80 H82 0.961 . S
C80 H83 0.960 . S
H81 C80 0.961 . S
H82 C80 0.961 . S
H83 C80 0.960 . S
C84 N85 1.342 . S
C84 C88 1.401 . S
C84 C89 1.499 . S
N85 Co68 1.989 . S
N85 C84 1.342 . S
N85 N86 1.388 . S
N86 Co69 1.993 . S
N86 N85 1.388 . S
N86 C87 1.346 . S
C87 N86 1.346 . S
C87 C88 1.396 . S
C87 C97 1.510 . S
C88 C84 1.401 . S
C88 C87 1.396 . S
C89 C84 1.499 . S
C89 H90 0.959 . S
C89 H91 0.960 . S
C89 H92 0.961 . S
H90 C89 0.959 . S
H91 C89 0.960 . S
H92 C89 0.961 . S
O93 Co68 1.967 . S
O93 C101 1.258 . S
O94 Co69 1.941 . S
O94 C101 1.266 . S
H95 C97 0.959 . S
H96 C97 0.961 . S
C97 C87 1.510 . S
C97 H95 0.959 . S
C97 H96 0.961 . S
C97 H98 0.960 . S
H98 C97 0.960 . S
H99 N79 0.862 1_655 S
O100 Co68 1.920 . S
O100 C73 1.289 . S
C101 O93 1.258 . S
C101 O94 1.266 . S
Co102 O105 1.970 . S
Co102 N119 1.989 . S
Co102 O127 1.967 . S
Co102 O134 1.920 . S
Co103 O106 1.966 . S
Co103 N112 2.022 1_565 S
Co103 N120 1.993 . S
Co103 O128 1.941 . S
C104 O105 1.258 . S
C104 O106 1.263 . S
O105 Co102 1.970 . S
O105 C104 1.258 . S
O106 Co103 1.966 . S
O106 C104 1.263 . S
C107 O108 1.235 . S
C107 O134 1.289 . S
O108 C107 1.235 . S
C109 C111 1.400 . S
C109 N112 1.351 . S
C109 C114 1.501 . S
C110 C111 1.387 . S
C110 N113 1.341 . S
C111 C109 1.400 . S
C111 C110 1.387 . S
N112 Co103 2.022 1_545 S
N112 C109 1.351 . S
N112 N113 1.365 . S
N113 C110 1.341 . S
N113 N112 1.365 . S
N113 H133 0.862 1_545 S
C114 C109 1.501 . S
C114 H115 0.961 . S
C114 H116 0.961 . S
C114 H117 0.960 . S
H115 C114 0.961 . S
H116 C114 0.961 . S
H117 C114 0.960 . S
C118 N119 1.342 . S
C118 C122 1.401 . S
C118 C123 1.499 . S
N119 Co102 1.989 . S
N119 C118 1.342 . S
N119 N120 1.388 . S
N120 Co103 1.993 . S
N120 N119 1.388 . S
N120 C121 1.346 . S
C121 N120 1.346 . S
C121 C122 1.396 . S
C121 C131 1.510 . S
C122 C118 1.401 . S
C122 C121 1.396 . S
C123 C118 1.499 . S
C123 H124 0.959 . S
C123 H125 0.960 . S
C123 H126 0.961 . S
H124 C123 0.959 . S
H125 C123 0.960 . S
H126 C123 0.961 . S
O127 Co102 1.967 . S
O127 C135 1.258 . S
O128 Co103 1.941 . S
O128 C135 1.266 . S
H129 C131 0.959 . S
H130 C131 0.961 . S
C131 C121 1.510 . S
C131 H129 0.959 . S
C131 H130 0.961 . S
C131 H132 0.960 . S
H132 C131 0.960 . S
H133 N113 0.862 1_565 S
O134 Co102 1.920 . S
O134 C107 1.289 . S
C135 O127 1.258 . S
C135 O128 1.266 . S
Co136 O139 1.970 . S
Co136 N153 1.989 . S
Co136 O161 1.967 . S
Co136 O168 1.920 . S
Co137 O140 1.966 . S
Co137 N146 2.022 1_455 S
Co137 N154 1.993 . S
Co137 O162 1.941 . S
C138 O139 1.258 . S
C138 O140 1.263 . S
O139 Co136 1.970 . S
O139 C138 1.258 . S
O140 Co137 1.966 . S
O140 C138 1.263 . S
C141 O142 1.235 . S
C141 O168 1.289 . S
O142 C141 1.235 . S
C143 C145 1.400 . S
C143 N146 1.351 . S
C143 C148 1.501 . S
C144 C145 1.387 . S
C144 N147 1.341 . S
C145 C143 1.400 . S
C145 C144 1.387 . S
N146 Co137 2.022 1_655 S
N146 C143 1.351 . S
N146 N147 1.365 . S
N147 C144 1.341 . S
N147 N146 1.365 . S
N147 H167 0.862 1_655 S
C148 C143 1.501 . S
C148 H149 0.961 . S
C148 H150 0.961 . S
C148 H151 0.960 . S
H149 C148 0.961 . S
H150 C148 0.961 . S
H151 C148 0.960 . S
C152 N153 1.342 . S
C152 C156 1.401 . S
C152 C157 1.499 . S
N153 Co136 1.989 . S
N153 C152 1.342 . S
N153 N154 1.388 . S
N154 Co137 1.993 . S
N154 N153 1.388 . S
N154 C155 1.346 . S
C155 N154 1.346 . S
C155 C156 1.396 . S
C155 C165 1.510 . S
C156 C152 1.401 . S
C156 C155 1.396 . S
C157 C152 1.499 . S
C157 H158 0.959 . S
C157 H159 0.960 . S
C157 H160 0.961 . S
H158 C157 0.959 . S
H159 C157 0.960 . S
H160 C157 0.961 . S
O161 Co136 1.967 . S
O161 C169 1.258 . S
O162 Co137 1.941 . S
O162 C169 1.266 . S
H163 C165 0.959 . S
H164 C165 0.961 . S
C165 C155 1.510 . S
C165 H163 0.959 . S
C165 H164 0.961 . S
C165 H166 0.960 . S
H166 C165 0.960 . S
H167 N147 0.862 1_455 S
O168 Co136 1.920 . S
O168 C141 1.289 . S
C169 O161 1.258 . S
C169 O162 1.266 . S
Co170 O173 1.970 . S
Co170 N187 1.989 . S
Co170 O195 1.967 . S
Co170 O202 1.920 . S
Co171 O174 1.966 . S
Co171 N180 2.022 1_545 S
Co171 N188 1.993 . S
Co171 O196 1.941 . S
C172 O173 1.258 . S
C172 O174 1.263 . S
O173 Co170 1.970 . S
O173 C172 1.258 . S
O174 Co171 1.966 . S
O174 C172 1.263 . S
C175 O176 1.235 . S
C175 O202 1.289 . S
O176 C175 1.235 . S
C177 C179 1.400 . S
C177 N180 1.351 . S
C177 C182 1.501 . S
C178 C179 1.387 . S
C178 N181 1.341 . S
C179 C177 1.400 . S
C179 C178 1.387 . S
N180 Co171 2.022 1_565 S
N180 C177 1.351 . S
N180 N181 1.365 . S
N181 C178 1.341 . S
N181 N180 1.365 . S
N181 H201 0.862 1_565 S
C182 C177 1.501 . S
C182 H183 0.961 . S
C182 H184 0.961 . S
C182 H185 0.960 . S
H183 C182 0.961 . S
H184 C182 0.961 . S
H185 C182 0.960 . S
C186 N187 1.342 . S
C186 C190 1.401 . S
C186 C191 1.499 . S
N187 Co170 1.989 . S
N187 C186 1.342 . S
N187 N188 1.388 . S
N188 Co171 1.993 . S
N188 N187 1.388 . S
N188 C189 1.346 . S
C189 N188 1.346 . S
C189 C190 1.396 . S
C189 C199 1.510 . S
C190 C186 1.401 . S
C190 C189 1.396 . S
C191 C186 1.499 . S
C191 H192 0.959 . S
C191 H193 0.960 . S
C191 H194 0.961 . S
H192 C191 0.959 . S
H193 C191 0.960 . S
H194 C191 0.961 . S
O195 Co170 1.967 . S
O195 C203 1.258 . S
O196 Co171 1.941 . S
O196 C203 1.266 . S
H197 C199 0.959 . S
H198 C199 0.961 . S
C199 C189 1.510 . S
C199 H197 0.959 . S
C199 H198 0.961 . S
C199 H200 0.960 . S
H200 C199 0.960 . S
H201 N181 0.862 1_545 S
O202 Co170 1.920 . S
O202 C175 1.289 . S
C203 O195 1.258 . S
C203 O196 1.266 . S
Co204 O207 1.970 . S
Co204 N221 1.989 . S
Co204 O229 1.967 . S
Co204 O236 1.920 . S
Co205 O208 1.966 . S
Co205 N214 2.022 1_655 S
Co205 N222 1.993 . S
Co205 O230 1.941 . S
C206 O207 1.258 . S
C206 O208 1.263 . S
O207 Co204 1.970 . S
O207 C206 1.258 . S
O208 Co205 1.966 . S
O208 C206 1.263 . S
C209 O210 1.235 . S
C209 O236 1.289 . S
O210 C209 1.235 . S
C211 C213 1.400 . S
C211 N214 1.351 . S
C211 C216 1.501 . S
C212 C213 1.387 . S
C212 N215 1.341 . S
C213 C211 1.400 . S
C213 C212 1.387 . S
N214 Co205 2.022 1_455 S
N214 C211 1.351 . S
N214 N215 1.365 . S
N215 C212 1.341 . S
N215 N214 1.365 . S
N215 H235 0.862 1_455 S
C216 C211 1.501 . S
C216 H217 0.961 . S
C216 H218 0.961 . S
C216 H219 0.960 . S
H217 C216 0.961 . S
H218 C216 0.961 . S
H219 C216 0.960 . S
C220 N221 1.342 . S
C220 C224 1.401 . S
C220 C225 1.499 . S
N221 Co204 1.989 . S
N221 C220 1.342 . S
N221 N222 1.388 . S
N222 Co205 1.993 . S
N222 N221 1.388 . S
N222 C223 1.346 . S
C223 N222 1.346 . S
C223 C224 1.396 . S
C223 C233 1.510 . S
C224 C220 1.401 . S
C224 C223 1.396 . S
C225 C220 1.499 . S
C225 H226 0.959 . S
C225 H227 0.960 . S
C225 H228 0.961 . S
H226 C225 0.959 . S
H227 C225 0.960 . S
H228 C225 0.961 . S
O229 Co204 1.967 . S
O229 C237 1.258 . S
O230 Co205 1.941 . S
O230 C237 1.266 . S
H231 C233 0.959 . S
H232 C233 0.961 . S
C233 C223 1.510 . S
C233 H231 0.959 . S
C233 H232 0.961 . S
C233 H234 0.960 . S
H234 C233 0.960 . S
H235 N215 0.862 1_655 S
O236 Co204 1.920 . S
O236 C209 1.289 . S
C237 O229 1.258 . S
C237 O230 1.266 . S
Co238 O241 1.970 . S
Co238 N255 1.989 . S
Co238 O263 1.967 . S
Co238 O270 1.920 . S
Co239 O242 1.966 . S
Co239 N248 2.022 1_565 S
Co239 N256 1.993 . S
Co239 O264 1.941 . S
C240 O241 1.258 . S
C240 O242 1.263 . S
O241 Co238 1.970 . S
O241 C240 1.258 . S
O242 Co239 1.966 . S
O242 C240 1.263 . S
C243 O244 1.235 . S
C243 O270 1.289 . S
O244 C243 1.235 . S
C245 C247 1.400 . S
C245 N248 1.351 . S
C245 C250 1.501 . S
C246 C247 1.387 . S
C246 N249 1.341 . S
C247 C245 1.400 . S
C247 C246 1.387 . S
N248 Co239 2.022 1_545 S
N248 C245 1.351 . S
N248 N249 1.365 . S
N249 C246 1.341 . S
N249 N248 1.365 . S
N249 H269 0.862 1_545 S
C250 C245 1.501 . S
C250 H251 0.961 . S
C250 H252 0.961 . S
C250 H253 0.960 . S
H251 C250 0.961 . S
H252 C250 0.961 . S
H253 C250 0.960 . S
C254 N255 1.342 . S
C254 C258 1.401 . S
C254 C259 1.499 . S
N255 Co238 1.989 . S
N255 C254 1.342 . S
N255 N256 1.388 . S
N256 Co239 1.993 . S
N256 N255 1.388 . S
N256 C257 1.346 . S
C257 N256 1.346 . S
C257 C258 1.396 . S
C257 C267 1.510 . S
C258 C254 1.401 . S
C258 C257 1.396 . S
C259 C254 1.499 . S
C259 H260 0.959 . S
C259 H261 0.960 . S
C259 H262 0.961 . S
H260 C259 0.959 . S
H261 C259 0.960 . S
H262 C259 0.961 . S
O263 Co238 1.967 . S
O263 C271 1.258 . S
O264 Co239 1.941 . S
O264 C271 1.266 . S
H265 C267 0.959 . S
H266 C267 0.961 . S
C267 C257 1.510 . S
C267 H265 0.959 . S
C267 H266 0.961 . S
C267 H268 0.960 . S
H268 C267 0.960 . S
H269 N249 0.862 1_565 S
O270 Co238 1.920 . S
O270 C243 1.289 . S
C271 O263 1.258 . S
C271 O264 1.266 . S
Co272 O275 1.970 . S
Co272 N289 1.989 . S
Co272 O297 1.967 . S
Co272 O304 1.920 . S
Co273 O276 1.966 . S
Co273 N282 2.022 1_545 S
Co273 N290 1.993 . S
Co273 O298 1.941 . S
C274 O275 1.258 . S
C274 O276 1.263 . S
O275 Co272 1.970 . S
O275 C274 1.258 . S
O276 Co273 1.966 . S
O276 C274 1.263 . S
C277 O278 1.235 . S
C277 O304 1.289 . S
O278 C277 1.235 . S
C279 C281 1.400 . S
C279 N282 1.351 . S
C279 C284 1.501 . S
C280 C281 1.387 . S
C280 N283 1.341 . S
C281 C279 1.400 . S
C281 C280 1.387 . S
N282 Co273 2.022 1_565 S
N282 C279 1.351 . S
N282 N283 1.365 . S
N283 C280 1.341 . S
N283 N282 1.365 . S
N283 H303 0.862 1_565 S
C284 C279 1.501 . S
C284 H285 0.961 . S
C284 H286 0.961 . S
C284 H287 0.960 . S
H285 C284 0.961 . S
H286 C284 0.961 . S
H287 C284 0.960 . S
C288 N289 1.342 . S
C288 C292 1.401 . S
C288 C293 1.499 . S
N289 Co272 1.989 . S
N289 C288 1.342 . S
N289 N290 1.388 . S
N290 Co273 1.993 . S
N290 N289 1.388 . S
N290 C291 1.346 . S
C291 N290 1.346 . S
C291 C292 1.396 . S
C291 C301 1.510 . S
C292 C288 1.401 . S
C292 C291 1.396 . S
C293 C288 1.499 . S
C293 H294 0.959 . S
C293 H295 0.960 . S
C293 H296 0.961 . S
H294 C293 0.959 . S
H295 C293 0.960 . S
H296 C293 0.961 . S
O297 Co272 1.967 . S
O297 C305 1.258 . S
O298 Co273 1.941 . S
O298 C305 1.266 . S
H299 C301 0.959 . S
H300 C301 0.961 . S
C301 C291 1.510 . S
C301 H299 0.959 . S
C301 H300 0.961 . S
C301 H302 0.960 . S
H302 C301 0.960 . S
H303 N283 0.862 1_545 S
O304 Co272 1.920 . S
O304 C277 1.289 . S
C305 O297 1.258 . S
C305 O298 1.266 . S
Co306 O309 1.970 . S
Co306 N323 1.989 . S
Co306 O331 1.967 . S
Co306 O338 1.920 . S
Co307 O310 1.966 . S
Co307 N316 2.022 1_655 S
Co307 N324 1.993 . S
Co307 O332 1.941 . S
C308 O309 1.258 . S
C308 O310 1.263 . S
O309 Co306 1.970 . S
O309 C308 1.258 . S
O310 Co307 1.966 . S
O310 C308 1.263 . S
C311 O312 1.235 . S
C311 O338 1.289 . S
O312 C311 1.235 . S
C313 C315 1.400 . S
C313 N316 1.351 . S
C313 C318 1.501 . S
C314 C315 1.387 . S
C314 N317 1.341 . S
C315 C313 1.400 . S
C315 C314 1.387 . S
N316 Co307 2.022 1_455 S
N316 C313 1.351 . S
N316 N317 1.365 . S
N317 C314 1.341 . S
N317 N316 1.365 . S
N317 H337 0.862 1_455 S
C318 C313 1.501 . S
C318 H319 0.961 . S
C318 H320 0.961 . S
C318 H321 0.960 . S
H319 C318 0.961 . S
H320 C318 0.961 . S
H321 C318 0.960 . S
C322 N323 1.342 . S
C322 C326 1.401 . S
C322 C327 1.499 . S
N323 Co306 1.989 . S
N323 C322 1.342 . S
N323 N324 1.388 . S
N324 Co307 1.993 . S
N324 N323 1.388 . S
N324 C325 1.346 . S
C325 N324 1.346 . S
C325 C326 1.396 . S
C325 C335 1.510 . S
C326 C322 1.401 . S
C326 C325 1.396 . S
C327 C322 1.499 . S
C327 H328 0.959 . S
C327 H329 0.960 . S
C327 H330 0.961 . S
H328 C327 0.959 . S
H329 C327 0.960 . S
H330 C327 0.961 . S
O331 Co306 1.967 . S
O331 C339 1.258 . S
O332 Co307 1.941 . S
O332 C339 1.266 . S
H333 C335 0.959 . S
H334 C335 0.961 . S
C335 C325 1.510 . S
C335 H333 0.959 . S
C335 H334 0.961 . S
C335 H336 0.960 . S
H336 C335 0.960 . S
H337 N317 0.862 1_655 S
O338 Co306 1.920 . S
O338 C311 1.289 . S
C339 O331 1.258 . S
C339 O332 1.266 . S
Co340 O343 1.970 . S
Co340 N357 1.989 . S
Co340 O365 1.967 . S
Co340 O372 1.920 . S
Co341 O344 1.966 . S
Co341 N350 2.022 1_565 S
Co341 N358 1.993 . S
Co341 O366 1.941 . S
C342 O343 1.258 . S
C342 O344 1.263 . S
O343 Co340 1.970 . S
O343 C342 1.258 . S
O344 Co341 1.966 . S
O344 C342 1.263 . S
C345 O346 1.235 . S
C345 O372 1.289 . S
O346 C345 1.235 . S
C347 C349 1.400 . S
C347 N350 1.351 . S
C347 C352 1.501 . S
C348 C349 1.387 . S
C348 N351 1.341 . S
C349 C347 1.400 . S
C349 C348 1.387 . S
N350 Co341 2.022 1_545 S
N350 C347 1.351 . S
N350 N351 1.365 . S
N351 C348 1.341 . S
N351 N350 1.365 . S
N351 H371 0.862 1_545 S
C352 C347 1.501 . S
C352 H353 0.961 . S
C352 H354 0.961 . S
C352 H355 0.960 . S
H353 C352 0.961 . S
H354 C352 0.961 . S
H355 C352 0.960 . S
C356 N357 1.342 . S
C356 C360 1.401 . S
C356 C361 1.499 . S
N357 Co340 1.989 . S
N357 C356 1.342 . S
N357 N358 1.388 . S
N358 Co341 1.993 . S
N358 N357 1.388 . S
N358 C359 1.346 . S
C359 N358 1.346 . S
C359 C360 1.396 . S
C359 C369 1.510 . S
C360 C356 1.401 . S
C360 C359 1.396 . S
C361 C356 1.499 . S
C361 H362 0.959 . S
C361 H363 0.960 . S
C361 H364 0.961 . S
H362 C361 0.959 . S
H363 C361 0.960 . S
H364 C361 0.961 . S
O365 Co340 1.967 . S
O365 C373 1.258 . S
O366 Co341 1.941 . S
O366 C373 1.266 . S
H367 C369 0.959 . S
H368 C369 0.961 . S
C369 C359 1.510 . S
C369 H367 0.959 . S
C369 H368 0.961 . S
C369 H370 0.960 . S
H370 C369 0.960 . S
H371 N351 0.862 1_565 S
O372 Co340 1.920 . S
O372 C345 1.289 . S
C373 O365 1.258 . S
C373 O366 1.266 . S
Co374 O377 1.970 . S
Co374 N391 1.989 . S
Co374 O399 1.967 . S
Co374 O406 1.920 . S
Co375 O378 1.966 . S
Co375 N384 2.022 1_455 S
Co375 N392 1.993 . S
Co375 O400 1.941 . S
C376 O377 1.258 . S
C376 O378 1.263 . S
O377 Co374 1.970 . S
O377 C376 1.258 . S
O378 Co375 1.966 . S
O378 C376 1.263 . S
C379 O380 1.235 . S
C379 O406 1.289 . S
O380 C379 1.235 . S
C381 C383 1.400 . S
C381 N384 1.351 . S
C381 C386 1.501 . S
C382 C383 1.387 . S
C382 N385 1.341 . S
C383 C381 1.400 . S
C383 C382 1.387 . S
N384 Co375 2.022 1_655 S
N384 C381 1.351 . S
N384 N385 1.365 . S
N385 C382 1.341 . S
N385 N384 1.365 . S
N385 H405 0.862 1_655 S
C386 C381 1.501 . S
C386 H387 0.961 . S
C386 H388 0.961 . S
C386 H389 0.960 . S
H387 C386 0.961 . S
H388 C386 0.961 . S
H389 C386 0.960 . S
C390 N391 1.342 . S
C390 C394 1.401 . S
C390 C395 1.499 . S
N391 Co374 1.989 . S
N391 C390 1.342 . S
N391 N392 1.388 . S
N392 Co375 1.993 . S
N392 N391 1.388 . S
N392 C393 1.346 . S
C393 N392 1.346 . S
C393 C394 1.396 . S
C393 C403 1.510 . S
C394 C390 1.401 . S
C394 C393 1.396 . S
C395 C390 1.499 . S
C395 H396 0.959 . S
C395 H397 0.960 . S
C395 H398 0.961 . S
H396 C395 0.959 . S
H397 C395 0.960 . S
H398 C395 0.961 . S
O399 Co374 1.967 . S
O399 C407 1.258 . S
O400 Co375 1.941 . S
O400 C407 1.266 . S
H401 C403 0.959 . S
H402 C403 0.961 . S
C403 C393 1.510 . S
C403 H401 0.959 . S
C403 H402 0.961 . S
C403 H404 0.960 . S
H404 C403 0.960 . S
H405 N385 0.862 1_455 S
O406 Co374 1.920 . S
O406 C379 1.289 . S
C407 O399 1.258 . S
C407 O400 1.266 . S
Co408 O411 1.970 . S
Co408 N425 1.989 . S
Co408 O433 1.967 . S
Co408 O440 1.920 . S
Co409 O412 1.966 . S
Co409 N418 2.022 1_565 S
Co409 N426 1.993 . S
Co409 O434 1.941 . S
C410 O411 1.258 . S
C410 O412 1.263 . S
O411 Co408 1.970 . S
O411 C410 1.258 . S
O412 Co409 1.966 . S
O412 C410 1.263 . S
C413 O414 1.235 . S
C413 O440 1.289 . S
O414 C413 1.235 . S
C415 C417 1.400 . S
C415 N418 1.351 . S
C415 C420 1.501 . S
C416 C417 1.387 . S
C416 N419 1.341 . S
C417 C415 1.400 . S
C417 C416 1.387 . S
N418 Co409 2.022 1_545 S
N418 C415 1.351 . S
N418 N419 1.365 . S
N419 C416 1.341 . S
N419 N418 1.365 . S
N419 H439 0.862 1_545 S
C420 C415 1.501 . S
C420 H421 0.961 . S
C420 H422 0.961 . S
C420 H423 0.960 . S
H421 C420 0.961 . S
H422 C420 0.961 . S
H423 C420 0.960 . S
C424 N425 1.342 . S
C424 C428 1.401 . S
C424 C429 1.499 . S
N425 Co408 1.989 . S
N425 C424 1.342 . S
N425 N426 1.388 . S
N426 Co409 1.993 . S
N426 N425 1.388 . S
N426 C427 1.346 . S
C427 N426 1.346 . S
C427 C428 1.396 . S
C427 C437 1.510 . S
C428 C424 1.401 . S
C428 C427 1.396 . S
C429 C424 1.499 . S
C429 H430 0.959 . S
C429 H431 0.960 . S
C429 H432 0.961 . S
H430 C429 0.959 . S
H431 C429 0.960 . S
H432 C429 0.961 . S
O433 Co408 1.967 . S
O433 C441 1.258 . S
O434 Co409 1.941 . S
O434 C441 1.266 . S
H435 C437 0.959 . S
H436 C437 0.961 . S
C437 C427 1.510 . S
C437 H435 0.959 . S
C437 H436 0.961 . S
C437 H438 0.960 . S
H438 C437 0.960 . S
H439 N419 0.862 1_565 S
O440 Co408 1.920 . S
O440 C413 1.289 . S
C441 O433 1.258 . S
C441 O434 1.266 . S
Co442 O445 1.970 . S
Co442 N459 1.989 . S
Co442 O467 1.967 . S
Co442 O474 1.920 . S
Co443 O446 1.966 . S
Co443 N452 2.022 1_455 S
Co443 N460 1.993 . S
Co443 O468 1.941 . S
C444 O445 1.258 . S
C444 O446 1.263 . S
O445 Co442 1.970 . S
O445 C444 1.258 . S
O446 Co443 1.966 . S
O446 C444 1.263 . S
C447 O448 1.235 . S
C447 O474 1.289 . S
O448 C447 1.235 . S
C449 C451 1.400 . S
C449 N452 1.351 . S
C449 C454 1.501 . S
C450 C451 1.387 . S
C450 N453 1.341 . S
C451 C449 1.400 . S
C451 C450 1.387 . S
N452 Co443 2.022 1_655 S
N452 C449 1.351 . S
N452 N453 1.365 . S
N453 C450 1.341 . S
N453 N452 1.365 . S
N453 H473 0.862 1_655 S
C454 C449 1.501 . S
C454 H455 0.961 . S
C454 H456 0.961 . S
C454 H457 0.960 . S
H455 C454 0.961 . S
H456 C454 0.961 . S
H457 C454 0.960 . S
C458 N459 1.342 . S
C458 C462 1.401 . S
C458 C463 1.499 . S
N459 Co442 1.989 . S
N459 C458 1.342 . S
N459 N460 1.388 . S
N460 Co443 1.993 . S
N460 N459 1.388 . S
N460 C461 1.346 . S
C461 N460 1.346 . S
C461 C462 1.396 . S
C461 C471 1.510 . S
C462 C458 1.401 . S
C462 C461 1.396 . S
C463 C458 1.499 . S
C463 H464 0.959 . S
C463 H465 0.960 . S
C463 H466 0.961 . S
H464 C463 0.959 . S
H465 C463 0.960 . S
H466 C463 0.961 . S
O467 Co442 1.967 . S
O467 C475 1.258 . S
O468 Co443 1.941 . S
O468 C475 1.266 . S
H469 C471 0.959 . S
H470 C471 0.961 . S
C471 C461 1.510 . S
C471 H469 0.959 . S
C471 H470 0.961 . S
C471 H472 0.960 . S
H472 C471 0.960 . S
H473 N453 0.862 1_455 S
O474 Co442 1.920 . S
O474 C447 1.289 . S
C475 O467 1.258 . S
C475 O468 1.266 . S
Co476 O479 1.970 . S
Co476 N493 1.989 . S
Co476 O501 1.967 . S
Co476 O508 1.920 . S
Co477 O480 1.966 . S
Co477 N486 2.022 1_545 S
Co477 N494 1.993 . S
Co477 O502 1.941 . S
C478 O479 1.258 . S
C478 O480 1.263 . S
O479 Co476 1.970 . S
O479 C478 1.258 . S
O480 Co477 1.966 . S
O480 C478 1.263 . S
C481 O482 1.235 . S
C481 O508 1.289 . S
O482 C481 1.235 . S
C483 C485 1.400 . S
C483 N486 1.351 . S
C483 C488 1.501 . S
C484 C485 1.387 . S
C484 N487 1.341 . S
C485 C483 1.400 . S
C485 C484 1.387 . S
N486 Co477 2.022 1_565 S
N486 C483 1.351 . S
N486 N487 1.365 . S
N487 C484 1.341 . S
N487 N486 1.365 . S
N487 H507 0.862 1_565 S
C488 C483 1.501 . S
C488 H489 0.961 . S
C488 H490 0.961 . S
C488 H491 0.960 . S
H489 C488 0.961 . S
H490 C488 0.961 . S
H491 C488 0.960 . S
C492 N493 1.342 . S
C492 C496 1.401 . S
C492 C497 1.499 . S
N493 Co476 1.989 . S
N493 C492 1.342 . S
N493 N494 1.388 . S
N494 Co477 1.993 . S
N494 N493 1.388 . S
N494 C495 1.346 . S
C495 N494 1.346 . S
C495 C496 1.396 . S
C495 C505 1.510 . S
C496 C492 1.401 . S
C496 C495 1.396 . S
C497 C492 1.499 . S
C497 H498 0.959 . S
C497 H499 0.960 . S
C497 H500 0.961 . S
H498 C497 0.959 . S
H499 C497 0.960 . S
H500 C497 0.961 . S
O501 Co476 1.967 . S
O501 C509 1.258 . S
O502 Co477 1.941 . S
O502 C509 1.266 . S
H503 C505 0.959 . S
H504 C505 0.961 . S
C505 C495 1.510 . S
C505 H503 0.959 . S
C505 H504 0.961 . S
C505 H506 0.960 . S
H506 C505 0.960 . S
H507 N487 0.862 1_545 S
O508 Co476 1.920 . S
O508 C481 1.289 . S
C509 O501 1.258 . S
C509 O502 1.266 . S
Co510 O513 1.970 . S
Co510 N527 1.989 . S
Co510 O535 1.967 . S
Co510 O542 1.920 . S
Co511 O514 1.966 . S
Co511 N520 2.022 1_655 S
Co511 N528 1.993 . S
Co511 O536 1.941 . S
C512 O513 1.258 . S
C512 O514 1.263 . S
O513 Co510 1.970 . S
O513 C512 1.258 . S
O514 Co511 1.966 . S
O514 C512 1.263 . S
C515 O516 1.235 . S
C515 O542 1.289 . S
O516 C515 1.235 . S
C517 C519 1.400 . S
C517 N520 1.351 . S
C517 C522 1.501 . S
C518 C519 1.387 . S
C518 N521 1.341 . S
C519 C517 1.400 . S
C519 C518 1.387 . S
N520 Co511 2.022 1_455 S
N520 C517 1.351 . S
N520 N521 1.365 . S
N521 C518 1.341 . S
N521 N520 1.365 . S
N521 H541 0.862 1_455 S
C522 C517 1.501 . S
C522 H523 0.961 . S
C522 H524 0.961 . S
C522 H525 0.960 . S
H523 C522 0.961 . S
H524 C522 0.961 . S
H525 C522 0.960 . S
C526 N527 1.342 . S
C526 C530 1.401 . S
C526 C531 1.499 . S
N527 Co510 1.989 . S
N527 C526 1.342 . S
N527 N528 1.388 . S
N528 Co511 1.993 . S
N528 N527 1.388 . S
N528 C529 1.346 . S
C529 N528 1.346 . S
C529 C530 1.396 . S
C529 C539 1.510 . S
C530 C526 1.401 . S
C530 C529 1.396 . S
C531 C526 1.499 . S
C531 H532 0.959 . S
C531 H533 0.960 . S
C531 H534 0.961 . S
H532 C531 0.959 . S
H533 C531 0.960 . S
H534 C531 0.961 . S
O535 Co510 1.967 . S
O535 C543 1.258 . S
O536 Co511 1.941 . S
O536 C543 1.266 . S
H537 C539 0.959 . S
H538 C539 0.961 . S
C539 C529 1.510 . S
C539 H537 0.959 . S
C539 H538 0.961 . S
C539 H540 0.960 . S
H540 C539 0.960 . S
H541 N521 0.862 1_655 S
O542 Co510 1.920 . S
O542 C515 1.289 . S
C543 O535 1.258 . S
C543 O536 1.266 . S
Co544 O547 1.970 . S
Co544 N561 1.989 . S
Co544 O569 1.967 . S
Co544 O576 1.920 . S
Co545 O548 1.966 . S
Co545 N554 2.022 1_554 S
Co545 N562 1.993 . S
Co545 O570 1.941 . S
C546 O547 1.258 . S
C546 O548 1.263 . S
O547 Co544 1.970 . S
O547 C546 1.258 . S
O548 Co545 1.966 . S
O548 C546 1.263 . S
C549 O550 1.235 . S
C549 O576 1.289 . S
O550 C549 1.235 . S
C551 C553 1.400 . S
C551 N554 1.351 . S
C551 C556 1.501 . S
C552 C553 1.387 . S
C552 N555 1.341 . S
C553 C551 1.400 . S
C553 C552 1.387 . S
N554 Co545 2.022 1_556 S
N554 C551 1.351 . S
N554 N555 1.365 . S
N555 C552 1.341 . S
N555 N554 1.365 . S
N555 H575 0.862 1_556 S
C556 C551 1.501 . S
C556 H557 0.961 . S
C556 H558 0.961 . S
C556 H559 0.960 . S
H557 C556 0.961 . S
H558 C556 0.961 . S
H559 C556 0.960 . S
C560 N561 1.342 . S
C560 C564 1.401 . S
C560 C565 1.499 . S
N561 Co544 1.989 . S
N561 C560 1.342 . S
N561 N562 1.388 . S
N562 Co545 1.993 . S
N562 N561 1.388 . S
N562 C563 1.346 . S
C563 N562 1.346 . S
C563 C564 1.396 . S
C563 C573 1.510 . S
C564 C560 1.401 . S
C564 C563 1.396 . S
C565 C560 1.499 . S
C565 H566 0.959 . S
C565 H567 0.960 . S
C565 H568 0.961 . S
H566 C565 0.959 . S
H567 C565 0.960 . S
H568 C565 0.961 . S
O569 Co544 1.967 . S
O569 C577 1.258 . S
O570 Co545 1.941 . S
O570 C577 1.266 . S
H571 C573 0.959 . S
H572 C573 0.961 . S
C573 C563 1.510 . S
C573 H571 0.959 . S
C573 H572 0.961 . S
C573 H574 0.960 . S
H574 C573 0.960 . S
H575 N555 0.862 1_554 S
O576 Co544 1.920 . S
O576 C549 1.289 . S
C577 O569 1.258 . S
C577 O570 1.266 . S
Co578 O581 1.970 . S
Co578 N595 1.989 . S
Co578 O603 1.967 . S
Co578 O610 1.920 . S
Co579 O582 1.966 . S
Co579 N588 2.022 1_556 S
Co579 N596 1.993 . S
Co579 O604 1.941 . S
C580 O581 1.258 . S
C580 O582 1.263 . S
O581 Co578 1.970 . S
O581 C580 1.258 . S
O582 Co579 1.966 . S
O582 C580 1.263 . S
C583 O584 1.235 . S
C583 O610 1.289 . S
O584 C583 1.235 . S
C585 C587 1.400 . S
C585 N588 1.351 . S
C585 C590 1.501 . S
C586 C587 1.387 . S
C586 N589 1.341 . S
C587 C585 1.400 . S
C587 C586 1.387 . S
N588 Co579 2.022 1_554 S
N588 C585 1.351 . S
N588 N589 1.365 . S
N589 C586 1.341 . S
N589 N588 1.365 . S
N589 H609 0.862 1_554 S
C590 C585 1.501 . S
C590 H591 0.961 . S
C590 H592 0.961 . S
C590 H593 0.960 . S
H591 C590 0.961 . S
H592 C590 0.961 . S
H593 C590 0.960 . S
C594 N595 1.342 . S
C594 C598 1.401 . S
C594 C599 1.499 . S
N595 Co578 1.989 . S
N595 C594 1.342 . S
N595 N596 1.388 . S
N596 Co579 1.993 . S
N596 N595 1.388 . S
N596 C597 1.346 . S
C597 N596 1.346 . S
C597 C598 1.396 . S
C597 C607 1.510 . S
C598 C594 1.401 . S
C598 C597 1.396 . S
C599 C594 1.499 . S
C599 H600 0.959 . S
C599 H601 0.960 . S
C599 H602 0.961 . S
H600 C599 0.959 . S
H601 C599 0.960 . S
H602 C599 0.961 . S
O603 Co578 1.967 . S
O603 C611 1.258 . S
O604 Co579 1.941 . S
O604 C611 1.266 . S
H605 C607 0.959 . S
H606 C607 0.961 . S
C607 C597 1.510 . S
C607 H605 0.959 . S
C607 H606 0.961 . S
C607 H608 0.960 . S
H608 C607 0.960 . S
H609 N589 0.862 1_556 S
O610 Co578 1.920 . S
O610 C583 1.289 . S
C611 O603 1.258 . S
C611 O604 1.266 . S
Co612 O615 1.970 . S
Co612 N629 1.989 . S
Co612 O637 1.967 . S
Co612 O644 1.920 . S
Co613 O616 1.966 . S
Co613 N622 2.022 1_556 S
Co613 N630 1.993 . S
Co613 O638 1.941 . S
C614 O615 1.258 . S
C614 O616 1.263 . S
O615 Co612 1.970 . S
O615 C614 1.258 . S
O616 Co613 1.966 . S
O616 C614 1.263 . S
C617 O618 1.235 . S
C617 O644 1.289 . S
O618 C617 1.235 . S
C619 C621 1.400 . S
C619 N622 1.351 . S
C619 C624 1.501 . S
C620 C621 1.387 . S
C620 N623 1.341 . S
C621 C619 1.400 . S
C621 C620 1.387 . S
N622 Co613 2.022 1_554 S
N622 C619 1.351 . S
N622 N623 1.365 . S
N623 C620 1.341 . S
N623 N622 1.365 . S
N623 H643 0.862 1_554 S
C624 C619 1.501 . S
C624 H625 0.961 . S
C624 H626 0.961 . S
C624 H627 0.960 . S
H625 C624 0.961 . S
H626 C624 0.961 . S
H627 C624 0.960 . S
C628 N629 1.342 . S
C628 C632 1.401 . S
C628 C633 1.499 . S
N629 Co612 1.989 . S
N629 C628 1.342 . S
N629 N630 1.388 . S
N630 Co613 1.993 . S
N630 N629 1.388 . S
N630 C631 1.346 . S
C631 N630 1.346 . S
C631 C632 1.396 . S
C631 C641 1.510 . S
C632 C628 1.401 . S
C632 C631 1.396 . S
C633 C628 1.499 . S
C633 H634 0.959 . S
C633 H635 0.960 . S
C633 H636 0.961 . S
H634 C633 0.959 . S
H635 C633 0.960 . S
H636 C633 0.961 . S
O637 Co612 1.967 . S
O637 C645 1.258 . S
O638 Co613 1.941 . S
O638 C645 1.266 . S
H639 C641 0.959 . S
H640 C641 0.961 . S
C641 C631 1.510 . S
C641 H639 0.959 . S
C641 H640 0.961 . S
C641 H642 0.960 . S
H642 C641 0.960 . S
H643 N623 0.862 1_556 S
O644 Co612 1.920 . S
O644 C617 1.289 . S
C645 O637 1.258 . S
C645 O638 1.266 . S
Co646 O649 1.970 . S
Co646 N663 1.989 . S
Co646 O671 1.967 . S
Co646 O678 1.920 . S
Co647 O650 1.966 . S
Co647 N656 2.022 1_556 S
Co647 N664 1.993 . S
Co647 O672 1.941 . S
C648 O649 1.258 . S
C648 O650 1.263 . S
O649 Co646 1.970 . S
O649 C648 1.258 . S
O650 Co647 1.966 . S
O650 C648 1.263 . S
C651 O652 1.235 . S
C651 O678 1.289 . S
O652 C651 1.235 . S
C653 C655 1.400 . S
C653 N656 1.351 . S
C653 C658 1.501 . S
C654 C655 1.387 . S
C654 N657 1.341 . S
C655 C653 1.400 . S
C655 C654 1.387 . S
N656 Co647 2.022 1_554 S
N656 C653 1.351 . S
N656 N657 1.365 . S
N657 C654 1.341 . S
N657 N656 1.365 . S
N657 H677 0.862 1_554 S
C658 C653 1.501 . S
C658 H659 0.961 . S
C658 H660 0.961 . S
C658 H661 0.960 . S
H659 C658 0.961 . S
H660 C658 0.961 . S
H661 C658 0.960 . S
C662 N663 1.342 . S
C662 C666 1.401 . S
C662 C667 1.499 . S
N663 Co646 1.989 . S
N663 C662 1.342 . S
N663 N664 1.388 . S
N664 Co647 1.993 . S
N664 N663 1.388 . S
N664 C665 1.346 . S
C665 N664 1.346 . S
C665 C666 1.396 . S
C665 C675 1.510 . S
C666 C662 1.401 . S
C666 C665 1.396 . S
C667 C662 1.499 . S
C667 H668 0.959 . S
C667 H669 0.960 . S
C667 H670 0.961 . S
H668 C667 0.959 . S
H669 C667 0.960 . S
H670 C667 0.961 . S
O671 Co646 1.967 . S
O671 C679 1.258 . S
O672 Co647 1.941 . S
O672 C679 1.266 . S
H673 C675 0.959 . S
H674 C675 0.961 . S
C675 C665 1.510 . S
C675 H673 0.959 . S
C675 H674 0.961 . S
C675 H676 0.960 . S
H676 C675 0.960 . S
H677 N657 0.862 1_556 S
O678 Co646 1.920 . S
O678 C651 1.289 . S
C679 O671 1.258 . S
C679 O672 1.266 . S
Co680 O683 1.970 . S
Co680 N697 1.989 . S
Co680 O705 1.967 . S
Co680 O712 1.920 . S
Co681 O684 1.966 . S
Co681 N690 2.022 1_556 S
Co681 N698 1.993 . S
Co681 O706 1.941 . S
C682 O683 1.258 . S
C682 O684 1.263 . S
O683 Co680 1.970 . S
O683 C682 1.258 . S
O684 Co681 1.966 . S
O684 C682 1.263 . S
C685 O686 1.235 . S
C685 O712 1.289 . S
O686 C685 1.235 . S
C687 C689 1.400 . S
C687 N690 1.351 . S
C687 C692 1.501 . S
C688 C689 1.387 . S
C688 N691 1.341 . S
C689 C687 1.400 . S
C689 C688 1.387 . S
N690 Co681 2.022 1_554 S
N690 C687 1.351 . S
N690 N691 1.365 . S
N691 C688 1.341 . S
N691 N690 1.365 . S
N691 H711 0.862 1_554 S
C692 C687 1.501 . S
C692 H693 0.961 . S
C692 H694 0.961 . S
C692 H695 0.960 . S
H693 C692 0.961 . S
H694 C692 0.961 . S
H695 C692 0.960 . S
C696 N697 1.342 . S
C696 C700 1.401 . S
C696 C701 1.499 . S
N697 Co680 1.989 . S
N697 C696 1.342 . S
N697 N698 1.388 . S
N698 Co681 1.993 . S
N698 N697 1.388 . S
N698 C699 1.346 . S
C699 N698 1.346 . S
C699 C700 1.396 . S
C699 C709 1.510 . S
C700 C696 1.401 . S
C700 C699 1.396 . S
C701 C696 1.499 . S
C701 H702 0.959 . S
C701 H703 0.960 . S
C701 H704 0.961 . S
H702 C701 0.959 . S
H703 C701 0.960 . S
H704 C701 0.961 . S
O705 Co680 1.967 . S
O705 C713 1.258 . S
O706 Co681 1.941 . S
O706 C713 1.266 . S
H707 C709 0.959 . S
H708 C709 0.961 . S
C709 C699 1.510 . S
C709 H707 0.959 . S
C709 H708 0.961 . S
C709 H710 0.960 . S
H710 C709 0.960 . S
H711 N691 0.862 1_556 S
O712 Co680 1.920 . S
O712 C685 1.289 . S
C713 O705 1.258 . S
C713 O706 1.266 . S
Co714 O717 1.970 . S
Co714 N731 1.989 . S
Co714 O739 1.967 . S
Co714 O746 1.920 . S
Co715 O718 1.966 . S
Co715 N724 2.022 1_554 S
Co715 N732 1.993 . S
Co715 O740 1.941 . S
C716 O717 1.258 . S
C716 O718 1.263 . S
O717 Co714 1.970 . S
O717 C716 1.258 . S
O718 Co715 1.966 . S
O718 C716 1.263 . S
C719 O720 1.235 . S
C719 O746 1.289 . S
O720 C719 1.235 . S
C721 C723 1.400 . S
C721 N724 1.351 . S
C721 C726 1.501 . S
C722 C723 1.387 . S
C722 N725 1.341 . S
C723 C721 1.400 . S
C723 C722 1.387 . S
N724 Co715 2.022 1_556 S
N724 C721 1.351 . S
N724 N725 1.365 . S
N725 C722 1.341 . S
N725 N724 1.365 . S
N725 H745 0.862 1_556 S
C726 C721 1.501 . S
C726 H727 0.961 . S
C726 H728 0.961 . S
C726 H729 0.960 . S
H727 C726 0.961 . S
H728 C726 0.961 . S
H729 C726 0.960 . S
C730 N731 1.342 . S
C730 C734 1.401 . S
C730 C735 1.499 . S
N731 Co714 1.989 . S
N731 C730 1.342 . S
N731 N732 1.388 . S
N732 Co715 1.993 . S
N732 N731 1.388 . S
N732 C733 1.346 . S
C733 N732 1.346 . S
C733 C734 1.396 . S
C733 C743 1.510 . S
C734 C730 1.401 . S
C734 C733 1.396 . S
C735 C730 1.499 . S
C735 H736 0.959 . S
C735 H737 0.960 . S
C735 H738 0.961 . S
H736 C735 0.959 . S
H737 C735 0.960 . S
H738 C735 0.961 . S
O739 Co714 1.967 . S
O739 C747 1.258 . S
O740 Co715 1.941 . S
O740 C747 1.266 . S
H741 C743 0.959 . S
H742 C743 0.961 . S
C743 C733 1.510 . S
C743 H741 0.959 . S
C743 H742 0.961 . S
C743 H744 0.960 . S
H744 C743 0.960 . S
H745 N725 0.862 1_554 S
O746 Co714 1.920 . S
O746 C719 1.289 . S
C747 O739 1.258 . S
C747 O740 1.266 . S
Co748 O751 1.970 . S
Co748 N765 1.989 . S
Co748 O773 1.967 . S
Co748 O780 1.920 . S
Co749 O752 1.966 . S
Co749 N758 2.022 1_554 S
Co749 N766 1.993 . S
Co749 O774 1.941 . S
C750 O751 1.258 . S
C750 O752 1.263 . S
O751 Co748 1.970 . S
O751 C750 1.258 . S
O752 Co749 1.966 . S
O752 C750 1.263 . S
C753 O754 1.235 . S
C753 O780 1.289 . S
O754 C753 1.235 . S
C755 C757 1.400 . S
C755 N758 1.351 . S
C755 C760 1.501 . S
C756 C757 1.387 . S
C756 N759 1.341 . S
C757 C755 1.400 . S
C757 C756 1.387 . S
N758 Co749 2.022 1_556 S
N758 C755 1.351 . S
N758 N759 1.365 . S
N759 C756 1.341 . S
N759 N758 1.365 . S
N759 H779 0.862 1_556 S
C760 C755 1.501 . S
C760 H761 0.961 . S
C760 H762 0.961 . S
C760 H763 0.960 . S
H761 C760 0.961 . S
H762 C760 0.961 . S
H763 C760 0.960 . S
C764 N765 1.342 . S
C764 C768 1.401 . S
C764 C769 1.499 . S
N765 Co748 1.989 . S
N765 C764 1.342 . S
N765 N766 1.388 . S
N766 Co749 1.993 . S
N766 N765 1.388 . S
N766 C767 1.346 . S
C767 N766 1.346 . S
C767 C768 1.396 . S
C767 C777 1.510 . S
C768 C764 1.401 . S
C768 C767 1.396 . S
C769 C764 1.499 . S
C769 H770 0.959 . S
C769 H771 0.960 . S
C769 H772 0.961 . S
H770 C769 0.959 . S
H771 C769 0.960 . S
H772 C769 0.961 . S
O773 Co748 1.967 . S
O773 C781 1.258 . S
O774 Co749 1.941 . S
O774 C781 1.266 . S
H775 C777 0.959 . S
H776 C777 0.961 . S
C777 C767 1.510 . S
C777 H775 0.959 . S
C777 H776 0.961 . S
C777 H778 0.960 . S
H778 C777 0.960 . S
H779 N759 0.862 1_554 S
O780 Co748 1.920 . S
O780 C753 1.289 . S
C781 O773 1.258 . S
C781 O774 1.266 . S
Co782 O785 1.970 . S
Co782 N799 1.989 . S
Co782 O807 1.967 . S
Co782 O814 1.920 . S
Co783 O786 1.966 . S
Co783 N792 2.022 1_554 S
Co783 N800 1.993 . S
Co783 O808 1.941 . S
C784 O785 1.258 . S
C784 O786 1.263 . S
O785 Co782 1.970 . S
O785 C784 1.258 . S
O786 Co783 1.966 . S
O786 C784 1.263 . S
C787 O788 1.235 . S
C787 O814 1.289 . S
O788 C787 1.235 . S
C789 C791 1.400 . S
C789 N792 1.351 . S
C789 C794 1.501 . S
C790 C791 1.387 . S
C790 N793 1.341 . S
C791 C789 1.400 . S
C791 C790 1.387 . S
N792 Co783 2.022 1_556 S
N792 C789 1.351 . S
N792 N793 1.365 . S
N793 C790 1.341 . S
N793 N792 1.365 . S
N793 H813 0.862 1_556 S
C794 C789 1.501 . S
C794 H795 0.961 . S
C794 H796 0.961 . S
C794 H797 0.960 . S
H795 C794 0.961 . S
H796 C794 0.961 . S
H797 C794 0.960 . S
C798 N799 1.342 . S
C798 C802 1.401 . S
C798 C803 1.499 . S
N799 Co782 1.989 . S
N799 C798 1.342 . S
N799 N800 1.388 . S
N800 Co783 1.993 . S
N800 N799 1.388 . S
N800 C801 1.346 . S
C801 N800 1.346 . S
C801 C802 1.396 . S
C801 C811 1.510 . S
C802 C798 1.401 . S
C802 C801 1.396 . S
C803 C798 1.499 . S
C803 H804 0.959 . S
C803 H805 0.960 . S
C803 H806 0.961 . S
H804 C803 0.959 . S
H805 C803 0.960 . S
H806 C803 0.961 . S
O807 Co782 1.967 . S
O807 C815 1.258 . S
O808 Co783 1.941 . S
O808 C815 1.266 . S
H809 C811 0.959 . S
H810 C811 0.961 . S
C811 C801 1.510 . S
C811 H809 0.959 . S
C811 H810 0.961 . S
C811 H812 0.960 . S
H812 C811 0.960 . S
H813 N793 0.862 1_554 S
O814 Co782 1.920 . S
O814 C787 1.289 . S
C815 O807 1.258 . S
C815 O808 1.266 . S
Co816 O819 1.970 . S
Co816 N833 1.989 . S
Co816 O841 1.967 . S
Co816 O848 1.920 . S
Co817 O820 1.966 . S
Co817 N826 2.022 . S
Co817 N834 1.993 . S
Co817 O842 1.941 . S
C818 O819 1.258 . S
C818 O820 1.263 . S
O819 Co816 1.970 . S
O819 C818 1.258 . S
O820 Co817 1.966 . S
O820 C818 1.263 . S
C821 O822 1.235 1_565 S
C821 O848 1.289 . S
O822 C821 1.235 1_545 S
C823 C825 1.400 . S
C823 N826 1.351 . S
C823 C828 1.501 . S
C824 C825 1.387 . S
C824 N827 1.341 . S
C825 C823 1.400 . S
C825 C824 1.387 . S
N826 Co817 2.022 . S
N826 C823 1.351 . S
N826 N827 1.365 . S
N827 C824 1.341 . S
N827 N826 1.365 . S
N827 H847 0.862 . S
C828 C823 1.501 . S
C828 H829 0.961 . S
C828 H830 0.961 . S
C828 H831 0.960 . S
H829 C828 0.961 . S
H830 C828 0.961 . S
H831 C828 0.960 . S
C832 N833 1.342 . S
C832 C836 1.401 . S
C832 C837 1.499 . S
N833 Co816 1.989 . S
N833 C832 1.342 . S
N833 N834 1.388 . S
N834 Co817 1.993 . S
N834 N833 1.388 . S
N834 C835 1.346 . S
C835 N834 1.346 . S
C835 C836 1.396 . S
C835 C845 1.510 . S
C836 C832 1.401 . S
C836 C835 1.396 . S
C837 C832 1.499 . S
C837 H838 0.959 . S
C837 H839 0.960 . S
C837 H840 0.961 . S
H838 C837 0.959 . S
H839 C837 0.960 . S
H840 C837 0.961 . S
O841 Co816 1.967 . S
O841 C849 1.258 . S
O842 Co817 1.941 . S
O842 C849 1.266 . S
H843 C845 0.959 . S
H844 C845 0.961 . S
C845 C835 1.510 . S
C845 H843 0.959 . S
C845 H844 0.961 . S
C845 H846 0.960 . S
H846 C845 0.960 . S
H847 N827 0.862 . S
O848 Co816 1.920 . S
O848 C821 1.289 . S
C849 O841 1.258 . S
C849 O842 1.266 . S
Co850 O853 1.970 . S
Co850 N867 1.989 . S
Co850 O875 1.967 . S
Co850 O882 1.920 . S
Co851 O854 1.966 . S
Co851 N860 2.022 . S
Co851 N868 1.993 . S
Co851 O876 1.941 . S
C852 O853 1.258 . S
C852 O854 1.263 . S
O853 Co850 1.970 . S
O853 C852 1.258 . S
O854 Co851 1.966 . S
O854 C852 1.263 . S
C855 O856 1.235 1_455 S
C855 O882 1.289 . S
O856 C855 1.235 1_655 S
C857 C859 1.400 . S
C857 N860 1.351 . S
C857 C862 1.501 . S
C858 C859 1.387 . S
C858 N861 1.341 . S
C859 C857 1.400 . S
C859 C858 1.387 . S
N860 Co851 2.022 . S
N860 C857 1.351 . S
N860 N861 1.365 . S
N861 C858 1.341 . S
N861 N860 1.365 . S
N861 H881 0.862 . S
C862 C857 1.501 . S
C862 H863 0.961 . S
C862 H864 0.961 . S
C862 H865 0.960 . S
H863 C862 0.961 . S
H864 C862 0.961 . S
H865 C862 0.960 . S
C866 N867 1.342 . S
C866 C870 1.401 . S
C866 C871 1.499 . S
N867 Co850 1.989 . S
N867 C866 1.342 . S
N867 N868 1.388 . S
N868 Co851 1.993 . S
N868 N867 1.388 . S
N868 C869 1.346 . S
C869 N868 1.346 . S
C869 C870 1.396 . S
C869 C879 1.510 . S
C870 C866 1.401 . S
C870 C869 1.396 . S
C871 C866 1.499 . S
C871 H872 0.959 . S
C871 H873 0.960 . S
C871 H874 0.961 . S
H872 C871 0.959 . S
H873 C871 0.960 . S
H874 C871 0.961 . S
O875 Co850 1.967 . S
O875 C883 1.258 . S
O876 Co851 1.941 . S
O876 C883 1.266 . S
H877 C879 0.959 . S
H878 C879 0.961 . S
C879 C869 1.510 . S
C879 H877 0.959 . S
C879 H878 0.961 . S
C879 H880 0.960 . S
H880 C879 0.960 . S
H881 N861 0.862 . S
O882 Co850 1.920 . S
O882 C855 1.289 . S
C883 O875 1.258 . S
C883 O876 1.266 . S
Co884 O887 1.970 . S
Co884 N901 1.989 . S
Co884 O909 1.967 . S
Co884 O916 1.920 . S
Co885 O888 1.966 . S
Co885 N894 2.022 . S
Co885 N902 1.993 . S
Co885 O910 1.941 . S
C886 O887 1.258 . S
C886 O888 1.263 . S
O887 Co884 1.970 . S
O887 C886 1.258 . S
O888 Co885 1.966 . S
O888 C886 1.263 . S
C889 O890 1.235 1_545 S
C889 O916 1.289 . S
O890 C889 1.235 1_565 S
C891 C893 1.400 . S
C891 N894 1.351 . S
C891 C896 1.501 . S
C892 C893 1.387 . S
C892 N895 1.341 . S
C893 C891 1.400 . S
C893 C892 1.387 . S
N894 Co885 2.022 . S
N894 C891 1.351 . S
N894 N895 1.365 . S
N895 C892 1.341 . S
N895 N894 1.365 . S
N895 H915 0.862 . S
C896 C891 1.501 . S
C896 H897 0.961 . S
C896 H898 0.961 . S
C896 H899 0.960 . S
H897 C896 0.961 . S
H898 C896 0.961 . S
H899 C896 0.960 . S
C900 N901 1.342 . S
C900 C904 1.401 . S
C900 C905 1.499 . S
N901 Co884 1.989 . S
N901 C900 1.342 . S
N901 N902 1.388 . S
N902 Co885 1.993 . S
N902 N901 1.388 . S
N902 C903 1.346 . S
C903 N902 1.346 . S
C903 C904 1.396 . S
C903 C913 1.510 . S
C904 C900 1.401 . S
C904 C903 1.396 . S
C905 C900 1.499 . S
C905 H906 0.959 . S
C905 H907 0.960 . S
C905 H908 0.961 . S
H906 C905 0.959 . S
H907 C905 0.960 . S
H908 C905 0.961 . S
O909 Co884 1.967 . S
O909 C917 1.258 . S
O910 Co885 1.941 . S
O910 C917 1.266 . S
H911 C913 0.959 . S
H912 C913 0.961 . S
C913 C903 1.510 . S
C913 H911 0.959 . S
C913 H912 0.961 . S
C913 H914 0.960 . S
H914 C913 0.960 . S
H915 N895 0.862 . S
O916 Co884 1.920 . S
O916 C889 1.289 . S
C917 O909 1.258 . S
C917 O910 1.266 . S
Co918 O921 1.970 . S
Co918 N935 1.989 . S
Co918 O943 1.967 . S
Co918 O950 1.920 . S
Co919 O922 1.966 . S
Co919 N928 2.022 . S
Co919 N936 1.993 . S
Co919 O944 1.941 . S
C920 O921 1.258 . S
C920 O922 1.263 . S
O921 Co918 1.970 . S
O921 C920 1.258 . S
O922 Co919 1.966 . S
O922 C920 1.263 . S
C923 O924 1.235 1_655 S
C923 O950 1.289 . S
O924 C923 1.235 1_455 S
C925 C927 1.400 . S
C925 N928 1.351 . S
C925 C930 1.501 . S
C926 C927 1.387 . S
C926 N929 1.341 . S
C927 C925 1.400 . S
C927 C926 1.387 . S
N928 Co919 2.022 . S
N928 C925 1.351 . S
N928 N929 1.365 . S
N929 C926 1.341 . S
N929 N928 1.365 . S
N929 H949 0.862 . S
C930 C925 1.501 . S
C930 H931 0.961 . S
C930 H932 0.961 . S
C930 H933 0.960 . S
H931 C930 0.961 . S
H932 C930 0.961 . S
H933 C930 0.960 . S
C934 N935 1.342 . S
C934 C938 1.401 . S
C934 C939 1.499 . S
N935 Co918 1.989 . S
N935 C934 1.342 . S
N935 N936 1.388 . S
N936 Co919 1.993 . S
N936 N935 1.388 . S
N936 C937 1.346 . S
C937 N936 1.346 . S
C937 C938 1.396 . S
C937 C947 1.510 . S
C938 C934 1.401 . S
C938 C937 1.396 . S
C939 C934 1.499 . S
C939 H940 0.959 . S
C939 H941 0.960 . S
C939 H942 0.961 . S
H940 C939 0.959 . S
H941 C939 0.960 . S
H942 C939 0.961 . S
O943 Co918 1.967 . S
O943 C951 1.258 . S
O944 Co919 1.941 . S
O944 C951 1.266 . S
H945 C947 0.959 . S
H946 C947 0.961 . S
C947 C937 1.510 . S
C947 H945 0.959 . S
C947 H946 0.961 . S
C947 H948 0.960 . S
H948 C947 0.960 . S
H949 N929 0.862 . S
O950 Co918 1.920 . S
O950 C923 1.289 . S
C951 O943 1.258 . S
C951 O944 1.266 . S
Co952 O955 1.970 . S
Co952 N969 1.989 . S
Co952 O977 1.967 . S
Co952 O984 1.920 . S
Co953 O956 1.966 . S
Co953 N962 2.022 . S
Co953 N970 1.993 . S
Co953 O978 1.941 . S
C954 O955 1.258 . S
C954 O956 1.263 . S
O955 Co952 1.970 . S
O955 C954 1.258 . S
O956 Co953 1.966 . S
O956 C954 1.263 . S
C957 O958 1.235 1_545 S
C957 O984 1.289 . S
O958 C957 1.235 1_565 S
C959 C961 1.400 . S
C959 N962 1.351 . S
C959 C964 1.501 . S
C960 C961 1.387 . S
C960 N963 1.341 . S
C961 C959 1.400 . S
C961 C960 1.387 . S
N962 Co953 2.022 . S
N962 C959 1.351 . S
N962 N963 1.365 . S
N963 C960 1.341 . S
N963 N962 1.365 . S
N963 H983 0.862 . S
C964 C959 1.501 . S
C964 H965 0.961 . S
C964 H966 0.961 . S
C964 H967 0.960 . S
H965 C964 0.961 . S
H966 C964 0.961 . S
H967 C964 0.960 . S
C968 N969 1.342 . S
C968 C972 1.401 . S
C968 C973 1.499 . S
N969 Co952 1.989 . S
N969 C968 1.342 . S
N969 N970 1.388 . S
N970 Co953 1.993 . S
N970 N969 1.388 . S
N970 C971 1.346 . S
C971 N970 1.346 . S
C971 C972 1.396 . S
C971 C981 1.510 . S
C972 C968 1.401 . S
C972 C971 1.396 . S
C973 C968 1.499 . S
C973 H974 0.959 . S
C973 H975 0.960 . S
C973 H976 0.961 . S
H974 C973 0.959 . S
H975 C973 0.960 . S
H976 C973 0.961 . S
O977 Co952 1.967 . S
O977 C985 1.258 . S
O978 Co953 1.941 . S
O978 C985 1.266 . S
H979 C981 0.959 . S
H980 C981 0.961 . S
C981 C971 1.510 . S
C981 H979 0.959 . S
C981 H980 0.961 . S
C981 H982 0.960 . S
H982 C981 0.960 . S
H983 N963 0.862 . S
O984 Co952 1.920 . S
O984 C957 1.289 . S
C985 O977 1.258 . S
C985 O978 1.266 . S
Co986 O989 1.970 . S
Co986 N1003 1.989 . S
Co986 O1011 1.967 . S
Co986 O1018 1.920 . S
Co987 O990 1.966 . S
Co987 N996 2.022 . S
Co987 N1004 1.993 . S
Co987 O1012 1.941 . S
C988 O989 1.258 . S
C988 O990 1.263 . S
O989 Co986 1.970 . S
O989 C988 1.258 . S
O990 Co987 1.966 . S
O990 C988 1.263 . S
C991 O992 1.235 1_655 S
C991 O1018 1.289 . S
O992 C991 1.235 1_455 S
C993 C995 1.400 . S
C993 N996 1.351 . S
C993 C998 1.501 . S
C994 C995 1.387 . S
C994 N997 1.341 . S
C995 C993 1.400 . S
C995 C994 1.387 . S
N996 Co987 2.022 . S
N996 C993 1.351 . S
N996 N997 1.365 . S
N997 C994 1.341 . S
N997 N996 1.365 . S
N997 H1017 0.862 . S
C998 C993 1.501 . S
C998 H999 0.961 . S
C998 H1000 0.961 . S
C998 H1001 0.960 . S
H999 C998 0.961 . S
H1000 C998 0.961 . S
H1001 C998 0.960 . S
C1002 N1003 1.342 . S
C1002 C1006 1.401 . S
C1002 C1007 1.499 . S
N1003 Co986 1.989 . S
N1003 C1002 1.342 . S
N1003 N1004 1.388 . S
N1004 Co987 1.993 . S
N1004 N1003 1.388 . S
N1004 C1005 1.346 . S
C1005 N1004 1.346 . S
C1005 C1006 1.396 . S
C1005 C1015 1.510 . S
C1006 C1002 1.401 . S
C1006 C1005 1.396 . S
C1007 C1002 1.499 . S
C1007 H1008 0.959 . S
C1007 H1009 0.960 . S
C1007 H1010 0.961 . S
H1008 C1007 0.959 . S
H1009 C1007 0.960 . S
H1010 C1007 0.961 . S
O1011 Co986 1.967 . S
O1011 C1019 1.258 . S
O1012 Co987 1.941 . S
O1012 C1019 1.266 . S
H1013 C1015 0.959 . S
H1014 C1015 0.961 . S
C1015 C1005 1.510 . S
C1015 H1013 0.959 . S
C1015 H1014 0.961 . S
C1015 H1016 0.960 . S
H1016 C1015 0.960 . S
H1017 N997 0.862 . S
O1018 Co986 1.920 . S
O1018 C991 1.289 . S
C1019 O1011 1.258 . S
C1019 O1012 1.266 . S
Co1020 O1023 1.970 . S
Co1020 N1037 1.989 . S
Co1020 O1045 1.967 . S
Co1020 O1052 1.920 . S
Co1021 O1024 1.966 . S
Co1021 N1030 2.022 . S
Co1021 N1038 1.993 . S
Co1021 O1046 1.941 . S
C1022 O1023 1.258 . S
C1022 O1024 1.263 . S
O1023 Co1020 1.970 . S
O1023 C1022 1.258 . S
O1024 Co1021 1.966 . S
O1024 C1022 1.263 . S
C1025 O1026 1.235 1_565 S
C1025 O1052 1.289 . S
O1026 C1025 1.235 1_545 S
C1027 C1029 1.400 . S
C1027 N1030 1.351 . S
C1027 C1032 1.501 . S
C1028 C1029 1.387 . S
C1028 N1031 1.341 . S
C1029 C1027 1.400 . S
C1029 C1028 1.387 . S
N1030 Co1021 2.022 . S
N1030 C1027 1.351 . S
N1030 N1031 1.365 . S
N1031 C1028 1.341 . S
N1031 N1030 1.365 . S
N1031 H1051 0.862 . S
C1032 C1027 1.501 . S
C1032 H1033 0.961 . S
C1032 H1034 0.961 . S
C1032 H1035 0.960 . S
H1033 C1032 0.961 . S
H1034 C1032 0.961 . S
H1035 C1032 0.960 . S
C1036 N1037 1.342 . S
C1036 C1040 1.401 . S
C1036 C1041 1.499 . S
N1037 Co1020 1.989 . S
N1037 C1036 1.342 . S
N1037 N1038 1.388 . S
N1038 Co1021 1.993 . S
N1038 N1037 1.388 . S
N1038 C1039 1.346 . S
C1039 N1038 1.346 . S
C1039 C1040 1.396 . S
C1039 C1049 1.510 . S
C1040 C1036 1.401 . S
C1040 C1039 1.396 . S
C1041 C1036 1.499 . S
C1041 H1042 0.959 . S
C1041 H1043 0.960 . S
C1041 H1044 0.961 . S
H1042 C1041 0.959 . S
H1043 C1041 0.960 . S
H1044 C1041 0.961 . S
O1045 Co1020 1.967 . S
O1045 C1053 1.258 . S
O1046 Co1021 1.941 . S
O1046 C1053 1.266 . S
H1047 C1049 0.959 . S
H1048 C1049 0.961 . S
C1049 C1039 1.510 . S
C1049 H1047 0.959 . S
C1049 H1048 0.961 . S
C1049 H1050 0.960 . S
H1050 C1049 0.960 . S
H1051 N1031 0.862 . S
O1052 Co1020 1.920 . S
O1052 C1025 1.289 . S
C1053 O1045 1.258 . S
C1053 O1046 1.266 . S
Co1054 O1057 1.970 . S
Co1054 N1071 1.989 . S
Co1054 O1079 1.967 . S
Co1054 O1086 1.920 . S
Co1055 O1058 1.966 . S
Co1055 N1064 2.022 . S
Co1055 N1072 1.993 . S
Co1055 O1080 1.941 . S
C1056 O1057 1.258 . S
C1056 O1058 1.263 . S
O1057 Co1054 1.970 . S
O1057 C1056 1.258 . S
O1058 Co1055 1.966 . S
O1058 C1056 1.263 . S
C1059 O1060 1.235 1_455 S
C1059 O1086 1.289 . S
O1060 C1059 1.235 1_655 S
C1061 C1063 1.400 . S
C1061 N1064 1.351 . S
C1061 C1066 1.501 . S
C1062 C1063 1.387 . S
C1062 N1065 1.341 . S
C1063 C1061 1.400 . S
C1063 C1062 1.387 . S
N1064 Co1055 2.022 . S
N1064 C1061 1.351 . S
N1064 N1065 1.365 . S
N1065 C1062 1.341 . S
N1065 N1064 1.365 . S
N1065 H1085 0.862 . S
C1066 C1061 1.501 . S
C1066 H1067 0.961 . S
C1066 H1068 0.961 . S
C1066 H1069 0.960 . S
H1067 C1066 0.961 . S
H1068 C1066 0.961 . S
H1069 C1066 0.960 . S
C1070 N1071 1.342 . S
C1070 C1074 1.401 . S
C1070 C1075 1.499 . S
N1071 Co1054 1.989 . S
N1071 C1070 1.342 . S
N1071 N1072 1.388 . S
N1072 Co1055 1.993 . S
N1072 N1071 1.388 . S
N1072 C1073 1.346 . S
C1073 N1072 1.346 . S
C1073 C1074 1.396 . S
C1073 C1083 1.510 . S
C1074 C1070 1.401 . S
C1074 C1073 1.396 . S
C1075 C1070 1.499 . S
C1075 H1076 0.959 . S
C1075 H1077 0.960 . S
C1075 H1078 0.961 . S
H1076 C1075 0.959 . S
H1077 C1075 0.960 . S
H1078 C1075 0.961 . S
O1079 Co1054 1.967 . S
O1079 C1087 1.258 . S
O1080 Co1055 1.941 . S
O1080 C1087 1.266 . S
H1081 C1083 0.959 . S
H1082 C1083 0.961 . S
C1083 C1073 1.510 . S
C1083 H1081 0.959 . S
C1083 H1082 0.961 . S
C1083 H1084 0.960 . S
H1084 C1083 0.960 . S
H1085 N1065 0.862 . S
O1086 Co1054 1.920 . S
O1086 C1059 1.289 . S
C1087 O1079 1.258 . S
C1087 O1080 1.266 . S
Co1088 O1091 1.970 . S
Co1088 N1105 1.989 . S
Co1088 O1113 1.967 . S
Co1088 O1120 1.920 . S
Co1089 O1092 1.966 . S
Co1089 N1098 2.022 . S
Co1089 N1106 1.993 . S
Co1089 O1114 1.941 . S
C1090 O1091 1.258 . S
C1090 O1092 1.263 . S
O1091 Co1088 1.970 . S
O1091 C1090 1.258 . S
O1092 Co1089 1.966 . S
O1092 C1090 1.263 . S
C1093 O1094 1.235 1_556 S
C1093 O1120 1.289 . S
O1094 C1093 1.235 1_554 S
C1095 C1097 1.400 . S
C1095 N1098 1.351 . S
C1095 C1100 1.501 . S
C1096 C1097 1.387 . S
C1096 N1099 1.341 . S
C1097 C1095 1.400 . S
C1097 C1096 1.387 . S
N1098 Co1089 2.022 . S
N1098 C1095 1.351 . S
N1098 N1099 1.365 . S
N1099 C1096 1.341 . S
N1099 N1098 1.365 . S
N1099 H1119 0.862 . S
C1100 C1095 1.501 . S
C1100 H1101 0.961 . S
C1100 H1102 0.961 . S
C1100 H1103 0.960 . S
H1101 C1100 0.961 . S
H1102 C1100 0.961 . S
H1103 C1100 0.960 . S
C1104 N1105 1.342 . S
C1104 C1108 1.401 . S
C1104 C1109 1.499 . S
N1105 Co1088 1.989 . S
N1105 C1104 1.342 . S
N1105 N1106 1.388 . S
N1106 Co1089 1.993 . S
N1106 N1105 1.388 . S
N1106 C1107 1.346 . S
C1107 N1106 1.346 . S
C1107 C1108 1.396 . S
C1107 C1117 1.510 . S
C1108 C1104 1.401 . S
C1108 C1107 1.396 . S
C1109 C1104 1.499 . S
C1109 H1110 0.959 . S
C1109 H1111 0.960 . S
C1109 H1112 0.961 . S
H1110 C1109 0.959 . S
H1111 C1109 0.960 . S
H1112 C1109 0.961 . S
O1113 Co1088 1.967 . S
O1113 C1121 1.258 . S
O1114 Co1089 1.941 . S
O1114 C1121 1.266 . S
H1115 C1117 0.959 . S
H1116 C1117 0.961 . S
C1117 C1107 1.510 . S
C1117 H1115 0.959 . S
C1117 H1116 0.961 . S
C1117 H1118 0.960 . S
H1118 C1117 0.960 . S
H1119 N1099 0.862 . S
O1120 Co1088 1.920 . S
O1120 C1093 1.289 . S
C1121 O1113 1.258 . S
C1121 O1114 1.266 . S
Co1122 O1125 1.970 . S
Co1122 N1139 1.989 . S
Co1122 O1147 1.967 . S
Co1122 O1154 1.920 . S
Co1123 O1126 1.966 . S
Co1123 N1132 2.022 . S
Co1123 N1140 1.993 . S
Co1123 O1148 1.941 . S
C1124 O1125 1.258 . S
C1124 O1126 1.263 . S
O1125 Co1122 1.970 . S
O1125 C1124 1.258 . S
O1126 Co1123 1.966 . S
O1126 C1124 1.263 . S
C1127 O1128 1.235 1_556 S
C1127 O1154 1.289 . S
O1128 C1127 1.235 1_554 S
C1129 C1131 1.400 . S
C1129 N1132 1.351 . S
C1129 C1134 1.501 . S
C1130 C1131 1.387 . S
C1130 N1133 1.341 . S
C1131 C1129 1.400 . S
C1131 C1130 1.387 . S
N1132 Co1123 2.022 . S
N1132 C1129 1.351 . S
N1132 N1133 1.365 . S
N1133 C1130 1.341 . S
N1133 N1132 1.365 . S
N1133 H1153 0.862 . S
C1134 C1129 1.501 . S
C1134 H1135 0.961 . S
C1134 H1136 0.961 . S
C1134 H1137 0.960 . S
H1135 C1134 0.961 . S
H1136 C1134 0.961 . S
H1137 C1134 0.960 . S
C1138 N1139 1.342 . S
C1138 C1142 1.401 . S
C1138 C1143 1.499 . S
N1139 Co1122 1.989 . S
N1139 C1138 1.342 . S
N1139 N1140 1.388 . S
N1140 Co1123 1.993 . S
N1140 N1139 1.388 . S
N1140 C1141 1.346 . S
C1141 N1140 1.346 . S
C1141 C1142 1.396 . S
C1141 C1151 1.510 . S
C1142 C1138 1.401 . S
C1142 C1141 1.396 . S
C1143 C1138 1.499 . S
C1143 H1144 0.959 . S
C1143 H1145 0.960 . S
C1143 H1146 0.961 . S
H1144 C1143 0.959 . S
H1145 C1143 0.960 . S
H1146 C1143 0.961 . S
O1147 Co1122 1.967 . S
O1147 C1155 1.258 . S
O1148 Co1123 1.941 . S
O1148 C1155 1.266 . S
H1149 C1151 0.959 . S
H1150 C1151 0.961 . S
C1151 C1141 1.510 . S
C1151 H1149 0.959 . S
C1151 H1150 0.961 . S
C1151 H1152 0.960 . S
H1152 C1151 0.960 . S
H1153 N1133 0.862 . S
O1154 Co1122 1.920 . S
O1154 C1127 1.289 . S
C1155 O1147 1.258 . S
C1155 O1148 1.266 . S
Co1156 O1159 1.970 . S
Co1156 N1173 1.989 . S
Co1156 O1181 1.967 . S
Co1156 O1188 1.920 . S
Co1157 O1160 1.966 . S
Co1157 N1166 2.022 . S
Co1157 N1174 1.993 . S
Co1157 O1182 1.941 . S
C1158 O1159 1.258 . S
C1158 O1160 1.263 . S
O1159 Co1156 1.970 . S
O1159 C1158 1.258 . S
O1160 Co1157 1.966 . S
O1160 C1158 1.263 . S
C1161 O1162 1.235 1_556 S
C1161 O1188 1.289 . S
O1162 C1161 1.235 1_554 S
C1163 C1165 1.400 . S
C1163 N1166 1.351 . S
C1163 C1168 1.501 . S
C1164 C1165 1.387 . S
C1164 N1167 1.341 . S
C1165 C1163 1.400 . S
C1165 C1164 1.387 . S
N1166 Co1157 2.022 . S
N1166 C1163 1.351 . S
N1166 N1167 1.365 . S
N1167 C1164 1.341 . S
N1167 N1166 1.365 . S
N1167 H1187 0.862 . S
C1168 C1163 1.501 . S
C1168 H1169 0.961 . S
C1168 H1170 0.961 . S
C1168 H1171 0.960 . S
H1169 C1168 0.961 . S
H1170 C1168 0.961 . S
H1171 C1168 0.960 . S
C1172 N1173 1.342 . S
C1172 C1176 1.401 . S
C1172 C1177 1.499 . S
N1173 Co1156 1.989 . S
N1173 C1172 1.342 . S
N1173 N1174 1.388 . S
N1174 Co1157 1.993 . S
N1174 N1173 1.388 . S
N1174 C1175 1.346 . S
C1175 N1174 1.346 . S
C1175 C1176 1.396 . S
C1175 C1185 1.510 . S
C1176 C1172 1.401 . S
C1176 C1175 1.396 . S
C1177 C1172 1.499 . S
C1177 H1178 0.959 . S
C1177 H1179 0.960 . S
C1177 H1180 0.961 . S
H1178 C1177 0.959 . S
H1179 C1177 0.960 . S
H1180 C1177 0.961 . S
O1181 Co1156 1.967 . S
O1181 C1189 1.258 . S
O1182 Co1157 1.941 . S
O1182 C1189 1.266 . S
H1183 C1185 0.959 . S
H1184 C1185 0.961 . S
C1185 C1175 1.510 . S
C1185 H1183 0.959 . S
C1185 H1184 0.961 . S
C1185 H1186 0.960 . S
H1186 C1185 0.960 . S
H1187 N1167 0.862 . S
O1188 Co1156 1.920 . S
O1188 C1161 1.289 . S
C1189 O1181 1.258 . S
C1189 O1182 1.266 . S
Co1190 O1193 1.970 . S
Co1190 N1207 1.989 . S
Co1190 O1215 1.967 . S
Co1190 O1222 1.920 . S
Co1191 O1194 1.966 . S
Co1191 N1200 2.022 . S
Co1191 N1208 1.993 . S
Co1191 O1216 1.941 . S
C1192 O1193 1.258 . S
C1192 O1194 1.263 . S
O1193 Co1190 1.970 . S
O1193 C1192 1.258 . S
O1194 Co1191 1.966 . S
O1194 C1192 1.263 . S
C1195 O1196 1.235 1_556 S
C1195 O1222 1.289 . S
O1196 C1195 1.235 1_554 S
C1197 C1199 1.400 . S
C1197 N1200 1.351 . S
C1197 C1202 1.501 . S
C1198 C1199 1.387 . S
C1198 N1201 1.341 . S
C1199 C1197 1.400 . S
C1199 C1198 1.387 . S
N1200 Co1191 2.022 . S
N1200 C1197 1.351 . S
N1200 N1201 1.365 . S
N1201 C1198 1.341 . S
N1201 N1200 1.365 . S
N1201 H1221 0.862 . S
C1202 C1197 1.501 . S
C1202 H1203 0.961 . S
C1202 H1204 0.961 . S
C1202 H1205 0.960 . S
H1203 C1202 0.961 . S
H1204 C1202 0.961 . S
H1205 C1202 0.960 . S
C1206 N1207 1.342 . S
C1206 C1210 1.401 . S
C1206 C1211 1.499 . S
N1207 Co1190 1.989 . S
N1207 C1206 1.342 . S
N1207 N1208 1.388 . S
N1208 Co1191 1.993 . S
N1208 N1207 1.388 . S
N1208 C1209 1.346 . S
C1209 N1208 1.346 . S
C1209 C1210 1.396 . S
C1209 C1219 1.510 . S
C1210 C1206 1.401 . S
C1210 C1209 1.396 . S
C1211 C1206 1.499 . S
C1211 H1212 0.959 . S
C1211 H1213 0.960 . S
C1211 H1214 0.961 . S
H1212 C1211 0.959 . S
H1213 C1211 0.960 . S
H1214 C1211 0.961 . S
O1215 Co1190 1.967 . S
O1215 C1223 1.258 . S
O1216 Co1191 1.941 . S
O1216 C1223 1.266 . S
H1217 C1219 0.959 . S
H1218 C1219 0.961 . S
C1219 C1209 1.510 . S
C1219 H1217 0.959 . S
C1219 H1218 0.961 . S
C1219 H1220 0.960 . S
H1220 C1219 0.960 . S
H1221 N1201 0.862 . S
O1222 Co1190 1.920 . S
O1222 C1195 1.289 . S
C1223 O1215 1.258 . S
C1223 O1216 1.266 . S
Co1224 O1227 1.970 . S
Co1224 N1241 1.989 . S
Co1224 O1249 1.967 . S
Co1224 O1256 1.920 . S
Co1225 O1228 1.966 . S
Co1225 N1234 2.022 . S
Co1225 N1242 1.993 . S
Co1225 O1250 1.941 . S
C1226 O1227 1.258 . S
C1226 O1228 1.263 . S
O1227 Co1224 1.970 . S
O1227 C1226 1.258 . S
O1228 Co1225 1.966 . S
O1228 C1226 1.263 . S
C1229 O1230 1.235 1_554 S
C1229 O1256 1.289 . S
O1230 C1229 1.235 1_556 S
C1231 C1233 1.400 . S
C1231 N1234 1.351 . S
C1231 C1236 1.501 . S
C1232 C1233 1.387 . S
C1232 N1235 1.341 . S
C1233 C1231 1.400 . S
C1233 C1232 1.387 . S
N1234 Co1225 2.022 . S
N1234 C1231 1.351 . S
N1234 N1235 1.365 . S
N1235 C1232 1.341 . S
N1235 N1234 1.365 . S
N1235 H1255 0.862 . S
C1236 C1231 1.501 . S
C1236 H1237 0.961 . S
C1236 H1238 0.961 . S
C1236 H1239 0.960 . S
H1237 C1236 0.961 . S
H1238 C1236 0.961 . S
H1239 C1236 0.960 . S
C1240 N1241 1.342 . S
C1240 C1244 1.401 . S
C1240 C1245 1.499 . S
N1241 Co1224 1.989 . S
N1241 C1240 1.342 . S
N1241 N1242 1.388 . S
N1242 Co1225 1.993 . S
N1242 N1241 1.388 . S
N1242 C1243 1.346 . S
C1243 N1242 1.346 . S
C1243 C1244 1.396 . S
C1243 C1253 1.510 . S
C1244 C1240 1.401 . S
C1244 C1243 1.396 . S
C1245 C1240 1.499 . S
C1245 H1246 0.959 . S
C1245 H1247 0.960 . S
C1245 H1248 0.961 . S
H1246 C1245 0.959 . S
H1247 C1245 0.960 . S
H1248 C1245 0.961 . S
O1249 Co1224 1.967 . S
O1249 C1257 1.258 . S
O1250 Co1225 1.941 . S
O1250 C1257 1.266 . S
H1251 C1253 0.959 . S
H1252 C1253 0.961 . S
C1253 C1243 1.510 . S
C1253 H1251 0.959 . S
C1253 H1252 0.961 . S
C1253 H1254 0.960 . S
H1254 C1253 0.960 . S
H1255 N1235 0.862 . S
O1256 Co1224 1.920 . S
O1256 C1229 1.289 . S
C1257 O1249 1.258 . S
C1257 O1250 1.266 . S
Co1258 O1261 1.970 . S
Co1258 N1275 1.989 . S
Co1258 O1283 1.967 . S
Co1258 O1290 1.920 . S
Co1259 O1262 1.966 . S
Co1259 N1268 2.022 . S
Co1259 N1276 1.993 . S
Co1259 O1284 1.941 . S
C1260 O1261 1.258 . S
C1260 O1262 1.263 . S
O1261 Co1258 1.970 . S
O1261 C1260 1.258 . S
O1262 Co1259 1.966 . S
O1262 C1260 1.263 . S
C1263 O1264 1.235 1_554 S
C1263 O1290 1.289 . S
O1264 C1263 1.235 1_556 S
C1265 C1267 1.400 . S
C1265 N1268 1.351 . S
C1265 C1270 1.501 . S
C1266 C1267 1.387 . S
C1266 N1269 1.341 . S
C1267 C1265 1.400 . S
C1267 C1266 1.387 . S
N1268 Co1259 2.022 . S
N1268 C1265 1.351 . S
N1268 N1269 1.365 . S
N1269 C1266 1.341 . S
N1269 N1268 1.365 . S
N1269 H1289 0.862 . S
C1270 C1265 1.501 . S
C1270 H1271 0.961 . S
C1270 H1272 0.961 . S
C1270 H1273 0.960 . S
H1271 C1270 0.961 . S
H1272 C1270 0.961 . S
H1273 C1270 0.960 . S
C1274 N1275 1.342 . S
C1274 C1278 1.401 . S
C1274 C1279 1.499 . S
N1275 Co1258 1.989 . S
N1275 C1274 1.342 . S
N1275 N1276 1.388 . S
N1276 Co1259 1.993 . S
N1276 N1275 1.388 . S
N1276 C1277 1.346 . S
C1277 N1276 1.346 . S
C1277 C1278 1.396 . S
C1277 C1287 1.510 . S
C1278 C1274 1.401 . S
C1278 C1277 1.396 . S
C1279 C1274 1.499 . S
C1279 H1280 0.959 . S
C1279 H1281 0.960 . S
C1279 H1282 0.961 . S
H1280 C1279 0.959 . S
H1281 C1279 0.960 . S
H1282 C1279 0.961 . S
O1283 Co1258 1.967 . S
O1283 C1291 1.258 . S
O1284 Co1259 1.941 . S
O1284 C1291 1.266 . S
H1285 C1287 0.959 . S
H1286 C1287 0.961 . S
C1287 C1277 1.510 . S
C1287 H1285 0.959 . S
C1287 H1286 0.961 . S
C1287 H1288 0.960 . S
H1288 C1287 0.960 . S
H1289 N1269 0.862 . S
O1290 Co1258 1.920 . S
O1290 C1263 1.289 . S
C1291 O1283 1.258 . S
C1291 O1284 1.266 . S
Co1292 O1295 1.970 . S
Co1292 N1309 1.989 . S
Co1292 O1317 1.967 . S
Co1292 O1324 1.920 . S
Co1293 O1296 1.966 . S
Co1293 N1302 2.022 . S
Co1293 N1310 1.993 . S
Co1293 O1318 1.941 . S
C1294 O1295 1.258 . S
C1294 O1296 1.263 . S
O1295 Co1292 1.970 . S
O1295 C1294 1.258 . S
O1296 Co1293 1.966 . S
O1296 C1294 1.263 . S
C1297 O1298 1.235 1_554 S
C1297 O1324 1.289 . S
O1298 C1297 1.235 1_556 S
C1299 C1301 1.400 . S
C1299 N1302 1.351 . S
C1299 C1304 1.501 . S
C1300 C1301 1.387 . S
C1300 N1303 1.341 . S
C1301 C1299 1.400 . S
C1301 C1300 1.387 . S
N1302 Co1293 2.022 . S
N1302 C1299 1.351 . S
N1302 N1303 1.365 . S
N1303 C1300 1.341 . S
N1303 N1302 1.365 . S
N1303 H1323 0.862 . S
C1304 C1299 1.501 . S
C1304 H1305 0.961 . S
C1304 H1306 0.961 . S
C1304 H1307 0.960 . S
H1305 C1304 0.961 . S
H1306 C1304 0.961 . S
H1307 C1304 0.960 . S
C1308 N1309 1.342 . S
C1308 C1312 1.401 . S
C1308 C1313 1.499 . S
N1309 Co1292 1.989 . S
N1309 C1308 1.342 . S
N1309 N1310 1.388 . S
N1310 Co1293 1.993 . S
N1310 N1309 1.388 . S
N1310 C1311 1.346 . S
C1311 N1310 1.346 . S
C1311 C1312 1.396 . S
C1311 C1321 1.510 . S
C1312 C1308 1.401 . S
C1312 C1311 1.396 . S
C1313 C1308 1.499 . S
C1313 H1314 0.959 . S
C1313 H1315 0.960 . S
C1313 H1316 0.961 . S
H1314 C1313 0.959 . S
H1315 C1313 0.960 . S
H1316 C1313 0.961 . S
O1317 Co1292 1.967 . S
O1317 C1325 1.258 . S
O1318 Co1293 1.941 . S
O1318 C1325 1.266 . S
H1319 C1321 0.959 . S
H1320 C1321 0.961 . S
C1321 C1311 1.510 . S
C1321 H1319 0.959 . S
C1321 H1320 0.961 . S
C1321 H1322 0.960 . S
H1322 C1321 0.960 . S
H1323 N1303 0.862 . S
O1324 Co1292 1.920 . S
O1324 C1297 1.289 . S
C1325 O1317 1.258 . S
C1325 O1318 1.266 . S
Co1326 O1329 1.970 . S
Co1326 N1343 1.989 . S
Co1326 O1351 1.967 . S
Co1326 O1358 1.920 . S
Co1327 O1330 1.966 . S
Co1327 N1336 2.022 . S
Co1327 N1344 1.993 . S
Co1327 O1352 1.941 . S
C1328 O1329 1.258 . S
C1328 O1330 1.263 . S
O1329 Co1326 1.970 . S
O1329 C1328 1.258 . S
O1330 Co1327 1.966 . S
O1330 C1328 1.263 . S
C1331 O1332 1.235 1_554 S
C1331 O1358 1.289 . S
O1332 C1331 1.235 1_556 S
C1333 C1335 1.400 . S
C1333 N1336 1.351 . S
C1333 C1338 1.501 . S
C1334 C1335 1.387 . S
C1334 N1337 1.341 . S
C1335 C1333 1.400 . S
C1335 C1334 1.387 . S
N1336 Co1327 2.022 . S
N1336 C1333 1.351 . S
N1336 N1337 1.365 . S
N1337 C1334 1.341 . S
N1337 N1336 1.365 . S
N1337 H1357 0.862 . S
C1338 C1333 1.501 . S
C1338 H1339 0.961 . S
C1338 H1340 0.961 . S
C1338 H1341 0.960 . S
H1339 C1338 0.961 . S
H1340 C1338 0.961 . S
H1341 C1338 0.960 . S
C1342 N1343 1.342 . S
C1342 C1346 1.401 . S
C1342 C1347 1.499 . S
N1343 Co1326 1.989 . S
N1343 C1342 1.342 . S
N1343 N1344 1.388 . S
N1344 Co1327 1.993 . S
N1344 N1343 1.388 . S
N1344 C1345 1.346 . S
C1345 N1344 1.346 . S
C1345 C1346 1.396 . S
C1345 C1355 1.510 . S
C1346 C1342 1.401 . S
C1346 C1345 1.396 . S
C1347 C1342 1.499 . S
C1347 H1348 0.959 . S
C1347 H1349 0.960 . S
C1347 H1350 0.961 . S
H1348 C1347 0.959 . S
H1349 C1347 0.960 . S
H1350 C1347 0.961 . S
O1351 Co1326 1.967 . S
O1351 C1359 1.258 . S
O1352 Co1327 1.941 . S
O1352 C1359 1.266 . S
H1353 C1355 0.959 . S
H1354 C1355 0.961 . S
C1355 C1345 1.510 . S
C1355 H1353 0.959 . S
C1355 H1354 0.961 . S
C1355 H1356 0.960 . S
H1356 C1355 0.960 . S
H1357 N1337 0.862 . S
O1358 Co1326 1.920 . S
O1358 C1331 1.289 . S
C1359 O1351 1.258 . S
C1359 O1352 1.266 . S
Co1360 O1363 1.970 . S
Co1360 N1377 1.989 . S
Co1360 O1385 1.967 . S
Co1360 O1392 1.920 . S
Co1361 O1364 1.966 . S
Co1361 N1370 2.022 . S
Co1361 N1378 1.993 . S
Co1361 O1386 1.941 . S
C1362 O1363 1.258 . S
C1362 O1364 1.263 . S
O1363 Co1360 1.970 . S
O1363 C1362 1.258 . S
O1364 Co1361 1.966 . S
O1364 C1362 1.263 . S
C1365 O1366 1.235 1_655 S
C1365 O1392 1.289 . S
O1366 C1365 1.235 1_455 S
C1367 C1369 1.400 . S
C1367 N1370 1.351 . S
C1367 C1372 1.501 . S
C1368 C1369 1.387 . S
C1368 N1371 1.341 . S
C1369 C1367 1.400 . S
C1369 C1368 1.387 . S
N1370 Co1361 2.022 . S
N1370 C1367 1.351 . S
N1370 N1371 1.365 . S
N1371 C1368 1.341 . S
N1371 N1370 1.365 . S
N1371 H1391 0.862 . S
C1372 C1367 1.501 . S
C1372 H1373 0.961 . S
C1372 H1374 0.961 . S
C1372 H1375 0.960 . S
H1373 C1372 0.961 . S
H1374 C1372 0.961 . S
H1375 C1372 0.960 . S
C1376 N1377 1.342 . S
C1376 C1380 1.401 . S
C1376 C1381 1.499 . S
N1377 Co1360 1.989 . S
N1377 C1376 1.342 . S
N1377 N1378 1.388 . S
N1378 Co1361 1.993 . S
N1378 N1377 1.388 . S
N1378 C1379 1.346 . S
C1379 N1378 1.346 . S
C1379 C1380 1.396 . S
C1379 C1389 1.510 . S
C1380 C1376 1.401 . S
C1380 C1379 1.396 . S
C1381 C1376 1.499 . S
C1381 H1382 0.959 . S
C1381 H1383 0.960 . S
C1381 H1384 0.961 . S
H1382 C1381 0.959 . S
H1383 C1381 0.960 . S
H1384 C1381 0.961 . S
O1385 Co1360 1.967 . S
O1385 C1393 1.258 . S
O1386 Co1361 1.941 . S
O1386 C1393 1.266 . S
H1387 C1389 0.959 . S
H1388 C1389 0.961 . S
C1389 C1379 1.510 . S
C1389 H1387 0.959 . S
C1389 H1388 0.961 . S
C1389 H1390 0.960 . S
H1390 C1389 0.960 . S
H1391 N1371 0.862 . S
O1392 Co1360 1.920 . S
O1392 C1365 1.289 . S
C1393 O1385 1.258 . S
C1393 O1386 1.266 . S
Co1394 O1397 1.970 . S
Co1394 N1411 1.989 . S
Co1394 O1419 1.967 . S
Co1394 O1426 1.920 . S
Co1395 O1398 1.966 . S
Co1395 N1404 2.022 . S
Co1395 N1412 1.993 . S
Co1395 O1420 1.941 . S
C1396 O1397 1.258 . S
C1396 O1398 1.263 . S
O1397 Co1394 1.970 . S
O1397 C1396 1.258 . S
O1398 Co1395 1.966 . S
O1398 C1396 1.263 . S
C1399 O1400 1.235 1_655 S
C1399 O1426 1.289 . S
O1400 C1399 1.235 1_455 S
C1401 C1403 1.400 . S
C1401 N1404 1.351 . S
C1401 C1406 1.501 . S
C1402 C1403 1.387 . S
C1402 N1405 1.341 . S
C1403 C1401 1.400 . S
C1403 C1402 1.387 . S
N1404 Co1395 2.022 . S
N1404 C1401 1.351 . S
N1404 N1405 1.365 . S
N1405 C1402 1.341 . S
N1405 N1404 1.365 . S
N1405 H1425 0.862 . S
C1406 C1401 1.501 . S
C1406 H1407 0.961 . S
C1406 H1408 0.961 . S
C1406 H1409 0.960 . S
H1407 C1406 0.961 . S
H1408 C1406 0.961 . S
H1409 C1406 0.960 . S
C1410 N1411 1.342 . S
C1410 C1414 1.401 . S
C1410 C1415 1.499 . S
N1411 Co1394 1.989 . S
N1411 C1410 1.342 . S
N1411 N1412 1.388 . S
N1412 Co1395 1.993 . S
N1412 N1411 1.388 . S
N1412 C1413 1.346 . S
C1413 N1412 1.346 . S
C1413 C1414 1.396 . S
C1413 C1423 1.510 . S
C1414 C1410 1.401 . S
C1414 C1413 1.396 . S
C1415 C1410 1.499 . S
C1415 H1416 0.959 . S
C1415 H1417 0.960 . S
C1415 H1418 0.961 . S
H1416 C1415 0.959 . S
H1417 C1415 0.960 . S
H1418 C1415 0.961 . S
O1419 Co1394 1.967 . S
O1419 C1427 1.258 . S
O1420 Co1395 1.941 . S
O1420 C1427 1.266 . S
H1421 C1423 0.959 . S
H1422 C1423 0.961 . S
C1423 C1413 1.510 . S
C1423 H1421 0.959 . S
C1423 H1422 0.961 . S
C1423 H1424 0.960 . S
H1424 C1423 0.960 . S
H1425 N1405 0.862 . S
O1426 Co1394 1.920 . S
O1426 C1399 1.289 . S
C1427 O1419 1.258 . S
C1427 O1420 1.266 . S
Co1428 O1431 1.970 . S
Co1428 N1445 1.989 . S
Co1428 O1453 1.967 . S
Co1428 O1460 1.920 . S
Co1429 O1432 1.966 . S
Co1429 N1438 2.022 . S
Co1429 N1446 1.993 . S
Co1429 O1454 1.941 . S
C1430 O1431 1.258 . S
C1430 O1432 1.263 . S
O1431 Co1428 1.970 . S
O1431 C1430 1.258 . S
O1432 Co1429 1.966 . S
O1432 C1430 1.263 . S
C1433 O1434 1.235 1_565 S
C1433 O1460 1.289 . S
O1434 C1433 1.235 1_545 S
C1435 C1437 1.400 . S
C1435 N1438 1.351 . S
C1435 C1440 1.501 . S
C1436 C1437 1.387 . S
C1436 N1439 1.341 . S
C1437 C1435 1.400 . S
C1437 C1436 1.387 . S
N1438 Co1429 2.022 . S
N1438 C1435 1.351 . S
N1438 N1439 1.365 . S
N1439 C1436 1.341 . S
N1439 N1438 1.365 . S
N1439 H1459 0.862 . S
C1440 C1435 1.501 . S
C1440 H1441 0.961 . S
C1440 H1442 0.961 . S
C1440 H1443 0.960 . S
H1441 C1440 0.961 . S
H1442 C1440 0.961 . S
H1443 C1440 0.960 . S
C1444 N1445 1.342 . S
C1444 C1448 1.401 . S
C1444 C1449 1.499 . S
N1445 Co1428 1.989 . S
N1445 C1444 1.342 . S
N1445 N1446 1.388 . S
N1446 Co1429 1.993 . S
N1446 N1445 1.388 . S
N1446 C1447 1.346 . S
C1447 N1446 1.346 . S
C1447 C1448 1.396 . S
C1447 C1457 1.510 . S
C1448 C1444 1.401 . S
C1448 C1447 1.396 . S
C1449 C1444 1.499 . S
C1449 H1450 0.959 . S
C1449 H1451 0.960 . S
C1449 H1452 0.961 . S
H1450 C1449 0.959 . S
H1451 C1449 0.960 . S
H1452 C1449 0.961 . S
O1453 Co1428 1.967 . S
O1453 C1461 1.258 . S
O1454 Co1429 1.941 . S
O1454 C1461 1.266 . S
H1455 C1457 0.959 . S
H1456 C1457 0.961 . S
C1457 C1447 1.510 . S
C1457 H1455 0.959 . S
C1457 H1456 0.961 . S
C1457 H1458 0.960 . S
H1458 C1457 0.960 . S
H1459 N1439 0.862 . S
O1460 Co1428 1.920 . S
O1460 C1433 1.289 . S
C1461 O1453 1.258 . S
C1461 O1454 1.266 . S
Co1462 O1465 1.970 . S
Co1462 N1479 1.989 . S
Co1462 O1487 1.967 . S
Co1462 O1494 1.920 . S
Co1463 O1466 1.966 . S
Co1463 N1472 2.022 . S
Co1463 N1480 1.993 . S
Co1463 O1488 1.941 . S
C1464 O1465 1.258 . S
C1464 O1466 1.263 . S
O1465 Co1462 1.970 . S
O1465 C1464 1.258 . S
O1466 Co1463 1.966 . S
O1466 C1464 1.263 . S
C1467 O1468 1.235 1_455 S
C1467 O1494 1.289 . S
O1468 C1467 1.235 1_655 S
C1469 C1471 1.400 . S
C1469 N1472 1.351 . S
C1469 C1474 1.501 . S
C1470 C1471 1.387 . S
C1470 N1473 1.341 . S
C1471 C1469 1.400 . S
C1471 C1470 1.387 . S
N1472 Co1463 2.022 . S
N1472 C1469 1.351 . S
N1472 N1473 1.365 . S
N1473 C1470 1.341 . S
N1473 N1472 1.365 . S
N1473 H1493 0.862 . S
C1474 C1469 1.501 . S
C1474 H1475 0.961 . S
C1474 H1476 0.961 . S
C1474 H1477 0.960 . S
H1475 C1474 0.961 . S
H1476 C1474 0.961 . S
H1477 C1474 0.960 . S
C1478 N1479 1.342 . S
C1478 C1482 1.401 . S
C1478 C1483 1.499 . S
N1479 Co1462 1.989 . S
N1479 C1478 1.342 . S
N1479 N1480 1.388 . S
N1480 Co1463 1.993 . S
N1480 N1479 1.388 . S
N1480 C1481 1.346 . S
C1481 N1480 1.346 . S
C1481 C1482 1.396 . S
C1481 C1491 1.510 . S
C1482 C1478 1.401 . S
C1482 C1481 1.396 . S
C1483 C1478 1.499 . S
C1483 H1484 0.959 . S
C1483 H1485 0.960 . S
C1483 H1486 0.961 . S
H1484 C1483 0.959 . S
H1485 C1483 0.960 . S
H1486 C1483 0.961 . S
O1487 Co1462 1.967 . S
O1487 C1495 1.258 . S
O1488 Co1463 1.941 . S
O1488 C1495 1.266 . S
H1489 C1491 0.959 . S
H1490 C1491 0.961 . S
C1491 C1481 1.510 . S
C1491 H1489 0.959 . S
C1491 H1490 0.961 . S
C1491 H1492 0.960 . S
H1492 C1491 0.960 . S
H1493 N1473 0.862 . S
O1494 Co1462 1.920 . S
O1494 C1467 1.289 . S
C1495 O1487 1.258 . S
C1495 O1488 1.266 . S
Co1496 O1499 1.970 . S
Co1496 N1513 1.989 . S
Co1496 O1521 1.967 . S
Co1496 O1528 1.920 . S
Co1497 O1500 1.966 . S
Co1497 N1506 2.022 . S
Co1497 N1514 1.993 . S
Co1497 O1522 1.941 . S
C1498 O1499 1.258 . S
C1498 O1500 1.263 . S
O1499 Co1496 1.970 . S
O1499 C1498 1.258 . S
O1500 Co1497 1.966 . S
O1500 C1498 1.263 . S
C1501 O1502 1.235 1_545 S
C1501 O1528 1.289 . S
O1502 C1501 1.235 1_565 S
C1503 C1505 1.400 . S
C1503 N1506 1.351 . S
C1503 C1508 1.501 . S
C1504 C1505 1.387 . S
C1504 N1507 1.341 . S
C1505 C1503 1.400 . S
C1505 C1504 1.387 . S
N1506 Co1497 2.022 . S
N1506 C1503 1.351 . S
N1506 N1507 1.365 . S
N1507 C1504 1.341 . S
N1507 N1506 1.365 . S
N1507 H1527 0.862 . S
C1508 C1503 1.501 . S
C1508 H1509 0.961 . S
C1508 H1510 0.961 . S
C1508 H1511 0.960 . S
H1509 C1508 0.961 . S
H1510 C1508 0.961 . S
H1511 C1508 0.960 . S
C1512 N1513 1.342 . S
C1512 C1516 1.401 . S
C1512 C1517 1.499 . S
N1513 Co1496 1.989 . S
N1513 C1512 1.342 . S
N1513 N1514 1.388 . S
N1514 Co1497 1.993 . S
N1514 N1513 1.388 . S
N1514 C1515 1.346 . S
C1515 N1514 1.346 . S
C1515 C1516 1.396 . S
C1515 C1525 1.510 . S
C1516 C1512 1.401 . S
C1516 C1515 1.396 . S
C1517 C1512 1.499 . S
C1517 H1518 0.959 . S
C1517 H1519 0.960 . S
C1517 H1520 0.961 . S
H1518 C1517 0.959 . S
H1519 C1517 0.960 . S
H1520 C1517 0.961 . S
O1521 Co1496 1.967 . S
O1521 C1529 1.258 . S
O1522 Co1497 1.941 . S
O1522 C1529 1.266 . S
H1523 C1525 0.959 . S
H1524 C1525 0.961 . S
C1525 C1515 1.510 . S
C1525 H1523 0.959 . S
C1525 H1524 0.961 . S
C1525 H1526 0.960 . S
H1526 C1525 0.960 . S
H1527 N1507 0.862 . S
O1528 Co1496 1.920 . S
O1528 C1501 1.289 . S
C1529 O1521 1.258 . S
C1529 O1522 1.266 . S
Co1530 O1533 1.970 . S
Co1530 N1547 1.989 . S
Co1530 O1555 1.967 . S
Co1530 O1562 1.920 . S
Co1531 O1534 1.966 . S
Co1531 N1540 2.022 . S
Co1531 N1548 1.993 . S
Co1531 O1556 1.941 . S
C1532 O1533 1.258 . S
C1532 O1534 1.263 . S
O1533 Co1530 1.970 . S
O1533 C1532 1.258 . S
O1534 Co1531 1.966 . S
O1534 C1532 1.263 . S
C1535 O1536 1.235 1_455 S
C1535 O1562 1.289 . S
O1536 C1535 1.235 1_655 S
C1537 C1539 1.400 . S
C1537 N1540 1.351 . S
C1537 C1542 1.501 . S
C1538 C1539 1.387 . S
C1538 N1541 1.341 . S
C1539 C1537 1.400 . S
C1539 C1538 1.387 . S
N1540 Co1531 2.022 . S
N1540 C1537 1.351 . S
N1540 N1541 1.365 . S
N1541 C1538 1.341 . S
N1541 N1540 1.365 . S
N1541 H1561 0.862 . S
C1542 C1537 1.501 . S
C1542 H1543 0.961 . S
C1542 H1544 0.961 . S
C1542 H1545 0.960 . S
H1543 C1542 0.961 . S
H1544 C1542 0.961 . S
H1545 C1542 0.960 . S
C1546 N1547 1.342 . S
C1546 C1550 1.401 . S
C1546 C1551 1.499 . S
N1547 Co1530 1.989 . S
N1547 C1546 1.342 . S
N1547 N1548 1.388 . S
N1548 Co1531 1.993 . S
N1548 N1547 1.388 . S
N1548 C1549 1.346 . S
C1549 N1548 1.346 . S
C1549 C1550 1.396 . S
C1549 C1559 1.510 . S
C1550 C1546 1.401 . S
C1550 C1549 1.396 . S
C1551 C1546 1.499 . S
C1551 H1552 0.959 . S
C1551 H1553 0.960 . S
C1551 H1554 0.961 . S
H1552 C1551 0.959 . S
H1553 C1551 0.960 . S
H1554 C1551 0.961 . S
O1555 Co1530 1.967 . S
O1555 C1563 1.258 . S
O1556 Co1531 1.941 . S
O1556 C1563 1.266 . S
H1557 C1559 0.959 . S
H1558 C1559 0.961 . S
C1559 C1549 1.510 . S
C1559 H1557 0.959 . S
C1559 H1558 0.961 . S
C1559 H1560 0.960 . S
H1560 C1559 0.960 . S
H1561 N1541 0.862 . S
O1562 Co1530 1.920 . S
O1562 C1535 1.289 . S
C1563 O1555 1.258 . S
C1563 O1556 1.266 . S
Co1564 O1567 1.970 . S
Co1564 N1581 1.989 . S
Co1564 O1589 1.967 . S
Co1564 O1596 1.920 . S
Co1565 O1568 1.966 . S
Co1565 N1574 2.022 . S
Co1565 N1582 1.993 . S
Co1565 O1590 1.941 . S
C1566 O1567 1.258 . S
C1566 O1568 1.263 . S
O1567 Co1564 1.970 . S
O1567 C1566 1.258 . S
O1568 Co1565 1.966 . S
O1568 C1566 1.263 . S
C1569 O1570 1.235 1_545 S
C1569 O1596 1.289 . S
O1570 C1569 1.235 1_565 S
C1571 C1573 1.400 . S
C1571 N1574 1.351 . S
C1571 C1576 1.501 . S
C1572 C1573 1.387 . S
C1572 N1575 1.341 . S
C1573 C1571 1.400 . S
C1573 C1572 1.387 . S
N1574 Co1565 2.022 . S
N1574 C1571 1.351 . S
N1574 N1575 1.365 . S
N1575 C1572 1.341 . S
N1575 N1574 1.365 . S
N1575 H1595 0.862 . S
C1576 C1571 1.501 . S
C1576 H1577 0.961 . S
C1576 H1578 0.961 . S
C1576 H1579 0.960 . S
H1577 C1576 0.961 . S
H1578 C1576 0.961 . S
H1579 C1576 0.960 . S
C1580 N1581 1.342 . S
C1580 C1584 1.401 . S
C1580 C1585 1.499 . S
N1581 Co1564 1.989 . S
N1581 C1580 1.342 . S
N1581 N1582 1.388 . S
N1582 Co1565 1.993 . S
N1582 N1581 1.388 . S
N1582 C1583 1.346 . S
C1583 N1582 1.346 . S
C1583 C1584 1.396 . S
C1583 C1593 1.510 . S
C1584 C1580 1.401 . S
C1584 C1583 1.396 . S
C1585 C1580 1.499 . S
C1585 H1586 0.959 . S
C1585 H1587 0.960 . S
C1585 H1588 0.961 . S
H1586 C1585 0.959 . S
H1587 C1585 0.960 . S
H1588 C1585 0.961 . S
O1589 Co1564 1.967 . S
O1589 C1597 1.258 . S
O1590 Co1565 1.941 . S
O1590 C1597 1.266 . S
H1591 C1593 0.959 . S
H1592 C1593 0.961 . S
C1593 C1583 1.510 . S
C1593 H1591 0.959 . S
C1593 H1592 0.961 . S
C1593 H1594 0.960 . S
H1594 C1593 0.960 . S
H1595 N1575 0.862 . S
O1596 Co1564 1.920 . S
O1596 C1569 1.289 . S
C1597 O1589 1.258 . S
C1597 O1590 1.266 . S
Co1598 O1601 1.970 . S
Co1598 N1615 1.989 . S
Co1598 O1623 1.967 . S
Co1598 O1630 1.920 . S
Co1599 O1602 1.966 . S
Co1599 N1608 2.022 . S
Co1599 N1616 1.993 . S
Co1599 O1624 1.941 . S
C1600 O1601 1.258 . S
C1600 O1602 1.263 . S
O1601 Co1598 1.970 . S
O1601 C1600 1.258 . S
O1602 Co1599 1.966 . S
O1602 C1600 1.263 . S
C1603 O1604 1.235 1_565 S
C1603 O1630 1.289 . S
O1604 C1603 1.235 1_545 S
C1605 C1607 1.400 . S
C1605 N1608 1.351 . S
C1605 C1610 1.501 . S
C1606 C1607 1.387 . S
C1606 N1609 1.341 . S
C1607 C1605 1.400 . S
C1607 C1606 1.387 . S
N1608 Co1599 2.022 . S
N1608 C1605 1.351 . S
N1608 N1609 1.365 . S
N1609 C1606 1.341 . S
N1609 N1608 1.365 . S
N1609 H1629 0.862 . S
C1610 C1605 1.501 . S
C1610 H1611 0.961 . S
C1610 H1612 0.961 . S
C1610 H1613 0.960 . S
H1611 C1610 0.961 . S
H1612 C1610 0.961 . S
H1613 C1610 0.960 . S
C1614 N1615 1.342 . S
C1614 C1618 1.401 . S
C1614 C1619 1.499 . S
N1615 Co1598 1.989 . S
N1615 C1614 1.342 . S
N1615 N1616 1.388 . S
N1616 Co1599 1.993 . S
N1616 N1615 1.388 . S
N1616 C1617 1.346 . S
C1617 N1616 1.346 . S
C1617 C1618 1.396 . S
C1617 C1627 1.510 . S
C1618 C1614 1.401 . S
C1618 C1617 1.396 . S
C1619 C1614 1.499 . S
C1619 H1620 0.959 . S
C1619 H1621 0.960 . S
C1619 H1622 0.961 . S
H1620 C1619 0.959 . S
H1621 C1619 0.960 . S
H1622 C1619 0.961 . S
O1623 Co1598 1.967 . S
O1623 C1631 1.258 . S
O1624 Co1599 1.941 . S
O1624 C1631 1.266 . S
H1625 C1627 0.959 . S
H1626 C1627 0.961 . S
C1627 C1617 1.510 . S
C1627 H1625 0.959 . S
C1627 H1626 0.961 . S
C1627 H1628 0.960 . S
H1628 C1627 0.960 . S
H1629 N1609 0.862 . S
O1630 Co1598 1.920 . S
O1630 C1603 1.289 . S
C1631 O1623 1.258 . S
C1631 O1624 1.266 . S
C1087 C33 1.680 . S
C67 C985 1.680 . S
C101 C1019 1.680 . S
C1053 C135 1.680 . S
C883 C169 1.680 . S
C917 C203 1.680 . S
C237 C951 1.680 . S
C271 C849 1.680 . S
C305 C1529 1.680 . S
C339 C1427 1.680 . S
C373 C1461 1.680 . S
C407 C1495 1.680 . S
C1631 C441 1.680 . S
C475 C1563 1.680 . S
C509 C1597 1.680 . S
C1393 C543 1.680 . S
C577 C1359 1.680 . S
C1155 C611 1.680 . S
C1189 C645 1.680 . S
C1223 C679 1.680 . S
C713 C1121 1.680 . S
C747 C1291 1.680 . S
C1325 C781 1.680 . S
C815 C1257 1.680 . S
C70 C2 2.873 1_655 S
C36 C104 2.873 1_545 S
C206 C138 2.873 1_655 S
C240 C172 2.873 1_565 S
C274 C410 2.873 1_545 S
C444 C308 2.873 1_455 S
C478 C342 2.873 1_545 S
C512 C376 2.873 1_655 S
C648 C546 2.873 1_556 S
C580 C716 2.873 1_556 S
C614 C750 2.873 1_556 S
C682 C784 2.873 1_556 S
C886 C818 2.873 1_545 S
C920 C852 2.873 1_655 S
C1022 C954 2.873 1_565 S
C1056 C988 2.873 1_455 S
C1090 C1226 2.873 1_556 S
C1124 C1260 2.873 1_556 S
C1294 C1158 2.873 1_554 S
C1328 C1192 2.873 1_554 S
C1362 C1464 2.873 1_655 S
C1532 C1396 2.873 1_455 S
C1566 C1430 2.873 1_545 S
C1600 C1498 2.873 1_565 S
C753 C5 1.392 . S
C39 C549 1.392 . S
C73 C787 1.392 . S
C107 C719 1.392 . S
C141 C617 1.392 . S
C651 C175 1.392 . S
C209 C685 1.392 . S
C243 C583 1.392 . S
C277 C447 1.392 . S
C481 C311 1.392 . S
C515 C345 1.392 . S
C413 C379 1.392 . S
C821 C1569 1.392 1_565 S
C1365 C855 1.392 1_655 S
C1603 C889 1.392 1_565 S
C923 C1535 1.392 1_655 S
C1433 C957 1.392 1_565 S
C1467 C991 1.392 1_455 S
C1501 C1025 1.392 1_545 S
C1059 C1399 1.392 1_455 S
C1093 C1263 1.392 1_556 S
C1127 C1297 1.392 1_556 S
C1331 C1161 1.392 1_554 S
C1229 C1195 1.392 1_554 S
C20 C621 3.123 . S
C655 C54 3.123 . S
C88 C689 3.123 . S
C587 C122 3.123 . S
C156 C757 3.123 . S
C553 C190 3.123 . S
C791 C224 3.123 . S
C258 C723 3.123 . S
C315 C292 3.123 . S
C326 C349 3.123 . S
C360 C383 3.123 . S
C281 C394 3.123 . S
C428 C519 3.123 . S
C462 C417 3.123 . S
C496 C451 3.123 . S
C485 C530 3.123 . S
C111 C564 3.123 . S
C598 C179 3.123 . S
C213 C632 3.123 . S
C247 C666 3.123 . S
C700 C145 3.123 . S
C43 C734 3.123 . S
C768 C77 3.123 . S
C9 C802 3.123 . S
C836 C1437 3.123 . S
C1471 C870 3.123 . S
C904 C1505 3.123 . S
C1403 C938 3.123 . S
C972 C1573 3.123 . S
C1006 C1369 3.123 . S
C1040 C1607 3.123 . S
C1539 C1074 3.123 . S
C1108 C1131 3.123 . S
C1165 C1142 3.123 . S
C1199 C1176 3.123 . S
C1210 C1097 3.123 . S
C1244 C1335 3.123 . S
C1278 C1233 3.123 . S
C1312 C1267 3.123 . S
C1346 C1301 3.123 . S
C1380 C927 3.123 . S
C995 C1414 3.123 . S
C1029 C1448 3.123 . S
C1063 C1482 3.123 . S
C961 C1516 3.123 . S
C859 C1550 3.123 . S
C893 C1584 3.123 . S
C825 C1618 3.123 . S
