# Generated by pormake.
# Topology uox, (4)-cn, num edge types: 1
# Building blocks:
#     Node 0, Type 0, BuildingBlock: KUFVIS_clean_sbu_0, # of connection points: 4
#     Node 1, Type 0, BuildingBlock: KUFVIS_clean_sbu_0, # of connection points: 4
#     Node 2, Type 0, BuildingBlock: KUFVIS_clean_sbu_0, # of connection points: 4
#     Node 3, Type 0, BuildingBlock: KUFVIS_clean_sbu_0, # of connection points: 4
#     Node 4, Type 0, BuildingBlock: KUFVIS_clean_sbu_0, # of connection points: 4
#     Node 5, Type 0, BuildingBlock: KUFVIS_clean_sbu_0, # of connection points: 4
#     Node 6, Type 0, BuildingBlock: KUFVIS_clean_sbu_0, # of connection points: 4
#     Node 7, Type 0, BuildingBlock: KUFVIS_clean_sbu_0, # of connection points: 4
#     Node 8, Type 0, BuildingBlock: KUFVIS_clean_sbu_0, # of connection points: 4
#     Node 9, Type 0, BuildingBlock: KUFVIS_clean_sbu_0, # of connection points: 4
#     Node 10, Type 0, BuildingBlock: KUFVIS_clean_sbu_0, # of connection points: 4
#     Node 11, Type 0, BuildingBlock: KUFVIS_clean_sbu_0, # of connection points: 4
#     Node 12, Type 0, BuildingBlock: KUFVIS_clean_sbu_0, # of connection points: 4
#     Node 13, Type 0, BuildingBlock: KUFVIS_clean_sbu_0, # of connection points: 4
#     Node 14, Type 0, BuildingBlock: KUFVIS_clean_sbu_0, # of connection points: 4
#     Node 15, Type 0, BuildingBlock: KUFVIS_clean_sbu_0, # of connection points: 4
#     Node 16, Type 0, BuildingBlock: KUFVIS_clean_sbu_0, # of connection points: 4
#     Node 17, Type 0, BuildingBlock: KUFVIS_clean_sbu_0, # of connection points: 4
#     Node 18, Type 0, BuildingBlock: KUFVIS_clean_sbu_0, # of connection points: 4
#     Node 19, Type 0, BuildingBlock: KUFVIS_clean_sbu_0, # of connection points: 4
#     Node 20, Type 0, BuildingBlock: KUFVIS_clean_sbu_0, # of connection points: 4
#     Node 21, Type 0, BuildingBlock: KUFVIS_clean_sbu_0, # of connection points: 4
#     Node 22, Type 0, BuildingBlock: KUFVIS_clean_sbu_0, # of connection points: 4
#     Node 23, Type 0, BuildingBlock: KUFVIS_clean_sbu_0, # of connection points: 4
#     Node 24, Type 0, BuildingBlock: KUFVIS_clean_sbu_0, # of connection points: 4
#     Node 25, Type 0, BuildingBlock: KUFVIS_clean_sbu_0, # of connection points: 4
#     Node 26, Type 0, BuildingBlock: KUFVIS_clean_sbu_0, # of connection points: 4
#     Node 27, Type 0, BuildingBlock: KUFVIS_clean_sbu_0, # of connection points: 4
#     Node 28, Type 0, BuildingBlock: KUFVIS_clean_sbu_0, # of connection points: 4
#     Node 29, Type 0, BuildingBlock: KUFVIS_clean_sbu_0, # of connection points: 4
#     Node 30, Type 0, BuildingBlock: KUFVIS_clean_sbu_0, # of connection points: 4
#     Node 31, Type 0, BuildingBlock: KUFVIS_clean_sbu_0, # of connection points: 4
#     Edge 32, Type (0, 0), BuildingBlock: UVAHIK_clean_linker_0, # of connection points: 2
#     Edge 33, Type (0, 0), BuildingBlock: UVAHIK_clean_linker_0, # of connection points: 2
#     Edge 34, Type (0, 0), BuildingBlock: UVAHIK_clean_linker_0, # of connection points: 2
#     Edge 35, Type (0, 0), BuildingBlock: UVAHIK_clean_linker_0, # of connection points: 2
#     Edge 36, Type (0, 0), BuildingBlock: UVAHIK_clean_linker_0, # of connection points: 2
#     Edge 37, Type (0, 0), BuildingBlock: UVAHIK_clean_linker_0, # of connection points: 2
#     Edge 38, Type (0, 0), BuildingBlock: UVAHIK_clean_linker_0, # of connection points: 2
#     Edge 39, Type (0, 0), BuildingBlock: UVAHIK_clean_linker_0, # of connection points: 2
#     Edge 40, Type (0, 0), BuildingBlock: UVAHIK_clean_linker_0, # of connection points: 2
#     Edge 41, Type (0, 0), BuildingBlock: UVAHIK_clean_linker_0, # of connection points: 2
#     Edge 42, Type (0, 0), BuildingBlock: UVAHIK_clean_linker_0, # of connection points: 2
#     Edge 43, Type (0, 0), BuildingBlock: UVAHIK_clean_linker_0, # of connection points: 2
#     Edge 44, Type (0, 0), BuildingBlock: UVAHIK_clean_linker_0, # of connection points: 2
#     Edge 45, Type (0, 0), BuildingBlock: UVAHIK_clean_linker_0, # of connection points: 2
#     Edge 46, Type (0, 0), BuildingBlock: UVAHIK_clean_linker_0, # of connection points: 2
#     Edge 47, Type (0, 0), BuildingBlock: UVAHIK_clean_linker_0, # of connection points: 2
#     Edge 48, Type (0, 0), BuildingBlock: UVAHIK_clean_linker_0, # of connection points: 2
#     Edge 49, Type (0, 0), BuildingBlock: UVAHIK_clean_linker_0, # of connection points: 2
#     Edge 50, Type (0, 0), BuildingBlock: UVAHIK_clean_linker_0, # of connection points: 2
#     Edge 51, Type (0, 0), BuildingBlock: UVAHIK_clean_linker_0, # of connection points: 2
#     Edge 52, Type (0, 0), BuildingBlock: UVAHIK_clean_linker_0, # of connection points: 2
#     Edge 53, Type (0, 0), BuildingBlock: UVAHIK_clean_linker_0, # of connection points: 2
#     Edge 54, Type (0, 0), BuildingBlock: UVAHIK_clean_linker_0, # of connection points: 2
#     Edge 55, Type (0, 0), BuildingBlock: UVAHIK_clean_linker_0, # of connection points: 2
#     Edge 56, Type (0, 0), BuildingBlock: UVAHIK_clean_linker_0, # of connection points: 2
#     Edge 57, Type (0, 0), BuildingBlock: UVAHIK_clean_linker_0, # of connection points: 2
#     Edge 58, Type (0, 0), BuildingBlock: UVAHIK_clean_linker_0, # of connection points: 2
#     Edge 59, Type (0, 0), BuildingBlock: UVAHIK_clean_linker_0, # of connection points: 2
#     Edge 60, Type (0, 0), BuildingBlock: UVAHIK_clean_linker_0, # of connection points: 2
#     Edge 61, Type (0, 0), BuildingBlock: UVAHIK_clean_linker_0, # of connection points: 2
#     Edge 62, Type (0, 0), BuildingBlock: UVAHIK_clean_linker_0, # of connection points: 2
#     Edge 63, Type (0, 0), BuildingBlock: UVAHIK_clean_linker_0, # of connection points: 2
#     Edge 64, Type (0, 0), BuildingBlock: UVAHIK_clean_linker_0, # of connection points: 2
#     Edge 65, Type (0, 0), BuildingBlock: UVAHIK_clean_linker_0, # of connection points: 2
#     Edge 66, Type (0, 0), BuildingBlock: UVAHIK_clean_linker_0, # of connection points: 2
#     Edge 67, Type (0, 0), BuildingBlock: UVAHIK_clean_linker_0, # of connection points: 2
#     Edge 68, Type (0, 0), BuildingBlock: UVAHIK_clean_linker_0, # of connection points: 2
#     Edge 69, Type (0, 0), BuildingBlock: UVAHIK_clean_linker_0, # of connection points: 2
#     Edge 70, Type (0, 0), BuildingBlock: UVAHIK_clean_linker_0, # of connection points: 2
#     Edge 71, Type (0, 0), BuildingBlock: UVAHIK_clean_linker_0, # of connection points: 2
#     Edge 72, Type (0, 0), BuildingBlock: UVAHIK_clean_linker_0, # of connection points: 2
#     Edge 73, Type (0, 0), BuildingBlock: UVAHIK_clean_linker_0, # of connection points: 2
#     Edge 74, Type (0, 0), BuildingBlock: UVAHIK_clean_linker_0, # of connection points: 2
#     Edge 75, Type (0, 0), BuildingBlock: UVAHIK_clean_linker_0, # of connection points: 2
#     Edge 76, Type (0, 0), BuildingBlock: UVAHIK_clean_linker_0, # of connection points: 2
#     Edge 77, Type (0, 0), BuildingBlock: UVAHIK_clean_linker_0, # of connection points: 2
#     Edge 78, Type (0, 0), BuildingBlock: UVAHIK_clean_linker_0, # of connection points: 2
#     Edge 79, Type (0, 0), BuildingBlock: UVAHIK_clean_linker_0, # of connection points: 2
#     Edge 80, Type (0, 0), BuildingBlock: UVAHIK_clean_linker_0, # of connection points: 2
#     Edge 81, Type (0, 0), BuildingBlock: UVAHIK_clean_linker_0, # of connection points: 2
#     Edge 82, Type (0, 0), BuildingBlock: UVAHIK_clean_linker_0, # of connection points: 2
#     Edge 83, Type (0, 0), BuildingBlock: UVAHIK_clean_linker_0, # of connection points: 2
#     Edge 84, Type (0, 0), BuildingBlock: UVAHIK_clean_linker_0, # of connection points: 2
#     Edge 85, Type (0, 0), BuildingBlock: UVAHIK_clean_linker_0, # of connection points: 2
#     Edge 86, Type (0, 0), BuildingBlock: UVAHIK_clean_linker_0, # of connection points: 2
#     Edge 87, Type (0, 0), BuildingBlock: UVAHIK_clean_linker_0, # of connection points: 2
#     Edge 88, Type (0, 0), BuildingBlock: UVAHIK_clean_linker_0, # of connection points: 2
#     Edge 89, Type (0, 0), BuildingBlock: UVAHIK_clean_linker_0, # of connection points: 2
#     Edge 90, Type (0, 0), BuildingBlock: UVAHIK_clean_linker_0, # of connection points: 2
#     Edge 91, Type (0, 0), BuildingBlock: UVAHIK_clean_linker_0, # of connection points: 2
#     Edge 92, Type (0, 0), BuildingBlock: UVAHIK_clean_linker_0, # of connection points: 2
#     Edge 93, Type (0, 0), BuildingBlock: UVAHIK_clean_linker_0, # of connection points: 2
#     Edge 94, Type (0, 0), BuildingBlock: UVAHIK_clean_linker_0, # of connection points: 2
#     Edge 95, Type (0, 0), BuildingBlock: UVAHIK_clean_linker_0, # of connection points: 2
# Relax obj value: 0.069
# Max RMSD: 0.100
# Mean RMSD: 0.100
data_MOF--net-uox--node1-KUFVIS_clean_sbu_0--edge1-UVAHIK_clean_linker_0
_symmetry_space_group_name_H-M    P1
_symmetry_Int_Tables_number       1
_symmetry_cell_setting            triclinic
loop_
_symmetry_equiv_pos_as_xyz
'x, y, z'
_cell_length_a     59.445329
_cell_length_b     59.448672
_cell_length_c     99.620167
_cell_angle_alpha  90.001775
_cell_angle_beta   90.005539
_cell_angle_gamma 89.998533
loop_
_atom_site_label
_atom_site_type_symbol
_atom_site_fract_x
_atom_site_fract_y
_atom_site_fract_z
_atom_type_partial_charge
Mn0 Mn 0.4173 0.05503 0.15658 0.0
Mn1 Mn 0.45123 0.00983 0.15341 0.0
C2 C 0.45571 0.05994 0.15446 0.0
C3 C 0.3942 0.08251 0.14716 0.0
C4 C 0.43022 0.02411 0.17984 0.0
O5 O 0.39557 0.02988 0.15151 0.0
O6 O 0.42014 0.00164 0.14787 0.0
C7 C 0.4503 0.0048 0.12385 0.0
N8 N 0.46216 0.00779 0.13541 0.0
C9 C 0.49723 0.00827 0.12336 0.0
C10 C 0.4854 0.00506 0.11133 0.0
C11 C 0.46183 0.00336 0.11158 0.0
C12 C 0.48484 0.00946 0.13529 0.0
H13 H 0.43217 0.00357 0.124 0.0
C14 C 0.40016 0.00981 0.14783 0.0
O15 O 0.39212 0.07648 0.15963 0.0
O16 O 0.40929 0.07212 0.14008 0.0
N17 N 0.48183 0.01562 0.15828 0.0
C18 C 0.49059 0.02002 0.17065 0.0
C19 C 0.51391 0.0229 0.17208 0.0
C20 C 0.52799 0.02109 0.16081 0.0
C21 C 0.51862 0.01634 0.14821 0.0
C22 C 0.49527 0.01349 0.14741 0.0
H23 H 0.47985 0.02147 0.17935 0.0
O24 O 0.44333 0.07567 0.15966 0.0
O25 O 0.44519 0.04191 0.15057 0.0
O26 O 0.42086 0.04195 0.17545 0.0
O27 O 0.44131 0.0106 0.17237 0.0
C28 C 0.53148 0.01474 0.13637 0.0
C29 C 0.52079 0.01076 0.12395 0.0
H30 H 0.49423 0.00407 0.10183 0.0
H31 H 0.45258 0.001 0.10233 0.0
H32 H 0.52101 0.0266 0.18184 0.0
H33 H 0.54595 0.02352 0.16193 0.0
H34 H 0.54956 0.01688 0.13668 0.0
H35 H 0.53083 0.00993 0.11489 0.0
Mn36 Mn 0.19231 0.16747 0.40803 0.0
Mn37 Mn 0.23752 0.20132 0.40457 0.0
C38 C 0.1874 0.20578 0.40537 0.0
C39 C 0.16495 0.14404 0.39874 0.0
C40 C 0.22295 0.18142 0.43125 0.0
O41 O 0.21751 0.14555 0.4034 0.0
O42 O 0.24589 0.16995 0.39975 0.0
C43 C 0.24293 0.19875 0.37508 0.0
N44 N 0.23983 0.21124 0.38638 0.0
C45 C 0.23958 0.24564 0.37364 0.0
C46 C 0.24292 0.23315 0.36187 0.0
C47 C 0.24456 0.2096 0.36259 0.0
C48 C 0.23819 0.2339 0.3858 0.0
H49 H 0.24412 0.18064 0.37559 0.0
C50 C 0.23773 0.14998 0.39995 0.0
O51 O 0.17077 0.14239 0.41127 0.0
O52 O 0.17547 0.15888 0.39155 0.0
N53 N 0.2317 0.23217 0.40881 0.0
C54 C 0.22725 0.24161 0.42099 0.0
C55 C 0.22447 0.26501 0.42196 0.0
C56 C 0.22646 0.27847 0.41043 0.0
C57 C 0.23129 0.26839 0.39803 0.0
C58 C 0.23402 0.245 0.3977 0.0
H59 H 0.22569 0.23135 0.42989 0.0
O60 O 0.17161 0.19359 0.41066 0.0
O61 O 0.20548 0.19513 0.40169 0.0
O62 O 0.20522 0.17173 0.42693 0.0
O63 O 0.23641 0.19238 0.42369 0.0
C64 C 0.23311 0.28059 0.38596 0.0
C65 C 0.23718 0.26922 0.37377 0.0
H66 H 0.24407 0.24144 0.35221 0.0
H67 H 0.24702 0.19983 0.35354 0.0
H68 H 0.22073 0.27266 0.43156 0.0
H69 H 0.22411 0.29649 0.41119 0.0
H70 H 0.23107 0.2987 0.38591 0.0
H71 H 0.23818 0.27875 0.36452 0.0
Mn72 Mn 0.08158 0.94202 0.65741 0.0
Mn73 Mn 0.04751 0.9869 0.65355 0.0
C74 C 0.04322 0.93678 0.65504 0.0
C75 C 0.1051 0.9147 0.64818 0.0
C76 C 0.06853 0.97355 0.68022 0.0
O77 O 0.10322 0.96738 0.65248 0.0
O78 O 0.07839 0.9949 0.64756 0.0
C79 C 0.04757 0.99037 0.62391 0.0
N80 N 0.03605 0.9881 0.63564 0.0
C81 C 0.00061 0.98732 0.62398 0.0
C82 C 0.01208 0.98989 0.61178 0.0
C83 C 0.03567 0.99135 0.61175 0.0
C84 C 0.01336 0.98656 0.63579 0.0
H85 H 0.06571 0.99133 0.62383 0.0
C86 C 0.09845 0.98699 0.64805 0.0
O87 O 0.10689 0.92076 0.66066 0.0
O88 O 0.09006 0.92496 0.641 0.0
N89 N 0.01707 0.98119 0.65882 0.0
C90 C 0.0087 0.97715 0.67133 0.0
C91 C 0.98542 0.97435 0.67304 0.0
C92 C 0.97099 0.97587 0.66191 0.0
C93 C 0.97998 0.98021 0.64916 0.0
C94 C 0.0033 0.98298 0.64808 0.0
H95 H 0.01969 0.97596 0.67992 0.0
O96 O 0.05562 0.92115 0.66033 0.0
O97 O 0.05372 0.9548 0.65115 0.0
O98 O 0.07746 0.95527 0.67618 0.0
O99 O 0.05795 0.98703 0.67246 0.0
C100 C 0.96675 0.98148 0.63745 0.0
C101 C 0.97706 0.98497 0.62487 0.0
H102 H 0.00297 0.99052 0.60237 0.0
H103 H 0.04466 0.99316 0.60236 0.0
H104 H 0.97861 0.97096 0.68291 0.0
H105 H 0.95306 0.97351 0.66326 0.0
H106 H 0.94867 0.9794 0.63798 0.0
H107 H 0.96675 0.98549 0.61591 0.0
Mn108 Mn 0.3056 0.83133 0.90628 0.0
Mn109 Mn 0.26122 0.7967 0.9022 0.0
C110 C 0.31135 0.79313 0.90363 0.0
C111 C 0.33273 0.85517 0.89718 0.0
C112 C 0.27423 0.81747 0.92899 0.0
O113 O 0.27999 0.8527 0.90143 0.0
O114 O 0.25273 0.8276 0.89643 0.0
C115 C 0.25762 0.79732 0.87257 0.0
N116 N 0.26018 0.78559 0.88421 0.0
C117 C 0.26203 0.75047 0.87225 0.0
C118 C 0.25915 0.76215 0.86014 0.0
C119 C 0.25699 0.78568 0.8603 0.0
C120 C 0.26231 0.76295 0.88417 0.0
H121 H 0.25618 0.81542 0.87263 0.0
C122 C 0.26042 0.84774 0.897 0.0
O123 O 0.32662 0.8568 0.90966 0.0
O124 O 0.32256 0.84018 0.88992 0.0
N125 N 0.26751 0.76626 0.90724 0.0
C126 C 0.27185 0.75772 0.91967 0.0
C127 C 0.27541 0.7345 0.92118 0.0
C128 C 0.2744 0.72031 0.90992 0.0
C129 C 0.26976 0.72946 0.89725 0.0
C130 C 0.26616 0.7527 0.89637 0.0
H131 H 0.27273 0.76854 0.92835 0.0
O132 O 0.32679 0.80558 0.90907 0.0
O133 O 0.29319 0.80348 0.89984 0.0
O134 O 0.29236 0.82677 0.92501 0.0
O135 O 0.26094 0.80676 0.92119 0.0
C136 C 0.2691 0.71651 0.88541 0.0
C137 C 0.26523 0.727 0.87292 0.0
H138 H 0.25886 0.75326 0.85065 0.0
H139 H 0.25496 0.79484 0.85099 0.0
H140 H 0.27904 0.72758 0.93099 0.0
H141 H 0.27742 0.70245 0.91111 0.0
H142 H 0.27192 0.69852 0.88577 0.0
H143 H 0.26513 0.71692 0.86387 0.0
Mn144 Mn 0.41778 0.94396 0.34496 0.0
Mn145 Mn 0.45162 0.98926 0.34782 0.0
C146 C 0.45622 0.93913 0.34686 0.0
C147 C 0.39494 0.91671 0.35483 0.0
C148 C 0.43017 0.97468 0.32155 0.0
O149 O 0.39608 0.96914 0.35 0.0
O150 O 0.42064 0.9974 0.35359 0.0
C151 C 0.45136 0.99442 0.37737 0.0
N152 N 0.46296 0.99141 0.36572 0.0
C153 C 0.4983 0.99102 0.37749 0.0
C154 C 0.48674 0.99426 0.38961 0.0
C155 C 0.46317 0.99593 0.38954 0.0
C156 C 0.48564 0.98978 0.36566 0.0
H157 H 0.43323 0.99563 0.37736 0.0
C158 C 0.40068 0.9892 0.35369 0.0
O159 O 0.39257 0.92232 0.34231 0.0
O160 O 0.41018 0.92733 0.36166 0.0
N161 N 0.48212 0.98352 0.3427 0.0
C162 C 0.4906 0.97908 0.33027 0.0
C163 C 0.51389 0.97623 0.32866 0.0
C164 C 0.52823 0.9781 0.33982 0.0
C165 C 0.51913 0.98288 0.35248 0.0
C166 C 0.4958 0.98571 0.35346 0.0
H167 H 0.47967 0.97759 0.32166 0.0
O168 O 0.44378 0.92329 0.34185 0.0
O169 O 0.44574 0.95719 0.35073 0.0
O170 O 0.42102 0.95675 0.32598 0.0
O171 O 0.44124 0.98831 0.32895 0.0
C172 C 0.53226 0.98453 0.36422 0.0
C173 C 0.52185 0.98854 0.37672 0.0
H174 H 0.49578 0.9953 0.39903 0.0
H175 H 0.45412 0.99831 0.39886 0.0
H176 H 0.52078 0.97251 0.31885 0.0
H177 H 0.54616 0.97567 0.33856 0.0
H178 H 0.55034 0.98239 0.36377 0.0
H179 H 0.53208 0.98942 0.3857 0.0
Mn180 Mn 0.30686 0.16762 0.59566 0.0
Mn181 Mn 0.26178 0.20155 0.59903 0.0
C182 C 0.31189 0.20606 0.59762 0.0
C183 C 0.33417 0.14465 0.60538 0.0
C184 C 0.2755 0.17987 0.57262 0.0
O185 O 0.28157 0.14599 0.60069 0.0
O186 O 0.25388 0.17078 0.60531 0.0
C187 C 0.25808 0.20226 0.62866 0.0
N188 N 0.26039 0.21348 0.61682 0.0
C189 C 0.26109 0.24922 0.62816 0.0
C190 C 0.25847 0.23807 0.64046 0.0
C191 C 0.25702 0.21448 0.64071 0.0
C192 C 0.26189 0.23616 0.61647 0.0
H193 H 0.25715 0.18413 0.62891 0.0
C194 C 0.2619 0.15076 0.60501 0.0
O195 O 0.32842 0.14235 0.59287 0.0
O196 O 0.32362 0.15985 0.61228 0.0
N197 N 0.26736 0.23187 0.59348 0.0
C198 C 0.27142 0.23992 0.5809 0.0
C199 C 0.27418 0.26316 0.57898 0.0
C200 C 0.27262 0.27787 0.58997 0.0
C201 C 0.26825 0.26921 0.6028 0.0
C202 C 0.2655 0.24591 0.60409 0.0
H203 H 0.27265 0.22871 0.57241 0.0
O204 O 0.32764 0.19358 0.59254 0.0
O205 O 0.29388 0.19559 0.60156 0.0
O206 O 0.29381 0.17113 0.57678 0.0
O207 O 0.2619 0.19058 0.58023 0.0
C208 C 0.26697 0.28273 0.61439 0.0
C209 C 0.26344 0.27274 0.62706 0.0
H210 H 0.2578 0.24742 0.64978 0.0
H211 H 0.25518 0.20574 0.65017 0.0
H212 H 0.27758 0.26971 0.56905 0.0
H213 H 0.27496 0.29576 0.58846 0.0
H214 H 0.26905 0.30079 0.61369 0.0
H215 H 0.26289 0.28328 0.63592 0.0
Mn216 Mn 0.08171 0.05772 0.84462 0.0
Mn217 Mn 0.0469 0.01334 0.84801 0.0
C218 C 0.04349 0.06352 0.84724 0.0
C219 C 0.10557 0.08424 0.85436 0.0
C220 C 0.06813 0.0272 0.82148 0.0
O221 O 0.10292 0.0318 0.84916 0.0
O222 O 0.07763 0.0046 0.85392 0.0
C223 C 0.04684 0.00882 0.8776 0.0
N224 N 0.03538 0.01177 0.8659 0.0
C225 C -1e-05 0.01326 0.87759 0.0
C226 C 0.01139 0.00998 0.88975 0.0
C227 C 0.03493 0.00781 0.88976 0.0
C228 C 0.01274 0.01393 0.86578 0.0
H229 H 0.06494 0.00736 0.87766 0.0
C230 C 0.09782 0.01217 0.85344 0.0
O231 O 0.10735 0.07884 0.84176 0.0
O232 O 0.0904 0.07377 0.86132 0.0
N233 N 0.01658 0.01989 0.8428 0.0
C234 C 0.00832 0.02461 0.83036 0.0
C235 C 0.98514 0.02823 0.8287 0.0
C236 C 0.97069 0.02686 0.83982 0.0
C237 C 0.97956 0.02182 0.85251 0.0
C238 C 0.00277 0.01819 0.85354 0.0
H239 H 0.01934 0.02575 0.82177 0.0
O240 O 0.05604 0.07915 0.84209 0.0
O241 O 0.05375 0.04517 0.85077 0.0
O242 O 0.07728 0.04529 0.82566 0.0
O243 O 0.05739 0.01366 0.82912 0.0
C244 C 0.96633 0.02078 0.86423 0.0
C245 C 0.97654 0.0165 0.87676 0.0
H246 H 0.00229 0.00939 0.89917 0.0
H247 H 0.04387 0.00547 0.89912 0.0
H248 H 0.97844 0.03216 0.81887 0.0
H249 H 0.95286 0.02992 0.83853 0.0
H250 H 0.94835 0.02362 0.86376 0.0
H251 H 0.96625 0.01611 0.88573 0.0
Mn252 Mn 0.19222 0.8307 0.09395 0.0
Mn253 Mn 0.23768 0.79707 0.097 0.0
C254 C 0.18755 0.79235 0.09652 0.0
C255 C 0.16502 0.85387 0.10363 0.0
C256 C 0.22242 0.81708 0.07048 0.0
O257 O 0.21741 0.85271 0.09843 0.0
O258 O 0.24596 0.82843 0.1019 0.0
C259 C 0.24362 0.79937 0.12647 0.0
N260 N 0.24036 0.78697 0.11514 0.0
C261 C 0.24042 0.75245 0.12776 0.0
C262 C 0.24392 0.76484 0.13956 0.0
C263 C 0.24548 0.7884 0.13891 0.0
C264 C 0.2388 0.7643 0.11565 0.0
H265 H 0.24474 0.81748 0.12601 0.0
C266 C 0.2377 0.84837 0.10177 0.0
O267 O 0.1704 0.85569 0.09103 0.0
O268 O 0.17586 0.83901 0.11063 0.0
N269 N 0.23194 0.76623 0.09268 0.0
C270 C 0.22734 0.75689 0.08049 0.0
C271 C 0.22463 0.73349 0.07946 0.0
C272 C 0.22683 0.71994 0.09094 0.0
C273 C 0.23181 0.72991 0.10334 0.0
C274 C 0.23448 0.7533 0.10374 0.0
H275 H 0.22562 0.76723 0.07164 0.0
O276 O 0.17158 0.80451 0.09142 0.0
O277 O 0.20567 0.80305 0.1001 0.0
O278 O 0.20469 0.82662 0.07492 0.0
O279 O 0.23613 0.8062 0.07794 0.0
C280 C 0.23383 0.7176 0.11536 0.0
C281 C 0.23807 0.72887 0.12757 0.0
H282 H 0.24525 0.75646 0.14918 0.0
H283 H 0.24807 0.79808 0.14798 0.0
H284 H 0.22077 0.72592 0.06985 0.0
H285 H 0.22451 0.70191 0.09012 0.0
H286 H 0.23182 0.69949 0.11537 0.0
H287 H 0.23923 0.71925 0.13678 0.0
Mn288 Mn 0.58201 0.94193 0.84485 0.0
Mn289 Mn 0.54707 0.986 0.84923 0.0
C290 C 0.54391 0.93583 0.84776 0.0
C291 C 0.6064 0.91508 0.85373 0.0
C292 C 0.56754 0.97333 0.8223 0.0
O293 O 0.60322 0.96776 0.84957 0.0
O294 O 0.57794 0.99468 0.85489 0.0
C295 C 0.548 0.98936 0.87887 0.0
N296 N 0.53616 0.98682 0.86727 0.0
C297 C 0.50116 0.98482 0.87935 0.0
C298 C 0.51296 0.98766 0.89142 0.0
C299 C 0.53649 0.98987 0.89118 0.0
C300 C 0.51352 0.98462 0.86739 0.0
H301 H 0.56609 0.99087 0.87874 0.0
C302 C 0.59815 0.98721 0.85412 0.0
O303 O 0.60765 0.92124 0.84124 0.0
O304 O 0.59142 0.925 0.86112 0.0
N305 N 0.51661 0.97954 0.8443 0.0
C306 C 0.50794 0.97531 0.83188 0.0
C307 C 0.48471 0.97176 0.83045 0.0
C308 C 0.47063 0.97268 0.84175 0.0
C309 C 0.47991 0.97721 0.85441 0.0
C310 C 0.50315 0.98081 0.85521 0.0
H311 H 0.51867 0.97453 0.82316 0.0
O312 O 0.55639 0.9205 0.84224 0.0
O313 O 0.55417 0.95407 0.85149 0.0
O314 O 0.57694 0.95519 0.82617 0.0
O315 O 0.55691 0.98652 0.83021 0.0
C316 C 0.46707 0.97781 0.86629 0.0
C317 C 0.47769 0.9816 0.87875 0.0
H318 H 0.50416 0.98788 0.90094 0.0
H319 H 0.54573 0.99188 0.90046 0.0
H320 H 0.47768 0.96821 0.82065 0.0
H321 H 0.45276 0.96967 0.84063 0.0
H322 H 0.44908 0.97498 0.86598 0.0
H323 H 0.46769 0.98164 0.88784 0.0
Mn324 Mn 0.8062 0.83209 0.594 0.0
Mn325 Mn 0.76055 0.79862 0.59635 0.0
C326 C 0.8106 0.79357 0.59569 0.0
C327 C 0.83359 0.8544 0.60418 0.0
C328 C 0.77571 0.82046 0.57032 0.0
O329 O 0.78115 0.85394 0.59907 0.0
O330 O 0.7526 0.82955 0.60228 0.0
C331 C 0.75486 0.79839 0.62587 0.0
N332 N 0.758 0.78697 0.61417 0.0
C333 C 0.758 0.75142 0.62572 0.0
C334 C 0.75463 0.76279 0.63789 0.0
C335 C 0.7531 0.78638 0.63796 0.0
C336 C 0.7595 0.76428 0.61398 0.0
H337 H 0.75377 0.81652 0.62597 0.0
C338 C 0.76097 0.84944 0.6026 0.0
O339 O 0.82818 0.8571 0.59165 0.0
O340 O 0.82267 0.83917 0.61085 0.0
N341 N 0.76614 0.76816 0.59107 0.0
C342 C 0.77073 0.75988 0.57862 0.0
C343 C 0.77348 0.7366 0.57688 0.0
C344 C 0.77136 0.72209 0.58793 0.0
C345 C 0.76644 0.73099 0.60063 0.0
C346 C 0.76371 0.75431 0.60174 0.0
H347 H 0.77242 0.77095 0.57009 0.0
O348 O 0.82664 0.80592 0.59083 0.0
O349 O 0.79259 0.80418 0.59951 0.0
O350 O 0.79364 0.82938 0.57492 0.0
O351 O 0.76189 0.80933 0.57756 0.0
C352 C 0.76455 0.71767 0.61227 0.0
C353 C 0.76038 0.72789 0.62482 0.0
H354 H 0.7534 0.7536 0.64725 0.0
H355 H 0.75062 0.79527 0.64732 0.0
H356 H 0.77732 0.72986 0.56705 0.0
H357 H 0.77371 0.70416 0.58657 0.0
H358 H 0.76663 0.69959 0.61173 0.0
H359 H 0.75933 0.7175 0.63373 0.0
Mn360 Mn 0.91791 0.05692 0.34364 0.0
Mn361 Mn 0.9513 0.0114 0.34727 0.0
C362 C 0.95607 0.06149 0.34706 0.0
C363 C 0.89426 0.08427 0.35272 0.0
C364 C 0.93284 0.02679 0.3204 0.0
O365 O 0.89561 0.03178 0.34769 0.0
O366 O 0.91964 0.00308 0.35139 0.0
C367 C 0.94711 0.00505 0.37663 0.0
N368 N 0.96023 0.0085 0.36561 0.0
C369 C 0.99388 0.0085 0.37904 0.0
C370 C 0.98074 0.00479 0.39052 0.0
C371 C 0.95725 0.0031 0.3893 0.0
C372 C 0.98284 0.01014 0.36666 0.0
H373 H 0.92904 0.00384 0.37574 0.0
C374 C 0.89974 0.01141 0.35096 0.0
O375 O 0.89317 0.07872 0.34013 0.0
O376 O 0.90864 0.07345 0.3601 0.0
N377 N 0.9824 0.01725 0.3437 0.0
C378 C 0.9925 0.02215 0.33177 0.0
C379 C 0.01593 0.02512 0.33132 0.0
C380 C 0.02872 0.0229 0.3431 0.0
C381 C 0.01798 0.01763 0.35523 0.0
C382 C 0.9946 0.01467 0.35504 0.0
H383 H 0.98274 0.02395 0.32269 0.0
O384 O 0.94429 0.07748 0.34165 0.0
O385 O 0.94511 0.04339 0.35036 0.0
O386 O 0.92298 0.04442 0.32472 0.0
O387 O 0.94342 0.01309 0.328 0.0
C388 C 0.02947 0.01566 0.36754 0.0
C389 C 0.01743 0.01111 0.37944 0.0
H390 H 0.98848 0.00343 0.40033 0.0
H391 H 0.94698 0.00036 0.39813 0.0
H392 H 0.02409 0.02922 0.32193 0.0
H393 H 0.04675 0.02546 0.34274 0.0
H394 H 0.04753 0.01796 0.368 0.0
H395 H 0.02642 0.00996 0.38887 0.0
Mn396 Mn 0.69124 0.16773 0.09359 0.0
Mn397 Mn 0.7365 0.20174 0.09598 0.0
C398 C 0.68637 0.20618 0.09552 0.0
C399 C 0.66424 0.14489 0.10374 0.0
C400 C 0.72131 0.18018 0.06987 0.0
O401 O 0.71662 0.14611 0.09843 0.0
O402 O 0.74489 0.1708 0.10167 0.0
C403 C 0.7425 0.20152 0.12548 0.0
N404 N 0.73913 0.2131 0.11385 0.0
C405 C 0.73905 0.24847 0.12561 0.0
C406 C 0.74266 0.23693 0.1377 0.0
C407 C 0.74435 0.21336 0.13763 0.0
C408 C 0.73747 0.23578 0.1138 0.0
H409 H 0.74373 0.1834 0.12547 0.0
C410 C 0.73678 0.15081 0.1019 0.0
O411 O 0.66955 0.14248 0.09117 0.0
O412 O 0.67504 0.16016 0.11045 0.0
N413 N 0.73054 0.23222 0.09091 0.0
C414 C 0.72573 0.24067 0.07852 0.0
C415 C 0.7228 0.26396 0.07693 0.0
C416 C 0.72499 0.27831 0.08805 0.0
C417 C 0.73015 0.26924 0.10067 0.0
C418 C 0.73302 0.24592 0.10164 0.0
H419 H 0.724 0.22972 0.06994 0.0
O420 O 0.67043 0.1937 0.09065 0.0
O421 O 0.70455 0.19574 0.09922 0.0
O422 O 0.70355 0.17094 0.07447 0.0
O423 O 0.73507 0.19134 0.07713 0.0
C424 C 0.73215 0.28239 0.11238 0.0
C425 C 0.73654 0.27201 0.12484 0.0
H426 H 0.74397 0.24598 0.1471 0.0
H427 H 0.74702 0.20433 0.14693 0.0
H428 H 0.71879 0.27082 0.06716 0.0
H429 H 0.72252 0.29624 0.08681 0.0
H430 H 0.73 0.30047 0.11194 0.0
H431 H 0.73768 0.28226 0.13381 0.0
Mn432 Mn 0.58262 0.05694 0.65774 0.0
Mn433 Mn 0.54887 0.01163 0.65441 0.0
C434 C 0.54432 0.06177 0.65511 0.0
C435 C 0.60604 0.08423 0.6484 0.0
C436 C 0.56865 0.02653 0.68105 0.0
O437 O 0.60459 0.03177 0.65318 0.0
O438 O 0.58027 0.00329 0.64963 0.0
C439 C 0.55151 0.00599 0.62494 0.0
N440 N 0.53898 0.00915 0.63622 0.0
C441 C 0.50461 0.0092 0.62346 0.0
C442 C 0.51713 0.0058 0.61171 0.0
C443 C 0.54069 0.00423 0.61245 0.0
C444 C 0.51632 0.01072 0.63562 0.0
H445 H 0.56962 0.00485 0.62547 0.0
C446 C 0.60021 0.01151 0.6498 0.0
O447 O 0.60767 0.07851 0.66094 0.0
O448 O 0.59121 0.07367 0.64122 0.0
N449 N 0.51799 0.01739 0.65862 0.0
C450 C 0.50851 0.02188 0.67078 0.0
C451 C 0.48509 0.02458 0.67172 0.0
C452 C 0.47167 0.02247 0.66019 0.0
C453 C 0.48178 0.01759 0.64781 0.0
C454 C 0.50518 0.01494 0.6475 0.0
H455 H 0.51874 0.02353 0.67968 0.0
O456 O 0.5565 0.07762 0.66033 0.0
O457 O 0.55497 0.04367 0.65144 0.0
O458 O 0.57835 0.0442 0.67667 0.0
O459 O 0.55775 0.01294 0.67354 0.0
C460 C 0.46961 0.01565 0.63573 0.0
C461 C 0.48102 0.01153 0.62356 0.0
H462 H 0.50886 0.00455 0.60205 0.0
H463 H 0.55047 0.00172 0.60341 0.0
H464 H 0.47741 0.02836 0.68131 0.0
H465 H 0.45364 0.02477 0.66093 0.0
H466 H 0.4515 0.01762 0.63567 0.0
H467 H 0.4715 0.01042 0.61431 0.0
Mn468 Mn 0.69351 0.83159 0.40559 0.0
Mn469 Mn 0.73898 0.79802 0.40258 0.0
C470 C 0.68892 0.79308 0.40383 0.0
C471 C 0.66594 0.85414 0.39578 0.0
C472 C 0.72479 0.81975 0.42885 0.0
O473 O 0.71847 0.85339 0.40031 0.0
O474 O 0.74679 0.82896 0.39659 0.0
C475 C 0.74361 0.79785 0.373 0.0
N476 N 0.74088 0.78641 0.38473 0.0
C477 C 0.74049 0.75089 0.37315 0.0
C478 C 0.74345 0.76228 0.36095 0.0
C479 C 0.74497 0.78586 0.36088 0.0
C480 C 0.73938 0.76373 0.38492 0.0
H481 H 0.74471 0.81599 0.37289 0.0
C482 C 0.73847 0.84887 0.39648 0.0
O483 O 0.67172 0.85668 0.40826 0.0
O484 O 0.67655 0.83888 0.38896 0.0
N485 N 0.7335 0.76757 0.4079 0.0
C486 C 0.72929 0.75927 0.4204 0.0
C487 C 0.72657 0.73599 0.42215 0.0
C488 C 0.72834 0.72149 0.41107 0.0
C489 C 0.73287 0.73041 0.39832 0.0
C490 C 0.73557 0.75373 0.3972 0.0
H491 H 0.72788 0.77032 0.42895 0.0
O492 O 0.67307 0.80545 0.40891 0.0
O493 O 0.70684 0.80368 0.39984 0.0
O494 O 0.70667 0.82866 0.42451 0.0
O495 O 0.73835 0.80869 0.4214 0.0
C496 C 0.73438 0.71711 0.38665 0.0
C497 C 0.73814 0.72735 0.37407 0.0
H498 H 0.74436 0.7531 0.35157 0.0
H499 H 0.74714 0.79478 0.3515 0.0
H500 H 0.72304 0.72924 0.43202 0.0
H501 H 0.72602 0.70356 0.41244 0.0
H502 H 0.73233 0.69903 0.38721 0.0
H503 H 0.73891 0.71698 0.36514 0.0
Mn504 Mn 0.91773 0.9445 0.15592 0.0
Mn505 Mn 0.95138 0.98975 0.15195 0.0
C506 C 0.95602 0.93965 0.15325 0.0
C507 C 0.89432 0.91683 0.14696 0.0
C508 C 0.93189 0.97571 0.17882 0.0
O509 O 0.89567 0.96948 0.15113 0.0
O510 O 0.9199 0.99789 0.14721 0.0
C511 C 0.94837 0.99442 0.12243 0.0
N512 N 0.96104 0.99164 0.1337 0.0
C513 C 0.99525 0.99115 0.12078 0.0
C514 C 0.98258 0.99415 0.10905 0.0
C515 C 0.95903 0.99574 0.10987 0.0
C516 C 0.98369 0.99005 0.13301 0.0
H517 H 0.93026 0.99557 0.12302 0.0
C518 C 0.89997 0.98965 0.14753 0.0
O519 O 0.89275 0.92296 0.15943 0.0
O520 O 0.90906 0.92722 0.13962 0.0
N521 N 0.98232 0.98418 0.15609 0.0
C522 C 0.99195 0.98011 0.16827 0.0
C523 C 0.01538 0.97744 0.16914 0.0
C524 C 0.02866 0.97914 0.15752 0.0
C525 C 0.01838 0.98359 0.14513 0.0
C526 C 0.99498 0.98624 0.14489 0.0
H527 H 0.98183 0.97877 0.17723 0.0
O528 O 0.94389 0.92396 0.15869 0.0
O529 O 0.94531 0.9576 0.14939 0.0
O530 O 0.92213 0.9579 0.17468 0.0
O531 O 0.94273 0.98905 0.17112 0.0
C532 C 0.0304 0.9851 0.13298 0.0
C533 C 0.01884 0.98881 0.12081 0.0
H534 H 0.99073 0.99507 0.09934 0.0
H535 H 0.94913 0.99795 0.10085 0.0
H536 H 0.02318 0.97399 0.17874 0.0
H537 H 0.0467 0.97686 0.15821 0.0
H538 H 0.04851 0.98311 0.13285 0.0
H539 H 0.02823 0.98959 0.1115 0.0
Mn540 Mn 0.80574 0.16893 0.90597 0.0
Mn541 Mn 0.76126 0.2034 0.90183 0.0
C542 C 0.81138 0.20715 0.90331 0.0
C543 C 0.83291 0.14514 0.89687 0.0
C544 C 0.77418 0.18256 0.92863 0.0
O545 O 0.78021 0.1475 0.90109 0.0
O546 O 0.75289 0.17249 0.89602 0.0
C547 C 0.75772 0.20287 0.87219 0.0
N548 N 0.76026 0.21456 0.88385 0.0
C549 C 0.76209 0.24973 0.87193 0.0
C550 C 0.75926 0.23808 0.85981 0.0
C551 C 0.75712 0.21454 0.85994 0.0
C552 C 0.76235 0.23721 0.88384 0.0
H553 H 0.75629 0.18477 0.87224 0.0
C554 C 0.76065 0.15237 0.89663 0.0
O555 O 0.82681 0.1435 0.90935 0.0
O556 O 0.82274 0.16013 0.88961 0.0
N557 N 0.76746 0.23384 0.90691 0.0
C558 C 0.77175 0.24234 0.91936 0.0
C559 C 0.77529 0.26556 0.9209 0.0
C560 C 0.7743 0.27978 0.90965 0.0
C561 C 0.76972 0.27066 0.89697 0.0
C562 C 0.76614 0.24743 0.89606 0.0
H563 H 0.77262 0.23149 0.92803 0.0
O564 O 0.82684 0.19475 0.90877 0.0
O565 O 0.79326 0.19673 0.89951 0.0
O566 O 0.79241 0.17341 0.92468 0.0
O567 O 0.76091 0.19325 0.9208 0.0
C568 C 0.76908 0.28365 0.88514 0.0
C569 C 0.76526 0.27319 0.87263 0.0
H570 H 0.75898 0.247 0.85033 0.0
H571 H 0.75511 0.20541 0.85062 0.0
H572 H 0.77888 0.27246 0.93072 0.0
H573 H 0.7773 0.29764 0.91086 0.0
H574 H 0.77189 0.30164 0.88553 0.0
H575 H 0.76518 0.2833 0.86359 0.0
Mn576 Mn 0.91769 0.55753 0.6556 0.0
Mn577 Mn 0.95185 0.51249 0.65266 0.0
C578 C 0.95602 0.5626 0.65306 0.0
C579 C 0.8944 0.58439 0.6457 0.0
C580 C 0.93103 0.52735 0.67907 0.0
O581 O 0.89606 0.53204 0.65101 0.0
O582 O 0.92079 0.50395 0.64729 0.0
C583 C 0.95078 0.50656 0.62317 0.0
N584 N 0.96269 0.51003 0.63467 0.0
C585 C 0.99766 0.51073 0.6225 0.0
C586 C 0.98578 0.50702 0.61054 0.0
C587 C 0.96224 0.50496 0.61088 0.0
C588 C 0.98535 0.512 0.63446 0.0
H589 H 0.93268 0.50508 0.62338 0.0
C590 C 0.90075 0.51196 0.64737 0.0
O591 O 0.89242 0.57914 0.6583 0.0
O592 O 0.90948 0.57363 0.63882 0.0
N593 N 0.98243 0.51873 0.65741 0.0
C594 C 0.9912 0.52369 0.6697 0.0
C595 C 0.01448 0.52705 0.67102 0.0
C596 C 0.02849 0.52519 0.65972 0.0
C597 C 0.0191 0.5199 0.6472 0.0
C598 C 0.99581 0.51654 0.64651 0.0
H599 H 0.9805 0.52521 0.67841 0.0
O600 O 0.94371 0.57847 0.65816 0.0
O601 O 0.94548 0.54437 0.64957 0.0
O602 O 0.92165 0.54519 0.67466 0.0
O603 O 0.94199 0.51372 0.67162 0.0
C604 C 0.03188 0.51831 0.63532 0.0
C605 C 0.02116 0.51373 0.62298 0.0
H606 H 0.99454 0.50595 0.60103 0.0
H607 H 0.95295 0.50222 0.60168 0.0
H608 H 0.02159 0.53118 0.68071 0.0
H609 H 0.04641 0.52806 0.66075 0.0
H610 H 0.04991 0.52094 0.63554 0.0
H611 H 0.03112 0.51288 0.61389 0.0
Mn612 Mn 0.69401 0.66731 0.90641 0.0
Mn613 Mn 0.73973 0.70051 0.90311 0.0
C614 C 0.68967 0.70557 0.90332 0.0
C615 C 0.66675 0.64412 0.89681 0.0
C616 C 0.72414 0.68144 0.92981 0.0
O617 O 0.71908 0.64498 0.90228 0.0
O618 O 0.74786 0.66893 0.89865 0.0
C619 C 0.74605 0.69716 0.87371 0.0
N620 N 0.74269 0.70997 0.88487 0.0
C621 C 0.74289 0.74401 0.8718 0.0
C622 C 0.74652 0.7312 0.86018 0.0
C623 C 0.74806 0.70767 0.86115 0.0
C624 C 0.74119 0.73262 0.88406 0.0
H625 H 0.74714 0.67906 0.87441 0.0
C626 C 0.73944 0.64907 0.89898 0.0
O627 O 0.67189 0.64258 0.90945 0.0
O628 O 0.67786 0.65868 0.88973 0.0
N629 N 0.73406 0.73152 0.90702 0.0
C630 C 0.72921 0.74129 0.91905 0.0
C631 C 0.72639 0.76472 0.91976 0.0
C632 C 0.72869 0.77785 0.90811 0.0
C633 C 0.7339 0.76744 0.89587 0.0
C634 C 0.73672 0.74405 0.89581 0.0
H635 H 0.72736 0.73127 0.92802 0.0
O636 O 0.67355 0.69375 0.90854 0.0
O637 O 0.70774 0.69459 0.89998 0.0
O638 O 0.70636 0.67187 0.92545 0.0
O639 O 0.73792 0.69203 0.92227 0.0
C640 C 0.73594 0.7793 0.88369 0.0
C641 C 0.74042 0.76759 0.87166 0.0
H642 H 0.74792 0.73922 0.85046 0.0
H643 H 0.75074 0.69765 0.85222 0.0
H644 H 0.72233 0.77262 0.92924 0.0
H645 H 0.72623 0.79588 0.90867 0.0
H646 H 0.73375 0.79738 0.88342 0.0
H647 H 0.74162 0.77686 0.86232 0.0
Mn648 Mn 0.58132 0.44329 0.15589 0.0
Mn649 Mn 0.54763 0.48876 0.15341 0.0
C650 C 0.54282 0.43869 0.15417 0.0
C651 C 0.60379 0.41598 0.14576 0.0
C652 C 0.5695 0.47387 0.1795 0.0
O653 O 0.60305 0.46842 0.1508 0.0
O654 O 0.57854 0.49684 0.14752 0.0
C655 C 0.54747 0.49427 0.12389 0.0
N656 N 0.53603 0.49116 0.13558 0.0
C657 C 0.50051 0.49094 0.12399 0.0
C658 C 0.51191 0.49428 0.11182 0.0
C659 C 0.53549 0.49591 0.11177 0.0
C660 C 0.51334 0.48956 0.13574 0.0
H661 H 0.5656 0.49544 0.1238 0.0
C662 C 0.59847 0.48856 0.14725 0.0
O663 O 0.60645 0.42145 0.15829 0.0
O664 O 0.5885 0.42679 0.13908 0.0
N665 N 0.51718 0.48307 0.15867 0.0
C666 C 0.50888 0.47853 0.17113 0.0
C667 C 0.4856 0.4757 0.17284 0.0
C668 C 0.47111 0.47769 0.16177 0.0
C669 C 0.48003 0.48258 0.14907 0.0
C670 C 0.50335 0.48538 0.14798 0.0
H671 H 0.51993 0.47693 0.17967 0.0
O672 O 0.55524 0.42274 0.15907 0.0
O673 O 0.55335 0.45673 0.15033 0.0
O674 O 0.57851 0.45595 0.17494 0.0
O675 O 0.5583 0.48758 0.17222 0.0
C676 C 0.46675 0.48434 0.13741 0.0
C677 C 0.47698 0.48848 0.12487 0.0
H678 H 0.50274 0.49542 0.10245 0.0
H679 H 0.5444 0.49838 0.10242 0.0
H680 H 0.47885 0.4719 0.18267 0.0
H681 H 0.45319 0.47528 0.16311 0.0
H682 H 0.44867 0.48221 0.13793 0.0
H683 H 0.46662 0.48944 0.11594 0.0
Mn684 Mn 0.8063 0.33197 0.40645 0.0
Mn685 Mn 0.7612 0.29813 0.40247 0.0
C686 C 0.81132 0.29381 0.4033 0.0
C687 C 0.83363 0.35571 0.39744 0.0
C688 C 0.7755 0.31724 0.42941 0.0
O689 O 0.78107 0.35396 0.40203 0.0
O690 O 0.75275 0.32963 0.39799 0.0
C691 C 0.7559 0.30161 0.373 0.0
N692 N 0.75906 0.28877 0.38416 0.0
C693 C 0.75988 0.25483 0.37101 0.0
C694 C 0.75648 0.26768 0.35938 0.0
C695 C 0.75452 0.29118 0.36038 0.0
C696 C 0.76095 0.26615 0.38332 0.0
H697 H 0.7545 0.31969 0.37373 0.0
C698 C 0.76088 0.34961 0.39847 0.0
O699 O 0.8278 0.35699 0.40998 0.0
O700 O 0.82313 0.34109 0.39009 0.0
N701 N 0.76721 0.26718 0.40637 0.0
C702 C 0.77178 0.2574 0.41843 0.0
C703 C 0.77495 0.23401 0.41911 0.0
C704 C 0.77329 0.22094 0.40741 0.0
C705 C 0.76835 0.23136 0.39513 0.0
C706 C 0.76516 0.2547 0.39509 0.0
H707 H 0.77315 0.26737 0.42745 0.0
O708 O 0.82704 0.30581 0.4088 0.0
O709 O 0.79322 0.30456 0.39975 0.0
O710 O 0.79326 0.32708 0.42527 0.0
O711 O 0.76213 0.30647 0.42168 0.0
C712 C 0.76696 0.21957 0.38289 0.0
C713 C 0.76273 0.2313 0.37084 0.0
H714 H 0.75557 0.25971 0.34962 0.0
H715 H 0.75202 0.30122 0.35145 0.0
H716 H 0.77879 0.2261 0.42862 0.0
H717 H 0.77601 0.20294 0.40795 0.0
H718 H 0.76945 0.20152 0.3826 0.0
H719 H 0.76203 0.22209 0.36146 0.0
Mn720 Mn 0.91939 0.44376 0.84349 0.0
Mn721 Mn 0.95293 0.48914 0.84703 0.0
C722 C 0.95783 0.4391 0.84565 0.0
C723 C 0.89645 0.41604 0.85281 0.0
C724 C 0.93203 0.47527 0.82048 0.0
O725 O 0.89747 0.46864 0.84868 0.0
O726 O 0.92181 0.49694 0.85268 0.0
C727 C 0.95208 0.4935 0.87663 0.0
N728 N 0.96392 0.49086 0.86503 0.0
C729 C 0.99903 0.49031 0.87705 0.0
C730 C 0.98723 0.49316 0.88911 0.0
C731 C 0.96365 0.49472 0.8889 0.0
C732 C 0.98661 0.48933 0.86512 0.0
H733 H 0.93395 0.49462 0.87651 0.0
C734 C 0.9019 0.48862 0.8526 0.0
O735 O 0.89437 0.42214 0.84035 0.0
O736 O 0.91149 0.42644 0.85992 0.0
N737 N 0.98356 0.48368 0.84208 0.0
C738 C 0.99229 0.47959 0.82967 0.0
C739 C 0.01563 0.47687 0.82819 0.0
C740 C 0.02974 0.47851 0.83946 0.0
C741 C 0.02038 0.48292 0.85211 0.0
C742 C 0.99702 0.48563 0.85295 0.0
H743 H 0.98153 0.47828 0.82097 0.0
O744 O 0.9456 0.42335 0.84035 0.0
O745 O 0.94714 0.45698 0.84962 0.0
O746 O 0.92291 0.45718 0.8247 0.0
O747 O 0.94293 0.48873 0.82808 0.0
C748 C 0.03327 0.4843 0.86395 0.0
C749 C 0.0226 0.48795 0.87641 0.0
H750 H 0.99608 0.49398 0.89861 0.0
H751 H 0.95441 0.49681 0.89818 0.0
H752 H 0.02272 0.47343 0.8184 0.0
H753 H 0.0477 0.47618 0.8383 0.0
H754 H 0.05136 0.48224 0.86361 0.0
H755 H 0.03266 0.48861 0.88547 0.0
Mn756 Mn 0.8063 0.66836 0.09443 0.0
Mn757 Mn 0.76112 0.70217 0.09816 0.0
C758 C 0.81125 0.70655 0.09751 0.0
C759 C 0.83358 0.64468 0.10355 0.0
C760 C 0.77574 0.68296 0.07132 0.0
O761 O 0.78107 0.64637 0.09881 0.0
O762 O 0.75266 0.67068 0.10265 0.0
C763 C 0.75549 0.69879 0.12761 0.0
N764 N 0.75875 0.7116 0.11644 0.0
C765 C 0.75934 0.74559 0.12955 0.0
C766 C 0.75583 0.73278 0.14119 0.0
C767 C 0.75394 0.70928 0.14021 0.0
C768 C 0.76058 0.73422 0.11727 0.0
H769 H 0.75413 0.68072 0.1269 0.0
C770 C 0.76083 0.65071 0.10226 0.0
O771 O 0.82785 0.64336 0.091 0.0
O772 O 0.82302 0.65933 0.11086 0.0
N773 N 0.76711 0.73312 0.09425 0.0
C774 C 0.77179 0.74287 0.08219 0.0
C775 C 0.77492 0.76625 0.08149 0.0
C776 C 0.77309 0.77937 0.09316 0.0
C777 C 0.76804 0.76899 0.10543 0.0
C778 C 0.7649 0.74564 0.1055 0.0
H779 H 0.77329 0.73286 0.07319 0.0
O780 O 0.82704 0.69453 0.0921 0.0
O781 O 0.79313 0.69581 0.10103 0.0
O782 O 0.79345 0.67315 0.07556 0.0
O783 O 0.76228 0.69376 0.07896 0.0
C784 C 0.76647 0.78083 0.11765 0.0
C785 C 0.76214 0.76914 0.1297 0.0
H786 H 0.75479 0.74079 0.15094 0.0
H787 H 0.75136 0.69927 0.14915 0.0
H788 H 0.77885 0.77414 0.07198 0.0
H789 H 0.77578 0.79737 0.09261 0.0
H790 H 0.76892 0.79888 0.11792 0.0
H791 H 0.7613 0.77838 0.13906 0.0
Mn792 Mn 0.58147 0.5566 0.3442 0.0
Mn793 Mn 0.54763 0.51132 0.3471 0.0
C794 C 0.54301 0.56141 0.34601 0.0
C795 C 0.60421 0.58391 0.35413 0.0
C796 C 0.5694 0.5256 0.32086 0.0
O797 O 0.60313 0.53145 0.34936 0.0
O798 O 0.57853 0.50325 0.35303 0.0
C799 C 0.54752 0.50642 0.37667 0.0
N800 N 0.53606 0.50934 0.36495 0.0
C801 C 0.50057 0.50982 0.37656 0.0
C802 C 0.51197 0.50669 0.38874 0.0
C803 C 0.53555 0.50503 0.38879 0.0
C804 C 0.51338 0.51097 0.36479 0.0
H805 H 0.56565 0.50522 0.37675 0.0
C806 C 0.5985 0.51144 0.35313 0.0
O807 O 0.6067 0.57828 0.34162 0.0
O808 O 0.5889 0.5733 0.36091 0.0
N809 N 0.5172 0.51703 0.34183 0.0
C810 C 0.50888 0.5214 0.32935 0.0
C811 C 0.48561 0.52426 0.32762 0.0
C812 C 0.47114 0.52248 0.33871 0.0
C813 C 0.48006 0.51778 0.35144 0.0
C814 C 0.50338 0.51495 0.35253 0.0
H815 H 0.51993 0.52282 0.32079 0.0
O816 O 0.55545 0.57723 0.34099 0.0
O817 O 0.5535 0.54339 0.34993 0.0
O818 O 0.57842 0.54364 0.32523 0.0
O819 O 0.55826 0.51206 0.32829 0.0
C820 C 0.46679 0.51623 0.36311 0.0
C821 C 0.47704 0.5123 0.37567 0.0
H822 H 0.50282 0.50573 0.39813 0.0
H823 H 0.54448 0.50272 0.39816 0.0
H824 H 0.47886 0.52791 0.31777 0.0
H825 H 0.45322 0.5249 0.33736 0.0
H826 H 0.44872 0.51838 0.36258 0.0
H827 H 0.46669 0.51151 0.38461 0.0
Mn828 Mn 0.69365 0.33148 0.59438 0.0
Mn829 Mn 0.73918 0.29796 0.59736 0.0
C830 C 0.68909 0.29322 0.59733 0.0
C831 C 0.66669 0.35477 0.60416 0.0
C832 C 0.72346 0.31755 0.57082 0.0
O833 O 0.71892 0.35357 0.59853 0.0
O834 O 0.74758 0.3294 0.60202 0.0
C835 C 0.74583 0.30069 0.62675 0.0
N836 N 0.74224 0.28812 0.61553 0.0
C837 C 0.74223 0.25384 0.62837 0.0
C838 C 0.74608 0.2664 0.64006 0.0
C839 C 0.74786 0.28993 0.63924 0.0
C840 C 0.74053 0.26547 0.61619 0.0
H841 H 0.74709 0.31879 0.62618 0.0
C842 C 0.73926 0.34932 0.6018 0.0
O843 O 0.67172 0.3564 0.59151 0.0
O844 O 0.67772 0.34004 0.61115 0.0
N845 N 0.73322 0.26707 0.59326 0.0
C846 C 0.72811 0.25758 0.58119 0.0
C847 C 0.72501 0.23421 0.58034 0.0
C848 C 0.72728 0.22083 0.59188 0.0
C849 C 0.73275 0.23095 0.60417 0.0
C850 C 0.73584 0.25431 0.60438 0.0
H851 H 0.72625 0.26779 0.57229 0.0
O852 O 0.67299 0.30521 0.59221 0.0
O853 O 0.70726 0.30404 0.60064 0.0
O854 O 0.70575 0.32708 0.5753 0.0
O855 O 0.73729 0.30681 0.57826 0.0
C856 C 0.73477 0.21885 0.61627 0.0
C857 C 0.7395 0.23028 0.62836 0.0
H858 H 0.74748 0.25818 0.64972 0.0
H859 H 0.7507 0.29974 0.64823 0.0
H860 H 0.72075 0.22652 0.57082 0.0
H861 H 0.72461 0.20284 0.59122 0.0
H862 H 0.73237 0.20079 0.61643 0.0
H863 H 0.74068 0.22084 0.63763 0.0
Mn864 Mn 0.08192 0.44268 0.34471 0.0
Mn865 Mn 0.04813 0.48802 0.3476 0.0
C866 C 0.04355 0.43796 0.34724 0.0
C867 C 0.10491 0.41548 0.35455 0.0
C868 C 0.06876 0.47293 0.3212 0.0
O869 O 0.1038 0.46797 0.34932 0.0
O870 O 0.0793 0.49632 0.35287 0.0
C871 C 0.04948 0.49408 0.37708 0.0
N872 N 0.03745 0.49065 0.36563 0.0
C873 C 0.00258 0.49026 0.3779 0.0
C874 C 0.01458 0.49393 0.38982 0.0
C875 C 0.03813 0.49582 0.3894 0.0
C876 C 0.01478 0.48885 0.3659 0.0
H877 H 0.06759 0.49544 0.37682 0.0
C878 C 0.09927 0.48814 0.35285 0.0
O879 O 0.10695 0.42082 0.34196 0.0
O880 O 0.08999 0.4264 0.36146 0.0
N881 N 0.01746 0.48201 0.34296 0.0
C882 C 0.00855 0.47706 0.3307 0.0
C883 C 0.98524 0.47386 0.32946 0.0
C884 C 0.97133 0.47586 0.34079 0.0
C885 C 0.98086 0.48114 0.35328 0.0
C886 C 0.00418 0.48434 0.35389 0.0
H887 H 0.01916 0.47542 0.32197 0.0
O888 O 0.05571 0.422 0.34212 0.0
O889 O 0.05425 0.45609 0.35075 0.0
O890 O 0.0781 0.45511 0.32566 0.0
O891 O 0.05782 0.48663 0.32862 0.0
C892 C 0.9682 0.48286 0.36519 0.0
C893 C 0.97905 0.48742 0.37749 0.0
H894 H 0.00592 0.49511 0.39935 0.0
H895 H 0.04752 0.49854 0.39857 0.0
H896 H 0.97801 0.46974 0.31979 0.0
H897 H 0.95339 0.47312 0.33982 0.0
H898 H 0.95015 0.48037 0.36504 0.0
H899 H 0.96918 0.48838 0.38661 0.0
Mn900 Mn 0.3064 0.33107 0.09492 0.0
Mn901 Mn 0.26124 0.29711 0.09809 0.0
C902 C 0.31136 0.29278 0.09755 0.0
C903 C 0.33343 0.35437 0.10465 0.0
C904 C 0.27604 0.31741 0.07155 0.0
O905 O 0.28106 0.35286 0.09945 0.0
O906 O 0.25271 0.32838 0.10306 0.0
C907 C 0.25538 0.29915 0.12756 0.0
N908 N 0.25876 0.28686 0.11621 0.0
C909 C 0.25934 0.25229 0.12877 0.0
C910 C 0.25572 0.26457 0.1406 0.0
C911 C 0.25376 0.2881 0.13999 0.0
C912 C 0.26063 0.26421 0.11667 0.0
H913 H 0.25398 0.31725 0.12714 0.0
C914 C 0.26085 0.34837 0.10288 0.0
O915 O 0.32808 0.35623 0.09206 0.0
O916 O 0.32268 0.3394 0.11161 0.0
N917 N 0.26734 0.26636 0.0937 0.0
C918 C 0.2722 0.25718 0.0815 0.0
C919 C 0.27545 0.23385 0.08044 0.0
C920 C 0.27356 0.2202 0.0919 0.0
C921 C 0.26834 0.23001 0.10432 0.0
C922 C 0.26509 0.25334 0.10474 0.0
H923 H 0.27376 0.26759 0.07267 0.0
O924 O 0.32722 0.30501 0.09237 0.0
O925 O 0.29319 0.30339 0.1011 0.0
O926 O 0.29382 0.32697 0.07591 0.0
O927 O 0.26253 0.30639 0.07905 0.0
C928 C 0.26673 0.21763 0.11634 0.0
C929 C 0.26223 0.22876 0.12856 0.0
H930 H 0.25463 0.25613 0.15021 0.0
H931 H 0.25109 0.2977 0.14908 0.0
H932 H 0.27952 0.22641 0.07083 0.0
H933 H 0.27635 0.20225 0.09107 0.0
H934 H 0.26926 0.19959 0.11633 0.0
H935 H 0.26136 0.21911 0.13776 0.0
Mn936 Mn 0.41885 0.5561 0.84425 0.0
Mn937 Mn 0.4525 0.51073 0.84756 0.0
C938 C 0.45726 0.5608 0.84648 0.0
C939 C 0.39582 0.58366 0.85364 0.0
C940 C 0.43169 0.52502 0.82107 0.0
O941 O 0.39696 0.53108 0.84927 0.0
O942 O 0.42136 0.50275 0.85307 0.0
C943 C 0.45143 0.50587 0.87713 0.0
N944 N 0.46335 0.50873 0.86558 0.0
C945 C 0.49838 0.50914 0.87769 0.0
C946 C 0.48649 0.50606 0.8897 0.0
C947 C 0.46291 0.50446 0.88942 0.0
C948 C 0.48604 0.5103 0.86574 0.0
H949 H 0.4333 0.50472 0.87696 0.0
C950 C 0.40142 0.51102 0.85303 0.0
O951 O 0.3938 0.57769 0.84116 0.0
O952 O 0.41083 0.57319 0.86075 0.0
N953 N 0.48315 0.51633 0.84272 0.0
C954 C 0.49197 0.52058 0.83035 0.0
C955 C 0.51532 0.52333 0.82895 0.0
C956 C 0.52935 0.52153 0.84025 0.0
C957 C 0.5199 0.51694 0.85285 0.0
C958 C 0.49654 0.51421 0.85362 0.0
H959 H 0.48127 0.52201 0.82163 0.0
O960 O 0.44502 0.57661 0.84125 0.0
O961 O 0.44661 0.54284 0.85034 0.0
O962 O 0.42247 0.54297 0.8254 0.0
O963 O 0.44263 0.51146 0.82858 0.0
C964 C 0.5327 0.51537 0.86471 0.0
C965 C 0.52195 0.51153 0.87713 0.0
H966 H 0.49527 0.50509 0.89921 0.0
H967 H 0.45361 0.5022 0.89866 0.0
H968 H 0.52248 0.5269 0.81919 0.0
H969 H 0.54732 0.52387 0.83915 0.0
H970 H 0.5508 0.51743 0.86443 0.0
H971 H 0.53194 0.51071 0.8862 0.0
Mn972 Mn 0.19383 0.66768 0.59402 0.0
Mn973 Mn 0.23907 0.70136 0.59788 0.0
C974 C 0.18897 0.70586 0.59718 0.0
C975 C 0.16643 0.64407 0.60308 0.0
C976 C 0.22453 0.68227 0.57099 0.0
O977 O 0.219 0.6456 0.59842 0.0
O978 O 0.24745 0.66983 0.60233 0.0
C979 C 0.24462 0.69784 0.62733 0.0
N980 N 0.2414 0.7107 0.61618 0.0
C981 C 0.24081 0.74464 0.62935 0.0
C982 C 0.24427 0.73177 0.64096 0.0
C983 C 0.24615 0.70827 0.63994 0.0
C984 C 0.2396 0.73333 0.61704 0.0
H985 H 0.24597 0.67977 0.62659 0.0
C986 C 0.23923 0.64989 0.6019 0.0
O987 O 0.17221 0.64275 0.59053 0.0
O988 O 0.17704 0.65865 0.61042 0.0
N989 N 0.23313 0.73233 0.59401 0.0
C990 C 0.22845 0.74214 0.58196 0.0
C991 C 0.22531 0.76552 0.5813 0.0
C992 C 0.22713 0.77859 0.593 0.0
C993 C 0.23216 0.76815 0.60526 0.0
C994 C 0.23531 0.7448 0.60528 0.0
H995 H 0.22696 0.73217 0.57295 0.0
O996 O 0.17318 0.69391 0.5917 0.0
O997 O 0.20705 0.69505 0.60069 0.0
O998 O 0.20678 0.67248 0.57518 0.0
O999 O 0.23797 0.69303 0.57867 0.0
C1000 C 0.2337 0.77993 0.6175 0.0
C1001 C 0.23801 0.76818 0.62953 0.0
H1002 H 0.24529 0.73973 0.65072 0.0
H1003 H 0.2487 0.69822 0.64887 0.0
H1004 H 0.22139 0.77345 0.5718 0.0
H1005 H 0.22443 0.79659 0.59248 0.0
H1006 H 0.23125 0.79797 0.6178 0.0
H1007 H 0.23882 0.77738 0.63891 0.0
Mn1008 Mn 0.08112 0.55569 0.15653 0.0
Mn1009 Mn 0.04706 0.51063 0.15331 0.0
C1010 C 0.04279 0.56072 0.15399 0.0
C1011 C 0.10434 0.58282 0.14682 0.0
C1012 C 0.0678 0.52508 0.17981 0.0
O1013 O 0.10282 0.53033 0.1518 0.0
O1014 O 0.07816 0.50222 0.14796 0.0
C1015 C 0.0483 0.50514 0.12379 0.0
N1016 N 0.03632 0.50843 0.13527 0.0
C1017 C 0.00143 0.50931 0.12303 0.0
C1018 C 0.01339 0.50578 0.11108 0.0
C1019 C 0.03692 0.50372 0.11146 0.0
C1020 C 0.01367 0.51039 0.13503 0.0
H1021 H 0.06641 0.50365 0.12403 0.0
C1022 C 0.09819 0.51027 0.14809 0.0
O1023 O 0.10632 0.57733 0.15939 0.0
O1024 O 0.08931 0.57213 0.13987 0.0
N1025 N 0.01644 0.51677 0.15802 0.0
C1026 C 0.0076 0.52156 0.17031 0.0
C1027 C 0.98431 0.52493 0.17159 0.0
C1028 C 0.97037 0.52324 0.16025 0.0
C1029 C 0.97983 0.51812 0.14773 0.0
C1030 C 0.00313 0.51475 0.14708 0.0
H1031 H 0.01824 0.52296 0.17905 0.0
O1032 O 0.05505 0.57651 0.15921 0.0
O1033 O 0.05338 0.54258 0.1504 0.0
O1034 O 0.07719 0.54298 0.1755 0.0
O1035 O 0.05681 0.51158 0.17229 0.0
C1036 C 0.96714 0.51673 0.13581 0.0
C1037 C 0.97793 0.51232 0.12347 0.0
H1038 H 0.00469 0.50486 0.10154 0.0
H1039 H 0.04627 0.50112 0.10227 0.0
H1040 H 0.97714 0.52892 0.18128 0.0
H1041 H 0.95245 0.52611 0.16125 0.0
H1042 H 0.94911 0.51936 0.13599 0.0
H1043 H 0.96803 0.51162 0.11435 0.0
Mn1044 Mn 0.19363 0.33184 0.90662 0.0
Mn1045 Mn 0.23934 0.29851 0.9038 0.0
C1046 C 0.18925 0.29343 0.90432 0.0
C1047 C 0.16634 0.35463 0.8967 0.0
C1048 C 0.22395 0.31893 0.93018 0.0
O1049 O 0.21865 0.35395 0.90203 0.0
O1050 O 0.24739 0.32984 0.89872 0.0
C1051 C 0.24523 0.30032 0.87432 0.0
N1052 N 0.24207 0.2881 0.88573 0.0
C1053 C 0.24229 0.25337 0.87333 0.0
C1054 C 0.2457 0.26556 0.86145 0.0
C1055 C 0.24713 0.28914 0.86195 0.0
C1056 C 0.24064 0.26541 0.88536 0.0
H1057 H 0.24625 0.31845 0.87467 0.0
C1058 C 0.23898 0.34971 0.89874 0.0
O1059 O 0.1716 0.35675 0.9093 0.0
O1060 O 0.17732 0.33968 0.88985 0.0
N1061 N 0.23382 0.26771 0.90832 0.0
C1062 C 0.22929 0.25857 0.92057 0.0
C1063 C 0.2267 0.23517 0.92175 0.0
C1064 C 0.22895 0.22143 0.91036 0.0
C1065 C 0.23385 0.2312 0.89789 0.0
C1066 C 0.2364 0.2546 0.89734 0.0
H1067 H 0.22752 0.26905 0.92936 0.0
O1068 O 0.17317 0.30557 0.90931 0.0
O1069 O 0.20729 0.3042 0.90068 0.0
O1070 O 0.20613 0.32823 0.92569 0.0
O1071 O 0.23772 0.30799 0.9228 0.0
C1072 C 0.2359 0.2187 0.88594 0.0
C1073 C 0.24005 0.22977 0.87366 0.0
H1074 H 0.24704 0.25702 0.85188 0.0
H1075 H 0.24963 0.29868 0.85282 0.0
H1076 H 0.2229 0.22775 0.93141 0.0
H1077 H 0.22673 0.20341 0.91128 0.0
H1078 H 0.23397 0.20058 0.88605 0.0
H1079 H 0.24124 0.22 0.86451 0.0
Mn1080 Mn 0.4191 0.44334 0.65618 0.0
Mn1081 Mn 0.45272 0.48879 0.65323 0.0
C1082 C 0.45756 0.43872 0.65421 0.0
C1083 C 0.39637 0.41596 0.64635 0.0
C1084 C 0.43138 0.47423 0.67954 0.0
O1085 O 0.39727 0.46841 0.65114 0.0
O1086 O 0.4217 0.49674 0.64746 0.0
C1087 C 0.4524 0.49383 0.62367 0.0
N1088 N 0.46403 0.49092 0.63532 0.0
C1089 C 0.49937 0.49063 0.62354 0.0
C1090 C 0.48778 0.49377 0.61142 0.0
C1091 C 0.4642 0.49533 0.61149 0.0
C1092 C 0.48672 0.48938 0.63537 0.0
H1093 H 0.43427 0.49495 0.62368 0.0
C1094 C 0.40178 0.48847 0.6474 0.0
O1095 O 0.39401 0.42156 0.65887 0.0
O1096 O 0.41153 0.42665 0.63949 0.0
N1097 N 0.48325 0.48321 0.65835 0.0
C1098 C 0.49176 0.47888 0.67079 0.0
C1099 C 0.51507 0.47614 0.6724 0.0
C1100 C 0.52938 0.47803 0.66124 0.0
C1101 C 0.52025 0.48269 0.64856 0.0
C1102 C 0.49691 0.4854 0.64758 0.0
H1103 H 0.48084 0.47738 0.6794 0.0
O1104 O 0.44524 0.42281 0.65926 0.0
O1105 O 0.44695 0.4567 0.65036 0.0
O1106 O 0.42234 0.45621 0.67515 0.0
O1107 O 0.44235 0.48788 0.6721 0.0
C1108 C 0.53336 0.48435 0.63682 0.0
C1109 C 0.52292 0.48826 0.62432 0.0
H1110 H 0.49681 0.4948 0.602 0.0
H1111 H 0.45513 0.49763 0.60217 0.0
H1112 H 0.52198 0.47251 0.68221 0.0
H1113 H 0.54733 0.4757 0.6625 0.0
H1114 H 0.55145 0.48229 0.63727 0.0
H1115 H 0.53315 0.48914 0.61533 0.0
Mn1116 Mn 0.30657 0.66846 0.40599 0.0
Mn1117 Mn 0.26093 0.7019 0.40322 0.0
C1118 C 0.31104 0.70688 0.40384 0.0
C1119 C 0.33384 0.6457 0.39605 0.0
C1120 C 0.27624 0.6813 0.42956 0.0
O1121 O 0.28152 0.64644 0.4013 0.0
O1122 O 0.25283 0.67061 0.39804 0.0
C1123 C 0.25509 0.70031 0.37373 0.0
N1124 N 0.25824 0.71244 0.38517 0.0
C1125 C 0.25804 0.74727 0.37286 0.0
C1126 C 0.25465 0.73516 0.36095 0.0
C1127 C 0.25322 0.71158 0.36139 0.0
C1128 C 0.25967 0.73513 0.38487 0.0
H1129 H 0.25407 0.68218 0.37402 0.0
C1130 C 0.26121 0.65073 0.398 0.0
O1131 O 0.32852 0.64349 0.40863 0.0
O1132 O 0.32293 0.66073 0.38922 0.0
N1133 N 0.26647 0.73266 0.40782 0.0
C1134 C 0.27099 0.74171 0.4201 0.0
C1135 C 0.27358 0.7651 0.42134 0.0
C1136 C 0.27135 0.77893 0.40998 0.0
C1137 C 0.26645 0.76925 0.39749 0.0
C1138 C 0.2639 0.74585 0.39688 0.0
H1139 H 0.27274 0.73116 0.42886 0.0
O1140 O 0.32707 0.69464 0.4088 0.0
O1141 O 0.29299 0.6962 0.40012 0.0
O1142 O 0.29403 0.67196 0.42505 0.0
O1143 O 0.26249 0.69229 0.4222 0.0
C1144 C 0.26441 0.78184 0.38557 0.0
C1145 C 0.26028 0.77086 0.37326 0.0
H1146 H 0.25332 0.74377 0.3514 0.0
H1147 H 0.25072 0.70211 0.35223 0.0
H1148 H 0.27738 0.77245 0.43102 0.0
H1149 H 0.27357 0.79694 0.41096 0.0
H1150 H 0.26633 0.79996 0.38573 0.0
H1151 H 0.25909 0.7807 0.36414 0.0
C1152 C 0.42477 0.96263 0.29762 0.0
C1153 C 0.42835 0.97985 0.30704 0.0
C1154 C 0.4241 0.96747 0.28388 0.0
C1155 C 0.43995 0.0122 0.25928 0.0
H1156 H 0.40238 0.97728 0.23523 0.0
C1157 C 0.42439 0.03621 0.20371 0.0
C1158 C 0.42859 0.01899 0.19436 0.0
C1159 C 0.42369 0.0315 0.21746 0.0
C1160 C 0.413 0.9871 0.24185 0.0
H1161 H 0.43331 0.01574 0.30946 0.0
H1162 H 0.43113 0.02435 0.28564 0.0
H1163 H 0.40182 0.96929 0.25925 0.0
H1164 H 0.43485 0.98323 0.19212 0.0
H1165 H 0.43305 0.97497 0.21614 0.0
H1166 H 0.45053 0.03041 0.24181 0.0
C1167 C 0.42967 0.00695 0.28874 0.0
C1168 C 0.41282 0.98246 0.25562 0.0
C1169 C 0.43075 0.00206 0.30244 0.0
C1170 C 0.43165 0.99689 0.19906 0.0
C1171 C 0.43052 0.99212 0.21279 0.0
C1172 C 0.4398 0.01708 0.24556 0.0
C1173 C 0.42661 0.98971 0.27922 0.0
C1174 C 0.42639 0.99487 0.26454 0.0
C1175 C 0.42673 0.00941 0.22212 0.0
C1176 C 0.42643 0.0045 0.23671 0.0
H1177 H 0.42306 0.94531 0.30083 0.0
H1178 H 0.42211 0.95363 0.27691 0.0
H1179 H 0.45103 0.02183 0.26571 0.0
H1180 H 0.42206 0.05343 0.20043 0.0
H1181 H 0.42064 0.04511 0.22446 0.0
C1182 C 0.28703 0.17469 0.54859 0.0
C1183 C 0.26997 0.17818 0.55814 0.0
C1184 C 0.28194 0.17424 0.53488 0.0
C1185 C 0.2371 0.16335 0.51075 0.0
H1186 H 0.27034 0.20305 0.4871 0.0
C1187 C 0.21126 0.176 0.45525 0.0
C1188 C 0.22826 0.18006 0.44576 0.0
C1189 C 0.2163 0.17531 0.46897 0.0
C1190 C 0.26113 0.19152 0.49347 0.0
H1191 H 0.23412 0.18335 0.5608 0.0
H1192 H 0.22521 0.18198 0.53685 0.0
H1193 H 0.27954 0.20186 0.51091 0.0
H1194 H 0.26399 0.18596 0.4432 0.0
H1195 H 0.27296 0.18379 0.46695 0.0
H1196 H 0.2191 0.15242 0.49336 0.0
C1197 C 0.24252 0.17981 0.54 0.0
C1198 C 0.26637 0.19097 0.50714 0.0
C1199 C 0.24765 0.1807 0.5537 0.0
C1200 C 0.25045 0.18304 0.45027 0.0
C1201 C 0.25557 0.18195 0.46394 0.0
C1202 C 0.23211 0.16359 0.49702 0.0
C1203 C 0.25965 0.17683 0.53046 0.0
C1204 C 0.25434 0.17696 0.51592 0.0
C1205 C 0.23855 0.17828 0.47353 0.0
C1206 C 0.24399 0.17776 0.48817 0.0
H1207 H 0.3044 0.1728 0.55167 0.0
H1208 H 0.29543 0.1718 0.52772 0.0
H1209 H 0.2277 0.15226 0.51731 0.0
H1210 H 0.19395 0.17381 0.45211 0.0
H1211 H 0.20263 0.17285 0.476 0.0
C1212 C 0.07321 0.03866 0.79741 0.0
C1213 C 0.0696 0.02169 0.80699 0.0
C1214 C 0.07376 0.0335 0.78371 0.0
C1215 C 0.05768 0.98827 0.75948 0.0
H1216 H 0.09575 0.0222 0.7352 0.0
C1217 C 0.07371 0.96228 0.70429 0.0
C1218 C 0.06997 0.97921 0.69468 0.0
C1219 C 0.07421 0.96748 0.71798 0.0
C1220 C 0.08498 0.01266 0.74188 0.0
H1221 H 0.06438 0.98589 0.80972 0.0
H1222 H 0.06631 0.97673 0.78596 0.0
H1223 H 0.09611 0.0309 0.75914 0.0
H1224 H 0.06429 0.01497 0.69193 0.0
H1225 H 0.06572 0.02408 0.71587 0.0
H1226 H 0.04715 0.96962 0.74216 0.0
C1227 C 0.06791 0.99418 0.78891 0.0
C1228 C 0.08505 0.01771 0.7556 0.0
C1229 C 0.06697 0.9994 0.80258 0.0
C1230 C 0.06715 0.00153 0.69907 0.0
C1231 C 0.06806 0.00678 0.71275 0.0
C1232 C 0.05793 0.98299 0.7458 0.0
C1233 C 0.07108 0.01117 0.77925 0.0
C1234 C 0.07132 0.00564 0.76461 0.0
C1235 C 0.07139 0.98977 0.72234 0.0
C1236 C 0.07149 0.99519 0.73687 0.0
H1237 H 0.0751 0.05604 0.80048 0.0
H1238 H 0.07583 0.04715 0.77663 0.0
H1239 H 0.04648 0.9789 0.76597 0.0
H1240 H 0.07585 0.94491 0.70125 0.0
H1241 H 0.07691 0.95408 0.72517 0.0
C1242 C 0.28539 0.82251 0.95309 0.0
C1243 C 0.26851 0.81868 0.94346 0.0
C1244 C 0.28015 0.82286 0.96677 0.0
C1245 C 0.23499 0.83321 0.99069 0.0
H1246 H 0.26905 0.79474 0.01465 0.0
C1247 C 0.21018 0.82195 0.04652 0.0
C1248 C 0.22743 0.8184 0.05593 0.0
C1249 C 0.21495 0.82233 0.03276 0.0
C1250 C 0.25959 0.80592 0.00819 0.0
H1251 H 0.23282 0.81269 0.94065 0.0
H1252 H 0.22363 0.81386 0.96459 0.0
H1253 H 0.27807 0.79541 0.99081 0.0
H1254 H 0.2633 0.81318 0.0583 0.0
H1255 H 0.27178 0.81484 0.03448 0.0
H1256 H 0.21696 0.84436 0.00803 0.0
C1257 C 0.24092 0.81639 0.96149 0.0
C1258 C 0.26472 0.80617 0.9945 0.0
C1259 C 0.24621 0.81561 0.94782 0.0
C1260 C 0.24958 0.81569 0.0513 0.0
C1261 C 0.25441 0.81648 0.03759 0.0
C1262 C 0.2301 0.83329 0.00444 0.0
C1263 C 0.25787 0.8198 0.9711 0.0
C1264 C 0.25244 0.81976 0.98562 0.0
C1265 C 0.23715 0.81955 0.02808 0.0
C1266 C 0.24232 0.81961 0.0134 0.0
H1267 H 0.30274 0.82484 0.95007 0.0
H1268 H 0.2935 0.82564 0.97398 0.0
H1269 H 0.22539 0.84398 0.98405 0.0
H1270 H 0.1929 0.82392 0.04977 0.0
H1271 H 0.20111 0.82437 0.0258 0.0
C1272 C 0.57242 0.9626 0.79814 0.0
C1273 C 0.5687 0.97929 0.80787 0.0
C1274 C 0.57305 0.96813 0.7845 0.0
C1275 C 0.55737 0.01383 0.7605 0.0
H1276 H 0.59583 0.98007 0.73636 0.0
C1277 C 0.57362 0.0388 0.70498 0.0
C1278 C 0.56981 0.02153 0.6956 0.0
C1279 C 0.57404 0.03409 0.71874 0.0
C1280 C 0.58498 0.98958 0.743 0.0
H1281 H 0.56318 0.01496 0.81094 0.0
H1282 H 0.56523 0.02479 0.78726 0.0
H1283 H 0.59602 0.97138 0.76027 0.0
H1284 H 0.56389 0.98572 0.69331 0.0
H1285 H 0.56521 0.97748 0.71733 0.0
H1286 H 0.54693 0.03243 0.74314 0.0
C1287 C 0.56691 0.00727 0.79005 0.0
C1288 C 0.58493 0.98453 0.75671 0.0
C1289 C 0.56589 0.00167 0.80368 0.0
C1290 C 0.56678 0.99942 0.70028 0.0
C1291 C 0.56765 0.99466 0.71401 0.0
C1292 C 0.55774 0.01913 0.74683 0.0
C1293 C 0.57037 0.99056 0.78024 0.0
C1294 C 0.57096 0.99643 0.76566 0.0
C1295 C 0.57112 0.01196 0.72337 0.0
C1296 C 0.57139 0.00692 0.73794 0.0
H1297 H 0.57442 0.94515 0.80103 0.0
H1298 H 0.57525 0.95467 0.7773 0.0
H1299 H 0.54606 0.02312 0.76696 0.0
H1300 H 0.5759 0.05603 0.70171 0.0
H1301 H 0.57683 0.04771 0.72577 0.0
C1302 C 0.75267 0.81966 0.4477 0.0
C1303 C 0.73034 0.82193 0.44329 0.0
C1304 C 0.75795 0.82113 0.46135 0.0
C1305 C 0.73432 0.83888 0.49453 0.0
H1306 H 0.78235 0.80123 0.50831 0.0
C1307 C 0.74865 0.82005 0.55102 0.0
C1308 C 0.77077 0.82264 0.55579 0.0
C1309 C 0.744 0.82147 0.53729 0.0
C1310 C 0.76902 0.81197 0.50457 0.0
H1311 H 0.69597 0.8274 0.44978 0.0
H1312 H 0.70495 0.82903 0.47361 0.0
H1313 H 0.77343 0.80039 0.48446 0.0
H1314 H 0.80535 0.82872 0.54987 0.0
H1315 H 0.79723 0.83064 0.52581 0.0
H1316 H 0.72944 0.84963 0.51489 0.0
C1317 C 0.71859 0.82684 0.46653 0.0
C1318 C 0.76394 0.81162 0.49087 0.0
C1319 C 0.71338 0.82577 0.45284 0.0
C1320 C 0.78813 0.82674 0.54652 0.0
C1321 C 0.78352 0.82773 0.53276 0.0
C1322 C 0.73917 0.83891 0.50828 0.0
C1323 C 0.74096 0.82447 0.471 0.0
C1324 C 0.74651 0.82508 0.48563 0.0
C1325 C 0.76142 0.82508 0.52802 0.0
C1326 C 0.75658 0.82548 0.51342 0.0
H1327 H 0.76617 0.81692 0.44058 0.0
H1328 H 0.77542 0.81975 0.46429 0.0
H1329 H 0.7211 0.84982 0.49091 0.0
H1330 H 0.73489 0.81695 0.5579 0.0
H1331 H 0.72684 0.81922 0.53388 0.0
C1332 C 0.93502 0.99973 0.30115 0.0
C1333 C 0.932 0.02185 0.30583 0.0
C1334 C 0.93414 0.99497 0.28742 0.0
C1335 C 0.94376 0.01944 0.25456 0.0
H1336 H 0.9049 0.97209 0.2412 0.0
C1337 C 0.93393 0.00341 0.19774 0.0
C1338 C 0.93089 0.98117 0.19332 0.0
C1339 C 0.93328 0.0086 0.21142 0.0
C1340 C 0.91615 0.98512 0.24473 0.0
H1341 H 0.92598 0.05636 0.29973 0.0
H1342 H 0.92504 0.04805 0.27566 0.0
H1343 H 0.90568 0.98049 0.26515 0.0
H1344 H 0.92503 0.94688 0.19983 0.0
H1345 H 0.92485 0.95569 0.22369 0.0
H1346 H 0.95501 0.02363 0.23436 0.0
C1347 C 0.92784 0.03442 0.28269 0.0
C1348 C 0.91645 0.99 0.25847 0.0
C1349 C 0.92827 0.03914 0.29645 0.0
C1350 C 0.92722 0.96422 0.2029 0.0
C1351 C 0.92698 0.96934 0.21661 0.0
C1352 C 0.94379 0.01431 0.24086 0.0
C1353 C 0.93067 0.01228 0.27806 0.0
C1354 C 0.93021 0.00724 0.2635 0.0
C1355 C 0.93 0.99162 0.22108 0.0
C1356 C 0.92994 0.99711 0.23572 0.0
H1357 H 0.93784 0.98603 0.30812 0.0
H1358 H 0.93651 0.97778 0.28409 0.0
H1359 H 0.95472 0.03265 0.25822 0.0
H1360 H 0.93657 0.0169 0.1906 0.0
H1361 H 0.93516 0.02602 0.21438 0.0
C1362 C 0.74575 0.18359 0.94722 0.0
C1363 C 0.76816 0.18096 0.94304 0.0
C1364 C 0.74007 0.18213 0.96082 0.0
C1365 C 0.76267 0.16322 0.99404 0.0
H1366 H 0.71481 0.20097 0.0079 0.0
C1367 C 0.74827 0.18099 0.05055 0.0
C1368 C 0.72617 0.17834 0.05532 0.0
C1369 C 0.75288 0.1799 0.0368 0.0
C1370 C 0.72808 0.1902 0.00413 0.0
H1371 H 0.80227 0.17507 0.94988 0.0
H1372 H 0.79262 0.17347 0.97358 0.0
H1373 H 0.72409 0.20232 0.98408 0.0
H1374 H 0.69154 0.17255 0.04938 0.0
H1375 H 0.69959 0.17121 0.02528 0.0
H1376 H 0.76715 0.15191 0.01431 0.0
C1377 C 0.7792 0.17589 0.96638 0.0
C1378 C 0.73337 0.19086 0.99045 0.0
C1379 C 0.7848 0.17695 0.95276 0.0
C1380 C 0.70876 0.17454 0.04603 0.0
C1381 C 0.71332 0.17389 0.03225 0.0
C1382 C 0.75762 0.16288 0.00775 0.0
C1383 C 0.75673 0.1784 0.97063 0.0
C1384 C 0.75079 0.1774 0.98519 0.0
C1385 C 0.73543 0.17656 0.02752 0.0
C1386 C 0.7403 0.17638 0.01292 0.0
H1387 H 0.73249 0.1865 0.93997 0.0
H1388 H 0.72254 0.18371 0.9636 0.0
H1389 H 0.77584 0.15222 0.99039 0.0
H1390 H 0.76207 0.18387 0.05744 0.0
H1391 H 0.77004 0.18215 0.03341 0.0
C1392 C 0.93198 0.49992 0.69811 0.0
C1393 C 0.92947 0.52216 0.69358 0.0
C1394 C 0.93107 0.49491 0.7118 0.0
C1395 C 0.91444 0.51892 0.74507 0.0
H1396 H 0.9523 0.47077 0.75849 0.0
C1397 C 0.93319 0.50305 0.80154 0.0
C1398 C 0.93032 0.48079 0.80601 0.0
C1399 C 0.93201 0.50821 0.78786 0.0
C1400 C 0.94153 0.48415 0.75486 0.0
H1401 H 0.92411 0.55662 0.6999 0.0
H1402 H 0.92346 0.5481 0.72382 0.0
H1403 H 0.95275 0.47988 0.73467 0.0
H1404 H 0.92406 0.44648 0.79959 0.0
H1405 H 0.92257 0.45547 0.77565 0.0
H1406 H 0.90399 0.5236 0.76551 0.0
C1407 C 0.92544 0.53434 0.71681 0.0
C1408 C 0.94165 0.48934 0.74117 0.0
C1409 C 0.92594 0.53929 0.70307 0.0
C1410 C 0.92625 0.4638 0.79649 0.0
C1411 C 0.9255 0.46891 0.78279 0.0
C1412 C 0.91464 0.51397 0.75881 0.0
C1413 C 0.92807 0.51206 0.72138 0.0
C1414 C 0.92801 0.50672 0.73604 0.0
C1415 C 0.92838 0.49115 0.77835 0.0
C1416 C 0.9281 0.49646 0.76381 0.0
H1417 H 0.93446 0.48628 0.69105 0.0
H1418 H 0.93259 0.47749 0.71484 0.0
H1419 H 0.90341 0.53214 0.74154 0.0
H1420 H 0.93627 0.51653 0.80862 0.0
H1421 H 0.93442 0.52547 0.78468 0.0
C1422 C 0.78745 0.67777 0.0473 0.0
C1423 C 0.77044 0.68188 0.0568 0.0
C1424 C 0.78242 0.67724 0.03359 0.0
C1425 C 0.7373 0.66662 0.00963 0.0
H1426 H 0.77159 0.70427 0.98534 0.0
C1427 C 0.71204 0.6772 0.95384 0.0
C1428 C 0.72923 0.68038 0.94435 0.0
C1429 C 0.71696 0.67702 0.96759 0.0
C1430 C 0.76207 0.6933 0.9919 0.0
H1431 H 0.73474 0.68822 0.05934 0.0
H1432 H 0.72594 0.68675 0.03539 0.0
H1433 H 0.78076 0.70397 0.00917 0.0
H1434 H 0.76514 0.68513 0.94182 0.0
H1435 H 0.77386 0.6838 0.96562 0.0
H1436 H 0.71902 0.65534 0.99242 0.0
C1437 C 0.74316 0.68415 0.03859 0.0
C1438 C 0.76729 0.69327 0.00558 0.0
C1439 C 0.74825 0.68511 0.05228 0.0
C1440 C 0.75146 0.68291 0.94889 0.0
C1441 C 0.75643 0.68232 0.96259 0.0
C1442 C 0.73231 0.66633 0.99591 0.0
C1443 C 0.76022 0.68036 0.02911 0.0
C1444 C 0.75491 0.68001 0.01458 0.0
C1445 C 0.73924 0.67961 0.97217 0.0
C1446 C 0.74458 0.67973 0.98683 0.0
H1447 H 0.80471 0.6753 0.05045 0.0
H1448 H 0.79585 0.67419 0.02647 0.0
H1449 H 0.72761 0.6561 0.01637 0.0
H1450 H 0.69471 0.67537 0.95067 0.0
H1451 H 0.70317 0.67527 0.97461 0.0
C1452 C 0.5753 0.53703 0.29685 0.0
C1453 C 0.57154 0.52007 0.30641 0.0
C1454 C 0.57629 0.5318 0.28316 0.0
C1455 C 0.56093 0.48636 0.25891 0.0
H1456 H 0.59873 0.52077 0.23473 0.0
C1457 C 0.57589 0.46171 0.20333 0.0
C1458 C 0.57169 0.47895 0.194 0.0
C1459 C 0.57692 0.46646 0.21708 0.0
C1460 C 0.58807 0.51107 0.24139 0.0
H1461 H 0.56663 0.48423 0.30914 0.0
H1462 H 0.56934 0.47496 0.28544 0.0
H1463 H 0.59905 0.52928 0.25869 0.0
H1464 H 0.56587 0.5148 0.19177 0.0
H1465 H 0.56822 0.5231 0.21576 0.0
H1466 H 0.55049 0.46781 0.24154 0.0
C1467 C 0.5707 0.49245 0.28837 0.0
C1468 C 0.58811 0.51602 0.25512 0.0
C1469 C 0.5693 0.49773 0.30202 0.0
C1470 C 0.56904 0.50111 0.1987 0.0
C1471 C 0.57051 0.50591 0.21241 0.0
C1472 C 0.56122 0.48119 0.24522 0.0
C1473 C 0.57392 0.50943 0.27871 0.0
C1474 C 0.57441 0.50384 0.26408 0.0
C1475 C 0.57422 0.4886 0.22174 0.0
C1476 C 0.57466 0.49359 0.23632 0.0
H1477 H 0.57691 0.55444 0.29991 0.0
H1478 H 0.57841 0.54544 0.27607 0.0
H1479 H 0.54977 0.47689 0.26537 0.0
H1480 H 0.57791 0.44446 0.20004 0.0
H1481 H 0.57991 0.45283 0.22407 0.0
C1482 C 0.75051 0.31617 0.55157 0.0
C1483 C 0.72835 0.31884 0.55626 0.0
C1484 C 0.75525 0.31716 0.53784 0.0
C1485 C 0.7309 0.30685 0.50506 0.0
H1486 H 0.77824 0.34557 0.49154 0.0
C1487 C 0.74766 0.31524 0.44824 0.0
C1488 C 0.76994 0.31829 0.44389 0.0
C1489 C 0.74229 0.31619 0.46188 0.0
C1490 C 0.76521 0.33436 0.49512 0.0
H1491 H 0.69377 0.32447 0.55019 0.0
H1492 H 0.70206 0.3256 0.5261 0.0
H1493 H 0.76955 0.3454 0.51546 0.0
H1494 H 0.80413 0.32444 0.45049 0.0
H1495 H 0.79501 0.32513 0.47432 0.0
H1496 H 0.72703 0.29503 0.48495 0.0
C1497 C 0.71572 0.32299 0.53313 0.0
C1498 C 0.76016 0.33442 0.50884 0.0
C1499 C 0.71102 0.32245 0.5469 0.0
C1500 C 0.78676 0.32221 0.45351 0.0
C1501 C 0.78146 0.32275 0.4672 0.0
C1502 C 0.73621 0.30648 0.49139 0.0
C1503 C 0.73789 0.3204 0.52849 0.0
C1504 C 0.74294 0.3207 0.51392 0.0
C1505 C 0.75913 0.31978 0.47159 0.0
C1506 C 0.75343 0.32025 0.4862 0.0
H1507 H 0.76426 0.31346 0.55852 0.0
H1508 H 0.77247 0.31497 0.53451 0.0
H1509 H 0.71773 0.2959 0.50877 0.0
H1510 H 0.73425 0.31242 0.44107 0.0
H1511 H 0.72484 0.31432 0.46477 0.0
C1512 C 0.07429 0.4608 0.29728 0.0
C1513 C 0.07039 0.47802 0.30667 0.0
C1514 C 0.07498 0.46561 0.28353 0.0
C1515 C 0.08597 0.51031 0.25929 0.0
H1516 H 0.04718 0.47655 0.23537 0.0
C1517 C 0.07332 0.53651 0.20386 0.0
C1518 C 0.06949 0.51959 0.19429 0.0
C1519 C 0.07413 0.53129 0.21756 0.0
C1520 C 0.05847 0.48591 0.24181 0.0
H1521 H 0.0647 0.51386 0.30901 0.0
H1522 H 0.06645 0.52227 0.28502 0.0
H1523 H 0.04809 0.46731 0.25918 0.0
H1524 H 0.06422 0.4838 0.19155 0.0
H1525 H 0.06661 0.47452 0.21526 0.0
H1526 H 0.09691 0.52854 0.24198 0.0
C1527 C 0.06877 0.50505 0.28832 0.0
C1528 C 0.05887 0.48064 0.25549 0.0
C1529 C 0.06764 0.5002 0.30203 0.0
C1530 C 0.06694 0.49728 0.19869 0.0
C1531 C 0.06815 0.49199 0.21233 0.0
C1532 C 0.0859 0.51534 0.24557 0.0
C1533 C 0.07224 0.48779 0.27893 0.0
C1534 C 0.0725 0.49289 0.26436 0.0
C1535 C 0.07152 0.50893 0.222 0.0
C1536 C 0.07202 0.50331 0.23662 0.0
H1537 H 0.07639 0.44354 0.30052 0.0
H1538 H 0.07778 0.45202 0.27648 0.0
H1539 H 0.09678 0.51989 0.26593 0.0
H1540 H 0.07518 0.5539 0.2008 0.0
H1541 H 0.07635 0.5449 0.22465 0.0
C1542 C 0.24832 0.31642 0.05265 0.0
C1543 C 0.27061 0.31906 0.05707 0.0
C1544 C 0.24304 0.3177 0.03901 0.0
C1545 C 0.26627 0.33588 0.00585 0.0
H1546 H 0.21843 0.29794 0.99212 0.0
C1547 C 0.2512 0.31799 0.94936 0.0
C1548 C 0.229 0.3206 0.94471 0.0
C1549 C 0.25604 0.31909 0.96307 0.0
C1550 C 0.2317 0.30876 0.99585 0.0
H1551 H 0.30491 0.32496 0.05059 0.0
H1552 H 0.29592 0.32624 0.02674 0.0
H1553 H 0.22773 0.29681 0.01592 0.0
H1554 H 0.19447 0.32634 0.95085 0.0
H1555 H 0.20292 0.32769 0.9749 0.0
H1556 H 0.27069 0.34703 0.98554 0.0
C1557 C 0.28232 0.32389 0.03382 0.0
C1558 C 0.237 0.30824 0.00952 0.0
C1559 C 0.28754 0.32302 0.04751 0.0
C1560 C 0.21174 0.32436 0.9541 0.0
C1561 C 0.21654 0.32502 0.96785 0.0
C1562 C 0.2612 0.33609 0.99214 0.0
C1563 C 0.25997 0.32122 0.02936 0.0
C1564 C 0.25434 0.32183 0.01474 0.0
C1565 C 0.23874 0.3224 0.97245 0.0
C1566 C 0.24383 0.32257 0.98702 0.0
H1567 H 0.23484 0.31361 0.05977 0.0
H1568 H 0.22558 0.3161 0.03608 0.0
H1569 H 0.27941 0.34693 0.00947 0.0
H1570 H 0.26489 0.31517 0.94238 0.0
H1571 H 0.27326 0.31688 0.96637 0.0
C1572 C 0.42586 0.53692 0.79716 0.0
C1573 C 0.43003 0.51978 0.80656 0.0
C1574 C 0.42508 0.53207 0.78343 0.0
C1575 C 0.41426 0.48739 0.7592 0.0
H1576 H 0.45216 0.52194 0.73518 0.0
C1577 C 0.42602 0.46237 0.70351 0.0
C1578 C 0.42953 0.47951 0.69403 0.0
C1579 C 0.42534 0.46734 0.71723 0.0
C1580 C 0.44112 0.51236 0.74165 0.0
H1581 H 0.43617 0.48401 0.80892 0.0
H1582 H 0.43427 0.47553 0.78493 0.0
H1583 H 0.45172 0.53076 0.75904 0.0
H1584 H 0.43431 0.51541 0.69148 0.0
H1585 H 0.43213 0.52423 0.71527 0.0
H1586 H 0.40308 0.46937 0.74188 0.0
C1587 C 0.4318 0.49272 0.78822 0.0
C1588 C 0.441 0.51738 0.75536 0.0
C1589 C 0.433 0.49761 0.80194 0.0
C1590 C 0.43183 0.50178 0.69855 0.0
C1591 C 0.43074 0.5068 0.71223 0.0
C1592 C 0.41405 0.48261 0.74545 0.0
C1593 C 0.42804 0.50993 0.77884 0.0
C1594 C 0.42768 0.50487 0.76427 0.0
C1595 C 0.42776 0.48963 0.72181 0.0
C1596 C 0.42758 0.49495 0.73647 0.0
H1597 H 0.42359 0.55417 0.80038 0.0
H1598 H 0.42205 0.54563 0.77639 0.0
H1599 H 0.40368 0.47763 0.76587 0.0
H1600 H 0.42437 0.44501 0.70035 0.0
H1601 H 0.42341 0.45357 0.72425 0.0
C1602 C 0.25226 0.68409 0.55209 0.0
C1603 C 0.23 0.68113 0.55649 0.0
C1604 C 0.25755 0.683 0.53844 0.0
C1605 C 0.23444 0.66451 0.50531 0.0
H1606 H 0.28196 0.70271 0.49146 0.0
C1607 C 0.24909 0.68226 0.44878 0.0
C1608 C 0.27127 0.67966 0.4441 0.0
C1609 C 0.24434 0.68124 0.4625 0.0
C1610 C 0.26878 0.69183 0.49522 0.0
H1611 H 0.19576 0.67499 0.54998 0.0
H1612 H 0.20476 0.67404 0.52614 0.0
H1613 H 0.27274 0.70389 0.51527 0.0
H1614 H 0.30585 0.67403 0.45018 0.0
H1615 H 0.29754 0.67283 0.47425 0.0
H1616 H 0.23001 0.65325 0.48502 0.0
C1617 C 0.21834 0.67647 0.53323 0.0
C1618 C 0.26352 0.69238 0.5089 0.0
C1619 C 0.21312 0.67716 0.54692 0.0
C1620 C 0.28859 0.676 0.45346 0.0
C1621 C 0.28387 0.67542 0.46722 0.0
C1622 C 0.23945 0.66428 0.49159 0.0
C1623 C 0.24066 0.67934 0.52878 0.0
C1624 C 0.24629 0.6787 0.51416 0.0
C1625 C 0.2617 0.67803 0.47186 0.0
C1626 C 0.25669 0.6779 0.48643 0.0
H1627 H 0.26571 0.68694 0.55923 0.0
H1628 H 0.275 0.68479 0.53551 0.0
H1629 H 0.22139 0.65338 0.50896 0.0
H1630 H 0.23536 0.68502 0.44182 0.0
H1631 H 0.22713 0.68344 0.46583 0.0
C1632 C 0.38645 0.97306 0.13868 0.0
C1633 C 0.3817 0.99514 0.14289 0.0
C1634 C 0.36948 0.95927 0.13361 0.0
C1635 C 0.30813 0.95079 0.13293 0.0
H1636 H 0.32292 0.91231 0.10275 0.0
C1637 C 0.24431 0.88897 0.108 0.0
C1638 C 0.25274 0.86717 0.10574 0.0
C1639 C 0.25875 0.90643 0.1119 0.0
C1640 C 0.31855 0.9229 0.11121 0.0
H1641 H 0.35511 0.01987 0.14517 0.0
H1642 H 0.32539 0.99566 0.13623 0.0
H1643 H 0.35039 0.93955 0.11076 0.0
H1644 H 0.28307 0.84677 0.10578 0.0
H1645 H 0.30801 0.87704 0.11249 0.0
H1646 H 0.27628 0.9338 0.13339 0.0
C1647 C 0.34234 0.98908 0.13695 0.0
C1648 C 0.3343 0.93848 0.11582 0.0
C1649 C 0.35939 0.00296 0.14203 0.0
C1650 C 0.27592 0.8633 0.10741 0.0
C1651 C 0.2903 0.88072 0.11117 0.0
C1652 C 0.29229 0.93518 0.12827 0.0
C1653 C 0.34726 0.96713 0.13257 0.0
C1654 C 0.32951 0.95224 0.12693 0.0
C1655 C 0.28193 0.90248 0.11345 0.0
C1656 C 0.29756 0.92072 0.11755 0.0
H1657 H 0.40336 0.96633 0.13922 0.0
H1658 H 0.37379 0.9423 0.1306 0.0
H1659 H 0.30396 0.96107 0.14155 0.0
H1660 H 0.22654 0.89254 0.10686 0.0
H1661 H 0.25185 0.92307 0.11355 0.0
C1662 C 0.24451 0.10938 0.39377 0.0
C1663 C 0.25283 0.13124 0.39597 0.0
C1664 C 0.25903 0.09198 0.38987 0.0
C1665 C 0.31892 0.07586 0.39045 0.0
H1666 H 0.30436 0.0375 0.36018 0.0
C1667 C 0.38692 0.02591 0.36289 0.0
C1668 C 0.38222 0.00381 0.35869 0.0
C1669 C 0.36993 0.03964 0.36799 0.0
C1670 C 0.30853 0.04784 0.36878 0.0
H1671 H 0.28305 0.15181 0.3958 0.0
H1672 H 0.30811 0.12165 0.38909 0.0
H1673 H 0.27657 0.06463 0.36837 0.0
H1674 H 0.35569 0.97898 0.35648 0.0
H1675 H 0.32596 0.00309 0.36548 0.0
H1676 H 0.35087 0.0594 0.39084 0.0
C1677 C 0.29043 0.11788 0.39046 0.0
C1678 C 0.29262 0.06337 0.37346 0.0
C1679 C 0.27597 0.13523 0.39423 0.0
C1680 C 0.35994 0.99591 0.3596 0.0
C1681 C 0.34287 0.00973 0.36472 0.0
C1682 C 0.33473 0.06036 0.38582 0.0
C1683 C 0.28217 0.09606 0.38826 0.0
C1684 C 0.29788 0.07789 0.38415 0.0
C1685 C 0.34774 0.0317 0.36908 0.0
C1686 C 0.32995 0.04653 0.37473 0.0
H1687 H 0.22678 0.10571 0.39498 0.0
H1688 H 0.25222 0.07529 0.38828 0.0
H1689 H 0.32329 0.08651 0.39888 0.0
H1690 H 0.4038 0.03269 0.36231 0.0
H1691 H 0.37419 0.05662 0.371 0.0
C1692 C 0.13906 0.99897 0.64763 0.0
C1693 C 0.11684 0.00156 0.64306 0.0
C1694 C 0.15594 0.01385 0.64342 0.0
C1695 C 0.16225 0.07091 0.62854 0.0
H1696 H 0.22442 0.05301 0.62375 0.0
C1697 C 0.25015 0.1101 0.6057 0.0
C1698 C 0.24739 0.1324 0.6101 0.0
C1699 C 0.23533 0.09322 0.60999 0.0
C1700 C 0.20709 0.05826 0.62491 0.0
H1701 H 0.09518 0.02098 0.62991 0.0
H1702 H 0.12452 0.04609 0.62216 0.0
H1703 H 0.19635 0.02487 0.62988 0.0
H1704 H 0.22771 0.15421 0.62301 0.0
H1705 H 0.20269 0.12488 0.63089 0.0
H1706 H 0.17252 0.10395 0.623 0.0
C1707 C 0.1289 0.03327 0.62943 0.0
C1708 C 0.19102 0.04215 0.62861 0.0
C1709 C 0.11204 0.01873 0.63381 0.0
C1710 C 0.2301 0.13728 0.61925 0.0
C1711 C 0.21561 0.12043 0.62371 0.0
C1712 C 0.17816 0.08686 0.62469 0.0
C1713 C 0.15098 0.03141 0.63439 0.0
C1714 C 0.16836 0.04829 0.63047 0.0
C1715 C 0.21766 0.09826 0.61892 0.0
C1716 C 0.20084 0.08086 0.6229 0.0
H1717 H 0.14326 0.98591 0.65479 0.0
H1718 H 0.17268 0.01197 0.64754 0.0
H1719 H 0.1451 0.07647 0.63012 0.0
H1720 H 0.26331 0.10583 0.59863 0.0
H1721 H 0.23736 0.07641 0.60599 0.0
C1722 C 0.1383 0.99976 0.85396 0.0
C1723 C 0.11598 0.99724 0.85836 0.0
C1724 C 0.155 0.98472 0.85822 0.0
C1725 C 0.16083 0.92753 0.87303 0.0
H1726 H 0.22288 0.94536 0.87842 0.0
C1727 C 0.2285 0.86113 0.88282 0.0
C1728 C 0.2457 0.86603 0.89204 0.0
C1729 C 0.21401 0.87796 0.87833 0.0
C1730 C 0.20558 0.94013 0.8771 0.0
H1731 H 0.09393 0.97772 0.87122 0.0
H1732 H 0.12295 0.95233 0.87905 0.0
H1733 H 0.19501 0.97354 0.87206 0.0
H1734 H 0.2614 0.89259 0.90363 0.0
H1735 H 0.23542 0.92195 0.89622 0.0
H1736 H 0.17092 0.89448 0.87866 0.0
C1737 C 0.12756 0.96522 0.87189 0.0
C1738 C 0.18963 0.95626 0.87326 0.0
C1739 C 0.11088 0.97993 0.86746 0.0
C1740 C 0.24831 0.8883 0.89651 0.0
C1741 C 0.23349 0.90515 0.89219 0.0
C1742 C 0.17662 0.91156 0.87704 0.0
C1743 C 0.14977 0.96707 0.86713 0.0
C1744 C 0.16701 0.95015 0.87118 0.0
C1745 C 0.21596 0.90012 0.88315 0.0
C1746 C 0.19925 0.91754 0.87905 0.0
H1747 H 0.14274 0.01293 0.84693 0.0
H1748 H 0.17184 0.98658 0.85424 0.0
H1749 H 0.14372 0.922 0.87129 0.0
H1750 H 0.22623 0.84422 0.879 0.0
H1751 H 0.20121 0.8735 0.87107 0.0
C1752 C 0.72864 0.1388 0.88257 0.0
C1753 C 0.74599 0.134 0.8917 0.0
C1754 C 0.71417 0.12188 0.87817 0.0
C1755 C 0.67693 0.08806 0.87721 0.0
H1756 H 0.69563 0.02623 0.87197 0.0
C1757 C 0.61146 0.01923 0.86824 0.0
C1758 C 0.61638 0.00211 0.85897 0.0
C1759 C 0.62818 0.034 0.87255 0.0
C1760 C 0.69016 0.04346 0.87325 0.0
H1761 H 0.76201 0.10753 0.90321 0.0
H1762 H 0.73612 0.07802 0.89594 0.0
H1763 H 0.72347 0.05459 0.87811 0.0
H1764 H 0.64287 0.98681 0.84714 0.0
H1765 H 0.67202 0.01325 0.85427 0.0
H1766 H 0.64395 0.07739 0.8718 0.0
C1767 C 0.73403 0.09481 0.89192 0.0
C1768 C 0.70609 0.05969 0.87696 0.0
C1769 C 0.74881 0.11174 0.89616 0.0
C1770 C 0.63857 -0.00017 0.8543 0.0
C1771 C 0.6553 0.01492 0.85845 0.0
C1772 C 0.66114 0.07198 0.87335 0.0
C1773 C 0.71634 0.09974 0.88298 0.0
C1774 C 0.69966 0.08223 0.87899 0.0
C1775 C 0.65023 0.03239 0.86751 0.0
C1776 C 0.66745 0.04942 0.87141 0.0
H1777 H 0.72621 0.15569 0.87877 0.0
H1778 H 0.70122 0.12625 0.87099 0.0
H1779 H 0.67116 0.1051 0.87891 0.0
H1780 H 0.59463 0.02126 0.87221 0.0
H1781 H 0.62372 0.04676 0.87983 0.0
C1782 C 0.64082 0.00492 0.64358 0.0
C1783 C 0.619 0.99649 0.64579 0.0
C1784 C 0.65826 0.9905 0.63961 0.0
C1785 C 0.67461 0.93066 0.63993 0.0
H1786 H 0.71278 0.94574 0.60967 0.0
C1787 C 0.7243 0.86318 0.61184 0.0
C1788 C 0.74642 0.86788 0.60769 0.0
C1789 C 0.71063 0.88011 0.61705 0.0
C1790 C 0.70249 0.94143 0.61826 0.0
H1791 H 0.59855 0.9662 0.64558 0.0
H1792 H 0.62879 0.94131 0.63875 0.0
H1793 H 0.6856 0.97334 0.61803 0.0
H1794 H 0.77136 0.89435 0.60567 0.0
H1795 H 0.74733 0.924 0.61487 0.0
H1796 H 0.69115 0.89876 0.64013 0.0
C1797 C 0.63249 0.959 0.64017 0.0
C1798 C 0.68694 0.95723 0.62305 0.0
C1799 C 0.6151 0.97335 0.644 0.0
C1800 C 0.75441 0.8901 0.60875 0.0
C1801 C 0.74064 0.90712 0.61398 0.0
C1802 C 0.69013 0.91496 0.63519 0.0
C1803 C 0.65427 0.96736 0.63794 0.0
C1804 C 0.67248 0.95178 0.63373 0.0
C1805 C 0.71865 0.90223 0.61831 0.0
C1806 C 0.70387 0.91993 0.6241 0.0
H1807 H 0.64442 0.02266 0.64482 0.0
H1808 H 0.67491 0.9974 0.63801 0.0
H1809 H 0.66402 0.92615 0.64836 0.0
H1810 H 0.71745 0.84634 0.61114 0.0
H1811 H 0.69363 0.87584 0.62003 0.0
C1812 C 0.74505 0.88968 0.39071 0.0
C1813 C 0.75288 0.86735 0.3913 0.0
C1814 C 0.75873 0.9068 0.38551 0.0
C1815 C 0.80854 0.91528 0.36376 0.0
H1816 H 0.8143 0.97258 0.38205 0.0
C1817 C 0.88428 0.97311 0.35577 0.0
C1818 C 0.88072 0.99641 0.35454 0.0
C1819 C 0.86669 0.95878 0.3593 0.0
C1820 C 0.8126 0.95679 0.37672 0.0
H1821 H 0.78143 0.84569 0.38697 0.0
H1822 H 0.8051 0.87537 0.37814 0.0
H1823 H 0.78704 0.94486 0.39013 0.0
H1824 H 0.8557 0.02287 0.35614 0.0
H1825 H 0.82486 0.99764 0.36243 0.0
H1826 H 0.83443 0.9269 0.35057 0.0
C1827 C 0.78829 0.87965 0.38147 0.0
C1828 C 0.797 0.94092 0.38134 0.0
C1829 C 0.77472 0.86262 0.38665 0.0
C1830 C 0.85902 0.00501 0.35695 0.0
C1831 C 0.84139 0.99061 0.36062 0.0
C1832 C 0.82413 0.93106 0.35918 0.0
C1833 C 0.78045 0.90191 0.38074 0.0
C1834 C 0.79519 0.91978 0.3751 0.0
C1835 C 0.84506 0.96732 0.36178 0.0
C1836 C 0.8267 0.95178 0.36579 0.0
H1837 H 0.72832 0.89395 0.39417 0.0
H1838 H 0.75217 0.92377 0.38502 0.0
H1839 H 0.80719 0.89938 0.35852 0.0
H1840 H 0.90072 0.96584 0.354 0.0
H1841 H 0.87014 0.94096 0.3603 0.0
C1842 C 0.7439 0.11018 0.10795 0.0
C1843 C 0.75167 0.13247 0.10677 0.0
C1844 C 0.75801 0.09326 0.11297 0.0
C1845 C 0.8095 0.08584 0.13342 0.0
H1846 H 0.81346 0.02731 0.1164 0.0
C1847 C 0.88495 0.02765 0.14147 0.0
C1848 C 0.88109 0.00456 0.14351 0.0
C1849 C 0.86743 0.04193 0.13772 0.0
C1850 C 0.8123 0.04347 0.12137 0.0
H1851 H 0.78062 0.15421 0.1098 0.0
H1852 H 0.80502 0.12489 0.11833 0.0
H1853 H 0.78584 0.05474 0.10836 0.0
H1854 H 0.85564 0.97839 0.14305 0.0
H1855 H 0.82494 0.00351 0.13639 0.0
H1856 H 0.83621 0.07486 0.14622 0.0
C1857 C 0.78793 0.12049 0.11561 0.0
C1858 C 0.79649 0.05917 0.11678 0.0
C1859 C 0.77392 0.13732 0.1106 0.0
C1860 C 0.8592 0.99609 0.14161 0.0
C1861 C 0.84164 0.01043 0.13773 0.0
C1862 C 0.82528 0.07023 0.13797 0.0
C1863 C 0.78013 0.09831 0.11698 0.0
C1864 C 0.79527 0.08072 0.12257 0.0
C1865 C 0.84558 0.03353 0.13584 0.0
C1866 C 0.8272 0.04906 0.13182 0.0
H1867 H 0.72686 0.10581 0.10511 0.0
H1868 H 0.75147 0.07634 0.11396 0.0
H1869 H 0.80863 0.10207 0.13833 0.0
H1870 H 0.90155 0.03483 0.14281 0.0
H1871 H 0.87109 0.05958 0.13614 0.0
C1872 C 0.74567 0.38999 0.60786 0.0
C1873 C 0.75423 0.36823 0.60564 0.0
C1874 C 0.76002 0.40756 0.6117 0.0
C1875 C 0.8197 0.4244 0.611 0.0
H1876 H 0.80478 0.46256 0.64129 0.0
C1877 C 0.88718 0.47498 0.63849 0.0
C1878 C 0.88233 0.49711 0.64258 0.0
C1879 C 0.87029 0.46107 0.63347 0.0
C1880 C 0.80904 0.45228 0.63269 0.0
H1881 H 0.78468 0.348 0.60568 0.0
H1882 H 0.80946 0.37848 0.61229 0.0
H1883 H 0.77731 0.43508 0.63315 0.0
H1884 H 0.85563 0.52177 0.64472 0.0
H1885 H 0.82604 0.49731 0.63586 0.0
H1886 H 0.85143 0.44126 0.61057 0.0
C1887 C 0.79172 0.38204 0.61099 0.0
C1888 C 0.79331 0.43655 0.62803 0.0
C1889 C 0.77744 0.36451 0.60727 0.0
C1890 C 0.85999 0.50483 0.64168 0.0
C1891 C 0.84301 0.49081 0.63664 0.0
C1892 C 0.83533 0.44009 0.61561 0.0
C1893 C 0.78322 0.40375 0.61324 0.0
C1894 C 0.79871 0.4221 0.61733 0.0
C1895 C 0.84805 0.46884 0.63235 0.0
C1896 C 0.83041 0.45385 0.62671 0.0
H1897 H 0.72788 0.39345 0.60674 0.0
H1898 H 0.75302 0.42416 0.61333 0.0
H1899 H 0.82416 0.41382 0.60255 0.0
H1900 H 0.90411 0.46833 0.63907 0.0
H1901 H 0.87467 0.44408 0.63052 0.0
C1902 C 0.861 0.49506 0.85819 0.0
C1903 C 0.88332 0.50295 0.85772 0.0
C1904 C 0.84381 0.50859 0.86344 0.0
C1905 C 0.83515 0.55778 0.88562 0.0
H1906 H 0.77799 0.56417 0.86725 0.0
C1907 C 0.77765 0.63353 0.89408 0.0
C1908 C 0.75434 0.63005 0.89526 0.0
C1909 C 0.7919 0.61594 0.89044 0.0
C1910 C 0.79374 0.56228 0.8726 0.0
H1911 H 0.90486 0.53149 0.86226 0.0
H1912 H 0.87507 0.55492 0.87118 0.0
H1913 H 0.80572 0.53707 0.85896 0.0
H1914 H 0.72775 0.60521 0.89346 0.0
H1915 H 0.75284 0.57437 0.88696 0.0
H1916 H 0.8235 0.58332 0.89904 0.0
C1917 C 0.87085 0.53816 0.86773 0.0
C1918 C 0.80961 0.54678 0.86786 0.0
C1919 C 0.88795 0.52473 0.86249 0.0
C1920 C 0.74563 0.60846 0.89269 0.0
C1921 C 0.75995 0.59083 0.8889 0.0
C1922 C 0.81938 0.57325 0.89031 0.0
C1923 C 0.84862 0.53023 0.86837 0.0
C1924 C 0.83072 0.54478 0.87413 0.0
C1925 C 0.78325 0.59441 0.88779 0.0
C1926 C 0.79872 0.57607 0.88368 0.0
H1927 H 0.8568 0.47837 0.85462 0.0
H1928 H 0.82685 0.50198 0.86385 0.0
H1929 H 0.85103 0.55624 0.89088 0.0
H1930 H 0.78501 0.64989 0.89598 0.0
H1931 H 0.80974 0.61931 0.88947 0.0
C1932 C 0.75419 0.60996 0.10806 0.0
C1933 C 0.74577 0.63184 0.10604 0.0
C1934 C 0.73973 0.5924 0.11177 0.0
C1935 C 0.67997 0.57598 0.11096 0.0
H1936 H 0.6946 0.53707 0.14096 0.0
C1937 C 0.61214 0.52536 0.13816 0.0
C1938 C 0.61689 0.50321 0.14225 0.0
C1939 C 0.62909 0.53918 0.13312 0.0
C1940 C 0.69042 0.54756 0.13243 0.0
H1941 H 0.71547 0.65228 0.10633 0.0
H1942 H 0.69051 0.62182 0.11273 0.0
H1943 H 0.72226 0.56453 0.13304 0.0
H1944 H 0.64344 0.47837 0.1443 0.0
H1945 H 0.67312 0.50265 0.13539 0.0
H1946 H 0.64813 0.55933 0.11038 0.0
C1947 C 0.70822 0.61817 0.11136 0.0
C1948 C 0.70625 0.56328 0.1279 0.0
C1949 C 0.72261 0.63569 0.10777 0.0
C1950 C 0.63916 0.49533 0.14127 0.0
C1951 C 0.6562 0.50925 0.1362 0.0
C1952 C 0.66423 0.56028 0.11544 0.0
C1953 C 0.71657 0.59634 0.11339 0.0
C1954 C 0.70096 0.578 0.11732 0.0
C1955 C 0.65128 0.53128 0.13197 0.0
C1956 C 0.66904 0.54626 0.12643 0.0
H1957 H 0.77194 0.6064 0.10686 0.0
H1958 H 0.74662 0.57571 0.11323 0.0
H1959 H 0.67558 0.58678 0.1026 0.0
H1960 H 0.59526 0.53212 0.1388 0.0
H1961 H 0.6248 0.5562 0.13021 0.0
C1962 C 0.72266 0.36462 0.39296 0.0
C1963 C 0.74583 0.36847 0.39467 0.0
C1964 C 0.70827 0.38213 0.38935 0.0
C1965 C 0.70629 0.43687 0.37266 0.0
H1966 H 0.64824 0.44104 0.39026 0.0
C1967 C 0.63921 0.50468 0.35908 0.0
C1968 C 0.61691 0.49683 0.35818 0.0
C1969 C 0.65625 0.49081 0.36419 0.0
C1970 C 0.66432 0.44003 0.38518 0.0
H1971 H 0.77201 0.39389 0.39381 0.0
H1972 H 0.74669 0.42456 0.38738 0.0
H1973 H 0.67571 0.41365 0.3981 0.0
H1974 H 0.59525 0.46801 0.36183 0.0
H1975 H 0.6248 0.44401 0.37049 0.0
H1976 H 0.69459 0.46293 0.35951 0.0
C1977 C 0.7398 0.40788 0.38888 0.0
C1978 C 0.68007 0.42437 0.38969 0.0
C1979 C 0.75425 0.39034 0.39262 0.0
C1980 C 0.61215 0.47476 0.3624 0.0
C1981 C 0.62911 0.46098 0.36749 0.0
C1982 C 0.69044 0.45255 0.36809 0.0
C1983 C 0.71664 0.40394 0.38728 0.0
C1984 C 0.70103 0.42226 0.38331 0.0
C1985 C 0.65132 0.46885 0.36854 0.0
C1986 C 0.66909 0.45393 0.37412 0.0
H1987 H 0.71552 0.34804 0.39443 0.0
H1988 H 0.69056 0.37849 0.38799 0.0
H1989 H 0.72228 0.43554 0.36751 0.0
H1990 H 0.6435 0.52159 0.35594 0.0
H1991 H 0.67319 0.4974 0.36493 0.0
C1992 C 0.11309 0.52516 0.36152 0.0
C1993 C 0.1178 0.50295 0.35755 0.0
C1994 C 0.13007 0.53907 0.36643 0.0
C1995 C 0.19135 0.54764 0.36706 0.0
H1996 H 0.17645 0.58657 0.39702 0.0
C1997 C 0.25485 0.61012 0.39173 0.0
C1998 C 0.24631 0.6319 0.39392 0.0
C1999 C 0.24051 0.59257 0.38785 0.0
C2000 C 0.18085 0.57586 0.38862 0.0
H2001 H 0.14436 0.47811 0.35549 0.0
H2002 H 0.17413 0.50257 0.36416 0.0
H2003 H 0.14909 0.55907 0.3892 0.0
H2004 H 0.21591 0.6522 0.39369 0.0
H2005 H 0.19115 0.62175 0.387 0.0
H2006 H 0.22312 0.56478 0.36647 0.0
C2007 C 0.15719 0.50914 0.36337 0.0
C2008 C 0.16517 0.56013 0.38412 0.0
C2009 C 0.14011 0.49512 0.35845 0.0
C2010 C 0.22314 0.63568 0.39213 0.0
C2011 C 0.20887 0.61817 0.38838 0.0
C2012 C 0.20713 0.56341 0.37161 0.0
C2013 C 0.15228 0.5312 0.36755 0.0
C2014 C 0.17 0.54621 0.37309 0.0
C2015 C 0.21734 0.59641 0.38623 0.0
C2016 C 0.2018 0.57804 0.38224 0.0
H2017 H 0.09619 0.5319 0.36092 0.0
H2018 H 0.12579 0.55612 0.36928 0.0
H2019 H 0.19554 0.53722 0.35851 0.0
H2020 H 0.27261 0.60662 0.39296 0.0
H2021 H 0.24749 0.57594 0.38629 0.0
C2022 C 0.22263 0.36311 0.1087 0.0
C2023 C 0.24575 0.3671 0.10688 0.0
C2024 C 0.20821 0.38051 0.11244 0.0
C2025 C 0.20611 0.43529 0.12915 0.0
H2026 H 0.14792 0.43917 0.1117 0.0
C2027 C 0.13898 0.50329 0.14242 0.0
C2028 C 0.11667 0.49547 0.14333 0.0
C2029 C 0.15604 0.48929 0.13746 0.0
C2030 C 0.16403 0.43823 0.11674 0.0
H2031 H 0.27182 0.39265 0.10772 0.0
H2032 H 0.24643 0.42312 0.11436 0.0
H2033 H 0.17539 0.41181 0.10386 0.0
H2034 H 0.09504 0.46655 0.13995 0.0
H2035 H 0.12462 0.44233 0.13155 0.0
H2036 H 0.19446 0.46145 0.14225 0.0
C2037 C 0.2396 0.40642 0.11285 0.0
C2038 C 0.17978 0.42258 0.11223 0.0
C2039 C 0.25409 0.38899 0.10899 0.0
C2040 C 0.11194 0.47328 0.13934 0.0
C2041 C 0.12891 0.45938 0.1344 0.0
C2042 C 0.19026 0.45096 0.13371 0.0
C2043 C 0.21648 0.40235 0.11453 0.0
C2044 C 0.20081 0.42059 0.11855 0.0
C2045 C 0.15112 0.46724 0.13328 0.0
C2046 C 0.16886 0.45224 0.12774 0.0
H2047 H 0.21556 0.34651 0.1072 0.0
H2048 H 0.19053 0.37676 0.11386 0.0
H2049 H 0.22215 0.43406 0.13425 0.0
H2050 H 0.14324 0.52029 0.14539 0.0
H2051 H 0.17297 0.49587 0.13666 0.0
C2052 C 0.36054 0.50437 0.8586 0.0
C2053 C 0.38286 0.4965 0.85796 0.0
C2054 C 0.34338 0.49061 0.86367 0.0
C2055 C 0.33491 0.44054 0.88515 0.0
H2056 H 0.27748 0.43503 0.86698 0.0
C2057 C 0.27712 0.36492 0.89326 0.0
C2058 C 0.25388 0.36858 0.89475 0.0
C2059 C 0.2914 0.38245 0.88955 0.0
C2060 C 0.29331 0.43666 0.87227 0.0
H2061 H 0.40442 0.46776 0.86201 0.0
H2062 H 0.37467 0.44396 0.87062 0.0
H2063 H 0.3052 0.46235 0.85891 0.0
H2064 H 0.22745 0.39367 0.89335 0.0
H2065 H 0.25259 0.42439 0.88674 0.0
H2066 H 0.32335 0.41455 0.89828 0.0
C2067 C 0.37044 0.46086 0.86744 0.0
C2068 C 0.30917 0.45229 0.86766 0.0
C2069 C 0.38751 0.47451 0.86238 0.0
C2070 C 0.24527 0.39027 0.89234 0.0
C2071 C 0.25962 0.40784 0.8885 0.0
C2072 C 0.31915 0.42494 0.8897 0.0
C2073 C 0.34821 0.46877 0.86826 0.0
C2074 C 0.33036 0.454 0.87387 0.0
C2075 C 0.28286 0.4041 0.88715 0.0
C2076 C 0.29839 0.42245 0.88313 0.0
H2077 H 0.35634 0.52121 0.85529 0.0
H2078 H 0.32642 0.49721 0.86422 0.0
H2079 H 0.35085 0.44184 0.89036 0.0
H2080 H 0.28441 0.34848 0.895 0.0
H2081 H 0.30918 0.37895 0.88839 0.0
C2082 C 0.38794 0.52503 0.63806 0.0
C2083 C 0.38327 0.50299 0.64238 0.0
C2084 C 0.37092 0.5387 0.63296 0.0
C2085 C 0.30961 0.54707 0.63244 0.0
H2086 H 0.32412 0.58542 0.60215 0.0
C2087 C 0.24574 0.60917 0.60785 0.0
C2088 C 0.25425 0.63098 0.60568 0.0
C2089 C 0.26016 0.59161 0.6116 0.0
C2090 C 0.31982 0.57485 0.61063 0.0
H2091 H 0.35676 0.47819 0.64479 0.0
H2092 H 0.32695 0.50221 0.63578 0.0
H2093 H 0.35162 0.55812 0.61007 0.0
H2094 H 0.28465 0.65126 0.60569 0.0
H2095 H 0.30955 0.62078 0.61214 0.0
H2096 H 0.27781 0.56414 0.63303 0.0
C2097 C 0.34388 0.50885 0.63645 0.0
C2098 C 0.33558 0.55924 0.61519 0.0
C2099 C 0.36099 0.49508 0.64158 0.0
C2100 C 0.27745 0.63473 0.60727 0.0
C2101 C 0.2918 0.6172 0.61088 0.0
C2102 C 0.29375 0.5627 0.62783 0.0
C2103 C 0.34873 0.53076 0.63198 0.0
C2104 C 0.33091 0.54556 0.62635 0.0
C2105 C 0.28336 0.59545 0.61308 0.0
C2106 C 0.29894 0.57712 0.61708 0.0
H2107 H 0.40483 0.53182 0.63856 0.0
H2108 H 0.37517 0.55564 0.62987 0.0
H2109 H 0.30553 0.53684 0.64109 0.0
H2110 H 0.22795 0.6057 0.60676 0.0
H2111 H 0.25321 0.57498 0.6132 0.0
C2112 C 0.38338 0.1075 0.12796 0.0
C2113 C 0.38118 0.10152 0.14155 0.0
C2114 C 0.37291 0.12685 0.12299 0.0
C2115 C 0.35385 0.18205 0.13438 0.0
H2116 H 0.32483 0.18574 0.09959 0.0
C2117 C 0.31385 0.26445 0.11577 0.0
C2118 C 0.31652 0.2699 0.10218 0.0
C2119 C 0.31979 0.24317 0.12049 0.0
C2120 C 0.3331 0.18502 0.10926 0.0
H2121 H 0.36554 0.11066 0.16045 0.0
H2122 H 0.34734 0.14446 0.15176 0.0
H2123 H 0.33811 0.14936 0.10788 0.0
H2124 H 0.3288 0.25822 0.08298 0.0
H2125 H 0.33954 0.22089 0.09121 0.0
H2126 H 0.34956 0.21764 0.13568 0.0
C2127 C 0.3573 0.13426 0.14499 0.0
C2128 C 0.34061 0.16418 0.11403 0.0
C2129 C 0.36763 0.11484 0.14994 0.0
C2130 C 0.32607 0.25408 0.09345 0.0
C2131 C 0.33205 0.23272 0.09816 0.0
C2132 C 0.34653 0.20286 0.12959 0.0
C2133 C 0.36017 0.1407 0.13152 0.0
C2134 C 0.35114 0.1625 0.12663 0.0
C2135 C 0.329 0.22702 0.11176 0.0
C2136 C 0.33614 0.20465 0.11695 0.0
H2137 H 0.39369 0.09756 0.12124 0.0
H2138 H 0.37556 0.13145 0.11258 0.0
H2139 H 0.36226 0.18137 0.14402 0.0
H2140 H 0.30722 0.27673 0.12277 0.0
H2141 H 0.31702 0.23936 0.13099 0.0
C2142 C 0.14046 0.13254 0.37947 0.0
C2143 C 0.14606 0.13082 0.39314 0.0
C2144 C 0.12125 0.12189 0.37443 0.0
C2145 C 0.06573 0.10299 0.38547 0.0
H2146 H 0.06309 0.0737 0.35072 0.0
C2147 C 0.98367 0.06354 0.36572 0.0
C2148 C 0.9788 0.06638 0.35206 0.0
C2149 C 0.00482 0.06924 0.37077 0.0
C2150 C 0.06352 0.08203 0.36039 0.0
H2151 H 0.13639 0.11588 0.41215 0.0
H2152 H 0.10282 0.09734 0.40335 0.0
H2153 H 0.09923 0.08691 0.35941 0.0
H2154 H 0.99138 0.07871 0.33308 0.0
H2155 H 0.02847 0.089 0.34187 0.0
H2156 H 0.03007 0.0988 0.38635 0.0
C2157 C 0.11321 0.10707 0.39655 0.0
C2158 C 0.08422 0.08951 0.36538 0.0
C2159 C 0.1325 0.11758 0.40157 0.0
C2160 C 0.99507 0.07584 0.34359 0.0
C2161 C 0.01628 0.08157 0.34863 0.0
C2162 C 0.04505 0.09568 0.38045 0.0
C2163 C 0.10716 0.10944 0.38298 0.0
C2164 C 0.08552 0.1002 0.37794 0.0
C2165 C 0.02141 0.07835 0.36229 0.0
C2166 C 0.04364 0.08525 0.36781 0.0
H2167 H 0.15058 0.1426 0.37271 0.0
H2168 H 0.11696 0.12418 0.36396 0.0
H2169 H 0.0661 0.1115 0.39508 0.0
H2170 H 0.97104 0.05697 0.37251 0.0
H2171 H 0.00818 0.06638 0.38131 0.0
C2172 C 0.13165 0.88235 0.6511 0.0
C2173 C 0.11838 0.89582 0.64263 0.0
C2174 C 0.14222 0.86306 0.64613 0.0
C2175 C 0.16 0.83395 0.61507 0.0
H2176 H 0.1505 0.77987 0.63607 0.0
C2177 C 0.17445 0.74475 0.59352 0.0
C2178 C 0.18381 0.72858 0.60209 0.0
C2179 C 0.1685 0.76596 0.59847 0.0
C2180 C 0.15369 0.79483 0.63017 0.0
H2181 H 0.1066 0.90018 0.62219 0.0
H2182 H 0.12512 0.86655 0.61351 0.0
H2183 H 0.13765 0.81591 0.6447 0.0
H2184 H 0.1928 0.72096 0.62263 0.0
H2185 H 0.18302 0.75808 0.63129 0.0
H2186 H 0.17604 0.8128 0.60052 0.0
C2187 C 0.12738 0.87092 0.62398 0.0
C2188 C 0.14628 0.81551 0.63512 0.0
C2189 C 0.11668 0.89013 0.62897 0.0
C2190 C 0.18631 0.73352 0.61576 0.0
C2191 C 0.1804 0.75466 0.62073 0.0
C2192 C 0.16758 0.81325 0.61014 0.0
C2193 C 0.13987 0.85692 0.63257 0.0
C2194 C 0.14916 0.83527 0.62759 0.0
C2195 C 0.17139 0.77117 0.61216 0.0
C2196 C 0.1643 0.79339 0.61758 0.0
H2197 H 0.13334 0.88631 0.66166 0.0
H2198 H 0.15196 0.85273 0.65295 0.0
H2199 H 0.16264 0.84894 0.6091 0.0
H2200 H 0.17185 0.741 0.58299 0.0
H2201 H 0.16116 0.77807 0.59164 0.0
C2202 C 0.50514 0.92121 0.84369 0.0
C2203 C 0.52125 0.93006 0.85249 0.0
C2204 C 0.48381 0.91524 0.84845 0.0
C2205 C 0.45393 0.90001 0.87978 0.0
H2206 H 0.40042 0.91196 0.85868 0.0
C2207 C 0.36554 0.88106 0.90031 0.0
C2208 C 0.35176 0.86835 0.89173 0.0
C2209 C 0.38517 0.89114 0.89545 0.0
C2210 C 0.41524 0.90849 0.86466 0.0
H2211 H 0.52869 0.938 0.87321 0.0
H2212 H 0.49142 0.92811 0.88154 0.0
H2213 H 0.43718 0.92411 0.85036 0.0
H2214 H 0.34711 0.8572 0.87118 0.0
H2215 H 0.3813 0.87491 0.8627 0.0
H2216 H 0.43206 0.88445 0.89407 0.0
C2217 C 0.49496 0.92591 0.87096 0.0
C2218 C 0.4363 0.91533 0.85987 0.0
C2219 C 0.5162 0.93187 0.86619 0.0
C2220 C 0.35741 0.86685 0.87806 0.0
C2221 C 0.37694 0.87708 0.87318 0.0
C2222 C 0.43291 0.89335 0.8846 0.0
C2223 C 0.47844 0.9176 0.86215 0.0
C2224 C 0.45592 0.91098 0.86733 0.0
C2225 C 0.39131 0.88887 0.88189 0.0
C2226 C 0.41335 0.89735 0.87705 0.0
H2227 H 0.50898 0.91916 0.83313 0.0
H2228 H 0.47166 0.90844 0.84144 0.0
H2229 H 0.46869 0.89603 0.88569 0.0
H2230 H 0.36162 0.88257 0.91089 0.0
H2231 H 0.39578 0.90037 0.90237 0.0
C2232 C 0.3133 0.73683 0.3865 0.0
C2233 C 0.31575 0.73024 0.39993 0.0
C2234 C 0.31931 0.75852 0.38247 0.0
C2235 C 0.3565 0.80521 0.39179 0.0
H2236 H 0.32067 0.83911 0.36632 0.0
C2237 C 0.38382 0.89341 0.37465 0.0
C2238 C 0.38198 0.89803 0.36087 0.0
C2239 C 0.37338 0.8745 0.38018 0.0
C2240 C 0.33095 0.8298 0.37336 0.0
H2241 H 0.32737 0.74039 0.41958 0.0
H2242 H 0.33773 0.77855 0.41263 0.0
H2243 H 0.30704 0.80292 0.37453 0.0
H2244 H 0.36716 0.88686 0.34213 0.0
H2245 H 0.34933 0.8536 0.3517 0.0
H2246 H 0.38075 0.83161 0.39035 0.0
C2247 C 0.33094 0.76709 0.40521 0.0
C2248 C 0.3231 0.80909 0.3781 0.0
C2249 C 0.32494 0.74536 0.40922 0.0
C2250 C 0.36884 0.88378 0.3528 0.0
C2251 C 0.35852 0.86475 0.35831 0.0
C2252 C 0.3644 0.82583 0.38701 0.0
C2253 C 0.32827 0.77389 0.39177 0.0
C2254 C 0.33587 0.79648 0.38729 0.0
C2255 C 0.36101 0.85965 0.37203 0.0
C2256 C 0.35182 0.83833 0.37766 0.0
H2257 H 0.30705 0.72507 0.37907 0.0
H2258 H 0.31748 0.76304 0.37199 0.0
H2259 H 0.36694 0.79575 0.39869 0.0
H2260 H 0.39367 0.90419 0.38116 0.0
H2261 H 0.37527 0.87136 0.39083 0.0
C2262 C 0.36746 0.11902 0.60317 0.0
C2263 C 0.35299 0.13177 0.61132 0.0
C2264 C 0.38668 0.10893 0.60862 0.0
C2265 C 0.42546 0.11498 0.63741 0.0
H2266 H 0.44932 0.05815 0.62471 0.0
C2267 C 0.50575 0.07587 0.66009 0.0
C2268 C 0.52112 0.0667 0.65094 0.0
C2269 C 0.48414 0.08192 0.65587 0.0
C2270 C 0.44289 0.07407 0.62833 0.0
H2271 H 0.34666 0.14298 0.63169 0.0
H2272 H 0.37978 0.12497 0.64124 0.0
H2273 H 0.41305 0.07142 0.61639 0.0
H2274 H 0.52688 0.05814 0.63012 0.0
H2275 H 0.48914 0.06868 0.62267 0.0
H2276 H 0.45533 0.11773 0.64926 0.0
C2277 C 0.37668 0.12322 0.63058 0.0
C2278 C 0.42213 0.08172 0.62354 0.0
C2279 C 0.35759 0.13342 0.62512 0.0
C2280 C 0.51492 0.06438 0.63743 0.0
C2281 C 0.49336 0.07045 0.63319 0.0
C2282 C 0.44612 0.10728 0.64224 0.0
C2283 C 0.39175 0.11127 0.62235 0.0
C2284 C 0.41323 0.10237 0.62794 0.0
C2285 C 0.47772 0.07934 0.64236 0.0
C2286 C 0.45518 0.08683 0.63769 0.0
H2287 H 0.36441 0.1175 0.59249 0.0
H2288 H 0.39799 0.10005 0.60195 0.0
H2289 H 0.4194 0.13118 0.64082 0.0
H2290 H 0.51042 0.07821 0.67051 0.0
H2291 H 0.47246 0.08863 0.66319 0.0
C2292 C 0.1317 0.11716 0.85224 0.0
C2293 C 0.11895 0.10265 0.86036 0.0
C2294 C 0.14213 0.13612 0.85777 0.0
C2295 C 0.13664 0.17439 0.88677 0.0
H2296 H 0.19349 0.19821 0.87407 0.0
C2297 C 0.17552 0.25477 0.90941 0.0
C2298 C 0.1846 0.27015 0.90023 0.0
C2299 C 0.16965 0.23309 0.90524 0.0
C2300 C 0.17756 0.19179 0.8777 0.0
H2301 H 0.10816 0.09592 0.88076 0.0
H2302 H 0.12672 0.12862 0.89045 0.0
H2303 H 0.18005 0.16206 0.86564 0.0
H2304 H 0.19323 0.27581 0.87941 0.0
H2305 H 0.18297 0.23796 0.87204 0.0
H2306 H 0.13399 0.20417 0.8987 0.0
C2307 C 0.12822 0.12574 0.87975 0.0
C2308 C 0.16983 0.1711 0.87284 0.0
C2309 C 0.1177 0.1069 0.87421 0.0
C2310 C 0.18705 0.26386 0.88675 0.0
C2311 C 0.18115 0.24223 0.88255 0.0
C2312 C 0.1444 0.19499 0.89166 0.0
C2313 C 0.14011 0.1409 0.87156 0.0
C2314 C 0.14917 0.16223 0.87724 0.0
C2315 C 0.17231 0.2266 0.89174 0.0
C2316 C 0.16485 0.20404 0.8871 0.0
H2317 H 0.13293 0.11436 0.84152 0.0
H2318 H 0.15098 0.14752 0.85114 0.0
H2319 H 0.12044 0.16834 0.89019 0.0
H2320 H 0.17309 0.2595 0.91981 0.0
H2321 H 0.16298 0.22142 0.91257 0.0
C2322 C 0.14193 0.8657 0.12339 0.0
C2323 C 0.14633 0.86695 0.10956 0.0
C2324 C 0.12301 0.87621 0.12886 0.0
C2325 C 0.07791 0.91804 0.12165 0.0
H2326 H 0.04465 0.88314 0.14787 0.0
C2327 C 0.98534 0.93643 0.13556 0.0
C2328 C 0.9792 0.93459 0.14911 0.0
C2329 C 0.00686 0.93014 0.13135 0.0
C2330 C 0.05388 0.89328 0.14072 0.0
H2331 H 0.13474 0.88084 0.09067 0.0
H2332 H 0.10147 0.89883 0.10014 0.0
H2333 H 0.08035 0.86908 0.13944 0.0
H2334 H 0.98998 0.92371 0.16879 0.0
H2335 H 0.02785 0.91288 0.16152 0.0
H2336 H 0.05097 0.94191 0.12267 0.0
C2337 C 0.1128 0.89002 0.10683 0.0
C2338 C 0.07442 0.88523 0.13588 0.0
C2339 C 0.13183 0.87961 0.10138 0.0
C2340 C 0.9946 0.92569 0.15833 0.0
C2341 C 0.01616 0.9194 0.15415 0.0
C2342 C 0.05728 0.92604 0.12644 0.0
C2343 C 0.10793 0.88811 0.12061 0.0
C2344 C 0.08665 0.89742 0.12622 0.0
C2345 C 0.02251 0.92148 0.14059 0.0
C2346 C 0.04497 0.91367 0.13597 0.0
H2347 H 0.15289 0.85622 0.12999 0.0
H2348 H 0.12006 0.87478 0.13956 0.0
H2349 H 0.08701 0.92803 0.11436 0.0
H2350 H 0.97336 0.94245 0.12819 0.0
H2351 H 0.01103 0.93152 0.1208 0.0
C2352 C 0.68785 0.73356 0.88488 0.0
C2353 C 0.68497 0.72844 0.8985 0.0
C2354 C 0.68233 0.75485 0.87998 0.0
C2355 C 0.67 0.81341 0.8908 0.0
H2356 H 0.64014 0.81683 0.85625 0.0
C2357 C 0.61883 0.89046 0.87271 0.0
C2358 C 0.62016 0.89638 0.85907 0.0
C2359 C 0.62983 0.87129 0.8775 0.0
C2360 C 0.64878 0.81623 0.86582 0.0
H2361 H 0.67275 0.7407 0.91758 0.0
H2362 H 0.66277 0.77805 0.90906 0.0
H2363 H 0.65284 0.78059 0.86464 0.0
H2364 H 0.63483 0.88737 0.83988 0.0
H2365 H 0.65399 0.85385 0.84825 0.0
H2366 H 0.66522 0.8491 0.89209 0.0
C2367 C 0.6701 0.76595 0.90222 0.0
C2368 C 0.65609 0.79543 0.87064 0.0
C2369 C 0.67565 0.74459 0.90709 0.0
C2370 C 0.63342 0.88323 0.85043 0.0
C2371 C 0.64429 0.86396 0.85521 0.0
C2372 C 0.66254 0.83423 0.88601 0.0
C2373 C 0.67337 0.77134 0.88859 0.0
C2374 C 0.66661 0.79371 0.88325 0.0
C2375 C 0.64226 0.85755 0.86874 0.0
C2376 C 0.65168 0.83583 0.8735 0.0
H2377 H 0.69432 0.72102 0.87799 0.0
H2378 H 0.68521 0.75842 0.86947 0.0
H2379 H 0.67841 0.81274 0.90044 0.0
H2380 H 0.60877 0.90027 0.87963 0.0
H2381 H 0.62779 0.8667 0.88795 0.0
C2382 C 0.01395 0.93347 0.63737 0.0
C2383 C 0.02006 0.93158 0.65091 0.0
C2384 C 0.99239 0.92739 0.63315 0.0
C2385 C 0.9448 0.8912 0.64233 0.0
H2386 H 0.91239 0.92696 0.61614 0.0
C2387 C 0.85665 0.865 0.62422 0.0
C2388 C 0.8524 0.86694 0.61039 0.0
C2389 C 0.87564 0.87506 0.62992 0.0
C2390 C 0.92127 0.91667 0.62337 0.0
H2391 H 0.00921 0.92076 0.67059 0.0
H2392 H 0.97123 0.91022 0.66329 0.0
H2393 H 0.94855 0.9401 0.62461 0.0
H2394 H 0.86436 0.88149 0.59177 0.0
H2395 H 0.89773 0.89862 0.60162 0.0
H2396 H 0.91802 0.86738 0.64078 0.0
C2397 C 0.98299 0.91666 0.65593 0.0
C2398 C 0.94198 0.92426 0.62827 0.0
C2399 C 0.0046 0.92276 0.66013 0.0
C2400 C 0.86713 0.87976 0.60246 0.0
C2401 C 0.88623 0.88968 0.60814 0.0
C2402 C 0.9242 0.88352 0.63737 0.0
C2403 C 0.97664 0.91889 0.64238 0.0
C2404 C 0.95405 0.91153 0.63774 0.0
C2405 C 0.89093 0.88714 0.62191 0.0
C2406 C 0.91223 0.89607 0.62774 0.0
H2407 H 0.02596 0.93945 0.63 0.0
H2408 H 0.98823 0.92886 0.62261 0.0
H2409 H 0.95384 0.8808 0.64945 0.0
H2410 H 0.84551 0.85537 0.63062 0.0
H2411 H 0.87844 0.87314 0.6406 0.0
C2412 C 0.81423 0.26615 0.38473 0.0
C2413 C 0.81655 0.27109 0.39842 0.0
C2414 C 0.82016 0.24499 0.3798 0.0
C2415 C 0.83225 0.18634 0.39046 0.0
H2416 H 0.86293 0.1834 0.35615 0.0
C2417 C 0.88233 0.10872 0.37192 0.0
C2418 C 0.88103 0.10323 0.35821 0.0
C2419 C 0.87178 0.12805 0.37686 0.0
C2420 C 0.85408 0.18387 0.36566 0.0
H2421 H 0.82822 0.25867 0.41758 0.0
H2422 H 0.83886 0.22153 0.40901 0.0
H2423 H 0.85032 0.21957 0.36471 0.0
H2424 H 0.86687 0.11321 0.33905 0.0
H2425 H 0.84848 0.14696 0.34769 0.0
H2426 H 0.83666 0.15058 0.3915 0.0
C2427 C 0.83169 0.23367 0.40213 0.0
C2428 C 0.84683 0.20463 0.37057 0.0
C2429 C 0.82576 0.25491 0.40704 0.0
C2430 C 0.86826 0.11701 0.34965 0.0
C2431 C 0.85783 0.13641 0.35458 0.0
C2432 C 0.83966 0.16555 0.38557 0.0
C2433 C 0.82895 0.22845 0.38844 0.0
C2434 C 0.83594 0.20617 0.38307 0.0
C2435 C 0.85983 0.14236 0.36819 0.0
C2436 C 0.85076 0.16412 0.37314 0.0
H2437 H 0.80786 0.27871 0.37783 0.0
H2438 H 0.81767 0.24155 0.36923 0.0
H2439 H 0.82358 0.18688 0.40002 0.0
H2440 H 0.89202 0.09843 0.37878 0.0
H2441 H 0.87377 0.13226 0.38737 0.0
C2442 C 0.63121 0.11885 0.10202 0.0
C2443 C 0.64568 0.13199 0.10995 0.0
C2444 C 0.61231 0.10856 0.10771 0.0
C2445 C 0.5741 0.11428 0.13681 0.0
H2446 H 0.55095 0.057 0.12437 0.0
C2447 C 0.49419 0.07428 0.15959 0.0
C2448 C 0.47892 0.06507 0.15039 0.0
C2449 C 0.51579 0.08051 0.15543 0.0
C2450 C 0.55718 0.07304 0.12793 0.0
H2451 H 0.65229 0.14376 0.13017 0.0
H2452 H 0.61969 0.1254 0.14014 0.0
H2453 H 0.58689 0.07074 0.11587 0.0
H2454 H 0.47335 0.0566 0.12954 0.0
H2455 H 0.51105 0.0674 0.12219 0.0
H2456 H 0.54433 0.11665 0.14879 0.0
C2457 C 0.62257 0.12348 0.12947 0.0
C2458 C 0.57776 0.08096 0.12303 0.0
C2459 C 0.64136 0.13389 0.12377 0.0
C2460 C 0.48522 0.06287 0.13689 0.0
C2461 C 0.50677 0.06908 0.13271 0.0
C2462 C 0.55362 0.1063 0.14177 0.0
C2463 C 0.60753 0.11107 0.12147 0.0
C2464 C 0.58637 0.10181 0.12729 0.0
C2465 C 0.5223 0.07802 0.14192 0.0
C2466 C 0.54479 0.0857 0.13728 0.0
H2467 H 0.63404 0.11712 0.09133 0.0
H2468 H 0.601 0.09935 0.1012 0.0
H2469 H 0.57995 0.13061 0.14014 0.0
H2470 H 0.48944 0.07653 0.17001 0.0
H2471 H 0.52738 0.08728 0.16277 0.0
C2472 C 0.68725 0.26524 0.61577 0.0
C2473 C 0.68423 0.27038 0.60216 0.0
C2474 C 0.68151 0.24402 0.6207 0.0
C2475 C 0.66812 0.18562 0.61005 0.0
H2476 H 0.63899 0.18284 0.64484 0.0
C2477 C 0.61743 0.10875 0.62912 0.0
C2478 C 0.61929 0.10307 0.64277 0.0
C2479 C 0.62811 0.12793 0.62408 0.0
C2480 C 0.6474 0.18326 0.6352 0.0
H2481 H 0.6716 0.25824 0.58315 0.0
H2482 H 0.66123 0.22104 0.59174 0.0
H2483 H 0.65183 0.21887 0.63621 0.0
H2484 H 0.63455 0.11254 0.66172 0.0
H2485 H 0.65316 0.14603 0.65291 0.0
H2486 H 0.663 0.14995 0.60895 0.0
C2487 C 0.66882 0.23305 0.59854 0.0
C2488 C 0.6548 0.20394 0.63024 0.0
C2489 C 0.67459 0.25433 0.59362 0.0
C2490 C 0.63272 0.1165 0.65117 0.0
C2491 C 0.64328 0.13575 0.64614 0.0
C2492 C 0.66056 0.16491 0.61498 0.0
C2493 C 0.67217 0.22766 0.61216 0.0
C2494 C 0.66513 0.20542 0.61757 0.0
C2495 C 0.64075 0.1419 0.6326 0.0
C2496 C 0.65001 0.16354 0.62759 0.0
H2497 H 0.69396 0.2777 0.62262 0.0
H2498 H 0.68449 0.24045 0.63121 0.0
H2499 H 0.67635 0.1861 0.60035 0.0
H2500 H 0.60723 0.09872 0.62239 0.0
H2501 H 0.62571 0.13231 0.61362 0.0
C2502 C 0.49461 0.92491 0.34144 0.0
C2503 C 0.47954 0.93412 0.35075 0.0
C2504 C 0.51629 0.91869 0.34544 0.0
C2505 C 0.55831 0.9261 0.37258 0.0
H2506 H 0.58053 0.86837 0.36028 0.0
C2507 C 0.63292 0.88013 0.39784 0.0
C2508 C 0.64714 0.86697 0.38977 0.0
C2509 C 0.61386 0.89043 0.39234 0.0
C2510 C 0.57484 0.88473 0.36363 0.0
H2511 H 0.47443 0.94265 0.37164 0.0
H2512 H 0.5123 0.93188 0.37869 0.0
H2513 H 0.54477 0.88243 0.35192 0.0
H2514 H 0.65315 0.85515 0.36949 0.0
H2515 H 0.62028 0.87352 0.35985 0.0
H2516 H 0.58833 0.92832 0.38438 0.0
C2517 C 0.50778 0.93018 0.36821 0.0
C2518 C 0.55427 0.89278 0.35884 0.0
C2519 C 0.48614 0.93638 0.36419 0.0
C2520 C 0.64241 0.86504 0.376 0.0
C2521 C 0.62347 0.87545 0.37049 0.0
C2522 C 0.57897 0.91811 0.37732 0.0
C2523 C 0.52309 0.92119 0.35889 0.0
C2524 C 0.54565 0.91344 0.36336 0.0
C2525 C 0.60868 0.8879 0.37864 0.0
C2526 C 0.58739 0.8972 0.37301 0.0
H2527 H 0.48962 0.92261 0.33106 0.0
H2528 H 0.52771 0.91188 0.33801 0.0
H2529 H 0.55223 0.94218 0.37616 0.0
H2530 H 0.63608 0.88189 0.40849 0.0
H2531 H 0.60276 0.89968 0.39896 0.0
C2532 C 0.82572 0.74538 0.09361 0.0
C2533 C 0.8164 0.72936 0.10229 0.0
C2534 C 0.83163 0.76669 0.09842 0.0
C2535 C 0.84642 0.79625 0.12988 0.0
H2536 H 0.837 0.84991 0.10847 0.0
C2537 C 0.86811 0.88429 0.15017 0.0
C2538 C 0.88115 0.89774 0.14157 0.0
C2539 C 0.85765 0.86482 0.14536 0.0
C2540 C 0.83978 0.83505 0.11454 0.0
H2541 H 0.80747 0.72209 0.12288 0.0
H2542 H 0.8172 0.75939 0.1313 0.0
H2543 H 0.82377 0.81353 0.10016 0.0
H2544 H 0.89263 0.90186 0.12105 0.0
H2545 H 0.87431 0.86792 0.11266 0.0
H2546 H 0.86243 0.8177 0.14423 0.0
C2547 C 0.81981 0.75578 0.12076 0.0
C2548 C 0.8323 0.81421 0.10977 0.0
C2549 C 0.81392 0.73454 0.11593 0.0
C2550 C 0.88272 0.89183 0.12794 0.0
C2551 C 0.87214 0.87245 0.12311 0.0
C2552 C 0.85374 0.81707 0.13468 0.0
C2553 C 0.82874 0.77215 0.11207 0.0
C2554 C 0.83574 0.79451 0.11733 0.0
C2555 C 0.85988 0.85848 0.13183 0.0
C2556 C 0.8507 0.83668 0.12702 0.0
H2557 H 0.82831 0.74145 0.0831 0.0
H2558 H 0.83892 0.7787 0.0915 0.0
H2559 H 0.84972 0.78143 0.13588 0.0
H2560 H 0.86652 0.88841 0.16072 0.0
H2561 H 0.84808 0.85454 0.15229 0.0
C2562 C 0.01552 0.06666 0.86558 0.0
C2563 C 0.02074 0.06903 0.85194 0.0
C2564 C 0.99427 0.07254 0.87036 0.0
C2565 C 0.9358 0.08425 0.85931 0.0
H2566 H 0.9319 0.11431 0.89378 0.0
C2567 C 0.85757 0.13348 0.87773 0.0
C2568 C 0.85185 0.13186 0.89139 0.0
C2569 C 0.87698 0.12305 0.87282 0.0
C2570 C 0.93265 0.10564 0.88423 0.0
H2571 H 0.00872 0.08074 0.83269 0.0
H2572 H 0.97137 0.09132 0.84102 0.0
H2573 H 0.96837 0.10234 0.88536 0.0
H2574 H 0.86145 0.11723 0.91049 0.0
H2575 H 0.89538 0.09906 0.90191 0.0
H2576 H 0.9 0.08823 0.85809 0.0
C2577 C 0.9834 0.08416 0.84797 0.0
C2578 C 0.95358 0.09876 0.87939 0.0
C2579 C 0.00475 0.07827 0.8432 0.0
C2580 C 0.86543 0.11885 0.89992 0.0
C2581 C 0.88493 0.10855 0.89503 0.0
C2582 C 0.91484 0.09131 0.86412 0.0
C2583 C 0.9779 0.08133 0.86162 0.0
C2584 C 0.95545 0.08808 0.86684 0.0
C2585 C 0.89114 0.11092 0.88148 0.0
C2586 C 0.91307 0.10216 0.87662 0.0
H2587 H 0.02792 0.06021 0.87256 0.0
H2588 H 0.99061 0.06996 0.8809 0.0
H2589 H 0.9366 0.07573 0.84971 0.0
H2590 H 0.84742 0.14336 0.87089 0.0
H2591 H 0.88139 0.12532 0.86236 0.0
C2592 C 0.81287 0.76374 0.61308 0.0
C2593 C 0.81537 0.77023 0.59964 0.0
C2594 C 0.8188 0.74207 0.61718 0.0
C2595 C 0.85578 0.69509 0.60802 0.0
H2596 H 0.82 0.66186 0.63384 0.0
C2597 C 0.88284 0.60714 0.62574 0.0
C2598 C 0.88127 0.60289 0.63958 0.0
C2599 C 0.87238 0.62595 0.62011 0.0
C2600 C 0.83026 0.67098 0.62669 0.0
H2601 H 0.82703 0.75991 0.58003 0.0
H2602 H 0.83725 0.72175 0.5871 0.0
H2603 H 0.80643 0.69792 0.62536 0.0
H2604 H 0.86683 0.6146 0.6583 0.0
H2605 H 0.8489 0.64767 0.64853 0.0
H2606 H 0.87992 0.66861 0.60961 0.0
C2607 C 0.83048 0.73329 0.59448 0.0
C2608 C 0.82245 0.69162 0.62181 0.0
C2609 C 0.82455 0.75502 0.5904 0.0
C2610 C 0.86832 0.6174 0.6476 0.0
C2611 C 0.85795 0.63631 0.64197 0.0
C2612 C 0.86363 0.67453 0.61294 0.0
C2613 C 0.82774 0.7266 0.60794 0.0
C2614 C 0.83523 0.704 0.6125 0.0
C2615 C 0.86022 0.64106 0.62819 0.0
C2616 C 0.85107 0.66229 0.62242 0.0
H2617 H 0.8066 0.77555 0.62047 0.0
H2618 H 0.81693 0.73765 0.62767 0.0
H2619 H 0.86623 0.70436 0.60104 0.0
H2620 H 0.89255 0.59618 0.61927 0.0
H2621 H 0.8741 0.62881 0.60942 0.0
C2622 C 0.63318 0.61884 0.89901 0.0
C2623 C 0.64802 0.63113 0.89085 0.0
C2624 C 0.61409 0.60864 0.89348 0.0
C2625 C 0.57626 0.61379 0.86422 0.0
H2626 H 0.55182 0.55746 0.8773 0.0
C2627 C 0.49595 0.57467 0.84148 0.0
C2628 C 0.48045 0.56578 0.85065 0.0
C2629 C 0.51756 0.58068 0.84572 0.0
C2630 C 0.5584 0.57324 0.87357 0.0
H2631 H 0.65513 0.64138 0.87039 0.0
H2632 H 0.62219 0.62322 0.86072 0.0
H2633 H 0.58791 0.57084 0.88582 0.0
H2634 H 0.47448 0.55765 0.87151 0.0
H2635 H 0.51218 0.56817 0.87901 0.0
H2636 H 0.54669 0.61633 0.85209 0.0
C2637 C 0.62493 0.6219 0.87144 0.0
C2638 C 0.57907 0.58094 0.87848 0.0
C2639 C 0.64391 0.6322 0.87697 0.0
C2640 C 0.48653 0.5637 0.86419 0.0
C2641 C 0.50808 0.56974 0.86846 0.0
C2642 C 0.55568 0.60605 0.85928 0.0
C2643 C 0.6095 0.61041 0.87966 0.0
C2644 C 0.58816 0.60142 0.87395 0.0
C2645 C 0.52385 0.57834 0.85928 0.0
C2646 C 0.54639 0.58579 0.86398 0.0
H2647 H 0.63586 0.61777 0.90974 0.0
H2648 H 0.60249 0.60011 0.90014 0.0
H2649 H 0.5825 0.62984 0.86069 0.0
H2650 H 0.49138 0.57681 0.83103 0.0
H2651 H 0.52934 0.58717 0.83839 0.0
C2652 C 0.61426 0.39272 0.12579 0.0
C2653 C 0.61646 0.39723 0.13957 0.0
C2654 C 0.62441 0.37377 0.12012 0.0
C2655 C 0.66675 0.32878 0.12647 0.0
H2656 H 0.63017 0.29516 0.10124 0.0
C2657 C 0.68405 0.23597 0.11294 0.0
C2658 C 0.68141 0.22946 0.09951 0.0
C2659 C 0.67803 0.2576 0.11707 0.0
C2660 C 0.64077 0.3045 0.10811 0.0
H2661 H 0.63161 0.38578 0.15815 0.0
H2662 H 0.64896 0.35246 0.14834 0.0
H2663 H 0.61667 0.331 0.1098 0.0
H2664 H 0.66937 0.23969 0.07996 0.0
H2665 H 0.65898 0.27778 0.08709 0.0
H2666 H 0.69051 0.30181 0.12506 0.0
C2667 C 0.6397 0.36373 0.14183 0.0
C2668 C 0.63304 0.32511 0.11302 0.0
C2669 C 0.62966 0.3828 0.14748 0.0
C2670 C 0.67196 0.2446 0.09032 0.0
C2671 C 0.66594 0.26629 0.09443 0.0
C2672 C 0.67442 0.30808 0.12161 0.0
C2673 C 0.63687 0.35876 0.12812 0.0
C2674 C 0.64584 0.33745 0.12235 0.0
C2675 C 0.66886 0.27302 0.10786 0.0
C2676 C 0.66143 0.29562 0.11245 0.0
H2677 H 0.60434 0.40363 0.11939 0.0
H2678 H 0.62226 0.37073 0.10948 0.0
H2679 H 0.6772 0.33797 0.13349 0.0
H2680 H 0.69052 0.22421 0.1203 0.0
H2681 H 0.68006 0.26205 0.12754 0.0
C2682 C 0.8582 0.36757 0.3783 0.0
C2683 C 0.85255 0.36904 0.39197 0.0
C2684 C 0.87749 0.37819 0.37337 0.0
C2685 C 0.93307 0.39643 0.38471 0.0
H2686 H 0.93641 0.42598 0.35006 0.0
C2687 C 0.01552 0.43576 0.36563 0.0
C2688 C 0.0207 0.43294 0.35201 0.0
C2689 C 0.99426 0.43006 0.37049 0.0
C2690 C 0.93578 0.41758 0.3597 0.0
H2691 H 0.86219 0.38357 0.4111 0.0
H2692 H 0.89589 0.4021 0.40249 0.0
H2693 H 0.90003 0.41305 0.35856 0.0
H2694 H 0.00858 0.4207 0.3329 0.0
H2695 H 0.97125 0.41043 0.34138 0.0
H2696 H 0.96874 0.4003 0.38577 0.0
C2697 C 0.88549 0.39256 0.39561 0.0
C2698 C 0.91494 0.41026 0.36458 0.0
C2699 C 0.86612 0.38206 0.40052 0.0
C2700 C 0.00464 0.42352 0.34339 0.0
C2701 C 0.9833 0.41781 0.34824 0.0
C2702 C 0.95386 0.4036 0.37981 0.0
C2703 C 0.89162 0.39039 0.38203 0.0
C2704 C 0.91339 0.39948 0.37712 0.0
C2705 C 0.97786 0.42099 0.36187 0.0
C2706 C 0.95552 0.41413 0.36721 0.0
H2707 H 0.84807 0.35769 0.37145 0.0
H2708 H 0.88184 0.37605 0.36289 0.0
H2709 H 0.93251 0.38783 0.39429 0.0
H2710 H 0.02797 0.44233 0.37253 0.0
H2711 H 0.99065 0.43291 0.38101 0.0
C2712 C 0.87018 0.38346 0.84999 0.0
C2713 C 0.88341 0.39705 0.85841 0.0
C2714 C 0.85977 0.36413 0.85501 0.0
C2715 C 0.84198 0.33514 0.88604 0.0
H2716 H 0.85195 0.28101 0.86516 0.0
C2717 C 0.82618 0.24586 0.90733 0.0
C2718 C 0.81703 0.22985 0.89858 0.0
C2719 C 0.83253 0.26706 0.90252 0.0
C2720 C 0.84864 0.29598 0.87103 0.0
H2721 H 0.89526 0.40159 0.87883 0.0
H2722 H 0.87695 0.36789 0.8876 0.0
H2723 H 0.86495 0.31703 0.8566 0.0
H2724 H 0.80877 0.22249 0.8779 0.0
H2725 H 0.81918 0.25956 0.86949 0.0
H2726 H 0.82557 0.31403 0.90047 0.0
C2727 C 0.87464 0.3722 0.87712 0.0
C2728 C 0.85613 0.31665 0.86612 0.0
C2729 C 0.88522 0.39143 0.87208 0.0
C2730 C 0.81511 0.23492 0.88489 0.0
C2731 C 0.8214 0.25603 0.88007 0.0
C2732 C 0.83428 0.31444 0.89093 0.0
C2733 C 0.8622 0.35809 0.86858 0.0
C2734 C 0.85303 0.33643 0.87359 0.0
C2735 C 0.83022 0.27239 0.88881 0.0
C2736 C 0.83768 0.29458 0.88352 0.0
H2737 H 0.86841 0.38737 0.83943 0.0
H2738 H 0.85006 0.35372 0.84823 0.0
H2739 H 0.83919 0.35016 0.89197 0.0
H2740 H 0.82832 0.24201 0.91789 0.0
H2741 H 0.83969 0.27906 0.90949 0.0
C2742 C 0.01484 0.56344 0.13559 0.0
C2743 C 0.02 0.56598 0.14923 0.0
C2744 C 0.99365 0.56939 0.13073 0.0
C2745 C 0.93523 0.58227 0.14149 0.0
H2746 H 0.93238 0.61235 0.10699 0.0
C2747 C 0.85803 0.63282 0.12276 0.0
C2748 C 0.85245 0.63135 0.10908 0.0
C2749 C 0.87726 0.62214 0.12774 0.0
C2750 C 0.93282 0.60367 0.11655 0.0
H2751 H 0.00789 0.57801 0.16839 0.0
H2752 H 0.97069 0.58875 0.15991 0.0
H2753 H 0.96847 0.59954 0.11555 0.0
H2754 H 0.86216 0.61674 0.08999 0.0
H2755 H 0.89575 0.59812 0.09868 0.0
H2756 H 0.89952 0.58706 0.14258 0.0
C2757 C 0.98271 0.58138 0.15303 0.0
C2758 C 0.95354 0.5963 0.12147 0.0
C2759 C 0.00398 0.57539 0.15788 0.0
C2760 C 0.86603 0.61827 0.10057 0.0
C2761 C 0.88534 0.60771 0.10554 0.0
C2762 C 0.91448 0.58979 0.13659 0.0
C2763 C 0.9773 0.57847 0.13937 0.0
C2764 C 0.95505 0.58562 0.13403 0.0
C2765 C 0.89139 0.60988 0.11912 0.0
C2766 C 0.91308 0.60067 0.12409 0.0
H2767 H 0.02727 0.55688 0.12866 0.0
H2768 H 0.99007 0.56674 0.12019 0.0
H2769 H 0.93574 0.57376 0.1511 0.0
H2770 H 0.84788 0.64275 0.12958 0.0
H2771 H 0.88155 0.62427 0.13823 0.0
C2772 C 0.61533 0.607 0.37404 0.0
C2773 C 0.61714 0.60255 0.36024 0.0
C2774 C 0.62579 0.62582 0.37966 0.0
C2775 C 0.6683 0.67055 0.37301 0.0
H2776 H 0.63271 0.7042 0.39872 0.0
C2777 C 0.68611 0.7633 0.38644 0.0
C2778 C 0.68397 0.76977 0.39991 0.0
C2779 C 0.68001 0.74166 0.38238 0.0
C2780 C 0.64304 0.69484 0.39172 0.0
H2781 H 0.6319 0.61399 0.34155 0.0
H2782 H 0.64977 0.64712 0.35127 0.0
H2783 H 0.61873 0.66851 0.39021 0.0
H2784 H 0.67279 0.75944 0.41961 0.0
H2785 H 0.66223 0.72133 0.41259 0.0
H2786 H 0.69226 0.69738 0.37424 0.0
C2787 C 0.64059 0.63587 0.35783 0.0
C2788 C 0.63504 0.67432 0.38683 0.0
C2789 C 0.63024 0.61693 0.35223 0.0
C2790 C 0.67498 0.75456 0.40922 0.0
C2791 C 0.66887 0.73286 0.40517 0.0
C2792 C 0.67624 0.69117 0.37784 0.0
C2793 C 0.63817 0.64078 0.37158 0.0
C2794 C 0.64746 0.66198 0.37733 0.0
C2795 C 0.67126 0.72619 0.39169 0.0
C2796 C 0.66361 0.70363 0.38717 0.0
H2797 H 0.6055 0.59613 0.38051 0.0
H2798 H 0.62395 0.62879 0.39033 0.0
H2799 H 0.67848 0.66135 0.36586 0.0
H2800 H 0.6922 0.77512 0.379 0.0
H2801 H 0.68162 0.73724 0.37187 0.0
C2802 C 0.64405 0.36666 0.62409 0.0
C2803 C 0.64814 0.36789 0.61022 0.0
C2804 C 0.62522 0.37712 0.6297 0.0
C2805 C 0.57981 0.4187 0.62287 0.0
H2806 H 0.54693 0.38318 0.64897 0.0
C2807 C 0.48715 0.43603 0.6367 0.0
C2808 C 0.48083 0.43383 0.6502 0.0
C2809 C 0.50878 0.43004 0.63256 0.0
C2810 C 0.55607 0.3935 0.64186 0.0
H2811 H 0.6361 0.38171 0.59141 0.0
H2812 H 0.60299 0.39963 0.60114 0.0
H2813 H 0.58271 0.36951 0.64042 0.0
H2814 H 0.49141 0.42264 0.66986 0.0
H2815 H 0.52951 0.41235 0.66271 0.0
H2816 H 0.55272 0.44237 0.62407 0.0
C2817 C 0.6145 0.39086 0.60774 0.0
C2818 C 0.57663 0.38568 0.63695 0.0
C2819 C 0.63343 0.38049 0.60214 0.0
C2820 C 0.49617 0.42488 0.65944 0.0
C2821 C 0.51786 0.4189 0.65532 0.0
C2822 C 0.55916 0.42649 0.62775 0.0
C2823 C 0.60993 0.38893 0.62155 0.0
C2824 C 0.58869 0.39807 0.62731 0.0
C2825 C 0.52439 0.42136 0.64182 0.0
C2826 C 0.54697 0.41388 0.63722 0.0
H2827 H 0.65517 0.35723 0.63061 0.0
H2828 H 0.62249 0.37567 0.64041 0.0
H2829 H 0.58879 0.42884 0.6156 0.0
H2830 H 0.47523 0.44211 0.62932 0.0
H2831 H 0.51307 0.43168 0.62204 0.0
C2832 C 0.13025 0.38194 0.35249 0.0
C2833 C 0.11771 0.39668 0.36058 0.0
C2834 C 0.14025 0.36275 0.35804 0.0
C2835 C 0.13428 0.32457 0.38712 0.0
H2836 H 0.19083 0.30014 0.37437 0.0
C2837 C 0.17322 0.24442 0.41016 0.0
C2838 C 0.18235 0.2289 0.40109 0.0
C2839 C 0.16715 0.26596 0.40583 0.0
C2840 C 0.17498 0.30672 0.37801 0.0
H2841 H 0.10677 0.4035 0.38095 0.0
H2842 H 0.12462 0.37041 0.39066 0.0
H2843 H 0.17768 0.33631 0.36586 0.0
H2844 H 0.19082 0.22281 0.38028 0.0
H2845 H 0.18023 0.26042 0.37264 0.0
H2846 H 0.13149 0.29495 0.39918 0.0
C2847 C 0.12628 0.37329 0.37997 0.0
C2848 C 0.16741 0.32743 0.3731 0.0
C2849 C 0.11617 0.39236 0.37442 0.0
C2850 C 0.1846 0.23488 0.38754 0.0
C2851 C 0.17851 0.25637 0.38319 0.0
C2852 C 0.14191 0.30395 0.39206 0.0
C2853 C 0.13803 0.35797 0.37181 0.0
C2854 C 0.14685 0.33654 0.37751 0.0
C2855 C 0.16968 0.27218 0.39227 0.0
C2856 C 0.16226 0.29468 0.3875 0.0
H2857 H 0.13169 0.38477 0.34178 0.0
H2858 H 0.14897 0.35124 0.35141 0.0
H2859 H 0.11816 0.3308 0.39055 0.0
H2860 H 0.17094 0.23992 0.42061 0.0
H2861 H 0.1605 0.27776 0.4131 0.0
C2862 C 0.35635 0.36607 0.12451 0.0
C2863 C 0.35202 0.3675 0.11067 0.0
C2864 C 0.37521 0.37654 0.13006 0.0
C2865 C 0.42027 0.41852 0.12323 0.0
H2866 H 0.45372 0.3828 0.14898 0.0
C2867 C 0.51301 0.43619 0.13678 0.0
C2868 C 0.51951 0.4338 0.15023 0.0
C2869 C 0.49136 0.43016 0.13269 0.0
C2870 C 0.44442 0.39317 0.14197 0.0
H2871 H 0.36364 0.3817 0.09187 0.0
H2872 H 0.39682 0.39966 0.1015 0.0
H2873 H 0.41793 0.36902 0.1405 0.0
H2874 H 0.50921 0.42226 0.16987 0.0
H2875 H 0.47108 0.41188 0.16282 0.0
H2876 H 0.44721 0.44236 0.12446 0.0
C2877 C 0.38548 0.39071 0.10812 0.0
C2878 C 0.42385 0.38528 0.1371 0.0
C2879 C 0.3665 0.38033 0.10257 0.0
C2880 C 0.50432 0.42464 0.15949 0.0
C2881 C 0.48261 0.41862 0.15543 0.0
C2882 C 0.44092 0.42637 0.12807 0.0
C2883 C 0.3903 0.38858 0.1219 0.0
C2884 C 0.41158 0.39776 0.12759 0.0
C2885 C 0.47591 0.42125 0.14196 0.0
C2886 C 0.45332 0.41369 0.13741 0.0
H2887 H 0.3454 0.35646 0.13104 0.0
H2888 H 0.37814 0.37494 0.14075 0.0
H2889 H 0.41112 0.42871 0.11606 0.0
H2890 H 0.52481 0.44244 0.12938 0.0
H2891 H 0.48694 0.43195 0.1222 0.0
C2892 C 0.31511 0.76519 0.88531 0.0
C2893 C 0.31704 0.7704 0.89897 0.0
C2894 C 0.32138 0.74403 0.88056 0.0
C2895 C 0.33415 0.68572 0.89164 0.0
H2896 H 0.3647 0.68267 0.85729 0.0
C2897 C 0.3847 0.60834 0.87291 0.0
C2898 C 0.3828 0.60266 0.85926 0.0
C2899 C 0.37421 0.62764 0.87794 0.0
C2900 C 0.35592 0.68318 0.86681 0.0
H2901 H 0.32836 0.75845 0.91832 0.0
H2902 H 0.33971 0.7213 0.91005 0.0
H2903 H 0.35188 0.71882 0.86574 0.0
H2904 H 0.3677 0.61227 0.84029 0.0
H2905 H 0.3495 0.64601 0.84906 0.0
H2906 H 0.33891 0.64999 0.8928 0.0
C2907 C 0.33255 0.73324 0.90305 0.0
C2908 C 0.34852 0.70392 0.87167 0.0
C2909 C 0.32621 0.75448 0.90778 0.0
C2910 C 0.36954 0.61622 0.85085 0.0
C2911 C 0.35921 0.63561 0.85585 0.0
C2912 C 0.34175 0.66494 0.88682 0.0
C2913 C 0.33021 0.72776 0.88936 0.0
C2914 C 0.3376 0.70549 0.88415 0.0
C2915 C 0.36177 0.64174 0.86939 0.0
C2916 C 0.35275 0.66348 0.87436 0.0
H2917 H 0.30875 0.77755 0.87827 0.0
H2918 H 0.31915 0.74039 0.86999 0.0
H2919 H 0.32547 0.68626 0.90119 0.0
H2920 H 0.39476 0.59819 0.87966 0.0
H2921 H 0.3766 0.63201 0.8884 0.0
C2922 C 0.99484 0.5772 0.65699 0.0
C2923 C 0.97883 0.56777 0.64833 0.0
C2924 C 0.01619 0.58296 0.65217 0.0
C2925 C 0.04585 0.59716 0.62067 0.0
H2926 H 0.09955 0.58729 0.64198 0.0
C2927 C 0.13379 0.61793 0.60002 0.0
C2928 C 0.14744 0.63088 0.60856 0.0
C2929 C 0.11433 0.60759 0.60494 0.0
C2930 C 0.08468 0.5902 0.63594 0.0
H2931 H 0.97166 0.55846 0.62778 0.0
H2932 H 0.00899 0.56798 0.61937 0.0
H2933 H 0.06306 0.5746 0.65042 0.0
H2934 H 0.15198 0.64226 0.62907 0.0
H2935 H 0.11805 0.62418 0.63763 0.0
H2936 H 0.06736 0.61279 0.60622 0.0
C2937 C 0.00534 0.57078 0.62988 0.0
C2938 C 0.06378 0.58302 0.64079 0.0
C2939 C 0.98407 0.56504 0.63471 0.0
C2940 C 0.14179 0.63242 0.62223 0.0
C2941 C 0.1224 0.62197 0.62716 0.0
C2942 C 0.06671 0.60419 0.61579 0.0
C2943 C 0.02169 0.57982 0.63855 0.0
C2944 C 0.04408 0.58661 0.63326 0.0
C2945 C 0.1082 0.60986 0.6185 0.0
C2946 C 0.08634 0.60097 0.62341 0.0
H2947 H 0.99086 0.57995 0.66747 0.0
H2948 H 0.02822 0.5903 0.65906 0.0
H2949 H 0.03101 0.60056 0.6147 0.0
H2950 H 0.13772 0.61636 0.58945 0.0
H2951 H 0.10387 0.59812 0.59806 0.0
C2952 C 0.1159 0.6059 0.12701 0.0
C2953 C 0.11736 0.60152 0.14084 0.0
C2954 C 0.12621 0.62489 0.12149 0.0
C2955 C 0.16772 0.67035 0.1284 0.0
H2956 H 0.13181 0.70334 0.10255 0.0
C2957 C 0.18518 0.76299 0.11422 0.0
C2958 C 0.18273 0.76914 0.10071 0.0
C2959 C 0.17916 0.74144 0.11851 0.0
C2960 C 0.14223 0.69418 0.10959 0.0
H2961 H 0.13144 0.61318 0.15967 0.0
H2962 H 0.14911 0.64657 0.1501 0.0
H2963 H 0.11829 0.66752 0.1111 0.0
H2964 H 0.1711 0.75834 0.08119 0.0
H2965 H 0.16079 0.72041 0.08859 0.0
H2966 H 0.19137 0.69746 0.12712 0.0
C2967 C 0.14027 0.63518 0.14346 0.0
C2968 C 0.13449 0.67359 0.1145 0.0
C2969 C 0.13006 0.61608 0.14896 0.0
C2970 C 0.17353 0.75372 0.09161 0.0
C2971 C 0.16754 0.73212 0.09587 0.0
C2972 C 0.17543 0.69104 0.12353 0.0
C2973 C 0.13809 0.64006 0.12969 0.0
C2974 C 0.14706 0.66145 0.12403 0.0
C2975 C 0.17021 0.72575 0.10939 0.0
C2976 C 0.1627 0.70325 0.11412 0.0
H2977 H 0.1064 0.5949 0.12046 0.0
H2978 H 0.12459 0.62784 0.11081 0.0
H2979 H 0.17798 0.66133 0.1356 0.0
H2980 H 0.19146 0.77498 0.12151 0.0
H2981 H 0.181 0.73727 0.12904 0.0
C2982 C 0.14359 0.36605 0.87672 0.0
C2983 C 0.14769 0.36753 0.89058 0.0
C2984 C 0.12477 0.37644 0.87105 0.0
C2985 C 0.07947 0.41829 0.87769 0.0
H2986 H 0.04678 0.383 0.85139 0.0
C2987 C 0.98706 0.43603 0.86336 0.0
C2988 C 0.981 0.43407 0.84981 0.0
C2989 C 0.00858 0.4299 0.86763 0.0
C2990 C 0.05587 0.39325 0.85856 0.0
H2991 H 0.13566 0.38164 0.90931 0.0
H2992 H 0.10255 0.3994 0.89948 0.0
H2993 H 0.08236 0.36912 0.86013 0.0
H2994 H 0.99195 0.42314 0.83017 0.0
H2995 H 0.02986 0.41255 0.83756 0.0
H2996 H 0.0525 0.44208 0.87638 0.0
C2997 C 0.11404 0.39052 0.89293 0.0
C2998 C 0.07632 0.3853 0.86358 0.0
C2999 C 0.13298 0.38024 0.89859 0.0
C3000 C 0.99651 0.4252 0.84063 0.0
C3001 C 0.01808 0.41906 0.84488 0.0
C3002 C 0.05892 0.42619 0.87272 0.0
C3003 C 0.10948 0.38842 0.87912 0.0
C3004 C 0.08832 0.39763 0.87328 0.0
C3005 C 0.02434 0.42129 0.85845 0.0
C3006 C 0.0468 0.41366 0.86317 0.0
H3007 H 0.15472 0.35652 0.87025 0.0
H3008 H 0.12206 0.37485 0.86034 0.0
H3009 H 0.0884 0.42839 0.885 0.0
H3010 H 0.97501 0.44204 0.8707 0.0
H3011 H 0.01267 0.43138 0.87819 0.0
C3012 C 0.31502 0.23593 0.61494 0.0
C3013 C 0.31693 0.22938 0.60147 0.0
C3014 C 0.32114 0.25761 0.61891 0.0
C3015 C 0.35772 0.30454 0.60921 0.0
H3016 H 0.32244 0.33806 0.63514 0.0
C3017 C 0.38515 0.3927 0.62652 0.0
C3018 C 0.38347 0.39722 0.64032 0.0
C3019 C 0.37473 0.37378 0.62099 0.0
C3020 C 0.33258 0.32886 0.62797 0.0
H3021 H 0.32777 0.23959 0.58167 0.0
H3022 H 0.33836 0.27777 0.58853 0.0
H3023 H 0.30879 0.30186 0.62698 0.0
H3024 H 0.369 0.38582 0.6591 0.0
H3025 H 0.35122 0.35253 0.64954 0.0
H3026 H 0.38188 0.33105 0.61051 0.0
C3027 C 0.33188 0.26626 0.59602 0.0
C3028 C 0.3247 0.30814 0.62326 0.0
C3029 C 0.32575 0.24453 0.59207 0.0
C3030 C 0.37055 0.38282 0.64841 0.0
C3031 C 0.36026 0.36378 0.6429 0.0
C3032 C 0.36566 0.32516 0.61399 0.0
C3033 C 0.32969 0.27303 0.6095 0.0
C3034 C 0.33728 0.29567 0.6139 0.0
C3035 C 0.36254 0.35881 0.62916 0.0
C3036 C 0.35329 0.33752 0.62351 0.0
H3037 H 0.30905 0.22415 0.62244 0.0
H3038 H 0.3197 0.2621 0.62941 0.0
H3039 H 0.36799 0.29519 0.60218 0.0
H3040 H 0.39485 0.40358 0.61999 0.0
H3041 H 0.37647 0.37074 0.61032 0.0
C3042 C 0.50451 0.57555 0.34073 0.0
C3043 C 0.51975 0.56645 0.34999 0.0
C3044 C 0.48285 0.58168 0.34483 0.0
C3045 C 0.44131 0.57412 0.37225 0.0
H3046 H 0.41833 0.63151 0.35988 0.0
C3047 C 0.36705 0.6199 0.39795 0.0
C3048 C 0.35251 0.63283 0.38994 0.0
C3049 C 0.38602 0.60964 0.39233 0.0
C3050 C 0.42424 0.61524 0.36325 0.0
H3051 H 0.52518 0.55807 0.37087 0.0
H3052 H 0.48738 0.56872 0.37809 0.0
H3053 H 0.45405 0.61767 0.35131 0.0
H3054 H 0.34583 0.64422 0.36965 0.0
H3055 H 0.37857 0.62593 0.3598 0.0
H3056 H 0.41157 0.57179 0.38429 0.0
C3057 C 0.49174 0.57038 0.36758 0.0
C3058 C 0.44478 0.60732 0.35834 0.0
C3059 C 0.51334 0.56426 0.36347 0.0
C3060 C 0.35682 0.63453 0.37611 0.0
C3061 C 0.37569 0.62416 0.37048 0.0
C3062 C 0.42069 0.58199 0.37711 0.0
C3063 C 0.47624 0.57921 0.35832 0.0
C3064 C 0.45368 0.58679 0.36289 0.0
C3065 C 0.39079 0.61197 0.37855 0.0
C3066 C 0.41201 0.60277 0.37279 0.0
H3067 H 0.50934 0.57779 0.33033 0.0
H3068 H 0.47128 0.58836 0.33744 0.0
H3069 H 0.44761 0.55814 0.37585 0.0
H3070 H 0.36421 0.61833 0.40864 0.0
H3071 H 0.39738 0.6006 0.39889 0.0
loop_
_geom_bond_atom_site_label_1
_geom_bond_atom_site_label_2
_geom_bond_distance
_geom_bond_site_symmetry_2
_ccdc_geom_bond_type
Mn0 O5 2.095 . S
Mn0 O15 2.162 . S
Mn0 O16 2.297 . S
Mn0 O24 2.385 . S
Mn0 O25 2.209 . S
Mn0 O26 2.094 . S
Mn1 O6 2.121 . S
Mn1 N8 2.257 1_545 S
Mn1 N17 2.282 . S
Mn1 O25 2.215 . S
Mn1 O27 2.117 . S
C2 O24 1.234 . S
C2 O25 1.283 . S
C3 O15 1.281 . S
C3 O16 1.236 . S
C4 O26 1.240 . S
C4 O27 1.264 . S
O5 Mn0 2.095 . S
O5 C14 1.250 . S
O6 Mn1 2.121 . S
O6 C14 1.258 . S
C7 N8 1.326 . S
C7 C11 1.460 . S
C7 H13 0.929 . S
N8 Mn1 2.257 1_565 S
N8 C7 1.326 . S
N8 C12 1.362 . S
C9 C10 1.258 . S
C9 C12 1.431 . S
C9 C29 1.449 . S
C10 C9 1.258 . S
C10 C11 1.477 . S
C10 H30 0.931 . S
C11 C7 1.460 . S
C11 C10 1.477 . S
C11 H31 0.930 . S
C12 N8 1.362 . S
C12 C9 1.431 . S
C12 C22 1.476 1_565 S
H13 C7 0.929 . S
C14 O5 1.250 . S
C14 O6 1.258 . S
O15 Mn0 2.162 . S
O15 C3 1.281 . S
O16 Mn0 2.297 . S
O16 C3 1.236 . S
N17 Mn1 2.282 . S
N17 C18 1.328 . S
N17 C22 1.318 . S
C18 N17 1.328 . S
C18 C19 1.457 . S
C18 H23 0.929 . S
C19 C18 1.457 . S
C19 C20 1.291 . S
C19 H32 0.931 . S
C20 C19 1.291 . S
C20 C21 1.373 . S
C20 H33 0.929 . S
C21 C20 1.373 . S
C21 C22 1.396 . S
C21 C28 1.403 1_545 S
C22 C12 1.476 1_545 S
C22 N17 1.318 . S
C22 C21 1.396 . S
H23 C18 0.929 . S
O24 Mn0 2.385 . S
O24 C2 1.234 . S
O25 Mn0 2.209 . S
O25 Mn1 2.215 . S
O25 C2 1.283 . S
O26 Mn0 2.094 . S
O26 C4 1.240 . S
O27 Mn1 2.117 . S
O27 C4 1.264 . S
C28 C21 1.403 1_565 S
C28 C29 1.399 . S
C28 H34 0.929 . S
C29 C9 1.449 . S
C29 C28 1.399 . S
C29 H35 0.930 . S
H30 C10 0.931 . S
H31 C11 0.930 . S
H32 C19 0.931 . S
H33 C20 0.929 . S
H34 C28 0.929 . S
H35 C29 0.930 . S
Mn36 O41 2.095 . S
Mn36 O51 2.162 . S
Mn36 O52 2.297 . S
Mn36 O60 2.385 . S
Mn36 O61 2.209 . S
Mn36 O62 2.094 . S
Mn37 O42 2.121 . S
Mn37 N44 2.257 . S
Mn37 N53 2.282 . S
Mn37 O61 2.215 . S
Mn37 O63 2.117 . S
C38 O60 1.234 . S
C38 O61 1.283 . S
C39 O51 1.281 . S
C39 O52 1.236 . S
C40 O62 1.240 . S
C40 O63 1.264 . S
O41 Mn36 2.095 . S
O41 C50 1.250 . S
O42 Mn37 2.121 . S
O42 C50 1.258 . S
C43 N44 1.326 . S
C43 C47 1.460 . S
C43 H49 0.929 . S
N44 Mn37 2.257 . S
N44 C43 1.326 . S
N44 C48 1.362 . S
C45 C46 1.258 . S
C45 C48 1.431 . S
C45 C65 1.449 . S
C46 C45 1.258 . S
C46 C47 1.477 . S
C46 H66 0.931 . S
C47 C43 1.460 . S
C47 C46 1.477 . S
C47 H67 0.930 . S
C48 N44 1.362 . S
C48 C45 1.431 . S
C48 C58 1.476 . S
H49 C43 0.929 . S
C50 O41 1.250 . S
C50 O42 1.258 . S
O51 Mn36 2.162 . S
O51 C39 1.281 . S
O52 Mn36 2.297 . S
O52 C39 1.236 . S
N53 Mn37 2.282 . S
N53 C54 1.328 . S
N53 C58 1.318 . S
C54 N53 1.328 . S
C54 C55 1.457 . S
C54 H59 0.929 . S
C55 C54 1.457 . S
C55 C56 1.291 . S
C55 H68 0.931 . S
C56 C55 1.291 . S
C56 C57 1.373 . S
C56 H69 0.929 . S
C57 C56 1.373 . S
C57 C58 1.396 . S
C57 C64 1.403 . S
C58 C48 1.476 . S
C58 N53 1.318 . S
C58 C57 1.396 . S
H59 C54 0.929 . S
O60 Mn36 2.385 . S
O60 C38 1.234 . S
O61 Mn36 2.209 . S
O61 Mn37 2.215 . S
O61 C38 1.283 . S
O62 Mn36 2.094 . S
O62 C40 1.240 . S
O63 Mn37 2.117 . S
O63 C40 1.264 . S
C64 C57 1.403 . S
C64 C65 1.399 . S
C64 H70 0.929 . S
C65 C45 1.449 . S
C65 C64 1.399 . S
C65 H71 0.930 . S
H66 C46 0.931 . S
H67 C47 0.930 . S
H68 C55 0.931 . S
H69 C56 0.929 . S
H70 C64 0.929 . S
H71 C65 0.930 . S
Mn72 O77 2.095 . S
Mn72 O87 2.162 . S
Mn72 O88 2.297 . S
Mn72 O96 2.385 . S
Mn72 O97 2.209 . S
Mn72 O98 2.094 . S
Mn73 O78 2.121 . S
Mn73 N80 2.257 1_565 S
Mn73 N89 2.282 . S
Mn73 O97 2.215 . S
Mn73 O99 2.117 . S
C74 O96 1.234 . S
C74 O97 1.283 . S
C75 O87 1.281 . S
C75 O88 1.236 . S
C76 O98 1.240 . S
C76 O99 1.264 . S
O77 Mn72 2.095 . S
O77 C86 1.250 . S
O78 Mn73 2.121 . S
O78 C86 1.258 . S
C79 N80 1.326 . S
C79 C83 1.460 . S
C79 H85 0.929 . S
N80 Mn73 2.257 1_545 S
N80 C79 1.326 . S
N80 C84 1.362 . S
C81 C82 1.258 . S
C81 C84 1.431 . S
C81 C101 1.449 1_455 S
C82 C81 1.258 . S
C82 C83 1.477 . S
C82 H102 0.931 . S
C83 C79 1.460 . S
C83 C82 1.477 . S
C83 H103 0.930 . S
C84 N80 1.362 . S
C84 C81 1.431 . S
C84 C94 1.476 1_545 S
H85 C79 0.929 . S
C86 O77 1.250 . S
C86 O78 1.258 . S
O87 Mn72 2.162 . S
O87 C75 1.281 . S
O88 Mn72 2.297 . S
O88 C75 1.236 . S
N89 Mn73 2.282 . S
N89 C90 1.328 . S
N89 C94 1.318 . S
C90 N89 1.328 . S
C90 C91 1.457 . S
C90 H95 0.929 . S
C91 C90 1.457 . S
C91 C92 1.291 1_455 S
C91 H104 0.931 . S
C92 C91 1.291 1_655 S
C92 C93 1.367 1_655 S
C92 H105 0.929 . S
C93 C92 1.367 1_455 S
C93 C94 1.412 . S
C93 C100 1.393 1_465 S
C94 C84 1.476 1_565 S
C94 N89 1.318 . S
C94 C93 1.412 . S
H95 C90 0.929 . S
O96 Mn72 2.385 . S
O96 C74 1.234 . S
O97 Mn72 2.209 . S
O97 Mn73 2.215 . S
O97 C74 1.283 . S
O98 Mn72 2.094 . S
O98 C76 1.240 . S
O99 Mn73 2.117 . S
O99 C76 1.264 . S
C100 C93 1.393 1_645 S
C100 C101 1.399 . S
C100 H106 0.929 . S
C101 C81 1.449 1_655 S
C101 C100 1.399 . S
C101 H107 0.930 . S
H102 C82 0.931 . S
H103 C83 0.930 . S
H104 C91 0.931 . S
H105 C92 0.929 . S
H106 C100 0.929 . S
H107 C101 0.930 . S
Mn108 O113 2.095 . S
Mn108 O123 2.162 . S
Mn108 O124 2.297 . S
Mn108 O132 2.385 . S
Mn108 O133 2.209 . S
Mn108 O134 2.094 . S
Mn109 O114 2.121 . S
Mn109 N116 2.257 . S
Mn109 N125 2.282 . S
Mn109 O133 2.215 . S
Mn109 O135 2.117 . S
C110 O132 1.234 . S
C110 O133 1.283 . S
C111 O123 1.281 . S
C111 O124 1.236 . S
C112 O134 1.240 . S
C112 O135 1.264 . S
O113 Mn108 2.095 . S
O113 C122 1.250 . S
O114 Mn109 2.121 . S
O114 C122 1.258 . S
C115 N116 1.326 . S
C115 C119 1.460 . S
C115 H121 0.929 . S
N116 Mn109 2.257 . S
N116 C115 1.326 . S
N116 C120 1.362 . S
C117 C118 1.258 . S
C117 C120 1.431 . S
C117 C137 1.449 . S
C118 C117 1.258 . S
C118 C119 1.477 . S
C118 H138 0.931 . S
C119 C115 1.460 . S
C119 C118 1.477 . S
C119 H139 0.930 . S
C120 N116 1.362 . S
C120 C117 1.431 . S
C120 C130 1.476 . S
H121 C115 0.929 . S
C122 O113 1.250 . S
C122 O114 1.258 . S
O123 Mn108 2.162 . S
O123 C111 1.281 . S
O124 Mn108 2.297 . S
O124 C111 1.236 . S
N125 Mn109 2.282 . S
N125 C126 1.328 . S
N125 C130 1.318 . S
C126 N125 1.328 . S
C126 C127 1.457 . S
C126 H131 0.929 . S
C127 C126 1.457 . S
C127 C128 1.291 . S
C127 H140 0.931 . S
C128 C127 1.291 . S
C128 C129 1.373 . S
C128 H141 0.929 . S
C129 C128 1.373 . S
C129 C130 1.396 . S
C129 C136 1.403 . S
C130 C120 1.476 . S
C130 N125 1.318 . S
C130 C129 1.396 . S
H131 C126 0.929 . S
O132 Mn108 2.385 . S
O132 C110 1.234 . S
O133 Mn108 2.209 . S
O133 Mn109 2.215 . S
O133 C110 1.283 . S
O134 Mn108 2.094 . S
O134 C112 1.240 . S
O135 Mn109 2.117 . S
O135 C112 1.264 . S
C136 C129 1.403 . S
C136 C137 1.399 . S
C136 H142 0.929 . S
C137 C117 1.449 . S
C137 C136 1.399 . S
C137 H143 0.930 . S
H138 C118 0.931 . S
H139 C119 0.930 . S
H140 C127 0.931 . S
H141 C128 0.929 . S
H142 C136 0.929 . S
H143 C137 0.930 . S
Mn144 O149 2.095 . S
Mn144 O159 2.162 . S
Mn144 O160 2.297 . S
Mn144 O168 2.385 . S
Mn144 O169 2.209 . S
Mn144 O170 2.094 . S
Mn145 O150 2.121 . S
Mn145 N152 2.257 1_565 S
Mn145 N161 2.282 . S
Mn145 O169 2.215 . S
Mn145 O171 2.117 . S
C146 O168 1.234 . S
C146 O169 1.283 . S
C147 O159 1.281 . S
C147 O160 1.236 . S
C148 O170 1.240 . S
C148 O171 1.264 . S
O149 Mn144 2.095 . S
O149 C158 1.250 . S
O150 Mn145 2.121 . S
O150 C158 1.258 . S
C151 N152 1.326 . S
C151 C155 1.460 . S
C151 H157 0.929 . S
N152 Mn145 2.257 1_545 S
N152 C151 1.326 . S
N152 C156 1.362 . S
C153 C154 1.258 . S
C153 C156 1.431 . S
C153 C173 1.449 . S
C154 C153 1.258 . S
C154 C155 1.477 . S
C154 H174 0.931 . S
C155 C151 1.460 . S
C155 C154 1.477 . S
C155 H175 0.930 . S
C156 N152 1.362 . S
C156 C153 1.431 . S
C156 C166 1.476 1_545 S
H157 C151 0.929 . S
C158 O149 1.250 . S
C158 O150 1.258 . S
O159 Mn144 2.162 . S
O159 C147 1.281 . S
O160 Mn144 2.297 . S
O160 C147 1.236 . S
N161 Mn145 2.282 . S
N161 C162 1.328 . S
N161 C166 1.318 . S
C162 N161 1.328 . S
C162 C163 1.457 . S
C162 H167 0.929 . S
C163 C162 1.457 . S
C163 C164 1.291 . S
C163 H176 0.931 . S
C164 C163 1.291 . S
C164 C165 1.373 . S
C164 H177 0.929 . S
C165 C164 1.373 . S
C165 C166 1.396 . S
C165 C172 1.403 1_565 S
C166 C156 1.476 1_565 S
C166 N161 1.318 . S
C166 C165 1.396 . S
H167 C162 0.929 . S
O168 Mn144 2.385 . S
O168 C146 1.234 . S
O169 Mn144 2.209 . S
O169 Mn145 2.215 . S
O169 C146 1.283 . S
O170 Mn144 2.094 . S
O170 C148 1.240 . S
O171 Mn145 2.117 . S
O171 C148 1.264 . S
C172 C165 1.403 1_545 S
C172 C173 1.399 . S
C172 H178 0.929 . S
C173 C153 1.449 . S
C173 C172 1.399 . S
C173 H179 0.930 . S
H174 C154 0.931 . S
H175 C155 0.930 . S
H176 C163 0.931 . S
H177 C164 0.929 . S
H178 C172 0.929 . S
H179 C173 0.930 . S
Mn180 O185 2.095 . S
Mn180 O195 2.162 . S
Mn180 O196 2.297 . S
Mn180 O204 2.385 . S
Mn180 O205 2.209 . S
Mn180 O206 2.094 . S
Mn181 O186 2.121 . S
Mn181 N188 2.257 . S
Mn181 N197 2.282 . S
Mn181 O205 2.215 . S
Mn181 O207 2.117 . S
C182 O204 1.234 . S
C182 O205 1.283 . S
C183 O195 1.281 . S
C183 O196 1.236 . S
C184 O206 1.240 . S
C184 O207 1.264 . S
O185 Mn180 2.095 . S
O185 C194 1.250 . S
O186 Mn181 2.121 . S
O186 C194 1.258 . S
C187 N188 1.326 . S
C187 C191 1.460 . S
C187 H193 0.929 . S
N188 Mn181 2.257 . S
N188 C187 1.326 . S
N188 C192 1.362 . S
C189 C190 1.258 . S
C189 C192 1.431 . S
C189 C209 1.449 . S
C190 C189 1.258 . S
C190 C191 1.477 . S
C190 H210 0.931 . S
C191 C187 1.460 . S
C191 C190 1.477 . S
C191 H211 0.930 . S
C192 N188 1.362 . S
C192 C189 1.431 . S
C192 C202 1.476 . S
H193 C187 0.929 . S
C194 O185 1.250 . S
C194 O186 1.258 . S
O195 Mn180 2.162 . S
O195 C183 1.281 . S
O196 Mn180 2.297 . S
O196 C183 1.236 . S
N197 Mn181 2.282 . S
N197 C198 1.328 . S
N197 C202 1.318 . S
C198 N197 1.328 . S
C198 C199 1.457 . S
C198 H203 0.929 . S
C199 C198 1.457 . S
C199 C200 1.291 . S
C199 H212 0.931 . S
C200 C199 1.291 . S
C200 C201 1.373 . S
C200 H213 0.929 . S
C201 C200 1.373 . S
C201 C202 1.396 . S
C201 C208 1.403 . S
C202 C192 1.476 . S
C202 N197 1.318 . S
C202 C201 1.396 . S
H203 C198 0.929 . S
O204 Mn180 2.385 . S
O204 C182 1.234 . S
O205 Mn180 2.209 . S
O205 Mn181 2.215 . S
O205 C182 1.283 . S
O206 Mn180 2.094 . S
O206 C184 1.240 . S
O207 Mn181 2.117 . S
O207 C184 1.264 . S
C208 C201 1.403 . S
C208 C209 1.399 . S
C208 H214 0.929 . S
C209 C189 1.449 . S
C209 C208 1.399 . S
C209 H215 0.930 . S
H210 C190 0.931 . S
H211 C191 0.930 . S
H212 C199 0.931 . S
H213 C200 0.929 . S
H214 C208 0.929 . S
H215 C209 0.930 . S
Mn216 O221 2.095 . S
Mn216 O231 2.162 . S
Mn216 O232 2.297 . S
Mn216 O240 2.385 . S
Mn216 O241 2.209 . S
Mn216 O242 2.094 . S
Mn217 O222 2.121 . S
Mn217 N224 2.257 1_545 S
Mn217 N233 2.282 . S
Mn217 O241 2.215 . S
Mn217 O243 2.117 . S
C218 O240 1.234 . S
C218 O241 1.283 . S
C219 O231 1.281 . S
C219 O232 1.236 . S
C220 O242 1.240 . S
C220 O243 1.264 . S
O221 Mn216 2.095 . S
O221 C230 1.250 . S
O222 Mn217 2.121 . S
O222 C230 1.258 . S
C223 N224 1.326 . S
C223 C227 1.460 . S
C223 H229 0.929 . S
N224 Mn217 2.257 1_565 S
N224 C223 1.326 . S
N224 C228 1.362 . S
C225 C226 1.258 . S
C225 C228 1.431 . S
C225 C245 1.449 1_455 S
C226 C225 1.258 . S
C226 C227 1.477 . S
C226 H246 0.931 . S
C227 C223 1.460 . S
C227 C226 1.477 . S
C227 H247 0.930 . S
C228 N224 1.362 . S
C228 C225 1.431 . S
C228 C238 1.476 1_565 S
H229 C223 0.929 . S
C230 O221 1.250 . S
C230 O222 1.258 . S
O231 Mn216 2.162 . S
O231 C219 1.281 . S
O232 Mn216 2.297 . S
O232 C219 1.236 . S
N233 Mn217 2.282 . S
N233 C234 1.328 . S
N233 C238 1.318 . S
C234 N233 1.328 . S
C234 C235 1.457 . S
C234 H239 0.929 . S
C235 C234 1.457 . S
C235 C236 1.291 1_455 S
C235 H248 0.931 . S
C236 C235 1.291 1_655 S
C236 C237 1.367 1_655 S
C236 H249 0.929 . S
C237 C236 1.367 1_455 S
C237 C238 1.412 . S
C237 C244 1.393 1_445 S
C238 C228 1.476 1_545 S
C238 N233 1.318 . S
C238 C237 1.412 . S
H239 C234 0.929 . S
O240 Mn216 2.385 . S
O240 C218 1.234 . S
O241 Mn216 2.209 . S
O241 Mn217 2.215 . S
O241 C218 1.283 . S
O242 Mn216 2.094 . S
O242 C220 1.240 . S
O243 Mn217 2.117 . S
O243 C220 1.264 . S
C244 C237 1.393 1_665 S
C244 C245 1.399 . S
C244 H250 0.929 . S
C245 C225 1.449 1_655 S
C245 C244 1.399 . S
C245 H251 0.930 . S
H246 C226 0.931 . S
H247 C227 0.930 . S
H248 C235 0.931 . S
H249 C236 0.929 . S
H250 C244 0.929 . S
H251 C245 0.930 . S
Mn252 O257 2.095 . S
Mn252 O267 2.162 . S
Mn252 O268 2.297 . S
Mn252 O276 2.385 . S
Mn252 O277 2.209 . S
Mn252 O278 2.094 . S
Mn253 O258 2.121 . S
Mn253 N260 2.257 . S
Mn253 N269 2.282 . S
Mn253 O277 2.215 . S
Mn253 O279 2.117 . S
C254 O276 1.234 . S
C254 O277 1.283 . S
C255 O267 1.281 . S
C255 O268 1.236 . S
C256 O278 1.240 . S
C256 O279 1.264 . S
O257 Mn252 2.095 . S
O257 C266 1.250 . S
O258 Mn253 2.121 . S
O258 C266 1.258 . S
C259 N260 1.326 . S
C259 C263 1.460 . S
C259 H265 0.929 . S
N260 Mn253 2.257 . S
N260 C259 1.326 . S
N260 C264 1.362 . S
C261 C262 1.258 . S
C261 C264 1.431 . S
C261 C281 1.449 . S
C262 C261 1.258 . S
C262 C263 1.477 . S
C262 H282 0.931 . S
C263 C259 1.460 . S
C263 C262 1.477 . S
C263 H283 0.930 . S
C264 N260 1.362 . S
C264 C261 1.431 . S
C264 C274 1.476 . S
H265 C259 0.929 . S
C266 O257 1.250 . S
C266 O258 1.258 . S
O267 Mn252 2.162 . S
O267 C255 1.281 . S
O268 Mn252 2.297 . S
O268 C255 1.236 . S
N269 Mn253 2.282 . S
N269 C270 1.328 . S
N269 C274 1.318 . S
C270 N269 1.328 . S
C270 C271 1.457 . S
C270 H275 0.929 . S
C271 C270 1.457 . S
C271 C272 1.291 . S
C271 H284 0.931 . S
C272 C271 1.291 . S
C272 C273 1.373 . S
C272 H285 0.929 . S
C273 C272 1.373 . S
C273 C274 1.396 . S
C273 C280 1.403 . S
C274 C264 1.476 . S
C274 N269 1.318 . S
C274 C273 1.396 . S
H275 C270 0.929 . S
O276 Mn252 2.385 . S
O276 C254 1.234 . S
O277 Mn252 2.209 . S
O277 Mn253 2.215 . S
O277 C254 1.283 . S
O278 Mn252 2.094 . S
O278 C256 1.240 . S
O279 Mn253 2.117 . S
O279 C256 1.264 . S
C280 C273 1.403 . S
C280 C281 1.399 . S
C280 H286 0.929 . S
C281 C261 1.449 . S
C281 C280 1.399 . S
C281 H287 0.930 . S
H282 C262 0.931 . S
H283 C263 0.930 . S
H284 C271 0.931 . S
H285 C272 0.929 . S
H286 C280 0.929 . S
H287 C281 0.930 . S
Mn288 O293 2.095 . S
Mn288 O303 2.162 . S
Mn288 O304 2.297 . S
Mn288 O312 2.385 . S
Mn288 O313 2.209 . S
Mn288 O314 2.094 . S
Mn289 O294 2.121 . S
Mn289 N296 2.257 1_565 S
Mn289 N305 2.282 . S
Mn289 O313 2.215 . S
Mn289 O315 2.117 . S
C290 O312 1.234 . S
C290 O313 1.283 . S
C291 O303 1.281 . S
C291 O304 1.236 . S
C292 O314 1.240 . S
C292 O315 1.264 . S
O293 Mn288 2.095 . S
O293 C302 1.250 . S
O294 Mn289 2.121 . S
O294 C302 1.258 . S
C295 N296 1.326 . S
C295 C299 1.460 . S
C295 H301 0.929 . S
N296 Mn289 2.257 1_545 S
N296 C295 1.326 . S
N296 C300 1.362 . S
C297 C298 1.258 . S
C297 C300 1.431 . S
C297 C317 1.449 . S
C298 C297 1.258 . S
C298 C299 1.477 . S
C298 H318 0.931 . S
C299 C295 1.460 . S
C299 C298 1.477 . S
C299 H319 0.930 . S
C300 N296 1.362 . S
C300 C297 1.431 . S
C300 C310 1.476 1_545 S
H301 C295 0.929 . S
C302 O293 1.250 . S
C302 O294 1.258 . S
O303 Mn288 2.162 . S
O303 C291 1.281 . S
O304 Mn288 2.297 . S
O304 C291 1.236 . S
N305 Mn289 2.282 . S
N305 C306 1.328 . S
N305 C310 1.318 . S
C306 N305 1.328 . S
C306 C307 1.457 . S
C306 H311 0.929 . S
C307 C306 1.457 . S
C307 C308 1.291 . S
C307 H320 0.931 . S
C308 C307 1.291 . S
C308 C309 1.373 . S
C308 H321 0.929 . S
C309 C308 1.373 . S
C309 C310 1.396 . S
C309 C316 1.403 1_565 S
C310 C300 1.476 1_565 S
C310 N305 1.318 . S
C310 C309 1.396 . S
H311 C306 0.929 . S
O312 Mn288 2.385 . S
O312 C290 1.234 . S
O313 Mn288 2.209 . S
O313 Mn289 2.215 . S
O313 C290 1.283 . S
O314 Mn288 2.094 . S
O314 C292 1.240 . S
O315 Mn289 2.117 . S
O315 C292 1.264 . S
C316 C309 1.403 1_545 S
C316 C317 1.399 . S
C316 H322 0.929 . S
C317 C297 1.449 . S
C317 C316 1.399 . S
C317 H323 0.930 . S
H318 C298 0.931 . S
H319 C299 0.930 . S
H320 C307 0.931 . S
H321 C308 0.929 . S
H322 C316 0.929 . S
H323 C317 0.930 . S
Mn324 O329 2.095 . S
Mn324 O339 2.162 . S
Mn324 O340 2.297 . S
Mn324 O348 2.385 . S
Mn324 O349 2.209 . S
Mn324 O350 2.094 . S
Mn325 O330 2.121 . S
Mn325 N332 2.257 . S
Mn325 N341 2.282 . S
Mn325 O349 2.215 . S
Mn325 O351 2.117 . S
C326 O348 1.234 . S
C326 O349 1.283 . S
C327 O339 1.281 . S
C327 O340 1.236 . S
C328 O350 1.240 . S
C328 O351 1.264 . S
O329 Mn324 2.095 . S
O329 C338 1.250 . S
O330 Mn325 2.121 . S
O330 C338 1.258 . S
C331 N332 1.326 . S
C331 C335 1.460 . S
C331 H337 0.929 . S
N332 Mn325 2.257 . S
N332 C331 1.326 . S
N332 C336 1.362 . S
C333 C334 1.258 . S
C333 C336 1.431 . S
C333 C353 1.449 . S
C334 C333 1.258 . S
C334 C335 1.477 . S
C334 H354 0.931 . S
C335 C331 1.460 . S
C335 C334 1.477 . S
C335 H355 0.930 . S
C336 N332 1.362 . S
C336 C333 1.431 . S
C336 C346 1.476 . S
H337 C331 0.929 . S
C338 O329 1.250 . S
C338 O330 1.258 . S
O339 Mn324 2.162 . S
O339 C327 1.281 . S
O340 Mn324 2.297 . S
O340 C327 1.236 . S
N341 Mn325 2.282 . S
N341 C342 1.328 . S
N341 C346 1.318 . S
C342 N341 1.328 . S
C342 C343 1.457 . S
C342 H347 0.929 . S
C343 C342 1.457 . S
C343 C344 1.291 . S
C343 H356 0.931 . S
C344 C343 1.291 . S
C344 C345 1.373 . S
C344 H357 0.929 . S
C345 C344 1.373 . S
C345 C346 1.396 . S
C345 C352 1.403 . S
C346 C336 1.476 . S
C346 N341 1.318 . S
C346 C345 1.396 . S
H347 C342 0.929 . S
O348 Mn324 2.385 . S
O348 C326 1.234 . S
O349 Mn324 2.209 . S
O349 Mn325 2.215 . S
O349 C326 1.283 . S
O350 Mn324 2.094 . S
O350 C328 1.240 . S
O351 Mn325 2.117 . S
O351 C328 1.264 . S
C352 C345 1.403 . S
C352 C353 1.399 . S
C352 H358 0.929 . S
C353 C333 1.449 . S
C353 C352 1.399 . S
C353 H359 0.930 . S
H354 C334 0.931 . S
H355 C335 0.930 . S
H356 C343 0.931 . S
H357 C344 0.929 . S
H358 C352 0.929 . S
H359 C353 0.930 . S
Mn360 O365 2.095 . S
Mn360 O375 2.162 . S
Mn360 O376 2.297 . S
Mn360 O384 2.385 . S
Mn360 O385 2.209 . S
Mn360 O386 2.094 . S
Mn361 O366 2.121 . S
Mn361 N368 2.257 1_545 S
Mn361 N377 2.282 . S
Mn361 O385 2.215 . S
Mn361 O387 2.117 . S
C362 O384 1.234 . S
C362 O385 1.283 . S
C363 O375 1.281 . S
C363 O376 1.236 . S
C364 O386 1.240 . S
C364 O387 1.264 . S
O365 Mn360 2.095 . S
O365 C374 1.250 . S
O366 Mn361 2.121 . S
O366 C374 1.258 . S
C367 N368 1.326 . S
C367 C371 1.460 . S
C367 H373 0.929 . S
N368 Mn361 2.257 1_565 S
N368 C367 1.326 . S
N368 C372 1.362 . S
C369 C370 1.258 . S
C369 C372 1.431 . S
C369 C389 1.449 1_655 S
C370 C369 1.258 . S
C370 C371 1.477 . S
C370 H390 0.931 . S
C371 C367 1.460 . S
C371 C370 1.477 . S
C371 H391 0.930 . S
C372 N368 1.362 . S
C372 C369 1.431 . S
C372 C382 1.476 1_565 S
H373 C367 0.929 . S
C374 O365 1.250 . S
C374 O366 1.258 . S
O375 Mn360 2.162 . S
O375 C363 1.281 . S
O376 Mn360 2.297 . S
O376 C363 1.236 . S
N377 Mn361 2.282 . S
N377 C378 1.328 . S
N377 C382 1.318 . S
C378 N377 1.328 . S
C378 C379 1.457 . S
C378 H383 0.929 . S
C379 C378 1.457 . S
C379 C380 1.291 1_655 S
C379 H392 0.931 . S
C380 C379 1.291 1_455 S
C380 C381 1.367 1_455 S
C380 H393 0.929 . S
C381 C380 1.367 1_655 S
C381 C382 1.412 . S
C381 C388 1.393 1_645 S
C382 C372 1.476 1_545 S
C382 N377 1.318 . S
C382 C381 1.412 . S
H383 C378 0.929 . S
O384 Mn360 2.385 . S
O384 C362 1.234 . S
O385 Mn360 2.209 . S
O385 Mn361 2.215 . S
O385 C362 1.283 . S
O386 Mn360 2.094 . S
O386 C364 1.240 . S
O387 Mn361 2.117 . S
O387 C364 1.264 . S
C388 C381 1.393 1_465 S
C388 C389 1.399 . S
C388 H394 0.929 . S
C389 C369 1.449 1_455 S
C389 C388 1.399 . S
C389 H395 0.930 . S
H390 C370 0.931 . S
H391 C371 0.930 . S
H392 C379 0.931 . S
H393 C380 0.929 . S
H394 C388 0.929 . S
H395 C389 0.930 . S
Mn396 O401 2.095 . S
Mn396 O411 2.162 . S
Mn396 O412 2.297 . S
Mn396 O420 2.385 . S
Mn396 O421 2.209 . S
Mn396 O422 2.094 . S
Mn397 O402 2.121 . S
Mn397 N404 2.257 . S
Mn397 N413 2.282 . S
Mn397 O421 2.215 . S
Mn397 O423 2.117 . S
C398 O420 1.234 . S
C398 O421 1.283 . S
C399 O411 1.281 . S
C399 O412 1.236 . S
C400 O422 1.240 . S
C400 O423 1.264 . S
O401 Mn396 2.095 . S
O401 C410 1.250 . S
O402 Mn397 2.121 . S
O402 C410 1.258 . S
C403 N404 1.326 . S
C403 C407 1.460 . S
C403 H409 0.929 . S
N404 Mn397 2.257 . S
N404 C403 1.326 . S
N404 C408 1.362 . S
C405 C406 1.258 . S
C405 C408 1.431 . S
C405 C425 1.449 . S
C406 C405 1.258 . S
C406 C407 1.477 . S
C406 H426 0.931 . S
C407 C403 1.460 . S
C407 C406 1.477 . S
C407 H427 0.930 . S
C408 N404 1.362 . S
C408 C405 1.431 . S
C408 C418 1.476 . S
H409 C403 0.929 . S
C410 O401 1.250 . S
C410 O402 1.258 . S
O411 Mn396 2.162 . S
O411 C399 1.281 . S
O412 Mn396 2.297 . S
O412 C399 1.236 . S
N413 Mn397 2.282 . S
N413 C414 1.328 . S
N413 C418 1.318 . S
C414 N413 1.328 . S
C414 C415 1.457 . S
C414 H419 0.929 . S
C415 C414 1.457 . S
C415 C416 1.291 . S
C415 H428 0.931 . S
C416 C415 1.291 . S
C416 C417 1.373 . S
C416 H429 0.929 . S
C417 C416 1.373 . S
C417 C418 1.396 . S
C417 C424 1.403 . S
C418 C408 1.476 . S
C418 N413 1.318 . S
C418 C417 1.396 . S
H419 C414 0.929 . S
O420 Mn396 2.385 . S
O420 C398 1.234 . S
O421 Mn396 2.209 . S
O421 Mn397 2.215 . S
O421 C398 1.283 . S
O422 Mn396 2.094 . S
O422 C400 1.240 . S
O423 Mn397 2.117 . S
O423 C400 1.264 . S
C424 C417 1.403 . S
C424 C425 1.399 . S
C424 H430 0.929 . S
C425 C405 1.449 . S
C425 C424 1.399 . S
C425 H431 0.930 . S
H426 C406 0.931 . S
H427 C407 0.930 . S
H428 C415 0.931 . S
H429 C416 0.929 . S
H430 C424 0.929 . S
H431 C425 0.930 . S
Mn432 O437 2.095 . S
Mn432 O447 2.162 . S
Mn432 O448 2.297 . S
Mn432 O456 2.385 . S
Mn432 O457 2.209 . S
Mn432 O458 2.094 . S
Mn433 O438 2.121 . S
Mn433 N440 2.257 1_545 S
Mn433 N449 2.282 . S
Mn433 O457 2.215 . S
Mn433 O459 2.117 . S
C434 O456 1.234 . S
C434 O457 1.283 . S
C435 O447 1.281 . S
C435 O448 1.236 . S
C436 O458 1.240 . S
C436 O459 1.264 . S
O437 Mn432 2.095 . S
O437 C446 1.250 . S
O438 Mn433 2.121 . S
O438 C446 1.258 . S
C439 N440 1.326 . S
C439 C443 1.460 . S
C439 H445 0.929 . S
N440 Mn433 2.257 1_565 S
N440 C439 1.326 . S
N440 C444 1.362 . S
C441 C442 1.258 . S
C441 C444 1.431 . S
C441 C461 1.449 . S
C442 C441 1.258 . S
C442 C443 1.477 . S
C442 H462 0.931 . S
C443 C439 1.460 . S
C443 C442 1.477 . S
C443 H463 0.930 . S
C444 N440 1.362 . S
C444 C441 1.431 . S
C444 C454 1.476 1_565 S
H445 C439 0.929 . S
C446 O437 1.250 . S
C446 O438 1.258 . S
O447 Mn432 2.162 . S
O447 C435 1.281 . S
O448 Mn432 2.297 . S
O448 C435 1.236 . S
N449 Mn433 2.282 . S
N449 C450 1.328 . S
N449 C454 1.318 . S
C450 N449 1.328 . S
C450 C451 1.457 . S
C450 H455 0.929 . S
C451 C450 1.457 . S
C451 C452 1.291 . S
C451 H464 0.931 . S
C452 C451 1.291 . S
C452 C453 1.373 . S
C452 H465 0.929 . S
C453 C452 1.373 . S
C453 C454 1.396 . S
C453 C460 1.403 1_545 S
C454 C444 1.476 1_545 S
C454 N449 1.318 . S
C454 C453 1.396 . S
H455 C450 0.929 . S
O456 Mn432 2.385 . S
O456 C434 1.234 . S
O457 Mn432 2.209 . S
O457 Mn433 2.215 . S
O457 C434 1.283 . S
O458 Mn432 2.094 . S
O458 C436 1.240 . S
O459 Mn433 2.117 . S
O459 C436 1.264 . S
C460 C453 1.403 1_565 S
C460 C461 1.399 . S
C460 H466 0.929 . S
C461 C441 1.449 . S
C461 C460 1.399 . S
C461 H467 0.930 . S
H462 C442 0.931 . S
H463 C443 0.930 . S
H464 C451 0.931 . S
H465 C452 0.929 . S
H466 C460 0.929 . S
H467 C461 0.930 . S
Mn468 O473 2.095 . S
Mn468 O483 2.162 . S
Mn468 O484 2.297 . S
Mn468 O492 2.385 . S
Mn468 O493 2.209 . S
Mn468 O494 2.094 . S
Mn469 O474 2.121 . S
Mn469 N476 2.257 . S
Mn469 N485 2.282 . S
Mn469 O493 2.215 . S
Mn469 O495 2.117 . S
C470 O492 1.234 . S
C470 O493 1.283 . S
C471 O483 1.281 . S
C471 O484 1.236 . S
C472 O494 1.240 . S
C472 O495 1.264 . S
O473 Mn468 2.095 . S
O473 C482 1.250 . S
O474 Mn469 2.121 . S
O474 C482 1.258 . S
C475 N476 1.326 . S
C475 C479 1.460 . S
C475 H481 0.929 . S
N476 Mn469 2.257 . S
N476 C475 1.326 . S
N476 C480 1.362 . S
C477 C478 1.258 . S
C477 C480 1.431 . S
C477 C497 1.449 . S
C478 C477 1.258 . S
C478 C479 1.477 . S
C478 H498 0.931 . S
C479 C475 1.460 . S
C479 C478 1.477 . S
C479 H499 0.930 . S
C480 N476 1.362 . S
C480 C477 1.431 . S
C480 C490 1.476 . S
H481 C475 0.929 . S
C482 O473 1.250 . S
C482 O474 1.258 . S
O483 Mn468 2.162 . S
O483 C471 1.281 . S
O484 Mn468 2.297 . S
O484 C471 1.236 . S
N485 Mn469 2.282 . S
N485 C486 1.328 . S
N485 C490 1.318 . S
C486 N485 1.328 . S
C486 C487 1.457 . S
C486 H491 0.929 . S
C487 C486 1.457 . S
C487 C488 1.291 . S
C487 H500 0.931 . S
C488 C487 1.291 . S
C488 C489 1.373 . S
C488 H501 0.929 . S
C489 C488 1.373 . S
C489 C490 1.396 . S
C489 C496 1.403 . S
C490 C480 1.476 . S
C490 N485 1.318 . S
C490 C489 1.396 . S
H491 C486 0.929 . S
O492 Mn468 2.385 . S
O492 C470 1.234 . S
O493 Mn468 2.209 . S
O493 Mn469 2.215 . S
O493 C470 1.283 . S
O494 Mn468 2.094 . S
O494 C472 1.240 . S
O495 Mn469 2.117 . S
O495 C472 1.264 . S
C496 C489 1.403 . S
C496 C497 1.399 . S
C496 H502 0.929 . S
C497 C477 1.449 . S
C497 C496 1.399 . S
C497 H503 0.930 . S
H498 C478 0.931 . S
H499 C479 0.930 . S
H500 C487 0.931 . S
H501 C488 0.929 . S
H502 C496 0.929 . S
H503 C497 0.930 . S
Mn504 O509 2.095 . S
Mn504 O519 2.162 . S
Mn504 O520 2.297 . S
Mn504 O528 2.385 . S
Mn504 O529 2.209 . S
Mn504 O530 2.094 . S
Mn505 O510 2.121 . S
Mn505 N512 2.257 1_565 S
Mn505 N521 2.282 . S
Mn505 O529 2.215 . S
Mn505 O531 2.117 . S
C506 O528 1.234 . S
C506 O529 1.283 . S
C507 O519 1.281 . S
C507 O520 1.236 . S
C508 O530 1.240 . S
C508 O531 1.264 . S
O509 Mn504 2.095 . S
O509 C518 1.250 . S
O510 Mn505 2.121 . S
O510 C518 1.258 . S
C511 N512 1.326 . S
C511 C515 1.460 . S
C511 H517 0.929 . S
N512 Mn505 2.257 1_545 S
N512 C511 1.326 . S
N512 C516 1.362 . S
C513 C514 1.258 . S
C513 C516 1.431 . S
C513 C533 1.449 1_655 S
C514 C513 1.258 . S
C514 C515 1.477 . S
C514 H534 0.931 . S
C515 C511 1.460 . S
C515 C514 1.477 . S
C515 H535 0.930 . S
C516 N512 1.362 . S
C516 C513 1.431 . S
C516 C526 1.476 1_545 S
H517 C511 0.929 . S
C518 O509 1.250 . S
C518 O510 1.258 . S
O519 Mn504 2.162 . S
O519 C507 1.281 . S
O520 Mn504 2.297 . S
O520 C507 1.236 . S
N521 Mn505 2.282 . S
N521 C522 1.328 . S
N521 C526 1.318 . S
C522 N521 1.328 . S
C522 C523 1.457 . S
C522 H527 0.929 . S
C523 C522 1.457 . S
C523 C524 1.291 1_655 S
C523 H536 0.931 . S
C524 C523 1.291 1_455 S
C524 C525 1.367 1_455 S
C524 H537 0.929 . S
C525 C524 1.367 1_655 S
C525 C526 1.412 . S
C525 C532 1.393 1_665 S
C526 C516 1.476 1_565 S
C526 N521 1.318 . S
C526 C525 1.412 . S
H527 C522 0.929 . S
O528 Mn504 2.385 . S
O528 C506 1.234 . S
O529 Mn504 2.209 . S
O529 Mn505 2.215 . S
O529 C506 1.283 . S
O530 Mn504 2.094 . S
O530 C508 1.240 . S
O531 Mn505 2.117 . S
O531 C508 1.264 . S
C532 C525 1.393 1_445 S
C532 C533 1.399 . S
C532 H538 0.929 . S
C533 C513 1.449 1_455 S
C533 C532 1.399 . S
C533 H539 0.930 . S
H534 C514 0.931 . S
H535 C515 0.930 . S
H536 C523 0.931 . S
H537 C524 0.929 . S
H538 C532 0.929 . S
H539 C533 0.930 . S
Mn540 O545 2.095 . S
Mn540 O555 2.162 . S
Mn540 O556 2.297 . S
Mn540 O564 2.385 . S
Mn540 O565 2.209 . S
Mn540 O566 2.094 . S
Mn541 O546 2.121 . S
Mn541 N548 2.257 . S
Mn541 N557 2.282 . S
Mn541 O565 2.215 . S
Mn541 O567 2.117 . S
C542 O564 1.234 . S
C542 O565 1.283 . S
C543 O555 1.281 . S
C543 O556 1.236 . S
C544 O566 1.240 . S
C544 O567 1.264 . S
O545 Mn540 2.095 . S
O545 C554 1.250 . S
O546 Mn541 2.121 . S
O546 C554 1.258 . S
C547 N548 1.326 . S
C547 C551 1.460 . S
C547 H553 0.929 . S
N548 Mn541 2.257 . S
N548 C547 1.326 . S
N548 C552 1.362 . S
C549 C550 1.258 . S
C549 C552 1.431 . S
C549 C569 1.449 . S
C550 C549 1.258 . S
C550 C551 1.477 . S
C550 H570 0.931 . S
C551 C547 1.460 . S
C551 C550 1.477 . S
C551 H571 0.930 . S
C552 N548 1.362 . S
C552 C549 1.431 . S
C552 C562 1.476 . S
H553 C547 0.929 . S
C554 O545 1.250 . S
C554 O546 1.258 . S
O555 Mn540 2.162 . S
O555 C543 1.281 . S
O556 Mn540 2.297 . S
O556 C543 1.236 . S
N557 Mn541 2.282 . S
N557 C558 1.328 . S
N557 C562 1.318 . S
C558 N557 1.328 . S
C558 C559 1.457 . S
C558 H563 0.929 . S
C559 C558 1.457 . S
C559 C560 1.291 . S
C559 H572 0.931 . S
C560 C559 1.291 . S
C560 C561 1.373 . S
C560 H573 0.929 . S
C561 C560 1.373 . S
C561 C562 1.396 . S
C561 C568 1.403 . S
C562 C552 1.476 . S
C562 N557 1.318 . S
C562 C561 1.396 . S
H563 C558 0.929 . S
O564 Mn540 2.385 . S
O564 C542 1.234 . S
O565 Mn540 2.209 . S
O565 Mn541 2.215 . S
O565 C542 1.283 . S
O566 Mn540 2.094 . S
O566 C544 1.240 . S
O567 Mn541 2.117 . S
O567 C544 1.264 . S
C568 C561 1.403 . S
C568 C569 1.399 . S
C568 H574 0.929 . S
C569 C549 1.449 . S
C569 C568 1.399 . S
C569 H575 0.930 . S
H570 C550 0.931 . S
H571 C551 0.930 . S
H572 C559 0.931 . S
H573 C560 0.929 . S
H574 C568 0.929 . S
H575 C569 0.930 . S
Mn576 O581 2.095 . S
Mn576 O591 2.162 . S
Mn576 O592 2.297 . S
Mn576 O600 2.385 . S
Mn576 O601 2.209 . S
Mn576 O602 2.094 . S
Mn577 O582 2.121 . S
Mn577 N584 2.257 . S
Mn577 N593 2.282 . S
Mn577 O601 2.215 . S
Mn577 O603 2.117 . S
C578 O600 1.234 . S
C578 O601 1.283 . S
C579 O591 1.281 . S
C579 O592 1.236 . S
C580 O602 1.240 . S
C580 O603 1.264 . S
O581 Mn576 2.095 . S
O581 C590 1.250 . S
O582 Mn577 2.121 . S
O582 C590 1.258 . S
C583 N584 1.326 . S
C583 C587 1.460 . S
C583 H589 0.929 . S
N584 Mn577 2.257 . S
N584 C583 1.326 . S
N584 C588 1.362 . S
C585 C586 1.258 . S
C585 C588 1.431 . S
C585 C605 1.449 1_655 S
C586 C585 1.258 . S
C586 C587 1.477 . S
C586 H606 0.931 . S
C587 C583 1.460 . S
C587 C586 1.477 . S
C587 H607 0.930 . S
C588 N584 1.362 . S
C588 C585 1.431 . S
C588 C598 1.476 . S
H589 C583 0.929 . S
C590 O581 1.250 . S
C590 O582 1.258 . S
O591 Mn576 2.162 . S
O591 C579 1.281 . S
O592 Mn576 2.297 . S
O592 C579 1.236 . S
N593 Mn577 2.282 . S
N593 C594 1.328 . S
N593 C598 1.318 . S
C594 N593 1.328 . S
C594 C595 1.457 . S
C594 H599 0.929 . S
C595 C594 1.457 . S
C595 C596 1.291 1_655 S
C595 H608 0.931 . S
C596 C595 1.291 1_455 S
C596 C597 1.367 1_455 S
C596 H609 0.929 . S
C597 C596 1.367 1_655 S
C597 C598 1.412 . S
C597 C604 1.393 1_655 S
C598 C588 1.476 . S
C598 N593 1.318 . S
C598 C597 1.412 . S
H599 C594 0.929 . S
O600 Mn576 2.385 . S
O600 C578 1.234 . S
O601 Mn576 2.209 . S
O601 Mn577 2.215 . S
O601 C578 1.283 . S
O602 Mn576 2.094 . S
O602 C580 1.240 . S
O603 Mn577 2.117 . S
O603 C580 1.264 . S
C604 C597 1.393 1_455 S
C604 C605 1.399 . S
C604 H610 0.929 . S
C605 C585 1.449 1_455 S
C605 C604 1.399 . S
C605 H611 0.930 . S
H606 C586 0.931 . S
H607 C587 0.930 . S
H608 C595 0.931 . S
H609 C596 0.929 . S
H610 C604 0.929 . S
H611 C605 0.930 . S
Mn612 O617 2.095 . S
Mn612 O627 2.162 . S
Mn612 O628 2.297 . S
Mn612 O636 2.385 . S
Mn612 O637 2.209 . S
Mn612 O638 2.094 . S
Mn613 O618 2.121 . S
Mn613 N620 2.257 . S
Mn613 N629 2.282 . S
Mn613 O637 2.215 . S
Mn613 O639 2.117 . S
C614 O636 1.234 . S
C614 O637 1.283 . S
C615 O627 1.281 . S
C615 O628 1.236 . S
C616 O638 1.240 . S
C616 O639 1.264 . S
O617 Mn612 2.095 . S
O617 C626 1.250 . S
O618 Mn613 2.121 . S
O618 C626 1.258 . S
C619 N620 1.326 . S
C619 C623 1.460 . S
C619 H625 0.929 . S
N620 Mn613 2.257 . S
N620 C619 1.326 . S
N620 C624 1.362 . S
C621 C622 1.258 . S
C621 C624 1.431 . S
C621 C641 1.449 . S
C622 C621 1.258 . S
C622 C623 1.477 . S
C622 H642 0.931 . S
C623 C619 1.460 . S
C623 C622 1.477 . S
C623 H643 0.930 . S
C624 N620 1.362 . S
C624 C621 1.431 . S
C624 C634 1.476 . S
H625 C619 0.929 . S
C626 O617 1.250 . S
C626 O618 1.258 . S
O627 Mn612 2.162 . S
O627 C615 1.281 . S
O628 Mn612 2.297 . S
O628 C615 1.236 . S
N629 Mn613 2.282 . S
N629 C630 1.328 . S
N629 C634 1.318 . S
C630 N629 1.328 . S
C630 C631 1.457 . S
C630 H635 0.929 . S
C631 C630 1.457 . S
C631 C632 1.291 . S
C631 H644 0.931 . S
C632 C631 1.291 . S
C632 C633 1.373 . S
C632 H645 0.929 . S
C633 C632 1.373 . S
C633 C634 1.396 . S
C633 C640 1.403 . S
C634 C624 1.476 . S
C634 N629 1.318 . S
C634 C633 1.396 . S
H635 C630 0.929 . S
O636 Mn612 2.385 . S
O636 C614 1.234 . S
O637 Mn612 2.209 . S
O637 Mn613 2.215 . S
O637 C614 1.283 . S
O638 Mn612 2.094 . S
O638 C616 1.240 . S
O639 Mn613 2.117 . S
O639 C616 1.264 . S
C640 C633 1.403 . S
C640 C641 1.399 . S
C640 H646 0.929 . S
C641 C621 1.449 . S
C641 C640 1.399 . S
C641 H647 0.930 . S
H642 C622 0.931 . S
H643 C623 0.930 . S
H644 C631 0.931 . S
H645 C632 0.929 . S
H646 C640 0.929 . S
H647 C641 0.930 . S
Mn648 O653 2.095 . S
Mn648 O663 2.162 . S
Mn648 O664 2.297 . S
Mn648 O672 2.385 . S
Mn648 O673 2.209 . S
Mn648 O674 2.094 . S
Mn649 O654 2.121 . S
Mn649 N656 2.257 . S
Mn649 N665 2.282 . S
Mn649 O673 2.215 . S
Mn649 O675 2.117 . S
C650 O672 1.234 . S
C650 O673 1.283 . S
C651 O663 1.281 . S
C651 O664 1.236 . S
C652 O674 1.240 . S
C652 O675 1.264 . S
O653 Mn648 2.095 . S
O653 C662 1.250 . S
O654 Mn649 2.121 . S
O654 C662 1.258 . S
C655 N656 1.326 . S
C655 C659 1.460 . S
C655 H661 0.929 . S
N656 Mn649 2.257 . S
N656 C655 1.326 . S
N656 C660 1.362 . S
C657 C658 1.258 . S
C657 C660 1.431 . S
C657 C677 1.449 . S
C658 C657 1.258 . S
C658 C659 1.477 . S
C658 H678 0.931 . S
C659 C655 1.460 . S
C659 C658 1.477 . S
C659 H679 0.930 . S
C660 N656 1.362 . S
C660 C657 1.431 . S
C660 C670 1.476 . S
H661 C655 0.929 . S
C662 O653 1.250 . S
C662 O654 1.258 . S
O663 Mn648 2.162 . S
O663 C651 1.281 . S
O664 Mn648 2.297 . S
O664 C651 1.236 . S
N665 Mn649 2.282 . S
N665 C666 1.328 . S
N665 C670 1.318 . S
C666 N665 1.328 . S
C666 C667 1.457 . S
C666 H671 0.929 . S
C667 C666 1.457 . S
C667 C668 1.291 . S
C667 H680 0.931 . S
C668 C667 1.291 . S
C668 C669 1.373 . S
C668 H681 0.929 . S
C669 C668 1.373 . S
C669 C670 1.396 . S
C669 C676 1.403 . S
C670 C660 1.476 . S
C670 N665 1.318 . S
C670 C669 1.396 . S
H671 C666 0.929 . S
O672 Mn648 2.385 . S
O672 C650 1.234 . S
O673 Mn648 2.209 . S
O673 Mn649 2.215 . S
O673 C650 1.283 . S
O674 Mn648 2.094 . S
O674 C652 1.240 . S
O675 Mn649 2.117 . S
O675 C652 1.264 . S
C676 C669 1.403 . S
C676 C677 1.399 . S
C676 H682 0.929 . S
C677 C657 1.449 . S
C677 C676 1.399 . S
C677 H683 0.930 . S
H678 C658 0.931 . S
H679 C659 0.930 . S
H680 C667 0.931 . S
H681 C668 0.929 . S
H682 C676 0.929 . S
H683 C677 0.930 . S
Mn684 O689 2.095 . S
Mn684 O699 2.162 . S
Mn684 O700 2.297 . S
Mn684 O708 2.385 . S
Mn684 O709 2.209 . S
Mn684 O710 2.094 . S
Mn685 O690 2.121 . S
Mn685 N692 2.257 . S
Mn685 N701 2.282 . S
Mn685 O709 2.215 . S
Mn685 O711 2.117 . S
C686 O708 1.234 . S
C686 O709 1.283 . S
C687 O699 1.281 . S
C687 O700 1.236 . S
C688 O710 1.240 . S
C688 O711 1.264 . S
O689 Mn684 2.095 . S
O689 C698 1.250 . S
O690 Mn685 2.121 . S
O690 C698 1.258 . S
C691 N692 1.326 . S
C691 C695 1.460 . S
C691 H697 0.929 . S
N692 Mn685 2.257 . S
N692 C691 1.326 . S
N692 C696 1.362 . S
C693 C694 1.258 . S
C693 C696 1.431 . S
C693 C713 1.449 . S
C694 C693 1.258 . S
C694 C695 1.477 . S
C694 H714 0.931 . S
C695 C691 1.460 . S
C695 C694 1.477 . S
C695 H715 0.930 . S
C696 N692 1.362 . S
C696 C693 1.431 . S
C696 C706 1.476 . S
H697 C691 0.929 . S
C698 O689 1.250 . S
C698 O690 1.258 . S
O699 Mn684 2.162 . S
O699 C687 1.281 . S
O700 Mn684 2.297 . S
O700 C687 1.236 . S
N701 Mn685 2.282 . S
N701 C702 1.328 . S
N701 C706 1.318 . S
C702 N701 1.328 . S
C702 C703 1.457 . S
C702 H707 0.929 . S
C703 C702 1.457 . S
C703 C704 1.291 . S
C703 H716 0.931 . S
C704 C703 1.291 . S
C704 C705 1.373 . S
C704 H717 0.929 . S
C705 C704 1.373 . S
C705 C706 1.396 . S
C705 C712 1.403 . S
C706 C696 1.476 . S
C706 N701 1.318 . S
C706 C705 1.396 . S
H707 C702 0.929 . S
O708 Mn684 2.385 . S
O708 C686 1.234 . S
O709 Mn684 2.209 . S
O709 Mn685 2.215 . S
O709 C686 1.283 . S
O710 Mn684 2.094 . S
O710 C688 1.240 . S
O711 Mn685 2.117 . S
O711 C688 1.264 . S
C712 C705 1.403 . S
C712 C713 1.399 . S
C712 H718 0.929 . S
C713 C693 1.449 . S
C713 C712 1.399 . S
C713 H719 0.930 . S
H714 C694 0.931 . S
H715 C695 0.930 . S
H716 C703 0.931 . S
H717 C704 0.929 . S
H718 C712 0.929 . S
H719 C713 0.930 . S
Mn720 O725 2.095 . S
Mn720 O735 2.162 . S
Mn720 O736 2.297 . S
Mn720 O744 2.385 . S
Mn720 O745 2.209 . S
Mn720 O746 2.094 . S
Mn721 O726 2.121 . S
Mn721 N728 2.257 . S
Mn721 N737 2.282 . S
Mn721 O745 2.215 . S
Mn721 O747 2.117 . S
C722 O744 1.234 . S
C722 O745 1.283 . S
C723 O735 1.281 . S
C723 O736 1.236 . S
C724 O746 1.240 . S
C724 O747 1.264 . S
O725 Mn720 2.095 . S
O725 C734 1.250 . S
O726 Mn721 2.121 . S
O726 C734 1.258 . S
C727 N728 1.326 . S
C727 C731 1.460 . S
C727 H733 0.929 . S
N728 Mn721 2.257 . S
N728 C727 1.326 . S
N728 C732 1.362 . S
C729 C730 1.258 . S
C729 C732 1.431 . S
C729 C749 1.449 1_655 S
C730 C729 1.258 . S
C730 C731 1.477 . S
C730 H750 0.931 . S
C731 C727 1.460 . S
C731 C730 1.477 . S
C731 H751 0.930 . S
C732 N728 1.362 . S
C732 C729 1.431 . S
C732 C742 1.476 . S
H733 C727 0.929 . S
C734 O725 1.250 . S
C734 O726 1.258 . S
O735 Mn720 2.162 . S
O735 C723 1.281 . S
O736 Mn720 2.297 . S
O736 C723 1.236 . S
N737 Mn721 2.282 . S
N737 C738 1.328 . S
N737 C742 1.318 . S
C738 N737 1.328 . S
C738 C739 1.457 . S
C738 H743 0.929 . S
C739 C738 1.457 . S
C739 C740 1.291 1_655 S
C739 H752 0.931 . S
C740 C739 1.291 1_455 S
C740 C741 1.367 1_455 S
C740 H753 0.929 . S
C741 C740 1.367 1_655 S
C741 C742 1.412 . S
C741 C748 1.393 1_655 S
C742 C732 1.476 . S
C742 N737 1.318 . S
C742 C741 1.412 . S
H743 C738 0.929 . S
O744 Mn720 2.385 . S
O744 C722 1.234 . S
O745 Mn720 2.209 . S
O745 Mn721 2.215 . S
O745 C722 1.283 . S
O746 Mn720 2.094 . S
O746 C724 1.240 . S
O747 Mn721 2.117 . S
O747 C724 1.264 . S
C748 C741 1.393 1_455 S
C748 C749 1.399 . S
C748 H754 0.929 . S
C749 C729 1.449 1_455 S
C749 C748 1.399 . S
C749 H755 0.930 . S
H750 C730 0.931 . S
H751 C731 0.930 . S
H752 C739 0.931 . S
H753 C740 0.929 . S
H754 C748 0.929 . S
H755 C749 0.930 . S
Mn756 O761 2.095 . S
Mn756 O771 2.162 . S
Mn756 O772 2.297 . S
Mn756 O780 2.385 . S
Mn756 O781 2.209 . S
Mn756 O782 2.094 . S
Mn757 O762 2.121 . S
Mn757 N764 2.257 . S
Mn757 N773 2.282 . S
Mn757 O781 2.215 . S
Mn757 O783 2.117 . S
C758 O780 1.234 . S
C758 O781 1.283 . S
C759 O771 1.281 . S
C759 O772 1.236 . S
C760 O782 1.240 . S
C760 O783 1.264 . S
O761 Mn756 2.095 . S
O761 C770 1.250 . S
O762 Mn757 2.121 . S
O762 C770 1.258 . S
C763 N764 1.326 . S
C763 C767 1.460 . S
C763 H769 0.929 . S
N764 Mn757 2.257 . S
N764 C763 1.326 . S
N764 C768 1.362 . S
C765 C766 1.258 . S
C765 C768 1.431 . S
C765 C785 1.449 . S
C766 C765 1.258 . S
C766 C767 1.477 . S
C766 H786 0.931 . S
C767 C763 1.460 . S
C767 C766 1.477 . S
C767 H787 0.930 . S
C768 N764 1.362 . S
C768 C765 1.431 . S
C768 C778 1.476 . S
H769 C763 0.929 . S
C770 O761 1.250 . S
C770 O762 1.258 . S
O771 Mn756 2.162 . S
O771 C759 1.281 . S
O772 Mn756 2.297 . S
O772 C759 1.236 . S
N773 Mn757 2.282 . S
N773 C774 1.328 . S
N773 C778 1.318 . S
C774 N773 1.328 . S
C774 C775 1.457 . S
C774 H779 0.929 . S
C775 C774 1.457 . S
C775 C776 1.291 . S
C775 H788 0.931 . S
C776 C775 1.291 . S
C776 C777 1.373 . S
C776 H789 0.929 . S
C777 C776 1.373 . S
C777 C778 1.396 . S
C777 C784 1.403 . S
C778 C768 1.476 . S
C778 N773 1.318 . S
C778 C777 1.396 . S
H779 C774 0.929 . S
O780 Mn756 2.385 . S
O780 C758 1.234 . S
O781 Mn756 2.209 . S
O781 Mn757 2.215 . S
O781 C758 1.283 . S
O782 Mn756 2.094 . S
O782 C760 1.240 . S
O783 Mn757 2.117 . S
O783 C760 1.264 . S
C784 C777 1.403 . S
C784 C785 1.399 . S
C784 H790 0.929 . S
C785 C765 1.449 . S
C785 C784 1.399 . S
C785 H791 0.930 . S
H786 C766 0.931 . S
H787 C767 0.930 . S
H788 C775 0.931 . S
H789 C776 0.929 . S
H790 C784 0.929 . S
H791 C785 0.930 . S
Mn792 O797 2.095 . S
Mn792 O807 2.162 . S
Mn792 O808 2.297 . S
Mn792 O816 2.385 . S
Mn792 O817 2.209 . S
Mn792 O818 2.094 . S
Mn793 O798 2.121 . S
Mn793 N800 2.257 . S
Mn793 N809 2.282 . S
Mn793 O817 2.215 . S
Mn793 O819 2.117 . S
C794 O816 1.234 . S
C794 O817 1.283 . S
C795 O807 1.281 . S
C795 O808 1.236 . S
C796 O818 1.240 . S
C796 O819 1.264 . S
O797 Mn792 2.095 . S
O797 C806 1.250 . S
O798 Mn793 2.121 . S
O798 C806 1.258 . S
C799 N800 1.326 . S
C799 C803 1.460 . S
C799 H805 0.929 . S
N800 Mn793 2.257 . S
N800 C799 1.326 . S
N800 C804 1.362 . S
C801 C802 1.258 . S
C801 C804 1.431 . S
C801 C821 1.449 . S
C802 C801 1.258 . S
C802 C803 1.477 . S
C802 H822 0.931 . S
C803 C799 1.460 . S
C803 C802 1.477 . S
C803 H823 0.930 . S
C804 N800 1.362 . S
C804 C801 1.431 . S
C804 C814 1.476 . S
H805 C799 0.929 . S
C806 O797 1.250 . S
C806 O798 1.258 . S
O807 Mn792 2.162 . S
O807 C795 1.281 . S
O808 Mn792 2.297 . S
O808 C795 1.236 . S
N809 Mn793 2.282 . S
N809 C810 1.328 . S
N809 C814 1.318 . S
C810 N809 1.328 . S
C810 C811 1.457 . S
C810 H815 0.929 . S
C811 C810 1.457 . S
C811 C812 1.291 . S
C811 H824 0.931 . S
C812 C811 1.291 . S
C812 C813 1.373 . S
C812 H825 0.929 . S
C813 C812 1.373 . S
C813 C814 1.396 . S
C813 C820 1.403 . S
C814 C804 1.476 . S
C814 N809 1.318 . S
C814 C813 1.396 . S
H815 C810 0.929 . S
O816 Mn792 2.385 . S
O816 C794 1.234 . S
O817 Mn792 2.209 . S
O817 Mn793 2.215 . S
O817 C794 1.283 . S
O818 Mn792 2.094 . S
O818 C796 1.240 . S
O819 Mn793 2.117 . S
O819 C796 1.264 . S
C820 C813 1.403 . S
C820 C821 1.399 . S
C820 H826 0.929 . S
C821 C801 1.449 . S
C821 C820 1.399 . S
C821 H827 0.930 . S
H822 C802 0.931 . S
H823 C803 0.930 . S
H824 C811 0.931 . S
H825 C812 0.929 . S
H826 C820 0.929 . S
H827 C821 0.930 . S
Mn828 O833 2.095 . S
Mn828 O843 2.162 . S
Mn828 O844 2.297 . S
Mn828 O852 2.385 . S
Mn828 O853 2.209 . S
Mn828 O854 2.094 . S
Mn829 O834 2.121 . S
Mn829 N836 2.257 . S
Mn829 N845 2.282 . S
Mn829 O853 2.215 . S
Mn829 O855 2.117 . S
C830 O852 1.234 . S
C830 O853 1.283 . S
C831 O843 1.281 . S
C831 O844 1.236 . S
C832 O854 1.240 . S
C832 O855 1.264 . S
O833 Mn828 2.095 . S
O833 C842 1.250 . S
O834 Mn829 2.121 . S
O834 C842 1.258 . S
C835 N836 1.326 . S
C835 C839 1.460 . S
C835 H841 0.929 . S
N836 Mn829 2.257 . S
N836 C835 1.326 . S
N836 C840 1.362 . S
C837 C838 1.258 . S
C837 C840 1.431 . S
C837 C857 1.449 . S
C838 C837 1.258 . S
C838 C839 1.477 . S
C838 H858 0.931 . S
C839 C835 1.460 . S
C839 C838 1.477 . S
C839 H859 0.930 . S
C840 N836 1.362 . S
C840 C837 1.431 . S
C840 C850 1.476 . S
H841 C835 0.929 . S
C842 O833 1.250 . S
C842 O834 1.258 . S
O843 Mn828 2.162 . S
O843 C831 1.281 . S
O844 Mn828 2.297 . S
O844 C831 1.236 . S
N845 Mn829 2.282 . S
N845 C846 1.328 . S
N845 C850 1.318 . S
C846 N845 1.328 . S
C846 C847 1.457 . S
C846 H851 0.929 . S
C847 C846 1.457 . S
C847 C848 1.291 . S
C847 H860 0.931 . S
C848 C847 1.291 . S
C848 C849 1.373 . S
C848 H861 0.929 . S
C849 C848 1.373 . S
C849 C850 1.396 . S
C849 C856 1.403 . S
C850 C840 1.476 . S
C850 N845 1.318 . S
C850 C849 1.396 . S
H851 C846 0.929 . S
O852 Mn828 2.385 . S
O852 C830 1.234 . S
O853 Mn828 2.209 . S
O853 Mn829 2.215 . S
O853 C830 1.283 . S
O854 Mn828 2.094 . S
O854 C832 1.240 . S
O855 Mn829 2.117 . S
O855 C832 1.264 . S
C856 C849 1.403 . S
C856 C857 1.399 . S
C856 H862 0.929 . S
C857 C837 1.449 . S
C857 C856 1.399 . S
C857 H863 0.930 . S
H858 C838 0.931 . S
H859 C839 0.930 . S
H860 C847 0.931 . S
H861 C848 0.929 . S
H862 C856 0.929 . S
H863 C857 0.930 . S
Mn864 O869 2.095 . S
Mn864 O879 2.162 . S
Mn864 O880 2.297 . S
Mn864 O888 2.385 . S
Mn864 O889 2.209 . S
Mn864 O890 2.094 . S
Mn865 O870 2.121 . S
Mn865 N872 2.257 . S
Mn865 N881 2.282 . S
Mn865 O889 2.215 . S
Mn865 O891 2.117 . S
C866 O888 1.234 . S
C866 O889 1.283 . S
C867 O879 1.281 . S
C867 O880 1.236 . S
C868 O890 1.240 . S
C868 O891 1.264 . S
O869 Mn864 2.095 . S
O869 C878 1.250 . S
O870 Mn865 2.121 . S
O870 C878 1.258 . S
C871 N872 1.326 . S
C871 C875 1.460 . S
C871 H877 0.929 . S
N872 Mn865 2.257 . S
N872 C871 1.326 . S
N872 C876 1.362 . S
C873 C874 1.258 . S
C873 C876 1.431 . S
C873 C893 1.449 1_455 S
C874 C873 1.258 . S
C874 C875 1.477 . S
C874 H894 0.931 . S
C875 C871 1.460 . S
C875 C874 1.477 . S
C875 H895 0.930 . S
C876 N872 1.362 . S
C876 C873 1.431 . S
C876 C886 1.476 . S
H877 C871 0.929 . S
C878 O869 1.250 . S
C878 O870 1.258 . S
O879 Mn864 2.162 . S
O879 C867 1.281 . S
O880 Mn864 2.297 . S
O880 C867 1.236 . S
N881 Mn865 2.282 . S
N881 C882 1.328 . S
N881 C886 1.318 . S
C882 N881 1.328 . S
C882 C883 1.457 . S
C882 H887 0.929 . S
C883 C882 1.457 . S
C883 C884 1.291 1_455 S
C883 H896 0.931 . S
C884 C883 1.291 1_655 S
C884 C885 1.367 1_655 S
C884 H897 0.929 . S
C885 C884 1.367 1_455 S
C885 C886 1.412 . S
C885 C892 1.393 1_455 S
C886 C876 1.476 . S
C886 N881 1.318 . S
C886 C885 1.412 . S
H887 C882 0.929 . S
O888 Mn864 2.385 . S
O888 C866 1.234 . S
O889 Mn864 2.209 . S
O889 Mn865 2.215 . S
O889 C866 1.283 . S
O890 Mn864 2.094 . S
O890 C868 1.240 . S
O891 Mn865 2.117 . S
O891 C868 1.264 . S
C892 C885 1.393 1_655 S
C892 C893 1.399 . S
C892 H898 0.929 . S
C893 C873 1.449 1_655 S
C893 C892 1.399 . S
C893 H899 0.930 . S
H894 C874 0.931 . S
H895 C875 0.930 . S
H896 C883 0.931 . S
H897 C884 0.929 . S
H898 C892 0.929 . S
H899 C893 0.930 . S
Mn900 O905 2.095 . S
Mn900 O915 2.162 . S
Mn900 O916 2.297 . S
Mn900 O924 2.385 . S
Mn900 O925 2.209 . S
Mn900 O926 2.094 . S
Mn901 O906 2.121 . S
Mn901 N908 2.257 . S
Mn901 N917 2.282 . S
Mn901 O925 2.215 . S
Mn901 O927 2.117 . S
C902 O924 1.234 . S
C902 O925 1.283 . S
C903 O915 1.281 . S
C903 O916 1.236 . S
C904 O926 1.240 . S
C904 O927 1.264 . S
O905 Mn900 2.095 . S
O905 C914 1.250 . S
O906 Mn901 2.121 . S
O906 C914 1.258 . S
C907 N908 1.326 . S
C907 C911 1.460 . S
C907 H913 0.929 . S
N908 Mn901 2.257 . S
N908 C907 1.326 . S
N908 C912 1.362 . S
C909 C910 1.258 . S
C909 C912 1.431 . S
C909 C929 1.449 . S
C910 C909 1.258 . S
C910 C911 1.477 . S
C910 H930 0.931 . S
C911 C907 1.460 . S
C911 C910 1.477 . S
C911 H931 0.930 . S
C912 N908 1.362 . S
C912 C909 1.431 . S
C912 C922 1.476 . S
H913 C907 0.929 . S
C914 O905 1.250 . S
C914 O906 1.258 . S
O915 Mn900 2.162 . S
O915 C903 1.281 . S
O916 Mn900 2.297 . S
O916 C903 1.236 . S
N917 Mn901 2.282 . S
N917 C918 1.328 . S
N917 C922 1.318 . S
C918 N917 1.328 . S
C918 C919 1.457 . S
C918 H923 0.929 . S
C919 C918 1.457 . S
C919 C920 1.291 . S
C919 H932 0.931 . S
C920 C919 1.291 . S
C920 C921 1.373 . S
C920 H933 0.929 . S
C921 C920 1.373 . S
C921 C922 1.396 . S
C921 C928 1.403 . S
C922 C912 1.476 . S
C922 N917 1.318 . S
C922 C921 1.396 . S
H923 C918 0.929 . S
O924 Mn900 2.385 . S
O924 C902 1.234 . S
O925 Mn900 2.209 . S
O925 Mn901 2.215 . S
O925 C902 1.283 . S
O926 Mn900 2.094 . S
O926 C904 1.240 . S
O927 Mn901 2.117 . S
O927 C904 1.264 . S
C928 C921 1.403 . S
C928 C929 1.399 . S
C928 H934 0.929 . S
C929 C909 1.449 . S
C929 C928 1.399 . S
C929 H935 0.930 . S
H930 C910 0.931 . S
H931 C911 0.930 . S
H932 C919 0.931 . S
H933 C920 0.929 . S
H934 C928 0.929 . S
H935 C929 0.930 . S
Mn936 O941 2.095 . S
Mn936 O951 2.162 . S
Mn936 O952 2.297 . S
Mn936 O960 2.385 . S
Mn936 O961 2.209 . S
Mn936 O962 2.094 . S
Mn937 O942 2.121 . S
Mn937 N944 2.257 . S
Mn937 N953 2.282 . S
Mn937 O961 2.215 . S
Mn937 O963 2.117 . S
C938 O960 1.234 . S
C938 O961 1.283 . S
C939 O951 1.281 . S
C939 O952 1.236 . S
C940 O962 1.240 . S
C940 O963 1.264 . S
O941 Mn936 2.095 . S
O941 C950 1.250 . S
O942 Mn937 2.121 . S
O942 C950 1.258 . S
C943 N944 1.326 . S
C943 C947 1.460 . S
C943 H949 0.929 . S
N944 Mn937 2.257 . S
N944 C943 1.326 . S
N944 C948 1.362 . S
C945 C946 1.258 . S
C945 C948 1.431 . S
C945 C965 1.449 . S
C946 C945 1.258 . S
C946 C947 1.477 . S
C946 H966 0.931 . S
C947 C943 1.460 . S
C947 C946 1.477 . S
C947 H967 0.930 . S
C948 N944 1.362 . S
C948 C945 1.431 . S
C948 C958 1.476 . S
H949 C943 0.929 . S
C950 O941 1.250 . S
C950 O942 1.258 . S
O951 Mn936 2.162 . S
O951 C939 1.281 . S
O952 Mn936 2.297 . S
O952 C939 1.236 . S
N953 Mn937 2.282 . S
N953 C954 1.328 . S
N953 C958 1.318 . S
C954 N953 1.328 . S
C954 C955 1.457 . S
C954 H959 0.929 . S
C955 C954 1.457 . S
C955 C956 1.291 . S
C955 H968 0.931 . S
C956 C955 1.291 . S
C956 C957 1.373 . S
C956 H969 0.929 . S
C957 C956 1.373 . S
C957 C958 1.396 . S
C957 C964 1.403 . S
C958 C948 1.476 . S
C958 N953 1.318 . S
C958 C957 1.396 . S
H959 C954 0.929 . S
O960 Mn936 2.385 . S
O960 C938 1.234 . S
O961 Mn936 2.209 . S
O961 Mn937 2.215 . S
O961 C938 1.283 . S
O962 Mn936 2.094 . S
O962 C940 1.240 . S
O963 Mn937 2.117 . S
O963 C940 1.264 . S
C964 C957 1.403 . S
C964 C965 1.399 . S
C964 H970 0.929 . S
C965 C945 1.449 . S
C965 C964 1.399 . S
C965 H971 0.930 . S
H966 C946 0.931 . S
H967 C947 0.930 . S
H968 C955 0.931 . S
H969 C956 0.929 . S
H970 C964 0.929 . S
H971 C965 0.930 . S
Mn972 O977 2.095 . S
Mn972 O987 2.162 . S
Mn972 O988 2.297 . S
Mn972 O996 2.385 . S
Mn972 O997 2.209 . S
Mn972 O998 2.094 . S
Mn973 O978 2.121 . S
Mn973 N980 2.257 . S
Mn973 N989 2.282 . S
Mn973 O997 2.215 . S
Mn973 O999 2.117 . S
C974 O996 1.234 . S
C974 O997 1.283 . S
C975 O987 1.281 . S
C975 O988 1.236 . S
C976 O998 1.240 . S
C976 O999 1.264 . S
O977 Mn972 2.095 . S
O977 C986 1.250 . S
O978 Mn973 2.121 . S
O978 C986 1.258 . S
C979 N980 1.326 . S
C979 C983 1.460 . S
C979 H985 0.929 . S
N980 Mn973 2.257 . S
N980 C979 1.326 . S
N980 C984 1.362 . S
C981 C982 1.258 . S
C981 C984 1.431 . S
C981 C1001 1.449 . S
C982 C981 1.258 . S
C982 C983 1.477 . S
C982 H1002 0.931 . S
C983 C979 1.460 . S
C983 C982 1.477 . S
C983 H1003 0.930 . S
C984 N980 1.362 . S
C984 C981 1.431 . S
C984 C994 1.476 . S
H985 C979 0.929 . S
C986 O977 1.250 . S
C986 O978 1.258 . S
O987 Mn972 2.162 . S
O987 C975 1.281 . S
O988 Mn972 2.297 . S
O988 C975 1.236 . S
N989 Mn973 2.282 . S
N989 C990 1.328 . S
N989 C994 1.318 . S
C990 N989 1.328 . S
C990 C991 1.457 . S
C990 H995 0.929 . S
C991 C990 1.457 . S
C991 C992 1.291 . S
C991 H1004 0.931 . S
C992 C991 1.291 . S
C992 C993 1.373 . S
C992 H1005 0.929 . S
C993 C992 1.373 . S
C993 C994 1.396 . S
C993 C1000 1.403 . S
C994 C984 1.476 . S
C994 N989 1.318 . S
C994 C993 1.396 . S
H995 C990 0.929 . S
O996 Mn972 2.385 . S
O996 C974 1.234 . S
O997 Mn972 2.209 . S
O997 Mn973 2.215 . S
O997 C974 1.283 . S
O998 Mn972 2.094 . S
O998 C976 1.240 . S
O999 Mn973 2.117 . S
O999 C976 1.264 . S
C1000 C993 1.403 . S
C1000 C1001 1.399 . S
C1000 H1006 0.929 . S
C1001 C981 1.449 . S
C1001 C1000 1.399 . S
C1001 H1007 0.930 . S
H1002 C982 0.931 . S
H1003 C983 0.930 . S
H1004 C991 0.931 . S
H1005 C992 0.929 . S
H1006 C1000 0.929 . S
H1007 C1001 0.930 . S
Mn1008 O1013 2.095 . S
Mn1008 O1023 2.162 . S
Mn1008 O1024 2.297 . S
Mn1008 O1032 2.385 . S
Mn1008 O1033 2.209 . S
Mn1008 O1034 2.094 . S
Mn1009 O1014 2.121 . S
Mn1009 N1016 2.257 . S
Mn1009 N1025 2.282 . S
Mn1009 O1033 2.215 . S
Mn1009 O1035 2.117 . S
C1010 O1032 1.234 . S
C1010 O1033 1.283 . S
C1011 O1023 1.281 . S
C1011 O1024 1.236 . S
C1012 O1034 1.240 . S
C1012 O1035 1.264 . S
O1013 Mn1008 2.095 . S
O1013 C1022 1.250 . S
O1014 Mn1009 2.121 . S
O1014 C1022 1.258 . S
C1015 N1016 1.326 . S
C1015 C1019 1.460 . S
C1015 H1021 0.929 . S
N1016 Mn1009 2.257 . S
N1016 C1015 1.326 . S
N1016 C1020 1.362 . S
C1017 C1018 1.258 . S
C1017 C1020 1.431 . S
C1017 C1037 1.449 1_455 S
C1018 C1017 1.258 . S
C1018 C1019 1.477 . S
C1018 H1038 0.931 . S
C1019 C1015 1.460 . S
C1019 C1018 1.477 . S
C1019 H1039 0.930 . S
C1020 N1016 1.362 . S
C1020 C1017 1.431 . S
C1020 C1030 1.476 . S
H1021 C1015 0.929 . S
C1022 O1013 1.250 . S
C1022 O1014 1.258 . S
O1023 Mn1008 2.162 . S
O1023 C1011 1.281 . S
O1024 Mn1008 2.297 . S
O1024 C1011 1.236 . S
N1025 Mn1009 2.282 . S
N1025 C1026 1.328 . S
N1025 C1030 1.318 . S
C1026 N1025 1.328 . S
C1026 C1027 1.457 . S
C1026 H1031 0.929 . S
C1027 C1026 1.457 . S
C1027 C1028 1.291 1_455 S
C1027 H1040 0.931 . S
C1028 C1027 1.291 1_655 S
C1028 C1029 1.367 1_655 S
C1028 H1041 0.929 . S
C1029 C1028 1.367 1_455 S
C1029 C1030 1.412 . S
C1029 C1036 1.393 1_455 S
C1030 C1020 1.476 . S
C1030 N1025 1.318 . S
C1030 C1029 1.412 . S
H1031 C1026 0.929 . S
O1032 Mn1008 2.385 . S
O1032 C1010 1.234 . S
O1033 Mn1008 2.209 . S
O1033 Mn1009 2.215 . S
O1033 C1010 1.283 . S
O1034 Mn1008 2.094 . S
O1034 C1012 1.240 . S
O1035 Mn1009 2.117 . S
O1035 C1012 1.264 . S
C1036 C1029 1.393 1_655 S
C1036 C1037 1.399 . S
C1036 H1042 0.929 . S
C1037 C1017 1.449 1_655 S
C1037 C1036 1.399 . S
C1037 H1043 0.930 . S
H1038 C1018 0.931 . S
H1039 C1019 0.930 . S
H1040 C1027 0.931 . S
H1041 C1028 0.929 . S
H1042 C1036 0.929 . S
H1043 C1037 0.930 . S
Mn1044 O1049 2.095 . S
Mn1044 O1059 2.162 . S
Mn1044 O1060 2.297 . S
Mn1044 O1068 2.385 . S
Mn1044 O1069 2.209 . S
Mn1044 O1070 2.094 . S
Mn1045 O1050 2.121 . S
Mn1045 N1052 2.257 . S
Mn1045 N1061 2.282 . S
Mn1045 O1069 2.215 . S
Mn1045 O1071 2.117 . S
C1046 O1068 1.234 . S
C1046 O1069 1.283 . S
C1047 O1059 1.281 . S
C1047 O1060 1.236 . S
C1048 O1070 1.240 . S
C1048 O1071 1.264 . S
O1049 Mn1044 2.095 . S
O1049 C1058 1.250 . S
O1050 Mn1045 2.121 . S
O1050 C1058 1.258 . S
C1051 N1052 1.326 . S
C1051 C1055 1.460 . S
C1051 H1057 0.929 . S
N1052 Mn1045 2.257 . S
N1052 C1051 1.326 . S
N1052 C1056 1.362 . S
C1053 C1054 1.258 . S
C1053 C1056 1.431 . S
C1053 C1073 1.449 . S
C1054 C1053 1.258 . S
C1054 C1055 1.477 . S
C1054 H1074 0.931 . S
C1055 C1051 1.460 . S
C1055 C1054 1.477 . S
C1055 H1075 0.930 . S
C1056 N1052 1.362 . S
C1056 C1053 1.431 . S
C1056 C1066 1.476 . S
H1057 C1051 0.929 . S
C1058 O1049 1.250 . S
C1058 O1050 1.258 . S
O1059 Mn1044 2.162 . S
O1059 C1047 1.281 . S
O1060 Mn1044 2.297 . S
O1060 C1047 1.236 . S
N1061 Mn1045 2.282 . S
N1061 C1062 1.328 . S
N1061 C1066 1.318 . S
C1062 N1061 1.328 . S
C1062 C1063 1.457 . S
C1062 H1067 0.929 . S
C1063 C1062 1.457 . S
C1063 C1064 1.291 . S
C1063 H1076 0.931 . S
C1064 C1063 1.291 . S
C1064 C1065 1.373 . S
C1064 H1077 0.929 . S
C1065 C1064 1.373 . S
C1065 C1066 1.396 . S
C1065 C1072 1.403 . S
C1066 C1056 1.476 . S
C1066 N1061 1.318 . S
C1066 C1065 1.396 . S
H1067 C1062 0.929 . S
O1068 Mn1044 2.385 . S
O1068 C1046 1.234 . S
O1069 Mn1044 2.209 . S
O1069 Mn1045 2.215 . S
O1069 C1046 1.283 . S
O1070 Mn1044 2.094 . S
O1070 C1048 1.240 . S
O1071 Mn1045 2.117 . S
O1071 C1048 1.264 . S
C1072 C1065 1.403 . S
C1072 C1073 1.399 . S
C1072 H1078 0.929 . S
C1073 C1053 1.449 . S
C1073 C1072 1.399 . S
C1073 H1079 0.930 . S
H1074 C1054 0.931 . S
H1075 C1055 0.930 . S
H1076 C1063 0.931 . S
H1077 C1064 0.929 . S
H1078 C1072 0.929 . S
H1079 C1073 0.930 . S
Mn1080 O1085 2.095 . S
Mn1080 O1095 2.162 . S
Mn1080 O1096 2.297 . S
Mn1080 O1104 2.385 . S
Mn1080 O1105 2.209 . S
Mn1080 O1106 2.094 . S
Mn1081 O1086 2.121 . S
Mn1081 N1088 2.257 . S
Mn1081 N1097 2.282 . S
Mn1081 O1105 2.215 . S
Mn1081 O1107 2.117 . S
C1082 O1104 1.234 . S
C1082 O1105 1.283 . S
C1083 O1095 1.281 . S
C1083 O1096 1.236 . S
C1084 O1106 1.240 . S
C1084 O1107 1.264 . S
O1085 Mn1080 2.095 . S
O1085 C1094 1.250 . S
O1086 Mn1081 2.121 . S
O1086 C1094 1.258 . S
C1087 N1088 1.326 . S
C1087 C1091 1.460 . S
C1087 H1093 0.929 . S
N1088 Mn1081 2.257 . S
N1088 C1087 1.326 . S
N1088 C1092 1.362 . S
C1089 C1090 1.258 . S
C1089 C1092 1.431 . S
C1089 C1109 1.449 . S
C1090 C1089 1.258 . S
C1090 C1091 1.477 . S
C1090 H1110 0.931 . S
C1091 C1087 1.460 . S
C1091 C1090 1.477 . S
C1091 H1111 0.930 . S
C1092 N1088 1.362 . S
C1092 C1089 1.431 . S
C1092 C1102 1.476 . S
H1093 C1087 0.929 . S
C1094 O1085 1.250 . S
C1094 O1086 1.258 . S
O1095 Mn1080 2.162 . S
O1095 C1083 1.281 . S
O1096 Mn1080 2.297 . S
O1096 C1083 1.236 . S
N1097 Mn1081 2.282 . S
N1097 C1098 1.328 . S
N1097 C1102 1.318 . S
C1098 N1097 1.328 . S
C1098 C1099 1.457 . S
C1098 H1103 0.929 . S
C1099 C1098 1.457 . S
C1099 C1100 1.291 . S
C1099 H1112 0.931 . S
C1100 C1099 1.291 . S
C1100 C1101 1.373 . S
C1100 H1113 0.929 . S
C1101 C1100 1.373 . S
C1101 C1102 1.396 . S
C1101 C1108 1.403 . S
C1102 C1092 1.476 . S
C1102 N1097 1.318 . S
C1102 C1101 1.396 . S
H1103 C1098 0.929 . S
O1104 Mn1080 2.385 . S
O1104 C1082 1.234 . S
O1105 Mn1080 2.209 . S
O1105 Mn1081 2.215 . S
O1105 C1082 1.283 . S
O1106 Mn1080 2.094 . S
O1106 C1084 1.240 . S
O1107 Mn1081 2.117 . S
O1107 C1084 1.264 . S
C1108 C1101 1.403 . S
C1108 C1109 1.399 . S
C1108 H1114 0.929 . S
C1109 C1089 1.449 . S
C1109 C1108 1.399 . S
C1109 H1115 0.930 . S
H1110 C1090 0.931 . S
H1111 C1091 0.930 . S
H1112 C1099 0.931 . S
H1113 C1100 0.929 . S
H1114 C1108 0.929 . S
H1115 C1109 0.930 . S
Mn1116 O1121 2.095 . S
Mn1116 O1131 2.162 . S
Mn1116 O1132 2.297 . S
Mn1116 O1140 2.385 . S
Mn1116 O1141 2.209 . S
Mn1116 O1142 2.094 . S
Mn1117 O1122 2.121 . S
Mn1117 N1124 2.257 . S
Mn1117 N1133 2.282 . S
Mn1117 O1141 2.215 . S
Mn1117 O1143 2.117 . S
C1118 O1140 1.234 . S
C1118 O1141 1.283 . S
C1119 O1131 1.281 . S
C1119 O1132 1.236 . S
C1120 O1142 1.240 . S
C1120 O1143 1.264 . S
O1121 Mn1116 2.095 . S
O1121 C1130 1.250 . S
O1122 Mn1117 2.121 . S
O1122 C1130 1.258 . S
C1123 N1124 1.326 . S
C1123 C1127 1.460 . S
C1123 H1129 0.929 . S
N1124 Mn1117 2.257 . S
N1124 C1123 1.326 . S
N1124 C1128 1.362 . S
C1125 C1126 1.258 . S
C1125 C1128 1.431 . S
C1125 C1145 1.449 . S
C1126 C1125 1.258 . S
C1126 C1127 1.477 . S
C1126 H1146 0.931 . S
C1127 C1123 1.460 . S
C1127 C1126 1.477 . S
C1127 H1147 0.930 . S
C1128 N1124 1.362 . S
C1128 C1125 1.431 . S
C1128 C1138 1.476 . S
H1129 C1123 0.929 . S
C1130 O1121 1.250 . S
C1130 O1122 1.258 . S
O1131 Mn1116 2.162 . S
O1131 C1119 1.281 . S
O1132 Mn1116 2.297 . S
O1132 C1119 1.236 . S
N1133 Mn1117 2.282 . S
N1133 C1134 1.328 . S
N1133 C1138 1.318 . S
C1134 N1133 1.328 . S
C1134 C1135 1.457 . S
C1134 H1139 0.929 . S
C1135 C1134 1.457 . S
C1135 C1136 1.291 . S
C1135 H1148 0.931 . S
C1136 C1135 1.291 . S
C1136 C1137 1.373 . S
C1136 H1149 0.929 . S
C1137 C1136 1.373 . S
C1137 C1138 1.396 . S
C1137 C1144 1.403 . S
C1138 C1128 1.476 . S
C1138 N1133 1.318 . S
C1138 C1137 1.396 . S
H1139 C1134 0.929 . S
O1140 Mn1116 2.385 . S
O1140 C1118 1.234 . S
O1141 Mn1116 2.209 . S
O1141 Mn1117 2.215 . S
O1141 C1118 1.283 . S
O1142 Mn1116 2.094 . S
O1142 C1120 1.240 . S
O1143 Mn1117 2.117 . S
O1143 C1120 1.264 . S
C1144 C1137 1.403 . S
C1144 C1145 1.399 . S
C1144 H1150 0.929 . S
C1145 C1125 1.449 . S
C1145 C1144 1.399 . S
C1145 H1151 0.930 . S
H1146 C1126 0.931 . S
H1147 C1127 0.930 . S
H1148 C1135 0.931 . S
H1149 C1136 0.929 . S
H1150 C1144 0.929 . S
H1151 C1145 0.930 . S
C1152 C1153 1.349 . S
C1152 C1154 1.327 . S
C1152 H1177 0.950 . S
C1153 C1152 1.349 . S
C1153 C1169 1.349 . S
C1154 C1152 1.327 . S
C1154 C1173 1.429 . S
C1154 H1178 0.950 . S
C1155 C1172 1.574 . S
C1155 C1174 1.368 1_545 S
C1155 H1179 0.949 . S
H1156 C1160 0.949 . S
C1157 C1158 1.349 . S
C1157 C1159 1.327 . S
C1157 H1180 0.950 . S
C1158 C1157 1.349 . S
C1158 C1170 1.349 . S
C1159 C1157 1.327 . S
C1159 C1175 1.429 . S
C1159 H1181 0.950 . S
C1160 H1156 0.949 . S
C1160 C1168 1.574 . S
C1160 C1176 1.368 1_565 S
H1161 C1169 0.950 . S
H1162 C1167 0.950 1_545 S
H1163 C1168 0.949 . S
H1164 C1170 0.950 . S
H1165 C1171 0.950 1_565 S
H1166 C1172 0.949 . S
C1167 H1162 0.950 1_565 S
C1167 C1169 1.327 . S
C1167 C1173 1.429 . S
C1168 C1160 1.574 . S
C1168 H1163 0.949 . S
C1168 C1174 1.368 . S
C1169 C1153 1.349 . S
C1169 H1161 0.950 . S
C1169 C1167 1.327 . S
C1170 C1158 1.349 . S
C1170 H1164 0.950 . S
C1170 C1171 1.327 . S
C1171 H1165 0.950 1_545 S
C1171 C1170 1.327 . S
C1171 C1175 1.429 . S
C1172 C1155 1.574 . S
C1172 H1166 0.949 . S
C1172 C1176 1.368 . S
C1173 C1154 1.429 . S
C1173 C1167 1.429 . S
C1173 C1174 1.523 . S
C1174 C1155 1.368 1_565 S
C1174 C1168 1.368 . S
C1174 C1173 1.523 . S
C1175 C1159 1.429 . S
C1175 C1171 1.429 . S
C1175 C1176 1.523 . S
C1176 C1160 1.368 1_545 S
C1176 C1172 1.368 . S
C1176 C1175 1.523 . S
H1177 C1152 0.950 . S
H1178 C1154 0.950 . S
H1179 C1155 0.949 . S
H1180 C1157 0.950 . S
H1181 C1159 0.950 . S
C1182 C1183 1.349 . S
C1182 C1184 1.327 . S
C1182 H1207 0.950 . S
C1183 C1182 1.349 . S
C1183 C1199 1.349 . S
C1184 C1182 1.327 . S
C1184 C1203 1.429 . S
C1184 H1208 0.950 . S
C1185 C1202 1.574 . S
C1185 C1204 1.368 . S
C1185 H1209 0.949 . S
H1186 C1190 0.949 . S
C1187 C1188 1.349 . S
C1187 C1189 1.327 . S
C1187 H1210 0.950 . S
C1188 C1187 1.349 . S
C1188 C1200 1.349 . S
C1189 C1187 1.327 . S
C1189 C1205 1.429 . S
C1189 H1211 0.950 . S
C1190 H1186 0.949 . S
C1190 C1198 1.574 . S
C1190 C1206 1.368 . S
H1191 C1199 0.950 . S
H1192 C1197 0.950 . S
H1193 C1198 0.949 . S
H1194 C1200 0.950 . S
H1195 C1201 0.950 . S
H1196 C1202 0.949 . S
C1197 H1192 0.950 . S
C1197 C1199 1.327 . S
C1197 C1203 1.429 . S
C1198 C1190 1.574 . S
C1198 H1193 0.949 . S
C1198 C1204 1.368 . S
C1199 C1183 1.349 . S
C1199 H1191 0.950 . S
C1199 C1197 1.327 . S
C1200 C1188 1.349 . S
C1200 H1194 0.950 . S
C1200 C1201 1.327 . S
C1201 H1195 0.950 . S
C1201 C1200 1.327 . S
C1201 C1205 1.429 . S
C1202 C1185 1.574 . S
C1202 H1196 0.949 . S
C1202 C1206 1.368 . S
C1203 C1184 1.429 . S
C1203 C1197 1.429 . S
C1203 C1204 1.523 . S
C1204 C1185 1.368 . S
C1204 C1198 1.368 . S
C1204 C1203 1.523 . S
C1205 C1189 1.429 . S
C1205 C1201 1.429 . S
C1205 C1206 1.523 . S
C1206 C1190 1.368 . S
C1206 C1202 1.368 . S
C1206 C1205 1.523 . S
H1207 C1182 0.950 . S
H1208 C1184 0.950 . S
H1209 C1185 0.949 . S
H1210 C1187 0.950 . S
H1211 C1189 0.950 . S
C1212 C1213 1.349 . S
C1212 C1214 1.327 . S
C1212 H1237 0.950 . S
C1213 C1212 1.349 . S
C1213 C1229 1.349 . S
C1214 C1212 1.327 . S
C1214 C1233 1.429 . S
C1214 H1238 0.950 . S
C1215 C1232 1.574 . S
C1215 C1234 1.368 1_565 S
C1215 H1239 0.949 . S
H1216 C1220 0.949 . S
C1217 C1218 1.349 . S
C1217 C1219 1.327 . S
C1217 H1240 0.950 . S
C1218 C1217 1.349 . S
C1218 C1230 1.349 . S
C1219 C1217 1.327 . S
C1219 C1235 1.429 . S
C1219 H1241 0.950 . S
C1220 H1216 0.949 . S
C1220 C1228 1.574 . S
C1220 C1236 1.368 1_545 S
H1221 C1229 0.950 . S
H1222 C1227 0.929 1_565 S
H1223 C1228 0.949 . S
H1224 C1230 0.950 . S
H1225 C1231 0.929 1_545 S
H1226 C1232 0.949 . S
C1227 H1222 0.929 1_545 S
C1227 C1229 1.327 . S
C1227 C1233 1.429 . S
C1228 C1220 1.574 . S
C1228 H1223 0.949 . S
C1228 C1234 1.368 . S
C1229 C1213 1.349 . S
C1229 H1221 0.950 . S
C1229 C1227 1.327 . S
C1230 C1218 1.349 . S
C1230 H1224 0.950 . S
C1230 C1231 1.327 . S
C1231 H1225 0.929 1_565 S
C1231 C1230 1.327 . S
C1231 C1235 1.429 . S
C1232 C1215 1.574 . S
C1232 H1226 0.949 . S
C1232 C1236 1.368 . S
C1233 C1214 1.429 . S
C1233 C1227 1.429 . S
C1233 C1234 1.523 . S
C1234 C1215 1.368 1_545 S
C1234 C1228 1.368 . S
C1234 C1233 1.523 . S
C1235 C1219 1.429 . S
C1235 C1231 1.429 . S
C1235 C1236 1.523 . S
C1236 C1220 1.368 1_565 S
C1236 C1232 1.368 . S
C1236 C1235 1.523 . S
H1237 C1212 0.950 . S
H1238 C1214 0.950 . S
H1239 C1215 0.949 . S
H1240 C1217 0.950 . S
H1241 C1219 0.950 . S
C1242 C1243 1.349 . S
C1242 C1244 1.327 . S
C1242 H1267 0.950 . S
C1243 C1242 1.349 . S
C1243 C1259 1.349 . S
C1244 C1242 1.327 . S
C1244 C1263 1.429 . S
C1244 H1268 0.950 . S
C1245 C1262 1.574 1_556 S
C1245 C1264 1.368 . S
C1245 H1269 0.949 . S
H1246 C1250 0.949 . S
C1247 C1248 1.349 . S
C1247 C1249 1.327 . S
C1247 H1270 0.950 . S
C1248 C1247 1.349 . S
C1248 C1260 1.349 . S
C1249 C1247 1.327 . S
C1249 C1265 1.429 . S
C1249 H1271 0.950 . S
C1250 H1246 0.949 . S
C1250 C1258 1.574 1_554 S
C1250 C1266 1.368 . S
H1251 C1259 0.950 . S
H1252 C1257 0.950 . S
H1253 C1258 0.949 . S
H1254 C1260 0.950 . S
H1255 C1261 0.950 . S
H1256 C1262 0.949 . S
C1257 H1252 0.950 . S
C1257 C1259 1.327 . S
C1257 C1263 1.429 . S
C1258 C1250 1.574 1_556 S
C1258 H1253 0.949 . S
C1258 C1264 1.368 . S
C1259 C1243 1.349 . S
C1259 H1251 0.950 . S
C1259 C1257 1.327 . S
C1260 C1248 1.349 . S
C1260 H1254 0.950 . S
C1260 C1261 1.327 . S
C1261 H1255 0.950 . S
C1261 C1260 1.327 . S
C1261 C1265 1.429 . S
C1262 C1245 1.574 1_554 S
C1262 H1256 0.949 . S
C1262 C1266 1.368 . S
C1263 C1244 1.429 . S
C1263 C1257 1.429 . S
C1263 C1264 1.523 . S
C1264 C1245 1.368 . S
C1264 C1258 1.368 . S
C1264 C1263 1.523 . S
C1265 C1249 1.429 . S
C1265 C1261 1.429 . S
C1265 C1266 1.523 . S
C1266 C1250 1.368 . S
C1266 C1262 1.368 . S
C1266 C1265 1.523 . S
H1267 C1242 0.950 . S
H1268 C1244 0.950 . S
H1269 C1245 0.949 . S
H1270 C1247 0.950 . S
H1271 C1249 0.950 . S
C1272 C1273 1.349 . S
C1272 C1274 1.327 . S
C1272 H1297 0.950 . S
C1273 C1272 1.349 . S
C1273 C1289 1.349 . S
C1274 C1272 1.327 . S
C1274 C1293 1.429 . S
C1274 H1298 0.950 . S
C1275 C1292 1.574 . S
C1275 C1294 1.368 1_545 S
C1275 H1299 0.949 . S
H1276 C1280 0.949 . S
C1277 C1278 1.349 . S
C1277 C1279 1.327 . S
C1277 H1300 0.950 . S
C1278 C1277 1.349 . S
C1278 C1290 1.349 . S
C1279 C1277 1.327 . S
C1279 C1295 1.429 . S
C1279 H1301 0.950 . S
C1280 H1276 0.949 . S
C1280 C1288 1.574 . S
C1280 C1296 1.368 1_565 S
H1281 C1289 0.950 . S
H1282 C1287 0.950 . S
H1283 C1288 0.949 . S
H1284 C1290 0.950 . S
H1285 C1291 0.950 . S
H1286 C1292 0.949 . S
C1287 H1282 0.950 . S
C1287 C1289 1.327 . S
C1287 C1293 1.429 . S
C1288 C1280 1.574 . S
C1288 H1283 0.949 . S
C1288 C1294 1.368 . S
C1289 C1273 1.349 . S
C1289 H1281 0.950 . S
C1289 C1287 1.327 . S
C1290 C1278 1.349 . S
C1290 H1284 0.950 . S
C1290 C1291 1.327 . S
C1291 H1285 0.950 . S
C1291 C1290 1.327 . S
C1291 C1295 1.429 . S
C1292 C1275 1.574 . S
C1292 H1286 0.949 . S
C1292 C1296 1.368 . S
C1293 C1274 1.429 . S
C1293 C1287 1.429 . S
C1293 C1294 1.523 . S
C1294 C1275 1.368 1_565 S
C1294 C1288 1.368 . S
C1294 C1293 1.523 . S
C1295 C1279 1.429 . S
C1295 C1291 1.429 . S
C1295 C1296 1.523 . S
C1296 C1280 1.368 1_545 S
C1296 C1292 1.368 . S
C1296 C1295 1.523 . S
H1297 C1272 0.950 . S
H1298 C1274 0.950 . S
H1299 C1275 0.949 . S
H1300 C1277 0.950 . S
H1301 C1279 0.950 . S
C1302 C1303 1.349 . S
C1302 C1304 1.327 . S
C1302 H1327 0.950 . S
C1303 C1302 1.349 . S
C1303 C1319 1.349 . S
C1304 C1302 1.327 . S
C1304 C1323 1.429 . S
C1304 H1328 0.950 . S
C1305 C1322 1.574 . S
C1305 C1324 1.368 . S
C1305 H1329 0.949 . S
H1306 C1310 0.949 . S
C1307 C1308 1.349 . S
C1307 C1309 1.327 . S
C1307 H1330 0.950 . S
C1308 C1307 1.349 . S
C1308 C1320 1.349 . S
C1309 C1307 1.327 . S
C1309 C1325 1.429 . S
C1309 H1331 0.950 . S
C1310 H1306 0.949 . S
C1310 C1318 1.574 . S
C1310 C1326 1.368 . S
H1311 C1319 0.950 . S
H1312 C1317 0.950 . S
H1313 C1318 0.949 . S
H1314 C1320 0.950 . S
H1315 C1321 0.950 . S
H1316 C1322 0.949 . S
C1317 H1312 0.950 . S
C1317 C1319 1.327 . S
C1317 C1323 1.429 . S
C1318 C1310 1.574 . S
C1318 H1313 0.949 . S
C1318 C1324 1.368 . S
C1319 C1303 1.349 . S
C1319 H1311 0.950 . S
C1319 C1317 1.327 . S
C1320 C1308 1.349 . S
C1320 H1314 0.950 . S
C1320 C1321 1.327 . S
C1321 H1315 0.950 . S
C1321 C1320 1.327 . S
C1321 C1325 1.429 . S
C1322 C1305 1.574 . S
C1322 H1316 0.949 . S
C1322 C1326 1.368 . S
C1323 C1304 1.429 . S
C1323 C1317 1.429 . S
C1323 C1324 1.523 . S
C1324 C1305 1.368 . S
C1324 C1318 1.368 . S
C1324 C1323 1.523 . S
C1325 C1309 1.429 . S
C1325 C1321 1.429 . S
C1325 C1326 1.523 . S
C1326 C1310 1.368 . S
C1326 C1322 1.368 . S
C1326 C1325 1.523 . S
H1327 C1302 0.950 . S
H1328 C1304 0.950 . S
H1329 C1305 0.949 . S
H1330 C1307 0.950 . S
H1331 C1309 0.950 . S
C1332 C1333 1.349 . S
C1332 C1334 1.327 . S
C1332 H1357 0.950 . S
C1333 C1332 1.349 . S
C1333 C1349 1.349 . S
C1334 C1332 1.327 . S
C1334 C1353 1.429 . S
C1334 H1358 0.950 1_545 S
C1335 C1352 1.574 . S
C1335 C1354 1.368 . S
C1335 H1359 0.949 . S
H1336 C1340 0.949 . S
C1337 C1338 1.349 . S
C1337 C1339 1.327 . S
C1337 H1360 0.950 . S
C1338 C1337 1.349 . S
C1338 C1350 1.349 . S
C1339 C1337 1.327 . S
C1339 C1355 1.429 . S
C1339 H1361 0.950 1_565 S
C1340 H1336 0.949 . S
C1340 C1348 1.574 . S
C1340 C1356 1.368 . S
H1341 C1349 0.950 . S
H1342 C1347 0.950 . S
H1343 C1348 0.949 . S
H1344 C1350 0.950 . S
H1345 C1351 0.950 . S
H1346 C1352 0.949 . S
C1347 H1342 0.950 . S
C1347 C1349 1.327 . S
C1347 C1353 1.429 . S
C1348 C1340 1.574 . S
C1348 H1343 0.949 . S
C1348 C1354 1.368 1_565 S
C1349 C1333 1.349 . S
C1349 H1341 0.950 . S
C1349 C1347 1.327 . S
C1350 C1338 1.349 . S
C1350 H1344 0.950 . S
C1350 C1351 1.327 . S
C1351 H1345 0.950 . S
C1351 C1350 1.327 . S
C1351 C1355 1.429 . S
C1352 C1335 1.574 . S
C1352 H1346 0.949 . S
C1352 C1356 1.368 1_545 S
C1353 C1334 1.429 . S
C1353 C1347 1.429 . S
C1353 C1354 1.523 . S
C1354 C1335 1.368 . S
C1354 C1348 1.368 1_545 S
C1354 C1353 1.523 . S
C1355 C1339 1.429 . S
C1355 C1351 1.429 . S
C1355 C1356 1.523 . S
C1356 C1340 1.368 . S
C1356 C1352 1.368 1_565 S
C1356 C1355 1.523 . S
H1357 C1332 0.950 . S
H1358 C1334 0.950 1_565 S
H1359 C1335 0.949 . S
H1360 C1337 0.950 . S
H1361 C1339 0.950 1_545 S
C1362 C1363 1.349 . S
C1362 C1364 1.327 . S
C1362 H1387 0.950 . S
C1363 C1362 1.349 . S
C1363 C1379 1.349 . S
C1364 C1362 1.327 . S
C1364 C1383 1.429 . S
C1364 H1388 0.950 . S
C1365 C1382 1.574 1_556 S
C1365 C1384 1.368 . S
C1365 H1389 0.949 . S
H1366 C1370 0.949 . S
C1367 C1368 1.349 . S
C1367 C1369 1.327 . S
C1367 H1390 0.950 . S
C1368 C1367 1.349 . S
C1368 C1380 1.349 . S
C1369 C1367 1.327 . S
C1369 C1385 1.429 . S
C1369 H1391 0.950 . S
C1370 H1366 0.949 . S
C1370 C1378 1.574 1_554 S
C1370 C1386 1.368 . S
H1371 C1379 0.950 . S
H1372 C1377 0.950 . S
H1373 C1378 0.949 . S
H1374 C1380 0.950 . S
H1375 C1381 0.950 . S
H1376 C1382 0.949 . S
C1377 H1372 0.950 . S
C1377 C1379 1.327 . S
C1377 C1383 1.429 . S
C1378 C1370 1.574 1_556 S
C1378 H1373 0.949 . S
C1378 C1384 1.368 . S
C1379 C1363 1.349 . S
C1379 H1371 0.950 . S
C1379 C1377 1.327 . S
C1380 C1368 1.349 . S
C1380 H1374 0.950 . S
C1380 C1381 1.327 . S
C1381 H1375 0.950 . S
C1381 C1380 1.327 . S
C1381 C1385 1.429 . S
C1382 C1365 1.574 1_554 S
C1382 H1376 0.949 . S
C1382 C1386 1.368 . S
C1383 C1364 1.429 . S
C1383 C1377 1.429 . S
C1383 C1384 1.523 . S
C1384 C1365 1.368 . S
C1384 C1378 1.368 . S
C1384 C1383 1.523 . S
C1385 C1369 1.429 . S
C1385 C1381 1.429 . S
C1385 C1386 1.523 . S
C1386 C1370 1.368 . S
C1386 C1382 1.368 . S
C1386 C1385 1.523 . S
H1387 C1362 0.950 . S
H1388 C1364 0.950 . S
H1389 C1365 0.949 . S
H1390 C1367 0.950 . S
H1391 C1369 0.950 . S
C1392 C1393 1.349 . S
C1392 C1394 1.327 . S
C1392 H1417 0.950 . S
C1393 C1392 1.349 . S
C1393 C1409 1.349 . S
C1394 C1392 1.327 . S
C1394 C1413 1.429 . S
C1394 H1418 0.950 . S
C1395 C1412 1.574 . S
C1395 C1414 1.368 . S
C1395 H1419 0.949 . S
H1396 C1400 0.949 . S
C1397 C1398 1.349 . S
C1397 C1399 1.327 . S
C1397 H1420 0.950 . S
C1398 C1397 1.349 . S
C1398 C1410 1.349 . S
C1399 C1397 1.327 . S
C1399 C1415 1.429 . S
C1399 H1421 0.950 . S
C1400 H1396 0.949 . S
C1400 C1408 1.574 . S
C1400 C1416 1.368 . S
H1401 C1409 0.950 . S
H1402 C1407 0.950 . S
H1403 C1408 0.949 . S
H1404 C1410 0.950 . S
H1405 C1411 0.950 . S
H1406 C1412 0.949 . S
C1407 H1402 0.950 . S
C1407 C1409 1.327 . S
C1407 C1413 1.429 . S
C1408 C1400 1.574 . S
C1408 H1403 0.949 . S
C1408 C1414 1.368 . S
C1409 C1393 1.349 . S
C1409 H1401 0.950 . S
C1409 C1407 1.327 . S
C1410 C1398 1.349 . S
C1410 H1404 0.950 . S
C1410 C1411 1.327 . S
C1411 H1405 0.950 . S
C1411 C1410 1.327 . S
C1411 C1415 1.429 . S
C1412 C1395 1.574 . S
C1412 H1406 0.949 . S
C1412 C1416 1.368 . S
C1413 C1394 1.429 . S
C1413 C1407 1.429 . S
C1413 C1414 1.523 . S
C1414 C1395 1.368 . S
C1414 C1408 1.368 . S
C1414 C1413 1.523 . S
C1415 C1399 1.429 . S
C1415 C1411 1.429 . S
C1415 C1416 1.523 . S
C1416 C1400 1.368 . S
C1416 C1412 1.368 . S
C1416 C1415 1.523 . S
H1417 C1392 0.950 . S
H1418 C1394 0.950 . S
H1419 C1395 0.949 . S
H1420 C1397 0.950 . S
H1421 C1399 0.950 . S
C1422 C1423 1.349 . S
C1422 C1424 1.327 . S
C1422 H1447 0.950 . S
C1423 C1422 1.349 . S
C1423 C1439 1.349 . S
C1424 C1422 1.327 . S
C1424 C1443 1.429 . S
C1424 H1448 0.950 . S
C1425 C1442 1.574 1_554 S
C1425 C1444 1.368 . S
C1425 H1449 0.949 . S
H1426 C1430 0.949 . S
C1427 C1428 1.349 . S
C1427 C1429 1.327 . S
C1427 H1450 0.950 . S
C1428 C1427 1.349 . S
C1428 C1440 1.349 . S
C1429 C1427 1.327 . S
C1429 C1445 1.429 . S
C1429 H1451 0.950 . S
C1430 H1426 0.949 . S
C1430 C1438 1.574 1_556 S
C1430 C1446 1.368 . S
H1431 C1439 0.950 . S
H1432 C1437 0.950 . S
H1433 C1438 0.949 . S
H1434 C1440 0.950 . S
H1435 C1441 0.950 . S
H1436 C1442 0.949 . S
C1437 H1432 0.950 . S
C1437 C1439 1.327 . S
C1437 C1443 1.429 . S
C1438 C1430 1.574 1_554 S
C1438 H1433 0.949 . S
C1438 C1444 1.368 . S
C1439 C1423 1.349 . S
C1439 H1431 0.950 . S
C1439 C1437 1.327 . S
C1440 C1428 1.349 . S
C1440 H1434 0.950 . S
C1440 C1441 1.327 . S
C1441 H1435 0.950 . S
C1441 C1440 1.327 . S
C1441 C1445 1.429 . S
C1442 C1425 1.574 1_556 S
C1442 H1436 0.949 . S
C1442 C1446 1.368 . S
C1443 C1424 1.429 . S
C1443 C1437 1.429 . S
C1443 C1444 1.523 . S
C1444 C1425 1.368 . S
C1444 C1438 1.368 . S
C1444 C1443 1.523 . S
C1445 C1429 1.429 . S
C1445 C1441 1.429 . S
C1445 C1446 1.523 . S
C1446 C1430 1.368 . S
C1446 C1442 1.368 . S
C1446 C1445 1.523 . S
H1447 C1422 0.950 . S
H1448 C1424 0.950 . S
H1449 C1425 0.949 . S
H1450 C1427 0.950 . S
H1451 C1429 0.950 . S
C1452 C1453 1.349 . S
C1452 C1454 1.327 . S
C1452 H1477 0.950 . S
C1453 C1452 1.349 . S
C1453 C1469 1.349 . S
C1454 C1452 1.327 . S
C1454 C1473 1.429 . S
C1454 H1478 0.950 . S
C1455 C1472 1.574 . S
C1455 C1474 1.368 . S
C1455 H1479 0.949 . S
H1456 C1460 0.949 . S
C1457 C1458 1.349 . S
C1457 C1459 1.327 . S
C1457 H1480 0.950 . S
C1458 C1457 1.349 . S
C1458 C1470 1.349 . S
C1459 C1457 1.327 . S
C1459 C1475 1.429 . S
C1459 H1481 0.950 . S
C1460 H1456 0.949 . S
C1460 C1468 1.574 . S
C1460 C1476 1.368 . S
H1461 C1469 0.950 . S
H1462 C1467 0.950 . S
H1463 C1468 0.949 . S
H1464 C1470 0.950 . S
H1465 C1471 0.950 . S
H1466 C1472 0.949 . S
C1467 H1462 0.950 . S
C1467 C1469 1.327 . S
C1467 C1473 1.429 . S
C1468 C1460 1.574 . S
C1468 H1463 0.949 . S
C1468 C1474 1.368 . S
C1469 C1453 1.349 . S
C1469 H1461 0.950 . S
C1469 C1467 1.327 . S
C1470 C1458 1.349 . S
C1470 H1464 0.950 . S
C1470 C1471 1.327 . S
C1471 H1465 0.950 . S
C1471 C1470 1.327 . S
C1471 C1475 1.429 . S
C1472 C1455 1.574 . S
C1472 H1466 0.949 . S
C1472 C1476 1.368 . S
C1473 C1454 1.429 . S
C1473 C1467 1.429 . S
C1473 C1474 1.523 . S
C1474 C1455 1.368 . S
C1474 C1468 1.368 . S
C1474 C1473 1.523 . S
C1475 C1459 1.429 . S
C1475 C1471 1.429 . S
C1475 C1476 1.523 . S
C1476 C1460 1.368 . S
C1476 C1472 1.368 . S
C1476 C1475 1.523 . S
H1477 C1452 0.950 . S
H1478 C1454 0.950 . S
H1479 C1455 0.949 . S
H1480 C1457 0.950 . S
H1481 C1459 0.950 . S
C1482 C1483 1.349 . S
C1482 C1484 1.327 . S
C1482 H1507 0.950 . S
C1483 C1482 1.349 . S
C1483 C1499 1.349 . S
C1484 C1482 1.327 . S
C1484 C1503 1.429 . S
C1484 H1508 0.950 . S
C1485 C1502 1.574 . S
C1485 C1504 1.368 . S
C1485 H1509 0.949 . S
H1486 C1490 0.949 . S
C1487 C1488 1.349 . S
C1487 C1489 1.327 . S
C1487 H1510 0.950 . S
C1488 C1487 1.349 . S
C1488 C1500 1.349 . S
C1489 C1487 1.327 . S
C1489 C1505 1.429 . S
C1489 H1511 0.950 . S
C1490 H1486 0.949 . S
C1490 C1498 1.574 . S
C1490 C1506 1.368 . S
H1491 C1499 0.950 . S
H1492 C1497 0.950 . S
H1493 C1498 0.949 . S
H1494 C1500 0.950 . S
H1495 C1501 0.950 . S
H1496 C1502 0.949 . S
C1497 H1492 0.950 . S
C1497 C1499 1.327 . S
C1497 C1503 1.429 . S
C1498 C1490 1.574 . S
C1498 H1493 0.949 . S
C1498 C1504 1.368 . S
C1499 C1483 1.349 . S
C1499 H1491 0.950 . S
C1499 C1497 1.327 . S
C1500 C1488 1.349 . S
C1500 H1494 0.950 . S
C1500 C1501 1.327 . S
C1501 H1495 0.950 . S
C1501 C1500 1.327 . S
C1501 C1505 1.429 . S
C1502 C1485 1.574 . S
C1502 H1496 0.949 . S
C1502 C1506 1.368 . S
C1503 C1484 1.429 . S
C1503 C1497 1.429 . S
C1503 C1504 1.523 . S
C1504 C1485 1.368 . S
C1504 C1498 1.368 . S
C1504 C1503 1.523 . S
C1505 C1489 1.429 . S
C1505 C1501 1.429 . S
C1505 C1506 1.523 . S
C1506 C1490 1.368 . S
C1506 C1502 1.368 . S
C1506 C1505 1.523 . S
H1507 C1482 0.950 . S
H1508 C1484 0.950 . S
H1509 C1485 0.949 . S
H1510 C1487 0.950 . S
H1511 C1489 0.950 . S
C1512 C1513 1.349 . S
C1512 C1514 1.327 . S
C1512 H1537 0.950 . S
C1513 C1512 1.349 . S
C1513 C1529 1.349 . S
C1514 C1512 1.327 . S
C1514 C1533 1.429 . S
C1514 H1538 0.950 . S
C1515 C1532 1.574 . S
C1515 C1534 1.368 . S
C1515 H1539 0.949 . S
H1516 C1520 0.949 . S
C1517 C1518 1.349 . S
C1517 C1519 1.327 . S
C1517 H1540 0.950 . S
C1518 C1517 1.349 . S
C1518 C1530 1.349 . S
C1519 C1517 1.327 . S
C1519 C1535 1.429 . S
C1519 H1541 0.950 . S
C1520 H1516 0.949 . S
C1520 C1528 1.574 . S
C1520 C1536 1.368 . S
H1521 C1529 0.950 . S
H1522 C1527 0.950 . S
H1523 C1528 0.949 . S
H1524 C1530 0.950 . S
H1525 C1531 0.950 . S
H1526 C1532 0.949 . S
C1527 H1522 0.950 . S
C1527 C1529 1.327 . S
C1527 C1533 1.429 . S
C1528 C1520 1.574 . S
C1528 H1523 0.949 . S
C1528 C1534 1.368 . S
C1529 C1513 1.349 . S
C1529 H1521 0.950 . S
C1529 C1527 1.327 . S
C1530 C1518 1.349 . S
C1530 H1524 0.950 . S
C1530 C1531 1.327 . S
C1531 H1525 0.950 . S
C1531 C1530 1.327 . S
C1531 C1535 1.429 . S
C1532 C1515 1.574 . S
C1532 H1526 0.949 . S
C1532 C1536 1.368 . S
C1533 C1514 1.429 . S
C1533 C1527 1.429 . S
C1533 C1534 1.523 . S
C1534 C1515 1.368 . S
C1534 C1528 1.368 . S
C1534 C1533 1.523 . S
C1535 C1519 1.429 . S
C1535 C1531 1.429 . S
C1535 C1536 1.523 . S
C1536 C1520 1.368 . S
C1536 C1532 1.368 . S
C1536 C1535 1.523 . S
H1537 C1512 0.950 . S
H1538 C1514 0.950 . S
H1539 C1515 0.949 . S
H1540 C1517 0.950 . S
H1541 C1519 0.950 . S
C1542 C1543 1.349 . S
C1542 C1544 1.327 . S
C1542 H1567 0.950 . S
C1543 C1542 1.349 . S
C1543 C1559 1.349 . S
C1544 C1542 1.327 . S
C1544 C1563 1.429 . S
C1544 H1568 0.950 . S
C1545 C1562 1.574 1_554 S
C1545 C1564 1.368 . S
C1545 H1569 0.949 . S
H1546 C1550 0.949 . S
C1547 C1548 1.349 . S
C1547 C1549 1.327 . S
C1547 H1570 0.950 . S
C1548 C1547 1.349 . S
C1548 C1560 1.349 . S
C1549 C1547 1.327 . S
C1549 C1565 1.429 . S
C1549 H1571 0.950 . S
C1550 H1546 0.949 . S
C1550 C1558 1.574 1_556 S
C1550 C1566 1.368 . S
H1551 C1559 0.950 . S
H1552 C1557 0.950 . S
H1553 C1558 0.949 . S
H1554 C1560 0.950 . S
H1555 C1561 0.950 . S
H1556 C1562 0.949 . S
C1557 H1552 0.950 . S
C1557 C1559 1.327 . S
C1557 C1563 1.429 . S
C1558 C1550 1.574 1_554 S
C1558 H1553 0.949 . S
C1558 C1564 1.368 . S
C1559 C1543 1.349 . S
C1559 H1551 0.950 . S
C1559 C1557 1.327 . S
C1560 C1548 1.349 . S
C1560 H1554 0.950 . S
C1560 C1561 1.327 . S
C1561 H1555 0.950 . S
C1561 C1560 1.327 . S
C1561 C1565 1.429 . S
C1562 C1545 1.574 1_556 S
C1562 H1556 0.949 . S
C1562 C1566 1.368 . S
C1563 C1544 1.429 . S
C1563 C1557 1.429 . S
C1563 C1564 1.523 . S
C1564 C1545 1.368 . S
C1564 C1558 1.368 . S
C1564 C1563 1.523 . S
C1565 C1549 1.429 . S
C1565 C1561 1.429 . S
C1565 C1566 1.523 . S
C1566 C1550 1.368 . S
C1566 C1562 1.368 . S
C1566 C1565 1.523 . S
H1567 C1542 0.950 . S
H1568 C1544 0.950 . S
H1569 C1545 0.949 . S
H1570 C1547 0.950 . S
H1571 C1549 0.950 . S
C1572 C1573 1.349 . S
C1572 C1574 1.327 . S
C1572 H1597 0.950 . S
C1573 C1572 1.349 . S
C1573 C1589 1.349 . S
C1574 C1572 1.327 . S
C1574 C1593 1.429 . S
C1574 H1598 0.950 . S
C1575 C1592 1.574 . S
C1575 C1594 1.368 . S
C1575 H1599 0.949 . S
H1576 C1580 0.949 . S
C1577 C1578 1.349 . S
C1577 C1579 1.327 . S
C1577 H1600 0.950 . S
C1578 C1577 1.349 . S
C1578 C1590 1.349 . S
C1579 C1577 1.327 . S
C1579 C1595 1.429 . S
C1579 H1601 0.950 . S
C1580 H1576 0.949 . S
C1580 C1588 1.574 . S
C1580 C1596 1.368 . S
H1581 C1589 0.950 . S
H1582 C1587 0.950 . S
H1583 C1588 0.949 . S
H1584 C1590 0.950 . S
H1585 C1591 0.950 . S
H1586 C1592 0.949 . S
C1587 H1582 0.950 . S
C1587 C1589 1.327 . S
C1587 C1593 1.429 . S
C1588 C1580 1.574 . S
C1588 H1583 0.949 . S
C1588 C1594 1.368 . S
C1589 C1573 1.349 . S
C1589 H1581 0.950 . S
C1589 C1587 1.327 . S
C1590 C1578 1.349 . S
C1590 H1584 0.950 . S
C1590 C1591 1.327 . S
C1591 H1585 0.950 . S
C1591 C1590 1.327 . S
C1591 C1595 1.429 . S
C1592 C1575 1.574 . S
C1592 H1586 0.949 . S
C1592 C1596 1.368 . S
C1593 C1574 1.429 . S
C1593 C1587 1.429 . S
C1593 C1594 1.523 . S
C1594 C1575 1.368 . S
C1594 C1588 1.368 . S
C1594 C1593 1.523 . S
C1595 C1579 1.429 . S
C1595 C1591 1.429 . S
C1595 C1596 1.523 . S
C1596 C1580 1.368 . S
C1596 C1592 1.368 . S
C1596 C1595 1.523 . S
H1597 C1572 0.950 . S
H1598 C1574 0.950 . S
H1599 C1575 0.949 . S
H1600 C1577 0.950 . S
H1601 C1579 0.950 . S
C1602 C1603 1.349 . S
C1602 C1604 1.327 . S
C1602 H1627 0.950 . S
C1603 C1602 1.349 . S
C1603 C1619 1.349 . S
C1604 C1602 1.327 . S
C1604 C1623 1.429 . S
C1604 H1628 0.950 . S
C1605 C1622 1.574 . S
C1605 C1624 1.368 . S
C1605 H1629 0.949 . S
H1606 C1610 0.949 . S
C1607 C1608 1.349 . S
C1607 C1609 1.327 . S
C1607 H1630 0.950 . S
C1608 C1607 1.349 . S
C1608 C1620 1.349 . S
C1609 C1607 1.327 . S
C1609 C1625 1.429 . S
C1609 H1631 0.950 . S
C1610 H1606 0.949 . S
C1610 C1618 1.574 . S
C1610 C1626 1.368 . S
H1611 C1619 0.950 . S
H1612 C1617 0.950 . S
H1613 C1618 0.949 . S
H1614 C1620 0.950 . S
H1615 C1621 0.950 . S
H1616 C1622 0.949 . S
C1617 H1612 0.950 . S
C1617 C1619 1.327 . S
C1617 C1623 1.429 . S
C1618 C1610 1.574 . S
C1618 H1613 0.949 . S
C1618 C1624 1.368 . S
C1619 C1603 1.349 . S
C1619 H1611 0.950 . S
C1619 C1617 1.327 . S
C1620 C1608 1.349 . S
C1620 H1614 0.950 . S
C1620 C1621 1.327 . S
C1621 H1615 0.950 . S
C1621 C1620 1.327 . S
C1621 C1625 1.429 . S
C1622 C1605 1.574 . S
C1622 H1616 0.949 . S
C1622 C1626 1.368 . S
C1623 C1604 1.429 . S
C1623 C1617 1.429 . S
C1623 C1624 1.523 . S
C1624 C1605 1.368 . S
C1624 C1618 1.368 . S
C1624 C1623 1.523 . S
C1625 C1609 1.429 . S
C1625 C1621 1.429 . S
C1625 C1626 1.523 . S
C1626 C1610 1.368 . S
C1626 C1622 1.368 . S
C1626 C1625 1.523 . S
H1627 C1602 0.950 . S
H1628 C1604 0.950 . S
H1629 C1605 0.949 . S
H1630 C1607 0.950 . S
H1631 C1609 0.950 . S
C1632 C1633 1.349 1_565 S
C1632 C1634 1.327 . S
C1632 H1657 0.950 . S
C1633 C1632 1.349 1_545 S
C1633 C1649 1.349 . S
C1634 C1632 1.327 . S
C1634 C1653 1.429 . S
C1634 H1658 0.950 . S
C1635 C1652 1.574 . S
C1635 C1654 1.368 . S
C1635 H1659 0.949 . S
H1636 C1640 0.949 . S
C1637 C1638 1.349 . S
C1637 C1639 1.327 . S
C1637 H1660 0.950 . S
C1638 C1637 1.349 . S
C1638 C1650 1.349 . S
C1639 C1637 1.327 . S
C1639 C1655 1.429 . S
C1639 H1661 0.950 . S
C1640 H1636 0.949 . S
C1640 C1648 1.574 . S
C1640 C1656 1.368 . S
H1641 C1649 0.950 . S
H1642 C1647 0.950 . S
H1643 C1648 0.949 . S
H1644 C1650 0.950 . S
H1645 C1651 0.950 . S
H1646 C1652 0.949 . S
C1647 H1642 0.950 . S
C1647 C1649 1.327 . S
C1647 C1653 1.429 1_545 S
C1648 C1640 1.574 . S
C1648 H1643 0.949 . S
C1648 C1654 1.368 . S
C1649 C1633 1.349 . S
C1649 H1641 0.950 . S
C1649 C1647 1.327 . S
C1650 C1638 1.349 . S
C1650 H1644 0.950 . S
C1650 C1651 1.327 . S
C1651 H1645 0.950 . S
C1651 C1650 1.327 . S
C1651 C1655 1.429 . S
C1652 C1635 1.574 . S
C1652 H1646 0.949 . S
C1652 C1656 1.368 . S
C1653 C1634 1.429 . S
C1653 C1647 1.429 1_565 S
C1653 C1654 1.523 . S
C1654 C1635 1.368 . S
C1654 C1648 1.368 . S
C1654 C1653 1.523 . S
C1655 C1639 1.429 . S
C1655 C1651 1.429 . S
C1655 C1656 1.523 . S
C1656 C1640 1.368 . S
C1656 C1652 1.368 . S
C1656 C1655 1.523 . S
H1657 C1632 0.950 . S
H1658 C1634 0.950 . S
H1659 C1635 0.949 . S
H1660 C1637 0.950 . S
H1661 C1639 0.950 . S
C1662 C1663 1.349 . S
C1662 C1664 1.327 . S
C1662 H1687 0.950 . S
C1663 C1662 1.349 . S
C1663 C1679 1.349 . S
C1664 C1662 1.327 . S
C1664 C1683 1.429 . S
C1664 H1688 0.950 . S
C1665 C1682 1.574 . S
C1665 C1684 1.368 . S
C1665 H1689 0.949 . S
H1666 C1670 0.949 . S
C1667 C1668 1.349 1_545 S
C1667 C1669 1.327 . S
C1667 H1690 0.950 . S
C1668 C1667 1.349 1_565 S
C1668 C1680 1.349 . S
C1669 C1667 1.327 . S
C1669 C1685 1.429 . S
C1669 H1691 0.950 . S
C1670 H1666 0.949 . S
C1670 C1678 1.574 . S
C1670 C1686 1.368 . S
H1671 C1679 0.950 . S
H1672 C1677 0.950 . S
H1673 C1678 0.949 . S
H1674 C1680 0.950 . S
H1675 C1681 0.950 . S
H1676 C1682 0.949 . S
C1677 H1672 0.950 . S
C1677 C1679 1.327 . S
C1677 C1683 1.429 . S
C1678 C1670 1.574 . S
C1678 H1673 0.949 . S
C1678 C1684 1.368 . S
C1679 C1663 1.349 . S
C1679 H1671 0.950 . S
C1679 C1677 1.327 . S
C1680 C1668 1.349 . S
C1680 H1674 0.950 . S
C1680 C1681 1.327 . S
C1681 H1675 0.950 . S
C1681 C1680 1.327 . S
C1681 C1685 1.429 1_565 S
C1682 C1665 1.574 . S
C1682 H1676 0.949 . S
C1682 C1686 1.368 . S
C1683 C1664 1.429 . S
C1683 C1677 1.429 . S
C1683 C1684 1.523 . S
C1684 C1665 1.368 . S
C1684 C1678 1.368 . S
C1684 C1683 1.523 . S
C1685 C1669 1.429 . S
C1685 C1681 1.429 1_545 S
C1685 C1686 1.523 . S
C1686 C1670 1.368 . S
C1686 C1682 1.368 . S
C1686 C1685 1.523 . S
H1687 C1662 0.950 . S
H1688 C1664 0.950 . S
H1689 C1665 0.949 . S
H1690 C1667 0.950 . S
H1691 C1669 0.950 . S
C1692 C1693 1.349 . S
C1692 C1694 1.327 1_565 S
C1692 H1717 0.950 . S
C1693 C1692 1.349 . S
C1693 C1709 1.349 . S
C1694 C1692 1.327 1_545 S
C1694 C1713 1.429 . S
C1694 H1718 0.950 . S
C1695 C1712 1.574 . S
C1695 C1714 1.368 . S
C1695 H1719 0.949 . S
H1696 C1700 0.949 . S
C1697 C1698 1.349 . S
C1697 C1699 1.327 . S
C1697 H1720 0.950 . S
C1698 C1697 1.349 . S
C1698 C1710 1.349 . S
C1699 C1697 1.327 . S
C1699 C1715 1.429 . S
C1699 H1721 0.950 . S
C1700 H1696 0.949 . S
C1700 C1708 1.574 . S
C1700 C1716 1.368 . S
H1701 C1709 0.950 . S
H1702 C1707 0.950 . S
H1703 C1708 0.949 . S
H1704 C1710 0.950 . S
H1705 C1711 0.950 . S
H1706 C1712 0.949 . S
C1707 H1702 0.950 . S
C1707 C1709 1.327 1_545 S
C1707 C1713 1.429 . S
C1708 C1700 1.574 . S
C1708 H1703 0.949 . S
C1708 C1714 1.368 . S
C1709 C1693 1.349 . S
C1709 H1701 0.950 . S
C1709 C1707 1.327 1_565 S
C1710 C1698 1.349 . S
C1710 H1704 0.950 . S
C1710 C1711 1.327 . S
C1711 H1705 0.950 . S
C1711 C1710 1.327 . S
C1711 C1715 1.429 . S
C1712 C1695 1.574 . S
C1712 H1706 0.949 . S
C1712 C1716 1.368 . S
C1713 C1694 1.429 . S
C1713 C1707 1.429 . S
C1713 C1714 1.523 . S
C1714 C1695 1.368 . S
C1714 C1708 1.368 . S
C1714 C1713 1.523 . S
C1715 C1699 1.429 . S
C1715 C1711 1.429 . S
C1715 C1716 1.523 . S
C1716 C1700 1.368 . S
C1716 C1712 1.368 . S
C1716 C1715 1.523 . S
H1717 C1692 0.950 . S
H1718 C1694 0.950 . S
H1719 C1695 0.949 . S
H1720 C1697 0.950 . S
H1721 C1699 0.950 . S
C1722 C1723 1.349 . S
C1722 C1724 1.327 . S
C1722 H1747 0.950 . S
C1723 C1722 1.349 . S
C1723 C1739 1.349 1_545 S
C1724 C1722 1.327 . S
C1724 C1743 1.429 1_545 S
C1724 H1748 0.950 . S
C1725 C1742 1.574 . S
C1725 C1744 1.368 . S
C1725 H1749 0.949 . S
H1726 C1730 0.949 . S
C1727 C1728 1.349 . S
C1727 C1729 1.327 . S
C1727 H1750 0.950 . S
C1728 C1727 1.349 . S
C1728 C1740 1.349 . S
C1729 C1727 1.327 . S
C1729 C1745 1.429 . S
C1729 H1751 0.950 . S
C1730 H1726 0.949 . S
C1730 C1738 1.574 . S
C1730 C1746 1.368 . S
H1731 C1739 0.950 . S
H1732 C1737 0.950 . S
H1733 C1738 0.949 . S
H1734 C1740 0.950 . S
H1735 C1741 0.950 . S
H1736 C1742 0.949 . S
C1737 H1732 0.950 . S
C1737 C1739 1.327 . S
C1737 C1743 1.429 . S
C1738 C1730 1.574 . S
C1738 H1733 0.949 . S
C1738 C1744 1.368 . S
C1739 C1723 1.349 1_565 S
C1739 H1731 0.950 . S
C1739 C1737 1.327 . S
C1740 C1728 1.349 . S
C1740 H1734 0.950 . S
C1740 C1741 1.327 . S
C1741 H1735 0.950 . S
C1741 C1740 1.327 . S
C1741 C1745 1.429 . S
C1742 C1725 1.574 . S
C1742 H1736 0.949 . S
C1742 C1746 1.368 . S
C1743 C1724 1.429 1_565 S
C1743 C1737 1.429 . S
C1743 C1744 1.523 . S
C1744 C1725 1.368 . S
C1744 C1738 1.368 . S
C1744 C1743 1.523 . S
C1745 C1729 1.429 . S
C1745 C1741 1.429 . S
C1745 C1746 1.523 . S
C1746 C1730 1.368 . S
C1746 C1742 1.368 . S
C1746 C1745 1.523 . S
H1747 C1722 0.950 . S
H1748 C1724 0.950 . S
H1749 C1725 0.949 . S
H1750 C1727 0.950 . S
H1751 C1729 0.950 . S
C1752 C1753 1.349 . S
C1752 C1754 1.327 . S
C1752 H1777 0.950 . S
C1753 C1752 1.349 . S
C1753 C1769 1.349 . S
C1754 C1752 1.327 . S
C1754 C1773 1.429 . S
C1754 H1778 0.950 . S
C1755 C1772 1.574 . S
C1755 C1774 1.368 . S
C1755 H1779 0.949 . S
H1756 C1760 0.949 . S
C1757 C1758 1.349 . S
C1757 C1759 1.327 1_565 S
C1757 H1780 0.950 . S
C1758 C1757 1.349 . S
C1758 C1770 1.349 . S
C1759 C1757 1.327 1_545 S
C1759 C1775 1.429 . S
C1759 H1781 0.950 . S
C1760 H1756 0.949 . S
C1760 C1768 1.574 . S
C1760 C1776 1.368 . S
H1761 C1769 0.950 . S
H1762 C1767 0.950 . S
H1763 C1768 0.949 . S
H1764 C1770 0.950 . S
H1765 C1771 0.950 . S
H1766 C1772 0.949 . S
C1767 H1762 0.950 . S
C1767 C1769 1.327 . S
C1767 C1773 1.429 . S
C1768 C1760 1.574 . S
C1768 H1763 0.949 . S
C1768 C1774 1.368 . S
C1769 C1753 1.349 . S
C1769 H1761 0.950 . S
C1769 C1767 1.327 . S
C1770 C1758 1.349 . S
C1770 H1764 0.950 . S
C1770 C1771 1.327 1_565 S
C1771 H1765 0.950 . S
C1771 C1770 1.327 1_545 S
C1771 C1775 1.429 . S
C1772 C1755 1.574 . S
C1772 H1766 0.949 . S
C1772 C1776 1.368 . S
C1773 C1754 1.429 . S
C1773 C1767 1.429 . S
C1773 C1774 1.523 . S
C1774 C1755 1.368 . S
C1774 C1768 1.368 . S
C1774 C1773 1.523 . S
C1775 C1759 1.429 . S
C1775 C1771 1.429 . S
C1775 C1776 1.523 . S
C1776 C1760 1.368 . S
C1776 C1772 1.368 . S
C1776 C1775 1.523 . S
H1777 C1752 0.950 . S
H1778 C1754 0.950 . S
H1779 C1755 0.949 . S
H1780 C1757 0.950 . S
H1781 C1759 0.950 . S
C1782 C1783 1.349 . S
C1782 C1784 1.327 1_545 S
C1782 H1807 0.950 . S
C1783 C1782 1.349 . S
C1783 C1799 1.349 . S
C1784 C1782 1.327 1_565 S
C1784 C1803 1.429 . S
C1784 H1808 0.950 . S
C1785 C1802 1.574 . S
C1785 C1804 1.368 . S
C1785 H1809 0.949 . S
H1786 C1790 0.949 . S
C1787 C1788 1.349 . S
C1787 C1789 1.327 . S
C1787 H1810 0.950 . S
C1788 C1787 1.349 . S
C1788 C1800 1.349 . S
C1789 C1787 1.327 . S
C1789 C1805 1.429 . S
C1789 H1811 0.950 . S
C1790 H1786 0.949 . S
C1790 C1798 1.574 . S
C1790 C1806 1.368 . S
H1791 C1799 0.950 . S
H1792 C1797 0.950 . S
H1793 C1798 0.949 . S
H1794 C1800 0.950 . S
H1795 C1801 0.950 . S
H1796 C1802 0.949 . S
C1797 H1792 0.950 . S
C1797 C1799 1.327 1_565 S
C1797 C1803 1.429 . S
C1798 C1790 1.574 . S
C1798 H1793 0.949 . S
C1798 C1804 1.368 . S
C1799 C1783 1.349 . S
C1799 H1791 0.950 . S
C1799 C1797 1.327 1_545 S
C1800 C1788 1.349 . S
C1800 H1794 0.950 . S
C1800 C1801 1.327 . S
C1801 H1795 0.950 . S
C1801 C1800 1.327 . S
C1801 C1805 1.429 . S
C1802 C1785 1.574 . S
C1802 H1796 0.949 . S
C1802 C1806 1.368 . S
C1803 C1784 1.429 . S
C1803 C1797 1.429 . S
C1803 C1804 1.523 . S
C1804 C1785 1.368 . S
C1804 C1798 1.368 . S
C1804 C1803 1.523 . S
C1805 C1789 1.429 . S
C1805 C1801 1.429 . S
C1805 C1806 1.523 . S
C1806 C1790 1.368 . S
C1806 C1802 1.368 . S
C1806 C1805 1.523 . S
H1807 C1782 0.950 . S
H1808 C1784 0.950 . S
H1809 C1785 0.949 . S
H1810 C1787 0.950 . S
H1811 C1789 0.950 . S
C1812 C1813 1.349 . S
C1812 C1814 1.327 . S
C1812 H1837 0.950 . S
C1813 C1812 1.349 . S
C1813 C1829 1.349 . S
C1814 C1812 1.327 . S
C1814 C1833 1.429 . S
C1814 H1838 0.950 . S
C1815 C1832 1.574 . S
C1815 C1834 1.368 . S
C1815 H1839 0.949 . S
H1816 C1820 0.949 . S
C1817 C1818 1.349 . S
C1817 C1819 1.327 1_545 S
C1817 H1840 0.950 . S
C1818 C1817 1.349 . S
C1818 C1830 1.349 . S
C1819 C1817 1.327 1_565 S
C1819 C1835 1.429 . S
C1819 H1841 0.950 . S
C1820 H1816 0.949 . S
C1820 C1828 1.574 . S
C1820 C1836 1.368 . S
H1821 C1829 0.950 . S
H1822 C1827 0.950 . S
H1823 C1828 0.949 . S
H1824 C1830 0.950 . S
H1825 C1831 0.950 . S
H1826 C1832 0.949 . S
C1827 H1822 0.950 . S
C1827 C1829 1.327 . S
C1827 C1833 1.429 . S
C1828 C1820 1.574 . S
C1828 H1823 0.949 . S
C1828 C1834 1.368 . S
C1829 C1813 1.349 . S
C1829 H1821 0.950 . S
C1829 C1827 1.327 . S
C1830 C1818 1.349 . S
C1830 H1824 0.950 . S
C1830 C1831 1.327 1_545 S
C1831 H1825 0.950 . S
C1831 C1830 1.327 1_565 S
C1831 C1835 1.429 . S
C1832 C1815 1.574 . S
C1832 H1826 0.949 . S
C1832 C1836 1.368 . S
C1833 C1814 1.429 . S
C1833 C1827 1.429 . S
C1833 C1834 1.523 . S
C1834 C1815 1.368 . S
C1834 C1828 1.368 . S
C1834 C1833 1.523 . S
C1835 C1819 1.429 . S
C1835 C1831 1.429 . S
C1835 C1836 1.523 . S
C1836 C1820 1.368 . S
C1836 C1832 1.368 . S
C1836 C1835 1.523 . S
H1837 C1812 0.950 . S
H1838 C1814 0.950 . S
H1839 C1815 0.949 . S
H1840 C1817 0.950 . S
H1841 C1819 0.950 . S
C1842 C1843 1.349 . S
C1842 C1844 1.327 . S
C1842 H1867 0.950 . S
C1843 C1842 1.349 . S
C1843 C1859 1.349 . S
C1844 C1842 1.327 . S
C1844 C1863 1.429 . S
C1844 H1868 0.950 . S
C1845 C1862 1.574 . S
C1845 C1864 1.368 . S
C1845 H1869 0.949 . S
H1846 C1850 0.949 . S
C1847 C1848 1.349 . S
C1847 C1849 1.327 1_565 S
C1847 H1870 0.950 . S
C1848 C1847 1.349 . S
C1848 C1860 1.349 . S
C1849 C1847 1.327 1_545 S
C1849 C1865 1.429 . S
C1849 H1871 0.950 . S
C1850 H1846 0.949 . S
C1850 C1858 1.574 . S
C1850 C1866 1.368 . S
H1851 C1859 0.950 . S
H1852 C1857 0.950 . S
H1853 C1858 0.949 . S
H1854 C1860 0.950 . S
H1855 C1861 0.950 . S
H1856 C1862 0.949 . S
C1857 H1852 0.950 . S
C1857 C1859 1.327 . S
C1857 C1863 1.429 . S
C1858 C1850 1.574 . S
C1858 H1853 0.949 . S
C1858 C1864 1.368 . S
C1859 C1843 1.349 . S
C1859 H1851 0.950 . S
C1859 C1857 1.327 . S
C1860 C1848 1.349 . S
C1860 H1854 0.950 . S
C1860 C1861 1.327 1_565 S
C1861 H1855 0.950 . S
C1861 C1860 1.327 1_545 S
C1861 C1865 1.429 . S
C1862 C1845 1.574 . S
C1862 H1856 0.949 . S
C1862 C1866 1.368 . S
C1863 C1844 1.429 . S
C1863 C1857 1.429 . S
C1863 C1864 1.523 . S
C1864 C1845 1.368 . S
C1864 C1858 1.368 . S
C1864 C1863 1.523 . S
C1865 C1849 1.429 . S
C1865 C1861 1.429 . S
C1865 C1866 1.523 . S
C1866 C1850 1.368 . S
C1866 C1862 1.368 . S
C1866 C1865 1.523 . S
H1867 C1842 0.950 . S
H1868 C1844 0.950 . S
H1869 C1845 0.949 . S
H1870 C1847 0.950 . S
H1871 C1849 0.950 . S
C1872 C1873 1.349 . S
C1872 C1874 1.327 . S
C1872 H1897 0.950 . S
C1873 C1872 1.349 . S
C1873 C1889 1.349 . S
C1874 C1872 1.327 . S
C1874 C1893 1.429 . S
C1874 H1898 0.950 . S
C1875 C1892 1.574 . S
C1875 C1894 1.368 . S
C1875 H1899 0.949 . S
H1876 C1880 0.949 . S
C1877 C1878 1.349 . S
C1877 C1879 1.327 . S
C1877 H1900 0.950 . S
C1878 C1877 1.349 . S
C1878 C1890 1.349 . S
C1879 C1877 1.327 . S
C1879 C1895 1.429 . S
C1879 H1901 0.950 . S
C1880 H1876 0.949 . S
C1880 C1888 1.574 . S
C1880 C1896 1.368 . S
H1881 C1889 0.950 . S
H1882 C1887 0.950 . S
H1883 C1888 0.949 . S
H1884 C1890 0.950 . S
H1885 C1891 0.950 . S
H1886 C1892 0.949 . S
C1887 H1882 0.950 . S
C1887 C1889 1.327 . S
C1887 C1893 1.429 . S
C1888 C1880 1.574 . S
C1888 H1883 0.949 . S
C1888 C1894 1.368 . S
C1889 C1873 1.349 . S
C1889 H1881 0.950 . S
C1889 C1887 1.327 . S
C1890 C1878 1.349 . S
C1890 H1884 0.950 . S
C1890 C1891 1.327 . S
C1891 H1885 0.950 . S
C1891 C1890 1.327 . S
C1891 C1895 1.429 . S
C1892 C1875 1.574 . S
C1892 H1886 0.949 . S
C1892 C1896 1.368 . S
C1893 C1874 1.429 . S
C1893 C1887 1.429 . S
C1893 C1894 1.523 . S
C1894 C1875 1.368 . S
C1894 C1888 1.368 . S
C1894 C1893 1.523 . S
C1895 C1879 1.429 . S
C1895 C1891 1.429 . S
C1895 C1896 1.523 . S
C1896 C1880 1.368 . S
C1896 C1892 1.368 . S
C1896 C1895 1.523 . S
H1897 C1872 0.950 . S
H1898 C1874 0.950 . S
H1899 C1875 0.949 . S
H1900 C1877 0.950 . S
H1901 C1879 0.950 . S
C1902 C1903 1.349 . S
C1902 C1904 1.327 . S
C1902 H1927 0.950 . S
C1903 C1902 1.349 . S
C1903 C1919 1.349 . S
C1904 C1902 1.327 . S
C1904 C1923 1.429 . S
C1904 H1928 0.950 . S
C1905 C1922 1.574 . S
C1905 C1924 1.368 . S
C1905 H1929 0.949 . S
H1906 C1910 0.949 . S
C1907 C1908 1.349 . S
C1907 C1909 1.327 . S
C1907 H1930 0.950 . S
C1908 C1907 1.349 . S
C1908 C1920 1.349 . S
C1909 C1907 1.327 . S
C1909 C1925 1.429 . S
C1909 H1931 0.950 . S
C1910 H1906 0.949 . S
C1910 C1918 1.574 . S
C1910 C1926 1.368 . S
H1911 C1919 0.950 . S
H1912 C1917 0.950 . S
H1913 C1918 0.949 . S
H1914 C1920 0.950 . S
H1915 C1921 0.950 . S
H1916 C1922 0.949 . S
C1917 H1912 0.950 . S
C1917 C1919 1.327 . S
C1917 C1923 1.429 . S
C1918 C1910 1.574 . S
C1918 H1913 0.949 . S
C1918 C1924 1.368 . S
C1919 C1903 1.349 . S
C1919 H1911 0.950 . S
C1919 C1917 1.327 . S
C1920 C1908 1.349 . S
C1920 H1914 0.950 . S
C1920 C1921 1.327 . S
C1921 H1915 0.950 . S
C1921 C1920 1.327 . S
C1921 C1925 1.429 . S
C1922 C1905 1.574 . S
C1922 H1916 0.949 . S
C1922 C1926 1.368 . S
C1923 C1904 1.429 . S
C1923 C1917 1.429 . S
C1923 C1924 1.523 . S
C1924 C1905 1.368 . S
C1924 C1918 1.368 . S
C1924 C1923 1.523 . S
C1925 C1909 1.429 . S
C1925 C1921 1.429 . S
C1925 C1926 1.523 . S
C1926 C1910 1.368 . S
C1926 C1922 1.368 . S
C1926 C1925 1.523 . S
H1927 C1902 0.950 . S
H1928 C1904 0.950 . S
H1929 C1905 0.949 . S
H1930 C1907 0.950 . S
H1931 C1909 0.950 . S
C1932 C1933 1.349 . S
C1932 C1934 1.327 . S
C1932 H1957 0.950 . S
C1933 C1932 1.349 . S
C1933 C1949 1.349 . S
C1934 C1932 1.327 . S
C1934 C1953 1.429 . S
C1934 H1958 0.950 . S
C1935 C1952 1.574 . S
C1935 C1954 1.368 . S
C1935 H1959 0.949 . S
H1936 C1940 0.949 . S
C1937 C1938 1.349 . S
C1937 C1939 1.327 . S
C1937 H1960 0.950 . S
C1938 C1937 1.349 . S
C1938 C1950 1.349 . S
C1939 C1937 1.327 . S
C1939 C1955 1.429 . S
C1939 H1961 0.950 . S
C1940 H1936 0.949 . S
C1940 C1948 1.574 . S
C1940 C1956 1.368 . S
H1941 C1949 0.950 . S
H1942 C1947 0.950 . S
H1943 C1948 0.949 . S
H1944 C1950 0.950 . S
H1945 C1951 0.950 . S
H1946 C1952 0.949 . S
C1947 H1942 0.950 . S
C1947 C1949 1.327 . S
C1947 C1953 1.429 . S
C1948 C1940 1.574 . S
C1948 H1943 0.949 . S
C1948 C1954 1.368 . S
C1949 C1933 1.349 . S
C1949 H1941 0.950 . S
C1949 C1947 1.327 . S
C1950 C1938 1.349 . S
C1950 H1944 0.950 . S
C1950 C1951 1.327 . S
C1951 H1945 0.950 . S
C1951 C1950 1.327 . S
C1951 C1955 1.429 . S
C1952 C1935 1.574 . S
C1952 H1946 0.949 . S
C1952 C1956 1.368 . S
C1953 C1934 1.429 . S
C1953 C1947 1.429 . S
C1953 C1954 1.523 . S
C1954 C1935 1.368 . S
C1954 C1948 1.368 . S
C1954 C1953 1.523 . S
C1955 C1939 1.429 . S
C1955 C1951 1.429 . S
C1955 C1956 1.523 . S
C1956 C1940 1.368 . S
C1956 C1952 1.368 . S
C1956 C1955 1.523 . S
H1957 C1932 0.950 . S
H1958 C1934 0.950 . S
H1959 C1935 0.949 . S
H1960 C1937 0.950 . S
H1961 C1939 0.950 . S
C1962 C1963 1.349 . S
C1962 C1964 1.327 . S
C1962 H1987 0.950 . S
C1963 C1962 1.349 . S
C1963 C1979 1.349 . S
C1964 C1962 1.327 . S
C1964 C1983 1.429 . S
C1964 H1988 0.950 . S
C1965 C1982 1.574 . S
C1965 C1984 1.368 . S
C1965 H1989 0.949 . S
H1966 C1970 0.949 . S
C1967 C1968 1.349 . S
C1967 C1969 1.327 . S
C1967 H1990 0.950 . S
C1968 C1967 1.349 . S
C1968 C1980 1.349 . S
C1969 C1967 1.327 . S
C1969 C1985 1.429 . S
C1969 H1991 0.950 . S
C1970 H1966 0.949 . S
C1970 C1978 1.574 . S
C1970 C1986 1.368 . S
H1971 C1979 0.950 . S
H1972 C1977 0.950 . S
H1973 C1978 0.949 . S
H1974 C1980 0.950 . S
H1975 C1981 0.950 . S
H1976 C1982 0.949 . S
C1977 H1972 0.950 . S
C1977 C1979 1.327 . S
C1977 C1983 1.429 . S
C1978 C1970 1.574 . S
C1978 H1973 0.949 . S
C1978 C1984 1.368 . S
C1979 C1963 1.349 . S
C1979 H1971 0.950 . S
C1979 C1977 1.327 . S
C1980 C1968 1.349 . S
C1980 H1974 0.950 . S
C1980 C1981 1.327 . S
C1981 H1975 0.950 . S
C1981 C1980 1.327 . S
C1981 C1985 1.429 . S
C1982 C1965 1.574 . S
C1982 H1976 0.949 . S
C1982 C1986 1.368 . S
C1983 C1964 1.429 . S
C1983 C1977 1.429 . S
C1983 C1984 1.523 . S
C1984 C1965 1.368 . S
C1984 C1978 1.368 . S
C1984 C1983 1.523 . S
C1985 C1969 1.429 . S
C1985 C1981 1.429 . S
C1985 C1986 1.523 . S
C1986 C1970 1.368 . S
C1986 C1982 1.368 . S
C1986 C1985 1.523 . S
H1987 C1962 0.950 . S
H1988 C1964 0.950 . S
H1989 C1965 0.949 . S
H1990 C1967 0.950 . S
H1991 C1969 0.950 . S
C1992 C1993 1.349 . S
C1992 C1994 1.327 . S
C1992 H2017 0.950 . S
C1993 C1992 1.349 . S
C1993 C2009 1.349 . S
C1994 C1992 1.327 . S
C1994 C2013 1.429 . S
C1994 H2018 0.950 . S
C1995 C2012 1.574 . S
C1995 C2014 1.368 . S
C1995 H2019 0.949 . S
H1996 C2000 0.949 . S
C1997 C1998 1.349 . S
C1997 C1999 1.327 . S
C1997 H2020 0.950 . S
C1998 C1997 1.349 . S
C1998 C2010 1.349 . S
C1999 C1997 1.327 . S
C1999 C2015 1.429 . S
C1999 H2021 0.950 . S
C2000 H1996 0.949 . S
C2000 C2008 1.574 . S
C2000 C2016 1.368 . S
H2001 C2009 0.950 . S
H2002 C2007 0.950 . S
H2003 C2008 0.949 . S
H2004 C2010 0.950 . S
H2005 C2011 0.950 . S
H2006 C2012 0.949 . S
C2007 H2002 0.950 . S
C2007 C2009 1.327 . S
C2007 C2013 1.429 . S
C2008 C2000 1.574 . S
C2008 H2003 0.949 . S
C2008 C2014 1.368 . S
C2009 C1993 1.349 . S
C2009 H2001 0.950 . S
C2009 C2007 1.327 . S
C2010 C1998 1.349 . S
C2010 H2004 0.950 . S
C2010 C2011 1.327 . S
C2011 H2005 0.950 . S
C2011 C2010 1.327 . S
C2011 C2015 1.429 . S
C2012 C1995 1.574 . S
C2012 H2006 0.949 . S
C2012 C2016 1.368 . S
C2013 C1994 1.429 . S
C2013 C2007 1.429 . S
C2013 C2014 1.523 . S
C2014 C1995 1.368 . S
C2014 C2008 1.368 . S
C2014 C2013 1.523 . S
C2015 C1999 1.429 . S
C2015 C2011 1.429 . S
C2015 C2016 1.523 . S
C2016 C2000 1.368 . S
C2016 C2012 1.368 . S
C2016 C2015 1.523 . S
H2017 C1992 0.950 . S
H2018 C1994 0.950 . S
H2019 C1995 0.949 . S
H2020 C1997 0.950 . S
H2021 C1999 0.950 . S
C2022 C2023 1.349 . S
C2022 C2024 1.327 . S
C2022 H2047 0.950 . S
C2023 C2022 1.349 . S
C2023 C2039 1.349 . S
C2024 C2022 1.327 . S
C2024 C2043 1.429 . S
C2024 H2048 0.950 . S
C2025 C2042 1.574 . S
C2025 C2044 1.368 . S
C2025 H2049 0.949 . S
H2026 C2030 0.949 . S
C2027 C2028 1.349 . S
C2027 C2029 1.327 . S
C2027 H2050 0.950 . S
C2028 C2027 1.349 . S
C2028 C2040 1.349 . S
C2029 C2027 1.327 . S
C2029 C2045 1.429 . S
C2029 H2051 0.950 . S
C2030 H2026 0.949 . S
C2030 C2038 1.574 . S
C2030 C2046 1.368 . S
H2031 C2039 0.950 . S
H2032 C2037 0.950 . S
H2033 C2038 0.949 . S
H2034 C2040 0.950 . S
H2035 C2041 0.950 . S
H2036 C2042 0.949 . S
C2037 H2032 0.950 . S
C2037 C2039 1.327 . S
C2037 C2043 1.429 . S
C2038 C2030 1.574 . S
C2038 H2033 0.949 . S
C2038 C2044 1.368 . S
C2039 C2023 1.349 . S
C2039 H2031 0.950 . S
C2039 C2037 1.327 . S
C2040 C2028 1.349 . S
C2040 H2034 0.950 . S
C2040 C2041 1.327 . S
C2041 H2035 0.950 . S
C2041 C2040 1.327 . S
C2041 C2045 1.429 . S
C2042 C2025 1.574 . S
C2042 H2036 0.949 . S
C2042 C2046 1.368 . S
C2043 C2024 1.429 . S
C2043 C2037 1.429 . S
C2043 C2044 1.523 . S
C2044 C2025 1.368 . S
C2044 C2038 1.368 . S
C2044 C2043 1.523 . S
C2045 C2029 1.429 . S
C2045 C2041 1.429 . S
C2045 C2046 1.523 . S
C2046 C2030 1.368 . S
C2046 C2042 1.368 . S
C2046 C2045 1.523 . S
H2047 C2022 0.950 . S
H2048 C2024 0.950 . S
H2049 C2025 0.949 . S
H2050 C2027 0.950 . S
H2051 C2029 0.950 . S
C2052 C2053 1.349 . S
C2052 C2054 1.327 . S
C2052 H2077 0.950 . S
C2053 C2052 1.349 . S
C2053 C2069 1.349 . S
C2054 C2052 1.327 . S
C2054 C2073 1.429 . S
C2054 H2078 0.950 . S
C2055 C2072 1.574 . S
C2055 C2074 1.368 . S
C2055 H2079 0.949 . S
H2056 C2060 0.949 . S
C2057 C2058 1.349 . S
C2057 C2059 1.327 . S
C2057 H2080 0.950 . S
C2058 C2057 1.349 . S
C2058 C2070 1.349 . S
C2059 C2057 1.327 . S
C2059 C2075 1.429 . S
C2059 H2081 0.950 . S
C2060 H2056 0.949 . S
C2060 C2068 1.574 . S
C2060 C2076 1.368 . S
H2061 C2069 0.950 . S
H2062 C2067 0.950 . S
H2063 C2068 0.949 . S
H2064 C2070 0.950 . S
H2065 C2071 0.950 . S
H2066 C2072 0.949 . S
C2067 H2062 0.950 . S
C2067 C2069 1.327 . S
C2067 C2073 1.429 . S
C2068 C2060 1.574 . S
C2068 H2063 0.949 . S
C2068 C2074 1.368 . S
C2069 C2053 1.349 . S
C2069 H2061 0.950 . S
C2069 C2067 1.327 . S
C2070 C2058 1.349 . S
C2070 H2064 0.950 . S
C2070 C2071 1.327 . S
C2071 H2065 0.950 . S
C2071 C2070 1.327 . S
C2071 C2075 1.429 . S
C2072 C2055 1.574 . S
C2072 H2066 0.949 . S
C2072 C2076 1.368 . S
C2073 C2054 1.429 . S
C2073 C2067 1.429 . S
C2073 C2074 1.523 . S
C2074 C2055 1.368 . S
C2074 C2068 1.368 . S
C2074 C2073 1.523 . S
C2075 C2059 1.429 . S
C2075 C2071 1.429 . S
C2075 C2076 1.523 . S
C2076 C2060 1.368 . S
C2076 C2072 1.368 . S
C2076 C2075 1.523 . S
H2077 C2052 0.950 . S
H2078 C2054 0.950 . S
H2079 C2055 0.949 . S
H2080 C2057 0.950 . S
H2081 C2059 0.950 . S
C2082 C2083 1.349 . S
C2082 C2084 1.327 . S
C2082 H2107 0.950 . S
C2083 C2082 1.349 . S
C2083 C2099 1.349 . S
C2084 C2082 1.327 . S
C2084 C2103 1.429 . S
C2084 H2108 0.950 . S
C2085 C2102 1.574 . S
C2085 C2104 1.368 . S
C2085 H2109 0.949 . S
H2086 C2090 0.949 . S
C2087 C2088 1.349 . S
C2087 C2089 1.327 . S
C2087 H2110 0.950 . S
C2088 C2087 1.349 . S
C2088 C2100 1.349 . S
C2089 C2087 1.327 . S
C2089 C2105 1.429 . S
C2089 H2111 0.950 . S
C2090 H2086 0.949 . S
C2090 C2098 1.574 . S
C2090 C2106 1.368 . S
H2091 C2099 0.950 . S
H2092 C2097 0.950 . S
H2093 C2098 0.949 . S
H2094 C2100 0.950 . S
H2095 C2101 0.950 . S
H2096 C2102 0.949 . S
C2097 H2092 0.950 . S
C2097 C2099 1.327 . S
C2097 C2103 1.429 . S
C2098 C2090 1.574 . S
C2098 H2093 0.949 . S
C2098 C2104 1.368 . S
C2099 C2083 1.349 . S
C2099 H2091 0.950 . S
C2099 C2097 1.327 . S
C2100 C2088 1.349 . S
C2100 H2094 0.950 . S
C2100 C2101 1.327 . S
C2101 H2095 0.950 . S
C2101 C2100 1.327 . S
C2101 C2105 1.429 . S
C2102 C2085 1.574 . S
C2102 H2096 0.949 . S
C2102 C2106 1.368 . S
C2103 C2084 1.429 . S
C2103 C2097 1.429 . S
C2103 C2104 1.523 . S
C2104 C2085 1.368 . S
C2104 C2098 1.368 . S
C2104 C2103 1.523 . S
C2105 C2089 1.429 . S
C2105 C2101 1.429 . S
C2105 C2106 1.523 . S
C2106 C2090 1.368 . S
C2106 C2102 1.368 . S
C2106 C2105 1.523 . S
H2107 C2082 0.950 . S
H2108 C2084 0.950 . S
H2109 C2085 0.949 . S
H2110 C2087 0.950 . S
H2111 C2089 0.950 . S
C2112 C2113 1.349 . S
C2112 C2114 1.327 . S
C2112 H2137 0.950 . S
C2113 C2112 1.349 . S
C2113 C2129 1.349 . S
C2114 C2112 1.327 . S
C2114 C2133 1.429 . S
C2114 H2138 0.950 . S
C2115 C2132 1.574 . S
C2115 C2134 1.368 . S
C2115 H2139 0.949 . S
H2116 C2120 0.949 . S
C2117 C2118 1.349 . S
C2117 C2119 1.327 . S
C2117 H2140 0.950 . S
C2118 C2117 1.349 . S
C2118 C2130 1.349 . S
C2119 C2117 1.327 . S
C2119 C2135 1.429 . S
C2119 H2141 0.950 . S
C2120 H2116 0.949 . S
C2120 C2128 1.574 . S
C2120 C2136 1.368 . S
H2121 C2129 0.950 . S
H2122 C2127 0.950 . S
H2123 C2128 0.949 . S
H2124 C2130 0.950 . S
H2125 C2131 0.950 . S
H2126 C2132 0.949 . S
C2127 H2122 0.950 . S
C2127 C2129 1.327 . S
C2127 C2133 1.429 . S
C2128 C2120 1.574 . S
C2128 H2123 0.949 . S
C2128 C2134 1.368 . S
C2129 C2113 1.349 . S
C2129 H2121 0.950 . S
C2129 C2127 1.327 . S
C2130 C2118 1.349 . S
C2130 H2124 0.950 . S
C2130 C2131 1.327 . S
C2131 H2125 0.950 . S
C2131 C2130 1.327 . S
C2131 C2135 1.429 . S
C2132 C2115 1.574 . S
C2132 H2126 0.949 . S
C2132 C2136 1.368 . S
C2133 C2114 1.429 . S
C2133 C2127 1.429 . S
C2133 C2134 1.523 . S
C2134 C2115 1.368 . S
C2134 C2128 1.368 . S
C2134 C2133 1.523 . S
C2135 C2119 1.429 . S
C2135 C2131 1.429 . S
C2135 C2136 1.523 . S
C2136 C2120 1.368 . S
C2136 C2132 1.368 . S
C2136 C2135 1.523 . S
H2137 C2112 0.950 . S
H2138 C2114 0.950 . S
H2139 C2115 0.949 . S
H2140 C2117 0.950 . S
H2141 C2119 0.950 . S
C2142 C2143 1.349 . S
C2142 C2144 1.327 . S
C2142 H2167 0.950 . S
C2143 C2142 1.349 . S
C2143 C2159 1.349 . S
C2144 C2142 1.327 . S
C2144 C2163 1.429 . S
C2144 H2168 0.950 . S
C2145 C2162 1.574 . S
C2145 C2164 1.368 . S
C2145 H2169 0.949 . S
H2146 C2150 0.949 . S
C2147 C2148 1.349 . S
C2147 C2149 1.327 . S
C2147 H2170 0.950 . S
C2148 C2147 1.349 . S
C2148 C2160 1.349 . S
C2149 C2147 1.327 . S
C2149 C2165 1.429 1_655 S
C2149 H2171 0.950 . S
C2150 H2146 0.949 . S
C2150 C2158 1.574 . S
C2150 C2166 1.368 . S
H2151 C2159 0.950 . S
H2152 C2157 0.950 . S
H2153 C2158 0.949 . S
H2154 C2160 0.950 . S
H2155 C2161 0.950 1_455 S
H2156 C2162 0.949 . S
C2157 H2152 0.950 . S
C2157 C2159 1.327 . S
C2157 C2163 1.429 . S
C2158 C2150 1.574 . S
C2158 H2153 0.949 . S
C2158 C2164 1.368 . S
C2159 C2143 1.349 . S
C2159 H2151 0.950 . S
C2159 C2157 1.327 . S
C2160 C2148 1.349 . S
C2160 H2154 0.950 . S
C2160 C2161 1.327 . S
C2161 H2155 0.950 1_655 S
C2161 C2160 1.327 . S
C2161 C2165 1.429 1_655 S
C2162 C2145 1.574 . S
C2162 H2156 0.949 . S
C2162 C2166 1.368 . S
C2163 C2144 1.429 . S
C2163 C2157 1.429 . S
C2163 C2164 1.523 . S
C2164 C2145 1.368 . S
C2164 C2158 1.368 . S
C2164 C2163 1.523 . S
C2165 C2149 1.429 1_455 S
C2165 C2161 1.429 1_455 S
C2165 C2166 1.523 . S
C2166 C2150 1.368 . S
C2166 C2162 1.368 . S
C2166 C2165 1.523 . S
H2167 C2142 0.950 . S
H2168 C2144 0.950 . S
H2169 C2145 0.949 . S
H2170 C2147 0.950 . S
H2171 C2149 0.950 . S
C2172 C2173 1.349 . S
C2172 C2174 1.327 . S
C2172 H2197 0.950 . S
C2173 C2172 1.349 . S
C2173 C2189 1.349 . S
C2174 C2172 1.327 . S
C2174 C2193 1.429 . S
C2174 H2198 0.950 . S
C2175 C2192 1.574 . S
C2175 C2194 1.368 . S
C2175 H2199 0.949 . S
H2176 C2180 0.949 . S
C2177 C2178 1.349 . S
C2177 C2179 1.327 . S
C2177 H2200 0.950 . S
C2178 C2177 1.349 . S
C2178 C2190 1.349 . S
C2179 C2177 1.327 . S
C2179 C2195 1.429 . S
C2179 H2201 0.950 . S
C2180 H2176 0.949 . S
C2180 C2188 1.574 . S
C2180 C2196 1.368 . S
H2181 C2189 0.950 . S
H2182 C2187 0.950 . S
H2183 C2188 0.949 . S
H2184 C2190 0.950 . S
H2185 C2191 0.950 . S
H2186 C2192 0.949 . S
C2187 H2182 0.950 . S
C2187 C2189 1.327 . S
C2187 C2193 1.429 . S
C2188 C2180 1.574 . S
C2188 H2183 0.949 . S
C2188 C2194 1.368 . S
C2189 C2173 1.349 . S
C2189 H2181 0.950 . S
C2189 C2187 1.327 . S
C2190 C2178 1.349 . S
C2190 H2184 0.950 . S
C2190 C2191 1.327 . S
C2191 H2185 0.950 . S
C2191 C2190 1.327 . S
C2191 C2195 1.429 . S
C2192 C2175 1.574 . S
C2192 H2186 0.949 . S
C2192 C2196 1.368 . S
C2193 C2174 1.429 . S
C2193 C2187 1.429 . S
C2193 C2194 1.523 . S
C2194 C2175 1.368 . S
C2194 C2188 1.368 . S
C2194 C2193 1.523 . S
C2195 C2179 1.429 . S
C2195 C2191 1.429 . S
C2195 C2196 1.523 . S
C2196 C2180 1.368 . S
C2196 C2192 1.368 . S
C2196 C2195 1.523 . S
H2197 C2172 0.950 . S
H2198 C2174 0.950 . S
H2199 C2175 0.949 . S
H2200 C2177 0.950 . S
H2201 C2179 0.950 . S
C2202 C2203 1.349 . S
C2202 C2204 1.327 . S
C2202 H2227 0.950 . S
C2203 C2202 1.349 . S
C2203 C2219 1.349 . S
C2204 C2202 1.327 . S
C2204 C2223 1.429 . S
C2204 H2228 0.950 . S
C2205 C2222 1.574 . S
C2205 C2224 1.368 . S
C2205 H2229 0.949 . S
H2206 C2210 0.949 . S
C2207 C2208 1.349 . S
C2207 C2209 1.327 . S
C2207 H2230 0.950 . S
C2208 C2207 1.349 . S
C2208 C2220 1.349 . S
C2209 C2207 1.327 . S
C2209 C2225 1.429 . S
C2209 H2231 0.950 . S
C2210 H2206 0.949 . S
C2210 C2218 1.574 . S
C2210 C2226 1.368 . S
H2211 C2219 0.950 . S
H2212 C2217 0.950 . S
H2213 C2218 0.949 . S
H2214 C2220 0.950 . S
H2215 C2221 0.950 . S
H2216 C2222 0.949 . S
C2217 H2212 0.950 . S
C2217 C2219 1.327 . S
C2217 C2223 1.429 . S
C2218 C2210 1.574 . S
C2218 H2213 0.949 . S
C2218 C2224 1.368 . S
C2219 C2203 1.349 . S
C2219 H2211 0.950 . S
C2219 C2217 1.327 . S
C2220 C2208 1.349 . S
C2220 H2214 0.950 . S
C2220 C2221 1.327 . S
C2221 H2215 0.950 . S
C2221 C2220 1.327 . S
C2221 C2225 1.429 . S
C2222 C2205 1.574 . S
C2222 H2216 0.949 . S
C2222 C2226 1.368 . S
C2223 C2204 1.429 . S
C2223 C2217 1.429 . S
C2223 C2224 1.523 . S
C2224 C2205 1.368 . S
C2224 C2218 1.368 . S
C2224 C2223 1.523 . S
C2225 C2209 1.429 . S
C2225 C2221 1.429 . S
C2225 C2226 1.523 . S
C2226 C2210 1.368 . S
C2226 C2222 1.368 . S
C2226 C2225 1.523 . S
H2227 C2202 0.950 . S
H2228 C2204 0.950 . S
H2229 C2205 0.949 . S
H2230 C2207 0.950 . S
H2231 C2209 0.950 . S
C2232 C2233 1.349 . S
C2232 C2234 1.327 . S
C2232 H2257 0.950 . S
C2233 C2232 1.349 . S
C2233 C2249 1.349 . S
C2234 C2232 1.327 . S
C2234 C2253 1.429 . S
C2234 H2258 0.950 . S
C2235 C2252 1.574 . S
C2235 C2254 1.368 . S
C2235 H2259 0.949 . S
H2236 C2240 0.949 . S
C2237 C2238 1.349 . S
C2237 C2239 1.327 . S
C2237 H2260 0.950 . S
C2238 C2237 1.349 . S
C2238 C2250 1.349 . S
C2239 C2237 1.327 . S
C2239 C2255 1.429 . S
C2239 H2261 0.950 . S
C2240 H2236 0.949 . S
C2240 C2248 1.574 . S
C2240 C2256 1.368 . S
H2241 C2249 0.950 . S
H2242 C2247 0.950 . S
H2243 C2248 0.949 . S
H2244 C2250 0.950 . S
H2245 C2251 0.950 . S
H2246 C2252 0.949 . S
C2247 H2242 0.950 . S
C2247 C2249 1.327 . S
C2247 C2253 1.429 . S
C2248 C2240 1.574 . S
C2248 H2243 0.949 . S
C2248 C2254 1.368 . S
C2249 C2233 1.349 . S
C2249 H2241 0.950 . S
C2249 C2247 1.327 . S
C2250 C2238 1.349 . S
C2250 H2244 0.950 . S
C2250 C2251 1.327 . S
C2251 H2245 0.950 . S
C2251 C2250 1.327 . S
C2251 C2255 1.429 . S
C2252 C2235 1.574 . S
C2252 H2246 0.949 . S
C2252 C2256 1.368 . S
C2253 C2234 1.429 . S
C2253 C2247 1.429 . S
C2253 C2254 1.523 . S
C2254 C2235 1.368 . S
C2254 C2248 1.368 . S
C2254 C2253 1.523 . S
C2255 C2239 1.429 . S
C2255 C2251 1.429 . S
C2255 C2256 1.523 . S
C2256 C2240 1.368 . S
C2256 C2252 1.368 . S
C2256 C2255 1.523 . S
H2257 C2232 0.950 . S
H2258 C2234 0.950 . S
H2259 C2235 0.949 . S
H2260 C2237 0.950 . S
H2261 C2239 0.950 . S
C2262 C2263 1.349 . S
C2262 C2264 1.327 . S
C2262 H2287 0.950 . S
C2263 C2262 1.349 . S
C2263 C2279 1.349 . S
C2264 C2262 1.327 . S
C2264 C2283 1.429 . S
C2264 H2288 0.950 . S
C2265 C2282 1.574 . S
C2265 C2284 1.368 . S
C2265 H2289 0.949 . S
H2266 C2270 0.949 . S
C2267 C2268 1.349 . S
C2267 C2269 1.327 . S
C2267 H2290 0.950 . S
C2268 C2267 1.349 . S
C2268 C2280 1.349 . S
C2269 C2267 1.327 . S
C2269 C2285 1.429 . S
C2269 H2291 0.950 . S
C2270 H2266 0.949 . S
C2270 C2278 1.574 . S
C2270 C2286 1.368 . S
H2271 C2279 0.950 . S
H2272 C2277 0.950 . S
H2273 C2278 0.949 . S
H2274 C2280 0.950 . S
H2275 C2281 0.950 . S
H2276 C2282 0.949 . S
C2277 H2272 0.950 . S
C2277 C2279 1.327 . S
C2277 C2283 1.429 . S
C2278 C2270 1.574 . S
C2278 H2273 0.949 . S
C2278 C2284 1.368 . S
C2279 C2263 1.349 . S
C2279 H2271 0.950 . S
C2279 C2277 1.327 . S
C2280 C2268 1.349 . S
C2280 H2274 0.950 . S
C2280 C2281 1.327 . S
C2281 H2275 0.950 . S
C2281 C2280 1.327 . S
C2281 C2285 1.429 . S
C2282 C2265 1.574 . S
C2282 H2276 0.949 . S
C2282 C2286 1.368 . S
C2283 C2264 1.429 . S
C2283 C2277 1.429 . S
C2283 C2284 1.523 . S
C2284 C2265 1.368 . S
C2284 C2278 1.368 . S
C2284 C2283 1.523 . S
C2285 C2269 1.429 . S
C2285 C2281 1.429 . S
C2285 C2286 1.523 . S
C2286 C2270 1.368 . S
C2286 C2282 1.368 . S
C2286 C2285 1.523 . S
H2287 C2262 0.950 . S
H2288 C2264 0.950 . S
H2289 C2265 0.949 . S
H2290 C2267 0.950 . S
H2291 C2269 0.950 . S
C2292 C2293 1.349 . S
C2292 C2294 1.327 . S
C2292 H2317 0.950 . S
C2293 C2292 1.349 . S
C2293 C2309 1.349 . S
C2294 C2292 1.327 . S
C2294 C2313 1.429 . S
C2294 H2318 0.950 . S
C2295 C2312 1.574 . S
C2295 C2314 1.368 . S
C2295 H2319 0.949 . S
H2296 C2300 0.949 . S
C2297 C2298 1.349 . S
C2297 C2299 1.327 . S
C2297 H2320 0.950 . S
C2298 C2297 1.349 . S
C2298 C2310 1.349 . S
C2299 C2297 1.327 . S
C2299 C2315 1.429 . S
C2299 H2321 0.950 . S
C2300 H2296 0.949 . S
C2300 C2308 1.574 . S
C2300 C2316 1.368 . S
H2301 C2309 0.950 . S
H2302 C2307 0.950 . S
H2303 C2308 0.949 . S
H2304 C2310 0.950 . S
H2305 C2311 0.950 . S
H2306 C2312 0.949 . S
C2307 H2302 0.950 . S
C2307 C2309 1.327 . S
C2307 C2313 1.429 . S
C2308 C2300 1.574 . S
C2308 H2303 0.949 . S
C2308 C2314 1.368 . S
C2309 C2293 1.349 . S
C2309 H2301 0.950 . S
C2309 C2307 1.327 . S
C2310 C2298 1.349 . S
C2310 H2304 0.950 . S
C2310 C2311 1.327 . S
C2311 H2305 0.950 . S
C2311 C2310 1.327 . S
C2311 C2315 1.429 . S
C2312 C2295 1.574 . S
C2312 H2306 0.949 . S
C2312 C2316 1.368 . S
C2313 C2294 1.429 . S
C2313 C2307 1.429 . S
C2313 C2314 1.523 . S
C2314 C2295 1.368 . S
C2314 C2308 1.368 . S
C2314 C2313 1.523 . S
C2315 C2299 1.429 . S
C2315 C2311 1.429 . S
C2315 C2316 1.523 . S
C2316 C2300 1.368 . S
C2316 C2312 1.368 . S
C2316 C2315 1.523 . S
H2317 C2292 0.950 . S
H2318 C2294 0.950 . S
H2319 C2295 0.949 . S
H2320 C2297 0.950 . S
H2321 C2299 0.950 . S
C2322 C2323 1.349 . S
C2322 C2324 1.327 . S
C2322 H2347 0.950 . S
C2323 C2322 1.349 . S
C2323 C2339 1.349 . S
C2324 C2322 1.327 . S
C2324 C2343 1.429 . S
C2324 H2348 0.950 . S
C2325 C2342 1.574 . S
C2325 C2344 1.368 . S
C2325 H2349 0.949 . S
H2326 C2330 0.949 . S
C2327 C2328 1.349 . S
C2327 C2329 1.327 . S
C2327 H2350 0.950 . S
C2328 C2327 1.349 . S
C2328 C2340 1.349 . S
C2329 C2327 1.327 . S
C2329 C2345 1.429 1_655 S
C2329 H2351 0.950 . S
C2330 H2326 0.949 . S
C2330 C2338 1.574 . S
C2330 C2346 1.368 . S
H2331 C2339 0.950 . S
H2332 C2337 0.950 . S
H2333 C2338 0.949 . S
H2334 C2340 0.950 . S
H2335 C2341 0.950 1_455 S
H2336 C2342 0.949 . S
C2337 H2332 0.950 . S
C2337 C2339 1.327 . S
C2337 C2343 1.429 . S
C2338 C2330 1.574 . S
C2338 H2333 0.949 . S
C2338 C2344 1.368 . S
C2339 C2323 1.349 . S
C2339 H2331 0.950 . S
C2339 C2337 1.327 . S
C2340 C2328 1.349 . S
C2340 H2334 0.950 . S
C2340 C2341 1.327 . S
C2341 H2335 0.950 1_655 S
C2341 C2340 1.327 . S
C2341 C2345 1.429 1_655 S
C2342 C2325 1.574 . S
C2342 H2336 0.949 . S
C2342 C2346 1.368 . S
C2343 C2324 1.429 . S
C2343 C2337 1.429 . S
C2343 C2344 1.523 . S
C2344 C2325 1.368 . S
C2344 C2338 1.368 . S
C2344 C2343 1.523 . S
C2345 C2329 1.429 1_455 S
C2345 C2341 1.429 1_455 S
C2345 C2346 1.523 . S
C2346 C2330 1.368 . S
C2346 C2342 1.368 . S
C2346 C2345 1.523 . S
H2347 C2322 0.950 . S
H2348 C2324 0.950 . S
H2349 C2325 0.949 . S
H2350 C2327 0.950 . S
H2351 C2329 0.950 . S
C2352 C2353 1.349 . S
C2352 C2354 1.327 . S
C2352 H2377 0.950 . S
C2353 C2352 1.349 . S
C2353 C2369 1.349 . S
C2354 C2352 1.327 . S
C2354 C2373 1.429 . S
C2354 H2378 0.950 . S
C2355 C2372 1.574 . S
C2355 C2374 1.368 . S
C2355 H2379 0.949 . S
H2356 C2360 0.949 . S
C2357 C2358 1.349 . S
C2357 C2359 1.327 . S
C2357 H2380 0.950 . S
C2358 C2357 1.349 . S
C2358 C2370 1.349 . S
C2359 C2357 1.327 . S
C2359 C2375 1.429 . S
C2359 H2381 0.950 . S
C2360 H2356 0.949 . S
C2360 C2368 1.574 . S
C2360 C2376 1.368 . S
H2361 C2369 0.950 . S
H2362 C2367 0.950 . S
H2363 C2368 0.949 . S
H2364 C2370 0.950 . S
H2365 C2371 0.950 . S
H2366 C2372 0.949 . S
C2367 H2362 0.950 . S
C2367 C2369 1.327 . S
C2367 C2373 1.429 . S
C2368 C2360 1.574 . S
C2368 H2363 0.949 . S
C2368 C2374 1.368 . S
C2369 C2353 1.349 . S
C2369 H2361 0.950 . S
C2369 C2367 1.327 . S
C2370 C2358 1.349 . S
C2370 H2364 0.950 . S
C2370 C2371 1.327 . S
C2371 H2365 0.950 . S
C2371 C2370 1.327 . S
C2371 C2375 1.429 . S
C2372 C2355 1.574 . S
C2372 H2366 0.949 . S
C2372 C2376 1.368 . S
C2373 C2354 1.429 . S
C2373 C2367 1.429 . S
C2373 C2374 1.523 . S
C2374 C2355 1.368 . S
C2374 C2368 1.368 . S
C2374 C2373 1.523 . S
C2375 C2359 1.429 . S
C2375 C2371 1.429 . S
C2375 C2376 1.523 . S
C2376 C2360 1.368 . S
C2376 C2372 1.368 . S
C2376 C2375 1.523 . S
H2377 C2352 0.950 . S
H2378 C2354 0.950 . S
H2379 C2355 0.949 . S
H2380 C2357 0.950 . S
H2381 C2359 0.950 . S
C2382 C2383 1.349 . S
C2382 C2384 1.327 . S
C2382 H2407 0.950 . S
C2383 C2382 1.349 . S
C2383 C2399 1.349 . S
C2384 C2382 1.327 . S
C2384 C2403 1.429 1_455 S
C2384 H2408 0.950 . S
C2385 C2402 1.574 . S
C2385 C2404 1.368 . S
C2385 H2409 0.949 . S
H2386 C2390 0.949 . S
C2387 C2388 1.349 . S
C2387 C2389 1.327 . S
C2387 H2410 0.950 . S
C2388 C2387 1.349 . S
C2388 C2400 1.349 . S
C2389 C2387 1.327 . S
C2389 C2405 1.429 . S
C2389 H2411 0.950 . S
C2390 H2386 0.949 . S
C2390 C2398 1.574 . S
C2390 C2406 1.368 . S
H2391 C2399 0.950 . S
H2392 C2397 0.969 . S
H2393 C2398 0.949 . S
H2394 C2400 0.950 . S
H2395 C2401 0.950 . S
H2396 C2402 0.949 . S
C2397 H2392 0.969 . S
C2397 C2399 1.327 . S
C2397 C2403 1.429 1_455 S
C2398 C2390 1.574 . S
C2398 H2393 0.949 . S
C2398 C2404 1.368 . S
C2399 C2383 1.349 . S
C2399 H2391 0.950 . S
C2399 C2397 1.327 . S
C2400 C2388 1.349 . S
C2400 H2394 0.950 . S
C2400 C2401 1.327 . S
C2401 H2395 0.950 . S
C2401 C2400 1.327 . S
C2401 C2405 1.429 . S
C2402 C2385 1.574 . S
C2402 H2396 0.949 . S
C2402 C2406 1.368 . S
C2403 C2384 1.429 1_655 S
C2403 C2397 1.429 1_655 S
C2403 C2404 1.523 . S
C2404 C2385 1.368 . S
C2404 C2398 1.368 . S
C2404 C2403 1.523 . S
C2405 C2389 1.429 . S
C2405 C2401 1.429 . S
C2405 C2406 1.523 . S
C2406 C2390 1.368 . S
C2406 C2402 1.368 . S
C2406 C2405 1.523 . S
H2407 C2382 0.950 . S
H2408 C2384 0.950 . S
H2409 C2385 0.949 . S
H2410 C2387 0.950 . S
H2411 C2389 0.950 . S
C2412 C2413 1.349 . S
C2412 C2414 1.327 . S
C2412 H2437 0.950 . S
C2413 C2412 1.349 . S
C2413 C2429 1.349 . S
C2414 C2412 1.327 . S
C2414 C2433 1.429 . S
C2414 H2438 0.950 . S
C2415 C2432 1.574 . S
C2415 C2434 1.368 . S
C2415 H2439 0.949 . S
H2416 C2420 0.949 . S
C2417 C2418 1.349 . S
C2417 C2419 1.327 . S
C2417 H2440 0.950 . S
C2418 C2417 1.349 . S
C2418 C2430 1.349 . S
C2419 C2417 1.327 . S
C2419 C2435 1.429 . S
C2419 H2441 0.950 . S
C2420 H2416 0.949 . S
C2420 C2428 1.574 . S
C2420 C2436 1.368 . S
H2421 C2429 0.950 . S
H2422 C2427 0.950 . S
H2423 C2428 0.949 . S
H2424 C2430 0.950 . S
H2425 C2431 0.950 . S
H2426 C2432 0.949 . S
C2427 H2422 0.950 . S
C2427 C2429 1.327 . S
C2427 C2433 1.429 . S
C2428 C2420 1.574 . S
C2428 H2423 0.949 . S
C2428 C2434 1.368 . S
C2429 C2413 1.349 . S
C2429 H2421 0.950 . S
C2429 C2427 1.327 . S
C2430 C2418 1.349 . S
C2430 H2424 0.950 . S
C2430 C2431 1.327 . S
C2431 H2425 0.950 . S
C2431 C2430 1.327 . S
C2431 C2435 1.429 . S
C2432 C2415 1.574 . S
C2432 H2426 0.949 . S
C2432 C2436 1.368 . S
C2433 C2414 1.429 . S
C2433 C2427 1.429 . S
C2433 C2434 1.523 . S
C2434 C2415 1.368 . S
C2434 C2428 1.368 . S
C2434 C2433 1.523 . S
C2435 C2419 1.429 . S
C2435 C2431 1.429 . S
C2435 C2436 1.523 . S
C2436 C2420 1.368 . S
C2436 C2432 1.368 . S
C2436 C2435 1.523 . S
H2437 C2412 0.950 . S
H2438 C2414 0.950 . S
H2439 C2415 0.949 . S
H2440 C2417 0.950 . S
H2441 C2419 0.950 . S
C2442 C2443 1.349 . S
C2442 C2444 1.327 . S
C2442 H2467 0.950 . S
C2443 C2442 1.349 . S
C2443 C2459 1.349 . S
C2444 C2442 1.327 . S
C2444 C2463 1.429 . S
C2444 H2468 0.950 . S
C2445 C2462 1.574 . S
C2445 C2464 1.368 . S
C2445 H2469 0.949 . S
H2446 C2450 0.949 . S
C2447 C2448 1.349 . S
C2447 C2449 1.327 . S
C2447 H2470 0.950 . S
C2448 C2447 1.349 . S
C2448 C2460 1.349 . S
C2449 C2447 1.327 . S
C2449 C2465 1.429 . S
C2449 H2471 0.950 . S
C2450 H2446 0.949 . S
C2450 C2458 1.574 . S
C2450 C2466 1.368 . S
H2451 C2459 0.950 . S
H2452 C2457 0.950 . S
H2453 C2458 0.949 . S
H2454 C2460 0.950 . S
H2455 C2461 0.950 . S
H2456 C2462 0.949 . S
C2457 H2452 0.950 . S
C2457 C2459 1.327 . S
C2457 C2463 1.429 . S
C2458 C2450 1.574 . S
C2458 H2453 0.949 . S
C2458 C2464 1.368 . S
C2459 C2443 1.349 . S
C2459 H2451 0.950 . S
C2459 C2457 1.327 . S
C2460 C2448 1.349 . S
C2460 H2454 0.950 . S
C2460 C2461 1.327 . S
C2461 H2455 0.950 . S
C2461 C2460 1.327 . S
C2461 C2465 1.429 . S
C2462 C2445 1.574 . S
C2462 H2456 0.949 . S
C2462 C2466 1.368 . S
C2463 C2444 1.429 . S
C2463 C2457 1.429 . S
C2463 C2464 1.523 . S
C2464 C2445 1.368 . S
C2464 C2458 1.368 . S
C2464 C2463 1.523 . S
C2465 C2449 1.429 . S
C2465 C2461 1.429 . S
C2465 C2466 1.523 . S
C2466 C2450 1.368 . S
C2466 C2462 1.368 . S
C2466 C2465 1.523 . S
H2467 C2442 0.950 . S
H2468 C2444 0.950 . S
H2469 C2445 0.949 . S
H2470 C2447 0.950 . S
H2471 C2449 0.950 . S
C2472 C2473 1.349 . S
C2472 C2474 1.327 . S
C2472 H2497 0.950 . S
C2473 C2472 1.349 . S
C2473 C2489 1.349 . S
C2474 C2472 1.327 . S
C2474 C2493 1.429 . S
C2474 H2498 0.950 . S
C2475 C2492 1.574 . S
C2475 C2494 1.368 . S
C2475 H2499 0.949 . S
H2476 C2480 0.949 . S
C2477 C2478 1.349 . S
C2477 C2479 1.327 . S
C2477 H2500 0.950 . S
C2478 C2477 1.349 . S
C2478 C2490 1.349 . S
C2479 C2477 1.327 . S
C2479 C2495 1.429 . S
C2479 H2501 0.950 . S
C2480 H2476 0.949 . S
C2480 C2488 1.574 . S
C2480 C2496 1.368 . S
H2481 C2489 0.950 . S
H2482 C2487 0.950 . S
H2483 C2488 0.949 . S
H2484 C2490 0.950 . S
H2485 C2491 0.950 . S
H2486 C2492 0.949 . S
C2487 H2482 0.950 . S
C2487 C2489 1.327 . S
C2487 C2493 1.429 . S
C2488 C2480 1.574 . S
C2488 H2483 0.949 . S
C2488 C2494 1.368 . S
C2489 C2473 1.349 . S
C2489 H2481 0.950 . S
C2489 C2487 1.327 . S
C2490 C2478 1.349 . S
C2490 H2484 0.950 . S
C2490 C2491 1.327 . S
C2491 H2485 0.950 . S
C2491 C2490 1.327 . S
C2491 C2495 1.429 . S
C2492 C2475 1.574 . S
C2492 H2486 0.949 . S
C2492 C2496 1.368 . S
C2493 C2474 1.429 . S
C2493 C2487 1.429 . S
C2493 C2494 1.523 . S
C2494 C2475 1.368 . S
C2494 C2488 1.368 . S
C2494 C2493 1.523 . S
C2495 C2479 1.429 . S
C2495 C2491 1.429 . S
C2495 C2496 1.523 . S
C2496 C2480 1.368 . S
C2496 C2492 1.368 . S
C2496 C2495 1.523 . S
H2497 C2472 0.950 . S
H2498 C2474 0.950 . S
H2499 C2475 0.949 . S
H2500 C2477 0.950 . S
H2501 C2479 0.950 . S
C2502 C2503 1.349 . S
C2502 C2504 1.327 . S
C2502 H2527 0.950 . S
C2503 C2502 1.349 . S
C2503 C2519 1.349 . S
C2504 C2502 1.327 . S
C2504 C2523 1.429 . S
C2504 H2528 0.950 . S
C2505 C2522 1.574 . S
C2505 C2524 1.368 . S
C2505 H2529 0.949 . S
H2506 C2510 0.949 . S
C2507 C2508 1.349 . S
C2507 C2509 1.327 . S
C2507 H2530 0.950 . S
C2508 C2507 1.349 . S
C2508 C2520 1.349 . S
C2509 C2507 1.327 . S
C2509 C2525 1.429 . S
C2509 H2531 0.950 . S
C2510 H2506 0.949 . S
C2510 C2518 1.574 . S
C2510 C2526 1.368 . S
H2511 C2519 0.950 . S
H2512 C2517 0.950 . S
H2513 C2518 0.949 . S
H2514 C2520 0.950 . S
H2515 C2521 0.950 . S
H2516 C2522 0.949 . S
C2517 H2512 0.950 . S
C2517 C2519 1.327 . S
C2517 C2523 1.429 . S
C2518 C2510 1.574 . S
C2518 H2513 0.949 . S
C2518 C2524 1.368 . S
C2519 C2503 1.349 . S
C2519 H2511 0.950 . S
C2519 C2517 1.327 . S
C2520 C2508 1.349 . S
C2520 H2514 0.950 . S
C2520 C2521 1.327 . S
C2521 H2515 0.950 . S
C2521 C2520 1.327 . S
C2521 C2525 1.429 . S
C2522 C2505 1.574 . S
C2522 H2516 0.949 . S
C2522 C2526 1.368 . S
C2523 C2504 1.429 . S
C2523 C2517 1.429 . S
C2523 C2524 1.523 . S
C2524 C2505 1.368 . S
C2524 C2518 1.368 . S
C2524 C2523 1.523 . S
C2525 C2509 1.429 . S
C2525 C2521 1.429 . S
C2525 C2526 1.523 . S
C2526 C2510 1.368 . S
C2526 C2522 1.368 . S
C2526 C2525 1.523 . S
H2527 C2502 0.950 . S
H2528 C2504 0.950 . S
H2529 C2505 0.949 . S
H2530 C2507 0.950 . S
H2531 C2509 0.950 . S
C2532 C2533 1.349 . S
C2532 C2534 1.327 . S
C2532 H2557 0.950 . S
C2533 C2532 1.349 . S
C2533 C2549 1.349 . S
C2534 C2532 1.327 . S
C2534 C2553 1.429 . S
C2534 H2558 0.950 . S
C2535 C2552 1.574 . S
C2535 C2554 1.368 . S
C2535 H2559 0.949 . S
H2536 C2540 0.949 . S
C2537 C2538 1.349 . S
C2537 C2539 1.327 . S
C2537 H2560 0.950 . S
C2538 C2537 1.349 . S
C2538 C2550 1.349 . S
C2539 C2537 1.327 . S
C2539 C2555 1.429 . S
C2539 H2561 0.950 . S
C2540 H2536 0.949 . S
C2540 C2548 1.574 . S
C2540 C2556 1.368 . S
H2541 C2549 0.950 . S
H2542 C2547 0.950 . S
H2543 C2548 0.949 . S
H2544 C2550 0.950 . S
H2545 C2551 0.950 . S
H2546 C2552 0.949 . S
C2547 H2542 0.950 . S
C2547 C2549 1.327 . S
C2547 C2553 1.429 . S
C2548 C2540 1.574 . S
C2548 H2543 0.949 . S
C2548 C2554 1.368 . S
C2549 C2533 1.349 . S
C2549 H2541 0.950 . S
C2549 C2547 1.327 . S
C2550 C2538 1.349 . S
C2550 H2544 0.950 . S
C2550 C2551 1.327 . S
C2551 H2545 0.950 . S
C2551 C2550 1.327 . S
C2551 C2555 1.429 . S
C2552 C2535 1.574 . S
C2552 H2546 0.949 . S
C2552 C2556 1.368 . S
C2553 C2534 1.429 . S
C2553 C2547 1.429 . S
C2553 C2554 1.523 . S
C2554 C2535 1.368 . S
C2554 C2548 1.368 . S
C2554 C2553 1.523 . S
C2555 C2539 1.429 . S
C2555 C2551 1.429 . S
C2555 C2556 1.523 . S
C2556 C2540 1.368 . S
C2556 C2552 1.368 . S
C2556 C2555 1.523 . S
H2557 C2532 0.950 . S
H2558 C2534 0.950 . S
H2559 C2535 0.949 . S
H2560 C2537 0.950 . S
H2561 C2539 0.950 . S
C2562 C2563 1.349 . S
C2562 C2564 1.327 . S
C2562 H2587 0.950 . S
C2563 C2562 1.349 . S
C2563 C2579 1.349 . S
C2564 C2562 1.327 . S
C2564 C2583 1.429 1_455 S
C2564 H2588 0.950 . S
C2565 C2582 1.574 . S
C2565 C2584 1.368 . S
C2565 H2589 0.949 . S
H2566 C2570 0.949 . S
C2567 C2568 1.349 . S
C2567 C2569 1.327 . S
C2567 H2590 0.950 . S
C2568 C2567 1.349 . S
C2568 C2580 1.349 . S
C2569 C2567 1.327 . S
C2569 C2585 1.429 . S
C2569 H2591 0.950 . S
C2570 H2566 0.949 . S
C2570 C2578 1.574 . S
C2570 C2586 1.368 . S
H2571 C2579 0.950 . S
H2572 C2577 0.950 1_655 S
H2573 C2578 0.949 . S
H2574 C2580 0.950 . S
H2575 C2581 0.950 . S
H2576 C2582 0.949 . S
C2577 H2572 0.950 1_455 S
C2577 C2579 1.327 . S
C2577 C2583 1.429 1_455 S
C2578 C2570 1.574 . S
C2578 H2573 0.949 . S
C2578 C2584 1.368 . S
C2579 C2563 1.349 . S
C2579 H2571 0.950 . S
C2579 C2577 1.327 . S
C2580 C2568 1.349 . S
C2580 H2574 0.950 . S
C2580 C2581 1.327 . S
C2581 H2575 0.950 . S
C2581 C2580 1.327 . S
C2581 C2585 1.429 . S
C2582 C2565 1.574 . S
C2582 H2576 0.949 . S
C2582 C2586 1.368 . S
C2583 C2564 1.429 1_655 S
C2583 C2577 1.429 1_655 S
C2583 C2584 1.523 . S
C2584 C2565 1.368 . S
C2584 C2578 1.368 . S
C2584 C2583 1.523 . S
C2585 C2569 1.429 . S
C2585 C2581 1.429 . S
C2585 C2586 1.523 . S
C2586 C2570 1.368 . S
C2586 C2582 1.368 . S
C2586 C2585 1.523 . S
H2587 C2562 0.950 . S
H2588 C2564 0.950 . S
H2589 C2565 0.949 . S
H2590 C2567 0.950 . S
H2591 C2569 0.950 . S
C2592 C2593 1.349 . S
C2592 C2594 1.327 . S
C2592 H2617 0.950 . S
C2593 C2592 1.349 . S
C2593 C2609 1.349 . S
C2594 C2592 1.327 . S
C2594 C2613 1.429 . S
C2594 H2618 0.950 . S
C2595 C2612 1.574 . S
C2595 C2614 1.368 . S
C2595 H2619 0.949 . S
H2596 C2600 0.949 . S
C2597 C2598 1.349 . S
C2597 C2599 1.327 . S
C2597 H2620 0.950 . S
C2598 C2597 1.349 . S
C2598 C2610 1.349 . S
C2599 C2597 1.327 . S
C2599 C2615 1.429 . S
C2599 H2621 0.950 . S
C2600 H2596 0.949 . S
C2600 C2608 1.574 . S
C2600 C2616 1.368 . S
H2601 C2609 0.950 . S
H2602 C2607 0.950 . S
H2603 C2608 0.949 . S
H2604 C2610 0.950 . S
H2605 C2611 0.950 . S
H2606 C2612 0.949 . S
C2607 H2602 0.950 . S
C2607 C2609 1.327 . S
C2607 C2613 1.429 . S
C2608 C2600 1.574 . S
C2608 H2603 0.949 . S
C2608 C2614 1.368 . S
C2609 C2593 1.349 . S
C2609 H2601 0.950 . S
C2609 C2607 1.327 . S
C2610 C2598 1.349 . S
C2610 H2604 0.950 . S
C2610 C2611 1.327 . S
C2611 H2605 0.950 . S
C2611 C2610 1.327 . S
C2611 C2615 1.429 . S
C2612 C2595 1.574 . S
C2612 H2606 0.949 . S
C2612 C2616 1.368 . S
C2613 C2594 1.429 . S
C2613 C2607 1.429 . S
C2613 C2614 1.523 . S
C2614 C2595 1.368 . S
C2614 C2608 1.368 . S
C2614 C2613 1.523 . S
C2615 C2599 1.429 . S
C2615 C2611 1.429 . S
C2615 C2616 1.523 . S
C2616 C2600 1.368 . S
C2616 C2612 1.368 . S
C2616 C2615 1.523 . S
H2617 C2592 0.950 . S
H2618 C2594 0.950 . S
H2619 C2595 0.949 . S
H2620 C2597 0.950 . S
H2621 C2599 0.950 . S
C2622 C2623 1.349 . S
C2622 C2624 1.327 . S
C2622 H2647 0.950 . S
C2623 C2622 1.349 . S
C2623 C2639 1.349 . S
C2624 C2622 1.327 . S
C2624 C2643 1.429 . S
C2624 H2648 0.950 . S
C2625 C2642 1.574 . S
C2625 C2644 1.368 . S
C2625 H2649 0.949 . S
H2626 C2630 0.949 . S
C2627 C2628 1.349 . S
C2627 C2629 1.327 . S
C2627 H2650 0.950 . S
C2628 C2627 1.349 . S
C2628 C2640 1.349 . S
C2629 C2627 1.327 . S
C2629 C2645 1.429 . S
C2629 H2651 0.950 . S
C2630 H2626 0.949 . S
C2630 C2638 1.574 . S
C2630 C2646 1.368 . S
H2631 C2639 0.950 . S
H2632 C2637 0.950 . S
H2633 C2638 0.949 . S
H2634 C2640 0.950 . S
H2635 C2641 0.950 . S
H2636 C2642 0.949 . S
C2637 H2632 0.950 . S
C2637 C2639 1.327 . S
C2637 C2643 1.429 . S
C2638 C2630 1.574 . S
C2638 H2633 0.949 . S
C2638 C2644 1.368 . S
C2639 C2623 1.349 . S
C2639 H2631 0.950 . S
C2639 C2637 1.327 . S
C2640 C2628 1.349 . S
C2640 H2634 0.950 . S
C2640 C2641 1.327 . S
C2641 H2635 0.950 . S
C2641 C2640 1.327 . S
C2641 C2645 1.429 . S
C2642 C2625 1.574 . S
C2642 H2636 0.949 . S
C2642 C2646 1.368 . S
C2643 C2624 1.429 . S
C2643 C2637 1.429 . S
C2643 C2644 1.523 . S
C2644 C2625 1.368 . S
C2644 C2638 1.368 . S
C2644 C2643 1.523 . S
C2645 C2629 1.429 . S
C2645 C2641 1.429 . S
C2645 C2646 1.523 . S
C2646 C2630 1.368 . S
C2646 C2642 1.368 . S
C2646 C2645 1.523 . S
H2647 C2622 0.950 . S
H2648 C2624 0.950 . S
H2649 C2625 0.949 . S
H2650 C2627 0.950 . S
H2651 C2629 0.950 . S
C2652 C2653 1.349 . S
C2652 C2654 1.327 . S
C2652 H2677 0.950 . S
C2653 C2652 1.349 . S
C2653 C2669 1.349 . S
C2654 C2652 1.327 . S
C2654 C2673 1.429 . S
C2654 H2678 0.950 . S
C2655 C2672 1.574 . S
C2655 C2674 1.368 . S
C2655 H2679 0.949 . S
H2656 C2660 0.949 . S
C2657 C2658 1.349 . S
C2657 C2659 1.327 . S
C2657 H2680 0.950 . S
C2658 C2657 1.349 . S
C2658 C2670 1.349 . S
C2659 C2657 1.327 . S
C2659 C2675 1.429 . S
C2659 H2681 0.950 . S
C2660 H2656 0.949 . S
C2660 C2668 1.574 . S
C2660 C2676 1.368 . S
H2661 C2669 0.950 . S
H2662 C2667 0.950 . S
H2663 C2668 0.949 . S
H2664 C2670 0.950 . S
H2665 C2671 0.950 . S
H2666 C2672 0.949 . S
C2667 H2662 0.950 . S
C2667 C2669 1.327 . S
C2667 C2673 1.429 . S
C2668 C2660 1.574 . S
C2668 H2663 0.949 . S
C2668 C2674 1.368 . S
C2669 C2653 1.349 . S
C2669 H2661 0.950 . S
C2669 C2667 1.327 . S
C2670 C2658 1.349 . S
C2670 H2664 0.950 . S
C2670 C2671 1.327 . S
C2671 H2665 0.950 . S
C2671 C2670 1.327 . S
C2671 C2675 1.429 . S
C2672 C2655 1.574 . S
C2672 H2666 0.949 . S
C2672 C2676 1.368 . S
C2673 C2654 1.429 . S
C2673 C2667 1.429 . S
C2673 C2674 1.523 . S
C2674 C2655 1.368 . S
C2674 C2668 1.368 . S
C2674 C2673 1.523 . S
C2675 C2659 1.429 . S
C2675 C2671 1.429 . S
C2675 C2676 1.523 . S
C2676 C2660 1.368 . S
C2676 C2672 1.368 . S
C2676 C2675 1.523 . S
H2677 C2652 0.950 . S
H2678 C2654 0.950 . S
H2679 C2655 0.949 . S
H2680 C2657 0.950 . S
H2681 C2659 0.950 . S
C2682 C2683 1.349 . S
C2682 C2684 1.327 . S
C2682 H2707 0.950 . S
C2683 C2682 1.349 . S
C2683 C2699 1.349 . S
C2684 C2682 1.327 . S
C2684 C2703 1.429 . S
C2684 H2708 0.950 . S
C2685 C2702 1.574 . S
C2685 C2704 1.368 . S
C2685 H2709 0.949 . S
H2686 C2690 0.949 . S
C2687 C2688 1.349 . S
C2687 C2689 1.327 . S
C2687 H2710 0.950 . S
C2688 C2687 1.349 . S
C2688 C2700 1.349 . S
C2689 C2687 1.327 . S
C2689 C2705 1.429 1_455 S
C2689 H2711 0.950 . S
C2690 H2686 0.949 . S
C2690 C2698 1.574 . S
C2690 C2706 1.368 . S
H2691 C2699 0.950 . S
H2692 C2697 0.950 . S
H2693 C2698 0.949 . S
H2694 C2700 0.950 . S
H2695 C2701 0.939 1_655 S
H2696 C2702 0.949 . S
C2697 H2692 0.950 . S
C2697 C2699 1.327 . S
C2697 C2703 1.429 . S
C2698 C2690 1.574 . S
C2698 H2693 0.949 . S
C2698 C2704 1.368 . S
C2699 C2683 1.349 . S
C2699 H2691 0.950 . S
C2699 C2697 1.327 . S
C2700 C2688 1.349 . S
C2700 H2694 0.950 . S
C2700 C2701 1.340 . S
C2701 H2695 0.939 1_455 S
C2701 C2700 1.340 . S
C2701 C2705 1.427 1_455 S
C2702 C2685 1.574 . S
C2702 H2696 0.949 . S
C2702 C2706 1.368 . S
C2703 C2684 1.429 . S
C2703 C2697 1.429 . S
C2703 C2704 1.523 . S
C2704 C2685 1.368 . S
C2704 C2698 1.368 . S
C2704 C2703 1.523 . S
C2705 C2689 1.429 1_655 S
C2705 C2701 1.427 1_655 S
C2705 C2706 1.523 . S
C2706 C2690 1.368 . S
C2706 C2702 1.368 . S
C2706 C2705 1.523 . S
H2707 C2682 0.950 . S
H2708 C2684 0.950 . S
H2709 C2685 0.949 . S
H2710 C2687 0.950 . S
H2711 C2689 0.950 . S
C2712 C2713 1.349 . S
C2712 C2714 1.327 . S
C2712 H2737 0.950 . S
C2713 C2712 1.349 . S
C2713 C2729 1.349 . S
C2714 C2712 1.327 . S
C2714 C2733 1.429 . S
C2714 H2738 0.950 . S
C2715 C2732 1.574 . S
C2715 C2734 1.368 . S
C2715 H2739 0.949 . S
H2716 C2720 0.949 . S
C2717 C2718 1.349 . S
C2717 C2719 1.327 . S
C2717 H2740 0.950 . S
C2718 C2717 1.349 . S
C2718 C2730 1.349 . S
C2719 C2717 1.327 . S
C2719 C2735 1.429 . S
C2719 H2741 0.950 . S
C2720 H2716 0.949 . S
C2720 C2728 1.574 . S
C2720 C2736 1.368 . S
H2721 C2729 0.950 . S
H2722 C2727 0.950 . S
H2723 C2728 0.949 . S
H2724 C2730 0.950 . S
H2725 C2731 0.950 . S
H2726 C2732 0.949 . S
C2727 H2722 0.950 . S
C2727 C2729 1.327 . S
C2727 C2733 1.429 . S
C2728 C2720 1.574 . S
C2728 H2723 0.949 . S
C2728 C2734 1.368 . S
C2729 C2713 1.349 . S
C2729 H2721 0.950 . S
C2729 C2727 1.327 . S
C2730 C2718 1.349 . S
C2730 H2724 0.950 . S
C2730 C2731 1.327 . S
C2731 H2725 0.950 . S
C2731 C2730 1.327 . S
C2731 C2735 1.429 . S
C2732 C2715 1.574 . S
C2732 H2726 0.949 . S
C2732 C2736 1.368 . S
C2733 C2714 1.429 . S
C2733 C2727 1.429 . S
C2733 C2734 1.523 . S
C2734 C2715 1.368 . S
C2734 C2728 1.368 . S
C2734 C2733 1.523 . S
C2735 C2719 1.429 . S
C2735 C2731 1.429 . S
C2735 C2736 1.523 . S
C2736 C2720 1.368 . S
C2736 C2732 1.368 . S
C2736 C2735 1.523 . S
H2737 C2712 0.950 . S
H2738 C2714 0.950 . S
H2739 C2715 0.949 . S
H2740 C2717 0.950 . S
H2741 C2719 0.950 . S
C2742 C2743 1.349 . S
C2742 C2744 1.327 . S
C2742 H2767 0.950 . S
C2743 C2742 1.349 . S
C2743 C2759 1.349 . S
C2744 C2742 1.327 . S
C2744 C2763 1.429 1_455 S
C2744 H2768 0.950 . S
C2745 C2762 1.574 . S
C2745 C2764 1.368 . S
C2745 H2769 0.949 . S
H2746 C2750 0.949 . S
C2747 C2748 1.349 . S
C2747 C2749 1.327 . S
C2747 H2770 0.950 . S
C2748 C2747 1.349 . S
C2748 C2760 1.349 . S
C2749 C2747 1.327 . S
C2749 C2765 1.429 . S
C2749 H2771 0.950 . S
C2750 H2746 0.949 . S
C2750 C2758 1.574 . S
C2750 C2766 1.368 . S
H2751 C2759 0.950 . S
H2752 C2757 0.929 1_655 S
H2753 C2758 0.949 . S
H2754 C2760 0.950 . S
H2755 C2761 0.950 . S
H2756 C2762 0.949 . S
C2757 H2752 0.929 1_455 S
C2757 C2759 1.352 . S
C2757 C2763 1.424 1_455 S
C2758 C2750 1.574 . S
C2758 H2753 0.949 . S
C2758 C2764 1.368 . S
C2759 C2743 1.349 . S
C2759 H2751 0.950 . S
C2759 C2757 1.352 . S
C2760 C2748 1.349 . S
C2760 H2754 0.950 . S
C2760 C2761 1.327 . S
C2761 H2755 0.950 . S
C2761 C2760 1.327 . S
C2761 C2765 1.429 . S
C2762 C2745 1.574 . S
C2762 H2756 0.949 . S
C2762 C2766 1.368 . S
C2763 C2744 1.429 1_655 S
C2763 C2757 1.424 1_655 S
C2763 C2764 1.523 . S
C2764 C2745 1.368 . S
C2764 C2758 1.368 . S
C2764 C2763 1.523 . S
C2765 C2749 1.429 . S
C2765 C2761 1.429 . S
C2765 C2766 1.523 . S
C2766 C2750 1.368 . S
C2766 C2762 1.368 . S
C2766 C2765 1.523 . S
H2767 C2742 0.950 . S
H2768 C2744 0.950 . S
H2769 C2745 0.949 . S
H2770 C2747 0.950 . S
H2771 C2749 0.950 . S
C2772 C2773 1.349 . S
C2772 C2774 1.327 . S
C2772 H2797 0.950 . S
C2773 C2772 1.349 . S
C2773 C2789 1.349 . S
C2774 C2772 1.327 . S
C2774 C2793 1.429 . S
C2774 H2798 0.950 . S
C2775 C2792 1.574 . S
C2775 C2794 1.368 . S
C2775 H2799 0.949 . S
H2776 C2780 0.949 . S
C2777 C2778 1.349 . S
C2777 C2779 1.327 . S
C2777 H2800 0.950 . S
C2778 C2777 1.349 . S
C2778 C2790 1.349 . S
C2779 C2777 1.327 . S
C2779 C2795 1.429 . S
C2779 H2801 0.950 . S
C2780 H2776 0.949 . S
C2780 C2788 1.574 . S
C2780 C2796 1.368 . S
H2781 C2789 0.950 . S
H2782 C2787 0.950 . S
H2783 C2788 0.949 . S
H2784 C2790 0.950 . S
H2785 C2791 0.950 . S
H2786 C2792 0.949 . S
C2787 H2782 0.950 . S
C2787 C2789 1.327 . S
C2787 C2793 1.429 . S
C2788 C2780 1.574 . S
C2788 H2783 0.949 . S
C2788 C2794 1.368 . S
C2789 C2773 1.349 . S
C2789 H2781 0.950 . S
C2789 C2787 1.327 . S
C2790 C2778 1.349 . S
C2790 H2784 0.950 . S
C2790 C2791 1.327 . S
C2791 H2785 0.950 . S
C2791 C2790 1.327 . S
C2791 C2795 1.429 . S
C2792 C2775 1.574 . S
C2792 H2786 0.949 . S
C2792 C2796 1.368 . S
C2793 C2774 1.429 . S
C2793 C2787 1.429 . S
C2793 C2794 1.523 . S
C2794 C2775 1.368 . S
C2794 C2788 1.368 . S
C2794 C2793 1.523 . S
C2795 C2779 1.429 . S
C2795 C2791 1.429 . S
C2795 C2796 1.523 . S
C2796 C2780 1.368 . S
C2796 C2792 1.368 . S
C2796 C2795 1.523 . S
H2797 C2772 0.950 . S
H2798 C2774 0.950 . S
H2799 C2775 0.949 . S
H2800 C2777 0.950 . S
H2801 C2779 0.950 . S
C2802 C2803 1.349 . S
C2802 C2804 1.327 . S
C2802 H2827 0.950 . S
C2803 C2802 1.349 . S
C2803 C2819 1.349 . S
C2804 C2802 1.327 . S
C2804 C2823 1.429 . S
C2804 H2828 0.950 . S
C2805 C2822 1.574 . S
C2805 C2824 1.368 . S
C2805 H2829 0.949 . S
H2806 C2810 0.949 . S
C2807 C2808 1.349 . S
C2807 C2809 1.327 . S
C2807 H2830 0.950 . S
C2808 C2807 1.349 . S
C2808 C2820 1.349 . S
C2809 C2807 1.327 . S
C2809 C2825 1.429 . S
C2809 H2831 0.950 . S
C2810 H2806 0.949 . S
C2810 C2818 1.574 . S
C2810 C2826 1.368 . S
H2811 C2819 0.950 . S
H2812 C2817 0.950 . S
H2813 C2818 0.949 . S
H2814 C2820 0.950 . S
H2815 C2821 0.950 . S
H2816 C2822 0.949 . S
C2817 H2812 0.950 . S
C2817 C2819 1.327 . S
C2817 C2823 1.429 . S
C2818 C2810 1.574 . S
C2818 H2813 0.949 . S
C2818 C2824 1.368 . S
C2819 C2803 1.349 . S
C2819 H2811 0.950 . S
C2819 C2817 1.327 . S
C2820 C2808 1.349 . S
C2820 H2814 0.950 . S
C2820 C2821 1.327 . S
C2821 H2815 0.950 . S
C2821 C2820 1.327 . S
C2821 C2825 1.429 . S
C2822 C2805 1.574 . S
C2822 H2816 0.949 . S
C2822 C2826 1.368 . S
C2823 C2804 1.429 . S
C2823 C2817 1.429 . S
C2823 C2824 1.523 . S
C2824 C2805 1.368 . S
C2824 C2818 1.368 . S
C2824 C2823 1.523 . S
C2825 C2809 1.429 . S
C2825 C2821 1.429 . S
C2825 C2826 1.523 . S
C2826 C2810 1.368 . S
C2826 C2822 1.368 . S
C2826 C2825 1.523 . S
H2827 C2802 0.950 . S
H2828 C2804 0.950 . S
H2829 C2805 0.949 . S
H2830 C2807 0.950 . S
H2831 C2809 0.950 . S
C2832 C2833 1.349 . S
C2832 C2834 1.327 . S
C2832 H2857 0.950 . S
C2833 C2832 1.349 . S
C2833 C2849 1.349 . S
C2834 C2832 1.327 . S
C2834 C2853 1.429 . S
C2834 H2858 0.950 . S
C2835 C2852 1.574 . S
C2835 C2854 1.368 . S
C2835 H2859 0.949 . S
H2836 C2840 0.949 . S
C2837 C2838 1.349 . S
C2837 C2839 1.327 . S
C2837 H2860 0.950 . S
C2838 C2837 1.349 . S
C2838 C2850 1.349 . S
C2839 C2837 1.327 . S
C2839 C2855 1.429 . S
C2839 H2861 0.950 . S
C2840 H2836 0.949 . S
C2840 C2848 1.574 . S
C2840 C2856 1.368 . S
H2841 C2849 0.950 . S
H2842 C2847 0.950 . S
H2843 C2848 0.949 . S
H2844 C2850 0.950 . S
H2845 C2851 0.950 . S
H2846 C2852 0.949 . S
C2847 H2842 0.950 . S
C2847 C2849 1.327 . S
C2847 C2853 1.429 . S
C2848 C2840 1.574 . S
C2848 H2843 0.949 . S
C2848 C2854 1.368 . S
C2849 C2833 1.349 . S
C2849 H2841 0.950 . S
C2849 C2847 1.327 . S
C2850 C2838 1.349 . S
C2850 H2844 0.950 . S
C2850 C2851 1.327 . S
C2851 H2845 0.950 . S
C2851 C2850 1.327 . S
C2851 C2855 1.429 . S
C2852 C2835 1.574 . S
C2852 H2846 0.949 . S
C2852 C2856 1.368 . S
C2853 C2834 1.429 . S
C2853 C2847 1.429 . S
C2853 C2854 1.523 . S
C2854 C2835 1.368 . S
C2854 C2848 1.368 . S
C2854 C2853 1.523 . S
C2855 C2839 1.429 . S
C2855 C2851 1.429 . S
C2855 C2856 1.523 . S
C2856 C2840 1.368 . S
C2856 C2852 1.368 . S
C2856 C2855 1.523 . S
H2857 C2832 0.950 . S
H2858 C2834 0.950 . S
H2859 C2835 0.949 . S
H2860 C2837 0.950 . S
H2861 C2839 0.950 . S
C2862 C2863 1.349 . S
C2862 C2864 1.327 . S
C2862 H2887 0.950 . S
C2863 C2862 1.349 . S
C2863 C2879 1.349 . S
C2864 C2862 1.327 . S
C2864 C2883 1.429 . S
C2864 H2888 0.950 . S
C2865 C2882 1.574 . S
C2865 C2884 1.368 . S
C2865 H2889 0.949 . S
H2866 C2870 0.949 . S
C2867 C2868 1.349 . S
C2867 C2869 1.327 . S
C2867 H2890 0.950 . S
C2868 C2867 1.349 . S
C2868 C2880 1.349 . S
C2869 C2867 1.327 . S
C2869 C2885 1.429 . S
C2869 H2891 0.950 . S
C2870 H2866 0.949 . S
C2870 C2878 1.574 . S
C2870 C2886 1.368 . S
H2871 C2879 0.950 . S
H2872 C2877 0.950 . S
H2873 C2878 0.949 . S
H2874 C2880 0.950 . S
H2875 C2881 0.950 . S
H2876 C2882 0.949 . S
C2877 H2872 0.950 . S
C2877 C2879 1.327 . S
C2877 C2883 1.429 . S
C2878 C2870 1.574 . S
C2878 H2873 0.949 . S
C2878 C2884 1.368 . S
C2879 C2863 1.349 . S
C2879 H2871 0.950 . S
C2879 C2877 1.327 . S
C2880 C2868 1.349 . S
C2880 H2874 0.950 . S
C2880 C2881 1.327 . S
C2881 H2875 0.950 . S
C2881 C2880 1.327 . S
C2881 C2885 1.429 . S
C2882 C2865 1.574 . S
C2882 H2876 0.949 . S
C2882 C2886 1.368 . S
C2883 C2864 1.429 . S
C2883 C2877 1.429 . S
C2883 C2884 1.523 . S
C2884 C2865 1.368 . S
C2884 C2878 1.368 . S
C2884 C2883 1.523 . S
C2885 C2869 1.429 . S
C2885 C2881 1.429 . S
C2885 C2886 1.523 . S
C2886 C2870 1.368 . S
C2886 C2882 1.368 . S
C2886 C2885 1.523 . S
H2887 C2862 0.950 . S
H2888 C2864 0.950 . S
H2889 C2865 0.949 . S
H2890 C2867 0.950 . S
H2891 C2869 0.950 . S
C2892 C2893 1.349 . S
C2892 C2894 1.327 . S
C2892 H2917 0.950 . S
C2893 C2892 1.349 . S
C2893 C2909 1.349 . S
C2894 C2892 1.327 . S
C2894 C2913 1.429 . S
C2894 H2918 0.950 . S
C2895 C2912 1.574 . S
C2895 C2914 1.368 . S
C2895 H2919 0.949 . S
H2896 C2900 0.949 . S
C2897 C2898 1.349 . S
C2897 C2899 1.327 . S
C2897 H2920 0.950 . S
C2898 C2897 1.349 . S
C2898 C2910 1.349 . S
C2899 C2897 1.327 . S
C2899 C2915 1.429 . S
C2899 H2921 0.950 . S
C2900 H2896 0.949 . S
C2900 C2908 1.574 . S
C2900 C2916 1.368 . S
H2901 C2909 0.950 . S
H2902 C2907 0.950 . S
H2903 C2908 0.949 . S
H2904 C2910 0.950 . S
H2905 C2911 0.950 . S
H2906 C2912 0.949 . S
C2907 H2902 0.950 . S
C2907 C2909 1.327 . S
C2907 C2913 1.429 . S
C2908 C2900 1.574 . S
C2908 H2903 0.949 . S
C2908 C2914 1.368 . S
C2909 C2893 1.349 . S
C2909 H2901 0.950 . S
C2909 C2907 1.327 . S
C2910 C2898 1.349 . S
C2910 H2904 0.950 . S
C2910 C2911 1.327 . S
C2911 H2905 0.950 . S
C2911 C2910 1.327 . S
C2911 C2915 1.429 . S
C2912 C2895 1.574 . S
C2912 H2906 0.949 . S
C2912 C2916 1.368 . S
C2913 C2894 1.429 . S
C2913 C2907 1.429 . S
C2913 C2914 1.523 . S
C2914 C2895 1.368 . S
C2914 C2908 1.368 . S
C2914 C2913 1.523 . S
C2915 C2899 1.429 . S
C2915 C2911 1.429 . S
C2915 C2916 1.523 . S
C2916 C2900 1.368 . S
C2916 C2912 1.368 . S
C2916 C2915 1.523 . S
H2917 C2892 0.950 . S
H2918 C2894 0.950 . S
H2919 C2895 0.949 . S
H2920 C2897 0.950 . S
H2921 C2899 0.950 . S
C2922 C2923 1.349 . S
C2922 C2924 1.309 1_655 S
C2922 H2947 0.950 . S
C2923 C2922 1.349 . S
C2923 C2939 1.349 . S
C2924 C2922 1.309 1_455 S
C2924 C2943 1.431 . S
C2924 H2948 0.966 . S
C2925 C2942 1.574 . S
C2925 C2944 1.368 . S
C2925 H2949 0.949 . S
H2926 C2930 0.949 . S
C2927 C2928 1.349 . S
C2927 C2929 1.327 . S
C2927 H2950 0.950 . S
C2928 C2927 1.349 . S
C2928 C2940 1.349 . S
C2929 C2927 1.327 . S
C2929 C2945 1.429 . S
C2929 H2951 0.950 . S
C2930 H2926 0.949 . S
C2930 C2938 1.574 . S
C2930 C2946 1.368 . S
H2931 C2939 0.950 . S
H2932 C2937 0.950 . S
H2933 C2938 0.949 . S
H2934 C2940 0.950 . S
H2935 C2941 0.950 . S
H2936 C2942 0.949 . S
C2937 H2932 0.950 . S
C2937 C2939 1.327 . S
C2937 C2943 1.429 1_655 S
C2938 C2930 1.574 . S
C2938 H2933 0.949 . S
C2938 C2944 1.368 . S
C2939 C2923 1.349 . S
C2939 H2931 0.950 . S
C2939 C2937 1.327 . S
C2940 C2928 1.349 . S
C2940 H2934 0.950 . S
C2940 C2941 1.327 . S
C2941 H2935 0.950 . S
C2941 C2940 1.327 . S
C2941 C2945 1.429 . S
C2942 C2925 1.574 . S
C2942 H2936 0.949 . S
C2942 C2946 1.368 . S
C2943 C2924 1.431 . S
C2943 C2937 1.429 1_455 S
C2943 C2944 1.523 . S
C2944 C2925 1.368 . S
C2944 C2938 1.368 . S
C2944 C2943 1.523 . S
C2945 C2929 1.429 . S
C2945 C2941 1.429 . S
C2945 C2946 1.523 . S
C2946 C2930 1.368 . S
C2946 C2942 1.368 . S
C2946 C2945 1.523 . S
H2947 C2922 0.950 . S
H2948 C2924 0.966 . S
H2949 C2925 0.949 . S
H2950 C2927 0.950 . S
H2951 C2929 0.950 . S
C2952 C2953 1.349 . S
C2952 C2954 1.327 . S
C2952 H2977 0.950 . S
C2953 C2952 1.349 . S
C2953 C2969 1.349 . S
C2954 C2952 1.327 . S
C2954 C2973 1.429 . S
C2954 H2978 0.950 . S
C2955 C2972 1.574 . S
C2955 C2974 1.368 . S
C2955 H2979 0.949 . S
H2956 C2960 0.949 . S
C2957 C2958 1.349 . S
C2957 C2959 1.327 . S
C2957 H2980 0.950 . S
C2958 C2957 1.349 . S
C2958 C2970 1.349 . S
C2959 C2957 1.327 . S
C2959 C2975 1.429 . S
C2959 H2981 0.950 . S
C2960 H2956 0.949 . S
C2960 C2968 1.574 . S
C2960 C2976 1.368 . S
H2961 C2969 0.950 . S
H2962 C2967 0.950 . S
H2963 C2968 0.949 . S
H2964 C2970 0.950 . S
H2965 C2971 0.950 . S
H2966 C2972 0.949 . S
C2967 H2962 0.950 . S
C2967 C2969 1.327 . S
C2967 C2973 1.429 . S
C2968 C2960 1.574 . S
C2968 H2963 0.949 . S
C2968 C2974 1.368 . S
C2969 C2953 1.349 . S
C2969 H2961 0.950 . S
C2969 C2967 1.327 . S
C2970 C2958 1.349 . S
C2970 H2964 0.950 . S
C2970 C2971 1.327 . S
C2971 H2965 0.950 . S
C2971 C2970 1.327 . S
C2971 C2975 1.429 . S
C2972 C2955 1.574 . S
C2972 H2966 0.949 . S
C2972 C2976 1.368 . S
C2973 C2954 1.429 . S
C2973 C2967 1.429 . S
C2973 C2974 1.523 . S
C2974 C2955 1.368 . S
C2974 C2968 1.368 . S
C2974 C2973 1.523 . S
C2975 C2959 1.429 . S
C2975 C2971 1.429 . S
C2975 C2976 1.523 . S
C2976 C2960 1.368 . S
C2976 C2972 1.368 . S
C2976 C2975 1.523 . S
H2977 C2952 0.950 . S
H2978 C2954 0.950 . S
H2979 C2955 0.949 . S
H2980 C2957 0.950 . S
H2981 C2959 0.950 . S
C2982 C2983 1.349 . S
C2982 C2984 1.327 . S
C2982 H3007 0.950 . S
C2983 C2982 1.349 . S
C2983 C2999 1.349 . S
C2984 C2982 1.327 . S
C2984 C3003 1.429 . S
C2984 H3008 0.950 . S
C2985 C3002 1.574 . S
C2985 C3004 1.368 . S
C2985 H3009 0.949 . S
H2986 C2990 0.949 . S
C2987 C2988 1.349 . S
C2987 C2989 1.327 . S
C2987 H3010 0.950 . S
C2988 C2987 1.349 . S
C2988 C3000 1.349 . S
C2989 C2987 1.327 . S
C2989 C3005 1.429 1_655 S
C2989 H3011 0.954 . S
C2990 H2986 0.949 . S
C2990 C2998 1.574 . S
C2990 C3006 1.368 . S
H2991 C2999 0.950 . S
H2992 C2997 0.950 . S
H2993 C2998 0.949 . S
H2994 C3000 0.950 . S
H2995 C3001 0.950 . S
H2996 C3002 0.949 . S
C2997 H2992 0.950 . S
C2997 C2999 1.327 . S
C2997 C3003 1.429 . S
C2998 C2990 1.574 . S
C2998 H2993 0.949 . S
C2998 C3004 1.368 . S
C2999 C2983 1.349 . S
C2999 H2991 0.950 . S
C2999 C2997 1.327 . S
C3000 C2988 1.349 . S
C3000 H2994 0.950 . S
C3000 C3001 1.327 . S
C3001 H2995 0.950 . S
C3001 C3000 1.327 . S
C3001 C3005 1.429 1_655 S
C3002 C2985 1.574 . S
C3002 H2996 0.949 . S
C3002 C3006 1.368 . S
C3003 C2984 1.429 . S
C3003 C2997 1.429 . S
C3003 C3004 1.523 . S
C3004 C2985 1.368 . S
C3004 C2998 1.368 . S
C3004 C3003 1.523 . S
C3005 C2989 1.429 1_455 S
C3005 C3001 1.429 1_455 S
C3005 C3006 1.523 . S
C3006 C2990 1.368 . S
C3006 C3002 1.368 . S
C3006 C3005 1.523 . S
H3007 C2982 0.950 . S
H3008 C2984 0.950 . S
H3009 C2985 0.949 . S
H3010 C2987 0.950 . S
H3011 C2989 0.954 . S
C3012 C3013 1.349 . S
C3012 C3014 1.327 . S
C3012 H3037 0.950 . S
C3013 C3012 1.349 . S
C3013 C3029 1.349 . S
C3014 C3012 1.327 . S
C3014 C3033 1.429 . S
C3014 H3038 0.950 . S
C3015 C3032 1.574 . S
C3015 C3034 1.368 . S
C3015 H3039 0.949 . S
H3016 C3020 0.949 . S
C3017 C3018 1.349 . S
C3017 C3019 1.327 . S
C3017 H3040 0.950 . S
C3018 C3017 1.349 . S
C3018 C3030 1.349 . S
C3019 C3017 1.327 . S
C3019 C3035 1.429 . S
C3019 H3041 0.950 . S
C3020 H3016 0.949 . S
C3020 C3028 1.574 . S
C3020 C3036 1.368 . S
H3021 C3029 0.950 . S
H3022 C3027 0.950 . S
H3023 C3028 0.949 . S
H3024 C3030 0.950 . S
H3025 C3031 0.950 . S
H3026 C3032 0.949 . S
C3027 H3022 0.950 . S
C3027 C3029 1.327 . S
C3027 C3033 1.429 . S
C3028 C3020 1.574 . S
C3028 H3023 0.949 . S
C3028 C3034 1.368 . S
C3029 C3013 1.349 . S
C3029 H3021 0.950 . S
C3029 C3027 1.327 . S
C3030 C3018 1.349 . S
C3030 H3024 0.950 . S
C3030 C3031 1.327 . S
C3031 H3025 0.950 . S
C3031 C3030 1.327 . S
C3031 C3035 1.429 . S
C3032 C3015 1.574 . S
C3032 H3026 0.949 . S
C3032 C3036 1.368 . S
C3033 C3014 1.429 . S
C3033 C3027 1.429 . S
C3033 C3034 1.523 . S
C3034 C3015 1.368 . S
C3034 C3028 1.368 . S
C3034 C3033 1.523 . S
C3035 C3019 1.429 . S
C3035 C3031 1.429 . S
C3035 C3036 1.523 . S
C3036 C3020 1.368 . S
C3036 C3032 1.368 . S
C3036 C3035 1.523 . S
H3037 C3012 0.950 . S
H3038 C3014 0.950 . S
H3039 C3015 0.949 . S
H3040 C3017 0.950 . S
H3041 C3019 0.950 . S
C3042 C3043 1.349 . S
C3042 C3044 1.327 . S
C3042 H3067 0.950 . S
C3043 C3042 1.349 . S
C3043 C3059 1.349 . S
C3044 C3042 1.327 . S
C3044 C3063 1.429 . S
C3044 H3068 0.950 . S
C3045 C3062 1.574 . S
C3045 C3064 1.368 . S
C3045 H3069 0.949 . S
H3046 C3050 0.949 . S
C3047 C3048 1.349 . S
C3047 C3049 1.327 . S
C3047 H3070 0.950 . S
C3048 C3047 1.349 . S
C3048 C3060 1.349 . S
C3049 C3047 1.327 . S
C3049 C3065 1.429 . S
C3049 H3071 0.950 . S
C3050 H3046 0.949 . S
C3050 C3058 1.574 . S
C3050 C3066 1.368 . S
H3051 C3059 0.950 . S
H3052 C3057 0.950 . S
H3053 C3058 0.949 . S
H3054 C3060 0.950 . S
H3055 C3061 0.950 . S
H3056 C3062 0.949 . S
C3057 H3052 0.950 . S
C3057 C3059 1.327 . S
C3057 C3063 1.429 . S
C3058 C3050 1.574 . S
C3058 H3053 0.949 . S
C3058 C3064 1.368 . S
C3059 C3043 1.349 . S
C3059 H3051 0.950 . S
C3059 C3057 1.327 . S
C3060 C3048 1.349 . S
C3060 H3054 0.950 . S
C3060 C3061 1.327 . S
C3061 H3055 0.950 . S
C3061 C3060 1.327 . S
C3061 C3065 1.429 . S
C3062 C3045 1.574 . S
C3062 H3056 0.949 . S
C3062 C3066 1.368 . S
C3063 C3044 1.429 . S
C3063 C3057 1.429 . S
C3063 C3064 1.523 . S
C3064 C3045 1.368 . S
C3064 C3058 1.368 . S
C3064 C3063 1.523 . S
C3065 C3049 1.429 . S
C3065 C3061 1.429 . S
C3065 C3066 1.523 . S
C3066 C3050 1.368 . S
C3066 C3062 1.368 . S
C3066 C3065 1.523 . S
H3067 C3042 0.950 . S
H3068 C3044 0.950 . S
H3069 C3045 0.949 . S
H3070 C3047 0.950 . S
H3071 C3049 0.950 . S
C1153 C148 1.500 . S
C1158 C4 1.500 . S
C1183 C184 1.500 . S
C1188 C40 1.500 . S
C1213 C220 1.500 . S
C1218 C76 1.500 . S
C1243 C112 1.500 . S
C1248 C256 1.500 . S
C1273 C292 1.500 . S
C1278 C436 1.500 . S
C1303 C472 1.500 . S
C1308 C328 1.500 . S
C1333 C364 1.500 . S
C1338 C508 1.500 . S
C1363 C544 1.500 . S
C1368 C400 1.500 . S
C1393 C580 1.500 . S
C1398 C724 1.500 . S
C1423 C760 1.500 . S
C1428 C616 1.500 . S
C1453 C796 1.500 . S
C1458 C652 1.500 . S
C1483 C832 1.500 . S
C1488 C688 1.500 . S
C1513 C868 1.500 . S
C1518 C1012 1.500 . S
C1543 C904 1.500 . S
C1548 C1048 1.500 . S
C1573 C940 1.500 . S
C1578 C1084 1.500 . S
C1603 C976 1.500 . S
C1608 C1120 1.500 . S
C1633 C14 0.977 . S
C1638 C266 0.977 . S
C1663 C50 0.977 . S
C1668 C158 0.977 . S
C1693 C86 0.977 . S
C1698 C194 0.977 . S
C1723 C230 0.977 . S
C1728 C122 0.977 . S
C1753 C554 0.977 . S
C1758 C302 0.977 . S
C1783 C446 0.977 . S
C1788 C338 0.977 . S
C1813 C482 0.977 . S
C1818 C374 0.977 . S
C1843 C410 0.977 . S
C1848 C518 0.977 . S
C1873 C842 0.977 . S
C1878 C590 0.977 . S
C1903 C734 0.977 . S
C1908 C626 0.977 . S
C1933 C770 0.977 . S
C1938 C662 0.977 . S
C1963 C698 0.977 . S
C1968 C806 0.977 . S
C1993 C878 0.977 . S
C1998 C1130 0.977 . S
C2023 C914 0.977 . S
C2028 C1022 0.977 . S
C2053 C950 0.977 . S
C2058 C1058 0.977 . S
C2083 C1094 0.977 . S
C2088 C986 0.977 . S
C2113 C3 1.434 . S
C2118 C902 1.409 . S
C2143 C39 1.434 . S
C2148 C362 1.409 . S
C2173 C75 1.434 . S
C2178 C974 1.409 . S
C2203 C290 1.409 . S
C2208 C111 1.434 . S
C2233 C1118 1.409 . S
C2238 C147 1.434 . S
C2263 C183 1.434 . S
C2268 C434 1.409 . S
C2293 C219 1.434 . S
C2298 C1046 1.409 . S
C2323 C255 1.434 . S
C2328 C506 1.409 . S
C2353 C614 1.409 . S
C2358 C291 1.434 . S
C2383 C74 1.409 . S
C2388 C327 1.434 . S
C2413 C686 1.409 . S
C2418 C363 1.434 . S
C2443 C399 1.434 . S
C2448 C2 1.409 . S
C2473 C830 1.409 . S
C2478 C435 1.434 . S
C2503 C146 1.409 . S
C2508 C471 1.434 . S
C2533 C758 1.409 . S
C2538 C507 1.434 . S
C2563 C218 1.409 . S
C2568 C543 1.434 . S
C2593 C326 1.409 . S
C2598 C579 1.434 . S
C2623 C615 1.434 . S
C2628 C938 1.409 . S
C2653 C651 1.434 . S
C2658 C398 1.409 . S
C2683 C687 1.434 . S
C2688 C866 1.409 . S
C2713 C723 1.434 . S
C2718 C542 1.409 . S
C2743 C1010 1.409 . S
C2748 C759 1.434 . S
C2773 C795 1.434 . S
C2778 C470 1.409 . S
C2803 C831 1.434 . S
C2808 C1082 1.409 . S
C2833 C867 1.434 . S
C2838 C38 1.409 . S
C2863 C903 1.434 . S
C2868 C650 1.409 . S
C2893 C110 1.409 . S
C2898 C939 1.434 . S
C2923 C578 1.409 . S
C2928 C975 1.434 . S
C2953 C1011 1.434 . S
C2958 C254 1.409 . S
C2983 C1047 1.434 . S
C2988 C722 1.409 . S
C3013 C182 1.409 . S
C3018 C1083 1.434 . S
C3043 C794 1.409 . S
C3048 C1119 1.434 . S
