# Generated by pormake.
# Topology mon, (4)-cn, num edge types: 1
# Building blocks:
#     Node 0, Type 0, BuildingBlock: QUQFOY_clean_sbu_1, # of connection points: 4
#     Node 1, Type 0, BuildingBlock: QUQFOY_clean_sbu_1, # of connection points: 4
#     Node 2, Type 0, BuildingBlock: QUQFOY_clean_sbu_1, # of connection points: 4
#     Node 3, Type 0, BuildingBlock: QUQFOY_clean_sbu_1, # of connection points: 4
#     Node 4, Type 0, BuildingBlock: QUQFOY_clean_sbu_1, # of connection points: 4
#     Node 5, Type 0, BuildingBlock: QUQFOY_clean_sbu_1, # of connection points: 4
#     Node 6, Type 0, BuildingBlock: QUQFOY_clean_sbu_1, # of connection points: 4
#     Node 7, Type 0, BuildingBlock: QUQFOY_clean_sbu_1, # of connection points: 4
#     Node 8, Type 0, BuildingBlock: QUQFOY_clean_sbu_1, # of connection points: 4
#     Node 9, Type 0, BuildingBlock: QUQFOY_clean_sbu_1, # of connection points: 4
#     Node 10, Type 0, BuildingBlock: QUQFOY_clean_sbu_1, # of connection points: 4
#     Node 11, Type 0, BuildingBlock: QUQFOY_clean_sbu_1, # of connection points: 4
#     Node 12, Type 0, BuildingBlock: QUQFOY_clean_sbu_1, # of connection points: 4
#     Node 13, Type 0, BuildingBlock: QUQFOY_clean_sbu_1, # of connection points: 4
#     Node 14, Type 0, BuildingBlock: QUQFOY_clean_sbu_1, # of connection points: 4
#     Node 15, Type 0, BuildingBlock: QUQFOY_clean_sbu_1, # of connection points: 4
#     Edge 16, Type (0, 0), BuildingBlock: XUDNAN_clean_linker_2, # of connection points: 2
#     Edge 17, Type (0, 0), BuildingBlock: XUDNAN_clean_linker_2, # of connection points: 2
#     Edge 18, Type (0, 0), BuildingBlock: XUDNAN_clean_linker_2, # of connection points: 2
#     Edge 19, Type (0, 0), BuildingBlock: XUDNAN_clean_linker_2, # of connection points: 2
#     Edge 20, Type (0, 0), BuildingBlock: XUDNAN_clean_linker_2, # of connection points: 2
#     Edge 21, Type (0, 0), BuildingBlock: XUDNAN_clean_linker_2, # of connection points: 2
#     Edge 22, Type (0, 0), BuildingBlock: XUDNAN_clean_linker_2, # of connection points: 2
#     Edge 23, Type (0, 0), BuildingBlock: XUDNAN_clean_linker_2, # of connection points: 2
#     Edge 24, Type (0, 0), BuildingBlock: XUDNAN_clean_linker_2, # of connection points: 2
#     Edge 25, Type (0, 0), BuildingBlock: XUDNAN_clean_linker_2, # of connection points: 2
#     Edge 26, Type (0, 0), BuildingBlock: XUDNAN_clean_linker_2, # of connection points: 2
#     Edge 27, Type (0, 0), BuildingBlock: XUDNAN_clean_linker_2, # of connection points: 2
#     Edge 28, Type (0, 0), BuildingBlock: XUDNAN_clean_linker_2, # of connection points: 2
#     Edge 29, Type (0, 0), BuildingBlock: XUDNAN_clean_linker_2, # of connection points: 2
#     Edge 30, Type (0, 0), BuildingBlock: XUDNAN_clean_linker_2, # of connection points: 2
#     Edge 31, Type (0, 0), BuildingBlock: XUDNAN_clean_linker_2, # of connection points: 2
#     Edge 32, Type (0, 0), BuildingBlock: XUDNAN_clean_linker_2, # of connection points: 2
#     Edge 33, Type (0, 0), BuildingBlock: XUDNAN_clean_linker_2, # of connection points: 2
#     Edge 34, Type (0, 0), BuildingBlock: XUDNAN_clean_linker_2, # of connection points: 2
#     Edge 35, Type (0, 0), BuildingBlock: XUDNAN_clean_linker_2, # of connection points: 2
#     Edge 36, Type (0, 0), BuildingBlock: XUDNAN_clean_linker_2, # of connection points: 2
#     Edge 37, Type (0, 0), BuildingBlock: XUDNAN_clean_linker_2, # of connection points: 2
#     Edge 38, Type (0, 0), BuildingBlock: XUDNAN_clean_linker_2, # of connection points: 2
#     Edge 39, Type (0, 0), BuildingBlock: XUDNAN_clean_linker_2, # of connection points: 2
#     Edge 40, Type (0, 0), BuildingBlock: XUDNAN_clean_linker_2, # of connection points: 2
#     Edge 41, Type (0, 0), BuildingBlock: XUDNAN_clean_linker_2, # of connection points: 2
#     Edge 42, Type (0, 0), BuildingBlock: XUDNAN_clean_linker_2, # of connection points: 2
#     Edge 43, Type (0, 0), BuildingBlock: XUDNAN_clean_linker_2, # of connection points: 2
#     Edge 44, Type (0, 0), BuildingBlock: XUDNAN_clean_linker_2, # of connection points: 2
#     Edge 45, Type (0, 0), BuildingBlock: XUDNAN_clean_linker_2, # of connection points: 2
#     Edge 46, Type (0, 0), BuildingBlock: XUDNAN_clean_linker_2, # of connection points: 2
#     Edge 47, Type (0, 0), BuildingBlock: XUDNAN_clean_linker_2, # of connection points: 2
# Relax obj value: 0.202
# Max RMSD: 0.219
# Mean RMSD: 0.219
data_MOF--net-mon--node1-QUQFOY_clean_sbu_1--edge1-XUDNAN_clean_linker_2
_symmetry_space_group_name_H-M    P1
_symmetry_Int_Tables_number       1
_symmetry_cell_setting            triclinic
loop_
_symmetry_equiv_pos_as_xyz
'x, y, z'
_cell_length_a     35.954229
_cell_length_b     35.9658
_cell_length_c     84.236403
_cell_angle_alpha  90.078609
_cell_angle_beta   90.042225
_cell_angle_gamma 89.946294
loop_
_atom_site_label
_atom_site_type_symbol
_atom_site_fract_x
_atom_site_fract_y
_atom_site_fract_z
_atom_type_partial_charge
O0 O 0.03441 0.03995 0.55794 0.0
Cd1 Cd 0.02421 0.05246 0.5815 0.0
Cd2 Cd 0.07292 0.9979 0.58637 0.0
O3 O 0.08653 0.01031 0.5633 0.0
O4 O 0.01187 0.10629 0.58335 0.0
O5 O 0.06344 0.08105 0.59304 0.0
C6 C 0.04355 0.1104 0.59039 0.0
C7 C 0.12232 0.97919 0.6027 0.0
C8 C 0.06422 0.02438 0.55329 0.0
C9 C 0.99107 0.98446 0.5933 0.0
O10 O 0.02276 0.97081 0.58993 0.0
O11 O 0.98585 0.01937 0.59287 0.0
O12 O 0.11056 0.95878 0.59121 0.0
O13 O 0.10599 0.01069 0.60507 0.0
O14 O 0.27118 0.7004 0.81937 0.0
Cd15 Cd 0.26063 0.70744 0.84319 0.0
Cd16 Cd 0.30547 0.76848 0.83938 0.0
O17 O 0.29417 0.75663 0.81591 0.0
O18 O 0.21263 0.68231 0.84817 0.0
O19 O 0.22028 0.74337 0.84949 0.0
C20 C 0.19854 0.71485 0.85065 0.0
C21 C 0.31695 0.83101 0.84553 0.0
C22 C 0.28351 0.72566 0.81026 0.0
C23 C 0.33423 0.70197 0.85837 0.0
O24 O 0.3407 0.73242 0.85122 0.0
O25 O 0.30189 0.68771 0.85801 0.0
O26 O 0.33842 0.81244 0.83628 0.0
O27 O 0.28807 0.81454 0.85124 0.0
O28 O 0.61003 0.96671 0.05242 0.0
Cd29 Cd 0.61521 0.95681 0.07649 0.0
Cd30 Cd 0.5546 1.00229 0.07909 0.0
O31 O 0.55231 0.98583 0.05572 0.0
O32 O 0.62807 0.90375 0.08082 0.0
O33 O 0.573 0.92888 0.08607 0.0
C34 C 0.5942 0.89979 0.0857 0.0
C35 C 0.49674 0.01917 0.0896 0.0
C36 C 0.57869 0.97587 0.04665 0.0
C37 C 0.63073 0.02843 0.09131 0.0
O38 O 0.59778 0.03589 0.08679 0.0
O39 O 0.64363 0.99571 0.0898 0.0
O40 O 0.51244 0.03824 0.07862 0.0
O41 O 0.51368 0.99005 0.09484 0.0
O42 O 0.36096 0.30141 0.30638 0.0
Cd43 Cd 0.36705 0.30709 0.3306 0.0
Cd44 Cd 0.31952 0.24697 0.33138 0.0
O45 O 0.34182 0.24355 0.30891 0.0
O46 O 0.41554 0.33134 0.33513 0.0
O47 O 0.40303 0.27266 0.34128 0.0
C48 C 0.42647 0.29992 0.3409 0.0
C49 C 0.29901 0.18942 0.34105 0.0
C50 C 0.35326 0.27006 0.30029 0.0
C51 C 0.29224 0.32353 0.34224 0.0
O52 O 0.28464 0.29101 0.33722 0.0
O53 O 0.32562 0.33496 0.34239 0.0
O54 O 0.28325 0.20542 0.3292 0.0
O55 O 0.32672 0.20604 0.34771 0.0
O56 O 0.03095 0.9633 0.43396 0.0
Cd57 Cd 0.01952 0.95408 0.41022 0.0
Cd58 Cd 0.07801 1.00246 0.40628 0.0
O59 O 0.08657 0.98677 0.42943 0.0
O60 O 0.99302 0.90575 0.40832 0.0
O61 O 0.04971 0.9154 0.39882 0.0
C62 C 0.02216 0.893 0.40121 0.0
C63 C 0.13193 0.01965 0.39243 0.0
C64 C 0.06224 0.9747 0.43902 0.0
C65 C 0.99926 0.02734 0.39777 0.0
O66 O 0.0326 0.03586 0.40127 0.0
O67 O 0.98832 0.99389 0.39879 0.0
O68 O 0.11925 0.03902 0.40405 0.0
O69 O 0.1142 0.98975 0.38862 0.0
O70 O 0.35575 0.69925 0.68777 0.0
Cd71 Cd 0.36152 0.70594 0.66362 0.0
Cd72 Cd 0.30965 0.75736 0.6681 0.0
O73 O 0.32835 0.75344 0.69115 0.0
O74 O 0.41412 0.69618 0.65746 0.0
O75 O 0.38739 0.75176 0.65618 0.0
C76 C 0.41689 0.73142 0.65467 0.0
C77 C 0.28852 0.81548 0.65933 0.0
C78 C 0.34303 0.7243 0.69692 0.0
C79 C 0.28875 0.68406 0.6523 0.0
O80 O 0.27863 0.71288 0.65994 0.0
O81 O 0.32311 0.67744 0.65014 0.0
O82 O 0.27178 0.79763 0.67043 0.0
O83 O 0.318 0.80083 0.65323 0.0
O84 O 0.60324 0.04719 0.92803 0.0
Cd85 Cd 0.61105 0.0623 0.90462 0.0
Cd86 Cd 0.54819 0.01866 0.89875 0.0
O87 O 0.54791 0.02336 0.92309 0.0
O88 O 0.62558 0.11574 0.90246 0.0
O89 O 0.57067 0.09339 0.89515 0.0
C90 C 0.59256 0.12165 0.89689 0.0
C91 C 0.48955 1.00346 0.8881 0.0
C92 C 0.57309 0.03274 0.93289 0.0
C93 C 0.62515 0.99545 0.88554 0.0
O94 O 0.59084 0.98932 0.88811 0.0
O95 O 0.64022 0.02526 0.89049 0.0
O96 O 0.50766 0.98108 0.8971 0.0
O97 O 0.50449 0.03524 0.88502 0.0
O98 O 0.27493 0.28899 0.18288 0.0
Cd99 Cd 0.25574 0.2983 0.16011 0.0
Cd100 Cd 0.3147 0.24923 0.15176 0.0
O101 O 0.3146 0.24488 0.17606 0.0
O102 O 0.20585 0.32202 0.1621 0.0
O103 O 0.21423 0.2663 0.15149 0.0
C104 C 0.19185 0.29279 0.15555 0.0
C105 C 0.33278 0.19421 0.13895 0.0
C106 C 0.29856 0.26422 0.18665 0.0
C107 C 0.31824 0.32928 0.14044 0.0
O108 O 0.3343 0.29792 0.14177 0.0
O109 O 0.28601 0.33443 0.14622 0.0
O110 O 0.35578 0.21376 0.14713 0.0
O111 O 0.29902 0.20607 0.13772 0.0
O112 O 0.85179 0.2197 0.18891 0.0
Cd113 Cd 0.86759 0.21254 0.16552 0.0
Cd114 Cd 0.82416 0.27629 0.15976 0.0
O115 O 0.82804 0.27526 0.18416 0.0
O116 O 0.92153 0.2 0.16316 0.0
O117 O 0.89701 0.25447 0.15655 0.0
C118 C 0.92606 0.23349 0.15792 0.0
C119 C 0.80917 0.33456 0.14926 0.0
C120 C 0.83753 0.24992 0.19386 0.0
C121 C 0.80359 0.20017 0.14468 0.0
O122 O 0.79737 0.23433 0.14752 0.0
O123 O 0.83204 0.18423 0.15051 0.0
O124 O 0.78572 0.31561 0.15738 0.0
O125 O 0.84203 0.32104 0.14718 0.0
O126 O 0.76541 0.79525 0.68207 0.0
Cd127 Cd 0.74399 0.80458 0.65971 0.0
Cd128 Cd 0.79652 0.74769 0.65062 0.0
O129 O 0.81016 0.75722 0.67414 0.0
O130 O 0.69425 0.82849 0.66168 0.0
O131 O 0.70258 0.77212 0.65161 0.0
C132 C 0.68022 0.79889 0.6554 0.0
C133 C 0.82021 0.6915 0.64042 0.0
C134 C 0.79421 0.77592 0.68499 0.0
C135 C 0.79748 0.82367 0.63427 0.0
O136 O 0.80556 0.78933 0.63442 0.0
O137 O 0.77497 0.83712 0.64436 0.0
O138 O 0.84118 0.71869 0.6445 0.0
O139 O 0.78493 0.69511 0.64265 0.0
O140 O 0.7621 0.21979 0.31213 0.0
Cd141 Cd 0.74617 0.2109 0.33531 0.0
Cd142 Cd 0.79019 0.27495 0.34202 0.0
O143 O 0.78689 0.2746 0.31754 0.0
O144 O 0.69222 0.19918 0.33754 0.0
O145 O 0.71779 0.25241 0.34526 0.0
C146 C 0.68838 0.23209 0.34355 0.0
C147 C 0.81393 0.33031 0.35277 0.0
C148 C 0.77713 0.24989 0.30756 0.0
C149 C 0.80861 0.19665 0.35624 0.0
O150 O 0.81403 0.2312 0.35419 0.0
O151 O 0.78128 0.18056 0.34962 0.0
O152 O 0.8338 0.30805 0.34442 0.0
O153 O 0.77919 0.32249 0.35452 0.0
O154 O 0.87537 0.79089 0.80616 0.0
Cd155 Cd 0.87831 0.79356 0.83069 0.0
Cd156 Cd 0.82708 0.73755 0.82892 0.0
O157 O 0.83667 0.74322 0.80501 0.0
O158 O 0.92993 0.80817 0.837 0.0
O159 O 0.90587 0.75248 0.84157 0.0
C160 C 0.93414 0.77467 0.84224 0.0
C161 C 0.81466 0.67811 0.83909 0.0
C162 C 0.8565 0.76758 0.79815 0.0
C163 C 0.80396 0.81154 0.84381 0.0
O164 O 0.79594 0.77892 0.83912 0.0
O165 O 0.83698 0.82383 0.84235 0.0
O166 O 0.79202 0.69459 0.82959 0.0
O167 O 0.84538 0.69487 0.84251 0.0
O168 O 0.53946 0.55548 0.05431 0.0
Cd169 Cd 0.52658 0.57283 0.07704 0.0
Cd170 Cd 0.57643 0.51523 0.0863 0.0
O171 O 0.5832 0.51634 0.06206 0.0
O172 O 0.50381 0.62321 0.07568 0.0
O173 O 0.55796 0.61247 0.08739 0.0
C174 C 0.5323 0.63576 0.08329 0.0
C175 C 0.6306 0.49531 0.09937 0.0
C176 C 0.56524 0.5325 0.05108 0.0
C177 C 0.49489 0.50952 0.09585 0.0
O178 O 0.5271 0.49491 0.09554 0.0
O179 O 0.48918 0.54117 0.08963 0.0
O180 O 0.61053 0.47318 0.091 0.0
O181 O 0.61959 0.52932 0.10075 0.0
O182 O 0.10931 0.45478 0.55807 0.0
Cd183 Cd 0.11251 0.43741 0.58134 0.0
Cd184 Cd 0.05275 0.49028 0.58622 0.0
O185 O 0.06701 0.49825 0.56271 0.0
O186 O 0.137 0.38783 0.58227 0.0
O187 O 0.07807 0.39723 0.58895 0.0
C188 C 0.10582 0.37463 0.58733 0.0
C189 C 0.99444 0.51583 0.59307 0.0
C190 C 0.08926 0.48169 0.55336 0.0
C191 C 0.12501 0.49682 0.60532 0.0
O192 O 0.09103 0.5049 0.60318 0.0
O193 O 0.14055 0.47158 0.59711 0.0
O194 O 0.02194 0.53572 0.58847 0.0
O195 O 0.99916 0.4803 0.59336 0.0
O196 O 0.54519 0.45958 0.93212 0.0
Cd197 Cd 0.53777 0.45024 0.90817 0.0
Cd198 Cd 0.5998 0.49465 0.90561 0.0
O199 O 0.60288 0.47917 0.92915 0.0
O200 O 0.51029 0.40258 0.90526 0.0
O201 O 0.56908 0.4103 0.89806 0.0
C202 C 0.5405 0.38872 0.89944 0.0
C203 C 0.65698 0.50795 0.89353 0.0
C204 C 0.57621 0.46921 0.93805 0.0
C205 C 0.52435 0.52457 0.89474 0.0
O206 O 0.55781 0.53085 0.89886 0.0
O207 O 0.51088 0.49203 0.89594 0.0
O208 O 0.64413 0.52787 0.90493 0.0
O209 O 0.63772 0.47974 0.88887 0.0
O210 O 0.11054 0.56485 0.43215 0.0
Cd211 Cd 0.10743 0.57308 0.40798 0.0
Cd212 Cd 0.05227 0.51875 0.40968 0.0
O213 O 0.06605 0.52255 0.43342 0.0
O214 O 0.11838 0.62606 0.40304 0.0
O215 O 0.0627 0.60038 0.40007 0.0
C216 C 0.08364 0.62958 0.39937 0.0
C217 C 0.99286 0.4963 0.40348 0.0
C218 C 0.09059 0.54253 0.44014 0.0
C219 C 0.12174 0.50598 0.38899 0.0
O220 O 0.09021 0.49607 0.39423 0.0
O221 O 0.13575 0.53693 0.39312 0.0
O222 O 0.01782 0.47585 0.41002 0.0
O223 O 1.00053 0.53092 0.40123 0.0
H224 H 0.00637 0.17691 0.58821 0.0
H225 H 0.11358 0.12907 0.60033 0.0
H226 H 0.13996 0.19212 0.60293 0.0
H227 H 0.03928 0.24835 0.56447 0.0
H228 H 1.00595 0.28276 0.57081 0.0
H229 H 0.99424 0.23419 0.57164 0.0
H230 H 0.97924 0.24026 0.60161 0.0
H231 H 0.99062 0.28902 0.60085 0.0
H232 H 0.01374 0.25912 0.6149 0.0
H233 H 0.15662 0.25949 0.60068 0.0
H234 H 0.16126 0.32706 0.59589 0.0
H235 H 0.04269 0.33177 0.58653 0.0
C236 C 0.03519 0.17968 0.59175 0.0
C237 C 0.05791 0.14802 0.59409 0.0
C238 C 0.09557 0.15287 0.59857 0.0
C239 C 0.11083 0.18859 0.60006 0.0
C240 C 0.08794 0.21918 0.59725 0.0
C241 C 0.05077 0.21514 0.59344 0.0
C242 C 0.03266 0.25252 0.59031 0.0
C243 C 0.01714 0.25455 0.5733 0.0
C244 C 1.00227 0.26071 0.60266 0.0
C245 C 0.06573 0.27812 0.59244 0.0
C246 C 0.09733 0.2583 0.59646 0.0
C247 C 0.13193 0.2754 0.59785 0.0
C248 C 0.13433 0.31374 0.59503 0.0
C249 C 0.10228 0.33463 0.59101 0.0
C250 C 0.0675 0.31658 0.5899 0.0
H251 H 1.00067 0.81225 0.8418 0.0
H252 H 0.95138 0.70628 0.85452 0.0
H253 H 0.01376 0.6815 0.86073 0.0
H254 H 0.07752 0.77612 0.8221 0.0
H255 H 0.10997 0.81105 0.8287 0.0
H256 H 0.06129 0.82205 0.8272 0.0
H257 H 0.06058 0.84247 0.8567 0.0
H258 H 0.10941 0.83164 0.85829 0.0
H259 H 0.07665 0.81071 0.87177 0.0
H260 H 0.08165 0.666 0.86257 0.0
H261 H 0.14996 0.66126 0.86043 0.0
H262 H 0.15555 0.77752 0.84696 0.0
C263 C 1.00287 0.78411 0.84625 0.0
C264 C 0.97102 0.76128 0.84776 0.0
C265 C 0.97527 0.72439 0.85335 0.0
C266 C 0.01063 0.71006 0.85693 0.0
C267 C 0.04151 0.73302 0.85496 0.0
C268 C 0.03797 0.76937 0.84988 0.0
C269 C 0.07578 0.78737 0.8477 0.0
C270 C 0.08145 0.79986 0.8304 0.0
C271 C 0.0809 0.81998 0.85931 0.0
C272 C 0.10114 0.75516 0.85191 0.0
C273 C 0.08078 0.72416 0.85619 0.0
C274 C 0.09789 0.69026 0.8595 0.0
C275 C 0.13672 0.68782 0.85822 0.0
C276 C 0.15815 0.7191 0.85369 0.0
C277 C 0.14003 0.75333 0.85077 0.0
H278 H 0.5956 0.67806 0.08574 0.0
H279 H 0.47531 0.68393 0.08848 0.0
H280 H 0.47898 0.75177 0.09273 0.0
H281 H 0.61663 0.7536 0.11449 0.0
H282 H 0.65486 0.77086 0.10281 0.0
H283 H 0.6433 0.72211 0.10231 0.0
H284 H 0.63693 0.7251 0.0717 0.0
H285 H 0.64848 0.77374 0.0721 0.0
H286 H 0.60575 0.75861 0.06294 0.0
H287 H 0.4951 0.81905 0.09482 0.0
H288 H 0.52204 0.88179 0.09237 0.0
H289 H 0.63187 0.8332 0.08682 0.0
C290 C 0.57016 0.6936 0.08762 0.0
C291 C 0.53518 0.67582 0.08699 0.0
C292 C 0.50237 0.69708 0.089 0.0
C293 C 0.5042 0.73557 0.09151 0.0
C294 C 0.53905 0.75245 0.09183 0.0
C295 C 0.57147 0.73225 0.08983 0.0
C296 C 0.605 0.75772 0.08899 0.0
C297 C 0.63151 0.75065 0.10299 0.0
C298 C 0.62521 0.75354 0.07298 0.0
C299 C 0.58625 0.79537 0.09044 0.0
C300 C 0.5483 0.79161 0.09241 0.0
C301 C 0.52483 0.82237 0.09341 0.0
C302 C 0.54043 0.85794 0.09202 0.0
C303 C 0.57908 0.86248 0.08942 0.0
C304 C 0.60227 0.8307 0.08892 0.0
H305 H 0.62115 0.19619 0.3415 0.0
H306 H 0.6712 0.30209 0.35399 0.0
H307 H 0.60874 0.32916 0.35768 0.0
H308 H 0.54907 0.23155 0.31885 0.0
H309 H 0.51454 0.19837 0.32512 0.0
H310 H 0.56298 0.18592 0.32544 0.0
H311 H 0.55798 0.16933 0.35529 0.0
H312 H 0.50937 0.18166 0.35505 0.0
H313 H 0.54037 0.20341 0.36909 0.0
H314 H 0.54161 0.34696 0.3564 0.0
H315 H 0.47425 0.35348 0.3513 0.0
H316 H 0.46722 0.23562 0.34079 0.0
C317 C 0.619 0.22485 0.34536 0.0
C318 C 0.6511 0.247 0.34749 0.0
C319 C 0.64705 0.28451 0.35235 0.0
C320 C 0.61167 0.30014 0.3545 0.0
C321 C 0.58059 0.27779 0.35195 0.0
C322 C 0.58388 0.24083 0.34766 0.0
C323 C 0.54607 0.22357 0.34465 0.0
C324 C 0.54301 0.20902 0.3275 0.0
C325 C 0.53798 0.19266 0.35674 0.0
C326 C 0.52112 0.25695 0.34734 0.0
C327 C 0.54159 0.28789 0.35165 0.0
C328 C 0.52518 0.32277 0.35337 0.0
C329 C 0.48695 0.32624 0.35041 0.0
C330 C 0.46553 0.29496 0.34588 0.0
C331 C 0.48277 0.25978 0.34465 0.0
H332 H 0.08487 0.85053 0.39762 0.0
H333 H 0.96443 0.84547 0.39585 0.0
H334 H 0.96763 0.77753 0.39174 0.0
H335 H 0.10401 0.77385 0.36884 0.0
H336 H 0.14288 0.75706 0.38031 0.0
H337 H 0.13139 0.80586 0.38046 0.0
H338 H 0.12689 0.80438 0.41115 0.0
H339 H 0.13819 0.75568 0.4111 0.0
H340 H 0.09606 0.77156 0.42052 0.0
H341 H 0.9835 0.70977 0.3906 0.0
H342 H 0.01068 0.64711 0.39363 0.0
H343 H 0.12077 0.69595 0.3971 0.0
C344 C 0.05925 0.83523 0.39588 0.0
C345 C 0.02441 0.85325 0.39684 0.0
C346 C 0.99142 0.83219 0.39504 0.0
C347 C 0.99297 0.79362 0.39265 0.0
C348 C 0.02773 0.7765 0.39215 0.0
C349 C 0.06031 0.79661 0.39372 0.0
C350 C 0.09382 0.77109 0.39448 0.0
C351 C 0.11954 0.77734 0.38017 0.0
C352 C 0.11496 0.77597 0.41025 0.0
C353 C 0.07491 0.73351 0.39356 0.0
C354 C 0.03686 0.73725 0.39193 0.0
C355 C 0.01332 0.70647 0.39168 0.0
C356 C 0.02902 0.67097 0.39342 0.0
C357 C 0.06785 0.66657 0.39556 0.0
C358 C 0.09102 0.69832 0.39534 0.0
H359 H 0.48418 0.69608 0.65125 0.0
H360 H 0.43275 0.80534 0.65101 0.0
H361 H 0.49476 0.83429 0.64904 0.0
H362 H 0.55897 0.71855 0.67543 0.0
H363 H 0.59276 0.69024 0.66522 0.0
H364 H 0.54435 0.67772 0.66468 0.0
H365 H 0.54551 0.67825 0.63393 0.0
H366 H 0.59412 0.69046 0.63436 0.0
H367 H 0.56154 0.71914 0.62365 0.0
H368 H 0.56212 0.8515 0.65054 0.0
H369 H 0.63028 0.85578 0.65353 0.0
H370 H 0.63839 0.73545 0.65188 0.0
C371 C 0.48587 0.72607 0.65041 0.0
C372 C 0.45353 0.74844 0.65124 0.0
C373 C 0.45705 0.7876 0.6503 0.0
C374 C 0.49218 0.80432 0.6492 0.0
C375 C 0.52353 0.78151 0.64886 0.0
C376 C 0.52072 0.74321 0.64921 0.0
C377 C 0.55884 0.72512 0.64954 0.0
C378 C 0.56401 0.70153 0.66461 0.0
C379 C 0.56538 0.70187 0.63447 0.0
C380 C 0.58351 0.75925 0.64981 0.0
C381 C 0.56255 0.79148 0.64936 0.0
C382 C 0.57886 0.82648 0.65061 0.0
C383 C 0.61757 0.82861 0.65239 0.0
C384 C 0.63963 0.79597 0.65281 0.0
C385 C 0.6223 0.76089 0.65132 0.0
H386 H 0.60204 0.34349 0.89953 0.0
H387 H 0.48312 0.3434 0.89089 0.0
H388 H 0.48488 0.27544 0.88662 0.0
H389 H 0.62713 0.26779 0.87159 0.0
H390 H 0.66137 0.24863 0.88493 0.0
H391 H 0.65172 0.29782 0.88516 0.0
H392 H 0.63737 0.29436 0.91525 0.0
H393 H 0.64684 0.24523 0.91511 0.0
H394 H 0.6027 0.26213 0.92226 0.0
H395 H 0.49861 0.20716 0.88516 0.0
H396 H 0.52257 0.1432 0.88798 0.0
H397 H 0.63222 0.18698 0.89879 0.0
C398 C 0.57658 0.32925 0.89632 0.0
C399 C 0.5425 0.34874 0.89531 0.0
C400 C 0.50955 0.32902 0.8916 0.0
C401 C 0.51031 0.29045 0.88911 0.0
C402 C 0.5442 0.27189 0.8905 0.0
C403 C 0.57675 0.29059 0.89407 0.0
C404 C 0.60878 0.26361 0.89635 0.0
C405 C 0.63904 0.26984 0.88375 0.0
C406 C 0.62485 0.26651 0.91325 0.0
C407 C 0.58901 0.22685 0.89379 0.0
C408 C 0.55191 0.2323 0.89018 0.0
C409 C 0.52769 0.20255 0.88786 0.0
C410 C 0.54159 0.16628 0.88948 0.0
C411 C 0.5793 0.15997 0.89357 0.0
C412 C 0.60332 0.1908 0.89554 0.0
H413 H 0.14845 0.22988 0.15547 0.0
H414 H 0.14367 0.34982 0.1506 0.0
H415 H 0.07531 0.34672 0.14816 0.0
H416 H 0.0698 0.20713 0.12895 0.0
H417 H 0.05327 0.17031 0.1416 0.0
H418 H 0.10216 0.18128 0.14102 0.0
H419 H 0.10219 0.1907 0.17152 0.0
H420 H 0.05338 0.17981 0.17219 0.0
H421 H 0.06993 0.22316 0.18029 0.0
H422 H 0.00768 0.33131 0.14761 0.0
H423 H 0.94477 0.30517 0.15085 0.0
H424 H 0.99257 0.19538 0.15757 0.0
C425 C 0.13298 0.25534 0.15355 0.0
C426 C 0.15127 0.29007 0.15303 0.0
C427 C 0.13014 0.32294 0.15096 0.0
C428 C 0.09134 0.32144 0.1495 0.0
C429 C 0.07402 0.28687 0.15029 0.0
C430 C 0.09406 0.2544 0.15238 0.0
C431 C 0.06829 0.22132 0.15427 0.0
C432 C 0.07371 0.19336 0.14064 0.0
C433 C 0.07378 0.20266 0.17053 0.0
C434 C 0.03072 0.24038 0.15317 0.0
C435 C 0.03473 0.2781 0.1506 0.0
C436 C 1.00415 0.30178 0.14954 0.0
C437 C 0.9685 0.28664 0.15138 0.0
C438 C 0.96368 0.24823 0.15446 0.0
C439 C 0.9953 0.22482 0.15517 0.0
H440 H 0.01161 0.98496 0.46287 0.0
H441 H 0.12972 0.97252 0.45369 0.0
H442 H 0.14312 0.98457 0.48199 0.0
H443 H 0.02067 0.06082 0.48946 0.0
H444 H 0.98345 0.04653 0.5024 0.0
H445 H 0.98254 0.03374 0.48173 0.0
H446 H 0.97704 0.96414 0.4893 0.0
H447 H 0.97731 0.97675 0.51 0.0
H448 H 0.01088 0.94387 0.50252 0.0
H449 H 0.14381 0.99897 0.51102 0.0
H450 H 0.13164 0.0142 0.53914 0.0
H451 H 0.01343 0.02126 0.5291 0.0
C452 C 0.0402 0.98397 0.46691 0.0
C453 C 0.06964 0.9774 0.45619 0.0
C454 C 0.10679 0.97731 0.46178 0.0
C455 C 0.11467 0.98418 0.4778 0.0
C456 C 0.0851 0.99152 0.488 0.0
C457 C 0.04861 0.99144 0.48282 0.0
C458 C 0.02217 1.00186 0.49608 0.0
C459 C 1.00096 0.03788 0.49218 0.0
C460 C 0.99527 0.96974 0.49969 0.0
C461 C 0.04951 0.00778 0.50953 0.0
C462 C 0.08563 1.00144 0.50462 0.0
C463 C 0.11566 1.00415 0.515 0.0
C464 C 0.1085 0.01289 0.53092 0.0
C465 C 0.07168 0.01927 0.53622 0.0
C466 C 0.04192 0.01719 0.52531 0.0
H467 H 0.29189 0.77594 0.78617 0.0
H468 H 0.29032 0.65755 0.79612 0.0
H469 H 0.30916 0.64453 0.76846 0.0
H470 H 0.25423 0.76835 0.74623 0.0
H471 H 0.2823 0.80595 0.73876 0.0
H472 H 0.26842 0.80548 0.75929 0.0
H473 H 0.33762 0.81066 0.76768 0.0
H474 H 0.35175 0.81041 0.74717 0.0
H475 H 0.37051 0.77646 0.76072 0.0
H476 H 0.33199 0.64474 0.74025 0.0
H477 H 0.3472 0.65742 0.71219 0.0
H478 H 0.33096 0.77551 0.72045 0.0
C479 C 0.29514 0.74725 0.78249 0.0
C480 C 0.28974 0.71774 0.79328 0.0
C481 C 0.29407 0.68057 0.788 0.0
C482 C 0.30509 0.67292 0.77237 0.0
C483 C 0.31118 0.70273 0.76216 0.0
C484 C 0.30558 0.7391 0.76689 0.0
C485 C 0.31284 0.76601 0.75346 0.0
C486 C 0.27733 0.78771 0.74918 0.0
C487 C 0.3451 0.79243 0.75751 0.0
C488 C 0.32359 0.73908 0.74043 0.0
C489 C 0.32301 0.70276 0.74575 0.0
C490 C 0.33231 0.67304 0.7359 0.0
C491 C 0.34121 0.68056 0.72003 0.0
C492 C 0.3402 0.71744 0.71415 0.0
C493 C 0.33194 0.74703 0.72461 0.0
H494 H 0.62975 0.9914 0.02325 0.0
H495 H 0.51331 0.96584 0.03126 0.0
H496 H 0.49993 0.97711 0.00299 0.0
H497 H 0.61395 0.06618 -0.00292 0.0
H498 H 0.65265 0.05644 0.98413 0.0
H499 H 0.65456 0.04272 0.00467 0.0
H500 H 0.66732 0.97449 -0.0036 0.0
H501 H 0.66606 0.9881 0.97583 0.0
H502 H 0.63597 0.95159 0.98284 0.0
H503 H 0.49792 0.99466 0.97475 0.0
H504 H 0.50779 0.01452 0.94718 0.0
H505 H 0.62537 0.03073 0.95696 0.0
C506 C 0.60168 0.98727 0.01892 0.0
C507 C 0.57256 0.97748 0.02937 0.0
C508 C 0.53598 0.97324 0.02341 0.0
C509 C 0.5281 0.97961 0.0074 0.0
C510 C 0.55709 0.9904 -0.0025 0.0
C511 C 0.5932 0.99399 0.00293 0.0
C512 C 0.61865 0.00777 0.98983 0.0
C513 C 0.63596 0.04552 0.9942 0.0
C514 C 0.64878 0.97875 0.986 0.0
C515 C 0.59106 0.01162 0.9763 0.0
C516 C 0.55578 1.00131 0.98105 0.0
C517 C 0.52544 1.0026 0.97083 0.0
C518 C 0.53136 0.01405 0.95519 0.0
C519 C 0.56736 0.02421 0.94988 0.0
C520 C 0.59751 0.02338 0.96068 0.0
H521 H 0.2935 0.31397 0.21135 0.0
H522 H 0.32852 0.20171 0.19958 0.0
H523 H 0.35017 0.19262 0.22708 0.0
H524 H 0.37112 0.33454 0.23721 0.0
H525 H 0.34378 0.36127 0.25106 0.0
H526 H 0.33038 0.35915 0.23046 0.0
H527 H 0.26501 0.33524 0.23841 0.0
H528 H 0.27805 0.33777 0.25902 0.0
H529 H 0.26112 0.29465 0.25083 0.0
H530 H 0.3654 0.19449 0.25585 0.0
H531 H 0.37314 0.20735 0.28449 0.0
H532 H 0.33243 0.31966 0.27741 0.0
C533 C 0.30544 0.28741 0.21462 0.0
C534 C 0.30917 0.25846 0.20339 0.0
C535 C 0.32542 0.22425 0.20802 0.0
C536 C 0.33787 0.21884 0.22359 0.0
C537 C 0.33435 0.24808 0.23431 0.0
C538 C 0.31861 0.28171 0.23008 0.0
C539 C 0.31828 0.30856 0.24396 0.0
C540 C 0.34233 0.34291 0.24046 0.0
C541 C 0.27824 0.31969 0.24831 0.0
C542 C 0.33575 0.28451 0.2567 0.0
C543 C 0.34476 0.24971 0.25085 0.0
C544 C 0.35898 0.22177 0.26054 0.0
C545 C 0.36334 0.22932 0.27674 0.0
C546 C 0.354 0.26463 0.283 0.0
C547 C 0.34075 0.29278 0.27279 0.0
H548 H 0.82622 0.19787 0.21741 0.0
H549 H 0.8332 0.31666 0.20876 0.0
H550 H 0.8181 0.32898 0.23677 0.0
H551 H 0.74799 0.2028 0.24363 0.0
H552 H 0.76393 0.16636 0.25665 0.0
H553 H 0.77735 0.16619 0.23605 0.0
H554 H 0.84686 0.16421 0.24413 0.0
H555 H 0.83364 0.16403 0.26476 0.0
H556 H 0.86492 0.19916 0.25742 0.0
H557 H 0.80217 0.32906 0.26527 0.0
H558 H 0.78587 0.31684 0.29316 0.0
H559 H 0.78601 0.19811 0.28367 0.0
C560 C 0.82505 0.22641 0.2215 0.0
C561 C 0.83105 0.25633 0.21095 0.0
C562 C 0.82866 0.29333 0.21664 0.0
C563 C 0.82012 0.30064 0.23253 0.0
C564 C 0.81371 0.27066 0.24256 0.0
C565 C 0.81599 0.23428 0.23735 0.0
C566 C 0.80659 0.20738 0.25062 0.0
C567 C 0.7719 0.18433 0.24649 0.0
C568 C 0.84 0.18221 0.25446 0.0
C569 C 0.79877 0.23443 0.26405 0.0
C570 C 0.80327 0.27075 0.25909 0.0
C571 C 0.79846 0.30077 0.26932 0.0
C572 C 0.78921 0.29352 0.28513 0.0
C573 C 0.78451 0.25656 0.29056 0.0
C574 C 0.78898 0.22666 0.2798 0.0
H575 H 0.75799 0.76991 0.71341 0.0
H576 H 0.86739 0.78185 0.69246 0.0
H577 H 0.89568 0.78272 0.71926 0.0
H578 H 0.77261 0.82618 0.7483 0.0
H579 H 0.74695 0.79562 0.76121 0.0
H580 H 0.73525 0.79825 0.74045 0.0
H581 H 0.74407 0.72697 0.73781 0.0
H582 H 0.75581 0.72413 0.75855 0.0
H583 H 0.78749 0.70619 0.74384 0.0
H584 H 0.91147 0.78519 0.7485 0.0
H585 H 0.91431 0.78139 0.77789 0.0
H586 H 0.79561 0.76071 0.77935 0.0
C587 C 0.78785 0.77297 0.71453 0.0
C588 C 0.8106 0.77624 0.70099 0.0
C589 C 0.84962 0.7794 0.70278 0.0
C590 C 0.86586 0.78005 0.71792 0.0
C591 C 0.84271 0.77667 0.73108 0.0
C592 C 0.80462 0.77255 0.72954 0.0
C593 C 0.78627 0.76706 0.74552 0.0
C594 C 0.75864 0.79867 0.74908 0.0
C595 C 0.7673 0.72881 0.74648 0.0
C596 C 0.81992 0.76904 0.75629 0.0
C597 C 0.85216 0.77525 0.74779 0.0
C598 C 0.88649 0.77984 0.75528 0.0
C599 C 0.88788 0.77773 0.77192 0.0
C600 C 0.85532 0.77019 0.78073 0.0
C601 C 0.82102 0.76577 0.7728 0.0
H602 H 0.52315 0.48811 0.95986 0.0
H603 H 0.63989 0.45971 0.95506 0.0
H604 H 0.64945 0.47233 0.98362 0.0
H605 H 0.53751 0.56464 0.98553 0.0
H606 H 0.49643 0.55695 -0.00268 0.0
H607 H 0.49754 0.54206 0.97691 0.0
H608 H 0.48116 0.47481 0.98539 0.0
H609 H 0.47947 0.4896 0.00582 0.0
H610 H 0.50943 0.45171 6e-05 0.0
H611 H 0.6467 0.48922 0.0123 0.0
H612 H 0.63212 0.51004 0.03951 0.0
H613 H 0.51809 0.532 0.02539 0.0
C614 C 0.55048 0.48371 0.96494 0.0
C615 C 0.58072 0.47241 0.95538 0.0
C616 C 0.61637 0.46805 0.96226 0.0
C617 C 0.62204 0.47519 0.97843 0.0
C618 C 0.59188 0.48717 0.98746 0.0
C619 C 0.5568 0.49147 0.981 0.0
C620 C 0.5297 0.50686 0.99313 0.0
C621 C 0.51441 0.54489 0.9879 0.0
C622 C 0.49807 0.47908 -0.00371 0.0
C623 C 0.55507 0.51059 0.0074 0.0
C624 C 0.59071 0.49873 0.00389 0.0
C625 C 0.61894 0.49868 0.0152 0.0
C626 C 0.6104 0.51059 0.03059 0.0
C627 C 0.5741 0.5229 0.03448 0.0
C628 C 0.54621 0.52328 0.02267 0.0
H629 H 0.08403 0.44419 0.52508 0.0
H630 H 0.10388 0.55293 0.54561 0.0
H631 H 0.11052 0.57972 0.51874 0.0
H632 H 0.14504 0.45275 0.49061 0.0
H633 H 0.11313 0.42948 0.47742 0.0
H634 H 0.11364 0.41806 0.49824 0.0
H635 H 0.0432 0.43283 0.50007 0.0
H636 H 0.04249 0.44428 0.47928 0.0
H637 H 0.02647 0.47768 0.49371 0.0
H638 H 0.11528 0.59456 0.48978 0.0
H639 H 0.11066 0.59806 0.4605 0.0
H640 H 0.08145 0.48112 0.45878 0.0
C641 C 0.09029 0.47349 0.52383 0.0
C642 C 0.09399 0.49657 0.53727 0.0
C643 C 0.1012 0.53495 0.53534 0.0
C644 C 0.10515 0.55032 0.52017 0.0
C645 C 0.1011 0.52698 0.50709 0.0
C646 C 0.09329 0.48951 0.50873 0.0
C647 C 0.08713 0.47135 0.49271 0.0
C648 C 0.11649 0.44112 0.48956 0.0
C649 C 0.04746 0.45562 0.49137 0.0
C650 C 0.09254 0.50447 0.48186 0.0
C651 C 0.10133 0.53611 0.49038 0.0
C652 C 0.10826 0.57003 0.48296 0.0
C653 C 0.10568 0.57175 0.46637 0.0
C654 C 0.09545 0.53996 0.45748 0.0
C655 C 0.08897 0.50592 0.46535 0.0
H656 H 0.27634 0.83358 0.62844 0.0
H657 H 0.26115 0.87327 0.67655 0.0
H658 H 0.22414 0.92635 0.66653 0.0
H659 H 0.27527 0.92623 0.60762 0.0
H660 H 0.24836 0.90771 0.59138 0.0
H661 H 0.2806 0.87822 0.60188 0.0
H662 H 0.22742 0.83151 0.60755 0.0
H663 H 0.19505 0.86089 0.59721 0.0
H664 H 0.18593 0.84751 0.61745 0.0
H665 H 0.18303 0.97085 0.6516 0.0
H666 H 0.1373 0.99975 0.6334 0.0
H667 H 0.17506 0.92746 0.59544 0.0
C668 C 0.2665 0.85441 0.63674 0.0
C669 C 0.2723 0.85017 0.65318 0.0
C670 C 0.25748 0.87668 0.66386 0.0
C671 C 0.23654 0.90688 0.65827 0.0
C672 C 0.23023 0.90978 0.64199 0.0
C673 C 0.24465 0.88412 0.63137 0.0
C674 C 0.22919 0.89011 0.61484 0.0
C675 C 0.26021 0.90124 0.60325 0.0
C676 C 0.20815 0.85546 0.60893 0.0
C677 C 0.20294 0.92225 0.61792 0.0
C678 C 0.20468 0.93393 0.63354 0.0
C679 C 0.18173 0.96221 0.6393 0.0
C680 C 0.15586 0.97848 0.6289 0.0
C681 C 0.15264 0.96575 0.61306 0.0
C682 C 0.17696 0.93775 0.6075 0.0
H683 H 0.3352 0.85236 0.87523 0.0
H684 H 0.32843 0.89129 0.82678 0.0
H685 H 0.36232 0.94859 0.83426 0.0
H686 H 0.33634 0.94678 0.89613 0.0
H687 H 0.37075 0.93037 0.91004 0.0
H688 H 0.33661 0.89867 0.9021 0.0
H689 H 0.38953 0.85521 0.89248 0.0
H690 H 0.4237 0.88677 0.90019 0.0
H691 H 0.42505 0.87346 0.87956 0.0
H692 H 0.40589 0.99587 0.84589 0.0
H693 H 0.45877 0.02564 0.85984 0.0
H694 H 0.44138 0.95265 0.90003 0.0
C695 C 0.33911 0.87404 0.86647 0.0
C696 C 0.32814 0.86842 0.85061 0.0
C697 C 0.33572 0.89594 0.8391 0.0
C698 C 0.35492 0.92849 0.84327 0.0
C699 C 0.36685 0.93269 0.85894 0.0
C700 C 0.35921 0.90611 0.87037 0.0
C701 C 0.38092 0.91341 0.88546 0.0
C702 C 0.35457 0.92288 0.89925 0.0
C703 C 0.4063 0.88026 0.88965 0.0
C704 C 0.40328 0.94706 0.88049 0.0
C705 C 0.39393 0.9586 0.86537 0.0
C706 C 0.41296 0.98749 0.85785 0.0
C707 C 0.44292 1.00428 0.86584 0.0
C708 C 0.45402 0.9914 0.88098 0.0
C709 C 0.43327 0.96317 0.8885 0.0
H710 H 0.48553 0.04326 0.11964 0.0
H711 H 0.43118 0.02881 0.07423 0.0
H712 H 0.37661 0.06411 0.08398 0.0
H713 H 0.39909 0.04644 0.14558 0.0
H714 H 0.4189 0.0828 0.15765 0.0
H715 H 0.44867 0.04829 0.1487 0.0
H716 H 0.48721 0.10067 0.13552 0.0
H717 H 0.45746 0.13521 0.14424 0.0
H718 H 0.46404 0.13416 0.12303 0.0
H719 H 0.33236 0.10843 0.09728 0.0
H720 H 0.3046 0.16109 0.11215 0.0
H721 H 0.39075 0.15057 0.14791 0.0
C722 C 0.46125 0.04602 0.11211 0.0
C723 C 0.46165 0.03242 0.09644 0.0
C724 C 0.43062 0.03828 0.08645 0.0
C725 C 0.3996 0.05825 0.09189 0.0
C726 C 0.40044 0.07259 0.10728 0.0
C727 C 0.43054 0.06674 0.11725 0.0
C728 C 0.42756 0.09017 0.13214 0.0
C729 C 0.42329 0.06544 0.14689 0.0
C730 C 0.46104 0.11661 0.13381 0.0
C731 C 0.39204 0.11126 0.12868 0.0
C732 C 0.37614 0.09998 0.11453 0.0
C733 C 0.34427 0.11711 0.10849 0.0
C734 C 0.32869 0.14696 0.11698 0.0
C735 C 0.34565 0.15984 0.13111 0.0
C736 C 0.37722 0.14122 0.13712 0.0
H737 H 0.18231 0.07194 0.40165 0.0
H738 H 0.15378 0.99883 0.36251 0.0
H739 H 0.20191 0.02896 0.34598 0.0
H740 H 0.19238 0.15113 0.38027 0.0
H741 H 0.23124 0.16977 0.39121 0.0
H742 H 0.19954 0.13835 0.40073 0.0
H743 H 0.25428 0.09466 0.40802 0.0
H744 H 0.28632 0.12615 0.39856 0.0
H745 H 0.28488 0.078 0.39262 0.0
H746 H 0.24338 0.07476 0.33243 0.0
H747 H 0.27834 0.12995 0.32338 0.0
H748 H 0.2834 0.17088 0.37169 0.0
C749 C 0.1869 0.06156 0.38974 0.0
C750 C 0.16437 0.03306 0.38333 0.0
C751 C 0.17095 0.02042 0.36768 0.0
C752 C 0.19823 0.03737 0.35822 0.0
C753 C 0.21915 0.06629 0.36474 0.0
C754 C 0.21428 0.07782 0.38025 0.0
C755 C 0.23801 0.11149 0.38403 0.0
C756 C 0.21384 0.14462 0.38936 0.0
C757 C 0.26764 0.10199 0.39655 0.0
C758 C 0.25554 0.11842 0.36798 0.0
C759 C 0.24455 0.09182 0.35704 0.0
C760 C 0.25317 0.09501 0.34098 0.0
C761 C 0.27291 0.12643 0.33593 0.0
C762 C 0.2842 0.15394 0.34694 0.0
C763 C 0.27624 0.14942 0.36319 0.0
H764 H 0.93225 0.0212 0.3819 0.0
H765 H 0.00666 0.10111 0.404 0.0
H766 H 0.96292 0.15155 0.39764 0.0
H767 H 0.90614 0.07985 0.3495 0.0
H768 H 0.85855 0.06421 0.34879 0.0
H769 H 0.8944 0.03359 0.35601 0.0
H770 H 0.8579 0.02497 0.38226 0.0
H771 H 0.82204 0.05581 0.37515 0.0
H772 H 0.84496 0.06526 0.39376 0.0
H773 H 0.91298 0.19329 0.38876 0.0
H774 H 0.8616 0.22583 0.37557 0.0
H775 H 0.81905 0.12036 0.35807 0.0
C776 C 0.93914 0.0493 0.38548 0.0
C777 C 0.97283 0.05721 0.3935 0.0
C778 C 0.98113 0.09437 0.3978 0.0
C779 C 0.95634 0.12321 0.39435 0.0
C780 C 0.92344 0.11455 0.38648 0.0
C781 C 0.91484 0.07867 0.38192 0.0
C782 C 0.87854 0.07765 0.3727 0.0
C783 C 0.8848 0.06296 0.35575 0.0
C784 C 0.84912 0.05455 0.38149 0.0
C785 C 0.86844 0.11864 0.37267 0.0
C786 C 0.89459 0.13917 0.38091 0.0
C787 C 0.89225 0.17759 0.38229 0.0
C788 C 0.86289 0.1958 0.37471 0.0
C789 C 0.83626 0.1757 0.36572 0.0
C790 C 0.83873 0.13646 0.36496 0.0
H791 H 0.69715 0.02334 0.10793 0.0
H792 H 0.61679 0.10257 0.08942 0.0
H793 H 0.65414 0.15409 0.09997 0.0
H794 H 0.71494 0.07253 0.14426 0.0
H795 H 0.76388 0.06169 0.14481 0.0
H796 H 0.73193 0.03042 0.13516 0.0
H797 H 0.77055 0.03451 0.10928 0.0
H798 H 0.80258 0.06589 0.11884 0.0
H799 H 0.7799 0.07938 0.10065 0.0
H800 H 0.69828 0.19693 0.11257 0.0
H801 H 0.74626 0.22969 0.12782 0.0
H802 H 0.79903 0.12415 0.1391 0.0
C803 C 0.6876 0.05155 0.10603 0.0
C804 C 0.65401 0.05884 0.0978 0.0
C805 C 0.64229 0.09615 0.0957 0.0
C806 C 0.6634 0.12571 0.1016 0.0
C807 C 0.69618 0.11764 0.10965 0.0
C808 C 0.70829 0.0816 0.11199 0.0
C809 C 0.74398 0.08105 0.12167 0.0
C810 C 0.73833 0.06019 0.13741 0.0
C811 C 0.77616 0.06421 0.11203 0.0
C812 C 0.74973 0.12239 0.12444 0.0
C813 C 0.72185 0.1428 0.11726 0.0
C814 C 0.72033 0.18133 0.11825 0.0
C815 C 0.74779 0.19967 0.12699 0.0
C816 C 0.7765 0.17956 0.13473 0.0
C817 C 0.77762 0.14033 0.13327 0.0
H818 H 0.80723 0.88302 0.85672 0.0
H819 H 0.73062 0.79388 0.84452 0.0
H820 H 0.67814 0.83253 0.85279 0.0
H821 H 0.75666 0.91319 0.89193 0.0
H822 H 0.76574 0.96193 0.88885 0.0
H823 H 0.79832 0.92765 0.88177 0.0
H824 H 0.79331 0.95512 0.85344 0.0
H825 H 0.76046 0.9893 0.86043 0.0
H826 H 0.74829 0.95906 0.84416 0.0
H827 H 0.63366 0.87946 0.8614 0.0
H828 H 0.59854 0.93166 0.87252 0.0
H829 H 0.70169 0.99195 0.88055 0.0
C830 C 0.77942 0.87166 0.85586 0.0
C831 C 0.77328 0.8353 0.84989 0.0
C832 C 0.73637 0.8215 0.84902 0.0
C833 C 0.70615 0.84332 0.85364 0.0
C834 C 0.71302 0.87896 0.85925 0.0
C835 C 0.74858 0.89311 0.86061 0.0
C836 C 0.74754 0.93223 0.86751 0.0
C837 C 0.7683 0.93383 0.88346 0.0
C838 C 0.76334 0.96061 0.85567 0.0
C839 C 0.70588 0.93753 0.86975 0.0
C840 C 0.68675 0.9064 0.86473 0.0
C841 C 0.64823 0.90401 0.86546 0.0
C842 C 0.62853 0.93398 0.87181 0.0
C843 C 0.64723 0.96604 0.87751 0.0
C844 C 0.68653 0.96795 0.87626 0.0
H845 H 0.81619 0.89746 0.63805 0.0
H846 H 0.82775 0.80338 0.6061 0.0
H847 H 0.87422 0.8378 0.59059 0.0
H848 H 0.8329 0.97214 0.60685 0.0
H849 H 0.85862 1.00041 0.62071 0.0
H850 H 0.82118 0.97134 0.62765 0.0
H851 H 0.86622 0.94031 0.64764 0.0
H852 H 0.90391 0.96867 0.6406 0.0
H853 H 0.90825 0.91874 0.64045 0.0
H854 H 0.92689 0.87577 0.58185 0.0
H855 H 0.9787 0.91962 0.57804 0.0
H856 H 0.9329 0.99174 0.61444 0.0
C857 C 0.82737 0.88482 0.6274 0.0
C858 C 0.81825 0.84782 0.62322 0.0
C859 C 0.83429 0.83171 0.60949 0.0
C860 C 0.8607 0.85104 0.60058 0.0
C861 C 0.87056 0.88667 0.60545 0.0
C862 C 0.85396 0.90387 0.61831 0.0
C863 C 0.8722 0.94113 0.62173 0.0
C864 C 0.84458 0.97316 0.61907 0.0
C865 C 0.88861 0.94224 0.6386 0.0
C866 C 0.90261 0.94123 0.60924 0.0
C867 C 0.90092 0.90952 0.59997 0.0
C868 C 0.92799 0.90119 0.58872 0.0
C869 C 0.95749 0.92605 0.58675 0.0
C870 C 0.95952 0.95905 0.59586 0.0
C871 C 0.93151 0.96697 0.60714 0.0
H872 H 0.77349 0.337 0.12142 0.0
H873 H 0.81222 0.40612 0.16006 0.0
H874 H 0.77598 0.45933 0.14936 0.0
H875 H 0.76655 0.41198 0.09017 0.0
H876 H 0.72473 0.39146 0.08225 0.0
H877 H 0.76002 0.36233 0.091 0.0
H878 H 0.71067 0.33475 0.11005 0.0
H879 H 0.67545 0.36414 0.1016 0.0
H880 H 0.68429 0.36556 0.12266 0.0
H881 H 0.72769 0.50164 0.13648 0.0
H882 H 0.67297 0.52869 0.12271 0.0
H883 H 0.66547 0.42991 0.09329 0.0
C884 C 0.77568 0.36393 0.12713 0.0
C885 C 0.79638 0.36821 0.14117 0.0
C886 C 0.79734 0.40301 0.14895 0.0
C887 C 0.77673 0.43319 0.14299 0.0
C888 C 0.75541 0.42779 0.12931 0.0
C889 C 0.75514 0.39401 0.1214 0.0
C890 C 0.72666 0.39353 0.10821 0.0
C891 C 0.74563 0.38961 0.09194 0.0
C892 C 0.69757 0.36269 0.1108 0.0
C893 C 0.70983 0.43171 0.11028 0.0
C894 C 0.72706 0.45146 0.12229 0.0
C895 C 0.71444 0.48661 0.12688 0.0
C896 C 0.68331 0.50173 0.11905 0.0
C897 C 0.66495 0.48136 0.10697 0.0
C898 C 0.67888 0.44621 0.10247 0.0
H899 H 0.88388 0.33056 0.3638 0.0
H900 H 0.78514 0.39938 0.36082 0.0
H901 H 0.81937 0.45102 0.37413 0.0
H902 H 0.91197 0.36083 0.40261 0.0
H903 H 0.96078 0.35783 0.3979 0.0
H904 H 0.92808 0.32763 0.38811 0.0
H905 H 0.95124 0.35092 0.3607 0.0
H906 H 0.98399 0.38118 0.3704 0.0
H907 H 0.95089 0.40005 0.35649 0.0
H908 H 0.86849 0.49666 0.38616 0.0
H909 H 0.92386 0.52819 0.3978 0.0
H910 H 0.98584 0.42509 0.39429 0.0
C911 C 0.86937 0.35653 0.36589 0.0
C912 C 0.83215 0.36136 0.36112 0.0
C913 C 0.81382 0.39537 0.36437 0.0
C914 C 0.83307 0.42473 0.37187 0.0
C915 C 0.87015 0.41905 0.37628 0.0
C916 C 0.8877 0.3854 0.37358 0.0
C917 C 0.92712 0.38523 0.37964 0.0
C918 C 0.93226 0.35617 0.39285 0.0
C919 C 0.95493 0.37899 0.366 0.0
C920 C 0.92952 0.42423 0.38608 0.0
C921 C 0.89677 0.44377 0.38393 0.0
C922 C 0.89398 0.48131 0.38813 0.0
C923 C 0.92546 0.49901 0.39469 0.0
C924 C 0.95876 0.47882 0.39721 0.0
C925 C 0.96046 0.44103 0.3929 0.0
H926 H 0.98261 0.58989 0.59522 0.0
H927 H 0.9293 0.48387 0.60426 0.0
H928 H 0.87505 0.51716 0.61586 0.0
H929 H 0.9582 0.63106 0.63096 0.0
H930 H 0.95223 0.67687 0.62269 0.0
H931 H 0.98386 0.64462 0.61352 0.0
H932 H 0.9491 0.65177 0.58669 0.0
H933 H 0.91741 0.68426 0.59576 0.0
H934 H 0.89968 0.64353 0.58583 0.0
H935 H 0.82759 0.56432 0.62786 0.0
H936 H 0.79491 0.6187 0.63979 0.0
H937 H 0.88349 0.69074 0.62345 0.0
C938 C 0.95935 0.57343 0.59936 0.0
C939 C 0.96008 0.53426 0.59873 0.0
C940 C 0.92918 0.51397 0.60452 0.0
C941 C 0.8983 0.53266 0.61111 0.0
C942 C 0.89897 0.5715 0.61181 0.0
C943 C 0.9289 0.59144 0.60604 0.0
C944 C 0.92491 0.63255 0.6091 0.0
C945 C 0.95667 0.6471 0.6197 0.0
C946 C 0.92262 0.6543 0.59341 0.0
C947 C 0.88825 0.63292 0.61772 0.0
C948 C 0.87312 0.59773 0.61904 0.0
C949 C 0.83927 0.59193 0.62683 0.0
C950 C 0.82089 0.62286 0.63355 0.0
C951 C 0.83694 0.65872 0.63265 0.0
C952 C 0.87073 0.66356 0.62448 0.0
H953 H 0.75674 0.63282 0.83107 0.0
H954 H 0.84674 0.64485 0.865 0.0
H955 H 0.82118 0.59267 0.8806 0.0
H956 H 0.68785 0.61957 0.85753 0.0
H957 H 0.6619 0.58572 0.84628 0.0
H958 H 0.6912 0.61841 0.83618 0.0
H959 H 0.72666 0.56425 0.82263 0.0
H960 H 0.69725 0.53123 0.83268 0.0
H961 H 0.74708 0.52813 0.83463 0.0
H962 H 0.77879 0.54976 0.89527 0.0
H963 H 0.72496 0.51681 0.90692 0.0
H964 H 0.66443 0.52915 0.86284 0.0
C965 C 0.77177 0.62368 0.84151 0.0
C966 C 0.80377 0.64283 0.84682 0.0
C967 C 0.82238 0.63038 0.86063 0.0
C968 C 0.80806 0.60073 0.86956 0.0
C969 C 0.77558 0.58335 0.86432 0.0
C970 C 0.75805 0.59395 0.85044 0.0
C971 C 0.72157 0.57352 0.84822 0.0
C972 C 0.68872 0.60094 0.84699 0.0
C973 C 0.72326 0.54774 0.83368 0.0
C974 C 0.72017 0.55137 0.86348 0.0
C975 C 0.75182 0.55708 0.87253 0.0
C976 C 0.75456 0.54392 0.88806 0.0
C977 C 0.72394 0.52526 0.89459 0.0
C978 C 0.69136 0.51947 0.88553 0.0
C979 C 0.68982 0.53179 0.86968 0.0
H980 H 0.44964 0.52381 0.88696 0.0
H981 H 0.54551 0.59683 0.89058 0.0
H982 H 0.50633 0.65016 0.88313 0.0
H983 H 0.40851 0.5686 0.85293 0.0
H984 H 0.3614 0.56244 0.85974 0.0
H985 H 0.39693 0.52983 0.86553 0.0
H986 H 0.38112 0.54169 0.89512 0.0
H987 H 0.34579 0.57465 0.88941 0.0
H988 H 0.3824 0.58849 0.9028 0.0
H989 H 0.45757 0.69557 0.87522 0.0
H990 H 0.40255 0.72995 0.86582 0.0
H991 H 0.33755 0.62827 0.86733 0.0
C992 C 0.46244 0.55098 0.88613 0.0
C993 C 0.50074 0.55602 0.88939 0.0
C994 C 0.5163 0.59212 0.88817 0.0
C995 C 0.49424 0.6227 0.88399 0.0
C996 C 0.4566 0.61685 0.88106 0.0
C997 C 0.44078 0.58193 0.88197 0.0
C998 C 0.39966 0.58338 0.87792 0.0
C999 C 0.39114 0.55966 0.86315 0.0
C1000 C 0.37584 0.57134 0.89216 0.0
C1001 C 0.395 0.62454 0.87452 0.0
C1002 C 0.42822 0.64327 0.87649 0.0
C1003 C 0.43135 0.68126 0.87367 0.0
C1004 C 0.39988 0.70055 0.86834 0.0
C1005 C 0.36564 0.68189 0.86588 0.0
C1006 C 0.36315 0.64345 0.86929 0.0
H1007 H 0.20018 0.51215 0.60483 0.0
H1008 H 0.09798 0.53572 0.63038 0.0
H1009 H 0.13018 0.58389 0.6459 0.0
H1010 H 0.26478 0.53018 0.639 0.0
H1011 H 0.29915 0.55144 0.62638 0.0
H1012 H 0.26953 0.51525 0.61867 0.0
H1013 H 0.24873 0.55916 0.59599 0.0
H1014 H 0.27771 0.59569 0.60377 0.0
H1015 H 0.2287 0.60373 0.60083 0.0
H1016 H 0.16969 0.6343 0.65597 0.0
H1017 H 0.21718 0.68086 0.66253 0.0
H1018 H 0.29557 0.62527 0.63121 0.0
C1019 C 0.185 0.52661 0.61406 0.0
C1020 C 0.14661 0.5201 0.61645 0.0
C1021 C 0.12739 0.54023 0.62836 0.0
C1022 C 0.14541 0.56767 0.63724 0.0
C1023 C 0.18276 0.57456 0.63415 0.0
C1024 C 0.20264 0.55433 0.62307 0.0
C1025 C 0.24202 0.56917 0.62151 0.0
C1026 C 0.27056 0.53975 0.6267 0.0
C1027 C 0.24972 0.58274 0.60452 0.0
C1028 C 0.24066 0.60142 0.63314 0.0
C1029 C 0.20613 0.60385 0.64025 0.0
C1030 C 0.19707 0.63238 0.65071 0.0
C1031 C 0.22422 0.65891 0.65424 0.0
C1032 C 0.26019 0.65671 0.64743 0.0
C1033 C 0.26844 0.62752 0.63671 0.0
H1034 H 0.1976 0.49995 0.38421 0.0
H1035 H 0.09144 0.45168 0.3708 0.0
H1036 H 0.12388 0.40187 0.35636 0.0
H1037 H 0.24753 0.47578 0.34683 0.0
H1038 H 0.29019 0.46524 0.35715 0.0
H1039 H 0.2588 0.49972 0.36503 0.0
H1040 H 0.25653 0.46393 0.39168 0.0
H1041 H 0.28752 0.42914 0.38383 0.0
H1042 H 0.24296 0.41569 0.39174 0.0
H1043 H 0.16649 0.35414 0.3458 0.0
H1044 H 0.21781 0.31265 0.33803 0.0
H1045 H 0.2974 0.39093 0.3578 0.0
C1046 C 0.18129 0.47944 0.37787 0.0
C1047 C 0.142 0.47975 0.37859 0.0
C1048 C 0.12156 0.45197 0.37043 0.0
C1049 C 0.13971 0.42356 0.36217 0.0
C1050 C 0.17836 0.42326 0.36211 0.0
C1051 C 0.19905 0.45058 0.36957 0.0
C1052 C 0.24034 0.44224 0.36834 0.0
C1053 C 0.2604 0.47255 0.35876 0.0
C1054 C 0.25785 0.43746 0.38488 0.0
C1055 C 0.23939 0.40567 0.35934 0.0
C1056 C 0.2033 0.39541 0.35585 0.0
C1057 C 0.19495 0.36203 0.34827 0.0
C1058 C 0.22433 0.33854 0.34399 0.0
C1059 C 0.26167 0.34852 0.34725 0.0
C1060 C 0.26919 0.38263 0.35502 0.0
H1061 H 0.49464 0.43737 0.10645 0.0
H1062 H 0.42358 0.53418 0.10079 0.0
H1063 H 0.37036 0.49835 0.11117 0.0
H1064 H 0.42729 0.36999 0.09437 0.0
H1065 H 0.44215 0.33544 0.1085 0.0
H1066 H 0.47494 0.36894 0.10103 0.0
H1067 H 0.49065 0.3894 0.12978 0.0
H1068 H 0.45812 0.35576 0.13734 0.0
H1069 H 0.45367 0.40402 0.14282 0.0
H1070 H 0.32476 0.45176 0.12206 0.0
H1071 H 0.2905 0.39824 0.13309 0.0
H1072 H 0.39131 0.33175 0.13107 0.0
C1073 C 0.46799 0.4512 0.10749 0.0
C1074 C 0.46337 0.48868 0.10283 0.0
C1075 C 0.42787 0.50554 0.10429 0.0
C1076 C 0.39744 0.4854 0.11015 0.0
C1077 C 0.40291 0.44841 0.11446 0.0
C1078 C 0.4373 0.43149 0.11323 0.0
C1079 C 0.43571 0.3913 0.11852 0.0
C1080 C 0.44561 0.36487 0.10478 0.0
C1081 C 0.46103 0.38475 0.13298 0.0
C1082 C 0.39504 0.38826 0.12294 0.0
C1083 C 0.37659 0.42149 0.12053 0.0
C1084 C 0.33891 0.42558 0.12398 0.0
C1085 C 0.31968 0.39499 0.13022 0.0
C1086 C 0.33813 0.36071 0.13291 0.0
C1087 C 0.37626 0.35742 0.12906 0.0
loop_
_geom_bond_atom_site_label_1
_geom_bond_atom_site_label_2
_geom_bond_distance
_geom_bond_site_symmetry_2
_ccdc_geom_bond_type
O0 Cd1 2.223 . S
O0 C8 1.315 1_655 S
Cd1 O0 2.223 . S
Cd1 O4 2.297 1_655 S
Cd1 O5 2.439 1_655 S
Cd1 O11 2.240 1_655 S
Cd2 O3 2.240 1_565 S
Cd2 O10 2.223 . S
Cd2 O12 2.297 . S
Cd2 O13 2.439 1_565 S
O3 Cd2 2.240 1_545 S
O3 C8 1.279 . S
O4 Cd1 2.297 1_455 S
O4 C6 1.247 . S
O5 Cd1 2.439 1_455 S
O5 C6 1.208 . S
C6 O4 1.247 . S
C6 O5 1.208 . S
C7 O12 1.247 . S
C7 O13 1.208 1_565 S
C8 O0 1.315 1_455 S
C8 O3 1.279 . S
C9 O10 1.315 1_655 S
C9 O11 1.279 1_665 S
O10 Cd2 2.223 . S
O10 C9 1.315 1_455 S
O11 Cd1 2.240 1_455 S
O11 C9 1.279 1_445 S
O12 Cd2 2.297 . S
O12 C7 1.247 . S
O13 Cd2 2.439 1_545 S
O13 C7 1.208 1_545 S
O14 Cd15 2.223 . S
O14 C22 1.315 . S
Cd15 O14 2.223 . S
Cd15 O18 2.297 . S
Cd15 O19 2.439 . S
Cd15 O25 2.240 . S
Cd16 O17 2.240 . S
Cd16 O24 2.223 . S
Cd16 O26 2.297 . S
Cd16 O27 2.439 . S
O17 Cd16 2.240 . S
O17 C22 1.279 . S
O18 Cd15 2.297 . S
O18 C20 1.247 . S
O19 Cd15 2.439 . S
O19 C20 1.208 . S
C20 O18 1.247 . S
C20 O19 1.208 . S
C21 O26 1.247 . S
C21 O27 1.208 . S
C22 O14 1.315 . S
C22 O17 1.279 . S
C23 O24 1.315 . S
C23 O25 1.279 . S
O24 Cd16 2.223 . S
O24 C23 1.315 . S
O25 Cd15 2.240 . S
O25 C23 1.279 . S
O26 Cd16 2.297 . S
O26 C21 1.247 . S
O27 Cd16 2.439 . S
O27 C21 1.208 . S
O28 Cd29 2.223 . S
O28 C36 1.315 . S
Cd29 O28 2.223 . S
Cd29 O32 2.297 . S
Cd29 O33 2.439 . S
Cd29 O39 2.240 . S
Cd30 O31 2.240 1_545 S
Cd30 O38 2.223 . S
Cd30 O40 2.297 . S
Cd30 O41 2.439 1_545 S
O31 Cd30 2.240 1_565 S
O31 C36 1.279 . S
O32 Cd29 2.297 . S
O32 C34 1.247 . S
O33 Cd29 2.439 . S
O33 C34 1.208 . S
C34 O32 1.247 . S
C34 O33 1.208 . S
C35 O40 1.247 . S
C35 O41 1.208 1_545 S
C36 O28 1.315 . S
C36 O31 1.279 . S
C37 O38 1.315 . S
C37 O39 1.279 1_545 S
O38 Cd30 2.223 . S
O38 C37 1.315 . S
O39 Cd29 2.240 . S
O39 C37 1.279 1_565 S
O40 Cd30 2.297 . S
O40 C35 1.247 . S
O41 Cd30 2.439 1_565 S
O41 C35 1.208 1_565 S
O42 Cd43 2.223 . S
O42 C50 1.315 . S
Cd43 O42 2.223 . S
Cd43 O46 2.297 . S
Cd43 O47 2.439 . S
Cd43 O53 2.240 . S
Cd44 O45 2.240 . S
Cd44 O52 2.223 . S
Cd44 O54 2.297 . S
Cd44 O55 2.439 . S
O45 Cd44 2.240 . S
O45 C50 1.279 . S
O46 Cd43 2.297 . S
O46 C48 1.247 . S
O47 Cd43 2.439 . S
O47 C48 1.208 . S
C48 O46 1.247 . S
C48 O47 1.208 . S
C49 O54 1.247 . S
C49 O55 1.208 . S
C50 O42 1.315 . S
C50 O45 1.279 . S
C51 O52 1.315 . S
C51 O53 1.279 . S
O52 Cd44 2.223 . S
O52 C51 1.315 . S
O53 Cd43 2.240 . S
O53 C51 1.279 . S
O54 Cd44 2.297 . S
O54 C49 1.247 . S
O55 Cd44 2.439 . S
O55 C49 1.208 . S
O56 Cd57 2.223 . S
O56 C64 1.315 1_655 S
Cd57 O56 2.223 . S
Cd57 O60 2.297 1_655 S
Cd57 O61 2.439 1_655 S
Cd57 O67 2.240 1_655 S
Cd58 O59 2.240 1_545 S
Cd58 O66 2.223 . S
Cd58 O68 2.297 . S
Cd58 O69 2.439 1_545 S
O59 Cd58 2.240 1_565 S
O59 C64 1.279 . S
O60 Cd57 2.297 1_455 S
O60 C62 1.247 . S
O61 Cd57 2.439 1_455 S
O61 C62 1.208 . S
C62 O60 1.247 . S
C62 O61 1.208 . S
C63 O68 1.247 . S
C63 O69 1.208 1_545 S
C64 O56 1.315 1_455 S
C64 O59 1.279 . S
C65 O66 1.315 1_655 S
C65 O67 1.279 1_645 S
O66 Cd58 2.223 . S
O66 C65 1.315 1_455 S
O67 Cd57 2.240 1_455 S
O67 C65 1.279 1_465 S
O68 Cd58 2.297 . S
O68 C63 1.247 . S
O69 Cd58 2.439 1_565 S
O69 C63 1.208 1_565 S
O70 Cd71 2.223 . S
O70 C78 1.315 . S
Cd71 O70 2.223 . S
Cd71 O74 2.297 . S
Cd71 O75 2.439 . S
Cd71 O81 2.240 . S
Cd72 O73 2.240 . S
Cd72 O80 2.223 . S
Cd72 O82 2.297 . S
Cd72 O83 2.439 . S
O73 Cd72 2.240 . S
O73 C78 1.279 . S
O74 Cd71 2.297 . S
O74 C76 1.247 . S
O75 Cd71 2.439 . S
O75 C76 1.208 . S
C76 O74 1.247 . S
C76 O75 1.208 . S
C77 O82 1.247 . S
C77 O83 1.208 . S
C78 O70 1.315 . S
C78 O73 1.279 . S
C79 O80 1.315 . S
C79 O81 1.279 . S
O80 Cd72 2.223 . S
O80 C79 1.315 . S
O81 Cd71 2.240 . S
O81 C79 1.279 . S
O82 Cd72 2.297 . S
O82 C77 1.247 . S
O83 Cd72 2.439 . S
O83 C77 1.208 . S
O84 Cd85 2.223 . S
O84 C92 1.315 . S
Cd85 O84 2.223 . S
Cd85 O88 2.297 . S
Cd85 O89 2.439 . S
Cd85 O95 2.240 . S
Cd86 O87 2.240 1_565 S
Cd86 O94 2.223 . S
Cd86 O96 2.297 . S
Cd86 O97 2.439 1_565 S
O87 Cd86 2.240 1_545 S
O87 C92 1.279 . S
O88 Cd85 2.297 . S
O88 C90 1.247 . S
O89 Cd85 2.439 . S
O89 C90 1.208 . S
C90 O88 1.247 . S
C90 O89 1.208 . S
C91 O96 1.247 . S
C91 O97 1.208 1_565 S
C92 O84 1.315 . S
C92 O87 1.279 . S
C93 O94 1.315 . S
C93 O95 1.279 1_565 S
O94 Cd86 2.223 . S
O94 C93 1.315 . S
O95 Cd85 2.240 . S
O95 C93 1.279 1_545 S
O96 Cd86 2.297 . S
O96 C91 1.247 . S
O97 Cd86 2.439 1_545 S
O97 C91 1.208 1_545 S
O98 Cd99 2.223 . S
O98 C106 1.315 . S
Cd99 O98 2.223 . S
Cd99 O102 2.297 . S
Cd99 O103 2.439 . S
Cd99 O109 2.240 . S
Cd100 O101 2.240 . S
Cd100 O108 2.223 . S
Cd100 O110 2.297 . S
Cd100 O111 2.439 . S
O101 Cd100 2.240 . S
O101 C106 1.279 . S
O102 Cd99 2.297 . S
O102 C104 1.247 . S
O103 Cd99 2.439 . S
O103 C104 1.208 . S
C104 O102 1.247 . S
C104 O103 1.208 . S
C105 O110 1.247 . S
C105 O111 1.208 . S
C106 O98 1.315 . S
C106 O101 1.279 . S
C107 O108 1.315 . S
C107 O109 1.279 . S
O108 Cd100 2.223 . S
O108 C107 1.315 . S
O109 Cd99 2.240 . S
O109 C107 1.279 . S
O110 Cd100 2.297 . S
O110 C105 1.247 . S
O111 Cd100 2.439 . S
O111 C105 1.208 . S
O112 Cd113 2.223 . S
O112 C120 1.315 . S
Cd113 O112 2.223 . S
Cd113 O116 2.297 . S
Cd113 O117 2.439 . S
Cd113 O123 2.240 . S
Cd114 O115 2.240 . S
Cd114 O122 2.223 . S
Cd114 O124 2.297 . S
Cd114 O125 2.439 . S
O115 Cd114 2.240 . S
O115 C120 1.279 . S
O116 Cd113 2.297 . S
O116 C118 1.247 . S
O117 Cd113 2.439 . S
O117 C118 1.208 . S
C118 O116 1.247 . S
C118 O117 1.208 . S
C119 O124 1.247 . S
C119 O125 1.208 . S
C120 O112 1.315 . S
C120 O115 1.279 . S
C121 O122 1.315 . S
C121 O123 1.279 . S
O122 Cd114 2.223 . S
O122 C121 1.315 . S
O123 Cd113 2.240 . S
O123 C121 1.279 . S
O124 Cd114 2.297 . S
O124 C119 1.247 . S
O125 Cd114 2.439 . S
O125 C119 1.208 . S
O126 Cd127 2.223 . S
O126 C134 1.315 . S
Cd127 O126 2.223 . S
Cd127 O130 2.297 . S
Cd127 O131 2.439 . S
Cd127 O137 2.240 . S
Cd128 O129 2.240 . S
Cd128 O136 2.223 . S
Cd128 O138 2.297 . S
Cd128 O139 2.439 . S
O129 Cd128 2.240 . S
O129 C134 1.279 . S
O130 Cd127 2.297 . S
O130 C132 1.247 . S
O131 Cd127 2.439 . S
O131 C132 1.208 . S
C132 O130 1.247 . S
C132 O131 1.208 . S
C133 O138 1.247 . S
C133 O139 1.208 . S
C134 O126 1.315 . S
C134 O129 1.279 . S
C135 O136 1.315 . S
C135 O137 1.279 . S
O136 Cd128 2.223 . S
O136 C135 1.315 . S
O137 Cd127 2.240 . S
O137 C135 1.279 . S
O138 Cd128 2.297 . S
O138 C133 1.247 . S
O139 Cd128 2.439 . S
O139 C133 1.208 . S
O140 Cd141 2.223 . S
O140 C148 1.315 . S
Cd141 O140 2.223 . S
Cd141 O144 2.297 . S
Cd141 O145 2.439 . S
Cd141 O151 2.240 . S
Cd142 O143 2.240 . S
Cd142 O150 2.223 . S
Cd142 O152 2.297 . S
Cd142 O153 2.439 . S
O143 Cd142 2.240 . S
O143 C148 1.279 . S
O144 Cd141 2.297 . S
O144 C146 1.247 . S
O145 Cd141 2.439 . S
O145 C146 1.208 . S
C146 O144 1.247 . S
C146 O145 1.208 . S
C147 O152 1.247 . S
C147 O153 1.208 . S
C148 O140 1.315 . S
C148 O143 1.279 . S
C149 O150 1.315 . S
C149 O151 1.279 . S
O150 Cd142 2.223 . S
O150 C149 1.315 . S
O151 Cd141 2.240 . S
O151 C149 1.279 . S
O152 Cd142 2.297 . S
O152 C147 1.247 . S
O153 Cd142 2.439 . S
O153 C147 1.208 . S
O154 Cd155 2.223 . S
O154 C162 1.315 . S
Cd155 O154 2.223 . S
Cd155 O158 2.297 . S
Cd155 O159 2.439 . S
Cd155 O165 2.240 . S
Cd156 O157 2.240 . S
Cd156 O164 2.223 . S
Cd156 O166 2.297 . S
Cd156 O167 2.439 . S
O157 Cd156 2.240 . S
O157 C162 1.279 . S
O158 Cd155 2.297 . S
O158 C160 1.247 . S
O159 Cd155 2.439 . S
O159 C160 1.208 . S
C160 O158 1.247 . S
C160 O159 1.208 . S
C161 O166 1.247 . S
C161 O167 1.208 . S
C162 O154 1.315 . S
C162 O157 1.279 . S
C163 O164 1.315 . S
C163 O165 1.279 . S
O164 Cd156 2.223 . S
O164 C163 1.315 . S
O165 Cd155 2.240 . S
O165 C163 1.279 . S
O166 Cd156 2.297 . S
O166 C161 1.247 . S
O167 Cd156 2.439 . S
O167 C161 1.208 . S
O168 Cd169 2.223 . S
O168 C176 1.315 . S
Cd169 O168 2.223 . S
Cd169 O172 2.297 . S
Cd169 O173 2.439 . S
Cd169 O179 2.240 . S
Cd170 O171 2.240 . S
Cd170 O178 2.223 . S
Cd170 O180 2.297 . S
Cd170 O181 2.439 . S
O171 Cd170 2.240 . S
O171 C176 1.279 . S
O172 Cd169 2.297 . S
O172 C174 1.247 . S
O173 Cd169 2.439 . S
O173 C174 1.208 . S
C174 O172 1.247 . S
C174 O173 1.208 . S
C175 O180 1.247 . S
C175 O181 1.208 . S
C176 O168 1.315 . S
C176 O171 1.279 . S
C177 O178 1.315 . S
C177 O179 1.279 . S
O178 Cd170 2.223 . S
O178 C177 1.315 . S
O179 Cd169 2.240 . S
O179 C177 1.279 . S
O180 Cd170 2.297 . S
O180 C175 1.247 . S
O181 Cd170 2.439 . S
O181 C175 1.208 . S
O182 Cd183 2.223 . S
O182 C190 1.315 . S
Cd183 O182 2.223 . S
Cd183 O186 2.297 . S
Cd183 O187 2.439 . S
Cd183 O193 2.240 . S
Cd184 O185 2.240 . S
Cd184 O192 2.223 . S
Cd184 O194 2.297 . S
Cd184 O195 2.439 . S
O185 Cd184 2.240 . S
O185 C190 1.279 . S
O186 Cd183 2.297 . S
O186 C188 1.247 . S
O187 Cd183 2.439 . S
O187 C188 1.208 . S
C188 O186 1.247 . S
C188 O187 1.208 . S
C189 O194 1.247 . S
C189 O195 1.208 . S
C190 O182 1.315 . S
C190 O185 1.279 . S
C191 O192 1.315 . S
C191 O193 1.279 . S
O192 Cd184 2.223 . S
O192 C191 1.315 . S
O193 Cd183 2.240 . S
O193 C191 1.279 . S
O194 Cd184 2.297 . S
O194 C189 1.247 . S
O195 Cd184 2.439 . S
O195 C189 1.208 . S
O196 Cd197 2.223 . S
O196 C204 1.315 . S
Cd197 O196 2.223 . S
Cd197 O200 2.297 . S
Cd197 O201 2.439 . S
Cd197 O207 2.240 . S
Cd198 O199 2.240 . S
Cd198 O206 2.223 . S
Cd198 O208 2.297 . S
Cd198 O209 2.439 . S
O199 Cd198 2.240 . S
O199 C204 1.279 . S
O200 Cd197 2.297 . S
O200 C202 1.247 . S
O201 Cd197 2.439 . S
O201 C202 1.208 . S
C202 O200 1.247 . S
C202 O201 1.208 . S
C203 O208 1.247 . S
C203 O209 1.208 . S
C204 O196 1.315 . S
C204 O199 1.279 . S
C205 O206 1.315 . S
C205 O207 1.279 . S
O206 Cd198 2.223 . S
O206 C205 1.315 . S
O207 Cd197 2.240 . S
O207 C205 1.279 . S
O208 Cd198 2.297 . S
O208 C203 1.247 . S
O209 Cd198 2.439 . S
O209 C203 1.208 . S
O210 Cd211 2.223 . S
O210 C218 1.315 . S
Cd211 O210 2.223 . S
Cd211 O214 2.297 . S
Cd211 O215 2.439 . S
Cd211 O221 2.240 . S
Cd212 O213 2.240 . S
Cd212 O220 2.223 . S
Cd212 O222 2.297 . S
Cd212 O223 2.439 . S
O213 Cd212 2.240 . S
O213 C218 1.279 . S
O214 Cd211 2.297 . S
O214 C216 1.247 . S
O215 Cd211 2.439 . S
O215 C216 1.208 . S
C216 O214 1.247 . S
C216 O215 1.208 . S
C217 O222 1.247 . S
C217 O223 1.208 . S
C218 O210 1.315 . S
C218 O213 1.279 . S
C219 O220 1.315 . S
C219 O221 1.279 . S
O220 Cd212 2.223 . S
O220 C219 1.315 . S
O221 Cd211 2.240 . S
O221 C219 1.279 . S
O222 Cd212 2.297 . S
O222 C217 1.247 . S
O223 Cd212 2.439 . S
O223 C217 1.208 . S
H224 C236 0.930 . S
H225 C238 0.930 . S
H226 C239 0.930 . S
H227 C243 0.959 . S
H228 C243 0.959 . S
H229 C243 0.961 . S
H230 C244 0.960 . S
H231 C244 0.961 . S
H232 C244 0.959 . S
H233 C247 0.929 . S
H234 C248 0.931 . S
H235 C250 0.930 . S
C236 H224 0.930 . S
C236 C237 1.399 . S
C236 C241 1.399 . S
C237 C236 1.399 . S
C237 C238 1.376 . S
C238 H225 0.930 . S
C238 C237 1.376 . S
C238 C239 1.388 . S
C239 H226 0.930 . S
C239 C238 1.388 . S
C239 C240 1.390 . S
C240 C239 1.390 . S
C240 C241 1.394 . S
C240 C246 1.465 . S
C241 C236 1.399 . S
C241 C240 1.394 . S
C241 C242 1.516 . S
C242 C241 1.516 . S
C242 C243 1.502 1_455 S
C242 C244 1.561 . S
C242 C245 1.526 . S
C243 H227 0.959 . S
C243 H228 0.959 . S
C243 H229 0.961 . S
C243 C242 1.502 1_655 S
C244 H230 0.960 . S
C244 H231 0.961 . S
C244 H232 0.959 . S
C244 C242 1.561 . S
C245 C242 1.526 . S
C245 C246 1.396 . S
C245 C250 1.390 . S
C246 C240 1.465 . S
C246 C245 1.396 . S
C246 C247 1.399 . S
C247 H233 0.929 . S
C247 C246 1.399 . S
C247 C248 1.385 . S
C248 H234 0.931 . S
C248 C247 1.385 . S
C248 C249 1.389 . S
C249 C248 1.389 . S
C249 C250 1.387 . S
C250 H235 0.930 . S
C250 C245 1.390 . S
C250 C249 1.387 . S
H251 C263 0.930 . S
H252 C265 0.930 . S
H253 C266 0.930 . S
H254 C270 0.959 . S
H255 C270 0.959 . S
H256 C270 0.961 . S
H257 C271 0.960 . S
H258 C271 0.961 . S
H259 C271 0.959 . S
H260 C274 0.929 . S
H261 C275 0.931 . S
H262 C277 0.930 . S
C263 H251 0.930 . S
C263 C264 1.399 . S
C263 C268 1.399 1_655 S
C264 C263 1.399 . S
C264 C265 1.376 . S
C265 H252 0.930 . S
C265 C264 1.376 . S
C265 C266 1.388 1_655 S
C266 H253 0.930 . S
C266 C265 1.388 1_455 S
C266 C267 1.390 . S
C267 C266 1.390 . S
C267 C268 1.394 . S
C267 C273 1.465 . S
C268 C263 1.399 1_455 S
C268 C267 1.394 . S
C268 C269 1.516 . S
C269 C268 1.516 . S
C269 C270 1.502 . S
C269 C271 1.561 . S
C269 C272 1.526 . S
C270 H254 0.959 . S
C270 H255 0.959 . S
C270 H256 0.961 . S
C270 C269 1.502 . S
C271 H257 0.960 . S
C271 H258 0.961 . S
C271 H259 0.959 . S
C271 C269 1.561 . S
C272 C269 1.526 . S
C272 C273 1.396 . S
C272 C277 1.390 . S
C273 C267 1.465 . S
C273 C272 1.396 . S
C273 C274 1.399 . S
C274 H260 0.929 . S
C274 C273 1.399 . S
C274 C275 1.385 . S
C275 H261 0.931 . S
C275 C274 1.385 . S
C275 C276 1.389 . S
C276 C275 1.389 . S
C276 C277 1.387 . S
C277 H262 0.930 . S
C277 C272 1.390 . S
C277 C276 1.387 . S
H278 C290 0.930 . S
H279 C292 0.930 . S
H280 C293 0.930 . S
H281 C297 0.959 . S
H282 C297 0.959 . S
H283 C297 0.961 . S
H284 C298 0.960 . S
H285 C298 0.961 . S
H286 C298 0.959 . S
H287 C301 0.929 . S
H288 C302 0.931 . S
H289 C304 0.930 . S
C290 H278 0.930 . S
C290 C291 1.399 . S
C290 C295 1.399 . S
C291 C290 1.399 . S
C291 C292 1.376 . S
C292 H279 0.930 . S
C292 C291 1.376 . S
C292 C293 1.388 . S
C293 H280 0.930 . S
C293 C292 1.388 . S
C293 C294 1.390 . S
C294 C293 1.390 . S
C294 C295 1.394 . S
C294 C300 1.465 . S
C295 C290 1.399 . S
C295 C294 1.394 . S
C295 C296 1.516 . S
C296 C295 1.516 . S
C296 C297 1.502 . S
C296 C298 1.561 . S
C296 C299 1.526 . S
C297 H281 0.959 . S
C297 H282 0.959 . S
C297 H283 0.961 . S
C297 C296 1.502 . S
C298 H284 0.960 . S
C298 H285 0.961 . S
C298 H286 0.959 . S
C298 C296 1.561 . S
C299 C296 1.526 . S
C299 C300 1.396 . S
C299 C304 1.390 . S
C300 C294 1.465 . S
C300 C299 1.396 . S
C300 C301 1.399 . S
C301 H287 0.929 . S
C301 C300 1.399 . S
C301 C302 1.385 . S
C302 H288 0.931 . S
C302 C301 1.385 . S
C302 C303 1.389 . S
C303 C302 1.389 . S
C303 C304 1.387 . S
C304 H289 0.930 . S
C304 C299 1.390 . S
C304 C303 1.387 . S
H305 C317 0.930 . S
H306 C319 0.930 . S
H307 C320 0.930 . S
H308 C324 0.959 . S
H309 C324 0.959 . S
H310 C324 0.961 . S
H311 C325 0.960 . S
H312 C325 0.961 . S
H313 C325 0.959 . S
H314 C328 0.929 . S
H315 C329 0.931 . S
H316 C331 0.930 . S
C317 H305 0.930 . S
C317 C318 1.399 . S
C317 C322 1.399 . S
C318 C317 1.399 . S
C318 C319 1.376 . S
C319 H306 0.930 . S
C319 C318 1.376 . S
C319 C320 1.388 . S
C320 H307 0.930 . S
C320 C319 1.388 . S
C320 C321 1.390 . S
C321 C320 1.390 . S
C321 C322 1.394 . S
C321 C327 1.465 . S
C322 C317 1.399 . S
C322 C321 1.394 . S
C322 C323 1.516 . S
C323 C322 1.516 . S
C323 C324 1.502 . S
C323 C325 1.561 . S
C323 C326 1.526 . S
C324 H308 0.959 . S
C324 H309 0.959 . S
C324 H310 0.961 . S
C324 C323 1.502 . S
C325 H311 0.960 . S
C325 H312 0.961 . S
C325 H313 0.959 . S
C325 C323 1.561 . S
C326 C323 1.526 . S
C326 C327 1.396 . S
C326 C331 1.390 . S
C327 C321 1.465 . S
C327 C326 1.396 . S
C327 C328 1.399 . S
C328 H314 0.929 . S
C328 C327 1.399 . S
C328 C329 1.385 . S
C329 H315 0.931 . S
C329 C328 1.385 . S
C329 C330 1.389 . S
C330 C329 1.389 . S
C330 C331 1.387 . S
C331 H316 0.930 . S
C331 C326 1.390 . S
C331 C330 1.387 . S
H332 C344 0.930 . S
H333 C346 0.930 . S
H334 C347 0.930 . S
H335 C351 0.959 . S
H336 C351 0.959 . S
H337 C351 0.961 . S
H338 C352 0.960 . S
H339 C352 0.961 . S
H340 C352 0.959 . S
H341 C355 0.929 . S
H342 C356 0.931 . S
H343 C358 0.930 . S
C344 H332 0.930 . S
C344 C345 1.399 . S
C344 C349 1.399 . S
C345 C344 1.399 . S
C345 C346 1.376 . S
C346 H333 0.930 . S
C346 C345 1.376 . S
C346 C347 1.388 . S
C347 H334 0.930 . S
C347 C346 1.388 . S
C347 C348 1.390 . S
C348 C347 1.390 . S
C348 C349 1.394 . S
C348 C354 1.465 . S
C349 C344 1.399 . S
C349 C348 1.394 . S
C349 C350 1.516 . S
C350 C349 1.516 . S
C350 C351 1.502 . S
C350 C352 1.561 . S
C350 C353 1.526 . S
C351 H335 0.959 . S
C351 H336 0.959 . S
C351 H337 0.961 . S
C351 C350 1.502 . S
C352 H338 0.960 . S
C352 H339 0.961 . S
C352 H340 0.959 . S
C352 C350 1.561 . S
C353 C350 1.526 . S
C353 C354 1.396 . S
C353 C358 1.390 . S
C354 C348 1.465 . S
C354 C353 1.396 . S
C354 C355 1.399 . S
C355 H341 0.929 . S
C355 C354 1.399 . S
C355 C356 1.385 . S
C356 H342 0.931 . S
C356 C355 1.385 . S
C356 C357 1.389 . S
C357 C356 1.389 . S
C357 C358 1.387 . S
C358 H343 0.930 . S
C358 C353 1.390 . S
C358 C357 1.387 . S
H359 C371 0.930 . S
H360 C373 0.930 . S
H361 C374 0.930 . S
H362 C378 0.959 . S
H363 C378 0.959 . S
H364 C378 0.961 . S
H365 C379 0.960 . S
H366 C379 0.961 . S
H367 C379 0.959 . S
H368 C382 0.929 . S
H369 C383 0.931 . S
H370 C385 0.930 . S
C371 H359 0.930 . S
C371 C372 1.399 . S
C371 C376 1.399 . S
C372 C371 1.399 . S
C372 C373 1.376 . S
C373 H360 0.930 . S
C373 C372 1.376 . S
C373 C374 1.388 . S
C374 H361 0.930 . S
C374 C373 1.388 . S
C374 C375 1.390 . S
C375 C374 1.390 . S
C375 C376 1.394 . S
C375 C381 1.465 . S
C376 C371 1.399 . S
C376 C375 1.394 . S
C376 C377 1.516 . S
C377 C376 1.516 . S
C377 C378 1.502 . S
C377 C379 1.561 . S
C377 C380 1.526 . S
C378 H362 0.959 . S
C378 H363 0.959 . S
C378 H364 0.961 . S
C378 C377 1.502 . S
C379 H365 0.960 . S
C379 H366 0.961 . S
C379 H367 0.959 . S
C379 C377 1.561 . S
C380 C377 1.526 . S
C380 C381 1.396 . S
C380 C385 1.390 . S
C381 C375 1.465 . S
C381 C380 1.396 . S
C381 C382 1.399 . S
C382 H368 0.929 . S
C382 C381 1.399 . S
C382 C383 1.385 . S
C383 H369 0.931 . S
C383 C382 1.385 . S
C383 C384 1.389 . S
C384 C383 1.389 . S
C384 C385 1.387 . S
C385 H370 0.930 . S
C385 C380 1.390 . S
C385 C384 1.387 . S
H386 C398 0.930 . S
H387 C400 0.930 . S
H388 C401 0.930 . S
H389 C405 0.959 . S
H390 C405 0.959 . S
H391 C405 0.961 . S
H392 C406 0.960 . S
H393 C406 0.961 . S
H394 C406 0.959 . S
H395 C409 0.929 . S
H396 C410 0.931 . S
H397 C412 0.930 . S
C398 H386 0.930 . S
C398 C399 1.399 . S
C398 C403 1.399 . S
C399 C398 1.399 . S
C399 C400 1.376 . S
C400 H387 0.930 . S
C400 C399 1.376 . S
C400 C401 1.388 . S
C401 H388 0.930 . S
C401 C400 1.388 . S
C401 C402 1.390 . S
C402 C401 1.390 . S
C402 C403 1.394 . S
C402 C408 1.465 . S
C403 C398 1.399 . S
C403 C402 1.394 . S
C403 C404 1.516 . S
C404 C403 1.516 . S
C404 C405 1.502 . S
C404 C406 1.561 . S
C404 C407 1.526 . S
C405 H389 0.959 . S
C405 H390 0.959 . S
C405 H391 0.961 . S
C405 C404 1.502 . S
C406 H392 0.960 . S
C406 H393 0.961 . S
C406 H394 0.959 . S
C406 C404 1.561 . S
C407 C404 1.526 . S
C407 C408 1.396 . S
C407 C412 1.390 . S
C408 C402 1.465 . S
C408 C407 1.396 . S
C408 C409 1.399 . S
C409 H395 0.929 . S
C409 C408 1.399 . S
C409 C410 1.385 . S
C410 H396 0.931 . S
C410 C409 1.385 . S
C410 C411 1.389 . S
C411 C410 1.389 . S
C411 C412 1.387 . S
C412 H397 0.930 . S
C412 C407 1.390 . S
C412 C411 1.387 . S
H413 C425 0.930 . S
H414 C427 0.930 . S
H415 C428 0.930 . S
H416 C432 0.959 . S
H417 C432 0.959 . S
H418 C432 0.961 . S
H419 C433 0.960 . S
H420 C433 0.961 . S
H421 C433 0.959 . S
H422 C436 0.929 . S
H423 C437 0.931 . S
H424 C439 0.930 . S
C425 H413 0.930 . S
C425 C426 1.399 . S
C425 C430 1.399 . S
C426 C425 1.399 . S
C426 C427 1.376 . S
C427 H414 0.930 . S
C427 C426 1.376 . S
C427 C428 1.388 . S
C428 H415 0.930 . S
C428 C427 1.388 . S
C428 C429 1.390 . S
C429 C428 1.390 . S
C429 C430 1.394 . S
C429 C435 1.465 . S
C430 C425 1.399 . S
C430 C429 1.394 . S
C430 C431 1.516 . S
C431 C430 1.516 . S
C431 C432 1.502 . S
C431 C433 1.561 . S
C431 C434 1.526 . S
C432 H416 0.959 . S
C432 H417 0.959 . S
C432 H418 0.961 . S
C432 C431 1.502 . S
C433 H419 0.960 . S
C433 H420 0.961 . S
C433 H421 0.959 . S
C433 C431 1.561 . S
C434 C431 1.526 . S
C434 C435 1.396 . S
C434 C439 1.390 1_455 S
C435 C429 1.465 . S
C435 C434 1.396 . S
C435 C436 1.399 . S
C436 H422 0.929 . S
C436 C435 1.399 . S
C436 C437 1.385 1_455 S
C437 H423 0.931 . S
C437 C436 1.385 1_655 S
C437 C438 1.389 . S
C438 C437 1.389 . S
C438 C439 1.387 . S
C439 H424 0.930 . S
C439 C434 1.390 1_655 S
C439 C438 1.387 . S
H440 C452 0.930 1_545 S
H441 C454 0.930 . S
H442 C455 0.930 . S
H443 C459 0.959 . S
H444 C459 0.959 . S
H445 C459 0.961 . S
H446 C460 0.960 . S
H447 C460 0.961 . S
H448 C460 0.959 . S
H449 C463 0.929 . S
H450 C464 0.931 . S
H451 C466 0.930 . S
C452 H440 0.930 1_565 S
C452 C453 1.399 1_655 S
C452 C457 1.400 . S
C453 C452 1.399 1_455 S
C453 C454 1.376 . S
C454 H441 0.930 . S
C454 C453 1.376 . S
C454 C455 1.388 . S
C455 H442 0.930 . S
C455 C454 1.388 . S
C455 C456 1.390 . S
C456 C455 1.390 . S
C456 C457 1.401 1_455 S
C456 C462 1.465 . S
C457 C452 1.400 . S
C457 C456 1.401 1_655 S
C457 C458 1.509 1_565 S
C458 C457 1.509 1_545 S
C458 C459 1.502 . S
C458 C460 1.561 1_545 S
C458 C461 1.526 . S
C459 H443 0.959 . S
C459 H444 0.959 . S
C459 H445 0.961 . S
C459 C458 1.502 . S
C460 H446 0.960 . S
C460 H447 0.961 . S
C460 H448 0.959 . S
C460 C458 1.561 1_565 S
C461 C458 1.526 . S
C461 C462 1.396 1_645 S
C461 C466 1.390 . S
C462 C456 1.465 . S
C462 C461 1.396 1_465 S
C462 C463 1.399 . S
C463 H449 0.929 . S
C463 C462 1.399 . S
C463 C464 1.385 . S
C464 H450 0.931 . S
C464 C463 1.385 . S
C464 C465 1.389 1_565 S
C465 C464 1.389 1_545 S
C465 C466 1.387 1_455 S
C466 H451 0.930 . S
C466 C461 1.390 . S
C466 C465 1.387 1_655 S
H467 C479 0.930 . S
H468 C481 0.930 . S
H469 C482 0.930 . S
H470 C486 0.959 . S
H471 C486 0.959 . S
H472 C486 0.961 . S
H473 C487 0.960 . S
H474 C487 0.961 . S
H475 C487 0.959 . S
H476 C490 0.929 . S
H477 C491 0.931 . S
H478 C493 0.930 . S
C479 H467 0.930 . S
C479 C480 1.399 . S
C479 C484 1.399 . S
C480 C479 1.399 . S
C480 C481 1.376 . S
C481 H468 0.930 . S
C481 C480 1.376 . S
C481 C482 1.388 . S
C482 H469 0.930 . S
C482 C481 1.388 . S
C482 C483 1.390 . S
C483 C482 1.390 . S
C483 C484 1.394 . S
C483 C489 1.465 . S
C484 C479 1.399 . S
C484 C483 1.394 . S
C484 C485 1.516 . S
C485 C484 1.516 . S
C485 C486 1.502 . S
C485 C487 1.561 . S
C485 C488 1.526 . S
C486 H470 0.959 . S
C486 H471 0.959 . S
C486 H472 0.961 . S
C486 C485 1.502 . S
C487 H473 0.960 . S
C487 H474 0.961 . S
C487 H475 0.959 . S
C487 C485 1.561 . S
C488 C485 1.526 . S
C488 C489 1.396 . S
C488 C493 1.390 . S
C489 C483 1.465 . S
C489 C488 1.396 . S
C489 C490 1.399 . S
C490 H476 0.929 . S
C490 C489 1.399 . S
C490 C491 1.385 . S
C491 H477 0.931 . S
C491 C490 1.385 . S
C491 C492 1.389 . S
C492 C491 1.389 . S
C492 C493 1.387 . S
C493 H478 0.930 . S
C493 C488 1.390 . S
C493 C492 1.387 . S
H494 C506 0.930 . S
H495 C508 0.930 . S
H496 C509 0.930 . S
H497 C513 0.959 . S
H498 C513 0.959 1_556 S
H499 C513 0.961 . S
H500 C514 0.960 . S
H501 C514 0.961 1_556 S
H502 C514 0.959 . S
H503 C517 0.929 . S
H504 C518 0.931 . S
H505 C520 0.930 . S
C506 H494 0.930 . S
C506 C507 1.399 1_545 S
C506 C511 1.399 . S
C507 C506 1.399 1_565 S
C507 C508 1.376 . S
C508 H495 0.930 . S
C508 C507 1.376 . S
C508 C509 1.388 . S
C509 H496 0.930 . S
C509 C508 1.388 . S
C509 C510 1.390 . S
C510 C509 1.390 . S
C510 C511 1.394 1_565 S
C510 C516 1.465 1_554 S
C511 C506 1.399 . S
C511 C510 1.394 1_545 S
C511 C512 1.516 . S
C512 C511 1.516 . S
C512 C513 1.502 . S
C512 C514 1.561 . S
C512 C515 1.526 1_554 S
C513 H497 0.959 . S
C513 H498 0.959 1_554 S
C513 H499 0.961 . S
C513 C512 1.502 . S
C514 H500 0.960 . S
C514 H501 0.961 1_554 S
C514 H502 0.959 . S
C514 C512 1.561 . S
C515 C512 1.526 1_556 S
C515 C516 1.396 1_545 S
C515 C520 1.390 . S
C516 C510 1.465 1_556 S
C516 C515 1.396 1_565 S
C516 C517 1.399 . S
C517 H503 0.929 . S
C517 C516 1.399 . S
C517 C518 1.385 . S
C518 H504 0.931 . S
C518 C517 1.385 . S
C518 C519 1.389 1_565 S
C519 C518 1.389 1_545 S
C519 C520 1.387 . S
C520 H505 0.930 . S
C520 C515 1.390 . S
C520 C519 1.387 . S
H521 C533 0.930 . S
H522 C535 0.930 . S
H523 C536 0.930 . S
H524 C540 0.959 . S
H525 C540 0.959 . S
H526 C540 0.961 . S
H527 C541 0.960 . S
H528 C541 0.961 . S
H529 C541 0.959 . S
H530 C544 0.929 . S
H531 C545 0.931 . S
H532 C547 0.930 . S
C533 H521 0.930 . S
C533 C534 1.399 . S
C533 C538 1.399 . S
C534 C533 1.399 . S
C534 C535 1.376 . S
C535 H522 0.930 . S
C535 C534 1.376 . S
C535 C536 1.388 . S
C536 H523 0.930 . S
C536 C535 1.388 . S
C536 C537 1.390 . S
C537 C536 1.390 . S
C537 C538 1.394 . S
C537 C543 1.465 . S
C538 C533 1.399 . S
C538 C537 1.394 . S
C538 C539 1.516 . S
C539 C538 1.516 . S
C539 C540 1.502 . S
C539 C541 1.561 . S
C539 C542 1.526 . S
C540 H524 0.959 . S
C540 H525 0.959 . S
C540 H526 0.961 . S
C540 C539 1.502 . S
C541 H527 0.960 . S
C541 H528 0.961 . S
C541 H529 0.959 . S
C541 C539 1.561 . S
C542 C539 1.526 . S
C542 C543 1.396 . S
C542 C547 1.390 . S
C543 C537 1.465 . S
C543 C542 1.396 . S
C543 C544 1.399 . S
C544 H530 0.929 . S
C544 C543 1.399 . S
C544 C545 1.385 . S
C545 H531 0.931 . S
C545 C544 1.385 . S
C545 C546 1.389 . S
C546 C545 1.389 . S
C546 C547 1.387 . S
C547 H532 0.930 . S
C547 C542 1.390 . S
C547 C546 1.387 . S
H548 C560 0.930 . S
H549 C562 0.930 . S
H550 C563 0.930 . S
H551 C567 0.959 . S
H552 C567 0.959 . S
H553 C567 0.961 . S
H554 C568 0.960 . S
H555 C568 0.961 . S
H556 C568 0.959 . S
H557 C571 0.929 . S
H558 C572 0.931 . S
H559 C574 0.930 . S
C560 H548 0.930 . S
C560 C561 1.399 . S
C560 C565 1.399 . S
C561 C560 1.399 . S
C561 C562 1.376 . S
C562 H549 0.930 . S
C562 C561 1.376 . S
C562 C563 1.388 . S
C563 H550 0.930 . S
C563 C562 1.388 . S
C563 C564 1.390 . S
C564 C563 1.390 . S
C564 C565 1.394 . S
C564 C570 1.465 . S
C565 C560 1.399 . S
C565 C564 1.394 . S
C565 C566 1.516 . S
C566 C565 1.516 . S
C566 C567 1.502 . S
C566 C568 1.561 . S
C566 C569 1.526 . S
C567 H551 0.959 . S
C567 H552 0.959 . S
C567 H553 0.961 . S
C567 C566 1.502 . S
C568 H554 0.960 . S
C568 H555 0.961 . S
C568 H556 0.959 . S
C568 C566 1.561 . S
C569 C566 1.526 . S
C569 C570 1.396 . S
C569 C574 1.390 . S
C570 C564 1.465 . S
C570 C569 1.396 . S
C570 C571 1.399 . S
C571 H557 0.929 . S
C571 C570 1.399 . S
C571 C572 1.385 . S
C572 H558 0.931 . S
C572 C571 1.385 . S
C572 C573 1.389 . S
C573 C572 1.389 . S
C573 C574 1.387 . S
C574 H559 0.930 . S
C574 C569 1.390 . S
C574 C573 1.387 . S
H575 C587 0.930 . S
H576 C589 0.930 . S
H577 C590 0.930 . S
H578 C594 0.959 . S
H579 C594 0.959 . S
H580 C594 0.961 . S
H581 C595 0.960 . S
H582 C595 0.961 . S
H583 C595 0.959 . S
H584 C598 0.929 . S
H585 C599 0.931 . S
H586 C601 0.930 . S
C587 H575 0.930 . S
C587 C588 1.399 . S
C587 C592 1.399 . S
C588 C587 1.399 . S
C588 C589 1.376 . S
C589 H576 0.930 . S
C589 C588 1.376 . S
C589 C590 1.388 . S
C590 H577 0.930 . S
C590 C589 1.388 . S
C590 C591 1.390 . S
C591 C590 1.390 . S
C591 C592 1.394 . S
C591 C597 1.465 . S
C592 C587 1.399 . S
C592 C591 1.394 . S
C592 C593 1.516 . S
C593 C592 1.516 . S
C593 C594 1.502 . S
C593 C595 1.561 . S
C593 C596 1.526 . S
C594 H578 0.959 . S
C594 H579 0.959 . S
C594 H580 0.961 . S
C594 C593 1.502 . S
C595 H581 0.960 . S
C595 H582 0.961 . S
C595 H583 0.959 . S
C595 C593 1.561 . S
C596 C593 1.526 . S
C596 C597 1.396 . S
C596 C601 1.390 . S
C597 C591 1.465 . S
C597 C596 1.396 . S
C597 C598 1.399 . S
C598 H584 0.929 . S
C598 C597 1.399 . S
C598 C599 1.385 . S
C599 H585 0.931 . S
C599 C598 1.385 . S
C599 C600 1.389 . S
C600 C599 1.389 . S
C600 C601 1.387 . S
C601 H586 0.930 . S
C601 C596 1.390 . S
C601 C600 1.387 . S
H602 C614 0.930 . S
H603 C616 0.930 . S
H604 C617 0.930 . S
H605 C621 0.964 . S
H606 C621 0.922 1_554 S
H607 C621 1.000 . S
H608 C622 0.960 1_556 S
H609 C622 0.961 . S
H610 C622 0.959 . S
H611 C625 0.929 . S
H612 C626 0.931 . S
H613 C628 0.930 . S
C614 H602 0.930 . S
C614 C615 1.399 . S
C614 C619 1.399 . S
C615 C614 1.399 . S
C615 C616 1.376 . S
C616 H603 0.930 . S
C616 C615 1.376 . S
C616 C617 1.388 . S
C617 H604 0.930 . S
C617 C616 1.388 . S
C617 C618 1.390 . S
C618 C617 1.390 . S
C618 C619 1.394 . S
C618 C624 1.465 1_556 S
C619 C614 1.399 . S
C619 C618 1.394 . S
C619 C620 1.466 1_556 S
C620 C619 1.466 1_554 S
C620 C621 1.496 1_554 S
C620 C622 1.573 . S
C620 C623 1.574 . S
C621 H605 0.964 . S
C621 H606 0.922 1_556 S
C621 H607 1.000 . S
C621 C620 1.496 1_556 S
C622 H608 0.960 1_554 S
C622 H609 0.961 . S
C622 H610 0.959 . S
C622 C620 1.573 . S
C623 C620 1.574 . S
C623 C624 1.396 . S
C623 C628 1.390 . S
C624 C618 1.465 1_554 S
C624 C623 1.396 . S
C624 C625 1.399 . S
C625 H611 0.929 . S
C625 C624 1.399 . S
C625 C626 1.385 . S
C626 H612 0.931 . S
C626 C625 1.385 . S
C626 C627 1.389 . S
C627 C626 1.389 . S
C627 C628 1.387 . S
C628 H613 0.930 . S
C628 C623 1.390 . S
C628 C627 1.387 . S
H629 C641 0.930 . S
H630 C643 0.930 . S
H631 C644 0.930 . S
H632 C648 0.959 . S
H633 C648 0.959 . S
H634 C648 0.961 . S
H635 C649 0.960 . S
H636 C649 0.961 . S
H637 C649 0.959 . S
H638 C652 0.929 . S
H639 C653 0.931 . S
H640 C655 0.930 . S
C641 H629 0.930 . S
C641 C642 1.399 . S
C641 C646 1.399 . S
C642 C641 1.399 . S
C642 C643 1.376 . S
C643 H630 0.930 . S
C643 C642 1.376 . S
C643 C644 1.388 . S
C644 H631 0.930 . S
C644 C643 1.388 . S
C644 C645 1.390 . S
C645 C644 1.390 . S
C645 C646 1.394 . S
C645 C651 1.465 . S
C646 C641 1.399 . S
C646 C645 1.394 . S
C646 C647 1.516 . S
C647 C646 1.516 . S
C647 C648 1.502 . S
C647 C649 1.561 . S
C647 C650 1.526 . S
C648 H632 0.959 . S
C648 H633 0.959 . S
C648 H634 0.961 . S
C648 C647 1.502 . S
C649 H635 0.960 . S
C649 H636 0.961 . S
C649 H637 0.959 . S
C649 C647 1.561 . S
C650 C647 1.526 . S
C650 C651 1.396 . S
C650 C655 1.390 . S
C651 C645 1.465 . S
C651 C650 1.396 . S
C651 C652 1.399 . S
C652 H638 0.929 . S
C652 C651 1.399 . S
C652 C653 1.385 . S
C653 H639 0.931 . S
C653 C652 1.385 . S
C653 C654 1.389 . S
C654 C653 1.389 . S
C654 C655 1.387 . S
C655 H640 0.930 . S
C655 C650 1.390 . S
C655 C654 1.387 . S
H656 C668 0.930 . S
H657 C670 0.930 . S
H658 C671 0.930 . S
H659 C675 0.959 . S
H660 C675 0.959 . S
H661 C675 0.961 . S
H662 C676 0.960 . S
H663 C676 0.961 . S
H664 C676 0.959 . S
H665 C679 0.929 . S
H666 C680 0.931 . S
H667 C682 0.930 . S
C668 H656 0.930 . S
C668 C669 1.399 . S
C668 C673 1.399 . S
C669 C668 1.399 . S
C669 C670 1.376 . S
C670 H657 0.930 . S
C670 C669 1.376 . S
C670 C671 1.388 . S
C671 H658 0.930 . S
C671 C670 1.388 . S
C671 C672 1.390 . S
C672 C671 1.390 . S
C672 C673 1.394 . S
C672 C678 1.465 . S
C673 C668 1.399 . S
C673 C672 1.394 . S
C673 C674 1.516 . S
C674 C673 1.516 . S
C674 C675 1.502 . S
C674 C676 1.561 . S
C674 C677 1.526 . S
C675 H659 0.959 . S
C675 H660 0.959 . S
C675 H661 0.961 . S
C675 C674 1.502 . S
C676 H662 0.960 . S
C676 H663 0.961 . S
C676 H664 0.959 . S
C676 C674 1.561 . S
C677 C674 1.526 . S
C677 C678 1.396 . S
C677 C682 1.390 . S
C678 C672 1.465 . S
C678 C677 1.396 . S
C678 C679 1.399 . S
C679 H665 0.929 . S
C679 C678 1.399 . S
C679 C680 1.385 . S
C680 H666 0.931 . S
C680 C679 1.385 . S
C680 C681 1.389 . S
C681 C680 1.389 . S
C681 C682 1.387 . S
C682 H667 0.930 . S
C682 C677 1.390 . S
C682 C681 1.387 . S
H683 C695 0.930 . S
H684 C697 0.930 . S
H685 C698 0.930 . S
H686 C702 0.959 . S
H687 C702 0.959 . S
H688 C702 0.961 . S
H689 C703 0.960 . S
H690 C703 0.961 . S
H691 C703 0.959 . S
H692 C706 0.929 . S
H693 C707 0.931 . S
H694 C709 0.930 . S
C695 H683 0.930 . S
C695 C696 1.399 . S
C695 C700 1.399 . S
C696 C695 1.399 . S
C696 C697 1.376 . S
C697 H684 0.930 . S
C697 C696 1.376 . S
C697 C698 1.388 . S
C698 H685 0.930 . S
C698 C697 1.388 . S
C698 C699 1.390 . S
C699 C698 1.390 . S
C699 C700 1.394 . S
C699 C705 1.465 . S
C700 C695 1.399 . S
C700 C699 1.394 . S
C700 C701 1.516 . S
C701 C700 1.516 . S
C701 C702 1.502 . S
C701 C703 1.561 . S
C701 C704 1.526 . S
C702 H686 0.959 . S
C702 H687 0.959 . S
C702 H688 0.961 . S
C702 C701 1.502 . S
C703 H689 0.960 . S
C703 H690 0.961 . S
C703 H691 0.959 . S
C703 C701 1.561 . S
C704 C701 1.526 . S
C704 C705 1.396 . S
C704 C709 1.390 . S
C705 C699 1.465 . S
C705 C704 1.396 . S
C705 C706 1.399 . S
C706 H692 0.929 . S
C706 C705 1.399 . S
C706 C707 1.385 . S
C707 H693 0.931 . S
C707 C706 1.385 . S
C707 C708 1.389 . S
C708 C707 1.389 . S
C708 C709 1.387 . S
C709 H694 0.930 . S
C709 C704 1.390 . S
C709 C708 1.387 . S
H710 C722 0.930 . S
H711 C724 0.930 . S
H712 C725 0.930 . S
H713 C729 0.959 . S
H714 C729 0.959 . S
H715 C729 0.961 . S
H716 C730 0.960 . S
H717 C730 0.961 . S
H718 C730 0.959 . S
H719 C733 0.929 . S
H720 C734 0.931 . S
H721 C736 0.930 . S
C722 H710 0.930 . S
C722 C723 1.399 . S
C722 C727 1.399 . S
C723 C722 1.399 . S
C723 C724 1.376 . S
C724 H711 0.930 . S
C724 C723 1.376 . S
C724 C725 1.388 . S
C725 H712 0.930 . S
C725 C724 1.388 . S
C725 C726 1.390 . S
C726 C725 1.390 . S
C726 C727 1.394 . S
C726 C732 1.465 . S
C727 C722 1.399 . S
C727 C726 1.394 . S
C727 C728 1.516 . S
C728 C727 1.516 . S
C728 C729 1.502 . S
C728 C730 1.561 . S
C728 C731 1.526 . S
C729 H713 0.959 . S
C729 H714 0.959 . S
C729 H715 0.961 . S
C729 C728 1.502 . S
C730 H716 0.960 . S
C730 H717 0.961 . S
C730 H718 0.959 . S
C730 C728 1.561 . S
C731 C728 1.526 . S
C731 C732 1.396 . S
C731 C736 1.390 . S
C732 C726 1.465 . S
C732 C731 1.396 . S
C732 C733 1.399 . S
C733 H719 0.929 . S
C733 C732 1.399 . S
C733 C734 1.385 . S
C734 H720 0.931 . S
C734 C733 1.385 . S
C734 C735 1.389 . S
C735 C734 1.389 . S
C735 C736 1.387 . S
C736 H721 0.930 . S
C736 C731 1.390 . S
C736 C735 1.387 . S
H737 C749 0.930 . S
H738 C751 0.930 . S
H739 C752 0.930 . S
H740 C756 0.959 . S
H741 C756 0.959 . S
H742 C756 0.961 . S
H743 C757 0.960 . S
H744 C757 0.961 . S
H745 C757 0.959 . S
H746 C760 0.929 . S
H747 C761 0.931 . S
H748 C763 0.930 . S
C749 H737 0.930 . S
C749 C750 1.399 . S
C749 C754 1.399 . S
C750 C749 1.399 . S
C750 C751 1.376 . S
C751 H738 0.930 . S
C751 C750 1.376 . S
C751 C752 1.388 . S
C752 H739 0.930 . S
C752 C751 1.388 . S
C752 C753 1.390 . S
C753 C752 1.390 . S
C753 C754 1.394 . S
C753 C759 1.465 . S
C754 C749 1.399 . S
C754 C753 1.394 . S
C754 C755 1.516 . S
C755 C754 1.516 . S
C755 C756 1.502 . S
C755 C757 1.561 . S
C755 C758 1.526 . S
C756 H740 0.959 . S
C756 H741 0.959 . S
C756 H742 0.961 . S
C756 C755 1.502 . S
C757 H743 0.960 . S
C757 H744 0.961 . S
C757 H745 0.959 . S
C757 C755 1.561 . S
C758 C755 1.526 . S
C758 C759 1.396 . S
C758 C763 1.390 . S
C759 C753 1.465 . S
C759 C758 1.396 . S
C759 C760 1.399 . S
C760 H746 0.929 . S
C760 C759 1.399 . S
C760 C761 1.385 . S
C761 H747 0.931 . S
C761 C760 1.385 . S
C761 C762 1.389 . S
C762 C761 1.389 . S
C762 C763 1.387 . S
C763 H748 0.930 . S
C763 C758 1.390 . S
C763 C762 1.387 . S
H764 C776 0.930 . S
H765 C778 0.930 . S
H766 C779 0.930 . S
H767 C783 0.959 . S
H768 C783 0.959 . S
H769 C783 0.961 . S
H770 C784 0.960 . S
H771 C784 0.961 . S
H772 C784 0.959 . S
H773 C787 0.929 . S
H774 C788 0.931 . S
H775 C790 0.930 . S
C776 H764 0.930 . S
C776 C777 1.399 . S
C776 C781 1.399 . S
C777 C776 1.399 . S
C777 C778 1.376 . S
C778 H765 0.930 . S
C778 C777 1.376 . S
C778 C779 1.388 . S
C779 H766 0.930 . S
C779 C778 1.388 . S
C779 C780 1.390 . S
C780 C779 1.390 . S
C780 C781 1.394 . S
C780 C786 1.465 . S
C781 C776 1.399 . S
C781 C780 1.394 . S
C781 C782 1.516 . S
C782 C781 1.516 . S
C782 C783 1.502 . S
C782 C784 1.561 . S
C782 C785 1.526 . S
C783 H767 0.959 . S
C783 H768 0.959 . S
C783 H769 0.961 . S
C783 C782 1.502 . S
C784 H770 0.960 . S
C784 H771 0.961 . S
C784 H772 0.959 . S
C784 C782 1.561 . S
C785 C782 1.526 . S
C785 C786 1.396 . S
C785 C790 1.390 . S
C786 C780 1.465 . S
C786 C785 1.396 . S
C786 C787 1.399 . S
C787 H773 0.929 . S
C787 C786 1.399 . S
C787 C788 1.385 . S
C788 H774 0.931 . S
C788 C787 1.385 . S
C788 C789 1.389 . S
C789 C788 1.389 . S
C789 C790 1.387 . S
C790 H775 0.930 . S
C790 C785 1.390 . S
C790 C789 1.387 . S
H791 C803 0.930 . S
H792 C805 0.930 . S
H793 C806 0.930 . S
H794 C810 0.959 . S
H795 C810 0.959 . S
H796 C810 0.961 . S
H797 C811 0.960 . S
H798 C811 0.961 . S
H799 C811 0.959 . S
H800 C814 0.929 . S
H801 C815 0.931 . S
H802 C817 0.930 . S
C803 H791 0.930 . S
C803 C804 1.399 . S
C803 C808 1.399 . S
C804 C803 1.399 . S
C804 C805 1.376 . S
C805 H792 0.930 . S
C805 C804 1.376 . S
C805 C806 1.388 . S
C806 H793 0.930 . S
C806 C805 1.388 . S
C806 C807 1.390 . S
C807 C806 1.390 . S
C807 C808 1.394 . S
C807 C813 1.465 . S
C808 C803 1.399 . S
C808 C807 1.394 . S
C808 C809 1.516 . S
C809 C808 1.516 . S
C809 C810 1.502 . S
C809 C811 1.561 . S
C809 C812 1.526 . S
C810 H794 0.959 . S
C810 H795 0.959 . S
C810 H796 0.961 . S
C810 C809 1.502 . S
C811 H797 0.960 . S
C811 H798 0.961 . S
C811 H799 0.959 . S
C811 C809 1.561 . S
C812 C809 1.526 . S
C812 C813 1.396 . S
C812 C817 1.390 . S
C813 C807 1.465 . S
C813 C812 1.396 . S
C813 C814 1.399 . S
C814 H800 0.929 . S
C814 C813 1.399 . S
C814 C815 1.385 . S
C815 H801 0.931 . S
C815 C814 1.385 . S
C815 C816 1.389 . S
C816 C815 1.389 . S
C816 C817 1.387 . S
C817 H802 0.930 . S
C817 C812 1.390 . S
C817 C816 1.387 . S
H818 C830 0.930 . S
H819 C832 0.930 . S
H820 C833 0.930 . S
H821 C837 0.959 . S
H822 C837 0.959 . S
H823 C837 0.961 . S
H824 C838 0.960 . S
H825 C838 0.961 . S
H826 C838 0.959 . S
H827 C841 0.929 . S
H828 C842 0.931 . S
H829 C844 0.930 . S
C830 H818 0.930 . S
C830 C831 1.399 . S
C830 C835 1.399 . S
C831 C830 1.399 . S
C831 C832 1.376 . S
C832 H819 0.930 . S
C832 C831 1.376 . S
C832 C833 1.388 . S
C833 H820 0.930 . S
C833 C832 1.388 . S
C833 C834 1.390 . S
C834 C833 1.390 . S
C834 C835 1.394 . S
C834 C840 1.465 . S
C835 C830 1.399 . S
C835 C834 1.394 . S
C835 C836 1.516 . S
C836 C835 1.516 . S
C836 C837 1.502 . S
C836 C838 1.561 . S
C836 C839 1.526 . S
C837 H821 0.959 . S
C837 H822 0.959 . S
C837 H823 0.961 . S
C837 C836 1.502 . S
C838 H824 0.960 . S
C838 H825 0.961 . S
C838 H826 0.959 . S
C838 C836 1.561 . S
C839 C836 1.526 . S
C839 C840 1.396 . S
C839 C844 1.390 . S
C840 C834 1.465 . S
C840 C839 1.396 . S
C840 C841 1.399 . S
C841 H827 0.929 . S
C841 C840 1.399 . S
C841 C842 1.385 . S
C842 H828 0.931 . S
C842 C841 1.385 . S
C842 C843 1.389 . S
C843 C842 1.389 . S
C843 C844 1.387 . S
C844 H829 0.930 . S
C844 C839 1.390 . S
C844 C843 1.387 . S
H845 C857 0.930 . S
H846 C859 0.930 . S
H847 C860 0.930 . S
H848 C864 0.959 . S
H849 C864 0.959 . S
H850 C864 0.961 . S
H851 C865 0.960 . S
H852 C865 0.961 . S
H853 C865 0.959 . S
H854 C868 0.929 . S
H855 C869 0.931 . S
H856 C871 0.930 . S
C857 H845 0.930 . S
C857 C858 1.399 . S
C857 C862 1.399 . S
C858 C857 1.399 . S
C858 C859 1.376 . S
C859 H846 0.930 . S
C859 C858 1.376 . S
C859 C860 1.388 . S
C860 H847 0.930 . S
C860 C859 1.388 . S
C860 C861 1.390 . S
C861 C860 1.390 . S
C861 C862 1.394 . S
C861 C867 1.465 . S
C862 C857 1.399 . S
C862 C861 1.394 . S
C862 C863 1.516 . S
C863 C862 1.516 . S
C863 C864 1.502 . S
C863 C865 1.561 . S
C863 C866 1.526 . S
C864 H848 0.959 . S
C864 H849 0.959 . S
C864 H850 0.961 . S
C864 C863 1.502 . S
C865 H851 0.960 . S
C865 H852 0.961 . S
C865 H853 0.959 . S
C865 C863 1.561 . S
C866 C863 1.526 . S
C866 C867 1.396 . S
C866 C871 1.390 . S
C867 C861 1.465 . S
C867 C866 1.396 . S
C867 C868 1.399 . S
C868 H854 0.929 . S
C868 C867 1.399 . S
C868 C869 1.385 . S
C869 H855 0.931 . S
C869 C868 1.385 . S
C869 C870 1.389 . S
C870 C869 1.389 . S
C870 C871 1.387 . S
C871 H856 0.930 . S
C871 C866 1.390 . S
C871 C870 1.387 . S
H872 C884 0.930 . S
H873 C886 0.930 . S
H874 C887 0.930 . S
H875 C891 0.959 . S
H876 C891 0.959 . S
H877 C891 0.961 . S
H878 C892 0.960 . S
H879 C892 0.961 . S
H880 C892 0.959 . S
H881 C895 0.929 . S
H882 C896 0.931 . S
H883 C898 0.930 . S
C884 H872 0.930 . S
C884 C885 1.399 . S
C884 C889 1.399 . S
C885 C884 1.399 . S
C885 C886 1.376 . S
C886 H873 0.930 . S
C886 C885 1.376 . S
C886 C887 1.388 . S
C887 H874 0.930 . S
C887 C886 1.388 . S
C887 C888 1.390 . S
C888 C887 1.390 . S
C888 C889 1.394 . S
C888 C894 1.465 . S
C889 C884 1.399 . S
C889 C888 1.394 . S
C889 C890 1.516 . S
C890 C889 1.516 . S
C890 C891 1.502 . S
C890 C892 1.561 . S
C890 C893 1.526 . S
C891 H875 0.959 . S
C891 H876 0.959 . S
C891 H877 0.961 . S
C891 C890 1.502 . S
C892 H878 0.960 . S
C892 H879 0.961 . S
C892 H880 0.959 . S
C892 C890 1.561 . S
C893 C890 1.526 . S
C893 C894 1.396 . S
C893 C898 1.390 . S
C894 C888 1.465 . S
C894 C893 1.396 . S
C894 C895 1.399 . S
C895 H881 0.929 . S
C895 C894 1.399 . S
C895 C896 1.385 . S
C896 H882 0.931 . S
C896 C895 1.385 . S
C896 C897 1.389 . S
C897 C896 1.389 . S
C897 C898 1.387 . S
C898 H883 0.930 . S
C898 C893 1.390 . S
C898 C897 1.387 . S
H899 C911 0.930 . S
H900 C913 0.930 . S
H901 C914 0.930 . S
H902 C918 0.959 . S
H903 C918 0.959 . S
H904 C918 0.961 . S
H905 C919 0.960 . S
H906 C919 0.961 . S
H907 C919 0.959 . S
H908 C922 0.929 . S
H909 C923 0.931 . S
H910 C925 0.930 1_455 S
C911 H899 0.930 . S
C911 C912 1.399 . S
C911 C916 1.399 . S
C912 C911 1.399 . S
C912 C913 1.376 . S
C913 H900 0.930 . S
C913 C912 1.376 . S
C913 C914 1.388 . S
C914 H901 0.930 . S
C914 C913 1.388 . S
C914 C915 1.390 . S
C915 C914 1.390 . S
C915 C916 1.394 . S
C915 C921 1.465 . S
C916 C911 1.399 . S
C916 C915 1.394 . S
C916 C917 1.516 . S
C917 C916 1.516 . S
C917 C918 1.502 . S
C917 C919 1.561 . S
C917 C920 1.526 . S
C918 H902 0.959 . S
C918 H903 0.959 . S
C918 H904 0.961 . S
C918 C917 1.502 . S
C919 H905 0.960 . S
C919 H906 0.961 . S
C919 H907 0.959 . S
C919 C917 1.561 . S
C920 C917 1.526 . S
C920 C921 1.396 . S
C920 C925 1.390 . S
C921 C915 1.465 . S
C921 C920 1.396 . S
C921 C922 1.399 . S
C922 H908 0.929 . S
C922 C921 1.399 . S
C922 C923 1.385 . S
C923 H909 0.931 . S
C923 C922 1.385 . S
C923 C924 1.389 . S
C924 C923 1.389 . S
C924 C925 1.387 . S
C925 H910 0.930 1_655 S
C925 C920 1.390 . S
C925 C924 1.387 . S
H926 C938 0.930 . S
H927 C940 0.930 . S
H928 C941 0.930 . S
H929 C945 0.959 . S
H930 C945 0.959 . S
H931 C945 0.961 . S
H932 C946 0.960 . S
H933 C946 0.961 . S
H934 C946 0.959 . S
H935 C949 0.929 . S
H936 C950 0.931 . S
H937 C952 0.930 . S
C938 H926 0.930 . S
C938 C939 1.399 . S
C938 C943 1.399 . S
C939 C938 1.399 . S
C939 C940 1.376 . S
C940 H927 0.930 . S
C940 C939 1.376 . S
C940 C941 1.388 . S
C941 H928 0.930 . S
C941 C940 1.388 . S
C941 C942 1.390 . S
C942 C941 1.390 . S
C942 C943 1.394 . S
C942 C948 1.465 . S
C943 C938 1.399 . S
C943 C942 1.394 . S
C943 C944 1.516 . S
C944 C943 1.516 . S
C944 C945 1.502 . S
C944 C946 1.561 . S
C944 C947 1.526 . S
C945 H929 0.959 . S
C945 H930 0.959 . S
C945 H931 0.961 . S
C945 C944 1.502 . S
C946 H932 0.960 . S
C946 H933 0.961 . S
C946 H934 0.959 . S
C946 C944 1.561 . S
C947 C944 1.526 . S
C947 C948 1.396 . S
C947 C952 1.390 . S
C948 C942 1.465 . S
C948 C947 1.396 . S
C948 C949 1.399 . S
C949 H935 0.929 . S
C949 C948 1.399 . S
C949 C950 1.385 . S
C950 H936 0.931 . S
C950 C949 1.385 . S
C950 C951 1.389 . S
C951 C950 1.389 . S
C951 C952 1.387 . S
C952 H937 0.930 . S
C952 C947 1.390 . S
C952 C951 1.387 . S
H953 C965 0.930 . S
H954 C967 0.930 . S
H955 C968 0.930 . S
H956 C972 0.959 . S
H957 C972 0.959 . S
H958 C972 0.961 . S
H959 C973 0.960 . S
H960 C973 0.961 . S
H961 C973 0.959 . S
H962 C976 0.929 . S
H963 C977 0.931 . S
H964 C979 0.930 . S
C965 H953 0.930 . S
C965 C966 1.399 . S
C965 C970 1.399 . S
C966 C965 1.399 . S
C966 C967 1.376 . S
C967 H954 0.930 . S
C967 C966 1.376 . S
C967 C968 1.388 . S
C968 H955 0.930 . S
C968 C967 1.388 . S
C968 C969 1.390 . S
C969 C968 1.390 . S
C969 C970 1.394 . S
C969 C975 1.465 . S
C970 C965 1.399 . S
C970 C969 1.394 . S
C970 C971 1.516 . S
C971 C970 1.516 . S
C971 C972 1.502 . S
C971 C973 1.561 . S
C971 C974 1.526 . S
C972 H956 0.959 . S
C972 H957 0.959 . S
C972 H958 0.961 . S
C972 C971 1.502 . S
C973 H959 0.960 . S
C973 H960 0.961 . S
C973 H961 0.959 . S
C973 C971 1.561 . S
C974 C971 1.526 . S
C974 C975 1.396 . S
C974 C979 1.390 . S
C975 C969 1.465 . S
C975 C974 1.396 . S
C975 C976 1.399 . S
C976 H962 0.929 . S
C976 C975 1.399 . S
C976 C977 1.385 . S
C977 H963 0.931 . S
C977 C976 1.385 . S
C977 C978 1.389 . S
C978 C977 1.389 . S
C978 C979 1.387 . S
C979 H964 0.930 . S
C979 C974 1.390 . S
C979 C978 1.387 . S
H980 C992 0.930 . S
H981 C994 0.930 . S
H982 C995 0.930 . S
H983 C999 0.959 . S
H984 C999 0.959 . S
H985 C999 0.961 . S
H986 C1000 0.960 . S
H987 C1000 0.961 . S
H988 C1000 0.959 . S
H989 C1003 0.929 . S
H990 C1004 0.931 . S
H991 C1006 0.930 . S
C992 H980 0.930 . S
C992 C993 1.399 . S
C992 C997 1.399 . S
C993 C992 1.399 . S
C993 C994 1.376 . S
C994 H981 0.930 . S
C994 C993 1.376 . S
C994 C995 1.388 . S
C995 H982 0.930 . S
C995 C994 1.388 . S
C995 C996 1.390 . S
C996 C995 1.390 . S
C996 C997 1.394 . S
C996 C1002 1.465 . S
C997 C992 1.399 . S
C997 C996 1.394 . S
C997 C998 1.516 . S
C998 C997 1.516 . S
C998 C999 1.502 . S
C998 C1000 1.561 . S
C998 C1001 1.526 . S
C999 H983 0.959 . S
C999 H984 0.959 . S
C999 H985 0.961 . S
C999 C998 1.502 . S
C1000 H986 0.960 . S
C1000 H987 0.961 . S
C1000 H988 0.959 . S
C1000 C998 1.561 . S
C1001 C998 1.526 . S
C1001 C1002 1.396 . S
C1001 C1006 1.390 . S
C1002 C996 1.465 . S
C1002 C1001 1.396 . S
C1002 C1003 1.399 . S
C1003 H989 0.929 . S
C1003 C1002 1.399 . S
C1003 C1004 1.385 . S
C1004 H990 0.931 . S
C1004 C1003 1.385 . S
C1004 C1005 1.389 . S
C1005 C1004 1.389 . S
C1005 C1006 1.387 . S
C1006 H991 0.930 . S
C1006 C1001 1.390 . S
C1006 C1005 1.387 . S
H1007 C1019 0.930 . S
H1008 C1021 0.930 . S
H1009 C1022 0.930 . S
H1010 C1026 0.959 . S
H1011 C1026 0.959 . S
H1012 C1026 0.961 . S
H1013 C1027 0.960 . S
H1014 C1027 0.961 . S
H1015 C1027 0.959 . S
H1016 C1030 0.929 . S
H1017 C1031 0.931 . S
H1018 C1033 0.930 . S
C1019 H1007 0.930 . S
C1019 C1020 1.399 . S
C1019 C1024 1.399 . S
C1020 C1019 1.399 . S
C1020 C1021 1.376 . S
C1021 H1008 0.930 . S
C1021 C1020 1.376 . S
C1021 C1022 1.388 . S
C1022 H1009 0.930 . S
C1022 C1021 1.388 . S
C1022 C1023 1.390 . S
C1023 C1022 1.390 . S
C1023 C1024 1.394 . S
C1023 C1029 1.465 . S
C1024 C1019 1.399 . S
C1024 C1023 1.394 . S
C1024 C1025 1.516 . S
C1025 C1024 1.516 . S
C1025 C1026 1.502 . S
C1025 C1027 1.561 . S
C1025 C1028 1.526 . S
C1026 H1010 0.959 . S
C1026 H1011 0.959 . S
C1026 H1012 0.961 . S
C1026 C1025 1.502 . S
C1027 H1013 0.960 . S
C1027 H1014 0.961 . S
C1027 H1015 0.959 . S
C1027 C1025 1.561 . S
C1028 C1025 1.526 . S
C1028 C1029 1.396 . S
C1028 C1033 1.390 . S
C1029 C1023 1.465 . S
C1029 C1028 1.396 . S
C1029 C1030 1.399 . S
C1030 H1016 0.929 . S
C1030 C1029 1.399 . S
C1030 C1031 1.385 . S
C1031 H1017 0.931 . S
C1031 C1030 1.385 . S
C1031 C1032 1.389 . S
C1032 C1031 1.389 . S
C1032 C1033 1.387 . S
C1033 H1018 0.930 . S
C1033 C1028 1.390 . S
C1033 C1032 1.387 . S
H1034 C1046 0.930 . S
H1035 C1048 0.930 . S
H1036 C1049 0.930 . S
H1037 C1053 0.959 . S
H1038 C1053 0.959 . S
H1039 C1053 0.961 . S
H1040 C1054 0.960 . S
H1041 C1054 0.961 . S
H1042 C1054 0.959 . S
H1043 C1057 0.929 . S
H1044 C1058 0.931 . S
H1045 C1060 0.930 . S
C1046 H1034 0.930 . S
C1046 C1047 1.399 . S
C1046 C1051 1.399 . S
C1047 C1046 1.399 . S
C1047 C1048 1.376 . S
C1048 H1035 0.930 . S
C1048 C1047 1.376 . S
C1048 C1049 1.388 . S
C1049 H1036 0.930 . S
C1049 C1048 1.388 . S
C1049 C1050 1.390 . S
C1050 C1049 1.390 . S
C1050 C1051 1.394 . S
C1050 C1056 1.465 . S
C1051 C1046 1.399 . S
C1051 C1050 1.394 . S
C1051 C1052 1.516 . S
C1052 C1051 1.516 . S
C1052 C1053 1.502 . S
C1052 C1054 1.561 . S
C1052 C1055 1.526 . S
C1053 H1037 0.959 . S
C1053 H1038 0.959 . S
C1053 H1039 0.961 . S
C1053 C1052 1.502 . S
C1054 H1040 0.960 . S
C1054 H1041 0.961 . S
C1054 H1042 0.959 . S
C1054 C1052 1.561 . S
C1055 C1052 1.526 . S
C1055 C1056 1.396 . S
C1055 C1060 1.390 . S
C1056 C1050 1.465 . S
C1056 C1055 1.396 . S
C1056 C1057 1.399 . S
C1057 H1043 0.929 . S
C1057 C1056 1.399 . S
C1057 C1058 1.385 . S
C1058 H1044 0.931 . S
C1058 C1057 1.385 . S
C1058 C1059 1.389 . S
C1059 C1058 1.389 . S
C1059 C1060 1.387 . S
C1060 H1045 0.930 . S
C1060 C1055 1.390 . S
C1060 C1059 1.387 . S
H1061 C1073 0.930 . S
H1062 C1075 0.930 . S
H1063 C1076 0.930 . S
H1064 C1080 0.959 . S
H1065 C1080 0.959 . S
H1066 C1080 0.961 . S
H1067 C1081 0.960 . S
H1068 C1081 0.961 . S
H1069 C1081 0.959 . S
H1070 C1084 0.929 . S
H1071 C1085 0.931 . S
H1072 C1087 0.930 . S
C1073 H1061 0.930 . S
C1073 C1074 1.399 . S
C1073 C1078 1.399 . S
C1074 C1073 1.399 . S
C1074 C1075 1.376 . S
C1075 H1062 0.930 . S
C1075 C1074 1.376 . S
C1075 C1076 1.388 . S
C1076 H1063 0.930 . S
C1076 C1075 1.388 . S
C1076 C1077 1.390 . S
C1077 C1076 1.390 . S
C1077 C1078 1.394 . S
C1077 C1083 1.465 . S
C1078 C1073 1.399 . S
C1078 C1077 1.394 . S
C1078 C1079 1.516 . S
C1079 C1078 1.516 . S
C1079 C1080 1.502 . S
C1079 C1081 1.561 . S
C1079 C1082 1.526 . S
C1080 H1064 0.959 . S
C1080 H1065 0.959 . S
C1080 H1066 0.961 . S
C1080 C1079 1.502 . S
C1081 H1067 0.960 . S
C1081 H1068 0.961 . S
C1081 H1069 0.959 . S
C1081 C1079 1.561 . S
C1082 C1079 1.526 . S
C1082 C1083 1.396 . S
C1082 C1087 1.390 . S
C1083 C1077 1.465 . S
C1083 C1082 1.396 . S
C1083 C1084 1.399 . S
C1084 H1070 0.929 . S
C1084 C1083 1.399 . S
C1084 C1085 1.385 . S
C1085 H1071 0.931 . S
C1085 C1084 1.385 . S
C1085 C1086 1.389 . S
C1086 C1085 1.389 . S
C1086 C1087 1.387 . S
C1087 H1072 0.930 . S
C1087 C1082 1.390 . S
C1087 C1086 1.387 . S
C237 C6 1.420 . S
C249 C188 1.353 . S
C264 C160 1.405 . S
C276 C20 1.374 . S
C291 C174 1.374 . S
C303 C34 1.405 . S
C318 C146 1.414 . S
C330 C48 1.362 . S
C345 C62 1.357 . S
C357 C216 1.401 . S
C372 C76 1.405 . S
C384 C132 1.374 . S
C399 C202 1.355 . S
C411 C90 1.403 . S
C426 C104 1.359 . S
C438 C118 1.399 . S
C453 C64 1.741 . S
C465 C8 1.753 . S
C480 C22 1.763 . S
C492 C78 1.755 . S
C507 C36 1.744 . S
C519 C92 1.761 . S
C534 C106 1.753 . S
C546 C50 1.741 . S
C561 C120 1.741 . S
C573 C148 1.752 . S
C588 C134 1.761 . S
C600 C162 1.745 . S
C615 C204 1.743 . S
C627 C176 1.746 . S
C642 C190 1.753 . S
C654 C218 1.741 . S
C669 C77 1.373 . S
C681 C7 1.437 . S
C696 C21 1.360 . S
C708 C91 1.468 . S
C723 C35 1.372 . S
C735 C105 1.437 . S
C750 C63 1.467 . S
C762 C49 1.391 . S
C777 C65 1.332 . S
C789 C149 1.281 . S
C804 C37 1.344 . S
C816 C121 1.287 . S
C831 C163 1.292 . S
C843 C93 1.286 . S
C858 C135 1.282 . S
C870 C9 1.298 . S
C885 C119 1.369 . S
C897 C175 1.442 . S
C912 C147 1.462 . S
C924 C217 1.400 1_655 S
C939 C189 1.473 1_655 S
C951 C133 1.378 . S
C966 C161 1.472 . S
C978 C203 1.364 . S
C993 C205 1.280 . S
C1005 C23 1.301 . S
C1020 C191 1.280 . S
C1032 C79 1.334 . S
C1047 C219 1.286 . S
C1059 C51 1.292 . S
C1074 C177 1.363 . S
C1086 C107 1.316 . S
