# Generated by pormake.
# Topology ukf, (4)-cn, num edge types: 1
# Building blocks:
#     Node 0, Type 0, BuildingBlock: NAHDIM_clean_sbu_0, # of connection points: 4
#     Node 1, Type 0, BuildingBlock: NAHDIM_clean_sbu_0, # of connection points: 4
#     Node 2, Type 0, BuildingBlock: NAHDIM_clean_sbu_0, # of connection points: 4
#     Node 3, Type 0, BuildingBlock: NAHDIM_clean_sbu_0, # of connection points: 4
#     Node 4, Type 0, BuildingBlock: NAHDIM_clean_sbu_0, # of connection points: 4
#     Node 5, Type 0, BuildingBlock: NAHDIM_clean_sbu_0, # of connection points: 4
#     Node 6, Type 0, BuildingBlock: NAHDIM_clean_sbu_0, # of connection points: 4
#     Node 7, Type 0, BuildingBlock: NAHDIM_clean_sbu_0, # of connection points: 4
#     Node 8, Type 0, BuildingBlock: NAHDIM_clean_sbu_0, # of connection points: 4
#     Node 9, Type 0, BuildingBlock: NAHDIM_clean_sbu_0, # of connection points: 4
#     Node 10, Type 0, BuildingBlock: NAHDIM_clean_sbu_0, # of connection points: 4
#     Node 11, Type 0, BuildingBlock: NAHDIM_clean_sbu_0, # of connection points: 4
#     Edge 12, Type (0, 0), BuildingBlock: MIFKUJ_clean_linker_0, # of connection points: 2
#     Edge 13, Type (0, 0), BuildingBlock: MIFKUJ_clean_linker_0, # of connection points: 2
#     Edge 14, Type (0, 0), BuildingBlock: MIFKUJ_clean_linker_0, # of connection points: 2
#     Edge 15, Type (0, 0), BuildingBlock: MIFKUJ_clean_linker_0, # of connection points: 2
#     Edge 16, Type (0, 0), BuildingBlock: MIFKUJ_clean_linker_0, # of connection points: 2
#     Edge 17, Type (0, 0), BuildingBlock: MIFKUJ_clean_linker_0, # of connection points: 2
#     Edge 18, Type (0, 0), BuildingBlock: MIFKUJ_clean_linker_0, # of connection points: 2
#     Edge 19, Type (0, 0), BuildingBlock: MIFKUJ_clean_linker_0, # of connection points: 2
#     Edge 20, Type (0, 0), BuildingBlock: MIFKUJ_clean_linker_0, # of connection points: 2
#     Edge 21, Type (0, 0), BuildingBlock: MIFKUJ_clean_linker_0, # of connection points: 2
#     Edge 22, Type (0, 0), BuildingBlock: MIFKUJ_clean_linker_0, # of connection points: 2
#     Edge 23, Type (0, 0), BuildingBlock: MIFKUJ_clean_linker_0, # of connection points: 2
#     Edge 24, Type (0, 0), BuildingBlock: MIFKUJ_clean_linker_0, # of connection points: 2
#     Edge 25, Type (0, 0), BuildingBlock: MIFKUJ_clean_linker_0, # of connection points: 2
#     Edge 26, Type (0, 0), BuildingBlock: MIFKUJ_clean_linker_0, # of connection points: 2
#     Edge 27, Type (0, 0), BuildingBlock: MIFKUJ_clean_linker_0, # of connection points: 2
#     Edge 28, Type (0, 0), BuildingBlock: MIFKUJ_clean_linker_0, # of connection points: 2
#     Edge 29, Type (0, 0), BuildingBlock: MIFKUJ_clean_linker_0, # of connection points: 2
#     Edge 30, Type (0, 0), BuildingBlock: MIFKUJ_clean_linker_0, # of connection points: 2
#     Edge 31, Type (0, 0), BuildingBlock: MIFKUJ_clean_linker_0, # of connection points: 2
#     Edge 32, Type (0, 0), BuildingBlock: MIFKUJ_clean_linker_0, # of connection points: 2
#     Edge 33, Type (0, 0), BuildingBlock: MIFKUJ_clean_linker_0, # of connection points: 2
#     Edge 34, Type (0, 0), BuildingBlock: MIFKUJ_clean_linker_0, # of connection points: 2
#     Edge 35, Type (0, 0), BuildingBlock: MIFKUJ_clean_linker_0, # of connection points: 2
# Relax obj value: 0.169
# Max RMSD: 0.175
# Mean RMSD: 0.169
data_MOF--net-ukf--node1-NAHDIM_clean_sbu_0--edge1-MIFKUJ_clean_linker_0
_symmetry_space_group_name_H-M    P1
_symmetry_Int_Tables_number       1
_symmetry_cell_setting            triclinic
loop_
_symmetry_equiv_pos_as_xyz
'x, y, z'
_cell_length_a     42.326108
_cell_length_b     41.742392
_cell_length_c     79.874621
_cell_angle_alpha  90.010729
_cell_angle_beta   90.004107
_cell_angle_gamma 120.43528
loop_
_atom_site_label
_atom_site_type_symbol
_atom_site_fract_x
_atom_site_fract_y
_atom_site_fract_z
_atom_type_partial_charge
C0 C 0.40637 0.30358 0.05197 0.0
O1 O 0.39133 0.28717 0.06621 0.0
O2 O 0.44538 0.23028 0.03637 0.0
Zn3 Zn 0.4041 0.23467 0.04629 0.0
O4 O 0.40557 0.22966 0.07126 0.0
C5 C 0.34424 0.18939 0.02298 0.0
O6 O 0.36306 0.21582 0.01203 0.0
O7 O 0.41247 0.28556 0.04087 0.0
C8 C 0.39121 0.19808 0.07831 0.0
O9 O 0.37563 0.16792 0.06904 0.0
C10 C 0.44164 0.19932 0.0319 0.0
O11 O 0.40958 0.16891 0.03356 0.0
O12 O 0.35603 0.19299 0.03788 0.0
C13 C 0.12947 0.4227 0.35996 0.0
O14 O 0.14085 0.41404 0.34632 0.0
O15 O 0.23142 0.45964 0.36799 0.0
Zn16 Zn 0.18669 0.41582 0.37784 0.0
O17 O 0.193 0.41515 0.40276 0.0
C18 C 0.20241 0.3586 0.37372 0.0
O19 O 0.22572 0.37888 0.38549 0.0
O20 O 0.1438 0.42299 0.37397 0.0
C21 C 0.17178 0.386 0.41102 0.0
O22 O 0.14611 0.35685 0.40304 0.0
C23 C 0.23583 0.49196 0.36951 0.0
O24 O 0.21125 0.49607 0.37777 0.0
O25 O 0.18093 0.36872 0.36778 0.0
C26 C 0.83403 0.16822 0.71207 0.0
O27 O 0.837 0.19121 0.72403 0.0
O28 O 0.76832 0.15565 0.74174 0.0
Zn29 Zn 0.76395 0.15475 0.71654 0.0
O30 O 0.77367 0.20411 0.70781 0.0
C31 C 0.68981 0.12638 0.71692 0.0
O32 O 0.70337 0.15635 0.72629 0.0
O33 O 0.80233 0.14579 0.70629 0.0
C34 C 0.77213 0.20722 0.69206 0.0
O35 O 0.76498 0.1787 0.68249 0.0
C36 C 0.77747 0.18467 0.75035 0.0
O37 O 0.78452 0.21546 0.74271 0.0
O38 O 0.71177 0.11751 0.71042 0.0
C39 C 0.57918 0.69935 0.05454 0.0
O40 O 0.58128 0.71312 0.06955 0.0
O41 O 0.55364 0.77467 0.03225 0.0
Zn42 Zn 0.5936 0.77187 0.04457 0.0
O43 O 0.59207 0.78347 0.06893 0.0
C44 C 0.67015 0.82687 0.04487 0.0
O45 O 0.66759 0.81503 0.06033 0.0
O46 O 0.58496 0.71993 0.04182 0.0
C47 C 0.58832 0.81033 0.07381 0.0
O48 O 0.5844 0.8312 0.06265 0.0
C49 C 0.5221 0.76174 0.03878 0.0
O50 O 0.51587 0.74646 0.0537 0.0
O51 O 0.64226 0.81095 0.03537 0.0
C52 C 0.89442 0.57423 0.37092 0.0
O53 O 0.89748 0.59142 0.38514 0.0
O54 O 0.77766 0.52387 0.3625 0.0
Zn55 Zn 0.82403 0.56987 0.3697 0.0
O56 O 0.82505 0.57451 0.39492 0.0
C57 C 0.79429 0.6132 0.35843 0.0
O58 O 0.7647 0.58304 0.36356 0.0
O59 O 0.86612 0.56403 0.36193 0.0
C60 C 0.79624 0.5654 0.40336 0.0
O61 O 0.76479 0.55236 0.39553 0.0
C62 C 0.76486 0.49297 0.37006 0.0
O63 O 0.78248 0.49041 0.38305 0.0
O64 O 0.82502 0.61476 0.3595 0.0
C65 C 0.16688 0.8566 0.70378 0.0
O66 O 0.1711 0.8577 0.7201 0.0
O67 O 0.22993 0.84728 0.72895 0.0
Zn68 Zn 0.23203 0.85013 0.70377 0.0
O69 O 0.22685 0.80295 0.69457 0.0
C70 C 0.29864 0.92055 0.70607 0.0
O71 O 0.28139 0.92485 0.71877 0.0
O72 O 0.19065 0.85553 0.69442 0.0
C73 C 0.24777 0.79141 0.69967 0.0
O74 O 0.27234 0.81042 0.71123 0.0
C75 C 0.20884 0.8174 0.73675 0.0
O76 O 0.18723 0.78716 0.7282 0.0
O77 O 0.28187 0.89153 0.6971 0.0
C78 C 0.69011 0.54569 0.61575 0.0
O79 O 0.69778 0.52588 0.60554 0.0
O80 O 0.77459 0.54589 0.62513 0.0
Zn81 Zn 0.76672 0.58592 0.6154 0.0
O82 O 0.76934 0.58543 0.59026 0.0
C83 C 0.81137 0.64342 0.63929 0.0
O84 O 0.78784 0.61971 0.65015 0.0
O85 O 0.71638 0.57508 0.62211 0.0
C86 C 0.79967 0.59738 0.58268 0.0
O87 O 0.82999 0.61068 0.59148 0.0
C88 C 0.77138 0.51876 0.61653 0.0
O89 O 0.7631 0.51662 0.60056 0.0
O90 O 0.80672 0.63533 0.62381 0.0
C91 C 0.09989 0.69616 0.94165 0.0
O92 O 0.1065 0.70839 0.92617 0.0
O93 O 0.20585 0.77344 0.95915 0.0
Zn94 Zn 0.16094 0.76935 0.94829 0.0
O95 O 0.16822 0.776 0.92338 0.0
C96 C 0.15809 0.81886 0.97256 0.0
O97 O 0.16471 0.79875 0.98307 0.0
O98 O 0.11853 0.71807 0.95346 0.0
C99 C 0.18876 0.80725 0.91648 0.0
O100 O 0.20668 0.83702 0.92587 0.0
C101 C 0.23162 0.7734 0.95099 0.0
O102 O 0.22976 0.77116 0.93459 0.0
O103 O 0.15362 0.81014 0.95715 0.0
C104 C 0.30131 0.12335 0.29452 0.0
O105 O 0.30199 0.12595 0.27812 0.0
O106 O 0.37041 0.14204 0.26495 0.0
Zn107 Zn 0.37507 0.13791 0.28985 0.0
O108 O 0.41337 0.18719 0.29907 0.0
C109 C 0.42622 0.11634 0.28724 0.0
O110 O 0.43971 0.14694 0.27831 0.0
O111 O 0.32824 0.1242 0.302 0.0
C112 C 0.42069 0.18875 0.31458 0.0
O113 O 0.40177 0.15893 0.32383 0.0
C114 C 0.38184 0.17328 0.25787 0.0
O115 O 0.39597 0.20353 0.26707 0.0
O116 O 0.39492 0.10384 0.29401 0.0
C117 C 0.31112 0.42952 0.63807 0.0
O118 O 0.30078 0.44773 0.64792 0.0
O119 O 0.24451 0.45333 0.63129 0.0
Zn120 Zn 0.24201 0.40722 0.62181 0.0
O121 O 0.236 0.40664 0.59683 0.0
C122 C 0.16768 0.36021 0.62878 0.0
O123 O 0.16753 0.38659 0.61989 0.0
O124 O 0.28956 0.40893 0.62659 0.0
C125 C 0.22098 0.37638 0.58865 0.0
O126 O 0.20947 0.3449 0.59667 0.0
C127 C 0.23286 0.47184 0.62347 0.0
O128 O 0.21869 0.46108 0.60846 0.0
O129 O 0.1981 0.36207 0.63166 0.0
C130 C 0.90026 0.30068 0.95404 0.0
O131 O 0.89822 0.28319 0.94004 0.0
O132 O 0.79026 0.22744 0.97145 0.0
Zn133 Zn 0.8355 0.23126 0.96147 0.0
O134 O 0.82734 0.22341 0.93664 0.0
C135 C 0.84828 0.18984 0.98701 0.0
O136 O 0.85191 0.21671 0.99687 0.0
O137 O 0.87748 0.28315 0.96568 0.0
C138 C 0.81685 0.19265 0.92927 0.0
O139 O 0.81056 0.16346 0.93811 0.0
C140 C 0.76001 0.19684 0.97137 0.0
O141 O 0.75872 0.16724 0.96492 0.0
O142 O 0.84293 0.19145 0.97147 0.0
C143 C 0.66692 0.83088 0.2867 0.0
O144 O 0.64552 0.8117 0.27417 0.0
O145 O 0.61991 0.86014 0.25996 0.0
Zn146 Zn 0.61887 0.8585 0.28515 0.0
O147 O 0.57284 0.81206 0.29234 0.0
C148 C 0.63238 0.93428 0.28817 0.0
O149 O 0.65419 0.94158 0.27524 0.0
O150 O 0.66176 0.85513 0.29378 0.0
C151 C 0.54362 0.81236 0.2957 0.0
O152 O 0.5432 0.84347 0.29413 0.0
C153 C 0.60018 0.869 0.25138 0.0
O154 O 0.57879 0.87855 0.25911 0.0
O155 O 0.61697 0.90205 0.29462 0.0
H156 H 0.15081 0.86918 0.95348 0.0
H157 H 0.16795 0.93258 0.96124 0.0
H158 H 0.19213 0.91333 0.01143 0.0
H159 H 0.17469 0.84974 0.00386 0.0
H160 H 0.16163 0.95911 0.01059 0.0
H161 H 0.25887 0.9488 0.98319 0.0
H162 H 0.28458 0.93029 0.95993 0.0
H163 H 0.26543 0.99858 0.92608 0.0
H164 H 0.23911 0.01708 0.94912 0.0
H165 H 0.30712 0.12612 0.0415 0.0
H166 H 0.26184 0.06453 0.03175 0.0
H167 H 0.26407 0.10879 0.98265 0.0
H168 H 0.31068 0.17075 0.99224 0.0
H169 H 0.27243 0.052 0.97989 0.0
H170 H 0.18602 0.07198 0.00882 0.0
H171 H 0.16044 0.09032 0.03218 0.0
H172 H 0.15836 0.0051 0.06307 0.0
H173 H 0.18441 0.98655 0.03998 0.0
C174 C 0.15902 0.87812 0.96627 0.0
C175 C 0.16198 0.85459 0.97799 0.0
C176 C 0.1688 0.91438 0.97068 0.0
C177 C 0.18186 0.92778 0.98683 0.0
C178 C 0.18217 0.90351 0.99889 0.0
C179 C 0.17236 0.86722 0.99451 0.0
C180 C 0.1993 0.96795 0.99063 0.0
C181 C 0.18587 0.97955 0.00393 0.0
C182 C 0.23031 0.99461 0.9816 0.0
C183 C 0.24666 0.98397 0.96782 0.0
C184 C 0.25994 0.95967 0.97076 0.0
C185 C 0.27463 0.9492 0.95763 0.0
C186 C 0.27653 0.96316 0.94152 0.0
C187 C 0.26387 0.98773 0.93855 0.0
C188 C 0.24907 0.99823 0.95164 0.0
C189 C 0.29756 0.12301 0.0287 0.0
C190 C 0.31274 0.15337 0.01761 0.0
C191 C 0.27134 0.08768 0.02316 0.0
C192 C 0.25913 0.08194 0.00649 0.0
C193 C 0.27301 0.11253 0.99558 0.0
C194 C 0.29961 0.14793 0.00108 0.0
C195 C 0.23526 0.04351 0.00015 0.0
C196 C 0.24763 0.03203 0.98636 0.0
C197 C 0.20325 0.01709 0.00874 0.0
C198 C 0.18736 0.02799 0.02266 0.0
C199 C 0.18033 0.05728 0.02062 0.0
C200 C 0.16571 0.0677 0.03382 0.0
C201 C 0.15782 0.04892 0.0491 0.0
C202 C 0.16447 0.01962 0.05122 0.0
C203 C 0.1791 0.00909 0.03807 0.0
H204 H 0.14653 0.05704 0.0593 0.0
H205 H 0.28788 0.95499 0.93137 0.0
H206 H 0.17197 0.3202 0.34464 0.0
H207 H 0.17793 0.26918 0.33303 0.0
H208 H 0.2384 0.27086 0.37686 0.0
H209 H 0.2335 0.32235 0.38823 0.0
H210 H 0.27363 0.27174 0.35029 0.0
H211 H 0.149 0.19866 0.36843 0.0
H212 H 0.084 0.18076 0.37074 0.0
H213 H 0.07129 0.16481 0.31753 0.0
H214 H 0.13638 0.18311 0.31486 0.0
H215 H 0.29464 0.1237 0.32857 0.0
H216 H 0.26456 0.15107 0.34419 0.0
H217 H 0.21977 0.16579 0.2983 0.0
H218 H 0.24933 0.13799 0.28255 0.0
H219 H 0.1741 0.15311 0.32683 0.0
H220 H 0.30021 0.2319 0.30898 0.0
H221 H 0.36455 0.2473 0.30682 0.0
H222 H 0.37364 0.25164 0.36042 0.0
H223 H 0.30909 0.23556 0.36289 0.0
C224 C 0.18614 0.30935 0.35187 0.0
C225 C 0.20254 0.32547 0.36727 0.0
C226 C 0.18937 0.28006 0.34527 0.0
C227 C 0.20847 0.26601 0.35411 0.0
C228 C 0.22368 0.2813 0.36977 0.0
C229 C 0.22085 0.31076 0.37625 0.0
C230 C 0.21527 0.2375 0.34657 0.0
C231 C 0.25168 0.24554 0.34547 0.0
C232 C 0.18683 0.20364 0.33987 0.0
C233 C 0.14767 0.1926 0.34143 0.0
C234 C 0.13243 0.19163 0.3572 0.0
C235 C 0.09555 0.18135 0.35858 0.0
C236 C 0.07355 0.17174 0.34429 0.0
C237 C 0.08837 0.1723 0.32859 0.0
C238 C 0.12525 0.18259 0.32713 0.0
C239 C 0.27742 0.1316 0.32184 0.0
C240 C 0.27514 0.12955 0.30426 0.0
C241 C 0.26021 0.14721 0.3308 0.0
C242 C 0.24071 0.16121 0.32232 0.0
C243 C 0.23489 0.15532 0.30504 0.0
C244 C 0.25198 0.13956 0.29606 0.0
C245 C 0.23217 0.1874 0.33085 0.0
C246 C 0.19574 0.17915 0.33193 0.0
C247 C 0.26052 0.22116 0.3376 0.0
C248 C 0.29973 0.23218 0.33612 0.0
C249 C 0.31589 0.23598 0.3203 0.0
C250 C 0.35238 0.2448 0.31902 0.0
C251 C 0.37315 0.25035 0.33348 0.0
C252 C 0.3575 0.24727 0.34924 0.0
C253 C 0.32097 0.23831 0.35059 0.0
H254 H 0.40137 0.2571 0.33246 0.0
H255 H 0.045 0.16379 0.34538 0.0
H256 H 0.90438 0.21676 0.72096 0.0
H257 H 0.95957 0.23232 0.70548 0.0
H258 H 0.89598 0.14478 0.67005 0.0
H259 H 0.83981 0.1299 0.68527 0.0
H260 H 0.99845 0.20433 0.69606 0.0
H261 H 0.93238 0.17515 0.63122 0.0
H262 H 0.87638 0.16644 0.61736 0.0
H263 H 0.86759 0.23704 0.65389 0.0
H264 H 0.92375 0.24649 0.66781 0.0
H265 H 0.15313 0.29253 0.64103 0.0
H266 H 0.09515 0.24352 0.65294 0.0
H267 H 0.04695 0.31191 0.64467 0.0
H268 H 0.10375 0.35971 0.63218 0.0
H269 H 0.99874 0.24532 0.63776 0.0
H270 H 0.08427 0.30451 0.68394 0.0
H271 H 0.14114 0.32326 0.69974 0.0
H272 H 0.11269 0.20909 0.70361 0.0
H273 H 0.05581 0.18974 0.68766 0.0
C274 C 0.90199 0.20038 0.71 0.0
C275 C 0.86757 0.17256 0.70416 0.0
C276 C 0.93376 0.20916 0.70121 0.0
C277 C 0.93198 0.19016 0.68643 0.0
C278 C 0.89796 0.16029 0.68126 0.0
C279 C 0.86591 0.15174 0.68999 0.0
C280 C 0.96521 0.20492 0.67576 0.0
C281 C 0.99845 0.21275 0.68321 0.0
C282 C 0.96538 0.21619 0.65902 0.0
C283 C 0.93188 0.21105 0.65066 0.0
C284 C 0.91848 0.18882 0.63626 0.0
C285 C 0.88675 0.18378 0.6284 0.0
C286 C 0.86836 0.20105 0.63478 0.0
C287 C 0.88178 0.22358 0.64899 0.0
C288 C 0.91354 0.22878 0.65687 0.0
C289 C 0.13001 0.29687 0.64169 0.0
C290 C 0.13299 0.33 0.63576 0.0
C291 C 0.09693 0.2689 0.64851 0.0
C292 C 0.06667 0.27408 0.64986 0.0
C293 C 0.06968 0.30699 0.64367 0.0
C294 C 0.10233 0.33449 0.63661 0.0
C295 C 0.03224 0.24659 0.65838 0.0
C296 C 0.99872 0.23594 0.65043 0.0
C297 C 0.03198 0.23416 0.6749 0.0
C298 C 0.06612 0.24575 0.68443 0.0
C299 C 0.09031 0.28346 0.68806 0.0
C300 C 0.1225 0.29418 0.69706 0.0
C301 C 0.13059 0.2674 0.70262 0.0
C302 C 0.10644 0.22982 0.69925 0.0
C303 C 0.07423 0.21896 0.69024 0.0
H304 H 0.15552 0.27575 0.70958 0.0
H305 H 0.84377 0.19706 0.6287 0.0
H306 H 0.72575 0.87805 0.06453 0.0
H307 H 0.77206 0.94147 0.05674 0.0
H308 H 0.73371 0.91953 0.00569 0.0
H309 H 0.68721 0.85614 0.01335 0.0
H310 H 0.81196 0.9669 0.00911 0.0
H311 H 0.69716 0.95295 0.03048 0.0
H312 H 0.64938 0.93362 0.05216 0.0
H313 H 0.73024 0.00634 0.08767 0.0
H314 H 0.77859 0.02565 0.06624 0.0
H315 H 0.8291 0.12515 0.97065 0.0
H316 H 0.81464 0.06597 0.98289 0.0
H317 H 0.84558 0.1171 0.0317 0.0
H318 H 0.859 0.17653 0.01953 0.0
H319 H 0.78248 0.0578 0.03377 0.0
H320 H 0.89551 0.08225 0.01101 0.0
H321 H 0.9445 0.10115 0.99002 0.0
H322 H 0.8715 0.01039 0.95835 0.0
H323 H 0.82188 0.99123 0.97903 0.0
C324 C 0.72774 0.88638 0.05156 0.0
C325 C 0.70247 0.86227 0.03959 0.0
C326 C 0.75422 0.92263 0.04714 0.0
C327 C 0.75596 0.93519 0.0307 0.0
C328 C 0.73276 0.91029 0.01845 0.0
C329 C 0.70608 0.87416 0.02287 0.0
C330 C 0.77821 0.97519 0.02664 0.0
C331 C 0.8057 0.98694 0.01445 0.0
C332 C 0.77069 0.00136 0.03408 0.0
C333 C 0.74151 0.99041 0.04683 0.0
C334 C 0.70476 0.96463 0.04295 0.0
C335 C 0.67758 0.95369 0.05518 0.0
C336 C 0.68678 0.96866 0.0713 0.0
C337 C 0.72316 0.99471 0.07519 0.0
C338 C 0.75046 0.00567 0.06301 0.0
C339 C 0.83351 0.12408 0.98395 0.0
C340 C 0.84499 0.15555 0.99413 0.0
C341 C 0.82547 0.09016 0.99093 0.0
C342 C 0.82938 0.08703 0.00822 0.0
C343 C 0.84239 0.11881 0.01833 0.0
C344 C 0.85011 0.15278 0.01135 0.0
C345 C 0.81598 0.04982 0.0158 0.0
C346 C 0.78982 0.03836 0.02866 0.0
C347 C 0.8251 0.0241 0.00908 0.0
C348 C 0.85487 0.03541 0.99657 0.0
C349 C 0.8898 0.06646 0.99952 0.0
C350 C 0.91771 0.0772 0.98768 0.0
C351 C 0.9111 0.05701 0.97286 0.0
C352 C 0.87658 0.026 0.96985 0.0
C353 C 0.84857 0.01514 0.98164 0.0
H354 H 0.93275 0.06538 0.96371 0.0
H355 H 0.6657 0.96012 0.08076 0.0
H356 H 0.71367 0.86244 0.31335 0.0
H357 H 0.75268 0.84146 0.32614 0.0
H358 H 0.71838 0.75604 0.28847 0.0
H359 H 0.68037 0.77733 0.27546 0.0
H360 H 0.73148 0.77876 0.34055 0.0
H361 H 0.77866 0.72974 0.28171 0.0
H362 H 0.80117 0.75215 0.25317 0.0
H363 H 0.83655 0.86399 0.26841 0.0
H364 H 0.81477 0.84239 0.2971 0.0
H365 H 0.73209 0.61615 0.35429 0.0
H366 H 0.72611 0.66729 0.34359 0.0
H367 H 0.84324 0.73313 0.33695 0.0
H368 H 0.84953 0.68136 0.34752 0.0
H369 H 0.80806 0.73882 0.31025 0.0
H370 H 0.80389 0.75478 0.3684 0.0
H371 H 0.78585 0.73682 0.39779 0.0
H372 H 0.67399 0.70089 0.3855 0.0
H373 H 0.69122 0.71809 0.35598 0.0
C374 C 0.71504 0.83966 0.30762 0.0
C375 C 0.69375 0.82141 0.29344 0.0
C376 C 0.73732 0.82769 0.31495 0.0
C377 C 0.73878 0.79737 0.3082 0.0
C378 C 0.71846 0.78001 0.29372 0.0
C379 C 0.6964 0.79204 0.28636 0.0
C380 C 0.75794 0.78093 0.31718 0.0
C381 C 0.74865 0.77051 0.33397 0.0
C382 C 0.78134 0.77112 0.3088 0.0
C383 C 0.7949 0.78437 0.29158 0.0
C384 C 0.79147 0.75915 0.27902 0.0
C385 C 0.80405 0.77171 0.2628 0.0
C386 C 0.82022 0.80946 0.25897 0.0
C387 C 0.82392 0.83475 0.27137 0.0
C388 C 0.81141 0.82234 0.28762 0.0
C389 C 0.75671 0.64147 0.35062 0.0
C390 C 0.79133 0.6447 0.35182 0.0
C391 C 0.75323 0.67083 0.34459 0.0
C392 C 0.78428 0.7043 0.33977 0.0
C393 C 0.81895 0.70762 0.34073 0.0
C394 C 0.82248 0.67806 0.34677 0.0
C395 C 0.77967 0.73492 0.3332 0.0
C396 C 0.79168 0.74795 0.3169 0.0
C397 C 0.7595 0.74791 0.34215 0.0
C398 C 0.74888 0.73765 0.35994 0.0
C399 C 0.7754 0.74285 0.37194 0.0
C400 C 0.76532 0.73282 0.38863 0.0
C401 C 0.72879 0.7177 0.39351 0.0
C402 C 0.70228 0.71263 0.3817 0.0
C403 C 0.71221 0.72258 0.36499 0.0
H404 H 0.72104 0.70995 0.40644 0.0
H405 H 0.82992 0.81912 0.2464 0.0
H406 H 0.83219 0.66752 0.67149 0.0
H407 H 0.89241 0.7166 0.681 0.0
H408 H 0.92837 0.74296 0.62973 0.0
H409 H 0.86839 0.69395 0.6201 0.0
H410 H 0.97297 0.72813 0.64845 0.0
H411 H 0.91904 0.80458 0.65331 0.0
H412 H 0.87304 0.82055 0.66242 0.0
H413 H 0.8972 0.81189 0.71386 0.0
H414 H 0.94299 0.79534 0.70507 0.0
H415 H 0.15133 0.8609 0.6709 0.0
H416 H 0.09074 0.83789 0.65855 0.0
H417 H 0.04219 0.81132 0.7078 0.0
H418 H 0.10274 0.83549 0.72025 0.0
H419 H 0.00466 0.8316 0.68813 0.0
H420 H 0.04988 0.74671 0.68434 0.0
H421 H 0.09424 0.72739 0.67668 0.0
H422 H 0.08377 0.74745 0.62481 0.0
H423 H 0.03971 0.7674 0.63221 0.0
C424 C 0.85266 0.68422 0.66222 0.0
C425 C 0.84559 0.67655 0.64504 0.0
C426 C 0.88702 0.71241 0.66768 0.0
C427 C 0.91483 0.73345 0.65606 0.0
C428 C 0.90727 0.72703 0.6389 0.0
C429 C 0.87294 0.69899 0.63342 0.0
C430 C 0.95283 0.75901 0.66181 0.0
C431 C 0.98006 0.75131 0.65682 0.0
C432 C 0.96174 0.7884 0.67318 0.0
C433 C 0.93427 0.79843 0.67852 0.0
C434 C 0.91434 0.80578 0.66656 0.0
C435 C 0.88834 0.815 0.67167 0.0
C436 C 0.88215 0.81716 0.68871 0.0
C437 C 0.90201 0.81019 0.70067 0.0
C438 C 0.92802 0.80093 0.69563 0.0
C439 C 0.12785 0.85094 0.67912 0.0
C440 C 0.13173 0.84942 0.69653 0.0
C441 C 0.09322 0.83772 0.67205 0.0
C442 C 0.06183 0.82198 0.68223 0.0
C443 C 0.06598 0.82314 0.69969 0.0
C444 C 0.10066 0.83688 0.70679 0.0
C445 C 0.02471 0.80068 0.67472 0.0
C446 C 0.99764 0.8089 0.67949 0.0
C447 C 0.01562 0.77123 0.66334 0.0
C448 C 0.04185 0.75895 0.65884 0.0
C449 C 0.05724 0.74723 0.67131 0.0
C450 C 0.0823 0.73615 0.66702 0.0
C451 C 0.0919 0.7363 0.65027 0.0
C452 C 0.07636 0.74742 0.63778 0.0
C453 C 0.05134 0.75862 0.64201 0.0
H454 H 0.11132 0.72771 0.64697 0.0
H455 H 0.86201 0.8243 0.69264 0.0
H456 H 0.75341 0.25326 0.9849 0.0
H457 H 0.69797 0.25052 0.99539 0.0
H458 H 0.63536 0.13365 0.98358 0.0
H459 H 0.69074 0.13623 0.97281 0.0
H460 H 0.60037 0.16935 0.97355 0.0
H461 H 0.65768 0.16173 0.02376 0.0
H462 H 0.70816 0.18046 0.04392 0.0
H463 H 0.7148 0.28572 0.05083 0.0
H464 H 0.66467 0.26782 0.03051 0.0
H465 H 0.44273 0.13848 0.01986 0.0
H466 H 0.49572 0.13567 0.00958 0.0
H467 H 0.56515 0.2531 0.01876 0.0
H468 H 0.51249 0.25617 0.02915 0.0
H469 H 0.5951 0.21328 0.03065 0.0
H470 H 0.53934 0.22149 0.97954 0.0
H471 H 0.48896 0.20263 0.95929 0.0
H472 H 0.4792 0.09556 0.95426 0.0
H473 H 0.52923 0.11362 0.97466 0.0
C474 C 0.7279 0.22691 0.98457 0.0
C475 C 0.72651 0.19492 0.97806 0.0
C476 C 0.69624 0.22537 0.99063 0.0
C477 C 0.66263 0.19178 0.99044 0.0
C478 C 0.66106 0.15983 0.98387 0.0
C479 C 0.69275 0.16135 0.97777 0.0
C480 C 0.62909 0.19031 0.9969 0.0
C481 C 0.59896 0.17836 0.98613 0.0
C482 C 0.62757 0.20273 0.0132 0.0
C483 C 0.65761 0.21354 0.0255 0.0
C484 C 0.67008 0.18898 0.02948 0.0
C485 C 0.69861 0.19943 0.04096 0.0
C486 C 0.71474 0.23429 0.04863 0.0
C487 C 0.7023 0.25874 0.04487 0.0
C488 C 0.67381 0.24844 0.03339 0.0
C489 C 0.46925 0.16374 0.01966 0.0
C490 C 0.47339 0.19756 0.02531 0.0
C491 C 0.49947 0.16209 0.01373 0.0
C492 C 0.5343 0.19423 0.01333 0.0
C493 C 0.5385 0.22798 0.01899 0.0
C494 C 0.50833 0.22969 0.02486 0.0
C495 C 0.56657 0.19271 0.00725 0.0
C496 C 0.59645 0.20407 0.0181 0.0
C497 C 0.5678 0.17966 0.99105 0.0
C498 C 0.53775 0.16877 0.97877 0.0
C499 C 0.52623 0.19381 0.97423 0.0
C500 C 0.49779 0.18329 0.9627 0.0
C501 C 0.48081 0.14788 0.95553 0.0
C502 C 0.49233 0.12296 0.95984 0.0
C503 C 0.52075 0.13333 0.97138 0.0
H504 H 0.4588 0.13979 0.94661 0.0
H505 H 0.73682 0.24233 0.05751 0.0
H506 H 0.25065 0.56372 0.36866 0.0
H507 H 0.30269 0.61711 0.3554 0.0
H508 H 0.34499 0.5473 0.33945 0.0
H509 H 0.29313 0.4937 0.3528 0.0
H510 H 0.39838 0.61323 0.35274 0.0
H511 H 0.30236 0.57297 0.31181 0.0
H512 H 0.24054 0.55521 0.30172 0.0
H513 H 0.25914 0.66337 0.31446 0.0
H514 H 0.32092 0.68161 0.32485 0.0
H515 H 0.53212 0.74176 0.29689 0.0
H516 H 0.47931 0.68646 0.30856 0.0
H517 H 0.42921 0.75123 0.32114 0.0
H518 H 0.48139 0.8064 0.309 0.0
H519 H 0.37951 0.68666 0.30918 0.0
H520 H 0.47399 0.72694 0.35083 0.0
H521 H 0.53543 0.74536 0.3617 0.0
H522 H 0.51953 0.63839 0.34861 0.0
H523 H 0.45815 0.6195 0.33746 0.0
C524 C 0.27102 0.55968 0.36236 0.0
C525 C 0.26768 0.52443 0.36174 0.0
C526 C 0.30067 0.59021 0.35472 0.0
C527 C 0.32746 0.58605 0.34629 0.0
C528 C 0.32454 0.55105 0.34587 0.0
C529 C 0.29484 0.52046 0.35347 0.0
C530 C 0.3586 0.6183 0.33795 0.0
C531 C 0.39433 0.629 0.34304 0.0
C532 C 0.35318 0.63935 0.32561 0.0
C533 C 0.31614 0.62853 0.31924 0.0
C534 C 0.29317 0.59287 0.31257 0.0
C535 C 0.25815 0.58274 0.30678 0.0
C536 C 0.24588 0.60812 0.30748 0.0
C537 C 0.26866 0.64373 0.31394 0.0
C538 C 0.30369 0.65399 0.31976 0.0
C539 C 0.5098 0.74421 0.30209 0.0
C540 C 0.51106 0.77852 0.30214 0.0
C541 C 0.4797 0.71261 0.30883 0.0
C542 C 0.45059 0.71482 0.31602 0.0
C543 C 0.4514 0.74886 0.31572 0.0
C544 C 0.4813 0.7804 0.30881 0.0
C545 C 0.41942 0.68178 0.324 0.0
C546 C 0.38365 0.6709 0.31885 0.0
C547 C 0.42479 0.66071 0.33639 0.0
C548 C 0.46162 0.67195 0.34316 0.0
C549 C 0.4837 0.70744 0.35016 0.0
C550 C 0.5185 0.71795 0.35639 0.0
C551 C 0.53142 0.69309 0.3558 0.0
C552 C 0.50951 0.65763 0.34903 0.0
C553 C 0.4747 0.647 0.34277 0.0
H554 H 0.55836 0.70128 0.36063 0.0
H555 H 0.21876 0.60021 0.303 0.0
H556 H 0.78863 0.27184 0.70809 0.0
H557 H 0.79325 0.32769 0.69577 0.0
H558 H 0.76968 0.27617 0.647 0.0
H559 H 0.76581 0.22061 0.65914 0.0
H560 H 0.82286 0.34709 0.645 0.0
H561 H 0.70326 0.27954 0.67024 0.0
H562 H 0.65941 0.24789 0.69324 0.0
H563 H 0.70942 0.34913 0.7217 0.0
H564 H 0.75391 0.38126 0.69894 0.0
H565 H 0.76365 0.45588 0.60203 0.0
H566 H 0.76842 0.40601 0.61551 0.0
H567 H 0.7936 0.46473 0.66255 0.0
H568 H 0.78833 0.51457 0.64922 0.0
H569 H 0.74274 0.39279 0.66641 0.0
H570 H 0.8603 0.46121 0.64001 0.0
H571 H 0.90316 0.49219 0.61661 0.0
H572 H 0.85601 0.38878 0.5899 0.0
H573 H 0.8125 0.35726 0.61304 0.0
C574 C 0.78461 0.27247 0.69473 0.0
C575 C 0.77658 0.24169 0.68461 0.0
C576 C 0.78714 0.30436 0.68772 0.0
C577 C 0.78128 0.30588 0.6705 0.0
C578 C 0.77424 0.27557 0.66032 0.0
C579 C 0.7719 0.24378 0.66729 0.0
C580 C 0.78162 0.33864 0.66311 0.0
C581 C 0.8051 0.35689 0.64958 0.0
C582 C 0.75901 0.3519 0.66932 0.0
C583 C 0.73215 0.33269 0.68297 0.0
C584 C 0.70507 0.29498 0.68145 0.0
C585 C 0.68008 0.27696 0.69444 0.0
C586 C 0.68169 0.29646 0.70894 0.0
C587 C 0.70824 0.33405 0.71047 0.0
C588 C 0.73333 0.35218 0.69753 0.0
C589 C 0.7704 0.45833 0.61522 0.0
C590 C 0.77563 0.48922 0.62455 0.0
C591 C 0.77328 0.42985 0.62289 0.0
C592 C 0.78176 0.43185 0.63999 0.0
C593 C 0.7871 0.46268 0.64933 0.0
C594 C 0.78416 0.49116 0.64168 0.0
C595 C 0.78382 0.40113 0.64823 0.0
C596 C 0.76073 0.38321 0.66192 0.0
C597 C 0.80666 0.38809 0.64211 0.0
C598 C 0.83293 0.40694 0.62821 0.0
C599 C 0.85889 0.44513 0.62909 0.0
C600 C 0.88333 0.46278 0.61588 0.0
C601 C 0.88226 0.44249 0.60176 0.0
C602 C 0.85679 0.40447 0.60084 0.0
C603 C 0.83226 0.38669 0.61401 0.0
H604 H 0.9012 0.45621 0.59155 0.0
H605 H 0.66232 0.28247 0.71898 0.0
H606 H 0.23849 0.76665 0.98463 0.0
H607 H 0.28901 0.76651 0.99928 0.0
H608 H 0.34611 0.78351 0.95241 0.0
H609 H 0.2951 0.78256 0.93759 0.0
H610 H 0.34966 0.73241 0.96979 0.0
H611 H 0.37197 0.85441 0.98165 0.0
H612 H 0.35697 0.90133 0.99119 0.0
H613 H 0.33415 0.85389 0.04051 0.0
H614 H 0.34851 0.80632 0.0312 0.0
H615 H 0.52218 0.78128 0.00611 0.0
H616 H 0.47349 0.78457 0.99113 0.0
H617 H 0.40747 0.75112 0.0359 0.0
H618 H 0.45594 0.74758 0.05099 0.0
H619 H 0.40994 0.81192 0.01937 0.0
H620 H 0.38726 0.68919 0.00662 0.0
H621 H 0.40365 0.6436 0.9966 0.0
H622 H 0.42952 0.69523 0.94814 0.0
H623 H 0.41378 0.74148 0.95795 0.0
C624 C 0.26187 0.77054 0.97744 0.0
C625 C 0.26281 0.77467 0.95995 0.0
C626 C 0.29084 0.77063 0.98585 0.0
C627 C 0.32162 0.77551 0.97698 0.0
C628 C 0.32266 0.77973 0.95952 0.0
C629 C 0.29352 0.77927 0.95107 0.0
C630 C 0.35225 0.77516 0.98587 0.0
C631 C 0.36321 0.75025 0.98046 0.0
C632 C 0.3695 0.7979 2e-05 0.0
C633 C 0.361 0.82658 0.00568 0.0
C634 C 0.36349 0.8538 0.9945 0.0
C635 C 0.35514 0.88055 -0.00013 0.0
C636 C 0.34453 0.88053 0.01643 0.0
C637 C 0.34233 0.85383 0.02767 0.0
C638 C 0.35061 0.827 0.02236 0.0
C639 C 0.49732 0.77464 0.01278 0.0
C640 C 0.49285 0.76404 0.02972 0.0
C641 C 0.46952 0.77645 0.00419 0.0
C642 C 0.43686 0.76788 0.0124 0.0
C643 C 0.4325 0.75783 0.02936 0.0
C644 C 0.46015 0.75567 0.03793 0.0
C645 C 0.40714 0.76921 0.00326 0.0
C646 C 0.3964 0.79426 0.00864 0.0
C647 C 0.39033 0.74688 0.98901 0.0
C648 C 0.39971 0.71903 0.98307 0.0
C649 C 0.39675 0.69103 0.99387 0.0
C650 C 0.40586 0.66502 0.98822 0.0
C651 C 0.41772 0.66658 0.97175 0.0
C652 C 0.42039 0.69409 0.96089 0.0
C653 C 0.41135 0.72019 0.96649 0.0
H654 H 0.42475 0.64642 0.9674 0.0
H655 H 0.33807 0.90126 0.02057 0.0
H656 H 0.46448 0.2554 0.29917 0.0
H657 H 0.52179 0.30741 0.3097 0.0
H658 H 0.50757 0.24902 0.3562 0.0
H659 H 0.44984 0.19718 0.3459 0.0
H660 H 0.53503 0.32194 0.36166 0.0
H661 H 0.56086 0.24658 0.32583 0.0
H662 H 0.55666 0.21283 0.29982 0.0
H663 H 0.60899 0.31557 0.27255 0.0
H664 H 0.61233 0.34987 0.29827 0.0
H665 H 0.72304 0.42707 0.38648 0.0
H666 H 0.66361 0.37491 0.37779 0.0
H667 H 0.66784 0.43388 0.33273 0.0
H668 H 0.72707 0.48614 0.34132 0.0
H669 H 0.64602 0.35889 0.3273 0.0
H670 H 0.617 0.43297 0.36379 0.0
H671 H 0.62036 0.46519 0.39019 0.0
H672 H 0.57559 0.36207 0.41698 0.0
H673 H 0.57246 0.3293 0.39075 0.0
C674 C 0.4733 0.2538 0.31171 0.0
C675 C 0.45289 0.22197 0.32162 0.0
C676 C 0.50611 0.28349 0.31769 0.0
C677 C 0.51928 0.28169 0.33359 0.0
C678 C 0.49798 0.25085 0.34385 0.0
C679 C 0.46504 0.22122 0.33792 0.0
C680 C 0.55611 0.3111 0.33915 0.0
C681 C 0.55935 0.32971 0.35425 0.0
C682 C 0.58781 0.3213 0.32942 0.0
C683 C 0.58651 0.3008 0.31397 0.0
C684 C 0.5712 0.26198 0.31427 0.0
C685 C 0.56897 0.24274 0.29957 0.0
C686 C 0.58261 0.26205 0.28456 0.0
C687 C 0.59843 0.30065 0.28419 0.0
C688 C 0.60042 0.32001 0.29882 0.0
C689 C 0.7114 0.42886 0.37469 0.0
C690 C 0.72968 0.46077 0.36461 0.0
C691 C 0.67744 0.3991 0.36977 0.0
C692 C 0.66132 0.40072 0.35468 0.0
C693 C 0.67987 0.43215 0.34443 0.0
C694 C 0.71363 0.46201 0.34939 0.0
C695 C 0.62478 0.36998 0.34966 0.0
C696 C 0.62165 0.35102 0.33469 0.0
C697 C 0.5933 0.35915 0.3596 0.0
C698 C 0.59486 0.37876 0.37534 0.0
C699 C 0.60815 0.41721 0.37533 0.0
C700 C 0.60996 0.43557 0.39026 0.0
C701 C 0.59829 0.41571 0.40526 0.0
C702 C 0.58467 0.37743 0.40535 0.0
C703 C 0.58284 0.35895 0.39046 0.0
H704 H 0.59973 0.42997 0.41681 0.0
H705 H 0.58092 0.2471 0.2732 0.0
H706 H 0.19844 0.50891 0.61335 0.0
H707 H 0.20052 0.56264 0.62663 0.0
H708 H 0.27381 0.56343 0.66441 0.0
H709 H 0.27087 0.50889 0.6515 0.0
H710 H 0.22431 0.57423 0.6785 0.0
H711 H 0.30422 0.62689 0.63126 0.0
H712 H 0.32204 0.63349 0.60151 0.0
H713 H 0.23667 0.65625 0.58899 0.0
H714 H 0.21802 0.6493 0.61864 0.0
H715 H 0.28593 0.75736 0.70872 0.0
H716 H 0.28254 0.70236 0.69605 0.0
H717 H 0.20041 0.69398 0.66147 0.0
H718 H 0.20368 0.74902 0.67399 0.0
H719 H 0.25467 0.68745 0.64591 0.0
H720 H 0.17579 0.63519 0.69377 0.0
H721 H 0.15987 0.62979 0.72374 0.0
H722 H 0.2462 0.60784 0.73529 0.0
H723 H 0.26299 0.61363 0.7054 0.0
C724 C 0.21509 0.52058 0.62446 0.0
C725 C 0.23461 0.50475 0.63134 0.0
C726 C 0.21637 0.55141 0.632 0.0
C727 C 0.23778 0.56747 0.64638 0.0
C728 C 0.25714 0.55156 0.65332 0.0
C729 C 0.25551 0.52044 0.6459 0.0
C730 C 0.23965 0.60058 0.65429 0.0
C731 C 0.23146 0.59917 0.67141 0.0
C732 C 0.24827 0.6329 0.64499 0.0
C733 C 0.25951 0.63723 0.62715 0.0
C734 C 0.28908 0.63304 0.62215 0.0
C735 C 0.29935 0.63688 0.6053 0.0
C736 C 0.28044 0.64519 0.59336 0.0
C737 C 0.25127 0.64977 0.59825 0.0
C738 C 0.24086 0.64592 0.61507 0.0
C739 C 0.26704 0.74375 0.69846 0.0
C740 C 0.24508 0.75756 0.69236 0.0
C741 C 0.26506 0.71226 0.69127 0.0
C742 C 0.24105 0.69399 0.6779 0.0
C743 C 0.21911 0.7077 0.67178 0.0
C744 C 0.22096 0.73909 0.67899 0.0
C745 C 0.23932 0.66099 0.67005 0.0
C746 C 0.24755 0.66247 0.65296 0.0
C747 C 0.23105 0.62889 0.6794 0.0
C748 C 0.22087 0.6252 0.69737 0.0
C749 C 0.19157 0.62951 0.70272 0.0
C750 C 0.18235 0.62632 0.71969 0.0
C751 C 0.20207 0.61857 0.73141 0.0
C752 C 0.23098 0.61389 0.72619 0.0
C753 C 0.24034 0.61708 0.70924 0.0
H754 H 0.19489 0.61612 0.74455 0.0
H755 H 0.28844 0.64816 0.58033 0.0
H756 H 0.36072 0.13512 0.09747 0.0
H757 H 0.35885 0.13099 0.12802 0.0
H758 H 0.41874 0.25061 0.13145 0.0
H759 H 0.42109 0.25505 0.10093 0.0
H760 H 0.44483 0.21984 0.15318 0.0
H761 H 0.32759 0.20269 0.13798 0.0
H762 H 0.26871 0.17407 0.12287 0.0
H763 H 0.23762 0.06833 0.14493 0.0
H764 H 0.29659 0.09623 0.16 0.0
H765 H 0.40988 0.23595 0.23863 0.0
H766 H 0.4109 0.23982 0.20808 0.0
H767 H 0.35322 0.12021 0.20483 0.0
H768 H 0.35183 0.11602 0.23538 0.0
H769 H 0.32593 0.15088 0.18305 0.0
H770 H 0.44342 0.16842 0.19831 0.0
H771 H 0.50226 0.1974 0.21348 0.0
H772 H 0.53283 0.30291 0.19131 0.0
H773 H 0.4739 0.27466 0.17619 0.0
C774 C 0.37359 0.16056 0.10472 0.0
C775 C 0.39094 0.19541 0.09677 0.0
C776 C 0.37236 0.15814 0.12217 0.0
C777 C 0.38829 0.1905 0.13199 0.0
C778 C 0.40623 0.22531 0.1241 0.0
C779 C 0.40746 0.22777 0.10666 0.0
C780 C 0.38612 0.1881 0.15049 0.0
C781 C 0.41883 0.20518 0.15973 0.0
C782 C 0.3522 0.16831 0.15899 0.0
C783 C 0.31667 0.15148 0.14999 0.0
C784 C 0.30833 0.17327 0.1395 0.0
C785 C 0.27491 0.15719 0.13096 0.0
C786 C 0.24948 0.11939 0.1329 0.0
C787 C 0.25737 0.0976 0.14342 0.0
C788 C 0.29078 0.11354 0.15198 0.0
C789 C 0.39724 0.21044 0.23143 0.0
C790 C 0.38094 0.17567 0.23943 0.0
C791 C 0.39799 0.21272 0.21398 0.0
C792 C 0.38252 0.1803 0.20422 0.0
C793 C 0.36538 0.14555 0.21216 0.0
C794 C 0.36472 0.14323 0.22961 0.0
C795 C 0.38463 0.18264 0.18572 0.0
C796 C 0.35192 0.16554 0.17649 0.0
C797 C 0.41855 0.20246 0.17723 0.0
C798 C 0.45408 0.21949 0.18625 0.0
C799 C 0.46255 0.19787 0.19678 0.0
C800 C 0.49595 0.21415 0.20534 0.0
C801 C 0.52122 0.25199 0.20339 0.0
C802 C 0.5132 0.27361 0.19283 0.0
C803 C 0.47981 0.25747 0.18425 0.0
H804 H 0.54706 0.26455 0.21003 0.0
H805 H 0.22362 0.10699 0.12628 0.0
H806 H 0.14032 0.32496 0.4313 0.0
H807 H 0.14873 0.32262 0.46144 0.0
H808 H 0.2214 0.44151 0.46223 0.0
H809 H 0.21401 0.44389 0.43199 0.0
H810 H 0.24895 0.40962 0.48043 0.0
H811 H 0.13102 0.39921 0.47647 0.0
H812 H 0.06734 0.37301 0.4667 0.0
H813 H 0.03871 0.26744 0.48822 0.0
H814 H 0.10236 0.29287 0.49793 0.0
H815 H 0.24642 0.43678 0.56808 0.0
H816 H 0.23804 0.43719 0.53783 0.0
H817 H 0.17626 0.31737 0.53748 0.0
H818 H 0.1844 0.31664 0.56779 0.0
H819 H 0.1431 0.34864 0.51925 0.0
H820 H 0.26205 0.36099 0.5237 0.0
H821 H 0.32565 0.38889 0.53382 0.0
H822 H 0.35212 0.49329 0.51167 0.0
H823 H 0.2885 0.46615 0.50161 0.0
C824 C 0.15802 0.35062 0.4379 0.0
C825 C 0.17641 0.38463 0.42929 0.0
C826 C 0.16268 0.34926 0.45514 0.0
C827 C 0.18528 0.38196 0.46415 0.0
C828 C 0.2038 0.41593 0.45555 0.0
C829 C 0.19948 0.41725 0.43827 0.0
C830 C 0.19008 0.38075 0.4825 0.0
C831 C 0.22579 0.39672 0.48892 0.0
C832 C 0.15986 0.3632 0.49357 0.0
C833 C 0.12154 0.34785 0.48778 0.0
C834 C 0.11121 0.37033 0.47901 0.0
C835 C 0.07511 0.35563 0.4735 0.0
C836 C 0.04902 0.31856 0.4768 0.0
C837 C 0.05896 0.29613 0.48565 0.0
C838 C 0.09503 0.31068 0.49117 0.0
C839 C 0.2311 0.41049 0.56158 0.0
C840 C 0.21616 0.37665 0.57033 0.0
C841 C 0.22645 0.41079 0.54429 0.0
C842 C 0.20681 0.3773 0.53543 0.0
C843 C 0.19156 0.34349 0.54412 0.0
C844 C 0.19635 0.34315 0.56141 0.0
C845 C 0.20188 0.37763 0.5171 0.0
C846 C 0.16618 0.36149 0.5107 0.0
C847 C 0.23209 0.39529 0.50607 0.0
C848 C 0.27042 0.41162 0.51204 0.0
C849 C 0.28135 0.38998 0.5211 0.0
C850 C 0.31742 0.40564 0.5268 0.0
C851 C 0.34289 0.44286 0.52342 0.0
C852 C 0.33235 0.46447 0.51429 0.0
C853 C 0.2963 0.44896 0.50857 0.0
H854 H 0.3708 0.45494 0.52785 0.0
H855 H 0.02108 0.30723 0.47253 0.0
H856 H 0.79301 0.13113 0.90939 0.0
H857 H 0.78477 0.12735 0.87898 0.0
H858 H 0.82165 0.24443 0.87722 0.0
H859 H 0.82948 0.24838 0.90755 0.0
H860 H 0.76148 0.20514 0.85844 0.0
H861 H 0.87775 0.21184 0.86555 0.0
H862 H 0.91974 0.19232 0.87668 0.0
H863 H 0.85497 0.08507 0.85387 0.0
H864 H 0.81229 0.10381 0.84278 0.0
H865 H 0.7992 0.24238 0.77226 0.0
H866 H 0.80413 0.24098 0.80267 0.0
H867 H 0.76701 0.12386 0.80062 0.0
H868 H 0.76256 0.12511 0.77013 0.0
H869 H 0.82448 0.1596 0.82138 0.0
H870 H 0.70951 0.15358 0.81332 0.0
H871 H 0.6677 0.17316 0.80202 0.0
H872 H 0.7297 0.27877 0.82655 0.0
H873 H 0.7722 0.26001 0.83782 0.0
C874 C 0.79939 0.15607 0.90253 0.0
C875 C 0.81193 0.19006 0.91089 0.0
C876 C 0.79479 0.15389 0.88515 0.0
C877 C 0.8029 0.18569 0.87583 0.0
C878 C 0.8152 0.21955 0.88417 0.0
C879 C 0.81974 0.22176 0.90152 0.0
C880 C 0.79835 0.18383 0.8574 0.0
C881 C 0.77556 0.19556 0.85031 0.0
C882 C 0.81595 0.17037 0.84686 0.0
C883 C 0.84161 0.15909 0.85349 0.0
C884 C 0.87229 0.18399 0.86302 0.0
C885 C 0.89625 0.17309 0.8693 0.0
C886 C 0.88997 0.13744 0.86602 0.0
C887 C 0.85976 0.11265 0.85642 0.0
C888 C 0.8357 0.12341 0.85013 0.0
C889 C 0.79203 0.21629 0.77826 0.0
C890 C 0.78036 0.18383 0.76878 0.0
C891 C 0.79473 0.21551 0.79566 0.0
C892 C 0.78548 0.1822 0.80392 0.0
C893 C 0.7742 0.14983 0.79449 0.0
C894 C 0.77159 0.1506 0.77707 0.0
C895 C 0.78793 0.18131 0.82241 0.0
C896 C 0.81025 0.16901 0.8295 0.0
C897 C 0.76987 0.1942 0.83297 0.0
C898 C 0.74422 0.20549 0.8263 0.0
C899 C 0.71438 0.18108 0.81621 0.0
C900 C 0.69053 0.19201 0.80982 0.0
C901 C 0.69609 0.22722 0.81353 0.0
C902 C 0.72545 0.25152 0.82368 0.0
C903 C 0.7494 0.24074 0.83008 0.0
H904 H 0.6776 0.23564 0.80857 0.0
H905 H 0.90855 0.12905 0.87089 0.0
H906 H 0.56817 0.85588 0.08918 0.0
H907 H 0.56894 0.86807 0.11919 0.0
H908 H 0.61198 0.79575 0.12911 0.0
H909 H 0.61 0.78244 0.09928 0.0
H910 H 0.56114 0.78228 0.15057 0.0
H911 H 0.66598 0.89328 0.12977 0.0
H912 H 0.69864 0.94829 0.11157 0.0
H913 H 0.63268 0.99143 0.13059 0.0
H914 H 0.59923 0.93638 0.14873 0.0
H915 H 0.63173 0.83896 0.232 0.0
H916 H 0.62863 0.83188 0.2016 0.0
H917 H 0.56551 0.88656 0.19842 0.0
H918 H 0.56822 0.89362 0.22896 0.0
H919 H 0.62323 0.91016 0.17379 0.0
H920 H 0.52049 0.79823 0.1956 0.0
H921 H 0.49049 0.74332 0.21401 0.0
H922 H 0.55676 0.70238 0.19309 0.0
H923 H 0.58755 0.75735 0.17472 0.0
C924 C 0.5778 0.84261 0.09778 0.0
C925 C 0.58902 0.8182 0.09188 0.0
C926 C 0.5784 0.84974 0.11492 0.0
C927 C 0.59096 0.83319 0.12642 0.0
C928 C 0.60212 0.8088 0.1205 0.0
C929 C 0.60104 0.80127 0.10343 0.0
C930 C 0.59206 0.84069 0.14465 0.0
C931 C 0.57509 0.81027 0.15561 0.0
C932 C 0.60953 0.87722 0.15127 0.0
C933 C 0.62985 0.91052 0.14048 0.0
C934 C 0.65827 0.91437 0.12999 0.0
C935 C 0.67695 0.94558 0.1197 0.0
C936 C 0.66769 0.97329 0.1199 0.0
C937 C 0.63979 0.96991 0.13043 0.0
C938 C 0.62098 0.93873 0.14073 0.0
C939 C 0.61737 0.84973 0.22487 0.0
C940 C 0.60002 0.86667 0.2329 0.0
C941 C 0.61559 0.84559 0.2075 0.0
C942 C 0.59661 0.85845 0.19783 0.0
C943 C 0.58025 0.87644 0.20571 0.0
C944 C 0.58171 0.8803 0.22314 0.0
C945 C 0.59286 0.85177 0.17955 0.0
C946 C 0.60921 0.88226 0.16864 0.0
C947 C 0.57525 0.81532 0.17296 0.0
C948 C 0.55654 0.78208 0.18389 0.0
C949 C 0.52887 0.77766 0.19502 0.0
C950 C 0.51168 0.7465 0.20543 0.0
C951 C 0.52177 0.71942 0.20474 0.0
C952 C 0.549 0.7234 0.19361 0.0
C953 C 0.5663 0.75453 0.18319 0.0
H954 H 0.50844 0.69531 0.21282 0.0
H955 H 0.68217 0.99743 0.11192 0.0
H956 H 0.85966 0.62093 0.56247 0.0
H957 H 0.86066 0.61621 0.53197 0.0
H958 H 0.74292 0.56455 0.53063 0.0
H959 H 0.74159 0.56875 0.5611 0.0
H960 H 0.76618 0.52793 0.51116 0.0
H961 H 0.79732 0.65469 0.51931 0.0
H962 H 0.83258 0.71806 0.53089 0.0
H963 H 0.93059 0.73228 0.5079 0.0
H964 H 0.89598 0.66876 0.49636 0.0
H965 H 0.73932 0.54509 0.42505 0.0
H966 H 0.74205 0.55109 0.45549 0.0
H967 H 0.85947 0.59995 0.45395 0.0
H968 H 0.85707 0.59433 0.42341 0.0
H969 H 0.83867 0.63787 0.47485 0.0
H970 H 0.80692 0.51153 0.46603 0.0
H971 H 0.77131 0.44837 0.45427 0.0
H972 H 0.67418 0.43343 0.4785 0.0
H973 H 0.70912 0.49675 0.49022 0.0
C974 C 0.83398 0.60865 0.55569 0.0
C975 C 0.80055 0.59528 0.56421 0.0
C976 C 0.83462 0.60609 0.53825 0.0
C977 C 0.80188 0.59031 0.52903 0.0
C978 C 0.76849 0.57683 0.53751 0.0
C979 C 0.76781 0.57938 0.55493 0.0
C980 C 0.80228 0.58729 0.51054 0.0
C981 C 0.78168 0.55203 0.50321 0.0
C982 C 0.82328 0.61862 0.50021 0.0
C983 C 0.84413 0.65682 0.50713 0.0
C984 C 0.82645 0.67121 0.51684 0.0
C985 C 0.84631 0.70718 0.52338 0.0
C986 C 0.88382 0.72914 0.52018 0.0
C987 C 0.90154 0.71521 0.51039 0.0
C988 C 0.88181 0.67924 0.50384 0.0
C989 C 0.76576 0.55711 0.43116 0.0
C990 C 0.79797 0.56913 0.4218 0.0
C991 C 0.76724 0.56039 0.44857 0.0
C992 C 0.80092 0.5756 0.45698 0.0
C993 C 0.8332 0.58807 0.44769 0.0
C994 C 0.83174 0.58472 0.43025 0.0
C995 C 0.80233 0.57857 0.47549 0.0
C996 C 0.82329 0.61378 0.48282 0.0
C997 C 0.78164 0.5472 0.48583 0.0
C998 C 0.76058 0.50902 0.47888 0.0
C999 C 0.7779 0.49489 0.46875 0.0
C1000 C 0.75785 0.45904 0.46211 0.0
C1001 C 0.72049 0.43694 0.4656 0.0
C1002 C 0.70312 0.45061 0.47578 0.0
C1003 C 0.72304 0.48646 0.48244 0.0
H1004 H 0.70501 0.40919 0.46044 0.0
H1005 H 0.89914 0.75699 0.52524 0.0
H1006 H 0.15273 0.75145 0.89376 0.0
H1007 H 0.15881 0.75512 0.86337 0.0
H1008 H 0.2396 0.87176 0.86695 0.0
H1009 H 0.23319 0.86851 0.89747 0.0
H1010 H 0.19113 0.85908 0.84251 0.0
H1011 H 0.26519 0.8079 0.85879 0.0
H1012 H 0.27928 0.76446 0.87328 0.0
H1013 H 0.19399 0.67313 0.8458 0.0
H1014 H 0.17903 0.71596 0.83131 0.0
H1015 H 0.24979 0.87525 0.75799 0.0
H1016 H 0.24844 0.87474 0.78856 0.0
H1017 H 0.16532 0.75857 0.78803 0.0
H1018 H 0.1668 0.75867 0.75742 0.0
H1019 H 0.21807 0.77318 0.811 0.0
H1020 H 0.14289 0.82458 0.79549 0.0
H1021 H 0.12907 0.86829 0.78107 0.0
H1022 H 0.21741 0.95977 0.80716 0.0
H1023 H 0.23209 0.91663 0.82158 0.0
C1024 C 0.17186 0.77792 0.88812 0.0
C1025 C 0.1926 0.80969 0.89805 0.0
C1026 C 0.17541 0.77991 0.87073 0.0
C1027 C 0.20005 0.81358 0.86291 0.0
C1028 C 0.22051 0.84547 0.87275 0.0
C1029 C 0.21687 0.84354 0.89018 0.0
C1030 C 0.20396 0.81543 0.84443 0.0
C1031 C 0.19762 0.84073 0.83563 0.0
C1032 C 0.2117 0.79095 0.83546 0.0
C1033 C 0.22079 0.76512 0.84407 0.0
C1034 C 0.24926 0.77852 0.85593 0.0
C1035 C 0.25743 0.75401 0.86413 0.0
C1036 C 0.23749 0.71605 0.86049 0.0
C1037 C 0.2094 0.70253 0.84861 0.0
C1038 C 0.20108 0.72692 0.84039 0.0
C1039 C 0.23121 0.84955 0.76436 0.0
C1040 C 0.20827 0.81701 0.75527 0.0
C1041 C 0.2304 0.84936 0.78184 0.0
C1042 C 0.20649 0.81672 0.79055 0.0
C1043 C 0.18394 0.78407 0.78153 0.0
C1044 C 0.18474 0.78421 0.76404 0.0
C1045 C 0.20495 0.8166 0.80909 0.0
C1046 C 0.21176 0.79165 0.8179 0.0
C1047 C 0.19774 0.84145 0.81807 0.0
C1048 C 0.18882 0.86741 0.80948 0.0
C1049 C 0.15955 0.85404 0.79806 0.0
C1050 C 0.15153 0.87871 0.7899 0.0
C1051 C 0.17241 0.91679 0.79316 0.0
C1052 C 0.20129 0.93027 0.80463 0.0
C1053 C 0.20946 0.90573 0.8128 0.0
H1054 H 0.16616 0.93585 0.78684 0.0
H1055 H 0.24386 0.69711 0.86686 0.0
H1056 H 0.55949 0.64736 0.07911 0.0
H1057 H 0.53342 0.58068 0.07584 0.0
H1058 H 0.54413 0.59374 0.02218 0.0
H1059 H 0.56958 0.66078 0.02534 0.0
H1060 H 0.4785 0.53823 0.02996 0.0
H1061 H 0.59982 0.57194 0.04485 0.0
H1062 H 0.65751 0.6024 0.0609 0.0
H1063 H 0.60048 0.54051 0.10472 0.0
H1064 H 0.54231 0.51004 0.08899 0.0
H1065 H 0.43357 0.34564 0.02353 0.0
H1066 H 0.46455 0.41355 0.02136 0.0
H1067 H 0.44483 0.42055 0.07383 0.0
H1068 H 0.4135 0.35298 0.07609 0.0
H1069 H 0.51968 0.46575 0.06327 0.0
H1070 H 0.39717 0.4364 0.04758 0.0
H1071 H 0.341 0.40578 0.03044 0.0
H1072 H 0.40379 0.45942 0.98637 0.0
H1073 H 0.46045 0.48997 0.00323 0.0
C1074 C 0.55671 0.63621 0.0666 0.0
C1075 C 0.56661 0.65942 0.05249 0.0
C1076 C 0.54193 0.59801 0.06475 0.0
C1077 C 0.53717 0.5822 0.04877 0.0
C1078 C 0.5476 0.60535 0.03464 0.0
C1079 C 0.56227 0.64366 0.03647 0.0
C1080 C 0.51957 0.5413 0.04695 0.0
C1081 C 0.48798 0.52245 0.03698 0.0
C1082 C 0.5317 0.52062 0.05621 0.0
C1083 C 0.56662 0.53889 0.06576 0.0
C1084 C 0.59951 0.56503 0.05794 0.0
C1085 C 0.63232 0.58226 0.06698 0.0
C1086 C 0.63265 0.57345 0.08383 0.0
C1087 C 0.60018 0.54732 0.09167 0.0
C1088 C 0.56728 0.53002 0.08269 0.0
C1089 C 0.43538 0.36163 0.03454 0.0
C1090 C 0.42119 0.34394 0.05 0.0
C1091 C 0.45307 0.40036 0.03328 0.0
C1092 C 0.45708 0.42192 0.04746 0.0
C1093 C 0.4421 0.4043 0.06277 0.0
C1094 C 0.42404 0.36567 0.064 0.0
C1095 C 0.4783 0.46295 0.04667 0.0
C1096 C 0.51061 0.48171 0.05611 0.0
C1097 C 0.46713 0.48348 0.03675 0.0
C1098 C 0.4331 0.46509 0.02663 0.0
C1099 C 0.39906 0.44136 0.03421 0.0
C1100 C 0.36712 0.42409 0.02455 0.0
C1101 C 0.36884 0.43055 0.00732 0.0
C1102 C 0.4025 0.45438 -0.00028 0.0
C1103 C 0.43453 0.4717 0.00932 0.0
H1104 H 0.34408 0.41716 -0.00013 0.0
H1105 H 0.65808 0.58682 0.0908 0.0
H1106 H 0.95517 0.58718 0.38847 0.0
H1107 H 0.99595 0.56329 0.38253 0.0
H1108 H 0.9358 0.51203 0.33725 0.0
H1109 H 0.89434 0.53533 0.34327 0.0
H1110 H 0.94586 0.46403 0.35462 0.0
H1111 H 0.02282 0.58739 0.33551 0.0
H1112 H 0.05526 0.65583 0.33624 0.0
H1113 H 0.11666 0.65643 0.37914 0.0
H1114 H 0.08421 0.58793 0.37884 0.0
H1115 H 0.08487 0.41692 0.33373 0.0
H1116 H 0.04475 0.44351 0.332 0.0
H1117 H 0.07657 0.4873 0.38197 0.0
H1118 H 0.11597 0.46054 0.38394 0.0
H1119 H 0.08149 0.53986 0.35737 0.0
H1120 H 0.99765 0.4153 0.37768 0.0
H1121 H 0.96512 0.34689 0.3762 0.0
H1122 H 0.91722 0.34962 0.32922 0.0
H1123 H 0.94992 0.41814 0.33031 0.0
C1124 C 0.95084 0.57124 0.37713 0.0
C1125 C 0.92144 0.56311 0.36637 0.0
C1126 C 0.97432 0.55771 0.3737 0.0
C1127 C 0.96915 0.53611 0.35936 0.0
C1128 C 0.94032 0.52866 0.34838 0.0
C1129 C 0.91674 0.54212 0.35182 0.0
C1130 C 0.99252 0.51952 0.35648 0.0
C1131 C 0.97554 0.48075 0.35485 0.0
C1132 C 0.03124 0.54122 0.35694 0.0
C1133 C 0.05086 0.58246 0.35722 0.0
C1134 C 0.04303 0.60208 0.34519 0.0
C1135 C 0.06146 0.6409 0.34551 0.0
C1136 C 0.08795 0.66046 0.35775 0.0
C1137 C 0.09612 0.64123 0.36968 0.0
C1138 C 0.07774 0.60241 0.36942 0.0
C1139 C 0.08306 0.43198 0.34437 0.0
C1140 C 0.10351 0.43654 0.35897 0.0
C1141 C 0.0602 0.44713 0.34336 0.0
C1142 C 0.0579 0.46744 0.35685 0.0
C1143 C 0.07813 0.47184 0.37142 0.0
C1144 C 0.10046 0.4563 0.37254 0.0
C1145 C 0.03473 0.48456 0.35592 0.0
C1146 C 0.05181 0.52338 0.35684 0.0
C1147 C 0.99617 0.46298 0.35464 0.0
C1148 C 0.97662 0.42184 0.35396 0.0
C1149 C 0.9805 0.40133 0.36695 0.0
C1150 C 0.96196 0.36254 0.3662 0.0
C1151 C 0.93923 0.34392 0.35259 0.0
C1152 C 0.93491 0.36407 0.33973 0.0
C1153 C 0.95343 0.40289 0.34041 0.0
H1154 H 0.92487 0.31388 0.35205 0.0
H1155 H 0.1022 0.69051 0.35797 0.0
H1156 H 0.63729 0.13493 0.73224 0.0
H1157 H 0.57129 0.09892 0.72803 0.0
H1158 H 0.58508 0.03143 0.69118 0.0
H1159 H 0.65181 0.06765 0.69533 0.0
H1160 H 0.53515 0.05492 0.68151 0.0
H1161 H 0.55565 0.99471 0.7276 0.0
H1162 H 0.58098 0.9911 0.75486 0.0
H1163 H 0.52307 0.03789 0.77915 0.0
H1164 H 0.49781 0.04229 0.75198 0.0
H1165 H 0.34403 0.915 0.68332 0.0
H1166 H 0.41093 0.95081 0.68282 0.0
H1167 H 0.41069 0.01842 0.72362 0.0
H1168 H 0.34382 0.98246 0.72438 0.0
H1169 H 0.45444 0.991 0.7301 0.0
H1170 H 0.43566 0.05341 0.684 0.0
H1171 H 0.41082 0.0579 0.65674 0.0
H1172 H 0.46521 0.00731 0.63249 0.0
H1173 H 0.49 0.00205 0.65965 0.0
C1174 C 0.62645 0.11246 0.72322 0.0
C1175 C 0.6498 0.10402 0.71417 0.0
C1176 C 0.58866 0.09186 0.72086 0.0
C1177 C 0.57335 0.06236 0.70941 0.0
C1178 C 0.59648 0.05411 0.7001 0.0
C1179 C 0.63449 0.07466 0.70255 0.0
C1180 C 0.53305 0.04017 0.70748 0.0
C1181 C 0.5174 0.04034 0.69203 0.0
C1182 C 0.51008 0.02187 0.72133 0.0
C1183 C 0.52508 0.01911 0.73772 0.0
C1184 C 0.54855 0.00451 0.73873 0.0
C1185 C 0.56285 0.00227 0.75418 0.0
C1186 C 0.5537 0.01433 0.76873 0.0
C1187 C 0.53015 0.02858 0.76787 0.0
C1188 C 0.5158 0.03092 0.75245 0.0
C1189 C 0.35816 0.93791 0.692 0.0
C1190 C 0.33858 0.94571 0.70398 0.0
C1191 C 0.39644 0.95842 0.69166 0.0
C1192 C 0.4158 0.98726 0.70319 0.0
C1193 C 0.39627 0.99615 0.71466 0.0
C1194 C 0.35803 0.97564 0.71503 0.0
C1195 C 0.45632 0.00629 0.7042 0.0
C1196 C 0.47206 0.00538 0.71953 0.0
C1197 C 0.47925 0.02386 0.69023 0.0
C1198 C 0.46435 0.02696 0.67389 0.0
C1199 C 0.44206 0.04293 0.67288 0.0
C1200 C 0.42804 0.04568 0.65744 0.0
C1201 C 0.43634 0.03279 0.6429 0.0
C1202 C 0.45876 0.01722 0.64377 0.0
C1203 C 0.47282 0.01438 0.65918 0.0
H1204 H 0.42547 0.03496 0.63096 0.0
H1205 H 0.5648 0.01257 0.78067 0.0
H1206 H 0.62902 0.48649 0.60266 0.0
H1207 H 0.56519 0.46662 0.60852 0.0
H1208 H 0.59935 0.55729 0.64334 0.0
H1209 H 0.66373 0.57743 0.6376 0.0
H1210 H 0.54169 0.4903 0.65543 0.0
H1211 H 0.57088 0.56498 0.60603 0.0
H1212 H 0.59483 0.58543 0.57749 0.0
H1213 H 0.51618 0.47803 0.55817 0.0
H1214 H 0.49209 0.45675 0.58665 0.0
H1215 H 0.36721 0.4795 0.65793 0.0
H1216 H 0.43177 0.49758 0.65625 0.0
H1217 H 0.40594 0.41476 0.61807 0.0
H1218 H 0.34144 0.39695 0.61945 0.0
H1219 H 0.46058 0.48046 0.60842 0.0
H1220 H 0.43159 0.40539 0.6579 0.0
H1221 H 0.40779 0.38488 0.68646 0.0
H1222 H 0.48559 0.49269 0.70569 0.0
H1223 H 0.50954 0.51402 0.67719 0.0
C1224 C 0.62309 0.50227 0.61159 0.0
C1225 C 0.65149 0.53371 0.61959 0.0
C1226 C 0.58655 0.49088 0.61489 0.0
C1227 C 0.57758 0.51071 0.62622 0.0
C1228 C 0.60576 0.54167 0.63452 0.0
C1229 C 0.64248 0.55321 0.63118 0.0
C1230 C 0.53868 0.49924 0.62907 0.0
C1231 C 0.52399 0.48863 0.64523 0.0
C1232 C 0.51556 0.49643 0.61567 0.0
C1233 C 0.52991 0.50917 0.5985 0.0
C1234 C 0.55889 0.54563 0.59572 0.0
C1235 C 0.57245 0.55738 0.57955 0.0
C1236 C 0.5571 0.53302 0.56603 0.0
C1237 C 0.52808 0.49686 0.56866 0.0
C1238 C 0.51443 0.48495 0.58481 0.0
C1239 C 0.37514 0.46471 0.64936 0.0
C1240 C 0.34919 0.43693 0.63874 0.0
C1241 C 0.41209 0.47502 0.64846 0.0
C1242 C 0.42369 0.45748 0.63705 0.0
C1243 C 0.39761 0.42876 0.62692 0.0
C1244 C 0.36072 0.41853 0.62776 0.0
C1245 C 0.46324 0.47084 0.63476 0.0
C1246 C 0.47815 0.48205 0.61867 0.0
C1247 C 0.48645 0.47417 0.64824 0.0
C1248 C 0.4721 0.46141 0.66538 0.0
C1249 C 0.44341 0.42483 0.6682 0.0
C1250 C 0.42994 0.41303 0.68438 0.0
C1251 C 0.4451 0.4375 0.69787 0.0
C1252 C 0.47384 0.47379 0.69522 0.0
C1253 C 0.4874 0.48573 0.67906 0.0
H1254 H 0.43463 0.42832 0.71039 0.0
H1255 H 0.56764 0.54217 0.55352 0.0
H1256 H 0.06456 0.64087 0.91873 0.0
H1257 H 0.02841 0.57438 0.92387 0.0
H1258 H 0.04124 0.59397 0.97715 0.0
H1259 H 0.07868 0.66093 0.97207 0.0
H1260 H 0.05395 0.54073 0.96946 0.0
H1261 H 0.95752 0.56363 0.95735 0.0
H1262 H 0.92391 0.5884 0.94205 0.0
H1263 H 0.9165 0.52344 0.89896 0.0
H1264 H 0.95053 0.49865 0.91391 0.0
H1265 H 0.91657 0.34527 0.9817 0.0
H1266 H 0.95011 0.41343 0.98236 0.0
H1267 H 0.97049 0.41622 0.92934 0.0
H1268 H 0.93771 0.34843 0.92858 0.0
H1269 H 0.93645 0.45786 0.94052 0.0
H1270 H 0.0385 0.43983 0.95325 0.0
H1271 H 0.07051 0.41487 0.96971 0.0
H1272 H 0.06369 0.47047 0.0136 0.0
H1273 H 0.03114 0.49535 0.99744 0.0
C1274 C 0.05936 0.63119 0.93157 0.0
C1275 C 0.07452 0.65624 0.94499 0.0
C1276 C 0.03847 0.59306 0.9345 0.0
C1277 C 0.03167 0.57911 0.95091 0.0
C1278 C 0.04608 0.60409 0.96438 0.0
C1279 C 0.06733 0.64235 0.96146 0.0
C1280 C 0.01128 0.53835 0.95379 0.0
C1281 C 0.02786 0.52269 0.96341 0.0
C1282 C 0.97738 0.51468 0.9458 0.0
C1283 C 0.95682 0.52946 0.93674 0.0
C1284 C 0.94896 0.55482 0.94457 0.0
C1285 C 0.92979 0.56884 0.93597 0.0
C1286 C 0.91814 0.55755 0.91954 0.0
C1287 C 0.92556 0.53216 0.91169 0.0
C1288 C 0.94475 0.51808 0.92023 0.0
C1289 C 0.92871 0.36043 0.97025 0.0
C1290 C 0.92437 0.34147 0.95508 0.0
C1291 C 0.94781 0.3993 0.97065 0.0
C1292 C 0.96249 0.41967 0.95587 0.0
C1293 C 0.95918 0.40087 0.94085 0.0
C1294 C 0.94059 0.36213 0.94047 0.0
C1295 C 0.97964 0.46055 0.95577 0.0
C1296 C 0.96229 0.4761 0.94672 0.0
C1297 C 0.01246 0.48403 0.96448 0.0
C1298 C 0.03197 0.46905 0.97419 0.0
C1299 C 0.04347 0.44641 0.96645 0.0
C1300 C 0.0618 0.43236 0.97571 0.0
C1301 C 0.06901 0.44097 0.9927 0.0
C1302 C 0.05801 0.46376 0.00045 0.0
C1303 C 0.03964 0.47786 0.99124 0.0
H1304 H 0.08322 0.43008 -0.00015 0.0
H1305 H 0.9033 0.56844 0.91289 0.0
H1306 H 0.58589 0.92611 0.31366 0.0
H1307 H 0.55496 0.9614 0.31792 0.0
H1308 H 0.61789 0.0354 0.27777 0.0
H1309 H 0.64924 0.00035 0.27342 0.0
H1310 H 0.60384 0.07112 0.30486 0.0
H1311 H 0.53889 0.96386 0.26846 0.0
H1312 H 0.51181 0.89717 0.26217 0.0
H1313 H 0.43865 0.86953 0.30395 0.0
H1314 H 0.46577 0.93612 0.31066 0.0
H1315 H 0.49178 0.13549 0.27295 0.0
H1316 H 0.52928 0.10731 0.27733 0.0
H1317 H 0.44905 0.02887 0.3119 0.0
H1318 H 0.4107 0.05663 0.30729 0.0
H1319 H 0.47143 0.99484 0.29119 0.0
H1320 H 0.53076 0.10215 0.32581 0.0
H1321 H 0.55952 0.16839 0.33336 0.0
H1322 H 0.64332 0.19607 0.29652 0.0
H1323 H 0.61475 0.13007 0.28853 0.0
C1324 C 0.59383 0.9504 0.30596 0.0
C1325 C 0.61961 0.96006 0.29299 0.0
C1326 C 0.5761 0.97051 0.30844 0.0
C1327 C 0.58372 0.00054 0.29796 0.0
C1328 C 0.61158 0.01219 0.28594 0.0
C1329 C 0.62939 0.99206 0.28345 0.0
C1330 C 0.55973 0.01679 0.29816 0.0
C1331 C 0.57495 0.05464 0.30178 0.0
C1332 C 0.52186 0.99487 0.29456 0.0
C1333 C 0.50458 0.95493 0.29015 0.0
C1334 C 0.51713 0.94355 0.27635 0.0
C1335 C 0.50179 0.90577 0.27271 0.0
C1336 C 0.47359 0.87912 0.28269 0.0
C1337 C 0.46053 0.89021 0.29626 0.0
C1338 C 0.47586 0.92796 0.29997 0.0
C1339 C 0.48199 0.11224 0.2815 0.0
C1340 C 0.44823 0.09831 0.2898 0.0
C1341 C 0.50366 0.09633 0.28409 0.0
C1342 C 0.49234 0.06644 0.29519 0.0
C1343 C 0.45842 0.05209 0.30336 0.0
C1344 C 0.43654 0.06794 0.30071 0.0
C1345 C 0.51552 0.04954 0.29771 0.0
C1346 C 0.50018 0.01144 0.29452 0.0
C1347 C 0.55324 0.07128 0.3018 0.0
C1348 C 0.57045 0.11111 0.30651 0.0
C1349 C 0.55516 0.12237 0.31922 0.0
C1350 C 0.57148 0.15988 0.32361 0.0
C1351 C 0.60328 0.18639 0.31546 0.0
C1352 C 0.61874 0.17548 0.30285 0.0
C1353 C 0.60251 0.13802 0.2984 0.0
H1354 H 0.6159 0.21541 0.31889 0.0
H1355 H 0.46182 0.84988 0.27989 0.0
loop_
_geom_bond_atom_site_label_1
_geom_bond_atom_site_label_2
_geom_bond_distance
_geom_bond_site_symmetry_2
_ccdc_geom_bond_type
C0 O1 1.160 . S
C0 O7 1.185 . S
O1 C0 1.160 . S
O2 Zn3 1.899 . S
O2 C10 1.284 . S
Zn3 O2 1.899 . S
Zn3 O4 2.032 . S
Zn3 O7 2.086 . S
Zn3 O12 1.977 . S
O4 Zn3 2.032 . S
O4 C8 1.278 . S
C5 O6 1.203 . S
C5 O12 1.267 . S
O6 C5 1.203 . S
O7 C0 1.185 . S
O7 Zn3 2.086 . S
C8 O4 1.278 . S
C8 O9 1.211 . S
O9 C8 1.211 . S
C10 O2 1.284 . S
C10 O11 1.273 . S
O11 C10 1.273 . S
O12 Zn3 1.977 . S
O12 C5 1.267 . S
C13 O14 1.160 . S
C13 O20 1.185 . S
O14 C13 1.160 . S
O15 Zn16 1.899 . S
O15 C23 1.284 . S
Zn16 O15 1.899 . S
Zn16 O17 2.032 . S
Zn16 O20 2.086 . S
Zn16 O25 1.977 . S
O17 Zn16 2.032 . S
O17 C21 1.278 . S
C18 O19 1.203 . S
C18 O25 1.267 . S
O19 C18 1.203 . S
O20 C13 1.185 . S
O20 Zn16 2.086 . S
C21 O17 1.278 . S
C21 O22 1.211 . S
O22 C21 1.211 . S
C23 O15 1.284 . S
C23 O24 1.273 . S
O24 C23 1.273 . S
O25 Zn16 1.977 . S
O25 C18 1.267 . S
C26 O27 1.160 . S
C26 O33 1.185 . S
O27 C26 1.160 . S
O28 Zn29 1.899 . S
O28 C36 1.284 . S
Zn29 O28 1.899 . S
Zn29 O30 2.032 . S
Zn29 O33 2.086 . S
Zn29 O38 1.977 . S
O30 Zn29 2.032 . S
O30 C34 1.278 . S
C31 O32 1.203 . S
C31 O38 1.267 . S
O32 C31 1.203 . S
O33 C26 1.185 . S
O33 Zn29 2.086 . S
C34 O30 1.278 . S
C34 O35 1.211 . S
O35 C34 1.211 . S
C36 O28 1.284 . S
C36 O37 1.273 . S
O37 C36 1.273 . S
O38 Zn29 1.977 . S
O38 C31 1.267 . S
C39 O40 1.160 . S
C39 O46 1.185 . S
O40 C39 1.160 . S
O41 Zn42 1.899 . S
O41 C49 1.284 . S
Zn42 O41 1.899 . S
Zn42 O43 2.032 . S
Zn42 O46 2.086 . S
Zn42 O51 1.977 . S
O43 Zn42 2.032 . S
O43 C47 1.278 . S
C44 O45 1.203 . S
C44 O51 1.267 . S
O45 C44 1.203 . S
O46 C39 1.185 . S
O46 Zn42 2.086 . S
C47 O43 1.278 . S
C47 O48 1.211 . S
O48 C47 1.211 . S
C49 O41 1.284 . S
C49 O50 1.273 . S
O50 C49 1.273 . S
O51 Zn42 1.977 . S
O51 C44 1.267 . S
C52 O53 1.160 . S
C52 O59 1.185 . S
O53 C52 1.160 . S
O54 Zn55 1.899 . S
O54 C62 1.284 . S
Zn55 O54 1.899 . S
Zn55 O56 2.032 . S
Zn55 O59 2.086 . S
Zn55 O64 1.977 . S
O56 Zn55 2.032 . S
O56 C60 1.278 . S
C57 O58 1.203 . S
C57 O64 1.267 . S
O58 C57 1.203 . S
O59 C52 1.185 . S
O59 Zn55 2.086 . S
C60 O56 1.278 . S
C60 O61 1.211 . S
O61 C60 1.211 . S
C62 O54 1.284 . S
C62 O63 1.273 . S
O63 C62 1.273 . S
O64 Zn55 1.977 . S
O64 C57 1.267 . S
C65 O66 1.160 . S
C65 O72 1.185 . S
O66 C65 1.160 . S
O67 Zn68 1.899 . S
O67 C75 1.284 . S
Zn68 O67 1.899 . S
Zn68 O69 2.032 . S
Zn68 O72 2.086 . S
Zn68 O77 1.977 . S
O69 Zn68 2.032 . S
O69 C73 1.278 . S
C70 O71 1.203 . S
C70 O77 1.267 . S
O71 C70 1.203 . S
O72 C65 1.185 . S
O72 Zn68 2.086 . S
C73 O69 1.278 . S
C73 O74 1.211 . S
O74 C73 1.211 . S
C75 O67 1.284 . S
C75 O76 1.273 . S
O76 C75 1.273 . S
O77 Zn68 1.977 . S
O77 C70 1.267 . S
C78 O79 1.160 . S
C78 O85 1.185 . S
O79 C78 1.160 . S
O80 Zn81 1.899 . S
O80 C88 1.284 . S
Zn81 O80 1.899 . S
Zn81 O82 2.032 . S
Zn81 O85 2.086 . S
Zn81 O90 1.977 . S
O82 Zn81 2.032 . S
O82 C86 1.278 . S
C83 O84 1.203 . S
C83 O90 1.267 . S
O84 C83 1.203 . S
O85 C78 1.185 . S
O85 Zn81 2.086 . S
C86 O82 1.278 . S
C86 O87 1.211 . S
O87 C86 1.211 . S
C88 O80 1.284 . S
C88 O89 1.273 . S
O89 C88 1.273 . S
O90 Zn81 1.977 . S
O90 C83 1.267 . S
C91 O92 1.160 . S
C91 O98 1.185 . S
O92 C91 1.160 . S
O93 Zn94 1.899 . S
O93 C101 1.284 . S
Zn94 O93 1.899 . S
Zn94 O95 2.032 . S
Zn94 O98 2.086 . S
Zn94 O103 1.977 . S
O95 Zn94 2.032 . S
O95 C99 1.278 . S
C96 O97 1.203 . S
C96 O103 1.267 . S
O97 C96 1.203 . S
O98 C91 1.185 . S
O98 Zn94 2.086 . S
C99 O95 1.278 . S
C99 O100 1.211 . S
O100 C99 1.211 . S
C101 O93 1.284 . S
C101 O102 1.273 . S
O102 C101 1.273 . S
O103 Zn94 1.977 . S
O103 C96 1.267 . S
C104 O105 1.160 . S
C104 O111 1.185 . S
O105 C104 1.160 . S
O106 Zn107 1.899 . S
O106 C114 1.284 . S
Zn107 O106 1.899 . S
Zn107 O108 2.032 . S
Zn107 O111 2.086 . S
Zn107 O116 1.977 . S
O108 Zn107 2.032 . S
O108 C112 1.278 . S
C109 O110 1.203 . S
C109 O116 1.267 . S
O110 C109 1.203 . S
O111 C104 1.185 . S
O111 Zn107 2.086 . S
C112 O108 1.278 . S
C112 O113 1.211 . S
O113 C112 1.211 . S
C114 O106 1.284 . S
C114 O115 1.273 . S
O115 C114 1.273 . S
O116 Zn107 1.977 . S
O116 C109 1.267 . S
C117 O118 1.160 . S
C117 O124 1.185 . S
O118 C117 1.160 . S
O119 Zn120 1.899 . S
O119 C127 1.284 . S
Zn120 O119 1.899 . S
Zn120 O121 2.032 . S
Zn120 O124 2.086 . S
Zn120 O129 1.977 . S
O121 Zn120 2.032 . S
O121 C125 1.278 . S
C122 O123 1.203 . S
C122 O129 1.267 . S
O123 C122 1.203 . S
O124 C117 1.185 . S
O124 Zn120 2.086 . S
C125 O121 1.278 . S
C125 O126 1.211 . S
O126 C125 1.211 . S
C127 O119 1.284 . S
C127 O128 1.273 . S
O128 C127 1.273 . S
O129 Zn120 1.977 . S
O129 C122 1.267 . S
C130 O131 1.160 . S
C130 O137 1.185 . S
O131 C130 1.160 . S
O132 Zn133 1.899 . S
O132 C140 1.284 . S
Zn133 O132 1.899 . S
Zn133 O134 2.032 . S
Zn133 O137 2.086 . S
Zn133 O142 1.977 . S
O134 Zn133 2.032 . S
O134 C138 1.278 . S
C135 O136 1.203 . S
C135 O142 1.267 . S
O136 C135 1.203 . S
O137 C130 1.185 . S
O137 Zn133 2.086 . S
C138 O134 1.278 . S
C138 O139 1.211 . S
O139 C138 1.211 . S
C140 O132 1.284 . S
C140 O141 1.273 . S
O141 C140 1.273 . S
O142 Zn133 1.977 . S
O142 C135 1.267 . S
C143 O144 1.160 . S
C143 O150 1.185 . S
O144 C143 1.160 . S
O145 Zn146 1.899 . S
O145 C153 1.284 . S
Zn146 O145 1.899 . S
Zn146 O147 2.032 . S
Zn146 O150 2.086 . S
Zn146 O155 1.977 . S
O147 Zn146 2.032 . S
O147 C151 1.278 . S
C148 O149 1.203 . S
C148 O155 1.267 . S
O149 C148 1.203 . S
O150 C143 1.185 . S
O150 Zn146 2.086 . S
C151 O147 1.278 . S
C151 O152 1.211 . S
O152 C151 1.211 . S
C153 O145 1.284 . S
C153 O154 1.273 . S
O154 C153 1.273 . S
O155 Zn146 1.977 . S
O155 C148 1.267 . S
H156 C174 0.951 . S
H157 C176 0.951 . S
H158 C178 0.950 1_554 S
H159 C179 0.950 . S
H160 C181 0.950 . S
H161 C184 0.950 . S
H162 C185 0.950 . S
H163 C187 0.950 . S
H164 C188 0.950 . S
H165 C189 0.951 . S
H166 C191 0.951 . S
H167 C193 0.950 1_556 S
H168 C194 0.950 . S
H169 C196 0.950 . S
H170 C199 0.950 . S
H171 C200 0.950 . S
H172 C202 0.950 . S
H173 C203 0.950 . S
C174 H156 0.951 . S
C174 C175 1.366 . S
C174 C176 1.388 . S
C175 C174 1.366 . S
C175 C179 1.385 . S
C176 H157 0.951 . S
C176 C174 1.388 . S
C176 C177 1.366 . S
C177 C176 1.366 . S
C177 C178 1.414 . S
C177 C180 1.499 . S
C178 H158 0.950 1_556 S
C178 C177 1.414 . S
C178 C179 1.374 . S
C179 H159 0.950 . S
C179 C175 1.385 . S
C179 C178 1.374 . S
C180 C177 1.499 . S
C180 C181 1.373 1_556 S
C180 C182 1.389 . S
C181 H160 0.950 . S
C181 C180 1.373 1_554 S
C181 C197 1.377 1_565 S
C182 C180 1.389 . S
C182 C183 1.524 . S
C182 C196 1.377 1_565 S
C183 C182 1.524 . S
C183 C184 1.397 . S
C183 C188 1.363 1_565 S
C184 H161 0.950 . S
C184 C183 1.397 . S
C184 C185 1.334 . S
C185 H162 0.950 . S
C185 C184 1.334 . S
C185 C186 1.287 . S
C186 C185 1.287 . S
C186 C187 1.524 1_565 S
C186 H205 0.913 . S
C187 H163 0.950 . S
C187 C186 1.524 1_545 S
C187 C188 1.415 . S
C188 H164 0.950 . S
C188 C183 1.363 1_545 S
C188 C187 1.415 . S
C189 H165 0.951 . S
C189 C190 1.366 . S
C189 C191 1.388 . S
C190 C189 1.366 . S
C190 C194 1.385 . S
C191 H166 0.951 . S
C191 C189 1.388 . S
C191 C192 1.366 . S
C192 C191 1.366 . S
C192 C193 1.414 . S
C192 C195 1.499 . S
C193 H167 0.950 1_554 S
C193 C192 1.414 . S
C193 C194 1.374 . S
C194 H168 0.950 . S
C194 C190 1.385 . S
C194 C193 1.374 . S
C195 C192 1.499 . S
C195 C196 1.373 1_554 S
C195 C197 1.389 . S
C196 H169 0.950 . S
C196 C182 1.377 1_545 S
C196 C195 1.373 1_556 S
C197 C181 1.377 1_545 S
C197 C195 1.389 . S
C197 C198 1.524 . S
C198 C197 1.524 . S
C198 C199 1.397 . S
C198 C203 1.363 1_545 S
C199 H170 0.950 . S
C199 C198 1.397 . S
C199 C200 1.334 . S
C200 H171 0.950 . S
C200 C199 1.334 . S
C200 C201 1.287 . S
C201 C200 1.287 . S
C201 C202 1.524 1_545 S
C201 H204 0.999 . S
C202 H172 0.950 . S
C202 C201 1.524 1_565 S
C202 C203 1.415 . S
C203 H173 0.950 . S
C203 C198 1.363 1_565 S
C203 C202 1.415 . S
H204 C201 0.999 . S
H205 C186 0.913 . S
H206 C224 0.951 . S
H207 C226 0.951 . S
H208 C228 0.950 . S
H209 C229 0.950 . S
H210 C231 0.950 . S
H211 C234 0.950 . S
H212 C235 0.950 . S
H213 C237 0.950 . S
H214 C238 0.950 . S
H215 C239 0.951 . S
H216 C241 0.951 . S
H217 C243 0.950 . S
H218 C244 0.950 . S
H219 C246 0.950 . S
H220 C249 0.950 . S
H221 C250 0.950 . S
H222 C252 0.950 . S
H223 C253 0.950 . S
C224 H206 0.951 . S
C224 C225 1.366 . S
C224 C226 1.388 . S
C225 C224 1.366 . S
C225 C229 1.385 . S
C226 H207 0.951 . S
C226 C224 1.388 . S
C226 C227 1.366 . S
C227 C226 1.366 . S
C227 C228 1.414 . S
C227 C230 1.499 . S
C228 H208 0.950 . S
C228 C227 1.414 . S
C228 C229 1.374 . S
C229 H209 0.950 . S
C229 C225 1.385 . S
C229 C228 1.374 . S
C230 C227 1.499 . S
C230 C231 1.373 . S
C230 C232 1.389 . S
C231 H210 0.950 . S
C231 C230 1.373 . S
C231 C247 1.377 . S
C232 C230 1.389 . S
C232 C233 1.524 . S
C232 C246 1.377 . S
C233 C232 1.524 . S
C233 C234 1.397 . S
C233 C238 1.363 . S
C234 H211 0.950 . S
C234 C233 1.397 . S
C234 C235 1.334 . S
C235 H212 0.950 . S
C235 C234 1.334 . S
C235 C236 1.287 . S
C236 C235 1.287 . S
C236 C237 1.524 . S
C236 H255 0.913 . S
C237 H213 0.950 . S
C237 C236 1.524 . S
C237 C238 1.415 . S
C238 H214 0.950 . S
C238 C233 1.363 . S
C238 C237 1.415 . S
C239 H215 0.951 . S
C239 C240 1.366 . S
C239 C241 1.388 . S
C240 C239 1.366 . S
C240 C244 1.385 . S
C241 H216 0.951 . S
C241 C239 1.388 . S
C241 C242 1.366 . S
C242 C241 1.366 . S
C242 C243 1.414 . S
C242 C245 1.499 . S
C243 H217 0.950 . S
C243 C242 1.414 . S
C243 C244 1.374 . S
C244 H218 0.950 . S
C244 C240 1.385 . S
C244 C243 1.374 . S
C245 C242 1.499 . S
C245 C246 1.373 . S
C245 C247 1.389 . S
C246 H219 0.950 . S
C246 C232 1.377 . S
C246 C245 1.373 . S
C247 C231 1.377 . S
C247 C245 1.389 . S
C247 C248 1.524 . S
C248 C247 1.524 . S
C248 C249 1.397 . S
C248 C253 1.363 . S
C249 H220 0.950 . S
C249 C248 1.397 . S
C249 C250 1.334 . S
C250 H221 0.950 . S
C250 C249 1.334 . S
C250 C251 1.287 . S
C251 C250 1.287 . S
C251 C252 1.524 . S
C251 H254 0.999 . S
C252 H222 0.950 . S
C252 C251 1.524 . S
C252 C253 1.415 . S
C253 H223 0.950 . S
C253 C248 1.363 . S
C253 C252 1.415 . S
H254 C251 0.999 . S
H255 C236 0.913 . S
H256 C274 0.951 . S
H257 C276 0.951 . S
H258 C278 0.950 . S
H259 C279 0.950 . S
H260 C281 0.950 . S
H261 C284 0.950 . S
H262 C285 0.950 . S
H263 C287 0.950 . S
H264 C288 0.950 . S
H265 C289 0.951 . S
H266 C291 0.951 . S
H267 C293 0.950 . S
H268 C294 0.950 . S
H269 C296 0.950 . S
H270 C299 0.950 . S
H271 C300 0.950 . S
H272 C302 0.950 . S
H273 C303 0.950 . S
C274 H256 0.951 . S
C274 C275 1.366 . S
C274 C276 1.388 . S
C275 C274 1.366 . S
C275 C279 1.385 . S
C276 H257 0.951 . S
C276 C274 1.388 . S
C276 C277 1.366 . S
C277 C276 1.366 . S
C277 C278 1.414 . S
C277 C280 1.499 . S
C278 H258 0.950 . S
C278 C277 1.414 . S
C278 C279 1.374 . S
C279 H259 0.950 . S
C279 C275 1.385 . S
C279 C278 1.374 . S
C280 C277 1.499 . S
C280 C281 1.373 . S
C280 C282 1.389 . S
C281 H260 0.950 . S
C281 C280 1.373 . S
C281 C297 1.377 1_655 S
C282 C280 1.389 . S
C282 C283 1.524 . S
C282 C296 1.377 1_655 S
C283 C282 1.524 . S
C283 C284 1.397 . S
C283 C288 1.363 . S
C284 H261 0.950 . S
C284 C283 1.397 . S
C284 C285 1.334 . S
C285 H262 0.950 . S
C285 C284 1.334 . S
C285 C286 1.287 . S
C286 C285 1.287 . S
C286 C287 1.524 . S
C286 H305 0.913 . S
C287 H263 0.950 . S
C287 C286 1.524 . S
C287 C288 1.415 . S
C288 H264 0.950 . S
C288 C283 1.363 . S
C288 C287 1.415 . S
C289 H265 0.951 . S
C289 C290 1.366 . S
C289 C291 1.388 . S
C290 C289 1.366 . S
C290 C294 1.385 . S
C291 H266 0.951 . S
C291 C289 1.388 . S
C291 C292 1.366 . S
C292 C291 1.366 . S
C292 C293 1.414 . S
C292 C295 1.499 . S
C293 H267 0.950 . S
C293 C292 1.414 . S
C293 C294 1.374 . S
C294 H268 0.950 . S
C294 C290 1.385 . S
C294 C293 1.374 . S
C295 C292 1.499 . S
C295 C296 1.373 . S
C295 C297 1.389 . S
C296 H269 0.950 . S
C296 C282 1.377 1_455 S
C296 C295 1.373 . S
C297 C281 1.377 1_455 S
C297 C295 1.389 . S
C297 C298 1.524 . S
C298 C297 1.524 . S
C298 C299 1.397 . S
C298 C303 1.363 . S
C299 H270 0.950 . S
C299 C298 1.397 . S
C299 C300 1.334 . S
C300 H271 0.950 . S
C300 C299 1.334 . S
C300 C301 1.287 . S
C301 C300 1.287 . S
C301 C302 1.524 . S
C301 H304 0.999 . S
C302 H272 0.950 . S
C302 C301 1.524 . S
C302 C303 1.415 . S
C303 H273 0.950 . S
C303 C298 1.363 . S
C303 C302 1.415 . S
H304 C301 0.999 . S
H305 C286 0.913 . S
H306 C324 0.951 . S
H307 C326 0.951 . S
H308 C328 0.950 1_556 S
H309 C329 0.950 . S
H310 C331 0.950 . S
H311 C334 0.943 1_556 S
H312 C335 0.950 1_556 S
H313 C337 0.950 . S
H314 C338 0.950 1_545 S
H315 C339 0.951 . S
H316 C341 0.951 . S
H317 C343 0.950 1_554 S
H318 C344 0.950 . S
H319 C346 0.950 . S
H320 C349 0.943 1_554 S
H321 C350 0.950 1_554 S
H322 C352 0.950 . S
H323 C353 0.950 1_565 S
C324 H306 0.951 . S
C324 C325 1.366 . S
C324 C326 1.388 . S
C325 C324 1.366 . S
C325 C329 1.385 . S
C326 H307 0.951 . S
C326 C324 1.388 . S
C326 C327 1.366 . S
C327 C326 1.366 . S
C327 C328 1.414 . S
C327 C330 1.499 . S
C328 H308 0.950 1_554 S
C328 C327 1.414 . S
C328 C329 1.374 . S
C329 H309 0.950 . S
C329 C325 1.385 . S
C329 C328 1.374 . S
C330 C327 1.499 . S
C330 C331 1.373 1_554 S
C330 C332 1.389 . S
C331 H310 0.950 . S
C331 C330 1.373 1_556 S
C331 C347 1.377 1_565 S
C332 C330 1.389 . S
C332 C333 1.524 . S
C332 C346 1.377 1_565 S
C333 C332 1.524 . S
C333 C334 1.402 . S
C333 C338 1.363 . S
C334 H311 0.943 1_554 S
C334 C333 1.402 . S
C334 C335 1.335 . S
C335 H312 0.950 1_554 S
C335 C334 1.335 . S
C335 C336 1.287 . S
C336 C335 1.287 . S
C336 C337 1.524 . S
C336 H355 0.913 . S
C337 H313 0.950 . S
C337 C336 1.524 . S
C337 C338 1.415 . S
C338 H314 0.950 1_565 S
C338 C333 1.363 . S
C338 C337 1.415 . S
C339 H315 0.951 . S
C339 C340 1.366 . S
C339 C341 1.388 . S
C340 C339 1.366 . S
C340 C344 1.385 . S
C341 H316 0.951 . S
C341 C339 1.388 . S
C341 C342 1.366 . S
C342 C341 1.366 . S
C342 C343 1.414 . S
C342 C345 1.499 . S
C343 H317 0.950 1_556 S
C343 C342 1.414 . S
C343 C344 1.374 . S
C344 H318 0.950 . S
C344 C340 1.385 . S
C344 C343 1.374 . S
C345 C342 1.499 . S
C345 C346 1.373 1_556 S
C345 C347 1.389 . S
C346 H319 0.950 . S
C346 C332 1.377 1_545 S
C346 C345 1.373 1_554 S
C347 C331 1.377 1_545 S
C347 C345 1.389 . S
C347 C348 1.524 . S
C348 C347 1.524 . S
C348 C349 1.402 . S
C348 C353 1.363 . S
C349 H320 0.943 1_556 S
C349 C348 1.402 . S
C349 C350 1.335 . S
C350 H321 0.950 1_556 S
C350 C349 1.335 . S
C350 C351 1.287 . S
C351 C350 1.287 . S
C351 C352 1.524 . S
C351 H354 0.999 . S
C352 H322 0.950 . S
C352 C351 1.524 . S
C352 C353 1.415 . S
C353 H323 0.950 1_545 S
C353 C348 1.363 . S
C353 C352 1.415 . S
H354 C351 0.999 . S
H355 C336 0.913 . S
H356 C374 0.951 . S
H357 C376 0.951 . S
H358 C378 0.950 . S
H359 C379 0.950 . S
H360 C381 0.950 . S
H361 C384 0.950 . S
H362 C385 0.950 . S
H363 C387 0.950 . S
H364 C388 0.950 . S
H365 C389 0.951 . S
H366 C391 0.951 . S
H367 C393 0.950 . S
H368 C394 0.950 . S
H369 C396 0.950 . S
H370 C399 0.950 . S
H371 C400 0.950 . S
H372 C402 0.950 . S
H373 C403 0.950 . S
C374 H356 0.951 . S
C374 C375 1.366 . S
C374 C376 1.388 . S
C375 C374 1.366 . S
C375 C379 1.385 . S
C376 H357 0.951 . S
C376 C374 1.388 . S
C376 C377 1.366 . S
C377 C376 1.366 . S
C377 C378 1.414 . S
C377 C380 1.499 . S
C378 H358 0.950 . S
C378 C377 1.414 . S
C378 C379 1.374 . S
C379 H359 0.950 . S
C379 C375 1.385 . S
C379 C378 1.374 . S
C380 C377 1.499 . S
C380 C381 1.373 . S
C380 C382 1.389 . S
C381 H360 0.950 . S
C381 C380 1.373 . S
C381 C397 1.377 . S
C382 C380 1.389 . S
C382 C383 1.524 . S
C382 C396 1.377 . S
C383 C382 1.524 . S
C383 C384 1.397 . S
C383 C388 1.363 . S
C384 H361 0.950 . S
C384 C383 1.397 . S
C384 C385 1.334 . S
C385 H362 0.950 . S
C385 C384 1.334 . S
C385 C386 1.287 . S
C386 C385 1.287 . S
C386 C387 1.524 . S
C386 H405 0.913 . S
C387 H363 0.950 . S
C387 C386 1.524 . S
C387 C388 1.415 . S
C388 H364 0.950 . S
C388 C383 1.363 . S
C388 C387 1.415 . S
C389 H365 0.951 . S
C389 C390 1.366 . S
C389 C391 1.388 . S
C390 C389 1.366 . S
C390 C394 1.385 . S
C391 H366 0.951 . S
C391 C389 1.388 . S
C391 C392 1.366 . S
C392 C391 1.366 . S
C392 C393 1.414 . S
C392 C395 1.499 . S
C393 H367 0.950 . S
C393 C392 1.414 . S
C393 C394 1.374 . S
C394 H368 0.950 . S
C394 C390 1.385 . S
C394 C393 1.374 . S
C395 C392 1.499 . S
C395 C396 1.373 . S
C395 C397 1.389 . S
C396 H369 0.950 . S
C396 C382 1.377 . S
C396 C395 1.373 . S
C397 C381 1.377 . S
C397 C395 1.389 . S
C397 C398 1.524 . S
C398 C397 1.524 . S
C398 C399 1.397 . S
C398 C403 1.363 . S
C399 H370 0.950 . S
C399 C398 1.397 . S
C399 C400 1.334 . S
C400 H371 0.950 . S
C400 C399 1.334 . S
C400 C401 1.287 . S
C401 C400 1.287 . S
C401 C402 1.524 . S
C401 H404 0.999 . S
C402 H372 0.950 . S
C402 C401 1.524 . S
C402 C403 1.415 . S
C403 H373 0.950 . S
C403 C398 1.363 . S
C403 C402 1.415 . S
H404 C401 0.999 . S
H405 C386 0.913 . S
H406 C424 0.951 . S
H407 C426 0.951 . S
H408 C428 0.950 . S
H409 C429 0.950 . S
H410 C431 0.950 . S
H411 C434 0.950 . S
H412 C435 0.950 . S
H413 C437 0.950 . S
H414 C438 0.950 . S
H415 C439 0.951 . S
H416 C441 0.951 . S
H417 C443 0.950 . S
H418 C444 0.950 . S
H419 C446 0.950 . S
H420 C449 0.950 . S
H421 C450 0.950 . S
H422 C452 0.950 . S
H423 C453 0.950 . S
C424 H406 0.951 . S
C424 C425 1.366 . S
C424 C426 1.388 . S
C425 C424 1.366 . S
C425 C429 1.385 . S
C426 H407 0.951 . S
C426 C424 1.388 . S
C426 C427 1.366 . S
C427 C426 1.366 . S
C427 C428 1.414 . S
C427 C430 1.499 . S
C428 H408 0.950 . S
C428 C427 1.414 . S
C428 C429 1.374 . S
C429 H409 0.950 . S
C429 C425 1.385 . S
C429 C428 1.374 . S
C430 C427 1.499 . S
C430 C431 1.373 . S
C430 C432 1.389 . S
C431 H410 0.950 . S
C431 C430 1.373 . S
C431 C447 1.377 1_655 S
C432 C430 1.389 . S
C432 C433 1.524 . S
C432 C446 1.377 1_655 S
C433 C432 1.524 . S
C433 C434 1.397 . S
C433 C438 1.363 . S
C434 H411 0.950 . S
C434 C433 1.397 . S
C434 C435 1.334 . S
C435 H412 0.950 . S
C435 C434 1.334 . S
C435 C436 1.287 . S
C436 C435 1.287 . S
C436 C437 1.524 . S
C436 H455 0.913 . S
C437 H413 0.950 . S
C437 C436 1.524 . S
C437 C438 1.415 . S
C438 H414 0.950 . S
C438 C433 1.363 . S
C438 C437 1.415 . S
C439 H415 0.951 . S
C439 C440 1.366 . S
C439 C441 1.388 . S
C440 C439 1.366 . S
C440 C444 1.385 . S
C441 H416 0.951 . S
C441 C439 1.388 . S
C441 C442 1.366 . S
C442 C441 1.366 . S
C442 C443 1.414 . S
C442 C445 1.499 . S
C443 H417 0.950 . S
C443 C442 1.414 . S
C443 C444 1.374 . S
C444 H418 0.950 . S
C444 C440 1.385 . S
C444 C443 1.374 . S
C445 C442 1.499 . S
C445 C446 1.373 . S
C445 C447 1.389 . S
C446 H419 0.950 . S
C446 C432 1.377 1_455 S
C446 C445 1.373 . S
C447 C431 1.377 1_455 S
C447 C445 1.389 . S
C447 C448 1.524 . S
C448 C447 1.524 . S
C448 C449 1.397 . S
C448 C453 1.363 . S
C449 H420 0.950 . S
C449 C448 1.397 . S
C449 C450 1.334 . S
C450 H421 0.950 . S
C450 C449 1.334 . S
C450 C451 1.287 . S
C451 C450 1.287 . S
C451 C452 1.524 . S
C451 H454 0.999 . S
C452 H422 0.950 . S
C452 C451 1.524 . S
C452 C453 1.415 . S
C453 H423 0.950 . S
C453 C448 1.363 . S
C453 C452 1.415 . S
H454 C451 0.999 . S
H455 C436 0.913 . S
H456 C474 0.951 . S
H457 C476 0.951 . S
H458 C478 0.950 . S
H459 C479 0.950 . S
H460 C481 0.950 . S
H461 C484 0.950 . S
H462 C485 0.950 . S
H463 C487 0.950 . S
H464 C488 0.950 . S
H465 C489 0.951 . S
H466 C491 0.951 . S
H467 C493 0.950 . S
H468 C494 0.950 . S
H469 C496 0.950 . S
H470 C499 0.950 . S
H471 C500 0.950 . S
H472 C502 0.950 . S
H473 C503 0.950 . S
C474 H456 0.951 . S
C474 C475 1.366 . S
C474 C476 1.388 . S
C475 C474 1.366 . S
C475 C479 1.385 . S
C476 H457 0.951 . S
C476 C474 1.388 . S
C476 C477 1.366 . S
C477 C476 1.366 . S
C477 C478 1.414 . S
C477 C480 1.499 . S
C478 H458 0.950 . S
C478 C477 1.414 . S
C478 C479 1.374 . S
C479 H459 0.950 . S
C479 C475 1.385 . S
C479 C478 1.374 . S
C480 C477 1.499 . S
C480 C481 1.373 . S
C480 C482 1.389 1_556 S
C481 H460 0.950 . S
C481 C480 1.373 . S
C481 C497 1.377 . S
C482 C480 1.389 1_554 S
C482 C483 1.524 . S
C482 C496 1.377 . S
C483 C482 1.524 . S
C483 C484 1.397 . S
C483 C488 1.363 . S
C484 H461 0.950 . S
C484 C483 1.397 . S
C484 C485 1.334 . S
C485 H462 0.950 . S
C485 C484 1.334 . S
C485 C486 1.287 . S
C486 C485 1.287 . S
C486 C487 1.524 . S
C486 H505 0.913 . S
C487 H463 0.950 . S
C487 C486 1.524 . S
C487 C488 1.415 . S
C488 H464 0.950 . S
C488 C483 1.363 . S
C488 C487 1.415 . S
C489 H465 0.951 . S
C489 C490 1.366 . S
C489 C491 1.388 . S
C490 C489 1.366 . S
C490 C494 1.385 . S
C491 H466 0.951 . S
C491 C489 1.388 . S
C491 C492 1.366 . S
C492 C491 1.366 . S
C492 C493 1.414 . S
C492 C495 1.499 . S
C493 H467 0.950 . S
C493 C492 1.414 . S
C493 C494 1.374 . S
C494 H468 0.950 . S
C494 C490 1.385 . S
C494 C493 1.374 . S
C495 C492 1.499 . S
C495 C496 1.373 . S
C495 C497 1.389 1_554 S
C496 H469 0.950 . S
C496 C482 1.377 . S
C496 C495 1.373 . S
C497 C481 1.377 . S
C497 C495 1.389 1_556 S
C497 C498 1.524 . S
C498 C497 1.524 . S
C498 C499 1.397 . S
C498 C503 1.363 . S
C499 H470 0.950 . S
C499 C498 1.397 . S
C499 C500 1.334 . S
C500 H471 0.950 . S
C500 C499 1.334 . S
C500 C501 1.287 . S
C501 C500 1.287 . S
C501 C502 1.524 . S
C501 H504 0.999 . S
C502 H472 0.950 . S
C502 C501 1.524 . S
C502 C503 1.415 . S
C503 H473 0.950 . S
C503 C498 1.363 . S
C503 C502 1.415 . S
H504 C501 0.999 . S
H505 C486 0.913 . S
H506 C524 0.951 . S
H507 C526 0.951 . S
H508 C528 0.950 . S
H509 C529 0.950 . S
H510 C531 0.950 . S
H511 C534 0.950 . S
H512 C535 0.950 . S
H513 C537 0.950 . S
H514 C538 0.950 . S
H515 C539 0.951 . S
H516 C541 0.951 . S
H517 C543 0.950 . S
H518 C544 0.950 . S
H519 C546 0.950 . S
H520 C549 0.950 . S
H521 C550 0.950 . S
H522 C552 0.950 . S
H523 C553 0.950 . S
C524 H506 0.951 . S
C524 C525 1.366 . S
C524 C526 1.388 . S
C525 C524 1.366 . S
C525 C529 1.385 . S
C526 H507 0.951 . S
C526 C524 1.388 . S
C526 C527 1.366 . S
C527 C526 1.366 . S
C527 C528 1.414 . S
C527 C530 1.499 . S
C528 H508 0.950 . S
C528 C527 1.414 . S
C528 C529 1.374 . S
C529 H509 0.950 . S
C529 C525 1.385 . S
C529 C528 1.374 . S
C530 C527 1.499 . S
C530 C531 1.373 . S
C530 C532 1.389 . S
C531 H510 0.950 . S
C531 C530 1.373 . S
C531 C547 1.377 . S
C532 C530 1.389 . S
C532 C533 1.524 . S
C532 C546 1.377 . S
C533 C532 1.524 . S
C533 C534 1.397 . S
C533 C538 1.363 . S
C534 H511 0.950 . S
C534 C533 1.397 . S
C534 C535 1.334 . S
C535 H512 0.950 . S
C535 C534 1.334 . S
C535 C536 1.287 . S
C536 C535 1.287 . S
C536 C537 1.524 . S
C536 H555 0.913 . S
C537 H513 0.950 . S
C537 C536 1.524 . S
C537 C538 1.415 . S
C538 H514 0.950 . S
C538 C533 1.363 . S
C538 C537 1.415 . S
C539 H515 0.951 . S
C539 C540 1.366 . S
C539 C541 1.388 . S
C540 C539 1.366 . S
C540 C544 1.385 . S
C541 H516 0.951 . S
C541 C539 1.388 . S
C541 C542 1.366 . S
C542 C541 1.366 . S
C542 C543 1.414 . S
C542 C545 1.499 . S
C543 H517 0.950 . S
C543 C542 1.414 . S
C543 C544 1.374 . S
C544 H518 0.950 . S
C544 C540 1.385 . S
C544 C543 1.374 . S
C545 C542 1.499 . S
C545 C546 1.373 . S
C545 C547 1.389 . S
C546 H519 0.950 . S
C546 C532 1.377 . S
C546 C545 1.373 . S
C547 C531 1.377 . S
C547 C545 1.389 . S
C547 C548 1.524 . S
C548 C547 1.524 . S
C548 C549 1.397 . S
C548 C553 1.363 . S
C549 H520 0.950 . S
C549 C548 1.397 . S
C549 C550 1.334 . S
C550 H521 0.950 . S
C550 C549 1.334 . S
C550 C551 1.287 . S
C551 C550 1.287 . S
C551 C552 1.524 . S
C551 H554 0.999 . S
C552 H522 0.950 . S
C552 C551 1.524 . S
C552 C553 1.415 . S
C553 H523 0.950 . S
C553 C548 1.363 . S
C553 C552 1.415 . S
H554 C551 0.999 . S
H555 C536 0.913 . S
H556 C574 0.951 . S
H557 C576 0.951 . S
H558 C578 0.950 . S
H559 C579 0.950 . S
H560 C581 0.950 . S
H561 C584 0.950 . S
H562 C585 0.950 . S
H563 C587 0.950 . S
H564 C588 0.950 . S
H565 C589 0.951 . S
H566 C591 0.951 . S
H567 C593 0.950 . S
H568 C594 0.950 . S
H569 C596 0.950 . S
H570 C599 0.950 . S
H571 C600 0.950 . S
H572 C602 0.950 . S
H573 C603 0.950 . S
C574 H556 0.951 . S
C574 C575 1.366 . S
C574 C576 1.388 . S
C575 C574 1.366 . S
C575 C579 1.385 . S
C576 H557 0.951 . S
C576 C574 1.388 . S
C576 C577 1.366 . S
C577 C576 1.366 . S
C577 C578 1.414 . S
C577 C580 1.499 . S
C578 H558 0.950 . S
C578 C577 1.414 . S
C578 C579 1.374 . S
C579 H559 0.950 . S
C579 C575 1.385 . S
C579 C578 1.374 . S
C580 C577 1.499 . S
C580 C581 1.373 . S
C580 C582 1.389 . S
C581 H560 0.950 . S
C581 C580 1.373 . S
C581 C597 1.377 . S
C582 C580 1.389 . S
C582 C583 1.524 . S
C582 C596 1.377 . S
C583 C582 1.524 . S
C583 C584 1.397 . S
C583 C588 1.363 . S
C584 H561 0.950 . S
C584 C583 1.397 . S
C584 C585 1.334 . S
C585 H562 0.950 . S
C585 C584 1.334 . S
C585 C586 1.287 . S
C586 C585 1.287 . S
C586 C587 1.524 . S
C586 H605 0.913 . S
C587 H563 0.950 . S
C587 C586 1.524 . S
C587 C588 1.415 . S
C588 H564 0.950 . S
C588 C583 1.363 . S
C588 C587 1.415 . S
C589 H565 0.951 . S
C589 C590 1.366 . S
C589 C591 1.388 . S
C590 C589 1.366 . S
C590 C594 1.385 . S
C591 H566 0.951 . S
C591 C589 1.388 . S
C591 C592 1.366 . S
C592 C591 1.366 . S
C592 C593 1.414 . S
C592 C595 1.499 . S
C593 H567 0.950 . S
C593 C592 1.414 . S
C593 C594 1.374 . S
C594 H568 0.950 . S
C594 C590 1.385 . S
C594 C593 1.374 . S
C595 C592 1.499 . S
C595 C596 1.373 . S
C595 C597 1.389 . S
C596 H569 0.950 . S
C596 C582 1.377 . S
C596 C595 1.373 . S
C597 C581 1.377 . S
C597 C595 1.389 . S
C597 C598 1.524 . S
C598 C597 1.524 . S
C598 C599 1.397 . S
C598 C603 1.363 . S
C599 H570 0.950 . S
C599 C598 1.397 . S
C599 C600 1.334 . S
C600 H571 0.950 . S
C600 C599 1.334 . S
C600 C601 1.287 . S
C601 C600 1.287 . S
C601 C602 1.524 . S
C601 H604 0.999 . S
C602 H572 0.950 . S
C602 C601 1.524 . S
C602 C603 1.415 . S
C603 H573 0.950 . S
C603 C598 1.363 . S
C603 C602 1.415 . S
H604 C601 0.999 . S
H605 C586 0.913 . S
H606 C624 0.951 . S
H607 C626 0.951 1_554 S
H608 C628 0.950 . S
H609 C629 0.950 . S
H610 C631 0.950 . S
H611 C634 0.950 1_556 S
H612 C635 0.989 . S
H613 C637 0.950 . S
H614 C638 0.950 . S
H615 C639 0.951 . S
H616 C641 0.951 1_556 S
H617 C643 0.950 . S
H618 C644 0.950 . S
H619 C646 0.950 . S
H620 C649 0.950 1_554 S
H621 C650 0.989 . S
H622 C652 0.950 . S
H623 C653 0.950 . S
C624 H606 0.951 . S
C624 C625 1.366 . S
C624 C626 1.388 . S
C625 C624 1.366 . S
C625 C629 1.385 . S
C626 H607 0.951 1_556 S
C626 C624 1.388 . S
C626 C627 1.366 . S
C627 C626 1.366 . S
C627 C628 1.414 . S
C627 C630 1.499 . S
C628 H608 0.950 . S
C628 C627 1.414 . S
C628 C629 1.374 . S
C629 H609 0.950 . S
C629 C625 1.385 . S
C629 C628 1.374 . S
C630 C627 1.499 . S
C630 C631 1.373 . S
C630 C632 1.389 1_556 S
C631 H610 0.950 . S
C631 C630 1.373 . S
C631 C647 1.377 . S
C632 C630 1.389 1_554 S
C632 C633 1.524 . S
C632 C646 1.377 . S
C633 C632 1.524 . S
C633 C634 1.397 . S
C633 C638 1.363 . S
C634 H611 0.950 1_554 S
C634 C633 1.397 . S
C634 C635 1.334 . S
C635 H612 0.989 . S
C635 C634 1.334 . S
C635 C636 1.287 . S
C636 C635 1.287 . S
C636 C637 1.524 . S
C636 H655 0.913 . S
C637 H613 0.950 . S
C637 C636 1.524 . S
C637 C638 1.415 . S
C638 H614 0.950 . S
C638 C633 1.363 . S
C638 C637 1.415 . S
C639 H615 0.951 . S
C639 C640 1.366 . S
C639 C641 1.388 . S
C640 C639 1.366 . S
C640 C644 1.385 . S
C641 H616 0.951 1_554 S
C641 C639 1.388 . S
C641 C642 1.366 . S
C642 C641 1.366 . S
C642 C643 1.414 . S
C642 C645 1.499 . S
C643 H617 0.950 . S
C643 C642 1.414 . S
C643 C644 1.374 . S
C644 H618 0.950 . S
C644 C640 1.385 . S
C644 C643 1.374 . S
C645 C642 1.499 . S
C645 C646 1.373 . S
C645 C647 1.389 1_554 S
C646 H619 0.950 . S
C646 C632 1.377 . S
C646 C645 1.373 . S
C647 C631 1.377 . S
C647 C645 1.389 1_556 S
C647 C648 1.524 . S
C648 C647 1.524 . S
C648 C649 1.397 . S
C648 C653 1.363 . S
C649 H620 0.950 1_556 S
C649 C648 1.397 . S
C649 C650 1.334 . S
C650 H621 0.989 . S
C650 C649 1.334 . S
C650 C651 1.287 . S
C651 C650 1.287 . S
C651 C652 1.524 . S
C651 H654 0.999 . S
C652 H622 0.950 . S
C652 C651 1.524 . S
C652 C653 1.415 . S
C653 H623 0.950 . S
C653 C648 1.363 . S
C653 C652 1.415 . S
H654 C651 0.999 . S
H655 C636 0.913 . S
H656 C674 0.951 . S
H657 C676 0.951 . S
H658 C678 0.950 . S
H659 C679 0.950 . S
H660 C681 0.950 . S
H661 C684 0.950 . S
H662 C685 0.950 . S
H663 C687 0.950 . S
H664 C688 0.950 . S
H665 C689 0.951 . S
H666 C691 0.951 . S
H667 C693 0.950 . S
H668 C694 0.950 . S
H669 C696 0.950 . S
H670 C699 0.950 . S
H671 C700 0.950 . S
H672 C702 0.950 . S
H673 C703 0.950 . S
C674 H656 0.951 . S
C674 C675 1.366 . S
C674 C676 1.388 . S
C675 C674 1.366 . S
C675 C679 1.385 . S
C676 H657 0.951 . S
C676 C674 1.388 . S
C676 C677 1.366 . S
C677 C676 1.366 . S
C677 C678 1.414 . S
C677 C680 1.499 . S
C678 H658 0.950 . S
C678 C677 1.414 . S
C678 C679 1.374 . S
C679 H659 0.950 . S
C679 C675 1.385 . S
C679 C678 1.374 . S
C680 C677 1.499 . S
C680 C681 1.373 . S
C680 C682 1.389 . S
C681 H660 0.950 . S
C681 C680 1.373 . S
C681 C697 1.377 . S
C682 C680 1.389 . S
C682 C683 1.524 . S
C682 C696 1.377 . S
C683 C682 1.524 . S
C683 C684 1.397 . S
C683 C688 1.363 . S
C684 H661 0.950 . S
C684 C683 1.397 . S
C684 C685 1.334 . S
C685 H662 0.950 . S
C685 C684 1.334 . S
C685 C686 1.287 . S
C686 C685 1.287 . S
C686 C687 1.524 . S
C686 H705 0.913 . S
C687 H663 0.950 . S
C687 C686 1.524 . S
C687 C688 1.415 . S
C688 H664 0.950 . S
C688 C683 1.363 . S
C688 C687 1.415 . S
C689 H665 0.951 . S
C689 C690 1.366 . S
C689 C691 1.388 . S
C690 C689 1.366 . S
C690 C694 1.385 . S
C691 H666 0.951 . S
C691 C689 1.388 . S
C691 C692 1.366 . S
C692 C691 1.366 . S
C692 C693 1.414 . S
C692 C695 1.499 . S
C693 H667 0.950 . S
C693 C692 1.414 . S
C693 C694 1.374 . S
C694 H668 0.950 . S
C694 C690 1.385 . S
C694 C693 1.374 . S
C695 C692 1.499 . S
C695 C696 1.373 . S
C695 C697 1.389 . S
C696 H669 0.950 . S
C696 C682 1.377 . S
C696 C695 1.373 . S
C697 C681 1.377 . S
C697 C695 1.389 . S
C697 C698 1.524 . S
C698 C697 1.524 . S
C698 C699 1.397 . S
C698 C703 1.363 . S
C699 H670 0.950 . S
C699 C698 1.397 . S
C699 C700 1.334 . S
C700 H671 0.950 . S
C700 C699 1.334 . S
C700 C701 1.287 . S
C701 C700 1.287 . S
C701 C702 1.524 . S
C701 H704 0.999 . S
C702 H672 0.950 . S
C702 C701 1.524 . S
C702 C703 1.415 . S
C703 H673 0.950 . S
C703 C698 1.363 . S
C703 C702 1.415 . S
H704 C701 0.999 . S
H705 C686 0.913 . S
H706 C724 0.951 . S
H707 C726 0.951 . S
H708 C728 0.950 . S
H709 C729 0.950 . S
H710 C731 0.950 . S
H711 C734 0.950 . S
H712 C735 0.950 . S
H713 C737 0.950 . S
H714 C738 0.950 . S
H715 C739 0.951 . S
H716 C741 0.951 . S
H717 C743 0.950 . S
H718 C744 0.950 . S
H719 C746 0.950 . S
H720 C749 0.950 . S
H721 C750 0.950 . S
H722 C752 0.950 . S
H723 C753 0.950 . S
C724 H706 0.951 . S
C724 C725 1.366 . S
C724 C726 1.388 . S
C725 C724 1.366 . S
C725 C729 1.385 . S
C726 H707 0.951 . S
C726 C724 1.388 . S
C726 C727 1.366 . S
C727 C726 1.366 . S
C727 C728 1.414 . S
C727 C730 1.499 . S
C728 H708 0.950 . S
C728 C727 1.414 . S
C728 C729 1.374 . S
C729 H709 0.950 . S
C729 C725 1.385 . S
C729 C728 1.374 . S
C730 C727 1.499 . S
C730 C731 1.373 . S
C730 C732 1.389 . S
C731 H710 0.950 . S
C731 C730 1.373 . S
C731 C747 1.377 . S
C732 C730 1.389 . S
C732 C733 1.524 . S
C732 C746 1.377 . S
C733 C732 1.524 . S
C733 C734 1.397 . S
C733 C738 1.363 . S
C734 H711 0.950 . S
C734 C733 1.397 . S
C734 C735 1.334 . S
C735 H712 0.950 . S
C735 C734 1.334 . S
C735 C736 1.287 . S
C736 C735 1.287 . S
C736 C737 1.524 . S
C736 H755 0.913 . S
C737 H713 0.950 . S
C737 C736 1.524 . S
C737 C738 1.415 . S
C738 H714 0.950 . S
C738 C733 1.363 . S
C738 C737 1.415 . S
C739 H715 0.951 . S
C739 C740 1.366 . S
C739 C741 1.388 . S
C740 C739 1.366 . S
C740 C744 1.385 . S
C741 H716 0.951 . S
C741 C739 1.388 . S
C741 C742 1.366 . S
C742 C741 1.366 . S
C742 C743 1.414 . S
C742 C745 1.499 . S
C743 H717 0.950 . S
C743 C742 1.414 . S
C743 C744 1.374 . S
C744 H718 0.950 . S
C744 C740 1.385 . S
C744 C743 1.374 . S
C745 C742 1.499 . S
C745 C746 1.373 . S
C745 C747 1.389 . S
C746 H719 0.950 . S
C746 C732 1.377 . S
C746 C745 1.373 . S
C747 C731 1.377 . S
C747 C745 1.389 . S
C747 C748 1.524 . S
C748 C747 1.524 . S
C748 C749 1.397 . S
C748 C753 1.363 . S
C749 H720 0.950 . S
C749 C748 1.397 . S
C749 C750 1.334 . S
C750 H721 0.950 . S
C750 C749 1.334 . S
C750 C751 1.287 . S
C751 C750 1.287 . S
C751 C752 1.524 . S
C751 H754 0.999 . S
C752 H722 0.950 . S
C752 C751 1.524 . S
C752 C753 1.415 . S
C753 H723 0.950 . S
C753 C748 1.363 . S
C753 C752 1.415 . S
H754 C751 0.999 . S
H755 C736 0.913 . S
H756 C774 0.951 . S
H757 C776 0.951 . S
H758 C778 0.950 . S
H759 C779 0.950 . S
H760 C781 0.950 . S
H761 C784 0.950 . S
H762 C785 0.950 . S
H763 C787 0.950 . S
H764 C788 0.950 . S
H765 C789 0.951 . S
H766 C791 0.951 . S
H767 C793 0.950 . S
H768 C794 0.950 . S
H769 C796 0.950 . S
H770 C799 0.950 . S
H771 C800 0.950 . S
H772 C802 0.950 . S
H773 C803 0.950 . S
C774 H756 0.951 . S
C774 C775 1.366 . S
C774 C776 1.388 . S
C775 C774 1.366 . S
C775 C779 1.385 . S
C776 H757 0.951 . S
C776 C774 1.388 . S
C776 C777 1.366 . S
C777 C776 1.366 . S
C777 C778 1.414 . S
C777 C780 1.499 . S
C778 H758 0.950 . S
C778 C777 1.414 . S
C778 C779 1.374 . S
C779 H759 0.950 . S
C779 C775 1.385 . S
C779 C778 1.374 . S
C780 C777 1.499 . S
C780 C781 1.373 . S
C780 C782 1.389 . S
C781 H760 0.950 . S
C781 C780 1.373 . S
C781 C797 1.377 . S
C782 C780 1.389 . S
C782 C783 1.524 . S
C782 C796 1.377 . S
C783 C782 1.524 . S
C783 C784 1.397 . S
C783 C788 1.363 . S
C784 H761 0.950 . S
C784 C783 1.397 . S
C784 C785 1.334 . S
C785 H762 0.950 . S
C785 C784 1.334 . S
C785 C786 1.287 . S
C786 C785 1.287 . S
C786 C787 1.524 . S
C786 H805 0.913 . S
C787 H763 0.950 . S
C787 C786 1.524 . S
C787 C788 1.415 . S
C788 H764 0.950 . S
C788 C783 1.363 . S
C788 C787 1.415 . S
C789 H765 0.951 . S
C789 C790 1.366 . S
C789 C791 1.388 . S
C790 C789 1.366 . S
C790 C794 1.385 . S
C791 H766 0.951 . S
C791 C789 1.388 . S
C791 C792 1.366 . S
C792 C791 1.366 . S
C792 C793 1.414 . S
C792 C795 1.499 . S
C793 H767 0.950 . S
C793 C792 1.414 . S
C793 C794 1.374 . S
C794 H768 0.950 . S
C794 C790 1.385 . S
C794 C793 1.374 . S
C795 C792 1.499 . S
C795 C796 1.373 . S
C795 C797 1.389 . S
C796 H769 0.950 . S
C796 C782 1.377 . S
C796 C795 1.373 . S
C797 C781 1.377 . S
C797 C795 1.389 . S
C797 C798 1.524 . S
C798 C797 1.524 . S
C798 C799 1.397 . S
C798 C803 1.363 . S
C799 H770 0.950 . S
C799 C798 1.397 . S
C799 C800 1.334 . S
C800 H771 0.950 . S
C800 C799 1.334 . S
C800 C801 1.287 . S
C801 C800 1.287 . S
C801 C802 1.524 . S
C801 H804 0.999 . S
C802 H772 0.950 . S
C802 C801 1.524 . S
C802 C803 1.415 . S
C803 H773 0.950 . S
C803 C798 1.363 . S
C803 C802 1.415 . S
H804 C801 0.999 . S
H805 C786 0.913 . S
H806 C824 0.951 . S
H807 C826 0.951 . S
H808 C828 0.950 . S
H809 C829 0.950 . S
H810 C831 0.950 . S
H811 C834 0.950 . S
H812 C835 0.950 . S
H813 C837 0.950 . S
H814 C838 0.950 . S
H815 C839 0.951 . S
H816 C841 0.951 . S
H817 C843 0.950 . S
H818 C844 0.950 . S
H819 C846 0.950 . S
H820 C849 0.950 . S
H821 C850 0.950 . S
H822 C852 0.950 . S
H823 C853 0.950 . S
C824 H806 0.951 . S
C824 C825 1.366 . S
C824 C826 1.388 . S
C825 C824 1.366 . S
C825 C829 1.385 . S
C826 H807 0.951 . S
C826 C824 1.388 . S
C826 C827 1.366 . S
C827 C826 1.366 . S
C827 C828 1.414 . S
C827 C830 1.499 . S
C828 H808 0.950 . S
C828 C827 1.414 . S
C828 C829 1.374 . S
C829 H809 0.950 . S
C829 C825 1.385 . S
C829 C828 1.374 . S
C830 C827 1.499 . S
C830 C831 1.373 . S
C830 C832 1.389 . S
C831 H810 0.950 . S
C831 C830 1.373 . S
C831 C847 1.377 . S
C832 C830 1.389 . S
C832 C833 1.524 . S
C832 C846 1.377 . S
C833 C832 1.524 . S
C833 C834 1.397 . S
C833 C838 1.363 . S
C834 H811 0.950 . S
C834 C833 1.397 . S
C834 C835 1.334 . S
C835 H812 0.950 . S
C835 C834 1.334 . S
C835 C836 1.287 . S
C836 C835 1.287 . S
C836 C837 1.524 . S
C836 H855 0.913 . S
C837 H813 0.950 . S
C837 C836 1.524 . S
C837 C838 1.415 . S
C838 H814 0.950 . S
C838 C833 1.363 . S
C838 C837 1.415 . S
C839 H815 0.951 . S
C839 C840 1.366 . S
C839 C841 1.388 . S
C840 C839 1.366 . S
C840 C844 1.385 . S
C841 H816 0.951 . S
C841 C839 1.388 . S
C841 C842 1.366 . S
C842 C841 1.366 . S
C842 C843 1.414 . S
C842 C845 1.499 . S
C843 H817 0.950 . S
C843 C842 1.414 . S
C843 C844 1.374 . S
C844 H818 0.950 . S
C844 C840 1.385 . S
C844 C843 1.374 . S
C845 C842 1.499 . S
C845 C846 1.373 . S
C845 C847 1.389 . S
C846 H819 0.950 . S
C846 C832 1.377 . S
C846 C845 1.373 . S
C847 C831 1.377 . S
C847 C845 1.389 . S
C847 C848 1.524 . S
C848 C847 1.524 . S
C848 C849 1.397 . S
C848 C853 1.363 . S
C849 H820 0.950 . S
C849 C848 1.397 . S
C849 C850 1.334 . S
C850 H821 0.950 . S
C850 C849 1.334 . S
C850 C851 1.287 . S
C851 C850 1.287 . S
C851 C852 1.524 . S
C851 H854 0.999 . S
C852 H822 0.950 . S
C852 C851 1.524 . S
C852 C853 1.415 . S
C853 H823 0.950 . S
C853 C848 1.363 . S
C853 C852 1.415 . S
H854 C851 0.999 . S
H855 C836 0.913 . S
H856 C874 0.951 . S
H857 C876 0.951 . S
H858 C878 0.950 . S
H859 C879 0.950 . S
H860 C881 0.950 . S
H861 C884 0.950 . S
H862 C885 0.950 . S
H863 C887 0.950 . S
H864 C888 0.950 . S
H865 C889 0.951 . S
H866 C891 0.951 . S
H867 C893 0.950 . S
H868 C894 0.950 . S
H869 C896 0.950 . S
H870 C899 0.950 . S
H871 C900 0.950 . S
H872 C902 0.950 . S
H873 C903 0.950 . S
C874 H856 0.951 . S
C874 C875 1.366 . S
C874 C876 1.388 . S
C875 C874 1.366 . S
C875 C879 1.385 . S
C876 H857 0.951 . S
C876 C874 1.388 . S
C876 C877 1.366 . S
C877 C876 1.366 . S
C877 C878 1.414 . S
C877 C880 1.499 . S
C878 H858 0.950 . S
C878 C877 1.414 . S
C878 C879 1.374 . S
C879 H859 0.950 . S
C879 C875 1.385 . S
C879 C878 1.374 . S
C880 C877 1.499 . S
C880 C881 1.373 . S
C880 C882 1.389 . S
C881 H860 0.950 . S
C881 C880 1.373 . S
C881 C897 1.377 . S
C882 C880 1.389 . S
C882 C883 1.524 . S
C882 C896 1.377 . S
C883 C882 1.524 . S
C883 C884 1.397 . S
C883 C888 1.363 . S
C884 H861 0.950 . S
C884 C883 1.397 . S
C884 C885 1.334 . S
C885 H862 0.950 . S
C885 C884 1.334 . S
C885 C886 1.287 . S
C886 C885 1.287 . S
C886 C887 1.524 . S
C886 H905 0.913 . S
C887 H863 0.950 . S
C887 C886 1.524 . S
C887 C888 1.415 . S
C888 H864 0.950 . S
C888 C883 1.363 . S
C888 C887 1.415 . S
C889 H865 0.951 . S
C889 C890 1.366 . S
C889 C891 1.388 . S
C890 C889 1.366 . S
C890 C894 1.385 . S
C891 H866 0.951 . S
C891 C889 1.388 . S
C891 C892 1.366 . S
C892 C891 1.366 . S
C892 C893 1.414 . S
C892 C895 1.499 . S
C893 H867 0.950 . S
C893 C892 1.414 . S
C893 C894 1.374 . S
C894 H868 0.950 . S
C894 C890 1.385 . S
C894 C893 1.374 . S
C895 C892 1.499 . S
C895 C896 1.373 . S
C895 C897 1.389 . S
C896 H869 0.950 . S
C896 C882 1.377 . S
C896 C895 1.373 . S
C897 C881 1.377 . S
C897 C895 1.389 . S
C897 C898 1.524 . S
C898 C897 1.524 . S
C898 C899 1.397 . S
C898 C903 1.363 . S
C899 H870 0.950 . S
C899 C898 1.397 . S
C899 C900 1.334 . S
C900 H871 0.950 . S
C900 C899 1.334 . S
C900 C901 1.287 . S
C901 C900 1.287 . S
C901 C902 1.524 . S
C901 H904 0.999 . S
C902 H872 0.950 . S
C902 C901 1.524 . S
C902 C903 1.415 . S
C903 H873 0.950 . S
C903 C898 1.363 . S
C903 C902 1.415 . S
H904 C901 0.999 . S
H905 C886 0.913 . S
H906 C924 0.951 . S
H907 C926 0.951 . S
H908 C928 0.950 . S
H909 C929 0.950 . S
H910 C931 0.950 . S
H911 C934 0.950 . S
H912 C935 0.950 . S
H913 C937 0.950 . S
H914 C938 0.950 . S
H915 C939 0.951 . S
H916 C941 0.951 . S
H917 C943 0.950 . S
H918 C944 0.950 . S
H919 C946 0.950 . S
H920 C949 0.950 . S
H921 C950 0.950 . S
H922 C952 0.950 . S
H923 C953 0.950 . S
C924 H906 0.951 . S
C924 C925 1.366 . S
C924 C926 1.388 . S
C925 C924 1.366 . S
C925 C929 1.385 . S
C926 H907 0.951 . S
C926 C924 1.388 . S
C926 C927 1.366 . S
C927 C926 1.366 . S
C927 C928 1.414 . S
C927 C930 1.499 . S
C928 H908 0.950 . S
C928 C927 1.414 . S
C928 C929 1.374 . S
C929 H909 0.950 . S
C929 C925 1.385 . S
C929 C928 1.374 . S
C930 C927 1.499 . S
C930 C931 1.373 . S
C930 C932 1.389 . S
C931 H910 0.950 . S
C931 C930 1.373 . S
C931 C947 1.377 . S
C932 C930 1.389 . S
C932 C933 1.524 . S
C932 C946 1.377 . S
C933 C932 1.524 . S
C933 C934 1.397 . S
C933 C938 1.363 . S
C934 H911 0.950 . S
C934 C933 1.397 . S
C934 C935 1.334 . S
C935 H912 0.950 . S
C935 C934 1.334 . S
C935 C936 1.287 . S
C936 C935 1.287 . S
C936 C937 1.524 . S
C936 H955 0.913 . S
C937 H913 0.950 . S
C937 C936 1.524 . S
C937 C938 1.415 . S
C938 H914 0.950 . S
C938 C933 1.363 . S
C938 C937 1.415 . S
C939 H915 0.951 . S
C939 C940 1.366 . S
C939 C941 1.388 . S
C940 C939 1.366 . S
C940 C944 1.385 . S
C941 H916 0.951 . S
C941 C939 1.388 . S
C941 C942 1.366 . S
C942 C941 1.366 . S
C942 C943 1.414 . S
C942 C945 1.499 . S
C943 H917 0.950 . S
C943 C942 1.414 . S
C943 C944 1.374 . S
C944 H918 0.950 . S
C944 C940 1.385 . S
C944 C943 1.374 . S
C945 C942 1.499 . S
C945 C946 1.373 . S
C945 C947 1.389 . S
C946 H919 0.950 . S
C946 C932 1.377 . S
C946 C945 1.373 . S
C947 C931 1.377 . S
C947 C945 1.389 . S
C947 C948 1.524 . S
C948 C947 1.524 . S
C948 C949 1.397 . S
C948 C953 1.363 . S
C949 H920 0.950 . S
C949 C948 1.397 . S
C949 C950 1.334 . S
C950 H921 0.950 . S
C950 C949 1.334 . S
C950 C951 1.287 . S
C951 C950 1.287 . S
C951 C952 1.524 . S
C951 H954 0.999 . S
C952 H922 0.950 . S
C952 C951 1.524 . S
C952 C953 1.415 . S
C953 H923 0.950 . S
C953 C948 1.363 . S
C953 C952 1.415 . S
H954 C951 0.999 . S
H955 C936 0.913 . S
H956 C974 0.951 . S
H957 C976 0.951 . S
H958 C978 0.950 . S
H959 C979 0.950 . S
H960 C981 0.950 . S
H961 C984 0.950 . S
H962 C985 0.950 . S
H963 C987 0.950 . S
H964 C988 0.950 . S
H965 C989 0.951 . S
H966 C991 0.951 . S
H967 C993 0.950 . S
H968 C994 0.950 . S
H969 C996 0.950 . S
H970 C999 0.950 . S
H971 C1000 0.950 . S
H972 C1002 0.950 . S
H973 C1003 0.950 . S
C974 H956 0.951 . S
C974 C975 1.366 . S
C974 C976 1.388 . S
C975 C974 1.366 . S
C975 C979 1.385 . S
C976 H957 0.951 . S
C976 C974 1.388 . S
C976 C977 1.366 . S
C977 C976 1.366 . S
C977 C978 1.414 . S
C977 C980 1.499 . S
C978 H958 0.950 . S
C978 C977 1.414 . S
C978 C979 1.374 . S
C979 H959 0.950 . S
C979 C975 1.385 . S
C979 C978 1.374 . S
C980 C977 1.499 . S
C980 C981 1.373 . S
C980 C982 1.389 . S
C981 H960 0.950 . S
C981 C980 1.373 . S
C981 C997 1.377 . S
C982 C980 1.389 . S
C982 C983 1.524 . S
C982 C996 1.377 . S
C983 C982 1.524 . S
C983 C984 1.397 . S
C983 C988 1.363 . S
C984 H961 0.950 . S
C984 C983 1.397 . S
C984 C985 1.334 . S
C985 H962 0.950 . S
C985 C984 1.334 . S
C985 C986 1.287 . S
C986 C985 1.287 . S
C986 C987 1.524 . S
C986 H1005 0.913 . S
C987 H963 0.950 . S
C987 C986 1.524 . S
C987 C988 1.415 . S
C988 H964 0.950 . S
C988 C983 1.363 . S
C988 C987 1.415 . S
C989 H965 0.951 . S
C989 C990 1.366 . S
C989 C991 1.388 . S
C990 C989 1.366 . S
C990 C994 1.385 . S
C991 H966 0.951 . S
C991 C989 1.388 . S
C991 C992 1.366 . S
C992 C991 1.366 . S
C992 C993 1.414 . S
C992 C995 1.499 . S
C993 H967 0.950 . S
C993 C992 1.414 . S
C993 C994 1.374 . S
C994 H968 0.950 . S
C994 C990 1.385 . S
C994 C993 1.374 . S
C995 C992 1.499 . S
C995 C996 1.373 . S
C995 C997 1.389 . S
C996 H969 0.950 . S
C996 C982 1.377 . S
C996 C995 1.373 . S
C997 C981 1.377 . S
C997 C995 1.389 . S
C997 C998 1.524 . S
C998 C997 1.524 . S
C998 C999 1.397 . S
C998 C1003 1.363 . S
C999 H970 0.950 . S
C999 C998 1.397 . S
C999 C1000 1.334 . S
C1000 H971 0.950 . S
C1000 C999 1.334 . S
C1000 C1001 1.287 . S
C1001 C1000 1.287 . S
C1001 C1002 1.524 . S
C1001 H1004 0.999 . S
C1002 H972 0.950 . S
C1002 C1001 1.524 . S
C1002 C1003 1.415 . S
C1003 H973 0.950 . S
C1003 C998 1.363 . S
C1003 C1002 1.415 . S
H1004 C1001 0.999 . S
H1005 C986 0.913 . S
H1006 C1024 0.951 . S
H1007 C1026 0.951 . S
H1008 C1028 0.950 . S
H1009 C1029 0.950 . S
H1010 C1031 0.950 . S
H1011 C1034 0.950 . S
H1012 C1035 0.950 . S
H1013 C1037 0.950 . S
H1014 C1038 0.950 . S
H1015 C1039 0.951 . S
H1016 C1041 0.951 . S
H1017 C1043 0.950 . S
H1018 C1044 0.950 . S
H1019 C1046 0.950 . S
H1020 C1049 0.950 . S
H1021 C1050 0.950 . S
H1022 C1052 0.950 . S
H1023 C1053 0.950 . S
C1024 H1006 0.951 . S
C1024 C1025 1.366 . S
C1024 C1026 1.388 . S
C1025 C1024 1.366 . S
C1025 C1029 1.385 . S
C1026 H1007 0.951 . S
C1026 C1024 1.388 . S
C1026 C1027 1.366 . S
C1027 C1026 1.366 . S
C1027 C1028 1.414 . S
C1027 C1030 1.499 . S
C1028 H1008 0.950 . S
C1028 C1027 1.414 . S
C1028 C1029 1.374 . S
C1029 H1009 0.950 . S
C1029 C1025 1.385 . S
C1029 C1028 1.374 . S
C1030 C1027 1.499 . S
C1030 C1031 1.373 . S
C1030 C1032 1.389 . S
C1031 H1010 0.950 . S
C1031 C1030 1.373 . S
C1031 C1047 1.377 . S
C1032 C1030 1.389 . S
C1032 C1033 1.524 . S
C1032 C1046 1.377 . S
C1033 C1032 1.524 . S
C1033 C1034 1.397 . S
C1033 C1038 1.363 . S
C1034 H1011 0.950 . S
C1034 C1033 1.397 . S
C1034 C1035 1.334 . S
C1035 H1012 0.950 . S
C1035 C1034 1.334 . S
C1035 C1036 1.287 . S
C1036 C1035 1.287 . S
C1036 C1037 1.524 . S
C1036 H1055 0.913 . S
C1037 H1013 0.950 . S
C1037 C1036 1.524 . S
C1037 C1038 1.415 . S
C1038 H1014 0.950 . S
C1038 C1033 1.363 . S
C1038 C1037 1.415 . S
C1039 H1015 0.951 . S
C1039 C1040 1.366 . S
C1039 C1041 1.388 . S
C1040 C1039 1.366 . S
C1040 C1044 1.385 . S
C1041 H1016 0.951 . S
C1041 C1039 1.388 . S
C1041 C1042 1.366 . S
C1042 C1041 1.366 . S
C1042 C1043 1.414 . S
C1042 C1045 1.499 . S
C1043 H1017 0.950 . S
C1043 C1042 1.414 . S
C1043 C1044 1.374 . S
C1044 H1018 0.950 . S
C1044 C1040 1.385 . S
C1044 C1043 1.374 . S
C1045 C1042 1.499 . S
C1045 C1046 1.373 . S
C1045 C1047 1.389 . S
C1046 H1019 0.950 . S
C1046 C1032 1.377 . S
C1046 C1045 1.373 . S
C1047 C1031 1.377 . S
C1047 C1045 1.389 . S
C1047 C1048 1.524 . S
C1048 C1047 1.524 . S
C1048 C1049 1.397 . S
C1048 C1053 1.363 . S
C1049 H1020 0.950 . S
C1049 C1048 1.397 . S
C1049 C1050 1.334 . S
C1050 H1021 0.950 . S
C1050 C1049 1.334 . S
C1050 C1051 1.287 . S
C1051 C1050 1.287 . S
C1051 C1052 1.524 . S
C1051 H1054 0.999 . S
C1052 H1022 0.950 . S
C1052 C1051 1.524 . S
C1052 C1053 1.415 . S
C1053 H1023 0.950 . S
C1053 C1048 1.363 . S
C1053 C1052 1.415 . S
H1054 C1051 0.999 . S
H1055 C1036 0.913 . S
H1056 C1074 0.951 . S
H1057 C1076 0.951 . S
H1058 C1078 0.950 . S
H1059 C1079 0.950 . S
H1060 C1081 0.950 . S
H1061 C1084 0.950 . S
H1062 C1085 0.950 . S
H1063 C1087 0.950 . S
H1064 C1088 0.950 . S
H1065 C1089 0.951 . S
H1066 C1091 0.951 . S
H1067 C1093 0.950 . S
H1068 C1094 0.950 . S
H1069 C1096 0.950 . S
H1070 C1099 0.950 . S
H1071 C1100 0.950 . S
H1072 C1102 0.950 . S
H1073 C1103 0.957 . S
C1074 H1056 0.951 . S
C1074 C1075 1.366 . S
C1074 C1076 1.388 . S
C1075 C1074 1.366 . S
C1075 C1079 1.385 . S
C1076 H1057 0.951 . S
C1076 C1074 1.388 . S
C1076 C1077 1.366 . S
C1077 C1076 1.366 . S
C1077 C1078 1.414 . S
C1077 C1080 1.499 . S
C1078 H1058 0.950 . S
C1078 C1077 1.414 . S
C1078 C1079 1.374 . S
C1079 H1059 0.950 . S
C1079 C1075 1.385 . S
C1079 C1078 1.374 . S
C1080 C1077 1.499 . S
C1080 C1081 1.373 . S
C1080 C1082 1.389 . S
C1081 H1060 0.950 . S
C1081 C1080 1.373 . S
C1081 C1097 1.377 . S
C1082 C1080 1.389 . S
C1082 C1083 1.524 . S
C1082 C1096 1.377 . S
C1083 C1082 1.524 . S
C1083 C1084 1.397 . S
C1083 C1088 1.363 . S
C1084 H1061 0.950 . S
C1084 C1083 1.397 . S
C1084 C1085 1.334 . S
C1085 H1062 0.950 . S
C1085 C1084 1.334 . S
C1085 C1086 1.287 . S
C1086 C1085 1.287 . S
C1086 C1087 1.524 . S
C1086 H1105 0.913 . S
C1087 H1063 0.950 . S
C1087 C1086 1.524 . S
C1087 C1088 1.415 . S
C1088 H1064 0.950 . S
C1088 C1083 1.363 . S
C1088 C1087 1.415 . S
C1089 H1065 0.951 . S
C1089 C1090 1.366 . S
C1089 C1091 1.388 . S
C1090 C1089 1.366 . S
C1090 C1094 1.385 . S
C1091 H1066 0.951 . S
C1091 C1089 1.388 . S
C1091 C1092 1.366 . S
C1092 C1091 1.366 . S
C1092 C1093 1.414 . S
C1092 C1095 1.499 . S
C1093 H1067 0.950 . S
C1093 C1092 1.414 . S
C1093 C1094 1.374 . S
C1094 H1068 0.950 . S
C1094 C1090 1.385 . S
C1094 C1093 1.374 . S
C1095 C1092 1.499 . S
C1095 C1096 1.373 . S
C1095 C1097 1.389 . S
C1096 H1069 0.950 . S
C1096 C1082 1.377 . S
C1096 C1095 1.373 . S
C1097 C1081 1.377 . S
C1097 C1095 1.389 . S
C1097 C1098 1.524 . S
C1098 C1097 1.524 . S
C1098 C1099 1.397 . S
C1098 C1103 1.363 . S
C1099 H1070 0.950 . S
C1099 C1098 1.397 . S
C1099 C1100 1.334 . S
C1100 H1071 0.950 . S
C1100 C1099 1.334 . S
C1100 C1101 1.287 . S
C1101 C1100 1.287 . S
C1101 C1102 1.524 1_554 S
C1101 H1104 0.999 . S
C1102 H1072 0.950 . S
C1102 C1101 1.524 1_556 S
C1102 C1103 1.415 1_556 S
C1103 H1073 0.957 . S
C1103 C1098 1.363 . S
C1103 C1102 1.415 1_554 S
H1104 C1101 0.999 . S
H1105 C1086 0.913 . S
H1106 C1124 0.951 . S
H1107 C1126 0.951 . S
H1108 C1128 0.950 . S
H1109 C1129 0.950 . S
H1110 C1131 0.950 . S
H1111 C1134 0.950 1_655 S
H1112 C1135 0.950 . S
H1113 C1137 0.950 . S
H1114 C1138 0.950 . S
H1115 C1139 0.951 . S
H1116 C1141 0.951 . S
H1117 C1143 0.950 . S
H1118 C1144 0.950 . S
H1119 C1146 0.950 . S
H1120 C1149 0.950 1_455 S
H1121 C1150 0.950 . S
H1122 C1152 0.950 . S
H1123 C1153 0.950 . S
C1124 H1106 0.951 . S
C1124 C1125 1.366 . S
C1124 C1126 1.388 . S
C1125 C1124 1.366 . S
C1125 C1129 1.385 . S
C1126 H1107 0.951 . S
C1126 C1124 1.388 . S
C1126 C1127 1.366 . S
C1127 C1126 1.366 . S
C1127 C1128 1.414 . S
C1127 C1130 1.499 . S
C1128 H1108 0.950 . S
C1128 C1127 1.414 . S
C1128 C1129 1.374 . S
C1129 H1109 0.950 . S
C1129 C1125 1.385 . S
C1129 C1128 1.374 . S
C1130 C1127 1.499 . S
C1130 C1131 1.373 . S
C1130 C1132 1.389 1_655 S
C1131 H1110 0.950 . S
C1131 C1130 1.373 . S
C1131 C1147 1.377 . S
C1132 C1130 1.389 1_455 S
C1132 C1133 1.524 . S
C1132 C1146 1.377 . S
C1133 C1132 1.524 . S
C1133 C1134 1.397 . S
C1133 C1138 1.363 . S
C1134 H1111 0.950 1_455 S
C1134 C1133 1.397 . S
C1134 C1135 1.334 . S
C1135 H1112 0.950 . S
C1135 C1134 1.334 . S
C1135 C1136 1.287 . S
C1136 C1135 1.287 . S
C1136 C1137 1.524 . S
C1136 H1155 0.913 . S
C1137 H1113 0.950 . S
C1137 C1136 1.524 . S
C1137 C1138 1.415 . S
C1138 H1114 0.950 . S
C1138 C1133 1.363 . S
C1138 C1137 1.415 . S
C1139 H1115 0.951 . S
C1139 C1140 1.366 . S
C1139 C1141 1.388 . S
C1140 C1139 1.366 . S
C1140 C1144 1.385 . S
C1141 H1116 0.951 . S
C1141 C1139 1.388 . S
C1141 C1142 1.366 . S
C1142 C1141 1.366 . S
C1142 C1143 1.414 . S
C1142 C1145 1.499 . S
C1143 H1117 0.950 . S
C1143 C1142 1.414 . S
C1143 C1144 1.374 . S
C1144 H1118 0.950 . S
C1144 C1140 1.385 . S
C1144 C1143 1.374 . S
C1145 C1142 1.499 . S
C1145 C1146 1.373 . S
C1145 C1147 1.389 1_455 S
C1146 H1119 0.950 . S
C1146 C1132 1.377 . S
C1146 C1145 1.373 . S
C1147 C1131 1.377 . S
C1147 C1145 1.389 1_655 S
C1147 C1148 1.524 . S
C1148 C1147 1.524 . S
C1148 C1149 1.397 . S
C1148 C1153 1.363 . S
C1149 H1120 0.950 1_655 S
C1149 C1148 1.397 . S
C1149 C1150 1.334 . S
C1150 H1121 0.950 . S
C1150 C1149 1.334 . S
C1150 C1151 1.287 . S
C1151 C1150 1.287 . S
C1151 C1152 1.524 . S
C1151 H1154 0.999 . S
C1152 H1122 0.950 . S
C1152 C1151 1.524 . S
C1152 C1153 1.415 . S
C1153 H1123 0.950 . S
C1153 C1148 1.363 . S
C1153 C1152 1.415 . S
H1154 C1151 0.999 . S
H1155 C1136 0.913 . S
H1156 C1174 0.951 . S
H1157 C1176 0.951 . S
H1158 C1178 0.950 . S
H1159 C1179 0.950 . S
H1160 C1181 0.950 . S
H1161 C1184 0.950 . S
H1162 C1185 0.950 . S
H1163 C1187 0.950 1_545 S
H1164 C1188 0.950 . S
H1165 C1189 0.951 . S
H1166 C1191 0.951 . S
H1167 C1193 0.950 . S
H1168 C1194 0.950 . S
H1169 C1196 0.950 . S
H1170 C1199 0.950 . S
H1171 C1200 0.950 . S
H1172 C1202 0.950 1_565 S
H1173 C1203 0.950 . S
C1174 H1156 0.951 . S
C1174 C1175 1.366 . S
C1174 C1176 1.388 . S
C1175 C1174 1.366 . S
C1175 C1179 1.385 . S
C1176 H1157 0.951 . S
C1176 C1174 1.388 . S
C1176 C1177 1.366 . S
C1177 C1176 1.366 . S
C1177 C1178 1.414 . S
C1177 C1180 1.499 . S
C1178 H1158 0.950 . S
C1178 C1177 1.414 . S
C1178 C1179 1.374 . S
C1179 H1159 0.950 . S
C1179 C1175 1.385 . S
C1179 C1178 1.374 . S
C1180 C1177 1.499 . S
C1180 C1181 1.373 . S
C1180 C1182 1.384 1_545 S
C1181 H1160 0.950 . S
C1181 C1180 1.373 . S
C1181 C1197 1.375 . S
C1182 C1180 1.384 1_565 S
C1182 C1183 1.535 . S
C1182 C1196 1.375 . S
C1183 C1182 1.535 . S
C1183 C1184 1.397 . S
C1183 C1188 1.363 1_565 S
C1184 H1161 0.950 . S
C1184 C1183 1.397 . S
C1184 C1185 1.334 . S
C1185 H1162 0.950 . S
C1185 C1184 1.334 . S
C1185 C1186 1.287 . S
C1186 C1185 1.287 . S
C1186 C1187 1.524 . S
C1186 H1205 0.913 . S
C1187 H1163 0.950 1_565 S
C1187 C1186 1.524 . S
C1187 C1188 1.415 1_565 S
C1188 H1164 0.950 . S
C1188 C1183 1.363 1_545 S
C1188 C1187 1.415 1_545 S
C1189 H1165 0.951 . S
C1189 C1190 1.366 . S
C1189 C1191 1.388 . S
C1190 C1189 1.366 . S
C1190 C1194 1.385 . S
C1191 H1166 0.951 . S
C1191 C1189 1.388 . S
C1191 C1192 1.366 . S
C1192 C1191 1.366 . S
C1192 C1193 1.414 . S
C1192 C1195 1.499 . S
C1193 H1167 0.950 . S
C1193 C1192 1.414 . S
C1193 C1194 1.374 . S
C1194 H1168 0.950 . S
C1194 C1190 1.385 . S
C1194 C1193 1.374 . S
C1195 C1192 1.499 . S
C1195 C1196 1.373 . S
C1195 C1197 1.384 1_565 S
C1196 H1169 0.950 . S
C1196 C1182 1.375 . S
C1196 C1195 1.373 . S
C1197 C1181 1.375 . S
C1197 C1195 1.384 1_545 S
C1197 C1198 1.535 . S
C1198 C1197 1.535 . S
C1198 C1199 1.397 . S
C1198 C1203 1.363 1_545 S
C1199 H1170 0.950 . S
C1199 C1198 1.397 . S
C1199 C1200 1.334 . S
C1200 H1171 0.950 . S
C1200 C1199 1.334 . S
C1200 C1201 1.287 . S
C1201 C1200 1.287 . S
C1201 C1202 1.524 . S
C1201 H1204 0.999 . S
C1202 H1172 0.950 1_545 S
C1202 C1201 1.524 . S
C1202 C1203 1.415 1_545 S
C1203 H1173 0.950 . S
C1203 C1198 1.363 1_565 S
C1203 C1202 1.415 1_565 S
H1204 C1201 0.999 . S
H1205 C1186 0.913 . S
H1206 C1224 0.951 . S
H1207 C1226 0.951 . S
H1208 C1228 0.950 . S
H1209 C1229 0.950 . S
H1210 C1231 0.950 . S
H1211 C1234 0.950 . S
H1212 C1235 0.950 . S
H1213 C1237 0.950 . S
H1214 C1238 0.950 . S
H1215 C1239 0.951 . S
H1216 C1241 0.951 . S
H1217 C1243 0.950 . S
H1218 C1244 0.950 . S
H1219 C1246 0.950 . S
H1220 C1249 0.950 . S
H1221 C1250 0.950 . S
H1222 C1252 0.950 . S
H1223 C1253 0.950 . S
C1224 H1206 0.951 . S
C1224 C1225 1.366 . S
C1224 C1226 1.388 . S
C1225 C1224 1.366 . S
C1225 C1229 1.385 . S
C1226 H1207 0.951 . S
C1226 C1224 1.388 . S
C1226 C1227 1.366 . S
C1227 C1226 1.366 . S
C1227 C1228 1.414 . S
C1227 C1230 1.499 . S
C1228 H1208 0.950 . S
C1228 C1227 1.414 . S
C1228 C1229 1.374 . S
C1229 H1209 0.950 . S
C1229 C1225 1.385 . S
C1229 C1228 1.374 . S
C1230 C1227 1.499 . S
C1230 C1231 1.373 . S
C1230 C1232 1.389 . S
C1231 H1210 0.950 . S
C1231 C1230 1.373 . S
C1231 C1247 1.377 . S
C1232 C1230 1.389 . S
C1232 C1233 1.524 . S
C1232 C1246 1.377 . S
C1233 C1232 1.524 . S
C1233 C1234 1.397 . S
C1233 C1238 1.363 . S
C1234 H1211 0.950 . S
C1234 C1233 1.397 . S
C1234 C1235 1.334 . S
C1235 H1212 0.950 . S
C1235 C1234 1.334 . S
C1235 C1236 1.287 . S
C1236 C1235 1.287 . S
C1236 C1237 1.524 . S
C1236 H1255 0.913 . S
C1237 H1213 0.950 . S
C1237 C1236 1.524 . S
C1237 C1238 1.415 . S
C1238 H1214 0.950 . S
C1238 C1233 1.363 . S
C1238 C1237 1.415 . S
C1239 H1215 0.951 . S
C1239 C1240 1.366 . S
C1239 C1241 1.388 . S
C1240 C1239 1.366 . S
C1240 C1244 1.385 . S
C1241 H1216 0.951 . S
C1241 C1239 1.388 . S
C1241 C1242 1.366 . S
C1242 C1241 1.366 . S
C1242 C1243 1.414 . S
C1242 C1245 1.499 . S
C1243 H1217 0.950 . S
C1243 C1242 1.414 . S
C1243 C1244 1.374 . S
C1244 H1218 0.950 . S
C1244 C1240 1.385 . S
C1244 C1243 1.374 . S
C1245 C1242 1.499 . S
C1245 C1246 1.373 . S
C1245 C1247 1.389 . S
C1246 H1219 0.950 . S
C1246 C1232 1.377 . S
C1246 C1245 1.373 . S
C1247 C1231 1.377 . S
C1247 C1245 1.389 . S
C1247 C1248 1.524 . S
C1248 C1247 1.524 . S
C1248 C1249 1.397 . S
C1248 C1253 1.363 . S
C1249 H1220 0.950 . S
C1249 C1248 1.397 . S
C1249 C1250 1.334 . S
C1250 H1221 0.950 . S
C1250 C1249 1.334 . S
C1250 C1251 1.287 . S
C1251 C1250 1.287 . S
C1251 C1252 1.524 . S
C1251 H1254 0.999 . S
C1252 H1222 0.950 . S
C1252 C1251 1.524 . S
C1252 C1253 1.415 . S
C1253 H1223 0.950 . S
C1253 C1248 1.363 . S
C1253 C1252 1.415 . S
H1254 C1251 0.999 . S
H1255 C1236 0.913 . S
H1256 C1274 0.951 . S
H1257 C1276 0.951 . S
H1258 C1278 0.950 . S
H1259 C1279 0.950 . S
H1260 C1281 0.950 . S
H1261 C1284 0.950 . S
H1262 C1285 0.950 . S
H1263 C1287 0.950 . S
H1264 C1288 0.950 . S
H1265 C1289 0.951 . S
H1266 C1291 0.951 . S
H1267 C1293 0.950 . S
H1268 C1294 0.950 . S
H1269 C1296 0.950 . S
H1270 C1299 0.950 . S
H1271 C1300 0.950 . S
H1272 C1302 0.950 . S
H1273 C1303 0.950 1_554 S
C1274 H1256 0.951 . S
C1274 C1275 1.366 . S
C1274 C1276 1.388 . S
C1275 C1274 1.366 . S
C1275 C1279 1.385 . S
C1276 H1257 0.951 . S
C1276 C1274 1.388 . S
C1276 C1277 1.366 . S
C1277 C1276 1.366 . S
C1277 C1278 1.414 . S
C1277 C1280 1.499 . S
C1278 H1258 0.950 . S
C1278 C1277 1.414 . S
C1278 C1279 1.374 . S
C1279 H1259 0.950 . S
C1279 C1275 1.385 . S
C1279 C1278 1.374 . S
C1280 C1277 1.499 . S
C1280 C1281 1.373 . S
C1280 C1282 1.389 1_455 S
C1281 H1260 0.950 . S
C1281 C1280 1.373 . S
C1281 C1297 1.377 . S
C1282 C1280 1.389 1_655 S
C1282 C1283 1.524 . S
C1282 C1296 1.377 . S
C1283 C1282 1.524 . S
C1283 C1284 1.397 . S
C1283 C1288 1.363 . S
C1284 H1261 0.950 . S
C1284 C1283 1.397 . S
C1284 C1285 1.334 . S
C1285 H1262 0.950 . S
C1285 C1284 1.334 . S
C1285 C1286 1.287 . S
C1286 C1285 1.287 . S
C1286 C1287 1.524 . S
C1286 H1305 0.913 . S
C1287 H1263 0.950 . S
C1287 C1286 1.524 . S
C1287 C1288 1.415 . S
C1288 H1264 0.950 . S
C1288 C1283 1.363 . S
C1288 C1287 1.415 . S
C1289 H1265 0.951 . S
C1289 C1290 1.366 . S
C1289 C1291 1.388 . S
C1290 C1289 1.366 . S
C1290 C1294 1.385 . S
C1291 H1266 0.951 . S
C1291 C1289 1.388 . S
C1291 C1292 1.366 . S
C1292 C1291 1.366 . S
C1292 C1293 1.414 . S
C1292 C1295 1.499 . S
C1293 H1267 0.950 . S
C1293 C1292 1.414 . S
C1293 C1294 1.374 . S
C1294 H1268 0.950 . S
C1294 C1290 1.385 . S
C1294 C1293 1.374 . S
C1295 C1292 1.499 . S
C1295 C1296 1.373 . S
C1295 C1297 1.389 1_655 S
C1296 H1269 0.950 . S
C1296 C1282 1.377 . S
C1296 C1295 1.373 . S
C1297 C1281 1.377 . S
C1297 C1295 1.389 1_455 S
C1297 C1298 1.524 . S
C1298 C1297 1.524 . S
C1298 C1299 1.397 . S
C1298 C1303 1.363 . S
C1299 H1270 0.950 . S
C1299 C1298 1.397 . S
C1299 C1300 1.334 . S
C1300 H1271 0.950 . S
C1300 C1299 1.334 . S
C1300 C1301 1.287 . S
C1301 C1300 1.287 . S
C1301 C1302 1.524 1_556 S
C1301 H1304 1.021 . S
C1302 H1272 0.950 . S
C1302 C1301 1.524 1_554 S
C1302 C1303 1.415 1_554 S
C1303 H1273 0.950 1_556 S
C1303 C1298 1.363 . S
C1303 C1302 1.415 1_556 S
H1304 C1301 1.021 . S
H1305 C1286 0.913 . S
H1306 C1324 0.951 . S
H1307 C1326 0.951 . S
H1308 C1328 0.950 1_545 S
H1309 C1329 0.950 . S
H1310 C1331 0.950 . S
H1311 C1334 0.950 . S
H1312 C1335 0.950 . S
H1313 C1337 0.950 . S
H1314 C1338 0.950 . S
H1315 C1339 0.951 . S
H1316 C1341 0.951 . S
H1317 C1343 0.950 1_565 S
H1318 C1344 0.950 . S
H1319 C1346 0.950 . S
H1320 C1349 0.950 . S
H1321 C1350 0.950 . S
H1322 C1352 0.950 . S
H1323 C1353 0.950 . S
C1324 H1306 0.951 . S
C1324 C1325 1.366 . S
C1324 C1326 1.388 . S
C1325 C1324 1.366 . S
C1325 C1329 1.385 . S
C1326 H1307 0.951 . S
C1326 C1324 1.388 . S
C1326 C1327 1.366 . S
C1327 C1326 1.366 . S
C1327 C1328 1.414 . S
C1327 C1330 1.499 . S
C1328 H1308 0.950 1_565 S
C1328 C1327 1.414 . S
C1328 C1329 1.374 . S
C1329 H1309 0.950 . S
C1329 C1325 1.385 . S
C1329 C1328 1.374 . S
C1330 C1327 1.499 . S
C1330 C1331 1.373 1_565 S
C1330 C1332 1.389 . S
C1331 H1310 0.950 . S
C1331 C1330 1.373 1_545 S
C1331 C1347 1.377 . S
C1332 C1330 1.389 . S
C1332 C1333 1.524 . S
C1332 C1346 1.377 . S
C1333 C1332 1.524 . S
C1333 C1334 1.397 . S
C1333 C1338 1.363 . S
C1334 H1311 0.950 . S
C1334 C1333 1.397 . S
C1334 C1335 1.334 . S
C1335 H1312 0.950 . S
C1335 C1334 1.334 . S
C1335 C1336 1.287 . S
C1336 C1335 1.287 . S
C1336 C1337 1.524 . S
C1336 H1355 0.913 . S
C1337 H1313 0.950 . S
C1337 C1336 1.524 . S
C1337 C1338 1.415 . S
C1338 H1314 0.950 . S
C1338 C1333 1.363 . S
C1338 C1337 1.415 . S
C1339 H1315 0.951 . S
C1339 C1340 1.366 . S
C1339 C1341 1.388 . S
C1340 C1339 1.366 . S
C1340 C1344 1.385 . S
C1341 H1316 0.951 . S
C1341 C1339 1.388 . S
C1341 C1342 1.366 . S
C1342 C1341 1.366 . S
C1342 C1343 1.414 . S
C1342 C1345 1.499 . S
C1343 H1317 0.950 1_545 S
C1343 C1342 1.414 . S
C1343 C1344 1.374 . S
C1344 H1318 0.950 . S
C1344 C1340 1.385 . S
C1344 C1343 1.374 . S
C1345 C1342 1.499 . S
C1345 C1346 1.373 1_545 S
C1345 C1347 1.389 . S
C1346 H1319 0.950 . S
C1346 C1332 1.377 . S
C1346 C1345 1.373 1_565 S
C1347 C1331 1.377 . S
C1347 C1345 1.389 . S
C1347 C1348 1.524 . S
C1348 C1347 1.524 . S
C1348 C1349 1.397 . S
C1348 C1353 1.363 . S
C1349 H1320 0.950 . S
C1349 C1348 1.397 . S
C1349 C1350 1.334 . S
C1350 H1321 0.950 . S
C1350 C1349 1.334 . S
C1350 C1351 1.287 . S
C1351 C1350 1.287 . S
C1351 C1352 1.524 . S
C1351 H1354 0.999 . S
C1352 H1322 0.950 . S
C1352 C1351 1.524 . S
C1352 C1353 1.415 . S
C1353 H1323 0.950 . S
C1353 C1348 1.363 . S
C1353 C1352 1.415 . S
H1354 C1351 0.999 . S
H1355 C1336 0.913 . S
C175 C96 1.015 . S
C190 C5 1.013 . S
C225 C18 1.161 . S
C240 C104 1.183 . S
C275 C26 1.181 . S
C290 C122 1.161 . S
C325 C44 1.015 . S
C340 C135 1.013 . S
C375 C143 1.183 . S
C390 C57 1.162 . S
C425 C83 1.161 . S
C440 C65 1.182 . S
C475 C140 0.993 . S
C490 C10 0.993 . S
C525 C23 1.075 . S
C540 C151 1.070 . S
C575 C34 1.071 . S
C590 C88 1.076 . S
C625 C101 0.993 . S
C640 C49 0.993 . S
C675 C112 1.071 . S
C690 C62 1.076 . S
C725 C127 1.076 . S
C740 C73 1.071 . S
C775 C8 1.597 . S
C790 C114 1.601 . S
C825 C21 1.581 . S
C840 C125 1.581 . S
C875 C138 1.598 . S
C890 C36 1.601 . S
C925 C47 1.598 . S
C940 C153 1.601 . S
C975 C86 1.581 . S
C990 C60 1.581 . S
C1025 C99 1.597 . S
C1040 C75 1.601 . S
C1075 C39 1.152 . S
C1090 C0 1.152 . S
C1125 C52 1.149 . S
C1140 C13 1.149 . S
C1175 C31 1.266 . S
C1190 C70 1.265 . S
C1225 C78 1.149 . S
C1240 C117 1.149 . S
C1275 C91 1.152 . S
C1290 C130 1.152 . S
C1325 C148 1.267 . S
C1340 C109 1.266 . S
