# Generated by pormake.
# Topology dia, (4)-cn, num edge types: 1
# Building blocks:
#     Node 0, Type 0, BuildingBlock: KUFVIS_clean_sbu_0, # of connection points: 4
#     Node 1, Type 0, BuildingBlock: KUFVIS_clean_sbu_0, # of connection points: 4
#     Node 2, Type 0, BuildingBlock: KUFVIS_clean_sbu_0, # of connection points: 4
#     Node 3, Type 0, BuildingBlock: KUFVIS_clean_sbu_0, # of connection points: 4
#     Node 4, Type 0, BuildingBlock: KUFVIS_clean_sbu_0, # of connection points: 4
#     Node 5, Type 0, BuildingBlock: KUFVIS_clean_sbu_0, # of connection points: 4
#     Node 6, Type 0, BuildingBlock: KUFVIS_clean_sbu_0, # of connection points: 4
#     Node 7, Type 0, BuildingBlock: KUFVIS_clean_sbu_0, # of connection points: 4
#     Edge 8, Type (0, 0), BuildingBlock: KIFKEQ_clean_linker_1, # of connection points: 2
#     Edge 9, Type (0, 0), BuildingBlock: KIFKEQ_clean_linker_1, # of connection points: 2
#     Edge 10, Type (0, 0), BuildingBlock: KIFKEQ_clean_linker_1, # of connection points: 2
#     Edge 11, Type (0, 0), BuildingBlock: KIFKEQ_clean_linker_1, # of connection points: 2
#     Edge 12, Type (0, 0), BuildingBlock: KIFKEQ_clean_linker_1, # of connection points: 2
#     Edge 13, Type (0, 0), BuildingBlock: KIFKEQ_clean_linker_1, # of connection points: 2
#     Edge 14, Type (0, 0), BuildingBlock: KIFKEQ_clean_linker_1, # of connection points: 2
#     Edge 15, Type (0, 0), BuildingBlock: KIFKEQ_clean_linker_1, # of connection points: 2
#     Edge 16, Type (0, 0), BuildingBlock: KIFKEQ_clean_linker_1, # of connection points: 2
#     Edge 17, Type (0, 0), BuildingBlock: KIFKEQ_clean_linker_1, # of connection points: 2
#     Edge 18, Type (0, 0), BuildingBlock: KIFKEQ_clean_linker_1, # of connection points: 2
#     Edge 19, Type (0, 0), BuildingBlock: KIFKEQ_clean_linker_1, # of connection points: 2
#     Edge 20, Type (0, 0), BuildingBlock: KIFKEQ_clean_linker_1, # of connection points: 2
#     Edge 21, Type (0, 0), BuildingBlock: KIFKEQ_clean_linker_1, # of connection points: 2
#     Edge 22, Type (0, 0), BuildingBlock: KIFKEQ_clean_linker_1, # of connection points: 2
#     Edge 23, Type (0, 0), BuildingBlock: KIFKEQ_clean_linker_1, # of connection points: 2
# Relax obj value: 0.070
# Max RMSD: 0.124
# Mean RMSD: 0.124
data_MOF--net-dia--node1-KUFVIS_clean_sbu_0--edge1-KIFKEQ_clean_linker_1
_symmetry_space_group_name_H-M    P1
_symmetry_Int_Tables_number       1
_symmetry_cell_setting            triclinic
loop_
_symmetry_equiv_pos_as_xyz
'x, y, z'
_cell_length_a     37.989964
_cell_length_b     33.113315
_cell_length_c     33.111289
_cell_angle_alpha  91.175779
_cell_angle_beta   91.839999
_cell_angle_gamma 91.852303
loop_
_atom_site_label
_atom_site_type_symbol
_atom_site_fract_x
_atom_site_fract_y
_atom_site_fract_z
_atom_type_partial_charge
Mn0 Mn 0.13883 0.14496 0.63154 0.0
Mn1 Mn 0.17051 0.06657 0.5781 0.0
C2 C 0.10714 0.1167 0.57637 0.0
C3 C 0.10614 0.17226 0.68385 0.0
C4 C 0.19658 0.15282 0.56845 0.0
O5 O 0.17616 0.12346 0.67073 0.0
O6 O 0.1956 0.07296 0.63137 0.0
C7 C 0.14498 1.00162 0.63109 0.0
N8 N 0.14629 0.01819 0.59383 0.0
C9 C 0.11043 0.96344 0.56414 0.0
C10 C 0.10882 0.9457 0.60215 0.0
C11 C 0.12606 0.96497 0.63579 0.0
C12 C 0.12938 1.00019 0.56138 0.0
H13 H 0.15824 0.01627 0.65702 0.0
C14 C 0.19642 0.09409 0.66423 0.0
O15 O 0.13131 0.19289 0.66741 0.0
O16 O 0.10077 0.13522 0.67094 0.0
N17 N 0.1487 0.05616 0.52584 0.0
C18 C 0.15267 0.07734 0.49132 0.0
C19 C 0.13712 0.06208 0.45484 0.0
C20 C 0.1181 0.02498 0.45411 0.0
C21 C 0.11493 1.00337 0.48985 0.0
C22 C 0.13107 0.02002 0.52527 0.0
H23 H 0.1675 0.10571 0.49161 0.0
O24 O 0.10166 0.15347 0.58832 0.0
O25 O 0.13093 0.09778 0.5968 0.0
O26 O 0.17732 0.16796 0.59544 0.0
O27 O 0.19603 0.11518 0.5592 0.0
C28 C 0.09633 0.966 0.49174 0.0
C29 C 0.09386 0.94619 0.52891 0.0
H30 H 0.09436 0.91736 0.60587 0.0
H31 H 0.12485 0.95153 0.66526 0.0
H32 H 0.13981 0.07888 0.42736 0.0
H33 H 0.10599 0.0134 0.42596 0.0
H34 H 0.08349 0.95243 0.46486 0.0
H35 H 0.07908 0.91773 0.53007 0.0
Mn36 Mn 0.90799 0.38587 0.87652 0.0
Mn37 Mn 0.87947 0.44214 0.95472 0.0
C38 C 0.94078 0.44202 0.90167 0.0
C39 C 0.93992 0.33281 0.84947 0.0
C40 C 0.84943 0.44759 0.86922 0.0
O41 O 0.87126 0.34757 0.90127 0.0
O42 O 0.85628 0.38777 0.95331 0.0
C43 C 0.91012 0.39443 0.0211 0.0
N44 N 0.90651 0.43044 1.00249 0.0
C45 C 0.94262 0.46516 0.05407 0.0
C46 C 0.94646 0.42853 0.07399 0.0
C47 C 0.93032 0.39297 0.05728 0.0
C48 C 0.92255 0.46466 0.01785 0.0
H49 H 0.89771 0.36704 1.00842 0.0
C50 C 0.85416 0.35421 0.93333 0.0
O51 O 0.91396 0.34838 0.82944 0.0
O52 O 0.94637 0.34681 0.88596 0.0
N53 N 0.9002 0.4955 0.96039 0.0
C54 C 0.89479 0.52815 0.93684 0.0
C55 C 0.90967 0.56603 0.94898 0.0
C56 C 0.9295 0.57008 0.98546 0.0
C57 C 0.93431 0.53618 0.00946 0.0
C58 C 0.91891 0.4992 0.99578 0.0
H59 H 0.87931 0.52534 0.90897 0.0
O60 O 0.94505 0.42873 0.86507 0.0
O61 O 0.91757 0.42239 0.92205 0.0
O62 O 0.86899 0.42114 0.85379 0.0
O63 O 0.85076 0.45734 0.90677 0.0
C64 C 0.95384 0.53762 0.04638 0.0
C65 C 0.95808 0.50211 0.0686 0.0
H66 H 0.9619 0.42731 0.10199 0.0
H67 H 0.93333 0.36453 0.07234 0.0
H68 H 0.90578 0.59206 0.93031 0.0
H69 H 0.941 0.59932 0.99468 0.0
H70 H 0.96609 0.56578 0.05771 0.0
H71 H 0.97358 0.50349 0.09667 0.0
Mn72 Mn 0.63759 0.14168 0.13125 0.0
Mn73 Mn 0.66716 0.06416 0.0748 0.0
C74 C 0.60494 0.11605 0.07534 0.0
C75 C 0.6059 0.16827 0.18473 0.0
C76 C 0.69546 0.15024 0.06883 0.0
O77 O 0.67509 0.11782 0.16919 0.0
O78 O 0.69061 0.0661 0.12897 0.0
C79 C 0.63792 0.99715 0.12274 0.0
N80 N 0.6409 0.0159 0.08672 0.0
C81 C 0.60515 0.96377 0.05234 0.0
C82 C 0.60189 0.94376 0.089 0.0
C83 C 0.61819 0.96066 0.1244 0.0
C84 C 0.62477 1.00031 0.05265 0.0
H85 H 0.65051 0.00992 0.14999 0.0
C86 C 0.69269 0.08617 0.16247 0.0
O87 O 0.6314 0.18868 0.1687 0.0
O88 O 0.59974 0.13165 0.1709 0.0
N89 N 0.6463 0.05803 0.02154 0.0
C90 C 0.65151 0.08144 0.98874 0.0
C91 C 0.63662 0.06898 0.95096 0.0
C92 C 0.61706 0.0323 0.94715 0.0
C93 C 0.61258 1.00838 0.98117 0.0
C94 C 0.62795 0.02239 0.01804 0.0
H95 H 0.66692 0.1094 0.99134 0.0
O96 O 0.60006 0.15244 0.08885 0.0
O97 O 0.62853 0.09601 0.09479 0.0
O98 O 0.67567 0.16513 0.09532 0.0
O99 O 0.69514 0.11263 0.05942 0.0
C100 C 0.59344 0.9712 0.97993 0.0
C101 C 0.58961 0.94899 0.01553 0.0
H102 H 0.58683 0.91551 0.09036 0.0
H103 H 0.61567 0.94548 0.15285 0.0
H104 H 0.64033 0.08754 0.92482 0.0
H105 H 0.60556 0.02283 0.91798 0.0
H106 H 0.58121 0.95961 0.95185 0.0
H107 H 0.57444 0.9207 0.01429 0.0
Mn108 Mn 0.90775 0.88617 0.37326 0.0
Mn109 Mn 0.87552 0.93799 0.45252 0.0
C110 C 0.93965 0.94024 0.4032 0.0
C111 C 0.93972 0.83443 0.34383 0.0
C112 C 0.85081 0.95018 0.3662 0.0
O113 O 0.86954 0.84695 0.39314 0.0
O114 O 0.85056 0.88475 0.44508 0.0
C115 C 0.90073 0.88399 0.51675 0.0
N116 N 0.89945 0.92152 0.50081 0.0
C117 C 0.93511 0.95037 0.55615 0.0
C118 C 0.93667 0.91207 0.57327 0.0
C119 C 0.91951 0.87871 0.55339 0.0
C120 C 0.91626 0.95371 0.51941 0.0
H121 H 0.88755 0.85827 0.50161 0.0
C122 C 0.84949 0.85256 0.42292 0.0
O123 O 0.91501 0.85246 0.32403 0.0
O124 O 0.94497 0.84517 0.38158 0.0
N125 N 0.89719 0.99014 0.46394 0.0
C126 C 0.89323 0.02503 0.44336 0.0
C127 C 0.9087 0.06128 0.45927 0.0
C128 C 0.92761 0.06143 0.49643 0.0
C129 C 0.93071 0.02533 0.51745 0.0
C130 C 0.91463 0.99016 0.50017 0.0
H131 H 0.87842 0.02521 0.41498 0.0
O132 O 0.94556 0.9289 0.36637 0.0
O133 O 0.91552 0.91962 0.42149 0.0
O134 O 0.87054 0.92387 0.35087 0.0
O135 O 0.85008 0.9578 0.40411 0.0
C136 C 0.94921 0.02284 0.55483 0.0
C137 C 0.95165 0.98534 0.57401 0.0
H138 H 0.95105 0.90789 0.60158 0.0
H139 H 0.92069 0.84902 0.56634 0.0
H140 H 0.90604 0.08905 0.44294 0.0
H141 H 0.93968 0.0894 0.5085 0.0
H142 H 0.96199 0.04952 0.56887 0.0
H143 H 0.96637 0.98372 0.60246 0.0
Mn144 Mn 0.14151 0.64393 0.13138 0.0
Mn145 Mn 0.1732 0.56416 0.0799 0.0
C146 C 0.10977 0.61436 0.07689 0.0
C147 C 0.10925 0.67362 0.18275 0.0
C148 C 0.19901 0.65007 0.06789 0.0
O149 O 0.17903 0.6236 0.1711 0.0
O150 O 0.19827 0.57199 0.13306 0.0
C151 C 0.14775 0.50062 0.13457 0.0
N152 N 0.14915 0.51613 0.09685 0.0
C153 C 0.1138 0.46034 0.06841 0.0
C154 C 0.11212 0.44366 0.10691 0.0
C155 C 0.12904 0.46399 0.14015 0.0
C156 C 0.13255 0.49711 0.06477 0.0
H157 H 0.16077 0.51609 0.16019 0.0
C158 C 0.19922 0.594 0.16535 0.0
O159 O 0.13432 0.69323 0.16509 0.0
O160 O 0.10373 0.63599 0.17176 0.0
N161 N 0.15152 0.55229 0.02785 0.0
C162 C 0.15537 0.57261 0.9928 0.0
C163 C 0.14002 0.55631 0.95665 0.0
C164 C 0.12134 0.51901 0.95678 0.0
C165 C 0.11832 0.49827 0.99306 0.0
C166 C 0.13424 0.51597 0.02812 0.0
H167 H 0.16994 0.60113 0.99242 0.0
O168 O 0.10427 0.65135 0.08804 0.0
O169 O 0.13344 0.59573 0.09787 0.0
O170 O 0.17969 0.66576 0.09444 0.0
O171 O 0.19866 0.61223 0.05965 0.0
C172 C 0.10002 0.4608 0.99584 0.0
C173 C 0.0975 0.44202 0.03355 0.0
H174 H 0.09781 0.41535 0.11133 0.0
H175 H 0.12776 0.45138 0.16999 0.0
H176 H 0.14259 0.57244 0.92875 0.0
H177 H 0.10936 0.50663 0.92889 0.0
H178 H 0.0874 0.44641 0.96924 0.0
H179 H 0.08289 0.41351 0.03539 0.0
Mn180 Mn 0.40869 0.3862 0.3746 0.0
Mn181 Mn 0.37739 0.43972 0.45317 0.0
C182 C 0.44065 0.44127 0.40274 0.0
C183 C 0.44104 0.33371 0.3471 0.0
C184 C 0.35127 0.44969 0.36698 0.0
O185 O 0.37122 0.34718 0.39616 0.0
O186 O 0.35206 0.38656 0.44677 0.0
C187 C 0.40289 0.38648 0.51791 0.0
N188 N 0.40165 0.42378 0.50145 0.0
C189 C 0.43778 0.4532 0.55611 0.0
C190 C 0.4393 0.41514 0.57375 0.0
C191 C 0.42189 0.38161 0.55448 0.0
C192 C 0.41872 0.45612 0.51945 0.0
H193 H 0.3895 0.36063 0.50325 0.0
C194 C 0.35104 0.35372 0.42559 0.0
O195 O 0.4159 0.35033 0.32659 0.0
O196 O 0.44659 0.34655 0.38414 0.0
N197 N 0.39941 0.49186 0.46362 0.0
C198 C 0.39553 0.52645 0.44252 0.0
C199 C 0.41126 0.56282 0.45779 0.0
C200 C 0.43038 0.5634 0.49483 0.0
C201 C 0.43345 0.5276 0.51636 0.0
C202 C 0.41712 0.49229 0.4997 0.0
H203 H 0.38063 0.52628 0.41421 0.0
O204 O 0.44601 0.42924 0.36597 0.0
O205 O 0.41687 0.42091 0.42179 0.0
O206 O 0.37036 0.42258 0.35177 0.0
O207 O 0.35188 0.45884 0.40466 0.0
C208 C 0.45214 0.52555 0.55366 0.0
C209 C 0.45454 0.48832 0.57337 0.0
H210 H 0.45384 0.41128 0.60202 0.0
H211 H 0.42304 0.3521 0.56783 0.0
H212 H 0.40864 0.59035 0.44106 0.0
H213 H 0.44263 0.59146 0.50641 0.0
H214 H 0.46511 0.55234 0.56723 0.0
H215 H 0.46941 0.48702 0.60175 0.0
Mn216 Mn 0.40696 0.88585 0.87183 0.0
Mn217 Mn 0.37437 0.93783 0.95067 0.0
C218 C 0.43772 0.94146 0.90048 0.0
C219 C 0.4404 0.83443 0.84416 0.0
C220 C 0.34849 0.94805 0.86449 0.0
O221 O 0.37016 0.84571 0.89284 0.0
O222 O 0.34996 0.88423 0.94351 0.0
C223 C 0.40039 0.88446 0.01504 0.0
N224 N 0.39859 0.9219 0.99898 0.0
C225 C 0.43359 0.95158 0.05444 0.0
C226 C 0.43568 0.91338 0.07167 0.0
C227 C 0.41913 0.87965 0.05179 0.0
C228 C 0.41484 0.95445 0.01757 0.0
H229 H 0.38765 0.85846 0.99993 0.0
C230 C 0.34965 0.85157 0.9221 0.0
O231 O 0.41503 0.85058 0.82361 0.0
O232 O 0.4456 0.84714 0.88129 0.0
N233 N 0.39543 0.99033 0.96187 0.0
C234 C 0.39119 0.02502 0.94105 0.0
C235 C 0.40613 0.06157 0.95688 0.0
C236 C 0.42482 0.06221 0.9942 0.0
C237 C 0.42827 0.02628 0.01543 0.0
C238 C 0.41275 0.99078 0.9982 0.0
H239 H 0.37662 0.0248 0.91252 0.0
O240 O 0.44346 0.92988 0.86366 0.0
O241 O 0.41432 0.92032 0.91932 0.0
O242 O 0.36799 0.92144 0.84912 0.0
O243 O 0.34886 0.95691 0.90221 0.0
C244 C 0.44658 0.02428 0.05296 0.0
C245 C 0.44949 0.9869 0.0723 0.0
H246 H 0.45002 0.90956 0.10008 0.0
H247 H 0.42072 0.85003 0.06483 0.0
H248 H 0.40324 0.0892 0.94036 0.0
H249 H 0.43647 0.09042 1.00621 0.0
H250 H 0.45891 0.05123 0.067 0.0
H251 H 0.46409 0.98566 0.10087 0.0
Mn252 Mn 0.6414 0.64302 0.6321 0.0
Mn253 Mn 0.67305 0.56421 0.5793 0.0
C254 C 0.60999 0.61486 0.57664 0.0
C255 C 0.6084 0.67093 0.68378 0.0
C256 C 0.69954 0.6503 0.5694 0.0
O257 O 0.67822 0.62128 0.67186 0.0
O258 O 0.69778 0.57061 0.63285 0.0
C259 C 0.64678 0.49966 0.63233 0.0
N260 N 0.64846 0.51605 0.59502 0.0
C261 C 0.61235 0.46153 0.56527 0.0
C262 C 0.61038 0.44396 0.60334 0.0
C263 C 0.62756 0.46321 0.63703 0.0
C264 C 0.63163 0.49806 0.56251 0.0
H265 H 0.65997 0.51429 0.65831 0.0
C266 C 0.69837 0.59172 0.66573 0.0
O267 O 0.63392 0.6912 0.66761 0.0
O268 O 0.60288 0.63385 0.67105 0.0
N269 N 0.65154 0.55372 0.52689 0.0
C270 C 0.65577 0.57478 0.49234 0.0
C271 C 0.64027 0.55955 0.45583 0.0
C272 C 0.621 0.52261 0.4551 0.0
C273 C 0.61754 0.50113 0.49088 0.0
C274 C 0.63367 0.51773 0.52633 0.0
H275 H 0.67075 0.60304 0.49263 0.0
O276 O 0.60469 0.65173 0.5884 0.0
O277 O 0.63345 0.59576 0.59743 0.0
O278 O 0.68029 0.6656 0.5963 0.0
O279 O 0.69892 0.6126 0.56035 0.0
C280 C 0.59863 0.46396 0.49279 0.0
C281 C 0.59581 0.44432 0.53001 0.0
H282 H 0.59566 0.4158 0.60707 0.0
H283 H 0.62606 0.44992 0.66654 0.0
H284 H 0.64316 0.57625 0.42832 0.0
H285 H 0.60891 0.51106 0.42693 0.0
H286 H 0.5858 0.45044 0.46588 0.0
H287 H 0.58078 0.41603 0.53119 0.0
H288 H 0.28645 0.36394 0.45553 0.0
H289 H 0.35946 0.27164 0.42556 0.0
H290 H 0.24873 0.31398 0.4871 0.0
H291 H 0.32225 0.22135 0.45882 0.0
H292 H 0.232 0.13633 0.49925 0.0
H293 H 0.26754 0.18299 0.46015 0.0
H294 H 0.25057 0.2782 0.54792 0.0
H295 H 0.21414 0.23215 0.58607 0.0
C296 C 0.29427 0.33275 0.45547 0.0
C297 C 0.32597 0.3217 0.43829 0.0
C298 C 0.27283 0.30413 0.47398 0.0
C299 C 0.28279 0.26371 0.4765 0.0
C300 C 0.31368 0.25216 0.45742 0.0
C301 C 0.335 0.2809 0.43828 0.0
C302 C 0.23587 0.16723 0.51024 0.0
C303 C 0.2199 0.18051 0.54574 0.0
C304 C 0.25642 0.19397 0.48783 0.0
C305 C 0.26166 0.23458 0.50049 0.0
C306 C 0.24639 0.24747 0.53655 0.0
C307 C 0.22565 0.22091 0.5587 0.0
H308 H 0.76262 0.56025 0.65718 0.0
H309 H 0.68848 0.5922 0.74761 0.0
H310 H 0.79875 0.52781 0.70805 0.0
H311 H 0.72413 0.55814 0.79883 0.0
H312 H 0.81344 0.5165 0.88556 0.0
H313 H 0.77833 0.55565 0.83844 0.0
H314 H 0.79496 0.46703 0.74393 0.0
H315 H 0.83092 0.42885 0.79039 0.0
C316 C 0.7542 0.56058 0.68815 0.0
C317 C 0.72264 0.57858 0.69839 0.0
C318 C 0.77472 0.54156 0.7173 0.0
C319 C 0.76398 0.53935 0.75746 0.0
C320 C 0.73327 0.55925 0.76823 0.0
C321 C 0.71286 0.57887 0.73895 0.0
C322 C 0.80949 0.50528 0.85475 0.0
C323 C 0.82538 0.46963 0.84174 0.0
C324 C 0.78922 0.52773 0.82773 0.0
C325 C 0.78418 0.51495 0.78712 0.0
C326 C 0.79905 0.47853 0.77462 0.0
C327 C 0.8195 0.45634 0.80144 0.0
H328 H 0.56394 0.0529 0.09504 0.0
H329 H 0.58526 0.13283 0.99721 0.0
H330 H 0.52257 0.01369 0.05241 0.0
H331 H 0.54591 0.09148 0.95223 0.0
H332 H 0.45649 0.01994 0.88434 0.0
H333 H 0.4947 0.06561 0.92632 0.0
H334 H 0.51701 0.96634 1.00566 0.0
H335 H 0.47707 0.92288 0.96546 0.0
C336 C 0.55974 0.06175 0.06395 0.0
C337 C 0.57826 0.09502 0.0489 0.0
C338 C 0.53623 0.03893 0.03903 0.0
C339 C 0.5312 0.0481 0.99787 0.0
C340 C 0.54857 0.0831 0.98353 0.0
C341 C 0.57144 0.10678 0.00911 0.0
C342 C 0.46982 1.00839 0.91089 0.0
C343 C 0.46316 0.96857 0.92269 0.0
C344 C 0.49202 0.03438 0.93494 0.0
C345 C 0.50889 0.02046 0.97042 0.0
C346 C 0.50382 0.97937 0.97991 0.0
C347 C 0.48108 0.95398 0.95659 0.0
H348 H 0.98684 0.78201 0.37727 0.0
H349 H 0.94542 0.82309 0.26278 0.0
H350 H 0.02836 0.73975 0.34125 0.0
H351 H 0.98732 0.782 0.22739 0.0
H352 H 0.10376 0.7547 0.19435 0.0
H353 H 0.06193 0.79007 0.2356 0.0
H354 H 1.02055 0.67614 0.27734 0.0
H355 H 0.06198 0.64018 0.23493 0.0
C356 C 0.98636 0.78176 0.34454 0.0
C357 C 0.96282 0.80593 0.3229 0.0
C358 C 1.01004 0.75757 0.32402 0.0
C359 C 1.01103 0.75787 0.28163 0.0
C360 C 0.9871 0.78137 0.26009 0.0
C361 C 0.96305 0.80478 0.28042 0.0
C362 C 0.08606 0.73704 0.21258 0.0
C363 C 0.08616 0.69457 0.21125 0.0
C364 C 0.06206 0.75736 0.23609 0.0
C365 C 0.03807 0.73578 0.2595 0.0
C366 C 0.03893 0.69339 0.2596 0.0
C367 C 0.06254 0.6729 0.23532 0.0
H368 H 0.33163 0.93168 0.78475 0.0
H369 H 0.31272 0.01674 0.88181 0.0
H370 H 0.29579 0.97077 0.73891 0.0
H371 H 0.27781 0.05676 0.83542 0.0
H372 H 0.18696 0.09287 0.74603 0.0
H373 H 0.22353 0.05873 0.79627 0.0
H374 H 0.29845 0.03251 0.7045 0.0
H375 H 0.26135 0.06499 0.65454 0.0
C376 C 0.31998 0.95883 0.79632 0.0
C377 C 0.32529 0.97106 0.83699 0.0
C378 C 0.29961 0.98153 0.7699 0.0
C379 C 0.28428 0.01738 0.78323 0.0
C380 C 0.28901 0.02926 0.8241 0.0
C381 C 0.30918 1.00631 0.85069 0.0
C382 C 0.21162 0.08046 0.73698 0.0
C383 C 0.22122 0.08126 0.6964 0.0
C384 C 0.23256 0.06081 0.76567 0.0
C385 C 0.26362 0.04201 0.75428 0.0
C386 C 0.27419 0.0454 0.71416 0.0
C387 C 0.25312 0.06444 0.68557 0.0
H388 H 0.98241 0.42121 0.96386 0.0
H389 H 0.9609 0.52028 0.88558 0.0
H390 H 0.02428 0.46307 1.00319 0.0
H391 H 1.00081 0.56446 0.92709 0.0
H392 H 0.09075 0.63116 0.99873 0.0
H393 H 0.05228 0.58978 0.95282 0.0
H394 H 0.03049 0.50914 0.05119 0.0
H395 H 0.07062 0.54886 0.09492 0.0
C396 C 0.9867 0.45238 0.95537 0.0
C397 C 0.96796 0.46799 0.92253 0.0
C398 C 1.01051 0.47686 0.97828 0.0
C399 C 1.01566 0.51813 0.96966 0.0
C400 C 0.99808 0.53305 0.93505 0.0
C401 C 0.97489 0.50792 0.91127 0.0
C402 C 0.07749 0.60444 0.01004 0.0
C403 C 0.08435 0.59218 0.04967 0.0
C404 C 0.05514 0.58074 0.98391 0.0
C405 C 0.03828 0.54511 0.99749 0.0
C406 C 0.0436 0.53507 0.03841 0.0
C407 C 0.06649 0.55809 0.06395 0.0
H408 H 0.50583 0.30988 0.37401 0.0
H409 H 0.42851 0.29061 0.27651 0.0
H410 H 0.54618 0.26608 0.33888 0.0
H411 H 0.46866 0.24645 0.24174 0.0
H412 H 0.54004 0.14294 0.20656 0.0
H413 H 0.49955 0.17901 0.24944 0.0
H414 H 0.57921 0.27319 0.27284 0.0
H415 H 0.61949 0.2375 0.22962 0.0
C416 C 0.49722 0.29581 0.3454 0.0
C417 C 0.46398 0.3038 0.328 0.0
C418 C 0.52042 0.27091 0.32521 0.0
C419 C 0.51063 0.25286 0.28752 0.0
C420 C 0.47686 0.25963 0.27088 0.0
C421 C 0.45392 0.28507 0.29073 0.0
C422 C 0.54908 0.17104 0.22133 0.0
C423 C 0.58297 0.18739 0.21462 0.0
C424 C 0.52581 0.1918 0.24567 0.0
C425 C 0.53615 0.229 0.26442 0.0
C426 C 0.57055 0.24447 0.25907 0.0
C427 C 0.59358 0.22408 0.23419 0.0
H428 H 0.85937 0.77078 0.42309 0.0
H429 H 0.78446 0.86129 0.45211 0.0
H430 H 0.82336 0.71994 0.45722 0.0
H431 H 0.74793 0.81076 0.4846 0.0
H432 H 0.71624 0.7301 0.5857 0.0
H433 H 0.75141 0.77627 0.54625 0.0
H434 H 0.76941 0.68003 0.45999 0.0
H435 H 0.7351 0.63328 0.50037 0.0
C436 C 0.83469 0.77947 0.43568 0.0
C437 C 0.8248 0.81997 0.43521 0.0
C438 C 0.81407 0.75044 0.45537 0.0
C439 C 0.78307 0.76139 0.47456 0.0
C440 C 0.77216 0.80141 0.4714 0.0
C441 C 0.79289 0.83033 0.45233 0.0
C442 C 0.72775 0.71864 0.55842 0.0
C443 C 0.72259 0.67793 0.54623 0.0
C444 C 0.74774 0.74527 0.5355 0.0
C445 C 0.76286 0.73214 0.49943 0.0
C446 C 0.75834 0.69122 0.48762 0.0
C447 C 0.73852 0.66442 0.51079 0.0
H448 H 0.26442 0.56556 0.15617 0.0
H449 H 0.1897 0.59369 0.24721 0.0
H450 H 0.3016 0.53374 0.20652 0.0
H451 H 0.22641 0.56023 0.29788 0.0
H452 H 0.31571 0.5187 0.38392 0.0
H453 H 0.28083 0.55856 0.33727 0.0
H454 H 0.29878 0.47208 0.24121 0.0
H455 H 0.33448 0.43313 0.28726 0.0
C456 C 0.25616 0.56526 0.1872 0.0
C457 C 0.22412 0.58192 0.19778 0.0
C458 C 0.27727 0.54659 0.21601 0.0
C459 C 0.26664 0.54341 0.25613 0.0
C460 C 0.23548 0.56214 0.26729 0.0
C461 C 0.21446 0.58142 0.23835 0.0
C462 C 0.31217 0.50814 0.35284 0.0
C463 C 0.32821 0.47276 0.33933 0.0
C464 C 0.29203 0.531 0.3261 0.0
C465 C 0.28729 0.51894 0.28527 0.0
C466 C 0.30259 0.48299 0.27214 0.0
C467 C 0.3229 0.46037 0.2987 0.0
H468 H 0.82972 0.35221 0.00932 0.0
H469 H 0.82835 0.28208 0.89763 0.0
H470 H 0.79279 0.30154 0.03947 0.0
H471 H 0.78967 0.23094 0.92817 0.0
H472 H 0.74793 0.13189 0.01646 0.0
H473 H 0.78643 0.17917 0.98112 0.0
H474 H 0.73279 0.27927 0.03425 0.0
H475 H 0.69545 0.23262 0.07027 0.0
C476 C 0.82126 0.32609 0.99086 0.0
C477 C 0.83175 0.32166 0.95065 0.0
C478 C 0.79979 0.29695 1.00829 0.0
C479 C 0.78758 0.26248 0.98609 0.0
C480 C 0.79863 0.25721 0.94612 0.0
C481 C 0.82062 0.28654 0.92856 0.0
C482 C 0.7445 0.16403 0.02069 0.0
C483 C 0.71893 0.17839 0.04683 0.0
C484 C 0.76637 0.19109 1.00013 0.0
C485 C 0.76303 0.23305 1.00518 0.0
C486 C 0.73676 0.24719 0.03038 0.0
C487 C 0.71521 0.22033 0.05106 0.0
H488 H 0.79617 0.99954 0.38451 0.0
H489 H 0.85529 0.95498 0.28446 0.0
H490 H 0.75836 0.0358 0.33719 0.0
H491 H 0.81857 0.9919 0.23789 0.0
H492 H 0.72172 0.01238 0.16234 0.0
H493 H 0.75922 0.9831 0.21293 0.0
H494 H 0.75461 0.09126 0.28747 0.0
H495 H 0.71545 0.12098 0.23626 0.0
C496 C 0.80128 0.99767 0.35254 0.0
C497 C 0.82838 0.97365 0.33826 0.0
C498 C 0.77978 0.01873 0.32549 0.0
C499 C 0.78509 0.01633 0.28368 0.0
C500 C 0.81311 0.99363 0.26977 0.0
C501 C 0.83426 0.97242 0.29658 0.0
C502 C 0.72863 0.03041 0.18927 0.0
C503 C 0.71578 0.06948 0.19479 0.0
C504 C 0.75044 0.01347 0.21837 0.0
C505 C 0.76057 0.03503 0.25399 0.0
C506 C 0.74729 0.07385 0.26028 0.0
C507 C 0.72502 0.09095 0.23091 0.0
H508 H 0.97908 0.92155 0.46834 0.0
H509 H 0.95837 0.01852 0.38718 0.0
H510 H 1.01978 0.96491 0.50793 0.0
H511 H 0.99691 0.06409 0.42869 0.0
H512 H 0.08734 0.13197 0.49808 0.0
H513 H 0.04825 0.08982 0.45367 0.0
H514 H 0.02599 0.01258 0.5546 0.0
H515 H 0.06727 0.05265 0.59674 0.0
C516 C 0.98314 0.95262 0.45941 0.0
C517 C 0.96504 0.96724 0.42563 0.0
C518 C 1.00629 0.97793 0.48237 0.0
C519 C 1.01142 0.01897 0.47271 0.0
C520 C 0.99425 0.0329 0.43743 0.0
C521 C 0.9718 1.00698 0.41368 0.0
C522 C 0.07388 0.10581 0.51027 0.0
C523 C 0.08099 0.09451 0.55013 0.0
C524 C 0.05113 0.08169 0.48502 0.0
C525 C 0.03404 0.04669 0.49977 0.0
C526 C 0.03943 0.03782 0.54096 0.0
C527 C 0.06289 0.06111 0.56557 0.0
H528 H 1.00599 0.31157 0.87452 0.0
H529 H 0.9266 0.28817 0.77995 0.0
H530 H 0.04675 0.26925 0.83825 0.0
H531 H 0.9672 0.24548 0.74404 0.0
H532 H 0.04135 0.14493 0.70729 0.0
H533 H 1.00065 0.17973 0.75092 0.0
H534 H 0.07765 0.27735 0.77098 0.0
H535 H 0.11815 0.24291 0.72699 0.0
C536 C 0.99702 0.29685 0.84636 0.0
C537 C 0.96306 0.30329 0.83008 0.0
C538 C 1.02045 0.27283 0.82548 0.0
C539 C 1.01023 0.25413 0.78823 0.0
C540 C 0.97577 0.25923 0.77281 0.0
C541 C 0.95256 0.28379 0.79332 0.0
C542 C 0.04976 0.17358 0.72141 0.0
C543 C 0.08297 0.1912 0.71361 0.0
C544 C 0.02636 0.19359 0.7462 0.0
C545 C 0.0359 0.23131 0.76433 0.0
C546 C 0.06963 0.24819 0.75772 0.0
C547 C 0.09277 0.22852 0.73239 0.0
H548 H 0.54273 0.64492 0.70552 0.0
H549 H 0.62061 0.74148 0.72701 0.0
H550 H 0.50157 0.68082 0.74766 0.0
H551 H 0.57964 0.77699 0.76956 0.0
H552 H 0.50569 0.81229 0.87107 0.0
H553 H 0.54682 0.76939 0.83606 0.0
H554 H 0.46958 0.74774 0.73898 0.0
H555 H 0.42864 0.79106 0.7736 0.0
C556 C 0.55127 0.67347 0.71975 0.0
C557 C 0.58493 0.69039 0.71286 0.0
C558 C 0.52762 0.69412 0.74367 0.0
C559 C 0.53734 0.73177 0.76184 0.0
C560 C 0.57148 0.74791 0.75622 0.0
C561 C 0.59489 0.72763 0.73173 0.0
C562 C 0.49732 0.79799 0.84249 0.0
C563 C 0.46391 0.80515 0.82506 0.0
C564 C 0.52096 0.77361 0.82236 0.0
C565 C 0.51146 0.75526 0.78474 0.0
C566 C 0.47757 0.76122 0.76806 0.0
C567 C 0.45418 0.78616 0.78782 0.0
H568 H 0.21566 0.72982 0.08369 0.0
H569 H 0.2346 0.63245 0.99899 0.0
H570 H 0.25107 0.77564 0.04423 0.0
H571 H 0.26929 0.67894 0.95858 0.0
H572 H 0.36013 0.76993 0.92326 0.0
H573 H 0.32374 0.71902 0.95686 0.0
H574 H 0.24736 0.80943 0.98192 0.0
H575 H 0.28418 0.86003 0.94996 0.0
C576 C 0.22722 0.71817 0.05651 0.0
C577 C 0.22202 0.67743 0.04448 0.0
C578 C 0.24736 0.7446 0.03361 0.0
C579 C 0.26261 0.73122 0.99774 0.0
C580 C 0.25807 0.69027 0.98607 0.0
C581 C 0.23806 0.66364 0.00923 0.0
C582 C 0.33519 0.77852 0.93527 0.0
C583 C 0.32508 0.81893 0.93437 0.0
C584 C 0.31436 0.74945 0.9546 0.0
C585 C 0.28297 0.76032 0.97298 0.0
C586 C 0.27188 0.80021 0.96934 0.0
C587 C 0.2928 0.82916 0.95062 0.0
H588 H 0.48059 0.4216 0.46702 0.0
H589 H 0.46046 0.5194 0.38667 0.0
H590 H 0.52201 0.46409 0.5065 0.0
H591 H 0.49981 0.56417 0.42816 0.0
H592 H 0.59072 0.6307 0.49828 0.0
H593 H 0.55147 0.58919 0.45339 0.0
H594 H 0.52847 0.51131 0.55359 0.0
H595 H 0.56975 0.5508 0.59623 0.0
C596 C 0.48497 0.45266 0.4582 0.0
C597 C 0.4668 0.46775 0.42469 0.0
C598 C 0.50853 0.47749 0.48114 0.0
C599 C 0.51402 0.51855 0.47177 0.0
C600 C 0.49684 0.53294 0.43668 0.0
C601 C 0.47395 0.50748 0.41293 0.0
C602 C 0.57707 0.60453 0.5102 0.0
C603 C 0.58395 0.5929 0.55002 0.0
C604 C 0.55424 0.58078 0.48467 0.0
C605 C 0.53687 0.54581 0.49907 0.0
C606 C 0.5421 0.53657 0.5402 0.0
C607 C 0.56558 0.55951 0.5651 0.0
loop_
_geom_bond_atom_site_label_1
_geom_bond_atom_site_label_2
_geom_bond_distance
_geom_bond_site_symmetry_2
_ccdc_geom_bond_type
Mn0 O5 2.095 . S
Mn0 O15 2.162 . S
Mn0 O16 2.297 . S
Mn0 O24 2.385 . S
Mn0 O25 2.209 . S
Mn0 O26 2.094 . S
Mn1 O6 2.121 . S
Mn1 N8 2.247 1_545 S
Mn1 N17 2.282 . S
Mn1 O25 2.215 . S
Mn1 O27 2.117 . S
C2 O24 1.234 . S
C2 O25 1.283 . S
C3 O15 1.281 . S
C3 O16 1.236 . S
C4 O26 1.240 . S
C4 O27 1.264 . S
O5 Mn0 2.095 . S
O5 C14 1.250 . S
O6 Mn1 2.121 . S
O6 C14 1.258 . S
C7 N8 1.334 . S
C7 C11 1.460 . S
C7 H13 0.929 . S
N8 Mn1 2.247 1_565 S
N8 C7 1.334 . S
N8 C12 1.365 . S
C9 C10 1.258 . S
C9 C12 1.431 . S
C9 C29 1.449 . S
C10 C9 1.258 . S
C10 C11 1.477 . S
C10 H30 0.931 . S
C11 C7 1.460 . S
C11 C10 1.477 . S
C11 H31 0.930 . S
C12 N8 1.365 . S
C12 C9 1.431 . S
C12 C22 1.476 1_565 S
H13 C7 0.929 . S
C14 O5 1.250 . S
C14 O6 1.258 . S
O15 Mn0 2.162 . S
O15 C3 1.281 . S
O16 Mn0 2.297 . S
O16 C3 1.236 . S
N17 Mn1 2.282 . S
N17 C18 1.328 . S
N17 C22 1.318 . S
C18 N17 1.328 . S
C18 C19 1.457 . S
C18 H23 0.929 . S
C19 C18 1.457 . S
C19 C20 1.291 . S
C19 H32 0.931 . S
C20 C19 1.291 . S
C20 C21 1.373 . S
C20 H33 0.929 . S
C21 C20 1.373 . S
C21 C22 1.396 . S
C21 C28 1.403 1_545 S
C22 C12 1.476 1_545 S
C22 N17 1.318 . S
C22 C21 1.396 . S
H23 C18 0.929 . S
O24 Mn0 2.385 . S
O24 C2 1.234 . S
O25 Mn0 2.209 . S
O25 Mn1 2.215 . S
O25 C2 1.283 . S
O26 Mn0 2.094 . S
O26 C4 1.240 . S
O27 Mn1 2.117 . S
O27 C4 1.264 . S
C28 C21 1.403 1_565 S
C28 C29 1.399 . S
C28 H34 0.929 . S
C29 C9 1.449 . S
C29 C28 1.399 . S
C29 H35 0.930 . S
H30 C10 0.931 . S
H31 C11 0.930 . S
H32 C19 0.931 . S
H33 C20 0.929 . S
H34 C28 0.929 . S
H35 C29 0.930 . S
Mn36 O41 2.095 . S
Mn36 O51 2.162 . S
Mn36 O52 2.297 . S
Mn36 O60 2.385 . S
Mn36 O61 2.209 . S
Mn36 O62 2.094 . S
Mn37 O42 2.121 . S
Mn37 N44 2.247 1_556 S
Mn37 N53 2.282 . S
Mn37 O61 2.215 . S
Mn37 O63 2.117 . S
C38 O60 1.234 . S
C38 O61 1.283 . S
C39 O51 1.281 . S
C39 O52 1.236 . S
C40 O62 1.240 . S
C40 O63 1.264 . S
O41 Mn36 2.095 . S
O41 C50 1.250 . S
O42 Mn37 2.121 . S
O42 C50 1.258 . S
C43 N44 1.334 . S
C43 C47 1.460 . S
C43 H49 0.929 . S
N44 Mn37 2.247 1_554 S
N44 C43 1.334 . S
N44 C48 1.365 . S
C45 C46 1.258 . S
C45 C48 1.431 . S
C45 C65 1.449 . S
C46 C45 1.258 . S
C46 C47 1.477 . S
C46 H66 0.931 . S
C47 C43 1.460 . S
C47 C46 1.477 . S
C47 H67 0.930 . S
C48 N44 1.365 . S
C48 C45 1.431 . S
C48 C58 1.476 1_554 S
H49 C43 0.929 . S
C50 O41 1.250 . S
C50 O42 1.258 . S
O51 Mn36 2.162 . S
O51 C39 1.281 . S
O52 Mn36 2.297 . S
O52 C39 1.236 . S
N53 Mn37 2.282 . S
N53 C54 1.328 . S
N53 C58 1.318 . S
C54 N53 1.328 . S
C54 C55 1.457 . S
C54 H59 0.929 . S
C55 C54 1.457 . S
C55 C56 1.291 . S
C55 H68 0.931 . S
C56 C55 1.291 . S
C56 C57 1.373 . S
C56 H69 0.929 . S
C57 C56 1.373 . S
C57 C58 1.396 . S
C57 C64 1.403 1_556 S
C58 C48 1.476 1_556 S
C58 N53 1.318 . S
C58 C57 1.396 . S
H59 C54 0.929 . S
O60 Mn36 2.385 . S
O60 C38 1.234 . S
O61 Mn36 2.209 . S
O61 Mn37 2.215 . S
O61 C38 1.283 . S
O62 Mn36 2.094 . S
O62 C40 1.240 . S
O63 Mn37 2.117 . S
O63 C40 1.264 . S
C64 C57 1.403 1_554 S
C64 C65 1.399 . S
C64 H70 0.929 . S
C65 C45 1.449 . S
C65 C64 1.399 . S
C65 H71 0.930 . S
H66 C46 0.931 . S
H67 C47 0.930 . S
H68 C55 0.931 . S
H69 C56 0.929 . S
H70 C64 0.929 . S
H71 C65 0.930 . S
Mn72 O77 2.095 . S
Mn72 O87 2.162 . S
Mn72 O88 2.297 . S
Mn72 O96 2.385 . S
Mn72 O97 2.209 . S
Mn72 O98 2.094 . S
Mn73 O78 2.121 . S
Mn73 N80 2.247 1_545 S
Mn73 N89 2.282 . S
Mn73 O97 2.215 . S
Mn73 O99 2.117 . S
C74 O96 1.234 . S
C74 O97 1.283 . S
C75 O87 1.281 . S
C75 O88 1.236 . S
C76 O98 1.240 . S
C76 O99 1.264 . S
O77 Mn72 2.095 . S
O77 C86 1.250 . S
O78 Mn73 2.121 . S
O78 C86 1.258 . S
C79 N80 1.334 . S
C79 C83 1.460 . S
C79 H85 0.929 . S
N80 Mn73 2.247 1_565 S
N80 C79 1.334 . S
N80 C84 1.365 . S
C81 C82 1.258 . S
C81 C84 1.431 . S
C81 C101 1.449 1_554 S
C82 C81 1.258 . S
C82 C83 1.477 . S
C82 H102 0.931 . S
C83 C79 1.460 . S
C83 C82 1.477 . S
C83 H103 0.930 . S
C84 N80 1.365 . S
C84 C81 1.431 . S
C84 C94 1.476 1_565 S
H85 C79 0.929 . S
C86 O77 1.250 . S
C86 O78 1.258 . S
O87 Mn72 2.162 . S
O87 C75 1.281 . S
O88 Mn72 2.297 . S
O88 C75 1.236 . S
N89 Mn73 2.282 . S
N89 C90 1.328 1_554 S
N89 C94 1.318 . S
C90 N89 1.328 1_556 S
C90 C91 1.457 . S
C90 H95 0.929 . S
C91 C90 1.457 . S
C91 C92 1.291 . S
C91 H104 0.931 . S
C92 C91 1.291 . S
C92 C93 1.373 . S
C92 H105 0.929 . S
C93 C92 1.373 . S
C93 C94 1.396 1_556 S
C93 C100 1.403 1_545 S
C94 C84 1.476 1_545 S
C94 N89 1.318 . S
C94 C93 1.396 1_554 S
H95 C90 0.929 . S
O96 Mn72 2.385 . S
O96 C74 1.234 . S
O97 Mn72 2.209 . S
O97 Mn73 2.215 . S
O97 C74 1.283 . S
O98 Mn72 2.094 . S
O98 C76 1.240 . S
O99 Mn73 2.117 . S
O99 C76 1.264 . S
C100 C93 1.403 1_565 S
C100 C101 1.399 . S
C100 H106 0.929 . S
C101 C81 1.449 1_556 S
C101 C100 1.399 . S
C101 H107 0.930 . S
H102 C82 0.931 . S
H103 C83 0.930 . S
H104 C91 0.931 . S
H105 C92 0.929 . S
H106 C100 0.929 . S
H107 C101 0.930 . S
Mn108 O113 2.095 . S
Mn108 O123 2.162 . S
Mn108 O124 2.297 . S
Mn108 O132 2.385 . S
Mn108 O133 2.209 . S
Mn108 O134 2.094 . S
Mn109 O114 2.121 . S
Mn109 N116 2.257 . S
Mn109 N125 2.282 . S
Mn109 O133 2.215 . S
Mn109 O135 2.117 . S
C110 O132 1.234 . S
C110 O133 1.283 . S
C111 O123 1.281 . S
C111 O124 1.236 . S
C112 O134 1.240 . S
C112 O135 1.264 . S
O113 Mn108 2.095 . S
O113 C122 1.250 . S
O114 Mn109 2.121 . S
O114 C122 1.258 . S
C115 N116 1.326 . S
C115 C119 1.460 . S
C115 H121 0.929 . S
N116 Mn109 2.257 . S
N116 C115 1.326 . S
N116 C120 1.362 . S
C117 C118 1.258 . S
C117 C120 1.431 . S
C117 C137 1.449 1_565 S
C118 C117 1.258 . S
C118 C119 1.477 . S
C118 H138 0.931 . S
C119 C115 1.460 . S
C119 C118 1.477 . S
C119 H139 0.930 . S
C120 N116 1.362 . S
C120 C117 1.431 . S
C120 C130 1.476 . S
H121 C115 0.929 . S
C122 O113 1.250 . S
C122 O114 1.258 . S
O123 Mn108 2.162 . S
O123 C111 1.281 . S
O124 Mn108 2.297 . S
O124 C111 1.236 . S
N125 Mn109 2.282 . S
N125 C126 1.328 1_565 S
N125 C130 1.318 . S
C126 N125 1.328 1_545 S
C126 C127 1.457 . S
C126 H131 0.929 . S
C127 C126 1.457 . S
C127 C128 1.291 . S
C127 H140 0.931 . S
C128 C127 1.291 . S
C128 C129 1.373 . S
C128 H141 0.929 . S
C129 C128 1.373 . S
C129 C130 1.396 1_545 S
C129 C136 1.403 . S
C130 C120 1.476 . S
C130 N125 1.318 . S
C130 C129 1.396 1_565 S
H131 C126 0.929 . S
O132 Mn108 2.385 . S
O132 C110 1.234 . S
O133 Mn108 2.209 . S
O133 Mn109 2.215 . S
O133 C110 1.283 . S
O134 Mn108 2.094 . S
O134 C112 1.240 . S
O135 Mn109 2.117 . S
O135 C112 1.264 . S
C136 C129 1.403 . S
C136 C137 1.399 . S
C136 H142 0.929 . S
C137 C117 1.449 1_545 S
C137 C136 1.399 . S
C137 H143 0.930 . S
H138 C118 0.931 . S
H139 C119 0.930 . S
H140 C127 0.931 . S
H141 C128 0.929 . S
H142 C136 0.929 . S
H143 C137 0.930 . S
Mn144 O149 2.095 . S
Mn144 O159 2.162 . S
Mn144 O160 2.297 . S
Mn144 O168 2.385 . S
Mn144 O169 2.209 . S
Mn144 O170 2.094 . S
Mn145 O150 2.121 . S
Mn145 N152 2.257 . S
Mn145 N161 2.282 . S
Mn145 O169 2.215 . S
Mn145 O171 2.117 . S
C146 O168 1.234 . S
C146 O169 1.283 . S
C147 O159 1.281 . S
C147 O160 1.236 . S
C148 O170 1.240 . S
C148 O171 1.264 . S
O149 Mn144 2.095 . S
O149 C158 1.250 . S
O150 Mn145 2.121 . S
O150 C158 1.258 . S
C151 N152 1.326 . S
C151 C155 1.460 . S
C151 H157 0.929 . S
N152 Mn145 2.257 . S
N152 C151 1.326 . S
N152 C156 1.362 . S
C153 C154 1.258 . S
C153 C156 1.431 . S
C153 C173 1.449 1_554 S
C154 C153 1.258 . S
C154 C155 1.477 . S
C154 H174 0.931 . S
C155 C151 1.460 . S
C155 C154 1.477 . S
C155 H175 0.930 . S
C156 N152 1.362 . S
C156 C153 1.431 . S
C156 C166 1.476 . S
H157 C151 0.929 . S
C158 O149 1.250 . S
C158 O150 1.258 . S
O159 Mn144 2.162 . S
O159 C147 1.281 . S
O160 Mn144 2.297 . S
O160 C147 1.236 . S
N161 Mn145 2.282 . S
N161 C162 1.328 1_554 S
N161 C166 1.318 . S
C162 N161 1.328 1_556 S
C162 C163 1.457 . S
C162 H167 0.929 . S
C163 C162 1.457 . S
C163 C164 1.291 . S
C163 H176 0.931 . S
C164 C163 1.291 . S
C164 C165 1.373 . S
C164 H177 0.929 . S
C165 C164 1.373 . S
C165 C166 1.396 1_556 S
C165 C172 1.403 . S
C166 C156 1.476 . S
C166 N161 1.318 . S
C166 C165 1.396 1_554 S
H167 C162 0.929 . S
O168 Mn144 2.385 . S
O168 C146 1.234 . S
O169 Mn144 2.209 . S
O169 Mn145 2.215 . S
O169 C146 1.283 . S
O170 Mn144 2.094 . S
O170 C148 1.240 . S
O171 Mn145 2.117 . S
O171 C148 1.264 . S
C172 C165 1.403 . S
C172 C173 1.399 . S
C172 H178 0.929 . S
C173 C153 1.449 1_556 S
C173 C172 1.399 . S
C173 H179 0.930 . S
H174 C154 0.931 . S
H175 C155 0.930 . S
H176 C163 0.931 . S
H177 C164 0.929 . S
H178 C172 0.929 . S
H179 C173 0.930 . S
Mn180 O185 2.095 . S
Mn180 O195 2.162 . S
Mn180 O196 2.297 . S
Mn180 O204 2.385 . S
Mn180 O205 2.209 . S
Mn180 O206 2.094 . S
Mn181 O186 2.121 . S
Mn181 N188 2.257 . S
Mn181 N197 2.282 . S
Mn181 O205 2.215 . S
Mn181 O207 2.117 . S
C182 O204 1.234 . S
C182 O205 1.283 . S
C183 O195 1.281 . S
C183 O196 1.236 . S
C184 O206 1.240 . S
C184 O207 1.264 . S
O185 Mn180 2.095 . S
O185 C194 1.250 . S
O186 Mn181 2.121 . S
O186 C194 1.258 . S
C187 N188 1.326 . S
C187 C191 1.460 . S
C187 H193 0.929 . S
N188 Mn181 2.257 . S
N188 C187 1.326 . S
N188 C192 1.362 . S
C189 C190 1.258 . S
C189 C192 1.431 . S
C189 C209 1.449 . S
C190 C189 1.258 . S
C190 C191 1.477 . S
C190 H210 0.931 . S
C191 C187 1.460 . S
C191 C190 1.477 . S
C191 H211 0.930 . S
C192 N188 1.362 . S
C192 C189 1.431 . S
C192 C202 1.476 . S
H193 C187 0.929 . S
C194 O185 1.250 . S
C194 O186 1.258 . S
O195 Mn180 2.162 . S
O195 C183 1.281 . S
O196 Mn180 2.297 . S
O196 C183 1.236 . S
N197 Mn181 2.282 . S
N197 C198 1.328 . S
N197 C202 1.318 . S
C198 N197 1.328 . S
C198 C199 1.457 . S
C198 H203 0.929 . S
C199 C198 1.457 . S
C199 C200 1.291 . S
C199 H212 0.931 . S
C200 C199 1.291 . S
C200 C201 1.373 . S
C200 H213 0.929 . S
C201 C200 1.373 . S
C201 C202 1.396 . S
C201 C208 1.403 . S
C202 C192 1.476 . S
C202 N197 1.318 . S
C202 C201 1.396 . S
H203 C198 0.929 . S
O204 Mn180 2.385 . S
O204 C182 1.234 . S
O205 Mn180 2.209 . S
O205 Mn181 2.215 . S
O205 C182 1.283 . S
O206 Mn180 2.094 . S
O206 C184 1.240 . S
O207 Mn181 2.117 . S
O207 C184 1.264 . S
C208 C201 1.403 . S
C208 C209 1.399 . S
C208 H214 0.929 . S
C209 C189 1.449 . S
C209 C208 1.399 . S
C209 H215 0.930 . S
H210 C190 0.931 . S
H211 C191 0.930 . S
H212 C199 0.931 . S
H213 C200 0.929 . S
H214 C208 0.929 . S
H215 C209 0.930 . S
Mn216 O221 2.095 . S
Mn216 O231 2.162 . S
Mn216 O232 2.297 . S
Mn216 O240 2.385 . S
Mn216 O241 2.209 . S
Mn216 O242 2.094 . S
Mn217 O222 2.121 . S
Mn217 N224 2.247 1_556 S
Mn217 N233 2.282 . S
Mn217 O241 2.215 . S
Mn217 O243 2.117 . S
C218 O240 1.234 . S
C218 O241 1.283 . S
C219 O231 1.281 . S
C219 O232 1.236 . S
C220 O242 1.240 . S
C220 O243 1.264 . S
O221 Mn216 2.095 . S
O221 C230 1.250 . S
O222 Mn217 2.121 . S
O222 C230 1.258 . S
C223 N224 1.334 . S
C223 C227 1.460 . S
C223 H229 0.929 . S
N224 Mn217 2.247 1_554 S
N224 C223 1.334 . S
N224 C228 1.365 . S
C225 C226 1.258 . S
C225 C228 1.431 . S
C225 C245 1.449 1_565 S
C226 C225 1.258 . S
C226 C227 1.477 . S
C226 H246 0.931 . S
C227 C223 1.460 . S
C227 C226 1.477 . S
C227 H247 0.930 . S
C228 N224 1.365 . S
C228 C225 1.431 . S
C228 C238 1.476 1_554 S
H229 C223 0.929 . S
C230 O221 1.250 . S
C230 O222 1.258 . S
O231 Mn216 2.162 . S
O231 C219 1.281 . S
O232 Mn216 2.297 . S
O232 C219 1.236 . S
N233 Mn217 2.282 . S
N233 C234 1.328 1_565 S
N233 C238 1.318 . S
C234 N233 1.328 1_545 S
C234 C235 1.457 . S
C234 H239 0.929 . S
C235 C234 1.457 . S
C235 C236 1.291 . S
C235 H248 0.931 . S
C236 C235 1.291 . S
C236 C237 1.373 . S
C236 H249 0.929 . S
C237 C236 1.373 . S
C237 C238 1.396 1_545 S
C237 C244 1.403 1_556 S
C238 C228 1.476 1_556 S
C238 N233 1.318 . S
C238 C237 1.396 1_565 S
H239 C234 0.929 . S
O240 Mn216 2.385 . S
O240 C218 1.234 . S
O241 Mn216 2.209 . S
O241 Mn217 2.215 . S
O241 C218 1.283 . S
O242 Mn216 2.094 . S
O242 C220 1.240 . S
O243 Mn217 2.117 . S
O243 C220 1.264 . S
C244 C237 1.403 1_554 S
C244 C245 1.399 . S
C244 H250 0.929 . S
C245 C225 1.449 1_545 S
C245 C244 1.399 . S
C245 H251 0.930 . S
H246 C226 0.931 . S
H247 C227 0.930 . S
H248 C235 0.931 . S
H249 C236 0.929 . S
H250 C244 0.929 . S
H251 C245 0.930 . S
Mn252 O257 2.095 . S
Mn252 O267 2.162 . S
Mn252 O268 2.297 . S
Mn252 O276 2.385 . S
Mn252 O277 2.209 . S
Mn252 O278 2.094 . S
Mn253 O258 2.121 . S
Mn253 N260 2.257 . S
Mn253 N269 2.282 . S
Mn253 O277 2.215 . S
Mn253 O279 2.117 . S
C254 O276 1.234 . S
C254 O277 1.283 . S
C255 O267 1.281 . S
C255 O268 1.236 . S
C256 O278 1.240 . S
C256 O279 1.264 . S
O257 Mn252 2.095 . S
O257 C266 1.250 . S
O258 Mn253 2.121 . S
O258 C266 1.258 . S
C259 N260 1.326 . S
C259 C263 1.460 . S
C259 H265 0.929 . S
N260 Mn253 2.257 . S
N260 C259 1.326 . S
N260 C264 1.362 . S
C261 C262 1.258 . S
C261 C264 1.431 . S
C261 C281 1.449 . S
C262 C261 1.258 . S
C262 C263 1.477 . S
C262 H282 0.931 . S
C263 C259 1.460 . S
C263 C262 1.477 . S
C263 H283 0.930 . S
C264 N260 1.362 . S
C264 C261 1.431 . S
C264 C274 1.476 . S
H265 C259 0.929 . S
C266 O257 1.250 . S
C266 O258 1.258 . S
O267 Mn252 2.162 . S
O267 C255 1.281 . S
O268 Mn252 2.297 . S
O268 C255 1.236 . S
N269 Mn253 2.282 . S
N269 C270 1.328 . S
N269 C274 1.318 . S
C270 N269 1.328 . S
C270 C271 1.457 . S
C270 H275 0.929 . S
C271 C270 1.457 . S
C271 C272 1.291 . S
C271 H284 0.931 . S
C272 C271 1.291 . S
C272 C273 1.373 . S
C272 H285 0.929 . S
C273 C272 1.373 . S
C273 C274 1.396 . S
C273 C280 1.403 . S
C274 C264 1.476 . S
C274 N269 1.318 . S
C274 C273 1.396 . S
H275 C270 0.929 . S
O276 Mn252 2.385 . S
O276 C254 1.234 . S
O277 Mn252 2.209 . S
O277 Mn253 2.215 . S
O277 C254 1.283 . S
O278 Mn252 2.094 . S
O278 C256 1.240 . S
O279 Mn253 2.117 . S
O279 C256 1.264 . S
C280 C273 1.403 . S
C280 C281 1.399 . S
C280 H286 0.929 . S
C281 C261 1.449 . S
C281 C280 1.399 . S
C281 H287 0.930 . S
H282 C262 0.931 . S
H283 C263 0.930 . S
H284 C271 0.931 . S
H285 C272 0.929 . S
H286 C280 0.929 . S
H287 C281 0.930 . S
H288 C296 0.950 . S
H289 C301 0.950 . S
H290 C298 0.950 . S
H291 C300 0.950 . S
H292 C302 0.950 . S
H293 C304 0.950 . S
H294 C306 0.950 . S
H295 C307 0.950 . S
C296 H288 0.950 . S
C296 C297 1.386 . S
C296 C298 1.391 . S
C297 C296 1.386 . S
C297 C301 1.393 . S
C298 H290 0.950 . S
C298 C296 1.391 . S
C298 C299 1.400 . S
C299 C298 1.400 . S
C299 C300 1.398 . S
C299 C305 1.491 . S
C300 H291 0.950 . S
C300 C299 1.398 . S
C300 C301 1.391 . S
C301 H289 0.950 . S
C301 C297 1.393 . S
C301 C300 1.391 . S
C302 H292 0.950 . S
C302 C303 1.386 . S
C302 C304 1.391 . S
C303 C302 1.386 . S
C303 C307 1.393 . S
C304 H293 0.950 . S
C304 C302 1.391 . S
C304 C305 1.400 . S
C305 C299 1.491 . S
C305 C304 1.400 . S
C305 C306 1.398 . S
C306 H294 0.950 . S
C306 C305 1.398 . S
C306 C307 1.391 . S
C307 H295 0.950 . S
C307 C303 1.393 . S
C307 C306 1.391 . S
H308 C316 0.950 . S
H309 C321 0.950 . S
H310 C318 0.950 . S
H311 C320 0.950 . S
H312 C322 0.950 . S
H313 C324 0.950 . S
H314 C326 0.950 . S
H315 C327 0.950 . S
C316 H308 0.950 . S
C316 C317 1.386 . S
C316 C318 1.391 . S
C317 C316 1.386 . S
C317 C321 1.393 . S
C318 H310 0.950 . S
C318 C316 1.391 . S
C318 C319 1.400 . S
C319 C318 1.400 . S
C319 C320 1.398 . S
C319 C325 1.491 . S
C320 H311 0.950 . S
C320 C319 1.398 . S
C320 C321 1.391 . S
C321 H309 0.950 . S
C321 C317 1.393 . S
C321 C320 1.391 . S
C322 H312 0.950 . S
C322 C323 1.386 . S
C322 C324 1.391 . S
C323 C322 1.386 . S
C323 C327 1.393 . S
C324 H313 0.950 . S
C324 C322 1.391 . S
C324 C325 1.400 . S
C325 C319 1.491 . S
C325 C324 1.400 . S
C325 C326 1.398 . S
C326 H314 0.950 . S
C326 C325 1.398 . S
C326 C327 1.391 . S
C327 H315 0.950 . S
C327 C323 1.393 . S
C327 C326 1.391 . S
H328 C336 0.950 . S
H329 C341 0.950 . S
H330 C338 0.950 . S
H331 C340 0.950 . S
H332 C342 0.950 . S
H333 C344 0.950 . S
H334 C346 0.950 1_554 S
H335 C347 0.950 . S
C336 H328 0.950 . S
C336 C337 1.386 . S
C336 C338 1.391 . S
C337 C336 1.386 . S
C337 C341 1.393 . S
C338 H330 0.950 . S
C338 C336 1.391 . S
C338 C339 1.400 . S
C339 C338 1.400 . S
C339 C340 1.398 1_554 S
C339 C345 1.491 1_544 S
C340 H331 0.950 . S
C340 C339 1.398 1_556 S
C340 C341 1.391 1_556 S
C341 H329 0.950 . S
C341 C337 1.393 . S
C341 C340 1.391 1_554 S
C342 H332 0.950 . S
C342 C343 1.386 . S
C342 C344 1.391 . S
C343 C342 1.386 . S
C343 C347 1.393 . S
C344 H333 0.950 . S
C344 C342 1.391 . S
C344 C345 1.400 . S
C345 C339 1.491 1_566 S
C345 C344 1.400 . S
C345 C346 1.398 . S
C346 H334 0.950 1_556 S
C346 C345 1.398 . S
C346 C347 1.391 . S
C347 H335 0.950 . S
C347 C343 1.393 . S
C347 C346 1.391 . S
H348 C356 0.950 . S
H349 C361 0.950 . S
H350 C358 0.950 . S
H351 C360 0.950 . S
H352 C362 0.950 . S
H353 C364 0.950 . S
H354 C366 0.950 . S
H355 C367 0.950 . S
C356 H348 0.950 . S
C356 C357 1.386 . S
C356 C358 1.391 . S
C357 C356 1.386 . S
C357 C361 1.393 . S
C358 H350 0.950 . S
C358 C356 1.391 . S
C358 C359 1.400 . S
C359 C358 1.400 . S
C359 C360 1.398 . S
C359 C365 1.491 1_655 S
C360 H351 0.950 . S
C360 C359 1.398 . S
C360 C361 1.391 . S
C361 H349 0.950 . S
C361 C357 1.393 . S
C361 C360 1.391 . S
C362 H352 0.950 . S
C362 C363 1.386 . S
C362 C364 1.391 . S
C363 C362 1.386 . S
C363 C367 1.393 . S
C364 H353 0.950 . S
C364 C362 1.391 . S
C364 C365 1.400 . S
C365 C359 1.491 1_455 S
C365 C364 1.400 . S
C365 C366 1.398 . S
C366 H354 0.950 . S
C366 C365 1.398 . S
C366 C367 1.391 . S
C367 H355 0.950 . S
C367 C363 1.393 . S
C367 C366 1.391 . S
H368 C376 0.950 . S
H369 C381 0.950 . S
H370 C378 0.950 . S
H371 C380 0.949 1_545 S
H372 C382 0.950 . S
H373 C384 0.950 . S
H374 C386 0.950 . S
H375 C387 0.950 . S
C376 H368 0.950 . S
C376 C377 1.386 . S
C376 C378 1.391 . S
C377 C376 1.386 . S
C377 C381 1.393 . S
C378 H370 0.950 . S
C378 C376 1.391 . S
C378 C379 1.400 . S
C379 C378 1.400 . S
C379 C380 1.398 . S
C379 C385 1.491 1_565 S
C380 H371 0.949 1_565 S
C380 C379 1.398 . S
C380 C381 1.391 . S
C381 H369 0.950 . S
C381 C377 1.393 . S
C381 C380 1.391 . S
C382 H372 0.950 . S
C382 C383 1.386 . S
C382 C384 1.391 . S
C383 C382 1.386 . S
C383 C387 1.393 . S
C384 H373 0.950 . S
C384 C382 1.391 . S
C384 C385 1.400 . S
C385 C379 1.491 1_545 S
C385 C384 1.400 . S
C385 C386 1.398 . S
C386 H374 0.950 . S
C386 C385 1.398 . S
C386 C387 1.391 . S
C387 H375 0.950 . S
C387 C383 1.393 . S
C387 C386 1.391 . S
H388 C396 0.950 . S
H389 C401 0.950 . S
H390 C398 0.950 1_554 S
H391 C400 0.950 1_455 S
H392 C402 0.950 . S
H393 C404 0.949 . S
H394 C406 0.950 1_655 S
H395 C407 0.950 . S
C396 H388 0.950 . S
C396 C397 1.386 . S
C396 C398 1.391 . S
C397 C396 1.386 . S
C397 C401 1.393 . S
C398 H390 0.950 1_556 S
C398 C396 1.391 . S
C398 C399 1.400 . S
C399 C398 1.400 . S
C399 C400 1.398 . S
C399 C405 1.491 1_656 S
C400 H391 0.950 1_655 S
C400 C399 1.398 . S
C400 C401 1.391 . S
C401 H389 0.950 . S
C401 C397 1.393 . S
C401 C400 1.391 . S
C402 H392 0.950 . S
C402 C403 1.386 . S
C402 C404 1.392 1_554 S
C403 C402 1.386 . S
C403 C407 1.393 . S
C404 H393 0.949 . S
C404 C402 1.392 1_556 S
C404 C405 1.400 1_556 S
C405 C399 1.491 1_454 S
C405 C404 1.400 1_554 S
C405 C406 1.398 . S
C406 H394 0.950 1_455 S
C406 C405 1.398 . S
C406 C407 1.391 . S
C407 H395 0.950 . S
C407 C403 1.393 . S
C407 C406 1.391 . S
H408 C416 0.950 . S
H409 C421 0.950 . S
H410 C418 0.950 . S
H411 C420 0.950 . S
H412 C422 0.950 . S
H413 C424 0.950 . S
H414 C426 0.950 . S
H415 C427 0.950 . S
C416 H408 0.950 . S
C416 C417 1.386 . S
C416 C418 1.391 . S
C417 C416 1.386 . S
C417 C421 1.393 . S
C418 H410 0.950 . S
C418 C416 1.391 . S
C418 C419 1.400 . S
C419 C418 1.400 . S
C419 C420 1.398 . S
C419 C425 1.491 . S
C420 H411 0.950 . S
C420 C419 1.398 . S
C420 C421 1.391 . S
C421 H409 0.950 . S
C421 C417 1.393 . S
C421 C420 1.391 . S
C422 H412 0.950 . S
C422 C423 1.386 . S
C422 C424 1.391 . S
C423 C422 1.386 . S
C423 C427 1.393 . S
C424 H413 0.950 . S
C424 C422 1.391 . S
C424 C425 1.400 . S
C425 C419 1.491 . S
C425 C424 1.400 . S
C425 C426 1.398 . S
C426 H414 0.950 . S
C426 C425 1.398 . S
C426 C427 1.391 . S
C427 H415 0.950 . S
C427 C423 1.393 . S
C427 C426 1.391 . S
H428 C436 0.950 . S
H429 C441 0.950 . S
H430 C438 0.950 . S
H431 C440 0.950 . S
H432 C442 0.950 . S
H433 C444 0.950 . S
H434 C446 0.950 . S
H435 C447 0.950 . S
C436 H428 0.950 . S
C436 C437 1.386 . S
C436 C438 1.391 . S
C437 C436 1.386 . S
C437 C441 1.393 . S
C438 H430 0.950 . S
C438 C436 1.391 . S
C438 C439 1.400 . S
C439 C438 1.400 . S
C439 C440 1.398 . S
C439 C445 1.491 . S
C440 H431 0.950 . S
C440 C439 1.398 . S
C440 C441 1.391 . S
C441 H429 0.950 . S
C441 C437 1.393 . S
C441 C440 1.391 . S
C442 H432 0.950 . S
C442 C443 1.386 . S
C442 C444 1.391 . S
C443 C442 1.386 . S
C443 C447 1.393 . S
C444 H433 0.950 . S
C444 C442 1.391 . S
C444 C445 1.400 . S
C445 C439 1.491 . S
C445 C444 1.400 . S
C445 C446 1.398 . S
C446 H434 0.950 . S
C446 C445 1.398 . S
C446 C447 1.391 . S
C447 H435 0.950 . S
C447 C443 1.393 . S
C447 C446 1.391 . S
H448 C456 0.950 . S
H449 C461 0.950 . S
H450 C458 0.950 . S
H451 C460 0.950 . S
H452 C462 0.950 . S
H453 C464 0.950 . S
H454 C466 0.950 . S
H455 C467 0.950 . S
C456 H448 0.950 . S
C456 C457 1.386 . S
C456 C458 1.391 . S
C457 C456 1.386 . S
C457 C461 1.393 . S
C458 H450 0.950 . S
C458 C456 1.391 . S
C458 C459 1.400 . S
C459 C458 1.400 . S
C459 C460 1.398 . S
C459 C465 1.491 . S
C460 H451 0.950 . S
C460 C459 1.398 . S
C460 C461 1.391 . S
C461 H449 0.950 . S
C461 C457 1.393 . S
C461 C460 1.391 . S
C462 H452 0.950 . S
C462 C463 1.386 . S
C462 C464 1.391 . S
C463 C462 1.386 . S
C463 C467 1.393 . S
C464 H453 0.950 . S
C464 C462 1.391 . S
C464 C465 1.400 . S
C465 C459 1.491 . S
C465 C464 1.400 . S
C465 C466 1.398 . S
C466 H454 0.950 . S
C466 C465 1.398 . S
C466 C467 1.391 . S
C467 H455 0.950 . S
C467 C463 1.393 . S
C467 C466 1.391 . S
H468 C476 0.950 . S
H469 C481 0.950 . S
H470 C478 0.950 1_554 S
H471 C480 0.950 . S
H472 C482 0.950 1_556 S
H473 C484 0.950 . S
H474 C486 0.950 . S
H475 C487 0.950 . S
C476 H468 0.950 . S
C476 C477 1.386 . S
C476 C478 1.391 . S
C477 C476 1.386 . S
C477 C481 1.393 . S
C478 H470 0.950 1_556 S
C478 C476 1.391 . S
C478 C479 1.400 . S
C479 C478 1.400 . S
C479 C480 1.398 . S
C479 C485 1.491 1_556 S
C480 H471 0.950 . S
C480 C479 1.398 . S
C480 C481 1.391 . S
C481 H469 0.950 . S
C481 C477 1.393 . S
C481 C480 1.391 . S
C482 H472 0.950 1_554 S
C482 C483 1.386 . S
C482 C484 1.391 1_554 S
C483 C482 1.386 . S
C483 C487 1.393 . S
C484 H473 0.950 . S
C484 C482 1.391 1_556 S
C484 C485 1.400 1_556 S
C485 C479 1.491 1_554 S
C485 C484 1.400 1_554 S
C485 C486 1.398 . S
C486 H474 0.950 . S
C486 C485 1.398 . S
C486 C487 1.391 . S
C487 H475 0.950 . S
C487 C483 1.393 . S
C487 C486 1.391 . S
H488 C496 0.950 . S
H489 C501 0.950 . S
H490 C498 0.950 . S
H491 C500 0.950 . S
H492 C502 0.950 . S
H493 C504 0.950 1_565 S
H494 C506 0.950 . S
H495 C507 0.950 . S
C496 H488 0.950 . S
C496 C497 1.386 . S
C496 C498 1.391 1_565 S
C497 C496 1.386 . S
C497 C501 1.393 . S
C498 H490 0.950 . S
C498 C496 1.391 1_545 S
C498 C499 1.396 1_545 S
C499 C498 1.396 1_565 S
C499 C500 1.417 . S
C499 C505 1.477 1_565 S
C500 H491 0.950 . S
C500 C499 1.417 . S
C500 C501 1.391 . S
C501 H489 0.950 . S
C501 C497 1.393 . S
C501 C500 1.391 . S
C502 H492 0.950 . S
C502 C503 1.386 . S
C502 C504 1.391 . S
C503 C502 1.386 . S
C503 C507 1.393 . S
C504 H493 0.950 1_545 S
C504 C502 1.391 . S
C504 C505 1.400 . S
C505 C499 1.477 1_545 S
C505 C504 1.400 . S
C505 C506 1.398 . S
C506 H494 0.950 . S
C506 C505 1.398 . S
C506 C507 1.391 . S
C507 H495 0.950 . S
C507 C503 1.393 . S
C507 C506 1.391 . S
H508 C516 0.950 . S
H509 C521 0.950 . S
H510 C518 0.938 1_545 S
H511 C520 0.950 1_455 S
H512 C522 0.950 . S
H513 C524 0.950 . S
H514 C526 0.950 1_655 S
H515 C527 0.950 . S
C516 H508 0.950 . S
C516 C517 1.386 . S
C516 C518 1.391 . S
C517 C516 1.386 . S
C517 C521 1.393 . S
C518 H510 0.938 1_565 S
C518 C516 1.391 . S
C518 C519 1.400 . S
C519 C518 1.400 . S
C519 C520 1.398 . S
C519 C525 1.491 1_665 S
C520 H511 0.950 1_655 S
C520 C519 1.398 . S
C520 C521 1.391 . S
C521 H509 0.950 . S
C521 C517 1.393 . S
C521 C520 1.391 . S
C522 H512 0.950 . S
C522 C523 1.386 . S
C522 C524 1.391 . S
C523 C522 1.386 . S
C523 C527 1.393 . S
C524 H513 0.950 . S
C524 C522 1.391 . S
C524 C525 1.400 . S
C525 C519 1.491 1_445 S
C525 C524 1.400 . S
C525 C526 1.398 . S
C526 H514 0.950 1_455 S
C526 C525 1.398 . S
C526 C527 1.391 . S
C527 H515 0.950 . S
C527 C523 1.393 . S
C527 C526 1.391 . S
H528 C536 0.950 . S
H529 C541 0.950 . S
H530 C538 0.959 . S
H531 C540 0.950 . S
H532 C542 0.950 . S
H533 C544 0.959 . S
H534 C546 0.950 . S
H535 C547 0.950 . S
C536 H528 0.950 . S
C536 C537 1.386 . S
C536 C538 1.385 1_655 S
C537 C536 1.386 . S
C537 C541 1.393 . S
C538 H530 0.959 . S
C538 C536 1.385 1_455 S
C538 C539 1.398 1_455 S
C539 C538 1.398 1_655 S
C539 C540 1.398 . S
C539 C545 1.491 1_655 S
C540 H531 0.950 . S
C540 C539 1.398 . S
C540 C541 1.391 . S
C541 H529 0.950 . S
C541 C537 1.393 . S
C541 C540 1.391 . S
C542 H532 0.950 . S
C542 C543 1.386 . S
C542 C544 1.385 1_455 S
C543 C542 1.386 . S
C543 C547 1.393 . S
C544 H533 0.959 . S
C544 C542 1.385 1_655 S
C544 C545 1.398 1_655 S
C545 C539 1.491 1_455 S
C545 C544 1.398 1_455 S
C545 C546 1.398 . S
C546 H534 0.950 . S
C546 C545 1.398 . S
C546 C547 1.391 . S
C547 H535 0.950 . S
C547 C543 1.393 . S
C547 C546 1.391 . S
H548 C556 0.950 . S
H549 C561 0.950 . S
H550 C558 0.950 . S
H551 C560 0.950 . S
H552 C562 0.950 . S
H553 C564 0.950 . S
H554 C566 0.950 . S
H555 C567 0.950 . S
C556 H548 0.950 . S
C556 C557 1.386 . S
C556 C558 1.391 . S
C557 C556 1.386 . S
C557 C561 1.393 . S
C558 H550 0.950 . S
C558 C556 1.391 . S
C558 C559 1.400 . S
C559 C558 1.400 . S
C559 C560 1.398 . S
C559 C565 1.491 . S
C560 H551 0.950 . S
C560 C559 1.398 . S
C560 C561 1.391 . S
C561 H549 0.950 . S
C561 C557 1.393 . S
C561 C560 1.391 . S
C562 H552 0.950 . S
C562 C563 1.386 . S
C562 C564 1.391 . S
C563 C562 1.386 . S
C563 C567 1.393 . S
C564 H553 0.950 . S
C564 C562 1.391 . S
C564 C565 1.400 . S
C565 C559 1.491 . S
C565 C564 1.400 . S
C565 C566 1.398 . S
C566 H554 0.950 . S
C566 C565 1.398 . S
C566 C567 1.391 . S
C567 H555 0.950 . S
C567 C563 1.393 . S
C567 C566 1.391 . S
H568 C576 0.950 . S
H569 C581 0.950 . S
H570 C578 0.949 . S
H571 C580 0.950 . S
H572 C582 0.950 . S
H573 C584 0.950 . S
H574 C586 0.950 . S
H575 C587 0.950 . S
C576 H568 0.950 . S
C576 C577 1.386 . S
C576 C578 1.392 1_554 S
C577 C576 1.386 . S
C577 C581 1.393 . S
C578 H570 0.949 . S
C578 C576 1.392 1_556 S
C578 C579 1.400 1_556 S
C579 C578 1.400 1_554 S
C579 C580 1.398 . S
C579 C585 1.491 1_554 S
C580 H571 0.950 . S
C580 C579 1.398 . S
C580 C581 1.391 . S
C581 H569 0.950 . S
C581 C577 1.393 . S
C581 C580 1.391 . S
C582 H572 0.950 . S
C582 C583 1.386 . S
C582 C584 1.391 . S
C583 C582 1.386 . S
C583 C587 1.393 . S
C584 H573 0.950 . S
C584 C582 1.391 . S
C584 C585 1.400 . S
C585 C579 1.491 1_556 S
C585 C584 1.400 . S
C585 C586 1.398 . S
C586 H574 0.950 . S
C586 C585 1.398 . S
C586 C587 1.391 . S
C587 H575 0.950 . S
C587 C583 1.393 . S
C587 C586 1.391 . S
H588 C596 0.950 . S
H589 C601 0.950 . S
H590 C598 0.950 . S
H591 C600 0.950 . S
H592 C602 0.950 . S
H593 C604 0.950 . S
H594 C606 0.950 . S
H595 C607 0.950 . S
C596 H588 0.950 . S
C596 C597 1.386 . S
C596 C598 1.391 . S
C597 C596 1.386 . S
C597 C601 1.393 . S
C598 H590 0.950 . S
C598 C596 1.391 . S
C598 C599 1.400 . S
C599 C598 1.400 . S
C599 C600 1.398 . S
C599 C605 1.491 . S
C600 H591 0.950 . S
C600 C599 1.398 . S
C600 C601 1.391 . S
C601 H589 0.950 . S
C601 C597 1.393 . S
C601 C600 1.391 . S
C602 H592 0.950 . S
C602 C603 1.386 . S
C602 C604 1.391 . S
C603 C602 1.386 . S
C603 C607 1.393 . S
C604 H593 0.950 . S
C604 C602 1.391 . S
C604 C605 1.400 . S
C605 C599 1.491 . S
C605 C604 1.400 . S
C605 C606 1.398 . S
C606 H594 0.950 . S
C606 C605 1.398 . S
C606 C607 1.391 . S
C607 H595 0.950 . S
C607 C603 1.393 . S
C607 C606 1.391 . S
C297 C194 1.462 . S
C303 C4 1.525 . S
C317 C266 1.469 . S
C323 C40 1.526 . S
C337 C74 1.510 . S
C343 C218 1.514 . S
C357 C111 1.527 . S
C363 C147 1.527 . S
C377 C220 1.524 . S
C383 C14 1.453 . S
C397 C38 1.515 . S
C403 C146 1.510 . S
C417 C183 1.530 . S
C423 C75 1.525 . S
C437 C122 1.454 . S
C443 C256 1.524 . S
C457 C158 1.468 . S
C463 C184 1.526 . S
C477 C50 1.441 . S
C483 C76 1.523 . S
C497 C112 1.524 . S
C503 C86 1.461 . S
C517 C110 1.514 . S
C523 C2 1.510 . S
C537 C39 1.532 . S
C543 C3 1.525 . S
C557 C255 1.532 . S
C563 C219 1.525 . S
C577 C148 1.525 . S
C583 C230 1.466 . S
C597 C182 1.513 . S
C603 C254 1.510 . S
