# Generated by pormake.
# Topology rac, (4)-cn, num edge types: 1
# Building blocks:
#     Node 0, Type 0, BuildingBlock: NAHDIM_clean_sbu_0, # of connection points: 4
#     Node 1, Type 0, BuildingBlock: NAHDIM_clean_sbu_0, # of connection points: 4
#     Node 2, Type 0, BuildingBlock: NAHDIM_clean_sbu_0, # of connection points: 4
#     Node 3, Type 0, BuildingBlock: NAHDIM_clean_sbu_0, # of connection points: 4
#     Node 4, Type 0, BuildingBlock: NAHDIM_clean_sbu_0, # of connection points: 4
#     Node 5, Type 0, BuildingBlock: NAHDIM_clean_sbu_0, # of connection points: 4
#     Node 6, Type 0, BuildingBlock: NAHDIM_clean_sbu_0, # of connection points: 4
#     Node 7, Type 0, BuildingBlock: NAHDIM_clean_sbu_0, # of connection points: 4
#     Edge 8, Type (0, 0), BuildingBlock: AJUNOK_clean_linker_0, # of connection points: 2
#     Edge 9, Type (0, 0), BuildingBlock: AJUNOK_clean_linker_0, # of connection points: 2
#     Edge 10, Type (0, 0), BuildingBlock: AJUNOK_clean_linker_0, # of connection points: 2
#     Edge 11, Type (0, 0), BuildingBlock: AJUNOK_clean_linker_0, # of connection points: 2
#     Edge 12, Type (0, 0), BuildingBlock: AJUNOK_clean_linker_0, # of connection points: 2
#     Edge 13, Type (0, 0), BuildingBlock: AJUNOK_clean_linker_0, # of connection points: 2
#     Edge 14, Type (0, 0), BuildingBlock: AJUNOK_clean_linker_0, # of connection points: 2
#     Edge 15, Type (0, 0), BuildingBlock: AJUNOK_clean_linker_0, # of connection points: 2
#     Edge 16, Type (0, 0), BuildingBlock: AJUNOK_clean_linker_0, # of connection points: 2
#     Edge 17, Type (0, 0), BuildingBlock: AJUNOK_clean_linker_0, # of connection points: 2
#     Edge 18, Type (0, 0), BuildingBlock: AJUNOK_clean_linker_0, # of connection points: 2
#     Edge 19, Type (0, 0), BuildingBlock: AJUNOK_clean_linker_0, # of connection points: 2
#     Edge 20, Type (0, 0), BuildingBlock: AJUNOK_clean_linker_0, # of connection points: 2
#     Edge 21, Type (0, 0), BuildingBlock: AJUNOK_clean_linker_0, # of connection points: 2
#     Edge 22, Type (0, 0), BuildingBlock: AJUNOK_clean_linker_0, # of connection points: 2
#     Edge 23, Type (0, 0), BuildingBlock: AJUNOK_clean_linker_0, # of connection points: 2
# Relax obj value: 0.220
# Max RMSD: 0.117
# Mean RMSD: 0.117
data_MOF--net-rac--node1-NAHDIM_clean_sbu_0--edge1-AJUNOK_clean_linker_0
_symmetry_space_group_name_H-M    P1
_symmetry_Int_Tables_number       1
_symmetry_cell_setting            triclinic
loop_
_symmetry_equiv_pos_as_xyz
'x, y, z'
_cell_length_a     29.8591
_cell_length_b     15.3392
_cell_length_c     31.037571
_cell_angle_alpha  90.032729
_cell_angle_beta   89.939379
_cell_angle_gamma 90.551242
loop_
_atom_site_label
_atom_site_type_symbol
_atom_site_fract_x
_atom_site_fract_y
_atom_site_fract_z
_atom_type_partial_charge
C0 C 0.44039 0.37794 0.06017 0.0
O1 O 0.42891 0.40486 0.09874 0.0
O2 O 0.39109 0.23981 0.14328 0.0
Zn3 Zn 0.3692 0.27127 0.08354 0.0
O4 O 0.33491 0.38085 0.08769 0.0
C5 C 0.28622 0.18532 0.08103 0.0
O6 O 0.28316 0.24081 0.11312 0.0
O7 O 0.42114 0.30971 0.04514 0.0
C8 C 0.32493 0.41891 0.05287 0.0
O9 O 0.33514 0.38231 0.01589 0.0
C10 C 0.38753 0.29392 0.1742 0.0
O11 O 0.36918 0.3699 0.16688 0.0
O12 O 0.3236 0.18039 0.06115 0.0
C13 C 0.05972 0.61518 0.02962 0.0
O14 O 0.08482 0.58581 0.06094 0.0
O15 O 0.09386 0.75831 0.11789 0.0
Zn16 Zn 0.11175 0.75816 0.05468 0.0
O17 O 0.16462 0.68382 0.04771 0.0
C18 C 0.1381 0.93943 0.06315 0.0
O19 O 0.11479 0.93224 0.09889 0.0
O20 O 0.06367 0.69547 0.01909 0.0
C21 C 0.20206 0.7027 0.06459 0.0
O22 O 0.20613 0.77251 0.08886 0.0
C23 C 0.10676 0.70049 0.14446 0.0
O24 O 0.13306 0.63808 0.13096 0.0
O25 O 0.13692 0.87686 0.03618 0.0
C26 C 0.45249 0.12148 0.46783 0.0
O27 O 0.46976 0.14654 0.43091 0.0
O28 O 0.40348 0.25473 0.3814 0.0
Zn29 Zn 0.37398 0.20938 0.4355 0.0
O30 O 0.33768 0.10981 0.41448 0.0
C31 C 0.32458 0.37232 0.4459 0.0
O32 O 0.35797 0.4064 0.42383 0.0
O33 O 0.41461 0.15137 0.47908 0.0
C34 C 0.30742 0.1199 0.38638 0.0
O35 O 0.29809 0.19846 0.37238 0.0
C36 C 0.41365 0.19919 0.35256 0.0
O37 O 0.41191 0.11593 0.36233 0.0
O38 O 0.32686 0.29318 0.45791 0.0
C39 C 0.03719 0.83389 0.43984 0.0
O40 O 0.02217 0.81337 0.40139 0.0
O41 O 0.09252 0.6965 0.35612 0.0
Zn42 Zn 0.11657 0.7372 0.41358 0.0
O43 O 0.15758 0.83388 0.39801 0.0
C44 C 0.15973 0.56857 0.43164 0.0
O45 O 0.12877 0.53549 0.40624 0.0
O46 O 0.07291 0.79841 0.45334 0.0
C47 C 0.19214 0.82235 0.37508 0.0
O48 O 0.20205 0.74367 0.36158 0.0
C49 C 0.08585 0.75506 0.32785 0.0
O50 O 0.08842 0.83736 0.33941 0.0
O51 O 0.1584 0.6492 0.44113 0.0
C52 C 0.55827 0.60782 0.96071 0.0
O53 O 0.58089 0.57596 0.9282 0.0
O54 O 0.59648 0.74832 0.87326 0.0
Zn55 Zn 0.61573 0.7433 0.93611 0.0
O56 O 0.66634 0.66128 0.94138 0.0
C57 C 0.66244 0.90479 0.92594 0.0
O58 O 0.65267 0.88587 0.88575 0.0
O59 O 0.56627 0.68641 0.97228 0.0
C60 C 0.7027 0.67227 0.9209 0.0
O61 O 0.707 0.73804 0.89415 0.0
C62 C 0.60666 0.68984 0.84588 0.0
O63 O 0.62986 0.62226 0.85845 0.0
O64 O 0.64458 0.85887 0.95574 0.0
C65 C 0.94647 0.37474 0.93109 0.0
O66 O 0.93144 0.40321 0.89402 0.0
O67 O 0.90539 0.23465 0.84541 0.0
Zn68 Zn 0.88201 0.2535 0.9063 0.0
O69 O 0.83865 0.35078 0.90419 0.0
C70 C 0.81334 0.14473 0.95137 0.0
O71 O 0.80818 0.21206 0.97693 0.0
O72 O 0.93203 0.30115 0.94485 0.0
C73 C 0.83124 0.39741 0.93713 0.0
O74 O 0.8498 0.37793 0.9742 0.0
C75 C 0.89819 0.2911 0.81621 0.0
O76 O 0.87541 0.36107 0.8259 0.0
O77 O 0.84501 0.14591 0.9237 0.0
C78 C 0.53353 0.82273 0.55338 0.0
O79 O 0.5238 0.80505 0.59368 0.0
O80 O 0.59891 0.7031 0.6344 0.0
Zn81 Zn 0.61792 0.74208 0.57493 0.0
O82 O 0.65587 0.84697 0.58284 0.0
C83 C 0.66438 0.57668 0.55417 0.0
O84 O 0.63287 0.53752 0.57676 0.0
O85 O 0.56868 0.79002 0.53694 0.0
C86 C 0.68659 0.85684 0.61059 0.0
O87 O 0.69384 0.79545 0.63917 0.0
C88 C 0.5914 0.76039 0.66313 0.0
O89 O 0.59188 0.84307 0.65206 0.0
O90 O 0.66185 0.65825 0.54753 0.0
C91 C 0.96128 0.14124 0.52308 0.0
O92 O 0.9778 0.17221 0.5592 0.0
O93 O 0.90869 0.27082 0.60709 0.0
Zn94 Zn 0.88143 0.23357 0.55051 0.0
O95 O 0.83634 0.14352 0.56542 0.0
C96 C 0.83417 0.39774 0.54392 0.0
O97 O 0.86079 0.42148 0.57556 0.0
O98 O 0.92326 0.16806 0.51044 0.0
C99 C 0.81109 0.14486 0.59831 0.0
O100 O 0.8152 0.20704 0.62716 0.0
C101 C 0.9175 0.21308 0.63518 0.0
O102 O 0.91409 0.13047 0.62427 0.0
O103 O 0.84109 0.32572 0.52479 0.0
C104 C 0.2519 0.04962 0.04775 0.0
C105 C 0.24682 0.12862 0.07034 0.0
C106 C 0.21564 0.99088 0.04266 0.0
C107 C 0.17303 0.00898 0.06003 0.0
H108 H 0.2845 0.03113 0.03568 0.0
H109 H 0.22173 0.92876 0.02721 0.0
S110 S 0.14001 0.21304 0.11508 0.0
N111 N 0.19393 0.22638 0.10501 0.0
N112 N 0.12669 0.11577 0.09598 0.0
C113 C 0.16689 0.09005 0.08003 0.0
C114 C 0.20349 0.14987 0.08502 0.0
C115 C 0.2422 0.55972 0.44586 0.0
C116 C 0.20033 0.51721 0.44202 0.0
C117 C 0.28211 0.51235 0.44894 0.0
C118 C 0.28175 0.42061 0.44937 0.0
H119 H 0.24448 0.63018 0.44423 0.0
H120 H 0.31361 0.54793 0.44982 0.0
S121 S 0.18064 0.27803 0.44371 0.0
N122 N 0.16081 0.37804 0.44109 0.0
N123 N 0.23551 0.28907 0.4481 0.0
C124 C 0.23991 0.37735 0.44791 0.0
C125 C 0.19934 0.4256 0.44386 0.0
C126 C 0.73219 0.98146 0.90173 0.0
C127 C 0.70072 0.96525 0.93475 0.0
C128 C 0.7695 0.03592 0.90823 0.0
C129 C 0.77683 0.07818 0.94785 0.0
H130 H 0.72825 0.9514 0.87036 0.0
H131 H 0.792 0.04706 0.88134 0.0
S132 S 0.70569 0.05551 0.04553 0.0
N133 N 0.68052 0.9932 0.0093 0.0
N134 N 0.7501 0.09791 0.02126 0.0
C135 C 0.74606 0.06177 0.98147 0.0
C136 C 0.70826 0.00476 0.97502 0.0
C137 C 0.74778 0.57735 0.5453 0.0
C138 C 0.70683 0.53081 0.54437 0.0
C139 C 0.78899 0.53419 0.54308 0.0
C140 C 0.79091 0.44315 0.53848 0.0
H141 H 0.74814 0.6473 0.55019 0.0
H142 H 0.81961 0.57212 0.54625 0.0
S143 S 0.69348 0.29163 0.5312 0.0
N144 N 0.6709 0.3889 0.53665 0.0
N145 N 0.74822 0.30812 0.53099 0.0
C146 C 0.75026 0.39628 0.53511 0.0
C147 C 0.70828 0.44001 0.53846 0.0
C148 C 0.39574 0.33256 0.25189 0.0
C149 C 0.40109 0.27096 0.21866 0.0
C150 C 0.40307 0.31059 0.29501 0.0
C151 C 0.41595 0.22594 0.30674 0.0
H152 H 0.38418 0.39775 0.24487 0.0
H153 H 0.39631 0.35931 0.31938 0.0
S154 S 0.44133 0.04424 0.23165 0.0
N155 N 0.42508 0.12446 0.20007 0.0
N156 N 0.43898 0.08305 0.2812 0.0
C157 C 0.42458 0.16544 0.27365 0.0
C158 C 0.41709 0.18791 0.22961 0.0
C159 C 0.07323 0.79908 0.25155 0.0
C160 C 0.08388 0.7333 0.28136 0.0
C161 C 0.07881 0.78649 0.20721 0.0
C162 C 0.09558 0.70777 0.19086 0.0
H163 H 0.06204 0.86226 0.26258 0.0
H164 H 0.0717 0.8404 0.18583 0.0
S165 S 0.12328 0.5108 0.25478 0.0
N166 N 0.108 0.58347 0.29103 0.0
N167 N 0.11854 0.55972 0.20767 0.0
C168 C 0.10381 0.63949 0.22007 0.0
C169 C 0.09786 0.65219 0.2653 0.0
C170 C 0.58445 0.78508 0.78436 0.0
C171 C 0.59693 0.70245 0.79951 0.0
C172 C 0.58062 0.80183 0.7402 0.0
C173 C 0.5889 0.73655 0.70936 0.0
H174 H 0.57932 0.83848 0.80663 0.0
H175 H 0.57254 0.86749 0.73024 0.0
S176 S 0.61696 0.50591 0.73244 0.0
N177 N 0.61336 0.55215 0.78033 0.0
N178 N 0.60614 0.58364 0.69733 0.0
C179 C 0.59875 0.65216 0.72413 0.0
C180 C 0.60284 0.63516 0.76918 0.0
C181 C 0.92415 0.17093 0.71267 0.0
C182 C 0.92142 0.2371 0.68133 0.0
C183 C 0.91912 0.18948 0.75661 0.0
C184 C 0.91096 0.27484 0.77084 0.0
H185 H 0.92808 0.10346 0.70321 0.0
H186 H 0.91932 0.13578 0.77926 0.0
S187 S 0.90849 0.4738 0.70277 0.0
N188 N 0.91581 0.39317 0.66833 0.0
N189 N 0.90617 0.42785 0.75079 0.0
C190 C 0.91152 0.34253 0.74023 0.0
C191 C 0.91687 0.32374 0.69551 0.0
C192 C 0.48666 0.51366 0.051 0.0
C193 C 0.471 0.43363 0.03389 0.0
C194 C 0.51382 0.5706 0.02689 0.0
C195 C 0.52687 0.54976 0.98471 0.0
H196 H 0.47774 0.53324 0.0834 0.0
H197 H 0.52524 0.6307 0.04176 0.0
S198 S 0.49404 0.34986 0.92404 0.0
N199 N 0.46989 0.33778 0.97155 0.0
N200 N 0.52106 0.44415 0.9262 0.0
C201 C 0.51125 0.47025 0.96697 0.0
C202 C 0.48337 0.41239 0.99153 0.0
C203 C 0.01005 0.57833 0.96692 0.0
C204 C 0.02988 0.55338 0.00594 0.0
C205 C 0.98373 0.51958 0.94305 0.0
C206 C 0.97576 0.43331 0.95721 0.0
H207 H 0.0153 0.64347 0.95433 0.0
H208 H 0.96935 0.54266 0.91318 0.0
S209 S 0.01909 0.33539 0.05792 0.0
N210 N 0.03909 0.43608 0.05819 0.0
N211 N 0.98949 0.3264 0.01322 0.0
C212 C 0.99498 0.40757 -0.00361 0.0
C213 C 0.02201 0.46734 0.02072 0.0
C214 C 0.5294 0.93238 0.49369 0.0
C215 C 0.51026 0.89513 0.53092 0.0
C216 C 0.51121 0.00678 0.4745 0.0
C217 C 0.47288 0.04728 0.49148 0.0
H218 H 0.55931 0.905 0.47952 0.0
H219 H 0.52736 0.03222 0.44583 0.0
S220 S 0.40904 0.97456 0.58801 0.0
N221 N 0.45013 0.90385 0.58374 0.0
N222 N 0.41593 0.04338 0.54764 0.0
C223 C 0.45311 0.01042 0.52855 0.0
C224 C 0.4717 0.93449 0.54817 0.0
C225 C 0.9613 0.02472 0.46617 0.0
C226 C 0.98246 0.06502 0.5016 0.0
C227 C 0.97848 0.94878 0.44741 0.0
C228 C 0.01758 0.90937 0.46325 0.0
H229 H 0.93087 0.05154 0.45286 0.0
H230 H 0.96099 0.92119 0.41999 0.0
S231 S 0.08632 0.98905 0.55523 0.0
N232 N 0.04517 0.05968 0.55162 0.0
N233 N 0.07723 0.91718 0.51657 0.0
C234 C 0.03912 0.9488 0.49875 0.0
C235 C 0.02173 0.02651 0.51775 0.0
C236 C 0.24001 0.58754 0.02293 0.0
C237 C 0.23871 0.64059 0.05986 0.0
C238 C 0.26984 0.5184 0.01995 0.0
C239 C 0.29877 0.49925 0.05415 0.0
H240 H 0.21681 0.59785 -0.00337 0.0
H241 H 0.26859 0.47722 0.99159 0.0
S242 S 0.31172 0.62408 0.15591 0.0
N243 N 0.27135 0.67429 0.12971 0.0
N244 N 0.32744 0.54318 0.12438 0.0
C245 C 0.29954 0.5546 0.0903 0.0
C246 C 0.26951 0.62584 0.09307 0.0
C247 C 0.23338 0.05434 0.36938 0.0
C248 C 0.27976 0.04458 0.37406 0.0
C249 C 0.20524 0.9812 0.36698 0.0
C250 C 0.22278 0.89641 0.36832 0.0
H251 H 0.21846 0.11842 0.3706 0.0
H252 H 0.16936 0.99104 0.36603 0.0
S253 S 0.34268 0.83736 0.37339 0.0
N254 N 0.34263 0.94497 0.37506 0.0
N255 N 0.28959 0.80708 0.36967 0.0
C256 C 0.26938 0.88609 0.36916 0.0
C257 C 0.29797 0.96051 0.37234 0.0
C258 C 0.74042 0.55719 0.96321 0.0
C259 C 0.73829 0.60771 0.92545 0.0
C260 C 0.77182 0.49089 0.96742 0.0
C261 C 0.80137 0.47204 0.93364 0.0
H262 H 0.71735 0.56834 0.98958 0.0
H263 H 0.77192 0.45226 -0.00336 0.0
S264 S 0.81148 0.58854 0.82938 0.0
N265 N 0.77003 0.63747 0.85466 0.0
N266 N 0.82881 0.51171 0.86246 0.0
C267 C 0.80052 0.52346 0.89624 0.0
C268 C 0.76902 0.59183 0.89219 0.0
C269 C 0.74004 0.96281 0.6445 0.0
C270 C 0.71589 0.93436 0.60813 0.0
C271 C 0.76958 0.03422 0.64185 0.0
C272 C 0.77644 0.07745 0.60252 0.0
H273 H 0.73632 0.92941 0.67506 0.0
H274 H 0.78838 0.05353 0.67019 0.0
S275 S 0.72013 0.03163 0.49852 0.0
N276 N 0.6995 0.95812 0.53208 0.0
N277 N 0.75577 0.09046 0.52719 0.0
C278 C 0.75188 0.05104 0.56628 0.0
C279 C 0.72134 0.97985 0.56906 0.0
loop_
_geom_bond_atom_site_label_1
_geom_bond_atom_site_label_2
_geom_bond_distance
_geom_bond_site_symmetry_2
_ccdc_geom_bond_type
C0 O1 1.160 . S
C0 O7 1.185 . S
O1 C0 1.160 . S
O2 Zn3 1.899 . S
O2 C10 1.284 . S
Zn3 O2 1.899 . S
Zn3 O4 2.032 . S
Zn3 O7 2.086 . S
Zn3 O12 1.977 . S
O4 Zn3 2.032 . S
O4 C8 1.278 . S
C5 O6 1.203 . S
C5 O12 1.267 . S
O6 C5 1.203 . S
O7 C0 1.185 . S
O7 Zn3 2.086 . S
C8 O4 1.278 . S
C8 O9 1.211 . S
O9 C8 1.211 . S
C10 O2 1.284 . S
C10 O11 1.273 . S
O11 C10 1.273 . S
O12 Zn3 1.977 . S
O12 C5 1.267 . S
C13 O14 1.160 . S
C13 O20 1.185 . S
O14 C13 1.160 . S
O15 Zn16 1.899 . S
O15 C23 1.284 . S
Zn16 O15 1.899 . S
Zn16 O17 2.032 . S
Zn16 O20 2.086 . S
Zn16 O25 1.977 . S
O17 Zn16 2.032 . S
O17 C21 1.278 . S
C18 O19 1.203 . S
C18 O25 1.267 . S
O19 C18 1.203 . S
O20 C13 1.185 . S
O20 Zn16 2.086 . S
C21 O17 1.278 . S
C21 O22 1.211 . S
O22 C21 1.211 . S
C23 O15 1.284 . S
C23 O24 1.273 . S
O24 C23 1.273 . S
O25 Zn16 1.977 . S
O25 C18 1.267 . S
C26 O27 1.160 . S
C26 O33 1.185 . S
O27 C26 1.160 . S
O28 Zn29 1.899 . S
O28 C36 1.284 . S
Zn29 O28 1.899 . S
Zn29 O30 2.032 . S
Zn29 O33 2.086 . S
Zn29 O38 1.977 . S
O30 Zn29 2.032 . S
O30 C34 1.278 . S
C31 O32 1.203 . S
C31 O38 1.267 . S
O32 C31 1.203 . S
O33 C26 1.185 . S
O33 Zn29 2.086 . S
C34 O30 1.278 . S
C34 O35 1.211 . S
O35 C34 1.211 . S
C36 O28 1.284 . S
C36 O37 1.273 . S
O37 C36 1.273 . S
O38 Zn29 1.977 . S
O38 C31 1.267 . S
C39 O40 1.160 . S
C39 O46 1.185 . S
O40 C39 1.160 . S
O41 Zn42 1.899 . S
O41 C49 1.284 . S
Zn42 O41 1.899 . S
Zn42 O43 2.032 . S
Zn42 O46 2.086 . S
Zn42 O51 1.977 . S
O43 Zn42 2.032 . S
O43 C47 1.278 . S
C44 O45 1.203 . S
C44 O51 1.267 . S
O45 C44 1.203 . S
O46 C39 1.185 . S
O46 Zn42 2.086 . S
C47 O43 1.278 . S
C47 O48 1.211 . S
O48 C47 1.211 . S
C49 O41 1.284 . S
C49 O50 1.273 . S
O50 C49 1.273 . S
O51 Zn42 1.977 . S
O51 C44 1.267 . S
C52 O53 1.160 . S
C52 O59 1.185 . S
O53 C52 1.160 . S
O54 Zn55 1.899 . S
O54 C62 1.284 . S
Zn55 O54 1.899 . S
Zn55 O56 2.032 . S
Zn55 O59 2.086 . S
Zn55 O64 1.977 . S
O56 Zn55 2.032 . S
O56 C60 1.278 . S
C57 O58 1.203 . S
C57 O64 1.267 . S
O58 C57 1.203 . S
O59 C52 1.185 . S
O59 Zn55 2.086 . S
C60 O56 1.278 . S
C60 O61 1.211 . S
O61 C60 1.211 . S
C62 O54 1.284 . S
C62 O63 1.273 . S
O63 C62 1.273 . S
O64 Zn55 1.977 . S
O64 C57 1.267 . S
C65 O66 1.160 . S
C65 O72 1.185 . S
O66 C65 1.160 . S
O67 Zn68 1.899 . S
O67 C75 1.284 . S
Zn68 O67 1.899 . S
Zn68 O69 2.032 . S
Zn68 O72 2.086 . S
Zn68 O77 1.977 . S
O69 Zn68 2.032 . S
O69 C73 1.278 . S
C70 O71 1.203 . S
C70 O77 1.267 . S
O71 C70 1.203 . S
O72 C65 1.185 . S
O72 Zn68 2.086 . S
C73 O69 1.278 . S
C73 O74 1.211 . S
O74 C73 1.211 . S
C75 O67 1.284 . S
C75 O76 1.273 . S
O76 C75 1.273 . S
O77 Zn68 1.977 . S
O77 C70 1.267 . S
C78 O79 1.160 . S
C78 O85 1.185 . S
O79 C78 1.160 . S
O80 Zn81 1.899 . S
O80 C88 1.284 . S
Zn81 O80 1.899 . S
Zn81 O82 2.032 . S
Zn81 O85 2.086 . S
Zn81 O90 1.977 . S
O82 Zn81 2.032 . S
O82 C86 1.278 . S
C83 O84 1.203 . S
C83 O90 1.267 . S
O84 C83 1.203 . S
O85 C78 1.185 . S
O85 Zn81 2.086 . S
C86 O82 1.278 . S
C86 O87 1.211 . S
O87 C86 1.211 . S
C88 O80 1.284 . S
C88 O89 1.273 . S
O89 C88 1.273 . S
O90 Zn81 1.977 . S
O90 C83 1.267 . S
C91 O92 1.160 . S
C91 O98 1.185 . S
O92 C91 1.160 . S
O93 Zn94 1.899 . S
O93 C101 1.284 . S
Zn94 O93 1.899 . S
Zn94 O95 2.032 . S
Zn94 O98 2.086 . S
Zn94 O103 1.977 . S
O95 Zn94 2.032 . S
O95 C99 1.278 . S
C96 O97 1.203 . S
C96 O103 1.267 . S
O97 C96 1.203 . S
O98 C91 1.185 . S
O98 Zn94 2.086 . S
C99 O95 1.278 . S
C99 O100 1.211 . S
O100 C99 1.211 . S
C101 O93 1.284 . S
C101 O102 1.273 . S
O102 C101 1.273 . S
O103 Zn94 1.977 . S
O103 C96 1.267 . S
C104 C105 1.369 1_565 S
C104 C106 1.419 . S
C104 H108 0.930 . S
C105 C104 1.369 1_545 S
C105 C114 1.429 . S
C106 C104 1.419 . S
C106 C107 1.363 . S
C106 H109 0.929 . S
C107 C106 1.363 . S
C107 C113 1.428 1_565 S
H108 C104 0.930 . S
H109 C106 0.929 . S
S110 N111 1.613 . S
S110 N112 1.610 . S
N111 S110 1.613 . S
N111 C114 1.350 . S
N112 S110 1.610 . S
N112 C113 1.351 . S
C113 C107 1.428 1_545 S
C113 N112 1.351 . S
C113 C114 1.434 . S
C114 C105 1.429 . S
C114 N111 1.350 . S
C114 C113 1.434 . S
C115 C116 1.369 . S
C115 C117 1.419 . S
C115 H119 0.930 . S
C116 C115 1.369 . S
C116 C125 1.429 . S
C117 C115 1.419 . S
C117 C118 1.363 . S
C117 H120 0.929 . S
C118 C117 1.363 . S
C118 C124 1.428 . S
H119 C115 0.930 . S
H120 C117 0.929 . S
S121 N122 1.613 . S
S121 N123 1.610 . S
N122 S121 1.613 . S
N122 C125 1.350 . S
N123 S121 1.610 . S
N123 C124 1.351 . S
C124 C118 1.428 . S
C124 N123 1.351 . S
C124 C125 1.434 . S
C125 C116 1.429 . S
C125 N122 1.350 . S
C125 C124 1.434 . S
C126 C127 1.369 1_545 S
C126 C128 1.419 . S
C126 H130 0.930 . S
C127 C126 1.369 1_565 S
C127 C136 1.429 . S
C128 C126 1.419 . S
C128 C129 1.363 . S
C128 H131 0.929 . S
C129 C128 1.363 . S
C129 C135 1.428 1_545 S
H130 C126 0.930 . S
H131 C128 0.929 . S
S132 N133 1.613 . S
S132 N134 1.610 . S
N133 S132 1.613 . S
N133 C136 1.350 . S
N134 S132 1.610 . S
N134 C135 1.351 . S
C135 C129 1.428 1_565 S
C135 N134 1.351 . S
C135 C136 1.434 . S
C136 C127 1.429 . S
C136 N133 1.350 . S
C136 C135 1.434 . S
C137 C138 1.369 . S
C137 C139 1.419 . S
C137 H141 0.930 . S
C138 C137 1.369 . S
C138 C147 1.429 . S
C139 C137 1.419 . S
C139 C140 1.363 . S
C139 H142 0.929 . S
C140 C139 1.363 . S
C140 C146 1.428 . S
H141 C137 0.930 . S
H142 C139 0.929 . S
S143 N144 1.613 . S
S143 N145 1.610 . S
N144 S143 1.613 . S
N144 C147 1.350 . S
N145 S143 1.610 . S
N145 C146 1.351 . S
C146 C140 1.428 . S
C146 N145 1.351 . S
C146 C147 1.434 . S
C147 C138 1.429 . S
C147 N144 1.350 . S
C147 C146 1.434 . S
C148 C149 1.369 . S
C148 C150 1.419 . S
C148 H152 0.930 . S
C149 C148 1.369 . S
C149 C158 1.429 . S
C150 C148 1.419 . S
C150 C151 1.363 . S
C150 H153 0.929 . S
C151 C150 1.363 . S
C151 C157 1.428 . S
H152 C148 0.930 . S
H153 C150 0.929 . S
S154 N155 1.613 . S
S154 N156 1.610 . S
N155 S154 1.613 . S
N155 C158 1.350 . S
N156 S154 1.610 . S
N156 C157 1.351 . S
C157 C151 1.428 . S
C157 N156 1.351 . S
C157 C158 1.434 . S
C158 C149 1.429 . S
C158 N155 1.350 . S
C158 C157 1.434 . S
C159 C160 1.369 . S
C159 C161 1.419 . S
C159 H163 0.930 . S
C160 C159 1.369 . S
C160 C169 1.429 . S
C161 C159 1.419 . S
C161 C162 1.363 . S
C161 H164 0.929 . S
C162 C161 1.363 . S
C162 C168 1.428 . S
H163 C159 0.930 . S
H164 C161 0.929 . S
S165 N166 1.613 . S
S165 N167 1.610 . S
N166 S165 1.613 . S
N166 C169 1.350 . S
N167 S165 1.610 . S
N167 C168 1.351 . S
C168 C162 1.428 . S
C168 N167 1.351 . S
C168 C169 1.434 . S
C169 C160 1.429 . S
C169 N166 1.350 . S
C169 C168 1.434 . S
C170 C171 1.369 . S
C170 C172 1.419 . S
C170 H174 0.930 . S
C171 C170 1.369 . S
C171 C180 1.429 . S
C172 C170 1.419 . S
C172 C173 1.363 . S
C172 H175 0.929 . S
C173 C172 1.363 . S
C173 C179 1.428 . S
H174 C170 0.930 . S
H175 C172 0.929 . S
S176 N177 1.613 . S
S176 N178 1.610 . S
N177 S176 1.613 . S
N177 C180 1.350 . S
N178 S176 1.610 . S
N178 C179 1.351 . S
C179 C173 1.428 . S
C179 N178 1.351 . S
C179 C180 1.434 . S
C180 C171 1.429 . S
C180 N177 1.350 . S
C180 C179 1.434 . S
C181 C182 1.369 . S
C181 C183 1.419 . S
C181 H185 0.930 . S
C182 C181 1.369 . S
C182 C191 1.429 . S
C183 C181 1.419 . S
C183 C184 1.363 . S
C183 H186 0.929 . S
C184 C183 1.363 . S
C184 C190 1.428 . S
H185 C181 0.930 . S
H186 C183 0.929 . S
S187 N188 1.613 . S
S187 N189 1.610 . S
N188 S187 1.613 . S
N188 C191 1.350 . S
N189 S187 1.610 . S
N189 C190 1.351 . S
C190 C184 1.428 . S
C190 N189 1.351 . S
C190 C191 1.434 . S
C191 C182 1.429 . S
C191 N188 1.350 . S
C191 C190 1.434 . S
C192 C193 1.369 . S
C192 C194 1.419 . S
C192 H196 0.930 . S
C193 C192 1.369 . S
C193 C202 1.429 1_554 S
C194 C192 1.419 . S
C194 C195 1.363 1_554 S
C194 H197 0.929 . S
C195 C194 1.363 1_556 S
C195 C201 1.428 . S
H196 C192 0.930 . S
H197 C194 0.929 . S
S198 N199 1.613 . S
S198 N200 1.610 . S
N199 S198 1.613 . S
N199 C202 1.350 . S
N200 S198 1.610 . S
N200 C201 1.351 . S
C201 C195 1.428 . S
C201 N200 1.351 . S
C201 C202 1.434 . S
C202 C193 1.429 1_556 S
C202 N199 1.350 . S
C202 C201 1.434 . S
C203 C204 1.369 1_656 S
C203 C205 1.419 . S
C203 H207 0.930 . S
C204 C203 1.369 1_454 S
C204 C213 1.429 . S
C205 C203 1.419 . S
C205 C206 1.363 . S
C205 H208 0.929 . S
C206 C205 1.363 . S
C206 C212 1.428 1_656 S
H207 C203 0.930 . S
H208 C205 0.929 . S
S209 N210 1.613 . S
S209 N211 1.610 . S
N210 S209 1.613 . S
N210 C213 1.350 . S
N211 S209 1.610 . S
N211 C212 1.351 . S
C212 C206 1.428 1_454 S
C212 N211 1.351 . S
C212 C213 1.434 . S
C213 C204 1.429 . S
C213 N210 1.350 . S
C213 C212 1.434 . S
C214 C215 1.369 . S
C214 C216 1.419 1_565 S
C214 H218 0.930 . S
C215 C214 1.369 . S
C215 C224 1.429 . S
C216 C214 1.419 1_545 S
C216 C217 1.363 . S
C216 H219 0.929 . S
C217 C216 1.363 . S
C217 C223 1.428 . S
H218 C214 0.930 . S
H219 C216 0.929 . S
S220 N221 1.613 . S
S220 N222 1.610 1_565 S
N221 S220 1.613 . S
N221 C224 1.350 . S
N222 S220 1.610 1_545 S
N222 C223 1.351 . S
C223 C217 1.428 . S
C223 N222 1.351 . S
C223 C224 1.434 1_545 S
C224 C215 1.429 . S
C224 N221 1.350 . S
C224 C223 1.434 1_565 S
C225 C226 1.369 1_455 S
C225 C227 1.419 1_545 S
C225 H229 0.930 . S
C226 C225 1.369 1_655 S
C226 C235 1.429 . S
C227 C225 1.419 1_565 S
C227 C228 1.363 . S
C227 H230 0.929 . S
C228 C227 1.363 . S
C228 C234 1.428 1_455 S
H229 C225 0.930 . S
H230 C227 0.929 . S
S231 N232 1.613 1_565 S
S231 N233 1.610 . S
N232 S231 1.613 1_545 S
N232 C235 1.350 . S
N233 S231 1.610 . S
N233 C234 1.351 . S
C234 C228 1.428 1_655 S
C234 N233 1.351 . S
C234 C235 1.434 1_565 S
C235 C226 1.429 . S
C235 N232 1.350 . S
C235 C234 1.434 1_545 S
C236 C237 1.369 . S
C236 C238 1.419 . S
C236 H240 0.930 . S
C237 C236 1.369 . S
C237 C246 1.429 . S
C238 C236 1.419 . S
C238 C239 1.363 . S
C238 H241 0.929 . S
C239 C238 1.363 . S
C239 C245 1.428 . S
H240 C236 0.930 . S
H241 C238 0.929 . S
S242 N243 1.613 . S
S242 N244 1.610 . S
N243 S242 1.613 . S
N243 C246 1.350 . S
N244 S242 1.610 . S
N244 C245 1.351 . S
C245 C239 1.428 . S
C245 N244 1.351 . S
C245 C246 1.434 . S
C246 C237 1.429 . S
C246 N243 1.350 . S
C246 C245 1.434 . S
C247 C248 1.369 . S
C247 C249 1.419 . S
C247 H251 0.930 . S
C248 C247 1.369 . S
C248 C257 1.429 1_545 S
C249 C247 1.419 . S
C249 C250 1.363 1_545 S
C249 H252 0.929 . S
C250 C249 1.363 1_565 S
C250 C256 1.428 . S
H251 C247 0.930 . S
H252 C249 0.929 . S
S253 N254 1.613 . S
S253 N255 1.610 . S
N254 S253 1.613 . S
N254 C257 1.350 . S
N255 S253 1.610 . S
N255 C256 1.351 . S
C256 C250 1.428 . S
C256 N255 1.351 . S
C256 C257 1.434 . S
C257 C248 1.429 1_565 S
C257 N254 1.350 . S
C257 C256 1.434 . S
C258 C259 1.369 . S
C258 C260 1.419 . S
C258 H262 0.930 1_556 S
C259 C258 1.369 . S
C259 C268 1.429 . S
C260 C258 1.419 . S
C260 C261 1.363 . S
C260 H263 0.929 1_556 S
C261 C260 1.363 . S
C261 C267 1.428 . S
H262 C258 0.930 1_554 S
H263 C260 0.929 1_554 S
S264 N265 1.613 . S
S264 N266 1.610 . S
N265 S264 1.613 . S
N265 C268 1.350 . S
N266 S264 1.610 . S
N266 C267 1.351 . S
C267 C261 1.428 . S
C267 N266 1.351 . S
C267 C268 1.434 . S
C268 C259 1.429 . S
C268 N265 1.350 . S
C268 C267 1.434 . S
C269 C270 1.369 . S
C269 C271 1.419 . S
C269 H273 0.930 . S
C270 C269 1.369 . S
C270 C279 1.429 1_565 S
C271 C269 1.419 . S
C271 C272 1.363 1_565 S
C271 H274 0.929 . S
C272 C271 1.363 1_545 S
C272 C278 1.428 . S
H273 C269 0.930 . S
H274 C271 0.929 . S
S275 N276 1.613 . S
S275 N277 1.610 . S
N276 S275 1.613 . S
N276 C279 1.350 . S
N277 S275 1.610 . S
N277 C278 1.351 . S
C278 C272 1.428 . S
C278 N277 1.351 . S
C278 C279 1.434 . S
C279 C270 1.429 1_545 S
C279 N276 1.350 . S
C279 C278 1.434 . S
C105 C5 1.413 . S
C107 C18 1.419 . S
C116 C44 1.428 . S
C118 C31 1.419 . S
C127 C57 1.417 . S
C129 C70 1.425 . S
C138 C83 1.422 . S
C140 C96 1.415 . S
C149 C10 1.497 . S
C151 C36 1.494 . S
C160 C49 1.493 . S
C162 C23 1.490 . S
C171 C62 1.489 . S
C173 C88 1.493 . S
C182 C101 1.495 . S
C184 C75 1.490 . S
C193 C0 1.601 . S
C195 C52 1.590 . S
C204 C13 1.593 . S
C206 C65 1.597 . S
C215 C78 1.595 . S
C217 C26 1.595 . S
C226 C91 1.589 . S
C228 C39 1.600 . S
C237 C21 0.900 . S
C239 C8 0.910 . S
C248 C34 0.910 . S
C250 C47 0.902 . S
C259 C60 0.906 . S
C261 C73 0.904 . S
C270 C86 0.909 . S
C272 C99 0.904 . S
