# Generated by pormake.
# Topology wjl, (5)-cn, num edge types: 1
# Building blocks:
#     Node 0, Type 0, BuildingBlock: BEQFEK_clean_sbu_0, # of connection points: 5
#     Node 1, Type 0, BuildingBlock: BEQFEK_clean_sbu_0, # of connection points: 5
#     Node 2, Type 0, BuildingBlock: BEQFEK_clean_sbu_0, # of connection points: 5
#     Node 3, Type 0, BuildingBlock: BEQFEK_clean_sbu_0, # of connection points: 5
#     Node 4, Type 0, BuildingBlock: BEQFEK_clean_sbu_0, # of connection points: 5
#     Node 5, Type 0, BuildingBlock: BEQFEK_clean_sbu_0, # of connection points: 5
#     Node 6, Type 0, BuildingBlock: BEQFEK_clean_sbu_0, # of connection points: 5
#     Node 7, Type 0, BuildingBlock: BEQFEK_clean_sbu_0, # of connection points: 5
#     Node 8, Type 0, BuildingBlock: BEQFEK_clean_sbu_0, # of connection points: 5
#     Node 9, Type 0, BuildingBlock: BEQFEK_clean_sbu_0, # of connection points: 5
#     Node 10, Type 0, BuildingBlock: BEQFEK_clean_sbu_0, # of connection points: 5
#     Node 11, Type 0, BuildingBlock: BEQFEK_clean_sbu_0, # of connection points: 5
#     Edge 12, Type (0, 0), BuildingBlock: MIFKUJ_clean_linker_0, # of connection points: 2
#     Edge 13, Type (0, 0), BuildingBlock: MIFKUJ_clean_linker_0, # of connection points: 2
#     Edge 14, Type (0, 0), BuildingBlock: MIFKUJ_clean_linker_0, # of connection points: 2
#     Edge 15, Type (0, 0), BuildingBlock: MIFKUJ_clean_linker_0, # of connection points: 2
#     Edge 16, Type (0, 0), BuildingBlock: MIFKUJ_clean_linker_0, # of connection points: 2
#     Edge 17, Type (0, 0), BuildingBlock: MIFKUJ_clean_linker_0, # of connection points: 2
#     Edge 18, Type (0, 0), BuildingBlock: MIFKUJ_clean_linker_0, # of connection points: 2
#     Edge 19, Type (0, 0), BuildingBlock: MIFKUJ_clean_linker_0, # of connection points: 2
#     Edge 20, Type (0, 0), BuildingBlock: MIFKUJ_clean_linker_0, # of connection points: 2
#     Edge 21, Type (0, 0), BuildingBlock: MIFKUJ_clean_linker_0, # of connection points: 2
#     Edge 22, Type (0, 0), BuildingBlock: MIFKUJ_clean_linker_0, # of connection points: 2
#     Edge 23, Type (0, 0), BuildingBlock: MIFKUJ_clean_linker_0, # of connection points: 2
#     Edge 24, Type (0, 0), BuildingBlock: MIFKUJ_clean_linker_0, # of connection points: 2
#     Edge 25, Type (0, 0), BuildingBlock: MIFKUJ_clean_linker_0, # of connection points: 2
#     Edge 26, Type (0, 0), BuildingBlock: MIFKUJ_clean_linker_0, # of connection points: 2
#     Edge 27, Type (0, 0), BuildingBlock: MIFKUJ_clean_linker_0, # of connection points: 2
#     Edge 28, Type (0, 0), BuildingBlock: MIFKUJ_clean_linker_0, # of connection points: 2
#     Edge 29, Type (0, 0), BuildingBlock: MIFKUJ_clean_linker_0, # of connection points: 2
#     Edge 30, Type (0, 0), BuildingBlock: MIFKUJ_clean_linker_0, # of connection points: 2
#     Edge 31, Type (0, 0), BuildingBlock: MIFKUJ_clean_linker_0, # of connection points: 2
#     Edge 32, Type (0, 0), BuildingBlock: MIFKUJ_clean_linker_0, # of connection points: 2
#     Edge 33, Type (0, 0), BuildingBlock: MIFKUJ_clean_linker_0, # of connection points: 2
#     Edge 34, Type (0, 0), BuildingBlock: MIFKUJ_clean_linker_0, # of connection points: 2
#     Edge 35, Type (0, 0), BuildingBlock: MIFKUJ_clean_linker_0, # of connection points: 2
#     Edge 36, Type (0, 0), BuildingBlock: MIFKUJ_clean_linker_0, # of connection points: 2
#     Edge 37, Type (0, 0), BuildingBlock: MIFKUJ_clean_linker_0, # of connection points: 2
#     Edge 38, Type (0, 0), BuildingBlock: MIFKUJ_clean_linker_0, # of connection points: 2
#     Edge 39, Type (0, 0), BuildingBlock: MIFKUJ_clean_linker_0, # of connection points: 2
#     Edge 40, Type (0, 0), BuildingBlock: MIFKUJ_clean_linker_0, # of connection points: 2
#     Edge 41, Type (0, 0), BuildingBlock: MIFKUJ_clean_linker_0, # of connection points: 2
# Relax obj value: 0.490
# Max RMSD: 0.234
# Mean RMSD: 0.234
data_MOF--net-wjl--node1-BEQFEK_clean_sbu_0--edge1-MIFKUJ_clean_linker_0
_symmetry_space_group_name_H-M    P1
_symmetry_Int_Tables_number       1
_symmetry_cell_setting            triclinic
loop_
_symmetry_equiv_pos_as_xyz
'x, y, z'
_cell_length_a     34.63972
_cell_length_b     34.666944
_cell_length_c     102.26728
_cell_angle_alpha  89.979984
_cell_angle_beta   89.9769
_cell_angle_gamma 120.01292
loop_
_atom_site_label
_atom_site_type_symbol
_atom_site_fract_x
_atom_site_fract_y
_atom_site_fract_z
_atom_type_partial_charge
Co0 Co 0.37888 0.16675 0.36509 0.0
Co1 Co 0.3202 0.14324 0.34007 0.0
C2 C 0.38507 0.23605 0.34535 0.0
O3 O 0.3931 0.2232 0.35614 0.0
O4 O 0.35805 0.20817 0.3371 0.0
C5 C 0.46619 0.20985 0.37303 0.0
O6 O 0.46986 0.21592 0.3603 0.0
C7 C 0.26727 0.13295 0.31633 0.0
C8 C 0.22444 0.05971 0.31581 0.0
C9 C 0.23284 0.09837 0.30939 0.0
N10 N 0.27886 0.1152 0.32623 0.0
N11 N 0.25268 0.07151 0.32595 0.0
C12 C 0.28557 0.18193 0.31457 0.0
H13 H 0.29058 0.19817 0.32425 0.0
H14 H 0.31842 0.19656 0.30961 0.0
H15 H 0.26272 0.18881 0.30872 0.0
C16 C 0.40134 0.10235 0.35345 0.0
N17 N 0.37921 0.12505 0.35328 0.0
N18 N 0.35682 0.1169 0.34226 0.0
C19 C 0.36577 0.09023 0.33477 0.0
C20 C 0.39389 0.07977 0.3417 0.0
C21 C 0.4313 0.10462 0.36435 0.0
H22 H 0.46544 0.13272 0.36251 0.0
H23 H 0.43334 0.07384 0.36503 0.0
H24 H 0.41912 0.11002 0.37381 0.0
O25 O 0.32064 0.14168 0.37362 0.0
O26 O 0.28115 0.13181 0.35558 0.0
H27 H 0.37032 0.06809 0.31535 0.0
H28 H 0.34261 0.10057 0.31632 0.0
C29 C 0.34775 0.07506 0.32129 0.0
H30 H 0.31526 0.0437 0.322 0.0
H31 H 0.25379 0.04978 0.33281 0.0
O32 O 0.42759 0.18617 0.37795 0.0
C33 C 0.28379 0.13047 0.36797 0.0
Co34 Co 0.19933 0.38642 0.52332 0.0
Co35 Co 0.18072 0.31441 0.50203 0.0
C36 C 0.16016 0.38582 0.49692 0.0
O37 O 0.17431 0.40176 0.50822 0.0
O38 O 0.15976 0.351 0.49286 0.0
C39 C 0.24305 0.4766 0.5311 0.0
O40 O 0.25691 0.48273 0.51891 0.0
C41 C 0.14568 0.25052 0.48066 0.0
C42 C 0.18476 0.21627 0.48199 0.0
C43 C 0.1513 0.21742 0.47484 0.0
N44 N 0.17524 0.26874 0.49047 0.0
N45 N 0.19783 0.24745 0.49141 0.0
C46 C 0.10941 0.26113 0.47816 0.0
H47 H 0.09935 0.27012 0.48745 0.0
H48 H 0.122 0.29007 0.47143 0.0
H49 H 0.07975 0.2323 0.47375 0.0
C50 C 0.29055 0.40204 0.52095 0.0
N51 N 0.24701 0.37861 0.51791 0.0
N52 N 0.24117 0.35228 0.50792 0.0
C53 C 0.28169 0.36055 0.50375 0.0
C54 C 0.31431 0.39226 0.51193 0.0
C55 C 0.30885 0.43191 0.53262 0.0
H56 H 0.28335 0.42076 0.54046 0.0
H57 H 0.31865 0.46651 0.52983 0.0
H58 H 0.3389 0.43193 0.53639 0.0
O59 O 0.15288 0.33288 0.53182 0.0
O60 O 0.1394 0.28152 0.51682 0.0
H61 H 0.29489 0.31529 0.49316 0.0
H62 H 0.32025 0.3702 0.48629 0.0
C63 C 0.2897 0.34381 0.49114 0.0
H64 H 0.26088 0.33294 0.48446 0.0
H65 H 0.22167 0.25372 0.49857 0.0
O66 O 0.21878 0.43722 0.53539 0.0
C67 C 0.13158 0.29269 0.52794 0.0
Co68 Co 0.87384 0.24864 0.69221 0.0
Co69 Co 0.8975 0.19829 0.6712 0.0
C70 C 0.80413 0.17366 0.67565 0.0
O71 O 0.81702 0.20148 0.68498 0.0
O72 O 0.83188 0.16939 0.66853 0.0
C73 C 0.82793 0.2934 0.69767 0.0
O74 O 0.81682 0.2825 0.68538 0.0
C75 C 0.90903 0.16455 0.64606 0.0
C76 C 0.96092 0.14753 0.65087 0.0
C77 C 0.93385 0.14679 0.64077 0.0
N78 N 0.92078 0.1748 0.65864 0.0
N79 N 0.95157 0.16427 0.66149 0.0
C80 C 0.8768 0.17452 0.63923 0.0
H81 H 0.87239 0.19951 0.64481 0.0
H82 H 0.88862 0.18711 0.62919 0.0
H83 H 0.84394 0.14354 0.63854 0.0
C84 C 0.93854 0.3264 0.67711 0.0
N85 N 0.91486 0.28216 0.67902 0.0
N86 N 0.92519 0.26182 0.66996 0.0
C87 C 0.95552 0.29291 0.66181 0.0
C88 C 0.96496 0.33473 0.66614 0.0
C89 C 0.93499 0.35983 0.68552 0.0
H90 H 0.93416 0.3509 0.69597 0.0
H91 H 0.90344 0.35926 0.68321 0.0
H92 H 0.96297 0.39411 0.68387 0.0
O93 O 0.89913 0.22133 0.70336 0.0
O94 O 0.90997 0.18057 0.68864 0.0
H95 H 0.98749 0.2596 0.65336 0.0
H96 H 0.0047 0.31392 0.64639 0.0
C97 C 0.9761 0.28304 0.65038 0.0
H98 H 0.9507 0.26687 0.6426 0.0
H99 H 0.96638 0.16875 0.67066 0.0
O100 O 0.85613 0.28482 0.70288 0.0
C101 C 0.91089 0.19305 0.70041 0.0
Co102 Co 0.63324 0.83836 0.86446 0.0
Co103 Co 0.70316 0.88027 0.84189 0.0
C104 C 0.63453 0.78623 0.84066 0.0
O105 O 0.62101 0.79048 0.85184 0.0
O106 O 0.66626 0.81927 0.83478 0.0
C107 C 0.54296 0.79041 0.87136 0.0
O108 O 0.53938 0.78383 0.85867 0.0
C109 C 0.75881 0.91193 0.81801 0.0
C110 C 0.81061 0.9788 0.82462 0.0
C111 C 0.79751 0.95 0.81406 0.0
N112 N 0.74952 0.9183 0.83032 0.0
N113 N 0.78078 0.95814 0.83422 0.0
C114 C 0.73268 0.86917 0.81067 0.0
H115 H 0.72573 0.84075 0.81714 0.0
H116 H 0.70025 0.86553 0.80765 0.0
H117 H 0.75097 0.86786 0.80193 0.0
C118 C 0.61736 0.91148 0.85725 0.0
N119 N 0.63953 0.88914 0.85584 0.0
N120 N 0.66681 0.90542 0.84582 0.0
C121 C 0.66175 0.93783 0.84021 0.0
C122 C 0.63017 0.94276 0.8473 0.0
C123 C 0.58571 0.90397 0.86822 0.0
H124 H 0.59683 0.89467 0.87726 0.0
H125 H 0.55208 0.87637 0.8656 0.0
H126 H 0.58349 0.93432 0.87014 0.0
O127 O 0.68725 0.85209 0.8741 0.0
O128 O 0.73554 0.8783 0.85767 0.0
H129 H 0.71708 0.98929 0.82984 0.0
H130 H 0.66375 0.97282 0.82248 0.0
C131 C 0.68363 0.96052 0.82767 0.0
H132 H 0.68786 0.9372 0.82121 0.0
H133 H 0.78162 0.97126 0.84347 0.0
O134 O 0.5814 0.81405 0.87637 0.0
C135 C 0.72652 0.86744 0.86963 0.0
Co136 Co 0.79915 0.63033 0.02803 0.0
Co137 Co 0.83351 0.70693 0.00729 0.0
C138 C 0.85002 0.63197 0.00382 0.0
O139 O 0.82885 0.61476 0.01435 0.0
O140 O 0.8564 0.66931 -0.00035 0.0
C141 C 0.754 0.5391 0.03484 0.0
O142 O 0.75381 0.53475 0.02208 0.0
C143 C 0.85917 0.76157 0.9835 0.0
C144 C 0.86492 0.82401 0.99103 0.0
C145 C 0.87122 0.80486 0.97995 0.0
N146 N 0.84721 0.75588 0.99615 0.0
N147 N 0.8507 0.79328 0.0006 0.0
C148 C 0.85628 0.72519 0.97494 0.0
H149 H 0.88891 0.72642 0.97497 0.0
H150 H 0.83057 0.69218 0.97869 0.0
H151 H 0.8479 0.72916 0.96474 0.0
C152 C 0.71289 0.62121 0.02084 0.0
N153 N 0.75756 0.64276 0.02012 0.0
N154 N 0.77099 0.67258 0.0107 0.0
C155 C 0.73487 0.67009 0.00486 0.0
C156 C 0.69672 0.63714 0.01107 0.0
C157 C 0.68628 0.58575 0.0307 0.0
H158 H 0.70447 0.59363 0.04013 0.0
H159 H 0.68131 0.55335 0.02714 0.0
H160 H 0.65315 0.58267 0.03228 0.0
O161 O 0.8437 0.68131 0.03817 0.0
O162 O 0.86672 0.73543 0.02347 0.0
H163 H 0.7474 0.73029 0.9955 0.0
H164 H 0.70453 0.68042 0.98767 0.0
C165 C 0.7371 0.69547 0.99277 0.0
H166 H 0.76258 0.69641 0.98602 0.0
H167 H 0.84393 0.79797 0.01022 0.0
O168 O 0.77033 0.57787 0.03973 0.0
C169 C 0.86817 0.7219 0.0349 0.0
Co170 Co 0.16425 0.78902 0.2048 0.0
Co171 Co 0.13364 0.82205 0.18061 0.0
C172 C 0.22559 0.84103 0.18219 0.0
O173 O 0.21604 0.82172 0.19322 0.0
O174 O 0.19647 0.84428 0.17547 0.0
C175 C 0.20404 0.74024 0.21128 0.0
O176 O 0.20138 0.73652 0.19848 0.0
C177 C 0.11405 0.8436 0.15461 0.0
C178 C 0.05671 0.85301 0.15898 0.0
C179 C 0.0848 0.8552 0.14902 0.0
N180 N 0.10371 0.83504 0.16733 0.0
N181 N 0.06949 0.84076 0.16989 0.0
C182 C 0.15366 0.84457 0.14838 0.0
H183 H 0.18443 0.87306 0.15243 0.0
H184 H 0.15419 0.81368 0.15088 0.0
H185 H 0.15412 0.8486 0.13763 0.0
C186 C 0.09063 0.70243 0.1961 0.0
N187 N 0.11499 0.74696 0.19508 0.0
N188 N 0.10368 0.75985 0.18436 0.0
C189 C 0.07247 0.72351 0.17797 0.0
C190 C 0.06343 0.68583 0.18519 0.0
C191 C 0.09274 0.67622 0.20744 0.0
H192 H 0.10222 0.69664 0.21647 0.0
H193 H 0.11802 0.66627 0.20547 0.0
H194 H 0.06006 0.64548 0.20891 0.0
O195 O 0.15113 0.83167 0.21355 0.0
O196 O 0.13241 0.85617 0.19597 0.0
H197 H 0.03212 0.73862 0.16564 0.0
H198 H 0.03677 0.69149 0.16018 0.0
C199 C 0.05493 0.72497 0.16473 0.0
H200 H 0.08292 0.74765 0.15829 0.0
H201 H 0.05523 0.83682 0.17913 0.0
O202 O 0.18614 0.76 0.21701 0.0
C203 C 0.13911 0.85721 0.20823 0.0
Co204 Co 0.82959 0.62486 0.46474 0.0
Co205 Co 0.87525 0.69714 0.48651 0.0
C206 C 0.78302 0.62397 0.49004 0.0
O207 O 0.78563 0.60932 0.47887 0.0
O208 O 0.81565 0.6591 0.49487 0.0
C209 C 0.78319 0.53446 0.45741 0.0
O210 O 0.78017 0.52909 0.47016 0.0
C211 C 0.9085 0.76409 0.50778 0.0
C212 C 0.97796 0.80708 0.50109 0.0
C213 C 0.94789 0.8032 0.51065 0.0
N214 N 0.9154 0.74583 0.49706 0.0
N215 N 0.95683 0.77192 0.49308 0.0
C216 C 0.86394 0.74686 0.51414 0.0
H217 H 0.83736 0.73358 0.5066 0.0
H218 H 0.85778 0.71919 0.52085 0.0
H219 H 0.8623 0.7734 0.51974 0.0
C220 C 0.90684 0.6134 0.46955 0.0
N221 N 0.88381 0.63451 0.47172 0.0
N222 N 0.90194 0.66249 0.48153 0.0
C223 C 0.93668 0.65904 0.48613 0.0
C224 C 0.94082 0.62794 0.47862 0.0
C225 C 0.89615 0.57921 0.45912 0.0
H226 H 0.88381 0.58791 0.45023 0.0
H227 H 0.86989 0.54624 0.46274 0.0
H228 H 0.92597 0.5767 0.45656 0.0
O229 O 0.83692 0.67764 0.45542 0.0
O230 O 0.86801 0.7277 0.4712 0.0
H231 H 0.99251 0.71358 0.49535 0.0
H232 H 0.97435 0.66079 0.5031 0.0
C233 C 0.9627 0.68165 0.49816 0.0
H234 H 0.94214 0.68864 0.50501 0.0
H235 H 0.97034 0.76623 0.48468 0.0
O236 O 0.80421 0.57362 0.4527 0.0
C237 C 0.85301 0.71726 0.45963 0.0
Co238 Co 0.24647 0.87279 0.62145 0.0
Co239 Co 0.20128 0.88972 0.64537 0.0
C240 C 0.17679 0.79847 0.63839 0.0
O241 O 0.2025 0.81447 0.6286 0.0
O242 O 0.17321 0.82388 0.64666 0.0
C243 C 0.29219 0.83062 0.61304 0.0
O244 O 0.29025 0.82253 0.62565 0.0
C245 C 0.17202 0.89862 0.67187 0.0
C246 C 0.14949 0.94689 0.66776 0.0
C247 C 0.15238 0.92097 0.67756 0.0
N248 N 0.18015 0.91079 0.65923 0.0
N249 N 0.16662 0.93964 0.65687 0.0
C250 C 0.18033 0.86434 0.67809 0.0
H251 H 0.15331 0.84385 0.68513 0.0
H252 H 0.18297 0.8427 0.67062 0.0
H253 H 0.21224 0.8812 0.68354 0.0
C254 C 0.3281 0.93569 0.63549 0.0
N255 N 0.28347 0.91131 0.63463 0.0
N256 N 0.26526 0.91865 0.64495 0.0
C257 C 0.29825 0.94777 0.65286 0.0
C258 C 0.33909 0.95956 0.64709 0.0
C259 C 0.35921 0.93429 0.62556 0.0
H260 H 0.36236 0.90445 0.62738 0.0
H261 H 0.39304 0.96376 0.62604 0.0
H262 H 0.34562 0.93182 0.61559 0.0
O263 O 0.21624 0.90002 0.61243 0.0
O264 O 0.17869 0.90469 0.62939 0.0
H265 H 0.32215 0.99448 0.66895 0.0
H266 H 0.27866 0.93867 0.67289 0.0
C267 C 0.2909 0.96532 0.6654 0.0
H268 H 0.26514 0.97501 0.664 0.0
H269 H 0.16855 0.95404 0.64776 0.0
O270 O 0.27847 0.85614 0.6088 0.0
C271 C 0.18819 0.9095 0.61727 0.0
Co272 Co 0.39949 0.22482 0.78646 0.0
Co273 Co 0.33164 0.19462 0.80971 0.0
C274 C 0.40621 0.17742 0.81067 0.0
O275 O 0.41825 0.1952 0.79944 0.0
O276 O 0.37213 0.17426 0.81639 0.0
C277 C 0.48868 0.27216 0.77893 0.0
O278 O 0.49272 0.27615 0.7917 0.0
C279 C 0.27969 0.16878 0.83432 0.0
C280 C 0.22285 0.17709 0.82842 0.0
C281 C 0.23976 0.16435 0.83877 0.0
N282 N 0.28607 0.18385 0.82194 0.0
N283 N 0.25179 0.18831 0.81846 0.0
C284 C 0.30927 0.15522 0.84115 0.0
H285 H 0.31632 0.13415 0.83455 0.0
H286 H 0.34145 0.18541 0.84355 0.0
H287 H 0.29367 0.136 0.85019 0.0
C288 C 0.40965 0.3125 0.79312 0.0
N289 N 0.39045 0.26818 0.79482 0.0
N290 N 0.36402 0.25619 0.80509 0.0
C291 C 0.3667 0.29288 0.81053 0.0
C292 C 0.39553 0.32977 0.80307 0.0
C293 C 0.44413 0.33814 0.78291 0.0
H294 H 0.47737 0.34621 0.78667 0.0
H295 H 0.44548 0.36987 0.78044 0.0
H296 H 0.43691 0.31799 0.77389 0.0
O297 O 0.34447 0.18071 0.77754 0.0
O298 O 0.29842 0.1583 0.79451 0.0
H299 H 0.35494 0.32643 0.82666 0.0
H300 H 0.34574 0.27112 0.83021 0.0
C301 C 0.34249 0.29247 0.8227 0.0
H302 H 0.3066 0.27799 0.82042 0.0
H303 H 0.24815 0.19896 0.80924 0.0
O304 O 0.44982 0.25202 0.77396 0.0
C305 C 0.30601 0.15593 0.78247 0.0
Co306 Co 0.16669 0.39792 0.95806 0.0
Co307 Co 0.14269 0.32714 0.98008 0.0
C308 C 0.23228 0.40572 0.97905 0.0
O309 O 0.22093 0.41828 0.9688 0.0
O310 O 0.205 0.37011 0.98499 0.0
C311 C 0.19982 0.4874 0.95179 0.0
O312 O 0.20337 0.49031 0.96459 0.0
C313 C 0.12423 0.28155 0.00542 0.0
C314 C 0.08214 0.21128 -0.0006 0.0
C315 C 0.10159 0.23816 0.01022 0.0
N316 N 0.11853 0.28 0.99241 0.0
N317 N 0.09364 0.23794 0.98886 0.0
C318 C 0.14854 0.32413 0.01296 0.0
H319 H 0.15288 0.35265 0.00692 0.0
H320 H 0.13018 0.32222 0.02205 0.0
H321 H 0.18206 0.32996 0.01565 0.0
C322 C 0.08792 0.39842 0.96846 0.0
N323 N 0.11686 0.38336 0.96864 0.0
N324 N 0.10731 0.35537 0.97846 0.0
C325 C 0.0725 0.35307 0.98513 0.0
C326 C 0.05908 0.38013 0.97894 0.0
C327 C 0.08968 0.43181 0.95882 0.0
H328 H 0.10008 0.42613 0.9491 0.0
H329 H 0.11434 0.4657 0.96223 0.0
H330 H 0.05707 0.43015 0.95782 0.0
O331 O 0.1552 0.34613 0.94745 0.0
O332 O 0.14284 0.29782 0.96345 0.0
H333 H 0.04731 0.2918 0.99573 0.0
H334 H 0.02025 0.32357 -0.00036 0.0
C335 C 0.05251 0.32576 -0.00283 0.0
H336 H 0.07581 0.34135 0.00548 0.0
H337 H 0.08432 0.22744 0.97925 0.0
O338 O 0.18176 0.44912 0.94649 0.0
C339 C 0.14682 0.30794 0.95139 0.0
Co340 Co 0.78674 0.1705 0.12793 0.0
Co341 Co 0.82408 0.13454 0.14962 0.0
C342 C 0.83602 0.2241 0.15205 0.0
O343 O 0.8155 0.21789 0.14124 0.0
O344 O 0.84293 0.19435 0.15703 0.0
C345 C 0.7363 0.21038 0.12003 0.0
O346 O 0.73428 0.21537 0.1327 0.0
C347 C 0.86331 0.10887 0.1714 0.0
C348 C 0.83868 0.03846 0.1662 0.0
C349 C 0.86467 0.07103 0.17521 0.0
N350 N 0.83749 0.09874 0.16068 0.0
N351 N 0.82321 0.05673 0.1576 0.0
C352 C 0.88872 0.15467 0.17709 0.0
H353 H 0.90072 0.17986 0.16916 0.0
H354 H 0.8662 0.16042 0.18349 0.0
H355 H 0.91765 0.15892 0.1829 0.0
C356 C 0.70245 0.09257 0.13551 0.0
N357 N 0.74708 0.11679 0.13611 0.0
N358 N 0.76136 0.10392 0.14619 0.0
C359 C 0.7257 0.07228 0.15276 0.0
C360 C 0.68704 0.0641 0.14621 0.0
C361 C 0.67527 0.09699 0.12485 0.0
H362 H 0.69399 0.10564 0.1155 0.0
H363 H 0.66824 0.12399 0.12734 0.0
H364 H 0.64309 0.06552 0.12363 0.0
O365 O 0.83223 0.16551 0.11813 0.0
O366 O 0.86009 0.142 0.13364 0.0
H367 H 0.72939 0.02383 0.16475 0.0
H368 H 0.69901 0.04794 0.17202 0.0
C369 C 0.72847 0.05517 0.16596 0.0
H370 H 0.75921 0.0798 0.1711 0.0
H371 H 0.80309 0.04065 0.14954 0.0
O372 O 0.75591 0.19021 0.11578 0.0
C373 C 0.86003 0.15413 0.12191 0.0
Co374 Co 0.64606 0.8015 0.29263 0.0
Co375 Co 0.71345 0.83981 0.31582 0.0
C376 C 0.65031 0.87154 0.3112 0.0
O377 O 0.6378 0.84844 0.30081 0.0
O378 O 0.67849 0.87016 0.31885 0.0
C379 C 0.55778 0.76443 0.28521 0.0
O380 O 0.55616 0.77416 0.29755 0.0
C381 C 0.74882 0.85724 0.3425 0.0
C382 C 0.8212 0.88687 0.33899 0.0
C383 C 0.78977 0.87607 0.34875 0.0
N384 N 0.75573 0.85694 0.32959 0.0
N385 N 0.79904 0.87475 0.32755 0.0
C386 C 0.70433 0.84335 0.34852 0.0
H387 H 0.70594 0.87188 0.35392 0.0
H388 H 0.67799 0.83164 0.34093 0.0
H389 H 0.6954 0.81609 0.35564 0.0
C390 C 0.62239 0.71652 0.30563 0.0
N391 N 0.64615 0.76127 0.30511 0.0
N392 N 0.67513 0.77642 0.31478 0.0
C393 C 0.67065 0.74132 0.32178 0.0
C394 C 0.6371 0.70224 0.3162 0.0
C395 C 0.58491 0.68856 0.29646 0.0
H396 H 0.55718 0.69512 0.29825 0.0
H397 H 0.57155 0.65242 0.2978 0.0
H398 H 0.59627 0.69792 0.28621 0.0
O399 O 0.7026 0.82934 0.28297 0.0
O400 O 0.74922 0.86322 0.29952 0.0
H401 H 0.69914 0.71289 0.33471 0.0
H402 H 0.68684 0.75271 0.34205 0.0
C403 C 0.69954 0.74476 0.3331 0.0
H404 H 0.73427 0.77175 0.33137 0.0
H405 H 0.81357 0.87916 0.31832 0.0
O406 O 0.59474 0.77141 0.28051 0.0
C407 C 0.74163 0.85505 0.28737 0.0
H408 H 0.44924 0.09761 0.32086 0.0
H409 H 0.49176 0.06058 0.3152 0.0
H410 H 0.43206 0.97059 0.3477 0.0
H411 H 0.38768 0.0059 0.35294 0.0
H412 H 0.54165 0.03507 0.34287 0.0
H413 H 0.39666 0.91564 0.32702 0.0
H414 H 0.32865 0.88848 0.31368 0.0
H415 H 0.40849 0.94033 0.27904 0.0
H416 H 0.47701 0.96844 0.29224 0.0
H417 H 0.63158 0.89098 0.33547 0.0
H418 H 0.588 0.92703 0.34054 0.0
H419 H 0.57985 0.94968 0.29935 0.0
H420 H 0.62102 0.91147 0.29428 0.0
H421 H 0.50337 0.92006 0.30869 0.0
H422 H 0.64703 0.0354 0.32247 0.0
H423 H 0.71839 0.0692 0.33441 0.0
H424 H 0.64805 0.03497 0.37099 0.0
H425 H 0.57622 0.00042 0.35926 0.0
C426 C 0.44429 0.06909 0.32653 0.0
C427 C 0.41526 0.05439 0.3373 0.0
C428 C 0.46881 0.04833 0.32338 0.0
C429 C 0.465 0.01312 0.33109 0.0
C430 C 0.43535 0.9978 0.34168 0.0
C431 C 0.41018 0.01793 0.34466 0.0
C432 C 0.49356 0.99369 0.32844 0.0
C433 C 0.53325 0.0095 0.33553 0.0
C434 C 0.48301 0.96163 0.31856 0.0
C435 C 0.44189 0.94466 0.31064 0.0
C436 C 0.3997 0.92172 0.31659 0.0
C437 C 0.36107 0.90603 0.30904 0.0
C438 C 0.36425 0.91282 0.29552 0.0
C439 C 0.40607 0.93519 0.28952 0.0
C440 C 0.44481 0.95098 0.29702 0.0
C441 C 0.62098 0.90428 0.32755 0.0
C442 C 0.62957 0.89846 0.3145 0.0
C443 C 0.59618 0.92501 0.33043 0.0
C444 C 0.58079 0.94148 0.32033 0.0
C445 C 0.59096 0.93704 0.30732 0.0
C446 C 0.61471 0.91541 0.30443 0.0
C447 C 0.55213 0.96116 0.32317 0.0
C448 C 0.51224 0.94557 0.31608 0.0
C449 C 0.5631 0.99419 0.33289 0.0
C450 C 0.60623 0.01492 0.33998 0.0
C451 C 0.64677 0.03476 0.33306 0.0
C452 C 0.6873 0.05411 0.33979 0.0
C453 C 0.68775 0.05412 0.35345 0.0
C454 C 0.64765 0.03488 0.36041 0.0
C455 C 0.60702 0.01544 0.35373 0.0
H456 H 0.71917 0.06912 0.35865 0.0
H457 H 0.3343 0.90063 0.2897 0.0
H458 H 0.3719 0.48156 0.5132 0.0
H459 H 0.45286 0.52063 0.51218 0.0
H460 H 0.4492 0.39618 0.50493 0.0
H461 H 0.36757 0.35632 0.50693 0.0
H462 H 0.51361 0.44371 0.52141 0.0
H463 H 0.46944 0.47392 0.48023 0.0
H464 H 0.42998 0.49789 0.46513 0.0
H465 H 0.49847 0.6293 0.48166 0.0
H466 H 0.53789 0.60594 0.49699 0.0
H467 H 0.72563 0.53514 0.49021 0.0
H468 H 0.64781 0.49673 0.49716 0.0
H469 H 0.66329 0.62082 0.51138 0.0
H470 H 0.74198 0.65959 0.50455 0.0
H471 H 0.5943 0.57581 0.49265 0.0
H472 H 0.64312 0.5432 0.53285 0.0
H473 H 0.68368 0.51651 0.5465 0.0
H474 H 0.6076 0.38593 0.52977 0.0
H475 H 0.567 0.41199 0.51588 0.0
C476 C 0.38828 0.46232 0.51164 0.0
C477 C 0.36344 0.41576 0.51037 0.0
C478 C 0.43465 0.48485 0.51083 0.0
C479 C 0.45728 0.46152 0.50832 0.0
C480 C 0.43251 0.41494 0.50688 0.0
C481 C 0.38591 0.39223 0.50789 0.0
C482 C 0.50673 0.48596 0.50725 0.0
C483 C 0.53119 0.47226 0.515 0.0
C484 C 0.52987 0.52383 0.49909 0.0
C485 C 0.50629 0.53804 0.48985 0.0
C486 C 0.47583 0.50784 0.48071 0.0
C487 C 0.45351 0.52133 0.4721 0.0
C488 C 0.46162 0.56506 0.47246 0.0
C489 C 0.49217 0.59542 0.48141 0.0
C490 C 0.51454 0.58209 0.49006 0.0
C491 C 0.71279 0.55406 0.49514 0.0
C492 C 0.73969 0.60032 0.49683 0.0
C493 C 0.66836 0.53204 0.49913 0.0
C494 C 0.64982 0.55593 0.50477 0.0
C495 C 0.67713 0.60183 0.50707 0.0
C496 C 0.72203 0.62385 0.50326 0.0
C497 C 0.60098 0.5336 0.50681 0.0
C498 C 0.57663 0.54754 0.49916 0.0
C499 C 0.57804 0.49552 0.51485 0.0
C500 C 0.60223 0.47967 0.52325 0.0
C501 C 0.63527 0.50888 0.53201 0.0
C502 C 0.65822 0.49384 0.5398 0.0
C503 C 0.64828 0.44958 0.53898 0.0
C504 C 0.61528 0.42022 0.53039 0.0
C505 C 0.59224 0.43509 0.52257 0.0
H506 H 0.6661 0.438 0.54503 0.0
H507 H 0.44431 0.57544 0.46578 0.0
H508 H 0.1707 0.7362 0.62103 0.0
H509 H 0.13419 0.65591 0.62402 0.0
H510 H 0.09153 0.66869 0.66257 0.0
H511 H 0.12744 0.74975 0.65961 0.0
H512 H 0.15565 0.61266 0.64368 0.0
H513 H 0.98861 0.57333 0.66663 0.0
H514 H 0.93583 0.60158 0.66621 0.0
H515 H 0.97727 0.65043 0.62715 0.0
H516 H 0.03 0.62218 0.62732 0.0
H517 H 0.04169 0.40159 0.67616 0.0
H518 H 0.08081 0.47963 0.66908 0.0
H519 H 0.99123 0.44503 0.63625 0.0
H520 H 0.95203 0.36686 0.64341 0.0
H521 H 0.99369 0.51169 0.65079 0.0
H522 H 0.10095 0.48039 0.63094 0.0
H523 H 0.15494 0.45379 0.62985 0.0
H524 H 0.23307 0.54552 0.66014 0.0
H525 H 0.17927 0.5723 0.66152 0.0
C526 C 0.15348 0.72216 0.63016 0.0
C527 C 0.15226 0.74952 0.64014 0.0
C528 C 0.13291 0.67623 0.63186 0.0
C529 C 0.11086 0.65658 0.64355 0.0
C530 C 0.10849 0.68341 0.65345 0.0
C531 C 0.12899 0.72962 0.65175 0.0
C532 C 0.09153 0.60807 0.64542 0.0
C533 C 0.12025 0.59049 0.64524 0.0
C534 C 0.04537 0.57932 0.64728 0.0
C535 C 0.01346 0.59599 0.64704 0.0
C536 C 0.98633 0.58999 0.65795 0.0
C537 C 0.95647 0.60604 0.65776 0.0
C538 C 0.95329 0.62789 0.64668 0.0
C539 C 0.97989 0.63366 0.63575 0.0
C540 C 0.00983 0.61773 0.6359 0.0
C541 C 0.0314 0.41063 0.66721 0.0
C542 C 0.99419 0.37869 0.66026 0.0
C543 C 0.05363 0.45508 0.66318 0.0
C544 C 0.03887 0.46812 0.65215 0.0
C545 C 0.00308 0.43562 0.6448 0.0
C546 C 0.98099 0.39108 0.6488 0.0
C547 C 0.05783 0.51603 0.64909 0.0
C548 C 0.02909 0.53367 0.64916 0.0
C549 C 0.104 0.54478 0.64702 0.0
C550 C 0.13588 0.52806 0.64641 0.0
C551 C 0.12941 0.49457 0.63746 0.0
C552 C 0.16005 0.47955 0.63676 0.0
C553 C 0.19736 0.49789 0.64493 0.0
C554 C 0.20412 0.53129 0.65383 0.0
C555 C 0.17358 0.54641 0.65456 0.0
H556 H 0.22108 0.48628 0.64436 0.0
H557 H 0.93015 0.64028 0.64655 0.0
H558 H 0.37674 0.10495 0.82669 0.0
H559 H 0.41979 0.07114 0.83455 0.0
H560 H 0.53864 0.17795 0.81689 0.0
H561 H 0.49515 0.21009 0.80839 0.0
H562 H 0.53541 0.10661 0.81081 0.0
H563 H 0.51925 0.16366 0.85154 0.0
H564 H 0.48029 0.17722 0.86958 0.0
H565 H 0.40432 0.0368 0.87735 0.0
H566 H 0.44239 0.02231 0.85924 0.0
H567 H 0.67412 0.03117 0.84081 0.0
H568 H 0.64092 0.07785 0.836 0.0
H569 H 0.50973 0.96506 0.84254 0.0
H570 H 0.54244 0.91817 0.84684 0.0
H571 H 0.52605 0.04552 0.8553 0.0
H572 H 0.54229 0.99177 0.81283 0.0
H573 H 0.58592 0.98202 0.79541 0.0
H574 H 0.6687 0.12394 0.79198 0.0
H575 H 0.62596 0.13452 0.80954 0.0
C576 C 0.41216 0.12139 0.82466 0.0
C577 C 0.43263 0.1599 0.81689 0.0
C578 C 0.43686 0.10225 0.82921 0.0
C579 C 0.4827 0.12216 0.82642 0.0
C580 C 0.50336 0.16173 0.81911 0.0
C581 C 0.47851 0.18016 0.81429 0.0
C582 C 0.50849 0.10024 0.83026 0.0
C583 C 0.53397 0.09414 0.82063 0.0
C584 C 0.5064 0.08334 0.84302 0.0
C585 C 0.48344 0.09189 0.85395 0.0
C586 C 0.49401 0.13564 0.85703 0.0
C587 C 0.47212 0.1435 0.86728 0.0
C588 C 0.43978 0.10789 0.87459 0.0
C589 C 0.42935 0.06435 0.87168 0.0
C590 C 0.45111 0.0563 0.86143 0.0
C591 C 0.63822 0.01641 0.84111 0.0
C592 C 0.61081 0.97124 0.84429 0.0
C593 C 0.61938 0.04306 0.83846 0.0
C594 C 0.57295 0.02481 0.83901 0.0
C595 C 0.54565 0.97979 0.84222 0.0
C596 C 0.56439 0.95313 0.84472 0.0
C597 C 0.55229 0.05199 0.83584 0.0
C598 C 0.52778 0.05881 0.84557 0.0
C599 C 0.55594 0.07032 0.82327 0.0
C600 C 0.58124 0.06393 0.8126 0.0
C601 C 0.57002 0.02089 0.80844 0.0
C602 C 0.59456 0.01522 0.79852 0.0
C603 C 0.63013 0.05234 0.79261 0.0
C604 C 0.64118 0.09522 0.79658 0.0
C605 C 0.6168 0.10108 0.80651 0.0
H606 H 0.64904 0.04787 0.78493 0.0
H607 H 0.42287 0.11404 0.88252 0.0
H608 H 0.63746 0.5495 0.00748 0.0
H609 H 0.55874 0.51503 0.00215 0.0
H610 H 0.5713 0.645 -0.00121 0.0
H611 H 0.65019 0.67969 0.00515 0.0
H612 H 0.49791 0.59254 0.01105 0.0
H613 H 0.56113 0.57956 0.97138 0.0
H614 H 0.60736 0.56227 0.95689 0.0
H615 H 0.53076 0.42413 0.96751 0.0
H616 H 0.48444 0.44066 0.98221 0.0
H617 H 0.28902 0.49415 0.97495 0.0
H618 H 0.36791 0.53756 0.98091 0.0
H619 H 0.35977 0.42147 -0.00093 0.0
H620 H 0.28034 0.37791 0.99345 0.0
H621 H 0.43053 0.47156 0.97808 0.0
H622 H 0.36936 0.4904 0.01876 0.0
H623 H 0.32293 0.51166 0.03175 0.0
H624 H 0.39628 0.64496 0.01666 0.0
H625 H 0.44273 0.62427 0.00341 0.0
C626 C 0.62338 0.57076 0.00578 0.0
C627 C 0.64972 0.61722 0.00688 0.0
C628 C 0.57846 0.55104 0.00251 0.0
C629 C 0.55912 0.57737 -0.00017 0.0
C630 C 0.58552 0.62398 0.00077 0.0
C631 C 0.63055 0.64378 0.00429 0.0
C632 C 0.51105 0.55568 0.99644 0.0
C633 C 0.48339 0.56664 0.00368 0.0
C634 C 0.49184 0.52164 0.98686 0.0
C635 C 0.51949 0.51143 0.97798 0.0
C636 C 0.55432 0.54553 0.97069 0.0
C637 C 0.58052 0.53586 0.96243 0.0
C638 C 0.57205 0.49214 0.9613 0.0
C639 C 0.53729 0.45798 0.9684 0.0
C640 C 0.51101 0.46747 0.97669 0.0
C641 C 0.30388 0.47798 0.98036 0.0
C642 C 0.27863 0.43261 0.98371 0.0
C643 C 0.34884 0.50285 0.98376 0.0
C644 C 0.3694 0.48258 0.99039 0.0
C645 C 0.34423 0.43754 0.99396 0.0
C646 C 0.29896 0.41283 0.99079 0.0
C647 C 0.41782 0.50781 0.9929 0.0
C648 C 0.44539 0.49763 0.9854 0.0
C649 C 0.43695 0.54317 0.00198 0.0
C650 C 0.40917 0.55564 0.00998 0.0
C651 C 0.37529 0.52411 0.01811 0.0
C652 C 0.34904 0.53609 0.02554 0.0
C653 C 0.35656 0.57959 0.025 0.0
C654 C 0.39044 0.61125 0.01705 0.0
C655 C 0.41676 0.59943 0.00959 0.0
H656 H 0.33621 0.58881 0.03076 0.0
H657 H 0.59239 0.48472 0.9549 0.0
H658 H 0.09285 0.62688 0.1846 0.0
H659 H 0.05029 0.54748 0.17989 0.0
H660 H 0.93411 0.55873 0.17158 0.0
H661 H 0.97657 0.63857 0.17702 0.0
H662 H 0.91169 0.48697 0.18604 0.0
H663 H 0.99447 0.54635 0.14691 0.0
H664 H 0.06063 0.59136 0.13318 0.0
H665 H 0.1206 0.51675 0.1472 0.0
H666 H 0.05505 0.47167 0.16117 0.0
H667 H 0.80283 0.28019 0.15053 0.0
H668 H 0.8383 0.3575 0.1579 0.0
H669 H 0.9463 0.34566 0.17453 0.0
H670 H 0.91043 0.26763 0.16736 0.0
H671 H 0.97046 0.41709 0.15562 0.0
H672 H 0.88315 0.35694 0.19475 0.0
H673 H 0.81391 0.31181 0.20725 0.0
H674 H 0.75833 0.38792 0.19122 0.0
H675 H 0.82703 0.43312 0.17847 0.0
C676 C 0.05813 0.61237 0.18187 0.0
C677 C 0.03776 0.63857 0.18128 0.0
C678 C 0.03397 0.56709 0.17902 0.0
C679 C 0.98914 0.54721 0.17522 0.0
C680 C 0.96872 0.57344 0.17447 0.0
C681 C 0.99295 0.61894 0.17746 0.0
C682 C 0.96382 0.49882 0.17233 0.0
C683 C 0.92418 0.47179 0.17923 0.0
C684 C 0.98046 0.47891 0.16359 0.0
C685 C 0.01997 0.50586 0.15517 0.0
C686 C 0.02191 0.53975 0.14714 0.0
C687 C 0.05928 0.56525 0.1393 0.0
C688 C 0.09484 0.55698 0.13934 0.0
C689 C 0.09304 0.52313 0.14719 0.0
C690 C 0.05576 0.49756 0.15506 0.0
C691 C 0.8337 0.29377 0.15598 0.0
C692 C 0.85406 0.26807 0.15833 0.0
C693 C 0.85381 0.33785 0.16021 0.0
C694 C 0.89484 0.35712 0.16672 0.0
C695 C 0.91452 0.33114 0.16952 0.0
C696 C 0.89396 0.28665 0.16549 0.0
C697 C 0.91892 0.40543 0.16946 0.0
C698 C 0.95815 0.43241 0.16244 0.0
C699 C 0.90143 0.42525 0.17788 0.0
C700 C 0.8601 0.39813 0.18555 0.0
C701 C 0.85601 0.36379 0.19379 0.0
C702 C 0.81689 0.33825 0.20094 0.0
C703 C 0.7817 0.34692 0.20001 0.0
C704 C 0.7856 0.38121 0.19193 0.0
C705 C 0.82464 0.40683 0.18474 0.0
H706 H 0.75144 0.32712 0.20556 0.0
H707 H 0.12375 0.57676 0.13326 0.0
H708 H 0.20541 0.46379 0.48383 0.0
H709 H 0.17427 0.50899 0.47563 0.0
H710 H 0.04197 0.4034 0.48552 0.0
H711 H 0.07302 0.35735 0.49297 0.0
H712 H 0.03995 0.4506 0.46454 0.0
H713 H 0.10494 0.48798 0.50952 0.0
H714 H 0.16949 0.50686 0.52383 0.0
H715 H 0.25346 0.61684 0.4988 0.0
H716 H 0.18914 0.59929 0.48458 0.0
H717 H 0.91427 0.54309 0.48526 0.0
H718 H 0.95917 0.50671 0.48531 0.0
H719 H 0.07654 0.63221 0.47613 0.0
H720 H 0.03134 0.66899 0.47645 0.0
H721 H 0.0957 0.58398 0.49304 0.0
H722 H 0.02212 0.55817 0.45209 0.0
H723 H 0.95832 0.53741 0.43739 0.0
H724 H 0.89275 0.40431 0.45277 0.0
H725 H 0.95581 0.42445 0.46775 0.0
C726 C 0.16957 0.44974 0.4837 0.0
C727 C 0.14137 0.40734 0.48892 0.0
C728 C 0.15184 0.47562 0.47916 0.0
C729 C 0.10594 0.46004 0.48033 0.0
C730 C 0.07747 0.41614 0.48456 0.0
C731 C 0.09513 0.38986 0.4888 0.0
C732 C 0.08827 0.49097 0.47907 0.0
C733 C 0.05208 0.47978 0.47073 0.0
C734 C 0.10485 0.52969 0.48692 0.0
C735 C 0.14239 0.5425 0.49607 0.0
C736 C 0.1371 0.51655 0.50721 0.0
C737 C 0.1736 0.527 0.51529 0.0
C738 C 0.21551 0.56312 0.51224 0.0
C739 C 0.22092 0.58905 0.50118 0.0
C740 C 0.18441 0.57918 0.4932 0.0
C741 C 0.94982 0.56294 0.4835 0.0
C742 C 0.96959 0.60856 0.48079 0.0
C743 C 0.97535 0.54218 0.48342 0.0
C744 C 0.02094 0.56653 0.48035 0.0
C745 C 0.04132 0.61277 0.47839 0.0
C746 C 0.01568 0.63374 0.47862 0.0
C747 C 0.04639 0.54291 0.47876 0.0
C748 C 0.08401 0.55542 0.4866 0.0
C749 C 0.03123 0.50559 0.47034 0.0
C750 C 0.99366 0.49292 0.4611 0.0
C751 C 0.99402 0.52451 0.45239 0.0
C752 C 0.95797 0.51286 0.444 0.0
C753 C 0.92148 0.46959 0.44416 0.0
C754 C 0.92105 0.43782 0.45267 0.0
C755 C 0.95697 0.44933 0.4611 0.0
H756 H 0.89357 0.46065 0.43768 0.0
H757 H 0.24381 0.57111 0.51844 0.0
H758 H 0.374 0.95104 0.67004 0.0
H759 H 0.45323 0.99076 0.67633 0.0
H760 H 0.48529 0.07121 0.64151 0.0
H761 H 0.40614 0.0331 0.63552 0.0
H762 H 0.52647 0.00564 0.64873 0.0
H763 H 0.50544 0.13099 0.66094 0.0
H764 H 0.46806 0.16401 0.67335 0.0
H765 H 0.50129 0.12407 0.70942 0.0
H766 H 0.53822 0.09012 0.69718 0.0
H767 H 0.76179 0.1465 0.65204 0.0
H768 H 0.68142 0.11093 0.64805 0.0
H769 H 0.65772 0.10433 0.68968 0.0
H770 H 0.73786 0.14228 0.69359 0.0
H771 H 0.60991 0.13091 0.67952 0.0
H772 H 0.63335 0.00968 0.66934 0.0
H773 H 0.66789 0.97077 0.65856 0.0
H774 H 0.62725 0.99353 0.62105 0.0
H775 H 0.59294 0.0331 0.63159 0.0
C776 C 0.3979 0.97816 0.66398 0.0
C777 C 0.38445 0.98872 0.65221 0.0
C778 C 0.44297 0.00055 0.66752 0.0
C779 C 0.47484 0.03351 0.65929 0.0
C780 C 0.46105 0.04574 0.64793 0.0
C781 C 0.41603 0.02398 0.64453 0.0
C782 C 0.52284 0.0522 0.66184 0.0
C783 C 0.54506 0.03334 0.65535 0.0
C784 C 0.54623 0.08715 0.67081 0.0
C785 C 0.52396 0.10744 0.67814 0.0
C786 C 0.50423 0.12871 0.6715 0.0
C787 C 0.48327 0.14774 0.67851 0.0
C788 C 0.48213 0.14598 0.69217 0.0
C789 C 0.50208 0.1253 0.69884 0.0
C790 C 0.52303 0.10617 0.69188 0.0
C791 C 0.73923 0.13685 0.6603 0.0
C792 C 0.75586 0.14706 0.67311 0.0
C793 C 0.69329 0.11639 0.65804 0.0
C794 C 0.6632 0.10446 0.66857 0.0
C795 C 0.68003 0.1134 0.68138 0.0
C796 C 0.72584 0.13486 0.68361 0.0
C797 C 0.61445 0.08464 0.66632 0.0
C798 C 0.59178 0.10313 0.67289 0.0
C799 C 0.59039 0.04855 0.65763 0.0
C800 C 0.61096 0.02474 0.65125 0.0
C801 C 0.63206 0.00668 0.65879 0.0
C802 C 0.65155 0.98445 0.65272 0.0
C803 C 0.64987 0.97979 0.63913 0.0
C804 C 0.62858 0.99723 0.63158 0.0
C805 C 0.60907 0.01952 0.63759 0.0
H806 H 0.66498 0.96257 0.63445 0.0
H807 H 0.46594 0.16077 0.69757 0.0
H808 H 0.59211 0.70728 0.85339 0.0
H809 H 0.5536 0.6327 0.84399 0.0
H810 H 0.58755 0.6886 0.8052 0.0
H811 H 0.62763 0.76416 0.81461 0.0
H812 H 0.48588 0.61528 0.814 0.0
H813 H 0.63807 0.64694 0.80907 0.0
H814 H 0.71484 0.67466 0.81689 0.0
H815 H 0.66543 0.57913 0.84816 0.0
H816 H 0.58827 0.55131 0.84064 0.0
H817 H 0.39585 0.39477 0.78804 0.0
H818 H 0.43782 0.47519 0.79204 0.0
H819 H 0.47875 0.45157 0.82967 0.0
H820 H 0.43932 0.37151 0.82524 0.0
H821 H 0.54717 0.51351 0.81803 0.0
H822 H 0.39815 0.48527 0.82539 0.0
H823 H 0.31927 0.45805 0.82001 0.0
H824 H 0.35889 0.5461 0.78694 0.0
H825 H 0.43805 0.57346 0.79203 0.0
C826 C 0.59158 0.70386 0.84286 0.0
C827 C 0.61278 0.7415 0.83471 0.0
C828 C 0.56961 0.66125 0.83752 0.0
C829 C 0.56782 0.65545 0.82396 0.0
C830 C 0.58873 0.69275 0.81572 0.0
C831 C 0.61167 0.73566 0.82109 0.0
C832 C 0.54351 0.60985 0.81867 0.0
C833 C 0.49943 0.59307 0.81451 0.0
C834 C 0.561 0.58099 0.81988 0.0
C835 C 0.60738 0.59732 0.82435 0.0
C836 C 0.64354 0.63213 0.81769 0.0
C837 C 0.68714 0.64779 0.82205 0.0
C838 C 0.69501 0.62874 0.83303 0.0
C839 C 0.65929 0.59388 0.83965 0.0
C840 C 0.61562 0.57812 0.83534 0.0
C841 C 0.41373 0.40697 0.79717 0.0
C842 C 0.41463 0.37729 0.80633 0.0
C843 C 0.43738 0.45281 0.7995 0.0
C844 C 0.46135 0.46952 0.81119 0.0
C845 C 0.46071 0.43953 0.82056 0.0
C846 C 0.43775 0.39382 0.81811 0.0
C847 C 0.48881 0.5182 0.81348 0.0
C848 C 0.53355 0.53559 0.81719 0.0
C849 C 0.47155 0.54741 0.81208 0.0
C850 C 0.424 0.53102 0.809 0.0
C851 C 0.39003 0.49856 0.81691 0.0
C852 C 0.34528 0.48316 0.81392 0.0
C853 C 0.33407 0.50023 0.80311 0.0
C854 C 0.36761 0.53285 0.79529 0.0
C855 C 0.41243 0.54833 0.79823 0.0
H856 H 0.2994 0.48827 0.80082 0.0
H857 H 0.72878 0.64093 0.8364 0.0
H858 H 0.98374 0.36526 0.96659 0.0
H859 H 0.94378 0.40603 0.97023 0.0
H860 H 0.02412 0.46794 0.00442 0.0
H861 H 0.06443 0.42734 0.00068 0.0
H862 H 0.93424 0.44789 0.00705 0.0
H863 H 0.05941 0.52646 0.97812 0.0
H864 H 0.10735 0.53524 0.9592 0.0
H865 H 0.99678 0.49752 0.93322 0.0
H866 H 0.94825 0.48886 0.95201 0.0
H867 H 0.93453 0.6638 0.9945 0.0
H868 H 0.96776 0.61813 0.98833 0.0
H869 H 0.83836 0.49965 0.99101 0.0
H870 H 0.80573 0.54476 -0.00229 0.0
H871 H 0.9572 0.55181 0.97047 0.0
H872 H 0.84448 0.42904 0.00953 0.0
H873 H 0.79977 0.43079 0.02809 0.0
H874 H 0.89674 0.56785 0.03525 0.0
H875 H 0.9421 0.56681 0.0168 0.0
C876 C 0.99172 0.38646 0.97512 0.0
C877 C 0.02707 0.39357 0.98334 0.0
C878 C 0.96921 0.40992 0.97713 0.0
C879 C 0.98167 0.44057 0.98744 0.0
C880 C 0.01421 0.44454 0.99638 0.0
C881 C 0.03696 0.42122 0.9943 0.0
C882 C 0.96389 0.47143 0.98807 0.0
C883 C 0.93919 0.47047 -0.00095 0.0
C884 C 0.97127 0.50172 0.97777 0.0
C885 C 0.00016 0.50665 0.96646 0.0
C886 C 0.04529 0.51981 0.96837 0.0
C887 C 0.07259 0.52492 0.95768 0.0
C888 C 0.05507 0.51671 0.94502 0.0
C889 C 0.01028 0.50376 0.94303 0.0
C890 C 0.98291 0.49895 0.95369 0.0
C891 C 0.91316 0.62815 0.99336 0.0
C892 C 0.86786 0.6075 0.99672 0.0
C893 C 0.93207 0.60215 0.98983 0.0
C894 C 0.90561 0.55548 0.98951 0.0
C895 C 0.85945 0.53553 0.99144 0.0
C896 C 0.84085 0.56127 0.99524 0.0
C897 C 0.92655 0.52728 0.98924 0.0
C898 C 0.95207 0.52898 0.97841 0.0
C899 C 0.92097 0.49851 -0.00018 0.0
C900 C 0.89651 0.49784 0.01179 0.0
C901 C 0.85649 0.45934 0.01518 0.0
C902 C 0.83084 0.46037 0.02559 0.0
C903 C 0.84519 0.49959 0.03273 0.0
C904 C 0.88554 0.53764 0.02964 0.0
C905 C 0.91124 0.53682 0.01923 0.0
H906 H 0.82548 0.50039 0.04081 0.0
H907 H 0.07623 0.5205 0.93676 0.0
H908 H 0.6262 0.09175 0.14667 0.0
H909 H 0.54836 0.0496 0.15283 0.0
H910 H 0.56511 0.9389 0.16425 0.0
H911 H 0.64285 0.97994 0.15669 0.0
H912 H 0.49048 0.90717 0.15286 0.0
H913 H 0.55517 0.01142 0.1871 0.0
H914 H 0.60111 0.08426 0.19774 0.0
H915 H 0.52024 0.13254 0.18054 0.0
H916 H 0.47417 0.06018 0.16963 0.0
H917 H 0.28423 0.81389 0.18857 0.0
H918 H 0.36241 0.84803 0.18232 0.0
H919 H 0.35031 0.94543 0.15919 0.0
H920 H 0.27109 0.91061 0.16518 0.0
H921 H 0.42263 0.97999 0.17834 0.0
H922 H 0.36025 0.86928 0.14349 0.0
H923 H 0.31437 0.7923 0.13543 0.0
H924 H 0.39217 0.75148 0.15807 0.0
H925 H 0.4382 0.82815 0.16637 0.0
C926 C 0.6132 0.05805 0.15018 0.0
C927 C 0.64039 0.03876 0.1509 0.0
C928 C 0.56876 0.03427 0.15402 0.0
C929 C 0.55084 0.9913 0.15929 0.0
C930 C 0.57815 0.97207 0.16025 0.0
C931 C 0.62259 0.9956 0.15605 0.0
C932 C 0.50325 0.96646 0.16333 0.0
C933 C 0.47595 0.92296 0.15862 0.0
C934 C 0.48392 0.9868 0.17087 0.0
C935 C 0.51139 0.03041 0.17747 0.0
C936 C 0.54734 0.03765 0.18551 0.0
C937 C 0.57339 0.07885 0.1916 0.0
C938 C 0.56365 0.11303 0.1898 0.0
C939 C 0.52776 0.10604 0.18192 0.0
C940 C 0.50162 0.0649 0.1758 0.0
C941 C 0.29802 0.84234 0.18204 0.0
C942 C 0.27168 0.85981 0.17739 0.0
C943 C 0.3427 0.86172 0.17849 0.0
C944 C 0.36205 0.89925 0.17036 0.0
C945 C 0.33577 0.91641 0.16549 0.0
C946 C 0.29064 0.89646 0.16886 0.0
C947 C 0.41029 0.92176 0.16752 0.0
C948 C 0.43757 0.96454 0.1726 0.0
C949 C 0.42973 0.90022 0.16074 0.0
C950 C 0.40248 0.85435 0.15559 0.0
C951 C 0.3674 0.84382 0.14679 0.0
C952 C 0.34141 0.80027 0.14218 0.0
C953 C 0.35031 0.76701 0.14625 0.0
C954 C 0.38532 0.77727 0.15492 0.0
C955 C 0.41142 0.82078 0.15956 0.0
H956 H 0.33012 0.7333 0.14267 0.0
H957 H 0.58386 0.14492 0.19452 0.0
H958 H 0.42258 0.30436 0.36277 0.0
H959 H 0.46715 0.38401 0.35811 0.0
H960 H 0.4486 0.35685 0.31675 0.0
H961 H 0.40292 0.2767 0.32133 0.0
H962 H 0.54241 0.41569 0.32663 0.0
H963 H 0.39436 0.39757 0.32793 0.0
H964 H 0.32107 0.37241 0.33815 0.0
H965 H 0.38491 0.45574 0.37143 0.0
H966 H 0.45866 0.48089 0.36148 0.0
H967 H 0.62891 0.63311 0.30159 0.0
H968 H 0.5886 0.55424 0.30732 0.0
H969 H 0.56882 0.58769 0.34649 0.0
H970 H 0.60657 0.66676 0.34038 0.0
H971 H 0.49482 0.52441 0.33851 0.0
H972 H 0.64101 0.5448 0.33854 0.0
H973 H 0.71664 0.56858 0.33037 0.0
H974 H 0.66133 0.48112 0.2974 0.0
H975 H 0.58531 0.45723 0.30528 0.0
C976 C 0.42765 0.31528 0.35267 0.0
C977 C 0.40928 0.28428 0.3424 0.0
C978 C 0.45311 0.36078 0.35004 0.0
C979 C 0.46116 0.37613 0.33711 0.0
C980 C 0.44271 0.34545 0.3268 0.0
C981 C 0.41647 0.29983 0.32943 0.0
C982 C 0.48956 0.4243 0.33443 0.0
C983 C 0.53193 0.43958 0.32901 0.0
C984 C 0.4764 0.45528 0.33814 0.0
C985 C 0.43204 0.44078 0.34402 0.0
C986 C 0.39279 0.41026 0.33747 0.0
C987 C 0.35116 0.39605 0.34321 0.0
C988 C 0.34834 0.41236 0.35545 0.0
C989 C 0.38715 0.44308 0.36195 0.0
C990 C 0.42887 0.45736 0.35627 0.0
C991 C 0.61608 0.62352 0.31144 0.0
C992 C 0.61996 0.6557 0.32048 0.0
C993 C 0.59349 0.57845 0.31477 0.0
C994 C 0.57574 0.56473 0.32739 0.0
C995 C 0.58194 0.59729 0.33667 0.0
C996 C 0.60385 0.64244 0.33324 0.0
C997 C 0.54812 0.51642 0.33053 0.0
C998 C 0.50573 0.5009 0.33609 0.0
C999 C 0.56174 0.48529 0.32722 0.0
C1000 C 0.60743 0.49951 0.32245 0.0
C1001 C 0.64495 0.53087 0.3295 0.0
C1002 C 0.6879 0.54433 0.32493 0.0
C1003 C 0.69378 0.52645 0.31336 0.0
C1004 C 0.65672 0.49497 0.30636 0.0
C1005 C 0.61369 0.48142 0.31088 0.0
H1006 H 0.72706 0.53691 0.30984 0.0
H1007 H 0.31608 0.40126 0.35988 0.0
H1008 H 0.79571 0.53097 0.43119 0.0
H1009 H 0.75099 0.4692 0.41636 0.0
H1010 H 0.67247 0.38943 0.44896 0.0
H1011 H 0.71796 0.45054 0.4639 0.0
H1012 H 0.6829 0.33833 0.4315 0.0
H1013 H 0.63865 0.44953 0.43063 0.0
H1014 H 0.64959 0.52511 0.4281 0.0
H1015 H 0.6933 0.53012 0.38852 0.0
H1016 H 0.68322 0.45476 0.39088 0.0
H1017 H 0.47131 0.20561 0.39969 0.0
H1018 H 0.53495 0.25421 0.41355 0.0
H1019 H 0.61376 0.31783 0.37923 0.0
H1020 H 0.55069 0.26949 0.36532 0.0
H1021 H 0.60771 0.37597 0.39661 0.0
H1022 H 0.64211 0.25833 0.39741 0.0
H1023 H 0.62652 0.18135 0.40059 0.0
H1024 H 0.59537 0.18641 0.44097 0.0
H1025 H 0.61014 0.26324 0.43799 0.0
C1026 C 0.76929 0.50005 0.43521 0.0
C1027 C 0.7598 0.49576 0.44866 0.0
C1028 C 0.74379 0.46481 0.42673 0.0
C1029 C 0.70782 0.42511 0.43154 0.0
C1030 C 0.69998 0.41984 0.44505 0.0
C1031 C 0.72588 0.45486 0.45356 0.0
C1032 C 0.67604 0.39071 0.42242 0.0
C1033 C 0.66624 0.34644 0.42391 0.0
C1034 C 0.65469 0.40146 0.41244 0.0
C1035 C 0.6607 0.44674 0.41099 0.0
C1036 C 0.65094 0.4669 0.42143 0.0
C1037 C 0.65693 0.50967 0.42002 0.0
C1038 C 0.67227 0.53246 0.40817 0.0
C1039 C 0.68153 0.51247 0.3977 0.0
C1040 C 0.67567 0.46973 0.39907 0.0
C1041 C 0.50246 0.22936 0.39509 0.0
C1042 C 0.50584 0.2341 0.38142 0.0
C1043 C 0.53881 0.25691 0.40302 0.0
C1044 C 0.57892 0.28953 0.39738 0.0
C1045 C 0.58302 0.2928 0.38374 0.0
C1046 C 0.5469 0.26514 0.37582 0.0
C1047 C 0.61462 0.32362 0.40564 0.0
C1048 C 0.62486 0.3679 0.40406 0.0
C1049 C 0.6357 0.31263 0.41562 0.0
C1050 C 0.62686 0.26645 0.41745 0.0
C1051 C 0.63155 0.24291 0.40694 0.0
C1052 C 0.62294 0.19932 0.40871 0.0
C1053 C 0.60986 0.17896 0.42096 0.0
C1054 C 0.60546 0.20221 0.43148 0.0
C1055 C 0.614 0.2458 0.42976 0.0
H1056 H 0.60322 0.14521 0.42231 0.0
H1057 H 0.67687 0.56557 0.4071 0.0
H1058 H 0.19349 0.48177 0.55083 0.0
H1059 H 0.21071 0.54653 0.56431 0.0
H1060 H 0.33713 0.62206 0.54449 0.0
H1061 H 0.31861 0.5579 0.53047 0.0
H1062 H 0.26704 0.5897 0.58139 0.0
H1063 H 0.37377 0.72154 0.5436 0.0
H1064 H 0.37647 0.73833 0.52001 0.0
H1065 H 0.2337 0.65981 0.51797 0.0
H1066 H 0.23048 0.64088 0.54134 0.0
H1067 H 0.33892 0.78776 0.61762 0.0
H1068 H 0.34248 0.73248 0.60354 0.0
H1069 H 0.26488 0.75342 0.57428 0.0
H1070 H 0.26362 0.8102 0.58792 0.0
H1071 H 0.31891 0.73935 0.5624 0.0
H1072 H 0.22066 0.66689 0.59869 0.0
H1073 H 0.19825 0.64801 0.62175 0.0
H1074 H 0.29183 0.60222 0.62635 0.0
H1075 H 0.31566 0.62175 0.60339 0.0
C1076 C 0.22494 0.51225 0.54938 0.0
C1077 C 0.2547 0.51505 0.53962 0.0
C1078 C 0.23481 0.54927 0.55708 0.0
C1079 C 0.27503 0.58954 0.55534 0.0
C1080 C 0.30534 0.5919 0.54579 0.0
C1081 C 0.29497 0.55513 0.53787 0.0
C1082 C 0.28518 0.62861 0.56367 0.0
C1083 C 0.27849 0.62247 0.57724 0.0
C1084 C 0.29973 0.67134 0.55833 0.0
C1085 C 0.30198 0.67938 0.5441 0.0
C1086 C 0.3431 0.70732 0.53802 0.0
C1087 C 0.34472 0.717 0.52469 0.0
C1088 C 0.30531 0.69969 0.51745 0.0
C1089 C 0.26426 0.67246 0.52351 0.0
C1090 C 0.26255 0.66185 0.53675 0.0
C1091 C 0.32355 0.78117 0.60805 0.0
C1092 C 0.30088 0.80309 0.60387 0.0
C1093 C 0.32522 0.74931 0.60006 0.0
C1094 C 0.30302 0.73791 0.58797 0.0
C1095 C 0.2823 0.7615 0.58356 0.0
C1096 C 0.2816 0.79406 0.59137 0.0
C1097 C 0.29921 0.7002 0.58008 0.0
C1098 C 0.30784 0.70673 0.56662 0.0
C1099 C 0.28401 0.65725 0.58547 0.0
C1100 C 0.27047 0.64647 0.59937 0.0
C1101 C 0.23686 0.6533 0.60466 0.0
C1102 C 0.22382 0.64238 0.6177 0.0
C1103 C 0.24366 0.62407 0.62551 0.0
C1104 C 0.27661 0.61658 0.6203 0.0
C1105 C 0.28998 0.62765 0.60728 0.0
H1106 H 0.23348 0.61568 0.6356 0.0
H1107 H 0.30654 0.70763 0.50716 0.0
H1108 H 0.84474 0.32389 0.72291 0.0
H1109 H 0.79544 0.33636 0.73725 0.0
H1110 H 0.70337 0.30637 0.7053 0.0
H1111 H 0.75302 0.29549 0.69086 0.0
H1112 H 0.70335 0.3682 0.71989 0.0
H1113 H 0.69263 0.22596 0.72762 0.0
H1114 H 0.72042 0.17492 0.73317 0.0
H1115 H 0.76418 0.23798 0.77062 0.0
H1116 H 0.7372 0.28985 0.7652 0.0
H1117 H 0.49276 0.26877 0.75224 0.0
H1118 H 0.5586 0.28791 0.73891 0.0
H1119 H 0.64074 0.33004 0.77352 0.0
H1120 H 0.5752 0.31082 0.78692 0.0
H1121 H 0.65178 0.27045 0.75902 0.0
H1122 H 0.65035 0.40625 0.75141 0.0
H1123 H 0.61645 0.45151 0.74525 0.0
H1124 H 0.58886 0.39408 0.7068 0.0
H1125 H 0.62203 0.348 0.71279 0.0
C1126 C 0.81442 0.32085 0.71889 0.0
C1127 C 0.80246 0.30811 0.70581 0.0
C1128 C 0.7862 0.32779 0.7271 0.0
C1129 C 0.74521 0.32124 0.72242 0.0
C1130 C 0.73471 0.31144 0.70915 0.0
C1131 C 0.76314 0.3051 0.7009 0.0
C1132 C 0.7115 0.32078 0.73146 0.0
C1133 C 0.69197 0.34674 0.72843 0.0
C1134 C 0.69699 0.29315 0.7427 0.0
C1135 C 0.71344 0.26215 0.74594 0.0
C1136 C 0.70853 0.22919 0.73699 0.0
C1137 C 0.72408 0.20008 0.74012 0.0
C1138 C 0.74419 0.20331 0.75222 0.0
C1139 C 0.74871 0.2356 0.76123 0.0
C1140 C 0.7333 0.26487 0.75814 0.0
C1141 C 0.52493 0.2827 0.75699 0.0
C1142 C 0.52873 0.28802 0.77064 0.0
C1143 C 0.56254 0.29382 0.74936 0.0
C1144 C 0.60454 0.31059 0.75524 0.0
C1145 C 0.60861 0.31719 0.76881 0.0
C1146 C 0.5711 0.30622 0.77644 0.0
C1147 C 0.64344 0.31759 0.7474 0.0
C1148 C 0.66376 0.29259 0.75063 0.0
C1149 C 0.65802 0.34544 0.73625 0.0
C1150 C 0.63844 0.37345 0.73258 0.0
C1151 C 0.63679 0.40305 0.74167 0.0
C1152 C 0.61774 0.42889 0.7382 0.0
C1153 C 0.60044 0.42562 0.72565 0.0
C1154 C 0.60226 0.39658 0.71652 0.0
C1155 C 0.62125 0.37064 0.71994 0.0
H1156 H 0.58569 0.44564 0.72299 0.0
H1157 H 0.75616 0.1807 0.75463 0.0
H1158 H 0.53416 0.8121 0.89644 0.0
H1159 H 0.46894 0.77322 0.91067 0.0
H1160 H 0.39697 0.68117 0.87947 0.0
H1161 H 0.4613 0.72091 0.86508 0.0
H1162 H 0.34208 0.69779 0.89258 0.0
H1163 H 0.45303 0.65778 0.90383 0.0
H1164 H 0.52731 0.67193 0.91064 0.0
H1165 H 0.51698 0.73184 0.94623 0.0
H1166 H 0.44282 0.71853 0.93954 0.0
H1167 H 0.20376 0.49301 0.92511 0.0
H1168 H 0.25454 0.55766 0.91206 0.0
H1169 H 0.29972 0.63804 0.94697 0.0
H1170 H 0.24927 0.57343 0.96013 0.0
H1171 H 0.3669 0.63774 0.93377 0.0
H1172 H 0.24636 0.66172 0.92329 0.0
H1173 H 0.17048 0.64064 0.91602 0.0
H1174 H 0.1967 0.60356 0.87841 0.0
H1175 H 0.27252 0.62374 0.88551 0.0
C1176 C 0.50425 0.78381 0.8926 0.0
C1177 C 0.50293 0.76914 0.87972 0.0
C1178 C 0.46704 0.76163 0.90073 0.0
C1179 C 0.42835 0.72377 0.89621 0.0
C1180 C 0.42643 0.71028 0.88317 0.0
C1181 C 0.46332 0.73289 0.87498 0.0
C1182 C 0.39103 0.69618 0.90523 0.0
C1183 C 0.34742 0.68454 0.90158 0.0
C1184 C 0.39809 0.67959 0.91709 0.0
C1185 C 0.44269 0.6877 0.92111 0.0
C1186 C 0.46677 0.67429 0.91306 0.0
C1187 C 0.50881 0.6821 0.9169 0.0
C1188 C 0.52692 0.70291 0.92884 0.0
C1189 C 0.50296 0.71584 0.93697 0.0
C1190 C 0.46093 0.70817 0.93316 0.0
C1191 C 0.22366 0.52468 0.92998 0.0
C1192 C 0.22305 0.52795 0.94367 0.0
C1193 C 0.2525 0.56171 0.92249 0.0
C1194 C 0.28092 0.60262 0.92856 0.0
C1195 C 0.27806 0.60672 0.94212 0.0
C1196 C 0.2492 0.56974 0.94962 0.0
C1197 C 0.31783 0.63872 0.92105 0.0
C1198 C 0.3615 0.65181 0.92495 0.0
C1199 C 0.31062 0.65585 0.90933 0.0
C1200 C 0.26513 0.64405 0.90497 0.0
C1201 C 0.23588 0.64879 0.9135 0.0
C1202 C 0.19287 0.63704 0.9094 0.0
C1203 C 0.17876 0.62072 0.89677 0.0
C1204 C 0.20768 0.61622 0.88819 0.0
C1205 C 0.25071 0.62788 0.89225 0.0
H1206 H 0.14544 0.61163 0.89362 0.0
H1207 H 0.55946 0.70891 0.9318 0.0
H1208 H 0.70548 0.2673 0.1257 0.0
H1209 H 0.69381 0.31437 0.11029 0.0
H1210 H 0.72143 0.25141 0.07809 0.0
H1211 H 0.73364 0.20459 0.09341 0.0
H1212 H 0.77585 0.33991 0.07833 0.0
H1213 H 0.61881 0.23994 0.08178 0.0
H1214 H 0.54708 0.19502 0.09315 0.0
H1215 H 0.55829 0.31353 0.11008 0.0
H1216 H 0.63044 0.35915 0.09896 0.0
H1217 H 0.73223 0.4549 0.02758 0.0
H1218 H 0.71939 0.39313 0.04192 0.0
H1219 H 0.73066 0.47235 0.07571 0.0
H1220 H 0.74497 0.53504 0.06148 0.0
H1221 H 0.65314 0.37365 0.07404 0.0
H1222 H 0.81283 0.47062 0.0742 0.0
H1223 H 0.8897 0.51575 0.06593 0.0
H1224 H 0.87539 0.40367 0.04403 0.0
H1225 H 0.79829 0.35793 0.05214 0.0
C1226 C 0.70806 0.26274 0.11532 0.0
C1227 C 0.7212 0.23276 0.11077 0.0
C1228 C 0.70111 0.2895 0.10652 0.0
C1229 C 0.70683 0.28638 0.09306 0.0
C1230 C 0.71698 0.25436 0.08846 0.0
C1231 C 0.72402 0.2277 0.09723 0.0
C1232 C 0.70863 0.32051 0.084 0.0
C1233 C 0.74856 0.34654 0.07717 0.0
C1234 C 0.67369 0.33028 0.08293 0.0
C1235 C 0.63026 0.30295 0.08962 0.0
C1236 C 0.60619 0.25641 0.08802 0.0
C1237 C 0.5654 0.23082 0.0944 0.0
C1238 C 0.54819 0.25139 0.10236 0.0
C1239 C 0.57168 0.29763 0.10392 0.0
C1240 C 0.6125 0.32338 0.09757 0.0
C1241 C 0.73142 0.45909 0.03805 0.0
C1242 C 0.74007 0.50001 0.04341 0.0
C1243 C 0.72426 0.42383 0.04621 0.0
C1244 C 0.72452 0.42857 0.05981 0.0
C1245 C 0.73057 0.46837 0.0652 0.0
C1246 C 0.73871 0.50404 0.05706 0.0
C1247 C 0.72014 0.39241 0.06837 0.0
C1248 C 0.67997 0.36631 0.0751 0.0
C1249 C 0.75497 0.38265 0.06949 0.0
C1250 C 0.79956 0.41111 0.06359 0.0
C1251 C 0.82579 0.45584 0.06743 0.0
C1252 C 0.86959 0.48138 0.0629 0.0
C1253 C 0.8875 0.46253 0.05451 0.0
C1254 C 0.86155 0.41817 0.05058 0.0
C1255 C 0.81779 0.39246 0.05512 0.0
H1256 H 0.92135 0.48239 0.05098 0.0
H1257 H 0.51661 0.23152 0.10729 0.0
H1258 H 0.47858 0.75718 0.29195 0.0
H1259 H 0.41453 0.73704 0.27804 0.0
H1260 H 0.48105 0.71379 0.24587 0.0
H1261 H 0.54647 0.73552 0.25976 0.0
H1262 H 0.44786 0.76223 0.23801 0.0
H1263 H 0.38795 0.62633 0.26117 0.0
H1264 H 0.36914 0.57644 0.2802 0.0
H1265 H 0.28637 0.6254 0.29556 0.0
H1266 H 0.30517 0.67609 0.27671 0.0
H1267 H 0.25213 0.70438 0.20129 0.0
H1268 H 0.30779 0.69311 0.2126 0.0
H1269 H 0.27745 0.73637 0.24876 0.0
H1270 H 0.22146 0.74756 0.23755 0.0
H1271 H 0.29102 0.66461 0.25202 0.0
H1272 H 0.36256 0.80844 0.22964 0.0
H1273 H 0.38437 0.85842 0.2105 0.0
H1274 H 0.44618 0.79023 0.19302 0.0
H1275 H 0.42417 0.73942 0.21197 0.0
C1276 C 0.47952 0.74724 0.28197 0.0
C1277 C 0.51766 0.74802 0.27695 0.0
C1278 C 0.4426 0.73535 0.27403 0.0
C1279 C 0.44258 0.72313 0.26095 0.0
C1280 C 0.48025 0.72289 0.25596 0.0
C1281 C 0.51755 0.73525 0.2639 0.0
C1282 C 0.40462 0.71451 0.25235 0.0
C1283 C 0.41356 0.73996 0.2409 0.0
C1284 C 0.35982 0.6858 0.25617 0.0
C1285 C 0.34817 0.6552 0.26753 0.0
C1286 C 0.36596 0.62668 0.26864 0.0
C1287 C 0.35526 0.59822 0.2794 0.0
C1288 C 0.32662 0.59778 0.28909 0.0
C1289 C 0.30854 0.62576 0.28804 0.0
C1290 C 0.31914 0.65431 0.2773 0.0
C1291 C 0.25675 0.71085 0.2117 0.0
C1292 C 0.23269 0.7273 0.21852 0.0
C1293 C 0.28869 0.70451 0.21812 0.0
C1294 C 0.29714 0.71458 0.23145 0.0
C1295 C 0.27145 0.72856 0.23844 0.0
C1296 C 0.23953 0.735 0.23203 0.0
C1297 C 0.33453 0.71329 0.23799 0.0
C1298 C 0.32538 0.686 0.24902 0.0
C1299 C 0.37912 0.73988 0.23369 0.0
C1300 C 0.39127 0.7698 0.22216 0.0
C1301 C 0.38035 0.80377 0.22165 0.0
C1302 C 0.39287 0.83234 0.21085 0.0
C1303 C 0.41671 0.82752 0.20057 0.0
C1304 C 0.42776 0.79393 0.201 0.0
C1305 C 0.41526 0.76524 0.21176 0.0
H1306 H 0.42685 0.84994 0.19228 0.0
H1307 H 0.31839 0.57573 0.29741 0.0
H1308 H 0.1149 0.91764 0.20017 0.0
H1309 H 0.12112 0.98086 0.21265 0.0
H1310 H 0.16339 0.93742 0.24648 0.0
H1311 H 0.15746 0.87446 0.23421 0.0
H1312 H 0.08599 0.98994 0.2385 0.0
H1313 H 0.26155 0.02434 0.25452 0.0
H1314 H 0.3236 0.01797 0.24505 0.0
H1315 H 0.28236 0.02998 0.2064 0.0
H1316 H 0.2205 0.03717 0.21564 0.0
H1317 H 0.14897 0.03948 0.30152 0.0
H1318 H 0.12193 0.02565 0.27922 0.0
H1319 H 0.2401 0.14552 0.26666 0.0
H1320 H 0.26909 0.15725 0.28881 0.0
H1321 H 0.23988 0.08418 0.25517 0.0
H1322 H 0.12862 0.11971 0.25799 0.0
H1323 H 0.06666 0.12853 0.26619 0.0
H1324 H 0.97964 0.98682 0.26527 0.0
H1325 H 0.04129 0.9768 0.25753 0.0
C1326 C 0.12485 0.92113 0.21034 0.0
C1327 C 0.13636 0.89137 0.21616 0.0
C1328 C 0.12815 0.95715 0.21743 0.0
C1329 C 0.14322 0.96387 0.23037 0.0
C1330 C 0.15206 0.93278 0.23642 0.0
C1331 C 0.14868 0.89684 0.2294 0.0
C1332 C 0.15406 0.00509 0.23745 0.0
C1333 C 0.1195 0.01117 0.24216 0.0
C1334 C 0.19834 0.03434 0.24138 0.0
C1335 C 0.23631 0.03123 0.23579 0.0
C1336 C 0.26594 0.02604 0.24401 0.0
C1337 C 0.30103 0.02218 0.23868 0.0
C1338 C 0.3069 0.02353 0.22513 0.0
C1339 C 0.27774 0.02886 0.21689 0.0
C1340 C 0.24264 0.0328 0.22217 0.0
C1341 C 0.16863 0.06369 0.29408 0.0
C1342 C 0.2114 0.09916 0.29696 0.0
C1343 C 0.15268 0.05618 0.28129 0.0
C1344 C 0.179 0.08437 0.27112 0.0
C1345 C 0.21919 0.12313 0.2743 0.0
C1346 C 0.23566 0.13009 0.28707 0.0
C1347 C 0.17091 0.06659 0.25756 0.0
C1348 C 0.20624 0.06473 0.2514 0.0
C1349 C 0.12741 0.04214 0.25218 0.0
C1350 C 0.08993 0.04754 0.25713 0.0
C1351 C 0.09646 0.09031 0.25966 0.0
C1352 C 0.06132 0.09552 0.26426 0.0
C1353 C 0.01925 0.05826 0.26625 0.0
C1354 C 0.01226 0.01567 0.26371 0.0
C1355 C 0.04736 0.01021 0.25922 0.0
H1356 H 0.99203 0.0624 0.26974 0.0
H1357 H 0.33404 0.02046 0.22102 0.0
H1358 H 0.2103 0.13521 0.36093 0.0
H1359 H 0.15124 0.12902 0.37545 0.0
H1360 H 0.2077 0.09217 0.40732 0.0
H1361 H 0.2674 0.09923 0.393 0.0
H1362 H 0.1042 0.05053 0.40627 0.0
H1363 H 0.25185 0.19436 0.40504 0.0
H1364 H 0.30947 0.25651 0.392 0.0
H1365 H 0.20973 0.2815 0.37575 0.0
H1366 H 0.15149 0.21904 0.38859 0.0
H1367 H 0.14077 0.1366 0.46839 0.0
H1368 H 0.12434 0.1022 0.44687 0.0
H1369 H 0.09781 0.2037 0.43248 0.0
H1370 H 0.11781 0.2402 0.45357 0.0
H1371 H 0.15829 0.20727 0.41916 0.0
H1372 H 0.01951 0.08792 0.42873 0.0
H1373 H 0.95578 0.02418 0.4394 0.0
H1374 H 0.02398 0.94956 0.43773 0.0
H1375 H 0.08859 0.01308 0.42729 0.0
C1376 C 0.20941 0.12455 0.37094 0.0
C1377 C 0.2439 0.11856 0.37594 0.0
C1378 C 0.17544 0.12067 0.37916 0.0
C1379 C 0.17521 0.11002 0.39239 0.0
C1380 C 0.20718 0.09995 0.39708 0.0
C1381 C 0.24157 0.1046 0.38895 0.0
C1382 C 0.14923 0.11947 0.40196 0.0
C1383 C 0.11541 0.08459 0.40918 0.0
C1384 C 0.16237 0.16394 0.40511 0.0
C1385 C 0.19742 0.20196 0.39765 0.0
C1386 C 0.24227 0.21304 0.39863 0.0
C1387 C 0.275 0.24827 0.39129 0.0
C1388 C 0.26325 0.27288 0.38303 0.0
C1389 C 0.21876 0.26237 0.38213 0.0
C1390 C 0.1859 0.22707 0.38944 0.0
C1391 C 0.13034 0.151 0.46073 0.0
C1392 C 0.13064 0.19123 0.4628 0.0
C1393 C 0.12014 0.13078 0.44844 0.0
C1394 C 0.10965 0.1502 0.43797 0.0
C1395 C 0.10568 0.18795 0.44038 0.0
C1396 C 0.11675 0.20867 0.45259 0.0
C1397 C 0.1143 0.13816 0.42434 0.0
C1398 C 0.14478 0.17282 0.41622 0.0
C1399 C 0.09688 0.09336 0.42026 0.0
C1400 C 0.0592 0.05561 0.42724 0.0
C1401 C 0.0213 0.05821 0.43079 0.0
C1402 C 0.9849 0.022 0.43678 0.0
C1403 C 0.98583 0.98285 0.43925 0.0
C1404 C 0.02329 0.97991 0.4358 0.0
C1405 C 0.05983 0.01603 0.42983 0.0
H1406 H 0.9575 0.95476 0.4438 0.0
H1407 H 0.28863 0.30015 0.37734 0.0
H1408 H 0.8663 0.10773 0.62248 0.0
H1409 H 0.87458 0.09806 0.59915 0.0
H1410 H 0.01474 0.14586 0.60501 0.0
H1411 H 0.00676 0.1561 0.62815 0.0
H1412 H 0.9192 0.16288 0.58364 0.0
H1413 H 0.05951 0.11072 0.58169 0.0
H1414 H 0.07117 0.05206 0.59113 0.0
H1415 H 0.93255 0.97593 0.60125 0.0
H1416 H 0.91934 0.03292 0.5913 0.0
H1417 H 0.10458 0.30664 0.55154 0.0
H1418 H 0.04711 0.25242 0.56577 0.0
H1419 H 0.02073 0.14759 0.53832 0.0
H1420 H 0.07924 0.20226 0.52382 0.0
H1421 H 0.02489 0.12316 0.56346 0.0
H1422 H 0.94132 0.17359 0.5415 0.0
H1423 H 0.92403 0.22639 0.53049 0.0
H1424 H 0.93913 0.29459 0.56681 0.0
H1425 H 0.95723 0.24271 0.57802 0.0
C1426 C 0.89886 0.11626 0.61879 0.0
C1427 C 0.93628 0.13444 0.62706 0.0
C1428 C 0.90337 0.10994 0.60549 0.0
C1429 C 0.94525 0.12113 0.60029 0.0
C1430 C 0.98186 0.13615 0.60876 0.0
C1431 C 0.97736 0.14249 0.62201 0.0
C1432 C 0.95323 0.12553 0.58596 0.0
C1433 C 0.94155 0.15335 0.57915 0.0
C1434 C 0.98045 0.11115 0.57976 0.0
C1435 C 0.98842 0.07652 0.58575 0.0
C1436 C 0.03126 0.08128 0.58576 0.0
C1437 C 0.03817 0.04821 0.5912 0.0
C1438 C 0.00264 0.01031 0.59679 0.0
C1439 C 0.96008 0.00535 0.59693 0.0
C1440 C 0.95283 0.03799 0.59134 0.0
C1441 C 0.08665 0.27216 0.54842 0.0
C1442 C 0.09651 0.25888 0.5365 0.0
C1443 C 0.05345 0.24118 0.55655 0.0
C1444 C 0.02899 0.19614 0.55297 0.0
C1445 C 0.03894 0.18232 0.54117 0.0
C1446 C 0.07235 0.21357 0.53294 0.0
C1447 C 0.99485 0.16429 0.56214 0.0
C1448 C 0.00128 0.13115 0.56786 0.0
C1449 C 0.96186 0.17275 0.56722 0.0
C1450 C 0.95051 0.20403 0.56062 0.0
C1451 C 0.94111 0.19992 0.54714 0.0
C1452 C 0.93117 0.22972 0.54086 0.0
C1453 C 0.93042 0.26378 0.54795 0.0
C1454 C 0.93959 0.2681 0.56134 0.0
C1455 C 0.94957 0.2384 0.56767 0.0
H1456 H 0.92276 0.28684 0.54306 0.0
H1457 H 0.00806 0.98477 0.60101 0.0
H1458 H 0.88588 0.99948 0.80875 0.0
H1459 H 0.9196 0.03538 0.78793 0.0
H1460 H 0.79074 0.96493 0.76937 0.0
H1461 H 0.75663 0.93054 0.79017 0.0
H1462 H 0.92464 0.01645 0.76107 0.0
H1463 H 0.77423 0.04339 0.75535 0.0
H1464 H 0.71542 0.04338 0.76901 0.0
H1465 H 0.80146 0.08126 0.8025 0.0
H1466 H 0.861 0.08237 0.789 0.0
H1467 H 0.90722 0.1123 0.69998 0.0
H1468 H 0.9062 0.06916 0.71907 0.0
H1469 H 0.93685 0.18119 0.74403 0.0
H1470 H 0.93716 0.22409 0.72511 0.0
H1471 H 0.85871 0.11057 0.74987 0.0
H1472 H 0.00613 0.14161 0.74181 0.0
H1473 H 0.06959 0.14646 0.72957 0.0
H1474 H 0.00087 0.00413 0.72563 0.0
H1475 H 0.93615 0.99843 0.73747 0.0
C1476 C 0.86502 0.99066 0.80012 0.0
C1477 C 0.81869 0.9621 0.80106 0.0
C1478 C 0.88439 0.01084 0.78823 0.0
C1479 C 0.85754 0.00299 0.77719 0.0
C1480 C 0.81195 0.97127 0.77782 0.0
C1481 C 0.79252 0.95133 0.78972 0.0
C1482 C 0.87496 0.03401 0.76601 0.0
C1483 C 0.91025 0.03694 0.75849 0.0
C1484 C 0.85703 0.06173 0.76305 0.0
C1485 C 0.82183 0.0624 0.77119 0.0
C1486 C 0.78063 0.05193 0.76561 0.0
C1487 C 0.74719 0.05174 0.77333 0.0
C1488 C 0.75464 0.06214 0.78663 0.0
C1489 C 0.79566 0.07305 0.79222 0.0
C1490 C 0.82927 0.07347 0.78453 0.0
C1491 C 0.9151 0.12816 0.70949 0.0
C1492 C 0.9212 0.17115 0.71112 0.0
C1493 C 0.91472 0.10354 0.72037 0.0
C1494 C 0.92098 0.12189 0.73295 0.0
C1495 C 0.93159 0.16636 0.7344 0.0
C1496 C 0.93157 0.19076 0.72359 0.0
C1497 C 0.90818 0.09285 0.74461 0.0
C1498 C 0.87338 0.09019 0.7523 0.0
C1499 C 0.92739 0.06634 0.74779 0.0
C1500 C 0.96592 0.06964 0.74041 0.0
C1501 C 0.00416 0.11133 0.73817 0.0
C1502 C 0.04046 0.11423 0.73133 0.0
C1503 C 0.0393 0.07563 0.72683 0.0
C1504 C 0.0017 0.03403 0.72911 0.0
C1505 C 0.96514 0.03095 0.73587 0.0
H1506 H 0.06755 0.07794 0.72159 0.0
H1507 H 0.72868 0.06185 0.79259 0.0
H1508 H 0.92474 0.79654 0.96159 0.0
H1509 H 0.93768 0.82458 0.9391 0.0
H1510 H 0.86331 0.89144 0.94704 0.0
H1511 H 0.85014 0.86335 0.96932 0.0
H1512 H 0.8739 0.79933 0.92244 0.0
H1513 H 0.88711 0.97529 0.92827 0.0
H1514 H 0.9317 0.04374 0.94104 0.0
H1515 H 0.03178 0.00722 0.94737 0.0
H1516 H 0.98831 0.93896 0.93441 0.0
H1517 H 0.71591 0.8282 0.89338 0.0
H1518 H 0.77351 0.83041 0.90749 0.0
H1519 H 0.87487 0.91588 0.87998 0.0
H1520 H 0.81696 0.91351 0.86555 0.0
H1521 H 0.89131 0.94335 0.9075 0.0
H1522 H 0.8669 0.8235 0.88098 0.0
H1523 H 0.82417 0.75578 0.86769 0.0
H1524 H 0.7539 0.68267 0.90194 0.0
H1525 H 0.79562 0.75008 0.91541 0.0
C1526 C 0.91128 0.81731 0.95851 0.0
C1527 C 0.88493 0.82638 0.96701 0.0
C1528 C 0.91936 0.83391 0.94574 0.0
C1529 C 0.9017 0.86029 0.94137 0.0
C1530 C 0.87818 0.87197 0.95021 0.0
C1531 C 0.87016 0.85544 0.96293 0.0
C1532 C 0.89969 0.86853 0.92725 0.0
C1533 C 0.87884 0.83113 0.91905 0.0
C1534 C 0.90787 0.91042 0.92258 0.0
C1535 C 0.93434 0.95184 0.93031 0.0
C1536 C 0.91884 0.982 0.93225 0.0
C1537 C 0.94391 0.02078 0.93956 0.0
C1538 C 0.98456 0.02986 0.94501 0.0
C1539 C 0.00028 0.00019 0.94315 0.0
C1540 C 0.9754 0.96139 0.93583 0.0
C1541 C 0.75038 0.84761 0.8903 0.0
C1542 C 0.76189 0.87064 0.87835 0.0
C1543 C 0.78322 0.84858 0.89833 0.0
C1544 C 0.8282 0.87279 0.89463 0.0
C1545 C 0.84019 0.89673 0.88288 0.0
C1546 C 0.80713 0.89531 0.8747 0.0
C1547 C 0.8618 0.87332 0.90356 0.0
C1548 C 0.88851 0.91223 0.9107 0.0
C1549 C 0.85969 0.83303 0.9072 0.0
C1550 C 0.83457 0.79197 0.89922 0.0
C1551 C 0.84221 0.79304 0.88568 0.0
C1552 C 0.81815 0.75469 0.87811 0.0
C1553 C 0.78637 0.71494 0.88397 0.0
C1554 C 0.77861 0.71347 0.89742 0.0
C1555 C 0.80256 0.75174 0.90503 0.0
H1556 H 0.76775 0.68528 0.87809 0.0
H1557 H 0.0038 0.05986 0.95069 0.0
H1558 H 0.07682 0.92349 0.13895 0.0
H1559 H 0.05879 0.93167 0.11625 0.0
H1560 H 0.06082 0.81197 0.10583 0.0
H1561 H 0.07985 0.80462 0.12826 0.0
H1562 H 0.09196 0.86882 0.08618 0.0
H1563 H 0.96236 0.81228 0.11621 0.0
H1564 H 0.92287 0.82079 0.13511 0.0
H1565 H 0.93549 0.94 0.11822 0.0
H1566 H 0.9752 0.9322 0.09923 0.0
H1567 H 0.9048 0.70309 0.05563 0.0
H1568 H 0.95848 0.75545 0.07132 0.0
H1569 H 0.95675 0.86466 0.05168 0.0
H1570 H 0.90359 0.81234 0.03558 0.0
H1571 H 0.94003 0.84841 0.08243 0.0
H1572 H 0.04459 0.88135 0.04829 0.0
H1573 H 0.07871 0.86452 0.02961 0.0
H1574 H 0.11035 0.78409 0.05436 0.0
H1575 H 0.07575 0.7998 0.07315 0.0
C1576 C 0.07442 0.8997 0.13167 0.0
C1577 C 0.08018 0.86376 0.13521 0.0
C1578 C 0.06412 0.90434 0.11876 0.0
C1579 C 0.05811 0.87225 0.10937 0.0
C1580 C 0.06579 0.83745 0.11285 0.0
C1581 C 0.07668 0.83322 0.12567 0.0
C1582 C 0.03854 0.87078 0.09639 0.0
C1583 C 0.05905 0.86506 0.0853 0.0
C1584 C 0.99626 0.86751 0.09512 0.0
C1585 C 0.97213 0.87197 0.10643 0.0
C1586 C 0.95679 0.84036 0.11657 0.0
C1587 C 0.93437 0.84504 0.12727 0.0
C1588 C 0.92676 0.88098 0.12787 0.0
C1589 C 0.94143 0.91222 0.11774 0.0
C1590 C 0.96388 0.90769 0.107 0.0
C1591 C 0.91582 0.73822 0.05462 0.0
C1592 C 0.9 0.75369 0.04443 0.0
C1593 C 0.94663 0.76805 0.06352 0.0
C1594 C 0.96162 0.81372 0.06252 0.0
C1595 C 0.94566 0.82947 0.05248 0.0
C1596 C 0.91541 0.79963 0.04335 0.0
C1597 C 0.99236 0.84367 0.07256 0.0
C1598 C 0.97395 0.85463 0.08311 0.0
C1599 C 0.03626 0.85119 0.07337 0.0
C1600 C 0.05743 0.84171 0.06214 0.0
C1601 C 0.05852 0.8598 0.04974 0.0
C1602 C 0.07801 0.85051 0.03913 0.0
C1603 C 0.09667 0.82324 0.0408 0.0
C1604 C 0.09592 0.80525 0.05309 0.0
C1605 C 0.07645 0.81442 0.06373 0.0
H1606 H 0.11174 0.81608 0.03257 0.0
H1607 H 0.90943 0.88457 0.13617 0.0
H1608 H 0.91823 0.78333 0.53601 0.0
H1609 H 0.95327 0.83032 0.55503 0.0
H1610 H 0.0418 0.93831 0.52983 0.0
H1611 H 0.00577 0.89213 0.51068 0.0
H1612 H 0.0756 0.88838 0.54547 0.0
H1613 H 0.00225 0.97461 0.5503 0.0
H1614 H 0.93708 0.98524 0.55186 0.0
H1615 H 0.88955 0.89839 0.58521 0.0
H1616 H 0.95473 0.88768 0.58393 0.0
H1617 H 0.22115 0.96612 0.5966 0.0
H1618 H 0.17781 0.97687 0.57957 0.0
H1619 H 0.0565 0.89115 0.60067 0.0
H1620 H 0.10011 0.88303 0.61814 0.0
H1621 H 0.04344 0.94636 0.58591 0.0
H1622 H 0.10173 0.84737 0.57958 0.0
H1623 H 0.16046 0.82697 0.57867 0.0
H1624 H 0.22673 0.92269 0.54806 0.0
H1625 H 0.16865 0.94409 0.54894 0.0
C1626 C 0.94319 0.81785 0.53444 0.0
C1627 C 0.95934 0.83399 0.52183 0.0
C1628 C 0.96324 0.84475 0.54536 0.0
C1629 C 0.99994 0.88776 0.54379 0.0
C1630 C 0.01314 0.90539 0.5312 0.0
C1631 C 0.99285 0.87874 0.52029 0.0
C1632 C 0.0318 0.90752 0.55467 0.0
C1633 C 0.0694 0.90246 0.55416 0.0
C1634 C 0.02234 0.92385 0.56614 0.0
C1635 C 0.98316 0.93013 0.56696 0.0
C1636 C 0.97777 0.95763 0.55793 0.0
C1637 C 0.94094 0.96381 0.55879 0.0
C1638 C 0.90911 0.94237 0.56859 0.0
C1639 C 0.91416 0.91487 0.57759 0.0
C1640 C 0.9512 0.90899 0.57686 0.0
C1641 C 0.18536 0.95081 0.59776 0.0
C1642 C 0.16366 0.92298 0.60845 0.0
C1643 C 0.16066 0.95704 0.58808 0.0
C1644 C 0.11385 0.93362 0.58866 0.0
C1645 C 0.09254 0.90933 0.59998 0.0
C1646 C 0.11742 0.90438 0.60989 0.0
C1647 C 0.08736 0.92721 0.57667 0.0
C1648 C 0.05055 0.93391 0.57703 0.0
C1649 C 0.09651 0.9108 0.56509 0.0
C1650 C 0.13123 0.89772 0.56444 0.0
C1651 C 0.12899 0.86422 0.57271 0.0
C1652 C 0.16213 0.85248 0.5722 0.0
C1653 C 0.19739 0.87362 0.56334 0.0
C1654 C 0.19947 0.90644 0.55494 0.0
C1655 C 0.16647 0.9184 0.55544 0.0
H1656 H 0.22303 0.86449 0.56296 0.0
H1657 H 0.88062 0.9472 0.56925 0.0
H1658 H 0.30418 0.15015 0.75584 0.0
H1659 H 0.24404 0.0954 0.7422 0.0
H1660 H 0.16414 0.03378 0.77652 0.0
H1661 H 0.2243 0.08867 0.79032 0.0
H1662 H 0.16701 0.97314 0.76048 0.0
H1663 H 0.12517 0.08048 0.75646 0.0
H1664 H 0.13347 0.15508 0.75434 0.0
H1665 H 0.18954 0.16885 0.71601 0.0
H1666 H 0.18233 0.09468 0.71797 0.0
H1667 H 0.08098 0.92532 0.68665 0.0
H1668 H 0.06944 0.94293 0.709 0.0
H1669 H 0.18678 0.93944 0.72143 0.0
H1670 H 0.19791 0.92162 0.69938 0.0
H1671 H 0.12189 0.01635 0.7195 0.0
H1672 H 0.19397 0.9253 0.75196 0.0
H1673 H 0.17986 0.8488 0.75489 0.0
H1674 H 0.04992 0.79658 0.73786 0.0
H1675 H 0.06282 0.87272 0.73502 0.0
C1676 C 0.27376 0.12521 0.7605 0.0
C1677 C 0.26912 0.12366 0.77415 0.0
C1678 C 0.23921 0.09419 0.75269 0.0
C1679 C 0.19942 0.061 0.75837 0.0
C1680 C 0.19444 0.05942 0.77198 0.0
C1681 C 0.2289 0.09076 0.77981 0.0
C1682 C 0.16535 0.02599 0.74992 0.0
C1683 C 0.15632 0.9821 0.75159 0.0
C1684 C 0.14902 0.03725 0.73877 0.0
C1685 C 0.15322 0.08189 0.73739 0.0
C1686 C 0.13954 0.0995 0.74761 0.0
C1687 C 0.1441 0.14176 0.74644 0.0
C1688 C 0.16217 0.16675 0.73507 0.0
C1689 C 0.17557 0.14945 0.72482 0.0
C1690 C 0.17115 0.10723 0.72595 0.0
C1691 C 0.10333 0.92684 0.6943 0.0
C1692 C 0.14012 0.92172 0.69132 0.0
C1693 C 0.09663 0.93675 0.70705 0.0
C1694 C 0.12691 0.9421 0.71696 0.0
C1695 C 0.16203 0.93414 0.7141 0.0
C1696 C 0.1685 0.92393 0.70141 0.0
C1697 C 0.12818 0.96473 0.72938 0.0
C1698 C 0.13074 0.0064 0.72855 0.0
C1699 C 0.13736 0.95091 0.74144 0.0
C1700 C 0.12938 0.90493 0.74329 0.0
C1701 C 0.16216 0.89757 0.74896 0.0
C1702 C 0.15443 0.85421 0.75057 0.0
C1703 C 0.11403 0.81786 0.74657 0.0
C1704 C 0.08124 0.82477 0.74094 0.0
C1705 C 0.08877 0.86804 0.73931 0.0
H1706 H 0.10813 0.78433 0.74781 0.0
H1707 H 0.16561 0.19943 0.73417 0.0
H1708 H 0.15176 0.11881 0.84481 0.0
H1709 H 0.11831 0.11626 0.8661 0.0
H1710 H 0.24896 0.18385 0.88362 0.0
H1711 H 0.2827 0.18801 0.86237 0.0
H1712 H 0.17295 0.11747 0.90073 0.0
H1713 H 0.2213 0.24833 0.87167 0.0
H1714 H 0.21985 0.28045 0.85027 0.0
H1715 H 0.07723 0.21817 0.85251 0.0
H1716 H 0.0779 0.18508 0.87384 0.0
H1717 H 0.20102 0.27348 0.94866 0.0
H1718 H 0.19944 0.22474 0.93117 0.0
H1719 H 0.07966 0.21716 0.91572 0.0
H1720 H 0.08372 0.26904 0.93267 0.0
H1721 H 0.13124 0.23479 0.89735 0.0
H1722 H 0.08616 0.12461 0.93011 0.0
H1723 H 0.08694 0.09198 0.95145 0.0
H1724 H 0.21548 0.10824 0.94282 0.0
H1725 H 0.2164 0.14248 0.92163 0.0
C1726 C 0.17322 0.13181 0.8533 0.0
C1727 C 0.21981 0.1533 0.85195 0.0
C1728 C 0.15404 0.12995 0.86544 0.0
C1729 C 0.18125 0.14975 0.87637 0.0
C1730 C 0.22747 0.16771 0.8753 0.0
C1731 C 0.24672 0.16994 0.86313 0.0
C1732 C 0.16341 0.1611 0.8879 0.0
C1733 C 0.16351 0.1429 0.90012 0.0
C1734 C 0.14985 0.19321 0.88689 0.0
C1735 C 0.1496 0.21388 0.87424 0.0
C1736 C 0.18964 0.24129 0.86755 0.0
C1737 C 0.18896 0.25967 0.85544 0.0
C1738 C 0.14846 0.25126 0.85001 0.0
C1739 C 0.10857 0.22457 0.85671 0.0
C1740 C 0.10907 0.20599 0.8688 0.0
C1741 C 0.17419 0.26085 0.94157 0.0
C1742 C 0.14273 0.27493 0.9418 0.0
C1743 C 0.17285 0.2325 0.93168 0.0
C1744 C 0.13896 0.21648 0.92218 0.0
C1745 C 0.10616 0.22902 0.9229 0.0
C1746 C 0.10843 0.25859 0.93253 0.0
C1747 C 0.14145 0.19206 0.91059 0.0
C1748 C 0.13887 0.20812 0.8982 0.0
C1749 C 0.15199 0.15749 0.91153 0.0
C1750 C 0.15139 0.13634 0.92425 0.0
C1751 C 0.11477 0.12155 0.93278 0.0
C1752 C 0.1149 0.10274 0.94486 0.0
C1753 C 0.15111 0.09786 0.94846 0.0
C1754 C 0.18739 0.11195 0.94001 0.0
C1755 C 0.18764 0.13112 0.92796 0.0
H1756 H 0.15107 0.08321 0.95781 0.0
H1757 H 0.14799 0.26551 0.84064 0.0
H1758 H 0.02714 0.16724 0.01984 0.0
H1759 H 0.0071 0.14785 0.04265 0.0
H1760 H 0.13705 0.25293 0.05452 0.0
H1761 H 0.15782 0.27205 0.03156 0.0
H1762 H 0.03512 0.12651 0.06549 0.0
H1763 H 0.11688 0.30924 0.07813 0.0
H1764 H 0.14995 0.38273 0.0673 0.0
H1765 H 0.05741 0.32485 0.03552 0.0
H1766 H 0.02353 0.25127 0.04626 0.0
H1767 H 0.92884 0.13769 0.12642 0.0
H1768 H 0.98842 0.14931 0.11111 0.0
H1769 H 0.92821 0.19032 0.08134 0.0
H1770 H 0.8692 0.17907 0.09637 0.0
H1771 H 0.01794 0.24907 0.08425 0.0
H1772 H 0.91483 0.08786 0.0811 0.0
H1773 H 0.87512 0.01136 0.08991 0.0
H1774 H 0.99991 0.02196 0.10065 0.0
H1775 H 0.04034 0.09883 0.09203 0.0
C1776 C 0.05194 0.18563 0.02726 0.0
C1777 C 0.09331 0.22256 0.02393 0.0
C1778 C 0.04055 0.17419 0.04031 0.0
C1779 C 0.07034 0.19942 0.05026 0.0
C1780 C 0.1134 0.23347 0.04695 0.0
C1781 C 0.12486 0.24493 0.03384 0.0
C1782 C 0.05274 0.19533 0.06365 0.0
C1783 C 0.03231 0.15356 0.06983 0.0
C1784 C 0.04896 0.2306 0.06925 0.0
C1785 C 0.06811 0.27485 0.06292 0.0
C1786 C 0.10355 0.31234 0.06886 0.0
C1787 C 0.12241 0.35396 0.06274 0.0
C1788 C 0.10588 0.35842 0.05071 0.0
C1789 C 0.07023 0.32135 0.04482 0.0
C1790 C 0.05118 0.27971 0.05092 0.0
C1791 C 0.92822 0.14892 0.11657 0.0
C1792 C 0.89437 0.15767 0.11263 0.0
C1793 C 0.96227 0.15558 0.10789 0.0
C1794 C 0.96282 0.17107 0.09518 0.0
C1795 C 0.92862 0.17886 0.09118 0.0
C1796 C 0.89474 0.17218 0.09978 0.0
C1797 C 0.99861 0.17968 0.08578 0.0
C1798 C 0.0226 0.22253 0.08037 0.0
C1799 C 0.00487 0.14515 0.0808 0.0
C1800 C 0.98053 0.09925 0.08611 0.0
C1801 C 0.93376 0.07405 0.08547 0.0
C1802 C 0.91114 0.03059 0.09039 0.0
C1803 C 0.93497 0.01187 0.09587 0.0
C1804 C 0.9815 0.03656 0.09643 0.0
C1805 C 0.00427 0.08006 0.09153 0.0
H1806 H 0.91739 0.97818 0.09963 0.0
H1807 H 0.12064 0.39062 0.04597 0.0
H1808 H 0.87261 0.10538 0.19991 0.0
H1809 H 0.88575 0.07563 0.21994 0.0
H1810 H 0.90996 0.98496 0.19732 0.0
H1811 H 0.89844 0.01565 0.17717 0.0
H1812 H 0.82887 0.94857 0.21256 0.0
H1813 H 0.98721 0.03863 0.21833 0.0
H1814 H 0.05925 0.1088 0.21952 0.0
H1815 H 0.00945 0.15422 0.25085 0.0
H1816 H 0.93717 0.08424 0.24988 0.0
H1817 H 0.76709 0.81926 0.26794 0.0
H1818 H 0.81893 0.85975 0.25009 0.0
H1819 H 0.84634 0.98451 0.26746 0.0
H1820 H 0.79747 0.94398 0.28583 0.0
H1821 H 0.91517 0.99951 0.25384 0.0
H1822 H 0.75681 0.92432 0.2456 0.0
H1823 H 0.68041 0.85991 0.24463 0.0
H1824 H 0.72357 0.79462 0.2175 0.0
H1825 H 0.8004 0.85847 0.21845 0.0
C1826 C 0.88338 0.08108 0.19911 0.0
C1827 C 0.88444 0.06282 0.18694 0.0
C1828 C 0.89088 0.06403 0.21061 0.0
C1829 C 0.89894 0.02822 0.21008 0.0
C1830 C 0.90423 0.01291 0.19791 0.0
C1831 C 0.89719 0.0302 0.18642 0.0
C1832 C 0.88885 0.99943 0.22169 0.0
C1833 C 0.84848 0.95898 0.22148 0.0
C1834 C 0.91353 0.01412 0.2334 0.0
C1835 C 0.95674 0.05634 0.23397 0.0
C1836 C 0.99155 0.06372 0.22542 0.0
C1837 C 0.03247 0.10339 0.22608 0.0
C1838 C 0.03887 0.13602 0.23522 0.0
C1839 C 0.0044 0.12898 0.24374 0.0
C1840 C 0.96354 0.08923 0.24319 0.0
C1841 C 0.78539 0.85535 0.26809 0.0
C1842 C 0.77809 0.87875 0.27803 0.0
C1843 C 0.81487 0.87847 0.25792 0.0
C1844 C 0.8353 0.92513 0.25719 0.0
C1845 C 0.8308 0.94854 0.26774 0.0
C1846 C 0.80267 0.92543 0.27818 0.0
C1847 C 0.85485 0.94874 0.24472 0.0
C1848 C 0.89642 0.9883 0.24479 0.0
C1849 C 0.83054 0.93414 0.23287 0.0
C1850 C 0.78438 0.89583 0.23223 0.0
C1851 C 0.75002 0.89609 0.23949 0.0
C1852 C 0.70666 0.85971 0.23894 0.0
C1853 C 0.69718 0.82313 0.23104 0.0
C1854 C 0.73101 0.82292 0.22364 0.0
C1855 C 0.77445 0.85917 0.22418 0.0
H1856 H 0.66359 0.795 0.23063 0.0
H1857 H 0.07058 0.16668 0.23573 0.0
H1858 H 0.85168 0.94904 0.36216 0.0
H1859 H 0.87046 0.95289 0.38552 0.0
H1860 H 0.76926 0.81457 0.38986 0.0
H1861 H 0.75048 0.81108 0.36687 0.0
H1862 H 0.76819 0.8605 0.41036 0.0
H1863 H 0.88845 0.85931 0.38295 0.0
H1864 H 0.95355 0.89593 0.36823 0.0
H1865 H 0.01866 0.00521 0.39511 0.0
H1866 H 0.95363 0.96947 0.40987 0.0
H1867 H 0.80377 0.70397 0.43766 0.0
H1868 H 0.80123 0.76015 0.42396 0.0
H1869 H 0.8992 0.8644 0.44847 0.0
H1870 H 0.90158 0.80799 0.46247 0.0
H1871 H 0.91541 0.87583 0.42023 0.0
H1872 H 0.80753 0.85899 0.45074 0.0
H1873 H 0.74505 0.82004 0.46619 0.0
H1874 H 0.65812 0.74584 0.43453 0.0
H1875 H 0.72018 0.78376 0.4189 0.0
C1876 C 0.8331 0.91987 0.36825 0.0
C1877 C 0.79889 0.88006 0.36287 0.0
C1878 C 0.84385 0.92206 0.38154 0.0
C1879 C 0.8212 0.88407 0.38946 0.0
C1880 C 0.78667 0.84461 0.38403 0.0
C1881 C 0.77566 0.84263 0.37088 0.0
C1882 C 0.83449 0.88271 0.40315 0.0
C1883 C 0.80057 0.86442 0.41261 0.0
C1884 C 0.87759 0.89055 0.40643 0.0
C1885 C 0.91595 0.91218 0.39737 0.0
C1886 C 0.91647 0.89137 0.38563 0.0
C1887 C 0.95337 0.91193 0.3773 0.0
C1888 C 0.99012 0.95299 0.38069 0.0
C1889 C 0.99009 0.97354 0.39245 0.0
C1890 C 0.95321 0.9532 0.40078 0.0
C1891 C 0.82483 0.73877 0.44016 0.0
C1892 C 0.85281 0.75155 0.45114 0.0
C1893 C 0.8231 0.77082 0.4324 0.0
C1894 C 0.84953 0.81624 0.43537 0.0
C1895 C 0.87826 0.82942 0.44615 0.0
C1896 C 0.87954 0.79719 0.45409 0.0
C1897 C 0.84753 0.849 0.42663 0.0
C1898 C 0.88366 0.87381 0.41826 0.0
C1899 C 0.80649 0.8472 0.42433 0.0
C1900 C 0.76862 0.8244 0.43363 0.0
C1901 C 0.77514 0.83424 0.44707 0.0
C1902 C 0.73978 0.81232 0.45586 0.0
C1903 C 0.69763 0.78052 0.45134 0.0
C1904 C 0.69076 0.77058 0.43801 0.0
C1905 C 0.72602 0.79238 0.42917 0.0
H1906 H 0.6703 0.76356 0.45816 0.0
H1907 H 0.01868 0.96879 0.37424 0.0
loop_
_geom_bond_atom_site_label_1
_geom_bond_atom_site_label_2
_geom_bond_distance
_geom_bond_site_symmetry_2
_ccdc_geom_bond_type
Co0 O3 1.970 . S
Co0 N17 1.989 . S
Co0 O25 1.967 . S
Co0 O32 1.920 . S
Co1 O4 1.966 . S
Co1 N10 2.022 . S
Co1 N18 1.993 . S
Co1 O26 1.941 . S
C2 O3 1.258 . S
C2 O4 1.263 . S
O3 Co0 1.970 . S
O3 C2 1.258 . S
O4 Co1 1.966 . S
O4 C2 1.263 . S
C5 O6 1.235 . S
C5 O32 1.289 . S
O6 C5 1.235 . S
C7 C9 1.400 . S
C7 N10 1.351 . S
C7 C12 1.501 . S
C8 C9 1.387 . S
C8 N11 1.341 . S
C9 C7 1.400 . S
C9 C8 1.387 . S
N10 Co1 2.022 . S
N10 C7 1.351 . S
N10 N11 1.365 . S
N11 C8 1.341 . S
N11 N10 1.365 . S
N11 H31 0.862 . S
C12 C7 1.501 . S
C12 H13 0.961 . S
C12 H14 0.961 . S
C12 H15 0.960 . S
H13 C12 0.961 . S
H14 C12 0.961 . S
H15 C12 0.960 . S
C16 N17 1.342 . S
C16 C20 1.401 . S
C16 C21 1.499 . S
N17 Co0 1.989 . S
N17 C16 1.342 . S
N17 N18 1.388 . S
N18 Co1 1.993 . S
N18 N17 1.388 . S
N18 C19 1.346 . S
C19 N18 1.346 . S
C19 C20 1.396 . S
C19 C29 1.510 . S
C20 C16 1.401 . S
C20 C19 1.396 . S
C21 C16 1.499 . S
C21 H22 0.959 . S
C21 H23 0.960 . S
C21 H24 0.961 . S
H22 C21 0.959 . S
H23 C21 0.960 . S
H24 C21 0.961 . S
O25 Co0 1.967 . S
O25 C33 1.258 . S
O26 Co1 1.941 . S
O26 C33 1.266 . S
H27 C29 0.959 . S
H28 C29 0.961 . S
C29 C19 1.510 . S
C29 H27 0.959 . S
C29 H28 0.961 . S
C29 H30 0.960 . S
H30 C29 0.960 . S
H31 N11 0.862 . S
O32 Co0 1.920 . S
O32 C5 1.289 . S
C33 O25 1.258 . S
C33 O26 1.266 . S
Co34 O37 1.970 . S
Co34 N51 1.989 . S
Co34 O59 1.967 . S
Co34 O66 1.920 . S
Co35 O38 1.966 . S
Co35 N44 2.022 . S
Co35 N52 1.993 . S
Co35 O60 1.941 . S
C36 O37 1.258 . S
C36 O38 1.263 . S
O37 Co34 1.970 . S
O37 C36 1.258 . S
O38 Co35 1.966 . S
O38 C36 1.263 . S
C39 O40 1.235 . S
C39 O66 1.289 . S
O40 C39 1.235 . S
C41 C43 1.400 . S
C41 N44 1.351 . S
C41 C46 1.501 . S
C42 C43 1.387 . S
C42 N45 1.341 . S
C43 C41 1.400 . S
C43 C42 1.387 . S
N44 Co35 2.022 . S
N44 C41 1.351 . S
N44 N45 1.365 . S
N45 C42 1.341 . S
N45 N44 1.365 . S
N45 H65 0.862 . S
C46 C41 1.501 . S
C46 H47 0.961 . S
C46 H48 0.961 . S
C46 H49 0.960 . S
H47 C46 0.961 . S
H48 C46 0.961 . S
H49 C46 0.960 . S
C50 N51 1.342 . S
C50 C54 1.401 . S
C50 C55 1.499 . S
N51 Co34 1.989 . S
N51 C50 1.342 . S
N51 N52 1.388 . S
N52 Co35 1.993 . S
N52 N51 1.388 . S
N52 C53 1.346 . S
C53 N52 1.346 . S
C53 C54 1.396 . S
C53 C63 1.510 . S
C54 C50 1.401 . S
C54 C53 1.396 . S
C55 C50 1.499 . S
C55 H56 0.959 . S
C55 H57 0.960 . S
C55 H58 0.961 . S
H56 C55 0.959 . S
H57 C55 0.960 . S
H58 C55 0.961 . S
O59 Co34 1.967 . S
O59 C67 1.258 . S
O60 Co35 1.941 . S
O60 C67 1.266 . S
H61 C63 0.959 . S
H62 C63 0.961 . S
C63 C53 1.510 . S
C63 H61 0.959 . S
C63 H62 0.961 . S
C63 H64 0.960 . S
H64 C63 0.960 . S
H65 N45 0.862 . S
O66 Co34 1.920 . S
O66 C39 1.289 . S
C67 O59 1.258 . S
C67 O60 1.266 . S
Co68 O71 1.970 . S
Co68 N85 1.989 . S
Co68 O93 1.967 . S
Co68 O100 1.920 . S
Co69 O72 1.966 . S
Co69 N78 2.022 . S
Co69 N86 1.993 . S
Co69 O94 1.941 . S
C70 O71 1.258 . S
C70 O72 1.263 . S
O71 Co68 1.970 . S
O71 C70 1.258 . S
O72 Co69 1.966 . S
O72 C70 1.263 . S
C73 O74 1.235 . S
C73 O100 1.289 . S
O74 C73 1.235 . S
C75 C77 1.400 . S
C75 N78 1.351 . S
C75 C80 1.501 . S
C76 C77 1.387 . S
C76 N79 1.341 . S
C77 C75 1.400 . S
C77 C76 1.387 . S
N78 Co69 2.022 . S
N78 C75 1.351 . S
N78 N79 1.365 . S
N79 C76 1.341 . S
N79 N78 1.365 . S
N79 H99 0.862 . S
C80 C75 1.501 . S
C80 H81 0.961 . S
C80 H82 0.961 . S
C80 H83 0.960 . S
H81 C80 0.961 . S
H82 C80 0.961 . S
H83 C80 0.960 . S
C84 N85 1.342 . S
C84 C88 1.401 . S
C84 C89 1.499 . S
N85 Co68 1.989 . S
N85 C84 1.342 . S
N85 N86 1.388 . S
N86 Co69 1.993 . S
N86 N85 1.388 . S
N86 C87 1.346 . S
C87 N86 1.346 . S
C87 C88 1.396 . S
C87 C97 1.510 . S
C88 C84 1.401 . S
C88 C87 1.396 . S
C89 C84 1.499 . S
C89 H90 0.959 . S
C89 H91 0.960 . S
C89 H92 0.961 . S
H90 C89 0.959 . S
H91 C89 0.960 . S
H92 C89 0.961 . S
O93 Co68 1.967 . S
O93 C101 1.258 . S
O94 Co69 1.941 . S
O94 C101 1.266 . S
H95 C97 0.959 . S
H96 C97 0.961 . S
C97 C87 1.510 . S
C97 H95 0.959 . S
C97 H96 0.961 . S
C97 H98 0.960 . S
H98 C97 0.960 . S
H99 N79 0.862 . S
O100 Co68 1.920 . S
O100 C73 1.289 . S
C101 O93 1.258 . S
C101 O94 1.266 . S
Co102 O105 1.970 . S
Co102 N119 1.989 . S
Co102 O127 1.967 . S
Co102 O134 1.920 . S
Co103 O106 1.966 . S
Co103 N112 2.022 . S
Co103 N120 1.993 . S
Co103 O128 1.941 . S
C104 O105 1.258 . S
C104 O106 1.263 . S
O105 Co102 1.970 . S
O105 C104 1.258 . S
O106 Co103 1.966 . S
O106 C104 1.263 . S
C107 O108 1.235 . S
C107 O134 1.289 . S
O108 C107 1.235 . S
C109 C111 1.400 . S
C109 N112 1.351 . S
C109 C114 1.501 . S
C110 C111 1.387 . S
C110 N113 1.341 . S
C111 C109 1.400 . S
C111 C110 1.387 . S
N112 Co103 2.022 . S
N112 C109 1.351 . S
N112 N113 1.365 . S
N113 C110 1.341 . S
N113 N112 1.365 . S
N113 H133 0.862 . S
C114 C109 1.501 . S
C114 H115 0.961 . S
C114 H116 0.961 . S
C114 H117 0.960 . S
H115 C114 0.961 . S
H116 C114 0.961 . S
H117 C114 0.960 . S
C118 N119 1.342 . S
C118 C122 1.401 . S
C118 C123 1.499 . S
N119 Co102 1.989 . S
N119 C118 1.342 . S
N119 N120 1.388 . S
N120 Co103 1.993 . S
N120 N119 1.388 . S
N120 C121 1.346 . S
C121 N120 1.346 . S
C121 C122 1.396 . S
C121 C131 1.510 . S
C122 C118 1.401 . S
C122 C121 1.396 . S
C123 C118 1.499 . S
C123 H124 0.959 . S
C123 H125 0.960 . S
C123 H126 0.961 . S
H124 C123 0.959 . S
H125 C123 0.960 . S
H126 C123 0.961 . S
O127 Co102 1.967 . S
O127 C135 1.258 . S
O128 Co103 1.941 . S
O128 C135 1.266 . S
H129 C131 0.959 . S
H130 C131 0.961 . S
C131 C121 1.510 . S
C131 H129 0.959 . S
C131 H130 0.961 . S
C131 H132 0.960 . S
H132 C131 0.960 . S
H133 N113 0.862 . S
O134 Co102 1.920 . S
O134 C107 1.289 . S
C135 O127 1.258 . S
C135 O128 1.266 . S
Co136 O139 1.970 . S
Co136 N153 1.989 . S
Co136 O161 1.967 . S
Co136 O168 1.920 . S
Co137 O140 1.966 . S
Co137 N146 2.022 1_554 S
Co137 N154 1.993 . S
Co137 O162 1.941 . S
C138 O139 1.258 . S
C138 O140 1.263 . S
O139 Co136 1.970 . S
O139 C138 1.258 . S
O140 Co137 1.966 . S
O140 C138 1.263 . S
C141 O142 1.235 . S
C141 O168 1.289 . S
O142 C141 1.235 . S
C143 C145 1.400 . S
C143 N146 1.351 . S
C143 C148 1.501 . S
C144 C145 1.387 . S
C144 N147 1.341 . S
C145 C143 1.400 . S
C145 C144 1.387 . S
N146 Co137 2.022 1_556 S
N146 C143 1.351 . S
N146 N147 1.365 . S
N147 C144 1.341 . S
N147 N146 1.365 . S
N147 H167 0.862 1_556 S
C148 C143 1.501 . S
C148 H149 0.961 . S
C148 H150 0.961 . S
C148 H151 0.960 . S
H149 C148 0.961 . S
H150 C148 0.961 . S
H151 C148 0.960 . S
C152 N153 1.342 . S
C152 C156 1.401 . S
C152 C157 1.499 . S
N153 Co136 1.989 . S
N153 C152 1.342 . S
N153 N154 1.388 . S
N154 Co137 1.993 . S
N154 N153 1.388 . S
N154 C155 1.346 . S
C155 N154 1.346 . S
C155 C156 1.396 . S
C155 C165 1.510 1_554 S
C156 C152 1.401 . S
C156 C155 1.396 . S
C157 C152 1.499 . S
C157 H158 0.959 . S
C157 H159 0.960 . S
C157 H160 0.961 . S
H158 C157 0.959 . S
H159 C157 0.960 . S
H160 C157 0.961 . S
O161 Co136 1.967 . S
O161 C169 1.258 . S
O162 Co137 1.941 . S
O162 C169 1.266 . S
H163 C165 0.959 . S
H164 C165 0.961 . S
C165 C155 1.510 1_556 S
C165 H163 0.959 . S
C165 H164 0.961 . S
C165 H166 0.960 . S
H166 C165 0.960 . S
H167 N147 0.862 1_554 S
O168 Co136 1.920 . S
O168 C141 1.289 . S
C169 O161 1.258 . S
C169 O162 1.266 . S
Co170 O173 1.970 . S
Co170 N187 1.989 . S
Co170 O195 1.967 . S
Co170 O202 1.920 . S
Co171 O174 1.966 . S
Co171 N180 2.022 . S
Co171 N188 1.993 . S
Co171 O196 1.941 . S
C172 O173 1.258 . S
C172 O174 1.263 . S
O173 Co170 1.970 . S
O173 C172 1.258 . S
O174 Co171 1.966 . S
O174 C172 1.263 . S
C175 O176 1.235 . S
C175 O202 1.289 . S
O176 C175 1.235 . S
C177 C179 1.400 . S
C177 N180 1.351 . S
C177 C182 1.501 . S
C178 C179 1.387 . S
C178 N181 1.341 . S
C179 C177 1.400 . S
C179 C178 1.387 . S
N180 Co171 2.022 . S
N180 C177 1.351 . S
N180 N181 1.365 . S
N181 C178 1.341 . S
N181 N180 1.365 . S
N181 H201 0.862 . S
C182 C177 1.501 . S
C182 H183 0.961 . S
C182 H184 0.961 . S
C182 H185 0.960 . S
H183 C182 0.961 . S
H184 C182 0.961 . S
H185 C182 0.960 . S
C186 N187 1.342 . S
C186 C190 1.401 . S
C186 C191 1.499 . S
N187 Co170 1.989 . S
N187 C186 1.342 . S
N187 N188 1.388 . S
N188 Co171 1.993 . S
N188 N187 1.388 . S
N188 C189 1.346 . S
C189 N188 1.346 . S
C189 C190 1.396 . S
C189 C199 1.510 . S
C190 C186 1.401 . S
C190 C189 1.396 . S
C191 C186 1.499 . S
C191 H192 0.959 . S
C191 H193 0.960 . S
C191 H194 0.961 . S
H192 C191 0.959 . S
H193 C191 0.960 . S
H194 C191 0.961 . S
O195 Co170 1.967 . S
O195 C203 1.258 . S
O196 Co171 1.941 . S
O196 C203 1.266 . S
H197 C199 0.959 . S
H198 C199 0.961 . S
C199 C189 1.510 . S
C199 H197 0.959 . S
C199 H198 0.961 . S
C199 H200 0.960 . S
H200 C199 0.960 . S
H201 N181 0.862 . S
O202 Co170 1.920 . S
O202 C175 1.289 . S
C203 O195 1.258 . S
C203 O196 1.266 . S
Co204 O207 1.970 . S
Co204 N221 1.989 . S
Co204 O229 1.967 . S
Co204 O236 1.920 . S
Co205 O208 1.966 . S
Co205 N214 2.022 . S
Co205 N222 1.993 . S
Co205 O230 1.941 . S
C206 O207 1.258 . S
C206 O208 1.263 . S
O207 Co204 1.970 . S
O207 C206 1.258 . S
O208 Co205 1.966 . S
O208 C206 1.263 . S
C209 O210 1.235 . S
C209 O236 1.289 . S
O210 C209 1.235 . S
C211 C213 1.400 . S
C211 N214 1.351 . S
C211 C216 1.501 . S
C212 C213 1.387 . S
C212 N215 1.341 . S
C213 C211 1.400 . S
C213 C212 1.387 . S
N214 Co205 2.022 . S
N214 C211 1.351 . S
N214 N215 1.365 . S
N215 C212 1.341 . S
N215 N214 1.365 . S
N215 H235 0.862 . S
C216 C211 1.501 . S
C216 H217 0.961 . S
C216 H218 0.961 . S
C216 H219 0.960 . S
H217 C216 0.961 . S
H218 C216 0.961 . S
H219 C216 0.960 . S
C220 N221 1.342 . S
C220 C224 1.401 . S
C220 C225 1.499 . S
N221 Co204 1.989 . S
N221 C220 1.342 . S
N221 N222 1.388 . S
N222 Co205 1.993 . S
N222 N221 1.388 . S
N222 C223 1.346 . S
C223 N222 1.346 . S
C223 C224 1.396 . S
C223 C233 1.510 . S
C224 C220 1.401 . S
C224 C223 1.396 . S
C225 C220 1.499 . S
C225 H226 0.959 . S
C225 H227 0.960 . S
C225 H228 0.961 . S
H226 C225 0.959 . S
H227 C225 0.960 . S
H228 C225 0.961 . S
O229 Co204 1.967 . S
O229 C237 1.258 . S
O230 Co205 1.941 . S
O230 C237 1.266 . S
H231 C233 0.959 . S
H232 C233 0.961 . S
C233 C223 1.510 . S
C233 H231 0.959 . S
C233 H232 0.961 . S
C233 H234 0.960 . S
H234 C233 0.960 . S
H235 N215 0.862 . S
O236 Co204 1.920 . S
O236 C209 1.289 . S
C237 O229 1.258 . S
C237 O230 1.266 . S
Co238 O241 1.970 . S
Co238 N255 1.989 . S
Co238 O263 1.967 . S
Co238 O270 1.920 . S
Co239 O242 1.966 . S
Co239 N248 2.022 . S
Co239 N256 1.993 . S
Co239 O264 1.941 . S
C240 O241 1.258 . S
C240 O242 1.263 . S
O241 Co238 1.970 . S
O241 C240 1.258 . S
O242 Co239 1.966 . S
O242 C240 1.263 . S
C243 O244 1.235 . S
C243 O270 1.289 . S
O244 C243 1.235 . S
C245 C247 1.400 . S
C245 N248 1.351 . S
C245 C250 1.501 . S
C246 C247 1.387 . S
C246 N249 1.341 . S
C247 C245 1.400 . S
C247 C246 1.387 . S
N248 Co239 2.022 . S
N248 C245 1.351 . S
N248 N249 1.365 . S
N249 C246 1.341 . S
N249 N248 1.365 . S
N249 H269 0.862 . S
C250 C245 1.501 . S
C250 H251 0.961 . S
C250 H252 0.961 . S
C250 H253 0.960 . S
H251 C250 0.961 . S
H252 C250 0.961 . S
H253 C250 0.960 . S
C254 N255 1.342 . S
C254 C258 1.401 . S
C254 C259 1.499 . S
N255 Co238 1.989 . S
N255 C254 1.342 . S
N255 N256 1.388 . S
N256 Co239 1.993 . S
N256 N255 1.388 . S
N256 C257 1.346 . S
C257 N256 1.346 . S
C257 C258 1.396 . S
C257 C267 1.510 . S
C258 C254 1.401 . S
C258 C257 1.396 . S
C259 C254 1.499 . S
C259 H260 0.959 . S
C259 H261 0.960 . S
C259 H262 0.961 . S
H260 C259 0.959 . S
H261 C259 0.960 . S
H262 C259 0.961 . S
O263 Co238 1.967 . S
O263 C271 1.258 . S
O264 Co239 1.941 . S
O264 C271 1.266 . S
H265 C267 0.959 . S
H266 C267 0.961 . S
C267 C257 1.510 . S
C267 H265 0.959 . S
C267 H266 0.961 . S
C267 H268 0.960 . S
H268 C267 0.960 . S
H269 N249 0.862 . S
O270 Co238 1.920 . S
O270 C243 1.289 . S
C271 O263 1.258 . S
C271 O264 1.266 . S
Co272 O275 1.970 . S
Co272 N289 1.989 . S
Co272 O297 1.967 . S
Co272 O304 1.920 . S
Co273 O276 1.966 . S
Co273 N282 2.022 . S
Co273 N290 1.993 . S
Co273 O298 1.941 . S
C274 O275 1.258 . S
C274 O276 1.263 . S
O275 Co272 1.970 . S
O275 C274 1.258 . S
O276 Co273 1.966 . S
O276 C274 1.263 . S
C277 O278 1.235 . S
C277 O304 1.289 . S
O278 C277 1.235 . S
C279 C281 1.400 . S
C279 N282 1.351 . S
C279 C284 1.501 . S
C280 C281 1.387 . S
C280 N283 1.341 . S
C281 C279 1.400 . S
C281 C280 1.387 . S
N282 Co273 2.022 . S
N282 C279 1.351 . S
N282 N283 1.365 . S
N283 C280 1.341 . S
N283 N282 1.365 . S
N283 H303 0.862 . S
C284 C279 1.501 . S
C284 H285 0.961 . S
C284 H286 0.961 . S
C284 H287 0.960 . S
H285 C284 0.961 . S
H286 C284 0.961 . S
H287 C284 0.960 . S
C288 N289 1.342 . S
C288 C292 1.401 . S
C288 C293 1.499 . S
N289 Co272 1.989 . S
N289 C288 1.342 . S
N289 N290 1.388 . S
N290 Co273 1.993 . S
N290 N289 1.388 . S
N290 C291 1.346 . S
C291 N290 1.346 . S
C291 C292 1.396 . S
C291 C301 1.510 . S
C292 C288 1.401 . S
C292 C291 1.396 . S
C293 C288 1.499 . S
C293 H294 0.959 . S
C293 H295 0.960 . S
C293 H296 0.961 . S
H294 C293 0.959 . S
H295 C293 0.960 . S
H296 C293 0.961 . S
O297 Co272 1.967 . S
O297 C305 1.258 . S
O298 Co273 1.941 . S
O298 C305 1.266 . S
H299 C301 0.959 . S
H300 C301 0.961 . S
C301 C291 1.510 . S
C301 H299 0.959 . S
C301 H300 0.961 . S
C301 H302 0.960 . S
H302 C301 0.960 . S
H303 N283 0.862 . S
O304 Co272 1.920 . S
O304 C277 1.289 . S
C305 O297 1.258 . S
C305 O298 1.266 . S
Co306 O309 1.970 . S
Co306 N323 1.989 . S
Co306 O331 1.967 . S
Co306 O338 1.920 . S
Co307 O310 1.966 . S
Co307 N316 1.966 1_556 S
Co307 N324 1.993 . S
Co307 O332 1.941 . S
C308 O309 1.258 . S
C308 O310 1.263 . S
O309 Co306 1.970 . S
O309 C308 1.258 . S
O310 Co307 1.966 . S
O310 C308 1.263 . S
C311 O312 1.235 . S
C311 O338 1.289 . S
O312 C311 1.235 . S
C313 C315 1.400 . S
C313 N316 1.428 . S
C313 C318 1.501 . S
C314 C315 1.387 . S
C314 N317 1.307 1_554 S
C315 C313 1.400 . S
C315 C314 1.387 . S
N316 Co307 1.966 1_554 S
N316 C313 1.428 . S
N316 N317 1.359 1_554 S
N317 C314 1.307 1_556 S
N317 N316 1.359 1_556 S
N317 H337 0.896 . S
C318 C313 1.501 . S
C318 H319 0.961 . S
C318 H320 0.961 . S
C318 H321 0.960 . S
H319 C318 0.961 . S
H320 C318 0.961 . S
H321 C318 0.960 . S
C322 N323 1.342 . S
C322 C326 1.401 . S
C322 C327 1.499 . S
N323 Co306 1.989 . S
N323 C322 1.342 . S
N323 N324 1.388 . S
N324 Co307 1.993 . S
N324 N323 1.388 . S
N324 C325 1.346 . S
C325 N324 1.346 . S
C325 C326 1.396 . S
C325 C335 1.510 . S
C326 C322 1.401 . S
C326 C325 1.396 . S
C327 C322 1.499 . S
C327 H328 0.959 . S
C327 H329 0.960 . S
C327 H330 0.961 . S
H328 C327 0.959 . S
H329 C327 0.960 . S
H330 C327 0.961 . S
O331 Co306 1.967 . S
O331 C339 1.258 . S
O332 Co307 1.941 . S
O332 C339 1.266 . S
H333 C335 0.959 . S
H334 C335 0.961 1_554 S
C335 C325 1.510 . S
C335 H333 0.959 . S
C335 H334 0.961 1_556 S
C335 H336 0.960 1_556 S
H336 C335 0.960 1_554 S
H337 N317 0.896 . S
O338 Co306 1.920 . S
O338 C311 1.289 . S
C339 O331 1.258 . S
C339 O332 1.266 . S
Co340 O343 1.970 . S
Co340 N357 1.989 . S
Co340 O365 1.967 . S
Co340 O372 1.920 . S
Co341 O344 1.966 . S
Co341 N350 2.022 . S
Co341 N358 1.993 . S
Co341 O366 1.941 . S
C342 O343 1.258 . S
C342 O344 1.263 . S
O343 Co340 1.970 . S
O343 C342 1.258 . S
O344 Co341 1.966 . S
O344 C342 1.263 . S
C345 O346 1.235 . S
C345 O372 1.289 . S
O346 C345 1.235 . S
C347 C349 1.400 . S
C347 N350 1.351 . S
C347 C352 1.501 . S
C348 C349 1.387 . S
C348 N351 1.341 . S
C349 C347 1.400 . S
C349 C348 1.387 . S
N350 Co341 2.022 . S
N350 C347 1.351 . S
N350 N351 1.365 . S
N351 C348 1.341 . S
N351 N350 1.365 . S
N351 H371 0.862 . S
C352 C347 1.501 . S
C352 H353 0.961 . S
C352 H354 0.961 . S
C352 H355 0.960 . S
H353 C352 0.961 . S
H354 C352 0.961 . S
H355 C352 0.960 . S
C356 N357 1.342 . S
C356 C360 1.401 . S
C356 C361 1.499 . S
N357 Co340 1.989 . S
N357 C356 1.342 . S
N357 N358 1.388 . S
N358 Co341 1.993 . S
N358 N357 1.388 . S
N358 C359 1.346 . S
C359 N358 1.346 . S
C359 C360 1.396 . S
C359 C369 1.510 . S
C360 C356 1.401 . S
C360 C359 1.396 . S
C361 C356 1.499 . S
C361 H362 0.959 . S
C361 H363 0.960 . S
C361 H364 0.961 . S
H362 C361 0.959 . S
H363 C361 0.960 . S
H364 C361 0.961 . S
O365 Co340 1.967 . S
O365 C373 1.258 . S
O366 Co341 1.941 . S
O366 C373 1.266 . S
H367 C369 0.959 . S
H368 C369 0.961 . S
C369 C359 1.510 . S
C369 H367 0.959 . S
C369 H368 0.961 . S
C369 H370 0.960 . S
H370 C369 0.960 . S
H371 N351 0.862 . S
O372 Co340 1.920 . S
O372 C345 1.289 . S
C373 O365 1.258 . S
C373 O366 1.266 . S
Co374 O377 1.970 . S
Co374 N391 1.989 . S
Co374 O399 1.967 . S
Co374 O406 1.920 . S
Co375 O378 1.966 . S
Co375 N384 2.022 . S
Co375 N392 1.993 . S
Co375 O400 1.941 . S
C376 O377 1.258 . S
C376 O378 1.263 . S
O377 Co374 1.970 . S
O377 C376 1.258 . S
O378 Co375 1.966 . S
O378 C376 1.263 . S
C379 O380 1.235 . S
C379 O406 1.289 . S
O380 C379 1.235 . S
C381 C383 1.400 . S
C381 N384 1.351 . S
C381 C386 1.501 . S
C382 C383 1.387 . S
C382 N385 1.341 . S
C383 C381 1.400 . S
C383 C382 1.387 . S
N384 Co375 2.022 . S
N384 C381 1.351 . S
N384 N385 1.365 . S
N385 C382 1.341 . S
N385 N384 1.365 . S
N385 H405 0.862 . S
C386 C381 1.501 . S
C386 H387 0.961 . S
C386 H388 0.961 . S
C386 H389 0.960 . S
H387 C386 0.961 . S
H388 C386 0.961 . S
H389 C386 0.960 . S
C390 N391 1.342 . S
C390 C394 1.401 . S
C390 C395 1.499 . S
N391 Co374 1.989 . S
N391 C390 1.342 . S
N391 N392 1.388 . S
N392 Co375 1.993 . S
N392 N391 1.388 . S
N392 C393 1.346 . S
C393 N392 1.346 . S
C393 C394 1.396 . S
C393 C403 1.510 . S
C394 C390 1.401 . S
C394 C393 1.396 . S
C395 C390 1.499 . S
C395 H396 0.959 . S
C395 H397 0.960 . S
C395 H398 0.961 . S
H396 C395 0.959 . S
H397 C395 0.960 . S
H398 C395 0.961 . S
O399 Co374 1.967 . S
O399 C407 1.258 . S
O400 Co375 1.941 . S
O400 C407 1.266 . S
H401 C403 0.959 . S
H402 C403 0.961 . S
C403 C393 1.510 . S
C403 H401 0.959 . S
C403 H402 0.961 . S
C403 H404 0.960 . S
H404 C403 0.960 . S
H405 N385 0.862 . S
O406 Co374 1.920 . S
O406 C379 1.289 . S
C407 O399 1.258 . S
C407 O400 1.266 . S
H408 C426 0.951 . S
H409 C428 0.951 . S
H410 C430 0.950 . S
H411 C431 0.950 . S
H412 C433 0.950 . S
H413 C436 0.950 . S
H414 C437 0.950 . S
H415 C439 0.950 . S
H416 C440 0.950 . S
H417 C441 0.951 . S
H418 C443 0.951 . S
H419 C445 0.950 . S
H420 C446 0.950 . S
H421 C448 0.950 . S
H422 C451 0.950 . S
H423 C452 0.950 . S
H424 C454 0.950 . S
H425 C455 0.950 . S
C426 H408 0.951 . S
C426 C427 1.366 . S
C426 C428 1.388 . S
C427 C426 1.366 . S
C427 C431 1.385 . S
C428 H409 0.951 . S
C428 C426 1.388 . S
C428 C429 1.366 . S
C429 C428 1.366 . S
C429 C430 1.414 . S
C429 C432 1.499 . S
C430 H410 0.950 . S
C430 C429 1.414 . S
C430 C431 1.374 . S
C431 H411 0.950 . S
C431 C427 1.385 . S
C431 C430 1.374 . S
C432 C429 1.499 . S
C432 C433 1.373 . S
C432 C434 1.389 1_545 S
C433 H412 0.950 . S
C433 C432 1.373 . S
C433 C449 1.377 . S
C434 C432 1.389 1_565 S
C434 C435 1.524 . S
C434 C448 1.377 . S
C435 C434 1.524 . S
C435 C436 1.397 . S
C435 C440 1.363 . S
C436 H413 0.950 . S
C436 C435 1.397 . S
C436 C437 1.334 . S
C437 H414 0.950 . S
C437 C436 1.334 . S
C437 C438 1.287 . S
C438 C437 1.287 . S
C438 C439 1.524 . S
C438 H457 0.913 . S
C439 H415 0.950 . S
C439 C438 1.524 . S
C439 C440 1.415 . S
C440 H416 0.950 . S
C440 C435 1.363 . S
C440 C439 1.415 . S
C441 H417 0.951 . S
C441 C442 1.366 . S
C441 C443 1.388 . S
C442 C441 1.366 . S
C442 C446 1.385 . S
C443 H418 0.951 . S
C443 C441 1.388 . S
C443 C444 1.366 . S
C444 C443 1.366 . S
C444 C445 1.414 . S
C444 C447 1.499 . S
C445 H419 0.950 . S
C445 C444 1.414 . S
C445 C446 1.374 . S
C446 H420 0.950 . S
C446 C442 1.385 . S
C446 C445 1.374 . S
C447 C444 1.499 . S
C447 C448 1.373 . S
C447 C449 1.389 1_565 S
C448 H421 0.950 . S
C448 C434 1.377 . S
C448 C447 1.373 . S
C449 C433 1.377 . S
C449 C447 1.389 1_545 S
C449 C450 1.524 . S
C450 C449 1.524 . S
C450 C451 1.397 . S
C450 C455 1.363 . S
C451 H422 0.950 . S
C451 C450 1.397 . S
C451 C452 1.334 . S
C452 H423 0.950 . S
C452 C451 1.334 . S
C452 C453 1.287 . S
C453 C452 1.287 . S
C453 C454 1.524 . S
C453 H456 0.999 . S
C454 H424 0.950 . S
C454 C453 1.524 . S
C454 C455 1.415 . S
C455 H425 0.950 . S
C455 C450 1.363 . S
C455 C454 1.415 . S
H456 C453 0.999 . S
H457 C438 0.913 . S
H458 C476 0.951 . S
H459 C478 0.951 . S
H460 C480 0.950 . S
H461 C481 0.950 . S
H462 C483 0.950 . S
H463 C486 0.950 . S
H464 C487 0.950 . S
H465 C489 0.950 . S
H466 C490 0.950 . S
H467 C491 0.951 . S
H468 C493 0.951 . S
H469 C495 0.950 . S
H470 C496 0.950 . S
H471 C498 0.950 . S
H472 C501 0.950 . S
H473 C502 0.950 . S
H474 C504 0.950 . S
H475 C505 0.950 . S
C476 H458 0.951 . S
C476 C477 1.366 . S
C476 C478 1.388 . S
C477 C476 1.366 . S
C477 C481 1.385 . S
C478 H459 0.951 . S
C478 C476 1.388 . S
C478 C479 1.366 . S
C479 C478 1.366 . S
C479 C480 1.414 . S
C479 C482 1.499 . S
C480 H460 0.950 . S
C480 C479 1.414 . S
C480 C481 1.374 . S
C481 H461 0.950 . S
C481 C477 1.385 . S
C481 C480 1.374 . S
C482 C479 1.499 . S
C482 C483 1.373 . S
C482 C484 1.389 . S
C483 H462 0.950 . S
C483 C482 1.373 . S
C483 C499 1.377 . S
C484 C482 1.389 . S
C484 C485 1.524 . S
C484 C498 1.377 . S
C485 C484 1.524 . S
C485 C486 1.397 . S
C485 C490 1.363 . S
C486 H463 0.950 . S
C486 C485 1.397 . S
C486 C487 1.334 . S
C487 H464 0.950 . S
C487 C486 1.334 . S
C487 C488 1.287 . S
C488 C487 1.287 . S
C488 C489 1.524 . S
C488 H507 0.913 . S
C489 H465 0.950 . S
C489 C488 1.524 . S
C489 C490 1.415 . S
C490 H466 0.950 . S
C490 C485 1.363 . S
C490 C489 1.415 . S
C491 H467 0.951 . S
C491 C492 1.366 . S
C491 C493 1.388 . S
C492 C491 1.366 . S
C492 C496 1.385 . S
C493 H468 0.951 . S
C493 C491 1.388 . S
C493 C494 1.366 . S
C494 C493 1.366 . S
C494 C495 1.414 . S
C494 C497 1.499 . S
C495 H469 0.950 . S
C495 C494 1.414 . S
C495 C496 1.374 . S
C496 H470 0.950 . S
C496 C492 1.385 . S
C496 C495 1.374 . S
C497 C494 1.499 . S
C497 C498 1.373 . S
C497 C499 1.389 . S
C498 H471 0.950 . S
C498 C484 1.377 . S
C498 C497 1.373 . S
C499 C483 1.377 . S
C499 C497 1.389 . S
C499 C500 1.524 . S
C500 C499 1.524 . S
C500 C501 1.397 . S
C500 C505 1.363 . S
C501 H472 0.950 . S
C501 C500 1.397 . S
C501 C502 1.334 . S
C502 H473 0.950 . S
C502 C501 1.334 . S
C502 C503 1.287 . S
C503 C502 1.287 . S
C503 C504 1.524 . S
C503 H506 0.999 . S
C504 H474 0.950 . S
C504 C503 1.524 . S
C504 C505 1.415 . S
C505 H475 0.950 . S
C505 C500 1.363 . S
C505 C504 1.415 . S
H506 C503 0.999 . S
H507 C488 0.913 . S
H508 C526 0.951 . S
H509 C528 0.951 . S
H510 C530 0.950 . S
H511 C531 0.950 . S
H512 C533 0.950 . S
H513 C536 0.950 . S
H514 C537 0.950 . S
H515 C539 0.950 . S
H516 C540 0.950 . S
H517 C541 0.951 . S
H518 C543 0.951 1_455 S
H519 C545 0.950 . S
H520 C546 0.950 . S
H521 C548 0.950 . S
H522 C551 0.950 . S
H523 C552 0.950 . S
H524 C554 0.950 . S
H525 C555 0.950 . S
C526 H508 0.951 . S
C526 C527 1.366 . S
C526 C528 1.388 . S
C527 C526 1.366 . S
C527 C531 1.385 . S
C528 H509 0.951 . S
C528 C526 1.388 . S
C528 C529 1.366 . S
C529 C528 1.366 . S
C529 C530 1.414 . S
C529 C532 1.499 . S
C530 H510 0.950 . S
C530 C529 1.414 . S
C530 C531 1.374 . S
C531 H511 0.950 . S
C531 C527 1.385 . S
C531 C530 1.374 . S
C532 C529 1.499 . S
C532 C533 1.373 . S
C532 C534 1.389 . S
C533 H512 0.950 . S
C533 C532 1.373 . S
C533 C549 1.377 . S
C534 C532 1.389 . S
C534 C535 1.524 1_455 S
C534 C548 1.377 1_455 S
C535 C534 1.524 1_655 S
C535 C536 1.397 . S
C535 C540 1.363 . S
C536 H513 0.950 . S
C536 C535 1.397 . S
C536 C537 1.334 . S
C537 H514 0.950 . S
C537 C536 1.334 . S
C537 C538 1.287 . S
C538 C537 1.287 . S
C538 C539 1.524 . S
C538 H557 0.913 . S
C539 H515 0.950 . S
C539 C538 1.524 . S
C539 C540 1.415 . S
C540 H516 0.950 . S
C540 C535 1.363 . S
C540 C539 1.415 . S
C541 H517 0.951 . S
C541 C542 1.366 . S
C541 C543 1.388 . S
C542 C541 1.366 . S
C542 C546 1.385 . S
C543 H518 0.951 1_655 S
C543 C541 1.388 . S
C543 C544 1.366 . S
C544 C543 1.366 . S
C544 C545 1.414 . S
C544 C547 1.499 1_655 S
C545 H519 0.950 . S
C545 C544 1.414 . S
C545 C546 1.374 . S
C546 H520 0.950 . S
C546 C542 1.385 . S
C546 C545 1.374 . S
C547 C544 1.499 1_455 S
C547 C548 1.373 1_455 S
C547 C549 1.389 . S
C548 H521 0.950 . S
C548 C534 1.377 1_655 S
C548 C547 1.373 1_655 S
C549 C533 1.377 . S
C549 C547 1.389 . S
C549 C550 1.524 . S
C550 C549 1.524 . S
C550 C551 1.397 . S
C550 C555 1.363 . S
C551 H522 0.950 . S
C551 C550 1.397 . S
C551 C552 1.334 . S
C552 H523 0.950 . S
C552 C551 1.334 . S
C552 C553 1.287 . S
C553 C552 1.287 . S
C553 C554 1.524 . S
C553 H556 0.999 . S
C554 H524 0.950 . S
C554 C553 1.524 . S
C554 C555 1.415 . S
C555 H525 0.950 . S
C555 C550 1.363 . S
C555 C554 1.415 . S
H556 C553 0.999 . S
H557 C538 0.913 . S
H558 C576 0.951 . S
H559 C578 0.951 . S
H560 C580 0.950 . S
H561 C581 0.950 . S
H562 C583 0.950 . S
H563 C586 0.950 . S
H564 C587 0.950 . S
H565 C589 0.950 . S
H566 C590 0.950 1_565 S
H567 C591 0.951 . S
H568 C593 0.951 . S
H569 C595 0.950 . S
H570 C596 0.950 . S
H571 C598 0.950 . S
H572 C601 0.950 . S
H573 C602 0.950 . S
H574 C604 0.950 . S
H575 C605 0.950 . S
C576 H558 0.951 . S
C576 C577 1.366 . S
C576 C578 1.388 . S
C577 C576 1.366 . S
C577 C581 1.385 . S
C578 H559 0.951 . S
C578 C576 1.388 . S
C578 C579 1.366 . S
C579 C578 1.366 . S
C579 C580 1.414 . S
C579 C582 1.499 . S
C580 H560 0.950 . S
C580 C579 1.414 . S
C580 C581 1.374 . S
C581 H561 0.950 . S
C581 C577 1.385 . S
C581 C580 1.374 . S
C582 C579 1.499 . S
C582 C583 1.373 . S
C582 C584 1.389 . S
C583 H562 0.950 . S
C583 C582 1.373 . S
C583 C599 1.377 . S
C584 C582 1.389 . S
C584 C585 1.524 . S
C584 C598 1.377 . S
C585 C584 1.524 . S
C585 C586 1.397 . S
C585 C590 1.363 . S
C586 H563 0.950 . S
C586 C585 1.397 . S
C586 C587 1.334 . S
C587 H564 0.950 . S
C587 C586 1.334 . S
C587 C588 1.287 . S
C588 C587 1.287 . S
C588 C589 1.524 . S
C588 H607 0.913 . S
C589 H565 0.950 . S
C589 C588 1.524 . S
C589 C590 1.415 . S
C590 H566 0.950 1_545 S
C590 C585 1.363 . S
C590 C589 1.415 . S
C591 H567 0.951 . S
C591 C592 1.366 . S
C591 C593 1.388 1_565 S
C592 C591 1.366 . S
C592 C596 1.385 . S
C593 H568 0.951 . S
C593 C591 1.388 1_545 S
C593 C594 1.366 1_545 S
C594 C593 1.366 1_565 S
C594 C595 1.414 . S
C594 C597 1.499 1_565 S
C595 H569 0.950 . S
C595 C594 1.414 . S
C595 C596 1.374 . S
C596 H570 0.950 . S
C596 C592 1.385 . S
C596 C595 1.374 . S
C597 C594 1.499 1_545 S
C597 C598 1.373 . S
C597 C599 1.389 . S
C598 H571 0.950 . S
C598 C584 1.377 . S
C598 C597 1.373 . S
C599 C583 1.377 . S
C599 C597 1.389 . S
C599 C600 1.524 . S
C600 C599 1.524 . S
C600 C601 1.397 1_545 S
C600 C605 1.363 . S
C601 H572 0.950 . S
C601 C600 1.397 1_565 S
C601 C602 1.334 . S
C602 H573 0.950 . S
C602 C601 1.334 . S
C602 C603 1.287 . S
C603 C602 1.287 . S
C603 C604 1.524 1_565 S
C603 H606 0.999 . S
C604 H574 0.950 . S
C604 C603 1.524 1_545 S
C604 C605 1.415 . S
C605 H575 0.950 . S
C605 C600 1.363 . S
C605 C604 1.415 . S
H606 C603 0.999 . S
H607 C588 0.913 . S
H608 C626 0.951 . S
H609 C628 0.951 . S
H610 C630 0.950 . S
H611 C631 0.950 . S
H612 C633 0.950 . S
H613 C636 0.950 . S
H614 C637 0.950 . S
H615 C639 0.950 . S
H616 C640 0.950 . S
H617 C641 0.951 . S
H618 C643 0.951 . S
H619 C645 0.951 . S
H620 C646 0.950 . S
H621 C648 0.950 . S
H622 C651 0.950 . S
H623 C652 0.950 . S
H624 C654 0.950 . S
H625 C655 0.950 . S
C626 H608 0.951 . S
C626 C627 1.366 . S
C626 C628 1.388 . S
C627 C626 1.366 . S
C627 C631 1.385 . S
C628 H609 0.951 . S
C628 C626 1.388 . S
C628 C629 1.366 . S
C629 C628 1.366 . S
C629 C630 1.414 . S
C629 C632 1.499 . S
C630 H610 0.950 . S
C630 C629 1.414 . S
C630 C631 1.374 . S
C631 H611 0.950 . S
C631 C627 1.385 . S
C631 C630 1.374 . S
C632 C629 1.499 . S
C632 C633 1.373 . S
C632 C634 1.389 1_554 S
C633 H612 0.950 . S
C633 C632 1.373 . S
C633 C649 1.377 . S
C634 C632 1.389 1_556 S
C634 C635 1.524 . S
C634 C648 1.377 . S
C635 C634 1.524 . S
C635 C636 1.397 . S
C635 C640 1.363 . S
C636 H613 0.950 . S
C636 C635 1.397 . S
C636 C637 1.334 . S
C637 H614 0.950 . S
C637 C636 1.334 . S
C637 C638 1.287 . S
C638 C637 1.287 . S
C638 C639 1.524 . S
C638 H657 0.913 . S
C639 H615 0.950 . S
C639 C638 1.524 . S
C639 C640 1.415 . S
C640 H616 0.950 . S
C640 C635 1.363 . S
C640 C639 1.415 . S
C641 H617 0.951 . S
C641 C642 1.366 . S
C641 C643 1.388 . S
C642 C641 1.366 . S
C642 C646 1.385 . S
C643 H618 0.951 . S
C643 C641 1.388 . S
C643 C644 1.366 . S
C644 C643 1.366 . S
C644 C645 1.414 . S
C644 C647 1.499 1_556 S
C645 H619 0.951 . S
C645 C644 1.414 . S
C645 C646 1.374 . S
C646 H620 0.950 . S
C646 C642 1.385 . S
C646 C645 1.374 . S
C647 C644 1.499 1_554 S
C647 C648 1.373 1_554 S
C647 C649 1.389 . S
C648 H621 0.950 . S
C648 C634 1.377 . S
C648 C647 1.373 1_556 S
C649 C633 1.377 . S
C649 C647 1.389 . S
C649 C650 1.524 . S
C650 C649 1.524 . S
C650 C651 1.397 . S
C650 C655 1.363 . S
C651 H622 0.950 . S
C651 C650 1.397 . S
C651 C652 1.334 . S
C652 H623 0.950 . S
C652 C651 1.334 . S
C652 C653 1.287 . S
C653 C652 1.287 . S
C653 C654 1.524 . S
C653 H656 0.999 . S
C654 H624 0.950 . S
C654 C653 1.524 . S
C654 C655 1.415 . S
C655 H625 0.950 . S
C655 C650 1.363 . S
C655 C654 1.415 . S
H656 C653 0.999 . S
H657 C638 0.913 . S
H658 C676 0.951 . S
H659 C678 0.951 . S
H660 C680 0.950 1_655 S
H661 C681 0.950 . S
H662 C683 0.950 . S
H663 C686 0.950 . S
H664 C687 0.950 . S
H665 C689 0.950 . S
H666 C690 0.950 . S
H667 C691 0.951 . S
H668 C693 0.951 . S
H669 C695 0.950 1_455 S
H670 C696 0.950 . S
H671 C698 0.950 . S
H672 C701 0.950 . S
H673 C702 0.950 . S
H674 C704 0.950 . S
H675 C705 0.950 . S
C676 H658 0.951 . S
C676 C677 1.366 . S
C676 C678 1.388 . S
C677 C676 1.366 . S
C677 C681 1.385 . S
C678 H659 0.951 . S
C678 C676 1.388 . S
C678 C679 1.366 . S
C679 C678 1.366 . S
C679 C680 1.414 . S
C679 C682 1.499 . S
C680 H660 0.950 1_455 S
C680 C679 1.414 . S
C680 C681 1.374 . S
C681 H661 0.950 . S
C681 C677 1.385 . S
C681 C680 1.374 . S
C682 C679 1.499 . S
C682 C683 1.373 1_455 S
C682 C684 1.389 . S
C683 H662 0.950 . S
C683 C682 1.373 1_655 S
C683 C699 1.377 . S
C684 C682 1.389 . S
C684 C685 1.524 . S
C684 C698 1.377 . S
C685 C684 1.524 . S
C685 C686 1.397 . S
C685 C690 1.363 . S
C686 H663 0.950 . S
C686 C685 1.397 . S
C686 C687 1.334 . S
C687 H664 0.950 . S
C687 C686 1.334 . S
C687 C688 1.287 . S
C688 C687 1.287 . S
C688 C689 1.524 . S
C688 H707 0.913 . S
C689 H665 0.950 . S
C689 C688 1.524 . S
C689 C690 1.415 . S
C690 H666 0.950 . S
C690 C685 1.363 . S
C690 C689 1.415 . S
C691 H667 0.951 . S
C691 C692 1.366 . S
C691 C693 1.388 . S
C692 C691 1.366 . S
C692 C696 1.385 . S
C693 H668 0.951 . S
C693 C691 1.388 . S
C693 C694 1.366 . S
C694 C693 1.366 . S
C694 C695 1.414 . S
C694 C697 1.499 . S
C695 H669 0.950 1_655 S
C695 C694 1.414 . S
C695 C696 1.374 . S
C696 H670 0.950 . S
C696 C692 1.385 . S
C696 C695 1.374 . S
C697 C694 1.499 . S
C697 C698 1.373 1_655 S
C697 C699 1.389 . S
C698 H671 0.950 . S
C698 C684 1.377 . S
C698 C697 1.373 1_455 S
C699 C683 1.377 . S
C699 C697 1.389 . S
C699 C700 1.524 . S
C700 C699 1.524 . S
C700 C701 1.397 . S
C700 C705 1.363 . S
C701 H672 0.950 . S
C701 C700 1.397 . S
C701 C702 1.334 . S
C702 H673 0.950 . S
C702 C701 1.334 . S
C702 C703 1.287 . S
C703 C702 1.287 . S
C703 C704 1.524 . S
C703 H706 0.999 . S
C704 H674 0.950 . S
C704 C703 1.524 . S
C704 C705 1.415 . S
C705 H675 0.950 . S
C705 C700 1.363 . S
C705 C704 1.415 . S
H706 C703 0.999 . S
H707 C688 0.913 . S
H708 C726 0.951 . S
H709 C728 0.951 . S
H710 C730 0.950 . S
H711 C731 0.950 . S
H712 C733 0.950 . S
H713 C736 0.950 . S
H714 C737 0.950 . S
H715 C739 0.950 . S
H716 C740 0.950 . S
H717 C741 0.951 . S
H718 C743 0.951 . S
H719 C745 0.950 . S
H720 C746 0.950 1_455 S
H721 C748 0.950 . S
H722 C751 0.951 . S
H723 C752 0.950 . S
H724 C754 0.950 . S
H725 C755 0.950 . S
C726 H708 0.951 . S
C726 C727 1.366 . S
C726 C728 1.388 . S
C727 C726 1.366 . S
C727 C731 1.385 . S
C728 H709 0.951 . S
C728 C726 1.388 . S
C728 C729 1.366 . S
C729 C728 1.366 . S
C729 C730 1.414 . S
C729 C732 1.499 . S
C730 H710 0.950 . S
C730 C729 1.414 . S
C730 C731 1.374 . S
C731 H711 0.950 . S
C731 C727 1.385 . S
C731 C730 1.374 . S
C732 C729 1.499 . S
C732 C733 1.373 . S
C732 C734 1.389 . S
C733 H712 0.950 . S
C733 C732 1.373 . S
C733 C749 1.377 1_455 S
C734 C732 1.389 . S
C734 C735 1.524 . S
C734 C748 1.377 . S
C735 C734 1.524 . S
C735 C736 1.397 . S
C735 C740 1.363 . S
C736 H713 0.950 . S
C736 C735 1.397 . S
C736 C737 1.334 . S
C737 H714 0.950 . S
C737 C736 1.334 . S
C737 C738 1.287 . S
C738 C737 1.287 . S
C738 C739 1.524 . S
C738 H757 0.913 . S
C739 H715 0.950 . S
C739 C738 1.524 . S
C739 C740 1.415 . S
C740 H716 0.950 . S
C740 C735 1.363 . S
C740 C739 1.415 . S
C741 H717 0.951 . S
C741 C742 1.366 . S
C741 C743 1.388 . S
C742 C741 1.366 . S
C742 C746 1.385 . S
C743 H718 0.951 . S
C743 C741 1.388 . S
C743 C744 1.366 . S
C744 C743 1.366 . S
C744 C745 1.414 1_655 S
C744 C747 1.499 1_655 S
C745 H719 0.950 . S
C745 C744 1.414 1_455 S
C745 C746 1.374 1_455 S
C746 H720 0.950 1_655 S
C746 C742 1.385 . S
C746 C745 1.374 1_655 S
C747 C744 1.499 1_455 S
C747 C748 1.373 . S
C747 C749 1.389 1_455 S
C748 H721 0.950 . S
C748 C734 1.377 . S
C748 C747 1.373 . S
C749 C733 1.377 1_655 S
C749 C747 1.389 1_655 S
C749 C750 1.524 . S
C750 C749 1.524 . S
C750 C751 1.397 . S
C750 C755 1.363 . S
C751 H722 0.951 . S
C751 C750 1.397 . S
C751 C752 1.334 . S
C752 H723 0.950 . S
C752 C751 1.334 . S
C752 C753 1.287 . S
C753 C752 1.287 . S
C753 C754 1.524 . S
C753 H756 0.999 . S
C754 H724 0.950 . S
C754 C753 1.524 . S
C754 C755 1.415 . S
C755 H725 0.950 . S
C755 C750 1.363 . S
C755 C754 1.415 . S
H756 C753 0.999 . S
H757 C738 0.913 . S
H758 C776 0.951 . S
H759 C778 0.951 . S
H760 C780 0.950 . S
H761 C781 0.950 . S
H762 C783 0.950 . S
H763 C786 0.950 . S
H764 C787 0.950 . S
H765 C789 0.950 . S
H766 C790 0.950 . S
H767 C791 0.951 . S
H768 C793 0.951 . S
H769 C795 0.950 . S
H770 C796 0.950 . S
H771 C798 0.950 . S
H772 C801 0.950 . S
H773 C802 0.950 . S
H774 C804 0.950 . S
H775 C805 0.950 . S
C776 H758 0.951 . S
C776 C777 1.366 . S
C776 C778 1.388 . S
C777 C776 1.366 . S
C777 C781 1.385 . S
C778 H759 0.951 . S
C778 C776 1.388 . S
C778 C779 1.366 . S
C779 C778 1.366 . S
C779 C780 1.414 . S
C779 C782 1.499 1_565 S
C780 H760 0.950 . S
C780 C779 1.414 . S
C780 C781 1.374 . S
C781 H761 0.950 . S
C781 C777 1.385 . S
C781 C780 1.374 . S
C782 C779 1.499 1_545 S
C782 C783 1.373 1_545 S
C782 C784 1.389 . S
C783 H762 0.950 . S
C783 C782 1.373 1_565 S
C783 C799 1.377 1_565 S
C784 C782 1.389 . S
C784 C785 1.524 . S
C784 C798 1.377 . S
C785 C784 1.524 . S
C785 C786 1.397 . S
C785 C790 1.363 . S
C786 H763 0.950 . S
C786 C785 1.397 . S
C786 C787 1.334 . S
C787 H764 0.950 . S
C787 C786 1.334 . S
C787 C788 1.287 . S
C788 C787 1.287 . S
C788 C789 1.524 . S
C788 H807 0.913 . S
C789 H765 0.950 . S
C789 C788 1.524 . S
C789 C790 1.415 . S
C790 H766 0.950 . S
C790 C785 1.363 . S
C790 C789 1.415 . S
C791 H767 0.951 . S
C791 C792 1.366 . S
C791 C793 1.388 . S
C792 C791 1.366 . S
C792 C796 1.385 . S
C793 H768 0.951 . S
C793 C791 1.388 . S
C793 C794 1.366 . S
C794 C793 1.366 . S
C794 C795 1.414 . S
C794 C797 1.499 . S
C795 H769 0.950 . S
C795 C794 1.414 . S
C795 C796 1.374 . S
C796 H770 0.950 . S
C796 C792 1.385 . S
C796 C795 1.374 . S
C797 C794 1.499 . S
C797 C798 1.373 . S
C797 C799 1.389 . S
C798 H771 0.950 . S
C798 C784 1.377 . S
C798 C797 1.373 . S
C799 C783 1.377 1_545 S
C799 C797 1.389 . S
C799 C800 1.524 1_545 S
C800 C799 1.524 1_565 S
C800 C801 1.397 . S
C800 C805 1.363 . S
C801 H772 0.950 . S
C801 C800 1.397 . S
C801 C802 1.334 . S
C802 H773 0.950 . S
C802 C801 1.334 . S
C802 C803 1.287 . S
C803 C802 1.287 . S
C803 C804 1.524 . S
C803 H806 0.999 . S
C804 H774 0.950 . S
C804 C803 1.524 . S
C804 C805 1.415 . S
C805 H775 0.950 . S
C805 C800 1.363 . S
C805 C804 1.415 . S
H806 C803 0.999 . S
H807 C788 0.913 . S
H808 C826 0.951 . S
H809 C828 0.951 . S
H810 C830 0.950 . S
H811 C831 0.950 . S
H812 C833 0.950 . S
H813 C836 0.950 . S
H814 C837 0.950 . S
H815 C839 0.950 . S
H816 C840 0.950 . S
H817 C841 0.951 . S
H818 C843 0.951 . S
H819 C845 0.950 . S
H820 C846 0.950 . S
H821 C848 0.950 . S
H822 C851 0.950 . S
H823 C852 0.950 . S
H824 C854 0.950 . S
H825 C855 0.950 . S
C826 H808 0.951 . S
C826 C827 1.366 . S
C826 C828 1.388 . S
C827 C826 1.366 . S
C827 C831 1.385 . S
C828 H809 0.951 . S
C828 C826 1.388 . S
C828 C829 1.366 . S
C829 C828 1.366 . S
C829 C830 1.414 . S
C829 C832 1.499 . S
C830 H810 0.950 . S
C830 C829 1.414 . S
C830 C831 1.374 . S
C831 H811 0.950 . S
C831 C827 1.385 . S
C831 C830 1.374 . S
C832 C829 1.499 . S
C832 C833 1.373 . S
C832 C834 1.389 . S
C833 H812 0.950 . S
C833 C832 1.373 . S
C833 C849 1.377 . S
C834 C832 1.389 . S
C834 C835 1.524 . S
C834 C848 1.377 . S
C835 C834 1.524 . S
C835 C836 1.397 . S
C835 C840 1.363 . S
C836 H813 0.950 . S
C836 C835 1.397 . S
C836 C837 1.334 . S
C837 H814 0.950 . S
C837 C836 1.334 . S
C837 C838 1.287 . S
C838 C837 1.287 . S
C838 C839 1.524 . S
C838 H857 0.913 . S
C839 H815 0.950 . S
C839 C838 1.524 . S
C839 C840 1.415 . S
C840 H816 0.950 . S
C840 C835 1.363 . S
C840 C839 1.415 . S
C841 H817 0.951 . S
C841 C842 1.366 . S
C841 C843 1.388 . S
C842 C841 1.366 . S
C842 C846 1.385 . S
C843 H818 0.951 . S
C843 C841 1.388 . S
C843 C844 1.366 . S
C844 C843 1.366 . S
C844 C845 1.414 . S
C844 C847 1.499 . S
C845 H819 0.950 . S
C845 C844 1.414 . S
C845 C846 1.374 . S
C846 H820 0.950 . S
C846 C842 1.385 . S
C846 C845 1.374 . S
C847 C844 1.499 . S
C847 C848 1.373 . S
C847 C849 1.389 . S
C848 H821 0.950 . S
C848 C834 1.377 . S
C848 C847 1.373 . S
C849 C833 1.377 . S
C849 C847 1.389 . S
C849 C850 1.524 . S
C850 C849 1.524 . S
C850 C851 1.397 . S
C850 C855 1.363 . S
C851 H822 0.950 . S
C851 C850 1.397 . S
C851 C852 1.334 . S
C852 H823 0.950 . S
C852 C851 1.334 . S
C852 C853 1.287 . S
C853 C852 1.287 . S
C853 C854 1.524 . S
C853 H856 0.999 . S
C854 H824 0.950 . S
C854 C853 1.524 . S
C854 C855 1.415 . S
C855 H825 0.950 . S
C855 C850 1.363 . S
C855 C854 1.415 . S
H856 C853 0.999 . S
H857 C838 0.913 . S
H858 C876 0.951 . S
H859 C878 0.951 1_655 S
H860 C880 0.988 . S
H861 C881 0.950 . S
H862 C883 0.985 . S
H863 C886 0.950 . S
H864 C887 0.950 . S
H865 C889 0.950 1_655 S
H866 C890 0.950 . S
H867 C891 0.951 . S
H868 C893 0.951 . S
H869 C895 0.950 . S
H870 C896 0.950 . S
H871 C898 0.950 . S
H872 C901 0.950 . S
H873 C902 0.950 . S
H874 C904 0.942 1_455 S
H875 C905 0.950 1_455 S
C876 H858 0.951 . S
C876 C877 1.366 . S
C876 C878 1.388 . S
C877 C876 1.366 . S
C877 C881 1.385 . S
C878 H859 0.951 1_455 S
C878 C876 1.388 . S
C878 C879 1.366 . S
C879 C878 1.366 . S
C879 C880 1.414 . S
C879 C882 1.499 . S
C880 H860 0.988 . S
C880 C879 1.414 . S
C880 C881 1.374 . S
C881 H861 0.950 . S
C881 C877 1.385 . S
C881 C880 1.374 . S
C882 C879 1.499 . S
C882 C883 1.330 1_556 S
C882 C884 1.389 . S
C883 H862 0.985 . S
C883 C882 1.330 1_554 S
C883 C899 1.386 1_455 S
C884 C882 1.389 . S
C884 C885 1.524 . S
C884 C898 1.377 1_455 S
C885 C884 1.524 . S
C885 C886 1.397 . S
C885 C890 1.363 1_455 S
C886 H863 0.950 . S
C886 C885 1.397 . S
C886 C887 1.334 . S
C887 H864 0.950 . S
C887 C886 1.334 . S
C887 C888 1.287 . S
C888 C887 1.287 . S
C888 C889 1.524 . S
C888 H907 0.913 . S
C889 H865 0.950 1_455 S
C889 C888 1.524 . S
C889 C890 1.415 1_455 S
C890 H866 0.950 . S
C890 C885 1.363 1_655 S
C890 C889 1.415 1_655 S
C891 H867 0.951 . S
C891 C892 1.366 . S
C891 C893 1.388 . S
C892 C891 1.366 . S
C892 C896 1.385 1_554 S
C893 H868 0.951 . S
C893 C891 1.388 . S
C893 C894 1.366 1_554 S
C894 C893 1.366 1_556 S
C894 C895 1.414 . S
C894 C897 1.499 . S
C895 H869 0.950 . S
C895 C894 1.414 . S
C895 C896 1.374 . S
C896 H870 0.950 . S
C896 C892 1.385 1_556 S
C896 C895 1.374 . S
C897 C894 1.499 . S
C897 C898 1.373 . S
C897 C899 1.389 1_556 S
C898 H871 0.950 . S
C898 C884 1.377 1_655 S
C898 C897 1.373 . S
C899 C883 1.386 1_655 S
C899 C897 1.389 1_554 S
C899 C900 1.524 . S
C900 C899 1.524 . S
C900 C901 1.397 . S
C900 C905 1.363 . S
C901 H872 0.950 . S
C901 C900 1.397 . S
C901 C902 1.334 . S
C902 H873 0.950 . S
C902 C901 1.334 . S
C902 C903 1.287 . S
C903 C902 1.287 . S
C903 C904 1.524 . S
C903 H906 0.999 . S
C904 H874 0.942 1_655 S
C904 C903 1.524 . S
C904 C905 1.415 . S
C905 H875 0.950 1_655 S
C905 C900 1.363 . S
C905 C904 1.415 . S
H906 C903 0.999 . S
H907 C888 0.913 . S
H908 C926 0.951 . S
H909 C928 0.951 . S
H910 C930 0.950 1_565 S
H911 C931 0.950 . S
H912 C933 0.950 . S
H913 C936 0.950 . S
H914 C937 0.950 . S
H915 C939 0.950 . S
H916 C940 0.950 . S
H917 C941 0.951 . S
H918 C943 0.951 . S
H919 C945 0.950 1_545 S
H920 C946 0.950 . S
H921 C948 0.950 . S
H922 C951 0.950 . S
H923 C952 0.950 . S
H924 C954 0.950 . S
H925 C955 0.950 . S
C926 H908 0.951 . S
C926 C927 1.366 . S
C926 C928 1.388 . S
C927 C926 1.366 . S
C927 C931 1.385 . S
C928 H909 0.951 . S
C928 C926 1.388 . S
C928 C929 1.366 . S
C929 C928 1.366 . S
C929 C930 1.414 . S
C929 C932 1.499 . S
C930 H910 0.950 1_545 S
C930 C929 1.414 . S
C930 C931 1.374 . S
C931 H911 0.950 . S
C931 C927 1.385 . S
C931 C930 1.374 . S
C932 C929 1.499 . S
C932 C933 1.373 1_545 S
C932 C934 1.389 . S
C933 H912 0.950 . S
C933 C932 1.373 1_565 S
C933 C949 1.377 . S
C934 C932 1.389 . S
C934 C935 1.524 . S
C934 C948 1.377 . S
C935 C934 1.524 . S
C935 C936 1.397 . S
C935 C940 1.363 . S
C936 H913 0.950 . S
C936 C935 1.397 . S
C936 C937 1.334 . S
C937 H914 0.950 . S
C937 C936 1.334 . S
C937 C938 1.287 . S
C938 C937 1.287 . S
C938 C939 1.524 . S
C938 H957 0.913 . S
C939 H915 0.950 . S
C939 C938 1.524 . S
C939 C940 1.415 . S
C940 H916 0.950 . S
C940 C935 1.363 . S
C940 C939 1.415 . S
C941 H917 0.951 . S
C941 C942 1.366 . S
C941 C943 1.388 . S
C942 C941 1.366 . S
C942 C946 1.385 . S
C943 H918 0.951 . S
C943 C941 1.388 . S
C943 C944 1.366 . S
C944 C943 1.366 . S
C944 C945 1.414 . S
C944 C947 1.499 . S
C945 H919 0.950 1_565 S
C945 C944 1.414 . S
C945 C946 1.374 . S
C946 H920 0.950 . S
C946 C942 1.385 . S
C946 C945 1.374 . S
C947 C944 1.499 . S
C947 C948 1.373 1_565 S
C947 C949 1.389 . S
C948 H921 0.950 . S
C948 C934 1.377 . S
C948 C947 1.373 1_545 S
C949 C933 1.377 . S
C949 C947 1.389 . S
C949 C950 1.524 . S
C950 C949 1.524 . S
C950 C951 1.397 . S
C950 C955 1.363 . S
C951 H922 0.950 . S
C951 C950 1.397 . S
C951 C952 1.334 . S
C952 H923 0.950 . S
C952 C951 1.334 . S
C952 C953 1.287 . S
C953 C952 1.287 . S
C953 C954 1.524 . S
C953 H956 0.999 . S
C954 H924 0.950 . S
C954 C953 1.524 . S
C954 C955 1.415 . S
C955 H925 0.950 . S
C955 C950 1.363 . S
C955 C954 1.415 . S
H956 C953 0.999 . S
H957 C938 0.913 . S
H958 C976 0.951 . S
H959 C978 0.951 . S
H960 C980 0.950 . S
H961 C981 0.950 . S
H962 C983 0.950 . S
H963 C986 0.950 . S
H964 C987 0.950 . S
H965 C989 0.950 . S
H966 C990 0.950 . S
H967 C991 0.951 . S
H968 C993 0.951 . S
H969 C995 0.950 . S
H970 C996 0.950 . S
H971 C998 0.950 . S
H972 C1001 0.950 . S
H973 C1002 0.950 . S
H974 C1004 0.950 . S
H975 C1005 0.950 . S
C976 H958 0.951 . S
C976 C977 1.366 . S
C976 C978 1.388 . S
C977 C976 1.366 . S
C977 C981 1.385 . S
C978 H959 0.951 . S
C978 C976 1.388 . S
C978 C979 1.366 . S
C979 C978 1.366 . S
C979 C980 1.414 . S
C979 C982 1.499 . S
C980 H960 0.950 . S
C980 C979 1.414 . S
C980 C981 1.374 . S
C981 H961 0.950 . S
C981 C977 1.385 . S
C981 C980 1.374 . S
C982 C979 1.499 . S
C982 C983 1.373 . S
C982 C984 1.389 . S
C983 H962 0.950 . S
C983 C982 1.373 . S
C983 C999 1.377 . S
C984 C982 1.389 . S
C984 C985 1.524 . S
C984 C998 1.377 . S
C985 C984 1.524 . S
C985 C986 1.397 . S
C985 C990 1.363 . S
C986 H963 0.950 . S
C986 C985 1.397 . S
C986 C987 1.334 . S
C987 H964 0.950 . S
C987 C986 1.334 . S
C987 C988 1.287 . S
C988 C987 1.287 . S
C988 C989 1.524 . S
C988 H1007 0.913 . S
C989 H965 0.950 . S
C989 C988 1.524 . S
C989 C990 1.415 . S
C990 H966 0.950 . S
C990 C985 1.363 . S
C990 C989 1.415 . S
C991 H967 0.951 . S
C991 C992 1.366 . S
C991 C993 1.388 . S
C992 C991 1.366 . S
C992 C996 1.385 . S
C993 H968 0.951 . S
C993 C991 1.388 . S
C993 C994 1.366 . S
C994 C993 1.366 . S
C994 C995 1.414 . S
C994 C997 1.499 . S
C995 H969 0.950 . S
C995 C994 1.414 . S
C995 C996 1.374 . S
C996 H970 0.950 . S
C996 C992 1.385 . S
C996 C995 1.374 . S
C997 C994 1.499 . S
C997 C998 1.373 . S
C997 C999 1.389 . S
C998 H971 0.950 . S
C998 C984 1.377 . S
C998 C997 1.373 . S
C999 C983 1.377 . S
C999 C997 1.389 . S
C999 C1000 1.524 . S
C1000 C999 1.524 . S
C1000 C1001 1.397 . S
C1000 C1005 1.363 . S
C1001 H972 0.950 . S
C1001 C1000 1.397 . S
C1001 C1002 1.334 . S
C1002 H973 0.950 . S
C1002 C1001 1.334 . S
C1002 C1003 1.287 . S
C1003 C1002 1.287 . S
C1003 C1004 1.524 . S
C1003 H1006 0.999 . S
C1004 H974 0.950 . S
C1004 C1003 1.524 . S
C1004 C1005 1.415 . S
C1005 H975 0.950 . S
C1005 C1000 1.363 . S
C1005 C1004 1.415 . S
H1006 C1003 0.999 . S
H1007 C988 0.913 . S
H1008 C1026 0.951 . S
H1009 C1028 0.951 . S
H1010 C1030 0.950 . S
H1011 C1031 0.950 . S
H1012 C1033 0.950 . S
H1013 C1036 0.950 . S
H1014 C1037 0.950 . S
H1015 C1039 0.950 . S
H1016 C1040 0.950 . S
H1017 C1041 0.951 . S
H1018 C1043 0.951 . S
H1019 C1045 0.950 . S
H1020 C1046 0.950 . S
H1021 C1048 0.950 . S
H1022 C1051 0.950 . S
H1023 C1052 0.950 . S
H1024 C1054 0.950 . S
H1025 C1055 0.950 . S
C1026 H1008 0.951 . S
C1026 C1027 1.366 . S
C1026 C1028 1.388 . S
C1027 C1026 1.366 . S
C1027 C1031 1.385 . S
C1028 H1009 0.951 . S
C1028 C1026 1.388 . S
C1028 C1029 1.366 . S
C1029 C1028 1.366 . S
C1029 C1030 1.414 . S
C1029 C1032 1.499 . S
C1030 H1010 0.950 . S
C1030 C1029 1.414 . S
C1030 C1031 1.374 . S
C1031 H1011 0.950 . S
C1031 C1027 1.385 . S
C1031 C1030 1.374 . S
C1032 C1029 1.499 . S
C1032 C1033 1.373 . S
C1032 C1034 1.389 . S
C1033 H1012 0.950 . S
C1033 C1032 1.373 . S
C1033 C1049 1.377 . S
C1034 C1032 1.389 . S
C1034 C1035 1.524 . S
C1034 C1048 1.377 . S
C1035 C1034 1.524 . S
C1035 C1036 1.397 . S
C1035 C1040 1.363 . S
C1036 H1013 0.950 . S
C1036 C1035 1.397 . S
C1036 C1037 1.334 . S
C1037 H1014 0.950 . S
C1037 C1036 1.334 . S
C1037 C1038 1.287 . S
C1038 C1037 1.287 . S
C1038 C1039 1.524 . S
C1038 H1057 0.913 . S
C1039 H1015 0.950 . S
C1039 C1038 1.524 . S
C1039 C1040 1.415 . S
C1040 H1016 0.950 . S
C1040 C1035 1.363 . S
C1040 C1039 1.415 . S
C1041 H1017 0.951 . S
C1041 C1042 1.366 . S
C1041 C1043 1.388 . S
C1042 C1041 1.366 . S
C1042 C1046 1.385 . S
C1043 H1018 0.951 . S
C1043 C1041 1.388 . S
C1043 C1044 1.366 . S
C1044 C1043 1.366 . S
C1044 C1045 1.414 . S
C1044 C1047 1.499 . S
C1045 H1019 0.950 . S
C1045 C1044 1.414 . S
C1045 C1046 1.374 . S
C1046 H1020 0.950 . S
C1046 C1042 1.385 . S
C1046 C1045 1.374 . S
C1047 C1044 1.499 . S
C1047 C1048 1.373 . S
C1047 C1049 1.389 . S
C1048 H1021 0.950 . S
C1048 C1034 1.377 . S
C1048 C1047 1.373 . S
C1049 C1033 1.377 . S
C1049 C1047 1.389 . S
C1049 C1050 1.524 . S
C1050 C1049 1.524 . S
C1050 C1051 1.397 . S
C1050 C1055 1.363 . S
C1051 H1022 0.950 . S
C1051 C1050 1.397 . S
C1051 C1052 1.334 . S
C1052 H1023 0.950 . S
C1052 C1051 1.334 . S
C1052 C1053 1.287 . S
C1053 C1052 1.287 . S
C1053 C1054 1.524 . S
C1053 H1056 0.999 . S
C1054 H1024 0.950 . S
C1054 C1053 1.524 . S
C1054 C1055 1.415 . S
C1055 H1025 0.950 . S
C1055 C1050 1.363 . S
C1055 C1054 1.415 . S
H1056 C1053 0.999 . S
H1057 C1038 0.913 . S
H1058 C1076 0.951 . S
H1059 C1078 0.951 . S
H1060 C1080 0.950 . S
H1061 C1081 0.950 . S
H1062 C1083 0.950 . S
H1063 C1086 0.950 . S
H1064 C1087 0.950 . S
H1065 C1089 0.950 . S
H1066 C1090 0.950 . S
H1067 C1091 0.951 . S
H1068 C1093 0.951 . S
H1069 C1095 0.950 . S
H1070 C1096 0.950 . S
H1071 C1098 0.950 . S
H1072 C1101 0.950 . S
H1073 C1102 0.950 . S
H1074 C1104 0.950 . S
H1075 C1105 0.950 . S
C1076 H1058 0.951 . S
C1076 C1077 1.366 . S
C1076 C1078 1.388 . S
C1077 C1076 1.366 . S
C1077 C1081 1.385 . S
C1078 H1059 0.951 . S
C1078 C1076 1.388 . S
C1078 C1079 1.366 . S
C1079 C1078 1.366 . S
C1079 C1080 1.414 . S
C1079 C1082 1.499 . S
C1080 H1060 0.950 . S
C1080 C1079 1.414 . S
C1080 C1081 1.374 . S
C1081 H1061 0.950 . S
C1081 C1077 1.385 . S
C1081 C1080 1.374 . S
C1082 C1079 1.499 . S
C1082 C1083 1.373 . S
C1082 C1084 1.389 . S
C1083 H1062 0.950 . S
C1083 C1082 1.373 . S
C1083 C1099 1.377 . S
C1084 C1082 1.389 . S
C1084 C1085 1.524 . S
C1084 C1098 1.377 . S
C1085 C1084 1.524 . S
C1085 C1086 1.397 . S
C1085 C1090 1.363 . S
C1086 H1063 0.950 . S
C1086 C1085 1.397 . S
C1086 C1087 1.334 . S
C1087 H1064 0.950 . S
C1087 C1086 1.334 . S
C1087 C1088 1.287 . S
C1088 C1087 1.287 . S
C1088 C1089 1.524 . S
C1088 H1107 0.913 . S
C1089 H1065 0.950 . S
C1089 C1088 1.524 . S
C1089 C1090 1.415 . S
C1090 H1066 0.950 . S
C1090 C1085 1.363 . S
C1090 C1089 1.415 . S
C1091 H1067 0.951 . S
C1091 C1092 1.366 . S
C1091 C1093 1.388 . S
C1092 C1091 1.366 . S
C1092 C1096 1.385 . S
C1093 H1068 0.951 . S
C1093 C1091 1.388 . S
C1093 C1094 1.366 . S
C1094 C1093 1.366 . S
C1094 C1095 1.414 . S
C1094 C1097 1.499 . S
C1095 H1069 0.950 . S
C1095 C1094 1.414 . S
C1095 C1096 1.374 . S
C1096 H1070 0.950 . S
C1096 C1092 1.385 . S
C1096 C1095 1.374 . S
C1097 C1094 1.499 . S
C1097 C1098 1.373 . S
C1097 C1099 1.389 . S
C1098 H1071 0.950 . S
C1098 C1084 1.377 . S
C1098 C1097 1.373 . S
C1099 C1083 1.377 . S
C1099 C1097 1.389 . S
C1099 C1100 1.524 . S
C1100 C1099 1.524 . S
C1100 C1101 1.397 . S
C1100 C1105 1.363 . S
C1101 H1072 0.950 . S
C1101 C1100 1.397 . S
C1101 C1102 1.334 . S
C1102 H1073 0.950 . S
C1102 C1101 1.334 . S
C1102 C1103 1.287 . S
C1103 C1102 1.287 . S
C1103 C1104 1.524 . S
C1103 H1106 0.999 . S
C1104 H1074 0.950 . S
C1104 C1103 1.524 . S
C1104 C1105 1.415 . S
C1105 H1075 0.950 . S
C1105 C1100 1.363 . S
C1105 C1104 1.415 . S
H1106 C1103 0.999 . S
H1107 C1088 0.913 . S
H1108 C1126 0.951 . S
H1109 C1128 0.951 . S
H1110 C1130 0.950 . S
H1111 C1131 0.950 . S
H1112 C1133 0.950 . S
H1113 C1136 0.950 . S
H1114 C1137 0.950 . S
H1115 C1139 0.950 . S
H1116 C1140 0.950 . S
H1117 C1141 0.951 . S
H1118 C1143 0.951 . S
H1119 C1145 0.950 . S
H1120 C1146 0.950 . S
H1121 C1148 0.950 . S
H1122 C1151 0.950 . S
H1123 C1152 0.950 . S
H1124 C1154 0.950 . S
H1125 C1155 0.950 . S
C1126 H1108 0.951 . S
C1126 C1127 1.366 . S
C1126 C1128 1.388 . S
C1127 C1126 1.366 . S
C1127 C1131 1.385 . S
C1128 H1109 0.951 . S
C1128 C1126 1.388 . S
C1128 C1129 1.366 . S
C1129 C1128 1.366 . S
C1129 C1130 1.414 . S
C1129 C1132 1.499 . S
C1130 H1110 0.950 . S
C1130 C1129 1.414 . S
C1130 C1131 1.374 . S
C1131 H1111 0.950 . S
C1131 C1127 1.385 . S
C1131 C1130 1.374 . S
C1132 C1129 1.499 . S
C1132 C1133 1.373 . S
C1132 C1134 1.389 . S
C1133 H1112 0.950 . S
C1133 C1132 1.373 . S
C1133 C1149 1.377 . S
C1134 C1132 1.389 . S
C1134 C1135 1.524 . S
C1134 C1148 1.377 . S
C1135 C1134 1.524 . S
C1135 C1136 1.397 . S
C1135 C1140 1.363 . S
C1136 H1113 0.950 . S
C1136 C1135 1.397 . S
C1136 C1137 1.334 . S
C1137 H1114 0.950 . S
C1137 C1136 1.334 . S
C1137 C1138 1.287 . S
C1138 C1137 1.287 . S
C1138 C1139 1.524 . S
C1138 H1157 0.913 . S
C1139 H1115 0.950 . S
C1139 C1138 1.524 . S
C1139 C1140 1.415 . S
C1140 H1116 0.950 . S
C1140 C1135 1.363 . S
C1140 C1139 1.415 . S
C1141 H1117 0.951 . S
C1141 C1142 1.366 . S
C1141 C1143 1.388 . S
C1142 C1141 1.366 . S
C1142 C1146 1.385 . S
C1143 H1118 0.951 . S
C1143 C1141 1.388 . S
C1143 C1144 1.366 . S
C1144 C1143 1.366 . S
C1144 C1145 1.414 . S
C1144 C1147 1.499 . S
C1145 H1119 0.950 . S
C1145 C1144 1.414 . S
C1145 C1146 1.374 . S
C1146 H1120 0.950 . S
C1146 C1142 1.385 . S
C1146 C1145 1.374 . S
C1147 C1144 1.499 . S
C1147 C1148 1.373 . S
C1147 C1149 1.389 . S
C1148 H1121 0.950 . S
C1148 C1134 1.377 . S
C1148 C1147 1.373 . S
C1149 C1133 1.377 . S
C1149 C1147 1.389 . S
C1149 C1150 1.524 . S
C1150 C1149 1.524 . S
C1150 C1151 1.397 . S
C1150 C1155 1.363 . S
C1151 H1122 0.950 . S
C1151 C1150 1.397 . S
C1151 C1152 1.334 . S
C1152 H1123 0.950 . S
C1152 C1151 1.334 . S
C1152 C1153 1.287 . S
C1153 C1152 1.287 . S
C1153 C1154 1.524 . S
C1153 H1156 0.999 . S
C1154 H1124 0.950 . S
C1154 C1153 1.524 . S
C1154 C1155 1.415 . S
C1155 H1125 0.950 . S
C1155 C1150 1.363 . S
C1155 C1154 1.415 . S
H1156 C1153 0.999 . S
H1157 C1138 0.913 . S
H1158 C1176 0.951 . S
H1159 C1178 0.951 . S
H1160 C1180 0.950 . S
H1161 C1181 0.950 . S
H1162 C1183 0.950 . S
H1163 C1186 0.950 . S
H1164 C1187 0.950 . S
H1165 C1189 0.950 . S
H1166 C1190 0.950 . S
H1167 C1191 0.951 . S
H1168 C1193 0.951 . S
H1169 C1195 0.950 . S
H1170 C1196 0.950 . S
H1171 C1198 0.950 . S
H1172 C1201 0.950 . S
H1173 C1202 0.950 . S
H1174 C1204 0.950 . S
H1175 C1205 0.950 . S
C1176 H1158 0.951 . S
C1176 C1177 1.366 . S
C1176 C1178 1.388 . S
C1177 C1176 1.366 . S
C1177 C1181 1.385 . S
C1178 H1159 0.951 . S
C1178 C1176 1.388 . S
C1178 C1179 1.366 . S
C1179 C1178 1.366 . S
C1179 C1180 1.414 . S
C1179 C1182 1.499 . S
C1180 H1160 0.950 . S
C1180 C1179 1.414 . S
C1180 C1181 1.374 . S
C1181 H1161 0.950 . S
C1181 C1177 1.385 . S
C1181 C1180 1.374 . S
C1182 C1179 1.499 . S
C1182 C1183 1.373 . S
C1182 C1184 1.389 . S
C1183 H1162 0.950 . S
C1183 C1182 1.373 . S
C1183 C1199 1.377 . S
C1184 C1182 1.389 . S
C1184 C1185 1.524 . S
C1184 C1198 1.377 . S
C1185 C1184 1.524 . S
C1185 C1186 1.397 . S
C1185 C1190 1.363 . S
C1186 H1163 0.950 . S
C1186 C1185 1.397 . S
C1186 C1187 1.334 . S
C1187 H1164 0.950 . S
C1187 C1186 1.334 . S
C1187 C1188 1.287 . S
C1188 C1187 1.287 . S
C1188 C1189 1.524 . S
C1188 H1207 0.913 . S
C1189 H1165 0.950 . S
C1189 C1188 1.524 . S
C1189 C1190 1.415 . S
C1190 H1166 0.950 . S
C1190 C1185 1.363 . S
C1190 C1189 1.415 . S
C1191 H1167 0.951 . S
C1191 C1192 1.366 . S
C1191 C1193 1.388 . S
C1192 C1191 1.366 . S
C1192 C1196 1.385 . S
C1193 H1168 0.951 . S
C1193 C1191 1.388 . S
C1193 C1194 1.366 . S
C1194 C1193 1.366 . S
C1194 C1195 1.414 . S
C1194 C1197 1.499 . S
C1195 H1169 0.950 . S
C1195 C1194 1.414 . S
C1195 C1196 1.374 . S
C1196 H1170 0.950 . S
C1196 C1192 1.385 . S
C1196 C1195 1.374 . S
C1197 C1194 1.499 . S
C1197 C1198 1.373 . S
C1197 C1199 1.389 . S
C1198 H1171 0.950 . S
C1198 C1184 1.377 . S
C1198 C1197 1.373 . S
C1199 C1183 1.377 . S
C1199 C1197 1.389 . S
C1199 C1200 1.524 . S
C1200 C1199 1.524 . S
C1200 C1201 1.397 . S
C1200 C1205 1.363 . S
C1201 H1172 0.950 . S
C1201 C1200 1.397 . S
C1201 C1202 1.334 . S
C1202 H1173 0.950 . S
C1202 C1201 1.334 . S
C1202 C1203 1.287 . S
C1203 C1202 1.287 . S
C1203 C1204 1.524 . S
C1203 H1206 0.999 . S
C1204 H1174 0.950 . S
C1204 C1203 1.524 . S
C1204 C1205 1.415 . S
C1205 H1175 0.950 . S
C1205 C1200 1.363 . S
C1205 C1204 1.415 . S
H1206 C1203 0.999 . S
H1207 C1188 0.913 . S
H1208 C1226 0.951 . S
H1209 C1228 0.951 . S
H1210 C1230 0.950 . S
H1211 C1231 0.950 . S
H1212 C1233 0.950 . S
H1213 C1236 0.950 . S
H1214 C1237 0.950 . S
H1215 C1239 0.950 . S
H1216 C1240 0.950 . S
H1217 C1241 0.951 . S
H1218 C1243 0.951 . S
H1219 C1245 0.950 . S
H1220 C1246 0.950 . S
H1221 C1248 0.950 . S
H1222 C1251 0.950 . S
H1223 C1252 0.950 . S
H1224 C1254 0.950 . S
H1225 C1255 0.950 . S
C1226 H1208 0.951 . S
C1226 C1227 1.366 . S
C1226 C1228 1.388 . S
C1227 C1226 1.366 . S
C1227 C1231 1.385 . S
C1228 H1209 0.951 . S
C1228 C1226 1.388 . S
C1228 C1229 1.366 . S
C1229 C1228 1.366 . S
C1229 C1230 1.414 . S
C1229 C1232 1.499 . S
C1230 H1210 0.950 . S
C1230 C1229 1.414 . S
C1230 C1231 1.374 . S
C1231 H1211 0.950 . S
C1231 C1227 1.385 . S
C1231 C1230 1.374 . S
C1232 C1229 1.499 . S
C1232 C1233 1.373 . S
C1232 C1234 1.389 . S
C1233 H1212 0.950 . S
C1233 C1232 1.373 . S
C1233 C1249 1.377 . S
C1234 C1232 1.389 . S
C1234 C1235 1.524 . S
C1234 C1248 1.377 . S
C1235 C1234 1.524 . S
C1235 C1236 1.397 . S
C1235 C1240 1.363 . S
C1236 H1213 0.950 . S
C1236 C1235 1.397 . S
C1236 C1237 1.334 . S
C1237 H1214 0.950 . S
C1237 C1236 1.334 . S
C1237 C1238 1.287 . S
C1238 C1237 1.287 . S
C1238 C1239 1.524 . S
C1238 H1257 0.913 . S
C1239 H1215 0.950 . S
C1239 C1238 1.524 . S
C1239 C1240 1.415 . S
C1240 H1216 0.950 . S
C1240 C1235 1.363 . S
C1240 C1239 1.415 . S
C1241 H1217 0.951 . S
C1241 C1242 1.366 . S
C1241 C1243 1.388 . S
C1242 C1241 1.366 . S
C1242 C1246 1.385 . S
C1243 H1218 0.951 . S
C1243 C1241 1.388 . S
C1243 C1244 1.366 . S
C1244 C1243 1.366 . S
C1244 C1245 1.414 . S
C1244 C1247 1.499 . S
C1245 H1219 0.950 . S
C1245 C1244 1.414 . S
C1245 C1246 1.374 . S
C1246 H1220 0.950 . S
C1246 C1242 1.385 . S
C1246 C1245 1.374 . S
C1247 C1244 1.499 . S
C1247 C1248 1.373 . S
C1247 C1249 1.389 . S
C1248 H1221 0.950 . S
C1248 C1234 1.377 . S
C1248 C1247 1.373 . S
C1249 C1233 1.377 . S
C1249 C1247 1.389 . S
C1249 C1250 1.524 . S
C1250 C1249 1.524 . S
C1250 C1251 1.397 . S
C1250 C1255 1.363 . S
C1251 H1222 0.950 . S
C1251 C1250 1.397 . S
C1251 C1252 1.334 . S
C1252 H1223 0.950 . S
C1252 C1251 1.334 . S
C1252 C1253 1.287 . S
C1253 C1252 1.287 . S
C1253 C1254 1.524 . S
C1253 H1256 0.999 . S
C1254 H1224 0.950 . S
C1254 C1253 1.524 . S
C1254 C1255 1.415 . S
C1255 H1225 0.950 . S
C1255 C1250 1.363 . S
C1255 C1254 1.415 . S
H1256 C1253 0.999 . S
H1257 C1238 0.913 . S
H1258 C1276 0.951 . S
H1259 C1278 0.951 . S
H1260 C1280 0.950 . S
H1261 C1281 0.950 . S
H1262 C1283 0.950 . S
H1263 C1286 0.950 . S
H1264 C1287 0.950 . S
H1265 C1289 0.950 . S
H1266 C1290 0.950 . S
H1267 C1291 0.951 . S
H1268 C1293 0.951 . S
H1269 C1295 0.950 . S
H1270 C1296 0.950 . S
H1271 C1298 0.950 . S
H1272 C1301 0.950 . S
H1273 C1302 0.950 . S
H1274 C1304 0.950 . S
H1275 C1305 0.950 . S
C1276 H1258 0.951 . S
C1276 C1277 1.366 . S
C1276 C1278 1.388 . S
C1277 C1276 1.366 . S
C1277 C1281 1.385 . S
C1278 H1259 0.951 . S
C1278 C1276 1.388 . S
C1278 C1279 1.366 . S
C1279 C1278 1.366 . S
C1279 C1280 1.414 . S
C1279 C1282 1.499 . S
C1280 H1260 0.950 . S
C1280 C1279 1.414 . S
C1280 C1281 1.374 . S
C1281 H1261 0.950 . S
C1281 C1277 1.385 . S
C1281 C1280 1.374 . S
C1282 C1279 1.499 . S
C1282 C1283 1.373 . S
C1282 C1284 1.389 . S
C1283 H1262 0.950 . S
C1283 C1282 1.373 . S
C1283 C1299 1.377 . S
C1284 C1282 1.389 . S
C1284 C1285 1.524 . S
C1284 C1298 1.377 . S
C1285 C1284 1.524 . S
C1285 C1286 1.397 . S
C1285 C1290 1.363 . S
C1286 H1263 0.950 . S
C1286 C1285 1.397 . S
C1286 C1287 1.334 . S
C1287 H1264 0.950 . S
C1287 C1286 1.334 . S
C1287 C1288 1.287 . S
C1288 C1287 1.287 . S
C1288 C1289 1.524 . S
C1288 H1307 0.913 . S
C1289 H1265 0.950 . S
C1289 C1288 1.524 . S
C1289 C1290 1.415 . S
C1290 H1266 0.950 . S
C1290 C1285 1.363 . S
C1290 C1289 1.415 . S
C1291 H1267 0.951 . S
C1291 C1292 1.366 . S
C1291 C1293 1.388 . S
C1292 C1291 1.366 . S
C1292 C1296 1.385 . S
C1293 H1268 0.951 . S
C1293 C1291 1.388 . S
C1293 C1294 1.366 . S
C1294 C1293 1.366 . S
C1294 C1295 1.414 . S
C1294 C1297 1.499 . S
C1295 H1269 0.950 . S
C1295 C1294 1.414 . S
C1295 C1296 1.374 . S
C1296 H1270 0.950 . S
C1296 C1292 1.385 . S
C1296 C1295 1.374 . S
C1297 C1294 1.499 . S
C1297 C1298 1.373 . S
C1297 C1299 1.389 . S
C1298 H1271 0.950 . S
C1298 C1284 1.377 . S
C1298 C1297 1.373 . S
C1299 C1283 1.377 . S
C1299 C1297 1.389 . S
C1299 C1300 1.524 . S
C1300 C1299 1.524 . S
C1300 C1301 1.397 . S
C1300 C1305 1.363 . S
C1301 H1272 0.950 . S
C1301 C1300 1.397 . S
C1301 C1302 1.334 . S
C1302 H1273 0.950 . S
C1302 C1301 1.334 . S
C1302 C1303 1.287 . S
C1303 C1302 1.287 . S
C1303 C1304 1.524 . S
C1303 H1306 0.999 . S
C1304 H1274 0.950 . S
C1304 C1303 1.524 . S
C1304 C1305 1.415 . S
C1305 H1275 0.950 . S
C1305 C1300 1.363 . S
C1305 C1304 1.415 . S
H1306 C1303 0.999 . S
H1307 C1288 0.913 . S
H1308 C1326 0.951 . S
H1309 C1328 0.951 . S
H1310 C1330 0.950 . S
H1311 C1331 0.950 . S
H1312 C1333 0.950 . S
H1313 C1336 0.950 . S
H1314 C1337 0.950 . S
H1315 C1339 0.950 . S
H1316 C1340 0.950 1_545 S
H1317 C1341 0.951 . S
H1318 C1343 0.951 . S
H1319 C1345 0.950 . S
H1320 C1346 0.950 . S
H1321 C1348 0.950 1_545 S
H1322 C1351 0.950 . S
H1323 C1352 0.950 . S
H1324 C1354 0.950 . S
H1325 C1355 0.950 1_565 S
C1326 H1308 0.951 . S
C1326 C1327 1.366 . S
C1326 C1328 1.388 . S
C1327 C1326 1.366 . S
C1327 C1331 1.385 . S
C1328 H1309 0.951 . S
C1328 C1326 1.388 . S
C1328 C1329 1.366 . S
C1329 C1328 1.366 . S
C1329 C1330 1.414 . S
C1329 C1332 1.499 . S
C1330 H1310 0.950 . S
C1330 C1329 1.414 . S
C1330 C1331 1.374 . S
C1331 H1311 0.950 . S
C1331 C1327 1.385 . S
C1331 C1330 1.374 . S
C1332 C1329 1.499 . S
C1332 C1333 1.373 . S
C1332 C1334 1.389 . S
C1333 H1312 0.950 . S
C1333 C1332 1.373 . S
C1333 C1349 1.377 1_565 S
C1334 C1332 1.389 . S
C1334 C1335 1.524 . S
C1334 C1348 1.377 . S
C1335 C1334 1.524 . S
C1335 C1336 1.397 . S
C1335 C1340 1.363 . S
C1336 H1313 0.950 . S
C1336 C1335 1.397 . S
C1336 C1337 1.334 . S
C1337 H1314 0.950 . S
C1337 C1336 1.334 . S
C1337 C1338 1.287 . S
C1338 C1337 1.287 . S
C1338 C1339 1.524 . S
C1338 H1357 0.913 . S
C1339 H1315 0.950 . S
C1339 C1338 1.524 . S
C1339 C1340 1.415 . S
C1340 H1316 0.950 1_565 S
C1340 C1335 1.363 . S
C1340 C1339 1.415 . S
C1341 H1317 0.951 . S
C1341 C1342 1.366 . S
C1341 C1343 1.388 . S
C1342 C1341 1.366 . S
C1342 C1346 1.385 . S
C1343 H1318 0.951 . S
C1343 C1341 1.388 . S
C1343 C1344 1.366 . S
C1344 C1343 1.366 . S
C1344 C1345 1.414 . S
C1344 C1347 1.499 . S
C1345 H1319 0.950 . S
C1345 C1344 1.414 . S
C1345 C1346 1.374 . S
C1346 H1320 0.950 . S
C1346 C1342 1.385 . S
C1346 C1345 1.374 . S
C1347 C1344 1.499 . S
C1347 C1348 1.373 1_545 S
C1347 C1349 1.389 . S
C1348 H1321 0.950 1_565 S
C1348 C1334 1.377 . S
C1348 C1347 1.373 1_565 S
C1349 C1333 1.377 1_545 S
C1349 C1347 1.389 . S
C1349 C1350 1.524 . S
C1350 C1349 1.524 . S
C1350 C1351 1.397 . S
C1350 C1355 1.363 . S
C1351 H1322 0.950 . S
C1351 C1350 1.397 . S
C1351 C1352 1.334 . S
C1352 H1323 0.950 . S
C1352 C1351 1.334 . S
C1352 C1353 1.287 . S
C1353 C1352 1.287 . S
C1353 C1354 1.524 . S
C1353 H1356 0.999 . S
C1354 H1324 0.950 . S
C1354 C1353 1.524 . S
C1354 C1355 1.415 . S
C1355 H1325 0.950 1_545 S
C1355 C1350 1.363 . S
C1355 C1354 1.415 . S
H1356 C1353 0.999 . S
H1357 C1338 0.913 . S
H1358 C1376 0.951 . S
H1359 C1378 0.951 . S
H1360 C1380 0.950 . S
H1361 C1381 0.950 . S
H1362 C1383 0.950 . S
H1363 C1386 0.950 . S
H1364 C1387 0.950 . S
H1365 C1389 0.950 . S
H1366 C1390 0.950 . S
H1367 C1391 0.951 . S
H1368 C1393 0.951 . S
H1369 C1395 0.950 . S
H1370 C1396 0.950 . S
H1371 C1398 0.950 . S
H1372 C1401 0.950 . S
H1373 C1402 0.950 . S
H1374 C1404 0.950 . S
H1375 C1405 0.950 . S
C1376 H1358 0.951 . S
C1376 C1377 1.366 . S
C1376 C1378 1.388 . S
C1377 C1376 1.366 . S
C1377 C1381 1.385 . S
C1378 H1359 0.951 . S
C1378 C1376 1.388 . S
C1378 C1379 1.366 . S
C1379 C1378 1.366 . S
C1379 C1380 1.414 . S
C1379 C1382 1.499 . S
C1380 H1360 0.950 . S
C1380 C1379 1.414 . S
C1380 C1381 1.374 . S
C1381 H1361 0.950 . S
C1381 C1377 1.385 . S
C1381 C1380 1.374 . S
C1382 C1379 1.499 . S
C1382 C1383 1.373 . S
C1382 C1384 1.389 . S
C1383 H1362 0.950 . S
C1383 C1382 1.373 . S
C1383 C1399 1.377 . S
C1384 C1382 1.389 . S
C1384 C1385 1.524 . S
C1384 C1398 1.377 . S
C1385 C1384 1.524 . S
C1385 C1386 1.397 . S
C1385 C1390 1.363 . S
C1386 H1363 0.950 . S
C1386 C1385 1.397 . S
C1386 C1387 1.334 . S
C1387 H1364 0.950 . S
C1387 C1386 1.334 . S
C1387 C1388 1.287 . S
C1388 C1387 1.287 . S
C1388 C1389 1.524 . S
C1388 H1407 0.913 . S
C1389 H1365 0.950 . S
C1389 C1388 1.524 . S
C1389 C1390 1.415 . S
C1390 H1366 0.950 . S
C1390 C1385 1.363 . S
C1390 C1389 1.415 . S
C1391 H1367 0.951 . S
C1391 C1392 1.366 . S
C1391 C1393 1.388 . S
C1392 C1391 1.366 . S
C1392 C1396 1.385 . S
C1393 H1368 0.951 . S
C1393 C1391 1.388 . S
C1393 C1394 1.366 . S
C1394 C1393 1.366 . S
C1394 C1395 1.414 . S
C1394 C1397 1.499 . S
C1395 H1369 0.950 . S
C1395 C1394 1.414 . S
C1395 C1396 1.374 . S
C1396 H1370 0.950 . S
C1396 C1392 1.385 . S
C1396 C1395 1.374 . S
C1397 C1394 1.499 . S
C1397 C1398 1.373 . S
C1397 C1399 1.389 . S
C1398 H1371 0.950 . S
C1398 C1384 1.377 . S
C1398 C1397 1.373 . S
C1399 C1383 1.377 . S
C1399 C1397 1.389 . S
C1399 C1400 1.524 . S
C1400 C1399 1.524 . S
C1400 C1401 1.397 . S
C1400 C1405 1.363 . S
C1401 H1372 0.950 . S
C1401 C1400 1.397 . S
C1401 C1402 1.334 . S
C1402 H1373 0.950 . S
C1402 C1401 1.334 . S
C1402 C1403 1.287 . S
C1403 C1402 1.287 . S
C1403 C1404 1.524 . S
C1403 H1406 0.999 . S
C1404 H1374 0.950 . S
C1404 C1403 1.524 . S
C1404 C1405 1.415 . S
C1405 H1375 0.950 . S
C1405 C1400 1.363 . S
C1405 C1404 1.415 . S
H1406 C1403 0.999 . S
H1407 C1388 0.913 . S
H1408 C1426 0.951 . S
H1409 C1428 0.951 . S
H1410 C1430 0.961 . S
H1411 C1431 0.950 . S
H1412 C1433 0.950 . S
H1413 C1436 0.950 . S
H1414 C1437 0.950 . S
H1415 C1439 0.950 . S
H1416 C1440 0.950 . S
H1417 C1441 0.951 . S
H1418 C1443 0.951 . S
H1419 C1445 0.950 . S
H1420 C1446 0.950 . S
H1421 C1448 0.950 . S
H1422 C1451 0.950 . S
H1423 C1452 0.950 . S
H1424 C1454 0.950 . S
H1425 C1455 0.950 . S
C1426 H1408 0.951 . S
C1426 C1427 1.366 . S
C1426 C1428 1.388 . S
C1427 C1426 1.366 . S
C1427 C1431 1.385 . S
C1428 H1409 0.951 . S
C1428 C1426 1.388 . S
C1428 C1429 1.366 . S
C1429 C1428 1.366 . S
C1429 C1430 1.412 1_655 S
C1429 C1432 1.499 1_655 S
C1430 H1410 0.961 . S
C1430 C1429 1.412 1_455 S
C1430 C1431 1.365 1_455 S
C1431 H1411 0.950 . S
C1431 C1427 1.385 . S
C1431 C1430 1.365 1_655 S
C1432 C1429 1.499 1_455 S
C1432 C1433 1.373 . S
C1432 C1434 1.389 . S
C1433 H1412 0.950 . S
C1433 C1432 1.373 . S
C1433 C1449 1.377 . S
C1434 C1432 1.389 . S
C1434 C1435 1.524 . S
C1434 C1448 1.377 . S
C1435 C1434 1.524 . S
C1435 C1436 1.397 . S
C1435 C1440 1.363 1_455 S
C1436 H1413 0.950 . S
C1436 C1435 1.397 . S
C1436 C1437 1.334 . S
C1437 H1414 0.950 . S
C1437 C1436 1.334 . S
C1437 C1438 1.287 1_455 S
C1438 C1437 1.287 1_655 S
C1438 C1439 1.524 . S
C1438 H1457 0.913 . S
C1439 H1415 0.950 . S
C1439 C1438 1.524 . S
C1439 C1440 1.415 . S
C1440 H1416 0.950 . S
C1440 C1435 1.363 1_655 S
C1440 C1439 1.415 . S
C1441 H1417 0.951 . S
C1441 C1442 1.366 . S
C1441 C1443 1.388 . S
C1442 C1441 1.366 . S
C1442 C1446 1.385 . S
C1443 H1418 0.951 . S
C1443 C1441 1.388 . S
C1443 C1444 1.366 . S
C1444 C1443 1.366 . S
C1444 C1445 1.414 . S
C1444 C1447 1.499 . S
C1445 H1419 0.950 . S
C1445 C1444 1.414 . S
C1445 C1446 1.374 . S
C1446 H1420 0.950 . S
C1446 C1442 1.385 . S
C1446 C1445 1.374 . S
C1447 C1444 1.499 . S
C1447 C1448 1.373 . S
C1447 C1449 1.389 . S
C1448 H1421 0.950 . S
C1448 C1434 1.377 . S
C1448 C1447 1.373 . S
C1449 C1433 1.377 . S
C1449 C1447 1.389 . S
C1449 C1450 1.524 . S
C1450 C1449 1.524 . S
C1450 C1451 1.397 . S
C1450 C1455 1.363 . S
C1451 H1422 0.950 . S
C1451 C1450 1.397 . S
C1451 C1452 1.334 . S
C1452 H1423 0.950 . S
C1452 C1451 1.334 . S
C1452 C1453 1.287 . S
C1453 C1452 1.287 . S
C1453 C1454 1.524 . S
C1453 H1456 0.999 . S
C1454 H1424 0.950 . S
C1454 C1453 1.524 . S
C1454 C1455 1.415 . S
C1455 H1425 0.950 . S
C1455 C1450 1.363 . S
C1455 C1454 1.415 . S
H1456 C1453 0.999 . S
H1457 C1438 0.913 . S
H1458 C1476 0.951 . S
H1459 C1478 0.951 . S
H1460 C1480 0.950 . S
H1461 C1481 0.950 . S
H1462 C1483 0.950 . S
H1463 C1486 0.950 . S
H1464 C1487 0.950 . S
H1465 C1489 0.950 . S
H1466 C1490 0.950 . S
H1467 C1491 0.951 . S
H1468 C1493 0.951 . S
H1469 C1495 0.950 . S
H1470 C1496 0.950 . S
H1471 C1498 0.950 . S
H1472 C1501 0.950 . S
H1473 C1502 0.950 . S
H1474 C1504 0.950 . S
H1475 C1505 0.950 . S
C1476 H1458 0.951 . S
C1476 C1477 1.366 . S
C1476 C1478 1.388 1_565 S
C1477 C1476 1.366 . S
C1477 C1481 1.385 . S
C1478 H1459 0.951 . S
C1478 C1476 1.388 1_545 S
C1478 C1479 1.366 1_545 S
C1479 C1478 1.366 1_565 S
C1479 C1480 1.414 . S
C1479 C1482 1.499 1_565 S
C1480 H1460 0.950 . S
C1480 C1479 1.414 . S
C1480 C1481 1.374 . S
C1481 H1461 0.950 . S
C1481 C1477 1.385 . S
C1481 C1480 1.374 . S
C1482 C1479 1.499 1_545 S
C1482 C1483 1.373 1_545 S
C1482 C1484 1.389 . S
C1483 H1462 0.950 . S
C1483 C1482 1.373 1_565 S
C1483 C1499 1.377 1_565 S
C1484 C1482 1.389 . S
C1484 C1485 1.524 . S
C1484 C1498 1.377 . S
C1485 C1484 1.524 . S
C1485 C1486 1.397 . S
C1485 C1490 1.363 . S
C1486 H1463 0.950 . S
C1486 C1485 1.397 . S
C1486 C1487 1.334 . S
C1487 H1464 0.950 . S
C1487 C1486 1.334 . S
C1487 C1488 1.287 . S
C1488 C1487 1.287 . S
C1488 C1489 1.524 . S
C1488 H1507 0.913 . S
C1489 H1465 0.950 . S
C1489 C1488 1.524 . S
C1489 C1490 1.415 . S
C1490 H1466 0.950 . S
C1490 C1485 1.363 . S
C1490 C1489 1.415 . S
C1491 H1467 0.951 . S
C1491 C1492 1.366 . S
C1491 C1493 1.388 . S
C1492 C1491 1.366 . S
C1492 C1496 1.385 . S
C1493 H1468 0.951 . S
C1493 C1491 1.388 . S
C1493 C1494 1.366 . S
C1494 C1493 1.366 . S
C1494 C1495 1.414 . S
C1494 C1497 1.499 . S
C1495 H1469 0.950 . S
C1495 C1494 1.414 . S
C1495 C1496 1.374 . S
C1496 H1470 0.950 . S
C1496 C1492 1.385 . S
C1496 C1495 1.374 . S
C1497 C1494 1.499 . S
C1497 C1498 1.373 . S
C1497 C1499 1.389 . S
C1498 H1471 0.950 . S
C1498 C1484 1.377 . S
C1498 C1497 1.373 . S
C1499 C1483 1.377 1_545 S
C1499 C1497 1.389 . S
C1499 C1500 1.524 1_545 S
C1500 C1499 1.524 1_565 S
C1500 C1501 1.397 1_565 S
C1500 C1505 1.363 . S
C1501 H1472 0.950 . S
C1501 C1500 1.397 1_545 S
C1501 C1502 1.334 . S
C1502 H1473 0.950 . S
C1502 C1501 1.334 . S
C1502 C1503 1.287 1_545 S
C1503 C1502 1.287 1_565 S
C1503 C1504 1.524 . S
C1503 H1506 0.999 . S
C1504 H1474 0.950 . S
C1504 C1503 1.524 . S
C1504 C1505 1.415 . S
C1505 H1475 0.950 . S
C1505 C1500 1.363 . S
C1505 C1504 1.415 . S
H1506 C1503 0.999 . S
H1507 C1488 0.913 . S
H1508 C1526 0.951 . S
H1509 C1528 0.951 . S
H1510 C1530 0.950 . S
H1511 C1531 0.950 . S
H1512 C1533 0.950 . S
H1513 C1536 0.950 . S
H1514 C1537 0.950 . S
H1515 C1539 0.950 . S
H1516 C1540 0.950 . S
H1517 C1541 0.951 . S
H1518 C1543 0.951 . S
H1519 C1545 0.950 . S
H1520 C1546 0.950 . S
H1521 C1548 0.950 . S
H1522 C1551 0.950 . S
H1523 C1552 0.950 . S
H1524 C1554 0.950 . S
H1525 C1555 0.950 . S
C1526 H1508 0.951 . S
C1526 C1527 1.366 . S
C1526 C1528 1.388 . S
C1527 C1526 1.366 . S
C1527 C1531 1.385 . S
C1528 H1509 0.951 . S
C1528 C1526 1.388 . S
C1528 C1529 1.366 . S
C1529 C1528 1.366 . S
C1529 C1530 1.414 . S
C1529 C1532 1.499 . S
C1530 H1510 0.950 . S
C1530 C1529 1.414 . S
C1530 C1531 1.374 . S
C1531 H1511 0.950 . S
C1531 C1527 1.385 . S
C1531 C1530 1.374 . S
C1532 C1529 1.499 . S
C1532 C1533 1.373 . S
C1532 C1534 1.389 . S
C1533 H1512 0.950 . S
C1533 C1532 1.373 . S
C1533 C1549 1.377 . S
C1534 C1532 1.389 . S
C1534 C1535 1.524 . S
C1534 C1548 1.377 . S
C1535 C1534 1.524 . S
C1535 C1536 1.397 . S
C1535 C1540 1.363 . S
C1536 H1513 0.950 . S
C1536 C1535 1.397 . S
C1536 C1537 1.334 . S
C1537 H1514 0.950 . S
C1537 C1536 1.334 . S
C1537 C1538 1.287 . S
C1538 C1537 1.287 . S
C1538 C1539 1.524 . S
C1538 H1557 0.913 . S
C1539 H1515 0.950 . S
C1539 C1538 1.524 . S
C1539 C1540 1.415 . S
C1540 H1516 0.950 . S
C1540 C1535 1.363 . S
C1540 C1539 1.415 . S
C1541 H1517 0.951 . S
C1541 C1542 1.366 . S
C1541 C1543 1.388 . S
C1542 C1541 1.366 . S
C1542 C1546 1.385 . S
C1543 H1518 0.951 . S
C1543 C1541 1.388 . S
C1543 C1544 1.366 . S
C1544 C1543 1.366 . S
C1544 C1545 1.414 . S
C1544 C1547 1.499 . S
C1545 H1519 0.950 . S
C1545 C1544 1.414 . S
C1545 C1546 1.374 . S
C1546 H1520 0.950 . S
C1546 C1542 1.385 . S
C1546 C1545 1.374 . S
C1547 C1544 1.499 . S
C1547 C1548 1.373 . S
C1547 C1549 1.389 . S
C1548 H1521 0.950 . S
C1548 C1534 1.377 . S
C1548 C1547 1.373 . S
C1549 C1533 1.377 . S
C1549 C1547 1.389 . S
C1549 C1550 1.524 . S
C1550 C1549 1.524 . S
C1550 C1551 1.397 . S
C1550 C1555 1.363 . S
C1551 H1522 0.950 . S
C1551 C1550 1.397 . S
C1551 C1552 1.334 . S
C1552 H1523 0.950 . S
C1552 C1551 1.334 . S
C1552 C1553 1.287 . S
C1553 C1552 1.287 . S
C1553 C1554 1.524 . S
C1553 H1556 0.999 . S
C1554 H1524 0.950 . S
C1554 C1553 1.524 . S
C1554 C1555 1.415 . S
C1555 H1525 0.950 . S
C1555 C1550 1.363 . S
C1555 C1554 1.415 . S
H1556 C1553 0.999 . S
H1557 C1538 0.913 . S
H1558 C1576 0.951 . S
H1559 C1578 0.951 . S
H1560 C1580 0.950 . S
H1561 C1581 0.950 . S
H1562 C1583 0.950 . S
H1563 C1586 0.950 . S
H1564 C1587 0.950 . S
H1565 C1589 0.950 . S
H1566 C1590 0.950 . S
H1567 C1591 0.951 . S
H1568 C1593 0.951 . S
H1569 C1595 0.950 . S
H1570 C1596 0.950 . S
H1571 C1598 0.950 . S
H1572 C1601 0.950 . S
H1573 C1602 0.950 . S
H1574 C1604 0.950 . S
H1575 C1605 0.950 . S
C1576 H1558 0.951 . S
C1576 C1577 1.366 . S
C1576 C1578 1.388 . S
C1577 C1576 1.366 . S
C1577 C1581 1.385 . S
C1578 H1559 0.951 . S
C1578 C1576 1.388 . S
C1578 C1579 1.366 . S
C1579 C1578 1.366 . S
C1579 C1580 1.414 . S
C1579 C1582 1.499 . S
C1580 H1560 0.950 . S
C1580 C1579 1.414 . S
C1580 C1581 1.374 . S
C1581 H1561 0.950 . S
C1581 C1577 1.385 . S
C1581 C1580 1.374 . S
C1582 C1579 1.499 . S
C1582 C1583 1.373 . S
C1582 C1584 1.389 1_455 S
C1583 H1562 0.950 . S
C1583 C1582 1.373 . S
C1583 C1599 1.377 . S
C1584 C1582 1.389 1_655 S
C1584 C1585 1.524 . S
C1584 C1598 1.377 . S
C1585 C1584 1.524 . S
C1585 C1586 1.397 . S
C1585 C1590 1.363 . S
C1586 H1563 0.950 . S
C1586 C1585 1.397 . S
C1586 C1587 1.334 . S
C1587 H1564 0.950 . S
C1587 C1586 1.334 . S
C1587 C1588 1.287 . S
C1588 C1587 1.287 . S
C1588 C1589 1.524 . S
C1588 H1607 0.913 . S
C1589 H1565 0.950 . S
C1589 C1588 1.524 . S
C1589 C1590 1.415 . S
C1590 H1566 0.950 . S
C1590 C1585 1.363 . S
C1590 C1589 1.415 . S
C1591 H1567 0.951 . S
C1591 C1592 1.366 . S
C1591 C1593 1.388 . S
C1592 C1591 1.366 . S
C1592 C1596 1.385 . S
C1593 H1568 0.951 . S
C1593 C1591 1.388 . S
C1593 C1594 1.366 . S
C1594 C1593 1.366 . S
C1594 C1595 1.414 . S
C1594 C1597 1.499 . S
C1595 H1569 0.950 . S
C1595 C1594 1.414 . S
C1595 C1596 1.374 . S
C1596 H1570 0.950 . S
C1596 C1592 1.385 . S
C1596 C1595 1.374 . S
C1597 C1594 1.499 . S
C1597 C1598 1.373 . S
C1597 C1599 1.389 1_655 S
C1598 H1571 0.950 . S
C1598 C1584 1.377 . S
C1598 C1597 1.373 . S
C1599 C1583 1.377 . S
C1599 C1597 1.389 1_455 S
C1599 C1600 1.524 . S
C1600 C1599 1.524 . S
C1600 C1601 1.397 . S
C1600 C1605 1.363 . S
C1601 H1572 0.950 . S
C1601 C1600 1.397 . S
C1601 C1602 1.334 . S
C1602 H1573 0.950 . S
C1602 C1601 1.334 . S
C1602 C1603 1.287 . S
C1603 C1602 1.287 . S
C1603 C1604 1.524 . S
C1603 H1606 0.999 . S
C1604 H1574 0.950 . S
C1604 C1603 1.524 . S
C1604 C1605 1.415 . S
C1605 H1575 0.950 . S
C1605 C1600 1.363 . S
C1605 C1604 1.415 . S
H1606 C1603 0.999 . S
H1607 C1588 0.913 . S
H1608 C1626 0.951 . S
H1609 C1628 0.951 . S
H1610 C1630 0.950 . S
H1611 C1631 0.950 . S
H1612 C1633 0.950 . S
H1613 C1636 0.950 . S
H1614 C1637 0.950 . S
H1615 C1639 0.950 . S
H1616 C1640 0.950 . S
H1617 C1641 0.951 . S
H1618 C1643 0.951 . S
H1619 C1645 0.950 . S
H1620 C1646 0.950 . S
H1621 C1648 0.950 . S
H1622 C1651 0.950 . S
H1623 C1652 0.950 . S
H1624 C1654 0.950 . S
H1625 C1655 0.950 . S
C1626 H1608 0.951 . S
C1626 C1627 1.366 . S
C1626 C1628 1.388 . S
C1627 C1626 1.366 . S
C1627 C1631 1.385 . S
C1628 H1609 0.951 . S
C1628 C1626 1.388 . S
C1628 C1629 1.366 . S
C1629 C1628 1.366 . S
C1629 C1630 1.414 1_655 S
C1629 C1632 1.499 1_655 S
C1630 H1610 0.950 . S
C1630 C1629 1.414 1_455 S
C1630 C1631 1.374 1_455 S
C1631 H1611 0.950 . S
C1631 C1627 1.385 . S
C1631 C1630 1.374 1_655 S
C1632 C1629 1.499 1_455 S
C1632 C1633 1.373 . S
C1632 C1634 1.389 1_455 S
C1633 H1612 0.950 . S
C1633 C1632 1.373 . S
C1633 C1649 1.377 . S
C1634 C1632 1.389 1_655 S
C1634 C1635 1.524 . S
C1634 C1648 1.377 1_655 S
C1635 C1634 1.524 . S
C1635 C1636 1.397 . S
C1635 C1640 1.363 . S
C1636 H1613 0.950 . S
C1636 C1635 1.397 . S
C1636 C1637 1.334 . S
C1637 H1614 0.950 . S
C1637 C1636 1.334 . S
C1637 C1638 1.287 . S
C1638 C1637 1.287 . S
C1638 C1639 1.524 . S
C1638 H1657 0.913 . S
C1639 H1615 0.950 . S
C1639 C1638 1.524 . S
C1639 C1640 1.415 . S
C1640 H1616 0.950 . S
C1640 C1635 1.363 . S
C1640 C1639 1.415 . S
C1641 H1617 0.951 . S
C1641 C1642 1.366 . S
C1641 C1643 1.388 . S
C1642 C1641 1.366 . S
C1642 C1646 1.385 . S
C1643 H1618 0.951 . S
C1643 C1641 1.388 . S
C1643 C1644 1.366 . S
C1644 C1643 1.366 . S
C1644 C1645 1.414 . S
C1644 C1647 1.499 . S
C1645 H1619 0.950 . S
C1645 C1644 1.414 . S
C1645 C1646 1.374 . S
C1646 H1620 0.950 . S
C1646 C1642 1.385 . S
C1646 C1645 1.374 . S
C1647 C1644 1.499 . S
C1647 C1648 1.373 . S
C1647 C1649 1.389 . S
C1648 H1621 0.950 . S
C1648 C1634 1.377 1_455 S
C1648 C1647 1.373 . S
C1649 C1633 1.377 . S
C1649 C1647 1.389 . S
C1649 C1650 1.524 . S
C1650 C1649 1.524 . S
C1650 C1651 1.397 . S
C1650 C1655 1.363 . S
C1651 H1622 0.950 . S
C1651 C1650 1.397 . S
C1651 C1652 1.334 . S
C1652 H1623 0.950 . S
C1652 C1651 1.334 . S
C1652 C1653 1.287 . S
C1653 C1652 1.287 . S
C1653 C1654 1.524 . S
C1653 H1656 0.999 . S
C1654 H1624 0.950 . S
C1654 C1653 1.524 . S
C1654 C1655 1.415 . S
C1655 H1625 0.950 . S
C1655 C1650 1.363 . S
C1655 C1654 1.415 . S
H1656 C1653 0.999 . S
H1657 C1638 0.913 . S
H1658 C1676 0.951 . S
H1659 C1678 0.951 . S
H1660 C1680 0.950 . S
H1661 C1681 0.950 . S
H1662 C1683 0.950 . S
H1663 C1686 0.950 . S
H1664 C1687 0.950 . S
H1665 C1689 0.950 . S
H1666 C1690 0.950 . S
H1667 C1691 0.951 . S
H1668 C1693 0.951 . S
H1669 C1695 0.950 . S
H1670 C1696 0.950 . S
H1671 C1698 0.950 . S
H1672 C1701 0.950 . S
H1673 C1702 0.950 . S
H1674 C1704 0.950 . S
H1675 C1705 0.950 . S
C1676 H1658 0.951 . S
C1676 C1677 1.366 . S
C1676 C1678 1.388 . S
C1677 C1676 1.366 . S
C1677 C1681 1.385 . S
C1678 H1659 0.951 . S
C1678 C1676 1.388 . S
C1678 C1679 1.366 . S
C1679 C1678 1.366 . S
C1679 C1680 1.414 . S
C1679 C1682 1.499 . S
C1680 H1660 0.950 . S
C1680 C1679 1.414 . S
C1680 C1681 1.374 . S
C1681 H1661 0.950 . S
C1681 C1677 1.385 . S
C1681 C1680 1.374 . S
C1682 C1679 1.499 . S
C1682 C1683 1.373 . S
C1682 C1684 1.389 . S
C1683 H1662 0.950 . S
C1683 C1682 1.373 . S
C1683 C1699 1.377 1_545 S
C1684 C1682 1.389 . S
C1684 C1685 1.524 . S
C1684 C1698 1.377 . S
C1685 C1684 1.524 . S
C1685 C1686 1.397 . S
C1685 C1690 1.363 . S
C1686 H1663 0.950 . S
C1686 C1685 1.397 . S
C1686 C1687 1.334 . S
C1687 H1664 0.950 . S
C1687 C1686 1.334 . S
C1687 C1688 1.287 . S
C1688 C1687 1.287 . S
C1688 C1689 1.524 . S
C1688 H1707 0.913 . S
C1689 H1665 0.950 . S
C1689 C1688 1.524 . S
C1689 C1690 1.415 . S
C1690 H1666 0.950 . S
C1690 C1685 1.363 . S
C1690 C1689 1.415 . S
C1691 H1667 0.951 . S
C1691 C1692 1.366 . S
C1691 C1693 1.388 . S
C1692 C1691 1.366 . S
C1692 C1696 1.385 . S
C1693 H1668 0.951 . S
C1693 C1691 1.388 . S
C1693 C1694 1.366 . S
C1694 C1693 1.366 . S
C1694 C1695 1.414 . S
C1694 C1697 1.499 1_565 S
C1695 H1669 0.950 . S
C1695 C1694 1.414 . S
C1695 C1696 1.374 . S
C1696 H1670 0.950 . S
C1696 C1692 1.385 . S
C1696 C1695 1.374 . S
C1697 C1694 1.499 1_545 S
C1697 C1698 1.373 . S
C1697 C1699 1.389 1_545 S
C1698 H1671 0.950 . S
C1698 C1684 1.377 . S
C1698 C1697 1.373 . S
C1699 C1683 1.377 1_565 S
C1699 C1697 1.389 1_565 S
C1699 C1700 1.524 . S
C1700 C1699 1.524 . S
C1700 C1701 1.397 . S
C1700 C1705 1.363 . S
C1701 H1672 0.950 . S
C1701 C1700 1.397 . S
C1701 C1702 1.334 . S
C1702 H1673 0.950 . S
C1702 C1701 1.334 . S
C1702 C1703 1.287 . S
C1703 C1702 1.287 . S
C1703 C1704 1.524 . S
C1703 H1706 0.999 . S
C1704 H1674 0.950 . S
C1704 C1703 1.524 . S
C1704 C1705 1.415 . S
C1705 H1675 0.950 . S
C1705 C1700 1.363 . S
C1705 C1704 1.415 . S
H1706 C1703 0.999 . S
H1707 C1688 0.913 . S
H1708 C1726 0.951 . S
H1709 C1728 0.951 . S
H1710 C1730 0.950 . S
H1711 C1731 0.950 . S
H1712 C1733 0.950 . S
H1713 C1736 0.950 . S
H1714 C1737 0.950 . S
H1715 C1739 0.950 . S
H1716 C1740 0.950 . S
H1717 C1741 0.951 . S
H1718 C1743 0.951 . S
H1719 C1745 0.950 . S
H1720 C1746 0.950 . S
H1721 C1748 0.950 . S
H1722 C1751 0.950 . S
H1723 C1752 0.950 . S
H1724 C1754 0.950 . S
H1725 C1755 0.950 . S
C1726 H1708 0.951 . S
C1726 C1727 1.366 . S
C1726 C1728 1.388 . S
C1727 C1726 1.366 . S
C1727 C1731 1.385 . S
C1728 H1709 0.951 . S
C1728 C1726 1.388 . S
C1728 C1729 1.366 . S
C1729 C1728 1.366 . S
C1729 C1730 1.414 . S
C1729 C1732 1.499 . S
C1730 H1710 0.950 . S
C1730 C1729 1.414 . S
C1730 C1731 1.374 . S
C1731 H1711 0.950 . S
C1731 C1727 1.385 . S
C1731 C1730 1.374 . S
C1732 C1729 1.499 . S
C1732 C1733 1.373 . S
C1732 C1734 1.389 . S
C1733 H1712 0.950 . S
C1733 C1732 1.373 . S
C1733 C1749 1.377 . S
C1734 C1732 1.389 . S
C1734 C1735 1.524 . S
C1734 C1748 1.377 . S
C1735 C1734 1.524 . S
C1735 C1736 1.397 . S
C1735 C1740 1.363 . S
C1736 H1713 0.950 . S
C1736 C1735 1.397 . S
C1736 C1737 1.334 . S
C1737 H1714 0.950 . S
C1737 C1736 1.334 . S
C1737 C1738 1.287 . S
C1738 C1737 1.287 . S
C1738 C1739 1.524 . S
C1738 H1757 0.913 . S
C1739 H1715 0.950 . S
C1739 C1738 1.524 . S
C1739 C1740 1.415 . S
C1740 H1716 0.950 . S
C1740 C1735 1.363 . S
C1740 C1739 1.415 . S
C1741 H1717 0.951 . S
C1741 C1742 1.366 . S
C1741 C1743 1.388 . S
C1742 C1741 1.366 . S
C1742 C1746 1.385 . S
C1743 H1718 0.951 . S
C1743 C1741 1.388 . S
C1743 C1744 1.366 . S
C1744 C1743 1.366 . S
C1744 C1745 1.414 . S
C1744 C1747 1.499 . S
C1745 H1719 0.950 . S
C1745 C1744 1.414 . S
C1745 C1746 1.374 . S
C1746 H1720 0.950 . S
C1746 C1742 1.385 . S
C1746 C1745 1.374 . S
C1747 C1744 1.499 . S
C1747 C1748 1.373 . S
C1747 C1749 1.389 . S
C1748 H1721 0.950 . S
C1748 C1734 1.377 . S
C1748 C1747 1.373 . S
C1749 C1733 1.377 . S
C1749 C1747 1.389 . S
C1749 C1750 1.524 . S
C1750 C1749 1.524 . S
C1750 C1751 1.397 . S
C1750 C1755 1.363 . S
C1751 H1722 0.950 . S
C1751 C1750 1.397 . S
C1751 C1752 1.334 . S
C1752 H1723 0.950 . S
C1752 C1751 1.334 . S
C1752 C1753 1.287 . S
C1753 C1752 1.287 . S
C1753 C1754 1.524 . S
C1753 H1756 0.999 . S
C1754 H1724 0.950 . S
C1754 C1753 1.524 . S
C1754 C1755 1.415 . S
C1755 H1725 0.950 . S
C1755 C1750 1.363 . S
C1755 C1754 1.415 . S
H1756 C1753 0.999 . S
H1757 C1738 0.913 . S
H1758 C1776 0.951 . S
H1759 C1778 0.951 1_655 S
H1760 C1780 0.950 . S
H1761 C1781 0.950 . S
H1762 C1783 0.950 . S
H1763 C1786 0.950 . S
H1764 C1787 0.950 . S
H1765 C1789 0.950 . S
H1766 C1790 0.950 . S
H1767 C1791 0.951 . S
H1768 C1793 0.951 . S
H1769 C1795 0.950 . S
H1770 C1796 0.950 . S
H1771 C1798 0.950 . S
H1772 C1801 0.950 . S
H1773 C1802 0.950 . S
H1774 C1804 0.950 . S
H1775 C1805 0.950 . S
C1776 H1758 0.951 . S
C1776 C1777 1.366 . S
C1776 C1778 1.388 . S
C1777 C1776 1.366 . S
C1777 C1781 1.385 . S
C1778 H1759 0.951 1_455 S
C1778 C1776 1.388 . S
C1778 C1779 1.366 . S
C1779 C1778 1.366 . S
C1779 C1780 1.414 . S
C1779 C1782 1.499 . S
C1780 H1760 0.950 . S
C1780 C1779 1.414 . S
C1780 C1781 1.374 . S
C1781 H1761 0.950 . S
C1781 C1777 1.385 . S
C1781 C1780 1.374 . S
C1782 C1779 1.499 . S
C1782 C1783 1.373 . S
C1782 C1784 1.389 1_455 S
C1783 H1762 0.950 . S
C1783 C1782 1.373 . S
C1783 C1799 1.377 1_455 S
C1784 C1782 1.389 1_655 S
C1784 C1785 1.524 1_655 S
C1784 C1798 1.377 . S
C1785 C1784 1.524 1_455 S
C1785 C1786 1.397 . S
C1785 C1790 1.363 1_455 S
C1786 H1763 0.950 . S
C1786 C1785 1.397 . S
C1786 C1787 1.334 . S
C1787 H1764 0.950 . S
C1787 C1786 1.334 . S
C1787 C1788 1.287 . S
C1788 C1787 1.287 . S
C1788 C1789 1.524 1_455 S
C1788 H1807 0.913 . S
C1789 H1765 0.950 . S
C1789 C1788 1.524 1_655 S
C1789 C1790 1.415 . S
C1790 H1766 0.950 . S
C1790 C1785 1.363 1_655 S
C1790 C1789 1.415 . S
C1791 H1767 0.951 . S
C1791 C1792 1.366 . S
C1791 C1793 1.388 . S
C1792 C1791 1.366 . S
C1792 C1796 1.385 . S
C1793 H1768 0.951 . S
C1793 C1791 1.388 . S
C1793 C1794 1.366 . S
C1794 C1793 1.366 . S
C1794 C1795 1.414 . S
C1794 C1797 1.499 . S
C1795 H1769 0.950 . S
C1795 C1794 1.414 . S
C1795 C1796 1.374 . S
C1796 H1770 0.950 . S
C1796 C1792 1.385 . S
C1796 C1795 1.374 . S
C1797 C1794 1.499 . S
C1797 C1798 1.373 . S
C1797 C1799 1.389 . S
C1798 H1771 0.950 . S
C1798 C1784 1.377 . S
C1798 C1797 1.373 . S
C1799 C1783 1.377 1_655 S
C1799 C1797 1.389 . S
C1799 C1800 1.524 . S
C1800 C1799 1.524 . S
C1800 C1801 1.397 . S
C1800 C1805 1.363 1_655 S
C1801 H1772 0.950 . S
C1801 C1800 1.397 . S
C1801 C1802 1.334 . S
C1802 H1773 0.950 . S
C1802 C1801 1.334 . S
C1802 C1803 1.287 . S
C1803 C1802 1.287 . S
C1803 C1804 1.524 1_655 S
C1803 H1806 0.999 . S
C1804 H1774 0.950 . S
C1804 C1803 1.524 1_455 S
C1804 C1805 1.415 . S
C1805 H1775 0.950 . S
C1805 C1800 1.363 1_455 S
C1805 C1804 1.415 . S
H1806 C1803 0.999 . S
H1807 C1788 0.913 . S
H1808 C1826 0.951 . S
H1809 C1828 0.951 . S
H1810 C1830 0.950 1_565 S
H1811 C1831 0.950 . S
H1812 C1833 0.950 . S
H1813 C1836 0.950 . S
H1814 C1837 0.950 . S
H1815 C1839 0.950 . S
H1816 C1840 0.950 . S
H1817 C1841 0.951 . S
H1818 C1843 0.951 . S
H1819 C1845 0.950 . S
H1820 C1846 0.950 . S
H1821 C1848 0.950 . S
H1822 C1851 0.950 . S
H1823 C1852 0.950 . S
H1824 C1854 0.950 . S
H1825 C1855 0.950 . S
C1826 H1808 0.951 . S
C1826 C1827 1.366 . S
C1826 C1828 1.388 . S
C1827 C1826 1.366 . S
C1827 C1831 1.385 . S
C1828 H1809 0.951 . S
C1828 C1826 1.388 . S
C1828 C1829 1.366 . S
C1829 C1828 1.366 . S
C1829 C1830 1.414 . S
C1829 C1832 1.499 . S
C1830 H1810 0.950 1_545 S
C1830 C1829 1.414 . S
C1830 C1831 1.374 . S
C1831 H1811 0.950 . S
C1831 C1827 1.385 . S
C1831 C1830 1.374 . S
C1832 C1829 1.499 . S
C1832 C1833 1.373 1_545 S
C1832 C1834 1.389 . S
C1833 H1812 0.950 . S
C1833 C1832 1.373 1_565 S
C1833 C1849 1.377 . S
C1834 C1832 1.389 . S
C1834 C1835 1.524 . S
C1834 C1848 1.377 . S
C1835 C1834 1.524 . S
C1835 C1836 1.397 . S
C1835 C1840 1.363 . S
C1836 H1813 0.950 . S
C1836 C1835 1.397 . S
C1836 C1837 1.334 . S
C1837 H1814 0.950 . S
C1837 C1836 1.334 . S
C1837 C1838 1.287 . S
C1838 C1837 1.287 . S
C1838 C1839 1.524 . S
C1838 H1857 0.913 . S
C1839 H1815 0.950 . S
C1839 C1838 1.524 . S
C1839 C1840 1.415 . S
C1840 H1816 0.950 . S
C1840 C1835 1.363 . S
C1840 C1839 1.415 . S
C1841 H1817 0.951 . S
C1841 C1842 1.366 . S
C1841 C1843 1.388 . S
C1842 C1841 1.366 . S
C1842 C1846 1.385 . S
C1843 H1818 0.951 . S
C1843 C1841 1.388 . S
C1843 C1844 1.366 . S
C1844 C1843 1.366 . S
C1844 C1845 1.414 . S
C1844 C1847 1.499 . S
C1845 H1819 0.950 . S
C1845 C1844 1.414 . S
C1845 C1846 1.374 . S
C1846 H1820 0.950 . S
C1846 C1842 1.385 . S
C1846 C1845 1.374 . S
C1847 C1844 1.499 . S
C1847 C1848 1.373 1_565 S
C1847 C1849 1.389 . S
C1848 H1821 0.950 . S
C1848 C1834 1.377 . S
C1848 C1847 1.373 1_545 S
C1849 C1833 1.377 . S
C1849 C1847 1.389 . S
C1849 C1850 1.524 . S
C1850 C1849 1.524 . S
C1850 C1851 1.397 . S
C1850 C1855 1.363 . S
C1851 H1822 0.950 . S
C1851 C1850 1.397 . S
C1851 C1852 1.334 . S
C1852 H1823 0.950 . S
C1852 C1851 1.334 . S
C1852 C1853 1.287 . S
C1853 C1852 1.287 . S
C1853 C1854 1.524 . S
C1853 H1856 0.999 . S
C1854 H1824 0.950 . S
C1854 C1853 1.524 . S
C1854 C1855 1.415 . S
C1855 H1825 0.950 . S
C1855 C1850 1.363 . S
C1855 C1854 1.415 . S
H1856 C1853 0.999 . S
H1857 C1838 0.913 . S
H1858 C1876 0.951 . S
H1859 C1878 0.951 . S
H1860 C1880 0.950 . S
H1861 C1881 0.950 . S
H1862 C1883 0.950 . S
H1863 C1886 0.950 . S
H1864 C1887 0.950 . S
H1865 C1889 0.950 . S
H1866 C1890 0.950 . S
H1867 C1891 0.951 . S
H1868 C1893 0.951 . S
H1869 C1895 0.950 . S
H1870 C1896 0.950 . S
H1871 C1898 0.950 . S
H1872 C1901 0.950 . S
H1873 C1902 0.950 . S
H1874 C1904 0.950 . S
H1875 C1905 0.950 . S
C1876 H1858 0.951 . S
C1876 C1877 1.366 . S
C1876 C1878 1.388 . S
C1877 C1876 1.366 . S
C1877 C1881 1.385 . S
C1878 H1859 0.951 . S
C1878 C1876 1.388 . S
C1878 C1879 1.366 . S
C1879 C1878 1.366 . S
C1879 C1880 1.414 . S
C1879 C1882 1.499 . S
C1880 H1860 0.950 . S
C1880 C1879 1.414 . S
C1880 C1881 1.374 . S
C1881 H1861 0.950 . S
C1881 C1877 1.385 . S
C1881 C1880 1.374 . S
C1882 C1879 1.499 . S
C1882 C1883 1.373 . S
C1882 C1884 1.389 . S
C1883 H1862 0.950 . S
C1883 C1882 1.373 . S
C1883 C1899 1.377 . S
C1884 C1882 1.389 . S
C1884 C1885 1.524 . S
C1884 C1898 1.377 . S
C1885 C1884 1.524 . S
C1885 C1886 1.397 . S
C1885 C1890 1.363 . S
C1886 H1863 0.950 . S
C1886 C1885 1.397 . S
C1886 C1887 1.334 . S
C1887 H1864 0.950 . S
C1887 C1886 1.334 . S
C1887 C1888 1.287 . S
C1888 C1887 1.287 . S
C1888 C1889 1.524 . S
C1888 H1907 0.913 . S
C1889 H1865 0.950 . S
C1889 C1888 1.524 . S
C1889 C1890 1.415 . S
C1890 H1866 0.950 . S
C1890 C1885 1.363 . S
C1890 C1889 1.415 . S
C1891 H1867 0.951 . S
C1891 C1892 1.366 . S
C1891 C1893 1.388 . S
C1892 C1891 1.366 . S
C1892 C1896 1.385 . S
C1893 H1868 0.951 . S
C1893 C1891 1.388 . S
C1893 C1894 1.366 . S
C1894 C1893 1.366 . S
C1894 C1895 1.414 . S
C1894 C1897 1.499 . S
C1895 H1869 0.950 . S
C1895 C1894 1.414 . S
C1895 C1896 1.374 . S
C1896 H1870 0.950 . S
C1896 C1892 1.385 . S
C1896 C1895 1.374 . S
C1897 C1894 1.499 . S
C1897 C1898 1.373 . S
C1897 C1899 1.389 . S
C1898 H1871 0.950 . S
C1898 C1884 1.377 . S
C1898 C1897 1.373 . S
C1899 C1883 1.377 . S
C1899 C1897 1.389 . S
C1899 C1900 1.524 . S
C1900 C1899 1.524 . S
C1900 C1901 1.397 . S
C1900 C1905 1.363 . S
C1901 H1872 0.950 . S
C1901 C1900 1.397 . S
C1901 C1902 1.334 . S
C1902 H1873 0.950 . S
C1902 C1901 1.334 . S
C1902 C1903 1.287 . S
C1903 C1902 1.287 . S
C1903 C1904 1.524 . S
C1903 H1906 0.999 . S
C1904 H1874 0.950 . S
C1904 C1903 1.524 . S
C1904 C1905 1.415 . S
C1905 H1875 0.950 . S
C1905 C1900 1.363 . S
C1905 C1904 1.415 . S
H1906 C1903 0.999 . S
H1907 C1888 0.913 . S
C427 C20 1.263 . S
C442 C376 1.248 . S
C477 C54 1.264 . S
C492 C206 1.248 . S
C527 C240 1.248 . S
C542 C88 1.263 . S
C577 C274 1.248 . S
C592 C122 1.263 . S
C627 C156 1.264 . S
C642 C308 1.248 . S
C677 C190 1.263 . S
C692 C342 1.248 . S
C727 C36 1.249 . S
C742 C224 1.263 . S
C777 C258 1.263 . S
C792 C70 1.248 . S
C827 C104 1.248 . S
C842 C292 1.263 . S
C877 C326 1.263 . S
C892 C138 1.249 . S
C927 C360 1.264 . S
C942 C172 1.248 . S
C977 C2 1.248 . S
C992 C394 1.262 . S
C1027 C209 0.559 . S
C1042 C5 0.559 . S
C1077 C39 0.559 . S
C1092 C243 0.559 . S
C1127 C73 0.558 . S
C1142 C277 0.558 . S
C1177 C107 0.558 . S
C1192 C311 0.558 . S
C1227 C345 0.558 . S
C1242 C141 0.559 . S
C1277 C379 0.559 . S
C1292 C175 0.560 . S
C1327 C203 0.643 . S
C1342 C9 0.643 . S
C1377 C33 0.643 . S
C1392 C43 0.643 . S
C1427 C77 0.644 . S
C1442 C67 0.643 . S
C1477 C111 0.645 . S
C1492 C101 0.642 . S
C1527 C145 0.645 . S
C1542 C135 0.643 . S
C1577 C179 0.645 . S
C1592 C169 0.643 . S
C1627 C213 0.643 . S
C1642 C271 0.644 . S
C1677 C305 0.643 . S
C1692 C247 0.643 . S
C1727 C281 0.644 . S
C1742 C339 0.641 . S
C1777 C315 0.643 . S
C1792 C373 0.641 . S
C1827 C349 0.643 . S
C1842 C407 0.644 . S
C1877 C383 0.645 . S
C1892 C237 0.643 . S
